# Generated by pormake.
# Topology ptr, (4,4)-cn, num edge types: 1
# Building blocks:
#     Node 0, Type 0, BuildingBlock: QUQFOY_clean_sbu_3, # of connection points: 4
#     Node 1, Type 0, BuildingBlock: QUQFOY_clean_sbu_3, # of connection points: 4
#     Node 2, Type 0, BuildingBlock: QUQFOY_clean_sbu_3, # of connection points: 4
#     Node 3, Type 0, BuildingBlock: QUQFOY_clean_sbu_3, # of connection points: 4
#     Node 4, Type 0, BuildingBlock: QUQFOY_clean_sbu_3, # of connection points: 4
#     Node 5, Type 0, BuildingBlock: QUQFOY_clean_sbu_3, # of connection points: 4
#     Node 6, Type 0, BuildingBlock: QUQFOY_clean_sbu_3, # of connection points: 4
#     Node 7, Type 0, BuildingBlock: QUQFOY_clean_sbu_3, # of connection points: 4
#     Node 8, Type 0, BuildingBlock: QUQFOY_clean_sbu_3, # of connection points: 4
#     Node 9, Type 0, BuildingBlock: QUQFOY_clean_sbu_3, # of connection points: 4
#     Node 10, Type 0, BuildingBlock: QUQFOY_clean_sbu_3, # of connection points: 4
#     Node 11, Type 0, BuildingBlock: QUQFOY_clean_sbu_3, # of connection points: 4
#     Node 12, Type 0, BuildingBlock: QUQFOY_clean_sbu_3, # of connection points: 4
#     Node 13, Type 0, BuildingBlock: QUQFOY_clean_sbu_3, # of connection points: 4
#     Node 14, Type 0, BuildingBlock: QUQFOY_clean_sbu_3, # of connection points: 4
#     Node 15, Type 0, BuildingBlock: QUQFOY_clean_sbu_3, # of connection points: 4
#     Node 16, Type 0, BuildingBlock: QUQFOY_clean_sbu_3, # of connection points: 4
#     Node 17, Type 0, BuildingBlock: QUQFOY_clean_sbu_3, # of connection points: 4
#     Node 18, Type 1, BuildingBlock: NAWXER_clean_linker_0, # of connection points: 4
#     Node 19, Type 1, BuildingBlock: NAWXER_clean_linker_0, # of connection points: 4
#     Node 20, Type 1, BuildingBlock: NAWXER_clean_linker_0, # of connection points: 4
#     Node 21, Type 1, BuildingBlock: NAWXER_clean_linker_0, # of connection points: 4
#     Node 22, Type 1, BuildingBlock: NAWXER_clean_linker_0, # of connection points: 4
#     Node 23, Type 1, BuildingBlock: NAWXER_clean_linker_0, # of connection points: 4
#     Node 24, Type 1, BuildingBlock: NAWXER_clean_linker_0, # of connection points: 4
#     Node 25, Type 1, BuildingBlock: NAWXER_clean_linker_0, # of connection points: 4
#     Node 26, Type 1, BuildingBlock: NAWXER_clean_linker_0, # of connection points: 4
#     Node 27, Type 1, BuildingBlock: NAWXER_clean_linker_0, # of connection points: 4
#     Node 28, Type 1, BuildingBlock: NAWXER_clean_linker_0, # of connection points: 4
#     Node 29, Type 1, BuildingBlock: NAWXER_clean_linker_0, # of connection points: 4
#     Node 30, Type 1, BuildingBlock: NAWXER_clean_linker_0, # of connection points: 4
#     Node 31, Type 1, BuildingBlock: NAWXER_clean_linker_0, # of connection points: 4
#     Node 32, Type 1, BuildingBlock: NAWXER_clean_linker_0, # of connection points: 4
#     Node 33, Type 1, BuildingBlock: NAWXER_clean_linker_0, # of connection points: 4
#     Node 34, Type 1, BuildingBlock: NAWXER_clean_linker_0, # of connection points: 4
#     Node 35, Type 1, BuildingBlock: NAWXER_clean_linker_0, # of connection points: 4
#     Edge 36, Type (0, 1), BuildingBlock: CIFDUS_clean_linker_0, # of connection points: 2
#     Edge 37, Type (0, 1), BuildingBlock: CIFDUS_clean_linker_0, # of connection points: 2
#     Edge 38, Type (0, 1), BuildingBlock: CIFDUS_clean_linker_0, # of connection points: 2
#     Edge 39, Type (0, 1), BuildingBlock: CIFDUS_clean_linker_0, # of connection points: 2
#     Edge 40, Type (0, 1), BuildingBlock: CIFDUS_clean_linker_0, # of connection points: 2
#     Edge 41, Type (0, 1), BuildingBlock: CIFDUS_clean_linker_0, # of connection points: 2
#     Edge 42, Type (0, 1), BuildingBlock: CIFDUS_clean_linker_0, # of connection points: 2
#     Edge 43, Type (0, 1), BuildingBlock: CIFDUS_clean_linker_0, # of connection points: 2
#     Edge 44, Type (0, 1), BuildingBlock: CIFDUS_clean_linker_0, # of connection points: 2
#     Edge 45, Type (0, 1), BuildingBlock: CIFDUS_clean_linker_0, # of connection points: 2
#     Edge 46, Type (0, 1), BuildingBlock: CIFDUS_clean_linker_0, # of connection points: 2
#     Edge 47, Type (0, 1), BuildingBlock: CIFDUS_clean_linker_0, # of connection points: 2
#     Edge 48, Type (0, 1), BuildingBlock: CIFDUS_clean_linker_0, # of connection points: 2
#     Edge 49, Type (0, 1), BuildingBlock: CIFDUS_clean_linker_0, # of connection points: 2
#     Edge 50, Type (0, 1), BuildingBlock: CIFDUS_clean_linker_0, # of connection points: 2
#     Edge 51, Type (0, 1), BuildingBlock: CIFDUS_clean_linker_0, # of connection points: 2
#     Edge 52, Type (0, 1), BuildingBlock: CIFDUS_clean_linker_0, # of connection points: 2
#     Edge 53, Type (0, 1), BuildingBlock: CIFDUS_clean_linker_0, # of connection points: 2
#     Edge 54, Type (0, 1), BuildingBlock: CIFDUS_clean_linker_0, # of connection points: 2
#     Edge 55, Type (0, 1), BuildingBlock: CIFDUS_clean_linker_0, # of connection points: 2
#     Edge 56, Type (0, 1), BuildingBlock: CIFDUS_clean_linker_0, # of connection points: 2
#     Edge 57, Type (0, 1), BuildingBlock: CIFDUS_clean_linker_0, # of connection points: 2
#     Edge 58, Type (0, 1), BuildingBlock: CIFDUS_clean_linker_0, # of connection points: 2
#     Edge 59, Type (0, 1), BuildingBlock: CIFDUS_clean_linker_0, # of connection points: 2
#     Edge 60, Type (0, 1), BuildingBlock: CIFDUS_clean_linker_0, # of connection points: 2
#     Edge 61, Type (0, 1), BuildingBlock: CIFDUS_clean_linker_0, # of connection points: 2
#     Edge 62, Type (0, 1), BuildingBlock: CIFDUS_clean_linker_0, # of connection points: 2
#     Edge 63, Type (0, 1), BuildingBlock: CIFDUS_clean_linker_0, # of connection points: 2
#     Edge 64, Type (0, 1), BuildingBlock: CIFDUS_clean_linker_0, # of connection points: 2
#     Edge 65, Type (0, 1), BuildingBlock: CIFDUS_clean_linker_0, # of connection points: 2
#     Edge 66, Type (0, 1), BuildingBlock: CIFDUS_clean_linker_0, # of connection points: 2
#     Edge 67, Type (0, 1), BuildingBlock: CIFDUS_clean_linker_0, # of connection points: 2
#     Edge 68, Type (0, 1), BuildingBlock: CIFDUS_clean_linker_0, # of connection points: 2
#     Edge 69, Type (0, 1), BuildingBlock: CIFDUS_clean_linker_0, # of connection points: 2
#     Edge 70, Type (0, 1), BuildingBlock: CIFDUS_clean_linker_0, # of connection points: 2
#     Edge 71, Type (0, 1), BuildingBlock: CIFDUS_clean_linker_0, # of connection points: 2
#     Edge 72, Type (0, 1), BuildingBlock: CIFDUS_clean_linker_0, # of connection points: 2
#     Edge 73, Type (0, 1), BuildingBlock: CIFDUS_clean_linker_0, # of connection points: 2
#     Edge 74, Type (0, 1), BuildingBlock: CIFDUS_clean_linker_0, # of connection points: 2
#     Edge 75, Type (0, 1), BuildingBlock: CIFDUS_clean_linker_0, # of connection points: 2
#     Edge 76, Type (0, 1), BuildingBlock: CIFDUS_clean_linker_0, # of connection points: 2
#     Edge 77, Type (0, 1), BuildingBlock: CIFDUS_clean_linker_0, # of connection points: 2
#     Edge 78, Type (0, 1), BuildingBlock: CIFDUS_clean_linker_0, # of connection points: 2
#     Edge 79, Type (0, 1), BuildingBlock: CIFDUS_clean_linker_0, # of connection points: 2
#     Edge 80, Type (0, 1), BuildingBlock: CIFDUS_clean_linker_0, # of connection points: 2
#     Edge 81, Type (0, 1), BuildingBlock: CIFDUS_clean_linker_0, # of connection points: 2
#     Edge 82, Type (0, 1), BuildingBlock: CIFDUS_clean_linker_0, # of connection points: 2
#     Edge 83, Type (0, 1), BuildingBlock: CIFDUS_clean_linker_0, # of connection points: 2
#     Edge 84, Type (0, 1), BuildingBlock: CIFDUS_clean_linker_0, # of connection points: 2
#     Edge 85, Type (0, 1), BuildingBlock: CIFDUS_clean_linker_0, # of connection points: 2
#     Edge 86, Type (0, 1), BuildingBlock: CIFDUS_clean_linker_0, # of connection points: 2
#     Edge 87, Type (0, 1), BuildingBlock: CIFDUS_clean_linker_0, # of connection points: 2
#     Edge 88, Type (0, 1), BuildingBlock: CIFDUS_clean_linker_0, # of connection points: 2
#     Edge 89, Type (0, 1), BuildingBlock: CIFDUS_clean_linker_0, # of connection points: 2
#     Edge 90, Type (0, 1), BuildingBlock: CIFDUS_clean_linker_0, # of connection points: 2
#     Edge 91, Type (0, 1), BuildingBlock: CIFDUS_clean_linker_0, # of connection points: 2
#     Edge 92, Type (0, 1), BuildingBlock: CIFDUS_clean_linker_0, # of connection points: 2
#     Edge 93, Type (0, 1), BuildingBlock: CIFDUS_clean_linker_0, # of connection points: 2
#     Edge 94, Type (0, 1), BuildingBlock: CIFDUS_clean_linker_0, # of connection points: 2
#     Edge 95, Type (0, 1), BuildingBlock: CIFDUS_clean_linker_0, # of connection points: 2
#     Edge 96, Type (0, 1), BuildingBlock: CIFDUS_clean_linker_0, # of connection points: 2
#     Edge 97, Type (0, 1), BuildingBlock: CIFDUS_clean_linker_0, # of connection points: 2
#     Edge 98, Type (0, 1), BuildingBlock: CIFDUS_clean_linker_0, # of connection points: 2
#     Edge 99, Type (0, 1), BuildingBlock: CIFDUS_clean_linker_0, # of connection points: 2
#     Edge 100, Type (0, 1), BuildingBlock: CIFDUS_clean_linker_0, # of connection points: 2
#     Edge 101, Type (0, 1), BuildingBlock: CIFDUS_clean_linker_0, # of connection points: 2
#     Edge 102, Type (0, 1), BuildingBlock: CIFDUS_clean_linker_0, # of connection points: 2
#     Edge 103, Type (0, 1), BuildingBlock: CIFDUS_clean_linker_0, # of connection points: 2
#     Edge 104, Type (0, 1), BuildingBlock: CIFDUS_clean_linker_0, # of connection points: 2
#     Edge 105, Type (0, 1), BuildingBlock: CIFDUS_clean_linker_0, # of connection points: 2
#     Edge 106, Type (0, 1), BuildingBlock: CIFDUS_clean_linker_0, # of connection points: 2
#     Edge 107, Type (0, 1), BuildingBlock: CIFDUS_clean_linker_0, # of connection points: 2
# Relax obj value: 0.029
# Max RMSD: 0.136
# Mean RMSD: 0.051
data_MOF--net-ptr--node1-QUQFOY_clean_sbu_3--node2-NAWXER_clean_linker_0--edge1-CIFDUS_clean_linker_0
_symmetry_space_group_name_H-M    P1
_symmetry_Int_Tables_number       1
_symmetry_cell_setting            triclinic
loop_
_symmetry_equiv_pos_as_xyz
'x, y, z'
_cell_length_a     79.745883
_cell_length_b     80.172098
_cell_length_c     58.662027
_cell_angle_alpha  90.369738
_cell_angle_beta   89.571671
_cell_angle_gamma 120.60049
loop_
_atom_site_label
_atom_site_type_symbol
_atom_site_fract_x
_atom_site_fract_y
_atom_site_fract_z
_atom_type_partial_charge
C0 C 0.95599 0.30955 0.99008 0.0
O1 O 0.94763 0.31789 -0.00096 0.0
Cd2 Cd 0.96486 0.35056 0.01229 0.0
O3 O 0.97453 0.31773 0.98982 0.0
Cd4 Cd 0.00344 0.3474 0.00598 0.0
C5 C -0.0035 0.37386 0.96656 0.0
O6 O 0.98717 0.35136 0.03935 0.0
O7 O 0.01602 0.37517 0.03205 0.0
O8 O 0.0108 0.32358 0.02068 0.0
C9 C 0.00124 0.36781 0.04508 0.0
O10 O 0.98164 0.36996 0.97874 0.0
C11 C 0.02902 0.33334 0.01709 0.0
O12 O 0.00752 0.36723 0.97179 0.0
O13 O 0.03554 0.34957 0.00716 0.0
C14 C 0.62532 0.68123 0.01602 0.0
O15 O 0.6077 0.67036 0.01004 0.0
Cd16 Cd 0.59455 0.63826 0.99542 0.0
O17 O 0.63775 0.67592 0.01281 0.0
Cd18 Cd 0.63919 0.64817 0.99547 0.0
C19 C 0.60991 0.61957 0.03803 0.0
O20 O 0.61559 0.64049 0.96498 0.0
O21 O 0.62559 0.62026 0.96956 0.0
O22 O 0.66937 0.67042 0.9756 0.0
C23 C 0.61539 0.62531 0.95833 0.0
O24 O 0.5964 0.62093 0.02841 0.0
C25 C 0.67934 0.66383 0.98437 0.0
O26 O 0.62713 0.62805 0.02987 0.0
O27 O 0.67073 0.65024 -0.00123 0.0
C28 C 0.30895 0.94722 0.02393 0.0
O29 O 0.31578 0.93693 0.01657 0.0
Cd30 Cd 0.34622 0.94975 -0.00309 0.0
O31 O 0.31793 0.9654 0.02032 0.0
Cd32 Cd 0.34763 0.99039 0.00069 0.0
C33 C 0.37577 0.98314 0.03747 0.0
O34 O 0.34635 0.97069 0.96824 0.0
O35 O 0.37272 -0.00148 0.9718 0.0
O36 O 0.32813 0.00198 0.98359 0.0
C37 C 0.3627 0.98328 0.96006 0.0
O38 O 0.37007 0.96741 0.02648 0.0
C39 C 0.33836 0.01939 0.99029 0.0
O40 O 0.36944 -0.0056 0.03244 0.0
O41 O 0.35283 0.02343 0.00296 0.0
C42 C 0.94922 0.64038 0.99332 0.0
O43 O 0.93822 0.62391 0.00219 0.0
Cd44 Cd 0.95248 0.60461 0.01 0.0
O45 O 0.96763 0.64786 0.99354 0.0
Cd46 Cd -0.00777 0.64196 0.01125 0.0
C47 C 0.98481 0.61669 0.9641 0.0
O48 O 0.97505 0.6174 0.04067 0.0
O49 O 0.00086 0.61908 0.02592 0.0
O50 O -0.00018 0.66702 0.0387 0.0
C51 C 0.98754 0.61203 0.041 0.0
O52 O 0.96879 0.60534 0.97423 0.0
C53 C 0.01761 0.67773 0.03333 0.0
O54 O -0.00244 0.63246 0.97344 0.0
O55 O 0.02396 0.67216 0.01673 0.0
C56 C 0.31227 0.36205 0.02185 0.0
O57 O 0.32302 0.37964 0.01595 0.0
Cd58 Cd 0.35277 0.3919 0.99444 0.0
O59 O 0.31663 0.34938 0.01602 0.0
Cd60 Cd 0.34203 0.34722 0.9944 0.0
C61 C 0.37694 0.37789 0.03096 0.0
O62 O 0.34593 0.36961 0.96412 0.0
O63 O 0.36663 0.35977 0.96418 0.0
O64 O 0.3173 0.31715 0.9771 0.0
C65 C 0.3601 0.36939 0.95452 0.0
O66 O 0.37581 0.3913 0.02086 0.0
C67 C 0.325 0.30735 0.98297 0.0
O68 O 0.36538 0.36013 0.02605 0.0
O69 O 0.34023 0.31591 0.99516 0.0
C70 C 0.67449 0.03998 0.99052 0.0
O71 O 0.66441 0.04742 -0.00331 0.0
Cd72 Cd 0.63297 0.03019 0.01469 0.0
O73 O 0.66839 0.02215 0.99439 0.0
Cd74 Cd 0.63916 -0.00559 0.01271 0.0
C75 C 0.60921 -0.00426 0.97314 0.0
O76 O 0.6337 0.01106 0.04507 0.0
O77 O 0.61032 0.98227 0.03705 0.0
O78 O 0.66167 0.98637 0.0307 0.0
C79 C 0.61713 -0.00324 0.05034 0.0
O80 O 0.61066 0.00974 0.98509 0.0
C81 C 0.65204 0.96839 0.02613 0.0
O82 O 0.61942 0.98805 0.97766 0.0
O83 O 0.63672 0.96249 0.01431 0.0
C84 C 0.61021 0.64042 0.32971 0.0
O85 O 0.60256 0.65001 0.33696 0.0
Cd86 Cd 0.61975 0.68127 0.35448 0.0
O87 O 0.62841 0.64699 0.33217 0.0
Cd88 Cd 0.65687 0.67608 0.3496 0.0
C89 C 0.65339 0.70609 0.31187 0.0
O90 O 0.64014 0.67975 0.38254 0.0
O91 O 0.66892 0.70388 0.37608 0.0
O92 O 0.66652 0.65518 0.368 0.0
C93 C 0.65397 0.69611 0.38887 0.0
O94 O 0.63901 0.70349 0.32414 0.0
C95 C 0.68376 0.66352 0.36012 0.0
O96 O 0.66219 0.69686 0.31591 0.0
O97 O 0.68849 0.67747 0.34641 0.0
C98 C 0.29798 0.02327 0.36331 0.0
O99 O 0.27996 0.01352 0.35858 0.0
Cd100 Cd 0.26391 0.98176 0.34262 0.0
O101 O 0.3092 0.0168 0.35812 0.0
Cd102 Cd 0.30642 0.98798 0.33773 0.0
C103 C 0.27851 0.95878 0.3806 0.0
O104 O 0.28171 0.98271 0.3094 0.0
O105 O 0.28793 0.95966 0.31337 0.0
O106 O 0.33431 0.00889 0.3138 0.0
C107 C 0.27915 0.96655 0.30252 0.0
O108 O 0.26543 0.96168 0.37256 0.0
C109 C 0.34424 0.00109 0.31866 0.0
O110 O 0.29551 0.9669 0.37175 0.0
O111 O 0.33699 0.98762 0.3334 0.0
C112 C 0.98014 0.29036 0.34845 0.0
O113 O 0.98834 0.28133 0.34107 0.0
Cd114 Cd 0.01927 0.29738 0.32137 0.0
O115 O 0.98817 0.30858 0.3458 0.0
Cd116 Cd 0.01748 0.33589 0.32922 0.0
C117 C 0.04779 0.32975 0.36303 0.0
O118 O 0.01864 0.31928 0.29453 0.0
O119 O 0.0431 0.34799 0.30077 0.0
O120 O -0.00529 0.34541 0.31737 0.0
C121 C 0.03473 0.33341 0.28766 0.0
O122 O 0.04398 0.31556 0.34988 0.0
C123 C 0.00526 0.36317 0.32258 0.0
O124 O 0.03886 0.33909 0.36114 0.0
O125 O 0.02147 0.3683 0.33207 0.0
C126 C 0.6159 0.97216 0.3301 0.0
O127 O 0.60529 0.95559 0.339 0.0
Cd128 Cd 0.61938 0.93755 0.35287 0.0
O129 O 0.63439 0.98072 0.33144 0.0
Cd130 Cd 0.65972 0.97646 0.35044 0.0
C131 C 0.65134 0.94501 0.30826 0.0
O132 O 0.6414 0.95581 0.38283 0.0
O133 O 0.66873 0.95767 0.37451 0.0
O134 O 0.67101 0.00806 0.36734 0.0
C135 C 0.65426 0.95162 0.38792 0.0
O136 O 0.63547 0.93418 0.31893 0.0
C137 C 0.68885 0.01494 0.36235 0.0
O138 O 0.66354 0.96185 0.31568 0.0
O139 O 0.69319 0.00402 0.35114 0.0
C140 C 0.97271 0.67453 0.34954 0.0
O141 O 0.97848 0.69039 0.3391 0.0
Cd142 Cd 0.01044 0.70819 0.32293 0.0
O143 O 0.98269 0.6662 0.34898 0.0
Cd144 Cd 0.01183 0.66914 0.33014 0.0
C145 C 0.0365 0.70447 0.36822 0.0
O146 O 0.01331 0.68738 0.29618 0.0
O147 O 0.03883 0.68558 0.30365 0.0
O148 O -0.01015 0.63686 0.31631 0.0
C149 C 0.03026 0.69122 0.29036 0.0
O150 O 0.0311 0.71401 0.35606 0.0
C151 C 0.00052 0.62992 0.32135 0.0
O152 O 0.03147 0.68705 0.36318 0.0
O153 O 0.01645 0.64115 0.33152 0.0
C154 C 0.35065 0.36552 0.32499 0.0
O155 O 0.34294 0.37533 0.33115 0.0
Cd156 Cd 0.31171 0.36241 0.34873 0.0
O157 O 0.34225 0.34745 0.32943 0.0
Cd158 Cd 0.31223 0.32263 0.35009 0.0
C159 C 0.28441 0.32643 0.30921 0.0
O160 O 0.31087 0.34344 0.38018 0.0
O161 O 0.28555 0.31492 0.37668 0.0
O162 O 0.33299 0.31287 0.36906 0.0
C163 C 0.29421 0.33078 0.38758 0.0
O164 O 0.28945 0.34264 0.31868 0.0
C165 C 0.32198 0.29481 0.36572 0.0
O166 O 0.29087 0.31578 0.31645 0.0
O167 O 0.30669 0.2896 0.35409 0.0
C168 C 0.26917 0.96688 0.66249 0.0
O169 O 0.26051 0.97537 0.67014 0.0
Cd170 Cd 0.2765 0.00716 0.68591 0.0
O171 O 0.28758 0.97463 0.66465 0.0
Cd172 Cd 0.31529 0.00414 0.68287 0.0
C173 C 0.31036 0.03131 0.64265 0.0
O174 O 0.29758 0.00793 0.71469 0.0
O175 O 0.32622 0.03235 0.70796 0.0
O176 O 0.32403 0.98349 0.70321 0.0
C177 C 0.31114 0.02464 0.72053 0.0
O178 O 0.2949 0.0272 0.65365 0.0
C179 C 0.34167 0.99183 0.69671 0.0
O180 O 0.32115 0.02467 0.64888 0.0
O181 O 0.34715 0.00569 0.68264 0.0
C182 C 0.96394 0.3439 0.69394 0.0
O183 O 0.94593 0.33458 0.68903 0.0
Cd184 Cd 0.92978 0.30422 0.66934 0.0
O185 O 0.97504 0.33752 0.68782 0.0
Cd186 Cd 0.97297 0.30972 0.66607 0.0
C187 C 0.94153 0.27769 0.70528 0.0
O188 O 0.95031 0.3086 0.6376 0.0
O189 O 0.95723 0.28595 0.63506 0.0
O190 O 0.00458 0.33411 0.65081 0.0
C191 C 0.94823 0.29383 0.62709 0.0
O192 O 0.92906 0.28131 0.69683 0.0
C193 C 0.01243 0.32382 0.6524 0.0
O194 O 0.95909 0.28645 0.69803 0.0
O195 O 0.00214 0.30712 0.66119 0.0
C196 C 0.65044 0.62091 0.69289 0.0
O197 O 0.65973 0.61237 0.68793 0.0
Cd198 Cd 0.68982 0.62658 0.66671 0.0
O199 O 0.65711 0.6385 0.68724 0.0
Cd200 Cd 0.68641 0.66423 0.66811 0.0
C201 C 0.7188 0.66288 0.70354 0.0
O202 O 0.68764 0.64488 0.63619 0.0
O203 O 0.71224 0.6738 0.64026 0.0
O204 O 0.66619 0.67623 0.65277 0.0
C205 C 0.70381 0.65835 0.62859 0.0
O206 O 0.71587 0.64798 0.69233 0.0
C207 C 0.67788 0.6938 0.65807 0.0
O208 O 0.7085 0.67062 0.70012 0.0
O209 O 0.69309 0.69742 0.66892 0.0
C210 C 0.26499 0.29218 0.67148 0.0
O211 O 0.25626 0.27509 0.67945 0.0
Cd212 Cd 0.27247 0.26 0.69567 0.0
O213 O 0.28342 0.30301 0.67342 0.0
Cd214 Cd 0.3113 0.30194 0.69107 0.0
C215 C 0.30495 0.26869 0.65127 0.0
O216 O 0.29365 0.28182 0.72401 0.0
O217 O 0.3223 0.28627 0.71785 0.0
O218 O 0.32184 0.33486 0.70393 0.0
C219 C 0.30728 0.27922 0.73046 0.0
O220 O 0.28985 0.25721 0.6628 0.0
C221 C 0.33981 0.34153 0.69993 0.0
O222 O 0.31568 0.28636 0.65719 0.0
O223 O 0.3445 0.32996 0.69108 0.0
C224 C 0.64941 0.02903 0.68731 0.0
O225 O 0.65716 0.04626 0.67993 0.0
Cd226 Cd 0.6883 0.06258 0.66136 0.0
O227 O 0.65759 0.01911 0.68402 0.0
Cd228 Cd 0.68663 0.0217 0.66532 0.0
C229 C 0.71444 0.05618 0.70385 0.0
O230 O 0.68817 0.04129 0.63264 0.0
O231 O 0.71282 0.0375 0.63772 0.0
O232 O 0.66363 0.98922 0.65196 0.0
C233 C 0.70448 0.04413 0.62555 0.0
O234 O 0.71032 0.06705 0.69236 0.0
C235 C 0.67464 0.98236 0.65542 0.0
O236 O 0.70723 0.03837 0.69855 0.0
O237 O 0.69111 -0.00636 0.66441 0.0
C238 C 0.00707 0.70743 0.64704 0.0
O239 O -0.00338 0.71487 0.6513 0.0
Cd240 Cd 0.96667 0.70016 0.67236 0.0
O241 O 0.00192 0.69048 0.65423 0.0
Cd242 Cd 0.97382 0.66495 0.67705 0.0
C243 C 0.93937 0.66001 0.63915 0.0
O244 O 0.97145 0.68624 0.70552 0.0
O245 O 0.94744 0.6568 0.70489 0.0
O246 O -0.00391 0.65922 0.69921 0.0
C247 C 0.95577 0.67324 0.71463 0.0
O248 O 0.94165 0.67557 0.64796 0.0
C249 C 0.98791 0.64116 0.69543 0.0
O250 O 0.95021 0.65327 0.64481 0.0
O251 O 0.97343 0.63395 0.68198 0.0
C252 C 0.21946 0.32767 0.12023 0.0
C253 C 0.21809 0.31556 0.10203 0.0
C254 C 0.20299 0.32353 0.13301 0.0
C255 C 0.18491 0.30707 0.12804 0.0
C256 C 0.20007 0.29885 0.09739 0.0
C257 C 0.18357 0.29474 0.1102 0.0
C258 C 0.16706 0.30417 0.13934 0.0
C259 C 0.20472 0.2998 0.19366 0.0
C260 C 0.20995 0.31376 0.21103 0.0
C261 C 0.18993 0.29633 0.17816 0.0
C262 C 0.1802 0.30684 0.17978 0.0
C263 C 0.19962 0.3236 0.21306 0.0
C264 C 0.18496 0.32017 0.19769 0.0
C265 C 0.16503 0.30441 0.16328 0.0
C266 C 0.08554 0.29614 0.17512 0.0
C267 C 0.09045 0.30914 0.1935 0.0
C268 C 0.10007 0.29464 0.16336 0.0
C269 C 0.11968 0.30615 0.16982 0.0
C270 C 0.11009 0.32052 0.19989 0.0
C271 C 0.1245 0.31901 0.18822 0.0
C272 C 0.1354 0.30459 0.15838 0.0
C273 C 0.11484 0.33059 0.10596 0.0
C274 C 0.10551 0.31853 0.08712 0.0
C275 C 0.12495 0.32589 0.12151 0.0
C276 C 0.12591 0.30899 0.11865 0.0
C277 C 0.10648 0.30161 0.08423 0.0
C278 C 0.11681 0.297 0.09973 0.0
C279 C 0.13767 0.3048 0.13449 0.0
H280 H 0.23319 0.34057 0.12427 0.0
H281 H 0.20426 0.33359 0.14626 0.0
H282 H 0.19856 0.28941 0.08329 0.0
H283 H 0.16966 0.28217 0.10585 0.0
H284 H 0.21236 0.29192 0.19174 0.0
H285 H 0.18621 0.28558 0.16489 0.0
H286 H 0.20295 0.33412 0.22654 0.0
H287 H 0.17762 0.32835 0.19956 0.0
H288 H 0.07051 0.28715 0.16989 0.0
H289 H 0.09595 0.28432 0.1495 0.0
H290 H 0.11432 0.33033 0.2143 0.0
H291 H 0.1395 0.32795 0.19362 0.0
H292 H 0.11422 0.34363 0.10877 0.0
H293 H 0.13227 0.33564 0.13564 0.0
H294 H 0.09955 0.29213 0.06977 0.0
H295 H 0.11764 0.28407 0.097 0.0
N296 N 0.15329 0.30432 0.1259 0.0
N297 N 0.14918 0.3045 0.17174 0.0
C298 C 0.64455 0.87314 0.10654 0.0
C299 C 0.65923 0.8852 0.09104 0.0
C300 C 0.64736 0.86127 0.12142 0.0
C301 C 0.66494 0.86121 0.12121 0.0
C302 C 0.67684 0.88511 0.09078 0.0
C303 C 0.67957 0.87303 0.10558 0.0
C304 C 0.66743 0.84797 0.13643 0.0
C305 C 0.66798 0.8929 0.18499 0.0
C306 C 0.65243 0.88498 0.20072 0.0
C307 C 0.67144 0.88074 0.17095 0.0
C308 C 0.65942 0.86052 0.17253 0.0
C309 C 0.64019 0.86476 0.20173 0.0
C310 C 0.6437 0.8527 0.18787 0.0
C311 C 0.66388 0.84714 0.16011 0.0
C312 C 0.67844 0.7872 0.19897 0.0
C313 C 0.66197 0.77837 0.21337 0.0
C314 C 0.67962 0.79957 0.18136 0.0
C315 C 0.66438 0.80326 0.17804 0.0
C316 C 0.64627 0.78114 0.20881 0.0
C317 C 0.64756 0.79359 0.19156 0.0
C318 C 0.66646 0.81886 0.16283 0.0
C319 C 0.65188 0.7697 0.11475 0.0
C320 C 0.66569 0.77346 0.09755 0.0
C321 C 0.65384 0.78454 0.12903 0.0
C322 C 0.66975 0.80345 0.12654 0.0
C323 C 0.68198 0.79222 0.0955 0.0
C324 C 0.68387 0.80716 0.10975 0.0
C325 C 0.67003 0.81959 0.13915 0.0
H326 H 0.63089 0.87298 0.10728 0.0
H327 H 0.63565 0.85193 0.13294 0.0
H328 H 0.68835 0.89413 0.07889 0.0
H329 H 0.69313 0.873 0.10492 0.0
H330 H 0.67762 0.90844 0.18381 0.0
H331 H 0.68386 0.88709 0.15949 0.0
H332 H 0.62831 0.85815 0.21392 0.0
H333 H 0.63429 0.83715 0.18947 0.0
H334 H 0.69078 0.78536 0.20203 0.0
H335 H 0.69281 0.80703 0.17119 0.0
H336 H 0.63313 0.77414 0.21911 0.0
H337 H 0.63557 0.79612 0.18919 0.0
H338 H 0.63923 0.75534 0.11675 0.0
H339 H 0.64237 0.78137 0.14127 0.0
H340 H 0.69274 0.7955 0.08225 0.0
H341 H 0.69607 0.82172 0.10728 0.0
N342 N 0.67047 0.83419 0.12685 0.0
N343 N 0.66355 0.83266 0.17227 0.0
C344 C 0.10228 0.77248 0.11455 0.0
C345 C 0.09593 0.77592 0.09382 0.0
C346 C 0.11401 0.78783 0.12909 0.0
C347 C 0.11898 0.80685 0.12359 0.0
C348 C 0.10149 0.79497 0.08781 0.0
C349 C 0.11292 0.81033 0.10263 0.0
C350 C 0.13211 0.82332 0.13844 0.0
C351 C 0.08016 0.78282 0.18176 0.0
C352 C 0.08536 0.77548 0.20041 0.0
C353 C 0.09451 0.79863 0.16939 0.0
C354 C 0.11423 0.80718 0.17546 0.0
C355 C 0.10502 0.78461 0.20686 0.0
C356 C 0.11924 0.80022 0.19455 0.0
C357 C 0.13009 0.82329 0.16243 0.0
C358 C 0.2019 0.89892 0.19098 0.0
C359 C 0.2066 0.89161 0.21009 0.0
C360 C 0.187 0.88636 0.17621 0.0
C361 C 0.17663 0.86631 0.18032 0.0
C362 C 0.1959 0.8716 0.21434 0.0
C363 C 0.18107 0.85912 0.19967 0.0
C364 C 0.16101 0.85247 0.16493 0.0
C365 C 0.21538 0.87519 0.12228 0.0
C366 C 0.21554 0.88497 0.10244 0.0
C367 C 0.19848 0.86532 0.1354 0.0
C368 C 0.18149 0.86521 0.12904 0.0
C369 C 0.19866 0.88525 0.09636 0.0
C370 C 0.1817 0.87526 0.10947 0.0
C371 C 0.163 0.85251 0.14101 0.0
H372 H 0.09843 0.75791 0.11931 0.0
H373 H 0.11937 0.7848 0.14449 0.0
H374 H 0.09677 0.79792 0.07185 0.0
H375 H 0.11701 0.82493 0.09775 0.0
H376 H 0.06509 0.77614 0.17652 0.0
H377 H 0.09024 0.80404 0.15503 0.0
H378 H 0.10946 0.77968 0.22154 0.0
H379 H 0.1343 0.80665 0.19974 0.0
H380 H 0.20988 0.91429 0.18729 0.0
H381 H 0.18358 0.89232 0.16165 0.0
H382 H 0.19889 0.86555 0.22916 0.0
H383 H 0.17322 0.84373 0.20331 0.0
H384 H 0.22823 0.87486 0.1274 0.0
H385 H 0.19851 0.85717 0.15005 0.0
H386 H 0.19837 0.89252 0.081 0.0
H387 H 0.16861 0.87502 0.10408 0.0
N388 N 0.14841 0.83807 0.12871 0.0
N389 N 0.14463 0.83788 0.1746 0.0
C390 C 0.32754 0.10642 0.83363 0.0
C391 C 0.31364 0.09705 0.81639 0.0
C392 C 0.32554 0.11842 0.84938 0.0
C393 C 0.30954 0.12121 0.84829 0.0
C394 C 0.29749 0.09964 0.81551 0.0
C395 C 0.29556 0.11176 0.83121 0.0
C396 C 0.30835 0.13533 0.86356 0.0
C397 C 0.29804 0.0863 0.90923 0.0
C398 C 0.31463 0.09069 0.92214 0.0
C399 C 0.29685 0.10089 0.89784 0.0
C400 C 0.31205 0.12018 0.89943 0.0
C401 C 0.32974 0.11017 0.92385 0.0
C402 C 0.32832 0.1248 0.91284 0.0
C403 C 0.31088 0.1356 0.88736 0.0
C404 C 0.29568 0.19747 0.92033 0.0
C405 C 0.31222 0.20896 0.93384 0.0
C406 C 0.29494 0.18314 0.90598 0.0
C407 C 0.31056 0.1798 0.90517 0.0
C408 C 0.32773 0.20532 0.93306 0.0
C409 C 0.32677 0.19071 0.91909 0.0
C410 C 0.30994 0.16472 0.89015 0.0
C411 C 0.32409 0.21445 0.843 0.0
C412 C 0.31044 0.21026 0.82564 0.0
C413 C 0.32265 0.19971 0.85692 0.0
C414 C 0.30744 0.18049 0.85387 0.0
C415 C 0.29492 0.19112 0.82302 0.0
C416 C 0.29353 0.17635 0.8369 0.0
C417 C 0.30733 0.16446 0.86635 0.0
H418 H 0.34009 0.10464 0.83477 0.0
H419 H 0.33683 0.12599 0.86197 0.0
H420 H 0.28669 0.0928 0.80223 0.0
H421 H 0.28326 0.11393 0.82987 0.0
H422 H 0.28589 0.07159 0.90794 0.0
H423 H 0.284 0.09713 0.88788 0.0
H424 H 0.34288 0.11414 0.93327 0.0
H425 H 0.34017 0.13967 0.91427 0.0
H426 H 0.28325 0.19948 0.92082 0.0
H427 H 0.28212 0.17457 0.89563 0.0
H428 H 0.34088 0.21404 0.94278 0.0
H429 H 0.33895 0.18827 0.91868 0.0
H430 H 0.33617 0.22908 0.84546 0.0
H431 H 0.33392 0.20323 0.86941 0.0
H432 H 0.28433 0.1874 0.8096 0.0
H433 H 0.28183 0.1616 0.83404 0.0
N434 N 0.30657 0.14972 0.85396 0.0
N435 N 0.31168 0.15033 0.89979 0.0
C436 C 0.90483 0.20169 0.90393 0.0
C437 C 0.89831 0.21204 0.91719 0.0
C438 C 0.89154 0.18487 0.8922 0.0
C439 C 0.87148 0.1779 0.8938 0.0
C440 C 0.87813 0.20487 0.91864 0.0
C441 C 0.86488 0.18786 0.90737 0.0
C442 C 0.85719 0.16049 0.88109 0.0
C443 C 0.88253 0.20708 0.82778 0.0
C444 C 0.89114 0.20362 0.80876 0.0
C445 C 0.87281 0.19281 0.84425 0.0
C446 C 0.87174 0.17481 0.84232 0.0
C447 C 0.89084 0.18596 0.80725 0.0
C448 C 0.88106 0.1716 0.82381 0.0
C449 C 0.85828 0.15853 0.85729 0.0
C450 C 0.78005 0.09934 0.82905 0.0
C451 C 0.78427 0.08931 0.81239 0.0
C452 C 0.79408 0.1111 0.84502 0.0
C453 C 0.81254 0.11291 0.84476 0.0
C454 C 0.80244 0.09044 0.81278 0.0
C455 C 0.81653 0.10231 0.82871 0.0
C456 C 0.8285 0.12802 0.85862 0.0
C457 C 0.78352 0.08454 0.90673 0.0
C458 C 0.77625 0.09247 0.92277 0.0
C459 C 0.8003 0.09658 0.89393 0.0
C460 C 0.80992 0.11683 0.89654 0.0
C461 C 0.78653 0.11266 0.9261 0.0
C462 C 0.80306 0.12465 0.91312 0.0
C463 C 0.8271 0.13024 0.8824 0.0
H464 H 0.92018 0.20648 0.90267 0.0
H465 H 0.8969 0.17725 0.88198 0.0
H466 H 0.87245 0.21258 0.9281 0.0
H467 H 0.84946 0.1828 0.90867 0.0
H468 H 0.88258 0.22057 0.82942 0.0
H469 H 0.86516 0.19551 0.85775 0.0
H470 H 0.89719 0.18284 0.79265 0.0
H471 H 0.88012 0.15772 0.82172 0.0
H472 H 0.76613 0.09867 0.82918 0.0
H473 H 0.79082 0.11952 0.85684 0.0
H474 H 0.80616 0.08306 0.79997 0.0
H475 H 0.83079 0.10376 0.82799 0.0
H476 H 0.77605 0.06907 0.90369 0.0
H477 H 0.80561 0.09002 0.8819 0.0
H478 H 0.78178 0.1193 0.93873 0.0
H479 H 0.8103 0.14017 0.91582 0.0
N480 N 0.84162 0.14639 0.89264 0.0
N481 N 0.84402 0.14224 0.84709 0.0
C482 C 0.79107 0.71055 0.90514 0.0
C483 C 0.77849 0.69448 0.91869 0.0
C484 C 0.80663 0.71101 0.89338 0.0
C485 C 0.80987 0.69541 0.89497 0.0
C486 C 0.7822 0.67917 0.92068 0.0
C487 C 0.79781 0.67973 0.90912 0.0
C488 C 0.8255 0.69495 0.88179 0.0
C489 C 0.78136 0.68798 0.82962 0.0
C490 C 0.78859 0.70027 0.81068 0.0
C491 C 0.79415 0.68774 0.84552 0.0
C492 C 0.81438 0.70034 0.84326 0.0
C493 C 0.80872 0.71303 0.80844 0.0
C494 C 0.82151 0.71314 0.82469 0.0
C495 C 0.82821 0.69828 0.85806 0.0
C496 C 0.88043 0.66844 0.83162 0.0
C497 C 0.89129 0.68168 0.81424 0.0
C498 C 0.86919 0.67225 0.84682 0.0
C499 C 0.8688 0.68954 0.84525 0.0
C500 C 0.8912 0.69915 0.81302 0.0
C501 C 0.88001 0.70298 0.82829 0.0
C502 C 0.85482 0.69251 0.85897 0.0
C503 C 0.8932 0.68996 0.91473 0.0
C504 C 0.88339 0.67225 0.92664 0.0
C505 C 0.88311 0.69515 0.89967 0.0
C506 C 0.86304 0.68289 0.89658 0.0
C507 C 0.86332 0.65985 0.92288 0.0
C508 C 0.85322 0.66527 0.90829 0.0
C509 C 0.85174 0.68878 0.88256 0.0
H510 H 0.78884 0.72274 0.90352 0.0
H511 H 0.81602 0.72345 0.8829 0.0
H512 H 0.77267 0.6664 0.93058 0.0
H513 H 0.80005 0.66753 0.91059 0.0
H514 H 0.76591 0.67765 0.83129 0.0
H515 H 0.78817 0.67693 0.85882 0.0
H516 H 0.81457 0.72241 0.79372 0.0
H517 H 0.83704 0.72273 0.82229 0.0
H518 H 0.88025 0.6549 0.83315 0.0
H519 H 0.86015 0.66123 0.8591 0.0
H520 H 0.89913 0.70955 0.79966 0.0
H521 H 0.8797 0.71626 0.82645 0.0
H522 H 0.90856 0.70004 0.91739 0.0
H523 H 0.89084 0.70896 0.89097 0.0
H524 H 0.85532 0.64588 0.93114 0.0
H525 H 0.8377 0.65562 0.90605 0.0
N526 N 0.83725 0.69015 0.89302 0.0
N527 N 0.84292 0.69715 0.84769 0.0
C528 C 0.74705 0.61655 0.4383 0.0
C529 C 0.7519 0.63341 0.42582 0.0
C530 C 0.76135 0.61497 0.4501 0.0
C531 C 0.78084 0.6301 0.44951 0.0
C532 C 0.77159 0.64828 0.42477 0.0
C533 C 0.7859 0.64653 0.43628 0.0
C534 C 0.79596 0.62918 0.46303 0.0
C535 C 0.76051 0.64017 0.5133 0.0
C536 C 0.75154 0.6264 0.53071 0.0
C537 C 0.77397 0.63949 0.4987 0.0
C538 C 0.77833 0.62466 0.50064 0.0
C539 C 0.75562 0.61134 0.53246 0.0
C540 C 0.76901 0.61054 0.51759 0.0
C541 C 0.79408 0.6252 0.48662 0.0
C542 C 0.87478 0.64603 0.51468 0.0
C543 C 0.86999 0.6321 0.53179 0.0
C544 C 0.86055 0.64461 0.49965 0.0
C545 C 0.84128 0.62893 0.50098 0.0
C546 C 0.85077 0.61639 0.53309 0.0
C547 C 0.83659 0.61483 0.51786 0.0
C548 C 0.8255 0.62821 0.48681 0.0
C549 C 0.86716 0.62966 0.43146 0.0
C550 C 0.87644 0.64757 0.41997 0.0
C551 C 0.85163 0.62498 0.44642 0.0
C552 C 0.84511 0.63807 0.44987 0.0
C553 C 0.87015 0.66081 0.42421 0.0
C554 C 0.85449 0.65599 0.43876 0.0
C555 C 0.82751 0.63279 0.46333 0.0
H556 H 0.73217 0.60458 0.43909 0.0
H557 H 0.75717 0.60198 0.45985 0.0
H558 H 0.77593 0.66159 0.41568 0.0
H559 H 0.80087 0.65838 0.43558 0.0
H560 H 0.75756 0.65187 0.5114 0.0
H561 H 0.78148 0.65104 0.48643 0.0
H562 H 0.74913 0.60067 0.5459 0.0
H563 H 0.77241 0.59916 0.51964 0.0
H564 H 0.88934 0.65856 0.51357 0.0
H565 H 0.86453 0.65629 0.48772 0.0
H566 H 0.84664 0.60541 0.54608 0.0
H567 H 0.82182 0.60273 0.51953 0.0
H568 H 0.87148 0.61904 0.42844 0.0
H569 H 0.84433 0.61096 0.45467 0.0
H570 H 0.87727 0.67493 0.41622 0.0
H571 H 0.84962 0.66626 0.4413 0.0
N572 N 0.81269 0.63305 0.4524 0.0
N573 N 0.80878 0.6246 0.49752 0.0
C574 C 0.33903 0.22213 0.45813 0.0
C575 C 0.35404 0.23426 0.443 0.0
C576 C 0.34124 0.20956 0.47253 0.0
C577 C 0.35847 0.20885 0.47204 0.0
C578 C 0.3713 0.23355 0.44256 0.0
C579 C 0.37339 0.22077 0.45678 0.0
C580 C 0.36029 0.19463 0.48613 0.0
C581 C 0.36036 0.23855 0.53586 0.0
C582 C 0.34564 0.2301 0.55261 0.0
C583 C 0.36442 0.22688 0.52162 0.0
C584 C 0.35372 0.20659 0.52385 0.0
C585 C 0.33519 0.20983 0.55482 0.0
C586 C 0.33914 0.19828 0.54063 0.0
C587 C 0.35789 0.19354 0.51006 0.0
C588 C 0.36523 0.12382 0.53485 0.0
C589 C 0.35061 0.11638 0.55174 0.0
C590 C 0.36815 0.13942 0.52121 0.0
C591 C 0.35649 0.1478 0.5243 0.0
C592 C 0.33931 0.12511 0.55502 0.0
C593 C 0.34224 0.1406 0.54153 0.0
C594 C 0.35896 0.16428 0.51029 0.0
C595 C 0.33657 0.11479 0.46093 0.0
C596 C 0.34915 0.11716 0.44276 0.0
C597 C 0.34075 0.13019 0.47552 0.0
C598 C 0.35775 0.14827 0.47245 0.0
C599 C 0.36639 0.13513 0.43992 0.0
C600 C 0.37055 0.15065 0.45453 0.0
C601 C 0.36077 0.16504 0.48629 0.0
H602 H 0.32563 0.22246 0.45894 0.0
H603 H 0.32937 0.20018 0.48383 0.0
H604 H 0.38302 0.24262 0.43093 0.0
H605 H 0.38667 0.22021 0.4559 0.0
H606 H 0.36872 0.25413 0.53376 0.0
H607 H 0.37609 0.23372 0.50921 0.0
H608 H 0.32413 0.2028 0.56789 0.0
H609 H 0.33075 0.18271 0.54289 0.0
H610 H 0.37421 0.11744 0.532 0.0
H611 H 0.37954 0.14496 0.50838 0.0
H612 H 0.32822 0.12003 0.56821 0.0
H613 H 0.33313 0.14684 0.54443 0.0
H614 H 0.32324 0.10106 0.46361 0.0
H615 H 0.33032 0.12812 0.48875 0.0
H616 H 0.37625 0.13737 0.42592 0.0
H617 H 0.38357 0.16458 0.45163 0.0
N618 N 0.36166 0.18034 0.47518 0.0
N619 N 0.35752 0.17852 0.52107 0.0
C620 C 0.76625 0.11394 0.44204 0.0
C621 C 0.75461 0.11571 0.42549 0.0
C622 C 0.77999 0.13018 0.45413 0.0
C623 C 0.78236 0.14844 0.44975 0.0
C624 C 0.75688 0.13398 0.42129 0.0
C625 C 0.77087 0.1503 0.43316 0.0
C626 C 0.79782 0.16572 0.46135 0.0
C627 C 0.74985 0.1309 0.51167 0.0
C628 C 0.75636 0.12482 0.53033 0.0
C629 C 0.76329 0.1454 0.49707 0.0
C630 C 0.78341 0.15387 0.50087 0.0
C631 C 0.77644 0.13396 0.53455 0.0
C632 C 0.78978 0.14827 0.52 0.0
C633 C 0.79826 0.16833 0.4852 0.0
C634 C 0.86701 0.23975 0.51521 0.0
C635 C 0.87961 0.23353 0.52307 0.0
C636 C 0.85111 0.2277 0.50141 0.0
C637 C 0.84793 0.20957 0.49452 0.0
C638 C 0.87631 0.2153 0.51585 0.0
C639 C 0.8607 0.20352 0.50162 0.0
C640 C 0.8302 0.19597 0.48204 0.0
C641 C 0.86992 0.20254 0.41648 0.0
C642 C 0.88212 0.22276 0.41785 0.0
C643 C 0.85281 0.19312 0.42934 0.0
C644 C 0.84749 0.20369 0.4438 0.0
C645 C 0.87645 0.23339 0.43184 0.0
C646 C 0.85918 0.22395 0.44448 0.0
C647 C 0.82992 0.19313 0.45827 0.0
H648 H 0.76466 0.09997 0.44567 0.0
H649 H 0.78898 0.12856 0.46665 0.0
H650 H 0.74814 0.13568 0.4085 0.0
H651 H 0.77272 0.16436 0.42941 0.0
H652 H 0.73444 0.1242 0.50811 0.0
H653 H 0.75797 0.14985 0.4828 0.0
H654 H 0.78192 0.12999 0.54913 0.0
H655 H 0.80518 0.15466 0.52347 0.0
H656 H 0.86923 0.2538 0.51993 0.0
H657 H 0.84121 0.23247 0.49622 0.0
H658 H 0.88531 0.20973 0.52186 0.0
H659 H 0.85818 0.18936 0.49677 0.0
H660 H 0.87358 0.19394 0.40548 0.0
H661 H 0.84392 0.17747 0.42833 0.0
H662 H 0.8855 0.24898 0.43336 0.0
H663 H 0.85503 0.23252 0.4548 0.0
N664 N 0.81366 0.17816 0.44882 0.0
N665 N 0.81446 0.18342 0.49457 0.0
C666 C 0.95393 0.52608 0.15364 0.0
C667 C 0.97069 0.53704 0.14011 0.0
C668 C 0.95243 0.51145 0.16786 0.0
C669 C 0.96754 0.50734 0.16857 0.0
C670 C 0.98602 0.53318 0.14154 0.0
C671 C 0.98431 0.5183 0.15535 0.0
C672 C 0.96564 0.49107 0.18217 0.0
C673 C 0.98059 0.53809 0.23377 0.0
C674 C 0.96569 0.53407 0.24958 0.0
C675 C 0.979 0.52373 0.21894 0.0
C676 C 0.96249 0.50506 0.21962 0.0
C677 C 0.949 0.51548 0.25003 0.0
C678 C 0.94753 0.501 0.23532 0.0
C679 C 0.96197 0.4894 0.20581 0.0
C680 C 0.98359 0.43284 0.23547 0.0
C681 C 0.96878 0.42172 0.2513 0.0
C682 C 0.98146 0.44492 0.22026 0.0
C683 C 0.96448 0.44605 0.2206 0.0
C684 C 0.95171 0.42273 0.2515 0.0
C685 C 0.94968 0.435 0.23642 0.0
C686 C 0.96307 0.46026 0.20619 0.0
C687 C 0.96018 0.41489 0.15788 0.0
C688 C 0.97426 0.42189 0.14035 0.0
C689 C 0.95771 0.42773 0.17181 0.0
C690 C 0.96955 0.44786 0.16879 0.0
C691 C 0.98597 0.44204 0.13734 0.0
C692 C 0.98366 0.45483 0.1514 0.0
C693 C 0.96667 0.46186 0.18243 0.0
H694 H 0.94171 0.5284 0.1528 0.0
H695 H 0.93926 0.50296 0.17779 0.0
H696 H -0.00063 0.54159 0.13192 0.0
H697 H -0.00382 0.51539 0.15581 0.0
H698 H -0.00647 0.55237 0.23297 0.0
H699 H -0.00902 0.52705 0.20742 0.0
H700 H 0.93737 0.51204 0.26214 0.0
H701 H 0.93483 0.48658 0.23634 0.0
H702 H -0.00319 0.43217 0.23484 0.0
H703 H -0.00673 0.45371 0.20858 0.0
H704 H 0.94015 0.41436 0.26363 0.0
H705 H 0.93661 0.43596 0.23716 0.0
H706 H 0.95095 0.39948 0.16078 0.0
H707 H 0.94627 0.42186 0.18457 0.0
H708 H -0.00336 0.44801 0.12371 0.0
H709 H -0.00715 0.47026 0.1485 0.0
N710 N 0.96785 0.47728 0.17139 0.0
N711 N 0.96076 0.47402 0.21692 0.0
C712 C 0.46045 0.42602 0.14382 0.0
C713 C 0.4533 0.43446 0.12866 0.0
C714 C 0.47258 0.43695 0.16195 0.0
C715 C 0.47757 0.45633 0.16497 0.0
C716 C 0.45726 0.45338 0.13292 0.0
C717 C 0.46937 0.46422 0.15072 0.0
C718 C 0.49331 0.46963 0.1804 0.0
C719 C 0.44108 0.44055 0.2262 0.0
C720 C 0.44262 0.43084 0.24516 0.0
C721 C 0.45717 0.45168 0.21225 0.0
C722 C 0.47516 0.45317 0.21672 0.0
C723 C 0.46039 0.43171 0.24927 0.0
C724 C 0.47662 0.44298 0.23527 0.0
C725 C 0.49282 0.46768 0.20432 0.0
C726 C 0.54694 0.54731 0.23591 0.0
C727 C 0.559 0.54545 0.25178 0.0
C728 C 0.53522 0.53206 0.22126 0.0
C729 C 0.53545 0.51469 0.22196 0.0
C730 C 0.55922 0.52802 0.25251 0.0
C731 C 0.54737 0.51267 0.23783 0.0
C732 C 0.52236 0.49841 0.20695 0.0
C733 C 0.56721 0.54484 0.15881 0.0
C734 C 0.55838 0.55206 0.14434 0.0
C735 C 0.55571 0.52828 0.17209 0.0
C736 C 0.53529 0.5187 0.17079 0.0
C737 C 0.53796 0.54248 0.14344 0.0
C738 C 0.5266 0.52601 0.15642 0.0
C739 C 0.52239 0.50048 0.1831 0.0
H740 H 0.45753 0.41142 0.14095 0.0
H741 H 0.4789 0.43068 0.17272 0.0
H742 H 0.45152 0.46009 0.12191 0.0
H743 H 0.47294 0.47911 0.15288 0.0
H744 H 0.42754 0.44009 0.2226 0.0
H745 H 0.45573 0.45997 0.19871 0.0
H746 H 0.462 0.42449 0.26391 0.0
H747 H 0.49045 0.44423 0.23933 0.0
H748 H 0.54657 0.5606 0.23479 0.0
H749 H 0.52578 0.53378 0.20954 0.0
H750 H 0.56825 0.52614 0.26472 0.0
H751 H 0.54751 0.49926 0.23883 0.0
H752 H 0.58293 0.55193 0.15977 0.0
H753 H 0.56271 0.52274 0.18292 0.0
H754 H 0.53068 0.54742 0.13215 0.0
H755 H 0.51088 0.51886 0.15509 0.0
N756 N 0.50799 0.48593 0.17088 0.0
N757 N 0.50757 0.48207 0.2167 0.0
C758 C 0.44938 0.02678 0.24362 0.0
C759 C 0.43804 0.00991 0.25664 0.0
C760 C 0.46446 0.02851 0.22959 0.0
C761 C 0.46862 0.01349 0.22849 0.0
C762 C 0.4421 -0.00521 0.25504 0.0
C763 C 0.45735 -0.00333 0.24136 0.0
C764 C 0.48547 0.01561 0.2153 0.0
C765 C 0.44192 0.00506 0.16092 0.0
C766 C 0.44792 0.01931 0.14397 0.0
C767 C 0.45498 0.00624 0.1774 0.0
C768 C 0.47429 0.02181 0.17748 0.0
C769 C 0.46696 0.03536 0.14461 0.0
C770 C 0.4801 0.03651 0.16113 0.0
C771 C 0.48896 0.02113 0.19215 0.0
C772 C 0.55035 0.00327 0.16439 0.0
C773 C 0.56156 0.01881 0.14953 0.0
C774 C 0.53661 0.00364 0.17899 0.0
C775 C 0.53396 0.01968 0.17934 0.0
C776 C 0.55908 0.03497 0.15013 0.0
C777 C 0.54533 0.03533 0.16478 0.0
C778 C 0.51798 0.01931 0.19289 0.0
C779 C 0.55646 0.01686 0.24874 0.0
C780 C 0.54757 -0.00146 0.25929 0.0
C781 C 0.54588 0.02157 0.23381 0.0
C782 C 0.52624 0.00812 0.22941 0.0
C783 C 0.52805 0.98495 0.25407 0.0
C784 C 0.51745 0.9898 0.23957 0.0
C785 C 0.51412 0.01333 0.21586 0.0
H786 H 0.44695 0.03888 0.24464 0.0
H787 H 0.47322 0.04177 0.22012 0.0
H788 H 0.43345 0.98139 0.26429 0.0
H789 H 0.4603 0.98489 0.24073 0.0
H790 H 0.4273 0.99256 0.16084 0.0
H791 H 0.45022 -0.00567 0.18922 0.0
H792 H 0.472 0.04644 0.1316 0.0
H793 H 0.495 0.0485 0.16064 0.0
H794 H 0.55196 0.99065 0.16447 0.0
H795 H 0.52759 0.99103 0.18938 0.0
H796 H 0.56726 0.04705 0.13869 0.0
H797 H 0.54334 0.04772 0.16445 0.0
H798 H 0.57138 0.02777 0.2525 0.0
H799 H 0.55281 0.03589 0.22632 0.0
H800 H 0.52084 0.97053 0.26127 0.0
H801 H 0.5023 0.97922 0.2363 0.0
N802 N 0.4981 0.01178 0.22614 0.0
N803 N 0.50521 0.02296 0.18192 0.0
C804 C 0.55487 0.01038 0.78386 0.0
C805 C 0.55574 0.00094 0.76401 0.0
C806 C 0.53725 0.00364 0.79546 0.0
C807 C 0.52023 0.98727 0.78749 0.0
C808 C 0.5388 0.98424 0.75644 0.0
C809 C 0.52117 0.97755 0.76801 0.0
C810 C 0.5011 0.98188 0.7974 0.0
C811 C 0.53079 0.97004 0.85717 0.0
C812 C 0.53477 0.98311 0.87534 0.0
C813 C 0.51923 0.9693 0.83879 0.0
C814 C 0.51143 0.98154 0.83841 0.0
C815 C 0.52768 -0.00403 0.8741 0.0
C816 C 0.51597 -0.00499 0.85606 0.0
C817 C 0.49718 0.97958 0.82103 0.0
C818 C 0.42567 0.96438 0.85621 0.0
C819 C 0.42272 0.98008 0.85315 0.0
C820 C 0.43886 0.96237 0.84241 0.0
C821 C 0.44916 0.97586 0.82517 0.0
C822 C 0.43222 -0.00705 0.83502 0.0
C823 C 0.44541 0.99092 0.82121 0.0
C824 C 0.46611 0.97619 0.81446 0.0
C825 C 0.44881 -0.00388 0.74637 0.0
C826 C 0.42915 0.98113 0.7457 0.0
C827 C 0.46216 -0.00532 0.76032 0.0
C828 C 0.45609 0.97846 0.7743 0.0
C829 C 0.42342 0.96442 0.75892 0.0
C830 C 0.43671 0.96319 0.77321 0.0
C831 C 0.46984 0.97812 0.79081 0.0
H832 H 0.56773 0.02323 0.79013 0.0
H833 H 0.53679 0.01178 0.81002 0.0
H834 H 0.53899 0.97682 0.74103 0.0
H835 H 0.50814 0.96508 0.76139 0.0
H836 H 0.53596 0.95991 0.85756 0.0
H837 H 0.51576 0.95869 0.82538 0.0
H838 H 0.53093 0.00667 0.88732 0.0
H839 H 0.51025 0.00471 0.856 0.0
H840 H 0.41879 0.95437 0.87021 0.0
H841 H 0.44176 0.95083 0.84594 0.0
H842 H 0.43014 0.00511 0.83221 0.0
H843 H 0.45357 0.00185 0.80845 0.0
H844 H 0.45382 0.00934 0.7368 0.0
H845 H 0.47706 0.00666 0.76097 0.0
H846 H 0.40861 0.95232 0.75846 0.0
H847 H 0.4318 0.95041 0.78364 0.0
N848 N 0.48724 0.98099 0.78316 0.0
N849 N 0.47986 0.9769 0.82858 0.0
C850 C -0.00533 0.55655 0.77787 0.0
C851 C 0.004 0.56169 0.75656 0.0
C852 C -0.003 0.54403 0.79221 0.0
C853 C 0.0094 0.53703 0.78599 0.0
C854 C 0.01584 0.55424 0.74987 0.0
C855 C 0.01858 0.54208 0.76449 0.0
C856 C 0.01144 0.52307 0.80068 0.0
C857 C 0.02766 0.57495 0.84728 0.0
C858 C 0.01384 0.56996 0.86487 0.0
C859 C 0.02768 0.56041 0.83382 0.0
C860 C 0.01401 0.5408 0.83804 0.0
C861 C 0.00042 0.55033 0.86908 0.0
C862 C 0.00057 0.53594 0.85592 0.0
C863 C 0.01345 0.52486 0.82467 0.0
C864 C 0.01447 0.45219 0.85257 0.0
C865 C 0.00237 0.44777 0.8719 0.0
C866 C 0.0174 0.4672 0.83784 0.0
C867 C 0.00824 0.47798 0.84218 0.0
C868 C -0.00619 0.45903 0.8765 0.0
C869 C -0.00327 0.47393 0.86189 0.0
C870 C 0.01046 0.49369 0.82682 0.0
C871 C 0.97904 0.43925 0.78521 0.0
C872 C -0.01068 0.43886 0.76585 0.0
C873 C 0.98548 0.45639 0.79747 0.0
C874 C 0.00246 0.47345 0.7908 0.0
C875 C 0.00637 0.45594 0.75922 0.0
C876 C 0.01279 0.47314 0.7715 0.0
C877 C 0.00843 0.49184 0.80289 0.0
H878 H 0.98515 0.56183 0.78315 0.0
H879 H 0.9887 0.53953 0.80793 0.0
H880 H 0.02305 0.55792 0.7334 0.0
H881 H 0.02784 0.53655 0.75898 0.0
H882 H 0.03823 0.59 0.84384 0.0
H883 H 0.03834 0.56443 0.82027 0.0
H884 H -0.01013 0.54605 0.88282 0.0
H885 H -0.01002 0.52092 0.85958 0.0
H886 H 0.02132 0.44383 0.84862 0.0
H887 H 0.02675 0.47033 0.82308 0.0
H888 H 0.98477 0.45632 0.89149 0.0
H889 H -0.01036 0.48209 0.86583 0.0
H890 H 0.96593 0.4263 0.79082 0.0
H891 H 0.97695 0.45639 0.81194 0.0
H892 H 0.01444 0.45611 0.7442 0.0
H893 H 0.02574 0.48624 0.76587 0.0
N894 N 0.0092 0.50665 0.79076 0.0
N895 N 0.01284 0.51011 0.83663 0.0
C896 C 0.54453 0.56077 0.77361 0.0
C897 C 0.55323 0.55134 0.76274 0.0
C898 C 0.52624 0.55007 0.78396 0.0
C899 C 0.51648 0.52975 0.78412 0.0
C900 C 0.54316 0.53097 0.76244 0.0
C901 C 0.52501 0.52032 0.77303 0.0
C902 C 0.49723 0.518 0.79519 0.0
C903 C 0.5342 0.54526 0.85998 0.0
C904 C 0.5352 0.56309 0.86414 0.0
C905 C 0.52099 0.53204 0.84425 0.0
C906 C 0.50827 0.53617 0.83262 0.0
C907 C 0.52255 0.56724 0.85201 0.0
C908 C 0.50897 0.55374 0.83672 0.0
C909 C 0.49326 0.52133 0.81769 0.0
C910 C 0.4342 0.44798 0.85223 0.0
C911 C 0.41847 0.4498 0.86014 0.0
C912 C 0.44785 0.46141 0.83705 0.0
C913 C 0.44638 0.47722 0.82985 0.0
C914 C 0.41679 0.46546 0.85218 0.0
C915 C 0.43087 0.47927 0.83754 0.0
C916 C 0.46224 0.49239 0.81614 0.0
C917 C 0.41935 0.4473 0.76875 0.0
C918 C 0.42667 0.4381 0.75475 0.0
C919 C 0.43196 0.46414 0.78083 0.0
C920 C 0.4522 0.47185 0.77989 0.0
C921 C 0.44701 0.44643 0.75296 0.0
C922 C 0.45958 0.46303 0.76545 0.0
C923 C 0.46588 0.48926 0.79337 0.0
H924 H 0.55188 0.57644 0.77424 0.0
H925 H 0.51966 0.55772 0.79153 0.0
H926 H 0.54917 0.52319 0.75378 0.0
H927 H 0.51767 0.50463 0.77266 0.0
H928 H 0.5432 0.54116 0.8693 0.0
H929 H 0.52033 0.51834 0.84158 0.0
H930 H 0.52303 0.58087 0.85432 0.0
H931 H 0.49908 0.55703 0.828 0.0
H932 H 0.43652 0.43661 0.85833 0.0
H933 H 0.46001 0.45988 0.8316 0.0
H934 H 0.40476 0.46725 0.85742 0.0
H935 H 0.42967 0.49153 0.8322 0.0
H936 H 0.40383 0.44137 0.77077 0.0
H937 H 0.42579 0.47109 0.79084 0.0
H938 H 0.45329 0.44016 0.74191 0.0
H939 H 0.47514 0.46882 0.76401 0.0
N940 N 0.48334 0.50215 0.78388 0.0
N941 N 0.47602 0.5083 0.82739 0.0
C942 C 0.66933 0.77814 0.50184 0.0
C943 C 0.65614 0.7689 0.48391 0.0
C944 C 0.66699 0.79043 0.51683 0.0
C945 C 0.65139 0.79369 0.51416 0.0
C946 C 0.6404 0.77199 0.48147 0.0
C947 C 0.63817 0.78442 0.49633 0.0
C948 C 0.64994 0.80814 0.52849 0.0
C949 C 0.63887 0.75894 0.57414 0.0
C950 C 0.65059 0.76397 0.59374 0.0
C951 C 0.63856 0.77323 0.56094 0.0
C952 C 0.65052 0.79293 0.5665 0.0
C953 C 0.66169 0.78365 0.59993 0.0
C954 C 0.66176 0.79792 0.5864 0.0
C955 C 0.6509 0.80851 0.55256 0.0
C956 C 0.64981 0.88177 0.577 0.0
C957 C 0.66417 0.88862 0.59406 0.0
C958 C 0.64587 0.86562 0.56375 0.0
C959 C 0.65652 0.85626 0.56695 0.0
C960 C 0.67423 0.87871 0.59777 0.0
C961 C 0.67046 0.86275 0.58437 0.0
C962 C 0.65318 0.83943 0.55287 0.0
C963 C 0.67158 0.88776 0.50125 0.0
C964 C 0.65728 0.88381 0.48478 0.0
C965 C 0.66945 0.87327 0.51616 0.0
C966 C 0.65293 0.85461 0.51493 0.0
C967 C 0.64062 0.8652 0.48387 0.0
C968 C 0.63856 0.85071 0.4987 0.0
C969 C 0.6514 0.83864 0.52888 0.0
H970 H 0.68156 0.77598 0.50415 0.0
H971 H 0.67764 0.79778 0.53014 0.0
H972 H 0.63016 0.76528 0.46761 0.0
H973 H 0.62621 0.78697 0.49378 0.0
H974 H 0.63015 0.744 0.5687 0.0
H975 H 0.62893 0.76876 0.5464 0.0
H976 H 0.67041 0.78813 0.61526 0.0
H977 H 0.67081 0.81295 0.59146 0.0
H978 H 0.64182 0.88908 0.57358 0.0
H979 H 0.63455 0.86053 0.551 0.0
H980 H 0.68505 0.88327 0.61108 0.0
H981 H 0.67868 0.85562 0.58744 0.0
H982 H 0.68454 0.90198 0.50238 0.0
H983 H 0.68094 0.87648 0.52822 0.0
H984 H 0.62952 0.86163 0.47114 0.0
H985 H 0.62584 0.83632 0.49727 0.0
N986 N 0.64987 0.82304 0.51768 0.0
N987 N 0.6527 0.82426 0.56367 0.0
C988 C 0.12079 0.74739 0.4855 0.0
C989 C 0.11483 0.75404 0.46684 0.0
C990 C 0.13524 0.76064 0.50031 0.0
C991 C 0.14383 0.78069 0.49673 0.0
C992 C 0.1239 0.77408 0.46304 0.0
C993 C 0.13814 0.78719 0.47778 0.0
C994 C 0.15903 0.79534 0.51195 0.0
C995 C 0.10541 0.76584 0.55556 0.0
C996 C 0.10662 0.75635 0.57501 0.0
C997 C 0.12199 0.77783 0.54267 0.0
C998 C 0.14019 0.78038 0.5486 0.0
C999 C 0.12482 0.75877 0.58088 0.0
C1000 C 0.14149 0.77082 0.56788 0.0
C1001 C 0.15798 0.79458 0.53603 0.0
C1002 C 0.21087 0.87485 0.56574 0.0
C1003 C 0.22297 0.87346 0.58197 0.0
C1004 C 0.19954 0.85937 0.55116 0.0
C1005 C 0.20016 0.84223 0.55243 0.0
C1006 C 0.22371 0.85634 0.58312 0.0
C1007 C 0.21221 0.84074 0.56859 0.0
C1008 C 0.18727 0.82554 0.53787 0.0
C1009 C 0.2321 0.87267 0.49127 0.0
C1010 C 0.22317 0.87901 0.47572 0.0
C1011 C 0.2208 0.85563 0.5039 0.0
C1012 C 0.20049 0.84469 0.50094 0.0
C1013 C 0.20294 0.8678 0.47262 0.0
C1014 C 0.19178 0.85086 0.48498 0.0
C1015 C 0.1877 0.8267 0.51386 0.0
H1016 H 0.11412 0.73203 0.48879 0.0
H1017 H 0.1397 0.75522 0.51448 0.0
H1018 H 0.12005 0.7797 0.4485 0.0
H1019 H 0.14459 0.80254 0.47444 0.0
H1020 H 0.09162 0.76418 0.55043 0.0
H1021 H 0.12063 0.78553 0.52838 0.0
H1022 H 0.12629 0.75186 0.59591 0.0
H1023 H 0.15543 0.77287 0.57305 0.0
H1024 H 0.21011 0.88792 0.56436 0.0
H1025 H 0.19004 0.86068 0.53911 0.0
H1026 H 0.23279 0.85484 0.59561 0.0
H1027 H 0.21267 0.82751 0.56998 0.0
H1028 H 0.2477 0.88102 0.49389 0.0
H1029 H 0.2279 0.851 0.51585 0.0
H1030 H 0.19568 0.8721 0.46048 0.0
H1031 H 0.17617 0.84269 0.48228 0.0
N1032 N 0.17373 0.81143 0.50198 0.0
N1033 N 0.17239 0.80956 0.54805 0.0
C1034 C 0.23022 0.34985 0.49666 0.0
C1035 C 0.2226 0.33543 0.47963 0.0
C1036 C 0.2178 0.35354 0.51001 0.0
C1037 C 0.19754 0.3428 0.50659 0.0
C1038 C 0.20236 0.32495 0.47615 0.0
C1039 C 0.19003 0.3286 0.48943 0.0
C1040 C 0.18382 0.34638 0.51998 0.0
C1041 C 0.20911 0.3242 0.5716 0.0
C1042 C 0.22035 0.33781 0.58844 0.0
C1043 C 0.19779 0.32783 0.55673 0.0
C1044 C 0.19756 0.34518 0.55834 0.0
C1045 C 0.22038 0.35533 0.58983 0.0
C1046 C 0.20886 0.35888 0.57503 0.0
C1047 C 0.18417 0.3481 0.54398 0.0
C1048 C 0.10352 0.32593 0.56639 0.0
C1049 C 0.10578 0.33822 0.58475 0.0
C1050 C 0.1193 0.32993 0.55232 0.0
C1051 C 0.13768 0.34637 0.55624 0.0
C1052 C 0.12408 0.35487 0.58847 0.0
C1053 C 0.13998 0.35878 0.57446 0.0
C1054 C 0.15475 0.34911 0.54301 0.0
C1055 C 0.12003 0.36032 0.49011 0.0
C1056 C 0.11248 0.34622 0.47272 0.0
C1057 C 0.13325 0.36056 0.50593 0.0
C1058 C 0.13907 0.34672 0.50452 0.0
C1059 C 0.11767 0.33189 0.4722 0.0
C1060 C 0.13094 0.33226 0.48775 0.0
C1061 C 0.15469 0.34786 0.51902 0.0
H1062 H 0.24575 0.35819 0.49975 0.0
H1063 H 0.22403 0.36489 0.52277 0.0
H1064 H 0.19601 0.31406 0.46286 0.0
H1065 H 0.17449 0.32021 0.4863 0.0
H1066 H 0.20891 0.31063 0.57009 0.0
H1067 H 0.18883 0.31685 0.54432 0.0
H1068 H 0.2288 0.36597 0.6028 0.0
H1069 H 0.20864 0.37223 0.57672 0.0
H1070 H 0.08955 0.31308 0.56303 0.0
H1071 H 0.11725 0.31978 0.53884 0.0
H1072 H 0.12623 0.3645 0.60261 0.0
H1073 H 0.15412 0.37134 0.57803 0.0
H1074 H 0.11634 0.37157 0.49093 0.0
H1075 H 0.1395 0.37196 0.51865 0.0
H1076 H 0.1117 0.32049 0.45946 0.0
H1077 H 0.13508 0.32133 0.48648 0.0
N1078 N 0.16914 0.34645 0.50853 0.0
N1079 N 0.16963 0.34941 0.55457 0.0
H1080 H 0.96847 0.3603 0.06817 0.0
H1081 H 0.03052 0.40018 0.06527 0.0
H1082 H 0.0278 0.41958 0.09576 0.0
H1083 H 0.00768 0.42595 0.12203 0.0
H1084 H 0.94528 0.38741 0.12287 0.0
H1085 H 0.94835 0.36649 0.0949 0.0
C1086 C 0.98141 0.37315 0.07435 0.0
C1087 C -0.00034 0.37883 0.06444 0.0
C1088 C 0.9797 0.38445 0.09158 0.0
C1089 C 0.01629 0.39556 0.07254 0.0
C1090 C 0.01475 0.40665 0.08998 0.0
C1091 C -0.00529 0.41305 0.11602 0.0
C1092 C 0.97627 0.40839 0.12455 0.0
C1093 C -0.00351 0.40138 0.09939 0.0
C1094 C 0.9597 0.39131 0.1169 0.0
C1095 C 0.96141 0.37939 0.10071 0.0
H1096 H 0.58614 0.61791 0.07172 0.0
H1097 H 0.6235 0.59604 0.05175 0.0
H1098 H 0.61246 0.57437 0.08488 0.0
H1099 H 0.58931 0.55927 0.11711 0.0
H1100 H 0.55306 0.5825 0.13725 0.0
H1101 H 0.56676 0.60626 0.10666 0.0
C1102 C 0.59199 0.6085 0.07477 0.0
C1103 C 0.60529 0.60823 0.05921 0.0
C1104 C 0.58575 0.59635 0.09384 0.0
C1105 C 0.61313 0.59635 0.06351 0.0
C1106 C 0.60678 0.58396 0.08239 0.0
C1107 C 0.58481 0.56987 0.11514 0.0
C1108 C 0.56991 0.56889 0.12912 0.0
C1109 C 0.59273 0.58351 0.09738 0.0
C1110 C 0.56422 0.58272 0.12639 0.0
C1111 C 0.57202 0.59629 0.1089 0.0
H1112 H 0.39524 0.0169 0.06223 0.0
H1113 H 0.38656 0.95925 0.05647 0.0
H1114 H 0.40778 0.96546 0.0888 0.0
H1115 H 0.42871 0.98689 0.11877 0.0
H1116 H 0.43867 0.04483 0.12492 0.0
H1117 H 0.41718 0.03895 0.0923 0.0
C1118 C 0.39801 0.00573 0.06805 0.0
C1119 C 0.38923 0.98762 0.05688 0.0
C1120 C 0.41045 0.00942 0.08673 0.0
C1121 C 0.3931 0.97334 0.06461 0.0
C1122 C 0.40523 0.97683 0.08318 0.0
C1123 C 0.42602 -0.00183 0.11312 0.0
C1124 C 0.43499 0.01615 0.12438 0.0
C1125 C 0.4139 -0.00525 0.09438 0.0
C1126 C 0.43183 0.03084 0.11651 0.0
C1127 C 0.41954 0.02746 0.09792 0.0
H1128 H 0.39354 0.00959 0.93525 0.0
H1129 H 0.34859 0.94922 0.93673 0.0
H1130 H 0.36225 0.94314 0.90241 0.0
H1131 H 0.38817 0.95465 0.87338 0.0
H1132 H 0.43326 0.015 0.87245 0.0
H1133 H 0.41805 0.0215 0.90479 0.0
C1134 C 0.3867 -0.00488 0.92801 0.0
C1135 C 0.37025 0.97984 0.93863 0.0
C1136 C 0.39457 0.99175 0.90828 0.0
C1137 C 0.36135 0.96122 0.9289 0.0
C1138 C 0.36914 0.95772 0.9093 0.0
C1139 C 0.39456 0.96924 0.88018 0.0
C1140 C 0.41182 0.98429 0.87057 0.0
C1141 C 0.38592 0.97283 0.89905 0.0
C1142 C 0.41983 0.00318 0.87934 0.0
C1143 C 0.41126 0.00689 0.898 0.0
H1144 H 0.97116 0.38055 0.94399 0.0
H1145 H 0.03143 0.39587 0.94399 0.0
H1146 H 0.03854 0.41939 0.91344 0.0
H1147 H 0.02785 0.43738 0.8888 0.0
H1148 H 0.96722 0.42101 0.88931 0.0
H1149 H 0.96008 0.39618 0.91762 0.0
C1150 C 0.98587 0.38894 0.93726 0.0
C1151 C 0.00079 0.38662 0.94647 0.0
C1152 C -0.01019 0.40238 0.91988 0.0
C1153 C 0.01968 0.3974 0.93724 0.0
C1154 C 0.02375 0.41091 0.91984 0.0
C1155 C 0.01305 0.42817 0.89488 0.0
C1156 C -0.00184 0.43133 0.88723 0.0
C1157 C 0.00898 0.41378 0.9113 0.0
C1158 C 0.97904 0.41923 0.89528 0.0
C1159 C 0.97491 0.40495 0.91141 0.0
H1160 H 0.58189 0.62248 0.94364 0.0
H1161 H 0.62123 0.60149 0.93042 0.0
H1162 H 0.60061 0.58144 0.89908 0.0
H1163 H 0.57131 0.56963 0.8759 0.0
H1164 H 0.52996 0.58772 0.89225 0.0
H1165 H 0.55178 0.60957 0.92133 0.0
C1166 C 0.58597 0.61358 0.93378 0.0
C1167 C 0.60306 0.61349 0.9392 0.0
C1168 C 0.57377 0.60167 0.91624 0.0
C1169 C 0.60809 0.60173 0.92656 0.0
C1170 C 0.59634 0.59031 0.90863 0.0
C1171 C 0.56682 0.57808 0.88597 0.0
C1172 C 0.54887 0.57689 0.88161 0.0
C1173 C 0.57906 0.59005 0.90344 0.0
C1174 C 0.54378 0.58849 0.89466 0.0
C1175 C 0.55618 0.6009 0.91157 0.0
H1176 H 0.01959 0.62475 0.94515 0.0
H1177 H 0.95772 0.59511 0.93261 0.0
H1178 H 0.96197 0.58054 0.89817 0.0
H1179 H 0.98235 0.57267 0.87475 0.0
H1180 H 0.04383 0.59998 0.8881 0.0
H1181 H 0.04085 0.61942 0.91863 0.0
C1182 C 0.00715 0.61542 0.93457 0.0
C1183 C 0.98834 0.61078 0.94154 0.0
C1184 C 0.00963 0.60659 0.91502 0.0
C1185 C 0.9723 0.59865 0.92776 0.0
C1186 C 0.97471 0.59032 0.90805 0.0
C1187 C -0.00486 0.58313 0.88413 0.0
C1188 C 0.0132 0.58474 0.87951 0.0
C1189 C -0.00684 0.59363 0.90202 0.0
C1190 C 0.02977 0.59852 0.89142 0.0
C1191 C 0.02801 0.60948 0.909 0.0
H1192 H 0.36508 0.40448 0.9446 0.0
H1193 H 0.37688 0.3608 0.9195 0.0
H1194 H 0.39404 0.381 0.88648 0.0
H1195 H 0.40662 0.41143 0.86577 0.0
H1196 H 0.39917 0.45714 0.89431 0.0
H1197 H 0.37867 0.43549 0.92435 0.0
C1198 C 0.37129 0.39937 0.93175 0.0
C1199 C 0.36973 0.38124 0.93428 0.0
C1200 C 0.38176 0.41136 0.91336 0.0
C1201 C 0.37802 0.37479 0.91782 0.0
C1202 C 0.38777 0.3863 0.89897 0.0
C1203 C 0.40083 0.41688 0.87867 0.0
C1204 C 0.40468 0.43608 0.87758 0.0
C1205 C 0.38997 0.40474 0.89676 0.0
C1206 C 0.39631 0.44242 0.89421 0.0
C1207 C 0.38473 0.4301 0.91168 0.0
H1208 H 0.57482 -0.00584 0.97085 0.0
H1209 H 0.61375 0.98287 0.93131 0.0
H1210 H 0.5936 0.97694 0.89733 0.0
H1211 H 0.56638 0.97797 0.87832 0.0
H1212 H 0.52692 0.98765 0.91945 0.0
H1213 H 0.5459 0.99133 0.95323 0.0
C1214 C 0.57878 0.99018 0.95484 0.0
C1215 C 0.59582 0.98916 0.95347 0.0
C1216 C 0.56717 0.98678 0.93557 0.0
C1217 C 0.60065 0.98371 0.93275 0.0
C1218 C 0.5892 0.98046 0.91331 0.0
C1219 C 0.56176 0.98058 0.89472 0.0
C1220 C 0.54551 0.98312 0.89608 0.0
C1221 C 0.57264 0.98238 0.9144 0.0
C1222 C 0.53974 0.98636 0.91761 0.0
C1223 C 0.55049 0.9883 0.93706 0.0
H1224 H 0.62548 0.02762 0.07795 0.0
H1225 H 0.58192 0.96782 0.06535 0.0
H1226 H 0.5613 0.96924 0.09525 0.0
H1227 H 0.55496 0.98769 0.1239 0.0
H1228 H 0.59822 0.04748 0.13685 0.0
H1229 H 0.61951 0.04588 0.10777 0.0
C1230 C 0.61153 0.01488 0.08185 0.0
C1231 C 0.60526 -0.00234 0.06935 0.0
C1232 C 0.59962 0.01582 0.09903 0.0
C1233 C 0.58711 0.98128 0.07462 0.0
C1234 C 0.57528 0.98207 0.09173 0.0
C1235 C 0.56917 0.0003 0.12064 0.0
C1236 C 0.57497 0.01767 0.13261 0.0
C1237 C 0.58131 -0.00071 0.10392 0.0
C1238 C 0.59329 0.03398 0.12776 0.0
C1239 C 0.60551 0.03305 0.11119 0.0
H1240 H 0.96896 0.6025 0.08199 0.0
H1241 H 0.00271 0.58859 0.03616 0.0
H1242 H -1e-05 0.56388 0.0625 0.0
H1243 H 0.98775 0.54604 0.09807 0.0
H1244 H 0.95647 0.56171 0.14575 0.0
H1245 H 0.95811 0.5856 0.11888 0.0
C1246 C 0.97567 0.59401 0.0778 0.0
C1247 C 0.98594 0.59727 0.05716 0.0
C1248 C 0.9744 0.58009 0.09325 0.0
C1249 C -0.00523 0.58637 0.052 0.0
C1250 C -0.00681 0.57221 0.06701 0.0
C1251 C 0.98159 0.55488 0.10289 0.0
C1252 C 0.97201 0.55198 0.12403 0.0
C1253 C 0.98308 0.56899 0.08769 0.0
C1254 C 0.96366 0.56332 0.12951 0.0
C1255 C 0.96472 0.57713 0.11421 0.0
H1256 H 0.41176 0.41062 0.03386 0.0
H1257 H 0.37392 0.35758 0.06973 0.0
H1258 H 0.39534 0.36965 0.10308 0.0
H1259 H 0.42301 0.3971 0.12335 0.0
H1260 H 0.46057 0.44964 0.08625 0.0
H1261 H 0.44115 0.43593 0.05206 0.0
C1262 C 0.40833 0.4016 0.04889 0.0
C1263 C 0.39121 0.3834 0.04953 0.0
C1264 C 0.42058 0.40864 0.06785 0.0
C1265 C 0.38706 0.37168 0.0689 0.0
C1266 C 0.39924 0.37863 0.08799 0.0
C1267 C 0.42708 0.40535 0.10765 0.0
C1268 C 0.44288 0.42453 0.10748 0.0
C1269 C 0.41576 0.39735 0.08789 0.0
C1270 C 0.44813 0.43504 0.08697 0.0
C1271 C 0.4371 0.4272 0.06738 0.0
H1272 H 0.68165 0.73007 0.40782 0.0
H1273 H 0.6209 0.68594 0.41322 0.0
H1274 H 0.61632 0.70427 0.44352 0.0
H1275 H 0.62928 0.73342 0.4676 0.0
H1276 H 0.69004 0.77741 0.46249 0.0
H1277 H 0.69495 0.75848 0.43318 0.0
C1278 C 0.66743 0.72443 0.4157 0.0
C1279 C 0.65162 0.70673 0.40816 0.0
C1280 C 0.66489 0.73502 0.43318 0.0
C1281 C 0.63332 0.69954 0.41867 0.0
C1282 C 0.63066 0.71003 0.43598 0.0
C1283 C 0.64358 0.73883 0.46004 0.0
C1284 C 0.65924 0.7568 0.46712 0.0
C1285 C 0.64629 0.72788 0.4432 0.0
C1286 C 0.67778 0.76353 0.45745 0.0
C1287 C 0.68057 0.75278 0.4406 0.0
H1288 H 0.2515 0.95153 0.41288 0.0
H1289 H 0.29389 0.93614 0.39224 0.0
H1290 H 0.28181 0.91104 0.42179 0.0
H1291 H 0.25666 0.89125 0.45085 0.0
H1292 H 0.21474 0.90751 0.4709 0.0
H1293 H 0.22927 0.93459 0.44438 0.0
C1294 C 0.25823 0.9428 0.41496 0.0
C1295 C 0.27334 0.94546 0.40019 0.0
C1296 C 0.25121 0.92849 0.43183 0.0
C1297 C 0.28217 0.93431 0.40338 0.0
C1298 C 0.27521 0.91991 0.4202 0.0
C1299 C 0.25102 0.901 0.44971 0.0
C1300 C 0.23444 0.8972 0.46253 0.0
C1301 C 0.25939 0.91655 0.43418 0.0
C1302 C 0.22726 0.90993 0.46091 0.0
C1303 C 0.23556 0.92542 0.44575 0.0
H1304 H 0.0489 0.34347 0.40615 0.0
H1305 H 0.08036 0.32768 0.35903 0.0
H1306 H 0.10408 0.33316 0.38839 0.0
H1307 H 0.11469 0.34026 0.42774 0.0
H1308 H 0.08236 0.35357 0.47645 0.0
H1309 H 0.06044 0.35171 0.44614 0.0
C1310 C 0.06111 0.34151 0.40233 0.0
C1311 C 0.06287 0.33511 0.38054 0.0
C1312 C 0.07446 0.34415 0.41957 0.0
C1313 C 0.07864 0.33244 0.37576 0.0
C1314 C 0.0922 0.33557 0.39252 0.0
C1315 C 0.10276 0.34262 0.43183 0.0
C1316 C 0.09995 0.34669 0.4544 0.0
C1317 C 0.09 0.34099 0.41456 0.0
C1318 C 0.08483 0.35038 0.45921 0.0
C1319 C 0.07223 0.3492 0.4419 0.0
H1320 H 0.02673 0.30105 0.26359 0.0
H1321 H 0.06493 0.36316 0.2653 0.0
H1322 H 0.084 0.36122 0.23381 0.0
H1323 H 0.0918 0.34173 0.20866 0.0
H1324 H 0.05532 0.27945 0.20865 0.0
H1325 H 0.03323 0.28162 0.23607 0.0
C1326 C 0.03905 0.31417 0.25682 0.0
C1327 C 0.04457 0.33219 0.26689 0.0
C1328 C 0.05026 0.3129 0.23905 0.0
C1329 C 0.06055 0.34908 0.25798 0.0
C1330 C 0.07145 0.348 0.23998 0.0
C1331 C 0.07895 0.32863 0.21457 0.0
C1332 C 0.07536 0.31046 0.20693 0.0
C1333 C 0.06677 0.32995 0.23086 0.0
C1334 C 0.05839 0.29363 0.21425 0.0
C1335 C 0.04586 0.29485 0.23009 0.0
H1336 H 0.64701 0.7358 0.3076 0.0
H1337 H 0.67262 0.70676 0.27234 0.0
H1338 H 0.67849 0.72719 0.23874 0.0
H1339 H 0.67404 0.7519 0.21854 0.0
H1340 H 0.64905 0.78092 0.25541 0.0
H1341 H 0.64515 0.76181 0.28909 0.0
C1342 C 0.65398 0.73397 0.29262 0.0
C1343 C 0.65915 0.71963 0.29237 0.0
C1344 C 0.65724 0.74565 0.27352 0.0
C1345 C 0.66848 0.7177 0.27295 0.0
C1346 C 0.67174 0.72931 0.25371 0.0
C1347 C 0.66795 0.75416 0.23403 0.0
C1348 C 0.66138 0.76751 0.23418 0.0
C1349 C 0.66586 0.74313 0.25365 0.0
C1350 C 0.65365 0.77034 0.2545 0.0
C1351 C 0.65154 0.75951 0.27389 0.0
H1352 H 0.27361 0.93365 0.28238 0.0
H1353 H 0.25405 0.97487 0.28083 0.0
H1354 H 0.23047 0.95583 0.25119 0.0
H1355 H 0.21435 0.92658 0.22704 0.0
H1356 H 0.23442 0.88575 0.22854 0.0
H1357 H 0.25883 0.90552 0.25692 0.0
C1358 C 0.26423 0.93851 0.27552 0.0
C1359 C 0.26548 0.95556 0.28391 0.0
C1360 C 0.25074 0.92752 0.25853 0.0
C1361 C 0.25334 0.96175 0.2747 0.0
C1362 C 0.23984 0.95087 0.25777 0.0
C1363 C 0.22426 0.92218 0.23334 0.0
C1364 C 0.22244 0.90462 0.22585 0.0
C1365 C 0.23829 0.93363 0.24971 0.0
C1366 C 0.23529 0.89902 0.23433 0.0
C1367 C 0.2493 0.91035 0.25049 0.0
H1368 H 0.6248 0.91968 0.27863 0.0
H1369 H 0.68671 0.95438 0.28986 0.0
H1370 H 0.69275 0.94012 0.25596 0.0
H1371 H 0.68008 0.9156 0.22521 0.0
H1372 H 0.61807 0.88192 0.21366 0.0
H1373 H 0.61242 0.8981 0.24557 0.0
C1374 C 0.63962 0.92418 0.2736 0.0
C1375 C 0.65528 0.93778 0.28688 0.0
C1376 C 0.64295 0.91609 0.25408 0.0
C1377 C 0.67443 0.94383 0.27992 0.0
C1378 C 0.67787 0.93566 0.26059 0.0
C1379 C 0.66537 0.91214 0.22933 0.0
C1380 C 0.64949 0.89735 0.2173 0.0
C1381 C 0.66221 0.92151 0.24777 0.0
C1382 C 0.63051 0.89297 0.22295 0.0
C1383 C 0.62726 0.90222 0.24118 0.0
H1384 H 0.02143 0.71523 0.26754 0.0
H1385 H 0.06234 0.69506 0.26911 0.0
H1386 H 0.08167 0.7179 0.23915 0.0
H1387 H 0.0885 0.74533 0.21508 0.0
H1388 H 0.04929 0.76752 0.21521 0.0
H1389 H 0.02741 0.74178 0.24142 0.0
C1390 C 0.03444 0.71568 0.26108 0.0
C1391 C 0.04057 0.70362 0.27062 0.0
C1392 C 0.04577 0.7292 0.2442 0.0
C1393 C 0.05745 0.70435 0.26217 0.0
C1394 C 0.0685 0.71738 0.24504 0.0
C1395 C 0.07514 0.74452 0.22082 0.0
C1396 C 0.07067 0.75848 0.21355 0.0
C1397 C 0.06306 0.73018 0.23638 0.0
C1398 C 0.05305 0.75693 0.22058 0.0
C1399 C 0.04063 0.74233 0.2357 0.0
H1400 H 0.27857 0.34975 0.28169 0.0
H1401 H 0.26014 0.28963 0.29234 0.0
H1402 H 0.23607 0.28022 0.26175 0.0
H1403 H 0.21874 0.28924 0.2337 0.0
H1404 H 0.23841 0.34977 0.22353 0.0
H1405 H 0.26349 0.35881 0.25221 0.0
C1406 C 0.26935 0.33456 0.27732 0.0
C1407 C 0.27097 0.3204 0.2895 0.0
C1408 C 0.25566 0.32932 0.25985 0.0
C1409 C 0.25914 0.30082 0.28328 0.0
C1410 C 0.24534 0.29544 0.26584 0.0
C1411 C 0.22871 0.3044 0.23757 0.0
C1412 C 0.22644 0.31879 0.22677 0.0
C1413 C 0.24325 0.30958 0.25422 0.0
C1414 C 0.23951 0.33838 0.23195 0.0
C1415 C 0.25393 0.34359 0.2483 0.0
H1416 H 0.26237 0.30484 0.41131 0.0
H1417 H 0.30414 0.366 0.40615 0.0
H1418 H 0.28634 0.37287 0.43531 0.0
H1419 H 0.25758 0.36155 0.46036 0.0
H1420 H 0.2165 0.30019 0.46598 0.0
H1421 H 0.23535 0.29338 0.43853 0.0
C1422 C 0.26764 0.31967 0.41665 0.0
C1423 C 0.28442 0.3349 0.40643 0.0
C1424 C 0.25739 0.32349 0.43342 0.0
C1425 C 0.29122 0.35402 0.41373 0.0
C1426 C 0.28102 0.35796 0.43036 0.0
C1427 C 0.25295 0.34667 0.4559 0.0
C1428 C 0.23548 0.33143 0.46499 0.0
C1429 C 0.26392 0.34282 0.4401 0.0
C1430 C 0.22965 0.31224 0.45888 0.0
C1431 C 0.24046 0.30831 0.44324 0.0
H1432 H 0.68144 0.94469 0.4055 0.0
H1433 H 0.62196 0.93082 0.41465 0.0
H1434 H 0.61784 0.90915 0.44611 0.0
H1435 H 0.63086 0.89328 0.4701 0.0
H1436 H 0.69037 0.90732 0.46073 0.0
H1437 H 0.69484 0.93002 0.43048 0.0
C1438 C 0.66758 0.93697 0.41441 0.0
C1439 C 0.65199 0.93924 0.40764 0.0
C1440 C 0.66535 0.92461 0.43248 0.0
C1441 C 0.63419 0.92929 0.41951 0.0
C1442 C 0.63181 0.91688 0.43747 0.0
C1443 C 0.6448 0.90133 0.46143 0.0
C1444 C 0.66024 0.89859 0.46762 0.0
C1445 C 0.64724 0.91429 0.44395 0.0
C1446 C 0.67831 0.90932 0.45646 0.0
C1447 C 0.68084 0.92219 0.43905 0.0
H1448 H 0.06054 0.69525 0.39104 0.0
H1449 H 0.03915 0.73509 0.39125 0.0
H1450 H 0.05999 0.7525 0.42336 0.0
H1451 H 0.08557 0.75776 0.44975 0.0
H1452 H 0.10917 0.71987 0.44857 0.0
H1453 H 0.08579 0.69999 0.41902 0.0
C1454 C 0.06036 0.70764 0.39827 0.0
C1455 C 0.04846 0.71397 0.3886 0.0
C1456 C 0.07272 0.7179 0.4166 0.0
C1457 C 0.04836 0.73006 0.39814 0.0
C1458 C 0.06023 0.74001 0.41657 0.0
C1459 C 0.08566 0.74518 0.443 0.0
C1460 C 0.09928 0.74048 0.45108 0.0
C1461 C 0.0727 0.73428 0.42562 0.0
C1462 C 0.09881 0.72379 0.44266 0.0
C1463 C 0.08555 0.71252 0.42563 0.0
H1464 H 0.33842 0.05924 0.73833 0.0
H1465 H 0.27822 0.01409 0.74548 0.0
H1466 H 0.2737 0.03237 0.77596 0.0
H1467 H 0.28672 0.06151 0.80014 0.0
H1468 H 0.34696 0.10649 0.79305 0.0
H1469 H 0.35164 0.08788 0.76316 0.0
C1470 C 0.32432 0.05338 0.74659 0.0
C1471 C 0.30867 0.03539 0.73957 0.0
C1472 C 0.32184 0.06393 0.76415 0.0
C1473 C 0.29052 0.02792 0.75055 0.0
C1474 C 0.28791 0.03838 0.76796 0.0
C1475 C 0.30084 0.06722 0.79198 0.0
C1476 C 0.31646 0.08533 0.79877 0.0
C1477 C 0.30343 0.05645 0.7748 0.0
C1478 C 0.33476 0.09248 0.78829 0.0
C1479 C 0.33742 0.0819 0.77111 0.0
H1480 H 0.90772 0.26219 0.72895 0.0
H1481 H 0.96139 0.26147 0.72446 0.0
H1482 H 0.95054 0.2382 0.75594 0.0
H1483 H 0.92558 0.21811 0.78504 0.0
H1484 H 0.87254 0.22006 0.78903 0.0
H1485 H 0.88343 0.24283 0.75747 0.0
C1486 C 0.9171 0.25694 0.73472 0.0
C1487 C 0.93532 0.26354 0.72424 0.0
C1488 C 0.91089 0.24381 0.75285 0.0
C1489 C 0.94728 0.25665 0.7322 0.0
C1490 C 0.94108 0.24333 0.75019 0.0
C1491 C 0.91645 0.22353 0.7789 0.0
C1492 C 0.89836 0.21754 0.7895 0.0
C1493 C 0.92288 0.23681 0.76069 0.0
C1494 C 0.88667 0.2247 0.78145 0.0
C1495 C 0.89283 0.23764 0.76331 0.0
H1496 H 0.72011 0.68142 0.74309 0.0
H1497 H 0.7527 0.66284 0.70188 0.0
H1498 H 0.77837 0.67503 0.73048 0.0
H1499 H 0.79046 0.68883 0.76827 0.0
H1500 H 0.75671 0.70449 0.81147 0.0
H1501 H 0.73262 0.69581 0.78105 0.0
C1502 C 0.73295 0.68025 0.74035 0.0
C1503 C 0.73455 0.67123 0.7205 0.0
C1504 C 0.74738 0.68676 0.75721 0.0
C1505 C 0.75111 0.66959 0.71716 0.0
C1506 C 0.7658 0.6766 0.73345 0.0
C1507 C 0.778 0.69068 0.77077 0.0
C1508 C 0.77536 0.69749 0.79176 0.0
C1509 C 0.76395 0.68493 0.75366 0.0
C1510 C 0.75899 0.69941 0.79524 0.0
C1511 C 0.74524 0.69437 0.77793 0.0
H1512 H 0.6937 0.62458 0.60631 0.0
H1513 H 0.73641 0.68576 0.60708 0.0
H1514 H 0.75452 0.68118 0.57651 0.0
H1515 H 0.75916 0.65981 0.55104 0.0
H1516 H 0.71695 0.59857 0.5497 0.0
H1517 H 0.69782 0.60311 0.57936 0.0
C1518 C 0.70687 0.63691 0.59962 0.0
C1519 C 0.71374 0.65547 0.60897 0.0
C1520 C 0.71738 0.63415 0.58216 0.0
C1521 C 0.73086 0.67132 0.60023 0.0
C1522 C 0.74125 0.66872 0.58277 0.0
C1523 C 0.74559 0.64747 0.55691 0.0
C1524 C 0.7394 0.62891 0.54807 0.0
C1525 C 0.73475 0.6502 0.57382 0.0
C1526 C 0.72207 0.613 0.55634 0.0
C1527 C 0.7111 0.61561 0.57321 0.0
H1528 H 0.34653 0.05664 0.62483 0.0
H1529 H 0.28509 0.03436 0.61514 0.0
H1530 H 0.29222 0.05739 0.58455 0.0
H1531 H 0.31562 0.08551 0.56278 0.0
H1532 H 0.3772 0.10969 0.57316 0.0
H1533 H 0.37037 0.08409 0.60075 0.0
C1534 C 0.33475 0.05669 0.61575 0.0
C1535 C 0.31531 0.04393 0.62241 0.0
C1536 C 0.33897 0.07037 0.59836 0.0
C1537 C 0.30018 0.04418 0.61056 0.0
C1538 C 0.30423 0.05734 0.59303 0.0
C1539 C 0.32757 0.08517 0.57105 0.0
C1540 C 0.34686 0.09964 0.5662 0.0
C1541 C 0.32353 0.07079 0.5872 0.0
C1542 C 0.3622 0.09871 0.5766 0.0
C1543 C 0.35829 0.08415 0.59249 0.0
H1544 H 0.95018 0.27277 0.59198 0.0
H1545 H 0.91547 0.29539 0.61966 0.0
H1546 H 0.89135 0.2791 0.5896 0.0
H1547 H 0.87934 0.25698 0.55699 0.0
H1548 H 0.91559 0.23689 0.52693 0.0
H1549 H 0.93975 0.25343 0.55664 0.0
C1550 C 0.93736 0.27417 0.59131 0.0
C1551 C 0.93445 0.28506 0.60805 0.0
C1552 C 0.92378 0.26511 0.57372 0.0
C1553 C 0.91798 0.28706 0.6069 0.0
C1554 C 0.90417 0.27771 0.58978 0.0
C1555 C 0.89269 0.25653 0.55646 0.0
C1556 C 0.89536 0.24537 0.53975 0.0
C1557 C 0.90684 0.26654 0.57323 0.0
C1558 C 0.91275 0.24485 0.53985 0.0
C1559 C 0.92671 0.25445 0.55676 0.0
H1560 H 0.34045 0.28218 0.63059 0.0
H1561 H 0.27963 0.23821 0.62539 0.0
H1562 H 0.2867 0.22398 0.59264 0.0
H1563 H 0.31013 0.22257 0.56715 0.0
H1564 H 0.37141 0.26443 0.5738 0.0
H1565 H 0.36414 0.28131 0.60368 0.0
C1566 C 0.32876 0.2696 0.62212 0.0
C1567 C 0.30957 0.26117 0.63055 0.0
C1568 C 0.33299 0.26114 0.6035 0.0
C1569 C 0.29457 0.24484 0.61945 0.0
C1570 C 0.29857 0.23671 0.60066 0.0
C1571 C 0.32195 0.23536 0.57515 0.0
C1572 C 0.34131 0.24202 0.56845 0.0
C1573 C 0.31775 0.24449 0.59285 0.0
C1574 C 0.35636 0.25899 0.57854 0.0
C1575 C 0.35222 0.26855 0.5958 0.0
H1576 H 0.6957 0.06843 0.60329 0.0
H1577 H 0.73557 0.04696 0.60284 0.0
H1578 H 0.75394 0.06881 0.57171 0.0
H1579 H 0.76003 0.09539 0.54654 0.0
H1580 H 0.7217 0.11862 0.54812 0.0
H1581 H 0.70105 0.09435 0.57646 0.0
C1582 C 0.70828 0.06841 0.59618 0.0
C1583 C 0.71437 0.05622 0.60545 0.0
C1584 C 0.71904 0.08131 0.57853 0.0
C1585 C 0.73071 0.05634 0.59613 0.0
C1586 C 0.74121 0.06881 0.57833 0.0
C1587 C 0.74717 0.09518 0.55312 0.0
C1588 C 0.74256 0.10895 0.54553 0.0
C1589 C 0.73575 0.08161 0.56975 0.0
C1590 C 0.72555 0.10815 0.55369 0.0
C1591 C 0.71383 0.09437 0.57001 0.0
H1592 H 0.94321 0.65485 0.59401 0.0
H1593 H 0.90083 0.64416 0.64644 0.0
H1594 H 0.87506 0.63267 0.61786 0.0
H1595 H 0.86524 0.62886 0.57775 0.0
H1596 H 0.90792 0.64186 0.52481 0.0
H1597 H 0.93289 0.64932 0.55358 0.0
C1598 C 0.92823 0.64953 0.5991 0.0
C1599 C 0.92376 0.65001 0.62223 0.0
C1600 C 0.91362 0.64369 0.58243 0.0
C1601 C 0.90446 0.64364 0.62871 0.0
C1602 C 0.88977 0.63721 0.61237 0.0
C1603 C 0.87992 0.63296 0.57251 0.0
C1604 C 0.88471 0.6348 0.54917 0.0
C1605 C 0.89426 0.63762 0.58914 0.0
C1606 C 0.9039 0.64048 0.54267 0.0
C1607 C 0.91817 0.64471 0.55912 0.0
H1608 H 0.92158 0.64869 0.7361 0.0
H1609 H 0.9697 0.7077 0.73708 0.0
H1610 H 0.95442 0.71536 0.76846 0.0
H1611 H 0.92703 0.70551 0.7951 0.0
H1612 H 0.87855 0.64669 0.79335 0.0
H1613 H 0.89449 0.63872 0.76315 0.0
C1614 C 0.92876 0.66322 0.74321 0.0
C1615 C 0.94672 0.67761 0.73417 0.0
C1616 C 0.91986 0.66756 0.76122 0.0
C1617 C 0.95584 0.69634 0.74366 0.0
C1618 C 0.94711 0.70075 0.76162 0.0
C1619 C 0.91992 0.69096 0.78806 0.0
C1620 C 0.90161 0.67674 0.79659 0.0
C1621 C 0.92905 0.68651 0.77043 0.0
C1622 C 0.89276 0.65788 0.78744 0.0
C1623 C 0.90179 0.65333 0.77 0.0
H1624 H 0.33509 0.27424 0.75 0.0
H1625 H 0.27406 0.25588 0.75471 0.0
H1626 H 0.26974 0.23339 0.78526 0.0
H1627 H 0.28308 0.21794 0.80952 0.0
H1628 H 0.34414 0.23649 0.80453 0.0
H1629 H 0.3487 0.26006 0.77543 0.0
C1630 C 0.32086 0.26538 0.75778 0.0
C1631 C 0.3049 0.26661 0.74998 0.0
C1632 C 0.31848 0.25253 0.77531 0.0
C1633 C 0.28659 0.25518 0.76038 0.0
C1634 C 0.28409 0.24228 0.77781 0.0
C1635 C 0.29737 0.22718 0.80206 0.0
C1636 C 0.31323 0.22545 0.80916 0.0
C1637 C 0.29989 0.24066 0.78522 0.0
C1638 C 0.33173 0.23768 0.79957 0.0
C1639 C 0.33434 0.25107 0.7828 0.0
H1640 H 0.73067 0.03985 0.73008 0.0
H1641 H 0.7268 0.09143 0.72318 0.0
H1642 H 0.74728 0.1056 0.75642 0.0
H1643 H 0.76674 0.10389 0.78708 0.0
H1644 H 0.77193 0.05323 0.79423 0.0
H1645 H 0.75055 0.0382 0.76127 0.0
C1646 C 0.7343 0.05417 0.73587 0.0
C1647 C 0.72717 0.06451 0.72405 0.0
C1648 C 0.74631 0.06242 0.75507 0.0
C1649 C 0.7321 0.08311 0.73179 0.0
C1650 C 0.7438 0.09126 0.75088 0.0
C1651 C 0.76296 0.08943 0.78163 0.0
C1652 C 0.77067 0.07957 0.79319 0.0
C1653 C 0.75098 0.08108 0.76262 0.0
C1654 C 0.7661 0.06107 0.78558 0.0
C1655 C 0.7539 0.0525 0.76677 0.0
H1656 H 0.06784 0.35526 0.02587 0.0
H1657 H 0.01901 0.29678 0.02961 0.0
H1658 H 0.03889 0.28662 0.04999 0.0
H1659 H 0.06924 0.29499 0.06992 0.0
H1660 H 0.11756 0.35378 0.06785 0.0
H1661 H 0.09887 0.36318 0.04378 0.0
C1662 C 0.06168 0.34022 0.03077 0.0
C1663 C 0.04198 0.32681 0.02624 0.0
C1664 C 0.07305 0.33459 0.0431 0.0
C1665 C 0.03413 0.30741 0.03294 0.0
C1666 C 0.04547 0.30159 0.04467 0.0
C1667 C 0.07576 0.30977 0.06388 0.0
C1668 C 0.0947 0.32369 0.07079 0.0
C1669 C 0.06481 0.31515 0.05033 0.0
C1670 C 0.10291 0.34286 0.06302 0.0
C1671 C 0.09225 0.34823 0.0492 0.0
H1672 H 0.66072 0.70697 0.03447 0.0
H1673 H 0.6024 0.69656 0.02556 0.0
H1674 H 0.61016 0.72459 0.04921 0.0
H1675 H 0.6327 0.75089 0.07418 0.0
H1676 H 0.69099 0.76179 0.08357 0.0
H1677 H 0.68412 0.73484 0.05777 0.0
C1678 C 0.64977 0.71094 0.03751 0.0
C1679 C 0.63094 0.69952 0.02837 0.0
C1680 C 0.65427 0.72709 0.05131 0.0
C1681 C 0.61697 0.70497 0.03243 0.0
C1682 C 0.62136 0.721 0.04602 0.0
C1683 C 0.64388 0.74732 0.07059 0.0
C1684 C 0.66221 0.75804 0.08096 0.0
C1685 C 0.63982 0.73192 0.05586 0.0
C1686 C 0.67675 0.75365 0.07579 0.0
C1687 C 0.6728 0.73823 0.06112 0.0
H1688 H 0.29006 0.91095 0.04152 0.0
H1689 H 0.28708 0.96312 0.03702 0.0
H1690 H 0.25763 0.94833 0.06059 0.0
H1691 H 0.23314 0.92077 0.08324 0.0
H1692 H 0.23678 0.86903 0.08813 0.0
H1693 H 0.26567 0.88354 0.06373 0.0
C1694 C 0.28293 0.91908 0.04556 0.0
C1695 C 0.29075 0.93809 0.03749 0.0
C1696 C 0.2662 0.91061 0.05931 0.0
C1697 C 0.28138 0.94845 0.04305 0.0
C1698 C 0.26455 0.94002 0.05652 0.0
C1699 C 0.24023 0.91268 0.07882 0.0
C1700 C 0.23296 0.89394 0.08753 0.0
C1701 C 0.25689 0.92114 0.06485 0.0
C1702 C 0.24232 0.88361 0.08187 0.0
C1703 C 0.25875 0.89184 0.06783 0.0
H1704 H 0.31741 0.017 0.95339 0.0
H1705 H 0.3508 0.05547 0.00827 0.0
H1706 H 0.34544 0.08069 0.99269 0.0
H1707 H 0.33195 0.09187 0.96283 0.0
H1708 H 0.30155 0.05399 0.90603 0.0
H1709 H 0.30469 0.0283 0.92338 0.0
C1710 C 0.32337 0.03084 0.9621 0.0
C1711 C 0.33437 0.03436 0.98202 0.0
C1712 C 0.32072 0.04534 0.95272 0.0
C1713 C 0.34225 0.05244 0.99292 0.0
C1714 C 0.3392 0.06683 0.984 0.0
C1715 C 0.32618 0.0781 0.95408 0.0
C1716 C 0.31641 0.07497 0.93314 0.0
C1717 C 0.32864 0.0635 0.96375 0.0
C1718 C 0.30874 0.0568 0.92237 0.0
C1719 C 0.31069 0.0421 0.93217 0.0
H1720 H 0.96418 0.29433 0.95302 0.0
H1721 H 0.92057 0.28122 0.00484 0.0
H1722 H 0.89965 0.2493 0.98793 0.0
H1723 H 0.89336 0.22561 0.95801 0.0
H1724 H 0.93511 0.24006 0.90335 0.0
H1725 H 0.95736 0.27062 0.92218 0.0
C1726 C 0.95015 0.28438 0.96065 0.0
C1727 C 0.94391 0.29005 0.98014 0.0
C1728 C 0.93791 0.26626 0.9504 0.0
C1729 C 0.92562 0.27718 0.98976 0.0
C1730 C 0.91368 0.25893 0.98013 0.0
C1731 C 0.90717 0.23548 0.94993 0.0
C1732 C 0.91236 0.23039 0.92913 0.0
C1733 C 0.91957 0.25342 0.9603 0.0
C1734 C 0.9307 0.2433 0.91948 0.0
C1735 C 0.94342 0.26093 0.93013 0.0
H1736 H 0.69809 0.68591 0.94747 0.0
H1737 H 0.70592 0.65695 0.00462 0.0
H1738 H 0.73824 0.66565 0.99042 0.0
H1739 H 0.76323 0.67951 0.96051 0.0
H1740 H 0.75413 0.70609 0.90176 0.0
H1741 H 0.72364 0.70079 0.91821 0.0
C1742 C 0.70696 0.68171 0.95697 0.0
C1743 C 0.69959 0.67073 0.97701 0.0
C1744 C 0.72533 0.68635 0.94843 0.0
C1745 C 0.71123 0.66532 0.98907 0.0
C1746 C 0.7297 0.67028 0.98096 0.0
C1747 C 0.75457 0.6841 0.95123 0.0
C1748 C 0.76097 0.69306 0.92982 0.0
C1749 C 0.73671 0.68042 0.96041 0.0
C1750 C 0.74975 0.69935 0.91837 0.0
C1751 C 0.73218 0.69616 0.92766 0.0
H1752 H 0.91352 0.63616 -0.0003 0.0
H1753 H 0.96564 0.66619 0.95861 0.0
H1754 H 0.9501 0.6792 0.93465 0.0
H1755 H 0.92091 0.67987 0.92363 0.0
H1756 H 0.86964 0.65199 0.96661 0.0
H1757 H 0.88559 0.64005 0.99127 0.0
C1758 C 0.92152 0.64571 0.98563 0.0
C1759 C 0.9406 0.65007 0.98079 0.0
C1760 C 0.91258 0.65328 0.97204 0.0
C1761 C 0.95092 0.66264 0.9627 0.0
C1762 C 0.94202 0.67 0.94891 0.0
C1763 C 0.91329 0.67155 0.93862 0.0
C1764 C 0.89389 0.66655 0.94284 0.0
C1765 C 0.92273 0.66514 0.95318 0.0
C1766 C 0.88433 0.65556 0.96237 0.0
C1767 C 0.8935 0.64885 0.97668 0.0
H1768 H 0.33392 0.28074 -0.00223 0.0
H1769 H 0.30021 0.28996 0.94753 0.0
H1770 H 0.29238 0.25971 0.92856 0.0
H1771 H 0.29799 0.23265 0.92397 0.0
H1772 H 0.32992 0.22206 0.97546 0.0
H1773 H 0.33583 0.25108 0.99596 0.0
C1774 C 0.32463 0.27597 0.98286 0.0
C1775 C 0.31784 0.28766 0.97392 0.0
C1776 C 0.32015 0.25852 0.97202 0.0
C1777 C 0.30565 0.28123 0.95474 0.0
C1778 C 0.30125 0.26398 0.94379 0.0
C1779 C 0.30581 0.2363 0.93997 0.0
C1780 C 0.31377 0.22525 0.94784 0.0
C1781 C 0.30882 0.25277 0.95197 0.0
C1782 C 0.32409 0.23054 0.96853 0.0
C1783 C 0.32736 0.24707 0.98042 0.0
H1784 H 0.70217 0.03083 0.97871 0.0
H1785 H 0.68861 0.07644 0.97396 0.0
H1786 H 0.71845 0.09625 0.95241 0.0
H1787 H 0.74802 0.10058 0.93431 0.0
H1788 H 0.76289 0.05601 0.9403 0.0
H1789 H 0.73271 0.03572 0.96144 0.0
C1790 C 0.70576 0.04511 0.973 0.0
C1791 C 0.69308 0.05207 0.978 0.0
C1792 C 0.72311 0.05659 0.96064 0.0
C1793 C 0.69805 0.07067 0.97049 0.0
C1794 C 0.71512 0.08204 0.95807 0.0
C1795 C 0.74489 0.08657 0.94051 0.0
C1796 C 0.75786 0.07995 0.93571 0.0
C1797 C 0.72773 0.07515 0.95303 0.0
C1798 C 0.75314 0.06146 0.94343 0.0
C1799 C 0.73592 0.04988 0.9557 0.0
H1800 H 0.63001 0.92907 0.02851 0.0
H1801 H 0.68641 0.97745 0.04625 0.0
H1802 H 0.69423 0.95575 0.06649 0.0
H1803 H 0.68403 0.92339 0.08179 0.0
H1804 H 0.62713 0.87529 0.0653 0.0
H1805 H 0.62052 0.89646 0.04203 0.0
C1806 C 0.64412 0.93482 0.03651 0.0
C1807 C 0.65758 0.95486 0.03589 0.0
C1808 C 0.64836 0.92232 0.04859 0.0
C1809 C 0.67575 0.96209 0.04651 0.0
C1810 C 0.68023 0.94969 0.05815 0.0
C1811 C 0.67031 0.91751 0.07281 0.0
C1812 C 0.65605 0.89783 0.07539 0.0
C1813 C 0.6665 0.92984 0.0597 0.0
C1814 C 0.63825 0.89045 0.06384 0.0
C1815 C 0.63448 0.90253 0.05047 0.0
H1816 H 0.05211 0.70958 0.02059 0.0
H1817 H 0.01125 0.68516 0.0765 0.0
H1818 H 0.03182 0.71337 0.09998 0.0
H1819 H 0.0616 0.74472 0.10506 0.0
H1820 H 0.10194 0.77055 0.04914 0.0
H1821 H 0.08141 0.7422 0.02513 0.0
C1822 C 0.04778 0.71051 0.0379 0.0
C1823 C 0.03025 0.69529 0.04683 0.0
C1824 C 0.05954 0.72702 0.05127 0.0
C1825 C 0.02465 0.69671 0.0692 0.0
C1826 C 0.03641 0.71282 0.08269 0.0
C1827 C 0.06583 0.74409 0.08759 0.0
C1828 C 0.08321 0.75947 0.07883 0.0
C1829 C 0.05389 0.72799 0.07395 0.0
C1830 C 0.08853 0.75877 0.05613 0.0
C1831 C 0.07686 0.74258 0.04248 0.0
H1832 H 0.28697 0.32618 0.0385 0.0
H1833 H 0.2985 0.38499 0.0377 0.0
H1834 H 0.27045 0.3757 0.06252 0.0
H1835 H 0.2428 0.35101 0.08454 0.0
H1836 H 0.23131 0.29229 0.08568 0.0
H1837 H 0.25921 0.30143 0.06041 0.0
C1838 C 0.28335 0.33698 0.04368 0.0
C1839 C 0.29487 0.35627 0.03624 0.0
C1840 C 0.26725 0.33158 0.05802 0.0
C1841 C 0.28991 0.37005 0.04315 0.0
C1842 C 0.27389 0.36477 0.05738 0.0
C1843 C 0.24655 0.34026 0.07946 0.0
C1844 C 0.23514 0.32105 0.08707 0.0
C1845 C 0.26253 0.34561 0.06499 0.0
C1846 C 0.23986 0.30717 0.07995 0.0
C1847 C 0.25581 0.31239 0.06558 0.0
H1848 H 0.67994 0.64087 0.39612 0.0
H1849 H 0.71955 0.67414 0.34184 0.0
H1850 H 0.74368 0.66671 0.35652 0.0
H1851 H 0.7539 0.65177 0.38564 0.0
H1852 H 0.71495 0.62089 0.44161 0.0
H1853 H 0.69008 0.626 0.42504 0.0
C1854 C 0.69378 0.64635 0.38734 0.0
C1855 C 0.69792 0.65801 0.36789 0.0
C1856 C 0.70771 0.64242 0.39617 0.0
C1857 C 0.716 0.66514 0.35686 0.0
C1858 C 0.7298 0.66092 0.36527 0.0
C1859 C 0.74005 0.64626 0.39436 0.0
C1860 C 0.73643 0.63588 0.41491 0.0
C1861 C 0.72591 0.64978 0.38511 0.0
C1862 C 0.71815 0.62858 0.42559 0.0
C1863 C 0.70392 0.63166 0.41624 0.0
H1864 H 0.33498 0.04722 0.37919 0.0
H1865 H 0.2779 0.04094 0.37607 0.0
H1866 H 0.28907 0.06979 0.39944 0.0
H1867 H 0.31435 0.09589 0.42228 0.0
H1868 H 0.37147 0.1027 0.42612 0.0
H1869 H 0.36106 0.07473 0.4007 0.0
C1870 C 0.32503 0.05225 0.38348 0.0
C1871 C 0.30556 0.04176 0.37599 0.0
C1872 C 0.33152 0.06891 0.3971 0.0
C1873 C 0.29292 0.04858 0.38166 0.0
C1874 C 0.29927 0.0651 0.39507 0.0
C1875 C 0.32451 0.09121 0.41759 0.0
C1876 C 0.34354 0.10112 0.42626 0.0
C1877 C 0.31842 0.07518 0.40316 0.0
C1878 C 0.35672 0.09524 0.41963 0.0
C1879 C 0.35075 0.07923 0.40521 0.0
H1880 H 0.96314 0.25457 0.36766 0.0
H1881 H 0.95442 0.30269 0.35557 0.0
H1882 H 0.92315 0.2858 0.37536 0.0
H1883 H 0.89836 0.25754 0.39618 0.0
H1884 H 0.9079 0.21024 0.4105 0.0
H1885 H 0.93855 0.22649 0.38935 0.0
C1886 C 0.95435 0.26131 0.36928 0.0
C1887 C 0.96109 0.27983 0.36016 0.0
C1888 C 0.93648 0.25165 0.38099 0.0
C1889 C 0.94961 0.28846 0.36254 0.0
C1890 C 0.9317 0.27881 0.37382 0.0
C1891 C 0.90723 0.25086 0.39493 0.0
C1892 C 0.90076 0.23267 0.4049 0.0
C1893 C 0.92505 0.26046 0.38321 0.0
C1894 C 0.91232 0.22409 0.40268 0.0
C1895 C 0.92994 0.23343 0.39073 0.0
H1896 H 0.97057 0.35546 0.30561 0.0
H1897 H 0.02795 0.40268 0.3225 0.0
H1898 H 0.021 0.42544 0.30328 0.0
H1899 H -1e-05 0.43119 0.27798 0.0
H1900 H 0.94295 0.3838 0.26051 0.0
H1901 H 0.94833 0.36179 0.28384 0.0
C1902 C 0.98146 0.37078 0.30541 0.0
C1903 C -0.00016 0.37735 0.31518 0.0
C1904 C 0.97749 0.38368 0.29402 0.0
C1905 C 0.01371 0.39726 0.31503 0.0
C1906 C 0.00979 0.41026 0.30391 0.0
C1907 C 0.98872 0.41605 0.27944 0.0
C1908 C 0.97123 0.409 0.26735 0.0
C1909 C -0.00802 0.40351 0.29272 0.0
C1910 C 0.95654 0.3895 0.26968 0.0
C1911 C 0.95964 0.37692 0.28292 0.0
H1912 H 0.62132 0.61647 0.30998 0.0
H1913 H 0.57116 0.62256 0.32199 0.0
H1914 H 0.55091 0.59329 0.30001 0.0
H1915 H 0.54754 0.56676 0.27601 0.0
H1916 H 0.59733 0.56045 0.26313 0.0
H1917 H 0.61752 0.58879 0.28713 0.0
C1918 C 0.60594 0.61133 0.30791 0.0
C1919 C 0.59787 0.62186 0.31753 0.0
C1920 C 0.59428 0.59444 0.29509 0.0
C1921 C 0.57786 0.61489 0.31472 0.0
C1922 C 0.56622 0.59812 0.30213 0.0
C1923 C 0.56283 0.57162 0.27842 0.0
C1924 C 0.57099 0.56168 0.26763 0.0
C1925 C 0.57432 0.58795 0.29199 0.0
C1926 C 0.59071 0.56785 0.27132 0.0
C1927 C 0.60227 0.5841 0.28492 0.0
H1928 H 0.37078 0.99033 0.32836 0.0
H1929 H 0.35853 0.02354 0.28076 0.0
H1930 H 0.3866 0.02955 0.25766 0.0
H1931 H 0.41328 0.02359 0.2496 0.0
H1932 H 0.42684 0.99204 0.29834 0.0
H1933 H 0.39943 0.98691 0.32203 0.0
C1934 C 0.37437 -0.00096 0.31305 0.0
C1935 C 0.3625 0.00636 0.30624 0.0
C1936 C 0.39061 0.00251 0.29982 0.0
C1937 C 0.36742 0.01772 0.28642 0.0
C1938 C 0.38344 0.02111 0.27312 0.0
C1939 C 0.41054 0.0159 0.26559 0.0
C1940 C 0.42206 0.00799 0.27186 0.0
C1941 C 0.39497 0.01333 0.27947 0.0
C1942 C 0.41797 -0.00214 0.29262 0.0
C1943 C 0.40236 -0.00495 0.30636 0.0
H1944 H 0.57889 0.96489 0.33389 0.0
H1945 H 0.63233 -0.0011 0.29611 0.0
H1946 H 0.6161 0.01058 0.27114 0.0
H1947 H 0.58612 0.0092 0.25843 0.0
H1948 H 0.53332 0.97681 0.29805 0.0
H1949 H 0.54989 0.96621 0.32363 0.0
C1950 C 0.58702 0.97497 0.3203 0.0
C1951 C 0.6067 0.98088 0.31672 0.0
C1952 C 0.57766 0.98172 0.30613 0.0
C1953 C 0.61714 -0.00585 0.29923 0.0
C1954 C 0.60785 0.00076 0.28487 0.0
C1955 C 0.57829 0.00011 0.27287 0.0
C1956 C 0.55834 -0.00648 0.2759 0.0
C1957 C 0.58803 -0.00562 0.28794 0.0
C1958 C 0.54849 0.98164 0.29474 0.0
C1959 C 0.558 0.97568 0.30957 0.0
H1960 H 0.96626 0.60235 0.30335 0.0
H1961 H 0.02366 0.61391 0.32107 0.0
H1962 H 0.01725 0.58416 0.30171 0.0
H1963 H -0.00339 0.55678 0.27639 0.0
H1964 H 0.93943 0.54549 0.25833 0.0
H1965 H 0.94438 0.57318 0.28139 0.0
C1966 C 0.97727 0.59822 0.30327 0.0
C1967 C -0.0045 0.61043 0.31336 0.0
C1968 C 0.97358 0.58126 0.29188 0.0
C1969 C 0.00954 0.60479 0.31335 0.0
C1970 C 0.00592 0.58784 0.30218 0.0
C1971 C 0.98522 0.56036 0.27767 0.0
C1972 C 0.9678 0.54937 0.2655 0.0
C1973 C 0.98822 0.57631 0.29082 0.0
C1974 C 0.95295 0.55381 0.26757 0.0
C1975 C 0.95582 0.56966 0.28065 0.0
H1976 H 0.37004 0.4026 0.31005 0.0
H1977 H 0.37261 0.3501 0.30957 0.0
H1978 H 0.40192 0.36589 0.28564 0.0
H1979 H 0.42611 0.39443 0.26339 0.0
H1980 H 0.4223 0.44621 0.26369 0.0
H1981 H 0.39418 0.43086 0.28914 0.0
C1982 C 0.37701 0.39457 0.30488 0.0
C1983 C 0.36905 0.37516 0.3116 0.0
C1984 C 0.39363 0.4036 0.29094 0.0
C1985 C 0.37837 0.36505 0.30463 0.0
C1986 C 0.39514 0.37407 0.29092 0.0
C1987 C 0.41917 0.40233 0.26922 0.0
C1988 C 0.42612 0.42134 0.2615 0.0
C1989 C 0.40279 0.3933 0.28376 0.0
C1990 C 0.417 0.43145 0.2691 0.0
C1991 C 0.40098 0.42271 0.28372 0.0
H1992 H 0.35476 0.30216 0.38819 0.0
H1993 H 0.29812 0.25548 0.36797 0.0
H1994 H 0.30324 0.23252 0.38964 0.0
H1995 H 0.32309 0.22602 0.4161 0.0
H1996 H 0.37981 0.27265 0.43594 0.0
H1997 H 0.37543 0.29529 0.41257 0.0
C1998 C 0.3436 0.28693 0.38833 0.0
C1999 C 0.32603 0.28058 0.37657 0.0
C2000 C 0.34661 0.27382 0.40089 0.0
C2001 C 0.31178 0.26077 0.37684 0.0
C2002 C 0.31466 0.24764 0.38933 0.0
C2003 C 0.33447 0.24115 0.41527 0.0
C2004 C 0.35168 0.2477 0.42786 0.0
C2005 C 0.33188 0.25406 0.40173 0.0
C2006 C 0.36646 0.26726 0.42634 0.0
C2007 C 0.36393 0.28021 0.41306 0.0
H2008 H 0.68322 0.04295 0.38038 0.0
H2009 H 0.72822 0.03017 0.36307 0.0
H2010 H 0.7527 0.06063 0.38056 0.0
H2011 H 0.76099 0.08997 0.40274 0.0
H2012 H 0.71615 0.10304 0.41939 0.0
H2013 H 0.69188 0.07339 0.40007 0.0
C2014 C 0.69841 0.0469 0.38027 0.0
C2015 C 0.70389 0.03426 0.37063 0.0
C2016 C 0.71239 0.06441 0.39034 0.0
C2017 C 0.72364 0.03966 0.3704 0.0
C2018 C 0.73763 0.05702 0.38048 0.0
C2019 C 0.74589 0.08629 0.40206 0.0
C2020 C 0.74024 0.09846 0.4126 0.0
C2021 C 0.73211 0.06933 0.39084 0.0
C2022 C 0.72076 0.09382 0.41134 0.0
C2023 C 0.70691 0.07687 0.40038 0.0
H2024 H 0.94227 0.68024 0.34461 0.0
H2025 H 0.96311 0.65015 0.38573 0.0
H2026 H 0.93482 0.63861 0.41091 0.0
H2027 H 0.90535 0.63889 0.42254 0.0
H2028 H 0.88348 0.66723 0.37979 0.0
H2029 H 0.91118 0.67786 0.35415 0.0
C2030 C 0.94055 0.67107 0.35901 0.0
C2031 C 0.9548 0.6662 0.36345 0.0
C2032 C 0.9242 0.66436 0.37327 0.0
C2033 C 0.95229 0.65408 0.38197 0.0
C2034 C 0.93617 0.64755 0.39642 0.0
C2035 C 0.90641 0.64708 0.40742 0.0
C2036 C 0.8925 0.65254 0.40343 0.0
C2037 C 0.92218 0.65282 0.39241 0.0
C2038 C 0.89426 0.6633 0.38374 0.0
C2039 C 0.91002 0.66927 0.36892 0.0
H2040 H 0.37875 0.00291 0.68273 0.0
H2041 H 0.33524 0.96886 0.73341 0.0
H2042 H 0.35817 0.96221 0.75255 0.0
H2043 H 0.391 0.96773 0.75647 0.0
H2044 H 0.43426 -0.00022 0.70464 0.0
H2045 H 0.41111 0.00579 0.68473 0.0
C2046 C 0.37427 -0.0061 0.69784 0.0
C2047 C 0.35533 0.98651 0.70667 0.0
C2048 C 0.38754 0.98995 0.70877 0.0
C2049 C 0.3497 0.97474 0.7262 0.0
C2050 C 0.36284 0.97097 0.73724 0.0
C2051 C 0.39536 0.97564 0.74054 0.0
C2052 C 0.41454 0.98338 0.73231 0.0
C2053 C 0.38186 0.97869 0.72886 0.0
C2054 C 0.4198 -0.00603 0.7118 0.0
C2055 C 0.40649 -0.00269 0.70025 0.0
H2056 H 0.94409 0.36047 0.71096 0.0
H2057 H 0.00191 0.36874 0.70613 0.0
H2058 H 0.01495 0.399 0.72766 0.0
H2059 H 0.00981 0.42295 0.74829 0.0
H2060 H 0.95187 0.41432 0.75283 0.0
H2061 H 0.93901 0.38427 0.73108 0.0
C2062 C 0.95957 0.36886 0.71456 0.0
C2063 C 0.97198 0.3623 0.70691 0.0
C2064 C 0.96695 0.38617 0.72697 0.0
C2065 C -0.00801 0.37341 0.71181 0.0
C2066 C -0.00053 0.39073 0.72412 0.0
C2067 C -0.0056 0.41455 0.74435 0.0
C2068 C 0.9818 0.4208 0.75226 0.0
C2069 C 0.98708 0.39724 0.73181 0.0
C2070 C 0.96183 0.40967 0.74723 0.0
C2071 C 0.95448 0.39254 0.7347 0.0
H2072 H 0.63674 0.58796 0.71763 0.0
H2073 H 0.62208 0.63031 0.69592 0.0
H2074 H 0.59077 0.61258 0.71568 0.0
H2075 H 0.56728 0.58466 0.73824 0.0
H2076 H 0.58278 0.54336 0.76181 0.0
H2077 H 0.61393 0.56095 0.74186 0.0
C2078 C 0.62668 0.5933 0.7172 0.0
C2079 C 0.63168 0.61035 0.70522 0.0
C2080 C 0.60882 0.58318 0.72881 0.0
C2081 C 0.61859 0.61721 0.70505 0.0
C2082 C 0.60067 0.60707 0.7163 0.0
C2083 C 0.57757 0.57964 0.73934 0.0
C2084 C 0.57257 0.5626 0.75142 0.0
C2085 C 0.59562 0.59002 0.72818 0.0
C2086 C 0.58603 0.5562 0.75229 0.0
C2087 C 0.60392 0.56632 0.74101 0.0
H2088 H 0.64468 0.69047 0.64104 0.0
H2089 H 0.70458 0.73235 0.65669 0.0
H2090 H 0.70122 0.75782 0.63866 0.0
H2091 H 0.68225 0.76749 0.61575 0.0
H2092 H 0.62161 0.72635 0.6022 0.0
H2093 H 0.6245 0.70116 0.62167 0.0
C2094 C 0.65692 0.70522 0.64074 0.0
C2095 C 0.67489 0.70949 0.65001 0.0
C2096 C 0.65488 0.71983 0.63039 0.0
C2097 C 0.69058 0.72869 0.64968 0.0
C2098 C 0.68871 0.74324 0.63926 0.0
C2099 C 0.66946 0.75319 0.61747 0.0
C2100 C 0.65179 0.74891 0.60721 0.0
C2101 C 0.67105 0.73889 0.62919 0.0
C2102 C 0.63557 0.73006 0.60935 0.0
C2103 C 0.63713 0.71564 0.62069 0.0
H2104 H 0.28231 0.94481 0.64205 0.0
H2105 H 0.2301 0.94721 0.65456 0.0
H2106 H 0.2113 0.91825 0.63155 0.0
H2107 H 0.20974 0.89307 0.60648 0.0
H2108 H 0.26145 0.89014 0.59349 0.0
H2109 H 0.28032 0.91831 0.61829 0.0
C2110 C 0.2668 0.93892 0.63988 0.0
C2111 C 0.25773 0.94834 0.64993 0.0
C2112 C 0.25597 0.92219 0.62649 0.0
C2113 C 0.23756 0.9404 0.64699 0.0
C2114 C 0.22675 0.92381 0.63378 0.0
C2115 C 0.22516 0.89864 0.60905 0.0
C2116 C 0.23426 0.88972 0.59801 0.0
C2117 C 0.23584 0.91477 0.6232 0.0
C2118 C 0.25414 0.89678 0.60186 0.0
C2119 C 0.26493 0.91292 0.61594 0.0
H2120 H 0.02912 0.30212 0.64426 0.0
H2121 H 0.03941 0.3602 0.63814 0.0
H2122 H 0.07004 0.37023 0.61804 0.0
H2123 H 0.09267 0.36182 0.5996 0.0
H2124 H 0.08144 0.30335 0.60439 0.0
H2125 H 0.05244 0.29413 0.62754 0.0
C2126 C 0.03819 0.31703 0.63881 0.0
C2127 C 0.03197 0.33037 0.64265 0.0
C2128 C 0.05554 0.32258 0.62679 0.0
C2129 C 0.04384 0.34963 0.63534 0.0
C2130 C 0.06134 0.35536 0.62379 0.0
C2131 C 0.08398 0.34715 0.60599 0.0
C2132 C 0.08907 0.33325 0.60017 0.0
C2133 C 0.06715 0.34187 0.61902 0.0
C2134 C 0.07763 0.31423 0.60839 0.0
C2135 C 0.0611 0.30897 0.62168 0.0
H2136 H 0.27833 0.32744 0.65131 0.0
H2137 H 0.22609 0.27202 0.66245 0.0
H2138 H 0.20772 0.28163 0.63846 0.0
H2139 H 0.20667 0.30495 0.61279 0.0
H2140 H 0.25841 0.36044 0.60135 0.0
H2141 H 0.27676 0.35171 0.62717 0.0
C2142 C 0.2629 0.31752 0.64864 0.0
C2143 C 0.25369 0.29896 0.65856 0.0
C2144 C 0.25234 0.32311 0.6347 0.0
C2145 C 0.23363 0.28635 0.65499 0.0
C2146 C 0.22308 0.29181 0.64122 0.0
C2147 C 0.22198 0.31511 0.61595 0.0
C2148 C 0.23128 0.33319 0.60503 0.0
C2149 C 0.23234 0.30999 0.63071 0.0
C2150 C 0.25099 0.34642 0.6096 0.0
C2151 C 0.26147 0.3414 0.62427 0.0
H2152 H 0.69875 0.96865 0.64601 0.0
H2153 H 0.6382 0.95242 0.64594 0.0
H2154 H 0.62943 0.9214 0.62811 0.0
H2155 H 0.63922 0.89975 0.61056 0.0
H2156 H 0.70017 0.91735 0.60789 0.0
H2157 H 0.70845 0.94677 0.62906 0.0
C2158 C 0.6836 0.95818 0.64241 0.0
C2159 C 0.66914 0.96277 0.6473 0.0
C2160 C 0.67874 0.94065 0.63154 0.0
C2161 C 0.6496 0.9492 0.6423 0.0
C2162 C 0.64458 0.9315 0.63204 0.0
C2163 C 0.65433 0.91007 0.61446 0.0
C2164 C 0.66901 0.90627 0.60758 0.0
C2165 C 0.65909 0.92724 0.62616 0.0
C2166 C 0.68849 0.91968 0.61322 0.0
C2167 C 0.69329 0.93662 0.62521 0.0
H2168 H 0.03449 0.69764 0.63571 0.0
H2169 H 0.0207 0.74289 0.62785 0.0
H2170 H 0.05015 0.76182 0.60544 0.0
H2171 H 0.07978 0.76579 0.58792 0.0
H2172 H 0.09412 0.72097 0.59497 0.0
H2173 H 0.06473 0.70183 0.61811 0.0
C2174 C 0.03793 0.71163 0.62909 0.0
C2175 C 0.02527 0.71873 0.6335 0.0
C2176 C 0.05505 0.72261 0.61612 0.0
C2177 C 0.03006 0.73697 0.6248 0.0
C2178 C 0.04695 0.74787 0.61193 0.0
C2179 C 0.07641 0.75174 0.59431 0.0
C2180 C 0.08905 0.74476 0.58952 0.0
C2181 C 0.05951 0.74083 0.60744 0.0
C2182 C 0.08468 0.72674 0.59847 0.0
C2183 C 0.06782 0.71575 0.61161 0.0
H2184 H 0.97896 0.60403 0.68574 0.0
H2185 H 0.01063 0.65117 0.73309 0.0
H2186 H 0.01868 0.63094 0.75589 0.0
H2187 H 0.01545 0.59931 0.76361 0.0
H2188 H 0.98556 0.55256 0.71559 0.0
H2189 H 0.97814 0.57306 0.6918 0.0
C2190 C 0.98775 0.60989 0.70094 0.0
C2191 C -0.00593 0.62906 0.70774 0.0
C2192 C -0.00741 0.5982 0.71392 0.0
C2193 C 0.00559 0.63649 0.7274 0.0
C2194 C 0.01016 0.6249 0.74055 0.0
C2195 C 0.00745 0.59374 0.74782 0.0
C2196 C 0.00095 0.57453 0.74131 0.0
C2197 C 0.00354 0.60568 0.73415 0.0
C2198 C -0.00928 0.56738 0.72081 0.0
C2199 C 0.98643 0.57906 0.70729 0.0
H2200 H 0.37736 0.35451 0.71099 0.0
H2201 H 0.3352 0.37276 0.70512 0.0
H2202 H 0.35892 0.40484 0.71994 0.0
H2203 H 0.39104 0.42706 0.73615 0.0
H2204 H 0.43175 0.40726 0.74605 0.0
H2205 H 0.4094 0.37668 0.72754 0.0
C2206 C 0.37348 0.36562 0.71268 0.0
C2207 C 0.35463 0.36136 0.70689 0.0
C2208 C 0.38693 0.38375 0.72195 0.0
C2209 C 0.34965 0.37574 0.70949 0.0
C2210 C 0.36318 0.39405 0.71798 0.0
C2211 C 0.39502 0.41604 0.73453 0.0
C2212 C 0.41319 0.41966 0.74259 0.0
C2213 C 0.38176 0.3981 0.72464 0.0
C2214 C 0.41811 0.40521 0.73971 0.0
C2215 C 0.40523 0.38756 0.72929 0.0
H2216 H 0.63271 0.0481 0.70616 0.0
H2217 H 0.62523 0.99108 0.69877 0.0
H2218 H 0.59567 0.97737 0.72203 0.0
H2219 H 0.57214 0.98164 0.74484 0.0
H2220 H 0.57994 0.03873 0.75249 0.0
H2221 H 0.60937 0.05239 0.72901 0.0
C2222 C 0.62456 0.03265 0.70951 0.0
C2223 C 0.63113 0.02064 0.70067 0.0
C2224 C 0.60774 0.0249 0.72312 0.0
C2225 C 0.6205 0.00067 0.70538 0.0
C2226 C 0.6036 0.99281 0.71869 0.0
C2227 C 0.58027 -0.00295 0.74128 0.0
C2228 C 0.57394 0.00917 0.75042 0.0
C2229 C 0.59713 0.0048 0.72771 0.0
C2230 C 0.58469 0.02915 0.7459 0.0
C2231 C 0.60143 0.03695 0.73235 0.0
loop_
_geom_bond_atom_site_label_1
_geom_bond_atom_site_label_2
_geom_bond_distance
_geom_bond_site_symmetry_2
_ccdc_geom_bond_type
C0 O1 1.310 . S
C0 O3 1.160 . S
O1 C0 1.310 . S
O1 Cd2 2.225 1_556 S
Cd2 O1 2.225 1_554 S
Cd2 O6 2.273 . S
Cd2 O10 2.277 1_554 S
O3 C0 1.160 . S
O3 Cd4 2.203 1_656 S
Cd4 O3 2.203 1_454 S
Cd4 O6 2.411 1_455 S
Cd4 O7 2.333 . S
Cd4 O8 2.352 . S
Cd4 O12 2.277 1_554 S
Cd4 O13 2.356 . S
C5 O10 1.209 1_455 S
C5 O12 1.226 . S
O6 Cd2 2.273 . S
O6 Cd4 2.411 1_655 S
O6 C9 1.320 1_655 S
O7 Cd4 2.333 . S
O7 C9 1.215 . S
O8 Cd4 2.352 . S
O8 C11 1.258 . S
C9 O6 1.320 1_455 S
C9 O7 1.215 . S
O10 Cd2 2.277 1_556 S
O10 C5 1.209 1_655 S
C11 O8 1.258 . S
C11 O13 1.282 . S
O12 Cd4 2.277 1_556 S
O12 C5 1.226 . S
O13 Cd4 2.356 . S
O13 C11 1.282 . S
C14 O15 1.306 . S
C14 O17 1.160 . S
O15 C14 1.306 . S
O15 Cd16 2.228 . S
Cd16 O15 2.228 . S
Cd16 O20 2.273 1_554 S
Cd16 O24 2.277 . S
O17 C14 1.160 . S
O17 Cd18 2.203 . S
Cd18 O17 2.203 . S
Cd18 O20 2.411 1_554 S
Cd18 O21 2.333 1_554 S
Cd18 O22 2.352 1_554 S
Cd18 O26 2.277 . S
Cd18 O27 2.343 1_554 S
C19 O24 1.209 . S
C19 O26 1.226 . S
O20 Cd16 2.273 1_556 S
O20 Cd18 2.411 1_556 S
O20 C23 1.320 . S
O21 Cd18 2.333 1_556 S
O21 C23 1.214 . S
O22 Cd18 2.352 1_556 S
O22 C25 1.258 . S
C23 O20 1.320 . S
C23 O21 1.214 . S
O24 Cd16 2.277 . S
O24 C19 1.209 . S
C25 O22 1.258 . S
C25 O27 1.313 . S
O26 Cd18 2.277 . S
O26 C19 1.226 . S
O27 Cd18 2.343 1_556 S
O27 C25 1.313 . S
C28 O29 1.306 . S
C28 O31 1.160 . S
O29 C28 1.306 . S
O29 Cd30 2.228 . S
Cd30 O29 2.228 . S
Cd30 O34 2.273 1_554 S
Cd30 O38 2.277 . S
O31 C28 1.160 . S
O31 Cd32 2.203 1_565 S
Cd32 O31 2.203 1_545 S
Cd32 O34 2.411 1_544 S
Cd32 O35 2.333 1_554 S
Cd32 O36 2.352 1_554 S
Cd32 O40 2.277 . S
Cd32 O41 2.356 . S
C33 O38 1.209 1_545 S
C33 O40 1.226 . S
O34 Cd30 2.273 1_556 S
O34 Cd32 2.411 1_566 S
O34 C37 1.320 1_565 S
O35 Cd32 2.333 1_556 S
O35 C37 1.214 . S
O36 Cd32 2.352 1_556 S
O36 C39 1.258 . S
C37 O34 1.320 1_545 S
C37 O35 1.214 . S
O38 Cd30 2.277 . S
O38 C33 1.209 1_565 S
C39 O36 1.258 . S
C39 O41 1.282 1_556 S
O40 Cd32 2.277 . S
O40 C33 1.226 . S
O41 Cd32 2.356 . S
O41 C39 1.282 1_554 S
C42 O43 1.306 . S
C42 O45 1.160 . S
O43 C42 1.306 . S
O43 Cd44 2.228 1_556 S
Cd44 O43 2.228 1_554 S
Cd44 O48 2.273 . S
Cd44 O52 2.277 1_554 S
O45 C42 1.160 . S
O45 Cd46 2.203 1_656 S
Cd46 O45 2.203 1_454 S
Cd46 O48 2.411 1_455 S
Cd46 O49 2.333 . S
Cd46 O50 2.352 . S
Cd46 O54 2.277 1_554 S
Cd46 O55 2.356 . S
C47 O52 1.209 1_455 S
C47 O54 1.226 . S
O48 Cd44 2.273 . S
O48 Cd46 2.411 1_655 S
O48 C51 1.320 . S
O49 Cd46 2.333 . S
O49 C51 1.214 1_455 S
O50 Cd46 2.352 . S
O50 C53 1.258 . S
C51 O48 1.320 . S
C51 O49 1.214 1_655 S
O52 Cd44 2.277 1_556 S
O52 C47 1.209 1_655 S
C53 O50 1.258 . S
C53 O55 1.282 . S
O54 Cd46 2.277 1_556 S
O54 C47 1.226 . S
O55 Cd46 2.356 . S
O55 C53 1.282 . S
C56 O57 1.306 . S
C56 O59 1.160 . S
O57 C56 1.306 . S
O57 Cd58 2.228 . S
Cd58 O57 2.228 . S
Cd58 O62 2.273 1_554 S
Cd58 O66 2.277 . S
O59 C56 1.160 . S
O59 Cd60 2.203 . S
Cd60 O59 2.203 . S
Cd60 O62 2.411 1_554 S
Cd60 O63 2.333 1_554 S
Cd60 O64 2.352 1_554 S
Cd60 O68 2.277 . S
Cd60 O69 2.356 1_554 S
C61 O66 1.209 . S
C61 O68 1.226 . S
O62 Cd58 2.273 1_556 S
O62 Cd60 2.411 1_556 S
O62 C65 1.320 . S
O63 Cd60 2.333 1_556 S
O63 C65 1.214 . S
O64 Cd60 2.352 1_556 S
O64 C67 1.258 . S
C65 O62 1.320 . S
C65 O63 1.214 . S
O66 Cd58 2.277 . S
O66 C61 1.209 . S
C67 O64 1.258 . S
C67 O69 1.282 . S
O68 Cd60 2.277 . S
O68 C61 1.226 . S
O69 Cd60 2.356 1_556 S
O69 C67 1.282 . S
C70 O71 1.318 . S
C70 O73 1.160 . S
O71 C70 1.318 . S
O71 Cd72 2.221 1_556 S
Cd72 O71 2.221 1_554 S
Cd72 O76 2.273 . S
Cd72 O80 2.277 1_554 S
O73 C70 1.160 . S
O73 Cd74 2.203 1_546 S
Cd74 O73 2.203 1_564 S
Cd74 O76 2.411 1_565 S
Cd74 O77 2.333 . S
Cd74 O78 2.352 . S
Cd74 O82 2.277 1_554 S
Cd74 O83 2.356 . S
C75 O80 1.209 1_565 S
C75 O82 1.226 . S
O76 Cd72 2.273 . S
O76 Cd74 2.411 1_545 S
O76 C79 1.320 . S
O77 Cd74 2.333 . S
O77 C79 1.214 1_565 S
O78 Cd74 2.352 . S
O78 C81 1.258 . S
C79 O76 1.320 . S
C79 O77 1.214 1_545 S
O80 Cd72 2.277 1_556 S
O80 C75 1.209 1_545 S
C81 O78 1.258 . S
C81 O83 1.282 . S
O82 Cd74 2.277 1_556 S
O82 C75 1.226 . S
O83 Cd74 2.356 . S
O83 C81 1.282 . S
C84 O85 1.306 . S
C84 O87 1.160 . S
O85 C84 1.306 . S
O85 Cd86 2.228 . S
Cd86 O85 2.228 . S
Cd86 O90 2.273 . S
Cd86 O94 2.277 . S
O87 C84 1.160 . S
O87 Cd88 2.203 . S
Cd88 O87 2.203 . S
Cd88 O90 2.411 . S
Cd88 O91 2.333 . S
Cd88 O92 2.352 . S
Cd88 O96 2.277 . S
Cd88 O97 2.356 . S
C89 O94 1.209 . S
C89 O96 1.226 . S
O90 Cd86 2.273 . S
O90 Cd88 2.411 . S
O90 C93 1.320 . S
O91 Cd88 2.333 . S
O91 C93 1.214 . S
O92 Cd88 2.352 . S
O92 C95 1.258 . S
C93 O90 1.320 . S
C93 O91 1.214 . S
O94 Cd86 2.277 . S
O94 C89 1.209 . S
C95 O92 1.258 . S
C95 O97 1.282 . S
O96 Cd88 2.277 . S
O96 C89 1.226 . S
O97 Cd88 2.356 . S
O97 C95 1.282 . S
C98 O99 1.306 . S
C98 O101 1.160 . S
O99 C98 1.306 . S
O99 Cd100 2.228 1_545 S
Cd100 O99 2.228 1_565 S
Cd100 O104 2.273 . S
Cd100 O108 2.277 . S
O101 C98 1.160 . S
O101 Cd102 2.203 1_545 S
Cd102 O101 2.203 1_565 S
Cd102 O104 2.411 . S
Cd102 O105 2.333 . S
Cd102 O106 2.352 1_565 S
Cd102 O110 2.277 . S
Cd102 O111 2.356 . S
C103 O108 1.209 . S
C103 O110 1.226 . S
O104 Cd100 2.273 . S
O104 Cd102 2.411 . S
O104 C107 1.320 . S
O105 Cd102 2.333 . S
O105 C107 1.214 . S
O106 Cd102 2.352 1_545 S
O106 C109 1.258 1_545 S
C107 O104 1.320 . S
C107 O105 1.214 . S
O108 Cd100 2.277 . S
O108 C103 1.209 . S
C109 O106 1.258 1_565 S
C109 O111 1.282 . S
O110 Cd102 2.277 . S
O110 C103 1.226 . S
O111 Cd102 2.356 . S
O111 C109 1.282 . S
C112 O113 1.306 . S
C112 O115 1.160 . S
O113 C112 1.306 . S
O113 Cd114 2.228 1_655 S
Cd114 O113 2.228 1_455 S
Cd114 O118 2.273 . S
Cd114 O122 2.277 . S
O115 C112 1.160 . S
O115 Cd116 2.203 1_655 S
Cd116 O115 2.203 1_455 S
Cd116 O118 2.411 . S
Cd116 O119 2.333 . S
Cd116 O120 2.352 . S
Cd116 O124 2.277 . S
Cd116 O125 2.356 . S
C117 O122 1.209 . S
C117 O124 1.226 . S
O118 Cd114 2.273 . S
O118 Cd116 2.411 . S
O118 C121 1.320 . S
O119 Cd116 2.333 . S
O119 C121 1.214 . S
O120 Cd116 2.352 . S
O120 C123 1.258 . S
C121 O118 1.320 . S
C121 O119 1.214 . S
O122 Cd114 2.277 . S
O122 C117 1.209 . S
C123 O120 1.258 . S
C123 O125 1.282 . S
O124 Cd116 2.277 . S
O124 C117 1.226 . S
O125 Cd116 2.356 . S
O125 C123 1.282 . S
C126 O127 1.306 . S
C126 O129 1.160 . S
O127 C126 1.306 . S
O127 Cd128 2.228 . S
Cd128 O127 2.228 . S
Cd128 O132 2.273 . S
Cd128 O136 2.277 . S
O129 C126 1.160 . S
O129 Cd130 2.203 . S
Cd130 O129 2.203 . S
Cd130 O132 2.411 . S
Cd130 O133 2.333 . S
Cd130 O134 2.352 1_565 S
Cd130 O138 2.277 . S
Cd130 O139 2.356 1_565 S
C131 O136 1.209 . S
C131 O138 1.226 . S
O132 Cd128 2.273 . S
O132 Cd130 2.411 . S
O132 C135 1.320 . S
O133 Cd130 2.333 . S
O133 C135 1.214 . S
O134 Cd130 2.352 1_545 S
O134 C137 1.258 . S
C135 O132 1.320 . S
C135 O133 1.214 . S
O136 Cd128 2.277 . S
O136 C131 1.209 . S
C137 O134 1.258 . S
C137 O139 1.282 . S
O138 Cd130 2.277 . S
O138 C131 1.226 . S
O139 Cd130 2.356 1_545 S
O139 C137 1.282 . S
C140 O141 1.306 . S
C140 O143 1.160 . S
O141 C140 1.306 . S
O141 Cd142 2.228 1_655 S
Cd142 O141 2.228 1_455 S
Cd142 O146 2.273 . S
Cd142 O150 2.277 . S
O143 C140 1.160 . S
O143 Cd144 2.203 1_655 S
Cd144 O143 2.203 1_455 S
Cd144 O146 2.411 . S
Cd144 O147 2.333 . S
Cd144 O148 2.352 . S
Cd144 O152 2.277 . S
Cd144 O153 2.356 . S
C145 O150 1.209 . S
C145 O152 1.226 . S
O146 Cd142 2.273 . S
O146 Cd144 2.411 . S
O146 C149 1.320 . S
O147 Cd144 2.333 . S
O147 C149 1.214 . S
O148 Cd144 2.352 . S
O148 C151 1.258 . S
C149 O146 1.320 . S
C149 O147 1.214 . S
O150 Cd142 2.277 . S
O150 C145 1.209 . S
C151 O148 1.258 . S
C151 O153 1.282 . S
O152 Cd144 2.277 . S
O152 C145 1.226 . S
O153 Cd144 2.356 . S
O153 C151 1.282 . S
C154 O155 1.306 . S
C154 O157 1.160 . S
O155 C154 1.306 . S
O155 Cd156 2.228 . S
Cd156 O155 2.228 . S
Cd156 O160 2.273 . S
Cd156 O164 2.277 . S
O157 C154 1.160 . S
O157 Cd158 2.203 . S
Cd158 O157 2.203 . S
Cd158 O160 2.411 . S
Cd158 O161 2.333 . S
Cd158 O162 2.352 . S
Cd158 O166 2.277 . S
Cd158 O167 2.356 . S
C159 O164 1.209 . S
C159 O166 1.226 . S
O160 Cd156 2.273 . S
O160 Cd158 2.411 . S
O160 C163 1.320 . S
O161 Cd158 2.333 . S
O161 C163 1.214 . S
O162 Cd158 2.352 . S
O162 C165 1.258 . S
C163 O160 1.320 . S
C163 O161 1.214 . S
O164 Cd156 2.277 . S
O164 C159 1.209 . S
C165 O162 1.258 . S
C165 O167 1.282 . S
O166 Cd158 2.277 . S
O166 C159 1.226 . S
O167 Cd158 2.356 . S
O167 C165 1.282 . S
C168 O169 1.306 . S
C168 O171 1.160 . S
O169 C168 1.306 . S
O169 Cd170 2.228 1_565 S
Cd170 O169 2.228 1_545 S
Cd170 O174 2.273 . S
Cd170 O178 2.277 . S
O171 C168 1.160 . S
O171 Cd172 2.203 1_565 S
Cd172 O171 2.203 1_545 S
Cd172 O174 2.411 . S
Cd172 O175 2.333 . S
Cd172 O176 2.352 . S
Cd172 O180 2.277 . S
Cd172 O181 2.356 . S
C173 O178 1.209 . S
C173 O180 1.226 . S
O174 Cd170 2.273 . S
O174 Cd172 2.411 . S
O174 C177 1.320 . S
O175 Cd172 2.333 . S
O175 C177 1.214 . S
O176 Cd172 2.352 . S
O176 C179 1.258 . S
C177 O174 1.320 . S
C177 O175 1.214 . S
O178 Cd170 2.277 . S
O178 C173 1.209 . S
C179 O176 1.258 . S
C179 O181 1.282 . S
O180 Cd172 2.277 . S
O180 C173 1.226 . S
O181 Cd172 2.356 . S
O181 C179 1.282 . S
C182 O183 1.306 . S
C182 O185 1.160 1_655 S
O183 C182 1.306 . S
O183 Cd184 2.228 . S
Cd184 O183 2.228 . S
Cd184 O188 2.273 . S
Cd184 O192 2.277 . S
O185 C182 1.160 1_455 S
O185 Cd186 2.203 1_455 S
Cd186 O185 2.203 1_655 S
Cd186 O188 2.411 . S
Cd186 O189 2.333 . S
Cd186 O190 2.352 1_655 S
Cd186 O194 2.277 . S
Cd186 O195 2.356 1_655 S
C187 O192 1.209 . S
C187 O194 1.226 . S
O188 Cd184 2.273 . S
O188 Cd186 2.411 . S
O188 C191 1.320 . S
O189 Cd186 2.333 . S
O189 C191 1.214 . S
O190 Cd186 2.352 1_455 S
O190 C193 1.258 . S
C191 O188 1.320 . S
C191 O189 1.214 . S
O192 Cd184 2.277 . S
O192 C187 1.209 . S
C193 O190 1.258 . S
C193 O195 1.282 . S
O194 Cd186 2.277 . S
O194 C187 1.226 . S
O195 Cd186 2.356 1_455 S
O195 C193 1.282 . S
C196 O197 1.306 . S
C196 O199 1.160 . S
O197 C196 1.306 . S
O197 Cd198 2.228 . S
Cd198 O197 2.228 . S
Cd198 O202 2.273 . S
Cd198 O206 2.277 . S
O199 C196 1.160 . S
O199 Cd200 2.203 . S
Cd200 O199 2.203 . S
Cd200 O202 2.411 . S
Cd200 O203 2.333 . S
Cd200 O204 2.352 . S
Cd200 O208 2.277 . S
Cd200 O209 2.356 . S
C201 O206 1.209 . S
C201 O208 1.226 . S
O202 Cd198 2.273 . S
O202 Cd200 2.411 . S
O202 C205 1.320 . S
O203 Cd200 2.333 . S
O203 C205 1.214 . S
O204 Cd200 2.352 . S
O204 C207 1.258 . S
C205 O202 1.320 . S
C205 O203 1.214 . S
O206 Cd198 2.277 . S
O206 C201 1.209 . S
C207 O204 1.258 . S
C207 O209 1.282 . S
O208 Cd200 2.277 . S
O208 C201 1.226 . S
O209 Cd200 2.356 . S
O209 C207 1.282 . S
C210 O211 1.306 . S
C210 O213 1.160 . S
O211 C210 1.306 . S
O211 Cd212 2.228 . S
Cd212 O211 2.228 . S
Cd212 O216 2.273 . S
Cd212 O220 2.277 . S
O213 C210 1.160 . S
O213 Cd214 2.203 . S
Cd214 O213 2.203 . S
Cd214 O216 2.411 . S
Cd214 O217 2.333 . S
Cd214 O218 2.352 . S
Cd214 O222 2.277 . S
Cd214 O223 2.356 . S
C215 O220 1.209 . S
C215 O222 1.226 . S
O216 Cd212 2.273 . S
O216 Cd214 2.411 . S
O216 C219 1.320 . S
O217 Cd214 2.333 . S
O217 C219 1.214 . S
O218 Cd214 2.352 . S
O218 C221 1.258 . S
C219 O216 1.320 . S
C219 O217 1.214 . S
O220 Cd212 2.277 . S
O220 C215 1.209 . S
C221 O218 1.258 . S
C221 O223 1.282 . S
O222 Cd214 2.277 . S
O222 C215 1.226 . S
O223 Cd214 2.356 . S
O223 C221 1.282 . S
C224 O225 1.306 . S
C224 O227 1.160 . S
O225 C224 1.306 . S
O225 Cd226 2.228 . S
Cd226 O225 2.228 . S
Cd226 O230 2.273 . S
Cd226 O234 2.277 . S
O227 C224 1.160 . S
O227 Cd228 2.203 . S
Cd228 O227 2.203 . S
Cd228 O230 2.411 . S
Cd228 O231 2.333 . S
Cd228 O232 2.352 1_545 S
Cd228 O236 2.277 . S
Cd228 O237 2.356 1_545 S
C229 O234 1.209 . S
C229 O236 1.226 . S
O230 Cd226 2.273 . S
O230 Cd228 2.411 . S
O230 C233 1.320 . S
O231 Cd228 2.333 . S
O231 C233 1.214 . S
O232 Cd228 2.352 1_565 S
O232 C235 1.258 . S
C233 O230 1.320 . S
C233 O231 1.214 . S
O234 Cd226 2.277 . S
O234 C229 1.209 . S
C235 O232 1.258 . S
C235 O237 1.282 . S
O236 Cd228 2.277 . S
O236 C229 1.226 . S
O237 Cd228 2.356 1_565 S
O237 C235 1.282 . S
C238 O239 1.306 . S
C238 O241 1.160 . S
O239 C238 1.306 . S
O239 Cd240 2.228 1_455 S
Cd240 O239 2.228 1_655 S
Cd240 O244 2.273 . S
Cd240 O248 2.277 . S
O241 C238 1.160 . S
O241 Cd242 2.203 1_455 S
Cd242 O241 2.203 1_655 S
Cd242 O244 2.411 . S
Cd242 O245 2.333 . S
Cd242 O246 2.352 1_655 S
Cd242 O250 2.277 . S
Cd242 O251 2.356 . S
C243 O248 1.209 . S
C243 O250 1.226 . S
O244 Cd240 2.273 . S
O244 Cd242 2.411 . S
O244 C247 1.320 . S
O245 Cd242 2.333 . S
O245 C247 1.214 . S
O246 Cd242 2.352 1_455 S
O246 C249 1.258 1_455 S
C247 O244 1.320 . S
C247 O245 1.214 . S
O248 Cd240 2.277 . S
O248 C243 1.209 . S
C249 O246 1.258 1_655 S
C249 O251 1.282 . S
O250 Cd242 2.277 . S
O250 C243 1.226 . S
O251 Cd242 2.356 . S
O251 C249 1.282 . S
C252 C253 1.384 . S
C252 C254 1.384 . S
C252 H280 0.931 . S
C253 C252 1.384 . S
C253 C256 1.382 . S
C254 C252 1.384 . S
C254 C255 1.381 . S
C254 H281 0.930 . S
C255 C254 1.381 . S
C255 C257 1.381 . S
C255 C258 1.487 . S
C256 C253 1.382 . S
C256 C257 1.387 . S
C256 H282 0.930 . S
C257 C255 1.381 . S
C257 C256 1.387 . S
C257 H283 0.931 . S
C258 C255 1.487 . S
C258 C265 1.399 . S
C258 N296 1.343 . S
C259 C260 1.384 . S
C259 C261 1.384 . S
C259 H284 0.931 . S
C260 C259 1.384 . S
C260 C263 1.382 . S
C261 C259 1.384 . S
C261 C262 1.381 . S
C261 H285 0.930 . S
C262 C261 1.381 . S
C262 C264 1.381 . S
C262 C265 1.487 . S
C263 C260 1.382 . S
C263 C264 1.387 . S
C263 H286 0.930 . S
C264 C262 1.381 . S
C264 C263 1.387 . S
C264 H287 0.931 . S
C265 C258 1.399 . S
C265 C262 1.487 . S
C265 N297 1.343 . S
C266 C267 1.384 . S
C266 C268 1.384 . S
C266 H288 0.931 . S
C267 C266 1.384 . S
C267 C270 1.382 . S
C268 C266 1.384 . S
C268 C269 1.381 . S
C268 H289 0.930 . S
C269 C268 1.381 . S
C269 C271 1.381 . S
C269 C272 1.487 . S
C270 C267 1.382 . S
C270 C271 1.387 . S
C270 H290 0.930 . S
C271 C269 1.381 . S
C271 C270 1.387 . S
C271 H291 0.931 . S
C272 C269 1.487 . S
C272 C279 1.399 . S
C272 N297 1.343 . S
C273 C274 1.384 . S
C273 C275 1.384 . S
C273 H292 0.931 . S
C274 C273 1.384 . S
C274 C277 1.382 . S
C275 C273 1.384 . S
C275 C276 1.381 . S
C275 H293 0.930 . S
C276 C275 1.381 . S
C276 C278 1.381 . S
C276 C279 1.487 . S
C277 C274 1.382 . S
C277 C278 1.387 . S
C277 H294 0.930 . S
C278 C276 1.381 . S
C278 C277 1.387 . S
C278 H295 0.931 . S
C279 C272 1.399 . S
C279 C276 1.487 . S
C279 N296 1.343 . S
H280 C252 0.931 . S
H281 C254 0.930 . S
H282 C256 0.930 . S
H283 C257 0.931 . S
H284 C259 0.931 . S
H285 C261 0.930 . S
H286 C263 0.930 . S
H287 C264 0.931 . S
H288 C266 0.931 . S
H289 C268 0.930 . S
H290 C270 0.930 . S
H291 C271 0.931 . S
H292 C273 0.931 . S
H293 C275 0.930 . S
H294 C277 0.930 . S
H295 C278 0.931 . S
N296 C258 1.343 . S
N296 C279 1.343 . S
N297 C265 1.343 . S
N297 C272 1.343 . S
C298 C299 1.384 . S
C298 C300 1.384 . S
C298 H326 0.931 . S
C299 C298 1.384 . S
C299 C302 1.382 . S
C300 C298 1.384 . S
C300 C301 1.381 . S
C300 H327 0.930 . S
C301 C300 1.381 . S
C301 C303 1.381 . S
C301 C304 1.487 . S
C302 C299 1.382 . S
C302 C303 1.387 . S
C302 H328 0.930 . S
C303 C301 1.381 . S
C303 C302 1.387 . S
C303 H329 0.931 . S
C304 C301 1.487 . S
C304 C311 1.399 . S
C304 N342 1.343 . S
C305 C306 1.384 . S
C305 C307 1.384 . S
C305 H330 0.931 . S
C306 C305 1.384 . S
C306 C309 1.382 . S
C307 C305 1.384 . S
C307 C308 1.381 . S
C307 H331 0.930 . S
C308 C307 1.381 . S
C308 C310 1.381 . S
C308 C311 1.487 . S
C309 C306 1.382 . S
C309 C310 1.387 . S
C309 H332 0.930 . S
C310 C308 1.381 . S
C310 C309 1.387 . S
C310 H333 0.931 . S
C311 C304 1.399 . S
C311 C308 1.487 . S
C311 N343 1.343 . S
C312 C313 1.384 . S
C312 C314 1.384 . S
C312 H334 0.931 . S
C313 C312 1.384 . S
C313 C316 1.382 . S
C314 C312 1.384 . S
C314 C315 1.381 . S
C314 H335 0.930 . S
C315 C314 1.381 . S
C315 C317 1.381 . S
C315 C318 1.487 . S
C316 C313 1.382 . S
C316 C317 1.387 . S
C316 H336 0.930 . S
C317 C315 1.381 . S
C317 C316 1.387 . S
C317 H337 0.931 . S
C318 C315 1.487 . S
C318 C325 1.399 . S
C318 N343 1.343 . S
C319 C320 1.384 . S
C319 C321 1.384 . S
C319 H338 0.931 . S
C320 C319 1.384 . S
C320 C323 1.382 . S
C321 C319 1.384 . S
C321 C322 1.381 . S
C321 H339 0.930 . S
C322 C321 1.381 . S
C322 C324 1.381 . S
C322 C325 1.487 . S
C323 C320 1.382 . S
C323 C324 1.387 . S
C323 H340 0.930 . S
C324 C322 1.381 . S
C324 C323 1.387 . S
C324 H341 0.931 . S
C325 C318 1.399 . S
C325 C322 1.487 . S
C325 N342 1.343 . S
H326 C298 0.931 . S
H327 C300 0.930 . S
H328 C302 0.930 . S
H329 C303 0.931 . S
H330 C305 0.931 . S
H331 C307 0.930 . S
H332 C309 0.930 . S
H333 C310 0.931 . S
H334 C312 0.931 . S
H335 C314 0.930 . S
H336 C316 0.930 . S
H337 C317 0.931 . S
H338 C319 0.931 . S
H339 C321 0.930 . S
H340 C323 0.930 . S
H341 C324 0.931 . S
N342 C304 1.343 . S
N342 C325 1.343 . S
N343 C311 1.343 . S
N343 C318 1.343 . S
C344 C345 1.384 . S
C344 C346 1.384 . S
C344 H372 0.931 . S
C345 C344 1.384 . S
C345 C348 1.382 . S
C346 C344 1.384 . S
C346 C347 1.381 . S
C346 H373 0.930 . S
C347 C346 1.381 . S
C347 C349 1.381 . S
C347 C350 1.487 . S
C348 C345 1.382 . S
C348 C349 1.387 . S
C348 H374 0.930 . S
C349 C347 1.381 . S
C349 C348 1.387 . S
C349 H375 0.931 . S
C350 C347 1.487 . S
C350 C357 1.399 . S
C350 N388 1.343 . S
C351 C352 1.384 . S
C351 C353 1.384 . S
C351 H376 0.931 . S
C352 C351 1.384 . S
C352 C355 1.382 . S
C353 C351 1.384 . S
C353 C354 1.381 . S
C353 H377 0.930 . S
C354 C353 1.381 . S
C354 C356 1.381 . S
C354 C357 1.487 . S
C355 C352 1.382 . S
C355 C356 1.387 . S
C355 H378 0.930 . S
C356 C354 1.381 . S
C356 C355 1.387 . S
C356 H379 0.931 . S
C357 C350 1.399 . S
C357 C354 1.487 . S
C357 N389 1.343 . S
C358 C359 1.384 . S
C358 C360 1.384 . S
C358 H380 0.931 . S
C359 C358 1.384 . S
C359 C362 1.382 . S
C360 C358 1.384 . S
C360 C361 1.381 . S
C360 H381 0.930 . S
C361 C360 1.381 . S
C361 C363 1.381 . S
C361 C364 1.487 . S
C362 C359 1.382 . S
C362 C363 1.387 . S
C362 H382 0.930 . S
C363 C361 1.381 . S
C363 C362 1.387 . S
C363 H383 0.931 . S
C364 C361 1.487 . S
C364 C371 1.399 . S
C364 N389 1.343 . S
C365 C366 1.384 . S
C365 C367 1.384 . S
C365 H384 0.931 . S
C366 C365 1.384 . S
C366 C369 1.382 . S
C367 C365 1.384 . S
C367 C368 1.381 . S
C367 H385 0.930 . S
C368 C367 1.381 . S
C368 C370 1.381 . S
C368 C371 1.487 . S
C369 C366 1.382 . S
C369 C370 1.387 . S
C369 H386 0.930 . S
C370 C368 1.381 . S
C370 C369 1.387 . S
C370 H387 0.931 . S
C371 C364 1.399 . S
C371 C368 1.487 . S
C371 N388 1.343 . S
H372 C344 0.931 . S
H373 C346 0.930 . S
H374 C348 0.930 . S
H375 C349 0.931 . S
H376 C351 0.931 . S
H377 C353 0.930 . S
H378 C355 0.930 . S
H379 C356 0.931 . S
H380 C358 0.931 . S
H381 C360 0.930 . S
H382 C362 0.930 . S
H383 C363 0.931 . S
H384 C365 0.931 . S
H385 C367 0.930 . S
H386 C369 0.930 . S
H387 C370 0.931 . S
N388 C350 1.343 . S
N388 C371 1.343 . S
N389 C357 1.343 . S
N389 C364 1.343 . S
C390 C391 1.384 . S
C390 C392 1.384 . S
C390 H418 0.931 . S
C391 C390 1.384 . S
C391 C394 1.382 . S
C392 C390 1.384 . S
C392 C393 1.381 . S
C392 H419 0.930 . S
C393 C392 1.381 . S
C393 C395 1.381 . S
C393 C396 1.487 . S
C394 C391 1.382 . S
C394 C395 1.387 . S
C394 H420 0.930 . S
C395 C393 1.381 . S
C395 C394 1.387 . S
C395 H421 0.931 . S
C396 C393 1.487 . S
C396 C403 1.399 . S
C396 N434 1.343 . S
C397 C398 1.384 . S
C397 C399 1.384 . S
C397 H422 0.931 . S
C398 C397 1.384 . S
C398 C401 1.382 . S
C399 C397 1.384 . S
C399 C400 1.381 . S
C399 H423 0.930 . S
C400 C399 1.381 . S
C400 C402 1.381 . S
C400 C403 1.487 . S
C401 C398 1.382 . S
C401 C402 1.387 . S
C401 H424 0.930 . S
C402 C400 1.381 . S
C402 C401 1.387 . S
C402 H425 0.931 . S
C403 C396 1.399 . S
C403 C400 1.487 . S
C403 N435 1.343 . S
C404 C405 1.384 . S
C404 C406 1.384 . S
C404 H426 0.931 . S
C405 C404 1.384 . S
C405 C408 1.382 . S
C406 C404 1.384 . S
C406 C407 1.381 . S
C406 H427 0.930 . S
C407 C406 1.381 . S
C407 C409 1.381 . S
C407 C410 1.487 . S
C408 C405 1.382 . S
C408 C409 1.387 . S
C408 H428 0.930 . S
C409 C407 1.381 . S
C409 C408 1.387 . S
C409 H429 0.931 . S
C410 C407 1.487 . S
C410 C417 1.399 . S
C410 N435 1.343 . S
C411 C412 1.384 . S
C411 C413 1.384 . S
C411 H430 0.931 . S
C412 C411 1.384 . S
C412 C415 1.382 . S
C413 C411 1.384 . S
C413 C414 1.381 . S
C413 H431 0.930 . S
C414 C413 1.381 . S
C414 C416 1.381 . S
C414 C417 1.487 . S
C415 C412 1.382 . S
C415 C416 1.387 . S
C415 H432 0.930 . S
C416 C414 1.381 . S
C416 C415 1.387 . S
C416 H433 0.931 . S
C417 C410 1.399 . S
C417 C414 1.487 . S
C417 N434 1.343 . S
H418 C390 0.931 . S
H419 C392 0.930 . S
H420 C394 0.930 . S
H421 C395 0.931 . S
H422 C397 0.931 . S
H423 C399 0.930 . S
H424 C401 0.930 . S
H425 C402 0.931 . S
H426 C404 0.931 . S
H427 C406 0.930 . S
H428 C408 0.930 . S
H429 C409 0.931 . S
H430 C411 0.931 . S
H431 C413 0.930 . S
H432 C415 0.930 . S
H433 C416 0.931 . S
N434 C396 1.343 . S
N434 C417 1.343 . S
N435 C403 1.343 . S
N435 C410 1.343 . S
C436 C437 1.384 . S
C436 C438 1.384 . S
C436 H464 0.931 . S
C437 C436 1.384 . S
C437 C440 1.382 . S
C438 C436 1.384 . S
C438 C439 1.381 . S
C438 H465 0.930 . S
C439 C438 1.381 . S
C439 C441 1.381 . S
C439 C442 1.487 . S
C440 C437 1.382 . S
C440 C441 1.387 . S
C440 H466 0.930 . S
C441 C439 1.381 . S
C441 C440 1.387 . S
C441 H467 0.931 . S
C442 C439 1.487 . S
C442 C449 1.399 . S
C442 N480 1.343 . S
C443 C444 1.384 . S
C443 C445 1.384 . S
C443 H468 0.931 . S
C444 C443 1.384 . S
C444 C447 1.382 . S
C445 C443 1.384 . S
C445 C446 1.381 . S
C445 H469 0.930 . S
C446 C445 1.381 . S
C446 C448 1.381 . S
C446 C449 1.487 . S
C447 C444 1.382 . S
C447 C448 1.387 . S
C447 H470 0.930 . S
C448 C446 1.381 . S
C448 C447 1.387 . S
C448 H471 0.931 . S
C449 C442 1.399 . S
C449 C446 1.487 . S
C449 N481 1.343 . S
C450 C451 1.384 . S
C450 C452 1.384 . S
C450 H472 0.931 . S
C451 C450 1.384 . S
C451 C454 1.382 . S
C452 C450 1.384 . S
C452 C453 1.381 . S
C452 H473 0.930 . S
C453 C452 1.381 . S
C453 C455 1.381 . S
C453 C456 1.487 . S
C454 C451 1.382 . S
C454 C455 1.387 . S
C454 H474 0.930 . S
C455 C453 1.381 . S
C455 C454 1.387 . S
C455 H475 0.931 . S
C456 C453 1.487 . S
C456 C463 1.399 . S
C456 N481 1.343 . S
C457 C458 1.384 . S
C457 C459 1.384 . S
C457 H476 0.931 . S
C458 C457 1.384 . S
C458 C461 1.382 . S
C459 C457 1.384 . S
C459 C460 1.381 . S
C459 H477 0.930 . S
C460 C459 1.381 . S
C460 C462 1.381 . S
C460 C463 1.487 . S
C461 C458 1.382 . S
C461 C462 1.387 . S
C461 H478 0.930 . S
C462 C460 1.381 . S
C462 C461 1.387 . S
C462 H479 0.931 . S
C463 C456 1.399 . S
C463 C460 1.487 . S
C463 N480 1.343 . S
H464 C436 0.931 . S
H465 C438 0.930 . S
H466 C440 0.930 . S
H467 C441 0.931 . S
H468 C443 0.931 . S
H469 C445 0.930 . S
H470 C447 0.930 . S
H471 C448 0.931 . S
H472 C450 0.931 . S
H473 C452 0.930 . S
H474 C454 0.930 . S
H475 C455 0.931 . S
H476 C457 0.931 . S
H477 C459 0.930 . S
H478 C461 0.930 . S
H479 C462 0.931 . S
N480 C442 1.343 . S
N480 C463 1.343 . S
N481 C449 1.343 . S
N481 C456 1.343 . S
C482 C483 1.384 . S
C482 C484 1.384 . S
C482 H510 0.931 . S
C483 C482 1.384 . S
C483 C486 1.382 . S
C484 C482 1.384 . S
C484 C485 1.381 . S
C484 H511 0.930 . S
C485 C484 1.381 . S
C485 C487 1.381 . S
C485 C488 1.487 . S
C486 C483 1.382 . S
C486 C487 1.387 . S
C486 H512 0.930 . S
C487 C485 1.381 . S
C487 C486 1.387 . S
C487 H513 0.931 . S
C488 C485 1.487 . S
C488 C495 1.399 . S
C488 N526 1.343 . S
C489 C490 1.384 . S
C489 C491 1.384 . S
C489 H514 0.931 . S
C490 C489 1.384 . S
C490 C493 1.382 . S
C491 C489 1.384 . S
C491 C492 1.381 . S
C491 H515 0.930 . S
C492 C491 1.381 . S
C492 C494 1.381 . S
C492 C495 1.487 . S
C493 C490 1.382 . S
C493 C494 1.387 . S
C493 H516 0.930 . S
C494 C492 1.381 . S
C494 C493 1.387 . S
C494 H517 0.931 . S
C495 C488 1.399 . S
C495 C492 1.487 . S
C495 N527 1.343 . S
C496 C497 1.384 . S
C496 C498 1.384 . S
C496 H518 0.931 . S
C497 C496 1.384 . S
C497 C500 1.382 . S
C498 C496 1.384 . S
C498 C499 1.381 . S
C498 H519 0.930 . S
C499 C498 1.381 . S
C499 C501 1.381 . S
C499 C502 1.487 . S
C500 C497 1.382 . S
C500 C501 1.387 . S
C500 H520 0.930 . S
C501 C499 1.381 . S
C501 C500 1.387 . S
C501 H521 0.931 . S
C502 C499 1.487 . S
C502 C509 1.399 . S
C502 N527 1.343 . S
C503 C504 1.384 . S
C503 C505 1.384 . S
C503 H522 0.931 . S
C504 C503 1.384 . S
C504 C507 1.382 . S
C505 C503 1.384 . S
C505 C506 1.381 . S
C505 H523 0.930 . S
C506 C505 1.381 . S
C506 C508 1.381 . S
C506 C509 1.487 . S
C507 C504 1.382 . S
C507 C508 1.387 . S
C507 H524 0.930 . S
C508 C506 1.381 . S
C508 C507 1.387 . S
C508 H525 0.931 . S
C509 C502 1.399 . S
C509 C506 1.487 . S
C509 N526 1.343 . S
H510 C482 0.931 . S
H511 C484 0.930 . S
H512 C486 0.930 . S
H513 C487 0.931 . S
H514 C489 0.931 . S
H515 C491 0.930 . S
H516 C493 0.930 . S
H517 C494 0.931 . S
H518 C496 0.931 . S
H519 C498 0.930 . S
H520 C500 0.930 . S
H521 C501 0.931 . S
H522 C503 0.931 . S
H523 C505 0.930 . S
H524 C507 0.930 . S
H525 C508 0.931 . S
N526 C488 1.343 . S
N526 C509 1.343 . S
N527 C495 1.343 . S
N527 C502 1.343 . S
C528 C529 1.384 . S
C528 C530 1.384 . S
C528 H556 0.931 . S
C529 C528 1.384 . S
C529 C532 1.382 . S
C530 C528 1.384 . S
C530 C531 1.381 . S
C530 H557 0.930 . S
C531 C530 1.381 . S
C531 C533 1.381 . S
C531 C534 1.487 . S
C532 C529 1.382 . S
C532 C533 1.387 . S
C532 H558 0.930 . S
C533 C531 1.381 . S
C533 C532 1.387 . S
C533 H559 0.931 . S
C534 C531 1.487 . S
C534 C541 1.399 . S
C534 N572 1.343 . S
C535 C536 1.384 . S
C535 C537 1.384 . S
C535 H560 0.931 . S
C536 C535 1.384 . S
C536 C539 1.382 . S
C537 C535 1.384 . S
C537 C538 1.381 . S
C537 H561 0.930 . S
C538 C537 1.381 . S
C538 C540 1.381 . S
C538 C541 1.487 . S
C539 C536 1.382 . S
C539 C540 1.387 . S
C539 H562 0.930 . S
C540 C538 1.381 . S
C540 C539 1.387 . S
C540 H563 0.931 . S
C541 C534 1.399 . S
C541 C538 1.487 . S
C541 N573 1.343 . S
C542 C543 1.384 . S
C542 C544 1.384 . S
C542 H564 0.931 . S
C543 C542 1.384 . S
C543 C546 1.382 . S
C544 C542 1.384 . S
C544 C545 1.381 . S
C544 H565 0.930 . S
C545 C544 1.381 . S
C545 C547 1.381 . S
C545 C548 1.487 . S
C546 C543 1.382 . S
C546 C547 1.387 . S
C546 H566 0.930 . S
C547 C545 1.381 . S
C547 C546 1.387 . S
C547 H567 0.931 . S
C548 C545 1.487 . S
C548 C555 1.399 . S
C548 N573 1.343 . S
C549 C550 1.384 . S
C549 C551 1.384 . S
C549 H568 0.931 . S
C550 C549 1.384 . S
C550 C553 1.382 . S
C551 C549 1.384 . S
C551 C552 1.381 . S
C551 H569 0.930 . S
C552 C551 1.381 . S
C552 C554 1.381 . S
C552 C555 1.487 . S
C553 C550 1.382 . S
C553 C554 1.387 . S
C553 H570 0.930 . S
C554 C552 1.381 . S
C554 C553 1.387 . S
C554 H571 0.931 . S
C555 C548 1.399 . S
C555 C552 1.487 . S
C555 N572 1.343 . S
H556 C528 0.931 . S
H557 C530 0.930 . S
H558 C532 0.930 . S
H559 C533 0.931 . S
H560 C535 0.931 . S
H561 C537 0.930 . S
H562 C539 0.930 . S
H563 C540 0.931 . S
H564 C542 0.931 . S
H565 C544 0.930 . S
H566 C546 0.930 . S
H567 C547 0.931 . S
H568 C549 0.931 . S
H569 C551 0.930 . S
H570 C553 0.930 . S
H571 C554 0.931 . S
N572 C534 1.343 . S
N572 C555 1.343 . S
N573 C541 1.343 . S
N573 C548 1.343 . S
C574 C575 1.384 . S
C574 C576 1.384 . S
C574 H602 0.931 . S
C575 C574 1.384 . S
C575 C578 1.382 . S
C576 C574 1.384 . S
C576 C577 1.381 . S
C576 H603 0.930 . S
C577 C576 1.381 . S
C577 C579 1.381 . S
C577 C580 1.487 . S
C578 C575 1.382 . S
C578 C579 1.387 . S
C578 H604 0.930 . S
C579 C577 1.381 . S
C579 C578 1.387 . S
C579 H605 0.931 . S
C580 C577 1.487 . S
C580 C587 1.399 . S
C580 N618 1.343 . S
C581 C582 1.384 . S
C581 C583 1.384 . S
C581 H606 0.931 . S
C582 C581 1.384 . S
C582 C585 1.382 . S
C583 C581 1.384 . S
C583 C584 1.381 . S
C583 H607 0.930 . S
C584 C583 1.381 . S
C584 C586 1.381 . S
C584 C587 1.487 . S
C585 C582 1.382 . S
C585 C586 1.387 . S
C585 H608 0.930 . S
C586 C584 1.381 . S
C586 C585 1.387 . S
C586 H609 0.931 . S
C587 C580 1.399 . S
C587 C584 1.487 . S
C587 N619 1.343 . S
C588 C589 1.384 . S
C588 C590 1.384 . S
C588 H610 0.931 . S
C589 C588 1.384 . S
C589 C592 1.382 . S
C590 C588 1.384 . S
C590 C591 1.381 . S
C590 H611 0.930 . S
C591 C590 1.381 . S
C591 C593 1.381 . S
C591 C594 1.487 . S
C592 C589 1.382 . S
C592 C593 1.387 . S
C592 H612 0.930 . S
C593 C591 1.381 . S
C593 C592 1.387 . S
C593 H613 0.931 . S
C594 C591 1.487 . S
C594 C601 1.399 . S
C594 N619 1.343 . S
C595 C596 1.384 . S
C595 C597 1.384 . S
C595 H614 0.931 . S
C596 C595 1.384 . S
C596 C599 1.382 . S
C597 C595 1.384 . S
C597 C598 1.381 . S
C597 H615 0.930 . S
C598 C597 1.381 . S
C598 C600 1.381 . S
C598 C601 1.487 . S
C599 C596 1.382 . S
C599 C600 1.387 . S
C599 H616 0.930 . S
C600 C598 1.381 . S
C600 C599 1.387 . S
C600 H617 0.931 . S
C601 C594 1.399 . S
C601 C598 1.487 . S
C601 N618 1.343 . S
H602 C574 0.931 . S
H603 C576 0.930 . S
H604 C578 0.930 . S
H605 C579 0.931 . S
H606 C581 0.931 . S
H607 C583 0.930 . S
H608 C585 0.930 . S
H609 C586 0.931 . S
H610 C588 0.931 . S
H611 C590 0.930 . S
H612 C592 0.930 . S
H613 C593 0.931 . S
H614 C595 0.931 . S
H615 C597 0.930 . S
H616 C599 0.930 . S
H617 C600 0.931 . S
N618 C580 1.343 . S
N618 C601 1.343 . S
N619 C587 1.343 . S
N619 C594 1.343 . S
C620 C621 1.384 . S
C620 C622 1.384 . S
C620 H648 0.931 . S
C621 C620 1.384 . S
C621 C624 1.382 . S
C622 C620 1.384 . S
C622 C623 1.381 . S
C622 H649 0.930 . S
C623 C622 1.381 . S
C623 C625 1.381 . S
C623 C626 1.487 . S
C624 C621 1.382 . S
C624 C625 1.387 . S
C624 H650 0.930 . S
C625 C623 1.381 . S
C625 C624 1.387 . S
C625 H651 0.931 . S
C626 C623 1.487 . S
C626 C633 1.399 . S
C626 N664 1.343 . S
C627 C628 1.384 . S
C627 C629 1.384 . S
C627 H652 0.931 . S
C628 C627 1.384 . S
C628 C631 1.382 . S
C629 C627 1.384 . S
C629 C630 1.381 . S
C629 H653 0.930 . S
C630 C629 1.381 . S
C630 C632 1.381 . S
C630 C633 1.487 . S
C631 C628 1.382 . S
C631 C632 1.387 . S
C631 H654 0.930 . S
C632 C630 1.381 . S
C632 C631 1.387 . S
C632 H655 0.931 . S
C633 C626 1.399 . S
C633 C630 1.487 . S
C633 N665 1.343 . S
C634 C635 1.384 . S
C634 C636 1.384 . S
C634 H656 0.931 . S
C635 C634 1.384 . S
C635 C638 1.382 . S
C636 C634 1.384 . S
C636 C637 1.381 . S
C636 H657 0.930 . S
C637 C636 1.381 . S
C637 C639 1.381 . S
C637 C640 1.487 . S
C638 C635 1.382 . S
C638 C639 1.387 . S
C638 H658 0.930 . S
C639 C637 1.381 . S
C639 C638 1.387 . S
C639 H659 0.931 . S
C640 C637 1.487 . S
C640 C647 1.399 . S
C640 N665 1.343 . S
C641 C642 1.384 . S
C641 C643 1.384 . S
C641 H660 0.931 . S
C642 C641 1.384 . S
C642 C645 1.382 . S
C643 C641 1.384 . S
C643 C644 1.381 . S
C643 H661 0.930 . S
C644 C643 1.381 . S
C644 C646 1.381 . S
C644 C647 1.487 . S
C645 C642 1.382 . S
C645 C646 1.387 . S
C645 H662 0.930 . S
C646 C644 1.381 . S
C646 C645 1.387 . S
C646 H663 0.931 . S
C647 C640 1.399 . S
C647 C644 1.487 . S
C647 N664 1.343 . S
H648 C620 0.931 . S
H649 C622 0.930 . S
H650 C624 0.930 . S
H651 C625 0.931 . S
H652 C627 0.931 . S
H653 C629 0.930 . S
H654 C631 0.930 . S
H655 C632 0.931 . S
H656 C634 0.931 . S
H657 C636 0.930 . S
H658 C638 0.930 . S
H659 C639 0.931 . S
H660 C641 0.931 . S
H661 C643 0.930 . S
H662 C645 0.930 . S
H663 C646 0.931 . S
N664 C626 1.343 . S
N664 C647 1.343 . S
N665 C633 1.343 . S
N665 C640 1.343 . S
C666 C667 1.384 . S
C666 C668 1.384 . S
C666 H694 0.931 . S
C667 C666 1.384 . S
C667 C670 1.382 1_655 S
C668 C666 1.384 . S
C668 C669 1.407 . S
C668 H695 0.930 . S
C669 C668 1.407 . S
C669 C671 1.369 1_655 S
C669 C672 1.472 1_655 S
C670 C667 1.382 1_455 S
C670 C671 1.387 . S
C670 H696 0.930 . S
C671 C669 1.369 1_455 S
C671 C670 1.387 . S
C671 H697 0.931 . S
C672 C669 1.472 1_455 S
C672 C679 1.399 1_455 S
C672 N710 1.316 . S
C673 C674 1.384 . S
C673 C675 1.384 . S
C673 H698 0.931 . S
C674 C673 1.384 . S
C674 C677 1.382 1_455 S
C675 C673 1.384 . S
C675 C676 1.382 . S
C675 H699 0.930 . S
C676 C675 1.382 . S
C676 C678 1.378 1_455 S
C676 C679 1.493 1_455 S
C677 C674 1.382 1_655 S
C677 C678 1.387 . S
C677 H700 0.930 . S
C678 C676 1.378 1_655 S
C678 C677 1.387 . S
C678 H701 0.931 . S
C679 C672 1.399 1_655 S
C679 C676 1.493 1_655 S
C679 N711 1.361 . S
C680 C681 1.384 . S
C680 C682 1.384 . S
C680 H702 0.931 . S
C681 C680 1.384 . S
C681 C684 1.382 1_455 S
C682 C680 1.384 . S
C682 C683 1.422 . S
C682 H703 0.930 . S
C683 C682 1.422 . S
C683 C685 1.361 1_455 S
C683 C686 1.465 . S
C684 C681 1.382 1_655 S
C684 C685 1.387 . S
C684 H704 0.930 . S
C685 C683 1.361 1_655 S
C685 C684 1.387 . S
C685 H705 0.931 . S
C686 C683 1.465 . S
C686 C693 1.399 . S
C686 N711 1.323 1_455 S
C687 C688 1.384 . S
C687 C689 1.384 . S
C687 H706 0.931 . S
C688 C687 1.384 . S
C688 C691 1.382 1_655 S
C689 C687 1.384 . S
C689 C690 1.382 1_655 S
C689 H707 0.930 . S
C690 C689 1.382 1_455 S
C690 C692 1.378 . S
C690 C693 1.500 . S
C691 C688 1.382 1_455 S
C691 C692 1.387 . S
C691 H708 0.930 . S
C692 C690 1.378 . S
C692 C691 1.387 . S
C692 H709 0.931 . S
C693 C686 1.399 . S
C693 C690 1.500 . S
C693 N710 1.361 . S
H694 C666 0.931 . S
H695 C668 0.930 . S
H696 C670 0.930 . S
H697 C671 0.931 . S
H698 C673 0.931 . S
H699 C675 0.930 . S
H700 C677 0.930 . S
H701 C678 0.931 . S
H702 C680 0.931 . S
H703 C682 0.930 . S
H704 C684 0.930 . S
H705 C685 0.931 . S
H706 C687 0.931 . S
H707 C689 0.930 . S
H708 C691 0.930 . S
H709 C692 0.931 . S
N710 C672 1.316 . S
N710 C693 1.361 . S
N711 C679 1.361 . S
N711 C686 1.323 1_655 S
C712 C713 1.384 . S
C712 C714 1.384 . S
C712 H740 0.931 . S
C713 C712 1.384 . S
C713 C716 1.382 . S
C714 C712 1.384 . S
C714 C715 1.381 . S
C714 H741 0.930 . S
C715 C714 1.381 . S
C715 C717 1.381 . S
C715 C718 1.487 . S
C716 C713 1.382 . S
C716 C717 1.387 . S
C716 H742 0.930 . S
C717 C715 1.381 . S
C717 C716 1.387 . S
C717 H743 0.931 . S
C718 C715 1.487 . S
C718 C725 1.399 . S
C718 N756 1.343 . S
C719 C720 1.384 . S
C719 C721 1.384 . S
C719 H744 0.931 . S
C720 C719 1.384 . S
C720 C723 1.382 . S
C721 C719 1.384 . S
C721 C722 1.381 . S
C721 H745 0.930 . S
C722 C721 1.381 . S
C722 C724 1.381 . S
C722 C725 1.487 . S
C723 C720 1.382 . S
C723 C724 1.387 . S
C723 H746 0.930 . S
C724 C722 1.381 . S
C724 C723 1.387 . S
C724 H747 0.931 . S
C725 C718 1.399 . S
C725 C722 1.487 . S
C725 N757 1.343 . S
C726 C727 1.384 . S
C726 C728 1.384 . S
C726 H748 0.931 . S
C727 C726 1.384 . S
C727 C730 1.382 . S
C728 C726 1.384 . S
C728 C729 1.381 . S
C728 H749 0.930 . S
C729 C728 1.381 . S
C729 C731 1.381 . S
C729 C732 1.487 . S
C730 C727 1.382 . S
C730 C731 1.387 . S
C730 H750 0.930 . S
C731 C729 1.381 . S
C731 C730 1.387 . S
C731 H751 0.931 . S
C732 C729 1.487 . S
C732 C739 1.399 . S
C732 N757 1.343 . S
C733 C734 1.384 . S
C733 C735 1.384 . S
C733 H752 0.931 . S
C734 C733 1.384 . S
C734 C737 1.382 . S
C735 C733 1.384 . S
C735 C736 1.381 . S
C735 H753 0.930 . S
C736 C735 1.381 . S
C736 C738 1.381 . S
C736 C739 1.487 . S
C737 C734 1.382 . S
C737 C738 1.387 . S
C737 H754 0.930 . S
C738 C736 1.381 . S
C738 C737 1.387 . S
C738 H755 0.931 . S
C739 C732 1.399 . S
C739 C736 1.487 . S
C739 N756 1.343 . S
H740 C712 0.931 . S
H741 C714 0.930 . S
H742 C716 0.930 . S
H743 C717 0.931 . S
H744 C719 0.931 . S
H745 C721 0.930 . S
H746 C723 0.930 . S
H747 C724 0.931 . S
H748 C726 0.931 . S
H749 C728 0.930 . S
H750 C730 0.930 . S
H751 C731 0.931 . S
H752 C733 0.931 . S
H753 C735 0.930 . S
H754 C737 0.930 . S
H755 C738 0.931 . S
N756 C718 1.343 . S
N756 C739 1.343 . S
N757 C725 1.343 . S
N757 C732 1.343 . S
C758 C759 1.384 1_545 S
C758 C760 1.384 . S
C758 H786 0.931 . S
C759 C758 1.384 1_565 S
C759 C762 1.382 . S
C760 C758 1.384 . S
C760 C761 1.381 1_545 S
C760 H787 0.930 . S
C761 C760 1.381 1_565 S
C761 C763 1.381 . S
C761 C764 1.487 . S
C762 C759 1.382 . S
C762 C763 1.387 . S
C762 H788 0.930 . S
C763 C761 1.381 . S
C763 C762 1.387 . S
C763 H789 0.931 . S
C764 C761 1.487 . S
C764 C771 1.399 1_565 S
C764 N802 1.343 . S
C765 C766 1.384 1_565 S
C765 C767 1.384 . S
C765 H790 0.931 . S
C766 C765 1.384 1_545 S
C766 C769 1.382 . S
C767 C765 1.384 . S
C767 C768 1.381 1_565 S
C767 H791 0.930 . S
C768 C767 1.381 1_545 S
C768 C770 1.381 . S
C768 C771 1.487 . S
C769 C766 1.382 . S
C769 C770 1.387 . S
C769 H792 0.930 . S
C770 C768 1.381 . S
C770 C769 1.387 . S
C770 H793 0.931 . S
C771 C764 1.399 1_545 S
C771 C768 1.487 . S
C771 N803 1.343 . S
C772 C773 1.384 1_565 S
C772 C774 1.384 . S
C772 H794 0.931 . S
C773 C772 1.384 1_545 S
C773 C776 1.382 . S
C774 C772 1.384 . S
C774 C775 1.381 1_565 S
C774 H795 0.930 . S
C775 C774 1.381 1_545 S
C775 C777 1.381 . S
C775 C778 1.487 . S
C776 C773 1.382 . S
C776 C777 1.387 . S
C776 H796 0.930 . S
C777 C775 1.381 . S
C777 C776 1.387 . S
C777 H797 0.931 . S
C778 C775 1.487 . S
C778 C785 1.399 1_545 S
C778 N803 1.343 . S
C779 C780 1.384 1_545 S
C779 C781 1.384 . S
C779 H798 0.931 . S
C780 C779 1.384 1_565 S
C780 C783 1.382 . S
C781 C779 1.384 . S
C781 C782 1.381 1_545 S
C781 H799 0.930 . S
C782 C781 1.381 1_565 S
C782 C784 1.381 . S
C782 C785 1.487 . S
C783 C780 1.382 . S
C783 C784 1.387 . S
C783 H800 0.930 . S
C784 C782 1.381 . S
C784 C783 1.387 . S
C784 H801 0.931 . S
C785 C778 1.399 1_565 S
C785 C782 1.487 . S
C785 N802 1.343 . S
H786 C758 0.931 . S
H787 C760 0.930 . S
H788 C762 0.930 . S
H789 C763 0.931 . S
H790 C765 0.931 . S
H791 C767 0.930 . S
H792 C769 0.930 . S
H793 C770 0.931 . S
H794 C772 0.931 . S
H795 C774 0.930 . S
H796 C776 0.930 . S
H797 C777 0.931 . S
H798 C779 0.931 . S
H799 C781 0.930 . S
H800 C783 0.930 . S
H801 C784 0.931 . S
N802 C764 1.343 . S
N802 C785 1.343 . S
N803 C771 1.343 . S
N803 C778 1.343 . S
C804 C805 1.384 . S
C804 C806 1.384 . S
C804 H832 0.931 . S
C805 C804 1.384 . S
C805 C808 1.382 1_545 S
C806 C804 1.384 . S
C806 C807 1.381 . S
C806 H833 0.930 . S
C807 C806 1.381 . S
C807 C809 1.382 1_545 S
C807 C810 1.492 1_545 S
C808 C805 1.382 1_565 S
C808 C809 1.387 . S
C808 H834 0.930 . S
C809 C807 1.382 1_565 S
C809 C808 1.387 . S
C809 H835 0.931 . S
C810 C807 1.492 1_565 S
C810 C817 1.399 1_565 S
C810 N848 1.363 . S
C811 C812 1.384 . S
C811 C813 1.384 . S
C811 H836 0.931 . S
C812 C811 1.384 . S
C812 C815 1.382 1_565 S
C813 C811 1.384 . S
C813 C814 1.396 . S
C813 H837 0.930 . S
C814 C813 1.396 . S
C814 C816 1.374 1_565 S
C814 C817 1.475 1_565 S
C815 C812 1.382 1_545 S
C815 C816 1.387 . S
C815 H838 0.930 . S
C816 C814 1.374 1_545 S
C816 C815 1.387 . S
C816 H839 0.931 . S
C817 C810 1.399 1_545 S
C817 C814 1.475 1_545 S
C817 N849 1.349 . S
C818 C819 1.384 . S
C818 C820 1.384 . S
C818 H840 0.931 . S
C819 C818 1.384 . S
C819 C822 1.382 1_565 S
C820 C818 1.384 . S
C820 C821 1.381 1_565 S
C820 H841 0.930 . S
C821 C820 1.381 1_545 S
C821 C823 1.382 . S
C821 C824 1.498 . S
C822 C819 1.382 1_545 S
C822 C823 1.387 . S
C822 H842 0.930 . S
C823 C821 1.382 . S
C823 C822 1.387 . S
C823 H843 0.931 . S
C824 C821 1.498 . S
C824 C831 1.399 1_545 S
C824 N849 1.331 . S
C825 C826 1.384 . S
C825 C827 1.384 . S
C825 H844 0.931 . S
C826 C825 1.384 . S
C826 C829 1.382 1_545 S
C827 C825 1.384 . S
C827 C828 1.410 . S
C827 H845 0.930 . S
C828 C827 1.410 . S
C828 C830 1.367 1_545 S
C828 C831 1.475 1_545 S
C829 C826 1.382 1_565 S
C829 C830 1.387 . S
C829 H846 0.930 . S
C830 C828 1.367 1_565 S
C830 C829 1.387 . S
C830 H847 0.931 . S
C831 C824 1.399 1_565 S
C831 C828 1.475 1_565 S
C831 N848 1.315 . S
H832 C804 0.931 . S
H833 C806 0.930 . S
H834 C808 0.930 . S
H835 C809 0.931 . S
H836 C811 0.931 . S
H837 C813 0.930 . S
H838 C815 0.930 . S
H839 C816 0.931 . S
H840 C818 0.931 . S
H841 C820 0.930 . S
H842 C822 0.930 . S
H843 C823 0.931 . S
H844 C825 0.931 . S
H845 C827 0.930 . S
H846 C829 0.930 . S
H847 C830 0.931 . S
N848 C810 1.363 . S
N848 C831 1.315 . S
N849 C817 1.349 . S
N849 C824 1.331 . S
C850 C851 1.384 . S
C850 C852 1.384 . S
C850 H878 0.931 . S
C851 C850 1.384 . S
C851 C854 1.382 1_655 S
C852 C850 1.384 . S
C852 C853 1.411 . S
C852 H879 0.930 . S
C853 C852 1.411 . S
C853 C855 1.366 1_655 S
C853 C856 1.475 1_655 S
C854 C851 1.382 1_455 S
C854 C855 1.387 . S
C854 H880 0.930 . S
C855 C853 1.366 1_455 S
C855 C854 1.387 . S
C855 H881 0.931 . S
C856 C853 1.475 1_455 S
C856 C863 1.399 1_455 S
C856 N894 1.315 . S
C857 C858 1.384 . S
C857 C859 1.384 . S
C857 H882 0.931 . S
C858 C857 1.384 . S
C858 C861 1.382 1_455 S
C859 C857 1.384 . S
C859 C860 1.382 1_455 S
C859 H883 0.930 . S
C860 C859 1.382 1_655 S
C860 C862 1.380 . S
C860 C863 1.499 . S
C861 C858 1.382 1_655 S
C861 C862 1.387 . S
C861 H884 0.930 . S
C862 C860 1.380 . S
C862 C861 1.387 . S
C862 H885 0.931 . S
C863 C856 1.399 1_655 S
C863 C860 1.499 . S
C863 N895 1.332 . S
C864 C865 1.384 . S
C864 C866 1.384 . S
C864 H886 0.931 . S
C865 C864 1.384 . S
C865 C868 1.382 1_455 S
C866 C864 1.384 . S
C866 C867 1.396 . S
C866 H887 0.930 . S
C867 C866 1.396 . S
C867 C869 1.374 1_455 S
C867 C870 1.475 1_455 S
C868 C865 1.382 1_655 S
C868 C869 1.387 . S
C868 H888 0.930 . S
C869 C867 1.374 1_655 S
C869 C868 1.387 . S
C869 H889 0.931 . S
C870 C867 1.475 1_655 S
C870 C877 1.399 1_655 S
C870 N895 1.349 . S
C871 C872 1.384 . S
C871 C873 1.384 . S
C871 H890 0.931 . S
C872 C871 1.384 . S
C872 C875 1.382 1_655 S
C873 C871 1.384 . S
C873 C874 1.382 . S
C873 H891 0.930 . S
C874 C873 1.382 . S
C874 C876 1.380 1_655 S
C874 C877 1.492 1_655 S
C875 C872 1.382 1_455 S
C875 C876 1.387 . S
C875 H892 0.930 . S
C876 C874 1.380 1_455 S
C876 C875 1.387 . S
C876 H893 0.931 . S
C877 C870 1.399 1_455 S
C877 C874 1.492 1_455 S
C877 N894 1.363 . S
H878 C850 0.931 . S
H879 C852 0.930 . S
H880 C854 0.930 . S
H881 C855 0.931 . S
H882 C857 0.931 . S
H883 C859 0.930 . S
H884 C861 0.930 . S
H885 C862 0.931 . S
H886 C864 0.931 . S
H887 C866 0.930 . S
H888 C868 0.930 . S
H889 C869 0.931 . S
H890 C871 0.931 . S
H891 C873 0.930 . S
H892 C875 0.930 . S
H893 C876 0.931 . S
N894 C856 1.315 . S
N894 C877 1.363 . S
N895 C863 1.332 . S
N895 C870 1.349 . S
C896 C897 1.384 . S
C896 C898 1.384 . S
C896 H924 0.931 . S
C897 C896 1.384 . S
C897 C900 1.382 . S
C898 C896 1.384 . S
C898 C899 1.381 . S
C898 H925 0.930 . S
C899 C898 1.381 . S
C899 C901 1.381 . S
C899 C902 1.487 . S
C900 C897 1.382 . S
C900 C901 1.387 . S
C900 H926 0.930 . S
C901 C899 1.381 . S
C901 C900 1.387 . S
C901 H927 0.931 . S
C902 C899 1.487 . S
C902 C909 1.399 . S
C902 N940 1.343 . S
C903 C904 1.384 . S
C903 C905 1.384 . S
C903 H928 0.931 . S
C904 C903 1.384 . S
C904 C907 1.382 . S
C905 C903 1.384 . S
C905 C906 1.381 . S
C905 H929 0.930 . S
C906 C905 1.381 . S
C906 C908 1.381 . S
C906 C909 1.487 . S
C907 C904 1.382 . S
C907 C908 1.387 . S
C907 H930 0.930 . S
C908 C906 1.381 . S
C908 C907 1.387 . S
C908 H931 0.931 . S
C909 C902 1.399 . S
C909 C906 1.487 . S
C909 N941 1.343 . S
C910 C911 1.384 . S
C910 C912 1.384 . S
C910 H932 0.931 . S
C911 C910 1.384 . S
C911 C914 1.382 . S
C912 C910 1.384 . S
C912 C913 1.381 . S
C912 H933 0.930 . S
C913 C912 1.381 . S
C913 C915 1.381 . S
C913 C916 1.487 . S
C914 C911 1.382 . S
C914 C915 1.387 . S
C914 H934 0.930 . S
C915 C913 1.381 . S
C915 C914 1.387 . S
C915 H935 0.931 . S
C916 C913 1.487 . S
C916 C923 1.399 . S
C916 N941 1.343 . S
C917 C918 1.384 . S
C917 C919 1.384 . S
C917 H936 0.931 . S
C918 C917 1.384 . S
C918 C921 1.382 . S
C919 C917 1.384 . S
C919 C920 1.381 . S
C919 H937 0.930 . S
C920 C919 1.381 . S
C920 C922 1.381 . S
C920 C923 1.487 . S
C921 C918 1.382 . S
C921 C922 1.387 . S
C921 H938 0.930 . S
C922 C920 1.381 . S
C922 C921 1.387 . S
C922 H939 0.931 . S
C923 C916 1.399 . S
C923 C920 1.487 . S
C923 N940 1.343 . S
H924 C896 0.931 . S
H925 C898 0.930 . S
H926 C900 0.930 . S
H927 C901 0.931 . S
H928 C903 0.931 . S
H929 C905 0.930 . S
H930 C907 0.930 . S
H931 C908 0.931 . S
H932 C910 0.931 . S
H933 C912 0.930 . S
H934 C914 0.930 . S
H935 C915 0.931 . S
H936 C917 0.931 . S
H937 C919 0.930 . S
H938 C921 0.930 . S
H939 C922 0.931 . S
N940 C902 1.343 . S
N940 C923 1.343 . S
N941 C909 1.343 . S
N941 C916 1.343 . S
C942 C943 1.384 . S
C942 C944 1.384 . S
C942 H970 0.931 . S
C943 C942 1.384 . S
C943 C946 1.382 . S
C944 C942 1.384 . S
C944 C945 1.381 . S
C944 H971 0.930 . S
C945 C944 1.381 . S
C945 C947 1.381 . S
C945 C948 1.487 . S
C946 C943 1.382 . S
C946 C947 1.387 . S
C946 H972 0.930 . S
C947 C945 1.381 . S
C947 C946 1.387 . S
C947 H973 0.931 . S
C948 C945 1.487 . S
C948 C955 1.399 . S
C948 N986 1.343 . S
C949 C950 1.384 . S
C949 C951 1.384 . S
C949 H974 0.931 . S
C950 C949 1.384 . S
C950 C953 1.382 . S
C951 C949 1.384 . S
C951 C952 1.381 . S
C951 H975 0.930 . S
C952 C951 1.381 . S
C952 C954 1.381 . S
C952 C955 1.487 . S
C953 C950 1.382 . S
C953 C954 1.387 . S
C953 H976 0.930 . S
C954 C952 1.381 . S
C954 C953 1.387 . S
C954 H977 0.931 . S
C955 C948 1.399 . S
C955 C952 1.487 . S
C955 N987 1.343 . S
C956 C957 1.384 . S
C956 C958 1.384 . S
C956 H978 0.931 . S
C957 C956 1.384 . S
C957 C960 1.382 . S
C958 C956 1.384 . S
C958 C959 1.381 . S
C958 H979 0.930 . S
C959 C958 1.381 . S
C959 C961 1.381 . S
C959 C962 1.487 . S
C960 C957 1.382 . S
C960 C961 1.387 . S
C960 H980 0.930 . S
C961 C959 1.381 . S
C961 C960 1.387 . S
C961 H981 0.931 . S
C962 C959 1.487 . S
C962 C969 1.399 . S
C962 N987 1.343 . S
C963 C964 1.384 . S
C963 C965 1.384 . S
C963 H982 0.931 . S
C964 C963 1.384 . S
C964 C967 1.382 . S
C965 C963 1.384 . S
C965 C966 1.381 . S
C965 H983 0.930 . S
C966 C965 1.381 . S
C966 C968 1.381 . S
C966 C969 1.487 . S
C967 C964 1.382 . S
C967 C968 1.387 . S
C967 H984 0.930 . S
C968 C966 1.381 . S
C968 C967 1.387 . S
C968 H985 0.931 . S
C969 C962 1.399 . S
C969 C966 1.487 . S
C969 N986 1.343 . S
H970 C942 0.931 . S
H971 C944 0.930 . S
H972 C946 0.930 . S
H973 C947 0.931 . S
H974 C949 0.931 . S
H975 C951 0.930 . S
H976 C953 0.930 . S
H977 C954 0.931 . S
H978 C956 0.931 . S
H979 C958 0.930 . S
H980 C960 0.930 . S
H981 C961 0.931 . S
H982 C963 0.931 . S
H983 C965 0.930 . S
H984 C967 0.930 . S
H985 C968 0.931 . S
N986 C948 1.343 . S
N986 C969 1.343 . S
N987 C955 1.343 . S
N987 C962 1.343 . S
C988 C989 1.384 . S
C988 C990 1.384 . S
C988 H1016 0.931 . S
C989 C988 1.384 . S
C989 C992 1.382 . S
C990 C988 1.384 . S
C990 C991 1.381 . S
C990 H1017 0.930 . S
C991 C990 1.381 . S
C991 C993 1.381 . S
C991 C994 1.487 . S
C992 C989 1.382 . S
C992 C993 1.387 . S
C992 H1018 0.930 . S
C993 C991 1.381 . S
C993 C992 1.387 . S
C993 H1019 0.931 . S
C994 C991 1.487 . S
C994 C1001 1.399 . S
C994 N1032 1.343 . S
C995 C996 1.384 . S
C995 C997 1.384 . S
C995 H1020 0.931 . S
C996 C995 1.384 . S
C996 C999 1.382 . S
C997 C995 1.384 . S
C997 C998 1.381 . S
C997 H1021 0.930 . S
C998 C997 1.381 . S
C998 C1000 1.381 . S
C998 C1001 1.487 . S
C999 C996 1.382 . S
C999 C1000 1.387 . S
C999 H1022 0.930 . S
C1000 C998 1.381 . S
C1000 C999 1.387 . S
C1000 H1023 0.931 . S
C1001 C994 1.399 . S
C1001 C998 1.487 . S
C1001 N1033 1.343 . S
C1002 C1003 1.384 . S
C1002 C1004 1.384 . S
C1002 H1024 0.931 . S
C1003 C1002 1.384 . S
C1003 C1006 1.382 . S
C1004 C1002 1.384 . S
C1004 C1005 1.381 . S
C1004 H1025 0.930 . S
C1005 C1004 1.381 . S
C1005 C1007 1.381 . S
C1005 C1008 1.487 . S
C1006 C1003 1.382 . S
C1006 C1007 1.387 . S
C1006 H1026 0.930 . S
C1007 C1005 1.381 . S
C1007 C1006 1.387 . S
C1007 H1027 0.931 . S
C1008 C1005 1.487 . S
C1008 C1015 1.399 . S
C1008 N1033 1.343 . S
C1009 C1010 1.384 . S
C1009 C1011 1.384 . S
C1009 H1028 0.931 . S
C1010 C1009 1.384 . S
C1010 C1013 1.382 . S
C1011 C1009 1.384 . S
C1011 C1012 1.381 . S
C1011 H1029 0.930 . S
C1012 C1011 1.381 . S
C1012 C1014 1.381 . S
C1012 C1015 1.487 . S
C1013 C1010 1.382 . S
C1013 C1014 1.387 . S
C1013 H1030 0.930 . S
C1014 C1012 1.381 . S
C1014 C1013 1.387 . S
C1014 H1031 0.931 . S
C1015 C1008 1.399 . S
C1015 C1012 1.487 . S
C1015 N1032 1.343 . S
H1016 C988 0.931 . S
H1017 C990 0.930 . S
H1018 C992 0.930 . S
H1019 C993 0.931 . S
H1020 C995 0.931 . S
H1021 C997 0.930 . S
H1022 C999 0.930 . S
H1023 C1000 0.931 . S
H1024 C1002 0.931 . S
H1025 C1004 0.930 . S
H1026 C1006 0.930 . S
H1027 C1007 0.931 . S
H1028 C1009 0.931 . S
H1029 C1011 0.930 . S
H1030 C1013 0.930 . S
H1031 C1014 0.931 . S
N1032 C994 1.343 . S
N1032 C1015 1.343 . S
N1033 C1001 1.343 . S
N1033 C1008 1.343 . S
C1034 C1035 1.384 . S
C1034 C1036 1.384 . S
C1034 H1062 0.931 . S
C1035 C1034 1.384 . S
C1035 C1038 1.382 . S
C1036 C1034 1.384 . S
C1036 C1037 1.381 . S
C1036 H1063 0.930 . S
C1037 C1036 1.381 . S
C1037 C1039 1.381 . S
C1037 C1040 1.487 . S
C1038 C1035 1.382 . S
C1038 C1039 1.387 . S
C1038 H1064 0.930 . S
C1039 C1037 1.381 . S
C1039 C1038 1.387 . S
C1039 H1065 0.931 . S
C1040 C1037 1.487 . S
C1040 C1047 1.399 . S
C1040 N1078 1.343 . S
C1041 C1042 1.384 . S
C1041 C1043 1.384 . S
C1041 H1066 0.931 . S
C1042 C1041 1.384 . S
C1042 C1045 1.382 . S
C1043 C1041 1.384 . S
C1043 C1044 1.381 . S
C1043 H1067 0.930 . S
C1044 C1043 1.381 . S
C1044 C1046 1.381 . S
C1044 C1047 1.487 . S
C1045 C1042 1.382 . S
C1045 C1046 1.387 . S
C1045 H1068 0.930 . S
C1046 C1044 1.381 . S
C1046 C1045 1.387 . S
C1046 H1069 0.931 . S
C1047 C1040 1.399 . S
C1047 C1044 1.487 . S
C1047 N1079 1.343 . S
C1048 C1049 1.384 . S
C1048 C1050 1.384 . S
C1048 H1070 0.931 . S
C1049 C1048 1.384 . S
C1049 C1052 1.382 . S
C1050 C1048 1.384 . S
C1050 C1051 1.381 . S
C1050 H1071 0.930 . S
C1051 C1050 1.381 . S
C1051 C1053 1.381 . S
C1051 C1054 1.487 . S
C1052 C1049 1.382 . S
C1052 C1053 1.387 . S
C1052 H1072 0.930 . S
C1053 C1051 1.381 . S
C1053 C1052 1.387 . S
C1053 H1073 0.931 . S
C1054 C1051 1.487 . S
C1054 C1061 1.399 . S
C1054 N1079 1.343 . S
C1055 C1056 1.384 . S
C1055 C1057 1.384 . S
C1055 H1074 0.931 . S
C1056 C1055 1.384 . S
C1056 C1059 1.382 . S
C1057 C1055 1.384 . S
C1057 C1058 1.381 . S
C1057 H1075 0.930 . S
C1058 C1057 1.381 . S
C1058 C1060 1.381 . S
C1058 C1061 1.487 . S
C1059 C1056 1.382 . S
C1059 C1060 1.387 . S
C1059 H1076 0.930 . S
C1060 C1058 1.381 . S
C1060 C1059 1.387 . S
C1060 H1077 0.931 . S
C1061 C1054 1.399 . S
C1061 C1058 1.487 . S
C1061 N1078 1.343 . S
H1062 C1034 0.931 . S
H1063 C1036 0.930 . S
H1064 C1038 0.930 . S
H1065 C1039 0.931 . S
H1066 C1041 0.931 . S
H1067 C1043 0.930 . S
H1068 C1045 0.930 . S
H1069 C1046 0.931 . S
H1070 C1048 0.931 . S
H1071 C1050 0.930 . S
H1072 C1052 0.930 . S
H1073 C1053 0.931 . S
H1074 C1055 0.931 . S
H1075 C1057 0.930 . S
H1076 C1059 0.930 . S
H1077 C1060 0.931 . S
N1078 C1040 1.343 . S
N1078 C1061 1.343 . S
N1079 C1047 1.343 . S
N1079 C1054 1.343 . S
H1080 C1086 0.930 . S
H1081 C1089 0.930 . S
H1082 C1090 0.930 . S
H1083 C1091 0.930 . S
H1084 C1094 0.930 . S
H1085 C1095 0.930 . S
C1086 H1080 0.930 . S
C1086 C1087 1.355 . S
C1086 C1088 1.415 . S
C1087 C1086 1.355 . S
C1087 C1089 1.419 1_655 S
C1088 C1086 1.415 . S
C1088 C1093 1.425 1_655 S
C1088 C1095 1.409 . S
C1089 H1081 0.930 . S
C1089 C1087 1.419 1_455 S
C1089 C1090 1.362 . S
C1090 H1082 0.930 . S
C1090 C1089 1.362 . S
C1090 C1093 1.409 . S
C1091 H1083 0.930 . S
C1091 C1092 1.355 1_455 S
C1091 C1093 1.415 . S
C1092 C1091 1.355 1_655 S
C1092 C1094 1.419 . S
C1093 C1088 1.425 1_455 S
C1093 C1090 1.409 . S
C1093 C1091 1.415 . S
C1094 H1084 0.930 . S
C1094 C1092 1.419 . S
C1094 C1095 1.362 . S
C1095 H1085 0.930 . S
C1095 C1088 1.409 . S
C1095 C1094 1.362 . S
H1096 C1102 0.930 . S
H1097 C1105 0.930 . S
H1098 C1106 0.930 . S
H1099 C1107 0.930 . S
H1100 C1110 0.930 . S
H1101 C1111 0.930 . S
C1102 H1096 0.930 . S
C1102 C1103 1.355 . S
C1102 C1104 1.415 . S
C1103 C1102 1.355 . S
C1103 C1105 1.419 . S
C1104 C1102 1.415 . S
C1104 C1109 1.425 . S
C1104 C1111 1.409 . S
C1105 H1097 0.930 . S
C1105 C1103 1.419 . S
C1105 C1106 1.362 . S
C1106 H1098 0.930 . S
C1106 C1105 1.362 . S
C1106 C1109 1.409 . S
C1107 H1099 0.930 . S
C1107 C1108 1.355 . S
C1107 C1109 1.415 . S
C1108 C1107 1.355 . S
C1108 C1110 1.419 . S
C1109 C1104 1.425 . S
C1109 C1106 1.409 . S
C1109 C1107 1.415 . S
C1110 H1100 0.930 . S
C1110 C1108 1.419 . S
C1110 C1111 1.362 . S
C1111 H1101 0.930 . S
C1111 C1104 1.409 . S
C1111 C1110 1.362 . S
H1112 C1118 0.930 . S
H1113 C1121 0.930 . S
H1114 C1122 0.930 . S
H1115 C1123 0.930 . S
H1116 C1126 0.930 . S
H1117 C1127 0.930 . S
C1118 H1112 0.930 . S
C1118 C1119 1.355 . S
C1118 C1120 1.415 . S
C1119 C1118 1.355 . S
C1119 C1121 1.419 1_545 S
C1120 C1118 1.415 . S
C1120 C1125 1.425 1_545 S
C1120 C1127 1.409 . S
C1121 H1113 0.930 . S
C1121 C1119 1.419 1_565 S
C1121 C1122 1.362 . S
C1122 H1114 0.930 . S
C1122 C1121 1.362 . S
C1122 C1125 1.409 . S
C1123 H1115 0.930 . S
C1123 C1124 1.355 1_565 S
C1123 C1125 1.415 . S
C1124 C1123 1.355 1_545 S
C1124 C1126 1.419 . S
C1125 C1120 1.425 1_565 S
C1125 C1122 1.409 . S
C1125 C1123 1.415 . S
C1126 H1116 0.930 . S
C1126 C1124 1.419 . S
C1126 C1127 1.362 . S
C1127 H1117 0.930 . S
C1127 C1120 1.409 . S
C1127 C1126 1.362 . S
H1128 C1134 0.930 . S
H1129 C1137 0.930 . S
H1130 C1138 0.930 . S
H1131 C1139 0.930 . S
H1132 C1142 0.930 . S
H1133 C1143 0.930 . S
C1134 H1128 0.930 . S
C1134 C1135 1.355 1_545 S
C1134 C1136 1.415 . S
C1135 C1134 1.355 1_565 S
C1135 C1137 1.419 . S
C1136 C1134 1.415 . S
C1136 C1141 1.425 1_545 S
C1136 C1143 1.409 . S
C1137 H1129 0.930 . S
C1137 C1135 1.419 . S
C1137 C1138 1.362 . S
C1138 H1130 0.930 . S
C1138 C1137 1.362 . S
C1138 C1141 1.409 . S
C1139 H1131 0.930 . S
C1139 C1140 1.355 . S
C1139 C1141 1.415 . S
C1140 C1139 1.355 . S
C1140 C1142 1.419 1_565 S
C1141 C1136 1.425 1_565 S
C1141 C1138 1.409 . S
C1141 C1139 1.415 . S
C1142 H1132 0.930 . S
C1142 C1140 1.419 1_545 S
C1142 C1143 1.362 . S
C1143 H1133 0.930 . S
C1143 C1136 1.409 . S
C1143 C1142 1.362 . S
H1144 C1150 0.930 . S
H1145 C1153 0.930 . S
H1146 C1154 0.930 . S
H1147 C1155 0.930 . S
H1148 C1158 0.930 . S
H1149 C1159 0.930 . S
C1150 H1144 0.930 . S
C1150 C1151 1.355 1_655 S
C1150 C1152 1.415 . S
C1151 C1150 1.355 1_455 S
C1151 C1153 1.419 . S
C1152 C1150 1.415 . S
C1152 C1157 1.425 1_655 S
C1152 C1159 1.409 . S
C1153 H1145 0.930 . S
C1153 C1151 1.419 . S
C1153 C1154 1.362 . S
C1154 H1146 0.930 . S
C1154 C1153 1.362 . S
C1154 C1157 1.409 . S
C1155 H1147 0.930 . S
C1155 C1156 1.355 . S
C1155 C1157 1.415 . S
C1156 C1155 1.355 . S
C1156 C1158 1.419 1_455 S
C1157 C1152 1.425 1_455 S
C1157 C1154 1.409 . S
C1157 C1155 1.415 . S
C1158 H1148 0.930 . S
C1158 C1156 1.419 1_655 S
C1158 C1159 1.362 . S
C1159 H1149 0.930 . S
C1159 C1152 1.409 . S
C1159 C1158 1.362 . S
H1160 C1166 0.930 . S
H1161 C1169 0.930 . S
H1162 C1170 0.930 . S
H1163 C1171 0.930 . S
H1164 C1174 0.930 . S
H1165 C1175 0.930 . S
C1166 H1160 0.930 . S
C1166 C1167 1.355 . S
C1166 C1168 1.415 . S
C1167 C1166 1.355 . S
C1167 C1169 1.419 . S
C1168 C1166 1.415 . S
C1168 C1173 1.425 . S
C1168 C1175 1.409 . S
C1169 H1161 0.930 . S
C1169 C1167 1.419 . S
C1169 C1170 1.362 . S
C1170 H1162 0.930 . S
C1170 C1169 1.362 . S
C1170 C1173 1.409 . S
C1171 H1163 0.930 . S
C1171 C1172 1.355 . S
C1171 C1173 1.415 . S
C1172 C1171 1.355 . S
C1172 C1174 1.419 . S
C1173 C1168 1.425 . S
C1173 C1170 1.409 . S
C1173 C1171 1.415 . S
C1174 H1164 0.930 . S
C1174 C1172 1.419 . S
C1174 C1175 1.362 . S
C1175 H1165 0.930 . S
C1175 C1168 1.409 . S
C1175 C1174 1.362 . S
H1176 C1182 0.930 . S
H1177 C1185 0.930 . S
H1178 C1186 0.930 . S
H1179 C1187 0.930 . S
H1180 C1190 0.930 . S
H1181 C1191 0.930 . S
C1182 H1176 0.930 . S
C1182 C1183 1.355 . S
C1182 C1184 1.415 . S
C1183 C1182 1.355 . S
C1183 C1185 1.419 1_455 S
C1184 C1182 1.415 . S
C1184 C1189 1.425 1_455 S
C1184 C1191 1.409 . S
C1185 H1177 0.930 . S
C1185 C1183 1.419 1_655 S
C1185 C1186 1.362 . S
C1186 H1178 0.930 . S
C1186 C1185 1.362 . S
C1186 C1189 1.409 . S
C1187 H1179 0.930 . S
C1187 C1188 1.355 1_655 S
C1187 C1189 1.415 . S
C1188 C1187 1.355 1_455 S
C1188 C1190 1.419 . S
C1189 C1184 1.425 1_655 S
C1189 C1186 1.409 . S
C1189 C1187 1.415 . S
C1190 H1180 0.930 . S
C1190 C1188 1.419 . S
C1190 C1191 1.362 . S
C1191 H1181 0.930 . S
C1191 C1184 1.409 . S
C1191 C1190 1.362 . S
H1192 C1198 0.930 . S
H1193 C1201 0.930 . S
H1194 C1202 0.930 . S
H1195 C1203 0.930 . S
H1196 C1206 0.930 . S
H1197 C1207 0.930 . S
C1198 H1192 0.930 . S
C1198 C1199 1.355 . S
C1198 C1200 1.415 . S
C1199 C1198 1.355 . S
C1199 C1201 1.419 . S
C1200 C1198 1.415 . S
C1200 C1205 1.425 . S
C1200 C1207 1.409 . S
C1201 H1193 0.930 . S
C1201 C1199 1.419 . S
C1201 C1202 1.362 . S
C1202 H1194 0.930 . S
C1202 C1201 1.362 . S
C1202 C1205 1.409 . S
C1203 H1195 0.930 . S
C1203 C1204 1.355 . S
C1203 C1205 1.415 . S
C1204 C1203 1.355 . S
C1204 C1206 1.419 . S
C1205 C1200 1.425 . S
C1205 C1202 1.409 . S
C1205 C1203 1.415 . S
C1206 H1196 0.930 . S
C1206 C1204 1.419 . S
C1206 C1207 1.362 . S
C1207 H1197 0.930 . S
C1207 C1200 1.409 . S
C1207 C1206 1.362 . S
H1208 C1214 0.930 . S
H1209 C1217 0.922 . S
H1210 C1218 0.930 . S
H1211 C1219 0.930 . S
H1212 C1222 0.930 . S
H1213 C1223 0.930 . S
C1214 H1208 0.930 . S
C1214 C1215 1.355 . S
C1214 C1216 1.415 . S
C1215 C1214 1.355 . S
C1215 C1217 1.419 1_565 S
C1216 C1214 1.415 . S
C1216 C1221 1.425 . S
C1216 C1223 1.409 . S
C1217 H1209 0.922 . S
C1217 C1215 1.419 1_545 S
C1217 C1218 1.371 . S
C1218 H1210 0.930 . S
C1218 C1217 1.371 . S
C1218 C1221 1.409 1_545 S
C1219 H1211 0.930 . S
C1219 C1220 1.357 1_545 S
C1219 C1221 1.412 1_545 S
C1220 C1219 1.357 1_565 S
C1220 C1222 1.419 . S
C1221 C1216 1.425 . S
C1221 C1218 1.409 1_565 S
C1221 C1219 1.412 1_565 S
C1222 H1212 0.930 . S
C1222 C1220 1.419 . S
C1222 C1223 1.362 . S
C1223 H1213 0.930 . S
C1223 C1216 1.409 . S
C1223 C1222 1.362 . S
H1224 C1230 0.919 1_565 S
H1225 C1233 0.930 . S
H1226 C1234 0.930 . S
H1227 C1235 0.930 . S
H1228 C1238 0.930 . S
H1229 C1239 0.930 . S
C1230 H1224 0.919 1_545 S
C1230 C1231 1.358 . S
C1230 C1232 1.421 . S
C1231 C1230 1.358 . S
C1231 C1233 1.419 . S
C1232 C1230 1.421 . S
C1232 C1237 1.425 . S
C1232 C1239 1.409 1_545 S
C1233 H1225 0.930 . S
C1233 C1231 1.419 . S
C1233 C1234 1.362 . S
C1234 H1226 0.930 . S
C1234 C1233 1.362 . S
C1234 C1237 1.409 . S
C1235 H1227 0.930 . S
C1235 C1236 1.355 . S
C1235 C1237 1.415 . S
C1236 C1235 1.355 . S
C1236 C1238 1.419 1_545 S
C1237 C1232 1.425 . S
C1237 C1234 1.409 . S
C1237 C1235 1.415 . S
C1238 H1228 0.930 . S
C1238 C1236 1.419 1_565 S
C1238 C1239 1.362 . S
C1239 H1229 0.930 . S
C1239 C1232 1.409 1_565 S
C1239 C1238 1.362 . S
H1240 C1246 0.930 . S
H1241 C1249 0.930 . S
H1242 C1250 0.930 . S
H1243 C1251 0.930 . S
H1244 C1254 0.930 . S
H1245 C1255 0.930 . S
C1246 H1240 0.930 . S
C1246 C1247 1.355 . S
C1246 C1248 1.415 . S
C1247 C1246 1.355 . S
C1247 C1249 1.419 1_655 S
C1248 C1246 1.415 . S
C1248 C1253 1.400 1_655 S
C1248 C1255 1.409 . S
C1249 H1241 0.930 . S
C1249 C1247 1.419 1_455 S
C1249 C1250 1.362 . S
C1250 H1242 0.930 . S
C1250 C1249 1.362 . S
C1250 C1253 1.418 . S
C1251 H1243 0.930 . S
C1251 C1252 1.355 1_455 S
C1251 C1253 1.430 . S
C1252 C1251 1.355 1_655 S
C1252 C1254 1.419 . S
C1253 C1248 1.400 1_455 S
C1253 C1250 1.418 . S
C1253 C1251 1.430 . S
C1254 H1244 0.930 . S
C1254 C1252 1.419 . S
C1254 C1255 1.362 . S
C1255 H1245 0.930 . S
C1255 C1248 1.409 . S
C1255 C1254 1.362 . S
H1256 C1262 0.930 . S
H1257 C1265 0.930 . S
H1258 C1266 0.930 . S
H1259 C1267 0.930 . S
H1260 C1270 0.930 . S
H1261 C1271 0.930 . S
C1262 H1256 0.930 . S
C1262 C1263 1.355 . S
C1262 C1264 1.415 . S
C1263 C1262 1.355 . S
C1263 C1265 1.419 . S
C1264 C1262 1.415 . S
C1264 C1269 1.425 . S
C1264 C1271 1.409 . S
C1265 H1257 0.930 . S
C1265 C1263 1.419 . S
C1265 C1266 1.362 . S
C1266 H1258 0.930 . S
C1266 C1265 1.362 . S
C1266 C1269 1.409 . S
C1267 H1259 0.930 . S
C1267 C1268 1.355 . S
C1267 C1269 1.415 . S
C1268 C1267 1.355 . S
C1268 C1270 1.419 . S
C1269 C1264 1.425 . S
C1269 C1266 1.409 . S
C1269 C1267 1.415 . S
C1270 H1260 0.930 . S
C1270 C1268 1.419 . S
C1270 C1271 1.362 . S
C1271 H1261 0.930 . S
C1271 C1264 1.409 . S
C1271 C1270 1.362 . S
H1272 C1278 0.930 . S
H1273 C1281 0.930 . S
H1274 C1282 0.930 . S
H1275 C1283 0.930 . S
H1276 C1286 0.930 . S
H1277 C1287 0.930 . S
C1278 H1272 0.930 . S
C1278 C1279 1.355 . S
C1278 C1280 1.415 . S
C1279 C1278 1.355 . S
C1279 C1281 1.419 . S
C1280 C1278 1.415 . S
C1280 C1285 1.425 . S
C1280 C1287 1.409 . S
C1281 H1273 0.930 . S
C1281 C1279 1.419 . S
C1281 C1282 1.362 . S
C1282 H1274 0.930 . S
C1282 C1281 1.362 . S
C1282 C1285 1.409 . S
C1283 H1275 0.930 . S
C1283 C1284 1.355 . S
C1283 C1285 1.415 . S
C1284 C1283 1.355 . S
C1284 C1286 1.419 . S
C1285 C1280 1.425 . S
C1285 C1282 1.409 . S
C1285 C1283 1.415 . S
C1286 H1276 0.930 . S
C1286 C1284 1.419 . S
C1286 C1287 1.362 . S
C1287 H1277 0.930 . S
C1287 C1280 1.409 . S
C1287 C1286 1.362 . S
H1288 C1294 0.930 . S
H1289 C1297 0.930 . S
H1290 C1298 0.930 . S
H1291 C1299 0.930 . S
H1292 C1302 0.930 . S
H1293 C1303 0.930 . S
C1294 H1288 0.930 . S
C1294 C1295 1.355 . S
C1294 C1296 1.415 . S
C1295 C1294 1.355 . S
C1295 C1297 1.419 . S
C1296 C1294 1.415 . S
C1296 C1301 1.425 . S
C1296 C1303 1.409 . S
C1297 H1289 0.930 . S
C1297 C1295 1.419 . S
C1297 C1298 1.362 . S
C1298 H1290 0.930 . S
C1298 C1297 1.362 . S
C1298 C1301 1.409 . S
C1299 H1291 0.930 . S
C1299 C1300 1.355 . S
C1299 C1301 1.415 . S
C1300 C1299 1.355 . S
C1300 C1302 1.419 . S
C1301 C1296 1.425 . S
C1301 C1298 1.409 . S
C1301 C1299 1.415 . S
C1302 H1292 0.930 . S
C1302 C1300 1.419 . S
C1302 C1303 1.362 . S
C1303 H1293 0.930 . S
C1303 C1296 1.409 . S
C1303 C1302 1.362 . S
H1304 C1310 0.930 . S
H1305 C1313 0.930 . S
H1306 C1314 0.930 . S
H1307 C1315 0.930 . S
H1308 C1318 0.930 . S
H1309 C1319 0.930 . S
C1310 H1304 0.930 . S
C1310 C1311 1.355 . S
C1310 C1312 1.415 . S
C1311 C1310 1.355 . S
C1311 C1313 1.419 . S
C1312 C1310 1.415 . S
C1312 C1317 1.425 . S
C1312 C1319 1.409 . S
C1313 H1305 0.930 . S
C1313 C1311 1.419 . S
C1313 C1314 1.362 . S
C1314 H1306 0.930 . S
C1314 C1313 1.362 . S
C1314 C1317 1.409 . S
C1315 H1307 0.930 . S
C1315 C1316 1.355 . S
C1315 C1317 1.415 . S
C1316 C1315 1.355 . S
C1316 C1318 1.419 . S
C1317 C1312 1.425 . S
C1317 C1314 1.409 . S
C1317 C1315 1.415 . S
C1318 H1308 0.930 . S
C1318 C1316 1.419 . S
C1318 C1319 1.362 . S
C1319 H1309 0.930 . S
C1319 C1312 1.409 . S
C1319 C1318 1.362 . S
H1320 C1326 0.930 . S
H1321 C1329 0.930 . S
H1322 C1330 0.930 . S
H1323 C1331 0.930 . S
H1324 C1334 0.930 . S
H1325 C1335 0.930 . S
C1326 H1320 0.930 . S
C1326 C1327 1.355 . S
C1326 C1328 1.415 . S
C1327 C1326 1.355 . S
C1327 C1329 1.419 . S
C1328 C1326 1.415 . S
C1328 C1333 1.425 . S
C1328 C1335 1.409 . S
C1329 H1321 0.930 . S
C1329 C1327 1.419 . S
C1329 C1330 1.362 . S
C1330 H1322 0.930 . S
C1330 C1329 1.362 . S
C1330 C1333 1.409 . S
C1331 H1323 0.930 . S
C1331 C1332 1.355 . S
C1331 C1333 1.415 . S
C1332 C1331 1.355 . S
C1332 C1334 1.419 . S
C1333 C1328 1.425 . S
C1333 C1330 1.409 . S
C1333 C1331 1.415 . S
C1334 H1324 0.930 . S
C1334 C1332 1.419 . S
C1334 C1335 1.362 . S
C1335 H1325 0.930 . S
C1335 C1328 1.409 . S
C1335 C1334 1.362 . S
H1336 C1342 0.930 . S
H1337 C1345 0.930 . S
H1338 C1346 0.930 . S
H1339 C1347 0.930 . S
H1340 C1350 0.930 . S
H1341 C1351 0.930 . S
C1342 H1336 0.930 . S
C1342 C1343 1.355 . S
C1342 C1344 1.415 . S
C1343 C1342 1.355 . S
C1343 C1345 1.419 . S
C1344 C1342 1.415 . S
C1344 C1349 1.425 . S
C1344 C1351 1.409 . S
C1345 H1337 0.930 . S
C1345 C1343 1.419 . S
C1345 C1346 1.362 . S
C1346 H1338 0.930 . S
C1346 C1345 1.362 . S
C1346 C1349 1.409 . S
C1347 H1339 0.930 . S
C1347 C1348 1.355 . S
C1347 C1349 1.415 . S
C1348 C1347 1.355 . S
C1348 C1350 1.419 . S
C1349 C1344 1.425 . S
C1349 C1346 1.409 . S
C1349 C1347 1.415 . S
C1350 H1340 0.930 . S
C1350 C1348 1.419 . S
C1350 C1351 1.362 . S
C1351 H1341 0.930 . S
C1351 C1344 1.409 . S
C1351 C1350 1.362 . S
H1352 C1358 0.930 . S
H1353 C1361 0.930 . S
H1354 C1362 0.930 . S
H1355 C1363 0.930 . S
H1356 C1366 0.930 . S
H1357 C1367 0.930 . S
C1358 H1352 0.930 . S
C1358 C1359 1.355 . S
C1358 C1360 1.415 . S
C1359 C1358 1.355 . S
C1359 C1361 1.419 . S
C1360 C1358 1.415 . S
C1360 C1365 1.425 . S
C1360 C1367 1.409 . S
C1361 H1353 0.930 . S
C1361 C1359 1.419 . S
C1361 C1362 1.362 . S
C1362 H1354 0.930 . S
C1362 C1361 1.362 . S
C1362 C1365 1.409 . S
C1363 H1355 0.930 . S
C1363 C1364 1.355 . S
C1363 C1365 1.415 . S
C1364 C1363 1.355 . S
C1364 C1366 1.419 . S
C1365 C1360 1.425 . S
C1365 C1362 1.409 . S
C1365 C1363 1.415 . S
C1366 H1356 0.930 . S
C1366 C1364 1.419 . S
C1366 C1367 1.362 . S
C1367 H1357 0.930 . S
C1367 C1360 1.409 . S
C1367 C1366 1.362 . S
H1368 C1374 0.930 . S
H1369 C1377 0.930 . S
H1370 C1378 0.930 . S
H1371 C1379 0.930 . S
H1372 C1382 0.930 . S
H1373 C1383 0.930 . S
C1374 H1368 0.930 . S
C1374 C1375 1.355 . S
C1374 C1376 1.415 . S
C1375 C1374 1.355 . S
C1375 C1377 1.419 . S
C1376 C1374 1.415 . S
C1376 C1381 1.425 . S
C1376 C1383 1.409 . S
C1377 H1369 0.930 . S
C1377 C1375 1.419 . S
C1377 C1378 1.362 . S
C1378 H1370 0.930 . S
C1378 C1377 1.362 . S
C1378 C1381 1.409 . S
C1379 H1371 0.930 . S
C1379 C1380 1.355 . S
C1379 C1381 1.415 . S
C1380 C1379 1.355 . S
C1380 C1382 1.419 . S
C1381 C1376 1.425 . S
C1381 C1378 1.409 . S
C1381 C1379 1.415 . S
C1382 H1372 0.930 . S
C1382 C1380 1.419 . S
C1382 C1383 1.362 . S
C1383 H1373 0.930 . S
C1383 C1376 1.409 . S
C1383 C1382 1.362 . S
H1384 C1390 0.930 . S
H1385 C1393 0.930 . S
H1386 C1394 0.930 . S
H1387 C1395 0.930 . S
H1388 C1398 0.930 . S
H1389 C1399 0.930 . S
C1390 H1384 0.930 . S
C1390 C1391 1.355 . S
C1390 C1392 1.415 . S
C1391 C1390 1.355 . S
C1391 C1393 1.419 . S
C1392 C1390 1.415 . S
C1392 C1397 1.425 . S
C1392 C1399 1.409 . S
C1393 H1385 0.930 . S
C1393 C1391 1.419 . S
C1393 C1394 1.362 . S
C1394 H1386 0.930 . S
C1394 C1393 1.362 . S
C1394 C1397 1.409 . S
C1395 H1387 0.930 . S
C1395 C1396 1.355 . S
C1395 C1397 1.415 . S
C1396 C1395 1.355 . S
C1396 C1398 1.419 . S
C1397 C1392 1.425 . S
C1397 C1394 1.409 . S
C1397 C1395 1.415 . S
C1398 H1388 0.930 . S
C1398 C1396 1.419 . S
C1398 C1399 1.362 . S
C1399 H1389 0.930 . S
C1399 C1392 1.409 . S
C1399 C1398 1.362 . S
H1400 C1406 0.930 . S
H1401 C1409 0.930 . S
H1402 C1410 0.930 . S
H1403 C1411 0.930 . S
H1404 C1414 0.930 . S
H1405 C1415 0.930 . S
C1406 H1400 0.930 . S
C1406 C1407 1.355 . S
C1406 C1408 1.415 . S
C1407 C1406 1.355 . S
C1407 C1409 1.419 . S
C1408 C1406 1.415 . S
C1408 C1413 1.425 . S
C1408 C1415 1.409 . S
C1409 H1401 0.930 . S
C1409 C1407 1.419 . S
C1409 C1410 1.362 . S
C1410 H1402 0.930 . S
C1410 C1409 1.362 . S
C1410 C1413 1.409 . S
C1411 H1403 0.930 . S
C1411 C1412 1.355 . S
C1411 C1413 1.415 . S
C1412 C1411 1.355 . S
C1412 C1414 1.419 . S
C1413 C1408 1.425 . S
C1413 C1410 1.409 . S
C1413 C1411 1.415 . S
C1414 H1404 0.930 . S
C1414 C1412 1.419 . S
C1414 C1415 1.362 . S
C1415 H1405 0.930 . S
C1415 C1408 1.409 . S
C1415 C1414 1.362 . S
H1416 C1422 0.930 . S
H1417 C1425 0.930 . S
H1418 C1426 0.930 . S
H1419 C1427 0.930 . S
H1420 C1430 0.930 . S
H1421 C1431 0.930 . S
C1422 H1416 0.930 . S
C1422 C1423 1.355 . S
C1422 C1424 1.415 . S
C1423 C1422 1.355 . S
C1423 C1425 1.419 . S
C1424 C1422 1.415 . S
C1424 C1429 1.425 . S
C1424 C1431 1.409 . S
C1425 H1417 0.930 . S
C1425 C1423 1.419 . S
C1425 C1426 1.362 . S
C1426 H1418 0.930 . S
C1426 C1425 1.362 . S
C1426 C1429 1.409 . S
C1427 H1419 0.930 . S
C1427 C1428 1.355 . S
C1427 C1429 1.415 . S
C1428 C1427 1.355 . S
C1428 C1430 1.419 . S
C1429 C1424 1.425 . S
C1429 C1426 1.409 . S
C1429 C1427 1.415 . S
C1430 H1420 0.930 . S
C1430 C1428 1.419 . S
C1430 C1431 1.362 . S
C1431 H1421 0.930 . S
C1431 C1424 1.409 . S
C1431 C1430 1.362 . S
H1432 C1438 0.930 . S
H1433 C1441 0.930 . S
H1434 C1442 0.930 . S
H1435 C1443 0.930 . S
H1436 C1446 0.930 . S
H1437 C1447 0.930 . S
C1438 H1432 0.930 . S
C1438 C1439 1.355 . S
C1438 C1440 1.415 . S
C1439 C1438 1.355 . S
C1439 C1441 1.419 . S
C1440 C1438 1.415 . S
C1440 C1445 1.425 . S
C1440 C1447 1.409 . S
C1441 H1433 0.930 . S
C1441 C1439 1.419 . S
C1441 C1442 1.362 . S
C1442 H1434 0.930 . S
C1442 C1441 1.362 . S
C1442 C1445 1.409 . S
C1443 H1435 0.930 . S
C1443 C1444 1.355 . S
C1443 C1445 1.415 . S
C1444 C1443 1.355 . S
C1444 C1446 1.419 . S
C1445 C1440 1.425 . S
C1445 C1442 1.409 . S
C1445 C1443 1.415 . S
C1446 H1436 0.930 . S
C1446 C1444 1.419 . S
C1446 C1447 1.362 . S
C1447 H1437 0.930 . S
C1447 C1440 1.409 . S
C1447 C1446 1.362 . S
H1448 C1454 0.930 . S
H1449 C1457 0.930 . S
H1450 C1458 0.930 . S
H1451 C1459 0.930 . S
H1452 C1462 0.930 . S
H1453 C1463 0.930 . S
C1454 H1448 0.930 . S
C1454 C1455 1.355 . S
C1454 C1456 1.415 . S
C1455 C1454 1.355 . S
C1455 C1457 1.419 . S
C1456 C1454 1.415 . S
C1456 C1461 1.425 . S
C1456 C1463 1.409 . S
C1457 H1449 0.930 . S
C1457 C1455 1.419 . S
C1457 C1458 1.362 . S
C1458 H1450 0.930 . S
C1458 C1457 1.362 . S
C1458 C1461 1.409 . S
C1459 H1451 0.930 . S
C1459 C1460 1.355 . S
C1459 C1461 1.415 . S
C1460 C1459 1.355 . S
C1460 C1462 1.419 . S
C1461 C1456 1.425 . S
C1461 C1458 1.409 . S
C1461 C1459 1.415 . S
C1462 H1452 0.930 . S
C1462 C1460 1.419 . S
C1462 C1463 1.362 . S
C1463 H1453 0.930 . S
C1463 C1456 1.409 . S
C1463 C1462 1.362 . S
H1464 C1470 0.930 . S
H1465 C1473 0.930 . S
H1466 C1474 0.930 . S
H1467 C1475 0.930 . S
H1468 C1478 0.930 . S
H1469 C1479 0.930 . S
C1470 H1464 0.930 . S
C1470 C1471 1.355 . S
C1470 C1472 1.415 . S
C1471 C1470 1.355 . S
C1471 C1473 1.419 . S
C1472 C1470 1.415 . S
C1472 C1477 1.425 . S
C1472 C1479 1.409 . S
C1473 H1465 0.930 . S
C1473 C1471 1.419 . S
C1473 C1474 1.362 . S
C1474 H1466 0.930 . S
C1474 C1473 1.362 . S
C1474 C1477 1.409 . S
C1475 H1467 0.930 . S
C1475 C1476 1.355 . S
C1475 C1477 1.415 . S
C1476 C1475 1.355 . S
C1476 C1478 1.419 . S
C1477 C1472 1.425 . S
C1477 C1474 1.409 . S
C1477 C1475 1.415 . S
C1478 H1468 0.930 . S
C1478 C1476 1.419 . S
C1478 C1479 1.362 . S
C1479 H1469 0.930 . S
C1479 C1472 1.409 . S
C1479 C1478 1.362 . S
H1480 C1486 0.930 . S
H1481 C1489 0.930 . S
H1482 C1490 0.930 . S
H1483 C1491 0.930 . S
H1484 C1494 0.930 . S
H1485 C1495 0.930 . S
C1486 H1480 0.930 . S
C1486 C1487 1.355 . S
C1486 C1488 1.415 . S
C1487 C1486 1.355 . S
C1487 C1489 1.419 . S
C1488 C1486 1.415 . S
C1488 C1493 1.425 . S
C1488 C1495 1.409 . S
C1489 H1481 0.930 . S
C1489 C1487 1.419 . S
C1489 C1490 1.362 . S
C1490 H1482 0.930 . S
C1490 C1489 1.362 . S
C1490 C1493 1.409 . S
C1491 H1483 0.930 . S
C1491 C1492 1.355 . S
C1491 C1493 1.415 . S
C1492 C1491 1.355 . S
C1492 C1494 1.419 . S
C1493 C1488 1.425 . S
C1493 C1490 1.409 . S
C1493 C1491 1.415 . S
C1494 H1484 0.930 . S
C1494 C1492 1.419 . S
C1494 C1495 1.362 . S
C1495 H1485 0.930 . S
C1495 C1488 1.409 . S
C1495 C1494 1.362 . S
H1496 C1502 0.930 . S
H1497 C1505 0.930 . S
H1498 C1506 0.930 . S
H1499 C1507 0.930 . S
H1500 C1510 0.930 . S
H1501 C1511 0.930 . S
C1502 H1496 0.930 . S
C1502 C1503 1.355 . S
C1502 C1504 1.415 . S
C1503 C1502 1.355 . S
C1503 C1505 1.419 . S
C1504 C1502 1.415 . S
C1504 C1509 1.425 . S
C1504 C1511 1.409 . S
C1505 H1497 0.930 . S
C1505 C1503 1.419 . S
C1505 C1506 1.362 . S
C1506 H1498 0.930 . S
C1506 C1505 1.362 . S
C1506 C1509 1.409 . S
C1507 H1499 0.930 . S
C1507 C1508 1.355 . S
C1507 C1509 1.415 . S
C1508 C1507 1.355 . S
C1508 C1510 1.419 . S
C1509 C1504 1.425 . S
C1509 C1506 1.409 . S
C1509 C1507 1.415 . S
C1510 H1500 0.930 . S
C1510 C1508 1.419 . S
C1510 C1511 1.362 . S
C1511 H1501 0.930 . S
C1511 C1504 1.409 . S
C1511 C1510 1.362 . S
H1512 C1518 0.930 . S
H1513 C1521 0.930 . S
H1514 C1522 0.930 . S
H1515 C1523 0.930 . S
H1516 C1526 0.930 . S
H1517 C1527 0.930 . S
C1518 H1512 0.930 . S
C1518 C1519 1.355 . S
C1518 C1520 1.415 . S
C1519 C1518 1.355 . S
C1519 C1521 1.419 . S
C1520 C1518 1.415 . S
C1520 C1525 1.425 . S
C1520 C1527 1.409 . S
C1521 H1513 0.930 . S
C1521 C1519 1.419 . S
C1521 C1522 1.362 . S
C1522 H1514 0.930 . S
C1522 C1521 1.362 . S
C1522 C1525 1.409 . S
C1523 H1515 0.930 . S
C1523 C1524 1.355 . S
C1523 C1525 1.415 . S
C1524 C1523 1.355 . S
C1524 C1526 1.419 . S
C1525 C1520 1.425 . S
C1525 C1522 1.409 . S
C1525 C1523 1.415 . S
C1526 H1516 0.930 . S
C1526 C1524 1.419 . S
C1526 C1527 1.362 . S
C1527 H1517 0.930 . S
C1527 C1520 1.409 . S
C1527 C1526 1.362 . S
H1528 C1534 0.930 . S
H1529 C1537 0.930 . S
H1530 C1538 0.930 . S
H1531 C1539 0.930 . S
H1532 C1542 0.930 . S
H1533 C1543 0.930 . S
C1534 H1528 0.930 . S
C1534 C1535 1.355 . S
C1534 C1536 1.415 . S
C1535 C1534 1.355 . S
C1535 C1537 1.419 . S
C1536 C1534 1.415 . S
C1536 C1541 1.425 . S
C1536 C1543 1.409 . S
C1537 H1529 0.930 . S
C1537 C1535 1.419 . S
C1537 C1538 1.362 . S
C1538 H1530 0.930 . S
C1538 C1537 1.362 . S
C1538 C1541 1.409 . S
C1539 H1531 0.930 . S
C1539 C1540 1.355 . S
C1539 C1541 1.415 . S
C1540 C1539 1.355 . S
C1540 C1542 1.419 . S
C1541 C1536 1.425 . S
C1541 C1538 1.409 . S
C1541 C1539 1.415 . S
C1542 H1532 0.930 . S
C1542 C1540 1.419 . S
C1542 C1543 1.362 . S
C1543 H1533 0.930 . S
C1543 C1536 1.409 . S
C1543 C1542 1.362 . S
H1544 C1550 0.930 . S
H1545 C1553 0.930 . S
H1546 C1554 0.930 . S
H1547 C1555 0.930 . S
H1548 C1558 0.930 . S
H1549 C1559 0.930 . S
C1550 H1544 0.930 . S
C1550 C1551 1.355 . S
C1550 C1552 1.415 . S
C1551 C1550 1.355 . S
C1551 C1553 1.419 . S
C1552 C1550 1.415 . S
C1552 C1557 1.425 . S
C1552 C1559 1.409 . S
C1553 H1545 0.930 . S
C1553 C1551 1.419 . S
C1553 C1554 1.362 . S
C1554 H1546 0.930 . S
C1554 C1553 1.362 . S
C1554 C1557 1.409 . S
C1555 H1547 0.930 . S
C1555 C1556 1.355 . S
C1555 C1557 1.415 . S
C1556 C1555 1.355 . S
C1556 C1558 1.419 . S
C1557 C1552 1.425 . S
C1557 C1554 1.409 . S
C1557 C1555 1.415 . S
C1558 H1548 0.930 . S
C1558 C1556 1.419 . S
C1558 C1559 1.362 . S
C1559 H1549 0.930 . S
C1559 C1552 1.409 . S
C1559 C1558 1.362 . S
H1560 C1566 0.930 . S
H1561 C1569 0.930 . S
H1562 C1570 0.930 . S
H1563 C1571 0.930 . S
H1564 C1574 0.930 . S
H1565 C1575 0.930 . S
C1566 H1560 0.930 . S
C1566 C1567 1.355 . S
C1566 C1568 1.415 . S
C1567 C1566 1.355 . S
C1567 C1569 1.419 . S
C1568 C1566 1.415 . S
C1568 C1573 1.425 . S
C1568 C1575 1.409 . S
C1569 H1561 0.930 . S
C1569 C1567 1.419 . S
C1569 C1570 1.362 . S
C1570 H1562 0.930 . S
C1570 C1569 1.362 . S
C1570 C1573 1.409 . S
C1571 H1563 0.930 . S
C1571 C1572 1.355 . S
C1571 C1573 1.415 . S
C1572 C1571 1.355 . S
C1572 C1574 1.419 . S
C1573 C1568 1.425 . S
C1573 C1570 1.409 . S
C1573 C1571 1.415 . S
C1574 H1564 0.930 . S
C1574 C1572 1.419 . S
C1574 C1575 1.362 . S
C1575 H1565 0.930 . S
C1575 C1568 1.409 . S
C1575 C1574 1.362 . S
H1576 C1582 0.930 . S
H1577 C1585 0.930 . S
H1578 C1586 0.930 . S
H1579 C1587 0.930 . S
H1580 C1590 0.930 . S
H1581 C1591 0.930 . S
C1582 H1576 0.930 . S
C1582 C1583 1.355 . S
C1582 C1584 1.415 . S
C1583 C1582 1.355 . S
C1583 C1585 1.419 . S
C1584 C1582 1.415 . S
C1584 C1589 1.425 . S
C1584 C1591 1.409 . S
C1585 H1577 0.930 . S
C1585 C1583 1.419 . S
C1585 C1586 1.362 . S
C1586 H1578 0.930 . S
C1586 C1585 1.362 . S
C1586 C1589 1.409 . S
C1587 H1579 0.930 . S
C1587 C1588 1.355 . S
C1587 C1589 1.415 . S
C1588 C1587 1.355 . S
C1588 C1590 1.419 . S
C1589 C1584 1.425 . S
C1589 C1586 1.409 . S
C1589 C1587 1.415 . S
C1590 H1580 0.930 . S
C1590 C1588 1.419 . S
C1590 C1591 1.362 . S
C1591 H1581 0.930 . S
C1591 C1584 1.409 . S
C1591 C1590 1.362 . S
H1592 C1598 0.930 . S
H1593 C1601 0.930 . S
H1594 C1602 0.930 . S
H1595 C1603 0.930 . S
H1596 C1606 0.930 . S
H1597 C1607 0.930 . S
C1598 H1592 0.930 . S
C1598 C1599 1.355 . S
C1598 C1600 1.415 . S
C1599 C1598 1.355 . S
C1599 C1601 1.419 . S
C1600 C1598 1.415 . S
C1600 C1605 1.425 . S
C1600 C1607 1.409 . S
C1601 H1593 0.930 . S
C1601 C1599 1.419 . S
C1601 C1602 1.362 . S
C1602 H1594 0.930 . S
C1602 C1601 1.362 . S
C1602 C1605 1.409 . S
C1603 H1595 0.930 . S
C1603 C1604 1.355 . S
C1603 C1605 1.415 . S
C1604 C1603 1.355 . S
C1604 C1606 1.419 . S
C1605 C1600 1.425 . S
C1605 C1602 1.409 . S
C1605 C1603 1.415 . S
C1606 H1596 0.930 . S
C1606 C1604 1.419 . S
C1606 C1607 1.362 . S
C1607 H1597 0.930 . S
C1607 C1600 1.409 . S
C1607 C1606 1.362 . S
H1608 C1614 0.930 . S
H1609 C1617 0.930 . S
H1610 C1618 0.930 . S
H1611 C1619 0.930 . S
H1612 C1622 0.930 . S
H1613 C1623 0.930 . S
C1614 H1608 0.930 . S
C1614 C1615 1.355 . S
C1614 C1616 1.415 . S
C1615 C1614 1.355 . S
C1615 C1617 1.419 . S
C1616 C1614 1.415 . S
C1616 C1621 1.425 . S
C1616 C1623 1.409 . S
C1617 H1609 0.930 . S
C1617 C1615 1.419 . S
C1617 C1618 1.362 . S
C1618 H1610 0.930 . S
C1618 C1617 1.362 . S
C1618 C1621 1.409 . S
C1619 H1611 0.930 . S
C1619 C1620 1.355 . S
C1619 C1621 1.415 . S
C1620 C1619 1.355 . S
C1620 C1622 1.419 . S
C1621 C1616 1.425 . S
C1621 C1618 1.409 . S
C1621 C1619 1.415 . S
C1622 H1612 0.930 . S
C1622 C1620 1.419 . S
C1622 C1623 1.362 . S
C1623 H1613 0.930 . S
C1623 C1616 1.409 . S
C1623 C1622 1.362 . S
H1624 C1630 0.930 . S
H1625 C1633 0.930 . S
H1626 C1634 0.930 . S
H1627 C1635 0.930 . S
H1628 C1638 0.930 . S
H1629 C1639 0.930 . S
C1630 H1624 0.930 . S
C1630 C1631 1.355 . S
C1630 C1632 1.415 . S
C1631 C1630 1.355 . S
C1631 C1633 1.419 . S
C1632 C1630 1.415 . S
C1632 C1637 1.425 . S
C1632 C1639 1.409 . S
C1633 H1625 0.930 . S
C1633 C1631 1.419 . S
C1633 C1634 1.362 . S
C1634 H1626 0.930 . S
C1634 C1633 1.362 . S
C1634 C1637 1.409 . S
C1635 H1627 0.930 . S
C1635 C1636 1.355 . S
C1635 C1637 1.415 . S
C1636 C1635 1.355 . S
C1636 C1638 1.419 . S
C1637 C1632 1.425 . S
C1637 C1634 1.409 . S
C1637 C1635 1.415 . S
C1638 H1628 0.930 . S
C1638 C1636 1.419 . S
C1638 C1639 1.362 . S
C1639 H1629 0.930 . S
C1639 C1632 1.409 . S
C1639 C1638 1.362 . S
H1640 C1646 0.930 . S
H1641 C1649 0.930 . S
H1642 C1650 0.930 . S
H1643 C1651 0.930 . S
H1644 C1654 0.930 . S
H1645 C1655 0.930 . S
C1646 H1640 0.930 . S
C1646 C1647 1.355 . S
C1646 C1648 1.415 . S
C1647 C1646 1.355 . S
C1647 C1649 1.419 . S
C1648 C1646 1.415 . S
C1648 C1653 1.425 . S
C1648 C1655 1.409 . S
C1649 H1641 0.930 . S
C1649 C1647 1.419 . S
C1649 C1650 1.362 . S
C1650 H1642 0.930 . S
C1650 C1649 1.362 . S
C1650 C1653 1.409 . S
C1651 H1643 0.930 . S
C1651 C1652 1.355 . S
C1651 C1653 1.415 . S
C1652 C1651 1.355 . S
C1652 C1654 1.419 . S
C1653 C1648 1.425 . S
C1653 C1650 1.409 . S
C1653 C1651 1.415 . S
C1654 H1644 0.930 . S
C1654 C1652 1.419 . S
C1654 C1655 1.362 . S
C1655 H1645 0.930 . S
C1655 C1648 1.409 . S
C1655 C1654 1.362 . S
H1656 C1662 0.930 . S
H1657 C1665 0.930 . S
H1658 C1666 0.930 . S
H1659 C1667 0.930 . S
H1660 C1670 0.930 . S
H1661 C1671 0.930 . S
C1662 H1656 0.930 . S
C1662 C1663 1.355 . S
C1662 C1664 1.415 . S
C1663 C1662 1.355 . S
C1663 C1665 1.419 . S
C1664 C1662 1.415 . S
C1664 C1669 1.425 . S
C1664 C1671 1.409 . S
C1665 H1657 0.930 . S
C1665 C1663 1.419 . S
C1665 C1666 1.362 . S
C1666 H1658 0.930 . S
C1666 C1665 1.362 . S
C1666 C1669 1.409 . S
C1667 H1659 0.930 . S
C1667 C1668 1.355 . S
C1667 C1669 1.415 . S
C1668 C1667 1.355 . S
C1668 C1670 1.419 . S
C1669 C1664 1.425 . S
C1669 C1666 1.409 . S
C1669 C1667 1.415 . S
C1670 H1660 0.930 . S
C1670 C1668 1.419 . S
C1670 C1671 1.362 . S
C1671 H1661 0.930 . S
C1671 C1664 1.409 . S
C1671 C1670 1.362 . S
H1672 C1678 0.930 . S
H1673 C1681 0.930 . S
H1674 C1682 0.930 . S
H1675 C1683 0.930 . S
H1676 C1686 0.930 . S
H1677 C1687 0.930 . S
C1678 H1672 0.930 . S
C1678 C1679 1.355 . S
C1678 C1680 1.415 . S
C1679 C1678 1.355 . S
C1679 C1681 1.419 . S
C1680 C1678 1.415 . S
C1680 C1685 1.425 . S
C1680 C1687 1.409 . S
C1681 H1673 0.930 . S
C1681 C1679 1.419 . S
C1681 C1682 1.362 . S
C1682 H1674 0.930 . S
C1682 C1681 1.362 . S
C1682 C1685 1.409 . S
C1683 H1675 0.930 . S
C1683 C1684 1.355 . S
C1683 C1685 1.415 . S
C1684 C1683 1.355 . S
C1684 C1686 1.419 . S
C1685 C1680 1.425 . S
C1685 C1682 1.409 . S
C1685 C1683 1.415 . S
C1686 H1676 0.930 . S
C1686 C1684 1.419 . S
C1686 C1687 1.362 . S
C1687 H1677 0.930 . S
C1687 C1680 1.409 . S
C1687 C1686 1.362 . S
H1688 C1694 0.930 . S
H1689 C1697 0.930 . S
H1690 C1698 0.930 . S
H1691 C1699 0.930 . S
H1692 C1702 0.930 . S
H1693 C1703 0.930 . S
C1694 H1688 0.930 . S
C1694 C1695 1.355 . S
C1694 C1696 1.415 . S
C1695 C1694 1.355 . S
C1695 C1697 1.419 . S
C1696 C1694 1.415 . S
C1696 C1701 1.425 . S
C1696 C1703 1.409 . S
C1697 H1689 0.930 . S
C1697 C1695 1.419 . S
C1697 C1698 1.362 . S
C1698 H1690 0.930 . S
C1698 C1697 1.362 . S
C1698 C1701 1.409 . S
C1699 H1691 0.930 . S
C1699 C1700 1.355 . S
C1699 C1701 1.415 . S
C1700 C1699 1.355 . S
C1700 C1702 1.419 . S
C1701 C1696 1.425 . S
C1701 C1698 1.409 . S
C1701 C1699 1.415 . S
C1702 H1692 0.930 . S
C1702 C1700 1.419 . S
C1702 C1703 1.362 . S
C1703 H1693 0.930 . S
C1703 C1696 1.409 . S
C1703 C1702 1.362 . S
H1704 C1710 0.930 . S
H1705 C1713 0.930 1_554 S
H1706 C1714 0.930 . S
H1707 C1715 0.930 . S
H1708 C1718 0.930 . S
H1709 C1719 0.930 . S
C1710 H1704 0.930 . S
C1710 C1711 1.355 . S
C1710 C1712 1.415 . S
C1711 C1710 1.355 . S
C1711 C1713 1.419 . S
C1712 C1710 1.415 . S
C1712 C1717 1.425 . S
C1712 C1719 1.409 . S
C1713 H1705 0.930 1_556 S
C1713 C1711 1.419 . S
C1713 C1714 1.362 . S
C1714 H1706 0.930 . S
C1714 C1713 1.362 . S
C1714 C1717 1.409 . S
C1715 H1707 0.930 . S
C1715 C1716 1.355 . S
C1715 C1717 1.415 . S
C1716 C1715 1.355 . S
C1716 C1718 1.419 . S
C1717 C1712 1.425 . S
C1717 C1714 1.409 . S
C1717 C1715 1.415 . S
C1718 H1708 0.930 . S
C1718 C1716 1.419 . S
C1718 C1719 1.362 . S
C1719 H1709 0.930 . S
C1719 C1712 1.409 . S
C1719 C1718 1.362 . S
H1720 C1726 0.930 . S
H1721 C1729 0.930 1_554 S
H1722 C1730 0.908 1_554 S
H1723 C1731 0.930 . S
H1724 C1734 0.930 . S
H1725 C1735 0.930 . S
C1726 H1720 0.930 . S
C1726 C1727 1.355 . S
C1726 C1728 1.415 . S
C1727 C1726 1.355 . S
C1727 C1729 1.419 . S
C1728 C1726 1.415 . S
C1728 C1733 1.425 . S
C1728 C1735 1.409 . S
C1729 H1721 0.930 1_556 S
C1729 C1727 1.419 . S
C1729 C1730 1.362 . S
C1730 H1722 0.908 1_556 S
C1730 C1729 1.362 . S
C1730 C1733 1.409 . S
C1731 H1723 0.930 . S
C1731 C1732 1.355 . S
C1731 C1733 1.415 . S
C1732 C1731 1.355 . S
C1732 C1734 1.419 . S
C1733 C1728 1.425 . S
C1733 C1730 1.409 . S
C1733 C1731 1.415 . S
C1734 H1724 0.930 . S
C1734 C1732 1.419 . S
C1734 C1735 1.362 . S
C1735 H1725 0.930 . S
C1735 C1728 1.409 . S
C1735 C1734 1.362 . S
H1736 C1742 0.930 . S
H1737 C1745 0.930 . S
H1738 C1746 0.930 . S
H1739 C1747 0.930 . S
H1740 C1750 0.930 . S
H1741 C1751 0.930 . S
C1742 H1736 0.930 . S
C1742 C1743 1.355 . S
C1742 C1744 1.415 . S
C1743 C1742 1.355 . S
C1743 C1745 1.419 . S
C1744 C1742 1.415 . S
C1744 C1749 1.425 . S
C1744 C1751 1.409 . S
C1745 H1737 0.930 . S
C1745 C1743 1.419 . S
C1745 C1746 1.362 . S
C1746 H1738 0.930 . S
C1746 C1745 1.362 . S
C1746 C1749 1.409 . S
C1747 H1739 0.930 . S
C1747 C1748 1.355 . S
C1747 C1749 1.415 . S
C1748 C1747 1.355 . S
C1748 C1750 1.419 . S
C1749 C1744 1.425 . S
C1749 C1746 1.409 . S
C1749 C1747 1.415 . S
C1750 H1740 0.930 . S
C1750 C1748 1.419 . S
C1750 C1751 1.362 . S
C1751 H1741 0.930 . S
C1751 C1744 1.409 . S
C1751 C1750 1.362 . S
H1752 C1758 0.930 . S
H1753 C1761 0.930 . S
H1754 C1762 0.930 . S
H1755 C1763 0.930 . S
H1756 C1766 0.930 . S
H1757 C1767 0.930 . S
C1758 H1752 0.930 . S
C1758 C1759 1.355 . S
C1758 C1760 1.415 . S
C1759 C1758 1.355 . S
C1759 C1761 1.419 . S
C1760 C1758 1.415 . S
C1760 C1765 1.425 . S
C1760 C1767 1.409 . S
C1761 H1753 0.930 . S
C1761 C1759 1.419 . S
C1761 C1762 1.362 . S
C1762 H1754 0.930 . S
C1762 C1761 1.362 . S
C1762 C1765 1.409 . S
C1763 H1755 0.930 . S
C1763 C1764 1.355 . S
C1763 C1765 1.415 . S
C1764 C1763 1.355 . S
C1764 C1766 1.419 . S
C1765 C1760 1.425 . S
C1765 C1762 1.409 . S
C1765 C1763 1.415 . S
C1766 H1756 0.930 . S
C1766 C1764 1.419 . S
C1766 C1767 1.362 . S
C1767 H1757 0.930 . S
C1767 C1760 1.409 . S
C1767 C1766 1.362 . S
H1768 C1774 0.930 . S
H1769 C1777 0.930 . S
H1770 C1778 0.930 . S
H1771 C1779 0.930 . S
H1772 C1782 0.930 . S
H1773 C1783 0.930 . S
C1774 H1768 0.930 . S
C1774 C1775 1.355 . S
C1774 C1776 1.415 . S
C1775 C1774 1.355 . S
C1775 C1777 1.419 . S
C1776 C1774 1.415 . S
C1776 C1781 1.425 . S
C1776 C1783 1.409 . S
C1777 H1769 0.930 . S
C1777 C1775 1.419 . S
C1777 C1778 1.362 . S
C1778 H1770 0.930 . S
C1778 C1777 1.362 . S
C1778 C1781 1.409 . S
C1779 H1771 0.930 . S
C1779 C1780 1.355 . S
C1779 C1781 1.415 . S
C1780 C1779 1.355 . S
C1780 C1782 1.419 . S
C1781 C1776 1.425 . S
C1781 C1778 1.409 . S
C1781 C1779 1.415 . S
C1782 H1772 0.930 . S
C1782 C1780 1.419 . S
C1782 C1783 1.362 . S
C1783 H1773 0.930 . S
C1783 C1776 1.409 . S
C1783 C1782 1.362 . S
H1784 C1790 0.930 . S
H1785 C1793 0.930 . S
H1786 C1794 0.930 . S
H1787 C1795 0.930 . S
H1788 C1798 0.930 . S
H1789 C1799 0.930 . S
C1790 H1784 0.930 . S
C1790 C1791 1.355 . S
C1790 C1792 1.415 . S
C1791 C1790 1.355 . S
C1791 C1793 1.419 . S
C1792 C1790 1.415 . S
C1792 C1797 1.425 . S
C1792 C1799 1.409 . S
C1793 H1785 0.930 . S
C1793 C1791 1.419 . S
C1793 C1794 1.362 . S
C1794 H1786 0.930 . S
C1794 C1793 1.362 . S
C1794 C1797 1.409 . S
C1795 H1787 0.930 . S
C1795 C1796 1.355 . S
C1795 C1797 1.415 . S
C1796 C1795 1.355 . S
C1796 C1798 1.419 . S
C1797 C1792 1.425 . S
C1797 C1794 1.409 . S
C1797 C1795 1.415 . S
C1798 H1788 0.930 . S
C1798 C1796 1.419 . S
C1798 C1799 1.362 . S
C1799 H1789 0.930 . S
C1799 C1792 1.409 . S
C1799 C1798 1.362 . S
H1800 C1806 0.930 . S
H1801 C1809 0.930 . S
H1802 C1810 0.930 . S
H1803 C1811 0.930 . S
H1804 C1814 0.930 . S
H1805 C1815 0.930 . S
C1806 H1800 0.930 . S
C1806 C1807 1.355 . S
C1806 C1808 1.415 . S
C1807 C1806 1.355 . S
C1807 C1809 1.419 . S
C1808 C1806 1.415 . S
C1808 C1813 1.425 . S
C1808 C1815 1.409 . S
C1809 H1801 0.930 . S
C1809 C1807 1.419 . S
C1809 C1810 1.362 . S
C1810 H1802 0.930 . S
C1810 C1809 1.362 . S
C1810 C1813 1.409 . S
C1811 H1803 0.930 . S
C1811 C1812 1.355 . S
C1811 C1813 1.415 . S
C1812 C1811 1.355 . S
C1812 C1814 1.419 . S
C1813 C1808 1.425 . S
C1813 C1810 1.409 . S
C1813 C1811 1.415 . S
C1814 H1804 0.930 . S
C1814 C1812 1.419 . S
C1814 C1815 1.362 . S
C1815 H1805 0.930 . S
C1815 C1808 1.409 . S
C1815 C1814 1.362 . S
H1816 C1822 0.930 . S
H1817 C1825 0.930 . S
H1818 C1826 0.930 . S
H1819 C1827 0.930 . S
H1820 C1830 0.930 . S
H1821 C1831 0.930 . S
C1822 H1816 0.930 . S
C1822 C1823 1.355 . S
C1822 C1824 1.415 . S
C1823 C1822 1.355 . S
C1823 C1825 1.419 . S
C1824 C1822 1.415 . S
C1824 C1829 1.425 . S
C1824 C1831 1.409 . S
C1825 H1817 0.930 . S
C1825 C1823 1.419 . S
C1825 C1826 1.362 . S
C1826 H1818 0.930 . S
C1826 C1825 1.362 . S
C1826 C1829 1.409 . S
C1827 H1819 0.930 . S
C1827 C1828 1.355 . S
C1827 C1829 1.415 . S
C1828 C1827 1.355 . S
C1828 C1830 1.419 . S
C1829 C1824 1.425 . S
C1829 C1826 1.409 . S
C1829 C1827 1.415 . S
C1830 H1820 0.930 . S
C1830 C1828 1.419 . S
C1830 C1831 1.362 . S
C1831 H1821 0.930 . S
C1831 C1824 1.409 . S
C1831 C1830 1.362 . S
H1832 C1838 0.930 . S
H1833 C1841 0.930 . S
H1834 C1842 0.930 . S
H1835 C1843 0.930 . S
H1836 C1846 0.930 . S
H1837 C1847 0.930 . S
C1838 H1832 0.930 . S
C1838 C1839 1.355 . S
C1838 C1840 1.415 . S
C1839 C1838 1.355 . S
C1839 C1841 1.419 . S
C1840 C1838 1.415 . S
C1840 C1845 1.425 . S
C1840 C1847 1.409 . S
C1841 H1833 0.930 . S
C1841 C1839 1.419 . S
C1841 C1842 1.362 . S
C1842 H1834 0.930 . S
C1842 C1841 1.362 . S
C1842 C1845 1.409 . S
C1843 H1835 0.930 . S
C1843 C1844 1.355 . S
C1843 C1845 1.415 . S
C1844 C1843 1.355 . S
C1844 C1846 1.419 . S
C1845 C1840 1.425 . S
C1845 C1842 1.409 . S
C1845 C1843 1.415 . S
C1846 H1836 0.930 . S
C1846 C1844 1.419 . S
C1846 C1847 1.362 . S
C1847 H1837 0.930 . S
C1847 C1840 1.409 . S
C1847 C1846 1.362 . S
H1848 C1854 0.930 . S
H1849 C1857 0.930 . S
H1850 C1858 0.930 . S
H1851 C1859 0.930 . S
H1852 C1862 0.930 . S
H1853 C1863 0.930 . S
C1854 H1848 0.930 . S
C1854 C1855 1.355 . S
C1854 C1856 1.415 . S
C1855 C1854 1.355 . S
C1855 C1857 1.419 . S
C1856 C1854 1.415 . S
C1856 C1861 1.425 . S
C1856 C1863 1.409 . S
C1857 H1849 0.930 . S
C1857 C1855 1.419 . S
C1857 C1858 1.362 . S
C1858 H1850 0.930 . S
C1858 C1857 1.362 . S
C1858 C1861 1.409 . S
C1859 H1851 0.930 . S
C1859 C1860 1.355 . S
C1859 C1861 1.415 . S
C1860 C1859 1.355 . S
C1860 C1862 1.419 . S
C1861 C1856 1.425 . S
C1861 C1858 1.409 . S
C1861 C1859 1.415 . S
C1862 H1852 0.930 . S
C1862 C1860 1.419 . S
C1862 C1863 1.362 . S
C1863 H1853 0.930 . S
C1863 C1856 1.409 . S
C1863 C1862 1.362 . S
H1864 C1870 0.930 . S
H1865 C1873 0.930 . S
H1866 C1874 0.930 . S
H1867 C1875 0.930 . S
H1868 C1878 0.930 . S
H1869 C1879 0.930 . S
C1870 H1864 0.930 . S
C1870 C1871 1.355 . S
C1870 C1872 1.415 . S
C1871 C1870 1.355 . S
C1871 C1873 1.419 . S
C1872 C1870 1.415 . S
C1872 C1877 1.425 . S
C1872 C1879 1.409 . S
C1873 H1865 0.930 . S
C1873 C1871 1.419 . S
C1873 C1874 1.362 . S
C1874 H1866 0.930 . S
C1874 C1873 1.362 . S
C1874 C1877 1.409 . S
C1875 H1867 0.930 . S
C1875 C1876 1.355 . S
C1875 C1877 1.415 . S
C1876 C1875 1.355 . S
C1876 C1878 1.419 . S
C1877 C1872 1.425 . S
C1877 C1874 1.409 . S
C1877 C1875 1.415 . S
C1878 H1868 0.930 . S
C1878 C1876 1.419 . S
C1878 C1879 1.362 . S
C1879 H1869 0.930 . S
C1879 C1872 1.409 . S
C1879 C1878 1.362 . S
H1880 C1886 0.930 . S
H1881 C1889 0.930 . S
H1882 C1890 0.930 . S
H1883 C1891 0.930 . S
H1884 C1894 0.930 . S
H1885 C1895 0.930 . S
C1886 H1880 0.930 . S
C1886 C1887 1.355 . S
C1886 C1888 1.415 . S
C1887 C1886 1.355 . S
C1887 C1889 1.419 . S
C1888 C1886 1.415 . S
C1888 C1893 1.425 . S
C1888 C1895 1.409 . S
C1889 H1881 0.930 . S
C1889 C1887 1.419 . S
C1889 C1890 1.362 . S
C1890 H1882 0.930 . S
C1890 C1889 1.362 . S
C1890 C1893 1.409 . S
C1891 H1883 0.930 . S
C1891 C1892 1.355 . S
C1891 C1893 1.415 . S
C1892 C1891 1.355 . S
C1892 C1894 1.419 . S
C1893 C1888 1.425 . S
C1893 C1890 1.409 . S
C1893 C1891 1.415 . S
C1894 H1884 0.930 . S
C1894 C1892 1.419 . S
C1894 C1895 1.362 . S
C1895 H1885 0.930 . S
C1895 C1888 1.409 . S
C1895 C1894 1.362 . S
H1896 C1902 0.930 . S
H1897 C1905 0.930 . S
H1898 C1906 0.930 . S
H1899 C1907 0.930 . S
H1900 C1910 0.930 . S
H1901 C1911 0.930 . S
C1902 H1896 0.930 . S
C1902 C1903 1.355 1_655 S
C1902 C1904 1.415 . S
C1903 C1902 1.355 1_455 S
C1903 C1905 1.419 . S
C1904 C1902 1.415 . S
C1904 C1909 1.425 1_655 S
C1904 C1911 1.409 . S
C1905 H1897 0.930 . S
C1905 C1903 1.419 . S
C1905 C1906 1.362 . S
C1906 H1898 0.930 . S
C1906 C1905 1.362 . S
C1906 C1909 1.409 . S
C1907 H1899 0.930 . S
C1907 C1908 1.355 . S
C1907 C1909 1.415 . S
C1908 C1907 1.355 . S
C1908 C1910 1.419 1_455 S
C1909 C1904 1.425 1_455 S
C1909 C1906 1.409 . S
C1909 C1907 1.415 . S
C1910 H1900 0.930 . S
C1910 C1908 1.419 1_655 S
C1910 C1911 1.362 . S
C1911 H1901 0.930 . S
C1911 C1904 1.409 . S
C1911 C1910 1.362 . S
H1912 C1918 0.930 . S
H1913 C1921 0.930 . S
H1914 C1922 0.930 . S
H1915 C1923 0.930 . S
H1916 C1926 0.930 . S
H1917 C1927 0.930 . S
C1918 H1912 0.930 . S
C1918 C1919 1.355 . S
C1918 C1920 1.415 . S
C1919 C1918 1.355 . S
C1919 C1921 1.419 . S
C1920 C1918 1.415 . S
C1920 C1925 1.425 . S
C1920 C1927 1.409 . S
C1921 H1913 0.930 . S
C1921 C1919 1.419 . S
C1921 C1922 1.362 . S
C1922 H1914 0.930 . S
C1922 C1921 1.362 . S
C1922 C1925 1.409 . S
C1923 H1915 0.930 . S
C1923 C1924 1.355 . S
C1923 C1925 1.415 . S
C1924 C1923 1.355 . S
C1924 C1926 1.419 . S
C1925 C1920 1.425 . S
C1925 C1922 1.409 . S
C1925 C1923 1.415 . S
C1926 H1916 0.930 . S
C1926 C1924 1.419 . S
C1926 C1927 1.362 . S
C1927 H1917 0.930 . S
C1927 C1920 1.409 . S
C1927 C1926 1.362 . S
H1928 C1934 0.930 . S
H1929 C1937 0.918 1_545 S
H1930 C1938 0.942 . S
H1931 C1939 0.929 . S
H1932 C1942 0.930 . S
H1933 C1943 0.930 . S
C1934 H1928 0.930 . S
C1934 C1935 1.355 . S
C1934 C1936 1.415 . S
C1935 C1934 1.355 . S
C1935 C1937 1.424 . S
C1936 C1934 1.415 . S
C1936 C1941 1.425 . S
C1936 C1943 1.409 . S
C1937 H1929 0.918 1_565 S
C1937 C1935 1.424 . S
C1937 C1938 1.384 1_565 S
C1938 H1930 0.942 . S
C1938 C1937 1.384 1_545 S
C1938 C1941 1.384 1_545 S
C1939 H1931 0.929 . S
C1939 C1940 1.355 . S
C1939 C1941 1.415 . S
C1940 C1939 1.355 . S
C1940 C1942 1.419 . S
C1941 C1936 1.425 . S
C1941 C1938 1.384 1_565 S
C1941 C1939 1.415 . S
C1942 H1932 0.930 . S
C1942 C1940 1.419 . S
C1942 C1943 1.362 . S
C1943 H1933 0.930 . S
C1943 C1936 1.409 . S
C1943 C1942 1.362 . S
H1944 C1950 0.930 . S
H1945 C1953 0.927 . S
H1946 C1954 0.930 . S
H1947 C1955 0.943 . S
H1948 C1958 0.930 . S
H1949 C1959 0.930 . S
C1950 H1944 0.930 . S
C1950 C1951 1.355 . S
C1950 C1952 1.415 . S
C1951 C1950 1.355 . S
C1951 C1953 1.416 1_565 S
C1952 C1950 1.415 . S
C1952 C1957 1.425 . S
C1952 C1959 1.409 . S
C1953 H1945 0.927 . S
C1953 C1951 1.416 1_545 S
C1953 C1954 1.368 . S
C1954 H1946 0.930 . S
C1954 C1953 1.368 . S
C1954 C1957 1.409 1_545 S
C1955 H1947 0.943 . S
C1955 C1956 1.365 1_545 S
C1955 C1957 1.393 1_545 S
C1956 C1955 1.365 1_565 S
C1956 C1958 1.419 . S
C1957 C1952 1.425 . S
C1957 C1954 1.409 1_565 S
C1957 C1955 1.393 1_565 S
C1958 H1948 0.930 . S
C1958 C1956 1.419 . S
C1958 C1959 1.362 . S
C1959 H1949 0.930 . S
C1959 C1952 1.409 . S
C1959 C1958 1.362 . S
H1960 C1966 0.930 . S
H1961 C1969 0.930 . S
H1962 C1970 0.930 . S
H1963 C1971 0.930 . S
H1964 C1974 0.930 . S
H1965 C1975 0.930 . S
C1966 H1960 0.930 . S
C1966 C1967 1.355 . S
C1966 C1968 1.415 . S
C1967 C1966 1.355 . S
C1967 C1969 1.419 1_455 S
C1968 C1966 1.415 . S
C1968 C1973 1.416 1_455 S
C1968 C1975 1.409 . S
C1969 H1961 0.930 . S
C1969 C1967 1.419 1_655 S
C1969 C1970 1.362 . S
C1970 H1962 0.930 . S
C1970 C1969 1.362 . S
C1970 C1973 1.435 . S
C1971 H1963 0.930 . S
C1971 C1972 1.355 1_655 S
C1971 C1973 1.400 . S
C1972 C1971 1.355 1_455 S
C1972 C1974 1.419 . S
C1973 C1968 1.416 1_655 S
C1973 C1970 1.435 . S
C1973 C1971 1.400 . S
C1974 H1964 0.930 . S
C1974 C1972 1.419 . S
C1974 C1975 1.362 . S
C1975 H1965 0.930 . S
C1975 C1968 1.409 . S
C1975 C1974 1.362 . S
H1976 C1982 0.930 . S
H1977 C1985 0.930 . S
H1978 C1986 0.930 . S
H1979 C1987 0.930 . S
H1980 C1990 0.930 . S
H1981 C1991 0.930 . S
C1982 H1976 0.930 . S
C1982 C1983 1.355 . S
C1982 C1984 1.415 . S
C1983 C1982 1.355 . S
C1983 C1985 1.419 . S
C1984 C1982 1.415 . S
C1984 C1989 1.425 . S
C1984 C1991 1.409 . S
C1985 H1977 0.930 . S
C1985 C1983 1.419 . S
C1985 C1986 1.362 . S
C1986 H1978 0.930 . S
C1986 C1985 1.362 . S
C1986 C1989 1.409 . S
C1987 H1979 0.930 . S
C1987 C1988 1.355 . S
C1987 C1989 1.415 . S
C1988 C1987 1.355 . S
C1988 C1990 1.419 . S
C1989 C1984 1.425 . S
C1989 C1986 1.409 . S
C1989 C1987 1.415 . S
C1990 H1980 0.930 . S
C1990 C1988 1.419 . S
C1990 C1991 1.362 . S
C1991 H1981 0.930 . S
C1991 C1984 1.409 . S
C1991 C1990 1.362 . S
H1992 C1998 0.930 . S
H1993 C2001 0.930 . S
H1994 C2002 0.930 . S
H1995 C2003 0.930 . S
H1996 C2006 0.930 . S
H1997 C2007 0.930 . S
C1998 H1992 0.930 . S
C1998 C1999 1.355 . S
C1998 C2000 1.415 . S
C1999 C1998 1.355 . S
C1999 C2001 1.419 . S
C2000 C1998 1.415 . S
C2000 C2005 1.425 . S
C2000 C2007 1.409 . S
C2001 H1993 0.930 . S
C2001 C1999 1.419 . S
C2001 C2002 1.362 . S
C2002 H1994 0.930 . S
C2002 C2001 1.362 . S
C2002 C2005 1.409 . S
C2003 H1995 0.930 . S
C2003 C2004 1.355 . S
C2003 C2005 1.415 . S
C2004 C2003 1.355 . S
C2004 C2006 1.419 . S
C2005 C2000 1.425 . S
C2005 C2002 1.409 . S
C2005 C2003 1.415 . S
C2006 H1996 0.930 . S
C2006 C2004 1.419 . S
C2006 C2007 1.362 . S
C2007 H1997 0.930 . S
C2007 C2000 1.409 . S
C2007 C2006 1.362 . S
H2008 C2014 0.930 . S
H2009 C2017 0.930 . S
H2010 C2018 0.930 . S
H2011 C2019 0.930 . S
H2012 C2022 0.930 . S
H2013 C2023 0.930 . S
C2014 H2008 0.930 . S
C2014 C2015 1.355 . S
C2014 C2016 1.415 . S
C2015 C2014 1.355 . S
C2015 C2017 1.419 . S
C2016 C2014 1.415 . S
C2016 C2021 1.425 . S
C2016 C2023 1.409 . S
C2017 H2009 0.930 . S
C2017 C2015 1.419 . S
C2017 C2018 1.362 . S
C2018 H2010 0.930 . S
C2018 C2017 1.362 . S
C2018 C2021 1.409 . S
C2019 H2011 0.930 . S
C2019 C2020 1.355 . S
C2019 C2021 1.415 . S
C2020 C2019 1.355 . S
C2020 C2022 1.419 . S
C2021 C2016 1.425 . S
C2021 C2018 1.409 . S
C2021 C2019 1.415 . S
C2022 H2012 0.930 . S
C2022 C2020 1.419 . S
C2022 C2023 1.362 . S
C2023 H2013 0.930 . S
C2023 C2016 1.409 . S
C2023 C2022 1.362 . S
H2024 C2030 0.930 . S
H2025 C2033 0.930 . S
H2026 C2034 0.930 . S
H2027 C2035 0.930 . S
H2028 C2038 0.930 . S
H2029 C2039 0.930 . S
C2030 H2024 0.930 . S
C2030 C2031 1.355 . S
C2030 C2032 1.415 . S
C2031 C2030 1.355 . S
C2031 C2033 1.419 . S
C2032 C2030 1.415 . S
C2032 C2037 1.425 . S
C2032 C2039 1.409 . S
C2033 H2025 0.930 . S
C2033 C2031 1.419 . S
C2033 C2034 1.362 . S
C2034 H2026 0.930 . S
C2034 C2033 1.362 . S
C2034 C2037 1.409 . S
C2035 H2027 0.930 . S
C2035 C2036 1.355 . S
C2035 C2037 1.415 . S
C2036 C2035 1.355 . S
C2036 C2038 1.419 . S
C2037 C2032 1.425 . S
C2037 C2034 1.409 . S
C2037 C2035 1.415 . S
C2038 H2028 0.930 . S
C2038 C2036 1.419 . S
C2038 C2039 1.362 . S
C2039 H2029 0.930 . S
C2039 C2032 1.409 . S
C2039 C2038 1.362 . S
H2040 C2046 0.905 1_565 S
H2041 C2049 0.930 . S
H2042 C2050 0.930 . S
H2043 C2051 0.930 . S
H2044 C2054 0.930 . S
H2045 C2055 0.930 . S
C2046 H2040 0.905 1_545 S
C2046 C2047 1.404 . S
C2046 C2048 1.393 . S
C2047 C2046 1.404 . S
C2047 C2049 1.419 . S
C2048 C2046 1.393 . S
C2048 C2053 1.425 . S
C2048 C2055 1.409 1_545 S
C2049 H2041 0.930 . S
C2049 C2047 1.419 . S
C2049 C2050 1.362 . S
C2050 H2042 0.930 . S
C2050 C2049 1.362 . S
C2050 C2053 1.409 . S
C2051 H2043 0.930 . S
C2051 C2052 1.355 . S
C2051 C2053 1.415 . S
C2052 C2051 1.355 . S
C2052 C2054 1.419 1_545 S
C2053 C2048 1.425 . S
C2053 C2050 1.409 . S
C2053 C2051 1.415 . S
C2054 H2044 0.930 . S
C2054 C2052 1.419 1_565 S
C2054 C2055 1.362 . S
C2055 H2045 0.930 . S
C2055 C2048 1.409 1_565 S
C2055 C2054 1.362 . S
H2056 C2062 0.930 . S
H2057 C2065 0.930 . S
H2058 C2066 0.930 . S
H2059 C2067 0.930 . S
H2060 C2070 0.930 . S
H2061 C2071 0.930 . S
C2062 H2056 0.930 . S
C2062 C2063 1.355 . S
C2062 C2064 1.415 . S
C2063 C2062 1.355 . S
C2063 C2065 1.419 1_655 S
C2064 C2062 1.415 . S
C2064 C2069 1.425 1_655 S
C2064 C2071 1.409 . S
C2065 H2057 0.930 . S
C2065 C2063 1.419 1_455 S
C2065 C2066 1.362 . S
C2066 H2058 0.930 . S
C2066 C2065 1.362 . S
C2066 C2069 1.409 . S
C2067 H2059 0.930 . S
C2067 C2068 1.355 1_455 S
C2067 C2069 1.415 . S
C2068 C2067 1.355 1_655 S
C2068 C2070 1.419 . S
C2069 C2064 1.425 1_455 S
C2069 C2066 1.409 . S
C2069 C2067 1.415 . S
C2070 H2060 0.930 . S
C2070 C2068 1.419 . S
C2070 C2071 1.362 . S
C2071 H2061 0.930 . S
C2071 C2064 1.409 . S
C2071 C2070 1.362 . S
H2072 C2078 0.930 . S
H2073 C2081 0.930 . S
H2074 C2082 0.930 . S
H2075 C2083 0.930 . S
H2076 C2086 0.930 . S
H2077 C2087 0.930 . S
C2078 H2072 0.930 . S
C2078 C2079 1.355 . S
C2078 C2080 1.415 . S
C2079 C2078 1.355 . S
C2079 C2081 1.419 . S
C2080 C2078 1.415 . S
C2080 C2085 1.425 . S
C2080 C2087 1.409 . S
C2081 H2073 0.930 . S
C2081 C2079 1.419 . S
C2081 C2082 1.362 . S
C2082 H2074 0.930 . S
C2082 C2081 1.362 . S
C2082 C2085 1.409 . S
C2083 H2075 0.930 . S
C2083 C2084 1.355 . S
C2083 C2085 1.415 . S
C2084 C2083 1.355 . S
C2084 C2086 1.419 . S
C2085 C2080 1.425 . S
C2085 C2082 1.409 . S
C2085 C2083 1.415 . S
C2086 H2076 0.930 . S
C2086 C2084 1.419 . S
C2086 C2087 1.362 . S
C2087 H2077 0.930 . S
C2087 C2080 1.409 . S
C2087 C2086 1.362 . S
H2088 C2094 0.930 . S
H2089 C2097 0.930 . S
H2090 C2098 0.930 . S
H2091 C2099 0.930 . S
H2092 C2102 0.930 . S
H2093 C2103 0.930 . S
C2094 H2088 0.930 . S
C2094 C2095 1.355 . S
C2094 C2096 1.415 . S
C2095 C2094 1.355 . S
C2095 C2097 1.419 . S
C2096 C2094 1.415 . S
C2096 C2101 1.425 . S
C2096 C2103 1.409 . S
C2097 H2089 0.930 . S
C2097 C2095 1.419 . S
C2097 C2098 1.362 . S
C2098 H2090 0.930 . S
C2098 C2097 1.362 . S
C2098 C2101 1.409 . S
C2099 H2091 0.930 . S
C2099 C2100 1.355 . S
C2099 C2101 1.415 . S
C2100 C2099 1.355 . S
C2100 C2102 1.419 . S
C2101 C2096 1.425 . S
C2101 C2098 1.409 . S
C2101 C2099 1.415 . S
C2102 H2092 0.930 . S
C2102 C2100 1.419 . S
C2102 C2103 1.362 . S
C2103 H2093 0.930 . S
C2103 C2096 1.409 . S
C2103 C2102 1.362 . S
H2104 C2110 0.930 . S
H2105 C2113 0.930 . S
H2106 C2114 0.930 . S
H2107 C2115 0.930 . S
H2108 C2118 0.930 . S
H2109 C2119 0.930 . S
C2110 H2104 0.930 . S
C2110 C2111 1.355 . S
C2110 C2112 1.415 . S
C2111 C2110 1.355 . S
C2111 C2113 1.419 . S
C2112 C2110 1.415 . S
C2112 C2117 1.425 . S
C2112 C2119 1.409 . S
C2113 H2105 0.930 . S
C2113 C2111 1.419 . S
C2113 C2114 1.362 . S
C2114 H2106 0.930 . S
C2114 C2113 1.362 . S
C2114 C2117 1.409 . S
C2115 H2107 0.930 . S
C2115 C2116 1.355 . S
C2115 C2117 1.415 . S
C2116 C2115 1.355 . S
C2116 C2118 1.419 . S
C2117 C2112 1.425 . S
C2117 C2114 1.409 . S
C2117 C2115 1.415 . S
C2118 H2108 0.930 . S
C2118 C2116 1.419 . S
C2118 C2119 1.362 . S
C2119 H2109 0.930 . S
C2119 C2112 1.409 . S
C2119 C2118 1.362 . S
H2120 C2126 0.930 . S
H2121 C2129 0.930 . S
H2122 C2130 0.930 . S
H2123 C2131 0.930 . S
H2124 C2134 0.930 . S
H2125 C2135 0.930 . S
C2126 H2120 0.930 . S
C2126 C2127 1.355 . S
C2126 C2128 1.415 . S
C2127 C2126 1.355 . S
C2127 C2129 1.419 . S
C2128 C2126 1.415 . S
C2128 C2133 1.425 . S
C2128 C2135 1.409 . S
C2129 H2121 0.930 . S
C2129 C2127 1.419 . S
C2129 C2130 1.362 . S
C2130 H2122 0.930 . S
C2130 C2129 1.362 . S
C2130 C2133 1.409 . S
C2131 H2123 0.930 . S
C2131 C2132 1.355 . S
C2131 C2133 1.415 . S
C2132 C2131 1.355 . S
C2132 C2134 1.419 . S
C2133 C2128 1.425 . S
C2133 C2130 1.409 . S
C2133 C2131 1.415 . S
C2134 H2124 0.930 . S
C2134 C2132 1.419 . S
C2134 C2135 1.362 . S
C2135 H2125 0.930 . S
C2135 C2128 1.409 . S
C2135 C2134 1.362 . S
H2136 C2142 0.930 . S
H2137 C2145 0.930 . S
H2138 C2146 0.930 . S
H2139 C2147 0.930 . S
H2140 C2150 0.930 . S
H2141 C2151 0.930 . S
C2142 H2136 0.930 . S
C2142 C2143 1.355 . S
C2142 C2144 1.415 . S
C2143 C2142 1.355 . S
C2143 C2145 1.419 . S
C2144 C2142 1.415 . S
C2144 C2149 1.425 . S
C2144 C2151 1.409 . S
C2145 H2137 0.930 . S
C2145 C2143 1.419 . S
C2145 C2146 1.362 . S
C2146 H2138 0.930 . S
C2146 C2145 1.362 . S
C2146 C2149 1.409 . S
C2147 H2139 0.930 . S
C2147 C2148 1.355 . S
C2147 C2149 1.415 . S
C2148 C2147 1.355 . S
C2148 C2150 1.419 . S
C2149 C2144 1.425 . S
C2149 C2146 1.409 . S
C2149 C2147 1.415 . S
C2150 H2140 0.930 . S
C2150 C2148 1.419 . S
C2150 C2151 1.362 . S
C2151 H2141 0.930 . S
C2151 C2144 1.409 . S
C2151 C2150 1.362 . S
H2152 C2158 0.930 . S
H2153 C2161 0.930 . S
H2154 C2162 0.930 . S
H2155 C2163 0.930 . S
H2156 C2166 0.930 . S
H2157 C2167 0.930 . S
C2158 H2152 0.930 . S
C2158 C2159 1.355 . S
C2158 C2160 1.415 . S
C2159 C2158 1.355 . S
C2159 C2161 1.419 . S
C2160 C2158 1.415 . S
C2160 C2165 1.425 . S
C2160 C2167 1.409 . S
C2161 H2153 0.930 . S
C2161 C2159 1.419 . S
C2161 C2162 1.362 . S
C2162 H2154 0.930 . S
C2162 C2161 1.362 . S
C2162 C2165 1.409 . S
C2163 H2155 0.930 . S
C2163 C2164 1.355 . S
C2163 C2165 1.415 . S
C2164 C2163 1.355 . S
C2164 C2166 1.419 . S
C2165 C2160 1.425 . S
C2165 C2162 1.409 . S
C2165 C2163 1.415 . S
C2166 H2156 0.930 . S
C2166 C2164 1.419 . S
C2166 C2167 1.362 . S
C2167 H2157 0.930 . S
C2167 C2160 1.409 . S
C2167 C2166 1.362 . S
H2168 C2174 0.930 . S
H2169 C2177 0.930 . S
H2170 C2178 0.930 . S
H2171 C2179 0.930 . S
H2172 C2182 0.930 . S
H2173 C2183 0.930 . S
C2174 H2168 0.930 . S
C2174 C2175 1.355 . S
C2174 C2176 1.415 . S
C2175 C2174 1.355 . S
C2175 C2177 1.419 . S
C2176 C2174 1.415 . S
C2176 C2181 1.425 . S
C2176 C2183 1.409 . S
C2177 H2169 0.930 . S
C2177 C2175 1.419 . S
C2177 C2178 1.362 . S
C2178 H2170 0.930 . S
C2178 C2177 1.362 . S
C2178 C2181 1.409 . S
C2179 H2171 0.930 . S
C2179 C2180 1.355 . S
C2179 C2181 1.415 . S
C2180 C2179 1.355 . S
C2180 C2182 1.419 . S
C2181 C2176 1.425 . S
C2181 C2178 1.409 . S
C2181 C2179 1.415 . S
C2182 H2172 0.930 . S
C2182 C2180 1.419 . S
C2182 C2183 1.362 . S
C2183 H2173 0.930 . S
C2183 C2176 1.409 . S
C2183 C2182 1.362 . S
H2184 C2190 0.930 . S
H2185 C2193 0.916 . S
H2186 C2194 0.930 . S
H2187 C2195 0.934 . S
H2188 C2198 0.930 . S
H2189 C2199 0.930 . S
C2190 H2184 0.930 . S
C2190 C2191 1.355 . S
C2190 C2192 1.415 . S
C2191 C2190 1.355 . S
C2191 C2193 1.411 1_655 S
C2192 C2190 1.415 . S
C2192 C2197 1.425 . S
C2192 C2199 1.409 . S
C2193 H2185 0.916 . S
C2193 C2191 1.411 1_455 S
C2193 C2194 1.388 . S
C2194 H2186 0.930 . S
C2194 C2193 1.388 . S
C2194 C2197 1.409 1_455 S
C2195 H2187 0.934 . S
C2195 C2196 1.362 1_455 S
C2195 C2197 1.404 1_455 S
C2196 C2195 1.362 1_655 S
C2196 C2198 1.419 . S
C2197 C2192 1.425 . S
C2197 C2194 1.409 1_655 S
C2197 C2195 1.404 1_655 S
C2198 H2188 0.930 . S
C2198 C2196 1.419 . S
C2198 C2199 1.362 . S
C2199 H2189 0.930 . S
C2199 C2192 1.409 . S
C2199 C2198 1.362 . S
H2200 C2206 0.930 . S
H2201 C2209 0.930 . S
H2202 C2210 0.930 . S
H2203 C2211 0.930 . S
H2204 C2214 0.930 . S
H2205 C2215 0.930 . S
C2206 H2200 0.930 . S
C2206 C2207 1.355 . S
C2206 C2208 1.415 . S
C2207 C2206 1.355 . S
C2207 C2209 1.419 . S
C2208 C2206 1.415 . S
C2208 C2213 1.425 . S
C2208 C2215 1.409 . S
C2209 H2201 0.930 . S
C2209 C2207 1.419 . S
C2209 C2210 1.362 . S
C2210 H2202 0.930 . S
C2210 C2209 1.362 . S
C2210 C2213 1.409 . S
C2211 H2203 0.930 . S
C2211 C2212 1.355 . S
C2211 C2213 1.415 . S
C2212 C2211 1.355 . S
C2212 C2214 1.419 . S
C2213 C2208 1.425 . S
C2213 C2210 1.409 . S
C2213 C2211 1.415 . S
C2214 H2204 0.930 . S
C2214 C2212 1.419 . S
C2214 C2215 1.362 . S
C2215 H2205 0.930 . S
C2215 C2208 1.409 . S
C2215 C2214 1.362 . S
H2216 C2222 0.930 . S
H2217 C2225 0.930 . S
H2218 C2226 0.930 . S
H2219 C2227 0.930 . S
H2220 C2230 0.930 . S
H2221 C2231 0.930 . S
C2222 H2216 0.930 . S
C2222 C2223 1.355 . S
C2222 C2224 1.415 . S
C2223 C2222 1.355 . S
C2223 C2225 1.419 1_545 S
C2224 C2222 1.415 . S
C2224 C2229 1.425 1_545 S
C2224 C2231 1.409 . S
C2225 H2217 0.930 . S
C2225 C2223 1.419 1_565 S
C2225 C2226 1.362 . S
C2226 H2218 0.930 . S
C2226 C2225 1.362 . S
C2226 C2229 1.409 . S
C2227 H2219 0.930 . S
C2227 C2228 1.355 1_565 S
C2227 C2229 1.415 . S
C2228 C2227 1.355 1_545 S
C2228 C2230 1.419 . S
C2229 C2224 1.425 1_565 S
C2229 C2226 1.409 . S
C2229 C2227 1.415 . S
C2230 H2220 0.930 . S
C2230 C2228 1.419 . S
C2230 C2231 1.362 . S
C2231 H2221 0.930 . S
C2231 C2224 1.409 . S
C2231 C2230 1.362 . S
C1087 C9 1.431 1_655 S
C1092 C688 1.465 . S
C1103 C19 1.575 . S
C1108 C734 1.534 . S
C1124 C766 1.500 . S
C1119 C33 1.477 . S
C1135 C37 1.472 1_565 S
C1140 C819 1.472 . S
C1151 C5 1.456 . S
C1156 C865 1.457 . S
C1167 C23 1.618 . S
C1172 C904 1.618 . S
C1183 C47 1.449 . S
C1188 C858 1.472 . S
C1204 C911 1.611 . S
C1199 C65 1.634 . S
C1220 C812 1.466 . S
C1215 C75 1.474 . S
C1231 C79 1.403 . S
C1236 C773 1.421 . S
C1252 C667 1.499 . S
C1247 C51 1.460 . S
C1263 C61 1.607 . S
C1268 C713 1.571 . S
C1279 C93 1.717 . S
C1284 C943 1.675 . S
C1295 C103 1.641 . S
C1300 C1010 1.613 . S
C1316 C1056 1.645 . S
C1311 C117 1.658 . S
C1327 C121 1.625 . S
C1332 C267 1.615 . S
C1343 C89 1.648 . S
C1348 C313 1.605 . S
C1359 C107 1.673 . S
C1364 C359 1.606 . S
C1375 C131 1.599 . S
C1380 C306 1.570 . S
C1391 C149 1.672 . S
C1396 C352 1.648 . S
C1412 C260 1.583 . S
C1407 C159 1.630 . S
C1428 C1035 1.626 . S
C1423 C163 1.688 . S
C1444 C964 1.650 . S
C1439 C135 1.693 . S
C1460 C989 1.663 . S
C1455 C145 1.680 . S
C1471 C177 1.629 . S
C1476 C391 1.590 . S
C1487 C187 1.614 . S
C1492 C444 1.580 . S
C1503 C201 1.663 . S
C1508 C490 1.654 . S
C1519 C205 1.716 . S
C1524 C536 1.706 . S
C1540 C589 1.633 . S
C1535 C173 1.652 . S
C1556 C635 1.641 . S
C1551 C191 1.703 . S
C1572 C582 1.680 . S
C1567 C215 1.709 . S
C1588 C628 1.696 . S
C1583 C233 1.711 . S
C1599 C243 1.627 . S
C1604 C543 1.628 . S
C1620 C497 1.562 . S
C1615 C247 1.592 . S
C1631 C219 1.700 . S
C1636 C412 1.662 . S
C1652 C451 1.649 . S
C1647 C229 1.656 . S
C1668 C274 1.566 . S
C1663 C11 1.605 . S
C1679 C14 1.552 . S
C1684 C320 1.509 . S
C1700 C366 1.678 . S
C1695 C28 1.685 . S
C1716 C398 1.637 . S
C1711 C39 1.684 . S
C1732 C437 1.579 . S
C1727 C0 1.637 . S
C1748 C483 1.494 . S
C1743 C25 1.513 . S
C1759 C42 1.671 . S
C1764 C504 1.657 . S
C1775 C67 1.569 . S
C1780 C405 1.536 . S
C1791 C70 1.586 . S
C1796 C458 1.552 . S
C1807 C81 1.593 . S
C1812 C299 1.587 . S
C1828 C345 1.636 . S
C1823 C53 1.653 . S
C1839 C56 1.589 . S
C1844 C253 1.583 . S
C1860 C529 1.510 . S
C1855 C95 1.556 . S
C1871 C98 1.657 . S
C1876 C596 1.633 . S
C1887 C112 1.726 . S
C1892 C642 1.681 . S
C1908 C681 1.432 . S
C1903 C123 1.409 . S
C1919 C84 1.588 . S
C1924 C727 1.590 . S
C1935 C109 1.377 . S
C1940 C759 1.385 . S
C1951 C126 1.443 . S
C1956 C780 1.462 . S
C1967 C151 1.418 . S
C1972 C674 1.409 . S
C1988 C720 1.525 . S
C1983 C154 1.564 . S
C1999 C165 1.553 . S
C2004 C575 1.549 . S
C2015 C137 1.674 . S
C2020 C621 1.666 . S
C2036 C550 1.678 . S
C2031 C140 1.692 . S
C2052 C826 1.416 . S
C2047 C179 1.395 . S
C2063 C182 1.408 . S
C2068 C872 1.402 . S
C2079 C196 1.651 . S
C2084 C897 1.591 . S
C2100 C950 1.610 . S
C2095 C207 1.635 . S
C2116 C1003 1.623 . S
C2111 C168 1.655 . S
C2127 C193 1.632 . S
C2132 C1049 1.605 . S
C2143 C210 1.645 . S
C2148 C1042 1.598 . S
C2159 C235 1.678 . S
C2164 C957 1.626 . S
C2180 C996 1.606 . S
C2175 C238 1.614 . S
C2196 C851 1.383 . S
C2191 C249 1.361 . S
C2212 C918 1.551 . S
C2207 C221 1.609 . S
C2223 C224 1.440 . S
C2228 C805 1.438 . S
