# Generated by pormake.
# Topology rtl, (3,6)-cn, num edge types: 1
# Building blocks:
#     Node 0, Type 0, BuildingBlock: QEWDON_clean_linker_0, # of connection points: 3
#     Node 1, Type 0, BuildingBlock: QEWDON_clean_linker_0, # of connection points: 3
#     Node 2, Type 0, BuildingBlock: QEWDON_clean_linker_0, # of connection points: 3
#     Node 3, Type 0, BuildingBlock: QEWDON_clean_linker_0, # of connection points: 3
#     Node 4, Type 1, BuildingBlock: VOLQOD_clean_sbu_1, # of connection points: 6
#     Node 5, Type 1, BuildingBlock: VOLQOD_clean_sbu_1, # of connection points: 6
#     Edge 6, Type (0, 1), BuildingBlock: FUNLAD_clean_linker_1, # of connection points: 2
#     Edge 7, Type (0, 1), BuildingBlock: FUNLAD_clean_linker_1, # of connection points: 2
#     Edge 8, Type (0, 1), BuildingBlock: FUNLAD_clean_linker_1, # of connection points: 2
#     Edge 9, Type (0, 1), BuildingBlock: FUNLAD_clean_linker_1, # of connection points: 2
#     Edge 10, Type (0, 1), BuildingBlock: FUNLAD_clean_linker_1, # of connection points: 2
#     Edge 11, Type (0, 1), BuildingBlock: FUNLAD_clean_linker_1, # of connection points: 2
#     Edge 12, Type (0, 1), BuildingBlock: FUNLAD_clean_linker_1, # of connection points: 2
#     Edge 13, Type (0, 1), BuildingBlock: FUNLAD_clean_linker_1, # of connection points: 2
#     Edge 14, Type (0, 1), BuildingBlock: FUNLAD_clean_linker_1, # of connection points: 2
#     Edge 15, Type (0, 1), BuildingBlock: FUNLAD_clean_linker_1, # of connection points: 2
#     Edge 16, Type (0, 1), BuildingBlock: FUNLAD_clean_linker_1, # of connection points: 2
#     Edge 17, Type (0, 1), BuildingBlock: FUNLAD_clean_linker_1, # of connection points: 2
# Relax obj value: 0.048
# Max RMSD: 0.148
# Mean RMSD: 0.137
data_MOF--net-rtl--node1-VOLQOD_clean_sbu_1--node2-QEWDON_clean_linker_0--edge1-FUNLAD_clean_linker_1
_symmetry_space_group_name_H-M    P1
_symmetry_Int_Tables_number       1
_symmetry_cell_setting            triclinic
loop_
_symmetry_equiv_pos_as_xyz
'x, y, z'
_cell_length_a     41.127989
_cell_length_b     41.64063
_cell_length_c     22.183022
_cell_angle_alpha  91.463273
_cell_angle_beta   92.090407
_cell_angle_gamma 89.493618
loop_
_atom_site_label
_atom_site_type_symbol
_atom_site_fract_x
_atom_site_fract_y
_atom_site_fract_z
_atom_type_partial_charge
H0 H 0.2237 0.83175 0.12227 0.0
C1 C 0.2124 0.8341 0.07765 0.0
C2 C 0.17887 0.84036 0.07121 0.0
C3 C 0.23155 0.83201 0.02658 0.0
H4 H 0.13862 0.84859 0.00929 0.0
C5 C 0.16457 0.84407 0.01354 0.0
C6 C 0.18375 0.84393 0.96232 0.0
C7 C 0.21718 0.83713 0.96914 0.0
C8 C 0.26721 0.82893 0.03397 0.0
H9 H 0.23231 0.83713 0.93011 0.0
C10 C 0.28224 0.79909 0.04553 0.0
C11 C 0.31645 0.7969 0.05302 0.0
C12 C 0.28631 0.85647 0.03016 0.0
H13 H 0.27505 0.87958 0.02131 0.0
C14 C 0.32 0.85449 0.03859 0.0
H15 H 0.26728 0.778 0.04901 0.0
C16 C 0.33496 0.82499 0.05022 0.0
H17 H 0.36122 0.82405 0.05617 0.0
H18 H 0.33458 0.87589 0.03603 0.0
H19 H 0.70801 0.69957 0.45307 0.0
C20 C 0.69805 0.69355 0.49588 0.0
C21 C 0.66552 0.68363 0.49841 0.0
C22 C 0.7181 0.69454 0.54856 0.0
H23 H 0.62797 0.6683 0.55566 0.0
C24 C 0.65314 0.67561 0.55401 0.0
C25 C 0.67333 0.67514 0.60641 0.0
C26 C 0.70562 0.68529 0.60355 0.0
C27 C 0.75303 0.70198 0.54572 0.0
H28 H 0.72144 0.68492 0.64373 0.0
C29 C 0.76349 0.7332 0.53401 0.0
C30 C 0.79693 0.74043 0.53511 0.0
C31 C 0.7761 0.67778 0.55768 0.0
H32 H 0.76843 0.65362 0.56696 0.0
C33 C 0.8092 0.6846 0.5583 0.0
H34 H 0.74558 0.75197 0.52555 0.0
C35 C 0.81965 0.71566 0.54767 0.0
H36 H 0.84551 0.72005 0.55108 0.0
H37 H 0.82686 0.66584 0.56812 0.0
H38 H 0.80615 0.21091 0.10725 0.0
C39 C 0.82047 0.20678 0.06768 0.0
C40 C 0.85329 0.19731 0.07427 0.0
C41 C 0.80582 0.20949 0.00975 0.0
H42 H 0.89652 0.18342 0.0281 0.0
C43 C 0.87145 0.19155 0.02289 0.0
C44 C 0.85668 0.19245 0.96515 0.0
C45 C 0.82388 0.20182 0.95868 0.0
C46 C 0.77079 0.21707 0.00205 0.0
H47 H 0.81221 0.20279 0.91415 0.0
C48 C 0.75864 0.24804 0.01538 0.0
C49 C 0.72545 0.25545 0.00455 0.0
C50 C 0.74961 0.19336 0.9784 0.0
H51 H 0.75862 0.16943 0.96764 0.0
C52 C 0.71675 0.20039 0.96793 0.0
H53 H 0.77513 0.26649 0.0329 0.0
C54 C 0.7047 0.23118 0.98035 0.0
H55 H 0.67933 0.2359 0.96922 0.0
H56 H 0.70061 0.18202 0.94913 0.0
H57 H 0.31147 0.29259 0.59478 0.0
C58 C 0.31521 0.31082 0.56176 0.0
C59 C 0.33122 0.33946 0.57943 0.0
C60 C 0.30529 0.30506 0.50107 0.0
H61 H 0.3515 0.38344 0.54692 0.0
C62 C 0.33774 0.362 0.53523 0.0
C63 C 0.3276 0.35667 0.47488 0.0
C64 C 0.31077 0.3286 0.45834 0.0
C65 C 0.29207 0.27344 0.4805 0.0
H66 H 0.30329 0.32438 0.41143 0.0
C67 C 0.26597 0.25924 0.50914 0.0
C68 C 0.25315 0.22964 0.48756 0.0
C69 C 0.30564 0.25748 0.43071 0.0
H70 H 0.326 0.26766 0.40835 0.0
C71 C 0.29312 0.22829 0.4091 0.0
H72 H 0.25524 0.27153 0.54735 0.0
C73 C 0.26692 0.21456 0.43671 0.0
H74 H 0.25722 0.19254 0.41681 0.0
H75 H 0.30352 0.21643 0.37023 0.0
O76 O 0.93595 0.96466 0.50795 0.0
Zn77 Zn 0.95564 0.00911 0.50973 0.0
O78 O 1.00338 0.00767 0.51135 0.0
Zn79 Zn 0.02085 0.02993 0.58458 0.0
Zn80 Zn 0.0178 0.96274 0.51052 0.0
Zn81 Zn 0.01916 0.02882 0.44032 0.0
O82 O 0.05294 0.06447 0.56481 0.0
O83 O 0.0515 0.06315 0.46455 0.0
O84 O 0.93962 0.03394 0.58204 0.0
O85 O 0.98469 0.05105 0.63074 0.0
O86 O 0.04472 0.99868 0.63912 0.0
O87 O 0.04519 0.95292 0.58518 0.0
O88 O 0.04402 0.95211 0.43765 0.0
O89 O 0.93805 0.0329 0.43743 0.0
O90 O 0.04285 0.99727 0.38623 0.0
O91 O 0.98212 0.04988 0.39294 0.0
C92 C 0.94884 0.93672 0.50704 0.0
C93 C 0.06246 0.0747 0.51482 0.0
C94 C 0.05315 0.96933 0.63262 0.0
C95 C 0.95378 0.04994 0.62486 0.0
C96 C 0.0514 0.968 0.39187 0.0
C97 C 0.9513 0.04874 0.39675 0.0
O98 O 0.97956 0.93276 0.50769 0.0
O99 O 0.57092 0.47321 0.0341 0.0
Zn100 Zn 0.54717 0.51621 0.03361 0.0
O101 O 0.49976 0.51179 0.03698 0.0
Zn102 Zn 0.47871 0.52899 0.96409 0.0
Zn103 Zn 0.48993 0.46605 0.04081 0.0
Zn104 Zn 0.4833 0.5354 0.10813 0.0
O105 O 0.44705 0.56447 0.98411 0.0
O106 O 0.45103 0.57047 0.0839 0.0
O107 O 0.55915 0.53964 0.95937 0.0
O108 O 0.51174 0.54779 0.91052 0.0
O109 O 0.45372 0.49489 0.91674 0.0
O110 O 0.46046 0.45104 0.97098 0.0
O111 O 0.46774 0.4572 0.11729 0.0
O112 O 0.56424 0.54245 0.10468 0.0
O113 O 0.46039 0.50491 0.16265 0.0
O114 O 0.52066 0.55684 0.15588 0.0
C115 C 0.56061 0.44455 0.03706 0.0
C116 C 0.4389 0.57864 0.0328 0.0
C117 C 0.44839 0.46533 0.92515 0.0
C118 C 0.54252 0.55061 0.91481 0.0
C119 C 0.45692 0.47448 0.16029 0.0
C120 C 0.55129 0.5573 0.14862 0.0
O121 O 0.53043 0.43864 0.03983 0.0
H122 H 0.20937 0.23205 0.54353 0.0
C123 C 0.22419 0.21606 0.51618 0.0
H124 H 0.23073 0.168 0.48545 0.0
H125 H 0.14139 0.08904 0.6387 0.0
H126 H 0.19395 0.07605 0.68519 0.0
H127 H 0.24263 0.10731 0.66332 0.0
H128 H 0.23904 0.15163 0.59426 0.0
C129 C 0.21508 0.1852 0.50805 0.0
C130 C 0.1846 0.17209 0.53172 0.0
C131 C 0.18679 0.14697 0.5737 0.0
C132 C 0.1586 0.12934 0.58716 0.0
C133 C 0.16188 0.10351 0.62732 0.0
C134 C 0.19194 0.09577 0.65436 0.0
C135 C 0.21936 0.11333 0.64199 0.0
C136 C 0.21698 0.13862 0.6021 0.0
H137 H 0.09723 0.105 0.46997 0.0
C138 C 0.08777 0.09954 0.51367 0.0
H139 H 0.09156 0.10915 0.60763 0.0
H140 H 0.17095 0.21945 0.44986 0.0
H141 H 0.11769 0.23554 0.41135 0.0
H142 H 0.06833 0.20818 0.44267 0.0
H143 H 0.07225 0.16384 0.51171 0.0
C144 C 0.10016 0.11478 0.56343 0.0
C145 C 0.12814 0.13712 0.55906 0.0
C146 C 0.12535 0.16444 0.5222 0.0
C147 C 0.15369 0.18136 0.50693 0.0
C148 C 0.15032 0.20659 0.46542 0.0
C149 C 0.11979 0.216 0.44257 0.0
C150 C 0.09202 0.20052 0.46 0.0
C151 C 0.09462 0.175 0.49926 0.0
H152 H 0.35872 0.76767 0.0834 0.0
C153 C 0.33413 0.76614 0.06375 0.0
H154 H 0.29906 0.73419 0.02431 0.0
H155 H 0.44402 0.66082 0.0073 0.0
H156 H 0.45604 0.70189 0.93632 0.0
H157 H 0.41644 0.74518 0.91389 0.0
H158 H 0.36503 0.74811 0.96374 0.0
C159 C 0.32321 0.73706 0.04499 0.0
C160 C 0.34455 0.70799 0.05065 0.0
C161 C 0.37363 0.70546 0.01817 0.0
C162 C 0.39548 0.67926 0.02799 0.0
C163 C 0.42562 0.67901 -0.00105 0.0
C164 C 0.43301 0.70266 0.95846 0.0
C165 C 0.4108 0.72712 0.94608 0.0
C166 C 0.38146 0.72864 0.97544 0.0
H167 H 0.40452 0.61045 0.98402 0.0
C168 C 0.41556 0.60573 0.02824 0.0
H169 H 0.41936 0.6212 0.11967 0.0
H170 H 0.29046 0.70487 0.11822 0.0
H171 H 0.27681 0.66205 0.18486 0.0
H172 H 0.31314 0.61507 0.19758 0.0
H173 H 0.36349 0.61068 0.14418 0.0
C174 C 0.40905 0.62576 0.07487 0.0
C175 C 0.38711 0.65426 0.06686 0.0
C176 C 0.35758 0.65633 0.09793 0.0
C177 C 0.33636 0.68325 0.08997 0.0
C178 C 0.3073 0.68486 0.12225 0.0
C179 C 0.29917 0.66046 0.16064 0.0
C180 C 0.31964 0.63401 0.16784 0.0
C181 C 0.34851 0.63182 0.13696 0.0
H182 H 0.78894 0.7932 0.53151 0.0
C183 C 0.80719 0.7743 0.5271 0.0
H184 H 0.85633 0.76463 0.50696 0.0
H185 H 0.89462 0.89323 0.3942 0.0
H186 H 0.88948 0.85886 0.30432 0.0
H187 H 0.86509 0.80508 0.30859 0.0
H188 H 0.84565 0.78534 0.40269 0.0
C189 C 0.83795 0.78271 0.51625 0.0
C190 C 0.84822 0.81681 0.51253 0.0
C191 C 0.85931 0.82806 0.45715 0.0
C192 C 0.8735 0.859 0.4547 0.0
C193 C 0.88418 0.86969 0.39872 0.0
C194 C 0.8812 0.85029 0.34675 0.0
C195 C 0.86746 0.82001 0.34916 0.0
C196 C 0.85654 0.80893 0.40352 0.0
H197 H 0.94045 0.88456 0.50195 0.0
C198 C 0.92828 0.90781 0.50497 0.0
H199 H 0.88291 0.93171 0.51256 0.0
H200 H 0.8298 0.8029 0.62687 0.0
H201 H 0.83319 0.8382 0.71515 0.0
H202 H 0.85594 0.8926 0.70956 0.0
H203 H 0.87578 0.91186 0.61543 0.0
C204 C 0.89569 0.90892 0.50741 0.0
C205 C 0.87675 0.87859 0.50772 0.0
C206 C 0.86393 0.86821 0.56227 0.0
C207 C 0.85009 0.83708 0.56505 0.0
C208 C 0.83954 0.8266 0.62132 0.0
C209 C 0.84155 0.84658 0.67264 0.0
C210 C 0.85442 0.87719 0.66953 0.0
C211 C 0.86569 0.88794 0.61521 0.0
H212 H 0.73139 0.30823 0.01742 0.0
C213 C 0.7136 0.28904 0.01502 0.0
H214 H 0.6638 0.2781 0.02319 0.0
H215 H 0.61577 0.40464 0.14743 0.0
H216 H 0.62026 0.37024 0.23414 0.0
H217 H 0.64769 0.31741 0.22705 0.0
H218 H 0.67097 0.29873 0.13329 0.0
C219 C 0.68193 0.29671 0.02053 0.0
C220 C 0.67004 0.3305 0.02692 0.0
C221 C 0.65652 0.34107 0.08191 0.0
C222 C 0.64037 0.37136 0.08582 0.0
C223 C 0.62757 0.3815 0.14162 0.0
C224 C 0.63018 0.36209 0.19183 0.0
C225 C 0.64565 0.33236 0.18785 0.0
C226 C 0.65877 0.32187 0.13371 0.0
H227 H 0.57328 0.39317 0.04065 0.0
C228 C 0.58354 0.41705 0.0378 0.0
H229 H 0.62687 0.44347 0.03049 0.0
H230 H 0.69418 0.31828 0.91477 0.0
H231 H 0.69148 0.35366 0.82979 0.0
H232 H 0.66444 0.40664 0.8375 0.0
H233 H 0.63969 0.42442 0.93034 0.0
C234 C 0.61598 0.42004 0.0352 0.0
C235 C 0.63732 0.39087 0.03441 0.0
C236 C 0.65276 0.38133 0.98067 0.0
C237 C 0.66884 0.35095 0.9766 0.0
C238 C 0.68236 0.34133 0.9211 0.0
C239 C 0.68084 0.36138 0.87174 0.0
C240 C 0.66559 0.39119 0.87604 0.0
C241 C 0.65151 0.40111 0.92963 0.0
H242 H 0.13403 0.83694 0.12254 0.0
C243 C 0.15856 0.84654 0.12392 0.0
H244 H 0.19091 0.87976 0.1666 0.0
H245 H 0.04276 0.92869 0.24411 0.0
H246 H 0.03195 0.9363 0.1373 0.0
H247 H 0.073 0.92125 0.06308 0.0
H248 H 0.12445 0.89751 0.09502 0.0
C249 C 0.16689 0.86905 0.16603 0.0
C250 C 0.14338 0.88143 0.21083 0.0
C251 C 0.11435 0.89752 0.19145 0.0
C252 C 0.09179 0.90863 0.23457 0.0
C253 C 0.06166 0.92174 0.21366 0.0
C254 C 0.05499 0.92596 0.15238 0.0
C255 C 0.07801 0.91732 0.11058 0.0
C256 C 0.10738 0.90334 0.1296 0.0
H257 H 0.0807 0.96795 0.31054 0.0
C258 C 0.07119 0.95271 0.34475 0.0
H259 H 0.06885 0.90566 0.37751 0.0
H260 H 0.19635 0.85149 0.26302 0.0
H261 H 0.20868 0.84694 0.37023 0.0
H262 H 0.17168 0.87001 0.44524 0.0
H263 H 0.122 0.89743 0.41364 0.0
C264 C 0.07782 0.92099 0.34296 0.0
C265 C 0.0996 0.90637 0.2972 0.0
C266 C 0.12882 0.89071 0.31655 0.0
C267 C 0.15053 0.87799 0.27331 0.0
C268 C 0.17923 0.86201 0.29391 0.0
C269 C 0.1866 0.85917 0.35533 0.0
C270 C 0.16574 0.87212 0.39755 0.0
C271 C 0.13721 0.88776 0.37871 0.0
H272 H 0.6731 0.67094 0.70605 0.0
C273 C 0.66172 0.66243 0.66366 0.0
H274 H 0.63008 0.62791 0.62245 0.0
H275 H 0.62896 0.53097 0.83157 0.0
H276 H 0.66615 0.50372 0.76453 0.0
H277 H 0.68749 0.53135 0.67736 0.0
H278 H 0.67168 0.58638 0.65659 0.0
C279 C 0.63952 0.63893 0.66432 0.0
C280 C 0.62988 0.62414 0.7211 0.0
C281 C 0.63976 0.59217 0.73312 0.0
C282 C 0.62775 0.57637 0.78369 0.0
C283 C 0.63753 0.54421 0.794 0.0
C284 C 0.65886 0.52827 0.75587 0.0
C285 C 0.67085 0.54381 0.70676 0.0
C286 C 0.6615 0.57537 0.69527 0.0
H287 H 0.54397 0.57592 0.82893 0.0
C288 C 0.55878 0.56789 0.86737 0.0
H289 H 0.60608 0.56656 0.9082 0.0
H290 H 0.60618 0.68564 0.71117 0.0
H291 H 0.57135 0.71376 0.78123 0.0
H292 H 0.55292 0.68726 0.87201 0.0
H293 H 0.56885 0.63226 0.89271 0.0
C294 C 0.59064 0.57485 0.87087 0.0
C295 C 0.60585 0.59258 0.82201 0.0
C296 C 0.59743 0.62518 0.81199 0.0
C297 C 0.60903 0.64084 0.76086 0.0
C298 C 0.59884 0.67284 0.75016 0.0
C299 C 0.57875 0.68925 0.78994 0.0
C300 C 0.5683 0.6743 0.84096 0.0
C301 C 0.57746 0.64266 0.8521 0.0
H302 H 0.89422 0.19395 0.14076 0.0
C303 C 0.8685 0.18876 0.13313 0.0
H304 H 0.83008 0.15905 0.15696 0.0
H305 H 0.93169 0.05082 0.23147 0.0
H306 H 0.91045 0.02972 0.13514 0.0
H307 H 0.87299 0.06206 0.07143 0.0
H308 H 0.85647 0.11558 0.10366 0.0
C309 C 0.85469 0.16717 0.16791 0.0
C310 C 0.87551 0.14728 0.20887 0.0
C311 C 0.88434 0.11567 0.18988 0.0
C312 C 0.90588 0.09698 0.22662 0.0
C313 C 0.91504 0.06589 0.20575 0.0
C314 C 0.90314 0.05352 0.1504 0.0
C315 C 0.88206 0.07172 0.11453 0.0
C316 C 0.87272 0.10243 0.13371 0.0
H317 H 0.90404 0.06174 0.35328 0.0
C318 C 0.92995 0.06684 0.35462 0.0
H319 H 0.96652 0.09719 0.32406 0.0
H320 H 0.86251 0.20636 0.25911 0.0
H321 H 0.88441 0.22784 0.35493 0.0
H322 H 0.92203 0.19556 0.41851 0.0
H323 H 0.93799 0.14162 0.3868 0.0
C324 C 0.94104 0.09046 0.32094 0.0
C325 C 0.91836 0.10984 0.28246 0.0
C326 C 0.90951 0.1414 0.30144 0.0
C327 C 0.88795 0.1601 0.26469 0.0
C328 C 0.87912 0.19134 0.28507 0.0
C329 C 0.89142 0.20389 0.34001 0.0
C330 C 0.91259 0.18571 0.37583 0.0
C331 C 0.92158 0.1548 0.35706 0.0
H332 H 0.34868 0.32303 0.66964 0.0
C333 C 0.34378 0.34414 0.64282 0.0
H334 H 0.34359 0.39494 0.64321 0.0
H335 H 0.36359 0.43008 0.91416 0.0
H336 H 0.3055 0.44033 0.90145 0.0
H337 H 0.27521 0.42193 0.80903 0.0
H338 H 0.30279 0.39314 0.72881 0.0
C339 C 0.35075 0.37338 0.66692 0.0
C340 C 0.36764 0.37833 0.72682 0.0
C341 C 0.35111 0.39474 0.7735 0.0
C342 C 0.36855 0.40545 0.82663 0.0
C343 C 0.3515 0.42189 0.87249 0.0
C344 C 0.31817 0.42776 0.86589 0.0
C345 C 0.30112 0.4174 0.81386 0.0
C346 C 0.31726 0.40104 0.76807 0.0
H347 H 0.41731 0.46121 0.84252 0.0
C348 C 0.42774 0.44773 0.88 0.0
H349 H 0.43287 0.40174 0.91807 0.0
H350 H 0.40721 0.34673 0.64681 0.0
H351 H 0.46445 0.33458 0.66226 0.0
H352 H 0.49399 0.35139 0.75643 0.0
H353 H 0.4663 0.38088 0.83552 0.0
C354 C 0.4219 0.4161 0.88241 0.0
C355 C 0.4025 0.39981 0.83285 0.0
C356 C 0.41856 0.3812 0.78848 0.0
C357 C 0.40127 0.37084 0.73483 0.0
C358 C 0.41863 0.35437 0.68931 0.0
C359 C 0.45167 0.34737 0.69742 0.0
C360 C 0.46831 0.35688 0.75038 0.0
C361 C 0.45213 0.37377 0.79539 0.0
H362 H 0.61824 0.6802 0.44846 0.0
C363 C 0.64442 0.67799 0.44371 0.0
H364 H 0.68123 0.65767 0.3907 0.0
H365 H 0.5848 0.5477 0.29948 0.0
H366 H 0.62051 0.51918 0.36935 0.0
H367 H 0.66213 0.54809 0.43192 0.0
H368 H 0.66815 0.60567 0.42517 0.0
C369 C 0.65545 0.66304 0.39407 0.0
C370 C 0.63223 0.64576 0.35196 0.0
C371 C 0.62967 0.61189 0.35526 0.0
C372 C 0.60605 0.59514 0.31846 0.0
C373 C 0.603 0.56153 0.32485 0.0
C374 C 0.62317 0.54486 0.36521 0.0
C375 C 0.64657 0.56114 0.40048 0.0
C376 C 0.6498 0.59424 0.39599 0.0
H377 H 0.5991 0.57269 0.18605 0.0
C378 C 0.57302 0.57522 0.1915 0.0
H379 H 0.53627 0.59859 0.2409 0.0
H380 H 0.63146 0.7104 0.33365 0.0
H381 H 0.59544 0.73912 0.26408 0.0
H382 H 0.55464 0.71007 0.19974 0.0
H383 H 0.54954 0.65217 0.20455 0.0
C384 C 0.56218 0.5945 0.236 0.0
C385 C 0.58558 0.61218 0.27727 0.0
C386 C 0.58799 0.64605 0.27432 0.0
C387 C 0.61142 0.66285 0.3116 0.0
C388 C 0.61376 0.69658 0.30695 0.0
C389 C 0.59335 0.71331 0.26703 0.0
C390 C 0.57038 0.69695 0.23077 0.0
C391 C 0.56769 0.66371 0.23404 0.0
H392 H 0.90187 0.1825 0.91695 0.0
C393 C 0.87553 0.18021 0.91371 0.0
H394 H 0.83626 0.15699 0.86656 0.0
H395 H 0.92372 0.13137 0.63644 0.0
H396 H 0.89076 0.17586 0.59979 0.0
H397 H 0.85391 0.20542 0.66723 0.0
H398 H 0.84993 0.19071 0.77196 0.0
C399 C 0.8623 0.16115 0.86981 0.0
C400 C 0.88334 0.14238 0.82851 0.0
C401 C 0.8849 0.15085 0.7673 0.0
C402 C 0.90579 0.13349 0.72825 0.0
C403 C 0.9077 0.1432 0.66776 0.0
C404 C 0.88905 0.16883 0.64621 0.0
C405 C 0.86833 0.1855 0.6842 0.0
C406 C 0.86625 0.1768 0.74415 0.0
H407 H 0.90712 0.06626 0.66149 0.0
C408 C 0.9334 0.06843 0.66692 0.0
H409 H 0.97221 0.09071 0.71676 0.0
H410 H 0.88357 0.11766 0.94217 0.0
H411 H 0.91642 0.07321 0.97879 0.0
H412 H 0.95359 0.04391 0.91161 0.0
H413 H 0.95792 0.05883 0.8072 0.0
C414 C 0.94603 0.08857 0.70967 0.0
C415 C 0.92464 0.10732 0.75042 0.0
C416 C 0.92297 0.09876 0.81162 0.0
C417 C 0.90198 0.11602 0.85057 0.0
C418 C 0.89978 0.10606 0.91093 0.0
C419 C 0.91835 0.08039 0.93249 0.0
C420 C 0.93924 0.06387 0.89466 0.0
C421 C 0.94153 0.07274 0.83484 0.0
H422 H 0.31781 0.38523 0.39317 0.0
C423 C 0.33608 0.37945 0.42793 0.0
H424 H 0.38496 0.38403 0.4585 0.0
H425 H 0.38283 0.43274 0.17281 0.0
H426 H 0.35957 0.38104 0.1436 0.0
H427 H 0.34651 0.3419 0.22061 0.0
H428 H 0.35522 0.35474 0.32683 0.0
C429 C 0.36657 0.3905 0.42441 0.0
C430 C 0.37642 0.4126 0.37661 0.0
C431 C 0.37346 0.40341 0.31454 0.0
C432 C 0.38381 0.42467 0.27002 0.0
C433 C 0.37751 0.41648 0.20835 0.0
C434 C 0.36389 0.38703 0.19098 0.0
C435 C 0.35634 0.3651 0.23433 0.0
C436 C 0.36112 0.373 0.29538 0.0
H437 H 0.44543 0.4325 0.213 0.0
C438 C 0.44026 0.45798 0.20807 0.0
H439 H 0.41196 0.49752 0.23741 0.0
H440 H 0.38294 0.43907 0.49079 0.0
H441 H 0.40874 0.48958 0.51936 0.0
H442 H 0.43155 0.52385 0.44256 0.0
H443 H 0.42827 0.50807 0.33664 0.0
C444 C 0.41757 0.47213 0.24203 0.0
C445 C 0.40043 0.45337 0.28761 0.0
C446 C 0.40284 0.46284 0.3494 0.0
C447 C 0.39042 0.44265 0.39384 0.0
C448 C 0.3926 0.45305 0.45519 0.0
C449 C 0.40725 0.48208 0.47225 0.0
C450 C 0.42005 0.50139 0.42901 0.0
C451 C 0.41798 0.49202 0.36828 0.0
H452 H 0.18215 0.84426 0.86204 0.0
C453 C 0.16985 0.85276 0.90206 0.0
H454 H 0.13252 0.88336 0.93457 0.0
H455 H 0.13825 0.9566 0.68225 0.0
H456 H 0.18798 0.97948 0.7263 0.0
H457 H 0.21228 0.95901 0.82129 0.0
H458 H 0.18724 0.91523 0.87231 0.0
C459 C 0.1444 0.87308 0.89561 0.0
C460 C 0.13173 0.88344 0.83557 0.0
C461 C 0.1464 0.90935 0.8069 0.0
C462 C 0.13181 0.92185 0.7532 0.0
C463 C 0.14761 0.94699 0.72432 0.0
C464 C 0.17632 0.96017 0.74888 0.0
C465 C 0.19003 0.9486 0.80228 0.0
C466 C 0.1754 0.92347 0.83112 0.0
H467 H 0.07647 0.96812 0.72369 0.0
C468 C 0.07229 0.95422 0.682 0.0
H469 H 0.07998 0.90975 0.63645 0.0
H470 H 0.09913 0.83199 0.87677 0.0
H471 H 0.0495 0.80879 0.83262 0.0
H472 H 0.02332 0.83121 0.74092 0.0
H473 H 0.04655 0.87685 0.69273 0.0
C474 C 0.0845 0.92421 0.67732 0.0
C475 C 0.102 0.90903 0.72942 0.0
C476 C 0.0882 0.88212 0.7566 0.0
C477 C 0.1031 0.86934 0.80977 0.0
C478 C 0.08863 0.84274 0.83654 0.0
C479 C 0.0602 0.82917 0.81163 0.0
C480 C 0.04548 0.84177 0.75997 0.0
C481 C 0.05913 0.86797 0.73268 0.0
loop_
_geom_bond_atom_site_label_1
_geom_bond_atom_site_label_2
_geom_bond_distance
_geom_bond_site_symmetry_2
_ccdc_geom_bond_type
H0 C1 0.949 . S
C1 H0 0.949 . S
C1 C2 1.395 . S
C1 C3 1.391 . S
C2 C1 1.395 . S
C2 C5 1.390 . S
C3 C1 1.391 . S
C3 C7 1.387 1_554 S
C3 C8 1.491 . S
H4 C5 0.950 . S
C5 C2 1.390 . S
C5 H4 0.950 . S
C5 C6 1.378 1_554 S
C6 C5 1.378 1_556 S
C6 C7 1.409 . S
C7 C3 1.387 1_556 S
C7 C6 1.409 . S
C7 H9 0.951 . S
C8 C3 1.491 . S
C8 C10 1.382 . S
C8 C12 1.404 1_554 S
H9 C7 0.951 . S
C10 C8 1.382 . S
C10 C11 1.390 . S
C10 H15 0.949 . S
C11 C10 1.390 . S
C11 C16 1.399 1_554 S
C12 C8 1.404 1_556 S
C12 H13 0.950 . S
C12 C14 1.375 . S
H13 C12 0.950 . S
C14 C12 1.375 . S
C14 C16 1.382 . S
C14 H18 0.950 . S
H15 C10 0.949 . S
C16 C11 1.399 1_556 S
C16 C14 1.382 . S
C16 H17 0.952 . S
H17 C16 0.952 . S
H18 C14 0.950 . S
H19 C20 0.949 . S
C20 H19 0.949 . S
C20 C21 1.395 . S
C20 C22 1.391 . S
C21 C20 1.395 . S
C21 C24 1.390 . S
C22 C20 1.391 . S
C22 C26 1.387 . S
C22 C27 1.491 . S
H23 C24 0.950 . S
C24 C21 1.390 . S
C24 H23 0.950 . S
C24 C25 1.378 . S
C25 C24 1.378 . S
C25 C26 1.409 . S
C26 C22 1.387 . S
C26 C25 1.409 . S
C26 H28 0.951 . S
C27 C22 1.491 . S
C27 C29 1.382 . S
C27 C31 1.404 . S
H28 C26 0.951 . S
C29 C27 1.382 . S
C29 C30 1.390 . S
C29 H34 0.949 . S
C30 C29 1.390 . S
C30 C35 1.399 . S
C31 C27 1.404 . S
C31 H32 0.950 . S
C31 C33 1.375 . S
H32 C31 0.950 . S
C33 C31 1.375 . S
C33 C35 1.382 . S
C33 H37 0.950 . S
H34 C29 0.949 . S
C35 C30 1.399 . S
C35 C33 1.382 . S
C35 H36 0.952 . S
H36 C35 0.952 . S
H37 C33 0.950 . S
H38 C39 0.949 . S
C39 H38 0.949 . S
C39 C40 1.395 . S
C39 C41 1.391 . S
C40 C39 1.395 . S
C40 C43 1.390 . S
C41 C39 1.391 . S
C41 C45 1.387 1_554 S
C41 C46 1.491 1_554 S
H42 C43 0.950 . S
C43 C40 1.390 . S
C43 H42 0.950 . S
C43 C44 1.378 1_554 S
C44 C43 1.378 1_556 S
C44 C45 1.409 . S
C45 C41 1.387 1_556 S
C45 C44 1.409 . S
C45 H47 0.951 . S
C46 C41 1.491 1_556 S
C46 C48 1.382 1_556 S
C46 C50 1.404 . S
H47 C45 0.951 . S
C48 C46 1.382 1_554 S
C48 C49 1.390 . S
C48 H53 0.949 . S
C49 C48 1.390 . S
C49 C54 1.399 1_554 S
C50 C46 1.404 . S
C50 H51 0.950 . S
C50 C52 1.375 . S
H51 C50 0.950 . S
C52 C50 1.375 . S
C52 C54 1.382 . S
C52 H56 0.950 . S
H53 C48 0.949 . S
C54 C49 1.399 1_556 S
C54 C52 1.382 . S
C54 H55 0.952 . S
H55 C54 0.952 . S
H56 C52 0.950 . S
H57 C58 0.949 . S
C58 H57 0.949 . S
C58 C59 1.395 . S
C58 C60 1.391 . S
C59 C58 1.395 . S
C59 C62 1.390 . S
C60 C58 1.391 . S
C60 C64 1.387 . S
C60 C65 1.491 . S
H61 C62 0.950 . S
C62 C59 1.390 . S
C62 H61 0.950 . S
C62 C63 1.378 . S
C63 C62 1.378 . S
C63 C64 1.409 . S
C64 C60 1.387 . S
C64 C63 1.409 . S
C64 H66 0.951 . S
C65 C60 1.491 . S
C65 C67 1.382 . S
C65 C69 1.404 . S
H66 C64 0.951 . S
C67 C65 1.382 . S
C67 C68 1.390 . S
C67 H72 0.949 . S
C68 C67 1.390 . S
C68 C73 1.399 . S
C69 C65 1.404 . S
C69 H70 0.950 . S
C69 C71 1.375 . S
H70 C69 0.950 . S
C71 C69 1.375 . S
C71 C73 1.382 . S
C71 H75 0.950 . S
H72 C67 0.949 . S
C73 C68 1.399 . S
C73 C71 1.382 . S
C73 H74 0.952 . S
H74 C73 0.952 . S
H75 C71 0.950 . S
O76 Zn77 1.953 1_565 S
O76 C92 1.225 . S
Zn77 O76 1.953 1_545 S
Zn77 O78 1.949 1_655 S
Zn77 O84 1.919 . S
Zn77 O89 1.924 . S
O78 Zn77 1.949 1_455 S
O78 Zn79 1.923 . S
O78 Zn80 1.950 1_545 S
O78 Zn81 1.945 . S
Zn79 O78 1.923 . S
Zn79 O82 1.933 . S
Zn79 O85 1.941 1_455 S
Zn79 O86 1.965 1_545 S
Zn80 O78 1.950 1_565 S
Zn80 O87 1.938 . S
Zn80 O88 1.906 . S
Zn80 O98 1.953 1_455 S
Zn81 O78 1.945 . S
Zn81 O83 1.932 . S
Zn81 O90 1.967 1_545 S
Zn81 O91 1.910 1_455 S
O82 Zn79 1.933 . S
O82 C93 1.226 . S
O83 Zn81 1.932 . S
O83 C93 1.307 . S
O84 Zn77 1.919 . S
O84 C95 1.253 . S
O85 Zn79 1.941 1_655 S
O85 C95 1.283 . S
O86 Zn79 1.965 1_565 S
O86 C94 1.303 . S
O87 Zn80 1.938 . S
O87 C94 1.247 . S
O88 Zn80 1.906 . S
O88 C96 1.304 . S
O89 Zn77 1.924 . S
O89 C97 1.311 . S
O90 Zn81 1.967 1_565 S
O90 C96 1.285 . S
O91 Zn81 1.910 1_655 S
O91 C97 1.231 . S
C92 O76 1.225 . S
C92 O98 1.298 . S
C93 O82 1.226 . S
C93 O83 1.307 . S
C94 O86 1.303 . S
C94 O87 1.247 . S
C95 O84 1.253 . S
C95 O85 1.283 . S
C96 O88 1.304 . S
C96 O90 1.285 . S
C97 O89 1.311 . S
C97 O91 1.231 . S
O98 Zn80 1.953 1_655 S
O98 C92 1.298 . S
O99 Zn100 1.953 . S
O99 C115 1.225 . S
Zn100 O99 1.953 . S
Zn100 O101 1.949 . S
Zn100 O107 1.919 1_554 S
Zn100 O112 1.924 . S
O101 Zn100 1.949 . S
O101 Zn102 1.923 1_554 S
O101 Zn103 1.950 . S
O101 Zn104 1.945 . S
Zn102 O101 1.923 1_556 S
Zn102 O105 1.933 . S
Zn102 O108 1.941 . S
Zn102 O109 1.965 . S
Zn103 O101 1.950 . S
Zn103 O110 1.938 1_554 S
Zn103 O111 1.906 . S
Zn103 O121 1.953 . S
Zn104 O101 1.945 . S
Zn104 O106 1.932 . S
Zn104 O113 1.977 . S
Zn104 O114 1.910 . S
O105 Zn102 1.933 . S
O105 C116 1.226 1_556 S
O106 Zn104 1.932 . S
O106 C116 1.307 . S
O107 Zn100 1.919 1_556 S
O107 C118 1.253 . S
O108 Zn102 1.941 . S
O108 C118 1.283 . S
O109 Zn102 1.965 . S
O109 C117 1.303 . S
O110 Zn103 1.938 1_556 S
O110 C117 1.247 . S
O111 Zn103 1.906 . S
O111 C119 1.304 . S
O112 Zn100 1.924 . S
O112 C120 1.311 . S
O113 Zn104 1.977 . S
O113 C119 1.272 . S
O114 Zn104 1.910 . S
O114 C120 1.231 . S
C115 O99 1.225 . S
C115 O121 1.298 . S
C116 O105 1.226 1_554 S
C116 O106 1.307 . S
C117 O109 1.303 . S
C117 O110 1.247 . S
C118 O107 1.253 . S
C118 O108 1.283 . S
C119 O111 1.304 . S
C119 O113 1.272 . S
C120 O112 1.311 . S
C120 O114 1.231 . S
O121 Zn103 1.953 . S
O121 C115 1.298 . S
H122 C123 0.951 . S
C123 H122 0.951 . S
C123 C129 1.265 . S
H124 C129 0.950 . S
H125 C133 0.949 . S
H126 C134 0.950 . S
H127 C135 0.951 . S
H128 C136 0.951 . S
C129 C123 1.265 . S
C129 H124 0.950 . S
C129 C130 1.478 . S
C130 C129 1.478 . S
C130 C131 1.397 . S
C130 C147 1.394 . S
C131 C130 1.397 . S
C131 C132 1.438 . S
C131 C136 1.429 . S
C132 C131 1.438 . S
C132 C133 1.428 . S
C132 C145 1.394 . S
C133 H125 0.949 . S
C133 C132 1.428 . S
C133 C134 1.345 . S
C134 H126 0.950 . S
C134 C133 1.345 . S
C134 C135 1.424 . S
C135 H127 0.951 . S
C135 C134 1.424 . S
C135 C136 1.347 . S
C136 H128 0.951 . S
C136 C131 1.429 . S
C136 C135 1.347 . S
H137 C138 0.951 . S
C138 H137 0.951 . S
C138 C144 1.265 . S
H139 C144 0.950 . S
H140 C148 0.949 . S
H141 C149 0.950 . S
H142 C150 0.951 . S
H143 C151 0.951 . S
C144 C138 1.265 . S
C144 H139 0.950 . S
C144 C145 1.478 . S
C145 C132 1.394 . S
C145 C144 1.478 . S
C145 C146 1.397 . S
C146 C145 1.397 . S
C146 C147 1.438 . S
C146 C151 1.429 . S
C147 C130 1.394 . S
C147 C146 1.438 . S
C147 C148 1.428 . S
C148 H140 0.949 . S
C148 C147 1.428 . S
C148 C149 1.345 . S
C149 H141 0.950 . S
C149 C148 1.345 . S
C149 C150 1.424 . S
C150 H142 0.951 . S
C150 C149 1.424 . S
C150 C151 1.347 . S
C151 H143 0.951 . S
C151 C146 1.429 . S
C151 C150 1.347 . S
H152 C153 0.951 . S
C153 H152 0.951 . S
C153 C159 1.265 . S
H154 C159 0.950 . S
H155 C163 0.949 . S
H156 C164 0.950 . S
H157 C165 0.951 . S
H158 C166 0.951 . S
C159 C153 1.265 . S
C159 H154 0.950 . S
C159 C160 1.478 . S
C160 C159 1.478 . S
C160 C161 1.397 1_554 S
C160 C177 1.394 . S
C161 C160 1.397 1_556 S
C161 C162 1.438 . S
C161 C166 1.429 . S
C162 C161 1.438 . S
C162 C163 1.428 . S
C162 C175 1.394 1_556 S
C163 H155 0.949 . S
C163 C162 1.428 . S
C163 C164 1.345 . S
C164 H156 0.950 . S
C164 C163 1.345 . S
C164 C165 1.424 . S
C165 H157 0.951 . S
C165 C164 1.424 . S
C165 C166 1.347 . S
C166 H158 0.951 . S
C166 C161 1.429 . S
C166 C165 1.347 . S
H167 C168 0.951 . S
C168 H167 0.951 . S
C168 C174 1.265 . S
H169 C174 0.950 . S
H170 C178 0.949 . S
H171 C179 0.950 . S
H172 C180 0.951 . S
H173 C181 0.951 . S
C174 C168 1.265 . S
C174 H169 0.950 . S
C174 C175 1.478 . S
C175 C162 1.394 1_554 S
C175 C174 1.478 . S
C175 C176 1.397 . S
C176 C175 1.397 . S
C176 C177 1.438 . S
C176 C181 1.429 . S
C177 C160 1.394 . S
C177 C176 1.438 . S
C177 C178 1.428 . S
C178 H170 0.949 . S
C178 C177 1.428 . S
C178 C179 1.345 . S
C179 H171 0.950 . S
C179 C178 1.345 . S
C179 C180 1.424 . S
C180 H172 0.951 . S
C180 C179 1.424 . S
C180 C181 1.347 . S
C181 H173 0.951 . S
C181 C176 1.429 . S
C181 C180 1.347 . S
H182 C183 0.951 . S
C183 H182 0.951 . S
C183 C189 1.265 . S
H184 C189 0.950 . S
H185 C193 0.949 . S
H186 C194 0.950 . S
H187 C195 0.951 . S
H188 C196 0.951 . S
C189 C183 1.265 . S
C189 H184 0.950 . S
C189 C190 1.478 . S
C190 C189 1.478 . S
C190 C191 1.397 . S
C190 C207 1.394 . S
C191 C190 1.397 . S
C191 C192 1.438 . S
C191 C196 1.429 . S
C192 C191 1.438 . S
C192 C193 1.428 . S
C192 C205 1.394 . S
C193 H185 0.949 . S
C193 C192 1.428 . S
C193 C194 1.345 . S
C194 H186 0.950 . S
C194 C193 1.345 . S
C194 C195 1.424 . S
C195 H187 0.951 . S
C195 C194 1.424 . S
C195 C196 1.347 . S
C196 H188 0.951 . S
C196 C191 1.429 . S
C196 C195 1.347 . S
H197 C198 0.951 . S
C198 H197 0.951 . S
C198 C204 1.265 . S
H199 C204 0.950 . S
H200 C208 0.949 . S
H201 C209 0.950 . S
H202 C210 0.951 . S
H203 C211 0.951 . S
C204 C198 1.265 . S
C204 H199 0.950 . S
C204 C205 1.478 . S
C205 C192 1.394 . S
C205 C204 1.478 . S
C205 C206 1.397 . S
C206 C205 1.397 . S
C206 C207 1.438 . S
C206 C211 1.429 . S
C207 C190 1.394 . S
C207 C206 1.438 . S
C207 C208 1.428 . S
C208 H200 0.949 . S
C208 C207 1.428 . S
C208 C209 1.345 . S
C209 H201 0.950 . S
C209 C208 1.345 . S
C209 C210 1.424 . S
C210 H202 0.951 . S
C210 C209 1.424 . S
C210 C211 1.347 . S
C211 H203 0.951 . S
C211 C206 1.429 . S
C211 C210 1.347 . S
H212 C213 0.951 . S
C213 H212 0.951 . S
C213 C219 1.265 . S
H214 C219 0.950 . S
H215 C223 0.949 . S
H216 C224 0.950 . S
H217 C225 0.951 . S
H218 C226 0.951 . S
C219 C213 1.265 . S
C219 H214 0.950 . S
C219 C220 1.478 . S
C220 C219 1.478 . S
C220 C221 1.397 . S
C220 C237 1.394 1_554 S
C221 C220 1.397 . S
C221 C222 1.438 . S
C221 C226 1.429 . S
C222 C221 1.438 . S
C222 C223 1.428 . S
C222 C235 1.394 . S
C223 H215 0.949 . S
C223 C222 1.428 . S
C223 C224 1.345 . S
C224 H216 0.950 . S
C224 C223 1.345 . S
C224 C225 1.424 . S
C225 H217 0.951 . S
C225 C224 1.424 . S
C225 C226 1.347 . S
C226 H218 0.951 . S
C226 C221 1.429 . S
C226 C225 1.347 . S
H227 C228 0.951 . S
C228 H227 0.951 . S
C228 C234 1.265 . S
H229 C234 0.950 . S
H230 C238 0.949 . S
H231 C239 0.950 . S
H232 C240 0.951 . S
H233 C241 0.951 . S
C234 C228 1.265 . S
C234 H229 0.950 . S
C234 C235 1.478 . S
C235 C222 1.394 . S
C235 C234 1.478 . S
C235 C236 1.397 1_554 S
C236 C235 1.397 1_556 S
C236 C237 1.438 . S
C236 C241 1.429 . S
C237 C220 1.394 1_556 S
C237 C236 1.438 . S
C237 C238 1.428 . S
C238 H230 0.949 . S
C238 C237 1.428 . S
C238 C239 1.345 . S
C239 H231 0.950 . S
C239 C238 1.345 . S
C239 C240 1.424 . S
C240 H232 0.951 . S
C240 C239 1.424 . S
C240 C241 1.347 . S
C241 H233 0.951 . S
C241 C236 1.429 . S
C241 C240 1.347 . S
H242 C243 0.951 . S
C243 H242 0.951 . S
C243 C249 1.265 . S
H244 C249 0.950 . S
H245 C253 0.949 . S
H246 C254 0.950 1_545 S
H247 C255 0.951 . S
H248 C256 0.951 . S
C249 C243 1.265 . S
C249 H244 0.950 . S
C249 C250 1.478 . S
C250 C249 1.478 . S
C250 C251 1.397 . S
C250 C267 1.394 . S
C251 C250 1.397 . S
C251 C252 1.438 . S
C251 C256 1.429 . S
C252 C251 1.438 . S
C252 C253 1.428 . S
C252 C265 1.394 . S
C253 H245 0.949 . S
C253 C252 1.428 . S
C253 C254 1.345 . S
C254 H246 0.950 1_565 S
C254 C253 1.345 . S
C254 C255 1.424 . S
C255 H247 0.951 . S
C255 C254 1.424 . S
C255 C256 1.347 . S
C256 H248 0.951 . S
C256 C251 1.429 . S
C256 C255 1.347 . S
H257 C258 0.951 . S
C258 H257 0.951 . S
C258 C264 1.265 . S
H259 C264 0.950 . S
H260 C268 0.949 . S
H261 C269 0.950 . S
H262 C270 0.951 . S
H263 C271 0.951 . S
C264 C258 1.265 . S
C264 H259 0.950 . S
C264 C265 1.478 . S
C265 C252 1.394 . S
C265 C264 1.478 . S
C265 C266 1.397 . S
C266 C265 1.397 . S
C266 C267 1.438 . S
C266 C271 1.429 . S
C267 C250 1.394 . S
C267 C266 1.438 . S
C267 C268 1.428 . S
C268 H260 0.949 . S
C268 C267 1.428 . S
C268 C269 1.345 . S
C269 H261 0.950 . S
C269 C268 1.345 . S
C269 C270 1.424 . S
C270 H262 0.951 . S
C270 C269 1.424 . S
C270 C271 1.347 . S
C271 H263 0.951 . S
C271 C266 1.429 . S
C271 C270 1.347 . S
H272 C273 0.951 . S
C273 H272 0.951 . S
C273 C279 1.265 . S
H274 C279 0.950 . S
H275 C283 0.949 . S
H276 C284 0.950 . S
H277 C285 0.951 . S
H278 C286 0.951 . S
C279 C273 1.265 . S
C279 H274 0.950 . S
C279 C280 1.478 . S
C280 C279 1.478 . S
C280 C281 1.397 . S
C280 C297 1.394 . S
C281 C280 1.397 . S
C281 C282 1.438 . S
C281 C286 1.429 . S
C282 C281 1.438 . S
C282 C283 1.428 . S
C282 C295 1.394 . S
C283 H275 0.949 . S
C283 C282 1.428 . S
C283 C284 1.345 . S
C284 H276 0.950 . S
C284 C283 1.345 . S
C284 C285 1.424 . S
C285 H277 0.951 . S
C285 C284 1.424 . S
C285 C286 1.347 . S
C286 H278 0.951 . S
C286 C281 1.429 . S
C286 C285 1.347 . S
H287 C288 0.951 . S
C288 H287 0.951 . S
C288 C294 1.265 . S
H289 C294 0.950 . S
H290 C298 0.949 . S
H291 C299 0.950 . S
H292 C300 0.951 . S
H293 C301 0.951 . S
C294 C288 1.265 . S
C294 H289 0.950 . S
C294 C295 1.478 . S
C295 C282 1.394 . S
C295 C294 1.478 . S
C295 C296 1.397 . S
C296 C295 1.397 . S
C296 C297 1.438 . S
C296 C301 1.429 . S
C297 C280 1.394 . S
C297 C296 1.438 . S
C297 C298 1.428 . S
C298 H290 0.949 . S
C298 C297 1.428 . S
C298 C299 1.345 . S
C299 H291 0.950 . S
C299 C298 1.345 . S
C299 C300 1.424 . S
C300 H292 0.951 . S
C300 C299 1.424 . S
C300 C301 1.347 . S
C301 H293 0.951 . S
C301 C296 1.429 . S
C301 C300 1.347 . S
H302 C303 0.951 . S
C303 H302 0.951 . S
C303 C309 1.265 . S
H304 C309 0.950 . S
H305 C313 0.949 . S
H306 C314 0.950 . S
H307 C315 0.951 . S
H308 C316 0.951 . S
C309 C303 1.265 . S
C309 H304 0.950 . S
C309 C310 1.478 . S
C310 C309 1.478 . S
C310 C311 1.397 . S
C310 C327 1.394 . S
C311 C310 1.397 . S
C311 C312 1.438 . S
C311 C316 1.429 . S
C312 C311 1.438 . S
C312 C313 1.428 . S
C312 C325 1.394 . S
C313 H305 0.949 . S
C313 C312 1.428 . S
C313 C314 1.345 . S
C314 H306 0.950 . S
C314 C313 1.345 . S
C314 C315 1.424 . S
C315 H307 0.951 . S
C315 C314 1.424 . S
C315 C316 1.347 . S
C316 H308 0.951 . S
C316 C311 1.429 . S
C316 C315 1.347 . S
H317 C318 0.951 . S
C318 H317 0.951 . S
C318 C324 1.265 . S
H319 C324 0.950 . S
H320 C328 0.949 . S
H321 C329 0.950 . S
H322 C330 0.951 . S
H323 C331 0.951 . S
C324 C318 1.265 . S
C324 H319 0.950 . S
C324 C325 1.478 . S
C325 C312 1.394 . S
C325 C324 1.478 . S
C325 C326 1.397 . S
C326 C325 1.397 . S
C326 C327 1.438 . S
C326 C331 1.429 . S
C327 C310 1.394 . S
C327 C326 1.438 . S
C327 C328 1.428 . S
C328 H320 0.949 . S
C328 C327 1.428 . S
C328 C329 1.345 . S
C329 H321 0.950 . S
C329 C328 1.345 . S
C329 C330 1.424 . S
C330 H322 0.951 . S
C330 C329 1.424 . S
C330 C331 1.347 . S
C331 H323 0.951 . S
C331 C326 1.429 . S
C331 C330 1.347 . S
H332 C333 0.951 . S
C333 H332 0.951 . S
C333 C339 1.265 . S
H334 C339 0.950 . S
H335 C343 0.949 . S
H336 C344 0.950 . S
H337 C345 0.951 . S
H338 C346 0.951 . S
C339 C333 1.265 . S
C339 H334 0.950 . S
C339 C340 1.478 . S
C340 C339 1.478 . S
C340 C341 1.397 . S
C340 C357 1.394 . S
C341 C340 1.397 . S
C341 C342 1.438 . S
C341 C346 1.429 . S
C342 C341 1.438 . S
C342 C343 1.428 . S
C342 C355 1.394 . S
C343 H335 0.949 . S
C343 C342 1.428 . S
C343 C344 1.345 . S
C344 H336 0.950 . S
C344 C343 1.345 . S
C344 C345 1.424 . S
C345 H337 0.951 . S
C345 C344 1.424 . S
C345 C346 1.347 . S
C346 H338 0.951 . S
C346 C341 1.429 . S
C346 C345 1.347 . S
H347 C348 0.951 . S
C348 H347 0.951 . S
C348 C354 1.265 . S
H349 C354 0.950 . S
H350 C358 0.949 . S
H351 C359 0.950 . S
H352 C360 0.951 . S
H353 C361 0.951 . S
C354 C348 1.265 . S
C354 H349 0.950 . S
C354 C355 1.478 . S
C355 C342 1.394 . S
C355 C354 1.478 . S
C355 C356 1.397 . S
C356 C355 1.397 . S
C356 C357 1.438 . S
C356 C361 1.429 . S
C357 C340 1.394 . S
C357 C356 1.438 . S
C357 C358 1.428 . S
C358 H350 0.949 . S
C358 C357 1.428 . S
C358 C359 1.345 . S
C359 H351 0.950 . S
C359 C358 1.345 . S
C359 C360 1.424 . S
C360 H352 0.951 . S
C360 C359 1.424 . S
C360 C361 1.347 . S
C361 H353 0.951 . S
C361 C356 1.429 . S
C361 C360 1.347 . S
H362 C363 0.951 . S
C363 H362 0.951 . S
C363 C369 1.265 . S
H364 C369 0.950 . S
H365 C373 0.949 . S
H366 C374 0.950 . S
H367 C375 0.951 . S
H368 C376 0.951 . S
C369 C363 1.265 . S
C369 H364 0.950 . S
C369 C370 1.478 . S
C370 C369 1.478 . S
C370 C371 1.397 . S
C370 C387 1.394 . S
C371 C370 1.397 . S
C371 C372 1.438 . S
C371 C376 1.429 . S
C372 C371 1.438 . S
C372 C373 1.428 . S
C372 C385 1.394 . S
C373 H365 0.949 . S
C373 C372 1.428 . S
C373 C374 1.345 . S
C374 H366 0.950 . S
C374 C373 1.345 . S
C374 C375 1.424 . S
C375 H367 0.951 . S
C375 C374 1.424 . S
C375 C376 1.347 . S
C376 H368 0.951 . S
C376 C371 1.429 . S
C376 C375 1.347 . S
H377 C378 0.951 . S
C378 H377 0.951 . S
C378 C384 1.265 . S
H379 C384 0.950 . S
H380 C388 0.949 . S
H381 C389 0.950 . S
H382 C390 0.951 . S
H383 C391 0.951 . S
C384 C378 1.265 . S
C384 H379 0.950 . S
C384 C385 1.478 . S
C385 C372 1.394 . S
C385 C384 1.478 . S
C385 C386 1.397 . S
C386 C385 1.397 . S
C386 C387 1.438 . S
C386 C391 1.429 . S
C387 C370 1.394 . S
C387 C386 1.438 . S
C387 C388 1.428 . S
C388 H380 0.949 . S
C388 C387 1.428 . S
C388 C389 1.345 . S
C389 H381 0.950 . S
C389 C388 1.345 . S
C389 C390 1.424 . S
C390 H382 0.951 . S
C390 C389 1.424 . S
C390 C391 1.347 . S
C391 H383 0.951 . S
C391 C386 1.429 . S
C391 C390 1.347 . S
H392 C393 0.951 . S
C393 H392 0.951 . S
C393 C399 1.265 . S
H394 C399 0.950 . S
H395 C403 0.949 . S
H396 C404 0.950 . S
H397 C405 0.951 . S
H398 C406 0.951 . S
C399 C393 1.265 . S
C399 H394 0.950 . S
C399 C400 1.478 . S
C400 C399 1.478 . S
C400 C401 1.397 . S
C400 C417 1.394 . S
C401 C400 1.397 . S
C401 C402 1.438 . S
C401 C406 1.429 . S
C402 C401 1.438 . S
C402 C403 1.428 . S
C402 C415 1.394 . S
C403 H395 0.949 . S
C403 C402 1.428 . S
C403 C404 1.345 . S
C404 H396 0.950 . S
C404 C403 1.345 . S
C404 C405 1.424 . S
C405 H397 0.951 . S
C405 C404 1.424 . S
C405 C406 1.347 . S
C406 H398 0.951 . S
C406 C401 1.429 . S
C406 C405 1.347 . S
H407 C408 0.951 . S
C408 H407 0.951 . S
C408 C414 1.265 . S
H409 C414 0.950 . S
H410 C418 0.949 . S
H411 C419 0.950 . S
H412 C420 0.951 . S
H413 C421 0.951 . S
C414 C408 1.265 . S
C414 H409 0.950 . S
C414 C415 1.478 . S
C415 C402 1.394 . S
C415 C414 1.478 . S
C415 C416 1.397 . S
C416 C415 1.397 . S
C416 C417 1.438 . S
C416 C421 1.429 . S
C417 C400 1.394 . S
C417 C416 1.438 . S
C417 C418 1.428 . S
C418 H410 0.949 . S
C418 C417 1.428 . S
C418 C419 1.345 . S
C419 H411 0.950 . S
C419 C418 1.345 . S
C419 C420 1.424 . S
C420 H412 0.951 . S
C420 C419 1.424 . S
C420 C421 1.347 . S
C421 H413 0.951 . S
C421 C416 1.429 . S
C421 C420 1.347 . S
H422 C423 0.951 . S
C423 H422 0.951 . S
C423 C429 1.265 . S
H424 C429 0.950 . S
H425 C433 0.949 . S
H426 C434 0.950 . S
H427 C435 0.951 . S
H428 C436 0.951 . S
C429 C423 1.265 . S
C429 H424 0.950 . S
C429 C430 1.478 . S
C430 C429 1.478 . S
C430 C431 1.397 . S
C430 C447 1.394 . S
C431 C430 1.397 . S
C431 C432 1.438 . S
C431 C436 1.429 . S
C432 C431 1.438 . S
C432 C433 1.428 . S
C432 C445 1.394 . S
C433 H425 0.949 . S
C433 C432 1.428 . S
C433 C434 1.345 . S
C434 H426 0.950 . S
C434 C433 1.345 . S
C434 C435 1.424 . S
C435 H427 0.951 . S
C435 C434 1.424 . S
C435 C436 1.347 . S
C436 H428 0.951 . S
C436 C431 1.429 . S
C436 C435 1.347 . S
H437 C438 0.951 . S
C438 H437 0.951 . S
C438 C444 1.265 . S
H439 C444 0.950 . S
H440 C448 0.949 . S
H441 C449 0.950 . S
H442 C450 0.951 . S
H443 C451 0.951 . S
C444 C438 1.265 . S
C444 H439 0.950 . S
C444 C445 1.478 . S
C445 C432 1.394 . S
C445 C444 1.478 . S
C445 C446 1.397 . S
C446 C445 1.397 . S
C446 C447 1.438 . S
C446 C451 1.429 . S
C447 C430 1.394 . S
C447 C446 1.438 . S
C447 C448 1.428 . S
C448 H440 0.949 . S
C448 C447 1.428 . S
C448 C449 1.345 . S
C449 H441 0.950 . S
C449 C448 1.345 . S
C449 C450 1.424 . S
C450 H442 0.951 . S
C450 C449 1.424 . S
C450 C451 1.347 . S
C451 H443 0.951 . S
C451 C446 1.429 . S
C451 C450 1.347 . S
H452 C453 0.951 . S
C453 H452 0.951 . S
C453 C459 1.265 . S
H454 C459 0.950 . S
H455 C463 0.949 . S
H456 C464 0.950 1_545 S
H457 C465 0.951 . S
H458 C466 0.951 . S
C459 C453 1.265 . S
C459 H454 0.950 . S
C459 C460 1.478 . S
C460 C459 1.478 . S
C460 C461 1.397 . S
C460 C477 1.394 . S
C461 C460 1.397 . S
C461 C462 1.438 . S
C461 C466 1.429 . S
C462 C461 1.438 . S
C462 C463 1.428 . S
C462 C475 1.394 . S
C463 H455 0.949 . S
C463 C462 1.428 . S
C463 C464 1.345 . S
C464 H456 0.950 1_565 S
C464 C463 1.345 . S
C464 C465 1.424 . S
C465 H457 0.951 . S
C465 C464 1.424 . S
C465 C466 1.347 . S
C466 H458 0.951 . S
C466 C461 1.429 . S
C466 C465 1.347 . S
H467 C468 0.951 . S
C468 H467 0.951 . S
C468 C474 1.265 . S
H469 C474 0.950 . S
H470 C478 0.949 . S
H471 C479 0.950 . S
H472 C480 0.951 . S
H473 C481 0.951 . S
C474 C468 1.265 . S
C474 H469 0.950 . S
C474 C475 1.478 . S
C475 C462 1.394 . S
C475 C474 1.478 . S
C475 C476 1.397 . S
C476 C475 1.397 . S
C476 C477 1.438 . S
C476 C481 1.429 . S
C477 C460 1.394 . S
C477 C476 1.438 . S
C477 C478 1.428 . S
C478 H470 0.949 . S
C478 C477 1.428 . S
C478 C479 1.345 . S
C479 H471 0.950 . S
C479 C478 1.345 . S
C479 C480 1.424 . S
C480 H472 0.951 . S
C480 C479 1.424 . S
C480 C481 1.347 . S
C481 H473 0.951 . S
C481 C476 1.429 . S
C481 C480 1.347 . S
C138 C93 1.516 . S
C123 C68 1.445 . S
C153 C11 1.350 . S
C168 C116 1.517 . S
C183 C30 1.480 . S
C198 C92 1.557 . S
C213 C49 1.470 . S
C228 C115 1.555 . S
C258 C96 1.556 . S
C243 C2 1.506 . S
C288 C118 1.520 . S
C273 C25 1.597 . S
C303 C40 1.540 . S
C318 C97 1.558 . S
C333 C59 1.554 . S
C348 C117 1.499 . S
C378 C120 1.426 . S
C363 C21 1.401 . S
C408 C95 1.383 . S
C393 C44 1.480 . S
C438 C119 1.373 . S
C423 C63 1.450 . S
C453 C6 1.479 . S
C468 C94 1.458 . S
