# Generated by pormake.
# Topology eea, (3,6)-cn, num edge types: 1
# Building blocks:
#     Node 0, Type 0, BuildingBlock: VETTIZ_charged_linker_0, # of connection points: 3
#     Node 1, Type 0, BuildingBlock: VETTIZ_charged_linker_0, # of connection points: 3
#     Node 2, Type 0, BuildingBlock: VETTIZ_charged_linker_0, # of connection points: 3
#     Node 3, Type 0, BuildingBlock: VETTIZ_charged_linker_0, # of connection points: 3
#     Node 4, Type 0, BuildingBlock: VETTIZ_charged_linker_0, # of connection points: 3
#     Node 5, Type 0, BuildingBlock: VETTIZ_charged_linker_0, # of connection points: 3
#     Node 6, Type 0, BuildingBlock: VETTIZ_charged_linker_0, # of connection points: 3
#     Node 7, Type 0, BuildingBlock: VETTIZ_charged_linker_0, # of connection points: 3
#     Node 8, Type 0, BuildingBlock: VETTIZ_charged_linker_0, # of connection points: 3
#     Node 9, Type 0, BuildingBlock: VETTIZ_charged_linker_0, # of connection points: 3
#     Node 10, Type 0, BuildingBlock: VETTIZ_charged_linker_0, # of connection points: 3
#     Node 11, Type 0, BuildingBlock: VETTIZ_charged_linker_0, # of connection points: 3
#     Node 12, Type 0, BuildingBlock: VETTIZ_charged_linker_0, # of connection points: 3
#     Node 13, Type 0, BuildingBlock: VETTIZ_charged_linker_0, # of connection points: 3
#     Node 14, Type 0, BuildingBlock: VETTIZ_charged_linker_0, # of connection points: 3
#     Node 15, Type 0, BuildingBlock: VETTIZ_charged_linker_0, # of connection points: 3
#     Node 16, Type 0, BuildingBlock: VETTIZ_charged_linker_0, # of connection points: 3
#     Node 17, Type 0, BuildingBlock: VETTIZ_charged_linker_0, # of connection points: 3
#     Node 18, Type 1, BuildingBlock: CIFDUS_clean_sbu_1, # of connection points: 6
#     Node 19, Type 1, BuildingBlock: CIFDUS_clean_sbu_1, # of connection points: 6
#     Node 20, Type 1, BuildingBlock: CIFDUS_clean_sbu_1, # of connection points: 6
#     Node 21, Type 1, BuildingBlock: CIFDUS_clean_sbu_1, # of connection points: 6
#     Node 22, Type 1, BuildingBlock: CIFDUS_clean_sbu_1, # of connection points: 6
#     Node 23, Type 1, BuildingBlock: CIFDUS_clean_sbu_1, # of connection points: 6
#     Node 24, Type 1, BuildingBlock: CIFDUS_clean_sbu_1, # of connection points: 6
#     Node 25, Type 1, BuildingBlock: CIFDUS_clean_sbu_1, # of connection points: 6
#     Node 26, Type 1, BuildingBlock: CIFDUS_clean_sbu_1, # of connection points: 6
#     Edge 27, Type (0, 1), BuildingBlock: XUDNAN_clean_linker_2, # of connection points: 2
#     Edge 28, Type (0, 1), BuildingBlock: XUDNAN_clean_linker_2, # of connection points: 2
#     Edge 29, Type (0, 1), BuildingBlock: XUDNAN_clean_linker_2, # of connection points: 2
#     Edge 30, Type (0, 1), BuildingBlock: XUDNAN_clean_linker_2, # of connection points: 2
#     Edge 31, Type (0, 1), BuildingBlock: XUDNAN_clean_linker_2, # of connection points: 2
#     Edge 32, Type (0, 1), BuildingBlock: XUDNAN_clean_linker_2, # of connection points: 2
#     Edge 33, Type (0, 1), BuildingBlock: XUDNAN_clean_linker_2, # of connection points: 2
#     Edge 34, Type (0, 1), BuildingBlock: XUDNAN_clean_linker_2, # of connection points: 2
#     Edge 35, Type (0, 1), BuildingBlock: XUDNAN_clean_linker_2, # of connection points: 2
#     Edge 36, Type (0, 1), BuildingBlock: XUDNAN_clean_linker_2, # of connection points: 2
#     Edge 37, Type (0, 1), BuildingBlock: XUDNAN_clean_linker_2, # of connection points: 2
#     Edge 38, Type (0, 1), BuildingBlock: XUDNAN_clean_linker_2, # of connection points: 2
#     Edge 39, Type (0, 1), BuildingBlock: XUDNAN_clean_linker_2, # of connection points: 2
#     Edge 40, Type (0, 1), BuildingBlock: XUDNAN_clean_linker_2, # of connection points: 2
#     Edge 41, Type (0, 1), BuildingBlock: XUDNAN_clean_linker_2, # of connection points: 2
#     Edge 42, Type (0, 1), BuildingBlock: XUDNAN_clean_linker_2, # of connection points: 2
#     Edge 43, Type (0, 1), BuildingBlock: XUDNAN_clean_linker_2, # of connection points: 2
#     Edge 44, Type (0, 1), BuildingBlock: XUDNAN_clean_linker_2, # of connection points: 2
#     Edge 45, Type (0, 1), BuildingBlock: XUDNAN_clean_linker_2, # of connection points: 2
#     Edge 46, Type (0, 1), BuildingBlock: XUDNAN_clean_linker_2, # of connection points: 2
#     Edge 47, Type (0, 1), BuildingBlock: XUDNAN_clean_linker_2, # of connection points: 2
#     Edge 48, Type (0, 1), BuildingBlock: XUDNAN_clean_linker_2, # of connection points: 2
#     Edge 49, Type (0, 1), BuildingBlock: XUDNAN_clean_linker_2, # of connection points: 2
#     Edge 50, Type (0, 1), BuildingBlock: XUDNAN_clean_linker_2, # of connection points: 2
#     Edge 51, Type (0, 1), BuildingBlock: XUDNAN_clean_linker_2, # of connection points: 2
#     Edge 52, Type (0, 1), BuildingBlock: XUDNAN_clean_linker_2, # of connection points: 2
#     Edge 53, Type (0, 1), BuildingBlock: XUDNAN_clean_linker_2, # of connection points: 2
#     Edge 54, Type (0, 1), BuildingBlock: XUDNAN_clean_linker_2, # of connection points: 2
#     Edge 55, Type (0, 1), BuildingBlock: XUDNAN_clean_linker_2, # of connection points: 2
#     Edge 56, Type (0, 1), BuildingBlock: XUDNAN_clean_linker_2, # of connection points: 2
#     Edge 57, Type (0, 1), BuildingBlock: XUDNAN_clean_linker_2, # of connection points: 2
#     Edge 58, Type (0, 1), BuildingBlock: XUDNAN_clean_linker_2, # of connection points: 2
#     Edge 59, Type (0, 1), BuildingBlock: XUDNAN_clean_linker_2, # of connection points: 2
#     Edge 60, Type (0, 1), BuildingBlock: XUDNAN_clean_linker_2, # of connection points: 2
#     Edge 61, Type (0, 1), BuildingBlock: XUDNAN_clean_linker_2, # of connection points: 2
#     Edge 62, Type (0, 1), BuildingBlock: XUDNAN_clean_linker_2, # of connection points: 2
#     Edge 63, Type (0, 1), BuildingBlock: XUDNAN_clean_linker_2, # of connection points: 2
#     Edge 64, Type (0, 1), BuildingBlock: XUDNAN_clean_linker_2, # of connection points: 2
#     Edge 65, Type (0, 1), BuildingBlock: XUDNAN_clean_linker_2, # of connection points: 2
#     Edge 66, Type (0, 1), BuildingBlock: XUDNAN_clean_linker_2, # of connection points: 2
#     Edge 67, Type (0, 1), BuildingBlock: XUDNAN_clean_linker_2, # of connection points: 2
#     Edge 68, Type (0, 1), BuildingBlock: XUDNAN_clean_linker_2, # of connection points: 2
#     Edge 69, Type (0, 1), BuildingBlock: XUDNAN_clean_linker_2, # of connection points: 2
#     Edge 70, Type (0, 1), BuildingBlock: XUDNAN_clean_linker_2, # of connection points: 2
#     Edge 71, Type (0, 1), BuildingBlock: XUDNAN_clean_linker_2, # of connection points: 2
#     Edge 72, Type (0, 1), BuildingBlock: XUDNAN_clean_linker_2, # of connection points: 2
#     Edge 73, Type (0, 1), BuildingBlock: XUDNAN_clean_linker_2, # of connection points: 2
#     Edge 74, Type (0, 1), BuildingBlock: XUDNAN_clean_linker_2, # of connection points: 2
#     Edge 75, Type (0, 1), BuildingBlock: XUDNAN_clean_linker_2, # of connection points: 2
#     Edge 76, Type (0, 1), BuildingBlock: XUDNAN_clean_linker_2, # of connection points: 2
#     Edge 77, Type (0, 1), BuildingBlock: XUDNAN_clean_linker_2, # of connection points: 2
#     Edge 78, Type (0, 1), BuildingBlock: XUDNAN_clean_linker_2, # of connection points: 2
#     Edge 79, Type (0, 1), BuildingBlock: XUDNAN_clean_linker_2, # of connection points: 2
#     Edge 80, Type (0, 1), BuildingBlock: XUDNAN_clean_linker_2, # of connection points: 2
# Relax obj value: 0.101
# Max RMSD: 0.186
# Mean RMSD: 0.095
data_MOF--net-eea--node1-CIFDUS_clean_sbu_1--node2-VETTIZ_charged_linker_0--edge1-XUDNAN_clean_linker_2
_symmetry_space_group_name_H-M    P1
_symmetry_Int_Tables_number       1
_symmetry_cell_setting            triclinic
loop_
_symmetry_equiv_pos_as_xyz
'x, y, z'
_cell_length_a     66.169087
_cell_length_b     65.639697
_cell_length_c     67.735484
_cell_angle_alpha  89.986126
_cell_angle_beta   89.88857
_cell_angle_gamma 119.9089
loop_
_atom_site_label
_atom_site_type_symbol
_atom_site_fract_x
_atom_site_fract_y
_atom_site_fract_z
_atom_type_partial_charge
C0 C 0.23435 0.17231 0.36826 0.0
C1 C 0.23638 0.19242 0.37756 0.0
C2 C 0.24961 0.20056 0.39503 0.0
C3 C 0.25542 0.16697 0.3952 0.0
C4 C 0.24397 0.1599 0.37731 0.0
C5 C 0.24151 0.13697 0.37042 0.0
H6 H 0.24647 0.03968 0.39257 0.0
C7 C 0.26069 0.14874 0.40199 0.0
C8 C 0.25274 0.13117 0.38744 0.0
H9 H 0.21701 0.05411 0.34057 0.0
H10 H 0.23124 0.09298 0.3516 0.0
H11 H 0.29487 0.09062 0.39278 0.0
H12 H 0.22839 0.06156 0.42187 0.0
H13 H 0.24956 0.0779 0.43959 0.0
H14 H 0.24967 0.05328 0.4281 0.0
H15 H 0.28708 0.07057 0.41314 0.0
H16 H 0.3005 0.10192 0.41691 0.0
C17 C 0.25577 0.14168 0.35114 0.0
C18 C 0.21513 0.11879 0.36825 0.0
C19 C 0.28771 0.15018 0.4727 0.0
C20 C 0.29163 0.1341 0.48345 0.0
C21 C 0.2922 0.11567 0.47326 0.0
C22 C 0.28719 0.11214 0.4531 0.0
C23 C 0.28121 0.127 0.44293 0.0
C24 C 0.28256 0.14628 0.45243 0.0
C25 C 0.27631 0.16049 0.43882 0.0
C26 C 0.26993 0.14581 0.42002 0.0
C27 C 0.27245 0.12599 0.42271 0.0
C28 C 0.29824 0.18499 0.43591 0.0
C29 C 0.25511 0.16118 0.44782 0.0
C30 C 0.24281 0.05064 0.38314 0.0
C31 C 0.22923 0.04208 0.36575 0.0
C32 C 0.22634 0.05863 0.35433 0.0
C33 C 0.23486 0.08181 0.3607 0.0
C34 C 0.2466 0.08911 0.37874 0.0
C35 C 0.25103 0.07385 0.38933 0.0
C36 C 0.26305 0.08437 0.4086 0.0
C37 C 0.26446 0.1082 0.40799 0.0
C38 C 0.25483 0.11087 0.39041 0.0
C39 C 0.28762 0.08691 0.40803 0.0
C40 C 0.24709 0.06855 0.42553 0.0
H41 H 0.26835 0.19468 0.41746 0.0
H42 H 0.22464 0.1658 0.35465 0.0
H43 H 0.20419 0.12342 0.37764 0.0
H44 H 0.21066 0.101 0.37324 0.0
H45 H 0.20923 0.11779 0.35275 0.0
H46 H 0.27283 0.15822 0.35234 0.0
H47 H 0.24631 0.14356 0.33837 0.0
H48 H 0.2601 0.12782 0.34783 0.0
H49 H 0.28743 0.16467 0.48008 0.0
H50 H 0.29586 0.10347 0.48108 0.0
H51 H 0.28724 0.09739 0.44637 0.0
H52 H 0.31452 0.18409 0.4374 0.0
H53 H 0.29893 0.19777 0.44702 0.0
H54 H 0.29926 0.19216 0.42092 0.0
H55 H 0.24215 0.14361 0.45372 0.0
H56 H 0.24548 0.16562 0.43703 0.0
H57 H 0.26059 0.17396 0.46018 0.0
H58 H 0.25145 0.21595 0.40256 0.0
C59 C 0.25921 0.18803 0.40382 0.0
C60 C 0.9343 0.1717 0.36365 0.0
C61 C 0.9511 0.19355 0.37135 0.0
C62 C 0.945 0.20269 0.38779 0.0
C63 C 0.90786 0.16684 0.39053 0.0
C64 C 0.91284 0.15879 0.37335 0.0
C65 C 0.89336 0.13497 0.36747 0.0
H66 H 0.79416 0.03609 0.393 0.0
C67 C 0.88547 0.14799 0.39842 0.0
C68 C 0.87687 0.12928 0.38482 0.0
H69 H 0.82969 0.05158 0.33686 0.0
H70 H 0.85837 0.09047 0.34853 0.0
H71 H 0.83584 0.05674 0.42021 0.0
H72 H 0.79603 0.08528 0.39524 0.0
H73 H 0.80179 0.09568 0.41958 0.0
H74 H 0.78599 0.06443 0.41513 0.0
H75 H 0.8098 0.05277 0.43186 0.0
H76 H 0.83813 0.07729 0.43787 0.0
C77 C 0.9031 0.11791 0.36606 0.0
C78 C 0.88257 0.13761 0.348 0.0
C79 C 0.8558 0.15376 0.46721 0.0
C80 C 0.8367 0.137 0.47855 0.0
C81 C 0.8228 0.11424 0.47081 0.0
C82 C 0.82684 0.10843 0.4521 0.0
C83 C 0.84538 0.12524 0.44079 0.0
C84 C 0.85988 0.14737 0.44835 0.0
C85 C 0.87956 0.16213 0.43416 0.0
C86 C 0.87372 0.14525 0.41676 0.0
C87 C 0.85366 0.1238 0.421 0.0
C88 C 0.90269 0.16767 0.44427 0.0
C89 C 0.8781 0.18419 0.4285 0.0
C90 C 0.80842 0.04776 0.38341 0.0
C91 C 0.8103 0.04085 0.36432 0.0
C92 C 0.8284 0.05664 0.35183 0.0
C93 C 0.84482 0.07915 0.35857 0.0
C94 C 0.84275 0.08587 0.37786 0.0
C95 C 0.82452 0.07034 0.38971 0.0
C96 C 0.8238 0.08079 0.40912 0.0
C97 C 0.84481 0.10517 0.40718 0.0
C98 C 0.85606 0.10801 0.38903 0.0
C99 C 0.82689 0.06618 0.4257 0.0
C100 C 0.8007 0.08152 0.41005 0.0
H101 H 0.92019 0.1971 0.41009 0.0
H102 H 0.9381 0.16419 0.35093 0.0
H103 H 0.88472 0.15548 0.34661 0.0
H104 H 0.8635 0.12554 0.34731 0.0
H105 H 0.89094 0.13471 0.33491 0.0
H106 H 0.91459 0.12033 0.37886 0.0
H107 H 0.91354 0.12111 0.35237 0.0
H108 H 0.88942 0.09925 0.36633 0.0
H109 H 0.86713 0.17132 0.47276 0.0
H110 H 0.80877 0.10051 0.47936 0.0
H111 H 0.81528 0.09085 0.44731 0.0
H112 H 0.90115 0.15151 0.45105 0.0
H113 H 0.90718 0.18088 0.45618 0.0
H114 H 0.91754 0.17418 0.43399 0.0
H115 H 0.85963 0.17997 0.42756 0.0
H116 H 0.88559 0.19113 0.41378 0.0
H117 H 0.88696 0.19832 0.43965 0.0
H118 H 0.95704 0.21997 0.39352 0.0
C119 C 0.92357 0.18942 0.39744 0.0
C120 C 0.93544 0.76017 0.36645 0.0
C121 C 0.9537 0.75866 0.37543 0.0
C122 C 0.94965 0.74619 0.39325 0.0
C123 C 0.91014 0.73936 0.39421 0.0
C124 C 0.91384 0.75046 0.37609 0.0
C125 C 0.89324 0.75257 0.36962 0.0
H126 H 0.79208 0.74841 0.393 0.0
C127 C 0.88705 0.73432 0.40163 0.0
C128 C 0.87708 0.742 0.38724 0.0
H129 H 0.82988 0.76971 0.33773 0.0
H130 H 0.8573 0.75864 0.34991 0.0
H131 H 0.796 0.70052 0.39749 0.0
H132 H 0.83429 0.77058 0.42076 0.0
H133 H 0.83358 0.75198 0.43965 0.0
H134 H 0.8066 0.74909 0.4307 0.0
H135 H 0.78464 0.71135 0.41629 0.0
H136 H 0.80192 0.69794 0.42235 0.0
C137 C 0.88295 0.73754 0.35076 0.0
C138 C 0.90142 0.77904 0.36694 0.0
C139 C 0.86065 0.70185 0.47112 0.0
C140 C 0.84158 0.69856 0.48271 0.0
C141 C 0.82516 0.70387 0.47472 0.0
C142 C 0.82751 0.71222 0.45537 0.0
C143 C 0.84672 0.71566 0.44395 0.0
C144 C 0.86299 0.71065 0.45186 0.0
C145 C 0.88301 0.71689 0.43789 0.0
C146 C 0.87557 0.72565 0.42006 0.0
C147 C 0.8543 0.72485 0.42378 0.0
C148 C 0.88387 0.69427 0.43312 0.0
C149 C 0.9055 0.73663 0.44758 0.0
C150 C 0.80632 0.75074 0.38355 0.0
C151 C 0.80902 0.76023 0.36447 0.0
C152 C 0.82742 0.76242 0.35247 0.0
C153 C 0.8434 0.75611 0.35961 0.0
C154 C 0.84104 0.74757 0.37899 0.0
C155 C 0.82238 0.7444 0.39042 0.0
C156 C 0.82223 0.73434 0.4104 0.0
C157 C 0.8442 0.73253 0.40921 0.0
C158 C 0.85528 0.74058 0.3909 0.0
C159 C 0.80002 0.70982 0.41193 0.0
C160 C 0.8241 0.75221 0.42632 0.0
H161 H 0.92592 0.72745 0.4164 0.0
H162 H 0.93835 0.76989 0.35281 0.0
H163 H 0.91376 0.78962 0.37885 0.0
H164 H 0.88715 0.78305 0.3679 0.0
H165 H 0.91051 0.78568 0.35258 0.0
H166 H 0.88589 0.72225 0.35061 0.0
H167 H 0.89111 0.74802 0.33722 0.0
H168 H 0.8638 0.72965 0.34983 0.0
H169 H 0.87367 0.69816 0.47707 0.0
H170 H 0.81031 0.7013 0.48343 0.0
H171 H 0.81436 0.71587 0.45015 0.0
H172 H 0.86595 0.67908 0.43121 0.0
H173 H 0.89233 0.68987 0.44525 0.0
H174 H 0.89302 0.69553 0.41914 0.0
H175 H 0.90164 0.74836 0.45674 0.0
H176 H 0.91851 0.74851 0.43673 0.0
H177 H 0.91367 0.7292 0.45735 0.0
H178 H 0.96368 0.74496 0.40032 0.0
C179 C 0.92786 0.73631 0.40262 0.0
C180 C 0.17387 0.24003 0.64119 0.0
C181 C 0.19402 0.24134 0.63306 0.0
C182 C 0.20139 0.25094 0.61407 0.0
C183 C 0.16826 0.25701 0.61128 0.0
C184 C 0.16119 0.24775 0.62999 0.0
C185 C 0.1385 0.2461 0.63583 0.0
H186 H 0.04303 0.25199 0.6106 0.0
C187 C 0.15064 0.26236 0.60328 0.0
C188 C 0.1332 0.25607 0.61757 0.0
H189 H 0.05818 0.22871 0.66555 0.0
H190 H 0.09662 0.2401 0.654 0.0
H191 H 0.09664 0.30025 0.60646 0.0
H192 H 0.06645 0.23044 0.58149 0.0
H193 H 0.08092 0.25182 0.563 0.0
H194 H 0.0561 0.25028 0.57526 0.0
H195 H 0.07399 0.28993 0.58822 0.0
H196 H 0.1042 0.30219 0.5813 0.0
C197 C 0.14291 0.26187 0.6542 0.0
C198 C 0.12039 0.21973 0.639 0.0
C199 C 0.15887 0.29041 0.53272 0.0
C200 C 0.14471 0.29475 0.52009 0.0
C201 C 0.12473 0.29438 0.52782 0.0
C202 C 0.11825 0.2883 0.54773 0.0
C203 C 0.13196 0.28261 0.55993 0.0
C204 C 0.15229 0.28449 0.55242 0.0
C205 C 0.16487 0.27783 0.56714 0.0
C206 C 0.14861 0.27111 0.5847 0.0
C207 C 0.12923 0.27378 0.58053 0.0
C208 C 0.18872 0.29994 0.57147 0.0
C209 C 0.16642 0.2566 0.55878 0.0
C210 C 0.0547 0.24937 0.62009 0.0
C211 C 0.04742 0.23925 0.639 0.0
C212 C 0.0633 0.23661 0.65104 0.0
C213 C 0.08563 0.24304 0.64421 0.0
C214 C 0.09228 0.25208 0.62503 0.0
C215 C 0.07723 0.25575 0.61344 0.0
C216 C 0.0878 0.26604 0.59356 0.0
C217 C 0.11123 0.26697 0.59494 0.0
C218 C 0.11352 0.25856 0.61343 0.0
C219 C 0.09075 0.29088 0.59211 0.0
C220 C 0.07204 0.24892 0.57735 0.0
H221 H 0.19526 0.26606 0.58882 0.0
H222 H 0.16773 0.23252 0.65571 0.0
H223 H 0.12322 0.20853 0.62829 0.0
H224 H 0.10224 0.21547 0.63644 0.0
H225 H 0.12176 0.21388 0.65408 0.0
H226 H 0.16091 0.27724 0.65408 0.0
H227 H 0.14075 0.25198 0.66808 0.0
H228 H 0.13146 0.26968 0.65466 0.0
H229 H 0.17443 0.29079 0.52715 0.0
H230 H 0.11365 0.29781 0.51827 0.0
H231 H 0.10253 0.28763 0.55272 0.0
H232 H 0.18694 0.31592 0.57222 0.0
H233 H 0.20159 0.30284 0.55969 0.0
H234 H 0.19603 0.29915 0.5859 0.0
H235 H 0.15185 0.24601 0.54843 0.0
H236 H 0.16471 0.24392 0.57031 0.0
H237 H 0.18298 0.26252 0.55058 0.0
H238 H 0.21702 0.25228 0.60764 0.0
C239 C 0.18875 0.25897 0.60321 0.0
C240 C 0.75687 0.82073 0.63947 0.0
C241 C 0.75671 0.8016 0.62972 0.0
C242 C 0.74369 0.7933 0.61211 0.0
C243 C 0.73466 0.82475 0.61276 0.0
C244 C 0.7461 0.83224 0.63059 0.0
C245 C 0.74769 0.85495 0.63727 0.0
H246 H 0.74842 0.95419 0.60983 0.0
C247 C 0.72887 0.84251 0.60567 0.0
C248 C 0.73662 0.86045 0.61986 0.0
H249 H 0.76892 0.93916 0.66611 0.0
H250 H 0.75322 0.89848 0.65656 0.0
H251 H 0.76615 0.93105 0.58447 0.0
H252 H 0.69652 0.90132 0.60768 0.0
H253 H 0.69464 0.89399 0.58247 0.0
H254 H 0.70858 0.92447 0.58963 0.0
H255 H 0.74502 0.93701 0.57341 0.0
H256 H 0.74771 0.91198 0.56625 0.0
C257 C 0.77382 0.87342 0.63984 0.0
C258 C 0.73298 0.85 0.65629 0.0
C259 C 0.69843 0.83553 0.53584 0.0
C260 C 0.69794 0.85192 0.52262 0.0
C261 C 0.70255 0.87387 0.53025 0.0
C262 C 0.70844 0.87961 0.55019 0.0
C263 C 0.71056 0.86364 0.56265 0.0
C264 C 0.70555 0.84201 0.55536 0.0
C265 C 0.71159 0.82839 0.56972 0.0
C266 C 0.72001 0.84497 0.58727 0.0
C267 C 0.71927 0.86551 0.58309 0.0
C268 C 0.73138 0.8252 0.56042 0.0
C269 C 0.68909 0.80511 0.5747 0.0
C270 C 0.74913 0.9421 0.62032 0.0
C271 C 0.76051 0.95011 0.63855 0.0
C272 C 0.76093 0.93364 0.65171 0.0
C273 C 0.75188 0.91007 0.64614 0.0
C274 C 0.74272 0.90297 0.62707 0.0
C275 C 0.7404 0.9186 0.61492 0.0
C276 C 0.73007 0.90804 0.59524 0.0
C277 C 0.72719 0.88374 0.59733 0.0
C278 C 0.73505 0.88094 0.61588 0.0
C279 C 0.74794 0.92273 0.57889 0.0
C280 C 0.70624 0.90696 0.59346 0.0
H281 H 0.72322 0.79743 0.59031 0.0
H282 H 0.76596 0.82732 0.6533 0.0
H283 H 0.717 0.83237 0.65565 0.0
H284 H 0.72657 0.8625 0.65837 0.0
H285 H 0.74303 0.85035 0.66953 0.0
H286 H 0.78431 0.87225 0.62749 0.0
H287 H 0.78072 0.87052 0.65385 0.0
H288 H 0.77745 0.89169 0.63962 0.0
H289 H 0.69439 0.81819 0.53107 0.0
H290 H 0.70263 0.88715 0.52075 0.0
H291 H 0.71214 0.89673 0.5549 0.0
H292 H 0.7405 0.83788 0.5482 0.0
H293 H 0.72448 0.80728 0.55423 0.0
H294 H 0.74545 0.82873 0.57103 0.0
H295 H 0.67418 0.80821 0.57689 0.0
H296 H 0.6905 0.79706 0.58858 0.0
H297 H 0.68446 0.79218 0.56254 0.0
H298 H 0.74311 0.77889 0.60391 0.0
C299 C 0.7324 0.80446 0.60386 0.0
C300 C 0.06601 0.82176 0.63978 0.0
C301 C 0.04724 0.8009 0.63221 0.0
C302 C 0.05037 0.79174 0.61435 0.0
C303 C 0.08924 0.82518 0.61083 0.0
C304 C 0.08683 0.83357 0.62888 0.0
C305 C 0.10824 0.85646 0.63426 0.0
H306 H 0.20879 0.94882 0.60137 0.0
C307 C 0.11212 0.84226 0.60243 0.0
C308 C 0.12359 0.86062 0.61625 0.0
H309 H 0.17922 0.94223 0.65971 0.0
H310 H 0.14864 0.90258 0.65157 0.0
H311 H 0.20581 0.89921 0.60397 0.0
H312 H 0.16811 0.9292 0.57789 0.0
H313 H 0.16471 0.90795 0.5607 0.0
H314 H 0.1936 0.93128 0.56664 0.0
H315 H 0.21444 0.91515 0.58115 0.0
H316 H 0.19559 0.88357 0.58183 0.0
C317 C 0.11899 0.85259 0.65311 0.0
C318 C 0.10114 0.87549 0.63649 0.0
C319 C 0.13096 0.83707 0.52993 0.0
C320 C 0.15013 0.85272 0.51826 0.0
C321 C 0.16995 0.87096 0.52729 0.0
C322 C 0.17025 0.87478 0.54748 0.0
C323 C 0.15036 0.86047 0.55883 0.0
C324 C 0.13149 0.84134 0.55036 0.0
C325 C 0.11229 0.82806 0.56531 0.0
C326 C 0.12234 0.84351 0.58361 0.0
C327 C 0.14443 0.86248 0.57941 0.0
C328 C 0.1097 0.80347 0.56828 0.0
C329 C 0.08995 0.8275 0.55775 0.0
C330 C 0.19654 0.93906 0.613 0.0
C331 C 0.19704 0.94918 0.63135 0.0
C332 C 0.17942 0.93532 0.64526 0.0
C333 C 0.16167 0.91219 0.64055 0.0
C334 C 0.16162 0.90277 0.62182 0.0
C335 C 0.17945 0.91618 0.60885 0.0
C336 C 0.17809 0.90396 0.58997 0.0
C337 C 0.15585 0.88101 0.5931 0.0
C338 C 0.14585 0.88018 0.61161 0.0
C339 C 0.1996 0.90036 0.58897 0.0
C340 C 0.17618 0.91874 0.57282 0.0
H341 H 0.07239 0.79597 0.59011 0.0
H342 H 0.06425 0.82921 0.65349 0.0
H343 H 0.08995 0.87467 0.62392 0.0
H344 H 0.11615 0.89348 0.63648 0.0
H345 H 0.09114 0.87289 0.65035 0.0
H346 H 0.11862 0.83547 0.65245 0.0
H347 H 0.10913 0.85244 0.66646 0.0
H348 H 0.1375 0.86604 0.65497 0.0
H349 H 0.11567 0.82268 0.5232 0.0
H350 H 0.185 0.88283 0.51852 0.0
H351 H 0.18562 0.88957 0.55318 0.0
H352 H 0.12667 0.80406 0.56615 0.0
H353 H 0.09713 0.79055 0.55759 0.0
H354 H 0.10427 0.7967 0.58346 0.0
H355 H 0.09414 0.84507 0.55203 0.0
H356 H 0.07668 0.82318 0.56929 0.0
H357 H 0.08189 0.81463 0.54554 0.0
H358 H 0.03651 0.77537 0.60846 0.0
C359 C 0.07125 0.80368 0.60371 0.0
C360 C 0.89884 0.50338 0.70033 0.0
C361 C 0.90204 0.52496 0.70747 0.0
C362 C 0.9141 0.53379 0.7254 0.0
C363 C 0.91886 0.49961 0.72879 0.0
C364 C 0.90754 0.49122 0.71102 0.0
C365 C 0.90505 0.46785 0.70556 0.0
H366 H 0.92313 0.37822 0.73015 0.0
C367 C 0.92513 0.48241 0.73644 0.0
C368 C 0.91744 0.46394 0.7227 0.0
H369 H 0.8795 0.37973 0.68331 0.0
H370 H 0.89292 0.42062 0.69029 0.0
H371 H 0.96738 0.43388 0.72732 0.0
H372 H 0.90362 0.39319 0.75865 0.0
H373 H 0.91904 0.41691 0.77448 0.0
H374 H 0.93059 0.39784 0.76863 0.0
H375 H 0.96245 0.4128 0.74632 0.0
H376 H 0.97283 0.4433 0.75208 0.0
C377 C 0.91799 0.47066 0.68584 0.0
C378 C 0.8787 0.44931 0.70497 0.0
C379 C 0.95342 0.48772 0.80693 0.0
C380 C 0.95799 0.47228 0.81787 0.0
C381 C 0.9606 0.45486 0.80813 0.0
C382 C 0.95699 0.45159 0.78785 0.0
C383 C 0.95001 0.46546 0.77733 0.0
C384 C 0.9494 0.48392 0.78656 0.0
C385 C 0.94197 0.49686 0.77261 0.0
C386 C 0.93605 0.48158 0.75422 0.0
C387 C 0.94076 0.46323 0.75723 0.0
C388 C 0.9631 0.52174 0.76912 0.0
C389 C 0.9203 0.49674 0.78146 0.0
C390 C 0.91627 0.38713 0.72132 0.0
C391 C 0.89969 0.37524 0.7065 0.0
C392 C 0.89213 0.38816 0.69498 0.0
C393 C 0.89965 0.41187 0.69925 0.0
C394 C 0.91433 0.42261 0.71554 0.0
C395 C 0.92255 0.41023 0.72607 0.0
C396 C 0.93517 0.42271 0.74448 0.0
C397 C 0.93339 0.44481 0.74327 0.0
C398 C 0.92154 0.44495 0.72617 0.0
C399 C 0.96081 0.42841 0.74265 0.0
C400 C 0.92167 0.40698 0.76253 0.0
H401 H 0.93135 0.52875 0.7497 0.0
H402 H 0.88925 0.49572 0.68686 0.0
H403 H 0.86835 0.45438 0.71469 0.0
H404 H 0.87496 0.43197 0.71062 0.0
H405 H 0.87163 0.44723 0.68978 0.0
H406 H 0.93562 0.48658 0.6862 0.0
H407 H 0.90827 0.4726 0.6733 0.0
H408 H 0.92076 0.45572 0.68272 0.0
H409 H 0.95169 0.50145 0.81423 0.0
H410 H 0.96465 0.44321 0.8164 0.0
H411 H 0.95867 0.43765 0.78133 0.0
H412 H 0.97983 0.52164 0.77012 0.0
H413 H 0.96363 0.53441 0.78026 0.0
H414 H 0.96322 0.52851 0.75414 0.0
H415 H 0.90789 0.47911 0.78761 0.0
H416 H 0.91028 0.50046 0.7705 0.0
H417 H 0.92537 0.50975 0.7936 0.0
H418 H 0.91715 0.55048 0.73116 0.0
C419 C 0.92254 0.52126 0.73607 0.0
C420 C 0.60201 0.50738 0.69991 0.0
C421 C 0.61969 0.52733 0.70969 0.0
C422 C 0.61672 0.53034 0.72995 0.0
C423 C 0.57826 0.49672 0.72979 0.0
C424 C 0.58142 0.49212 0.71044 0.0
C425 C 0.56109 0.46906 0.70357 0.0
H426 H 0.45581 0.37305 0.72537 0.0
C427 C 0.55529 0.47845 0.73673 0.0
C428 C 0.54507 0.46176 0.72165 0.0
H429 H 0.4984 0.38565 0.67324 0.0
H430 H 0.5266 0.42377 0.68546 0.0
H431 H 0.49864 0.39354 0.75666 0.0
H432 H 0.46145 0.42272 0.72722 0.0
H433 H 0.47013 0.43762 0.74984 0.0
H434 H 0.45065 0.40617 0.74962 0.0
H435 H 0.46876 0.38498 0.76159 0.0
H436 H 0.49228 0.40929 0.77425 0.0
C437 C 0.57021 0.45183 0.69938 0.0
C438 C 0.54987 0.47388 0.68549 0.0
C439 C 0.52634 0.48662 0.80436 0.0
C440 C 0.50494 0.47316 0.81414 0.0
C441 C 0.487 0.45318 0.80482 0.0
C442 C 0.49038 0.44636 0.78613 0.0
C443 C 0.51189 0.45975 0.77654 0.0
C444 C 0.52929 0.47976 0.78546 0.0
C445 C 0.55061 0.49224 0.77261 0.0
C446 C 0.54307 0.47626 0.75458 0.0
C447 C 0.52057 0.45717 0.75718 0.0
C448 C 0.57143 0.49263 0.78356 0.0
C449 C 0.55411 0.51687 0.76771 0.0
C450 C 0.47133 0.38386 0.71671 0.0
C451 C 0.47466 0.37627 0.69826 0.0
C452 C 0.49508 0.39115 0.68737 0.0
C453 C 0.51166 0.41323 0.69455 0.0
C454 C 0.50815 0.4205 0.71304 0.0
C455 C 0.48823 0.40595 0.72375 0.0
C456 C 0.48737 0.41672 0.74304 0.0
C457 C 0.51046 0.43958 0.74246 0.0
C458 C 0.52258 0.44183 0.7248 0.0
C459 C 0.48658 0.40034 0.75987 0.0
C460 C 0.46628 0.42094 0.7426 0.0
H461 H 0.59517 0.51949 0.75498 0.0
H462 H 0.60404 0.50389 0.68463 0.0
H463 H 0.54751 0.48927 0.68831 0.0
H464 H 0.53238 0.45905 0.68208 0.0
H465 H 0.56108 0.47782 0.67219 0.0
H466 H 0.58551 0.45581 0.70879 0.0
H467 H 0.57572 0.4529 0.68374 0.0
H468 H 0.55726 0.43342 0.70299 0.0
H469 H 0.54036 0.50215 0.81121 0.0
H470 H 0.47046 0.44251 0.81224 0.0
H471 H 0.47616 0.43075 0.78 0.0
H472 H 0.5655 0.47907 0.79538 0.0
H473 H 0.58277 0.50995 0.79061 0.0
H474 H 0.58217 0.48841 0.77363 0.0
H475 H 0.53717 0.51563 0.76393 0.0
H476 H 0.56546 0.52524 0.7548 0.0
H477 H 0.5615 0.52888 0.78055 0.0
H478 H 0.63041 0.54442 0.73845 0.0
C479 C 0.59617 0.51557 0.73981 0.0
C480 C 0.59954 0.08951 0.69627 0.0
C481 C 0.61793 0.08746 0.70443 0.0
C482 C 0.61482 0.07654 0.723 0.0
C483 C 0.57618 0.07173 0.72571 0.0
C484 C 0.57895 0.08168 0.70719 0.0
C485 C 0.55851 0.08441 0.70143 0.0
H486 H 0.45679 0.07836 0.72609 0.0
C487 C 0.55344 0.06705 0.7337 0.0
C488 C 0.54294 0.07427 0.71945 0.0
H489 H 0.4977 0.10636 0.67276 0.0
H490 H 0.52436 0.09403 0.68377 0.0
H491 H 0.46081 0.03154 0.72861 0.0
H492 H 0.50103 0.09971 0.75546 0.0
H493 H 0.49436 0.07811 0.77363 0.0
H494 H 0.47106 0.07971 0.76155 0.0
H495 H 0.45015 0.04017 0.74951 0.0
H496 H 0.46828 0.02696 0.7524 0.0
C497 C 0.54725 0.06933 0.68277 0.0
C498 C 0.56731 0.11104 0.6988 0.0
C499 C 0.53128 0.03959 0.80472 0.0
C500 C 0.51168 0.03465 0.81626 0.0
C501 C 0.49244 0.03452 0.80733 0.0
C502 C 0.49322 0.04063 0.7874 0.0
C503 C 0.51344 0.04685 0.77627 0.0
C504 C 0.53163 0.04529 0.78471 0.0
C505 C 0.55124 0.05151 0.77032 0.0
C506 C 0.5423 0.0582 0.7522 0.0
C507 C 0.52027 0.05573 0.75587 0.0
C508 C 0.55309 0.0292 0.76665 0.0
C509 C 0.57366 0.07263 0.77878 0.0
C510 C 0.47156 0.08198 0.71682 0.0
C511 C 0.47507 0.09353 0.69852 0.0
C512 C 0.49428 0.0973 0.68679 0.0
C513 C 0.50997 0.09033 0.69332 0.0
C514 C 0.50676 0.07974 0.71195 0.0
C515 C 0.48763 0.07541 0.72326 0.0
C516 C 0.48733 0.06433 0.74282 0.0
C517 C 0.50971 0.06322 0.7415 0.0
C518 C 0.52097 0.07232 0.72338 0.0
C519 C 0.46547 0.0395 0.74358 0.0
C520 C 0.48836 0.08114 0.75935 0.0
H521 H 0.59291 0.0608 0.7478 0.0
H522 H 0.60153 0.09805 0.68214 0.0
H523 H 0.58217 0.1218 0.70884 0.0
H524 H 0.55409 0.11593 0.70273 0.0
H525 H 0.57339 0.11687 0.68345 0.0
H526 H 0.5479 0.05272 0.68335 0.0
H527 H 0.55655 0.07892 0.66918 0.0
H528 H 0.52855 0.06366 0.68135 0.0
H529 H 0.54619 0.03956 0.81127 0.0
H530 H 0.4772 0.03074 0.81603 0.0
H531 H 0.47832 0.04096 0.78157 0.0
H532 H 0.53556 0.01313 0.76694 0.0
H533 H 0.56387 0.02713 0.77816 0.0
H534 H 0.56024 0.02907 0.75193 0.0
H535 H 0.56951 0.08506 0.78653 0.0
H536 H 0.58642 0.08332 0.7673 0.0
H537 H 0.58226 0.06668 0.78957 0.0
H538 H 0.6287 0.07453 0.72946 0.0
C539 C 0.59403 0.06856 0.73362 0.0
C540 C 0.84009 0.57098 0.97336 0.0
C541 C 0.86113 0.57393 0.96556 0.0
C542 C 0.86784 0.58269 0.94628 0.0
C543 C 0.83386 0.58709 0.94311 0.0
C544 C 0.82674 0.57782 0.96184 0.0
C545 C 0.80405 0.57658 0.9675 0.0
H546 H 0.71285 0.5899 0.93969 0.0
C547 C 0.817 0.59348 0.93526 0.0
C548 C 0.79947 0.58755 0.94942 0.0
H549 H 0.71917 0.55626 0.99226 0.0
H550 H 0.75943 0.56921 0.98415 0.0
H551 H 0.77038 0.63782 0.9408 0.0
H552 H 0.73234 0.57032 0.91221 0.0
H553 H 0.75245 0.5899 0.89503 0.0
H554 H 0.7299 0.59511 0.90432 0.0
H555 H 0.748 0.63103 0.92281 0.0
H556 H 0.77772 0.64105 0.91549 0.0
C557 C 0.80822 0.59167 0.98621 0.0
C558 C 0.78536 0.55034 0.97006 0.0
C559 C 0.82859 0.62556 0.86578 0.0
C560 C 0.81546 0.63164 0.85339 0.0
C561 C 0.7963 0.63269 0.86142 0.0
C562 C 0.78956 0.62631 0.88121 0.0
C563 C 0.80199 0.61862 0.89299 0.0
C564 C 0.82153 0.61904 0.8853 0.0
C565 C 0.83279 0.61041 0.89964 0.0
C566 C 0.81638 0.60391 0.91711 0.0
C567 C 0.79832 0.60866 0.91322 0.0
C568 C 0.85736 0.63127 0.90447 0.0
C569 C 0.83258 0.58859 0.8905 0.0
C570 C 0.72309 0.58575 0.94965 0.0
C571 C 0.71277 0.57169 0.96642 0.0
C572 C 0.7267 0.56696 0.9792 0.0
C573 C 0.74996 0.57419 0.9743 0.0
C574 C 0.75928 0.58615 0.9564 0.0
C575 C 0.74617 0.59255 0.94479 0.0
C576 C 0.75826 0.60398 0.92574 0.0
C577 C 0.78025 0.60232 0.92735 0.0
C578 C 0.7809 0.59203 0.94544 0.0
C579 C 0.76383 0.62983 0.92603 0.0
C580 C 0.74252 0.58931 0.90832 0.0
H581 H 0.86067 0.5959 0.92053 0.0
H582 H 0.83458 0.56423 0.98816 0.0
H583 H 0.78853 0.53907 0.9597 0.0
H584 H 0.76759 0.5467 0.96652 0.0
H585 H 0.78552 0.54415 0.98529 0.0
H586 H 0.82506 0.60848 0.98506 0.0
H587 H 0.80895 0.5823 -0.00039 0.0
H588 H 0.7948 0.59677 0.98839 0.0
H589 H 0.84373 0.62513 0.86021 0.0
H590 H 0.78595 0.63747 0.85219 0.0
H591 H 0.77449 0.62686 0.8864 0.0
H592 H 0.85733 0.64821 0.90452 0.0
H593 H 0.87041 0.63279 0.89336 0.0
H594 H 0.86347 0.6301 0.91937 0.0
H595 H 0.81748 0.57893 0.8804 0.0
H596 H 0.83044 0.57534 0.90163 0.0
H597 H 0.84868 0.59375 0.88181 0.0
H598 H 0.88388 0.58486 0.93999 0.0
C599 C 0.85438 0.58923 0.93504 0.0
C600 C 0.42666 0.15551 0.97126 0.0
C601 C 0.42399 0.13475 0.96268 0.0
C602 C 0.40908 0.1251 0.94628 0.0
C603 C 0.4031 0.15849 0.94523 0.0
C604 C 0.4159 0.16699 0.96236 0.0
C605 C 0.41817 0.19013 0.96846 0.0
H606 H 0.41533 0.28729 0.94019 0.0
C607 C 0.39748 0.17616 0.93773 0.0
C608 C 0.40592 0.19467 0.95141 0.0
H609 H 0.4413 0.27563 0.99499 0.0
H610 H 0.42567 0.23461 0.98658 0.0
H611 H 0.43173 0.26337 0.91366 0.0
H612 H 0.36479 0.23523 0.94166 0.0
H613 H 0.35968 0.22393 0.91752 0.0
H614 H 0.37371 0.25533 0.92125 0.0
H615 H 0.40964 0.26913 0.90454 0.0
H616 H 0.41166 0.24407 0.89648 0.0
C617 C 0.44448 0.2086 0.96954 0.0
C618 C 0.40484 0.18639 0.98815 0.0
C619 C 0.36872 0.16946 0.86721 0.0
C620 C 0.36371 0.18401 0.85531 0.0
C621 C 0.36573 0.20464 0.86355 0.0
C622 C 0.37274 0.21073 0.88321 0.0
C623 C 0.37806 0.1962 0.89475 0.0
C624 C 0.37561 0.17575 0.88681 0.0
C625 C 0.38157 0.16221 0.90134 0.0
C626 C 0.3884 0.17818 0.9193 0.0
C627 C 0.38667 0.19818 0.91518 0.0
C628 C 0.40247 0.16062 0.89275 0.0
C629 C 0.35944 0.13807 0.90521 0.0
C630 C 0.41753 0.27582 0.95039 0.0
C631 C 0.43005 0.28466 0.96795 0.0
C632 C 0.43197 0.26916 0.98121 0.0
C633 C 0.42302 0.24545 0.97626 0.0
C634 C 0.41223 0.23731 0.95784 0.0
C635 C 0.40872 0.25218 0.94568 0.0
C636 C 0.3968 0.24062 0.92676 0.0
C637 C 0.39474 0.21671 0.92909 0.0
C638 C 0.40392 0.21483 0.94726 0.0
C639 C 0.41305 0.25495 0.90936 0.0
C640 C 0.37252 0.23875 0.92658 0.0
H641 H 0.38795 0.12883 0.92488 0.0
H642 H 0.4375 0.16305 0.98417 0.0
H643 H 0.38879 0.1688 0.98854 0.0
H644 H 0.39863 0.19906 0.99023 0.0
H645 H 0.41579 0.18744 0.00095 0.0
H646 H 0.45417 0.20612 0.9572 0.0
H647 H 0.45218 0.207 0.98361 0.0
H648 H 0.44819 0.22684 0.96804 0.0
H649 H 0.36744 0.1535 0.86137 0.0
H650 H 0.3615 0.21588 0.8549 0.0
H651 H 0.37402 0.22669 0.88861 0.0
H652 H 0.41593 0.17798 0.88683 0.0
H653 H 0.39677 0.14772 0.88047 0.0
H654 H 0.41158 0.15574 0.9037 0.0
H655 H 0.34322 0.13854 0.90187 0.0
H656 H 0.35767 0.13277 0.92094 0.0
H657 H 0.35935 0.12406 0.89594 0.0
H658 H 0.40656 0.10914 0.93934 0.0
C659 C 0.39848 0.13672 0.93768 0.0
C660 C 0.73058 0.15088 0.97181 0.0
C661 C 0.71234 0.13038 0.96346 0.0
C662 C 0.71603 0.12235 0.94523 0.0
C663 C 0.75477 0.1563 0.94301 0.0
C664 C 0.75153 0.16355 0.96132 0.0
C665 C 0.77185 0.18681 0.96724 0.0
H666 H 0.8741 0.28284 0.94412 0.0
C667 C 0.77772 0.17441 0.93531 0.0
C668 C 0.78792 0.19219 0.94957 0.0
H669 H 0.82841 0.27003 0.99451 0.0
H670 H 0.80447 0.23087 0.98433 0.0
H671 H 0.86976 0.23092 0.94201 0.0
H672 H 0.83164 0.26046 0.9142 0.0
H673 H 0.8377 0.24497 0.89624 0.0
H674 H 0.86144 0.26967 0.90826 0.0
H675 H 0.88178 0.25142 0.92192 0.0
H676 H 0.86369 0.22022 0.91768 0.0
C677 C 0.78256 0.18303 0.98624 0.0
C678 C 0.7631 0.20473 0.96937 0.0
C679 C 0.80021 0.17092 0.8641 0.0
C680 C 0.81985 0.18608 0.85279 0.0
C681 C 0.8393 0.20463 0.86209 0.0
C682 C 0.83868 0.20903 0.88226 0.0
C683 C 0.81832 0.1948 0.89317 0.0
C684 C 0.79995 0.17543 0.88433 0.0
C685 C 0.78023 0.16168 0.89856 0.0
C686 C 0.78918 0.17688 0.91695 0.0
C687 C 0.8114 0.19646 0.91361 0.0
C688 C 0.77811 0.1373 0.90172 0.0
C689 C 0.75795 0.16068 0.89022 0.0
C690 C 0.85895 0.27191 0.95306 0.0
C691 C 0.85389 0.28051 0.97047 0.0
C692 C 0.83389 0.26467 0.98145 0.0
C693 C 0.81934 0.24159 0.97527 0.0
C694 C 0.82388 0.23397 0.9574 0.0
C695 C 0.84351 0.24887 0.94665 0.0
C696 C 0.84431 0.2381 0.92717 0.0
C697 C 0.8218 0.21448 0.9281 0.0
C698 C 0.81006 0.21224 0.94594 0.0
C699 C 0.86607 0.2351 0.92698 0.0
C700 C 0.8439 0.25405 0.91048 0.0
H701 H 0.73869 0.12834 0.92104 0.0
H702 H 0.7282 0.1576 0.9857 0.0
H703 H 0.74698 0.19937 0.96065 0.0
H704 H 0.77567 0.22233 0.96351 0.0
H705 H 0.75905 0.20646 0.98499 0.0
H706 H 0.78276 0.1662 0.98549 0.0
H707 H 0.77229 0.18229 -0.00051 0.0
H708 H 0.80095 0.19672 0.98846 0.0
H709 H 0.78515 0.15642 0.8572 0.0
H710 H 0.85458 0.21638 0.85352 0.0
H711 H 0.85375 0.22385 0.88844 0.0
H712 H 0.79545 0.13849 0.90073 0.0
H713 H 0.7667 0.12452 0.89039 0.0
H714 H 0.77152 0.13 0.91658 0.0
H715 H 0.7622 0.1778 0.88342 0.0
H716 H 0.74476 0.15744 0.9016 0.0
H717 H 0.7498 0.14693 0.87867 0.0
H718 H 0.70232 0.10637 0.93866 0.0
C719 C 0.73716 0.1351 0.93503 0.0
C720 C 0.57055 0.84343 0.03594 0.0
C721 C 0.57381 0.86396 0.04569 0.0
C722 C 0.58294 0.86857 0.06497 0.0
C723 C 0.58656 0.83396 0.06451 0.0
C724 C 0.57713 0.82856 0.04575 0.0
C725 C 0.57491 0.8056 0.03858 0.0
H726 H 0.57921 0.7079 0.06632 0.0
C727 C 0.59102 0.81542 0.07133 0.0
C728 C 0.58406 0.79829 0.05641 0.0
H729 H 0.55976 0.71987 0.00827 0.0
H730 H 0.56851 0.759 0.01871 0.0
H731 H 0.6258 0.75727 0.067 0.0
H732 H 0.55688 0.72703 0.09095 0.0
H733 H 0.57484 0.74597 0.10949 0.0
H734 H 0.57882 0.72198 0.10155 0.0
H735 H 0.61662 0.73844 0.08823 0.0
H736 H 0.62973 0.76995 0.09044 0.0
C737 C 0.59065 0.81069 0.0203 0.0
C738 C 0.54899 0.78807 0.03442 0.0
C739 C 0.62434 0.82167 0.14029 0.0
C740 C 0.62847 0.80606 0.15143 0.0
C741 C 0.62363 0.78444 0.14322 0.0
C742 C 0.61486 0.77838 0.12411 0.0
C743 C 0.6106 0.79399 0.11308 0.0
C744 C 0.61518 0.81513 0.12121 0.0
C745 C 0.60842 0.82882 0.10758 0.0
C746 C 0.59983 0.81268 0.08964 0.0
C747 C 0.60116 0.79249 0.09308 0.0
C748 C 0.63072 0.8525 0.10286 0.0
C749 C 0.58851 0.83113 0.11769 0.0
C750 C 0.57741 0.71871 0.05522 0.0
C751 C 0.56889 0.71026 0.03628 0.0
C752 C 0.56601 0.72547 0.02314 0.0
C753 C 0.5711 0.74824 0.02918 0.0
C754 C 0.57929 0.75591 0.04849 0.0
C755 C 0.58288 0.74119 0.06072 0.0
C756 C 0.59271 0.75161 0.08031 0.0
C757 C 0.59383 0.77493 0.07847 0.0
C758 C 0.58571 0.77769 0.05997 0.0
C759 C 0.61742 0.75438 0.08178 0.0
C760 C 0.57512 0.73589 0.09652 0.0
H761 H 0.59653 0.85901 0.08872 0.0
H762 H 0.56326 0.83919 0.02123 0.0
H763 H 0.53802 0.78722 0.0472 0.0
H764 H 0.54561 0.77005 0.03193 0.0
H765 H 0.54294 0.79357 0.02122 0.0
H766 H 0.60822 0.82612 0.023 0.0
H767 H 0.58306 0.81464 0.00723 0.0
H768 H 0.59343 0.79589 0.01665 0.0
H769 H 0.62763 0.83828 0.14645 0.0
H770 H 0.62679 0.77226 0.15162 0.0
H771 H 0.61153 0.76162 0.11882 0.0
H772 H 0.64608 0.85 0.10123 0.0
H773 H 0.63463 0.86545 0.11487 0.0
H774 H 0.62971 0.86032 0.08871 0.0
H775 H 0.57947 0.81756 0.12933 0.0
H776 H 0.57444 0.82824 0.10727 0.0
H777 H 0.59527 0.84856 0.12482 0.0
H778 H 0.58477 0.8835 0.07327 0.0
C779 C 0.58954 0.85401 0.0742 0.0
C780 C 0.27006 0.84139 0.03392 0.0
C781 C 0.2871 0.86181 0.04331 0.0
C782 C 0.28072 0.87111 0.05933 0.0
C783 C 0.24192 0.83737 0.05888 0.0
C784 C 0.24754 0.8294 0.042 0.0
C785 C 0.22806 0.80575 0.03564 0.0
H786 H 0.12872 0.7072 0.06081 0.0
C787 C 0.21855 0.81927 0.06545 0.0
C788 C 0.21003 0.80084 0.05163 0.0
H789 H 0.17149 0.71815 0.00943 0.0
H790 H 0.19509 0.75973 0.01743 0.0
H791 H 0.16965 0.73686 0.09058 0.0
H792 H 0.12462 0.75204 0.05603 0.0
H793 H 0.13278 0.77183 0.07587 0.0
H794 H 0.11661 0.74053 0.08055 0.0
H795 H 0.13865 0.72355 0.09376 0.0
H796 H 0.15822 0.75017 0.10604 0.0
C797 C 0.23725 0.78814 0.03619 0.0
C798 C 0.21946 0.80848 0.01513 0.0
C799 C 0.19126 0.81976 0.13585 0.0
C800 C 0.17041 0.80406 0.14579 0.0
C801 C 0.15137 0.78732 0.13468 0.0
C802 C 0.15368 0.78455 0.11456 0.0
C803 C 0.17533 0.79834 0.10542 0.0
C804 C 0.19319 0.81671 0.11551 0.0
C805 C 0.21384 0.83118 0.10219 0.0
C806 C 0.2059 0.81689 0.08311 0.0
C807 C 0.1837 0.79723 0.08558 0.0
C808 C 0.23548 0.8315 0.11118 0.0
C809 C 0.21662 0.85595 0.09971 0.0
C810 C 0.14327 0.71865 0.05139 0.0
C811 C 0.14896 0.70964 0.03498 0.0
C812 C 0.16732 0.72491 0.02246 0.0
C813 C 0.18089 0.7489 0.02714 0.0
C814 C 0.17596 0.75742 0.04451 0.0
C815 C 0.15687 0.74246 0.05585 0.0
C816 C 0.15392 0.75417 0.0737 0.0
C817 C 0.17508 0.77854 0.07179 0.0
C818 C 0.18805 0.78036 0.05478 0.0
C819 C 0.15507 0.74061 0.09206 0.0
C820 C 0.13077 0.7546 0.0716 0.0
H821 H 0.25436 0.86651 0.07966 0.0
H822 H 0.27463 0.83392 0.02162 0.0
H823 H 0.21914 0.82524 0.01421 0.0
H824 H 0.2014 0.79453 0.01202 0.0
H825 H 0.23112 0.80866 0.00322 0.0
H826 H 0.24966 0.79219 0.04862 0.0
H827 H 0.24657 0.78892 0.02231 0.0
H828 H 0.2235 0.76984 0.03881 0.0
H829 H 0.20595 0.83341 0.14379 0.0
H830 H 0.13471 0.77591 0.14165 0.0
H831 H 0.13882 0.771 0.10709 0.0
H832 H 0.23158 0.81331 0.11457 0.0
H833 H 0.24078 0.84176 0.12512 0.0
H834 H 0.2507 0.83917 0.10124 0.0
H835 H 0.20059 0.85628 0.10416 0.0
H836 H 0.21962 0.86182 0.08409 0.0
H837 H 0.23117 0.86923 0.10883 0.0
H838 H 0.29363 0.88707 0.06653 0.0
C839 C 0.25808 0.8591 0.06703 0.0
C840 C 0.27016 0.43022 0.03326 0.0
C841 C 0.2884 0.42875 0.04226 0.0
C842 C 0.28435 0.41647 0.06021 0.0
C843 C 0.2446 0.40926 0.06087 0.0
C844 C 0.24848 0.42033 0.04272 0.0
C845 C 0.22783 0.42193 0.03571 0.0
H846 H 0.12218 0.40938 0.05403 0.0
C847 C 0.22074 0.40278 0.06743 0.0
C848 C 0.21082 0.40994 0.05253 0.0
H849 H 0.16844 0.44421 0.00467 0.0
H850 H 0.19456 0.43148 0.01632 0.0
H851 H 0.12534 0.36481 0.0561 0.0
H852 H 0.16502 0.43047 0.08641 0.0
H853 H 0.15445 0.40723 0.10361 0.0
H854 H 0.13415 0.41098 0.08893 0.0
H855 H 0.11569 0.37 0.07931 0.0
H856 H 0.13475 0.35769 0.07797 0.0
C857 C 0.21901 0.40774 0.0163 0.0
C858 C 0.23523 0.44835 0.03382 0.0
C859 C 0.19324 0.37581 0.13807 0.0
C860 C 0.17209 0.36983 0.14784 0.0
C861 C 0.15288 0.36656 0.13646 0.0
C862 C 0.15517 0.37129 0.11624 0.0
C863 C 0.17693 0.37962 0.10717 0.0
C864 C 0.19516 0.38036 0.11764 0.0
C865 C 0.21621 0.3874 0.10461 0.0
C866 C 0.20812 0.39282 0.08524 0.0
C867 C 0.18518 0.38859 0.08711 0.0
C868 C 0.21992 0.366 0.10261 0.0
C869 C 0.23722 0.40939 0.11362 0.0
C870 C 0.13803 0.41453 0.04577 0.0
C871 C 0.14315 0.4281 0.02842 0.0
C872 C 0.16371 0.4336 0.01793 0.0
C873 C 0.17911 0.42642 0.02488 0.0
C874 C 0.17433 0.41404 0.04279 0.0
C875 C 0.15394 0.40809 0.05281 0.0
C876 C 0.15232 0.39607 0.07214 0.0
C877 C 0.17525 0.39592 0.07208 0.0
C878 C 0.18803 0.40652 0.05489 0.0
C879 C 0.13089 0.37089 0.0715 0.0
C880 C 0.15133 0.41181 0.08875 0.0
H881 H 0.26046 0.39788 0.08342 0.0
H882 H 0.27299 0.43971 0.0195 0.0
H883 H 0.25043 0.45961 0.04337 0.0
H884 H 0.22151 0.45212 0.03883 0.0
H885 H 0.24021 0.45469 0.0184 0.0
H886 H 0.21951 0.39107 0.01729 0.0
H887 H 0.23008 0.41792 0.00358 0.0
H888 H 0.20067 0.40234 0.01302 0.0
H889 H 0.20819 0.3778 0.1462 0.0
H890 H 0.13603 0.36068 0.14326 0.0
H891 H 0.14005 0.36899 0.10854 0.0
H892 H 0.20293 0.34927 0.10242 0.0
H893 H 0.23023 0.36511 0.11516 0.0
H894 H 0.22851 0.36608 0.08859 0.0
H895 H 0.23204 0.42243 0.11816 0.0
H896 H 0.25182 0.41866 0.1032 0.0
H897 H 0.24386 0.40466 0.12689 0.0
H898 H 0.29835 0.41522 0.0673 0.0
C899 C 0.26245 0.40658 0.06954 0.0
C900 C 0.50791 0.90587 0.30624 0.0
C901 C 0.52791 0.9072 0.29786 0.0
C902 C 0.53436 0.91563 0.27844 0.0
C903 C 0.50079 0.92111 0.27593 0.0
C904 C 0.49453 0.91265 0.29497 0.0
C905 C 0.47185 0.91071 0.30118 0.0
H906 H 0.37697 0.91897 0.27899 0.0
C907 C 0.4828 0.92614 0.26822 0.0
C908 C 0.46585 0.9201 0.28298 0.0
H909 H 0.39106 0.89058 0.33158 0.0
H910 H 0.42934 0.90229 0.31963 0.0
H911 H 0.43027 0.96572 0.27517 0.0
H912 H 0.39757 0.89681 0.24856 0.0
H913 H 0.41265 0.91817 0.23023 0.0
H914 H 0.38878 0.91803 0.24306 0.0
H915 H 0.40841 0.95718 0.2564 0.0
H916 H 0.43877 0.96881 0.25024 0.0
C917 C 0.47654 0.92684 0.31934 0.0
C918 C 0.45407 0.88431 0.30485 0.0
C919 C 0.49012 0.95782 0.19859 0.0
C920 C 0.47686 0.96504 0.18761 0.0
C921 C 0.45691 0.96386 0.1962 0.0
C922 C 0.44997 0.95512 0.21546 0.0
C923 C 0.46332 0.94775 0.22629 0.0
C924 C 0.48325 0.94957 0.2179 0.0
C925 C 0.49602 0.94215 0.23184 0.0
C926 C 0.4803 0.93508 0.24985 0.0
C927 C 0.46103 0.93821 0.24653 0.0
C928 C 0.52023 0.96382 0.23605 0.0
C929 C 0.49688 0.921 0.22258 0.0
C930 C 0.38826 0.91518 0.28791 0.0
C931 C 0.38067 0.90361 0.30629 0.0
C932 C 0.3963 0.89966 0.31755 0.0
C933 C 0.41855 0.9062 0.31042 0.0
C934 C 0.42534 0.9165 0.29165 0.0
C935 C 0.41051 0.92125 0.28083 0.0
C936 C 0.42073 0.93189 0.26097 0.0
C937 C 0.44366 0.93175 0.26143 0.0
C938 C 0.4462 0.92284 0.27953 0.0
C939 C 0.42467 0.95719 0.26046 0.0
C940 C 0.40412 0.91556 0.24473 0.0
H941 H 0.52682 0.92913 0.25276 0.0
H942 H 0.50248 0.89912 0.32107 0.0
H943 H 0.45812 0.87276 0.29564 0.0
H944 H 0.43608 0.87939 0.3006 0.0
H945 H 0.45418 0.87941 0.32053 0.0
H946 H 0.49368 0.94327 0.31792 0.0
H947 H 0.47688 0.91793 0.33318 0.0
H948 H 0.46369 0.93281 0.32093 0.0
H949 H 0.5058 0.95904 0.19241 0.0
H950 H 0.44666 0.96965 0.18796 0.0
H951 H 0.43453 0.95446 0.22119 0.0
H952 H 0.51887 0.97998 0.2375 0.0
H953 H 0.53267 0.96678 0.22387 0.0
H954 H 0.52787 0.96244 0.25011 0.0
H955 H 0.48099 0.90996 0.21365 0.0
H956 H 0.49712 0.90885 0.23373 0.0
H957 H 0.51222 0.92701 0.21268 0.0
H958 H 0.5498 0.91675 0.27182 0.0
C959 C 0.52101 0.92279 0.26747 0.0
C960 C 0.09284 0.48889 0.30222 0.0
C961 C 0.08827 0.46755 0.29332 0.0
C962 C 0.07071 0.45732 0.27894 0.0
C963 C 0.06693 0.49196 0.27872 0.0
C964 C 0.08168 0.50077 0.29473 0.0
C965 C 0.08504 0.52443 0.30097 0.0
H966 H 0.0732 0.61854 0.27529 0.0
C967 C 0.06189 0.51004 0.27154 0.0
C968 C 0.07186 0.52909 0.28472 0.0
H969 H 0.10525 0.61166 0.32833 0.0
H970 H 0.09496 0.57168 0.31881 0.0
H971 H 0.09603 0.59606 0.24749 0.0
H972 H 0.0288 0.56893 0.27506 0.0
H973 H 0.02369 0.55584 0.25163 0.0
H974 H 0.03692 0.58739 0.25358 0.0
H975 H 0.07518 0.6044 0.23996 0.0
H976 H 0.07508 0.57904 0.2298 0.0
C977 C 0.11139 0.54255 0.30087 0.0
C978 C 0.07333 0.52143 0.32133 0.0
C979 C 0.0345 0.50376 0.20099 0.0
C980 C 0.02863 0.51755 0.18897 0.0
C981 C 0.02985 0.53788 0.19719 0.0
C982 C 0.03695 0.5443 0.21685 0.0
C983 C 0.04278 0.5302 0.2285 0.0
C984 C 0.0408 0.50997 0.22062 0.0
C985 C 0.04582 0.49597 0.23532 0.0
C986 C 0.05266 0.51201 0.25322 0.0
C987 C 0.05127 0.53214 0.249 0.0
C988 C 0.06639 0.49347 0.22718 0.0
C989 C 0.023 0.47221 0.23883 0.0
C990 C 0.07786 0.60836 0.28495 0.0
C991 C 0.0898 0.61795 0.30254 0.0
C992 C 0.096 0.60444 0.31464 0.0
C993 C 0.09003 0.58136 0.30908 0.0
C994 C 0.07833 0.57216 0.29106 0.0
C995 C 0.07248 0.5858 0.27947 0.0
C996 C 0.06101 0.57422 0.26052 0.0
C997 C 0.05993 0.55084 0.26273 0.0
C998 C 0.07026 0.54955 0.28053 0.0
C999 C 0.07744 0.58912 0.24344 0.0
C1000 C 0.03637 0.57152 0.25996 0.0
H1001 H 0.04731 0.461 0.26031 0.0
H1002 H 0.1057 0.49672 0.31382 0.0
H1003 H 0.05605 0.50504 0.32176 0.0
H1004 H 0.06983 0.53582 0.32477 0.0
H1005 H 0.08423 0.52028 0.33325 0.0
H1006 H 0.11978 0.54058 0.28732 0.0
H1007 H 0.12015 0.54005 0.31387 0.0
H1008 H 0.11507 0.56086 0.30083 0.0
H1009 H 0.03435 0.48828 0.19538 0.0
H1010 H 0.02507 0.54873 0.18859 0.0
H1011 H 0.03769 0.56005 0.22221 0.0
H1012 H 0.08097 0.51088 0.22248 0.0
H1013 H 0.06086 0.48158 0.2142 0.0
H1014 H 0.07379 0.48651 0.23799 0.0
H1015 H 0.00738 0.47215 0.2327 0.0
H1016 H 0.01911 0.46838 0.25478 0.0
H1017 H 0.0239 0.4574 0.23179 0.0
H1018 H 0.06609 0.44039 0.27259 0.0
C1019 C 0.05986 0.4693 0.27177 0.0
C1020 C 0.39987 0.49037 0.30491 0.0
C1021 C 0.38106 0.47022 0.29661 0.0
C1022 C 0.38394 0.46254 0.27788 0.0
C1023 C 0.42335 0.4953 0.27572 0.0
C1024 C 0.42077 0.50262 0.29423 0.0
C1025 C 0.44196 0.52522 0.30029 0.0
H1026 H 0.53898 0.6231 0.27112 0.0
C1027 C 0.4464 0.51282 0.26785 0.0
C1028 C 0.45741 0.53049 0.28218 0.0
H1029 H 0.50583 0.6086 0.32855 0.0
H1030 H 0.48027 0.56817 0.31907 0.0
H1031 H 0.53962 0.57264 0.27036 0.0
H1032 H 0.49718 0.59872 0.24571 0.0
H1033 H 0.49988 0.58147 0.2273 0.0
H1034 H 0.52566 0.60691 0.2364 0.0
H1035 H 0.54836 0.59116 0.24892 0.0
H1036 H 0.53111 0.55953 0.24702 0.0
C1037 C 0.45274 0.52039 0.31871 0.0
C1038 C 0.4343 0.54375 0.30354 0.0
C1039 C 0.47025 0.5047 0.19783 0.0
C1040 C 0.48959 0.51978 0.18609 0.0
C1041 C 0.50708 0.54109 0.19407 0.0
C1042 C 0.50541 0.54745 0.21343 0.0
C1043 C 0.48583 0.53255 0.22492 0.0
C1044 C 0.46866 0.51153 0.21716 0.0
C1045 C 0.44876 0.49848 0.23147 0.0
C1046 C 0.45728 0.51489 0.24923 0.0
C1047 C 0.4789 0.5348 0.24516 0.0
C1048 C 0.44686 0.47451 0.23615 0.0
C1049 C 0.42646 0.49663 0.22222 0.0
C1050 C 0.52659 0.61128 0.2819 0.0
C1051 C 0.52397 0.6195 0.30037 0.0
C1052 C 0.50762 0.60313 0.31388 0.0
C1053 C 0.49277 0.57964 0.30838 0.0
C1054 C 0.49415 0.57243 0.28914 0.0
C1055 C 0.51171 0.58781 0.2767 0.0
C1056 C 0.51136 0.57687 0.25715 0.0
C1057 C 0.48975 0.55291 0.2594 0.0
C1058 C 0.47948 0.55048 0.27804 0.0
C1059 C 0.53379 0.57503 0.25557 0.0
C1060 C 0.50854 0.5917 0.24066 0.0
H1061 H 0.40588 0.46824 0.25324 0.0
H1062 H 0.3983 0.49662 0.31931 0.0
H1063 H 0.42239 0.54278 0.29154 0.0
H1064 H 0.44882 0.56199 0.30332 0.0
H1065 H 0.42485 0.5407 0.31778 0.0
H1066 H 0.45021 0.50231 0.31832 0.0
H1067 H 0.44458 0.52205 0.33251 0.0
H1068 H 0.47184 0.53213 0.31954 0.0
H1069 H 0.45647 0.48828 0.19195 0.0
H1070 H 0.52219 0.5528 0.1853 0.0
H1071 H 0.5193 0.56397 0.21856 0.0
H1072 H 0.46447 0.47661 0.23824 0.0
H1073 H 0.43825 0.46186 0.22389 0.0
H1074 H 0.43732 0.46659 0.25 0.0
H1075 H 0.4308 0.51159 0.21205 0.0
H1076 H 0.41472 0.49761 0.23332 0.0
H1077 H 0.41663 0.48017 0.21358 0.0
H1078 H 0.36968 0.44729 0.27095 0.0
C1079 C 0.40495 0.47486 0.26748 0.0
O1080 O 0.46369 0.96849 0.00419 0.0
Mn1081 Mn 0.49743 -0.00259 0.00254 0.0
O1082 O 0.44113 0.98001 0.01963 0.0
Mn1083 Mn 0.46588 0.00814 0.02794 0.0
O1084 O 0.53174 0.02494 0.00071 0.0
O1085 O 0.50822 0.97411 0.99621 0.0
Mn1086 Mn 0.52237 0.9826 0.9731 0.0
O1087 O 0.49269 0.00271 0.97246 0.0
O1088 O 0.54762 0.01263 0.97725 0.0
O1089 O 0.50299 0.99407 0.0331 0.0
O1090 O 0.48181 0.00693 0.04942 0.0
O1091 O 0.52432 0.95685 0.98002 0.0
O1092 O 0.50114 0.97972 0.95439 0.0
C1093 C 0.48024 0.03685 0.00862 0.0
C1094 C 0.4438 0.96467 0.01042 0.0
C1095 C 0.5489 0.02782 0.98978 0.0
C1096 C 0.51383 0.95776 0.99587 0.0
C1097 C 0.49302 0.99345 0.95582 0.0
C1098 C 0.49647 -0.00016 0.04914 0.0
O1099 O 0.48585 0.02043 0.00822 0.0
O1100 O 0.46609 0.03521 0.0226 0.0
O1101 O 0.01944 0.48499 -0.00019 0.0
Mn1102 Mn 0.99401 0.49453 0.00262 0.0
O1103 O 0.0123 0.46453 0.02726 0.0
Mn1104 Mn 0.98033 0.45314 0.02654 0.0
O1105 O 0.96972 0.50576 0.00448 0.0
O1106 O 0.0214 0.53032 0.00069 0.0
Mn1107 Mn 0.00954 0.52698 0.97634 0.0
O1108 O 0.98525 0.48542 0.97255 0.0
O1109 O 0.98036 0.52476 0.97594 0.0
O1110 O -0.00033 0.4997 0.03398 0.0
O1111 O 0.97046 0.46621 0.04504 0.0
O1112 O 0.03079 0.55632 0.9752 0.0
O1113 O 0.01693 0.5107 0.95872 0.0
C1114 C 0.96117 0.43914 -9e-05 0.0
C1115 C 0.02566 0.47543 0.01299 0.0
C1116 C 0.96688 0.51759 0.99084 0.0
C1117 C 0.034 0.55177 0.99316 0.0
C1118 C -0.00147 0.49157 0.95751 0.0
C1119 C 0.98659 0.48699 0.04842 0.0
O1120 O 0.96774 0.46033 0.00618 0.0
O1121 O 0.96643 0.42697 0.0116 0.0
O1122 O 0.53124 0.5014 0.99731 0.0
Mn1123 Mn 0.49822 0.49878 0.00026 0.0
O1124 O 0.55589 0.53767 0.98632 0.0
Mn1125 Mn 0.53216 0.5411 0.97592 0.0
O1126 O 0.46496 0.49722 0.00197 0.0
O1127 O 0.48655 0.46295 0.00564 0.0
Mn1128 Mn 0.4641 0.46231 0.02089 0.0
O1129 O 0.5058 0.5071 0.03019 0.0
O1130 O 0.44065 0.45972 0.00562 0.0
O1131 O 0.49182 0.49077 0.97007 0.0
O1132 O 0.51799 0.52343 0.95392 0.0
O1133 O 0.461 0.43517 0.02699 0.0
O1134 O 0.47185 0.48121 0.04285 0.0
C1135 C 0.51691 0.55568 0.99381 0.0
C1136 C 0.55196 0.51812 0.99333 0.0
C1137 C 0.44417 0.47954 0.00058 0.0
C1138 C 0.4767 0.44147 0.01326 0.0
C1139 C 0.49206 0.49855 0.04494 0.0
C1140 C 0.50131 0.50233 0.95414 0.0
O1141 O 0.51105 0.53359 0.99466 0.0
O1142 O 0.53195 0.56816 0.98032 0.0
O1143 O 0.13142 0.30413 0.33478 0.0
Mn1144 Mn 0.166 0.33079 0.33458 0.0
O1145 O 0.1209 0.31334 0.36292 0.0
Mn1146 Mn 0.14556 0.34406 0.36262 0.0
O1147 O 0.20133 0.3571 0.33373 0.0
O1148 O 0.17491 0.30575 0.32924 0.0
Mn1149 Mn 0.19062 0.31399 0.30704 0.0
O1150 O 0.1627 0.33682 0.30415 0.0
O1151 O 0.21682 0.34257 0.31204 0.0
O1152 O 0.17023 0.32393 0.3649 0.0
O1153 O 0.16905 0.35231 0.3801 0.0
O1154 O 0.19046 0.28726 0.31373 0.0
O1155 O 0.17161 0.31321 0.28735 0.0
C1156 C 0.14686 0.36934 0.34529 0.0
C1157 C 0.11662 0.29926 0.34864 0.0
C1158 C 0.21875 0.35846 0.32401 0.0
C1159 C 0.17928 0.28848 0.32899 0.0
C1160 C 0.16418 0.32758 0.28781 0.0
C1161 C 0.1743 0.33653 0.38047 0.0
O1162 O 0.15586 0.35648 0.33869 0.0
O1163 O 0.13649 0.36479 0.36232 0.0
O1164 O 0.69056 0.82336 0.33627 0.0
Mn1165 Mn 0.66265 0.82939 0.33598 0.0
O1166 O 0.68189 0.79778 0.36095 0.0
Mn1167 Mn 0.65008 0.78728 0.36222 0.0
O1168 O 0.63435 0.83666 0.33595 0.0
O1169 O 0.68553 0.86462 0.33164 0.0
Mn1170 Mn 0.66881 0.86666 0.31141 0.0
O1171 O 0.66078 0.8205 0.30616 0.0
O1172 O 0.65057 0.87418 0.32599 0.0
O1173 O 0.66646 0.83632 0.36696 0.0
O1174 O 0.64161 0.80192 0.38079 0.0
O1175 O 0.69872 0.88224 0.30297 0.0
O1176 O 0.65056 0.84414 0.2933 0.0
C1177 C 0.63199 0.7738 0.33491 0.0
C1178 C 0.69586 0.8115 0.34795 0.0
C1179 C 0.63426 0.85636 0.33462 0.0
C1180 C 0.70277 0.88095 0.32139 0.0
C1181 C 0.65328 0.82675 0.29156 0.0
C1182 C 0.65573 0.82384 0.38233 0.0
O1183 O 0.63936 0.79501 0.34114 0.0
O1184 O 0.63338 0.76029 0.34805 0.0
O1185 O 0.19816 0.83615 0.33311 0.0
Mn1186 Mn 0.16439 0.83115 0.33259 0.0
O1187 O 0.21722 0.86328 0.31001 0.0
Mn1188 Mn 0.19618 0.87372 0.30767 0.0
O1189 O 0.13033 0.82501 0.33346 0.0
O1190 O 0.15224 0.79619 0.33682 0.0
Mn1191 Mn 0.13659 0.78883 0.35913 0.0
O1192 O 0.16768 0.83916 0.36305 0.0
O1193 O 0.11187 0.79417 0.35436 0.0
O1194 O 0.16145 0.82459 0.30171 0.0
O1195 O 0.17627 0.85996 0.28703 0.0
O1196 O 0.13448 0.76151 0.35098 0.0
O1197 O 0.15661 0.80558 0.37899 0.0
C1198 C 0.18824 0.88676 0.33399 0.0
C1199 C 0.21613 0.84832 0.32234 0.0
C1200 C 0.11213 0.8098 0.34293 0.0
C1201 C 0.14513 0.77383 0.3355 0.0
C1202 C 0.16593 0.82772 0.37897 0.0
C1203 C 0.16521 0.83758 0.2862 0.0
O1204 O 0.17553 0.86563 0.3272 0.0
O1205 O 0.20497 0.90024 0.32215 0.0
O1206 O 0.79947 0.6348 0.67211 0.0
Mn1207 Mn 0.83306 0.66484 0.66725 0.0
O1208 O 0.77755 0.651 0.67292 0.0
Mn1209 Mn 0.80014 0.67455 0.68795 0.0
O1210 O 0.86672 0.69583 0.6646 0.0
O1211 O 0.84314 0.63903 0.66265 0.0
Mn1212 Mn 0.86566 0.66191 0.64755 0.0
O1213 O 0.82445 0.66429 0.63769 0.0
O1214 O 0.89023 0.6818 0.66256 0.0
O1215 O 0.83976 0.66434 0.69729 0.0
O1216 O 0.81064 0.66766 0.71096 0.0
O1217 O 0.86753 0.63796 0.63917 0.0
O1218 O 0.85899 0.67462 0.6258 0.0
C1219 C 0.81684 0.70593 0.67374 0.0
C1220 C 0.77914 0.63271 0.67202 0.0
C1221 C 0.88709 0.69843 0.66715 0.0
C1222 C 0.85173 0.62758 0.65266 0.0
C1223 C 0.83865 0.67106 0.62331 0.0
C1224 C 0.82825 0.66483 0.71241 0.0
O1225 O 0.82314 0.69002 0.67121 0.0
O1226 O 0.80111 0.70212 0.68693 0.0
O1227 O 0.35732 0.15728 0.66864 0.0
Mn1228 Mn 0.33053 0.16475 0.66907 0.0
O1229 O 0.34887 0.13756 0.69664 0.0
Mn1230 Mn 0.31666 0.12542 0.69403 0.0
O1231 O 0.30206 0.17182 0.67014 0.0
O1232 O 0.35689 0.20035 0.66578 0.0
Mn1233 Mn 0.33559 0.20229 0.65014 0.0
O1234 O 0.32724 0.15723 0.63885 0.0
O1235 O 0.31858 0.21008 0.6658 0.0
O1236 O 0.33344 0.17036 0.70105 0.0
O1237 O 0.30293 0.13717 0.7097 0.0
O1238 O 0.36137 0.22427 0.63999 0.0
O1239 O 0.31951 0.18407 0.62876 0.0
C1240 C 0.30152 0.10803 0.66817 0.0
C1241 C 0.36286 0.14795 0.68251 0.0
C1242 C 0.30164 0.19121 0.67188 0.0
C1243 C 0.3705 0.2182 0.65405 0.0
C1244 C 0.32032 0.16576 0.62541 0.0
C1245 C 0.31838 0.15752 0.71447 0.0
O1246 O 0.30572 0.12949 0.67127 0.0
O1247 O 0.30394 0.09708 0.68306 0.0
O1248 O 0.8653 0.17036 0.66781 0.0
Mn1249 Mn 0.83139 0.16458 0.66562 0.0
O1250 O 0.88182 0.19154 0.64093 0.0
Mn1251 Mn 0.86157 0.20307 0.63837 0.0
O1252 O 0.79701 0.15791 0.66448 0.0
O1253 O 0.81945 0.1298 0.6717 0.0
Mn1254 Mn 0.80317 0.12485 0.69365 0.0
O1255 O 0.83365 0.17459 0.69566 0.0
O1256 O 0.77887 0.13025 0.68799 0.0
O1257 O 0.82873 0.15559 0.63492 0.0
O1258 O 0.84105 0.1894 0.61847 0.0
O1259 O 0.80009 0.09649 0.68846 0.0
O1260 O 0.82287 0.14237 0.71351 0.0
C1261 C 0.85797 0.22083 0.66275 0.0
C1262 C 0.8822 0.1798 0.65556 0.0
C1263 C 0.77895 0.14422 0.67486 0.0
C1264 C 0.81303 0.10756 0.67339 0.0
C1265 C 0.83215 0.16443 0.71227 0.0
C1266 C 0.83061 0.16714 0.61884 0.0
O1267 O 0.84268 0.19902 0.65872 0.0
O1268 O 0.87359 0.23175 0.64921 0.0
H1269 H 0.3101 0.87878 0.0079 0.0
H1270 H 0.31993 0.86598 0.06895 0.0
H1271 H 0.36192 0.8825 0.06293 0.0
H1272 H 0.36038 0.8706 0.98743 0.0
H1273 H 0.36822 0.89371 0.96958 0.0
H1274 H 0.33813 0.87532 0.97676 0.0
H1275 H 0.33569 0.91217 0.98656 0.0
H1276 H 0.36547 0.93049 0.97912 0.0
H1277 H 0.35657 0.9329 0.0038 0.0
H1278 H 0.40218 0.9038 0.05232 0.0
H1279 H 0.43918 0.93664 0.04028 0.0
H1280 H 0.40508 0.94024 0.98698 0.0
C1281 C 0.32116 0.87899 0.01975 0.0
C1282 C 0.31198 0.87107 0.03884 0.0
C1283 C 0.32679 0.872 0.05423 0.0
C1284 C 0.35055 0.88098 0.05087 0.0
C1285 C 0.35928 0.88892 0.03199 0.0
C1286 C 0.34517 0.88835 0.01669 0.0
C1287 C 0.35972 0.90157 0.99883 0.0
C1288 C 0.35642 0.88428 0.98216 0.0
C1289 C 0.35404 0.92042 0.9917 0.0
C1290 C 0.38407 0.91216 0.00747 0.0
C1291 C 0.38332 0.90301 0.02605 0.0
C1292 C 0.40313 0.91077 0.03766 0.0
C1293 C 0.42409 0.92934 0.03067 0.0
C1294 C 0.42483 0.94047 0.01264 0.0
C1295 C 0.40489 0.93137 0.00052 0.0
H1296 H 0.11775 0.44172 0.05168 0.0
H1297 H 0.13347 0.43571 0.99034 0.0
H1298 H 0.10904 0.45237 0.97989 0.0
H1299 H 0.05782 0.42188 0.04322 0.0
H1300 H 0.05622 0.4407 0.06178 0.0
H1301 H 0.07698 0.43076 0.06427 0.0
H1302 H 0.11025 0.47404 0.06706 0.0
H1303 H 0.0896 0.48412 0.0642 0.0
H1304 H 0.11423 0.49461 0.04773 0.0
H1305 H 0.08148 0.46844 0.97603 0.0
H1306 H 0.04953 0.47761 0.97909 0.0
H1307 H 0.05026 0.47027 0.04269 0.0
C1308 C 0.11602 0.44366 0.03601 0.0
C1309 C 0.12784 0.43749 0.02189 0.0
C1310 C 0.12514 0.44076 0.00155 0.0
C1311 C 0.11122 0.45017 0.99543 0.0
C1312 C 0.09992 0.45608 0.00978 0.0
C1313 C 0.10193 0.45261 0.02963 0.0
C1314 C 0.08647 0.45843 0.04205 0.0
C1315 C 0.06829 0.43665 0.05349 0.0
C1316 C 0.10101 0.47903 0.05608 0.0
C1317 C 0.07521 0.46544 0.02605 0.0
C1318 C 0.08347 0.46442 0.00754 0.0
C1319 C 0.07494 0.46938 0.99046 0.0
C1320 C 0.05691 0.4747 0.99232 0.0
C1321 C 0.04744 0.47456 0.01109 0.0
C1322 C 0.0572 0.4705 0.02813 0.0
H1323 H 0.53637 0.6796 0.00868 0.0
H1324 H 0.58691 0.68345 0.05168 0.0
H1325 H 0.5683 0.64073 0.05186 0.0
H1326 H 0.48667 0.62489 0.01966 0.0
H1327 H 0.48069 0.61433 0.99458 0.0
H1328 H 0.49526 0.64545 -0.00057 0.0
H1329 H 0.53029 0.65265 0.97728 0.0
H1330 H 0.51504 0.62183 0.97145 0.0
H1331 H 0.54416 0.63535 0.98133 0.0
H1332 H 0.54317 0.59742 0.04924 0.0
H1333 H 0.52713 0.55908 0.0326 0.0
H1334 H 0.49801 0.58303 0.98713 0.0
C1335 C 0.54367 0.67165 0.01815 0.0
C1336 C 0.56177 0.6852 0.03167 0.0
C1337 C 0.57154 0.6737 0.04268 0.0
C1338 C 0.56118 0.64925 0.04284 0.0
C1339 C 0.54198 0.63635 0.03085 0.0
C1340 C 0.53448 0.6472 0.01763 0.0
C1341 C 0.51721 0.6295 0.00318 0.0
C1342 C 0.49355 0.62849 0.0043 0.0
C1343 C 0.52727 0.63515 0.98207 0.0
C1344 C 0.5156 0.607 0.01093 0.0
C1345 C 0.52949 0.61133 0.02735 0.0
C1346 C 0.53225 0.59374 0.03635 0.0
C1347 C 0.5226 0.57178 0.02708 0.0
C1348 C 0.51133 0.56822 0.00869 0.0
C1349 C 0.50603 0.58522 0.00148 0.0
H1350 H 0.88547 0.31993 0.94811 0.0
H1351 H 0.85665 0.30033 0.00752 0.0
H1352 H 0.8728 0.34163 0.01561 0.0
H1353 H 0.94016 0.36424 0.96636 0.0
H1354 H 0.94607 0.38324 0.9453 0.0
H1355 H 0.92777 0.35201 0.94262 0.0
H1356 H 0.89556 0.35927 0.92825 0.0
H1357 H 0.91353 0.39053 0.93196 0.0
H1358 H 0.88482 0.37489 0.94275 0.0
H1359 H 0.88915 0.38513 0.01671 0.0
H1360 H 0.92119 0.42595 0.01859 0.0
H1361 H 0.94973 0.41655 0.96402 0.0
C1362 C 0.88231 0.32389 0.96287 0.0
C1363 C 0.86776 0.30599 0.97648 0.0
C1364 C 0.86554 0.31298 0.9959 0.0
C1365 C 0.87486 0.33667 0.00083 0.0
C1366 C 0.88752 0.35356 0.98661 0.0
C1367 C 0.89266 0.34756 0.96855 0.0
C1368 C 0.91099 0.36924 0.95772 0.0
C1369 C 0.93253 0.36705 0.95274 0.0
C1370 C 0.90061 0.37374 0.93906 0.0
C1371 C 0.91621 0.38806 0.97313 0.0
C1372 C 0.90092 0.37879 0.98883 0.0
C1373 C 0.90145 0.39257 0.00463 0.0
C1374 C 0.91949 0.41595 0.00534 0.0
C1375 C 0.93792 0.42449 0.99141 0.0
C1376 C 0.93556 0.41085 0.97449 0.0
H1377 H 0.68649 0.56624 -4e-05 0.0
H1378 H 0.68095 0.54825 0.93779 0.0
H1379 H 0.63825 0.52538 0.94082 0.0
H1380 H 0.6355 0.50937 0.01637 0.0
H1381 H 0.62627 0.52327 0.03437 0.0
H1382 H 0.65678 0.53598 0.02837 0.0
H1383 H 0.65925 0.57554 0.01936 0.0
H1384 H 0.62905 0.56315 0.02593 0.0
H1385 H 0.63896 0.57577 0.00175 0.0
H1386 H 0.5967 0.50532 0.9498 0.0
H1387 H 0.55845 0.49768 0.96195 0.0
H1388 H 0.58969 0.53105 0.01749 0.0
C1389 C 0.67622 0.55724 0.98709 0.0
C1390 C 0.68703 0.55895 0.96865 0.0
C1391 C 0.67305 0.54731 0.95203 0.0
C1392 C 0.64879 0.53395 0.95367 0.0
C1393 C 0.63865 0.53231 0.97204 0.0
C1394 C 0.6518 0.54402 0.98839 0.0
C1395 C 0.63617 0.54131 0.00582 0.0
C1396 C 0.63884 0.52661 0.02221 0.0
C1397 C 0.64115 0.56538 0.01365 0.0
C1398 C 0.61231 0.52777 0.99622 0.0
C1399 C 0.61423 0.52164 0.97706 0.0
C1400 C 0.5949 0.50973 0.96485 0.0
C1401 C 0.57318 0.50518 0.97196 0.0
C1402 C 0.57114 0.51326 0.99078 0.0
C1403 C 0.59075 0.52399 0.00333 0.0
H1404 H 0.4098 0.08792 0.96624 0.0
H1405 H 0.47006 0.15734 0.97393 0.0
H1406 H 0.49444 0.13931 0.98076 0.0
H1407 H 0.42512 0.05984 0.00422 0.0
H1408 H 0.41312 0.03264 0.9907 0.0
H1409 H 0.40142 0.0519 0.98722 0.0
H1410 H 0.40907 0.05204 0.9496 0.0
H1411 H 0.42191 0.03373 0.95318 0.0
H1412 H 0.43824 0.06171 0.94088 0.0
H1413 H 0.51131 0.11285 0.98915 0.0
H1414 H 0.51724 0.08073 0.00161 0.0
H1415 H 0.44782 0.0297 0.98264 0.0
C1416 C 0.42817 0.0994 0.96919 0.0
C1417 C 0.43802 0.12405 0.96936 0.0
C1418 C 0.46202 0.13837 0.97389 0.0
C1419 C 0.47609 0.12831 0.9775 0.0
C1420 C 0.46596 0.10393 0.97631 0.0
C1421 C 0.44246 0.08973 0.97249 0.0
C1422 C 0.43538 0.06403 0.97295 0.0
C1423 C 0.41774 0.05137 0.98977 0.0
C1424 C 0.42558 0.05219 0.95295 0.0
C1425 C 0.45866 0.06587 0.97724 0.0
C1426 C 0.47611 0.089 0.97946 0.0
C1427 C 0.49803 0.09472 0.98684 0.0
C1428 C 0.5015 0.07638 0.9935 0.0
C1429 C 0.48329 0.05278 0.99234 0.0
C1430 C 0.46241 0.04754 0.98267 0.0
H1431 H 0.67086 0.11605 0.94534 0.0
H1432 H 0.70106 0.11795 0.0025 0.0
H1433 H 0.6614 0.0967 0.0172 0.0
H1434 H 0.62154 0.12228 0.96385 0.0
H1435 H 0.60214 0.10275 0.94523 0.0
H1436 H 0.63286 0.12062 0.94005 0.0
H1437 H 0.63491 0.08331 0.93076 0.0
H1438 H 0.60425 0.06548 0.93564 0.0
H1439 H 0.62468 0.05941 0.9482 0.0
H1440 H 0.61773 0.07156 0.02459 0.0
H1441 H 0.57522 0.04312 0.02326 0.0
H1442 H 0.57482 0.05798 0.96107 0.0
C1443 C 0.66915 0.1121 0.96098 0.0
C1444 C 0.68893 0.11844 0.97277 0.0
C1445 C 0.68605 0.11328 0.99324 0.0
C1446 C 0.66363 0.10131 0.0017 0.0
C1447 C 0.6444 0.09505 0.98952 0.0
C1448 C 0.64706 0.10039 0.9696 0.0
C1449 C 0.62385 0.09041 0.95927 0.0
C1450 C 0.61987 0.1102 0.95165 0.0
C1451 C 0.62181 0.07365 0.9425 0.0
C1452 C 0.60761 0.07743 0.97619 0.0
C1453 C 0.61961 0.08078 0.9937 0.0
C1454 C 0.60816 0.06921 0.01104 0.0
C1455 C 0.58404 0.05326 0.01022 0.0
C1456 C 0.57191 0.04886 0.99213 0.0
C1457 C 0.58374 0.06153 0.97513 0.0
H1458 H 0.85539 0.53185 0.97925 0.0
H1459 H 0.90432 0.60663 0.97656 0.0
H1460 H 0.93562 0.59993 0.98861 0.0
H1461 H 0.88496 0.52049 0.02426 0.0
H1462 H 0.87863 0.49241 0.01444 0.0
H1463 H 0.85873 0.50325 0.01021 0.0
H1464 H 0.86159 0.49838 0.97255 0.0
H1465 H 0.88164 0.48785 0.97659 0.0
H1466 H 0.88981 0.51286 0.96073 0.0
H1467 H 0.96254 0.58539 0.99396 0.0
H1468 H 0.98397 0.56372 0.99394 0.0
H1469 H 0.91877 0.49756 0.99394 0.0
C1470 C 0.87246 0.54678 0.98218 0.0
C1471 C 0.8775 0.5698 0.97736 0.0
C1472 C 0.90016 0.58896 0.98053 0.0
C1473 C 0.91801 0.5853 0.98737 0.0
C1474 C 0.91285 0.56237 0.99124 0.0
C1475 C 0.89059 0.54338 0.98914 0.0
C1476 C 0.89056 0.52042 0.99234 0.0
C1477 C 0.87743 0.50843 0.01145 0.0
C1478 C 0.88031 0.50393 0.97448 0.0
C1479 C 0.9165 0.52941 0.99462 0.0
C1480 C 0.92884 0.55374 0.99456 0.0
C1481 C 0.95307 0.56638 0.99465 0.0
C1482 C 0.96508 0.55393 0.99457 0.0
C1483 C 0.95295 0.52906 0.9943 0.0
C1484 C 0.92834 0.51656 0.99472 0.0
H1485 H 0.42827 0.30662 0.00149 0.0
H1486 H 0.45869 0.31998 0.9429 0.0
H1487 H 0.47885 0.36283 0.94925 0.0
H1488 H 0.41773 0.35505 0.00038 0.0
H1489 H 0.42288 0.36075 0.02643 0.0
H1490 H 0.41209 0.33146 0.01715 0.0
H1491 H 0.44693 0.33038 0.03363 0.0
H1492 H 0.45805 0.35988 0.04261 0.0
H1493 H 0.47632 0.35281 0.02769 0.0
H1494 H 0.49307 0.40474 0.9615 0.0
H1495 H 0.49803 0.44076 0.97806 0.0
H1496 H 0.461 0.39858 0.02918 0.0
C1497 C 0.43948 0.31859 0.99015 0.0
C1498 C 0.44213 0.31016 0.97182 0.0
C1499 C 0.45643 0.32626 0.95706 0.0
C1500 C 0.46806 0.35055 0.96057 0.0
C1501 C 0.46514 0.35837 0.97889 0.0
C1502 C 0.45105 0.34279 0.99336 0.0
C1503 C 0.44926 0.35549 0.01119 0.0
C1504 C 0.42401 0.35039 0.01394 0.0
C1505 C 0.4582 0.34927 0.02988 0.0
C1506 C 0.4652 0.3806 0.00484 0.0
C1507 C 0.47393 0.38214 0.98606 0.0
C1508 C 0.48668 0.40377 0.97639 0.0
C1509 C 0.48962 0.42417 0.98592 0.0
C1510 C 0.47999 0.42255 0.00491 0.0
C1511 C 0.46878 0.40061 0.01471 0.0
H1512 H 0.11784 0.68807 0.00567 0.0
H1513 H 0.14838 0.67463 0.05693 0.0
H1514 H 0.1215 0.6317 0.05315 0.0
H1515 H 0.05948 0.6448 0.01707 0.0
H1516 H 0.05118 0.63699 0.99167 0.0
H1517 H 0.07386 0.66624 0.99779 0.0
H1518 H 0.10254 0.66208 0.97417 0.0
H1519 H 0.0798 0.633 0.96771 0.0
H1520 H 0.1072 0.63741 0.977 0.0
H1521 H 0.08999 0.58938 0.04314 0.0
H1522 H 0.05839 0.55311 0.0273 0.0
H1523 H 0.04835 0.59688 0.98491 0.0
C1524 C 0.11915 0.67598 0.01577 0.0
C1525 C 0.13532 0.68427 0.03126 0.0
C1526 C 0.13621 0.66824 0.04473 0.0
C1527 C 0.12097 0.64396 0.04277 0.0
C1528 C 0.10479 0.63621 0.02746 0.0
C1529 C 0.10385 0.65187 0.01425 0.0
C1530 C 0.08446 0.63952 -0.00043 0.0
C1531 C 0.06617 0.64736 0.00167 0.0
C1532 C 0.09409 0.64322 0.97837 0.0
C1533 C 0.07488 0.61447 0.00629 0.0
C1534 C 0.08659 0.6126 0.02237 0.0
C1535 C 0.08069 0.59068 0.03052 0.0
C1536 C 0.06272 0.57021 0.02156 0.0
C1537 C 0.05117 0.57212 0.00472 0.0
C1538 C 0.05706 0.59462 0.99754 0.0
H1539 H 0.31046 0.41274 0.01784 0.0
H1540 H 0.31929 0.47473 0.04808 0.0
H1541 H 0.35947 0.49777 0.0348 0.0
H1542 H 0.36618 0.42186 0.02693 0.0
H1543 H 0.36943 0.41102 0.00338 0.0
H1544 H 0.34085 0.40065 0.01353 0.0
H1545 H 0.32882 0.41353 0.98156 0.0
H1546 H 0.35764 0.42437 0.97148 0.0
H1547 H 0.34556 0.44359 0.97329 0.0
H1548 H 0.40021 0.51242 0.02198 0.0
H1549 H 0.43818 0.51637 0.01246 0.0
H1550 H 0.4019 0.44601 0.98809 0.0
C1551 C 0.32086 0.43125 0.02137 0.0
C1552 C 0.31209 0.44214 0.03393 0.0
C1553 C 0.32597 0.46626 0.03846 0.0
C1554 C 0.34866 0.47946 0.03087 0.0
C1555 C 0.35701 0.46831 0.01851 0.0
C1556 C 0.34348 0.44473 0.01373 0.0
C1557 C 0.35714 0.43647 0.00148 0.0
C1558 C 0.35849 0.41633 0.01196 0.0
C1559 C 0.34666 0.42906 0.98072 0.0
C1560 C 0.38068 0.4588 0.00077 0.0
C1561 C 0.38027 0.47709 0.01047 0.0
C1562 C 0.40069 0.49846 0.01388 0.0
C1563 C 0.4222 0.50072 0.00823 0.0
C1564 C 0.42297 0.48163 -0.00065 0.0
C1565 C 0.40181 0.46107 0.99453 0.0
H1566 H 0.53446 0.8551 0.02385 0.0
H1567 H 0.59909 0.91163 0.04767 0.0
H1568 H 0.58388 0.93876 0.04478 0.0
H1569 H 0.53151 0.89533 0.98644 0.0
H1570 H 0.50008 0.87945 0.98652 0.0
H1571 H 0.51581 0.86427 0.99176 0.0
H1572 H 0.49257 0.84972 0.02453 0.0
H1573 H 0.47795 0.8662 0.01987 0.0
H1574 H 0.49421 0.87088 0.04237 0.0
H1575 H 0.56034 0.95845 0.0438 0.0
H1576 H 0.53913 0.97637 0.02858 0.0
H1577 H 0.49296 0.91042 -0.00031 0.0
C1578 C 0.54557 0.87328 0.02806 0.0
C1579 C 0.56741 0.88087 0.03717 0.0
C1580 C 0.58176 0.90508 0.04169 0.0
C1581 C 0.57323 0.92062 0.04029 0.0
C1582 C 0.55076 0.91209 0.03326 0.0
C1583 C 0.53778 0.88956 0.02583 0.0
C1584 C 0.51579 0.88639 0.016 0.0
C1585 C 0.51581 0.88106 0.99387 0.0
C1586 C 0.49383 0.86715 0.02632 0.0
C1587 C 0.51854 0.91056 0.01938 0.0
C1588 C 0.5383 0.92463 0.03024 0.0
C1589 C 0.54492 0.94777 0.03506 0.0
C1590 C 0.53244 0.95767 0.02675 0.0
C1591 C 0.51447 0.94471 0.01308 0.0
C1592 C 0.50632 0.92045 0.0105 0.0
H1593 H 0.99133 0.21904 0.39222 0.0
H1594 H 0.9662 0.19594 0.33264 0.0
H1595 H 0.00693 0.2161 0.32052 0.0
H1596 H 0.03412 0.27627 0.37814 0.0
H1597 H 0.05417 0.27862 0.39718 0.0
H1598 H 0.02331 0.2601 0.40089 0.0
H1599 H 0.02969 0.2248 0.40791 0.0
H1600 H 0.06056 0.24318 0.40381 0.0
H1601 H 0.04427 0.21654 0.38976 0.0
H1602 H 0.05129 0.24177 0.31488 0.0
H1603 H 0.09312 0.27248 0.31613 0.0
H1604 H 0.08715 0.27868 0.37933 0.0
C1605 C 0.99415 0.21828 0.37656 0.0
C1606 C 0.97537 0.20592 0.36344 0.0
C1607 C 0.98022 0.20506 0.34312 0.0
C1608 C 0.00333 0.21647 0.33607 0.0
C1609 C 0.02137 0.22867 0.34951 0.0
C1610 C 0.01687 0.22972 0.36931 0.0
C1611 C 0.03878 0.2455 0.38064 0.0
C1612 C 0.03752 0.26635 0.38974 0.0
C1613 C 0.0436 0.23166 0.39646 0.0
C1614 C 0.05645 0.25342 0.36417 0.0
C1615 C 0.04632 0.24344 0.3463 0.0
C1616 C 0.05937 0.24953 0.32885 0.0
C1617 C 0.08311 0.26689 0.3297 0.0
C1618 C 0.0933 0.27802 0.34782 0.0
C1619 C 0.07987 0.27053 0.36525 0.0
H1620 H 0.79452 0.78676 0.38464 0.0
H1621 H 0.78798 0.75257 0.32832 0.0
H1622 H 0.76233 0.7673 0.31631 0.0
H1623 H 0.73658 0.77389 0.38896 0.0
H1624 H 0.74362 0.80172 0.39984 0.0
H1625 H 0.76301 0.79022 0.40302 0.0
H1626 H 0.79684 0.82879 0.38852 0.0
H1627 H 0.77733 0.8402 0.38492 0.0
H1628 H 0.79379 0.8385 0.36438 0.0
H1629 H 0.73629 0.78449 0.31094 0.0
H1630 H 0.70767 0.79812 0.31418 0.0
H1631 H 0.72983 0.81937 0.37445 0.0
C1632 C 0.78768 0.78238 0.36977 0.0
C1633 C 0.7933 0.76864 0.35734 0.0
C1634 C 0.78415 0.76338 0.33795 0.0
C1635 C 0.76963 0.77171 0.33101 0.0
C1636 C 0.76466 0.78546 0.34358 0.0
C1637 C 0.77327 0.79061 0.3626 0.0
C1638 C 0.76424 0.80459 0.37353 0.0
C1639 C 0.75107 0.79182 0.39244 0.0
C1640 C 0.78424 0.8295 0.37811 0.0
C1641 C 0.74806 0.80524 0.35809 0.0
C1642 C 0.74922 0.79489 0.34066 0.0
C1643 C 0.73543 0.79287 0.32442 0.0
C1644 C 0.71941 0.80084 0.32631 0.0
C1645 C 0.71699 0.8101 0.34443 0.0
C1646 C 0.73181 0.81279 0.36034 0.0
H1647 H 0.23087 0.00433 0.38456 0.0
H1648 H 0.19942 0.01862 0.33359 0.0
H1649 H 0.17758 0.97707 0.3268 0.0
H1650 H 0.24022 0.96316 0.3618 0.0
H1651 H 0.23389 0.94478 0.38335 0.0
H1652 H 0.24439 0.97563 0.38619 0.0
H1653 H 0.20821 0.96559 0.40784 0.0
H1654 H 0.1972 0.93456 0.40434 0.0
H1655 H 0.17942 0.94726 0.39795 0.0
H1656 H 0.15809 0.93348 0.32497 0.0
H1657 H 0.15493 0.89481 0.32063 0.0
H1658 H 0.20233 0.90931 0.36937 0.0
C1659 C 0.21925 -0.0006 0.37215 0.0
C1660 C 0.21693 0.01613 0.36037 0.0
C1661 C 0.20173 0.00735 0.34374 0.0
C1662 C 0.1887 0.98325 0.33967 0.0
C1663 C 0.19075 0.96761 0.35217 0.0
C1664 C 0.20623 0.97538 0.36768 0.0
C1665 C 0.20779 0.95519 0.37704 0.0
C1666 C 0.23306 0.95998 0.37706 0.0
C1667 C 0.19756 0.95037 0.39804 0.0
C1668 C 0.1922 0.93525 0.36328 0.0
C1669 C 0.18128 0.94251 0.34993 0.0
C1670 C 0.16646 0.92756 0.33539 0.0
C1671 C 0.16438 0.90536 0.33328 0.0
C1672 C 0.17827 0.89906 0.34476 0.0
C1673 C 0.19108 0.91347 0.36079 0.0
H1674 H 0.56857 0.65298 0.28905 0.0
H1675 H 0.5081 0.64464 0.32133 0.0
H1676 H 0.52774 0.68742 0.32637 0.0
H1677 H 0.61141 0.69621 0.31766 0.0
H1678 H 0.63031 0.71218 0.29727 0.0
H1679 H 0.6102 0.68129 0.29496 0.0
H1680 H 0.59326 0.68995 0.26357 0.0
H1681 H 0.61287 0.7211 0.26641 0.0
H1682 H 0.58188 0.70977 0.26508 0.0
H1683 H 0.55437 0.73074 0.32931 0.0
H1684 H 0.58909 0.7686 0.33735 0.0
H1685 H 0.63199 0.74915 0.30302 0.0
C1686 C 0.5592 0.66011 0.29685 0.0
C1687 C 0.53663 0.64524 0.30464 0.0
C1688 C 0.52545 0.65544 0.31534 0.0
C1689 C 0.53628 0.67985 0.31795 0.0
C1690 C 0.55816 0.694 0.30949 0.0
C1691 C 0.56964 0.68446 0.29941 0.0
C1692 C 0.59391 0.70331 0.29333 0.0
C1693 C 0.61254 0.69793 0.30131 0.0
C1694 C 0.59558 0.7062 0.27076 0.0
C1695 C 0.59505 0.72465 0.30313 0.0
C1696 C 0.57379 0.71912 0.31144 0.0
C1697 C 0.57097 0.73539 0.32259 0.0
C1698 C 0.59076 0.75712 0.32678 0.0
C1699 C 0.6131 0.76183 0.32058 0.0
C1700 C 0.61498 0.7462 0.30739 0.0
H1701 H 0.34099 0.88511 0.28365 0.0
H1702 H 0.36452 0.90035 0.34448 0.0
H1703 H 0.32362 0.88121 0.35572 0.0
H1704 H 0.29558 0.89905 0.2898 0.0
H1705 H 0.27657 0.87701 0.27245 0.0
H1706 H 0.30766 0.89029 0.26985 0.0
H1707 H 0.30325 0.84872 0.27046 0.0
H1708 H 0.27218 0.83542 0.27377 0.0
H1709 H 0.2892 0.8296 0.29124 0.0
H1710 H 0.27969 0.86146 0.36023 0.0
H1711 H 0.23776 0.84907 0.357 0.0
H1712 H 0.24392 0.8482 0.29339 0.0
C1713 C 0.33772 0.8847 0.29934 0.0
C1714 C 0.35615 0.89403 0.31314 0.0
C1715 C 0.35079 0.89284 0.33357 0.0
C1716 C 0.32757 0.88199 0.34013 0.0
C1717 C 0.30986 0.87253 0.32611 0.0
C1718 C 0.31474 0.87423 0.30613 0.0
C1719 C 0.29279 0.86455 0.29393 0.0
C1720 C 0.29318 0.88387 0.28074 0.0
C1721 C 0.28915 0.84331 0.28163 0.0
C1722 C 0.27476 0.85724 0.31015 0.0
C1723 C 0.28481 0.86161 0.32866 0.0
C1724 C 0.2716 0.85771 0.34582 0.0
C1725 C 0.24776 0.85039 0.3439 0.0
C1726 C 0.23772 0.84743 0.32498 0.0
C1727 C 0.25118 0.84992 0.30803 0.0
H1728 H 0.09937 0.45679 0.32943 0.0
H1729 H 0.10868 0.45267 0.26648 0.0
H1730 H 0.1292 0.43055 0.2727 0.0
H1731 H 0.15505 0.46218 0.3454 0.0
H1732 H 0.14193 0.44364 0.36666 0.0
H1733 H 0.13018 0.46126 0.35724 0.0
H1734 H 0.08949 0.42393 0.35396 0.0
H1735 H 0.1011 0.40626 0.36339 0.0
H1736 H 0.08657 0.39934 0.33983 0.0
H1737 H 0.14518 0.40507 0.28583 0.0
H1738 H 0.15455 0.37858 0.30511 0.0
H1739 H 0.13612 0.40141 0.35895 0.0
C1740 C 0.10628 0.45175 0.31703 0.0
C1741 C 0.10252 0.45643 0.29752 0.0
C1742 C 0.11131 0.44908 0.28158 0.0
C1743 C 0.12309 0.43664 0.28495 0.0
C1744 C 0.12612 0.43181 0.30436 0.0
C1745 C 0.11804 0.43924 0.32013 0.0
C1746 C 0.1218 0.43019 0.33945 0.0
C1747 C 0.13823 0.45054 0.35298 0.0
C1748 C 0.09835 0.41397 0.34975 0.0
C1749 C 0.13316 0.41654 0.33207 0.0
C1750 C 0.13556 0.41755 0.31182 0.0
C1751 C 0.14378 0.40447 0.30177 0.0
C1752 C 0.14914 0.38954 0.31277 0.0
C1753 C 0.14609 0.38788 0.33348 0.0
C1754 C 0.13877 0.40224 0.34312 0.0
H1755 H 0.35237 0.42282 0.29909 0.0
H1756 H 0.35775 0.48878 0.31691 0.0
H1757 H 0.31748 0.46711 0.33018 0.0
H1758 H 0.29633 0.3986 0.28082 0.0
H1759 H 0.28765 0.36895 0.28814 0.0
H1760 H 0.3178 0.38948 0.28312 0.0
H1761 H 0.32902 0.38204 0.31801 0.0
H1762 H 0.29882 0.3614 0.32312 0.0
H1763 H 0.3151 0.38589 0.33947 0.0
H1764 H 0.27389 0.43746 0.33753 0.0
H1765 H 0.23323 0.40365 0.33804 0.0
H1766 H 0.25861 0.35877 0.31513 0.0
C1767 C 0.34525 0.43276 0.306 0.0
C1768 C 0.35818 0.45747 0.3069 0.0
C1769 C 0.34824 0.46977 0.31624 0.0
C1770 C 0.32534 0.45761 0.32376 0.0
C1771 C 0.31274 0.43319 0.32195 0.0
C1772 C 0.32257 0.421 0.31341 0.0
C1773 C 0.30517 0.3952 0.31144 0.0
C1774 C 0.30153 0.38763 0.2896 0.0
C1775 C 0.31247 0.38026 0.32375 0.0
C1776 C 0.28387 0.39469 0.31997 0.0
C1777 C 0.2883 0.41659 0.32608 0.0
C1778 C 0.27036 0.42018 0.33303 0.0
C1779 C 0.24735 0.40093 0.3333 0.0
C1780 C 0.24267 0.37861 0.32649 0.0
C1781 C 0.26141 0.37559 0.32034 0.0
H1782 H 0.53347 0.86956 0.2903 0.0
H1783 H 0.5535 0.9275 0.33082 0.0
H1784 H 0.57811 0.91537 0.34927 0.0
H1785 H 0.53265 0.82741 0.32833 0.0
H1786 H 0.54364 0.81444 0.31098 0.0
H1787 H 0.52554 0.82604 0.30251 0.0
H1788 H 0.55759 0.85294 0.27753 0.0
H1789 H 0.5755 0.84117 0.28571 0.0
H1790 H 0.58671 0.87247 0.28632 0.0
H1791 H 0.60425 0.90031 0.36018 0.0
H1792 H 0.63144 0.88488 0.36167 0.0
H1793 H 0.59293 0.8351 0.31545 0.0
C1794 C 0.54282 0.87939 0.30325 0.0
C1795 C 0.54176 0.89939 0.30927 0.0
C1796 C 0.55414 0.91204 0.32617 0.0
C1797 C 0.56798 0.90518 0.33675 0.0
C1798 C 0.56871 0.88531 0.33048 0.0
C1799 C 0.55634 0.8725 0.31418 0.0
C1800 C 0.56135 0.85284 0.30971 0.0
C1801 C 0.53949 0.82875 0.31308 0.0
C1802 C 0.57087 0.85501 0.28858 0.0
C1803 C 0.5797 0.85756 0.32516 0.0
C1804 C 0.58326 0.87601 0.33731 0.0
C1805 C 0.6011 0.88535 0.35123 0.0
C1806 C 0.61632 0.87633 0.35214 0.0
C1807 C 0.61357 0.85816 0.33928 0.0
C1808 C 0.59454 0.84808 0.32616 0.0
H1809 H 0.13327 0.65704 0.30534 0.0
H1810 H 0.05945 0.6335 0.30905 0.0
H1811 H 0.06817 0.67476 0.30853 0.0
H1812 H 0.15373 0.70629 0.33707 0.0
H1813 H 0.17927 0.72462 0.3224 0.0
H1814 H 0.16648 0.69324 0.32165 0.0
H1815 H 0.16357 0.6952 0.28355 0.0
H1816 H 0.17521 0.72658 0.28449 0.0
H1817 H 0.14739 0.70794 0.27306 0.0
H1818 H 0.08455 0.71807 0.30504 0.0
H1819 H 0.10677 0.75975 0.31424 0.0
H1820 H 0.1698 0.75547 0.31768 0.0
C1821 C 0.11906 0.66071 0.30648 0.0
C1822 C 0.0957 0.64225 0.30726 0.0
C1823 C 0.07745 0.64754 0.30845 0.0
C1824 C 0.08221 0.67084 0.30776 0.0
C1825 C 0.10533 0.68865 0.30578 0.0
C1826 C 0.12353 0.68397 0.30593 0.0
C1827 C 0.14684 0.70659 0.30545 0.0
C1828 C 0.16247 0.70776 0.32269 0.0
C1829 C 0.15898 0.70922 0.28546 0.0
C1830 C 0.13888 0.72459 0.30726 0.0
C1831 C 0.11491 0.71386 0.30564 0.0
C1832 C 0.10331 0.72663 0.30651 0.0
C1833 C 0.11624 0.75053 0.3113 0.0
C1834 C 0.13989 0.76065 0.317 0.0
C1835 C 0.1518 0.74819 0.31323 0.0
H1836 H 0.80063 -0.00306 0.37607 0.0
H1837 H 0.77833 0.03404 0.33673 0.0
H1838 H 0.74491 0.99624 0.32614 0.0
H1839 H 0.78982 0.95087 0.34408 0.0
H1840 H 0.77897 0.92794 0.36249 0.0
H1841 H 0.79904 0.95782 0.36942 0.0
H1842 H 0.7697 0.95599 0.39571 0.0
H1843 H 0.74944 0.92605 0.38877 0.0
H1844 H 0.74048 0.94785 0.38839 0.0
H1845 H 0.71456 0.95627 0.3204 0.0
H1846 H 0.69302 0.91477 0.31211 0.0
H1847 H 0.7371 0.90109 0.35112 0.0
C1848 C 0.78858 -0.00312 0.36524 0.0
C1849 C 0.79181 0.01812 0.35705 0.0
C1850 C 0.77602 0.01779 0.34294 0.0
C1851 C 0.7569 0.99651 0.33712 0.0
C1852 C 0.75403 0.97584 0.3455 0.0
C1853 C 0.76958 0.97565 0.35892 0.0
C1854 C 0.76346 0.95058 0.36388 0.0
C1855 C 0.78405 0.94657 0.35969 0.0
C1856 C 0.75529 0.94477 0.38546 0.0
C1857 C 0.74327 0.93688 0.34979 0.0
C1858 C 0.73747 0.95202 0.34043 0.0
C1859 C 0.71919 0.94428 0.32727 0.0
C1860 C 0.70723 0.92059 0.32256 0.0
C1861 C 0.71419 0.90481 0.33015 0.0
C1862 C 0.73185 0.91283 0.34468 0.0
H1863 H 0.97573 0.74732 0.34675 0.0
H1864 H 0.9855 0.80166 0.3882 0.0
H1865 H 0.02697 0.82507 0.37848 0.0
H1866 H 0.02568 0.74699 0.35617 0.0
H1867 H 0.03251 0.74297 0.33119 0.0
H1868 H 0.00283 0.73309 0.33806 0.0
H1869 H -0.00024 0.75822 0.31001 0.0
H1870 H 0.02964 0.76833 0.30312 0.0
H1871 H 0.02041 0.78926 0.30887 0.0
H1872 H 0.0677 0.83999 0.36785 0.0
H1873 H 0.10569 0.84323 0.35995 0.0
H1874 H 0.07049 0.77852 0.32659 0.0
C1875 C 0.9866 0.76446 0.35327 0.0
C1876 C 0.97768 0.773 0.36801 0.0
C1877 C 0.99222 0.79514 0.37672 0.0
C1878 C 0.01566 0.80858 0.37117 0.0
C1879 C 0.02421 0.79965 0.35677 0.0
C1880 C 0.01015 0.7781 0.34791 0.0
C1881 C 0.02437 0.77132 0.33468 0.0
C1882 C 0.02117 0.74718 0.34039 0.0
C1883 C 0.01817 0.77181 0.31288 0.0
C1884 C 0.04878 0.79122 0.3391 0.0
C1885 C 0.04816 0.80799 0.35105 0.0
C1886 C 0.06845 0.82729 0.35814 0.0
C1887 C 0.08993 0.82908 0.35354 0.0
C1888 C 0.09081 0.81137 0.3424 0.0
C1889 C 0.0701 0.79254 0.3347 0.0
H1890 H 0.25044 0.23949 0.37546 0.0
H1891 H 0.19143 0.17019 0.364 0.0
H1892 H 0.16718 0.18801 0.35633 0.0
H1893 H 0.21915 0.26427 0.39897 0.0
H1894 H 0.23599 0.29275 0.38758 0.0
H1895 H 0.24908 0.27479 0.39202 0.0
H1896 H 0.25988 0.27649 0.35495 0.0
H1897 H 0.24798 0.29546 0.35072 0.0
H1898 H 0.23757 0.26884 0.33658 0.0
H1899 H 0.14972 0.21346 0.34895 0.0
H1900 H 0.14306 0.24498 0.33644 0.0
H1901 H 0.21201 0.29715 0.35559 0.0
C1902 C 0.23237 0.22804 0.37145 0.0
C1903 C 0.22279 0.20342 0.37054 0.0
C1904 C 0.19924 0.18911 0.36469 0.0
C1905 C 0.18521 0.19904 0.36059 0.0
C1906 C 0.19493 0.22327 0.36252 0.0
C1907 C 0.21811 0.23762 0.3674 0.0
C1908 C 0.22475 0.26325 0.36716 0.0
C1909 C 0.23271 0.27441 0.38766 0.0
C1910 C 0.24364 0.27679 0.35142 0.0
C1911 C 0.20163 0.26111 0.36152 0.0
C1912 C 0.18459 0.23787 0.35899 0.0
C1913 C 0.1627 0.23168 0.35133 0.0
C1914 C 0.15882 0.24969 0.34466 0.0
C1915 C 0.17673 0.27341 0.34572 0.0
C1916 C 0.19766 0.27918 0.35557 0.0
H1917 H 0.64831 0.52288 0.68063 0.0
H1918 H 0.64066 0.57426 0.71554 0.0
H1919 H 0.68259 0.60135 0.71328 0.0
H1920 H 0.70377 0.53473 0.69236 0.0
H1921 H 0.71566 0.53661 0.66802 0.0
H1922 H 0.68465 0.51915 0.67207 0.0
H1923 H 0.67669 0.54236 0.64534 0.0
H1924 H 0.70758 0.55912 0.64053 0.0
H1925 H 0.69168 0.57401 0.6465 0.0
H1926 H 0.72425 0.61385 0.71819 0.0
H1927 H 0.76519 0.63321 0.70841 0.0
H1928 H 0.74727 0.58684 0.65766 0.0
C1929 C 0.65532 0.54012 0.6872 0.0
C1930 C 0.64162 0.54555 0.70009 0.0
C1931 C 0.65119 0.56887 0.70719 0.0
C1932 C 0.67497 0.58441 0.70606 0.0
C1933 C 0.68853 0.57733 0.69582 0.0
C1934 C 0.67905 0.55724 0.68451 0.0
C1935 C 0.69813 0.55715 0.67174 0.0
C1936 C 0.70069 0.53562 0.67633 0.0
C1937 C 0.69323 0.55824 0.64971 0.0
C1938 C 0.71957 0.57983 0.67865 0.0
C1939 C 0.71327 0.58964 0.69373 0.0
C1940 C 0.72947 0.60763 0.70543 0.0
C1941 C 0.75273 0.61815 0.69994 0.0
C1942 C 0.75921 0.61249 0.68168 0.0
C1943 C 0.74272 0.59202 0.67138 0.0
H1944 H 0.45432 0.11267 0.72145 0.0
H1945 H 0.46026 0.09471 0.6608 0.0
H1946 H 0.43618 0.11158 0.64986 0.0
H1947 H 0.39456 0.09634 0.7186 0.0
H1948 H 0.39751 0.11962 0.7346 0.0
H1949 H 0.41698 0.10809 0.73722 0.0
H1950 H 0.45222 0.15015 0.73293 0.0
H1951 H 0.43279 0.16173 0.72989 0.0
H1952 H 0.45423 0.16688 0.71118 0.0
H1953 H 0.41112 0.13004 0.64549 0.0
H1954 H 0.38194 0.14289 0.64853 0.0
H1955 H 0.38972 0.14572 0.7122 0.0
C1956 C 0.45047 0.11208 0.70587 0.0
C1957 C 0.4595 0.10256 0.69199 0.0
C1958 C 0.45409 0.1024 0.67172 0.0
C1959 C 0.44038 0.11192 0.66533 0.0
C1960 C 0.43208 0.12144 0.67939 0.0
C1961 C 0.4366 0.12124 0.69927 0.0
C1962 C 0.42424 0.13105 0.71151 0.0
C1963 C 0.40731 0.11267 0.72635 0.0
C1964 C 0.44193 0.1538 0.72199 0.0
C1965 C 0.41139 0.13604 0.69546 0.0
C1966 C 0.41672 0.13105 0.67698 0.0
C1967 C 0.40684 0.13405 0.65986 0.0
C1968 C 0.39042 0.14151 0.66172 0.0
C1969 C 0.38365 0.1453 0.68059 0.0
C1970 C 0.39468 0.14302 0.6976 0.0
H1971 H 0.88318 0.34803 0.67273 0.0
H1972 H 0.89126 0.34288 0.7359 0.0
H1973 H 0.87541 0.30037 0.7327 0.0
H1974 H 0.8273 0.29236 0.66899 0.0
H1975 H 0.83455 0.28558 0.64513 0.0
H1976 H 0.8459 0.31577 0.65237 0.0
H1977 H 0.88816 0.3245 0.64596 0.0
H1978 H 0.87687 0.29458 0.63826 0.0
H1979 H 0.89813 0.3065 0.65777 0.0
H1980 H 0.86402 0.2591 0.72168 0.0
H1981 H 0.85781 0.22372 0.7033 0.0
H1982 H 0.84999 0.25415 0.64921 0.0
C1983 C 0.88118 0.33802 0.68601 0.0
C1984 C 0.88902 0.3492 0.70448 0.0
C1985 C 0.88628 0.33514 0.72137 0.0
C1986 C 0.87686 0.31078 0.71981 0.0
C1987 C 0.86947 0.3004 0.70139 0.0
C1988 C 0.87124 0.31356 0.68484 0.0
C1989 C 0.86291 0.29835 0.66661 0.0
C1990 C 0.84138 0.298 0.65776 0.0
C1991 C 0.88269 0.30646 0.65127 0.0
C1992 C 0.85671 0.27473 0.67542 0.0
C1993 C 0.86072 0.27616 0.69551 0.0
C1994 C 0.85992 0.25745 0.7061 0.0
C1995 C 0.85604 0.23724 0.69566 0.0
C1996 C 0.8526 0.23595 0.67504 0.0
C1997 C 0.85166 0.25439 0.66514 0.0
H1998 H 0.19636 0.98249 0.65691 0.0
H1999 H 0.2413 0.97352 0.61506 0.0
H2000 H 0.26706 0.01589 0.61383 0.0
H2001 H 0.20357 0.03755 0.64377 0.0
H2002 H 0.20866 0.0495 0.66841 0.0
H2003 H 0.1913 0.01822 0.66475 0.0
H2004 H 0.21835 0.01095 0.68776 0.0
H2005 H 0.23505 0.04209 0.69219 0.0
H2006 H 0.24933 0.02662 0.68328 0.0
H2007 H 0.28859 0.05894 0.61667 0.0
H2008 H 0.31134 0.09812 0.63191 0.0
H2009 H 0.25566 0.0803 0.67395 0.0
C2010 C 0.21156 0.98926 0.64748 0.0
C2011 C 0.21535 0.97434 0.63475 0.0
C2012 C 0.23644 0.98432 0.6236 0.0
C2013 C 0.25151 0.00856 0.62289 0.0
C2014 C 0.24627 0.02281 0.63434 0.0
C2015 C 0.22766 0.0135 0.64733 0.0
C2016 C 0.22882 0.03248 0.66083 0.0
C2017 C 0.20676 0.03455 0.65932 0.0
C2018 C 0.23314 0.02776 0.68227 0.0
C2019 C 0.25005 0.05399 0.6524 0.0
C2020 C 0.25978 0.04794 0.63706 0.0
C2021 C 0.28104 0.06407 0.62849 0.0
C2022 C 0.29368 0.08646 0.63694 0.0
C2023 C 0.2848 0.09247 0.6535 0.0
C2024 C 0.26215 0.07652 0.66054 0.0
H2025 H 0.00716 0.21459 0.61769 0.0
H2026 H 0.03257 0.24294 0.67606 0.0
H2027 H 0.992 0.22478 0.68821 0.0
H2028 H 0.95933 0.22489 0.61775 0.0
H2029 H 0.94047 0.19843 0.60428 0.0
H2030 H 0.97153 0.21251 0.601 0.0
H2031 H 0.96984 0.17329 0.61023 0.0
H2032 H 0.9388 0.15937 0.61414 0.0
H2033 H 0.95742 0.15949 0.63358 0.0
H2034 H 0.94833 0.20465 0.69365 0.0
H2035 H 0.90587 0.18951 0.69046 0.0
H2036 H 0.90955 0.17489 0.62862 0.0
C2037 C 0.00422 0.21714 0.633 0.0
C2038 C 0.02306 0.23006 0.64594 0.0
C2039 C 0.01841 0.2328 0.66593 0.0
C2040 C 0.99543 0.22249 0.67299 0.0
C2041 C 0.97727 0.20941 0.65992 0.0
C2042 C 0.98144 0.20698 0.64028 0.0
C2043 C 0.95892 0.1933 0.62895 0.0
C2044 C 0.95748 0.20818 0.61201 0.0
C2045 C 0.95609 0.16998 0.62127 0.0
C2046 C 0.94144 0.18908 0.64511 0.0
C2047 C 0.95226 0.19799 0.663 0.0
C2048 C 0.93963 0.19733 0.67978 0.0
C2049 C 0.9155 0.18845 0.67793 0.0
C2050 C 0.90454 0.18078 0.65937 0.0
C2051 C 0.91753 0.18024 0.64305 0.0
H2052 H 0.74924 0.7564 0.62464 0.0
H2053 H 0.79823 0.82387 0.65059 0.0
H2054 H 0.82373 0.80813 0.65973 0.0
H2055 H 0.756 0.71996 0.65835 0.0
H2056 H 0.75398 0.69928 0.63986 0.0
H2057 H 0.73997 0.71635 0.6359 0.0
H2058 H 0.76259 0.73127 0.60282 0.0
H2059 H 0.77734 0.71485 0.60718 0.0
H2060 H 0.794 0.74608 0.60285 0.0
H2061 H 0.84239 0.78376 0.66841 0.0
H2062 H 0.84973 0.75179 0.67833 0.0
H2063 H 0.79255 0.70309 0.64174 0.0
C2064 C 0.76552 0.76825 0.63181 0.0
C2065 C 0.77149 0.7916 0.63666 0.0
C2066 C 0.79273 0.80583 0.64688 0.0
C2067 C 0.80768 0.79718 0.65185 0.0
C2068 C 0.80159 0.77446 0.64608 0.0
C2069 C 0.78099 0.76022 0.63628 0.0
C2070 C 0.77801 0.7362 0.63225 0.0
C2071 C 0.75569 0.71682 0.64219 0.0
C2072 C 0.77798 0.73185 0.60995 0.0
C2073 C 0.79983 0.73884 0.64189 0.0
C2074 C 0.81332 0.7611 0.64972 0.0
C2075 C 0.83244 0.76655 0.66178 0.0
C2076 C 0.83686 0.74842 0.66704 0.0
C2077 C 0.82236 0.72528 0.66009 0.0
C2078 C 0.8047 0.72093 0.64631 0.0
H2079 H 0.00427 0.78182 0.61492 0.0
H2080 H 0.0378 0.79341 0.67204 0.0
H2081 H -0.00094 0.77361 0.68824 0.0
H2082 H 0.95575 0.78938 0.62985 0.0
H2083 H 0.93526 0.76608 0.61412 0.0
H2084 H 0.96558 0.78267 0.6072 0.0
H2085 H 0.96758 0.74428 0.60466 0.0
H2086 H 0.93718 0.72763 0.61104 0.0
H2087 H 0.95831 0.72437 0.62537 0.0
H2088 H 0.95637 0.74881 0.6977 0.0
H2089 H 0.91418 0.71957 0.69916 0.0
H2090 H 0.90899 0.72599 0.6361 0.0
C2091 C 0.00354 0.78026 0.63085 0.0
C2092 C 0.02412 0.78924 0.64222 0.0
C2093 C 0.0223 0.78695 0.66304 0.0
C2094 C 0.00036 0.77573 0.67236 0.0
C2095 C 0.98043 0.76714 0.66067 0.0
C2096 C 0.98188 0.76923 0.64034 0.0
C2097 C 0.95799 0.75718 0.63093 0.0
C2098 C 0.95338 0.7749 0.61988 0.0
C2099 C 0.9551 0.73718 0.6172 0.0
C2100 C 0.94275 0.74774 0.64911 0.0
C2101 C 0.95595 0.7537 0.66617 0.0
C2102 C 0.94581 0.74464 0.68453 0.0
C2103 C 0.9218 0.72832 0.6853 0.0
C2104 C 0.90826 0.72154 0.66789 0.0
C2105 C 0.91875 0.732 0.64974 0.0
H2106 H 0.20705 0.21013 0.62034 0.0
H2107 H 0.21081 0.25273 0.67061 0.0
H2108 H 0.23476 0.23942 0.68853 0.0
H2109 H 0.20419 0.16073 0.64909 0.0
H2110 H 0.22179 0.15599 0.63138 0.0
H2111 H 0.2033 0.16729 0.62336 0.0
H2112 H 0.239 0.20312 0.60747 0.0
H2113 H 0.25752 0.19193 0.61541 0.0
H2114 H 0.26426 0.22115 0.62238 0.0
H2115 H 0.26232 0.2257 0.69893 0.0
H2116 H 0.29089 0.21193 0.70128 0.0
H2117 H 0.26692 0.17599 0.6454 0.0
C2118 C 0.21273 0.2164 0.63522 0.0
C2119 C 0.20719 0.23241 0.64418 0.0
C2120 C 0.21481 0.2403 0.66363 0.0
C2121 C 0.22835 0.23282 0.67388 0.0
C2122 C 0.23363 0.21708 0.6646 0.0
C2123 C 0.22589 0.2088 0.64576 0.0
C2124 C 0.23495 0.19294 0.63872 0.0
C2125 C 0.21485 0.16774 0.63544 0.0
C2126 C 0.24983 0.20289 0.6199 0.0
C2127 C 0.24958 0.19413 0.65631 0.0
C2128 C 0.24851 0.20807 0.67113 0.0
C2129 C 0.26259 0.21397 0.68784 0.0
C2130 C 0.27851 0.20583 0.68922 0.0
C2131 C 0.27992 0.19169 0.67415 0.0
C2132 C 0.26495 0.18539 0.65773 0.0
H2133 H 0.74781 0.98353 0.63109 0.0
H2134 H 0.80374 0.97487 0.65532 0.0
H2135 H 0.82753 0.01775 0.65987 0.0
H2136 H 0.7851 0.03913 0.60505 0.0
H2137 H 0.76642 0.05102 0.61082 0.0
H2138 H 0.75419 0.01972 0.60806 0.0
H2139 H 0.7358 0.01245 0.64303 0.0
H2140 H 0.74713 0.04352 0.64544 0.0
H2141 H 0.75404 0.02803 0.66377 0.0
H2142 H 0.84439 0.06108 0.66362 0.0
H2143 H 0.84937 0.09977 0.67255 0.0
H2144 H 0.78351 0.08096 0.64496 0.0
C2145 C 0.76517 0.99068 0.63713 0.0
C2146 C 0.77392 0.97578 0.64274 0.0
C2147 C 0.79652 0.98583 0.65107 0.0
C2148 C 0.81035 0.01024 0.6534 0.0
C2149 C 0.80147 0.02446 0.6472 0.0
C2150 C 0.77924 0.01502 0.63956 0.0
C2151 C 0.77298 0.03395 0.63577 0.0
C2152 C 0.76947 0.03608 0.6136 0.0
C2153 C 0.75123 0.02921 0.64773 0.0
C2154 C 0.79483 0.05543 0.64323 0.0
C2155 C 0.81133 0.04967 0.64923 0.0
C2156 C 0.83188 0.06597 0.65857 0.0
C2157 C 0.83482 0.08812 0.66327 0.0
C2158 C 0.8172 0.09357 0.65884 0.0
C2159 C 0.79773 0.07759 0.64762 0.0
H2160 H 0.44834 0.33316 0.71755 0.0
H2161 H 0.46028 0.36714 0.6602 0.0
H2162 H 0.43834 0.32858 0.64437 0.0
H2163 H 0.45135 0.28349 0.70338 0.0
H2164 H 0.42714 0.26201 0.71779 0.0
H2165 H 0.44307 0.29217 0.72586 0.0
H2166 H 0.40506 0.2942 0.72677 0.0
H2167 H 0.38895 0.26387 0.71928 0.0
H2168 H 0.38673 0.28599 0.7052 0.0
H2169 H 0.42747 0.2885 0.63456 0.0
H2170 H 0.40489 0.24598 0.62949 0.0
H2171 H 0.38769 0.23566 0.69197 0.0
C2172 C 0.44585 0.33248 0.70172 0.0
C2173 C 0.45715 0.35318 0.68994 0.0
C2174 C 0.45299 0.35154 0.66937 0.0
C2175 C 0.4405 0.32974 0.66024 0.0
C2176 C 0.43151 0.30973 0.67195 0.0
C2177 C 0.43246 0.31066 0.69228 0.0
C2178 C 0.41956 0.28587 0.70096 0.0
C2179 C 0.43628 0.28059 0.71271 0.0
C2180 C 0.39883 0.28227 0.71379 0.0
C2181 C 0.41166 0.2712 0.68215 0.0
C2182 C 0.42025 0.28565 0.66582 0.0
C2183 C 0.41934 0.2769 0.64703 0.0
C2184 C 0.40699 0.25266 0.64444 0.0
C2185 C 0.39348 0.23765 0.66009 0.0
C2186 C 0.39726 0.24674 0.67958 0.0
H2187 H 0.6602 0.11592 0.72094 0.0
H2188 H 0.62741 0.08336 0.66552 0.0
H2189 H 0.66636 0.10071 0.64962 0.0
H2190 H 0.70856 0.17028 0.69957 0.0
H2191 H 0.72887 0.17152 0.71788 0.0
H2192 H 0.69841 0.15882 0.72401 0.0
H2193 H 0.6968 0.12011 0.73489 0.0
H2194 H 0.72724 0.13287 0.72917 0.0
H2195 H 0.70638 0.10545 0.71794 0.0
H2196 H 0.70954 0.11815 0.64113 0.0
H2197 H 0.75189 0.13152 0.64168 0.0
H2198 H 0.75534 0.15293 0.70254 0.0
C2199 C 0.66121 0.11257 0.70541 0.0
C2200 C 0.64091 0.09824 0.69445 0.0
C2201 C 0.64285 0.09442 0.67412 0.0
C2202 C 0.66486 0.10427 0.66499 0.0
C2203 C 0.68463 0.11823 0.67633 0.0
C2204 C 0.68289 0.12239 0.6961 0.0
C2205 C 0.70656 0.13647 0.70555 0.0
C2206 C 0.71084 0.16071 0.71214 0.0
C2207 C 0.7094 0.12291 0.72289 0.0
C2208 C 0.72201 0.13865 0.6883 0.0
C2209 C 0.7092 0.12851 0.67139 0.0
C2210 C 0.71977 0.12664 0.65413 0.0
C2211 C 0.74383 0.13447 0.65447 0.0
C2212 C 0.75675 0.14373 0.67202 0.0
C2213 C 0.74585 0.14655 0.68881 0.0
H2214 H 0.88254 0.55083 0.722 0.0
H2215 H 0.90078 0.52908 0.66736 0.0
H2216 H 0.88201 0.54698 0.64842 0.0
H2217 H 0.82707 0.54441 0.70543 0.0
H2218 H 0.83125 0.57052 0.71782 0.0
H2219 H 0.84393 0.55396 0.72782 0.0
H2220 H 0.88502 0.59112 0.72718 0.0
H2221 H 0.87226 0.60779 0.71785 0.0
H2222 H 0.89573 0.6075 0.70451 0.0
H2223 H 0.86038 0.56544 0.63531 0.0
H2224 H 0.84833 0.59437 0.62769 0.0
H2225 H 0.84846 0.60933 0.69008 0.0
C2226 C 0.88269 0.54989 0.70606 0.0
C2227 C 0.89252 0.53779 0.69623 0.0
C2228 C 0.89253 0.5373 0.67531 0.0
C2229 C 0.88189 0.54743 0.66438 0.0
C2230 C 0.87153 0.55829 0.67453 0.0
C2231 C 0.87248 0.56032 0.69483 0.0
C2232 C 0.86198 0.57507 0.70179 0.0
C2233 C 0.83974 0.5601 0.71395 0.0
C2234 C 0.87982 0.59666 0.71351 0.0
C2235 C 0.85608 0.58192 0.68212 0.0
C2236 C 0.8607 0.57096 0.66675 0.0
C2237 C 0.85681 0.57424 0.64718 0.0
C2238 C 0.8497 0.59053 0.64304 0.0
C2239 C 0.8476 0.60415 0.6583 0.0
C2240 C 0.84954 0.59889 0.67819 0.0
H2241 H 0.47719 0.94181 0.1541 0.0
H2242 H 0.49358 0.01026 0.17624 0.0
H2243 H 0.50814 0.02755 0.14317 0.0
H2244 H 0.52582 0.96228 0.11805 0.0
H2245 H 0.50816 0.94089 0.09973 0.0
H2246 H 0.50191 0.93422 0.12562 0.0
H2247 H 0.45944 0.92523 0.1203 0.0
H2248 H 0.46545 0.93132 0.09441 0.0
H2249 H 0.4544 0.94695 0.10855 0.0
H2250 H 0.52026 0.03723 0.10819 0.0
H2251 H 0.51993 0.03759 0.07191 0.0
H2252 H 0.49202 0.96226 0.07095 0.0
C2253 C 0.48411 0.96047 0.15191 0.0
C2254 C 0.48464 0.9749 0.16762 0.0
C2255 C 0.49326 -0.0009 0.16432 0.0
C2256 C 0.50176 0.00904 0.14569 0.0
C2257 C 0.50134 0.99446 0.1305 0.0
C2258 C 0.49222 0.9706 0.13324 0.0
C2259 C 0.49127 0.95851 0.11385 0.0
C2260 C 0.50777 0.94836 0.11435 0.0
C2261 C 0.46615 0.93939 0.10899 0.0
C2262 C 0.50023 0.97912 0.09962 0.0
C2263 C 0.50695 -0.00019 0.10979 0.0
C2264 C 0.51523 0.02119 0.10009 0.0
C2265 C 0.51528 0.02126 0.07945 0.0
C2266 C 0.50639 4e-05 0.06864 0.0
C2267 C 0.49967 0.9788 0.07882 0.0
H2268 H 0.03309 0.54517 0.15581 0.0
H2269 H 0.0049 0.47251 0.1748 0.0
H2270 H -0.00322 0.45965 0.14068 0.0
H2271 H 0.98617 0.52909 0.12002 0.0
H2272 H 0.00428 0.55137 0.10237 0.0
H2273 H 0.01083 0.55616 0.12834 0.0
H2274 H 0.05259 0.56402 0.12132 0.0
H2275 H 0.04608 0.55895 0.09535 0.0
H2276 H 0.05651 0.54215 0.10853 0.0
H2277 H 0.9945 0.45418 0.10582 0.0
H2278 H 0.9865 0.45345 0.07086 0.0
H2279 H 0.00796 0.52786 0.07222 0.0
C2280 C 0.02507 0.52654 0.15287 0.0
C2281 C 0.02098 0.51009 0.16821 0.0
C2282 C 0.00985 0.48582 0.1635 0.0
C2283 C 0.00488 0.47819 0.14406 0.0
C2284 C 0.01007 0.49483 0.12939 0.0
C2285 C 0.01895 0.51833 0.13341 0.0
C2286 C 0.02005 0.53168 0.11461 0.0
C2287 C 0.00439 0.54273 0.11644 0.0
C2288 C 0.04532 0.55031 0.10967 0.0
C2289 C 0.01042 0.5118 0.09956 0.0
C2290 C 0.0056 0.491 0.10868 0.0
C2291 C -0.0025 0.47013 0.09853 0.0
C2292 C 0.99291 0.46999 0.07859 0.0
C2293 C 0.99562 0.4904 0.06886 0.0
C2294 C 0.00532 0.51193 0.07932 0.0
H2295 H 0.49676 0.54631 0.15297 0.0
H2296 H 0.48737 0.47939 0.17301 0.0
H2297 H 0.4936 0.47017 0.13885 0.0
H2298 H 0.46536 0.5249 0.10832 0.0
H2299 H 0.48399 0.55101 0.09426 0.0
H2300 H 0.48101 0.55299 0.12049 0.0
H2301 H 0.52592 0.5729 0.12409 0.0
H2302 H 0.52893 0.57045 0.09785 0.0
H2303 H 0.54081 0.55811 0.11493 0.0
H2304 H 0.50055 0.46818 0.10306 0.0
H2305 H 0.49942 0.46926 0.06677 0.0
H2306 H 0.50147 0.53622 0.06908 0.0
C2307 C 0.49622 0.52981 0.15011 0.0
C2308 C 0.49188 0.51362 0.16554 0.0
C2309 C 0.49074 0.49198 0.16133 0.0
C2310 C 0.49451 0.48676 0.14206 0.0
C2311 C 0.49921 0.50331 0.12723 0.0
C2312 C 0.49956 0.52417 0.13092 0.0
C2313 C 0.50275 0.53787 0.11201 0.0
C2314 C 0.48204 0.54191 0.10857 0.0
C2315 C 0.52599 0.56122 0.11224 0.0
C2316 C 0.50333 0.52107 0.09697 0.0
C2317 C 0.50211 0.50167 0.10624 0.0
C2318 C 0.50167 0.48332 0.09566 0.0
C2319 C 0.50125 0.4842 0.07507 0.0
C2320 C 0.50079 0.50302 0.06527 0.0
C2321 C 0.50252 0.52204 0.07627 0.0
H2322 H 0.99046 0.506 0.84187 0.0
H2323 H 0.9266 0.4387 0.84213 0.0
H2324 H 0.92932 0.43612 0.87841 0.0
H2325 H 0.02035 0.49135 0.87578 0.0
H2326 H 0.03495 0.5194 0.88809 0.0
H2327 H 0.02639 0.51773 0.86268 0.0
H2328 H 0.00273 0.53837 0.87116 0.0
H2329 H 0.01164 0.54055 0.89655 0.0
H2330 H 0.98111 0.52656 0.8905 0.0
H2331 H 0.94003 0.44031 0.91452 0.0
H2332 H 0.95801 0.45142 0.94769 0.0
H2333 H 0.01658 0.51378 0.92256 0.0
C2334 C 0.97682 0.49109 0.84973 0.0
C2335 C 0.95822 0.47265 0.83952 0.0
C2336 C 0.94086 0.45303 0.84998 0.0
C2337 C 0.94227 0.45142 0.87048 0.0
C2338 C 0.96124 0.46954 0.88017 0.0
C2339 C 0.97814 0.48907 0.87016 0.0
C2340 C -0.00251 0.50535 0.88384 0.0
C2341 C 0.02119 0.50863 0.87719 0.0
C2342 C -0.00172 0.52911 0.88562 0.0
C2343 C 0.98927 0.4915 0.90284 0.0
C2344 C 0.9681 0.47117 0.9006 0.0
C2345 C 0.95674 0.4561 0.91643 0.0
C2346 C 0.96716 0.46232 0.93514 0.0
C2347 C 0.98893 0.48302 0.93766 0.0
C2348 C 0.00017 0.49751 0.92115 0.0
H2349 H 0.53136 0.47895 0.84683 0.0
H2350 H 0.46972 0.47999 0.82675 0.0
H2351 H 0.46031 0.4847 0.86123 0.0
H2352 H 0.50582 0.44511 0.88994 0.0
H2353 H 0.53137 0.46061 0.90516 0.0
H2354 H 0.53443 0.45899 0.87887 0.0
H2355 H 0.55836 0.50441 0.87647 0.0
H2356 H 0.55602 0.50612 0.90282 0.0
H2357 H 0.54658 0.52165 0.88676 0.0
H2358 H 0.45687 0.48782 0.89792 0.0
H2359 H 0.46238 0.49389 0.9341 0.0
H2360 H 0.5255 0.48968 0.93013 0.0
C2361 C 0.51615 0.48062 0.84973 0.0
C2362 C 0.5012 0.47912 0.8343 0.0
C2363 C 0.48125 0.48102 0.83852 0.0
C2364 C 0.47576 0.48361 0.858 0.0
C2365 C 0.49032 0.48407 0.87303 0.0
C2366 C 0.51028 0.48297 0.86912 0.0
C2367 C 0.52277 0.48352 0.88798 0.0
C2368 C 0.52364 0.4607 0.89063 0.0
C2369 C 0.54738 0.50522 0.88854 0.0
C2370 C 0.50677 0.48523 0.90306 0.0
C2371 C 0.48804 0.48533 0.89417 0.0
C2372 C 0.4713 0.48749 0.9051 0.0
C2373 C 0.47431 0.49055 0.92561 0.0
C2374 C 0.49385 0.49137 0.93477 0.0
C2375 C 0.50996 0.48821 0.92343 0.0
H2376 H 0.48251 0.99661 0.83913 0.0
H2377 H 0.54168 0.06728 0.84196 0.0
H2378 H 0.54004 0.06556 0.87848 0.0
H2379 H 0.45107 -0.00048 0.88099 0.0
H2380 H 0.44205 0.97025 0.88969 0.0
H2381 H 0.44736 0.97699 0.86375 0.0
H2382 H 0.47733 0.96253 0.86325 0.0
H2383 H 0.47165 0.95516 0.88903 0.0
H2384 H 0.50104 0.97453 0.88067 0.0
H2385 H 0.53014 0.05719 0.91443 0.0
H2386 H 0.51915 0.03958 0.94769 0.0
H2387 H 0.46911 0.97285 0.92181 0.0
C2388 C 0.49515 0.0116 0.84753 0.0
C2389 C 0.5121 0.03217 0.8379 0.0
C2390 C 0.52859 0.05141 0.84919 0.0
C2391 C 0.52764 0.05065 0.86988 0.0
C2392 C 0.51031 0.03037 0.87898 0.0
C2393 C 0.49482 0.01091 0.86822 0.0
C2394 C 0.47898 0.99074 0.88171 0.0
C2395 C 0.45334 0.98398 0.87886 0.0
C2396 C 0.48247 0.96949 0.87848 0.0
C2397 C 0.48789 0.00194 0.90174 0.0
C2398 C 0.50553 0.02502 0.89979 0.0
C2399 C 0.51634 0.03915 0.91615 0.0
C2400 C 0.5097 0.02912 0.935 0.0
C2401 C 0.49288 0.00506 0.93729 0.0
C2402 C 0.48154 0.99145 0.92045 0.0
H2403 H 0.15452 0.33248 0.49611 0.0
H2404 H 0.14726 0.26313 0.49613 0.0
H2405 H 0.15789 0.26743 0.46073 0.0
H2406 H 0.13147 0.32969 0.44773 0.0
H2407 H 0.15176 0.36 0.44192 0.0
H2408 H 0.14364 0.35121 0.46718 0.0
H2409 H 0.18722 0.36901 0.47627 0.0
H2410 H 0.19544 0.37752 0.45093 0.0
H2411 H 0.20478 0.35934 0.46335 0.0
H2412 H 0.16724 0.2785 0.42467 0.0
H2413 H 0.17341 0.29528 0.39092 0.0
H2414 H 0.17809 0.35863 0.41544 0.0
C2415 C 0.15509 0.31823 0.48856 0.0
C2416 C 0.14999 0.29743 0.49869 0.0
C2417 C 0.15112 0.27919 0.4885 0.0
C2418 C 0.15721 0.2815 0.46845 0.0
C2419 C 0.1625 0.30235 0.45886 0.0
C2420 C 0.16156 0.32043 0.46859 0.0
C2421 C 0.16791 0.34092 0.45483 0.0
C2422 C 0.14747 0.34572 0.45279 0.0
C2423 C 0.19016 0.363 0.46176 0.0
C2424 C 0.17211 0.33134 0.43583 0.0
C2425 C 0.16892 0.30908 0.43839 0.0
C2426 C 0.17013 0.2961 0.42251 0.0
C2427 C 0.17384 0.3058 0.40339 0.0
C2428 C 0.1764 0.32831 0.40041 0.0
C2429 C 0.17645 0.34145 0.41708 0.0
H2430 H 0.68081 0.87009 0.49379 0.0
H2431 H 0.70854 0.82266 0.50126 0.0
H2432 H 0.70248 0.81306 0.46634 0.0
H2433 H 0.63839 0.83964 0.45818 0.0
H2434 H 0.64459 0.86475 0.4431 0.0
H2435 H 0.65107 0.8685 0.46907 0.0
H2436 H 0.69402 0.89929 0.46119 0.0
H2437 H 0.68766 0.89556 0.43512 0.0
H2438 H 0.71069 0.8915 0.44494 0.0
H2439 H 0.69276 0.80703 0.43163 0.0
H2440 H 0.6783 0.80385 0.39799 0.0
H2441 H 0.65908 0.85687 0.41035 0.0
C2442 C 0.68597 0.85793 0.48819 0.0
C2443 C 0.69458 0.84674 0.50091 0.0
C2444 C 0.70089 0.83084 0.49251 0.0
C2445 C 0.69798 0.82553 0.47241 0.0
C2446 C 0.68953 0.83682 0.46051 0.0
C2447 C 0.68384 0.85288 0.46788 0.0
C2448 C 0.67543 0.86261 0.45139 0.0
C2449 C 0.6509 0.85861 0.4557 0.0
C2450 C 0.69298 0.8888 0.44796 0.0
C2451 C 0.6755 0.848 0.43401 0.0
C2452 C 0.68444 0.83382 0.43972 0.0
C2453 C 0.68605 0.81826 0.42687 0.0
C2454 C 0.67785 0.81668 0.40773 0.0
C2455 C 0.66784 0.8303 0.40149 0.0
C2456 C 0.66701 0.84657 0.41467 0.0
H2457 H 0.15057 0.81904 0.49495 0.0
H2458 H 0.15077 0.88509 0.49324 0.0
H2459 H 0.15806 0.88794 0.45721 0.0
H2460 H 0.19671 0.83496 0.46118 0.0
H2461 H 0.18427 0.80662 0.44942 0.0
H2462 H 0.17727 0.80873 0.47477 0.0
H2463 H 0.1331 0.78674 0.46663 0.0
H2464 H 0.13995 0.78391 0.44141 0.0
H2465 H 0.12255 0.79733 0.44686 0.0
H2466 H 0.16637 0.88389 0.42136 0.0
H2467 H 0.17067 0.87084 0.3881 0.0
H2468 H 0.16775 0.80901 0.41424 0.0
C2469 C 0.15153 0.83371 0.48682 0.0
C2470 C 0.1498 0.85168 0.49658 0.0
C2471 C 0.15176 0.87104 0.48575 0.0
C2472 C 0.15609 0.87289 0.46539 0.0
C2473 C 0.15858 0.85531 0.45621 0.0
C2474 C 0.15608 0.83595 0.46652 0.0
C2475 C 0.15984 0.81967 0.45323 0.0
C2476 C 0.18077 0.81738 0.46007 0.0
C2477 C 0.13754 0.79549 0.45195 0.0
C2478 C 0.16495 0.83293 0.43392 0.0
C2479 C 0.16415 0.85345 0.43585 0.0
C2480 C 0.16716 0.8679 0.41967 0.0
C2481 C 0.16989 0.86053 0.40086 0.0
C2482 C 0.16964 0.83897 0.39854 0.0
C2483 C 0.16814 0.82565 0.41547 0.0
H2484 H 0.60884 0.78005 0.18445 0.0
H2485 H 0.66805 0.845 0.16388 0.0
H2486 H 0.68414 0.85333 0.19781 0.0
H2487 H 0.60115 0.80291 0.2289 0.0
H2488 H 0.59238 0.77648 0.243 0.0
H2489 H 0.58736 0.77468 0.21682 0.0
H2490 H 0.61015 0.75219 0.21308 0.0
H2491 H 0.6157 0.75446 0.23928 0.0
H2492 H 0.63965 0.76535 0.22204 0.0
H2493 H 0.69319 0.85478 0.23354 0.0
H2494 H 0.69082 0.85419 0.26984 0.0
H2495 H 0.62415 0.78977 0.26779 0.0
C2496 C 0.62533 0.79588 0.18714 0.0
C2497 C 0.63748 0.81179 0.17171 0.0
C2498 C 0.65866 0.83263 0.17564 0.0
C2499 C 0.668 0.83731 0.19474 0.0
C2500 C 0.65579 0.821 0.20961 0.0
C2501 C 0.63468 0.80096 0.20613 0.0
C2502 C 0.6238 0.78764 0.22505 0.0
C2503 C 0.59976 0.78532 0.22866 0.0
C2504 C 0.62223 0.76347 0.22484 0.0
C2505 C 0.64164 0.80381 0.2399 0.0
C2506 C 0.66039 0.82244 0.23054 0.0
C2507 C 0.67874 0.84022 0.24102 0.0
C2508 C 0.67731 0.83963 0.2616 0.0
C2509 C 0.65747 0.82173 0.27142 0.0
C2510 C 0.63974 0.80321 0.26054 0.0
H2511 H 0.18775 0.84237 0.17066 0.0
H2512 H 0.14843 0.76607 0.17042 0.0
H2513 H 0.14154 0.76595 0.20617 0.0
H2514 H 0.21518 0.84653 0.21905 0.0
H2515 H 0.21474 0.87293 0.22553 0.0
H2516 H 0.21725 0.8667 0.20003 0.0
H2517 H 0.18102 0.87049 0.19175 0.0
H2518 H 0.17811 0.87623 0.21727 0.0
H2519 H 0.15397 0.85233 0.20465 0.0
H2520 H 0.13788 0.77422 0.24214 0.0
H2521 H 0.14025 0.79065 0.27561 0.0
H2522 H 0.18176 0.86107 0.2515 0.0
C2523 C 0.17798 0.82563 0.17813 0.0
C2524 C 0.16822 0.80428 0.16761 0.0
C2525 C 0.15551 0.78273 0.17804 0.0
C2526 C 0.15163 0.78243 0.19839 0.0
C2527 C 0.16084 0.8038 0.20821 0.0
C2528 C 0.17408 0.82498 0.19849 0.0
C2529 C 0.18217 0.84546 0.21249 0.0
C2530 C 0.20891 0.85868 0.21438 0.0
C2531 C 0.17327 0.8621 0.20616 0.0
C2532 C 0.17061 0.83252 0.23136 0.0
C2533 C 0.15865 0.8085 0.22876 0.0
C2534 C 0.1472 0.79305 0.24438 0.0
C2535 C 0.1485 0.8025 0.26329 0.0
C2536 C 0.16093 0.82712 0.26622 0.0
C2537 C 0.17175 0.84215 0.24987 0.0
H2538 H 0.19119 0.35114 0.17329 0.0
H2539 H 0.14795 0.38369 0.17215 0.0
H2540 H 0.14144 0.37739 0.20799 0.0
H2541 H 0.15916 0.30712 0.20744 0.0
H2542 H 0.18396 0.30905 0.22017 0.0
H2543 H 0.18648 0.31746 0.19462 0.0
H2544 H 0.22133 0.3586 0.20291 0.0
H2545 H 0.21908 0.35019 0.2285 0.0
H2546 H 0.21801 0.37618 0.22169 0.0
H2547 H 0.13809 0.36561 0.24438 0.0
H2548 H 0.13936 0.35 0.27758 0.0
H2549 H 0.1853 0.32647 0.25395 0.0
C2550 C 0.18068 0.35733 0.18057 0.0
C2551 C 0.16979 0.36755 0.16974 0.0
C2552 C 0.15601 0.37522 0.17997 0.0
C2553 C 0.15236 0.37194 0.20041 0.0
C2554 C 0.16289 0.36129 0.21056 0.0
C2555 C 0.17702 0.35439 0.20099 0.0
C2556 C 0.18602 0.34303 0.21518 0.0
C2557 C 0.17843 0.31766 0.20898 0.0
C2558 C 0.21269 0.35789 0.21718 0.0
C2559 C 0.17393 0.3437 0.23394 0.0
C2560 C 0.16095 0.35461 0.23121 0.0
C2561 C 0.14831 0.35711 0.24671 0.0
C2562 C 0.14908 0.34822 0.26549 0.0
C2563 C 0.16215 0.33677 0.26838 0.0
C2564 C 0.17471 0.3347 0.25229 0.0
H2565 H 0.81715 0.66596 0.82871 0.0
H2566 H 0.82555 0.60449 0.82953 0.0
H2567 H 0.835 0.60958 0.79404 0.0
H2568 H 0.78886 0.65484 0.78284 0.0
H2569 H 0.80304 0.68518 0.77517 0.0
H2570 H 0.79915 0.67794 0.80101 0.0
H2571 H 0.8436 0.70454 0.80639 0.0
H2572 H 0.84767 0.71158 0.78044 0.0
H2573 H 0.86369 0.69939 0.7922 0.0
H2574 H 0.84175 0.62004 0.75809 0.0
H2575 H 0.84096 0.63278 0.72378 0.0
H2576 H 0.82718 0.68658 0.74611 0.0
C2577 C 0.82109 0.65367 0.82142 0.0
C2578 C 0.82096 0.63505 0.83196 0.0
C2579 C 0.8261 0.61923 0.82186 0.0
C2580 C 0.83149 0.62196 0.80169 0.0
C2581 C 0.83178 0.64065 0.79176 0.0
C2582 C 0.82659 0.65617 0.80123 0.0
C2583 C 0.82681 0.67394 0.78686 0.0
C2584 C 0.80305 0.67289 0.78644 0.0
C2585 C 0.84662 0.69884 0.79177 0.0
C2586 C 0.83171 0.66519 0.76773 0.0
C2587 C 0.83521 0.6464 0.77093 0.0
C2588 C 0.83928 0.6349 0.75539 0.0
C2589 C 0.83898 0.64233 0.73598 0.0
C2590 C 0.83416 0.6607 0.73241 0.0
C2591 C 0.83109 0.67259 0.74852 0.0
H2592 H 0.37448 0.21194 0.82167 0.0
H2593 H 0.33316 0.13993 0.84259 0.0
H2594 H 0.3186 0.12709 0.80909 0.0
H2595 H 0.33084 0.20853 0.78702 0.0
H2596 H 0.3516 0.22657 0.76841 0.0
H2597 H 0.35977 0.23085 0.7941 0.0
H2598 H 0.39479 0.22487 0.78634 0.0
H2599 H 0.38678 0.22063 0.76062 0.0
H2600 H 0.38981 0.19849 0.77389 0.0
H2601 H 0.30704 0.12169 0.77551 0.0
H2602 H 0.29943 0.12196 0.74102 0.0
H2603 H 0.34844 0.19744 0.73798 0.0
C2604 C 0.36231 0.1935 0.81914 0.0
C2605 C 0.35518 0.17688 0.8348 0.0
C2606 C 0.33931 0.15291 0.83088 0.0
C2607 C 0.33077 0.14546 0.8119 0.0
C2608 C 0.33811 0.16216 0.79691 0.0
C2609 C 0.3535 0.18564 0.80008 0.0
C2610 C 0.35801 0.19955 0.7809 0.0
C2611 C 0.34956 0.21745 0.78272 0.0
C2612 C 0.3839 0.2116 0.77509 0.0
C2613 C 0.3429 0.18 0.7665 0.0
C2614 C 0.33152 0.15881 0.7765 0.0
C2615 C 0.3159 0.1381 0.76743 0.0
C2616 C 0.3117 0.1387 0.74751 0.0
C2617 C 0.32332 0.15989 0.73618 0.0
C2618 C 0.3393 0.18098 0.74596 0.0
H2619 H 0.84142 0.16895 0.82888 0.0
H2620 H 0.79728 0.20029 0.82811 0.0
H2621 H 0.79968 0.20254 0.79159 0.0
H2622 H 0.87895 0.20125 0.78875 0.0
H2623 H 0.88047 0.17669 0.77853 0.0
H2624 H 0.87563 0.17771 0.80462 0.0
H2625 H 0.83773 0.13723 0.80287 0.0
H2626 H 0.84289 0.13578 0.77695 0.0
H2627 H 0.81561 0.1328 0.78516 0.0
H2628 H 0.80843 0.20298 0.75531 0.0
H2629 H 0.81574 0.19382 0.72152 0.0
H2630 H 0.85229 0.16016 0.74578 0.0
C2631 C 0.83217 0.1761 0.82091 0.0
C2632 C 0.81926 0.18459 0.83108 0.0
C2633 C 0.80722 0.19373 0.82039 0.0
C2634 C 0.80866 0.19524 0.79973 0.0
C2635 C 0.82207 0.18734 0.79006 0.0
C2636 C 0.83309 0.17735 0.80024 0.0
C2637 C 0.84517 0.16887 0.78621 0.0
C2638 C 0.87163 0.18192 0.78975 0.0
C2639 C 0.83472 0.14208 0.78789 0.0
C2640 C 0.83931 0.17574 0.76657 0.0
C2641 C 0.82638 0.1868 0.76913 0.0
C2642 C 0.8186 0.19439 0.75311 0.0
C2643 C 0.82315 0.18947 0.73397 0.0
C2644 C 0.83497 0.17673 0.7311 0.0
C2645 C 0.8437 0.17042 0.74761 0.0
H2646 H 0.31805 0.17227 0.50775 0.0
H2647 H 0.26805 0.09753 0.50862 0.0
H2648 H 0.27107 0.09714 0.54484 0.0
H2649 H 0.35458 0.17119 0.54675 0.0
H2650 H 0.36046 0.19874 0.55747 0.0
H2651 H 0.3545 0.19363 0.53144 0.0
H2652 H 0.32073 0.20265 0.53476 0.0
H2653 H 0.32685 0.20813 0.56072 0.0
H2654 H 0.29798 0.18674 0.55267 0.0
H2655 H 0.27974 0.10437 0.58093 0.0
H2656 H 0.29163 0.12002 0.61483 0.0
H2657 H 0.3357 0.18973 0.59094 0.0
C2658 C 0.30768 0.1559 0.51562 0.0
C2659 C 0.29307 0.13483 0.50535 0.0
C2660 C 0.27973 0.11375 0.51616 0.0
C2661 C 0.28126 0.11335 0.53674 0.0
C2662 C 0.2962 0.1342 0.54641 0.0
C2663 C 0.30906 0.15515 0.53628 0.0
C2664 C 0.3237 0.17504 0.55041 0.0
C2665 C 0.34986 0.18524 0.54626 0.0
C2666 C 0.31689 0.19427 0.54959 0.0
C2667 C 0.31677 0.16199 0.56994 0.0
C2668 C 0.3011 0.1384 0.5673 0.0
C2669 C 0.29215 0.1228 0.5832 0.0
C2670 C 0.29919 0.13168 0.60236 0.0
C2671 C 0.31485 0.15583 0.60536 0.0
C2672 C 0.32378 0.1711 0.58894 0.0
H2673 H 0.86713 0.16507 0.50784 0.0
H2674 H 0.79342 0.12065 0.495 0.0
H2675 H 0.78405 0.12082 0.53005 0.0
H2676 H 0.87031 0.14336 0.55316 0.0
H2677 H 0.88853 0.17117 0.56511 0.0
H2678 H 0.88999 0.16874 0.53875 0.0
H2679 H 0.88074 0.20232 0.53349 0.0
H2680 H 0.87998 0.20537 0.55987 0.0
H2681 H 0.85535 0.2005 0.54509 0.0
H2682 H 0.78283 0.12214 0.56721 0.0
H2683 H 0.78947 0.13268 0.60284 0.0
H2684 H 0.86302 0.17846 0.59077 0.0
C2685 C 0.84899 0.15584 0.51225 0.0
C2686 C 0.83115 0.142 0.49869 0.0
C2687 C 0.80758 0.13049 0.5052 0.0
C2688 C 0.80198 0.13055 0.52511 0.0
C2689 C 0.82005 0.14301 0.53829 0.0
C2690 C 0.84296 0.15629 0.53205 0.0
C2691 C 0.85885 0.16921 0.54919 0.0
C2692 C 0.87804 0.16271 0.55168 0.0
C2693 C 0.86934 0.19593 0.54676 0.0
C2694 C 0.84148 0.15985 0.56605 0.0
C2695 C 0.81915 0.14481 0.55953 0.0
C2696 C 0.80022 0.13408 0.57254 0.0
C2697 C 0.80411 0.13981 0.59271 0.0
C2698 C 0.8267 0.15607 0.59938 0.0
C2699 C 0.8456 0.1657 0.58595 0.0
H2700 H 0.83735 0.71899 0.51643 0.0
H2701 H 0.83922 0.65786 0.49467 0.0
H2702 H 0.83231 0.64158 0.52856 0.0
H2703 H 0.86908 0.72508 0.56027 0.0
H2704 H 0.85291 0.73481 0.57518 0.0
H2705 H 0.85559 0.74022 0.54901 0.0
H2706 H 0.81051 0.71911 0.54636 0.0
H2707 H 0.80778 0.71317 0.57252 0.0
H2708 H 0.7933 0.68935 0.55521 0.0
H2709 H 0.82609 0.63242 0.56428 0.0
H2710 H 0.8284 0.63401 0.60063 0.0
H2711 H 0.83301 0.70219 0.60001 0.0
C2712 C 0.83605 0.70207 0.51887 0.0
C2713 C 0.8385 0.68943 0.50306 0.0
C2714 C 0.83729 0.66765 0.50668 0.0
C2715 C 0.83314 0.65822 0.52579 0.0
C2716 C 0.83045 0.67093 0.54106 0.0
C2717 C 0.83232 0.6926 0.53792 0.0
C2718 C 0.83109 0.70368 0.55722 0.0
C2719 C 0.8535 0.72734 0.56062 0.0
C2720 C 0.80938 0.70649 0.55786 0.0
C2721 C 0.82894 0.68515 0.57176 0.0
C2722 C 0.82784 0.66609 0.562 0.0
C2723 C 0.82674 0.64711 0.57209 0.0
C2724 C 0.82788 0.64808 0.59269 0.0
C2725 C 0.83042 0.66799 0.60291 0.0
C2726 C 0.83038 0.68652 0.59243 0.0
loop_
_geom_bond_atom_site_label_1
_geom_bond_atom_site_label_2
_geom_bond_distance
_geom_bond_site_symmetry_2
_ccdc_geom_bond_type
C0 C1 1.391 . S
C0 C4 1.391 . S
C0 H42 0.948 . S
C1 C0 1.391 . S
C1 C2 1.391 . S
C2 C1 1.391 . S
C2 H58 0.947 . S
C2 C59 1.392 . S
C3 C4 1.391 . S
C3 C7 1.397 . S
C3 C59 1.419 . S
C4 C0 1.391 . S
C4 C3 1.391 . S
C4 C5 1.399 . S
C5 C4 1.399 . S
C5 C8 1.396 . S
C5 C17 1.453 . S
C5 C18 1.684 . S
H6 C30 0.948 . S
C7 C3 1.397 . S
C7 C8 1.394 . S
C7 C26 1.723 . S
C8 C5 1.396 . S
C8 C7 1.394 . S
C8 C38 1.723 . S
H9 C32 0.947 . S
H10 C33 0.948 . S
H11 C39 0.982 . S
H12 C40 0.979 . S
H13 C40 0.980 . S
H14 C40 0.983 . S
H15 C39 0.979 . S
H16 C39 0.977 . S
C17 C5 1.453 . S
C17 H46 0.982 . S
C17 H47 0.979 . S
C17 H48 0.977 . S
C18 C5 1.684 . S
C18 H43 0.979 . S
C18 H44 0.980 . S
C18 H45 0.983 . S
C19 C20 1.391 . S
C19 C24 1.391 . S
C19 H49 0.948 . S
C20 C19 1.391 . S
C20 C21 1.391 . S
C21 C20 1.391 . S
C21 C22 1.392 . S
C21 H50 0.947 . S
C22 C21 1.392 . S
C22 C23 1.419 . S
C22 H51 0.948 . S
C23 C22 1.419 . S
C23 C24 1.391 . S
C23 C27 1.397 . S
C24 C19 1.391 . S
C24 C23 1.391 . S
C24 C25 1.399 . S
C25 C24 1.399 . S
C25 C26 1.396 . S
C25 C28 1.453 . S
C25 C29 1.684 . S
C26 C7 1.723 . S
C26 C25 1.396 . S
C26 C27 1.394 . S
C27 C23 1.397 . S
C27 C26 1.394 . S
C27 C37 1.723 . S
C28 C25 1.453 . S
C28 H52 0.982 . S
C28 H53 0.979 . S
C28 H54 0.977 . S
C29 C25 1.684 . S
C29 H55 0.979 . S
C29 H56 0.980 . S
C29 H57 0.983 . S
C30 H6 0.948 . S
C30 C31 1.391 . S
C30 C35 1.391 . S
C31 C30 1.391 . S
C31 C32 1.391 . S
C32 H9 0.947 . S
C32 C31 1.391 . S
C32 C33 1.392 . S
C33 H10 0.948 . S
C33 C32 1.392 . S
C33 C34 1.419 . S
C34 C33 1.419 . S
C34 C35 1.391 . S
C34 C38 1.397 . S
C35 C30 1.391 . S
C35 C34 1.391 . S
C35 C36 1.399 . S
C36 C35 1.399 . S
C36 C37 1.396 . S
C36 C39 1.453 . S
C36 C40 1.684 . S
C37 C27 1.723 . S
C37 C36 1.396 . S
C37 C38 1.394 . S
C38 C8 1.723 . S
C38 C34 1.397 . S
C38 C37 1.394 . S
C39 H11 0.982 . S
C39 H15 0.979 . S
C39 H16 0.977 . S
C39 C36 1.453 . S
C40 H12 0.979 . S
C40 H13 0.980 . S
C40 H14 0.983 . S
C40 C36 1.684 . S
H41 C59 0.948 . S
H42 C0 0.948 . S
H43 C18 0.979 . S
H44 C18 0.980 . S
H45 C18 0.983 . S
H46 C17 0.982 . S
H47 C17 0.979 . S
H48 C17 0.977 . S
H49 C19 0.948 . S
H50 C21 0.947 . S
H51 C22 0.948 . S
H52 C28 0.982 . S
H53 C28 0.979 . S
H54 C28 0.977 . S
H55 C29 0.979 . S
H56 C29 0.980 . S
H57 C29 0.983 . S
H58 C2 0.947 . S
C59 C2 1.392 . S
C59 C3 1.419 . S
C59 H41 0.948 . S
C60 C61 1.391 . S
C60 C64 1.391 . S
C60 H102 0.948 . S
C61 C60 1.391 . S
C61 C62 1.391 . S
C62 C61 1.391 . S
C62 H118 0.947 . S
C62 C119 1.392 . S
C63 C64 1.391 . S
C63 C67 1.397 . S
C63 C119 1.419 . S
C64 C60 1.391 . S
C64 C63 1.391 . S
C64 C65 1.399 . S
C65 C64 1.399 . S
C65 C68 1.396 . S
C65 C77 1.453 . S
C65 C78 1.684 . S
H66 C90 0.948 . S
C67 C63 1.397 . S
C67 C68 1.394 . S
C67 C86 1.723 . S
C68 C65 1.396 . S
C68 C67 1.394 . S
C68 C98 1.723 . S
H69 C92 0.947 . S
H70 C93 0.948 . S
H71 C99 0.982 . S
H72 C100 0.979 . S
H73 C100 0.980 . S
H74 C100 0.983 . S
H75 C99 0.979 . S
H76 C99 0.977 . S
C77 C65 1.453 . S
C77 H106 0.982 . S
C77 H107 0.979 . S
C77 H108 0.977 . S
C78 C65 1.684 . S
C78 H103 0.979 . S
C78 H104 0.980 . S
C78 H105 0.983 . S
C79 C80 1.391 . S
C79 C84 1.391 . S
C79 H109 0.948 . S
C80 C79 1.391 . S
C80 C81 1.391 . S
C81 C80 1.391 . S
C81 C82 1.392 . S
C81 H110 0.947 . S
C82 C81 1.392 . S
C82 C83 1.419 . S
C82 H111 0.948 . S
C83 C82 1.419 . S
C83 C84 1.391 . S
C83 C87 1.397 . S
C84 C79 1.391 . S
C84 C83 1.391 . S
C84 C85 1.399 . S
C85 C84 1.399 . S
C85 C86 1.396 . S
C85 C88 1.453 . S
C85 C89 1.684 . S
C86 C67 1.723 . S
C86 C85 1.396 . S
C86 C87 1.394 . S
C87 C83 1.397 . S
C87 C86 1.394 . S
C87 C97 1.723 . S
C88 C85 1.453 . S
C88 H112 0.982 . S
C88 H113 0.979 . S
C88 H114 0.977 . S
C89 C85 1.684 . S
C89 H115 0.979 . S
C89 H116 0.980 . S
C89 H117 0.983 . S
C90 H66 0.948 . S
C90 C91 1.391 . S
C90 C95 1.391 . S
C91 C90 1.391 . S
C91 C92 1.391 . S
C92 H69 0.947 . S
C92 C91 1.391 . S
C92 C93 1.392 . S
C93 H70 0.948 . S
C93 C92 1.392 . S
C93 C94 1.419 . S
C94 C93 1.419 . S
C94 C95 1.391 . S
C94 C98 1.397 . S
C95 C90 1.391 . S
C95 C94 1.391 . S
C95 C96 1.399 . S
C96 C95 1.399 . S
C96 C97 1.396 . S
C96 C99 1.453 . S
C96 C100 1.684 . S
C97 C87 1.723 . S
C97 C96 1.396 . S
C97 C98 1.394 . S
C98 C68 1.723 . S
C98 C94 1.397 . S
C98 C97 1.394 . S
C99 H71 0.982 . S
C99 H75 0.979 . S
C99 H76 0.977 . S
C99 C96 1.453 . S
C100 H72 0.979 . S
C100 H73 0.980 . S
C100 H74 0.983 . S
C100 C96 1.684 . S
H101 C119 0.948 . S
H102 C60 0.948 . S
H103 C78 0.979 . S
H104 C78 0.980 . S
H105 C78 0.983 . S
H106 C77 0.982 . S
H107 C77 0.979 . S
H108 C77 0.977 . S
H109 C79 0.948 . S
H110 C81 0.947 . S
H111 C82 0.948 . S
H112 C88 0.982 . S
H113 C88 0.979 . S
H114 C88 0.977 . S
H115 C89 0.979 . S
H116 C89 0.980 . S
H117 C89 0.983 . S
H118 C62 0.947 . S
C119 C62 1.392 . S
C119 C63 1.419 . S
C119 H101 0.948 . S
C120 C121 1.391 . S
C120 C124 1.391 . S
C120 H162 0.948 . S
C121 C120 1.391 . S
C121 C122 1.391 . S
C122 C121 1.391 . S
C122 H178 0.947 . S
C122 C179 1.392 . S
C123 C124 1.391 . S
C123 C127 1.397 . S
C123 C179 1.419 . S
C124 C120 1.391 . S
C124 C123 1.391 . S
C124 C125 1.399 . S
C125 C124 1.399 . S
C125 C128 1.396 . S
C125 C137 1.453 . S
C125 C138 1.684 . S
H126 C150 0.948 . S
C127 C123 1.397 . S
C127 C128 1.394 . S
C127 C146 1.723 . S
C128 C125 1.396 . S
C128 C127 1.394 . S
C128 C158 1.723 . S
H129 C152 0.947 . S
H130 C153 0.948 . S
H131 C159 0.982 . S
H132 C160 0.979 . S
H133 C160 0.980 . S
H134 C160 0.983 . S
H135 C159 0.979 . S
H136 C159 0.977 . S
C137 C125 1.453 . S
C137 H166 0.982 . S
C137 H167 0.979 . S
C137 H168 0.977 . S
C138 C125 1.684 . S
C138 H163 0.979 . S
C138 H164 0.980 . S
C138 H165 0.983 . S
C139 C140 1.391 . S
C139 C144 1.391 . S
C139 H169 0.948 . S
C140 C139 1.391 . S
C140 C141 1.391 . S
C141 C140 1.391 . S
C141 C142 1.392 . S
C141 H170 0.947 . S
C142 C141 1.392 . S
C142 C143 1.419 . S
C142 H171 0.948 . S
C143 C142 1.419 . S
C143 C144 1.391 . S
C143 C147 1.397 . S
C144 C139 1.391 . S
C144 C143 1.391 . S
C144 C145 1.399 . S
C145 C144 1.399 . S
C145 C146 1.396 . S
C145 C148 1.453 . S
C145 C149 1.684 . S
C146 C127 1.723 . S
C146 C145 1.396 . S
C146 C147 1.394 . S
C147 C143 1.397 . S
C147 C146 1.394 . S
C147 C157 1.723 . S
C148 C145 1.453 . S
C148 H172 0.982 . S
C148 H173 0.979 . S
C148 H174 0.977 . S
C149 C145 1.684 . S
C149 H175 0.979 . S
C149 H176 0.980 . S
C149 H177 0.983 . S
C150 H126 0.948 . S
C150 C151 1.391 . S
C150 C155 1.391 . S
C151 C150 1.391 . S
C151 C152 1.391 . S
C152 H129 0.947 . S
C152 C151 1.391 . S
C152 C153 1.392 . S
C153 H130 0.948 . S
C153 C152 1.392 . S
C153 C154 1.419 . S
C154 C153 1.419 . S
C154 C155 1.391 . S
C154 C158 1.397 . S
C155 C150 1.391 . S
C155 C154 1.391 . S
C155 C156 1.399 . S
C156 C155 1.399 . S
C156 C157 1.396 . S
C156 C159 1.453 . S
C156 C160 1.684 . S
C157 C147 1.723 . S
C157 C156 1.396 . S
C157 C158 1.394 . S
C158 C128 1.723 . S
C158 C154 1.397 . S
C158 C157 1.394 . S
C159 H131 0.982 . S
C159 H135 0.979 . S
C159 H136 0.977 . S
C159 C156 1.453 . S
C160 H132 0.979 . S
C160 H133 0.980 . S
C160 H134 0.983 . S
C160 C156 1.684 . S
H161 C179 0.948 . S
H162 C120 0.948 . S
H163 C138 0.979 . S
H164 C138 0.980 . S
H165 C138 0.983 . S
H166 C137 0.982 . S
H167 C137 0.979 . S
H168 C137 0.977 . S
H169 C139 0.948 . S
H170 C141 0.947 . S
H171 C142 0.948 . S
H172 C148 0.982 . S
H173 C148 0.979 . S
H174 C148 0.977 . S
H175 C149 0.979 . S
H176 C149 0.980 . S
H177 C149 0.983 . S
H178 C122 0.947 . S
C179 C122 1.392 . S
C179 C123 1.419 . S
C179 H161 0.948 . S
C180 C181 1.391 . S
C180 C184 1.391 . S
C180 H222 0.948 . S
C181 C180 1.391 . S
C181 C182 1.391 . S
C182 C181 1.391 . S
C182 H238 0.947 . S
C182 C239 1.392 . S
C183 C184 1.391 . S
C183 C187 1.397 . S
C183 C239 1.419 . S
C184 C180 1.391 . S
C184 C183 1.391 . S
C184 C185 1.399 . S
C185 C184 1.399 . S
C185 C188 1.396 . S
C185 C197 1.453 . S
C185 C198 1.684 . S
H186 C210 0.948 . S
C187 C183 1.397 . S
C187 C188 1.394 . S
C187 C206 1.723 . S
C188 C185 1.396 . S
C188 C187 1.394 . S
C188 C218 1.723 . S
H189 C212 0.947 . S
H190 C213 0.948 . S
H191 C219 0.982 . S
H192 C220 0.979 . S
H193 C220 0.980 . S
H194 C220 0.983 . S
H195 C219 0.979 . S
H196 C219 0.977 . S
C197 C185 1.453 . S
C197 H226 0.982 . S
C197 H227 0.979 . S
C197 H228 0.977 . S
C198 C185 1.684 . S
C198 H223 0.979 . S
C198 H224 0.980 . S
C198 H225 0.983 . S
C199 C200 1.391 . S
C199 C204 1.391 . S
C199 H229 0.948 . S
C200 C199 1.391 . S
C200 C201 1.391 . S
C201 C200 1.391 . S
C201 C202 1.392 . S
C201 H230 0.947 . S
C202 C201 1.392 . S
C202 C203 1.419 . S
C202 H231 0.948 . S
C203 C202 1.419 . S
C203 C204 1.391 . S
C203 C207 1.397 . S
C204 C199 1.391 . S
C204 C203 1.391 . S
C204 C205 1.399 . S
C205 C204 1.399 . S
C205 C206 1.396 . S
C205 C208 1.453 . S
C205 C209 1.684 . S
C206 C187 1.723 . S
C206 C205 1.396 . S
C206 C207 1.394 . S
C207 C203 1.397 . S
C207 C206 1.394 . S
C207 C217 1.723 . S
C208 C205 1.453 . S
C208 H232 0.982 . S
C208 H233 0.979 . S
C208 H234 0.977 . S
C209 C205 1.684 . S
C209 H235 0.979 . S
C209 H236 0.980 . S
C209 H237 0.983 . S
C210 H186 0.948 . S
C210 C211 1.391 . S
C210 C215 1.391 . S
C211 C210 1.391 . S
C211 C212 1.391 . S
C212 H189 0.947 . S
C212 C211 1.391 . S
C212 C213 1.392 . S
C213 H190 0.948 . S
C213 C212 1.392 . S
C213 C214 1.419 . S
C214 C213 1.419 . S
C214 C215 1.391 . S
C214 C218 1.397 . S
C215 C210 1.391 . S
C215 C214 1.391 . S
C215 C216 1.399 . S
C216 C215 1.399 . S
C216 C217 1.396 . S
C216 C219 1.453 . S
C216 C220 1.684 . S
C217 C207 1.723 . S
C217 C216 1.396 . S
C217 C218 1.394 . S
C218 C188 1.723 . S
C218 C214 1.397 . S
C218 C217 1.394 . S
C219 H191 0.982 . S
C219 H195 0.979 . S
C219 H196 0.977 . S
C219 C216 1.453 . S
C220 H192 0.979 . S
C220 H193 0.980 . S
C220 H194 0.983 . S
C220 C216 1.684 . S
H221 C239 0.948 . S
H222 C180 0.948 . S
H223 C198 0.979 . S
H224 C198 0.980 . S
H225 C198 0.983 . S
H226 C197 0.982 . S
H227 C197 0.979 . S
H228 C197 0.977 . S
H229 C199 0.948 . S
H230 C201 0.947 . S
H231 C202 0.948 . S
H232 C208 0.982 . S
H233 C208 0.979 . S
H234 C208 0.977 . S
H235 C209 0.979 . S
H236 C209 0.980 . S
H237 C209 0.983 . S
H238 C182 0.947 . S
C239 C182 1.392 . S
C239 C183 1.419 . S
C239 H221 0.948 . S
C240 C241 1.391 . S
C240 C244 1.391 . S
C240 H282 0.948 . S
C241 C240 1.391 . S
C241 C242 1.391 . S
C242 C241 1.391 . S
C242 H298 0.947 . S
C242 C299 1.392 . S
C243 C244 1.391 . S
C243 C247 1.397 . S
C243 C299 1.419 . S
C244 C240 1.391 . S
C244 C243 1.391 . S
C244 C245 1.399 . S
C245 C244 1.399 . S
C245 C248 1.396 . S
C245 C257 1.453 . S
C245 C258 1.684 . S
H246 C270 0.948 . S
C247 C243 1.397 . S
C247 C248 1.394 . S
C247 C266 1.723 . S
C248 C245 1.396 . S
C248 C247 1.394 . S
C248 C278 1.723 . S
H249 C272 0.947 . S
H250 C273 0.948 . S
H251 C279 0.982 . S
H252 C280 0.979 . S
H253 C280 0.980 . S
H254 C280 0.983 . S
H255 C279 0.979 . S
H256 C279 0.977 . S
C257 C245 1.453 . S
C257 H286 0.982 . S
C257 H287 0.979 . S
C257 H288 0.977 . S
C258 C245 1.684 . S
C258 H283 0.979 . S
C258 H284 0.980 . S
C258 H285 0.983 . S
C259 C260 1.391 . S
C259 C264 1.391 . S
C259 H289 0.948 . S
C260 C259 1.391 . S
C260 C261 1.391 . S
C261 C260 1.391 . S
C261 C262 1.392 . S
C261 H290 0.947 . S
C262 C261 1.392 . S
C262 C263 1.419 . S
C262 H291 0.948 . S
C263 C262 1.419 . S
C263 C264 1.391 . S
C263 C267 1.397 . S
C264 C259 1.391 . S
C264 C263 1.391 . S
C264 C265 1.399 . S
C265 C264 1.399 . S
C265 C266 1.396 . S
C265 C268 1.453 . S
C265 C269 1.684 . S
C266 C247 1.723 . S
C266 C265 1.396 . S
C266 C267 1.394 . S
C267 C263 1.397 . S
C267 C266 1.394 . S
C267 C277 1.723 . S
C268 C265 1.453 . S
C268 H292 0.982 . S
C268 H293 0.979 . S
C268 H294 0.977 . S
C269 C265 1.684 . S
C269 H295 0.979 . S
C269 H296 0.980 . S
C269 H297 0.983 . S
C270 H246 0.948 . S
C270 C271 1.391 . S
C270 C275 1.391 . S
C271 C270 1.391 . S
C271 C272 1.391 . S
C272 H249 0.947 . S
C272 C271 1.391 . S
C272 C273 1.392 . S
C273 H250 0.948 . S
C273 C272 1.392 . S
C273 C274 1.419 . S
C274 C273 1.419 . S
C274 C275 1.391 . S
C274 C278 1.397 . S
C275 C270 1.391 . S
C275 C274 1.391 . S
C275 C276 1.399 . S
C276 C275 1.399 . S
C276 C277 1.396 . S
C276 C279 1.453 . S
C276 C280 1.684 . S
C277 C267 1.723 . S
C277 C276 1.396 . S
C277 C278 1.394 . S
C278 C248 1.723 . S
C278 C274 1.397 . S
C278 C277 1.394 . S
C279 H251 0.982 . S
C279 H255 0.979 . S
C279 H256 0.977 . S
C279 C276 1.453 . S
C280 H252 0.979 . S
C280 H253 0.980 . S
C280 H254 0.983 . S
C280 C276 1.684 . S
H281 C299 0.948 . S
H282 C240 0.948 . S
H283 C258 0.979 . S
H284 C258 0.980 . S
H285 C258 0.983 . S
H286 C257 0.982 . S
H287 C257 0.979 . S
H288 C257 0.977 . S
H289 C259 0.948 . S
H290 C261 0.947 . S
H291 C262 0.948 . S
H292 C268 0.982 . S
H293 C268 0.979 . S
H294 C268 0.977 . S
H295 C269 0.979 . S
H296 C269 0.980 . S
H297 C269 0.983 . S
H298 C242 0.947 . S
C299 C242 1.392 . S
C299 C243 1.419 . S
C299 H281 0.948 . S
C300 C301 1.391 . S
C300 C304 1.391 . S
C300 H342 0.948 . S
C301 C300 1.391 . S
C301 C302 1.391 . S
C302 C301 1.391 . S
C302 H358 0.947 . S
C302 C359 1.392 . S
C303 C304 1.391 . S
C303 C307 1.397 . S
C303 C359 1.419 . S
C304 C300 1.391 . S
C304 C303 1.391 . S
C304 C305 1.399 . S
C305 C304 1.399 . S
C305 C308 1.396 . S
C305 C317 1.453 . S
C305 C318 1.684 . S
H306 C330 0.948 . S
C307 C303 1.397 . S
C307 C308 1.394 . S
C307 C326 1.723 . S
C308 C305 1.396 . S
C308 C307 1.394 . S
C308 C338 1.723 . S
H309 C332 0.947 . S
H310 C333 0.948 . S
H311 C339 0.982 . S
H312 C340 0.979 . S
H313 C340 0.980 . S
H314 C340 0.983 . S
H315 C339 0.979 . S
H316 C339 0.977 . S
C317 C305 1.453 . S
C317 H346 0.982 . S
C317 H347 0.979 . S
C317 H348 0.977 . S
C318 C305 1.684 . S
C318 H343 0.979 . S
C318 H344 0.980 . S
C318 H345 0.983 . S
C319 C320 1.391 . S
C319 C324 1.391 . S
C319 H349 0.948 . S
C320 C319 1.391 . S
C320 C321 1.391 . S
C321 C320 1.391 . S
C321 C322 1.392 . S
C321 H350 0.947 . S
C322 C321 1.392 . S
C322 C323 1.419 . S
C322 H351 0.948 . S
C323 C322 1.419 . S
C323 C324 1.391 . S
C323 C327 1.397 . S
C324 C319 1.391 . S
C324 C323 1.391 . S
C324 C325 1.399 . S
C325 C324 1.399 . S
C325 C326 1.396 . S
C325 C328 1.453 . S
C325 C329 1.684 . S
C326 C307 1.723 . S
C326 C325 1.396 . S
C326 C327 1.394 . S
C327 C323 1.397 . S
C327 C326 1.394 . S
C327 C337 1.723 . S
C328 C325 1.453 . S
C328 H352 0.982 . S
C328 H353 0.979 . S
C328 H354 0.977 . S
C329 C325 1.684 . S
C329 H355 0.979 . S
C329 H356 0.980 . S
C329 H357 0.983 . S
C330 H306 0.948 . S
C330 C331 1.391 . S
C330 C335 1.391 . S
C331 C330 1.391 . S
C331 C332 1.391 . S
C332 H309 0.947 . S
C332 C331 1.391 . S
C332 C333 1.392 . S
C333 H310 0.948 . S
C333 C332 1.392 . S
C333 C334 1.419 . S
C334 C333 1.419 . S
C334 C335 1.391 . S
C334 C338 1.397 . S
C335 C330 1.391 . S
C335 C334 1.391 . S
C335 C336 1.399 . S
C336 C335 1.399 . S
C336 C337 1.396 . S
C336 C339 1.453 . S
C336 C340 1.684 . S
C337 C327 1.723 . S
C337 C336 1.396 . S
C337 C338 1.394 . S
C338 C308 1.723 . S
C338 C334 1.397 . S
C338 C337 1.394 . S
C339 H311 0.982 . S
C339 H315 0.979 . S
C339 H316 0.977 . S
C339 C336 1.453 . S
C340 H312 0.979 . S
C340 H313 0.980 . S
C340 H314 0.983 . S
C340 C336 1.684 . S
H341 C359 0.948 . S
H342 C300 0.948 . S
H343 C318 0.979 . S
H344 C318 0.980 . S
H345 C318 0.983 . S
H346 C317 0.982 . S
H347 C317 0.979 . S
H348 C317 0.977 . S
H349 C319 0.948 . S
H350 C321 0.947 . S
H351 C322 0.948 . S
H352 C328 0.982 . S
H353 C328 0.979 . S
H354 C328 0.977 . S
H355 C329 0.979 . S
H356 C329 0.980 . S
H357 C329 0.983 . S
H358 C302 0.947 . S
C359 C302 1.392 . S
C359 C303 1.419 . S
C359 H341 0.948 . S
C360 C361 1.391 . S
C360 C364 1.391 . S
C360 H402 0.948 . S
C361 C360 1.391 . S
C361 C362 1.391 . S
C362 C361 1.391 . S
C362 H418 0.947 . S
C362 C419 1.392 . S
C363 C364 1.391 . S
C363 C367 1.397 . S
C363 C419 1.419 . S
C364 C360 1.391 . S
C364 C363 1.391 . S
C364 C365 1.399 . S
C365 C364 1.399 . S
C365 C368 1.396 . S
C365 C377 1.453 . S
C365 C378 1.684 . S
H366 C390 0.948 . S
C367 C363 1.397 . S
C367 C368 1.394 . S
C367 C386 1.723 . S
C368 C365 1.396 . S
C368 C367 1.394 . S
C368 C398 1.723 . S
H369 C392 0.947 . S
H370 C393 0.948 . S
H371 C399 0.982 . S
H372 C400 0.979 . S
H373 C400 0.980 . S
H374 C400 0.983 . S
H375 C399 0.979 . S
H376 C399 0.977 . S
C377 C365 1.453 . S
C377 H406 0.982 . S
C377 H407 0.979 . S
C377 H408 0.977 . S
C378 C365 1.684 . S
C378 H403 0.979 . S
C378 H404 0.980 . S
C378 H405 0.983 . S
C379 C380 1.391 . S
C379 C384 1.391 . S
C379 H409 0.948 . S
C380 C379 1.391 . S
C380 C381 1.391 . S
C381 C380 1.391 . S
C381 C382 1.392 . S
C381 H410 0.947 . S
C382 C381 1.392 . S
C382 C383 1.419 . S
C382 H411 0.948 . S
C383 C382 1.419 . S
C383 C384 1.391 . S
C383 C387 1.397 . S
C384 C379 1.391 . S
C384 C383 1.391 . S
C384 C385 1.399 . S
C385 C384 1.399 . S
C385 C386 1.396 . S
C385 C388 1.453 . S
C385 C389 1.684 . S
C386 C367 1.723 . S
C386 C385 1.396 . S
C386 C387 1.394 . S
C387 C383 1.397 . S
C387 C386 1.394 . S
C387 C397 1.723 . S
C388 C385 1.453 . S
C388 H412 0.982 . S
C388 H413 0.979 . S
C388 H414 0.977 . S
C389 C385 1.684 . S
C389 H415 0.979 . S
C389 H416 0.980 . S
C389 H417 0.983 . S
C390 H366 0.948 . S
C390 C391 1.391 . S
C390 C395 1.391 . S
C391 C390 1.391 . S
C391 C392 1.391 . S
C392 H369 0.947 . S
C392 C391 1.391 . S
C392 C393 1.392 . S
C393 H370 0.948 . S
C393 C392 1.392 . S
C393 C394 1.419 . S
C394 C393 1.419 . S
C394 C395 1.391 . S
C394 C398 1.397 . S
C395 C390 1.391 . S
C395 C394 1.391 . S
C395 C396 1.399 . S
C396 C395 1.399 . S
C396 C397 1.396 . S
C396 C399 1.453 . S
C396 C400 1.684 . S
C397 C387 1.723 . S
C397 C396 1.396 . S
C397 C398 1.394 . S
C398 C368 1.723 . S
C398 C394 1.397 . S
C398 C397 1.394 . S
C399 H371 0.982 . S
C399 H375 0.979 . S
C399 H376 0.977 . S
C399 C396 1.453 . S
C400 H372 0.979 . S
C400 H373 0.980 . S
C400 H374 0.983 . S
C400 C396 1.684 . S
H401 C419 0.948 . S
H402 C360 0.948 . S
H403 C378 0.979 . S
H404 C378 0.980 . S
H405 C378 0.983 . S
H406 C377 0.982 . S
H407 C377 0.979 . S
H408 C377 0.977 . S
H409 C379 0.948 . S
H410 C381 0.947 . S
H411 C382 0.948 . S
H412 C388 0.982 . S
H413 C388 0.979 . S
H414 C388 0.977 . S
H415 C389 0.979 . S
H416 C389 0.980 . S
H417 C389 0.983 . S
H418 C362 0.947 . S
C419 C362 1.392 . S
C419 C363 1.419 . S
C419 H401 0.948 . S
C420 C421 1.391 . S
C420 C424 1.391 . S
C420 H462 0.948 . S
C421 C420 1.391 . S
C421 C422 1.391 . S
C422 C421 1.391 . S
C422 H478 0.947 . S
C422 C479 1.392 . S
C423 C424 1.391 . S
C423 C427 1.397 . S
C423 C479 1.419 . S
C424 C420 1.391 . S
C424 C423 1.391 . S
C424 C425 1.399 . S
C425 C424 1.399 . S
C425 C428 1.396 . S
C425 C437 1.453 . S
C425 C438 1.684 . S
H426 C450 0.948 . S
C427 C423 1.397 . S
C427 C428 1.394 . S
C427 C446 1.723 . S
C428 C425 1.396 . S
C428 C427 1.394 . S
C428 C458 1.723 . S
H429 C452 0.947 . S
H430 C453 0.948 . S
H431 C459 0.982 . S
H432 C460 0.979 . S
H433 C460 0.980 . S
H434 C460 0.983 . S
H435 C459 0.979 . S
H436 C459 0.977 . S
C437 C425 1.453 . S
C437 H466 0.982 . S
C437 H467 0.979 . S
C437 H468 0.977 . S
C438 C425 1.684 . S
C438 H463 0.979 . S
C438 H464 0.980 . S
C438 H465 0.983 . S
C439 C440 1.391 . S
C439 C444 1.391 . S
C439 H469 0.948 . S
C440 C439 1.391 . S
C440 C441 1.391 . S
C441 C440 1.391 . S
C441 C442 1.392 . S
C441 H470 0.947 . S
C442 C441 1.392 . S
C442 C443 1.419 . S
C442 H471 0.948 . S
C443 C442 1.419 . S
C443 C444 1.391 . S
C443 C447 1.397 . S
C444 C439 1.391 . S
C444 C443 1.391 . S
C444 C445 1.399 . S
C445 C444 1.399 . S
C445 C446 1.396 . S
C445 C448 1.453 . S
C445 C449 1.684 . S
C446 C427 1.723 . S
C446 C445 1.396 . S
C446 C447 1.394 . S
C447 C443 1.397 . S
C447 C446 1.394 . S
C447 C457 1.723 . S
C448 C445 1.453 . S
C448 H472 0.982 . S
C448 H473 0.979 . S
C448 H474 0.977 . S
C449 C445 1.684 . S
C449 H475 0.979 . S
C449 H476 0.980 . S
C449 H477 0.983 . S
C450 H426 0.948 . S
C450 C451 1.391 . S
C450 C455 1.391 . S
C451 C450 1.391 . S
C451 C452 1.391 . S
C452 H429 0.947 . S
C452 C451 1.391 . S
C452 C453 1.392 . S
C453 H430 0.948 . S
C453 C452 1.392 . S
C453 C454 1.419 . S
C454 C453 1.419 . S
C454 C455 1.391 . S
C454 C458 1.397 . S
C455 C450 1.391 . S
C455 C454 1.391 . S
C455 C456 1.399 . S
C456 C455 1.399 . S
C456 C457 1.396 . S
C456 C459 1.453 . S
C456 C460 1.684 . S
C457 C447 1.723 . S
C457 C456 1.396 . S
C457 C458 1.394 . S
C458 C428 1.723 . S
C458 C454 1.397 . S
C458 C457 1.394 . S
C459 H431 0.982 . S
C459 H435 0.979 . S
C459 H436 0.977 . S
C459 C456 1.453 . S
C460 H432 0.979 . S
C460 H433 0.980 . S
C460 H434 0.983 . S
C460 C456 1.684 . S
H461 C479 0.948 . S
H462 C420 0.948 . S
H463 C438 0.979 . S
H464 C438 0.980 . S
H465 C438 0.983 . S
H466 C437 0.982 . S
H467 C437 0.979 . S
H468 C437 0.977 . S
H469 C439 0.948 . S
H470 C441 0.947 . S
H471 C442 0.948 . S
H472 C448 0.982 . S
H473 C448 0.979 . S
H474 C448 0.977 . S
H475 C449 0.979 . S
H476 C449 0.980 . S
H477 C449 0.983 . S
H478 C422 0.947 . S
C479 C422 1.392 . S
C479 C423 1.419 . S
C479 H461 0.948 . S
C480 C481 1.391 . S
C480 C484 1.391 . S
C480 H522 0.948 . S
C481 C480 1.391 . S
C481 C482 1.391 . S
C482 C481 1.391 . S
C482 H538 0.947 . S
C482 C539 1.392 . S
C483 C484 1.391 . S
C483 C487 1.397 . S
C483 C539 1.419 . S
C484 C480 1.391 . S
C484 C483 1.391 . S
C484 C485 1.399 . S
C485 C484 1.399 . S
C485 C488 1.396 . S
C485 C497 1.453 . S
C485 C498 1.684 . S
H486 C510 0.948 . S
C487 C483 1.397 . S
C487 C488 1.394 . S
C487 C506 1.723 . S
C488 C485 1.396 . S
C488 C487 1.394 . S
C488 C518 1.723 . S
H489 C512 0.947 . S
H490 C513 0.948 . S
H491 C519 0.982 . S
H492 C520 0.979 . S
H493 C520 0.980 . S
H494 C520 0.983 . S
H495 C519 0.979 . S
H496 C519 0.977 . S
C497 C485 1.453 . S
C497 H526 0.982 . S
C497 H527 0.979 . S
C497 H528 0.977 . S
C498 C485 1.684 . S
C498 H523 0.979 . S
C498 H524 0.980 . S
C498 H525 0.983 . S
C499 C500 1.391 . S
C499 C504 1.391 . S
C499 H529 0.948 . S
C500 C499 1.391 . S
C500 C501 1.391 . S
C501 C500 1.391 . S
C501 C502 1.392 . S
C501 H530 0.947 . S
C502 C501 1.392 . S
C502 C503 1.419 . S
C502 H531 0.948 . S
C503 C502 1.419 . S
C503 C504 1.391 . S
C503 C507 1.397 . S
C504 C499 1.391 . S
C504 C503 1.391 . S
C504 C505 1.399 . S
C505 C504 1.399 . S
C505 C506 1.396 . S
C505 C508 1.453 . S
C505 C509 1.684 . S
C506 C487 1.723 . S
C506 C505 1.396 . S
C506 C507 1.394 . S
C507 C503 1.397 . S
C507 C506 1.394 . S
C507 C517 1.723 . S
C508 C505 1.453 . S
C508 H532 0.982 . S
C508 H533 0.979 . S
C508 H534 0.977 . S
C509 C505 1.684 . S
C509 H535 0.979 . S
C509 H536 0.980 . S
C509 H537 0.983 . S
C510 H486 0.948 . S
C510 C511 1.391 . S
C510 C515 1.391 . S
C511 C510 1.391 . S
C511 C512 1.391 . S
C512 H489 0.947 . S
C512 C511 1.391 . S
C512 C513 1.392 . S
C513 H490 0.948 . S
C513 C512 1.392 . S
C513 C514 1.419 . S
C514 C513 1.419 . S
C514 C515 1.391 . S
C514 C518 1.397 . S
C515 C510 1.391 . S
C515 C514 1.391 . S
C515 C516 1.399 . S
C516 C515 1.399 . S
C516 C517 1.396 . S
C516 C519 1.453 . S
C516 C520 1.684 . S
C517 C507 1.723 . S
C517 C516 1.396 . S
C517 C518 1.394 . S
C518 C488 1.723 . S
C518 C514 1.397 . S
C518 C517 1.394 . S
C519 H491 0.982 . S
C519 H495 0.979 . S
C519 H496 0.977 . S
C519 C516 1.453 . S
C520 H492 0.979 . S
C520 H493 0.980 . S
C520 H494 0.983 . S
C520 C516 1.684 . S
H521 C539 0.948 . S
H522 C480 0.948 . S
H523 C498 0.979 . S
H524 C498 0.980 . S
H525 C498 0.983 . S
H526 C497 0.982 . S
H527 C497 0.979 . S
H528 C497 0.977 . S
H529 C499 0.948 . S
H530 C501 0.947 . S
H531 C502 0.948 . S
H532 C508 0.982 . S
H533 C508 0.979 . S
H534 C508 0.977 . S
H535 C509 0.979 . S
H536 C509 0.980 . S
H537 C509 0.983 . S
H538 C482 0.947 . S
C539 C482 1.392 . S
C539 C483 1.419 . S
C539 H521 0.948 . S
C540 C541 1.391 . S
C540 C544 1.391 . S
C540 H582 0.948 . S
C541 C540 1.391 . S
C541 C542 1.391 . S
C542 C541 1.391 . S
C542 H598 0.947 . S
C542 C599 1.392 . S
C543 C544 1.391 . S
C543 C547 1.397 . S
C543 C599 1.419 . S
C544 C540 1.391 . S
C544 C543 1.391 . S
C544 C545 1.399 . S
C545 C544 1.399 . S
C545 C548 1.396 . S
C545 C557 1.453 . S
C545 C558 1.684 . S
H546 C570 0.948 . S
C547 C543 1.397 . S
C547 C548 1.394 . S
C547 C566 1.723 . S
C548 C545 1.396 . S
C548 C547 1.394 . S
C548 C578 1.723 . S
H549 C572 0.947 . S
H550 C573 0.948 . S
H551 C579 0.982 . S
H552 C580 0.979 . S
H553 C580 0.980 . S
H554 C580 0.983 . S
H555 C579 0.979 . S
H556 C579 0.977 . S
C557 C545 1.453 . S
C557 H586 0.982 . S
C557 H587 1.024 . S
C557 H588 0.977 . S
C558 C545 1.684 . S
C558 H583 0.979 . S
C558 H584 0.980 . S
C558 H585 0.983 . S
C559 C560 1.391 . S
C559 C564 1.391 . S
C559 H589 0.948 . S
C560 C559 1.391 . S
C560 C561 1.391 . S
C561 C560 1.391 . S
C561 C562 1.392 . S
C561 H590 0.947 . S
C562 C561 1.392 . S
C562 C563 1.419 . S
C562 H591 0.948 . S
C563 C562 1.419 . S
C563 C564 1.391 . S
C563 C567 1.397 . S
C564 C559 1.391 . S
C564 C563 1.391 . S
C564 C565 1.399 . S
C565 C564 1.399 . S
C565 C566 1.396 . S
C565 C568 1.453 . S
C565 C569 1.684 . S
C566 C547 1.723 . S
C566 C565 1.396 . S
C566 C567 1.394 . S
C567 C563 1.397 . S
C567 C566 1.394 . S
C567 C577 1.723 . S
C568 C565 1.453 . S
C568 H592 0.982 . S
C568 H593 0.979 . S
C568 H594 0.977 . S
C569 C565 1.684 . S
C569 H595 0.979 . S
C569 H596 0.980 . S
C569 H597 0.983 . S
C570 H546 0.948 . S
C570 C571 1.391 . S
C570 C575 1.391 . S
C571 C570 1.391 . S
C571 C572 1.391 . S
C572 H549 0.947 . S
C572 C571 1.391 . S
C572 C573 1.392 . S
C573 H550 0.948 . S
C573 C572 1.392 . S
C573 C574 1.419 . S
C574 C573 1.419 . S
C574 C575 1.391 . S
C574 C578 1.397 . S
C575 C570 1.391 . S
C575 C574 1.391 . S
C575 C576 1.399 . S
C576 C575 1.399 . S
C576 C577 1.396 . S
C576 C579 1.453 . S
C576 C580 1.684 . S
C577 C567 1.723 . S
C577 C576 1.396 . S
C577 C578 1.394 . S
C578 C548 1.723 . S
C578 C574 1.397 . S
C578 C577 1.394 . S
C579 H551 0.982 . S
C579 H555 0.979 . S
C579 H556 0.977 . S
C579 C576 1.453 . S
C580 H552 0.979 . S
C580 H553 0.980 . S
C580 H554 0.983 . S
C580 C576 1.684 . S
H581 C599 0.948 . S
H582 C540 0.948 . S
H583 C558 0.979 . S
H584 C558 0.980 . S
H585 C558 0.983 . S
H586 C557 0.982 . S
H587 C557 1.024 . S
H588 C557 0.977 . S
H589 C559 0.948 . S
H590 C561 0.947 . S
H591 C562 0.948 . S
H592 C568 0.982 . S
H593 C568 0.979 . S
H594 C568 0.977 . S
H595 C569 0.979 . S
H596 C569 0.980 . S
H597 C569 0.983 . S
H598 C542 0.947 . S
C599 C542 1.392 . S
C599 C543 1.419 . S
C599 H581 0.948 . S
C600 C601 1.391 . S
C600 C604 1.391 . S
C600 H642 0.948 . S
C601 C600 1.391 . S
C601 C602 1.391 . S
C602 C601 1.391 . S
C602 H658 0.947 . S
C602 C659 1.392 . S
C603 C604 1.391 . S
C603 C607 1.397 . S
C603 C659 1.419 . S
C604 C600 1.391 . S
C604 C603 1.391 . S
C604 C605 1.399 . S
C605 C604 1.399 . S
C605 C608 1.396 . S
C605 C617 1.453 . S
C605 C618 1.684 . S
H606 C630 0.948 . S
C607 C603 1.397 . S
C607 C608 1.394 . S
C607 C626 1.723 . S
C608 C605 1.396 . S
C608 C607 1.394 . S
C608 C638 1.723 . S
H609 C632 0.924 1_554 S
H610 C633 0.948 . S
H611 C639 0.982 . S
H612 C640 0.979 . S
H613 C640 0.980 . S
H614 C640 0.983 . S
H615 C639 0.979 . S
H616 C639 0.977 . S
C617 C605 1.453 . S
C617 H646 0.982 . S
C617 H647 0.979 . S
C617 H648 0.977 . S
C618 C605 1.684 . S
C618 H643 0.979 . S
C618 H644 0.980 . S
C618 H645 0.983 1_556 S
C619 C620 1.391 . S
C619 C624 1.391 . S
C619 H649 0.948 . S
C620 C619 1.391 . S
C620 C621 1.391 . S
C621 C620 1.391 . S
C621 C622 1.392 . S
C621 H650 0.947 . S
C622 C621 1.392 . S
C622 C623 1.419 . S
C622 H651 0.948 . S
C623 C622 1.419 . S
C623 C624 1.391 . S
C623 C627 1.397 . S
C624 C619 1.391 . S
C624 C623 1.391 . S
C624 C625 1.399 . S
C625 C624 1.399 . S
C625 C626 1.396 . S
C625 C628 1.453 . S
C625 C629 1.684 . S
C626 C607 1.723 . S
C626 C625 1.396 . S
C626 C627 1.394 . S
C627 C623 1.397 . S
C627 C626 1.394 . S
C627 C637 1.723 . S
C628 C625 1.453 . S
C628 H652 0.982 . S
C628 H653 0.979 . S
C628 H654 0.977 . S
C629 C625 1.684 . S
C629 H655 0.979 . S
C629 H656 0.980 . S
C629 H657 0.983 . S
C630 H606 0.948 . S
C630 C631 1.391 . S
C630 C635 1.391 . S
C631 C630 1.391 . S
C631 C632 1.391 . S
C632 H609 0.924 1_556 S
C632 C631 1.391 . S
C632 C633 1.392 . S
C633 H610 0.948 . S
C633 C632 1.392 . S
C633 C634 1.419 . S
C634 C633 1.419 . S
C634 C635 1.391 . S
C634 C638 1.397 . S
C635 C630 1.391 . S
C635 C634 1.391 . S
C635 C636 1.399 . S
C636 C635 1.399 . S
C636 C637 1.396 . S
C636 C639 1.453 . S
C636 C640 1.684 . S
C637 C627 1.723 . S
C637 C636 1.396 . S
C637 C638 1.394 . S
C638 C608 1.723 . S
C638 C634 1.397 . S
C638 C637 1.394 . S
C639 H611 0.982 . S
C639 H615 0.979 . S
C639 H616 0.977 . S
C639 C636 1.453 . S
C640 H612 0.979 . S
C640 H613 0.980 . S
C640 H614 0.983 . S
C640 C636 1.684 . S
H641 C659 0.948 . S
H642 C600 0.948 . S
H643 C618 0.979 . S
H644 C618 0.980 . S
H645 C618 0.983 1_554 S
H646 C617 0.982 . S
H647 C617 0.979 . S
H648 C617 0.977 . S
H649 C619 0.948 . S
H650 C621 0.947 . S
H651 C622 0.948 . S
H652 C628 0.982 . S
H653 C628 0.979 . S
H654 C628 0.977 . S
H655 C629 0.979 . S
H656 C629 0.980 . S
H657 C629 0.983 . S
H658 C602 0.947 . S
C659 C602 1.392 . S
C659 C603 1.419 . S
C659 H641 0.948 . S
C660 C661 1.391 . S
C660 C664 1.391 . S
C660 H702 0.948 . S
C661 C660 1.391 . S
C661 C662 1.391 . S
C662 C661 1.391 . S
C662 H718 0.947 . S
C662 C719 1.392 . S
C663 C664 1.391 . S
C663 C667 1.397 . S
C663 C719 1.419 . S
C664 C660 1.391 . S
C664 C663 1.391 . S
C664 C665 1.399 . S
C665 C664 1.399 . S
C665 C668 1.396 . S
C665 C677 1.453 . S
C665 C678 1.684 . S
H666 C690 0.948 . S
C667 C663 1.397 . S
C667 C668 1.394 . S
C667 C686 1.723 . S
C668 C665 1.396 . S
C668 C667 1.394 . S
C668 C698 1.723 . S
H669 C692 0.947 . S
H670 C693 0.948 . S
H671 C699 0.982 . S
H672 C700 0.979 . S
H673 C700 0.980 . S
H674 C700 0.983 . S
H675 C699 0.979 . S
H676 C699 0.977 . S
C677 C665 1.453 . S
C677 H706 0.982 . S
C677 H707 0.979 . S
C677 H708 0.977 . S
C678 C665 1.684 . S
C678 H703 0.979 . S
C678 H704 0.980 . S
C678 H705 0.983 . S
C679 C680 1.391 . S
C679 C684 1.391 . S
C679 H709 0.948 . S
C680 C679 1.391 . S
C680 C681 1.391 . S
C681 C680 1.391 . S
C681 C682 1.392 . S
C681 H710 0.947 . S
C682 C681 1.392 . S
C682 C683 1.419 . S
C682 H711 0.948 . S
C683 C682 1.419 . S
C683 C684 1.391 . S
C683 C687 1.397 . S
C684 C679 1.391 . S
C684 C683 1.391 . S
C684 C685 1.399 . S
C685 C684 1.399 . S
C685 C686 1.396 . S
C685 C688 1.453 . S
C685 C689 1.684 . S
C686 C667 1.723 . S
C686 C685 1.396 . S
C686 C687 1.394 . S
C687 C683 1.397 . S
C687 C686 1.394 . S
C687 C697 1.723 . S
C688 C685 1.453 . S
C688 H712 0.982 . S
C688 H713 0.979 . S
C688 H714 0.977 . S
C689 C685 1.684 . S
C689 H715 0.979 . S
C689 H716 0.980 . S
C689 H717 0.983 . S
C690 H666 0.948 . S
C690 C691 1.391 . S
C690 C695 1.391 . S
C691 C690 1.391 . S
C691 C692 1.391 . S
C692 H669 0.947 . S
C692 C691 1.391 . S
C692 C693 1.392 . S
C693 H670 0.948 . S
C693 C692 1.392 . S
C693 C694 1.419 . S
C694 C693 1.419 . S
C694 C695 1.391 . S
C694 C698 1.397 . S
C695 C690 1.391 . S
C695 C694 1.391 . S
C695 C696 1.399 . S
C696 C695 1.399 . S
C696 C697 1.396 . S
C696 C699 1.453 . S
C696 C700 1.684 . S
C697 C687 1.723 . S
C697 C696 1.396 . S
C697 C698 1.394 . S
C698 C668 1.723 . S
C698 C694 1.397 . S
C698 C697 1.394 . S
C699 H671 0.982 . S
C699 H675 0.979 . S
C699 H676 0.977 . S
C699 C696 1.453 . S
C700 H672 0.979 . S
C700 H673 0.980 . S
C700 H674 0.983 . S
C700 C696 1.684 . S
H701 C719 0.948 . S
H702 C660 0.948 . S
H703 C678 0.979 . S
H704 C678 0.980 . S
H705 C678 0.983 . S
H706 C677 0.982 . S
H707 C677 0.979 . S
H708 C677 0.977 . S
H709 C679 0.948 . S
H710 C681 0.947 . S
H711 C682 0.948 . S
H712 C688 0.982 . S
H713 C688 0.979 . S
H714 C688 0.977 . S
H715 C689 0.979 . S
H716 C689 0.980 . S
H717 C689 0.983 . S
H718 C662 0.947 . S
C719 C662 1.392 . S
C719 C663 1.419 . S
C719 H701 0.948 . S
C720 C721 1.391 . S
C720 C724 1.391 . S
C720 H762 0.948 . S
C721 C720 1.391 . S
C721 C722 1.391 . S
C722 C721 1.391 . S
C722 H778 0.947 . S
C722 C779 1.392 . S
C723 C724 1.391 . S
C723 C727 1.397 . S
C723 C779 1.419 . S
C724 C720 1.391 . S
C724 C723 1.391 . S
C724 C725 1.399 . S
C725 C724 1.399 . S
C725 C728 1.396 . S
C725 C737 1.453 . S
C725 C738 1.684 . S
H726 C750 0.948 . S
C727 C723 1.397 . S
C727 C728 1.394 . S
C727 C746 1.723 . S
C728 C725 1.396 . S
C728 C727 1.394 . S
C728 C758 1.723 . S
H729 C752 0.947 . S
H730 C753 0.948 . S
H731 C759 0.982 . S
H732 C760 0.979 . S
H733 C760 0.980 . S
H734 C760 0.983 . S
H735 C759 0.979 . S
H736 C759 0.977 . S
C737 C725 1.453 . S
C737 H766 0.982 . S
C737 H767 0.979 . S
C737 H768 0.977 . S
C738 C725 1.684 . S
C738 H763 0.979 . S
C738 H764 0.980 . S
C738 H765 0.983 . S
C739 C740 1.391 . S
C739 C744 1.391 . S
C739 H769 0.948 . S
C740 C739 1.391 . S
C740 C741 1.391 . S
C741 C740 1.391 . S
C741 C742 1.392 . S
C741 H770 0.947 . S
C742 C741 1.392 . S
C742 C743 1.419 . S
C742 H771 0.948 . S
C743 C742 1.419 . S
C743 C744 1.391 . S
C743 C747 1.397 . S
C744 C739 1.391 . S
C744 C743 1.391 . S
C744 C745 1.399 . S
C745 C744 1.399 . S
C745 C746 1.396 . S
C745 C748 1.453 . S
C745 C749 1.684 . S
C746 C727 1.723 . S
C746 C745 1.396 . S
C746 C747 1.394 . S
C747 C743 1.397 . S
C747 C746 1.394 . S
C747 C757 1.723 . S
C748 C745 1.453 . S
C748 H772 0.982 . S
C748 H773 0.979 . S
C748 H774 0.977 . S
C749 C745 1.684 . S
C749 H775 0.979 . S
C749 H776 0.980 . S
C749 H777 0.983 . S
C750 H726 0.948 . S
C750 C751 1.391 . S
C750 C755 1.391 . S
C751 C750 1.391 . S
C751 C752 1.391 . S
C752 H729 0.947 . S
C752 C751 1.391 . S
C752 C753 1.392 . S
C753 H730 0.948 . S
C753 C752 1.392 . S
C753 C754 1.419 . S
C754 C753 1.419 . S
C754 C755 1.391 . S
C754 C758 1.397 . S
C755 C750 1.391 . S
C755 C754 1.391 . S
C755 C756 1.399 . S
C756 C755 1.399 . S
C756 C757 1.396 . S
C756 C759 1.453 . S
C756 C760 1.684 . S
C757 C747 1.723 . S
C757 C756 1.396 . S
C757 C758 1.394 . S
C758 C728 1.723 . S
C758 C754 1.397 . S
C758 C757 1.394 . S
C759 H731 0.982 . S
C759 H735 0.979 . S
C759 H736 0.977 . S
C759 C756 1.453 . S
C760 H732 0.979 . S
C760 H733 0.980 . S
C760 H734 0.983 . S
C760 C756 1.684 . S
H761 C779 0.948 . S
H762 C720 0.948 . S
H763 C738 0.979 . S
H764 C738 0.980 . S
H765 C738 0.983 . S
H766 C737 0.982 . S
H767 C737 0.979 . S
H768 C737 0.977 . S
H769 C739 0.948 . S
H770 C741 0.947 . S
H771 C742 0.948 . S
H772 C748 0.982 . S
H773 C748 0.979 . S
H774 C748 0.977 . S
H775 C749 0.979 . S
H776 C749 0.980 . S
H777 C749 0.983 . S
H778 C722 0.947 . S
C779 C722 1.392 . S
C779 C723 1.419 . S
C779 H761 0.948 . S
C780 C781 1.391 . S
C780 C784 1.391 . S
C780 H822 0.948 . S
C781 C780 1.391 . S
C781 C782 1.391 . S
C782 C781 1.391 . S
C782 H838 0.947 . S
C782 C839 1.392 . S
C783 C784 1.391 . S
C783 C787 1.397 . S
C783 C839 1.419 . S
C784 C780 1.391 . S
C784 C783 1.391 . S
C784 C785 1.399 . S
C785 C784 1.399 . S
C785 C788 1.396 . S
C785 C797 1.453 . S
C785 C798 1.684 . S
H786 C810 0.948 . S
C787 C783 1.397 . S
C787 C788 1.394 . S
C787 C806 1.723 . S
C788 C785 1.396 . S
C788 C787 1.394 . S
C788 C818 1.723 . S
H789 C812 0.947 . S
H790 C813 0.948 . S
H791 C819 0.982 . S
H792 C820 0.979 . S
H793 C820 0.980 . S
H794 C820 0.983 . S
H795 C819 0.979 . S
H796 C819 0.977 . S
C797 C785 1.453 . S
C797 H826 0.982 . S
C797 H827 0.979 . S
C797 H828 0.977 . S
C798 C785 1.684 . S
C798 H823 0.979 . S
C798 H824 0.980 . S
C798 H825 0.956 1_554 S
C799 C800 1.391 . S
C799 C804 1.391 . S
C799 H829 0.948 . S
C800 C799 1.391 . S
C800 C801 1.391 . S
C801 C800 1.391 . S
C801 C802 1.392 . S
C801 H830 0.947 . S
C802 C801 1.392 . S
C802 C803 1.419 . S
C802 H831 0.948 . S
C803 C802 1.419 . S
C803 C804 1.391 . S
C803 C807 1.397 . S
C804 C799 1.391 . S
C804 C803 1.391 . S
C804 C805 1.399 . S
C805 C804 1.399 . S
C805 C806 1.396 . S
C805 C808 1.453 . S
C805 C809 1.684 . S
C806 C787 1.723 . S
C806 C805 1.396 . S
C806 C807 1.394 . S
C807 C803 1.397 . S
C807 C806 1.394 . S
C807 C817 1.723 . S
C808 C805 1.453 . S
C808 H832 0.982 . S
C808 H833 0.979 . S
C808 H834 0.977 . S
C809 C805 1.684 . S
C809 H835 0.979 . S
C809 H836 0.980 . S
C809 H837 0.983 . S
C810 H786 0.948 . S
C810 C811 1.391 . S
C810 C815 1.391 . S
C811 C810 1.391 . S
C811 C812 1.391 . S
C812 H789 0.947 . S
C812 C811 1.391 . S
C812 C813 1.392 . S
C813 H790 0.948 . S
C813 C812 1.392 . S
C813 C814 1.419 . S
C814 C813 1.419 . S
C814 C815 1.391 . S
C814 C818 1.397 . S
C815 C810 1.391 . S
C815 C814 1.391 . S
C815 C816 1.399 . S
C816 C815 1.399 . S
C816 C817 1.396 . S
C816 C819 1.453 . S
C816 C820 1.684 . S
C817 C807 1.723 . S
C817 C816 1.396 . S
C817 C818 1.394 . S
C818 C788 1.723 . S
C818 C814 1.397 . S
C818 C817 1.394 . S
C819 H791 0.982 . S
C819 H795 0.979 . S
C819 H796 0.977 . S
C819 C816 1.453 . S
C820 H792 0.979 . S
C820 H793 0.980 . S
C820 H794 0.983 . S
C820 C816 1.684 . S
H821 C839 0.948 . S
H822 C780 0.948 . S
H823 C798 0.979 . S
H824 C798 0.980 . S
H825 C798 0.956 1_556 S
H826 C797 0.982 . S
H827 C797 0.979 . S
H828 C797 0.977 . S
H829 C799 0.948 . S
H830 C801 0.947 . S
H831 C802 0.948 . S
H832 C808 0.982 . S
H833 C808 0.979 . S
H834 C808 0.977 . S
H835 C809 0.979 . S
H836 C809 0.980 . S
H837 C809 0.983 . S
H838 C782 0.947 . S
C839 C782 1.392 . S
C839 C783 1.419 . S
C839 H821 0.948 . S
C840 C841 1.391 . S
C840 C844 1.391 . S
C840 H882 0.948 . S
C841 C840 1.391 . S
C841 C842 1.391 . S
C842 C841 1.391 . S
C842 H898 0.947 . S
C842 C899 1.392 . S
C843 C844 1.391 . S
C843 C847 1.397 . S
C843 C899 1.419 . S
C844 C840 1.391 . S
C844 C843 1.391 . S
C844 C845 1.399 . S
C845 C844 1.399 . S
C845 C848 1.396 . S
C845 C857 1.453 . S
C845 C858 1.684 . S
H846 C870 0.948 . S
C847 C843 1.397 . S
C847 C848 1.394 . S
C847 C866 1.723 . S
C848 C845 1.396 . S
C848 C847 1.394 . S
C848 C878 1.723 . S
H849 C872 0.947 . S
H850 C873 0.948 . S
H851 C879 0.982 . S
H852 C880 0.979 . S
H853 C880 0.980 . S
H854 C880 0.983 . S
H855 C879 0.979 . S
H856 C879 0.977 . S
C857 C845 1.453 . S
C857 H886 0.982 . S
C857 H887 0.979 . S
C857 H888 0.977 . S
C858 C845 1.684 . S
C858 H883 0.979 . S
C858 H884 0.980 . S
C858 H885 0.983 . S
C859 C860 1.391 . S
C859 C864 1.391 . S
C859 H889 0.948 . S
C860 C859 1.391 . S
C860 C861 1.391 . S
C861 C860 1.391 . S
C861 C862 1.392 . S
C861 H890 0.947 . S
C862 C861 1.392 . S
C862 C863 1.419 . S
C862 H891 0.948 . S
C863 C862 1.419 . S
C863 C864 1.391 . S
C863 C867 1.397 . S
C864 C859 1.391 . S
C864 C863 1.391 . S
C864 C865 1.399 . S
C865 C864 1.399 . S
C865 C866 1.396 . S
C865 C868 1.453 . S
C865 C869 1.684 . S
C866 C847 1.723 . S
C866 C865 1.396 . S
C866 C867 1.394 . S
C867 C863 1.397 . S
C867 C866 1.394 . S
C867 C877 1.723 . S
C868 C865 1.453 . S
C868 H892 0.982 . S
C868 H893 0.979 . S
C868 H894 0.977 . S
C869 C865 1.684 . S
C869 H895 0.979 . S
C869 H896 0.980 . S
C869 H897 0.983 . S
C870 H846 0.948 . S
C870 C871 1.391 . S
C870 C875 1.391 . S
C871 C870 1.391 . S
C871 C872 1.391 . S
C872 H849 0.947 . S
C872 C871 1.391 . S
C872 C873 1.392 . S
C873 H850 0.948 . S
C873 C872 1.392 . S
C873 C874 1.419 . S
C874 C873 1.419 . S
C874 C875 1.391 . S
C874 C878 1.397 . S
C875 C870 1.391 . S
C875 C874 1.391 . S
C875 C876 1.399 . S
C876 C875 1.399 . S
C876 C877 1.396 . S
C876 C879 1.453 . S
C876 C880 1.684 . S
C877 C867 1.723 . S
C877 C876 1.396 . S
C877 C878 1.394 . S
C878 C848 1.723 . S
C878 C874 1.397 . S
C878 C877 1.394 . S
C879 H851 0.982 . S
C879 H855 0.979 . S
C879 H856 0.977 . S
C879 C876 1.453 . S
C880 H852 0.979 . S
C880 H853 0.980 . S
C880 H854 0.983 . S
C880 C876 1.684 . S
H881 C899 0.948 . S
H882 C840 0.948 . S
H883 C858 0.979 . S
H884 C858 0.980 . S
H885 C858 0.983 . S
H886 C857 0.982 . S
H887 C857 0.979 . S
H888 C857 0.977 . S
H889 C859 0.948 . S
H890 C861 0.947 . S
H891 C862 0.948 . S
H892 C868 0.982 . S
H893 C868 0.979 . S
H894 C868 0.977 . S
H895 C869 0.979 . S
H896 C869 0.980 . S
H897 C869 0.983 . S
H898 C842 0.947 . S
C899 C842 1.392 . S
C899 C843 1.419 . S
C899 H881 0.948 . S
C900 C901 1.391 . S
C900 C904 1.391 . S
C900 H942 0.948 . S
C901 C900 1.391 . S
C901 C902 1.391 . S
C902 C901 1.391 . S
C902 H958 0.947 . S
C902 C959 1.392 . S
C903 C904 1.391 . S
C903 C907 1.397 . S
C903 C959 1.419 . S
C904 C900 1.391 . S
C904 C903 1.391 . S
C904 C905 1.399 . S
C905 C904 1.399 . S
C905 C908 1.396 . S
C905 C917 1.453 . S
C905 C918 1.684 . S
H906 C930 0.948 . S
C907 C903 1.397 . S
C907 C908 1.394 . S
C907 C926 1.723 . S
C908 C905 1.396 . S
C908 C907 1.394 . S
C908 C938 1.723 . S
H909 C932 0.947 . S
H910 C933 0.948 . S
H911 C939 0.982 . S
H912 C940 0.979 . S
H913 C940 0.980 . S
H914 C940 0.983 . S
H915 C939 0.979 . S
H916 C939 0.977 . S
C917 C905 1.453 . S
C917 H946 0.982 . S
C917 H947 0.979 . S
C917 H948 0.977 . S
C918 C905 1.684 . S
C918 H943 0.979 . S
C918 H944 0.980 . S
C918 H945 0.983 . S
C919 C920 1.391 . S
C919 C924 1.391 . S
C919 H949 0.948 . S
C920 C919 1.391 . S
C920 C921 1.391 . S
C921 C920 1.391 . S
C921 C922 1.392 . S
C921 H950 0.947 . S
C922 C921 1.392 . S
C922 C923 1.419 . S
C922 H951 0.948 . S
C923 C922 1.419 . S
C923 C924 1.391 . S
C923 C927 1.397 . S
C924 C919 1.391 . S
C924 C923 1.391 . S
C924 C925 1.399 . S
C925 C924 1.399 . S
C925 C926 1.396 . S
C925 C928 1.453 . S
C925 C929 1.684 . S
C926 C907 1.723 . S
C926 C925 1.396 . S
C926 C927 1.394 . S
C927 C923 1.397 . S
C927 C926 1.394 . S
C927 C937 1.723 . S
C928 C925 1.453 . S
C928 H952 0.982 . S
C928 H953 0.979 . S
C928 H954 0.977 . S
C929 C925 1.684 . S
C929 H955 0.979 . S
C929 H956 0.980 . S
C929 H957 0.983 . S
C930 H906 0.948 . S
C930 C931 1.391 . S
C930 C935 1.391 . S
C931 C930 1.391 . S
C931 C932 1.391 . S
C932 H909 0.947 . S
C932 C931 1.391 . S
C932 C933 1.392 . S
C933 H910 0.948 . S
C933 C932 1.392 . S
C933 C934 1.419 . S
C934 C933 1.419 . S
C934 C935 1.391 . S
C934 C938 1.397 . S
C935 C930 1.391 . S
C935 C934 1.391 . S
C935 C936 1.399 . S
C936 C935 1.399 . S
C936 C937 1.396 . S
C936 C939 1.453 . S
C936 C940 1.684 . S
C937 C927 1.723 . S
C937 C936 1.396 . S
C937 C938 1.394 . S
C938 C908 1.723 . S
C938 C934 1.397 . S
C938 C937 1.394 . S
C939 H911 0.982 . S
C939 H915 0.979 . S
C939 H916 0.977 . S
C939 C936 1.453 . S
C940 H912 0.979 . S
C940 H913 0.980 . S
C940 H914 0.983 . S
C940 C936 1.684 . S
H941 C959 0.948 . S
H942 C900 0.948 . S
H943 C918 0.979 . S
H944 C918 0.980 . S
H945 C918 0.983 . S
H946 C917 0.982 . S
H947 C917 0.979 . S
H948 C917 0.977 . S
H949 C919 0.948 . S
H950 C921 0.947 . S
H951 C922 0.948 . S
H952 C928 0.982 . S
H953 C928 0.979 . S
H954 C928 0.977 . S
H955 C929 0.979 . S
H956 C929 0.980 . S
H957 C929 0.983 . S
H958 C902 0.947 . S
C959 C902 1.392 . S
C959 C903 1.419 . S
C959 H941 0.948 . S
C960 C961 1.391 . S
C960 C964 1.391 . S
C960 H1002 0.948 . S
C961 C960 1.391 . S
C961 C962 1.391 . S
C962 C961 1.391 . S
C962 H1018 0.947 . S
C962 C1019 1.392 . S
C963 C964 1.391 . S
C963 C967 1.397 . S
C963 C1019 1.419 . S
C964 C960 1.391 . S
C964 C963 1.391 . S
C964 C965 1.399 . S
C965 C964 1.399 . S
C965 C968 1.396 . S
C965 C977 1.453 . S
C965 C978 1.684 . S
H966 C990 0.948 . S
C967 C963 1.397 . S
C967 C968 1.394 . S
C967 C986 1.723 . S
C968 C965 1.396 . S
C968 C967 1.394 . S
C968 C998 1.723 . S
H969 C992 0.947 . S
H970 C993 0.948 . S
H971 C999 0.982 . S
H972 C1000 0.979 . S
H973 C1000 0.980 . S
H974 C1000 0.983 . S
H975 C999 0.979 . S
H976 C999 0.977 . S
C977 C965 1.453 . S
C977 H1006 0.982 . S
C977 H1007 0.979 . S
C977 H1008 0.977 . S
C978 C965 1.684 . S
C978 H1003 0.979 . S
C978 H1004 0.980 . S
C978 H1005 0.983 . S
C979 C980 1.391 . S
C979 C984 1.391 . S
C979 H1009 0.948 . S
C980 C979 1.391 . S
C980 C981 1.391 . S
C981 C980 1.391 . S
C981 C982 1.392 . S
C981 H1010 0.947 . S
C982 C981 1.392 . S
C982 C983 1.419 . S
C982 H1011 0.948 . S
C983 C982 1.419 . S
C983 C984 1.391 . S
C983 C987 1.397 . S
C984 C979 1.391 . S
C984 C983 1.391 . S
C984 C985 1.399 . S
C985 C984 1.399 . S
C985 C986 1.396 . S
C985 C988 1.453 . S
C985 C989 1.684 . S
C986 C967 1.723 . S
C986 C985 1.396 . S
C986 C987 1.394 . S
C987 C983 1.397 . S
C987 C986 1.394 . S
C987 C997 1.723 . S
C988 C985 1.453 . S
C988 H1012 0.982 . S
C988 H1013 0.979 . S
C988 H1014 0.977 . S
C989 C985 1.684 . S
C989 H1015 0.979 . S
C989 H1016 0.980 . S
C989 H1017 0.983 . S
C990 H966 0.948 . S
C990 C991 1.391 . S
C990 C995 1.391 . S
C991 C990 1.391 . S
C991 C992 1.391 . S
C992 H969 0.947 . S
C992 C991 1.391 . S
C992 C993 1.392 . S
C993 H970 0.948 . S
C993 C992 1.392 . S
C993 C994 1.419 . S
C994 C993 1.419 . S
C994 C995 1.391 . S
C994 C998 1.397 . S
C995 C990 1.391 . S
C995 C994 1.391 . S
C995 C996 1.399 . S
C996 C995 1.399 . S
C996 C997 1.396 . S
C996 C999 1.453 . S
C996 C1000 1.684 . S
C997 C987 1.723 . S
C997 C996 1.396 . S
C997 C998 1.394 . S
C998 C968 1.723 . S
C998 C994 1.397 . S
C998 C997 1.394 . S
C999 H971 0.982 . S
C999 H975 0.979 . S
C999 H976 0.977 . S
C999 C996 1.453 . S
C1000 H972 0.979 . S
C1000 H973 0.980 . S
C1000 H974 0.983 . S
C1000 C996 1.684 . S
H1001 C1019 0.948 . S
H1002 C960 0.948 . S
H1003 C978 0.979 . S
H1004 C978 0.980 . S
H1005 C978 0.983 . S
H1006 C977 0.982 . S
H1007 C977 0.979 . S
H1008 C977 0.977 . S
H1009 C979 0.948 . S
H1010 C981 0.947 . S
H1011 C982 0.948 . S
H1012 C988 0.982 . S
H1013 C988 0.979 . S
H1014 C988 0.977 . S
H1015 C989 0.979 . S
H1016 C989 0.980 . S
H1017 C989 0.983 . S
H1018 C962 0.947 . S
C1019 C962 1.392 . S
C1019 C963 1.419 . S
C1019 H1001 0.948 . S
C1020 C1021 1.391 . S
C1020 C1024 1.391 . S
C1020 H1062 0.948 . S
C1021 C1020 1.391 . S
C1021 C1022 1.391 . S
C1022 C1021 1.391 . S
C1022 H1078 0.947 . S
C1022 C1079 1.392 . S
C1023 C1024 1.391 . S
C1023 C1027 1.397 . S
C1023 C1079 1.419 . S
C1024 C1020 1.391 . S
C1024 C1023 1.391 . S
C1024 C1025 1.399 . S
C1025 C1024 1.399 . S
C1025 C1028 1.396 . S
C1025 C1037 1.453 . S
C1025 C1038 1.684 . S
H1026 C1050 0.948 . S
C1027 C1023 1.397 . S
C1027 C1028 1.394 . S
C1027 C1046 1.723 . S
C1028 C1025 1.396 . S
C1028 C1027 1.394 . S
C1028 C1058 1.723 . S
H1029 C1052 0.947 . S
H1030 C1053 0.948 . S
H1031 C1059 0.982 . S
H1032 C1060 0.979 . S
H1033 C1060 0.980 . S
H1034 C1060 0.983 . S
H1035 C1059 0.979 . S
H1036 C1059 0.977 . S
C1037 C1025 1.453 . S
C1037 H1066 0.982 . S
C1037 H1067 0.979 . S
C1037 H1068 0.977 . S
C1038 C1025 1.684 . S
C1038 H1063 0.979 . S
C1038 H1064 0.980 . S
C1038 H1065 0.983 . S
C1039 C1040 1.391 . S
C1039 C1044 1.391 . S
C1039 H1069 0.948 . S
C1040 C1039 1.391 . S
C1040 C1041 1.391 . S
C1041 C1040 1.391 . S
C1041 C1042 1.392 . S
C1041 H1070 0.947 . S
C1042 C1041 1.392 . S
C1042 C1043 1.419 . S
C1042 H1071 0.948 . S
C1043 C1042 1.419 . S
C1043 C1044 1.391 . S
C1043 C1047 1.397 . S
C1044 C1039 1.391 . S
C1044 C1043 1.391 . S
C1044 C1045 1.399 . S
C1045 C1044 1.399 . S
C1045 C1046 1.396 . S
C1045 C1048 1.453 . S
C1045 C1049 1.684 . S
C1046 C1027 1.723 . S
C1046 C1045 1.396 . S
C1046 C1047 1.394 . S
C1047 C1043 1.397 . S
C1047 C1046 1.394 . S
C1047 C1057 1.723 . S
C1048 C1045 1.453 . S
C1048 H1072 0.982 . S
C1048 H1073 0.979 . S
C1048 H1074 0.977 . S
C1049 C1045 1.684 . S
C1049 H1075 0.979 . S
C1049 H1076 0.980 . S
C1049 H1077 0.983 . S
C1050 H1026 0.948 . S
C1050 C1051 1.391 . S
C1050 C1055 1.391 . S
C1051 C1050 1.391 . S
C1051 C1052 1.391 . S
C1052 H1029 0.947 . S
C1052 C1051 1.391 . S
C1052 C1053 1.392 . S
C1053 H1030 0.948 . S
C1053 C1052 1.392 . S
C1053 C1054 1.419 . S
C1054 C1053 1.419 . S
C1054 C1055 1.391 . S
C1054 C1058 1.397 . S
C1055 C1050 1.391 . S
C1055 C1054 1.391 . S
C1055 C1056 1.399 . S
C1056 C1055 1.399 . S
C1056 C1057 1.396 . S
C1056 C1059 1.453 . S
C1056 C1060 1.684 . S
C1057 C1047 1.723 . S
C1057 C1056 1.396 . S
C1057 C1058 1.394 . S
C1058 C1028 1.723 . S
C1058 C1054 1.397 . S
C1058 C1057 1.394 . S
C1059 H1031 0.982 . S
C1059 H1035 0.979 . S
C1059 H1036 0.977 . S
C1059 C1056 1.453 . S
C1060 H1032 0.979 . S
C1060 H1033 0.980 . S
C1060 H1034 0.983 . S
C1060 C1056 1.684 . S
H1061 C1079 0.948 . S
H1062 C1020 0.948 . S
H1063 C1038 0.979 . S
H1064 C1038 0.980 . S
H1065 C1038 0.983 . S
H1066 C1037 0.982 . S
H1067 C1037 0.979 . S
H1068 C1037 0.977 . S
H1069 C1039 0.948 . S
H1070 C1041 0.947 . S
H1071 C1042 0.948 . S
H1072 C1048 0.982 . S
H1073 C1048 0.979 . S
H1074 C1048 0.977 . S
H1075 C1049 0.979 . S
H1076 C1049 0.980 . S
H1077 C1049 0.983 . S
H1078 C1022 0.947 . S
C1079 C1022 1.392 . S
C1079 C1023 1.419 . S
C1079 H1061 0.948 . S
O1080 Mn1081 2.163 1_565 S
O1080 C1094 1.244 . S
Mn1081 O1080 2.163 1_545 S
Mn1081 O1084 2.160 . S
Mn1081 O1085 2.221 1_545 S
Mn1081 O1087 2.163 1_554 S
Mn1081 O1089 2.160 . S
Mn1081 O1099 2.221 . S
O1082 Mn1083 2.087 1_565 S
O1082 C1094 1.256 . S
Mn1083 O1082 2.087 1_545 S
Mn1083 O1090 2.089 . S
Mn1083 O1099 2.290 . S
Mn1083 O1100 2.251 . S
O1084 Mn1081 2.160 . S
O1084 C1095 1.239 1_554 S
O1085 Mn1081 2.221 1_565 S
O1085 Mn1086 2.290 1_554 S
O1085 C1096 1.278 1_554 S
Mn1086 O1085 2.290 1_556 S
Mn1086 O1088 2.089 1_565 S
Mn1086 O1091 2.251 . S
Mn1086 O1092 2.087 . S
O1087 Mn1081 2.163 1_556 S
O1087 C1097 1.244 . S
O1088 Mn1086 2.089 1_545 S
O1088 C1095 1.256 . S
O1089 Mn1081 2.160 . S
O1089 C1098 1.239 . S
O1090 Mn1083 2.089 . S
O1090 C1098 1.256 . S
O1091 Mn1086 2.251 . S
O1091 C1096 1.238 . S
O1092 Mn1086 2.087 . S
O1092 C1097 1.256 1_565 S
C1093 O1099 1.268 1_556 S
C1093 O1100 1.236 1_556 S
C1094 O1080 1.244 . S
C1094 O1082 1.256 . S
C1095 O1084 1.239 1_556 S
C1095 O1088 1.256 . S
C1096 O1085 1.278 1_556 S
C1096 O1091 1.238 . S
C1097 O1087 1.244 . S
C1097 O1092 1.256 1_545 S
C1098 O1089 1.239 . S
C1098 O1090 1.256 . S
O1099 Mn1081 2.221 . S
O1099 Mn1083 2.290 . S
O1099 C1093 1.268 1_554 S
O1100 Mn1083 2.251 . S
O1100 C1093 1.236 1_554 S
O1101 Mn1102 2.163 1_455 S
O1101 C1115 1.244 . S
Mn1102 O1101 2.163 1_655 S
Mn1102 O1105 2.160 . S
Mn1102 O1106 2.221 1_655 S
Mn1102 O1108 2.163 1_554 S
Mn1102 O1110 2.160 . S
Mn1102 O1120 2.221 . S
O1103 Mn1104 2.087 1_455 S
O1103 C1115 1.256 . S
Mn1104 O1103 2.087 1_655 S
Mn1104 O1111 2.095 1_655 S
Mn1104 O1120 2.290 . S
Mn1104 O1121 2.251 . S
O1105 Mn1102 2.160 . S
O1105 C1116 1.239 1_554 S
O1106 Mn1102 2.221 1_455 S
O1106 Mn1107 2.290 1_554 S
O1106 C1117 1.279 . S
Mn1107 O1106 2.290 1_556 S
Mn1107 O1109 2.089 1_455 S
Mn1107 O1112 2.251 . S
Mn1107 O1113 2.087 . S
O1108 Mn1102 2.163 1_556 S
O1108 C1118 1.247 1_655 S
O1109 Mn1107 2.089 1_655 S
O1109 C1116 1.256 . S
O1110 Mn1102 2.160 . S
O1110 C1119 1.235 1_655 S
O1111 Mn1104 2.095 1_455 S
O1111 C1119 1.231 . S
O1112 Mn1107 2.251 . S
O1112 C1117 1.233 1_556 S
O1113 Mn1107 2.087 . S
O1113 C1118 1.255 . S
C1114 O1120 1.260 1_556 S
C1114 O1121 1.232 1_556 S
C1115 O1101 1.244 . S
C1115 O1103 1.256 . S
C1116 O1105 1.239 1_556 S
C1116 O1109 1.256 . S
C1117 O1106 1.279 . S
C1117 O1112 1.233 1_554 S
C1118 O1108 1.247 1_455 S
C1118 O1113 1.255 . S
C1119 O1110 1.235 1_455 S
C1119 O1111 1.231 . S
O1120 Mn1102 2.221 . S
O1120 Mn1104 2.290 . S
O1120 C1114 1.260 1_554 S
O1121 Mn1104 2.251 . S
O1121 C1114 1.232 1_554 S
O1122 Mn1123 2.163 . S
O1122 C1136 1.244 . S
Mn1123 O1122 2.163 . S
Mn1123 O1126 2.159 . S
Mn1123 O1127 2.218 1_556 S
Mn1123 O1129 2.163 1_556 S
Mn1123 O1131 2.160 . S
Mn1123 O1141 2.221 . S
O1124 Mn1125 2.087 . S
O1124 C1136 1.256 . S
Mn1125 O1124 2.087 . S
Mn1125 O1132 2.089 . S
Mn1125 O1141 2.290 . S
Mn1125 O1142 2.256 1_556 S
O1126 Mn1123 2.159 . S
O1126 C1137 1.242 1_556 S
O1127 Mn1123 2.218 1_554 S
O1127 Mn1128 2.329 . S
O1127 C1138 1.287 . S
Mn1128 O1127 2.329 . S
Mn1128 O1130 2.089 . S
Mn1128 O1133 2.251 . S
Mn1128 O1134 2.087 . S
O1129 Mn1123 2.163 1_554 S
O1129 C1139 1.244 . S
O1130 Mn1128 2.089 . S
O1130 C1137 1.256 . S
O1131 Mn1123 2.160 . S
O1131 C1140 1.239 . S
O1132 Mn1125 2.089 . S
O1132 C1140 1.256 . S
O1133 Mn1128 2.251 . S
O1133 C1138 1.241 . S
O1134 Mn1128 2.087 . S
O1134 C1139 1.256 . S
C1135 O1141 1.278 1_554 S
C1135 O1142 1.239 . S
C1136 O1122 1.244 . S
C1136 O1124 1.256 . S
C1137 O1126 1.242 1_554 S
C1137 O1130 1.256 . S
C1138 O1127 1.287 . S
C1138 O1133 1.241 . S
C1139 O1129 1.244 . S
C1139 O1134 1.256 . S
C1140 O1131 1.239 . S
C1140 O1132 1.256 . S
O1141 Mn1123 2.221 . S
O1141 Mn1125 2.290 . S
O1141 C1135 1.278 1_556 S
O1142 Mn1125 2.256 1_554 S
O1142 C1135 1.239 . S
O1143 Mn1144 2.163 . S
O1143 C1157 1.244 . S
Mn1144 O1143 2.163 . S
Mn1144 O1147 2.160 . S
Mn1144 O1148 2.221 . S
Mn1144 O1150 2.163 . S
Mn1144 O1152 2.160 . S
Mn1144 O1162 2.221 . S
O1145 Mn1146 2.087 . S
O1145 C1157 1.256 . S
Mn1146 O1145 2.087 . S
Mn1146 O1153 2.089 . S
Mn1146 O1162 2.290 . S
Mn1146 O1163 2.251 . S
O1147 Mn1144 2.160 . S
O1147 C1158 1.239 . S
O1148 Mn1144 2.221 . S
O1148 Mn1149 2.290 . S
O1148 C1159 1.278 . S
Mn1149 O1148 2.290 . S
Mn1149 O1151 2.089 . S
Mn1149 O1154 2.251 . S
Mn1149 O1155 2.087 . S
O1150 Mn1144 2.163 . S
O1150 C1160 1.244 . S
O1151 Mn1149 2.089 . S
O1151 C1158 1.256 . S
O1152 Mn1144 2.160 . S
O1152 C1161 1.239 . S
O1153 Mn1146 2.089 . S
O1153 C1161 1.256 . S
O1154 Mn1149 2.251 . S
O1154 C1159 1.241 . S
O1155 Mn1149 2.087 . S
O1155 C1160 1.256 . S
C1156 O1162 1.278 . S
C1156 O1163 1.241 . S
C1157 O1143 1.244 . S
C1157 O1145 1.256 . S
C1158 O1147 1.239 . S
C1158 O1151 1.256 . S
C1159 O1148 1.278 . S
C1159 O1154 1.241 . S
C1160 O1150 1.244 . S
C1160 O1155 1.256 . S
C1161 O1152 1.239 . S
C1161 O1153 1.256 . S
O1162 Mn1144 2.221 . S
O1162 Mn1146 2.290 . S
O1162 C1156 1.278 . S
O1163 Mn1146 2.251 . S
O1163 C1156 1.241 . S
O1164 Mn1165 2.163 . S
O1164 C1178 1.244 . S
Mn1165 O1164 2.163 . S
Mn1165 O1168 2.160 . S
Mn1165 O1169 2.221 . S
Mn1165 O1171 2.163 . S
Mn1165 O1173 2.160 . S
Mn1165 O1183 2.221 . S
O1166 Mn1167 2.087 . S
O1166 C1178 1.256 . S
Mn1167 O1166 2.087 . S
Mn1167 O1174 2.089 . S
Mn1167 O1183 2.290 . S
Mn1167 O1184 2.251 . S
O1168 Mn1165 2.160 . S
O1168 C1179 1.239 . S
O1169 Mn1165 2.221 . S
O1169 Mn1170 2.290 . S
O1169 C1180 1.278 . S
Mn1170 O1169 2.290 . S
Mn1170 O1172 2.089 . S
Mn1170 O1175 2.251 . S
Mn1170 O1176 2.087 . S
O1171 Mn1165 2.163 . S
O1171 C1181 1.244 . S
O1172 Mn1170 2.089 . S
O1172 C1179 1.256 . S
O1173 Mn1165 2.160 . S
O1173 C1182 1.239 . S
O1174 Mn1167 2.089 . S
O1174 C1182 1.256 . S
O1175 Mn1170 2.251 . S
O1175 C1180 1.241 . S
O1176 Mn1170 2.087 . S
O1176 C1181 1.256 . S
C1177 O1183 1.278 . S
C1177 O1184 1.241 . S
C1178 O1164 1.244 . S
C1178 O1166 1.256 . S
C1179 O1168 1.239 . S
C1179 O1172 1.256 . S
C1180 O1169 1.278 . S
C1180 O1175 1.241 . S
C1181 O1171 1.244 . S
C1181 O1176 1.256 . S
C1182 O1173 1.239 . S
C1182 O1174 1.256 . S
O1183 Mn1165 2.221 . S
O1183 Mn1167 2.290 . S
O1183 C1177 1.278 . S
O1184 Mn1167 2.251 . S
O1184 C1177 1.241 . S
O1185 Mn1186 2.163 . S
O1185 C1199 1.244 . S
Mn1186 O1185 2.163 . S
Mn1186 O1189 2.160 . S
Mn1186 O1190 2.221 . S
Mn1186 O1192 2.163 . S
Mn1186 O1194 2.160 . S
Mn1186 O1204 2.221 . S
O1187 Mn1188 2.087 . S
O1187 C1199 1.256 . S
Mn1188 O1187 2.087 . S
Mn1188 O1195 2.089 . S
Mn1188 O1204 2.290 . S
Mn1188 O1205 2.251 . S
O1189 Mn1186 2.160 . S
O1189 C1200 1.239 . S
O1190 Mn1186 2.221 . S
O1190 Mn1191 2.290 . S
O1190 C1201 1.278 . S
Mn1191 O1190 2.290 . S
Mn1191 O1193 2.089 . S
Mn1191 O1196 2.251 . S
Mn1191 O1197 2.087 . S
O1192 Mn1186 2.163 . S
O1192 C1202 1.244 . S
O1193 Mn1191 2.089 . S
O1193 C1200 1.256 . S
O1194 Mn1186 2.160 . S
O1194 C1203 1.239 . S
O1195 Mn1188 2.089 . S
O1195 C1203 1.256 . S
O1196 Mn1191 2.251 . S
O1196 C1201 1.241 . S
O1197 Mn1191 2.087 . S
O1197 C1202 1.256 . S
C1198 O1204 1.278 . S
C1198 O1205 1.241 . S
C1199 O1185 1.244 . S
C1199 O1187 1.256 . S
C1200 O1189 1.239 . S
C1200 O1193 1.256 . S
C1201 O1190 1.278 . S
C1201 O1196 1.241 . S
C1202 O1192 1.244 . S
C1202 O1197 1.256 . S
C1203 O1194 1.239 . S
C1203 O1195 1.256 . S
O1204 Mn1186 2.221 . S
O1204 Mn1188 2.290 . S
O1204 C1198 1.278 . S
O1205 Mn1188 2.251 . S
O1205 C1198 1.241 . S
O1206 Mn1207 2.163 . S
O1206 C1220 1.244 . S
Mn1207 O1206 2.163 . S
Mn1207 O1210 2.160 . S
Mn1207 O1211 2.221 . S
Mn1207 O1213 2.163 . S
Mn1207 O1215 2.160 . S
Mn1207 O1225 2.221 . S
O1208 Mn1209 2.087 . S
O1208 C1220 1.256 . S
Mn1209 O1208 2.087 . S
Mn1209 O1216 2.089 . S
Mn1209 O1225 2.290 . S
Mn1209 O1226 2.251 . S
O1210 Mn1207 2.160 . S
O1210 C1221 1.239 . S
O1211 Mn1207 2.221 . S
O1211 Mn1212 2.290 . S
O1211 C1222 1.278 . S
Mn1212 O1211 2.290 . S
Mn1212 O1214 2.089 . S
Mn1212 O1217 2.251 . S
Mn1212 O1218 2.087 . S
O1213 Mn1207 2.163 . S
O1213 C1223 1.244 . S
O1214 Mn1212 2.089 . S
O1214 C1221 1.256 . S
O1215 Mn1207 2.160 . S
O1215 C1224 1.239 . S
O1216 Mn1209 2.089 . S
O1216 C1224 1.256 . S
O1217 Mn1212 2.251 . S
O1217 C1222 1.241 . S
O1218 Mn1212 2.087 . S
O1218 C1223 1.256 . S
C1219 O1225 1.278 . S
C1219 O1226 1.241 . S
C1220 O1206 1.244 . S
C1220 O1208 1.256 . S
C1221 O1210 1.239 . S
C1221 O1214 1.256 . S
C1222 O1211 1.278 . S
C1222 O1217 1.241 . S
C1223 O1213 1.244 . S
C1223 O1218 1.256 . S
C1224 O1215 1.239 . S
C1224 O1216 1.256 . S
O1225 Mn1207 2.221 . S
O1225 Mn1209 2.290 . S
O1225 C1219 1.278 . S
O1226 Mn1209 2.251 . S
O1226 C1219 1.241 . S
O1227 Mn1228 2.163 . S
O1227 C1241 1.244 . S
Mn1228 O1227 2.163 . S
Mn1228 O1231 2.160 . S
Mn1228 O1232 2.221 . S
Mn1228 O1234 2.163 . S
Mn1228 O1236 2.160 . S
Mn1228 O1246 2.221 . S
O1229 Mn1230 2.087 . S
O1229 C1241 1.256 . S
Mn1230 O1229 2.087 . S
Mn1230 O1237 2.089 . S
Mn1230 O1246 2.290 . S
Mn1230 O1247 2.251 . S
O1231 Mn1228 2.160 . S
O1231 C1242 1.239 . S
O1232 Mn1228 2.221 . S
O1232 Mn1233 2.290 . S
O1232 C1243 1.278 . S
Mn1233 O1232 2.290 . S
Mn1233 O1235 2.089 . S
Mn1233 O1238 2.251 . S
Mn1233 O1239 2.087 . S
O1234 Mn1228 2.163 . S
O1234 C1244 1.244 . S
O1235 Mn1233 2.089 . S
O1235 C1242 1.256 . S
O1236 Mn1228 2.160 . S
O1236 C1245 1.239 . S
O1237 Mn1230 2.089 . S
O1237 C1245 1.256 . S
O1238 Mn1233 2.251 . S
O1238 C1243 1.241 . S
O1239 Mn1233 2.087 . S
O1239 C1244 1.256 . S
C1240 O1246 1.278 . S
C1240 O1247 1.241 . S
C1241 O1227 1.244 . S
C1241 O1229 1.256 . S
C1242 O1231 1.239 . S
C1242 O1235 1.256 . S
C1243 O1232 1.278 . S
C1243 O1238 1.241 . S
C1244 O1234 1.244 . S
C1244 O1239 1.256 . S
C1245 O1236 1.239 . S
C1245 O1237 1.256 . S
O1246 Mn1228 2.221 . S
O1246 Mn1230 2.290 . S
O1246 C1240 1.278 . S
O1247 Mn1230 2.251 . S
O1247 C1240 1.241 . S
O1248 Mn1249 2.163 . S
O1248 C1262 1.244 . S
Mn1249 O1248 2.163 . S
Mn1249 O1252 2.160 . S
Mn1249 O1253 2.221 . S
Mn1249 O1255 2.163 . S
Mn1249 O1257 2.160 . S
Mn1249 O1267 2.221 . S
O1250 Mn1251 2.087 . S
O1250 C1262 1.256 . S
Mn1251 O1250 2.087 . S
Mn1251 O1258 2.089 . S
Mn1251 O1267 2.290 . S
Mn1251 O1268 2.251 . S
O1252 Mn1249 2.160 . S
O1252 C1263 1.239 . S
O1253 Mn1249 2.221 . S
O1253 Mn1254 2.290 . S
O1253 C1264 1.278 . S
Mn1254 O1253 2.290 . S
Mn1254 O1256 2.089 . S
Mn1254 O1259 2.251 . S
Mn1254 O1260 2.087 . S
O1255 Mn1249 2.163 . S
O1255 C1265 1.244 . S
O1256 Mn1254 2.089 . S
O1256 C1263 1.256 . S
O1257 Mn1249 2.160 . S
O1257 C1266 1.239 . S
O1258 Mn1251 2.089 . S
O1258 C1266 1.256 . S
O1259 Mn1254 2.251 . S
O1259 C1264 1.241 . S
O1260 Mn1254 2.087 . S
O1260 C1265 1.256 . S
C1261 O1267 1.278 . S
C1261 O1268 1.241 . S
C1262 O1248 1.244 . S
C1262 O1250 1.256 . S
C1263 O1252 1.239 . S
C1263 O1256 1.256 . S
C1264 O1253 1.278 . S
C1264 O1259 1.241 . S
C1265 O1255 1.244 . S
C1265 O1260 1.256 . S
C1266 O1257 1.239 . S
C1266 O1258 1.256 . S
O1267 Mn1249 2.221 . S
O1267 Mn1251 2.290 . S
O1267 C1261 1.278 . S
O1268 Mn1251 2.251 . S
O1268 C1261 1.241 . S
H1269 C1281 0.935 . S
H1270 C1283 0.930 . S
H1271 C1284 0.930 . S
H1272 C1288 0.959 . S
H1273 C1288 0.959 . S
H1274 C1288 0.961 . S
H1275 C1289 0.960 . S
H1276 C1289 0.961 . S
H1277 C1289 0.959 . S
H1278 C1292 0.929 . S
H1279 C1293 0.931 . S
H1280 C1295 0.930 1_556 S
C1281 H1269 0.935 . S
C1281 C1282 1.399 . S
C1281 C1286 1.399 . S
C1282 C1281 1.399 . S
C1282 C1283 1.376 . S
C1283 H1270 0.930 . S
C1283 C1282 1.376 . S
C1283 C1284 1.388 . S
C1284 H1271 0.930 . S
C1284 C1283 1.388 . S
C1284 C1285 1.390 . S
C1285 C1284 1.390 . S
C1285 C1286 1.394 . S
C1285 C1291 1.465 . S
C1286 C1281 1.399 . S
C1286 C1285 1.394 . S
C1286 C1287 1.516 1_554 S
C1287 C1286 1.516 1_556 S
C1287 C1288 1.502 . S
C1287 C1289 1.561 . S
C1287 C1290 1.526 1_556 S
C1288 H1272 0.959 . S
C1288 H1273 0.959 . S
C1288 H1274 0.961 . S
C1288 C1287 1.502 . S
C1289 H1275 0.960 . S
C1289 H1276 0.961 . S
C1289 H1277 0.959 . S
C1289 C1287 1.561 . S
C1290 C1287 1.526 1_554 S
C1290 C1291 1.396 . S
C1290 C1295 1.390 . S
C1291 C1285 1.465 . S
C1291 C1290 1.396 . S
C1291 C1292 1.399 . S
C1292 H1278 0.929 . S
C1292 C1291 1.399 . S
C1292 C1293 1.385 . S
C1293 H1279 0.931 . S
C1293 C1292 1.385 . S
C1293 C1294 1.389 . S
C1294 C1293 1.389 . S
C1294 C1295 1.387 . S
C1295 H1280 0.930 1_554 S
C1295 C1290 1.390 . S
C1295 C1294 1.387 . S
H1296 C1308 0.930 . S
H1297 C1310 0.921 1_556 S
H1298 C1311 0.930 1_556 S
H1299 C1315 0.959 . S
H1300 C1315 0.959 . S
H1301 C1315 0.961 . S
H1302 C1316 0.960 . S
H1303 C1316 0.961 . S
H1304 C1316 0.959 . S
H1305 C1319 0.929 . S
H1306 C1320 0.931 . S
H1307 C1322 0.930 . S
C1308 H1296 0.930 . S
C1308 C1309 1.399 . S
C1308 C1313 1.399 . S
C1309 C1308 1.399 . S
C1309 C1310 1.376 . S
C1310 H1297 0.921 1_554 S
C1310 C1309 1.376 . S
C1310 C1311 1.388 . S
C1311 H1298 0.930 1_554 S
C1311 C1310 1.388 . S
C1311 C1312 1.390 . S
C1312 C1311 1.390 . S
C1312 C1313 1.394 . S
C1312 C1318 1.465 . S
C1313 C1308 1.399 . S
C1313 C1312 1.394 . S
C1313 C1314 1.516 . S
C1314 C1313 1.516 . S
C1314 C1315 1.502 . S
C1314 C1316 1.561 . S
C1314 C1317 1.526 . S
C1315 H1299 0.959 . S
C1315 H1300 0.959 . S
C1315 H1301 0.961 . S
C1315 C1314 1.502 . S
C1316 H1302 0.960 . S
C1316 H1303 0.961 . S
C1316 H1304 0.959 . S
C1316 C1314 1.561 . S
C1317 C1314 1.526 . S
C1317 C1318 1.396 . S
C1317 C1322 1.390 . S
C1318 C1312 1.465 . S
C1318 C1317 1.396 . S
C1318 C1319 1.399 1_554 S
C1319 H1305 0.929 . S
C1319 C1318 1.399 1_556 S
C1319 C1320 1.385 . S
C1320 H1306 0.931 . S
C1320 C1319 1.385 . S
C1320 C1321 1.389 1_556 S
C1321 C1320 1.389 1_554 S
C1321 C1322 1.387 . S
C1322 H1307 0.930 . S
C1322 C1317 1.390 . S
C1322 C1321 1.387 . S
H1323 C1335 0.930 . S
H1324 C1337 0.930 . S
H1325 C1338 0.930 . S
H1326 C1342 0.959 1_554 S
H1327 C1342 0.959 . S
H1328 C1342 0.961 . S
H1329 C1343 0.960 . S
H1330 C1343 0.961 . S
H1331 C1343 0.959 . S
H1332 C1346 0.929 . S
H1333 C1347 0.931 . S
H1334 C1349 0.930 1_556 S
C1335 H1323 0.930 . S
C1335 C1336 1.399 . S
C1335 C1340 1.399 . S
C1336 C1335 1.399 . S
C1336 C1337 1.376 . S
C1337 H1324 0.930 . S
C1337 C1336 1.376 . S
C1337 C1338 1.388 . S
C1338 H1325 0.930 . S
C1338 C1337 1.388 . S
C1338 C1339 1.390 . S
C1339 C1338 1.390 . S
C1339 C1340 1.394 . S
C1339 C1345 1.465 . S
C1340 C1335 1.399 . S
C1340 C1339 1.394 . S
C1340 C1341 1.516 1_554 S
C1341 C1340 1.516 1_556 S
C1341 C1342 1.502 . S
C1341 C1343 1.561 . S
C1341 C1344 1.526 1_556 S
C1342 H1326 0.959 1_556 S
C1342 H1327 0.959 . S
C1342 H1328 0.961 . S
C1342 C1341 1.502 . S
C1343 H1329 0.960 . S
C1343 H1330 0.961 . S
C1343 H1331 0.959 . S
C1343 C1341 1.561 . S
C1344 C1341 1.526 1_554 S
C1344 C1345 1.396 . S
C1344 C1349 1.390 . S
C1345 C1339 1.465 . S
C1345 C1344 1.396 . S
C1345 C1346 1.399 . S
C1346 H1332 0.929 . S
C1346 C1345 1.399 . S
C1346 C1347 1.385 . S
C1347 H1333 0.931 . S
C1347 C1346 1.385 . S
C1347 C1348 1.389 . S
C1348 C1347 1.389 . S
C1348 C1349 1.387 . S
C1349 H1334 0.930 1_554 S
C1349 C1344 1.390 . S
C1349 C1348 1.387 . S
H1350 C1362 0.930 . S
H1351 C1364 0.930 1_554 S
H1352 C1365 0.930 . S
H1353 C1369 0.959 . S
H1354 C1369 0.959 . S
H1355 C1369 0.961 . S
H1356 C1370 0.960 . S
H1357 C1370 0.961 . S
H1358 C1370 0.959 . S
H1359 C1373 0.929 . S
H1360 C1374 0.931 . S
H1361 C1376 0.930 . S
C1362 H1350 0.930 . S
C1362 C1363 1.399 . S
C1362 C1367 1.399 . S
C1363 C1362 1.399 . S
C1363 C1364 1.376 . S
C1364 H1351 0.930 1_556 S
C1364 C1363 1.376 . S
C1364 C1365 1.388 1_556 S
C1365 H1352 0.930 . S
C1365 C1364 1.388 1_554 S
C1365 C1366 1.390 1_554 S
C1366 C1365 1.390 1_556 S
C1366 C1367 1.394 . S
C1366 C1372 1.465 . S
C1367 C1362 1.399 . S
C1367 C1366 1.394 . S
C1367 C1368 1.516 . S
C1368 C1367 1.516 . S
C1368 C1369 1.502 . S
C1368 C1370 1.561 . S
C1368 C1371 1.526 . S
C1369 H1353 0.959 . S
C1369 H1354 0.959 . S
C1369 H1355 0.961 . S
C1369 C1368 1.502 . S
C1370 H1356 0.960 . S
C1370 H1357 0.961 . S
C1370 H1358 0.959 . S
C1370 C1368 1.561 . S
C1371 C1368 1.526 . S
C1371 C1372 1.396 . S
C1371 C1376 1.390 . S
C1372 C1366 1.465 . S
C1372 C1371 1.396 . S
C1372 C1373 1.399 1_556 S
C1373 H1359 0.929 . S
C1373 C1372 1.399 1_554 S
C1373 C1374 1.385 . S
C1374 H1360 0.931 . S
C1374 C1373 1.385 . S
C1374 C1375 1.389 1_554 S
C1375 C1374 1.389 1_556 S
C1375 C1376 1.387 . S
C1376 H1361 0.930 . S
C1376 C1371 1.390 . S
C1376 C1375 1.387 . S
H1377 C1389 0.930 1_554 S
H1378 C1391 0.930 . S
H1379 C1392 0.930 . S
H1380 C1396 0.959 . S
H1381 C1396 0.959 . S
H1382 C1396 0.961 . S
H1383 C1397 0.960 . S
H1384 C1397 0.961 . S
H1385 C1397 0.959 . S
H1386 C1400 0.929 . S
H1387 C1401 0.931 . S
H1388 C1403 0.930 . S
C1389 H1377 0.930 1_556 S
C1389 C1390 1.399 . S
C1389 C1394 1.399 . S
C1390 C1389 1.399 . S
C1390 C1391 1.376 . S
C1391 H1378 0.930 . S
C1391 C1390 1.376 . S
C1391 C1392 1.388 . S
C1392 H1379 0.930 . S
C1392 C1391 1.388 . S
C1392 C1393 1.390 . S
C1393 C1392 1.390 . S
C1393 C1394 1.394 . S
C1393 C1399 1.465 . S
C1394 C1389 1.399 . S
C1394 C1393 1.394 . S
C1394 C1395 1.516 1_556 S
C1395 C1394 1.516 1_554 S
C1395 C1396 1.502 . S
C1395 C1397 1.561 . S
C1395 C1398 1.526 1_554 S
C1396 H1380 0.959 . S
C1396 H1381 0.959 . S
C1396 H1382 0.961 . S
C1396 C1395 1.502 . S
C1397 H1383 0.960 . S
C1397 H1384 0.961 . S
C1397 H1385 0.959 . S
C1397 C1395 1.561 . S
C1398 C1395 1.526 1_556 S
C1398 C1399 1.396 . S
C1398 C1403 1.390 1_556 S
C1399 C1393 1.465 . S
C1399 C1398 1.396 . S
C1399 C1400 1.399 . S
C1400 H1386 0.929 . S
C1400 C1399 1.399 . S
C1400 C1401 1.385 . S
C1401 H1387 0.931 . S
C1401 C1400 1.385 . S
C1401 C1402 1.389 . S
C1402 C1401 1.389 . S
C1402 C1403 1.387 1_556 S
C1403 H1388 0.930 . S
C1403 C1398 1.390 1_554 S
C1403 C1402 1.387 1_554 S
H1404 C1416 0.930 . S
H1405 C1418 0.930 . S
H1406 C1419 0.930 . S
H1407 C1423 0.959 . S
H1408 C1423 0.959 . S
H1409 C1423 0.961 . S
H1410 C1424 0.960 . S
H1411 C1424 0.961 . S
H1412 C1424 0.959 . S
H1413 C1427 0.929 . S
H1414 C1428 0.931 . S
H1415 C1430 0.930 . S
C1416 H1404 0.930 . S
C1416 C1417 1.399 . S
C1416 C1421 1.399 . S
C1417 C1416 1.399 . S
C1417 C1418 1.376 . S
C1418 H1405 0.930 . S
C1418 C1417 1.376 . S
C1418 C1419 1.388 . S
C1419 H1406 0.930 . S
C1419 C1418 1.388 . S
C1419 C1420 1.390 . S
C1420 C1419 1.390 . S
C1420 C1421 1.394 . S
C1420 C1426 1.465 . S
C1421 C1416 1.399 . S
C1421 C1420 1.394 . S
C1421 C1422 1.516 . S
C1422 C1421 1.516 . S
C1422 C1423 1.502 1_556 S
C1422 C1424 1.561 . S
C1422 C1425 1.526 . S
C1423 H1407 0.959 . S
C1423 H1408 0.959 . S
C1423 H1409 0.961 . S
C1423 C1422 1.502 1_554 S
C1424 H1410 0.960 . S
C1424 H1411 0.961 . S
C1424 H1412 0.959 . S
C1424 C1422 1.561 . S
C1425 C1422 1.526 . S
C1425 C1426 1.396 . S
C1425 C1430 1.390 . S
C1426 C1420 1.465 . S
C1426 C1425 1.396 . S
C1426 C1427 1.399 . S
C1427 H1413 0.929 . S
C1427 C1426 1.399 . S
C1427 C1428 1.385 . S
C1428 H1414 0.931 . S
C1428 C1427 1.385 . S
C1428 C1429 1.389 . S
C1429 C1428 1.389 . S
C1429 C1430 1.387 . S
C1430 H1415 0.930 . S
C1430 C1425 1.390 . S
C1430 C1429 1.387 . S
H1431 C1443 0.930 . S
H1432 C1445 0.930 1_554 S
H1433 C1446 0.930 . S
H1434 C1450 0.959 . S
H1435 C1450 0.959 . S
H1436 C1450 0.961 . S
H1437 C1451 0.960 . S
H1438 C1451 0.961 . S
H1439 C1451 0.959 . S
H1440 C1454 0.929 . S
H1441 C1455 0.931 . S
H1442 C1457 0.930 . S
C1443 H1431 0.930 . S
C1443 C1444 1.399 . S
C1443 C1448 1.399 . S
C1444 C1443 1.399 . S
C1444 C1445 1.376 . S
C1445 H1432 0.930 1_556 S
C1445 C1444 1.376 . S
C1445 C1446 1.388 1_556 S
C1446 H1433 0.930 . S
C1446 C1445 1.388 1_554 S
C1446 C1447 1.390 1_554 S
C1447 C1446 1.390 1_556 S
C1447 C1448 1.394 . S
C1447 C1453 1.465 . S
C1448 C1443 1.399 . S
C1448 C1447 1.394 . S
C1448 C1449 1.516 . S
C1449 C1448 1.516 . S
C1449 C1450 1.502 . S
C1449 C1451 1.561 . S
C1449 C1452 1.526 . S
C1450 H1434 0.959 . S
C1450 H1435 0.959 . S
C1450 H1436 0.961 . S
C1450 C1449 1.502 . S
C1451 H1437 0.960 . S
C1451 H1438 0.961 . S
C1451 H1439 0.959 . S
C1451 C1449 1.561 . S
C1452 C1449 1.526 . S
C1452 C1453 1.396 . S
C1452 C1457 1.390 . S
C1453 C1447 1.465 . S
C1453 C1452 1.396 . S
C1453 C1454 1.399 1_556 S
C1454 H1440 0.929 . S
C1454 C1453 1.399 1_554 S
C1454 C1455 1.385 . S
C1455 H1441 0.931 . S
C1455 C1454 1.385 . S
C1455 C1456 1.389 1_554 S
C1456 C1455 1.389 1_556 S
C1456 C1457 1.387 . S
C1457 H1442 0.930 . S
C1457 C1452 1.390 . S
C1457 C1456 1.387 . S
H1458 C1470 0.930 . S
H1459 C1472 0.930 . S
H1460 C1473 0.930 . S
H1461 C1477 0.959 . S
H1462 C1477 0.959 . S
H1463 C1477 0.961 . S
H1464 C1478 0.960 . S
H1465 C1478 0.961 . S
H1466 C1478 0.959 . S
H1467 C1481 0.929 . S
H1468 C1482 0.931 . S
H1469 C1484 0.930 1_554 S
C1470 H1458 0.930 . S
C1470 C1471 1.399 . S
C1470 C1475 1.399 . S
C1471 C1470 1.399 . S
C1471 C1472 1.376 . S
C1472 H1459 0.930 . S
C1472 C1471 1.376 . S
C1472 C1473 1.388 . S
C1473 H1460 0.930 . S
C1473 C1472 1.388 . S
C1473 C1474 1.390 . S
C1474 C1473 1.390 . S
C1474 C1475 1.394 . S
C1474 C1480 1.465 . S
C1475 C1470 1.399 . S
C1475 C1474 1.394 . S
C1475 C1476 1.516 . S
C1476 C1475 1.516 . S
C1476 C1477 1.502 1_556 S
C1476 C1478 1.561 . S
C1476 C1479 1.526 . S
C1477 H1461 0.959 . S
C1477 H1462 0.959 . S
C1477 H1463 0.961 . S
C1477 C1476 1.502 1_554 S
C1478 H1464 0.960 . S
C1478 H1465 0.961 . S
C1478 H1466 0.959 . S
C1478 C1476 1.561 . S
C1479 C1476 1.526 . S
C1479 C1480 1.396 . S
C1479 C1484 1.390 . S
C1480 C1474 1.465 . S
C1480 C1479 1.396 . S
C1480 C1481 1.399 . S
C1481 H1467 0.929 . S
C1481 C1480 1.399 . S
C1481 C1482 1.385 . S
C1482 H1468 0.931 . S
C1482 C1481 1.385 . S
C1482 C1483 1.389 . S
C1483 C1482 1.389 . S
C1483 C1484 1.387 . S
C1484 H1469 0.930 1_556 S
C1484 C1479 1.390 . S
C1484 C1483 1.387 . S
H1485 C1497 0.930 1_554 S
H1486 C1499 0.930 . S
H1487 C1500 0.930 . S
H1488 C1504 0.959 . S
H1489 C1504 0.959 . S
H1490 C1504 0.961 . S
H1491 C1505 0.960 . S
H1492 C1505 0.961 . S
H1493 C1505 0.959 . S
H1494 C1508 0.929 . S
H1495 C1509 0.931 . S
H1496 C1511 0.930 . S
C1497 H1485 0.930 1_556 S
C1497 C1498 1.399 . S
C1497 C1502 1.399 . S
C1498 C1497 1.399 . S
C1498 C1499 1.376 . S
C1499 H1486 0.930 . S
C1499 C1498 1.376 . S
C1499 C1500 1.388 . S
C1500 H1487 0.930 . S
C1500 C1499 1.388 . S
C1500 C1501 1.390 . S
C1501 C1500 1.390 . S
C1501 C1502 1.394 . S
C1501 C1507 1.465 . S
C1502 C1497 1.399 . S
C1502 C1501 1.394 . S
C1502 C1503 1.516 1_556 S
C1503 C1502 1.516 1_554 S
C1503 C1504 1.502 . S
C1503 C1505 1.561 . S
C1503 C1506 1.526 1_554 S
C1504 H1488 0.959 . S
C1504 H1489 0.959 . S
C1504 H1490 0.961 . S
C1504 C1503 1.502 . S
C1505 H1491 0.960 . S
C1505 H1492 0.961 . S
C1505 H1493 0.959 . S
C1505 C1503 1.561 . S
C1506 C1503 1.526 1_556 S
C1506 C1507 1.396 . S
C1506 C1511 1.390 1_556 S
C1507 C1501 1.465 . S
C1507 C1506 1.396 . S
C1507 C1508 1.399 . S
C1508 H1494 0.929 . S
C1508 C1507 1.399 . S
C1508 C1509 1.385 . S
C1509 H1495 0.931 . S
C1509 C1508 1.385 . S
C1509 C1510 1.389 . S
C1510 C1509 1.389 . S
C1510 C1511 1.387 1_556 S
C1511 H1496 0.930 . S
C1511 C1506 1.390 1_554 S
C1511 C1510 1.387 1_554 S
H1512 C1524 0.930 . S
H1513 C1526 0.930 . S
H1514 C1527 0.930 . S
H1515 C1531 0.959 1_554 S
H1516 C1531 0.959 . S
H1517 C1531 0.961 . S
H1518 C1532 0.960 . S
H1519 C1532 0.961 . S
H1520 C1532 0.959 . S
H1521 C1535 0.929 . S
H1522 C1536 0.931 . S
H1523 C1538 0.926 . S
C1524 H1512 0.930 . S
C1524 C1525 1.399 . S
C1524 C1529 1.399 . S
C1525 C1524 1.399 . S
C1525 C1526 1.376 . S
C1526 H1513 0.930 . S
C1526 C1525 1.376 . S
C1526 C1527 1.388 . S
C1527 H1514 0.930 . S
C1527 C1526 1.388 . S
C1527 C1528 1.390 . S
C1528 C1527 1.390 . S
C1528 C1529 1.394 . S
C1528 C1534 1.465 . S
C1529 C1524 1.399 . S
C1529 C1528 1.394 . S
C1529 C1530 1.516 1_554 S
C1530 C1529 1.516 1_556 S
C1530 C1531 1.502 . S
C1530 C1532 1.561 . S
C1530 C1533 1.526 1_556 S
C1531 H1515 0.959 1_556 S
C1531 H1516 0.959 . S
C1531 H1517 0.961 . S
C1531 C1530 1.502 . S
C1532 H1518 0.960 . S
C1532 H1519 0.961 . S
C1532 H1520 0.959 . S
C1532 C1530 1.561 . S
C1533 C1530 1.526 1_554 S
C1533 C1534 1.396 . S
C1533 C1538 1.391 1_554 S
C1534 C1528 1.465 . S
C1534 C1533 1.396 . S
C1534 C1535 1.399 . S
C1535 H1521 0.929 . S
C1535 C1534 1.399 . S
C1535 C1536 1.385 . S
C1536 H1522 0.931 . S
C1536 C1535 1.385 . S
C1536 C1537 1.389 . S
C1537 C1536 1.389 . S
C1537 C1538 1.389 1_554 S
C1538 H1523 0.926 . S
C1538 C1533 1.391 1_556 S
C1538 C1537 1.389 1_556 S
H1539 C1551 0.930 . S
H1540 C1553 0.930 . S
H1541 C1554 0.930 . S
H1542 C1558 0.959 . S
H1543 C1558 0.959 . S
H1544 C1558 0.961 . S
H1545 C1559 0.960 . S
H1546 C1559 0.961 . S
H1547 C1559 0.959 . S
H1548 C1562 0.929 . S
H1549 C1563 0.931 . S
H1550 C1565 0.907 1_556 S
C1551 H1539 0.930 . S
C1551 C1552 1.399 . S
C1551 C1556 1.399 . S
C1552 C1551 1.399 . S
C1552 C1553 1.376 . S
C1553 H1540 0.930 . S
C1553 C1552 1.376 . S
C1553 C1554 1.388 . S
C1554 H1541 0.930 . S
C1554 C1553 1.388 . S
C1554 C1555 1.390 . S
C1555 C1554 1.390 . S
C1555 C1556 1.394 . S
C1555 C1561 1.465 . S
C1556 C1551 1.399 . S
C1556 C1555 1.394 . S
C1556 C1557 1.516 . S
C1557 C1556 1.516 . S
C1557 C1558 1.502 . S
C1557 C1559 1.561 1_554 S
C1557 C1560 1.526 . S
C1558 H1542 0.959 . S
C1558 H1543 0.959 . S
C1558 H1544 0.961 . S
C1558 C1557 1.502 . S
C1559 H1545 0.960 . S
C1559 H1546 0.961 . S
C1559 H1547 0.959 . S
C1559 C1557 1.561 1_556 S
C1560 C1557 1.526 . S
C1560 C1561 1.396 . S
C1560 C1565 1.390 . S
C1561 C1555 1.465 . S
C1561 C1560 1.396 . S
C1561 C1562 1.399 . S
C1562 H1548 0.929 . S
C1562 C1561 1.399 . S
C1562 C1563 1.385 . S
C1563 H1549 0.931 . S
C1563 C1562 1.385 . S
C1563 C1564 1.389 . S
C1564 C1563 1.389 . S
C1564 C1565 1.387 . S
C1565 H1550 0.907 1_554 S
C1565 C1560 1.390 . S
C1565 C1564 1.387 . S
H1566 C1578 0.930 . S
H1567 C1580 0.930 . S
H1568 C1581 0.930 . S
H1569 C1585 0.959 . S
H1570 C1585 0.959 . S
H1571 C1585 0.961 . S
H1572 C1586 0.960 . S
H1573 C1586 0.961 . S
H1574 C1586 0.959 . S
H1575 C1589 0.929 . S
H1576 C1590 0.931 . S
H1577 C1592 0.930 1_556 S
C1578 H1566 0.930 . S
C1578 C1579 1.399 . S
C1578 C1583 1.399 . S
C1579 C1578 1.399 . S
C1579 C1580 1.376 . S
C1580 H1567 0.930 . S
C1580 C1579 1.376 . S
C1580 C1581 1.388 . S
C1581 H1568 0.930 . S
C1581 C1580 1.388 . S
C1581 C1582 1.390 . S
C1582 C1581 1.390 . S
C1582 C1583 1.394 . S
C1582 C1588 1.465 . S
C1583 C1578 1.399 . S
C1583 C1582 1.394 . S
C1583 C1584 1.516 . S
C1584 C1583 1.516 . S
C1584 C1585 1.502 1_554 S
C1584 C1586 1.561 . S
C1584 C1587 1.526 . S
C1585 H1569 0.959 . S
C1585 H1570 0.959 . S
C1585 H1571 0.961 . S
C1585 C1584 1.502 1_556 S
C1586 H1572 0.960 . S
C1586 H1573 0.961 . S
C1586 H1574 0.959 . S
C1586 C1584 1.561 . S
C1587 C1584 1.526 . S
C1587 C1588 1.396 . S
C1587 C1592 1.390 . S
C1588 C1582 1.465 . S
C1588 C1587 1.396 . S
C1588 C1589 1.399 . S
C1589 H1575 0.929 . S
C1589 C1588 1.399 . S
C1589 C1590 1.385 . S
C1590 H1576 0.931 . S
C1590 C1589 1.385 . S
C1590 C1591 1.389 . S
C1591 C1590 1.389 . S
C1591 C1592 1.387 . S
C1592 H1577 0.930 1_554 S
C1592 C1587 1.390 . S
C1592 C1591 1.387 . S
H1593 C1605 0.930 . S
H1594 C1607 0.930 . S
H1595 C1608 0.930 . S
H1596 C1612 0.959 . S
H1597 C1612 0.959 . S
H1598 C1612 0.961 . S
H1599 C1613 0.960 . S
H1600 C1613 0.961 . S
H1601 C1613 0.959 . S
H1602 C1616 0.929 . S
H1603 C1617 0.931 . S
H1604 C1619 0.930 . S
C1605 H1593 0.930 . S
C1605 C1606 1.399 . S
C1605 C1610 1.399 1_655 S
C1606 C1605 1.399 . S
C1606 C1607 1.376 . S
C1607 H1594 0.930 . S
C1607 C1606 1.376 . S
C1607 C1608 1.388 1_655 S
C1608 H1595 0.930 . S
C1608 C1607 1.388 1_455 S
C1608 C1609 1.390 . S
C1609 C1608 1.390 . S
C1609 C1610 1.394 . S
C1609 C1615 1.465 . S
C1610 C1605 1.399 1_455 S
C1610 C1609 1.394 . S
C1610 C1611 1.516 . S
C1611 C1610 1.516 . S
C1611 C1612 1.502 . S
C1611 C1613 1.561 . S
C1611 C1614 1.526 . S
C1612 H1596 0.959 . S
C1612 H1597 0.959 . S
C1612 H1598 0.961 . S
C1612 C1611 1.502 . S
C1613 H1599 0.960 . S
C1613 H1600 0.961 . S
C1613 H1601 0.959 . S
C1613 C1611 1.561 . S
C1614 C1611 1.526 . S
C1614 C1615 1.396 . S
C1614 C1619 1.390 . S
C1615 C1609 1.465 . S
C1615 C1614 1.396 . S
C1615 C1616 1.399 . S
C1616 H1602 0.929 . S
C1616 C1615 1.399 . S
C1616 C1617 1.385 . S
C1617 H1603 0.931 . S
C1617 C1616 1.385 . S
C1617 C1618 1.389 . S
C1618 C1617 1.389 . S
C1618 C1619 1.387 . S
C1619 H1604 0.930 . S
C1619 C1614 1.390 . S
C1619 C1618 1.387 . S
H1620 C1632 0.930 . S
H1621 C1634 0.930 . S
H1622 C1635 0.930 . S
H1623 C1639 0.959 . S
H1624 C1639 0.959 . S
H1625 C1639 0.961 . S
H1626 C1640 0.960 . S
H1627 C1640 0.961 . S
H1628 C1640 0.959 . S
H1629 C1643 0.929 . S
H1630 C1644 0.931 . S
H1631 C1646 0.930 . S
C1632 H1620 0.930 . S
C1632 C1633 1.399 . S
C1632 C1637 1.399 . S
C1633 C1632 1.399 . S
C1633 C1634 1.376 . S
C1634 H1621 0.930 . S
C1634 C1633 1.376 . S
C1634 C1635 1.388 . S
C1635 H1622 0.930 . S
C1635 C1634 1.388 . S
C1635 C1636 1.390 . S
C1636 C1635 1.390 . S
C1636 C1637 1.394 . S
C1636 C1642 1.465 . S
C1637 C1632 1.399 . S
C1637 C1636 1.394 . S
C1637 C1638 1.516 . S
C1638 C1637 1.516 . S
C1638 C1639 1.502 . S
C1638 C1640 1.561 . S
C1638 C1641 1.526 . S
C1639 H1623 0.959 . S
C1639 H1624 0.959 . S
C1639 H1625 0.961 . S
C1639 C1638 1.502 . S
C1640 H1626 0.960 . S
C1640 H1627 0.961 . S
C1640 H1628 0.959 . S
C1640 C1638 1.561 . S
C1641 C1638 1.526 . S
C1641 C1642 1.396 . S
C1641 C1646 1.390 . S
C1642 C1636 1.465 . S
C1642 C1641 1.396 . S
C1642 C1643 1.399 . S
C1643 H1629 0.929 . S
C1643 C1642 1.399 . S
C1643 C1644 1.385 . S
C1644 H1630 0.931 . S
C1644 C1643 1.385 . S
C1644 C1645 1.389 . S
C1645 C1644 1.389 . S
C1645 C1646 1.387 . S
C1646 H1631 0.930 . S
C1646 C1641 1.390 . S
C1646 C1645 1.387 . S
H1647 C1659 0.930 . S
H1648 C1661 0.930 . S
H1649 C1662 0.930 . S
H1650 C1666 0.959 . S
H1651 C1666 0.959 . S
H1652 C1666 0.961 . S
H1653 C1667 0.960 . S
H1654 C1667 0.961 . S
H1655 C1667 0.959 . S
H1656 C1670 0.929 . S
H1657 C1671 0.931 . S
H1658 C1673 0.930 . S
C1659 H1647 0.930 . S
C1659 C1660 1.399 . S
C1659 C1664 1.399 1_545 S
C1660 C1659 1.399 . S
C1660 C1661 1.376 . S
C1661 H1648 0.930 . S
C1661 C1660 1.376 . S
C1661 C1662 1.388 1_545 S
C1662 H1649 0.930 . S
C1662 C1661 1.388 1_565 S
C1662 C1663 1.390 . S
C1663 C1662 1.390 . S
C1663 C1664 1.394 . S
C1663 C1669 1.465 . S
C1664 C1659 1.399 1_565 S
C1664 C1663 1.394 . S
C1664 C1665 1.516 . S
C1665 C1664 1.516 . S
C1665 C1666 1.502 . S
C1665 C1667 1.561 . S
C1665 C1668 1.526 . S
C1666 H1650 0.959 . S
C1666 H1651 0.959 . S
C1666 H1652 0.961 . S
C1666 C1665 1.502 . S
C1667 H1653 0.960 . S
C1667 H1654 0.961 . S
C1667 H1655 0.959 . S
C1667 C1665 1.561 . S
C1668 C1665 1.526 . S
C1668 C1669 1.396 . S
C1668 C1673 1.390 . S
C1669 C1663 1.465 . S
C1669 C1668 1.396 . S
C1669 C1670 1.399 . S
C1670 H1656 0.929 . S
C1670 C1669 1.399 . S
C1670 C1671 1.385 . S
C1671 H1657 0.931 . S
C1671 C1670 1.385 . S
C1671 C1672 1.389 . S
C1672 C1671 1.389 . S
C1672 C1673 1.387 . S
C1673 H1658 0.930 . S
C1673 C1668 1.390 . S
C1673 C1672 1.387 . S
H1674 C1686 0.930 . S
H1675 C1688 0.930 . S
H1676 C1689 0.930 . S
H1677 C1693 0.959 . S
H1678 C1693 0.959 . S
H1679 C1693 0.961 . S
H1680 C1694 0.960 . S
H1681 C1694 0.961 . S
H1682 C1694 0.959 . S
H1683 C1697 0.929 . S
H1684 C1698 0.931 . S
H1685 C1700 0.930 . S
C1686 H1674 0.930 . S
C1686 C1687 1.399 . S
C1686 C1691 1.399 . S
C1687 C1686 1.399 . S
C1687 C1688 1.376 . S
C1688 H1675 0.930 . S
C1688 C1687 1.376 . S
C1688 C1689 1.388 . S
C1689 H1676 0.930 . S
C1689 C1688 1.388 . S
C1689 C1690 1.390 . S
C1690 C1689 1.390 . S
C1690 C1691 1.394 . S
C1690 C1696 1.465 . S
C1691 C1686 1.399 . S
C1691 C1690 1.394 . S
C1691 C1692 1.516 . S
C1692 C1691 1.516 . S
C1692 C1693 1.502 . S
C1692 C1694 1.561 . S
C1692 C1695 1.526 . S
C1693 H1677 0.959 . S
C1693 H1678 0.959 . S
C1693 H1679 0.961 . S
C1693 C1692 1.502 . S
C1694 H1680 0.960 . S
C1694 H1681 0.961 . S
C1694 H1682 0.959 . S
C1694 C1692 1.561 . S
C1695 C1692 1.526 . S
C1695 C1696 1.396 . S
C1695 C1700 1.390 . S
C1696 C1690 1.465 . S
C1696 C1695 1.396 . S
C1696 C1697 1.399 . S
C1697 H1683 0.929 . S
C1697 C1696 1.399 . S
C1697 C1698 1.385 . S
C1698 H1684 0.931 . S
C1698 C1697 1.385 . S
C1698 C1699 1.389 . S
C1699 C1698 1.389 . S
C1699 C1700 1.387 . S
C1700 H1685 0.930 . S
C1700 C1695 1.390 . S
C1700 C1699 1.387 . S
H1701 C1713 0.930 . S
H1702 C1715 0.930 . S
H1703 C1716 0.930 . S
H1704 C1720 0.959 . S
H1705 C1720 0.959 . S
H1706 C1720 0.961 . S
H1707 C1721 0.960 . S
H1708 C1721 0.961 . S
H1709 C1721 0.959 . S
H1710 C1724 0.929 . S
H1711 C1725 0.931 . S
H1712 C1727 0.930 . S
C1713 H1701 0.930 . S
C1713 C1714 1.399 . S
C1713 C1718 1.399 . S
C1714 C1713 1.399 . S
C1714 C1715 1.376 . S
C1715 H1702 0.930 . S
C1715 C1714 1.376 . S
C1715 C1716 1.388 . S
C1716 H1703 0.930 . S
C1716 C1715 1.388 . S
C1716 C1717 1.390 . S
C1717 C1716 1.390 . S
C1717 C1718 1.394 . S
C1717 C1723 1.465 . S
C1718 C1713 1.399 . S
C1718 C1717 1.394 . S
C1718 C1719 1.516 . S
C1719 C1718 1.516 . S
C1719 C1720 1.502 . S
C1719 C1721 1.561 . S
C1719 C1722 1.526 . S
C1720 H1704 0.959 . S
C1720 H1705 0.959 . S
C1720 H1706 0.961 . S
C1720 C1719 1.502 . S
C1721 H1707 0.960 . S
C1721 H1708 0.961 . S
C1721 H1709 0.959 . S
C1721 C1719 1.561 . S
C1722 C1719 1.526 . S
C1722 C1723 1.396 . S
C1722 C1727 1.390 . S
C1723 C1717 1.465 . S
C1723 C1722 1.396 . S
C1723 C1724 1.399 . S
C1724 H1710 0.929 . S
C1724 C1723 1.399 . S
C1724 C1725 1.385 . S
C1725 H1711 0.931 . S
C1725 C1724 1.385 . S
C1725 C1726 1.389 . S
C1726 C1725 1.389 . S
C1726 C1727 1.387 . S
C1727 H1712 0.930 . S
C1727 C1722 1.390 . S
C1727 C1726 1.387 . S
H1728 C1740 0.930 . S
H1729 C1742 0.930 . S
H1730 C1743 0.930 . S
H1731 C1747 0.959 . S
H1732 C1747 0.959 . S
H1733 C1747 0.961 . S
H1734 C1748 0.960 . S
H1735 C1748 0.961 . S
H1736 C1748 0.959 . S
H1737 C1751 0.929 . S
H1738 C1752 0.931 . S
H1739 C1754 0.930 . S
C1740 H1728 0.930 . S
C1740 C1741 1.399 . S
C1740 C1745 1.399 . S
C1741 C1740 1.399 . S
C1741 C1742 1.376 . S
C1742 H1729 0.930 . S
C1742 C1741 1.376 . S
C1742 C1743 1.388 . S
C1743 H1730 0.930 . S
C1743 C1742 1.388 . S
C1743 C1744 1.390 . S
C1744 C1743 1.390 . S
C1744 C1745 1.394 . S
C1744 C1750 1.465 . S
C1745 C1740 1.399 . S
C1745 C1744 1.394 . S
C1745 C1746 1.516 . S
C1746 C1745 1.516 . S
C1746 C1747 1.502 . S
C1746 C1748 1.561 . S
C1746 C1749 1.526 . S
C1747 H1731 0.959 . S
C1747 H1732 0.959 . S
C1747 H1733 0.961 . S
C1747 C1746 1.502 . S
C1748 H1734 0.960 . S
C1748 H1735 0.961 . S
C1748 H1736 0.959 . S
C1748 C1746 1.561 . S
C1749 C1746 1.526 . S
C1749 C1750 1.396 . S
C1749 C1754 1.390 . S
C1750 C1744 1.465 . S
C1750 C1749 1.396 . S
C1750 C1751 1.399 . S
C1751 H1737 0.929 . S
C1751 C1750 1.399 . S
C1751 C1752 1.385 . S
C1752 H1738 0.931 . S
C1752 C1751 1.385 . S
C1752 C1753 1.389 . S
C1753 C1752 1.389 . S
C1753 C1754 1.387 . S
C1754 H1739 0.930 . S
C1754 C1749 1.390 . S
C1754 C1753 1.387 . S
H1755 C1767 0.930 . S
H1756 C1769 0.930 . S
H1757 C1770 0.930 . S
H1758 C1774 0.959 . S
H1759 C1774 0.959 . S
H1760 C1774 0.961 . S
H1761 C1775 0.960 . S
H1762 C1775 0.961 . S
H1763 C1775 0.959 . S
H1764 C1778 0.929 . S
H1765 C1779 0.931 . S
H1766 C1781 0.930 . S
C1767 H1755 0.930 . S
C1767 C1768 1.399 . S
C1767 C1772 1.399 . S
C1768 C1767 1.399 . S
C1768 C1769 1.376 . S
C1769 H1756 0.930 . S
C1769 C1768 1.376 . S
C1769 C1770 1.388 . S
C1770 H1757 0.930 . S
C1770 C1769 1.388 . S
C1770 C1771 1.390 . S
C1771 C1770 1.390 . S
C1771 C1772 1.394 . S
C1771 C1777 1.465 . S
C1772 C1767 1.399 . S
C1772 C1771 1.394 . S
C1772 C1773 1.516 . S
C1773 C1772 1.516 . S
C1773 C1774 1.502 . S
C1773 C1775 1.561 . S
C1773 C1776 1.526 . S
C1774 H1758 0.959 . S
C1774 H1759 0.959 . S
C1774 H1760 0.961 . S
C1774 C1773 1.502 . S
C1775 H1761 0.960 . S
C1775 H1762 0.961 . S
C1775 H1763 0.959 . S
C1775 C1773 1.561 . S
C1776 C1773 1.526 . S
C1776 C1777 1.396 . S
C1776 C1781 1.390 . S
C1777 C1771 1.465 . S
C1777 C1776 1.396 . S
C1777 C1778 1.399 . S
C1778 H1764 0.929 . S
C1778 C1777 1.399 . S
C1778 C1779 1.385 . S
C1779 H1765 0.931 . S
C1779 C1778 1.385 . S
C1779 C1780 1.389 . S
C1780 C1779 1.389 . S
C1780 C1781 1.387 . S
C1781 H1766 0.930 . S
C1781 C1776 1.390 . S
C1781 C1780 1.387 . S
H1782 C1794 0.930 . S
H1783 C1796 0.930 . S
H1784 C1797 0.930 . S
H1785 C1801 0.959 . S
H1786 C1801 0.959 . S
H1787 C1801 0.961 . S
H1788 C1802 0.960 . S
H1789 C1802 0.961 . S
H1790 C1802 0.959 . S
H1791 C1805 0.929 . S
H1792 C1806 0.931 . S
H1793 C1808 0.930 . S
C1794 H1782 0.930 . S
C1794 C1795 1.399 . S
C1794 C1799 1.399 . S
C1795 C1794 1.399 . S
C1795 C1796 1.376 . S
C1796 H1783 0.930 . S
C1796 C1795 1.376 . S
C1796 C1797 1.388 . S
C1797 H1784 0.930 . S
C1797 C1796 1.388 . S
C1797 C1798 1.390 . S
C1798 C1797 1.390 . S
C1798 C1799 1.394 . S
C1798 C1804 1.465 . S
C1799 C1794 1.399 . S
C1799 C1798 1.394 . S
C1799 C1800 1.516 . S
C1800 C1799 1.516 . S
C1800 C1801 1.502 . S
C1800 C1802 1.561 . S
C1800 C1803 1.526 . S
C1801 H1785 0.959 . S
C1801 H1786 0.959 . S
C1801 H1787 0.961 . S
C1801 C1800 1.502 . S
C1802 H1788 0.960 . S
C1802 H1789 0.961 . S
C1802 H1790 0.959 . S
C1802 C1800 1.561 . S
C1803 C1800 1.526 . S
C1803 C1804 1.396 . S
C1803 C1808 1.390 . S
C1804 C1798 1.465 . S
C1804 C1803 1.396 . S
C1804 C1805 1.399 . S
C1805 H1791 0.929 . S
C1805 C1804 1.399 . S
C1805 C1806 1.385 . S
C1806 H1792 0.931 . S
C1806 C1805 1.385 . S
C1806 C1807 1.389 . S
C1807 C1806 1.389 . S
C1807 C1808 1.387 . S
C1808 H1793 0.930 . S
C1808 C1803 1.390 . S
C1808 C1807 1.387 . S
H1809 C1821 0.930 . S
H1810 C1823 0.930 . S
H1811 C1824 0.930 . S
H1812 C1828 0.959 . S
H1813 C1828 0.959 . S
H1814 C1828 0.961 . S
H1815 C1829 0.960 . S
H1816 C1829 0.961 . S
H1817 C1829 0.959 . S
H1818 C1832 0.929 . S
H1819 C1833 0.931 . S
H1820 C1835 0.930 . S
C1821 H1809 0.930 . S
C1821 C1822 1.399 . S
C1821 C1826 1.399 . S
C1822 C1821 1.399 . S
C1822 C1823 1.376 . S
C1823 H1810 0.930 . S
C1823 C1822 1.376 . S
C1823 C1824 1.388 . S
C1824 H1811 0.930 . S
C1824 C1823 1.388 . S
C1824 C1825 1.390 . S
C1825 C1824 1.390 . S
C1825 C1826 1.394 . S
C1825 C1831 1.465 . S
C1826 C1821 1.399 . S
C1826 C1825 1.394 . S
C1826 C1827 1.516 . S
C1827 C1826 1.516 . S
C1827 C1828 1.502 . S
C1827 C1829 1.561 . S
C1827 C1830 1.526 . S
C1828 H1812 0.959 . S
C1828 H1813 0.959 . S
C1828 H1814 0.961 . S
C1828 C1827 1.502 . S
C1829 H1815 0.960 . S
C1829 H1816 0.961 . S
C1829 H1817 0.959 . S
C1829 C1827 1.561 . S
C1830 C1827 1.526 . S
C1830 C1831 1.396 . S
C1830 C1835 1.390 . S
C1831 C1825 1.465 . S
C1831 C1830 1.396 . S
C1831 C1832 1.399 . S
C1832 H1818 0.929 . S
C1832 C1831 1.399 . S
C1832 C1833 1.385 . S
C1833 H1819 0.931 . S
C1833 C1832 1.385 . S
C1833 C1834 1.389 . S
C1834 C1833 1.389 . S
C1834 C1835 1.387 . S
C1835 H1820 0.930 . S
C1835 C1830 1.390 . S
C1835 C1834 1.387 . S
H1836 C1848 0.930 . S
H1837 C1850 0.930 . S
H1838 C1851 0.930 . S
H1839 C1855 0.959 . S
H1840 C1855 0.959 . S
H1841 C1855 0.961 . S
H1842 C1856 0.960 . S
H1843 C1856 0.961 . S
H1844 C1856 0.959 . S
H1845 C1859 0.929 . S
H1846 C1860 0.931 . S
H1847 C1862 0.930 . S
C1848 H1836 0.930 . S
C1848 C1849 1.399 . S
C1848 C1853 1.399 1_545 S
C1849 C1848 1.399 . S
C1849 C1850 1.376 . S
C1850 H1837 0.930 . S
C1850 C1849 1.376 . S
C1850 C1851 1.388 1_545 S
C1851 H1838 0.930 . S
C1851 C1850 1.388 1_565 S
C1851 C1852 1.390 . S
C1852 C1851 1.390 . S
C1852 C1853 1.394 . S
C1852 C1858 1.465 . S
C1853 C1848 1.399 1_565 S
C1853 C1852 1.394 . S
C1853 C1854 1.516 . S
C1854 C1853 1.516 . S
C1854 C1855 1.502 . S
C1854 C1856 1.561 . S
C1854 C1857 1.526 . S
C1855 H1839 0.959 . S
C1855 H1840 0.959 . S
C1855 H1841 0.961 . S
C1855 C1854 1.502 . S
C1856 H1842 0.960 . S
C1856 H1843 0.961 . S
C1856 H1844 0.959 . S
C1856 C1854 1.561 . S
C1857 C1854 1.526 . S
C1857 C1858 1.396 . S
C1857 C1862 1.390 . S
C1858 C1852 1.465 . S
C1858 C1857 1.396 . S
C1858 C1859 1.399 . S
C1859 H1845 0.929 . S
C1859 C1858 1.399 . S
C1859 C1860 1.385 . S
C1860 H1846 0.931 . S
C1860 C1859 1.385 . S
C1860 C1861 1.389 . S
C1861 C1860 1.389 . S
C1861 C1862 1.387 . S
C1862 H1847 0.930 . S
C1862 C1857 1.390 . S
C1862 C1861 1.387 . S
H1863 C1875 0.930 . S
H1864 C1877 0.930 . S
H1865 C1878 0.930 . S
H1866 C1882 0.959 . S
H1867 C1882 0.959 . S
H1868 C1882 0.961 . S
H1869 C1883 0.960 . S
H1870 C1883 0.961 . S
H1871 C1883 0.959 . S
H1872 C1886 0.929 . S
H1873 C1887 0.931 . S
H1874 C1889 0.930 . S
C1875 H1863 0.930 . S
C1875 C1876 1.399 . S
C1875 C1880 1.399 1_655 S
C1876 C1875 1.399 . S
C1876 C1877 1.376 . S
C1877 H1864 0.930 . S
C1877 C1876 1.376 . S
C1877 C1878 1.388 1_655 S
C1878 H1865 0.930 . S
C1878 C1877 1.388 1_455 S
C1878 C1879 1.390 . S
C1879 C1878 1.390 . S
C1879 C1880 1.394 . S
C1879 C1885 1.465 . S
C1880 C1875 1.399 1_455 S
C1880 C1879 1.394 . S
C1880 C1881 1.516 . S
C1881 C1880 1.516 . S
C1881 C1882 1.502 . S
C1881 C1883 1.561 . S
C1881 C1884 1.526 . S
C1882 H1866 0.959 . S
C1882 H1867 0.959 . S
C1882 H1868 0.961 . S
C1882 C1881 1.502 . S
C1883 H1869 0.960 . S
C1883 H1870 0.961 . S
C1883 H1871 0.959 . S
C1883 C1881 1.561 . S
C1884 C1881 1.526 . S
C1884 C1885 1.396 . S
C1884 C1889 1.390 . S
C1885 C1879 1.465 . S
C1885 C1884 1.396 . S
C1885 C1886 1.399 . S
C1886 H1872 0.929 . S
C1886 C1885 1.399 . S
C1886 C1887 1.385 . S
C1887 H1873 0.931 . S
C1887 C1886 1.385 . S
C1887 C1888 1.389 . S
C1888 C1887 1.389 . S
C1888 C1889 1.387 . S
C1889 H1874 0.930 . S
C1889 C1884 1.390 . S
C1889 C1888 1.387 . S
H1890 C1902 0.930 . S
H1891 C1904 0.930 . S
H1892 C1905 0.930 . S
H1893 C1909 0.959 . S
H1894 C1909 0.959 . S
H1895 C1909 0.961 . S
H1896 C1910 0.960 . S
H1897 C1910 0.961 . S
H1898 C1910 0.959 . S
H1899 C1913 0.929 . S
H1900 C1914 0.931 . S
H1901 C1916 0.930 . S
C1902 H1890 0.930 . S
C1902 C1903 1.399 . S
C1902 C1907 1.399 . S
C1903 C1902 1.399 . S
C1903 C1904 1.376 . S
C1904 H1891 0.930 . S
C1904 C1903 1.376 . S
C1904 C1905 1.388 . S
C1905 H1892 0.930 . S
C1905 C1904 1.388 . S
C1905 C1906 1.390 . S
C1906 C1905 1.390 . S
C1906 C1907 1.394 . S
C1906 C1912 1.465 . S
C1907 C1902 1.399 . S
C1907 C1906 1.394 . S
C1907 C1908 1.516 . S
C1908 C1907 1.516 . S
C1908 C1909 1.502 . S
C1908 C1910 1.561 . S
C1908 C1911 1.526 . S
C1909 H1893 0.959 . S
C1909 H1894 0.959 . S
C1909 H1895 0.961 . S
C1909 C1908 1.502 . S
C1910 H1896 0.960 . S
C1910 H1897 0.961 . S
C1910 H1898 0.959 . S
C1910 C1908 1.561 . S
C1911 C1908 1.526 . S
C1911 C1912 1.396 . S
C1911 C1916 1.390 . S
C1912 C1906 1.465 . S
C1912 C1911 1.396 . S
C1912 C1913 1.399 . S
C1913 H1899 0.929 . S
C1913 C1912 1.399 . S
C1913 C1914 1.385 . S
C1914 H1900 0.931 . S
C1914 C1913 1.385 . S
C1914 C1915 1.389 . S
C1915 C1914 1.389 . S
C1915 C1916 1.387 . S
C1916 H1901 0.930 . S
C1916 C1911 1.390 . S
C1916 C1915 1.387 . S
H1917 C1929 0.930 . S
H1918 C1931 0.930 . S
H1919 C1932 0.930 . S
H1920 C1936 0.959 . S
H1921 C1936 0.959 . S
H1922 C1936 0.961 . S
H1923 C1937 0.960 . S
H1924 C1937 0.961 . S
H1925 C1937 0.959 . S
H1926 C1940 0.929 . S
H1927 C1941 0.931 . S
H1928 C1943 0.930 . S
C1929 H1917 0.930 . S
C1929 C1930 1.399 . S
C1929 C1934 1.399 . S
C1930 C1929 1.399 . S
C1930 C1931 1.376 . S
C1931 H1918 0.930 . S
C1931 C1930 1.376 . S
C1931 C1932 1.388 . S
C1932 H1919 0.930 . S
C1932 C1931 1.388 . S
C1932 C1933 1.390 . S
C1933 C1932 1.390 . S
C1933 C1934 1.394 . S
C1933 C1939 1.465 . S
C1934 C1929 1.399 . S
C1934 C1933 1.394 . S
C1934 C1935 1.516 . S
C1935 C1934 1.516 . S
C1935 C1936 1.502 . S
C1935 C1937 1.561 . S
C1935 C1938 1.526 . S
C1936 H1920 0.959 . S
C1936 H1921 0.959 . S
C1936 H1922 0.961 . S
C1936 C1935 1.502 . S
C1937 H1923 0.960 . S
C1937 H1924 0.961 . S
C1937 H1925 0.959 . S
C1937 C1935 1.561 . S
C1938 C1935 1.526 . S
C1938 C1939 1.396 . S
C1938 C1943 1.390 . S
C1939 C1933 1.465 . S
C1939 C1938 1.396 . S
C1939 C1940 1.399 . S
C1940 H1926 0.929 . S
C1940 C1939 1.399 . S
C1940 C1941 1.385 . S
C1941 H1927 0.931 . S
C1941 C1940 1.385 . S
C1941 C1942 1.389 . S
C1942 C1941 1.389 . S
C1942 C1943 1.387 . S
C1943 H1928 0.930 . S
C1943 C1938 1.390 . S
C1943 C1942 1.387 . S
H1944 C1956 0.930 . S
H1945 C1958 0.930 . S
H1946 C1959 0.930 . S
H1947 C1963 0.959 . S
H1948 C1963 0.959 . S
H1949 C1963 0.961 . S
H1950 C1964 0.960 . S
H1951 C1964 0.961 . S
H1952 C1964 0.959 . S
H1953 C1967 0.929 . S
H1954 C1968 0.931 . S
H1955 C1970 0.930 . S
C1956 H1944 0.930 . S
C1956 C1957 1.399 . S
C1956 C1961 1.399 . S
C1957 C1956 1.399 . S
C1957 C1958 1.376 . S
C1958 H1945 0.930 . S
C1958 C1957 1.376 . S
C1958 C1959 1.388 . S
C1959 H1946 0.930 . S
C1959 C1958 1.388 . S
C1959 C1960 1.390 . S
C1960 C1959 1.390 . S
C1960 C1961 1.394 . S
C1960 C1966 1.465 . S
C1961 C1956 1.399 . S
C1961 C1960 1.394 . S
C1961 C1962 1.516 . S
C1962 C1961 1.516 . S
C1962 C1963 1.502 . S
C1962 C1964 1.561 . S
C1962 C1965 1.526 . S
C1963 H1947 0.959 . S
C1963 H1948 0.959 . S
C1963 H1949 0.961 . S
C1963 C1962 1.502 . S
C1964 H1950 0.960 . S
C1964 H1951 0.961 . S
C1964 H1952 0.959 . S
C1964 C1962 1.561 . S
C1965 C1962 1.526 . S
C1965 C1966 1.396 . S
C1965 C1970 1.390 . S
C1966 C1960 1.465 . S
C1966 C1965 1.396 . S
C1966 C1967 1.399 . S
C1967 H1953 0.929 . S
C1967 C1966 1.399 . S
C1967 C1968 1.385 . S
C1968 H1954 0.931 . S
C1968 C1967 1.385 . S
C1968 C1969 1.389 . S
C1969 C1968 1.389 . S
C1969 C1970 1.387 . S
C1970 H1955 0.930 . S
C1970 C1965 1.390 . S
C1970 C1969 1.387 . S
H1971 C1983 0.930 . S
H1972 C1985 0.930 . S
H1973 C1986 0.930 . S
H1974 C1990 0.959 . S
H1975 C1990 0.959 . S
H1976 C1990 0.961 . S
H1977 C1991 0.960 . S
H1978 C1991 0.961 . S
H1979 C1991 0.959 . S
H1980 C1994 0.929 . S
H1981 C1995 0.931 . S
H1982 C1997 0.930 . S
C1983 H1971 0.930 . S
C1983 C1984 1.399 . S
C1983 C1988 1.399 . S
C1984 C1983 1.399 . S
C1984 C1985 1.376 . S
C1985 H1972 0.930 . S
C1985 C1984 1.376 . S
C1985 C1986 1.388 . S
C1986 H1973 0.930 . S
C1986 C1985 1.388 . S
C1986 C1987 1.390 . S
C1987 C1986 1.390 . S
C1987 C1988 1.394 . S
C1987 C1993 1.465 . S
C1988 C1983 1.399 . S
C1988 C1987 1.394 . S
C1988 C1989 1.516 . S
C1989 C1988 1.516 . S
C1989 C1990 1.502 . S
C1989 C1991 1.561 . S
C1989 C1992 1.526 . S
C1990 H1974 0.959 . S
C1990 H1975 0.959 . S
C1990 H1976 0.961 . S
C1990 C1989 1.502 . S
C1991 H1977 0.960 . S
C1991 H1978 0.961 . S
C1991 H1979 0.959 . S
C1991 C1989 1.561 . S
C1992 C1989 1.526 . S
C1992 C1993 1.396 . S
C1992 C1997 1.390 . S
C1993 C1987 1.465 . S
C1993 C1992 1.396 . S
C1993 C1994 1.399 . S
C1994 H1980 0.929 . S
C1994 C1993 1.399 . S
C1994 C1995 1.385 . S
C1995 H1981 0.931 . S
C1995 C1994 1.385 . S
C1995 C1996 1.389 . S
C1996 C1995 1.389 . S
C1996 C1997 1.387 . S
C1997 H1982 0.930 . S
C1997 C1992 1.390 . S
C1997 C1996 1.387 . S
H1998 C2010 0.930 . S
H1999 C2012 0.930 . S
H2000 C2013 0.930 . S
H2001 C2017 0.959 . S
H2002 C2017 0.959 . S
H2003 C2017 0.961 . S
H2004 C2018 0.960 . S
H2005 C2018 0.961 . S
H2006 C2018 0.959 . S
H2007 C2021 0.929 . S
H2008 C2022 0.931 . S
H2009 C2024 0.930 . S
C2010 H1998 0.930 . S
C2010 C2011 1.399 . S
C2010 C2015 1.399 1_565 S
C2011 C2010 1.399 . S
C2011 C2012 1.376 . S
C2012 H1999 0.930 . S
C2012 C2011 1.376 . S
C2012 C2013 1.388 1_565 S
C2013 H2000 0.930 . S
C2013 C2012 1.388 1_545 S
C2013 C2014 1.390 . S
C2014 C2013 1.390 . S
C2014 C2015 1.394 . S
C2014 C2020 1.465 . S
C2015 C2010 1.399 1_545 S
C2015 C2014 1.394 . S
C2015 C2016 1.516 . S
C2016 C2015 1.516 . S
C2016 C2017 1.502 . S
C2016 C2018 1.561 . S
C2016 C2019 1.526 . S
C2017 H2001 0.959 . S
C2017 H2002 0.959 . S
C2017 H2003 0.961 . S
C2017 C2016 1.502 . S
C2018 H2004 0.960 . S
C2018 H2005 0.961 . S
C2018 H2006 0.959 . S
C2018 C2016 1.561 . S
C2019 C2016 1.526 . S
C2019 C2020 1.396 . S
C2019 C2024 1.390 . S
C2020 C2014 1.465 . S
C2020 C2019 1.396 . S
C2020 C2021 1.399 . S
C2021 H2007 0.929 . S
C2021 C2020 1.399 . S
C2021 C2022 1.385 . S
C2022 H2008 0.931 . S
C2022 C2021 1.385 . S
C2022 C2023 1.389 . S
C2023 C2022 1.389 . S
C2023 C2024 1.387 . S
C2024 H2009 0.930 . S
C2024 C2019 1.390 . S
C2024 C2023 1.387 . S
H2025 C2037 0.930 . S
H2026 C2039 0.930 . S
H2027 C2040 0.930 . S
H2028 C2044 0.959 . S
H2029 C2044 0.959 . S
H2030 C2044 0.961 . S
H2031 C2045 0.960 . S
H2032 C2045 0.961 . S
H2033 C2045 0.959 . S
H2034 C2048 0.929 . S
H2035 C2049 0.931 . S
H2036 C2051 0.930 . S
C2037 H2025 0.930 . S
C2037 C2038 1.399 . S
C2037 C2042 1.399 1_455 S
C2038 C2037 1.399 . S
C2038 C2039 1.376 . S
C2039 H2026 0.930 . S
C2039 C2038 1.376 . S
C2039 C2040 1.387 1_455 S
C2040 H2027 0.930 . S
C2040 C2039 1.387 1_655 S
C2040 C2041 1.390 . S
C2041 C2040 1.390 . S
C2041 C2042 1.394 . S
C2041 C2047 1.465 . S
C2042 C2037 1.399 1_655 S
C2042 C2041 1.394 . S
C2042 C2043 1.516 . S
C2043 C2042 1.516 . S
C2043 C2044 1.502 . S
C2043 C2045 1.561 . S
C2043 C2046 1.526 . S
C2044 H2028 0.959 . S
C2044 H2029 0.959 . S
C2044 H2030 0.961 . S
C2044 C2043 1.502 . S
C2045 H2031 0.960 . S
C2045 H2032 0.961 . S
C2045 H2033 0.959 . S
C2045 C2043 1.561 . S
C2046 C2043 1.526 . S
C2046 C2047 1.396 . S
C2046 C2051 1.390 . S
C2047 C2041 1.465 . S
C2047 C2046 1.396 . S
C2047 C2048 1.399 . S
C2048 H2034 0.929 . S
C2048 C2047 1.399 . S
C2048 C2049 1.385 . S
C2049 H2035 0.931 . S
C2049 C2048 1.385 . S
C2049 C2050 1.389 . S
C2050 C2049 1.389 . S
C2050 C2051 1.387 . S
C2051 H2036 0.930 . S
C2051 C2046 1.390 . S
C2051 C2050 1.387 . S
H2052 C2064 0.930 . S
H2053 C2066 0.930 . S
H2054 C2067 0.930 . S
H2055 C2071 0.959 . S
H2056 C2071 0.959 . S
H2057 C2071 0.961 . S
H2058 C2072 0.960 . S
H2059 C2072 0.961 . S
H2060 C2072 0.959 . S
H2061 C2075 0.929 . S
H2062 C2076 0.931 . S
H2063 C2078 0.930 . S
C2064 H2052 0.930 . S
C2064 C2065 1.399 . S
C2064 C2069 1.399 . S
C2065 C2064 1.399 . S
C2065 C2066 1.376 . S
C2066 H2053 0.930 . S
C2066 C2065 1.376 . S
C2066 C2067 1.388 . S
C2067 H2054 0.930 . S
C2067 C2066 1.388 . S
C2067 C2068 1.390 . S
C2068 C2067 1.390 . S
C2068 C2069 1.394 . S
C2068 C2074 1.465 . S
C2069 C2064 1.399 . S
C2069 C2068 1.394 . S
C2069 C2070 1.516 . S
C2070 C2069 1.516 . S
C2070 C2071 1.502 . S
C2070 C2072 1.561 . S
C2070 C2073 1.526 . S
C2071 H2055 0.959 . S
C2071 H2056 0.959 . S
C2071 H2057 0.961 . S
C2071 C2070 1.502 . S
C2072 H2058 0.960 . S
C2072 H2059 0.961 . S
C2072 H2060 0.959 . S
C2072 C2070 1.561 . S
C2073 C2070 1.526 . S
C2073 C2074 1.396 . S
C2073 C2078 1.390 . S
C2074 C2068 1.465 . S
C2074 C2073 1.396 . S
C2074 C2075 1.399 . S
C2075 H2061 0.929 . S
C2075 C2074 1.399 . S
C2075 C2076 1.385 . S
C2076 H2062 0.931 . S
C2076 C2075 1.385 . S
C2076 C2077 1.389 . S
C2077 C2076 1.389 . S
C2077 C2078 1.387 . S
C2078 H2063 0.930 . S
C2078 C2073 1.390 . S
C2078 C2077 1.387 . S
H2079 C2091 0.930 . S
H2080 C2093 0.930 . S
H2081 C2094 0.930 . S
H2082 C2098 0.959 . S
H2083 C2098 0.959 . S
H2084 C2098 0.961 . S
H2085 C2099 0.960 . S
H2086 C2099 0.961 . S
H2087 C2099 0.959 . S
H2088 C2102 0.929 . S
H2089 C2103 0.931 . S
H2090 C2105 0.930 . S
C2091 H2079 0.930 . S
C2091 C2092 1.399 . S
C2091 C2096 1.399 1_455 S
C2092 C2091 1.399 . S
C2092 C2093 1.376 . S
C2093 H2080 0.930 . S
C2093 C2092 1.376 . S
C2093 C2094 1.388 . S
C2094 H2081 0.930 . S
C2094 C2093 1.388 . S
C2094 C2095 1.390 1_455 S
C2095 C2094 1.390 1_655 S
C2095 C2096 1.394 . S
C2095 C2101 1.465 . S
C2096 C2091 1.399 1_655 S
C2096 C2095 1.394 . S
C2096 C2097 1.516 . S
C2097 C2096 1.516 . S
C2097 C2098 1.502 . S
C2097 C2099 1.561 . S
C2097 C2100 1.526 . S
C2098 H2082 0.959 . S
C2098 H2083 0.959 . S
C2098 H2084 0.961 . S
C2098 C2097 1.502 . S
C2099 H2085 0.960 . S
C2099 H2086 0.961 . S
C2099 H2087 0.959 . S
C2099 C2097 1.561 . S
C2100 C2097 1.526 . S
C2100 C2101 1.396 . S
C2100 C2105 1.390 . S
C2101 C2095 1.465 . S
C2101 C2100 1.396 . S
C2101 C2102 1.399 . S
C2102 H2088 0.929 . S
C2102 C2101 1.399 . S
C2102 C2103 1.385 . S
C2103 H2089 0.931 . S
C2103 C2102 1.385 . S
C2103 C2104 1.389 . S
C2104 C2103 1.389 . S
C2104 C2105 1.387 . S
C2105 H2090 0.930 . S
C2105 C2100 1.390 . S
C2105 C2104 1.387 . S
H2106 C2118 0.930 . S
H2107 C2120 0.930 . S
H2108 C2121 0.930 . S
H2109 C2125 0.959 . S
H2110 C2125 0.959 . S
H2111 C2125 0.961 . S
H2112 C2126 0.960 . S
H2113 C2126 0.961 . S
H2114 C2126 0.959 . S
H2115 C2129 0.929 . S
H2116 C2130 0.931 . S
H2117 C2132 0.930 . S
C2118 H2106 0.930 . S
C2118 C2119 1.399 . S
C2118 C2123 1.399 . S
C2119 C2118 1.399 . S
C2119 C2120 1.376 . S
C2120 H2107 0.930 . S
C2120 C2119 1.376 . S
C2120 C2121 1.388 . S
C2121 H2108 0.930 . S
C2121 C2120 1.388 . S
C2121 C2122 1.390 . S
C2122 C2121 1.390 . S
C2122 C2123 1.394 . S
C2122 C2128 1.465 . S
C2123 C2118 1.399 . S
C2123 C2122 1.394 . S
C2123 C2124 1.516 . S
C2124 C2123 1.516 . S
C2124 C2125 1.502 . S
C2124 C2126 1.561 . S
C2124 C2127 1.526 . S
C2125 H2109 0.959 . S
C2125 H2110 0.959 . S
C2125 H2111 0.961 . S
C2125 C2124 1.502 . S
C2126 H2112 0.960 . S
C2126 H2113 0.961 . S
C2126 H2114 0.959 . S
C2126 C2124 1.561 . S
C2127 C2124 1.526 . S
C2127 C2128 1.396 . S
C2127 C2132 1.390 . S
C2128 C2122 1.465 . S
C2128 C2127 1.396 . S
C2128 C2129 1.399 . S
C2129 H2115 0.929 . S
C2129 C2128 1.399 . S
C2129 C2130 1.385 . S
C2130 H2116 0.931 . S
C2130 C2129 1.385 . S
C2130 C2131 1.389 . S
C2131 C2130 1.389 . S
C2131 C2132 1.387 . S
C2132 H2117 0.930 . S
C2132 C2127 1.390 . S
C2132 C2131 1.387 . S
H2133 C2145 0.930 . S
H2134 C2147 0.930 . S
H2135 C2148 0.930 . S
H2136 C2152 0.959 . S
H2137 C2152 0.959 . S
H2138 C2152 0.961 . S
H2139 C2153 0.960 . S
H2140 C2153 0.961 . S
H2141 C2153 0.959 . S
H2142 C2156 0.929 . S
H2143 C2157 0.931 . S
H2144 C2159 0.930 . S
C2145 H2133 0.930 . S
C2145 C2146 1.399 . S
C2145 C2150 1.399 1_565 S
C2146 C2145 1.399 . S
C2146 C2147 1.376 . S
C2147 H2134 0.930 . S
C2147 C2146 1.376 . S
C2147 C2148 1.388 1_565 S
C2148 H2135 0.930 . S
C2148 C2147 1.388 1_545 S
C2148 C2149 1.390 . S
C2149 C2148 1.390 . S
C2149 C2150 1.394 . S
C2149 C2155 1.465 . S
C2150 C2145 1.399 1_545 S
C2150 C2149 1.394 . S
C2150 C2151 1.516 . S
C2151 C2150 1.516 . S
C2151 C2152 1.502 . S
C2151 C2153 1.561 . S
C2151 C2154 1.526 . S
C2152 H2136 0.959 . S
C2152 H2137 0.959 . S
C2152 H2138 0.961 . S
C2152 C2151 1.502 . S
C2153 H2139 0.960 . S
C2153 H2140 0.961 . S
C2153 H2141 0.959 . S
C2153 C2151 1.561 . S
C2154 C2151 1.526 . S
C2154 C2155 1.396 . S
C2154 C2159 1.390 . S
C2155 C2149 1.465 . S
C2155 C2154 1.396 . S
C2155 C2156 1.399 . S
C2156 H2142 0.929 . S
C2156 C2155 1.399 . S
C2156 C2157 1.385 . S
C2157 H2143 0.931 . S
C2157 C2156 1.385 . S
C2157 C2158 1.389 . S
C2158 C2157 1.389 . S
C2158 C2159 1.387 . S
C2159 H2144 0.930 . S
C2159 C2154 1.390 . S
C2159 C2158 1.387 . S
H2160 C2172 0.930 . S
H2161 C2174 0.930 . S
H2162 C2175 0.930 . S
H2163 C2179 0.959 . S
H2164 C2179 0.959 . S
H2165 C2179 0.961 . S
H2166 C2180 0.960 . S
H2167 C2180 0.961 . S
H2168 C2180 0.959 . S
H2169 C2183 0.929 . S
H2170 C2184 0.931 . S
H2171 C2186 0.930 . S
C2172 H2160 0.930 . S
C2172 C2173 1.399 . S
C2172 C2177 1.399 . S
C2173 C2172 1.399 . S
C2173 C2174 1.376 . S
C2174 H2161 0.930 . S
C2174 C2173 1.376 . S
C2174 C2175 1.388 . S
C2175 H2162 0.930 . S
C2175 C2174 1.388 . S
C2175 C2176 1.390 . S
C2176 C2175 1.390 . S
C2176 C2177 1.394 . S
C2176 C2182 1.465 . S
C2177 C2172 1.399 . S
C2177 C2176 1.394 . S
C2177 C2178 1.516 . S
C2178 C2177 1.516 . S
C2178 C2179 1.502 . S
C2178 C2180 1.561 . S
C2178 C2181 1.526 . S
C2179 H2163 0.959 . S
C2179 H2164 0.959 . S
C2179 H2165 0.961 . S
C2179 C2178 1.502 . S
C2180 H2166 0.960 . S
C2180 H2167 0.961 . S
C2180 H2168 0.959 . S
C2180 C2178 1.561 . S
C2181 C2178 1.526 . S
C2181 C2182 1.396 . S
C2181 C2186 1.390 . S
C2182 C2176 1.465 . S
C2182 C2181 1.396 . S
C2182 C2183 1.399 . S
C2183 H2169 0.929 . S
C2183 C2182 1.399 . S
C2183 C2184 1.385 . S
C2184 H2170 0.931 . S
C2184 C2183 1.385 . S
C2184 C2185 1.389 . S
C2185 C2184 1.389 . S
C2185 C2186 1.387 . S
C2186 H2171 0.930 . S
C2186 C2181 1.390 . S
C2186 C2185 1.387 . S
H2187 C2199 0.930 . S
H2188 C2201 0.930 . S
H2189 C2202 0.930 . S
H2190 C2206 0.959 . S
H2191 C2206 0.959 . S
H2192 C2206 0.961 . S
H2193 C2207 0.960 . S
H2194 C2207 0.961 . S
H2195 C2207 0.959 . S
H2196 C2210 0.929 . S
H2197 C2211 0.931 . S
H2198 C2213 0.930 . S
C2199 H2187 0.930 . S
C2199 C2200 1.399 . S
C2199 C2204 1.399 . S
C2200 C2199 1.399 . S
C2200 C2201 1.376 . S
C2201 H2188 0.930 . S
C2201 C2200 1.376 . S
C2201 C2202 1.388 . S
C2202 H2189 0.930 . S
C2202 C2201 1.388 . S
C2202 C2203 1.390 . S
C2203 C2202 1.390 . S
C2203 C2204 1.394 . S
C2203 C2209 1.465 . S
C2204 C2199 1.399 . S
C2204 C2203 1.394 . S
C2204 C2205 1.516 . S
C2205 C2204 1.516 . S
C2205 C2206 1.502 . S
C2205 C2207 1.561 . S
C2205 C2208 1.526 . S
C2206 H2190 0.959 . S
C2206 H2191 0.959 . S
C2206 H2192 0.961 . S
C2206 C2205 1.502 . S
C2207 H2193 0.960 . S
C2207 H2194 0.961 . S
C2207 H2195 0.959 . S
C2207 C2205 1.561 . S
C2208 C2205 1.526 . S
C2208 C2209 1.396 . S
C2208 C2213 1.390 . S
C2209 C2203 1.465 . S
C2209 C2208 1.396 . S
C2209 C2210 1.399 . S
C2210 H2196 0.929 . S
C2210 C2209 1.399 . S
C2210 C2211 1.385 . S
C2211 H2197 0.931 . S
C2211 C2210 1.385 . S
C2211 C2212 1.389 . S
C2212 C2211 1.389 . S
C2212 C2213 1.387 . S
C2213 H2198 0.930 . S
C2213 C2208 1.390 . S
C2213 C2212 1.387 . S
H2214 C2226 0.930 . S
H2215 C2228 0.930 . S
H2216 C2229 0.930 . S
H2217 C2233 0.959 . S
H2218 C2233 0.959 . S
H2219 C2233 0.961 . S
H2220 C2234 0.960 . S
H2221 C2234 0.961 . S
H2222 C2234 0.959 . S
H2223 C2237 0.929 . S
H2224 C2238 0.931 . S
H2225 C2240 0.930 . S
C2226 H2214 0.930 . S
C2226 C2227 1.399 . S
C2226 C2231 1.399 . S
C2227 C2226 1.399 . S
C2227 C2228 1.376 . S
C2228 H2215 0.930 . S
C2228 C2227 1.376 . S
C2228 C2229 1.388 . S
C2229 H2216 0.930 . S
C2229 C2228 1.388 . S
C2229 C2230 1.390 . S
C2230 C2229 1.390 . S
C2230 C2231 1.394 . S
C2230 C2236 1.465 . S
C2231 C2226 1.399 . S
C2231 C2230 1.394 . S
C2231 C2232 1.516 . S
C2232 C2231 1.516 . S
C2232 C2233 1.502 . S
C2232 C2234 1.561 . S
C2232 C2235 1.526 . S
C2233 H2217 0.959 . S
C2233 H2218 0.959 . S
C2233 H2219 0.961 . S
C2233 C2232 1.502 . S
C2234 H2220 0.960 . S
C2234 H2221 0.961 . S
C2234 H2222 0.959 . S
C2234 C2232 1.561 . S
C2235 C2232 1.526 . S
C2235 C2236 1.396 . S
C2235 C2240 1.390 . S
C2236 C2230 1.465 . S
C2236 C2235 1.396 . S
C2236 C2237 1.399 . S
C2237 H2223 0.929 . S
C2237 C2236 1.399 . S
C2237 C2238 1.385 . S
C2238 H2224 0.931 . S
C2238 C2237 1.385 . S
C2238 C2239 1.389 . S
C2239 C2238 1.389 . S
C2239 C2240 1.387 . S
C2240 H2225 0.930 . S
C2240 C2235 1.390 . S
C2240 C2239 1.387 . S
H2241 C2253 0.930 . S
H2242 C2255 0.968 . S
H2243 C2256 0.930 . S
H2244 C2260 0.959 . S
H2245 C2260 0.959 . S
H2246 C2260 0.961 . S
H2247 C2261 0.960 . S
H2248 C2261 0.961 . S
H2249 C2261 0.959 . S
H2250 C2264 0.929 . S
H2251 C2265 0.931 . S
H2252 C2267 0.930 . S
C2253 H2241 0.930 . S
C2253 C2254 1.399 . S
C2253 C2258 1.399 . S
C2254 C2253 1.399 . S
C2254 C2255 1.321 1_565 S
C2255 H2242 0.968 . S
C2255 C2254 1.321 1_545 S
C2255 C2256 1.409 . S
C2256 H2243 0.930 . S
C2256 C2255 1.409 . S
C2256 C2257 1.390 1_545 S
C2257 C2256 1.390 1_565 S
C2257 C2258 1.394 . S
C2257 C2263 1.458 1_565 S
C2258 C2253 1.399 . S
C2258 C2257 1.394 . S
C2258 C2259 1.516 . S
C2259 C2258 1.516 . S
C2259 C2260 1.502 . S
C2259 C2261 1.561 . S
C2259 C2262 1.526 . S
C2260 H2244 0.959 . S
C2260 H2245 0.959 . S
C2260 H2246 0.961 . S
C2260 C2259 1.502 . S
C2261 H2247 0.960 . S
C2261 H2248 0.961 . S
C2261 H2249 0.959 . S
C2261 C2259 1.561 . S
C2262 C2259 1.526 . S
C2262 C2263 1.346 1_565 S
C2262 C2267 1.390 . S
C2263 C2257 1.458 1_545 S
C2263 C2262 1.346 1_545 S
C2263 C2264 1.447 . S
C2264 H2250 0.929 . S
C2264 C2263 1.447 . S
C2264 C2265 1.385 . S
C2265 H2251 0.931 . S
C2265 C2264 1.385 . S
C2265 C2266 1.389 . S
C2266 C2265 1.389 . S
C2266 C2267 1.387 1_545 S
C2267 H2252 0.930 . S
C2267 C2262 1.390 . S
C2267 C2266 1.387 1_565 S
H2268 C2280 0.930 . S
H2269 C2282 0.930 . S
H2270 C2283 0.930 . S
H2271 C2287 0.959 1_655 S
H2272 C2287 0.959 . S
H2273 C2287 0.961 . S
H2274 C2288 0.960 . S
H2275 C2288 0.961 . S
H2276 C2288 0.959 . S
H2277 C2291 0.929 . S
H2278 C2292 0.936 1_655 S
H2279 C2294 0.930 . S
C2280 H2268 0.930 . S
C2280 C2281 1.399 . S
C2280 C2285 1.399 . S
C2281 C2280 1.399 . S
C2281 C2282 1.376 . S
C2282 H2269 0.930 . S
C2282 C2281 1.376 . S
C2282 C2283 1.388 . S
C2283 H2270 0.930 . S
C2283 C2282 1.388 . S
C2283 C2284 1.390 . S
C2284 C2283 1.390 . S
C2284 C2285 1.394 . S
C2284 C2290 1.465 . S
C2285 C2280 1.399 . S
C2285 C2284 1.394 . S
C2285 C2286 1.516 . S
C2286 C2285 1.516 . S
C2286 C2287 1.502 . S
C2286 C2288 1.561 . S
C2286 C2289 1.526 . S
C2287 H2271 0.959 1_455 S
C2287 H2272 0.959 . S
C2287 H2273 0.961 . S
C2287 C2286 1.502 . S
C2288 H2274 0.960 . S
C2288 H2275 0.961 . S
C2288 H2276 0.959 . S
C2288 C2286 1.561 . S
C2289 C2286 1.526 . S
C2289 C2290 1.396 . S
C2289 C2294 1.390 . S
C2290 C2284 1.465 . S
C2290 C2289 1.396 . S
C2290 C2291 1.399 . S
C2291 H2277 0.929 . S
C2291 C2290 1.399 . S
C2291 C2292 1.396 . S
C2292 H2278 0.936 1_455 S
C2292 C2291 1.396 . S
C2292 C2293 1.375 . S
C2293 C2292 1.375 . S
C2293 C2294 1.387 . S
C2294 H2279 0.930 . S
C2294 C2289 1.390 . S
C2294 C2293 1.387 . S
H2295 C2307 0.930 . S
H2296 C2309 0.930 . S
H2297 C2310 0.930 . S
H2298 C2314 0.959 . S
H2299 C2314 0.959 . S
H2300 C2314 0.961 . S
H2301 C2315 0.960 . S
H2302 C2315 0.961 . S
H2303 C2315 0.959 . S
H2304 C2318 0.929 . S
H2305 C2319 0.931 . S
H2306 C2321 0.930 . S
C2307 H2295 0.930 . S
C2307 C2308 1.399 . S
C2307 C2312 1.399 . S
C2308 C2307 1.399 . S
C2308 C2309 1.376 . S
C2309 H2296 0.930 . S
C2309 C2308 1.376 . S
C2309 C2310 1.388 . S
C2310 H2297 0.930 . S
C2310 C2309 1.388 . S
C2310 C2311 1.390 . S
C2311 C2310 1.390 . S
C2311 C2312 1.394 . S
C2311 C2317 1.465 . S
C2312 C2307 1.399 . S
C2312 C2311 1.394 . S
C2312 C2313 1.516 . S
C2313 C2312 1.516 . S
C2313 C2314 1.502 . S
C2313 C2315 1.561 . S
C2313 C2316 1.526 . S
C2314 H2298 0.959 . S
C2314 H2299 0.959 . S
C2314 H2300 0.961 . S
C2314 C2313 1.502 . S
C2315 H2301 0.960 . S
C2315 H2302 0.961 . S
C2315 H2303 0.959 . S
C2315 C2313 1.561 . S
C2316 C2313 1.526 . S
C2316 C2317 1.396 . S
C2316 C2321 1.390 . S
C2317 C2311 1.465 . S
C2317 C2316 1.396 . S
C2317 C2318 1.399 . S
C2318 H2304 0.929 . S
C2318 C2317 1.399 . S
C2318 C2319 1.385 . S
C2319 H2305 0.931 . S
C2319 C2318 1.385 . S
C2319 C2320 1.389 . S
C2320 C2319 1.389 . S
C2320 C2321 1.387 . S
C2321 H2306 0.930 . S
C2321 C2316 1.390 . S
C2321 C2320 1.387 . S
H2322 C2334 0.930 1_455 S
H2323 C2336 0.930 . S
H2324 C2337 0.930 . S
H2325 C2341 0.959 . S
H2326 C2341 0.959 . S
H2327 C2341 0.961 . S
H2328 C2342 0.960 . S
H2329 C2342 0.961 . S
H2330 C2342 0.959 1_655 S
H2331 C2345 0.929 . S
H2332 C2346 0.931 . S
H2333 C2348 0.930 . S
C2334 H2322 0.930 1_655 S
C2334 C2335 1.399 . S
C2334 C2339 1.399 . S
C2335 C2334 1.399 . S
C2335 C2336 1.376 . S
C2336 H2323 0.930 . S
C2336 C2335 1.376 . S
C2336 C2337 1.388 . S
C2337 H2324 0.930 . S
C2337 C2336 1.388 . S
C2337 C2338 1.390 . S
C2338 C2337 1.390 . S
C2338 C2339 1.394 . S
C2338 C2344 1.465 . S
C2339 C2334 1.399 . S
C2339 C2338 1.394 . S
C2339 C2340 1.516 1_655 S
C2340 C2339 1.516 1_455 S
C2340 C2341 1.502 . S
C2340 C2342 1.561 . S
C2340 C2343 1.526 1_455 S
C2341 H2325 0.959 . S
C2341 H2326 0.959 . S
C2341 H2327 0.961 . S
C2341 C2340 1.502 . S
C2342 H2328 0.960 . S
C2342 H2329 0.961 . S
C2342 H2330 0.959 1_455 S
C2342 C2340 1.561 . S
C2343 C2340 1.526 1_655 S
C2343 C2344 1.396 . S
C2343 C2348 1.390 1_655 S
C2344 C2338 1.465 . S
C2344 C2343 1.396 . S
C2344 C2345 1.399 . S
C2345 H2331 0.929 . S
C2345 C2344 1.399 . S
C2345 C2346 1.385 . S
C2346 H2332 0.931 . S
C2346 C2345 1.385 . S
C2346 C2347 1.389 . S
C2347 C2346 1.389 . S
C2347 C2348 1.387 1_655 S
C2348 H2333 0.930 . S
C2348 C2343 1.390 1_455 S
C2348 C2347 1.387 1_455 S
H2349 C2361 0.930 . S
H2350 C2363 0.930 . S
H2351 C2364 0.930 . S
H2352 C2368 0.959 . S
H2353 C2368 0.959 . S
H2354 C2368 0.961 . S
H2355 C2369 0.960 . S
H2356 C2369 0.961 . S
H2357 C2369 0.959 . S
H2358 C2372 0.929 . S
H2359 C2373 0.931 . S
H2360 C2375 0.930 . S
C2361 H2349 0.930 . S
C2361 C2362 1.399 . S
C2361 C2366 1.399 . S
C2362 C2361 1.399 . S
C2362 C2363 1.376 . S
C2363 H2350 0.930 . S
C2363 C2362 1.376 . S
C2363 C2364 1.388 . S
C2364 H2351 0.930 . S
C2364 C2363 1.388 . S
C2364 C2365 1.390 . S
C2365 C2364 1.390 . S
C2365 C2366 1.394 . S
C2365 C2371 1.465 . S
C2366 C2361 1.399 . S
C2366 C2365 1.394 . S
C2366 C2367 1.516 . S
C2367 C2366 1.516 . S
C2367 C2368 1.502 . S
C2367 C2369 1.561 . S
C2367 C2370 1.526 . S
C2368 H2352 0.959 . S
C2368 H2353 0.959 . S
C2368 H2354 0.961 . S
C2368 C2367 1.502 . S
C2369 H2355 0.960 . S
C2369 H2356 0.961 . S
C2369 H2357 0.959 . S
C2369 C2367 1.561 . S
C2370 C2367 1.526 . S
C2370 C2371 1.396 . S
C2370 C2375 1.390 . S
C2371 C2365 1.465 . S
C2371 C2370 1.396 . S
C2371 C2372 1.399 . S
C2372 H2358 0.929 . S
C2372 C2371 1.399 . S
C2372 C2373 1.385 . S
C2373 H2359 0.931 . S
C2373 C2372 1.385 . S
C2373 C2374 1.389 . S
C2374 C2373 1.389 . S
C2374 C2375 1.387 . S
C2375 H2360 0.930 . S
C2375 C2370 1.390 . S
C2375 C2374 1.387 . S
H2376 C2388 0.930 1_565 S
H2377 C2390 0.930 . S
H2378 C2391 0.930 . S
H2379 C2395 0.976 . S
H2380 C2395 0.959 . S
H2381 C2395 0.961 . S
H2382 C2396 0.960 . S
H2383 C2396 0.961 . S
H2384 C2396 0.959 . S
H2385 C2399 0.929 . S
H2386 C2400 0.931 . S
H2387 C2402 0.930 . S
C2388 H2376 0.930 1_545 S
C2388 C2389 1.399 . S
C2388 C2393 1.399 . S
C2389 C2388 1.399 . S
C2389 C2390 1.376 . S
C2390 H2377 0.930 . S
C2390 C2389 1.376 . S
C2390 C2391 1.388 . S
C2391 H2378 0.930 . S
C2391 C2390 1.388 . S
C2391 C2392 1.390 . S
C2392 C2391 1.390 . S
C2392 C2393 1.394 . S
C2392 C2398 1.465 . S
C2393 C2388 1.399 . S
C2393 C2392 1.394 . S
C2393 C2394 1.516 1_545 S
C2394 C2393 1.516 1_565 S
C2394 C2395 1.502 . S
C2394 C2396 1.561 . S
C2394 C2397 1.526 1_565 S
C2395 H2379 0.976 . S
C2395 H2380 0.959 . S
C2395 H2381 0.961 . S
C2395 C2394 1.502 . S
C2396 H2382 0.960 . S
C2396 H2383 0.961 . S
C2396 H2384 0.959 . S
C2396 C2394 1.561 . S
C2397 C2394 1.526 1_545 S
C2397 C2398 1.396 . S
C2397 C2402 1.390 1_545 S
C2398 C2392 1.465 . S
C2398 C2397 1.396 . S
C2398 C2399 1.399 . S
C2399 H2385 0.929 . S
C2399 C2398 1.399 . S
C2399 C2400 1.385 . S
C2400 H2386 0.931 . S
C2400 C2399 1.385 . S
C2400 C2401 1.389 . S
C2401 C2400 1.389 . S
C2401 C2402 1.387 1_545 S
C2402 H2387 0.930 . S
C2402 C2397 1.390 1_565 S
C2402 C2401 1.387 1_565 S
H2403 C2415 0.930 . S
H2404 C2417 0.930 . S
H2405 C2418 0.930 . S
H2406 C2422 0.959 . S
H2407 C2422 0.959 . S
H2408 C2422 0.961 . S
H2409 C2423 0.960 . S
H2410 C2423 0.961 . S
H2411 C2423 0.959 . S
H2412 C2426 0.929 . S
H2413 C2427 0.931 . S
H2414 C2429 0.930 . S
C2415 H2403 0.930 . S
C2415 C2416 1.399 . S
C2415 C2420 1.399 . S
C2416 C2415 1.399 . S
C2416 C2417 1.376 . S
C2417 H2404 0.930 . S
C2417 C2416 1.376 . S
C2417 C2418 1.388 . S
C2418 H2405 0.930 . S
C2418 C2417 1.388 . S
C2418 C2419 1.390 . S
C2419 C2418 1.390 . S
C2419 C2420 1.394 . S
C2419 C2425 1.465 . S
C2420 C2415 1.399 . S
C2420 C2419 1.394 . S
C2420 C2421 1.516 . S
C2421 C2420 1.516 . S
C2421 C2422 1.502 . S
C2421 C2423 1.561 . S
C2421 C2424 1.526 . S
C2422 H2406 0.959 . S
C2422 H2407 0.959 . S
C2422 H2408 0.961 . S
C2422 C2421 1.502 . S
C2423 H2409 0.960 . S
C2423 H2410 0.961 . S
C2423 H2411 0.959 . S
C2423 C2421 1.561 . S
C2424 C2421 1.526 . S
C2424 C2425 1.396 . S
C2424 C2429 1.390 . S
C2425 C2419 1.465 . S
C2425 C2424 1.396 . S
C2425 C2426 1.399 . S
C2426 H2412 0.929 . S
C2426 C2425 1.399 . S
C2426 C2427 1.385 . S
C2427 H2413 0.931 . S
C2427 C2426 1.385 . S
C2427 C2428 1.389 . S
C2428 C2427 1.389 . S
C2428 C2429 1.387 . S
C2429 H2414 0.930 . S
C2429 C2424 1.390 . S
C2429 C2428 1.387 . S
H2430 C2442 0.930 . S
H2431 C2444 0.930 . S
H2432 C2445 0.930 . S
H2433 C2449 0.959 . S
H2434 C2449 0.959 . S
H2435 C2449 0.961 . S
H2436 C2450 0.960 . S
H2437 C2450 0.961 . S
H2438 C2450 0.959 . S
H2439 C2453 0.929 . S
H2440 C2454 0.931 . S
H2441 C2456 0.930 . S
C2442 H2430 0.930 . S
C2442 C2443 1.399 . S
C2442 C2447 1.399 . S
C2443 C2442 1.399 . S
C2443 C2444 1.376 . S
C2444 H2431 0.930 . S
C2444 C2443 1.376 . S
C2444 C2445 1.388 . S
C2445 H2432 0.930 . S
C2445 C2444 1.388 . S
C2445 C2446 1.390 . S
C2446 C2445 1.390 . S
C2446 C2447 1.394 . S
C2446 C2452 1.465 . S
C2447 C2442 1.399 . S
C2447 C2446 1.394 . S
C2447 C2448 1.516 . S
C2448 C2447 1.516 . S
C2448 C2449 1.502 . S
C2448 C2450 1.561 . S
C2448 C2451 1.526 . S
C2449 H2433 0.959 . S
C2449 H2434 0.959 . S
C2449 H2435 0.961 . S
C2449 C2448 1.502 . S
C2450 H2436 0.960 . S
C2450 H2437 0.961 . S
C2450 H2438 0.959 . S
C2450 C2448 1.561 . S
C2451 C2448 1.526 . S
C2451 C2452 1.396 . S
C2451 C2456 1.390 . S
C2452 C2446 1.465 . S
C2452 C2451 1.396 . S
C2452 C2453 1.399 . S
C2453 H2439 0.929 . S
C2453 C2452 1.399 . S
C2453 C2454 1.385 . S
C2454 H2440 0.931 . S
C2454 C2453 1.385 . S
C2454 C2455 1.389 . S
C2455 C2454 1.389 . S
C2455 C2456 1.387 . S
C2456 H2441 0.930 . S
C2456 C2451 1.390 . S
C2456 C2455 1.387 . S
H2457 C2469 0.930 . S
H2458 C2471 0.930 . S
H2459 C2472 0.930 . S
H2460 C2476 0.959 . S
H2461 C2476 0.959 . S
H2462 C2476 0.961 . S
H2463 C2477 0.960 . S
H2464 C2477 0.961 . S
H2465 C2477 0.959 . S
H2466 C2480 0.929 . S
H2467 C2481 0.931 . S
H2468 C2483 0.930 . S
C2469 H2457 0.930 . S
C2469 C2470 1.399 . S
C2469 C2474 1.399 . S
C2470 C2469 1.399 . S
C2470 C2471 1.376 . S
C2471 H2458 0.930 . S
C2471 C2470 1.376 . S
C2471 C2472 1.388 . S
C2472 H2459 0.930 . S
C2472 C2471 1.388 . S
C2472 C2473 1.390 . S
C2473 C2472 1.390 . S
C2473 C2474 1.394 . S
C2473 C2479 1.465 . S
C2474 C2469 1.399 . S
C2474 C2473 1.394 . S
C2474 C2475 1.516 . S
C2475 C2474 1.516 . S
C2475 C2476 1.502 . S
C2475 C2477 1.561 . S
C2475 C2478 1.526 . S
C2476 H2460 0.959 . S
C2476 H2461 0.959 . S
C2476 H2462 0.961 . S
C2476 C2475 1.502 . S
C2477 H2463 0.960 . S
C2477 H2464 0.961 . S
C2477 H2465 0.959 . S
C2477 C2475 1.561 . S
C2478 C2475 1.526 . S
C2478 C2479 1.396 . S
C2478 C2483 1.390 . S
C2479 C2473 1.465 . S
C2479 C2478 1.396 . S
C2479 C2480 1.399 . S
C2480 H2466 0.929 . S
C2480 C2479 1.399 . S
C2480 C2481 1.385 . S
C2481 H2467 0.931 . S
C2481 C2480 1.385 . S
C2481 C2482 1.389 . S
C2482 C2481 1.389 . S
C2482 C2483 1.387 . S
C2483 H2468 0.930 . S
C2483 C2478 1.390 . S
C2483 C2482 1.387 . S
H2484 C2496 0.930 . S
H2485 C2498 0.930 . S
H2486 C2499 0.930 . S
H2487 C2503 0.959 . S
H2488 C2503 0.959 . S
H2489 C2503 0.961 . S
H2490 C2504 0.960 . S
H2491 C2504 0.961 . S
H2492 C2504 0.959 . S
H2493 C2507 0.929 . S
H2494 C2508 0.931 . S
H2495 C2510 0.930 . S
C2496 H2484 0.930 . S
C2496 C2497 1.399 . S
C2496 C2501 1.399 . S
C2497 C2496 1.399 . S
C2497 C2498 1.376 . S
C2498 H2485 0.930 . S
C2498 C2497 1.376 . S
C2498 C2499 1.388 . S
C2499 H2486 0.930 . S
C2499 C2498 1.388 . S
C2499 C2500 1.390 . S
C2500 C2499 1.390 . S
C2500 C2501 1.394 . S
C2500 C2506 1.465 . S
C2501 C2496 1.399 . S
C2501 C2500 1.394 . S
C2501 C2502 1.516 . S
C2502 C2501 1.516 . S
C2502 C2503 1.502 . S
C2502 C2504 1.561 . S
C2502 C2505 1.526 . S
C2503 H2487 0.959 . S
C2503 H2488 0.959 . S
C2503 H2489 0.961 . S
C2503 C2502 1.502 . S
C2504 H2490 0.960 . S
C2504 H2491 0.961 . S
C2504 H2492 0.959 . S
C2504 C2502 1.561 . S
C2505 C2502 1.526 . S
C2505 C2506 1.396 . S
C2505 C2510 1.390 . S
C2506 C2500 1.465 . S
C2506 C2505 1.396 . S
C2506 C2507 1.399 . S
C2507 H2493 0.929 . S
C2507 C2506 1.399 . S
C2507 C2508 1.385 . S
C2508 H2494 0.931 . S
C2508 C2507 1.385 . S
C2508 C2509 1.389 . S
C2509 C2508 1.389 . S
C2509 C2510 1.387 . S
C2510 H2495 0.930 . S
C2510 C2505 1.390 . S
C2510 C2509 1.387 . S
H2511 C2523 0.930 . S
H2512 C2525 0.930 . S
H2513 C2526 0.930 . S
H2514 C2530 0.959 . S
H2515 C2530 0.959 . S
H2516 C2530 0.961 . S
H2517 C2531 0.960 . S
H2518 C2531 0.961 . S
H2519 C2531 0.959 . S
H2520 C2534 0.929 . S
H2521 C2535 0.931 . S
H2522 C2537 0.930 . S
C2523 H2511 0.930 . S
C2523 C2524 1.399 . S
C2523 C2528 1.399 . S
C2524 C2523 1.399 . S
C2524 C2525 1.376 . S
C2525 H2512 0.930 . S
C2525 C2524 1.376 . S
C2525 C2526 1.388 . S
C2526 H2513 0.930 . S
C2526 C2525 1.388 . S
C2526 C2527 1.390 . S
C2527 C2526 1.390 . S
C2527 C2528 1.394 . S
C2527 C2533 1.465 . S
C2528 C2523 1.399 . S
C2528 C2527 1.394 . S
C2528 C2529 1.516 . S
C2529 C2528 1.516 . S
C2529 C2530 1.502 . S
C2529 C2531 1.561 . S
C2529 C2532 1.526 . S
C2530 H2514 0.959 . S
C2530 H2515 0.959 . S
C2530 H2516 0.961 . S
C2530 C2529 1.502 . S
C2531 H2517 0.960 . S
C2531 H2518 0.961 . S
C2531 H2519 0.959 . S
C2531 C2529 1.561 . S
C2532 C2529 1.526 . S
C2532 C2533 1.396 . S
C2532 C2537 1.390 . S
C2533 C2527 1.465 . S
C2533 C2532 1.396 . S
C2533 C2534 1.399 . S
C2534 H2520 0.929 . S
C2534 C2533 1.399 . S
C2534 C2535 1.385 . S
C2535 H2521 0.931 . S
C2535 C2534 1.385 . S
C2535 C2536 1.389 . S
C2536 C2535 1.389 . S
C2536 C2537 1.387 . S
C2537 H2522 0.930 . S
C2537 C2532 1.390 . S
C2537 C2536 1.387 . S
H2538 C2550 0.930 . S
H2539 C2552 0.930 . S
H2540 C2553 0.930 . S
H2541 C2557 0.959 . S
H2542 C2557 0.959 . S
H2543 C2557 0.961 . S
H2544 C2558 0.960 . S
H2545 C2558 0.961 . S
H2546 C2558 0.959 . S
H2547 C2561 0.929 . S
H2548 C2562 0.931 . S
H2549 C2564 0.930 . S
C2550 H2538 0.930 . S
C2550 C2551 1.399 . S
C2550 C2555 1.399 . S
C2551 C2550 1.399 . S
C2551 C2552 1.376 . S
C2552 H2539 0.930 . S
C2552 C2551 1.376 . S
C2552 C2553 1.388 . S
C2553 H2540 0.930 . S
C2553 C2552 1.388 . S
C2553 C2554 1.390 . S
C2554 C2553 1.390 . S
C2554 C2555 1.394 . S
C2554 C2560 1.465 . S
C2555 C2550 1.399 . S
C2555 C2554 1.394 . S
C2555 C2556 1.516 . S
C2556 C2555 1.516 . S
C2556 C2557 1.502 . S
C2556 C2558 1.561 . S
C2556 C2559 1.526 . S
C2557 H2541 0.959 . S
C2557 H2542 0.959 . S
C2557 H2543 0.961 . S
C2557 C2556 1.502 . S
C2558 H2544 0.960 . S
C2558 H2545 0.961 . S
C2558 H2546 0.959 . S
C2558 C2556 1.561 . S
C2559 C2556 1.526 . S
C2559 C2560 1.396 . S
C2559 C2564 1.390 . S
C2560 C2554 1.465 . S
C2560 C2559 1.396 . S
C2560 C2561 1.399 . S
C2561 H2547 0.929 . S
C2561 C2560 1.399 . S
C2561 C2562 1.385 . S
C2562 H2548 0.931 . S
C2562 C2561 1.385 . S
C2562 C2563 1.389 . S
C2563 C2562 1.389 . S
C2563 C2564 1.387 . S
C2564 H2549 0.930 . S
C2564 C2559 1.390 . S
C2564 C2563 1.387 . S
H2565 C2577 0.930 . S
H2566 C2579 0.930 . S
H2567 C2580 0.930 . S
H2568 C2584 0.959 . S
H2569 C2584 0.959 . S
H2570 C2584 0.961 . S
H2571 C2585 0.960 . S
H2572 C2585 0.961 . S
H2573 C2585 0.959 . S
H2574 C2588 0.929 . S
H2575 C2589 0.931 . S
H2576 C2591 0.930 . S
C2577 H2565 0.930 . S
C2577 C2578 1.399 . S
C2577 C2582 1.399 . S
C2578 C2577 1.399 . S
C2578 C2579 1.376 . S
C2579 H2566 0.930 . S
C2579 C2578 1.376 . S
C2579 C2580 1.388 . S
C2580 H2567 0.930 . S
C2580 C2579 1.388 . S
C2580 C2581 1.390 . S
C2581 C2580 1.390 . S
C2581 C2582 1.394 . S
C2581 C2587 1.465 . S
C2582 C2577 1.399 . S
C2582 C2581 1.394 . S
C2582 C2583 1.516 . S
C2583 C2582 1.516 . S
C2583 C2584 1.502 . S
C2583 C2585 1.561 . S
C2583 C2586 1.526 . S
C2584 H2568 0.959 . S
C2584 H2569 0.959 . S
C2584 H2570 0.961 . S
C2584 C2583 1.502 . S
C2585 H2571 0.960 . S
C2585 H2572 0.961 . S
C2585 H2573 0.959 . S
C2585 C2583 1.561 . S
C2586 C2583 1.526 . S
C2586 C2587 1.396 . S
C2586 C2591 1.390 . S
C2587 C2581 1.465 . S
C2587 C2586 1.396 . S
C2587 C2588 1.399 . S
C2588 H2574 0.929 . S
C2588 C2587 1.399 . S
C2588 C2589 1.385 . S
C2589 H2575 0.931 . S
C2589 C2588 1.385 . S
C2589 C2590 1.389 . S
C2590 C2589 1.389 . S
C2590 C2591 1.387 . S
C2591 H2576 0.930 . S
C2591 C2586 1.390 . S
C2591 C2590 1.387 . S
H2592 C2604 0.930 . S
H2593 C2606 0.930 . S
H2594 C2607 0.930 . S
H2595 C2611 0.959 . S
H2596 C2611 0.959 . S
H2597 C2611 0.961 . S
H2598 C2612 0.960 . S
H2599 C2612 0.961 . S
H2600 C2612 0.959 . S
H2601 C2615 0.929 . S
H2602 C2616 0.931 . S
H2603 C2618 0.930 . S
C2604 H2592 0.930 . S
C2604 C2605 1.399 . S
C2604 C2609 1.399 . S
C2605 C2604 1.399 . S
C2605 C2606 1.376 . S
C2606 H2593 0.930 . S
C2606 C2605 1.376 . S
C2606 C2607 1.388 . S
C2607 H2594 0.930 . S
C2607 C2606 1.388 . S
C2607 C2608 1.390 . S
C2608 C2607 1.390 . S
C2608 C2609 1.394 . S
C2608 C2614 1.465 . S
C2609 C2604 1.399 . S
C2609 C2608 1.394 . S
C2609 C2610 1.516 . S
C2610 C2609 1.516 . S
C2610 C2611 1.502 . S
C2610 C2612 1.561 . S
C2610 C2613 1.526 . S
C2611 H2595 0.959 . S
C2611 H2596 0.959 . S
C2611 H2597 0.961 . S
C2611 C2610 1.502 . S
C2612 H2598 0.960 . S
C2612 H2599 0.961 . S
C2612 H2600 0.959 . S
C2612 C2610 1.561 . S
C2613 C2610 1.526 . S
C2613 C2614 1.396 . S
C2613 C2618 1.390 . S
C2614 C2608 1.465 . S
C2614 C2613 1.396 . S
C2614 C2615 1.399 . S
C2615 H2601 0.929 . S
C2615 C2614 1.399 . S
C2615 C2616 1.385 . S
C2616 H2602 0.931 . S
C2616 C2615 1.385 . S
C2616 C2617 1.389 . S
C2617 C2616 1.389 . S
C2617 C2618 1.387 . S
C2618 H2603 0.930 . S
C2618 C2613 1.390 . S
C2618 C2617 1.387 . S
H2619 C2631 0.930 . S
H2620 C2633 0.930 . S
H2621 C2634 0.930 . S
H2622 C2638 0.959 . S
H2623 C2638 0.959 . S
H2624 C2638 0.961 . S
H2625 C2639 0.960 . S
H2626 C2639 0.961 . S
H2627 C2639 0.959 . S
H2628 C2642 0.929 . S
H2629 C2643 0.931 . S
H2630 C2645 0.930 . S
C2631 H2619 0.930 . S
C2631 C2632 1.399 . S
C2631 C2636 1.399 . S
C2632 C2631 1.399 . S
C2632 C2633 1.376 . S
C2633 H2620 0.930 . S
C2633 C2632 1.376 . S
C2633 C2634 1.388 . S
C2634 H2621 0.930 . S
C2634 C2633 1.388 . S
C2634 C2635 1.390 . S
C2635 C2634 1.390 . S
C2635 C2636 1.394 . S
C2635 C2641 1.465 . S
C2636 C2631 1.399 . S
C2636 C2635 1.394 . S
C2636 C2637 1.516 . S
C2637 C2636 1.516 . S
C2637 C2638 1.502 . S
C2637 C2639 1.561 . S
C2637 C2640 1.526 . S
C2638 H2622 0.959 . S
C2638 H2623 0.959 . S
C2638 H2624 0.961 . S
C2638 C2637 1.502 . S
C2639 H2625 0.960 . S
C2639 H2626 0.961 . S
C2639 H2627 0.959 . S
C2639 C2637 1.561 . S
C2640 C2637 1.526 . S
C2640 C2641 1.396 . S
C2640 C2645 1.390 . S
C2641 C2635 1.465 . S
C2641 C2640 1.396 . S
C2641 C2642 1.399 . S
C2642 H2628 0.929 . S
C2642 C2641 1.399 . S
C2642 C2643 1.385 . S
C2643 H2629 0.931 . S
C2643 C2642 1.385 . S
C2643 C2644 1.389 . S
C2644 C2643 1.389 . S
C2644 C2645 1.387 . S
C2645 H2630 0.930 . S
C2645 C2640 1.390 . S
C2645 C2644 1.387 . S
H2646 C2658 0.930 . S
H2647 C2660 0.930 . S
H2648 C2661 0.930 . S
H2649 C2665 0.959 . S
H2650 C2665 0.959 . S
H2651 C2665 0.961 . S
H2652 C2666 0.960 . S
H2653 C2666 0.961 . S
H2654 C2666 0.959 . S
H2655 C2669 0.929 . S
H2656 C2670 0.931 . S
H2657 C2672 0.930 . S
C2658 H2646 0.930 . S
C2658 C2659 1.399 . S
C2658 C2663 1.399 . S
C2659 C2658 1.399 . S
C2659 C2660 1.376 . S
C2660 H2647 0.930 . S
C2660 C2659 1.376 . S
C2660 C2661 1.388 . S
C2661 H2648 0.930 . S
C2661 C2660 1.388 . S
C2661 C2662 1.390 . S
C2662 C2661 1.390 . S
C2662 C2663 1.394 . S
C2662 C2668 1.465 . S
C2663 C2658 1.399 . S
C2663 C2662 1.394 . S
C2663 C2664 1.516 . S
C2664 C2663 1.516 . S
C2664 C2665 1.502 . S
C2664 C2666 1.561 . S
C2664 C2667 1.526 . S
C2665 H2649 0.959 . S
C2665 H2650 0.959 . S
C2665 H2651 0.961 . S
C2665 C2664 1.502 . S
C2666 H2652 0.960 . S
C2666 H2653 0.961 . S
C2666 H2654 0.959 . S
C2666 C2664 1.561 . S
C2667 C2664 1.526 . S
C2667 C2668 1.396 . S
C2667 C2672 1.390 . S
C2668 C2662 1.465 . S
C2668 C2667 1.396 . S
C2668 C2669 1.399 . S
C2669 H2655 0.929 . S
C2669 C2668 1.399 . S
C2669 C2670 1.385 . S
C2670 H2656 0.931 . S
C2670 C2669 1.385 . S
C2670 C2671 1.389 . S
C2671 C2670 1.389 . S
C2671 C2672 1.387 . S
C2672 H2657 0.930 . S
C2672 C2667 1.390 . S
C2672 C2671 1.387 . S
H2673 C2685 0.930 . S
H2674 C2687 0.930 . S
H2675 C2688 0.930 . S
H2676 C2692 0.959 . S
H2677 C2692 0.959 . S
H2678 C2692 0.961 . S
H2679 C2693 0.960 . S
H2680 C2693 0.961 . S
H2681 C2693 0.959 . S
H2682 C2696 0.929 . S
H2683 C2697 0.931 . S
H2684 C2699 0.930 . S
C2685 H2673 0.930 . S
C2685 C2686 1.399 . S
C2685 C2690 1.399 . S
C2686 C2685 1.399 . S
C2686 C2687 1.376 . S
C2687 H2674 0.930 . S
C2687 C2686 1.376 . S
C2687 C2688 1.388 . S
C2688 H2675 0.930 . S
C2688 C2687 1.388 . S
C2688 C2689 1.390 . S
C2689 C2688 1.390 . S
C2689 C2690 1.394 . S
C2689 C2695 1.465 . S
C2690 C2685 1.399 . S
C2690 C2689 1.394 . S
C2690 C2691 1.516 . S
C2691 C2690 1.516 . S
C2691 C2692 1.502 . S
C2691 C2693 1.561 . S
C2691 C2694 1.526 . S
C2692 H2676 0.959 . S
C2692 H2677 0.959 . S
C2692 H2678 0.961 . S
C2692 C2691 1.502 . S
C2693 H2679 0.960 . S
C2693 H2680 0.961 . S
C2693 H2681 0.959 . S
C2693 C2691 1.561 . S
C2694 C2691 1.526 . S
C2694 C2695 1.396 . S
C2694 C2699 1.390 . S
C2695 C2689 1.465 . S
C2695 C2694 1.396 . S
C2695 C2696 1.399 . S
C2696 H2682 0.929 . S
C2696 C2695 1.399 . S
C2696 C2697 1.385 . S
C2697 H2683 0.931 . S
C2697 C2696 1.385 . S
C2697 C2698 1.389 . S
C2698 C2697 1.389 . S
C2698 C2699 1.387 . S
C2699 H2684 0.930 . S
C2699 C2694 1.390 . S
C2699 C2698 1.387 . S
H2700 C2712 0.930 . S
H2701 C2714 0.930 . S
H2702 C2715 0.930 . S
H2703 C2719 0.959 . S
H2704 C2719 0.959 . S
H2705 C2719 0.961 . S
H2706 C2720 0.960 . S
H2707 C2720 0.961 . S
H2708 C2720 0.959 . S
H2709 C2723 0.929 . S
H2710 C2724 0.931 . S
H2711 C2726 0.930 . S
C2712 H2700 0.930 . S
C2712 C2713 1.399 . S
C2712 C2717 1.399 . S
C2713 C2712 1.399 . S
C2713 C2714 1.376 . S
C2714 H2701 0.930 . S
C2714 C2713 1.376 . S
C2714 C2715 1.388 . S
C2715 H2702 0.930 . S
C2715 C2714 1.388 . S
C2715 C2716 1.390 . S
C2716 C2715 1.390 . S
C2716 C2717 1.394 . S
C2716 C2722 1.465 . S
C2717 C2712 1.399 . S
C2717 C2716 1.394 . S
C2717 C2718 1.516 . S
C2718 C2717 1.516 . S
C2718 C2719 1.502 . S
C2718 C2720 1.561 . S
C2718 C2721 1.526 . S
C2719 H2703 0.959 . S
C2719 H2704 0.959 . S
C2719 H2705 0.961 . S
C2719 C2718 1.502 . S
C2720 H2706 0.960 . S
C2720 H2707 0.961 . S
C2720 H2708 0.959 . S
C2720 C2718 1.561 . S
C2721 C2718 1.526 . S
C2721 C2722 1.396 . S
C2721 C2726 1.390 . S
C2722 C2716 1.465 . S
C2722 C2721 1.396 . S
C2722 C2723 1.399 . S
C2723 H2709 0.929 . S
C2723 C2722 1.399 . S
C2723 C2724 1.385 . S
C2724 H2710 0.931 . S
C2724 C2723 1.385 . S
C2724 C2725 1.389 . S
C2725 C2724 1.389 . S
C2725 C2726 1.387 . S
C2726 H2711 0.930 . S
C2726 C2721 1.390 . S
C2726 C2725 1.387 . S
C1282 C781 1.372 . S
C1294 C1094 1.337 . S
C1309 C871 1.394 . S
C1321 C1115 1.385 . S
C1336 C751 1.373 . S
C1348 C1135 1.173 . S
C1363 C691 1.366 . S
C1375 C1114 1.134 . S
C1402 C1136 1.364 . S
C1390 C571 1.451 . S
C1417 C601 1.363 . S
C1429 C1093 1.255 . S
C1456 C1095 1.308 . S
C1444 C661 1.380 . S
C1483 C1116 1.256 . S
C1471 C541 1.276 . S
C1498 C631 1.445 . S
C1510 C1138 1.282 1_556 S
C1525 C811 1.393 . S
C1537 C1117 1.257 . S
C1552 C841 1.268 . S
C1564 C1137 1.319 . S
C1591 C1096 1.181 1_554 S
C1579 C721 1.315 . S
C1618 C1157 1.396 . S
C1606 C61 1.440 . S
C1633 C151 1.426 . S
C1645 C1178 1.343 . S
C1660 C31 1.332 . S
C1672 C1198 1.131 . S
C1687 C1051 1.342 . S
C1699 C1177 1.168 . S
C1714 C931 1.428 . S
C1726 C1199 1.399 . S
C1741 C961 1.333 . S
C1753 C1156 1.227 . S
C1768 C1021 1.365 . S
C1780 C1158 1.372 . S
C1795 C901 1.329 . S
C1807 C1179 1.265 . S
C1834 C1201 1.116 . S
C1822 C991 1.475 . S
C1849 C91 1.416 . S
C1861 C1180 1.079 . S
C1888 C1200 1.299 . S
C1876 C121 1.247 . S
C1903 C1 1.372 . S
C1915 C1159 1.217 . S
C1942 C1220 1.315 . S
C1930 C421 1.389 . S
C1957 C511 1.408 . S
C1969 C1241 1.367 . S
C1996 C1261 1.191 . S
C1984 C391 1.366 . S
C2023 C1240 1.196 . S
C2011 C331 1.393 . S
C2050 C1262 1.379 . S
C2038 C211 1.443 . S
C2065 C241 1.394 . S
C2077 C1219 1.193 . S
C2092 C301 1.384 . S
C2104 C1221 1.319 . S
C2119 C181 1.349 . S
C2131 C1242 1.284 . S
C2158 C1264 1.201 . S
C2146 C271 1.449 . S
C2173 C451 1.412 . S
C2185 C1243 1.090 . S
C2200 C481 1.331 . S
C2212 C1263 1.265 . S
C2227 C361 1.396 . S
C2239 C1222 1.107 . S
C2254 C920 1.372 . S
C2266 C1098 1.352 . S
C2293 C1119 1.368 . S
C2281 C980 1.452 . S
C2308 C1040 1.490 . S
C2320 C1139 1.444 . S
C2335 C380 1.464 . S
C2347 C1118 1.524 1_655 S
C2362 C440 1.445 . S
C2374 C1140 1.426 . S
C2401 C1097 1.467 . S
C2389 C500 1.467 . S
C2416 C200 1.369 . S
C2428 C1161 1.387 . S
C2443 C260 1.450 . S
C2455 C1182 1.367 . S
C2470 C320 1.419 . S
C2482 C1202 1.493 . S
C2497 C740 1.528 . S
C2509 C1181 1.484 . S
C2536 C1203 1.449 . S
C2524 C800 1.418 . S
C2551 C860 1.427 . S
C2563 C1160 1.509 . S
C2578 C560 1.373 . S
C2590 C1224 1.390 . S
C2605 C620 1.453 . S
C2617 C1245 1.369 . S
C2644 C1265 1.471 . S
C2632 C680 1.442 . S
C2659 C20 1.460 . S
C2671 C1244 1.533 . S
C2686 C80 1.421 . S
C2698 C1266 1.450 . S
C2713 C140 1.496 . S
C2725 C1223 1.458 . S
