# Generated by pormake.
# Topology pts, (4,4)-cn, num edge types: 1
# Building blocks:
#     Node 0, Type 0, BuildingBlock: KUFVIS_clean_linker_0, # of connection points: 4
#     Node 1, Type 0, BuildingBlock: KUFVIS_clean_linker_0, # of connection points: 4
#     Node 2, Type 1, BuildingBlock: AZAVOO_clean_sbu_0, # of connection points: 4
#     Node 3, Type 1, BuildingBlock: AZAVOO_clean_sbu_0, # of connection points: 4
#     Edge 4, Type (0, 1), BuildingBlock: MIFKUJ_clean_linker_0, # of connection points: 2
#     Edge 5, Type (0, 1), BuildingBlock: MIFKUJ_clean_linker_0, # of connection points: 2
#     Edge 6, Type (0, 1), BuildingBlock: MIFKUJ_clean_linker_0, # of connection points: 2
#     Edge 7, Type (0, 1), BuildingBlock: MIFKUJ_clean_linker_0, # of connection points: 2
#     Edge 8, Type (0, 1), BuildingBlock: MIFKUJ_clean_linker_0, # of connection points: 2
#     Edge 9, Type (0, 1), BuildingBlock: MIFKUJ_clean_linker_0, # of connection points: 2
#     Edge 10, Type (0, 1), BuildingBlock: MIFKUJ_clean_linker_0, # of connection points: 2
#     Edge 11, Type (0, 1), BuildingBlock: MIFKUJ_clean_linker_0, # of connection points: 2
# Relax obj value: 0.013
# Max RMSD: 0.077
# Mean RMSD: 0.073
data_MOF--net-pts--node1-AZAVOO_clean_sbu_0--node2-KUFVIS_clean_linker_0--edge1-MIFKUJ_clean_linker_0
_symmetry_space_group_name_H-M    P1
_symmetry_Int_Tables_number       1
_symmetry_cell_setting            triclinic
loop_
_symmetry_equiv_pos_as_xyz
'x, y, z'
_cell_length_a     32.439615
_cell_length_b     33.537231
_cell_length_c     44.311651
_cell_angle_alpha  89.904346
_cell_angle_beta   95.683524
_cell_angle_gamma 90.568557
loop_
_atom_site_label
_atom_site_type_symbol
_atom_site_fract_x
_atom_site_fract_y
_atom_site_fract_z
_atom_type_partial_charge
H0 H 0.39415 0.0207 0.98995 0.0
H1 H 0.50322 0.01897 0.94331 0.0
H2 H 0.51044 0.05165 0.03849 0.0
H3 H 0.57447 0.03066 0.03944 0.0
H4 H 0.67937 0.05693 -0.00869 0.0
H5 H 0.55871 0.05648 0.94299 0.0
C6 C 0.42751 0.02393 0.99041 0.0
C7 C 0.45062 0.03449 0.01755 0.0
C8 C 0.44617 0.0189 0.96362 0.0
C9 C 0.48921 0.02452 0.96402 0.0
C10 C 0.51364 0.03629 -0.00905 0.0
C11 C 0.49339 0.04179 0.0176 0.0
C12 C 0.55982 0.04268 -0.00879 0.0
C13 C 0.58657 0.03894 0.01842 0.0
C14 C 0.62949 0.04574 0.01875 0.0
C15 C 0.64605 0.05423 -0.00852 0.0
C16 C 0.62082 0.05751 0.96418 0.0
C17 C 0.57778 0.05236 0.96417 0.0
H18 H 0.06786 0.65437 0.49286 0.0
H19 H 0.05983 0.54545 0.54268 0.0
H20 H 0.03397 0.54696 0.44479 0.0
H21 H 0.05645 0.48539 0.44842 0.0
H22 H 0.01718 0.38094 0.49313 0.0
H23 H 0.01798 0.49311 0.53922 0.0
C24 C 0.0629 0.62235 0.49323 0.0
C25 C 0.053 0.60227 0.46585 0.0
C26 C 0.06429 0.60222 0.521 0.0
C27 C 0.05685 0.56086 0.52113 0.0
C28 C 0.04626 0.53979 0.49374 0.0
C29 C 0.04345 0.56145 0.46618 0.0
C30 C 0.0381 0.49559 0.49377 0.0
C31 C 0.04443 0.47219 0.46809 0.0
C32 C 0.03512 0.4313 0.4674 0.0
C33 C 0.02193 0.41299 0.49317 0.0
C34 C 0.01657 0.43491 0.51932 0.0
C35 C 0.02394 0.47629 0.51933 0.0
Mg36 Mg 0.08092 1.00715 0.2584 0.0
O37 O 1.01434 0.00828 0.2336 0.0
O38 O 0.9717 0.99536 0.26932 0.0
Mg39 Mg 1.00863 0.98957 0.31558 0.0
C40 C 0.97793 1.00251 0.24181 0.0
C41 C 0.14463 0.05236 0.22541 0.0
O42 O 0.15453 0.06081 0.25418 0.0
O43 O 0.07148 0.06925 0.27737 0.0
O44 O 0.02871 0.05546 0.31264 0.0
O45 O 0.08347 0.94097 0.25235 0.0
O46 O 0.06089 0.9705 0.29193 0.0
C47 C 0.05019 0.08022 0.29858 0.0
C48 C 0.06714 0.93801 0.27776 0.0
O49 O 0.11178 0.03208 0.2181 0.0
Mg50 Mg 0.99483 1.00745 0.7202 0.0
O51 O 0.05947 0.01048 0.74813 0.0
O52 O 0.10477 1.0075 0.71305 0.0
Mg53 Mg 0.07171 0.9981 0.6657 0.0
C54 C 0.09664 0.01085 0.74056 0.0
C55 C 0.92115 0.01591 0.75328 0.0
O56 O 0.91185 0.99396 0.72896 0.0
O57 O 1.00373 0.07103 0.70329 0.0
O58 O 0.04684 0.06213 0.66766 0.0
O59 O 0.99238 0.94139 0.72491 0.0
O60 O 0.0201 0.97259 0.68791 0.0
C61 C 0.02405 0.08457 0.68219 0.0
C62 C 1.01218 0.93942 0.70103 0.0
O63 O 0.95816 0.029 0.75849 0.0
H64 H 0.45504 0.09541 0.05952 0.0
H65 H 0.40767 0.10591 0.09893 0.0
H66 H 0.34746 0.99341 0.0758 0.0
H67 H 0.3952 0.98204 0.03755 0.0
H68 H 0.29779 0.07509 0.07223 0.0
H69 H 0.38948 0.98468 0.13408 0.0
H70 H 0.45758 0.96567 0.15943 0.0
H71 H 0.46429 0.07534 0.20965 0.0
H72 H 0.39641 0.09523 0.18421 0.0
H73 H 0.14542 0.0218 0.16817 0.0
H74 H 0.20115 0.02737 0.13514 0.0
H75 H 0.26842 0.10677 0.19932 0.0
H76 H 0.21329 0.1004 0.23286 0.0
H77 H 0.31873 0.05304 0.18338 0.0
H78 H 0.22357 0.1398 0.1288 0.0
H79 H 0.15679 0.1623 0.10339 0.0
H80 H 0.15757 0.0667 0.03912 0.0
H81 H 0.2241 0.04326 0.06441 0.0
C82 C 0.43254 0.07244 0.06355 0.0
C83 C 0.42845 0.03815 0.04521 0.0
C84 C 0.40537 0.07859 0.08585 0.0
C85 C 0.37391 0.05058 0.08989 0.0
C86 C 0.37138 0.01544 0.07281 0.0
C87 C 0.39866 0.00905 0.05098 0.0
C88 C 0.34121 0.05879 0.10997 0.0
C89 C 0.30216 0.07025 0.09655 0.0
C90 C 0.34755 0.05364 0.14168 0.0
C91 C 0.38824 0.0417 0.15692 0.0
C92 C 0.40573 1.00495 0.15024 0.0
C93 C 0.44421 0.99396 0.1647 0.0
C94 C 0.46534 0.01936 0.18604 0.0
C95 C 0.44794 0.05575 0.19305 0.0
C96 C 0.40947 0.06688 0.17862 0.0
C97 C 0.17169 0.04104 0.175 0.0
C98 C 0.17492 0.06058 0.20318 0.0
C99 C 0.20359 0.04429 0.15605 0.0
C100 C 0.23903 0.06771 0.16461 0.0
C101 C 0.24154 0.08842 0.19224 0.0
C102 C 0.20985 0.08489 0.21132 0.0
C103 C 0.27444 0.06846 0.14562 0.0
C104 C 0.31415 0.05868 0.15917 0.0
C105 C 0.26879 0.07566 0.11398 0.0
C106 C 0.22872 0.0896 0.09866 0.0
C107 C 0.20936 0.12338 0.10939 0.0
C108 C 0.17157 0.13634 0.09498 0.0
C109 C 0.15291 0.1159 0.06969 0.0
C110 C 0.17205 0.08249 0.05873 0.0
C111 C 0.20984 0.06939 0.07307 0.0
H112 H 0.12365 0.12598 0.05857 0.0
H113 H 0.49512 0.01079 0.19722 0.0
H114 H 0.95864 0.37591 0.52259 0.0
H115 H 0.95467 0.3283 0.56353 0.0
H116 H 0.04526 0.39713 0.61995 0.0
H117 H 0.05126 0.44375 0.57796 0.0
H118 H 0.06975 0.32673 0.62063 0.0
H119 H 0.94135 0.37953 0.63884 0.0
H120 H 0.87112 0.40663 0.62776 0.0
H121 H 0.82835 0.29459 0.58905 0.0
H122 H 0.89843 0.26694 0.59946 0.0
H123 H 0.98342 0.14417 0.70963 0.0
H124 H 0.97876 0.21468 0.69508 0.0
H125 H 0.05219 0.19201 0.62103 0.0
H126 H 0.05778 0.12228 0.63567 0.0
H127 H 0.94581 0.25092 0.64618 0.0
H128 H 0.11243 0.26747 0.60712 0.0
H129 H 0.18296 0.24398 0.62329 0.0
H130 H 0.1497 0.22543 0.7137 0.0
H131 H 0.07915 0.24938 0.69822 0.0
C132 C 0.97717 0.38137 0.54392 0.0
C133 C 1.00586 0.41317 0.54682 0.0
C134 C 0.97448 0.35431 0.56758 0.0
C135 C 0.9996 0.35893 0.59507 0.0
C136 C 0.02565 0.39273 0.59896 0.0
C137 C 0.02878 0.41962 0.57503 0.0
C138 C 1.00297 0.32552 0.61739 0.0
C139 C 0.04257 0.31059 0.62657 0.0
C140 C 0.96771 0.30485 0.62613 0.0
C141 C 0.92529 0.32118 0.6199 0.0
C142 C 0.91704 0.36071 0.62781 0.0
C143 C 0.87723 0.37617 0.62166 0.0
C144 C 0.8453 0.35236 0.60771 0.0
C145 C 0.85311 0.313 0.59991 0.0
C146 C 0.89287 0.29738 0.60599 0.0
C147 C 0.99881 0.15429 0.69037 0.0
C148 C 0.02116 0.12748 0.67393 0.0
C149 C 0.99605 0.19461 0.68207 0.0
C150 C 1.0157 0.20887 0.65727 0.0
C151 C 0.03762 0.18204 0.64072 0.0
C152 C 0.04057 0.14197 0.64904 0.0
C153 C 1.01234 0.25131 0.64759 0.0
C154 C 0.97287 0.26777 0.64085 0.0
C155 C 0.04773 0.27406 0.64189 0.0
C156 C 0.09037 0.26008 0.65144 0.0
C157 C 0.12021 0.25866 0.6305 0.0
C158 C 0.1602 0.24518 0.63954 0.0
C159 C 0.17078 0.23316 0.66948 0.0
C160 C 0.14143 0.23466 0.69048 0.0
C161 C 0.10142 0.24813 0.68158 0.0
H162 H 0.20174 0.22271 0.67642 0.0
H163 H 0.8145 0.3644 0.60295 0.0
H164 H 0.63218 0.98899 0.06408 0.0
H165 H 0.6878 0.98004 0.10548 0.0
H166 H 0.74866 0.08659 0.07721 0.0
H167 H 0.69283 0.09669 0.03694 0.0
H168 H 0.79616 0.00821 0.08058 0.0
H169 H 0.71326 0.09774 0.13606 0.0
H170 H 0.64908 0.11692 0.15758 0.0
H171 H 0.65293 0.00944 0.21054 0.0
H172 H 0.71687 0.98934 0.18896 0.0
H173 H 0.97033 0.04108 0.18687 0.0
H174 H 0.908 0.04657 0.15122 0.0
H175 H 0.84072 0.97214 0.20944 0.0
H176 H 0.90223 0.96809 0.24563 0.0
H177 H 0.7934 0.02862 0.19118 0.0
H178 H 0.875 0.93837 0.14031 0.0
H179 H 0.93676 0.91312 0.11855 0.0
H180 H 0.9329 0.01191 0.0566 0.0
H181 H 0.87142 0.03807 0.07828 0.0
C182 C 0.65679 0.01108 0.06727 0.0
C183 C 0.65841 0.04323 0.04696 0.0
C184 C 0.68864 1.00577 0.09074 0.0
C185 C 0.72248 0.03242 0.09402 0.0
C186 C 0.723 0.06552 0.0748 0.0
C187 C 0.6911 0.07115 0.05178 0.0
C188 C 0.75893 0.0248 0.11602 0.0
C189 C 0.79581 0.0129 0.10478 0.0
C190 C 0.7578 0.02962 0.14755 0.0
C191 C 0.71952 0.0418 0.1606 0.0
C192 C 0.70018 0.07799 0.15204 0.0
C193 C 0.66391 0.08908 0.16431 0.0
C194 C 0.64685 0.06434 0.18533 0.0
C195 C 0.66612 0.02853 0.19421 0.0
C196 C 0.70239 0.01729 0.18198 0.0
C197 C 0.94231 0.0257 0.19193 0.0
C198 C 0.94126 1.00417 0.21906 0.0
C199 C 0.90667 0.0287 0.17148 0.0
C200 C 0.86958 0.00934 0.17737 0.0
C201 C 0.86875 0.98749 0.20434 0.0
C202 C 0.90406 0.98509 0.225 0.0
C203 C 0.83141 0.01253 0.15582 0.0
C204 C 0.79404 0.02352 0.16707 0.0
C205 C 0.83184 1.00597 0.12427 0.0
C206 C 0.86882 0.99037 0.11113 0.0
C207 C 0.8875 0.95487 0.1222 0.0
C208 C 0.92243 0.94038 0.10986 0.0
C209 C 0.9388 0.96095 0.08626 0.0
C210 C 0.92021 0.99603 0.07491 0.0
C211 C 0.8853 0.01069 0.0872 0.0
H212 H 0.96584 0.94968 0.07673 0.0
H213 H 0.61876 0.07298 0.19481 0.0
H214 H 0.02029 0.59678 0.57045 0.0
H215 H 0.01854 0.64635 0.61079 0.0
H216 H 0.11777 0.71208 0.57486 0.0
H217 H 0.12089 0.66179 0.53545 0.0
H218 H 0.12312 0.72109 0.63433 0.0
H219 H 1.01557 0.73088 0.55152 0.0
H220 H 0.95628 0.70648 0.51711 0.0
H221 H 0.88545 0.68826 0.59292 0.0
H222 H 0.94461 0.71187 0.62787 0.0
H223 H 0.06757 0.92443 0.65946 0.0
H224 H 0.08315 0.85982 0.63779 0.0
H225 H 0.9987 0.80182 0.69342 0.0
H226 H 0.98355 0.86608 0.71565 0.0
H227 H 0.98527 0.78495 0.62949 0.0
H228 H 0.09326 0.78499 0.71124 0.0
H229 H 0.15326 0.81207 0.74333 0.0
H230 H 0.22411 0.81623 0.66646 0.0
H231 H 0.16412 0.7898 0.63373 0.0
C232 C 0.04277 0.62097 0.57186 0.0
C233 C 0.07019 0.62584 0.54945 0.0
C234 C 0.04146 0.64952 0.59473 0.0
C235 C 0.06719 0.68357 0.59528 0.0
C236 C 0.09731 0.68633 0.57473 0.0
C237 C 0.09888 0.65768 0.55208 0.0
C238 C 0.05972 0.71841 0.61461 0.0
C239 C 0.09302 0.73511 0.63321 0.0
C240 C 0.02034 0.73662 0.61334 0.0
C241 C 0.98467 0.72267 0.59234 0.0
C242 C 0.98745 0.72139 0.56087 0.0
C243 C 0.95387 0.70775 0.54127 0.0
C244 C 0.91717 0.69577 0.55282 0.0
C245 C 0.91394 0.69748 0.58401 0.0
C246 C 0.94748 0.71096 0.60373 0.0
C247 C 0.05269 0.89793 0.66736 0.0
C248 C 0.02429 0.90042 0.68925 0.0
C249 C 0.06173 0.86102 0.65503 0.0
C250 C 0.04212 0.82612 0.6641 0.0
C251 C 1.0142 0.82843 0.68621 0.0
C252 C 1.0057 0.86518 0.69891 0.0
C253 C 0.04867 0.78764 0.64903 0.0
C254 C 1.01519 0.77051 0.63101 0.0
C255 C 0.08799 0.76955 0.65044 0.0
C256 C 0.12405 0.78574 0.66997 0.0
C257 C 0.12147 0.79208 0.70109 0.0
C258 C 0.15554 0.80724 0.71942 0.0
C259 C 0.19252 0.81592 0.70695 0.0
C260 C 0.19544 0.80951 0.67609 0.0
C261 C 0.16141 0.79442 0.65764 0.0
H262 H 0.21895 0.82744 0.72121 0.0
H263 H 0.8912 0.68524 0.53761 0.0
H264 H 0.44474 0.05618 0.90846 0.0
H265 H 0.38904 0.05212 0.86684 0.0
H266 H 0.32915 0.95936 0.91472 0.0
H267 H 0.38543 0.96216 0.95547 0.0
H268 H 0.31509 0.94583 0.85723 0.0
H269 H 0.30451 0.05976 0.92107 0.0
H270 H 0.32833 0.12202 0.94703 0.0
H271 H 0.3399 0.17812 0.86105 0.0
H272 H 0.3167 0.11594 0.83458 0.0
H273 H 0.1037 0.98095 0.79852 0.0
H274 H 0.1665 0.98025 0.83458 0.0
H275 H 0.23236 0.04769 0.77139 0.0
H276 H 0.17039 0.04762 0.73514 0.0
H277 H 0.2438 0.07434 0.83493 0.0
H278 H 0.24885 0.95687 0.7722 0.0
H279 H 0.22227 0.89357 0.74939 0.0
H280 H 0.21661 0.84325 0.83808 0.0
H281 H 0.24234 0.90664 0.86144 0.0
C282 C 0.42043 0.03399 0.90953 0.0
C283 C 0.41908 0.00989 0.93538 0.0
C284 C 0.38831 0.03204 0.88596 0.0
C285 C 0.35416 1.00629 0.88807 0.0
C286 C 0.35481 0.97978 0.91263 0.0
C287 C 0.38697 0.98148 0.93598 0.0
C288 C 0.31626 0.00897 0.86629 0.0
C289 C 0.29942 0.97392 0.85257 0.0
C290 C 0.29563 0.04559 0.86005 0.0
C291 C 0.30933 0.08308 0.87586 0.0
C292 C 0.31241 0.08529 0.90771 0.0
C293 C 0.32577 0.12057 0.92251 0.0
C294 C 0.33574 0.15397 0.9057 0.0
C295 C 0.33225 0.15219 0.87404 0.0
C296 C 0.31899 0.11695 0.85912 0.0
C297 C 0.13143 0.99606 0.79257 0.0
C298 C 0.13225 0.01424 0.76403 0.0
C299 C 0.16727 0.99546 0.81305 0.0
C300 C 0.20406 0.01371 0.80549 0.0
C301 C 0.20431 0.03339 0.7776 0.0
C302 C 0.16892 0.03325 0.75693 0.0
C303 C 0.24285 0.01127 0.82609 0.0
C304 C 0.25971 0.04636 0.83957 0.0
C305 C 0.26298 0.9746 0.8326 0.0
C306 C 0.24707 0.93666 0.81856 0.0
C307 C 0.24145 0.93249 0.78684 0.0
C308 C 0.22663 0.89654 0.77381 0.0
C309 C 0.21774 0.8644 0.79228 0.0
C310 C 0.22349 0.86819 0.82381 0.0
C311 C 0.23816 0.90412 0.83695 0.0
H312 H 0.20659 0.83649 0.7822 0.0
H313 H 0.34606 0.18127 0.9172 0.0
H314 H 0.10182 0.42574 0.43389 0.0
H315 H 0.11221 0.37448 0.39563 0.0
H316 H 0.98876 0.32912 0.40272 0.0
H317 H 0.97797 0.3802 0.44023 0.0
H318 H 0.07031 0.27781 0.4201 0.0
H319 H 0.99026 0.36115 0.34406 0.0
H320 H 0.98021 0.42262 0.31373 0.0
H321 H 0.09689 0.405 0.27786 0.0
H322 H 0.10789 0.34368 0.30838 0.0
H323 H 0.99953 0.11622 0.33549 0.0
H324 H 1.00537 0.18339 0.35614 0.0
H325 H 0.10945 0.20772 0.30527 0.0
H326 H 0.10358 0.14006 0.28397 0.0
H327 H 0.05546 0.27369 0.30758 0.0
H328 H 0.13121 0.18584 0.37602 0.0
H329 H 0.14439 0.12481 0.40638 0.0
H330 H 0.04272 0.15191 0.45773 0.0
H331 H 0.02849 0.21281 0.42736 0.0
C332 C 0.07652 0.40562 0.42647 0.0
C333 C 0.03928 0.40651 0.44022 0.0
C334 C 0.0825 0.37643 0.40472 0.0
C335 C 0.0512 0.34819 0.39649 0.0
C336 C 1.01316 0.35081 0.40876 0.0
C337 C 1.00714 0.37984 0.43025 0.0
C338 C 0.05949 0.31216 0.3791 0.0
C339 C 0.06719 0.27685 0.3955 0.0
C340 C 0.0569 0.31144 0.3471 0.0
C341 C 0.05019 0.34822 0.32885 0.0
C342 C 1.01402 0.37066 0.33002 0.0
C343 C 1.00807 0.4054 0.31271 0.0
C344 C 0.03797 0.41781 0.29398 0.0
C345 C 0.07381 0.39542 0.29244 0.0
C346 C 0.0799 0.36067 0.30973 0.0
C347 C 0.02352 0.1358 0.3284 0.0
C348 C 0.05148 0.12249 0.3084 0.0
C349 C 0.02678 0.17426 0.34024 0.0
C350 C 0.05831 0.20024 0.33267 0.0
C351 C 0.08503 0.188 0.31149 0.0
C352 C 0.08166 0.14933 0.29943 0.0
C353 C 0.06429 0.23895 0.34867 0.0
C354 C 0.05953 0.27469 0.33216 0.0
C355 C 0.07008 0.24029 0.38073 0.0
C356 C 0.07866 0.20382 0.39928 0.0
C357 C 0.11148 0.17866 0.39365 0.0
C358 C 0.11916 0.1441 0.41088 0.0
C359 C 0.09437 0.13446 0.43395 0.0
C360 C 0.0619 0.15942 0.43986 0.0
C361 C 0.05405 0.194 0.42267 0.0
H362 H 0.10037 0.10768 0.44726 0.0
H363 H 0.03331 0.4447 0.28058 0.0
H364 H 0.68059 0.11222 0.95391 0.0
H365 H 0.72633 0.11081 0.91348 0.0
H366 H 0.65323 0.01504 0.86994 0.0
H367 H 0.6081 0.01545 0.91118 0.0
H368 H 0.73112 0.99486 0.87768 0.0
H369 H 0.66038 0.10989 0.83712 0.0
H370 H 0.63023 0.17704 0.83769 0.0
H371 H 0.75047 0.22741 0.86446 0.0
H372 H 0.7813 0.16047 0.86448 0.0
H373 H 0.84334 0.98445 0.74987 0.0
H374 H 0.789 0.99739 0.78256 0.0
H375 H 0.8697 0.07963 0.83531 0.0
H376 H 0.9249 0.06678 0.80238 0.0
H377 H 0.78704 0.10775 0.8212 0.0
H378 H 0.85633 0.99156 0.86369 0.0
H379 H 0.88582 0.92417 0.86245 0.0
H380 H 0.76613 0.87605 0.83094 0.0
H381 H 0.73603 0.94328 0.83158 0.0
C382 C 0.67368 0.0915 0.93532 0.0
C383 C 0.64101 0.06368 0.93584 0.0
C384 C 0.69975 0.09087 0.91208 0.0
C385 C 0.69336 0.06279 0.88858 0.0
C386 C 0.65888 0.0369 0.88788 0.0
C387 C 0.63282 0.03741 0.91127 0.0
C388 C 0.72531 0.05744 0.86704 0.0
C389 C 0.74265 0.01947 0.86487 0.0
C390 C 0.7415 0.08973 0.85106 0.0
C391 C 0.7231 0.13008 0.85104 0.0
C392 C 0.68036 0.13524 0.84336 0.0
C393 C 0.66315 0.17328 0.84354 0.0
C394 C 0.6884 0.20646 0.85117 0.0
C395 C 0.73094 0.20167 0.85858 0.0
C396 C 0.74831 0.16369 0.85846 0.0
C397 C 0.84975 1.00537 0.76837 0.0
C398 C 0.88864 0.02445 0.77359 0.0
C399 C 0.81854 0.01268 0.78707 0.0
C400 C 0.82538 0.03924 0.81147 0.0
C401 C 0.86385 0.059 0.81656 0.0
C402 C 0.89538 0.05148 0.79787 0.0
C403 C 0.79238 0.04529 0.83191 0.0
C404 C 0.7751 0.08327 0.83392 0.0
C405 C 0.77602 0.01302 0.84769 0.0
C406 C 0.79401 0.97252 0.8474 0.0
C407 C 0.83637 0.96666 0.85626 0.0
C408 C 0.85318 0.92848 0.85571 0.0
C409 C 0.82789 0.89586 0.84654 0.0
C410 C 0.7857 0.90135 0.83799 0.0
C411 C 0.76874 0.93948 0.83847 0.0
H412 H 0.84096 0.86632 0.84614 0.0
H413 H 0.67502 0.23589 0.85129 0.0
H414 H 0.11429 0.64884 0.44737 0.0
H415 H 0.1093 0.69656 0.40555 0.0
H416 H 0.98458 0.65586 0.37821 0.0
H417 H 0.98945 0.60804 0.42053 0.0
H418 H 0.09462 0.69719 0.34495 0.0
H419 H 0.92712 0.73991 0.36164 0.0
H420 H 0.87849 0.73613 0.4011 0.0
H421 H 0.9807 0.73941 0.47054 0.0
H422 H 0.02974 0.74355 0.43155 0.0
H423 H 0.05926 0.86579 0.24873 0.0
H424 H 0.047 0.80058 0.27145 0.0
H425 H 0.04114 0.85699 0.35842 0.0
H426 H 0.05138 0.92194 0.33562 0.0
H427 H 0.98818 0.8005 0.35423 0.0
H428 H 0.13231 0.81202 0.33503 0.0
H429 H 0.18988 0.82135 0.30316 0.0
H430 H 0.14848 0.71884 0.25019 0.0
H431 H 0.09038 0.70919 0.28159 0.0
C432 C 0.08613 0.64954 0.43203 0.0
C433 C 0.05211 0.62515 0.43723 0.0
C434 C 0.08337 0.67662 0.40806 0.0
C435 C 0.04644 0.68005 0.38896 0.0
C436 C 1.01327 0.65384 0.39285 0.0
C437 C 1.01611 0.62647 0.41686 0.0
C438 C 0.04167 0.71409 0.36753 0.0
C439 C 0.07092 0.71948 0.34655 0.0
C440 C 1.01135 0.74359 0.37013 0.0
C441 C 0.98201 0.74145 0.39369 0.0
C442 C 0.93912 0.73983 0.38534 0.0
C443 C 0.91151 0.73762 0.40763 0.0
C444 C 0.92649 0.7373 0.43832 0.0
C445 C 0.9691 0.73939 0.44679 0.0
C446 C 0.99681 0.74163 0.42461 0.0
C447 C 0.05481 0.86421 0.27261 0.0
C448 C 0.05653 0.8989 0.29045 0.0
C449 C 0.04796 0.82694 0.2856 0.0
C450 C 0.04382 0.82368 0.3168 0.0
C451 C 0.04409 0.85858 0.33431 0.0
C452 C 0.05012 0.89578 0.32125 0.0
C453 C 0.04175 0.7842 0.33196 0.0
C454 C 1.01112 0.77771 0.35179 0.0
C455 C 0.0719 0.75446 0.3292 0.0
C456 C 0.10677 0.7602 0.31037 0.0
C457 C 0.13536 0.79165 0.31645 0.0
C458 C 0.16808 0.79697 0.2985 0.0
C459 C 0.17275 0.77079 0.2746 0.0
C460 C 0.14476 0.73915 0.26866 0.0
C461 C 0.11195 0.73373 0.28652 0.0
H462 H 0.19811 0.77495 0.26073 0.0
H463 H 0.90508 0.73556 0.45553 0.0
loop_
_geom_bond_atom_site_label_1
_geom_bond_atom_site_label_2
_geom_bond_distance
_geom_bond_site_symmetry_2
_ccdc_geom_bond_type
H0 C6 0.931 . S
H1 C9 0.931 . S
H2 C11 0.931 . S
H3 C13 0.930 . S
H4 C15 0.930 . S
H5 C17 0.931 . S
C6 H0 0.931 . S
C6 C7 1.395 . S
C6 C8 1.378 1_554 S
C7 C6 1.395 . S
C7 C11 1.382 . S
C8 C6 1.378 1_556 S
C8 C9 1.400 . S
C9 H1 0.931 . S
C9 C8 1.400 . S
C9 C10 1.349 1_556 S
C10 C9 1.349 1_554 S
C10 C11 1.444 . S
C10 C12 1.498 . S
C11 H2 0.931 . S
C11 C7 1.382 . S
C11 C10 1.444 . S
C12 C10 1.498 . S
C12 C13 1.384 . S
C12 C17 1.408 1_554 S
C13 H3 0.930 . S
C13 C12 1.384 . S
C13 C14 1.389 . S
C14 C13 1.389 . S
C14 C15 1.405 . S
C15 H4 0.930 . S
C15 C14 1.405 . S
C15 C16 1.364 1_554 S
C16 C15 1.364 1_556 S
C16 C17 1.400 . S
C17 H5 0.931 . S
C17 C12 1.408 1_556 S
C17 C16 1.400 . S
H18 C24 0.930 . S
H19 C27 0.931 . S
H20 C29 0.931 . S
H21 C31 0.930 . S
H22 C33 0.930 . S
H23 C35 0.931 . S
C24 H18 0.930 . S
C24 C25 1.380 . S
C24 C26 1.394 . S
C25 C24 1.380 . S
C25 C29 1.382 . S
C26 C24 1.394 . S
C26 C27 1.400 . S
C27 H19 0.931 . S
C27 C26 1.400 . S
C27 C28 1.375 . S
C28 C27 1.375 . S
C28 C29 1.415 . S
C28 C30 1.501 . S
C29 H20 0.931 . S
C29 C25 1.382 . S
C29 C28 1.415 . S
C30 C28 1.501 . S
C30 C31 1.384 . S
C30 C35 1.408 . S
C31 H21 0.930 . S
C31 C30 1.384 . S
C31 C32 1.389 . S
C32 C31 1.389 . S
C32 C33 1.405 . S
C33 H22 0.930 . S
C33 C32 1.405 . S
C33 C34 1.364 . S
C34 C33 1.364 . S
C34 C35 1.400 . S
C35 H23 0.931 . S
C35 C30 1.408 . S
C35 C34 1.400 . S
Mg36 O37 2.028 . S
Mg36 O43 1.986 . S
Mg36 O45 2.114 1_545 S
Mg36 O46 2.251 1_545 S
Mg36 O49 2.010 . S
O37 Mg36 2.028 . S
O37 C40 1.250 1_455 S
O38 Mg39 2.028 . S
O38 C40 1.248 . S
Mg39 O38 2.028 . S
Mg39 O44 2.033 1_655 S
Mg39 O46 2.079 1_645 S
C40 O37 1.250 1_655 S
C40 O38 1.248 . S
C41 O42 1.264 . S
C41 O49 1.249 . S
O42 C41 1.264 . S
O43 Mg36 1.986 . S
O43 C47 1.246 . S
O44 Mg39 2.033 1_455 S
O44 C47 1.259 . S
O45 Mg36 2.114 1_565 S
O45 C48 1.252 . S
O46 Mg36 2.251 1_565 S
O46 Mg39 2.079 1_465 S
O46 C48 1.273 . S
C47 O43 1.246 . S
C47 O44 1.259 . S
C48 O45 1.252 . S
C48 O46 1.273 . S
O49 Mg36 2.010 . S
O49 C41 1.249 . S
Mg50 O51 2.028 1_655 S
Mg50 O57 1.986 . S
Mg50 O59 2.114 1_545 S
Mg50 O60 2.251 1_645 S
Mg50 O63 2.010 . S
O51 Mg50 2.028 1_455 S
O51 C54 1.250 . S
O52 Mg53 2.028 . S
O52 C54 1.248 . S
Mg53 O52 2.028 . S
Mg53 O58 2.032 . S
Mg53 O60 2.079 1_545 S
C54 O51 1.250 . S
C54 O52 1.248 . S
C55 O56 1.264 . S
C55 O63 1.249 . S
O56 C55 1.264 . S
O57 Mg50 1.986 . S
O57 C61 1.246 1_655 S
O58 Mg53 2.032 . S
O58 C61 1.259 . S
O59 Mg50 2.114 1_565 S
O59 C62 1.252 1_655 S
O60 Mg50 2.251 1_465 S
O60 Mg53 2.079 1_565 S
O60 C62 1.273 . S
C61 O57 1.246 1_455 S
C61 O58 1.259 . S
C62 O59 1.252 1_455 S
C62 O60 1.273 . S
O63 Mg50 2.010 . S
O63 C55 1.249 . S
H64 C82 0.951 . S
H65 C84 0.951 . S
H66 C86 0.950 . S
H67 C87 0.950 . S
H68 C89 0.950 . S
H69 C92 0.950 . S
H70 C93 0.950 . S
H71 C95 0.950 . S
H72 C96 0.950 . S
H73 C97 0.951 1_565 S
H74 C99 0.951 1_565 S
H75 C101 0.950 . S
H76 C102 0.950 . S
H77 C104 0.950 . S
H78 C107 0.950 . S
H79 C108 0.950 . S
H80 C110 0.950 . S
H81 C111 0.950 . S
C82 H64 0.951 . S
C82 C83 1.366 . S
C82 C84 1.388 . S
C83 C82 1.366 . S
C83 C87 1.385 1_545 S
C84 H65 0.951 . S
C84 C82 1.388 . S
C84 C85 1.366 . S
C85 C84 1.366 . S
C85 C86 1.414 1_545 S
C85 C88 1.499 . S
C86 H66 0.950 . S
C86 C85 1.414 1_565 S
C86 C87 1.374 . S
C87 H67 0.950 . S
C87 C83 1.385 1_565 S
C87 C86 1.374 . S
C88 C85 1.499 . S
C88 C89 1.373 . S
C88 C90 1.389 1_545 S
C89 H68 0.950 . S
C89 C88 1.373 . S
C89 C105 1.377 . S
C90 C88 1.389 1_565 S
C90 C91 1.524 . S
C90 C104 1.377 . S
C91 C90 1.524 . S
C91 C92 1.397 . S
C91 C96 1.363 . S
C92 H69 0.950 . S
C92 C91 1.397 . S
C92 C93 1.334 . S
C93 H70 0.950 . S
C93 C92 1.334 . S
C93 C94 1.287 . S
C94 C93 1.287 . S
C94 C95 1.524 . S
C94 H113 0.913 . S
C95 H71 0.950 . S
C95 C94 1.524 . S
C95 C96 1.415 . S
C96 H72 0.950 . S
C96 C91 1.363 . S
C96 C95 1.415 . S
C97 H73 0.951 1_545 S
C97 C98 1.366 . S
C97 C99 1.388 . S
C98 C97 1.366 . S
C98 C102 1.385 . S
C99 H74 0.951 1_545 S
C99 C97 1.388 . S
C99 C100 1.366 . S
C100 C99 1.366 . S
C100 C101 1.414 . S
C100 C103 1.499 . S
C101 H75 0.950 . S
C101 C100 1.414 . S
C101 C102 1.374 . S
C102 H76 0.950 . S
C102 C98 1.385 . S
C102 C101 1.374 . S
C103 C100 1.499 . S
C103 C104 1.373 1_545 S
C103 C105 1.389 . S
C104 H77 0.950 . S
C104 C90 1.377 . S
C104 C103 1.373 1_565 S
C105 C89 1.377 . S
C105 C103 1.389 . S
C105 C106 1.524 . S
C106 C105 1.524 . S
C106 C107 1.397 . S
C106 C111 1.363 . S
C107 H78 0.950 . S
C107 C106 1.397 . S
C107 C108 1.334 . S
C108 H79 0.950 . S
C108 C107 1.334 . S
C108 C109 1.287 . S
C109 C108 1.287 . S
C109 C110 1.524 . S
C109 H112 0.999 . S
C110 H80 0.950 . S
C110 C109 1.524 . S
C110 C111 1.415 . S
C111 H81 0.950 . S
C111 C106 1.363 . S
C111 C110 1.415 . S
H112 C109 0.999 . S
H113 C94 0.913 . S
H114 C132 0.951 . S
H115 C134 0.951 . S
H116 C136 0.950 . S
H117 C137 0.950 . S
H118 C139 0.950 . S
H119 C142 0.950 . S
H120 C143 0.950 . S
H121 C145 0.950 . S
H122 C146 0.950 . S
H123 C147 0.951 . S
H124 C149 0.951 . S
H125 C151 0.950 1_655 S
H126 C152 0.950 . S
H127 C154 0.950 . S
H128 C157 0.950 . S
H129 C158 0.950 . S
H130 C160 0.950 . S
H131 C161 0.950 . S
C132 H114 0.951 . S
C132 C133 1.366 . S
C132 C134 1.388 . S
C133 C132 1.366 . S
C133 C137 1.385 . S
C134 H115 0.951 . S
C134 C132 1.388 . S
C134 C135 1.366 . S
C135 C134 1.366 . S
C135 C136 1.414 . S
C135 C138 1.499 . S
C136 H116 0.950 . S
C136 C135 1.414 . S
C136 C137 1.374 . S
C137 H117 0.950 . S
C137 C133 1.385 . S
C137 C136 1.374 . S
C138 C135 1.499 . S
C138 C139 1.373 . S
C138 C140 1.389 1_455 S
C139 H118 0.950 . S
C139 C138 1.373 . S
C139 C155 1.377 . S
C140 C138 1.389 1_655 S
C140 C141 1.524 . S
C140 C154 1.377 . S
C141 C140 1.524 . S
C141 C142 1.397 . S
C141 C146 1.363 . S
C142 H119 0.950 . S
C142 C141 1.397 . S
C142 C143 1.334 . S
C143 H120 0.950 . S
C143 C142 1.334 . S
C143 C144 1.287 . S
C144 C143 1.287 . S
C144 C145 1.524 . S
C144 H163 0.913 . S
C145 H121 0.950 . S
C145 C144 1.524 . S
C145 C146 1.415 . S
C146 H122 0.950 . S
C146 C141 1.363 . S
C146 C145 1.415 . S
C147 H123 0.951 . S
C147 C148 1.366 . S
C147 C149 1.388 . S
C148 C147 1.366 . S
C148 C152 1.385 1_455 S
C149 H124 0.951 . S
C149 C147 1.388 . S
C149 C150 1.366 . S
C150 C149 1.366 . S
C150 C151 1.414 . S
C150 C153 1.499 . S
C151 H125 0.950 1_455 S
C151 C150 1.414 . S
C151 C152 1.374 1_455 S
C152 H126 0.950 . S
C152 C148 1.385 1_655 S
C152 C151 1.374 1_655 S
C153 C150 1.499 . S
C153 C154 1.373 1_455 S
C153 C155 1.389 . S
C154 H127 0.950 . S
C154 C140 1.377 . S
C154 C153 1.373 1_655 S
C155 C139 1.377 . S
C155 C153 1.389 . S
C155 C156 1.524 . S
C156 C155 1.524 . S
C156 C157 1.397 . S
C156 C161 1.363 . S
C157 H128 0.950 . S
C157 C156 1.397 . S
C157 C158 1.334 . S
C158 H129 0.950 . S
C158 C157 1.334 . S
C158 C159 1.287 . S
C159 C158 1.287 . S
C159 C160 1.524 . S
C159 H162 0.999 . S
C160 H130 0.950 . S
C160 C159 1.524 . S
C160 C161 1.415 . S
C161 H131 0.950 . S
C161 C156 1.363 . S
C161 C160 1.415 . S
H162 C159 0.999 . S
H163 C144 0.913 . S
H164 C182 0.951 . S
H165 C184 0.951 . S
H166 C186 0.950 . S
H167 C187 0.950 . S
H168 C189 0.950 1_565 S
H169 C192 0.950 . S
H170 C193 0.950 . S
H171 C195 0.950 . S
H172 C196 0.950 . S
H173 C197 0.951 . S
H174 C199 0.951 . S
H175 C201 0.949 . S
H176 C202 0.950 1_565 S
H177 C204 0.950 . S
H178 C207 0.950 . S
H179 C208 0.950 . S
H180 C210 0.950 . S
H181 C211 0.950 1_545 S
C182 H164 0.951 . S
C182 C183 1.366 1_565 S
C182 C184 1.388 . S
C183 C182 1.366 1_545 S
C183 C187 1.385 . S
C184 H165 0.951 . S
C184 C182 1.388 . S
C184 C185 1.365 1_565 S
C185 C184 1.365 1_545 S
C185 C186 1.414 . S
C185 C188 1.499 . S
C186 H166 0.950 . S
C186 C185 1.414 . S
C186 C187 1.374 . S
C187 H167 0.950 . S
C187 C183 1.385 . S
C187 C186 1.374 . S
C188 C185 1.499 . S
C188 C189 1.373 . S
C188 C190 1.389 . S
C189 H168 0.950 1_545 S
C189 C188 1.373 . S
C189 C205 1.376 1_545 S
C190 C188 1.389 . S
C190 C191 1.524 . S
C190 C204 1.377 . S
C191 C190 1.524 . S
C191 C192 1.397 . S
C191 C196 1.363 . S
C192 H169 0.950 . S
C192 C191 1.397 . S
C192 C193 1.334 . S
C193 H170 0.950 . S
C193 C192 1.334 . S
C193 C194 1.287 . S
C194 C193 1.287 . S
C194 C195 1.524 . S
C194 H213 0.913 . S
C195 H171 0.950 . S
C195 C194 1.524 . S
C195 C196 1.415 . S
C196 H172 0.950 . S
C196 C191 1.363 . S
C196 C195 1.415 . S
C197 H173 0.951 . S
C197 C198 1.366 . S
C197 C199 1.388 . S
C198 C197 1.366 . S
C198 C202 1.385 . S
C199 H174 0.951 . S
C199 C197 1.388 . S
C199 C200 1.366 . S
C200 C199 1.366 . S
C200 C201 1.415 1_545 S
C200 C203 1.499 . S
C201 H175 0.949 . S
C201 C200 1.415 1_565 S
C201 C202 1.374 1_565 S
C202 H176 0.950 1_545 S
C202 C198 1.385 . S
C202 C201 1.374 1_545 S
C203 C200 1.499 . S
C203 C204 1.373 . S
C203 C205 1.387 1_545 S
C204 H177 0.950 . S
C204 C190 1.377 . S
C204 C203 1.373 . S
C205 C189 1.376 1_565 S
C205 C203 1.387 1_565 S
C205 C206 1.527 . S
C206 C205 1.527 . S
C206 C207 1.397 . S
C206 C211 1.363 . S
C207 H178 0.950 . S
C207 C206 1.397 . S
C207 C208 1.334 . S
C208 H179 0.950 . S
C208 C207 1.334 . S
C208 C209 1.287 . S
C209 C208 1.287 . S
C209 C210 1.524 . S
C209 H212 0.999 . S
C210 H180 0.950 . S
C210 C209 1.524 . S
C210 C211 1.415 . S
C211 H181 0.950 1_565 S
C211 C206 1.363 . S
C211 C210 1.415 . S
H212 C209 0.999 . S
H213 C194 0.913 . S
H214 C232 0.951 . S
H215 C234 0.951 . S
H216 C236 0.950 . S
H217 C237 0.950 . S
H218 C239 0.950 . S
H219 C242 0.950 . S
H220 C243 0.950 . S
H221 C245 0.950 . S
H222 C246 0.950 . S
H223 C247 0.951 . S
H224 C249 0.951 . S
H225 C251 0.950 . S
H226 C252 0.950 . S
H227 C254 0.950 . S
H228 C257 0.950 . S
H229 C258 0.950 . S
H230 C260 0.950 . S
H231 C261 0.950 . S
C232 H214 0.951 . S
C232 C233 1.366 1_655 S
C232 C234 1.388 . S
C233 C232 1.366 1_455 S
C233 C237 1.385 . S
C234 H215 0.951 . S
C234 C232 1.388 . S
C234 C235 1.366 1_655 S
C235 C234 1.366 1_455 S
C235 C236 1.414 . S
C235 C238 1.499 . S
C236 H216 0.950 . S
C236 C235 1.414 . S
C236 C237 1.374 . S
C237 H217 0.950 . S
C237 C233 1.385 . S
C237 C236 1.374 . S
C238 C235 1.499 . S
C238 C239 1.373 . S
C238 C240 1.389 1_455 S
C239 H218 0.950 . S
C239 C238 1.373 . S
C239 C255 1.377 . S
C240 C238 1.389 1_655 S
C240 C241 1.524 . S
C240 C254 1.377 . S
C241 C240 1.524 . S
C241 C242 1.397 . S
C241 C246 1.363 . S
C242 H219 0.950 . S
C242 C241 1.397 . S
C242 C243 1.334 . S
C243 H220 0.950 . S
C243 C242 1.334 . S
C243 C244 1.287 . S
C244 C243 1.287 . S
C244 C245 1.524 . S
C244 H263 0.913 . S
C245 H221 0.950 . S
C245 C244 1.524 . S
C245 C246 1.415 . S
C246 H222 0.950 . S
C246 C241 1.363 . S
C246 C245 1.415 . S
C247 H223 0.951 . S
C247 C248 1.366 . S
C247 C249 1.388 . S
C248 C247 1.366 . S
C248 C252 1.385 1_455 S
C249 H224 0.951 . S
C249 C247 1.388 . S
C249 C250 1.366 . S
C250 C249 1.366 . S
C250 C251 1.414 1_455 S
C250 C253 1.499 . S
C251 H225 0.950 . S
C251 C250 1.414 1_655 S
C251 C252 1.374 . S
C252 H226 0.950 . S
C252 C248 1.385 1_655 S
C252 C251 1.374 . S
C253 C250 1.499 . S
C253 C254 1.373 1_455 S
C253 C255 1.389 . S
C254 H227 0.950 . S
C254 C240 1.377 . S
C254 C253 1.373 1_655 S
C255 C239 1.377 . S
C255 C253 1.389 . S
C255 C256 1.524 . S
C256 C255 1.524 . S
C256 C257 1.397 . S
C256 C261 1.363 . S
C257 H228 0.950 . S
C257 C256 1.397 . S
C257 C258 1.334 . S
C258 H229 0.950 . S
C258 C257 1.334 . S
C258 C259 1.287 . S
C259 C258 1.287 . S
C259 C260 1.524 . S
C259 H262 0.999 . S
C260 H230 0.950 . S
C260 C259 1.524 . S
C260 C261 1.415 . S
C261 H231 0.950 . S
C261 C256 1.363 . S
C261 C260 1.415 . S
H262 C259 0.999 . S
H263 C244 0.913 . S
H264 C282 0.951 . S
H265 C284 0.951 . S
H266 C286 0.950 . S
H267 C287 0.950 . S
H268 C289 0.950 . S
H269 C292 0.950 . S
H270 C293 0.950 . S
H271 C295 0.950 . S
H272 C296 0.950 . S
H273 C297 0.951 . S
H274 C299 0.951 . S
H275 C301 0.950 . S
H276 C302 0.950 . S
H277 C304 0.950 . S
H278 C307 0.950 . S
H279 C308 0.950 . S
H280 C310 0.950 . S
H281 C311 0.950 . S
C282 H264 0.951 . S
C282 C283 1.366 . S
C282 C284 1.388 . S
C283 C282 1.366 . S
C283 C287 1.385 1_545 S
C284 H265 0.951 . S
C284 C282 1.388 . S
C284 C285 1.366 . S
C285 C284 1.366 . S
C285 C286 1.414 1_545 S
C285 C288 1.499 . S
C286 H266 0.950 . S
C286 C285 1.414 1_565 S
C286 C287 1.374 . S
C287 H267 0.950 . S
C287 C283 1.385 1_565 S
C287 C286 1.374 . S
C288 C285 1.499 . S
C288 C289 1.373 1_545 S
C288 C290 1.389 . S
C289 H268 0.950 . S
C289 C288 1.373 1_565 S
C289 C305 1.377 . S
C290 C288 1.389 . S
C290 C291 1.524 . S
C290 C304 1.377 . S
C291 C290 1.524 . S
C291 C292 1.397 . S
C291 C296 1.363 . S
C292 H269 0.950 . S
C292 C291 1.397 . S
C292 C293 1.334 . S
C293 H270 0.950 . S
C293 C292 1.334 . S
C293 C294 1.287 . S
C294 C293 1.287 . S
C294 C295 1.524 . S
C294 H313 0.913 . S
C295 H271 0.950 . S
C295 C294 1.524 . S
C295 C296 1.415 . S
C296 H272 0.950 . S
C296 C291 1.363 . S
C296 C295 1.415 . S
C297 H273 0.951 . S
C297 C298 1.366 1_565 S
C297 C299 1.388 . S
C298 C297 1.366 1_545 S
C298 C302 1.385 . S
C299 H274 0.951 . S
C299 C297 1.388 . S
C299 C300 1.366 1_565 S
C300 C299 1.366 1_545 S
C300 C301 1.414 . S
C300 C303 1.499 . S
C301 H275 0.950 . S
C301 C300 1.414 . S
C301 C302 1.374 . S
C302 H276 0.950 . S
C302 C298 1.385 . S
C302 C301 1.374 . S
C303 C300 1.499 . S
C303 C304 1.373 . S
C303 C305 1.389 1_545 S
C304 H277 0.950 . S
C304 C290 1.377 . S
C304 C303 1.373 . S
C305 C289 1.377 . S
C305 C303 1.389 1_565 S
C305 C306 1.524 . S
C306 C305 1.524 . S
C306 C307 1.397 . S
C306 C311 1.363 . S
C307 H278 0.950 . S
C307 C306 1.397 . S
C307 C308 1.334 . S
C308 H279 0.950 . S
C308 C307 1.334 . S
C308 C309 1.287 . S
C309 C308 1.287 . S
C309 C310 1.524 . S
C309 H312 0.999 . S
C310 H280 0.950 . S
C310 C309 1.524 . S
C310 C311 1.415 . S
C311 H281 0.950 . S
C311 C306 1.363 . S
C311 C310 1.415 . S
H312 C309 0.999 . S
H313 C294 0.913 . S
H314 C332 0.951 . S
H315 C334 0.951 . S
H316 C336 0.950 . S
H317 C337 0.950 . S
H318 C339 0.950 . S
H319 C342 0.950 . S
H320 C343 0.950 . S
H321 C345 0.950 . S
H322 C346 0.950 . S
H323 C347 0.951 1_655 S
H324 C349 0.951 1_655 S
H325 C351 0.950 . S
H326 C352 0.950 . S
H327 C354 0.950 . S
H328 C357 0.950 . S
H329 C358 0.950 . S
H330 C360 0.950 . S
H331 C361 0.950 1_655 S
C332 H314 0.951 . S
C332 C333 1.366 . S
C332 C334 1.388 . S
C333 C332 1.366 . S
C333 C337 1.385 1_455 S
C334 H315 0.951 . S
C334 C332 1.388 . S
C334 C335 1.366 . S
C335 C334 1.366 . S
C335 C336 1.414 1_455 S
C335 C338 1.499 . S
C336 H316 0.950 . S
C336 C335 1.414 1_655 S
C336 C337 1.374 . S
C337 H317 0.950 . S
C337 C333 1.385 1_655 S
C337 C336 1.374 . S
C338 C335 1.499 . S
C338 C339 1.373 . S
C338 C340 1.389 . S
C339 H318 0.950 . S
C339 C338 1.373 . S
C339 C355 1.377 . S
C340 C338 1.389 . S
C340 C341 1.524 . S
C340 C354 1.377 . S
C341 C340 1.524 . S
C341 C342 1.397 1_455 S
C341 C346 1.363 . S
C342 H319 0.950 . S
C342 C341 1.397 1_655 S
C342 C343 1.334 . S
C343 H320 0.950 . S
C343 C342 1.334 . S
C343 C344 1.287 . S
C344 C343 1.287 . S
C344 C345 1.524 1_655 S
C344 H363 0.913 . S
C345 H321 0.950 . S
C345 C344 1.524 1_455 S
C345 C346 1.415 . S
C346 H322 0.950 . S
C346 C341 1.363 . S
C346 C345 1.415 . S
C347 H323 0.951 1_455 S
C347 C348 1.366 . S
C347 C349 1.388 . S
C348 C347 1.366 . S
C348 C352 1.385 . S
C349 H324 0.951 1_455 S
C349 C347 1.388 . S
C349 C350 1.366 . S
C350 C349 1.366 . S
C350 C351 1.414 . S
C350 C353 1.499 . S
C351 H325 0.950 . S
C351 C350 1.414 . S
C351 C352 1.374 . S
C352 H326 0.950 . S
C352 C348 1.385 . S
C352 C351 1.374 . S
C353 C350 1.499 . S
C353 C354 1.373 . S
C353 C355 1.389 . S
C354 H327 0.950 . S
C354 C340 1.377 . S
C354 C353 1.373 . S
C355 C339 1.377 . S
C355 C353 1.389 . S
C355 C356 1.524 . S
C356 C355 1.524 . S
C356 C357 1.397 . S
C356 C361 1.363 . S
C357 H328 0.950 . S
C357 C356 1.397 . S
C357 C358 1.334 . S
C358 H329 0.950 . S
C358 C357 1.334 . S
C358 C359 1.287 . S
C359 C358 1.287 . S
C359 C360 1.524 . S
C359 H362 0.999 . S
C360 H330 0.950 . S
C360 C359 1.524 . S
C360 C361 1.415 . S
C361 H331 0.950 1_455 S
C361 C356 1.363 . S
C361 C360 1.415 . S
H362 C359 0.999 . S
H363 C344 0.913 . S
H364 C382 0.951 . S
H365 C384 0.951 . S
H366 C386 0.950 . S
H367 C387 0.950 . S
H368 C389 0.950 . S
H369 C392 0.950 . S
H370 C393 0.950 . S
H371 C395 0.950 . S
H372 C396 0.950 . S
H373 C397 0.956 . S
H374 C399 0.951 . S
H375 C401 0.950 . S
H376 C402 0.950 . S
H377 C404 0.950 . S
H378 C407 0.950 . S
H379 C408 0.950 . S
H380 C410 0.950 . S
H381 C411 0.950 . S
C382 H364 0.951 . S
C382 C383 1.366 . S
C382 C384 1.388 . S
C383 C382 1.366 . S
C383 C387 1.385 1_545 S
C384 H365 0.951 . S
C384 C382 1.388 . S
C384 C385 1.366 . S
C385 C384 1.366 . S
C385 C386 1.414 1_545 S
C385 C388 1.499 . S
C386 H366 0.950 . S
C386 C385 1.414 1_565 S
C386 C387 1.374 . S
C387 H367 0.950 . S
C387 C383 1.385 1_565 S
C387 C386 1.374 . S
C388 C385 1.499 . S
C388 C389 1.373 1_545 S
C388 C390 1.389 . S
C389 H368 0.950 . S
C389 C388 1.373 1_565 S
C389 C405 1.377 . S
C390 C388 1.389 . S
C390 C391 1.524 . S
C390 C404 1.377 . S
C391 C390 1.524 . S
C391 C392 1.397 . S
C391 C396 1.363 . S
C392 H369 0.950 . S
C392 C391 1.397 . S
C392 C393 1.334 . S
C393 H370 0.950 . S
C393 C392 1.334 . S
C393 C394 1.287 . S
C394 C393 1.287 . S
C394 C395 1.524 . S
C394 H413 0.913 . S
C395 H371 0.950 . S
C395 C394 1.524 . S
C395 C396 1.415 . S
C396 H372 0.950 . S
C396 C391 1.363 . S
C396 C395 1.415 . S
C397 H373 0.956 . S
C397 C398 1.360 1_565 S
C397 C399 1.389 . S
C398 C397 1.360 1_545 S
C398 C402 1.385 . S
C399 H374 0.951 . S
C399 C397 1.389 . S
C399 C400 1.366 1_565 S
C400 C399 1.366 1_545 S
C400 C401 1.414 . S
C400 C403 1.499 . S
C401 H375 0.950 . S
C401 C400 1.414 . S
C401 C402 1.374 . S
C402 H376 0.950 . S
C402 C398 1.385 . S
C402 C401 1.374 . S
C403 C400 1.499 . S
C403 C404 1.373 . S
C403 C405 1.389 1_545 S
C404 H377 0.950 . S
C404 C390 1.377 . S
C404 C403 1.373 . S
C405 C389 1.377 . S
C405 C403 1.389 1_565 S
C405 C406 1.524 . S
C406 C405 1.524 . S
C406 C407 1.397 . S
C406 C411 1.363 . S
C407 H378 0.950 . S
C407 C406 1.397 . S
C407 C408 1.334 . S
C408 H379 0.950 . S
C408 C407 1.334 . S
C408 C409 1.287 . S
C409 C408 1.287 . S
C409 C410 1.524 . S
C409 H412 0.999 . S
C410 H380 0.950 . S
C410 C409 1.524 . S
C410 C411 1.415 . S
C411 H381 0.950 . S
C411 C406 1.363 . S
C411 C410 1.415 . S
H412 C409 0.999 . S
H413 C394 0.913 . S
H414 C432 0.951 . S
H415 C434 0.951 . S
H416 C436 0.950 . S
H417 C437 0.950 . S
H418 C439 0.950 . S
H419 C442 0.950 . S
H420 C443 0.950 . S
H421 C445 0.950 . S
H422 C446 0.950 1_455 S
H423 C447 0.951 . S
H424 C449 0.951 . S
H425 C451 0.950 . S
H426 C452 0.950 . S
H427 C454 0.955 . S
H428 C457 0.950 . S
H429 C458 0.950 . S
H430 C460 0.950 . S
H431 C461 0.950 . S
C432 H414 0.951 . S
C432 C433 1.366 . S
C432 C434 1.388 . S
C433 C432 1.366 . S
C433 C437 1.385 . S
C434 H415 0.951 . S
C434 C432 1.388 . S
C434 C435 1.366 . S
C435 C434 1.366 . S
C435 C436 1.414 . S
C435 C438 1.499 . S
C436 H416 0.950 . S
C436 C435 1.414 . S
C436 C437 1.374 . S
C437 H417 0.950 . S
C437 C433 1.385 . S
C437 C436 1.374 . S
C438 C435 1.499 . S
C438 C439 1.373 . S
C438 C440 1.389 . S
C439 H418 0.950 . S
C439 C438 1.373 . S
C439 C455 1.377 . S
C440 C438 1.389 . S
C440 C441 1.524 1_455 S
C440 C454 1.377 . S
C441 C440 1.524 1_655 S
C441 C442 1.397 . S
C441 C446 1.363 . S
C442 H419 0.950 . S
C442 C441 1.397 . S
C442 C443 1.334 . S
C443 H420 0.950 . S
C443 C442 1.334 . S
C443 C444 1.287 . S
C444 C443 1.287 . S
C444 C445 1.524 . S
C444 H463 0.913 . S
C445 H421 0.950 . S
C445 C444 1.524 . S
C445 C446 1.415 . S
C446 H422 0.950 1_655 S
C446 C441 1.363 . S
C446 C445 1.415 . S
C447 H423 0.951 . S
C447 C448 1.366 . S
C447 C449 1.388 . S
C448 C447 1.366 . S
C448 C452 1.385 . S
C449 H424 0.951 . S
C449 C447 1.388 . S
C449 C450 1.366 . S
C450 C449 1.366 . S
C450 C451 1.414 . S
C450 C453 1.499 . S
C451 H425 0.950 . S
C451 C450 1.414 . S
C451 C452 1.374 . S
C452 H426 0.950 . S
C452 C448 1.385 . S
C452 C451 1.374 . S
C453 C450 1.499 . S
C453 C454 1.373 . S
C453 C455 1.389 . S
C454 H427 0.955 . S
C454 C440 1.377 . S
C454 C453 1.373 . S
C455 C439 1.377 . S
C455 C453 1.389 . S
C455 C456 1.524 . S
C456 C455 1.524 . S
C456 C457 1.397 . S
C456 C461 1.363 . S
C457 H428 0.950 . S
C457 C456 1.397 . S
C457 C458 1.334 . S
C458 H429 0.950 . S
C458 C457 1.334 . S
C458 C459 1.287 . S
C459 C458 1.287 . S
C459 C460 1.524 . S
C459 H462 0.999 . S
C460 H430 0.950 . S
C460 C459 1.524 . S
C460 C461 1.415 . S
C461 H431 0.950 . S
C461 C456 1.363 . S
C461 C460 1.415 . S
H462 C459 0.999 . S
H463 C444 0.913 . S
C98 C41 1.291 . S
C83 C7 1.523 . S
C148 C61 1.532 . S
C133 C34 1.505 . S
C198 C40 1.502 . S
C183 C14 1.512 . S
C248 C62 1.554 . S
C233 C26 1.511 . S
C298 C54 1.493 . S
C283 C8 1.505 . S
C348 C47 1.539 . S
C333 C32 1.516 . S
C398 C55 1.289 . S
C383 C16 1.520 . S
C433 C25 1.513 . S
C448 C48 1.562 . S
