# Generated by pormake.
# Topology pyr, (3,6)-cn, num edge types: 1
# Building blocks:
#     Node 0, Type 0, BuildingBlock: QEWDON_clean_linker_0, # of connection points: 3
#     Node 1, Type 0, BuildingBlock: QEWDON_clean_linker_0, # of connection points: 3
#     Node 2, Type 0, BuildingBlock: QEWDON_clean_linker_0, # of connection points: 3
#     Node 3, Type 0, BuildingBlock: QEWDON_clean_linker_0, # of connection points: 3
#     Node 4, Type 0, BuildingBlock: QEWDON_clean_linker_0, # of connection points: 3
#     Node 5, Type 0, BuildingBlock: QEWDON_clean_linker_0, # of connection points: 3
#     Node 6, Type 0, BuildingBlock: QEWDON_clean_linker_0, # of connection points: 3
#     Node 7, Type 0, BuildingBlock: QEWDON_clean_linker_0, # of connection points: 3
#     Node 8, Type 1, BuildingBlock: BETFEN_clean_sbu_0, # of connection points: 6
#     Node 9, Type 1, BuildingBlock: BETFEN_clean_sbu_0, # of connection points: 6
#     Node 10, Type 1, BuildingBlock: BETFEN_clean_sbu_0, # of connection points: 6
#     Node 11, Type 1, BuildingBlock: BETFEN_clean_sbu_0, # of connection points: 6
#     Edge 12, Type (0, 1), BuildingBlock: KIFKEQ_clean_linker_1, # of connection points: 2
#     Edge 13, Type (0, 1), BuildingBlock: KIFKEQ_clean_linker_1, # of connection points: 2
#     Edge 14, Type (0, 1), BuildingBlock: KIFKEQ_clean_linker_1, # of connection points: 2
#     Edge 15, Type (0, 1), BuildingBlock: KIFKEQ_clean_linker_1, # of connection points: 2
#     Edge 16, Type (0, 1), BuildingBlock: KIFKEQ_clean_linker_1, # of connection points: 2
#     Edge 17, Type (0, 1), BuildingBlock: KIFKEQ_clean_linker_1, # of connection points: 2
#     Edge 18, Type (0, 1), BuildingBlock: KIFKEQ_clean_linker_1, # of connection points: 2
#     Edge 19, Type (0, 1), BuildingBlock: KIFKEQ_clean_linker_1, # of connection points: 2
#     Edge 20, Type (0, 1), BuildingBlock: KIFKEQ_clean_linker_1, # of connection points: 2
#     Edge 21, Type (0, 1), BuildingBlock: KIFKEQ_clean_linker_1, # of connection points: 2
#     Edge 22, Type (0, 1), BuildingBlock: KIFKEQ_clean_linker_1, # of connection points: 2
#     Edge 23, Type (0, 1), BuildingBlock: KIFKEQ_clean_linker_1, # of connection points: 2
#     Edge 24, Type (0, 1), BuildingBlock: KIFKEQ_clean_linker_1, # of connection points: 2
#     Edge 25, Type (0, 1), BuildingBlock: KIFKEQ_clean_linker_1, # of connection points: 2
#     Edge 26, Type (0, 1), BuildingBlock: KIFKEQ_clean_linker_1, # of connection points: 2
#     Edge 27, Type (0, 1), BuildingBlock: KIFKEQ_clean_linker_1, # of connection points: 2
#     Edge 28, Type (0, 1), BuildingBlock: KIFKEQ_clean_linker_1, # of connection points: 2
#     Edge 29, Type (0, 1), BuildingBlock: KIFKEQ_clean_linker_1, # of connection points: 2
#     Edge 30, Type (0, 1), BuildingBlock: KIFKEQ_clean_linker_1, # of connection points: 2
#     Edge 31, Type (0, 1), BuildingBlock: KIFKEQ_clean_linker_1, # of connection points: 2
#     Edge 32, Type (0, 1), BuildingBlock: KIFKEQ_clean_linker_1, # of connection points: 2
#     Edge 33, Type (0, 1), BuildingBlock: KIFKEQ_clean_linker_1, # of connection points: 2
#     Edge 34, Type (0, 1), BuildingBlock: KIFKEQ_clean_linker_1, # of connection points: 2
#     Edge 35, Type (0, 1), BuildingBlock: KIFKEQ_clean_linker_1, # of connection points: 2
# Relax obj value: 0.173
# Max RMSD: 0.308
# Mean RMSD: 0.177
data_MOF--net-pyr--node1-BETFEN_clean_sbu_0--node2-QEWDON_clean_linker_0--edge1-KIFKEQ_clean_linker_1
_symmetry_space_group_name_H-M    P1
_symmetry_Int_Tables_number       1
_symmetry_cell_setting            triclinic
loop_
_symmetry_equiv_pos_as_xyz
'x, y, z'
_cell_length_a     37.439929
_cell_length_b     41.362587
_cell_length_c     40.360664
_cell_angle_alpha  91.78984
_cell_angle_beta   100.23536
_cell_angle_gamma 119.30973
loop_
_atom_site_label
_atom_site_type_symbol
_atom_site_fract_x
_atom_site_fract_y
_atom_site_fract_z
_atom_type_partial_charge
H0 H 0.46993 0.40915 0.28069 0.0
C1 C 0.45482 0.40134 0.302 0.0
C2 C 0.44558 0.36706 0.31371 0.0
C3 C 0.44331 0.425 0.31692 0.0
H4 H 0.41731 0.3302 0.34953 0.0
C5 C 0.42579 0.35719 0.34117 0.0
C6 C 0.41392 0.38042 0.35626 0.0
C7 C 0.42253 0.41424 0.34383 0.0
C8 C 0.45151 0.46025 0.30345 0.0
H9 H 0.4133 0.43231 0.35518 0.0
C10 C 0.41833 0.46706 0.2924 0.0
C11 C 0.42566 0.50016 0.27888 0.0
C12 C 0.49232 0.48693 0.30105 0.0
H13 H 0.51831 0.48217 0.30938 0.0
C14 C 0.49992 0.52017 0.28827 0.0
H15 H 0.38674 0.44636 0.29402 0.0
C16 C 0.46687 0.52685 0.27727 0.0
H17 H 0.47338 0.55248 0.26681 0.0
H18 H 0.5315 0.54071 0.28665 0.0
H19 H 0.27529 0.89074 0.77645 0.0
C20 C 0.29299 0.87855 0.76895 0.0
C21 C 0.32376 0.87738 0.79373 0.0
C22 C 0.28412 0.86294 0.73494 0.0
H23 H 0.37058 0.86088 0.80324 0.0
C24 C 0.34598 0.8607 0.78431 0.0
C25 C 0.33813 0.84528 0.75058 0.0
C26 C 0.30739 0.84682 0.72605 0.0
C27 C 0.24978 0.86212 0.70879 0.0
H28 H 0.30136 0.8351 0.69994 0.0
C29 C 0.24162 0.89216 0.70848 0.0
C30 C 0.20985 0.89095 0.68284 0.0
C31 C 0.22466 0.83072 0.68361 0.0
H32 H 0.22887 0.80663 0.68355 0.0
C33 C 0.19333 0.82965 0.65829 0.0
H34 H 0.26039 0.91671 0.72747 0.0
C35 C 0.18612 0.85963 0.65773 0.0
H36 H 0.16153 0.85819 0.63787 0.0
H37 H 0.17444 0.80538 0.63906 0.0
H38 H 0.69875 0.38493 0.84986 0.0
C39 C 0.67861 0.35998 0.85998 0.0
C40 C 0.69029 0.35635 0.89411 0.0
C41 C 0.64233 0.3304 0.83835 0.0
H42 H 0.67274 0.32071 0.93315 0.0
C43 C 0.66461 0.32356 0.90666 0.0
C44 C 0.62871 0.294 0.88558 0.0
C45 C 0.61735 0.29736 0.85143 0.0
C46 C 0.63232 0.33308 0.80165 0.0
H47 H 0.58959 0.27422 0.83506 0.0
C48 C 0.63253 0.36519 0.79078 0.0
C49 C 0.62457 0.36811 0.75588 0.0
C50 C 0.62377 0.30379 0.77722 0.0
H51 H 0.6238 0.27894 0.7849 0.0
C52 C 0.6161 0.30668 0.74264 0.0
H53 H 0.63889 0.38785 0.80942 0.0
C54 C 0.61662 0.33864 0.73197 0.0
H55 H 0.61001 0.34003 0.70498 0.0
H56 H 0.60974 0.28405 0.72402 0.0
H57 H 0.89477 0.77833 0.36355 0.0
C58 C 0.87581 0.76138 0.38045 0.0
C59 C 0.88192 0.77739 0.41373 0.0
C60 C 0.84347 0.72428 0.36824 0.0
H61 H 0.8596 0.76861 0.46008 0.0
C62 C 0.85557 0.75592 0.43476 0.0
C63 C 0.82223 0.71933 0.42281 0.0
C64 C 0.81681 0.70343 0.38964 0.0
C65 C 0.83149 0.71046 0.33128 0.0
H66 H 0.79023 0.67577 0.37966 0.0
C67 C 0.8553 0.69982 0.31475 0.0
C68 C 0.8422 0.68689 0.27929 0.0
C69 C 0.79529 0.7087 0.31218 0.0
H70 H 0.77678 0.71692 0.32428 0.0
C71 C 0.78297 0.69708 0.27731 0.0
H72 H 0.88303 0.70077 0.32951 0.0
C73 C 0.80615 0.68646 0.26099 0.0
H74 H 0.79583 0.67815 0.23374 0.0
H75 H 0.7553 0.69639 0.26279 0.0
H76 H 0.61517 0.67484 0.86071 0.0
C77 C 0.62495 0.68715 0.8383 0.0
C78 C 0.66265 0.69242 0.83109 0.0
C79 C 0.60182 0.70082 0.81833 0.0
H80 H 0.70494 0.71396 0.79716 0.0
C81 C 0.67563 0.70948 0.80261 0.0
C82 C 0.65265 0.72296 0.78238 0.0
C83 C 0.61591 0.71883 0.79053 0.0
C84 C 0.56571 0.70019 0.82879 0.0
H85 H 0.59861 0.73013 0.77559 0.0
C86 C 0.56749 0.7341 0.83783 0.0
C87 C 0.53484 0.73438 0.85021 0.0
C88 C 0.53049 0.66626 0.83137 0.0
H89 H 0.52869 0.63987 0.8246 0.0
C90 C 0.49731 0.66627 0.84265 0.0
H91 H 0.59539 0.7603 0.83687 0.0
C92 C 0.4995 0.70009 0.85225 0.0
H93 H 0.47377 0.69946 0.86154 0.0
H94 H 0.47008 0.64002 0.84446 0.0
H95 H 0.77931 0.20805 0.48462 0.0
C96 C 0.77143 0.20789 0.45742 0.0
C97 C 0.79366 0.20052 0.43656 0.0
C98 C 0.73848 0.21412 0.44353 0.0
H99 H 0.80052 0.195 0.38517 0.0
C100 C 0.78364 0.2009 0.40135 0.0
C101 C 0.75063 0.20696 0.38677 0.0
C102 C 0.7285 0.2138 0.40826 0.0
C103 C 0.71168 0.2169 0.46541 0.0
H104 H 0.70165 0.21652 0.39736 0.0
C105 C 0.69714 0.24257 0.46131 0.0
C106 C 0.66988 0.24322 0.48103 0.0
C107 C 0.69895 0.19233 0.48977 0.0
H108 H 0.70884 0.17182 0.49314 0.0
C109 C 0.67234 0.19319 0.50949 0.0
H110 H 0.70661 0.26168 0.44267 0.0
C111 C 0.65777 0.21831 0.50513 0.0
H112 H 0.63724 0.21851 0.52088 0.0
H113 H 0.66271 0.17409 0.52808 0.0
H114 H 0.50492 0.80442 0.27229 0.0
C115 C 0.47101 0.78688 0.26539 0.0
C116 C 0.44669 0.80051 0.24722 0.0
C117 C 0.45181 0.7505 0.27445 0.0
H118 H 0.38387 0.78681 0.22308 0.0
C119 C 0.40292 0.77736 0.23844 0.0
C120 C 0.38348 0.7409 0.24673 0.0
C121 C 0.40792 0.7275 0.2649 0.0
C122 C 0.478 0.73567 0.29155 0.0
H123 H 0.39298 0.69896 0.2706 0.0
C124 C 0.47157 0.72066 0.32223 0.0
C125 C 0.49736 0.70734 0.33861 0.0
C126 C 0.50988 0.7367 0.27703 0.0
H127 H 0.51516 0.74791 0.25333 0.0
C128 C 0.53477 0.72274 0.29265 0.0
H129 H 0.4475 0.72055 0.33378 0.0
C130 C 0.52863 0.70814 0.32315 0.0
H131 H 0.5483 0.69727 0.33455 0.0
H132 H 0.55898 0.72325 0.28108 0.0
H133 H 0.25227 0.47205 0.80569 0.0
C134 C 0.22778 0.44499 0.79199 0.0
C135 C 0.23109 0.4327 0.76036 0.0
C136 C 0.19527 0.42083 0.80754 0.0
H137 H 0.20484 0.38694 0.72026 0.0
C138 C 0.201 0.39655 0.74397 0.0
C139 C 0.16819 0.3719 0.75872 0.0
C140 C 0.16557 0.38445 0.79065 0.0
C141 C 0.19911 0.42935 0.8445 0.0
H142 H 0.14168 0.36542 0.80323 0.0
C143 C 0.18208 0.44957 0.85785 0.0
C144 C 0.1876 0.45695 0.89358 0.0
C145 C 0.22085 0.41633 0.86689 0.0
H146 H 0.23399 0.40073 0.85719 0.0
C147 C 0.2259 0.42316 0.90185 0.0
H148 H 0.16528 0.45976 0.84074 0.0
C149 C 0.20951 0.44321 0.91509 0.0
H150 H 0.21361 0.44761 0.94242 0.0
H151 H 0.24259 0.41279 0.91881 0.0
Pr152 Pr 0.99021 0.04525 0.58634 0.0
Pr153 Pr 0.07365 0.1083 0.57623 0.0
C154 C 0.92006 0.98033 0.58765 0.0
C155 C 0.8944 0.95394 0.60888 0.0
C156 C 0.87776 0.965 0.63257 0.0
C157 C 0.8494 0.9385 0.64938 0.0
C158 C 0.83729 0.90053 0.64293 0.0
C159 C 0.85496 0.88973 0.61999 0.0
C160 C 0.88311 0.91619 0.60303 0.0
C161 C 0.02544 0.10979 0.63392 0.0
C162 C 0.07835 0.04697 0.62229 0.0
C163 C 0.14281 0.17355 0.57332 0.0
C164 C 0.16605 0.19716 0.54952 0.0
C165 C 0.16521 0.1814 0.51791 0.0
C166 C 0.19109 0.20391 0.49726 0.0
C167 C 0.2181 0.24256 0.50783 0.0
C168 C 0.21754 0.2584 0.53892 0.0
C169 C 0.19177 0.23583 0.55962 0.0
C170 C 0.03805 0.04353 0.52888 0.0
C171 C 0.98512 0.10488 0.53885 0.0
O172 O 0.95531 0.98206 0.58516 0.0
O173 O 0.92176 0.01267 0.58778 0.0
O174 O 0.04555 0.09613 0.62329 0.0
O175 O 0.98534 0.08804 0.62261 0.0
O176 O 0.09846 0.08287 0.61908 0.0
O177 O 0.03778 0.02562 0.60888 0.0
O178 O 0.10709 0.17117 0.57506 0.0
O179 O 0.14222 0.14183 0.57515 0.0
O180 O 1.01841 0.05782 0.53921 0.0
O181 O 0.07814 0.06468 0.54065 0.0
O182 O 0.96659 0.06891 0.54153 0.0
O183 O 0.02508 0.12734 0.55371 0.0
H184 H 0.88589 0.99394 0.6376 0.0
H185 H 0.83677 0.9477 0.66733 0.0
H186 H 0.84599 0.86063 0.61433 0.0
H187 H 0.8952 0.90697 0.5846 0.0
H188 H 0.14534 0.15158 0.50959 0.0
H189 H 0.19036 0.19101 0.47319 0.0
H190 H 0.23819 0.288 0.54788 0.0
H191 H 0.19285 0.24842 0.584 0.0
Pr192 Pr 0.4986 0.0642 0.0981 0.0
Pr193 Pr 0.57334 0.07347 0.07246 0.0
C194 C 0.44392 0.06005 0.13528 0.0
C195 C 0.44086 0.08877 0.15552 0.0
C196 C 0.42119 0.10754 0.13965 0.0
C197 C 0.42208 0.1373 0.1578 0.0
C198 C 0.44228 0.14886 0.19237 0.0
C199 C 0.46057 0.12918 0.20859 0.0
C200 C 0.45983 0.09944 0.19037 0.0
C201 C 0.52415 0.11725 0.05355 0.0
C202 C 0.59656 0.12298 0.14388 0.0
C203 C 0.62552 0.07586 0.03329 0.0
C204 C 0.62077 0.048 1.00654 0.0
C205 C 0.65189 0.03815 1.00834 0.0
C206 C 0.64461 0.0072 0.98709 0.0
C207 C 0.60603 0.98554 0.96361 0.0
C208 C 0.57584 0.99676 0.96053 0.0
C209 C 0.58307 0.0276 0.98186 0.0
C210 C 0.54686 0.01986 0.11648 0.0
C211 C 0.47618 0.01607 1.02675 0.0
O212 O 0.47527 0.05471 0.14702 0.0
O213 O 0.43705 0.05976 0.10232 0.0
O214 O 0.5488 0.1139 0.07708 0.0
O215 O 0.48523 0.09462 0.054 0.0
O216 O 0.61167 0.1225 0.11687 0.0
O217 O 0.55631 0.10115 0.14356 0.0
O218 O 0.60189 0.09095 1.0265 0.0
O219 O 0.62763 0.06671 0.06395 0.0
O220 O 0.52242 0.02326 0.0928 0.0
O221 O 0.58592 0.04332 0.11708 0.0
O222 O 0.46224 0.01344 0.05487 0.0
O223 O 0.51559 0.04023 1.02658 0.0
H224 H 0.40605 0.09996 0.1129 0.0
H225 H 0.40803 0.15199 0.14435 0.0
H226 H 0.47568 0.13687 0.23534 0.0
H227 H 0.4749 0.08533 0.20345 0.0
H228 H 0.68111 0.05339 1.02724 0.0
H229 H 0.6687 0.99953 0.98973 0.0
H230 H 0.54568 0.98051 0.94293 0.0
H231 H 0.55836 0.03438 0.98001 0.0
Pr232 Pr 0.55465 0.61381 0.62069 0.0
Pr233 Pr 0.51488 0.53584 0.57893 0.0
C234 C 0.57155 0.68026 0.65137 0.0
C235 C 0.54771 0.69519 0.66491 0.0
C236 C 0.56885 0.72863 0.68753 0.0
C237 C 0.54645 0.74406 0.69892 0.0
C238 C 0.50251 0.72636 0.68762 0.0
C239 C 0.48143 0.69224 0.66569 0.0
C240 C 0.5038 0.6768 0.6545 0.0
C241 C 0.57848 0.56548 0.65034 0.0
C242 C 0.45926 0.54636 0.62772 0.0
C243 C 0.49783 0.46802 0.55162 0.0
C244 C 0.51672 0.45034 0.53444 0.0
C245 C 0.4923 0.41243 0.5208 0.0
C246 C 0.51062 0.39392 0.50768 0.0
C247 C 0.55385 0.41302 0.50793 0.0
C248 C 0.57786 0.45152 0.52049 0.0
C249 C 0.55946 0.46999 0.53368 0.0
C250 C 0.49076 0.58345 0.54746 0.0
C251 C 0.60934 0.60442 0.57005 0.0
O252 O 0.56194 0.67115 0.61836 0.0
O253 O 0.5773 0.65594 0.66794 0.0
O254 O 0.54185 0.55692 0.63554 0.0
O255 O 0.60505 0.60088 0.65114 0.0
O256 O 0.46538 0.52162 0.61202 0.0
O257 O 0.48549 0.58275 0.62989 0.0
O258 O 0.5156 0.48195 0.58356 0.0
O259 O 0.48621 0.48899 0.53467 0.0
O260 O 0.52728 0.59284 0.56364 0.0
O261 O 0.46521 0.54772 0.54635 0.0
O262 O 0.60453 0.62886 0.58779 0.0
O263 O 0.58239 0.56798 0.56643 0.0
H264 H 0.60273 0.7432 0.69581 0.0
H265 H 0.56367 0.77043 0.71567 0.0
H266 H 0.44758 0.67754 0.657 0.0
H267 H 0.48684 0.6508 0.63723 0.0
H268 H 0.45927 0.39679 0.52128 0.0
H269 H 0.49117 0.36424 0.49867 0.0
H270 H 0.61104 0.46727 0.52061 0.0
H271 H 0.57881 0.49934 0.54407 0.0
Pr272 Pr 1.02029 0.61124 0.05767 0.0
Pr273 Pr 0.03088 0.56178 0.11068 0.0
C274 C 0.99315 0.64508 1.01213 0.0
C275 C 0.95445 0.64603 0.99836 0.0
C276 C 0.93734 0.6366 0.96325 0.0
C277 C 0.90093 0.6374 0.94927 0.0
C278 C 0.88094 0.64792 0.9701 0.0
C279 C 0.89789 0.65711 1.00535 0.0
C280 C 0.93422 0.65601 1.0194 0.0
C281 C 0.09948 0.64232 0.101 0.0
C282 C 0.98532 0.60769 0.12927 0.0
C283 C 0.06022 0.52989 0.1568 0.0
C284 C 0.09937 0.52929 0.16792 0.0
C285 C 0.10703 0.51746 0.19916 0.0
C286 C 0.1447 0.5178 0.21065 0.0
C287 C 0.17526 0.52989 0.19097 0.0
C288 C 0.16752 0.54193 0.15967 0.0
C289 C 0.12993 0.54185 0.14832 0.0
C290 C 0.95134 0.52946 0.06779 0.0
C291 C 0.06416 0.5639 0.03836 0.0
O292 O 0.99225 0.61379 1.00409 0.0
O293 O 1.01329 0.66073 0.04343 0.0
O294 O 0.0648 0.62439 0.10911 0.0
O295 O 0.0946 0.64727 0.06923 0.0
O296 O 1.00905 0.59399 0.14252 0.0
O297 O 0.97902 0.61079 0.09639 0.0
O298 O 0.06268 0.56205 0.16386 0.0
O299 O 0.03786 0.51272 0.12635 0.0
O300 O 0.98568 0.54829 0.05915 0.0
O301 O 0.95723 0.5236 0.09926 0.0
O302 O 0.04071 0.57798 1.02531 0.0
O303 O 0.07073 0.561 0.07125 0.0
H304 H 0.95239 0.62885 0.94653 0.0
H305 H 0.88906 0.63072 0.92199 0.0
H306 H 0.883 0.66507 1.02205 0.0
H307 H 0.94648 0.66308 0.04663 0.0
H308 H 0.08388 0.50799 0.2147 0.0
H309 H 0.14965 0.50805 0.23471 0.0
H310 H 0.19071 0.55176 0.14417 0.0
H311 H 0.12477 0.55168 0.12435 0.0
H312 H 0.34238 0.38105 0.3611 0.0
H313 H 0.43059 0.35007 0.41186 0.0
H314 H 0.29694 0.35099 0.40039 0.0
H315 H 0.38535 0.32021 0.45127 0.0
H316 H 0.26669 0.22498 0.47704 0.0
H317 H 0.31673 0.26287 0.44375 0.0
H318 H 0.28938 0.35143 0.4601 0.0
H319 H 0.23825 0.31292 0.49283 0.0
C320 C 0.35252 0.3686 0.38117 0.0
C321 C 0.38976 0.36751 0.38321 0.0
C322 C 0.32649 0.35135 0.40365 0.0
C323 C 0.33726 0.33274 0.42859 0.0
C324 C 0.37574 0.33359 0.43182 0.0
C325 C 0.40168 0.35076 0.40935 0.0
C326 C 0.27104 0.25239 0.47329 0.0
C327 C 0.2483 0.26585 0.48736 0.0
C328 C 0.30017 0.27434 0.45463 0.0
C329 C 0.30724 0.31027 0.44951 0.0
C330 C 0.2845 0.3238 0.46353 0.0
C331 C 0.25544 0.30186 0.48241 0.0
H332 H 0.34014 0.94723 0.81604 0.0
H333 H 0.3328 0.84731 0.85177 0.0
H334 H 0.37011 0.9799 0.87425 0.0
H335 H 0.36301 0.88005 0.90995 0.0
H336 H 0.40001 0.95027 1.01533 0.0
H337 H 0.35442 0.91495 0.95983 0.0
H338 H 0.44236 0.99861 0.90934 0.0
H339 H 0.48745 0.03338 0.96394 0.0
C340 C 0.34394 0.93201 0.83645 0.0
C341 C 0.3346 0.89491 0.82939 0.0
C342 C 0.36131 0.95073 0.86969 0.0
C343 C 0.36924 0.93258 0.89652 0.0
C344 C 0.35708 0.89467 0.88981 0.0
C345 C 0.34012 0.87606 0.85652 0.0
C346 C 0.40934 0.96104 0.9923 0.0
C347 C 0.44747 0.99435 0.99399 0.0
C348 C 0.38335 0.9409 0.96065 0.0
C349 C 0.39472 0.95427 0.93033 0.0
C350 C 0.43244 0.98791 0.93222 0.0
C351 C 0.45854 0.00757 0.9636 0.0
H352 H 0.58204 0.40018 0.77624 0.0
H353 H 0.66315 0.41004 0.70862 0.0
H354 H 0.57388 0.45069 0.75285 0.0
H355 H 0.65513 0.4607 0.68534 0.0
H356 H 0.65581 0.57364 0.67563 0.0
H357 H 0.67075 0.52847 0.70398 0.0
H358 H 0.53779 0.45287 0.69278 0.0
H359 H 0.52289 0.49738 0.66417 0.0
C360 C 0.59865 0.41358 0.75679 0.0
C361 C 0.62306 0.40113 0.74412 0.0
C362 C 0.59378 0.44227 0.74328 0.0
C363 C 0.61376 0.45944 0.71722 0.0
C364 C 0.63958 0.44807 0.70554 0.0
C365 C 0.64393 0.41897 0.71868 0.0
C366 C 0.6299 0.54738 0.67933 0.0
C367 C 0.58824 0.53898 0.66776 0.0
C368 C 0.63842 0.52158 0.69543 0.0
C369 C 0.60541 0.48735 0.70076 0.0
C370 C 0.56384 0.47923 0.6894 0.0
C371 C 0.55534 0.50463 0.67285 0.0
H372 H 0.9279 0.71491 0.28776 0.0
H373 H 0.80807 0.62825 0.22799 0.0
H374 H 0.96363 0.69626 0.25247 0.0
H375 H 0.84361 0.61089 0.1924 0.0
H376 H 0.92063 0.62218 0.11158 0.0
H377 H 0.8878 0.64109 0.14943 0.0
H378 H 0.97281 0.64047 0.23659 0.0
H379 H 1.00539 0.62119 0.19889 0.0
C380 C 0.90913 0.69175 0.26742 0.0
C381 C 0.86496 0.67366 0.26052 0.0
C382 C 0.92963 0.68119 0.24705 0.0
C383 C 0.90645 0.65254 0.21915 0.0
C384 C 0.86244 0.63367 0.21308 0.0
C385 C 0.84207 0.64378 0.23359 0.0
C386 C 0.93237 0.62607 0.13879 0.0
C387 C 0.96552 0.61987 0.15208 0.0
C388 C 0.91345 0.63681 0.16052 0.0
C389 C 0.92761 0.64224 0.19611 0.0
C390 C 0.9613 0.63678 0.20937 0.0
C391 C 0.97976 0.62545 0.18768 0.0
H392 H 0.47995 0.32617 0.34108 0.0
H393 H 0.42571 0.34532 0.24539 0.0
H394 H 0.48163 0.27448 0.31167 0.0
H395 H 0.42792 0.29405 0.21595 0.0
H396 H 0.38198 0.16891 0.18728 0.0
H397 H 0.38771 0.22458 0.21571 0.0
H398 H 0.5143 0.25928 0.26864 0.0
H399 H 0.50909 0.20394 0.2396 0.0
C400 C 0.46899 0.31965 0.31371 0.0
C401 C 0.45258 0.33966 0.29552 0.0
C402 C 0.47013 0.29022 0.29688 0.0
C403 C 0.4545 0.28002 0.26158 0.0
C404 C 0.43967 0.30101 0.24324 0.0
C405 C 0.43887 0.33063 0.26003 0.0
C406 C 0.41124 0.18856 0.20468 0.0
C407 C 0.44511 0.18194 0.21102 0.0
C408 C 0.4145 0.22047 0.22095 0.0
C409 C 0.45158 0.24642 0.24417 0.0
C410 C 0.48526 0.23963 0.251 0.0
C411 C 0.48214 0.20781 0.23449 0.0
H412 H 0.17178 0.9098 0.72513 0.0
H413 H 0.22396 0.93934 0.63636 0.0
H414 H 0.14345 0.95212 0.71607 0.0
H415 H 0.19643 0.98202 0.62749 0.0
H416 H 0.16304 0.07394 0.63373 0.0
H417 H 0.20074 0.04143 0.65401 0.0
H418 H 0.08524 0.94783 0.66801 0.0
H419 H 0.04738 0.98 0.64735 0.0
C420 C 0.17819 0.92623 0.7043 0.0
C421 C 0.2003 0.92171 0.6816 0.0
C422 C 0.16174 0.95014 0.69893 0.0
C423 C 0.16766 0.97034 0.67102 0.0
C424 C 0.19172 0.96718 0.6494 0.0
C425 C 0.2075 0.94282 0.65444 0.0
C426 C 0.14579 0.04671 0.64169 0.0
C427 C 0.10214 0.02953 0.63882 0.0
C428 C 0.16738 0.02803 0.65313 0.0
C429 C 0.14597 0.99207 0.66257 0.0
C430 C 0.1027 0.97565 0.66123 0.0
C431 C 0.08098 0.99402 0.64922 0.0
H432 H 0.74628 0.34527 0.9376 0.0
H433 H 0.72446 0.43292 0.90197 0.0
H434 H 0.80684 0.39094 0.98033 0.0
H435 H 0.78676 0.47923 0.94454 0.0
H436 H 0.93411 0.54127 1.00245 0.0
H437 H 0.86961 0.50284 0.95909 0.0
H438 H 0.81334 0.43336 0.0337 0.0
H439 H 0.87756 0.47209 0.07722 0.0
C440 C 0.75441 0.37435 0.93893 0.0
C441 C 0.73003 0.38541 0.91692 0.0
C442 C 0.78908 0.40043 0.96341 0.0
C443 C 0.80072 0.43833 0.96612 0.0
C444 C 0.77797 0.44999 0.94302 0.0
C445 C 0.74265 0.42363 0.91862 0.0
C446 C 0.90765 0.51822 1.00969 0.0
C447 C 0.91085 0.50931 0.04303 0.0
C448 C 0.8708 0.49641 0.98494 0.0
C449 C 0.83688 0.46508 0.99311 0.0
C450 C 0.83936 0.45728 1.02682 0.0
C451 C 0.87597 0.4794 0.05167 0.0
H452 H 0.78401 0.74811 0.45501 0.0
H453 H 0.78866 0.64692 0.43786 0.0
H454 H 0.73461 0.71887 0.4911 0.0
H455 H 0.73963 0.61748 0.47515 0.0
H456 H 0.6178 0.56685 0.51732 0.0
H457 H 0.66916 0.5928 0.4818 0.0
H458 H 0.73064 0.69997 0.54502 0.0
H459 H 0.67848 0.67445 0.57952 0.0
C460 C 0.7748 0.71962 0.45933 0.0
C461 C 0.79076 0.70003 0.44392 0.0
C462 C 0.74653 0.70282 0.48026 0.0
C463 C 0.73347 0.66589 0.48678 0.0
C464 C 0.74874 0.64589 0.47072 0.0
C465 C 0.77691 0.66273 0.44939 0.0
C466 C 0.64257 0.59587 0.52384 0.0
C467 C 0.6437 0.61864 0.55115 0.0
C468 C 0.67218 0.61077 0.50346 0.0
C469 C 0.70389 0.64877 0.51002 0.0
C470 C 0.70609 0.67091 0.53842 0.0
C471 C 0.6763 0.65616 0.5585 0.0
H472 H 0.42137 0.56374 0.28975 0.0
H473 H 0.34996 0.45041 0.23769 0.0
H474 H 0.3627 0.57352 0.26734 0.0
H475 H 0.29127 0.46001 0.21571 0.0
H476 H 0.21206 0.50276 0.15455 0.0
H477 H 0.27436 0.49767 0.1751 0.0
H478 H 0.28899 0.54941 0.27495 0.0
H479 H 0.22695 0.55487 0.25429 0.0
C480 C 0.39319 0.54099 0.27346 0.0
C481 C 0.39016 0.50627 0.26555 0.0
C482 C 0.35956 0.54651 0.26083 0.0
C483 C 0.32246 0.51755 0.23972 0.0
C484 C 0.31962 0.48296 0.23162 0.0
C485 C 0.35303 0.47734 0.24451 0.0
C486 C 0.22893 0.51347 0.18076 0.0
C487 C 0.21458 0.52905 0.20287 0.0
C488 C 0.26434 0.51027 0.19259 0.0
C489 C 0.28638 0.52295 0.22668 0.0
C490 C 0.27277 0.53958 0.24852 0.0
C491 C 0.2371 0.54242 0.23678 0.0
H492 H 0.55419 0.26938 0.90404 0.0
H493 H 0.6525 0.24375 0.90261 0.0
H494 H 0.52633 0.22336 0.9429 0.0
H495 H 0.62442 0.19708 0.94072 0.0
H496 H 0.60394 0.16522 0.04662 0.0
H497 H 0.62466 0.20286 1.0007 0.0
H498 H 0.49396 0.15831 0.95259 0.0
H499 H 0.47341 0.12143 0.99885 0.0
C500 C 0.56868 0.25271 0.91102 0.0
C501 C 0.60506 0.25959 0.90026 0.0
C502 C 0.553 0.22654 0.93338 0.0
C503 C 0.57361 0.20699 0.94535 0.0
C504 C 0.60836 0.21222 0.93256 0.0
C505 C 0.62404 0.23842 0.91036 0.0
C506 C 0.57974 0.16363 1.02626 0.0
C507 C 0.53715 0.14067 1.02639 0.0
C508 C 0.59152 0.18484 0.99977 0.0
C509 C 0.5609 0.18341 0.97283 0.0
C510 C 0.51828 0.16032 0.97305 0.0
C511 C 0.50655 0.13917 0.99955 0.0
H512 H 0.94425 0.80867 0.47125 0.0
H513 H 0.88496 0.83698 0.38451 0.0
H514 H 0.98479 0.87464 0.49632 0.0
H515 H 0.92503 0.90301 0.4098 0.0
H516 H 0.07471 0.00272 0.51668 0.0
H517 H 0.04093 0.9395 0.48569 0.0
H518 H 0.92233 0.93681 0.46381 0.0
H519 H 0.95597 0.99983 0.49529 0.0
C520 C 0.94063 0.82919 0.45726 0.0
C521 C 0.91179 0.81781 0.42583 0.0
C522 C 0.96375 0.86691 0.47159 0.0
C523 C 0.95789 0.89397 0.45511 0.0
C524 C 0.92999 0.88274 0.42316 0.0
C525 C 0.90744 0.84508 0.40852 0.0
C526 C 0.04149 0.98873 0.50501 0.0
C527 C 1.01798 0.00622 0.50834 0.0
C528 C 0.02216 0.95251 0.48739 0.0
C529 C 0.97903 0.93324 0.47221 0.0
C530 C 0.95572 0.95112 0.4749 0.0
C531 C 0.97491 0.9871 0.49303 0.0
H532 H 0.37025 0.85026 0.69357 0.0
H533 H 0.36099 0.80061 0.78656 0.0
H534 H 0.41045 0.82216 0.67891 0.0
H535 H 0.40158 0.77293 0.77205 0.0
H536 H 0.51164 0.76093 0.75037 0.0
H537 H 0.47281 0.79039 0.76566 0.0
H538 H 0.40041 0.76044 0.66228 0.0
H539 H 0.43985 0.73202 0.64685 0.0
C540 C 0.37643 0.83311 0.71076 0.0
C541 C 0.36228 0.82774 0.74125 0.0
C542 C 0.3996 0.81706 0.70239 0.0
C543 C 0.40932 0.79532 0.72433 0.0
C544 C 0.39524 0.78999 0.75482 0.0
C545 C 0.37192 0.80588 0.76312 0.0
C546 C 0.48762 0.76089 0.73089 0.0
C547 C 0.47877 0.74401 0.6974 0.0
C548 C 0.46511 0.77746 0.7397 0.0
C549 C 0.43347 0.77781 0.71517 0.0
C550 C 0.42483 0.76105 0.68172 0.0
C551 C 0.44712 0.74434 0.67297 0.0
H552 H 0.66544 0.79241 0.77332 0.0
H553 H 0.68019 0.70358 0.73124 0.0
H554 H 0.70587 0.83338 0.73567 0.0
H555 H 0.71977 0.74414 0.69276 0.0
H556 H 0.84008 0.84297 0.67222 0.0
H557 H 0.78917 0.79725 0.70079 0.0
H558 H 0.7117 0.84777 0.67912 0.0
H559 H 0.76319 0.89395 0.65103 0.0
C560 C 0.67638 0.78138 0.75529 0.0
C561 C 0.67014 0.74504 0.75533 0.0
C562 C 0.69952 0.8048 0.73367 0.0
C563 C 0.71665 0.79224 0.71154 0.0
C564 C 0.70792 0.75499 0.71009 0.0
C565 C 0.68508 0.73169 0.7319 0.0
C566 C 0.81198 0.84406 0.67329 0.0
C567 C 0.80575 0.87216 0.6596 0.0
C568 C 0.78263 0.81773 0.68949 0.0
C569 C 0.74621 0.81873 0.69217 0.0
C570 C 0.73965 0.84649 0.67791 0.0
C571 C 0.76916 0.87297 0.66188 0.0
H572 H 0.72023 0.24633 0.34937 0.0
H573 H 0.74749 0.15681 0.33836 0.0
H574 H 0.68789 0.23296 0.28875 0.0
H575 H 0.71684 0.1448 0.27775 0.0
H576 H 0.68037 0.14709 0.16456 0.0
H577 H 0.72409 0.17405 0.22203 0.0
H578 H 0.62083 0.17521 0.25444 0.0
H579 H 0.57708 0.14794 0.19736 0.0
C580 C 0.71979 0.2241 0.33409 0.0
C581 C 0.73628 0.2025 0.34905 0.0
C582 C 0.70147 0.21664 0.29932 0.0
C583 C 0.69984 0.18785 0.27856 0.0
C584 C 0.71815 0.16751 0.29305 0.0
C585 C 0.7359 0.17456 0.32788 0.0
C586 C 0.66736 0.15391 0.18377 0.0
C587 C 0.62526 0.14528 0.1765 0.0
C588 C 0.69228 0.16908 0.21668 0.0
C589 C 0.67579 0.17657 0.24271 0.0
C590 C 0.6345 0.17 0.23486 0.0
C591 C 0.6094 0.15424 0.20219 0.0
H592 H 0.42451 0.66332 0.36018 0.0
H593 H 0.55963 0.71958 0.39284 0.0
H594 H 0.41776 0.63764 0.41394 0.0
H595 H 0.55304 0.69243 0.44524 0.0
H596 H 0.53816 0.65811 0.54584 0.0
H597 H 0.53531 0.69209 0.49815 0.0
H598 H 0.42679 0.59113 0.44122 0.0
H599 H 0.42857 0.55783 0.48967 0.0
C600 C 0.45276 0.67043 0.37888 0.0
C601 C 0.49261 0.6932 0.37199 0.0
C602 C 0.4489 0.6554 0.40958 0.0
C603 C 0.48482 0.66281 0.43407 0.0
C604 C 0.52459 0.68646 0.42741 0.0
C605 C 0.52841 0.70158 0.39696 0.0
C606 C 0.51308 0.6435 0.52343 0.0
C607 C 0.48387 0.60527 0.52134 0.0
C608 C 0.51166 0.66283 0.49591 0.0
C609 C 0.48142 0.64421 0.4654 0.0
C610 C 0.45043 0.60653 0.46425 0.0
C611 C 0.45151 0.58733 0.49203 0.0
H612 H 0.10841 0.44869 0.87731 0.0
H613 H 0.22879 0.51314 0.94708 0.0
H614 H 0.07877 0.47621 0.91086 0.0
H615 H 0.19949 0.54039 0.98041 0.0
H616 H 0.12161 0.54084 0.05601 0.0
H617 H 0.15127 0.51797 1.01857 0.0
H618 H 0.07937 0.53376 0.93106 0.0
H619 H 0.04939 0.55646 0.96854 0.0
C620 C 0.12876 0.46931 0.89932 0.0
C621 C 0.17086 0.47832 0.90967 0.0
C622 C 0.11176 0.485 0.91869 0.0
C623 C 0.13648 0.51002 0.94886 0.0
C624 C 0.17914 0.52052 0.95795 0.0
C625 C 0.19604 0.50502 0.93865 0.0
C626 C 0.11213 0.53957 0.02882 0.0
C627 C 0.08309 0.55067 1.01546 0.0
C628 C 0.12936 0.52661 1.00726 0.0
C629 C 0.11793 0.52409 0.97164 0.0
C630 C 0.08873 0.53502 0.95826 0.0
C631 C 0.07173 0.5483 0.97986 0.0
H632 H 0.51909 0.75117 0.90982 0.0
H633 H 0.56221 0.79915 0.82133 0.0
H634 H 0.53448 0.81207 0.93532 0.0
H635 H 0.57842 0.86047 0.84724 0.0
H636 H 0.56662 0.95747 0.89657 0.0
H637 H 0.54562 0.89607 0.86712 0.0
H638 H 0.60125 0.87127 0.95872 0.0
H639 H 0.6214 0.93194 0.98818 0.0
C640 C 0.53123 0.77462 0.89558 0.0
C641 C 0.53963 0.77043 0.86365 0.0
C642 C 0.54051 0.80959 0.91035 0.0
C643 C 0.55819 0.84114 0.89347 0.0
C644 C 0.5648 0.83666 0.86084 0.0
C645 C 0.55579 0.80166 0.84613 0.0
C646 C 0.57435 0.93885 0.91033 0.0
C647 C 0.59579 0.94961 0.94467 0.0
C648 C 0.56253 0.90384 0.89345 0.0
C649 C 0.57149 0.87876 0.91071 0.0
C650 C 0.59338 0.88977 0.94487 0.0
C651 C 0.60544 0.92476 0.96162 0.0
H652 H 0.7845 0.15135 0.48217 0.0
H653 H 0.8718 0.22266 0.42386 0.0
H654 H 0.83271 0.13002 0.50524 0.0
H655 H 0.92013 0.20062 0.44672 0.0
H656 H 1.01022 0.17781 0.52846 0.0
H657 H 0.9657 0.20248 0.50271 0.0
H658 H 0.85805 0.09073 0.48229 0.0
H659 H 0.90195 0.06616 0.50785 0.0
C660 C 0.81422 0.16277 0.4745 0.0
C661 C 0.82436 0.18887 0.45127 0.0
C662 C 0.84166 0.15019 0.48744 0.0
C663 C 0.88013 0.1634 0.47763 0.0
C664 C 0.89078 0.19003 0.45486 0.0
C665 C 0.86302 0.20243 0.44161 0.0
C666 C 0.97713 0.15849 0.51815 0.0
C667 C 0.95969 0.12001 0.52047 0.0
C668 C 0.95168 0.17262 0.50333 0.0
C669 C 0.90826 0.14861 0.49083 0.0
C670 C 0.89123 0.11007 0.49221 0.0
C671 C 0.91656 0.09596 0.50674 0.0
H672 H 0.3202 0.74996 0.25984 0.0
H673 H 0.34585 0.67866 0.20002 0.0
H674 H 0.24831 0.71973 0.22584 0.0
H675 H 0.27383 0.64852 0.16552 0.0
H676 H 0.17516 0.66368 0.08479 0.0
H677 H 0.24119 0.67911 0.12391 0.0
H678 H 0.17918 0.65676 0.20795 0.0
H679 H 0.11343 0.64137 0.16903 0.0
C680 C 0.30985 0.72692 0.2401 0.0
C681 C 0.33814 0.71635 0.23255 0.0
C682 C 0.26888 0.70972 0.2206 0.0
C683 C 0.25581 0.68212 0.19287 0.0
C684 C 0.28338 0.66997 0.18661 0.0
C685 C 0.32425 0.68683 0.20651 0.0
C686 C 0.17576 0.66205 0.11161 0.0
C687 C 0.13948 0.65179 0.124 0.0
C688 C 0.21328 0.67039 0.13388 0.0
C689 C 0.2151 0.66898 0.16889 0.0
C690 C 0.17859 0.65813 0.1811 0.0
C691 C 0.14108 0.64942 0.15884 0.0
H692 H 0.25915 0.50192 0.73871 0.0
H693 H 0.28647 0.41235 0.7482 0.0
H694 H 0.31401 0.532 0.70608 0.0
H695 H 0.34137 0.44228 0.71663 0.0
H696 H 0.39595 0.47443 0.62485 0.0
H697 H 0.34266 0.45068 0.65832 0.0
H698 H 0.38969 0.56306 0.70614 0.0
H699 H 0.4429 0.58715 0.67186 0.0
C700 C 0.27751 0.48916 0.73443 0.0
C701 C 0.26842 0.45471 0.7457 0.0
C702 C 0.30884 0.50626 0.7157 0.0
C703 C 0.33157 0.48916 0.70801 0.0
C704 C 0.32377 0.45575 0.7211 0.0
C705 C 0.29258 0.43874 0.73952 0.0
C706 C 0.39487 0.49425 0.64225 0.0
C707 C 0.42407 0.53272 0.64574 0.0
C708 C 0.36441 0.48055 0.66173 0.0
C709 C 0.36227 0.50482 0.68553 0.0
C710 C 0.39035 0.54352 0.6881 0.0
C711 C 0.42092 0.55732 0.66844 0.0
H712 H 0.74535 0.7394 0.8583 0.0
H713 H 0.64424 0.62733 0.85817 0.0
H714 H 0.7941 0.72641 0.8956 0.0
H715 H 0.6934 0.61417 0.89601 0.0
H716 H 0.81268 0.59877 0.92057 0.0
H717 H 0.75629 0.6079 0.89036 0.0
H718 H 0.80894 0.71316 0.95462 0.0
H719 H 0.86567 0.7044 0.98438 0.0
C720 C 0.73359 0.71194 0.86635 0.0
C721 C 0.69115 0.68421 0.85507 0.0
C722 C 0.76141 0.70463 0.88802 0.0
C723 C 0.74757 0.66931 0.89882 0.0
C724 C 0.70494 0.64161 0.88795 0.0
C725 C 0.67684 0.64913 0.86648 0.0
C726 C 0.81198 0.62371 0.92839 0.0
C727 C 0.84384 0.65105 0.95463 0.0
C728 C 0.77948 0.62874 0.91132 0.0
C729 C 0.77839 0.66136 0.91997 0.0
C730 C 0.80922 0.68791 0.94718 0.0
C731 C 0.84151 0.68275 0.9644 0.0
H732 H 0.42158 0.8526 0.2453 0.0
H733 H 0.51568 0.83102 0.21912 0.0
H734 H 0.44698 0.90781 0.21602 0.0
H735 H 0.54136 0.88646 0.19027 0.0
H736 H 0.46674 0.96785 0.11962 0.0
H737 H 0.44528 0.91773 0.15535 0.0
H738 H 0.57558 0.95557 0.19922 0.0
H739 H 0.59692 0.00534 0.1634 0.0
C740 C 0.44794 0.85984 0.23357 0.0
C741 C 0.4664 0.83723 0.23432 0.0
C742 C 0.46238 0.89138 0.21674 0.0
C743 C 0.49583 0.90122 0.20052 0.0
C744 C 0.51569 0.87974 0.20274 0.0
C745 C 0.5011 0.84805 0.21941 0.0
C746 C 0.4907 0.96544 0.13698 0.0
C747 C 0.53343 0.99023 0.13858 0.0
C748 C 0.47848 0.93697 0.1576 0.0
C749 C 0.50879 0.9327 0.18006 0.0
C750 C 0.55152 0.9579 0.18192 0.0
C751 C 0.56371 0.98644 0.16148 0.0
H752 H 0.13745 0.30709 0.78861 0.0
H753 H 0.13603 0.34613 0.6905 0.0
H754 H 0.10047 0.24236 0.76019 0.0
H755 H 0.10139 0.28171 0.66262 0.0
H756 H 0.10704 0.16653 0.64582 0.0
H757 H 0.13766 0.22931 0.6772 0.0
H758 H 1.01876 0.19891 0.70198 0.0
H759 H 0.98752 0.13645 0.66957 0.0
C760 C 0.12872 0.30203 0.76112 0.0
C761 C 0.14026 0.33216 0.74197 0.0
C762 C 0.10791 0.26495 0.74491 0.0
C763 C 0.09872 0.25731 0.70932 0.0
C764 C 0.10863 0.28703 0.69013 0.0
C765 C 0.12864 0.32392 0.70621 0.0
C766 C 0.08749 0.17316 0.6581 0.0
C767 C 0.04487 0.14664 0.65517 0.0
C768 C 0.105 0.20901 0.67599 0.0
C769 C 0.08049 0.21872 0.69197 0.0
C770 C 0.03824 0.19194 0.68995 0.0
C771 C 1.02046 0.15633 0.6714 0.0
H772 H 0.71465 0.31905 0.48072 0.0
H773 H 0.58888 0.22705 0.47311 0.0
H774 H 0.68867 0.36316 0.48155 0.0
H775 H 0.563 0.2708 0.47417 0.0
H776 H 0.52257 0.35599 0.45514 0.0
H777 H 0.55195 0.31689 0.44276 0.0
H778 H 0.66035 0.38366 0.52427 0.0
H779 H 0.63082 0.42227 0.53715 0.0
C780 C 0.68139 0.30826 0.47861 0.0
C781 C 0.65381 0.26969 0.47708 0.0
C782 C 0.66656 0.33347 0.47935 0.0
C783 C 0.62379 0.3205 0.47807 0.0
C784 C 0.59602 0.28173 0.47489 0.0
C785 C 0.61088 0.25667 0.47455 0.0
C786 C 0.55273 0.36243 0.4704 0.0
C787 C 0.57405 0.39214 0.4974 0.0
C788 C 0.56961 0.34008 0.4632 0.0
C789 C 0.60838 0.34703 0.48265 0.0
C790 C 0.63067 0.37781 0.50853 0.0
C791 C 0.61368 0.40002 0.51588 0.0
loop_
_geom_bond_atom_site_label_1
_geom_bond_atom_site_label_2
_geom_bond_distance
_geom_bond_site_symmetry_2
_ccdc_geom_bond_type
H0 C1 0.949 . S
C1 H0 0.949 . S
C1 C2 1.395 . S
C1 C3 1.391 . S
C2 C1 1.395 . S
C2 C5 1.390 . S
C3 C1 1.391 . S
C3 C7 1.387 . S
C3 C8 1.491 . S
H4 C5 0.950 . S
C5 C2 1.390 . S
C5 H4 0.950 . S
C5 C6 1.378 . S
C6 C5 1.378 . S
C6 C7 1.409 . S
C7 C3 1.387 . S
C7 C6 1.409 . S
C7 H9 0.951 . S
C8 C3 1.491 . S
C8 C10 1.382 . S
C8 C12 1.404 . S
H9 C7 0.951 . S
C10 C8 1.382 . S
C10 C11 1.390 . S
C10 H15 0.949 . S
C11 C10 1.390 . S
C11 C16 1.399 . S
C12 C8 1.404 . S
C12 H13 0.950 . S
C12 C14 1.375 . S
H13 C12 0.950 . S
C14 C12 1.375 . S
C14 C16 1.382 . S
C14 H18 0.950 . S
H15 C10 0.949 . S
C16 C11 1.399 . S
C16 C14 1.382 . S
C16 H17 0.952 . S
H17 C16 0.952 . S
H18 C14 0.950 . S
H19 C20 0.949 . S
C20 H19 0.949 . S
C20 C21 1.395 . S
C20 C22 1.391 . S
C21 C20 1.395 . S
C21 C24 1.390 . S
C22 C20 1.391 . S
C22 C26 1.387 . S
C22 C27 1.491 . S
H23 C24 0.950 . S
C24 C21 1.390 . S
C24 H23 0.950 . S
C24 C25 1.378 . S
C25 C24 1.378 . S
C25 C26 1.409 . S
C26 C22 1.387 . S
C26 C25 1.409 . S
C26 H28 0.951 . S
C27 C22 1.491 . S
C27 C29 1.382 . S
C27 C31 1.404 . S
H28 C26 0.951 . S
C29 C27 1.382 . S
C29 C30 1.390 . S
C29 H34 0.949 . S
C30 C29 1.390 . S
C30 C35 1.399 . S
C31 C27 1.404 . S
C31 H32 0.950 . S
C31 C33 1.375 . S
H32 C31 0.950 . S
C33 C31 1.375 . S
C33 C35 1.382 . S
C33 H37 0.950 . S
H34 C29 0.949 . S
C35 C30 1.399 . S
C35 C33 1.382 . S
C35 H36 0.952 . S
H36 C35 0.952 . S
H37 C33 0.950 . S
H38 C39 0.949 . S
C39 H38 0.949 . S
C39 C40 1.395 . S
C39 C41 1.391 . S
C40 C39 1.395 . S
C40 C43 1.390 . S
C41 C39 1.391 . S
C41 C45 1.387 . S
C41 C46 1.491 . S
H42 C43 0.950 . S
C43 C40 1.390 . S
C43 H42 0.950 . S
C43 C44 1.378 . S
C44 C43 1.378 . S
C44 C45 1.409 . S
C45 C41 1.387 . S
C45 C44 1.409 . S
C45 H47 0.951 . S
C46 C41 1.491 . S
C46 C48 1.382 . S
C46 C50 1.404 . S
H47 C45 0.951 . S
C48 C46 1.382 . S
C48 C49 1.390 . S
C48 H53 0.949 . S
C49 C48 1.390 . S
C49 C54 1.399 . S
C50 C46 1.404 . S
C50 H51 0.950 . S
C50 C52 1.375 . S
H51 C50 0.950 . S
C52 C50 1.375 . S
C52 C54 1.382 . S
C52 H56 0.950 . S
H53 C48 0.949 . S
C54 C49 1.399 . S
C54 C52 1.382 . S
C54 H55 0.952 . S
H55 C54 0.952 . S
H56 C52 0.950 . S
H57 C58 0.949 . S
C58 H57 0.949 . S
C58 C59 1.395 . S
C58 C60 1.391 . S
C59 C58 1.395 . S
C59 C62 1.390 . S
C60 C58 1.391 . S
C60 C64 1.387 . S
C60 C65 1.491 . S
H61 C62 0.950 . S
C62 C59 1.390 . S
C62 H61 0.950 . S
C62 C63 1.378 . S
C63 C62 1.378 . S
C63 C64 1.409 . S
C64 C60 1.387 . S
C64 C63 1.409 . S
C64 H66 0.951 . S
C65 C60 1.491 . S
C65 C67 1.382 . S
C65 C69 1.404 . S
H66 C64 0.951 . S
C67 C65 1.382 . S
C67 C68 1.390 . S
C67 H72 0.949 . S
C68 C67 1.390 . S
C68 C73 1.399 . S
C69 C65 1.404 . S
C69 H70 0.950 . S
C69 C71 1.375 . S
H70 C69 0.950 . S
C71 C69 1.375 . S
C71 C73 1.382 . S
C71 H75 0.950 . S
H72 C67 0.949 . S
C73 C68 1.399 . S
C73 C71 1.382 . S
C73 H74 0.952 . S
H74 C73 0.952 . S
H75 C71 0.950 . S
H76 C77 0.949 . S
C77 H76 0.949 . S
C77 C78 1.395 . S
C77 C79 1.391 . S
C78 C77 1.395 . S
C78 C81 1.390 . S
C79 C77 1.391 . S
C79 C83 1.387 . S
C79 C84 1.491 . S
H80 C81 0.950 . S
C81 C78 1.390 . S
C81 H80 0.950 . S
C81 C82 1.378 . S
C82 C81 1.378 . S
C82 C83 1.409 . S
C83 C79 1.387 . S
C83 C82 1.409 . S
C83 H85 0.951 . S
C84 C79 1.491 . S
C84 C86 1.382 . S
C84 C88 1.404 . S
H85 C83 0.951 . S
C86 C84 1.382 . S
C86 C87 1.390 . S
C86 H91 0.949 . S
C87 C86 1.390 . S
C87 C92 1.399 . S
C88 C84 1.404 . S
C88 H89 0.950 . S
C88 C90 1.375 . S
H89 C88 0.950 . S
C90 C88 1.375 . S
C90 C92 1.382 . S
C90 H94 0.950 . S
H91 C86 0.949 . S
C92 C87 1.399 . S
C92 C90 1.382 . S
C92 H93 0.952 . S
H93 C92 0.952 . S
H94 C90 0.950 . S
H95 C96 0.949 . S
C96 H95 0.949 . S
C96 C97 1.395 . S
C96 C98 1.391 . S
C97 C96 1.395 . S
C97 C100 1.390 . S
C98 C96 1.391 . S
C98 C102 1.387 . S
C98 C103 1.491 . S
H99 C100 0.950 . S
C100 C97 1.390 . S
C100 H99 0.950 . S
C100 C101 1.378 . S
C101 C100 1.378 . S
C101 C102 1.409 . S
C102 C98 1.387 . S
C102 C101 1.409 . S
C102 H104 0.951 . S
C103 C98 1.491 . S
C103 C105 1.382 . S
C103 C107 1.404 . S
H104 C102 0.951 . S
C105 C103 1.382 . S
C105 C106 1.390 . S
C105 H110 0.949 . S
C106 C105 1.390 . S
C106 C111 1.399 . S
C107 C103 1.404 . S
C107 H108 0.950 . S
C107 C109 1.375 . S
H108 C107 0.950 . S
C109 C107 1.375 . S
C109 C111 1.382 . S
C109 H113 0.950 . S
H110 C105 0.949 . S
C111 C106 1.399 . S
C111 C109 1.382 . S
C111 H112 0.952 . S
H112 C111 0.952 . S
H113 C109 0.950 . S
H114 C115 0.949 . S
C115 H114 0.949 . S
C115 C116 1.395 . S
C115 C117 1.391 . S
C116 C115 1.395 . S
C116 C119 1.390 . S
C117 C115 1.391 . S
C117 C121 1.387 . S
C117 C122 1.491 . S
H118 C119 0.950 . S
C119 C116 1.390 . S
C119 H118 0.950 . S
C119 C120 1.378 . S
C120 C119 1.378 . S
C120 C121 1.409 . S
C121 C117 1.387 . S
C121 C120 1.409 . S
C121 H123 0.951 . S
C122 C117 1.491 . S
C122 C124 1.382 . S
C122 C126 1.404 . S
H123 C121 0.951 . S
C124 C122 1.382 . S
C124 C125 1.390 . S
C124 H129 0.949 . S
C125 C124 1.390 . S
C125 C130 1.399 . S
C126 C122 1.404 . S
C126 H127 0.950 . S
C126 C128 1.375 . S
H127 C126 0.950 . S
C128 C126 1.375 . S
C128 C130 1.382 . S
C128 H132 0.950 . S
H129 C124 0.949 . S
C130 C125 1.399 . S
C130 C128 1.382 . S
C130 H131 0.952 . S
H131 C130 0.952 . S
H132 C128 0.950 . S
H133 C134 0.949 . S
C134 H133 0.949 . S
C134 C135 1.395 . S
C134 C136 1.391 . S
C135 C134 1.395 . S
C135 C138 1.390 . S
C136 C134 1.391 . S
C136 C140 1.387 . S
C136 C141 1.491 . S
H137 C138 0.950 . S
C138 C135 1.390 . S
C138 H137 0.950 . S
C138 C139 1.378 . S
C139 C138 1.378 . S
C139 C140 1.409 . S
C140 C136 1.387 . S
C140 C139 1.409 . S
C140 H142 0.951 . S
C141 C136 1.491 . S
C141 C143 1.382 . S
C141 C145 1.404 . S
H142 C140 0.951 . S
C143 C141 1.382 . S
C143 C144 1.390 . S
C143 H148 0.949 . S
C144 C143 1.390 . S
C144 C149 1.399 . S
C145 C141 1.404 . S
C145 H146 0.950 . S
C145 C147 1.375 . S
H146 C145 0.950 . S
C147 C145 1.375 . S
C147 C149 1.382 . S
C147 H151 0.950 . S
H148 C143 0.949 . S
C149 C144 1.399 . S
C149 C147 1.382 . S
C149 H150 0.952 . S
H150 C149 0.952 . S
H151 C147 0.950 . S
Pr152 C154 2.880 1_545 S
Pr152 O172 2.562 1_545 S
Pr152 O173 2.490 1_545 S
Pr152 O174 2.695 1_655 S
Pr152 O175 2.512 1_655 S
Pr152 O177 2.437 1_655 S
Pr152 O180 2.436 1_545 S
Pr152 O182 2.438 . S
Pr153 C163 2.880 . S
Pr153 O174 2.436 . S
Pr153 O176 2.438 . S
Pr153 O178 2.562 . S
Pr153 O179 2.490 . S
Pr153 O180 2.695 1_445 S
Pr153 O181 2.512 1_545 S
Pr153 O183 2.437 . S
C154 Pr152 2.880 1_565 S
C154 C155 1.491 . S
C154 O172 1.254 . S
C154 O173 1.225 . S
C155 C154 1.491 . S
C155 C156 1.392 . S
C155 C160 1.356 . S
C156 C155 1.392 . S
C156 C157 1.368 . S
C156 H184 0.929 . S
C157 C156 1.368 . S
C157 C158 1.386 . S
C157 H185 0.929 . S
C158 C157 1.386 . S
C158 C159 1.373 . S
C159 C158 1.373 . S
C159 C160 1.409 . S
C159 H186 0.931 . S
C160 C155 1.356 . S
C160 C159 1.409 . S
C160 H187 0.930 . S
C161 O174 1.270 . S
C161 O175 1.248 . S
C162 O176 1.267 . S
C162 O177 1.278 . S
C163 Pr153 2.880 . S
C163 C164 1.491 . S
C163 O178 1.254 . S
C163 O179 1.225 . S
C164 C163 1.491 . S
C164 C165 1.392 . S
C164 C169 1.356 . S
C165 C164 1.392 . S
C165 C166 1.368 . S
C165 H188 0.929 . S
C166 C165 1.368 . S
C166 C167 1.386 . S
C166 H189 0.929 . S
C167 C166 1.386 . S
C167 C168 1.373 . S
C168 C167 1.373 . S
C168 C169 1.409 . S
C168 H190 0.931 . S
C169 C164 1.356 . S
C169 C168 1.409 . S
C169 H191 0.930 . S
C170 O180 1.270 . S
C170 O181 1.248 1_655 S
C171 O182 1.267 . S
C171 O183 1.278 1_655 S
O172 Pr152 2.562 1_565 S
O172 C154 1.254 . S
O173 Pr152 2.490 1_565 S
O173 C154 1.225 . S
O174 Pr152 2.695 1_455 S
O174 Pr153 2.436 . S
O174 C161 1.270 . S
O175 Pr152 2.512 1_455 S
O175 C161 1.248 . S
O176 Pr153 2.438 . S
O176 C162 1.267 . S
O177 Pr152 2.437 1_455 S
O177 C162 1.278 . S
O178 Pr153 2.562 . S
O178 C163 1.254 . S
O179 Pr153 2.490 . S
O179 C163 1.225 . S
O180 Pr152 2.436 1_565 S
O180 Pr153 2.695 1_665 S
O180 C170 1.270 . S
O181 Pr153 2.512 1_565 S
O181 C170 1.248 1_455 S
O182 Pr152 2.438 . S
O182 C171 1.267 . S
O183 Pr153 2.437 . S
O183 C171 1.278 1_455 S
H184 C156 0.929 . S
H185 C157 0.929 . S
H186 C159 0.931 . S
H187 C160 0.930 . S
H188 C165 0.929 . S
H189 C166 0.929 . S
H190 C168 0.931 . S
H191 C169 0.930 . S
Pr192 C194 2.880 . S
Pr192 O212 2.562 . S
Pr192 O213 2.490 . S
Pr192 O214 2.695 . S
Pr192 O215 2.512 . S
Pr192 O217 2.437 . S
Pr192 O220 2.436 . S
Pr192 O222 2.438 1_545 S
Pr193 C203 2.880 1_545 S
Pr193 O214 2.436 . S
Pr193 O216 2.438 . S
Pr193 O218 2.562 1_545 S
Pr193 O219 2.490 1_545 S
Pr193 O220 2.695 . S
Pr193 O221 2.512 1_545 S
Pr193 O223 2.437 1_545 S
C194 Pr192 2.880 . S
C194 C195 1.491 . S
C194 O212 1.254 . S
C194 O213 1.225 . S
C195 C194 1.491 . S
C195 C196 1.392 . S
C195 C200 1.356 . S
C196 C195 1.392 . S
C196 C197 1.368 . S
C196 H224 0.929 . S
C197 C196 1.368 . S
C197 C198 1.386 . S
C197 H225 0.929 . S
C198 C197 1.386 . S
C198 C199 1.373 . S
C199 C198 1.373 . S
C199 C200 1.409 . S
C199 H226 0.931 . S
C200 C195 1.356 . S
C200 C199 1.409 . S
C200 H227 0.930 . S
C201 O214 1.270 . S
C201 O215 1.248 . S
C202 O216 1.267 . S
C202 O217 1.278 . S
C203 Pr193 2.880 1_565 S
C203 C204 1.491 . S
C203 O218 1.254 . S
C203 O219 1.225 . S
C204 C203 1.491 . S
C204 C205 1.392 . S
C204 C209 1.356 1_554 S
C205 C204 1.392 . S
C205 C206 1.368 . S
C205 H228 0.929 . S
C206 C205 1.368 . S
C206 C207 1.386 1_554 S
C206 H229 0.929 . S
C207 C206 1.386 1_556 S
C207 C208 1.373 . S
C208 C207 1.373 . S
C208 C209 1.409 . S
C208 H230 0.931 . S
C209 C204 1.356 1_556 S
C209 C208 1.409 . S
C209 H231 0.930 . S
C210 O220 1.270 1_565 S
C210 O221 1.248 . S
C211 O222 1.267 . S
C211 O223 1.278 . S
O212 Pr192 2.562 . S
O212 C194 1.254 . S
O213 Pr192 2.490 . S
O213 C194 1.225 . S
O214 Pr192 2.695 . S
O214 Pr193 2.436 . S
O214 C201 1.270 . S
O215 Pr192 2.512 . S
O215 C201 1.248 . S
O216 Pr193 2.438 . S
O216 C202 1.267 . S
O217 Pr192 2.437 . S
O217 C202 1.278 . S
O218 Pr193 2.562 1_565 S
O218 C203 1.254 . S
O219 Pr193 2.490 1_565 S
O219 C203 1.225 . S
O220 Pr192 2.436 . S
O220 Pr193 2.695 . S
O220 C210 1.270 1_545 S
O221 Pr193 2.512 1_565 S
O221 C210 1.248 . S
O222 Pr192 2.438 1_565 S
O222 C211 1.267 . S
O223 Pr193 2.437 1_565 S
O223 C211 1.278 . S
H224 C196 0.929 . S
H225 C197 0.929 . S
H226 C199 0.931 . S
H227 C200 0.930 . S
H228 C205 0.929 . S
H229 C206 0.929 . S
H230 C208 0.931 . S
H231 C209 0.930 . S
Pr232 C234 2.880 . S
Pr232 O252 2.562 . S
Pr232 O253 2.490 . S
Pr232 O254 2.695 . S
Pr232 O255 2.512 . S
Pr232 O257 2.437 . S
Pr232 O260 2.436 . S
Pr232 O262 2.438 . S
Pr233 C243 2.880 . S
Pr233 O254 2.436 . S
Pr233 O256 2.438 . S
Pr233 O258 2.562 . S
Pr233 O259 2.490 . S
Pr233 O260 2.695 . S
Pr233 O261 2.512 . S
Pr233 O263 2.437 . S
C234 Pr232 2.880 . S
C234 C235 1.491 . S
C234 O252 1.254 . S
C234 O253 1.225 . S
C235 C234 1.491 . S
C235 C236 1.392 . S
C235 C240 1.356 . S
C236 C235 1.392 . S
C236 C237 1.368 . S
C236 H264 0.929 . S
C237 C236 1.368 . S
C237 C238 1.386 . S
C237 H265 0.929 . S
C238 C237 1.386 . S
C238 C239 1.373 . S
C239 C238 1.373 . S
C239 C240 1.409 . S
C239 H266 0.931 . S
C240 C235 1.356 . S
C240 C239 1.409 . S
C240 H267 0.930 . S
C241 O254 1.270 . S
C241 O255 1.248 . S
C242 O256 1.267 . S
C242 O257 1.278 . S
C243 Pr233 2.880 . S
C243 C244 1.491 . S
C243 O258 1.254 . S
C243 O259 1.225 . S
C244 C243 1.491 . S
C244 C245 1.392 . S
C244 C249 1.356 . S
C245 C244 1.392 . S
C245 C246 1.368 . S
C245 H268 0.929 . S
C246 C245 1.368 . S
C246 C247 1.386 . S
C246 H269 0.929 . S
C247 C246 1.386 . S
C247 C248 1.373 . S
C248 C247 1.373 . S
C248 C249 1.409 . S
C248 H270 0.931 . S
C249 C244 1.356 . S
C249 C248 1.409 . S
C249 H271 0.930 . S
C250 O260 1.270 . S
C250 O261 1.248 . S
C251 O262 1.267 . S
C251 O263 1.278 . S
O252 Pr232 2.562 . S
O252 C234 1.254 . S
O253 Pr232 2.490 . S
O253 C234 1.225 . S
O254 Pr232 2.695 . S
O254 Pr233 2.436 . S
O254 C241 1.270 . S
O255 Pr232 2.512 . S
O255 C241 1.248 . S
O256 Pr233 2.438 . S
O256 C242 1.267 . S
O257 Pr232 2.437 . S
O257 C242 1.278 . S
O258 Pr233 2.562 . S
O258 C243 1.254 . S
O259 Pr233 2.490 . S
O259 C243 1.225 . S
O260 Pr232 2.436 . S
O260 Pr233 2.695 . S
O260 C250 1.270 . S
O261 Pr233 2.512 . S
O261 C250 1.248 . S
O262 Pr232 2.438 . S
O262 C251 1.267 . S
O263 Pr233 2.437 . S
O263 C251 1.278 . S
H264 C236 0.929 . S
H265 C237 0.929 . S
H266 C239 0.931 . S
H267 C240 0.930 . S
H268 C245 0.929 . S
H269 C246 0.929 . S
H270 C248 0.931 . S
H271 C249 0.930 . S
Pr272 C274 2.880 . S
Pr272 O292 2.562 1_455 S
Pr272 O293 2.490 . S
Pr272 O294 2.695 1_556 S
Pr272 O295 2.512 1_556 S
Pr272 O297 2.437 1_556 S
Pr272 O300 2.436 . S
Pr272 O302 2.438 . S
Pr273 C283 2.880 . S
Pr273 O294 2.436 . S
Pr273 O296 2.438 . S
Pr273 O298 2.562 . S
Pr273 O299 2.490 . S
Pr273 O300 2.695 1_554 S
Pr273 O301 2.512 1_454 S
Pr273 O303 2.437 1_554 S
C274 Pr272 2.880 . S
C274 C275 1.491 1_455 S
C274 O292 1.254 1_455 S
C274 O293 1.225 . S
C275 C274 1.491 1_655 S
C275 C276 1.392 1_655 S
C275 C280 1.356 . S
C276 C275 1.392 1_455 S
C276 C277 1.368 1_455 S
C276 H304 0.929 . S
C277 C276 1.368 1_655 S
C277 C278 1.386 . S
C277 H305 0.929 1_655 S
C278 C277 1.386 . S
C278 C279 1.373 . S
C279 C278 1.373 . S
C279 C280 1.409 . S
C279 H306 0.931 . S
C280 C275 1.356 . S
C280 C279 1.409 . S
C280 H307 0.930 . S
C281 O294 1.270 . S
C281 O295 1.248 . S
C282 O296 1.284 . S
C282 O297 1.289 . S
C283 Pr273 2.880 . S
C283 C284 1.491 . S
C283 O298 1.254 . S
C283 O299 1.225 . S
C284 C283 1.491 . S
C284 C285 1.392 . S
C284 C289 1.356 . S
C285 C284 1.392 . S
C285 C286 1.368 . S
C285 H308 0.929 . S
C286 C285 1.368 . S
C286 C287 1.386 . S
C286 H309 0.929 . S
C287 C286 1.386 . S
C287 C288 1.373 . S
C288 C287 1.373 . S
C288 C289 1.409 . S
C288 H310 0.931 . S
C289 C284 1.356 . S
C289 C288 1.409 . S
C289 H311 0.930 . S
C290 O300 1.270 1_655 S
C290 O301 1.248 . S
C291 O302 1.267 . S
C291 O303 1.278 . S
O292 Pr272 2.562 1_655 S
O292 C274 1.254 1_655 S
O293 Pr272 2.490 . S
O293 C274 1.225 . S
O294 Pr272 2.695 1_554 S
O294 Pr273 2.436 . S
O294 C281 1.270 . S
O295 Pr272 2.512 1_554 S
O295 C281 1.248 . S
O296 Pr273 2.438 . S
O296 C282 1.284 . S
O297 Pr272 2.437 1_554 S
O297 C282 1.289 . S
O298 Pr273 2.562 . S
O298 C283 1.254 . S
O299 Pr273 2.490 . S
O299 C283 1.225 . S
O300 Pr272 2.436 . S
O300 Pr273 2.695 1_556 S
O300 C290 1.270 1_455 S
O301 Pr273 2.512 1_656 S
O301 C290 1.248 . S
O302 Pr272 2.438 . S
O302 C291 1.267 . S
O303 Pr273 2.437 1_556 S
O303 C291 1.278 . S
H304 C276 0.929 . S
H305 C277 0.929 1_455 S
H306 C279 0.931 . S
H307 C280 0.930 . S
H308 C285 0.929 . S
H309 C286 0.929 . S
H310 C288 0.931 . S
H311 C289 0.930 . S
H312 C320 0.950 . S
H313 C325 0.950 . S
H314 C322 0.950 . S
H315 C324 0.950 . S
H316 C326 0.950 . S
H317 C328 0.950 . S
H318 C330 0.950 . S
H319 C331 0.950 . S
C320 H312 0.950 . S
C320 C321 1.386 . S
C320 C322 1.391 . S
C321 C320 1.386 . S
C321 C325 1.393 . S
C322 H314 0.950 . S
C322 C320 1.391 . S
C322 C323 1.400 . S
C323 C322 1.400 . S
C323 C324 1.398 . S
C323 C329 1.491 . S
C324 H315 0.950 . S
C324 C323 1.398 . S
C324 C325 1.391 . S
C325 H313 0.950 . S
C325 C321 1.393 . S
C325 C324 1.391 . S
C326 H316 0.950 . S
C326 C327 1.386 . S
C326 C328 1.391 . S
C327 C326 1.386 . S
C327 C331 1.393 . S
C328 H317 0.950 . S
C328 C326 1.391 . S
C328 C329 1.400 . S
C329 C323 1.491 . S
C329 C328 1.400 . S
C329 C330 1.398 . S
C330 H318 0.950 . S
C330 C329 1.398 . S
C330 C331 1.391 . S
C331 H319 0.950 . S
C331 C327 1.393 . S
C331 C330 1.391 . S
H332 C340 0.950 . S
H333 C345 0.950 . S
H334 C342 0.950 . S
H335 C344 0.950 . S
H336 C346 0.950 1_554 S
H337 C348 0.950 . S
H338 C350 0.950 . S
H339 C351 0.950 . S
C340 H332 0.950 . S
C340 C341 1.386 . S
C340 C342 1.391 . S
C341 C340 1.386 . S
C341 C345 1.393 . S
C342 H334 0.950 . S
C342 C340 1.391 . S
C342 C343 1.400 . S
C343 C342 1.400 . S
C343 C344 1.398 . S
C343 C349 1.491 . S
C344 H335 0.950 . S
C344 C343 1.398 . S
C344 C345 1.391 . S
C345 H333 0.950 . S
C345 C341 1.393 . S
C345 C344 1.391 . S
C346 H336 0.950 1_556 S
C346 C347 1.386 . S
C346 C348 1.391 . S
C347 C346 1.386 . S
C347 C351 1.393 . S
C348 H337 0.950 . S
C348 C346 1.391 . S
C348 C349 1.400 . S
C349 C343 1.491 . S
C349 C348 1.400 . S
C349 C350 1.398 . S
C350 H338 0.950 . S
C350 C349 1.398 . S
C350 C351 1.391 . S
C351 H339 0.950 . S
C351 C347 1.393 . S
C351 C350 1.391 . S
H352 C360 0.950 . S
H353 C365 0.950 . S
H354 C362 0.950 . S
H355 C364 0.950 . S
H356 C366 0.950 . S
H357 C368 0.950 . S
H358 C370 0.950 . S
H359 C371 0.950 . S
C360 H352 0.950 . S
C360 C361 1.386 . S
C360 C362 1.391 . S
C361 C360 1.386 . S
C361 C365 1.393 . S
C362 H354 0.950 . S
C362 C360 1.391 . S
C362 C363 1.400 . S
C363 C362 1.400 . S
C363 C364 1.398 . S
C363 C369 1.491 . S
C364 H355 0.950 . S
C364 C363 1.398 . S
C364 C365 1.391 . S
C365 H353 0.950 . S
C365 C361 1.393 . S
C365 C364 1.391 . S
C366 H356 0.950 . S
C366 C367 1.386 . S
C366 C368 1.391 . S
C367 C366 1.386 . S
C367 C371 1.393 . S
C368 H357 0.950 . S
C368 C366 1.391 . S
C368 C369 1.400 . S
C369 C363 1.491 . S
C369 C368 1.400 . S
C369 C370 1.398 . S
C370 H358 0.950 . S
C370 C369 1.398 . S
C370 C371 1.391 . S
C371 H359 0.950 . S
C371 C367 1.393 . S
C371 C370 1.391 . S
H372 C380 0.950 . S
H373 C385 0.950 . S
H374 C382 0.950 . S
H375 C384 0.950 . S
H376 C386 0.950 . S
H377 C388 0.950 . S
H378 C390 0.950 . S
H379 C391 0.950 1_455 S
C380 H372 0.950 . S
C380 C381 1.386 . S
C380 C382 1.391 . S
C381 C380 1.386 . S
C381 C385 1.393 . S
C382 H374 0.950 . S
C382 C380 1.391 . S
C382 C383 1.400 . S
C383 C382 1.400 . S
C383 C384 1.398 . S
C383 C389 1.491 . S
C384 H375 0.950 . S
C384 C383 1.398 . S
C384 C385 1.391 . S
C385 H373 0.950 . S
C385 C381 1.393 . S
C385 C384 1.391 . S
C386 H376 0.950 . S
C386 C387 1.386 . S
C386 C388 1.391 . S
C387 C386 1.386 . S
C387 C391 1.393 . S
C388 H377 0.950 . S
C388 C386 1.391 . S
C388 C389 1.400 . S
C389 C383 1.491 . S
C389 C388 1.400 . S
C389 C390 1.398 . S
C390 H378 0.950 . S
C390 C389 1.398 . S
C390 C391 1.391 . S
C391 H379 0.950 1_655 S
C391 C387 1.393 . S
C391 C390 1.391 . S
H392 C400 0.950 . S
H393 C405 0.950 . S
H394 C402 0.950 . S
H395 C404 0.950 . S
H396 C406 0.950 . S
H397 C408 0.950 . S
H398 C410 0.950 . S
H399 C411 0.950 . S
C400 H392 0.950 . S
C400 C401 1.386 . S
C400 C402 1.391 . S
C401 C400 1.386 . S
C401 C405 1.393 . S
C402 H394 0.950 . S
C402 C400 1.391 . S
C402 C403 1.400 . S
C403 C402 1.400 . S
C403 C404 1.398 . S
C403 C409 1.491 . S
C404 H395 0.950 . S
C404 C403 1.398 . S
C404 C405 1.391 . S
C405 H393 0.950 . S
C405 C401 1.393 . S
C405 C404 1.391 . S
C406 H396 0.950 . S
C406 C407 1.386 . S
C406 C408 1.391 . S
C407 C406 1.386 . S
C407 C411 1.393 . S
C408 H397 0.950 . S
C408 C406 1.391 . S
C408 C409 1.400 . S
C409 C403 1.491 . S
C409 C408 1.400 . S
C409 C410 1.398 . S
C410 H398 0.950 . S
C410 C409 1.398 . S
C410 C411 1.391 . S
C411 H399 0.950 . S
C411 C407 1.393 . S
C411 C410 1.391 . S
H412 C420 0.950 . S
H413 C425 0.950 . S
H414 C422 0.950 . S
H415 C424 0.950 . S
H416 C426 0.950 1_545 S
H417 C428 0.950 . S
H418 C430 0.950 . S
H419 C431 0.950 1_655 S
C420 H412 0.950 . S
C420 C421 1.386 . S
C420 C422 1.391 . S
C421 C420 1.386 . S
C421 C425 1.393 . S
C422 H414 0.950 . S
C422 C420 1.391 . S
C422 C423 1.400 . S
C423 C422 1.400 . S
C423 C424 1.398 . S
C423 C429 1.491 . S
C424 H415 0.950 . S
C424 C423 1.398 . S
C424 C425 1.391 . S
C425 H413 0.950 . S
C425 C421 1.393 . S
C425 C424 1.391 . S
C426 H416 0.950 1_565 S
C426 C427 1.386 . S
C426 C428 1.391 . S
C427 C426 1.386 . S
C427 C431 1.393 . S
C428 H417 0.950 . S
C428 C426 1.391 . S
C428 C429 1.400 . S
C429 C423 1.491 . S
C429 C428 1.400 . S
C429 C430 1.398 . S
C430 H418 0.950 . S
C430 C429 1.398 . S
C430 C431 1.391 . S
C431 H419 0.950 1_455 S
C431 C427 1.393 . S
C431 C430 1.391 . S
H432 C440 0.950 . S
H433 C445 0.950 . S
H434 C442 0.950 . S
H435 C444 0.950 . S
H436 C446 0.950 . S
H437 C448 0.950 . S
H438 C450 0.950 . S
H439 C451 0.950 . S
C440 H432 0.950 . S
C440 C441 1.386 . S
C440 C442 1.391 . S
C441 C440 1.386 . S
C441 C445 1.393 . S
C442 H434 0.950 . S
C442 C440 1.391 . S
C442 C443 1.400 . S
C443 C442 1.400 . S
C443 C444 1.398 . S
C443 C449 1.491 . S
C444 H435 0.950 . S
C444 C443 1.398 . S
C444 C445 1.391 . S
C445 H433 0.950 . S
C445 C441 1.393 . S
C445 C444 1.391 . S
C446 H436 0.950 . S
C446 C447 1.386 . S
C446 C448 1.391 . S
C447 C446 1.386 . S
C447 C451 1.393 . S
C448 H437 0.950 . S
C448 C446 1.391 . S
C448 C449 1.400 . S
C449 C443 1.491 . S
C449 C448 1.400 . S
C449 C450 1.398 . S
C450 H438 0.950 . S
C450 C449 1.398 . S
C450 C451 1.391 . S
C451 H439 0.950 . S
C451 C447 1.393 . S
C451 C450 1.391 . S
H452 C460 0.950 . S
H453 C465 0.950 . S
H454 C462 0.950 . S
H455 C464 0.950 . S
H456 C466 0.950 . S
H457 C468 0.950 . S
H458 C470 0.950 . S
H459 C471 0.950 . S
C460 H452 0.950 . S
C460 C461 1.386 . S
C460 C462 1.391 . S
C461 C460 1.386 . S
C461 C465 1.393 . S
C462 H454 0.950 . S
C462 C460 1.391 . S
C462 C463 1.400 . S
C463 C462 1.400 . S
C463 C464 1.398 . S
C463 C469 1.491 . S
C464 H455 0.950 . S
C464 C463 1.398 . S
C464 C465 1.391 . S
C465 H453 0.950 . S
C465 C461 1.393 . S
C465 C464 1.391 . S
C466 H456 0.950 . S
C466 C467 1.386 . S
C466 C468 1.391 . S
C467 C466 1.386 . S
C467 C471 1.393 . S
C468 H457 0.950 . S
C468 C466 1.391 . S
C468 C469 1.400 . S
C469 C463 1.491 . S
C469 C468 1.400 . S
C469 C470 1.398 . S
C470 H458 0.950 . S
C470 C469 1.398 . S
C470 C471 1.391 . S
C471 H459 0.950 . S
C471 C467 1.393 . S
C471 C470 1.391 . S
H472 C480 0.950 . S
H473 C485 0.950 . S
H474 C482 0.950 . S
H475 C484 0.950 . S
H476 C486 0.950 . S
H477 C488 0.950 . S
H478 C490 0.950 . S
H479 C491 0.950 . S
C480 H472 0.950 . S
C480 C481 1.386 . S
C480 C482 1.391 . S
C481 C480 1.386 . S
C481 C485 1.393 . S
C482 H474 0.950 . S
C482 C480 1.391 . S
C482 C483 1.400 . S
C483 C482 1.400 . S
C483 C484 1.398 . S
C483 C489 1.491 . S
C484 H475 0.950 . S
C484 C483 1.398 . S
C484 C485 1.391 . S
C485 H473 0.950 . S
C485 C481 1.393 . S
C485 C484 1.391 . S
C486 H476 0.950 . S
C486 C487 1.386 . S
C486 C488 1.391 . S
C487 C486 1.386 . S
C487 C491 1.393 . S
C488 H477 0.950 . S
C488 C486 1.391 . S
C488 C489 1.400 . S
C489 C483 1.491 . S
C489 C488 1.400 . S
C489 C490 1.398 . S
C490 H478 0.950 . S
C490 C489 1.398 . S
C490 C491 1.391 . S
C491 H479 0.950 . S
C491 C487 1.393 . S
C491 C490 1.391 . S
H492 C500 0.950 . S
H493 C505 0.950 . S
H494 C502 0.950 . S
H495 C504 0.950 . S
H496 C506 0.950 . S
H497 C508 0.950 . S
H498 C510 0.950 . S
H499 C511 0.950 . S
C500 H492 0.950 . S
C500 C501 1.386 . S
C500 C502 1.391 . S
C501 C500 1.386 . S
C501 C505 1.393 . S
C502 H494 0.950 . S
C502 C500 1.391 . S
C502 C503 1.400 . S
C503 C502 1.400 . S
C503 C504 1.398 . S
C503 C509 1.491 . S
C504 H495 0.950 . S
C504 C503 1.398 . S
C504 C505 1.391 . S
C505 H493 0.950 . S
C505 C501 1.393 . S
C505 C504 1.391 . S
C506 H496 0.950 . S
C506 C507 1.386 . S
C506 C508 1.391 1_554 S
C507 C506 1.386 . S
C507 C511 1.393 1_554 S
C508 H497 0.950 . S
C508 C506 1.391 1_556 S
C508 C509 1.400 . S
C509 C503 1.491 . S
C509 C508 1.400 . S
C509 C510 1.398 . S
C510 H498 0.950 . S
C510 C509 1.398 . S
C510 C511 1.391 . S
C511 H499 0.950 . S
C511 C507 1.393 1_556 S
C511 C510 1.391 . S
H512 C520 0.950 . S
H513 C525 0.950 . S
H514 C522 0.950 . S
H515 C524 0.950 . S
H516 C526 0.950 . S
H517 C528 0.950 . S
H518 C530 0.950 . S
H519 C531 0.950 . S
C520 H512 0.950 . S
C520 C521 1.386 . S
C520 C522 1.391 . S
C521 C520 1.386 . S
C521 C525 1.393 . S
C522 H514 0.950 . S
C522 C520 1.391 . S
C522 C523 1.400 . S
C523 C522 1.400 . S
C523 C524 1.398 . S
C523 C529 1.491 . S
C524 H515 0.950 . S
C524 C523 1.398 . S
C524 C525 1.391 . S
C525 H513 0.950 . S
C525 C521 1.393 . S
C525 C524 1.391 . S
C526 H516 0.950 . S
C526 C527 1.386 . S
C526 C528 1.391 . S
C527 C526 1.386 . S
C527 C531 1.393 . S
C528 H517 0.950 . S
C528 C526 1.391 . S
C528 C529 1.400 . S
C529 C523 1.491 . S
C529 C528 1.400 . S
C529 C530 1.398 . S
C530 H518 0.950 . S
C530 C529 1.398 . S
C530 C531 1.391 . S
C531 H519 0.950 . S
C531 C527 1.393 . S
C531 C530 1.391 . S
H532 C540 0.950 . S
H533 C545 0.950 . S
H534 C542 0.950 . S
H535 C544 0.950 . S
H536 C546 0.950 . S
H537 C548 0.950 . S
H538 C550 0.950 . S
H539 C551 0.950 . S
C540 H532 0.950 . S
C540 C541 1.386 . S
C540 C542 1.391 . S
C541 C540 1.386 . S
C541 C545 1.393 . S
C542 H534 0.950 . S
C542 C540 1.391 . S
C542 C543 1.400 . S
C543 C542 1.400 . S
C543 C544 1.398 . S
C543 C549 1.491 . S
C544 H535 0.950 . S
C544 C543 1.398 . S
C544 C545 1.391 . S
C545 H533 0.950 . S
C545 C541 1.393 . S
C545 C544 1.391 . S
C546 H536 0.950 . S
C546 C547 1.386 . S
C546 C548 1.391 . S
C547 C546 1.386 . S
C547 C551 1.393 . S
C548 H537 0.950 . S
C548 C546 1.391 . S
C548 C549 1.400 . S
C549 C543 1.491 . S
C549 C548 1.400 . S
C549 C550 1.398 . S
C550 H538 0.950 . S
C550 C549 1.398 . S
C550 C551 1.391 . S
C551 H539 0.950 . S
C551 C547 1.393 . S
C551 C550 1.391 . S
H552 C560 0.950 . S
H553 C565 0.950 . S
H554 C562 0.950 . S
H555 C564 0.950 . S
H556 C566 0.950 . S
H557 C568 0.950 . S
H558 C570 0.950 . S
H559 C571 0.950 . S
C560 H552 0.950 . S
C560 C561 1.386 . S
C560 C562 1.391 . S
C561 C560 1.386 . S
C561 C565 1.393 . S
C562 H554 0.950 . S
C562 C560 1.391 . S
C562 C563 1.400 . S
C563 C562 1.400 . S
C563 C564 1.398 . S
C563 C569 1.491 . S
C564 H555 0.950 . S
C564 C563 1.398 . S
C564 C565 1.391 . S
C565 H553 0.950 . S
C565 C561 1.393 . S
C565 C564 1.391 . S
C566 H556 0.950 . S
C566 C567 1.386 . S
C566 C568 1.391 . S
C567 C566 1.386 . S
C567 C571 1.393 . S
C568 H557 0.950 . S
C568 C566 1.391 . S
C568 C569 1.400 . S
C569 C563 1.491 . S
C569 C568 1.400 . S
C569 C570 1.398 . S
C570 H558 0.950 . S
C570 C569 1.398 . S
C570 C571 1.391 . S
C571 H559 0.950 . S
C571 C567 1.393 . S
C571 C570 1.391 . S
H572 C580 0.950 . S
H573 C585 0.950 . S
H574 C582 0.950 . S
H575 C584 0.950 . S
H576 C586 0.950 . S
H577 C588 0.950 . S
H578 C590 0.950 . S
H579 C591 0.950 . S
C580 H572 0.950 . S
C580 C581 1.386 . S
C580 C582 1.391 . S
C581 C580 1.386 . S
C581 C585 1.393 . S
C582 H574 0.950 . S
C582 C580 1.391 . S
C582 C583 1.400 . S
C583 C582 1.400 . S
C583 C584 1.398 . S
C583 C589 1.491 . S
C584 H575 0.950 . S
C584 C583 1.398 . S
C584 C585 1.391 . S
C585 H573 0.950 . S
C585 C581 1.393 . S
C585 C584 1.391 . S
C586 H576 0.950 . S
C586 C587 1.386 . S
C586 C588 1.391 . S
C587 C586 1.386 . S
C587 C591 1.393 . S
C588 H577 0.950 . S
C588 C586 1.391 . S
C588 C589 1.400 . S
C589 C583 1.491 . S
C589 C588 1.400 . S
C589 C590 1.398 . S
C590 H578 0.950 . S
C590 C589 1.398 . S
C590 C591 1.391 . S
C591 H579 0.950 . S
C591 C587 1.393 . S
C591 C590 1.391 . S
H592 C600 0.950 . S
H593 C605 0.950 . S
H594 C602 0.950 . S
H595 C604 0.950 . S
H596 C606 0.950 . S
H597 C608 0.950 . S
H598 C610 0.950 . S
H599 C611 0.950 . S
C600 H592 0.950 . S
C600 C601 1.386 . S
C600 C602 1.391 . S
C601 C600 1.386 . S
C601 C605 1.393 . S
C602 H594 0.950 . S
C602 C600 1.391 . S
C602 C603 1.400 . S
C603 C602 1.400 . S
C603 C604 1.398 . S
C603 C609 1.491 . S
C604 H595 0.950 . S
C604 C603 1.398 . S
C604 C605 1.391 . S
C605 H593 0.950 . S
C605 C601 1.393 . S
C605 C604 1.391 . S
C606 H596 0.950 . S
C606 C607 1.386 . S
C606 C608 1.391 . S
C607 C606 1.386 . S
C607 C611 1.393 . S
C608 H597 0.950 . S
C608 C606 1.391 . S
C608 C609 1.400 . S
C609 C603 1.491 . S
C609 C608 1.400 . S
C609 C610 1.398 . S
C610 H598 0.950 . S
C610 C609 1.398 . S
C610 C611 1.391 . S
C611 H599 0.950 . S
C611 C607 1.393 . S
C611 C610 1.391 . S
H612 C620 0.950 . S
H613 C625 0.950 . S
H614 C622 0.950 . S
H615 C624 0.950 . S
H616 C626 0.950 . S
H617 C628 0.950 . S
H618 C630 0.950 . S
H619 C631 0.950 . S
C620 H612 0.950 . S
C620 C621 1.386 . S
C620 C622 1.391 . S
C621 C620 1.386 . S
C621 C625 1.393 . S
C622 H614 0.950 . S
C622 C620 1.391 . S
C622 C623 1.400 . S
C623 C622 1.400 . S
C623 C624 1.398 . S
C623 C629 1.491 . S
C624 H615 0.950 . S
C624 C623 1.398 . S
C624 C625 1.391 . S
C625 H613 0.950 . S
C625 C621 1.393 . S
C625 C624 1.391 . S
C626 H616 0.950 . S
C626 C627 1.386 . S
C626 C628 1.391 . S
C627 C626 1.386 . S
C627 C631 1.393 . S
C628 H617 0.950 . S
C628 C626 1.391 . S
C628 C629 1.400 . S
C629 C623 1.491 . S
C629 C628 1.400 . S
C629 C630 1.398 . S
C630 H618 0.950 . S
C630 C629 1.398 . S
C630 C631 1.391 . S
C631 H619 0.950 . S
C631 C627 1.393 . S
C631 C630 1.391 . S
H632 C640 0.950 . S
H633 C645 0.950 . S
H634 C642 0.950 . S
H635 C644 0.950 . S
H636 C646 0.950 . S
H637 C648 0.950 . S
H638 C650 0.950 . S
H639 C651 0.950 . S
C640 H632 0.950 . S
C640 C641 1.386 . S
C640 C642 1.391 . S
C641 C640 1.386 . S
C641 C645 1.393 . S
C642 H634 0.950 . S
C642 C640 1.391 . S
C642 C643 1.400 . S
C643 C642 1.400 . S
C643 C644 1.398 . S
C643 C649 1.491 . S
C644 H635 0.950 . S
C644 C643 1.398 . S
C644 C645 1.391 . S
C645 H633 0.950 . S
C645 C641 1.393 . S
C645 C644 1.391 . S
C646 H636 0.950 . S
C646 C647 1.386 . S
C646 C648 1.391 . S
C647 C646 1.386 . S
C647 C651 1.393 . S
C648 H637 0.950 . S
C648 C646 1.391 . S
C648 C649 1.400 . S
C649 C643 1.491 . S
C649 C648 1.400 . S
C649 C650 1.398 . S
C650 H638 0.950 . S
C650 C649 1.398 . S
C650 C651 1.391 . S
C651 H639 0.950 . S
C651 C647 1.393 . S
C651 C650 1.391 . S
H652 C660 0.950 . S
H653 C665 0.950 . S
H654 C662 0.950 . S
H655 C664 0.950 . S
H656 C666 0.950 1_455 S
H657 C668 0.950 . S
H658 C670 0.950 . S
H659 C671 0.950 . S
C660 H652 0.950 . S
C660 C661 1.386 . S
C660 C662 1.391 . S
C661 C660 1.386 . S
C661 C665 1.393 . S
C662 H654 0.950 . S
C662 C660 1.391 . S
C662 C663 1.400 . S
C663 C662 1.400 . S
C663 C664 1.398 . S
C663 C669 1.491 . S
C664 H655 0.950 . S
C664 C663 1.398 . S
C664 C665 1.391 . S
C665 H653 0.950 . S
C665 C661 1.393 . S
C665 C664 1.391 . S
C666 H656 0.950 1_655 S
C666 C667 1.386 . S
C666 C668 1.391 . S
C667 C666 1.386 . S
C667 C671 1.393 . S
C668 H657 0.950 . S
C668 C666 1.391 . S
C668 C669 1.400 . S
C669 C663 1.491 . S
C669 C668 1.400 . S
C669 C670 1.398 . S
C670 H658 0.950 . S
C670 C669 1.398 . S
C670 C671 1.391 . S
C671 H659 0.950 . S
C671 C667 1.393 . S
C671 C670 1.391 . S
H672 C680 0.950 . S
H673 C685 0.950 . S
H674 C682 0.950 . S
H675 C684 0.950 . S
H676 C686 0.950 . S
H677 C688 0.950 . S
H678 C690 0.950 . S
H679 C691 0.950 . S
C680 H672 0.950 . S
C680 C681 1.386 . S
C680 C682 1.391 . S
C681 C680 1.386 . S
C681 C685 1.393 . S
C682 H674 0.950 . S
C682 C680 1.391 . S
C682 C683 1.400 . S
C683 C682 1.400 . S
C683 C684 1.398 . S
C683 C689 1.491 . S
C684 H675 0.950 . S
C684 C683 1.398 . S
C684 C685 1.391 . S
C685 H673 0.950 . S
C685 C681 1.393 . S
C685 C684 1.391 . S
C686 H676 0.950 . S
C686 C687 1.386 . S
C686 C688 1.391 . S
C687 C686 1.386 . S
C687 C691 1.393 . S
C688 H677 0.950 . S
C688 C686 1.391 . S
C688 C689 1.400 . S
C689 C683 1.491 . S
C689 C688 1.400 . S
C689 C690 1.398 . S
C690 H678 0.950 . S
C690 C689 1.398 . S
C690 C691 1.391 . S
C691 H679 0.950 . S
C691 C687 1.393 . S
C691 C690 1.391 . S
H692 C700 0.950 . S
H693 C705 0.950 . S
H694 C702 0.950 . S
H695 C704 0.950 . S
H696 C706 0.950 . S
H697 C708 0.950 . S
H698 C710 0.950 . S
H699 C711 0.950 . S
C700 H692 0.950 . S
C700 C701 1.386 . S
C700 C702 1.391 . S
C701 C700 1.386 . S
C701 C705 1.393 . S
C702 H694 0.950 . S
C702 C700 1.391 . S
C702 C703 1.400 . S
C703 C702 1.400 . S
C703 C704 1.398 . S
C703 C709 1.491 . S
C704 H695 0.950 . S
C704 C703 1.398 . S
C704 C705 1.391 . S
C705 H693 0.950 . S
C705 C701 1.393 . S
C705 C704 1.391 . S
C706 H696 0.950 . S
C706 C707 1.386 . S
C706 C708 1.391 . S
C707 C706 1.386 . S
C707 C711 1.393 . S
C708 H697 0.950 . S
C708 C706 1.391 . S
C708 C709 1.400 . S
C709 C703 1.491 . S
C709 C708 1.400 . S
C709 C710 1.398 . S
C710 H698 0.950 . S
C710 C709 1.398 . S
C710 C711 1.391 . S
C711 H699 0.950 . S
C711 C707 1.393 . S
C711 C710 1.391 . S
H712 C720 0.950 . S
H713 C725 0.950 . S
H714 C722 0.950 . S
H715 C724 0.950 . S
H716 C726 0.950 . S
H717 C728 0.950 . S
H718 C730 0.950 . S
H719 C731 0.950 . S
C720 H712 0.950 . S
C720 C721 1.386 . S
C720 C722 1.391 . S
C721 C720 1.386 . S
C721 C725 1.393 . S
C722 H714 0.950 . S
C722 C720 1.391 . S
C722 C723 1.400 . S
C723 C722 1.400 . S
C723 C724 1.398 . S
C723 C729 1.491 . S
C724 H715 0.950 . S
C724 C723 1.398 . S
C724 C725 1.391 . S
C725 H713 0.950 . S
C725 C721 1.393 . S
C725 C724 1.391 . S
C726 H716 0.950 . S
C726 C727 1.386 . S
C726 C728 1.391 . S
C727 C726 1.386 . S
C727 C731 1.393 . S
C728 H717 0.950 . S
C728 C726 1.391 . S
C728 C729 1.400 . S
C729 C723 1.491 . S
C729 C728 1.400 . S
C729 C730 1.398 . S
C730 H718 0.950 . S
C730 C729 1.398 . S
C730 C731 1.391 . S
C731 H719 0.950 . S
C731 C727 1.393 . S
C731 C730 1.391 . S
H732 C740 0.950 . S
H733 C745 0.950 . S
H734 C742 0.950 . S
H735 C744 0.950 . S
H736 C746 0.950 . S
H737 C748 0.950 . S
H738 C750 0.950 . S
H739 C751 0.950 . S
C740 H732 0.950 . S
C740 C741 1.386 . S
C740 C742 1.391 . S
C741 C740 1.386 . S
C741 C745 1.393 . S
C742 H734 0.950 . S
C742 C740 1.391 . S
C742 C743 1.400 . S
C743 C742 1.400 . S
C743 C744 1.398 . S
C743 C749 1.491 . S
C744 H735 0.950 . S
C744 C743 1.398 . S
C744 C745 1.391 . S
C745 H733 0.950 . S
C745 C741 1.393 . S
C745 C744 1.391 . S
C746 H736 0.950 . S
C746 C747 1.386 . S
C746 C748 1.391 . S
C747 C746 1.386 . S
C747 C751 1.393 . S
C748 H737 0.950 . S
C748 C746 1.391 . S
C748 C749 1.400 . S
C749 C743 1.491 . S
C749 C748 1.400 . S
C749 C750 1.398 . S
C750 H738 0.950 . S
C750 C749 1.398 . S
C750 C751 1.391 . S
C751 H739 0.950 . S
C751 C747 1.393 . S
C751 C750 1.391 . S
H752 C760 0.950 . S
H753 C765 0.950 . S
H754 C762 0.950 . S
H755 C764 0.950 . S
H756 C766 0.950 . S
H757 C768 0.950 . S
H758 C770 0.950 . S
H759 C771 0.950 . S
C760 H752 0.950 . S
C760 C761 1.386 . S
C760 C762 1.391 . S
C761 C760 1.386 . S
C761 C765 1.393 . S
C762 H754 0.950 . S
C762 C760 1.391 . S
C762 C763 1.400 . S
C763 C762 1.400 . S
C763 C764 1.398 . S
C763 C769 1.491 . S
C764 H755 0.950 . S
C764 C763 1.398 . S
C764 C765 1.391 . S
C765 H753 0.950 . S
C765 C761 1.393 . S
C765 C764 1.391 . S
C766 H756 0.950 . S
C766 C767 1.386 . S
C766 C768 1.391 . S
C767 C766 1.386 . S
C767 C771 1.393 . S
C768 H757 0.950 . S
C768 C766 1.391 . S
C768 C769 1.400 . S
C769 C763 1.491 . S
C769 C768 1.400 . S
C769 C770 1.398 . S
C770 H758 0.950 . S
C770 C769 1.398 . S
C770 C771 1.391 . S
C771 H759 0.950 . S
C771 C767 1.393 . S
C771 C770 1.391 . S
H772 C780 0.950 . S
H773 C785 0.950 . S
H774 C782 0.950 . S
H775 C784 0.950 . S
H776 C786 0.950 . S
H777 C788 0.950 . S
H778 C790 0.950 . S
H779 C791 0.950 . S
C780 H772 0.950 . S
C780 C781 1.386 . S
C780 C782 1.391 . S
C781 C780 1.386 . S
C781 C785 1.393 . S
C782 H774 0.950 . S
C782 C780 1.391 . S
C782 C783 1.400 . S
C783 C782 1.400 . S
C783 C784 1.398 . S
C783 C789 1.491 . S
C784 H775 0.950 . S
C784 C783 1.398 . S
C784 C785 1.391 . S
C785 H773 0.950 . S
C785 C781 1.393 . S
C785 C784 1.391 . S
C786 H776 0.950 . S
C786 C787 1.386 . S
C786 C788 1.391 . S
C787 C786 1.386 . S
C787 C791 1.393 . S
C788 H777 0.950 . S
C788 C786 1.391 . S
C788 C789 1.400 . S
C789 C783 1.491 . S
C789 C788 1.400 . S
C789 C790 1.398 . S
C790 H778 0.950 . S
C790 C789 1.398 . S
C790 C791 1.391 . S
C791 H779 0.950 . S
C791 C787 1.393 . S
C791 C790 1.391 . S
C321 C6 1.166 . S
C327 C167 1.191 . S
C341 C21 1.926 . S
C347 C211 1.960 1_556 S
C367 C241 1.807 . S
C361 C49 1.688 . S
C381 C68 2.563 . S
C387 C282 2.565 1_655 S
C407 C198 1.576 . S
C401 C2 1.508 . S
C427 C162 2.099 1_565 S
C421 C30 2.049 . S
C447 C290 1.142 . S
C441 C40 1.208 . S
C467 C251 2.207 . S
C461 C63 2.292 . S
C481 C11 1.075 . S
C487 C287 1.080 . S
C507 C201 2.286 . S
C501 C44 2.350 . S
C521 C59 1.610 . S
C527 C170 1.618 . S
C541 C25 2.572 . S
C547 C238 2.518 . S
C567 C158 1.449 . S
C561 C82 1.432 . S
C581 C101 1.476 . S
C587 C202 1.486 . S
C601 C125 1.615 . S
C607 C250 1.850 . S
C621 C144 2.219 . S
C627 C291 2.243 . S
C641 C87 0.748 . S
C647 C207 0.724 . S
C667 C171 3.183 . S
C661 C97 3.133 . S
C687 C281 1.075 . S
C681 C120 1.036 . S
C707 C242 1.758 . S
C701 C135 1.761 . S
C721 C78 1.736 . S
C727 C278 1.767 . S
C747 C210 1.316 . S
C741 C116 1.289 . S
C767 C161 2.202 . S
C761 C139 2.265 . S
C781 C106 1.638 . S
C787 C247 1.954 . S
