# Generated by pormake.
# Topology csq, (4,8)-cn, num edge types: 1
# Building blocks:
#     Node 0, Type 0, BuildingBlock: AZAVOO_clean_linker_0, # of connection points: 4
#     Node 1, Type 0, BuildingBlock: AZAVOO_clean_linker_0, # of connection points: 4
#     Node 2, Type 0, BuildingBlock: AZAVOO_clean_linker_0, # of connection points: 4
#     Node 3, Type 0, BuildingBlock: AZAVOO_clean_linker_0, # of connection points: 4
#     Node 4, Type 0, BuildingBlock: AZAVOO_clean_linker_0, # of connection points: 4
#     Node 5, Type 0, BuildingBlock: AZAVOO_clean_linker_0, # of connection points: 4
#     Node 6, Type 1, BuildingBlock: TAGTUT_clean_sbu_3, # of connection points: 8
#     Node 7, Type 1, BuildingBlock: TAGTUT_clean_sbu_3, # of connection points: 8
#     Node 8, Type 1, BuildingBlock: TAGTUT_clean_sbu_3, # of connection points: 8
#     Edge 9, Type (0, 1), None
#     Edge 10, Type (0, 1), None
#     Edge 11, Type (0, 1), None
#     Edge 12, Type (0, 1), None
#     Edge 13, Type (0, 1), None
#     Edge 14, Type (0, 1), None
#     Edge 15, Type (0, 1), None
#     Edge 16, Type (0, 1), None
#     Edge 17, Type (0, 1), None
#     Edge 18, Type (0, 1), None
#     Edge 19, Type (0, 1), None
#     Edge 20, Type (0, 1), None
#     Edge 21, Type (0, 1), None
#     Edge 22, Type (0, 1), None
#     Edge 23, Type (0, 1), None
#     Edge 24, Type (0, 1), None
#     Edge 25, Type (0, 1), None
#     Edge 26, Type (0, 1), None
#     Edge 27, Type (0, 1), None
#     Edge 28, Type (0, 1), None
#     Edge 29, Type (0, 1), None
#     Edge 30, Type (0, 1), None
#     Edge 31, Type (0, 1), None
#     Edge 32, Type (0, 1), None
# Relax obj value: 0.185
# Max RMSD: 0.242
# Mean RMSD: 0.200
data_MOF--net-csq--node1-TAGTUT_clean_sbu_3--node2-AZAVOO_clean_linker_0--edge1-none
_symmetry_space_group_name_H-M    P1
_symmetry_Int_Tables_number       1
_symmetry_cell_setting            triclinic
loop_
_symmetry_equiv_pos_as_xyz
'x, y, z'
_cell_length_a     32.275976
_cell_length_b     31.577085
_cell_length_c     13.299194
_cell_angle_alpha  92.665258
_cell_angle_beta   94.178546
_cell_angle_gamma 120.37963
loop_
_atom_site_label
_atom_site_type_symbol
_atom_site_fract_x
_atom_site_fract_y
_atom_site_fract_z
_atom_type_partial_charge
H0 H 0.03662 0.33216 0.73864 0.0
H1 H 0.42859 0.38706 0.20244 0.0
H2 H 0.08059 0.45941 0.23225 0.0
H3 H 0.03624 0.4818 0.34137 0.0
H4 H 0.16914 0.60839 0.47818 0.0
H5 H 0.21377 0.58725 0.36424 0.0
H6 H 0.09877 0.402 0.34603 0.0
H7 H 0.05927 0.36287 0.49286 0.0
H8 H 0.1825 0.47513 0.6911 0.0
H9 H 0.22081 0.51549 0.5433 0.0
H10 H 0.19859 0.36995 0.39051 0.0
H11 H 0.25795 0.35165 0.47157 0.0
H12 H 0.35816 0.5081 0.54307 0.0
H13 H 0.29919 0.52561 0.46366 0.0
H14 H 0.21359 0.36961 0.18398 0.0
H15 H 0.26157 0.32984 0.16833 0.0
H16 H 0.39197 0.47032 0.24914 0.0
H17 H 0.34376 0.50926 0.27443 0.0
H18 H 0.2025 0.42014 -0.00395 0.0
H19 H 0.25592 0.40357 0.90489 0.0
H20 H 0.37915 0.54073 0.04205 0.0
H21 H 0.32441 0.55741 0.13246 0.0
H22 H 0.10507 0.42751 0.09714 0.0
H23 H 0.06252 0.4179 0.9297 0.0
H24 H 0.18841 0.54939 0.85364 0.0
H25 H 0.22909 0.56039 0.02274 0.0
O26 O 0.05076 0.35104 0.68252 0.0
O27 O 0.12355 0.39519 0.76985 0.0
O28 O 0.341 0.32886 0.20489 0.0
O29 O 0.40824 0.40135 0.2012 0.0
C30 C 0.17823 0.49677 0.26431 0.0
C31 C 0.19066 0.47621 0.34491 0.0
C32 C 0.2244 0.46142 0.33417 0.0
C33 C 0.24518 0.46526 0.24374 0.0
C34 C 0.23344 0.48553 0.16267 0.0
C35 C 0.19654 0.49733 0.16937 0.0
C36 C 0.15072 0.52167 0.28851 0.0
C37 C 0.10018 0.49399 0.27973 0.0
C38 C 0.07477 0.50666 0.34371 0.0
C39 C 0.09917 0.54662 0.41951 0.0
C40 C 0.14912 0.57799 0.41975 0.0
C41 C 0.17464 0.56574 0.35418 0.0
C42 C 0.16274 0.46152 0.43384 0.0
C43 C 0.11643 0.41927 0.42123 0.0
C44 C 0.09415 0.39661 0.50524 0.0
C45 C 0.11837 0.41516 0.60327 0.0
C46 C 0.16338 0.45944 0.61621 0.0
C47 C 0.18515 0.48275 0.53205 0.0
C48 C 0.2452 0.44901 0.42106 0.0
C49 C 0.2325 0.39985 0.42841 0.0
C50 C 0.26676 0.38962 0.47157 0.0
C51 C 0.3133 0.42865 0.50726 0.0
C52 C 0.32329 0.47744 0.5111 0.0
C53 C 0.2891 0.4875 0.46935 0.0
C54 C 0.27525 0.44227 0.23033 0.0
C55 C 0.25258 0.39169 0.19934 0.0
C56 C 0.27998 0.36912 0.19037 0.0
C57 C 0.33061 0.39715 0.20945 0.0
C58 C 0.35314 0.44801 0.2368 0.0
C59 C 0.32571 0.47024 0.24999 0.0
C60 C 0.25916 0.48985 0.07144 0.0
C61 C 0.24052 0.44806 0.00216 0.0
C62 C 0.27172 0.43807 0.95237 0.0
C63 C 0.32244 0.46976 0.96996 0.0
C64 C 0.34062 0.51474 0.0294 0.0
C65 C 0.30906 0.52503 0.07848 0.0
C66 C 0.16936 0.49607 0.07396 0.0
C67 C 0.12272 0.45519 0.04534 0.0
C68 C 0.09902 0.44874 0.94856 0.0
C69 C 0.12211 0.48262 0.8781 0.0
C70 C 0.16953 0.52252 0.90622 0.0
C71 C 0.19263 0.5295 0.00336 0.0
C72 C 0.09784 0.38683 0.69058 0.0
C73 C 0.36001 0.3735 0.20402 0.0
H74 H 0.87178 0.29414 0.84254 0.0
H75 H 0.64179 0.9476 0.20032 0.0
H76 H 0.83162 0.38039 0.20492 0.0
H77 H 0.87369 0.45891 0.313 0.0
H78 H 0.97535 0.42086 0.44284 0.0
H79 H 0.93736 0.34557 0.32606 0.0
H80 H 0.80656 0.30811 0.42815 0.0
H81 H 0.83127 0.31588 0.61044 0.0
H82 H 0.9173 0.25028 0.54732 0.0
H83 H 0.89182 0.24205 0.36637 0.0
H84 H 0.7207 0.21613 0.30885 0.0
H85 H 0.65167 0.14169 0.35531 0.0
H86 H 0.73436 0.06844 0.35496 0.0
H87 H 0.80348 0.14341 0.30498 0.0
H88 H 0.68205 0.16539 0.10188 0.0
H89 H 0.62265 0.07807 0.10392 0.0
H90 H 0.73602 0.04372 0.09309 0.0
H91 H 0.79502 0.13116 0.08696 0.0
H92 H 0.72038 0.24628 0.97925 0.0
H93 H 0.65523 0.17602 0.87044 0.0
H94 H 0.75383 0.12665 0.80458 0.0
H95 H 0.81861 0.19704 0.91304 0.0
H96 H 0.80842 0.3382 0.95929 0.0
H97 H 0.86381 0.40496 0.86166 0.0
H98 H 0.98485 0.40086 0.01143 0.0
H99 H 0.93005 0.33297 0.10226 0.0
O100 O 0.8649 0.29474 0.77085 0.0
O101 O 0.92203 0.27898 0.7332 0.0
O102 O 0.5992 0.98796 0.12915 0.0
O103 O 0.66185 0.97907 0.17476 0.0
C104 C 0.84923 0.3046 0.21024 0.0
C105 C 0.83071 0.26661 0.27457 0.0
C106 C 0.79593 0.21911 0.23476 0.0
C107 C 0.78028 0.20709 0.13066 0.0
C108 C 0.7985 0.2439 0.06333 0.0
C109 C 0.83469 0.29315 0.10326 0.0
C110 C 0.88062 0.35639 0.25845 0.0
C111 C 0.86374 0.3895 0.2545 0.0
C112 C 0.88692 0.43365 0.31815 0.0
C113 C 0.92602 0.44448 0.38977 0.0
C114 C 0.94408 0.41241 0.39113 0.0
C115 C 0.92266 0.36969 0.32359 0.0
C116 C 0.84775 0.2749 0.38445 0.0
C117 C 0.83101 0.29585 0.45408 0.0
C118 C 0.84504 0.30006 0.55787 0.0
C119 C 0.87618 0.28361 0.59314 0.0
C120 C 0.89343 0.26344 0.52263 0.0
C121 C 0.87893 0.25867 0.41936 0.0
C122 C 0.76616 0.18417 0.30294 0.0
C123 C 0.72425 0.1844 0.32178 0.0
C124 C 0.68448 0.1415 0.34374 0.0
C125 C 0.68727 0.09891 0.35095 0.0
C126 C 0.73125 0.10057 0.34409 0.0
C127 C 0.77091 0.14342 0.31973 0.0
C128 C 0.74298 0.1547 0.09543 0.0
C129 C 0.69369 0.13879 0.0945 0.0
C130 C 0.65982 0.08883 0.09679 0.0
C131 C 0.67511 0.05442 0.10282 0.0
C132 C 0.72347 0.06967 0.09112 0.0
C133 C 0.75715 0.11952 0.08662 0.0
C134 C 0.77489 0.22733 0.95621 0.0
C135 C 0.72894 0.22217 0.93652 0.0
C136 C 0.69093 0.18059 0.8769 0.0
C137 C 0.69814 0.14354 0.83346 0.0
C138 C 0.746 0.15299 0.84011 0.0
C139 C 0.78393 0.19461 0.8995 0.0
C140 C 0.86514 0.33051 0.0373 0.0
C141 C 0.84675 0.35131 0.96959 0.0
C142 C 0.87834 0.38972 0.91539 0.0
C143 C 0.92846 0.40834 0.93109 0.0
C144 C 0.94652 0.38781 -0.00029 0.0
C145 C 0.91513 0.3487 0.05065 0.0
C146 C 0.88944 0.28596 0.70313 0.0
C147 C 0.64281 0.0049 0.13481 0.0
H148 H 0.69129 0.86851 0.49507 0.0
H149 H 0.49812 0.45635 0.09678 0.0
H150 H 0.64281 0.89956 0.02555 0.0
H151 H 0.64422 0.96231 0.92041 0.0
H152 H 0.48878 0.88612 0.89289 0.0
H153 H 0.48726 0.82323 -0.00325 0.0
H154 H 0.66315 0.82899 0.92009 0.0
H155 H 0.69001 0.84983 0.75242 0.0
H156 H 0.54481 0.80824 0.63396 0.0
H157 H 0.5186 0.78877 0.80276 0.0
H158 H 0.6274 0.71158 0.92488 0.0
H159 H 0.6024 0.63492 0.82001 0.0
H160 H 0.46707 0.6244 0.71982 0.0
H161 H 0.49015 0.69812 0.83027 0.0
H162 H 0.6217 0.70051 0.1192 0.0
H163 H 0.61941 0.62157 0.1187 0.0
H164 H 0.46437 0.54453 0.05545 0.0
H165 H 0.4676 0.62258 0.03613 0.0
H166 H 0.58574 0.74354 0.32527 0.0
H167 H 0.56545 0.67542 0.42688 0.0
H168 H 0.42327 0.59224 0.25971 0.0
H169 H 0.44321 0.66351 0.16278 0.0
H170 H 0.62648 0.85644 0.25515 0.0
H171 H 0.63252 0.90922 0.40296 0.0
H172 H 0.47706 0.83753 0.37745 0.0
H173 H 0.47113 0.78395 0.22957 0.0
O174 O 0.68096 0.86446 0.56226 0.0
O175 O 0.60371 0.81361 0.5036 0.0
O176 O 0.57374 0.52644 0.05075 0.0
O177 O 0.49979 0.48786 0.09928 0.0
C178 C 0.56276 0.81065 0.04777 0.0
C179 C 0.57144 0.78562 0.96927 0.0
C180 C 0.56301 0.73832 0.979 0.0
C181 C 0.5473 0.71517 0.06763 0.0
C182 C 0.53621 0.73809 0.14634 0.0
C183 C 0.54636 0.78742 0.13884 0.0
C184 C 0.56492 0.85721 0.02223 0.0
C185 C 0.60901 0.89707 -0.00078 0.0
C186 C 0.60979 0.93163 0.93532 0.0
C187 C 0.56652 0.92729 0.89328 0.0
C188 C 0.52262 0.88887 0.91999 0.0
C189 C 0.5218 0.85423 0.98339 0.0
C190 C 0.58905 0.80762 0.87344 0.0
C191 C 0.63755 0.82582 0.85849 0.0
C192 C 0.65272 0.83745 0.76274 0.0
C193 C 0.61929 0.82987 0.68007 0.0
C194 C 0.57118 0.81383 0.69627 0.0
C195 C 0.55625 0.80315 0.79256 0.0
C196 C 0.55945 0.70833 0.8878 0.0
C197 C 0.59336 0.69384 0.87669 0.0
C198 C 0.57957 0.65093 0.81557 0.0
C199 C 0.53274 0.62433 0.7646 0.0
C200 C 0.50336 0.64493 0.75907 0.0
C201 C 0.51631 0.68661 0.82275 0.0
C202 C 0.54473 0.66728 0.07857 0.0
C203 C 0.58726 0.66638 0.10379 0.0
C204 C 0.58591 0.62143 0.10379 0.0
C205 C 0.54157 0.57682 0.08458 0.0
C206 C 0.4989 0.57811 0.06688 0.0
C207 C 0.50066 0.62278 0.05825 0.0
C208 C 0.51644 0.70911 0.23545 0.0
C209 C 0.54919 0.71215 0.3144 0.0
C210 C 0.53748 0.67204 0.37122 0.0
C211 C 0.49297 0.62681 0.34945 0.0
C212 C 0.45803 0.62573 0.27804 0.0
C213 C 0.46933 0.66701 0.2235 0.0
C214 C 0.5484 0.817 0.23067 0.0
C215 C 0.59363 0.85143 0.28258 0.0
C216 C 0.59704 0.88081 0.36828 0.0
C217 C 0.55522 0.8762 0.40399 0.0
C218 C 0.50977 0.84054 0.35365 0.0
C219 C 0.50635 0.81064 0.26829 0.0
C220 C 0.63398 0.83578 0.57654 0.0
C221 C 0.53966 0.52903 0.07789 0.0
H222 H 0.67812 0.4465 0.72254 0.0
H223 H 0.06436 0.65672 0.01466 0.0
H224 H 0.61813 0.42901 0.13902 0.0
H225 H 0.56197 0.43395 0.24679 0.0
H226 H 0.6507 0.59276 0.28046 0.0
H227 H 0.70477 0.58774 0.16617 0.0
H228 H 0.70038 0.43015 0.29195 0.0
H229 H 0.68359 0.42166 0.46888 0.0
H230 H 0.73852 0.57838 0.51587 0.0
H231 H 0.755 0.5863 0.33921 0.0
H232 H 0.83645 0.50666 0.31568 0.0
H233 H 0.91577 0.56469 0.40554 0.0
H234 H 0.90669 0.68731 0.29927 0.0
H235 H 0.82585 0.62855 0.21184 0.0
H236 H 0.84484 0.4749 0.0749 0.0
H237 H 0.92819 0.50245 0.04173 0.0
H238 H 0.95587 0.65109 0.0285 0.0
H239 H 0.87276 0.62303 0.05844 0.0
H240 H 0.78736 0.45851 0.87889 0.0
H241 H 0.85986 0.4904 0.79077 0.0
H242 H 0.87153 0.63282 0.80259 0.0
H243 H 0.80044 0.60126 0.8936 0.0
H244 H 0.63553 0.42449 0.94216 0.0
H245 H 0.56645 0.42075 0.84096 0.0
H246 H 0.65273 0.57751 0.81827 0.0
H247 H 0.72043 0.58096 0.91943 0.0
O248 O 0.68338 0.45029 0.65201 0.0
O249 O 0.71119 0.5309 0.67135 0.0
O250 O 0.00984 0.56641 0.9827 0.0
O251 O 0.03049 0.64465 0.01761 0.0
C252 C 0.70766 0.50578 0.11508 0.0
C253 C 0.74152 0.5136 0.1965 0.0
C254 C 0.78891 0.53104 0.1784 0.0
C255 C 0.80152 0.52985 0.0802 0.0
C256 C 0.76754 0.51869 -0.00475 0.0
C257 C 0.71999 0.5076 0.01374 0.0
C258 C 0.66503 0.50795 0.14298 0.0
C259 C 0.62399 0.46486 0.16488 0.0
C260 C 0.5928 0.46781 0.22867 0.0
C261 C 0.60312 0.51377 0.27422 0.0
C262 C 0.6427 0.55697 0.24808 0.0
C263 C 0.67267 0.55408 0.18065 0.0
C264 C 0.72904 0.50878 0.30278 0.0
C265 C 0.7085 0.46252 0.34051 0.0
C266 C 0.69903 0.45782 0.44161 0.0
C267 C 0.71 0.4994 0.50673 0.0
C268 C 0.72984 0.54563 0.46799 0.0
C269 C 0.73933 0.55026 0.36704 0.0
C270 C 0.82705 0.56393 0.25665 0.0
C271 C 0.85116 0.54593 0.31433 0.0
C272 C 0.89642 0.57892 0.36292 0.0
C273 C 0.91764 0.62964 0.35215 0.0
C274 C 0.89114 0.6481 0.30428 0.0
C275 C 0.84526 0.6149 0.25657 0.0
C276 C 0.85281 0.54691 0.0676 0.0
C277 C 0.86912 0.51336 0.065 0.0
C278 C 0.91648 0.52908 0.04566 0.0
C279 C 0.94816 0.57877 0.03112 0.0
C280 C 0.93221 0.61256 0.03881 0.0
C281 C 0.88484 0.59668 0.05633 0.0
C282 C 0.78753 0.52709 0.89412 0.0
C283 C 0.80376 0.49588 0.85761 0.0
C284 C 0.84657 0.51477 0.80993 0.0
C285 C 0.87356 0.56513 0.794 0.0
C286 C 0.85304 0.59429 0.81634 0.0
C287 C 0.81077 0.57559 0.86553 0.0
C288 C 0.68379 0.50264 0.93332 0.0
C289 C 0.63967 0.45764 0.91252 0.0
C290 C 0.59998 0.45572 0.85758 0.0
C291 C 0.60436 0.49884 0.82289 0.0
C292 C 0.64858 0.54363 0.84402 0.0
C293 C 0.6878 0.54555 0.89917 0.0
C294 C 0.70149 0.49465 0.61492 0.0
C295 C -0.00214 0.59594 0.00841 0.0
H296 H 0.32231 0.07927 0.72225 0.0
H297 H 0.05587 0.52162 0.12343 0.0
H298 H 0.33535 0.9848 0.29161 0.0
H299 H 0.40037 0.0196 0.42777 0.0
H300 H 0.4053 0.88582 0.415 0.0
H301 H 0.33922 0.85044 0.2757 0.0
H302 H 0.23677 0.95212 0.34187 0.0
H303 H 0.26425 0.01177 0.49129 0.0
H304 H 0.31992 0.93051 0.64673 0.0
H305 H 0.29359 0.872 0.49569 0.0
H306 H 0.14387 0.84306 0.39612 0.0
H307 H 0.10401 0.80548 0.54444 0.0
H308 H 0.19062 0.73746 0.57829 0.0
H309 H 0.22943 0.77405 0.42868 0.0
H310 H 0.09778 0.74657 0.24205 0.0
H311 H 0.04428 0.65697 0.23465 0.0
H312 H 0.16272 0.63633 0.17447 0.0
H313 H 0.21625 0.72576 0.18334 0.0
H314 H 0.13317 0.7993 0.01769 0.0
H315 H 0.08062 0.72884 0.89202 0.0
H316 H 0.19245 0.69241 0.88906 0.0
H317 H 0.24532 0.76365 0.01066 0.0
H318 H 0.26847 0.93873 0.04367 0.0
H319 H 0.3362 0.99544 0.95345 0.0
H320 H 0.39339 0.89816 0.97116 0.0
H321 H 0.32602 0.84205 0.06046 0.0
O322 O 0.31026 0.0545 0.66506 0.0
O323 O 0.32888 0.00607 0.74905 0.0
O324 O 0.02719 0.56713 0.22573 0.0
O325 O 0.07808 0.55673 0.13809 0.0
C326 C 0.27993 0.88674 0.23752 0.0
C327 C 0.24896 0.87398 0.31374 0.0
C328 C 0.20795 0.82702 0.30469 0.0
C329 C 0.19372 0.79665 0.21232 0.0
C330 C 0.21671 0.81669 0.12471 0.0
C331 C 0.26193 0.86186 0.13903 0.0
C332 C 0.33231 0.91516 0.27313 0.0
C333 C 0.35228 0.96396 0.31326 0.0
C334 C 0.38895 0.98347 0.39332 0.0
C335 C 0.40672 0.95488 0.43487 0.0
C336 C 0.39187 0.90851 0.38527 0.0
C337 C 0.35466 0.88868 0.30452 0.0
C338 C 0.26276 0.90753 0.40828 0.0
C339 C 0.25455 0.94707 0.4086 0.0
C340 C 0.27045 0.98117 0.49386 0.0
C341 C 0.29432 0.97592 0.58083 0.0
C342 C 0.30151 0.93552 0.58105 0.0
C343 C 0.28616 0.9018 0.49521 0.0
C344 C 0.18647 0.80782 0.39812 0.0
C345 C 0.15447 0.82043 0.43658 0.0
C346 C 0.13348 0.80087 0.52386 0.0
C347 C 0.14325 0.76732 0.57022 0.0
C348 C 0.18211 0.76274 0.54268 0.0
C349 C 0.20257 0.7816 0.45481 0.0
C350 C 0.16062 0.74263 0.21097 0.0
C351 C 0.11228 0.72273 0.22865 0.0
C352 C 0.08201 0.67166 0.22638 0.0
C353 C 0.09939 0.63975 0.20504 0.0
C354 C 0.14814 0.65993 0.19004 0.0
C355 C 0.17859 0.71094 0.19421 0.0
C356 C 0.19364 0.7873 0.02381 0.0
C357 C 0.14747 0.77786 0.98546 0.0
C358 C 0.11725 0.73741 0.91355 0.0
C359 C 0.13204 0.70461 0.88137 0.0
C360 C 0.1799 0.71694 0.91241 0.0
C361 C 0.21052 0.75809 0.98168 0.0
C362 C 0.29154 0.88545 0.05633 0.0
C363 C 0.29438 0.92852 0.02338 0.0
C364 C 0.33321 0.96111 0.97258 0.0
C365 C 0.37016 0.95141 0.95617 0.0
C366 C 0.36552 0.90675 0.98359 0.0
C367 C 0.32657 0.87407 0.03299 0.0
C368 C 0.31216 0.01289 0.67024 0.0
C369 C 0.06619 0.58567 0.19175 0.0
H370 H 0.32309 0.20232 0.56013 0.0
H371 H 0.47612 0.93681 0.16825 0.0
H372 H 0.46812 0.29821 0.17578 0.0
H373 H 0.47581 0.35619 0.05258 0.0
H374 H 0.32121 0.27336 0.97249 0.0
H375 H 0.31362 0.2166 0.09903 0.0
H376 H 0.43413 0.23435 0.95222 0.0
H377 H 0.40025 0.23239 0.7804 0.0
H378 H 0.2616 0.1123 0.84108 0.0
H379 H 0.29599 0.11467 0.01299 0.0
H380 H 0.50783 0.21894 0.13248 0.0
H381 H 0.56675 0.2092 0.04354 0.0
H382 H 0.44998 0.10071 0.82768 0.0
H383 H 0.39109 0.10077 0.93141 0.0
H384 H 0.5204 0.16628 0.24743 0.0
H385 H 0.55018 0.10962 0.23506 0.0
H386 H 0.40451 0.98903 0.15452 0.0
H387 H 0.37429 0.04584 0.1722 0.0
H388 H 0.51912 0.2264 0.37011 0.0
H389 H 0.56158 0.19054 0.45747 0.0
H390 H 0.42778 0.07903 0.55265 0.0
H391 H 0.38376 0.10933 0.44871 0.0
H392 H 0.47983 0.27219 0.42032 0.0
H393 H 0.48247 0.34179 0.51303 0.0
H394 H 0.33312 0.28609 0.40431 0.0
H395 H 0.32882 0.21316 0.31955 0.0
O396 O 0.33577 0.20267 0.62856 0.0
O397 O 0.26522 0.1411 0.66371 0.0
O398 O 0.54019 0.0248 0.19049 0.0
O399 O 0.46533 0.96026 0.17493 0.0
C400 C 0.38958 0.20788 0.18021 0.0
C401 C 0.38736 0.17586 0.1007 0.0
C402 C 0.41314 0.15229 0.11682 0.0
C403 C 0.42553 0.14442 0.2144 0.0
C404 C 0.4237 0.17188 0.29954 0.0
C405 C 0.40589 0.20479 0.28156 0.0
C406 C 0.39027 0.25287 0.14724 0.0
C407 C 0.43558 0.29393 0.13561 0.0
C408 C 0.4401 0.32614 0.06246 0.0
C409 C 0.39938 0.31801 -0.0009 0.0
C410 C 0.35354 0.27962 0.01728 0.0
C411 C 0.34894 0.24808 0.09218 0.0
C412 C 0.3674 0.17477 -0.00474 0.0
C413 C 0.39645 0.20766 0.92829 0.0
C414 C 0.377 0.20646 0.83015 0.0
C415 C 0.32817 0.17228 0.79708 0.0
C416 C 0.29929 0.13921 0.86429 0.0
C417 C 0.31883 0.1404 0.9624 0.0
C418 C 0.44582 0.15733 0.04245 0.0
C419 C 0.49525 0.1924 0.06636 0.0
C420 C 0.52872 0.18766 0.01535 0.0
C421 C 0.51207 0.15154 0.93428 0.0
C422 C 0.46293 0.12548 0.89583 0.0
C423 C 0.42931 0.1261 0.95332 0.0
C424 C 0.44438 0.10987 0.22055 0.0
C425 C 0.4943 0.12732 0.23374 0.0
C426 C 0.51155 0.09492 0.22347 0.0
C427 C 0.4793 0.04437 0.19722 0.0
C428 C 0.42987 0.02743 0.17852 0.0
C429 C 0.41255 0.05974 0.18999 0.0
C430 C 0.44776 0.16983 0.39899 0.0
C431 C 0.49871 0.1953 0.41287 0.0
C432 C 0.52322 0.17445 0.46231 0.0
C433 C 0.49751 0.12993 0.50604 0.0
C434 C 0.44802 0.11126 0.51294 0.0
C435 C 0.4229 0.12965 0.45624 0.0
C436 C 0.40416 0.23715 0.36309 0.0
C437 C 0.44665 0.27263 0.42208 0.0
C438 C 0.44825 0.31287 0.47401 0.0
C439 C 0.40799 0.31894 0.46455 0.0
C440 C 0.3644 0.28178 0.4125 0.0
C441 C 0.36214 0.24031 0.36444 0.0
C442 C 0.30765 0.17095 0.6926 0.0
C443 C 0.49694 0.00939 0.18746 0.0
C444 C 0.0754 0.54321 0.51283 0.0
C445 C 0.09536 0.48317 0.7835 0.0
C446 C 0.96183 0.44478 0.86843 0.0
Mg447 Mg 0.03261 0.61077 0.45421 0.0
Mg448 Mg 0.99579 0.66493 0.61922 0.0
O449 O 0.99053 0.60608 0.5595 0.0
Mg450 Mg 0.00775 0.56977 0.65091 0.0
O451 O 0.02114 0.53017 0.73687 0.0
Mg452 Mg 0.00026 0.46673 0.65221 0.0
Mg453 Mg 0.06412 0.54087 0.84501 0.0
C454 C 0.92166 0.58693 0.75131 0.0
O455 O 0.06595 0.64344 0.75844 0.0
O456 O 0.99402 0.6448 0.37204 0.0
O457 O 0.09855 0.61903 0.88153 0.0
O458 O 0.08873 0.68621 0.5219 0.0
O459 O 0.9694 0.68045 0.48491 0.0
O460 O 0.07093 0.72172 0.64718 0.0
O461 O 0.95835 0.49617 0.54825 0.0
O462 O 0.97355 0.53074 0.40066 0.0
C463 C 0.95254 0.49277 0.45033 0.0
C464 C 0.96671 0.6613 0.39638 0.0
O465 O 0.9412 0.56045 0.73642 0.0
O466 O 0.05127 0.44947 0.75785 0.0
O467 O 0.94061 0.63082 0.72362 0.0
O468 O 0.94924 0.43748 0.77241 0.0
O469 O 0.10809 0.5256 0.75908 0.0
O470 O 0.00452 0.47805 0.90961 0.0
O471 O 0.06729 0.57664 0.54869 0.0
O472 O 0.05638 0.50113 0.54664 0.0
C473 C 0.10071 0.72164 0.58917 0.0
C474 C 0.09649 0.65306 0.83704 0.0
C475 C 0.51914 0.09823 0.52268 0.0
C476 C 0.64834 0.05781 0.39113 0.0
C477 C 0.55998 0.91756 0.47002 0.0
Mg478 Mg 0.4692 0.05438 0.72157 0.0
Mg479 Mg 0.52414 0.03345 0.9117 0.0
O480 O 0.49699 0.01504 0.77233 0.0
Mg481 Mg 0.54181 0.02826 0.67174 0.0
O482 O 0.58351 0.03952 0.5654 0.0
Mg483 Mg 0.53518 0.00922 0.44196 0.0
Mg484 Mg 0.62543 0.01532 0.59426 0.0
C485 C 0.56653 0.96967 0.85082 0.0
O486 O 0.6135 0.08928 0.7706 0.0
O487 O 0.41509 0.01275 0.84463 0.0
O488 O 0.66677 0.06701 0.72947 0.0
O489 O 0.5349 0.11677 0.81316 0.0
O490 O 0.45444 0.9907 0.95766 0.0
O491 O 0.55113 0.10925 0.9683 0.0
O492 O 0.47617 0.97549 0.55163 0.0
O493 O 0.42055 0.99214 0.60043 0.0
C494 C 0.43457 0.97169 0.53647 0.0
C495 C 0.41576 0.98834 0.9193 0.0
O496 O 0.55468 0.96909 0.75496 0.0
O497 O 0.60498 0.04857 0.36721 0.0
O498 O 0.56745 0.00038 0.91828 0.0
O499 O 0.54068 0.94035 0.43094 0.0
O500 O 0.66174 0.04434 0.46969 0.0
O501 O 0.59186 0.93695 0.54726 0.0
O502 O 0.5233 0.08468 0.6097 0.0
O503 O 0.52681 0.07857 0.44563 0.0
C504 C 0.54232 0.13293 0.90423 0.0
C505 C 0.65692 0.09673 0.77729 0.0
C506 C 0.50805 0.57153 0.76079 0.0
C507 C 0.35431 0.45517 0.92176 0.0
C508 C 0.4042 0.352 0.92087 0.0
Mg509 Mg 0.5502 0.55411 0.56492 0.0
Mg510 Mg 0.46539 0.47357 0.39957 0.0
O511 O 0.50185 0.48298 0.52554 0.0
Mg512 Mg 0.46146 0.46441 0.64314 0.0
O513 O 0.42224 0.44969 0.75808 0.0
Mg514 Mg 0.46763 0.47426 0.88105 0.0
Mg515 Mg 0.36346 0.39018 0.75806 0.0
C516 C 0.41579 0.36786 0.49243 0.0
O517 O 0.39472 0.45503 0.5543 0.0
O518 O 0.58881 0.54423 0.42904 0.0
O519 O 0.33693 0.38222 0.60125 0.0
O520 O 0.5216 0.58929 0.4613 0.0
O521 O 0.52555 0.48665 0.32058 0.0
O522 O 0.45455 0.53735 0.36512 0.0
O523 O 0.52123 0.4702 0.76161 0.0
O524 O 0.58178 0.52545 0.68074 0.0
C525 C 0.56659 0.49794 0.75309 0.0
C526 C 0.57099 0.51575 0.34504 0.0
O527 O 0.43299 0.38621 0.58431 0.0
O528 O 0.40036 0.47623 0.95026 0.0
O529 O 0.41689 0.39385 0.41906 0.0
O530 O 0.43966 0.39639 0.93497 0.0
O531 O 0.33344 0.42105 0.84904 0.0
O532 O 0.37032 0.33859 0.84902 0.0
O533 O 0.49662 0.5459 0.67738 0.0
O534 O 0.49698 0.55214 0.84336 0.0
C535 C 0.48762 0.58181 0.39589 0.0
C536 C 0.35055 0.41955 0.54978 0.0
loop_
_geom_bond_atom_site_label_1
_geom_bond_atom_site_label_2
_geom_bond_distance
_geom_bond_site_symmetry_2
_ccdc_geom_bond_type
H0 O26 0.856 . S
H1 O29 0.854 . S
H2 C37 0.930 . S
H3 C38 0.930 . S
H4 C40 0.930 . S
H5 C41 0.930 . S
H6 C43 0.931 . S
H7 C44 0.930 . S
H8 C46 0.930 . S
H9 C47 0.929 . S
H10 C49 0.930 . S
H11 C50 0.931 . S
H12 C52 0.930 . S
H13 C53 0.929 . S
H14 C55 0.931 . S
H15 C56 0.930 . S
H16 C58 0.930 . S
H17 C59 0.932 . S
H18 C61 0.930 . S
H19 C62 0.929 . S
H20 C64 0.931 . S
H21 C65 0.930 . S
H22 C67 0.929 . S
H23 C68 0.931 . S
H24 C70 0.930 . S
H25 C71 0.929 . S
O26 H0 0.856 . S
O26 C72 1.300 . S
O27 C72 1.209 . S
O28 C73 1.199 . S
O29 H1 0.854 . S
O29 C73 1.297 . S
C30 C31 1.404 . S
C30 C35 1.397 . S
C30 C36 1.492 . S
C31 C30 1.404 . S
C31 C32 1.396 . S
C31 C42 1.492 . S
C32 C31 1.396 . S
C32 C33 1.397 . S
C32 C48 1.509 . S
C33 C32 1.397 . S
C33 C34 1.412 . S
C33 C54 1.485 . S
C34 C33 1.412 . S
C34 C35 1.388 . S
C34 C60 1.490 . S
C35 C30 1.397 . S
C35 C34 1.388 . S
C35 C66 1.519 . S
C36 C30 1.492 . S
C36 C37 1.363 . S
C36 C41 1.390 . S
C37 H2 0.930 . S
C37 C36 1.363 . S
C37 C38 1.372 . S
C38 H3 0.930 . S
C38 C37 1.372 . S
C38 C39 1.383 . S
C39 C38 1.383 . S
C39 C40 1.395 . S
C40 H4 0.930 . S
C40 C39 1.395 . S
C40 C41 1.362 . S
C41 H5 0.930 . S
C41 C36 1.390 . S
C41 C40 1.362 . S
C42 C31 1.492 . S
C42 C43 1.377 . S
C42 C47 1.397 . S
C43 H6 0.931 . S
C43 C42 1.377 . S
C43 C44 1.376 . S
C44 H7 0.930 . S
C44 C43 1.376 . S
C44 C45 1.376 . S
C45 C44 1.376 . S
C45 C46 1.378 . S
C45 C72 1.486 . S
C46 H8 0.930 . S
C46 C45 1.378 . S
C46 C47 1.376 . S
C47 H9 0.929 . S
C47 C42 1.397 . S
C47 C46 1.376 . S
C48 C32 1.509 . S
C48 C49 1.391 . S
C48 C53 1.386 . S
C49 H10 0.930 . S
C49 C48 1.391 . S
C49 C50 1.375 . S
C50 H11 0.931 . S
C50 C49 1.375 . S
C50 C51 1.375 . S
C51 C50 1.375 . S
C51 C52 1.361 . S
C52 H12 0.930 . S
C52 C51 1.361 . S
C52 C53 1.399 . S
C53 H13 0.929 . S
C53 C48 1.386 . S
C53 C52 1.399 . S
C54 C33 1.485 . S
C54 C55 1.394 . S
C54 C59 1.360 . S
C55 H14 0.931 . S
C55 C54 1.394 . S
C55 C56 1.372 . S
C56 H15 0.930 . S
C56 C55 1.372 . S
C56 C57 1.397 . S
C57 C56 1.397 . S
C57 C58 1.390 . S
C57 C73 1.476 . S
C58 H16 0.930 . S
C58 C57 1.390 . S
C58 C59 1.366 . S
C59 H17 0.932 . S
C59 C54 1.360 . S
C59 C58 1.366 . S
C60 C34 1.490 . S
C60 C61 1.380 . S
C60 C65 1.386 . S
C61 H18 0.930 . S
C61 C60 1.380 . S
C61 C62 1.381 1_554 S
C62 H19 0.929 . S
C62 C61 1.381 1_556 S
C62 C63 1.371 . S
C63 C62 1.371 . S
C63 C64 1.380 . S
C64 H20 0.931 . S
C64 C63 1.380 . S
C64 C65 1.387 1_556 S
C65 H21 0.930 . S
C65 C60 1.386 . S
C65 C64 1.387 1_554 S
C66 C35 1.519 . S
C66 C67 1.377 . S
C66 C71 1.361 . S
C67 H22 0.929 . S
C67 C66 1.377 . S
C67 C68 1.386 . S
C68 H23 0.931 . S
C68 C67 1.386 . S
C68 C69 1.363 . S
C69 C68 1.363 . S
C69 C70 1.385 . S
C70 H24 0.930 . S
C70 C69 1.385 . S
C70 C71 1.396 . S
C71 H25 0.929 . S
C71 C66 1.361 . S
C71 C70 1.396 . S
C72 O26 1.300 . S
C72 O27 1.209 . S
C72 C45 1.486 . S
C73 O28 1.199 . S
C73 O29 1.297 . S
C73 C57 1.476 . S
H74 O100 0.856 . S
H75 O103 0.854 . S
H76 C111 0.930 . S
H77 C112 0.930 . S
H78 C114 0.930 . S
H79 C115 0.930 . S
H80 C117 0.931 . S
H81 C118 0.930 . S
H82 C120 0.930 . S
H83 C121 0.929 . S
H84 C123 0.930 . S
H85 C124 0.931 . S
H86 C126 0.930 . S
H87 C127 0.929 . S
H88 C129 0.931 . S
H89 C130 0.925 1_556 S
H90 C132 0.930 1_565 S
H91 C133 0.932 . S
H92 C135 0.930 . S
H93 C136 0.929 . S
H94 C138 0.931 . S
H95 C139 0.930 . S
H96 C141 0.929 . S
H97 C142 0.931 . S
H98 C144 0.930 . S
H99 C145 0.929 . S
O100 H74 0.856 . S
O100 C146 1.300 . S
O101 C146 1.209 . S
O102 C147 1.199 1_556 S
O103 H75 0.854 . S
O103 C147 1.297 . S
C104 C105 1.404 . S
C104 C109 1.397 . S
C104 C110 1.492 . S
C105 C104 1.404 . S
C105 C106 1.396 . S
C105 C116 1.492 . S
C106 C105 1.396 . S
C106 C107 1.397 . S
C106 C122 1.509 . S
C107 C106 1.397 . S
C107 C108 1.412 . S
C107 C128 1.485 . S
C108 C107 1.412 . S
C108 C109 1.388 . S
C108 C134 1.490 1_554 S
C109 C104 1.397 . S
C109 C108 1.388 . S
C109 C140 1.519 . S
C110 C104 1.492 . S
C110 C111 1.363 . S
C110 C115 1.390 . S
C111 H76 0.930 . S
C111 C110 1.363 . S
C111 C112 1.372 . S
C112 H77 0.930 . S
C112 C111 1.372 . S
C112 C113 1.383 . S
C113 C112 1.383 . S
C113 C114 1.395 . S
C114 H78 0.930 . S
C114 C113 1.395 . S
C114 C115 1.362 . S
C115 H79 0.930 . S
C115 C110 1.390 . S
C115 C114 1.362 . S
C116 C105 1.492 . S
C116 C117 1.377 . S
C116 C121 1.397 . S
C117 H80 0.931 . S
C117 C116 1.377 . S
C117 C118 1.376 . S
C118 H81 0.930 . S
C118 C117 1.376 . S
C118 C119 1.376 . S
C119 C118 1.376 . S
C119 C120 1.378 . S
C119 C146 1.486 . S
C120 H82 0.930 . S
C120 C119 1.378 . S
C120 C121 1.376 . S
C121 H83 0.929 . S
C121 C116 1.397 . S
C121 C120 1.376 . S
C122 C106 1.509 . S
C122 C123 1.391 . S
C122 C127 1.386 . S
C123 H84 0.930 . S
C123 C122 1.391 . S
C123 C124 1.375 . S
C124 H85 0.931 . S
C124 C123 1.375 . S
C124 C125 1.375 . S
C125 C124 1.375 . S
C125 C126 1.361 . S
C126 H86 0.930 . S
C126 C125 1.361 . S
C126 C127 1.399 . S
C127 H87 0.929 . S
C127 C122 1.386 . S
C127 C126 1.399 . S
C128 C107 1.485 . S
C128 C129 1.394 . S
C128 C133 1.360 . S
C129 H88 0.931 . S
C129 C128 1.394 . S
C129 C130 1.372 . S
C130 H89 0.925 1_554 S
C130 C129 1.372 . S
C130 C131 1.397 . S
C131 C130 1.397 . S
C131 C132 1.390 . S
C131 C147 1.476 1_545 S
C132 H90 0.930 1_545 S
C132 C131 1.390 . S
C132 C133 1.366 . S
C133 H91 0.932 . S
C133 C128 1.360 . S
C133 C132 1.366 . S
C134 C108 1.490 1_556 S
C134 C135 1.380 . S
C134 C139 1.386 . S
C135 H92 0.930 . S
C135 C134 1.380 . S
C135 C136 1.381 . S
C136 H93 0.929 . S
C136 C135 1.381 . S
C136 C137 1.371 . S
C137 C136 1.371 . S
C137 C138 1.380 . S
C138 H94 0.931 . S
C138 C137 1.380 . S
C138 C139 1.387 . S
C139 H95 0.930 . S
C139 C134 1.386 . S
C139 C138 1.387 . S
C140 C109 1.519 . S
C140 C141 1.377 . S
C140 C145 1.361 1_554 S
C141 H96 0.929 . S
C141 C140 1.377 . S
C141 C142 1.386 1_554 S
C142 H97 0.931 . S
C142 C141 1.386 1_556 S
C142 C143 1.363 . S
C143 C142 1.363 . S
C143 C144 1.385 . S
C144 H98 0.930 . S
C144 C143 1.385 . S
C144 C145 1.396 . S
C145 H99 0.929 . S
C145 C140 1.361 1_556 S
C145 C144 1.396 . S
C146 O100 1.300 . S
C146 O101 1.209 . S
C146 C119 1.486 . S
C147 O102 1.199 1_554 S
C147 O103 1.297 . S
C147 C131 1.476 1_565 S
H148 O174 0.856 . S
H149 O177 0.854 . S
H150 C185 0.930 . S
H151 C186 0.930 . S
H152 C188 0.930 . S
H153 C189 0.930 . S
H154 C191 0.931 . S
H155 C192 0.930 . S
H156 C194 0.930 . S
H157 C195 0.929 . S
H158 C197 0.930 . S
H159 C198 0.931 . S
H160 C200 0.930 . S
H161 C201 0.929 . S
H162 C203 0.931 . S
H163 C204 0.930 . S
H164 C206 0.930 . S
H165 C207 0.932 . S
H166 C209 0.930 . S
H167 C210 0.929 . S
H168 C212 0.931 . S
H169 C213 0.930 . S
H170 C215 0.929 . S
H171 C216 0.931 . S
H172 C218 0.930 . S
H173 C219 0.929 . S
O174 H148 0.856 . S
O174 C220 1.300 . S
O175 C220 1.209 . S
O176 C221 1.199 . S
O177 H149 0.854 . S
O177 C221 1.297 . S
C178 C179 1.404 . S
C178 C183 1.397 1_556 S
C178 C184 1.492 . S
C179 C178 1.404 . S
C179 C180 1.396 . S
C179 C190 1.492 . S
C180 C179 1.396 . S
C180 C181 1.397 1_556 S
C180 C196 1.509 . S
C181 C180 1.397 1_554 S
C181 C182 1.412 . S
C181 C202 1.485 . S
C182 C181 1.412 . S
C182 C183 1.388 . S
C182 C208 1.490 . S
C183 C178 1.397 1_554 S
C183 C182 1.388 . S
C183 C214 1.519 . S
C184 C178 1.492 . S
C184 C185 1.363 . S
C184 C189 1.390 . S
C185 H150 0.930 . S
C185 C184 1.363 . S
C185 C186 1.372 . S
C186 H151 0.930 . S
C186 C185 1.372 . S
C186 C187 1.383 . S
C187 C186 1.383 . S
C187 C188 1.395 . S
C188 H152 0.930 . S
C188 C187 1.395 . S
C188 C189 1.362 . S
C189 H153 0.930 . S
C189 C184 1.390 . S
C189 C188 1.362 . S
C190 C179 1.492 . S
C190 C191 1.377 . S
C190 C195 1.397 . S
C191 H154 0.931 . S
C191 C190 1.377 . S
C191 C192 1.376 . S
C192 H155 0.930 . S
C192 C191 1.376 . S
C192 C193 1.376 . S
C193 C192 1.376 . S
C193 C194 1.378 . S
C193 C220 1.486 . S
C194 H156 0.930 . S
C194 C193 1.378 . S
C194 C195 1.376 . S
C195 H157 0.929 . S
C195 C190 1.397 . S
C195 C194 1.376 . S
C196 C180 1.509 . S
C196 C197 1.391 . S
C196 C201 1.386 . S
C197 H158 0.930 . S
C197 C196 1.391 . S
C197 C198 1.375 . S
C198 H159 0.931 . S
C198 C197 1.375 . S
C198 C199 1.375 . S
C199 C198 1.375 . S
C199 C200 1.361 . S
C200 H160 0.930 . S
C200 C199 1.361 . S
C200 C201 1.399 . S
C201 H161 0.929 . S
C201 C196 1.386 . S
C201 C200 1.399 . S
C202 C181 1.485 . S
C202 C203 1.394 . S
C202 C207 1.360 . S
C203 H162 0.931 . S
C203 C202 1.394 . S
C203 C204 1.372 . S
C204 H163 0.930 . S
C204 C203 1.372 . S
C204 C205 1.397 . S
C205 C204 1.397 . S
C205 C206 1.390 . S
C205 C221 1.476 . S
C206 H164 0.930 . S
C206 C205 1.390 . S
C206 C207 1.366 . S
C207 H165 0.932 . S
C207 C202 1.360 . S
C207 C206 1.366 . S
C208 C182 1.490 . S
C208 C209 1.380 . S
C208 C213 1.386 . S
C209 H166 0.930 . S
C209 C208 1.380 . S
C209 C210 1.381 . S
C210 H167 0.929 . S
C210 C209 1.381 . S
C210 C211 1.371 . S
C211 C210 1.371 . S
C211 C212 1.380 . S
C212 H168 0.931 . S
C212 C211 1.380 . S
C212 C213 1.387 . S
C213 H169 0.930 . S
C213 C208 1.386 . S
C213 C212 1.387 . S
C214 C183 1.519 . S
C214 C215 1.377 . S
C214 C219 1.361 . S
C215 H170 0.929 . S
C215 C214 1.377 . S
C215 C216 1.386 . S
C216 H171 0.931 . S
C216 C215 1.386 . S
C216 C217 1.363 . S
C217 C216 1.363 . S
C217 C218 1.385 . S
C218 H172 0.930 . S
C218 C217 1.385 . S
C218 C219 1.396 . S
C219 H173 0.929 . S
C219 C214 1.361 . S
C219 C218 1.396 . S
C220 O174 1.300 . S
C220 O175 1.209 . S
C220 C193 1.486 . S
C221 O176 1.199 . S
C221 O177 1.297 . S
C221 C205 1.476 . S
H222 O248 0.856 . S
H223 O251 0.854 . S
H224 C259 0.930 . S
H225 C260 0.930 . S
H226 C262 0.930 . S
H227 C263 0.930 . S
H228 C265 0.931 . S
H229 C266 0.930 . S
H230 C268 0.930 . S
H231 C269 0.929 . S
H232 C271 0.930 . S
H233 C272 0.931 . S
H234 C274 0.930 . S
H235 C275 0.929 . S
H236 C277 0.931 1_556 S
H237 C278 0.930 . S
H238 C280 0.930 1_455 S
H239 C281 0.932 . S
H240 C283 0.930 . S
H241 C284 0.929 . S
H242 C286 0.931 . S
H243 C287 0.930 . S
H244 C289 0.929 . S
H245 C290 0.931 . S
H246 C292 0.930 . S
H247 C293 0.929 . S
O248 H222 0.856 . S
O248 C294 1.300 . S
O249 C294 1.209 . S
O250 C295 1.199 . S
O251 H223 0.854 . S
O251 C295 1.297 1_554 S
C252 C253 1.404 . S
C252 C257 1.397 . S
C252 C258 1.492 . S
C253 C252 1.404 . S
C253 C254 1.396 . S
C253 C264 1.492 . S
C254 C253 1.396 . S
C254 C255 1.397 . S
C254 C270 1.509 . S
C255 C254 1.397 . S
C255 C256 1.412 . S
C255 C276 1.485 . S
C256 C255 1.412 . S
C256 C257 1.388 . S
C256 C282 1.490 1_554 S
C257 C252 1.397 . S
C257 C256 1.388 . S
C257 C288 1.519 1_554 S
C258 C252 1.492 . S
C258 C259 1.363 . S
C258 C263 1.390 . S
C259 H224 0.930 . S
C259 C258 1.363 . S
C259 C260 1.372 . S
C260 H225 0.930 . S
C260 C259 1.372 . S
C260 C261 1.383 . S
C261 C260 1.383 . S
C261 C262 1.395 . S
C262 H226 0.930 . S
C262 C261 1.395 . S
C262 C263 1.362 . S
C263 H227 0.930 . S
C263 C258 1.390 . S
C263 C262 1.362 . S
C264 C253 1.492 . S
C264 C265 1.377 . S
C264 C269 1.397 . S
C265 H228 0.931 . S
C265 C264 1.377 . S
C265 C266 1.376 . S
C266 H229 0.930 . S
C266 C265 1.376 . S
C266 C267 1.376 . S
C267 C266 1.376 . S
C267 C268 1.378 . S
C267 C294 1.486 . S
C268 H230 0.930 . S
C268 C267 1.378 . S
C268 C269 1.376 . S
C269 H231 0.929 . S
C269 C264 1.397 . S
C269 C268 1.376 . S
C270 C254 1.509 . S
C270 C271 1.391 . S
C270 C275 1.386 . S
C271 H232 0.930 . S
C271 C270 1.391 . S
C271 C272 1.375 . S
C272 H233 0.931 . S
C272 C271 1.375 . S
C272 C273 1.375 . S
C273 C272 1.375 . S
C273 C274 1.361 . S
C274 H234 0.930 . S
C274 C273 1.361 . S
C274 C275 1.399 . S
C275 H235 0.929 . S
C275 C270 1.386 . S
C275 C274 1.399 . S
C276 C255 1.485 . S
C276 C277 1.394 . S
C276 C281 1.360 . S
C277 H236 0.931 1_554 S
C277 C276 1.394 . S
C277 C278 1.372 1_554 S
C278 H237 0.930 . S
C278 C277 1.372 1_556 S
C278 C279 1.397 1_556 S
C279 C278 1.397 1_554 S
C279 C280 1.390 . S
C279 C295 1.476 1_654 S
C280 H238 0.930 1_655 S
C280 C279 1.390 . S
C280 C281 1.366 . S
C281 H239 0.932 . S
C281 C276 1.360 . S
C281 C280 1.366 . S
C282 C256 1.490 1_556 S
C282 C283 1.380 . S
C282 C287 1.386 . S
C283 H240 0.930 . S
C283 C282 1.380 . S
C283 C284 1.381 . S
C284 H241 0.929 . S
C284 C283 1.381 . S
C284 C285 1.371 . S
C285 C284 1.371 . S
C285 C286 1.380 . S
C286 H242 0.931 . S
C286 C285 1.380 . S
C286 C287 1.387 . S
C287 H243 0.930 . S
C287 C282 1.386 . S
C287 C286 1.387 . S
C288 C257 1.519 1_556 S
C288 C289 1.377 . S
C288 C293 1.361 . S
C289 H244 0.929 . S
C289 C288 1.377 . S
C289 C290 1.386 . S
C290 H245 0.931 . S
C290 C289 1.386 . S
C290 C291 1.363 . S
C291 C290 1.363 . S
C291 C292 1.385 . S
C292 H246 0.930 . S
C292 C291 1.385 . S
C292 C293 1.396 . S
C293 H247 0.929 . S
C293 C288 1.361 . S
C293 C292 1.396 . S
C294 O248 1.300 . S
C294 O249 1.209 . S
C294 C267 1.486 . S
C295 O250 1.199 . S
C295 O251 1.297 1_556 S
C295 C279 1.476 1_456 S
H296 O322 0.856 . S
H297 O325 0.854 . S
H298 C333 0.930 . S
H299 C334 0.930 . S
H300 C336 0.930 . S
H301 C337 0.930 . S
H302 C339 0.931 . S
H303 C340 0.930 . S
H304 C342 0.930 . S
H305 C343 0.929 . S
H306 C345 0.930 . S
H307 C346 0.931 . S
H308 C348 0.930 . S
H309 C349 0.929 . S
H310 C351 0.931 . S
H311 C352 0.915 1_655 S
H312 C354 0.930 . S
H313 C355 0.932 . S
H314 C357 0.930 . S
H315 C358 0.929 . S
H316 C360 0.931 . S
H317 C361 0.930 . S
H318 C363 0.929 . S
H319 C364 0.931 . S
H320 C366 0.930 . S
H321 C367 0.929 . S
O322 H296 0.856 . S
O322 C368 1.300 . S
O323 C368 1.209 . S
O324 C369 1.195 1_556 S
O325 H297 0.854 . S
O325 C369 1.297 . S
C326 C327 1.404 . S
C326 C331 1.397 . S
C326 C332 1.492 . S
C327 C326 1.404 . S
C327 C328 1.396 . S
C327 C338 1.492 . S
C328 C327 1.396 . S
C328 C329 1.397 . S
C328 C344 1.509 . S
C329 C328 1.397 . S
C329 C330 1.412 . S
C329 C350 1.485 . S
C330 C329 1.412 . S
C330 C331 1.388 . S
C330 C356 1.490 . S
C331 C326 1.397 . S
C331 C330 1.388 . S
C331 C362 1.519 . S
C332 C326 1.492 . S
C332 C333 1.363 . S
C332 C337 1.390 . S
C333 H298 0.930 . S
C333 C332 1.363 . S
C333 C334 1.372 . S
C334 H299 0.930 . S
C334 C333 1.372 . S
C334 C335 1.383 . S
C335 C334 1.383 . S
C335 C336 1.395 . S
C336 H300 0.930 . S
C336 C335 1.395 . S
C336 C337 1.362 . S
C337 H301 0.930 . S
C337 C332 1.390 . S
C337 C336 1.362 . S
C338 C327 1.492 . S
C338 C339 1.377 . S
C338 C343 1.397 . S
C339 H302 0.931 . S
C339 C338 1.377 . S
C339 C340 1.376 . S
C340 H303 0.930 . S
C340 C339 1.376 . S
C340 C341 1.376 . S
C341 C340 1.376 . S
C341 C342 1.378 . S
C341 C368 1.486 . S
C342 H304 0.930 . S
C342 C341 1.378 . S
C342 C343 1.376 . S
C343 H305 0.929 . S
C343 C338 1.397 . S
C343 C342 1.376 . S
C344 C328 1.509 . S
C344 C345 1.391 . S
C344 C349 1.386 . S
C345 H306 0.930 . S
C345 C344 1.391 . S
C345 C346 1.375 . S
C346 H307 0.931 . S
C346 C345 1.375 . S
C346 C347 1.375 . S
C347 C346 1.375 . S
C347 C348 1.361 . S
C348 H308 0.930 . S
C348 C347 1.361 . S
C348 C349 1.399 . S
C349 H309 0.929 . S
C349 C344 1.386 . S
C349 C348 1.399 . S
C350 C329 1.485 . S
C350 C351 1.394 . S
C350 C355 1.360 . S
C351 H310 0.931 . S
C351 C350 1.394 . S
C351 C352 1.372 . S
C352 H311 0.915 1_455 S
C352 C351 1.372 . S
C352 C353 1.397 . S
C353 C352 1.397 . S
C353 C354 1.390 . S
C353 C369 1.476 1_455 S
C354 H312 0.930 . S
C354 C353 1.390 . S
C354 C355 1.366 . S
C355 H313 0.932 . S
C355 C350 1.360 . S
C355 C354 1.366 . S
C356 C330 1.490 . S
C356 C357 1.380 1_554 S
C356 C361 1.386 1_554 S
C357 H314 0.930 . S
C357 C356 1.380 1_556 S
C357 C358 1.381 . S
C358 H315 0.929 . S
C358 C357 1.381 . S
C358 C359 1.371 . S
C359 C358 1.371 . S
C359 C360 1.380 . S
C360 H316 0.931 . S
C360 C359 1.380 . S
C360 C361 1.387 . S
C361 H317 0.930 . S
C361 C356 1.386 1_556 S
C361 C360 1.387 . S
C362 C331 1.519 . S
C362 C363 1.377 . S
C362 C367 1.361 . S
C363 H318 0.929 . S
C363 C362 1.377 . S
C363 C364 1.386 1_554 S
C364 H319 0.931 . S
C364 C363 1.386 1_556 S
C364 C365 1.363 . S
C365 C364 1.363 . S
C365 C366 1.385 . S
C366 H320 0.930 . S
C366 C365 1.385 . S
C366 C367 1.396 1_556 S
C367 H321 0.929 . S
C367 C362 1.361 . S
C367 C366 1.396 1_554 S
C368 O322 1.300 . S
C368 O323 1.209 . S
C368 C341 1.486 . S
C369 O324 1.195 1_554 S
C369 O325 1.297 . S
C369 C353 1.476 1_655 S
H370 O396 0.856 . S
H371 O399 0.854 . S
H372 C407 0.930 . S
H373 C408 0.930 . S
H374 C410 0.930 . S
H375 C411 0.930 . S
H376 C413 0.931 . S
H377 C414 0.930 . S
H378 C416 0.930 . S
H379 C417 0.929 . S
H380 C419 0.930 . S
H381 C420 0.931 . S
H382 C422 0.930 . S
H383 C423 0.929 . S
H384 C425 0.931 . S
H385 C426 0.930 . S
H386 C428 0.930 . S
H387 C429 0.932 . S
H388 C431 0.930 . S
H389 C432 0.929 . S
H390 C434 0.931 . S
H391 C435 0.930 . S
H392 C437 0.929 . S
H393 C438 0.931 . S
H394 C440 0.930 . S
H395 C441 0.929 . S
O396 H370 0.856 . S
O396 C442 1.300 . S
O397 C442 1.209 . S
O398 C443 1.199 . S
O399 H371 0.854 . S
O399 C443 1.297 . S
C400 C401 1.404 . S
C400 C405 1.397 . S
C400 C406 1.492 . S
C401 C400 1.404 . S
C401 C402 1.396 . S
C401 C412 1.492 1_554 S
C402 C401 1.396 . S
C402 C403 1.397 . S
C402 C418 1.509 . S
C403 C402 1.397 . S
C403 C404 1.412 . S
C403 C424 1.485 . S
C404 C403 1.412 . S
C404 C405 1.388 . S
C404 C430 1.490 . S
C405 C400 1.397 . S
C405 C404 1.388 . S
C405 C436 1.519 . S
C406 C400 1.492 . S
C406 C407 1.363 . S
C406 C411 1.390 . S
C407 H372 0.930 . S
C407 C406 1.363 . S
C407 C408 1.372 . S
C408 H373 0.930 . S
C408 C407 1.372 . S
C408 C409 1.383 . S
C409 C408 1.383 . S
C409 C410 1.395 . S
C410 H374 0.930 . S
C410 C409 1.395 . S
C410 C411 1.362 . S
C411 H375 0.930 . S
C411 C406 1.390 . S
C411 C410 1.362 . S
C412 C401 1.492 1_556 S
C412 C413 1.377 . S
C412 C417 1.397 . S
C413 H376 0.931 . S
C413 C412 1.377 . S
C413 C414 1.376 . S
C414 H377 0.930 . S
C414 C413 1.376 . S
C414 C415 1.376 . S
C415 C414 1.376 . S
C415 C416 1.378 . S
C415 C442 1.486 . S
C416 H378 0.930 . S
C416 C415 1.378 . S
C416 C417 1.376 . S
C417 H379 0.929 . S
C417 C412 1.397 . S
C417 C416 1.376 . S
C418 C402 1.509 . S
C418 C419 1.391 . S
C418 C423 1.386 1_554 S
C419 H380 0.930 . S
C419 C418 1.391 . S
C419 C420 1.375 1_554 S
C420 H381 0.931 . S
C420 C419 1.375 1_556 S
C420 C421 1.375 . S
C421 C420 1.375 . S
C421 C422 1.361 . S
C422 H382 0.930 . S
C422 C421 1.361 . S
C422 C423 1.399 . S
C423 H383 0.929 . S
C423 C418 1.386 1_556 S
C423 C422 1.399 . S
C424 C403 1.485 . S
C424 C425 1.394 . S
C424 C429 1.360 . S
C425 H384 0.931 . S
C425 C424 1.394 . S
C425 C426 1.372 . S
C426 H385 0.930 . S
C426 C425 1.372 . S
C426 C427 1.397 . S
C427 C426 1.397 . S
C427 C428 1.390 . S
C427 C443 1.476 1_545 S
C428 H386 0.930 . S
C428 C427 1.390 . S
C428 C429 1.366 . S
C429 H387 0.932 . S
C429 C424 1.360 . S
C429 C428 1.366 . S
C430 C404 1.490 . S
C430 C431 1.380 . S
C430 C435 1.386 . S
C431 H388 0.930 . S
C431 C430 1.380 . S
C431 C432 1.381 . S
C432 H389 0.929 . S
C432 C431 1.381 . S
C432 C433 1.371 . S
C433 C432 1.371 . S
C433 C434 1.380 . S
C434 H390 0.931 . S
C434 C433 1.380 . S
C434 C435 1.387 . S
C435 H391 0.930 . S
C435 C430 1.386 . S
C435 C434 1.387 . S
C436 C405 1.519 . S
C436 C437 1.377 . S
C436 C441 1.361 . S
C437 H392 0.929 . S
C437 C436 1.377 . S
C437 C438 1.386 . S
C438 H393 0.931 . S
C438 C437 1.386 . S
C438 C439 1.363 . S
C439 C438 1.363 . S
C439 C440 1.385 . S
C440 H394 0.930 . S
C440 C439 1.385 . S
C440 C441 1.396 . S
C441 H395 0.929 . S
C441 C436 1.361 . S
C441 C440 1.396 . S
C442 O396 1.300 . S
C442 O397 1.209 . S
C442 C415 1.486 . S
C443 O398 1.199 . S
C443 O399 1.297 . S
C443 C427 1.476 1_565 S
C444 O471 1.312 . S
C444 O472 1.208 . S
C445 O466 1.331 . S
C445 O469 1.244 . S
C446 O468 1.264 . S
C446 O470 1.273 . S
Mg447 O449 1.936 1_455 S
Mg447 O456 2.081 1_455 S
Mg447 O458 2.023 . S
Mg447 O462 2.031 1_455 S
Mg447 O471 2.291 . S
Mg448 O449 1.963 . S
Mg448 O459 1.942 . S
Mg448 O460 1.955 1_655 S
Mg448 O467 1.986 . S
O449 Mg447 1.936 1_655 S
O449 Mg448 1.963 . S
O449 Mg450 1.915 1_655 S
Mg450 O449 1.915 1_455 S
Mg450 O451 1.915 . S
Mg450 O455 2.013 . S
Mg450 O461 2.114 1_455 S
Mg450 O465 2.013 1_455 S
Mg450 O471 2.114 . S
O451 Mg450 1.915 . S
O451 Mg452 1.936 . S
O451 Mg453 1.963 . S
Mg452 O451 1.936 . S
Mg452 O461 2.291 1_455 S
Mg452 O466 2.081 . S
Mg452 O468 2.023 1_455 S
Mg452 O472 2.031 . S
Mg453 O451 1.963 . S
Mg453 O457 1.986 . S
Mg453 O469 1.942 . S
Mg453 O470 1.955 1_455 S
C454 O465 1.191 . S
C454 O467 1.307 . S
O455 Mg450 2.013 . S
O455 C474 1.191 . S
O456 Mg447 2.081 1_655 S
O456 C464 1.331 . S
O457 Mg453 1.986 . S
O457 C474 1.307 . S
O458 Mg447 2.023 . S
O458 C473 1.264 . S
O459 Mg448 1.942 . S
O459 C464 1.244 . S
O460 Mg448 1.955 1_455 S
O460 C473 1.273 . S
O461 Mg450 2.114 1_655 S
O461 Mg452 2.291 1_655 S
O461 C463 1.312 . S
O462 Mg447 2.031 1_655 S
O462 C463 1.208 . S
C463 O461 1.312 . S
C463 O462 1.208 . S
C464 O456 1.331 . S
C464 O459 1.244 . S
O465 Mg450 2.013 1_655 S
O465 C454 1.191 . S
O466 C445 1.331 . S
O466 Mg452 2.081 . S
O467 Mg448 1.986 . S
O467 C454 1.307 . S
O468 C446 1.264 . S
O468 Mg452 2.023 1_655 S
O469 C445 1.244 . S
O469 Mg453 1.942 . S
O470 C446 1.273 . S
O470 Mg453 1.955 1_655 S
O471 C444 1.312 . S
O471 Mg447 2.291 . S
O471 Mg450 2.114 . S
O472 C444 1.208 . S
O472 Mg452 2.031 . S
C473 O458 1.264 . S
C473 O460 1.273 . S
C474 O455 1.191 . S
C474 O457 1.307 . S
C475 O502 1.312 . S
C475 O503 1.208 . S
C476 O497 1.331 . S
C476 O500 1.244 . S
C477 O499 1.264 . S
C477 O501 1.273 . S
Mg478 O480 1.936 . S
Mg478 O487 2.081 1_545 S
Mg478 O489 2.023 . S
Mg478 O493 2.031 1_545 S
Mg478 O502 2.291 . S
Mg479 O480 1.963 . S
Mg479 O490 1.942 1_545 S
Mg479 O491 1.955 . S
Mg479 O498 1.986 1_545 S
O480 Mg478 1.936 . S
O480 Mg479 1.963 . S
O480 Mg481 1.915 . S
Mg481 O480 1.915 . S
Mg481 O482 1.915 . S
Mg481 O486 2.013 . S
Mg481 O492 2.114 1_545 S
Mg481 O496 2.013 1_545 S
Mg481 O502 2.114 . S
O482 Mg481 1.915 . S
O482 Mg483 1.936 . S
O482 Mg484 1.963 . S
Mg483 O482 1.936 . S
Mg483 O492 2.291 1_545 S
Mg483 O497 2.081 . S
Mg483 O499 2.023 1_545 S
Mg483 O503 2.031 . S
Mg484 O482 1.963 . S
Mg484 O488 1.986 . S
Mg484 O500 1.942 . S
Mg484 O501 1.955 1_545 S
C485 O496 1.191 . S
C485 O498 1.307 . S
O486 Mg481 2.013 . S
O486 C505 1.191 . S
O487 Mg478 2.081 1_565 S
O487 C495 1.331 . S
O488 Mg484 1.986 . S
O488 C505 1.307 . S
O489 Mg478 2.023 . S
O489 C504 1.264 . S
O490 Mg479 1.942 1_565 S
O490 C495 1.244 . S
O491 Mg479 1.955 . S
O491 C504 1.273 . S
O492 Mg481 2.114 1_565 S
O492 Mg483 2.291 1_565 S
O492 C494 1.312 . S
O493 Mg478 2.031 1_565 S
O493 C494 1.208 . S
C494 O492 1.312 . S
C494 O493 1.208 . S
C495 O487 1.331 . S
C495 O490 1.244 . S
O496 Mg481 2.013 1_565 S
O496 C485 1.191 . S
O497 C476 1.331 . S
O497 Mg483 2.081 . S
O498 Mg479 1.986 1_565 S
O498 C485 1.307 . S
O499 C477 1.264 . S
O499 Mg483 2.023 1_565 S
O500 C476 1.244 . S
O500 Mg484 1.942 . S
O501 C477 1.273 . S
O501 Mg484 1.955 1_565 S
O502 C475 1.312 . S
O502 Mg478 2.291 . S
O502 Mg481 2.114 . S
O503 C475 1.208 . S
O503 Mg483 2.031 . S
C504 O489 1.264 . S
C504 O491 1.273 . S
C505 O486 1.191 . S
C505 O488 1.307 . S
C506 O533 1.312 . S
C506 O534 1.208 . S
C507 O528 1.331 . S
C507 O531 1.244 . S
C508 O530 1.264 . S
C508 O532 1.273 . S
Mg509 O511 1.936 . S
Mg509 O518 2.081 . S
Mg509 O520 2.023 . S
Mg509 O524 2.031 . S
Mg509 O533 2.291 . S
Mg510 O511 1.963 . S
Mg510 O521 1.942 . S
Mg510 O522 1.955 . S
Mg510 O529 1.986 . S
O511 Mg509 1.936 . S
O511 Mg510 1.963 . S
O511 Mg512 1.915 . S
Mg512 O511 1.915 . S
Mg512 O513 1.915 . S
Mg512 O517 2.013 . S
Mg512 O523 2.114 . S
Mg512 O527 2.013 . S
Mg512 O533 2.114 . S
O513 Mg512 1.915 . S
O513 Mg514 1.936 . S
O513 Mg515 1.963 . S
Mg514 O513 1.936 . S
Mg514 O523 2.291 . S
Mg514 O528 2.081 . S
Mg514 O530 2.023 . S
Mg514 O534 2.031 . S
Mg515 O513 1.963 . S
Mg515 O519 1.986 . S
Mg515 O531 1.942 . S
Mg515 O532 1.955 . S
C516 O527 1.191 . S
C516 O529 1.307 . S
O517 Mg512 2.013 . S
O517 C536 1.191 . S
O518 Mg509 2.081 . S
O518 C526 1.331 . S
O519 Mg515 1.986 . S
O519 C536 1.307 . S
O520 Mg509 2.023 . S
O520 C535 1.264 . S
O521 Mg510 1.942 . S
O521 C526 1.244 . S
O522 Mg510 1.955 . S
O522 C535 1.273 . S
O523 Mg512 2.114 . S
O523 Mg514 2.291 . S
O523 C525 1.312 . S
O524 Mg509 2.031 . S
O524 C525 1.208 . S
C525 O523 1.312 . S
C525 O524 1.208 . S
C526 O518 1.331 . S
C526 O521 1.244 . S
O527 Mg512 2.013 . S
O527 C516 1.191 . S
O528 C507 1.331 . S
O528 Mg514 2.081 . S
O529 Mg510 1.986 . S
O529 C516 1.307 . S
O530 C508 1.264 . S
O530 Mg514 2.023 . S
O531 C507 1.244 . S
O531 Mg515 1.942 . S
O532 C508 1.273 . S
O532 Mg515 1.955 . S
O533 C506 1.312 . S
O533 Mg509 2.291 . S
O533 Mg512 2.114 . S
O534 C506 1.208 . S
O534 Mg514 2.031 . S
C535 O520 1.264 . S
C535 O522 1.273 . S
C536 O517 1.191 . S
C536 O519 1.307 . S
C39 C444 2.563 . S
C125 C476 1.861 . S
C535 C211 3.288 . S
C464 C273 1.382 . S
C335 C494 3.117 . S
C516 C439 2.282 . S
C485 C187 2.597 . S
C291 C525 2.310 . S
C474 C359 3.827 . S
C421 C504 1.274 . S
C63 C507 3.205 . S
C446 C143 2.363 . S
C454 C285 3.690 . S
C495 C365 1.941 . S
C508 C409 2.974 1_556 S
C445 C69 1.781 1_556 S
C505 C137 3.103 . S
C199 C506 1.439 . S
C475 C433 3.713 . S
C536 C51 1.326 . S
C463 C113 2.692 . S
C477 C217 1.916 . S
C261 C526 2.884 . S
C347 C473 0.817 . S
