# Generated by pormake.
# Topology pth, (4,4)-cn, num edge types: 1
# Building blocks:
#     Node 0, Type 0, BuildingBlock: TATPOV_clean_sbu_0, # of connection points: 4
#     Node 1, Type 0, BuildingBlock: TATPOV_clean_sbu_0, # of connection points: 4
#     Node 2, Type 0, BuildingBlock: TATPOV_clean_sbu_0, # of connection points: 4
#     Node 3, Type 1, BuildingBlock: MIFKUJ_clean_linker_1, # of connection points: 4
#     Node 4, Type 1, BuildingBlock: MIFKUJ_clean_linker_1, # of connection points: 4
#     Node 5, Type 1, BuildingBlock: MIFKUJ_clean_linker_1, # of connection points: 4
#     Edge 6, Type (0, 1), BuildingBlock: XUDNAN_clean_linker_2, # of connection points: 2
#     Edge 7, Type (0, 1), BuildingBlock: XUDNAN_clean_linker_2, # of connection points: 2
#     Edge 8, Type (0, 1), BuildingBlock: XUDNAN_clean_linker_2, # of connection points: 2
#     Edge 9, Type (0, 1), BuildingBlock: XUDNAN_clean_linker_2, # of connection points: 2
#     Edge 10, Type (0, 1), BuildingBlock: XUDNAN_clean_linker_2, # of connection points: 2
#     Edge 11, Type (0, 1), BuildingBlock: XUDNAN_clean_linker_2, # of connection points: 2
#     Edge 12, Type (0, 1), BuildingBlock: XUDNAN_clean_linker_2, # of connection points: 2
#     Edge 13, Type (0, 1), BuildingBlock: XUDNAN_clean_linker_2, # of connection points: 2
#     Edge 14, Type (0, 1), BuildingBlock: XUDNAN_clean_linker_2, # of connection points: 2
#     Edge 15, Type (0, 1), BuildingBlock: XUDNAN_clean_linker_2, # of connection points: 2
#     Edge 16, Type (0, 1), BuildingBlock: XUDNAN_clean_linker_2, # of connection points: 2
#     Edge 17, Type (0, 1), BuildingBlock: XUDNAN_clean_linker_2, # of connection points: 2
# Relax obj value: 0.038
# Max RMSD: 0.160
# Mean RMSD: 0.089
data_MOF--net-pth--node1-TATPOV_clean_sbu_0--node2-MIFKUJ_clean_linker_1--edge1-XUDNAN_clean_linker_2
_symmetry_space_group_name_H-M    P1
_symmetry_Int_Tables_number       1
_symmetry_cell_setting            triclinic
loop_
_symmetry_equiv_pos_as_xyz
'x, y, z'
_cell_length_a     29.830288
_cell_length_b     29.510078
_cell_length_c     62.332393
_cell_angle_alpha  92.405411
_cell_angle_beta   92.388325
_cell_angle_gamma 121.08509
loop_
_atom_site_label
_atom_site_type_symbol
_atom_site_fract_x
_atom_site_fract_y
_atom_site_fract_z
_atom_type_partial_charge
Zn0 Zn 0.08318 0.98204 0.01077 0.0
Zn1 Zn 0.05131 0.03777 0.0355 0.0
O2 O 0.0635 0.99572 0.05782 0.0
O3 O 0.08747 0.94879 0.03832 0.0
O4 O 0.03097 0.08418 0.05168 0.0
O5 O 0.14442 0.05126 0.0019 0.0
O6 O 0.11641 0.09371 0.02179 0.0
C7 C 0.07705 0.9613 0.05636 0.0
C8 C 0.97874 0.95955 0.99813 0.0
O9 O 0.98763 0.99185 0.01423 0.0
O10 O 0.01345 0.94929 0.99305 0.0
C11 C 0.02573 0.0875 0.07171 0.0
O12 O 0.03231 0.05669 0.08443 0.0
C13 C 0.14891 0.09436 0.00902 0.0
Zn14 Zn 0.14754 0.11527 0.35938 0.0
Zn15 Zn 0.05993 0.06844 0.38124 0.0
O16 O 0.12106 0.07644 0.40034 0.0
O17 O 0.19559 0.12422 0.38553 0.0
O18 O 0.00567 0.04722 0.40283 0.0
O19 O 0.13353 0.17298 0.35103 0.0
O20 O 0.06146 0.1315 0.36809 0.0
C21 C 0.17071 0.09853 0.40105 0.0
C22 C 0.0622 0.00458 0.34394 0.0
O23 O 0.03554 0.00762 0.35876 0.0
O24 O 0.10831 0.04306 0.34169 0.0
C25 C 0.96271 0.04619 0.4002 0.0
O26 O 0.94888 0.05527 0.38132 0.0
C27 C 0.09123 0.16872 0.35659 0.0
Zn28 Zn 0.05693 0.89324 0.71354 0.0
Zn29 Zn 0.03314 0.96233 0.69787 0.0
O30 O 0.07205 0.9495 0.67409 0.0
O31 O 0.08302 0.88559 0.685 0.0
O32 O 0.00694 0.00555 0.6839 0.0
O33 O 0.98261 0.84362 0.72067 0.0
O34 O 0.96404 0.90045 0.70749 0.0
C35 C 0.08817 0.91749 0.671 0.0
C36 C 0.11016 -0.00156 0.73686 0.0
O37 O 0.08379 0.00863 0.72339 0.0
O38 O 0.10607 0.95341 0.73566 0.0
C39 C 0.99261 0.03231 0.69502 0.0
O40 O -0.00136 0.0349 0.71613 0.0
C41 C 0.94969 0.85743 0.71642 0.0
H42 H 0.08783 0.50054 0.16841 0.0
H43 H 0.08329 0.43075 0.14423 0.0
H44 H 0.94315 0.31404 0.17217 0.0
H45 H 0.94636 0.38438 0.1959 0.0
H46 H 0.02599 0.5346 0.16852 0.0
H47 H 0.07855 0.4524 0.22006 0.0
H48 H 0.07829 0.38876 0.24379 0.0
H49 H 0.94653 0.37978 0.27438 0.0
H50 H 0.94373 0.43869 0.2492 0.0
H51 H 0.94037 0.60257 0.21156 0.0
H52 H 0.9331 0.67168 0.23156 0.0
H53 H 0.06918 0.70894 0.27309 0.0
H54 H 0.07633 0.64011 0.25306 0.0
H55 H 0.00688 0.53405 0.2471 0.0
H56 H 0.96805 0.57388 0.15911 0.0
H57 H 0.98172 0.6491 0.13904 0.0
H58 H 0.10608 0.75672 0.18624 0.0
H59 H 0.09342 0.68153 0.20591 0.0
C60 C 0.01743 0.44788 0.184 0.0
C61 C 0.05614 0.45997 0.16944 0.0
C62 C 0.05363 0.42015 0.15566 0.0
C63 C 0.01276 0.3673 0.15635 0.0
C64 C 0.97519 0.35459 0.17149 0.0
C65 C 0.97716 0.3947 0.18507 0.0
C66 C 0.01746 0.49159 0.19675 0.0
C67 C 0.02166 0.53414 0.18571 0.0
C68 C 0.01257 0.49166 0.21929 0.0
C69 C 0.01079 0.4501 0.23259 0.0
C70 C 0.04857 0.4354 0.23143 0.0
C71 C 0.04901 0.39967 0.24539 0.0
C72 C 0.01261 0.379 0.26127 0.0
C73 C 0.97463 0.39363 0.2622 0.0
C74 C 0.97338 0.42812 0.24791 0.0
C75 C 0.00908 0.61659 0.2308 0.0
C76 C 0.96863 0.62577 0.22495 0.0
C77 C 0.96434 0.66493 0.23642 0.0
C78 C 0.00072 0.69568 0.25377 0.0
C79 C 0.04099 0.68617 0.25962 0.0
C80 C 0.04492 0.64672 0.24831 0.0
C81 C 0.01391 0.57526 0.21873 0.0
C82 C 0.01071 0.53359 0.22987 0.0
C83 C 0.02076 0.57636 0.19645 0.0
C84 C 0.02909 0.62199 0.18423 0.0
C85 C -0.00154 0.61363 0.16508 0.0
C86 C 0.0063 0.65658 0.15363 0.0
C87 C 0.04474 0.70873 0.16118 0.0
C88 C 0.07563 0.71703 0.18024 0.0
C89 C 0.06826 0.67406 0.19152 0.0
H90 H 0.73181 0.14425 0.54604 0.0
H91 H 0.79695 0.13629 0.52616 0.0
H92 H 0.67268 0.99381 0.4912 0.0
H93 H 0.60792 0.00054 0.51157 0.0
H94 H 0.58093 0.07049 0.51283 0.0
H95 H 0.69608 0.1643 0.59208 0.0
H96 H 0.76694 0.17145 0.61588 0.0
H97 H 0.72329 0.01217 0.59345 0.0
H98 H 0.65397 0.00652 0.56903 0.0
H99 H 0.48866 0.99023 0.58837 0.0
H100 H 0.40363 0.95804 0.60274 0.0
H101 H 0.39642 0.08807 0.57705 0.0
H102 H 0.48335 0.12164 0.56335 0.0
H103 H 0.5842 0.079 0.59251 0.0
H104 H 0.434 0.99336 0.53925 0.0
H105 H 0.36217 0.99035 0.51849 0.0
H106 H 0.47396 0.1249 0.48513 0.0
H107 H 0.54466 0.13242 0.50855 0.0
C108 C 0.66489 0.07269 0.53049 0.0
C109 C 0.7186 0.1108 0.53438 0.0
C110 C 0.75575 0.10638 0.52297 0.0
C111 C 0.73966 0.06448 0.50716 0.0
C112 C 0.68601 0.02673 0.50317 0.0
C113 C 0.64906 0.03063 0.51479 0.0
C114 C 0.6245 0.07637 0.54228 0.0
C115 C 0.58176 0.07275 0.53027 0.0
C116 C 0.62618 0.08064 0.56501 0.0
C117 C 0.67003 0.085 0.57879 0.0
C118 C 0.70216 0.13115 0.59223 0.0
C119 C 0.74244 0.13498 0.60592 0.0
C120 C 0.75083 0.09228 0.60675 0.0
C121 C 0.71868 0.04619 0.59305 0.0
C122 C 0.67875 0.04267 0.57916 0.0
C123 C 0.49209 0.05792 0.57451 0.0
C124 C 0.46947 0.01264 0.58624 0.0
C125 C 0.42039 0.99377 0.59416 0.0
C126 C 0.39257 0.01963 0.5905 0.0
C127 C 0.41674 0.0671 0.58002 0.0
C128 C 0.46633 0.08628 0.57217 0.0
C129 C 0.53943 0.07085 0.56303 0.0
C130 C 0.58374 0.07792 0.57507 0.0
C131 C 0.53907 0.06978 0.54024 0.0
C132 C 0.49479 0.06451 0.52621 0.0
C133 C 0.4429 0.0233 0.52796 0.0
C134 C 0.40161 0.02088 0.51551 0.0
C135 C 0.41128 0.05759 0.49989 0.0
C136 C 0.46386 0.09694 0.49736 0.0
C137 C 0.50486 0.10081 0.51056 0.0
H138 H 0.48533 0.4055 0.83749 0.0
H139 H 0.4232 0.31461 0.82283 0.0
H140 H 0.29393 0.33507 0.83697 0.0
H141 H 0.35648 0.42625 0.85178 0.0
H142 H 0.49776 0.4987 0.82379 0.0
H143 H 0.46571 0.40783 0.88743 0.0
H144 H 0.41595 0.34821 0.91468 0.0
H145 H 0.34308 0.43989 0.92735 0.0
H146 H 0.39423 0.50022 0.90033 0.0
H147 H 0.53695 0.66824 0.88484 0.0
H148 H 0.60789 0.74799 0.90502 0.0
H149 H 0.71069 0.68615 0.89794 0.0
H150 H 0.64063 0.60879 0.87674 0.0
H151 H 0.50489 0.56085 0.89973 0.0
H152 H 0.56785 0.66544 0.83807 0.0
H153 H 0.63119 0.71943 0.81261 0.0
H154 H 0.65758 0.5912 0.79719 0.0
H155 H 0.59659 0.53879 0.82339 0.0
C156 C 0.4254 0.42241 0.84569 0.0
C157 C 0.44361 0.39035 0.83747 0.0
C158 C 0.40816 0.33843 0.82926 0.0
C159 C 0.35388 0.31794 0.82887 0.0
C160 C 0.33562 0.35011 0.83706 0.0
C161 C 0.37119 0.40194 0.84555 0.0
C162 C 0.46344 0.47752 0.85416 0.0
C163 C 0.49955 0.51245 0.8404 0.0
C164 C 0.46521 0.49516 0.87575 0.0
C165 C 0.43311 0.45802 0.89169 0.0
C166 C 0.43858 0.41473 0.89593 0.0
C167 C 0.41001 0.38062 0.91151 0.0
C168 C 0.37534 0.3891 0.9232 0.0
C169 C 0.36994 0.43258 0.91887 0.0
C170 C 0.39882 0.4669 0.90334 0.0
C171 C 0.58387 0.63307 0.87923 0.0
C172 C 0.57526 0.67276 0.8873 0.0
C173 C 0.61575 0.71801 0.89901 0.0
C174 C 0.6652 0.72364 0.90336 0.0
C175 C 0.67376 0.68411 0.89466 0.0
C176 C 0.6336 0.63951 0.8826 0.0
C177 C 0.53978 0.58217 0.86939 0.0
C178 C 0.50242 0.54777 0.88295 0.0
C179 C 0.53845 0.56439 0.84782 0.0
C180 C 0.57775 0.59819 0.83282 0.0
C181 C 0.58799 0.64935 0.82947 0.0
C182 C 0.62366 0.67989 0.81467 0.0
C183 C 0.64949 0.65966 0.80281 0.0
C184 C 0.63907 0.60841 0.80624 0.0
C185 C 0.60376 0.57814 0.8211 0.0
H186 H 0.01593 0.10982 0.11408 0.0
H187 H 0.0149 0.15949 0.04951 0.0
H188 H 0.00588 0.23283 0.06419 0.0
H189 H 0.92091 0.14311 0.13415 0.0
H190 H 0.95477 0.16608 0.16056 0.0
H191 H 0.95726 0.11474 0.14492 0.0
H192 H 0.05889 0.17096 0.14858 0.0
H193 H 0.05673 0.22249 0.16413 0.0
H194 H 0.09206 0.23768 0.14014 0.0
H195 H 0.00517 0.30503 0.08566 0.0
H196 H 0.00873 0.3702 0.11295 0.0
H197 H 0.00724 0.27346 0.16371 0.0
C198 C 0.01303 0.13564 0.103 0.0
C199 C 0.01615 0.12881 0.08062 0.0
C200 C 0.01256 0.16376 0.0667 0.0
C201 C 0.00737 0.20558 0.07487 0.0
C202 C 0.00531 0.21174 0.09699 0.0
C203 C 0.00754 0.17757 0.11089 0.0
C204 C 0.00639 0.19448 0.13408 0.0
C205 C 0.95688 0.15207 0.14401 0.0
C206 C 0.05651 0.20716 0.14752 0.0
C207 C 0.00447 0.24416 0.13103 0.0
C208 C 0.00375 0.25319 0.10947 0.0
C209 C 0.00501 0.29808 0.10258 0.0
C210 C 0.00727 0.33491 0.11814 0.0
C211 C 0.00798 0.32648 0.1403 0.0
C212 C 0.00595 0.28024 0.14681 0.0
H213 H 0.86676 0.03825 0.40082 0.0
H214 H 0.99156 0.04635 0.44242 0.0
H215 H 0.94691 0.04958 0.4743 0.0
H216 H 0.84747 0.1272 0.43249 0.0
H217 H 0.77704 0.09111 0.42762 0.0
H218 H 0.81682 0.08589 0.40788 0.0
H219 H 0.76506 0.9836 0.40908 0.0
H220 H 0.72476 0.98845 0.4287 0.0
H221 H 0.75963 0.95498 0.43454 0.0
H222 H 0.89314 0.06015 0.5017 0.0
H223 H 0.82899 0.06894 0.52269 0.0
H224 H 0.73779 0.05066 0.46345 0.0
C225 C 0.88431 0.03992 0.41662 0.0
C226 C 0.93271 0.04214 0.41909 0.0
C227 C 0.95443 0.04444 0.44007 0.0
C228 C 0.92944 0.04643 0.45832 0.0
C229 C 0.88243 0.04541 0.45533 0.0
C230 C 0.85962 0.04138 0.43502 0.0
C231 C 0.80924 0.04179 0.43631 0.0
C232 C 0.8129 0.08933 0.42543 0.0
C233 C 0.76187 0.98906 0.42658 0.0
C234 C 0.80798 0.04782 0.46048 0.0
C235 C 0.85062 0.04997 0.47117 0.0
C236 C 0.85921 0.05785 0.49353 0.0
C237 C 0.82289 0.06315 0.5053 0.0
C238 C 0.77849 0.06012 0.49466 0.0
C239 C 0.77107 0.05234 0.47198 0.0
H240 H 0.91363 0.77634 0.74306 0.0
H241 H 0.86627 0.87107 0.70825 0.0
H242 H 0.78179 0.82754 0.72524 0.0
H243 H 0.78359 0.65498 0.742 0.0
H244 H 0.79569 0.64155 0.76888 0.0
H245 H 0.84947 0.67591 0.75209 0.0
H246 H 0.89717 0.75332 0.78171 0.0
H247 H 0.8434 0.71952 0.79849 0.0
H248 H 0.86419 0.78593 0.79158 0.0
H249 H 0.70502 0.77789 0.74822 0.0
H250 H 0.64182 0.72495 0.77451 0.0
H251 H 0.74275 0.66686 0.79516 0.0
C252 C 0.88509 0.78716 0.73857 0.0
C253 C 0.89644 0.82685 0.72418 0.0
C254 C 0.85832 0.8405 0.71912 0.0
C255 C 0.81025 0.81604 0.72871 0.0
C256 C 0.80101 0.77811 0.7433 0.0
C257 C 0.83733 0.76358 0.7481 0.0
C258 C 0.81964 0.72442 0.76532 0.0
C259 C 0.81161 0.67105 0.75654 0.0
C260 C 0.8584 0.74718 0.78546 0.0
C261 C 0.76797 0.71964 0.7697 0.0
C262 C 0.75763 0.75054 0.75676 0.0
C263 C 0.71264 0.75336 0.75836 0.0
C264 C 0.67722 0.72353 0.77348 0.0
C265 C 0.68718 0.6916 0.78691 0.0
C266 C 0.73336 0.69 0.78491 0.0
H267 H 0.07527 0.86772 0.05708 0.0
H268 H 0.07834 0.99102 0.09878 0.0
H269 H 0.07373 0.94137 0.13043 0.0
H270 H 0.98168 0.75986 0.08442 0.0
H271 H 0.01126 0.7204 0.08052 0.0
H272 H 0.01898 0.76752 0.06139 0.0
H273 H 0.12015 0.81297 0.06683 0.0
H274 H 0.11275 0.76576 0.0859 0.0
H275 H 0.15195 0.83586 0.09359 0.0
H276 H 0.06656 0.87687 0.15742 0.0
H277 H 0.05446 0.80118 0.1775 0.0
H278 H 0.05298 0.71912 0.11784 0.0
C279 C 0.0758 0.88475 0.07289 0.0
C280 C 0.07761 0.93348 0.07549 0.0
C281 C 0.07715 0.95383 0.09642 0.0
C282 C 0.07462 0.92596 0.11449 0.0
C283 C 0.07221 0.87769 0.11131 0.0
C284 C 0.07264 0.8572 0.09103 0.0
C285 C 0.06698 0.80328 0.09182 0.0
C286 C 0.01673 0.76024 0.07877 0.0
C287 C 0.11588 0.80457 0.08408 0.0
C288 C 0.06293 0.79642 0.11571 0.0
C289 C 0.06655 0.83996 0.12672 0.0
C290 C 0.06381 0.84263 0.14897 0.0
C291 C 0.0571 0.7996 0.16023 0.0
C292 C 0.05268 0.75436 0.14919 0.0
C293 C 0.05573 0.75299 0.12665 0.0
H294 H 0.27112 0.16204 0.42019 0.0
H295 H 0.13038 0.00622 0.42017 0.0
H296 H 0.17594 0.97937 0.44581 0.0
H297 H 0.3644 0.123 0.42365 0.0
H298 H 0.41092 0.17729 0.44223 0.0
H299 H 0.36725 0.18558 0.42427 0.0
H300 H 0.33305 0.21365 0.4567 0.0
H301 H 0.37715 0.2061 0.47475 0.0
H302 H 0.30784 0.17079 0.47845 0.0
H303 H 0.23954 0.96562 0.46729 0.0
H304 H 0.31268 0.96956 0.48831 0.0
H305 H 0.40851 0.13868 0.47963 0.0
C306 C 0.24989 0.1226 0.42586 0.0
C307 C 0.19735 0.08614 0.41822 0.0
C308 C 0.17055 0.03488 0.42598 0.0
C309 C 0.19614 0.01912 0.44044 0.0
C310 C 0.24813 0.05556 0.44743 0.0
C311 C 0.27438 0.10667 0.4409 0.0
C312 C 0.32981 0.13814 0.45139 0.0
C313 C 0.37048 0.1571 0.43437 0.0
C314 C 0.33739 0.18493 0.46621 0.0
C315 C 0.33089 0.09615 0.46424 0.0
C316 C 0.28359 0.04872 0.46147 0.0
C317 C 0.27633 0.00301 0.47021 0.0
C318 C 0.31837 0.00596 0.4824 0.0
C319 C 0.367 0.05473 0.48636 0.0
C320 C 0.3727 0.10039 0.47706 0.0
H321 H 0.13075 0.10027 0.74433 0.0
H322 H 0.17161 0.98867 0.76785 0.0
H323 H 0.23407 0.05678 0.79553 0.0
H324 H 0.25896 0.21308 0.75031 0.0
H325 H 0.23884 0.25862 0.75884 0.0
H326 H 0.19465 0.20006 0.74172 0.0
H327 H 0.12413 0.17201 0.76942 0.0
H328 H 0.1682 0.23052 0.78667 0.0
H329 H 0.14019 0.16586 0.79693 0.0
H330 H 0.29601 0.13792 0.81903 0.0
H331 H 0.35342 0.22763 0.83705 0.0
H332 H 0.2719 0.28632 0.79878 0.0
C333 C 0.15245 0.08996 0.75542 0.0
C334 C 0.14621 0.03906 0.75389 0.0
C335 C 0.17562 0.02734 0.76867 0.0
C336 C 0.21114 0.06571 0.78451 0.0
C337 C 0.21663 0.11553 0.78546 0.0
C338 C 0.18805 0.12778 0.77138 0.0
C339 C 0.20297 0.18504 0.77538 0.0
C340 C 0.22518 0.21601 0.75537 0.0
C341 C 0.15607 0.18854 0.78253 0.0
C342 C 0.24508 0.20324 0.79362 0.0
C343 C 0.25214 0.16242 0.79925 0.0
C344 C 0.29055 0.17011 0.81494 0.0
C345 C 0.32303 0.2211 0.82501 0.0
C346 C 0.31675 0.26356 0.81935 0.0
C347 C 0.27682 0.25426 0.80366 0.0
H348 H 0.95589 0.01668 0.65261 0.0
H349 H 0.96259 0.09729 0.71363 0.0
H350 H 0.9065 0.12693 0.69688 0.0
H351 H 0.95434 0.11371 0.61752 0.0
H352 H 0.90889 0.06267 0.59755 0.0
H353 H 0.9541 0.05267 0.61375 0.0
H354 H 0.87615 0.96568 0.62588 0.0
H355 H 0.83072 0.97561 0.6099 0.0
H356 H 0.82346 0.96741 0.63828 0.0
H357 H 0.84308 0.14043 0.67453 0.0
H358 H 0.77845 0.13862 0.64808 0.0
H359 H 0.81459 0.05102 0.60123 0.0
C360 C 0.94653 0.04152 0.66236 0.0
C361 C 0.96383 0.05485 0.68444 0.0
C362 C 0.94991 0.08666 0.69669 0.0
C363 C 0.91812 0.10376 0.68731 0.0
C364 C 0.90071 0.08884 0.66565 0.0
C365 C 0.91469 0.05874 0.65328 0.0
C366 C 0.8881 0.04535 0.63073 0.0
C367 C 0.92879 0.0701 0.61389 0.0
C368 C 0.8525 0.98494 0.62593 0.0
C369 C 0.85618 0.07174 0.63249 0.0
C370 C 0.86427 0.09687 0.65271 0.0
C371 C 0.83711 0.12169 0.65851 0.0
C372 C 0.80061 0.12068 0.64328 0.0
C373 C 0.79151 0.09508 0.6224 0.0
C374 C 0.82022 0.07072 0.61701 0.0
H375 H 0.95435 0.90765 0.95808 0.0
H376 H 0.8872 0.95108 0.00969 0.0
H377 H 0.80031 0.90169 0.98943 0.0
H378 H 0.8737 0.9158 0.91367 0.0
H379 H 0.86857 0.86011 0.8982 0.0
H380 H 0.92606 0.90229 0.91604 0.0
H381 H 0.9118 0.8203 0.93543 0.0
H382 H 0.85429 0.77797 0.91772 0.0
H383 H 0.84973 0.77799 0.94647 0.0
H384 H 0.71948 0.83951 0.96543 0.0
H385 H 0.65146 0.77206 0.9391 0.0
H386 H 0.77277 0.77522 0.90174 0.0
C387 C 0.92151 0.90729 0.96503 0.0
C388 C 0.92746 0.93304 0.98549 0.0
C389 C 0.88356 0.93175 0.99401 0.0
C390 C 0.83408 0.90385 0.98262 0.0
C391 C 0.82947 0.87829 0.96261 0.0
C392 C 0.87213 0.88032 0.95378 0.0
C393 C 0.85641 0.84797 0.93237 0.0
C394 C 0.88275 0.88369 0.91398 0.0
C395 C 0.86879 0.80343 0.93306 0.0
C396 C 0.79789 0.82592 0.93088 0.0
C397 C 0.78313 0.84404 0.94841 0.0
C398 C 0.73067 0.82596 0.95137 0.0
C399 C 0.69225 0.78781 0.93617 0.0
C400 C 0.70641 0.76826 0.91811 0.0
C401 C 0.76022 0.78875 0.91535 0.0
H402 H 0.11545 0.97696 0.31702 0.0
H403 H 0.96031 0.92061 0.33908 0.0
H404 H 0.92581 0.83695 0.31636 0.0
H405 H 0.07386 0.91746 0.26195 0.0
H406 H 0.12436 0.90125 0.26109 0.0
H407 H 0.13546 0.95813 0.27766 0.0
H408 H 0.15707 0.92121 0.311 0.0
H409 H 0.14593 0.86423 0.29457 0.0
H410 H 0.11002 0.85537 0.31814 0.0
H411 H 0.90939 0.75791 0.29215 0.0
H412 H 0.91353 0.68871 0.26994 0.0
H413 H 0.07999 0.79723 0.26489 0.0
C414 C 0.07403 0.94743 0.31687 0.0
C415 C 0.04048 0.95544 0.32971 0.0
C416 C 0.98671 0.91534 0.32932 0.0
C417 C 0.96673 0.86781 0.31642 0.0
C418 C 0.00111 0.86106 0.30411 0.0
C419 C 0.05364 0.89979 0.3043 0.0
C420 C 0.08317 0.88178 0.2907 0.0
C421 C 0.10551 0.91674 0.27172 0.0
C422 C 0.12659 0.88057 0.30443 0.0
C423 C 0.03923 0.82651 0.28305 0.0
C424 C 0.99201 0.81541 0.29069 0.0
C425 C 0.9461 0.76628 0.28599 0.0
C426 C 0.94875 0.72735 0.27334 0.0
C427 C 0.9971 0.73776 0.26582 0.0
C428 C 0.04262 0.78816 0.27059 0.0
H429 H 0.16292 0.00845 0.65505 0.0
H430 H 0.08689 0.83727 0.6472 0.0
H431 H 0.15052 0.84586 0.62108 0.0
H432 H 0.20779 0.0383 0.59885 0.0
H433 H 0.26953 0.09579 0.60887 0.0
H434 H 0.21136 0.07631 0.62296 0.0
H435 H 0.25933 0.07309 0.65795 0.0
H436 H 0.3173 0.09196 0.64398 0.0
H437 H 0.28763 0.03188 0.65788 0.0
H438 H 0.22776 0.87254 0.59985 0.0
H439 H 0.31549 0.91489 0.58598 0.0
H440 H 0.34604 0.06941 0.60972 0.0
C441 C 0.15844 0.97287 0.64708 0.0
C442 C 0.1194 0.92214 0.65263 0.0
C443 C 0.11607 0.87636 0.64279 0.0
C444 C 0.15194 0.88092 0.62794 0.0
C445 C 0.1912 0.93157 0.62334 0.0
C446 C 0.19476 0.97683 0.6326 0.0
C447 C 0.24494 0.02632 0.62738 0.0
C448 C 0.23265 0.06124 0.6137 0.0
C449 C 0.2793 0.05761 0.64802 0.0
C450 C 0.2699 0.00171 0.6144 0.0
C451 C 0.23762 0.94712 0.61187 0.0
C452 C 0.25318 0.91527 0.60157 0.0
C453 C 0.30334 0.9397 0.59395 0.0
C454 C 0.3379 0.99545 0.59697 0.0
C455 C 0.32035 0.02683 0.60695 0.0
H456 H 0.20231 0.1096 0.97272 0.0
H457 H 0.18447 0.19427 0.02713 0.0
H458 H 0.24444 0.27947 0.01204 0.0
H459 H 0.34066 0.20722 0.96534 0.0
H460 H 0.33066 0.19749 0.9364 0.0
H461 H 0.29088 0.14365 0.95265 0.0
H462 H 0.20684 0.13354 0.93372 0.0
H463 H 0.2463 0.18751 0.91753 0.0
H464 H 0.19886 0.19009 0.93372 0.0
H465 H 0.30205 0.35502 0.98995 0.0
H466 H 0.35319 0.41543 0.96253 0.0
H467 H 0.32938 0.28067 0.92175 0.0
C468 C 0.21196 0.14609 0.98172 0.0
C469 C 0.18911 0.14535 0.0012 0.0
C470 C 0.20172 0.19394 0.01222 0.0
C471 C 0.23577 0.24251 0.00379 0.0
C472 C 0.25668 0.24179 0.9843 0.0
C473 C 0.24535 0.19486 0.97341 0.0
C474 C 0.2701 0.20478 0.95206 0.0
C475 C 0.31048 0.18725 0.9516 0.0
C476 C 0.22801 0.17736 0.93315 0.0
C477 C 0.29655 0.26454 0.95252 0.0
C478 C 0.28874 0.28518 0.97132 0.0
C479 C 0.30853 0.33932 0.97518 0.0
C480 C 0.33711 0.37326 0.95941 0.0
C481 C 0.34531 0.35292 0.93992 0.0
C482 C 0.32464 0.29772 0.93657 0.0
H483 H 0.1466 0.25793 0.33436 0.0
H484 H 0.99246 0.15253 0.35663 0.0
H485 H 0.9564 0.19673 0.33556 0.0
H486 H 0.13329 0.3768 0.33438 0.0
H487 H 0.16918 0.39929 0.31068 0.0
H488 H 0.18382 0.36241 0.3291 0.0
H489 H 0.16804 0.29449 0.2976 0.0
H490 H 0.15236 0.33051 0.27917 0.0
H491 H 0.10604 0.26117 0.28175 0.0
H492 H 0.9345 0.24291 0.30813 0.0
H493 H 0.93031 0.29737 0.28031 0.0
H494 H 0.10002 0.37923 0.27835 0.0
C495 C 0.10554 0.24497 0.33521 0.0
C496 C 0.07239 0.20164 0.34712 0.0
C497 C 0.01878 0.18575 0.34772 0.0
C498 C -0.00221 0.21045 0.33572 0.0
C499 C 0.03108 0.25166 0.32352 0.0
C500 C 0.08405 0.26976 0.32358 0.0
C501 C 0.11089 0.31417 0.30871 0.0
C502 C 0.1517 0.36626 0.32149 0.0
C503 C 0.13578 0.29915 0.29075 0.0
C504 C 0.06439 0.31695 0.2998 0.0
C505 C 0.01875 0.28036 0.30848 0.0
C506 C 0.97021 0.27285 0.30167 0.0
C507 C 0.96836 0.30435 0.28587 0.0
C508 C 0.0149 0.34372 0.27723 0.0
C509 C 0.06349 0.34963 0.28437 0.0
loop_
_geom_bond_atom_site_label_1
_geom_bond_atom_site_label_2
_geom_bond_distance
_geom_bond_site_symmetry_2
_ccdc_geom_bond_type
Zn0 O3 2.031 . S
Zn0 O5 2.052 1_564 S
Zn0 O10 2.067 . S
Zn1 O2 1.962 . S
Zn1 O4 1.986 . S
Zn1 O6 1.996 . S
Zn1 O9 1.943 . S
O2 Zn1 1.962 . S
O2 C7 1.254 1_545 S
O3 Zn0 2.031 . S
O3 C7 1.269 . S
O4 Zn1 1.986 . S
O4 C11 1.262 . S
O5 Zn0 2.052 1_546 S
O5 C13 1.263 1_556 S
O6 Zn1 1.996 . S
O6 C13 1.257 . S
C7 O2 1.254 1_565 S
C7 O3 1.269 . S
C8 O9 1.249 1_565 S
C8 O10 1.270 . S
O9 Zn1 1.943 . S
O9 C8 1.249 1_545 S
O10 Zn0 2.067 . S
O10 C8 1.270 . S
C11 O4 1.262 . S
C11 O12 1.232 . S
O12 C11 1.232 . S
C13 O5 1.263 1_554 S
C13 O6 1.257 . S
Zn14 O17 2.031 . S
Zn14 O19 2.049 . S
Zn14 O24 2.067 . S
Zn15 O16 1.962 . S
Zn15 O18 1.986 1_455 S
Zn15 O20 1.996 . S
Zn15 O23 1.956 1_455 S
O16 Zn15 1.962 . S
O16 C21 1.254 . S
O17 Zn14 2.031 . S
O17 C21 1.269 . S
O18 Zn15 1.986 1_655 S
O18 C25 1.262 . S
O19 Zn14 2.049 . S
O19 C27 1.260 . S
O20 Zn15 1.996 . S
O20 C27 1.257 . S
C21 O16 1.254 . S
C21 O17 1.269 . S
C22 O23 1.241 1_465 S
C22 O24 1.270 1_565 S
O23 Zn15 1.956 1_655 S
O23 C22 1.241 1_645 S
O24 Zn14 2.067 . S
O24 C22 1.270 1_545 S
C25 O18 1.262 . S
C25 O26 1.232 . S
O26 C25 1.232 . S
C27 O19 1.260 . S
C27 O20 1.257 . S
Zn28 O31 2.031 1_565 S
Zn28 O33 2.049 . S
Zn28 O38 2.067 1_565 S
Zn29 O30 1.962 1_545 S
Zn29 O32 1.986 1_445 S
Zn29 O34 1.996 1_445 S
Zn29 O37 1.943 . S
O30 Zn29 1.962 1_565 S
O30 C35 1.254 . S
O31 Zn28 2.031 1_545 S
O31 C35 1.269 1_545 S
O32 Zn29 1.986 1_665 S
O32 C39 1.262 1_565 S
O33 Zn28 2.049 . S
O33 C41 1.260 1_455 S
O34 Zn29 1.996 1_665 S
O34 C41 1.257 . S
C35 O30 1.254 . S
C35 O31 1.269 1_565 S
C36 O37 1.249 . S
C36 O38 1.270 . S
O37 Zn29 1.943 . S
O37 C36 1.249 . S
O38 Zn28 2.067 1_545 S
O38 C36 1.270 . S
C39 O32 1.262 1_545 S
C39 O40 1.232 1_655 S
O40 C39 1.232 1_455 S
C41 O33 1.260 1_655 S
C41 O34 1.257 . S
H42 C61 0.949 . S
H43 C62 0.950 . S
H44 C64 0.950 1_655 S
H45 C65 0.950 1_655 S
H46 C67 0.950 . S
H47 C70 0.950 . S
H48 C71 0.950 . S
H49 C73 0.951 . S
H50 C74 0.949 . S
H51 C76 0.949 . S
H52 C77 0.950 . S
H53 C79 0.950 . S
H54 C80 0.950 . S
H55 C82 0.950 . S
H56 C85 0.950 1_655 S
H57 C86 0.950 1_655 S
H58 C88 0.951 . S
H59 C89 0.949 . S
C60 C61 1.376 . S
C60 C65 1.386 . S
C60 C66 1.483 . S
C61 H42 0.949 . S
C61 C60 1.376 . S
C61 C62 1.397 . S
C62 H43 0.950 . S
C62 C61 1.397 . S
C62 C63 1.391 . S
C63 C62 1.391 . S
C63 C64 1.405 . S
C64 H44 0.950 1_455 S
C64 C63 1.405 . S
C64 C65 1.367 . S
C65 H45 0.950 1_455 S
C65 C60 1.386 . S
C65 C64 1.367 . S
C66 C60 1.483 . S
C66 C67 1.382 . S
C66 C68 1.403 . S
C67 H46 0.950 . S
C67 C66 1.382 . S
C67 C83 1.411 . S
C68 C66 1.403 . S
C68 C69 1.489 . S
C68 C82 1.411 . S
C69 C68 1.489 . S
C69 C70 1.383 . S
C69 C74 1.382 1_455 S
C70 H47 0.950 . S
C70 C69 1.383 . S
C70 C71 1.395 . S
C71 H48 0.950 . S
C71 C70 1.395 . S
C71 C72 1.288 . S
C72 C71 1.288 . S
C72 C73 1.392 1_455 S
C73 H49 0.951 . S
C73 C72 1.392 1_655 S
C73 C74 1.392 . S
C74 H50 0.949 . S
C74 C69 1.382 1_655 S
C74 C73 1.392 . S
C75 C76 1.376 1_455 S
C75 C80 1.386 . S
C75 C81 1.483 . S
C76 H51 0.949 . S
C76 C75 1.376 1_655 S
C76 C77 1.397 . S
C77 H52 0.950 . S
C77 C76 1.397 . S
C77 C78 1.391 1_655 S
C78 C77 1.391 1_455 S
C78 C79 1.405 . S
C79 H53 0.950 . S
C79 C78 1.405 . S
C79 C80 1.367 . S
C80 H54 0.950 . S
C80 C75 1.386 . S
C80 C79 1.367 . S
C81 C75 1.483 . S
C81 C82 1.382 . S
C81 C83 1.403 . S
C82 H55 0.950 . S
C82 C68 1.411 . S
C82 C81 1.382 . S
C83 C67 1.411 . S
C83 C81 1.403 . S
C83 C84 1.489 . S
C84 C83 1.489 . S
C84 C85 1.383 . S
C84 C89 1.382 . S
C85 H56 0.950 1_455 S
C85 C84 1.383 . S
C85 C86 1.395 . S
C86 H57 0.950 1_455 S
C86 C85 1.395 . S
C86 C87 1.288 . S
C87 C86 1.288 . S
C87 C88 1.392 . S
C88 H58 0.951 . S
C88 C87 1.392 . S
C88 C89 1.392 . S
C89 H59 0.949 . S
C89 C84 1.382 . S
C89 C88 1.392 . S
H90 C109 0.949 . S
H91 C110 0.950 . S
H92 C112 0.950 . S
H93 C113 0.950 . S
H94 C115 0.950 . S
H95 C118 0.950 . S
H96 C119 0.950 . S
H97 C121 0.951 . S
H98 C122 0.949 . S
H99 C124 0.949 . S
H100 C125 0.950 . S
H101 C127 0.950 . S
H102 C128 0.950 . S
H103 C130 0.950 . S
H104 C133 0.950 1_565 S
H105 C134 0.950 1_565 S
H106 C136 0.951 . S
H107 C137 0.949 . S
C108 C109 1.376 . S
C108 C113 1.386 1_545 S
C108 C114 1.483 . S
C109 H90 0.949 . S
C109 C108 1.376 . S
C109 C110 1.397 . S
C110 H91 0.950 . S
C110 C109 1.397 . S
C110 C111 1.391 . S
C111 C110 1.391 . S
C111 C112 1.405 1_545 S
C112 H92 0.950 . S
C112 C111 1.405 1_565 S
C112 C113 1.367 . S
C113 H93 0.950 . S
C113 C108 1.386 1_565 S
C113 C112 1.367 . S
C114 C108 1.483 . S
C114 C115 1.382 . S
C114 C116 1.403 . S
C115 H94 0.950 . S
C115 C114 1.382 . S
C115 C131 1.411 . S
C116 C114 1.403 . S
C116 C117 1.489 . S
C116 C130 1.411 . S
C117 C116 1.489 . S
C117 C118 1.383 . S
C117 C122 1.382 1_545 S
C118 H95 0.950 . S
C118 C117 1.383 . S
C118 C119 1.395 . S
C119 H96 0.950 . S
C119 C118 1.395 . S
C119 C120 1.288 . S
C120 C119 1.288 . S
C120 C121 1.392 1_545 S
C121 H97 0.951 . S
C121 C120 1.392 1_565 S
C121 C122 1.392 . S
C122 H98 0.949 . S
C122 C117 1.382 1_565 S
C122 C121 1.392 . S
C123 C124 1.376 1_545 S
C123 C128 1.386 . S
C123 C129 1.483 . S
C124 H99 0.949 . S
C124 C123 1.376 1_565 S
C124 C125 1.397 . S
C125 H100 0.950 . S
C125 C124 1.397 . S
C125 C126 1.391 1_565 S
C126 C125 1.391 1_545 S
C126 C127 1.405 . S
C127 H101 0.950 . S
C127 C126 1.405 . S
C127 C128 1.367 . S
C128 H102 0.950 . S
C128 C123 1.386 . S
C128 C127 1.367 . S
C129 C123 1.483 . S
C129 C130 1.382 . S
C129 C131 1.403 . S
C130 H103 0.950 . S
C130 C116 1.411 . S
C130 C129 1.382 . S
C131 C115 1.411 . S
C131 C129 1.403 . S
C131 C132 1.489 . S
C132 C131 1.489 . S
C132 C133 1.383 . S
C132 C137 1.382 . S
C133 H104 0.950 1_545 S
C133 C132 1.383 . S
C133 C134 1.395 . S
C134 H105 0.950 1_545 S
C134 C133 1.395 . S
C134 C135 1.288 . S
C135 C134 1.288 . S
C135 C136 1.392 . S
C136 H106 0.951 . S
C136 C135 1.392 . S
C136 C137 1.392 . S
C137 H107 0.949 . S
C137 C132 1.382 . S
C137 C136 1.392 . S
H138 C157 0.949 . S
H139 C158 0.950 . S
H140 C160 0.950 . S
H141 C161 0.950 . S
H142 C163 0.950 . S
H143 C166 0.950 . S
H144 C167 0.950 . S
H145 C169 0.951 . S
H146 C170 0.949 . S
H147 C172 0.949 . S
H148 C173 0.950 . S
H149 C175 0.950 . S
H150 C176 0.950 . S
H151 C178 0.950 . S
H152 C181 0.950 . S
H153 C182 0.950 . S
H154 C184 0.951 . S
H155 C185 0.949 . S
C156 C157 1.376 . S
C156 C161 1.386 . S
C156 C162 1.483 . S
C157 H138 0.949 . S
C157 C156 1.376 . S
C157 C158 1.397 . S
C158 H139 0.950 . S
C158 C157 1.397 . S
C158 C159 1.391 . S
C159 C158 1.391 . S
C159 C160 1.405 . S
C160 H140 0.950 . S
C160 C159 1.405 . S
C160 C161 1.367 . S
C161 H141 0.950 . S
C161 C156 1.386 . S
C161 C160 1.367 . S
C162 C156 1.483 . S
C162 C163 1.382 . S
C162 C164 1.403 . S
C163 H142 0.950 . S
C163 C162 1.382 . S
C163 C179 1.411 . S
C164 C162 1.403 . S
C164 C165 1.489 . S
C164 C178 1.411 . S
C165 C164 1.489 . S
C165 C166 1.383 . S
C165 C170 1.382 . S
C166 H143 0.950 . S
C166 C165 1.383 . S
C166 C167 1.395 . S
C167 H144 0.950 . S
C167 C166 1.395 . S
C167 C168 1.288 . S
C168 C167 1.288 . S
C168 C169 1.392 . S
C169 H145 0.951 . S
C169 C168 1.392 . S
C169 C170 1.392 . S
C170 H146 0.949 . S
C170 C165 1.382 . S
C170 C169 1.392 . S
C171 C172 1.376 . S
C171 C176 1.386 . S
C171 C177 1.483 . S
C172 H147 0.949 . S
C172 C171 1.376 . S
C172 C173 1.397 . S
C173 H148 0.950 . S
C173 C172 1.397 . S
C173 C174 1.391 . S
C174 C173 1.391 . S
C174 C175 1.405 . S
C175 H149 0.950 . S
C175 C174 1.405 . S
C175 C176 1.367 . S
C176 H150 0.950 . S
C176 C171 1.386 . S
C176 C175 1.367 . S
C177 C171 1.483 . S
C177 C178 1.382 . S
C177 C179 1.403 . S
C178 H151 0.950 . S
C178 C164 1.411 . S
C178 C177 1.382 . S
C179 C163 1.411 . S
C179 C177 1.403 . S
C179 C180 1.489 . S
C180 C179 1.489 . S
C180 C181 1.383 . S
C180 C185 1.382 . S
C181 H152 0.950 . S
C181 C180 1.383 . S
C181 C182 1.395 . S
C182 H153 0.950 . S
C182 C181 1.395 . S
C182 C183 1.288 . S
C183 C182 1.288 . S
C183 C184 1.392 . S
C184 H154 0.951 . S
C184 C183 1.392 . S
C184 C185 1.392 . S
C185 H155 0.949 . S
C185 C180 1.382 . S
C185 C184 1.392 . S
H186 C198 0.930 1_655 S
H187 C200 0.930 . S
H188 C201 0.930 . S
H189 C205 0.959 . S
H190 C205 0.959 . S
H191 C205 0.961 . S
H192 C206 0.960 . S
H193 C206 0.961 . S
H194 C206 0.959 1_455 S
H195 C209 0.929 . S
H196 C210 0.931 . S
H197 C212 0.930 1_655 S
C198 H186 0.930 1_455 S
C198 C199 1.399 . S
C198 C203 1.399 . S
C199 C198 1.399 . S
C199 C200 1.376 . S
C200 H187 0.930 . S
C200 C199 1.376 . S
C200 C201 1.388 . S
C201 H188 0.930 . S
C201 C200 1.388 . S
C201 C202 1.390 . S
C202 C201 1.390 . S
C202 C203 1.394 . S
C202 C208 1.465 . S
C203 C198 1.399 . S
C203 C202 1.394 . S
C203 C204 1.516 1_455 S
C204 C203 1.516 1_655 S
C204 C205 1.502 . S
C204 C206 1.561 . S
C204 C207 1.526 1_655 S
C205 H189 0.959 . S
C205 H190 0.959 . S
C205 H191 0.961 . S
C205 C204 1.502 . S
C206 H192 0.960 . S
C206 H193 0.961 . S
C206 H194 0.959 1_655 S
C206 C204 1.561 . S
C207 C204 1.526 1_455 S
C207 C208 1.396 . S
C207 C212 1.390 . S
C208 C202 1.465 . S
C208 C207 1.396 . S
C208 C209 1.399 . S
C209 H195 0.929 . S
C209 C208 1.399 . S
C209 C210 1.385 . S
C210 H196 0.931 . S
C210 C209 1.385 . S
C210 C211 1.389 . S
C211 C210 1.389 . S
C211 C212 1.387 . S
C212 H197 0.930 1_455 S
C212 C207 1.390 . S
C212 C211 1.387 . S
H213 C225 0.923 1_565 S
H214 C227 0.930 . S
H215 C228 0.930 . S
H216 C232 0.959 1_545 S
H217 C232 0.959 . S
H218 C232 0.961 . S
H219 C233 0.960 . S
H220 C233 0.961 . S
H221 C233 0.959 . S
H222 C236 0.929 . S
H223 C237 0.931 . S
H224 C239 0.930 1_565 S
C225 H213 0.923 1_545 S
C225 C226 1.400 . S
C225 C230 1.405 . S
C226 C225 1.400 . S
C226 C227 1.376 . S
C227 H214 0.930 . S
C227 C226 1.376 . S
C227 C228 1.388 . S
C228 H215 0.930 . S
C228 C227 1.388 . S
C228 C229 1.390 . S
C229 C228 1.390 . S
C229 C230 1.394 . S
C229 C235 1.465 . S
C230 C225 1.405 . S
C230 C229 1.394 . S
C230 C231 1.516 1_545 S
C231 C230 1.516 1_565 S
C231 C232 1.502 . S
C231 C233 1.561 . S
C231 C234 1.526 1_565 S
C232 H216 0.959 1_565 S
C232 H217 0.959 . S
C232 H218 0.961 . S
C232 C231 1.502 . S
C233 H219 0.960 . S
C233 H220 0.961 . S
C233 H221 0.959 . S
C233 C231 1.561 . S
C234 C231 1.526 1_545 S
C234 C235 1.396 . S
C234 C239 1.390 . S
C235 C229 1.465 . S
C235 C234 1.396 . S
C235 C236 1.399 . S
C236 H222 0.929 . S
C236 C235 1.399 . S
C236 C237 1.385 . S
C237 H223 0.931 . S
C237 C236 1.385 . S
C237 C238 1.389 . S
C238 C237 1.389 . S
C238 C239 1.387 . S
C239 H224 0.930 1_545 S
C239 C234 1.390 . S
C239 C238 1.387 . S
H240 C252 0.930 . S
H241 C254 0.930 . S
H242 C255 0.930 . S
H243 C259 0.959 . S
H244 C259 0.959 . S
H245 C259 0.961 . S
H246 C260 0.960 . S
H247 C260 0.961 . S
H248 C260 0.959 . S
H249 C263 0.929 . S
H250 C264 0.931 . S
H251 C266 0.930 . S
C252 H240 0.930 . S
C252 C253 1.399 . S
C252 C257 1.399 . S
C253 C252 1.399 . S
C253 C254 1.376 . S
C254 H241 0.930 . S
C254 C253 1.376 . S
C254 C255 1.388 . S
C255 H242 0.930 . S
C255 C254 1.388 . S
C255 C256 1.390 . S
C256 C255 1.390 . S
C256 C257 1.394 . S
C256 C262 1.465 . S
C257 C252 1.399 . S
C257 C256 1.394 . S
C257 C258 1.516 . S
C258 C257 1.516 . S
C258 C259 1.502 . S
C258 C260 1.561 . S
C258 C261 1.526 . S
C259 H243 0.959 . S
C259 H244 0.959 . S
C259 H245 0.961 . S
C259 C258 1.502 . S
C260 H246 0.960 . S
C260 H247 0.961 . S
C260 H248 0.959 . S
C260 C258 1.561 . S
C261 C258 1.526 . S
C261 C262 1.396 . S
C261 C266 1.390 . S
C262 C256 1.465 . S
C262 C261 1.396 . S
C262 C263 1.399 . S
C263 H249 0.929 . S
C263 C262 1.399 . S
C263 C264 1.385 . S
C264 H250 0.931 . S
C264 C263 1.385 . S
C264 C265 1.389 . S
C265 C264 1.389 . S
C265 C266 1.387 . S
C266 H251 0.930 . S
C266 C261 1.390 . S
C266 C265 1.387 . S
H267 C279 0.930 . S
H268 C281 0.930 1_545 S
H269 C282 0.930 . S
H270 C286 0.959 . S
H271 C286 0.959 . S
H272 C286 0.961 . S
H273 C287 0.960 . S
H274 C287 0.961 . S
H275 C287 0.959 . S
H276 C290 0.929 . S
H277 C291 0.931 . S
H278 C293 0.930 . S
C279 H267 0.930 . S
C279 C280 1.399 . S
C279 C284 1.399 . S
C280 C279 1.399 . S
C280 C281 1.376 . S
C281 H268 0.930 1_565 S
C281 C280 1.376 . S
C281 C282 1.388 . S
C282 H269 0.930 . S
C282 C281 1.388 . S
C282 C283 1.390 . S
C283 C282 1.390 . S
C283 C284 1.394 . S
C283 C289 1.465 . S
C284 C279 1.399 . S
C284 C283 1.394 . S
C284 C285 1.516 . S
C285 C284 1.516 . S
C285 C286 1.502 1_455 S
C285 C287 1.561 . S
C285 C288 1.526 . S
C286 H270 0.959 . S
C286 H271 0.959 . S
C286 H272 0.961 . S
C286 C285 1.502 1_655 S
C287 H273 0.960 . S
C287 H274 0.961 . S
C287 H275 0.959 . S
C287 C285 1.561 . S
C288 C285 1.526 . S
C288 C289 1.396 . S
C288 C293 1.390 . S
C289 C283 1.465 . S
C289 C288 1.396 . S
C289 C290 1.399 . S
C290 H276 0.929 . S
C290 C289 1.399 . S
C290 C291 1.385 . S
C291 H277 0.931 . S
C291 C290 1.385 . S
C291 C292 1.389 . S
C292 C291 1.389 . S
C292 C293 1.387 . S
C293 H278 0.930 . S
C293 C288 1.390 . S
C293 C292 1.387 . S
H294 C306 0.930 . S
H295 C308 0.930 1_565 S
H296 C309 0.930 . S
H297 C313 0.959 . S
H298 C313 0.959 . S
H299 C313 0.961 . S
H300 C314 0.960 . S
H301 C314 0.961 . S
H302 C314 0.959 . S
H303 C317 0.929 . S
H304 C318 0.931 . S
H305 C320 0.930 . S
C306 H294 0.930 . S
C306 C307 1.399 . S
C306 C311 1.399 . S
C307 C306 1.399 . S
C307 C308 1.376 . S
C308 H295 0.930 1_545 S
C308 C307 1.376 . S
C308 C309 1.388 1_545 S
C309 H296 0.930 . S
C309 C308 1.388 1_565 S
C309 C310 1.390 1_565 S
C310 C309 1.390 1_545 S
C310 C311 1.394 . S
C310 C316 1.465 . S
C311 C306 1.399 . S
C311 C310 1.394 . S
C311 C312 1.516 . S
C312 C311 1.516 . S
C312 C313 1.502 . S
C312 C314 1.561 . S
C312 C315 1.526 . S
C313 H297 0.959 . S
C313 H298 0.959 . S
C313 H299 0.961 . S
C313 C312 1.502 . S
C314 H300 0.960 . S
C314 H301 0.961 . S
C314 H302 0.959 . S
C314 C312 1.561 . S
C315 C312 1.526 . S
C315 C316 1.396 . S
C315 C320 1.390 . S
C316 C310 1.465 . S
C316 C315 1.396 . S
C316 C317 1.399 1_545 S
C317 H303 0.929 . S
C317 C316 1.399 1_565 S
C317 C318 1.385 . S
C318 H304 0.931 . S
C318 C317 1.385 . S
C318 C319 1.389 1_565 S
C319 C318 1.389 1_545 S
C319 C320 1.387 . S
C320 H305 0.930 . S
C320 C315 1.390 . S
C320 C319 1.387 . S
H321 C333 0.930 . S
H322 C335 0.930 . S
H323 C336 0.930 . S
H324 C340 0.959 . S
H325 C340 0.959 . S
H326 C340 0.961 . S
H327 C341 0.960 . S
H328 C341 0.961 . S
H329 C341 0.959 . S
H330 C344 0.929 . S
H331 C345 0.931 . S
H332 C347 0.930 . S
C333 H321 0.930 . S
C333 C334 1.399 . S
C333 C338 1.399 . S
C334 C333 1.399 . S
C334 C335 1.376 . S
C335 H322 0.930 . S
C335 C334 1.376 . S
C335 C336 1.388 . S
C336 H323 0.930 . S
C336 C335 1.388 . S
C336 C337 1.390 . S
C337 C336 1.390 . S
C337 C338 1.394 . S
C337 C343 1.465 . S
C338 C333 1.399 . S
C338 C337 1.394 . S
C338 C339 1.516 . S
C339 C338 1.516 . S
C339 C340 1.502 . S
C339 C341 1.561 . S
C339 C342 1.526 . S
C340 H324 0.959 . S
C340 H325 0.959 . S
C340 H326 0.961 . S
C340 C339 1.502 . S
C341 H327 0.960 . S
C341 H328 0.961 . S
C341 H329 0.959 . S
C341 C339 1.561 . S
C342 C339 1.526 . S
C342 C343 1.396 . S
C342 C347 1.390 . S
C343 C337 1.465 . S
C343 C342 1.396 . S
C343 C344 1.399 . S
C344 H330 0.929 . S
C344 C343 1.399 . S
C344 C345 1.385 . S
C345 H331 0.931 . S
C345 C344 1.385 . S
C345 C346 1.389 . S
C346 C345 1.389 . S
C346 C347 1.387 . S
C347 H332 0.930 . S
C347 C342 1.390 . S
C347 C346 1.387 . S
H348 C360 0.953 . S
H349 C362 0.930 . S
H350 C363 0.930 . S
H351 C367 0.959 . S
H352 C367 0.959 . S
H353 C367 0.961 . S
H354 C368 0.960 . S
H355 C368 0.961 . S
H356 C368 0.959 . S
H357 C371 0.929 . S
H358 C372 0.931 . S
H359 C374 0.930 . S
C360 H348 0.953 . S
C360 C361 1.390 1_565 S
C360 C365 1.385 1_565 S
C361 C360 1.390 1_545 S
C361 C362 1.376 . S
C362 H349 0.930 . S
C362 C361 1.376 . S
C362 C363 1.388 . S
C363 H350 0.930 . S
C363 C362 1.388 . S
C363 C364 1.390 . S
C364 C363 1.390 . S
C364 C365 1.394 . S
C364 C370 1.465 . S
C365 C360 1.385 1_545 S
C365 C364 1.394 . S
C365 C366 1.516 1_545 S
C366 C365 1.516 1_565 S
C366 C367 1.502 . S
C366 C368 1.561 . S
C366 C369 1.526 1_565 S
C367 H351 0.959 . S
C367 H352 0.959 . S
C367 H353 0.961 . S
C367 C366 1.502 . S
C368 H354 0.960 . S
C368 H355 0.961 . S
C368 H356 0.959 . S
C368 C366 1.561 . S
C369 C366 1.526 1_545 S
C369 C370 1.396 . S
C369 C374 1.390 1_545 S
C370 C364 1.465 . S
C370 C369 1.396 . S
C370 C371 1.399 . S
C371 H357 0.929 . S
C371 C370 1.399 . S
C371 C372 1.385 . S
C372 H358 0.931 . S
C372 C371 1.385 . S
C372 C373 1.389 . S
C373 C372 1.389 . S
C373 C374 1.387 1_545 S
C374 H359 0.930 . S
C374 C369 1.390 1_565 S
C374 C373 1.387 1_565 S
H375 C387 0.930 . S
H376 C389 0.930 . S
H377 C390 0.930 . S
H378 C394 0.959 . S
H379 C394 0.959 . S
H380 C394 0.961 . S
H381 C395 0.960 . S
H382 C395 0.961 . S
H383 C395 0.959 . S
H384 C398 0.929 . S
H385 C399 0.931 . S
H386 C401 0.930 . S
C387 H375 0.930 . S
C387 C388 1.399 1_556 S
C387 C392 1.399 . S
C388 C387 1.399 1_554 S
C388 C389 1.376 . S
C389 H376 0.930 . S
C389 C388 1.376 . S
C389 C390 1.388 . S
C390 H377 0.930 . S
C390 C389 1.388 . S
C390 C391 1.390 1_554 S
C391 C390 1.390 1_556 S
C391 C392 1.394 . S
C391 C397 1.465 . S
C392 C387 1.399 . S
C392 C391 1.394 . S
C392 C393 1.516 . S
C393 C392 1.516 . S
C393 C394 1.502 . S
C393 C395 1.561 . S
C393 C396 1.526 . S
C394 H378 0.959 . S
C394 H379 0.959 . S
C394 H380 0.961 . S
C394 C393 1.502 . S
C395 H381 0.960 . S
C395 H382 0.961 . S
C395 H383 0.959 . S
C395 C393 1.561 . S
C396 C393 1.526 . S
C396 C397 1.396 . S
C396 C401 1.390 . S
C397 C391 1.465 . S
C397 C396 1.396 . S
C397 C398 1.399 . S
C398 H384 0.929 . S
C398 C397 1.399 . S
C398 C399 1.385 . S
C399 H385 0.931 . S
C399 C398 1.385 . S
C399 C400 1.389 . S
C400 C399 1.389 . S
C400 C401 1.387 . S
C401 H386 0.930 . S
C401 C396 1.390 . S
C401 C400 1.387 . S
H402 C414 0.930 . S
H403 C416 0.930 . S
H404 C417 0.930 . S
H405 C421 0.959 . S
H406 C421 0.959 . S
H407 C421 0.961 . S
H408 C422 0.960 . S
H409 C422 0.961 . S
H410 C422 0.959 . S
H411 C425 0.929 . S
H412 C426 0.931 . S
H413 C428 0.930 . S
C414 H402 0.930 . S
C414 C415 1.399 . S
C414 C419 1.399 . S
C415 C414 1.399 . S
C415 C416 1.376 . S
C416 H403 0.930 . S
C416 C415 1.376 . S
C416 C417 1.388 . S
C417 H404 0.930 . S
C417 C416 1.388 . S
C417 C418 1.390 . S
C418 C417 1.390 . S
C418 C419 1.394 . S
C418 C424 1.465 . S
C419 C414 1.399 . S
C419 C418 1.394 . S
C419 C420 1.516 . S
C420 C419 1.516 . S
C420 C421 1.502 1_455 S
C420 C422 1.561 . S
C420 C423 1.526 . S
C421 H405 0.959 . S
C421 H406 0.959 . S
C421 H407 0.961 . S
C421 C420 1.502 1_655 S
C422 H408 0.960 . S
C422 H409 0.961 . S
C422 H410 0.959 . S
C422 C420 1.561 . S
C423 C420 1.526 . S
C423 C424 1.396 . S
C423 C428 1.390 . S
C424 C418 1.465 . S
C424 C423 1.396 . S
C424 C425 1.399 . S
C425 H411 0.929 . S
C425 C424 1.399 . S
C425 C426 1.385 . S
C426 H412 0.931 . S
C426 C425 1.385 . S
C426 C427 1.389 . S
C427 C426 1.389 . S
C427 C428 1.387 . S
C428 H413 0.930 . S
C428 C423 1.390 . S
C428 C427 1.387 . S
H429 C441 0.930 . S
H430 C443 0.930 . S
H431 C444 0.930 . S
H432 C448 0.959 . S
H433 C448 0.959 . S
H434 C448 0.961 . S
H435 C449 0.960 . S
H436 C449 0.961 . S
H437 C449 0.959 . S
H438 C452 0.929 . S
H439 C453 0.931 . S
H440 C455 0.930 . S
C441 H429 0.930 . S
C441 C442 1.399 1_545 S
C441 C446 1.399 . S
C442 C441 1.399 1_565 S
C442 C443 1.376 . S
C443 H430 0.930 . S
C443 C442 1.376 . S
C443 C444 1.388 . S
C444 H431 0.930 . S
C444 C443 1.388 . S
C444 C445 1.390 . S
C445 C444 1.390 . S
C445 C446 1.394 1_565 S
C445 C451 1.465 . S
C446 C441 1.399 . S
C446 C445 1.394 1_545 S
C446 C447 1.516 . S
C447 C446 1.516 . S
C447 C448 1.502 . S
C447 C449 1.561 . S
C447 C450 1.526 . S
C448 H432 0.959 . S
C448 H433 0.959 . S
C448 H434 0.961 . S
C448 C447 1.502 . S
C449 H435 0.960 . S
C449 H436 0.961 . S
C449 H437 0.959 . S
C449 C447 1.561 . S
C450 C447 1.526 . S
C450 C451 1.396 1_545 S
C450 C455 1.390 . S
C451 C445 1.465 . S
C451 C450 1.396 1_565 S
C451 C452 1.399 . S
C452 H438 0.929 . S
C452 C451 1.399 . S
C452 C453 1.385 . S
C453 H439 0.931 . S
C453 C452 1.385 . S
C453 C454 1.389 1_565 S
C454 C453 1.389 1_545 S
C454 C455 1.387 . S
C455 H440 0.930 . S
C455 C450 1.390 . S
C455 C454 1.387 . S
H456 C468 0.930 . S
H457 C470 0.930 . S
H458 C471 0.930 . S
H459 C475 0.959 . S
H460 C475 0.959 . S
H461 C475 0.961 . S
H462 C476 0.960 . S
H463 C476 0.961 . S
H464 C476 0.959 . S
H465 C479 0.929 . S
H466 C480 0.931 . S
H467 C482 0.930 . S
C468 H456 0.930 . S
C468 C469 1.399 1_556 S
C468 C473 1.399 . S
C469 C468 1.399 1_554 S
C469 C470 1.376 . S
C470 H457 0.930 . S
C470 C469 1.376 . S
C470 C471 1.388 . S
C471 H458 0.930 . S
C471 C470 1.388 . S
C471 C472 1.390 1_554 S
C472 C471 1.390 1_556 S
C472 C473 1.394 . S
C472 C478 1.465 . S
C473 C468 1.399 . S
C473 C472 1.394 . S
C473 C474 1.516 . S
C474 C473 1.516 . S
C474 C475 1.502 . S
C474 C476 1.561 . S
C474 C477 1.526 . S
C475 H459 0.959 . S
C475 H460 0.959 . S
C475 H461 0.961 . S
C475 C474 1.502 . S
C476 H462 0.960 . S
C476 H463 0.961 . S
C476 H464 0.959 . S
C476 C474 1.561 . S
C477 C474 1.526 . S
C477 C478 1.396 . S
C477 C482 1.390 . S
C478 C472 1.465 . S
C478 C477 1.396 . S
C478 C479 1.399 . S
C479 H465 0.929 . S
C479 C478 1.399 . S
C479 C480 1.385 . S
C480 H466 0.931 . S
C480 C479 1.385 . S
C480 C481 1.389 . S
C481 C480 1.389 . S
C481 C482 1.387 . S
C482 H467 0.930 . S
C482 C477 1.390 . S
C482 C481 1.387 . S
H483 C495 0.930 . S
H484 C497 0.930 . S
H485 C498 0.930 1_655 S
H486 C502 0.959 . S
H487 C502 0.959 . S
H488 C502 0.961 . S
H489 C503 0.960 . S
H490 C503 0.961 . S
H491 C503 0.959 . S
H492 C506 0.929 1_655 S
H493 C507 0.931 1_655 S
H494 C509 0.930 . S
C495 H483 0.930 . S
C495 C496 1.399 . S
C495 C500 1.399 . S
C496 C495 1.399 . S
C496 C497 1.376 . S
C497 H484 0.930 . S
C497 C496 1.376 . S
C497 C498 1.388 . S
C498 H485 0.930 1_455 S
C498 C497 1.388 . S
C498 C499 1.390 . S
C499 C498 1.390 . S
C499 C500 1.394 . S
C499 C505 1.465 . S
C500 C495 1.399 . S
C500 C499 1.394 . S
C500 C501 1.516 . S
C501 C500 1.516 . S
C501 C502 1.502 . S
C501 C503 1.561 . S
C501 C504 1.526 . S
C502 H486 0.959 . S
C502 H487 0.959 . S
C502 H488 0.961 . S
C502 C501 1.502 . S
C503 H489 0.960 . S
C503 H490 0.961 . S
C503 H491 0.959 . S
C503 C501 1.561 . S
C504 C501 1.526 . S
C504 C505 1.396 . S
C504 C509 1.390 . S
C505 C499 1.465 . S
C505 C504 1.396 . S
C505 C506 1.399 . S
C506 H492 0.929 1_455 S
C506 C505 1.399 . S
C506 C507 1.385 . S
C507 H493 0.931 1_455 S
C507 C506 1.385 . S
C507 C508 1.389 . S
C508 C507 1.389 . S
C508 C509 1.387 . S
C509 H494 0.930 . S
C509 C504 1.390 . S
C509 C508 1.387 . S
C211 C63 1.346 . S
C199 C11 1.314 . S
C226 C25 1.374 . S
C238 C111 1.409 . S
C253 C41 1.426 . S
C265 C183 1.459 . S
C280 C7 1.368 . S
C292 C87 1.341 . S
C319 C135 1.435 . S
C307 C21 1.421 . S
C334 C36 1.365 . S
C346 C159 1.478 . S
C373 C120 1.409 . S
C361 C39 1.413 . S
C388 C8 1.400 1_655 S
C400 C174 1.470 . S
C427 C78 1.512 . S
C415 C22 1.460 . S
C454 C126 1.410 . S
C442 C35 1.417 . S
C481 C168 1.424 . S
C469 C13 1.431 . S
C496 C27 1.428 . S
C508 C72 1.488 . S
