# Generated by pormake.
# Topology rtl, (3,6)-cn, num edge types: 1
# Building blocks:
#     Node 0, Type 0, BuildingBlock: ESEHIV_clean_linker_0, # of connection points: 3
#     Node 1, Type 0, BuildingBlock: ESEHIV_clean_linker_0, # of connection points: 3
#     Node 2, Type 0, BuildingBlock: ESEHIV_clean_linker_0, # of connection points: 3
#     Node 3, Type 0, BuildingBlock: ESEHIV_clean_linker_0, # of connection points: 3
#     Node 4, Type 1, BuildingBlock: LEVNOQ01_clean_sbu_1, # of connection points: 6
#     Node 5, Type 1, BuildingBlock: LEVNOQ01_clean_sbu_1, # of connection points: 6
#     Edge 6, Type (0, 1), BuildingBlock: ZUJKAS_clean_linker_0, # of connection points: 2
#     Edge 7, Type (0, 1), BuildingBlock: ZUJKAS_clean_linker_0, # of connection points: 2
#     Edge 8, Type (0, 1), BuildingBlock: ZUJKAS_clean_linker_0, # of connection points: 2
#     Edge 9, Type (0, 1), BuildingBlock: ZUJKAS_clean_linker_0, # of connection points: 2
#     Edge 10, Type (0, 1), BuildingBlock: ZUJKAS_clean_linker_0, # of connection points: 2
#     Edge 11, Type (0, 1), BuildingBlock: ZUJKAS_clean_linker_0, # of connection points: 2
#     Edge 12, Type (0, 1), BuildingBlock: ZUJKAS_clean_linker_0, # of connection points: 2
#     Edge 13, Type (0, 1), BuildingBlock: ZUJKAS_clean_linker_0, # of connection points: 2
#     Edge 14, Type (0, 1), BuildingBlock: ZUJKAS_clean_linker_0, # of connection points: 2
#     Edge 15, Type (0, 1), BuildingBlock: ZUJKAS_clean_linker_0, # of connection points: 2
#     Edge 16, Type (0, 1), BuildingBlock: ZUJKAS_clean_linker_0, # of connection points: 2
#     Edge 17, Type (0, 1), BuildingBlock: ZUJKAS_clean_linker_0, # of connection points: 2
# Relax obj value: 0.026
# Max RMSD: 0.060
# Mean RMSD: 0.045
data_MOF--net-rtl--node1-LEVNOQ01_clean_sbu_1--node2-ESEHIV_clean_linker_0--edge1-ZUJKAS_clean_linker_0
_symmetry_space_group_name_H-M    P1
_symmetry_Int_Tables_number       1
_symmetry_cell_setting            triclinic
loop_
_symmetry_equiv_pos_as_xyz
'x, y, z'
_cell_length_a     37.985582
_cell_length_b     43.094476
_cell_length_c     30.29152
_cell_angle_alpha  89.971957
_cell_angle_beta   97.600302
_cell_angle_gamma 90.110362
loop_
_atom_site_label
_atom_site_type_symbol
_atom_site_fract_x
_atom_site_fract_y
_atom_site_fract_z
_atom_type_partial_charge
H0 H 0.22849 0.93562 0.07378 0.0
H1 H 0.28969 0.87185 0.16298 0.0
H2 H 0.28892 0.86353 0.02173 0.0
C3 C 0.24682 0.91637 0.07962 0.0
C4 C 0.25753 0.90082 0.04292 0.0
C5 C 0.25792 0.90602 0.1234 0.0
C6 C 0.28149 0.88071 0.12977 0.0
C7 C 0.29326 0.86556 0.09338 0.0
C8 C 0.2812 0.87587 0.05012 0.0
H9 H 0.70778 0.59735 0.57198 0.0
H10 H 0.76141 0.67001 0.50939 0.0
H11 H 0.7692 0.66559 0.65198 0.0
C12 C 0.72482 0.61764 0.57421 0.0
C13 C 0.73719 0.6299 0.61634 0.0
C14 C 0.73322 0.63188 0.5352 0.0
C15 C 0.7555 0.65807 0.53903 0.0
C16 C 0.76905 0.66995 0.58102 0.0
C17 C 0.76016 0.65557 0.61963 0.0
H18 H 0.7952 0.09092 0.0039 0.0
H19 H 0.74042 0.16185 0.06765 0.0
H20 H 0.73635 0.16097 0.92507 0.0
C21 C 0.77793 0.11101 0.00181 0.0
C22 C 0.76605 0.12393 0.95995 0.0
C23 C 0.76933 0.12486 0.04101 0.0
C24 C 0.74709 0.15102 0.0376 0.0
C25 C 0.73492 0.16431 0.99596 0.0
C26 C 0.74455 0.1505 0.95731 0.0
H27 H 0.28071 0.4282 0.50239 0.0
H28 H 0.21889 0.36033 0.56198 0.0
H29 H 0.21212 0.36584 0.4195 0.0
C30 C 0.26057 0.4102 0.49872 0.0
C31 C 0.247 0.39934 0.45599 0.0
C32 C 0.25069 0.39602 0.53701 0.0
C33 C 0.22634 0.37139 0.53241 0.0
C34 C 0.21252 0.36018 0.49017 0.0
C35 C 0.22235 0.37473 0.45214 0.0
O36 O 0.97978 0.07052 0.62209 0.0
Mg37 Mg 0.03258 0.06786 0.60908 0.0
O38 O 0.96666 0.02522 0.5894 0.0
Mg39 Mg 0.01017 0.01234 0.54387 0.0
O40 O 0.03479 0.06105 0.54315 0.0
O41 O 0.05365 0.10451 0.57895 0.0
O42 O 0.0551 0.00197 0.49712 0.0
O43 O 0.97113 0.02959 0.484 0.0
Mg44 Mg 0.00356 0.96395 0.4887 0.0
O45 O 0.98154 0.9636 0.54669 0.0
O46 O 0.05709 0.95146 0.49444 0.0
O47 O 0.98208 0.9939 0.43582 0.0
O48 O 0.97243 0.92672 0.49354 0.0
C49 C 0.06919 0.00784 0.63822 0.0
C50 C 0.95859 0.04803 0.61303 0.0
C51 C 0.04868 0.08851 0.54267 0.0
C52 C 0.07114 0.97723 0.48799 0.0
C53 C 0.96789 0.01942 0.44427 0.0
C54 C 0.96791 0.93717 0.53225 0.0
O55 O 0.06728 0.03665 0.64599 0.0
O56 O 0.05025 0.99527 0.60488 0.0
O57 O 0.52222 0.49809 0.14361 0.0
Mg58 Mg 0.5062 0.46531 0.09222 0.0
O59 O 0.53862 0.52881 0.09267 0.0
Mg60 Mg 0.49851 0.50707 0.03732 0.0
O61 O 0.53073 0.45916 0.03694 0.0
O62 O 0.54223 0.4311 0.09989 0.0
O63 O 0.45811 0.48613 0.98058 0.0
O64 O 0.5422 0.51273 0.98685 0.0
Mg65 Mg 0.49482 0.54785 0.98751 0.0
O66 O 0.46847 0.55754 0.03955 0.0
O67 O 0.47016 0.52154 0.9329 0.0
O68 O 0.54816 0.56242 0.9916 0.0
O69 O 0.4693 0.58788 0.97932 0.0
C70 C 0.43999 0.47252 0.09693 0.0
C71 C 0.53827 0.52223 0.13345 0.0
C72 C 0.54729 0.43651 0.05938 0.0
C73 C 0.45431 0.4968 0.94107 0.0
C74 C 0.55999 0.53692 0.98033 0.0
C75 C 0.46042 0.58351 0.01835 0.0
O76 O 0.45477 0.44749 0.08849 0.0
O77 O 0.45452 0.49804 0.0873 0.0
H78 H 0.1527 0.34717 0.43152 0.0
H79 H 0.12005 0.29779 0.42298 0.0
H80 H 0.19223 0.25837 0.53009 0.0
H81 H 0.22502 0.30716 0.53856 0.0
H82 H 0.14852 0.23623 0.40601 0.0
H83 H 0.09236 0.24294 0.5661 0.0
H84 H 0.11021 0.27648 0.54092 0.0
H85 H 0.13953 0.24874 0.57091 0.0
C86 C 0.16153 0.32795 0.45322 0.0
C87 C 0.19121 0.33116 0.48601 0.0
C88 C 0.14291 0.29984 0.44829 0.0
C89 C 0.15363 0.27463 0.47614 0.0
C90 C 0.18323 0.27775 0.50875 0.0
H91 H 0.11373 0.08731 0.51663 0.0
H92 H 0.13823 0.13227 0.48194 0.0
C93 C 0.2018 0.30572 0.5137 0.0
C94 C 0.13415 0.24484 0.4714 0.0
H95 H 0.0879 0.19441 0.52868 0.0
C96 C 0.13484 0.22717 0.43251 0.0
C97 C 0.11646 0.23319 0.50613 0.0
C98 C 0.11426 0.2514 0.54824 0.0
C99 C 0.11916 0.19754 0.42819 0.0
C100 C 0.10221 0.18578 0.46333 0.0
C101 C 0.10079 0.20377 0.50164 0.0
C102 C 0.08727 0.15418 0.46331 0.0
C103 C 0.12109 0.1787 0.38674 0.0
C104 C 0.05037 0.15057 0.46094 0.0
C105 C 0.03635 0.12473 0.48038 0.0
C106 C 0.05922 0.10258 0.50256 0.0
C107 C 0.09562 0.1039 0.49895 0.0
C108 C 0.10965 0.12968 0.47934 0.0
H109 H 0.13302 0.19199 0.36099 0.0
H110 H 0.13729 0.15761 0.39539 0.0
H111 H 0.09404 0.17091 0.37262 0.0
H112 H 0.03277 0.16942 0.44908 0.0
H113 H 0.00827 0.12437 0.48354 0.0
H114 H 0.35046 0.84922 0.05213 0.0
H115 H 0.38092 0.79902 0.05591 0.0
H116 H 0.31582 0.76718 0.15319 0.0
H117 H 0.28457 0.81683 0.14869 0.0
H118 H 0.41827 0.76423 0.12853 0.0
H119 H 0.29572 0.70499 0.04893 0.0
H120 H 0.30088 0.74661 0.04883 0.0
H121 H 0.29113 0.72707 0.09817 0.0
C122 C 0.3428 0.83156 0.07451 0.0
C123 C 0.31496 0.8369 0.09989 0.0
C124 C 0.36034 0.80301 0.07682 0.0
C125 C 0.35021 0.77932 0.10437 0.0
C126 C 0.32367 0.78508 0.13134 0.0
H127 H 0.42226 0.58393 0.09038 0.0
H128 H 0.3961 0.62995 0.12228 0.0
C129 C 0.30612 0.81358 0.12904 0.0
C130 C 0.36592 0.74803 0.1027 0.0
H131 H 0.34646 0.67412 0.0667 0.0
C132 C 0.40251 0.7444 0.11567 0.0
C133 C 0.34524 0.72227 0.08573 0.0
C134 C 0.30612 0.72529 0.06924 0.0
C135 C 0.41916 0.71578 0.11094 0.0
C136 C 0.39867 0.69033 0.09263 0.0
C137 C 0.36188 0.69358 0.0815 0.0
C138 C 0.41563 0.66245 0.07667 0.0
C139 C 0.45878 0.71325 0.12388 0.0
C140 C 0.43451 0.66568 0.04036 0.0
C141 C 0.44865 0.63985 0.02191 0.0
C142 C 0.44443 0.60999 0.03937 0.0
C143 C 0.42584 0.60663 0.07626 0.0
C144 C 0.41107 0.6328 0.0945 0.0
H145 H 0.46882 0.73113 0.14886 0.0
H146 H 0.46618 0.68991 0.13763 0.0
H147 H 0.47221 0.71684 0.09389 0.0
H148 H 0.43778 0.68828 0.02568 0.0
H149 H 0.46314 0.64346 0.99383 0.0
H150 H 0.75067 0.72485 0.54037 0.0
H151 H 0.78489 0.77333 0.54538 0.0
H152 H 0.86819 0.72916 0.63386 0.0
H153 H 0.83383 0.68056 0.62931 0.0
H154 H 0.81644 0.8071 0.63244 0.0
H155 H 0.91138 0.76649 0.51957 0.0
H156 H 0.86762 0.74987 0.51873 0.0
H157 H 0.90197 0.74051 0.56317 0.0
C158 C 0.77633 0.72553 0.5608 0.0
C159 C 0.78983 0.69906 0.58429 0.0
C160 C 0.79565 0.75319 0.56387 0.0
C161 C 0.82891 0.75467 0.59 0.0
C162 C 0.84247 0.72834 0.61363 0.0
H163 H 0.99223 0.89492 0.59459 0.0
H164 H 0.95735 0.85213 0.62024 0.0
C165 C 0.82292 0.70072 0.61103 0.0
C166 C 0.84995 0.78353 0.59125 0.0
H167 H 0.92079 0.8162 0.55059 0.0
C168 C 0.83943 0.80916 0.61487 0.0
C169 C 0.87964 0.78598 0.56796 0.0
C170 C 0.8909 0.7594 0.54061 0.0
C171 C 0.85813 0.83738 0.61588 0.0
C172 C 0.88777 0.83984 0.5924 0.0
C173 C 0.89835 0.81405 0.56914 0.0
C174 C 0.90688 0.86939 0.5882 0.0
C175 C 0.84614 0.86428 0.64193 0.0
C176 C 0.88979 0.89383 0.56333 0.0
C177 C 0.90969 0.91818 0.54875 0.0
C178 C 0.94676 0.91842 0.55921 0.0
C179 C 0.96354 0.89539 0.58705 0.0
C180 C 0.94369 0.87095 0.60146 0.0
H181 H 0.82907 0.85651 0.66693 0.0
H182 H 0.86929 0.87717 0.65924 0.0
H183 H 0.83048 0.88054 0.61867 0.0
H184 H 0.86155 0.89276 0.552 0.0
H185 H 0.89647 0.93546 0.52645 0.0
H186 H 0.74442 0.21418 0.05241 0.0
H187 H 0.71212 0.26296 0.04748 0.0
H188 H 0.64968 0.2323 0.92595 0.0
H189 H 0.68014 0.18226 0.93237 0.0
H190 H 0.70854 0.30706 0.98495 0.0
H191 H 0.57297 0.26096 0.99545 0.0
H192 H 0.61217 0.2373 0.00719 0.0
H193 H 0.594 0.24555 0.95055 0.0
C194 C 0.7232 0.21732 0.0252 0.0
C195 C 0.71465 0.19397 0.9931 0.0
C196 C 0.70508 0.24551 0.02208 0.0
C197 C 0.67824 0.25123 0.98658 0.0
C198 C 0.66982 0.22821 0.95412 0.0
H199 H 0.54334 0.4185 0.97202 0.0
H200 H 0.57788 0.37673 0.94266 0.0
C201 C 0.68761 0.19973 0.95756 0.0
C202 C 0.65958 0.28151 0.98399 0.0
H203 H 0.57878 0.31492 0.98899 0.0
C204 C 0.68009 0.30877 0.98528 0.0
C205 C 0.62241 0.28374 0.98416 0.0
C206 C 0.59907 0.25538 0.98464 0.0
C207 C 0.6647 0.33805 0.98894 0.0
C208 C 0.62789 0.34011 0.99097 0.0
C209 C 0.60701 0.31314 0.98693 0.0
C210 C 0.61151 0.36888 0.00506 0.0
C211 C 0.68806 0.36651 0.9924 0.0
C212 C 0.61953 0.37844 0.04944 0.0
C213 C 0.5996 0.40162 0.0663 0.0
C214 C 0.57149 0.41591 0.03895 0.0
C215 C 0.56494 0.40784 0.99368 0.0
C216 C 0.58457 0.38407 0.97694 0.0
H217 H 0.71331 0.36227 0.97861 0.0
H218 H 0.67412 0.38643 0.97463 0.0
H219 H 0.6947 0.37296 0.028 0.0
H220 H 0.63991 0.36671 0.07175 0.0
H221 H 0.60538 0.4076 0.10125 0.0
H222 H 0.28978 0.91393 0.20995 0.0
H223 H 0.26149 0.92886 0.2745 0.0
H224 H 0.16329 0.94569 0.18907 0.0
H225 H 0.19017 0.92813 0.12507 0.0
H226 H 0.23176 0.97974 0.29969 0.0
H227 H 0.12847 0.8881 0.2761 0.0
H228 H 0.16525 0.88907 0.24414 0.0
H229 H 0.12681 0.91308 0.2286 0.0
C230 C 0.26201 0.92037 0.20481 0.0
C231 C 0.24227 0.91926 0.16203 0.0
C232 C 0.24595 0.92923 0.24182 0.0
C233 C 0.20995 0.93761 0.23689 0.0
C234 C 0.19078 0.93836 0.194 0.0
H235 H 0.07956 0.01815 0.42147 0.0
H236 H 0.11699 0.01065 0.36216 0.0
C237 C 0.20654 0.92888 0.15713 0.0
C238 C 0.19242 0.94524 0.2766 0.0
H239 H 0.12123 0.92702 0.32995 0.0
C240 C 0.20763 0.96815 0.30629 0.0
C241 C 0.16119 0.92976 0.28573 0.0
C242 C 0.1447 0.90342 0.25721 0.0
C243 C 0.19205 0.97641 0.34418 0.0
C244 C 0.16038 0.96166 0.35228 0.0
C245 C 0.14537 0.93852 0.32314 0.0
C246 C 0.14256 0.96932 0.39139 0.0
C247 C 0.20958 0.00049 0.37586 0.0
C248 C 0.14536 0.94899 0.42779 0.0
C249 C 0.12406 0.95317 0.46153 0.0
C250 C 0.09973 0.97782 0.45945 0.0
C251 C 0.09862 -0.00066 0.42439 0.0
C252 C 0.11976 0.99497 0.39037 0.0
H253 H 0.23504 0.00894 0.36591 0.0
H254 H 0.19143 0.02053 0.37721 0.0
H255 H 0.21477 0.99057 0.40995 0.0
H256 H 0.16282 0.92907 0.42901 0.0
H257 H 0.12527 0.9362 0.48809 0.0
H258 H 0.77355 0.61431 0.69773 0.0
H259 H 0.74836 0.59412 0.76284 0.0
H260 H 0.64313 0.60003 0.68975 0.0
H261 H 0.66802 0.61965 0.62489 0.0
H262 H 0.69698 0.62092 0.81096 0.0
H263 H 0.64805 0.51008 0.73202 0.0
H264 H 0.67975 0.53451 0.70898 0.0
H265 H 0.63323 0.54393 0.70045 0.0
C266 C 0.74508 0.61116 0.69571 0.0
C267 C 0.72276 0.61792 0.65611 0.0
C268 C 0.73076 0.59967 0.73276 0.0
C269 C 0.69399 0.5949 0.73065 0.0
C270 C 0.67166 0.60262 0.6916 0.0
H271 H 0.53824 0.54076 0.89313 0.0
H272 H 0.57425 0.55299 0.83425 0.0
C273 C 0.68591 0.61382 0.65461 0.0
C274 C 0.67858 0.58222 0.76928 0.0
H275 H 0.62689 0.52331 0.80015 0.0
C276 C 0.68208 0.59935 0.80898 0.0
C277 C 0.65895 0.55421 0.76627 0.0
C278 C 0.65498 0.53445 0.72477 0.0
C279 C 0.6652 0.58984 0.84528 0.0
C280 C 0.6452 0.56197 0.84208 0.0
C281 C 0.64246 0.54451 0.80267 0.0
C282 C 0.62437 0.55186 0.87761 0.0
C283 C 0.66743 0.61054 0.88575 0.0
C284 C 0.64067 0.54623 0.92134 0.0
C285 C 0.61997 0.5395 0.95516 0.0
C286 C 0.58295 0.53754 0.94519 0.0
C287 C 0.5669 0.54158 0.90117 0.0
C288 C 0.58741 0.54872 0.86767 0.0
H289 H 0.67692 0.63424 0.87881 0.0
H290 H 0.64115 0.61251 0.89777 0.0
H291 H 0.6864 0.60041 0.91291 0.0
H292 H 0.66924 0.54784 0.92949 0.0
H293 H 0.63267 0.53682 0.98912 0.0
H294 H 0.74023 0.12036 0.11934 0.0
H295 H 0.77132 0.10927 0.19373 0.0
H296 H 0.86821 0.09339 0.1374 0.0
H297 H 0.83809 0.10611 0.06368 0.0
H298 H 0.80545 0.05882 0.22907 0.0
H299 H 0.9013 0.15571 0.23271 0.0
H300 H 0.86292 0.15277 0.19089 0.0
H301 H 0.90285 0.13156 0.18485 0.0
C302 C 0.76823 0.11474 0.12285 0.0
C303 C 0.78668 0.11441 0.08547 0.0
C304 C 0.78591 0.1083 0.16535 0.0
C305 C 0.82233 0.10141 0.17126 0.0
C306 C 0.84037 0.09961 0.13382 0.0
H307 H 0.97745 0.01925 0.35713 0.0
H308 H 0.94067 0.04449 0.29506 0.0
C309 C 0.82286 0.10631 0.09147 0.0
C310 C 0.84153 0.09537 0.21631 0.0
H311 H 0.91697 0.11433 0.2855 0.0
C312 C 0.82945 0.07134 0.24181 0.0
C313 C 0.87262 0.11202 0.23318 0.0
C314 C 0.88544 0.13967 0.20916 0.0
C315 C 0.84886 0.06225 0.28239 0.0
C316 C 0.88104 0.07761 0.2977 0.0
C317 C 0.89231 0.10255 0.27338 0.0
C318 C 0.90506 0.06573 0.33623 0.0
C319 C 0.83584 0.03536 0.30776 0.0
C320 C 0.8976 0.07011 0.37993 0.0
C321 C 0.91884 0.05596 0.4156 0.0
C322 C 0.94734 0.03688 0.40773 0.0
C323 C 0.95533 0.03347 0.36403 0.0
C324 C 0.93451 0.04798 0.32863 0.0
H325 H 0.81164 0.02439 0.28967 0.0
H326 H 0.85694 0.0175 0.31413 0.0
H327 H 0.82963 0.04362 0.34057 0.0
H328 H 0.87492 0.08382 0.38626 0.0
H329 H 0.91217 0.05897 0.44902 0.0
H330 H 0.28258 0.35683 0.60016 0.0
H331 H 0.31433 0.37003 0.67342 0.0
H332 H 0.29204 0.46694 0.64812 0.0
H333 H 0.26029 0.45388 0.57429 0.0
H334 H 0.37545 0.41686 0.68662 0.0
H335 H 0.25953 0.44239 0.77542 0.0
H336 H 0.25627 0.41769 0.72684 0.0
H337 H 0.25932 0.45896 0.72075 0.0
C338 C 0.2841 0.38093 0.61042 0.0
C339 C 0.26881 0.40436 0.58178 0.0
C340 C 0.30233 0.3884 0.65211 0.0
C341 C 0.30519 0.41936 0.66613 0.0
C342 C 0.28978 0.44287 0.63785 0.0
H343 H 0.41288 0.52642 0.87534 0.0
H344 H 0.37549 0.50376 0.8117 0.0
C345 C 0.27186 0.43544 0.59579 0.0
C346 C 0.32555 0.4271 0.7097 0.0
H347 H 0.31665 0.45379 0.81369 0.0
C348 C 0.36267 0.42461 0.71462 0.0
C349 C 0.30861 0.43703 0.74598 0.0
C350 C 0.26871 0.43906 0.74241 0.0
C351 C 0.38347 0.43293 0.75466 0.0
C352 C 0.36657 0.44354 0.79064 0.0
C353 C 0.3294 0.44534 0.78605 0.0
C354 C 0.3873 0.45629 0.83128 0.0
C355 C 0.42341 0.4316 0.75783 0.0
C356 C 0.40576 0.43692 0.86376 0.0
C357 C 0.42684 0.44986 0.90074 0.0
C358 C 0.43012 0.48224 0.9049 0.0
C359 C 0.41106 0.50138 0.87265 0.0
C360 C 0.38962 0.48852 0.83641 0.0
H361 H 0.43245 0.42505 0.72569 0.0
H362 H 0.43507 0.45449 0.76841 0.0
H363 H 0.4338 0.41433 0.78347 0.0
H364 H 0.4042 0.41193 0.86015 0.0
H365 H 0.44145 0.43469 0.92512 0.0
H366 H 0.6654 0.61015 0.51302 0.0
H367 H 0.63594 0.59561 0.43987 0.0
H368 H 0.73079 0.61796 0.38219 0.0
H369 H 0.76159 0.63031 0.4561 0.0
H370 H 0.62089 0.63225 0.36986 0.0
H371 H 0.70611 0.53561 0.32532 0.0
H372 H 0.70966 0.55129 0.38091 0.0
H373 H 0.72987 0.57115 0.33838 0.0
C374 C 0.68053 0.61109 0.48516 0.0
C375 C 0.71607 0.62127 0.49072 0.0
C376 C 0.6634 0.60314 0.44315 0.0
C377 C 0.68118 0.60551 0.40556 0.0
C378 C 0.71671 0.6154 0.41082 0.0
H379 H 0.59443 0.56162 0.12911 0.0
H380 H 0.62928 0.58857 0.1919 0.0
C381 C 0.73413 0.62289 0.45307 0.0
C382 C 0.66167 0.59895 0.36089 0.0
H383 H 0.66047 0.55214 0.26985 0.0
C384 C 0.62967 0.61483 0.34792 0.0
C385 C 0.67322 0.57632 0.33218 0.0
C386 C 0.70641 0.55739 0.34499 0.0
C387 C 0.60845 0.60808 0.30762 0.0
C388 C 0.61967 0.58505 0.27952 0.0
C389 C 0.65227 0.57006 0.29147 0.0
C390 C 0.59613 0.57321 0.24053 0.0
C391 C 0.57381 0.6251 0.29587 0.0
C392 C 0.56591 0.55611 0.24731 0.0
C393 C 0.54647 0.54043 0.21196 0.0
C394 C 0.5568 0.54173 0.16914 0.0
C395 C 0.58598 0.56022 0.16184 0.0
C396 C 0.60582 0.5756 0.19753 0.0
H397 H 0.57354 0.64738 0.31426 0.0
H398 H 0.56865 0.62985 0.25955 0.0
H399 H 0.55179 0.61045 0.30494 0.0
H400 H 0.55831 0.55372 0.28039 0.0
H401 H 0.52383 0.52662 0.21841 0.0
H402 H 0.76709 0.06343 0.93243 0.0
H403 H 0.79262 0.04307 0.86779 0.0
H404 H 0.82028 0.13607 0.83245 0.0
H405 H 0.79508 0.15648 0.89676 0.0
H406 H 0.77687 0.06222 0.77011 0.0
H407 H 0.91513 0.08336 0.8502 0.0
H408 H 0.87792 0.08138 0.8816 0.0
H409 H 0.88549 0.11579 0.85069 0.0
C410 C 0.77847 0.07946 0.91065 0.0
C411 C 0.77907 0.11151 0.91947 0.0
C412 C 0.79284 0.06786 0.87376 0.0
C413 C 0.8084 0.08811 0.84566 0.0
C414 C 0.80841 0.12012 0.8539 0.0
H415 H 0.91456 0.09625 0.62105 0.0
H416 H 0.87099 0.10023 0.67343 0.0
C417 C 0.79384 0.13174 0.89045 0.0
C418 C 0.82615 0.07596 0.80871 0.0
H419 H 0.90742 0.07117 0.77302 0.0
C420 C 0.80545 0.06372 0.77084 0.0
C421 C 0.86342 0.07789 0.81007 0.0
C422 C 0.88692 0.09007 0.85043 0.0
C423 C 0.82113 0.05461 0.73335 0.0
C424 C 0.85818 0.05768 0.73425 0.0
C425 C 0.87894 0.06881 0.77269 0.0
C426 C 0.8761 0.05237 0.69461 0.0
C427 C 0.7982 0.04277 0.69244 0.0
C428 C 0.89209 0.02371 0.68796 0.0
C429 C 0.91666 0.02125 0.65746 0.0
C430 C 0.92592 0.04765 0.63427 0.0
C431 C 0.90781 0.07562 0.63863 0.0
C432 C 0.88294 0.07791 0.66842 0.0
H433 H 0.76996 0.04017 0.69779 0.0
H434 H 0.79972 0.0591 0.66439 0.0
H435 H 0.80829 0.01998 0.68257 0.0
H436 H 0.88737 0.00389 0.70842 0.0
H437 H 0.93062 -0.00045 0.65499 0.0
H438 H 0.26433 0.45945 0.43658 0.0
H439 H 0.29293 0.47757 0.37315 0.0
H440 H 0.29116 0.3844 0.3214 0.0
H441 H 0.26391 0.36584 0.38502 0.0
H442 H 0.36333 0.44277 0.3464 0.0
H443 H 0.24394 0.45072 0.21855 0.0
H444 H 0.24153 0.45673 0.27716 0.0
H445 H 0.24755 0.41837 0.25666 0.0
C446 C 0.27003 0.44281 0.41172 0.0
C447 C 0.2616 0.41119 0.41589 0.0
C448 C 0.28621 0.45323 0.37548 0.0
C449 C 0.29389 0.43229 0.34267 0.0
C450 C 0.28506 0.40091 0.34625 0.0
H451 H 0.39537 0.42457 0.10794 0.0
H452 H 0.3585 0.418 0.16761 0.0
C453 C 0.26918 0.39043 0.38251 0.0
C454 C 0.31255 0.44269 0.30546 0.0
H455 H 0.29994 0.45718 0.19369 0.0
C456 C 0.34953 0.44642 0.31311 0.0
C457 C 0.29435 0.44689 0.26215 0.0
C458 C 0.2546 0.44314 0.25277 0.0
C459 C 0.36897 0.45365 0.27809 0.0
C460 C 0.35077 0.45776 0.23462 0.0
C461 C 0.31371 0.45434 0.22716 0.0
C462 C 0.37011 0.46348 0.19604 0.0
C463 C 0.40894 0.4555 0.28732 0.0
C464 C 0.38782 0.49169 0.19137 0.0
C465 C 0.40859 0.49571 0.15684 0.0
C466 C 0.41219 0.4714 0.12681 0.0
C467 C 0.39302 0.44375 0.13047 0.0
C468 C 0.37205 0.4399 0.16462 0.0
H469 H 0.41921 0.44753 0.32149 0.0
H470 H 0.42114 0.44118 0.26293 0.0
H471 H 0.41755 0.47988 0.2836 0.0
H472 H 0.38638 0.51023 0.2152 0.0
H473 H 0.42336 0.51711 0.15522 0.0
H474 H 0.25106 0.95756 0.00163 0.0
H475 H 0.22132 0.96894 0.92616 0.0
H476 H 0.19603 0.87196 0.90645 0.0
H477 H 0.22573 0.86042 0.9814 0.0
H478 H 0.23626 0.93095 0.83716 0.0
H479 H 0.09951 0.92981 0.8853 0.0
H480 H 0.13773 0.9402 0.92458 0.0
H481 H 0.13092 0.9006 0.90755 0.0
C482 C 0.23923 0.93874 0.98105 0.0
C483 C 0.24085 0.90812 0.99711 0.0
C484 C 0.22241 0.94521 0.93809 0.0
C485 C 0.20658 0.92122 0.91104 0.0
C486 C 0.20822 0.89069 0.92693 0.0
H487 H 0.06331 0.94639 0.66094 0.0
H488 H 0.09935 0.91917 0.72261 0.0
C489 C 0.2253 0.88416 0.96956 0.0
C490 C 0.18771 0.92809 0.86636 0.0
H491 H 0.105 0.94071 0.81052 0.0
C492 C 0.20756 0.93291 0.83112 0.0
C493 C 0.15031 0.93005 0.85872 0.0
C494 C 0.12811 0.92501 0.89589 0.0
C495 C 0.19087 0.94052 0.78837 0.0
C496 C 0.1535 0.94394 0.78112 0.0
C497 C 0.13361 0.9379 0.81608 0.0
C498 C 0.13503 0.95784 0.73974 0.0
C499 C 0.2134 0.94516 0.75145 0.0
C500 C 0.14347 0.98829 0.72874 0.0
C501 C 0.12297 0.00377 0.69413 0.0
C502 C 0.0935 0.98917 0.6697 0.0
C503 C 0.086 0.9581 0.67911 0.0
C504 C 0.10646 0.94262 0.71431 0.0
H505 H 0.23844 0.93163 0.75766 0.0
H506 H 0.19888 0.93824 0.71868 0.0
H507 H 0.22063 0.97006 0.74981 0.0
H508 H 0.1649 0.00071 0.7484 0.0
H509 H 0.12951 0.02766 0.68749 0.0
loop_
_geom_bond_atom_site_label_1
_geom_bond_atom_site_label_2
_geom_bond_distance
_geom_bond_site_symmetry_2
_ccdc_geom_bond_type
H0 C3 0.931 . S
H1 C6 0.928 . S
H2 C8 0.930 . S
C3 H0 0.931 . S
C3 C4 1.413 . S
C3 C5 1.360 . S
C4 C3 1.413 . S
C4 C8 1.429 . S
C5 C3 1.360 . S
C5 C6 1.372 . S
C6 H1 0.928 . S
C6 C5 1.372 . S
C6 C7 1.404 . S
C7 C6 1.404 . S
C7 C8 1.391 . S
C8 H2 0.930 . S
C8 C4 1.429 . S
C8 C7 1.391 . S
H9 C12 0.931 . S
H10 C15 0.928 . S
H11 C17 0.930 . S
C12 H9 0.931 . S
C12 C13 1.413 . S
C12 C14 1.360 . S
C13 C12 1.413 . S
C13 C17 1.429 . S
C14 C12 1.360 . S
C14 C15 1.372 . S
C15 H10 0.928 . S
C15 C14 1.372 . S
C15 C16 1.404 . S
C16 C15 1.404 . S
C16 C17 1.391 . S
C17 H11 0.930 . S
C17 C13 1.429 . S
C17 C16 1.391 . S
H18 C21 0.931 . S
H19 C24 0.928 . S
H20 C26 0.930 . S
C21 H18 0.931 . S
C21 C22 1.413 1_554 S
C21 C23 1.360 . S
C22 C21 1.413 1_556 S
C22 C26 1.429 . S
C23 C21 1.360 . S
C23 C24 1.372 . S
C24 H19 0.928 . S
C24 C23 1.372 . S
C24 C25 1.392 1_554 S
C25 C24 1.392 1_556 S
C25 C26 1.404 . S
C26 H20 0.930 . S
C26 C22 1.429 . S
C26 C25 1.404 . S
H27 C30 0.931 . S
H28 C33 0.928 . S
H29 C35 0.930 . S
C30 H27 0.931 . S
C30 C31 1.413 . S
C30 C32 1.360 . S
C31 C30 1.413 . S
C31 C35 1.429 . S
C32 C30 1.360 . S
C32 C33 1.372 . S
C33 H28 0.928 . S
C33 C32 1.372 . S
C33 C34 1.404 . S
C34 C33 1.404 . S
C34 C35 1.391 . S
C35 H29 0.930 . S
C35 C31 1.429 . S
C35 C34 1.391 . S
O36 Mg37 1.990 1_655 S
O36 C50 1.253 . S
Mg37 O36 1.990 1_455 S
Mg37 O40 2.180 . S
Mg37 O41 2.117 . S
Mg37 O55 2.030 . S
O38 Mg39 2.072 1_655 S
O38 C50 1.260 . S
Mg39 O38 2.072 1_455 S
Mg39 O40 2.099 . S
Mg39 O42 2.079 1_545 S
Mg39 O43 2.072 1_455 S
Mg39 O45 2.099 1_445 S
Mg39 O56 2.079 1_545 S
O40 Mg37 2.180 . S
O40 Mg39 2.099 . S
O40 C51 1.279 . S
O41 Mg37 2.117 . S
O41 C51 1.250 . S
O42 Mg39 2.079 1_565 S
O42 C52 1.264 . S
O43 Mg39 2.072 1_655 S
O43 C53 1.260 . S
Mg44 O45 2.180 . S
Mg44 O46 2.030 1_655 S
Mg44 O47 1.990 1_565 S
Mg44 O48 2.117 . S
O45 Mg39 2.099 1_665 S
O45 Mg44 2.180 . S
O45 C54 1.279 . S
O46 Mg44 2.030 1_455 S
O46 C52 1.248 . S
O47 Mg44 1.990 1_545 S
O47 C53 1.253 . S
O48 Mg44 2.117 . S
O48 C54 1.250 . S
C49 O55 1.248 1_565 S
C49 O56 1.264 . S
C50 O36 1.253 . S
C50 O38 1.260 . S
C51 O40 1.279 . S
C51 O41 1.250 . S
C52 O42 1.264 . S
C52 O46 1.248 . S
C53 O43 1.260 . S
C53 O47 1.253 . S
C54 O45 1.279 . S
C54 O48 1.250 . S
O55 Mg37 2.030 . S
O55 C49 1.248 1_545 S
O56 Mg39 2.079 1_565 S
O56 C49 1.264 . S
O57 Mg58 1.990 . S
O57 C71 1.253 . S
Mg58 O57 1.990 . S
Mg58 O61 2.180 . S
Mg58 O62 2.117 . S
Mg58 O76 2.030 . S
O59 Mg60 2.072 . S
O59 C71 1.260 . S
Mg60 O59 2.072 . S
Mg60 O61 2.099 . S
Mg60 O63 2.079 1_554 S
Mg60 O64 2.072 1_554 S
Mg60 O66 2.099 . S
Mg60 O77 2.079 . S
O61 Mg58 2.180 . S
O61 Mg60 2.099 . S
O61 C72 1.279 . S
O62 Mg58 2.117 . S
O62 C72 1.250 . S
O63 Mg60 2.079 1_556 S
O63 C73 1.264 . S
O64 Mg60 2.072 1_556 S
O64 C74 1.260 . S
Mg65 O66 2.180 1_556 S
Mg65 O67 2.030 . S
Mg65 O68 1.990 . S
Mg65 O69 2.116 . S
O66 Mg60 2.099 . S
O66 Mg65 2.180 1_554 S
O66 C75 1.279 . S
O67 Mg65 2.030 . S
O67 C73 1.248 . S
O68 Mg65 1.990 . S
O68 C74 1.253 . S
O69 Mg65 2.116 . S
O69 C75 1.252 1_556 S
C70 O76 1.248 . S
C70 O77 1.264 . S
C71 O57 1.253 . S
C71 O59 1.260 . S
C72 O61 1.279 . S
C72 O62 1.250 . S
C73 O63 1.264 . S
C73 O67 1.248 . S
C74 O64 1.260 . S
C74 O68 1.253 . S
C75 O66 1.279 . S
C75 O69 1.252 1_554 S
O76 Mg58 2.030 . S
O76 C70 1.248 . S
O77 Mg60 2.079 . S
O77 C70 1.264 . S
H78 C86 0.929 . S
H79 C88 0.930 . S
H80 C90 0.930 . S
H81 C93 0.929 . S
H82 C96 0.930 . S
H83 C98 0.960 . S
H84 C98 0.960 . S
H85 C98 0.960 . S
C86 H78 0.929 . S
C86 C87 1.377 . S
C86 C88 1.384 . S
C87 C86 1.377 . S
C87 C93 1.390 . S
C88 H79 0.930 . S
C88 C86 1.384 . S
C88 C89 1.372 . S
C89 C88 1.372 . S
C89 C90 1.400 . S
C89 C94 1.490 . S
C90 H80 0.930 . S
C90 C89 1.400 . S
C90 C93 1.386 . S
H91 C107 0.930 . S
H92 C108 0.931 . S
C93 H81 0.929 . S
C93 C87 1.390 . S
C93 C90 1.386 . S
C94 C89 1.490 . S
C94 C96 1.395 . S
C94 C97 1.403 . S
H95 C101 0.930 . S
C96 H82 0.930 . S
C96 C94 1.395 . S
C96 C99 1.403 . S
C97 C94 1.403 . S
C97 C98 1.524 . S
C97 C101 1.400 . S
C98 H83 0.960 . S
C98 H84 0.960 . S
C98 H85 0.960 . S
C98 C97 1.524 . S
C99 C96 1.403 . S
C99 C100 1.392 . S
C99 C103 1.495 . S
C100 C99 1.392 . S
C100 C101 1.385 . S
C100 C102 1.478 . S
C101 H95 0.930 . S
C101 C97 1.400 . S
C101 C100 1.385 . S
C102 C100 1.478 . S
C102 C104 1.381 . S
C102 C108 1.383 . S
C103 C99 1.495 . S
C103 H109 0.959 . S
C103 H110 0.961 . S
C103 H111 0.960 . S
C104 C102 1.381 . S
C104 C105 1.394 . S
C104 H112 0.930 . S
C105 C104 1.394 . S
C105 C106 1.383 . S
C105 H113 0.929 . S
C106 C105 1.383 . S
C106 C107 1.377 . S
C107 H91 0.930 . S
C107 C106 1.377 . S
C107 C108 1.379 . S
C108 H92 0.931 . S
C108 C102 1.383 . S
C108 C107 1.379 . S
H109 C103 0.959 . S
H110 C103 0.961 . S
H111 C103 0.960 . S
H112 C104 0.930 . S
H113 C105 0.929 . S
H114 C122 0.929 . S
H115 C124 0.930 . S
H116 C126 0.930 . S
H117 C129 0.929 . S
H118 C132 0.930 . S
H119 C134 0.960 . S
H120 C134 0.960 . S
H121 C134 0.960 . S
C122 H114 0.929 . S
C122 C123 1.377 . S
C122 C124 1.384 . S
C123 C122 1.377 . S
C123 C129 1.390 . S
C124 H115 0.930 . S
C124 C122 1.384 . S
C124 C125 1.372 . S
C125 C124 1.372 . S
C125 C126 1.400 . S
C125 C130 1.490 . S
C126 H116 0.930 . S
C126 C125 1.400 . S
C126 C129 1.386 . S
H127 C143 0.930 . S
H128 C144 0.931 . S
C129 H117 0.929 . S
C129 C123 1.390 . S
C129 C126 1.386 . S
C130 C125 1.490 . S
C130 C132 1.395 . S
C130 C133 1.403 . S
H131 C137 0.930 . S
C132 H118 0.930 . S
C132 C130 1.395 . S
C132 C135 1.403 . S
C133 C130 1.403 . S
C133 C134 1.524 . S
C133 C137 1.400 . S
C134 H119 0.960 . S
C134 H120 0.960 . S
C134 H121 0.960 . S
C134 C133 1.524 . S
C135 C132 1.403 . S
C135 C136 1.392 . S
C135 C139 1.495 . S
C136 C135 1.392 . S
C136 C137 1.385 . S
C136 C138 1.478 . S
C137 H131 0.930 . S
C137 C133 1.400 . S
C137 C136 1.385 . S
C138 C136 1.478 . S
C138 C140 1.381 . S
C138 C144 1.383 . S
C139 C135 1.495 . S
C139 H145 0.959 . S
C139 H146 0.961 . S
C139 H147 0.960 . S
C140 C138 1.381 . S
C140 C141 1.394 . S
C140 H148 0.930 . S
C141 C140 1.394 . S
C141 C142 1.383 . S
C141 H149 0.929 . S
C142 C141 1.383 . S
C142 C143 1.377 . S
C143 H127 0.930 . S
C143 C142 1.377 . S
C143 C144 1.379 . S
C144 H128 0.931 . S
C144 C138 1.383 . S
C144 C143 1.379 . S
H145 C139 0.959 . S
H146 C139 0.961 . S
H147 C139 0.960 . S
H148 C140 0.930 . S
H149 C141 0.929 . S
H150 C158 0.929 . S
H151 C160 0.930 . S
H152 C162 0.930 . S
H153 C165 0.929 . S
H154 C168 0.930 . S
H155 C170 0.960 . S
H156 C170 0.960 . S
H157 C170 0.960 . S
C158 H150 0.929 . S
C158 C159 1.377 . S
C158 C160 1.384 . S
C159 C158 1.377 . S
C159 C165 1.390 . S
C160 H151 0.930 . S
C160 C158 1.384 . S
C160 C161 1.372 . S
C161 C160 1.372 . S
C161 C162 1.400 . S
C161 C166 1.490 . S
C162 H152 0.930 . S
C162 C161 1.400 . S
C162 C165 1.386 . S
H163 C179 0.930 . S
H164 C180 0.931 . S
C165 H153 0.929 . S
C165 C159 1.390 . S
C165 C162 1.386 . S
C166 C161 1.490 . S
C166 C168 1.395 . S
C166 C169 1.403 . S
H167 C173 0.930 . S
C168 H154 0.930 . S
C168 C166 1.395 . S
C168 C171 1.403 . S
C169 C166 1.403 . S
C169 C170 1.524 . S
C169 C173 1.400 . S
C170 H155 0.960 . S
C170 H156 0.960 . S
C170 H157 0.960 . S
C170 C169 1.524 . S
C171 C168 1.403 . S
C171 C172 1.392 . S
C171 C175 1.495 . S
C172 C171 1.392 . S
C172 C173 1.385 . S
C172 C174 1.478 . S
C173 H167 0.930 . S
C173 C169 1.400 . S
C173 C172 1.385 . S
C174 C172 1.478 . S
C174 C176 1.381 . S
C174 C180 1.383 . S
C175 C171 1.495 . S
C175 H181 0.959 . S
C175 H182 0.961 . S
C175 H183 0.960 . S
C176 C174 1.381 . S
C176 C177 1.394 . S
C176 H184 0.930 . S
C177 C176 1.394 . S
C177 C178 1.383 . S
C177 H185 0.929 . S
C178 C177 1.383 . S
C178 C179 1.377 . S
C179 H163 0.930 . S
C179 C178 1.377 . S
C179 C180 1.379 . S
C180 H164 0.931 . S
C180 C174 1.383 . S
C180 C179 1.379 . S
H181 C175 0.959 . S
H182 C175 0.961 . S
H183 C175 0.960 . S
H184 C176 0.930 . S
H185 C177 0.929 . S
H186 C194 0.929 . S
H187 C196 0.930 . S
H188 C198 0.930 . S
H189 C201 0.929 . S
H190 C204 0.930 . S
H191 C206 0.959 . S
H192 C206 0.960 . S
H193 C206 0.960 1_556 S
C194 H186 0.929 . S
C194 C195 1.386 . S
C194 C196 1.384 . S
C195 C194 1.386 . S
C195 C201 1.383 1_554 S
C196 H187 0.930 . S
C196 C194 1.384 . S
C196 C197 1.372 . S
C197 C196 1.372 . S
C197 C198 1.400 1_554 S
C197 C202 1.490 . S
C198 H188 0.930 . S
C198 C197 1.400 1_556 S
C198 C201 1.386 . S
H199 C215 0.930 . S
H200 C216 0.931 . S
C201 H189 0.929 . S
C201 C195 1.383 1_556 S
C201 C198 1.386 . S
C202 C197 1.490 . S
C202 C204 1.395 . S
C202 C205 1.403 . S
H203 C209 0.930 . S
C204 H190 0.930 . S
C204 C202 1.395 . S
C204 C207 1.403 . S
C205 C202 1.403 . S
C205 C206 1.524 . S
C205 C209 1.400 . S
C206 H191 0.959 . S
C206 H192 0.960 . S
C206 H193 0.960 1_554 S
C206 C205 1.524 . S
C207 C204 1.403 . S
C207 C208 1.392 . S
C207 C211 1.495 . S
C208 C207 1.392 . S
C208 C209 1.385 . S
C208 C210 1.478 . S
C209 H203 0.930 . S
C209 C205 1.400 . S
C209 C208 1.385 . S
C210 C208 1.478 . S
C210 C212 1.381 . S
C210 C216 1.383 1_554 S
C211 C207 1.495 . S
C211 H217 0.959 . S
C211 H218 0.961 . S
C211 H219 0.960 . S
C212 C210 1.381 . S
C212 C213 1.394 . S
C212 H220 0.930 . S
C213 C212 1.394 . S
C213 C214 1.383 . S
C213 H221 0.929 . S
C214 C213 1.383 . S
C214 C215 1.377 1_554 S
C215 H199 0.930 . S
C215 C214 1.377 1_556 S
C215 C216 1.379 . S
C216 H200 0.931 . S
C216 C210 1.383 1_556 S
C216 C215 1.379 . S
H217 C211 0.959 . S
H218 C211 0.961 . S
H219 C211 0.960 . S
H220 C212 0.930 . S
H221 C213 0.929 . S
H222 C230 0.929 . S
H223 C232 0.930 . S
H224 C234 0.930 . S
H225 C237 0.929 . S
H226 C240 0.930 . S
H227 C242 0.960 . S
H228 C242 0.960 . S
H229 C242 0.960 . S
C230 H222 0.929 . S
C230 C231 1.377 . S
C230 C232 1.384 . S
C231 C230 1.377 . S
C231 C237 1.390 . S
C232 H223 0.930 . S
C232 C230 1.384 . S
C232 C233 1.372 . S
C233 C232 1.372 . S
C233 C234 1.400 . S
C233 C238 1.490 . S
C234 H224 0.930 . S
C234 C233 1.400 . S
C234 C237 1.386 . S
H235 C251 0.930 1_545 S
H236 C252 0.931 . S
C237 H225 0.929 . S
C237 C231 1.390 . S
C237 C234 1.386 . S
C238 C233 1.490 . S
C238 C240 1.395 . S
C238 C241 1.403 . S
H239 C245 0.930 . S
C240 H226 0.930 . S
C240 C238 1.395 . S
C240 C243 1.403 . S
C241 C238 1.403 . S
C241 C242 1.524 . S
C241 C245 1.400 . S
C242 H227 0.960 . S
C242 H228 0.960 . S
C242 H229 0.960 . S
C242 C241 1.524 . S
C243 C240 1.403 . S
C243 C244 1.392 . S
C243 C247 1.495 . S
C244 C243 1.392 . S
C244 C245 1.385 . S
C244 C246 1.478 . S
C245 H239 0.930 . S
C245 C241 1.400 . S
C245 C244 1.385 . S
C246 C244 1.478 . S
C246 C248 1.381 . S
C246 C252 1.383 . S
C247 C243 1.495 . S
C247 H253 0.959 . S
C247 H254 0.961 1_565 S
C247 H255 0.960 . S
C248 C246 1.381 . S
C248 C249 1.394 . S
C248 H256 0.930 . S
C249 C248 1.394 . S
C249 C250 1.383 . S
C249 H257 0.929 . S
C250 C249 1.383 . S
C250 C251 1.377 . S
C251 H235 0.930 1_565 S
C251 C250 1.377 . S
C251 C252 1.379 . S
C252 H236 0.931 . S
C252 C246 1.383 . S
C252 C251 1.379 . S
H253 C247 0.959 . S
H254 C247 0.961 1_545 S
H255 C247 0.960 . S
H256 C248 0.930 . S
H257 C249 0.929 . S
H258 C266 0.929 . S
H259 C268 0.930 . S
H260 C270 0.930 . S
H261 C273 0.929 . S
H262 C276 0.930 . S
H263 C278 0.960 . S
H264 C278 0.960 . S
H265 C278 0.960 . S
C266 H258 0.929 . S
C266 C267 1.377 . S
C266 C268 1.384 . S
C267 C266 1.377 . S
C267 C273 1.390 . S
C268 H259 0.930 . S
C268 C266 1.384 . S
C268 C269 1.372 . S
C269 C268 1.372 . S
C269 C270 1.400 . S
C269 C274 1.490 . S
C270 H260 0.930 . S
C270 C269 1.400 . S
C270 C273 1.386 . S
H271 C287 0.930 . S
H272 C288 0.931 . S
C273 H261 0.929 . S
C273 C267 1.390 . S
C273 C270 1.386 . S
C274 C269 1.490 . S
C274 C276 1.395 . S
C274 C277 1.403 . S
H275 C281 0.930 . S
C276 H262 0.930 . S
C276 C274 1.395 . S
C276 C279 1.403 . S
C277 C274 1.403 . S
C277 C278 1.524 . S
C277 C281 1.400 . S
C278 H263 0.960 . S
C278 H264 0.960 . S
C278 H265 0.960 . S
C278 C277 1.524 . S
C279 C276 1.403 . S
C279 C280 1.392 . S
C279 C283 1.495 . S
C280 C279 1.392 . S
C280 C281 1.385 . S
C280 C282 1.478 . S
C281 H275 0.930 . S
C281 C277 1.400 . S
C281 C280 1.385 . S
C282 C280 1.478 . S
C282 C284 1.381 . S
C282 C288 1.383 . S
C283 C279 1.495 . S
C283 H289 0.959 . S
C283 H290 0.961 . S
C283 H291 0.960 . S
C284 C282 1.381 . S
C284 C285 1.394 . S
C284 H292 0.930 . S
C285 C284 1.394 . S
C285 C286 1.383 . S
C285 H293 0.929 . S
C286 C285 1.383 . S
C286 C287 1.377 . S
C287 H271 0.930 . S
C287 C286 1.377 . S
C287 C288 1.379 . S
C288 H272 0.931 . S
C288 C282 1.383 . S
C288 C287 1.379 . S
H289 C283 0.959 . S
H290 C283 0.961 . S
H291 C283 0.960 . S
H292 C284 0.930 . S
H293 C285 0.929 . S
H294 C302 0.929 . S
H295 C304 0.930 . S
H296 C306 0.930 . S
H297 C309 0.929 . S
H298 C312 0.930 . S
H299 C314 0.960 . S
H300 C314 0.960 . S
H301 C314 0.960 . S
C302 H294 0.929 . S
C302 C303 1.377 . S
C302 C304 1.384 . S
C303 C302 1.377 . S
C303 C309 1.390 . S
C304 H295 0.930 . S
C304 C302 1.384 . S
C304 C305 1.372 . S
C305 C304 1.372 . S
C305 C306 1.400 . S
C305 C310 1.490 . S
C306 H296 0.930 . S
C306 C305 1.400 . S
C306 C309 1.386 . S
H307 C323 0.930 . S
H308 C324 0.931 . S
C309 H297 0.929 . S
C309 C303 1.390 . S
C309 C306 1.386 . S
C310 C305 1.490 . S
C310 C312 1.395 . S
C310 C313 1.403 . S
H311 C317 0.930 . S
C312 H298 0.930 . S
C312 C310 1.395 . S
C312 C315 1.403 . S
C313 C310 1.403 . S
C313 C314 1.524 . S
C313 C317 1.400 . S
C314 H299 0.960 . S
C314 H300 0.960 . S
C314 H301 0.960 . S
C314 C313 1.524 . S
C315 C312 1.403 . S
C315 C316 1.392 . S
C315 C319 1.495 . S
C316 C315 1.392 . S
C316 C317 1.385 . S
C316 C318 1.478 . S
C317 H311 0.930 . S
C317 C313 1.400 . S
C317 C316 1.385 . S
C318 C316 1.478 . S
C318 C320 1.381 . S
C318 C324 1.383 . S
C319 C315 1.495 . S
C319 H325 0.959 . S
C319 H326 0.961 . S
C319 H327 0.960 . S
C320 C318 1.381 . S
C320 C321 1.394 . S
C320 H328 0.930 . S
C321 C320 1.394 . S
C321 C322 1.383 . S
C321 H329 0.929 . S
C322 C321 1.383 . S
C322 C323 1.377 . S
C323 H307 0.930 . S
C323 C322 1.377 . S
C323 C324 1.379 . S
C324 H308 0.931 . S
C324 C318 1.383 . S
C324 C323 1.379 . S
H325 C319 0.959 . S
H326 C319 0.961 . S
H327 C319 0.960 . S
H328 C320 0.930 . S
H329 C321 0.929 . S
H330 C338 0.929 . S
H331 C340 0.930 . S
H332 C342 0.930 . S
H333 C345 0.929 . S
H334 C348 0.930 . S
H335 C350 0.960 . S
H336 C350 0.960 . S
H337 C350 0.960 . S
C338 H330 0.929 . S
C338 C339 1.377 . S
C338 C340 1.384 . S
C339 C338 1.377 . S
C339 C345 1.390 . S
C340 H331 0.930 . S
C340 C338 1.384 . S
C340 C341 1.372 . S
C341 C340 1.372 . S
C341 C342 1.400 . S
C341 C346 1.490 . S
C342 H332 0.930 . S
C342 C341 1.400 . S
C342 C345 1.386 . S
H343 C359 0.930 . S
H344 C360 0.931 . S
C345 H333 0.929 . S
C345 C339 1.390 . S
C345 C342 1.386 . S
C346 C341 1.490 . S
C346 C348 1.395 . S
C346 C349 1.403 . S
H347 C353 0.930 . S
C348 H334 0.930 . S
C348 C346 1.395 . S
C348 C351 1.403 . S
C349 C346 1.403 . S
C349 C350 1.524 . S
C349 C353 1.400 . S
C350 H335 0.960 . S
C350 H336 0.960 . S
C350 H337 0.960 . S
C350 C349 1.524 . S
C351 C348 1.403 . S
C351 C352 1.392 . S
C351 C355 1.495 . S
C352 C351 1.392 . S
C352 C353 1.385 . S
C352 C354 1.478 . S
C353 H347 0.930 . S
C353 C349 1.400 . S
C353 C352 1.385 . S
C354 C352 1.478 . S
C354 C356 1.381 . S
C354 C360 1.383 . S
C355 C351 1.495 . S
C355 H361 0.959 . S
C355 H362 0.961 . S
C355 H363 0.960 . S
C356 C354 1.381 . S
C356 C357 1.394 . S
C356 H364 0.930 . S
C357 C356 1.394 . S
C357 C358 1.383 . S
C357 H365 0.929 . S
C358 C357 1.383 . S
C358 C359 1.377 . S
C359 H343 0.930 . S
C359 C358 1.377 . S
C359 C360 1.379 . S
C360 H344 0.931 . S
C360 C354 1.383 . S
C360 C359 1.379 . S
H361 C355 0.959 . S
H362 C355 0.961 . S
H363 C355 0.960 . S
H364 C356 0.930 . S
H365 C357 0.929 . S
H366 C374 0.929 . S
H367 C376 0.930 . S
H368 C378 0.930 . S
H369 C381 0.929 . S
H370 C384 0.930 . S
H371 C386 0.960 . S
H372 C386 0.960 . S
H373 C386 0.960 . S
C374 H366 0.929 . S
C374 C375 1.377 . S
C374 C376 1.384 . S
C375 C374 1.377 . S
C375 C381 1.390 . S
C376 H367 0.930 . S
C376 C374 1.384 . S
C376 C377 1.372 . S
C377 C376 1.372 . S
C377 C378 1.400 . S
C377 C382 1.490 . S
C378 H368 0.930 . S
C378 C377 1.400 . S
C378 C381 1.386 . S
H379 C395 0.930 . S
H380 C396 0.931 . S
C381 H369 0.929 . S
C381 C375 1.390 . S
C381 C378 1.386 . S
C382 C377 1.490 . S
C382 C384 1.395 . S
C382 C385 1.403 . S
H383 C389 0.930 . S
C384 H370 0.930 . S
C384 C382 1.395 . S
C384 C387 1.403 . S
C385 C382 1.403 . S
C385 C386 1.524 . S
C385 C389 1.400 . S
C386 H371 0.960 . S
C386 H372 0.960 . S
C386 H373 0.960 . S
C386 C385 1.524 . S
C387 C384 1.403 . S
C387 C388 1.392 . S
C387 C391 1.495 . S
C388 C387 1.392 . S
C388 C389 1.385 . S
C388 C390 1.478 . S
C389 H383 0.930 . S
C389 C385 1.400 . S
C389 C388 1.385 . S
C390 C388 1.478 . S
C390 C392 1.381 . S
C390 C396 1.383 . S
C391 C387 1.495 . S
C391 H397 0.959 . S
C391 H398 0.961 . S
C391 H399 0.960 . S
C392 C390 1.381 . S
C392 C393 1.394 . S
C392 H400 0.930 . S
C393 C392 1.394 . S
C393 C394 1.383 . S
C393 H401 0.929 . S
C394 C393 1.383 . S
C394 C395 1.377 . S
C395 H379 0.930 . S
C395 C394 1.377 . S
C395 C396 1.379 . S
C396 H380 0.931 . S
C396 C390 1.383 . S
C396 C395 1.379 . S
H397 C391 0.959 . S
H398 C391 0.961 . S
H399 C391 0.960 . S
H400 C392 0.930 . S
H401 C393 0.929 . S
H402 C410 0.929 . S
H403 C412 0.930 . S
H404 C414 0.930 . S
H405 C417 0.929 . S
H406 C420 0.930 . S
H407 C422 0.960 . S
H408 C422 0.960 . S
H409 C422 0.960 . S
C410 H402 0.929 . S
C410 C411 1.377 . S
C410 C412 1.384 . S
C411 C410 1.377 . S
C411 C417 1.390 . S
C412 H403 0.930 . S
C412 C410 1.384 . S
C412 C413 1.372 . S
C413 C412 1.372 . S
C413 C414 1.400 . S
C413 C418 1.490 . S
C414 H404 0.930 . S
C414 C413 1.400 . S
C414 C417 1.386 . S
H415 C431 0.930 . S
H416 C432 0.931 . S
C417 H405 0.929 . S
C417 C411 1.390 . S
C417 C414 1.386 . S
C418 C413 1.490 . S
C418 C420 1.395 . S
C418 C421 1.403 . S
H419 C425 0.930 . S
C420 H406 0.930 . S
C420 C418 1.395 . S
C420 C423 1.403 . S
C421 C418 1.403 . S
C421 C422 1.524 . S
C421 C425 1.400 . S
C422 H407 0.960 . S
C422 H408 0.960 . S
C422 H409 0.960 . S
C422 C421 1.524 . S
C423 C420 1.403 . S
C423 C424 1.392 . S
C423 C427 1.495 . S
C424 C423 1.392 . S
C424 C425 1.385 . S
C424 C426 1.478 . S
C425 H419 0.930 . S
C425 C421 1.400 . S
C425 C424 1.385 . S
C426 C424 1.478 . S
C426 C428 1.381 . S
C426 C432 1.383 . S
C427 C423 1.495 . S
C427 H433 0.959 . S
C427 H434 0.961 . S
C427 H435 0.960 . S
C428 C426 1.381 . S
C428 C429 1.394 . S
C428 H436 0.930 . S
C429 C428 1.394 . S
C429 C430 1.383 . S
C429 H437 0.929 1_545 S
C430 C429 1.383 . S
C430 C431 1.377 . S
C431 H415 0.930 . S
C431 C430 1.377 . S
C431 C432 1.379 . S
C432 H416 0.931 . S
C432 C426 1.383 . S
C432 C431 1.379 . S
H433 C427 0.959 . S
H434 C427 0.961 . S
H435 C427 0.960 . S
H436 C428 0.930 . S
H437 C429 0.929 1_565 S
H438 C446 0.929 . S
H439 C448 0.930 . S
H440 C450 0.930 . S
H441 C453 0.929 . S
H442 C456 0.930 . S
H443 C458 0.960 . S
H444 C458 0.960 . S
H445 C458 0.960 . S
C446 H438 0.929 . S
C446 C447 1.377 . S
C446 C448 1.384 . S
C447 C446 1.377 . S
C447 C453 1.390 . S
C448 H439 0.930 . S
C448 C446 1.384 . S
C448 C449 1.372 . S
C449 C448 1.372 . S
C449 C450 1.400 . S
C449 C454 1.490 . S
C450 H440 0.930 . S
C450 C449 1.400 . S
C450 C453 1.386 . S
H451 C467 0.930 . S
H452 C468 0.931 . S
C453 H441 0.929 . S
C453 C447 1.390 . S
C453 C450 1.386 . S
C454 C449 1.490 . S
C454 C456 1.395 . S
C454 C457 1.403 . S
H455 C461 0.930 . S
C456 H442 0.930 . S
C456 C454 1.395 . S
C456 C459 1.403 . S
C457 C454 1.403 . S
C457 C458 1.524 . S
C457 C461 1.400 . S
C458 H443 0.960 . S
C458 H444 0.960 . S
C458 H445 0.960 . S
C458 C457 1.524 . S
C459 C456 1.403 . S
C459 C460 1.392 . S
C459 C463 1.495 . S
C460 C459 1.392 . S
C460 C461 1.385 . S
C460 C462 1.478 . S
C461 H455 0.930 . S
C461 C457 1.400 . S
C461 C460 1.385 . S
C462 C460 1.478 . S
C462 C464 1.381 . S
C462 C468 1.383 . S
C463 C459 1.495 . S
C463 H469 0.959 . S
C463 H470 0.961 . S
C463 H471 0.960 . S
C464 C462 1.381 . S
C464 C465 1.394 . S
C464 H472 0.930 . S
C465 C464 1.394 . S
C465 C466 1.383 . S
C465 H473 0.929 . S
C466 C465 1.383 . S
C466 C467 1.377 . S
C467 H451 0.930 . S
C467 C466 1.377 . S
C467 C468 1.379 . S
C468 H452 0.931 . S
C468 C462 1.383 . S
C468 C467 1.379 . S
H469 C463 0.959 . S
H470 C463 0.961 . S
H471 C463 0.960 . S
H472 C464 0.930 . S
H473 C465 0.929 . S
H474 C482 0.929 . S
H475 C484 0.930 . S
H476 C486 0.930 . S
H477 C489 0.929 . S
H478 C492 0.930 . S
H479 C494 0.960 . S
H480 C494 0.960 . S
H481 C494 0.960 . S
C482 H474 0.929 . S
C482 C483 1.368 1_556 S
C482 C484 1.384 . S
C483 C482 1.368 1_554 S
C483 C489 1.380 1_554 S
C484 H475 0.930 . S
C484 C482 1.384 . S
C484 C485 1.372 . S
C485 C484 1.372 . S
C485 C486 1.400 . S
C485 C490 1.490 . S
C486 H476 0.930 . S
C486 C485 1.400 . S
C486 C489 1.386 . S
H487 C503 0.930 . S
H488 C504 0.931 . S
C489 H477 0.929 . S
C489 C483 1.380 1_556 S
C489 C486 1.386 . S
C490 C485 1.490 . S
C490 C492 1.395 . S
C490 C493 1.403 . S
H491 C497 0.930 . S
C492 H478 0.930 . S
C492 C490 1.395 . S
C492 C495 1.403 . S
C493 C490 1.403 . S
C493 C494 1.524 . S
C493 C497 1.400 . S
C494 H479 0.960 . S
C494 H480 0.960 . S
C494 H481 0.960 . S
C494 C493 1.524 . S
C495 C492 1.403 . S
C495 C496 1.392 . S
C495 C499 1.495 . S
C496 C495 1.392 . S
C496 C497 1.385 . S
C496 C498 1.478 . S
C497 H491 0.930 . S
C497 C493 1.400 . S
C497 C496 1.385 . S
C498 C496 1.478 . S
C498 C500 1.381 . S
C498 C504 1.383 . S
C499 C495 1.495 . S
C499 H505 0.959 . S
C499 H506 0.961 . S
C499 H507 0.960 . S
C500 C498 1.381 . S
C500 C501 1.394 1_565 S
C500 H508 0.930 1_565 S
C501 C500 1.394 1_545 S
C501 C502 1.383 1_545 S
C501 H509 0.929 . S
C502 C501 1.383 1_565 S
C502 C503 1.377 . S
C503 H487 0.930 . S
C503 C502 1.377 . S
C503 C504 1.379 . S
C504 H488 0.931 . S
C504 C498 1.383 . S
C504 C503 1.379 . S
H505 C499 0.959 . S
H506 C499 0.961 . S
H507 C499 0.960 . S
H508 C500 0.930 1_545 S
H509 C501 0.929 . S
C106 C51 1.289 . S
C87 C34 1.427 . S
C123 C7 1.428 . S
C142 C75 1.252 . S
C159 C16 1.596 . S
C178 C54 1.417 . S
C195 C25 1.595 1_554 S
C214 C72 1.383 . S
C250 C52 1.494 . S
C231 C5 1.509 . S
C286 C74 1.476 . S
C267 C13 1.547 . S
C303 C23 1.536 . S
C322 C53 1.449 . S
C339 C32 1.504 . S
C358 C73 1.446 . S
C394 C71 1.493 . S
C375 C14 1.535 . S
C430 C50 1.505 . S
C411 C22 1.543 . S
C466 C70 1.443 . S
C447 C31 1.506 . S
C483 C4 1.528 . S
C502 C49 1.450 . S
