# Generated by pormake.
# Topology ctn, (3,4)-cn, num edge types: 1
# Building blocks:
#     Node 0, Type 0, BuildingBlock: ESEHIV_clean_linker_0, # of connection points: 3
#     Node 1, Type 0, BuildingBlock: ESEHIV_clean_linker_0, # of connection points: 3
#     Node 2, Type 0, BuildingBlock: ESEHIV_clean_linker_0, # of connection points: 3
#     Node 3, Type 0, BuildingBlock: ESEHIV_clean_linker_0, # of connection points: 3
#     Node 4, Type 0, BuildingBlock: ESEHIV_clean_linker_0, # of connection points: 3
#     Node 5, Type 0, BuildingBlock: ESEHIV_clean_linker_0, # of connection points: 3
#     Node 6, Type 0, BuildingBlock: ESEHIV_clean_linker_0, # of connection points: 3
#     Node 7, Type 0, BuildingBlock: ESEHIV_clean_linker_0, # of connection points: 3
#     Node 8, Type 0, BuildingBlock: ESEHIV_clean_linker_0, # of connection points: 3
#     Node 9, Type 0, BuildingBlock: ESEHIV_clean_linker_0, # of connection points: 3
#     Node 10, Type 0, BuildingBlock: ESEHIV_clean_linker_0, # of connection points: 3
#     Node 11, Type 0, BuildingBlock: ESEHIV_clean_linker_0, # of connection points: 3
#     Node 12, Type 0, BuildingBlock: ESEHIV_clean_linker_0, # of connection points: 3
#     Node 13, Type 0, BuildingBlock: ESEHIV_clean_linker_0, # of connection points: 3
#     Node 14, Type 0, BuildingBlock: ESEHIV_clean_linker_0, # of connection points: 3
#     Node 15, Type 0, BuildingBlock: ESEHIV_clean_linker_0, # of connection points: 3
#     Node 16, Type 1, BuildingBlock: UXUYUI_clean_sbu_0, # of connection points: 4
#     Node 17, Type 1, BuildingBlock: UXUYUI_clean_sbu_0, # of connection points: 4
#     Node 18, Type 1, BuildingBlock: UXUYUI_clean_sbu_0, # of connection points: 4
#     Node 19, Type 1, BuildingBlock: UXUYUI_clean_sbu_0, # of connection points: 4
#     Node 20, Type 1, BuildingBlock: UXUYUI_clean_sbu_0, # of connection points: 4
#     Node 21, Type 1, BuildingBlock: UXUYUI_clean_sbu_0, # of connection points: 4
#     Node 22, Type 1, BuildingBlock: UXUYUI_clean_sbu_0, # of connection points: 4
#     Node 23, Type 1, BuildingBlock: UXUYUI_clean_sbu_0, # of connection points: 4
#     Node 24, Type 1, BuildingBlock: UXUYUI_clean_sbu_0, # of connection points: 4
#     Node 25, Type 1, BuildingBlock: UXUYUI_clean_sbu_0, # of connection points: 4
#     Node 26, Type 1, BuildingBlock: UXUYUI_clean_sbu_0, # of connection points: 4
#     Node 27, Type 1, BuildingBlock: UXUYUI_clean_sbu_0, # of connection points: 4
#     Edge 28, Type (0, 1), BuildingBlock: EZIPEK_clean_linker_0, # of connection points: 2
#     Edge 29, Type (0, 1), BuildingBlock: EZIPEK_clean_linker_0, # of connection points: 2
#     Edge 30, Type (0, 1), BuildingBlock: EZIPEK_clean_linker_0, # of connection points: 2
#     Edge 31, Type (0, 1), BuildingBlock: EZIPEK_clean_linker_0, # of connection points: 2
#     Edge 32, Type (0, 1), BuildingBlock: EZIPEK_clean_linker_0, # of connection points: 2
#     Edge 33, Type (0, 1), BuildingBlock: EZIPEK_clean_linker_0, # of connection points: 2
#     Edge 34, Type (0, 1), BuildingBlock: EZIPEK_clean_linker_0, # of connection points: 2
#     Edge 35, Type (0, 1), BuildingBlock: EZIPEK_clean_linker_0, # of connection points: 2
#     Edge 36, Type (0, 1), BuildingBlock: EZIPEK_clean_linker_0, # of connection points: 2
#     Edge 37, Type (0, 1), BuildingBlock: EZIPEK_clean_linker_0, # of connection points: 2
#     Edge 38, Type (0, 1), BuildingBlock: EZIPEK_clean_linker_0, # of connection points: 2
#     Edge 39, Type (0, 1), BuildingBlock: EZIPEK_clean_linker_0, # of connection points: 2
#     Edge 40, Type (0, 1), BuildingBlock: EZIPEK_clean_linker_0, # of connection points: 2
#     Edge 41, Type (0, 1), BuildingBlock: EZIPEK_clean_linker_0, # of connection points: 2
#     Edge 42, Type (0, 1), BuildingBlock: EZIPEK_clean_linker_0, # of connection points: 2
#     Edge 43, Type (0, 1), BuildingBlock: EZIPEK_clean_linker_0, # of connection points: 2
#     Edge 44, Type (0, 1), BuildingBlock: EZIPEK_clean_linker_0, # of connection points: 2
#     Edge 45, Type (0, 1), BuildingBlock: EZIPEK_clean_linker_0, # of connection points: 2
#     Edge 46, Type (0, 1), BuildingBlock: EZIPEK_clean_linker_0, # of connection points: 2
#     Edge 47, Type (0, 1), BuildingBlock: EZIPEK_clean_linker_0, # of connection points: 2
#     Edge 48, Type (0, 1), BuildingBlock: EZIPEK_clean_linker_0, # of connection points: 2
#     Edge 49, Type (0, 1), BuildingBlock: EZIPEK_clean_linker_0, # of connection points: 2
#     Edge 50, Type (0, 1), BuildingBlock: EZIPEK_clean_linker_0, # of connection points: 2
#     Edge 51, Type (0, 1), BuildingBlock: EZIPEK_clean_linker_0, # of connection points: 2
#     Edge 52, Type (0, 1), BuildingBlock: EZIPEK_clean_linker_0, # of connection points: 2
#     Edge 53, Type (0, 1), BuildingBlock: EZIPEK_clean_linker_0, # of connection points: 2
#     Edge 54, Type (0, 1), BuildingBlock: EZIPEK_clean_linker_0, # of connection points: 2
#     Edge 55, Type (0, 1), BuildingBlock: EZIPEK_clean_linker_0, # of connection points: 2
#     Edge 56, Type (0, 1), BuildingBlock: EZIPEK_clean_linker_0, # of connection points: 2
#     Edge 57, Type (0, 1), BuildingBlock: EZIPEK_clean_linker_0, # of connection points: 2
#     Edge 58, Type (0, 1), BuildingBlock: EZIPEK_clean_linker_0, # of connection points: 2
#     Edge 59, Type (0, 1), BuildingBlock: EZIPEK_clean_linker_0, # of connection points: 2
#     Edge 60, Type (0, 1), BuildingBlock: EZIPEK_clean_linker_0, # of connection points: 2
#     Edge 61, Type (0, 1), BuildingBlock: EZIPEK_clean_linker_0, # of connection points: 2
#     Edge 62, Type (0, 1), BuildingBlock: EZIPEK_clean_linker_0, # of connection points: 2
#     Edge 63, Type (0, 1), BuildingBlock: EZIPEK_clean_linker_0, # of connection points: 2
#     Edge 64, Type (0, 1), BuildingBlock: EZIPEK_clean_linker_0, # of connection points: 2
#     Edge 65, Type (0, 1), BuildingBlock: EZIPEK_clean_linker_0, # of connection points: 2
#     Edge 66, Type (0, 1), BuildingBlock: EZIPEK_clean_linker_0, # of connection points: 2
#     Edge 67, Type (0, 1), BuildingBlock: EZIPEK_clean_linker_0, # of connection points: 2
#     Edge 68, Type (0, 1), BuildingBlock: EZIPEK_clean_linker_0, # of connection points: 2
#     Edge 69, Type (0, 1), BuildingBlock: EZIPEK_clean_linker_0, # of connection points: 2
#     Edge 70, Type (0, 1), BuildingBlock: EZIPEK_clean_linker_0, # of connection points: 2
#     Edge 71, Type (0, 1), BuildingBlock: EZIPEK_clean_linker_0, # of connection points: 2
#     Edge 72, Type (0, 1), BuildingBlock: EZIPEK_clean_linker_0, # of connection points: 2
#     Edge 73, Type (0, 1), BuildingBlock: EZIPEK_clean_linker_0, # of connection points: 2
#     Edge 74, Type (0, 1), BuildingBlock: EZIPEK_clean_linker_0, # of connection points: 2
#     Edge 75, Type (0, 1), BuildingBlock: EZIPEK_clean_linker_0, # of connection points: 2
# Relax obj value: 0.000
# Max RMSD: 0.006
# Mean RMSD: 0.004
data_MOF--net-ctn--node1-UXUYUI_clean_sbu_0--node2-ESEHIV_clean_linker_0--edge1-EZIPEK_clean_linker_0
_symmetry_space_group_name_H-M    P1
_symmetry_Int_Tables_number       1
_symmetry_cell_setting            triclinic
loop_
_symmetry_equiv_pos_as_xyz
'x, y, z'
_cell_length_a     49.592266
_cell_length_b     49.615197
_cell_length_c     49.471079
_cell_angle_alpha  89.919358
_cell_angle_beta   90.141899
_cell_angle_gamma 90.054606
loop_
_atom_site_label
_atom_site_type_symbol
_atom_site_fract_x
_atom_site_fract_y
_atom_site_fract_z
_atom_type_partial_charge
H0 H 0.00922 0.07906 0.05499 0.0
H1 H 0.05744 0.01153 0.08055 0.0
H2 H 0.08066 0.05769 0.01066 0.0
C3 C 0.02657 0.06608 0.05221 0.0
C4 C 0.04444 0.07098 0.03077 0.0
C5 C 0.0313 0.04483 0.07037 0.0
C6 C 0.05378 0.02806 0.06667 0.0
C7 C 0.07143 0.03248 0.04499 0.0
C8 C 0.06685 0.05408 0.02724 0.0
H9 H 0.30428 0.68836 0.2583 0.0
H10 H 0.32662 0.75984 0.21421 0.0
H11 H 0.25816 0.71286 0.18868 0.0
C12 C 0.30082 0.70236 0.24181 0.0
C13 C 0.27909 0.6982 0.22407 0.0
C14 C 0.31798 0.72464 0.23844 0.0
C15 C 0.31338 0.74266 0.21699 0.0
C16 C 0.292 0.73833 0.19888 0.0
C17 C 0.27479 0.71616 0.20256 0.0
H18 H 0.96258 0.50448 0.0839 0.0
H19 H 1.00731 0.4341 0.06009 0.0
H20 H 0.93829 0.45941 0.01365 0.0
C21 C 0.96549 0.48762 0.07029 0.0
C22 C 0.94787 0.48392 0.04838 0.0
C23 C 0.98695 0.4697 0.07457 0.0
C24 C 0.99068 0.44793 0.05689 0.0
C25 C 0.97317 0.4442 0.03489 0.0
C26 C 0.95181 0.46223 0.03067 0.0
H27 H 0.69154 0.75668 0.21492 0.0
H28 H 0.75867 0.8055 0.18953 0.0
H29 H 0.71193 0.82881 0.25882 0.0
C30 C 0.7043 0.77422 0.21768 0.0
C31 C 0.69918 0.79216 0.23901 0.0
C32 C 0.72558 0.7791 0.19968 0.0
C33 C 0.74213 0.80176 0.20332 0.0
C34 C 0.73734 0.81961 0.22473 0.0
C35 C 0.71576 0.81488 0.2424 0.0
H36 H 1.00843 0.93687 0.4618 0.0
H37 H 0.05401 1.00674 0.43776 0.0
H38 H 0.07722 0.96202 0.5087 0.0
C39 C 0.02509 0.95066 0.46512 0.0
C40 C 0.04233 0.94691 0.48735 0.0
C41 C 0.02915 0.97229 0.4473 0.0
C42 C 0.05077 0.99006 0.45156 0.0
C43 C 0.0682 0.98634 0.47364 0.0
C44 C 0.06383 0.96487 0.49158 0.0
H45 H 0.19404 0.76459 0.80313 0.0
H46 H 0.25788 0.71366 0.83008 0.0
H47 H 0.2174 0.69521 0.75614 0.0
C48 C 0.20746 0.74817 0.7985 0.0
C49 C 0.20581 0.73388 0.77373 0.0
C50 C 0.22648 0.74133 0.8184 0.0
C51 C 0.24288 0.71874 0.81493 0.0
C52 C 0.23951 0.70236 0.79222 0.0
C53 C 0.2205 0.7094 0.77237 0.0
H54 H 0.93641 0.55623 0.50738 0.0
H55 H 1.00721 0.57948 0.46285 0.0
H56 H 0.96071 0.5106 0.43765 0.0
C57 C 0.95023 0.55301 0.49074 0.0
C58 C 0.9461 0.53135 0.47301 0.0
C59 C 0.97225 0.57043 0.48715 0.0
C60 C 0.99014 0.5661 0.46565 0.0
C61 C 0.98598 0.54464 0.44766 0.0
C62 C 0.96392 0.52729 0.45141 0.0
H63 H 0.76209 0.8029 0.83169 0.0
H64 H 0.80901 0.82765 0.76286 0.0
H65 H 0.83296 0.75822 0.80934 0.0
C66 C 0.77921 0.79999 0.81841 0.0
C67 C 0.79706 0.77855 0.82306 0.0
C68 C 0.78346 0.81777 0.79674 0.0
C69 C 0.80566 0.81395 0.77962 0.0
C70 C 0.82352 0.79246 0.78407 0.0
C71 C 0.81918 0.77482 0.80583 0.0
H72 H 0.26032 0.30585 0.33191 0.0
H73 H 0.30846 0.32986 0.26374 0.0
H74 H 0.32666 0.2563 0.3064 0.0
C75 C 0.27699 0.30214 0.31828 0.0
C76 C 0.29318 0.27924 0.32182 0.0
C77 C 0.28229 0.32026 0.29715 0.0
C78 C 0.30419 0.31566 0.27985 0.0
C79 C 0.32022 0.29248 0.28289 0.0
C80 C 0.31439 0.27421 0.30382 0.0
H81 H 0.45931 1.00572 0.58164 0.0
H82 H 0.5067 0.93785 0.55568 0.0
H83 H 0.43519 0.9602 0.51162 0.0
C84 C 0.46269 0.9892 0.56773 0.0
C85 C 0.4448 0.98505 0.54611 0.0
C86 C 0.48512 0.97227 0.57125 0.0
C87 C 0.48944 0.95101 0.55306 0.0
C88 C 0.47134 0.94647 0.5317 0.0
C89 C 0.44909 0.96356 0.52824 0.0
H90 H 0.18785 0.25901 0.71123 0.0
H91 H 0.25789 0.3049 0.68828 0.0
H92 H 0.21193 0.32795 0.75823 0.0
C93 C 0.20158 0.27567 0.71477 0.0
C94 C 0.19735 0.29299 0.73674 0.0
C95 C 0.22342 0.27987 0.69729 0.0
C96 C 0.24106 0.30154 0.70182 0.0
C97 C 0.23701 0.31885 0.72384 0.0
C98 C 0.21518 0.31449 0.74129 0.0
H99 H 0.80368 0.18715 0.75867 0.0
H100 H 0.82807 0.25676 0.71277 0.0
H101 H 0.75918 0.21023 0.6875 0.0
C102 C 0.80069 0.20069 0.74171 0.0
C103 C 0.77936 0.19616 0.72356 0.0
C104 C 0.81834 0.22248 0.73786 0.0
C105 C 0.81446 0.23991 0.71582 0.0
C106 C 0.79308 0.23561 0.69769 0.0
C107 C 0.77561 0.21369 0.70158 0.0
H108 H 0.51112 0.57837 0.55757 0.0
H109 H 0.55769 0.50949 0.5827 0.0
H110 H 0.58145 0.55503 0.51255 0.0
C111 C 0.5281 0.56494 0.55469 0.0
C112 C 0.54587 0.56925 0.53309 0.0
C113 C 0.53234 0.54347 0.57273 0.0
C114 C 0.55439 0.52616 0.56889 0.0
C115 C 0.57202 0.53017 0.54711 0.0
C116 C 0.56778 0.55182 0.52933 0.0
H117 H 0.50668 0.44571 0.96 0.0
H118 H 0.56026 0.51069 0.93914 0.0
H119 H 0.57902 0.45936 1.00664 0.0
C120 C 0.52491 0.45715 0.96389 0.0
C121 C 0.54201 0.44983 0.98546 0.0
C122 C 0.53175 0.47875 0.94687 0.0
C123 C 0.55513 0.49378 0.95208 0.0
C124 C 0.57202 0.48706 0.97378 0.0
C125 C 0.56571 0.46479 0.99009 0.0
H126 H 0.69087 0.26144 0.30395 0.0
H127 H 0.75871 0.21314 0.32818 0.0
H128 H 0.70894 0.18797 0.26139 0.0
C129 C 0.7034 0.24377 0.30113 0.0
C130 C 0.69735 0.2254 0.28038 0.0
C131 C 0.72511 0.23908 0.31872 0.0
C132 C 0.74168 0.21655 0.31482 0.0
C133 C 0.73606 0.19814 0.29402 0.0
C134 C 0.71355 0.20236 0.27723 0.0
H135 H 0.43731 0.05686 1.00398 0.0
H136 H 0.51059 0.07581 0.96137 0.0
H137 H 0.46209 1.00829 0.93648 0.0
C138 C 0.4516 0.05261 0.988 0.0
C139 C 0.44736 0.0304 0.97096 0.0
C140 C 0.47452 0.06902 0.98483 0.0
C141 C 0.4929 0.06323 0.96406 0.0
C142 C 0.48822 0.0417 0.9463 0.0
C143 C 0.46556 0.02516 0.94995 0.0
Li144 Li 0.28285 0.90195 1.00488 0.0
Li145 Li 0.26316 0.86807 0.03397 0.0
Li146 Li 0.25387 0.86776 0.98574 0.0
Li147 Li 0.23474 0.90233 0.01415 0.0
C148 C 0.31379 0.85588 0.01466 0.0
N149 N 0.36344 0.84265 0.03638 0.0
C150 C 0.32484 0.87138 0.03551 0.0
C151 C 0.328 0.83366 1.00485 0.0
C152 C 0.34996 0.86437 0.04622 0.0
C153 C 0.35307 0.82729 0.0161 0.0
C154 C 0.25448 0.91447 0.06486 0.0
C155 C 0.22313 0.9067 0.10125 0.0
N156 N 0.23335 0.92844 0.11452 0.0
C157 C 0.26468 0.93671 0.07885 0.0
C158 C 0.23353 0.89932 0.07612 0.0
C159 C 0.25372 0.94345 0.10394 0.0
C160 C 0.31203 0.95061 1.00736 0.0
N161 N 0.31332 0.92475 0.99835 0.0
C162 C 0.35725 0.93248 0.98 0.0
C163 C 0.33528 0.91549 0.98478 0.0
C164 C 0.35642 0.95918 0.98916 0.0
C165 C 0.33353 0.96831 1.00295 0.0
H166 H 0.29425 0.95745 0.01793 0.0
H167 H 0.33575 0.89492 0.97762 0.0
C168 C 0.25905 0.8197 0.06335 0.0
N169 N 0.26901 0.84522 0.06462 0.0
C170 C 0.2626 0.80198 0.08505 0.0
C171 C 0.28666 0.83709 0.10893 0.0
C172 C 0.28272 0.85412 0.08675 0.0
C173 C 0.27649 0.81074 0.10813 0.0
H174 H 0.24837 0.81315 0.04544 0.0
H175 H 0.2906 0.87444 0.08722 0.0
C176 C 0.2633 0.91341 0.95394 0.0
N177 N 0.28463 0.92605 0.90395 0.0
C178 C 0.25338 0.93543 0.93937 0.0
C179 C 0.28408 0.89781 0.94308 0.0
C180 C 0.26443 0.9415 0.91413 0.0
C181 C 0.29459 0.90453 0.91778 0.0
C182 C 0.20309 0.85644 1.00532 0.0
C183 C 0.19206 0.87184 0.98435 0.0
C184 C 0.18878 0.83437 0.01542 0.0
C185 C 0.16684 0.86487 0.97384 0.0
C186 C 0.16361 0.82804 1.00436 0.0
N187 N 0.15325 0.8433 0.98397 0.0
C188 C 0.25757 0.81917 0.95658 0.0
C189 C 0.23362 0.85359 0.93345 0.0
C190 C 0.25395 0.80155 0.93484 0.0
N191 N 0.24758 0.84467 0.95543 0.0
C192 C 0.22957 0.83667 0.91126 0.0
C193 C 0.2399 0.81039 0.91187 0.0
H194 H 0.26848 0.8126 0.97436 0.0
H195 H 0.22577 0.8739 0.93304 0.0
C196 C 0.20603 0.95111 0.01027 0.0
N197 N 0.2046 0.92555 0.02015 0.0
C198 C 0.18467 0.96904 0.01414 0.0
C199 C 0.16079 0.93405 0.03837 0.0
C200 C 0.18262 0.91682 0.03409 0.0
C201 C 0.16177 0.96044 0.0283 0.0
H202 H 0.22382 0.95753 0.9994 0.0
H203 H 0.18202 0.89647 0.0419 0.0
O204 O 0.28916 0.86218 1.00386 0.0
O205 O 0.26498 0.90781 0.04021 0.0
O206 O 0.25269 0.9074 0.97873 0.0
O207 O 0.22781 0.86271 0.01594 0.0
H208 H 0.31421 0.88869 0.04335 0.0
H209 H 0.31972 0.82146 0.98871 0.0
H210 H 0.35873 0.8762 0.06236 0.0
H211 H 0.36429 0.81014 1.00871 0.0
H212 H 0.20692 0.89515 0.1102 0.0
H213 H 0.28089 0.94864 0.07039 0.0
H214 H 0.22539 0.88202 0.06564 0.0
H215 H 0.26141 0.96063 0.11499 0.0
H216 H 0.37468 0.92494 0.96926 0.0
H217 H 0.33237 0.98885 0.01023 0.0
H218 H 0.2546 0.78169 0.08389 0.0
H219 H 0.29754 0.84433 0.12649 0.0
H220 H 0.23729 0.9477 0.94751 0.0
H221 H 0.29202 0.88067 0.954 0.0
H222 H 0.25694 0.95849 0.90264 0.0
H223 H 0.31066 0.89262 0.90914 0.0
H224 H 0.20277 0.88903 0.97628 0.0
H225 H 0.19704 0.82225 0.03166 0.0
H226 H 0.15807 0.87662 0.95762 0.0
H227 H 0.15231 0.81101 0.01199 0.0
H228 H 0.26217 0.78136 0.93581 0.0
H229 H 0.21866 0.844 0.89374 0.0
H230 H 0.18594 0.98935 1.00618 0.0
H231 H 0.14335 0.92693 0.04942 0.0
Li232 Li 0.11736 0.51245 0.28499 0.0
Li233 Li 0.15309 0.48407 0.26468 0.0
Li234 Li 0.15153 0.53273 0.25604 0.0
Li235 Li 0.11807 0.5037 0.23737 0.0
C236 C 0.16587 0.504 0.31526 0.0
N237 N 0.18361 0.4827 0.36375 0.0
C238 C 0.1521 0.48246 0.32717 0.0
C239 C 0.18867 0.51468 0.32798 0.0
C240 C 0.16139 0.47198 0.3517 0.0
C241 C 0.19731 0.50365 0.35251 0.0
C242 C 0.10055 0.45684 0.25351 0.0
C243 C 0.10057 0.42028 0.2214 0.0
N244 N 0.07336 0.41811 0.22396 0.0
C245 C 0.07259 0.45418 0.25589 0.0
C246 C 0.11467 0.43975 0.23613 0.0
C247 C 0.05921 0.4345 0.24075 0.0
C248 C 0.06766 0.51405 0.31221 0.0
N249 N 0.0945 0.51861 0.31562 0.0
C250 C 0.08719 0.53271 0.36128 0.0
C251 C 0.10443 0.52822 0.33943 0.0
C252 C 0.05955 0.52756 0.35838 0.0
C253 C 0.04971 0.51828 0.3335 0.0
H254 H 0.06018 0.50741 0.29282 0.0
H255 H 0.12566 0.53266 0.34146 0.0
C256 C 0.20283 0.4565 0.26281 0.0
N257 N 0.17668 0.45435 0.27076 0.0
C258 C 0.22074 0.43516 0.26712 0.0
C259 C 0.18448 0.40991 0.28781 0.0
C260 C 0.16729 0.43173 0.28316 0.0
C261 C 0.21148 0.41157 0.27969 0.0
H262 H 0.20973 0.47481 0.25313 0.0
H263 H 0.14644 0.43064 0.28941 0.0
C264 C 0.10571 0.56321 0.26635 0.0
N265 N 0.09319 0.61256 0.28887 0.0
C266 C 0.08435 0.57843 0.25601 0.0
C267 C 0.12072 0.5731 0.28817 0.0
C268 C 0.07834 0.60333 0.26767 0.0
C269 C 0.11407 0.59808 0.29927 0.0
C270 C 0.16326 0.51393 0.20502 0.0
C271 C 0.14739 0.5347 0.1944 0.0
C272 C 0.18537 0.5045 0.19038 0.0
C273 C 0.15393 0.54569 0.16925 0.0
C274 C 0.19125 0.51602 0.16528 0.0
N275 N 0.17554 0.5362 0.15533 0.0
C276 C 0.19999 0.56223 0.25866 0.0
C277 C 0.16435 0.58567 0.23689 0.0
C278 C 0.21745 0.58396 0.25449 0.0
N279 N 0.17398 0.56351 0.24997 0.0
C280 C 0.18109 0.60787 0.23236 0.0
C281 C 0.20792 0.60707 0.24125 0.0
H282 H 0.20716 0.54424 0.26874 0.0
H283 H 0.1437 0.5861 0.22987 0.0
C284 C 0.06946 0.50737 0.20795 0.0
N285 N 0.09496 0.49738 0.20699 0.0
C286 C 0.05158 0.50287 0.18656 0.0
C287 C 0.08655 0.47789 0.1636 0.0
C288 C 0.10375 0.48282 0.18545 0.0
C289 C 0.06018 0.488 0.16411 0.0
H290 H 0.063 0.51868 0.22545 0.0
H291 H 0.12404 0.47487 0.18533 0.0
O292 O 0.1575 0.5143 0.29099 0.0
O293 O 0.11396 0.47661 0.2674 0.0
O294 O 0.11159 0.53871 0.25514 0.0
O295 O 0.15744 0.50287 0.22968 0.0
H296 H 0.13442 0.47393 0.31761 0.0
H297 H 0.19958 0.53132 0.31897 0.0
H298 H 0.15093 0.45532 0.36114 0.0
H299 H 0.21493 0.51172 0.36259 0.0
H300 H 0.11123 0.40705 0.20775 0.0
H301 H 0.06127 0.46722 0.26912 0.0
H302 H 0.13622 0.44185 0.23359 0.0
H303 H 0.03756 0.43231 0.2423 0.0
H304 H 0.09528 0.54022 0.38018 0.0
H305 H 0.02839 0.51445 0.33061 0.0
H306 H 0.24151 0.43695 0.26064 0.0
H307 H 0.17682 0.39192 0.29758 0.0
H308 H 0.07253 0.57104 0.23914 0.0
H309 H 0.13735 0.56171 0.29647 0.0
H310 H 0.06185 0.61532 0.25986 0.0
H311 H 0.12551 0.60597 0.31614 0.0
H312 H 0.13019 0.54228 0.2054 0.0
H313 H 0.19786 0.48845 0.19835 0.0
H314 H 0.14182 0.56176 0.16079 0.0
H315 H 0.20831 0.50892 0.15373 0.0
H316 H 0.23812 0.5828 0.2615 0.0
H317 H 0.17325 0.62545 0.22199 0.0
H318 H 0.03128 0.51086 0.18746 0.0
H319 H 0.09367 0.46628 0.14653 0.0
Li320 Li 0.73802 0.61386 1.00775 0.0
Li321 Li 0.75861 0.6494 0.03626 0.0
Li322 Li 0.766 0.64861 0.98729 0.0
Li323 Li 0.78572 0.61504 0.01552 0.0
C324 C 0.70746 0.66139 0.01776 0.0
N325 N 0.65936 0.6773 0.0408 0.0
C326 C 0.69646 0.64669 0.03921 0.0
C327 C 0.69404 0.68419 1.00807 0.0
C328 C 0.67211 0.65506 0.05057 0.0
C329 C 0.66972 0.69191 0.01998 0.0
C330 C 0.77101 0.59708 0.06289 0.0
C331 C 0.80397 0.59783 0.09886 0.0
N332 N 0.80169 0.57063 0.10136 0.0
C333 C 0.76897 0.56914 0.06587 0.0
C334 C 0.78866 0.61156 0.07951 0.0
C335 C 0.78467 0.55613 0.08542 0.0
C336 C 0.71042 0.5641 1.00715 0.0
N337 N 0.70742 0.59084 1.00188 0.0
C338 C 0.66194 0.58366 0.98727 0.0
C339 C 0.68389 0.60077 0.99172 0.0
C340 C 0.66441 0.55611 0.99307 0.0
C341 C 0.68898 0.54626 1.00301 0.0
H342 H 0.72958 0.55659 0.0143 0.0
H343 H 0.68217 0.62192 0.98683 0.0
C344 C 0.7607 0.69875 0.06441 0.0
N345 N 0.75305 0.67251 0.06648 0.0
C346 C 0.75651 0.71645 0.08595 0.0
C347 C 0.73664 0.67977 0.11129 0.0
C348 C 0.74116 0.66279 0.08927 0.0
C349 C 0.74435 0.7069 0.10967 0.0
H350 H 0.76995 0.70591 0.04597 0.0
H351 H 0.73513 0.64186 0.09028 0.0
C352 C 0.75539 0.60308 0.95633 0.0
N353 N 0.73171 0.59083 0.90724 0.0
C354 C 0.76512 0.58167 0.94087 0.0
C355 C 0.7336 0.61828 0.94682 0.0
C356 C 0.75288 0.57579 0.9161 0.0
C357 C 0.72191 0.61176 0.92195 0.0
C358 C 0.81717 0.66099 1.00519 0.0
C359 C 0.82769 0.64543 0.98417 0.0
C360 C 0.83137 0.68357 0.01429 0.0
C361 C 0.85231 0.65274 0.97261 0.0
C362 C 0.85593 0.69022 1.0022 0.0
N363 N 0.8658 0.6748 0.98179 0.0
C364 C 0.76212 0.69732 0.95817 0.0
C365 C 0.78428 0.66238 0.93426 0.0
C366 C 0.76597 0.71511 0.93657 0.0
N367 N 0.77122 0.67152 0.95661 0.0
C368 C 0.78852 0.67946 0.9122 0.0
C369 C 0.77931 0.70612 0.91333 0.0
H370 H 0.75205 0.7041 0.97629 0.0
H371 H 0.79159 0.64187 0.9336 0.0
C372 C 0.81511 0.56674 0.01102 0.0
N373 N 0.81631 0.59223 0.021 0.0
C374 C 0.83651 0.54891 0.01521 0.0
C375 C 0.86 0.58396 0.03978 0.0
C376 C 0.83813 0.6011 0.03517 0.0
C377 C 0.85919 0.55757 0.02975 0.0
H378 H 0.79738 0.56021 1.00005 0.0
H379 H 0.83842 0.62137 0.04315 0.0
O380 O 0.73153 0.65393 1.00659 0.0
O381 O 0.75654 0.61014 0.04324 0.0
O382 O 0.76716 0.60881 0.98071 0.0
O383 O 0.79297 0.65447 0.01673 0.0
H384 H 0.70657 0.62901 0.04701 0.0
H385 H 0.70234 0.69583 0.99154 0.0
H386 H 0.66337 0.64387 0.06717 0.0
H387 H 0.65911 0.70952 0.01268 0.0
H388 H 0.81782 0.60878 0.11172 0.0
H389 H 0.75558 0.55754 0.05316 0.0
H390 H 0.79098 0.63311 0.07714 0.0
H391 H 0.78338 0.5345 0.08785 0.0
H392 H 0.64326 0.59176 0.97931 0.0
H393 H 0.69152 0.52502 1.00741 0.0
H394 H 0.7626 0.73735 0.08416 0.0
H395 H 0.72714 0.6719 0.12936 0.0
H396 H 0.78196 0.5697 0.94797 0.0
H397 H 0.72576 0.63495 0.95841 0.0
H398 H 0.7602 0.55926 0.90393 0.0
H399 H 0.70504 0.62335 0.91436 0.0
H400 H 0.817 0.62791 0.97681 0.0
H401 H 0.82345 0.69584 0.03051 0.0
H402 H 0.86067 0.64088 0.95633 0.0
H403 H 0.86713 0.70766 0.00903 0.0
H404 H 0.75872 0.73564 0.93799 0.0
H405 H 0.79898 0.67204 0.89452 0.0
H406 H 0.83536 0.52859 1.00733 0.0
H407 H 0.87726 0.5911 0.05117 0.0
Li408 Li 0.86691 0.03434 0.26339 0.0
Li409 Li 0.89927 1.00498 0.28332 0.0
Li410 Li 0.9016 0.01495 0.23461 0.0
Li411 Li 0.86351 0.98608 0.25493 0.0
C412 C 0.91821 0.0642 0.26447 0.0
N413 N 0.94221 0.11447 0.26286 0.0
C414 C 0.92849 0.07577 0.28811 0.0
C415 C 0.92039 0.07811 0.23997 0.0
C416 C 0.94046 0.10124 0.28689 0.0
C417 C 0.93254 0.10352 0.23959 0.0
C418 C 0.85367 0.0146 0.31485 0.0
C419 C 0.82852 0.01183 0.35641 0.0
N420 N 0.84142 0.03424 0.36557 0.0
C421 C 0.86667 0.0376 0.32467 0.0
C422 C 0.83442 1.00159 0.3308 0.0
C423 C 0.8602 0.04722 0.35036 0.0
C424 C 0.81739 0.05972 0.27357 0.0
N425 N 0.84398 0.0652 0.26951 0.0
C426 C 0.83567 0.11246 0.27424 0.0
C427 C 0.85332 0.091 0.26989 0.0
C428 C 0.80811 0.10734 0.27793 0.0
C429 C 0.79894 0.08061 0.27753 0.0
H430 H 0.81047 0.03904 0.27348 0.0
H431 H 0.87438 0.09513 0.26681 0.0
C432 C 0.94755 1.00806 0.31294 0.0
N433 N 0.92193 0.99832 0.31388 0.0
C434 C 0.96523 1.00373 0.33452 0.0
C435 C 0.9299 0.97921 0.35757 0.0
C436 C 0.91289 0.98398 0.33551 0.0
C437 C 0.95634 0.98923 0.35713 0.0
H438 H 0.95427 0.01909 0.29532 0.0
H439 H 0.89255 0.97612 0.33556 0.0
C440 C 0.84188 0.03129 0.21654 0.0
N441 N 0.80122 0.0634 0.19593 0.0
C442 C 0.81518 0.02227 0.21685 0.0
C443 C 0.84796 0.05647 0.20539 0.0
C444 C 0.7949 0.03883 0.20639 0.0
C445 C 0.8271 0.07246 0.1952 0.0
C446 C 0.91823 0.95954 0.26551 0.0
C447 C 0.9463 0.95977 0.26309 0.0
C448 C 0.90581 0.94036 0.28205 0.0
C449 C 0.96153 0.94086 0.27746 0.0
C450 C 0.92174 0.92176 0.29604 0.0
N451 N 0.94904 0.92242 0.2935 0.0
C452 C 0.95187 0.02073 0.20874 0.0
C453 C 0.91412 0.02242 0.17923 0.0
C454 C 0.96949 0.02449 0.18707 0.0
N455 N 0.9248 0.01966 0.20443 0.0
C456 C 0.931 0.0265 0.157 0.0
C457 C 0.95902 0.02749 0.16087 0.0
H458 H 0.95972 0.01889 0.22907 0.0
H459 H 0.8925 0.02161 0.17644 0.0
C460 C 0.81551 0.95589 0.26056 0.0
N461 N 0.84034 0.95615 0.24895 0.0
C462 C 0.79824 0.93395 0.25668 0.0
C463 C 0.83253 0.91291 0.22914 0.0
C464 C 0.84908 0.93533 0.23344 0.0
C465 C 0.80683 0.91218 0.24086 0.0
H466 H 0.80914 0.97277 0.2728 0.0
H467 H 0.86897 0.9361 0.22454 0.0
O468 O 0.9067 0.03913 0.26529 0.0
O469 O 0.85963 1.00475 0.28975 0.0
O470 O 0.86189 0.01571 0.22744 0.0
O471 O 0.90301 0.97854 0.25252 0.0
H472 H 0.92725 0.06521 0.30722 0.0
H473 H 0.91272 0.06949 0.22146 0.0
H474 H 0.94841 0.11046 0.30504 0.0
H475 H 0.93428 0.11452 0.22078 0.0
H476 H 0.81368 1.00195 0.369 0.0
H477 H 0.88151 0.04796 0.31257 0.0
H478 H 0.8242 0.98374 0.32348 0.0
H479 H 0.8701 0.06502 0.35819 0.0
H480 H 0.84336 0.1329 0.27447 0.0
H481 H 0.77778 0.076 0.28033 0.0
H482 H 0.98559 0.0116 0.33363 0.0
H483 H 0.92259 0.96783 0.37476 0.0
H484 H 0.81014 1.00282 0.22534 0.0
H485 H 0.8685 0.06372 0.20489 0.0
H486 H 0.77412 0.03219 0.20668 0.0
H487 H 0.83148 0.09211 0.18677 0.0
H488 H 0.95623 0.97456 0.2505 0.0
H489 H 0.88412 0.94012 0.2844 0.0
H490 H 0.98328 0.9409 0.27593 0.0
H491 H 0.91242 0.90691 0.30905 0.0
H492 H 0.99103 0.02529 0.19068 0.0
H493 H 0.92234 0.02885 0.13701 0.0
H494 H 0.77849 0.93385 0.26597 0.0
H495 H 0.83965 0.89634 0.21686 0.0
Li496 Li 0.25287 0.14923 0.53386 0.0
Li497 Li 0.23283 0.11507 0.50549 0.0
Li498 Li 0.28106 0.11478 0.51433 0.0
Li499 Li 0.26151 0.14898 0.48555 0.0
C500 C 0.26206 0.10328 0.56539 0.0
N501 N 0.28401 0.09001 0.61504 0.0
C502 C 0.25221 0.08115 0.5798 0.0
C503 C 0.28309 0.11868 0.57623 0.0
C504 C 0.26358 0.07476 0.60488 0.0
C505 C 0.29391 0.11165 0.60136 0.0
C506 C 0.20205 0.16134 0.51478 0.0
C507 C 0.16307 0.19032 0.51626 0.0
N508 N 0.15281 0.17517 0.53675 0.0
C509 C 0.19112 0.14606 0.53585 0.0
C510 C 0.18795 0.18365 0.50489 0.0
C511 C 0.16619 0.15338 0.54667 0.0
C512 C 0.25706 0.19797 0.5625 0.0
N513 N 0.24726 0.17241 0.56414 0.0
C514 C 0.22968 0.18098 0.60828 0.0
C515 C 0.23367 0.1637 0.58639 0.0
C516 C 0.23966 0.20738 0.60708 0.0
C517 C 0.25346 0.21594 0.58391 0.0
H518 H 0.26763 0.20436 0.5445 0.0
H519 H 0.22591 0.14335 0.58714 0.0
C520 C 0.20318 0.06678 0.50935 0.0
N521 N 0.20218 0.0924 0.49959 0.0
C522 C 0.18148 0.04922 0.50535 0.0
C523 C 0.15815 0.08471 0.48128 0.0
C524 C 0.18029 0.10157 0.4857 0.0
C525 C 0.1587 0.05825 0.49118 0.0
H526 H 0.22091 0.06 0.52017 0.0
H527 H 0.18003 0.12197 0.47798 0.0
C528 C 0.31253 0.16055 0.50451 0.0
N529 N 0.36203 0.17344 0.48244 0.0
C530 C 0.32316 0.145 0.48354 0.0
C531 C 0.32707 0.18265 0.51424 0.0
C532 C 0.34822 0.15184 0.47267 0.0
C533 C 0.35206 0.18884 0.50283 0.0
C534 C 0.25168 0.10282 0.45457 0.0
C535 C 0.26123 0.08041 0.44048 0.0
C536 C 0.2309 0.11837 0.4435 0.0
C537 C 0.2498 0.0739 0.41548 0.0
C538 C 0.22 0.1112 0.41846 0.0
N539 N 0.22959 0.0893 0.40508 0.0
C540 C 0.30995 0.06604 0.51102 0.0
C541 C 0.33344 0.10073 0.53419 0.0
C542 C 0.33141 0.04824 0.51511 0.0
N543 N 0.31137 0.09173 0.52048 0.0
C544 C 0.35537 0.08363 0.53868 0.0
C545 C 0.3544 0.0571 0.52905 0.0
H546 H 0.29208 0.0594 0.50034 0.0
H547 H 0.33404 0.12118 0.54166 0.0
C548 C 0.25796 0.19754 0.45646 0.0
N549 N 0.26737 0.17185 0.45499 0.0
C550 C 0.26174 0.21535 0.4349 0.0
C551 C 0.28486 0.17994 0.41069 0.0
C552 C 0.2807 0.16283 0.43275 0.0
C553 C 0.27531 0.20649 0.41174 0.0
H554 H 0.24758 0.20418 0.47447 0.0
H555 H 0.28817 0.14238 0.43213 0.0
O556 O 0.25117 0.10958 0.54074 0.0
O557 O 0.22652 0.15477 0.5039 0.0
O558 O 0.28796 0.15444 0.51546 0.0
O559 O 0.26263 0.10925 0.47915 0.0
H560 H 0.23595 0.06902 0.57168 0.0
H561 H 0.29098 0.1359 0.56542 0.0
H562 H 0.25615 0.05767 0.61625 0.0
H563 H 0.31017 0.12339 0.60997 0.0
H564 H 0.15194 0.20754 0.50881 0.0
H565 H 0.20169 0.12871 0.54377 0.0
H566 H 0.19615 0.19569 0.4886 0.0
H567 H 0.1575 0.14173 0.56297 0.0
H568 H 0.21889 0.17389 0.62593 0.0
H569 H 0.26133 0.23626 0.58246 0.0
H570 H 0.18243 0.02884 0.51317 0.0
H571 H 0.14082 0.09216 0.4702 0.0
H572 H 0.31226 0.1278 0.47574 0.0
H573 H 0.3191 0.19489 0.53046 0.0
H574 H 0.35669 0.13998 0.45644 0.0
H575 H 0.36353 0.20589 0.51016 0.0
H576 H 0.2773 0.06817 0.44879 0.0
H577 H 0.22325 0.13581 0.45406 0.0
H578 H 0.25699 0.05659 0.40435 0.0
H579 H 0.20392 0.12306 0.40966 0.0
H580 H 0.33015 0.02783 0.50748 0.0
H581 H 0.37288 0.09097 0.54955 0.0
H582 H 0.25424 0.2358 0.43624 0.0
H583 H 0.2955 0.17264 0.39307 0.0
Li584 Li 0.39911 0.50461 0.78425 0.0
Li585 Li 0.36412 0.53412 0.76489 0.0
Li586 Li 0.36515 0.4839 0.7559 0.0
Li587 Li 0.39843 0.51389 0.73416 0.0
C588 C 0.35793 0.50045 0.81791 0.0
N589 N 0.35609 0.49461 0.8734 0.0
C590 C 0.35131 0.52242 0.83423 0.0
C591 C 0.36332 0.47544 0.82976 0.0
C592 C 0.35055 0.51908 0.86226 0.0
C593 C 0.36238 0.47292 0.85787 0.0
C594 C 0.41287 0.56503 0.76077 0.0
C595 C 0.41764 0.60422 0.7323 0.0
N596 N 0.43122 0.61697 0.7525 0.0
C597 C 0.42707 0.57842 0.78117 0.0
C598 C 0.40826 0.57794 0.73608 0.0
C599 C 0.4361 0.60472 0.77663 0.0
C600 C 0.44063 0.48009 0.81538 0.0
N601 N 0.42283 0.5008 0.81454 0.0
C602 C 0.44099 0.51857 0.85564 0.0
C603 C 0.42221 0.51945 0.83455 0.0
C604 C 0.46227 0.49955 0.85537 0.0
C605 C 0.45993 0.47867 0.83597 0.0
H606 H 0.44014 0.46483 0.79983 0.0
H607 H 0.4072 0.53524 0.83404 0.0
C608 C 0.31548 0.56343 0.76184 0.0
N609 N 0.34131 0.56452 0.77112 0.0
C610 C 0.29818 0.58536 0.76537 0.0
C611 C 0.3341 0.60884 0.78865 0.0
C612 C 0.35071 0.58647 0.78467 0.0
C613 C 0.3076 0.6084 0.77876 0.0
H614 H 0.30842 0.54559 0.75145 0.0
H615 H 0.37106 0.58661 0.79248 0.0
C616 C 0.40864 0.45322 0.74624 0.0
N617 N 0.41492 0.40013 0.73077 0.0
C618 C 0.41654 0.44703 0.71987 0.0
C619 C 0.40419 0.43245 0.76481 0.0
C620 C 0.41958 0.42005 0.71243 0.0
C621 C 0.40737 0.40573 0.75657 0.0
C622 C 0.34745 0.5225 0.70642 0.0
C623 C 0.33881 0.50353 0.68741 0.0
C624 C 0.34449 0.54999 0.70086 0.0
C625 C 0.32762 0.51238 0.66302 0.0
C626 C 0.33319 0.55803 0.67625 0.0
N627 N 0.32508 0.53921 0.65798 0.0
C628 C 0.32358 0.44708 0.76908 0.0
C629 C 0.34564 0.43764 0.72769 0.0
C630 C 0.30632 0.42509 0.7654 0.0
N631 N 0.34276 0.45291 0.75034 0.0
C632 C 0.32902 0.41533 0.72334 0.0
C633 C 0.30904 0.40902 0.74229 0.0
H634 H 0.3215 0.45968 0.78676 0.0
H635 H 0.36069 0.4429 0.71286 0.0
C636 C 0.44841 0.51818 0.70873 0.0
N637 N 0.4215 0.51974 0.70357 0.0
C638 C 0.46711 0.52185 0.68793 0.0
C639 C 0.43009 0.52895 0.65687 0.0
C640 C 0.41212 0.52497 0.67821 0.0
C641 C 0.45791 0.52734 0.66168 0.0
H642 H 0.45533 0.51396 0.72905 0.0
H643 H 0.39078 0.52608 0.67436 0.0
O644 O 0.35908 0.5034 0.79047 0.0
O645 O 0.40388 0.53929 0.76495 0.0
O646 O 0.40537 0.4795 0.75383 0.0
O647 O 0.35837 0.51416 0.73045 0.0
H648 H 0.347 0.54189 0.82536 0.0
H649 H 0.36829 0.45821 0.81738 0.0
H650 H 0.34561 0.53594 0.87517 0.0
H651 H 0.36666 0.45372 0.86733 0.0
H652 H 0.41417 0.61446 0.71329 0.0
H653 H 0.43097 0.56865 0.80035 0.0
H654 H 0.39773 0.56773 0.71994 0.0
H655 H 0.447 0.61538 0.79229 0.0
H656 H 0.43802 0.53274 0.87179 0.0
H657 H 0.47277 0.46111 0.83634 0.0
H658 H 0.27776 0.58447 0.75759 0.0
H659 H 0.34183 0.62633 0.79922 0.0
H660 H 0.42008 0.46286 0.70523 0.0
H661 H 0.39815 0.43691 0.78531 0.0
H662 H 0.42556 0.41494 0.69206 0.0
H663 H 0.4038 0.38943 0.77067 0.0
H664 H 0.34081 0.48222 0.69135 0.0
H665 H 0.35077 0.56501 0.71537 0.0
H666 H 0.32095 0.49791 0.64809 0.0
H667 H 0.33085 0.57923 0.67169 0.0
H668 H 0.29097 0.4207 0.78031 0.0
H669 H 0.33144 0.40333 0.70524 0.0
H670 H 0.48848 0.52045 0.69224 0.0
H671 H 0.42241 0.53315 0.63679 0.0
Li672 Li 0.78331 0.40055 0.50514 0.0
Li673 Li 0.7636 0.36596 0.5333 0.0
Li674 Li 0.75504 0.36649 0.48489 0.0
Li675 Li 0.73505 0.40026 0.51371 0.0
C676 C 0.81459 0.35461 0.51455 0.0
N677 N 0.86395 0.34134 0.53691 0.0
C678 C 0.82527 0.36996 0.5357 0.0
C679 C 0.82901 0.33251 0.50477 0.0
C680 C 0.85025 0.36293 0.54673 0.0
C681 C 0.85394 0.32613 0.51634 0.0
C682 C 0.7539 0.41173 0.56486 0.0
C683 C 0.72207 0.403 0.60062 0.0
N684 N 0.7317 0.42473 0.61432 0.0
C685 C 0.76348 0.43397 0.57929 0.0
C686 C 0.73302 0.3961 0.57558 0.0
C687 C 0.75199 0.44021 0.60427 0.0
C688 C 0.81211 0.44935 0.50879 0.0
N689 N 0.81362 0.42366 0.49936 0.0
C690 C 0.85751 0.432 0.48123 0.0
C691 C 0.83568 0.41477 0.48572 0.0
C692 C 0.85644 0.45854 0.49078 0.0
C693 C 0.83347 0.46728 0.50469 0.0
H694 H 0.79423 0.4559 0.51939 0.0
H695 H 0.83632 0.39433 0.47822 0.0
C696 C 0.75981 0.31712 0.56217 0.0
N697 N 0.76942 0.34276 0.56371 0.0
C698 C 0.76349 0.29924 0.58373 0.0
C699 C 0.78697 0.33446 0.60803 0.0
C700 C 0.7829 0.35163 0.58599 0.0
C701 C 0.77717 0.30798 0.60695 0.0
H702 H 0.7493 0.31058 0.54414 0.0
H703 H 0.7905 0.37204 0.58669 0.0
C704 C 0.76434 0.41304 0.45423 0.0
N705 N 0.7863 0.42737 0.40497 0.0
C706 C 0.75451 0.43547 0.44024 0.0
C707 C 0.78534 0.39789 0.44316 0.0
C708 C 0.76588 0.44239 0.41536 0.0
C709 C 0.79617 0.40546 0.41824 0.0
C710 C 0.70412 0.35419 0.50344 0.0
C711 C 0.69326 0.36992 0.48263 0.0
C712 C 0.68993 0.33169 0.51275 0.0
C713 C 0.66834 0.36285 0.47148 0.0
C714 C 0.66507 0.32528 0.50107 0.0
N715 N 0.65487 0.34086 0.48085 0.0
C716 C 0.75958 0.31852 0.45492 0.0
C717 C 0.73585 0.3532 0.43194 0.0
C718 C 0.75613 0.30114 0.43297 0.0
N719 N 0.74951 0.34399 0.454 0.0
C720 C 0.73199 0.33652 0.40953 0.0
C721 C 0.74221 0.31021 0.41 0.0
H722 H 0.77024 0.31172 0.47276 0.0
H723 H 0.72791 0.37348 0.43174 0.0
C724 C 0.70602 0.4489 0.51076 0.0
N725 N 0.70459 0.42305 0.51984 0.0
C726 C 0.68458 0.46664 0.51505 0.0
C727 C 0.66063 0.43087 0.53801 0.0
C728 C 0.68253 0.41382 0.53332 0.0
C729 C 0.66162 0.45757 0.52881 0.0
H730 H 0.72389 0.45572 0.50028 0.0
H731 H 0.68195 0.39325 0.54053 0.0
O732 O 0.79008 0.3609 0.50346 0.0
O733 O 0.76486 0.4056 0.54027 0.0
O734 O 0.75347 0.40623 0.4787 0.0
O735 O 0.72858 0.3605 0.51462 0.0
H736 H 0.81447 0.38716 0.54354 0.0
H737 H 0.82102 0.32042 0.48841 0.0
H738 H 0.85875 0.37464 0.5631 0.0
H739 H 0.86531 0.30907 0.50898 0.0
H740 H 0.70591 0.39108 0.60915 0.0
H741 H 0.77961 0.44628 0.57124 0.0
H742 H 0.72532 0.37882 0.56474 0.0
H743 H 0.75921 0.45738 0.61565 0.0
H744 H 0.875 0.42477 0.47036 0.0
H745 H 0.83213 0.48772 0.51225 0.0
H746 H 0.75575 0.27887 0.58236 0.0
H747 H 0.79766 0.34169 0.62572 0.0
H748 H 0.73826 0.44741 0.44855 0.0
H749 H 0.79322 0.38046 0.45365 0.0
H750 H 0.75847 0.45971 0.40432 0.0
H751 H 0.81242 0.39391 0.40946 0.0
H752 H 0.70388 0.38742 0.47515 0.0
H753 H 0.69808 0.3193 0.52884 0.0
H754 H 0.6597 0.37485 0.45537 0.0
H755 H 0.65387 0.30791 0.50808 0.0
H756 H 0.76414 0.28086 0.43387 0.0
H757 H 0.72107 0.34398 0.39207 0.0
H758 H 0.68587 0.4872 0.50776 0.0
H759 H 0.64315 0.42337 0.54875 0.0
Li760 Li 0.65315 0.9807 0.76323 0.0
Li761 Li 0.61928 0.01079 0.78355 0.0
Li762 Li 0.6196 1.0014 0.7327 0.0
Li763 Li 0.65399 0.02883 0.75412 0.0
C764 C 0.59893 0.95315 0.76557 0.0
N765 N 0.56904 0.90619 0.76943 0.0
C766 C 0.58945 0.94431 0.79069 0.0
C767 C 0.59274 0.93826 0.74237 0.0
C768 C 0.57452 0.92048 0.79223 0.0
C769 C 0.57773 0.91455 0.74475 0.0
C770 C 0.66591 1.00123 0.8146 0.0
C771 C 0.69231 1.00407 0.85551 0.0
N772 N 0.67964 0.98171 0.86513 0.0
C773 C 0.65324 0.97826 0.82486 0.0
C774 C 0.68569 0.01422 0.82998 0.0
C775 C 0.66042 0.9687 0.85044 0.0
C776 C 0.7022 0.9531 0.7652 0.0
N777 N 0.67535 0.94978 0.7696 0.0
C778 C 0.68228 0.90389 0.78272 0.0
C779 C 0.66514 0.92579 0.7782 0.0
C780 C 0.71003 0.90683 0.77828 0.0
C781 C 0.72004 0.93173 0.7694 0.0
H782 H 0.70973 0.97242 0.7584 0.0
H783 H 0.64378 0.92363 0.78169 0.0
C784 C 0.5699 0.00923 0.81127 0.0
N785 N 0.59613 0.01696 0.81364 0.0
C786 C 0.55205 0.01293 0.83275 0.0
C787 C 0.58838 0.03295 0.85855 0.0
C788 C 0.60554 0.02889 0.83655 0.0
C789 C 0.56136 0.02482 0.8567 0.0
H790 H 0.56291 1.00011 0.79269 0.0
H791 H 0.62634 0.03533 0.83775 0.0
C792 C 0.66728 0.9823 0.70758 0.0
N793 N 0.68304 0.94796 0.66663 0.0
C794 C 0.68442 0.99149 0.68716 0.0
C795 C 0.6584 0.95557 0.70731 0.0
C796 C 0.69208 0.97385 0.66657 0.0
C797 C 0.66653 0.93853 0.68642 0.0
C798 C 0.61481 0.06276 0.74741 0.0
C799 C 0.61455 0.07212 0.72077 0.0
C800 C 0.61665 0.08108 0.76876 0.0
C801 C 0.61641 0.0998 0.71589 0.0
C802 C 0.61851 0.1086 0.76304 0.0
N803 N 0.61837 0.11731 0.73695 0.0
C804 C 0.56935 0.99551 0.7076 0.0
C805 C 0.60568 0.99487 0.67654 0.0
C806 C 0.55078 0.99188 0.68662 0.0
N807 N 0.59622 0.99673 0.70227 0.0
C808 C 0.58785 0.99091 0.65499 0.0
C809 C 0.56006 0.98936 0.65999 0.0
H810 H 0.56239 0.99724 0.72824 0.0
H811 H 0.62701 0.99648 0.67263 0.0
C812 C 0.68296 0.06677 0.72271 0.0
N813 N 0.67657 0.05946 0.74842 0.0
C814 C 0.69934 0.08921 0.71801 0.0
C815 C 0.70215 0.09623 0.76631 0.0
C816 C 0.68566 0.07369 0.77009 0.0
C817 C 0.70916 0.10408 0.74001 0.0
H818 H 0.67514 0.05526 0.70588 0.0
H819 H 0.67997 0.06758 0.79027 0.0
O820 O 0.61336 0.97666 0.76363 0.0
O821 O 0.65926 0.01092 0.78955 0.0
O822 O 0.65972 0.99936 0.72791 0.0
O823 O 0.614 0.03572 0.75256 0.0
H824 H 0.59344 0.95572 0.80886 0.0
H825 H 0.59921 0.94497 0.72263 0.0
H826 H 0.56719 0.91339 0.81156 0.0
H827 H 0.57289 0.90284 0.72695 0.0
H828 H 0.70754 0.01395 0.86766 0.0
H829 H 0.63817 0.96786 0.81311 0.0
H830 H 0.69583 0.03195 0.82229 0.0
H831 H 0.65075 0.95092 0.85859 0.0
H832 H 0.67403 0.88488 0.78964 0.0
H833 H 0.7414 0.93455 0.76583 0.0
H834 H 0.53123 1.00661 0.83074 0.0
H835 H 0.59602 0.04238 0.87675 0.0
H836 H 0.6917 0.01205 0.68717 0.0
H837 H 0.64566 0.94797 0.72321 0.0
H838 H 0.70524 0.98073 0.65058 0.0
H839 H 0.6598 0.91779 0.68601 0.0
H840 H 0.61326 0.05811 0.70405 0.0
H841 H 0.61702 0.07406 0.78949 0.0
H842 H 0.61642 0.10736 0.69537 0.0
H843 H 0.62017 0.12303 0.77933 0.0
H844 H 0.52944 0.99087 0.6911 0.0
H845 H 0.59559 0.98919 0.63461 0.0
H846 H 0.70436 0.09489 0.69748 0.0
H847 H 0.70939 0.10742 0.78366 0.0
Li848 Li 0.0328 0.2646 0.86656 0.0
Li849 Li 1.00516 0.28391 0.90057 0.0
Li850 Li 0.01518 0.23638 0.90158 0.0
Li851 Li 0.9827 0.2553 0.86703 0.0
C852 C 0.06729 0.2736 0.90324 0.0
N853 N 0.1207 0.28777 0.8956 0.0
C854 C 0.0752 0.30063 0.90461 0.0
C855 C 0.08662 0.25381 0.89786 0.0
C856 C 0.10228 0.30737 0.90075 0.0
C857 C 0.11349 0.26137 0.89408 0.0
C858 C 0.99317 0.3159 0.85892 0.0
C859 C 0.95803 0.34794 0.84856 0.0
N860 N 0.9749 0.36843 0.85551 0.0
C861 C 0.01019 0.33731 0.86581 0.0
C862 C 0.96688 0.32125 0.85016 0.0
C863 C 1.00056 0.36371 0.86403 0.0
C864 C 0.07127 0.2953 0.83666 0.0
N865 N 0.06227 0.26992 0.84191 0.0
C866 C 0.09592 0.25122 0.81289 0.0
C867 C 0.07393 0.24804 0.83022 0.0
C868 C 0.10576 0.27715 0.80752 0.0
C869 C 0.09321 0.2994 0.81949 0.0
H870 H 0.06166 0.31236 0.84604 0.0
H871 H 0.06627 0.22812 0.83445 0.0
C872 C 0.97576 0.32909 0.9221 0.0
N873 N 0.99853 0.31393 0.92446 0.0
C874 C 0.97097 0.35035 0.93993 0.0
C875 C 0.01266 0.33959 0.96291 0.0
C876 C 0.01656 0.31844 0.94475 0.0
C877 C 0.9897 0.35582 0.96043 0.0
H878 H 0.96114 0.32452 0.90657 0.0
H879 H 0.03386 0.30541 0.94703 0.0
C880 C 0.01366 0.20203 0.86192 0.0
N881 N 0.01319 0.14637 0.86469 0.0
C882 C 0.98971 0.1878 0.85751 0.0
C883 C 0.03741 0.1879 0.86755 0.0
C884 C 0.98989 0.15968 0.859 0.0
C885 C 0.03674 0.15979 0.86895 0.0
C886 C 0.96613 0.26102 0.92934 0.0
C887 C 0.97862 0.25817 0.95454 0.0
C888 C 0.94052 0.27263 0.92763 0.0
C889 C 0.96531 0.2672 0.97766 0.0
C890 C 0.92786 0.28138 0.95124 0.0
N891 N 0.94042 0.27853 0.97555 0.0
C892 C 0.04462 0.20239 0.93761 0.0
C893 C 0.99962 0.18869 0.92884 0.0
C894 C 0.04864 0.18018 0.9545 0.0
N895 N 0.02053 0.20602 0.92492 0.0
C896 C 1.00266 0.16635 0.94584 0.0
C897 C 0.02747 0.16192 0.95876 0.0
H898 H 0.06066 0.2168 0.93482 0.0
H899 H 0.98057 0.19227 0.91878 0.0
C900 C 0.95439 0.25375 0.81804 0.0
N901 N 0.95183 0.24897 0.84499 0.0
C902 C 0.93259 0.24948 0.80063 0.0
C903 C 0.90601 0.2351 0.83898 0.0
C904 C 0.92833 0.23972 0.85569 0.0
C905 C 0.90811 0.24007 0.81113 0.0
H906 H 0.97339 0.26098 0.81014 0.0
H907 H 0.927 0.23574 0.87714 0.0
O908 O 0.04072 0.26662 0.90637 0.0
O909 O 1.00216 0.28987 0.8606 0.0
O910 O 0.01371 0.22962 0.86133 0.0
O911 O 0.97923 0.2531 0.90641 0.0
H912 H 0.06059 0.31635 0.9082 0.0
H913 H 0.08089 0.23289 0.89597 0.0
H914 H 0.10861 0.32822 0.90167 0.0
H915 H 0.12857 0.24627 0.88972 0.0
H916 H 0.93772 0.35235 0.8419 0.0
H917 H 0.03041 0.33362 0.87305 0.0
H918 H 0.95334 0.30501 0.84484 0.0
H919 H 0.01345 0.38043 0.86956 0.0
H920 H 0.1052 0.23368 0.80382 0.0
H921 H 0.10039 0.31967 0.81564 0.0
H922 H 0.95288 0.36239 0.93779 0.0
H923 H 0.02724 0.34314 0.97885 0.0
H924 H 0.97112 0.19831 0.85319 0.0
H925 H 0.05608 0.19853 0.87133 0.0
H926 H 0.97147 0.14843 0.85574 0.0
H927 H 0.05492 0.14864 0.87357 0.0
H928 H 0.99855 0.24943 0.95616 0.0
H929 H 0.93072 0.27527 0.90824 0.0
H930 H 0.9748 0.26531 0.99728 0.0
H931 H 0.90812 0.29057 0.95021 0.0
H932 H 0.06794 0.17741 0.9644 0.0
H933 H 0.98589 0.15269 0.94889 0.0
H934 H 0.93479 0.25342 0.77921 0.0
H935 H 0.88736 0.22769 0.84759 0.0
Li936 Li 0.53351 0.76325 0.36789 0.0
Li937 Li 0.50332 0.78279 0.402 0.0
Li938 Li 0.51439 0.73268 0.40232 0.0
Li939 Li 0.48411 0.75218 0.36786 0.0
C940 C 0.56587 0.76812 0.41092 0.0
N941 N 0.62091 0.77563 0.41567 0.0
C942 C 0.57641 0.794 0.41464 0.0
C943 C 0.5833 0.74604 0.41006 0.0
C944 C 0.6043 0.79738 0.4169 0.0
C945 C 0.61107 0.75025 0.41237 0.0
C946 C 0.50135 0.81455 0.35581 0.0
C947 C 0.48152 0.85205 0.33186 0.0
N948 N 0.49931 0.86902 0.34408 0.0
C949 C 0.51957 0.83236 0.36791 0.0
C950 C 0.48227 0.82445 0.33748 0.0
C951 C 0.51817 0.85982 0.36181 0.0
C952 C 0.56804 0.79261 0.3319 0.0
N953 N 0.56471 0.769 0.34552 0.0
C954 C 0.6053 0.75145 0.3262 0.0
C955 C 0.58288 0.74861 0.34305 0.0
C956 C 0.60913 0.77564 0.31201 0.0
C957 C 0.59033 0.79647 0.31515 0.0
H958 H 0.55328 0.80839 0.33364 0.0
H959 H 0.57983 0.72999 0.354 0.0
C960 C 0.51097 0.81487 0.44826 0.0
N961 N 0.49652 0.81311 0.42492 0.0
C962 C 0.50709 0.83653 0.46584 0.0
C963 C 0.47339 0.85414 0.43516 0.0
C964 C 0.47784 0.83209 0.41822 0.0
C965 C 0.48816 0.85643 0.45924 0.0
H966 H 0.52553 0.7994 0.45321 0.0
H967 H 0.46648 0.83021 0.39964 0.0
C968 C 0.51587 0.70104 0.3554 0.0
N969 N 0.51699 0.647 0.34187 0.0
C970 C 0.49799 0.68295 0.36757 0.0
C971 C 0.53416 0.69165 0.33614 0.0
C972 C 0.49891 0.65572 0.36054 0.0
C973 C 0.53445 0.66426 0.32962 0.0
C974 C 0.452 0.74681 0.4111 0.0
C975 C 0.44213 0.72074 0.41525 0.0
C976 C 0.43404 0.76847 0.41019 0.0
C977 C 0.41437 0.71672 0.41783 0.0
C978 C 0.40641 0.76363 0.41282 0.0
N979 N 0.39722 0.73806 0.41652 0.0
C980 C 0.50738 0.70137 0.44924 0.0
C981 C 0.53907 0.68289 0.4186 0.0
C982 C 0.5112 0.6798 0.46702 0.0
N983 N 0.52113 0.70245 0.4255 0.0
C984 C 0.54342 0.6609 0.43574 0.0
C985 C 0.52934 0.65929 0.46022 0.0
H986 H 0.49341 0.71729 0.45432 0.0
H987 H 0.54992 0.68427 0.39972 0.0
C988 C 0.44959 0.72284 0.3316 0.0
N989 N 0.45283 0.7463 0.34546 0.0
C990 C 0.42723 0.71906 0.31481 0.0
C991 C 0.41203 0.76383 0.32632 0.0
C992 C 0.43449 0.76658 0.34323 0.0
C993 C 0.40829 0.73981 0.31186 0.0
H994 H 0.46445 0.70714 0.33314 0.0
H995 H 0.43745 0.78506 0.3544 0.0
O996 O 0.53864 0.7644 0.40814 0.0
O997 O 0.502 0.78764 0.36203 0.0
O998 O 0.5157 0.72772 0.36248 0.0
O999 O 0.47909 0.75115 0.40807 0.0
H1000 H 0.56326 0.81129 0.41595 0.0
H1001 H 0.57552 0.72591 0.40722 0.0
H1002 H 0.61273 0.81731 0.41968 0.0
H1003 H 0.6248 0.73335 0.41145 0.0
H1004 H 0.46683 0.85996 0.31775 0.0
H1005 H 0.53456 0.82504 0.38195 0.0
H1006 H 0.46832 0.81097 0.32749 0.0
H1007 H 0.53207 0.87381 0.3712 0.0
H1008 H 0.61944 0.73496 0.32414 0.0
H1009 H 0.59267 0.81534 0.30436 0.0
H1010 H 0.51871 0.83779 0.48437 0.0
H1011 H 0.45858 0.86921 0.42963 0.0
H1012 H 0.48362 0.68989 0.38233 0.0
H1013 H 0.54786 0.70537 0.32616 0.0
H1014 H 0.48527 0.64151 0.36993 0.0
H1015 H 0.54853 0.65673 0.31477 0.0
H1016 H 0.45571 0.70377 0.41665 0.0
H1017 H 0.4413 0.78876 0.40709 0.0
H1018 H 0.40645 0.69663 0.42094 0.0
H1019 H 0.39228 0.7802 0.41187 0.0
H1020 H 0.50012 0.67906 0.48585 0.0
H1021 H 0.55762 0.64535 0.43004 0.0
H1022 H 0.42496 0.70031 0.30383 0.0
H1023 H 0.39778 0.78026 0.32443 0.0
Li1024 Li 0.01386 0.78314 0.61796 0.0
Li1025 Li 0.98719 0.75985 0.65445 0.0
Li1026 Li 0.03535 0.75289 0.65075 0.0
Li1027 Li 1.00547 0.73288 0.61893 0.0
C1028 C 0.02752 0.79664 0.6808 0.0
N1029 N 0.05257 0.81304 0.72795 0.0
C1030 C 0.02073 0.78466 0.70546 0.0
C1031 C 0.04706 0.81695 0.68012 0.0
C1032 C 0.03361 0.79325 0.72907 0.0
C1033 C 0.0595 0.82495 0.70418 0.0
C1034 C 0.9531 0.77226 0.61561 0.0
C1035 C 0.90571 0.76547 0.62427 0.0
N1036 N 0.90106 0.79191 0.61873 0.0
C1037 C 0.94782 0.79936 0.60992 0.0
C1038 C 0.93186 0.75514 0.62276 0.0
C1039 C 0.92138 0.8089 0.61162 0.0
C1040 C 0.01626 0.80989 0.5681 0.0
N1041 N 0.01753 0.81388 0.59526 0.0
C1042 C 0.02551 0.86098 0.58882 0.0
C1043 C 0.02172 0.83881 0.60588 0.0
C1044 C 0.02465 0.85733 0.56072 0.0
C1045 C 0.01974 0.8315 0.55032 0.0
H1046 H 0.01284 0.78982 0.5603 0.0
H1047 H 0.02222 0.84146 0.62754 0.0
C1048 C 0.94778 0.79121 0.68113 0.0
N1049 N 0.95786 0.7658 0.67891 0.0
C1050 C 0.926 0.79638 0.69822 0.0
C1051 C 0.9258 0.74931 0.71098 0.0
C1052 C 0.94762 0.74506 0.69369 0.0
C1053 C 0.91476 0.77519 0.71321 0.0
H1054 H 0.95658 0.8074 0.66944 0.0
H1055 H 0.95641 0.72523 0.69214 0.0
C1056 C 0.06636 0.75224 0.6063 0.0
N1057 N 0.12145 0.75096 0.59794 0.0
C1058 C 0.08124 0.7293 0.61323 0.0
C1059 C 0.07952 0.77446 0.59494 0.0
C1060 C 0.10907 0.72909 0.60893 0.0
C1061 C 0.10737 0.77342 0.59089 0.0
C1062 C 1.0043 0.69829 0.65632 0.0
C1063 C 0.02695 0.68154 0.65608 0.0
C1064 C 0.97864 0.68704 0.65295 0.0
C1065 C 0.02355 0.65381 0.65249 0.0
C1066 C 0.9761 0.65923 0.64937 0.0
N1067 N 0.99841 0.64333 0.64922 0.0
C1068 C 0.06929 0.73184 0.69269 0.0
C1069 C 0.08859 0.76721 0.66691 0.0
C1070 C 0.09261 0.73002 0.70858 0.0
N1071 N 0.06788 0.74994 0.67202 0.0
C1072 C 0.11223 0.76603 0.68218 0.0
C1073 C 0.11438 0.7472 0.70317 0.0
H1074 H 0.05221 0.71902 0.69705 0.0
H1075 H 0.08667 0.78213 0.65111 0.0
C1076 C 0.97363 0.69818 0.58585 0.0
N1077 N 0.99907 0.70299 0.59501 0.0
C1078 C 0.96851 0.67655 0.56851 0.0
C1079 C 0.01594 0.66547 0.56987 0.0
C1080 C 0.02011 0.68722 0.58728 0.0
C1081 C 0.98988 0.66 0.56034 0.0
H1082 H 0.95729 0.71111 0.59201 0.0
H1083 H 0.04014 0.69147 0.59465 0.0
O1084 O 0.01576 0.78784 0.65737 0.0
O1085 O 0.97896 0.76266 0.61456 0.0
O1086 O 0.03909 0.75297 0.61048 0.0
O1087 O 1.00727 0.72561 0.65902 0.0
H1088 H 1.00599 0.7686 0.70632 0.0
H1089 H 0.05297 0.82607 0.66117 0.0
H1090 H 0.02864 0.78408 0.74828 0.0
H1091 H 0.07479 0.84052 0.70393 0.0
H1092 H 0.88913 0.75248 0.62998 0.0
H1093 H 0.96394 0.81296 0.60445 0.0
H1094 H 0.93555 0.73422 0.62761 0.0
H1095 H 0.91704 0.82985 0.60737 0.0
H1096 H 0.02916 0.88073 0.5974 0.0
H1097 H 0.01891 0.82811 0.52871 0.0
H1098 H 0.91792 0.81659 0.69967 0.0
H1099 H 0.91763 0.73264 0.72251 0.0
H1100 H 0.07156 0.71209 0.62242 0.0
H1101 H 0.06843 0.79239 0.58945 0.0
H1102 H 0.12085 0.71158 0.61447 0.0
H1103 H 0.1178 0.79051 0.5822 0.0
H1104 H 0.04699 0.68981 0.65831 0.0
H1105 H 0.96091 0.69967 0.65248 0.0
H1106 H 0.04092 0.64065 0.65215 0.0
H1107 H 0.95638 0.65031 0.64651 0.0
H1108 H 0.09365 0.71549 0.7249 0.0
H1109 H 0.12864 0.77977 0.67777 0.0
H1110 H 0.94817 0.67282 0.56141 0.0
H1111 H 0.03284 0.65305 0.56385 0.0
Li1112 Li 0.509 0.28425 0.11491 0.0
Li1113 Li 0.48251 0.26095 0.14963 0.0
Li1114 Li 0.53248 0.2574 0.14939 0.0
Li1115 Li 0.50544 0.23423 0.11496 0.0
C1116 C 0.51709 0.31707 0.15444 0.0
N1117 N 0.53122 0.37099 0.15204 0.0
C1118 C 0.49908 0.33688 0.16328 0.0
C1119 C 0.5421 0.32483 0.14406 0.0
C1120 C 0.50667 0.36399 0.16203 0.0
C1121 C 0.54891 0.35213 0.14306 0.0
C1122 C 0.44918 0.26845 0.11038 0.0
C1123 C 0.40222 0.25756 0.10321 0.0
N1124 N 0.39515 0.28204 0.11326 0.0
C1125 C 0.44135 0.29339 0.12084 0.0
C1126 C 0.42939 0.25025 0.10172 0.0
C1127 C 0.41399 0.29993 0.12208 0.0
C1128 C 0.53041 0.31308 0.07067 0.0
N1129 N 0.51155 0.31483 0.09051 0.0
C1130 C 0.49916 0.35902 0.07533 0.0
C1131 C 0.49576 0.33716 0.09285 0.0
C1132 C 0.51945 0.35822 0.05563 0.0
C1133 C 0.53515 0.33483 0.05335 0.0
H1134 H 0.54186 0.29477 0.06831 0.0
H1135 H 0.48077 0.33838 0.1085 0.0
C1136 C 0.45472 0.28274 0.19403 0.0
N1137 N 0.45238 0.26377 0.17434 0.0
C1138 C 0.43342 0.28771 0.21174 0.0
C1139 C 0.40843 0.25176 0.19039 0.0
C1140 C 0.42986 0.24813 0.17247 0.0
C1141 C 0.40989 0.27211 0.21002 0.0
H1142 H 0.47318 0.29408 0.196 0.0
H1143 H 0.42818 0.23305 0.15692 0.0
C1144 C 0.56519 0.25002 0.10973 0.0
N1145 N 0.61926 0.2364 0.1119 0.0
C1146 C 0.5732 0.22507 0.12011 0.0
C1147 C 0.58483 0.26823 0.10078 0.0
C1148 C 0.60058 0.21851 0.12099 0.0
C1149 C 0.61201 0.2609 0.10191 0.0
C1150 C 0.49807 0.20126 0.15459 0.0
C1151 C 0.51627 0.1815 0.16328 0.0
C1152 C 0.47293 0.19342 0.14446 0.0
C1153 C 0.50876 0.15436 0.16216 0.0
C1154 C 0.4662 0.1661 0.14357 0.0
N1155 N 0.48409 0.14729 0.15242 0.0
C1156 C 0.56084 0.23545 0.19357 0.0
C1157 C 0.58556 0.26994 0.17168 0.0
C1158 C 0.58241 0.23029 0.21102 0.0
N1159 N 0.56298 0.25444 0.17383 0.0
C1160 C 0.60727 0.26612 0.18935 0.0
C1161 C 0.60602 0.24573 0.209 0.0
H1162 H 0.54233 0.22425 0.19579 0.0
H1163 H 0.58708 0.28504 0.1561 0.0
C1164 C 0.48328 0.20554 0.07105 0.0
N1165 N 0.50248 0.20374 0.09066 0.0
C1166 C 0.47826 0.18384 0.05379 0.0
C1167 C 0.51459 0.15958 0.07538 0.0
C1168 C 0.51828 0.18139 0.09286 0.0
C1169 C 0.49404 0.16047 0.05586 0.0
H1170 H 0.47181 0.22386 0.0688 0.0
H1171 H 0.53353 0.18014 0.10833 0.0
O1172 O 0.50997 0.29035 0.15486 0.0
O1173 O 0.47596 0.26162 0.10969 0.0
O1174 O 0.5384 0.25687 0.10938 0.0
O1175 O 0.5051 0.228 0.15489 0.0
H1176 H 0.47924 0.33161 0.17052 0.0
H1177 H 0.55567 0.30999 0.13586 0.0
H1178 H 0.49292 0.37949 0.16878 0.0
H1179 H 0.56814 0.35834 0.13484 0.0
H1180 H 0.38675 0.24366 0.09659 0.0
H1181 H 0.45617 0.30708 0.12895 0.0
H1182 H 0.43472 0.23047 0.09443 0.0
H1183 H 0.40773 0.31908 0.13036 0.0
H1184 H 0.48651 0.37667 0.07753 0.0
H1185 H 0.5508 0.33336 0.03818 0.0
H1186 H 0.43538 0.3034 0.22683 0.0
H1187 H 0.39063 0.2392 0.18862 0.0
H1188 H 0.55852 0.21137 0.12844 0.0
H1189 H 0.57937 0.28802 0.09353 0.0
H1190 H 0.60698 0.19934 0.12921 0.0
H1191 H 0.62737 0.27481 0.09507 0.0
H1192 H 0.5362 0.18682 0.17031 0.0
H1193 H 0.45921 0.20821 0.13634 0.0
H1194 H 0.52266 0.13891 0.16879 0.0
H1195 H 0.44688 0.15983 0.13555 0.0
H1196 H 0.58061 0.21456 0.22612 0.0
H1197 H 0.62512 0.27856 0.18734 0.0
H1198 H 0.46241 0.18537 0.03876 0.0
H1199 H 0.52729 0.14194 0.07743 0.0
C1200 C 0.21411 0.75423 0.86592 0.0
C1201 C 0.23002 0.75876 0.84256 0.0
C1202 C 0.25393 0.79553 0.86553 0.0
C1203 C 0.2366 0.79239 0.88811 0.0
N1204 N 0.19802 0.77138 0.9089 0.0
N1205 N 0.26262 0.78556 0.81836 0.0
C1206 C 0.21609 0.7724 0.88809 0.0
C1207 C 0.24926 0.77995 0.84187 0.0
N1208 N 0.19752 0.73223 0.86706 0.0
N1209 N 0.27535 0.81286 0.86706 0.0
H1210 H 0.26032 0.77414 0.80081 0.0
H1211 H 0.27451 0.80263 0.81555 0.0
H1212 H 0.27924 0.82485 0.88393 0.0
H1213 H 0.29049 0.81391 0.85256 0.0
H1214 H 0.1876 0.72604 0.88452 0.0
H1215 H 0.1951 0.7189 0.85093 0.0
H1216 H 0.18085 0.75931 0.90879 0.0
H1217 H 0.19908 0.78413 0.92562 0.0
C1218 C 0.02351 0.5186 0.42581 0.0
C1219 C 1.00488 0.54028 0.4248 0.0
C1220 C 0.0239 0.55509 0.38151 0.0
C1221 C 0.04083 0.53204 0.38136 0.0
N1222 N 0.05404 0.48957 0.40109 0.0
N1223 N 0.98419 0.57671 0.39998 0.0
C1224 C 0.03989 0.51314 0.4029 0.0
C1225 C 1.00421 0.55789 0.40216 0.0
N1226 N 0.02615 0.50378 0.44899 0.0
N1227 N 0.0272 0.57469 0.36233 0.0
H1228 H 0.96937 0.57933 0.41468 0.0
H1229 H 0.98086 0.58816 0.38265 0.0
H1230 H 0.04134 0.57328 0.34681 0.0
H1231 H 0.01756 0.5933 0.36305 0.0
H1232 H 0.04138 0.48966 0.45203 0.0
H1233 H 0.01449 0.50715 0.46618 0.0
H1234 H 0.05185 0.47367 0.41467 0.0
H1235 H 0.06642 0.48493 0.38472 0.0
C1236 C 0.77275 0.73938 0.8441 0.0
C1237 C 0.79257 0.75993 0.84616 0.0
C1238 C 0.80514 0.74382 0.89138 0.0
C1239 C 0.78385 0.72471 0.89019 0.0
N1240 N 0.74487 0.70654 0.86737 0.0
N1241 N 0.82503 0.78452 0.87284 0.0
C1242 C 0.76694 0.7231 0.86706 0.0
C1243 C 0.80807 0.76293 0.87012 0.0
N1244 N 0.76005 0.73495 0.81994 0.0
N1245 N 0.82301 0.74316 0.91247 0.0
H1246 H 0.82791 0.79878 0.8576 0.0
H1247 H 0.83462 0.78954 0.89088 0.0
H1248 H 0.82134 0.72964 0.92855 0.0
H1249 H 0.84067 0.75451 0.91305 0.0
H1250 H 0.74761 0.71844 0.81624 0.0
H1251 H 0.7636 0.74664 0.80276 0.0
H1252 H 0.73008 0.70663 0.8524 0.0
H1253 H 0.74015 0.6941 0.8837 0.0
C1254 C 0.98919 0.99551 0.42658 0.0
C1255 C 0.01043 0.97653 0.42422 0.0
C1256 C 0.99467 0.96414 0.37885 0.0
C1257 C 0.97478 0.98464 0.38038 0.0
N1258 N 0.95521 0.02243 0.40377 0.0
N1259 N 0.03597 0.94526 0.39725 0.0
C1260 C 0.97259 1.00104 0.40375 0.0
C1261 C 0.01389 0.9615 0.40009 0.0
N1262 N 0.98446 1.00772 0.45088 0.0
N1263 N 0.99466 0.94675 0.35743 0.0
H1264 H 0.05023 0.94253 0.41255 0.0
H1265 H 0.0413 0.93607 0.37914 0.0
H1266 H 0.98106 0.94825 0.34138 0.0
H1267 H 1.00669 0.9296 0.35648 0.0
H1268 H 0.96751 0.01942 0.45481 0.0
H1269 H 0.99647 1.00451 0.46793 0.0
H1270 H 0.9548 0.03697 0.41892 0.0
H1271 H 0.94247 0.02691 0.38757 0.0
C1272 C 0.24759 0.24092 0.6759 0.0
C1273 C 0.22778 0.26147 0.67405 0.0
C1274 C 0.21447 0.24533 0.6291 0.0
C1275 C 0.23562 0.2261 0.63012 0.0
N1276 N 0.27482 0.2078 0.65244 0.0
N1277 N 0.19498 0.28606 0.6478 0.0
C1278 C 0.25291 0.22451 0.65297 0.0
C1279 C 0.21192 0.26447 0.65032 0.0
N1280 N 0.26072 0.23659 0.69986 0.0
N1281 N 0.19637 0.24476 0.6082 0.0
H1282 H 0.19238 0.30034 0.66305 0.0
H1283 H 0.18508 0.29108 0.62992 0.0
H1284 H 0.19782 0.23127 0.59211 0.0
H1285 H 0.17879 0.25619 0.60776 0.0
H1286 H 0.27317 0.22009 0.70348 0.0
H1287 H 0.2576 0.24842 0.71699 0.0
H1288 H 0.28987 0.20787 0.66713 0.0
H1289 H 0.27913 0.19519 0.63615 0.0
C1290 C 0.49585 0.51662 0.59562 0.0
C1291 C 0.51355 0.53911 0.59575 0.0
C1292 C 0.49329 0.55502 0.63801 0.0
C1293 C 0.47735 0.53127 0.63914 0.0
N1294 N 0.46698 0.48704 0.62175 0.0
N1295 N 0.53272 0.57711 0.61937 0.0
C1296 C 0.47964 0.51135 0.6187 0.0
C1297 C 0.5133 0.5576 0.61762 0.0
N1298 N 0.4938 0.50083 0.57308 0.0
N1299 N 0.48867 0.57554 0.65582 0.0
H1300 H 0.54784 0.57951 0.60495 0.0
H1301 H 0.53531 0.58933 0.63628 0.0
H1302 H 0.47411 0.57449 0.67096 0.0
H1303 H 0.4976 0.59447 0.65414 0.0
H1304 H 0.47917 0.48595 0.57071 0.0
H1305 H 0.50518 0.50414 0.55568 0.0
H1306 H 0.47022 0.4707 0.60898 0.0
H1307 H 0.45508 0.48235 0.63847 0.0
C1308 C 0.76908 0.27461 0.67594 0.0
C1309 C 0.78901 0.25415 0.67442 0.0
C1310 C 0.80252 0.27031 0.62953 0.0
C1311 C 0.78123 0.28939 0.63019 0.0
N1312 N 0.74183 0.30755 0.65201 0.0
N1313 N 0.82219 0.22976 0.6487 0.0
C1314 C 0.76382 0.29095 0.65287 0.0
C1315 C 0.80506 0.25123 0.6509 0.0
N1316 N 0.75575 0.27888 0.69972 0.0
N1317 N 0.82074 0.27093 0.60883 0.0
H1318 H 0.82484 0.21559 0.66408 0.0
H1319 H 0.83224 0.22476 0.63095 0.0
H1320 H 0.8193 0.28436 0.59265 0.0
H1321 H 0.8384 0.25962 0.60865 0.0
H1322 H 0.74319 0.29531 0.70312 0.0
H1323 H 0.75883 0.26709 0.71693 0.0
H1324 H 0.7267 0.30745 0.66655 0.0
H1325 H 0.73756 0.32012 0.63563 0.0
C1326 C 0.52073 1.00013 0.59449 0.0
C1327 C 0.50418 0.97678 0.59411 0.0
C1328 C 0.52617 0.96047 0.63547 0.0
C1329 C 0.5407 0.98507 0.63734 0.0
N1330 N 0.54797 0.03051 0.62145 0.0
N1331 N 0.48737 0.93719 0.61694 0.0
C1332 C 0.5369 1.00556 0.61763 0.0
C1333 C 0.50582 0.95762 0.61539 0.0
N1334 N 0.52177 0.01664 0.57237 0.0
N1335 N 0.53246 0.93946 0.65223 0.0
H1336 H 0.4719 0.93463 0.60285 0.0
H1337 H 0.48584 0.92432 0.63352 0.0
H1338 H 0.5475 0.94058 0.66697 0.0
H1339 H 0.52453 0.92015 0.64989 0.0
H1340 H 0.53561 0.03233 0.5704 0.0
H1341 H 0.51053 0.01318 0.55486 0.0
H1342 H 0.54352 0.04703 0.60921 0.0
H1343 H 0.55962 0.03541 0.63832 0.0
C1344 C 0.84001 0.24814 0.77596 0.0
C1345 C 0.8412 0.22686 0.75686 0.0
C1346 C 0.88478 0.21249 0.77548 0.0
C1347 C 0.88476 0.23526 0.79283 0.0
N1348 N 0.8645 0.27709 0.80694 0.0
N1349 N 0.86634 0.1913 0.73534 0.0
C1350 C 0.86293 0.25374 0.79237 0.0
C1351 C 0.86404 0.20969 0.75577 0.0
N1352 N 0.81667 0.26248 0.77896 0.0
N1353 N 0.9042 0.19315 0.77838 0.0
H1354 H 0.85159 0.18865 0.72052 0.0
H1355 H 0.8838 0.18026 0.73171 0.0
H1356 H 0.91972 0.19452 0.79259 0.0
H1357 H 0.90367 0.17471 0.76838 0.0
H1358 H 0.81353 0.27623 0.79451 0.0
H1359 H 0.7995 0.25902 0.76723 0.0
H1360 H 0.85064 0.29275 0.80511 0.0
H1361 H 0.8809 0.28186 0.81929 0.0
C1362 C 0.46384 0.89807 0.51909 0.0
C1363 C 0.47556 0.92346 0.51302 0.0
C1364 C 0.49683 0.90452 0.47255 0.0
C1365 C 0.48368 0.87961 0.47766 0.0
N1366 N 0.45185 0.85331 0.50334 0.0
N1367 N 0.50033 0.95228 0.48268 0.0
C1368 C 0.4664 0.87655 0.50029 0.0
C1369 C 0.49125 0.9271 0.48934 0.0
N1370 N 0.45075 0.89441 0.54313 0.0
N1371 N 0.51525 0.90631 0.45208 0.0
H1372 H 0.49729 0.96912 0.4949 0.0
H1373 H 0.50924 0.95697 0.46424 0.0
H1374 H 0.51947 0.89034 0.43907 0.0
H1375 H 0.52777 0.92289 0.44908 0.0
H1376 H 0.44446 0.87569 0.55025 0.0
H1377 H 0.44774 0.90992 0.55702 0.0
H1378 H 0.43667 0.85085 0.51762 0.0
H1379 H 0.45353 0.83696 0.49021 0.0
C1380 C 0.17784 0.2775 0.78093 0.0
C1381 C 0.17388 0.28883 0.75487 0.0
C1382 C 0.12505 0.2902 0.76247 0.0
C1383 C 0.12924 0.28104 0.78934 0.0
N1384 N 0.15964 0.26981 0.82575 0.0
N1385 N 0.1446 0.30995 0.72214 0.0
C1386 C 0.15567 0.27574 0.79904 0.0
C1387 C 0.1477 0.29628 0.74597 0.0
N1388 N 0.20263 0.2677 0.78806 0.0
N1389 N 0.0994 0.29234 0.75248 0.0
H1390 H 0.1607 0.31469 0.70946 0.0
H1391 H 0.12645 0.31856 0.71597 0.0
H1392 H 0.0823 0.28825 0.76402 0.0
H1393 H 0.09507 0.29602 0.73221 0.0
H1394 H 0.20613 0.25657 0.80557 0.0
H1395 H 0.21938 0.26879 0.77539 0.0
H1396 H 0.17862 0.26868 0.83473 0.0
H1397 H 0.14387 0.26813 0.83957 0.0
C1398 C 0.5249 0.58905 0.49131 0.0
C1399 C 0.54163 0.5923 0.51438 0.0
C1400 C 0.5519 0.63877 0.50081 0.0
C1401 C 0.53367 0.63614 0.47881 0.0
N1402 N 0.50016 0.6104 0.45467 0.0
N1403 N 0.5685 0.62072 0.54334 0.0
C1404 C 0.51944 0.61169 0.47446 0.0
C1405 C 0.55443 0.61732 0.51977 0.0
N1406 N 0.51473 0.56414 0.48521 0.0
N1407 N 0.56734 0.66152 0.5031 0.0
H1408 H 0.57139 0.60525 0.55736 0.0
H1409 H 0.57573 0.63926 0.55001 0.0
H1410 H 0.56571 0.67782 0.48986 0.0
H1411 H 0.58314 0.66355 0.51683 0.0
H1412 H 0.50494 0.55965 0.46714 0.0
H1413 H 0.51772 0.54728 0.49748 0.0
H1414 H 0.48695 0.59425 0.45233 0.0
H1415 H 0.496 0.6264 0.44161 0.0
C1416 C 0.84283 0.77633 0.74007 0.0
C1417 C 0.84688 0.78835 0.76578 0.0
C1418 C 0.89564 0.79031 0.75766 0.0
C1419 C 0.89135 0.78006 0.73123 0.0
N1420 N 0.86091 0.767 0.69552 0.0
N1421 N 0.87614 0.81058 0.79773 0.0
C1422 C 0.86492 0.77412 0.72192 0.0
C1423 C 0.87304 0.79641 0.77423 0.0
N1424 N 0.81802 0.76623 0.73338 0.0
N1425 N 0.92137 0.79354 0.76716 0.0
H1426 H 0.86009 0.81519 0.81049 0.0
H1427 H 0.89419 0.8196 0.80359 0.0
H1428 H 0.9384 0.78978 0.75542 0.0
H1429 H 0.92594 0.79801 0.7872 0.0
H1430 H 0.81441 0.75459 0.71626 0.0
H1431 H 0.8013 0.76769 0.74605 0.0
H1432 H 0.84193 0.76532 0.68664 0.0
H1433 H 0.87666 0.76476 0.68176 0.0
C1434 C 0.0563 0.90219 0.50681 0.0
C1435 C 0.03787 0.92405 0.50629 0.0
C1436 C 0.00952 0.90103 0.53972 0.0
C1437 C 0.02926 0.88046 0.54212 0.0
N1438 N 0.07378 0.86392 0.53173 0.0
N1439 N 0.99953 0.94677 0.52568 0.0
C1440 C 0.05334 0.88173 0.52672 0.0
C1441 C 0.01518 0.92419 0.52373 0.0
N1442 N 0.07608 0.90048 0.48768 0.0
N1443 N 0.98501 0.89803 0.55195 0.0
H1444 H 1.00315 0.96422 0.51446 0.0
H1445 H 0.98447 0.9491 0.54012 0.0
H1446 H 0.98003 0.88128 0.56369 0.0
H1447 H 0.96881 0.91095 0.54854 0.0
H1448 H 0.08826 0.88357 0.48525 0.0
H1449 H 0.07877 0.91495 0.4726 0.0
H1450 H 0.09288 0.86565 0.52319 0.0
H1451 H 0.07251 0.84878 0.54633 0.0
C1452 C 0.16989 0.76548 0.75306 0.0
C1453 C 0.18704 0.74272 0.75078 0.0
C1454 C 0.16018 0.72742 0.71206 0.0
C1455 C 0.13957 0.74581 0.71937 0.0
N1456 N 0.12501 0.78332 0.7468 0.0
N1457 N 0.20804 0.71891 0.7141 0.0
C1458 C 0.1445 0.76523 0.7398 0.0
C1459 C 0.18514 0.72808 0.7262 0.0
N1460 N 0.17975 0.789 0.76334 0.0
N1461 N 0.15601 0.70926 0.69175 0.0
H1462 H 0.22712 0.72359 0.72176 0.0
H1463 H 0.20827 0.71027 0.69491 0.0
H1464 H 0.13836 0.70872 0.68025 0.0
H1465 H 0.16946 0.69365 0.68766 0.0
H1466 H 0.16884 0.80696 0.76326 0.0
H1467 H 0.20018 0.79126 0.76797 0.0
H1468 H 0.12704 0.79618 0.76334 0.0
H1469 H 0.10616 0.78401 0.73741 0.0
C1470 C 0.97223 0.62016 0.49685 0.0
C1471 C 0.97656 0.59338 0.50599 0.0
C1472 C 0.98669 0.61021 0.5515 0.0
C1473 C 0.98504 0.63704 0.54166 0.0
N1474 N 0.98079 0.66771 0.50399 0.0
N1475 N 0.99228 0.56292 0.54066 0.0
C1476 C 0.97906 0.64208 0.51404 0.0
C1477 C 0.98499 0.58838 0.53298 0.0
N1478 N 0.96077 0.62463 0.47208 0.0
N1479 N 0.98904 0.60557 0.57865 0.0
H1480 H 0.9915 0.54642 0.52763 0.0
H1481 H 1.00132 0.55854 0.55917 0.0
H1482 H 0.99021 0.62104 0.59286 0.0
H1483 H 0.98743 0.58649 0.58731 0.0
H1484 H 0.95447 0.64357 0.46552 0.0
H1485 H 0.95529 0.6091 0.45898 0.0
H1486 H 0.97956 0.6722 0.48346 0.0
H1487 H 0.98584 0.68431 0.5159 0.0
C1488 C 0.77627 0.84203 0.24817 0.0
C1489 C 0.75515 0.84335 0.22881 0.0
C1490 C 0.76913 0.88907 0.21601 0.0
C1491 C 0.78898 0.88847 0.23672 0.0
N1492 N 0.80941 0.86624 0.27497 0.0
N1493 N 0.72885 0.86885 0.19673 0.0
C1494 C 0.79199 0.86544 0.2535 0.0
C1495 C 0.75085 0.86709 0.21336 0.0
N1496 N 0.78176 0.81815 0.26089 0.0
N1497 N 0.76824 0.91037 0.19845 0.0
H1498 H 0.7153 0.85299 0.19396 0.0
H1499 H 0.72283 0.88657 0.1872 0.0
H1500 H 0.78094 0.92706 0.20012 0.0
H1501 H 0.75633 0.91072 0.1811 0.0
H1502 H 0.79869 0.81498 0.27295 0.0
H1503 H 0.77042 0.8007 0.25781 0.0
H1504 H 0.81039 0.85135 0.28978 0.0
H1505 H 0.82165 0.88284 0.27917 0.0
C1506 C 0.7696 0.17263 0.26575 0.0
C1507 C 0.754 0.17445 0.2897 0.0
C1508 C 0.77546 0.13333 0.30695 0.0
C1509 C 0.78892 0.13007 0.28186 0.0
N1510 N 0.79409 0.1435 0.23524 0.0
N1511 N 0.738 0.15363 0.33076 0.0
C1512 C 0.78459 0.14881 0.26059 0.0
C1513 C 0.75573 0.15393 0.30965 0.0
N1514 N 0.77109 0.19408 0.24845 0.0
N1515 N 0.78224 0.11747 0.32853 0.0
H1516 H 0.72298 0.16811 0.3332 0.0
H1517 H 0.73655 0.13766 0.34438 0.0
H1518 H 0.79692 0.10247 0.32755 0.0
H1519 H 0.77512 0.12085 0.34802 0.0
H1520 H 0.7843 0.19482 0.23213 0.0
H1521 H 0.76117 0.21226 0.25195 0.0
H1522 H 0.78915 0.15513 0.21839 0.0
H1523 H 0.80468 0.12598 0.23049 0.0
C1524 C 0.42549 0.99225 0.99611 0.0
C1525 C 0.424 0.01218 0.97554 0.0
C1526 C 0.37899 0.99603 0.96259 0.0
C1527 C 0.37966 0.97753 0.98449 0.0
N1528 N 0.40157 0.96031 0.02448 0.0
N1529 N 0.39839 0.03577 0.9415 0.0
C1530 C 0.40239 0.97627 1.00193 0.0
C1531 C 0.40047 0.01483 0.95938 0.0
N1532 N 0.44929 0.98808 0.0095 0.0
N1533 N 0.35816 0.99511 0.94444 0.0
H1534 H 0.41388 0.04967 0.93835 0.0
H1535 H 0.3807 0.04064 0.93125 0.0
H1536 H 0.3419 0.9819 0.94638 0.0
H1537 H 0.35789 1.00595 0.92641 0.0
H1538 H 0.45263 0.97195 0.02256 0.0
H1539 H 0.46657 0.99956 1.00599 0.0
H1540 H 0.41617 0.96075 0.03963 0.0
H1541 H 0.38517 0.948 0.02918 0.0
C1542 C 0.24464 0.34281 0.2718 0.0
C1543 C 0.26433 0.34382 0.29264 0.0
C1544 C 0.24819 0.38854 0.30618 0.0
C1545 C 0.22995 0.38838 0.28402 0.0
N1546 N 0.21342 0.36751 0.24323 0.0
N1547 N 0.28774 0.36873 0.32729 0.0
C1548 C 0.22892 0.3661 0.2661 0.0
C1549 C 0.26692 0.36701 0.3092 0.0
N1550 N 0.24037 0.31929 0.25805 0.0
N1551 N 0.24705 0.40889 0.32475 0.0
H1552 H 0.30164 0.35322 0.33025 0.0
H1553 H 0.29254 0.38621 0.33788 0.0
H1554 H 0.23385 0.42516 0.323 0.0
H1555 H 0.25768 0.40871 0.34292 0.0
H1556 H 0.22435 0.31633 0.24474 0.0
H1557 H 0.25156 0.30183 0.26155 0.0
H1558 H 0.2141 0.35325 0.22783 0.0
H1559 H 0.20139 0.38411 0.23853 0.0
C1560 C 0.08915 0.02599 0.49721 0.0
C1561 C 0.09129 1.00495 0.47795 0.0
C1562 C 0.13671 0.02031 0.46576 0.0
C1563 C 0.13543 0.03992 0.48658 0.0
N1564 N 0.11227 0.05933 0.52465 0.0
N1565 N 0.11802 0.9794 0.44645 0.0
C1566 C 0.11212 0.04221 0.50301 0.0
C1567 C 0.11534 1.00137 0.4629 0.0
N1568 N 0.06494 0.0309 0.50942 0.0
N1569 N 0.158 0.02032 0.44825 0.0
H1570 H 0.10266 0.96531 0.44354 0.0
H1571 H 0.13608 0.97396 0.43728 0.0
H1572 H 0.17416 0.03371 0.44989 0.0
H1573 H 0.15873 0.00855 0.43087 0.0
H1574 H 0.06121 0.04772 0.52138 0.0
H1575 H 0.04778 0.01921 0.50592 0.0
H1576 H 0.09713 0.0598 0.53918 0.0
H1577 H 0.12861 0.07176 0.52934 0.0
C1578 C 0.73452 0.17661 0.73702 0.0
C1579 C 0.76117 0.17264 0.72739 0.0
C1580 C 0.75434 0.12367 0.72805 0.0
C1581 C 0.72703 0.12774 0.73552 0.0
N1582 N 0.68969 0.15792 0.74287 0.0
N1583 N 0.79508 0.14301 0.70919 0.0
C1584 C 0.71669 0.15419 0.73881 0.0
C1585 C 0.77071 0.14632 0.72162 0.0
N1586 N 0.72656 0.20165 0.74528 0.0
N1587 N 0.76487 0.09821 0.72796 0.0
H1588 H 0.80763 0.15911 0.7041 0.0
H1589 H 0.80185 0.12458 0.70181 0.0
H1590 H 0.75351 0.08109 0.73248 0.0
H1591 H 0.78534 0.09421 0.72564 0.0
H1592 H 0.70846 0.20529 0.75523 0.0
H1593 H 0.73902 0.21856 0.74421 0.0
H1594 H 0.68045 0.17675 0.74249 0.0
H1595 H 0.67603 0.14198 0.74439 0.0
C1596 C 0.42359 0.02442 0.52231 0.0
C1597 C 0.42165 1.00357 0.54188 0.0
C1598 C 0.37648 0.01918 0.55452 0.0
C1599 C 0.37757 0.03862 0.53348 0.0
N1600 N 0.40023 0.05754 0.49478 0.0
N1601 N 0.39531 0.97844 0.57413 0.0
C1602 C 0.40062 0.04065 0.51665 0.0
C1603 C 0.39781 1.00021 0.55733 0.0
N1604 N 0.44764 0.02916 0.50969 0.0
N1605 N 0.3554 0.01939 0.5723 0.0
H1606 H 0.41067 0.96436 0.57698 0.0
H1607 H 0.37739 0.97314 0.58368 0.0
H1608 H 0.33927 0.03279 0.57069 0.0
H1609 H 0.35483 1.00776 0.58982 0.0
H1610 H 0.45127 0.04588 0.49748 0.0
H1611 H 0.46481 0.01747 0.51305 0.0
H1612 H 0.41514 0.05777 0.48 0.0
H1613 H 0.3839 0.06998 0.49018 0.0
C1614 C 0.59259 0.49085 0.52286 0.0
C1615 C 0.59491 0.51141 0.54265 0.0
C1616 C 0.64003 0.49517 0.55494 0.0
C1617 C 0.63859 0.47608 0.53364 0.0
N1618 N 0.61539 0.45793 0.49483 0.0
N1619 N 0.62179 0.53583 0.57506 0.0
C1620 C 0.61536 0.4745 0.5169 0.0
C1621 C 0.61891 0.51431 0.55804 0.0
N1622 N 0.56837 0.4865 0.51031 0.0
N1623 N 0.66123 0.49448 0.57266 0.0
H1624 H 0.60661 0.55004 0.57813 0.0
H1625 H 0.63986 0.54081 0.58458 0.0
H1626 H 0.6772 0.48093 0.57085 0.0
H1627 H 0.66204 0.50583 0.59032 0.0
H1628 H 0.56448 0.46999 0.49793 0.0
H1629 H 0.55133 0.49826 0.51393 0.0
H1630 H 0.60034 0.45805 0.48012 0.0
H1631 H 0.63157 0.44542 0.49 0.0
C1632 C 0.74952 0.27788 0.34049 0.0
C1633 C 0.72975 0.25726 0.34212 0.0
C1634 C 0.71685 0.27265 0.38739 0.0
C1635 C 0.73795 0.29197 0.38658 0.0
N1636 N 0.77677 0.31093 0.36429 0.0
N1637 N 0.6973 0.23211 0.36821 0.0
C1638 C 0.75497 0.29403 0.36363 0.0
C1639 C 0.71415 0.25383 0.3659 0.0
N1640 N 0.76254 0.28243 0.31658 0.0
N1641 N 0.69892 0.27284 0.40835 0.0
H1642 H 0.69453 0.21805 0.35279 0.0
H1643 H 0.68766 0.22676 0.3861 0.0
H1644 H 0.70046 0.28608 0.42464 0.0
H1645 H 0.68134 0.26136 0.40866 0.0
H1646 H 0.77499 0.29898 0.3131 0.0
H1647 H 0.75938 0.27067 0.29939 0.0
H1648 H 0.79165 0.31126 0.3495 0.0
H1649 H 0.78114 0.32334 0.38074 0.0
C1650 C 0.50485 0.05363 0.89994 0.0
C1651 C 0.50679 0.03703 0.92325 0.0
C1652 C 0.5431 0.01106 0.90204 0.0
C1653 C 0.54265 0.02908 0.87973 0.0
N1654 N 0.52612 0.06982 0.85891 0.0
N1655 N 0.52981 1.00235 0.94844 0.0
C1656 C 0.52434 0.05103 0.87908 0.0
C1657 C 0.52649 0.01637 0.92485 0.0
N1658 N 0.48386 0.07134 0.89741 0.0
N1659 N 0.55884 0.98847 0.90108 0.0
H1660 H 0.51775 1.00545 0.96541 0.0
H1661 H 0.54572 0.98913 0.95196 0.0
H1662 H 0.57151 0.9841 0.88486 0.0
H1663 H 0.55789 0.97302 0.9153 0.0
H1664 H 0.47961 0.08188 0.8797 0.0
H1665 H 0.46924 0.0739 0.91231 0.0
H1666 H 0.51543 0.08787 0.85892 0.0
H1667 H 0.53997 0.06846 0.84314 0.0
C1668 C 0.26786 0.24082 0.34311 0.0
C1669 C 0.28836 0.26071 0.34491 0.0
C1670 C 0.30156 0.24372 0.38962 0.0
C1671 C 0.2798 0.22515 0.38867 0.0
N1672 N 0.23993 0.20811 0.36655 0.0
N1673 N 0.3222 0.28401 0.37103 0.0
C1674 C 0.26228 0.22427 0.36595 0.0
C1675 C 0.30453 0.26297 0.36851 0.0
N1676 N 0.25425 0.2373 0.31929 0.0
N1677 N 0.31982 0.24242 0.41035 0.0
H1678 H 0.32515 0.29835 0.35587 0.0
H1679 H 0.33241 0.28856 0.38886 0.0
H1680 H 0.31808 0.22885 0.42639 0.0
H1681 H 0.33778 0.25328 0.4107 0.0
H1682 H 0.2412 0.22127 0.31563 0.0
H1683 H 0.2575 0.24935 0.30231 0.0
H1684 H 0.22476 0.2087 0.35199 0.0
H1685 H 0.23547 0.19539 0.38274 0.0
C1686 C 0.52052 0.47238 0.89779 0.0
C1687 C 0.51521 0.48543 0.92272 0.0
C1688 C 0.48523 0.51676 0.8991 0.0
C1689 C 0.48512 0.49952 0.87621 0.0
N1690 N 0.51823 0.47662 0.84921 0.0
N1691 N 0.49218 0.52052 0.94729 0.0
C1692 C 0.50724 0.48149 0.87399 0.0
C1693 C 0.49742 0.50775 0.92346 0.0
N1694 N 0.53811 0.45124 0.89676 0.0
N1695 N 0.47904 0.54335 0.89615 0.0
H1696 H 0.50097 0.51474 0.96558 0.0
H1697 H 0.47746 0.53543 0.94897 0.0
H1698 H 0.47672 0.55199 0.87702 0.0
H1699 H 0.48093 0.55732 0.91176 0.0
H1700 H 0.54038 0.43925 0.87963 0.0
H1701 H 0.54901 0.44454 0.91353 0.0
H1702 H 0.53595 0.46571 0.84643 0.0
H1703 H 0.51159 0.48679 0.83195 0.0
C1704 C 0.71382 0.76226 0.15327 0.0
C1705 C 0.73037 0.76053 0.17665 0.0
C1706 C 0.75738 0.7251 0.15525 0.0
C1707 C 0.73953 0.72537 0.13277 0.0
N1708 N 0.69852 0.74108 0.11179 0.0
N1709 N 0.76537 0.73801 0.20189 0.0
C1710 C 0.7171 0.7431 0.13216 0.0
C1711 C 0.75149 0.7413 0.1782 0.0
N1712 N 0.69552 0.78274 0.1509 0.0
N1713 N 0.78036 0.70992 0.1543 0.0
H1714 H 0.7618 0.74971 0.21901 0.0
H1715 H 0.77895 0.72238 0.20533 0.0
H1716 H 0.78517 0.69756 0.13797 0.0
H1717 H 0.79569 0.71111 0.16867 0.0
H1718 H 0.68494 0.78691 0.13318 0.0
H1719 H 0.6924 0.79703 0.16602 0.0
H1720 H 0.68019 0.75129 0.11175 0.0
H1721 H 0.70041 0.7275 0.09582 0.0
C1722 C 0.01186 0.05931 0.11495 0.0
C1723 C 0.01277 0.04031 0.09355 0.0
C1724 C 0.98041 0.01163 0.1176 0.0
C1725 C 0.97741 0.03195 0.13755 0.0
N1726 N 0.98641 0.07737 0.15251 0.0
N1727 N 0.99437 1.00074 0.072 0.0
C1728 C 0.99205 0.05646 0.13547 0.0
C1729 C 0.99603 0.0171 0.09416 0.0
N1730 N 0.03054 0.07956 0.11623 0.0
N1731 N 0.96913 0.98678 0.12148 0.0
H1732 H 1.0053 1.0042 0.05435 0.0
H1733 H 0.98037 0.98518 0.07021 0.0
H1734 H 0.95779 0.98187 0.13853 0.0
H1735 H 0.97303 0.97032 0.10904 0.0
H1736 H 0.0326 0.09229 0.13283 0.0
H1737 H 0.0457 0.08204 0.10187 0.0
H1738 H 0.99441 0.09663 0.15008 0.0
H1739 H 0.97177 0.07622 0.16758 0.0
C1740 C 0.26812 0.77743 0.17713 0.0
C1741 C 0.28793 0.75687 0.17561 0.0
C1742 C 0.30165 0.77302 0.13079 0.0
C1743 C 0.28048 0.79224 0.13144 0.0
N1744 N 0.24122 0.8107 0.15324 0.0
N1745 N 0.32101 0.73231 0.14991 0.0
C1746 C 0.26305 0.79389 0.15409 0.0
C1747 C 0.30402 0.75389 0.15212 0.0
N1748 N 0.25471 0.78166 0.20087 0.0
N1749 N 0.31991 0.77356 0.11013 0.0
H1750 H 0.32351 0.71806 0.16523 0.0
H1751 H 0.33106 0.72728 0.13218 0.0
H1752 H 0.31859 0.78702 0.09396 0.0
H1753 H 0.33751 0.76214 0.10996 0.0
H1754 H 0.24222 0.79815 0.20431 0.0
H1755 H 0.25761 0.76973 0.21801 0.0
H1756 H 0.22605 0.8107 0.16775 0.0
H1757 H 0.23712 0.82337 0.1369 0.0
C1758 C 1.00271 0.45921 0.12172 0.0
C1759 C 1.00592 0.47409 0.09742 0.0
C1760 C 0.04354 0.49928 0.11748 0.0
C1761 C 0.04157 0.48309 0.14107 0.0
N1762 N 0.02219 0.44516 0.16454 0.0
N1763 N 0.03149 0.50533 0.07029 0.0
C1764 C 0.02194 0.46233 0.14289 0.0
C1765 C 0.02695 0.49331 0.09476 0.0
N1766 N 0.98085 0.44268 0.12481 0.0
N1767 N 0.06074 0.52085 0.11712 0.0
H1768 H 0.01953 0.50173 0.05329 0.0
H1769 H 0.04829 0.51723 0.06617 0.0
H1770 H 0.07348 0.52563 0.13323 0.0
H1771 H 0.06098 0.53523 0.10178 0.0
H1772 H 0.97567 0.43359 0.14305 0.0
H1773 H 0.9666 0.43957 0.10958 0.0
H1774 H 0.01039 0.42784 0.16573 0.0
H1775 H 0.03576 0.44705 0.18058 0.0
C1776 C 0.3679 0.72714 0.2475 0.0
C1777 C 0.34107 0.72893 0.25727 0.0
C1778 C 0.35832 0.73551 0.30332 0.0
C1779 C 0.38501 0.73656 0.29307 0.0
N1780 N 0.41468 0.73923 0.25453 0.0
N1781 N 0.31067 0.74025 0.29355 0.0
C1782 C 0.38966 0.73408 0.26487 0.0
C1783 C 0.33624 0.73468 0.28495 0.0
N1784 N 0.37272 0.71783 0.22197 0.0
N1785 N 0.35405 0.73429 0.33058 0.0
H1786 H 0.29403 0.74038 0.28062 0.0
H1787 H 0.30637 0.74725 0.3129 0.0
H1788 H 0.36969 0.73441 0.34472 0.0
H1789 H 0.33519 0.73063 0.33907 0.0
H1790 H 0.39198 0.71349 0.21484 0.0
H1791 H 0.35739 0.71189 0.20879 0.0
H1792 H 0.41851 0.74042 0.23386 0.0
H1793 H 0.43104 0.74498 0.26649 0.0
C1794 C 0.96583 0.39595 0.02152 0.0
C1795 C 0.97744 0.42149 0.01586 0.0
C1796 C 0.9953 0.40449 0.97294 0.0
C1797 C 0.98525 0.37849 0.97945 0.0
N1798 N 0.96358 0.34823 0.01078 0.0
N1799 N 1.00579 0.44978 0.98829 0.0
C1800 C 0.97123 0.37386 1.004 0.0
C1801 C 0.99288 0.42569 0.99211 0.0
N1802 N 0.94911 0.39304 0.04328 0.0
N1803 N 1.00664 0.40898 0.94815 0.0
H1804 H 1.00396 0.46598 1.00158 0.0
H1805 H 0.01978 0.45323 0.97303 0.0
H1806 H 0.00948 0.39376 0.93391 0.0
H1807 H 0.01161 0.42802 0.94086 0.0
H1808 H 0.9376 0.37589 0.04695 0.0
H1809 H 0.94526 0.40859 0.05691 0.0
H1810 H 0.95603 0.34288 0.02964 0.0
H1811 H 0.96639 0.33173 0.99804 0.0
C1812 C 0.64931 0.78883 0.24781 0.0
C1813 C 0.67617 0.78735 0.25769 0.0
C1814 C 0.65906 0.78024 0.30366 0.0
C1815 C 0.63236 0.77904 0.2933 0.0
N1816 N 0.60263 0.77638 0.25469 0.0
N1817 N 0.70677 0.77625 0.29404 0.0
C1818 C 0.62764 0.78163 0.2651 0.0
C1819 C 0.68111 0.78149 0.28537 0.0
N1820 N 0.64438 0.79814 0.22225 0.0
N1821 N 0.66335 0.78122 0.33094 0.0
H1822 H 0.72341 0.77651 0.28117 0.0
H1823 H 0.71122 0.76917 0.31337 0.0
H1824 H 0.64774 0.78072 0.34502 0.0
H1825 H 0.68218 0.78499 0.33954 0.0
H1826 H 0.62507 0.8023 0.21502 0.0
H1827 H 0.65963 0.80421 0.2091 0.0
H1828 H 0.59873 0.77525 0.23402 0.0
H1829 H 0.58632 0.77051 0.26662 0.0
C1830 C 0.04236 0.12092 0.0222 0.0
C1831 C 0.0399 0.09421 0.01224 0.0
C1832 C 0.03155 0.11189 0.96664 0.0
C1833 C 0.03124 0.13848 0.9772 0.0
N1834 N 0.03087 0.16793 0.01599 0.0
N1835 N 0.02717 0.06415 0.97607 0.0
C1836 C 0.03506 0.1429 1.00529 0.0
C1837 C 0.03307 0.08964 0.98473 0.0
N1838 N 0.05266 0.12538 0.04746 0.0
N1839 N 0.03138 0.10789 0.9393 0.0
H1840 H 0.02772 0.04736 0.98878 0.0
H1841 H 0.01935 0.05999 0.95697 0.0
H1842 H 0.0306 0.12367 0.92536 0.0
H1843 H 0.03447 0.08913 0.93042 0.0
H1844 H 0.05751 0.14449 0.05467 0.0
H1845 H 0.05886 0.10985 0.06026 0.0
H1846 H 0.03062 0.17168 0.0367 0.0
H1847 H 0.02504 0.18449 1.00435 0.0
C1848 C 0.33862 0.28521 0.23588 0.0
C1849 C 0.34319 0.28731 0.26416 0.0
C1850 C 0.39064 0.27555 0.2571 0.0
C1851 C 0.38683 0.27716 0.22868 0.0
N1852 N 0.35801 0.2901 0.19136 0.0
N1853 N 0.37534 0.29084 0.30081 0.0
C1854 C 0.36103 0.28389 0.21812 0.0
C1855 C 0.36974 0.28432 0.27456 0.0
N1856 N 0.31295 0.2834 0.22595 0.0
N1857 N 0.41376 0.26471 0.26753 0.0
H1858 H 0.36089 0.29853 0.31399 0.0
H1859 H 0.39489 0.29136 0.30856 0.0
H1860 H 0.4291 0.25693 0.25547 0.0
H1861 H 0.41635 0.26082 0.28808 0.0
H1862 H 0.30874 0.27931 0.20572 0.0
H1863 H 0.29596 0.28305 0.23832 0.0
H1864 H 0.34007 0.29759 0.18331 0.0
H1865 H 0.37409 0.29058 0.17783 0.0
C1866 C 0.5327 0.43023 0.03162 0.0
C1867 C 0.53528 0.42645 1.00329 0.0
C1868 C 0.523 0.3789 0.00906 0.0
C1869 C 0.52446 0.38187 0.03758 0.0
N1870 N 0.53712 0.40965 0.0757 0.0
N1871 N 0.53885 0.39531 0.96591 0.0
C1872 C 0.53111 0.40736 0.04883 0.0
C1873 C 0.53208 0.40024 0.99219 0.0
N1874 N 0.53087 0.45562 0.04211 0.0
N1875 N 0.51213 0.35613 0.99798 0.0
H1876 H 0.54683 0.41001 0.95315 0.0
H1877 H 0.53927 0.37597 0.9577 0.0
H1878 H 0.5042 0.34049 0.00962 0.0
H1879 H 0.50836 0.35414 0.97735 0.0
H1880 H 0.52653 0.45929 0.06237 0.0
H1881 H 0.53071 0.47291 0.03009 0.0
H1882 H 0.54456 0.42737 0.08425 0.0
H1883 H 0.53751 0.39322 0.08886 0.0
C1884 C 0.64755 0.2331 0.27288 0.0
C1885 C 0.67389 0.2303 0.26203 0.0
C1886 C 0.65499 0.23374 0.21632 0.0
C1887 C 0.62942 0.24043 0.22731 0.0
N1888 N 0.60333 0.2526 0.26666 0.0
N1889 N 0.70321 0.23457 0.22328 0.0
C1890 C 0.62623 0.24187 0.2558 0.0
C1891 C 0.6778 0.2325 0.23367 0.0
N1892 N 0.64258 0.22646 0.29922 0.0
N1893 N 0.65742 0.22756 0.18953 0.0
H1894 H 0.72044 0.23519 0.23537 0.0
H1895 H 0.70692 0.23868 0.20297 0.0
H1896 H 0.64103 0.22701 0.17629 0.0
H1897 H 0.67521 0.22014 0.18117 0.0
H1898 H 0.62321 0.22581 0.30731 0.0
H1899 H 0.65736 0.21879 0.31212 0.0
H1900 H 0.60119 0.25637 0.28726 0.0
H1901 H 0.5877 0.26042 0.25489 0.0
C1902 C 0.48177 0.11883 0.99219 0.0
C1903 C 0.47923 0.09247 1.00313 0.0
C1904 C 0.4826 0.11136 0.04878 0.0
C1905 C 0.48899 0.137 0.03768 0.0
N1906 N 0.50086 0.16325 0.99825 0.0
N1907 N 0.48361 0.06314 0.04197 0.0
C1908 C 0.49037 0.14023 0.00919 0.0
C1909 C 0.48147 0.08855 0.0315 0.0
N1910 N 0.47501 0.12375 0.96585 0.0
N1911 N 0.47657 0.10885 0.07561 0.0
H1912 H 0.48408 0.04588 0.02997 0.0
H1913 H 0.48782 0.05944 0.06228 0.0
H1914 H 0.47598 0.12522 0.08879 0.0
H1915 H 0.46934 0.091 0.08406 0.0
H1916 H 0.47416 0.14312 0.9577 0.0
H1917 H 0.4674 0.10892 0.95301 0.0
H1918 H 0.5046 0.16543 0.97764 0.0
H1919 H 0.50854 0.17896 0.00995 0.0
C1920 C 0.24879 0.36772 0.71807 0.0
C1921 C 0.25555 0.34192 0.72849 0.0
C1922 C 0.2966 0.36041 0.74925 0.0
C1923 C 0.29057 0.38588 0.73761 0.0
N1924 N 0.26288 0.4137 0.70879 0.0
N1925 N 0.28666 0.31249 0.75156 0.0
C1926 C 0.26718 0.38951 0.72141 0.0
C1927 C 0.2797 0.33793 0.74342 0.0
N1928 N 0.22449 0.37143 0.70544 0.0
N1929 N 0.31824 0.35793 0.76628 0.0
H1930 H 0.2743 0.29573 0.74854 0.0
H1931 H 0.30531 0.30752 0.75983 0.0
H1932 H 0.33166 0.37368 0.77016 0.0
H1933 H 0.32216 0.34087 0.77789 0.0
H1934 H 0.2168 0.39021 0.70012 0.0
H1935 H 0.211 0.35573 0.70163 0.0
H1936 H 0.24806 0.41687 0.69422 0.0
H1937 H 0.27527 0.43046 0.71165 0.0
C1938 C 0.25168 0.65458 0.80421 0.0
C1939 C 0.25673 0.6781 0.78866 0.0
C1940 C 0.29335 0.65495 0.76488 0.0
C1941 C 0.28986 0.6323 0.78206 0.0
N1942 N 0.26845 0.6116 0.82056 0.0
N1943 N 0.28484 0.70246 0.75725 0.0
C1944 C 0.26975 0.63238 0.80243 0.0
C1945 C 0.27825 0.67878 0.76979 0.0
N1946 N 0.22917 0.65319 0.82005 0.0
N1947 N 0.31058 0.6534 0.7434 0.0
H1948 H 0.27425 0.72036 0.76026 0.0
H1949 H 0.30211 0.70499 0.74561 0.0
H1950 H 0.32217 0.63637 0.73927 0.0
H1951 H 0.31178 0.66809 0.72838 0.0
H1952 H 0.22276 0.63561 0.82961 0.0
H1953 H 0.21558 0.66911 0.82195 0.0
H1954 H 0.25627 0.61183 0.83766 0.0
H1955 H 0.28117 0.59488 0.81971 0.0
C1956 C 0.89929 0.51544 0.46178 0.0
C1957 C 0.92317 0.51258 0.47737 0.0
C1958 C 0.90251 0.47568 0.50311 0.0
C1959 C 0.87942 0.47721 0.48617 0.0
N1960 N 0.85702 0.49559 0.44698 0.0
N1961 N 0.94943 0.48778 0.51006 0.0
C1962 C 0.87813 0.49629 0.46481 0.0
C1963 C 0.92532 0.49207 0.49728 0.0
N1964 N 0.89657 0.53692 0.44463 0.0
N1965 N 0.9023 0.45909 0.52521 0.0
H1966 H 0.9665 0.49957 0.50653 0.0
H1967 H 0.95322 0.47132 0.52256 0.0
H1968 H 0.88609 0.44652 0.52992 0.0
H1969 H 0.91722 0.45923 0.54004 0.0
H1970 H 0.87859 0.54187 0.43494 0.0
H1971 H 0.9118 0.55112 0.4416 0.0
H1972 H 0.85633 0.50693 0.42927 0.0
H1973 H 0.84099 0.48208 0.44876 0.0
C1974 C 0.74609 0.83949 0.7701 0.0
C1975 C 0.76459 0.84056 0.79201 0.0
C1976 C 0.74548 0.8838 0.80638 0.0
C1977 C 0.7287 0.88389 0.78309 0.0
N1978 N 0.71585 0.86412 0.74045 0.0
N1979 N 0.78511 0.86547 0.82851 0.0
C1980 C 0.72977 0.86235 0.76428 0.0
C1981 C 0.76517 0.86322 0.8095 0.0
N1982 N 0.74352 0.81631 0.75539 0.0
N1983 N 0.74201 0.90295 0.82591 0.0
H1984 H 0.7999 0.8508 0.83141 0.0
H1985 H 0.78838 0.88283 0.83986 0.0
H1986 H 0.72783 0.91839 0.82433 0.0
H1987 H 0.75155 0.90227 0.84468 0.0
H1988 H 0.72838 0.81326 0.7411 0.0
H1989 H 0.75513 0.79916 0.75904 0.0
H1990 H 0.71814 0.85049 0.72464 0.0
H1991 H 0.7036 0.88049 0.73551 0.0
C1992 C 0.61921 0.50173 0.96259 0.0
C1993 C 0.59625 0.50379 0.97952 0.0
C1994 C 0.61939 0.53772 1.00718 0.0
C1995 C 0.64121 0.53762 0.98867 0.0
N1996 N 0.6606 0.52242 0.94673 0.0
N1997 N 0.57259 0.52636 0.01551 0.0
C1998 C 0.64082 0.52035 0.96583 0.0
C1999 C 0.59584 0.52246 1.00123 0.0
N2000 N 0.62061 0.48154 0.94386 0.0
N2001 N 0.62148 0.55189 0.03079 0.0
H2002 H 0.55491 0.51557 0.0118 0.0
H2003 H 0.5701 0.54179 0.02952 0.0
H2004 H 0.63837 0.56343 0.03577 0.0
H2005 H 0.60755 0.55042 0.04643 0.0
H2006 H 0.63793 0.47717 0.93286 0.0
H2007 H 0.60512 0.4676 0.94089 0.0
H2008 H 0.65987 0.51257 0.92817 0.0
H2009 H 0.67682 0.53572 0.94845 0.0
C2010 C 0.26337 0.65157 0.21193 0.0
C2011 C 0.26065 0.67494 0.22821 0.0
C2012 C 0.22471 0.65305 0.25425 0.0
C2013 C 0.22606 0.63049 0.2367 0.0
N2014 N 0.2436 0.60954 0.19648 0.0
N2015 N 0.23634 0.69991 0.26205 0.0
C2016 C 0.24455 0.6301 0.21485 0.0
C2017 C 0.24064 0.67624 0.24861 0.0
N2018 N 0.28444 0.6496 0.19426 0.0
N2019 N 0.20875 0.65197 0.27673 0.0
H2020 H 0.24774 0.71726 0.25861 0.0
H2021 H 0.22016 0.70309 0.27503 0.0
H2022 H 0.19651 0.63549 0.28132 0.0
H2023 H 0.20914 0.66645 0.29194 0.0
H2024 H 0.28932 0.63198 0.18399 0.0
H2025 H 0.29843 0.66504 0.19135 0.0
H2026 H 0.25443 0.60955 0.17848 0.0
H2027 H 0.23033 0.5933 0.19817 0.0
C2028 C 0.92793 0.52374 0.02425 0.0
C2029 C 0.92525 0.50298 0.04381 0.0
C2030 C 0.88024 0.51952 0.05578 0.0
C2031 C 0.88204 0.53887 0.0347 0.0
N2032 N 0.9057 0.55742 0.99643 0.0
N2033 N 0.89795 0.47848 0.07576 0.0
C2034 C 0.9054 0.54046 0.01825 0.0
C2035 C 0.90114 0.50015 0.05895 0.0
N2036 N 0.95225 0.52791 0.01195 0.0
N2037 N 0.85888 0.52017 0.0732 0.0
H2038 H 0.91298 0.46409 0.0789 0.0
H2039 H 0.87979 0.47357 0.08506 0.0
H2040 H 0.84303 0.53386 0.07129 0.0
H2041 H 0.8578 0.50861 0.09074 0.0
H2042 H 0.95642 0.5445 0.99975 0.0
H2043 H 0.9691 0.51584 0.01558 0.0
H2044 H 0.92084 0.55738 0.98189 0.0
H2045 H 0.88973 0.57025 0.99165 0.0
C2046 C 0.1185 0.01741 0.05626 0.0
C2047 C 0.09468 0.01413 0.04065 0.0
C2048 C 0.11571 0.97717 0.01547 0.0
C2049 C 0.13871 0.97905 0.03249 0.0
N2050 N 0.16089 0.99815 0.07143 0.0
N2051 N 0.06874 0.9888 1.00815 0.0
C2052 C 0.13981 0.99843 0.05355 0.0
C2053 C 0.09276 0.99342 0.02098 0.0
N2054 N 0.12099 0.03909 0.07311 0.0
N2055 N 0.11611 0.96034 0.9936 0.0
H2056 H 0.05158 1.0005 0.01141 0.0
H2057 H 0.06512 0.97217 0.99585 0.0
H2058 H 0.13241 0.94784 0.98915 0.0
H2059 H 0.10126 0.9602 0.9787 0.0
H2060 H 0.13889 0.04433 0.0828 0.0
H2061 H 0.10565 0.05319 0.07587 0.0
H2062 H 0.16147 0.0097 0.08896 0.0
H2063 H 0.17705 0.98478 0.06986 0.0
loop_
_geom_bond_atom_site_label_1
_geom_bond_atom_site_label_2
_geom_bond_distance
_geom_bond_site_symmetry_2
_ccdc_geom_bond_type
H0 C3 0.931 1_655 S
H1 C6 0.928 1_565 S
H2 C8 0.930 1_556 S
C3 H0 0.931 1_455 S
C3 C4 1.413 . S
C3 C5 1.360 . S
C4 C3 1.413 . S
C4 C8 1.429 . S
C5 C3 1.360 . S
C5 C6 1.372 . S
C6 H1 0.928 1_545 S
C6 C5 1.372 . S
C6 C7 1.404 . S
C7 C6 1.404 . S
C7 C8 1.391 . S
C8 H2 0.930 1_554 S
C8 C4 1.429 . S
C8 C7 1.391 . S
H9 C12 0.931 . S
H10 C15 0.928 . S
H11 C17 0.930 . S
C12 H9 0.931 . S
C12 C13 1.413 . S
C12 C14 1.360 . S
C13 C12 1.413 . S
C13 C17 1.429 . S
C14 C12 1.360 . S
C14 C15 1.372 . S
C15 H10 0.928 . S
C15 C14 1.372 . S
C15 C16 1.404 . S
C16 C15 1.404 . S
C16 C17 1.391 . S
C17 H11 0.930 . S
C17 C13 1.429 . S
C17 C16 1.391 . S
H18 C21 0.931 . S
H19 C24 0.928 1_455 S
H20 C26 0.930 1_556 S
C21 H18 0.931 . S
C21 C22 1.413 . S
C21 C23 1.360 . S
C22 C21 1.413 . S
C22 C26 1.429 . S
C23 C21 1.360 . S
C23 C24 1.372 . S
C24 H19 0.928 1_655 S
C24 C23 1.372 . S
C24 C25 1.404 . S
C25 C24 1.404 . S
C25 C26 1.391 . S
C26 H20 0.930 1_554 S
C26 C22 1.429 . S
C26 C25 1.391 . S
H27 C30 0.931 . S
H28 C33 0.928 . S
H29 C35 0.930 . S
C30 H27 0.931 . S
C30 C31 1.413 . S
C30 C32 1.360 . S
C31 C30 1.413 . S
C31 C35 1.429 . S
C32 C30 1.360 . S
C32 C33 1.372 . S
C33 H28 0.928 . S
C33 C32 1.372 . S
C33 C34 1.404 . S
C34 C33 1.404 . S
C34 C35 1.391 . S
C35 H29 0.930 . S
C35 C31 1.429 . S
C35 C34 1.391 . S
H36 C39 0.931 1_655 S
H37 C42 0.928 1_545 S
H38 C44 0.930 . S
C39 H36 0.931 1_455 S
C39 C40 1.413 . S
C39 C41 1.360 . S
C40 C39 1.413 . S
C40 C44 1.429 . S
C41 C39 1.360 . S
C41 C42 1.372 . S
C42 H37 0.928 1_565 S
C42 C41 1.372 . S
C42 C43 1.404 . S
C43 C42 1.404 . S
C43 C44 1.391 . S
C44 H38 0.930 . S
C44 C40 1.429 . S
C44 C43 1.391 . S
H45 C48 0.931 . S
H46 C51 0.928 . S
H47 C53 0.930 . S
C48 H45 0.931 . S
C48 C49 1.413 . S
C48 C50 1.360 . S
C49 C48 1.413 . S
C49 C53 1.429 . S
C50 C48 1.360 . S
C50 C51 1.372 . S
C51 H46 0.928 . S
C51 C50 1.372 . S
C51 C52 1.404 . S
C52 C51 1.404 . S
C52 C53 1.391 . S
C53 H47 0.930 . S
C53 C49 1.429 . S
C53 C52 1.391 . S
H54 C57 0.931 . S
H55 C60 0.928 1_455 S
H56 C62 0.930 . S
C57 H54 0.931 . S
C57 C58 1.413 . S
C57 C59 1.360 . S
C58 C57 1.413 . S
C58 C62 1.429 . S
C59 C57 1.360 . S
C59 C60 1.372 . S
C60 H55 0.928 1_655 S
C60 C59 1.372 . S
C60 C61 1.404 . S
C61 C60 1.404 . S
C61 C62 1.391 . S
C62 H56 0.930 . S
C62 C58 1.429 . S
C62 C61 1.391 . S
H63 C66 0.931 . S
H64 C69 0.928 . S
H65 C71 0.930 . S
C66 H63 0.931 . S
C66 C67 1.413 . S
C66 C68 1.360 . S
C67 C66 1.413 . S
C67 C71 1.429 . S
C68 C66 1.360 . S
C68 C69 1.372 . S
C69 H64 0.928 . S
C69 C68 1.372 . S
C69 C70 1.404 . S
C70 C69 1.404 . S
C70 C71 1.391 . S
C71 H65 0.930 . S
C71 C67 1.429 . S
C71 C70 1.391 . S
H72 C75 0.931 . S
H73 C78 0.928 . S
H74 C80 0.930 . S
C75 H72 0.931 . S
C75 C76 1.413 . S
C75 C77 1.360 . S
C76 C75 1.413 . S
C76 C80 1.429 . S
C77 C75 1.360 . S
C77 C78 1.372 . S
C78 H73 0.928 . S
C78 C77 1.372 . S
C78 C79 1.404 . S
C79 C78 1.404 . S
C79 C80 1.391 . S
C80 H74 0.930 . S
C80 C76 1.429 . S
C80 C79 1.391 . S
H81 C84 0.931 1_545 S
H82 C87 0.928 . S
H83 C89 0.930 . S
C84 H81 0.931 1_565 S
C84 C85 1.413 . S
C84 C86 1.360 . S
C85 C84 1.413 . S
C85 C89 1.429 . S
C86 C84 1.360 . S
C86 C87 1.372 . S
C87 H82 0.928 . S
C87 C86 1.372 . S
C87 C88 1.404 . S
C88 C87 1.404 . S
C88 C89 1.391 . S
C89 H83 0.930 . S
C89 C85 1.429 . S
C89 C88 1.391 . S
H90 C93 0.931 . S
H91 C96 0.928 . S
H92 C98 0.930 . S
C93 H90 0.931 . S
C93 C94 1.413 . S
C93 C95 1.360 . S
C94 C93 1.413 . S
C94 C98 1.429 . S
C95 C93 1.360 . S
C95 C96 1.372 . S
C96 H91 0.928 . S
C96 C95 1.372 . S
C96 C97 1.404 . S
C97 C96 1.404 . S
C97 C98 1.391 . S
C98 H92 0.930 . S
C98 C94 1.429 . S
C98 C97 1.391 . S
H99 C102 0.931 . S
H100 C105 0.928 . S
H101 C107 0.930 . S
C102 H99 0.931 . S
C102 C103 1.413 . S
C102 C104 1.360 . S
C103 C102 1.413 . S
C103 C107 1.429 . S
C104 C102 1.360 . S
C104 C105 1.372 . S
C105 H100 0.928 . S
C105 C104 1.372 . S
C105 C106 1.404 . S
C106 C105 1.404 . S
C106 C107 1.391 . S
C107 H101 0.930 . S
C107 C103 1.429 . S
C107 C106 1.391 . S
H108 C111 0.931 . S
H109 C114 0.928 . S
H110 C116 0.930 . S
C111 H108 0.931 . S
C111 C112 1.413 . S
C111 C113 1.360 . S
C112 C111 1.413 . S
C112 C116 1.429 . S
C113 C111 1.360 . S
C113 C114 1.372 . S
C114 H109 0.928 . S
C114 C113 1.372 . S
C114 C115 1.404 . S
C115 C114 1.404 . S
C115 C116 1.391 . S
C116 H110 0.930 . S
C116 C112 1.429 . S
C116 C115 1.391 . S
H117 C120 0.931 . S
H118 C123 0.928 . S
H119 C125 0.930 1_554 S
C120 H117 0.931 . S
C120 C121 1.413 . S
C120 C122 1.360 . S
C121 C120 1.413 . S
C121 C125 1.429 . S
C122 C120 1.360 . S
C122 C123 1.372 . S
C123 H118 0.928 . S
C123 C122 1.372 . S
C123 C124 1.404 . S
C124 C123 1.404 . S
C124 C125 1.391 . S
C125 H119 0.930 1_556 S
C125 C121 1.429 . S
C125 C124 1.391 . S
H126 C129 0.931 . S
H127 C132 0.928 . S
H128 C134 0.930 . S
C129 H126 0.931 . S
C129 C130 1.413 . S
C129 C131 1.360 . S
C130 C129 1.413 . S
C130 C134 1.429 . S
C131 C129 1.360 . S
C131 C132 1.372 . S
C132 H127 0.928 . S
C132 C131 1.372 . S
C132 C133 1.404 . S
C133 C132 1.404 . S
C133 C134 1.391 . S
C134 H128 0.930 . S
C134 C130 1.429 . S
C134 C133 1.391 . S
H135 C138 0.931 1_554 S
H136 C141 0.928 . S
H137 C143 0.930 1_565 S
C138 H135 0.931 1_556 S
C138 C139 1.413 . S
C138 C140 1.360 . S
C139 C138 1.413 . S
C139 C143 1.429 . S
C140 C138 1.360 . S
C140 C141 1.372 . S
C141 H136 0.928 . S
C141 C140 1.372 . S
C141 C142 1.404 . S
C142 C141 1.404 . S
C142 C143 1.391 . S
C143 H137 0.930 1_545 S
C143 C139 1.429 . S
C143 C142 1.391 . S
Li144 N161 1.990 . S
Li144 O204 1.956 . S
Li144 O205 1.970 1_556 S
Li144 O206 1.961 . S
Li145 N169 1.990 . S
Li145 O204 1.970 1_554 S
Li145 O205 1.956 . S
Li145 O207 1.961 . S
Li146 N191 1.990 . S
Li146 O204 1.961 . S
Li146 O206 1.956 . S
Li146 O207 1.970 1_556 S
Li147 N197 1.990 . S
Li147 O205 1.961 . S
Li147 O206 1.970 1_554 S
Li147 O207 1.956 . S
C148 C150 1.348 1_556 S
C148 C151 1.356 . S
C148 O204 1.325 . S
N149 C152 1.314 1_556 S
N149 C153 1.279 . S
C150 C148 1.348 1_554 S
C150 C152 1.353 . S
C150 H208 0.929 . S
C151 C148 1.356 . S
C151 C153 1.358 . S
C151 H209 0.930 . S
C152 N149 1.314 1_554 S
C152 C150 1.353 . S
C152 H210 0.930 . S
C153 N149 1.279 . S
C153 C151 1.358 . S
C153 H211 0.930 . S
C154 C157 1.348 . S
C154 C158 1.356 . S
C154 O205 1.325 . S
C155 N156 1.279 . S
C155 C158 1.358 . S
C155 H212 0.930 . S
N156 C155 1.279 . S
N156 C159 1.314 . S
C157 C154 1.348 . S
C157 C159 1.353 . S
C157 H213 0.929 . S
C158 C154 1.356 . S
C158 C155 1.358 . S
C158 H214 0.930 . S
C159 N156 1.314 . S
C159 C157 1.353 . S
C159 H215 0.930 . S
C160 N161 1.314 . S
C160 C165 1.353 . S
C160 H166 0.930 . S
N161 Li144 1.990 . S
N161 C160 1.314 . S
N161 C163 1.279 . S
C162 C163 1.358 . S
C162 C164 1.356 . S
C162 H216 0.930 . S
C163 N161 1.279 . S
C163 C162 1.358 . S
C163 H167 0.930 . S
C164 C162 1.356 . S
C164 C165 1.348 . S
C165 C160 1.353 . S
C165 C164 1.348 . S
C165 H217 0.929 . S
H166 C160 0.930 . S
H167 C163 0.930 . S
C168 N169 1.314 . S
C168 C170 1.353 . S
C168 H174 0.930 . S
N169 Li145 1.990 . S
N169 C168 1.314 . S
N169 C172 1.279 . S
C170 C168 1.353 . S
C170 C173 1.348 . S
C170 H218 0.929 . S
C171 C172 1.358 . S
C171 C173 1.356 . S
C171 H219 0.930 . S
C172 N169 1.279 . S
C172 C171 1.358 . S
C172 H175 0.930 . S
C173 C170 1.348 . S
C173 C171 1.356 . S
H174 C168 0.930 . S
H175 C172 0.930 . S
C176 C178 1.348 . S
C176 C179 1.356 . S
C176 O206 1.325 . S
N177 C180 1.314 . S
N177 C181 1.279 . S
C178 C176 1.348 . S
C178 C180 1.353 . S
C178 H220 0.929 . S
C179 C176 1.356 . S
C179 C181 1.358 . S
C179 H221 0.930 . S
C180 N177 1.314 . S
C180 C178 1.353 . S
C180 H222 0.930 . S
C181 N177 1.279 . S
C181 C179 1.358 . S
C181 H223 0.930 . S
C182 C183 1.348 1_554 S
C182 C184 1.356 . S
C182 O207 1.325 . S
C183 C182 1.348 1_556 S
C183 C185 1.353 . S
C183 H224 0.929 . S
C184 C182 1.356 . S
C184 C186 1.358 . S
C184 H225 0.930 . S
C185 C183 1.353 . S
C185 N187 1.314 1_556 S
C185 H226 0.930 . S
C186 C184 1.358 . S
C186 N187 1.279 . S
C186 H227 0.930 . S
N187 C185 1.314 1_554 S
N187 C186 1.279 . S
C188 C190 1.353 . S
C188 N191 1.314 . S
C188 H194 0.930 . S
C189 N191 1.279 . S
C189 C192 1.358 . S
C189 H195 0.930 . S
C190 C188 1.353 . S
C190 C193 1.348 . S
C190 H228 0.929 . S
N191 Li146 1.990 . S
N191 C188 1.314 . S
N191 C189 1.279 . S
C192 C189 1.358 . S
C192 C193 1.356 . S
C192 H229 0.930 . S
C193 C190 1.348 . S
C193 C192 1.356 . S
H194 C188 0.930 . S
H195 C189 0.930 . S
C196 N197 1.314 . S
C196 C198 1.353 . S
C196 H202 0.930 . S
N197 Li147 1.990 . S
N197 C196 1.314 . S
N197 C200 1.279 . S
C198 C196 1.353 . S
C198 C201 1.348 . S
C198 H230 0.929 . S
C199 C200 1.358 . S
C199 C201 1.356 . S
C199 H231 0.930 . S
C200 N197 1.279 . S
C200 C199 1.358 . S
C200 H203 0.930 . S
C201 C198 1.348 . S
C201 C199 1.356 . S
H202 C196 0.930 . S
H203 C200 0.930 . S
O204 Li144 1.956 . S
O204 Li145 1.970 1_556 S
O204 Li146 1.961 . S
O204 C148 1.325 . S
O205 Li144 1.970 1_554 S
O205 Li145 1.956 . S
O205 Li147 1.961 . S
O205 C154 1.325 . S
O206 Li144 1.961 . S
O206 Li146 1.956 . S
O206 Li147 1.970 1_556 S
O206 C176 1.325 . S
O207 Li145 1.961 . S
O207 Li146 1.970 1_554 S
O207 Li147 1.956 . S
O207 C182 1.325 . S
H208 C150 0.929 . S
H209 C151 0.930 . S
H210 C152 0.930 . S
H211 C153 0.930 . S
H212 C155 0.930 . S
H213 C157 0.929 . S
H214 C158 0.930 . S
H215 C159 0.930 . S
H216 C162 0.930 . S
H217 C165 0.929 . S
H218 C170 0.929 . S
H219 C171 0.930 . S
H220 C178 0.929 . S
H221 C179 0.930 . S
H222 C180 0.930 . S
H223 C181 0.930 . S
H224 C183 0.929 . S
H225 C184 0.930 . S
H226 C185 0.930 . S
H227 C186 0.930 . S
H228 C190 0.929 . S
H229 C192 0.930 . S
H230 C198 0.929 . S
H231 C199 0.930 . S
Li232 N249 1.990 . S
Li232 O292 1.956 . S
Li232 O293 1.970 . S
Li232 O294 1.961 . S
Li233 N257 1.990 . S
Li233 O292 1.970 . S
Li233 O293 1.956 . S
Li233 O295 1.961 . S
Li234 N279 1.990 . S
Li234 O292 1.961 . S
Li234 O294 1.956 . S
Li234 O295 1.970 . S
Li235 N285 1.990 . S
Li235 O293 1.961 . S
Li235 O294 1.970 . S
Li235 O295 1.956 . S
C236 C238 1.348 . S
C236 C239 1.356 . S
C236 O292 1.325 . S
N237 C240 1.314 . S
N237 C241 1.279 . S
C238 C236 1.348 . S
C238 C240 1.353 . S
C238 H296 0.929 . S
C239 C236 1.356 . S
C239 C241 1.358 . S
C239 H297 0.930 . S
C240 N237 1.314 . S
C240 C238 1.353 . S
C240 H298 0.930 . S
C241 N237 1.279 . S
C241 C239 1.358 . S
C241 H299 0.930 . S
C242 C245 1.348 . S
C242 C246 1.356 . S
C242 O293 1.325 . S
C243 N244 1.279 . S
C243 C246 1.358 . S
C243 H300 0.930 . S
N244 C243 1.279 . S
N244 C247 1.314 . S
C245 C242 1.348 . S
C245 C247 1.353 . S
C245 H301 0.929 . S
C246 C242 1.356 . S
C246 C243 1.358 . S
C246 H302 0.930 . S
C247 N244 1.314 . S
C247 C245 1.353 . S
C247 H303 0.930 . S
C248 N249 1.314 . S
C248 C253 1.353 . S
C248 H254 0.930 . S
N249 Li232 1.990 . S
N249 C248 1.314 . S
N249 C251 1.279 . S
C250 C251 1.358 . S
C250 C252 1.356 . S
C250 H304 0.930 . S
C251 N249 1.279 . S
C251 C250 1.358 . S
C251 H255 0.930 . S
C252 C250 1.356 . S
C252 C253 1.348 . S
C253 C248 1.353 . S
C253 C252 1.348 . S
C253 H305 0.929 . S
H254 C248 0.930 . S
H255 C251 0.930 . S
C256 N257 1.314 . S
C256 C258 1.353 . S
C256 H262 0.930 . S
N257 Li233 1.990 . S
N257 C256 1.314 . S
N257 C260 1.279 . S
C258 C256 1.353 . S
C258 C261 1.348 . S
C258 H306 0.929 . S
C259 C260 1.358 . S
C259 C261 1.356 . S
C259 H307 0.930 . S
C260 N257 1.279 . S
C260 C259 1.358 . S
C260 H263 0.930 . S
C261 C258 1.348 . S
C261 C259 1.356 . S
H262 C256 0.930 . S
H263 C260 0.930 . S
C264 C266 1.348 . S
C264 C267 1.356 . S
C264 O294 1.325 . S
N265 C268 1.314 . S
N265 C269 1.279 . S
C266 C264 1.348 . S
C266 C268 1.353 . S
C266 H308 0.929 . S
C267 C264 1.356 . S
C267 C269 1.358 . S
C267 H309 0.930 . S
C268 N265 1.314 . S
C268 C266 1.353 . S
C268 H310 0.930 . S
C269 N265 1.279 . S
C269 C267 1.358 . S
C269 H311 0.930 . S
C270 C271 1.348 . S
C270 C272 1.356 . S
C270 O295 1.325 . S
C271 C270 1.348 . S
C271 C273 1.353 . S
C271 H312 0.929 . S
C272 C270 1.356 . S
C272 C274 1.358 . S
C272 H313 0.930 . S
C273 C271 1.353 . S
C273 N275 1.314 . S
C273 H314 0.930 . S
C274 C272 1.358 . S
C274 N275 1.279 . S
C274 H315 0.930 . S
N275 C273 1.314 . S
N275 C274 1.279 . S
C276 C278 1.353 . S
C276 N279 1.314 . S
C276 H282 0.930 . S
C277 N279 1.279 . S
C277 C280 1.358 . S
C277 H283 0.930 . S
C278 C276 1.353 . S
C278 C281 1.348 . S
C278 H316 0.929 . S
N279 Li234 1.990 . S
N279 C276 1.314 . S
N279 C277 1.279 . S
C280 C277 1.358 . S
C280 C281 1.356 . S
C280 H317 0.930 . S
C281 C278 1.348 . S
C281 C280 1.356 . S
H282 C276 0.930 . S
H283 C277 0.930 . S
C284 N285 1.314 . S
C284 C286 1.353 . S
C284 H290 0.930 . S
N285 Li235 1.990 . S
N285 C284 1.314 . S
N285 C288 1.279 . S
C286 C284 1.353 . S
C286 C289 1.348 . S
C286 H318 0.929 . S
C287 C288 1.358 . S
C287 C289 1.356 . S
C287 H319 0.930 . S
C288 N285 1.279 . S
C288 C287 1.358 . S
C288 H291 0.930 . S
C289 C286 1.348 . S
C289 C287 1.356 . S
H290 C284 0.930 . S
H291 C288 0.930 . S
O292 Li232 1.956 . S
O292 Li233 1.970 . S
O292 Li234 1.961 . S
O292 C236 1.325 . S
O293 Li232 1.970 . S
O293 Li233 1.956 . S
O293 Li235 1.961 . S
O293 C242 1.325 . S
O294 Li232 1.961 . S
O294 Li234 1.956 . S
O294 Li235 1.970 . S
O294 C264 1.325 . S
O295 Li233 1.961 . S
O295 Li234 1.970 . S
O295 Li235 1.956 . S
O295 C270 1.325 . S
H296 C238 0.929 . S
H297 C239 0.930 . S
H298 C240 0.930 . S
H299 C241 0.930 . S
H300 C243 0.930 . S
H301 C245 0.929 . S
H302 C246 0.930 . S
H303 C247 0.930 . S
H304 C250 0.930 . S
H305 C253 0.929 . S
H306 C258 0.929 . S
H307 C259 0.930 . S
H308 C266 0.929 . S
H309 C267 0.930 . S
H310 C268 0.930 . S
H311 C269 0.930 . S
H312 C271 0.929 . S
H313 C272 0.930 . S
H314 C273 0.930 . S
H315 C274 0.930 . S
H316 C278 0.929 . S
H317 C280 0.930 . S
H318 C286 0.929 . S
H319 C287 0.930 . S
Li320 N337 1.990 . S
Li320 O380 1.956 . S
Li320 O381 1.970 1_556 S
Li320 O382 1.961 . S
Li321 N345 1.990 . S
Li321 O380 1.970 1_554 S
Li321 O381 1.956 . S
Li321 O383 1.961 . S
Li322 N367 1.990 . S
Li322 O380 1.961 . S
Li322 O382 1.956 . S
Li322 O383 1.970 1_556 S
Li323 N373 1.990 . S
Li323 O381 1.961 . S
Li323 O382 1.970 1_554 S
Li323 O383 1.956 . S
C324 C326 1.348 1_556 S
C324 C327 1.356 . S
C324 O380 1.325 . S
N325 C328 1.314 1_556 S
N325 C329 1.279 . S
C326 C324 1.348 1_554 S
C326 C328 1.353 . S
C326 H384 0.929 . S
C327 C324 1.356 . S
C327 C329 1.358 . S
C327 H385 0.930 . S
C328 N325 1.314 1_554 S
C328 C326 1.353 . S
C328 H386 0.930 . S
C329 N325 1.279 . S
C329 C327 1.358 . S
C329 H387 0.930 . S
C330 C333 1.348 . S
C330 C334 1.356 . S
C330 O381 1.325 . S
C331 N332 1.279 . S
C331 C334 1.358 . S
C331 H388 0.930 . S
N332 C331 1.279 . S
N332 C335 1.314 . S
C333 C330 1.348 . S
C333 C335 1.353 . S
C333 H389 0.929 . S
C334 C330 1.356 . S
C334 C331 1.358 . S
C334 H390 0.930 . S
C335 N332 1.314 . S
C335 C333 1.353 . S
C335 H391 0.930 . S
C336 N337 1.314 . S
C336 C341 1.353 . S
C336 H342 0.930 . S
N337 Li320 1.990 . S
N337 C336 1.314 . S
N337 C339 1.279 . S
C338 C339 1.358 . S
C338 C340 1.356 . S
C338 H392 0.930 . S
C339 N337 1.279 . S
C339 C338 1.358 . S
C339 H343 0.930 . S
C340 C338 1.356 . S
C340 C341 1.348 . S
C341 C336 1.353 . S
C341 C340 1.348 . S
C341 H393 0.929 . S
H342 C336 0.930 . S
H343 C339 0.930 . S
C344 N345 1.314 . S
C344 C346 1.353 . S
C344 H350 0.930 . S
N345 Li321 1.990 . S
N345 C344 1.314 . S
N345 C348 1.279 . S
C346 C344 1.353 . S
C346 C349 1.348 . S
C346 H394 0.929 . S
C347 C348 1.358 . S
C347 C349 1.356 . S
C347 H395 0.930 . S
C348 N345 1.279 . S
C348 C347 1.358 . S
C348 H351 0.930 . S
C349 C346 1.348 . S
C349 C347 1.356 . S
H350 C344 0.930 . S
H351 C348 0.930 . S
C352 C354 1.348 . S
C352 C355 1.356 . S
C352 O382 1.325 . S
N353 C356 1.314 . S
N353 C357 1.279 . S
C354 C352 1.348 . S
C354 C356 1.353 . S
C354 H396 0.929 . S
C355 C352 1.356 . S
C355 C357 1.358 . S
C355 H397 0.930 . S
C356 N353 1.314 . S
C356 C354 1.353 . S
C356 H398 0.930 . S
C357 N353 1.279 . S
C357 C355 1.358 . S
C357 H399 0.930 . S
C358 C359 1.348 1_554 S
C358 C360 1.356 . S
C358 O383 1.325 . S
C359 C358 1.348 1_556 S
C359 C361 1.353 . S
C359 H400 0.929 . S
C360 C358 1.356 . S
C360 C362 1.358 . S
C360 H401 0.930 . S
C361 C359 1.353 . S
C361 N363 1.314 1_556 S
C361 H402 0.930 . S
C362 C360 1.358 . S
C362 N363 1.279 . S
C362 H403 0.930 . S
N363 C361 1.314 1_554 S
N363 C362 1.279 . S
C364 C366 1.353 . S
C364 N367 1.314 . S
C364 H370 0.930 . S
C365 N367 1.279 . S
C365 C368 1.358 . S
C365 H371 0.930 . S
C366 C364 1.353 . S
C366 C369 1.348 . S
C366 H404 0.929 . S
N367 Li322 1.990 . S
N367 C364 1.314 . S
N367 C365 1.279 . S
C368 C365 1.358 . S
C368 C369 1.356 . S
C368 H405 0.930 . S
C369 C366 1.348 . S
C369 C368 1.356 . S
H370 C364 0.930 . S
H371 C365 0.930 . S
C372 N373 1.314 . S
C372 C374 1.353 . S
C372 H378 0.930 . S
N373 Li323 1.990 . S
N373 C372 1.314 . S
N373 C376 1.279 . S
C374 C372 1.353 . S
C374 C377 1.348 . S
C374 H406 0.929 . S
C375 C376 1.358 . S
C375 C377 1.356 . S
C375 H407 0.930 . S
C376 N373 1.279 . S
C376 C375 1.358 . S
C376 H379 0.930 . S
C377 C374 1.348 . S
C377 C375 1.356 . S
H378 C372 0.930 . S
H379 C376 0.930 . S
O380 Li320 1.956 . S
O380 Li321 1.970 1_556 S
O380 Li322 1.961 . S
O380 C324 1.325 . S
O381 Li320 1.970 1_554 S
O381 Li321 1.956 . S
O381 Li323 1.961 . S
O381 C330 1.325 . S
O382 Li320 1.961 . S
O382 Li322 1.956 . S
O382 Li323 1.970 1_556 S
O382 C352 1.325 . S
O383 Li321 1.961 . S
O383 Li322 1.970 1_554 S
O383 Li323 1.956 . S
O383 C358 1.325 . S
H384 C326 0.929 . S
H385 C327 0.930 . S
H386 C328 0.930 . S
H387 C329 0.930 . S
H388 C331 0.930 . S
H389 C333 0.929 . S
H390 C334 0.930 . S
H391 C335 0.930 . S
H392 C338 0.930 . S
H393 C341 0.929 . S
H394 C346 0.929 . S
H395 C347 0.930 . S
H396 C354 0.929 . S
H397 C355 0.930 . S
H398 C356 0.930 . S
H399 C357 0.930 . S
H400 C359 0.929 . S
H401 C360 0.930 . S
H402 C361 0.930 . S
H403 C362 0.930 . S
H404 C366 0.929 . S
H405 C368 0.930 . S
H406 C374 0.929 . S
H407 C375 0.930 . S
Li408 N425 1.990 . S
Li408 O468 1.956 . S
Li408 O469 1.970 1_545 S
Li408 O470 1.961 . S
Li409 N433 1.990 . S
Li409 O468 1.970 1_565 S
Li409 O469 1.956 . S
Li409 O471 1.961 . S
Li410 N455 1.990 . S
Li410 O468 1.961 . S
Li410 O470 1.956 . S
Li410 O471 1.970 1_545 S
Li411 N461 1.990 . S
Li411 O469 1.961 . S
Li411 O470 1.970 1_565 S
Li411 O471 1.956 . S
C412 C414 1.348 . S
C412 C415 1.356 . S
C412 O468 1.325 . S
N413 C416 1.314 . S
N413 C417 1.279 . S
C414 C412 1.348 . S
C414 C416 1.353 . S
C414 H472 0.929 . S
C415 C412 1.356 . S
C415 C417 1.358 . S
C415 H473 0.930 . S
C416 N413 1.314 . S
C416 C414 1.353 . S
C416 H474 0.930 . S
C417 N413 1.279 . S
C417 C415 1.358 . S
C417 H475 0.930 . S
C418 C421 1.348 1_565 S
C418 C422 1.356 . S
C418 O469 1.325 . S
C419 N420 1.279 . S
C419 C422 1.358 . S
C419 H476 0.930 . S
N420 C419 1.279 . S
N420 C423 1.314 1_565 S
C421 C418 1.348 1_545 S
C421 C423 1.353 . S
C421 H477 0.929 . S
C422 C418 1.356 . S
C422 C419 1.358 . S
C422 H478 0.930 . S
C423 N420 1.314 1_545 S
C423 C421 1.353 . S
C423 H479 0.930 . S
C424 N425 1.314 . S
C424 C429 1.353 . S
C424 H430 0.930 . S
N425 Li408 1.990 . S
N425 C424 1.314 . S
N425 C427 1.279 . S
C426 C427 1.358 . S
C426 C428 1.356 . S
C426 H480 0.930 . S
C427 N425 1.279 . S
C427 C426 1.358 . S
C427 H431 0.930 . S
C428 C426 1.356 . S
C428 C429 1.348 . S
C429 C424 1.353 . S
C429 C428 1.348 . S
C429 H481 0.929 . S
H430 C424 0.930 . S
H431 C427 0.930 . S
C432 N433 1.314 . S
C432 C434 1.353 . S
C432 H438 0.930 . S
N433 Li409 1.990 . S
N433 C432 1.314 . S
N433 C436 1.279 . S
C434 C432 1.353 . S
C434 C437 1.348 . S
C434 H482 0.929 . S
C435 C436 1.358 . S
C435 C437 1.356 . S
C435 H483 0.930 . S
C436 N433 1.279 . S
C436 C435 1.358 . S
C436 H439 0.930 . S
C437 C434 1.348 . S
C437 C435 1.356 . S
H438 C432 0.930 . S
H439 C436 0.930 . S
C440 C442 1.348 1_545 S
C440 C443 1.356 . S
C440 O470 1.325 . S
N441 C444 1.314 1_545 S
N441 C445 1.279 . S
C442 C440 1.348 1_565 S
C442 C444 1.353 . S
C442 H484 0.929 . S
C443 C440 1.356 . S
C443 C445 1.358 . S
C443 H485 0.930 . S
C444 N441 1.314 1_565 S
C444 C442 1.353 . S
C444 H486 0.930 . S
C445 N441 1.279 . S
C445 C443 1.358 . S
C445 H487 0.930 . S
C446 C447 1.348 . S
C446 C448 1.356 . S
C446 O471 1.325 . S
C447 C446 1.348 . S
C447 C449 1.353 . S
C447 H488 0.929 . S
C448 C446 1.356 . S
C448 C450 1.358 . S
C448 H489 0.930 . S
C449 C447 1.353 . S
C449 N451 1.314 . S
C449 H490 0.930 . S
C450 C448 1.358 . S
C450 N451 1.279 . S
C450 H491 0.930 . S
N451 C449 1.314 . S
N451 C450 1.279 . S
C452 C454 1.353 . S
C452 N455 1.314 . S
C452 H458 0.930 . S
C453 N455 1.279 . S
C453 C456 1.358 . S
C453 H459 0.930 . S
C454 C452 1.353 . S
C454 C457 1.348 . S
C454 H492 0.929 . S
N455 Li410 1.990 . S
N455 C452 1.314 . S
N455 C453 1.279 . S
C456 C453 1.358 . S
C456 C457 1.356 . S
C456 H493 0.930 . S
C457 C454 1.348 . S
C457 C456 1.356 . S
H458 C452 0.930 . S
H459 C453 0.930 . S
C460 N461 1.314 . S
C460 C462 1.353 . S
C460 H466 0.930 . S
N461 Li411 1.990 . S
N461 C460 1.314 . S
N461 C464 1.279 . S
C462 C460 1.353 . S
C462 C465 1.348 . S
C462 H494 0.929 . S
C463 C464 1.358 . S
C463 C465 1.356 . S
C463 H495 0.930 . S
C464 N461 1.279 . S
C464 C463 1.358 . S
C464 H467 0.930 . S
C465 C462 1.348 . S
C465 C463 1.356 . S
H466 C460 0.930 . S
H467 C464 0.930 . S
O468 Li408 1.956 . S
O468 Li409 1.970 1_545 S
O468 Li410 1.961 . S
O468 C412 1.325 . S
O469 Li408 1.970 1_565 S
O469 Li409 1.956 . S
O469 Li411 1.961 . S
O469 C418 1.325 . S
O470 Li408 1.961 . S
O470 Li410 1.956 . S
O470 Li411 1.970 1_545 S
O470 C440 1.325 . S
O471 Li409 1.961 . S
O471 Li410 1.970 1_565 S
O471 Li411 1.956 . S
O471 C446 1.325 . S
H472 C414 0.929 . S
H473 C415 0.930 . S
H474 C416 0.930 . S
H475 C417 0.930 . S
H476 C419 0.930 . S
H477 C421 0.929 . S
H478 C422 0.930 . S
H479 C423 0.930 . S
H480 C426 0.930 . S
H481 C429 0.929 . S
H482 C434 0.929 . S
H483 C435 0.930 . S
H484 C442 0.929 . S
H485 C443 0.930 . S
H486 C444 0.930 . S
H487 C445 0.930 . S
H488 C447 0.929 . S
H489 C448 0.930 . S
H490 C449 0.930 . S
H491 C450 0.930 . S
H492 C454 0.929 . S
H493 C456 0.930 . S
H494 C462 0.929 . S
H495 C463 0.930 . S
Li496 N513 1.990 . S
Li496 O556 1.956 . S
Li496 O557 1.970 . S
Li496 O558 1.961 . S
Li497 N521 1.990 . S
Li497 O556 1.970 . S
Li497 O557 1.956 . S
Li497 O559 1.961 . S
Li498 N543 1.990 . S
Li498 O556 1.961 . S
Li498 O558 1.956 . S
Li498 O559 1.970 . S
Li499 N549 1.990 . S
Li499 O557 1.961 . S
Li499 O558 1.970 . S
Li499 O559 1.956 . S
C500 C502 1.348 . S
C500 C503 1.356 . S
C500 O556 1.325 . S
N501 C504 1.314 . S
N501 C505 1.279 . S
C502 C500 1.348 . S
C502 C504 1.353 . S
C502 H560 0.929 . S
C503 C500 1.356 . S
C503 C505 1.358 . S
C503 H561 0.930 . S
C504 N501 1.314 . S
C504 C502 1.353 . S
C504 H562 0.930 . S
C505 N501 1.279 . S
C505 C503 1.358 . S
C505 H563 0.930 . S
C506 C509 1.348 . S
C506 C510 1.356 . S
C506 O557 1.325 . S
C507 N508 1.279 . S
C507 C510 1.358 . S
C507 H564 0.930 . S
N508 C507 1.279 . S
N508 C511 1.314 . S
C509 C506 1.348 . S
C509 C511 1.353 . S
C509 H565 0.929 . S
C510 C506 1.356 . S
C510 C507 1.358 . S
C510 H566 0.930 . S
C511 N508 1.314 . S
C511 C509 1.353 . S
C511 H567 0.930 . S
C512 N513 1.314 . S
C512 C517 1.353 . S
C512 H518 0.930 . S
N513 Li496 1.990 . S
N513 C512 1.314 . S
N513 C515 1.279 . S
C514 C515 1.358 . S
C514 C516 1.356 . S
C514 H568 0.930 . S
C515 N513 1.279 . S
C515 C514 1.358 . S
C515 H519 0.930 . S
C516 C514 1.356 . S
C516 C517 1.348 . S
C517 C512 1.353 . S
C517 C516 1.348 . S
C517 H569 0.929 . S
H518 C512 0.930 . S
H519 C515 0.930 . S
C520 N521 1.314 . S
C520 C522 1.353 . S
C520 H526 0.930 . S
N521 Li497 1.990 . S
N521 C520 1.314 . S
N521 C524 1.279 . S
C522 C520 1.353 . S
C522 C525 1.348 . S
C522 H570 0.929 . S
C523 C524 1.358 . S
C523 C525 1.356 . S
C523 H571 0.930 . S
C524 N521 1.279 . S
C524 C523 1.358 . S
C524 H527 0.930 . S
C525 C522 1.348 . S
C525 C523 1.356 . S
H526 C520 0.930 . S
H527 C524 0.930 . S
C528 C530 1.348 . S
C528 C531 1.356 . S
C528 O558 1.325 . S
N529 C532 1.314 . S
N529 C533 1.279 . S
C530 C528 1.348 . S
C530 C532 1.353 . S
C530 H572 0.929 . S
C531 C528 1.356 . S
C531 C533 1.358 . S
C531 H573 0.930 . S
C532 N529 1.314 . S
C532 C530 1.353 . S
C532 H574 0.930 . S
C533 N529 1.279 . S
C533 C531 1.358 . S
C533 H575 0.930 . S
C534 C535 1.348 . S
C534 C536 1.356 . S
C534 O559 1.325 . S
C535 C534 1.348 . S
C535 C537 1.353 . S
C535 H576 0.929 . S
C536 C534 1.356 . S
C536 C538 1.358 . S
C536 H577 0.930 . S
C537 C535 1.353 . S
C537 N539 1.314 . S
C537 H578 0.930 . S
C538 C536 1.358 . S
C538 N539 1.279 . S
C538 H579 0.930 . S
N539 C537 1.314 . S
N539 C538 1.279 . S
C540 C542 1.353 . S
C540 N543 1.314 . S
C540 H546 0.930 . S
C541 N543 1.279 . S
C541 C544 1.358 . S
C541 H547 0.930 . S
C542 C540 1.353 . S
C542 C545 1.348 . S
C542 H580 0.929 . S
N543 Li498 1.990 . S
N543 C540 1.314 . S
N543 C541 1.279 . S
C544 C541 1.358 . S
C544 C545 1.356 . S
C544 H581 0.930 . S
C545 C542 1.348 . S
C545 C544 1.356 . S
H546 C540 0.930 . S
H547 C541 0.930 . S
C548 N549 1.314 . S
C548 C550 1.353 . S
C548 H554 0.930 . S
N549 Li499 1.990 . S
N549 C548 1.314 . S
N549 C552 1.279 . S
C550 C548 1.353 . S
C550 C553 1.348 . S
C550 H582 0.929 . S
C551 C552 1.358 . S
C551 C553 1.356 . S
C551 H583 0.930 . S
C552 N549 1.279 . S
C552 C551 1.358 . S
C552 H555 0.930 . S
C553 C550 1.348 . S
C553 C551 1.356 . S
H554 C548 0.930 . S
H555 C552 0.930 . S
O556 Li496 1.956 . S
O556 Li497 1.970 . S
O556 Li498 1.961 . S
O556 C500 1.325 . S
O557 Li496 1.970 . S
O557 Li497 1.956 . S
O557 Li499 1.961 . S
O557 C506 1.325 . S
O558 Li496 1.961 . S
O558 Li498 1.956 . S
O558 Li499 1.970 . S
O558 C528 1.325 . S
O559 Li497 1.961 . S
O559 Li498 1.970 . S
O559 Li499 1.956 . S
O559 C534 1.325 . S
H560 C502 0.929 . S
H561 C503 0.930 . S
H562 C504 0.930 . S
H563 C505 0.930 . S
H564 C507 0.930 . S
H565 C509 0.929 . S
H566 C510 0.930 . S
H567 C511 0.930 . S
H568 C514 0.930 . S
H569 C517 0.929 . S
H570 C522 0.929 . S
H571 C523 0.930 . S
H572 C530 0.929 . S
H573 C531 0.930 . S
H574 C532 0.930 . S
H575 C533 0.930 . S
H576 C535 0.929 . S
H577 C536 0.930 . S
H578 C537 0.930 . S
H579 C538 0.930 . S
H580 C542 0.929 . S
H581 C544 0.930 . S
H582 C550 0.929 . S
H583 C551 0.930 . S
Li584 N601 1.990 . S
Li584 O644 1.956 . S
Li584 O645 1.970 . S
Li584 O646 1.961 . S
Li585 N609 1.990 . S
Li585 O644 1.970 . S
Li585 O645 1.956 . S
Li585 O647 1.961 . S
Li586 N631 1.990 . S
Li586 O644 1.961 . S
Li586 O646 1.956 . S
Li586 O647 1.970 . S
Li587 N637 1.990 . S
Li587 O645 1.961 . S
Li587 O646 1.970 . S
Li587 O647 1.956 . S
C588 C590 1.348 . S
C588 C591 1.356 . S
C588 O644 1.325 . S
N589 C592 1.314 . S
N589 C593 1.279 . S
C590 C588 1.348 . S
C590 C592 1.353 . S
C590 H648 0.929 . S
C591 C588 1.356 . S
C591 C593 1.358 . S
C591 H649 0.930 . S
C592 N589 1.314 . S
C592 C590 1.353 . S
C592 H650 0.930 . S
C593 N589 1.279 . S
C593 C591 1.358 . S
C593 H651 0.930 . S
C594 C597 1.348 . S
C594 C598 1.356 . S
C594 O645 1.325 . S
C595 N596 1.279 . S
C595 C598 1.358 . S
C595 H652 0.930 . S
N596 C595 1.279 . S
N596 C599 1.314 . S
C597 C594 1.348 . S
C597 C599 1.353 . S
C597 H653 0.929 . S
C598 C594 1.356 . S
C598 C595 1.358 . S
C598 H654 0.930 . S
C599 N596 1.314 . S
C599 C597 1.353 . S
C599 H655 0.930 . S
C600 N601 1.314 . S
C600 C605 1.353 . S
C600 H606 0.930 . S
N601 Li584 1.990 . S
N601 C600 1.314 . S
N601 C603 1.279 . S
C602 C603 1.358 . S
C602 C604 1.356 . S
C602 H656 0.930 . S
C603 N601 1.279 . S
C603 C602 1.358 . S
C603 H607 0.930 . S
C604 C602 1.356 . S
C604 C605 1.348 . S
C605 C600 1.353 . S
C605 C604 1.348 . S
C605 H657 0.929 . S
H606 C600 0.930 . S
H607 C603 0.930 . S
C608 N609 1.314 . S
C608 C610 1.353 . S
C608 H614 0.930 . S
N609 Li585 1.990 . S
N609 C608 1.314 . S
N609 C612 1.279 . S
C610 C608 1.353 . S
C610 C613 1.348 . S
C610 H658 0.929 . S
C611 C612 1.358 . S
C611 C613 1.356 . S
C611 H659 0.930 . S
C612 N609 1.279 . S
C612 C611 1.358 . S
C612 H615 0.930 . S
C613 C610 1.348 . S
C613 C611 1.356 . S
H614 C608 0.930 . S
H615 C612 0.930 . S
C616 C618 1.348 . S
C616 C619 1.356 . S
C616 O646 1.325 . S
N617 C620 1.314 . S
N617 C621 1.279 . S
C618 C616 1.348 . S
C618 C620 1.353 . S
C618 H660 0.929 . S
C619 C616 1.356 . S
C619 C621 1.358 . S
C619 H661 0.930 . S
C620 N617 1.314 . S
C620 C618 1.353 . S
C620 H662 0.930 . S
C621 N617 1.279 . S
C621 C619 1.358 . S
C621 H663 0.930 . S
C622 C623 1.348 . S
C622 C624 1.356 . S
C622 O647 1.325 . S
C623 C622 1.348 . S
C623 C625 1.353 . S
C623 H664 0.929 . S
C624 C622 1.356 . S
C624 C626 1.358 . S
C624 H665 0.930 . S
C625 C623 1.353 . S
C625 N627 1.314 . S
C625 H666 0.930 . S
C626 C624 1.358 . S
C626 N627 1.279 . S
C626 H667 0.930 . S
N627 C625 1.314 . S
N627 C626 1.279 . S
C628 C630 1.353 . S
C628 N631 1.314 . S
C628 H634 0.930 . S
C629 N631 1.279 . S
C629 C632 1.358 . S
C629 H635 0.930 . S
C630 C628 1.353 . S
C630 C633 1.348 . S
C630 H668 0.929 . S
N631 Li586 1.990 . S
N631 C628 1.314 . S
N631 C629 1.279 . S
C632 C629 1.358 . S
C632 C633 1.356 . S
C632 H669 0.930 . S
C633 C630 1.348 . S
C633 C632 1.356 . S
H634 C628 0.930 . S
H635 C629 0.930 . S
C636 N637 1.314 . S
C636 C638 1.353 . S
C636 H642 0.930 . S
N637 Li587 1.990 . S
N637 C636 1.314 . S
N637 C640 1.279 . S
C638 C636 1.353 . S
C638 C641 1.348 . S
C638 H670 0.929 . S
C639 C640 1.358 . S
C639 C641 1.356 . S
C639 H671 0.930 . S
C640 N637 1.279 . S
C640 C639 1.358 . S
C640 H643 0.930 . S
C641 C638 1.348 . S
C641 C639 1.356 . S
H642 C636 0.930 . S
H643 C640 0.930 . S
O644 Li584 1.956 . S
O644 Li585 1.970 . S
O644 Li586 1.961 . S
O644 C588 1.325 . S
O645 Li584 1.970 . S
O645 Li585 1.956 . S
O645 Li587 1.961 . S
O645 C594 1.325 . S
O646 Li584 1.961 . S
O646 Li586 1.956 . S
O646 Li587 1.970 . S
O646 C616 1.325 . S
O647 Li585 1.961 . S
O647 Li586 1.970 . S
O647 Li587 1.956 . S
O647 C622 1.325 . S
H648 C590 0.929 . S
H649 C591 0.930 . S
H650 C592 0.930 . S
H651 C593 0.930 . S
H652 C595 0.930 . S
H653 C597 0.929 . S
H654 C598 0.930 . S
H655 C599 0.930 . S
H656 C602 0.930 . S
H657 C605 0.929 . S
H658 C610 0.929 . S
H659 C611 0.930 . S
H660 C618 0.929 . S
H661 C619 0.930 . S
H662 C620 0.930 . S
H663 C621 0.930 . S
H664 C623 0.929 . S
H665 C624 0.930 . S
H666 C625 0.930 . S
H667 C626 0.930 . S
H668 C630 0.929 . S
H669 C632 0.930 . S
H670 C638 0.929 . S
H671 C639 0.930 . S
Li672 N689 1.990 . S
Li672 O732 1.956 . S
Li672 O733 1.970 . S
Li672 O734 1.961 . S
Li673 N697 1.990 . S
Li673 O732 1.970 . S
Li673 O733 1.956 . S
Li673 O735 1.961 . S
Li674 N719 1.990 . S
Li674 O732 1.961 . S
Li674 O734 1.956 . S
Li674 O735 1.970 . S
Li675 N725 1.990 . S
Li675 O733 1.961 . S
Li675 O734 1.970 . S
Li675 O735 1.956 . S
C676 C678 1.348 . S
C676 C679 1.356 . S
C676 O732 1.325 . S
N677 C680 1.314 . S
N677 C681 1.279 . S
C678 C676 1.348 . S
C678 C680 1.353 . S
C678 H736 0.929 . S
C679 C676 1.356 . S
C679 C681 1.358 . S
C679 H737 0.930 . S
C680 N677 1.314 . S
C680 C678 1.353 . S
C680 H738 0.930 . S
C681 N677 1.279 . S
C681 C679 1.358 . S
C681 H739 0.930 . S
C682 C685 1.348 . S
C682 C686 1.356 . S
C682 O733 1.325 . S
C683 N684 1.279 . S
C683 C686 1.358 . S
C683 H740 0.930 . S
N684 C683 1.279 . S
N684 C687 1.314 . S
C685 C682 1.348 . S
C685 C687 1.353 . S
C685 H741 0.929 . S
C686 C682 1.356 . S
C686 C683 1.358 . S
C686 H742 0.930 . S
C687 N684 1.314 . S
C687 C685 1.353 . S
C687 H743 0.930 . S
C688 N689 1.314 . S
C688 C693 1.353 . S
C688 H694 0.930 . S
N689 Li672 1.990 . S
N689 C688 1.314 . S
N689 C691 1.279 . S
C690 C691 1.358 . S
C690 C692 1.356 . S
C690 H744 0.930 . S
C691 N689 1.279 . S
C691 C690 1.358 . S
C691 H695 0.930 . S
C692 C690 1.356 . S
C692 C693 1.348 . S
C693 C688 1.353 . S
C693 C692 1.348 . S
C693 H745 0.929 . S
H694 C688 0.930 . S
H695 C691 0.930 . S
C696 N697 1.314 . S
C696 C698 1.353 . S
C696 H702 0.930 . S
N697 Li673 1.990 . S
N697 C696 1.314 . S
N697 C700 1.279 . S
C698 C696 1.353 . S
C698 C701 1.348 . S
C698 H746 0.929 . S
C699 C700 1.358 . S
C699 C701 1.356 . S
C699 H747 0.930 . S
C700 N697 1.279 . S
C700 C699 1.358 . S
C700 H703 0.930 . S
C701 C698 1.348 . S
C701 C699 1.356 . S
H702 C696 0.930 . S
H703 C700 0.930 . S
C704 C706 1.348 . S
C704 C707 1.356 . S
C704 O734 1.325 . S
N705 C708 1.314 . S
N705 C709 1.279 . S
C706 C704 1.348 . S
C706 C708 1.353 . S
C706 H748 0.929 . S
C707 C704 1.356 . S
C707 C709 1.358 . S
C707 H749 0.930 . S
C708 N705 1.314 . S
C708 C706 1.353 . S
C708 H750 0.930 . S
C709 N705 1.279 . S
C709 C707 1.358 . S
C709 H751 0.930 . S
C710 C711 1.348 . S
C710 C712 1.356 . S
C710 O735 1.325 . S
C711 C710 1.348 . S
C711 C713 1.353 . S
C711 H752 0.929 . S
C712 C710 1.356 . S
C712 C714 1.358 . S
C712 H753 0.930 . S
C713 C711 1.353 . S
C713 N715 1.314 . S
C713 H754 0.930 . S
C714 C712 1.358 . S
C714 N715 1.279 . S
C714 H755 0.930 . S
N715 C713 1.314 . S
N715 C714 1.279 . S
C716 C718 1.353 . S
C716 N719 1.314 . S
C716 H722 0.930 . S
C717 N719 1.279 . S
C717 C720 1.358 . S
C717 H723 0.930 . S
C718 C716 1.353 . S
C718 C721 1.348 . S
C718 H756 0.929 . S
N719 Li674 1.990 . S
N719 C716 1.314 . S
N719 C717 1.279 . S
C720 C717 1.358 . S
C720 C721 1.356 . S
C720 H757 0.930 . S
C721 C718 1.348 . S
C721 C720 1.356 . S
H722 C716 0.930 . S
H723 C717 0.930 . S
C724 N725 1.314 . S
C724 C726 1.353 . S
C724 H730 0.930 . S
N725 Li675 1.990 . S
N725 C724 1.314 . S
N725 C728 1.279 . S
C726 C724 1.353 . S
C726 C729 1.348 . S
C726 H758 0.929 . S
C727 C728 1.358 . S
C727 C729 1.356 . S
C727 H759 0.930 . S
C728 N725 1.279 . S
C728 C727 1.358 . S
C728 H731 0.930 . S
C729 C726 1.348 . S
C729 C727 1.356 . S
H730 C724 0.930 . S
H731 C728 0.930 . S
O732 Li672 1.956 . S
O732 Li673 1.970 . S
O732 Li674 1.961 . S
O732 C676 1.325 . S
O733 Li672 1.970 . S
O733 Li673 1.956 . S
O733 Li675 1.961 . S
O733 C682 1.325 . S
O734 Li672 1.961 . S
O734 Li674 1.956 . S
O734 Li675 1.970 . S
O734 C704 1.325 . S
O735 Li673 1.961 . S
O735 Li674 1.970 . S
O735 Li675 1.956 . S
O735 C710 1.325 . S
H736 C678 0.929 . S
H737 C679 0.930 . S
H738 C680 0.930 . S
H739 C681 0.930 . S
H740 C683 0.930 . S
H741 C685 0.929 . S
H742 C686 0.930 . S
H743 C687 0.930 . S
H744 C690 0.930 . S
H745 C693 0.929 . S
H746 C698 0.929 . S
H747 C699 0.930 . S
H748 C706 0.929 . S
H749 C707 0.930 . S
H750 C708 0.930 . S
H751 C709 0.930 . S
H752 C711 0.929 . S
H753 C712 0.930 . S
H754 C713 0.930 . S
H755 C714 0.930 . S
H756 C718 0.929 . S
H757 C720 0.930 . S
H758 C726 0.929 . S
H759 C727 0.930 . S
Li760 N777 1.990 . S
Li760 O820 1.956 . S
Li760 O821 1.970 1_565 S
Li760 O822 1.961 . S
Li761 N785 1.990 . S
Li761 O820 1.970 1_545 S
Li761 O821 1.956 . S
Li761 O823 1.961 . S
Li762 N807 1.990 . S
Li762 O820 1.961 . S
Li762 O822 1.956 . S
Li762 O823 1.970 1_565 S
Li763 N813 1.990 . S
Li763 O821 1.961 . S
Li763 O822 1.970 1_545 S
Li763 O823 1.956 . S
C764 C766 1.348 . S
C764 C767 1.356 . S
C764 O820 1.325 . S
N765 C768 1.314 . S
N765 C769 1.279 . S
C766 C764 1.348 . S
C766 C768 1.353 . S
C766 H824 0.929 . S
C767 C764 1.356 . S
C767 C769 1.358 . S
C767 H825 0.930 . S
C768 N765 1.314 . S
C768 C766 1.353 . S
C768 H826 0.930 . S
C769 N765 1.279 . S
C769 C767 1.358 . S
C769 H827 0.930 . S
C770 C773 1.348 1_545 S
C770 C774 1.356 . S
C770 O821 1.325 . S
C771 N772 1.279 . S
C771 C774 1.358 . S
C771 H828 0.930 . S
N772 C771 1.279 . S
N772 C775 1.314 1_545 S
C773 C770 1.348 1_565 S
C773 C775 1.353 . S
C773 H829 0.929 . S
C774 C770 1.356 . S
C774 C771 1.358 . S
C774 H830 0.930 . S
C775 N772 1.314 1_565 S
C775 C773 1.353 . S
C775 H831 0.930 . S
C776 N777 1.314 . S
C776 C781 1.353 . S
C776 H782 0.930 . S
N777 Li760 1.990 . S
N777 C776 1.314 . S
N777 C779 1.279 . S
C778 C779 1.358 . S
C778 C780 1.356 . S
C778 H832 0.930 . S
C779 N777 1.279 . S
C779 C778 1.358 . S
C779 H783 0.930 . S
C780 C778 1.356 . S
C780 C781 1.348 . S
C781 C776 1.353 . S
C781 C780 1.348 . S
C781 H833 0.929 . S
H782 C776 0.930 . S
H783 C779 0.930 . S
C784 N785 1.314 . S
C784 C786 1.353 . S
C784 H790 0.930 . S
N785 Li761 1.990 . S
N785 C784 1.314 . S
N785 C788 1.279 . S
C786 C784 1.353 . S
C786 C789 1.348 . S
C786 H834 0.929 . S
C787 C788 1.358 . S
C787 C789 1.356 . S
C787 H835 0.930 . S
C788 N785 1.279 . S
C788 C787 1.358 . S
C788 H791 0.930 . S
C789 C786 1.348 . S
C789 C787 1.356 . S
H790 C784 0.930 . S
H791 C788 0.930 . S
C792 C794 1.348 1_565 S
C792 C795 1.356 . S
C792 O822 1.325 . S
N793 C796 1.314 1_565 S
N793 C797 1.279 . S
C794 C792 1.348 1_545 S
C794 C796 1.353 . S
C794 H836 0.929 . S
C795 C792 1.356 . S
C795 C797 1.358 . S
C795 H837 0.930 . S
C796 N793 1.314 1_545 S
C796 C794 1.353 . S
C796 H838 0.930 . S
C797 N793 1.279 . S
C797 C795 1.358 . S
C797 H839 0.930 . S
C798 C799 1.348 . S
C798 C800 1.356 . S
C798 O823 1.325 . S
C799 C798 1.348 . S
C799 C801 1.353 . S
C799 H840 0.929 . S
C800 C798 1.356 . S
C800 C802 1.358 . S
C800 H841 0.930 . S
C801 C799 1.353 . S
C801 N803 1.314 . S
C801 H842 0.930 . S
C802 C800 1.358 . S
C802 N803 1.279 . S
C802 H843 0.930 . S
N803 C801 1.314 . S
N803 C802 1.279 . S
C804 C806 1.353 . S
C804 N807 1.314 . S
C804 H810 0.930 . S
C805 N807 1.279 . S
C805 C808 1.358 . S
C805 H811 0.930 . S
C806 C804 1.353 . S
C806 C809 1.348 . S
C806 H844 0.929 . S
N807 Li762 1.990 . S
N807 C804 1.314 . S
N807 C805 1.279 . S
C808 C805 1.358 . S
C808 C809 1.356 . S
C808 H845 0.930 . S
C809 C806 1.348 . S
C809 C808 1.356 . S
H810 C804 0.930 . S
H811 C805 0.930 . S
C812 N813 1.314 . S
C812 C814 1.353 . S
C812 H818 0.930 . S
N813 Li763 1.990 . S
N813 C812 1.314 . S
N813 C816 1.279 . S
C814 C812 1.353 . S
C814 C817 1.348 . S
C814 H846 0.929 . S
C815 C816 1.358 . S
C815 C817 1.356 . S
C815 H847 0.930 . S
C816 N813 1.279 . S
C816 C815 1.358 . S
C816 H819 0.930 . S
C817 C814 1.348 . S
C817 C815 1.356 . S
H818 C812 0.930 . S
H819 C816 0.930 . S
O820 Li760 1.956 . S
O820 Li761 1.970 1_565 S
O820 Li762 1.961 . S
O820 C764 1.325 . S
O821 Li760 1.970 1_545 S
O821 Li761 1.956 . S
O821 Li763 1.961 . S
O821 C770 1.325 . S
O822 Li760 1.961 . S
O822 Li762 1.956 . S
O822 Li763 1.970 1_565 S
O822 C792 1.325 . S
O823 Li761 1.961 . S
O823 Li762 1.970 1_545 S
O823 Li763 1.956 . S
O823 C798 1.325 . S
H824 C766 0.929 . S
H825 C767 0.930 . S
H826 C768 0.930 . S
H827 C769 0.930 . S
H828 C771 0.930 . S
H829 C773 0.929 . S
H830 C774 0.930 . S
H831 C775 0.930 . S
H832 C778 0.930 . S
H833 C781 0.929 . S
H834 C786 0.929 . S
H835 C787 0.930 . S
H836 C794 0.929 . S
H837 C795 0.930 . S
H838 C796 0.930 . S
H839 C797 0.930 . S
H840 C799 0.929 . S
H841 C800 0.930 . S
H842 C801 0.930 . S
H843 C802 0.930 . S
H844 C806 0.929 . S
H845 C808 0.930 . S
H846 C814 0.929 . S
H847 C815 0.930 . S
Li848 N865 1.990 . S
Li848 O908 1.956 . S
Li848 O909 1.970 1_455 S
Li848 O910 1.961 . S
Li849 N873 1.990 . S
Li849 O908 1.970 1_655 S
Li849 O909 1.956 . S
Li849 O911 1.961 . S
Li850 N895 1.990 . S
Li850 O908 1.961 . S
Li850 O910 1.956 . S
Li850 O911 1.970 1_455 S
Li851 N901 1.990 . S
Li851 O909 1.961 . S
Li851 O910 1.970 1_655 S
Li851 O911 1.956 . S
C852 C854 1.348 . S
C852 C855 1.356 . S
C852 O908 1.325 . S
N853 C856 1.314 . S
N853 C857 1.279 . S
C854 C852 1.348 . S
C854 C856 1.353 . S
C854 H912 0.929 . S
C855 C852 1.356 . S
C855 C857 1.358 . S
C855 H913 0.930 . S
C856 N853 1.314 . S
C856 C854 1.353 . S
C856 H914 0.930 . S
C857 N853 1.279 . S
C857 C855 1.358 . S
C857 H915 0.930 . S
C858 C861 1.348 1_655 S
C858 C862 1.356 . S
C858 O909 1.325 . S
C859 N860 1.279 . S
C859 C862 1.358 . S
C859 H916 0.930 . S
N860 C859 1.279 . S
N860 C863 1.314 1_655 S
C861 C858 1.348 1_455 S
C861 C863 1.353 . S
C861 H917 0.929 . S
C862 C858 1.356 . S
C862 C859 1.358 . S
C862 H918 0.930 . S
C863 N860 1.314 1_455 S
C863 C861 1.353 . S
C863 H919 0.930 . S
C864 N865 1.314 . S
C864 C869 1.353 . S
C864 H870 0.930 . S
N865 Li848 1.990 . S
N865 C864 1.314 . S
N865 C867 1.279 . S
C866 C867 1.358 . S
C866 C868 1.356 . S
C866 H920 0.930 . S
C867 N865 1.279 . S
C867 C866 1.358 . S
C867 H871 0.930 . S
C868 C866 1.356 . S
C868 C869 1.348 . S
C869 C864 1.353 . S
C869 C868 1.348 . S
C869 H921 0.929 . S
H870 C864 0.930 . S
H871 C867 0.930 . S
C872 N873 1.314 . S
C872 C874 1.353 . S
C872 H878 0.930 . S
N873 Li849 1.990 . S
N873 C872 1.314 . S
N873 C876 1.279 . S
C874 C872 1.353 . S
C874 C877 1.348 . S
C874 H922 0.929 . S
C875 C876 1.358 . S
C875 C877 1.356 . S
C875 H923 0.930 . S
C876 N873 1.279 . S
C876 C875 1.358 . S
C876 H879 0.930 . S
C877 C874 1.348 . S
C877 C875 1.356 . S
H878 C872 0.930 . S
H879 C876 0.930 . S
C880 C882 1.348 1_455 S
C880 C883 1.356 . S
C880 O910 1.325 . S
N881 C884 1.314 1_455 S
N881 C885 1.279 . S
C882 C880 1.348 1_655 S
C882 C884 1.353 . S
C882 H924 0.929 . S
C883 C880 1.356 . S
C883 C885 1.358 . S
C883 H925 0.930 . S
C884 N881 1.314 1_655 S
C884 C882 1.353 . S
C884 H926 0.930 . S
C885 N881 1.279 . S
C885 C883 1.358 . S
C885 H927 0.930 . S
C886 C887 1.348 . S
C886 C888 1.356 . S
C886 O911 1.325 . S
C887 C886 1.348 . S
C887 C889 1.353 . S
C887 H928 0.929 . S
C888 C886 1.356 . S
C888 C890 1.358 . S
C888 H929 0.930 . S
C889 C887 1.353 . S
C889 N891 1.314 . S
C889 H930 0.930 . S
C890 C888 1.358 . S
C890 N891 1.279 . S
C890 H931 0.930 . S
N891 C889 1.314 . S
N891 C890 1.279 . S
C892 C894 1.353 . S
C892 N895 1.314 . S
C892 H898 0.930 . S
C893 N895 1.279 . S
C893 C896 1.358 . S
C893 H899 0.930 . S
C894 C892 1.353 . S
C894 C897 1.348 . S
C894 H932 0.929 . S
N895 Li850 1.990 . S
N895 C892 1.314 . S
N895 C893 1.279 . S
C896 C893 1.358 . S
C896 C897 1.356 . S
C896 H933 0.930 . S
C897 C894 1.348 . S
C897 C896 1.356 . S
H898 C892 0.930 . S
H899 C893 0.930 . S
C900 N901 1.314 . S
C900 C902 1.353 . S
C900 H906 0.930 . S
N901 Li851 1.990 . S
N901 C900 1.314 . S
N901 C904 1.279 . S
C902 C900 1.353 . S
C902 C905 1.348 . S
C902 H934 0.929 . S
C903 C904 1.358 . S
C903 C905 1.356 . S
C903 H935 0.930 . S
C904 N901 1.279 . S
C904 C903 1.358 . S
C904 H907 0.930 . S
C905 C902 1.348 . S
C905 C903 1.356 . S
H906 C900 0.930 . S
H907 C904 0.930 . S
O908 Li848 1.956 . S
O908 Li849 1.970 1_455 S
O908 Li850 1.961 . S
O908 C852 1.325 . S
O909 Li848 1.970 1_655 S
O909 Li849 1.956 . S
O909 Li851 1.961 . S
O909 C858 1.325 . S
O910 Li848 1.961 . S
O910 Li850 1.956 . S
O910 Li851 1.970 1_455 S
O910 C880 1.325 . S
O911 Li849 1.961 . S
O911 Li850 1.970 1_655 S
O911 Li851 1.956 . S
O911 C886 1.325 . S
H912 C854 0.929 . S
H913 C855 0.930 . S
H914 C856 0.930 . S
H915 C857 0.930 . S
H916 C859 0.930 . S
H917 C861 0.929 . S
H918 C862 0.930 . S
H919 C863 0.930 . S
H920 C866 0.930 . S
H921 C869 0.929 . S
H922 C874 0.929 . S
H923 C875 0.930 . S
H924 C882 0.929 . S
H925 C883 0.930 . S
H926 C884 0.930 . S
H927 C885 0.930 . S
H928 C887 0.929 . S
H929 C888 0.930 . S
H930 C889 0.930 . S
H931 C890 0.930 . S
H932 C894 0.929 . S
H933 C896 0.930 . S
H934 C902 0.929 . S
H935 C903 0.930 . S
Li936 N953 1.990 . S
Li936 O996 1.956 . S
Li936 O997 1.970 . S
Li936 O998 1.961 . S
Li937 N961 1.990 . S
Li937 O996 1.970 . S
Li937 O997 1.956 . S
Li937 O999 1.961 . S
Li938 N983 1.990 . S
Li938 O996 1.961 . S
Li938 O998 1.956 . S
Li938 O999 1.970 . S
Li939 N989 1.990 . S
Li939 O997 1.961 . S
Li939 O998 1.970 . S
Li939 O999 1.956 . S
C940 C942 1.348 . S
C940 C943 1.356 . S
C940 O996 1.325 . S
N941 C944 1.314 . S
N941 C945 1.279 . S
C942 C940 1.348 . S
C942 C944 1.353 . S
C942 H1000 0.929 . S
C943 C940 1.356 . S
C943 C945 1.358 . S
C943 H1001 0.930 . S
C944 N941 1.314 . S
C944 C942 1.353 . S
C944 H1002 0.930 . S
C945 N941 1.279 . S
C945 C943 1.358 . S
C945 H1003 0.930 . S
C946 C949 1.348 . S
C946 C950 1.356 . S
C946 O997 1.325 . S
C947 N948 1.279 . S
C947 C950 1.358 . S
C947 H1004 0.930 . S
N948 C947 1.279 . S
N948 C951 1.314 . S
C949 C946 1.348 . S
C949 C951 1.353 . S
C949 H1005 0.929 . S
C950 C946 1.356 . S
C950 C947 1.358 . S
C950 H1006 0.930 . S
C951 N948 1.314 . S
C951 C949 1.353 . S
C951 H1007 0.930 . S
C952 N953 1.314 . S
C952 C957 1.353 . S
C952 H958 0.930 . S
N953 Li936 1.990 . S
N953 C952 1.314 . S
N953 C955 1.279 . S
C954 C955 1.358 . S
C954 C956 1.356 . S
C954 H1008 0.930 . S
C955 N953 1.279 . S
C955 C954 1.358 . S
C955 H959 0.930 . S
C956 C954 1.356 . S
C956 C957 1.348 . S
C957 C952 1.353 . S
C957 C956 1.348 . S
C957 H1009 0.929 . S
H958 C952 0.930 . S
H959 C955 0.930 . S
C960 N961 1.314 . S
C960 C962 1.353 . S
C960 H966 0.930 . S
N961 Li937 1.990 . S
N961 C960 1.314 . S
N961 C964 1.279 . S
C962 C960 1.353 . S
C962 C965 1.348 . S
C962 H1010 0.929 . S
C963 C964 1.358 . S
C963 C965 1.356 . S
C963 H1011 0.930 . S
C964 N961 1.279 . S
C964 C963 1.358 . S
C964 H967 0.930 . S
C965 C962 1.348 . S
C965 C963 1.356 . S
H966 C960 0.930 . S
H967 C964 0.930 . S
C968 C970 1.348 . S
C968 C971 1.356 . S
C968 O998 1.325 . S
N969 C972 1.314 . S
N969 C973 1.279 . S
C970 C968 1.348 . S
C970 C972 1.353 . S
C970 H1012 0.929 . S
C971 C968 1.356 . S
C971 C973 1.358 . S
C971 H1013 0.930 . S
C972 N969 1.314 . S
C972 C970 1.353 . S
C972 H1014 0.930 . S
C973 N969 1.279 . S
C973 C971 1.358 . S
C973 H1015 0.930 . S
C974 C975 1.348 . S
C974 C976 1.356 . S
C974 O999 1.325 . S
C975 C974 1.348 . S
C975 C977 1.353 . S
C975 H1016 0.929 . S
C976 C974 1.356 . S
C976 C978 1.358 . S
C976 H1017 0.930 . S
C977 C975 1.353 . S
C977 N979 1.314 . S
C977 H1018 0.930 . S
C978 C976 1.358 . S
C978 N979 1.279 . S
C978 H1019 0.930 . S
N979 C977 1.314 . S
N979 C978 1.279 . S
C980 C982 1.353 . S
C980 N983 1.314 . S
C980 H986 0.930 . S
C981 N983 1.279 . S
C981 C984 1.358 . S
C981 H987 0.930 . S
C982 C980 1.353 . S
C982 C985 1.348 . S
C982 H1020 0.929 . S
N983 Li938 1.990 . S
N983 C980 1.314 . S
N983 C981 1.279 . S
C984 C981 1.358 . S
C984 C985 1.356 . S
C984 H1021 0.930 . S
C985 C982 1.348 . S
C985 C984 1.356 . S
H986 C980 0.930 . S
H987 C981 0.930 . S
C988 N989 1.314 . S
C988 C990 1.353 . S
C988 H994 0.930 . S
N989 Li939 1.990 . S
N989 C988 1.314 . S
N989 C992 1.279 . S
C990 C988 1.353 . S
C990 C993 1.348 . S
C990 H1022 0.929 . S
C991 C992 1.358 . S
C991 C993 1.356 . S
C991 H1023 0.930 . S
C992 N989 1.279 . S
C992 C991 1.358 . S
C992 H995 0.930 . S
C993 C990 1.348 . S
C993 C991 1.356 . S
H994 C988 0.930 . S
H995 C992 0.930 . S
O996 Li936 1.956 . S
O996 Li937 1.970 . S
O996 Li938 1.961 . S
O996 C940 1.325 . S
O997 Li936 1.970 . S
O997 Li937 1.956 . S
O997 Li939 1.961 . S
O997 C946 1.325 . S
O998 Li936 1.961 . S
O998 Li938 1.956 . S
O998 Li939 1.970 . S
O998 C968 1.325 . S
O999 Li937 1.961 . S
O999 Li938 1.970 . S
O999 Li939 1.956 . S
O999 C974 1.325 . S
H1000 C942 0.929 . S
H1001 C943 0.930 . S
H1002 C944 0.930 . S
H1003 C945 0.930 . S
H1004 C947 0.930 . S
H1005 C949 0.929 . S
H1006 C950 0.930 . S
H1007 C951 0.930 . S
H1008 C954 0.930 . S
H1009 C957 0.929 . S
H1010 C962 0.929 . S
H1011 C963 0.930 . S
H1012 C970 0.929 . S
H1013 C971 0.930 . S
H1014 C972 0.930 . S
H1015 C973 0.930 . S
H1016 C975 0.929 . S
H1017 C976 0.930 . S
H1018 C977 0.930 . S
H1019 C978 0.930 . S
H1020 C982 0.929 . S
H1021 C984 0.930 . S
H1022 C990 0.929 . S
H1023 C991 0.930 . S
Li1024 N1041 1.990 . S
Li1024 O1084 1.956 . S
Li1024 O1085 1.970 1_455 S
Li1024 O1086 1.961 . S
Li1025 N1049 1.990 . S
Li1025 O1084 1.970 1_655 S
Li1025 O1085 1.956 . S
Li1025 O1087 1.961 . S
Li1026 N1071 1.990 . S
Li1026 O1084 1.961 . S
Li1026 O1086 1.956 . S
Li1026 O1087 1.970 1_455 S
Li1027 N1077 1.990 . S
Li1027 O1085 1.961 . S
Li1027 O1086 1.970 1_655 S
Li1027 O1087 1.956 . S
C1028 C1030 1.348 1_455 S
C1028 C1031 1.356 . S
C1028 O1084 1.325 . S
N1029 C1032 1.314 1_455 S
N1029 C1033 1.279 . S
C1030 C1028 1.348 1_655 S
C1030 C1032 1.353 . S
C1030 H1088 0.929 . S
C1031 C1028 1.356 . S
C1031 C1033 1.358 . S
C1031 H1089 0.930 . S
C1032 N1029 1.314 1_655 S
C1032 C1030 1.353 . S
C1032 H1090 0.930 . S
C1033 N1029 1.279 . S
C1033 C1031 1.358 . S
C1033 H1091 0.930 . S
C1034 C1037 1.348 . S
C1034 C1038 1.356 . S
C1034 O1085 1.325 . S
C1035 N1036 1.279 . S
C1035 C1038 1.358 . S
C1035 H1092 0.930 . S
N1036 C1035 1.279 . S
N1036 C1039 1.314 . S
C1037 C1034 1.348 . S
C1037 C1039 1.353 . S
C1037 H1093 0.929 . S
C1038 C1034 1.356 . S
C1038 C1035 1.358 . S
C1038 H1094 0.930 . S
C1039 N1036 1.314 . S
C1039 C1037 1.353 . S
C1039 H1095 0.930 . S
C1040 N1041 1.314 . S
C1040 C1045 1.353 . S
C1040 H1046 0.930 . S
N1041 Li1024 1.990 . S
N1041 C1040 1.314 . S
N1041 C1043 1.279 . S
C1042 C1043 1.358 . S
C1042 C1044 1.356 . S
C1042 H1096 0.930 . S
C1043 N1041 1.279 . S
C1043 C1042 1.358 . S
C1043 H1047 0.930 . S
C1044 C1042 1.356 . S
C1044 C1045 1.348 . S
C1045 C1040 1.353 . S
C1045 C1044 1.348 . S
C1045 H1097 0.929 . S
H1046 C1040 0.930 . S
H1047 C1043 0.930 . S
C1048 N1049 1.314 . S
C1048 C1050 1.353 . S
C1048 H1054 0.930 . S
N1049 Li1025 1.990 . S
N1049 C1048 1.314 . S
N1049 C1052 1.279 . S
C1050 C1048 1.353 . S
C1050 C1053 1.348 . S
C1050 H1098 0.929 . S
C1051 C1052 1.358 . S
C1051 C1053 1.356 . S
C1051 H1099 0.930 . S
C1052 N1049 1.279 . S
C1052 C1051 1.358 . S
C1052 H1055 0.930 . S
C1053 C1050 1.348 . S
C1053 C1051 1.356 . S
H1054 C1048 0.930 . S
H1055 C1052 0.930 . S
C1056 C1058 1.348 . S
C1056 C1059 1.356 . S
C1056 O1086 1.325 . S
N1057 C1060 1.314 . S
N1057 C1061 1.279 . S
C1058 C1056 1.348 . S
C1058 C1060 1.353 . S
C1058 H1100 0.929 . S
C1059 C1056 1.356 . S
C1059 C1061 1.358 . S
C1059 H1101 0.930 . S
C1060 N1057 1.314 . S
C1060 C1058 1.353 . S
C1060 H1102 0.930 . S
C1061 N1057 1.279 . S
C1061 C1059 1.358 . S
C1061 H1103 0.930 . S
C1062 C1063 1.348 1_655 S
C1062 C1064 1.356 . S
C1062 O1087 1.325 . S
C1063 C1062 1.348 1_455 S
C1063 C1065 1.353 . S
C1063 H1104 0.929 . S
C1064 C1062 1.356 . S
C1064 C1066 1.358 . S
C1064 H1105 0.930 . S
C1065 C1063 1.353 . S
C1065 N1067 1.314 1_455 S
C1065 H1106 0.930 . S
C1066 C1064 1.358 . S
C1066 N1067 1.279 . S
C1066 H1107 0.930 . S
N1067 C1065 1.314 1_655 S
N1067 C1066 1.279 . S
C1068 C1070 1.353 . S
C1068 N1071 1.314 . S
C1068 H1074 0.930 . S
C1069 N1071 1.279 . S
C1069 C1072 1.358 . S
C1069 H1075 0.930 . S
C1070 C1068 1.353 . S
C1070 C1073 1.348 . S
C1070 H1108 0.929 . S
N1071 Li1026 1.990 . S
N1071 C1068 1.314 . S
N1071 C1069 1.279 . S
C1072 C1069 1.358 . S
C1072 C1073 1.356 . S
C1072 H1109 0.930 . S
C1073 C1070 1.348 . S
C1073 C1072 1.356 . S
H1074 C1068 0.930 . S
H1075 C1069 0.930 . S
C1076 N1077 1.314 . S
C1076 C1078 1.353 . S
C1076 H1082 0.930 . S
N1077 Li1027 1.990 . S
N1077 C1076 1.314 . S
N1077 C1080 1.279 . S
C1078 C1076 1.353 . S
C1078 C1081 1.348 . S
C1078 H1110 0.929 . S
C1079 C1080 1.358 . S
C1079 C1081 1.356 . S
C1079 H1111 0.930 . S
C1080 N1077 1.279 . S
C1080 C1079 1.358 . S
C1080 H1083 0.930 . S
C1081 C1078 1.348 . S
C1081 C1079 1.356 . S
H1082 C1076 0.930 . S
H1083 C1080 0.930 . S
O1084 Li1024 1.956 . S
O1084 Li1025 1.970 1_455 S
O1084 Li1026 1.961 . S
O1084 C1028 1.325 . S
O1085 Li1024 1.970 1_655 S
O1085 Li1025 1.956 . S
O1085 Li1027 1.961 . S
O1085 C1034 1.325 . S
O1086 Li1024 1.961 . S
O1086 Li1026 1.956 . S
O1086 Li1027 1.970 1_455 S
O1086 C1056 1.325 . S
O1087 Li1025 1.961 . S
O1087 Li1026 1.970 1_655 S
O1087 Li1027 1.956 . S
O1087 C1062 1.325 . S
H1088 C1030 0.929 . S
H1089 C1031 0.930 . S
H1090 C1032 0.930 . S
H1091 C1033 0.930 . S
H1092 C1035 0.930 . S
H1093 C1037 0.929 . S
H1094 C1038 0.930 . S
H1095 C1039 0.930 . S
H1096 C1042 0.930 . S
H1097 C1045 0.929 . S
H1098 C1050 0.929 . S
H1099 C1051 0.930 . S
H1100 C1058 0.929 . S
H1101 C1059 0.930 . S
H1102 C1060 0.930 . S
H1103 C1061 0.930 . S
H1104 C1063 0.929 . S
H1105 C1064 0.930 . S
H1106 C1065 0.930 . S
H1107 C1066 0.930 . S
H1108 C1070 0.929 . S
H1109 C1072 0.930 . S
H1110 C1078 0.929 . S
H1111 C1079 0.930 . S
Li1112 N1129 1.990 . S
Li1112 O1172 1.956 . S
Li1112 O1173 1.970 . S
Li1112 O1174 1.961 . S
Li1113 N1137 1.990 . S
Li1113 O1172 1.970 . S
Li1113 O1173 1.956 . S
Li1113 O1175 1.961 . S
Li1114 N1159 1.990 . S
Li1114 O1172 1.961 . S
Li1114 O1174 1.956 . S
Li1114 O1175 1.970 . S
Li1115 N1165 1.990 . S
Li1115 O1173 1.961 . S
Li1115 O1174 1.970 . S
Li1115 O1175 1.956 . S
C1116 C1118 1.348 . S
C1116 C1119 1.356 . S
C1116 O1172 1.325 . S
N1117 C1120 1.314 . S
N1117 C1121 1.279 . S
C1118 C1116 1.348 . S
C1118 C1120 1.353 . S
C1118 H1176 0.929 . S
C1119 C1116 1.356 . S
C1119 C1121 1.358 . S
C1119 H1177 0.930 . S
C1120 N1117 1.314 . S
C1120 C1118 1.353 . S
C1120 H1178 0.930 . S
C1121 N1117 1.279 . S
C1121 C1119 1.358 . S
C1121 H1179 0.930 . S
C1122 C1125 1.348 . S
C1122 C1126 1.356 . S
C1122 O1173 1.325 . S
C1123 N1124 1.279 . S
C1123 C1126 1.358 . S
C1123 H1180 0.930 . S
N1124 C1123 1.279 . S
N1124 C1127 1.314 . S
C1125 C1122 1.348 . S
C1125 C1127 1.353 . S
C1125 H1181 0.929 . S
C1126 C1122 1.356 . S
C1126 C1123 1.358 . S
C1126 H1182 0.930 . S
C1127 N1124 1.314 . S
C1127 C1125 1.353 . S
C1127 H1183 0.930 . S
C1128 N1129 1.314 . S
C1128 C1133 1.353 . S
C1128 H1134 0.930 . S
N1129 Li1112 1.990 . S
N1129 C1128 1.314 . S
N1129 C1131 1.279 . S
C1130 C1131 1.358 . S
C1130 C1132 1.356 . S
C1130 H1184 0.930 . S
C1131 N1129 1.279 . S
C1131 C1130 1.358 . S
C1131 H1135 0.930 . S
C1132 C1130 1.356 . S
C1132 C1133 1.348 . S
C1133 C1128 1.353 . S
C1133 C1132 1.348 . S
C1133 H1185 0.929 . S
H1134 C1128 0.930 . S
H1135 C1131 0.930 . S
C1136 N1137 1.314 . S
C1136 C1138 1.353 . S
C1136 H1142 0.930 . S
N1137 Li1113 1.990 . S
N1137 C1136 1.314 . S
N1137 C1140 1.279 . S
C1138 C1136 1.353 . S
C1138 C1141 1.348 . S
C1138 H1186 0.929 . S
C1139 C1140 1.358 . S
C1139 C1141 1.356 . S
C1139 H1187 0.930 . S
C1140 N1137 1.279 . S
C1140 C1139 1.358 . S
C1140 H1143 0.930 . S
C1141 C1138 1.348 . S
C1141 C1139 1.356 . S
H1142 C1136 0.930 . S
H1143 C1140 0.930 . S
C1144 C1146 1.348 . S
C1144 C1147 1.356 . S
C1144 O1174 1.325 . S
N1145 C1148 1.314 . S
N1145 C1149 1.279 . S
C1146 C1144 1.348 . S
C1146 C1148 1.353 . S
C1146 H1188 0.929 . S
C1147 C1144 1.356 . S
C1147 C1149 1.358 . S
C1147 H1189 0.930 . S
C1148 N1145 1.314 . S
C1148 C1146 1.353 . S
C1148 H1190 0.930 . S
C1149 N1145 1.279 . S
C1149 C1147 1.358 . S
C1149 H1191 0.930 . S
C1150 C1151 1.348 . S
C1150 C1152 1.356 . S
C1150 O1175 1.325 . S
C1151 C1150 1.348 . S
C1151 C1153 1.353 . S
C1151 H1192 0.929 . S
C1152 C1150 1.356 . S
C1152 C1154 1.358 . S
C1152 H1193 0.930 . S
C1153 C1151 1.353 . S
C1153 N1155 1.314 . S
C1153 H1194 0.930 . S
C1154 C1152 1.358 . S
C1154 N1155 1.279 . S
C1154 H1195 0.930 . S
N1155 C1153 1.314 . S
N1155 C1154 1.279 . S
C1156 C1158 1.353 . S
C1156 N1159 1.314 . S
C1156 H1162 0.930 . S
C1157 N1159 1.279 . S
C1157 C1160 1.358 . S
C1157 H1163 0.930 . S
C1158 C1156 1.353 . S
C1158 C1161 1.348 . S
C1158 H1196 0.929 . S
N1159 Li1114 1.990 . S
N1159 C1156 1.314 . S
N1159 C1157 1.279 . S
C1160 C1157 1.358 . S
C1160 C1161 1.356 . S
C1160 H1197 0.930 . S
C1161 C1158 1.348 . S
C1161 C1160 1.356 . S
H1162 C1156 0.930 . S
H1163 C1157 0.930 . S
C1164 N1165 1.314 . S
C1164 C1166 1.353 . S
C1164 H1170 0.930 . S
N1165 Li1115 1.990 . S
N1165 C1164 1.314 . S
N1165 C1168 1.279 . S
C1166 C1164 1.353 . S
C1166 C1169 1.348 . S
C1166 H1198 0.929 . S
C1167 C1168 1.358 . S
C1167 C1169 1.356 . S
C1167 H1199 0.930 . S
C1168 N1165 1.279 . S
C1168 C1167 1.358 . S
C1168 H1171 0.930 . S
C1169 C1166 1.348 . S
C1169 C1167 1.356 . S
H1170 C1164 0.930 . S
H1171 C1168 0.930 . S
O1172 Li1112 1.956 . S
O1172 Li1113 1.970 . S
O1172 Li1114 1.961 . S
O1172 C1116 1.325 . S
O1173 Li1112 1.970 . S
O1173 Li1113 1.956 . S
O1173 Li1115 1.961 . S
O1173 C1122 1.325 . S
O1174 Li1112 1.961 . S
O1174 Li1114 1.956 . S
O1174 Li1115 1.970 . S
O1174 C1144 1.325 . S
O1175 Li1113 1.961 . S
O1175 Li1114 1.970 . S
O1175 Li1115 1.956 . S
O1175 C1150 1.325 . S
H1176 C1118 0.929 . S
H1177 C1119 0.930 . S
H1178 C1120 0.930 . S
H1179 C1121 0.930 . S
H1180 C1123 0.930 . S
H1181 C1125 0.929 . S
H1182 C1126 0.930 . S
H1183 C1127 0.930 . S
H1184 C1130 0.930 . S
H1185 C1133 0.929 . S
H1186 C1138 0.929 . S
H1187 C1139 0.930 . S
H1188 C1146 0.929 . S
H1189 C1147 0.930 . S
H1190 C1148 0.930 . S
H1191 C1149 0.930 . S
H1192 C1151 0.929 . S
H1193 C1152 0.930 . S
H1194 C1153 0.930 . S
H1195 C1154 0.930 . S
H1196 C1158 0.929 . S
H1197 C1160 0.930 . S
H1198 C1166 0.929 . S
H1199 C1167 0.930 . S
C1200 C1201 1.363 . S
C1200 C1206 1.379 . S
C1200 N1208 1.356 . S
C1201 C1200 1.363 . S
C1201 C1207 1.363 . S
C1202 C1203 1.363 . S
C1202 C1207 1.379 . S
C1202 N1209 1.356 . S
C1203 C1202 1.363 . S
C1203 C1206 1.363 . S
N1204 C1206 1.356 . S
N1204 H1216 0.984 . S
N1204 H1217 0.985 . S
N1205 C1207 1.356 . S
N1205 H1210 0.984 . S
N1205 H1211 0.985 . S
C1206 C1200 1.379 . S
C1206 C1203 1.363 . S
C1206 N1204 1.356 . S
C1207 C1201 1.363 . S
C1207 C1202 1.379 . S
C1207 N1205 1.356 . S
N1208 C1200 1.356 . S
N1208 H1214 0.984 . S
N1208 H1215 0.984 . S
N1209 C1202 1.356 . S
N1209 H1212 0.984 . S
N1209 H1213 0.985 . S
H1210 N1205 0.984 . S
H1211 N1205 0.985 . S
H1212 N1209 0.984 . S
H1213 N1209 0.985 . S
H1214 N1208 0.984 . S
H1215 N1208 0.984 . S
H1216 N1204 0.984 . S
H1217 N1204 0.985 . S
C1218 C1219 1.363 . S
C1218 C1224 1.379 . S
C1218 N1226 1.356 . S
C1219 C1218 1.363 . S
C1219 C1225 1.363 1_455 S
C1220 C1221 1.363 . S
C1220 C1225 1.379 1_455 S
C1220 N1227 1.356 . S
C1221 C1220 1.363 . S
C1221 C1224 1.363 . S
N1222 C1224 1.356 . S
N1222 H1234 0.984 . S
N1222 H1235 0.985 . S
N1223 C1225 1.356 . S
N1223 H1228 0.984 . S
N1223 H1229 0.985 . S
C1224 C1218 1.379 . S
C1224 C1221 1.363 . S
C1224 N1222 1.356 . S
C1225 C1219 1.363 1_655 S
C1225 C1220 1.379 1_655 S
C1225 N1223 1.356 . S
N1226 C1218 1.356 . S
N1226 H1232 0.984 . S
N1226 H1233 0.984 . S
N1227 C1220 1.356 . S
N1227 H1230 0.984 . S
N1227 H1231 0.985 . S
H1228 N1223 0.984 . S
H1229 N1223 0.985 . S
H1230 N1227 0.984 . S
H1231 N1227 0.985 . S
H1232 N1226 0.984 . S
H1233 N1226 0.984 . S
H1234 N1222 0.984 . S
H1235 N1222 0.985 . S
C1236 C1237 1.363 . S
C1236 C1242 1.379 . S
C1236 N1244 1.356 . S
C1237 C1236 1.363 . S
C1237 C1243 1.363 . S
C1238 C1239 1.363 . S
C1238 C1243 1.379 . S
C1238 N1245 1.356 . S
C1239 C1238 1.363 . S
C1239 C1242 1.363 . S
N1240 C1242 1.356 . S
N1240 H1252 0.984 . S
N1240 H1253 0.985 . S
N1241 C1243 1.356 . S
N1241 H1246 0.984 . S
N1241 H1247 0.985 . S
C1242 C1236 1.379 . S
C1242 C1239 1.363 . S
C1242 N1240 1.356 . S
C1243 C1237 1.363 . S
C1243 C1238 1.379 . S
C1243 N1241 1.356 . S
N1244 C1236 1.356 . S
N1244 H1250 0.984 . S
N1244 H1251 0.984 . S
N1245 C1238 1.356 . S
N1245 H1248 0.984 . S
N1245 H1249 0.985 . S
H1246 N1241 0.984 . S
H1247 N1241 0.985 . S
H1248 N1245 0.984 . S
H1249 N1245 0.985 . S
H1250 N1244 0.984 . S
H1251 N1244 0.984 . S
H1252 N1240 0.984 . S
H1253 N1240 0.985 . S
C1254 C1255 1.363 . S
C1254 C1260 1.384 . S
C1254 N1262 1.356 1_565 S
C1255 C1254 1.363 . S
C1255 C1261 1.363 1_655 S
C1256 C1257 1.363 . S
C1256 C1261 1.379 1_655 S
C1256 N1263 1.356 . S
C1257 C1256 1.363 . S
C1257 C1260 1.390 . S
N1258 C1260 1.330 1_545 S
N1258 H1270 0.984 . S
N1258 H1271 0.985 . S
N1259 C1261 1.356 . S
N1259 H1264 0.984 . S
N1259 H1265 0.985 . S
C1260 C1254 1.384 . S
C1260 C1257 1.390 . S
C1260 N1258 1.330 1_565 S
C1261 C1255 1.363 1_455 S
C1261 C1256 1.379 1_455 S
C1261 N1259 1.356 . S
N1262 C1254 1.356 1_545 S
N1262 H1268 0.984 . S
N1262 H1269 0.984 . S
N1263 C1256 1.356 . S
N1263 H1266 0.984 . S
N1263 H1267 0.985 . S
H1264 N1259 0.984 . S
H1265 N1259 0.985 . S
H1266 N1263 0.984 . S
H1267 N1263 0.985 . S
H1268 N1262 0.984 . S
H1269 N1262 0.984 . S
H1270 N1258 0.984 . S
H1271 N1258 0.985 . S
C1272 C1273 1.363 . S
C1272 C1278 1.379 . S
C1272 N1280 1.356 . S
C1273 C1272 1.363 . S
C1273 C1279 1.363 . S
C1274 C1275 1.363 . S
C1274 C1279 1.379 . S
C1274 N1281 1.356 . S
C1275 C1274 1.363 . S
C1275 C1278 1.363 . S
N1276 C1278 1.356 . S
N1276 H1288 0.984 . S
N1276 H1289 0.985 . S
N1277 C1279 1.356 . S
N1277 H1282 0.984 . S
N1277 H1283 0.985 . S
C1278 C1272 1.379 . S
C1278 C1275 1.363 . S
C1278 N1276 1.356 . S
C1279 C1273 1.363 . S
C1279 C1274 1.379 . S
C1279 N1277 1.356 . S
N1280 C1272 1.356 . S
N1280 H1286 0.984 . S
N1280 H1287 0.984 . S
N1281 C1274 1.356 . S
N1281 H1284 0.984 . S
N1281 H1285 0.985 . S
H1282 N1277 0.984 . S
H1283 N1277 0.985 . S
H1284 N1281 0.984 . S
H1285 N1281 0.985 . S
H1286 N1280 0.984 . S
H1287 N1280 0.984 . S
H1288 N1276 0.984 . S
H1289 N1276 0.985 . S
C1290 C1291 1.363 . S
C1290 C1296 1.379 . S
C1290 N1298 1.356 . S
C1291 C1290 1.363 . S
C1291 C1297 1.363 . S
C1292 C1293 1.363 . S
C1292 C1297 1.379 . S
C1292 N1299 1.356 . S
C1293 C1292 1.363 . S
C1293 C1296 1.363 . S
N1294 C1296 1.356 . S
N1294 H1306 0.984 . S
N1294 H1307 0.985 . S
N1295 C1297 1.356 . S
N1295 H1300 0.984 . S
N1295 H1301 0.985 . S
C1296 C1290 1.379 . S
C1296 C1293 1.363 . S
C1296 N1294 1.356 . S
C1297 C1291 1.363 . S
C1297 C1292 1.379 . S
C1297 N1295 1.356 . S
N1298 C1290 1.356 . S
N1298 H1304 0.984 . S
N1298 H1305 0.984 . S
N1299 C1292 1.356 . S
N1299 H1302 0.984 . S
N1299 H1303 0.985 . S
H1300 N1295 0.984 . S
H1301 N1295 0.985 . S
H1302 N1299 0.984 . S
H1303 N1299 0.985 . S
H1304 N1298 0.984 . S
H1305 N1298 0.984 . S
H1306 N1294 0.984 . S
H1307 N1294 0.985 . S
C1308 C1309 1.363 . S
C1308 C1314 1.379 . S
C1308 N1316 1.356 . S
C1309 C1308 1.363 . S
C1309 C1315 1.363 . S
C1310 C1311 1.363 . S
C1310 C1315 1.379 . S
C1310 N1317 1.356 . S
C1311 C1310 1.363 . S
C1311 C1314 1.363 . S
N1312 C1314 1.356 . S
N1312 H1324 0.984 . S
N1312 H1325 0.985 . S
N1313 C1315 1.356 . S
N1313 H1318 0.984 . S
N1313 H1319 0.985 . S
C1314 C1308 1.379 . S
C1314 C1311 1.363 . S
C1314 N1312 1.356 . S
C1315 C1309 1.363 . S
C1315 C1310 1.379 . S
C1315 N1313 1.356 . S
N1316 C1308 1.356 . S
N1316 H1322 0.984 . S
N1316 H1323 0.984 . S
N1317 C1310 1.356 . S
N1317 H1320 0.984 . S
N1317 H1321 0.985 . S
H1318 N1313 0.984 . S
H1319 N1313 0.985 . S
H1320 N1317 0.984 . S
H1321 N1317 0.985 . S
H1322 N1316 0.984 . S
H1323 N1316 0.984 . S
H1324 N1312 0.984 . S
H1325 N1312 0.985 . S
C1326 C1327 1.363 . S
C1326 C1332 1.379 1_565 S
C1326 N1334 1.356 1_565 S
C1327 C1326 1.363 . S
C1327 C1333 1.363 . S
C1328 C1329 1.363 . S
C1328 C1333 1.379 . S
C1328 N1335 1.356 . S
C1329 C1328 1.363 . S
C1329 C1332 1.363 1_565 S
N1330 C1332 1.356 . S
N1330 H1342 0.984 . S
N1330 H1343 0.985 . S
N1331 C1333 1.356 . S
N1331 H1336 0.984 . S
N1331 H1337 0.985 . S
C1332 C1326 1.379 1_545 S
C1332 C1329 1.363 1_545 S
C1332 N1330 1.356 . S
C1333 C1327 1.363 . S
C1333 C1328 1.379 . S
C1333 N1331 1.356 . S
N1334 C1326 1.356 1_545 S
N1334 H1340 0.984 . S
N1334 H1341 0.984 . S
N1335 C1328 1.356 . S
N1335 H1338 0.984 . S
N1335 H1339 0.985 . S
H1336 N1331 0.984 . S
H1337 N1331 0.985 . S
H1338 N1335 0.984 . S
H1339 N1335 0.985 . S
H1340 N1334 0.984 . S
H1341 N1334 0.984 . S
H1342 N1330 0.984 . S
H1343 N1330 0.985 . S
C1344 C1345 1.363 . S
C1344 C1350 1.379 . S
C1344 N1352 1.356 . S
C1345 C1344 1.363 . S
C1345 C1351 1.363 . S
C1346 C1347 1.363 . S
C1346 C1351 1.379 . S
C1346 N1353 1.356 . S
C1347 C1346 1.363 . S
C1347 C1350 1.363 . S
N1348 C1350 1.356 . S
N1348 H1360 0.984 . S
N1348 H1361 0.985 . S
N1349 C1351 1.356 . S
N1349 H1354 0.984 . S
N1349 H1355 0.985 . S
C1350 C1344 1.379 . S
C1350 C1347 1.363 . S
C1350 N1348 1.356 . S
C1351 C1345 1.363 . S
C1351 C1346 1.379 . S
C1351 N1349 1.356 . S
N1352 C1344 1.356 . S
N1352 H1358 0.984 . S
N1352 H1359 0.984 . S
N1353 C1346 1.356 . S
N1353 H1356 0.984 . S
N1353 H1357 0.985 . S
H1354 N1349 0.984 . S
H1355 N1349 0.985 . S
H1356 N1353 0.984 . S
H1357 N1353 0.985 . S
H1358 N1352 0.984 . S
H1359 N1352 0.984 . S
H1360 N1348 0.984 . S
H1361 N1348 0.985 . S
C1362 C1363 1.363 . S
C1362 C1368 1.379 . S
C1362 N1370 1.356 . S
C1363 C1362 1.363 . S
C1363 C1369 1.363 . S
C1364 C1365 1.363 . S
C1364 C1369 1.379 . S
C1364 N1371 1.356 . S
C1365 C1364 1.363 . S
C1365 C1368 1.363 . S
N1366 C1368 1.356 . S
N1366 H1378 0.984 . S
N1366 H1379 0.985 . S
N1367 C1369 1.356 . S
N1367 H1372 0.984 . S
N1367 H1373 0.985 . S
C1368 C1362 1.379 . S
C1368 C1365 1.363 . S
C1368 N1366 1.356 . S
C1369 C1363 1.363 . S
C1369 C1364 1.379 . S
C1369 N1367 1.356 . S
N1370 C1362 1.356 . S
N1370 H1376 0.984 . S
N1370 H1377 0.984 . S
N1371 C1364 1.356 . S
N1371 H1374 0.984 . S
N1371 H1375 0.985 . S
H1372 N1367 0.984 . S
H1373 N1367 0.985 . S
H1374 N1371 0.984 . S
H1375 N1371 0.985 . S
H1376 N1370 0.984 . S
H1377 N1370 0.984 . S
H1378 N1366 0.984 . S
H1379 N1366 0.985 . S
C1380 C1381 1.363 . S
C1380 C1386 1.379 . S
C1380 N1388 1.356 . S
C1381 C1380 1.363 . S
C1381 C1387 1.363 . S
C1382 C1383 1.363 . S
C1382 C1387 1.379 . S
C1382 N1389 1.356 . S
C1383 C1382 1.363 . S
C1383 C1386 1.363 . S
N1384 C1386 1.356 . S
N1384 H1396 0.984 . S
N1384 H1397 0.985 . S
N1385 C1387 1.356 . S
N1385 H1390 0.984 . S
N1385 H1391 0.985 . S
C1386 C1380 1.379 . S
C1386 C1383 1.363 . S
C1386 N1384 1.356 . S
C1387 C1381 1.363 . S
C1387 C1382 1.379 . S
C1387 N1385 1.356 . S
N1388 C1380 1.356 . S
N1388 H1394 0.984 . S
N1388 H1395 0.984 . S
N1389 C1382 1.356 . S
N1389 H1392 0.984 . S
N1389 H1393 0.985 . S
H1390 N1385 0.984 . S
H1391 N1385 0.985 . S
H1392 N1389 0.984 . S
H1393 N1389 0.985 . S
H1394 N1388 0.984 . S
H1395 N1388 0.984 . S
H1396 N1384 0.984 . S
H1397 N1384 0.985 . S
C1398 C1399 1.363 . S
C1398 C1404 1.379 . S
C1398 N1406 1.356 . S
C1399 C1398 1.363 . S
C1399 C1405 1.363 . S
C1400 C1401 1.363 . S
C1400 C1405 1.379 . S
C1400 N1407 1.356 . S
C1401 C1400 1.363 . S
C1401 C1404 1.363 . S
N1402 C1404 1.356 . S
N1402 H1414 0.984 . S
N1402 H1415 0.985 . S
N1403 C1405 1.356 . S
N1403 H1408 0.984 . S
N1403 H1409 0.985 . S
C1404 C1398 1.379 . S
C1404 C1401 1.363 . S
C1404 N1402 1.356 . S
C1405 C1399 1.363 . S
C1405 C1400 1.379 . S
C1405 N1403 1.356 . S
N1406 C1398 1.356 . S
N1406 H1412 0.984 . S
N1406 H1413 0.984 . S
N1407 C1400 1.356 . S
N1407 H1410 0.984 . S
N1407 H1411 0.985 . S
H1408 N1403 0.984 . S
H1409 N1403 0.985 . S
H1410 N1407 0.984 . S
H1411 N1407 0.985 . S
H1412 N1406 0.984 . S
H1413 N1406 0.984 . S
H1414 N1402 0.984 . S
H1415 N1402 0.985 . S
C1416 C1417 1.363 . S
C1416 C1422 1.379 . S
C1416 N1424 1.356 . S
C1417 C1416 1.363 . S
C1417 C1423 1.363 . S
C1418 C1419 1.363 . S
C1418 C1423 1.379 . S
C1418 N1425 1.356 . S
C1419 C1418 1.363 . S
C1419 C1422 1.363 . S
N1420 C1422 1.356 . S
N1420 H1432 0.984 . S
N1420 H1433 0.985 . S
N1421 C1423 1.356 . S
N1421 H1426 0.984 . S
N1421 H1427 0.985 . S
C1422 C1416 1.379 . S
C1422 C1419 1.363 . S
C1422 N1420 1.356 . S
C1423 C1417 1.363 . S
C1423 C1418 1.379 . S
C1423 N1421 1.356 . S
N1424 C1416 1.356 . S
N1424 H1430 0.984 . S
N1424 H1431 0.984 . S
N1425 C1418 1.356 . S
N1425 H1428 0.984 . S
N1425 H1429 0.985 . S
H1426 N1421 0.984 . S
H1427 N1421 0.985 . S
H1428 N1425 0.984 . S
H1429 N1425 0.985 . S
H1430 N1424 0.984 . S
H1431 N1424 0.984 . S
H1432 N1420 0.984 . S
H1433 N1420 0.985 . S
C1434 C1435 1.363 . S
C1434 C1440 1.379 . S
C1434 N1442 1.356 . S
C1435 C1434 1.363 . S
C1435 C1441 1.363 . S
C1436 C1437 1.363 1_655 S
C1436 C1441 1.379 1_655 S
C1436 N1443 1.356 . S
C1437 C1436 1.363 1_455 S
C1437 C1440 1.363 . S
N1438 C1440 1.356 . S
N1438 H1450 0.984 . S
N1438 H1451 0.985 . S
N1439 C1441 1.356 1_655 S
N1439 H1444 0.984 . S
N1439 H1445 0.985 . S
C1440 C1434 1.379 . S
C1440 C1437 1.363 . S
C1440 N1438 1.356 . S
C1441 C1435 1.363 . S
C1441 C1436 1.379 1_455 S
C1441 N1439 1.356 1_455 S
N1442 C1434 1.356 . S
N1442 H1448 0.984 . S
N1442 H1449 0.984 . S
N1443 C1436 1.356 . S
N1443 H1446 0.984 . S
N1443 H1447 0.985 . S
H1444 N1439 0.984 . S
H1445 N1439 0.985 . S
H1446 N1443 0.984 . S
H1447 N1443 0.985 . S
H1448 N1442 0.984 . S
H1449 N1442 0.984 . S
H1450 N1438 0.984 . S
H1451 N1438 0.985 . S
C1452 C1453 1.363 . S
C1452 C1458 1.379 . S
C1452 N1460 1.356 . S
C1453 C1452 1.363 . S
C1453 C1459 1.363 . S
C1454 C1455 1.363 . S
C1454 C1459 1.379 . S
C1454 N1461 1.356 . S
C1455 C1454 1.363 . S
C1455 C1458 1.363 . S
N1456 C1458 1.356 . S
N1456 H1468 0.984 . S
N1456 H1469 0.985 . S
N1457 C1459 1.356 . S
N1457 H1462 0.984 . S
N1457 H1463 0.985 . S
C1458 C1452 1.379 . S
C1458 C1455 1.363 . S
C1458 N1456 1.356 . S
C1459 C1453 1.363 . S
C1459 C1454 1.379 . S
C1459 N1457 1.356 . S
N1460 C1452 1.356 . S
N1460 H1466 0.984 . S
N1460 H1467 0.984 . S
N1461 C1454 1.356 . S
N1461 H1464 0.984 . S
N1461 H1465 0.985 . S
H1462 N1457 0.984 . S
H1463 N1457 0.985 . S
H1464 N1461 0.984 . S
H1465 N1461 0.985 . S
H1466 N1460 0.984 . S
H1467 N1460 0.984 . S
H1468 N1456 0.984 . S
H1469 N1456 0.985 . S
C1470 C1471 1.363 . S
C1470 C1476 1.379 . S
C1470 N1478 1.356 1_655 S
C1471 C1470 1.363 . S
C1471 C1477 1.363 . S
C1472 C1473 1.363 . S
C1472 C1477 1.379 . S
C1472 N1479 1.356 . S
C1473 C1472 1.363 . S
C1473 C1476 1.363 . S
N1474 C1476 1.356 1_455 S
N1474 H1486 0.984 . S
N1474 H1487 0.985 . S
N1475 C1477 1.356 . S
N1475 H1480 0.984 . S
N1475 H1481 0.985 . S
C1476 C1470 1.379 . S
C1476 C1473 1.363 . S
C1476 N1474 1.356 1_655 S
C1477 C1471 1.363 . S
C1477 C1472 1.379 . S
C1477 N1475 1.356 . S
N1478 C1470 1.356 1_455 S
N1478 H1484 0.984 . S
N1478 H1485 0.984 1_455 S
N1479 C1472 1.356 . S
N1479 H1482 0.984 . S
N1479 H1483 0.985 . S
H1480 N1475 0.984 . S
H1481 N1475 0.985 . S
H1482 N1479 0.984 . S
H1483 N1479 0.985 . S
H1484 N1478 0.984 . S
H1485 N1478 0.984 1_655 S
H1486 N1474 0.984 . S
H1487 N1474 0.985 . S
C1488 C1489 1.363 . S
C1488 C1494 1.379 . S
C1488 N1496 1.356 . S
C1489 C1488 1.363 . S
C1489 C1495 1.363 . S
C1490 C1491 1.363 . S
C1490 C1495 1.379 . S
C1490 N1497 1.356 . S
C1491 C1490 1.363 . S
C1491 C1494 1.363 . S
N1492 C1494 1.356 . S
N1492 H1504 0.984 . S
N1492 H1505 0.985 . S
N1493 C1495 1.356 . S
N1493 H1498 0.984 . S
N1493 H1499 0.985 . S
C1494 C1488 1.379 . S
C1494 C1491 1.363 . S
C1494 N1492 1.356 . S
C1495 C1489 1.363 . S
C1495 C1490 1.379 . S
C1495 N1493 1.356 . S
N1496 C1488 1.356 . S
N1496 H1502 0.984 . S
N1496 H1503 0.984 . S
N1497 C1490 1.356 . S
N1497 H1500 0.984 . S
N1497 H1501 0.985 . S
H1498 N1493 0.984 . S
H1499 N1493 0.985 . S
H1500 N1497 0.984 . S
H1501 N1497 0.985 . S
H1502 N1496 0.984 . S
H1503 N1496 0.984 . S
H1504 N1492 0.984 . S
H1505 N1492 0.985 . S
C1506 C1507 1.363 . S
C1506 C1512 1.379 . S
C1506 N1514 1.356 . S
C1507 C1506 1.363 . S
C1507 C1513 1.363 . S
C1508 C1509 1.363 . S
C1508 C1513 1.379 . S
C1508 N1515 1.356 . S
C1509 C1508 1.363 . S
C1509 C1512 1.363 . S
N1510 C1512 1.356 . S
N1510 H1522 0.984 . S
N1510 H1523 0.985 . S
N1511 C1513 1.356 . S
N1511 H1516 0.984 . S
N1511 H1517 0.985 . S
C1512 C1506 1.379 . S
C1512 C1509 1.363 . S
C1512 N1510 1.356 . S
C1513 C1507 1.363 . S
C1513 C1508 1.379 . S
C1513 N1511 1.356 . S
N1514 C1506 1.356 . S
N1514 H1520 0.984 . S
N1514 H1521 0.984 . S
N1515 C1508 1.356 . S
N1515 H1518 0.984 . S
N1515 H1519 0.985 . S
H1516 N1511 0.984 . S
H1517 N1511 0.985 . S
H1518 N1515 0.984 . S
H1519 N1515 0.985 . S
H1520 N1514 0.984 . S
H1521 N1514 0.984 . S
H1522 N1510 0.984 . S
H1523 N1510 0.985 . S
C1524 C1525 1.363 . S
C1524 C1530 1.377 1_556 S
C1524 N1532 1.356 1_556 S
C1525 C1524 1.363 . S
C1525 C1531 1.363 . S
C1526 C1527 1.363 . S
C1526 C1531 1.379 . S
C1526 N1533 1.356 . S
C1527 C1526 1.363 . S
C1527 C1530 1.347 1_556 S
N1528 C1530 1.371 . S
N1528 H1540 0.984 . S
N1528 H1541 0.985 . S
N1529 C1531 1.356 1_545 S
N1529 H1534 0.984 . S
N1529 H1535 0.985 . S
C1530 C1524 1.377 1_554 S
C1530 C1527 1.347 1_554 S
C1530 N1528 1.371 . S
C1531 C1525 1.363 . S
C1531 C1526 1.379 . S
C1531 N1529 1.356 1_565 S
N1532 C1524 1.356 1_554 S
N1532 H1538 0.984 . S
N1532 H1539 0.984 . S
N1533 C1526 1.356 . S
N1533 H1536 0.984 . S
N1533 H1537 0.985 . S
H1534 N1529 0.984 . S
H1535 N1529 0.985 . S
H1536 N1533 0.984 . S
H1537 N1533 0.985 . S
H1538 N1532 0.984 . S
H1539 N1532 0.984 . S
H1540 N1528 0.984 . S
H1541 N1528 0.985 . S
C1542 C1543 1.363 . S
C1542 C1548 1.379 . S
C1542 N1550 1.356 . S
C1543 C1542 1.363 . S
C1543 C1549 1.363 . S
C1544 C1545 1.363 . S
C1544 C1549 1.379 . S
C1544 N1551 1.356 . S
C1545 C1544 1.363 . S
C1545 C1548 1.363 . S
N1546 C1548 1.356 . S
N1546 H1558 0.984 . S
N1546 H1559 0.985 . S
N1547 C1549 1.356 . S
N1547 H1552 0.984 . S
N1547 H1553 0.985 . S
C1548 C1542 1.379 . S
C1548 C1545 1.363 . S
C1548 N1546 1.356 . S
C1549 C1543 1.363 . S
C1549 C1544 1.379 . S
C1549 N1547 1.356 . S
N1550 C1542 1.356 . S
N1550 H1556 0.984 . S
N1550 H1557 0.984 . S
N1551 C1544 1.356 . S
N1551 H1554 0.984 . S
N1551 H1555 0.985 . S
H1552 N1547 0.984 . S
H1553 N1547 0.985 . S
H1554 N1551 0.984 . S
H1555 N1551 0.985 . S
H1556 N1550 0.984 . S
H1557 N1550 0.984 . S
H1558 N1546 0.984 . S
H1559 N1546 0.985 . S
C1560 C1561 1.363 . S
C1560 C1566 1.379 . S
C1560 N1568 1.356 . S
C1561 C1560 1.363 . S
C1561 C1567 1.363 . S
C1562 C1563 1.363 . S
C1562 C1567 1.379 . S
C1562 N1569 1.356 . S
C1563 C1562 1.363 . S
C1563 C1566 1.363 . S
N1564 C1566 1.356 . S
N1564 H1576 0.984 . S
N1564 H1577 0.985 . S
N1565 C1567 1.356 1_565 S
N1565 H1570 0.984 . S
N1565 H1571 0.985 . S
C1566 C1560 1.379 . S
C1566 C1563 1.363 . S
C1566 N1564 1.356 . S
C1567 C1561 1.363 . S
C1567 C1562 1.379 . S
C1567 N1565 1.356 1_545 S
N1568 C1560 1.356 . S
N1568 H1574 0.984 . S
N1568 H1575 0.984 1_545 S
N1569 C1562 1.356 . S
N1569 H1572 0.984 . S
N1569 H1573 0.985 . S
H1570 N1565 0.984 . S
H1571 N1565 0.985 . S
H1572 N1569 0.984 . S
H1573 N1569 0.985 . S
H1574 N1568 0.984 . S
H1575 N1568 0.984 1_565 S
H1576 N1564 0.984 . S
H1577 N1564 0.985 . S
C1578 C1579 1.363 . S
C1578 C1584 1.379 . S
C1578 N1586 1.356 . S
C1579 C1578 1.363 . S
C1579 C1585 1.363 . S
C1580 C1581 1.363 . S
C1580 C1585 1.379 . S
C1580 N1587 1.356 . S
C1581 C1580 1.363 . S
C1581 C1584 1.363 . S
N1582 C1584 1.356 . S
N1582 H1594 0.984 . S
N1582 H1595 0.985 . S
N1583 C1585 1.356 . S
N1583 H1588 0.984 . S
N1583 H1589 0.985 . S
C1584 C1578 1.379 . S
C1584 C1581 1.363 . S
C1584 N1582 1.356 . S
C1585 C1579 1.363 . S
C1585 C1580 1.379 . S
C1585 N1583 1.356 . S
N1586 C1578 1.356 . S
N1586 H1592 0.984 . S
N1586 H1593 0.984 . S
N1587 C1580 1.356 . S
N1587 H1590 0.984 . S
N1587 H1591 0.985 . S
H1588 N1583 0.984 . S
H1589 N1583 0.985 . S
H1590 N1587 0.984 . S
H1591 N1587 0.985 . S
H1592 N1586 0.984 . S
H1593 N1586 0.984 . S
H1594 N1582 0.984 . S
H1595 N1582 0.985 . S
C1596 C1597 1.363 . S
C1596 C1602 1.379 . S
C1596 N1604 1.356 . S
C1597 C1596 1.363 . S
C1597 C1603 1.363 . S
C1598 C1599 1.363 . S
C1598 C1603 1.379 . S
C1598 N1605 1.356 . S
C1599 C1598 1.363 . S
C1599 C1602 1.363 . S
N1600 C1602 1.356 . S
N1600 H1612 0.984 . S
N1600 H1613 0.985 . S
N1601 C1603 1.356 1_565 S
N1601 H1606 0.984 . S
N1601 H1607 0.985 . S
C1602 C1596 1.379 . S
C1602 C1599 1.363 . S
C1602 N1600 1.356 . S
C1603 C1597 1.363 . S
C1603 C1598 1.379 . S
C1603 N1601 1.356 1_545 S
N1604 C1596 1.356 . S
N1604 H1610 0.984 . S
N1604 H1611 0.984 1_545 S
N1605 C1598 1.356 . S
N1605 H1608 0.984 . S
N1605 H1609 0.985 . S
H1606 N1601 0.984 . S
H1607 N1601 0.985 . S
H1608 N1605 0.984 . S
H1609 N1605 0.985 . S
H1610 N1604 0.984 . S
H1611 N1604 0.984 1_565 S
H1612 N1600 0.984 . S
H1613 N1600 0.985 . S
C1614 C1615 1.363 . S
C1614 C1620 1.379 . S
C1614 N1622 1.356 . S
C1615 C1614 1.363 . S
C1615 C1621 1.363 . S
C1616 C1617 1.363 . S
C1616 C1621 1.379 . S
C1616 N1623 1.356 . S
C1617 C1616 1.363 . S
C1617 C1620 1.363 . S
N1618 C1620 1.356 . S
N1618 H1630 0.984 . S
N1618 H1631 0.985 . S
N1619 C1621 1.356 . S
N1619 H1624 0.984 . S
N1619 H1625 0.985 . S
C1620 C1614 1.379 . S
C1620 C1617 1.363 . S
C1620 N1618 1.356 . S
C1621 C1615 1.363 . S
C1621 C1616 1.379 . S
C1621 N1619 1.356 . S
N1622 C1614 1.356 . S
N1622 H1628 0.984 . S
N1622 H1629 0.984 . S
N1623 C1616 1.356 . S
N1623 H1626 0.984 . S
N1623 H1627 0.985 . S
H1624 N1619 0.984 . S
H1625 N1619 0.985 . S
H1626 N1623 0.984 . S
H1627 N1623 0.985 . S
H1628 N1622 0.984 . S
H1629 N1622 0.984 . S
H1630 N1618 0.984 . S
H1631 N1618 0.985 . S
C1632 C1633 1.363 . S
C1632 C1638 1.379 . S
C1632 N1640 1.356 . S
C1633 C1632 1.363 . S
C1633 C1639 1.363 . S
C1634 C1635 1.363 . S
C1634 C1639 1.379 . S
C1634 N1641 1.356 . S
C1635 C1634 1.363 . S
C1635 C1638 1.363 . S
N1636 C1638 1.356 . S
N1636 H1648 0.984 . S
N1636 H1649 0.985 . S
N1637 C1639 1.356 . S
N1637 H1642 0.984 . S
N1637 H1643 0.985 . S
C1638 C1632 1.379 . S
C1638 C1635 1.363 . S
C1638 N1636 1.356 . S
C1639 C1633 1.363 . S
C1639 C1634 1.379 . S
C1639 N1637 1.356 . S
N1640 C1632 1.356 . S
N1640 H1646 0.984 . S
N1640 H1647 0.984 . S
N1641 C1634 1.356 . S
N1641 H1644 0.984 . S
N1641 H1645 0.985 . S
H1642 N1637 0.984 . S
H1643 N1637 0.985 . S
H1644 N1641 0.984 . S
H1645 N1641 0.985 . S
H1646 N1640 0.984 . S
H1647 N1640 0.984 . S
H1648 N1636 0.984 . S
H1649 N1636 0.985 . S
C1650 C1651 1.363 . S
C1650 C1656 1.379 . S
C1650 N1658 1.356 . S
C1651 C1650 1.363 . S
C1651 C1657 1.363 . S
C1652 C1653 1.363 . S
C1652 C1657 1.379 . S
C1652 N1659 1.356 1_545 S
C1653 C1652 1.363 . S
C1653 C1656 1.363 . S
N1654 C1656 1.356 . S
N1654 H1666 0.984 . S
N1654 H1667 0.985 . S
N1655 C1657 1.356 1_565 S
N1655 H1660 0.984 1_565 S
N1655 H1661 0.985 . S
C1656 C1650 1.379 . S
C1656 C1653 1.363 . S
C1656 N1654 1.356 . S
C1657 C1651 1.363 . S
C1657 C1652 1.379 . S
C1657 N1655 1.356 1_545 S
N1658 C1650 1.356 . S
N1658 H1664 0.984 . S
N1658 H1665 0.984 . S
N1659 C1652 1.356 1_565 S
N1659 H1662 0.984 . S
N1659 H1663 0.985 . S
H1660 N1655 0.984 1_545 S
H1661 N1655 0.985 . S
H1662 N1659 0.984 . S
H1663 N1659 0.985 . S
H1664 N1658 0.984 . S
H1665 N1658 0.984 . S
H1666 N1654 0.984 . S
H1667 N1654 0.985 . S
C1668 C1669 1.363 . S
C1668 C1674 1.379 . S
C1668 N1676 1.356 . S
C1669 C1668 1.363 . S
C1669 C1675 1.363 . S
C1670 C1671 1.363 . S
C1670 C1675 1.379 . S
C1670 N1677 1.356 . S
C1671 C1670 1.363 . S
C1671 C1674 1.363 . S
N1672 C1674 1.356 . S
N1672 H1684 0.984 . S
N1672 H1685 0.985 . S
N1673 C1675 1.356 . S
N1673 H1678 0.984 . S
N1673 H1679 0.985 . S
C1674 C1668 1.379 . S
C1674 C1671 1.363 . S
C1674 N1672 1.356 . S
C1675 C1669 1.363 . S
C1675 C1670 1.379 . S
C1675 N1673 1.356 . S
N1676 C1668 1.356 . S
N1676 H1682 0.984 . S
N1676 H1683 0.984 . S
N1677 C1670 1.356 . S
N1677 H1680 0.984 . S
N1677 H1681 0.985 . S
H1678 N1673 0.984 . S
H1679 N1673 0.985 . S
H1680 N1677 0.984 . S
H1681 N1677 0.985 . S
H1682 N1676 0.984 . S
H1683 N1676 0.984 . S
H1684 N1672 0.984 . S
H1685 N1672 0.985 . S
C1686 C1687 1.363 . S
C1686 C1692 1.379 . S
C1686 N1694 1.356 . S
C1687 C1686 1.363 . S
C1687 C1693 1.363 . S
C1688 C1689 1.363 . S
C1688 C1693 1.379 . S
C1688 N1695 1.356 . S
C1689 C1688 1.363 . S
C1689 C1692 1.363 . S
N1690 C1692 1.356 . S
N1690 H1702 0.984 . S
N1690 H1703 0.985 . S
N1691 C1693 1.356 . S
N1691 H1696 0.984 . S
N1691 H1697 0.985 . S
C1692 C1686 1.379 . S
C1692 C1689 1.363 . S
C1692 N1690 1.356 . S
C1693 C1687 1.363 . S
C1693 C1688 1.379 . S
C1693 N1691 1.356 . S
N1694 C1686 1.356 . S
N1694 H1700 0.984 . S
N1694 H1701 0.984 . S
N1695 C1688 1.356 . S
N1695 H1698 0.984 . S
N1695 H1699 0.985 . S
H1696 N1691 0.984 . S
H1697 N1691 0.985 . S
H1698 N1695 0.984 . S
H1699 N1695 0.985 . S
H1700 N1694 0.984 . S
H1701 N1694 0.984 . S
H1702 N1690 0.984 . S
H1703 N1690 0.985 . S
C1704 C1705 1.363 . S
C1704 C1710 1.379 . S
C1704 N1712 1.356 . S
C1705 C1704 1.363 . S
C1705 C1711 1.363 . S
C1706 C1707 1.363 . S
C1706 C1711 1.379 . S
C1706 N1713 1.356 . S
C1707 C1706 1.363 . S
C1707 C1710 1.363 . S
N1708 C1710 1.356 . S
N1708 H1720 0.984 . S
N1708 H1721 0.985 . S
N1709 C1711 1.356 . S
N1709 H1714 0.984 . S
N1709 H1715 0.985 . S
C1710 C1704 1.379 . S
C1710 C1707 1.363 . S
C1710 N1708 1.356 . S
C1711 C1705 1.363 . S
C1711 C1706 1.379 . S
C1711 N1709 1.356 . S
N1712 C1704 1.356 . S
N1712 H1718 0.984 . S
N1712 H1719 0.984 . S
N1713 C1706 1.356 . S
N1713 H1716 0.984 . S
N1713 H1717 0.985 . S
H1714 N1709 0.984 . S
H1715 N1709 0.985 . S
H1716 N1713 0.984 . S
H1717 N1713 0.985 . S
H1718 N1712 0.984 . S
H1719 N1712 0.984 . S
H1720 N1708 0.984 . S
H1721 N1708 0.985 . S
C1722 C1723 1.363 . S
C1722 C1728 1.379 . S
C1722 N1730 1.356 1_655 S
C1723 C1722 1.363 . S
C1723 C1729 1.363 1_545 S
C1724 C1725 1.363 1_565 S
C1724 C1729 1.379 . S
C1724 N1731 1.356 . S
C1725 C1724 1.363 1_545 S
C1725 C1728 1.363 . S
N1726 C1728 1.356 . S
N1726 H1738 0.984 . S
N1726 H1739 0.985 . S
N1727 C1729 1.356 . S
N1727 H1732 0.984 1_655 S
N1727 H1733 0.985 . S
C1728 C1722 1.379 . S
C1728 C1725 1.363 . S
C1728 N1726 1.356 . S
C1729 C1723 1.363 1_565 S
C1729 C1724 1.379 . S
C1729 N1727 1.356 . S
N1730 C1722 1.356 1_455 S
N1730 H1736 0.984 . S
N1730 H1737 0.984 . S
N1731 C1724 1.356 . S
N1731 H1734 0.984 . S
N1731 H1735 0.985 . S
H1732 N1727 0.984 1_455 S
H1733 N1727 0.985 . S
H1734 N1731 0.984 . S
H1735 N1731 0.985 . S
H1736 N1730 0.984 . S
H1737 N1730 0.984 . S
H1738 N1726 0.984 . S
H1739 N1726 0.985 . S
C1740 C1741 1.363 . S
C1740 C1746 1.379 . S
C1740 N1748 1.356 . S
C1741 C1740 1.363 . S
C1741 C1747 1.363 . S
C1742 C1743 1.363 . S
C1742 C1747 1.379 . S
C1742 N1749 1.356 . S
C1743 C1742 1.363 . S
C1743 C1746 1.363 . S
N1744 C1746 1.356 . S
N1744 H1756 0.984 . S
N1744 H1757 0.985 . S
N1745 C1747 1.356 . S
N1745 H1750 0.984 . S
N1745 H1751 0.985 . S
C1746 C1740 1.379 . S
C1746 C1743 1.363 . S
C1746 N1744 1.356 . S
C1747 C1741 1.363 . S
C1747 C1742 1.379 . S
C1747 N1745 1.356 . S
N1748 C1740 1.356 . S
N1748 H1754 0.984 . S
N1748 H1755 0.984 . S
N1749 C1742 1.356 . S
N1749 H1752 0.984 . S
N1749 H1753 0.985 . S
H1750 N1745 0.984 . S
H1751 N1745 0.985 . S
H1752 N1749 0.984 . S
H1753 N1749 0.985 . S
H1754 N1748 0.984 . S
H1755 N1748 0.984 . S
H1756 N1744 0.984 . S
H1757 N1744 0.985 . S
C1758 C1759 1.363 1_655 S
C1758 C1764 1.379 1_655 S
C1758 N1766 1.356 . S
C1759 C1758 1.363 1_455 S
C1759 C1765 1.363 . S
C1760 C1761 1.363 . S
C1760 C1765 1.379 . S
C1760 N1767 1.356 . S
C1761 C1760 1.363 . S
C1761 C1764 1.363 . S
N1762 C1764 1.356 . S
N1762 H1774 0.984 . S
N1762 H1775 0.985 . S
N1763 C1765 1.356 . S
N1763 H1768 0.984 . S
N1763 H1769 0.985 . S
C1764 C1758 1.379 1_455 S
C1764 C1761 1.363 . S
C1764 N1762 1.356 . S
C1765 C1759 1.363 . S
C1765 C1760 1.379 . S
C1765 N1763 1.356 . S
N1766 C1758 1.356 . S
N1766 H1772 0.984 . S
N1766 H1773 0.984 . S
N1767 C1760 1.356 . S
N1767 H1770 0.984 . S
N1767 H1771 0.985 . S
H1768 N1763 0.984 . S
H1769 N1763 0.985 . S
H1770 N1767 0.984 . S
H1771 N1767 0.985 . S
H1772 N1766 0.984 . S
H1773 N1766 0.984 . S
H1774 N1762 0.984 . S
H1775 N1762 0.985 . S
C1776 C1777 1.363 . S
C1776 C1782 1.379 . S
C1776 N1784 1.356 . S
C1777 C1776 1.363 . S
C1777 C1783 1.363 . S
C1778 C1779 1.363 . S
C1778 C1783 1.379 . S
C1778 N1785 1.356 . S
C1779 C1778 1.363 . S
C1779 C1782 1.363 . S
N1780 C1782 1.356 . S
N1780 H1792 0.984 . S
N1780 H1793 0.985 . S
N1781 C1783 1.356 . S
N1781 H1786 0.984 . S
N1781 H1787 0.985 . S
C1782 C1776 1.379 . S
C1782 C1779 1.363 . S
C1782 N1780 1.356 . S
C1783 C1777 1.363 . S
C1783 C1778 1.379 . S
C1783 N1781 1.356 . S
N1784 C1776 1.356 . S
N1784 H1790 0.984 . S
N1784 H1791 0.984 . S
N1785 C1778 1.356 . S
N1785 H1788 0.984 . S
N1785 H1789 0.985 . S
H1786 N1781 0.984 . S
H1787 N1781 0.985 . S
H1788 N1785 0.984 . S
H1789 N1785 0.985 . S
H1790 N1784 0.984 . S
H1791 N1784 0.984 . S
H1792 N1780 0.984 . S
H1793 N1780 0.985 . S
C1794 C1795 1.363 1_554 S
C1794 C1800 1.379 1_554 S
C1794 N1802 1.366 . S
C1795 C1794 1.363 1_556 S
C1795 C1801 1.363 . S
C1796 C1797 1.363 . S
C1796 C1801 1.379 . S
C1796 N1803 1.356 . S
C1797 C1796 1.363 . S
C1797 C1800 1.363 . S
N1798 C1800 1.356 1_455 S
N1798 H1810 0.984 1_556 S
N1798 H1811 0.985 . S
N1799 C1801 1.356 . S
N1799 H1804 0.984 . S
N1799 H1805 0.985 . S
C1800 C1794 1.379 1_556 S
C1800 C1797 1.363 . S
C1800 N1798 1.356 1_655 S
C1801 C1795 1.363 . S
C1801 C1796 1.379 . S
C1801 N1799 1.356 . S
N1802 C1794 1.366 . S
N1802 H1808 0.968 1_655 S
N1802 H1809 0.993 . S
N1803 C1796 1.356 . S
N1803 H1806 0.984 . S
N1803 H1807 0.985 . S
H1804 N1799 0.984 . S
H1805 N1799 0.985 . S
H1806 N1803 0.984 . S
H1807 N1803 0.985 . S
H1808 N1802 0.968 1_455 S
H1809 N1802 0.993 . S
H1810 N1798 0.984 1_554 S
H1811 N1798 0.985 . S
C1812 C1813 1.363 . S
C1812 C1818 1.379 . S
C1812 N1820 1.356 . S
C1813 C1812 1.363 . S
C1813 C1819 1.363 . S
C1814 C1815 1.363 . S
C1814 C1819 1.379 . S
C1814 N1821 1.356 . S
C1815 C1814 1.363 . S
C1815 C1818 1.363 . S
N1816 C1818 1.356 . S
N1816 H1828 0.984 . S
N1816 H1829 0.985 . S
N1817 C1819 1.356 . S
N1817 H1822 0.984 . S
N1817 H1823 0.985 . S
C1818 C1812 1.379 . S
C1818 C1815 1.363 . S
C1818 N1816 1.356 . S
C1819 C1813 1.363 . S
C1819 C1814 1.379 . S
C1819 N1817 1.356 . S
N1820 C1812 1.356 . S
N1820 H1826 0.984 . S
N1820 H1827 0.984 . S
N1821 C1814 1.356 . S
N1821 H1824 0.984 . S
N1821 H1825 0.985 . S
H1822 N1817 0.984 . S
H1823 N1817 0.985 . S
H1824 N1821 0.984 . S
H1825 N1821 0.985 . S
H1826 N1820 0.984 . S
H1827 N1820 0.984 . S
H1828 N1816 0.984 . S
H1829 N1816 0.985 . S
C1830 C1831 1.363 1_554 S
C1830 C1836 1.379 1_554 S
C1830 N1838 1.367 . S
C1831 C1830 1.363 1_556 S
C1831 C1837 1.363 . S
C1832 C1833 1.363 . S
C1832 C1837 1.379 . S
C1832 N1839 1.356 . S
C1833 C1832 1.363 . S
C1833 C1836 1.363 . S
N1834 C1836 1.356 1_655 S
N1834 H1846 0.984 1_556 S
N1834 H1847 0.985 . S
N1835 C1837 1.356 . S
N1835 H1840 0.984 . S
N1835 H1841 0.985 . S
C1836 C1830 1.379 1_556 S
C1836 C1833 1.363 . S
C1836 N1834 1.356 1_455 S
C1837 C1831 1.363 . S
C1837 C1832 1.379 . S
C1837 N1835 1.356 . S
N1838 C1830 1.367 . S
N1838 H1844 0.965 1_455 S
N1838 H1845 0.994 . S
N1839 C1832 1.356 . S
N1839 H1842 0.984 . S
N1839 H1843 0.985 . S
H1840 N1835 0.984 . S
H1841 N1835 0.985 . S
H1842 N1839 0.984 . S
H1843 N1839 0.985 . S
H1844 N1838 0.965 1_655 S
H1845 N1838 0.994 . S
H1846 N1834 0.984 1_554 S
H1847 N1834 0.985 . S
C1848 C1849 1.363 . S
C1848 C1854 1.379 . S
C1848 N1856 1.356 . S
C1849 C1848 1.363 . S
C1849 C1855 1.363 . S
C1850 C1851 1.363 . S
C1850 C1855 1.379 . S
C1850 N1857 1.356 . S
C1851 C1850 1.363 . S
C1851 C1854 1.363 . S
N1852 C1854 1.356 . S
N1852 H1864 0.984 . S
N1852 H1865 0.985 . S
N1853 C1855 1.356 . S
N1853 H1858 0.984 . S
N1853 H1859 0.985 . S
C1854 C1848 1.379 . S
C1854 C1851 1.363 . S
C1854 N1852 1.356 . S
C1855 C1849 1.363 . S
C1855 C1850 1.379 . S
C1855 N1853 1.356 . S
N1856 C1848 1.356 . S
N1856 H1862 0.984 . S
N1856 H1863 0.984 . S
N1857 C1850 1.356 . S
N1857 H1860 0.984 . S
N1857 H1861 0.985 . S
H1858 N1853 0.984 . S
H1859 N1853 0.985 . S
H1860 N1857 0.984 . S
H1861 N1857 0.985 . S
H1862 N1856 0.984 . S
H1863 N1856 0.984 . S
H1864 N1852 0.984 . S
H1865 N1852 0.985 . S
C1866 C1867 1.363 . S
C1866 C1872 1.379 . S
C1866 N1874 1.356 . S
C1867 C1866 1.363 . S
C1867 C1873 1.363 1_554 S
C1868 C1869 1.363 . S
C1868 C1873 1.379 1_554 S
C1868 N1875 1.356 . S
C1869 C1868 1.363 . S
C1869 C1872 1.363 . S
N1870 C1872 1.356 . S
N1870 H1882 0.984 . S
N1870 H1883 0.985 . S
N1871 C1873 1.356 . S
N1871 H1876 0.984 . S
N1871 H1877 0.985 . S
C1872 C1866 1.379 . S
C1872 C1869 1.363 . S
C1872 N1870 1.356 . S
C1873 C1867 1.363 1_556 S
C1873 C1868 1.379 1_556 S
C1873 N1871 1.356 . S
N1874 C1866 1.356 . S
N1874 H1880 0.984 . S
N1874 H1881 0.984 . S
N1875 C1868 1.356 . S
N1875 H1878 0.984 . S
N1875 H1879 0.985 1_554 S
H1876 N1871 0.984 . S
H1877 N1871 0.985 . S
H1878 N1875 0.984 . S
H1879 N1875 0.985 1_556 S
H1880 N1874 0.984 . S
H1881 N1874 0.984 . S
H1882 N1870 0.984 . S
H1883 N1870 0.985 . S
C1884 C1885 1.363 . S
C1884 C1890 1.379 . S
C1884 N1892 1.356 . S
C1885 C1884 1.363 . S
C1885 C1891 1.363 . S
C1886 C1887 1.363 . S
C1886 C1891 1.379 . S
C1886 N1893 1.356 . S
C1887 C1886 1.363 . S
C1887 C1890 1.363 . S
N1888 C1890 1.356 . S
N1888 H1900 0.984 . S
N1888 H1901 0.985 . S
N1889 C1891 1.356 . S
N1889 H1894 0.984 . S
N1889 H1895 0.985 . S
C1890 C1884 1.379 . S
C1890 C1887 1.363 . S
C1890 N1888 1.356 . S
C1891 C1885 1.363 . S
C1891 C1886 1.379 . S
C1891 N1889 1.356 . S
N1892 C1884 1.356 . S
N1892 H1898 0.984 . S
N1892 H1899 0.984 . S
N1893 C1886 1.356 . S
N1893 H1896 0.984 . S
N1893 H1897 0.985 . S
H1894 N1889 0.984 . S
H1895 N1889 0.985 . S
H1896 N1893 0.984 . S
H1897 N1893 0.985 . S
H1898 N1892 0.984 . S
H1899 N1892 0.984 . S
H1900 N1888 0.984 . S
H1901 N1888 0.985 . S
C1902 C1903 1.363 1_556 S
C1902 C1908 1.379 1_556 S
C1902 N1910 1.356 . S
C1903 C1902 1.363 1_554 S
C1903 C1909 1.363 . S
C1904 C1905 1.363 . S
C1904 C1909 1.379 . S
C1904 N1911 1.356 . S
C1905 C1904 1.363 . S
C1905 C1908 1.363 . S
N1906 C1908 1.356 . S
N1906 H1918 0.984 1_554 S
N1906 H1919 0.985 . S
N1907 C1909 1.356 . S
N1907 H1912 0.984 . S
N1907 H1913 0.985 . S
C1908 C1902 1.379 1_554 S
C1908 C1905 1.363 . S
C1908 N1906 1.356 . S
C1909 C1903 1.363 . S
C1909 C1904 1.379 . S
C1909 N1907 1.356 . S
N1910 C1902 1.356 . S
N1910 H1916 0.984 . S
N1910 H1917 0.984 . S
N1911 C1904 1.356 . S
N1911 H1914 0.984 . S
N1911 H1915 0.985 . S
H1912 N1907 0.984 . S
H1913 N1907 0.985 . S
H1914 N1911 0.984 . S
H1915 N1911 0.985 . S
H1916 N1910 0.984 . S
H1917 N1910 0.984 . S
H1918 N1906 0.984 1_556 S
H1919 N1906 0.985 . S
C1920 C1921 1.363 . S
C1920 C1926 1.379 . S
C1920 N1928 1.356 . S
C1921 C1920 1.363 . S
C1921 C1927 1.363 . S
C1922 C1923 1.363 . S
C1922 C1927 1.379 . S
C1922 N1929 1.356 . S
C1923 C1922 1.363 . S
C1923 C1926 1.363 . S
N1924 C1926 1.356 . S
N1924 H1936 0.984 . S
N1924 H1937 0.985 . S
N1925 C1927 1.356 . S
N1925 H1930 0.984 . S
N1925 H1931 0.985 . S
C1926 C1920 1.379 . S
C1926 C1923 1.363 . S
C1926 N1924 1.356 . S
C1927 C1921 1.363 . S
C1927 C1922 1.379 . S
C1927 N1925 1.356 . S
N1928 C1920 1.356 . S
N1928 H1934 0.984 . S
N1928 H1935 0.984 . S
N1929 C1922 1.356 . S
N1929 H1932 0.984 . S
N1929 H1933 0.985 . S
H1930 N1925 0.984 . S
H1931 N1925 0.985 . S
H1932 N1929 0.984 . S
H1933 N1929 0.985 . S
H1934 N1928 0.984 . S
H1935 N1928 0.984 . S
H1936 N1924 0.984 . S
H1937 N1924 0.985 . S
C1938 C1939 1.363 . S
C1938 C1944 1.379 . S
C1938 N1946 1.356 . S
C1939 C1938 1.363 . S
C1939 C1945 1.363 . S
C1940 C1941 1.363 . S
C1940 C1945 1.379 . S
C1940 N1947 1.356 . S
C1941 C1940 1.363 . S
C1941 C1944 1.363 . S
N1942 C1944 1.356 . S
N1942 H1954 0.984 . S
N1942 H1955 0.985 . S
N1943 C1945 1.356 . S
N1943 H1948 0.984 . S
N1943 H1949 0.985 . S
C1944 C1938 1.379 . S
C1944 C1941 1.363 . S
C1944 N1942 1.356 . S
C1945 C1939 1.363 . S
C1945 C1940 1.379 . S
C1945 N1943 1.356 . S
N1946 C1938 1.356 . S
N1946 H1952 0.984 . S
N1946 H1953 0.984 . S
N1947 C1940 1.356 . S
N1947 H1950 0.984 . S
N1947 H1951 0.985 . S
H1948 N1943 0.984 . S
H1949 N1943 0.985 . S
H1950 N1947 0.984 . S
H1951 N1947 0.985 . S
H1952 N1946 0.984 . S
H1953 N1946 0.984 . S
H1954 N1942 0.984 . S
H1955 N1942 0.985 . S
C1956 C1957 1.363 . S
C1956 C1962 1.379 . S
C1956 N1964 1.356 . S
C1957 C1956 1.363 . S
C1957 C1963 1.363 . S
C1958 C1959 1.363 . S
C1958 C1963 1.379 . S
C1958 N1965 1.356 . S
C1959 C1958 1.363 . S
C1959 C1962 1.363 . S
N1960 C1962 1.356 . S
N1960 H1972 0.984 . S
N1960 H1973 0.985 . S
N1961 C1963 1.356 . S
N1961 H1966 0.984 . S
N1961 H1967 0.985 . S
C1962 C1956 1.379 . S
C1962 C1959 1.363 . S
C1962 N1960 1.356 . S
C1963 C1957 1.363 . S
C1963 C1958 1.379 . S
C1963 N1961 1.356 . S
N1964 C1956 1.356 . S
N1964 H1970 0.984 . S
N1964 H1971 0.984 . S
N1965 C1958 1.356 . S
N1965 H1968 0.984 . S
N1965 H1969 0.985 . S
H1966 N1961 0.984 . S
H1967 N1961 0.985 . S
H1968 N1965 0.984 . S
H1969 N1965 0.985 . S
H1970 N1964 0.984 . S
H1971 N1964 0.984 . S
H1972 N1960 0.984 . S
H1973 N1960 0.985 . S
C1974 C1975 1.363 . S
C1974 C1980 1.379 . S
C1974 N1982 1.356 . S
C1975 C1974 1.363 . S
C1975 C1981 1.363 . S
C1976 C1977 1.363 . S
C1976 C1981 1.379 . S
C1976 N1983 1.356 . S
C1977 C1976 1.363 . S
C1977 C1980 1.363 . S
N1978 C1980 1.356 . S
N1978 H1990 0.984 . S
N1978 H1991 0.985 . S
N1979 C1981 1.356 . S
N1979 H1984 0.984 . S
N1979 H1985 0.985 . S
C1980 C1974 1.379 . S
C1980 C1977 1.363 . S
C1980 N1978 1.356 . S
C1981 C1975 1.363 . S
C1981 C1976 1.379 . S
C1981 N1979 1.356 . S
N1982 C1974 1.356 . S
N1982 H1988 0.984 . S
N1982 H1989 0.984 . S
N1983 C1976 1.356 . S
N1983 H1986 0.984 . S
N1983 H1987 0.985 . S
H1984 N1979 0.984 . S
H1985 N1979 0.985 . S
H1986 N1983 0.984 . S
H1987 N1983 0.985 . S
H1988 N1982 0.984 . S
H1989 N1982 0.984 . S
H1990 N1978 0.984 . S
H1991 N1978 0.985 . S
C1992 C1993 1.363 . S
C1992 C1998 1.379 . S
C1992 N2000 1.356 . S
C1993 C1992 1.363 . S
C1993 C1999 1.363 . S
C1994 C1995 1.339 1_554 S
C1994 C1999 1.375 1_554 S
C1994 N2001 1.381 . S
C1995 C1994 1.339 1_556 S
C1995 C1998 1.363 . S
N1996 C1998 1.356 . S
N1996 H2008 0.984 . S
N1996 H2009 0.985 . S
N1997 C1999 1.356 1_554 S
N1997 H2002 0.984 . S
N1997 H2003 0.985 . S
C1998 C1992 1.379 . S
C1998 C1995 1.363 . S
C1998 N1996 1.356 . S
C1999 C1993 1.363 . S
C1999 C1994 1.375 1_556 S
C1999 N1997 1.356 1_556 S
N2000 C1992 1.356 . S
N2000 H2006 0.984 . S
N2000 H2007 0.984 . S
N2001 C1994 1.381 . S
N2001 H2004 0.984 . S
N2001 H2005 0.985 . S
H2002 N1997 0.984 . S
H2003 N1997 0.985 . S
H2004 N2001 0.984 . S
H2005 N2001 0.985 . S
H2006 N2000 0.984 . S
H2007 N2000 0.984 . S
H2008 N1996 0.984 . S
H2009 N1996 0.985 . S
C2010 C2011 1.363 . S
C2010 C2016 1.379 . S
C2010 N2018 1.356 . S
C2011 C2010 1.363 . S
C2011 C2017 1.363 . S
C2012 C2013 1.363 . S
C2012 C2017 1.379 . S
C2012 N2019 1.356 . S
C2013 C2012 1.363 . S
C2013 C2016 1.363 . S
N2014 C2016 1.356 . S
N2014 H2026 0.984 . S
N2014 H2027 0.985 . S
N2015 C2017 1.356 . S
N2015 H2020 0.984 . S
N2015 H2021 0.985 . S
C2016 C2010 1.379 . S
C2016 C2013 1.363 . S
C2016 N2014 1.356 . S
C2017 C2011 1.363 . S
C2017 C2012 1.379 . S
C2017 N2015 1.356 . S
N2018 C2010 1.356 . S
N2018 H2024 0.984 . S
N2018 H2025 0.984 . S
N2019 C2012 1.356 . S
N2019 H2022 0.984 . S
N2019 H2023 0.985 . S
H2020 N2015 0.984 . S
H2021 N2015 0.985 . S
H2022 N2019 0.984 . S
H2023 N2019 0.985 . S
H2024 N2018 0.984 . S
H2025 N2018 0.984 . S
H2026 N2014 0.984 . S
H2027 N2014 0.985 . S
C2028 C2029 1.363 . S
C2028 C2034 1.379 . S
C2028 N2036 1.355 . S
C2029 C2028 1.363 . S
C2029 C2035 1.363 . S
C2030 C2031 1.363 . S
C2030 C2035 1.379 . S
C2030 N2037 1.356 . S
C2031 C2030 1.363 . S
C2031 C2034 1.363 . S
N2032 C2034 1.356 1_556 S
N2032 H2044 0.984 . S
N2032 H2045 0.985 . S
N2033 C2035 1.356 . S
N2033 H2038 0.984 . S
N2033 H2039 0.985 . S
C2034 C2028 1.379 . S
C2034 C2031 1.363 . S
C2034 N2032 1.356 1_554 S
C2035 C2029 1.363 . S
C2035 C2030 1.379 . S
C2035 N2033 1.356 . S
N2036 C2028 1.355 . S
N2036 H2042 0.987 1_554 S
N2036 H2043 0.983 . S
N2037 C2030 1.356 . S
N2037 H2040 0.984 . S
N2037 H2041 0.985 . S
H2038 N2033 0.984 . S
H2039 N2033 0.985 . S
H2040 N2037 0.984 . S
H2041 N2037 0.985 . S
H2042 N2036 0.987 1_556 S
H2043 N2036 0.983 . S
H2044 N2032 0.984 . S
H2045 N2032 0.985 . S
C2046 C2047 1.363 . S
C2046 C2052 1.379 . S
C2046 N2054 1.356 1_565 S
C2047 C2046 1.363 . S
C2047 C2053 1.390 . S
C2048 C2049 1.363 1_556 S
C2048 C2053 1.376 1_556 S
C2048 N2055 1.356 . S
C2049 C2048 1.363 1_554 S
C2049 C2052 1.363 . S
N2050 C2052 1.356 . S
N2050 H2062 0.984 . S
N2050 H2063 0.985 . S
N2051 C2053 1.339 1_556 S
N2051 H2056 0.984 1_565 S
N2051 H2057 0.985 . S
C2052 C2046 1.379 . S
C2052 C2049 1.363 . S
C2052 N2050 1.356 . S
C2053 C2047 1.390 . S
C2053 C2048 1.376 1_554 S
C2053 N2051 1.339 1_554 S
N2054 C2046 1.356 1_545 S
N2054 H2060 0.984 . S
N2054 H2061 0.984 . S
N2055 C2048 1.356 . S
N2055 H2058 0.984 . S
N2055 H2059 0.985 . S
H2056 N2051 0.984 1_545 S
H2057 N2051 0.985 . S
H2058 N2055 0.984 . S
H2059 N2055 0.985 . S
H2060 N2054 0.984 . S
H2061 N2054 0.984 . S
H2062 N2050 0.984 . S
H2063 N2050 0.985 . S
C1203 C193 1.509 . S
C1201 C50 1.510 . S
C1221 C252 1.500 . S
C1219 C61 1.499 1_455 S
C1237 C67 1.508 . S
C1239 C369 1.508 . S
C1257 C437 1.506 . S
C1255 C41 1.504 1_655 S
C1275 C516 1.500 . S
C1273 C95 1.500 . S
C1293 C641 1.516 . S
C1291 C113 1.514 . S
C1309 C106 1.492 . S
C1311 C701 1.492 . S
C1329 C809 1.515 . S
C1327 C86 1.515 . S
C1345 C104 1.498 . S
C1347 C905 1.500 . S
C1365 C965 1.514 . S
C1363 C88 1.513 . S
C1381 C94 1.516 . S
C1383 C868 1.514 . S
C1401 C985 1.504 . S
C1399 C112 1.502 . S
C1417 C70 1.497 . S
C1419 C1053 1.499 . S
C1435 C40 1.511 . S
C1437 C1044 1.512 . S
C1453 C49 1.508 . S
C1455 C1073 1.507 . S
C1471 C59 1.512 . S
C1473 C1081 1.514 . S
C1489 C34 1.497 . S
C1491 C465 1.497 . S
C1507 C133 1.500 . S
C1509 C428 1.501 . S
C1527 C164 1.513 . S
C1525 C139 1.512 1_565 S
C1545 C261 1.509 . S
C1543 C77 1.509 . S
C1561 C43 1.498 1_545 S
C1563 C525 1.500 . S
C1581 C817 1.504 . S
C1579 C103 1.500 . S
C1599 C545 1.523 . S
C1597 C85 1.522 1_545 S
C1617 C729 1.498 . S
C1615 C115 1.497 . S
C1635 C721 1.509 . S
C1633 C131 1.509 . S
C1651 C142 1.499 . S
C1653 C789 1.500 . S
C1669 C76 1.508 . S
C1671 C553 1.508 . S
C1689 C604 1.506 . S
C1687 C122 1.504 . S
C1705 C32 1.500 . S
C1707 C349 1.500 . S
C1725 C457 1.516 . S
C1723 C5 1.514 1_655 S
C1743 C173 1.492 . S
C1741 C16 1.491 . S
C1761 C289 1.515 . S
C1759 C23 1.515 1_455 S
C1777 C14 1.498 . S
C1779 C993 1.498 . S
C1795 C25 1.513 1_556 S
C1797 C877 1.514 . S
C1813 C31 1.516 . S
C1815 C956 1.516 . S
C1831 C4 1.502 1_556 S
C1833 C897 1.504 . S
C1851 C1141 1.498 . S
C1849 C79 1.498 . S
C1869 C1132 1.512 . S
C1867 C121 1.510 1_554 S
C1887 C1161 1.508 . S
C1885 C130 1.508 . S
C1903 C140 1.512 1_554 S
C1905 C1169 1.514 . S
C1921 C97 1.497 . S
C1923 C633 1.497 . S
C1941 C613 1.501 . S
C1939 C52 1.500 . S
C1959 C692 1.513 . S
C1957 C58 1.511 . S
C1977 C780 1.509 . S
C1975 C68 1.512 . S
C1993 C124 1.498 . S
C1995 C340 1.500 . S
C2013 C281 1.504 . S
C2011 C13 1.503 . S
C2029 C22 1.522 . S
C2031 C377 1.523 . S
C2049 C201 1.498 . S
C2047 C7 1.496 1_565 S
