# Generated by pormake.
# Topology nom, (4,4)-cn, num edge types: 1
# Building blocks:
#     Node 0, Type 0, BuildingBlock: NAHDIM_clean_linker_0, # of connection points: 4
#     Node 1, Type 0, BuildingBlock: NAHDIM_clean_linker_0, # of connection points: 4
#     Node 2, Type 0, BuildingBlock: NAHDIM_clean_linker_0, # of connection points: 4
#     Node 3, Type 0, BuildingBlock: NAHDIM_clean_linker_0, # of connection points: 4
#     Node 4, Type 0, BuildingBlock: NAHDIM_clean_linker_0, # of connection points: 4
#     Node 5, Type 0, BuildingBlock: NAHDIM_clean_linker_0, # of connection points: 4
#     Node 6, Type 1, BuildingBlock: GALJAG_clean_sbu_0, # of connection points: 4
#     Node 7, Type 1, BuildingBlock: GALJAG_clean_sbu_0, # of connection points: 4
#     Node 8, Type 1, BuildingBlock: GALJAG_clean_sbu_0, # of connection points: 4
#     Node 9, Type 1, BuildingBlock: GALJAG_clean_sbu_0, # of connection points: 4
#     Node 10, Type 1, BuildingBlock: GALJAG_clean_sbu_0, # of connection points: 4
#     Node 11, Type 1, BuildingBlock: GALJAG_clean_sbu_0, # of connection points: 4
#     Edge 12, Type (0, 1), BuildingBlock: KIFKEQ_clean_linker_1, # of connection points: 2
#     Edge 13, Type (0, 1), BuildingBlock: KIFKEQ_clean_linker_1, # of connection points: 2
#     Edge 14, Type (0, 1), BuildingBlock: KIFKEQ_clean_linker_1, # of connection points: 2
#     Edge 15, Type (0, 1), BuildingBlock: KIFKEQ_clean_linker_1, # of connection points: 2
#     Edge 16, Type (0, 1), BuildingBlock: KIFKEQ_clean_linker_1, # of connection points: 2
#     Edge 17, Type (0, 1), BuildingBlock: KIFKEQ_clean_linker_1, # of connection points: 2
#     Edge 18, Type (0, 1), BuildingBlock: KIFKEQ_clean_linker_1, # of connection points: 2
#     Edge 19, Type (0, 1), BuildingBlock: KIFKEQ_clean_linker_1, # of connection points: 2
#     Edge 20, Type (0, 1), BuildingBlock: KIFKEQ_clean_linker_1, # of connection points: 2
#     Edge 21, Type (0, 1), BuildingBlock: KIFKEQ_clean_linker_1, # of connection points: 2
#     Edge 22, Type (0, 1), BuildingBlock: KIFKEQ_clean_linker_1, # of connection points: 2
#     Edge 23, Type (0, 1), BuildingBlock: KIFKEQ_clean_linker_1, # of connection points: 2
#     Edge 24, Type (0, 1), BuildingBlock: KIFKEQ_clean_linker_1, # of connection points: 2
#     Edge 25, Type (0, 1), BuildingBlock: KIFKEQ_clean_linker_1, # of connection points: 2
#     Edge 26, Type (0, 1), BuildingBlock: KIFKEQ_clean_linker_1, # of connection points: 2
#     Edge 27, Type (0, 1), BuildingBlock: KIFKEQ_clean_linker_1, # of connection points: 2
#     Edge 28, Type (0, 1), BuildingBlock: KIFKEQ_clean_linker_1, # of connection points: 2
#     Edge 29, Type (0, 1), BuildingBlock: KIFKEQ_clean_linker_1, # of connection points: 2
#     Edge 30, Type (0, 1), BuildingBlock: KIFKEQ_clean_linker_1, # of connection points: 2
#     Edge 31, Type (0, 1), BuildingBlock: KIFKEQ_clean_linker_1, # of connection points: 2
#     Edge 32, Type (0, 1), BuildingBlock: KIFKEQ_clean_linker_1, # of connection points: 2
#     Edge 33, Type (0, 1), BuildingBlock: KIFKEQ_clean_linker_1, # of connection points: 2
#     Edge 34, Type (0, 1), BuildingBlock: KIFKEQ_clean_linker_1, # of connection points: 2
#     Edge 35, Type (0, 1), BuildingBlock: KIFKEQ_clean_linker_1, # of connection points: 2
# Relax obj value: 0.026
# Max RMSD: 0.127
# Mean RMSD: 0.098
data_MOF--net-nom--node1-GALJAG_clean_sbu_0--node2-NAHDIM_clean_linker_0--edge1-KIFKEQ_clean_linker_1
_symmetry_space_group_name_H-M    P1
_symmetry_Int_Tables_number       1
_symmetry_cell_setting            triclinic
loop_
_symmetry_equiv_pos_as_xyz
'x, y, z'
_cell_length_a     58.331243
_cell_length_b     58.251756
_cell_length_c     72.990885
_cell_angle_alpha  90.156783
_cell_angle_beta   90.126138
_cell_angle_gamma 120.0527
loop_
_atom_site_label
_atom_site_type_symbol
_atom_site_fract_x
_atom_site_fract_y
_atom_site_fract_z
_atom_type_partial_charge
C0 C 0.17924 0.63114 0.24709 0.0
C1 C 0.18893 0.64228 0.26641 0.0
C2 C 0.14731 0.63376 0.28085 0.0
C3 C 0.13675 0.60635 0.28348 0.0
C4 C 0.11064 0.59029 0.28952 0.0
C5 C 0.0946 0.60171 0.29278 0.0
C6 C 0.10527 0.62933 0.29053 0.0
C7 C 0.13162 0.64502 0.28479 0.0
C8 C 0.09999 0.56095 0.29201 0.0
C9 C 0.08863 0.64212 0.29373 0.0
C10 C 0.93766 0.50615 0.19288 0.0
C11 C 0.9528 0.52285 0.20883 0.0
C12 C 0.97597 0.52143 0.2363 0.0
C13 C 0.97926 0.54521 0.24376 0.0
C14 C 0.9936 0.55576 0.26004 0.0
C15 C 0.00483 0.54228 0.26908 0.0
C16 C 0.00108 0.51806 0.26187 0.0
C17 C 0.98661 0.50793 0.24556 0.0
C18 C 0.99716 0.58158 0.26743 0.0
C19 C 0.01276 0.50318 0.27124 0.0
C20 C 0.89876 0.48332 0.36683 0.0
C21 C 0.90737 0.50938 0.36123 0.0
C22 C 0.93444 0.52749 0.35884 0.0
C23 C 0.95312 0.51911 0.36183 0.0
C24 C 0.94447 0.49306 0.36813 0.0
C25 C 0.91733 0.4756 0.37082 0.0
C26 C 0.94302 0.55541 0.35285 0.0
C27 C 0.9638 0.48349 0.3716 0.0
C28 C 0.1473 0.65445 0.42206 0.0
C29 C 0.12557 0.6258 0.42559 0.0
C30 C 0.08139 0.60902 0.41271 0.0
C31 C 0.06606 0.61912 0.40549 0.0
C32 C 0.0471 0.6053 0.39179 0.0
C33 C 0.04317 0.58059 0.3855 0.0
C34 C 0.05731 0.5694 0.39371 0.0
C35 C 0.07629 0.58374 0.40728 0.0
C36 C 0.03198 0.61753 0.38356 0.0
C37 C 0.05294 0.54268 0.38773 0.0
C38 C 0.06614 0.58437 0.29715 0.0
C39 C 0.04882 0.57159 0.28254 0.0
C40 C 0.02185 0.55441 0.28545 0.0
C41 C 0.01164 0.5497 0.30344 0.0
C42 C 0.98464 0.53227 0.30686 0.0
C43 C 0.97478 0.52792 0.32463 0.0
C44 C 0.99148 0.54109 0.33965 0.0
C45 C 0.98156 0.5372 0.35775 0.0
C46 C 0.99879 0.5504 0.37237 0.0
C47 C 0.02583 0.56741 0.36943 0.0
C48 C 0.0361 0.57167 0.35144 0.0
C49 C 0.06324 0.58871 0.34801 0.0
C50 C 0.07317 0.59275 0.33027 0.0
C51 C 0.05633 0.58015 0.31526 0.0
C52 C 0.02894 0.56279 0.31839 0.0
C53 C 0.01883 0.55853 0.33651 0.0
C54 C 0.84474 0.43305 0.34669 0.0
C55 C 0.85361 0.46021 0.35531 0.0
O56 O 0.17217 0.64993 0.27431 0.0
O57 O 0.10108 0.62424 0.4247 0.0
O58 O 0.87267 0.4653 0.36856 0.0
O59 O 0.96294 0.51107 0.22024 0.0
H60 H 0.18952 0.62684 0.27498 0.0
H61 H 0.15933 0.61312 0.24767 0.0
H62 H 0.17797 0.64606 0.23836 0.0
H63 H 0.193 0.62554 0.24063 0.0
H64 H 0.1485 0.59715 0.28069 0.0
H65 H 0.13991 0.66616 0.28284 0.0
H66 H 0.08507 0.54981 0.28118 0.0
H67 H 0.11582 0.55567 0.29119 0.0
H68 H 0.08995 0.55441 0.30546 0.0
H69 H 0.09966 0.66375 0.29088 0.0
H70 H 0.07074 0.63258 0.28483 0.0
H71 H 0.08179 0.63909 0.30816 0.0
H72 H 0.96766 0.54381 0.20541 0.0
H73 H 0.89901 0.49829 0.19765 0.0
H74 H 0.94939 0.51734 0.1805 0.0
H75 H 0.94287 0.49001 0.19163 0.0
H76 H 0.9709 0.55579 0.23689 0.0
H77 H 0.98386 0.48954 0.23979 0.0
H78 H 0.98997 0.57887 0.28177 0.0
H79 H 0.01855 0.59676 0.26761 0.0
H80 H 0.9864 0.58918 0.25915 0.0
H81 H 0.00708 0.48403 0.26434 0.0
H82 H 0.03469 0.51556 0.27138 0.0
H83 H 0.00609 0.49924 0.28571 0.0
H84 H 0.86196 0.4751 0.34409 0.0
H85 H 0.89291 0.51553 0.35877 0.0
H86 H 0.91039 0.45551 0.37542 0.0
H87 H 0.9501 0.55819 0.33849 0.0
H88 H 0.9266 0.55984 0.35361 0.0
H89 H 0.95973 0.56994 0.36151 0.0
H90 H 0.9537 0.46213 0.37525 0.0
H91 H 0.97612 0.4867 0.35925 0.0
H92 H 0.97734 0.49514 0.38299 0.0
H93 H 0.12765 0.61376 0.41453 0.0
H94 H 0.16716 0.65629 0.4231 0.0
H95 H 0.14498 0.6604 0.40803 0.0
H96 H 0.14614 0.6683 0.432 0.0
H97 H 0.06979 0.6384 0.41007 0.0
H98 H 0.08727 0.57531 0.4135 0.0
H99 H 0.03663 0.6212 0.36874 0.0
H100 H 0.01036 0.60356 0.38475 0.0
H101 H 0.03682 0.63656 0.39031 0.0
H102 H 0.0637 0.53566 0.39658 0.0
H103 H 0.03147 0.52778 0.38798 0.0
H104 H 0.05984 0.54395 0.37341 0.0
H105 H 0.05648 0.57506 0.26867 0.0
H106 H 0.97085 0.52174 0.29583 0.0
H107 H 0.95384 0.51417 0.32642 0.0
H108 H 0.99107 0.5473 0.38621 0.0
H109 H 0.07714 0.59914 0.359 0.0
H110 H 0.09421 0.60601 0.32846 0.0
H111 H 0.83616 0.41723 0.35724 0.0
H112 H 0.82968 0.42862 0.33583 0.0
H113 H 0.86199 0.43295 0.34036 0.0
C114 C 0.40274 0.86714 0.57747 0.0
C115 C 0.39429 0.85632 0.55795 0.0
C116 C 0.40404 0.89696 0.54142 0.0
C117 C 0.43147 0.90711 0.53949 0.0
C118 C 0.44805 0.93292 0.53305 0.0
C119 C 0.4372 0.94922 0.52883 0.0
C120 C 0.4096 0.93901 0.53049 0.0
C121 C 0.39334 0.91283 0.5365 0.0
C122 C 0.47733 0.94297 0.53112 0.0
C123 C 0.39736 0.95593 0.52636 0.0
C124 C 0.53949 0.1126 0.62454 0.0
C125 C 0.5228 0.09816 0.60841 0.0
C126 C 0.52108 0.07036 0.58273 0.0
C127 C 0.49851 0.06893 0.57458 0.0
C128 C 0.48713 0.0536 0.55876 0.0
C129 C 0.49874 0.03974 0.55076 0.0
C130 C 0.52185 0.04169 0.55862 0.0
C131 C 0.53266 0.05694 0.57457 0.0
C132 C 0.46242 0.05186 0.55075 0.0
C133 C 0.53487 0.02737 0.55032 0.0
C134 C 0.55252 0.14273 0.45115 0.0
C135 C 0.52661 0.13341 0.45731 0.0
C136 C 0.50943 0.10624 0.46024 0.0
C137 C 0.5186 0.08817 0.45721 0.0
C138 C 0.54447 0.0975 0.45038 0.0
C139 C 0.561 0.12472 0.44718 0.0
C140 C 0.48163 0.09693 0.46681 0.0
C141 C 0.55485 0.07881 0.44686 0.0
C142 C 0.38407 0.89106 0.39931 0.0
C143 C 0.41263 0.91317 0.3961 0.0
C144 C 0.42908 0.95764 0.40852 0.0
C145 C 0.41902 0.97315 0.41551 0.0
C146 C 0.433 0.99264 0.42888 0.0
C147 C 0.45783 0.9969 0.43509 0.0
C148 C 0.46894 0.98254 0.42711 0.0
C149 C 0.45445 0.96304 0.41387 0.0
C150 C 0.42083 0.00797 0.43686 0.0
C151 C 0.49578 0.98725 0.43301 0.0
C152 C 0.45505 0.97744 0.52391 0.0
C153 C 0.46832 0.99531 0.53818 0.0
C154 C 0.48588 0.0221 0.53475 0.0
C155 C 0.49035 0.03158 0.51655 0.0
C156 C 0.508 0.05839 0.5126 0.0
C157 C 0.51186 0.06761 0.49466 0.0
C158 C 0.49816 0.05038 0.47999 0.0
C159 C 0.50143 0.05968 0.46174 0.0
C160 C 0.48802 0.04187 0.44744 0.0
C161 C 0.47124 0.01488 0.45085 0.0
C162 C 0.46732 0.00529 0.46903 0.0
C163 C 0.45027 0.97829 0.47296 0.0
C164 C 0.44639 0.96907 0.49089 0.0
C165 C 0.45923 0.9865 0.5056 0.0
C166 C 0.47679 0.01373 0.50194 0.0
C167 C 0.48078 0.02314 0.48364 0.0
C168 C 0.6022 0.19677 0.47075 0.0
C169 C 0.57505 0.1881 0.46226 0.0
O170 O 0.38733 0.8723 0.54814 0.0
O171 O 0.41371 0.93748 0.39687 0.0
O172 O 0.56966 0.169 0.44896 0.0
O173 O 0.53207 0.08418 0.59846 0.0
H174 H 0.41097 0.85577 0.55108 0.0
H175 H 0.42051 0.88726 0.57712 0.0
H176 H 0.38656 0.86841 0.58456 0.0
H177 H 0.40782 0.85407 0.58546 0.0
H178 H 0.44028 0.89523 0.543 0.0
H179 H 0.3722 0.90488 0.53794 0.0
H180 H 0.48824 0.95769 0.54211 0.0
H181 H 0.48206 0.92676 0.53219 0.0
H182 H 0.48461 0.95307 0.51775 0.0
H183 H 0.37583 0.94555 0.5294 0.0
H184 H 0.40739 0.97455 0.53453 0.0
H185 H 0.4002 0.96153 0.51168 0.0
H186 H 0.50115 0.08627 0.61133 0.0
H187 H 0.52651 0.10295 0.63679 0.0
H188 H 0.55274 0.10404 0.62723 0.0
H189 H 0.55418 0.15249 0.61799 0.0
H190 H 0.48946 0.07948 0.58055 0.0
H191 H 0.55014 0.05827 0.58085 0.0
H192 H 0.46632 0.05949 0.53651 0.0
H193 H 0.44631 0.03082 0.55015 0.0
H194 H 0.45544 0.06335 0.55884 0.0
H195 H 0.55404 0.03282 0.55707 0.0
H196 H 0.52147 0.00564 0.55165 0.0
H197 H 0.53836 0.0319 0.53548 0.0
H198 H 0.56027 0.17981 0.47354 0.0
H199 H 0.51986 0.14741 0.45978 0.0
H200 H 0.58096 0.13219 0.44216 0.0
H201 H 0.47979 0.09048 0.48129 0.0
H202 H 0.47639 0.11279 0.46597 0.0
H203 H 0.46712 0.0796 0.45859 0.0
H204 H 0.57602 0.08945 0.44277 0.0
H205 H 0.55262 0.06703 0.45935 0.0
H206 H 0.54305 0.06468 0.43577 0.0
H207 H 0.42449 0.91131 0.40738 0.0
H208 H 0.38263 0.87133 0.39836 0.0
H209 H 0.37765 0.89319 0.41322 0.0
H210 H 0.37036 0.89198 0.38914 0.0
H211 H 0.39965 0.96917 0.41099 0.0
H212 H 0.46284 0.95189 0.40784 0.0
H213 H 0.41747 0.00387 0.45176 0.0
H214 H 0.43467 0.02958 0.43528 0.0
H215 H 0.40167 0.00279 0.43022 0.0
H216 H 0.50269 0.97621 0.42435 0.0
H217 H 0.51059 0.00875 0.43238 0.0
H218 H 0.49481 0.98089 0.44744 0.0
H219 H 0.46493 0.98824 0.5522 0.0
H220 H 0.51898 0.07257 0.52335 0.0
H221 H 0.52568 0.08846 0.49247 0.0
H222 H 0.49066 0.0491 0.43348 0.0
H223 H 0.43965 0.96395 0.46222 0.0
H224 H 0.43306 0.9481 0.49308 0.0
H225 H 0.61791 0.20516 0.46014 0.0
H226 H 0.60687 0.21194 0.48159 0.0
H227 H 0.60216 0.17943 0.47709 0.0
C228 C 0.50944 0.36585 0.73676 0.0
C229 C 0.53326 0.37766 0.72382 0.0
C230 C 0.51927 0.39632 0.69973 0.0
C231 C 0.53857 0.42325 0.69963 0.0
C232 C 0.53226 0.44239 0.69386 0.0
C233 C 0.50599 0.43431 0.68834 0.0
C234 C 0.48664 0.40699 0.68806 0.0
C235 C 0.49374 0.38827 0.69343 0.0
C236 C 0.55352 0.47125 0.69398 0.0
C237 C 0.45828 0.39758 0.68267 0.0
C238 C 0.44445 0.52477 0.79045 0.0
C239 C 0.44353 0.50955 0.77381 0.0
C240 C 0.4697 0.51346 0.74671 0.0
C241 C 0.44933 0.49099 0.73782 0.0
C242 C 0.45392 0.48207 0.72112 0.0
C243 C 0.47935 0.49589 0.71311 0.0
C244 C 0.4997 0.51887 0.72175 0.0
C245 C 0.49455 0.5274 0.73845 0.0
C246 C 0.43177 0.4575 0.71221 0.0
C247 C 0.52699 0.53404 0.71352 0.0
C248 C 0.43275 0.55815 0.6162 0.0
C249 C 0.416 0.5321 0.62212 0.0
C250 C 0.42563 0.5145 0.62431 0.0
C251 C 0.4527 0.52341 0.62085 0.0
C252 C 0.46938 0.54946 0.6143 0.0
C253 C 0.45901 0.56639 0.61178 0.0
C254 C 0.40694 0.48651 0.63052 0.0
C255 C 0.49825 0.55959 0.61033 0.0
C256 C 0.51128 0.38751 0.56387 0.0
C257 C 0.51876 0.41582 0.55856 0.0
C258 C 0.49142 0.43359 0.56962 0.0
C259 C 0.46599 0.42363 0.57671 0.0
C260 C 0.46079 0.43782 0.59003 0.0
C261 C 0.48154 0.46275 0.59608 0.0
C262 C 0.5068 0.47385 0.58785 0.0
C263 C 0.51149 0.45914 0.57466 0.0
C264 C 0.43351 0.42564 0.59831 0.0
C265 C 0.52912 0.50075 0.59358 0.0
C266 C 0.49829 0.45448 0.68423 0.0
C267 C 0.49386 0.4669 0.69907 0.0
C268 C 0.4851 0.485 0.69649 0.0
C269 C 0.48057 0.49104 0.67857 0.0
C270 C 0.47166 0.5091 0.67548 0.0
C271 C 0.4665 0.51427 0.6578 0.0
C272 C 0.46984 0.5014 0.64254 0.0
C273 C 0.46371 0.50574 0.62455 0.0
C274 C 0.4677 0.49293 0.60969 0.0
C275 C 0.47767 0.4758 0.6123 0.0
C276 C 0.4836 0.47095 0.63018 0.0
C277 C 0.49342 0.45359 0.63328 0.0
C278 C 0.49866 0.4485 0.65093 0.0
C279 C 0.49408 0.46037 0.66619 0.0
C280 C 0.48487 0.47848 0.66337 0.0
C281 C 0.47951 0.48369 0.64535 0.0
C282 C 0.4282 0.60842 0.63592 0.0
C283 C 0.41033 0.58059 0.62813 0.0
O284 O 0.52479 0.37781 0.70608 0.0
O285 O 0.49612 0.41794 0.55827 0.0
O286 O 0.424 0.57566 0.61461 0.0
O287 O 0.46625 0.52209 0.76324 0.0
H288 H 0.5474 0.39829 0.72841 0.0
H289 H 0.4997 0.37806 0.73651 0.0
H290 H 0.49474 0.34528 0.7325 0.0
H291 H 0.5159 0.36559 0.75105 0.0
H292 H 0.55853 0.42925 0.70411 0.0
H293 H 0.4791 0.36732 0.69346 0.0
H294 H 0.54963 0.48165 0.70526 0.0
H295 H 0.5736 0.47391 0.69601 0.0
H296 H 0.55318 0.48081 0.68092 0.0
H297 H 0.44514 0.37601 0.6851 0.0
H298 H 0.45056 0.40863 0.69051 0.0
H299 H 0.4573 0.4015 0.66791 0.0
H300 H 0.43673 0.48818 0.77621 0.0
H301 H 0.44379 0.51213 0.80231 0.0
H302 H 0.46585 0.54032 0.79268 0.0
H303 H 0.41474 0.53422 0.78564 0.0
H304 H 0.42988 0.48012 0.74392 0.0
H305 H 0.51009 0.54478 0.74533 0.0
H306 H 0.42858 0.46202 0.69798 0.0
H307 H 0.43733 0.44187 0.71144 0.0
H308 H 0.41284 0.44954 0.71983 0.0
H309 H 0.54023 0.55239 0.72136 0.0
H310 H 0.53608 0.52124 0.71321 0.0
H311 H 0.52559 0.53946 0.69916 0.0
H312 H 0.40528 0.56642 0.6397 0.0
H313 H 0.39541 0.52556 0.62494 0.0
H314 H 0.47161 0.58646 0.60696 0.0
H315 H 0.41158 0.48418 0.64491 0.0
H316 H 0.38591 0.4815 0.6298 0.0
H317 H 0.40946 0.47211 0.62199 0.0
H318 H 0.50903 0.58099 0.60676 0.0
H319 H 0.508 0.55653 0.62242 0.0
H320 H 0.5 0.54822 0.59872 0.0
H321 H 0.5329 0.42888 0.56932 0.0
H322 H 0.52907 0.38519 0.56369 0.0
H323 H 0.50298 0.38326 0.57795 0.0
H324 H 0.49612 0.37275 0.55438 0.0
H325 H 0.45051 0.40411 0.57241 0.0
H326 H 0.53091 0.46741 0.56851 0.0
H327 H 0.43459 0.42164 0.61306 0.0
H328 H 0.42601 0.43975 0.59737 0.0
H329 H 0.41917 0.40677 0.59143 0.0
H330 H 0.54671 0.50776 0.58461 0.0
H331 H 0.52237 0.51551 0.59331 0.0
H332 H 0.5351 0.49974 0.60787 0.0
H333 H 0.49675 0.46199 0.7129 0.0
H334 H 0.46847 0.51933 0.68672 0.0
H335 H 0.45966 0.52834 0.65626 0.0
H336 H 0.46294 0.49629 0.59594 0.0
H337 H 0.49703 0.44358 0.6221 0.0
H338 H 0.50614 0.43494 0.65248 0.0
H339 H 0.43402 0.62359 0.62501 0.0
H340 H 0.41784 0.61276 0.64698 0.0
H341 H 0.44644 0.6098 0.64181 0.0
C342 C 0.15828 0.5086 0.91853 0.0
C343 C 0.17264 0.5277 0.90274 0.0
C344 C 0.13841 0.51073 0.87911 0.0
C345 C 0.13181 0.53079 0.87826 0.0
C346 C 0.10716 0.52546 0.87129 0.0
C347 C 0.08871 0.49951 0.86523 0.0
C348 C 0.09559 0.47939 0.86577 0.0
C349 C 0.12062 0.48546 0.87239 0.0
C350 C 0.10072 0.54751 0.87055 0.0
C351 C 0.07631 0.45135 0.85977 0.0
C352 C 0.92027 0.42816 0.95454 0.0
C353 C 0.93313 0.42817 0.93694 0.0
C354 C 0.96225 0.45865 0.91356 0.0
C355 C 0.96675 0.43973 0.90479 0.0
C356 C 0.98435 0.44683 0.89004 0.0
C357 C 0.99786 0.47341 0.88394 0.0
C358 C 0.99335 0.49251 0.89264 0.0
C359 C 0.97547 0.48482 0.90731 0.0
C360 C 0.98868 0.42593 0.88105 0.0
C361 C 0.00753 0.52101 0.88646 0.0
C362 C 0.90405 0.44403 0.78144 0.0
C363 C 0.91048 0.42529 0.78785 0.0
C364 C 0.93691 0.43248 0.79134 0.0
C365 C 0.95718 0.45915 0.78879 0.0
C366 C 0.95076 0.4778 0.78161 0.0
C367 C 0.92421 0.46983 0.77775 0.0
C368 C 0.94308 0.41169 0.7981 0.0
C369 C 0.97182 0.5063 0.77853 0.0
C370 C 0.14338 0.48999 0.72875 0.0
C371 C 0.12506 0.50166 0.72775 0.0
C372 C 0.08191 0.48127 0.74281 0.0
C373 C 0.06357 0.45705 0.75052 0.0
C374 C 0.04608 0.45572 0.76418 0.0
C375 C 0.04662 0.47922 0.7699 0.0
C376 C 0.06426 0.50365 0.76148 0.0
C377 C 0.08183 0.50445 0.74802 0.0
C378 C 0.02734 0.42928 0.77272 0.0
C379 C 0.0647 0.52889 0.76685 0.0
C380 C 0.06173 0.49306 0.85933 0.0
C381 C 0.04317 0.48834 0.87302 0.0
C382 C 0.01707 0.48108 0.86867 0.0
C383 C 0.00919 0.47891 0.85012 0.0
C384 C 0.98323 0.47219 0.84528 0.0
C385 C 0.97539 0.46917 0.827 0.0
C386 C 0.99305 0.47218 0.81287 0.0
C387 C 0.98486 0.46774 0.7943 0.0
C388 C 0.0029 0.47076 0.78064 0.0
C389 C 0.02907 0.47817 0.78497 0.0
C390 C 0.0377 0.48291 0.80344 0.0
C391 C 0.06394 0.49054 0.80828 0.0
C392 C 0.07205 0.4945 0.82654 0.0
C393 C 0.05409 0.49042 0.84068 0.0
C394 C 0.02767 0.4832 0.83609 0.0
C395 C 0.01952 0.4796 0.81744 0.0
C396 C 0.84711 0.44195 0.79718 0.0
C397 C 0.85861 0.42442 0.7917 0.0
O398 O 0.16185 0.51519 0.88615 0.0
O399 O 0.0992 0.48143 0.73033 0.0
O400 O 0.87853 0.43779 0.77897 0.0
O401 O 0.94561 0.45247 0.9281 0.0
H402 H 0.17035 0.54542 0.90442 0.0
H403 H 0.13696 0.50262 0.91837 0.0
H404 H 0.15998 0.4905 0.91724 0.0
H405 H 0.16679 0.51834 0.93191 0.0
H406 H 0.14596 0.55066 0.8828 0.0
H407 H 0.1261 0.47024 0.87293 0.0
H408 H 0.08492 0.54353 0.88062 0.0
H409 H 0.11821 0.56718 0.87373 0.0
H410 H 0.09306 0.54827 0.85675 0.0
H411 H 0.08374 0.43752 0.86277 0.0
H412 H 0.057 0.44407 0.86674 0.0
H413 H 0.07274 0.45092 0.84481 0.0
H414 H 0.92053 0.41133 0.92754 0.0
H415 H 0.94211 0.42092 0.97419 0.0
H416 H 0.91862 0.44663 0.9546 0.0
H417 H 0.89848 0.41428 0.95219 0.0
H418 H 0.95668 0.41936 0.90938 0.0
H419 H 0.97193 0.4993 0.91413 0.0
H420 H 0.98404 0.42473 0.8662 0.0
H421 H 0.00981 0.43151 0.88239 0.0
H422 H 0.97625 0.406 0.88717 0.0
H423 H 0.00172 0.53346 0.89455 0.0
H424 H 0.02926 0.52941 0.88777 0.0
H425 H 0.00312 0.52201 0.87177 0.0
H426 H 0.8668 0.42074 0.80447 0.0
H427 H 0.89479 0.40508 0.79016 0.0
H428 H 0.91896 0.484 0.77254 0.0
H429 H 0.9481 0.41492 0.81291 0.0
H430 H 0.92603 0.39129 0.79625 0.0
H431 H 0.96047 0.41325 0.79077 0.0
H432 H 0.96335 0.51871 0.774 0.0
H433 H 0.98331 0.51489 0.79135 0.0
H434 H 0.98585 0.50719 0.76792 0.0
H435 H 0.13135 0.51665 0.73897 0.0
H436 H 0.16435 0.50583 0.72697 0.0
H437 H 0.14146 0.48067 0.74234 0.0
H438 H 0.13815 0.47463 0.71796 0.0
H439 H 0.06354 0.43923 0.74616 0.0
H440 H 0.09532 0.52311 0.74154 0.0
H441 H 0.03035 0.43044 0.7878 0.0
H442 H 0.00658 0.42426 0.77011 0.0
H443 H 0.0301 0.41302 0.76722 0.0
H444 H 0.0782 0.54591 0.7581 0.0
H445 H 0.04443 0.52603 0.76586 0.0
H446 H 0.07126 0.53386 0.78132 0.0
H447 H 0.04896 0.48964 0.8873 0.0
H448 H 0.96866 0.46918 0.85558 0.0
H449 H 0.95517 0.46406 0.82412 0.0
H450 H 0.99638 0.46688 0.76646 0.0
H451 H 0.07852 0.49349 0.79801 0.0
H452 H 0.09248 0.50041 0.82945 0.0
H453 H 0.83887 0.44687 0.78505 0.0
H454 H 0.83118 0.43172 0.80749 0.0
H455 H 0.86291 0.46074 0.80334 0.0
C456 C 0.49619 0.87379 0.91178 0.0
C457 C 0.48864 0.86017 0.93051 0.0
C458 C 0.51805 0.8976 0.95024 0.0
C459 C 0.50083 0.90734 0.95394 0.0
C460 C 0.51062 0.93329 0.96043 0.0
C461 C 0.53818 0.9499 0.96312 0.0
C462 C 0.55545 0.93979 0.96021 0.0
C463 C 0.54505 0.91357 0.95403 0.0
C464 C 0.49158 0.94326 0.96385 0.0
C465 C 0.58495 0.95703 0.96293 0.0
C466 C 0.56879 0.03556 0.86406 0.0
C467 C 0.58676 0.06413 0.87071 0.0
C468 C 0.57339 0.06072 0.90269 0.0
C469 C 0.59442 0.05953 0.91114 0.0
C470 C 0.59137 0.04819 0.92852 0.0
C471 C 0.56683 0.03793 0.93765 0.0
C472 C 0.54613 0.04052 0.92965 0.0
C473 C 0.54981 0.05219 0.9123 0.0
C474 C 0.61408 0.04637 0.9369 0.0
C475 C 0.5198 0.02998 0.93911 0.0
C476 C 0.60485 0.14741 0.03157 0.0
C477 C 0.62414 0.13992 0.02947 0.0
C478 C 0.61686 0.11305 0.02846 0.0
C479 C 0.58979 0.09339 0.02964 0.0
C480 C 0.57053 0.1009 0.03288 0.0
C481 C 0.5784 0.12791 0.03397 0.0
C482 C 0.63796 0.10566 0.02558 0.0
C483 C 0.54156 0.08041 0.03451 0.0
C484 C 0.55962 0.91267 0.09591 0.0
C485 C 0.54621 0.92933 0.09803 0.0
C486 C 0.56615 0.9728 0.08365 0.0
C487 C 0.59065 0.99076 0.07613 0.0
C488 C 0.59249 0.0074 0.06167 0.0
C489 C 0.56923 0.00644 0.05498 0.0
C490 C 0.54456 0.98946 0.06335 0.0
C491 C 0.54325 0.97266 0.07756 0.0
C492 C 0.61918 0.02548 0.05323 0.0
C493 C 0.51955 0.98871 0.05702 0.0
C494 C 0.54897 0.97848 0.96703 0.0
C495 C 0.55304 0.99496 0.95209 0.0
C496 C 0.56198 0.02192 0.95445 0.0
C497 C 0.56675 0.0329 0.97228 0.0
C498 C 0.57514 0.05982 0.97518 0.0
C499 C 0.57973 0.07039 0.99281 0.0
C500 C 0.57649 0.05452 0.0082 0.0
C501 C 0.58142 0.06516 0.02617 0.0
C502 C 0.57851 0.04899 0.04112 0.0
C503 C 0.57063 0.02222 0.03865 0.0
C504 C 0.56511 0.01107 0.02082 0.0
C505 C 0.55675 0.98411 0.01785 0.0
C506 C 0.55115 0.97329 0.00027 0.0
C507 C 0.55432 0.98916 0.98496 0.0
C508 C 0.56307 0.01646 0.98759 0.0
C509 C 0.56817 0.02735 0.00555 0.0
C510 C 0.61655 0.20346 0.00751 0.0
C511 C 0.62997 0.1926 0.02 0.0
O512 O 0.5095 0.8732 0.94279 0.0
O513 O 0.56529 0.95594 0.09676 0.0
O514 O 0.61105 0.17318 0.03118 0.0
O515 O 0.57504 0.06965 0.88529 0.0
H516 H 0.47088 0.86051 0.93556 0.0
H517 H 0.49998 0.89441 0.91296 0.0
H518 H 0.51436 0.87446 0.90649 0.0
H519 H 0.47979 0.86297 0.90178 0.0
H520 H 0.47975 0.89498 0.95179 0.0
H521 H 0.55814 0.90577 0.95137 0.0
H522 H 0.49466 0.95835 0.9534 0.0
H523 H 0.47057 0.92709 0.96318 0.0
H524 H 0.49544 0.95298 0.97751 0.0
H525 H 0.59565 0.94599 0.96055 0.0
H526 H 0.59276 0.97407 0.95336 0.0
H527 H 0.58922 0.96521 0.97707 0.0
H528 H 0.60595 0.0661 0.87496 0.0
H529 H 0.57769 0.03131 0.852 0.0
H530 H 0.56638 0.02145 0.8751 0.0
H531 H 0.54888 0.03219 0.86023 0.0
H532 H 0.61325 0.06733 0.90426 0.0
H533 H 0.53386 0.05364 0.90581 0.0
H534 H 0.61788 0.05442 0.95109 0.0
H535 H 0.60875 0.02523 0.93771 0.0
H536 H 0.63259 0.05732 0.92884 0.0
H537 H 0.50631 0.03506 0.93166 0.0
H538 H 0.51006 0.00807 0.9402 0.0
H539 H 0.52285 0.03811 0.95325 0.0
H540 H 0.639 0.18414 0.0107 0.0
H541 H 0.64483 0.15502 0.02847 0.0
H542 H 0.56376 0.13395 0.03595 0.0
H543 H 0.63524 0.09619 0.01192 0.0
H544 H 0.65826 0.12314 0.02637 0.0
H545 H 0.63604 0.09098 0.03602 0.0
H546 H 0.52915 0.08945 0.03758 0.0
H547 H 0.53451 0.06901 0.02149 0.0
H548 H 0.53878 0.06613 0.04552 0.0
H549 H 0.53149 0.92338 0.08667 0.0
H550 H 0.54472 0.89119 0.09668 0.0
H551 H 0.56954 0.9166 0.08237 0.0
H552 H 0.57477 0.91768 0.10681 0.0
H553 H 0.60825 0.99099 0.0812 0.0
H554 H 0.52439 0.95945 0.08392 0.0
H555 H 0.61846 0.02145 0.0383 0.0
H556 H 0.62421 0.04644 0.05496 0.0
H557 H 0.63518 0.02303 0.05952 0.0
H558 H 0.50261 0.97684 0.06631 0.0
H559 H 0.52278 0.00916 0.05618 0.0
H560 H 0.51424 0.97986 0.04309 0.0
H561 H 0.54915 0.98663 0.93834 0.0
H562 H 0.57809 0.07296 0.96384 0.0
H563 H 0.586 0.09123 0.9942 0.0
H564 H 0.58263 0.05739 0.05483 0.0
H565 H 0.55426 0.97098 0.02908 0.0
H566 H 0.54456 0.95239 0.9988 0.0
H567 H 0.63143 0.21935 0.99859 0.0
H568 H 0.60176 0.18729 0.99861 0.0
H569 H 0.60614 0.21159 0.01566 0.0
C570 C 0.66649 0.52755 0.07457 0.0
C571 C 0.66143 0.50739 0.08971 0.0
C572 C 0.64397 0.52344 0.11361 0.0
C573 C 0.61717 0.50371 0.11398 0.0
C574 C 0.5979 0.50939 0.12049 0.0
C575 C 0.60564 0.5354 0.12654 0.0
C576 C 0.6328 0.55515 0.12656 0.0
C577 C 0.65167 0.5487 0.12043 0.0
C578 C 0.56924 0.48769 0.12068 0.0
C579 C 0.64187 0.58326 0.13254 0.0
C580 C 0.51442 0.6033 0.03008 0.0
C581 C 0.52734 0.60452 0.04794 0.0
C582 C 0.52367 0.57638 0.07377 0.0
C583 C 0.54789 0.59507 0.08185 0.0
C584 C 0.55769 0.58863 0.09736 0.0
C585 C 0.54316 0.56292 0.10491 0.0
C586 C 0.51874 0.54408 0.09691 0.0
C587 C 0.50923 0.55115 0.08149 0.0
C588 C 0.58376 0.60925 0.10561 0.0
C589 C 0.5029 0.51645 0.10458 0.0
C590 C 0.48488 0.60663 0.20461 0.0
C591 C 0.51085 0.62312 0.19852 0.0
C592 C 0.52789 0.61298 0.19566 0.0
C593 C 0.51849 0.58567 0.19862 0.0
C594 C 0.49256 0.56924 0.2054 0.0
C595 C 0.47619 0.58009 0.20857 0.0
C596 C 0.5558 0.6314 0.18922 0.0
C597 C 0.48196 0.54012 0.20886 0.0
C598 C 0.66327 0.54229 0.26011 0.0
C599 C 0.63335 0.53029 0.2622 0.0
C600 C 0.61155 0.55244 0.24836 0.0
C601 C 0.61904 0.5774 0.24121 0.0
C602 C 0.60429 0.58039 0.22718 0.0
C603 C 0.58107 0.55785 0.22058 0.0
C604 C 0.57254 0.53273 0.22855 0.0
C605 C 0.588 0.53025 0.24232 0.0
C606 C 0.61386 0.60753 0.21914 0.0
C607 C 0.54735 0.50849 0.22231 0.0
C608 C 0.58525 0.54242 0.1316 0.0
C609 C 0.5722 0.54722 0.11734 0.0
C610 C 0.55409 0.55571 0.12084 0.0
C611 C 0.54848 0.55931 0.13911 0.0
C612 C 0.53044 0.56793 0.14311 0.0
C613 C 0.52575 0.57231 0.16111 0.0
C614 C 0.53918 0.56856 0.17579 0.0
C615 C 0.53551 0.57419 0.19408 0.0
C616 C 0.54896 0.56996 0.20835 0.0
C617 C 0.56633 0.5605 0.20489 0.0
C618 C 0.5705 0.55504 0.18668 0.0
C619 C 0.58816 0.54589 0.18267 0.0
C620 C 0.5926 0.54119 0.16468 0.0
C621 C 0.5799 0.54587 0.14998 0.0
C622 C 0.5616 0.55456 0.15373 0.0
C623 C 0.55694 0.5592 0.17209 0.0
C624 C 0.43485 0.61183 0.18573 0.0
C625 C 0.46276 0.62966 0.19337 0.0
O626 O 0.6628 0.51872 0.10672 0.0
O627 O 0.62738 0.55048 0.26115 0.0
O628 O 0.46787 0.6159 0.20672 0.0
O629 O 0.51386 0.58185 0.0585 0.0
H630 H 0.64143 0.48981 0.08755 0.0
H631 H 0.65108 0.53343 0.07496 0.0
H632 H 0.68622 0.5456 0.07644 0.0
H633 H 0.66565 0.51876 0.06088 0.0
H634 H 0.61128 0.48385 0.10931 0.0
H635 H 0.67249 0.56367 0.12024 0.0
H636 H 0.55814 0.49179 0.11004 0.0
H637 H 0.56687 0.46785 0.11792 0.0
H638 H 0.5602 0.48726 0.13414 0.0
H639 H 0.66324 0.59685 0.12978 0.0
H640 H 0.63022 0.59087 0.12538 0.0
H641 H 0.6385 0.58369 0.14746 0.0
H642 H 0.53377 0.62315 0.05592 0.0
H643 H 0.54138 0.60428 0.01074 0.0
H644 H 0.4934 0.58636 0.03106 0.0
H645 H 0.50882 0.61918 0.03097 0.0
H646 H 0.55933 0.61472 0.07612 0.0
H647 H 0.4906 0.53685 0.0752 0.0
H648 H 0.59842 0.60248 0.10442 0.0
H649 H 0.59191 0.62881 0.09878 0.0
H650 H 0.58124 0.61179 0.12042 0.0
H651 H 0.48437 0.50401 0.09671 0.0
H652 H 0.51506 0.50666 0.10442 0.0
H653 H 0.49773 0.51752 0.11907 0.0
H654 H 0.47675 0.63478 0.18169 0.0
H655 H 0.51774 0.6439 0.19604 0.0
H656 H 0.45618 0.56768 0.21354 0.0
H657 H 0.55763 0.62701 0.17467 0.0
H658 H 0.56128 0.65257 0.19032 0.0
H659 H 0.57014 0.62829 0.19733 0.0
H660 H 0.46083 0.52971 0.21306 0.0
H661 H 0.48394 0.53045 0.1963 0.0
H662 H 0.49379 0.53772 0.21984 0.0
H663 H 0.62386 0.51584 0.25074 0.0
H664 H 0.66867 0.52651 0.2606 0.0
H665 H 0.66969 0.55249 0.24669 0.0
H666 H 0.67405 0.55697 0.27118 0.0
H667 H 0.63704 0.59444 0.24625 0.0
H668 H 0.58164 0.51105 0.24841 0.0
H669 H 0.61613 0.60689 0.20408 0.0
H670 H 0.59893 0.61368 0.22165 0.0
H671 H 0.63308 0.62276 0.22512 0.0
H672 H 0.54195 0.49108 0.23122 0.0
H673 H 0.53076 0.51269 0.2222 0.0
H674 H 0.54985 0.50332 0.20809 0.0
H675 H 0.5768 0.54507 0.10326 0.0
H676 H 0.51981 0.57151 0.13235 0.0
H677 H 0.51166 0.57896 0.16334 0.0
H678 H 0.54625 0.57456 0.22232 0.0
H679 H 0.59887 0.54236 0.19339 0.0
H680 H 0.60639 0.53416 0.16242 0.0
H681 H 0.41986 0.60592 0.19677 0.0
H682 H 0.43038 0.6223 0.17483 0.0
H683 H 0.43339 0.59362 0.17968 0.0
In684 In 0.62843 0.4176 0.41025 0.0
O685 O 0.67348 0.44088 0.41464 0.0
O686 O 0.65794 0.4148 0.39172 0.0
C687 C 0.60943 0.43204 0.43886 0.0
C688 C 0.61782 0.44074 0.38224 0.0
C689 C 0.60959 0.36642 0.41941 0.0
O690 O 0.63351 0.43833 0.43775 0.0
O691 O 0.59526 0.41922 0.4253 0.0
O692 O 0.6027 0.37276 0.4047 0.0
O693 O 0.62566 0.38571 0.42917 0.0
C694 C 0.67818 0.4312 0.40058 0.0
O695 O 0.6053 0.41585 0.38446 0.0
O696 O 0.63499 0.45369 0.39439 0.0
In697 In 0.21904 0.61259 0.57746 0.0
O698 O 0.24181 0.5904 0.57269 0.0
O699 O 0.25154 0.61556 0.59605 0.0
C700 C 0.18787 0.59932 0.54742 0.0
C701 C 0.18554 0.58777 0.60533 0.0
C702 C 0.25044 0.66504 0.57136 0.0
O703 O 0.20653 0.59435 0.5489 0.0
O704 O 0.18439 0.61009 0.56133 0.0
O705 O 0.23365 0.65638 0.58414 0.0
O706 O 0.25109 0.64734 0.5618 0.0
C707 C 0.25606 0.5999 0.58686 0.0
O708 O 0.19725 0.61265 0.60335 0.0
O709 O 0.19006 0.57545 0.59289 0.0
In710 In 0.63751 0.23091 0.7414 0.0
O711 O 0.68232 0.25417 0.73559 0.0
O712 O 0.66851 0.26052 0.76091 0.0
C713 C 0.6177 0.20078 0.71103 0.0
C714 C 0.62438 0.19334 0.76713 0.0
C715 C 0.61679 0.26296 0.73756 0.0
O716 O 0.6421 0.21746 0.71278 0.0
O717 O 0.60372 0.19902 0.72469 0.0
O718 O 0.61265 0.24864 0.75148 0.0
O719 O 0.63142 0.26119 0.72563 0.0
C720 C 0.68806 0.2664 0.75072 0.0
O721 O 0.61388 0.20769 0.76619 0.0
O722 O 0.64143 0.19774 0.75493 0.0
In723 In 0.42236 0.61605 0.91038 0.0
O724 O 0.38168 0.59535 0.92425 0.0
O725 O 0.38319 0.60208 0.89559 0.0
C726 C 0.45112 0.60897 0.93653 0.0
C727 C 0.43125 0.5964 0.87944 0.0
C728 C 0.43711 0.66771 0.91441 0.0
O729 O 0.42658 0.59325 0.93456 0.0
O730 O 0.46098 0.6277 0.92518 0.0
O731 O 0.44726 0.65974 0.90255 0.0
O732 O 0.4195 0.64965 0.92411 0.0
C733 C 0.36901 0.59303 0.90966 0.0
O734 O 0.43493 0.61962 0.88057 0.0
O735 O 0.42364 0.5832 0.89408 0.0
In736 In 0.81616 0.41274 0.07636 0.0
O737 O 0.82587 0.4083 0.10605 0.0
O738 O 0.85297 0.44313 0.09172 0.0
C739 C 0.77504 0.36293 0.07197 0.0
C740 C 0.79029 0.44014 0.07871 0.0
C741 C 0.8486 0.41753 0.04841 0.0
O742 O 0.7956 0.36769 0.08082 0.0
O743 O 0.7753 0.38312 0.0656 0.0
O744 O 0.84216 0.43484 0.05167 0.0
O745 O 0.83889 0.39818 0.05927 0.0
C746 C 0.84707 0.43042 0.10656 0.0
O747 O 0.79935 0.43715 0.06373 0.0
O748 O 0.79466 0.42969 0.0924 0.0
In749 In 0.43083 0.82075 0.24517 0.0
O750 O 0.45306 0.798 0.24992 0.0
O751 O 0.42847 0.78874 0.22631 0.0
C752 C 0.44326 0.85195 0.27514 0.0
C753 C 0.45585 0.85527 0.21787 0.0
C754 C 0.37859 0.78868 0.25122 0.0
O755 O 0.44887 0.83369 0.27375 0.0
O756 O 0.43226 0.85499 0.26119 0.0
O757 O 0.38703 0.8046 0.2379 0.0
O758 O 0.3964 0.78922 0.2613 0.0
C759 C 0.44392 0.78404 0.23558 0.0
O760 O 0.43097 0.84335 0.21967 0.0
O761 O 0.46804 0.85032 0.23015 0.0
H762 H 0.23542 0.64303 0.27299 0.0
H763 H 0.20509 0.69396 0.25659 0.0
H764 H 0.28054 0.67981 0.26985 0.0
H765 H 0.25046 0.73115 0.25373 0.0
H766 H 0.33612 0.77947 0.22979 0.0
H767 H 0.28974 0.74535 0.2342 0.0
H768 H 0.31096 0.72169 0.28458 0.0
H769 H 0.3571 0.75523 0.28 0.0
C770 C 0.23845 0.66225 0.26901 0.0
C771 C 0.21676 0.66578 0.26543 0.0
C772 C 0.26429 0.68335 0.26724 0.0
C773 C 0.26909 0.70849 0.26172 0.0
C774 C 0.2474 0.71201 0.25796 0.0
C775 C 0.22147 0.69083 0.25975 0.0
C776 C 0.33076 0.76709 0.24186 0.0
C777 C 0.35023 0.76983 0.25445 0.0
C778 C 0.30422 0.74765 0.24444 0.0
C779 C 0.29673 0.73063 0.25965 0.0
C780 C 0.31615 0.73412 0.27254 0.0
C781 C 0.34258 0.75344 0.26995 0.0
H782 H 0.55757 0.21897 0.4782 0.0
H783 H 0.59314 0.21136 0.42845 0.0
H784 H 0.56185 0.2604 0.467 0.0
H785 H 0.5975 0.25292 0.41723 0.0
H786 H 0.58429 0.3212 0.3984 0.0
H787 H 0.57187 0.27594 0.40768 0.0
H788 H 0.60199 0.30457 0.46211 0.0
H789 H 0.61432 0.34937 0.45293 0.0
C790 C 0.56581 0.22591 0.46471 0.0
C791 C 0.57468 0.21176 0.4541 0.0
C792 C 0.5684 0.24967 0.45835 0.0
C793 C 0.58004 0.25989 0.44125 0.0
C794 C 0.58813 0.24533 0.43034 0.0
C795 C 0.58568 0.22159 0.43677 0.0
C796 C 0.58798 0.31767 0.41237 0.0
C797 C 0.60032 0.33877 0.42493 0.0
C798 C 0.581 0.29186 0.41765 0.0
C799 C 0.58589 0.28674 0.43563 0.0
C800 C 0.59764 0.30782 0.44824 0.0
C801 C 0.60487 0.33352 0.44293 0.0
H802 H 0.40125 0.59457 0.59381 0.0
H803 H 0.36329 0.56315 0.64574 0.0
H804 H 0.36206 0.59583 0.58325 0.0
H805 H 0.32418 0.56447 0.63522 0.0
H806 H 0.28196 0.61106 0.61945 0.0
H807 H 0.31736 0.6028 0.62852 0.0
H808 H 0.31267 0.56669 0.57586 0.0
H809 H 0.27691 0.57493 0.56671 0.0
C810 C 0.38429 0.58736 0.60279 0.0
C811 C 0.38514 0.57836 0.62051 0.0
C812 C 0.36188 0.58807 0.59675 0.0
C813 C 0.3401 0.58027 0.60842 0.0
C814 C 0.34074 0.57074 0.62597 0.0
C815 C 0.36302 0.56983 0.63195 0.0
C816 C 0.28834 0.60121 0.60982 0.0
C817 C 0.27672 0.59367 0.59236 0.0
C818 C 0.3085 0.59633 0.61507 0.0
C819 C 0.3177 0.58402 0.60293 0.0
C820 C 0.306 0.57631 0.58546 0.0
C821 C 0.28551 0.58091 0.58027 0.0
H822 H 0.83557 0.4141 0.75738 0.0
H823 H 0.8324 0.37643 0.80889 0.0
H824 H 0.79639 0.37351 0.74673 0.0
H825 H 0.79356 0.33578 0.79821 0.0
H826 H 0.70439 0.28956 0.78409 0.0
H827 H 0.74792 0.32545 0.79287 0.0
H828 H 0.77693 0.32558 0.73845 0.0
H829 H 0.73288 0.28944 0.72954 0.0
C830 C 0.82686 0.39691 0.76622 0.0
C831 C 0.83707 0.39835 0.78392 0.0
C832 C 0.8045 0.37366 0.76012 0.0
C833 C 0.7918 0.3515 0.77168 0.0
C834 C 0.80272 0.35263 0.78907 0.0
C835 C 0.82504 0.37582 0.79515 0.0
C836 C 0.72008 0.29704 0.77401 0.0
C837 C 0.71521 0.28677 0.7561 0.0
C838 C 0.74511 0.3175 0.7791 0.0
C839 C 0.76591 0.32831 0.76637 0.0
C840 C 0.76123 0.31773 0.74851 0.0
C841 C 0.7361 0.297 0.74344 0.0
H842 H 0.52212 0.83981 0.92696 0.0
H843 H 0.43923 0.81623 0.92886 0.0
H844 H 0.51021 0.79335 0.92321 0.0
H845 H 0.4273 0.76998 0.92485 0.0
H846 H 0.41638 0.68867 0.93804 0.0
H847 H 0.42957 0.73521 0.94222 0.0
H848 H 0.4892 0.75707 0.9004 0.0
H849 H 0.4762 0.71041 0.89639 0.0
C850 C 0.50139 0.82465 0.92669 0.0
C851 C 0.48159 0.83152 0.92862 0.0
C852 C 0.49456 0.79813 0.92438 0.0
C853 C 0.46781 0.778 0.92388 0.0
C854 C 0.44807 0.78497 0.92555 0.0
C855 C 0.45488 0.81143 0.92781 0.0
C856 C 0.43232 0.70341 0.92975 0.0
C857 C 0.44522 0.69593 0.91686 0.0
C858 C 0.43979 0.73005 0.93208 0.0
C859 C 0.46037 0.74979 0.9216 0.0
C860 C 0.47344 0.74232 0.9088 0.0
C861 C 0.46589 0.71562 0.90643 0.0
H862 H 0.7105 0.52868 0.10671 0.0
H863 H 0.65864 0.46696 0.06905 0.0
H864 H 0.74323 0.51437 0.1037 0.0
H865 H 0.69153 0.45289 0.06587 0.0
H866 H 0.76828 0.45375 0.05076 0.0
H867 H 0.73817 0.47144 0.05328 0.0
H868 H 0.74554 0.47307 0.11221 0.0
H869 H 0.77546 0.45528 0.10972 0.0
C870 C 0.70598 0.51188 0.09795 0.0
C871 C 0.68167 0.49842 0.0885 0.0
C872 C 0.72474 0.50378 0.09618 0.0
C873 C 0.71986 0.4825 0.08459 0.0
C874 C 0.69586 0.46945 0.07482 0.0
C875 C 0.67697 0.47732 0.07677 0.0
C876 C 0.76367 0.45816 0.06422 0.0
C877 C 0.77412 0.45308 0.08004 0.0
C878 C 0.74634 0.46811 0.06567 0.0
C879 C 0.73945 0.47349 0.08295 0.0
C880 C 0.75064 0.46926 0.09872 0.0
C881 C 0.76767 0.45899 0.09729 0.0
H882 H 0.34125 0.83897 0.56388 0.0
H883 H 0.39572 0.81037 0.55459 0.0
H884 H 0.30465 0.79311 0.56622 0.0
H885 H 0.3595 0.76485 0.55717 0.0
H886 H 0.28708 0.68684 0.54439 0.0
H887 H 0.32001 0.73332 0.54014 0.0
H888 H 0.28909 0.75432 0.58701 0.0
H889 H 0.25566 0.70754 0.59111 0.0
C890 C 0.34531 0.82287 0.56216 0.0
C891 C 0.37121 0.82819 0.55862 0.0
C892 C 0.32445 0.79668 0.56365 0.0
C893 C 0.32915 0.77537 0.56169 0.0
C894 C 0.35511 0.78079 0.55834 0.0
C895 C 0.37588 0.80686 0.5569 0.0
C896 C 0.28713 0.70136 0.55372 0.0
C897 C 0.26894 0.69353 0.56818 0.0
C898 C 0.30609 0.72799 0.55133 0.0
C899 C 0.30736 0.74746 0.56337 0.0
C900 C 0.28853 0.73978 0.57746 0.0
C901 C 0.26949 0.71302 0.57986 0.0
H902 H 0.52588 0.33536 0.70204 0.0
H903 H 0.57069 0.38283 0.74853 0.0
H904 H 0.54704 0.30844 0.70514 0.0
H905 H 0.59146 0.3555 0.75182 0.0
H906 H 0.5934 0.27776 0.76371 0.0
H907 H 0.57412 0.30631 0.75993 0.0
H908 H 0.59459 0.31544 0.70257 0.0
H909 H 0.61417 0.28713 0.70636 0.0
C910 C 0.54053 0.34029 0.71275 0.0
C911 C 0.54715 0.36164 0.72479 0.0
C912 C 0.55257 0.32485 0.71453 0.0
C913 C 0.57092 0.33001 0.72867 0.0
C914 C 0.57732 0.3511 0.74083 0.0
C915 C 0.56561 0.3668 0.73887 0.0
C916 C 0.59382 0.28591 0.75031 0.0
C917 C 0.60528 0.28028 0.73533 0.0
C918 C 0.58292 0.30232 0.74818 0.0
C919 C 0.58292 0.31304 0.73097 0.0
C920 C 0.59423 0.30728 0.71595 0.0
C921 C 0.60551 0.29121 0.71815 0.0
H922 H 0.21126 0.56915 0.92227 0.0
H923 H 0.19968 0.5056 0.88587 0.0
H924 H 0.25843 0.58352 0.92456 0.0
H925 H 0.24686 0.52022 0.88796 0.0
H926 H 0.33741 0.57817 0.8794 0.0
H927 H 0.28977 0.56131 0.878 0.0
H928 H 0.28746 0.56557 0.93698 0.0
H929 H 0.33522 0.58229 0.93842 0.0
C930 C 0.21888 0.55844 0.91464 0.0
C931 C 0.20192 0.53674 0.9035 0.0
C932 C 0.24576 0.5665 0.91607 0.0
C933 C 0.25628 0.55305 0.90636 0.0
C934 C 0.23931 0.53114 0.8954 0.0
C935 C 0.21234 0.52286 0.89416 0.0
C936 C 0.3267 0.57534 0.89208 0.0
C937 C 0.33999 0.58156 0.90902 0.0
C938 C 0.29944 0.56559 0.89127 0.0
C939 C 0.28497 0.5622 0.90737 0.0
C940 C 0.29821 0.5682 0.92435 0.0
C941 C 0.32546 0.57761 0.92517 0.0
H942 H 0.62394 0.22062 0.04812 0.0
H943 H 0.68385 0.21428 0.0176 0.0
H944 H 0.65849 0.25977 0.06408 0.0
H945 H 0.71838 0.25327 0.03362 0.0
H946 H 0.77479 0.31592 0.07454 0.0
H947 H 0.73907 0.27191 0.06508 0.0
H948 H 0.68988 0.30551 0.05165 0.0
H949 H 0.7254 0.34923 0.06089 0.0
C950 C 0.64452 0.22739 0.04505 0.0
C951 C 0.65125 0.21459 0.03153 0.0
C952 C 0.66424 0.24975 0.05414 0.0
C953 C 0.69108 0.25958 0.05002 0.0
C954 C 0.69786 0.24597 0.03719 0.0
C955 C 0.67812 0.22377 0.02796 0.0
C956 C 0.75618 0.31374 0.06982 0.0
C957 C 0.75286 0.33594 0.06834 0.0
C958 C 0.73584 0.28865 0.06435 0.0
C959 C 0.71174 0.28534 0.05765 0.0
C960 C 0.70812 0.30741 0.05695 0.0
C961 C 0.72852 0.33246 0.06213 0.0
H962 H 0.44858 0.63838 0.22772 0.0
H963 H 0.48077 0.67713 0.17613 0.0
H964 H 0.44751 0.67763 0.23856 0.0
H965 H 0.4797 0.71631 0.18693 0.0
H966 H 0.4335 0.75886 0.20273 0.0
H967 H 0.44169 0.72345 0.19347 0.0
H968 H 0.47652 0.72684 0.2464 0.0
H969 H 0.46833 0.76262 0.25573 0.0
C970 C 0.456 0.65552 0.21888 0.0
C971 C 0.46514 0.65487 0.20117 0.0
C972 C 0.45541 0.67797 0.22508 0.0
C973 C 0.46349 0.7 0.21357 0.0
C974 C 0.4732 0.69955 0.19605 0.0
C975 C 0.47397 0.67723 0.18992 0.0
C976 C 0.44307 0.7522 0.21237 0.0
C977 C 0.45024 0.76346 0.22997 0.0
C978 C 0.44791 0.73203 0.20702 0.0
C979 C 0.45983 0.72245 0.21919 0.0
C980 C 0.46721 0.7338 0.23678 0.0
C981 C 0.46263 0.7543 0.24208 0.0
H982 H 0.83191 0.44426 0.38981 0.0
H983 H 0.82147 0.47568 0.33896 0.0
H984 H 0.79083 0.44044 0.40145 0.0
H985 H 0.78037 0.47172 0.35054 0.0
H986 H 0.69243 0.42072 0.36767 0.0
H987 H 0.73638 0.43115 0.35766 0.0
H988 H 0.76894 0.4681 0.40997 0.0
H989 H 0.72464 0.45775 0.42004 0.0
C990 C 0.82115 0.45091 0.3813 0.0
C991 C 0.8301 0.46069 0.36358 0.0
C992 C 0.79767 0.44873 0.38796 0.0
C993 C 0.78246 0.45578 0.37689 0.0
C994 C 0.79167 0.46603 0.35933 0.0
C995 C 0.81522 0.46844 0.35275 0.0
C996 C 0.70896 0.43118 0.37703 0.0
C997 C 0.70513 0.43839 0.39465 0.0
C998 C 0.73415 0.43731 0.37124 0.0
C999 C 0.75606 0.45053 0.38301 0.0
C1000 C 0.75232 0.45782 0.40066 0.0
C1001 C 0.72706 0.45199 0.40638 0.0
H1002 H 0.12208 0.64397 0.45966 0.0
H1003 H 0.13735 0.5867 0.43317 0.0
H1004 H 0.13326 0.63282 0.4892 0.0
H1005 H 0.14721 0.57435 0.46283 0.0
H1006 H 0.201 0.59036 0.51344 0.0
H1007 H 0.18192 0.5926 0.48432 0.0
H1008 H 0.12255 0.60229 0.5131 0.0
H1009 H 0.1426 0.60134 0.54223 0.0
C1010 C 0.12742 0.62866 0.46025 0.0
C1011 C 0.12928 0.61652 0.44412 0.0
C1012 C 0.13357 0.62202 0.47721 0.0
C1013 C 0.14136 0.60276 0.47847 0.0
C1014 C 0.14186 0.58966 0.46238 0.0
C1015 C 0.13604 0.59658 0.44538 0.0
C1016 C 0.1836 0.59252 0.51353 0.0
C1017 C 0.17345 0.59595 0.53007 0.0
C1018 C 0.17253 0.59369 0.4968 0.0
C1019 C 0.15081 0.59794 0.49627 0.0
C1020 C 0.13965 0.59966 0.51294 0.0
C1021 C 0.15098 0.59888 0.52965 0.0
H1022 H 0.49512 0.12835 0.61811 0.0
H1023 H 0.57826 0.13293 0.59027 0.0
H1024 H 0.5242 0.14975 0.65177 0.0
H1025 H 0.6053 0.15372 0.62485 0.0
H1026 H 0.64172 0.20657 0.6778 0.0
H1027 H 0.62027 0.18636 0.64867 0.0
H1028 H 0.54544 0.14135 0.67652 0.0
H1029 H 0.56666 0.16201 0.70542 0.0
C1030 C 0.51585 0.1342 0.61911 0.0
C1031 C 0.53223 0.12392 0.60175 0.0
C1032 C 0.53372 0.14613 0.64034 0.0
C1033 C 0.56733 0.15242 0.64254 0.0
C1034 C 0.58493 0.14891 0.6233 0.0
C1035 C 0.56868 0.13705 0.60145 0.0
C1036 C 0.62076 0.1921 0.67769 0.0
C1037 C 0.60581 0.1861 0.69384 0.0
C1038 C 0.60847 0.18042 0.66101 0.0
C1039 C 0.58107 0.16256 0.66025 0.0
C1040 C 0.56645 0.15559 0.67655 0.0
C1041 C 0.57866 0.16727 0.69317 0.0
H1042 H 0.3867 0.47479 0.78529 0.0
H1043 H 0.45546 0.5635 0.75676 0.0
H1044 H 0.393 0.50217 0.81957 0.0
H1045 H 0.46068 0.58873 0.79187 0.0
H1046 H 0.44363 0.62 0.84593 0.0
H1047 H 0.44206 0.5995 0.81652 0.0
H1048 H 0.42241 0.52627 0.84394 0.0
H1049 H 0.42322 0.54662 0.87336 0.0
C1050 C 0.39944 0.49606 0.78633 0.0
C1051 C 0.42401 0.5155 0.76832 0.0
C1052 C 0.40467 0.51307 0.80788 0.0
C1053 C 0.42876 0.54806 0.80996 0.0
C1054 C 0.44706 0.56769 0.79037 0.0
C1055 C 0.44319 0.55244 0.76821 0.0
C1056 C 0.43925 0.5996 0.84569 0.0
C1057 C 0.43335 0.58485 0.86193 0.0
C1058 C 0.43851 0.58787 0.82881 0.0
C1059 C 0.43188 0.56117 0.82786 0.0
C1060 C 0.42699 0.54671 0.84417 0.0
C1061 C 0.42769 0.55843 0.86105 0.0
H1062 H 0.91929 0.37354 0.94919 0.0
H1063 H 0.9805 0.47396 0.95853 0.0
H1064 H 0.88873 0.37332 0.98021 0.0
H1065 H 0.94826 0.47127 0.9895 0.0
H1066 H 0.87548 0.45883 0.0246 0.0
H1067 H 0.90318 0.46081 0.99878 0.0
H1068 H 0.88811 0.3822 0.01185 0.0
H1069 H 0.8604 0.38009 0.03734 0.0
C1070 C 0.92545 0.39135 0.95721 0.0
C1071 C 0.95028 0.42465 0.94861 0.0
C1072 C 0.90581 0.39172 0.97602 0.0
C1073 C 0.91405 0.42243 0.9876 0.0
C1074 C 0.94316 0.45353 0.9817 0.0
C1075 C 0.96413 0.45522 0.96304 0.0
C1076 C 0.87812 0.44201 0.02191 0.0
C1077 C 0.86572 0.41928 0.03295 0.0
C1078 C 0.89407 0.44319 0.0072 0.0
C1079 C 0.89762 0.42158 0.00321 0.0
C1080 C 0.88531 0.39896 0.01431 0.0
C1081 C 0.86961 0.39785 0.02905 0.0
H1082 H 0.56685 0.9508 0.13199 0.0
H1083 H 0.49432 0.89379 0.10515 0.0
H1084 H 0.54493 0.93766 0.16169 0.0
H1085 H 0.47257 0.87993 0.1348 0.0
H1086 H 0.43422 0.86887 0.18961 0.0
H1087 H 0.4559 0.89135 0.16125 0.0
H1088 H 0.52967 0.89982 0.18106 0.0
H1089 H 0.50821 0.87817 0.20949 0.0
C1090 C 0.54608 0.93577 0.13245 0.0
C1091 C 0.53213 0.9236 0.11625 0.0
C1092 C 0.53358 0.92804 0.14946 0.0
C1093 C 0.50697 0.9077 0.15067 0.0
C1094 C 0.49291 0.89599 0.1344 0.0
C1095 C 0.50537 0.90382 0.1174 0.0
C1096 C 0.45517 0.87596 0.18799 0.0
C1097 C 0.46948 0.87163 0.20171 0.0
C1098 C 0.46756 0.88867 0.1717 0.0
C1099 C 0.49449 0.8972 0.16878 0.0
C1100 C 0.509 0.89384 0.18289 0.0
C1101 C 0.49665 0.88126 0.19918 0.0
H1102 H 0.61733 0.47844 0.26922 0.0
H1103 H 0.631 0.55032 0.2961 0.0
H1104 H 0.6092 0.45646 0.2988 0.0
H1105 H 0.62176 0.52811 0.32567 0.0
H1106 H 0.64558 0.49313 0.37376 0.0
H1107 H 0.64473 0.51401 0.34525 0.0
H1108 H 0.58152 0.43883 0.32515 0.0
H1109 H 0.58307 0.41769 0.35365 0.0
C1110 C 0.61784 0.48927 0.28145 0.0
C1111 C 0.62446 0.51595 0.28032 0.0
C1112 C 0.61305 0.47666 0.29841 0.0
C1113 C 0.61484 0.49049 0.31467 0.0
C1114 C 0.62054 0.51695 0.31346 0.0
C1115 C 0.62556 0.52962 0.2965 0.0
C1116 C 0.63125 0.4811 0.36336 0.0
C1117 C 0.61455 0.45372 0.36588 0.0
C1118 C 0.63062 0.49313 0.34702 0.0
C1119 C 0.61313 0.47811 0.33281 0.0
C1120 C 0.59554 0.45091 0.33568 0.0
C1121 C 0.59629 0.43882 0.35205 0.0
H1122 H 0.45247 0.90225 0.38921 0.0
H1123 H 0.39517 0.9164 0.36172 0.0
H1124 H 0.46587 0.89277 0.35981 0.0
H1125 H 0.40738 0.90557 0.33245 0.0
H1126 H 0.44041 0.89687 0.27999 0.0
H1127 H 0.4385 0.91677 0.30896 0.0
H1128 H 0.44874 0.85807 0.33827 0.0
H1129 H 0.45195 0.83916 0.30931 0.0
C1130 C 0.44281 0.9034 0.37683 0.0
C1131 C 0.42256 0.90973 0.37775 0.0
C1132 C 0.45033 0.89778 0.35999 0.0
C1133 C 0.43754 0.89807 0.34369 0.0
C1134 C 0.41796 0.90544 0.34461 0.0
C1135 C 0.41071 0.91138 0.36141 0.0
C1136 C 0.44279 0.88861 0.29266 0.0
C1137 C 0.44615 0.86637 0.29243 0.0
C1138 C 0.44146 0.89986 0.30928 0.0
C1139 C 0.44302 0.88882 0.32604 0.0
C1140 C 0.44774 0.86736 0.32571 0.0
C1141 C 0.44947 0.85639 0.30908 0.0
H1142 H 0.49777 0.39346 0.52504 0.0
H1143 H 0.56951 0.45459 0.55037 0.0
H1144 H 0.52047 0.40175 0.4958 0.0
H1145 H 0.59203 0.46408 0.5209 0.0
H1146 H 0.63131 0.44476 0.473 0.0
H1147 H 0.60948 0.44459 0.50139 0.0
H1148 H 0.53982 0.42983 0.4707 0.0
H1149 H 0.56136 0.42869 0.44241 0.0
C1150 C 0.51834 0.40894 0.52425 0.0
C1151 C 0.53202 0.42301 0.54003 0.0
C1152 C 0.53133 0.41396 0.50744 0.0
C1153 C 0.55823 0.43352 0.50593 0.0
C1154 C 0.57151 0.44849 0.52159 0.0
C1155 C 0.55858 0.4432 0.53846 0.0
C1156 C 0.6115 0.44191 0.47232 0.0
C1157 C 0.59792 0.43647 0.45555 0.0
C1158 C 0.59896 0.44193 0.48861 0.0
C1159 C 0.57269 0.43689 0.48844 0.0
C1160 C 0.55979 0.43311 0.47145 0.0
C1161 C 0.57219 0.43268 0.4552 0.0
H1162 H 0.10026 0.47898 0.69492 0.0
H1163 H 0.15778 0.55369 0.71911 0.0
H1164 H 0.10944 0.49961 0.66474 0.0
H1165 H 0.16775 0.57417 0.68894 0.0
H1166 H 0.17303 0.60975 0.63398 0.0
H1167 H 0.1532 0.58886 0.66313 0.0
H1168 H 0.1451 0.51504 0.64354 0.0
H1169 H 0.16406 0.53568 0.61433 0.0
C1170 C 0.11453 0.49994 0.6938 0.0
C1171 C 0.12803 0.51487 0.7094 0.0
C1172 C 0.12 0.51171 0.6765 0.0
C1173 C 0.13939 0.53856 0.67436 0.0
C1174 C 0.15235 0.5536 0.69006 0.0
C1175 C 0.14675 0.54187 0.70736 0.0
C1176 C 0.16653 0.58893 0.63582 0.0
C1177 C 0.17026 0.5744 0.62193 0.0
C1178 C 0.15534 0.577 0.65256 0.0
C1179 C 0.14779 0.55033 0.6558 0.0
C1180 C 0.15037 0.53551 0.64152 0.0
C1181 C 0.16141 0.54739 0.62476 0.0
H1182 H 0.55215 0.07753 0.85496 0.0
H1183 H 0.63274 0.09363 0.85155 0.0
H1184 H 0.56017 0.10752 0.82934 0.0
H1185 H 0.64114 0.12426 0.82643 0.0
H1186 H 0.64072 0.15705 0.77031 0.0
H1187 H 0.63064 0.12512 0.79488 0.0
H1188 H 0.58374 0.15372 0.8218 0.0
H1189 H 0.59313 0.18497 0.79692 0.0
C1190 C 0.57163 0.0877 0.84881 0.0
C1191 C 0.59188 0.08342 0.85532 0.0
C1192 C 0.57629 0.10495 0.8342 0.0
C1193 C 0.60132 0.11833 0.82581 0.0
C1194 C 0.62152 0.11401 0.83237 0.0
C1195 C 0.61681 0.09666 0.84688 0.0
C1196 C 0.62816 0.15639 0.78144 0.0
C1197 C 0.61775 0.1735 0.78172 0.0
C1198 C 0.62251 0.13822 0.79559 0.0
C1199 C 0.60648 0.13693 0.81039 0.0
C1200 C 0.59585 0.15391 0.81051 0.0
C1201 C 0.60136 0.17194 0.7963 0.0
H1202 H 0.52219 0.55295 0.03058 0.0
H1203 H 0.57133 0.65496 0.03213 0.0
H1204 H 0.49318 0.55437 0.99873 0.0
H1205 H 0.5413 0.6539 0.00044 0.0
H1206 H 0.50298 0.6429 0.9443 0.0
H1207 H 0.52905 0.6408 0.96956 0.0
H1208 H 0.46145 0.56803 0.98804 0.0
H1209 H 0.43523 0.56994 0.96244 0.0
C1210 C 0.52642 0.57158 0.0245 0.0
C1211 C 0.54648 0.60392 0.03662 0.0
C1212 C 0.5076 0.57269 0.00524 0.0
C1213 C 0.51285 0.6041 0.9967 0.0
C1214 C 0.53815 0.63544 0.00614 0.0
C1215 C 0.5579 0.63642 0.02538 0.0
C1216 C 0.49366 0.62637 0.95369 0.0
C1217 C 0.46702 0.60663 0.95143 0.0
C1218 C 0.50856 0.6253 0.9683 0.0
C1219 C 0.4972 0.60442 0.98091 0.0
C1220 C 0.47076 0.58428 0.97844 0.0
C1221 C 0.45573 0.58543 0.96385 0.0
H1222 H 0.93176 0.55753 0.19525 0.0
H1223 H 0.91034 0.47107 0.22817 0.0
H1224 H 0.90896 0.52712 0.16222 0.0
H1225 H 0.88852 0.44272 0.19414 0.0
H1226 H 0.83595 0.40896 0.14089 0.0
H1227 H 0.85725 0.43095 0.1696 0.0
H1228 H 0.91368 0.49997 0.13947 0.0
H1229 H 0.8921 0.47822 0.11084 0.0
C1230 C 0.92267 0.53615 0.19524 0.0
C1231 C 0.92774 0.51807 0.21431 0.0
C1232 C 0.90979 0.5172 0.17449 0.0
C1233 C 0.8979 0.48191 0.17411 0.0
C1234 C 0.89664 0.46396 0.19466 0.0
C1235 C 0.90911 0.4812 0.21613 0.0
C1236 C 0.85315 0.42867 0.14041 0.0
C1237 C 0.86219 0.44198 0.12364 0.0
C1238 C 0.86545 0.44124 0.15685 0.0
C1239 C 0.88692 0.46733 0.15679 0.0
C1240 C 0.89677 0.48009 0.13998 0.0
C1241 C 0.88454 0.46754 0.12356 0.0
loop_
_geom_bond_atom_site_label_1
_geom_bond_atom_site_label_2
_geom_bond_distance
_geom_bond_site_symmetry_2
_ccdc_geom_bond_type
C0 C1 1.560 . S
C0 H61 0.959 . S
C0 H62 0.959 . S
C0 H63 0.960 . S
C1 C0 1.560 . S
C1 O56 1.426 . S
C1 H60 0.980 . S
C2 C3 1.407 . S
C2 C7 1.418 . S
C2 O56 1.334 . S
C3 C2 1.407 . S
C3 C4 1.360 . S
C3 H64 0.929 . S
C4 C3 1.360 . S
C4 C5 1.401 . S
C4 C8 1.527 . S
C5 C4 1.401 . S
C5 C6 1.405 . S
C5 C38 1.587 . S
C6 C5 1.405 . S
C6 C7 1.332 . S
C6 C9 1.496 . S
C7 C2 1.418 . S
C7 C6 1.332 . S
C7 H65 0.929 . S
C8 C4 1.527 . S
C8 H66 0.959 . S
C8 H67 0.961 . S
C8 H68 0.961 . S
C9 C6 1.496 . S
C9 H69 0.960 . S
C9 H70 0.960 . S
C9 H71 0.961 . S
C10 C11 1.517 . S
C10 H73 0.961 . S
C10 H74 0.960 . S
C10 H75 0.959 . S
C11 C10 1.517 . S
C11 O59 1.468 . S
C11 H72 0.980 . S
C12 C13 1.349 . S
C12 C17 1.367 . S
C12 O59 1.408 . S
C13 C12 1.349 . S
C13 C14 1.407 1_655 S
C13 H76 0.930 . S
C14 C13 1.407 1_455 S
C14 C15 1.449 . S
C14 C18 1.535 . S
C15 C14 1.449 . S
C15 C16 1.383 . S
C15 C40 1.553 . S
C16 C15 1.383 . S
C16 C17 1.360 1_455 S
C16 C19 1.455 . S
C17 C12 1.367 . S
C17 C16 1.360 1_655 S
C17 H77 0.931 . S
C18 C14 1.535 . S
C18 H78 0.959 . S
C18 H79 0.961 . S
C18 H80 0.959 1_455 S
C19 C16 1.455 . S
C19 H81 0.960 . S
C19 H82 0.960 . S
C19 H83 0.961 . S
C20 C21 1.309 . S
C20 C25 1.304 . S
C20 O58 1.435 . S
C21 C20 1.309 . S
C21 C22 1.476 . S
C21 H85 0.930 . S
C22 C21 1.476 . S
C22 C23 1.400 . S
C22 C26 1.567 . S
C23 C22 1.400 . S
C23 C24 1.373 . S
C23 C45 1.432 . S
C24 C23 1.373 . S
C24 C25 1.339 . S
C24 C27 1.530 . S
C25 C20 1.304 . S
C25 C24 1.339 . S
C25 H86 0.930 . S
C26 C22 1.567 . S
C26 H87 0.961 . S
C26 H88 0.960 . S
C26 H89 0.958 . S
C27 C24 1.530 . S
C27 H90 0.961 . S
C27 H91 0.960 . S
C27 H92 0.960 . S
C28 C29 1.530 . S
C28 H94 0.961 . S
C28 H95 0.961 . S
C28 H96 0.959 . S
C29 C28 1.530 . S
C29 O57 1.412 . S
C29 H93 0.980 . S
C30 C31 1.288 . S
C30 C35 1.377 . S
C30 O57 1.393 . S
C31 C30 1.288 . S
C31 C32 1.369 . S
C31 H97 0.932 . S
C32 C31 1.369 . S
C32 C33 1.398 . S
C32 C36 1.527 . S
C33 C32 1.398 . S
C33 C34 1.380 . S
C33 C47 1.497 . S
C34 C33 1.380 . S
C34 C35 1.383 . S
C34 C37 1.603 . S
C35 C30 1.377 . S
C35 C34 1.383 . S
C35 H98 0.929 . S
C36 C32 1.527 . S
C36 H99 0.961 . S
C36 H100 0.959 . S
C36 H101 0.959 . S
C37 C34 1.603 . S
C37 H102 0.960 . S
C37 H103 0.962 . S
C37 H104 0.961 . S
C38 C5 1.587 . S
C38 C39 1.360 . S
C38 C51 1.412 . S
C39 C38 1.360 . S
C39 C40 1.365 . S
C39 H105 0.929 . S
C40 C15 1.553 . S
C40 C39 1.365 . S
C40 C41 1.404 . S
C41 C40 1.404 . S
C41 C42 1.395 1_455 S
C41 C52 1.451 . S
C42 C41 1.395 1_655 S
C42 C43 1.322 . S
C42 H106 0.930 . S
C43 C42 1.322 . S
C43 C44 1.459 . S
C43 H107 0.929 . S
C44 C43 1.459 . S
C44 C45 1.445 . S
C44 C53 1.395 1_655 S
C45 C23 1.432 . S
C45 C44 1.445 . S
C45 C46 1.370 . S
C46 C45 1.370 . S
C46 C47 1.438 1_655 S
C46 H108 0.930 . S
C47 C33 1.497 . S
C47 C46 1.438 1_455 S
C47 C48 1.360 . S
C48 C47 1.360 . S
C48 C49 1.401 . S
C48 C53 1.446 . S
C49 C48 1.401 . S
C49 C50 1.347 . S
C49 H109 0.929 . S
C50 C49 1.347 . S
C50 C51 1.455 . S
C50 H110 0.930 . S
C51 C38 1.412 . S
C51 C50 1.455 . S
C51 C52 1.331 . S
C52 C41 1.451 . S
C52 C51 1.331 . S
C52 C53 1.497 . S
C53 C44 1.395 1_455 S
C53 C48 1.446 . S
C53 C52 1.497 . S
C54 C55 1.582 . S
C54 H111 0.962 . S
C54 H112 0.959 . S
C54 H113 0.958 . S
C55 C54 1.582 . S
C55 O58 1.458 . S
C55 H84 0.980 . S
O56 C1 1.426 . S
O56 C2 1.334 . S
O57 C29 1.412 . S
O57 C30 1.393 . S
O58 C20 1.435 . S
O58 C55 1.458 . S
O59 C11 1.468 . S
O59 C12 1.408 . S
H60 C1 0.980 . S
H61 C0 0.959 . S
H62 C0 0.959 . S
H63 C0 0.960 . S
H64 C3 0.929 . S
H65 C7 0.929 . S
H66 C8 0.959 . S
H67 C8 0.961 . S
H68 C8 0.961 . S
H69 C9 0.960 . S
H70 C9 0.960 . S
H71 C9 0.961 . S
H72 C11 0.980 . S
H73 C10 0.961 . S
H74 C10 0.960 . S
H75 C10 0.959 . S
H76 C13 0.930 . S
H77 C17 0.931 . S
H78 C18 0.959 . S
H79 C18 0.961 . S
H80 C18 0.959 1_655 S
H81 C19 0.960 . S
H82 C19 0.960 . S
H83 C19 0.961 . S
H84 C55 0.980 . S
H85 C21 0.930 . S
H86 C25 0.930 . S
H87 C26 0.961 . S
H88 C26 0.960 . S
H89 C26 0.958 . S
H90 C27 0.961 . S
H91 C27 0.960 . S
H92 C27 0.960 . S
H93 C29 0.980 . S
H94 C28 0.961 . S
H95 C28 0.961 . S
H96 C28 0.959 . S
H97 C31 0.932 . S
H98 C35 0.929 . S
H99 C36 0.961 . S
H100 C36 0.959 . S
H101 C36 0.959 . S
H102 C37 0.960 . S
H103 C37 0.962 . S
H104 C37 0.961 . S
H105 C39 0.929 . S
H106 C42 0.930 . S
H107 C43 0.929 . S
H108 C46 0.930 . S
H109 C49 0.929 . S
H110 C50 0.930 . S
H111 C54 0.962 . S
H112 C54 0.959 . S
H113 C54 0.958 . S
C114 C115 1.560 . S
C114 H175 0.959 . S
C114 H176 0.959 . S
C114 H177 0.960 . S
C115 C114 1.560 . S
C115 O170 1.426 . S
C115 H174 0.980 . S
C116 C117 1.407 . S
C116 C121 1.418 . S
C116 O170 1.334 . S
C117 C116 1.407 . S
C117 C118 1.360 . S
C117 H178 0.929 . S
C118 C117 1.360 . S
C118 C119 1.401 . S
C118 C122 1.527 . S
C119 C118 1.401 . S
C119 C120 1.405 . S
C119 C152 1.587 . S
C120 C119 1.405 . S
C120 C121 1.332 . S
C120 C123 1.496 . S
C121 C116 1.418 . S
C121 C120 1.332 . S
C121 H179 0.929 . S
C122 C118 1.527 . S
C122 H180 0.959 . S
C122 H181 0.961 . S
C122 H182 0.961 . S
C123 C120 1.496 . S
C123 H183 0.960 . S
C123 H184 0.960 . S
C123 H185 0.961 . S
C124 C125 1.517 . S
C124 H187 0.961 . S
C124 H188 0.960 . S
C124 H189 0.959 . S
C125 C124 1.517 . S
C125 O173 1.468 . S
C125 H186 0.980 . S
C126 C127 1.349 . S
C126 C131 1.367 . S
C126 O173 1.408 . S
C127 C126 1.349 . S
C127 C128 1.407 . S
C127 H190 0.930 . S
C128 C127 1.407 . S
C128 C129 1.449 . S
C128 C132 1.535 . S
C129 C128 1.449 . S
C129 C130 1.384 . S
C129 C154 1.553 . S
C130 C129 1.384 . S
C130 C131 1.364 . S
C130 C133 1.450 . S
C131 C126 1.367 . S
C131 C130 1.364 . S
C131 H191 0.931 . S
C132 C128 1.535 . S
C132 H192 0.959 . S
C132 H193 0.961 . S
C132 H194 0.959 . S
C133 C130 1.450 . S
C133 H195 0.960 . S
C133 H196 0.960 . S
C133 H197 0.960 . S
C134 C135 1.309 . S
C134 C139 1.304 . S
C134 O172 1.435 . S
C135 C134 1.309 . S
C135 C136 1.476 . S
C135 H199 0.930 . S
C136 C135 1.476 . S
C136 C137 1.400 . S
C136 C140 1.567 . S
C137 C136 1.400 . S
C137 C138 1.373 . S
C137 C159 1.432 . S
C138 C137 1.373 . S
C138 C139 1.339 . S
C138 C141 1.530 . S
C139 C134 1.304 . S
C139 C138 1.339 . S
C139 H200 0.930 . S
C140 C136 1.567 . S
C140 H201 0.961 . S
C140 H202 0.960 . S
C140 H203 0.958 . S
C141 C138 1.530 . S
C141 H204 0.961 . S
C141 H205 0.960 . S
C141 H206 0.960 . S
C142 C143 1.530 . S
C142 H208 0.961 . S
C142 H209 0.961 . S
C142 H210 0.959 . S
C143 C142 1.530 . S
C143 O171 1.412 . S
C143 H207 0.980 . S
C144 C145 1.288 . S
C144 C149 1.377 . S
C144 O171 1.393 . S
C145 C144 1.288 . S
C145 C146 1.378 . S
C145 H211 0.932 . S
C146 C145 1.378 . S
C146 C147 1.410 1_565 S
C146 C150 1.506 1_565 S
C147 C146 1.410 1_545 S
C147 C148 1.380 1_545 S
C147 C161 1.497 . S
C148 C147 1.380 1_565 S
C148 C149 1.383 . S
C148 C151 1.603 . S
C149 C144 1.377 . S
C149 C148 1.383 . S
C149 H212 0.929 . S
C150 C146 1.506 1_545 S
C150 H213 0.961 . S
C150 H214 0.959 . S
C150 H215 0.959 . S
C151 C148 1.603 . S
C151 H216 0.960 . S
C151 H217 0.962 1_565 S
C151 H218 0.961 . S
C152 C119 1.587 . S
C152 C153 1.360 . S
C152 C165 1.412 . S
C153 C152 1.360 . S
C153 C154 1.365 1_565 S
C153 H219 0.929 . S
C154 C129 1.553 . S
C154 C153 1.365 1_545 S
C154 C155 1.404 . S
C155 C154 1.404 . S
C155 C156 1.395 . S
C155 C166 1.451 . S
C156 C155 1.395 . S
C156 C157 1.322 . S
C156 H220 0.930 . S
C157 C156 1.322 . S
C157 C158 1.459 . S
C157 H221 0.929 . S
C158 C157 1.459 . S
C158 C159 1.445 . S
C158 C167 1.395 . S
C159 C137 1.432 . S
C159 C158 1.445 . S
C159 C160 1.370 . S
C160 C159 1.370 . S
C160 C161 1.438 . S
C160 H222 0.930 . S
C161 C147 1.497 . S
C161 C160 1.438 . S
C161 C162 1.360 . S
C162 C161 1.360 . S
C162 C163 1.401 1_545 S
C162 C167 1.446 . S
C163 C162 1.401 1_565 S
C163 C164 1.347 . S
C163 H223 0.929 . S
C164 C163 1.347 . S
C164 C165 1.455 . S
C164 H224 0.930 . S
C165 C152 1.412 . S
C165 C164 1.455 . S
C165 C166 1.331 1_565 S
C166 C155 1.451 . S
C166 C165 1.331 1_545 S
C166 C167 1.497 . S
C167 C158 1.395 . S
C167 C162 1.446 . S
C167 C166 1.497 . S
C168 C169 1.582 . S
C168 H225 0.962 . S
C168 H226 0.959 . S
C168 H227 0.958 . S
C169 C168 1.582 . S
C169 O172 1.458 . S
C169 H198 0.980 . S
O170 C115 1.426 . S
O170 C116 1.334 . S
O171 C143 1.412 . S
O171 C144 1.393 . S
O172 C134 1.435 . S
O172 C169 1.458 . S
O173 C125 1.468 . S
O173 C126 1.408 . S
H174 C115 0.980 . S
H175 C114 0.959 . S
H176 C114 0.959 . S
H177 C114 0.960 . S
H178 C117 0.929 . S
H179 C121 0.929 . S
H180 C122 0.959 . S
H181 C122 0.961 . S
H182 C122 0.961 . S
H183 C123 0.960 . S
H184 C123 0.960 . S
H185 C123 0.961 . S
H186 C125 0.980 . S
H187 C124 0.961 . S
H188 C124 0.960 . S
H189 C124 0.959 . S
H190 C127 0.930 . S
H191 C131 0.931 . S
H192 C132 0.959 . S
H193 C132 0.961 . S
H194 C132 0.959 . S
H195 C133 0.960 . S
H196 C133 0.960 . S
H197 C133 0.960 . S
H198 C169 0.980 . S
H199 C135 0.930 . S
H200 C139 0.930 . S
H201 C140 0.961 . S
H202 C140 0.960 . S
H203 C140 0.958 . S
H204 C141 0.961 . S
H205 C141 0.960 . S
H206 C141 0.960 . S
H207 C143 0.980 . S
H208 C142 0.961 . S
H209 C142 0.961 . S
H210 C142 0.959 . S
H211 C145 0.932 . S
H212 C149 0.929 . S
H213 C150 0.961 . S
H214 C150 0.959 . S
H215 C150 0.959 . S
H216 C151 0.960 . S
H217 C151 0.962 1_545 S
H218 C151 0.961 . S
H219 C153 0.929 . S
H220 C156 0.930 . S
H221 C157 0.929 . S
H222 C160 0.930 . S
H223 C163 0.929 . S
H224 C164 0.930 . S
H225 C168 0.962 . S
H226 C168 0.959 . S
H227 C168 0.958 . S
C228 C229 1.560 . S
C228 H289 0.959 . S
C228 H290 0.959 . S
C228 H291 0.960 . S
C229 C228 1.560 . S
C229 O284 1.426 . S
C229 H288 0.980 . S
C230 C231 1.407 . S
C230 C235 1.418 . S
C230 O284 1.334 . S
C231 C230 1.407 . S
C231 C232 1.360 . S
C231 H292 0.929 . S
C232 C231 1.360 . S
C232 C233 1.401 . S
C232 C236 1.527 . S
C233 C232 1.401 . S
C233 C234 1.405 . S
C233 C266 1.587 . S
C234 C233 1.405 . S
C234 C235 1.332 . S
C234 C237 1.496 . S
C235 C230 1.418 . S
C235 C234 1.332 . S
C235 H293 0.929 . S
C236 C232 1.527 . S
C236 H294 0.959 . S
C236 H295 0.961 . S
C236 H296 0.961 . S
C237 C234 1.496 . S
C237 H297 0.960 . S
C237 H298 0.960 . S
C237 H299 0.961 . S
C238 C239 1.517 . S
C238 H301 0.961 . S
C238 H302 0.960 . S
C238 H303 0.959 . S
C239 C238 1.517 . S
C239 O287 1.468 . S
C239 H300 0.980 . S
C240 C241 1.349 . S
C240 C245 1.367 . S
C240 O287 1.408 . S
C241 C240 1.349 . S
C241 C242 1.407 . S
C241 H304 0.930 . S
C242 C241 1.407 . S
C242 C243 1.449 . S
C242 C246 1.535 . S
C243 C242 1.449 . S
C243 C244 1.384 . S
C243 C268 1.553 . S
C244 C243 1.384 . S
C244 C245 1.364 . S
C244 C247 1.450 . S
C245 C240 1.367 . S
C245 C244 1.364 . S
C245 H305 0.931 . S
C246 C242 1.535 . S
C246 H306 0.959 . S
C246 H307 0.961 . S
C246 H308 0.959 . S
C247 C244 1.450 . S
C247 H309 0.960 . S
C247 H310 0.960 . S
C247 H311 0.960 . S
C248 C249 1.309 . S
C248 C253 1.304 . S
C248 O286 1.435 . S
C249 C248 1.309 . S
C249 C250 1.476 . S
C249 H313 0.930 . S
C250 C249 1.476 . S
C250 C251 1.400 . S
C250 C254 1.567 . S
C251 C250 1.400 . S
C251 C252 1.373 . S
C251 C273 1.432 . S
C252 C251 1.373 . S
C252 C253 1.339 . S
C252 C255 1.530 . S
C253 C248 1.304 . S
C253 C252 1.339 . S
C253 H314 0.930 . S
C254 C250 1.567 . S
C254 H315 0.961 . S
C254 H316 0.960 . S
C254 H317 0.958 . S
C255 C252 1.530 . S
C255 H318 0.961 . S
C255 H319 0.960 . S
C255 H320 0.960 . S
C256 C257 1.530 . S
C256 H322 0.961 . S
C256 H323 0.961 . S
C256 H324 0.959 . S
C257 C256 1.530 . S
C257 O285 1.412 . S
C257 H321 0.980 . S
C258 C259 1.288 . S
C258 C263 1.377 . S
C258 O285 1.393 . S
C259 C258 1.288 . S
C259 C260 1.369 . S
C259 H325 0.932 . S
C260 C259 1.369 . S
C260 C261 1.398 . S
C260 C264 1.527 . S
C261 C260 1.398 . S
C261 C262 1.380 . S
C261 C275 1.497 . S
C262 C261 1.380 . S
C262 C263 1.383 . S
C262 C265 1.603 . S
C263 C258 1.377 . S
C263 C262 1.383 . S
C263 H326 0.929 . S
C264 C260 1.527 . S
C264 H327 0.961 . S
C264 H328 0.959 . S
C264 H329 0.959 . S
C265 C262 1.603 . S
C265 H330 0.960 . S
C265 H331 0.962 . S
C265 H332 0.961 . S
C266 C233 1.587 . S
C266 C267 1.360 . S
C266 C279 1.412 . S
C267 C266 1.360 . S
C267 C268 1.365 . S
C267 H333 0.929 . S
C268 C243 1.553 . S
C268 C267 1.365 . S
C268 C269 1.404 . S
C269 C268 1.404 . S
C269 C270 1.395 . S
C269 C280 1.451 . S
C270 C269 1.395 . S
C270 C271 1.322 . S
C270 H334 0.930 . S
C271 C270 1.322 . S
C271 C272 1.459 . S
C271 H335 0.929 . S
C272 C271 1.459 . S
C272 C273 1.445 . S
C272 C281 1.395 . S
C273 C251 1.432 . S
C273 C272 1.445 . S
C273 C274 1.370 . S
C274 C273 1.370 . S
C274 C275 1.438 . S
C274 H336 0.930 . S
C275 C261 1.497 . S
C275 C274 1.438 . S
C275 C276 1.360 . S
C276 C275 1.360 . S
C276 C277 1.401 . S
C276 C281 1.446 . S
C277 C276 1.401 . S
C277 C278 1.347 . S
C277 H337 0.929 . S
C278 C277 1.347 . S
C278 C279 1.455 . S
C278 H338 0.930 . S
C279 C266 1.412 . S
C279 C278 1.455 . S
C279 C280 1.331 . S
C280 C269 1.451 . S
C280 C279 1.331 . S
C280 C281 1.497 . S
C281 C272 1.395 . S
C281 C276 1.446 . S
C281 C280 1.497 . S
C282 C283 1.582 . S
C282 H339 0.962 . S
C282 H340 0.959 . S
C282 H341 0.958 . S
C283 C282 1.582 . S
C283 O286 1.458 . S
C283 H312 0.980 . S
O284 C229 1.426 . S
O284 C230 1.334 . S
O285 C257 1.412 . S
O285 C258 1.393 . S
O286 C248 1.435 . S
O286 C283 1.458 . S
O287 C239 1.468 . S
O287 C240 1.408 . S
H288 C229 0.980 . S
H289 C228 0.959 . S
H290 C228 0.959 . S
H291 C228 0.960 . S
H292 C231 0.929 . S
H293 C235 0.929 . S
H294 C236 0.959 . S
H295 C236 0.961 . S
H296 C236 0.961 . S
H297 C237 0.960 . S
H298 C237 0.960 . S
H299 C237 0.961 . S
H300 C239 0.980 . S
H301 C238 0.961 . S
H302 C238 0.960 . S
H303 C238 0.959 . S
H304 C241 0.930 . S
H305 C245 0.931 . S
H306 C246 0.959 . S
H307 C246 0.961 . S
H308 C246 0.959 . S
H309 C247 0.960 . S
H310 C247 0.960 . S
H311 C247 0.960 . S
H312 C283 0.980 . S
H313 C249 0.930 . S
H314 C253 0.930 . S
H315 C254 0.961 . S
H316 C254 0.960 . S
H317 C254 0.958 . S
H318 C255 0.961 . S
H319 C255 0.960 . S
H320 C255 0.960 . S
H321 C257 0.980 . S
H322 C256 0.961 . S
H323 C256 0.961 . S
H324 C256 0.959 . S
H325 C259 0.932 . S
H326 C263 0.929 . S
H327 C264 0.961 . S
H328 C264 0.959 . S
H329 C264 0.959 . S
H330 C265 0.960 . S
H331 C265 0.962 . S
H332 C265 0.961 . S
H333 C267 0.929 . S
H334 C270 0.930 . S
H335 C271 0.929 . S
H336 C274 0.930 . S
H337 C277 0.929 . S
H338 C278 0.930 . S
H339 C282 0.962 . S
H340 C282 0.959 . S
H341 C282 0.958 . S
C342 C343 1.560 . S
C342 H403 0.959 . S
C342 H404 0.959 . S
C342 H405 0.960 . S
C343 C342 1.560 . S
C343 O398 1.426 . S
C343 H402 0.980 . S
C344 C345 1.407 . S
C344 C349 1.418 . S
C344 O398 1.334 . S
C345 C344 1.407 . S
C345 C346 1.360 . S
C345 H406 0.929 . S
C346 C345 1.360 . S
C346 C347 1.401 . S
C346 C350 1.527 . S
C347 C346 1.401 . S
C347 C348 1.405 . S
C347 C380 1.587 . S
C348 C347 1.405 . S
C348 C349 1.332 . S
C348 C351 1.496 . S
C349 C344 1.418 . S
C349 C348 1.332 . S
C349 H407 0.929 . S
C350 C346 1.527 . S
C350 H408 0.959 . S
C350 H409 0.961 . S
C350 H410 0.961 . S
C351 C348 1.496 . S
C351 H411 0.960 . S
C351 H412 0.960 . S
C351 H413 0.961 . S
C352 C353 1.517 . S
C352 H415 0.961 . S
C352 H416 0.960 . S
C352 H417 0.959 . S
C353 C352 1.517 . S
C353 O401 1.468 . S
C353 H414 0.980 . S
C354 C355 1.349 . S
C354 C359 1.367 . S
C354 O401 1.408 . S
C355 C354 1.349 . S
C355 C356 1.407 1_655 S
C355 H418 0.930 . S
C356 C355 1.407 1_455 S
C356 C357 1.449 . S
C356 C360 1.535 . S
C357 C356 1.449 . S
C357 C358 1.387 1_455 S
C357 C382 1.553 . S
C358 C357 1.387 1_655 S
C358 C359 1.362 . S
C358 C361 1.450 1_655 S
C359 C354 1.367 . S
C359 C358 1.362 . S
C359 H419 0.931 . S
C360 C356 1.535 . S
C360 H420 0.959 . S
C360 H421 0.961 . S
C360 H422 0.959 1_455 S
C361 C358 1.450 1_455 S
C361 H423 0.960 . S
C361 H424 0.960 . S
C361 H425 0.960 1_455 S
C362 C363 1.309 . S
C362 C367 1.304 . S
C362 O400 1.435 . S
C363 C362 1.309 . S
C363 C364 1.476 . S
C363 H427 0.930 . S
C364 C363 1.476 . S
C364 C365 1.400 . S
C364 C368 1.567 . S
C365 C364 1.400 . S
C365 C366 1.373 . S
C365 C387 1.432 . S
C366 C365 1.373 . S
C366 C367 1.339 . S
C366 C369 1.530 . S
C367 C362 1.304 . S
C367 C366 1.339 . S
C367 H428 0.930 . S
C368 C364 1.567 . S
C368 H429 0.961 . S
C368 H430 0.960 . S
C368 H431 0.958 . S
C369 C366 1.530 . S
C369 H432 0.961 . S
C369 H433 0.960 . S
C369 H434 0.960 . S
C370 C371 1.530 . S
C370 H436 0.961 . S
C370 H437 0.961 . S
C370 H438 0.959 . S
C371 C370 1.530 . S
C371 O399 1.412 . S
C371 H435 0.980 . S
C372 C373 1.288 . S
C372 C377 1.377 . S
C372 O399 1.393 . S
C373 C372 1.288 . S
C373 C374 1.369 . S
C373 H439 0.932 . S
C374 C373 1.369 . S
C374 C375 1.398 . S
C374 C378 1.527 . S
C375 C374 1.398 . S
C375 C376 1.380 . S
C375 C389 1.497 . S
C376 C375 1.380 . S
C376 C377 1.383 . S
C376 C379 1.603 . S
C377 C372 1.377 . S
C377 C376 1.383 . S
C377 H440 0.929 . S
C378 C374 1.527 . S
C378 H441 0.961 . S
C378 H442 0.959 . S
C378 H443 0.959 . S
C379 C376 1.603 . S
C379 H444 0.960 . S
C379 H445 0.962 . S
C379 H446 0.961 . S
C380 C347 1.587 . S
C380 C381 1.360 . S
C380 C393 1.412 . S
C381 C380 1.360 . S
C381 C382 1.365 . S
C381 H447 0.929 . S
C382 C357 1.553 . S
C382 C381 1.365 . S
C382 C383 1.404 . S
C383 C382 1.404 . S
C383 C384 1.395 1_455 S
C383 C394 1.451 . S
C384 C383 1.395 1_655 S
C384 C385 1.322 . S
C384 H448 0.930 . S
C385 C384 1.322 . S
C385 C386 1.459 . S
C385 H449 0.929 . S
C386 C385 1.459 . S
C386 C387 1.445 . S
C386 C395 1.395 1_655 S
C387 C365 1.432 . S
C387 C386 1.445 . S
C387 C388 1.370 . S
C388 C387 1.370 . S
C388 C389 1.438 1_655 S
C388 H450 0.930 . S
C389 C375 1.497 . S
C389 C388 1.438 1_455 S
C389 C390 1.360 . S
C390 C389 1.360 . S
C390 C391 1.401 . S
C390 C395 1.446 . S
C391 C390 1.401 . S
C391 C392 1.347 . S
C391 H451 0.929 . S
C392 C391 1.347 . S
C392 C393 1.455 . S
C392 H452 0.930 . S
C393 C380 1.412 . S
C393 C392 1.455 . S
C393 C394 1.331 . S
C394 C383 1.451 . S
C394 C393 1.331 . S
C394 C395 1.497 . S
C395 C386 1.395 1_455 S
C395 C390 1.446 . S
C395 C394 1.497 . S
C396 C397 1.582 . S
C396 H453 0.962 . S
C396 H454 0.959 . S
C396 H455 0.958 . S
C397 C396 1.582 . S
C397 O400 1.458 . S
C397 H426 0.980 . S
O398 C343 1.426 . S
O398 C344 1.334 . S
O399 C371 1.412 . S
O399 C372 1.393 . S
O400 C362 1.435 . S
O400 C397 1.458 . S
O401 C353 1.468 . S
O401 C354 1.408 . S
H402 C343 0.980 . S
H403 C342 0.959 . S
H404 C342 0.959 . S
H405 C342 0.960 . S
H406 C345 0.929 . S
H407 C349 0.929 . S
H408 C350 0.959 . S
H409 C350 0.961 . S
H410 C350 0.961 . S
H411 C351 0.960 . S
H412 C351 0.960 . S
H413 C351 0.961 . S
H414 C353 0.980 . S
H415 C352 0.961 . S
H416 C352 0.960 . S
H417 C352 0.959 . S
H418 C355 0.930 . S
H419 C359 0.931 . S
H420 C360 0.959 . S
H421 C360 0.961 . S
H422 C360 0.959 1_655 S
H423 C361 0.960 . S
H424 C361 0.960 . S
H425 C361 0.960 1_655 S
H426 C397 0.980 . S
H427 C363 0.930 . S
H428 C367 0.930 . S
H429 C368 0.961 . S
H430 C368 0.960 . S
H431 C368 0.958 . S
H432 C369 0.961 . S
H433 C369 0.960 . S
H434 C369 0.960 . S
H435 C371 0.980 . S
H436 C370 0.961 . S
H437 C370 0.961 . S
H438 C370 0.959 . S
H439 C373 0.932 . S
H440 C377 0.929 . S
H441 C378 0.961 . S
H442 C378 0.959 . S
H443 C378 0.959 . S
H444 C379 0.960 . S
H445 C379 0.962 . S
H446 C379 0.961 . S
H447 C381 0.929 . S
H448 C384 0.930 . S
H449 C385 0.929 . S
H450 C388 0.930 . S
H451 C391 0.929 . S
H452 C392 0.930 . S
H453 C396 0.962 . S
H454 C396 0.959 . S
H455 C396 0.958 . S
C456 C457 1.560 . S
C456 H517 0.959 . S
C456 H518 0.959 . S
C456 H519 0.960 . S
C457 C456 1.560 . S
C457 O512 1.426 . S
C457 H516 0.980 . S
C458 C459 1.407 . S
C458 C463 1.418 . S
C458 O512 1.334 . S
C459 C458 1.407 . S
C459 C460 1.360 . S
C459 H520 0.929 . S
C460 C459 1.360 . S
C460 C461 1.401 . S
C460 C464 1.527 . S
C461 C460 1.401 . S
C461 C462 1.405 . S
C461 C494 1.587 . S
C462 C461 1.405 . S
C462 C463 1.332 . S
C462 C465 1.496 . S
C463 C458 1.418 . S
C463 C462 1.332 . S
C463 H521 0.929 . S
C464 C460 1.527 . S
C464 H522 0.959 . S
C464 H523 0.961 . S
C464 H524 0.961 . S
C465 C462 1.496 . S
C465 H525 0.960 . S
C465 H526 0.960 . S
C465 H527 0.961 . S
C466 C467 1.517 . S
C466 H529 0.961 . S
C466 H530 0.960 . S
C466 H531 0.959 . S
C467 C466 1.517 . S
C467 O515 1.468 . S
C467 H528 0.980 . S
C468 C469 1.349 . S
C468 C473 1.367 . S
C468 O515 1.408 . S
C469 C468 1.349 . S
C469 C470 1.407 . S
C469 H532 0.930 . S
C470 C469 1.407 . S
C470 C471 1.449 . S
C470 C474 1.535 . S
C471 C470 1.449 . S
C471 C472 1.384 . S
C471 C496 1.553 . S
C472 C471 1.384 . S
C472 C473 1.364 . S
C472 C475 1.450 . S
C473 C468 1.367 . S
C473 C472 1.364 . S
C473 H533 0.931 . S
C474 C470 1.535 . S
C474 H534 0.959 . S
C474 H535 0.961 . S
C474 H536 0.959 . S
C475 C472 1.450 . S
C475 H537 0.960 . S
C475 H538 0.960 . S
C475 H539 0.960 . S
C476 C477 1.309 . S
C476 C481 1.304 . S
C476 O514 1.435 . S
C477 C476 1.309 . S
C477 C478 1.476 . S
C477 H541 0.930 . S
C478 C477 1.476 . S
C478 C479 1.400 . S
C478 C482 1.567 . S
C479 C478 1.400 . S
C479 C480 1.373 . S
C479 C501 1.432 . S
C480 C479 1.373 . S
C480 C481 1.339 . S
C480 C483 1.530 . S
C481 C476 1.304 . S
C481 C480 1.339 . S
C481 H542 0.930 . S
C482 C478 1.567 . S
C482 H543 0.961 . S
C482 H544 0.960 . S
C482 H545 0.958 . S
C483 C480 1.530 . S
C483 H546 0.961 . S
C483 H547 0.960 . S
C483 H548 0.960 . S
C484 C485 1.530 . S
C484 H550 0.961 . S
C484 H551 0.961 . S
C484 H552 0.959 . S
C485 C484 1.530 . S
C485 O513 1.412 . S
C485 H549 0.980 . S
C486 C487 1.288 . S
C486 C491 1.377 . S
C486 O513 1.393 . S
C487 C486 1.288 . S
C487 C488 1.372 . S
C487 H553 0.932 . S
C488 C487 1.372 . S
C488 C489 1.395 1_565 S
C488 C492 1.527 1_565 S
C489 C488 1.395 1_545 S
C489 C490 1.380 1_545 S
C489 C503 1.497 . S
C490 C489 1.380 1_565 S
C490 C491 1.383 . S
C490 C493 1.603 . S
C491 C486 1.377 . S
C491 C490 1.383 . S
C491 H554 0.929 . S
C492 C488 1.527 1_545 S
C492 H555 0.961 . S
C492 H556 0.959 . S
C492 H557 0.959 . S
C493 C490 1.603 . S
C493 H558 0.960 . S
C493 H559 0.962 1_565 S
C493 H560 0.961 . S
C494 C461 1.587 . S
C494 C495 1.360 . S
C494 C507 1.412 . S
C495 C494 1.360 . S
C495 C496 1.365 1_565 S
C495 H561 0.929 . S
C496 C471 1.553 . S
C496 C495 1.365 1_545 S
C496 C497 1.404 . S
C497 C496 1.404 . S
C497 C498 1.395 . S
C497 C508 1.451 . S
C498 C497 1.395 . S
C498 C499 1.322 . S
C498 H562 0.930 . S
C499 C498 1.322 . S
C499 C500 1.457 1_556 S
C499 H563 0.929 . S
C500 C499 1.457 1_554 S
C500 C501 1.447 . S
C500 C509 1.395 1_554 S
C501 C479 1.432 . S
C501 C500 1.447 . S
C501 C502 1.370 . S
C502 C501 1.370 . S
C502 C503 1.438 . S
C502 H564 0.930 . S
C503 C489 1.497 . S
C503 C502 1.438 . S
C503 C504 1.360 . S
C504 C503 1.360 . S
C504 C505 1.401 1_545 S
C504 C509 1.446 1_554 S
C505 C504 1.401 1_565 S
C505 C506 1.347 1_554 S
C505 H565 0.929 . S
C506 C505 1.347 1_556 S
C506 C507 1.455 . S
C506 H566 0.930 . S
C507 C494 1.412 . S
C507 C506 1.455 . S
C507 C508 1.331 1_565 S
C508 C497 1.451 . S
C508 C507 1.331 1_545 S
C508 C509 1.497 . S
C509 C500 1.395 1_556 S
C509 C504 1.446 1_556 S
C509 C508 1.497 . S
C510 C511 1.582 . S
C510 H567 0.962 . S
C510 H568 0.959 . S
C510 H569 0.958 . S
C511 C510 1.582 . S
C511 O514 1.458 . S
C511 H540 0.980 . S
O512 C457 1.426 . S
O512 C458 1.334 . S
O513 C485 1.412 . S
O513 C486 1.393 . S
O514 C476 1.435 . S
O514 C511 1.458 . S
O515 C467 1.468 . S
O515 C468 1.408 . S
H516 C457 0.980 . S
H517 C456 0.959 . S
H518 C456 0.959 . S
H519 C456 0.960 . S
H520 C459 0.929 . S
H521 C463 0.929 . S
H522 C464 0.959 . S
H523 C464 0.961 . S
H524 C464 0.961 . S
H525 C465 0.960 . S
H526 C465 0.960 . S
H527 C465 0.961 . S
H528 C467 0.980 . S
H529 C466 0.961 . S
H530 C466 0.960 . S
H531 C466 0.959 . S
H532 C469 0.930 . S
H533 C473 0.931 . S
H534 C474 0.959 . S
H535 C474 0.961 . S
H536 C474 0.959 . S
H537 C475 0.960 . S
H538 C475 0.960 . S
H539 C475 0.960 . S
H540 C511 0.980 . S
H541 C477 0.930 . S
H542 C481 0.930 . S
H543 C482 0.961 . S
H544 C482 0.960 . S
H545 C482 0.958 . S
H546 C483 0.961 . S
H547 C483 0.960 . S
H548 C483 0.960 . S
H549 C485 0.980 . S
H550 C484 0.961 . S
H551 C484 0.961 . S
H552 C484 0.959 . S
H553 C487 0.932 . S
H554 C491 0.929 . S
H555 C492 0.961 . S
H556 C492 0.959 . S
H557 C492 0.959 . S
H558 C493 0.960 . S
H559 C493 0.962 1_545 S
H560 C493 0.961 . S
H561 C495 0.929 . S
H562 C498 0.930 . S
H563 C499 0.929 . S
H564 C502 0.930 . S
H565 C505 0.929 . S
H566 C506 0.930 . S
H567 C510 0.962 . S
H568 C510 0.959 . S
H569 C510 0.958 . S
C570 C571 1.560 . S
C570 H631 0.959 . S
C570 H632 0.959 . S
C570 H633 0.960 . S
C571 C570 1.560 . S
C571 O626 1.426 . S
C571 H630 0.980 . S
C572 C573 1.407 . S
C572 C577 1.418 . S
C572 O626 1.334 . S
C573 C572 1.407 . S
C573 C574 1.360 . S
C573 H634 0.929 . S
C574 C573 1.360 . S
C574 C575 1.401 . S
C574 C578 1.527 . S
C575 C574 1.401 . S
C575 C576 1.405 . S
C575 C608 1.587 . S
C576 C575 1.405 . S
C576 C577 1.332 . S
C576 C579 1.496 . S
C577 C572 1.418 . S
C577 C576 1.332 . S
C577 H635 0.929 . S
C578 C574 1.527 . S
C578 H636 0.959 . S
C578 H637 0.961 . S
C578 H638 0.961 . S
C579 C576 1.496 . S
C579 H639 0.960 . S
C579 H640 0.960 . S
C579 H641 0.961 . S
C580 C581 1.517 . S
C580 H643 0.961 . S
C580 H644 0.960 . S
C580 H645 0.959 . S
C581 C580 1.517 . S
C581 O629 1.468 . S
C581 H642 0.980 . S
C582 C583 1.349 . S
C582 C587 1.367 . S
C582 O629 1.408 . S
C583 C582 1.349 . S
C583 C584 1.407 . S
C583 H646 0.930 . S
C584 C583 1.407 . S
C584 C585 1.449 . S
C584 C588 1.535 . S
C585 C584 1.449 . S
C585 C586 1.384 . S
C585 C610 1.553 . S
C586 C585 1.384 . S
C586 C587 1.364 . S
C586 C589 1.450 . S
C587 C582 1.367 . S
C587 C586 1.364 . S
C587 H647 0.931 . S
C588 C584 1.535 . S
C588 H648 0.959 . S
C588 H649 0.961 . S
C588 H650 0.959 . S
C589 C586 1.450 . S
C589 H651 0.960 . S
C589 H652 0.960 . S
C589 H653 0.960 . S
C590 C591 1.309 . S
C590 C595 1.304 . S
C590 O628 1.435 . S
C591 C590 1.309 . S
C591 C592 1.476 . S
C591 H655 0.930 . S
C592 C591 1.476 . S
C592 C593 1.400 . S
C592 C596 1.567 . S
C593 C592 1.400 . S
C593 C594 1.373 . S
C593 C615 1.432 . S
C594 C593 1.373 . S
C594 C595 1.339 . S
C594 C597 1.530 . S
C595 C590 1.304 . S
C595 C594 1.339 . S
C595 H656 0.930 . S
C596 C592 1.567 . S
C596 H657 0.961 . S
C596 H658 0.960 . S
C596 H659 0.958 . S
C597 C594 1.530 . S
C597 H660 0.961 . S
C597 H661 0.960 . S
C597 H662 0.960 . S
C598 C599 1.530 . S
C598 H664 0.961 . S
C598 H665 0.961 . S
C598 H666 0.959 . S
C599 C598 1.530 . S
C599 O627 1.412 . S
C599 H663 0.980 . S
C600 C601 1.288 . S
C600 C605 1.377 . S
C600 O627 1.393 . S
C601 C600 1.288 . S
C601 C602 1.369 . S
C601 H667 0.932 . S
C602 C601 1.369 . S
C602 C603 1.398 . S
C602 C606 1.527 . S
C603 C602 1.398 . S
C603 C604 1.380 . S
C603 C617 1.497 . S
C604 C603 1.380 . S
C604 C605 1.383 . S
C604 C607 1.603 . S
C605 C600 1.377 . S
C605 C604 1.383 . S
C605 H668 0.929 . S
C606 C602 1.527 . S
C606 H669 0.961 . S
C606 H670 0.959 . S
C606 H671 0.959 . S
C607 C604 1.603 . S
C607 H672 0.960 . S
C607 H673 0.962 . S
C607 H674 0.961 . S
C608 C575 1.587 . S
C608 C609 1.360 . S
C608 C621 1.412 . S
C609 C608 1.360 . S
C609 C610 1.365 . S
C609 H675 0.929 . S
C610 C585 1.553 . S
C610 C609 1.365 . S
C610 C611 1.404 . S
C611 C610 1.404 . S
C611 C612 1.395 . S
C611 C622 1.451 . S
C612 C611 1.395 . S
C612 C613 1.322 . S
C612 H676 0.930 . S
C613 C612 1.322 . S
C613 C614 1.459 . S
C613 H677 0.929 . S
C614 C613 1.459 . S
C614 C615 1.445 . S
C614 C623 1.395 . S
C615 C593 1.432 . S
C615 C614 1.445 . S
C615 C616 1.370 . S
C616 C615 1.370 . S
C616 C617 1.438 . S
C616 H678 0.930 . S
C617 C603 1.497 . S
C617 C616 1.438 . S
C617 C618 1.360 . S
C618 C617 1.360 . S
C618 C619 1.401 . S
C618 C623 1.446 . S
C619 C618 1.401 . S
C619 C620 1.347 . S
C619 H679 0.929 . S
C620 C619 1.347 . S
C620 C621 1.455 . S
C620 H680 0.930 . S
C621 C608 1.412 . S
C621 C620 1.455 . S
C621 C622 1.331 . S
C622 C611 1.451 . S
C622 C621 1.331 . S
C622 C623 1.497 . S
C623 C614 1.395 . S
C623 C618 1.446 . S
C623 C622 1.497 . S
C624 C625 1.582 . S
C624 H681 0.962 . S
C624 H682 0.959 . S
C624 H683 0.958 . S
C625 C624 1.582 . S
C625 O628 1.458 . S
C625 H654 0.980 . S
O626 C571 1.426 . S
O626 C572 1.334 . S
O627 C599 1.412 . S
O627 C600 1.393 . S
O628 C590 1.435 . S
O628 C625 1.458 . S
O629 C581 1.468 . S
O629 C582 1.408 . S
H630 C571 0.980 . S
H631 C570 0.959 . S
H632 C570 0.959 . S
H633 C570 0.960 . S
H634 C573 0.929 . S
H635 C577 0.929 . S
H636 C578 0.959 . S
H637 C578 0.961 . S
H638 C578 0.961 . S
H639 C579 0.960 . S
H640 C579 0.960 . S
H641 C579 0.961 . S
H642 C581 0.980 . S
H643 C580 0.961 . S
H644 C580 0.960 . S
H645 C580 0.959 . S
H646 C583 0.930 . S
H647 C587 0.931 . S
H648 C588 0.959 . S
H649 C588 0.961 . S
H650 C588 0.959 . S
H651 C589 0.960 . S
H652 C589 0.960 . S
H653 C589 0.960 . S
H654 C625 0.980 . S
H655 C591 0.930 . S
H656 C595 0.930 . S
H657 C596 0.961 . S
H658 C596 0.960 . S
H659 C596 0.958 . S
H660 C597 0.961 . S
H661 C597 0.960 . S
H662 C597 0.960 . S
H663 C599 0.980 . S
H664 C598 0.961 . S
H665 C598 0.961 . S
H666 C598 0.959 . S
H667 C601 0.932 . S
H668 C605 0.929 . S
H669 C606 0.961 . S
H670 C606 0.959 . S
H671 C606 0.959 . S
H672 C607 0.960 . S
H673 C607 0.962 . S
H674 C607 0.961 . S
H675 C609 0.929 . S
H676 C612 0.930 . S
H677 C613 0.929 . S
H678 C616 0.930 . S
H679 C619 0.929 . S
H680 C620 0.930 . S
H681 C624 0.962 . S
H682 C624 0.959 . S
H683 C624 0.958 . S
In684 O685 2.294 . S
In684 O686 2.326 . S
In684 O690 2.266 . S
In684 O691 2.326 . S
In684 O692 2.266 . S
In684 O693 2.326 . S
In684 O695 2.294 . S
In684 O696 2.326 . S
O685 In684 2.294 . S
O685 C694 1.240 . S
O686 In684 2.326 . S
O686 C694 1.252 . S
C687 O690 1.252 . S
C687 O691 1.260 . S
C688 O695 1.240 . S
C688 O696 1.252 . S
C689 O692 1.252 . S
C689 O693 1.260 . S
O690 In684 2.266 . S
O690 C687 1.252 . S
O691 In684 2.326 . S
O691 C687 1.260 . S
O692 In684 2.266 . S
O692 C689 1.252 . S
O693 In684 2.326 . S
O693 C689 1.260 . S
C694 O685 1.240 . S
C694 O686 1.252 . S
O695 In684 2.294 . S
O695 C688 1.240 . S
O696 In684 2.326 . S
O696 C688 1.252 . S
In697 O698 2.294 . S
In697 O699 2.326 . S
In697 O703 2.266 . S
In697 O704 2.326 . S
In697 O705 2.266 . S
In697 O706 2.326 . S
In697 O708 2.294 . S
In697 O709 2.326 . S
O698 In697 2.294 . S
O698 C707 1.240 . S
O699 In697 2.326 . S
O699 C707 1.252 . S
C700 O703 1.252 . S
C700 O704 1.260 . S
C701 O708 1.240 . S
C701 O709 1.252 . S
C702 O705 1.252 . S
C702 O706 1.260 . S
O703 In697 2.266 . S
O703 C700 1.252 . S
O704 In697 2.326 . S
O704 C700 1.260 . S
O705 In697 2.266 . S
O705 C702 1.252 . S
O706 In697 2.326 . S
O706 C702 1.260 . S
C707 O698 1.240 . S
C707 O699 1.252 . S
O708 In697 2.294 . S
O708 C701 1.240 . S
O709 In697 2.326 . S
O709 C701 1.252 . S
In710 O711 2.294 . S
In710 O712 2.326 . S
In710 O716 2.266 . S
In710 O717 2.326 . S
In710 O718 2.266 . S
In710 O719 2.326 . S
In710 O721 2.294 . S
In710 O722 2.326 . S
O711 In710 2.294 . S
O711 C720 1.240 . S
O712 In710 2.326 . S
O712 C720 1.252 . S
C713 O716 1.252 . S
C713 O717 1.260 . S
C714 O721 1.240 . S
C714 O722 1.252 . S
C715 O718 1.252 . S
C715 O719 1.260 . S
O716 In710 2.266 . S
O716 C713 1.252 . S
O717 In710 2.326 . S
O717 C713 1.260 . S
O718 In710 2.266 . S
O718 C715 1.252 . S
O719 In710 2.326 . S
O719 C715 1.260 . S
C720 O711 1.240 . S
C720 O712 1.252 . S
O721 In710 2.294 . S
O721 C714 1.240 . S
O722 In710 2.326 . S
O722 C714 1.252 . S
In723 O724 2.294 . S
In723 O725 2.326 . S
In723 O729 2.266 . S
In723 O730 2.326 . S
In723 O731 2.266 . S
In723 O732 2.326 . S
In723 O734 2.294 . S
In723 O735 2.326 . S
O724 In723 2.294 . S
O724 C733 1.240 . S
O725 In723 2.326 . S
O725 C733 1.252 . S
C726 O729 1.252 . S
C726 O730 1.260 . S
C727 O734 1.240 . S
C727 O735 1.252 . S
C728 O731 1.252 . S
C728 O732 1.260 . S
O729 In723 2.266 . S
O729 C726 1.252 . S
O730 In723 2.326 . S
O730 C726 1.260 . S
O731 In723 2.266 . S
O731 C728 1.252 . S
O732 In723 2.326 . S
O732 C728 1.260 . S
C733 O724 1.240 . S
C733 O725 1.252 . S
O734 In723 2.294 . S
O734 C727 1.240 . S
O735 In723 2.326 . S
O735 C727 1.252 . S
In736 O737 2.294 . S
In736 O738 2.326 . S
In736 O742 2.266 . S
In736 O743 2.326 . S
In736 O744 2.266 . S
In736 O745 2.326 . S
In736 O747 2.294 . S
In736 O748 2.326 . S
O737 In736 2.294 . S
O737 C746 1.240 . S
O738 In736 2.326 . S
O738 C746 1.252 . S
C739 O742 1.252 . S
C739 O743 1.260 . S
C740 O747 1.240 . S
C740 O748 1.252 . S
C741 O744 1.252 . S
C741 O745 1.260 . S
O742 In736 2.266 . S
O742 C739 1.252 . S
O743 In736 2.326 . S
O743 C739 1.260 . S
O744 In736 2.266 . S
O744 C741 1.252 . S
O745 In736 2.326 . S
O745 C741 1.260 . S
C746 O737 1.240 . S
C746 O738 1.252 . S
O747 In736 2.294 . S
O747 C740 1.240 . S
O748 In736 2.326 . S
O748 C740 1.252 . S
In749 O750 2.294 . S
In749 O751 2.326 . S
In749 O755 2.266 . S
In749 O756 2.326 . S
In749 O757 2.266 . S
In749 O758 2.326 . S
In749 O760 2.294 . S
In749 O761 2.326 . S
O750 In749 2.294 . S
O750 C759 1.240 . S
O751 In749 2.326 . S
O751 C759 1.252 . S
C752 O755 1.252 . S
C752 O756 1.260 . S
C753 O760 1.240 . S
C753 O761 1.252 . S
C754 O757 1.252 . S
C754 O758 1.260 . S
O755 In749 2.266 . S
O755 C752 1.252 . S
O756 In749 2.326 . S
O756 C752 1.260 . S
O757 In749 2.266 . S
O757 C754 1.252 . S
O758 In749 2.326 . S
O758 C754 1.260 . S
C759 O750 1.240 . S
C759 O751 1.252 . S
O760 In749 2.294 . S
O760 C753 1.240 . S
O761 In749 2.326 . S
O761 C753 1.252 . S
H762 C770 0.950 . S
H763 C775 0.950 . S
H764 C772 0.950 . S
H765 C774 0.950 . S
H766 C776 0.950 . S
H767 C778 0.950 . S
H768 C780 0.950 . S
H769 C781 0.950 . S
C770 H762 0.950 . S
C770 C771 1.386 . S
C770 C772 1.391 . S
C771 C770 1.386 . S
C771 C775 1.393 . S
C772 H764 0.950 . S
C772 C770 1.391 . S
C772 C773 1.400 . S
C773 C772 1.400 . S
C773 C774 1.398 . S
C773 C779 1.491 . S
C774 H765 0.950 . S
C774 C773 1.398 . S
C774 C775 1.391 . S
C775 H763 0.950 . S
C775 C771 1.393 . S
C775 C774 1.391 . S
C776 H766 0.950 . S
C776 C777 1.386 . S
C776 C778 1.391 . S
C777 C776 1.386 . S
C777 C781 1.393 . S
C778 H767 0.950 . S
C778 C776 1.391 . S
C778 C779 1.400 . S
C779 C773 1.491 . S
C779 C778 1.400 . S
C779 C780 1.398 . S
C780 H768 0.950 . S
C780 C779 1.398 . S
C780 C781 1.391 . S
C781 H769 0.950 . S
C781 C777 1.393 . S
C781 C780 1.391 . S
H782 C790 0.950 . S
H783 C795 0.950 . S
H784 C792 0.950 . S
H785 C794 0.950 . S
H786 C796 0.950 . S
H787 C798 0.950 . S
H788 C800 0.950 . S
H789 C801 0.950 . S
C790 H782 0.950 . S
C790 C791 1.386 . S
C790 C792 1.391 . S
C791 C790 1.386 . S
C791 C795 1.393 . S
C792 H784 0.950 . S
C792 C790 1.391 . S
C792 C793 1.400 . S
C793 C792 1.400 . S
C793 C794 1.398 . S
C793 C799 1.491 . S
C794 H785 0.950 . S
C794 C793 1.398 . S
C794 C795 1.391 . S
C795 H783 0.950 . S
C795 C791 1.393 . S
C795 C794 1.391 . S
C796 H786 0.950 . S
C796 C797 1.386 . S
C796 C798 1.391 . S
C797 C796 1.386 . S
C797 C801 1.393 . S
C798 H787 0.950 . S
C798 C796 1.391 . S
C798 C799 1.400 . S
C799 C793 1.491 . S
C799 C798 1.400 . S
C799 C800 1.398 . S
C800 H788 0.950 . S
C800 C799 1.398 . S
C800 C801 1.391 . S
C801 H789 0.950 . S
C801 C797 1.393 . S
C801 C800 1.391 . S
H802 C810 0.950 . S
H803 C815 0.950 . S
H804 C812 0.950 . S
H805 C814 0.950 . S
H806 C816 0.950 . S
H807 C818 0.950 . S
H808 C820 0.950 . S
H809 C821 0.950 . S
C810 H802 0.950 . S
C810 C811 1.386 . S
C810 C812 1.391 . S
C811 C810 1.386 . S
C811 C815 1.393 . S
C812 H804 0.950 . S
C812 C810 1.391 . S
C812 C813 1.400 . S
C813 C812 1.400 . S
C813 C814 1.398 . S
C813 C819 1.491 . S
C814 H805 0.950 . S
C814 C813 1.398 . S
C814 C815 1.391 . S
C815 H803 0.950 . S
C815 C811 1.393 . S
C815 C814 1.391 . S
C816 H806 0.950 . S
C816 C817 1.386 . S
C816 C818 1.391 . S
C817 C816 1.386 . S
C817 C821 1.393 . S
C818 H807 0.950 . S
C818 C816 1.391 . S
C818 C819 1.400 . S
C819 C813 1.491 . S
C819 C818 1.400 . S
C819 C820 1.398 . S
C820 H808 0.950 . S
C820 C819 1.398 . S
C820 C821 1.391 . S
C821 H809 0.950 . S
C821 C817 1.393 . S
C821 C820 1.391 . S
H822 C830 0.950 . S
H823 C835 0.950 . S
H824 C832 0.950 . S
H825 C834 0.950 . S
H826 C836 0.950 . S
H827 C838 0.950 . S
H828 C840 0.950 . S
H829 C841 0.950 . S
C830 H822 0.950 . S
C830 C831 1.386 . S
C830 C832 1.391 . S
C831 C830 1.386 . S
C831 C835 1.393 . S
C832 H824 0.950 . S
C832 C830 1.391 . S
C832 C833 1.400 . S
C833 C832 1.400 . S
C833 C834 1.398 . S
C833 C839 1.491 . S
C834 H825 0.950 . S
C834 C833 1.398 . S
C834 C835 1.391 . S
C835 H823 0.950 . S
C835 C831 1.393 . S
C835 C834 1.391 . S
C836 H826 0.950 . S
C836 C837 1.386 . S
C836 C838 1.391 . S
C837 C836 1.386 . S
C837 C841 1.393 . S
C838 H827 0.950 . S
C838 C836 1.391 . S
C838 C839 1.400 . S
C839 C833 1.491 . S
C839 C838 1.400 . S
C839 C840 1.398 . S
C840 H828 0.950 . S
C840 C839 1.398 . S
C840 C841 1.391 . S
C841 H829 0.950 . S
C841 C837 1.393 . S
C841 C840 1.391 . S
H842 C850 0.950 . S
H843 C855 0.950 . S
H844 C852 0.950 . S
H845 C854 0.950 . S
H846 C856 0.950 . S
H847 C858 0.950 . S
H848 C860 0.950 . S
H849 C861 0.950 . S
C850 H842 0.950 . S
C850 C851 1.386 . S
C850 C852 1.391 . S
C851 C850 1.386 . S
C851 C855 1.393 . S
C852 H844 0.950 . S
C852 C850 1.391 . S
C852 C853 1.400 . S
C853 C852 1.400 . S
C853 C854 1.398 . S
C853 C859 1.491 . S
C854 H845 0.950 . S
C854 C853 1.398 . S
C854 C855 1.391 . S
C855 H843 0.950 . S
C855 C851 1.393 . S
C855 C854 1.391 . S
C856 H846 0.950 . S
C856 C857 1.386 . S
C856 C858 1.391 . S
C857 C856 1.386 . S
C857 C861 1.393 . S
C858 H847 0.950 . S
C858 C856 1.391 . S
C858 C859 1.400 . S
C859 C853 1.491 . S
C859 C858 1.400 . S
C859 C860 1.398 . S
C860 H848 0.950 . S
C860 C859 1.398 . S
C860 C861 1.391 . S
C861 H849 0.950 . S
C861 C857 1.393 . S
C861 C860 1.391 . S
H862 C870 0.950 . S
H863 C875 0.950 . S
H864 C872 0.950 . S
H865 C874 0.950 . S
H866 C876 0.950 . S
H867 C878 0.950 . S
H868 C880 0.950 . S
H869 C881 0.950 . S
C870 H862 0.950 . S
C870 C871 1.386 . S
C870 C872 1.391 . S
C871 C870 1.386 . S
C871 C875 1.393 . S
C872 H864 0.950 . S
C872 C870 1.391 . S
C872 C873 1.400 . S
C873 C872 1.400 . S
C873 C874 1.398 . S
C873 C879 1.491 . S
C874 H865 0.950 . S
C874 C873 1.398 . S
C874 C875 1.391 . S
C875 H863 0.950 . S
C875 C871 1.393 . S
C875 C874 1.391 . S
C876 H866 0.950 . S
C876 C877 1.386 . S
C876 C878 1.391 . S
C877 C876 1.386 . S
C877 C881 1.393 . S
C878 H867 0.950 . S
C878 C876 1.391 . S
C878 C879 1.400 . S
C879 C873 1.491 . S
C879 C878 1.400 . S
C879 C880 1.398 . S
C880 H868 0.950 . S
C880 C879 1.398 . S
C880 C881 1.391 . S
C881 H869 0.950 . S
C881 C877 1.393 . S
C881 C880 1.391 . S
H882 C890 0.950 . S
H883 C895 0.950 . S
H884 C892 0.950 . S
H885 C894 0.950 . S
H886 C896 0.950 . S
H887 C898 0.950 . S
H888 C900 0.950 . S
H889 C901 0.950 . S
C890 H882 0.950 . S
C890 C891 1.386 . S
C890 C892 1.391 . S
C891 C890 1.386 . S
C891 C895 1.393 . S
C892 H884 0.950 . S
C892 C890 1.391 . S
C892 C893 1.400 . S
C893 C892 1.400 . S
C893 C894 1.398 . S
C893 C899 1.491 . S
C894 H885 0.950 . S
C894 C893 1.398 . S
C894 C895 1.391 . S
C895 H883 0.950 . S
C895 C891 1.393 . S
C895 C894 1.391 . S
C896 H886 0.950 . S
C896 C897 1.386 . S
C896 C898 1.391 . S
C897 C896 1.386 . S
C897 C901 1.393 . S
C898 H887 0.950 . S
C898 C896 1.391 . S
C898 C899 1.400 . S
C899 C893 1.491 . S
C899 C898 1.400 . S
C899 C900 1.398 . S
C900 H888 0.950 . S
C900 C899 1.398 . S
C900 C901 1.391 . S
C901 H889 0.950 . S
C901 C897 1.393 . S
C901 C900 1.391 . S
H902 C910 0.950 . S
H903 C915 0.950 . S
H904 C912 0.950 . S
H905 C914 0.950 . S
H906 C916 0.950 . S
H907 C918 0.950 . S
H908 C920 0.950 . S
H909 C921 0.950 . S
C910 H902 0.950 . S
C910 C911 1.386 . S
C910 C912 1.391 . S
C911 C910 1.386 . S
C911 C915 1.393 . S
C912 H904 0.950 . S
C912 C910 1.391 . S
C912 C913 1.400 . S
C913 C912 1.400 . S
C913 C914 1.398 . S
C913 C919 1.491 . S
C914 H905 0.950 . S
C914 C913 1.398 . S
C914 C915 1.391 . S
C915 H903 0.950 . S
C915 C911 1.393 . S
C915 C914 1.391 . S
C916 H906 0.950 . S
C916 C917 1.386 . S
C916 C918 1.391 . S
C917 C916 1.386 . S
C917 C921 1.393 . S
C918 H907 0.950 . S
C918 C916 1.391 . S
C918 C919 1.400 . S
C919 C913 1.491 . S
C919 C918 1.400 . S
C919 C920 1.398 . S
C920 H908 0.950 . S
C920 C919 1.398 . S
C920 C921 1.391 . S
C921 H909 0.950 . S
C921 C917 1.393 . S
C921 C920 1.391 . S
H922 C930 0.950 . S
H923 C935 0.950 . S
H924 C932 0.950 . S
H925 C934 0.950 . S
H926 C936 0.950 . S
H927 C938 0.950 . S
H928 C940 0.950 . S
H929 C941 0.950 . S
C930 H922 0.950 . S
C930 C931 1.386 . S
C930 C932 1.391 . S
C931 C930 1.386 . S
C931 C935 1.393 . S
C932 H924 0.950 . S
C932 C930 1.391 . S
C932 C933 1.400 . S
C933 C932 1.400 . S
C933 C934 1.398 . S
C933 C939 1.491 . S
C934 H925 0.950 . S
C934 C933 1.398 . S
C934 C935 1.391 . S
C935 H923 0.950 . S
C935 C931 1.393 . S
C935 C934 1.391 . S
C936 H926 0.950 . S
C936 C937 1.386 . S
C936 C938 1.391 . S
C937 C936 1.386 . S
C937 C941 1.393 . S
C938 H927 0.950 . S
C938 C936 1.391 . S
C938 C939 1.400 . S
C939 C933 1.491 . S
C939 C938 1.400 . S
C939 C940 1.398 . S
C940 H928 0.950 . S
C940 C939 1.398 . S
C940 C941 1.391 . S
C941 H929 0.950 . S
C941 C937 1.393 . S
C941 C940 1.391 . S
H942 C950 0.950 . S
H943 C955 0.950 . S
H944 C952 0.950 . S
H945 C954 0.950 . S
H946 C956 0.950 . S
H947 C958 0.950 . S
H948 C960 0.950 . S
H949 C961 0.950 . S
C950 H942 0.950 . S
C950 C951 1.386 . S
C950 C952 1.391 . S
C951 C950 1.386 . S
C951 C955 1.393 . S
C952 H944 0.950 . S
C952 C950 1.391 . S
C952 C953 1.400 . S
C953 C952 1.400 . S
C953 C954 1.398 . S
C953 C959 1.491 . S
C954 H945 0.950 . S
C954 C953 1.398 . S
C954 C955 1.391 . S
C955 H943 0.950 . S
C955 C951 1.393 . S
C955 C954 1.391 . S
C956 H946 0.950 . S
C956 C957 1.386 . S
C956 C958 1.391 . S
C957 C956 1.386 . S
C957 C961 1.393 . S
C958 H947 0.950 . S
C958 C956 1.391 . S
C958 C959 1.400 . S
C959 C953 1.491 . S
C959 C958 1.400 . S
C959 C960 1.398 . S
C960 H948 0.950 . S
C960 C959 1.398 . S
C960 C961 1.391 . S
C961 H949 0.950 . S
C961 C957 1.393 . S
C961 C960 1.391 . S
H962 C970 0.950 . S
H963 C975 0.950 . S
H964 C972 0.950 . S
H965 C974 0.950 . S
H966 C976 0.950 . S
H967 C978 0.950 . S
H968 C980 0.950 . S
H969 C981 0.950 . S
C970 H962 0.950 . S
C970 C971 1.386 . S
C970 C972 1.391 . S
C971 C970 1.386 . S
C971 C975 1.393 . S
C972 H964 0.950 . S
C972 C970 1.391 . S
C972 C973 1.400 . S
C973 C972 1.400 . S
C973 C974 1.398 . S
C973 C979 1.491 . S
C974 H965 0.950 . S
C974 C973 1.398 . S
C974 C975 1.391 . S
C975 H963 0.950 . S
C975 C971 1.393 . S
C975 C974 1.391 . S
C976 H966 0.950 . S
C976 C977 1.386 . S
C976 C978 1.391 . S
C977 C976 1.386 . S
C977 C981 1.393 . S
C978 H967 0.950 . S
C978 C976 1.391 . S
C978 C979 1.400 . S
C979 C973 1.491 . S
C979 C978 1.400 . S
C979 C980 1.398 . S
C980 H968 0.950 . S
C980 C979 1.398 . S
C980 C981 1.391 . S
C981 H969 0.950 . S
C981 C977 1.393 . S
C981 C980 1.391 . S
H982 C990 0.950 . S
H983 C995 0.950 . S
H984 C992 0.950 . S
H985 C994 0.950 . S
H986 C996 0.950 . S
H987 C998 0.950 . S
H988 C1000 0.950 . S
H989 C1001 0.950 . S
C990 H982 0.950 . S
C990 C991 1.386 . S
C990 C992 1.391 . S
C991 C990 1.386 . S
C991 C995 1.393 . S
C992 H984 0.950 . S
C992 C990 1.391 . S
C992 C993 1.400 . S
C993 C992 1.400 . S
C993 C994 1.398 . S
C993 C999 1.491 . S
C994 H985 0.950 . S
C994 C993 1.398 . S
C994 C995 1.391 . S
C995 H983 0.950 . S
C995 C991 1.393 . S
C995 C994 1.391 . S
C996 H986 0.950 . S
C996 C997 1.386 . S
C996 C998 1.391 . S
C997 C996 1.386 . S
C997 C1001 1.393 . S
C998 H987 0.950 . S
C998 C996 1.391 . S
C998 C999 1.400 . S
C999 C993 1.491 . S
C999 C998 1.400 . S
C999 C1000 1.398 . S
C1000 H988 0.950 . S
C1000 C999 1.398 . S
C1000 C1001 1.391 . S
C1001 H989 0.950 . S
C1001 C997 1.393 . S
C1001 C1000 1.391 . S
H1002 C1010 0.950 . S
H1003 C1015 0.950 . S
H1004 C1012 0.950 . S
H1005 C1014 0.950 . S
H1006 C1016 0.950 . S
H1007 C1018 0.950 . S
H1008 C1020 0.950 . S
H1009 C1021 0.950 . S
C1010 H1002 0.950 . S
C1010 C1011 1.386 . S
C1010 C1012 1.391 . S
C1011 C1010 1.386 . S
C1011 C1015 1.393 . S
C1012 H1004 0.950 . S
C1012 C1010 1.391 . S
C1012 C1013 1.400 . S
C1013 C1012 1.400 . S
C1013 C1014 1.398 . S
C1013 C1019 1.491 . S
C1014 H1005 0.950 . S
C1014 C1013 1.398 . S
C1014 C1015 1.391 . S
C1015 H1003 0.950 . S
C1015 C1011 1.393 . S
C1015 C1014 1.391 . S
C1016 H1006 0.950 . S
C1016 C1017 1.386 . S
C1016 C1018 1.391 . S
C1017 C1016 1.386 . S
C1017 C1021 1.393 . S
C1018 H1007 0.950 . S
C1018 C1016 1.391 . S
C1018 C1019 1.400 . S
C1019 C1013 1.491 . S
C1019 C1018 1.400 . S
C1019 C1020 1.398 . S
C1020 H1008 0.950 . S
C1020 C1019 1.398 . S
C1020 C1021 1.391 . S
C1021 H1009 0.950 . S
C1021 C1017 1.393 . S
C1021 C1020 1.391 . S
H1022 C1030 0.950 . S
H1023 C1035 0.950 . S
H1024 C1032 0.950 . S
H1025 C1034 0.950 . S
H1026 C1036 0.950 . S
H1027 C1038 0.950 . S
H1028 C1040 0.950 . S
H1029 C1041 0.950 . S
C1030 H1022 0.950 . S
C1030 C1031 1.386 . S
C1030 C1032 1.391 . S
C1031 C1030 1.386 . S
C1031 C1035 1.393 . S
C1032 H1024 0.950 . S
C1032 C1030 1.391 . S
C1032 C1033 1.400 . S
C1033 C1032 1.400 . S
C1033 C1034 1.398 . S
C1033 C1039 1.491 . S
C1034 H1025 0.950 . S
C1034 C1033 1.398 . S
C1034 C1035 1.391 . S
C1035 H1023 0.950 . S
C1035 C1031 1.393 . S
C1035 C1034 1.391 . S
C1036 H1026 0.950 . S
C1036 C1037 1.386 . S
C1036 C1038 1.391 . S
C1037 C1036 1.386 . S
C1037 C1041 1.393 . S
C1038 H1027 0.950 . S
C1038 C1036 1.391 . S
C1038 C1039 1.400 . S
C1039 C1033 1.491 . S
C1039 C1038 1.400 . S
C1039 C1040 1.398 . S
C1040 H1028 0.950 . S
C1040 C1039 1.398 . S
C1040 C1041 1.391 . S
C1041 H1029 0.950 . S
C1041 C1037 1.393 . S
C1041 C1040 1.391 . S
H1042 C1050 0.950 . S
H1043 C1055 0.950 . S
H1044 C1052 0.950 . S
H1045 C1054 0.950 . S
H1046 C1056 0.950 . S
H1047 C1058 0.950 . S
H1048 C1060 0.950 . S
H1049 C1061 0.950 . S
C1050 H1042 0.950 . S
C1050 C1051 1.386 . S
C1050 C1052 1.391 . S
C1051 C1050 1.386 . S
C1051 C1055 1.393 . S
C1052 H1044 0.950 . S
C1052 C1050 1.391 . S
C1052 C1053 1.400 . S
C1053 C1052 1.400 . S
C1053 C1054 1.398 . S
C1053 C1059 1.491 . S
C1054 H1045 0.950 . S
C1054 C1053 1.398 . S
C1054 C1055 1.391 . S
C1055 H1043 0.950 . S
C1055 C1051 1.393 . S
C1055 C1054 1.391 . S
C1056 H1046 0.950 . S
C1056 C1057 1.386 . S
C1056 C1058 1.391 . S
C1057 C1056 1.386 . S
C1057 C1061 1.393 . S
C1058 H1047 0.950 . S
C1058 C1056 1.391 . S
C1058 C1059 1.400 . S
C1059 C1053 1.491 . S
C1059 C1058 1.400 . S
C1059 C1060 1.398 . S
C1060 H1048 0.950 . S
C1060 C1059 1.398 . S
C1060 C1061 1.391 . S
C1061 H1049 0.950 . S
C1061 C1057 1.393 . S
C1061 C1060 1.391 . S
H1062 C1070 0.950 . S
H1063 C1075 0.950 . S
H1064 C1072 0.950 . S
H1065 C1074 0.950 . S
H1066 C1076 0.950 . S
H1067 C1078 0.950 . S
H1068 C1080 0.918 1_556 S
H1069 C1081 0.950 . S
C1070 H1062 0.950 . S
C1070 C1071 1.386 . S
C1070 C1072 1.391 . S
C1071 C1070 1.386 . S
C1071 C1075 1.393 . S
C1072 H1064 0.950 . S
C1072 C1070 1.391 . S
C1072 C1073 1.400 . S
C1073 C1072 1.400 . S
C1073 C1074 1.398 . S
C1073 C1079 1.491 . S
C1074 H1065 0.950 . S
C1074 C1073 1.398 . S
C1074 C1075 1.391 . S
C1075 H1063 0.950 . S
C1075 C1071 1.393 . S
C1075 C1074 1.391 . S
C1076 H1066 0.950 . S
C1076 C1077 1.386 . S
C1076 C1078 1.391 . S
C1077 C1076 1.386 . S
C1077 C1081 1.393 . S
C1078 H1067 0.950 . S
C1078 C1076 1.391 . S
C1078 C1079 1.400 1_554 S
C1079 C1073 1.491 . S
C1079 C1078 1.400 1_556 S
C1079 C1080 1.381 1_556 S
C1080 H1068 0.918 1_554 S
C1080 C1079 1.381 1_554 S
C1080 C1081 1.442 . S
C1081 H1069 0.950 . S
C1081 C1077 1.393 . S
C1081 C1080 1.442 . S
H1082 C1090 0.950 . S
H1083 C1095 0.950 . S
H1084 C1092 0.950 . S
H1085 C1094 0.950 . S
H1086 C1096 0.950 . S
H1087 C1098 0.950 . S
H1088 C1100 0.950 . S
H1089 C1101 0.950 . S
C1090 H1082 0.950 . S
C1090 C1091 1.386 . S
C1090 C1092 1.391 . S
C1091 C1090 1.386 . S
C1091 C1095 1.393 . S
C1092 H1084 0.950 . S
C1092 C1090 1.391 . S
C1092 C1093 1.400 . S
C1093 C1092 1.400 . S
C1093 C1094 1.398 . S
C1093 C1099 1.491 . S
C1094 H1085 0.950 . S
C1094 C1093 1.398 . S
C1094 C1095 1.391 . S
C1095 H1083 0.950 . S
C1095 C1091 1.393 . S
C1095 C1094 1.391 . S
C1096 H1086 0.950 . S
C1096 C1097 1.386 . S
C1096 C1098 1.391 . S
C1097 C1096 1.386 . S
C1097 C1101 1.393 . S
C1098 H1087 0.950 . S
C1098 C1096 1.391 . S
C1098 C1099 1.400 . S
C1099 C1093 1.491 . S
C1099 C1098 1.400 . S
C1099 C1100 1.398 . S
C1100 H1088 0.950 . S
C1100 C1099 1.398 . S
C1100 C1101 1.391 . S
C1101 H1089 0.950 . S
C1101 C1097 1.393 . S
C1101 C1100 1.391 . S
H1102 C1110 0.950 . S
H1103 C1115 0.950 . S
H1104 C1112 0.950 . S
H1105 C1114 0.950 . S
H1106 C1116 0.950 . S
H1107 C1118 0.950 . S
H1108 C1120 0.950 . S
H1109 C1121 0.950 . S
C1110 H1102 0.950 . S
C1110 C1111 1.386 . S
C1110 C1112 1.391 . S
C1111 C1110 1.386 . S
C1111 C1115 1.393 . S
C1112 H1104 0.950 . S
C1112 C1110 1.391 . S
C1112 C1113 1.400 . S
C1113 C1112 1.400 . S
C1113 C1114 1.398 . S
C1113 C1119 1.491 . S
C1114 H1105 0.950 . S
C1114 C1113 1.398 . S
C1114 C1115 1.391 . S
C1115 H1103 0.950 . S
C1115 C1111 1.393 . S
C1115 C1114 1.391 . S
C1116 H1106 0.950 . S
C1116 C1117 1.386 . S
C1116 C1118 1.391 . S
C1117 C1116 1.386 . S
C1117 C1121 1.393 . S
C1118 H1107 0.950 . S
C1118 C1116 1.391 . S
C1118 C1119 1.400 . S
C1119 C1113 1.491 . S
C1119 C1118 1.400 . S
C1119 C1120 1.398 . S
C1120 H1108 0.950 . S
C1120 C1119 1.398 . S
C1120 C1121 1.391 . S
C1121 H1109 0.950 . S
C1121 C1117 1.393 . S
C1121 C1120 1.391 . S
H1122 C1130 0.950 . S
H1123 C1135 0.950 . S
H1124 C1132 0.950 . S
H1125 C1134 0.950 . S
H1126 C1136 0.950 . S
H1127 C1138 0.950 . S
H1128 C1140 0.950 . S
H1129 C1141 0.950 . S
C1130 H1122 0.950 . S
C1130 C1131 1.386 . S
C1130 C1132 1.391 . S
C1131 C1130 1.386 . S
C1131 C1135 1.393 . S
C1132 H1124 0.950 . S
C1132 C1130 1.391 . S
C1132 C1133 1.400 . S
C1133 C1132 1.400 . S
C1133 C1134 1.398 . S
C1133 C1139 1.491 . S
C1134 H1125 0.950 . S
C1134 C1133 1.398 . S
C1134 C1135 1.391 . S
C1135 H1123 0.950 . S
C1135 C1131 1.393 . S
C1135 C1134 1.391 . S
C1136 H1126 0.950 . S
C1136 C1137 1.386 . S
C1136 C1138 1.391 . S
C1137 C1136 1.386 . S
C1137 C1141 1.393 . S
C1138 H1127 0.950 . S
C1138 C1136 1.391 . S
C1138 C1139 1.400 . S
C1139 C1133 1.491 . S
C1139 C1138 1.400 . S
C1139 C1140 1.398 . S
C1140 H1128 0.950 . S
C1140 C1139 1.398 . S
C1140 C1141 1.391 . S
C1141 H1129 0.950 . S
C1141 C1137 1.393 . S
C1141 C1140 1.391 . S
H1142 C1150 0.950 . S
H1143 C1155 0.950 . S
H1144 C1152 0.950 . S
H1145 C1154 0.950 . S
H1146 C1156 0.950 . S
H1147 C1158 0.950 . S
H1148 C1160 0.950 . S
H1149 C1161 0.950 . S
C1150 H1142 0.950 . S
C1150 C1151 1.386 . S
C1150 C1152 1.391 . S
C1151 C1150 1.386 . S
C1151 C1155 1.393 . S
C1152 H1144 0.950 . S
C1152 C1150 1.391 . S
C1152 C1153 1.400 . S
C1153 C1152 1.400 . S
C1153 C1154 1.398 . S
C1153 C1159 1.491 . S
C1154 H1145 0.950 . S
C1154 C1153 1.398 . S
C1154 C1155 1.391 . S
C1155 H1143 0.950 . S
C1155 C1151 1.393 . S
C1155 C1154 1.391 . S
C1156 H1146 0.950 . S
C1156 C1157 1.386 . S
C1156 C1158 1.391 . S
C1157 C1156 1.386 . S
C1157 C1161 1.393 . S
C1158 H1147 0.950 . S
C1158 C1156 1.391 . S
C1158 C1159 1.400 . S
C1159 C1153 1.491 . S
C1159 C1158 1.400 . S
C1159 C1160 1.398 . S
C1160 H1148 0.950 . S
C1160 C1159 1.398 . S
C1160 C1161 1.391 . S
C1161 H1149 0.950 . S
C1161 C1157 1.393 . S
C1161 C1160 1.391 . S
H1162 C1170 0.950 . S
H1163 C1175 0.950 . S
H1164 C1172 0.950 . S
H1165 C1174 0.950 . S
H1166 C1176 0.950 . S
H1167 C1178 0.950 . S
H1168 C1180 0.950 . S
H1169 C1181 0.950 . S
C1170 H1162 0.950 . S
C1170 C1171 1.386 . S
C1170 C1172 1.391 . S
C1171 C1170 1.386 . S
C1171 C1175 1.393 . S
C1172 H1164 0.950 . S
C1172 C1170 1.391 . S
C1172 C1173 1.400 . S
C1173 C1172 1.400 . S
C1173 C1174 1.398 . S
C1173 C1179 1.491 . S
C1174 H1165 0.950 . S
C1174 C1173 1.398 . S
C1174 C1175 1.391 . S
C1175 H1163 0.950 . S
C1175 C1171 1.393 . S
C1175 C1174 1.391 . S
C1176 H1166 0.950 . S
C1176 C1177 1.386 . S
C1176 C1178 1.391 . S
C1177 C1176 1.386 . S
C1177 C1181 1.393 . S
C1178 H1167 0.950 . S
C1178 C1176 1.391 . S
C1178 C1179 1.400 . S
C1179 C1173 1.491 . S
C1179 C1178 1.400 . S
C1179 C1180 1.398 . S
C1180 H1168 0.950 . S
C1180 C1179 1.398 . S
C1180 C1181 1.391 . S
C1181 H1169 0.950 . S
C1181 C1177 1.393 . S
C1181 C1180 1.391 . S
H1182 C1190 0.950 . S
H1183 C1195 0.950 . S
H1184 C1192 0.950 . S
H1185 C1194 0.950 . S
H1186 C1196 0.950 . S
H1187 C1198 0.950 . S
H1188 C1200 0.950 . S
H1189 C1201 0.950 . S
C1190 H1182 0.950 . S
C1190 C1191 1.386 . S
C1190 C1192 1.391 . S
C1191 C1190 1.386 . S
C1191 C1195 1.393 . S
C1192 H1184 0.950 . S
C1192 C1190 1.391 . S
C1192 C1193 1.400 . S
C1193 C1192 1.400 . S
C1193 C1194 1.398 . S
C1193 C1199 1.491 . S
C1194 H1185 0.950 . S
C1194 C1193 1.398 . S
C1194 C1195 1.391 . S
C1195 H1183 0.950 . S
C1195 C1191 1.393 . S
C1195 C1194 1.391 . S
C1196 H1186 0.950 . S
C1196 C1197 1.386 . S
C1196 C1198 1.391 . S
C1197 C1196 1.386 . S
C1197 C1201 1.393 . S
C1198 H1187 0.950 . S
C1198 C1196 1.391 . S
C1198 C1199 1.400 . S
C1199 C1193 1.491 . S
C1199 C1198 1.400 . S
C1199 C1200 1.398 . S
C1200 H1188 0.950 . S
C1200 C1199 1.398 . S
C1200 C1201 1.391 . S
C1201 H1189 0.950 . S
C1201 C1197 1.393 . S
C1201 C1200 1.391 . S
H1202 C1210 0.950 . S
H1203 C1215 0.950 . S
H1204 C1212 0.950 . S
H1205 C1214 0.950 . S
H1206 C1216 0.950 . S
H1207 C1218 0.950 . S
H1208 C1220 0.950 . S
H1209 C1221 0.950 . S
C1210 H1202 0.950 . S
C1210 C1211 1.386 . S
C1210 C1212 1.391 . S
C1211 C1210 1.386 . S
C1211 C1215 1.393 . S
C1212 H1204 0.950 . S
C1212 C1210 1.391 . S
C1212 C1213 1.400 . S
C1213 C1212 1.400 . S
C1213 C1214 1.398 . S
C1213 C1219 1.491 1_554 S
C1214 H1205 0.950 . S
C1214 C1213 1.398 . S
C1214 C1215 1.391 . S
C1215 H1203 0.950 . S
C1215 C1211 1.393 . S
C1215 C1214 1.391 . S
C1216 H1206 0.950 . S
C1216 C1217 1.386 . S
C1216 C1218 1.391 . S
C1217 C1216 1.386 . S
C1217 C1221 1.393 . S
C1218 H1207 0.950 . S
C1218 C1216 1.391 . S
C1218 C1219 1.400 . S
C1219 C1213 1.491 1_556 S
C1219 C1218 1.400 . S
C1219 C1220 1.398 . S
C1220 H1208 0.950 . S
C1220 C1219 1.398 . S
C1220 C1221 1.391 . S
C1221 H1209 0.950 . S
C1221 C1217 1.393 . S
C1221 C1220 1.391 . S
H1222 C1230 0.950 . S
H1223 C1235 0.950 . S
H1224 C1232 0.950 . S
H1225 C1234 0.950 . S
H1226 C1236 0.950 . S
H1227 C1238 0.950 . S
H1228 C1240 0.950 . S
H1229 C1241 0.950 . S
C1230 H1222 0.950 . S
C1230 C1231 1.386 . S
C1230 C1232 1.391 . S
C1231 C1230 1.386 . S
C1231 C1235 1.393 . S
C1232 H1224 0.950 . S
C1232 C1230 1.391 . S
C1232 C1233 1.400 . S
C1233 C1232 1.400 . S
C1233 C1234 1.398 . S
C1233 C1239 1.491 . S
C1234 H1225 0.950 . S
C1234 C1233 1.398 . S
C1234 C1235 1.391 . S
C1235 H1223 0.950 . S
C1235 C1231 1.393 . S
C1235 C1234 1.391 . S
C1236 H1226 0.950 . S
C1236 C1237 1.386 . S
C1236 C1238 1.391 . S
C1237 C1236 1.386 . S
C1237 C1241 1.393 . S
C1238 H1227 0.950 . S
C1238 C1236 1.391 . S
C1238 C1239 1.400 . S
C1239 C1233 1.491 . S
C1239 C1238 1.400 . S
C1239 C1240 1.398 . S
C1240 H1228 0.950 . S
C1240 C1239 1.398 . S
C1240 C1241 1.391 . S
C1241 H1229 0.950 . S
C1241 C1237 1.393 . S
C1241 C1240 1.391 . S
C777 C754 1.593 . S
C771 C1 1.198 . S
C791 C169 1.365 . S
C797 C689 1.722 . S
C811 C283 1.328 . S
C817 C707 1.695 . S
C831 C397 1.192 . S
C837 C720 1.541 . S
C857 C728 1.429 . S
C851 C457 1.133 . S
C871 C571 1.129 . S
C877 C740 1.452 . S
C891 C115 1.242 . S
C897 C702 1.584 . S
C911 C229 1.137 . S
C917 C715 1.456 . S
C931 C343 1.068 . S
C937 C733 1.424 . S
C957 C739 1.558 . S
C951 C511 1.254 . S
C977 C759 1.680 . S
C971 C625 1.341 . S
C997 C694 1.725 . S
C991 C55 1.395 . S
C1011 C29 1.311 . S
C1017 C700 1.536 . S
C1031 C125 0.896 . S
C1037 C713 1.646 . S
C1057 C727 1.569 . S
C1051 C239 0.848 . S
C1071 C353 0.881 . S
C1077 C741 1.576 . S
C1097 C753 1.459 . S
C1091 C485 1.246 . S
C1117 C688 1.542 . S
C1111 C599 1.271 . S
C1137 C752 1.550 . S
C1131 C143 1.290 . S
C1151 C257 1.301 . S
C1157 C687 1.533 . S
C1177 C701 1.466 . S
C1171 C371 1.266 . S
C1191 C467 0.923 . S
C1197 C714 1.564 . S
C1211 C581 0.902 . S
C1217 C726 1.588 . S
C1231 C11 0.908 . S
C1237 C746 1.636 . S
