# Generated by pormake.
# Topology pth, (4,4)-cn, num edge types: 1
# Building blocks:
#     Node 0, Type 0, BuildingBlock: KUFVIS_clean_sbu_0, # of connection points: 4
#     Node 1, Type 0, BuildingBlock: KUFVIS_clean_sbu_0, # of connection points: 4
#     Node 2, Type 0, BuildingBlock: KUFVIS_clean_sbu_0, # of connection points: 4
#     Node 3, Type 1, BuildingBlock: AZAVOO_clean_linker_0, # of connection points: 4
#     Node 4, Type 1, BuildingBlock: AZAVOO_clean_linker_0, # of connection points: 4
#     Node 5, Type 1, BuildingBlock: AZAVOO_clean_linker_0, # of connection points: 4
#     Edge 6, Type (0, 1), BuildingBlock: ZUJKAS_clean_linker_0, # of connection points: 2
#     Edge 7, Type (0, 1), BuildingBlock: ZUJKAS_clean_linker_0, # of connection points: 2
#     Edge 8, Type (0, 1), BuildingBlock: ZUJKAS_clean_linker_0, # of connection points: 2
#     Edge 9, Type (0, 1), BuildingBlock: ZUJKAS_clean_linker_0, # of connection points: 2
#     Edge 10, Type (0, 1), BuildingBlock: ZUJKAS_clean_linker_0, # of connection points: 2
#     Edge 11, Type (0, 1), BuildingBlock: ZUJKAS_clean_linker_0, # of connection points: 2
#     Edge 12, Type (0, 1), BuildingBlock: ZUJKAS_clean_linker_0, # of connection points: 2
#     Edge 13, Type (0, 1), BuildingBlock: ZUJKAS_clean_linker_0, # of connection points: 2
#     Edge 14, Type (0, 1), BuildingBlock: ZUJKAS_clean_linker_0, # of connection points: 2
#     Edge 15, Type (0, 1), BuildingBlock: ZUJKAS_clean_linker_0, # of connection points: 2
#     Edge 16, Type (0, 1), BuildingBlock: ZUJKAS_clean_linker_0, # of connection points: 2
#     Edge 17, Type (0, 1), BuildingBlock: ZUJKAS_clean_linker_0, # of connection points: 2
# Relax obj value: 0.103
# Max RMSD: 0.224
# Mean RMSD: 0.161
data_MOF--net-pth--node1-KUFVIS_clean_sbu_0--node2-AZAVOO_clean_linker_0--edge1-ZUJKAS_clean_linker_0
_symmetry_space_group_name_H-M    P1
_symmetry_Int_Tables_number       1
_symmetry_cell_setting            triclinic
loop_
_symmetry_equiv_pos_as_xyz
'x, y, z'
_cell_length_a     32.59387
_cell_length_b     32.871049
_cell_length_c     89.641481
_cell_angle_alpha  92.579184
_cell_angle_beta   90.943475
_cell_angle_gamma 120.24477
loop_
_atom_site_label
_atom_site_type_symbol
_atom_site_fract_x
_atom_site_fract_y
_atom_site_fract_z
_atom_type_partial_charge
Mn0 Mn 0.07848 0.08447 0.06967 0.0
Mn1 Mn 0.01761 0.13229 0.05506 0.0
C2 C 0.03848 0.0551 0.04682 0.0
C3 C 0.08094 0.03245 0.08586 0.0
C4 C 0.12507 0.1784 0.05522 0.0
O5 O 0.07375 0.12309 0.08719 0.0
O6 O 0.02439 0.1447 0.07713 0.0
C7 C 0.92396 0.07201 0.06775 0.0
N8 N 0.95075 0.08957 0.05564 0.0
C9 C 0.88191 0.0477 0.03883 0.0
C10 C 0.85352 0.02938 0.05113 0.0
C11 C 0.87467 0.0415 0.06564 0.0
C12 C 0.93081 0.07801 0.04162 0.0
H13 H 0.94012 0.08117 0.07892 0.0
C14 C 0.04801 0.14205 0.08824 0.0
O15 O 0.11968 0.06937 0.0821 0.0
O16 O 0.04104 0.0258 0.08015 0.0
N17 N 0.00806 0.12258 0.03378 0.0
C18 C 0.04071 0.14156 0.02309 0.0
C19 C 0.02547 0.13225 0.00794 0.0
C20 C 0.97685 0.10384 0.00394 0.0
C21 C 0.94388 0.0849 0.01513 0.0
C22 C 0.96112 0.09579 0.03004 0.0
H23 H 0.0781 0.16362 0.02608 0.0
O24 O 0.07179 0.04662 0.0508 0.0
O25 O 0.02872 0.07924 0.05653 0.0
O26 O 0.12802 0.14449 0.06045 0.0
O27 O 0.08605 0.17843 0.0536 0.0
C28 C 0.89468 0.05513 0.01206 0.0
C29 C 0.86373 0.03643 0.0239 0.0
H30 H 0.81551 0.00569 0.04955 0.0
H31 H 0.85302 0.02733 0.07519 0.0
H32 H 0.05113 0.14697 -0.00063 0.0
H33 H 0.96528 0.09673 0.99224 0.0
H34 H 0.88035 0.04588 0.00063 0.0
H35 H 0.82607 0.01305 0.02139 0.0
Mn36 Mn 0.00204 0.05661 0.39993 0.0
Mn37 Mn 0.06954 0.16702 0.41575 0.0
C38 C 0.05767 0.07134 0.41871 0.0
C39 C 0.98906 -0.00067 0.38128 0.0
C40 C 0.96738 0.1014 0.42335 0.0
O41 O 0.99236 0.09687 0.38526 0.0
O42 O 0.04244 0.16905 0.39602 0.0
C43 C 0.14628 0.20292 0.39423 0.0
N44 N 0.13223 0.19419 0.40852 0.0
C45 C 0.21306 0.22764 0.41794 0.0
C46 C 0.22844 0.23723 0.40333 0.0
C47 C 0.19487 0.22464 0.39141 0.0
C48 C 0.16416 0.20565 0.42004 0.0
H49 H 0.12059 0.19339 0.38504 0.0
C50 C 0.01318 0.14178 0.38547 0.0
O51 O 0.95412 0.99731 0.38863 0.0
O52 O 0.03105 0.03544 0.38443 0.0
N53 N 0.09859 0.17092 0.4349 0.0
C54 C 0.07785 0.15854 0.44829 0.0
C55 C 0.1065 0.16809 0.46133 0.0
C56 C 0.15616 0.19102 0.46051 0.0
C57 C 0.17673 0.20437 0.44665 0.0
C58 C 0.14639 0.1938 0.43403 0.0
H59 H 0.03973 0.14128 0.44902 0.0
O60 O 0.02304 0.02872 0.41546 0.0
O61 O 0.05961 0.10402 0.41059 0.0
O62 O 0.96051 0.0659 0.41497 0.0
O63 O 0.00606 0.14119 0.42409 0.0
C64 C 0.22616 0.22767 0.44485 0.0
C65 C 0.2443 0.2389 0.4305 0.0
H66 H 0.2659 0.25409 0.40112 0.0
H67 H 0.20645 0.23178 0.3801 0.0
H68 H 0.09035 0.15787 0.472 0.0
H69 H 0.17814 0.1982 0.47058 0.0
H70 H 0.25055 0.23683 0.45443 0.0
H71 H 0.28233 0.25621 0.42924 0.0
Mn72 Mn 0.05514 0.0894 0.73757 0.0
Mn73 Mn 0.01804 0.15508 0.75652 0.0
C74 C 0.10208 0.1419 0.75686 0.0
C75 C 0.09566 0.07925 0.71797 0.0
C76 C 0.98148 0.05218 0.76168 0.0
O77 O 0.00241 0.08372 0.72374 0.0
O78 O 0.98108 0.12932 0.73711 0.0
C79 C 0.05058 0.23274 0.73605 0.0
N80 N 0.05106 0.21783 0.74995 0.0
C81 C 0.10407 0.29733 0.75982 0.0
C82 C 0.1039 0.31358 0.74563 0.0
C83 C 0.07712 0.28112 0.73369 0.0
C84 C 0.0768 0.24874 0.7615 0.0
H85 H 0.03014 0.20792 0.72683 0.0
C86 C 0.97702 0.10287 0.72555 0.0
O87 O 0.0634 0.04329 0.72462 0.0
O88 O 0.10262 0.12048 0.7223 0.0
N89 N 0.0511 0.18264 0.77539 0.0
C90 C 0.04921 0.16103 0.78819 0.0
C91 C 0.0752 0.18846 0.8011 0.0
C92 C 0.10243 0.23778 0.80075 0.0
C93 C 0.10329 0.25926 0.7875 0.0
C94 C 0.07659 0.23013 0.775 0.0
H95 H 0.02835 0.12313 0.78852 0.0
O96 O 0.10758 0.10672 0.75269 0.0
O97 O 0.06932 0.14547 0.74957 0.0
O98 O 0.00616 0.04573 0.75196 0.0
O99 O 0.98323 0.0916 0.76423 0.0
C100 C 0.13013 0.30838 0.78614 0.0
C101 C 0.13069 0.32738 0.7723 0.0
H102 H 0.12446 0.35084 0.74375 0.0
H103 H 0.07698 0.29336 0.72269 0.0
H104 H 0.07435 0.17161 0.81128 0.0
H105 H 0.1227 0.2588 0.81069 0.0
H106 H 0.15085 0.33183 0.79564 0.0
H107 H 0.15199 0.36514 0.77135 0.0
H108 H 0.00529 0.5001 0.13683 0.0
H109 H 0.07421 0.85268 0.26951 0.0
H110 H 0.93902 0.45035 0.21735 0.0
H111 H 0.93528 0.3802 0.20536 0.0
H112 H 0.08329 0.43574 0.21838 0.0
H113 H 0.08577 0.50469 0.23091 0.0
H114 H 0.9593 0.53872 0.1967 0.0
H115 H 0.96556 0.52057 0.17034 0.0
H116 H 0.1059 0.54268 0.1803 0.0
H117 H 0.09932 0.56123 0.20659 0.0
H118 H 0.96446 0.62975 0.21436 0.0
H119 H 0.97735 0.68797 0.19623 0.0
H120 H 0.12007 0.71413 0.19069 0.0
H121 H 0.10735 0.6572 0.20934 0.0
H122 H 0.94725 0.62434 0.24728 0.0
H123 H 0.95059 0.69601 0.25776 0.0
H124 H 0.10272 0.77337 0.25295 0.0
H125 H 0.09892 0.70115 0.24269 0.0
H126 H 0.93095 0.5418 0.26409 0.0
H127 H 0.91578 0.57711 0.28641 0.0
H128 H 0.06631 0.67718 0.29252 0.0
H129 H 0.08104 0.64104 0.27045 0.0
H130 H 0.93159 0.45305 0.24938 0.0
H131 H 0.92237 0.39353 0.26665 0.0
H132 H 0.0688 0.4832 0.28247 0.0
H133 H 0.07714 0.54265 0.26542 0.0
O134 O 0.00366 0.50764 0.14729 0.0
O135 O 0.07558 0.51924 0.15301 0.0
O136 O 0.99329 0.78304 0.26682 0.0
O137 O 0.07178 0.82413 0.26506 0.0
C138 C 0.01656 0.52767 0.23004 0.0
C139 C 0.02448 0.56137 0.21953 0.0
C140 C 0.02701 0.60417 0.2242 0.0
C141 C 0.02122 0.61301 0.23933 0.0
C142 C 0.0139 0.57942 0.24987 0.0
C143 C 0.01152 0.53676 0.24521 0.0
C144 C 0.01269 0.48243 0.22489 0.0
C145 C 0.97021 0.44665 0.21789 0.0
C146 C 0.96834 0.40689 0.21095 0.0
C147 C 0.00921 0.40266 0.21069 0.0
C148 C 0.05105 0.43757 0.21847 0.0
C149 C 0.05267 0.4771 0.22558 0.0
C150 C 0.02879 0.55113 0.20352 0.0
C151 C 0.9914 0.53977 0.19314 0.0
C152 C 0.99505 0.52934 0.1781 0.0
C153 C 0.0362 0.53007 0.17321 0.0
C154 C 0.07369 0.54171 0.18369 0.0
C155 C 0.07002 0.55222 0.19871 0.0
C156 C 0.03501 0.63944 0.21317 0.0
C157 C -0.00142 0.64836 0.20929 0.0
C158 C 0.0059 0.68127 0.19883 0.0
C159 C 0.04971 0.70558 0.19196 0.0
C160 C 0.08614 0.69645 0.19589 0.0
C161 C 0.07885 0.66372 0.20644 0.0
C162 C 0.02286 0.65759 0.24428 0.0
C163 C 0.98121 0.65688 0.24843 0.0
C164 C 0.98323 0.69785 0.25441 0.0
C165 C 0.02698 0.7404 0.25626 0.0
C166 C 0.06849 0.74118 0.25173 0.0
C167 C 0.06642 0.70009 0.24578 0.0
C168 C 0.00702 0.58919 0.26563 0.0
C169 C 0.96077 0.5699 0.27067 0.0
C170 C 0.95215 0.5905 0.28329 0.0
C171 C 0.98975 0.63052 0.29103 0.0
C172 C 0.03659 0.6463 0.28686 0.0
C173 C 0.04515 0.62567 0.27426 0.0
C174 C 0.00498 0.50203 0.25622 0.0
C175 C 0.96145 0.45981 0.25669 0.0
C176 C 0.9564 0.42581 0.26647 0.0
C177 C 0.99487 0.43358 0.27593 0.0
C178 C 0.03825 0.47637 0.27551 0.0
C179 C 0.0432 0.51031 0.26576 0.0
C180 C 0.03985 0.51871 0.15725 0.0
C181 C 0.02946 0.7837 0.26301 0.0
H182 H 0.5591 0.05844 0.47304 0.0
H183 H 0.32107 0.18313 0.60307 0.0
H184 H 0.55146 0.01466 0.55154 0.0
H185 H 0.60706 0.00599 0.53552 0.0
H186 H 0.7184 0.14581 0.55067 0.0
H187 H 0.66212 0.15504 0.56636 0.0
H188 H 0.48667 0.03251 0.53323 0.0
H189 H 0.50485 0.03074 0.50691 0.0
H190 H 0.62927 0.16957 0.51432 0.0
H191 H 0.61021 0.17113 0.54056 0.0
H192 H 0.41464 0.03658 0.54932 0.0
H193 H 0.36258 0.03758 0.52946 0.0
H194 H 0.46054 0.18605 0.52532 0.0
H195 H 0.51307 0.18456 0.54507 0.0
H196 H 0.40757 0.04239 0.58516 0.0
H197 H 0.34428 0.053 0.59547 0.0
H198 H 0.42317 0.20066 0.58628 0.0
H199 H 0.48654 0.18965 0.57622 0.0
H200 H 0.4788 0.02971 0.60264 0.0
H201 H 0.43518 0.02548 0.62498 0.0
H202 H 0.4952 0.17663 0.62644 0.0
H203 H 0.53845 0.1804 0.60402 0.0
H204 H 0.55659 0.01815 0.58879 0.0
H205 H 0.61123 0.01218 0.60658 0.0
H206 H 0.68647 0.16357 0.61521 0.0
H207 H 0.63163 0.1691 0.5975 0.0
O208 O 0.55201 0.06027 0.48341 0.0
O209 O 0.61587 0.13141 0.48786 0.0
O210 O 0.30649 0.10181 0.60355 0.0
O211 O 0.34508 0.17774 0.59877 0.0
C212 C 0.5661 0.09579 0.56548 0.0
C213 C 0.53742 0.10208 0.5549 0.0
C214 C 0.49997 0.10837 0.55969 0.0
C215 C 0.49181 0.10965 0.57502 0.0
C216 C 0.52166 0.10515 0.58565 0.0
C217 C 0.5587 0.09804 0.58087 0.0
C218 C 0.60279 0.08557 0.56001 0.0
C219 C 0.58829 0.04274 0.55183 0.0
C220 C 0.61986 0.03788 0.54267 0.0
C221 C 0.66661 0.07537 0.54188 0.0
C222 C 0.68248 0.11642 0.55123 0.0
C223 C 0.65055 0.12162 0.56022 0.0
C224 C 0.5469 0.1021 0.53874 0.0
C225 C 0.51741 0.06277 0.52908 0.0
C226 C 0.52807 0.06175 0.51408 0.0
C227 C 0.56855 0.10001 0.50851 0.0
C228 C 0.5978 0.13954 0.51824 0.0
C229 C 0.58697 0.14057 0.53321 0.0
C230 C 0.4674 0.11047 0.54853 0.0
C231 C 0.42464 0.06933 0.54417 0.0
C232 C 0.39523 0.0699 0.53283 0.0
C233 C 0.4079 0.11183 0.52588 0.0
C234 C 0.45012 0.15339 0.53058 0.0
C235 C 0.47998 0.1526 0.54178 0.0
C236 C 0.45161 0.11528 0.58 0.0
C237 C 0.41094 0.07692 0.58531 0.0
C238 C 0.3749 0.0831 0.59121 0.0
C239 C 0.37874 0.12774 0.59174 0.0
C240 C 0.41911 0.16585 0.58606 0.0
C241 C 0.45524 0.15964 0.58024 0.0
C242 C 0.51134 0.10528 0.60167 0.0
C243 C 0.48436 0.06214 0.60822 0.0
C244 C 0.45927 0.05979 0.62095 0.0
C245 C 0.46099 0.10063 0.62723 0.0
C246 C 0.49258 0.14451 0.62165 0.0
C247 C 0.51773 0.14683 0.60897 0.0
C248 C 0.59033 0.09403 0.59193 0.0
C249 C 0.58476 0.04988 0.59461 0.0
C250 C 0.61581 0.04656 0.60475 0.0
C251 C 0.65314 0.08745 0.61219 0.0
C252 C 0.65834 0.13158 0.60949 0.0
C253 C 0.62699 0.13479 0.59949 0.0
C254 C 0.58037 0.09838 0.49265 0.0
C255 C 0.34114 0.13476 0.59836 0.0
H256 H 0.59586 0.73059 -0.00227 0.0
H257 H 0.35316 0.28677 0.88952 0.0
H258 H 0.59295 0.71857 0.91797 0.0
H259 H 0.65718 0.79226 0.92998 0.0
H260 H 0.7566 0.74451 0.92117 0.0
H261 H 0.69223 0.67119 0.90911 0.0
H262 H 0.51874 0.6399 0.93824 0.0
H263 H 0.5386 0.67801 0.96349 0.0
H264 H 0.66981 0.67511 0.96418 0.0
H265 H 0.64911 0.63628 0.93904 0.0
H266 H 0.44001 0.53495 0.92265 0.0
H267 H 0.39289 0.48841 0.94299 0.0
H268 H 0.5171 0.4923 0.96235 0.0
H269 H 0.56377 0.53742 0.94165 0.0
H270 H 0.43665 0.51847 0.88933 0.0
H271 H 0.37351 0.43748 0.88257 0.0
H272 H 0.45676 0.3853 0.9037 0.0
H273 H 0.52001 0.46655 0.91017 0.0
H274 H 0.50533 0.59669 0.87031 0.0
H275 H 0.46265 0.54847 0.84764 0.0
H276 H 0.51884 0.45669 0.85565 0.0
H277 H 0.56089 0.5049 0.87844 0.0
H278 H 0.59259 0.69972 0.88396 0.0
H279 H 0.643 0.74782 0.86445 0.0
H280 H 0.6959 0.65157 0.85781 0.0
H281 H 0.6464 0.60455 0.87768 0.0
O282 O 0.58841 0.71495 0.98783 0.0
O283 O 0.65586 0.71347 0.98749 0.0
O284 O 0.33636 0.34784 0.88126 0.0
O285 O 0.37736 0.31913 0.89219 0.0
C286 C 0.59795 0.64093 0.9094 0.0
C287 C 0.57123 0.61411 0.92124 0.0
C288 C 0.53357 0.56737 0.91824 0.0
C289 C 0.52253 0.54758 0.90341 0.0
C290 C 0.5494 0.57446 0.89159 0.0
C291 C 0.58726 0.62103 0.89458 0.0
C292 C 0.63801 0.68951 0.91286 0.0
C293 C 0.62893 0.72481 0.91821 0.0
C294 C 0.66552 0.76665 0.92512 0.0
C295 C 0.7117 0.77376 0.92672 0.0
C296 C 0.72145 0.74017 0.92004 0.0
C297 C 0.68477 0.69825 0.91315 0.0
C298 C 0.58252 0.63545 0.93681 0.0
C299 C 0.55155 0.64719 0.94392 0.0
C300 C 0.56308 0.66911 0.95831 0.0
C301 C 0.60588 0.67976 0.96583 0.0
C302 C 0.63662 0.66749 0.9587 0.0
C303 C 0.62492 0.64537 0.94434 0.0
C304 C 0.50524 0.53937 0.93064 0.0
C305 C 0.45693 0.52532 0.93119 0.0
C306 C 0.43015 0.49889 0.94279 0.0
C307 C 0.45151 0.48689 0.95418 0.0
C308 C 0.50001 0.50144 0.95373 0.0
C309 C 0.52658 0.52711 0.94195 0.0
C310 C 0.48295 0.49832 0.90017 0.0
C311 C 0.44115 0.48948 0.89248 0.0
C312 C 0.40514 0.4432 0.88865 0.0
C313 C 0.41015 0.40489 0.89256 0.0
C314 C 0.45179 0.41396 0.9005 0.0
C315 C 0.48788 0.4603 0.90426 0.0
C316 C 0.53565 0.55387 0.87604 0.0
C317 C 0.50978 0.56719 0.86685 0.0
C318 C 0.48542 0.53956 0.85391 0.0
C319 C 0.48675 0.49832 0.85003 0.0
C320 C 0.51648 0.48778 0.85854 0.0
C321 C 0.54082 0.51543 0.87145 0.0
C322 C 0.61602 0.64881 0.88225 0.0
C323 C 0.61506 0.68908 0.87826 0.0
C324 C 0.64358 0.71625 0.86704 0.0
C325 C 0.67348 0.70351 0.85957 0.0
C326 C 0.67372 0.66264 0.86346 0.0
C327 C 0.64524 0.63555 0.87471 0.0
C328 C 0.61838 0.7037 0.98103 0.0
C329 C 0.3723 0.35567 0.88831 0.0
H330 H -0.00273 0.18536 0.09514 0.0
H331 H 0.99179 0.21797 0.11946 0.0
H332 H 0.084 0.17494 0.13949 0.0
H333 H 0.09037 0.1425 0.11508 0.0
H334 H 0.95947 0.17121 0.14646 0.0
H335 H 0.1483 0.31725 0.15186 0.0
H336 H 0.12112 0.28498 0.13426 0.0
H337 H 0.13764 0.25831 0.1484 0.0
C338 C 0.01658 0.18283 0.10466 0.0
C339 C 0.04459 0.16158 0.10309 0.0
C340 C 0.01322 0.20137 0.11858 0.0
C341 C 0.03781 0.1992 0.13121 0.0
C342 C 0.06531 0.17752 0.1298 0.0
H343 H 0.05386 0.35236 0.21647 0.0
H344 H 0.05989 0.29538 0.19935 0.0
C345 C 0.06878 0.15893 0.11585 0.0
C346 C 0.0346 0.22036 0.14573 0.0
H347 H 0.09737 0.31594 0.17025 0.0
C348 C 0.98975 0.20243 0.15181 0.0
C349 C 0.07428 0.26081 0.15273 0.0
C350 C 0.12309 0.28184 0.1465 0.0
C351 C 0.98306 0.22525 0.16432 0.0
C352 C 0.02212 0.26734 0.17074 0.0
C353 C 0.06754 0.28362 0.16526 0.0
C354 C 0.01554 0.29826 0.18171 0.0
C355 C 0.93398 0.20498 0.17028 0.0
C356 C 0.98888 0.31878 0.17737 0.0
C357 C 0.98587 0.35159 0.18697 0.0
C358 C 0.00943 0.36461 0.20116 0.0
C359 C 0.03553 0.34333 0.20559 0.0
C360 C 0.03879 0.31061 0.19589 0.0
H361 H 0.91214 0.1664 0.16745 0.0
H362 H 0.93571 0.21149 0.1826 0.0
H363 H 0.91574 0.22206 0.16514 0.0
H364 H 0.97173 0.31065 0.16631 0.0
H365 H 0.96657 0.36812 0.18299 0.0
H366 H 0.90609 0.02193 0.43693 0.0
H367 H 0.85229 0.01493 0.45659 0.0
H368 H 0.89072 0.16019 0.45259 0.0
H369 H 0.94662 0.16801 0.43352 0.0
H370 H 0.89404 0.14539 0.48029 0.0
H371 H 0.72376 -0.00098 0.45566 0.0
H372 H 0.76782 0.98191 0.45704 0.0
H373 H 0.77637 0.02782 0.44501 0.0
C374 C 0.90234 0.05207 0.44006 0.0
C375 C 0.93027 0.09545 0.43367 0.0
C376 C 0.87139 0.04799 0.45126 0.0
C377 C 0.86673 0.08678 0.45593 0.0
C378 C 0.89363 0.12974 0.44919 0.0
H379 H 0.64701 0.07087 0.51237 0.0
H380 H 0.6967 0.07417 0.49179 0.0
C381 C 0.92541 0.13415 0.43826 0.0
C382 C 0.83651 0.08376 0.46853 0.0
H383 H 0.72557 0.01849 0.48177 0.0
C384 C 0.85705 0.11786 0.48054 0.0
C385 C 0.78812 0.04812 0.46883 0.0
C386 C 0.76263 0.0125 0.45586 0.0
C387 C 0.83069 0.11739 0.4928 0.0
C388 C 0.78295 0.08048 0.49342 0.0
C389 C 0.76236 0.04642 0.48141 0.0
C390 C 0.75293 0.07775 0.50605 0.0
C391 C 0.85401 0.15738 0.50468 0.0
C392 C 0.76766 0.07814 0.52092 0.0
C393 C 0.7397 0.07736 0.53271 0.0
C394 C 0.69599 0.07456 0.52971 0.0
C395 C 0.68057 0.07268 0.51486 0.0
C396 C 0.70889 0.07454 0.50314 0.0
H397 H 0.88436 0.18925 0.50031 0.0
H398 H 0.82833 0.16718 0.5091 0.0
H399 H 0.86811 0.14637 0.51406 0.0
H400 H 0.80078 0.07917 0.52343 0.0
H401 H 0.75196 0.07862 0.54412 0.0
H402 H 0.9253 0.05254 0.78396 0.0
H403 H 0.87518 0.98823 0.79949 0.0
H404 H 0.91584 0.89762 0.77594 0.0
H405 H 0.96599 0.96174 0.76013 0.0
H406 H 0.81709 0.85485 0.78037 0.0
H407 H 0.92448 0.94025 0.83298 0.0
H408 H 0.9076 0.97689 0.82348 0.0
H409 H 0.94663 0.96002 0.8148 0.0
C410 C 0.9237 0.019 0.78201 0.0
C411 C 0.94998 0.01249 0.77081 0.0
C412 C 0.89517 0.98234 0.79098 0.0
C413 C 0.89249 0.93851 0.78902 0.0
C414 C 0.91776 0.93138 0.77768 0.0
H415 H 0.76617 0.72862 0.8556 0.0
H416 H 0.81956 0.78094 0.8374 0.0
C417 C 0.94641 0.96809 0.76867 0.0
C418 C 0.86291 0.90019 0.7988 0.0
H419 H 0.84703 0.87386 0.83539 0.0
C420 C 0.82381 0.85872 0.79239 0.0
C421 C 0.87227 0.90511 0.81444 0.0
C422 C 0.9153 0.94776 0.82184 0.0
C423 C 0.79267 0.82268 0.8013 0.0
C424 C 0.8006 0.82877 0.81701 0.0
C425 C 0.84074 0.86948 0.82335 0.0
C426 C 0.7671 0.7941 0.82717 0.0
C427 C 0.75164 0.77847 0.79381 0.0
C428 C 0.71991 0.78416 0.82744 0.0
C429 C 0.68921 0.75401 0.83775 0.0
C430 C 0.70527 0.73353 0.84807 0.0
C431 C 0.75248 0.74324 0.84767 0.0
C432 C 0.78312 0.77335 0.83734 0.0
H433 H 0.75848 0.77327 0.78198 0.0
H434 H 0.74451 0.74683 0.79979 0.0
H435 H 0.71921 0.78145 0.79391 0.0
H436 H 0.70708 0.80056 0.8199 0.0
H437 H 0.65297 0.74696 0.8377 0.0
H438 H 0.00615 0.94928 0.09356 0.0
H439 H 0.00629 0.89641 0.11179 0.0
H440 H 0.15698 0.98881 0.12063 0.0
H441 H 0.15737 0.04172 0.10212 0.0
H442 H 0.13013 0.89383 0.11771 0.0
H443 H 0.01596 0.92227 0.15692 0.0
H444 H 0.9898 0.90402 0.1383 0.0
H445 H 0.04377 0.95988 0.14176 0.0
C446 C 0.03938 0.95841 0.09937 0.0
C447 C 0.08171 -0.00016 0.0965 0.0
C448 C 0.03932 0.92828 0.10984 0.0
C449 C 0.08143 0.93926 0.11778 0.0
C450 C 0.12404 0.97997 0.11469 0.0
H451 H 0.12948 0.79136 0.18857 0.0
H452 H 0.14069 0.84911 0.17037 0.0
C453 C 0.12419 0.0101 0.10413 0.0
C454 C 0.0807 0.90791 0.12923 0.0
H455 H 0.02681 0.85692 0.16103 0.0
C456 C 0.108 0.88611 0.12728 0.0
C457 C 0.05196 0.8982 0.14174 0.0
C458 C 0.02408 0.92268 0.14491 0.0
C459 C 0.10584 0.85339 0.13724 0.0
C460 C 0.07586 0.84259 0.14942 0.0
C461 C 0.04946 0.86515 0.15157 0.0
C462 C 0.07029 0.80697 0.1599 0.0
C463 C 0.13439 0.82944 0.13446 0.0
C464 C 0.02696 0.76442 0.15999 0.0
C465 C 0.02053 0.73124 0.17026 0.0
C466 C 0.05722 0.74029 0.18073 0.0
C467 C 0.10076 0.783 0.18053 0.0
C468 C 0.10722 0.81608 0.17018 0.0
H469 H 0.15051 0.83666 0.12336 0.0
H470 H 0.16339 0.84228 0.14321 0.0
H471 H 0.11158 0.7907 0.13515 0.0
H472 H -0.00191 0.75691 0.15211 0.0
H473 H 0.98686 0.69842 0.16995 0.0
H474 H 0.15067 0.1086 0.41302 0.0
H475 H 0.21407 0.11575 0.43001 0.0
H476 H 0.11367 0.05822 0.46482 0.0
H477 H 0.05001 0.04883 0.44755 0.0
H478 H 0.25293 0.16391 0.45495 0.0
H479 H 0.16917 0.97533 0.46601 0.0
H480 H 0.1459 0.99611 0.45173 0.0
H481 H 0.13094 -0.00224 0.47094 0.0
C482 C 0.14249 0.09772 0.42434 0.0
C483 C 0.0961 0.07909 0.42921 0.0
C484 C 0.1785 0.1016 0.434 0.0
C485 C 0.16845 0.08667 0.44861 0.0
C486 C 0.122 0.06861 0.45347 0.0
H487 H 0.37105 0.16957 0.52344 0.0
H488 H 0.31544 0.16512 0.50381 0.0
C489 C 0.08584 0.06377 0.44371 0.0
C490 C 0.20662 0.09062 0.45884 0.0
H491 H 0.2333 0.02914 0.48298 0.0
C492 C 0.24868 0.13445 0.46105 0.0
C493 C 0.20183 0.0517 0.46642 0.0
C494 C 0.15974 0.00251 0.46352 0.0
C495 C 0.28532 0.14097 0.47104 0.0
C496 C 0.27912 0.10283 0.47934 0.0
C497 C 0.23773 0.05859 0.47678 0.0
C498 C 0.31487 0.10768 0.49077 0.0
C499 C 0.33045 0.18843 0.47241 0.0
C500 C 0.33219 0.07628 0.49012 0.0
C501 C 0.36297 0.07812 0.50146 0.0
C502 C 0.37726 0.11167 0.51357 0.0
C503 C 0.36082 0.14377 0.51409 0.0
C504 C 0.32937 0.14142 0.50286 0.0
H505 H 0.33568 0.20791 0.46214 0.0
H506 H 0.32812 0.21005 0.48186 0.0
H507 H 0.36206 0.18478 0.47454 0.0
H508 H 0.32141 0.04993 0.48092 0.0
H509 H 0.37553 0.05323 0.50081 0.0
H510 H 0.15239 0.2339 0.75075 0.0
H511 H 0.22037 0.29783 0.76543 0.0
H512 H 0.20599 0.20016 0.79835 0.0
H513 H 0.13784 0.13624 0.78368 0.0
H514 H 0.22728 0.33212 0.79588 0.0
H515 H 0.34479 0.25796 0.78545 0.0
H516 H 0.29027 0.23868 0.77458 0.0
H517 H 0.28857 0.21745 0.79282 0.0
C518 C 0.16323 0.22651 0.7613 0.0
C519 C 0.13936 0.1808 0.76641 0.0
C520 C 0.20216 0.2628 0.76957 0.0
C521 C 0.21835 0.25348 0.78286 0.0
C522 C 0.19428 0.20782 0.78802 0.0
H523 H 0.43285 0.40335 0.85192 0.0
H524 H 0.37023 0.34624 0.83432 0.0
C525 C 0.15535 0.17154 0.77973 0.0
C526 C 0.26093 0.29132 0.79122 0.0
H527 H 0.37295 0.32219 0.80367 0.0
C528 C 0.2593 0.33027 0.7975 0.0
C529 C 0.30266 0.28873 0.79318 0.0
C530 C 0.30705 0.24869 0.78605 0.0
C531 C 0.29778 0.36598 0.80625 0.0
C532 C 0.33913 0.36285 0.80848 0.0
C533 C 0.34114 0.3244 0.80191 0.0
C534 C 0.37948 0.3975 0.81842 0.0
C535 C 0.29321 0.4058 0.81347 0.0
C536 C 0.40619 0.44503 0.81508 0.0
C537 C 0.44238 0.47783 0.82509 0.0
C538 C 0.45254 0.46341 0.83851 0.0
C539 C 0.42661 0.41544 0.84154 0.0
C540 C 0.39054 0.3828 0.83156 0.0
H541 H 0.25583 0.39802 0.81305 0.0
H542 H 0.30659 0.41301 0.82532 0.0
H543 H 0.31493 0.43831 0.8075 0.0
H544 H 0.39863 0.45681 0.80485 0.0
H545 H 0.462 0.5145 0.82243 0.0
H546 H 0.97177 0.07051 0.69645 0.0
H547 H 0.91718 0.06459 0.67626 0.0
H548 H 0.84773 0.11157 0.70732 0.0
H549 H 0.90273 0.11882 0.72743 0.0
H550 H 0.82061 0.01395 0.67202 0.0
H551 H 0.88376 0.20539 0.6754 0.0
H552 H 0.91471 0.1809 0.68497 0.0
H553 H 0.86344 0.17912 0.69287 0.0
C554 C 0.94475 0.07941 0.699 0.0
C555 C 0.94198 0.0957 0.71352 0.0
C556 C 0.91361 0.07601 0.68744 0.0
C557 C 0.87914 0.08867 0.69023 0.0
C558 C 0.87496 0.10292 0.70484 0.0
H559 H 0.63225 0.02778 0.63474 0.0
H560 H 0.68799 0.0259 0.65296 0.0
C561 C 0.90632 0.10682 0.71634 0.0
C562 C 0.8479 0.08768 0.67787 0.0
H563 H 0.81247 0.15614 0.66071 0.0
C564 C 0.81899 0.04507 0.66946 0.0
C565 C 0.84655 0.12856 0.67437 0.0
C566 C 0.87914 0.17618 0.68227 0.0
C567 C 0.78779 0.04195 0.65788 0.0
C568 C 0.78472 0.08228 0.65491 0.0
C569 C 0.81448 0.12511 0.6631 0.0
C570 C 0.75097 0.08121 0.6434 0.0
C571 C 0.75902 0.99571 0.64882 0.0
C572 C 0.76774 0.11353 0.63217 0.0
C573 C 0.73595 0.11516 0.62193 0.0
C574 C 0.68679 0.08435 0.6227 0.0
C575 C 0.67003 0.0515 0.63379 0.0
C576 C 0.70184 0.05024 0.64415 0.0
H577 H 0.77585 0.9736 0.64934 0.0
H578 H 0.72324 0.97569 0.65343 0.0
H579 H 0.75462 0.00144 0.63693 0.0
H580 H 0.80549 0.13784 0.63141 0.0
H581 H 0.74981 0.14053 0.6134 0.0
H582 H 0.9436 0.99624 0.04589 0.0
H583 H 0.89168 0.95226 0.02393 0.0
H584 H 0.01316 0.01013 0.99622 0.0
H585 H 0.06513 0.05504 0.01826 0.0
H586 H 0.93526 0.0133 0.98392 0.0
H587 H 0.88135 0.8354 0.00254 0.0
H588 H 0.87136 0.87087 0.01614 0.0
H589 H 0.93109 0.8884 0.01121 0.0
C590 C 0.95897 -0.00018 0.03506 0.0
C591 C 0.0078 0.02985 0.03354 0.0
C592 C 0.92952 0.97432 0.02259 0.0
C593 C 0.94871 0.97768 0.0085 0.0
C594 C -0.00224 0.00718 0.00702 0.0
H595 H 0.80699 0.83211 0.92284 0.0
H596 H 0.8672 0.88627 0.94188 0.0
C597 C 0.02728 0.03267 0.01953 0.0
C598 C 0.91722 0.95057 0.99534 0.0
H599 H 0.83512 0.8389 0.98224 0.0
C600 C 0.91363 0.97518 0.98347 0.0
C601 C 0.88944 0.90078 0.99476 0.0
C602 C 0.89378 0.87225 0.00677 0.0
C603 C 0.88139 0.95132 0.97126 0.0
C604 C 0.85261 0.90174 0.97095 0.0
C605 C 0.8571 0.87706 0.98263 0.0
C606 C 0.81651 0.87439 0.95884 0.0
C607 C 0.87714 0.97917 0.95903 0.0
C608 C 0.76833 0.85039 0.96211 0.0
C609 C 0.7341 0.81957 0.95134 0.0
C610 C 0.74751 0.81199 0.93712 0.0
C611 C 0.79573 0.83734 0.9337 0.0
C612 C 0.83003 0.8684 0.94451 0.0
H613 H 0.89678 0.01771 0.96206 0.0
H614 H 0.89177 0.97264 0.94869 0.0
H615 H 0.8392 0.96754 0.9565 0.0
H616 H 0.75739 0.85432 0.97318 0.0
H617 H 0.69739 0.79982 0.95443 0.0
H618 H 0.90721 0.91536 0.3742 0.0
H619 H 0.89893 0.84822 0.35859 0.0
H620 H 0.04761 0.92804 0.3492 0.0
H621 H 0.05609 0.99529 0.36457 0.0
H622 H 0.98845 0.87808 0.32406 0.0
H623 H 0.95171 0.76437 0.37195 0.0
H624 H 0.91287 0.78781 0.36956 0.0
H625 H 0.97477 0.8271 0.37444 0.0
C626 C 0.938 0.91874 0.36868 0.0
C627 C 0.98238 0.96049 0.37069 0.0
C628 C 0.93328 0.88027 0.35986 0.0
C629 C 0.97287 0.88295 0.35298 0.0
C630 C 0.0167 0.9252 0.3545 0.0
H631 H 0.03705 0.6745 0.31777 0.0
H632 H 0.02874 0.73344 0.33308 0.0
C633 C 0.02145 0.96359 0.36329 0.0
C634 C 0.96931 0.84166 0.34441 0.0
H635 H 0.95054 0.73059 0.34802 0.0
C636 C 0.97986 0.8457 0.32926 0.0
C637 C 0.95878 0.79979 0.35132 0.0
C638 C 0.94926 0.79439 0.36774 0.0
C639 C 0.98036 0.80902 0.3208 0.0
C640 C 0.96924 0.76692 0.32766 0.0
C641 C 0.95857 0.76278 0.3428 0.0
C642 C 0.97057 0.7277 0.31937 0.0
C643 C 0.99418 0.81616 0.30472 0.0
C644 C 0.93956 0.70398 0.30693 0.0
C645 C 0.94432 0.67054 0.29817 0.0
C646 C 0.98001 0.65999 0.30176 0.0
C647 C 0.00945 0.68212 0.31468 0.0
C648 C 0.00465 0.71562 0.32344 0.0
H649 H 0.01196 0.85395 0.30219 0.0
H650 H 0.01836 0.8025 0.30204 0.0
H651 H 0.96174 0.7965 0.29727 0.0
H652 H 0.91265 0.71243 0.30372 0.0
H653 H 0.92155 0.65472 0.28816 0.0
H654 H 0.09592 -0.00098 0.70821 0.0
H655 H 0.15539 0.99452 0.69284 0.0
H656 H 0.22591 0.1446 0.68826 0.0
H657 H 0.16693 0.14953 0.70344 0.0
H658 H 0.18859 0.03356 0.66179 0.0
H659 H 0.32556 0.11224 0.7085 0.0
H660 H 0.26255 0.08331 0.71148 0.0
H661 H 0.29294 0.1419 0.70503 0.0
C662 C 0.12367 0.03091 0.70373 0.0
C663 C 0.12692 0.07467 0.70711 0.0
C664 C 0.15759 0.02827 0.695 0.0
C665 C 0.19522 0.06936 0.68966 0.0
C666 C 0.19733 0.11264 0.69247 0.0
H667 H 0.4078 0.14283 0.626 0.0
H668 H 0.34242 0.13062 0.64162 0.0
C669 C 0.16348 0.1153 0.7011 0.0
C670 C 0.23355 0.06789 0.68156 0.0
H671 H 0.35238 0.1068 0.68439 0.0
C672 C 0.22428 0.049 0.66675 0.0
C673 C 0.27985 0.08772 0.68817 0.0
C674 C 0.29102 0.10718 0.70421 0.0
C675 C 0.26087 0.05133 0.65812 0.0
C676 C 0.30768 0.0733 0.66451 0.0
C677 C 0.31646 0.09023 0.67953 0.0
C678 C 0.34841 0.08153 0.6555 0.0
C679 C 0.24943 0.03096 0.64217 0.0
C680 C 0.37432 0.05905 0.65847 0.0
C681 C 0.41203 0.06616 0.64958 0.0
C682 C 0.42473 0.09646 0.63778 0.0
C683 C 0.39943 0.11991 0.63517 0.0
C684 C 0.36166 0.11251 0.64395 0.0
H685 H 0.21087 0.00533 0.64015 0.0
H686 H 0.25959 0.05995 0.63456 0.0
H687 H 0.26975 0.01311 0.63929 0.0
H688 H 0.36474 0.03532 0.66745 0.0
H689 H 0.43094 0.0477 0.65184 0.0
H690 H 0.1994 0.17565 0.04288 0.0
H691 H 0.26273 0.23693 0.02917 0.0
H692 H 0.21141 0.33186 0.04077 0.0
H693 H 0.14636 0.26961 0.05382 0.0
H694 H 0.22093 0.33018 0.01271 0.0
H695 H 0.38619 0.35298 0.03876 0.0
H696 H 0.34682 0.29213 0.03311 0.0
H697 H 0.32966 0.32068 0.04729 0.0
C698 C 0.20236 0.20998 0.04282 0.0
C699 C 0.16799 0.21792 0.04938 0.0
C700 C 0.23884 0.24518 0.03505 0.0
C701 C 0.24241 0.28939 0.03409 0.0
C702 C 0.20948 0.29809 0.04136 0.0
H703 H 0.47158 0.50717 0.98417 0.0
H704 H 0.42187 0.46274 0.00449 0.0
C705 C 0.17237 0.26256 0.04883 0.0
C706 C 0.27643 0.3241 0.02398 0.0
H707 H 0.39117 0.37645 0.01326 0.0
C708 C 0.25834 0.34089 0.01303 0.0
C709 C 0.32544 0.33882 0.02446 0.0
C710 C 0.34818 0.32558 0.03666 0.0
C711 C 0.28731 0.37032 0.00223 0.0
C712 C 0.33534 0.38176 0.00195 0.0
C713 C 0.35408 0.36683 0.01328 0.0
C714 C 0.36614 0.40808 0.98976 0.0
C715 C 0.266 0.38888 0.99126 0.0
C716 C 0.35185 0.3915 0.97479 0.0
C717 C 0.37972 0.41711 0.96324 0.0
C718 C 0.42299 0.45913 0.96647 0.0
C719 C 0.4383 0.4748 0.98144 0.0
C720 C 0.40998 0.44952 0.99301 0.0
H721 H 0.23572 0.3908 0.99603 0.0
H722 H 0.29275 0.42453 0.98793 0.0
H723 H 0.25214 0.36455 0.98109 0.0
H724 H 0.31897 0.35879 0.97203 0.0
H725 H 0.36763 0.40395 0.95178 0.0
H726 H 0.04795 0.23573 0.38278 0.0
H727 H 0.03681 0.27402 0.36182 0.0
H728 H 0.94853 0.13869 0.33826 0.0
H729 H 0.95907 0.09939 0.35941 0.0
H730 H 0.06235 0.26624 0.33197 0.0
H731 H 0.86987 0.20669 0.33592 0.0
H732 H 0.90467 0.20417 0.35136 0.0
H733 H 0.88689 0.16238 0.3356 0.0
C734 C 0.02585 0.21378 0.37323 0.0
C735 C 0.00441 0.16434 0.37282 0.0
C736 C 0.01959 0.23587 0.36123 0.0
C737 C 0.99168 0.20918 0.34856 0.0
C738 C 0.96973 0.15982 0.34806 0.0
H739 H 0.94933 0.3377 0.26997 0.0
H740 H 0.94546 0.2782 0.28635 0.0
C741 C 0.97595 0.1375 0.36012 0.0
C742 C 0.98759 0.23404 0.33579 0.0
H743 H 0.91175 0.26077 0.31782 0.0
C744 C 0.02931 0.26461 0.32874 0.0
C745 C 0.94435 0.23156 0.33158 0.0
C746 C 0.89879 0.19969 0.33901 0.0
C747 C 0.02935 0.29417 0.31796 0.0
C748 C 0.98667 0.29346 0.3143 0.0
C749 C 0.9444 0.26123 0.32076 0.0
C750 C 0.98641 0.32857 0.30466 0.0
C751 C 0.07527 0.32681 0.31082 0.0
C752 C 0.00979 0.37625 0.30972 0.0
C753 C 0.01171 0.41017 0.3005 0.0
C754 C 0.99031 0.39703 0.28601 0.0
C755 C 0.96581 0.34894 0.28111 0.0
C756 C 0.96374 0.31494 0.2904 0.0
H757 H 0.10167 0.3151 0.31203 0.0
H758 H 0.06891 0.32902 0.29875 0.0
H759 H 0.09085 0.36275 0.31632 0.0
H760 H 0.02687 0.38724 0.32081 0.0
H761 H 0.03001 0.44673 0.30473 0.0
loop_
_geom_bond_atom_site_label_1
_geom_bond_atom_site_label_2
_geom_bond_distance
_geom_bond_site_symmetry_2
_ccdc_geom_bond_type
Mn0 O5 2.095 . S
Mn0 O15 2.162 . S
Mn0 O16 2.297 . S
Mn0 O24 2.385 . S
Mn0 O25 2.209 . S
Mn0 O26 2.094 . S
Mn1 O6 2.121 . S
Mn1 N8 2.257 1_455 S
Mn1 N17 2.282 . S
Mn1 O25 2.215 . S
Mn1 O27 2.117 . S
C2 O24 1.234 . S
C2 O25 1.283 . S
C3 O15 1.281 . S
C3 O16 1.236 . S
C4 O26 1.240 . S
C4 O27 1.264 . S
O5 Mn0 2.095 . S
O5 C14 1.250 . S
O6 Mn1 2.121 . S
O6 C14 1.258 . S
C7 N8 1.326 . S
C7 C11 1.460 . S
C7 H13 0.929 . S
N8 Mn1 2.257 1_655 S
N8 C7 1.326 . S
N8 C12 1.362 . S
C9 C10 1.258 . S
C9 C12 1.431 . S
C9 C29 1.449 . S
C10 C9 1.258 . S
C10 C11 1.477 . S
C10 H30 0.931 . S
C11 C7 1.460 . S
C11 C10 1.477 . S
C11 H31 0.930 . S
C12 N8 1.362 . S
C12 C9 1.431 . S
C12 C22 1.476 . S
H13 C7 0.929 . S
C14 O5 1.250 . S
C14 O6 1.258 . S
O15 Mn0 2.162 . S
O15 C3 1.281 . S
O16 Mn0 2.297 . S
O16 C3 1.236 . S
N17 Mn1 2.282 . S
N17 C18 1.328 . S
N17 C22 1.318 1_455 S
C18 N17 1.328 . S
C18 C19 1.457 . S
C18 H23 0.929 . S
C19 C18 1.457 . S
C19 C20 1.291 1_455 S
C19 H32 0.931 . S
C20 C19 1.291 1_655 S
C20 C21 1.373 . S
C20 H33 0.929 1_554 S
C21 C20 1.373 . S
C21 C22 1.396 . S
C21 C28 1.403 . S
C22 C12 1.476 . S
C22 N17 1.318 1_655 S
C22 C21 1.396 . S
H23 C18 0.929 . S
O24 Mn0 2.385 . S
O24 C2 1.234 . S
O25 Mn0 2.209 . S
O25 Mn1 2.215 . S
O25 C2 1.283 . S
O26 Mn0 2.094 . S
O26 C4 1.240 . S
O27 Mn1 2.117 . S
O27 C4 1.264 . S
C28 C21 1.403 . S
C28 C29 1.399 . S
C28 H34 0.929 . S
C29 C9 1.449 . S
C29 C28 1.399 . S
C29 H35 0.930 . S
H30 C10 0.931 . S
H31 C11 0.930 . S
H32 C19 0.931 . S
H33 C20 0.929 1_556 S
H34 C28 0.929 . S
H35 C29 0.930 . S
Mn36 O41 2.095 . S
Mn36 O51 2.162 1_545 S
Mn36 O52 2.297 1_655 S
Mn36 O60 2.385 1_655 S
Mn36 O61 2.209 1_655 S
Mn36 O62 2.094 . S
Mn37 O42 2.121 . S
Mn37 N44 2.257 . S
Mn37 N53 2.282 . S
Mn37 O61 2.215 . S
Mn37 O63 2.117 1_455 S
C38 O60 1.234 . S
C38 O61 1.283 . S
C39 O51 1.281 . S
C39 O52 1.236 1_665 S
C40 O62 1.240 . S
C40 O63 1.264 . S
O41 Mn36 2.095 . S
O41 C50 1.250 1_655 S
O42 Mn37 2.121 . S
O42 C50 1.258 . S
C43 N44 1.326 . S
C43 C47 1.460 . S
C43 H49 0.929 . S
N44 Mn37 2.257 . S
N44 C43 1.326 . S
N44 C48 1.362 . S
C45 C46 1.258 . S
C45 C48 1.431 . S
C45 C65 1.449 . S
C46 C45 1.258 . S
C46 C47 1.477 . S
C46 H66 0.931 . S
C47 C43 1.460 . S
C47 C46 1.477 . S
C47 H67 0.930 . S
C48 N44 1.362 . S
C48 C45 1.431 . S
C48 C58 1.476 . S
H49 C43 0.929 . S
C50 O41 1.250 1_455 S
C50 O42 1.258 . S
O51 Mn36 2.162 1_565 S
O51 C39 1.281 . S
O52 Mn36 2.297 1_455 S
O52 C39 1.236 1_445 S
N53 Mn37 2.282 . S
N53 C54 1.328 . S
N53 C58 1.318 . S
C54 N53 1.328 . S
C54 C55 1.457 . S
C54 H59 0.929 . S
C55 C54 1.457 . S
C55 C56 1.291 . S
C55 H68 0.931 . S
C56 C55 1.291 . S
C56 C57 1.373 . S
C56 H69 0.929 . S
C57 C56 1.373 . S
C57 C58 1.396 . S
C57 C64 1.403 . S
C58 C48 1.476 . S
C58 N53 1.318 . S
C58 C57 1.396 . S
H59 C54 0.929 . S
O60 Mn36 2.385 1_455 S
O60 C38 1.234 . S
O61 Mn36 2.209 1_455 S
O61 Mn37 2.215 . S
O61 C38 1.283 . S
O62 Mn36 2.094 . S
O62 C40 1.240 . S
O63 Mn37 2.117 1_655 S
O63 C40 1.264 . S
C64 C57 1.403 . S
C64 C65 1.399 . S
C64 H70 0.929 . S
C65 C45 1.449 . S
C65 C64 1.399 . S
C65 H71 0.930 . S
H66 C46 0.931 . S
H67 C47 0.930 . S
H68 C55 0.931 . S
H69 C56 0.929 . S
H70 C64 0.929 . S
H71 C65 0.930 . S
Mn72 O77 2.095 . S
Mn72 O87 2.162 . S
Mn72 O88 2.297 . S
Mn72 O96 2.385 . S
Mn72 O97 2.209 . S
Mn72 O98 2.094 . S
Mn73 O78 2.121 . S
Mn73 N80 2.257 . S
Mn73 N89 2.282 . S
Mn73 O97 2.215 . S
Mn73 O99 2.117 . S
C74 O96 1.234 . S
C74 O97 1.283 . S
C75 O87 1.281 . S
C75 O88 1.236 . S
C76 O98 1.240 . S
C76 O99 1.264 . S
O77 Mn72 2.095 . S
O77 C86 1.250 . S
O78 Mn73 2.121 . S
O78 C86 1.258 . S
C79 N80 1.326 . S
C79 C83 1.460 . S
C79 H85 0.929 . S
N80 Mn73 2.257 . S
N80 C79 1.326 . S
N80 C84 1.362 . S
C81 C82 1.258 . S
C81 C84 1.431 . S
C81 C101 1.449 . S
C82 C81 1.258 . S
C82 C83 1.477 . S
C82 H102 0.931 . S
C83 C79 1.460 . S
C83 C82 1.477 . S
C83 H103 0.930 . S
C84 N80 1.362 . S
C84 C81 1.431 . S
C84 C94 1.476 . S
H85 C79 0.929 . S
C86 O77 1.250 . S
C86 O78 1.258 . S
O87 Mn72 2.162 . S
O87 C75 1.281 . S
O88 Mn72 2.297 . S
O88 C75 1.236 . S
N89 Mn73 2.282 . S
N89 C90 1.328 . S
N89 C94 1.318 . S
C90 N89 1.328 . S
C90 C91 1.457 . S
C90 H95 0.929 . S
C91 C90 1.457 . S
C91 C92 1.291 . S
C91 H104 0.931 . S
C92 C91 1.291 . S
C92 C93 1.373 . S
C92 H105 0.929 . S
C93 C92 1.373 . S
C93 C94 1.396 . S
C93 C100 1.403 . S
C94 C84 1.476 . S
C94 N89 1.318 . S
C94 C93 1.396 . S
H95 C90 0.929 . S
O96 Mn72 2.385 . S
O96 C74 1.234 . S
O97 Mn72 2.209 . S
O97 Mn73 2.215 . S
O97 C74 1.283 . S
O98 Mn72 2.094 . S
O98 C76 1.240 . S
O99 Mn73 2.117 . S
O99 C76 1.264 . S
C100 C93 1.403 . S
C100 C101 1.399 . S
C100 H106 0.929 . S
C101 C81 1.449 . S
C101 C100 1.399 . S
C101 H107 0.930 . S
H102 C82 0.931 . S
H103 C83 0.930 . S
H104 C91 0.931 . S
H105 C92 0.929 . S
H106 C100 0.929 . S
H107 C101 0.930 . S
H108 O134 0.856 . S
H109 O137 0.854 . S
H110 C145 0.930 . S
H111 C146 0.930 . S
H112 C148 0.930 . S
H113 C149 0.930 . S
H114 C151 0.931 1_655 S
H115 C152 0.930 1_655 S
H116 C154 0.930 . S
H117 C155 0.929 . S
H118 C157 0.930 1_655 S
H119 C158 0.931 1_655 S
H120 C160 0.930 . S
H121 C161 0.929 . S
H122 C163 0.931 . S
H123 C164 0.950 . S
H124 C166 0.930 . S
H125 C167 0.932 . S
H126 C169 0.930 . S
H127 C170 0.929 . S
H128 C172 0.931 . S
H129 C173 0.930 . S
H130 C175 0.929 . S
H131 C176 0.931 . S
H132 C178 0.930 . S
H133 C179 0.929 . S
O134 H108 0.856 . S
O134 C180 1.300 . S
O135 C180 1.209 . S
O136 C181 1.199 . S
O137 H109 0.854 . S
O137 C181 1.297 . S
C138 C139 1.404 . S
C138 C143 1.397 . S
C138 C144 1.492 . S
C139 C138 1.404 . S
C139 C140 1.396 . S
C139 C150 1.492 . S
C140 C139 1.396 . S
C140 C141 1.397 . S
C140 C156 1.509 . S
C141 C140 1.397 . S
C141 C142 1.412 . S
C141 C162 1.485 . S
C142 C141 1.412 . S
C142 C143 1.388 . S
C142 C168 1.490 . S
C143 C138 1.397 . S
C143 C142 1.388 . S
C143 C174 1.519 . S
C144 C138 1.492 . S
C144 C145 1.363 1_455 S
C144 C149 1.390 . S
C145 H110 0.930 . S
C145 C144 1.363 1_655 S
C145 C146 1.372 . S
C146 H111 0.930 . S
C146 C145 1.372 . S
C146 C147 1.383 1_655 S
C147 C146 1.383 1_455 S
C147 C148 1.395 . S
C148 H112 0.930 . S
C148 C147 1.395 . S
C148 C149 1.362 . S
C149 H113 0.930 . S
C149 C144 1.390 . S
C149 C148 1.362 . S
C150 C139 1.492 . S
C150 C151 1.377 . S
C150 C155 1.397 . S
C151 H114 0.931 1_455 S
C151 C150 1.377 . S
C151 C152 1.376 . S
C152 H115 0.930 1_455 S
C152 C151 1.376 . S
C152 C153 1.376 . S
C153 C152 1.376 . S
C153 C154 1.378 . S
C153 C180 1.486 . S
C154 H116 0.930 . S
C154 C153 1.378 . S
C154 C155 1.376 . S
C155 H117 0.929 . S
C155 C150 1.397 . S
C155 C154 1.376 . S
C156 C140 1.509 . S
C156 C157 1.391 . S
C156 C161 1.386 . S
C157 H118 0.930 1_455 S
C157 C156 1.391 . S
C157 C158 1.375 . S
C158 H119 0.931 1_455 S
C158 C157 1.375 . S
C158 C159 1.375 . S
C159 C158 1.375 . S
C159 C160 1.361 . S
C160 H120 0.930 . S
C160 C159 1.361 . S
C160 C161 1.399 . S
C161 H121 0.929 . S
C161 C156 1.386 . S
C161 C160 1.399 . S
C162 C141 1.485 . S
C162 C163 1.394 1_455 S
C162 C167 1.360 . S
C163 H122 0.931 . S
C163 C162 1.394 1_655 S
C163 C164 1.362 . S
C164 H123 0.950 . S
C164 C163 1.362 . S
C164 C165 1.387 1_655 S
C165 C164 1.387 1_455 S
C165 C166 1.390 . S
C165 C181 1.476 . S
C166 H124 0.930 . S
C166 C165 1.390 . S
C166 C167 1.366 . S
C167 H125 0.932 . S
C167 C162 1.360 . S
C167 C166 1.366 . S
C168 C142 1.490 . S
C168 C169 1.380 1_455 S
C168 C173 1.386 . S
C169 H126 0.930 . S
C169 C168 1.380 1_655 S
C169 C170 1.381 . S
C170 H127 0.929 . S
C170 C169 1.381 . S
C170 C171 1.371 1_655 S
C171 C170 1.371 1_455 S
C171 C172 1.380 . S
C172 H128 0.931 . S
C172 C171 1.380 . S
C172 C173 1.387 . S
C173 H129 0.930 . S
C173 C168 1.386 . S
C173 C172 1.387 . S
C174 C143 1.519 . S
C174 C175 1.377 1_455 S
C174 C179 1.361 . S
C175 H130 0.929 . S
C175 C174 1.377 1_655 S
C175 C176 1.386 . S
C176 H131 0.931 . S
C176 C175 1.386 . S
C176 C177 1.363 1_655 S
C177 C176 1.363 1_455 S
C177 C178 1.385 . S
C178 H132 0.930 . S
C178 C177 1.385 . S
C178 C179 1.396 . S
C179 H133 0.929 . S
C179 C174 1.361 . S
C179 C178 1.396 . S
C180 O134 1.300 . S
C180 O135 1.209 . S
C180 C153 1.486 . S
C181 O136 1.199 . S
C181 O137 1.297 . S
C181 C165 1.476 . S
H182 O208 0.856 . S
H183 O211 0.854 . S
H184 C219 0.930 . S
H185 C220 0.930 . S
H186 C222 0.930 . S
H187 C223 0.930 . S
H188 C225 0.931 . S
H189 C226 0.930 . S
H190 C228 0.930 . S
H191 C229 0.929 . S
H192 C231 0.930 . S
H193 C232 0.931 . S
H194 C234 0.930 . S
H195 C235 0.929 . S
H196 C237 0.931 . S
H197 C238 0.930 . S
H198 C240 0.930 . S
H199 C241 0.932 . S
H200 C243 0.930 . S
H201 C244 0.929 . S
H202 C246 0.931 . S
H203 C247 0.930 . S
H204 C249 0.929 . S
H205 C250 0.931 . S
H206 C252 0.930 . S
H207 C253 0.929 . S
O208 H182 0.856 . S
O208 C254 1.300 . S
O209 C254 1.209 . S
O210 C255 1.199 . S
O211 H183 0.854 . S
O211 C255 1.297 . S
C212 C213 1.404 . S
C212 C217 1.397 . S
C212 C218 1.492 . S
C213 C212 1.404 . S
C213 C214 1.396 . S
C213 C224 1.492 . S
C214 C213 1.396 . S
C214 C215 1.397 . S
C214 C230 1.509 . S
C215 C214 1.397 . S
C215 C216 1.412 . S
C215 C236 1.485 . S
C216 C215 1.412 . S
C216 C217 1.388 . S
C216 C242 1.490 . S
C217 C212 1.397 . S
C217 C216 1.388 . S
C217 C248 1.519 . S
C218 C212 1.492 . S
C218 C219 1.363 . S
C218 C223 1.390 . S
C219 H184 0.930 . S
C219 C218 1.363 . S
C219 C220 1.372 . S
C220 H185 0.930 . S
C220 C219 1.372 . S
C220 C221 1.383 . S
C221 C220 1.383 . S
C221 C222 1.395 . S
C222 H186 0.930 . S
C222 C221 1.395 . S
C222 C223 1.362 . S
C223 H187 0.930 . S
C223 C218 1.390 . S
C223 C222 1.362 . S
C224 C213 1.492 . S
C224 C225 1.377 . S
C224 C229 1.397 . S
C225 H188 0.931 . S
C225 C224 1.377 . S
C225 C226 1.376 . S
C226 H189 0.930 . S
C226 C225 1.376 . S
C226 C227 1.376 . S
C227 C226 1.376 . S
C227 C228 1.378 . S
C227 C254 1.486 . S
C228 H190 0.930 . S
C228 C227 1.378 . S
C228 C229 1.376 . S
C229 H191 0.929 . S
C229 C224 1.397 . S
C229 C228 1.376 . S
C230 C214 1.509 . S
C230 C231 1.391 . S
C230 C235 1.386 . S
C231 H192 0.930 . S
C231 C230 1.391 . S
C231 C232 1.375 . S
C232 H193 0.931 . S
C232 C231 1.375 . S
C232 C233 1.375 . S
C233 C232 1.375 . S
C233 C234 1.361 . S
C234 H194 0.930 . S
C234 C233 1.361 . S
C234 C235 1.399 . S
C235 H195 0.929 . S
C235 C230 1.386 . S
C235 C234 1.399 . S
C236 C215 1.485 . S
C236 C237 1.394 . S
C236 C241 1.360 . S
C237 H196 0.931 . S
C237 C236 1.394 . S
C237 C238 1.372 . S
C238 H197 0.930 . S
C238 C237 1.372 . S
C238 C239 1.397 . S
C239 C238 1.397 . S
C239 C240 1.390 . S
C239 C255 1.476 . S
C240 H198 0.930 . S
C240 C239 1.390 . S
C240 C241 1.366 . S
C241 H199 0.932 . S
C241 C236 1.360 . S
C241 C240 1.366 . S
C242 C216 1.490 . S
C242 C243 1.380 . S
C242 C247 1.386 . S
C243 H200 0.930 . S
C243 C242 1.380 . S
C243 C244 1.381 . S
C244 H201 0.929 . S
C244 C243 1.381 . S
C244 C245 1.371 . S
C245 C244 1.371 . S
C245 C246 1.380 . S
C246 H202 0.931 . S
C246 C245 1.380 . S
C246 C247 1.387 . S
C247 H203 0.930 . S
C247 C242 1.386 . S
C247 C246 1.387 . S
C248 C217 1.519 . S
C248 C249 1.377 . S
C248 C253 1.361 . S
C249 H204 0.929 . S
C249 C248 1.377 . S
C249 C250 1.386 . S
C250 H205 0.931 . S
C250 C249 1.386 . S
C250 C251 1.363 . S
C251 C250 1.363 . S
C251 C252 1.385 . S
C252 H206 0.930 . S
C252 C251 1.385 . S
C252 C253 1.396 . S
C253 H207 0.929 . S
C253 C248 1.361 . S
C253 C252 1.396 . S
C254 O208 1.300 . S
C254 O209 1.209 . S
C254 C227 1.486 . S
C255 O210 1.199 . S
C255 O211 1.297 . S
C255 C239 1.476 . S
H256 O282 0.856 . S
H257 O285 0.854 . S
H258 C293 0.930 . S
H259 C294 0.930 . S
H260 C296 0.930 . S
H261 C297 0.930 . S
H262 C299 0.931 . S
H263 C300 0.930 . S
H264 C302 0.930 . S
H265 C303 0.929 . S
H266 C305 0.930 . S
H267 C306 0.931 . S
H268 C308 0.930 . S
H269 C309 0.929 . S
H270 C311 0.931 . S
H271 C312 0.930 . S
H272 C314 0.930 . S
H273 C315 0.932 . S
H274 C317 0.930 . S
H275 C318 0.929 . S
H276 C320 0.931 . S
H277 C321 0.930 . S
H278 C323 0.929 . S
H279 C324 0.931 . S
H280 C326 0.930 . S
H281 C327 0.929 . S
O282 H256 0.856 . S
O282 C328 1.300 1_554 S
O283 C328 1.209 1_554 S
O284 C329 1.199 . S
O285 H257 0.854 . S
O285 C329 1.297 . S
C286 C287 1.404 . S
C286 C291 1.397 . S
C286 C292 1.492 . S
C287 C286 1.404 . S
C287 C288 1.396 . S
C287 C298 1.492 . S
C288 C287 1.396 . S
C288 C289 1.397 . S
C288 C304 1.509 . S
C289 C288 1.397 . S
C289 C290 1.412 . S
C289 C310 1.485 . S
C290 C289 1.412 . S
C290 C291 1.388 . S
C290 C316 1.490 . S
C291 C286 1.397 . S
C291 C290 1.388 . S
C291 C322 1.519 . S
C292 C286 1.492 . S
C292 C293 1.363 . S
C292 C297 1.390 . S
C293 H258 0.930 . S
C293 C292 1.363 . S
C293 C294 1.372 . S
C294 H259 0.930 . S
C294 C293 1.372 . S
C294 C295 1.383 . S
C295 C294 1.383 . S
C295 C296 1.395 . S
C296 H260 0.930 . S
C296 C295 1.395 . S
C296 C297 1.362 . S
C297 H261 0.930 . S
C297 C292 1.390 . S
C297 C296 1.362 . S
C298 C287 1.492 . S
C298 C299 1.377 . S
C298 C303 1.397 . S
C299 H262 0.931 . S
C299 C298 1.377 . S
C299 C300 1.376 . S
C300 H263 0.930 . S
C300 C299 1.376 . S
C300 C301 1.376 . S
C301 C300 1.376 . S
C301 C302 1.378 . S
C301 C328 1.486 . S
C302 H264 0.930 . S
C302 C301 1.378 . S
C302 C303 1.376 . S
C303 H265 0.929 . S
C303 C298 1.397 . S
C303 C302 1.376 . S
C304 C288 1.509 . S
C304 C305 1.391 . S
C304 C309 1.386 . S
C305 H266 0.930 . S
C305 C304 1.391 . S
C305 C306 1.375 . S
C306 H267 0.931 . S
C306 C305 1.375 . S
C306 C307 1.375 . S
C307 C306 1.375 . S
C307 C308 1.361 . S
C308 H268 0.930 . S
C308 C307 1.361 . S
C308 C309 1.399 . S
C309 H269 0.929 . S
C309 C304 1.386 . S
C309 C308 1.399 . S
C310 C289 1.485 . S
C310 C311 1.394 . S
C310 C315 1.360 . S
C311 H270 0.931 . S
C311 C310 1.394 . S
C311 C312 1.372 . S
C312 H271 0.930 . S
C312 C311 1.372 . S
C312 C313 1.397 . S
C313 C312 1.397 . S
C313 C314 1.390 . S
C313 C329 1.476 . S
C314 H272 0.930 . S
C314 C313 1.390 . S
C314 C315 1.366 . S
C315 H273 0.932 . S
C315 C310 1.360 . S
C315 C314 1.366 . S
C316 C290 1.490 . S
C316 C317 1.380 . S
C316 C321 1.386 . S
C317 H274 0.930 . S
C317 C316 1.380 . S
C317 C318 1.381 . S
C318 H275 0.929 . S
C318 C317 1.381 . S
C318 C319 1.371 . S
C319 C318 1.371 . S
C319 C320 1.380 . S
C320 H276 0.931 . S
C320 C319 1.380 . S
C320 C321 1.387 . S
C321 H277 0.930 . S
C321 C316 1.386 . S
C321 C320 1.387 . S
C322 C291 1.519 . S
C322 C323 1.377 . S
C322 C327 1.361 . S
C323 H278 0.929 . S
C323 C322 1.377 . S
C323 C324 1.386 . S
C324 H279 0.931 . S
C324 C323 1.386 . S
C324 C325 1.363 . S
C325 C324 1.363 . S
C325 C326 1.385 . S
C326 H280 0.930 . S
C326 C325 1.385 . S
C326 C327 1.396 . S
C327 H281 0.929 . S
C327 C322 1.361 . S
C327 C326 1.396 . S
C328 O282 1.300 1_556 S
C328 O283 1.209 1_556 S
C328 C301 1.486 . S
C329 O284 1.199 . S
C329 O285 1.297 . S
C329 C313 1.476 . S
H330 C338 0.929 . S
H331 C340 0.930 . S
H332 C342 0.930 . S
H333 C345 0.929 . S
H334 C348 0.924 1_655 S
H335 C350 0.960 . S
H336 C350 0.960 . S
H337 C350 0.960 . S
C338 H330 0.929 . S
C338 C339 1.377 . S
C338 C340 1.384 . S
C339 C338 1.377 . S
C339 C345 1.390 . S
C340 H331 0.930 . S
C340 C338 1.384 . S
C340 C341 1.372 . S
C341 C340 1.372 . S
C341 C342 1.400 . S
C341 C346 1.490 . S
C342 H332 0.930 . S
C342 C341 1.400 . S
C342 C345 1.386 . S
H343 C359 0.930 . S
H344 C360 0.931 . S
C345 H333 0.929 . S
C345 C339 1.390 . S
C345 C342 1.386 . S
C346 C341 1.490 . S
C346 C348 1.406 . S
C346 C349 1.403 . S
H347 C353 0.930 . S
C348 H334 0.924 1_455 S
C348 C346 1.406 . S
C348 C351 1.398 1_455 S
C349 C346 1.403 . S
C349 C350 1.524 . S
C349 C353 1.400 . S
C350 H335 0.960 . S
C350 H336 0.960 . S
C350 H337 0.960 . S
C350 C349 1.524 . S
C351 C348 1.398 1_655 S
C351 C352 1.392 1_655 S
C351 C355 1.495 . S
C352 C351 1.392 1_455 S
C352 C353 1.385 . S
C352 C354 1.478 . S
C353 H347 0.930 . S
C353 C349 1.400 . S
C353 C352 1.385 . S
C354 C352 1.478 . S
C354 C356 1.381 . S
C354 C360 1.383 . S
C355 C351 1.495 . S
C355 H361 0.959 . S
C355 H362 0.961 . S
C355 H363 0.960 . S
C356 C354 1.381 . S
C356 C357 1.394 . S
C356 H364 0.930 . S
C357 C356 1.394 . S
C357 C358 1.383 . S
C357 H365 0.929 . S
C358 C357 1.383 . S
C358 C359 1.377 . S
C359 H343 0.930 . S
C359 C358 1.377 . S
C359 C360 1.379 . S
C360 H344 0.931 . S
C360 C354 1.383 . S
C360 C359 1.379 . S
H361 C355 0.959 . S
H362 C355 0.961 . S
H363 C355 0.960 . S
H364 C356 0.930 . S
H365 C357 0.929 . S
H366 C374 0.929 . S
H367 C376 0.930 . S
H368 C378 0.930 . S
H369 C381 0.929 . S
H370 C384 0.930 . S
H371 C386 0.960 . S
H372 C386 0.960 . S
H373 C386 0.960 . S
C374 H366 0.929 . S
C374 C375 1.377 . S
C374 C376 1.384 . S
C375 C374 1.377 . S
C375 C381 1.390 . S
C376 H367 0.930 . S
C376 C374 1.384 . S
C376 C377 1.372 . S
C377 C376 1.372 . S
C377 C378 1.400 . S
C377 C382 1.490 . S
C378 H368 0.930 . S
C378 C377 1.400 . S
C378 C381 1.386 . S
H379 C395 0.930 . S
H380 C396 0.931 . S
C381 H369 0.929 . S
C381 C375 1.390 . S
C381 C378 1.386 . S
C382 C377 1.490 . S
C382 C384 1.395 . S
C382 C385 1.403 . S
H383 C389 0.930 . S
C384 H370 0.930 . S
C384 C382 1.395 . S
C384 C387 1.403 . S
C385 C382 1.403 . S
C385 C386 1.524 1_545 S
C385 C389 1.400 . S
C386 H371 0.960 . S
C386 H372 0.960 . S
C386 H373 0.960 . S
C386 C385 1.524 1_565 S
C387 C384 1.403 . S
C387 C388 1.392 . S
C387 C391 1.495 . S
C388 C387 1.392 . S
C388 C389 1.385 . S
C388 C390 1.478 . S
C389 H383 0.930 . S
C389 C385 1.400 . S
C389 C388 1.385 . S
C390 C388 1.478 . S
C390 C392 1.381 . S
C390 C396 1.383 . S
C391 C387 1.495 . S
C391 H397 0.959 . S
C391 H398 0.961 . S
C391 H399 0.960 . S
C392 C390 1.381 . S
C392 C393 1.394 . S
C392 H400 0.930 . S
C393 C392 1.394 . S
C393 C394 1.383 . S
C393 H401 0.929 . S
C394 C393 1.383 . S
C394 C395 1.377 . S
C395 H379 0.930 . S
C395 C394 1.377 . S
C395 C396 1.379 . S
C396 H380 0.931 . S
C396 C390 1.383 . S
C396 C395 1.379 . S
H397 C391 0.959 . S
H398 C391 0.961 . S
H399 C391 0.960 . S
H400 C392 0.930 . S
H401 C393 0.929 . S
H402 C410 0.929 . S
H403 C412 0.930 . S
H404 C414 0.930 . S
H405 C417 0.929 1_455 S
H406 C420 0.930 . S
H407 C422 0.960 . S
H408 C422 0.960 . S
H409 C422 0.960 . S
C410 H402 0.929 . S
C410 C411 1.377 . S
C410 C412 1.384 . S
C411 C410 1.377 . S
C411 C417 1.390 . S
C412 H403 0.930 . S
C412 C410 1.384 . S
C412 C413 1.372 . S
C413 C412 1.372 . S
C413 C414 1.400 . S
C413 C418 1.490 . S
C414 H404 0.930 . S
C414 C413 1.400 . S
C414 C417 1.386 . S
H415 C431 0.930 . S
H416 C432 0.931 . S
C417 H405 0.929 1_655 S
C417 C411 1.390 . S
C417 C414 1.386 . S
C418 C413 1.490 . S
C418 C420 1.395 . S
C418 C421 1.403 . S
H419 C425 0.930 . S
C420 H406 0.930 . S
C420 C418 1.395 . S
C420 C423 1.403 . S
C421 C418 1.403 . S
C421 C422 1.524 . S
C421 C425 1.400 . S
C422 H407 0.960 . S
C422 H408 0.960 . S
C422 H409 0.960 . S
C422 C421 1.524 . S
C423 C420 1.403 . S
C423 C424 1.392 . S
C423 C427 1.495 . S
C424 C423 1.392 . S
C424 C425 1.385 . S
C424 C426 1.478 . S
C425 H419 0.930 . S
C425 C421 1.400 . S
C425 C424 1.385 . S
C426 C424 1.478 . S
C426 C428 1.381 . S
C426 C432 1.383 . S
C427 C423 1.495 . S
C427 H433 0.959 . S
C427 H434 0.961 . S
C427 H435 0.960 . S
C428 C426 1.381 . S
C428 C429 1.394 . S
C428 H436 0.930 . S
C429 C428 1.394 . S
C429 C430 1.383 . S
C429 H437 0.929 . S
C430 C429 1.383 . S
C430 C431 1.377 . S
C431 H415 0.930 . S
C431 C430 1.377 . S
C431 C432 1.379 . S
C432 H416 0.931 . S
C432 C426 1.383 . S
C432 C431 1.379 . S
H433 C427 0.959 . S
H434 C427 0.961 . S
H435 C427 0.960 . S
H436 C428 0.930 . S
H437 C429 0.929 . S
H438 C446 0.929 . S
H439 C448 0.930 . S
H440 C450 0.930 . S
H441 C453 0.929 . S
H442 C456 0.930 . S
H443 C458 0.960 1_655 S
H444 C458 0.960 1_655 S
H445 C458 0.960 . S
C446 H438 0.929 . S
C446 C447 1.377 1_565 S
C446 C448 1.384 . S
C447 C446 1.377 1_545 S
C447 C453 1.390 . S
C448 H439 0.930 . S
C448 C446 1.384 . S
C448 C449 1.372 . S
C449 C448 1.372 . S
C449 C450 1.400 . S
C449 C454 1.490 . S
C450 H440 0.930 . S
C450 C449 1.400 . S
C450 C453 1.386 1_565 S
H451 C467 0.930 . S
H452 C468 0.931 . S
C453 H441 0.929 . S
C453 C447 1.390 . S
C453 C450 1.386 1_545 S
C454 C449 1.490 . S
C454 C456 1.395 . S
C454 C457 1.403 . S
H455 C461 0.930 . S
C456 H442 0.930 . S
C456 C454 1.395 . S
C456 C459 1.403 . S
C457 C454 1.403 . S
C457 C458 1.524 . S
C457 C461 1.400 . S
C458 H443 0.960 1_455 S
C458 H444 0.960 1_455 S
C458 H445 0.960 . S
C458 C457 1.524 . S
C459 C456 1.403 . S
C459 C460 1.392 . S
C459 C463 1.495 . S
C460 C459 1.392 . S
C460 C461 1.385 . S
C460 C462 1.478 . S
C461 H455 0.930 . S
C461 C457 1.400 . S
C461 C460 1.385 . S
C462 C460 1.478 . S
C462 C464 1.381 . S
C462 C468 1.383 . S
C463 C459 1.495 . S
C463 H469 0.959 . S
C463 H470 0.961 . S
C463 H471 0.960 . S
C464 C462 1.381 . S
C464 C465 1.394 . S
C464 H472 0.930 . S
C465 C464 1.394 . S
C465 C466 1.383 . S
C465 H473 0.929 . S
C466 C465 1.383 . S
C466 C467 1.377 . S
C467 H451 0.930 . S
C467 C466 1.377 . S
C467 C468 1.379 . S
C468 H452 0.931 . S
C468 C462 1.383 . S
C468 C467 1.379 . S
H469 C463 0.959 . S
H470 C463 0.961 . S
H471 C463 0.960 . S
H472 C464 0.930 . S
H473 C465 0.929 . S
H474 C482 0.929 . S
H475 C484 0.930 . S
H476 C486 0.930 . S
H477 C489 0.929 . S
H478 C492 0.930 . S
H479 C494 0.960 . S
H480 C494 0.960 . S
H481 C494 0.960 . S
C482 H474 0.929 . S
C482 C483 1.377 . S
C482 C484 1.384 . S
C483 C482 1.377 . S
C483 C489 1.390 . S
C484 H475 0.930 . S
C484 C482 1.384 . S
C484 C485 1.372 . S
C485 C484 1.372 . S
C485 C486 1.400 . S
C485 C490 1.490 . S
C486 H476 0.930 . S
C486 C485 1.400 . S
C486 C489 1.386 . S
H487 C503 0.930 . S
H488 C504 0.931 . S
C489 H477 0.929 . S
C489 C483 1.390 . S
C489 C486 1.386 . S
C490 C485 1.490 . S
C490 C492 1.395 . S
C490 C493 1.403 . S
H491 C497 0.930 . S
C492 H478 0.930 . S
C492 C490 1.395 . S
C492 C495 1.403 . S
C493 C490 1.403 . S
C493 C494 1.524 . S
C493 C497 1.400 . S
C494 H479 0.960 . S
C494 H480 0.960 . S
C494 H481 0.960 . S
C494 C493 1.524 . S
C495 C492 1.403 . S
C495 C496 1.392 . S
C495 C499 1.495 . S
C496 C495 1.392 . S
C496 C497 1.385 . S
C496 C498 1.478 . S
C497 H491 0.930 . S
C497 C493 1.400 . S
C497 C496 1.385 . S
C498 C496 1.478 . S
C498 C500 1.381 . S
C498 C504 1.383 . S
C499 C495 1.495 . S
C499 H505 0.959 . S
C499 H506 0.961 . S
C499 H507 0.960 . S
C500 C498 1.381 . S
C500 C501 1.394 . S
C500 H508 0.930 . S
C501 C500 1.394 . S
C501 C502 1.383 . S
C501 H509 0.929 . S
C502 C501 1.383 . S
C502 C503 1.377 . S
C503 H487 0.930 . S
C503 C502 1.377 . S
C503 C504 1.379 . S
C504 H488 0.931 . S
C504 C498 1.383 . S
C504 C503 1.379 . S
H505 C499 0.959 . S
H506 C499 0.961 . S
H507 C499 0.960 . S
H508 C500 0.930 . S
H509 C501 0.929 . S
H510 C518 0.929 . S
H511 C520 0.930 . S
H512 C522 0.930 . S
H513 C525 0.929 . S
H514 C528 0.930 . S
H515 C530 0.960 . S
H516 C530 0.960 . S
H517 C530 0.960 . S
C518 H510 0.929 . S
C518 C519 1.377 . S
C518 C520 1.384 . S
C519 C518 1.377 . S
C519 C525 1.390 . S
C520 H511 0.930 . S
C520 C518 1.384 . S
C520 C521 1.372 . S
C521 C520 1.372 . S
C521 C522 1.400 . S
C521 C526 1.490 . S
C522 H512 0.930 . S
C522 C521 1.400 . S
C522 C525 1.386 . S
H523 C539 0.930 . S
H524 C540 0.931 . S
C525 H513 0.929 . S
C525 C519 1.390 . S
C525 C522 1.386 . S
C526 C521 1.490 . S
C526 C528 1.395 . S
C526 C529 1.403 . S
H527 C533 0.930 . S
C528 H514 0.930 . S
C528 C526 1.395 . S
C528 C531 1.403 . S
C529 C526 1.403 . S
C529 C530 1.524 . S
C529 C533 1.400 . S
C530 H515 0.960 . S
C530 H516 0.960 . S
C530 H517 0.960 . S
C530 C529 1.524 . S
C531 C528 1.403 . S
C531 C532 1.392 . S
C531 C535 1.495 . S
C532 C531 1.392 . S
C532 C533 1.385 . S
C532 C534 1.478 . S
C533 H527 0.930 . S
C533 C529 1.400 . S
C533 C532 1.385 . S
C534 C532 1.478 . S
C534 C536 1.381 . S
C534 C540 1.383 . S
C535 C531 1.495 . S
C535 H541 0.959 . S
C535 H542 0.961 . S
C535 H543 0.960 . S
C536 C534 1.381 . S
C536 C537 1.394 . S
C536 H544 0.930 . S
C537 C536 1.394 . S
C537 C538 1.383 . S
C537 H545 0.929 . S
C538 C537 1.383 . S
C538 C539 1.377 . S
C539 H523 0.930 . S
C539 C538 1.377 . S
C539 C540 1.379 . S
C540 H524 0.931 . S
C540 C534 1.383 . S
C540 C539 1.379 . S
H541 C535 0.959 . S
H542 C535 0.961 . S
H543 C535 0.960 . S
H544 C536 0.930 . S
H545 C537 0.929 . S
H546 C554 0.929 1_455 S
H547 C556 0.930 . S
H548 C558 0.930 . S
H549 C561 0.929 . S
H550 C564 0.930 . S
H551 C566 0.960 . S
H552 C566 0.960 . S
H553 C566 0.960 . S
C554 H546 0.929 1_655 S
C554 C555 1.377 . S
C554 C556 1.384 . S
C555 C554 1.377 . S
C555 C561 1.390 . S
C556 H547 0.930 . S
C556 C554 1.384 . S
C556 C557 1.372 . S
C557 C556 1.372 . S
C557 C558 1.400 . S
C557 C562 1.490 . S
C558 H548 0.930 . S
C558 C557 1.400 . S
C558 C561 1.386 . S
H559 C575 0.930 . S
H560 C576 0.931 . S
C561 H549 0.929 . S
C561 C555 1.390 . S
C561 C558 1.386 . S
C562 C557 1.490 . S
C562 C564 1.395 . S
C562 C565 1.403 . S
H563 C569 0.930 . S
C564 H550 0.930 . S
C564 C562 1.395 . S
C564 C567 1.403 . S
C565 C562 1.403 . S
C565 C566 1.524 . S
C565 C569 1.400 . S
C566 H551 0.960 . S
C566 H552 0.960 . S
C566 H553 0.960 . S
C566 C565 1.524 . S
C567 C564 1.403 . S
C567 C568 1.392 . S
C567 C571 1.495 . S
C568 C567 1.392 . S
C568 C569 1.385 . S
C568 C570 1.478 . S
C569 H563 0.930 . S
C569 C565 1.400 . S
C569 C568 1.385 . S
C570 C568 1.478 . S
C570 C572 1.381 . S
C570 C576 1.383 . S
C571 C567 1.495 . S
C571 H577 0.959 . S
C571 H578 0.961 . S
C571 H579 0.960 . S
C572 C570 1.381 . S
C572 C573 1.394 . S
C572 H580 0.930 . S
C573 C572 1.394 . S
C573 C574 1.383 . S
C573 H581 0.929 . S
C574 C573 1.383 . S
C574 C575 1.377 . S
C575 H559 0.930 . S
C575 C574 1.377 . S
C575 C576 1.379 . S
C576 H560 0.931 . S
C576 C570 1.383 . S
C576 C575 1.379 . S
H577 C571 0.959 . S
H578 C571 0.961 . S
H579 C571 0.960 . S
H580 C572 0.930 . S
H581 C573 0.929 . S
H582 C590 0.929 . S
H583 C592 0.930 . S
H584 C594 0.930 . S
H585 C597 0.929 1_455 S
H586 C600 0.932 . S
H587 C602 0.960 . S
H588 C602 0.960 . S
H589 C602 0.960 . S
C590 H582 0.929 . S
C590 C591 1.377 . S
C590 C592 1.384 1_545 S
C591 C590 1.377 . S
C591 C597 1.390 1_545 S
C592 H583 0.930 . S
C592 C590 1.384 1_565 S
C592 C593 1.372 . S
C593 C592 1.372 . S
C593 C594 1.400 . S
C593 C598 1.490 . S
C594 H584 0.930 . S
C594 C593 1.400 . S
C594 C597 1.386 . S
H595 C611 0.930 . S
H596 C612 0.931 . S
C597 H585 0.929 1_655 S
C597 C591 1.390 1_565 S
C597 C594 1.386 . S
C598 C593 1.490 . S
C598 C600 1.395 1_554 S
C598 C601 1.403 . S
H599 C605 0.930 . S
C600 H586 0.932 . S
C600 C598 1.395 1_556 S
C600 C603 1.403 . S
C601 C598 1.403 . S
C601 C602 1.524 . S
C601 C605 1.400 1_554 S
C602 H587 0.960 . S
C602 H588 0.960 . S
C602 H589 0.960 . S
C602 C601 1.524 . S
C603 C600 1.403 . S
C603 C604 1.392 . S
C603 C607 1.495 . S
C604 C603 1.392 . S
C604 C605 1.385 . S
C604 C606 1.478 . S
C605 H599 0.930 . S
C605 C601 1.400 1_556 S
C605 C604 1.385 . S
C606 C604 1.478 . S
C606 C608 1.381 . S
C606 C612 1.383 . S
C607 C603 1.495 . S
C607 H613 0.959 . S
C607 H614 0.961 . S
C607 H615 0.960 . S
C608 C606 1.381 . S
C608 C609 1.394 . S
C608 H616 0.930 . S
C609 C608 1.394 . S
C609 C610 1.383 . S
C609 H617 0.929 . S
C610 C609 1.383 . S
C610 C611 1.377 . S
C611 H595 0.930 . S
C611 C610 1.377 . S
C611 C612 1.379 . S
C612 H596 0.931 . S
C612 C606 1.383 . S
C612 C611 1.379 . S
H613 C607 0.959 . S
H614 C607 0.961 . S
H615 C607 0.960 . S
H616 C608 0.930 . S
H617 C609 0.929 . S
H618 C626 0.929 . S
H619 C628 0.930 . S
H620 C630 0.930 . S
H621 C633 0.929 . S
H622 C636 0.930 . S
H623 C638 0.960 . S
H624 C638 0.960 . S
H625 C638 0.960 . S
C626 H618 0.929 . S
C626 C627 1.377 . S
C626 C628 1.384 . S
C627 C626 1.377 . S
C627 C633 1.390 1_655 S
C628 H619 0.930 . S
C628 C626 1.384 . S
C628 C629 1.372 . S
C629 C628 1.372 . S
C629 C630 1.400 1_655 S
C629 C634 1.490 . S
C630 H620 0.930 . S
C630 C629 1.400 1_455 S
C630 C633 1.386 . S
H631 C647 0.930 . S
H632 C648 0.931 . S
C633 H621 0.929 . S
C633 C627 1.390 1_455 S
C633 C630 1.386 . S
C634 C629 1.490 . S
C634 C636 1.395 1_655 S
C634 C637 1.403 . S
H635 C641 0.930 . S
C636 H622 0.930 . S
C636 C634 1.395 1_455 S
C636 C639 1.403 . S
C637 C634 1.403 . S
C637 C638 1.524 . S
C637 C641 1.400 . S
C638 H623 0.960 . S
C638 H624 0.960 . S
C638 H625 0.960 . S
C638 C637 1.524 . S
C639 C636 1.403 . S
C639 C640 1.393 . S
C639 C643 1.495 . S
C640 C639 1.393 . S
C640 C641 1.383 1_455 S
C640 C642 1.479 . S
C641 H635 0.930 . S
C641 C637 1.400 . S
C641 C640 1.383 1_655 S
C642 C640 1.479 . S
C642 C644 1.381 1_455 S
C642 C648 1.383 . S
C643 C639 1.495 . S
C643 H649 0.959 . S
C643 H650 0.961 . S
C643 H651 0.960 . S
C644 C642 1.381 1_655 S
C644 C645 1.394 . S
C644 H652 0.930 . S
C645 C644 1.394 . S
C645 C646 1.383 . S
C645 H653 0.929 . S
C646 C645 1.383 . S
C646 C647 1.377 1_655 S
C647 H631 0.930 . S
C647 C646 1.377 1_455 S
C647 C648 1.379 . S
C648 H632 0.931 . S
C648 C642 1.383 . S
C648 C647 1.379 . S
H649 C643 0.959 . S
H650 C643 0.961 . S
H651 C643 0.960 . S
H652 C644 0.930 . S
H653 C645 0.929 . S
H654 C662 0.929 . S
H655 C664 0.930 . S
H656 C666 0.930 . S
H657 C669 0.929 . S
H658 C672 0.930 . S
H659 C674 0.960 . S
H660 C674 0.960 . S
H661 C674 0.960 . S
C662 H654 0.929 . S
C662 C663 1.377 . S
C662 C664 1.384 . S
C663 C662 1.377 . S
C663 C669 1.390 . S
C664 H655 0.930 . S
C664 C662 1.384 . S
C664 C665 1.372 . S
C665 C664 1.372 . S
C665 C666 1.400 . S
C665 C670 1.490 . S
C666 H656 0.930 . S
C666 C665 1.400 . S
C666 C669 1.386 . S
H667 C683 0.930 . S
H668 C684 0.931 . S
C669 H657 0.929 . S
C669 C663 1.390 . S
C669 C666 1.386 . S
C670 C665 1.490 . S
C670 C672 1.395 . S
C670 C673 1.403 . S
H671 C677 0.930 . S
C672 H658 0.930 . S
C672 C670 1.395 . S
C672 C675 1.403 . S
C673 C670 1.403 . S
C673 C674 1.524 . S
C673 C677 1.400 . S
C674 H659 0.960 . S
C674 H660 0.960 . S
C674 H661 0.960 . S
C674 C673 1.524 . S
C675 C672 1.403 . S
C675 C676 1.392 . S
C675 C679 1.495 . S
C676 C675 1.392 . S
C676 C677 1.385 . S
C676 C678 1.478 . S
C677 H671 0.930 . S
C677 C673 1.400 . S
C677 C676 1.385 . S
C678 C676 1.478 . S
C678 C680 1.381 . S
C678 C684 1.383 . S
C679 C675 1.495 . S
C679 H685 0.959 1_545 S
C679 H686 0.961 . S
C679 H687 0.960 1_545 S
C680 C678 1.381 . S
C680 C681 1.394 . S
C680 H688 0.930 . S
C681 C680 1.394 . S
C681 C682 1.383 . S
C681 H689 0.929 . S
C682 C681 1.383 . S
C682 C683 1.377 . S
C683 H667 0.930 . S
C683 C682 1.377 . S
C683 C684 1.379 . S
C684 H668 0.931 . S
C684 C678 1.383 . S
C684 C683 1.379 . S
H685 C679 0.959 1_565 S
H686 C679 0.961 . S
H687 C679 0.960 1_565 S
H688 C680 0.930 . S
H689 C681 0.929 . S
H690 C698 0.929 . S
H691 C700 0.930 . S
H692 C702 0.930 . S
H693 C705 0.929 . S
H694 C708 0.930 . S
H695 C710 0.960 . S
H696 C710 0.960 . S
H697 C710 0.960 . S
C698 H690 0.929 . S
C698 C699 1.377 . S
C698 C700 1.384 . S
C699 C698 1.377 . S
C699 C705 1.390 . S
C700 H691 0.930 . S
C700 C698 1.384 . S
C700 C701 1.372 . S
C701 C700 1.372 . S
C701 C702 1.400 . S
C701 C706 1.490 . S
C702 H692 0.930 . S
C702 C701 1.400 . S
C702 C705 1.386 . S
H703 C719 0.930 . S
H704 C720 0.931 1_554 S
C705 H693 0.929 . S
C705 C699 1.390 . S
C705 C702 1.386 . S
C706 C701 1.490 . S
C706 C708 1.395 . S
C706 C709 1.403 . S
H707 C713 0.930 . S
C708 H694 0.930 . S
C708 C706 1.395 . S
C708 C711 1.351 1_554 S
C709 C706 1.403 . S
C709 C710 1.524 . S
C709 C713 1.400 . S
C710 H695 0.960 . S
C710 H696 0.960 . S
C710 H697 0.960 . S
C710 C709 1.524 . S
C711 C708 1.351 1_556 S
C711 C712 1.401 . S
C711 C715 1.540 . S
C712 C711 1.401 . S
C712 C713 1.385 1_556 S
C712 C714 1.478 . S
C713 H707 0.930 . S
C713 C709 1.400 . S
C713 C712 1.385 1_554 S
C714 C712 1.478 . S
C714 C716 1.381 . S
C714 C720 1.383 . S
C715 C711 1.540 . S
C715 H721 0.959 . S
C715 H722 0.961 . S
C715 H723 0.960 . S
C716 C714 1.381 . S
C716 C717 1.394 . S
C716 H724 0.930 . S
C717 C716 1.394 . S
C717 C718 1.383 . S
C717 H725 0.929 . S
C718 C717 1.383 . S
C718 C719 1.377 . S
C719 H703 0.930 . S
C719 C718 1.377 . S
C719 C720 1.379 . S
C720 H704 0.931 1_556 S
C720 C714 1.383 . S
C720 C719 1.379 . S
H721 C715 0.959 . S
H722 C715 0.961 . S
H723 C715 0.960 . S
H724 C716 0.930 . S
H725 C717 0.929 . S
H726 C734 0.929 . S
H727 C736 0.930 . S
H728 C738 0.930 . S
H729 C741 0.929 . S
H730 C744 0.930 . S
H731 C746 0.960 . S
H732 C746 0.960 . S
H733 C746 0.960 . S
C734 H726 0.929 . S
C734 C735 1.377 . S
C734 C736 1.384 . S
C735 C734 1.377 . S
C735 C741 1.390 1_455 S
C736 H727 0.930 . S
C736 C734 1.384 . S
C736 C737 1.372 . S
C737 C736 1.372 . S
C737 C738 1.400 1_455 S
C737 C742 1.490 . S
C738 H728 0.930 . S
C738 C737 1.400 1_655 S
C738 C741 1.386 . S
H739 C755 0.926 1_655 S
H740 C756 0.931 . S
C741 H729 0.929 . S
C741 C735 1.390 1_655 S
C741 C738 1.386 . S
C742 C737 1.490 . S
C742 C744 1.395 . S
C742 C745 1.403 1_455 S
H743 C749 0.930 . S
C744 H730 0.930 . S
C744 C742 1.395 . S
C744 C747 1.403 . S
C745 C742 1.403 1_655 S
C745 C746 1.524 . S
C745 C749 1.400 . S
C746 H731 0.960 . S
C746 H732 0.960 . S
C746 H733 0.960 . S
C746 C745 1.524 . S
C747 C744 1.403 . S
C747 C748 1.392 . S
C747 C751 1.495 . S
C748 C747 1.392 . S
C748 C749 1.385 1_455 S
C748 C750 1.478 . S
C749 H743 0.930 . S
C749 C745 1.400 . S
C749 C748 1.385 1_655 S
C750 C748 1.478 . S
C750 C752 1.381 . S
C750 C756 1.383 . S
C751 C747 1.495 . S
C751 H757 0.959 . S
C751 H758 0.961 . S
C751 H759 0.960 . S
C752 C750 1.381 . S
C752 C753 1.394 . S
C752 H760 0.930 . S
C753 C752 1.394 . S
C753 C754 1.383 . S
C753 H761 0.929 . S
C754 C753 1.383 . S
C754 C755 1.377 . S
C755 H739 0.926 1_455 S
C755 C754 1.377 . S
C755 C756 1.379 . S
C756 H740 0.931 . S
C756 C750 1.383 . S
C756 C755 1.379 . S
H757 C751 0.959 . S
H758 C751 0.961 . S
H759 C751 0.960 . S
H760 C752 0.930 . S
H761 C753 0.929 . S
C358 C147 1.387 . S
C339 C14 1.436 . S
C375 C40 1.351 . S
C394 C221 1.323 . S
C411 C76 2.150 1_665 S
C430 C325 2.168 . S
C447 C3 0.680 . S
C466 C159 0.697 . S
C502 C233 0.746 . S
C483 C38 0.721 . S
C519 C74 1.426 . S
C538 C319 1.350 . S
C574 C251 2.174 . S
C555 C86 2.141 1_655 S
C591 C2 1.445 1_655 S
C610 C295 1.412 . S
C646 C171 1.307 1_655 S
C627 C39 1.425 . S
C682 C245 1.266 . S
C663 C75 1.349 . S
C718 C307 0.687 . S
C699 C4 0.702 . S
C735 C50 2.210 . S
C754 C177 2.260 . S
