# Generated by pormake.
# Topology zzz, (3,6)-cn, num edge types: 1
# Building blocks:
#     Node 0, Type 0, BuildingBlock: PAMTOO_clean_linker_0, # of connection points: 3
#     Node 1, Type 0, BuildingBlock: PAMTOO_clean_linker_0, # of connection points: 3
#     Node 2, Type 0, BuildingBlock: PAMTOO_clean_linker_0, # of connection points: 3
#     Node 3, Type 0, BuildingBlock: PAMTOO_clean_linker_0, # of connection points: 3
#     Node 4, Type 0, BuildingBlock: PAMTOO_clean_linker_0, # of connection points: 3
#     Node 5, Type 0, BuildingBlock: PAMTOO_clean_linker_0, # of connection points: 3
#     Node 6, Type 0, BuildingBlock: PAMTOO_clean_linker_0, # of connection points: 3
#     Node 7, Type 0, BuildingBlock: PAMTOO_clean_linker_0, # of connection points: 3
#     Node 8, Type 1, BuildingBlock: FUNLAD_clean_sbu_0, # of connection points: 6
#     Node 9, Type 1, BuildingBlock: FUNLAD_clean_sbu_0, # of connection points: 6
#     Node 10, Type 1, BuildingBlock: FUNLAD_clean_sbu_0, # of connection points: 6
#     Node 11, Type 1, BuildingBlock: FUNLAD_clean_sbu_0, # of connection points: 6
#     Edge 12, Type (0, 1), BuildingBlock: XIVTED_clean_linker_0, # of connection points: 2
#     Edge 13, Type (0, 1), BuildingBlock: XIVTED_clean_linker_0, # of connection points: 2
#     Edge 14, Type (0, 1), BuildingBlock: XIVTED_clean_linker_0, # of connection points: 2
#     Edge 15, Type (0, 1), BuildingBlock: XIVTED_clean_linker_0, # of connection points: 2
#     Edge 16, Type (0, 1), BuildingBlock: XIVTED_clean_linker_0, # of connection points: 2
#     Edge 17, Type (0, 1), BuildingBlock: XIVTED_clean_linker_0, # of connection points: 2
#     Edge 18, Type (0, 1), BuildingBlock: XIVTED_clean_linker_0, # of connection points: 2
#     Edge 19, Type (0, 1), BuildingBlock: XIVTED_clean_linker_0, # of connection points: 2
#     Edge 20, Type (0, 1), BuildingBlock: XIVTED_clean_linker_0, # of connection points: 2
#     Edge 21, Type (0, 1), BuildingBlock: XIVTED_clean_linker_0, # of connection points: 2
#     Edge 22, Type (0, 1), BuildingBlock: XIVTED_clean_linker_0, # of connection points: 2
#     Edge 23, Type (0, 1), BuildingBlock: XIVTED_clean_linker_0, # of connection points: 2
#     Edge 24, Type (0, 1), BuildingBlock: XIVTED_clean_linker_0, # of connection points: 2
#     Edge 25, Type (0, 1), BuildingBlock: XIVTED_clean_linker_0, # of connection points: 2
#     Edge 26, Type (0, 1), BuildingBlock: XIVTED_clean_linker_0, # of connection points: 2
#     Edge 27, Type (0, 1), BuildingBlock: XIVTED_clean_linker_0, # of connection points: 2
#     Edge 28, Type (0, 1), BuildingBlock: XIVTED_clean_linker_0, # of connection points: 2
#     Edge 29, Type (0, 1), BuildingBlock: XIVTED_clean_linker_0, # of connection points: 2
#     Edge 30, Type (0, 1), BuildingBlock: XIVTED_clean_linker_0, # of connection points: 2
#     Edge 31, Type (0, 1), BuildingBlock: XIVTED_clean_linker_0, # of connection points: 2
#     Edge 32, Type (0, 1), BuildingBlock: XIVTED_clean_linker_0, # of connection points: 2
#     Edge 33, Type (0, 1), BuildingBlock: XIVTED_clean_linker_0, # of connection points: 2
#     Edge 34, Type (0, 1), BuildingBlock: XIVTED_clean_linker_0, # of connection points: 2
#     Edge 35, Type (0, 1), BuildingBlock: XIVTED_clean_linker_0, # of connection points: 2
# Relax obj value: 0.116
# Max RMSD: 0.175
# Mean RMSD: 0.089
data_MOF--net-zzz--node1-FUNLAD_clean_sbu_0--node2-PAMTOO_clean_linker_0--edge1-XIVTED_clean_linker_0
_symmetry_space_group_name_H-M    P1
_symmetry_Int_Tables_number       1
_symmetry_cell_setting            triclinic
loop_
_symmetry_equiv_pos_as_xyz
'x, y, z'
_cell_length_a     51.354957
_cell_length_b     57.236421
_cell_length_c     17.531418
_cell_angle_alpha  85.390958
_cell_angle_beta   84.609157
_cell_angle_gamma 90.169671
loop_
_atom_site_label
_atom_site_type_symbol
_atom_site_fract_x
_atom_site_fract_y
_atom_site_fract_z
_atom_type_partial_charge
H0 H 0.86354 0.47011 0.2507 0.0
H1 H 0.79401 0.48152 0.13464 0.0
H2 H 0.79644 0.50164 0.36489 0.0
H3 H 0.7347 0.49076 0.31883 0.0
C4 C 0.74548 0.48595 0.26445 0.0
O5 O 0.76759 0.49994 0.24887 0.0
H6 H 0.75054 0.46705 0.27336 0.0
C7 C 0.84318 0.47518 0.25169 0.0
C8 C 0.83143 0.4853 0.31634 0.0
C9 C 0.83009 0.47386 0.18554 0.0
C10 C 0.80435 0.48201 0.18561 0.0
C11 C 0.79206 0.4915 0.25076 0.0
C12 C 0.80569 0.49345 0.31584 0.0
H13 H 0.98184 0.83898 0.18989 0.0
H14 H 0.99878 0.78551 0.03384 0.0
H15 H 0.95119 0.76926 0.24725 0.0
H16 H 0.98357 0.7285 0.19958 0.0
C17 C 0.98895 0.73548 0.13908 0.0
O18 O 0.97159 0.75273 0.11895 0.0
H19 H 0.00923 0.74274 0.13563 0.0
C20 C 0.97983 0.82107 0.17488 0.0
C21 C 0.96489 0.80513 0.22576 0.0
C22 C 0.99263 0.81424 0.10634 0.0
C23 C 0.98928 0.79116 0.08695 0.0
C24 C 0.9742 0.77501 0.13747 0.0
C25 C 0.96222 0.78191 0.20747 0.0
H26 H 0.68363 0.01598 0.17185 0.0
H27 H 0.75286 0.00991 0.017 0.0
H28 H 0.75561 0.99379 0.26057 0.0
H29 H 0.80542 0.01793 0.18472 0.0
C30 C 0.80194 0.01537 0.12426 0.0
O31 O 0.78342 0.99777 0.12468 0.0
H32 H 0.79471 0.03222 0.09812 0.0
C33 C 0.70441 0.01248 0.16233 0.0
C34 C 0.71804 0.00485 0.22488 0.0
C35 C 0.71663 0.01424 0.0874 0.0
C36 C 0.74322 0.00879 0.07488 0.0
C37 C 0.75749 0.00199 0.13738 0.0
C38 C 0.74476 0.99957 0.21253 0.0
H39 H 0.52732 0.63823 0.16886 0.0
H40 H 0.51821 0.70249 0.02944 0.0
H41 H 0.54985 0.70387 0.24798 0.0
H42 H 0.51593 0.74668 0.20848 0.0
C43 C 0.51606 0.74407 0.14625 0.0
O44 O 0.5365 0.72949 0.12597 0.0
H45 H 0.49699 0.73604 0.13652 0.0
C46 C 0.52916 0.65718 0.16009 0.0
C47 C 0.53991 0.66953 0.2155 0.0
C48 C 0.52095 0.66885 0.09343 0.0
C49 C 0.52408 0.69325 0.08136 0.0
C50 C 0.53424 0.7059 0.13738 0.0
C51 C 0.54201 0.69406 0.20483 0.0
H52 H 0.18187 0.53966 0.16458 0.0
H53 H 0.25131 0.52917 0.28177 0.0
H54 H 0.24757 0.50425 0.05817 0.0
H55 H 0.28535 0.47286 0.16202 0.0
C56 C 0.28024 0.4849 0.20772 0.0
O57 O 0.27654 0.50711 0.17359 0.0
H58 H 0.26203 0.47781 0.24137 0.0
C59 C 0.20206 0.53417 0.16481 0.0
C60 C 0.21347 0.52276 0.10242 0.0
C61 C 0.21521 0.53621 0.23053 0.0
C62 C 0.24085 0.52787 0.23142 0.0
C63 C 0.25252 0.51644 0.16937 0.0
C64 C 0.23875 0.51366 0.10507 0.0
H65 H 0.08627 0.16468 0.25809 0.0
H66 H 0.06702 0.21512 0.4231 0.0
H67 H 0.0906 0.23813 0.18692 0.0
H68 H 0.03586 0.24999 0.35092 0.0
C69 C 0.05148 0.26196 0.32162 0.0
O70 O 0.07566 0.25163 0.32433 0.0
H71 H 0.04756 0.26552 0.26043 0.0
C72 C 0.08555 0.18269 0.27329 0.0
C73 C 0.09082 0.20067 0.21497 0.0
C74 C 0.07656 0.18749 0.34828 0.0
C75 C 0.07405 0.21094 0.36562 0.0
C76 C 0.07952 0.22919 0.30775 0.0
C77 C 0.0876 0.22406 0.23212 0.0
H78 H 0.35896 0.98622 0.25774 0.0
H79 H 0.28893 0.98747 0.41226 0.0
H80 H 0.28574 0.0043 0.16913 0.0
H81 H 0.24201 0.02919 0.26623 0.0
C82 C 0.24636 0.01944 0.3209 0.0
O83 O 0.2579 0.9984 0.30461 0.0
H84 H 0.25994 0.03058 0.34876 0.0
C85 C 0.33796 0.98857 0.26724 0.0
C86 C 0.32395 0.99551 0.20487 0.0
C87 C 0.32564 0.9857 0.34195 0.0
C88 C 0.29866 0.98947 0.35449 0.0
C89 C 0.28414 0.99586 0.29215 0.0
C90 C 0.29686 0.99912 0.21712 0.0
H91 H 0.52123 0.35962 0.23823 0.0
H92 H 0.52913 0.29512 0.3776 0.0
H93 H 0.49604 0.29456 0.16099 0.0
H94 H 0.47278 0.25474 0.27616 0.0
C95 C 0.48637 0.25833 0.31964 0.0
O96 O 0.50899 0.26864 0.2827 0.0
H97 H 0.47637 0.27037 0.35969 0.0
C98 C 0.51898 0.34071 0.24708 0.0
C99 C 0.50755 0.32861 0.19231 0.0
C100 C 0.5271 0.32885 0.31356 0.0
C101 C 0.52339 0.30449 0.32574 0.0
C102 C 0.51224 0.29213 0.27072 0.0
C103 C 0.50458 0.30416 0.20345 0.0
C104 C 0.03665 0.96299 0.81527 0.0
N105 N 1.00282 0.96885 0.6094 0.0
C106 C 0.01891 0.95028 0.60014 0.0
C107 C 0.01076 0.9308 0.56606 0.0
C108 C 0.98601 0.93042 0.53802 0.0
C109 C 0.97017 0.95036 0.54503 0.0
C110 C 0.9789 0.9694 0.58185 0.0
Zn111 Zn 0.01519 0.99261 0.67996 0.0
C112 C 0.97452 0.00148 0.80661 0.0
N113 N 0.04434 0.03525 0.84101 0.0
C114 C 0.06874 0.03597 0.86509 0.0
C115 C 0.02733 0.0531 0.85207 0.0
C116 C 0.0349 0.07308 0.88451 0.0
C117 C 0.06014 0.07482 0.90837 0.0
C118 C 0.07701 0.05562 0.89975 0.0
Zn119 Zn 0.03238 0.01123 0.77053 0.0
O120 O 0.02524 0.96402 0.75403 0.0
C121 C 0.07316 0.00252 0.64456 0.0
O122 O 0.0432 0.98189 0.84235 0.0
H123 H 0.00816 0.05254 0.83154 0.0
H124 H 0.03778 0.94998 0.62276 0.0
H125 H 0.08211 0.02174 0.85491 0.0
O126 O 0.05353 0.99297 0.61987 0.0
O127 O 0.07013 0.01191 0.70813 0.0
H128 H 0.96629 0.98426 0.59038 0.0
O129 O 0.02153 0.04005 0.69726 0.0
O130 O 1.00585 0.02159 0.60624 0.0
O131 O 0.99463 0.01 0.83167 0.0
O132 O 0.97685 0.99289 0.74155 0.0
C133 C 0.0115 0.04064 0.63374 0.0
H134 H 0.02361 0.91587 0.56471 0.0
H135 H 0.95112 0.95121 0.52336 0.0
H136 H 0.02124 0.08742 0.88745 0.0
H137 H 0.09653 0.05588 0.91822 0.0
C138 C 0.48225 0.99082 0.62448 0.0
N139 N 0.51759 0.05457 0.66047 0.0
C140 C 0.51733 0.05865 0.58301 0.0
C141 C 0.51561 0.08143 0.54934 0.0
C142 C 0.51422 0.10042 0.5955 0.0
C143 C 0.51454 0.09574 0.67546 0.0
C144 C 0.51626 0.07256 0.70691 0.0
Zn145 Zn 0.51973 0.02022 0.70297 0.0
C146 C 0.48055 0.00608 0.82863 0.0
N147 N 0.524 0.94715 0.77217 0.0
C148 C 0.52301 0.92843 0.72921 0.0
C149 C 0.52493 0.94406 0.84963 0.0
C150 C 0.52452 0.92167 0.88703 0.0
C151 C 0.52277 0.90196 0.84498 0.0
C152 C 0.52241 0.90552 0.76468 0.0
Zn153 Zn 0.52228 0.98145 0.72781 0.0
O154 O 0.49055 0.01132 0.63275 0.0
C155 C 0.56145 0.99553 0.60215 0.0
O156 O 0.49311 0.97319 0.65651 0.0
H157 H 0.52555 0.95906 0.88313 0.0
H158 H 0.5183 0.04415 0.547 0.0
H159 H 0.52216 0.93125 0.66774 0.0
O160 O 0.55042 0.01484 0.61582 0.0
O161 O 0.55285 0.9767 0.63981 0.0
H162 H 0.51652 0.06894 0.76834 0.0
O163 O 0.55152 0.99041 0.79747 0.0
O164 O 0.5489 0.02854 0.77439 0.0
O165 O 0.49163 0.98683 0.81487 0.0
O166 O 0.48912 0.02491 0.79101 0.0
C167 C 0.55982 0.01088 0.80601 0.0
H168 H 0.5149 0.08404 0.48771 0.0
H169 H 0.51373 0.10983 0.71328 0.0
H170 H 0.52543 0.91988 0.94869 0.0
H171 H 0.52094 0.89085 0.72995 0.0
C172 C 0.53946 0.46299 0.61721 0.0
N173 N 0.46834 0.49827 0.63724 0.0
C174 C 0.47173 0.49879 0.55922 0.0
C175 C 0.45038 0.49726 0.51653 0.0
C176 C 0.42503 0.49484 0.55399 0.0
C177 C 0.42191 0.49473 0.63468 0.0
C178 C 0.44399 0.49645 0.67547 0.0
Zn179 Zn 0.50215 0.49904 0.69096 0.0
C180 C 0.50598 0.46384 0.81373 0.0
N181 N 0.57769 0.49949 0.77109 0.0
C182 C 0.60233 0.49808 0.73558 0.0
C183 C 0.57366 0.50107 0.84833 0.0
C184 C 0.59462 0.50165 0.89285 0.0
C185 C 0.62025 0.50039 0.85826 0.0
C186 C 0.62407 0.49835 0.77854 0.0
Zn187 Zn 0.54403 0.49896 0.71629 0.0
O188 O 0.51674 0.47177 0.62436 0.0
C189 C 0.54034 0.53424 0.59387 0.0
O190 O 0.55793 0.47191 0.64903 0.0
H191 H 0.554 0.50177 0.87603 0.0
H192 H 0.49119 0.50012 0.52967 0.0
H193 H 0.60512 0.49671 0.67418 0.0
O194 O 0.51717 0.52601 0.60723 0.0
O195 O 0.55848 0.52508 0.63048 0.0
H196 H 0.44172 0.49598 0.73755 0.0
O197 O 0.52944 0.5266 0.78129 0.0
O198 O 0.48803 0.52581 0.75913 0.0
O199 O 0.52903 0.47233 0.80094 0.0
O200 O 0.4879 0.47265 0.77617 0.0
C201 C 0.5066 0.5351 0.78946 0.0
H202 H 0.4538 0.49796 0.45448 0.0
H203 H 0.40274 0.49278 0.66606 0.0
H204 H 0.59073 0.50269 0.9543 0.0
H205 H 0.64359 0.49729 0.74978 0.0
C206 C 0.06294 0.52136 0.60403 0.0
N207 N 0.0337 0.45303 0.65996 0.0
C208 C 0.03729 0.45255 0.58223 0.0
C209 C 0.04017 0.43135 0.54884 0.0
C210 C 0.0391 0.4102 0.5955 0.0
C211 C 0.03605 0.41114 0.67581 0.0
C212 C 0.03333 0.4329 0.70704 0.0
Zn213 Zn 0.02675 0.48536 0.69981 0.0
C214 C 0.06038 0.49895 0.81036 0.0
N215 N 0.01151 0.55527 0.75636 0.0
C216 C 0.01003 0.57527 0.70939 0.0
C217 C 0.0083 0.5557 0.83416 0.0
C218 C 1.00317 0.57662 0.8677 0.0
C219 C 1.00141 0.59754 0.82109 0.0
C220 C 1.00509 0.59677 0.7408 0.0
Zn221 Zn 0.01883 0.52301 0.71635 0.0
O222 O 0.05707 0.49983 0.62021 0.0
C223 C 0.98529 0.50924 0.60554 0.0
O224 O 0.04878 0.53694 0.63431 0.0
H225 H 0.00982 0.53972 0.87068 0.0
H226 H 0.03739 0.46867 0.54558 0.0
H227 H 0.01269 0.57454 0.64769 0.0
O228 O 0.99834 0.49085 0.62021 0.0
O229 O 0.99022 0.52779 0.63713 0.0
H230 H 0.03034 0.43367 0.76869 0.0
O231 O 0.98884 0.50863 0.79659 0.0
O232 O 0.99642 0.47151 0.78114 0.0
O233 O 0.04771 0.51756 0.79517 0.0
O234 O 0.05493 0.48037 0.77969 0.0
C235 C 0.98259 0.48718 0.81209 0.0
H236 H 0.04304 0.43158 0.48679 0.0
H237 H 0.03497 0.39526 0.71398 0.0
H238 H 1.00103 0.57644 0.92981 0.0
H239 H 1.00386 0.61254 0.70285 0.0
H240 H 0.23644 0.02636 0.47464 0.0
H241 H 0.08548 0.98699 0.50169 0.0
H242 H 0.19951 0.00237 0.28406 0.0
H243 H 0.11993 0.01971 0.68215 0.0
H244 H 0.12783 0.98951 0.42497 0.0
H245 H 0.19486 0.02094 0.55528 0.0
C246 C 0.21954 0.01989 0.44993 0.0
C247 C 0.22125 0.01507 0.37241 0.0
C248 C 0.12616 0.9961 0.48141 0.0
C249 C 0.17363 0.00869 0.46429 0.0
C250 C 0.10195 0.99463 0.52541 0.0
C251 C 0.09904 0.00322 0.59858 0.0
C252 C 0.14776 0.00614 0.51068 0.0
C253 C 0.12118 0.01292 0.62606 0.0
C254 C 0.1958 0.01682 0.49588 0.0
C255 C 0.19887 0.00647 0.34343 0.0
N256 N 0.14454 0.01413 0.58214 0.0
N257 N 0.17597 0.00363 0.38923 0.0
H258 H 0.51521 0.22171 0.2666 0.0
H259 H 0.4846 0.13661 0.6501 0.0
H260 H 0.47087 0.24298 0.47004 0.0
H261 H 0.53873 0.11988 0.45909 0.0
H262 H 0.47934 0.17564 0.58604 0.0
H263 H 0.52369 0.18405 0.3361 0.0
C264 C 0.50748 0.21847 0.32618 0.0
C265 C 0.49264 0.23553 0.36302 0.0
C266 C 0.49245 0.16345 0.55834 0.0
C267 C 0.50183 0.19241 0.44267 0.0
C268 C 0.4956 0.14118 0.59513 0.0
C269 C 0.512 0.12478 0.55982 0.0
C270 C 0.50572 0.16939 0.4855 0.0
C271 C 0.52546 0.1317 0.48795 0.0
C272 C 0.51227 0.197 0.36584 0.0
C273 C 0.48265 0.23036 0.43985 0.0
N274 N 0.52192 0.15338 0.45312 0.0
N275 N 0.48737 0.20925 0.4771 0.0
H276 H 0.33147 0.47171 0.18197 0.0
H277 H 0.37561 0.51346 0.57569 0.0
H278 H 0.27743 0.50019 0.35266 0.0
H279 H 0.42261 0.47 0.42762 0.0
H280 H 0.33979 0.51049 0.49372 0.0
H281 H 0.36598 0.47325 0.26881 0.0
C282 C 0.32692 0.47823 0.23795 0.0
C283 C 0.30161 0.48564 0.2607 0.0
C284 C 0.35795 0.50157 0.47945 0.0
C285 C 0.34094 0.48773 0.36008 0.0
C286 C 0.37836 0.50315 0.52646 0.0
C287 C 0.40234 0.4922 0.50819 0.0
C288 C 0.36158 0.48904 0.41357 0.0
C289 C 0.40477 0.47924 0.44312 0.0
C290 C 0.34656 0.4791 0.28755 0.0
C291 C 0.29673 0.49424 0.33335 0.0
N292 N 0.38477 0.47816 0.3981 0.0
N293 N 0.31623 0.49509 0.38055 0.0
H294 H 0.03187 0.30448 0.27314 0.0
H295 H 0.06455 0.36976 0.64079 0.0
H296 H 0.06785 0.26952 0.4628 0.0
H297 H 0.01645 0.39878 0.46818 0.0
H298 H 0.06773 0.33335 0.57574 0.0
H299 H 0.0284 0.34003 0.34169 0.0
C300 C 0.03929 0.30442 0.32899 0.0
C301 C 0.05066 0.28427 0.36175 0.0
C302 C 0.05647 0.34772 0.5523 0.0
C303 C 0.04641 0.32473 0.44135 0.0
C304 C 0.05453 0.36845 0.58962 0.0
C305 C 0.04045 0.3875 0.55952 0.0
C306 C 0.04428 0.34606 0.4844 0.0
C307 C 0.02804 0.38483 0.49262 0.0
C308 C 0.03719 0.32465 0.36835 0.0
C309 C 0.05942 0.28491 0.43506 0.0
N310 N 0.03034 0.3646 0.45729 0.0
N311 N 0.05723 0.30487 0.47234 0.0
H312 H 0.80914 0.00229 0.97573 0.0
H313 H 0.96516 0.01391 0.95358 0.0
H314 H 0.85195 0.01663 0.16697 0.0
H315 H 0.92546 0.98955 0.76811 0.0
H316 H 0.92343 0.01498 0.03118 0.0
H317 H 0.85087 0.99714 0.89788 0.0
C318 C 0.82734 0.00396 0.00156 0.0
C319 C 0.82712 0.00954 0.07818 0.0
C320 C 0.92374 0.00932 0.97365 0.0
C321 C 0.87483 0.00427 0.98933 0.0
C322 C 0.94765 0.00875 0.92901 0.0
C323 C 0.94892 0.00168 0.85388 0.0
C324 C 0.90065 0.00294 0.94322 0.0
C325 C 0.92544 0.99513 0.82567 0.0
C326 C 0.85111 1.00114 0.95714 0.0
C327 C 0.8512 0.01205 0.1085 0.0
N328 N 0.90225 0.99603 0.8702 0.0
N329 N 0.874 0.00948 0.06403 0.0
H330 H 0.53438 0.75336 0.99303 0.0
H331 H 0.49525 0.88859 0.98294 0.0
H332 H 0.5019 0.78721 0.19092 0.0
H333 H 0.54526 0.86074 0.80075 0.0
H334 H 0.49421 0.85035 0.05449 0.0
H335 H 0.53569 0.79136 0.91684 0.0
C336 C 0.52789 0.76887 0.02064 0.0
C337 C 0.51873 0.76732 0.09899 0.0
C338 C 0.50546 0.85255 -0.00107 0.0
C339 C 0.51934 0.81057 0.01176 0.0
C340 C 0.50617 0.87447 0.958 0.0
C341 C 0.52073 0.87809 0.88602 0.0
C342 C 0.51921 0.83386 0.96775 0.0
C343 C 0.53374 0.8588 0.85588 0.0
C344 C 0.52852 0.79049 0.9771 0.0
C345 C 0.50967 0.78776 0.13121 0.0
N346 N 0.53275 0.83751 0.89701 0.0
N347 N 0.51022 0.8085 0.08757 0.0
H348 H 0.7089 0.51987 0.24243 0.0
H349 H 0.66322 0.47179 0.85824 0.0
H350 H 0.74467 0.46097 0.13702 0.0
H351 H 0.62742 0.52971 0.96987 0.0
H352 H 0.69605 0.46967 0.95168 0.0
H353 H 0.68125 0.52563 0.13622 0.0
C354 C 0.71078 0.50811 0.19684 0.0
C355 C 0.72851 0.48959 0.19913 0.0
C356 C 0.68114 0.48297 0.95525 0.0
C357 C 0.6973 0.49615 0.07685 0.0
C358 C 0.66253 0.48429 0.9016 0.0
C359 C 0.6424 0.50078 0.90688 0.0
C360 C 0.67959 0.49831 0.0143 0.0
C361 C 0.64233 0.51646 0.96452 0.0
C362 C 0.69511 0.51141 0.1361 0.0
C363 C 0.73077 0.47515 0.13788 0.0
N364 N 0.66047 0.51472 0.01617 0.0
N365 N 0.71518 0.47861 0.07944 0.0
H366 H 0.95732 0.69642 0.15537 0.0
H367 H 0.02537 0.64044 0.78287 0.0
H368 H 0.01814 0.7314 0.00144 0.0
H369 H 0.96603 0.60537 0.94258 0.0
H370 H 0.01997 0.6756 0.85374 0.0
H371 H 0.95738 0.66441 0.07064 0.0
C372 C 0.97069 0.69727 0.10359 0.0
C373 C 0.9882 0.71616 0.08606 0.0
C374 C 0.00799 0.66026 0.87288 0.0
C375 C 0.98829 0.67986 0.98841 0.0
C376 C 0.01095 0.64025 0.83213 0.0
C377 C 0.99635 0.61986 0.85739 0.0
C378 C 0.99026 0.65986 0.9392 0.0
C379 C 0.97806 0.62055 0.92194 0.0
C380 C 0.97072 0.67907 0.05515 0.0
C381 C 1.00474 0.71681 0.01751 0.0
N382 N 0.97567 0.64013 0.96082 0.0
N383 N 1.00456 0.6988 0.97144 0.0
H384 H 0.09873 0.14451 0.37228 0.0
H385 H 0.9993 0.08329 0.68437 0.0
H386 H 0.03172 0.18497 0.44805 0.0
H387 H 0.0266 0.04925 0.48157 0.0
H388 H 0.01342 0.12127 0.61766 0.0
H389 H 0.0773 0.10929 0.43728 0.0
C390 C 0.07966 0.14605 0.40342 0.0
C391 C 0.06678 0.16766 0.40337 0.0
C392 C 0.01562 0.10552 0.58737 0.0
C393 C 0.04243 0.12749 0.47843 0.0
C394 C 0.00743 0.08396 0.62489 0.0
C395 C 0.0117 0.06325 0.58792 0.0
C396 C 0.02891 0.10606 0.5138 0.0
C397 C 0.0227 0.06488 0.51154 0.0
C398 C 0.06742 0.12594 0.43987 0.0
C399 C 0.04237 0.16869 0.4466 0.0
N400 N 0.03159 0.08591 0.47752 0.0
N401 N 0.03087 0.14879 0.4825 0.0
H402 H 0.35743 0.94841 0.36689 0.0
H403 H 0.44888 0.02526 0.58265 0.0
H404 H 0.33299 0.01363 0.4562 0.0
H405 H 0.45977 0.95045 0.58299 0.0
H406 H 0.40702 0.02099 0.53106 0.0
H407 H 0.39445 0.94745 0.44583 0.0
C408 C 0.35943 0.96208 0.40531 0.0
C409 C 0.34226 0.98111 0.4055 0.0
C410 C 0.41847 0.00547 0.54267 0.0
C411 C 0.38485 0.98063 0.49302 0.0
C412 C 0.44259 0.0079 0.57124 0.0
C413 C 0.458 0.98818 0.58668 0.0
C414 C 0.40971 0.98319 0.52807 0.0
C415 C 0.44858 0.96613 0.57146 0.0
C416 C 0.3806 0.96163 0.44976 0.0
C417 C 0.34574 0.99859 0.4551 0.0
N418 N 0.42507 0.96423 0.54228 0.0
N419 N 0.36699 0.99819 0.49579 0.0
H420 H 0.5671 0.36092 0.29285 0.0
H421 H 0.50383 0.42812 0.62916 0.0
H422 H 0.50953 0.32905 0.46492 0.0
H423 H 0.58194 0.44639 0.52942 0.0
H424 H 0.50687 0.39114 0.57015 0.0
H425 H 0.57551 0.39101 0.37964 0.0
C426 C 0.55679 0.35993 0.34987 0.0
C427 C 0.53738 0.34273 0.37175 0.0
C428 C 0.52352 0.40304 0.56161 0.0
C429 C 0.54644 0.37719 0.47004 0.0
C430 C 0.52168 0.4243 0.59449 0.0
C431 C 0.54251 0.44045 0.58273 0.0
C432 C 0.54613 0.39802 0.51486 0.0
C433 C 0.56539 0.43442 0.53898 0.0
C434 C 0.56159 0.37706 0.39924 0.0
C435 C 0.5246 0.34206 0.446 0.0
N436 N 0.56643 0.41377 0.50509 0.0
N437 N 0.52893 0.3594 0.49194 0.0
H438 H 0.17983 0.57186 0.24883 0.0
H439 H 0.10501 0.49354 0.58487 0.0
H440 H 0.21477 0.51394 0.37388 0.0
H441 H 0.07805 0.56314 0.52145 0.0
H442 H 0.14653 0.50276 0.51109 0.0
H443 H 0.14469 0.57239 0.3533 0.0
C444 C 0.18055 0.55975 0.29934 0.0
C445 C 0.19989 0.54245 0.30184 0.0
C446 C 0.13171 0.51617 0.51352 0.0
C447 C 0.15975 0.54278 0.42048 0.0
C448 C 0.1078 0.5108 0.55492 0.0
C449 C 0.08788 0.52748 0.55808 0.0
C450 C 0.13574 0.53826 0.47331 0.0
C451 C 0.09286 0.54973 0.51961 0.0
C452 C 0.16047 0.56004 0.3588 0.0
C453 C 0.20019 0.52747 0.36904 0.0
N454 N 0.11625 0.55439 0.47753 0.0
N455 N 0.18005 0.52762 0.42484 0.0
H456 H 0.99459 0.82279 0.94967 0.0
H457 H 0.04699 0.95152 0.96532 0.0
H458 H 0.02747 0.84587 0.14881 0.0
H459 H 0.03468 0.9211 0.75388 0.0
H460 H 0.04475 0.91203 0.03171 0.0
H461 H 0.01412 0.85713 0.87339 0.0
C462 C 1.0064 0.83479 0.97692 0.0
C463 C 0.00884 0.83182 0.05599 0.0
C464 C 0.04304 0.91402 0.97045 0.0
C465 C 0.03071 0.8714 0.96985 0.0
C466 C 0.04435 0.93655 0.93268 0.0
C467 C 0.04042 0.93963 0.85452 0.0
C468 C 0.03759 0.89465 0.9296 0.0
C469 C 0.03719 0.91961 0.8147 0.0
C470 C 0.01745 0.85449 0.93354 0.0
C471 C 0.02441 0.84794 0.08838 0.0
N472 N 0.03542 0.89805 0.85288 0.0
N473 N 0.0343 0.86731 0.0456 0.0
H474 H 0.68551 0.05208 0.06224 0.0
H475 H 0.5929 0.97623 0.84771 0.0
H476 H 0.70892 0.98664 0.9725 0.0
H477 H 0.58282 0.05116 0.84673 0.0
H478 H 0.63491 0.98019 0.89842 0.0
H479 H 0.64852 0.0536 0.98312 0.0
C480 C 0.6833 0.03846 0.02376 0.0
C481 C 0.70012 0.01917 0.02371 0.0
C482 C 0.62362 0.99582 0.88685 0.0
C483 C 0.65761 0.02035 0.93578 0.0
C484 C 0.5994 0.99356 0.85878 0.0
C485 C 0.58417 0.01341 0.84341 0.0
C486 C 0.63266 0.01803 0.90107 0.0
C487 C 0.59386 0.03539 0.85824 0.0
C488 C 0.66215 0.03925 0.97915 0.0
C489 C 0.69643 0.00184 0.97371 0.0
N490 N 0.61747 0.03711 0.88699 0.0
N491 N 0.67521 0.00258 0.93289 0.0
H492 H 0.48129 0.63653 0.11597 0.0
H493 H 0.54106 0.57091 0.76996 0.0
H494 H 0.53778 0.66872 0.94134 0.0
H495 H 0.46516 0.55089 0.8832 0.0
H496 H 0.5384 0.60783 0.82945 0.0
H497 H 0.47212 0.60669 0.02918 0.0
C498 C 0.49125 0.6376 0.05848 0.0
C499 C 0.51056 0.65483 0.0358 0.0
C500 C 0.52213 0.59558 0.84086 0.0
C501 C 0.50059 0.62068 0.9373 0.0
C502 C 0.52376 0.57437 0.8076 0.0
C503 C 0.5035 0.55773 0.82315 0.0
C504 C 0.50033 0.60004 0.89172 0.0
C505 C 0.48128 0.56326 0.87067 0.0
C506 C 0.486 0.62063 0.00907 0.0
C507 C 0.52283 0.65566 0.9609 0.0
N508 N 0.48048 0.58385 0.9048 0.0
N509 N 0.51804 0.63848 0.91481 0.0
H510 H 0.8645 0.43772 0.16503 0.0
H511 H 0.9412 0.51573 0.83139 0.0
H512 H 0.83137 0.49736 0.04384 0.0
H513 H 0.96643 0.44545 0.89355 0.0
H514 H 0.8995 0.50721 0.90478 0.0
H515 H 0.89948 0.43689 0.06024 0.0
C516 C 0.86415 0.45018 0.11524 0.0
C517 C 0.84537 0.46799 0.11385 0.0
C518 C 0.91396 0.49349 0.90218 0.0
C519 C 0.88534 0.46732 -0.0051 0.0
C520 C 0.93799 0.49845 0.86099 0.0
C521 C 0.9575 0.48139 0.85765 0.0
C522 C 0.90939 0.47142 0.94201 0.0
C523 C 0.95196 0.45916 0.8956 0.0
C524 C 0.88412 0.44971 0.05561 0.0
C525 C 0.84552 0.48344 0.04767 0.0
N526 N 0.92847 0.45489 0.93752 0.0
N527 N 0.86557 0.48308 0.99165 0.0
H528 H 0.0567 0.20633 0.10698 0.0
H529 H 0.10964 0.09514 0.89705 0.0
H530 H 0.13158 0.17672 0.14817 0.0
H531 H 0.02997 0.10533 0.9914 0.0
H532 H 0.12197 0.13215 0.94658 0.0
H533 H 0.05204 0.17829 0.0107 0.0
C534 C 0.07283 0.19483 0.09249 0.0
C535 C 0.09444 0.19362 0.13566 0.0
C536 C 0.10176 0.12627 0.95493 0.0
C537 C 0.08895 0.16123 0.02796 0.0
C538 C 0.09471 0.10499 0.92784 0.0
C539 C 0.06859 0.0969 0.93941 0.0
C540 C 0.08249 0.13977 0.99204 0.0
C541 C 0.05016 0.11088 0.97869 0.0
C542 C 0.06997 0.17857 0.03866 0.0
C543 C 0.11462 0.17808 0.11581 0.0
N544 N 0.05745 0.13158 0.00308 0.0
N545 N 0.11114 0.16202 0.06447 0.0
H546 H 0.34262 0.0367 0.13063 0.0
H547 H 0.45523 0.96777 0.90335 0.0
H548 H 0.34192 0.96212 0.1132 0.0
H549 H 0.4496 0.04313 0.87229 0.0
H550 H 0.41334 0.9662 0.98026 0.0
H551 H 0.37991 0.04052 0.03142 0.0
C552 C 0.34963 0.02129 0.10334 0.0
C553 C 0.339 0.99911 0.12881 0.0
C554 C 0.42115 0.98313 0.95668 0.0
C555 C 0.38224 0.00311 0.01869 0.0
C556 C 0.4453 0.98408 0.91317 0.0
C557 C 0.45615 0.00565 0.88141 0.0
C558 C 0.40758 0.00391 0.96967 0.0
C559 C 0.44209 0.02612 0.89599 0.0
C560 C 0.37114 0.0234 0.04769 0.0
C561 C 0.34932 0.97955 0.09396 0.0
N562 N 0.41856 0.02476 0.93939 0.0
N563 N 0.37056 0.98196 0.04151 0.0
H564 H 0.53055 0.32912 0.04625 0.0
H565 H 0.46073 0.44699 0.89845 0.0
H566 H 0.46836 0.36032 0.18465 0.0
H567 H 0.5417 0.43037 0.84028 0.0
H568 H 0.45579 0.40984 0.98082 0.0
H569 H 0.52612 0.36015 0.94332 0.0
C570 C 0.51531 0.34202 0.05358 0.0
C571 C 0.49975 0.34228 0.12339 0.0
C572 C 0.47452 0.4144 0.94938 0.0
C573 C 0.49493 0.37791 0.00757 0.0
C574 C 0.47736 0.43553 0.90286 0.0
C575 C 0.50177 0.44192 0.86389 0.0
C576 C 0.49605 0.39943 0.95465 0.0
C577 C 0.52267 0.42637 0.87065 0.0
C578 C 0.51298 0.35984 -0.00452 0.0
C579 C 0.4806 0.35961 0.13113 0.0
N580 N 0.51931 0.40587 0.91493 0.0
N581 N 0.47888 0.37695 0.07414 0.0
H582 H 0.18954 0.55543 0.01365 0.0
H583 H 0.09566 0.46431 0.84594 0.0
H584 H 0.19888 0.48079 0.05362 0.0
H585 H 0.07835 0.53716 0.8728 0.0
H586 H 0.13669 0.46936 0.90519 0.0
H587 H 0.15331 0.5486 0.93735 0.0
C588 C 0.18432 0.53758 0.00446 0.0
C589 C 0.19708 0.51865 0.03981 0.0
C590 C 0.12377 0.48413 0.89816 0.0
C591 C 0.1551 0.51059 0.95485 0.0
C592 C 0.1003 0.48125 0.86498 0.0
C593 C 0.08347 0.50032 0.85451 0.0
C594 C 0.1305 0.5063 0.91994 0.0
C595 C 0.0906 0.52191 0.87964 0.0
C596 C 0.16346 0.53365 0.96179 0.0
C597 C 0.18956 0.49583 0.02667 0.0
N598 N 0.11356 0.52431 0.91062 0.0
N599 N 0.16875 0.49238 0.98592 0.0
H600 H 0.98643 0.79657 0.35933 0.0
H601 H 0.93543 0.91303 0.53617 0.0
H602 H 0.9242 0.83433 0.25791 0.0
H603 H 0.01597 0.89861 0.45994 0.0
H604 H 0.92229 0.87699 0.48183 0.0
H605 H 0.98632 0.82517 0.45602 0.0
C606 C 0.97164 0.81004 0.36043 0.0
C607 C 0.95537 0.81326 0.30081 0.0
C608 C 0.94281 0.88176 0.47871 0.0
C609 C 0.95553 0.84608 0.40933 0.0
C610 C 0.9504 0.90247 0.50854 0.0
C611 C 0.97702 0.90904 0.5038 0.0
C612 C 0.96202 0.86725 0.44629 0.0
C613 C 0.99536 0.8942 0.46803 0.0
C614 C 0.97185 0.82652 0.41473 0.0
C615 C 0.93695 0.83133 0.30344 0.0
N616 N 0.98753 0.87402 0.44141 0.0
N617 N 0.93792 0.84752 0.35585 0.0
H618 H 0.70036 0.9641 0.30476 0.0
H619 H 0.58639 0.03371 0.52511 0.0
H620 H 0.69891 0.03911 0.31138 0.0
H621 H 0.59274 0.95849 0.56045 0.0
H622 H 0.62822 0.03522 0.4479 0.0
H623 H 0.66308 0.9607 0.40411 0.0
C624 C 0.69287 0.97975 0.32963 0.0
C625 C 0.70286 0.0019 0.30096 0.0
C626 C 0.62058 0.01833 0.47245 0.0
C627 C 0.65966 0.99831 0.41139 0.0
C628 C 0.59647 0.01741 0.51618 0.0
C629 C 0.58583 0.99589 0.54922 0.0
C630 C 0.63435 0.99757 0.46059 0.0
C631 C 0.60008 0.97545 0.53573 0.0
C632 C 0.67136 0.97786 0.38536 0.0
C633 C 0.69196 0.02172 0.33295 0.0
N634 N 0.62358 0.97677 0.49216 0.0
N635 N 0.67077 0.01948 0.3856 0.0
H636 H 0.51641 0.66909 0.36105 0.0
H637 H 0.58569 0.55094 0.50932 0.0
H638 H 0.57929 0.63807 0.22483 0.0
H639 H 0.50487 0.56803 0.56793 0.0
H640 H 0.5909 0.58817 0.42755 0.0
H641 H 0.52052 0.63808 0.46424 0.0
C642 C 0.53173 0.65625 0.35428 0.0
C643 C 0.54757 0.65602 0.28493 0.0
C644 C 0.57214 0.5837 0.45895 0.0
C645 C 0.55201 0.62038 0.40104 0.0
C646 C 0.56914 0.56251 0.50513 0.0
C647 C 0.54469 0.55622 0.54405 0.0
C648 C 0.55073 0.59882 0.45386 0.0
C649 C 0.52393 0.57194 0.53758 0.0
C650 C 0.53388 0.63842 0.41252 0.0
C651 C 0.56682 0.63875 0.27795 0.0
N652 N 0.52743 0.59247 0.49355 0.0
N653 N 0.56835 0.6214 0.33502 0.0
H654 H 0.84277 0.52689 0.37375 0.0
H655 H 0.9709 0.47191 0.53213 0.0
H656 H 0.85883 0.45293 0.39657 0.0
H657 H 0.94697 0.54199 0.57927 0.0
H658 H 0.93041 0.4663 0.47497 0.0
H659 H 0.87978 0.53407 0.4487 0.0
C660 C 0.85355 0.51213 0.39681 0.0
C661 C 0.8479 0.48929 0.37897 0.0
C662 C 0.93391 0.48295 0.49771 0.0
C663 C 0.8905 0.49738 0.46176 0.0
C664 C 0.95723 0.48627 0.52981 0.0
C665 C 0.9624 0.50747 0.5608 0.0
C666 C 0.91547 0.50097 0.49567 0.0
C667 C 0.94383 0.5254 0.5558 0.0
C668 C 0.87481 0.51625 0.43865 0.0
C669 C 0.86267 0.47079 0.40889 0.0
N670 N 0.92111 0.52175 0.5238 0.0
N671 N 0.88349 0.47527 0.4478 0.0
loop_
_geom_bond_atom_site_label_1
_geom_bond_atom_site_label_2
_geom_bond_distance
_geom_bond_site_symmetry_2
_ccdc_geom_bond_type
H0 C7 0.929 . S
H1 C10 0.930 . S
H2 C12 0.929 . S
H3 C4 0.969 . S
C4 H3 0.969 . S
C4 O5 1.550 . S
C4 H6 0.973 . S
O5 C4 1.550 . S
O5 C11 1.412 . S
H6 C4 0.973 . S
C7 H0 0.929 . S
C7 C8 1.400 . S
C7 C9 1.364 . S
C8 C7 1.400 . S
C8 C12 1.377 . S
C9 C7 1.364 . S
C9 C10 1.374 . S
C10 H1 0.930 . S
C10 C9 1.374 . S
C10 C11 1.383 . S
C11 O5 1.412 . S
C11 C10 1.383 . S
C11 C12 1.394 . S
C12 H2 0.929 . S
C12 C8 1.377 . S
C12 C11 1.394 . S
H13 C20 0.929 . S
H14 C23 0.930 . S
H15 C25 0.929 . S
H16 C17 0.969 . S
C17 H16 0.969 . S
C17 O18 1.550 1_556 S
C17 H19 0.973 . S
O18 C17 1.550 1_554 S
O18 C24 1.412 . S
H19 C17 0.973 . S
C20 H13 0.929 . S
C20 C21 1.400 . S
C20 C22 1.364 1_554 S
C21 C20 1.400 . S
C21 C25 1.377 . S
C22 C20 1.364 1_556 S
C22 C23 1.374 . S
C23 H14 0.930 . S
C23 C22 1.374 . S
C23 C24 1.383 1_556 S
C24 O18 1.412 . S
C24 C23 1.383 1_554 S
C24 C25 1.394 . S
C25 H15 0.929 . S
C25 C21 1.377 . S
C25 C24 1.394 . S
H26 C33 0.929 1_565 S
H27 C36 0.927 1_556 S
H28 C38 0.930 1_565 S
H29 C30 0.969 . S
C30 H29 0.969 . S
C30 O31 1.550 1_545 S
C30 H32 0.973 1_544 S
O31 C30 1.550 1_565 S
O31 C37 1.405 1_565 S
H32 C30 0.973 1_566 S
C33 H26 0.929 1_545 S
C33 C34 1.398 . S
C33 C35 1.364 . S
C34 C33 1.398 . S
C34 C38 1.377 . S
C35 C33 1.364 . S
C35 C36 1.374 1_545 S
C36 H27 0.927 1_554 S
C36 C35 1.374 1_565 S
C36 C37 1.380 1_565 S
C37 O31 1.405 1_545 S
C37 C36 1.380 1_545 S
C37 C38 1.396 . S
C38 H28 0.930 1_545 S
C38 C34 1.377 . S
C38 C37 1.396 . S
H39 C46 0.929 . S
H40 C49 0.930 1_556 S
H41 C51 0.929 . S
H42 C43 0.969 . S
C43 H42 0.969 . S
C43 O44 1.550 . S
C43 H45 0.973 1_554 S
O44 C43 1.550 . S
O44 C50 1.412 . S
H45 C43 0.973 1_556 S
C46 H39 0.929 . S
C46 C47 1.400 . S
C46 C48 1.364 . S
C47 C46 1.400 . S
C47 C51 1.377 . S
C48 C46 1.364 . S
C48 C49 1.374 . S
C49 H40 0.930 1_554 S
C49 C48 1.374 . S
C49 C50 1.383 . S
C50 O44 1.412 . S
C50 C49 1.383 . S
C50 C51 1.394 . S
C51 H41 0.929 . S
C51 C47 1.377 . S
C51 C50 1.394 . S
H52 C59 0.929 . S
H53 C62 0.930 . S
H54 C64 0.929 . S
H55 C56 0.969 . S
C56 H55 0.969 . S
C56 O57 1.550 . S
C56 H58 0.973 . S
O57 C56 1.550 . S
O57 C63 1.412 . S
H58 C56 0.973 . S
C59 H52 0.929 . S
C59 C60 1.400 . S
C59 C61 1.364 . S
C60 C59 1.400 . S
C60 C64 1.377 . S
C61 C59 1.364 . S
C61 C62 1.374 . S
C62 H53 0.930 . S
C62 C61 1.374 . S
C62 C63 1.383 . S
C63 O57 1.412 . S
C63 C62 1.383 . S
C63 C64 1.394 . S
C64 H54 0.929 . S
C64 C60 1.377 . S
C64 C63 1.394 . S
H65 C72 0.929 . S
H66 C75 0.930 . S
H67 C77 0.929 . S
H68 C69 0.969 . S
C69 H68 0.969 . S
C69 O70 1.550 . S
C69 H71 0.973 . S
O70 C69 1.550 . S
O70 C76 1.412 . S
H71 C69 0.973 . S
C72 H65 0.929 . S
C72 C73 1.400 . S
C72 C74 1.364 . S
C73 C72 1.400 . S
C73 C77 1.377 . S
C74 C72 1.364 . S
C74 C75 1.374 . S
C75 H66 0.930 . S
C75 C74 1.374 . S
C75 C76 1.383 . S
C76 O70 1.412 . S
C76 C75 1.383 . S
C76 C77 1.394 . S
C77 H67 0.929 . S
C77 C73 1.377 . S
C77 C76 1.394 . S
H78 C85 0.928 1_565 S
H79 C88 0.933 . S
H80 C90 0.927 1_565 S
H81 C82 0.969 . S
C82 H81 0.969 . S
C82 O83 1.550 1_545 S
C82 H84 0.973 1_545 S
O83 C82 1.550 1_565 S
O83 C89 1.402 1_565 S
H84 C82 0.973 1_565 S
C85 H78 0.928 1_545 S
C85 C86 1.401 . S
C85 C87 1.364 . S
C86 C85 1.401 . S
C86 C90 1.377 . S
C87 C85 1.364 . S
C87 C88 1.374 1_545 S
C88 H79 0.933 . S
C88 C87 1.374 1_565 S
C88 C89 1.384 1_565 S
C89 O83 1.402 1_545 S
C89 C88 1.384 1_545 S
C89 C90 1.392 . S
C90 H80 0.927 1_545 S
C90 C86 1.377 . S
C90 C89 1.392 . S
H91 C98 0.929 . S
H92 C101 0.930 . S
H93 C103 0.929 . S
H94 C95 0.969 . S
C95 H94 0.969 . S
C95 O96 1.550 . S
C95 H97 0.973 . S
O96 C95 1.550 . S
O96 C102 1.412 . S
H97 C95 0.973 . S
C98 H91 0.929 . S
C98 C99 1.400 . S
C98 C100 1.364 . S
C99 C98 1.400 . S
C99 C103 1.377 . S
C100 C98 1.364 . S
C100 C101 1.374 . S
C101 H92 0.930 . S
C101 C100 1.374 . S
C101 C102 1.383 . S
C102 O96 1.412 . S
C102 C101 1.383 . S
C102 C103 1.394 . S
C103 H93 0.929 . S
C103 C99 1.377 . S
C103 C102 1.394 . S
C104 O120 1.251 . S
C104 O122 1.254 . S
N105 C106 1.333 . S
N105 C110 1.307 1_455 S
N105 Zn111 2.020 . S
C106 N105 1.333 . S
C106 C107 1.379 . S
C106 H124 0.952 . S
C107 C106 1.379 . S
C107 C108 1.390 1_455 S
C107 H134 0.949 . S
C108 C107 1.390 1_655 S
C108 C109 1.357 . S
C109 C108 1.357 . S
C109 C110 1.370 . S
C109 H135 0.950 . S
C110 N105 1.307 1_655 S
C110 C109 1.370 . S
C110 H128 0.948 . S
Zn111 N105 2.020 . S
Zn111 O120 2.039 . S
Zn111 O126 2.034 . S
Zn111 O130 2.025 1_565 S
Zn111 O132 2.024 1_455 S
C112 O131 1.246 . S
C112 O132 1.249 1_545 S
N113 C114 1.307 . S
N113 C115 1.333 . S
N113 Zn119 2.020 . S
C114 N113 1.307 . S
C114 C118 1.370 1_556 S
C114 H125 0.948 . S
C115 N113 1.333 . S
C115 C116 1.379 . S
C115 H123 0.952 . S
C116 C115 1.379 . S
C116 C117 1.390 1_556 S
C116 H136 0.949 . S
C117 C116 1.390 1_554 S
C117 C118 1.357 . S
C118 C114 1.370 1_554 S
C118 C117 1.357 . S
C118 H137 0.950 . S
Zn119 N113 2.020 . S
Zn119 O122 2.025 1_545 S
Zn119 O127 2.024 . S
Zn119 O129 2.039 . S
Zn119 O131 2.034 1_455 S
O120 C104 1.251 . S
O120 Zn111 2.039 . S
C121 O126 1.246 . S
C121 O127 1.249 1_565 S
O122 C104 1.254 . S
O122 Zn119 2.025 1_565 S
H123 C115 0.952 . S
H124 C106 0.952 . S
H125 C114 0.948 . S
O126 Zn111 2.034 . S
O126 C121 1.246 . S
O127 Zn119 2.024 . S
O127 C121 1.249 1_545 S
H128 C110 0.948 . S
O129 Zn119 2.039 . S
O129 C133 1.251 . S
O130 Zn111 2.025 1_545 S
O130 C133 1.254 . S
O131 C112 1.246 . S
O131 Zn119 2.034 1_655 S
O132 Zn111 2.024 1_655 S
O132 C112 1.249 1_565 S
C133 O129 1.251 . S
C133 O130 1.254 . S
H134 C107 0.949 . S
H135 C109 0.950 . S
H136 C116 0.949 . S
H137 C118 0.950 . S
C138 O154 1.251 1_565 S
C138 O156 1.254 . S
N139 C140 1.333 . S
N139 C144 1.307 . S
N139 Zn145 2.020 . S
C140 N139 1.333 . S
C140 C141 1.379 . S
C140 H158 0.952 . S
C141 C140 1.379 . S
C141 C142 1.390 . S
C141 H168 0.949 . S
C142 C141 1.390 . S
C142 C143 1.357 . S
C143 C142 1.357 . S
C143 C144 1.370 . S
C143 H169 0.950 . S
C144 N139 1.307 . S
C144 C143 1.370 . S
C144 H162 0.948 . S
Zn145 N139 2.020 . S
Zn145 O154 2.039 . S
Zn145 O160 2.034 . S
Zn145 O164 2.025 . S
Zn145 O166 2.024 . S
C146 O165 1.246 1_545 S
C146 O166 1.249 . S
N147 C148 1.307 . S
N147 C149 1.333 . S
N147 Zn153 2.020 . S
C148 N147 1.307 . S
C148 C152 1.370 . S
C148 H159 0.948 . S
C149 N147 1.333 . S
C149 C150 1.379 . S
C149 H157 0.952 . S
C150 C149 1.379 . S
C150 C151 1.390 . S
C150 H170 0.949 . S
C151 C150 1.390 . S
C151 C152 1.357 . S
C152 C148 1.370 . S
C152 C151 1.357 . S
C152 H171 0.950 . S
Zn153 N147 2.020 . S
Zn153 O156 2.025 . S
Zn153 O161 2.024 . S
Zn153 O163 2.039 . S
Zn153 O165 2.034 . S
O154 C138 1.251 1_545 S
O154 Zn145 2.039 . S
C155 O160 1.246 1_565 S
C155 O161 1.249 . S
O156 C138 1.254 . S
O156 Zn153 2.025 . S
H157 C149 0.952 . S
H158 C140 0.952 . S
H159 C148 0.948 . S
O160 Zn145 2.034 . S
O160 C155 1.246 1_545 S
O161 Zn153 2.024 . S
O161 C155 1.249 . S
H162 C144 0.948 . S
O163 Zn153 2.039 . S
O163 C167 1.251 1_565 S
O164 Zn145 2.025 . S
O164 C167 1.254 . S
O165 C146 1.246 1_565 S
O165 Zn153 2.034 . S
O166 Zn145 2.024 . S
O166 C146 1.249 . S
C167 O163 1.251 1_545 S
C167 O164 1.254 . S
H168 C141 0.949 . S
H169 C143 0.950 . S
H170 C150 0.949 . S
H171 C152 0.950 . S
C172 O188 1.251 . S
C172 O190 1.254 . S
N173 C174 1.333 . S
N173 C178 1.307 . S
N173 Zn179 2.020 . S
C174 N173 1.333 . S
C174 C175 1.379 . S
C174 H192 0.952 . S
C175 C174 1.379 . S
C175 C176 1.390 . S
C175 H202 0.949 . S
C176 C175 1.390 . S
C176 C177 1.357 . S
C177 C176 1.357 . S
C177 C178 1.370 . S
C177 H203 0.950 . S
C178 N173 1.307 . S
C178 C177 1.370 . S
C178 H196 0.948 . S
Zn179 N173 2.020 . S
Zn179 O188 2.039 . S
Zn179 O194 2.034 . S
Zn179 O198 2.025 . S
Zn179 O200 2.024 . S
C180 O199 1.246 . S
C180 O200 1.249 . S
N181 C182 1.307 . S
N181 C183 1.333 . S
N181 Zn187 2.020 . S
C182 N181 1.307 . S
C182 C186 1.370 . S
C182 H193 0.948 . S
C183 N181 1.333 . S
C183 C184 1.379 . S
C183 H191 0.952 . S
C184 C183 1.379 . S
C184 C185 1.390 . S
C184 H204 0.949 . S
C185 C184 1.390 . S
C185 C186 1.357 . S
C186 C182 1.370 . S
C186 C185 1.357 . S
C186 H205 0.950 . S
Zn187 N181 2.020 . S
Zn187 O190 2.025 . S
Zn187 O195 2.024 . S
Zn187 O197 2.039 . S
Zn187 O199 2.034 . S
O188 C172 1.251 . S
O188 Zn179 2.039 . S
C189 O194 1.246 . S
C189 O195 1.249 . S
O190 C172 1.254 . S
O190 Zn187 2.025 . S
H191 C183 0.952 . S
H192 C174 0.952 . S
H193 C182 0.948 . S
O194 Zn179 2.034 . S
O194 C189 1.246 . S
O195 Zn187 2.024 . S
O195 C189 1.249 . S
H196 C178 0.948 . S
O197 Zn187 2.039 . S
O197 C201 1.251 . S
O198 Zn179 2.025 . S
O198 C201 1.254 . S
O199 C180 1.246 . S
O199 Zn187 2.034 . S
O200 Zn179 2.024 . S
O200 C180 1.249 . S
C201 O197 1.251 . S
C201 O198 1.254 . S
H202 C175 0.949 . S
H203 C177 0.950 . S
H204 C184 0.949 . S
H205 C186 0.950 . S
C206 O222 1.251 . S
C206 O224 1.254 . S
N207 C208 1.333 . S
N207 C212 1.307 . S
N207 Zn213 2.020 . S
C208 N207 1.333 . S
C208 C209 1.379 . S
C208 H226 0.952 . S
C209 C208 1.379 . S
C209 C210 1.390 . S
C209 H236 0.949 . S
C210 C209 1.390 . S
C210 C211 1.357 . S
C211 C210 1.357 . S
C211 C212 1.370 . S
C211 H237 0.950 . S
C212 N207 1.307 . S
C212 C211 1.370 . S
C212 H230 0.948 . S
Zn213 N207 2.020 . S
Zn213 O222 2.039 . S
Zn213 O228 2.034 1_455 S
Zn213 O232 2.025 1_455 S
Zn213 O234 2.024 . S
C214 O233 1.246 . S
C214 O234 1.249 . S
N215 C216 1.307 . S
N215 C217 1.333 1_455 S
N215 Zn221 2.020 . S
C216 N215 1.307 . S
C216 C220 1.370 . S
C216 H227 0.948 . S
C217 N215 1.333 1_655 S
C217 C218 1.379 . S
C217 H225 0.952 . S
C218 C217 1.379 . S
C218 C219 1.390 1_655 S
C218 H238 0.949 . S
C219 C218 1.390 1_455 S
C219 C220 1.357 . S
C220 C216 1.370 . S
C220 C219 1.357 . S
C220 H239 0.950 . S
Zn221 N215 2.020 . S
Zn221 O224 2.025 . S
Zn221 O229 2.024 1_455 S
Zn221 O231 2.039 1_455 S
Zn221 O233 2.034 . S
O222 C206 1.251 . S
O222 Zn213 2.039 . S
C223 O228 1.246 . S
C223 O229 1.249 . S
O224 C206 1.254 . S
O224 Zn221 2.025 . S
H225 C217 0.952 . S
H226 C208 0.952 . S
H227 C216 0.948 . S
O228 Zn213 2.034 1_655 S
O228 C223 1.246 . S
O229 Zn221 2.024 1_655 S
O229 C223 1.249 . S
H230 C212 0.948 . S
O231 Zn221 2.039 1_655 S
O231 C235 1.251 . S
O232 Zn213 2.025 1_655 S
O232 C235 1.254 . S
O233 C214 1.246 . S
O233 Zn221 2.034 . S
O234 Zn213 2.024 . S
O234 C214 1.249 . S
C235 O231 1.251 . S
C235 O232 1.254 . S
H236 C209 0.949 . S
H237 C211 0.950 . S
H238 C218 0.949 . S
H239 C220 0.950 . S
H240 C246 0.930 . S
H241 C250 0.930 . S
H242 C255 0.929 . S
H243 C253 0.929 . S
H244 C248 0.929 . S
H245 C254 0.929 . S
C246 H240 0.930 . S
C246 C247 1.388 . S
C246 C254 1.378 . S
C247 C246 1.388 . S
C247 C255 1.412 1_565 S
C248 H244 0.929 . S
C248 C250 1.378 . S
C248 C252 1.350 1_545 S
C249 C252 1.463 . S
C249 C254 1.350 . S
C249 N257 1.427 1_565 S
C250 H241 0.930 . S
C250 C248 1.378 . S
C250 C251 1.367 1_545 S
C251 C250 1.367 1_565 S
C251 C253 1.433 . S
C252 C248 1.350 1_565 S
C252 C249 1.463 . S
C252 N256 1.427 . S
C253 H243 0.929 . S
C253 C251 1.433 . S
C253 N256 1.384 . S
C254 H245 0.929 . S
C254 C246 1.378 . S
C254 C249 1.350 . S
C255 H242 0.929 . S
C255 C247 1.412 1_545 S
C255 N257 1.384 . S
N256 C252 1.427 . S
N256 C253 1.384 . S
N257 C249 1.427 1_545 S
N257 C255 1.384 . S
H258 C264 0.930 . S
H259 C268 0.930 . S
H260 C273 0.929 . S
H261 C271 0.929 . S
H262 C266 0.929 . S
H263 C272 0.929 . S
C264 H258 0.930 . S
C264 C265 1.367 . S
C264 C272 1.378 . S
C265 C264 1.367 . S
C265 C273 1.433 . S
C266 H262 0.929 . S
C266 C268 1.378 . S
C266 C270 1.350 . S
C267 C270 1.463 . S
C267 C272 1.350 . S
C267 N275 1.427 . S
C268 H259 0.930 . S
C268 C266 1.378 . S
C268 C269 1.367 . S
C269 C268 1.367 . S
C269 C271 1.433 . S
C270 C266 1.350 . S
C270 C267 1.463 . S
C270 N274 1.427 . S
C271 H261 0.929 . S
C271 C269 1.433 . S
C271 N274 1.384 . S
C272 H263 0.929 . S
C272 C264 1.378 . S
C272 C267 1.350 . S
C273 H260 0.929 . S
C273 C265 1.433 . S
C273 N275 1.384 . S
N274 C270 1.427 . S
N274 C271 1.384 . S
N275 C267 1.427 . S
N275 C273 1.384 . S
H276 C282 0.930 . S
H277 C286 0.930 . S
H278 C291 0.929 . S
H279 C289 0.929 . S
H280 C284 0.929 . S
H281 C290 0.929 . S
C282 H276 0.930 . S
C282 C283 1.367 . S
C282 C290 1.378 . S
C283 C282 1.367 . S
C283 C291 1.433 . S
C284 H280 0.929 . S
C284 C286 1.378 . S
C284 C288 1.350 . S
C285 C288 1.463 . S
C285 C290 1.350 . S
C285 N293 1.427 . S
C286 H277 0.930 . S
C286 C284 1.378 . S
C286 C287 1.367 . S
C287 C286 1.367 . S
C287 C289 1.433 . S
C288 C284 1.350 . S
C288 C285 1.463 . S
C288 N292 1.427 . S
C289 H279 0.929 . S
C289 C287 1.433 . S
C289 N292 1.384 . S
C290 H281 0.929 . S
C290 C282 1.378 . S
C290 C285 1.350 . S
C291 H278 0.929 . S
C291 C283 1.433 . S
C291 N293 1.384 . S
N292 C288 1.427 . S
N292 C289 1.384 . S
N293 C285 1.427 . S
N293 C291 1.384 . S
H294 C300 0.930 . S
H295 C304 0.930 . S
H296 C309 0.929 . S
H297 C307 0.929 . S
H298 C302 0.929 . S
H299 C308 0.929 . S
C300 H294 0.930 . S
C300 C301 1.367 . S
C300 C308 1.378 . S
C301 C300 1.367 . S
C301 C309 1.433 . S
C302 H298 0.929 . S
C302 C304 1.378 . S
C302 C306 1.350 . S
C303 C306 1.463 . S
C303 C308 1.350 . S
C303 N311 1.427 . S
C304 H295 0.930 . S
C304 C302 1.378 . S
C304 C305 1.367 . S
C305 C304 1.367 . S
C305 C307 1.433 . S
C306 C302 1.350 . S
C306 C303 1.463 . S
C306 N310 1.427 . S
C307 H297 0.929 . S
C307 C305 1.433 . S
C307 N310 1.384 . S
C308 H299 0.929 . S
C308 C300 1.378 . S
C308 C303 1.350 . S
C309 H296 0.929 . S
C309 C301 1.433 . S
C309 N311 1.384 . S
N310 C306 1.427 . S
N310 C307 1.384 . S
N311 C303 1.427 . S
N311 C309 1.384 . S
H312 C318 0.930 . S
H313 C322 0.930 . S
H314 C327 0.929 . S
H315 C325 0.929 . S
H316 C320 0.929 . S
H317 C326 0.929 . S
C318 H312 0.930 . S
C318 C319 1.362 1_565 S
C318 C326 1.378 . S
C319 C318 1.362 1_545 S
C319 C327 1.438 1_556 S
C320 H316 0.929 . S
C320 C322 1.378 . S
C320 C324 1.350 . S
C321 C324 1.463 . S
C321 C326 1.350 1_545 S
C321 N329 1.427 . S
C322 H313 0.930 . S
C322 C320 1.378 . S
C322 C323 1.367 . S
C323 C322 1.367 . S
C323 C325 1.433 1_545 S
C324 C320 1.350 . S
C324 C321 1.463 . S
C324 N328 1.427 1_545 S
C325 H315 0.929 . S
C325 C323 1.433 1_565 S
C325 N328 1.384 . S
C326 H317 0.929 . S
C326 C318 1.378 . S
C326 C321 1.350 1_565 S
C327 H314 0.929 . S
C327 C319 1.438 1_554 S
C327 N329 1.384 1_554 S
N328 C324 1.427 1_565 S
N328 C325 1.384 . S
N329 C321 1.427 . S
N329 C327 1.384 1_556 S
H330 C336 0.930 . S
H331 C340 0.930 . S
H332 C345 0.929 . S
H333 C343 0.929 . S
H334 C338 0.929 1_554 S
H335 C344 0.929 . S
C336 H330 0.930 . S
C336 C337 1.367 1_556 S
C336 C344 1.378 . S
C337 C336 1.367 1_554 S
C337 C345 1.433 . S
C338 H334 0.929 1_556 S
C338 C340 1.378 . S
C338 C342 1.350 . S
C339 C342 1.463 . S
C339 C344 1.350 . S
C339 N347 1.427 1_556 S
C340 H331 0.930 . S
C340 C338 1.378 . S
C340 C341 1.367 . S
C341 C340 1.367 . S
C341 C343 1.433 . S
C342 C338 1.350 . S
C342 C339 1.463 . S
C342 N346 1.427 . S
C343 H333 0.929 . S
C343 C341 1.433 . S
C343 N346 1.384 . S
C344 H335 0.929 . S
C344 C336 1.378 . S
C344 C339 1.350 . S
C345 H332 0.929 . S
C345 C337 1.433 . S
C345 N347 1.384 . S
N346 C342 1.427 . S
N346 C343 1.384 . S
N347 C339 1.427 1_554 S
N347 C345 1.384 . S
H348 C354 0.930 . S
H349 C358 0.930 . S
H350 C363 0.929 . S
H351 C361 0.929 . S
H352 C356 0.929 . S
H353 C362 0.929 . S
C354 H348 0.930 . S
C354 C355 1.367 . S
C354 C362 1.378 1_554 S
C355 C354 1.367 . S
C355 C363 1.433 . S
C356 H352 0.929 . S
C356 C358 1.378 . S
C356 C360 1.350 . S
C357 C360 1.463 . S
C357 C362 1.350 . S
C357 N365 1.427 1_556 S
C358 H349 0.930 . S
C358 C356 1.378 . S
C358 C359 1.367 . S
C359 C358 1.367 . S
C359 C361 1.433 . S
C360 C356 1.350 . S
C360 C357 1.463 . S
C360 N364 1.427 . S
C361 H351 0.929 . S
C361 C359 1.433 . S
C361 N364 1.384 . S
C362 H353 0.929 . S
C362 C354 1.378 1_556 S
C362 C357 1.350 . S
C363 H350 0.929 . S
C363 C355 1.433 . S
C363 N365 1.384 . S
N364 C360 1.427 . S
N364 C361 1.384 . S
N365 C357 1.427 1_554 S
N365 C363 1.384 . S
H366 C372 0.930 1_554 S
H367 C376 0.930 . S
H368 C381 0.929 1_455 S
H369 C379 0.929 . S
H370 C374 0.929 . S
H371 C380 0.929 . S
C372 H366 0.930 1_556 S
C372 C373 1.367 . S
C372 C380 1.378 . S
C373 C372 1.367 . S
C373 C381 1.433 . S
C374 H370 0.929 . S
C374 C376 1.378 . S
C374 C378 1.350 1_455 S
C375 C378 1.463 . S
C375 C380 1.350 . S
C375 N383 1.427 . S
C376 H367 0.930 . S
C376 C374 1.378 . S
C376 C377 1.367 1_455 S
C377 C376 1.367 1_655 S
C377 C379 1.433 . S
C378 C374 1.350 1_655 S
C378 C375 1.463 . S
C378 N382 1.427 . S
C379 H369 0.929 . S
C379 C377 1.433 . S
C379 N382 1.384 . S
C380 H371 0.929 . S
C380 C372 1.378 . S
C380 C375 1.350 . S
C381 H368 0.929 1_655 S
C381 C373 1.433 . S
C381 N383 1.384 . S
N382 C378 1.427 . S
N382 C379 1.384 . S
N383 C375 1.427 . S
N383 C381 1.384 . S
H384 C390 0.930 . S
H385 C394 0.930 1_655 S
H386 C399 0.929 . S
H387 C397 0.929 . S
H388 C392 0.929 . S
H389 C398 0.929 . S
C390 H384 0.930 . S
C390 C391 1.367 . S
C390 C398 1.378 . S
C391 C390 1.367 . S
C391 C399 1.433 . S
C392 H388 0.929 . S
C392 C394 1.378 . S
C392 C396 1.350 . S
C393 C396 1.463 . S
C393 C398 1.350 . S
C393 N401 1.427 . S
C394 H385 0.930 1_455 S
C394 C392 1.378 . S
C394 C395 1.367 . S
C395 C394 1.367 . S
C395 C397 1.433 . S
C396 C392 1.350 . S
C396 C393 1.463 . S
C396 N400 1.427 . S
C397 H387 0.929 . S
C397 C395 1.433 . S
C397 N400 1.384 . S
C398 H389 0.929 . S
C398 C390 1.378 . S
C398 C393 1.350 . S
C399 H386 0.929 . S
C399 C391 1.433 . S
C399 N401 1.384 . S
N400 C396 1.427 . S
N400 C397 1.384 . S
N401 C393 1.427 . S
N401 C399 1.384 . S
H402 C408 0.930 . S
H403 C412 0.930 . S
H404 C417 0.929 . S
H405 C415 0.929 . S
H406 C410 0.929 . S
H407 C416 0.929 . S
C408 H402 0.930 . S
C408 C409 1.380 . S
C408 C416 1.378 . S
C409 C408 1.380 . S
C409 C417 1.421 1_565 S
C410 H406 0.929 . S
C410 C412 1.378 . S
C410 C414 1.350 1_545 S
C411 C414 1.463 . S
C411 C416 1.350 . S
C411 N419 1.427 1_565 S
C412 H403 0.930 . S
C412 C410 1.378 . S
C412 C413 1.367 1_545 S
C413 C412 1.367 1_565 S
C413 C415 1.433 . S
C414 C410 1.350 1_565 S
C414 C411 1.463 . S
C414 N418 1.427 . S
C415 H405 0.929 . S
C415 C413 1.433 . S
C415 N418 1.384 . S
C416 H407 0.929 . S
C416 C408 1.378 . S
C416 C411 1.350 . S
C417 H404 0.929 . S
C417 C409 1.421 1_545 S
C417 N419 1.384 . S
N418 C414 1.427 . S
N418 C415 1.384 . S
N419 C411 1.427 1_545 S
N419 C417 1.384 . S
H420 C426 0.930 . S
H421 C430 0.930 . S
H422 C435 0.929 . S
H423 C433 0.929 . S
H424 C428 0.929 . S
H425 C434 0.929 . S
C426 H420 0.930 . S
C426 C427 1.367 . S
C426 C434 1.378 . S
C427 C426 1.367 . S
C427 C435 1.433 . S
C428 H424 0.929 . S
C428 C430 1.378 . S
C428 C432 1.350 . S
C429 C432 1.463 . S
C429 C434 1.350 . S
C429 N437 1.427 . S
C430 H421 0.930 . S
C430 C428 1.378 . S
C430 C431 1.367 . S
C431 C430 1.367 . S
C431 C433 1.433 . S
C432 C428 1.350 . S
C432 C429 1.463 . S
C432 N436 1.427 . S
C433 H423 0.929 . S
C433 C431 1.433 . S
C433 N436 1.384 . S
C434 H425 0.929 . S
C434 C426 1.378 . S
C434 C429 1.350 . S
C435 H422 0.929 . S
C435 C427 1.433 . S
C435 N437 1.384 . S
N436 C432 1.427 . S
N436 C433 1.384 . S
N437 C429 1.427 . S
N437 C435 1.384 . S
H438 C444 0.930 . S
H439 C448 0.930 . S
H440 C453 0.929 . S
H441 C451 0.929 . S
H442 C446 0.929 . S
H443 C452 0.929 . S
C444 H438 0.930 . S
C444 C445 1.367 . S
C444 C452 1.378 . S
C445 C444 1.367 . S
C445 C453 1.433 . S
C446 H442 0.929 . S
C446 C448 1.378 . S
C446 C450 1.350 . S
C447 C450 1.463 . S
C447 C452 1.350 . S
C447 N455 1.427 . S
C448 H439 0.930 . S
C448 C446 1.378 . S
C448 C449 1.367 . S
C449 C448 1.367 . S
C449 C451 1.433 . S
C450 C446 1.350 . S
C450 C447 1.463 . S
C450 N454 1.427 . S
C451 H441 0.929 . S
C451 C449 1.433 . S
C451 N454 1.384 . S
C452 H443 0.929 . S
C452 C444 1.378 . S
C452 C447 1.350 . S
C453 H440 0.929 . S
C453 C445 1.433 . S
C453 N455 1.384 . S
N454 C450 1.427 . S
N454 C451 1.384 . S
N455 C447 1.427 . S
N455 C453 1.384 . S
H456 C462 0.930 . S
H457 C466 0.930 . S
H458 C471 0.929 1_554 S
H459 C469 0.929 . S
H460 C464 0.929 . S
H461 C470 0.929 . S
C462 H456 0.930 . S
C462 C463 1.367 . S
C462 C470 1.378 . S
C463 C462 1.367 . S
C463 C471 1.433 . S
C464 H460 0.929 . S
C464 C466 1.378 . S
C464 C468 1.350 1_455 S
C465 C468 1.463 . S
C465 C470 1.350 . S
C465 N473 1.427 . S
C466 H457 0.930 . S
C466 C464 1.378 . S
C466 C467 1.367 . S
C467 C466 1.367 . S
C467 C469 1.433 . S
C468 C464 1.350 1_655 S
C468 C465 1.463 . S
C468 N472 1.427 . S
C469 H459 0.929 . S
C469 C467 1.433 . S
C469 N472 1.384 1_455 S
C470 H461 0.929 . S
C470 C462 1.378 . S
C470 C465 1.350 . S
C471 H458 0.929 1_556 S
C471 C463 1.433 . S
C471 N473 1.384 . S
N472 C468 1.427 . S
N472 C469 1.384 1_655 S
N473 C465 1.427 . S
N473 C471 1.384 . S
H474 C480 0.926 1_554 S
H475 C484 0.930 . S
H476 C489 0.929 . S
H477 C487 0.929 . S
H478 C482 0.929 . S
H479 C488 0.929 . S
C480 H474 0.926 1_556 S
C480 C481 1.398 1_556 S
C480 C488 1.382 . S
C481 C480 1.398 1_554 S
C481 C489 1.402 1_544 S
C482 H478 0.929 . S
C482 C484 1.378 . S
C482 C486 1.350 1_565 S
C483 C486 1.463 . S
C483 C488 1.350 . S
C483 N491 1.427 1_545 S
C484 H475 0.930 . S
C484 C482 1.378 . S
C484 C485 1.367 1_565 S
C485 C484 1.367 1_545 S
C485 C487 1.433 . S
C486 C482 1.350 1_545 S
C486 C483 1.463 . S
C486 N490 1.427 . S
C487 H477 0.929 . S
C487 C485 1.433 . S
C487 N490 1.384 . S
C488 H479 0.929 . S
C488 C480 1.382 . S
C488 C483 1.350 . S
C489 H476 0.929 . S
C489 C481 1.402 1_566 S
C489 N491 1.384 . S
N490 C486 1.427 . S
N490 C487 1.384 . S
N491 C483 1.427 1_565 S
N491 C489 1.384 . S
H492 C498 0.930 . S
H493 C502 0.930 . S
H494 C507 0.929 . S
H495 C505 0.929 . S
H496 C500 0.929 . S
H497 C506 0.929 . S
C498 H492 0.930 . S
C498 C499 1.367 . S
C498 C506 1.378 . S
C499 C498 1.367 . S
C499 C507 1.433 1_554 S
C500 H496 0.929 . S
C500 C502 1.378 . S
C500 C504 1.350 . S
C501 C504 1.463 . S
C501 C506 1.350 1_556 S
C501 N509 1.427 . S
C502 H493 0.930 . S
C502 C500 1.378 . S
C502 C503 1.367 . S
C503 C502 1.367 . S
C503 C505 1.433 . S
C504 C500 1.350 . S
C504 C501 1.463 . S
C504 N508 1.427 . S
C505 H495 0.929 . S
C505 C503 1.433 . S
C505 N508 1.384 . S
C506 H497 0.929 . S
C506 C498 1.378 . S
C506 C501 1.350 1_554 S
C507 H494 0.929 . S
C507 C499 1.433 1_556 S
C507 N509 1.384 . S
N508 C504 1.427 . S
N508 C505 1.384 . S
N509 C501 1.427 . S
N509 C507 1.384 . S
H510 C516 0.930 . S
H511 C520 0.930 . S
H512 C525 0.929 . S
H513 C523 0.929 . S
H514 C518 0.929 . S
H515 C524 0.929 . S
C516 H510 0.930 . S
C516 C517 1.367 . S
C516 C524 1.378 1_554 S
C517 C516 1.367 . S
C517 C525 1.433 . S
C518 H514 0.929 . S
C518 C520 1.378 . S
C518 C522 1.350 . S
C519 C522 1.463 . S
C519 C524 1.350 . S
C519 N527 1.427 1_556 S
C520 H511 0.930 . S
C520 C518 1.378 . S
C520 C521 1.367 . S
C521 C520 1.367 . S
C521 C523 1.433 . S
C522 C518 1.350 . S
C522 C519 1.463 . S
C522 N526 1.427 . S
C523 H513 0.929 . S
C523 C521 1.433 . S
C523 N526 1.384 . S
C524 H515 0.929 . S
C524 C516 1.378 1_556 S
C524 C519 1.350 . S
C525 H512 0.929 . S
C525 C517 1.433 . S
C525 N527 1.384 . S
N526 C522 1.427 . S
N526 C523 1.384 . S
N527 C519 1.427 1_554 S
N527 C525 1.384 . S
H528 C534 0.930 . S
H529 C538 0.930 . S
H530 C543 0.929 . S
H531 C541 0.929 . S
H532 C536 0.929 . S
H533 C542 0.929 . S
C534 H528 0.930 . S
C534 C535 1.367 . S
C534 C542 1.378 . S
C535 C534 1.367 . S
C535 C543 1.433 . S
C536 H532 0.929 . S
C536 C538 1.378 . S
C536 C540 1.350 . S
C537 C540 1.463 . S
C537 C542 1.350 . S
C537 N545 1.427 . S
C538 H529 0.930 . S
C538 C536 1.378 . S
C538 C539 1.367 . S
C539 C538 1.367 . S
C539 C541 1.433 . S
C540 C536 1.350 . S
C540 C537 1.463 . S
C540 N544 1.427 . S
C541 H531 0.929 . S
C541 C539 1.433 . S
C541 N544 1.384 . S
C542 H533 0.929 . S
C542 C534 1.378 . S
C542 C537 1.350 . S
C543 H530 0.929 . S
C543 C535 1.433 . S
C543 N545 1.384 . S
N544 C540 1.427 . S
N544 C541 1.384 . S
N545 C537 1.427 . S
N545 C543 1.384 . S
H546 C552 0.930 . S
H547 C556 0.930 . S
H548 C561 0.929 . S
H549 C559 0.929 . S
H550 C554 0.929 . S
H551 C560 0.929 . S
C552 H546 0.930 . S
C552 C553 1.396 . S
C552 C560 1.378 . S
C553 C552 1.396 . S
C553 C561 1.403 1_545 S
C554 H550 0.929 . S
C554 C556 1.378 . S
C554 C558 1.350 1_566 S
C555 C558 1.463 . S
C555 C560 1.350 . S
C555 N563 1.427 1_545 S
C556 H547 0.930 . S
C556 C554 1.378 . S
C556 C557 1.367 1_565 S
C557 C556 1.367 1_545 S
C557 C559 1.433 . S
C558 C554 1.350 1_544 S
C558 C555 1.463 . S
C558 N562 1.427 . S
C559 H549 0.929 . S
C559 C557 1.433 . S
C559 N562 1.384 1_556 S
C560 H551 0.929 . S
C560 C552 1.378 . S
C560 C555 1.350 . S
C561 H548 0.929 . S
C561 C553 1.403 1_565 S
C561 N563 1.384 . S
N562 C558 1.427 . S
N562 C559 1.384 1_554 S
N563 C555 1.427 1_565 S
N563 C561 1.384 . S
H564 C570 0.930 . S
H565 C574 0.930 . S
H566 C579 0.929 . S
H567 C577 0.929 . S
H568 C572 0.929 . S
H569 C578 0.929 . S
C570 H564 0.930 . S
C570 C571 1.367 . S
C570 C578 1.378 . S
C571 C570 1.367 . S
C571 C579 1.433 . S
C572 H568 0.929 . S
C572 C574 1.378 . S
C572 C576 1.350 1_556 S
C573 C576 1.463 . S
C573 C578 1.350 . S
C573 N581 1.427 . S
C574 H565 0.930 . S
C574 C572 1.378 . S
C574 C575 1.367 . S
C575 C574 1.367 . S
C575 C577 1.433 . S
C576 C572 1.350 1_554 S
C576 C573 1.463 . S
C576 N580 1.427 . S
C577 H567 0.929 . S
C577 C575 1.433 . S
C577 N580 1.384 1_556 S
C578 H569 0.929 . S
C578 C570 1.378 . S
C578 C573 1.350 . S
C579 H566 0.929 . S
C579 C571 1.433 . S
C579 N581 1.384 . S
N580 C576 1.427 . S
N580 C577 1.384 1_554 S
N581 C573 1.427 . S
N581 C579 1.384 . S
H582 C588 0.930 . S
H583 C592 0.930 . S
H584 C597 0.929 . S
H585 C595 0.929 . S
H586 C590 0.929 . S
H587 C596 0.929 . S
C588 H582 0.930 . S
C588 C589 1.367 . S
C588 C596 1.378 . S
C589 C588 1.367 . S
C589 C597 1.433 . S
C590 H586 0.929 . S
C590 C592 1.378 . S
C590 C594 1.350 . S
C591 C594 1.463 1_554 S
C591 C596 1.350 . S
C591 N599 1.427 . S
C592 H583 0.930 . S
C592 C590 1.378 . S
C592 C593 1.367 . S
C593 C592 1.367 . S
C593 C595 1.433 . S
C594 C590 1.350 . S
C594 C591 1.463 1_556 S
C594 N598 1.427 . S
C595 H585 0.929 . S
C595 C593 1.433 . S
C595 N598 1.384 . S
C596 H587 0.929 . S
C596 C588 1.378 . S
C596 C591 1.350 . S
C597 H584 0.929 . S
C597 C589 1.433 . S
C597 N599 1.384 . S
N598 C594 1.427 . S
N598 C595 1.384 . S
N599 C591 1.427 . S
N599 C597 1.384 . S
H600 C606 0.930 1_455 S
H601 C610 0.930 . S
H602 C615 0.929 . S
H603 C613 0.929 . S
H604 C608 0.929 . S
H605 C614 0.929 1_455 S
C606 H600 0.930 1_655 S
C606 C607 1.367 . S
C606 C614 1.378 . S
C607 C606 1.367 . S
C607 C615 1.433 . S
C608 H604 0.929 . S
C608 C610 1.378 . S
C608 C612 1.350 . S
C609 C612 1.463 . S
C609 C614 1.350 . S
C609 N617 1.427 . S
C610 H601 0.930 . S
C610 C608 1.378 . S
C610 C611 1.367 . S
C611 C610 1.367 . S
C611 C613 1.433 1_655 S
C612 C608 1.350 . S
C612 C609 1.463 . S
C612 N616 1.427 1_655 S
C613 H603 0.929 . S
C613 C611 1.433 1_455 S
C613 N616 1.384 . S
C614 H605 0.929 1_655 S
C614 C606 1.378 . S
C614 C609 1.350 . S
C615 H602 0.929 . S
C615 C607 1.433 . S
C615 N617 1.384 . S
N616 C612 1.427 1_455 S
N616 C613 1.384 . S
N617 C609 1.427 . S
N617 C615 1.384 . S
H618 C624 0.930 . S
H619 C628 0.930 . S
H620 C633 0.929 . S
H621 C631 0.929 . S
H622 C626 0.929 . S
H623 C632 0.929 . S
C624 H618 0.930 . S
C624 C625 1.403 . S
C624 C632 1.378 . S
C625 C624 1.403 . S
C625 C633 1.396 1_565 S
C626 H622 0.929 . S
C626 C628 1.378 . S
C626 C630 1.350 1_545 S
C627 C630 1.463 . S
C627 C632 1.350 . S
C627 N635 1.427 1_565 S
C628 H619 0.930 . S
C628 C626 1.378 . S
C628 C629 1.367 1_545 S
C629 C628 1.367 1_565 S
C629 C631 1.433 . S
C630 C626 1.350 1_565 S
C630 C627 1.463 . S
C630 N634 1.427 . S
C631 H621 0.929 . S
C631 C629 1.433 . S
C631 N634 1.384 . S
C632 H623 0.929 . S
C632 C624 1.378 . S
C632 C627 1.350 . S
C633 H620 0.929 . S
C633 C625 1.396 1_545 S
C633 N635 1.384 . S
N634 C630 1.427 . S
N634 C631 1.384 . S
N635 C627 1.427 1_545 S
N635 C633 1.384 . S
H636 C642 0.930 . S
H637 C646 0.930 . S
H638 C651 0.929 . S
H639 C649 0.929 . S
H640 C644 0.929 . S
H641 C650 0.929 . S
C642 H636 0.930 . S
C642 C643 1.367 . S
C642 C650 1.378 . S
C643 C642 1.367 . S
C643 C651 1.433 . S
C644 H640 0.929 . S
C644 C646 1.378 . S
C644 C648 1.350 . S
C645 C648 1.463 . S
C645 C650 1.350 . S
C645 N653 1.427 . S
C646 H637 0.930 . S
C646 C644 1.378 . S
C646 C647 1.367 . S
C647 C646 1.367 . S
C647 C649 1.433 . S
C648 C644 1.350 . S
C648 C645 1.463 . S
C648 N652 1.427 . S
C649 H639 0.929 . S
C649 C647 1.433 . S
C649 N652 1.384 . S
C650 H641 0.929 . S
C650 C642 1.378 . S
C650 C645 1.350 . S
C651 H638 0.929 . S
C651 C643 1.433 . S
C651 N653 1.384 . S
N652 C648 1.427 . S
N652 C649 1.384 . S
N653 C645 1.427 . S
N653 C651 1.384 . S
H654 C660 0.930 . S
H655 C664 0.930 . S
H656 C669 0.929 . S
H657 C667 0.929 . S
H658 C662 0.929 . S
H659 C668 0.929 . S
C660 H654 0.930 . S
C660 C661 1.367 . S
C660 C668 1.378 . S
C661 C660 1.367 . S
C661 C669 1.433 . S
C662 H658 0.929 . S
C662 C664 1.378 . S
C662 C666 1.350 . S
C663 C666 1.463 . S
C663 C668 1.350 . S
C663 N671 1.427 . S
C664 H655 0.930 . S
C664 C662 1.378 . S
C664 C665 1.367 . S
C665 C664 1.367 . S
C665 C667 1.433 . S
C666 C662 1.350 . S
C666 C663 1.463 . S
C666 N670 1.427 . S
C667 H657 0.929 . S
C667 C665 1.433 . S
C667 N670 1.384 . S
C668 H659 0.929 . S
C668 C660 1.378 . S
C668 C663 1.350 . S
C669 H656 0.929 . S
C669 C661 1.433 . S
C669 N671 1.384 . S
N670 C666 1.427 . S
N670 C667 1.384 . S
N671 C663 1.427 . S
N671 C669 1.384 . S
C247 C82 1.759 1_565 S
C251 C121 1.873 . S
C269 C142 1.544 . S
C265 C95 1.466 . S
C287 C176 1.379 . S
C283 C56 1.260 . S
C305 C210 1.545 . S
C301 C69 1.489 . S
C323 C112 1.874 . S
C319 C30 1.757 1_556 S
C337 C43 1.428 . S
C341 C151 1.545 . S
C355 C4 1.253 . S
C359 C185 1.372 . S
C373 C17 1.448 . S
C377 C219 1.546 1_655 S
C395 C133 0.516 . S
C391 C74 0.576 . S
C413 C138 0.996 . S
C409 C87 0.987 1_565 S
C431 C172 0.914 . S
C427 C100 0.910 . S
C445 C61 0.418 . S
C449 C206 0.396 . S
C463 C22 0.619 . S
C467 C104 0.538 . S
C485 C167 0.994 . S
C481 C35 0.977 . S
C503 C201 0.916 . S
C499 C48 0.899 . S
C517 C9 0.430 . S
C521 C235 0.397 . S
C535 C73 1.287 . S
C539 C117 1.320 . S
C553 C86 1.712 . S
C557 C146 1.758 . S
C575 C180 1.550 . S
C571 C99 1.514 . S
C593 C214 1.613 . S
C589 C60 1.565 . S
C607 C21 1.287 . S
C611 C108 1.329 . S
C629 C155 1.758 . S
C625 C34 1.719 1_565 S
C647 C189 1.551 . S
C643 C47 1.520 . S
C661 C8 1.566 . S
C665 C223 1.612 . S
