# Generated by pormake.
# Topology ssa, (4,4)-cn, num edge types: 1
# Building blocks:
#     Node 0, Type 0, BuildingBlock: KOZSID_clean_sbu_0, # of connection points: 4
#     Node 1, Type 0, BuildingBlock: KOZSID_clean_sbu_0, # of connection points: 4
#     Node 2, Type 0, BuildingBlock: KOZSID_clean_sbu_0, # of connection points: 4
#     Node 3, Type 0, BuildingBlock: KOZSID_clean_sbu_0, # of connection points: 4
#     Node 4, Type 0, BuildingBlock: KOZSID_clean_sbu_0, # of connection points: 4
#     Node 5, Type 0, BuildingBlock: KOZSID_clean_sbu_0, # of connection points: 4
#     Node 6, Type 1, BuildingBlock: NAWXER_clean_linker_0, # of connection points: 4
#     Node 7, Type 1, BuildingBlock: NAWXER_clean_linker_0, # of connection points: 4
#     Node 8, Type 1, BuildingBlock: NAWXER_clean_linker_0, # of connection points: 4
#     Node 9, Type 1, BuildingBlock: NAWXER_clean_linker_0, # of connection points: 4
#     Node 10, Type 1, BuildingBlock: NAWXER_clean_linker_0, # of connection points: 4
#     Node 11, Type 1, BuildingBlock: NAWXER_clean_linker_0, # of connection points: 4
#     Edge 12, Type (0, 1), BuildingBlock: MIFKUJ_clean_linker_0, # of connection points: 2
#     Edge 13, Type (0, 1), BuildingBlock: MIFKUJ_clean_linker_0, # of connection points: 2
#     Edge 14, Type (0, 1), BuildingBlock: MIFKUJ_clean_linker_0, # of connection points: 2
#     Edge 15, Type (0, 1), BuildingBlock: MIFKUJ_clean_linker_0, # of connection points: 2
#     Edge 16, Type (0, 1), BuildingBlock: MIFKUJ_clean_linker_0, # of connection points: 2
#     Edge 17, Type (0, 1), BuildingBlock: MIFKUJ_clean_linker_0, # of connection points: 2
#     Edge 18, Type (0, 1), BuildingBlock: MIFKUJ_clean_linker_0, # of connection points: 2
#     Edge 19, Type (0, 1), BuildingBlock: MIFKUJ_clean_linker_0, # of connection points: 2
#     Edge 20, Type (0, 1), BuildingBlock: MIFKUJ_clean_linker_0, # of connection points: 2
#     Edge 21, Type (0, 1), BuildingBlock: MIFKUJ_clean_linker_0, # of connection points: 2
#     Edge 22, Type (0, 1), BuildingBlock: MIFKUJ_clean_linker_0, # of connection points: 2
#     Edge 23, Type (0, 1), BuildingBlock: MIFKUJ_clean_linker_0, # of connection points: 2
#     Edge 24, Type (0, 1), BuildingBlock: MIFKUJ_clean_linker_0, # of connection points: 2
#     Edge 25, Type (0, 1), BuildingBlock: MIFKUJ_clean_linker_0, # of connection points: 2
#     Edge 26, Type (0, 1), BuildingBlock: MIFKUJ_clean_linker_0, # of connection points: 2
#     Edge 27, Type (0, 1), BuildingBlock: MIFKUJ_clean_linker_0, # of connection points: 2
#     Edge 28, Type (0, 1), BuildingBlock: MIFKUJ_clean_linker_0, # of connection points: 2
#     Edge 29, Type (0, 1), BuildingBlock: MIFKUJ_clean_linker_0, # of connection points: 2
#     Edge 30, Type (0, 1), BuildingBlock: MIFKUJ_clean_linker_0, # of connection points: 2
#     Edge 31, Type (0, 1), BuildingBlock: MIFKUJ_clean_linker_0, # of connection points: 2
#     Edge 32, Type (0, 1), BuildingBlock: MIFKUJ_clean_linker_0, # of connection points: 2
#     Edge 33, Type (0, 1), BuildingBlock: MIFKUJ_clean_linker_0, # of connection points: 2
#     Edge 34, Type (0, 1), BuildingBlock: MIFKUJ_clean_linker_0, # of connection points: 2
#     Edge 35, Type (0, 1), BuildingBlock: MIFKUJ_clean_linker_0, # of connection points: 2
# Relax obj value: 0.005
# Max RMSD: 0.020
# Mean RMSD: 0.013
data_MOF--net-ssa--node1-KOZSID_clean_sbu_0--node2-NAWXER_clean_linker_0--edge1-MIFKUJ_clean_linker_0
_symmetry_space_group_name_H-M    P1
_symmetry_Int_Tables_number       1
_symmetry_cell_setting            triclinic
loop_
_symmetry_equiv_pos_as_xyz
'x, y, z'
_cell_length_a     77.357327
_cell_length_b     78.740107
_cell_length_c     55.164458
_cell_angle_alpha  88.058058
_cell_angle_beta   90.031185
_cell_angle_gamma 121.77955
loop_
_atom_site_label
_atom_site_type_symbol
_atom_site_fract_x
_atom_site_fract_y
_atom_site_fract_z
_atom_type_partial_charge
C0 C 0.96745 0.51143 0.99416 0.0
C1 C 0.94907 0.50687 0.00462 0.0
C2 C 0.94598 0.49511 0.02484 0.0
C3 C 0.96248 0.49305 0.02555 0.0
N4 N 0.97607 0.50293 0.00709 0.0
Co5 Co 0.00179 0.50321 0.00065 0.0
N6 N 0.99636 0.48465 0.02939 0.0
C7 C 0.97984 0.47602 0.04443 0.0
C8 C 0.98026 0.4638 0.06239 0.0
C9 C 0.99826 0.46488 0.05884 0.0
C10 C 0.00787 0.47788 0.03895 0.0
N11 N 0.02768 0.50373 0.99444 0.0
C12 C 0.03657 0.49571 0.00782 0.0
C13 C 0.05533 0.50092 0.99791 0.0
C14 C 0.05836 0.51252 0.97755 0.0
C15 C 0.04148 0.51392 0.97626 0.0
N16 N 0.00709 0.52157 0.97171 0.0
C17 C 0.02325 0.52964 0.95616 0.0
C18 C 0.02255 0.54142 0.9378 0.0
C19 C 0.00472 0.54062 0.94161 0.0
C20 C 0.9955 0.52825 0.9621 0.0
N21 N 0.0169 0.52651 0.02159 0.0
C22 C 0.03964 0.55841 0.05248 0.0
C23 C 0.04702 0.55851 0.02937 0.0
C24 C 0.03542 0.54265 0.01428 0.0
C25 C 0.02046 0.54235 0.05968 0.0
C26 C 0.00948 0.52662 0.04412 0.0
N27 N 0.98672 0.47987 0.97972 0.0
C28 C 0.98455 0.46289 0.94302 0.0
C29 C 0.96491 0.44717 0.9494 0.0
C30 C 0.95648 0.4481 0.97135 0.0
C31 C 0.96757 0.46434 0.98613 0.0
C32 C 0.99502 0.47897 0.95822 0.0
H33 H 0.96022 0.46403 0.00256 0.0
H34 H 0.00979 0.4905 0.95211 0.0
H35 H 0.04189 0.54371 0.99688 0.0
H36 H 0.99517 0.51459 0.05086 0.0
C37 C 0.96478 0.48062 0.04212 0.0
C38 C 0.9755 0.52293 0.97127 0.0
C39 C 0.02828 0.48394 0.03052 0.0
C40 C 0.03869 0.52562 0.95902 0.0
H41 H 0.93863 0.51109 0.99803 0.0
H42 H 0.93291 0.48829 0.03709 0.0
H43 H 0.96905 0.45549 0.0767 0.0
H44 H 0.00386 0.45726 0.06995 0.0
H45 H 0.06606 0.49721 0.00489 0.0
H46 H 0.07158 0.51961 0.96553 0.0
H47 H 0.03357 0.54943 0.92322 0.0
H48 H 0.99903 0.5481 0.9304 0.0
H49 H 0.06168 0.57084 0.02289 0.0
H50 H 0.01418 0.54163 0.0775 0.0
H51 H 0.99197 0.46282 0.92642 0.0
H52 H 0.9412 0.43653 0.97705 0.0
C53 C 0.53104 0.01031 0.54243 0.0
C54 C 0.53232 0.00168 0.5642 0.0
C55 C 0.51433 0.9839 0.56744 0.0
C56 C 0.50313 0.98269 0.54759 0.0
N57 N 0.51294 0.99854 0.5317 0.0
Co58 Co 0.50207 0.00319 0.50077 0.0
N59 N 0.47494 0.97792 0.50672 0.0
C60 C 0.46912 0.96506 0.52622 0.0
C61 C 0.44959 0.94901 0.52516 0.0
C62 C 0.44254 0.95162 0.50356 0.0
C63 C 0.4583 0.96916 0.49263 0.0
N64 N 0.4913 0.00768 0.46964 0.0
C65 C 0.47321 0.99588 0.45889 0.0
C66 C 0.47228 0.0041 0.43661 0.0
C67 C 0.49043 0.02167 0.43311 0.0
C68 C 0.50141 0.02314 0.45327 0.0
N69 N 0.52909 0.02864 0.49504 0.0
C70 C 0.53477 0.04177 0.47584 0.0
C71 C 0.55402 0.0582 0.47737 0.0
C72 C 0.56099 0.05561 0.49903 0.0
C73 C 0.54549 0.03767 0.50949 0.0
N74 N 0.51171 0.98806 0.48298 0.0
C75 C 0.523 0.96541 0.45607 0.0
C76 C 0.5285 0.98469 0.44813 0.0
C77 C 0.52275 0.99564 0.46172 0.0
C78 C 0.5122 0.95789 0.47807 0.0
C79 C 0.50686 0.96939 0.49115 0.0
N80 N 0.4924 0.01828 0.51851 0.0
C81 C 0.48927 0.04714 0.52152 0.0
C82 C 0.48015 0.04056 0.54455 0.0
C83 C 0.47699 0.02246 0.55414 0.0
C84 C 0.48315 0.01167 0.54093 0.0
C85 C 0.4952 0.03587 0.50893 0.0
H86 H 0.48038 0.99808 0.54934 0.0
H87 H 0.50223 0.04182 0.49159 0.0
H88 H 0.52727 0.01011 0.45449 0.0
H89 H 0.49853 0.9627 0.50764 0.0
C90 C 0.4828 0.96777 0.54443 0.0
C91 C 0.54688 0.03018 0.53345 0.0
C92 C 0.45692 0.97644 0.4685 0.0
C93 C 0.52143 0.03852 0.45699 0.0
H94 H 0.54474 0.00783 0.57678 0.0
H95 H 0.5097 0.97343 0.58284 0.0
H96 H 0.44161 0.93662 0.53823 0.0
H97 H 0.42762 0.94158 0.49644 0.0
H98 H 0.45994 0.99788 0.42393 0.0
H99 H 0.49522 0.03194 0.41748 0.0
H100 H 0.5619 0.07075 0.46448 0.0
H101 H 0.57571 0.06588 0.50649 0.0
H102 H 0.53725 0.9914 0.43146 0.0
H103 H 0.50741 0.94298 0.48497 0.0
H104 H 0.49226 0.06117 0.51337 0.0
H105 H 0.46968 0.01654 0.57175 0.0
C106 C 0.53352 0.52694 0.96039 0.0
C107 C 0.53624 0.53802 0.93904 0.0
C108 C 0.5188 0.53806 0.93576 0.0
C109 C 0.50641 0.52695 0.95508 0.0
N110 N 0.51494 0.51997 0.97073 0.0
Co111 Co 0.50173 0.50202 0.00034 0.0
N112 N 0.4756 0.50103 0.99451 0.0
C113 C 0.47157 0.51009 0.97601 0.0
C114 C 0.4524 0.50696 0.9771 0.0
C115 C 0.44372 0.49543 0.99773 0.0
C116 C 0.45821 0.49226 0.00808 0.0
N117 N 0.48847 0.48392 0.02981 0.0
C118 C 0.46979 0.47673 0.03995 0.0
C119 C 0.4668 0.46512 0.06089 0.0
C120 C 0.48423 0.46503 0.06415 0.0
C121 C 0.49684 0.47659 0.04518 0.0
N122 N 0.52792 0.50317 0.0063 0.0
C123 C 0.53206 0.49443 0.02508 0.0
C124 C 0.55142 0.49804 0.02437 0.0
C125 C 0.56012 0.50956 0.00374 0.0
C126 C 0.54543 0.51218 0.99293 0.0
N127 N 0.51107 0.5257 0.02044 0.0
C128 C 0.52247 0.55839 0.04993 0.0
C129 C 0.52536 0.54299 0.05751 0.0
C130 C 0.51951 0.52687 0.04266 0.0
C131 C 0.51415 0.55737 0.02718 0.0
C132 C 0.50874 0.54111 0.01278 0.0
N133 N 0.49237 0.47832 0.98026 0.0
C134 C 0.48981 0.44694 0.97306 0.0
C135 C 0.48014 0.44521 0.95105 0.0
C136 C 0.47653 0.46029 0.94409 0.0
C137 C 0.48278 0.47657 0.95876 0.0
C138 C 0.49563 0.46339 0.98729 0.0
H139 H 0.47975 0.48758 0.95221 0.0
H140 H 0.50293 0.46378 0.00379 0.0
H141 H 0.52172 0.51545 0.04973 0.0
H142 H 0.50255 0.54127 0.99562 0.0
C143 C 0.48633 0.52194 0.95828 0.0
C144 C 0.54858 0.52261 0.96946 0.0
C145 C 0.45493 0.48142 0.03122 0.0
C146 C 0.5171 0.48206 0.04237 0.0
H147 H 0.54925 0.54498 0.92673 0.0
H148 H 0.51534 0.54489 0.9207 0.0
H149 H 0.44568 0.51266 0.96462 0.0
H150 H 0.42855 0.49019 0.0046 0.0
H151 H 0.4536 0.45787 0.07292 0.0
H152 H 0.48755 0.45794 0.07902 0.0
H153 H 0.55824 0.49257 0.03706 0.0
H154 H 0.57544 0.51508 0.99714 0.0
H155 H 0.53163 0.54309 0.07511 0.0
H156 H 0.5119 0.56914 0.02042 0.0
H157 H 0.49325 0.43585 0.97919 0.0
H158 H 0.46879 0.45954 0.92743 0.0
C159 C 0.96341 0.45637 0.50729 0.0
C160 C 0.94569 0.44221 0.49628 0.0
C161 C 0.9438 0.45135 0.47588 0.0
C162 C 0.96049 0.47042 0.47551 0.0
N163 N 0.97301 0.47398 0.49434 0.0
Co164 Co 0.99933 0.49942 0.50036 0.0
N165 N 0.99527 0.51359 0.47206 0.0
C166 C 0.97887 0.5061 0.45766 0.0
C167 C 0.9804 0.5193 0.4397 0.0
C168 C 0.99892 0.53622 0.4427 0.0
C169 C 0.00765 0.53235 0.46246 0.0
N170 N 0.02618 0.52455 0.5056 0.0
C171 C 0.03598 0.54197 0.49224 0.0
C172 C 0.05484 0.5554 0.50166 0.0
C173 C 0.05723 0.54599 0.5214 0.0
C174 C 0.03977 0.52746 0.52292 0.0
N175 N 0.00284 0.48558 0.52947 0.0
C176 C 0.01842 0.49358 0.54512 0.0
C177 C 0.01591 0.48109 0.56448 0.0
C178 C 0.99747 0.46415 0.56126 0.0
C179 C 0.98985 0.46725 0.53987 0.0
N180 N 0.01351 0.49048 0.47908 0.0
C181 C 0.03498 0.47964 0.44827 0.0
C182 C 0.03976 0.48307 0.47277 0.0
C183 C 0.02905 0.48857 0.48764 0.0
C184 C 0.01893 0.48133 0.43965 0.0
C185 C 0.00839 0.48652 0.45525 0.0
N186 N 0.98519 0.50834 0.52162 0.0
C187 C 0.98438 0.52474 0.55749 0.0
C188 C 0.96438 0.51944 0.55308 0.0
C189 C 0.95513 0.50878 0.53236 0.0
C190 C 0.96575 0.50355 0.51694 0.0
C191 C 0.99437 0.51904 0.54174 0.0
H192 H 0.95783 0.49543 0.50147 0.0
H193 H 0.00948 0.52337 0.54634 0.0
H194 H 0.03379 0.49133 0.50596 0.0
H195 H 0.99631 0.48747 0.44746 0.0
C196 C 0.96355 0.48591 0.45952 0.0
C197 C 0.96993 0.45267 0.53062 0.0
C198 C 0.02824 0.54639 0.47037 0.0
C199 C 0.03529 0.51282 0.54097 0.0
H200 H 0.93496 0.42701 0.5027 0.0
H201 H 0.93136 0.44507 0.46333 0.0
H202 H 0.96973 0.51664 0.42545 0.0
H203 H 0.00549 0.54962 0.43111 0.0
H204 H 0.06578 0.57043 0.49488 0.0
H205 H 0.07014 0.55196 0.53327 0.0
H206 H 0.02615 0.48404 0.57934 0.0
H207 H 0.99035 0.45114 0.57353 0.0
H208 H 0.05174 0.48155 0.4806 0.0
H209 H 0.0147 0.4791 0.42079 0.0
H210 H 0.99241 0.53335 0.573 0.0
H211 H 0.93958 0.50409 0.5282 0.0
C212 C 0.47084 0.99631 0.04243 0.0
C213 C 0.46971 0.00604 0.06235 0.0
C214 C 0.4876 0.02404 0.06267 0.0
C215 C 0.49861 0.02427 0.04309 0.0
N216 N 0.48881 0.00754 0.03015 0.0
Co217 Co 0.49941 0.00152 0.00053 0.0
N218 N 0.52664 0.02689 0.00287 0.0
C219 C 0.53265 0.04044 0.02035 0.0
C220 C 0.55251 0.05583 0.01787 0.0
C221 C 0.55963 0.05195 0.99752 0.0
C222 C 0.54354 0.03446 0.98857 0.0
N223 N 0.50976 0.9958 0.97045 0.0
C224 C 0.52784 0.00693 0.95834 0.0
C225 C 0.52813 0.99814 0.93703 0.0
C226 C 0.50974 0.98077 0.93579 0.0
C227 C 0.4992 0.98001 0.95614 0.0
N228 N 0.47245 0.97575 0.99877 0.0
C229 C 0.46664 0.96175 0.9819 0.0
C230 C 0.44747 0.94539 0.98582 0.0
C231 C 0.4407 0.94896 0.0067 0.0
C232 C 0.45625 0.96736 0.01434 0.0
N233 N 0.48938 0.01569 0.98001 0.0
C234 C 0.47639 0.03632 0.94973 0.0
C235 C 0.46982 0.01634 0.94614 0.0
C236 C 0.4765 0.00645 0.96125 0.0
C237 C 0.48937 0.04569 0.969 0.0
C238 C 0.49548 0.03516 0.98386 0.0
N239 N 0.50944 0.98742 0.02096 0.0
C240 C 0.51433 0.95977 0.02794 0.0
C241 C 0.52343 0.96721 0.05016 0.0
C242 C 0.52543 0.98496 0.05745 0.0
C243 C 0.51836 0.99471 0.04273 0.0
C244 C 0.50753 0.97004 0.01374 0.0
H245 H 0.52026 0.00811 0.04938 0.0
H246 H 0.50066 0.96357 0.99706 0.0
H247 H 0.47105 0.99137 0.95724 0.0
H248 H 0.50531 0.04321 0.9982 0.0
C249 C 0.51898 0.03883 0.03813 0.0
C250 C 0.45501 0.97601 0.03672 0.0
C251 C 0.54491 0.02604 0.966 0.0
C252 C 0.47946 0.96457 0.96239 0.0
H253 H 0.45751 0.00052 0.07571 0.0
H254 H 0.49234 0.03526 0.07617 0.0
H255 H 0.56074 0.0685 0.02931 0.0
H256 H 0.57489 0.06113 0.98996 0.0
H257 H 0.54023 0.00373 0.92353 0.0
H258 H 0.50459 0.97006 0.92163 0.0
H259 H 0.43942 0.93237 0.97488 0.0
H260 H 0.42601 0.93907 0.01543 0.0
H261 H 0.45944 0.00822 0.93179 0.0
H262 H 0.49514 0.06122 0.97245 0.0
H263 H 0.51213 0.94589 0.02165 0.0
H264 H 0.5326 0.99148 0.07436 0.0
C265 C 0.51043 0.54394 0.48893 0.0
C266 C 0.50711 0.55795 0.49889 0.0
C267 C 0.4953 0.54901 0.51925 0.0
C268 C 0.49222 0.53019 0.52063 0.0
N269 N 0.5015 0.52662 0.50247 0.0
Co270 Co 0.50143 0.50145 0.49778 0.0
N271 N 0.48189 0.48746 0.52579 0.0
C272 C 0.47272 0.49472 0.53915 0.0
C273 C 0.4595 0.4814 0.55663 0.0
C274 C 0.4604 0.46467 0.55444 0.0
C275 C 0.47435 0.46888 0.53584 0.0
N276 N 0.50218 0.4766 0.49388 0.0
C277 C 0.49377 0.45954 0.50796 0.0
C278 C 0.49968 0.44672 0.50009 0.0
C279 C 0.51218 0.45596 0.48034 0.0
C280 C 0.51339 0.47389 0.47742 0.0
N281 N 0.52012 0.51514 0.46891 0.0
C282 C 0.52786 0.50728 0.45416 0.0
C283 C 0.53905 0.51969 0.43486 0.0
C284 C 0.53811 0.53638 0.43715 0.0
C285 C 0.52648 0.53319 0.45791 0.0
N286 N 0.52488 0.51129 0.5198 0.0
C287 C 0.55711 0.52228 0.55213 0.0
C288 C 0.55897 0.51898 0.52778 0.0
C289 C 0.54281 0.51345 0.51214 0.0
C290 C 0.53904 0.52065 0.55975 0.0
C291 C 0.52337 0.51539 0.54339 0.0
N292 N 0.47799 0.49157 0.47584 0.0
C293 C 0.46012 0.47388 0.44029 0.0
C294 C 0.44509 0.47834 0.44409 0.0
C295 C 0.4468 0.48944 0.46417 0.0
C296 C 0.46315 0.49576 0.47971 0.0
C297 C 0.47632 0.48063 0.4562 0.0
H298 H 0.46351 0.50417 0.49464 0.0
H299 H 0.48733 0.47685 0.45218 0.0
H300 H 0.54516 0.51079 0.49401 0.0
H301 H 0.51004 0.51441 0.55043 0.0
C302 C 0.47857 0.51477 0.53665 0.0
C303 C 0.52125 0.5474 0.46594 0.0
C304 C 0.48078 0.4552 0.52935 0.0
C305 C 0.52466 0.48835 0.4592 0.0
H306 H 0.51221 0.57288 0.49177 0.0
H307 H 0.48898 0.5552 0.53105 0.0
H308 H 0.45081 0.48381 0.56994 0.0
H309 H 0.45217 0.45111 0.56571 0.0
H310 H 0.49567 0.4323 0.50794 0.0
H311 H 0.51969 0.45037 0.46958 0.0
H312 H 0.54677 0.51686 0.42068 0.0
H313 H 0.545 0.54932 0.42475 0.0
H314 H 0.57281 0.52055 0.52071 0.0
H315 H 0.53668 0.5229 0.57842 0.0
H316 H 0.45937 0.46509 0.4252 0.0
H317 H 0.43577 0.4936 0.46776 0.0
C318 C 0.28928 0.46245 0.19536 0.0
C319 C 0.28534 0.44986 0.17592 0.0
C320 C 0.27334 0.4606 0.20941 0.0
C321 C 0.25311 0.44579 0.20475 0.0
C322 C 0.26502 0.43534 0.17093 0.0
C323 C 0.24906 0.43339 0.18517 0.0
C324 C 0.23615 0.44386 0.21954 0.0
C325 C 0.27323 0.42986 0.26966 0.0
C326 C 0.28161 0.44268 0.28912 0.0
C327 C 0.25832 0.42998 0.25544 0.0
C328 C 0.2519 0.4433 0.26008 0.0
C329 C 0.27478 0.4556 0.29409 0.0
C330 C 0.26007 0.45588 0.27974 0.0
C331 C 0.23624 0.44389 0.2452 0.0
C332 C 0.15583 0.43307 0.27289 0.0
C333 C 0.16235 0.44839 0.28951 0.0
C334 C 0.16994 0.43202 0.25818 0.0
C335 C 0.1908 0.44621 0.25991 0.0
C336 C 0.18329 0.46267 0.2909 0.0
C337 C 0.19736 0.46144 0.27645 0.0
C338 C 0.20603 0.44498 0.24525 0.0
C339 C 0.17463 0.46495 0.19398 0.0
C340 C 0.16221 0.45035 0.17746 0.0
C341 C 0.18863 0.46295 0.20778 0.0
C342 C 0.19057 0.44634 0.20536 0.0
C343 C 0.16433 0.43378 0.17498 0.0
C344 C 0.17852 0.43191 0.18866 0.0
C345 C 0.2056 0.44441 0.21973 0.0
H346 H 0.30471 0.47369 0.19987 0.0
H347 H 0.27686 0.47081 0.2239 0.0
H348 H 0.2614 0.42566 0.15582 0.0
H349 H 0.23355 0.4221 0.18097 0.0
H350 H 0.27801 0.41954 0.26566 0.0
H351 H 0.25177 0.41963 0.24091 0.0
H352 H 0.2811 0.46577 0.30884 0.0
H353 H 0.25528 0.46618 0.28381 0.0
H354 H 0.13988 0.42165 0.27156 0.0
H355 H 0.1646 0.41993 0.2458 0.0
H356 H 0.18889 0.47494 0.30303 0.0
H357 H 0.2134 0.47256 0.278 0.0
H358 H 0.17382 0.47814 0.19598 0.0
H359 H 0.19816 0.47453 0.22015 0.0
H360 H 0.15489 0.42213 0.16267 0.0
H361 H 0.17988 0.41904 0.18645 0.0
N362 N 0.22067 0.44386 0.20779 0.0
N363 N 0.22129 0.44468 0.25698 0.0
C364 C 0.83993 0.2755 0.78101 0.0
C365 C 0.83417 0.28232 0.80085 0.0
C366 C 0.82519 0.25999 0.76732 0.0
C367 C 0.80439 0.25135 0.77286 0.0
C368 C 0.8134 0.27331 0.80672 0.0
C369 C 0.79869 0.25798 0.7929 0.0
C370 C 0.7884 0.23502 0.75855 0.0
C371 C 0.82161 0.28825 0.70685 0.0
C372 C 0.83122 0.28539 0.68714 0.0
C373 C 0.80765 0.27203 0.72175 0.0
C374 C 0.80329 0.25268 0.71753 0.0
C375 C 0.82653 0.26593 0.68271 0.0
C376 C 0.81263 0.24973 0.69771 0.0
C377 C 0.78827 0.23534 0.73291 0.0
C378 C 0.70425 0.16772 0.71138 0.0
C379 C 0.7084 0.16029 0.69077 0.0
C380 C 0.72005 0.18152 0.72565 0.0
C381 C 0.74035 0.18791 0.71993 0.0
C382 C 0.72875 0.16683 0.68501 0.0
C383 C 0.74454 0.18055 0.69939 0.0
C384 C 0.75733 0.20339 0.7341 0.0
C385 C 0.72088 0.15092 0.78652 0.0
C386 C 0.71221 0.15513 0.80605 0.0
C387 C 0.73562 0.16641 0.77133 0.0
C388 C 0.74176 0.18634 0.77526 0.0
C389 C 0.7186 0.17513 0.81003 0.0
C390 C 0.7333 0.19056 0.79489 0.0
C391 C 0.75752 0.20305 0.75973 0.0
H392 H 0.85585 0.28197 0.77632 0.0
H393 H 0.83006 0.25471 0.75249 0.0
H394 H 0.8085 0.27835 0.82179 0.0
H395 H 0.78277 0.25146 0.79768 0.0
H396 H 0.82495 0.30304 0.71085 0.0
H397 H 0.80019 0.27463 0.7365 0.0
H398 H 0.83335 0.26315 0.66742 0.0
H399 H 0.80923 0.23488 0.69389 0.0
H400 H 0.68877 0.16293 0.71647 0.0
H401 H 0.71638 0.18745 0.74089 0.0
H402 H 0.73256 0.16174 0.66904 0.0
H403 H 0.76009 0.18552 0.69437 0.0
H404 H 0.71649 0.13569 0.78319 0.0
H405 H 0.74234 0.16283 0.75668 0.0
H406 H 0.71202 0.17888 0.82467 0.0
H407 H 0.73787 0.20583 0.79832 0.0
N408 N 0.77296 0.21892 0.77088 0.0
N409 N 0.77283 0.21946 0.72172 0.0
C410 C 0.57449 0.72629 0.22106 0.0
C411 C 0.5614 0.7197 0.20116 0.0
C412 C 0.57654 0.74175 0.23501 0.0
C413 C 0.56513 0.75057 0.22972 0.0
C414 C 0.55083 0.72928 0.19527 0.0
C415 C 0.55263 0.74446 0.2094 0.0
C416 C 0.5661 0.76633 0.24471 0.0
C417 C 0.54416 0.71212 0.29425 0.0
C418 C 0.55658 0.71515 0.31432 0.0
C419 C 0.5467 0.72835 0.28009 0.0
C420 C 0.56212 0.74793 0.28522 0.0
C421 C 0.57158 0.73485 0.31984 0.0
C422 C 0.5743 0.75106 0.30544 0.0
C423 C 0.56502 0.76528 0.27037 0.0
C424 C 0.54639 0.82779 0.29321 0.0
C425 C 0.55916 0.83698 0.31289 0.0
C426 C 0.54859 0.8145 0.27934 0.0
C427 C 0.5638 0.81036 0.28463 0.0
C428 C 0.57408 0.83246 0.31848 0.0
C429 C 0.5763 0.81919 0.30454 0.0
C430 C 0.56609 0.79617 0.27015 0.0
C431 C 0.58062 0.84882 0.22073 0.0
C432 C 0.56875 0.84389 0.19987 0.0
C433 C 0.5806 0.83385 0.23515 0.0
C434 C 0.56816 0.81365 0.22937 0.0
C435 C 0.5569 0.8238 0.19365 0.0
C436 C 0.55659 0.80885 0.20827 0.0
C437 C 0.56736 0.79732 0.24452 0.0
H438 H 0.5829 0.71929 0.22617 0.0
H439 H 0.58685 0.74664 0.25007 0.0
H440 H 0.5411 0.7251 0.17967 0.0
H441 H 0.54394 0.75124 0.20462 0.0
H442 H 0.53254 0.6972 0.28931 0.0
H443 H 0.53662 0.72556 0.26508 0.0
H444 H 0.5811 0.73782 0.33547 0.0
H445 H 0.58601 0.76607 0.31004 0.0
H446 H 0.53445 0.83059 0.28876 0.0
H447 H 0.53831 0.80735 0.26456 0.0
H448 H 0.58422 0.83936 0.33345 0.0
H449 H 0.58797 0.81601 0.30911 0.0
H450 H 0.59008 0.86427 0.22568 0.0
H451 H 0.59032 0.8381 0.25076 0.0
H452 H 0.54752 0.81961 0.17772 0.0
H453 H 0.547 0.79343 0.20325 0.0
N454 N 0.56718 0.78229 0.23292 0.0
N455 N 0.56522 0.78032 0.28205 0.0
C456 C 0.84669 0.56795 0.73038 0.0
C457 C 0.83993 0.55392 0.71212 0.0
C458 C 0.83269 0.56942 0.74477 0.0
C459 C 0.81168 0.55656 0.74153 0.0
C460 C 0.81895 0.54125 0.70872 0.0
C461 C 0.80498 0.54257 0.72326 0.0
C462 C 0.7965 0.55818 0.75598 0.0
C463 C 0.82842 0.54067 0.80971 0.0
C464 C 0.84133 0.55621 0.82495 0.0
C465 C 0.81419 0.542 0.79554 0.0
C466 C 0.81248 0.55885 0.79635 0.0
C467 C 0.83938 0.57299 0.82587 0.0
C468 C 0.82494 0.57418 0.81187 0.0
C469 C 0.7974 0.56021 0.78137 0.0
C470 C 0.71505 0.54677 0.80552 0.0
C471 C 0.72034 0.56002 0.82441 0.0
C472 C 0.73013 0.54696 0.79144 0.0
C473 C 0.75081 0.56097 0.79535 0.0
C474 C 0.74094 0.57357 0.82896 0.0
C475 C 0.75606 0.5741 0.81445 0.0
C476 C 0.767 0.56108 0.7808 0.0
C477 C 0.72966 0.57156 0.72592 0.0
C478 C 0.71867 0.55524 0.71086 0.0
C479 C 0.7451 0.5729 0.74054 0.0
C480 C 0.74984 0.55797 0.74031 0.0
C481 C 0.72356 0.54036 0.7108 0.0
C482 C 0.7391 0.54185 0.72515 0.0
C483 C 0.76615 0.55904 0.75538 0.0
H484 H 0.8628 0.5781 0.73312 0.0
H485 H 0.83834 0.58086 0.75809 0.0
H486 H 0.81332 0.53019 0.69491 0.0
H487 H 0.78888 0.53258 0.72027 0.0
H488 H 0.82907 0.5273 0.80895 0.0
H489 H 0.80439 0.52978 0.78406 0.0
H490 H 0.84917 0.58535 0.83715 0.0
H491 H 0.82376 0.58726 0.81281 0.0
H492 H 0.69922 0.53588 0.80211 0.0
H493 H 0.72553 0.53587 0.77783 0.0
H494 H 0.74531 0.5838 0.84362 0.0
H495 H 0.77188 0.58477 0.81816 0.0
H496 H 0.72656 0.58345 0.72616 0.0
H497 H 0.75344 0.58565 0.75186 0.0
H498 H 0.7152 0.52736 0.69989 0.0
H499 H 0.74251 0.53015 0.72475 0.0
N500 N 0.78085 0.55757 0.74406 0.0
N501 N 0.78271 0.56173 0.79278 0.0
C502 C 0.18061 0.7168 0.22376 0.0
C503 C 0.1695 0.71998 0.20595 0.0
C504 C 0.19431 0.7324 0.23808 0.0
C505 C 0.19712 0.75148 0.23495 0.0
C506 C 0.17234 0.73909 0.20282 0.0
C507 C 0.18619 0.75476 0.21705 0.0
C508 C 0.21223 0.76818 0.24946 0.0
C509 C 0.16136 0.72571 0.30059 0.0
C510 C 0.16719 0.71651 0.31829 0.0
C511 C 0.17607 0.74213 0.28649 0.0
C512 C 0.19685 0.74958 0.28981 0.0
C513 C 0.188 0.72424 0.32183 0.0
C514 C 0.20267 0.74068 0.30782 0.0
C515 C 0.21267 0.76685 0.27502 0.0
C516 C 0.28354 0.84856 0.29951 0.0
C517 C 0.29251 0.84264 0.31739 0.0
C518 C 0.2676 0.83431 0.28572 0.0
C519 C 0.26047 0.81388 0.28938 0.0
C520 C 0.28495 0.82214 0.3214 0.0
C521 C 0.26906 0.80794 0.30762 0.0
C522 C 0.24387 0.79848 0.27474 0.0
C523 C 0.29617 0.83541 0.22249 0.0
C524 C 0.29206 0.84476 0.20312 0.0
C525 C 0.28045 0.821 0.23763 0.0
C526 C 0.26032 0.81593 0.23409 0.0
C527 C 0.27187 0.8396 0.19954 0.0
C528 C 0.25616 0.82526 0.21483 0.0
C529 C 0.24341 0.79984 0.24914 0.0
H530 H 0.17866 0.70221 0.22668 0.0
H531 H 0.20291 0.72961 0.2514 0.0
H532 H 0.16415 0.74203 0.18904 0.0
H533 H 0.18834 0.76944 0.21415 0.0
H534 H 0.14544 0.72006 0.29744 0.0
H535 H 0.17122 0.74905 0.27307 0.0
H536 H 0.19295 0.71769 0.33563 0.0
H537 H 0.21861 0.7463 0.31086 0.0
H538 H 0.28902 0.86423 0.29594 0.0
H539 H 0.26088 0.83925 0.27217 0.0
H540 H 0.29122 0.81704 0.33535 0.0
H541 H 0.26367 0.79226 0.31099 0.0
H542 H 0.31155 0.83912 0.22589 0.0
H543 H 0.28402 0.81356 0.25185 0.0
H544 H 0.26811 0.84623 0.18454 0.0
H545 H 0.2407 0.82133 0.21149 0.0
N546 N 0.22753 0.78469 0.23752 0.0
N547 N 0.22852 0.78198 0.28663 0.0
C548 C 0.42037 0.15591 0.77899 0.0
C549 C 0.4342 0.16126 0.79801 0.0
C550 C 0.41976 0.17063 0.7648 0.0
C551 C 0.43323 0.19098 0.76911 0.0
C552 C 0.44735 0.18161 0.80257 0.0
C553 C 0.44682 0.19629 0.78831 0.0
C554 C 0.43302 0.2069 0.7543 0.0
C555 C 0.45262 0.17661 0.7037 0.0
C556 C 0.43845 0.16596 0.68568 0.0
C557 C 0.45066 0.18997 0.71769 0.0
C558 C 0.43444 0.19291 0.71409 0.0
C559 C 0.42238 0.16918 0.68187 0.0
C560 C 0.42049 0.18265 0.69585 0.0
C561 C 0.43257 0.20728 0.7287 0.0
C562 C 0.45474 0.29029 0.70219 0.0
C563 C 0.44005 0.28737 0.685 0.0
C564 C 0.45244 0.27426 0.71654 0.0
C565 C 0.43541 0.25497 0.71402 0.0
C566 C 0.42305 0.26796 0.68248 0.0
C567 C 0.42086 0.25188 0.69671 0.0
C568 C 0.43321 0.2379 0.72871 0.0
C569 C 0.42472 0.27684 0.7792 0.0
C570 C 0.43799 0.28347 0.79885 0.0
C571 C 0.42311 0.26184 0.76471 0.0
C572 C 0.43519 0.25362 0.76923 0.0
C573 C 0.4497 0.27494 0.80365 0.0
C574 C 0.44832 0.2602 0.789 0.0
C575 C 0.43385 0.23764 0.75432 0.0
H576 H 0.40984 0.14034 0.77531 0.0
H577 H 0.40867 0.1661 0.7506 0.0
H578 H 0.45833 0.18621 0.81691 0.0
H579 H 0.45728 0.21187 0.79208 0.0
H580 H 0.46546 0.1749 0.70674 0.0
H581 H 0.46197 0.19817 0.73119 0.0
H582 H 0.41112 0.16114 0.66828 0.0
H583 H 0.40798 0.18486 0.69263 0.0
H584 H 0.46827 0.30491 0.70425 0.0
H585 H 0.4641 0.27686 0.72941 0.0
H586 H 0.41132 0.26517 0.66965 0.0
H587 H 0.40768 0.23706 0.69441 0.0
H588 H 0.41531 0.28299 0.77534 0.0
H589 H 0.41227 0.25655 0.75021 0.0
H590 H 0.46016 0.27989 0.81858 0.0
H591 H 0.4577 0.25404 0.79301 0.0
N592 N 0.43376 0.22214 0.76604 0.0
N593 N 0.43249 0.22268 0.71688 0.0
H594 H 0.04193 0.49723 0.07547 0.0
H595 H 0.06331 0.49007 0.10122 0.0
H596 H 0.06535 0.45371 0.04576 0.0
H597 H 0.04285 0.4599 0.02071 0.0
H598 H 0.06224 0.43652 0.08733 0.0
H599 H 0.10546 0.50348 0.05525 0.0
H600 H 0.11569 0.53847 0.04612 0.0
H601 H 0.11705 0.54859 0.12228 0.0
H602 H 0.10653 0.51356 0.13187 0.0
H603 H 0.15189 0.44069 0.13004 0.0
H604 H 0.12791 0.44501 0.10583 0.0
H605 H 0.11546 0.47015 0.1667 0.0
H606 H 0.13878 0.46519 0.1914 0.0
H607 H 0.12425 0.49296 0.12241 0.0
H608 H 0.08122 0.42496 0.15332 0.0
H609 H 0.07178 0.39003 0.16085 0.0
H610 H 0.07192 0.3824 0.08416 0.0
H611 H 0.08165 0.4174 0.07618 0.0
C612 C 0.0469 0.48762 0.06895 0.0
C613 C 0.04111 0.47934 0.04606 0.0
C614 C 0.05922 0.48366 0.08353 0.0
C615 C 0.06641 0.47176 0.0752 0.0
C616 C 0.06015 0.46305 0.05253 0.0
C617 C 0.04745 0.46668 0.03817 0.0
C618 C 0.08059 0.46855 0.09001 0.0
C619 C 0.07593 0.44891 0.09469 0.0
C620 C 0.09836 0.48466 0.09997 0.0
C621 C 0.10503 0.50584 0.09427 0.0
C622 C 0.10784 0.51314 0.07005 0.0
C623 C 0.11369 0.53298 0.06479 0.0
C624 C 0.11697 0.54573 0.08361 0.0
C625 C 0.11448 0.53869 0.10773 0.0
C626 C 0.10859 0.51884 0.11309 0.0
C627 C 0.14382 0.44682 0.13847 0.0
C628 C 0.14733 0.4526 0.16273 0.0
C629 C 0.1302 0.44939 0.12453 0.0
C630 C 0.11992 0.45787 0.13451 0.0
C631 C 0.12335 0.46366 0.15865 0.0
C632 C 0.13678 0.46091 0.17268 0.0
C633 C 0.10582 0.46101 0.11966 0.0
C634 C 0.11054 0.48063 0.11497 0.0
C635 C 0.08832 0.44494 0.10939 0.0
C636 C 0.08237 0.42386 0.11416 0.0
C637 C 0.07941 0.41589 0.13807 0.0
C638 C 0.07397 0.39607 0.14242 0.0
C639 C 0.07131 0.38402 0.123 0.0
C640 C 0.07402 0.39176 0.09918 0.0
C641 C 0.07948 0.41158 0.09474 0.0
H642 H 0.0671 0.36867 0.1264 0.0
H643 H 0.12147 0.56108 0.0795 0.0
H644 H 0.58037 0.02861 0.54431 0.0
H645 H 0.60833 0.05061 0.57084 0.0
H646 H 0.57905 0.08334 0.58467 0.0
H647 H 0.55129 0.06147 0.55788 0.0
H648 H 0.61922 0.10825 0.5761 0.0
H649 H 0.57662 0.04907 0.62597 0.0
H650 H 0.55774 0.01283 0.63588 0.0
H651 H 0.61336 0.01313 0.63284 0.0
H652 H 0.63255 0.04933 0.62247 0.0
H653 H 0.67462 0.161 0.67752 0.0
H654 H 0.64742 0.13838 0.65111 0.0
H655 H 0.67731 0.10579 0.64072 0.0
H656 H 0.70416 0.12783 0.66808 0.0
H657 H 0.63741 0.08062 0.64694 0.0
H658 H 0.68007 0.13962 0.5972 0.0
H659 H 0.69905 0.17572 0.58641 0.0
H660 H 0.64356 0.17569 0.58865 0.0
H661 H 0.62427 0.13963 0.59979 0.0
C662 C 0.58003 0.04052 0.5531 0.0
C663 C 0.5638 0.04341 0.54938 0.0
C664 C 0.59589 0.05301 0.56825 0.0
C665 C 0.59565 0.06847 0.57996 0.0
C666 C 0.57952 0.0715 0.57586 0.0
C667 C 0.5637 0.05903 0.56069 0.0
C668 C 0.61216 0.08149 0.59655 0.0
C669 C 0.62304 0.10223 0.59177 0.0
C670 C 0.61747 0.07359 0.61663 0.0
C671 C 0.606 0.05188 0.62322 0.0
C672 C 0.58481 0.04139 0.62725 0.0
C673 C 0.57405 0.02085 0.63296 0.0
C674 C 0.58434 0.01068 0.63494 0.0
C675 C 0.60541 0.02103 0.63127 0.0
C676 C 0.61624 0.04155 0.62549 0.0
C677 C 0.67531 0.14886 0.66993 0.0
C678 C 0.69165 0.14629 0.67493 0.0
C679 C 0.65984 0.13607 0.65457 0.0
C680 C 0.66048 0.12057 0.6436 0.0
C681 C 0.67656 0.11772 0.64887 0.0
C682 C 0.69199 0.13045 0.66434 0.0
C683 C 0.64442 0.10742 0.62658 0.0
C684 C 0.63363 0.08665 0.63126 0.0
C685 C 0.6392 0.11528 0.60635 0.0
C686 C 0.65076 0.13696 0.59955 0.0
C687 C 0.67194 0.14734 0.59557 0.0
C688 C 0.68275 0.16779 0.58936 0.0
C689 C 0.67252 0.178 0.5869 0.0
C690 C 0.65146 0.16777 0.59059 0.0
C691 C 0.64058 0.14732 0.59682 0.0
H692 H 0.68092 0.19384 0.58209 0.0
H693 H 0.57598 0.99478 0.63937 0.0
H694 H 0.49942 0.57413 0.06031 0.0
H695 H 0.5079 0.60182 0.08643 0.0
H696 H 0.56586 0.60842 0.10144 0.0
H697 H 0.55719 0.58034 0.07567 0.0
H698 H 0.54999 0.612 0.14165 0.0
H699 H 0.56174 0.64099 0.06146 0.0
H700 H 0.55383 0.64395 0.01879 0.0
H701 H 0.50378 0.64904 0.04177 0.0
H702 H 0.51121 0.64582 0.08459 0.0
H703 H 0.5899 0.71052 0.18833 0.0
H704 H 0.58488 0.68307 0.1636 0.0
H705 H 0.52174 0.66372 0.15557 0.0
H706 H 0.52627 0.6904 0.18107 0.0
H707 H 0.5433 0.66826 0.11117 0.0
H708 H 0.53171 0.63799 0.19181 0.0
H709 H 0.54094 0.63607 0.23413 0.0
H710 H 0.59283 0.63474 0.20944 0.0
H711 H 0.58413 0.63709 0.1669 0.0
C712 C 0.51403 0.58158 0.06906 0.0
C713 C 0.52773 0.57521 0.06581 0.0
C714 C 0.51887 0.59741 0.08397 0.0
C715 C 0.53769 0.60747 0.09557 0.0
C716 C 0.55128 0.60093 0.09264 0.0
C717 C 0.54633 0.58491 0.07793 0.0
C718 C 0.54305 0.62475 0.11075 0.0
C719 C 0.54886 0.62446 0.13484 0.0
C720 C 0.5414 0.64095 0.10199 0.0
C721 C 0.53694 0.643 0.07624 0.0
C722 C 0.54896 0.6426 0.05741 0.0
C723 C 0.54458 0.64434 0.0332 0.0
C724 C 0.52829 0.64663 0.02757 0.0
C725 C 0.51638 0.64724 0.04616 0.0
C726 C 0.52069 0.64549 0.07041 0.0
C727 C 0.57486 0.70026 0.18166 0.0
C728 C 0.55853 0.70282 0.18661 0.0
C729 C 0.57207 0.68466 0.1674 0.0
C730 C 0.55296 0.67147 0.15772 0.0
C731 C 0.53664 0.67388 0.16272 0.0
C732 C 0.53933 0.68925 0.17719 0.0
C733 C 0.5499 0.65528 0.14201 0.0
C734 C 0.54458 0.65584 0.11783 0.0
C735 C 0.55223 0.6395 0.15062 0.0
C736 C 0.55741 0.63797 0.17617 0.0
C737 C 0.54521 0.6375 0.1954 0.0
C738 C 0.55032 0.63629 0.21943 0.0
C739 C 0.56748 0.63532 0.22449 0.0
C740 C 0.57956 0.63553 0.2055 0.0
C741 C 0.57454 0.6368 0.18142 0.0
H742 H 0.5714 0.63436 0.24311 0.0
H743 H 0.52491 0.64798 0.00881 0.0
H744 H 0.93722 0.53084 0.54209 0.0
H745 H 0.91802 0.53833 0.57018 0.0
H746 H 0.94769 0.52866 0.63061 0.0
H747 H 0.96599 0.5199 0.60274 0.0
H748 H 0.90931 0.51156 0.64074 0.0
H749 H 0.96024 0.57655 0.60999 0.0
H750 H 0.9809 0.60291 0.57885 0.0
H751 H 0.92712 0.59913 0.55124 0.0
H752 H 0.90609 0.57254 0.58201 0.0
H753 H 0.87333 0.55289 0.72588 0.0
H754 H 0.89672 0.54919 0.69979 0.0
H755 H 0.86302 0.54816 0.63695 0.0
H756 H 0.8397 0.55197 0.66288 0.0
H757 H 0.90536 0.57224 0.62995 0.0
H758 H 0.85474 0.50565 0.66029 0.0
H759 H 0.83489 0.47989 0.69236 0.0
H760 H 0.88996 0.488 0.72208 0.0
H761 H 0.91016 0.51404 0.69037 0.0
C762 C 0.93954 0.53011 0.56136 0.0
C763 C 0.95321 0.52477 0.5701 0.0
C764 C 0.92875 0.53469 0.5774 0.0
C765 C 0.93166 0.53441 0.60251 0.0
C766 C 0.94528 0.5291 0.61131 0.0
C767 C 0.9559 0.5243 0.59529 0.0
C768 C 0.91997 0.53898 0.61963 0.0
C769 C 0.90877 0.52502 0.6386 0.0
C770 C 0.91897 0.55638 0.61668 0.0
C771 C 0.93157 0.57243 0.59819 0.0
C772 C 0.9528 0.58124 0.59717 0.0
C773 C 0.96458 0.59624 0.5796 0.0
C774 C 0.95532 0.60266 0.56304 0.0
C775 C 0.93427 0.59413 0.56406 0.0
C776 C 0.92241 0.57911 0.58158 0.0
C777 C 0.87107 0.55208 0.70648 0.0
C778 C 0.85465 0.55258 0.69639 0.0
C779 C 0.88435 0.54987 0.69164 0.0
C780 C 0.88147 0.54826 0.6665 0.0
C781 C 0.86545 0.54935 0.65632 0.0
C782 C 0.85208 0.55137 0.67115 0.0
C783 C 0.89472 0.54479 0.65078 0.0
C784 C 0.90614 0.55891 0.63212 0.0
C785 C 0.89611 0.52766 0.65415 0.0
C786 C 0.88397 0.51194 0.67313 0.0
C787 C 0.86262 0.50206 0.67379 0.0
C788 C 0.85131 0.48739 0.69188 0.0
C789 C 0.86116 0.48235 0.70929 0.0
C790 C 0.88235 0.49194 0.70861 0.0
C791 C 0.89374 0.50665 0.69057 0.0
H792 H 0.85237 0.47098 0.72328 0.0
H793 H 0.96447 0.61427 0.54945 0.0
H794 H 0.42323 0.9801 0.04874 0.0
H795 H 0.39479 0.95865 0.0771 0.0
H796 H 0.42035 0.92217 0.09162 0.0
H797 H 0.44882 0.94373 0.06348 0.0
H798 H 0.37889 0.90008 0.08202 0.0
H799 H 0.42529 0.95425 0.13185 0.0
H800 H 0.44676 0.9897 0.14188 0.0
H801 H 0.39428 0.995 0.14242 0.0
H802 H 0.37254 0.95963 0.13196 0.0
H803 H 0.32382 0.8426 0.18531 0.0
H804 H 0.35084 0.86604 0.15716 0.0
H805 H 0.32458 0.90265 0.15328 0.0
H806 H 0.2979 0.87968 0.18244 0.0
H807 H 0.36495 0.92545 0.15598 0.0
H808 H 0.3182 0.87182 0.10754 0.0
H809 H 0.29613 0.83678 0.09611 0.0
H810 H 0.34808 0.83082 0.09131 0.0
H811 H 0.37044 0.86576 0.10305 0.0
C812 C 0.42275 0.96758 0.05823 0.0
C813 C 0.43813 0.96354 0.0543 0.0
C814 C 0.40659 0.95538 0.07432 0.0
C815 C 0.40557 0.93892 0.08652 0.0
C816 C 0.42089 0.93481 0.08237 0.0
C817 C 0.43711 0.94709 0.06645 0.0
C818 C 0.38847 0.9258 0.10347 0.0
C819 C 0.37595 0.90554 0.09834 0.0
C820 C 0.3843 0.93316 0.12428 0.0
C821 C 0.39732 0.95435 0.13087 0.0
C822 C 0.41835 0.96301 0.1339 0.0
C823 C 0.43057 0.98309 0.13969 0.0
C824 C 0.4219 0.99461 0.14272 0.0
C825 C 0.40098 0.98606 0.14003 0.0
C826 C 0.3887 0.966 0.13418 0.0
C827 C 0.32391 0.85578 0.17879 0.0
C828 C 0.30866 0.85924 0.18616 0.0
C829 C 0.33925 0.86905 0.16244 0.0
C830 C 0.33954 0.88592 0.1528 0.0
C831 C 0.32457 0.88965 0.16039 0.0
C832 C 0.30924 0.87641 0.17688 0.0
C833 C 0.3555 0.89958 0.13476 0.0
C834 C 0.36778 0.91996 0.13962 0.0
C835 C 0.35935 0.89238 0.11353 0.0
C836 C 0.34597 0.87136 0.10638 0.0
C837 C 0.3249 0.86299 0.10422 0.0
C838 C 0.31234 0.84316 0.09766 0.0
C839 C 0.3207 0.83157 0.09304 0.0
C840 C 0.34163 0.83981 0.09492 0.0
C841 C 0.35426 0.85964 0.1015 0.0
H842 H 0.31095 0.81621 0.08796 0.0
H843 H 0.43138 0.01015 0.14721 0.0
H844 H 0.45636 0.41563 0.52013 0.0
H845 H 0.44844 0.38693 0.54713 0.0
H846 H 0.48458 0.42718 0.60295 0.0
H847 H 0.49326 0.45581 0.57543 0.0
H848 H 0.49269 0.39953 0.60086 0.0
H849 H 0.43105 0.39962 0.60435 0.0
H850 H 0.40143 0.39979 0.58814 0.0
H851 H 0.38044 0.34351 0.55567 0.0
H852 H 0.41011 0.34314 0.57138 0.0
H853 H 0.45533 0.32606 0.69781 0.0
H854 H 0.46138 0.35444 0.67167 0.0
H855 H 0.43632 0.31584 0.61124 0.0
H856 H 0.43087 0.28747 0.63694 0.0
H857 H 0.42216 0.34246 0.61644 0.0
H858 H 0.48509 0.34352 0.6141 0.0
H859 H 0.51468 0.34417 0.63186 0.0
H860 H 0.53292 0.39974 0.66464 0.0
H861 H 0.50321 0.39923 0.64744 0.0
C862 C 0.4626 0.41822 0.53816 0.0
C863 C 0.47547 0.43776 0.5458 0.0
C864 C 0.45796 0.40189 0.55365 0.0
C865 C 0.46569 0.40487 0.57723 0.0
C866 C 0.47844 0.42449 0.58486 0.0
C867 C 0.48332 0.44079 0.56925 0.0
C868 C 0.46099 0.3876 0.59373 0.0
C869 C 0.47723 0.38722 0.60454 0.0
C870 C 0.44084 0.37133 0.59823 0.0
C871 C 0.42291 0.37145 0.58886 0.0
C872 C 0.4202 0.38735 0.5936 0.0
C873 C 0.40339 0.38747 0.58452 0.0
C874 C 0.38909 0.37169 0.57084 0.0
C875 C 0.39155 0.35573 0.56625 0.0
C876 C 0.40835 0.35555 0.57526 0.0
C877 C 0.45126 0.32359 0.67891 0.0
C878 C 0.44273 0.30446 0.66947 0.0
C879 C 0.45462 0.33982 0.66406 0.0
C880 C 0.44941 0.33721 0.63953 0.0
C881 C 0.44038 0.3181 0.63017 0.0
C882 C 0.4372 0.30189 0.64494 0.0
C883 C 0.45384 0.35454 0.62349 0.0
C884 C 0.43757 0.35487 0.61277 0.0
C885 C 0.47393 0.37091 0.61935 0.0
C886 C 0.49178 0.37121 0.62972 0.0
C887 C 0.49529 0.35577 0.62531 0.0
C888 C 0.5121 0.35613 0.63524 0.0
C889 C 0.52563 0.37195 0.64944 0.0
C890 C 0.5224 0.38746 0.65369 0.0
C891 C 0.50557 0.38715 0.64386 0.0
H892 H 0.53865 0.37221 0.65709 0.0
H893 H 0.37608 0.37182 0.56382 0.0
H894 H 0.53484 0.93969 0.47197 0.0
H895 H 0.54174 0.91849 0.44765 0.0
H896 H 0.5303 0.94246 0.38236 0.0
H897 H 0.52238 0.96295 0.40661 0.0
H898 H 0.51211 0.90346 0.38056 0.0
H899 H 0.57923 0.95664 0.39977 0.0
H900 H 0.60684 0.9793 0.42651 0.0
H901 H 0.60458 0.92904 0.46282 0.0
H902 H 0.57676 0.90605 0.4365 0.0
H903 H 0.55243 0.86624 0.29686 0.0
H904 H 0.54725 0.88861 0.32123 0.0
H905 H 0.55528 0.86208 0.3866 0.0
H906 H 0.56039 0.83958 0.36233 0.0
H907 H 0.57548 0.90247 0.38828 0.0
H908 H 0.50811 0.8494 0.36891 0.0
H909 H 0.48073 0.82698 0.34177 0.0
H910 H 0.48383 0.87758 0.30526 0.0
H911 H 0.51143 0.90033 0.33198 0.0
C912 C 0.53364 0.94036 0.45245 0.0
C913 C 0.52808 0.95308 0.44128 0.0
C914 C 0.53783 0.92839 0.43853 0.0
C915 C 0.53681 0.92907 0.41313 0.0
C916 C 0.53128 0.94175 0.40192 0.0
C917 C 0.52696 0.95362 0.41582 0.0
C918 C 0.54096 0.91618 0.39824 0.0
C919 C 0.52611 0.90348 0.382 0.0
C920 C 0.55901 0.91582 0.40052 0.0
C921 C 0.57578 0.92962 0.41631 0.0
C922 C 0.58452 0.95041 0.41358 0.0
C923 C 0.60022 0.96332 0.42864 0.0
C924 C 0.60742 0.95561 0.44639 0.0
C925 C 0.59897 0.93499 0.44908 0.0
C926 C 0.58325 0.92201 0.43408 0.0
C927 C 0.55297 0.86508 0.31643 0.0
C928 C 0.55669 0.85103 0.32767 0.0
C929 C 0.55005 0.8779 0.33033 0.0
C930 C 0.55063 0.87684 0.35575 0.0
C931 C 0.55478 0.86315 0.36701 0.0
C932 C 0.55774 0.85034 0.35311 0.0
C933 C 0.54667 0.88986 0.37059 0.0
C934 C 0.56152 0.90252 0.38683 0.0
C935 C 0.52866 0.89025 0.36828 0.0
C936 C 0.51197 0.87658 0.3523 0.0
C937 C 0.50306 0.85576 0.35498 0.0
C938 C 0.48748 0.84298 0.33969 0.0
C939 C 0.48058 0.85085 0.32176 0.0
C940 C 0.48921 0.87151 0.31913 0.0
C941 C 0.5048 0.88435 0.33436 0.0
H942 H 0.46852 0.84094 0.30994 0.0
H943 H 0.61958 0.96563 0.45804 0.0
H944 H 0.55627 0.49642 0.9489 0.0
H945 H 0.58635 0.50394 0.92499 0.0
H946 H 0.61071 0.56712 0.93111 0.0
H947 H 0.58101 0.55947 0.95605 0.0
H948 H 0.60115 0.52132 0.8836 0.0
H949 H 0.66217 0.59274 0.93113 0.0
H950 H 0.66854 0.60704 0.97164 0.0
H951 H 0.63173 0.54816 0.00462 0.0
H952 H 0.6254 0.5335 0.96438 0.0
H953 H 0.68945 0.56477 0.81017 0.0
H954 H 0.66125 0.5606 0.83524 0.0
H955 H 0.68621 0.54753 0.8981 0.0
H956 H 0.715 0.55283 0.8732 0.0
H957 H 0.67114 0.5676 0.91184 0.0
H958 H 0.64616 0.51001 0.86393 0.0
H959 H 0.63969 0.49159 0.82638 0.0
H960 H 0.60404 0.5152 0.7997 0.0
H961 H 0.61054 0.53399 0.83697 0.0
C962 C 0.56814 0.51188 0.94512 0.0
C963 C 0.56646 0.5274 0.95413 0.0
C964 C 0.58524 0.51618 0.93141 0.0
C965 C 0.60091 0.5361 0.9264 0.0
C966 C 0.59902 0.55164 0.93508 0.0
C967 C 0.58203 0.54731 0.94911 0.0
C968 C 0.61919 0.54051 0.91211 0.0
C969 C 0.61645 0.53147 0.88978 0.0
C970 C 0.63918 0.5534 0.92037 0.0
C971 C 0.64314 0.56206 0.9447 0.0
C972 C 0.65551 0.58285 0.94704 0.0
C973 C 0.6591 0.59101 0.96995 0.0
C974 C 0.65049 0.57852 0.99068 0.0
C975 C 0.63834 0.55783 0.98855 0.0
C976 C 0.63473 0.54959 0.96569 0.0
C977 C 0.68895 0.56124 0.82941 0.0
C978 C 0.70423 0.55902 0.83984 0.0
C979 C 0.67281 0.55873 0.84369 0.0
C980 C 0.6713 0.55327 0.86849 0.0
C981 C 0.68698 0.55169 0.87904 0.0
C982 C 0.70338 0.55468 0.86484 0.0
C983 C 0.65309 0.54851 0.88324 0.0
C984 C 0.65584 0.55751 0.90562 0.0
C985 C 0.63308 0.53495 0.87549 0.0
C986 C 0.629 0.52355 0.85314 0.0
C987 C 0.63705 0.51137 0.84999 0.0
C988 C 0.63336 0.50085 0.82877 0.0
C989 C 0.6215 0.50226 0.81064 0.0
C990 C 0.61325 0.51415 0.81374 0.0
C991 C 0.61691 0.52472 0.83492 0.0
H992 H 0.61867 0.49412 0.79422 0.0
H993 H 0.65327 0.58488 0.0084 0.0
H994 H 0.0267 0.57997 0.46282 0.0
H995 H 0.04967 0.60962 0.43696 0.0
H996 H 0.08388 0.58271 0.41815 0.0
H997 H 0.06082 0.55306 0.44381 0.0
H998 H 0.1083 0.62242 0.43046 0.0
H999 H 0.05153 0.58239 0.37921 0.0
H1000 H 0.01521 0.56347 0.369 0.0
H1001 H 0.01303 0.61663 0.37391 0.0
H1002 H 0.04928 0.6358 0.38461 0.0
H1003 H 0.16661 0.68225 0.32977 0.0
H1004 H 0.14209 0.65396 0.35585 0.0
H1005 H 0.10826 0.68266 0.36647 0.0
H1006 H 0.13277 0.71106 0.34024 0.0
H1007 H 0.0831 0.64324 0.35972 0.0
H1008 H 0.13945 0.68361 0.41004 0.0
H1009 H 0.17549 0.7029 0.42145 0.0
H1010 H 0.17823 0.64989 0.41963 0.0
H1011 H 0.14226 0.63033 0.40785 0.0
C1012 C 0.03912 0.58048 0.45303 0.0
C1013 C 0.04206 0.56437 0.45498 0.0
C1014 C 0.05217 0.59732 0.43834 0.0
C1015 C 0.06836 0.59825 0.42554 0.0
C1016 C 0.07147 0.58225 0.42787 0.0
C1017 C 0.05834 0.56538 0.44241 0.0
C1018 C 0.08208 0.61586 0.40964 0.0
C1019 C 0.10285 0.62687 0.41484 0.0
C1020 C 0.0748 0.62193 0.38971 0.0
C1021 C 0.05307 0.61048 0.38297 0.0
C1022 C 0.04327 0.59001 0.37831 0.0
C1023 C 0.0227 0.57925 0.37241 0.0
C1024 C 0.01181 0.58883 0.37086 0.0
C1025 C 0.02149 0.60922 0.37515 0.0
C1026 C 0.04204 0.62004 0.38113 0.0
C1027 C 0.15399 0.68257 0.33774 0.0
C1028 C 0.15171 0.69895 0.33317 0.0
C1029 C 0.13998 0.6664 0.3526 0.0
C1030 C 0.12355 0.66637 0.36343 0.0
C1031 C 0.12087 0.68242 0.35834 0.0
C1032 C 0.13485 0.69859 0.34334 0.0
C1033 C 0.10941 0.6497 0.38035 0.0
C1034 C 0.08856 0.63887 0.3754 0.0
C1035 C 0.11659 0.64386 0.40064 0.0
C1036 C 0.1382 0.65554 0.40785 0.0
C1037 C 0.14778 0.6761 0.41189 0.0
C1038 C 0.16819 0.68707 0.41845 0.0
C1039 C 0.17916 0.67763 0.42121 0.0
C1040 C 0.16972 0.65718 0.41747 0.0
C1041 C 0.14931 0.64614 0.41087 0.0
H1042 H 0.19496 0.68615 0.42629 0.0
H1043 H 0.99588 0.58047 0.36629 0.0
H1044 H 0.47049 0.03305 0.9006 0.0
H1045 H 0.46008 0.05122 0.87388 0.0
H1046 H 0.45849 0.08359 0.93454 0.0
H1047 H 0.46757 0.06453 0.9617 0.0
H1048 H 0.42721 0.07363 0.9072 0.0
H1049 H 0.49933 0.10354 0.89197 0.0
H1050 H 0.53031 0.10379 0.88055 0.0
H1051 H 0.50531 0.08115 0.81106 0.0
H1052 H 0.47408 0.0805 0.82218 0.0
H1053 H 0.43725 0.15941 0.84722 0.0
H1054 H 0.44133 0.13529 0.87158 0.0
H1055 H 0.43721 0.10391 0.80712 0.0
H1056 H 0.43359 0.12832 0.78252 0.0
H1057 H 0.46929 0.11098 0.83415 0.0
H1058 H 0.39835 0.08351 0.84814 0.0
H1059 H 0.36763 0.08382 0.85911 0.0
H1060 H 0.39043 0.10222 0.93056 0.0
H1061 H 0.42144 0.10231 0.91992 0.0
C1062 C 0.46761 0.04378 0.90839 0.0
C1063 C 0.46997 0.04734 0.93337 0.0
C1064 C 0.46191 0.05437 0.89298 0.0
C1065 C 0.45885 0.06904 0.9021 0.0
C1066 C 0.46087 0.07242 0.92705 0.0
C1067 C 0.46631 0.06166 0.94253 0.0
C1068 C 0.45371 0.08103 0.88571 0.0
C1069 C 0.43654 0.08196 0.89137 0.0
C1070 C 0.46552 0.09143 0.86462 0.0
C1071 C 0.48429 0.09178 0.858 0.0
C1072 C 0.50038 0.09847 0.87433 0.0
C1073 C 0.51799 0.0987 0.8679 0.0
C1074 C 0.51974 0.09245 0.84511 0.0
C1075 C 0.50391 0.08596 0.82871 0.0
C1076 C 0.48626 0.08566 0.83506 0.0
C1077 C 0.43718 0.14736 0.83824 0.0
C1078 C 0.43517 0.14579 0.81295 0.0
C1079 C 0.43932 0.13348 0.8522 0.0
C1080 C 0.43939 0.11772 0.84118 0.0
C1081 C 0.4371 0.11593 0.81598 0.0
C1082 C 0.43491 0.12979 0.80199 0.0
C1083 C 0.443 0.1038 0.85586 0.0
C1084 C 0.45988 0.10251 0.84988 0.0
C1085 C 0.43096 0.09313 0.87666 0.0
C1086 C 0.41231 0.09307 0.88315 0.0
C1087 C 0.39689 0.08778 0.86613 0.0
C1088 C 0.37941 0.08785 0.8723 0.0
C1089 C 0.3771 0.09308 0.8955 0.0
C1090 C 0.39225 0.0982 0.91259 0.0
C1091 C 0.40977 0.09816 0.90651 0.0
H1092 H 0.36355 0.09312 0.90024 0.0
H1093 H 0.53338 0.0927 0.8401 0.0
H1094 H 0.40529 0.46509 0.45516 0.0
H1095 H 0.37765 0.4562 0.42718 0.0
H1096 H 0.4179 0.46676 0.3667 0.0
H1097 H 0.44598 0.4768 0.39451 0.0
H1098 H 0.39696 0.48322 0.35689 0.0
H1099 H 0.37996 0.41863 0.38676 0.0
H1100 H 0.37323 0.39228 0.41751 0.0
H1101 H 0.3228 0.39434 0.44615 0.0
H1102 H 0.32939 0.42092 0.41579 0.0
H1103 H 0.31554 0.44338 0.2736 0.0
H1104 H 0.34311 0.44608 0.29843 0.0
H1105 H 0.31143 0.44535 0.36316 0.0
H1106 H 0.28377 0.44247 0.33849 0.0
H1107 H 0.32856 0.42179 0.36816 0.0
H1108 H 0.34813 0.48858 0.33985 0.0
H1109 H 0.35501 0.51463 0.30855 0.0
H1110 H 0.40106 0.50741 0.27603 0.0
H1111 H 0.39423 0.4811 0.30696 0.0
C1112 C 0.40834 0.46567 0.43591 0.0
C1113 C 0.42792 0.47174 0.42712 0.0
C1114 C 0.39241 0.46028 0.41992 0.0
C1115 C 0.39559 0.46051 0.39483 0.0
C1116 C 0.41505 0.46636 0.38599 0.0
C1117 C 0.43105 0.47193 0.40196 0.0
C1118 C 0.37884 0.45558 0.37779 0.0
C1119 C 0.38214 0.46958 0.35909 0.0
C1120 C 0.35936 0.43794 0.38085 0.0
C1121 C 0.35528 0.42189 0.3991 0.0
C1122 C 0.36752 0.41357 0.39972 0.0
C1123 C 0.36372 0.39857 0.41707 0.0
C1124 C 0.34762 0.39167 0.4338 0.0
C1125 C 0.33527 0.39971 0.43319 0.0
C1126 C 0.33902 0.41473 0.41589 0.0
C1127 C 0.31434 0.44351 0.29315 0.0
C1128 C 0.2976 0.44286 0.30413 0.0
C1129 C 0.33012 0.44515 0.30728 0.0
C1130 C 0.32936 0.44608 0.33259 0.0
C1131 C 0.31231 0.44468 0.34365 0.0
C1132 C 0.29661 0.44319 0.32954 0.0
C1133 C 0.34673 0.4495 0.34757 0.0
C1134 C 0.3435 0.43526 0.36585 0.0
C1135 C 0.36632 0.46683 0.34404 0.0
C1136 C 0.37051 0.48272 0.32554 0.0
C1137 C 0.3596 0.49243 0.3259 0.0
C1138 C 0.36351 0.50726 0.30825 0.0
C1139 C 0.37842 0.51263 0.29027 0.0
C1140 C 0.38949 0.50321 0.28994 0.0
C1141 C 0.38561 0.48835 0.30753 0.0
H1142 H 0.38143 0.52412 0.27662 0.0
H1143 H 0.3447 0.38005 0.44722 0.0
H1144 H 0.93847 0.4076 0.96248 0.0
H1145 H 0.91825 0.37999 0.93605 0.0
H1146 H 0.94534 0.4199 0.87321 0.0
H1147 H 0.96462 0.4479 0.89956 0.0
H1148 H 0.90681 0.3971 0.86683 0.0
H1149 H 0.95854 0.38489 0.89168 0.0
H1150 H 0.98022 0.38011 0.92038 0.0
H1151 H 0.92741 0.3286 0.95298 0.0
H1152 H 0.90538 0.33323 0.92469 0.0
H1153 H 0.86713 0.31784 0.78424 0.0
H1154 H 0.89159 0.34587 0.8083 0.0
H1155 H 0.86051 0.31231 0.87409 0.0
H1156 H 0.83615 0.2842 0.85019 0.0
H1157 H 0.90286 0.33227 0.87692 0.0
H1158 H 0.85147 0.34638 0.85243 0.0
H1159 H 0.83057 0.35135 0.82267 0.0
H1160 H 0.88457 0.39985 0.7878 0.0
H1161 H 0.90581 0.39498 0.81717 0.0
C1162 C 0.94002 0.41061 0.94305 0.0
C1163 C 0.95323 0.43008 0.93323 0.0
C1164 C 0.92864 0.39469 0.92792 0.0
C1165 C 0.9305 0.39774 0.90258 0.0
C1166 C 0.94371 0.41712 0.89269 0.0
C1167 C 0.95491 0.43311 0.90783 0.0
C1168 C 0.91812 0.38087 0.88645 0.0
C1169 C 0.90627 0.38307 0.86879 0.0
C1170 C 0.91709 0.36239 0.88918 0.0
C1171 C 0.93029 0.35951 0.90619 0.0
C1172 C 0.95154 0.37263 0.90508 0.0
C1173 C 0.96389 0.36993 0.92126 0.0
C1174 C 0.95519 0.35409 0.93853 0.0
C1175 C 0.93412 0.34088 0.93961 0.0
C1176 C 0.92169 0.34351 0.92349 0.0
C1177 C 0.86568 0.31637 0.80385 0.0
C1178 C 0.84968 0.29889 0.81535 0.0
C1179 C 0.87957 0.33241 0.81754 0.0
C1180 C 0.87774 0.33121 0.84296 0.0
C1181 C 0.86216 0.31355 0.8545 0.0
C1182 C 0.84819 0.29757 0.84083 0.0
C1183 C 0.8916 0.34857 0.85755 0.0
C1184 C 0.90364 0.34642 0.8749 0.0
C1185 C 0.89299 0.36715 0.85438 0.0
C1186 C 0.88023 0.37017 0.83683 0.0
C1187 C 0.85889 0.358 0.83829 0.0
C1188 C 0.84699 0.36082 0.82152 0.0
C1189 C 0.85624 0.37587 0.80331 0.0
C1190 C 0.87742 0.38818 0.80188 0.0
C1191 C 0.8894 0.3854 0.8186 0.0
H1192 H 0.847 0.37803 0.79034 0.0
H1193 H 0.96478 0.35203 0.95103 0.0
H1194 H 0.95902 0.50828 0.92772 0.0
H1195 H 0.93768 0.5163 0.90294 0.0
H1196 H 0.94183 0.55674 0.95675 0.0
H1197 H 0.96358 0.54902 0.9813 0.0
H1198 H 0.90137 0.5291 0.9406 0.0
H1199 H 0.96827 0.57636 0.9081 0.0
H1200 H 0.00186 0.58637 0.8908 0.0
H1201 H 0.97325 0.54984 0.82981 0.0
H1202 H 0.93945 0.5393 0.84697 0.0
H1203 H 0.85334 0.56905 0.87115 0.0
H1204 H 0.87778 0.56598 0.89583 0.0
H1205 H 0.88737 0.5359 0.83824 0.0
H1206 H 0.86406 0.54017 0.81279 0.0
H1207 H 0.92191 0.55985 0.85746 0.0
H1208 H 0.85584 0.51039 0.88946 0.0
H1209 H 0.82146 0.49757 0.90647 0.0
H1210 H 0.8472 0.53493 0.96748 0.0
H1211 H 0.88174 0.54817 0.95066 0.0
C1212 C 0.95541 0.51894 0.9341 0.0
C1213 C 0.96275 0.528 0.95634 0.0
C1214 C 0.94328 0.52351 0.92001 0.0
C1215 C 0.93825 0.53713 0.92804 0.0
C1216 C 0.94554 0.54617 0.95031 0.0
C1217 C 0.95791 0.54179 0.96426 0.0
C1218 C 0.92515 0.54173 0.91323 0.0
C1219 C 0.90594 0.53613 0.92257 0.0
C1220 C 0.93098 0.55035 0.88948 0.0
C1221 C 0.95131 0.55691 0.87894 0.0
C1222 C 0.96913 0.57033 0.89109 0.0
C1223 C 0.98821 0.57612 0.8813 0.0
C1224 C 0.98969 0.56871 0.85924 0.0
C1225 C 0.97208 0.55555 0.8469 0.0
C1226 C 0.95296 0.54967 0.85665 0.0
C1227 C 0.86089 0.5621 0.86351 0.0
C1228 C 0.85654 0.55473 0.83996 0.0
C1229 C 0.87468 0.5601 0.87782 0.0
C1230 C 0.88413 0.55033 0.86912 0.0
C1231 C 0.88019 0.54338 0.84545 0.0
C1232 C 0.86663 0.54562 0.83101 0.0
C1233 C 0.89792 0.54711 0.88472 0.0
C1234 C 0.9173 0.55294 0.87554 0.0
C1235 C 0.8921 0.53838 0.9085 0.0
C1236 C 0.87136 0.53043 0.91867 0.0
C1237 C 0.85416 0.51598 0.90641 0.0
C1238 C 0.83465 0.50862 0.91603 0.0
C1239 C 0.83214 0.51547 0.938 0.0
C1240 C 0.84916 0.52966 0.95044 0.0
C1241 C 0.8687 0.53709 0.94088 0.0
H1242 H 0.81703 0.50976 0.94542 0.0
H1243 H 0.00448 0.57321 0.85169 0.0
H1244 H 0.45013 0.94317 0.44672 0.0
H1245 H 0.42188 0.9215 0.42046 0.0
H1246 H 0.39683 0.9587 0.42913 0.0
H1247 H 0.42499 0.98017 0.45579 0.0
H1248 H 0.36754 0.91937 0.43267 0.0
H1249 H 0.42252 0.96245 0.37771 0.0
H1250 H 0.45757 0.97908 0.3612 0.0
H1251 H 0.44908 0.92201 0.3463 0.0
H1252 H 0.41406 0.90501 0.3631 0.0
H1253 H 0.29716 0.87631 0.33708 0.0
H1254 H 0.32516 0.90047 0.36173 0.0
H1255 H 0.35439 0.86683 0.35561 0.0
H1256 H 0.32685 0.84305 0.33031 0.0
H1257 H 0.38152 0.90608 0.34992 0.0
H1258 H 0.32747 0.86302 0.40683 0.0
H1259 H 0.29267 0.84612 0.42422 0.0
H1260 H 0.29958 0.90303 0.43575 0.0
H1261 H 0.33434 0.92027 0.41811 0.0
C1262 C 0.43852 0.94661 0.44298 0.0
C1263 C 0.43963 0.96328 0.45295 0.0
C1264 C 0.42248 0.93433 0.42795 0.0
C1265 C 0.40741 0.93866 0.42255 0.0
C1266 C 0.40834 0.95514 0.43299 0.0
C1267 C 0.42437 0.9674 0.44808 0.0
C1268 C 0.39076 0.92599 0.40594 0.0
C1269 C 0.37057 0.91671 0.41443 0.0
C1270 C 0.39475 0.92225 0.38231 0.0
C1271 C 0.41571 0.93244 0.37184 0.0
C1272 C 0.42816 0.95343 0.37105 0.0
C1273 C 0.44802 0.96293 0.36163 0.0
C1274 C 0.45556 0.95161 0.35275 0.0
C1275 C 0.44322 0.93076 0.35321 0.0
C1276 C 0.42336 0.92119 0.36266 0.0
C1277 C 0.30966 0.87419 0.34075 0.0
C1278 C 0.3097 0.85767 0.33186 0.0
C1279 C 0.32557 0.88791 0.35502 0.0
C1280 C 0.34174 0.8853 0.36078 0.0
C1281 C 0.34203 0.86909 0.35148 0.0
C1282 C 0.32617 0.8554 0.33721 0.0
C1283 C 0.35829 0.89929 0.37673 0.0
C1284 C 0.37847 0.90884 0.3681 0.0
C1285 C 0.35429 0.90326 0.40024 0.0
C1286 C 0.33342 0.89292 0.41091 0.0
C1287 C 0.3215 0.87192 0.4129 0.0
C1288 C 0.3018 0.86229 0.42283 0.0
C1289 C 0.29389 0.87349 0.43102 0.0
C1290 C 0.3057 0.89437 0.42936 0.0
C1291 C 0.32541 0.90408 0.41941 0.0
H1292 H 0.27863 0.866 0.43871 0.0
H1293 H 0.47094 0.95899 0.34547 0.0
H1294 H 0.48161 0.44533 0.90133 0.0
H1295 H 0.4721 0.41712 0.8757 0.0
H1296 H 0.45632 0.37806 0.93932 0.0
H1297 H 0.46512 0.40601 0.96515 0.0
H1298 H 0.48152 0.37466 0.90587 0.0
H1299 H 0.41946 0.37491 0.90664 0.0
H1300 H 0.39868 0.39003 0.90146 0.0
H1301 H 0.41682 0.40368 0.82629 0.0
H1302 H 0.43796 0.38889 0.8311 0.0
H1303 H 0.43673 0.28305 0.84822 0.0
H1304 H 0.44187 0.30992 0.874 0.0
H1305 H 0.44898 0.34663 0.81034 0.0
H1306 H 0.44326 0.31948 0.78447 0.0
H1307 H 0.42795 0.35142 0.8439 0.0
H1308 H 0.49046 0.35268 0.84217 0.0
H1309 H 0.51247 0.33882 0.84624 0.0
H1310 H 0.4954 0.32416 0.92161 0.0
H1311 H 0.47306 0.33769 0.91791 0.0
C1312 C 0.47579 0.43069 0.90993 0.0
C1313 C 0.47412 0.42799 0.93537 0.0
C1314 C 0.47045 0.4146 0.89522 0.0
C1315 C 0.46341 0.39551 0.90563 0.0
C1316 C 0.46176 0.39271 0.93096 0.0
C1317 C 0.46693 0.40875 0.94569 0.0
C1318 C 0.45833 0.37856 0.8901 0.0
C1319 C 0.46961 0.36936 0.89256 0.0
C1320 C 0.44322 0.37213 0.87225 0.0
C1321 C 0.43046 0.38096 0.8693 0.0
C1322 C 0.41916 0.38129 0.88905 0.0
C1323 C 0.40729 0.38977 0.88617 0.0
C1324 C 0.40647 0.39786 0.86358 0.0
C1325 C 0.41749 0.39743 0.84379 0.0
C1326 C 0.4294 0.38899 0.84658 0.0
C1327 C 0.43933 0.29684 0.83976 0.0
C1328 C 0.43979 0.29929 0.81438 0.0
C1329 C 0.44231 0.3122 0.85448 0.0
C1330 C 0.44625 0.33047 0.84411 0.0
C1331 C 0.44604 0.3327 0.81875 0.0
C1332 C 0.44277 0.31721 0.804 0.0
C1333 C 0.45109 0.34739 0.85971 0.0
C1334 C 0.43983 0.35665 0.85724 0.0
C1335 C 0.46642 0.35407 0.87738 0.0
C1336 C 0.47994 0.34603 0.8797 0.0
C1337 C 0.49129 0.34638 0.85957 0.0
C1338 C 0.50384 0.33859 0.86182 0.0
C1339 C 0.50529 0.33057 0.88415 0.0
C1340 C 0.49424 0.33036 0.90431 0.0
C1341 C 0.48164 0.33809 0.90216 0.0
H1342 H 0.51502 0.32455 0.88585 0.0
H1343 H 0.39726 0.40442 0.86138 0.0
H1344 H 0.02145 0.45488 0.40957 0.0
H1345 H 0.04155 0.4485 0.38154 0.0
H1346 H 0.09543 0.48598 0.4223 0.0
H1347 H 0.07583 0.49373 0.4492 0.0
H1348 H 0.10459 0.49411 0.37742 0.0
H1349 H 0.06848 0.43271 0.42501 0.0
H1350 H 0.03845 0.40266 0.44346 0.0
H1351 H 0.01499 0.38241 0.3727 0.0
H1352 H 0.04477 0.4125 0.35382 0.0
H1353 H 0.16712 0.45951 0.33677 0.0
H1354 H 0.14379 0.46348 0.36217 0.0
H1355 H 0.10017 0.44282 0.30489 0.0
H1356 H 0.12383 0.43969 0.27871 0.0
H1357 H 0.08477 0.4256 0.35562 0.0
H1358 H 0.12328 0.48806 0.30909 0.0
H1359 H 0.15494 0.5176 0.29276 0.0
H1360 H 0.17557 0.53512 0.36513 0.0
H1361 H 0.14415 0.50549 0.3819 0.0
C1362 C 0.03762 0.46199 0.41245 0.0
C1363 C 0.04694 0.47484 0.43177 0.0
C1364 C 0.04906 0.45806 0.39657 0.0
C1365 C 0.06998 0.4665 0.39998 0.0
C1366 C 0.0793 0.47922 0.4193 0.0
C1367 C 0.06797 0.48343 0.43492 0.0
C1368 C 0.08238 0.46263 0.38307 0.0
C1369 C 0.1003 0.47909 0.37294 0.0
C1370 C 0.07666 0.44307 0.37671 0.0
C1371 C 0.05874 0.42496 0.38801 0.0
C1372 C 0.05684 0.42193 0.41339 0.0
C1373 C 0.03988 0.40487 0.42392 0.0
C1374 C 0.02479 0.39066 0.40926 0.0
C1375 C 0.02667 0.39345 0.38403 0.0
C1376 C 0.04359 0.41049 0.3734 0.0
C1377 C 0.15269 0.45601 0.32936 0.0
C1378 C 0.14751 0.44952 0.3055 0.0
C1379 C 0.13931 0.45811 0.34403 0.0
C1380 C 0.12037 0.45352 0.3353 0.0
C1381 C 0.11474 0.44636 0.3119 0.0
C1382 C 0.12827 0.44452 0.29703 0.0
C1383 C 0.10689 0.45703 0.35045 0.0
C1384 C 0.08885 0.44056 0.36015 0.0
C1385 C 0.11264 0.47653 0.35678 0.0
C1386 C 0.13145 0.49446 0.34674 0.0
C1387 C 0.13464 0.49812 0.32152 0.0
C1388 C 0.15253 0.51489 0.31218 0.0
C1389 C 0.16728 0.5282 0.3279 0.0
C1390 C 0.16414 0.52479 0.35298 0.0
C1391 C 0.14629 0.50802 0.36241 0.0
H1392 H 0.18112 0.54118 0.32064 0.0
H1393 H 0.01168 0.37747 0.41745 0.0
H1394 H 0.55814 0.06221 0.94367 0.0
H1395 H 0.58766 0.08153 0.91637 0.0
H1396 H 0.60131 0.03502 0.92366 0.0
H1397 H 0.5725 0.01636 0.95235 0.0
H1398 H 0.63488 0.0689 0.9228 0.0
H1399 H 0.57628 0.04058 0.87277 0.0
H1400 H 0.54241 0.03294 0.86005 0.0
H1401 H 0.5656 0.09564 0.8487 0.0
H1402 H 0.59944 0.10364 0.8617 0.0
H1403 H 0.68011 0.11884 0.79306 0.0
H1404 H 0.6528 0.09301 0.81939 0.0
H1405 H 0.68063 0.12917 0.88135 0.0
H1406 H 0.70834 0.15459 0.85538 0.0
H1407 H 0.62565 0.09552 0.8443 0.0
H1408 H 0.66954 0.10065 0.93248 0.0
H1409 H 0.70286 0.10609 0.94398 0.0
H1410 H 0.70834 0.08496 0.87539 0.0
H1411 H 0.67494 0.07911 0.86361 0.0
C1412 C 0.56761 0.05627 0.93954 0.0
C1413 C 0.56307 0.03779 0.94978 0.0
C1414 C 0.58433 0.06718 0.9238 0.0
C1415 C 0.59642 0.05949 0.91741 0.0
C1416 C 0.59214 0.0412 0.92815 0.0
C1417 C 0.57567 0.03051 0.94438 0.0
C1418 C 0.61341 0.07051 0.89943 0.0
C1419 C 0.63284 0.07464 0.90559 0.0
C1420 C 0.6107 0.07757 0.87665 0.0
C1421 C 0.59038 0.07271 0.86833 0.0
C1422 C 0.57411 0.05273 0.86765 0.0
C1423 C 0.5549 0.04833 0.8604 0.0
C1424 C 0.55181 0.06378 0.8536 0.0
C1425 C 0.56795 0.08366 0.85397 0.0
C1426 C 0.58716 0.08814 0.86125 0.0
C1427 C 0.68064 0.12108 0.81238 0.0
C1428 C 0.69636 0.13881 0.82212 0.0
C1429 C 0.66495 0.10638 0.82736 0.0
C1430 C 0.66472 0.10908 0.85237 0.0
C1431 C 0.68062 0.12658 0.86219 0.0
C1432 C 0.69633 0.14123 0.84726 0.0
C1433 C 0.64719 0.09437 0.86797 0.0
C1434 C 0.62765 0.08956 0.86137 0.0
C1435 C 0.64975 0.08631 0.89004 0.0
C1436 C 0.66978 0.0896 0.89709 0.0
C1437 C 0.6778 0.09707 0.91989 0.0
C1438 C 0.69672 0.10024 0.92645 0.0
C1439 C 0.70773 0.09592 0.9104 0.0
C1440 C 0.69983 0.08836 0.88778 0.0
C1441 C 0.68092 0.08515 0.88114 0.0
H1442 H 0.72238 0.0984 0.91551 0.0
H1443 H 0.53692 0.06035 0.84802 0.0
H1444 H 0.5578 0.58181 0.45732 0.0
H1445 H 0.56488 0.61058 0.4308 0.0
H1446 H 0.50139 0.58046 0.41259 0.0
H1447 H 0.49445 0.55164 0.43888 0.0
H1448 H 0.52574 0.59756 0.37274 0.0
H1449 H 0.52071 0.61687 0.4526 0.0
H1450 H 0.52889 0.62281 0.49586 0.0
H1451 H 0.59101 0.66684 0.47669 0.0
H1452 H 0.58328 0.6609 0.43328 0.0
H1453 H 0.5208 0.68051 0.32736 0.0
H1454 H 0.51628 0.65203 0.35191 0.0
H1455 H 0.58108 0.68226 0.36139 0.0
H1456 H 0.58592 0.71055 0.33598 0.0
H1457 H 0.55746 0.66552 0.40501 0.0
H1458 H 0.56166 0.6465 0.3246 0.0
H1459 H 0.5528 0.64025 0.28154 0.0
H1460 H 0.49122 0.59559 0.30211 0.0
H1461 H 0.49964 0.60179 0.34532 0.0
C1462 C 0.54547 0.58145 0.44755 0.0
C1463 C 0.52564 0.56473 0.44992 0.0
C1464 C 0.54946 0.59781 0.43253 0.0
C1465 C 0.53362 0.59769 0.41988 0.0
C1466 C 0.51382 0.58083 0.42216 0.0
C1467 C 0.50984 0.56448 0.43717 0.0
C1468 C 0.53763 0.61519 0.4044 0.0
C1469 C 0.53247 0.61238 0.37985 0.0
C1470 C 0.5468 0.63459 0.41361 0.0
C1471 C 0.55146 0.63829 0.43969 0.0
C1472 C 0.53616 0.6277 0.45761 0.0
C1473 C 0.5407 0.63108 0.48216 0.0
C1474 C 0.56047 0.64516 0.48902 0.0
C1475 C 0.57571 0.65591 0.47134 0.0
C1476 C 0.57126 0.65255 0.44676 0.0
C1477 C 0.53416 0.68104 0.33429 0.0
C1478 C 0.55375 0.69786 0.32955 0.0
C1479 C 0.53151 0.66477 0.34845 0.0
C1480 C 0.54836 0.66505 0.35832 0.0
C1481 C 0.5679 0.68183 0.35394 0.0
C1482 C 0.5706 0.69803 0.33953 0.0
C1483 C 0.54547 0.64783 0.37343 0.0
C1484 C 0.55083 0.65071 0.3979 0.0
C1485 C 0.53637 0.62848 0.36419 0.0
C1486 C 0.53124 0.62476 0.33821 0.0
C1487 C 0.54618 0.63548 0.31995 0.0
C1488 C 0.54124 0.63192 0.2955 0.0
C1489 C 0.52144 0.61756 0.28909 0.0
C1490 C 0.50654 0.60672 0.30711 0.0
C1491 C 0.51139 0.61025 0.33158 0.0
H1492 H 0.51764 0.61479 0.27017 0.0
H1493 H 0.56395 0.64777 0.50804 0.0
H1494 H 0.48452 0.04738 0.59313 0.0
H1495 H 0.47523 0.06744 0.61618 0.0
H1496 H 0.45363 0.08143 0.55099 0.0
H1497 H 0.4627 0.06119 0.52778 0.0
H1498 H 0.47726 0.11442 0.57669 0.0
H1499 H 0.42021 0.04808 0.59328 0.0
H1500 H 0.40311 0.01246 0.60613 0.0
H1501 H 0.42858 0.02859 0.67692 0.0
H1502 H 0.44607 0.06433 0.66438 0.0
H1503 H 0.43185 0.15982 0.63697 0.0
H1504 H 0.4366 0.13729 0.61243 0.0
H1505 H 0.45577 0.11822 0.67569 0.0
H1506 H 0.45008 0.13995 0.70057 0.0
H1507 H 0.43182 0.08719 0.6496 0.0
H1508 H 0.49027 0.153 0.63295 0.0
H1509 H 0.50826 0.18876 0.6205 0.0
H1510 H 0.48114 0.17382 0.5504 0.0
H1511 H 0.46277 0.13795 0.56255 0.0
C1512 C 0.47754 0.05449 0.58372 0.0
C1513 C 0.47428 0.0526 0.55861 0.0
C1514 C 0.47227 0.066 0.59693 0.0
C1515 C 0.46353 0.07576 0.58535 0.0
C1516 C 0.46036 0.07402 0.56028 0.0
C1517 C 0.46562 0.06251 0.54704 0.0
C1518 C 0.45813 0.08813 0.59935 0.0
C1519 C 0.46706 0.1084 0.5924 0.0
C1520 C 0.4452 0.08037 0.62018 0.0
C1521 C 0.43459 0.05889 0.62782 0.0
C1522 C 0.42228 0.04404 0.61153 0.0
C1523 C 0.4125 0.02382 0.61877 0.0
C1524 C 0.41479 0.01826 0.64231 0.0
C1525 C 0.42683 0.03292 0.65869 0.0
C1526 C 0.43667 0.05316 0.65153 0.0
C1527 C 0.43677 0.15062 0.64576 0.0
C1528 C 0.44071 0.15182 0.67075 0.0
C1529 C 0.43971 0.1379 0.63163 0.0
C1530 C 0.44688 0.12631 0.64213 0.0
C1531 C 0.45034 0.12711 0.66715 0.0
C1532 C 0.44728 0.1397 0.68132 0.0
C1533 C 0.45107 0.11354 0.62705 0.0
C1534 C 0.44192 0.0932 0.6338 0.0
C1535 C 0.4639 0.12126 0.60612 0.0
C1536 C 0.47498 0.14281 0.59875 0.0
C1537 C 0.48802 0.15735 0.61494 0.0
C1538 C 0.49831 0.17764 0.60793 0.0
C1539 C 0.4958 0.18356 0.5847 0.0
C1540 C 0.48304 0.1692 0.56841 0.0
C1541 C 0.4727 0.14889 0.57534 0.0
H1542 H 0.50378 0.19928 0.5793 0.0
H1543 H 0.40721 0.0026 0.64788 0.0
H1544 H 0.44954 0.50764 0.05548 0.0
H1545 H 0.42015 0.50048 0.08062 0.0
H1546 H 0.3914 0.43766 0.06696 0.0
H1547 H 0.42074 0.445 0.04132 0.0
H1548 H 0.36479 0.44954 0.06287 0.0
H1549 H 0.413 0.45556 0.12122 0.0
H1550 H 0.44633 0.47132 0.14084 0.0
H1551 H 0.44199 0.52188 0.15732 0.0
H1552 H 0.40876 0.50656 0.13744 0.0
H1553 H 0.28918 0.4202 0.15691 0.0
H1554 H 0.31746 0.424 0.13242 0.0
H1555 H 0.34858 0.48806 0.13693 0.0
H1556 H 0.3202 0.48449 0.16079 0.0
H1557 H 0.37348 0.47314 0.14685 0.0
H1558 H 0.3259 0.46735 0.0862 0.0
H1559 H 0.29259 0.45122 0.06646 0.0
H1560 H 0.29572 0.39923 0.05494 0.0
H1561 H 0.32893 0.41496 0.07494 0.0
C1562 C 0.43692 0.49233 0.05799 0.0
C1563 C 0.43729 0.4768 0.04683 0.0
C1564 C 0.42022 0.48823 0.07237 0.0
C1565 C 0.40371 0.46849 0.07596 0.0
C1566 C 0.40401 0.45297 0.06451 0.0
C1567 C 0.42072 0.45711 0.05003 0.0
C1568 C 0.38608 0.46419 0.09143 0.0
C1569 C 0.36664 0.45439 0.08138 0.0
C1570 C 0.38854 0.47078 0.11546 0.0
C1571 C 0.40845 0.47997 0.12766 0.0
C1572 C 0.41921 0.4701 0.12887 0.0
C1573 C 0.43808 0.47895 0.14006 0.0
C1574 C 0.44629 0.49761 0.15028 0.0
C1575 C 0.43561 0.50743 0.14938 0.0
C1576 C 0.41675 0.49866 0.13817 0.0
C1577 C 0.30191 0.43512 0.15244 0.0
C1578 C 0.30239 0.45204 0.16086 0.0
C1579 C 0.31809 0.43724 0.13855 0.0
C1580 C 0.33507 0.45631 0.13285 0.0
C1581 C 0.33566 0.47321 0.14127 0.0
C1582 C 0.31944 0.47111 0.155 0.0
C1583 C 0.3523 0.45875 0.11816 0.0
C1584 C 0.37165 0.46817 0.1284 0.0
C1585 C 0.34973 0.45169 0.09439 0.0
C1586 C 0.32979 0.44224 0.08232 0.0
C1587 C 0.3194 0.45241 0.07966 0.0
C1588 C 0.30055 0.44335 0.06838 0.0
C1589 C 0.29202 0.42419 0.05952 0.0
C1590 C 0.30233 0.41406 0.06186 0.0
C1591 C 0.32117 0.42304 0.07315 0.0
H1592 H 0.27743 0.4172 0.05079 0.0
H1593 H 0.4609 0.50443 0.15893 0.0
H1594 H 0.93513 0.44522 0.55246 0.0
H1595 H 0.91157 0.41621 0.57859 0.0
H1596 H 0.94919 0.39133 0.56932 0.0
H1597 H 0.97239 0.42012 0.54249 0.0
H1598 H 0.9101 0.36294 0.56714 0.0
H1599 H 0.95103 0.4153 0.62086 0.0
H1600 H 0.96697 0.44915 0.63667 0.0
H1601 H 0.908 0.43973 0.6516 0.0
H1602 H 0.89169 0.40592 0.63551 0.0
H1603 H 0.86718 0.29277 0.66748 0.0
H1604 H 0.8909 0.32083 0.64047 0.0
H1605 H 0.85239 0.34514 0.64376 0.0
H1606 H 0.82841 0.31697 0.67042 0.0
H1607 H 0.89272 0.37367 0.64951 0.0
H1608 H 0.85213 0.32121 0.59473 0.0
H1609 H 0.83675 0.28744 0.57883 0.0
H1610 H 0.89616 0.29711 0.56658 0.0
H1611 H 0.91189 0.33085 0.58273 0.0
C1612 C 0.93821 0.43345 0.55598 0.0
C1613 C 0.95553 0.43482 0.54586 0.0
C1614 C 0.92487 0.41699 0.57096 0.0
C1615 C 0.92884 0.40179 0.57627 0.0
C1616 C 0.94591 0.40293 0.56556 0.0
C1617 C 0.95916 0.41934 0.55039 0.0
C1618 C 0.91527 0.38484 0.59322 0.0
C1619 C 0.90654 0.36528 0.58528 0.0
C1620 C 0.91038 0.38791 0.61675 0.0
C1621 C 0.92014 0.40813 0.62678 0.0
C1622 C 0.94146 0.42049 0.62738 0.0
C1623 C 0.95056 0.43967 0.6364 0.0
C1624 C 0.93851 0.4466 0.64509 0.0
C1625 C 0.91732 0.43434 0.64484 0.0
C1626 C 0.90814 0.41517 0.63579 0.0
C1627 C 0.86365 0.30398 0.66227 0.0
C1628 C 0.84585 0.30259 0.67106 0.0
C1629 C 0.87725 0.32003 0.64691 0.0
C1630 C 0.8733 0.33496 0.63999 0.0
C1631 C 0.85573 0.33378 0.64895 0.0
C1632 C 0.84208 0.31771 0.66426 0.0
C1633 C 0.88748 0.35183 0.62335 0.0
C1634 C 0.89635 0.37136 0.63139 0.0
C1635 C 0.89261 0.34873 0.59999 0.0
C1636 C 0.88318 0.32848 0.59017 0.0
C1637 C 0.86191 0.31608 0.58883 0.0
C1638 C 0.85313 0.29695 0.57974 0.0
C1639 C 0.86547 0.29011 0.57176 0.0
C1640 C 0.88662 0.30241 0.5728 0.0
C1641 C 0.89547 0.32155 0.5819 0.0
H1642 H 0.85864 0.2753 0.56473 0.0
H1643 H 0.94558 0.46146 0.65206 0.0
H1644 H 0.54272 0.94824 0.03589 0.0
H1645 H 0.55314 0.92931 0.06141 0.0
H1646 H 0.53117 0.94311 0.12503 0.0
H1647 H 0.52032 0.96175 0.09964 0.0
H1648 H 0.56893 0.94712 0.13154 0.0
H1649 H 0.50268 0.89881 0.10197 0.0
H1650 H 0.47725 0.8817 0.07041 0.0
H1651 H 0.51507 0.86346 0.03791 0.0
H1652 H 0.54087 0.88072 0.06911 0.0
H1653 H 0.56157 0.8723 0.21474 0.0
H1654 H 0.55696 0.89559 0.18916 0.0
H1655 H 0.57038 0.87389 0.1254 0.0
H1656 H 0.57427 0.85013 0.15093 0.0
H1657 H 0.53809 0.87482 0.11828 0.0
H1658 H 0.60398 0.92178 0.14815 0.0
H1659 H 0.62995 0.93916 0.17909 0.0
H1660 H 0.59417 0.96032 0.21019 0.0
H1661 H 0.56785 0.94284 0.17962 0.0
C1662 C 0.53997 0.94715 0.05529 0.0
C1663 C 0.53055 0.9564 0.0657 0.0
C1664 C 0.54605 0.93643 0.06985 0.0
C1665 C 0.54278 0.93472 0.09506 0.0
C1666 C 0.53388 0.94433 0.1056 0.0
C1667 C 0.52774 0.95501 0.09106 0.0
C1668 C 0.54798 0.92228 0.11035 0.0
C1669 C 0.56209 0.93127 0.12885 0.0
C1670 C 0.53936 0.90173 0.10639 0.0
C1671 C 0.52379 0.89123 0.08773 0.0
C1672 C 0.50564 0.89128 0.08798 0.0
C1673 C 0.49115 0.88154 0.07018 0.0
C1674 C 0.49456 0.87155 0.05213 0.0
C1675 C 0.51246 0.87123 0.05189 0.0
C1676 C 0.52701 0.88098 0.06963 0.0
C1677 C 0.56385 0.87278 0.19529 0.0
C1678 C 0.56823 0.85946 0.18474 0.0
C1679 C 0.56128 0.88612 0.18068 0.0
C1680 C 0.5635 0.88664 0.15533 0.0
C1681 C 0.56853 0.87373 0.14489 0.0
C1682 C 0.57077 0.8602 0.15945 0.0
C1683 C 0.55923 0.89962 0.13955 0.0
C1684 C 0.54516 0.89071 0.12095 0.0
C1685 C 0.56801 0.92026 0.14336 0.0
C1686 C 0.58386 0.93085 0.16171 0.0
C1687 C 0.60158 0.93002 0.16169 0.0
C1688 C 0.61638 0.93991 0.17915 0.0
C1689 C 0.61369 0.9508 0.19663 0.0
C1690 C 0.59622 0.95186 0.19665 0.0
C1691 C 0.58137 0.94199 0.17925 0.0
H1692 H 0.62516 0.95845 0.21013 0.0
H1693 H 0.48332 0.86401 0.03836 0.0
H1694 H 0.58232 0.50759 0.55306 0.0
H1695 H 0.60913 0.51466 0.58146 0.0
H1696 H 0.59537 0.55294 0.62026 0.0
H1697 H 0.5694 0.5471 0.59077 0.0
H1698 H 0.63437 0.56952 0.61768 0.0
H1699 H 0.57997 0.50454 0.64181 0.0
H1700 H 0.55264 0.46938 0.63729 0.0
H1701 H 0.59646 0.45534 0.61388 0.0
H1702 H 0.62405 0.4905 0.6179 0.0
H1703 H 0.69078 0.5658 0.72104 0.0
H1704 H 0.66305 0.56183 0.69554 0.0
H1705 H 0.68087 0.53621 0.6404 0.0
H1706 H 0.70914 0.54095 0.66504 0.0
H1707 H 0.63803 0.51337 0.65526 0.0
H1708 H 0.69203 0.58057 0.62985 0.0
H1709 H 0.71823 0.61569 0.63704 0.0
H1710 H 0.67279 0.62493 0.66721 0.0
H1711 H 0.64635 0.58976 0.66051 0.0
C1712 C 0.58516 0.51781 0.56733 0.0
C1713 C 0.5736 0.52675 0.56953 0.0
C1714 C 0.60033 0.52158 0.58386 0.0
C1715 C 0.604 0.53398 0.60336 0.0
C1716 C 0.59272 0.54318 0.60548 0.0
C1717 C 0.57771 0.53964 0.58872 0.0
C1718 C 0.61977 0.53745 0.6213 0.0
C1719 C 0.63493 0.5572 0.62621 0.0
C1720 C 0.62062 0.52142 0.63243 0.0
C1721 C 0.60407 0.50022 0.62998 0.0
C1722 C 0.58377 0.494 0.63552 0.0
C1723 C 0.56823 0.47405 0.63308 0.0
C1724 C 0.5728 0.46014 0.62526 0.0
C1725 C 0.59294 0.46614 0.61991 0.0
C1726 C 0.60854 0.48607 0.6223 0.0
C1727 C 0.68906 0.55965 0.70331 0.0
C1728 C 0.70218 0.55357 0.69522 0.0
C1729 C 0.67311 0.55728 0.68886 0.0
C1730 C 0.66992 0.54864 0.6662 0.0
C1731 C 0.68302 0.54274 0.65796 0.0
C1732 C 0.6991 0.54536 0.67218 0.0
C1733 C 0.65268 0.54533 0.6511 0.0
C1734 C 0.63725 0.5256 0.64684 0.0
C1735 C 0.65138 0.56134 0.641 0.0
C1736 C 0.66726 0.58248 0.64495 0.0
C1737 C 0.68766 0.59004 0.63824 0.0
C1738 C 0.70254 0.60996 0.64217 0.0
C1739 C 0.69719 0.62251 0.65265 0.0
C1740 C 0.67692 0.61518 0.65914 0.0
C1741 C 0.66198 0.59526 0.65526 0.0
H1742 H 0.70873 0.63794 0.65567 0.0
H1743 H 0.56075 0.4447 0.6234 0.0
H1744 H 0.02771 0.57915 0.07945 0.0
H1745 H 0.04864 0.60653 0.10644 0.0
H1746 H 0.10041 0.6018 0.08996 0.0
H1747 H 0.07961 0.57449 0.06297 0.0
H1748 H 0.09456 0.60438 0.13994 0.0
H1749 H 0.09803 0.63807 0.06359 0.0
H1750 H 0.08356 0.64584 0.02819 0.0
H1751 H 0.05416 0.66585 0.0752 0.0
H1752 H 0.06823 0.65792 0.11094 0.0
H1753 H 0.17631 0.6938 0.1831 0.0
H1754 H 0.15291 0.66621 0.15806 0.0
H1755 H 0.10717 0.68102 0.16877 0.0
H1756 H 0.13075 0.70894 0.19357 0.0
H1757 H 0.10784 0.67262 0.12322 0.0
H1758 H 0.10482 0.64068 0.1994 0.0
H1759 H 0.11813 0.63248 0.23561 0.0
H1760 H 0.14477 0.60836 0.19069 0.0
H1761 H 0.13187 0.6167 0.15416 0.0
C1762 C 0.04354 0.58392 0.08169 0.0
C1763 C 0.05209 0.57479 0.06905 0.0
C1764 C 0.05547 0.59959 0.09699 0.0
C1765 C 0.07608 0.60624 0.10005 0.0
C1766 C 0.08455 0.5969 0.08778 0.0
C1767 C 0.0727 0.58142 0.07228 0.0
C1768 C 0.08893 0.623 0.11595 0.0
C1769 C 0.09766 0.61937 0.13619 0.0
C1770 C 0.09239 0.64235 0.11142 0.0
C1771 C 0.08399 0.64719 0.08995 0.0
C1772 C 0.08833 0.64396 0.0664 0.0
C1773 C 0.08023 0.64842 0.04627 0.0
C1774 C 0.0679 0.65628 0.04945 0.0
C1775 C 0.06368 0.65973 0.07277 0.0
C1776 C 0.07173 0.65527 0.09296 0.0
C1777 C 0.16122 0.6911 0.18024 0.0
C1778 C 0.1553 0.70343 0.19044 0.0
C1779 C 0.14784 0.67531 0.16595 0.0
C1780 C 0.12812 0.67128 0.16188 0.0
C1781 C 0.12228 0.68379 0.17171 0.0
C1782 C 0.13576 0.69974 0.18584 0.0
C1783 C 0.11374 0.65412 0.14718 0.0
C1784 C 0.10469 0.65765 0.12715 0.0
C1785 C 0.10978 0.63459 0.15207 0.0
C1786 C 0.11752 0.62948 0.17401 0.0
C1787 C 0.11364 0.63377 0.19722 0.0
C1788 C 0.1211 0.62907 0.21781 0.0
C1789 C 0.13233 0.61995 0.21545 0.0
C1790 C 0.13609 0.61545 0.19249 0.0
C1791 C 0.12869 0.62014 0.17184 0.0
H1792 H 0.13808 0.61632 0.23141 0.0
H1793 H 0.06164 0.65973 0.03384 0.0
loop_
_geom_bond_atom_site_label_1
_geom_bond_atom_site_label_2
_geom_bond_distance
_geom_bond_site_symmetry_2
_ccdc_geom_bond_type
C0 C1 1.443 . S
C0 N4 1.376 1_556 S
C0 C38 1.389 . S
C1 C0 1.443 . S
C1 C2 1.340 1_556 S
C1 H41 0.951 . S
C2 C1 1.340 1_554 S
C2 C3 1.439 . S
C2 H42 0.950 . S
C3 C2 1.439 . S
C3 N4 1.374 . S
C3 C37 1.395 . S
N4 C0 1.376 1_554 S
N4 C3 1.374 . S
N4 Co5 1.959 1_655 S
Co5 N4 1.959 1_455 S
Co5 N6 2.024 1_455 S
Co5 N11 2.058 1_554 S
Co5 N16 1.966 1_554 S
Co5 N21 2.302 . S
Co5 N27 2.265 1_454 S
N6 Co5 2.024 1_655 S
N6 C7 1.376 . S
N6 C10 1.383 1_655 S
C7 N6 1.376 . S
C7 C8 1.446 . S
C7 C37 1.391 . S
C8 C7 1.446 . S
C8 C9 1.339 1_655 S
C8 H43 0.949 . S
C9 C8 1.339 1_455 S
C9 C10 1.439 . S
C9 H44 0.950 . S
C10 N6 1.383 1_455 S
C10 C9 1.439 . S
C10 C39 1.392 . S
N11 Co5 2.058 1_556 S
N11 C12 1.376 1_556 S
N11 C15 1.374 . S
C12 N11 1.376 1_554 S
C12 C13 1.443 . S
C12 C39 1.389 . S
C13 C12 1.443 . S
C13 C14 1.340 1_554 S
C13 H45 0.951 . S
C14 C13 1.340 1_556 S
C14 C15 1.439 . S
C14 H46 0.950 . S
C15 N11 1.374 . S
C15 C14 1.439 . S
C15 C40 1.395 . S
N16 Co5 1.966 1_556 S
N16 C17 1.376 . S
N16 C20 1.383 1_455 S
C17 N16 1.376 . S
C17 C18 1.446 . S
C17 C40 1.391 . S
C18 C17 1.446 . S
C18 C19 1.339 1_455 S
C18 H47 0.949 . S
C19 C18 1.339 1_655 S
C19 C20 1.439 . S
C19 H48 0.950 . S
C20 N16 1.383 1_655 S
C20 C19 1.439 . S
C20 C38 1.392 . S
N21 Co5 2.302 . S
N21 C24 1.332 . S
N21 C26 1.332 . S
C22 C23 1.386 . S
C22 C25 1.388 . S
C23 C22 1.386 . S
C23 C24 1.382 . S
C23 H49 0.950 . S
C24 N21 1.332 . S
C24 C23 1.382 . S
C24 H35 0.952 1_554 S
C25 C22 1.388 . S
C25 C26 1.382 . S
C25 H50 0.950 . S
C26 N21 1.332 . S
C26 C25 1.382 . S
C26 H36 0.948 . S
N27 Co5 2.265 1_656 S
N27 C31 1.332 . S
N27 C32 1.332 . S
C28 C29 1.388 . S
C28 C32 1.382 . S
C28 H51 0.950 . S
C29 C28 1.388 . S
C29 C30 1.386 . S
C30 C29 1.386 . S
C30 C31 1.382 . S
C30 H52 0.950 . S
C31 N27 1.332 . S
C31 C30 1.382 . S
C31 H33 0.952 1_556 S
C32 N27 1.332 . S
C32 C28 1.382 . S
C32 H34 0.948 . S
H33 C31 0.952 1_554 S
H34 C32 0.948 . S
H35 C24 0.952 1_556 S
H36 C26 0.948 . S
C37 C3 1.395 . S
C37 C7 1.391 . S
C38 C0 1.389 . S
C38 C20 1.392 . S
C39 C10 1.392 . S
C39 C12 1.389 . S
C40 C15 1.395 . S
C40 C17 1.391 . S
H41 C1 0.951 . S
H42 C2 0.950 . S
H43 C8 0.949 . S
H44 C9 0.950 . S
H45 C13 0.951 . S
H46 C14 0.950 . S
H47 C18 0.949 . S
H48 C19 0.950 . S
H49 C23 0.950 . S
H50 C25 0.950 . S
H51 C28 0.950 . S
H52 C30 0.950 . S
C53 C54 1.443 . S
C53 N57 1.376 1_545 S
C53 C91 1.389 . S
C54 C53 1.443 . S
C54 C55 1.340 1_545 S
C54 H94 0.951 . S
C55 C54 1.340 1_565 S
C55 C56 1.439 . S
C55 H95 0.950 . S
C56 C55 1.439 . S
C56 N57 1.374 . S
C56 C90 1.395 . S
N57 C53 1.376 1_565 S
N57 C56 1.374 . S
N57 Co58 2.008 1_565 S
Co58 N57 2.008 1_545 S
Co58 N59 1.995 1_545 S
Co58 N64 2.008 . S
Co58 N69 1.995 . S
Co58 N74 2.282 1_545 S
Co58 N80 2.282 . S
N59 Co58 1.995 1_565 S
N59 C60 1.376 . S
N59 C63 1.383 . S
C60 N59 1.376 . S
C60 C61 1.446 . S
C60 C90 1.391 . S
C61 C60 1.446 . S
C61 C62 1.339 . S
C61 H96 0.949 . S
C62 C61 1.339 . S
C62 C63 1.439 . S
C62 H97 0.950 . S
C63 N59 1.383 . S
C63 C62 1.439 . S
C63 C92 1.392 . S
N64 Co58 2.008 . S
N64 C65 1.376 1_545 S
N64 C68 1.374 . S
C65 N64 1.376 1_565 S
C65 C66 1.443 . S
C65 C92 1.389 . S
C66 C65 1.443 . S
C66 C67 1.340 1_565 S
C66 H98 0.951 . S
C67 C66 1.340 1_545 S
C67 C68 1.439 . S
C67 H99 0.950 . S
C68 N64 1.374 . S
C68 C67 1.439 . S
C68 C93 1.395 . S
N69 Co58 1.995 . S
N69 C70 1.376 . S
N69 C73 1.383 . S
C70 N69 1.376 . S
C70 C71 1.446 . S
C70 C93 1.391 . S
C71 C70 1.446 . S
C71 C72 1.339 . S
C71 H100 0.949 . S
C72 C71 1.339 . S
C72 C73 1.439 . S
C72 H101 0.950 . S
C73 N69 1.383 . S
C73 C72 1.439 . S
C73 C91 1.392 . S
N74 Co58 2.282 1_565 S
N74 C77 1.332 . S
N74 C79 1.332 . S
C75 C76 1.386 . S
C75 C78 1.388 . S
C76 C75 1.386 . S
C76 C77 1.382 . S
C76 H102 0.950 . S
C77 N74 1.332 . S
C77 C76 1.382 . S
C77 H88 0.952 1_565 S
C78 C75 1.388 . S
C78 C79 1.382 . S
C78 H103 0.950 . S
C79 N74 1.332 . S
C79 C78 1.382 . S
C79 H89 0.948 . S
N80 Co58 2.282 . S
N80 C84 1.332 . S
N80 C85 1.332 . S
C81 C82 1.388 . S
C81 C85 1.382 . S
C81 H104 0.950 . S
C82 C81 1.388 . S
C82 C83 1.386 . S
C83 C82 1.386 . S
C83 C84 1.382 . S
C83 H105 0.950 . S
C84 N80 1.332 . S
C84 C83 1.382 . S
C84 H86 0.952 1_545 S
C85 N80 1.332 . S
C85 C81 1.382 . S
C85 H87 0.948 . S
H86 C84 0.952 1_565 S
H87 C85 0.948 . S
H88 C77 0.952 1_545 S
H89 C79 0.948 . S
C90 C56 1.395 . S
C90 C60 1.391 . S
C91 C53 1.389 . S
C91 C73 1.392 . S
C92 C63 1.392 . S
C92 C65 1.389 . S
C93 C68 1.395 . S
C93 C70 1.391 . S
H94 C54 0.951 . S
H95 C55 0.950 . S
H96 C61 0.949 . S
H97 C62 0.950 . S
H98 C66 0.951 . S
H99 C67 0.950 . S
H100 C71 0.949 . S
H101 C72 0.950 . S
H102 C76 0.950 . S
H103 C78 0.950 . S
H104 C81 0.950 . S
H105 C83 0.950 . S
C106 C107 1.443 . S
C106 N110 1.376 . S
C106 C144 1.389 . S
C107 C106 1.443 . S
C107 C108 1.340 . S
C107 H147 0.951 . S
C108 C107 1.340 . S
C108 C109 1.439 . S
C108 H148 0.950 . S
C109 C108 1.439 . S
C109 N110 1.374 . S
C109 C143 1.395 . S
N110 C106 1.376 . S
N110 C109 1.374 . S
N110 Co111 1.987 1_556 S
Co111 N110 1.987 1_554 S
Co111 N112 1.990 1_554 S
Co111 N117 2.029 . S
Co111 N122 1.999 . S
Co111 N127 2.295 . S
Co111 N133 2.270 1_554 S
N112 Co111 1.990 1_556 S
N112 C113 1.376 . S
N112 C116 1.383 1_556 S
C113 N112 1.376 . S
C113 C114 1.446 . S
C113 C143 1.391 . S
C114 C113 1.446 . S
C114 C115 1.382 . S
C114 H149 0.949 . S
C115 C114 1.382 . S
C115 C116 1.420 1_556 S
C115 H150 0.930 1_556 S
C116 N112 1.383 1_554 S
C116 C115 1.420 1_554 S
C116 C145 1.392 . S
N117 Co111 2.029 . S
N117 C118 1.376 . S
N117 C121 1.374 . S
C118 N117 1.376 . S
C118 C119 1.443 . S
C118 C145 1.389 . S
C119 C118 1.443 . S
C119 C120 1.340 . S
C119 H151 0.951 . S
C120 C119 1.340 . S
C120 C121 1.439 . S
C120 H152 0.950 . S
C121 N117 1.374 . S
C121 C120 1.439 . S
C121 C146 1.395 . S
N122 Co111 1.999 . S
N122 C123 1.376 . S
N122 C126 1.383 1_554 S
C123 N122 1.376 . S
C123 C124 1.446 . S
C123 C146 1.391 . S
C124 C123 1.446 . S
C124 C125 1.339 . S
C124 H153 0.949 . S
C125 C124 1.339 . S
C125 C126 1.439 1_554 S
C125 H154 0.950 1_554 S
C126 N122 1.383 1_556 S
C126 C125 1.439 1_556 S
C126 C144 1.392 . S
N127 Co111 2.295 . S
N127 C130 1.332 . S
N127 C132 1.332 . S
C128 C129 1.386 . S
C128 C131 1.388 . S
C129 C128 1.386 . S
C129 C130 1.382 . S
C129 H155 0.950 . S
C130 N127 1.332 . S
C130 C129 1.382 . S
C130 H141 0.952 . S
C131 C128 1.388 . S
C131 C132 1.382 . S
C131 H156 0.950 . S
C132 N127 1.332 . S
C132 C131 1.382 . S
C132 H142 0.948 . S
N133 Co111 2.270 1_556 S
N133 C137 1.332 . S
N133 C138 1.332 . S
C134 C135 1.388 . S
C134 C138 1.382 . S
C134 H157 0.950 . S
C135 C134 1.388 . S
C135 C136 1.386 . S
C136 C135 1.386 . S
C136 C137 1.382 . S
C136 H158 0.950 . S
C137 N133 1.332 . S
C137 C136 1.382 . S
C137 H139 0.952 . S
C138 N133 1.332 . S
C138 C134 1.382 . S
C138 H140 0.986 . S
H139 C137 0.952 . S
H140 C138 0.986 . S
H141 C130 0.952 . S
H142 C132 0.948 . S
C143 C109 1.395 . S
C143 C113 1.391 . S
C144 C106 1.389 . S
C144 C126 1.392 . S
C145 C116 1.392 . S
C145 C118 1.389 . S
C146 C121 1.395 . S
C146 C123 1.391 . S
H147 C107 0.951 . S
H148 C108 0.950 . S
H149 C114 0.949 . S
H150 C115 0.930 1_554 S
H151 C119 0.951 . S
H152 C120 0.950 . S
H153 C124 0.949 . S
H154 C125 0.950 1_556 S
H155 C129 0.950 . S
H156 C131 0.950 . S
H157 C134 0.950 . S
H158 C136 0.950 . S
C159 C160 1.443 . S
C159 N163 1.376 . S
C159 C197 1.389 . S
C160 C159 1.443 . S
C160 C161 1.340 . S
C160 H200 0.951 . S
C161 C160 1.340 . S
C161 C162 1.439 . S
C161 H201 0.950 . S
C162 C161 1.439 . S
C162 N163 1.374 . S
C162 C196 1.395 . S
N163 C159 1.376 . S
N163 C162 1.374 . S
N163 Co164 1.976 1_655 S
Co164 N163 1.976 1_455 S
Co164 N165 1.974 1_455 S
Co164 N170 2.041 . S
Co164 N175 2.017 . S
Co164 N180 2.324 . S
Co164 N186 2.242 1_455 S
N165 Co164 1.974 1_655 S
N165 C166 1.376 . S
N165 C169 1.383 1_655 S
C166 N165 1.376 . S
C166 C167 1.446 . S
C166 C196 1.391 . S
C167 C166 1.446 . S
C167 C168 1.339 1_655 S
C167 H202 0.949 . S
C168 C167 1.339 1_455 S
C168 C169 1.439 . S
C168 H203 0.950 . S
C169 N165 1.383 1_455 S
C169 C168 1.439 . S
C169 C198 1.392 . S
N170 Co164 2.041 . S
N170 C171 1.376 . S
N170 C174 1.374 . S
C171 N170 1.376 . S
C171 C172 1.443 . S
C171 C198 1.389 . S
C172 C171 1.443 . S
C172 C173 1.340 . S
C172 H204 0.951 . S
C173 C172 1.340 . S
C173 C174 1.439 . S
C173 H205 0.950 . S
C174 N170 1.374 . S
C174 C173 1.439 . S
C174 C199 1.395 . S
N175 Co164 2.017 . S
N175 C176 1.376 . S
N175 C179 1.383 1_455 S
C176 N175 1.376 . S
C176 C177 1.446 . S
C176 C199 1.391 . S
C177 C176 1.446 . S
C177 C178 1.339 1_455 S
C177 H206 0.949 . S
C178 C177 1.339 1_655 S
C178 C179 1.439 . S
C178 H207 0.950 . S
C179 N175 1.383 1_655 S
C179 C178 1.439 . S
C179 C197 1.392 . S
N180 Co164 2.324 . S
N180 C183 1.332 . S
N180 C185 1.332 . S
C181 C182 1.386 . S
C181 C184 1.388 . S
C182 C181 1.386 . S
C182 C183 1.382 . S
C182 H208 0.950 . S
C183 N180 1.332 . S
C183 C182 1.382 . S
C183 H194 0.952 . S
C184 C181 1.388 . S
C184 C185 1.382 . S
C184 H209 0.950 . S
C185 N180 1.332 . S
C185 C184 1.382 . S
C185 H195 0.948 . S
N186 Co164 2.242 1_655 S
N186 C190 1.332 . S
N186 C191 1.332 . S
C187 C188 1.388 . S
C187 C191 1.382 . S
C187 H210 0.950 . S
C188 C187 1.388 . S
C188 C189 1.386 . S
C189 C188 1.386 . S
C189 C190 1.382 . S
C189 H211 0.950 . S
C190 N186 1.332 . S
C190 C189 1.382 . S
C190 H192 0.952 . S
C191 N186 1.332 . S
C191 C187 1.382 . S
C191 H193 0.948 . S
H192 C190 0.952 . S
H193 C191 0.948 . S
H194 C183 0.952 . S
H195 C185 0.948 . S
C196 C162 1.395 . S
C196 C166 1.391 . S
C197 C159 1.389 . S
C197 C179 1.392 . S
C198 C169 1.392 . S
C198 C171 1.389 . S
C199 C174 1.395 . S
C199 C176 1.391 . S
H200 C160 0.951 . S
H201 C161 0.950 . S
H202 C167 0.949 . S
H203 C168 0.950 . S
H204 C172 0.951 . S
H205 C173 0.950 . S
H206 C177 0.949 . S
H207 C178 0.950 . S
H208 C182 0.950 . S
H209 C184 0.950 . S
H210 C187 0.950 . S
H211 C189 0.950 . S
C212 C213 1.443 . S
C212 N216 1.376 1_565 S
C212 C250 1.389 . S
C213 C212 1.443 . S
C213 C214 1.340 1_565 S
C213 H253 0.951 . S
C214 C213 1.340 1_545 S
C214 C215 1.439 . S
C214 H254 0.950 . S
C215 C214 1.439 . S
C215 N216 1.374 . S
C215 C249 1.395 . S
N216 C212 1.376 1_545 S
N216 C215 1.374 . S
N216 Co217 2.029 . S
Co217 N216 2.029 . S
Co217 N218 1.998 . S
Co217 N223 1.987 1_544 S
Co217 N228 1.991 1_544 S
Co217 N233 2.272 1_554 S
Co217 N239 2.293 1_545 S
N218 Co217 1.998 . S
N218 C219 1.376 . S
N218 C222 1.383 1_554 S
C219 N218 1.376 . S
C219 C220 1.446 . S
C219 C249 1.391 . S
C220 C219 1.446 . S
C220 C221 1.339 1_554 S
C220 H255 0.949 . S
C221 C220 1.339 1_556 S
C221 C222 1.439 . S
C221 H256 0.950 . S
C222 N218 1.383 1_556 S
C222 C221 1.439 . S
C222 C251 1.392 . S
N223 Co217 1.987 1_566 S
N223 C224 1.376 1_565 S
N223 C227 1.374 . S
C224 N223 1.376 1_545 S
C224 C225 1.443 . S
C224 C251 1.389 . S
C225 C224 1.443 . S
C225 C226 1.340 1_545 S
C225 H257 0.951 . S
C226 C225 1.340 1_565 S
C226 C227 1.439 . S
C226 H258 0.950 . S
C227 N223 1.374 . S
C227 C226 1.439 . S
C227 C252 1.395 . S
N228 Co217 1.991 1_566 S
N228 C229 1.376 . S
N228 C232 1.383 1_556 S
C229 N228 1.376 . S
C229 C230 1.446 . S
C229 C252 1.391 . S
C230 C229 1.446 . S
C230 C231 1.339 1_556 S
C230 H259 0.949 . S
C231 C230 1.339 1_554 S
C231 C232 1.439 . S
C231 H260 0.950 . S
C232 N228 1.383 1_554 S
C232 C231 1.439 . S
C232 C250 1.392 . S
N233 Co217 2.272 1_556 S
N233 C236 1.332 . S
N233 C238 1.332 . S
C234 C235 1.386 . S
C234 C237 1.388 . S
C235 C234 1.386 . S
C235 C236 1.382 . S
C235 H261 0.950 . S
C236 N233 1.332 . S
C236 C235 1.382 . S
C236 H247 0.952 1_545 S
C237 C234 1.388 . S
C237 C238 1.382 . S
C237 H262 0.950 . S
C238 N233 1.332 . S
C238 C237 1.382 . S
C238 H248 0.948 . S
N239 Co217 2.293 1_565 S
N239 C243 1.332 . S
N239 C244 1.332 . S
C240 C241 1.388 . S
C240 C244 1.382 . S
C240 H263 0.950 . S
C241 C240 1.388 . S
C241 C242 1.386 . S
C242 C241 1.386 . S
C242 C243 1.382 . S
C242 H264 0.950 . S
C243 N239 1.332 . S
C243 C242 1.382 . S
C243 H245 0.952 1_565 S
C244 N239 1.332 . S
C244 C240 1.382 . S
C244 H246 0.948 . S
H245 C243 0.952 1_545 S
H246 C244 0.948 . S
H247 C236 0.952 1_565 S
H248 C238 0.948 . S
C249 C215 1.395 . S
C249 C219 1.391 . S
C250 C212 1.389 . S
C250 C232 1.392 . S
C251 C222 1.392 . S
C251 C224 1.389 . S
C252 C227 1.395 . S
C252 C229 1.391 . S
H253 C213 0.951 . S
H254 C214 0.950 . S
H255 C220 0.949 . S
H256 C221 0.950 . S
H257 C225 0.951 . S
H258 C226 0.950 . S
H259 C230 0.949 . S
H260 C231 0.950 . S
H261 C235 0.950 . S
H262 C237 0.950 . S
H263 C240 0.950 . S
H264 C242 0.950 . S
C265 C266 1.443 . S
C265 N269 1.376 . S
C265 C303 1.389 . S
C266 C265 1.443 . S
C266 C267 1.340 . S
C266 H306 0.951 . S
C267 C266 1.340 . S
C267 C268 1.439 . S
C267 H307 0.950 . S
C268 C267 1.439 . S
C268 N269 1.374 . S
C268 C302 1.395 . S
N269 C265 1.376 . S
N269 C268 1.374 . S
N269 Co270 2.008 . S
Co270 N269 2.008 . S
Co270 N271 1.995 . S
Co270 N276 2.008 . S
Co270 N281 1.995 . S
Co270 N286 2.282 . S
Co270 N292 2.282 . S
N271 Co270 1.995 . S
N271 C272 1.376 . S
N271 C275 1.383 . S
C272 N271 1.376 . S
C272 C273 1.446 . S
C272 C302 1.391 . S
C273 C272 1.446 . S
C273 C274 1.339 . S
C273 H308 0.949 . S
C274 C273 1.339 . S
C274 C275 1.439 . S
C274 H309 0.950 . S
C275 N271 1.383 . S
C275 C274 1.439 . S
C275 C304 1.392 . S
N276 Co270 2.008 . S
N276 C277 1.376 . S
N276 C280 1.374 . S
C277 N276 1.376 . S
C277 C278 1.443 . S
C277 C304 1.389 . S
C278 C277 1.443 . S
C278 C279 1.340 . S
C278 H310 0.951 . S
C279 C278 1.340 . S
C279 C280 1.439 . S
C279 H311 0.950 . S
C280 N276 1.374 . S
C280 C279 1.439 . S
C280 C305 1.395 . S
N281 Co270 1.995 . S
N281 C282 1.376 . S
N281 C285 1.383 . S
C282 N281 1.376 . S
C282 C283 1.446 . S
C282 C305 1.391 . S
C283 C282 1.446 . S
C283 C284 1.339 . S
C283 H312 0.949 . S
C284 C283 1.339 . S
C284 C285 1.439 . S
C284 H313 0.950 . S
C285 N281 1.383 . S
C285 C284 1.439 . S
C285 C303 1.392 . S
N286 Co270 2.282 . S
N286 C289 1.332 . S
N286 C291 1.332 . S
C287 C288 1.386 . S
C287 C290 1.388 . S
C288 C287 1.386 . S
C288 C289 1.382 . S
C288 H314 0.950 . S
C289 N286 1.332 . S
C289 C288 1.382 . S
C289 H300 0.952 . S
C290 C287 1.388 . S
C290 C291 1.382 . S
C290 H315 0.950 . S
C291 N286 1.332 . S
C291 C290 1.382 . S
C291 H301 0.948 . S
N292 Co270 2.282 . S
N292 C296 1.332 . S
N292 C297 1.332 . S
C293 C294 1.388 . S
C293 C297 1.382 . S
C293 H316 0.950 . S
C294 C293 1.388 . S
C294 C295 1.386 . S
C295 C294 1.386 . S
C295 C296 1.382 . S
C295 H317 0.950 . S
C296 N292 1.332 . S
C296 C295 1.382 . S
C296 H298 0.952 . S
C297 N292 1.332 . S
C297 C293 1.382 . S
C297 H299 0.948 . S
H298 C296 0.952 . S
H299 C297 0.948 . S
H300 C289 0.952 . S
H301 C291 0.948 . S
C302 C268 1.395 . S
C302 C272 1.391 . S
C303 C265 1.389 . S
C303 C285 1.392 . S
C304 C275 1.392 . S
C304 C277 1.389 . S
C305 C280 1.395 . S
C305 C282 1.391 . S
H306 C266 0.951 . S
H307 C267 0.950 . S
H308 C273 0.949 . S
H309 C274 0.950 . S
H310 C278 0.951 . S
H311 C279 0.950 . S
H312 C283 0.949 . S
H313 C284 0.950 . S
H314 C288 0.950 . S
H315 C290 0.950 . S
H316 C293 0.950 . S
H317 C295 0.950 . S
C318 C319 1.384 . S
C318 C320 1.384 . S
C318 H346 0.931 . S
C319 C318 1.384 . S
C319 C322 1.382 . S
C320 C318 1.384 . S
C320 C321 1.381 . S
C320 H347 0.930 . S
C321 C320 1.381 . S
C321 C323 1.381 . S
C321 C324 1.487 . S
C322 C319 1.382 . S
C322 C323 1.387 . S
C322 H348 0.930 . S
C323 C321 1.381 . S
C323 C322 1.387 . S
C323 H349 0.931 . S
C324 C321 1.487 . S
C324 C331 1.399 . S
C324 N362 1.343 . S
C325 C326 1.384 . S
C325 C327 1.384 . S
C325 H350 0.931 . S
C326 C325 1.384 . S
C326 C329 1.382 . S
C327 C325 1.384 . S
C327 C328 1.381 . S
C327 H351 0.930 . S
C328 C327 1.381 . S
C328 C330 1.381 . S
C328 C331 1.487 . S
C329 C326 1.382 . S
C329 C330 1.387 . S
C329 H352 0.930 . S
C330 C328 1.381 . S
C330 C329 1.387 . S
C330 H353 0.931 . S
C331 C324 1.399 . S
C331 C328 1.487 . S
C331 N363 1.343 . S
C332 C333 1.384 . S
C332 C334 1.384 . S
C332 H354 0.931 . S
C333 C332 1.384 . S
C333 C336 1.382 . S
C334 C332 1.384 . S
C334 C335 1.381 . S
C334 H355 0.930 . S
C335 C334 1.381 . S
C335 C337 1.381 . S
C335 C338 1.487 . S
C336 C333 1.382 . S
C336 C337 1.387 . S
C336 H356 0.930 . S
C337 C335 1.381 . S
C337 C336 1.387 . S
C337 H357 0.931 . S
C338 C335 1.487 . S
C338 C345 1.399 . S
C338 N363 1.343 . S
C339 C340 1.384 . S
C339 C341 1.384 . S
C339 H358 0.931 . S
C340 C339 1.384 . S
C340 C343 1.382 . S
C341 C339 1.384 . S
C341 C342 1.381 . S
C341 H359 0.930 . S
C342 C341 1.381 . S
C342 C344 1.381 . S
C342 C345 1.487 . S
C343 C340 1.382 . S
C343 C344 1.387 . S
C343 H360 0.930 . S
C344 C342 1.381 . S
C344 C343 1.387 . S
C344 H361 0.931 . S
C345 C338 1.399 . S
C345 C342 1.487 . S
C345 N362 1.343 . S
H346 C318 0.931 . S
H347 C320 0.930 . S
H348 C322 0.930 . S
H349 C323 0.931 . S
H350 C325 0.931 . S
H351 C327 0.930 . S
H352 C329 0.930 . S
H353 C330 0.931 . S
H354 C332 0.931 . S
H355 C334 0.930 . S
H356 C336 0.930 . S
H357 C337 0.931 . S
H358 C339 0.931 . S
H359 C341 0.930 . S
H360 C343 0.930 . S
H361 C344 0.931 . S
N362 C324 1.343 . S
N362 C345 1.343 . S
N363 C331 1.343 . S
N363 C338 1.343 . S
C364 C365 1.384 . S
C364 C366 1.384 . S
C364 H392 0.931 . S
C365 C364 1.384 . S
C365 C368 1.382 . S
C366 C364 1.384 . S
C366 C367 1.381 . S
C366 H393 0.930 . S
C367 C366 1.381 . S
C367 C369 1.381 . S
C367 C370 1.487 . S
C368 C365 1.382 . S
C368 C369 1.387 . S
C368 H394 0.930 . S
C369 C367 1.381 . S
C369 C368 1.387 . S
C369 H395 0.931 . S
C370 C367 1.487 . S
C370 C377 1.399 . S
C370 N408 1.343 . S
C371 C372 1.384 . S
C371 C373 1.384 . S
C371 H396 0.931 . S
C372 C371 1.384 . S
C372 C375 1.382 . S
C373 C371 1.384 . S
C373 C374 1.381 . S
C373 H397 0.930 . S
C374 C373 1.381 . S
C374 C376 1.381 . S
C374 C377 1.487 . S
C375 C372 1.382 . S
C375 C376 1.387 . S
C375 H398 0.930 . S
C376 C374 1.381 . S
C376 C375 1.387 . S
C376 H399 0.931 . S
C377 C370 1.399 . S
C377 C374 1.487 . S
C377 N409 1.343 . S
C378 C379 1.384 . S
C378 C380 1.384 . S
C378 H400 0.931 . S
C379 C378 1.384 . S
C379 C382 1.382 . S
C380 C378 1.384 . S
C380 C381 1.381 . S
C380 H401 0.930 . S
C381 C380 1.381 . S
C381 C383 1.381 . S
C381 C384 1.487 . S
C382 C379 1.382 . S
C382 C383 1.387 . S
C382 H402 0.930 . S
C383 C381 1.381 . S
C383 C382 1.387 . S
C383 H403 0.931 . S
C384 C381 1.487 . S
C384 C391 1.399 . S
C384 N409 1.343 . S
C385 C386 1.384 . S
C385 C387 1.384 . S
C385 H404 0.931 . S
C386 C385 1.384 . S
C386 C389 1.382 . S
C387 C385 1.384 . S
C387 C388 1.381 . S
C387 H405 0.930 . S
C388 C387 1.381 . S
C388 C390 1.381 . S
C388 C391 1.487 . S
C389 C386 1.382 . S
C389 C390 1.387 . S
C389 H406 0.930 . S
C390 C388 1.381 . S
C390 C389 1.387 . S
C390 H407 0.931 . S
C391 C384 1.399 . S
C391 C388 1.487 . S
C391 N408 1.343 . S
H392 C364 0.931 . S
H393 C366 0.930 . S
H394 C368 0.930 . S
H395 C369 0.931 . S
H396 C371 0.931 . S
H397 C373 0.930 . S
H398 C375 0.930 . S
H399 C376 0.931 . S
H400 C378 0.931 . S
H401 C380 0.930 . S
H402 C382 0.930 . S
H403 C383 0.931 . S
H404 C385 0.931 . S
H405 C387 0.930 . S
H406 C389 0.930 . S
H407 C390 0.931 . S
N408 C370 1.343 . S
N408 C391 1.343 . S
N409 C377 1.343 . S
N409 C384 1.343 . S
C410 C411 1.384 . S
C410 C412 1.384 . S
C410 H438 0.931 . S
C411 C410 1.384 . S
C411 C414 1.382 . S
C412 C410 1.384 . S
C412 C413 1.381 . S
C412 H439 0.930 . S
C413 C412 1.381 . S
C413 C415 1.381 . S
C413 C416 1.487 . S
C414 C411 1.382 . S
C414 C415 1.387 . S
C414 H440 0.930 . S
C415 C413 1.381 . S
C415 C414 1.387 . S
C415 H441 0.931 . S
C416 C413 1.487 . S
C416 C423 1.399 . S
C416 N454 1.343 . S
C417 C418 1.384 . S
C417 C419 1.384 . S
C417 H442 0.931 . S
C418 C417 1.384 . S
C418 C421 1.382 . S
C419 C417 1.384 . S
C419 C420 1.381 . S
C419 H443 0.930 . S
C420 C419 1.381 . S
C420 C422 1.381 . S
C420 C423 1.487 . S
C421 C418 1.382 . S
C421 C422 1.387 . S
C421 H444 0.930 . S
C422 C420 1.381 . S
C422 C421 1.387 . S
C422 H445 0.931 . S
C423 C416 1.399 . S
C423 C420 1.487 . S
C423 N455 1.343 . S
C424 C425 1.384 . S
C424 C426 1.384 . S
C424 H446 0.931 . S
C425 C424 1.384 . S
C425 C428 1.382 . S
C426 C424 1.384 . S
C426 C427 1.381 . S
C426 H447 0.930 . S
C427 C426 1.381 . S
C427 C429 1.381 . S
C427 C430 1.487 . S
C428 C425 1.382 . S
C428 C429 1.387 . S
C428 H448 0.930 . S
C429 C427 1.381 . S
C429 C428 1.387 . S
C429 H449 0.931 . S
C430 C427 1.487 . S
C430 C437 1.399 . S
C430 N455 1.343 . S
C431 C432 1.384 . S
C431 C433 1.384 . S
C431 H450 0.931 . S
C432 C431 1.384 . S
C432 C435 1.382 . S
C433 C431 1.384 . S
C433 C434 1.381 . S
C433 H451 0.930 . S
C434 C433 1.381 . S
C434 C436 1.381 . S
C434 C437 1.487 . S
C435 C432 1.382 . S
C435 C436 1.387 . S
C435 H452 0.930 . S
C436 C434 1.381 . S
C436 C435 1.387 . S
C436 H453 0.931 . S
C437 C430 1.399 . S
C437 C434 1.487 . S
C437 N454 1.343 . S
H438 C410 0.931 . S
H439 C412 0.930 . S
H440 C414 0.930 . S
H441 C415 0.931 . S
H442 C417 0.931 . S
H443 C419 0.930 . S
H444 C421 0.930 . S
H445 C422 0.931 . S
H446 C424 0.931 . S
H447 C426 0.930 . S
H448 C428 0.930 . S
H449 C429 0.931 . S
H450 C431 0.931 . S
H451 C433 0.930 . S
H452 C435 0.930 . S
H453 C436 0.931 . S
N454 C416 1.343 . S
N454 C437 1.343 . S
N455 C423 1.343 . S
N455 C430 1.343 . S
C456 C457 1.384 . S
C456 C458 1.384 . S
C456 H484 0.931 . S
C457 C456 1.384 . S
C457 C460 1.382 . S
C458 C456 1.384 . S
C458 C459 1.381 . S
C458 H485 0.930 . S
C459 C458 1.381 . S
C459 C461 1.381 . S
C459 C462 1.487 . S
C460 C457 1.382 . S
C460 C461 1.387 . S
C460 H486 0.930 . S
C461 C459 1.381 . S
C461 C460 1.387 . S
C461 H487 0.931 . S
C462 C459 1.487 . S
C462 C469 1.399 . S
C462 N500 1.343 . S
C463 C464 1.384 . S
C463 C465 1.384 . S
C463 H488 0.931 . S
C464 C463 1.384 . S
C464 C467 1.382 . S
C465 C463 1.384 . S
C465 C466 1.381 . S
C465 H489 0.930 . S
C466 C465 1.381 . S
C466 C468 1.381 . S
C466 C469 1.487 . S
C467 C464 1.382 . S
C467 C468 1.387 . S
C467 H490 0.930 . S
C468 C466 1.381 . S
C468 C467 1.387 . S
C468 H491 0.931 . S
C469 C462 1.399 . S
C469 C466 1.487 . S
C469 N501 1.343 . S
C470 C471 1.384 . S
C470 C472 1.384 . S
C470 H492 0.931 . S
C471 C470 1.384 . S
C471 C474 1.382 . S
C472 C470 1.384 . S
C472 C473 1.381 . S
C472 H493 0.930 . S
C473 C472 1.381 . S
C473 C475 1.381 . S
C473 C476 1.487 . S
C474 C471 1.382 . S
C474 C475 1.387 . S
C474 H494 0.930 . S
C475 C473 1.381 . S
C475 C474 1.387 . S
C475 H495 0.931 . S
C476 C473 1.487 . S
C476 C483 1.399 . S
C476 N501 1.343 . S
C477 C478 1.384 . S
C477 C479 1.384 . S
C477 H496 0.931 . S
C478 C477 1.384 . S
C478 C481 1.382 . S
C479 C477 1.384 . S
C479 C480 1.381 . S
C479 H497 0.930 . S
C480 C479 1.381 . S
C480 C482 1.381 . S
C480 C483 1.487 . S
C481 C478 1.382 . S
C481 C482 1.387 . S
C481 H498 0.930 . S
C482 C480 1.381 . S
C482 C481 1.387 . S
C482 H499 0.931 . S
C483 C476 1.399 . S
C483 C480 1.487 . S
C483 N500 1.343 . S
H484 C456 0.931 . S
H485 C458 0.930 . S
H486 C460 0.930 . S
H487 C461 0.931 . S
H488 C463 0.931 . S
H489 C465 0.930 . S
H490 C467 0.930 . S
H491 C468 0.931 . S
H492 C470 0.931 . S
H493 C472 0.930 . S
H494 C474 0.930 . S
H495 C475 0.931 . S
H496 C477 0.931 . S
H497 C479 0.930 . S
H498 C481 0.930 . S
H499 C482 0.931 . S
N500 C462 1.343 . S
N500 C483 1.343 . S
N501 C469 1.343 . S
N501 C476 1.343 . S
C502 C503 1.384 . S
C502 C504 1.384 . S
C502 H530 0.931 . S
C503 C502 1.384 . S
C503 C506 1.382 . S
C504 C502 1.384 . S
C504 C505 1.381 . S
C504 H531 0.930 . S
C505 C504 1.381 . S
C505 C507 1.381 . S
C505 C508 1.487 . S
C506 C503 1.382 . S
C506 C507 1.387 . S
C506 H532 0.930 . S
C507 C505 1.381 . S
C507 C506 1.387 . S
C507 H533 0.931 . S
C508 C505 1.487 . S
C508 C515 1.399 . S
C508 N546 1.343 . S
C509 C510 1.384 . S
C509 C511 1.384 . S
C509 H534 0.931 . S
C510 C509 1.384 . S
C510 C513 1.382 . S
C511 C509 1.384 . S
C511 C512 1.381 . S
C511 H535 0.930 . S
C512 C511 1.381 . S
C512 C514 1.381 . S
C512 C515 1.487 . S
C513 C510 1.382 . S
C513 C514 1.387 . S
C513 H536 0.930 . S
C514 C512 1.381 . S
C514 C513 1.387 . S
C514 H537 0.931 . S
C515 C508 1.399 . S
C515 C512 1.487 . S
C515 N547 1.343 . S
C516 C517 1.384 . S
C516 C518 1.384 . S
C516 H538 0.931 . S
C517 C516 1.384 . S
C517 C520 1.382 . S
C518 C516 1.384 . S
C518 C519 1.381 . S
C518 H539 0.930 . S
C519 C518 1.381 . S
C519 C521 1.381 . S
C519 C522 1.487 . S
C520 C517 1.382 . S
C520 C521 1.387 . S
C520 H540 0.930 . S
C521 C519 1.381 . S
C521 C520 1.387 . S
C521 H541 0.931 . S
C522 C519 1.487 . S
C522 C529 1.399 . S
C522 N547 1.343 . S
C523 C524 1.384 . S
C523 C525 1.384 . S
C523 H542 0.931 . S
C524 C523 1.384 . S
C524 C527 1.382 . S
C525 C523 1.384 . S
C525 C526 1.381 . S
C525 H543 0.930 . S
C526 C525 1.381 . S
C526 C528 1.381 . S
C526 C529 1.487 . S
C527 C524 1.382 . S
C527 C528 1.387 . S
C527 H544 0.930 . S
C528 C526 1.381 . S
C528 C527 1.387 . S
C528 H545 0.931 . S
C529 C522 1.399 . S
C529 C526 1.487 . S
C529 N546 1.343 . S
H530 C502 0.931 . S
H531 C504 0.930 . S
H532 C506 0.930 . S
H533 C507 0.931 . S
H534 C509 0.931 . S
H535 C511 0.930 . S
H536 C513 0.930 . S
H537 C514 0.931 . S
H538 C516 0.931 . S
H539 C518 0.930 . S
H540 C520 0.930 . S
H541 C521 0.931 . S
H542 C523 0.931 . S
H543 C525 0.930 . S
H544 C527 0.930 . S
H545 C528 0.931 . S
N546 C508 1.343 . S
N546 C529 1.343 . S
N547 C515 1.343 . S
N547 C522 1.343 . S
C548 C549 1.384 . S
C548 C550 1.384 . S
C548 H576 0.931 . S
C549 C548 1.384 . S
C549 C552 1.382 . S
C550 C548 1.384 . S
C550 C551 1.381 . S
C550 H577 0.930 . S
C551 C550 1.381 . S
C551 C553 1.381 . S
C551 C554 1.487 . S
C552 C549 1.382 . S
C552 C553 1.387 . S
C552 H578 0.930 . S
C553 C551 1.381 . S
C553 C552 1.387 . S
C553 H579 0.931 . S
C554 C551 1.487 . S
C554 C561 1.399 . S
C554 N592 1.343 . S
C555 C556 1.384 . S
C555 C557 1.384 . S
C555 H580 0.931 . S
C556 C555 1.384 . S
C556 C559 1.382 . S
C557 C555 1.384 . S
C557 C558 1.381 . S
C557 H581 0.930 . S
C558 C557 1.381 . S
C558 C560 1.381 . S
C558 C561 1.487 . S
C559 C556 1.382 . S
C559 C560 1.387 . S
C559 H582 0.930 . S
C560 C558 1.381 . S
C560 C559 1.387 . S
C560 H583 0.931 . S
C561 C554 1.399 . S
C561 C558 1.487 . S
C561 N593 1.343 . S
C562 C563 1.384 . S
C562 C564 1.384 . S
C562 H584 0.931 . S
C563 C562 1.384 . S
C563 C566 1.382 . S
C564 C562 1.384 . S
C564 C565 1.381 . S
C564 H585 0.930 . S
C565 C564 1.381 . S
C565 C567 1.381 . S
C565 C568 1.487 . S
C566 C563 1.382 . S
C566 C567 1.387 . S
C566 H586 0.930 . S
C567 C565 1.381 . S
C567 C566 1.387 . S
C567 H587 0.931 . S
C568 C565 1.487 . S
C568 C575 1.399 . S
C568 N593 1.343 . S
C569 C570 1.384 . S
C569 C571 1.384 . S
C569 H588 0.931 . S
C570 C569 1.384 . S
C570 C573 1.382 . S
C571 C569 1.384 . S
C571 C572 1.381 . S
C571 H589 0.930 . S
C572 C571 1.381 . S
C572 C574 1.381 . S
C572 C575 1.487 . S
C573 C570 1.382 . S
C573 C574 1.387 . S
C573 H590 0.930 . S
C574 C572 1.381 . S
C574 C573 1.387 . S
C574 H591 0.931 . S
C575 C568 1.399 . S
C575 C572 1.487 . S
C575 N592 1.343 . S
H576 C548 0.931 . S
H577 C550 0.930 . S
H578 C552 0.930 . S
H579 C553 0.931 . S
H580 C555 0.931 . S
H581 C557 0.930 . S
H582 C559 0.930 . S
H583 C560 0.931 . S
H584 C562 0.931 . S
H585 C564 0.930 . S
H586 C566 0.930 . S
H587 C567 0.931 . S
H588 C569 0.931 . S
H589 C571 0.930 . S
H590 C573 0.930 . S
H591 C574 0.931 . S
N592 C554 1.343 . S
N592 C575 1.343 . S
N593 C561 1.343 . S
N593 C568 1.343 . S
H594 C612 0.951 . S
H595 C614 0.951 . S
H596 C616 0.950 . S
H597 C617 0.950 . S
H598 C619 0.950 . S
H599 C622 0.950 . S
H600 C623 0.950 . S
H601 C625 0.950 . S
H602 C626 0.950 . S
H603 C627 0.951 . S
H604 C629 0.951 . S
H605 C631 0.950 . S
H606 C632 0.950 . S
H607 C634 0.950 . S
H608 C637 0.950 . S
H609 C638 0.950 . S
H610 C640 0.950 . S
H611 C641 0.950 . S
C612 H594 0.951 . S
C612 C613 1.366 . S
C612 C614 1.388 . S
C613 C612 1.366 . S
C613 C617 1.385 . S
C614 H595 0.951 . S
C614 C612 1.388 . S
C614 C615 1.366 . S
C615 C614 1.366 . S
C615 C616 1.414 . S
C615 C618 1.499 . S
C616 H596 0.950 . S
C616 C615 1.414 . S
C616 C617 1.374 . S
C617 H597 0.950 . S
C617 C613 1.385 . S
C617 C616 1.374 . S
C618 C615 1.499 . S
C618 C619 1.373 . S
C618 C620 1.389 . S
C619 H598 0.950 . S
C619 C618 1.373 . S
C619 C635 1.377 . S
C620 C618 1.389 . S
C620 C621 1.524 . S
C620 C634 1.377 . S
C621 C620 1.524 . S
C621 C622 1.397 . S
C621 C626 1.363 . S
C622 H599 0.950 . S
C622 C621 1.397 . S
C622 C623 1.334 . S
C623 H600 0.950 . S
C623 C622 1.334 . S
C623 C624 1.287 . S
C624 C623 1.287 . S
C624 C625 1.524 . S
C624 H643 0.913 . S
C625 H601 0.950 . S
C625 C624 1.524 . S
C625 C626 1.415 . S
C626 H602 0.950 . S
C626 C621 1.363 . S
C626 C625 1.415 . S
C627 H603 0.951 . S
C627 C628 1.366 . S
C627 C629 1.388 . S
C628 C627 1.366 . S
C628 C632 1.385 . S
C629 H604 0.951 . S
C629 C627 1.388 . S
C629 C630 1.366 . S
C630 C629 1.366 . S
C630 C631 1.414 . S
C630 C633 1.499 . S
C631 H605 0.950 . S
C631 C630 1.414 . S
C631 C632 1.374 . S
C632 H606 0.950 . S
C632 C628 1.385 . S
C632 C631 1.374 . S
C633 C630 1.499 . S
C633 C634 1.373 . S
C633 C635 1.389 . S
C634 H607 0.950 . S
C634 C620 1.377 . S
C634 C633 1.373 . S
C635 C619 1.377 . S
C635 C633 1.389 . S
C635 C636 1.524 . S
C636 C635 1.524 . S
C636 C637 1.397 . S
C636 C641 1.363 . S
C637 H608 0.950 . S
C637 C636 1.397 . S
C637 C638 1.334 . S
C638 H609 0.950 . S
C638 C637 1.334 . S
C638 C639 1.287 . S
C639 C638 1.287 . S
C639 C640 1.524 . S
C639 H642 0.999 . S
C640 H610 0.950 . S
C640 C639 1.524 . S
C640 C641 1.415 . S
C641 H611 0.950 . S
C641 C636 1.363 . S
C641 C640 1.415 . S
H642 C639 0.999 . S
H643 C624 0.913 . S
H644 C662 0.951 . S
H645 C664 0.951 . S
H646 C666 0.950 . S
H647 C667 0.950 . S
H648 C669 0.950 . S
H649 C672 0.950 . S
H650 C673 0.950 . S
H651 C675 0.950 . S
H652 C676 0.950 . S
H653 C677 0.951 . S
H654 C679 0.951 . S
H655 C681 0.950 . S
H656 C682 0.950 . S
H657 C684 0.950 . S
H658 C687 0.950 . S
H659 C688 0.950 . S
H660 C690 0.950 . S
H661 C691 0.950 . S
C662 H644 0.951 . S
C662 C663 1.366 . S
C662 C664 1.388 . S
C663 C662 1.366 . S
C663 C667 1.385 . S
C664 H645 0.951 . S
C664 C662 1.388 . S
C664 C665 1.366 . S
C665 C664 1.366 . S
C665 C666 1.414 . S
C665 C668 1.499 . S
C666 H646 0.950 . S
C666 C665 1.414 . S
C666 C667 1.374 . S
C667 H647 0.950 . S
C667 C663 1.385 . S
C667 C666 1.374 . S
C668 C665 1.499 . S
C668 C669 1.373 . S
C668 C670 1.389 . S
C669 H648 0.950 . S
C669 C668 1.373 . S
C669 C685 1.377 . S
C670 C668 1.389 . S
C670 C671 1.524 . S
C670 C684 1.377 . S
C671 C670 1.524 . S
C671 C672 1.397 . S
C671 C676 1.363 . S
C672 H649 0.950 . S
C672 C671 1.397 . S
C672 C673 1.334 . S
C673 H650 0.950 . S
C673 C672 1.334 . S
C673 C674 1.287 . S
C674 C673 1.287 . S
C674 C675 1.524 . S
C674 H693 0.913 1_545 S
C675 H651 0.950 . S
C675 C674 1.524 . S
C675 C676 1.415 . S
C676 H652 0.950 . S
C676 C671 1.363 . S
C676 C675 1.415 . S
C677 H653 0.951 . S
C677 C678 1.366 . S
C677 C679 1.388 . S
C678 C677 1.366 . S
C678 C682 1.385 . S
C679 H654 0.951 . S
C679 C677 1.388 . S
C679 C680 1.366 . S
C680 C679 1.366 . S
C680 C681 1.414 . S
C680 C683 1.499 . S
C681 H655 0.950 . S
C681 C680 1.414 . S
C681 C682 1.374 . S
C682 H656 0.950 . S
C682 C678 1.385 . S
C682 C681 1.374 . S
C683 C680 1.499 . S
C683 C684 1.373 . S
C683 C685 1.389 . S
C684 H657 0.950 . S
C684 C670 1.377 . S
C684 C683 1.373 . S
C685 C669 1.377 . S
C685 C683 1.389 . S
C685 C686 1.524 . S
C686 C685 1.524 . S
C686 C687 1.397 . S
C686 C691 1.363 . S
C687 H658 0.950 . S
C687 C686 1.397 . S
C687 C688 1.334 . S
C688 H659 0.950 . S
C688 C687 1.334 . S
C688 C689 1.287 . S
C689 C688 1.287 . S
C689 C690 1.524 . S
C689 H692 0.999 . S
C690 H660 0.950 . S
C690 C689 1.524 . S
C690 C691 1.415 . S
C691 H661 0.950 . S
C691 C686 1.363 . S
C691 C690 1.415 . S
H692 C689 0.999 . S
H693 C674 0.913 1_565 S
H694 C712 0.951 . S
H695 C714 0.951 . S
H696 C716 0.950 . S
H697 C717 0.950 . S
H698 C719 0.950 . S
H699 C722 0.950 . S
H700 C723 0.950 . S
H701 C725 0.950 . S
H702 C726 0.950 . S
H703 C727 0.951 . S
H704 C729 0.951 . S
H705 C731 0.950 . S
H706 C732 0.950 . S
H707 C734 0.950 . S
H708 C737 0.950 . S
H709 C738 0.950 . S
H710 C740 0.950 . S
H711 C741 0.950 . S
C712 H694 0.951 . S
C712 C713 1.366 . S
C712 C714 1.388 . S
C713 C712 1.366 . S
C713 C717 1.385 . S
C714 H695 0.951 . S
C714 C712 1.388 . S
C714 C715 1.366 . S
C715 C714 1.366 . S
C715 C716 1.414 . S
C715 C718 1.499 . S
C716 H696 0.950 . S
C716 C715 1.414 . S
C716 C717 1.374 . S
C717 H697 0.950 . S
C717 C713 1.385 . S
C717 C716 1.374 . S
C718 C715 1.499 . S
C718 C719 1.373 . S
C718 C720 1.389 . S
C719 H698 0.950 . S
C719 C718 1.373 . S
C719 C735 1.377 . S
C720 C718 1.389 . S
C720 C721 1.524 . S
C720 C734 1.377 . S
C721 C720 1.524 . S
C721 C722 1.397 . S
C721 C726 1.363 . S
C722 H699 0.950 . S
C722 C721 1.397 . S
C722 C723 1.334 . S
C723 H700 0.950 . S
C723 C722 1.334 . S
C723 C724 1.287 . S
C724 C723 1.287 . S
C724 C725 1.524 . S
C724 H743 0.913 . S
C725 H701 0.950 . S
C725 C724 1.524 . S
C725 C726 1.415 . S
C726 H702 0.950 . S
C726 C721 1.363 . S
C726 C725 1.415 . S
C727 H703 0.951 . S
C727 C728 1.366 . S
C727 C729 1.388 . S
C728 C727 1.366 . S
C728 C732 1.385 . S
C729 H704 0.951 . S
C729 C727 1.388 . S
C729 C730 1.366 . S
C730 C729 1.366 . S
C730 C731 1.414 . S
C730 C733 1.499 . S
C731 H705 0.950 . S
C731 C730 1.414 . S
C731 C732 1.374 . S
C732 H706 0.950 . S
C732 C728 1.385 . S
C732 C731 1.374 . S
C733 C730 1.499 . S
C733 C734 1.373 . S
C733 C735 1.389 . S
C734 H707 0.950 . S
C734 C720 1.377 . S
C734 C733 1.373 . S
C735 C719 1.377 . S
C735 C733 1.389 . S
C735 C736 1.524 . S
C736 C735 1.524 . S
C736 C737 1.397 . S
C736 C741 1.363 . S
C737 H708 0.950 . S
C737 C736 1.397 . S
C737 C738 1.334 . S
C738 H709 0.950 . S
C738 C737 1.334 . S
C738 C739 1.287 . S
C739 C738 1.287 . S
C739 C740 1.524 . S
C739 H742 0.999 . S
C740 H710 0.950 . S
C740 C739 1.524 . S
C740 C741 1.415 . S
C741 H711 0.950 . S
C741 C736 1.363 . S
C741 C740 1.415 . S
H742 C739 0.999 . S
H743 C724 0.913 . S
H744 C762 0.951 . S
H745 C764 0.951 . S
H746 C766 0.950 . S
H747 C767 0.950 . S
H748 C769 0.950 . S
H749 C772 0.950 . S
H750 C773 0.950 . S
H751 C775 0.950 . S
H752 C776 0.950 . S
H753 C777 0.951 . S
H754 C779 0.951 . S
H755 C781 0.950 . S
H756 C782 0.950 . S
H757 C784 0.950 . S
H758 C787 0.950 . S
H759 C788 0.950 . S
H760 C790 0.950 . S
H761 C791 0.950 . S
C762 H744 0.951 . S
C762 C763 1.366 . S
C762 C764 1.388 . S
C763 C762 1.366 . S
C763 C767 1.385 . S
C764 H745 0.951 . S
C764 C762 1.388 . S
C764 C765 1.366 . S
C765 C764 1.366 . S
C765 C766 1.414 . S
C765 C768 1.499 . S
C766 H746 0.950 . S
C766 C765 1.414 . S
C766 C767 1.374 . S
C767 H747 0.950 . S
C767 C763 1.385 . S
C767 C766 1.374 . S
C768 C765 1.499 . S
C768 C769 1.373 . S
C768 C770 1.389 . S
C769 H748 0.950 . S
C769 C768 1.373 . S
C769 C785 1.377 . S
C770 C768 1.389 . S
C770 C771 1.524 . S
C770 C784 1.377 . S
C771 C770 1.524 . S
C771 C772 1.397 . S
C771 C776 1.363 . S
C772 H749 0.950 . S
C772 C771 1.397 . S
C772 C773 1.334 . S
C773 H750 0.950 . S
C773 C772 1.334 . S
C773 C774 1.287 . S
C774 C773 1.287 . S
C774 C775 1.524 . S
C774 H793 0.913 . S
C775 H751 0.950 . S
C775 C774 1.524 . S
C775 C776 1.415 . S
C776 H752 0.950 . S
C776 C771 1.363 . S
C776 C775 1.415 . S
C777 H753 0.951 . S
C777 C778 1.366 . S
C777 C779 1.388 . S
C778 C777 1.366 . S
C778 C782 1.385 . S
C779 H754 0.951 . S
C779 C777 1.388 . S
C779 C780 1.366 . S
C780 C779 1.366 . S
C780 C781 1.414 . S
C780 C783 1.499 . S
C781 H755 0.950 . S
C781 C780 1.414 . S
C781 C782 1.374 . S
C782 H756 0.950 . S
C782 C778 1.385 . S
C782 C781 1.374 . S
C783 C780 1.499 . S
C783 C784 1.373 . S
C783 C785 1.389 . S
C784 H757 0.950 . S
C784 C770 1.377 . S
C784 C783 1.373 . S
C785 C769 1.377 . S
C785 C783 1.389 . S
C785 C786 1.524 . S
C786 C785 1.524 . S
C786 C787 1.397 . S
C786 C791 1.363 . S
C787 H758 0.950 . S
C787 C786 1.397 . S
C787 C788 1.334 . S
C788 H759 0.950 . S
C788 C787 1.334 . S
C788 C789 1.287 . S
C789 C788 1.287 . S
C789 C790 1.524 . S
C789 H792 0.999 . S
C790 H760 0.950 . S
C790 C789 1.524 . S
C790 C791 1.415 . S
C791 H761 0.950 . S
C791 C786 1.363 . S
C791 C790 1.415 . S
H792 C789 0.999 . S
H793 C774 0.913 . S
H794 C812 0.951 . S
H795 C814 0.951 . S
H796 C816 0.950 . S
H797 C817 0.950 . S
H798 C819 0.950 . S
H799 C822 0.950 . S
H800 C823 0.950 . S
H801 C825 0.950 . S
H802 C826 0.950 . S
H803 C827 0.951 . S
H804 C829 0.951 . S
H805 C831 0.950 . S
H806 C832 0.950 . S
H807 C834 0.950 . S
H808 C837 0.950 . S
H809 C838 0.950 . S
H810 C840 0.950 . S
H811 C841 0.950 . S
C812 H794 0.951 . S
C812 C813 1.366 . S
C812 C814 1.388 . S
C813 C812 1.366 . S
C813 C817 1.385 . S
C814 H795 0.951 . S
C814 C812 1.388 . S
C814 C815 1.366 . S
C815 C814 1.366 . S
C815 C816 1.414 . S
C815 C818 1.499 . S
C816 H796 0.950 . S
C816 C815 1.414 . S
C816 C817 1.374 . S
C817 H797 0.950 . S
C817 C813 1.385 . S
C817 C816 1.374 . S
C818 C815 1.499 . S
C818 C819 1.373 . S
C818 C820 1.389 . S
C819 H798 0.950 . S
C819 C818 1.373 . S
C819 C835 1.377 . S
C820 C818 1.389 . S
C820 C821 1.524 . S
C820 C834 1.377 . S
C821 C820 1.524 . S
C821 C822 1.397 . S
C821 C826 1.363 . S
C822 H799 0.950 . S
C822 C821 1.397 . S
C822 C823 1.334 . S
C823 H800 0.950 . S
C823 C822 1.334 . S
C823 C824 1.287 . S
C824 C823 1.287 . S
C824 C825 1.524 . S
C824 H843 0.868 1_565 S
C825 H801 0.950 . S
C825 C824 1.524 . S
C825 C826 1.415 . S
C826 H802 0.950 . S
C826 C821 1.363 . S
C826 C825 1.415 . S
C827 H803 0.951 . S
C827 C828 1.366 . S
C827 C829 1.388 . S
C828 C827 1.366 . S
C828 C832 1.385 . S
C829 H804 0.951 . S
C829 C827 1.388 . S
C829 C830 1.366 . S
C830 C829 1.366 . S
C830 C831 1.414 . S
C830 C833 1.499 . S
C831 H805 0.950 . S
C831 C830 1.414 . S
C831 C832 1.374 . S
C832 H806 0.950 . S
C832 C828 1.385 . S
C832 C831 1.374 . S
C833 C830 1.499 . S
C833 C834 1.373 . S
C833 C835 1.389 . S
C834 H807 0.950 . S
C834 C820 1.377 . S
C834 C833 1.373 . S
C835 C819 1.377 . S
C835 C833 1.389 . S
C835 C836 1.524 . S
C836 C835 1.524 . S
C836 C837 1.397 . S
C836 C841 1.363 . S
C837 H808 0.950 . S
C837 C836 1.397 . S
C837 C838 1.334 . S
C838 H809 0.950 . S
C838 C837 1.334 . S
C838 C839 1.287 . S
C839 C838 1.287 . S
C839 C840 1.524 . S
C839 H842 0.999 . S
C840 H810 0.950 . S
C840 C839 1.524 . S
C840 C841 1.415 . S
C841 H811 0.950 . S
C841 C836 1.363 . S
C841 C840 1.415 . S
H842 C839 0.999 . S
H843 C824 0.868 1_545 S
H844 C862 0.951 . S
H845 C864 0.951 . S
H846 C866 0.950 . S
H847 C867 0.950 . S
H848 C869 0.950 . S
H849 C872 0.950 . S
H850 C873 0.950 . S
H851 C875 0.950 . S
H852 C876 0.950 . S
H853 C877 0.951 . S
H854 C879 0.951 . S
H855 C881 0.950 . S
H856 C882 0.950 . S
H857 C884 0.950 . S
H858 C887 0.950 . S
H859 C888 0.950 . S
H860 C890 0.950 . S
H861 C891 0.950 . S
C862 H844 0.951 . S
C862 C863 1.366 . S
C862 C864 1.388 . S
C863 C862 1.366 . S
C863 C867 1.385 . S
C864 H845 0.951 . S
C864 C862 1.388 . S
C864 C865 1.366 . S
C865 C864 1.366 . S
C865 C866 1.414 . S
C865 C868 1.499 . S
C866 H846 0.950 . S
C866 C865 1.414 . S
C866 C867 1.374 . S
C867 H847 0.950 . S
C867 C863 1.385 . S
C867 C866 1.374 . S
C868 C865 1.499 . S
C868 C869 1.373 . S
C868 C870 1.389 . S
C869 H848 0.950 . S
C869 C868 1.373 . S
C869 C885 1.377 . S
C870 C868 1.389 . S
C870 C871 1.524 . S
C870 C884 1.377 . S
C871 C870 1.524 . S
C871 C872 1.397 . S
C871 C876 1.363 . S
C872 H849 0.950 . S
C872 C871 1.397 . S
C872 C873 1.334 . S
C873 H850 0.950 . S
C873 C872 1.334 . S
C873 C874 1.287 . S
C874 C873 1.287 . S
C874 C875 1.524 . S
C874 H893 0.913 . S
C875 H851 0.950 . S
C875 C874 1.524 . S
C875 C876 1.415 . S
C876 H852 0.950 . S
C876 C871 1.363 . S
C876 C875 1.415 . S
C877 H853 0.951 . S
C877 C878 1.366 . S
C877 C879 1.388 . S
C878 C877 1.366 . S
C878 C882 1.385 . S
C879 H854 0.951 . S
C879 C877 1.388 . S
C879 C880 1.366 . S
C880 C879 1.366 . S
C880 C881 1.414 . S
C880 C883 1.499 . S
C881 H855 0.950 . S
C881 C880 1.414 . S
C881 C882 1.374 . S
C882 H856 0.950 . S
C882 C878 1.385 . S
C882 C881 1.374 . S
C883 C880 1.499 . S
C883 C884 1.373 . S
C883 C885 1.389 . S
C884 H857 0.950 . S
C884 C870 1.377 . S
C884 C883 1.373 . S
C885 C869 1.377 . S
C885 C883 1.389 . S
C885 C886 1.524 . S
C886 C885 1.524 . S
C886 C887 1.397 . S
C886 C891 1.363 . S
C887 H858 0.950 . S
C887 C886 1.397 . S
C887 C888 1.334 . S
C888 H859 0.950 . S
C888 C887 1.334 . S
C888 C889 1.287 . S
C889 C888 1.287 . S
C889 C890 1.524 . S
C889 H892 0.999 . S
C890 H860 0.950 . S
C890 C889 1.524 . S
C890 C891 1.415 . S
C891 H861 0.950 . S
C891 C886 1.363 . S
C891 C890 1.415 . S
H892 C889 0.999 . S
H893 C874 0.913 . S
H894 C912 0.951 . S
H895 C914 0.951 . S
H896 C916 0.950 . S
H897 C917 0.950 . S
H898 C919 0.950 . S
H899 C922 0.950 . S
H900 C923 0.950 . S
H901 C925 0.950 . S
H902 C926 0.950 . S
H903 C927 0.951 . S
H904 C929 0.951 . S
H905 C931 0.950 . S
H906 C932 0.950 . S
H907 C934 0.950 . S
H908 C937 0.950 . S
H909 C938 0.950 . S
H910 C940 0.950 . S
H911 C941 0.950 . S
C912 H894 0.951 . S
C912 C913 1.366 . S
C912 C914 1.388 . S
C913 C912 1.366 . S
C913 C917 1.385 . S
C914 H895 0.951 . S
C914 C912 1.388 . S
C914 C915 1.366 . S
C915 C914 1.366 . S
C915 C916 1.414 . S
C915 C918 1.499 . S
C916 H896 0.950 . S
C916 C915 1.414 . S
C916 C917 1.374 . S
C917 H897 0.950 . S
C917 C913 1.385 . S
C917 C916 1.374 . S
C918 C915 1.499 . S
C918 C919 1.373 . S
C918 C920 1.389 . S
C919 H898 0.950 . S
C919 C918 1.373 . S
C919 C935 1.377 . S
C920 C918 1.389 . S
C920 C921 1.524 . S
C920 C934 1.377 . S
C921 C920 1.524 . S
C921 C922 1.397 . S
C921 C926 1.363 . S
C922 H899 0.950 . S
C922 C921 1.397 . S
C922 C923 1.334 . S
C923 H900 0.950 . S
C923 C922 1.334 . S
C923 C924 1.287 . S
C924 C923 1.287 . S
C924 C925 1.524 . S
C924 H943 0.913 . S
C925 H901 0.950 . S
C925 C924 1.524 . S
C925 C926 1.415 . S
C926 H902 0.950 . S
C926 C921 1.363 . S
C926 C925 1.415 . S
C927 H903 0.951 . S
C927 C928 1.366 . S
C927 C929 1.388 . S
C928 C927 1.366 . S
C928 C932 1.385 . S
C929 H904 0.951 . S
C929 C927 1.388 . S
C929 C930 1.366 . S
C930 C929 1.366 . S
C930 C931 1.414 . S
C930 C933 1.499 . S
C931 H905 0.950 . S
C931 C930 1.414 . S
C931 C932 1.374 . S
C932 H906 0.950 . S
C932 C928 1.385 . S
C932 C931 1.374 . S
C933 C930 1.499 . S
C933 C934 1.373 . S
C933 C935 1.389 . S
C934 H907 0.950 . S
C934 C920 1.377 . S
C934 C933 1.373 . S
C935 C919 1.377 . S
C935 C933 1.389 . S
C935 C936 1.524 . S
C936 C935 1.524 . S
C936 C937 1.397 . S
C936 C941 1.363 . S
C937 H908 0.950 . S
C937 C936 1.397 . S
C937 C938 1.334 . S
C938 H909 0.950 . S
C938 C937 1.334 . S
C938 C939 1.287 . S
C939 C938 1.287 . S
C939 C940 1.524 . S
C939 H942 0.999 . S
C940 H910 0.950 . S
C940 C939 1.524 . S
C940 C941 1.415 . S
C941 H911 0.950 . S
C941 C936 1.363 . S
C941 C940 1.415 . S
H942 C939 0.999 . S
H943 C924 0.913 . S
H944 C962 0.951 . S
H945 C964 0.951 . S
H946 C966 0.950 . S
H947 C967 0.950 . S
H948 C969 0.950 . S
H949 C972 0.950 . S
H950 C973 0.950 . S
H951 C975 0.950 . S
H952 C976 0.950 . S
H953 C977 0.951 . S
H954 C979 0.951 . S
H955 C981 0.950 . S
H956 C982 0.950 . S
H957 C984 0.950 . S
H958 C987 0.950 . S
H959 C988 0.950 . S
H960 C990 0.950 . S
H961 C991 0.950 . S
C962 H944 0.951 . S
C962 C963 1.366 . S
C962 C964 1.388 . S
C963 C962 1.366 . S
C963 C967 1.385 . S
C964 H945 0.951 . S
C964 C962 1.388 . S
C964 C965 1.366 . S
C965 C964 1.366 . S
C965 C966 1.414 . S
C965 C968 1.499 . S
C966 H946 0.950 . S
C966 C965 1.414 . S
C966 C967 1.374 . S
C967 H947 0.950 . S
C967 C963 1.385 . S
C967 C966 1.374 . S
C968 C965 1.499 . S
C968 C969 1.373 . S
C968 C970 1.389 . S
C969 H948 0.950 . S
C969 C968 1.373 . S
C969 C985 1.377 . S
C970 C968 1.389 . S
C970 C971 1.524 . S
C970 C984 1.377 . S
C971 C970 1.524 . S
C971 C972 1.397 . S
C971 C976 1.363 . S
C972 H949 0.950 . S
C972 C971 1.397 . S
C972 C973 1.334 . S
C973 H950 0.950 . S
C973 C972 1.334 . S
C973 C974 1.287 . S
C974 C973 1.287 . S
C974 C975 1.524 . S
C974 H993 0.913 1_556 S
C975 H951 0.950 . S
C975 C974 1.524 . S
C975 C976 1.415 . S
C976 H952 0.950 . S
C976 C971 1.363 . S
C976 C975 1.415 . S
C977 H953 0.951 . S
C977 C978 1.366 . S
C977 C979 1.388 . S
C978 C977 1.366 . S
C978 C982 1.385 . S
C979 H954 0.951 . S
C979 C977 1.388 . S
C979 C980 1.366 . S
C980 C979 1.366 . S
C980 C981 1.414 . S
C980 C983 1.499 . S
C981 H955 0.950 . S
C981 C980 1.414 . S
C981 C982 1.374 . S
C982 H956 0.950 . S
C982 C978 1.385 . S
C982 C981 1.374 . S
C983 C980 1.499 . S
C983 C984 1.373 . S
C983 C985 1.389 . S
C984 H957 0.950 . S
C984 C970 1.377 . S
C984 C983 1.373 . S
C985 C969 1.377 . S
C985 C983 1.389 . S
C985 C986 1.524 . S
C986 C985 1.524 . S
C986 C987 1.397 . S
C986 C991 1.363 . S
C987 H958 0.950 . S
C987 C986 1.397 . S
C987 C988 1.334 . S
C988 H959 0.950 . S
C988 C987 1.334 . S
C988 C989 1.287 . S
C989 C988 1.287 . S
C989 C990 1.524 . S
C989 H992 0.999 . S
C990 H960 0.950 . S
C990 C989 1.524 . S
C990 C991 1.415 . S
C991 H961 0.950 . S
C991 C986 1.363 . S
C991 C990 1.415 . S
H992 C989 0.999 . S
H993 C974 0.913 1_554 S
H994 C1012 0.951 . S
H995 C1014 0.951 . S
H996 C1016 0.950 . S
H997 C1017 0.950 . S
H998 C1019 0.950 . S
H999 C1022 0.950 . S
H1000 C1023 0.950 . S
H1001 C1025 0.950 . S
H1002 C1026 0.950 . S
H1003 C1027 0.951 . S
H1004 C1029 0.951 . S
H1005 C1031 0.950 . S
H1006 C1032 0.950 . S
H1007 C1034 0.950 . S
H1008 C1037 0.950 . S
H1009 C1038 0.950 . S
H1010 C1040 0.950 . S
H1011 C1041 0.950 . S
C1012 H994 0.951 . S
C1012 C1013 1.366 . S
C1012 C1014 1.388 . S
C1013 C1012 1.366 . S
C1013 C1017 1.385 . S
C1014 H995 0.951 . S
C1014 C1012 1.388 . S
C1014 C1015 1.366 . S
C1015 C1014 1.366 . S
C1015 C1016 1.414 . S
C1015 C1018 1.499 . S
C1016 H996 0.950 . S
C1016 C1015 1.414 . S
C1016 C1017 1.374 . S
C1017 H997 0.950 . S
C1017 C1013 1.385 . S
C1017 C1016 1.374 . S
C1018 C1015 1.499 . S
C1018 C1019 1.373 . S
C1018 C1020 1.389 . S
C1019 H998 0.950 . S
C1019 C1018 1.373 . S
C1019 C1035 1.377 . S
C1020 C1018 1.389 . S
C1020 C1021 1.524 . S
C1020 C1034 1.377 . S
C1021 C1020 1.524 . S
C1021 C1022 1.397 . S
C1021 C1026 1.363 . S
C1022 H999 0.950 . S
C1022 C1021 1.397 . S
C1022 C1023 1.334 . S
C1023 H1000 0.950 . S
C1023 C1022 1.334 . S
C1023 C1024 1.287 . S
C1024 C1023 1.287 . S
C1024 C1025 1.524 . S
C1024 H1043 0.913 . S
C1025 H1001 0.950 . S
C1025 C1024 1.524 . S
C1025 C1026 1.415 . S
C1026 H1002 0.950 . S
C1026 C1021 1.363 . S
C1026 C1025 1.415 . S
C1027 H1003 0.951 . S
C1027 C1028 1.366 . S
C1027 C1029 1.388 . S
C1028 C1027 1.366 . S
C1028 C1032 1.385 . S
C1029 H1004 0.951 . S
C1029 C1027 1.388 . S
C1029 C1030 1.366 . S
C1030 C1029 1.366 . S
C1030 C1031 1.414 . S
C1030 C1033 1.499 . S
C1031 H1005 0.950 . S
C1031 C1030 1.414 . S
C1031 C1032 1.374 . S
C1032 H1006 0.950 . S
C1032 C1028 1.385 . S
C1032 C1031 1.374 . S
C1033 C1030 1.499 . S
C1033 C1034 1.373 . S
C1033 C1035 1.389 . S
C1034 H1007 0.950 . S
C1034 C1020 1.377 . S
C1034 C1033 1.373 . S
C1035 C1019 1.377 . S
C1035 C1033 1.389 . S
C1035 C1036 1.524 . S
C1036 C1035 1.524 . S
C1036 C1037 1.397 . S
C1036 C1041 1.363 . S
C1037 H1008 0.950 . S
C1037 C1036 1.397 . S
C1037 C1038 1.334 . S
C1038 H1009 0.950 . S
C1038 C1037 1.334 . S
C1038 C1039 1.287 . S
C1039 C1038 1.287 . S
C1039 C1040 1.524 . S
C1039 H1042 0.999 . S
C1040 H1010 0.950 . S
C1040 C1039 1.524 . S
C1040 C1041 1.415 . S
C1041 H1011 0.950 . S
C1041 C1036 1.363 . S
C1041 C1040 1.415 . S
H1042 C1039 0.999 . S
H1043 C1024 0.913 . S
H1044 C1062 0.951 . S
H1045 C1064 0.951 . S
H1046 C1066 0.950 . S
H1047 C1067 0.950 . S
H1048 C1069 0.950 . S
H1049 C1072 0.950 . S
H1050 C1073 0.950 . S
H1051 C1075 0.950 . S
H1052 C1076 0.950 . S
H1053 C1077 0.951 . S
H1054 C1079 0.951 . S
H1055 C1081 0.950 . S
H1056 C1082 0.950 . S
H1057 C1084 0.950 . S
H1058 C1087 0.950 . S
H1059 C1088 0.950 . S
H1060 C1090 0.950 . S
H1061 C1091 0.950 . S
C1062 H1044 0.951 . S
C1062 C1063 1.366 . S
C1062 C1064 1.388 . S
C1063 C1062 1.366 . S
C1063 C1067 1.385 . S
C1064 H1045 0.951 . S
C1064 C1062 1.388 . S
C1064 C1065 1.366 . S
C1065 C1064 1.366 . S
C1065 C1066 1.414 . S
C1065 C1068 1.499 . S
C1066 H1046 0.950 . S
C1066 C1065 1.414 . S
C1066 C1067 1.374 . S
C1067 H1047 0.950 . S
C1067 C1063 1.385 . S
C1067 C1066 1.374 . S
C1068 C1065 1.499 . S
C1068 C1069 1.373 . S
C1068 C1070 1.389 . S
C1069 H1048 0.950 . S
C1069 C1068 1.373 . S
C1069 C1085 1.377 . S
C1070 C1068 1.389 . S
C1070 C1071 1.524 . S
C1070 C1084 1.377 . S
C1071 C1070 1.524 . S
C1071 C1072 1.397 . S
C1071 C1076 1.363 . S
C1072 H1049 0.950 . S
C1072 C1071 1.397 . S
C1072 C1073 1.334 . S
C1073 H1050 0.950 . S
C1073 C1072 1.334 . S
C1073 C1074 1.287 . S
C1074 C1073 1.287 . S
C1074 C1075 1.524 . S
C1074 H1093 0.913 . S
C1075 H1051 0.950 . S
C1075 C1074 1.524 . S
C1075 C1076 1.415 . S
C1076 H1052 0.950 . S
C1076 C1071 1.363 . S
C1076 C1075 1.415 . S
C1077 H1053 0.951 . S
C1077 C1078 1.366 . S
C1077 C1079 1.388 . S
C1078 C1077 1.366 . S
C1078 C1082 1.385 . S
C1079 H1054 0.951 . S
C1079 C1077 1.388 . S
C1079 C1080 1.366 . S
C1080 C1079 1.366 . S
C1080 C1081 1.414 . S
C1080 C1083 1.499 . S
C1081 H1055 0.950 . S
C1081 C1080 1.414 . S
C1081 C1082 1.374 . S
C1082 H1056 0.950 . S
C1082 C1078 1.385 . S
C1082 C1081 1.374 . S
C1083 C1080 1.499 . S
C1083 C1084 1.373 . S
C1083 C1085 1.389 . S
C1084 H1057 0.950 . S
C1084 C1070 1.377 . S
C1084 C1083 1.373 . S
C1085 C1069 1.377 . S
C1085 C1083 1.389 . S
C1085 C1086 1.524 . S
C1086 C1085 1.524 . S
C1086 C1087 1.397 . S
C1086 C1091 1.363 . S
C1087 H1058 0.950 . S
C1087 C1086 1.397 . S
C1087 C1088 1.334 . S
C1088 H1059 0.950 . S
C1088 C1087 1.334 . S
C1088 C1089 1.287 . S
C1089 C1088 1.287 . S
C1089 C1090 1.524 . S
C1089 H1092 0.999 . S
C1090 H1060 0.950 . S
C1090 C1089 1.524 . S
C1090 C1091 1.415 . S
C1091 H1061 0.950 . S
C1091 C1086 1.363 . S
C1091 C1090 1.415 . S
H1092 C1089 0.999 . S
H1093 C1074 0.913 . S
H1094 C1112 0.951 . S
H1095 C1114 0.951 . S
H1096 C1116 0.950 . S
H1097 C1117 0.950 . S
H1098 C1119 0.950 . S
H1099 C1122 0.950 . S
H1100 C1123 0.950 . S
H1101 C1125 0.950 . S
H1102 C1126 0.950 . S
H1103 C1127 0.951 . S
H1104 C1129 0.951 . S
H1105 C1131 0.950 . S
H1106 C1132 0.950 . S
H1107 C1134 0.950 . S
H1108 C1137 0.950 . S
H1109 C1138 0.950 . S
H1110 C1140 0.950 . S
H1111 C1141 0.950 . S
C1112 H1094 0.951 . S
C1112 C1113 1.366 . S
C1112 C1114 1.388 . S
C1113 C1112 1.366 . S
C1113 C1117 1.385 . S
C1114 H1095 0.951 . S
C1114 C1112 1.388 . S
C1114 C1115 1.366 . S
C1115 C1114 1.366 . S
C1115 C1116 1.414 . S
C1115 C1118 1.499 . S
C1116 H1096 0.950 . S
C1116 C1115 1.414 . S
C1116 C1117 1.374 . S
C1117 H1097 0.950 . S
C1117 C1113 1.385 . S
C1117 C1116 1.374 . S
C1118 C1115 1.499 . S
C1118 C1119 1.373 . S
C1118 C1120 1.389 . S
C1119 H1098 0.950 . S
C1119 C1118 1.373 . S
C1119 C1135 1.377 . S
C1120 C1118 1.389 . S
C1120 C1121 1.524 . S
C1120 C1134 1.377 . S
C1121 C1120 1.524 . S
C1121 C1122 1.397 . S
C1121 C1126 1.363 . S
C1122 H1099 0.950 . S
C1122 C1121 1.397 . S
C1122 C1123 1.334 . S
C1123 H1100 0.950 . S
C1123 C1122 1.334 . S
C1123 C1124 1.287 . S
C1124 C1123 1.287 . S
C1124 C1125 1.524 . S
C1124 H1143 0.913 . S
C1125 H1101 0.950 . S
C1125 C1124 1.524 . S
C1125 C1126 1.415 . S
C1126 H1102 0.950 . S
C1126 C1121 1.363 . S
C1126 C1125 1.415 . S
C1127 H1103 0.951 . S
C1127 C1128 1.366 . S
C1127 C1129 1.388 . S
C1128 C1127 1.366 . S
C1128 C1132 1.385 . S
C1129 H1104 0.951 . S
C1129 C1127 1.388 . S
C1129 C1130 1.366 . S
C1130 C1129 1.366 . S
C1130 C1131 1.414 . S
C1130 C1133 1.499 . S
C1131 H1105 0.950 . S
C1131 C1130 1.414 . S
C1131 C1132 1.374 . S
C1132 H1106 0.950 . S
C1132 C1128 1.385 . S
C1132 C1131 1.374 . S
C1133 C1130 1.499 . S
C1133 C1134 1.373 . S
C1133 C1135 1.389 . S
C1134 H1107 0.950 . S
C1134 C1120 1.377 . S
C1134 C1133 1.373 . S
C1135 C1119 1.377 . S
C1135 C1133 1.389 . S
C1135 C1136 1.524 . S
C1136 C1135 1.524 . S
C1136 C1137 1.397 . S
C1136 C1141 1.363 . S
C1137 H1108 0.950 . S
C1137 C1136 1.397 . S
C1137 C1138 1.334 . S
C1138 H1109 0.950 . S
C1138 C1137 1.334 . S
C1138 C1139 1.287 . S
C1139 C1138 1.287 . S
C1139 C1140 1.524 . S
C1139 H1142 0.999 . S
C1140 H1110 0.950 . S
C1140 C1139 1.524 . S
C1140 C1141 1.415 . S
C1141 H1111 0.950 . S
C1141 C1136 1.363 . S
C1141 C1140 1.415 . S
H1142 C1139 0.999 . S
H1143 C1124 0.913 . S
H1144 C1162 0.951 . S
H1145 C1164 0.951 . S
H1146 C1166 0.950 . S
H1147 C1167 0.950 . S
H1148 C1169 0.950 . S
H1149 C1172 0.950 . S
H1150 C1173 0.950 . S
H1151 C1175 0.950 . S
H1152 C1176 0.950 . S
H1153 C1177 0.951 . S
H1154 C1179 0.951 . S
H1155 C1181 0.950 . S
H1156 C1182 0.950 . S
H1157 C1184 0.950 . S
H1158 C1187 0.950 . S
H1159 C1188 0.950 . S
H1160 C1190 0.950 . S
H1161 C1191 0.950 . S
C1162 H1144 0.951 . S
C1162 C1163 1.366 . S
C1162 C1164 1.388 . S
C1163 C1162 1.366 . S
C1163 C1167 1.385 . S
C1164 H1145 0.951 . S
C1164 C1162 1.388 . S
C1164 C1165 1.366 . S
C1165 C1164 1.366 . S
C1165 C1166 1.414 . S
C1165 C1168 1.499 . S
C1166 H1146 0.950 . S
C1166 C1165 1.414 . S
C1166 C1167 1.374 . S
C1167 H1147 0.950 . S
C1167 C1163 1.385 . S
C1167 C1166 1.374 . S
C1168 C1165 1.499 . S
C1168 C1169 1.373 . S
C1168 C1170 1.389 . S
C1169 H1148 0.950 . S
C1169 C1168 1.373 . S
C1169 C1185 1.377 . S
C1170 C1168 1.389 . S
C1170 C1171 1.524 . S
C1170 C1184 1.377 . S
C1171 C1170 1.524 . S
C1171 C1172 1.397 . S
C1171 C1176 1.363 . S
C1172 H1149 0.950 . S
C1172 C1171 1.397 . S
C1172 C1173 1.334 . S
C1173 H1150 0.950 . S
C1173 C1172 1.334 . S
C1173 C1174 1.287 . S
C1174 C1173 1.287 . S
C1174 C1175 1.524 . S
C1174 H1193 0.913 . S
C1175 H1151 0.950 . S
C1175 C1174 1.524 . S
C1175 C1176 1.415 . S
C1176 H1152 0.950 . S
C1176 C1171 1.363 . S
C1176 C1175 1.415 . S
C1177 H1153 0.951 . S
C1177 C1178 1.366 . S
C1177 C1179 1.388 . S
C1178 C1177 1.366 . S
C1178 C1182 1.385 . S
C1179 H1154 0.951 . S
C1179 C1177 1.388 . S
C1179 C1180 1.366 . S
C1180 C1179 1.366 . S
C1180 C1181 1.414 . S
C1180 C1183 1.499 . S
C1181 H1155 0.950 . S
C1181 C1180 1.414 . S
C1181 C1182 1.374 . S
C1182 H1156 0.950 . S
C1182 C1178 1.385 . S
C1182 C1181 1.374 . S
C1183 C1180 1.499 . S
C1183 C1184 1.373 . S
C1183 C1185 1.389 . S
C1184 H1157 0.950 . S
C1184 C1170 1.377 . S
C1184 C1183 1.373 . S
C1185 C1169 1.377 . S
C1185 C1183 1.389 . S
C1185 C1186 1.524 . S
C1186 C1185 1.524 . S
C1186 C1187 1.397 . S
C1186 C1191 1.363 . S
C1187 H1158 0.950 . S
C1187 C1186 1.397 . S
C1187 C1188 1.334 . S
C1188 H1159 0.950 . S
C1188 C1187 1.334 . S
C1188 C1189 1.287 . S
C1189 C1188 1.287 . S
C1189 C1190 1.524 . S
C1189 H1192 0.999 . S
C1190 H1160 0.950 . S
C1190 C1189 1.524 . S
C1190 C1191 1.415 . S
C1191 H1161 0.950 . S
C1191 C1186 1.363 . S
C1191 C1190 1.415 . S
H1192 C1189 0.999 . S
H1193 C1174 0.913 . S
H1194 C1212 0.951 . S
H1195 C1214 0.951 . S
H1196 C1216 0.950 . S
H1197 C1217 0.950 . S
H1198 C1219 0.950 . S
H1199 C1222 0.950 . S
H1200 C1223 0.950 . S
H1201 C1225 0.950 . S
H1202 C1226 0.950 . S
H1203 C1227 0.951 . S
H1204 C1229 0.951 . S
H1205 C1231 0.950 . S
H1206 C1232 0.950 . S
H1207 C1234 0.950 . S
H1208 C1237 0.950 . S
H1209 C1238 0.950 . S
H1210 C1240 0.950 . S
H1211 C1241 0.950 . S
C1212 H1194 0.951 . S
C1212 C1213 1.366 . S
C1212 C1214 1.388 . S
C1213 C1212 1.366 . S
C1213 C1217 1.385 . S
C1214 H1195 0.951 . S
C1214 C1212 1.388 . S
C1214 C1215 1.366 . S
C1215 C1214 1.366 . S
C1215 C1216 1.414 . S
C1215 C1218 1.499 . S
C1216 H1196 0.950 . S
C1216 C1215 1.414 . S
C1216 C1217 1.374 . S
C1217 H1197 0.950 . S
C1217 C1213 1.385 . S
C1217 C1216 1.374 . S
C1218 C1215 1.499 . S
C1218 C1219 1.373 . S
C1218 C1220 1.389 . S
C1219 H1198 0.950 . S
C1219 C1218 1.373 . S
C1219 C1235 1.377 . S
C1220 C1218 1.389 . S
C1220 C1221 1.524 . S
C1220 C1234 1.377 . S
C1221 C1220 1.524 . S
C1221 C1222 1.397 . S
C1221 C1226 1.363 . S
C1222 H1199 0.950 . S
C1222 C1221 1.397 . S
C1222 C1223 1.334 . S
C1223 H1200 0.950 . S
C1223 C1222 1.334 . S
C1223 C1224 1.287 . S
C1224 C1223 1.287 . S
C1224 C1225 1.524 . S
C1224 H1243 0.913 1_655 S
C1225 H1201 0.950 . S
C1225 C1224 1.524 . S
C1225 C1226 1.415 . S
C1226 H1202 0.950 . S
C1226 C1221 1.363 . S
C1226 C1225 1.415 . S
C1227 H1203 0.951 . S
C1227 C1228 1.366 . S
C1227 C1229 1.388 . S
C1228 C1227 1.366 . S
C1228 C1232 1.385 . S
C1229 H1204 0.951 . S
C1229 C1227 1.388 . S
C1229 C1230 1.366 . S
C1230 C1229 1.366 . S
C1230 C1231 1.414 . S
C1230 C1233 1.499 . S
C1231 H1205 0.950 . S
C1231 C1230 1.414 . S
C1231 C1232 1.374 . S
C1232 H1206 0.950 . S
C1232 C1228 1.385 . S
C1232 C1231 1.374 . S
C1233 C1230 1.499 . S
C1233 C1234 1.373 . S
C1233 C1235 1.389 . S
C1234 H1207 0.950 . S
C1234 C1220 1.377 . S
C1234 C1233 1.373 . S
C1235 C1219 1.377 . S
C1235 C1233 1.389 . S
C1235 C1236 1.524 . S
C1236 C1235 1.524 . S
C1236 C1237 1.397 . S
C1236 C1241 1.363 . S
C1237 H1208 0.950 . S
C1237 C1236 1.397 . S
C1237 C1238 1.334 . S
C1238 H1209 0.950 . S
C1238 C1237 1.334 . S
C1238 C1239 1.287 . S
C1239 C1238 1.287 . S
C1239 C1240 1.524 . S
C1239 H1242 0.999 . S
C1240 H1210 0.950 . S
C1240 C1239 1.524 . S
C1240 C1241 1.415 . S
C1241 H1211 0.950 . S
C1241 C1236 1.363 . S
C1241 C1240 1.415 . S
H1242 C1239 0.999 . S
H1243 C1224 0.913 1_455 S
H1244 C1262 0.951 . S
H1245 C1264 0.951 . S
H1246 C1266 0.950 . S
H1247 C1267 0.950 . S
H1248 C1269 0.950 . S
H1249 C1272 0.950 . S
H1250 C1273 0.950 . S
H1251 C1275 0.950 . S
H1252 C1276 0.950 . S
H1253 C1277 0.951 . S
H1254 C1279 0.951 . S
H1255 C1281 0.950 . S
H1256 C1282 0.950 . S
H1257 C1284 0.950 . S
H1258 C1287 0.950 . S
H1259 C1288 0.950 . S
H1260 C1290 0.950 . S
H1261 C1291 0.950 . S
C1262 H1244 0.951 . S
C1262 C1263 1.366 . S
C1262 C1264 1.388 . S
C1263 C1262 1.366 . S
C1263 C1267 1.385 . S
C1264 H1245 0.951 . S
C1264 C1262 1.388 . S
C1264 C1265 1.366 . S
C1265 C1264 1.366 . S
C1265 C1266 1.414 . S
C1265 C1268 1.499 . S
C1266 H1246 0.950 . S
C1266 C1265 1.414 . S
C1266 C1267 1.374 . S
C1267 H1247 0.950 . S
C1267 C1263 1.385 . S
C1267 C1266 1.374 . S
C1268 C1265 1.499 . S
C1268 C1269 1.373 . S
C1268 C1270 1.389 . S
C1269 H1248 0.950 . S
C1269 C1268 1.373 . S
C1269 C1285 1.377 . S
C1270 C1268 1.389 . S
C1270 C1271 1.524 . S
C1270 C1284 1.377 . S
C1271 C1270 1.524 . S
C1271 C1272 1.397 . S
C1271 C1276 1.363 . S
C1272 H1249 0.950 . S
C1272 C1271 1.397 . S
C1272 C1273 1.334 . S
C1273 H1250 0.950 . S
C1273 C1272 1.334 . S
C1273 C1274 1.287 . S
C1274 C1273 1.287 . S
C1274 C1275 1.524 . S
C1274 H1293 0.913 . S
C1275 H1251 0.950 . S
C1275 C1274 1.524 . S
C1275 C1276 1.415 . S
C1276 H1252 0.950 . S
C1276 C1271 1.363 . S
C1276 C1275 1.415 . S
C1277 H1253 0.951 . S
C1277 C1278 1.366 . S
C1277 C1279 1.388 . S
C1278 C1277 1.366 . S
C1278 C1282 1.385 . S
C1279 H1254 0.951 . S
C1279 C1277 1.388 . S
C1279 C1280 1.366 . S
C1280 C1279 1.366 . S
C1280 C1281 1.414 . S
C1280 C1283 1.499 . S
C1281 H1255 0.950 . S
C1281 C1280 1.414 . S
C1281 C1282 1.374 . S
C1282 H1256 0.950 . S
C1282 C1278 1.385 . S
C1282 C1281 1.374 . S
C1283 C1280 1.499 . S
C1283 C1284 1.373 . S
C1283 C1285 1.389 . S
C1284 H1257 0.950 . S
C1284 C1270 1.377 . S
C1284 C1283 1.373 . S
C1285 C1269 1.377 . S
C1285 C1283 1.389 . S
C1285 C1286 1.524 . S
C1286 C1285 1.524 . S
C1286 C1287 1.397 . S
C1286 C1291 1.363 . S
C1287 H1258 0.950 . S
C1287 C1286 1.397 . S
C1287 C1288 1.334 . S
C1288 H1259 0.950 . S
C1288 C1287 1.334 . S
C1288 C1289 1.287 . S
C1289 C1288 1.287 . S
C1289 C1290 1.524 . S
C1289 H1292 0.999 . S
C1290 H1260 0.950 . S
C1290 C1289 1.524 . S
C1290 C1291 1.415 . S
C1291 H1261 0.950 . S
C1291 C1286 1.363 . S
C1291 C1290 1.415 . S
H1292 C1289 0.999 . S
H1293 C1274 0.913 . S
H1294 C1312 0.951 . S
H1295 C1314 0.951 . S
H1296 C1316 0.950 . S
H1297 C1317 0.950 . S
H1298 C1319 0.950 . S
H1299 C1322 0.950 . S
H1300 C1323 0.950 . S
H1301 C1325 0.950 . S
H1302 C1326 0.950 . S
H1303 C1327 0.951 . S
H1304 C1329 0.951 . S
H1305 C1331 0.950 . S
H1306 C1332 0.950 . S
H1307 C1334 0.950 . S
H1308 C1337 0.950 . S
H1309 C1338 0.950 . S
H1310 C1340 0.950 . S
H1311 C1341 0.950 . S
C1312 H1294 0.951 . S
C1312 C1313 1.366 . S
C1312 C1314 1.388 . S
C1313 C1312 1.366 . S
C1313 C1317 1.385 . S
C1314 H1295 0.951 . S
C1314 C1312 1.388 . S
C1314 C1315 1.366 . S
C1315 C1314 1.366 . S
C1315 C1316 1.414 . S
C1315 C1318 1.499 . S
C1316 H1296 0.950 . S
C1316 C1315 1.414 . S
C1316 C1317 1.374 . S
C1317 H1297 0.950 . S
C1317 C1313 1.385 . S
C1317 C1316 1.374 . S
C1318 C1315 1.499 . S
C1318 C1319 1.373 . S
C1318 C1320 1.389 . S
C1319 H1298 0.950 . S
C1319 C1318 1.373 . S
C1319 C1335 1.377 . S
C1320 C1318 1.389 . S
C1320 C1321 1.524 . S
C1320 C1334 1.377 . S
C1321 C1320 1.524 . S
C1321 C1322 1.397 . S
C1321 C1326 1.363 . S
C1322 H1299 0.950 . S
C1322 C1321 1.397 . S
C1322 C1323 1.334 . S
C1323 H1300 0.950 . S
C1323 C1322 1.334 . S
C1323 C1324 1.287 . S
C1324 C1323 1.287 . S
C1324 C1325 1.524 . S
C1324 H1343 0.913 . S
C1325 H1301 0.950 . S
C1325 C1324 1.524 . S
C1325 C1326 1.415 . S
C1326 H1302 0.950 . S
C1326 C1321 1.363 . S
C1326 C1325 1.415 . S
C1327 H1303 0.951 . S
C1327 C1328 1.366 . S
C1327 C1329 1.388 . S
C1328 C1327 1.366 . S
C1328 C1332 1.385 . S
C1329 H1304 0.951 . S
C1329 C1327 1.388 . S
C1329 C1330 1.366 . S
C1330 C1329 1.366 . S
C1330 C1331 1.414 . S
C1330 C1333 1.499 . S
C1331 H1305 0.950 . S
C1331 C1330 1.414 . S
C1331 C1332 1.374 . S
C1332 H1306 0.950 . S
C1332 C1328 1.385 . S
C1332 C1331 1.374 . S
C1333 C1330 1.499 . S
C1333 C1334 1.373 . S
C1333 C1335 1.389 . S
C1334 H1307 0.950 . S
C1334 C1320 1.377 . S
C1334 C1333 1.373 . S
C1335 C1319 1.377 . S
C1335 C1333 1.389 . S
C1335 C1336 1.524 . S
C1336 C1335 1.524 . S
C1336 C1337 1.397 . S
C1336 C1341 1.363 . S
C1337 H1308 0.950 . S
C1337 C1336 1.397 . S
C1337 C1338 1.334 . S
C1338 H1309 0.950 . S
C1338 C1337 1.334 . S
C1338 C1339 1.287 . S
C1339 C1338 1.287 . S
C1339 C1340 1.524 . S
C1339 H1342 0.999 . S
C1340 H1310 0.950 . S
C1340 C1339 1.524 . S
C1340 C1341 1.415 . S
C1341 H1311 0.950 . S
C1341 C1336 1.363 . S
C1341 C1340 1.415 . S
H1342 C1339 0.999 . S
H1343 C1324 0.913 . S
H1344 C1362 0.951 . S
H1345 C1364 0.951 . S
H1346 C1366 0.950 . S
H1347 C1367 0.950 . S
H1348 C1369 0.950 . S
H1349 C1372 0.950 . S
H1350 C1373 0.950 . S
H1351 C1375 0.950 . S
H1352 C1376 0.950 . S
H1353 C1377 0.951 . S
H1354 C1379 0.951 . S
H1355 C1381 0.950 . S
H1356 C1382 0.950 . S
H1357 C1384 0.950 . S
H1358 C1387 0.950 . S
H1359 C1388 0.950 . S
H1360 C1390 0.950 . S
H1361 C1391 0.950 . S
C1362 H1344 0.951 . S
C1362 C1363 1.366 . S
C1362 C1364 1.388 . S
C1363 C1362 1.366 . S
C1363 C1367 1.385 . S
C1364 H1345 0.951 . S
C1364 C1362 1.388 . S
C1364 C1365 1.366 . S
C1365 C1364 1.366 . S
C1365 C1366 1.414 . S
C1365 C1368 1.499 . S
C1366 H1346 0.950 . S
C1366 C1365 1.414 . S
C1366 C1367 1.374 . S
C1367 H1347 0.950 . S
C1367 C1363 1.385 . S
C1367 C1366 1.374 . S
C1368 C1365 1.499 . S
C1368 C1369 1.373 . S
C1368 C1370 1.389 . S
C1369 H1348 0.950 . S
C1369 C1368 1.373 . S
C1369 C1385 1.377 . S
C1370 C1368 1.389 . S
C1370 C1371 1.524 . S
C1370 C1384 1.377 . S
C1371 C1370 1.524 . S
C1371 C1372 1.397 . S
C1371 C1376 1.363 . S
C1372 H1349 0.950 . S
C1372 C1371 1.397 . S
C1372 C1373 1.334 . S
C1373 H1350 0.950 . S
C1373 C1372 1.334 . S
C1373 C1374 1.287 . S
C1374 C1373 1.287 . S
C1374 C1375 1.524 . S
C1374 H1393 0.913 . S
C1375 H1351 0.950 . S
C1375 C1374 1.524 . S
C1375 C1376 1.415 . S
C1376 H1352 0.950 . S
C1376 C1371 1.363 . S
C1376 C1375 1.415 . S
C1377 H1353 0.951 . S
C1377 C1378 1.366 . S
C1377 C1379 1.388 . S
C1378 C1377 1.366 . S
C1378 C1382 1.385 . S
C1379 H1354 0.951 . S
C1379 C1377 1.388 . S
C1379 C1380 1.366 . S
C1380 C1379 1.366 . S
C1380 C1381 1.414 . S
C1380 C1383 1.499 . S
C1381 H1355 0.950 . S
C1381 C1380 1.414 . S
C1381 C1382 1.374 . S
C1382 H1356 0.950 . S
C1382 C1378 1.385 . S
C1382 C1381 1.374 . S
C1383 C1380 1.499 . S
C1383 C1384 1.373 . S
C1383 C1385 1.389 . S
C1384 H1357 0.950 . S
C1384 C1370 1.377 . S
C1384 C1383 1.373 . S
C1385 C1369 1.377 . S
C1385 C1383 1.389 . S
C1385 C1386 1.524 . S
C1386 C1385 1.524 . S
C1386 C1387 1.397 . S
C1386 C1391 1.363 . S
C1387 H1358 0.950 . S
C1387 C1386 1.397 . S
C1387 C1388 1.334 . S
C1388 H1359 0.950 . S
C1388 C1387 1.334 . S
C1388 C1389 1.287 . S
C1389 C1388 1.287 . S
C1389 C1390 1.524 . S
C1389 H1392 0.999 . S
C1390 H1360 0.950 . S
C1390 C1389 1.524 . S
C1390 C1391 1.415 . S
C1391 H1361 0.950 . S
C1391 C1386 1.363 . S
C1391 C1390 1.415 . S
H1392 C1389 0.999 . S
H1393 C1374 0.913 . S
H1394 C1412 0.951 . S
H1395 C1414 0.951 . S
H1396 C1416 0.950 . S
H1397 C1417 0.950 . S
H1398 C1419 0.950 . S
H1399 C1422 0.950 . S
H1400 C1423 0.950 . S
H1401 C1425 0.950 . S
H1402 C1426 0.950 . S
H1403 C1427 0.951 . S
H1404 C1429 0.951 . S
H1405 C1431 0.950 . S
H1406 C1432 0.950 . S
H1407 C1434 0.950 . S
H1408 C1437 0.950 . S
H1409 C1438 0.950 . S
H1410 C1440 0.950 . S
H1411 C1441 0.950 . S
C1412 H1394 0.951 . S
C1412 C1413 1.366 . S
C1412 C1414 1.388 . S
C1413 C1412 1.366 . S
C1413 C1417 1.385 . S
C1414 H1395 0.951 . S
C1414 C1412 1.388 . S
C1414 C1415 1.366 . S
C1415 C1414 1.366 . S
C1415 C1416 1.414 . S
C1415 C1418 1.499 . S
C1416 H1396 0.950 . S
C1416 C1415 1.414 . S
C1416 C1417 1.374 . S
C1417 H1397 0.950 . S
C1417 C1413 1.385 . S
C1417 C1416 1.374 . S
C1418 C1415 1.499 . S
C1418 C1419 1.373 . S
C1418 C1420 1.389 . S
C1419 H1398 0.950 . S
C1419 C1418 1.373 . S
C1419 C1435 1.377 . S
C1420 C1418 1.389 . S
C1420 C1421 1.524 . S
C1420 C1434 1.377 . S
C1421 C1420 1.524 . S
C1421 C1422 1.397 . S
C1421 C1426 1.363 . S
C1422 H1399 0.950 . S
C1422 C1421 1.397 . S
C1422 C1423 1.334 . S
C1423 H1400 0.950 . S
C1423 C1422 1.334 . S
C1423 C1424 1.287 . S
C1424 C1423 1.287 . S
C1424 C1425 1.524 . S
C1424 H1443 0.913 . S
C1425 H1401 0.950 . S
C1425 C1424 1.524 . S
C1425 C1426 1.415 . S
C1426 H1402 0.950 . S
C1426 C1421 1.363 . S
C1426 C1425 1.415 . S
C1427 H1403 0.951 . S
C1427 C1428 1.366 . S
C1427 C1429 1.388 . S
C1428 C1427 1.366 . S
C1428 C1432 1.385 . S
C1429 H1404 0.951 . S
C1429 C1427 1.388 . S
C1429 C1430 1.366 . S
C1430 C1429 1.366 . S
C1430 C1431 1.414 . S
C1430 C1433 1.499 . S
C1431 H1405 0.950 . S
C1431 C1430 1.414 . S
C1431 C1432 1.374 . S
C1432 H1406 0.950 . S
C1432 C1428 1.385 . S
C1432 C1431 1.374 . S
C1433 C1430 1.499 . S
C1433 C1434 1.373 . S
C1433 C1435 1.389 . S
C1434 H1407 0.950 . S
C1434 C1420 1.377 . S
C1434 C1433 1.373 . S
C1435 C1419 1.377 . S
C1435 C1433 1.389 . S
C1435 C1436 1.524 . S
C1436 C1435 1.524 . S
C1436 C1437 1.397 . S
C1436 C1441 1.363 . S
C1437 H1408 0.950 . S
C1437 C1436 1.397 . S
C1437 C1438 1.334 . S
C1438 H1409 0.950 . S
C1438 C1437 1.334 . S
C1438 C1439 1.287 . S
C1439 C1438 1.287 . S
C1439 C1440 1.524 . S
C1439 H1442 0.999 . S
C1440 H1410 0.950 . S
C1440 C1439 1.524 . S
C1440 C1441 1.415 . S
C1441 H1411 0.950 . S
C1441 C1436 1.363 . S
C1441 C1440 1.415 . S
H1442 C1439 0.999 . S
H1443 C1424 0.913 . S
H1444 C1462 0.951 . S
H1445 C1464 0.951 . S
H1446 C1466 0.950 . S
H1447 C1467 0.950 . S
H1448 C1469 0.950 . S
H1449 C1472 0.950 . S
H1450 C1473 0.950 . S
H1451 C1475 0.950 . S
H1452 C1476 0.950 . S
H1453 C1477 0.951 . S
H1454 C1479 0.951 . S
H1455 C1481 0.950 . S
H1456 C1482 0.950 . S
H1457 C1484 0.950 . S
H1458 C1487 0.950 . S
H1459 C1488 0.950 . S
H1460 C1490 0.950 . S
H1461 C1491 0.950 . S
C1462 H1444 0.951 . S
C1462 C1463 1.366 . S
C1462 C1464 1.388 . S
C1463 C1462 1.366 . S
C1463 C1467 1.385 . S
C1464 H1445 0.951 . S
C1464 C1462 1.388 . S
C1464 C1465 1.366 . S
C1465 C1464 1.366 . S
C1465 C1466 1.414 . S
C1465 C1468 1.499 . S
C1466 H1446 0.950 . S
C1466 C1465 1.414 . S
C1466 C1467 1.374 . S
C1467 H1447 0.950 . S
C1467 C1463 1.385 . S
C1467 C1466 1.374 . S
C1468 C1465 1.499 . S
C1468 C1469 1.373 . S
C1468 C1470 1.389 . S
C1469 H1448 0.950 . S
C1469 C1468 1.373 . S
C1469 C1485 1.377 . S
C1470 C1468 1.389 . S
C1470 C1471 1.524 . S
C1470 C1484 1.377 . S
C1471 C1470 1.524 . S
C1471 C1472 1.397 . S
C1471 C1476 1.363 . S
C1472 H1449 0.950 . S
C1472 C1471 1.397 . S
C1472 C1473 1.334 . S
C1473 H1450 0.950 . S
C1473 C1472 1.334 . S
C1473 C1474 1.287 . S
C1474 C1473 1.287 . S
C1474 C1475 1.524 . S
C1474 H1493 0.913 . S
C1475 H1451 0.950 . S
C1475 C1474 1.524 . S
C1475 C1476 1.415 . S
C1476 H1452 0.950 . S
C1476 C1471 1.363 . S
C1476 C1475 1.415 . S
C1477 H1453 0.951 . S
C1477 C1478 1.366 . S
C1477 C1479 1.388 . S
C1478 C1477 1.366 . S
C1478 C1482 1.385 . S
C1479 H1454 0.951 . S
C1479 C1477 1.388 . S
C1479 C1480 1.366 . S
C1480 C1479 1.366 . S
C1480 C1481 1.414 . S
C1480 C1483 1.499 . S
C1481 H1455 0.950 . S
C1481 C1480 1.414 . S
C1481 C1482 1.374 . S
C1482 H1456 0.950 . S
C1482 C1478 1.385 . S
C1482 C1481 1.374 . S
C1483 C1480 1.499 . S
C1483 C1484 1.373 . S
C1483 C1485 1.389 . S
C1484 H1457 0.950 . S
C1484 C1470 1.377 . S
C1484 C1483 1.373 . S
C1485 C1469 1.377 . S
C1485 C1483 1.389 . S
C1485 C1486 1.524 . S
C1486 C1485 1.524 . S
C1486 C1487 1.397 . S
C1486 C1491 1.363 . S
C1487 H1458 0.950 . S
C1487 C1486 1.397 . S
C1487 C1488 1.334 . S
C1488 H1459 0.950 . S
C1488 C1487 1.334 . S
C1488 C1489 1.287 . S
C1489 C1488 1.287 . S
C1489 C1490 1.524 . S
C1489 H1492 0.999 . S
C1490 H1460 0.950 . S
C1490 C1489 1.524 . S
C1490 C1491 1.415 . S
C1491 H1461 0.950 . S
C1491 C1486 1.363 . S
C1491 C1490 1.415 . S
H1492 C1489 0.999 . S
H1493 C1474 0.913 . S
H1494 C1512 0.951 . S
H1495 C1514 0.951 . S
H1496 C1516 0.950 . S
H1497 C1517 0.950 . S
H1498 C1519 0.950 . S
H1499 C1522 0.950 . S
H1500 C1523 0.950 . S
H1501 C1525 0.950 . S
H1502 C1526 0.950 . S
H1503 C1527 0.951 . S
H1504 C1529 0.951 . S
H1505 C1531 0.950 . S
H1506 C1532 0.950 . S
H1507 C1534 0.950 . S
H1508 C1537 0.950 . S
H1509 C1538 0.950 . S
H1510 C1540 0.950 . S
H1511 C1541 0.950 . S
C1512 H1494 0.951 . S
C1512 C1513 1.366 . S
C1512 C1514 1.388 . S
C1513 C1512 1.366 . S
C1513 C1517 1.385 . S
C1514 H1495 0.951 . S
C1514 C1512 1.388 . S
C1514 C1515 1.366 . S
C1515 C1514 1.366 . S
C1515 C1516 1.414 . S
C1515 C1518 1.499 . S
C1516 H1496 0.950 . S
C1516 C1515 1.414 . S
C1516 C1517 1.374 . S
C1517 H1497 0.950 . S
C1517 C1513 1.385 . S
C1517 C1516 1.374 . S
C1518 C1515 1.499 . S
C1518 C1519 1.373 . S
C1518 C1520 1.389 . S
C1519 H1498 0.950 . S
C1519 C1518 1.373 . S
C1519 C1535 1.377 . S
C1520 C1518 1.389 . S
C1520 C1521 1.524 . S
C1520 C1534 1.377 . S
C1521 C1520 1.524 . S
C1521 C1522 1.397 . S
C1521 C1526 1.363 . S
C1522 H1499 0.950 . S
C1522 C1521 1.397 . S
C1522 C1523 1.334 . S
C1523 H1500 0.950 . S
C1523 C1522 1.334 . S
C1523 C1524 1.287 . S
C1524 C1523 1.287 . S
C1524 C1525 1.524 . S
C1524 H1543 0.913 . S
C1525 H1501 0.950 . S
C1525 C1524 1.524 . S
C1525 C1526 1.415 . S
C1526 H1502 0.950 . S
C1526 C1521 1.363 . S
C1526 C1525 1.415 . S
C1527 H1503 0.951 . S
C1527 C1528 1.366 . S
C1527 C1529 1.388 . S
C1528 C1527 1.366 . S
C1528 C1532 1.385 . S
C1529 H1504 0.951 . S
C1529 C1527 1.388 . S
C1529 C1530 1.366 . S
C1530 C1529 1.366 . S
C1530 C1531 1.414 . S
C1530 C1533 1.499 . S
C1531 H1505 0.950 . S
C1531 C1530 1.414 . S
C1531 C1532 1.374 . S
C1532 H1506 0.950 . S
C1532 C1528 1.385 . S
C1532 C1531 1.374 . S
C1533 C1530 1.499 . S
C1533 C1534 1.373 . S
C1533 C1535 1.389 . S
C1534 H1507 0.950 . S
C1534 C1520 1.377 . S
C1534 C1533 1.373 . S
C1535 C1519 1.377 . S
C1535 C1533 1.389 . S
C1535 C1536 1.524 . S
C1536 C1535 1.524 . S
C1536 C1537 1.397 . S
C1536 C1541 1.363 . S
C1537 H1508 0.950 . S
C1537 C1536 1.397 . S
C1537 C1538 1.334 . S
C1538 H1509 0.950 . S
C1538 C1537 1.334 . S
C1538 C1539 1.287 . S
C1539 C1538 1.287 . S
C1539 C1540 1.524 . S
C1539 H1542 0.999 . S
C1540 H1510 0.950 . S
C1540 C1539 1.524 . S
C1540 C1541 1.415 . S
C1541 H1511 0.950 . S
C1541 C1536 1.363 . S
C1541 C1540 1.415 . S
H1542 C1539 0.999 . S
H1543 C1524 0.913 . S
H1544 C1562 0.951 . S
H1545 C1564 0.951 . S
H1546 C1566 0.950 . S
H1547 C1567 0.950 . S
H1548 C1569 0.950 . S
H1549 C1572 0.950 . S
H1550 C1573 0.950 . S
H1551 C1575 0.950 . S
H1552 C1576 0.950 . S
H1553 C1577 0.951 . S
H1554 C1579 0.951 . S
H1555 C1581 0.950 . S
H1556 C1582 0.950 . S
H1557 C1584 0.950 . S
H1558 C1587 0.950 . S
H1559 C1588 0.950 . S
H1560 C1590 0.950 . S
H1561 C1591 0.950 . S
C1562 H1544 0.951 . S
C1562 C1563 1.366 . S
C1562 C1564 1.388 . S
C1563 C1562 1.366 . S
C1563 C1567 1.385 . S
C1564 H1545 0.951 . S
C1564 C1562 1.388 . S
C1564 C1565 1.366 . S
C1565 C1564 1.366 . S
C1565 C1566 1.414 . S
C1565 C1568 1.499 . S
C1566 H1546 0.950 . S
C1566 C1565 1.414 . S
C1566 C1567 1.374 . S
C1567 H1547 0.950 . S
C1567 C1563 1.385 . S
C1567 C1566 1.374 . S
C1568 C1565 1.499 . S
C1568 C1569 1.373 . S
C1568 C1570 1.389 . S
C1569 H1548 0.950 . S
C1569 C1568 1.373 . S
C1569 C1585 1.377 . S
C1570 C1568 1.389 . S
C1570 C1571 1.524 . S
C1570 C1584 1.377 . S
C1571 C1570 1.524 . S
C1571 C1572 1.397 . S
C1571 C1576 1.363 . S
C1572 H1549 0.950 . S
C1572 C1571 1.397 . S
C1572 C1573 1.334 . S
C1573 H1550 0.950 . S
C1573 C1572 1.334 . S
C1573 C1574 1.287 . S
C1574 C1573 1.287 . S
C1574 C1575 1.524 . S
C1574 H1593 0.913 . S
C1575 H1551 0.950 . S
C1575 C1574 1.524 . S
C1575 C1576 1.415 . S
C1576 H1552 0.950 . S
C1576 C1571 1.363 . S
C1576 C1575 1.415 . S
C1577 H1553 0.951 . S
C1577 C1578 1.366 . S
C1577 C1579 1.388 . S
C1578 C1577 1.366 . S
C1578 C1582 1.385 . S
C1579 H1554 0.951 . S
C1579 C1577 1.388 . S
C1579 C1580 1.366 . S
C1580 C1579 1.366 . S
C1580 C1581 1.414 . S
C1580 C1583 1.499 . S
C1581 H1555 0.950 . S
C1581 C1580 1.414 . S
C1581 C1582 1.374 . S
C1582 H1556 0.950 . S
C1582 C1578 1.385 . S
C1582 C1581 1.374 . S
C1583 C1580 1.499 . S
C1583 C1584 1.373 . S
C1583 C1585 1.389 . S
C1584 H1557 0.950 . S
C1584 C1570 1.377 . S
C1584 C1583 1.373 . S
C1585 C1569 1.377 . S
C1585 C1583 1.389 . S
C1585 C1586 1.524 . S
C1586 C1585 1.524 . S
C1586 C1587 1.397 . S
C1586 C1591 1.363 . S
C1587 H1558 0.950 . S
C1587 C1586 1.397 . S
C1587 C1588 1.334 . S
C1588 H1559 0.950 . S
C1588 C1587 1.334 . S
C1588 C1589 1.287 . S
C1589 C1588 1.287 . S
C1589 C1590 1.524 . S
C1589 H1592 0.999 . S
C1590 H1560 0.950 . S
C1590 C1589 1.524 . S
C1590 C1591 1.415 . S
C1591 H1561 0.950 . S
C1591 C1586 1.363 . S
C1591 C1590 1.415 . S
H1592 C1589 0.999 . S
H1593 C1574 0.913 . S
H1594 C1612 0.951 . S
H1595 C1614 0.951 . S
H1596 C1616 0.950 . S
H1597 C1617 0.950 . S
H1598 C1619 0.950 . S
H1599 C1622 0.950 . S
H1600 C1623 0.950 . S
H1601 C1625 0.950 . S
H1602 C1626 0.950 . S
H1603 C1627 0.951 . S
H1604 C1629 0.951 . S
H1605 C1631 0.950 . S
H1606 C1632 0.950 . S
H1607 C1634 0.950 . S
H1608 C1637 0.950 . S
H1609 C1638 0.950 . S
H1610 C1640 0.950 . S
H1611 C1641 0.950 . S
C1612 H1594 0.951 . S
C1612 C1613 1.366 . S
C1612 C1614 1.388 . S
C1613 C1612 1.366 . S
C1613 C1617 1.385 . S
C1614 H1595 0.951 . S
C1614 C1612 1.388 . S
C1614 C1615 1.366 . S
C1615 C1614 1.366 . S
C1615 C1616 1.414 . S
C1615 C1618 1.499 . S
C1616 H1596 0.950 . S
C1616 C1615 1.414 . S
C1616 C1617 1.374 . S
C1617 H1597 0.950 . S
C1617 C1613 1.385 . S
C1617 C1616 1.374 . S
C1618 C1615 1.499 . S
C1618 C1619 1.373 . S
C1618 C1620 1.389 . S
C1619 H1598 0.950 . S
C1619 C1618 1.373 . S
C1619 C1635 1.377 . S
C1620 C1618 1.389 . S
C1620 C1621 1.524 . S
C1620 C1634 1.377 . S
C1621 C1620 1.524 . S
C1621 C1622 1.397 . S
C1621 C1626 1.363 . S
C1622 H1599 0.950 . S
C1622 C1621 1.397 . S
C1622 C1623 1.334 . S
C1623 H1600 0.950 . S
C1623 C1622 1.334 . S
C1623 C1624 1.287 . S
C1624 C1623 1.287 . S
C1624 C1625 1.524 . S
C1624 H1643 0.913 . S
C1625 H1601 0.950 . S
C1625 C1624 1.524 . S
C1625 C1626 1.415 . S
C1626 H1602 0.950 . S
C1626 C1621 1.363 . S
C1626 C1625 1.415 . S
C1627 H1603 0.951 . S
C1627 C1628 1.366 . S
C1627 C1629 1.388 . S
C1628 C1627 1.366 . S
C1628 C1632 1.385 . S
C1629 H1604 0.951 . S
C1629 C1627 1.388 . S
C1629 C1630 1.366 . S
C1630 C1629 1.366 . S
C1630 C1631 1.414 . S
C1630 C1633 1.499 . S
C1631 H1605 0.950 . S
C1631 C1630 1.414 . S
C1631 C1632 1.374 . S
C1632 H1606 0.950 . S
C1632 C1628 1.385 . S
C1632 C1631 1.374 . S
C1633 C1630 1.499 . S
C1633 C1634 1.373 . S
C1633 C1635 1.389 . S
C1634 H1607 0.950 . S
C1634 C1620 1.377 . S
C1634 C1633 1.373 . S
C1635 C1619 1.377 . S
C1635 C1633 1.389 . S
C1635 C1636 1.524 . S
C1636 C1635 1.524 . S
C1636 C1637 1.397 . S
C1636 C1641 1.363 . S
C1637 H1608 0.950 . S
C1637 C1636 1.397 . S
C1637 C1638 1.334 . S
C1638 H1609 0.950 . S
C1638 C1637 1.334 . S
C1638 C1639 1.287 . S
C1639 C1638 1.287 . S
C1639 C1640 1.524 . S
C1639 H1642 0.999 . S
C1640 H1610 0.950 . S
C1640 C1639 1.524 . S
C1640 C1641 1.415 . S
C1641 H1611 0.950 . S
C1641 C1636 1.363 . S
C1641 C1640 1.415 . S
H1642 C1639 0.999 . S
H1643 C1624 0.913 . S
H1644 C1662 0.951 . S
H1645 C1664 0.951 . S
H1646 C1666 0.950 . S
H1647 C1667 0.950 . S
H1648 C1669 0.950 . S
H1649 C1672 0.950 . S
H1650 C1673 0.950 . S
H1651 C1675 0.950 . S
H1652 C1676 0.950 . S
H1653 C1677 0.951 . S
H1654 C1679 0.951 . S
H1655 C1681 0.950 . S
H1656 C1682 0.950 . S
H1657 C1684 0.950 . S
H1658 C1687 0.950 . S
H1659 C1688 0.950 . S
H1660 C1690 0.950 . S
H1661 C1691 0.950 . S
C1662 H1644 0.951 . S
C1662 C1663 1.366 . S
C1662 C1664 1.388 . S
C1663 C1662 1.366 . S
C1663 C1667 1.385 . S
C1664 H1645 0.951 . S
C1664 C1662 1.388 . S
C1664 C1665 1.366 . S
C1665 C1664 1.366 . S
C1665 C1666 1.414 . S
C1665 C1668 1.499 . S
C1666 H1646 0.950 . S
C1666 C1665 1.414 . S
C1666 C1667 1.374 . S
C1667 H1647 0.950 . S
C1667 C1663 1.385 . S
C1667 C1666 1.374 . S
C1668 C1665 1.499 . S
C1668 C1669 1.373 . S
C1668 C1670 1.389 . S
C1669 H1648 0.950 . S
C1669 C1668 1.373 . S
C1669 C1685 1.377 . S
C1670 C1668 1.389 . S
C1670 C1671 1.524 . S
C1670 C1684 1.377 . S
C1671 C1670 1.524 . S
C1671 C1672 1.397 . S
C1671 C1676 1.363 . S
C1672 H1649 0.950 . S
C1672 C1671 1.397 . S
C1672 C1673 1.334 . S
C1673 H1650 0.950 . S
C1673 C1672 1.334 . S
C1673 C1674 1.287 . S
C1674 C1673 1.287 . S
C1674 C1675 1.524 . S
C1674 H1693 0.913 . S
C1675 H1651 0.950 . S
C1675 C1674 1.524 . S
C1675 C1676 1.415 . S
C1676 H1652 0.950 . S
C1676 C1671 1.363 . S
C1676 C1675 1.415 . S
C1677 H1653 0.951 . S
C1677 C1678 1.366 . S
C1677 C1679 1.388 . S
C1678 C1677 1.366 . S
C1678 C1682 1.385 . S
C1679 H1654 0.951 . S
C1679 C1677 1.388 . S
C1679 C1680 1.366 . S
C1680 C1679 1.366 . S
C1680 C1681 1.414 . S
C1680 C1683 1.499 . S
C1681 H1655 0.950 . S
C1681 C1680 1.414 . S
C1681 C1682 1.374 . S
C1682 H1656 0.950 . S
C1682 C1678 1.385 . S
C1682 C1681 1.374 . S
C1683 C1680 1.499 . S
C1683 C1684 1.373 . S
C1683 C1685 1.389 . S
C1684 H1657 0.950 . S
C1684 C1670 1.377 . S
C1684 C1683 1.373 . S
C1685 C1669 1.377 . S
C1685 C1683 1.389 . S
C1685 C1686 1.524 . S
C1686 C1685 1.524 . S
C1686 C1687 1.397 . S
C1686 C1691 1.363 . S
C1687 H1658 0.950 . S
C1687 C1686 1.397 . S
C1687 C1688 1.334 . S
C1688 H1659 0.950 . S
C1688 C1687 1.334 . S
C1688 C1689 1.287 . S
C1689 C1688 1.287 . S
C1689 C1690 1.524 . S
C1689 H1692 0.999 . S
C1690 H1660 0.950 . S
C1690 C1689 1.524 . S
C1690 C1691 1.415 . S
C1691 H1661 0.950 . S
C1691 C1686 1.363 . S
C1691 C1690 1.415 . S
H1692 C1689 0.999 . S
H1693 C1674 0.913 . S
H1694 C1712 0.951 . S
H1695 C1714 0.951 . S
H1696 C1716 0.950 . S
H1697 C1717 0.950 . S
H1698 C1719 0.950 . S
H1699 C1722 0.950 . S
H1700 C1723 0.950 . S
H1701 C1725 0.950 . S
H1702 C1726 0.950 . S
H1703 C1727 0.951 . S
H1704 C1729 0.951 . S
H1705 C1731 0.950 . S
H1706 C1732 0.950 . S
H1707 C1734 0.950 . S
H1708 C1737 0.950 . S
H1709 C1738 0.950 . S
H1710 C1740 0.950 . S
H1711 C1741 0.950 . S
C1712 H1694 0.951 . S
C1712 C1713 1.366 . S
C1712 C1714 1.388 . S
C1713 C1712 1.366 . S
C1713 C1717 1.385 . S
C1714 H1695 0.951 . S
C1714 C1712 1.388 . S
C1714 C1715 1.366 . S
C1715 C1714 1.366 . S
C1715 C1716 1.414 . S
C1715 C1718 1.499 . S
C1716 H1696 0.950 . S
C1716 C1715 1.414 . S
C1716 C1717 1.374 . S
C1717 H1697 0.950 . S
C1717 C1713 1.385 . S
C1717 C1716 1.374 . S
C1718 C1715 1.499 . S
C1718 C1719 1.373 . S
C1718 C1720 1.389 . S
C1719 H1698 0.950 . S
C1719 C1718 1.373 . S
C1719 C1735 1.377 . S
C1720 C1718 1.389 . S
C1720 C1721 1.524 . S
C1720 C1734 1.377 . S
C1721 C1720 1.524 . S
C1721 C1722 1.397 . S
C1721 C1726 1.363 . S
C1722 H1699 0.950 . S
C1722 C1721 1.397 . S
C1722 C1723 1.334 . S
C1723 H1700 0.950 . S
C1723 C1722 1.334 . S
C1723 C1724 1.287 . S
C1724 C1723 1.287 . S
C1724 C1725 1.524 . S
C1724 H1743 0.913 . S
C1725 H1701 0.950 . S
C1725 C1724 1.524 . S
C1725 C1726 1.415 . S
C1726 H1702 0.950 . S
C1726 C1721 1.363 . S
C1726 C1725 1.415 . S
C1727 H1703 0.951 . S
C1727 C1728 1.366 . S
C1727 C1729 1.388 . S
C1728 C1727 1.366 . S
C1728 C1732 1.385 . S
C1729 H1704 0.951 . S
C1729 C1727 1.388 . S
C1729 C1730 1.366 . S
C1730 C1729 1.366 . S
C1730 C1731 1.414 . S
C1730 C1733 1.499 . S
C1731 H1705 0.950 . S
C1731 C1730 1.414 . S
C1731 C1732 1.374 . S
C1732 H1706 0.950 . S
C1732 C1728 1.385 . S
C1732 C1731 1.374 . S
C1733 C1730 1.499 . S
C1733 C1734 1.373 . S
C1733 C1735 1.389 . S
C1734 H1707 0.950 . S
C1734 C1720 1.377 . S
C1734 C1733 1.373 . S
C1735 C1719 1.377 . S
C1735 C1733 1.389 . S
C1735 C1736 1.524 . S
C1736 C1735 1.524 . S
C1736 C1737 1.397 . S
C1736 C1741 1.363 . S
C1737 H1708 0.950 . S
C1737 C1736 1.397 . S
C1737 C1738 1.334 . S
C1738 H1709 0.950 . S
C1738 C1737 1.334 . S
C1738 C1739 1.287 . S
C1739 C1738 1.287 . S
C1739 C1740 1.524 . S
C1739 H1742 0.999 . S
C1740 H1710 0.950 . S
C1740 C1739 1.524 . S
C1740 C1741 1.415 . S
C1741 H1711 0.950 . S
C1741 C1736 1.363 . S
C1741 C1740 1.415 . S
H1742 C1739 0.999 . S
H1743 C1724 0.913 . S
H1744 C1762 0.951 . S
H1745 C1764 0.951 . S
H1746 C1766 0.950 . S
H1747 C1767 0.950 . S
H1748 C1769 0.950 . S
H1749 C1772 0.950 . S
H1750 C1773 0.950 . S
H1751 C1775 0.950 . S
H1752 C1776 0.950 . S
H1753 C1777 0.951 . S
H1754 C1779 0.951 . S
H1755 C1781 0.950 . S
H1756 C1782 0.950 . S
H1757 C1784 0.950 . S
H1758 C1787 0.950 . S
H1759 C1788 0.950 . S
H1760 C1790 0.950 . S
H1761 C1791 0.950 . S
C1762 H1744 0.951 . S
C1762 C1763 1.366 . S
C1762 C1764 1.388 . S
C1763 C1762 1.366 . S
C1763 C1767 1.385 . S
C1764 H1745 0.951 . S
C1764 C1762 1.388 . S
C1764 C1765 1.366 . S
C1765 C1764 1.366 . S
C1765 C1766 1.414 . S
C1765 C1768 1.499 . S
C1766 H1746 0.950 . S
C1766 C1765 1.414 . S
C1766 C1767 1.374 . S
C1767 H1747 0.950 . S
C1767 C1763 1.385 . S
C1767 C1766 1.374 . S
C1768 C1765 1.499 . S
C1768 C1769 1.373 . S
C1768 C1770 1.389 . S
C1769 H1748 0.950 . S
C1769 C1768 1.373 . S
C1769 C1785 1.377 . S
C1770 C1768 1.389 . S
C1770 C1771 1.524 . S
C1770 C1784 1.377 . S
C1771 C1770 1.524 . S
C1771 C1772 1.397 . S
C1771 C1776 1.363 . S
C1772 H1749 0.950 . S
C1772 C1771 1.397 . S
C1772 C1773 1.334 . S
C1773 H1750 0.950 . S
C1773 C1772 1.334 . S
C1773 C1774 1.287 . S
C1774 C1773 1.287 . S
C1774 C1775 1.524 . S
C1774 H1793 0.913 . S
C1775 H1751 0.950 . S
C1775 C1774 1.524 . S
C1775 C1776 1.415 . S
C1776 H1752 0.950 . S
C1776 C1771 1.363 . S
C1776 C1775 1.415 . S
C1777 H1753 0.951 . S
C1777 C1778 1.366 . S
C1777 C1779 1.388 . S
C1778 C1777 1.366 . S
C1778 C1782 1.385 . S
C1779 H1754 0.951 . S
C1779 C1777 1.388 . S
C1779 C1780 1.366 . S
C1780 C1779 1.366 . S
C1780 C1781 1.414 . S
C1780 C1783 1.499 . S
C1781 H1755 0.950 . S
C1781 C1780 1.414 . S
C1781 C1782 1.374 . S
C1782 H1756 0.950 . S
C1782 C1778 1.385 . S
C1782 C1781 1.374 . S
C1783 C1780 1.499 . S
C1783 C1784 1.373 . S
C1783 C1785 1.389 . S
C1784 H1757 0.950 . S
C1784 C1770 1.377 . S
C1784 C1783 1.373 . S
C1785 C1769 1.377 . S
C1785 C1783 1.389 . S
C1785 C1786 1.524 . S
C1786 C1785 1.524 . S
C1786 C1787 1.397 . S
C1786 C1791 1.363 . S
C1787 H1758 0.950 . S
C1787 C1786 1.397 . S
C1787 C1788 1.334 . S
C1788 H1759 0.950 . S
C1788 C1787 1.334 . S
C1788 C1789 1.287 . S
C1789 C1788 1.287 . S
C1789 C1790 1.524 . S
C1789 H1792 0.999 . S
C1790 H1760 0.950 . S
C1790 C1789 1.524 . S
C1790 C1791 1.415 . S
C1791 H1761 0.950 . S
C1791 C1786 1.363 . S
C1791 C1790 1.415 . S
H1792 C1789 0.999 . S
H1793 C1774 0.913 . S
C613 C39 1.770 . S
C628 C340 1.755 . S
C663 C91 1.746 . S
C678 C379 1.736 . S
C728 C411 1.581 . S
C713 C128 1.606 . S
C778 C457 1.541 . S
C763 C188 1.562 . S
C828 C524 1.658 . S
C813 C250 1.667 . S
C878 C563 1.720 . S
C863 C304 1.736 . S
C913 C75 1.654 . S
C928 C425 1.638 . S
C963 C144 1.760 . S
C978 C471 1.745 . S
C1028 C510 1.688 . S
C1013 C198 1.712 . S
C1078 C549 1.546 . S
C1063 C234 1.572 . S
C1113 C294 1.551 . S
C1128 C326 1.530 . S
C1178 C365 1.566 . S
C1163 C29 1.585 . S
C1228 C464 1.755 . S
C1213 C38 1.770 . S
C1263 C92 1.746 . S
C1278 C517 1.724 . S
C1328 C570 1.582 . S
C1313 C135 1.607 . S
C1363 C181 1.562 . S
C1378 C333 1.542 . S
C1413 C251 1.667 . S
C1428 C386 1.646 . S
C1463 C303 1.736 . S
C1478 C418 1.719 . S
C1513 C82 1.654 . S
C1528 C556 1.638 . S
C1578 C319 1.745 . S
C1563 C145 1.760 . S
C1613 C197 1.712 . S
C1628 C372 1.700 . S
C1663 C241 1.572 . S
C1678 C432 1.546 . S
C1713 C287 1.551 . S
C1728 C478 1.530 . S
C1763 C22 1.584 . S
C1778 C503 1.576 . S
