# Generated by pormake.
# Topology pyr, (3,6)-cn, num edge types: 1
# Building blocks:
#     Node 0, Type 0, BuildingBlock: MIDCAF_clean_linker_0, # of connection points: 3
#     Node 1, Type 0, BuildingBlock: MIDCAF_clean_linker_0, # of connection points: 3
#     Node 2, Type 0, BuildingBlock: MIDCAF_clean_linker_0, # of connection points: 3
#     Node 3, Type 0, BuildingBlock: MIDCAF_clean_linker_0, # of connection points: 3
#     Node 4, Type 0, BuildingBlock: MIDCAF_clean_linker_0, # of connection points: 3
#     Node 5, Type 0, BuildingBlock: MIDCAF_clean_linker_0, # of connection points: 3
#     Node 6, Type 0, BuildingBlock: MIDCAF_clean_linker_0, # of connection points: 3
#     Node 7, Type 0, BuildingBlock: MIDCAF_clean_linker_0, # of connection points: 3
#     Node 8, Type 1, BuildingBlock: FUNLAD_clean_sbu_0, # of connection points: 6
#     Node 9, Type 1, BuildingBlock: FUNLAD_clean_sbu_0, # of connection points: 6
#     Node 10, Type 1, BuildingBlock: FUNLAD_clean_sbu_0, # of connection points: 6
#     Node 11, Type 1, BuildingBlock: FUNLAD_clean_sbu_0, # of connection points: 6
#     Edge 12, Type (0, 1), BuildingBlock: KIFKEQ_clean_linker_1, # of connection points: 2
#     Edge 13, Type (0, 1), BuildingBlock: KIFKEQ_clean_linker_1, # of connection points: 2
#     Edge 14, Type (0, 1), BuildingBlock: KIFKEQ_clean_linker_1, # of connection points: 2
#     Edge 15, Type (0, 1), BuildingBlock: KIFKEQ_clean_linker_1, # of connection points: 2
#     Edge 16, Type (0, 1), BuildingBlock: KIFKEQ_clean_linker_1, # of connection points: 2
#     Edge 17, Type (0, 1), BuildingBlock: KIFKEQ_clean_linker_1, # of connection points: 2
#     Edge 18, Type (0, 1), BuildingBlock: KIFKEQ_clean_linker_1, # of connection points: 2
#     Edge 19, Type (0, 1), BuildingBlock: KIFKEQ_clean_linker_1, # of connection points: 2
#     Edge 20, Type (0, 1), BuildingBlock: KIFKEQ_clean_linker_1, # of connection points: 2
#     Edge 21, Type (0, 1), BuildingBlock: KIFKEQ_clean_linker_1, # of connection points: 2
#     Edge 22, Type (0, 1), BuildingBlock: KIFKEQ_clean_linker_1, # of connection points: 2
#     Edge 23, Type (0, 1), BuildingBlock: KIFKEQ_clean_linker_1, # of connection points: 2
#     Edge 24, Type (0, 1), BuildingBlock: KIFKEQ_clean_linker_1, # of connection points: 2
#     Edge 25, Type (0, 1), BuildingBlock: KIFKEQ_clean_linker_1, # of connection points: 2
#     Edge 26, Type (0, 1), BuildingBlock: KIFKEQ_clean_linker_1, # of connection points: 2
#     Edge 27, Type (0, 1), BuildingBlock: KIFKEQ_clean_linker_1, # of connection points: 2
#     Edge 28, Type (0, 1), BuildingBlock: KIFKEQ_clean_linker_1, # of connection points: 2
#     Edge 29, Type (0, 1), BuildingBlock: KIFKEQ_clean_linker_1, # of connection points: 2
#     Edge 30, Type (0, 1), BuildingBlock: KIFKEQ_clean_linker_1, # of connection points: 2
#     Edge 31, Type (0, 1), BuildingBlock: KIFKEQ_clean_linker_1, # of connection points: 2
#     Edge 32, Type (0, 1), BuildingBlock: KIFKEQ_clean_linker_1, # of connection points: 2
#     Edge 33, Type (0, 1), BuildingBlock: KIFKEQ_clean_linker_1, # of connection points: 2
#     Edge 34, Type (0, 1), BuildingBlock: KIFKEQ_clean_linker_1, # of connection points: 2
#     Edge 35, Type (0, 1), BuildingBlock: KIFKEQ_clean_linker_1, # of connection points: 2
# Relax obj value: 0.055
# Max RMSD: 0.063
# Mean RMSD: 0.027
data_MOF--net-pry--node1-FUNLAD_clean_sbu_0--node2-MIDCAF_clean_linker_0--edge1-KIFKEQ_clean_linker_1
_symmetry_space_group_name_H-M    P1
_symmetry_Int_Tables_number       1
_symmetry_cell_setting            triclinic
loop_
_symmetry_equiv_pos_as_xyz
'x, y, z'
_cell_length_a     44.545981
_cell_length_b     47.057814
_cell_length_c     47.344402
_cell_angle_alpha  90.089161
_cell_angle_beta   90.235208
_cell_angle_gamma 85.548304
loop_
_atom_site_label
_atom_site_type_symbol
_atom_site_fract_x
_atom_site_fract_y
_atom_site_fract_z
_atom_type_partial_charge
C0 C 0.10186 0.15144 0.27661 0.0
C1 C 0.10872 0.12218 0.28227 0.0
C2 C 0.12663 0.10626 0.26244 0.0
C3 C 0.13776 0.11915 0.23832 0.0
H4 H 0.21106 0.10881 0.18273 0.0
H5 H 0.25625 0.08705 0.15976 0.0
H6 H 0.25929 0.16118 0.10655 0.0
H7 H 0.21461 0.18303 0.12954 0.0
H8 H 0.17053 0.23574 0.13876 0.0
H9 H 0.14922 0.27899 0.11643 0.0
H10 H 0.06439 0.26939 0.15791 0.0
H11 H 0.08635 0.22623 0.18129 0.0
H12 H 0.10707 0.18681 0.24884 0.0
H13 H 0.08866 0.1648 0.29132 0.0
H14 H 0.13197 0.08362 0.26528 0.0
H15 H 0.15157 0.10605 0.22382 0.0
N16 N 0.16881 0.14924 0.19468 0.0
N17 N 0.16861 0.18662 0.16208 0.0
N18 N 0.13126 0.18732 0.197 0.0
C19 C 0.18142 0.16145 0.17202 0.0
C20 C 0.14358 0.19974 0.17416 0.0
C21 C 0.14385 0.162 0.20745 0.0
C22 C 0.20899 0.14778 0.15813 0.0
C23 C 0.22136 0.12052 0.16617 0.0
C24 C 0.24723 0.10793 0.15285 0.0
C25 C 0.26157 0.12234 0.13129 0.0
C26 C 0.24919 0.14957 0.12331 0.0
C27 C 0.22331 0.16205 0.13646 0.0
C28 C 0.13019 0.22718 0.16182 0.0
C29 C 0.14731 0.24275 0.14327 0.0
C30 C 0.13492 0.26764 0.13017 0.0
C31 C 0.10477 0.27779 0.13481 0.0
C32 C 0.08772 0.26254 0.15384 0.0
C33 C 0.1003 0.23765 0.16725 0.0
C34 C 0.13098 0.14834 0.2328 0.0
C35 C 0.1126 0.16424 0.25217 0.0
C36 C 0.26586 0.92151 0.65314 0.0
C37 C 0.25233 0.90802 0.63035 0.0
C38 C 0.2657 0.88172 0.62079 0.0
C39 C 0.29185 0.86924 0.63361 0.0
H40 H 0.3654 0.81478 0.61575 0.0
H41 H 0.3866 0.77185 0.59284 0.0
H42 H 0.43485 0.74729 0.66943 0.0
H43 H 0.41421 0.79126 0.69226 0.0
H44 H 0.42604 0.85774 0.73145 0.0
H45 H 0.44473 0.87967 0.77445 0.0
H46 H 0.35866 0.92707 0.78511 0.0
H47 H 0.34004 0.90543 0.74243 0.0
H48 H 0.30164 0.91985 0.6837 0.0
H49 H 0.25603 0.94166 0.6612 0.0
H50 H 0.25616 0.87089 0.60309 0.0
H51 H 0.3014 0.84899 0.6255 0.0
N52 N 0.34775 0.84554 0.65819 0.0
N53 N 0.38411 0.84352 0.69439 0.0
N54 N 0.34443 0.87967 0.69425 0.0
C55 C 0.37309 0.83258 0.67002 0.0
C56 C 0.36983 0.86721 0.70664 0.0
C57 C 0.33322 0.869 0.67003 0.0
C58 C 0.38785 0.80659 0.65606 0.0
C59 C 0.38057 0.80035 0.62785 0.0
C60 C 0.39264 0.77543 0.61466 0.0
C61 C 0.41221 0.75556 0.62923 0.0
C62 C 0.42006 0.76204 0.65732 0.0
C63 C 0.40814 0.78728 0.67052 0.0
C64 C 0.38148 0.87972 0.73327 0.0
C65 C 0.41106 0.87276 0.743 0.0
C66 C 0.42186 0.88549 0.76759 0.0
C67 C 0.40321 0.90517 0.78334 0.0
C68 C 0.37359 0.91184 0.77375 0.0
C69 C 0.36296 0.89947 0.74906 0.0
C70 C 0.30536 0.88258 0.65652 0.0
C71 C 0.29195 0.90889 0.66615 0.0
C72 C 0.58821 0.35076 0.99689 0.0
C73 C 0.56462 0.34014 0.98119 0.0
C74 C 0.54983 0.35772 0.96069 0.0
C75 C 0.55956 0.38453 0.95482 0.0
H76 H 0.54718 0.44754 0.897 0.0
H77 H 0.535 0.45749 0.84768 0.0
H78 H 0.61725 0.49945 0.83872 0.0
H79 H 0.62976 0.48934 0.88799 0.0
H80 H 0.66928 0.49585 0.94481 0.0
H81 H 0.72125 0.50371 0.95608 0.0
H82 H 0.72862 0.42672 1.00604 0.0
H83 H 0.67629 0.41906 0.99526 0.0
H84 H 0.61716 0.38456 1.00255 0.0
H85 H 0.59965 0.338 0.01328 0.0
H86 H 0.53175 0.35022 0.94802 0.0
H87 H 0.54832 0.39689 0.93805 0.0
N88 N 0.58626 0.43422 0.93606 0.0
N89 N 0.62632 0.46347 0.93558 0.0
N90 N 0.62431 0.42818 0.97032 0.0
C91 C 0.60017 0.4558 0.92414 0.0
C92 C 0.63843 0.44998 0.95879 0.0
C93 C 0.59798 0.42036 0.95917 0.0
C94 C 0.58974 0.46717 0.89636 0.0
C95 C 0.56244 0.45938 0.88473 0.0
C96 C 0.55535 0.46519 0.85648 0.0
C97 C 0.57544 0.4788 0.8393 0.0
C98 C 0.60164 0.48845 0.85141 0.0
C99 C 0.60867 0.48281 0.87971 0.0
C100 C 0.66865 0.45663 0.96885 0.0
C101 C 0.68181 0.48071 0.95846 0.0
C102 C 0.71169 0.48515 0.96477 0.0
C103 C 0.72923 0.46558 0.98154 0.0
C104 C 0.71568 0.44225 0.99312 0.0
C105 C 0.68567 0.43784 0.98689 0.0
C106 C 0.58452 0.39435 0.96911 0.0
C107 C 0.59811 0.37756 0.99088 0.0
C108 C 0.7997 0.58011 0.49481 0.0
C109 C 0.78107 0.56877 0.47421 0.0
C110 C 0.7932 0.56215 0.44742 0.0
C111 C 0.82309 0.56638 0.44144 0.0
H112 H 0.88428 0.54607 0.38298 0.0
H113 H 0.89808 0.53867 0.33371 0.0
H114 H 0.98092 0.57839 0.34832 0.0
H115 H 0.96741 0.58575 0.39774 0.0
H116 H 0.97279 0.6243 0.45043 0.0
H117 H 0.99234 0.67011 0.46017 0.0
H118 H 0.9118 0.69639 0.50669 0.0
H119 H 0.89181 0.65048 0.49682 0.0
H120 H 0.84344 0.59363 0.50484 0.0
H121 H 0.79126 0.58517 0.51578 0.0
H122 H 0.77946 0.55414 0.43073 0.0
H123 H 0.83136 0.5612 0.42042 0.0
N124 N 0.88567 0.5707 0.43114 0.0
N125 N 0.92799 0.59644 0.43679 0.0
N126 N 0.888 0.60291 0.46884 0.0
C127 C 0.91321 0.57703 0.4222 0.0
C128 C 0.91575 0.60943 0.46012 0.0
C129 C 0.87298 0.58326 0.4545 0.0
C130 C 0.92445 0.56703 0.39425 0.0
C131 C 0.90575 0.55272 0.37595 0.0
C132 C 0.91353 0.54861 0.34766 0.0
C133 C 0.94025 0.55848 0.33716 0.0
C134 C 0.96014 0.57064 0.35588 0.0
C135 C 0.9523 0.57492 0.38418 0.0
C136 C 0.93037 0.63392 0.47227 0.0
C137 C 0.95938 0.63953 0.46323 0.0
C138 C 0.97065 0.66579 0.46875 0.0
C139 C 0.95332 0.68689 0.48368 0.0
C140 C 0.92558 0.68043 0.49508 0.0
C141 C 0.91415 0.65413 0.4894 0.0
C142 C 0.84167 0.57786 0.46188 0.0
C143 C 0.82966 0.58479 0.48864 0.0
C144 C 0.75769 0.9112 0.86521 0.0
C145 C 0.75204 0.90599 0.89399 0.0
C146 C 0.77328 0.88794 0.90891 0.0
C147 C 0.79884 0.87512 0.89547 0.0
H148 H 0.84275 0.79064 0.88321 0.0
H149 H 0.86444 0.74677 0.90483 0.0
H150 H 0.95126 0.76172 0.8703 0.0
H151 H 0.92932 0.80579 0.84798 0.0
H152 H 0.92103 0.85027 0.78759 0.0
H153 H 0.94041 0.87253 0.74554 0.0
H154 H 0.86168 0.93217 0.74349 0.0
H155 H 0.84285 0.91058 0.78573 0.0
H156 H 0.78705 0.90316 0.82975 0.0
H157 H 0.74184 0.92449 0.85267 0.0
H158 H 0.77047 0.88382 0.93118 0.0
H159 H 0.8145 0.86134 0.90776 0.0
N160 N 0.84543 0.84211 0.8636 0.0
N161 N 0.882 0.84099 0.82787 0.0
N162 N 0.84305 0.87779 0.82904 0.0
C163 C 0.87047 0.82911 0.85141 0.0
C164 C 0.86828 0.86538 0.81644 0.0
C165 C 0.83162 0.86644 0.85273 0.0
C166 C 0.88425 0.8019 0.86378 0.0
C167 C 0.86648 0.78467 0.88007 0.0
C168 C 0.87888 0.75937 0.89241 0.0
C169 C 0.90958 0.75069 0.88933 0.0
C170 C 0.92754 0.76789 0.87318 0.0
C171 C 0.91494 0.79304 0.86026 0.0
C172 C 0.88033 0.87854 0.79037 0.0
C173 C 0.90784 0.86815 0.77821 0.0
C174 C 0.91892 0.88089 0.75388 0.0
C175 C 0.90279 0.90438 0.74087 0.0
C176 C 0.8752 0.91458 0.753 0.0
C177 C 0.86422 0.90195 0.77731 0.0
C178 C 0.8044 0.88036 0.86681 0.0
C179 C 0.78362 0.89878 0.8519 0.0
C180 C 0.63613 0.11408 0.25436 0.0
C181 C 0.60838 0.12405 0.24226 0.0
C182 C 0.59215 0.14746 0.25526 0.0
C183 C 0.60324 0.16026 0.27968 0.0
H184 H 0.59869 0.23896 0.33184 0.0
H185 H 0.57815 0.28324 0.35414 0.0
H186 H 0.62826 0.26062 0.43022 0.0
H187 H 0.64933 0.21737 0.40783 0.0
H188 H 0.71106 0.18024 0.39991 0.0
H189 H 0.75591 0.15781 0.42239 0.0
H190 H 0.75468 0.08681 0.36455 0.0
H191 H 0.71017 0.10971 0.34141 0.0
H192 H 0.66858 0.11822 0.28716 0.0
H193 H 0.64973 0.09659 0.24482 0.0
H194 H 0.57056 0.15566 0.24687 0.0
H195 H 0.58997 0.17802 0.28913 0.0
N196 N 0.62912 0.18705 0.33002 0.0
N197 N 0.66533 0.18486 0.36636 0.0
N198 N 0.66786 0.15005 0.33095 0.0
C199 C 0.64031 0.19815 0.35424 0.0
C200 C 0.67931 0.16089 0.35497 0.0
C201 C 0.64283 0.16283 0.31824 0.0
C202 C 0.62595 0.22454 0.36782 0.0
C203 C 0.60524 0.24345 0.35335 0.0
C204 C 0.59336 0.26886 0.36625 0.0
C205 C 0.60171 0.27595 0.39404 0.0
C206 C 0.6218 0.25656 0.40861 0.0
C207 C 0.6338 0.23145 0.39571 0.0
C208 C 0.70679 0.14686 0.36875 0.0
C209 C 0.72026 0.15983 0.3919 0.0
C210 C 0.746 0.14682 0.40499 0.0
C211 C 0.75904 0.12033 0.39549 0.0
C212 C 0.7456 0.10735 0.3723 0.0
C213 C 0.71989 0.12045 0.35909 0.0
C214 C 0.63086 0.14999 0.29188 0.0
C215 C 0.64712 0.12675 0.27872 0.0
C216 C 0.301 0.54608 0.05778 0.0
C217 C 0.28351 0.56599 0.04137 0.0
C218 C 0.29661 0.59018 0.03127 0.0
C219 C 0.32643 0.59474 0.03804 0.0
H220 H 0.39423 0.64792 0.02223 0.0
H221 H 0.41189 0.69459 0.01222 0.0
H222 H 0.48319 0.67898 0.07377 0.0
H223 H 0.46649 0.63224 0.0829 0.0
H224 H 0.46942 0.57821 0.12129 0.0
H225 H 0.48515 0.56713 0.16954 0.0
H226 H 0.39895 0.53439 0.18597 0.0
H227 H 0.38341 0.54481 0.13752 0.0
H228 H 0.3433 0.5353 0.07804 0.0
H229 H 0.29142 0.52734 0.06601 0.0
H230 H 0.28371 0.60571 0.01832 0.0
H231 H 0.33564 0.61391 0.0304 0.0
N232 N 0.3882 0.60328 0.05333 0.0
N233 N 0.42733 0.59619 0.08633 0.0
N234 N 0.38666 0.56764 0.08784 0.0
C235 C 0.41504 0.61054 0.06376 0.0
C236 C 0.41341 0.57474 0.09849 0.0
C237 C 0.37405 0.5816 0.06507 0.0
C238 C 0.42856 0.63647 0.05375 0.0
C239 C 0.41407 0.65419 0.03317 0.0
C240 C 0.42407 0.68105 0.02758 0.0
C241 C 0.44864 0.69078 0.04255 0.0
C242 C 0.46433 0.67222 0.06167 0.0
C243 C 0.45452 0.64536 0.06709 0.0
C244 C 0.42497 0.56281 0.12566 0.0
C245 C 0.454 0.56816 0.13501 0.0
C246 C 0.46296 0.56198 0.16273 0.0
C247 C 0.44308 0.55044 0.18174 0.0
C248 C 0.41486 0.5432 0.17183 0.0
C249 C 0.40592 0.54923 0.14402 0.0
C250 C 0.34363 0.57533 0.05533 0.0
C251 C 0.33069 0.55075 0.06477 0.0
C252 C 0.08913 0.34664 0.52767 0.0
C253 C 0.06394 0.33745 0.54188 0.0
C254 C 0.04807 0.35641 0.56045 0.0
C255 C 0.05831 0.38306 0.56618 0.0
H256 H 0.04689 0.44469 0.62528 0.0
H257 H 0.03396 0.45311 0.67465 0.0
H258 H 0.11792 0.49135 0.68788 0.0
H259 H 0.13116 0.48278 0.63858 0.0
H260 H 0.17185 0.49019 0.5825 0.0
H261 H 0.2241 0.49748 0.57239 0.0
H262 H 0.23116 0.4208 0.52178 0.0
H263 H 0.17851 0.41374 0.53136 0.0
H264 H 0.11989 0.37911 0.52333 0.0
H265 H 0.10148 0.33281 0.51272 0.0
H266 H 0.02873 0.35009 0.57196 0.0
H267 H 0.04616 0.39647 0.58161 0.0
N268 N 0.08686 0.4307 0.58742 0.0
N269 N 0.12791 0.45863 0.58996 0.0
N270 N 0.12582 0.42402 0.55442 0.0
C271 C 0.10113 0.45159 0.6003 0.0
C272 C 0.1403 0.44519 0.56689 0.0
C273 C 0.09885 0.41687 0.56445 0.0
C274 C 0.09034 0.46254 0.62806 0.0
C275 C 0.06237 0.45543 0.63852 0.0
C276 C 0.05486 0.46035 0.66679 0.0
C277 C 0.0752 0.47239 0.68515 0.0
C278 C 0.10209 0.48153 0.67423 0.0
C279 C 0.10954 0.47679 0.64592 0.0
C280 C 0.17099 0.45123 0.55795 0.0
C281 C 0.18439 0.47497 0.569 0.0
C282 C 0.21446 0.47906 0.56338 0.0
C283 C 0.23195 0.45947 0.54666 0.0
C284 C 0.21826 0.43635 0.53464 0.0
C285 C 0.18807 0.4323 0.54018 0.0
C286 C 0.08489 0.39135 0.55374 0.0
C287 C 0.09956 0.3733 0.53358 0.0
C288 C 0.03258 0.03167 0.46193 0.0
N289 N 0.0135 0.07378 0.53865 0.0
C290 C 0.04115 0.08383 0.53579 0.0
C291 C 0.04526 0.11232 0.54136 0.0
C292 C 0.02058 0.13079 0.54946 0.0
C293 C 0.99255 0.11971 0.5534 0.0
C294 C 0.98953 0.09085 0.54806 0.0
Zn295 Zn 0.00797 0.03426 0.52274 0.0
C296 C 0.95028 0.03399 0.48971 0.0
N297 N 0.99824 0.95326 0.48531 0.0
C298 C 0.02231 0.93513 0.47815 0.0
C299 C 0.97016 0.94397 0.48724 0.0
C300 C 0.96571 0.91525 0.48351 0.0
C301 C 0.99049 0.89559 0.47853 0.0
C302 C 0.01896 0.90602 0.47481 0.0
Zn303 Zn 1.00404 0.993 0.50088 0.0
O304 O 0.02795 0.04722 0.48377 0.0
C305 C 0.06174 0.99339 0.53403 0.0
O306 O 0.02546 1.00595 0.46268 0.0
H307 H 0.95134 0.95848 0.49339 0.0
H308 H 0.05976 0.07014 0.5277 0.0
H309 H 0.04448 0.94289 0.47675 0.0
O310 O 0.05109 0.0187 0.53921 0.0
O311 O 0.04675 0.97775 0.51826 0.0
H312 H 0.96774 0.08244 0.55013 0.0
O313 O 0.98278 0.98047 0.53943 0.0
O314 O 0.9878 0.0209 0.56127 0.0
O315 O 0.96144 1.00906 0.48359 0.0
O316 O 0.96477 0.04922 0.50633 0.0
C317 C 0.97929 0.99567 0.56163 0.0
H318 H 0.06714 0.12018 0.5377 0.0
H319 H 0.97305 0.13339 0.55974 0.0
H320 H 0.94319 0.90842 0.48574 0.0
H321 H 0.03878 0.89174 0.47105 0.0
C322 C 0.56177 0.99313 0.99016 0.0
N323 N 0.51596 0.07485 0.9861 0.0
C324 C 0.54407 0.08378 0.98952 0.0
C325 C 0.54911 0.11235 0.98607 0.0
C326 C 0.52493 0.13219 0.97958 0.0
C327 C 0.49652 0.12218 0.97425 0.0
C328 C 0.49252 0.09318 0.97762 0.0
Zn329 Zn 0.50925 0.03532 1.00142 0.0
C330 C 0.4793 0.99753 0.96214 0.0
N331 N 0.49736 0.955 0.03871 0.0
C332 C 0.5212 0.93779 0.04826 0.0
C333 C 0.46957 0.94522 0.03575 0.0
C334 C 0.46522 0.91677 0.04121 0.0
C335 C 0.4898 0.89812 0.04938 0.0
C336 C 0.51794 0.909 0.05357 0.0
Zn337 Zn 0.50368 0.99425 0.02286 0.0
O338 O 0.55218 0.01881 0.98529 0.0
C339 C 0.53352 0.03212 0.06218 0.0
O340 O 0.54603 0.97789 1.0055 0.0
H341 H 0.45105 0.9591 0.02766 0.0
H342 H 0.56234 0.06911 0.99672 0.0
H343 H 0.54309 0.94602 0.05043 0.0
O344 O 0.52974 0.04766 0.0403 0.0
O345 O 0.52522 1.00682 0.06132 0.0
H346 H 0.47031 0.08568 0.97517 0.0
O347 O 0.4615 0.01088 0.03988 0.0
O348 O 0.46605 0.0512 0.0179 0.0
O349 O 0.4821 0.98228 0.98432 0.0
O350 O 0.48872 0.02243 0.96262 0.0
C351 C 0.45105 0.03613 0.03415 0.0
H352 H 0.57154 0.11902 0.98972 0.0
H353 H 0.47723 0.13675 0.96925 0.0
H354 H 0.44326 0.90908 0.03741 0.0
H355 H 0.53735 0.89522 0.06003 0.0
C356 C 0.52573 0.46184 0.49018 0.0
N357 N 0.52516 0.49641 0.57266 0.0
C358 C 0.51766 0.47178 0.58485 0.0
C359 C 0.52473 0.46624 0.61324 0.0
C360 C 0.53966 0.48624 0.62901 0.0
C361 C 0.54749 0.51118 0.61564 0.0
C362 C 0.54003 0.51583 0.58741 0.0
Zn363 Zn 0.5128 0.50738 0.53248 0.0
C364 C 0.56333 0.53328 0.50274 0.0
N365 N 0.4878 0.53487 0.4497 0.0
C366 C 0.47227 0.51558 0.43542 0.0
C367 C 0.49726 0.55827 0.43659 0.0
C368 C 0.49221 0.56226 0.40762 0.0
C369 C 0.4775 0.54184 0.39222 0.0
C370 C 0.46681 0.5187 0.40663 0.0
Zn371 Zn 0.50001 0.52422 0.49006 0.0
O372 O 0.52834 0.46585 0.51666 0.0
C373 C 0.44942 0.49839 0.51983 0.0
O374 O 0.51458 0.4823 0.47497 0.0
H375 H 0.50972 0.57322 0.44834 0.0
H376 H 0.50577 0.45669 0.5727 0.0
H377 H 0.46508 0.49702 0.44612 0.0
O378 O 0.4692 0.49332 0.53897 0.0
O379 O 0.45644 0.51123 0.49753 0.0
H380 H 0.54555 0.5354 0.57746 0.0
O381 O 0.48552 0.5661 0.50573 0.0
O382 O 0.4972 0.54894 0.54769 0.0
O383 O 0.54393 0.53709 0.48309 0.0
O384 O 0.55607 0.52155 0.52558 0.0
C385 C 0.48709 0.56974 0.53237 0.0
H386 H 0.51848 0.44664 0.62274 0.0
H387 H 0.55846 0.52744 0.62709 0.0
H388 H 0.50085 0.58038 0.39718 0.0
H389 H 0.45491 0.50276 0.39562 0.0
C390 C 0.98782 0.56749 0.98818 0.0
N391 N 0.99094 0.53697 0.07195 0.0
C392 C 0.99958 0.56171 0.08317 0.0
C393 C 0.99299 0.56865 0.11134 0.0
C394 C 0.97729 0.54995 0.12784 0.0
C395 C 0.96843 0.52481 0.11549 0.0
C396 C 0.97549 0.51873 0.08748 0.0
Zn397 Zn 1.00205 0.52398 0.03215 0.0
C398 C 0.94921 0.49775 1.00472 0.0
N399 N 0.02307 0.49165 0.9504 0.0
C400 C 0.03854 0.51009 0.93514 0.0
C401 C 0.01462 0.46696 0.93889 0.0
C402 C 0.02149 0.46029 0.91071 0.0
C403 C 0.03727 0.47918 0.8945 0.0
C404 C 0.04589 0.50426 0.90715 0.0
Zn405 Zn 0.01184 0.50447 0.99029 0.0
O406 O 0.98771 0.56523 0.01498 0.0
C407 C 0.06471 0.5306 0.01768 0.0
O408 O 0.99666 0.54577 0.97352 0.0
H409 H 1.00223 0.45269 0.95143 0.0
H410 H 0.01194 0.57583 0.07041 0.0
H411 H 0.04473 0.52977 0.9445 0.0
O412 O 0.04614 0.53682 0.03743 0.0
O413 O 0.05603 0.51741 0.99609 0.0
H414 H 0.96912 0.49902 0.07831 0.0
O415 O 0.02641 0.46333 1.00747 0.0
O416 O 0.01695 0.4826 0.04893 0.0
O417 O 0.9679 0.49151 0.98507 0.0
O418 O 0.95773 0.51108 0.02631 0.0
C419 C 0.02601 0.46094 0.03426 0.0
H420 H 1.0001 0.58833 0.12009 0.0
H421 H 0.95685 0.50951 0.12758 0.0
H422 H 0.01453 0.44066 0.9017 0.0
H423 H 0.0575 0.51972 0.8953 0.0
H424 H 0.13577 0.077 0.31308 0.0
H425 H 0.05604 0.13562 0.3121 0.0
H426 H 0.11743 0.05448 0.35526 0.0
H427 H 0.03869 0.1138 0.35509 0.0
H428 H 0.03665 0.08804 0.4497 0.0
H429 H 0.05463 0.1092 0.40652 0.0
H430 H 0.07423 0.0253 0.37116 0.0
H431 H 0.05573 1.00396 0.41439 0.0
C432 C 0.11423 0.08507 0.32151 0.0
C433 C 0.09754 0.10836 0.30865 0.0
C434 C 0.10379 0.07212 0.34595 0.0
C435 C 0.07659 0.08229 0.35869 0.0
C436 C 0.05993 0.10558 0.34607 0.0
C437 C 0.07008 0.11825 0.32137 0.0
C438 C 0.04484 0.07399 0.43279 0.0
C439 C 0.0447 0.0442 0.43567 0.0
C440 C 0.05499 0.0862 0.40791 0.0
C441 C 0.06582 0.06902 0.38524 0.0
C442 C 0.06619 0.03919 0.38823 0.0
C443 C 0.05549 0.02695 0.413 0.0
H444 H 0.37408 0.91356 0.83398 0.0
H445 H 0.45756 0.92794 0.79237 0.0
H446 H 0.39147 0.93683 0.87651 0.0
H447 H 0.47508 0.95113 0.8351 0.0
H448 H 0.48193 0.01737 0.90751 0.0
H449 H 0.46372 0.99538 0.86436 0.0
H450 H 0.43006 0.92804 0.91409 0.0
H451 H 0.44827 0.94982 0.95702 0.0
C452 C 0.39614 0.92174 0.83386 0.0
C453 C 0.41438 0.91882 0.80964 0.0
C454 C 0.40621 0.93494 0.85836 0.0
C455 C 0.43469 0.94596 0.85932 0.0
C456 C 0.45292 0.94316 0.83507 0.0
C457 C 0.44299 0.92959 0.81065 0.0
C458 C 0.47044 0.99799 0.90926 0.0
C459 C 0.46656 0.98546 0.93585 0.0
C460 C 0.46021 0.98525 0.88448 0.0
C461 C 0.44543 0.95986 0.88566 0.0
C462 C 0.44108 0.94768 0.91232 0.0
C463 C 0.45165 0.96017 0.93699 0.0
H464 H 0.52326 0.49496 0.81085 0.0
H465 H 0.61643 0.46537 0.79811 0.0
H466 H 0.51503 0.49501 0.75979 0.0
H467 H 0.60819 0.46483 0.7473 0.0
H468 H 0.59052 0.49787 0.65778 0.0
H469 H 0.59884 0.49656 0.70852 0.0
H470 H 0.51217 0.4629 0.72015 0.0
H471 H 0.50317 0.46565 0.66932 0.0
C472 C 0.54192 0.48845 0.7971 0.0
C473 C 0.57053 0.48044 0.80839 0.0
C474 C 0.5372 0.48827 0.76791 0.0
C475 C 0.56094 0.47985 0.74946 0.0
C476 C 0.58954 0.47188 0.76085 0.0
C477 C 0.59429 0.47225 0.78997 0.0
C478 C 0.5732 0.49025 0.67116 0.0
C479 C 0.54608 0.48209 0.65955 0.0
C480 C 0.5781 0.48922 0.70025 0.0
C481 C 0.5561 0.47978 0.71843 0.0
C482 C 0.52936 0.47073 0.70675 0.0
C483 C 0.5244 0.47188 0.6776 0.0
H484 H 0.9008 0.57603 0.29581 0.0
H485 H 0.99254 0.54201 0.30938 0.0
H486 H 0.9097 0.57771 0.24521 0.0
H487 H 1.0014 0.54298 0.25846 0.0
H488 H 0.01495 0.57005 0.16778 0.0
H489 H 0.00605 0.57448 0.21855 0.0
H490 H 0.91718 0.54526 0.20686 0.0
H491 H 0.92551 0.54226 0.15627 0.0
C492 C 0.92278 0.56853 0.28786 0.0
C493 C 0.94589 0.55854 0.30642 0.0
C494 C 0.92791 0.56954 0.25889 0.0
C495 C 0.95622 0.56036 0.24777 0.0
C496 C 0.97946 0.55059 0.26639 0.0
C497 C 0.97437 0.54981 0.29548 0.0
C498 C 0.99329 0.56521 0.17605 0.0
C499 C 0.97099 0.55565 0.15809 0.0
C500 C 0.98835 0.56735 0.20515 0.0
C501 C 0.96102 0.55997 0.21678 0.0
C502 C 0.9384 0.55135 0.19862 0.0
C503 C 0.94328 0.54934 0.16963 0.0
H504 H 0.3122 0.14819 0.11594 0.0
H505 H 0.27391 0.06671 0.11436 0.0
H506 H 0.35698 0.12726 0.09214 0.0
H507 H 0.31859 0.04574 0.09019 0.0
H508 H 0.41594 0.01094 0.07281 0.0
H509 H 0.37063 0.03139 0.09614 0.0
H510 H 0.37539 0.10891 0.04815 0.0
H511 H 0.42125 0.08871 0.02542 0.0
C512 C 0.31319 0.12584 0.11028 0.0
C513 C 0.28929 0.10921 0.11709 0.0
C514 C 0.33893 0.11379 0.09651 0.0
C515 C 0.34157 0.08474 0.08899 0.0
C516 C 0.3177 0.06807 0.09593 0.0
C517 C 0.29199 0.08011 0.10983 0.0
C518 C 0.40729 0.03233 0.06713 0.0
C519 C 0.42239 0.04816 0.04722 0.0
C520 C 0.38111 0.04405 0.08045 0.0
C521 C 0.36916 0.07193 0.07421 0.0
C522 C 0.38407 0.08759 0.05395 0.0
C523 C 0.41033 0.0759 0.0407 0.0
H524 H 0.2388 0.9641 0.61589 0.0
H525 H 0.20252 0.88171 0.61343 0.0
H526 H 0.19378 0.98515 0.592 0.0
H527 H 0.15732 0.9027 0.59009 0.0
H528 H 0.09288 0.94188 0.52404 0.0
H529 H 0.139 0.92207 0.54671 0.0
H530 H 0.14153 0.99836 0.59732 0.0
H531 H 0.0959 0.01852 0.57391 0.0
C532 C 0.22107 0.95053 0.61053 0.0
C533 C 0.2244 0.92117 0.6165 0.0
C534 C 0.19516 0.96261 0.59683 0.0
C535 C 0.17176 0.94569 0.58888 0.0
C536 C 0.17502 0.91638 0.59523 0.0
C537 C 0.20097 0.9043 0.60874 0.0
C538 C 0.10335 0.95452 0.53989 0.0
C539 C 0.09059 0.98182 0.54712 0.0
C540 C 0.12976 0.94304 0.55311 0.0
C541 C 0.14409 0.95843 0.57411 0.0
C542 C 0.13148 0.98593 0.58105 0.0
C543 C 0.10515 0.99748 0.56769 0.0
H544 H 0.76284 0.45726 0.02998 0.0
H545 H 0.7695 0.48085 0.94219 0.0
H546 H 0.81666 0.46229 0.0361 0.0
H547 H 0.82279 0.48698 0.94857 0.0
H548 H 0.92314 0.46964 0.96154 0.0
H549 H 0.87043 0.45972 0.95675 0.0
H550 H 0.851 0.50008 0.03737 0.0
H551 H 0.90373 0.50942 0.04248 0.0
C552 C 0.77578 0.4635 0.01201 0.0
C553 C 0.76185 0.46883 0.98565 0.0
C554 C 0.80654 0.46662 0.01557 0.0
C555 C 0.82401 0.47504 0.99282 0.0
C556 C 0.81009 0.48013 0.96644 0.0
C557 C 0.77941 0.47703 0.9629 0.0
C558 C 0.90766 0.47622 0.97832 0.0
C559 C 0.9176 0.49046 1.00231 0.0
C560 C 0.87742 0.47068 0.97551 0.0
C561 C 0.85648 0.47927 0.99661 0.0
C562 C 0.86659 0.49292 0.02088 0.0
C563 C 0.89681 0.49843 0.0237 0.0
H564 H 0.74875 0.52524 0.45529 0.0
H565 H 0.74051 0.60157 0.50665 0.0
H566 H 0.69542 0.51946 0.46178 0.0
H567 H 0.68729 0.59464 0.51425 0.0
H568 H 0.60425 0.54315 0.54382 0.0
H569 H 0.65685 0.55338 0.53765 0.0
H570 H 0.64534 0.55115 0.44715 0.0
H571 H 0.59253 0.54147 0.45319 0.0
C572 C 0.73564 0.54088 0.46786 0.0
C573 C 0.74901 0.56411 0.48013 0.0
C574 C 0.70511 0.53744 0.47164 0.0
C575 C 0.68734 0.55677 0.48825 0.0
C576 C 0.70065 0.57947 0.50133 0.0
C577 C 0.73116 0.58326 0.49713 0.0
C578 C 0.61289 0.54511 0.52261 0.0
C579 C 0.59438 0.5414 0.49896 0.0
C580 C 0.64288 0.55108 0.51913 0.0
C581 C 0.65501 0.55289 0.49197 0.0
C582 C 0.63643 0.54968 0.46832 0.0
C583 C 0.60626 0.54427 0.47178 0.0
H584 H 0.11646 0.29571 0.0808 0.0
H585 H 0.06259 0.31965 0.15396 0.0
H586 H 0.09752 0.33914 0.0571 0.0
H587 H 0.04199 0.36228 0.12941 0.0
H588 H 0.03518 0.4515 0.09082 0.0
H589 H 0.05311 0.40756 0.11448 0.0
H590 H 0.05704 0.36377 0.03411 0.0
H591 H 0.04023 0.40822 0.01035 0.0
C592 C 0.10054 0.31017 0.09195 0.0
C593 C 0.09148 0.30399 0.11964 0.0
C594 C 0.08919 0.33506 0.07803 0.0
C595 C 0.0681 0.35461 0.09113 0.0
C596 C 0.05855 0.34817 0.11862 0.0
C597 C 0.07009 0.32334 0.13265 0.0
C598 C 0.03985 0.43251 0.07814 0.0
C599 C 0.0363 0.43356 0.04858 0.0
C600 C 0.04997 0.40709 0.0918 0.0
C601 C 0.05663 0.38173 0.07642 0.0
C602 C 0.05274 0.38277 0.04682 0.0
C603 C 0.04286 0.40832 0.03311 0.0
H604 H 0.60371 0.29322 0.98927 0.0
H605 H 0.50892 0.31871 0.97905 0.0
H606 H 0.59251 0.2435 0.98999 0.0
H607 H 0.49789 0.26863 0.97909 0.0
H608 H 0.5009 0.17476 0.94454 0.0
H609 H 0.50874 0.22565 0.94705 0.0
H610 H 0.56579 0.21027 0.02025 0.0
H611 H 0.55766 0.15985 0.01815 0.0
C612 C 0.58041 0.2883 0.98772 0.0
C613 C 0.55722 0.31004 0.98421 0.0
C614 C 0.57404 0.25976 0.98795 0.0
C615 C 0.54435 0.25223 0.98448 0.0
C616 C 0.52103 0.27386 0.98142 0.0
C617 C 0.52738 0.3025 0.98143 0.0
C618 C 0.51489 0.18232 0.96129 0.0
C619 C 0.52906 0.16318 0.98084 0.0
C620 C 0.51933 0.21141 0.96275 0.0
C621 C 0.53806 0.22181 0.98373 0.0
C622 C 0.55168 0.20276 1.00356 0.0
C623 C 0.54714 0.17384 1.00222 0.0
H624 H 0.9557 0.72274 0.52912 0.0
H625 H 0.97068 0.71774 0.4392 0.0
H626 H 0.96775 0.77253 0.5288 0.0
H627 H 0.98137 0.76756 0.43844 0.0
H628 H 0.01996 0.85271 0.44722 0.0
H629 H 0.01482 0.8017 0.45048 0.0
H630 H 0.94639 0.81716 0.51439 0.0
H631 H 0.9533 0.86759 0.51282 0.0
C632 C 0.96161 0.73235 0.50934 0.0
C633 C 0.96244 0.71644 0.48425 0.0
C634 C 0.96832 0.76089 0.50904 0.0
C635 C 0.97541 0.77422 0.48354 0.0
C636 C 0.97662 0.758 0.45855 0.0
C637 C 0.97038 0.72943 0.45895 0.0
C638 C 1.00413 0.84519 0.46224 0.0
C639 C 0.98686 0.86443 0.47953 0.0
C640 C 1.0009 0.81591 0.4639 0.0
C641 C 0.9801 0.80519 0.48266 0.0
C642 C 0.96296 0.82446 0.49998 0.0
C643 C 0.96648 0.8536 0.49862 0.0
H644 H 0.46798 0.72582 0.63488 0.0
H645 H 0.38282 0.72274 0.59139 0.0
H646 H 0.48659 0.68178 0.61128 0.0
H647 H 0.40174 0.67927 0.56743 0.0
H648 H 0.45609 0.61673 0.50843 0.0
H649 H 0.43882 0.66164 0.53152 0.0
H650 H 0.47822 0.63061 0.61014 0.0
H651 H 0.4955 0.58595 0.58717 0.0
C652 C 0.4531 0.71579 0.62047 0.0
C653 C 0.42384 0.72824 0.61509 0.0
C654 C 0.46386 0.6905 0.60682 0.0
C655 C 0.44578 0.67696 0.58723 0.0
C656 C 0.41655 0.68931 0.58192 0.0
C657 C 0.40571 0.71441 0.59571 0.0
C658 C 0.46116 0.61953 0.53061 0.0
C659 C 0.47716 0.5976 0.54588 0.0
C660 C 0.45111 0.64524 0.54392 0.0
C661 C 0.45706 0.64984 0.57277 0.0
C662 C 0.47345 0.62803 0.58787 0.0
C663 C 0.48322 0.60228 0.57468 0.0
H664 H 0.89803 0.96131 0.72611 0.0
H665 H 0.93413 0.87899 0.69606 0.0
H666 H 0.91499 0.98339 0.68321 0.0
H667 H 0.95256 0.90131 0.65384 0.0
H668 H 0.95565 0.94397 0.5678 0.0
H669 H 0.93723 0.92262 0.61054 0.0
H670 H 0.95724 0.9973 0.65812 0.0
H671 H 0.97486 0.01901 0.61503 0.0
C672 C 0.90958 0.94781 0.71041 0.0
C673 C 0.91442 0.91816 0.71479 0.0
C674 C 0.91974 0.96063 0.68581 0.0
C675 C 0.93523 0.9443 0.66471 0.0
C676 C 0.94036 0.9147 0.66923 0.0
C677 C 0.93012 0.90186 0.6938 0.0
C678 C 0.956 0.95597 0.58733 0.0
C679 C 0.96678 0.98332 0.5878 0.0
C680 C 0.94563 0.94355 0.61204 0.0
C681 C 0.94582 0.95798 0.63814 0.0
C682 C 0.95631 0.98552 0.63852 0.0
C683 C 0.96658 0.99801 0.61374 0.0
H684 H 0.57688 0.14908 0.19725 0.0
H685 H 0.61327 0.06706 0.22786 0.0
H686 H 0.55879 0.12644 0.15485 0.0
H687 H 0.59665 0.04466 0.1848 0.0
H688 H 0.53746 1.00867 0.11554 0.0
H689 H 0.55454 0.03051 0.15902 0.0
H690 H 0.57524 0.10503 0.1119 0.0
H691 H 0.55739 0.08358 0.06883 0.0
C692 C 0.58101 0.12621 0.19507 0.0
C693 C 0.59673 0.11008 0.21622 0.0
C694 C 0.57097 0.11319 0.17042 0.0
C695 C 0.57635 0.08358 0.16601 0.0
C696 C 0.59176 0.06741 0.18732 0.0
C697 C 0.60171 0.08042 0.21199 0.0
C698 C 0.54581 0.02965 0.11445 0.0
C699 C 0.54594 0.0443 0.08857 0.0
C700 C 0.55574 0.04221 0.13944 0.0
C701 C 0.5662 0.06977 0.13928 0.0
C702 C 0.56681 0.0841 0.11321 0.0
C703 C 0.55678 0.07162 0.08832 0.0
H704 H 0.47051 0.5889 0.2142 0.0
H705 H 0.43226 0.50738 0.21838 0.0
H706 H 0.4808 0.58678 0.2647 0.0
H707 H 0.44133 0.50588 0.2692 0.0
H708 H 0.48858 0.49892 0.35427 0.0
H709 H 0.48203 0.50068 0.30324 0.0
H710 H 0.45303 0.59031 0.30876 0.0
H711 H 0.45997 0.58855 0.36001 0.0
C712 C 0.46457 0.57037 0.22584 0.0
C713 C 0.45071 0.5482 0.21223 0.0
C714 C 0.47006 0.56938 0.25487 0.0
C715 C 0.46176 0.54625 0.27098 0.0
C716 C 0.44826 0.52389 0.25733 0.0
C717 C 0.44281 0.52485 0.22826 0.0
C718 C 0.48066 0.51898 0.34459 0.0
C719 C 0.47448 0.54356 0.36111 0.0
C720 C 0.47689 0.51997 0.31536 0.0
C721 C 0.4668 0.54556 0.30197 0.0
C722 C 0.46115 0.57032 0.31844 0.0
C723 C 0.46505 0.56934 0.34775 0.0
H724 H 0.02316 0.48947 0.71307 0.0
H725 H 0.11485 0.45521 0.72655 0.0
H726 H 0.01425 0.48822 0.76395 0.0
H727 H 0.1059 0.45334 0.77714 0.0
H728 H 0.08935 0.4872 0.86668 0.0
H729 H 0.09812 0.48503 0.81612 0.0
H730 H 0.00938 0.45595 0.80319 0.0
H731 H 1.00006 0.45952 0.85395 0.0
C732 C 0.04134 0.48161 0.72694 0.0
C733 C 0.06978 0.47279 0.71595 0.0
C734 C 0.03621 0.48067 0.75602 0.0
C735 C 0.05938 0.47066 0.77461 0.0
C736 C 0.08773 0.46163 0.76348 0.0
C737 C 0.09289 0.46278 0.73451 0.0
C738 C 0.07171 0.48031 0.85305 0.0
C739 C 0.0439 0.47381 0.86425 0.0
C740 C 0.07684 0.47879 0.82407 0.0
C741 C 0.05437 0.4705 0.80557 0.0
C742 C 0.02696 0.46287 0.81686 0.0
C743 C 0.02178 0.4645 0.84594 0.0
H744 H 0.71958 0.88381 0.93719 0.0
H745 H 0.72065 0.95808 0.8837 0.0
H746 H 0.67587 0.90534 0.96146 0.0
H747 H 0.6751 0.97845 0.90621 0.0
H748 H 0.60776 0.02122 0.9676 0.0
H749 H 0.6538 1.00071 0.94549 0.0
H750 H 0.62494 0.91618 0.95931 0.0
H751 H 0.57999 0.93679 0.98283 0.0
C752 C 0.71062 0.90475 0.93048 0.0
C753 C 0.7242 0.91908 0.90837 0.0
C754 C 0.68492 0.91698 0.94417 0.0
C755 C 0.67143 0.94378 0.93594 0.0
C756 C 0.68484 0.95803 0.91366 0.0
C757 C 0.71088 0.946 0.90027 0.0
C758 C 0.61142 0.99824 0.96607 0.0
C759 C 0.59021 0.98068 0.97713 0.0
C760 C 0.63779 0.98639 0.9531 0.0
C761 C 0.64348 0.95659 0.95034 0.0
C762 C 0.62203 0.93913 0.96142 0.0
C763 C 0.59599 0.95098 0.97483 0.0
H764 H 0.77314 0.11942 0.45212 0.0
H765 H 0.80749 0.08968 0.37122 0.0
H766 H 0.81845 0.09814 0.47512 0.0
H767 H 0.85261 0.068 0.39439 0.0
H768 H 0.91633 1.00938 0.44928 0.0
H769 H 0.86984 0.02931 0.42697 0.0
H770 H 0.87238 0.10502 0.47829 0.0
H771 H 0.91868 0.08506 0.50075 0.0
C772 C 0.79038 0.10853 0.43915 0.0
C773 C 0.78652 0.10648 0.40969 0.0
C774 C 0.8164 0.09624 0.45241 0.0
C775 C 0.83928 0.08137 0.43665 0.0
C776 C 0.8353 0.07896 0.40726 0.0
C777 C 0.80933 0.0914 0.39396 0.0
C778 C 0.90691 0.03023 0.45592 0.0
C779 C 0.92131 0.04559 0.47685 0.0
C780 C 0.88033 0.04174 0.44297 0.0
C781 C 0.86733 0.06882 0.45076 0.0
C782 C 0.88154 0.08399 0.47196 0.0
C783 C 0.90821 0.07258 0.48477 0.0
H784 H 0.25886 0.51738 0.02453 0.0
H785 H 0.23562 0.60552 0.04615 0.0
H786 H 0.20557 0.51012 0.01807 0.0
H787 H 0.1823 0.59838 0.03926 0.0
H788 H 0.09059 0.56135 0.05914 0.0
H789 H 0.14353 0.57104 0.06351 0.0
H790 H 0.16321 0.52564 0.9856 0.0
H791 H 0.11051 0.51582 0.98122 0.0
C792 C 0.24234 0.53521 0.02778 0.0
C793 C 0.25135 0.562 0.03583 0.0
C794 C 0.21189 0.53112 0.02388 0.0
C795 C 0.18981 0.55369 0.02819 0.0
C796 C 0.19883 0.58056 0.03602 0.0
C797 C 0.22932 0.58471 0.03967 0.0
C798 C 0.10619 0.55356 0.04289 0.0
C799 C 0.09638 0.53771 0.01992 0.0
C800 C 0.13645 0.55923 0.04532 0.0
C801 C 0.15747 0.54898 0.02495 0.0
C802 C 0.14756 0.5335 1.00179 0.0
C803 C 0.11734 0.52801 0.99925 0.0
H804 H 0.27257 0.47512 0.586 0.0
H805 H 0.26512 0.45111 0.49827 0.0
H806 H 0.32547 0.48261 0.5792 0.0
H807 H 0.31852 0.45735 0.49177 0.0
H808 H 0.40227 0.50786 0.48331 0.0
H809 H 0.3505 0.49642 0.48975 0.0
H810 H 0.37428 0.45806 0.57047 0.0
H811 H 0.42617 0.4702 0.56435 0.0
C812 C 0.28224 0.47141 0.56524 0.0
C813 C 0.26452 0.46283 0.54259 0.0
C814 C 0.3127 0.4753 0.56146 0.0
C815 C 0.32624 0.4706 0.53494 0.0
C816 C 0.30868 0.46148 0.51239 0.0
C817 C 0.27815 0.45763 0.51617 0.0
C818 C 0.39654 0.49689 0.50242 0.0
C819 C 0.41832 0.49009 0.52342 0.0
C820 C 0.36686 0.49013 0.506 0.0
C821 C 0.35822 0.47633 0.53062 0.0
C822 C 0.38013 0.46905 0.55142 0.0
C823 C 0.40988 0.47587 0.54786 0.0
H824 H 0.96044 0.74252 0.92236 0.0
H825 H 0.88761 0.69802 0.88769 0.0
H826 H 0.97989 0.69875 0.94665 0.0
H827 H 0.90718 0.65433 0.91157 0.0
H828 H 0.9719 0.57525 0.93275 0.0
H829 H 0.95399 0.61935 0.90888 0.0
H830 H 0.96237 0.66594 0.98669 0.0
H831 H 0.97989 0.62156 0.01087 0.0
C832 C 0.94875 0.72335 0.91972 0.0
C833 C 0.92248 0.72379 0.90306 0.0
C834 C 0.95974 0.69835 0.93382 0.0
C835 C 0.94508 0.67301 0.9311 0.0
C836 C 0.91912 0.67339 0.91402 0.0
C837 C 0.90783 0.69846 0.90042 0.0
C838 C 0.96997 0.59486 0.94485 0.0
C839 C 0.97731 0.59475 0.97382 0.0
C840 C 0.95957 0.62015 0.93114 0.0
C841 C 0.95671 0.64621 0.94583 0.0
C842 C 0.96449 0.64626 0.9747 0.0
C843 C 0.97438 0.6208 0.9886 0.0
H844 H 0.40955 0.73825 0.03789 0.0
H845 H 0.50452 0.71177 0.04345 0.0
H846 H 0.42104 0.78778 0.03957 0.0
H847 H 0.51588 0.76143 0.04704 0.0
H848 H 0.52568 0.85555 0.0251 0.0
H849 H 0.51662 0.80521 0.02189 0.0
H850 H 0.43718 0.82064 0.07357 0.0
H851 H 0.44588 0.87112 0.07595 0.0
C852 C 0.43294 0.74295 0.03914 0.0
C853 C 0.4561 0.72094 0.04056 0.0
C854 C 0.43949 0.77141 0.04068 0.0
C855 C 0.46934 0.77862 0.04397 0.0
C856 C 0.49263 0.75667 0.04446 0.0
C857 C 0.48609 0.72817 0.04266 0.0
C858 C 0.50659 0.84801 0.03614 0.0
C859 C 0.48644 0.86715 0.05074 0.0
C860 C 0.50135 0.81919 0.03428 0.0
C861 C 0.47596 0.80891 0.04718 0.0
C862 C 0.45652 0.82796 0.06276 0.0
C863 C 0.4616 0.85681 0.06436 0.0
H864 H 0.00766 0.31721 0.54147 0.0
H865 H 0.10242 0.28945 0.5385 0.0
H866 H 0.99551 0.2678 0.5454 0.0
H867 H 0.09017 0.24018 0.54047 0.0
H868 H 0.06397 0.15786 0.57706 0.0
H869 H 0.07304 0.20823 0.57451 0.0
H870 H 0.99451 0.22352 0.52106 0.0
H871 H 0.98502 0.17328 0.52448 0.0
C872 C 0.02589 0.30059 0.54131 0.0
C873 C 0.05604 0.3074 0.53987 0.0
C874 C 0.01889 0.27222 0.5433 0.0
C875 C 0.04188 0.25 0.54366 0.0
C876 C 0.07192 0.25677 0.54095 0.0
C877 C 0.07893 0.28509 0.53923 0.0
C878 C 0.04849 0.17214 0.56509 0.0
C879 C 0.02383 0.16177 0.55098 0.0
C880 C 0.0538 0.20092 0.56337 0.0
C881 C 0.03479 0.21987 0.54717 0.0
C882 C 0.00948 0.20961 0.53389 0.0
C883 C 1.00399 0.18085 0.53588 0.0
H884 H 0.63136 0.30989 0.43061 0.0
H885 H 0.5454 0.30479 0.38905 0.0
H886 H 0.61221 0.35343 0.45433 0.0
H887 H 0.52653 0.34889 0.41241 0.0
H888 H 0.51612 0.44492 0.43576 0.0
H889 H 0.53371 0.4003 0.41286 0.0
H890 H 0.57582 0.37075 0.49083 0.0
H891 H 0.55826 0.41559 0.51383 0.0
C892 C 0.60826 0.3178 0.42666 0.0
C893 C 0.58997 0.30338 0.40791 0.0
C894 C 0.59728 0.34293 0.44031 0.0
C895 C 0.56774 0.35472 0.43549 0.0
C896 C 0.5495 0.34062 0.41649 0.0
C897 C 0.5604 0.31529 0.40297 0.0
C898 C 0.52905 0.42891 0.44813 0.0
C899 C 0.53579 0.43399 0.47671 0.0
C900 C 0.53901 0.40318 0.43497 0.0
C901 C 0.55626 0.38181 0.4499 0.0
C902 C 0.56286 0.38681 0.47855 0.0
C903 C 0.55264 0.41248 0.49182 0.0
loop_
_geom_bond_atom_site_label_1
_geom_bond_atom_site_label_2
_geom_bond_distance
_geom_bond_site_symmetry_2
_ccdc_geom_bond_type
C0 C1 1.384 . S
C0 H13 0.947 . S
C0 C35 1.382 . S
C1 C0 1.384 . S
C1 C2 1.378 . S
C2 C1 1.378 . S
C2 C3 1.378 . S
C2 H14 0.952 . S
C3 C2 1.378 . S
C3 H15 0.950 . S
C3 C34 1.383 . S
H4 C23 0.947 . S
H5 C24 0.946 . S
H6 C26 0.953 . S
H7 C27 0.945 . S
H8 C29 0.952 . S
H9 C30 0.949 . S
H10 C32 0.950 . S
H11 C33 0.948 . S
H12 C35 0.951 . S
H13 C0 0.947 . S
H14 C2 0.952 . S
H15 C3 0.950 . S
N16 C19 1.382 . S
N16 C21 1.363 . S
N17 C19 1.371 . S
N17 C20 1.372 . S
N18 C20 1.361 . S
N18 C21 1.377 . S
C19 N16 1.382 . S
C19 N17 1.371 . S
C19 C22 1.480 . S
C20 N17 1.372 . S
C20 N18 1.361 . S
C20 C28 1.457 . S
C21 N16 1.363 . S
C21 N18 1.377 . S
C21 C34 1.479 . S
C22 C19 1.480 . S
C22 C23 1.383 . S
C22 C27 1.385 . S
C23 H4 0.947 . S
C23 C22 1.383 . S
C23 C24 1.388 . S
C24 H5 0.946 . S
C24 C23 1.388 . S
C24 C25 1.384 . S
C25 C24 1.384 . S
C25 C26 1.377 . S
C26 H6 0.953 . S
C26 C25 1.377 . S
C26 C27 1.369 . S
C27 H7 0.945 . S
C27 C22 1.385 . S
C27 C26 1.369 . S
C28 C20 1.457 . S
C28 C29 1.372 . S
C28 C33 1.364 . S
C29 H8 0.952 . S
C29 C28 1.372 . S
C29 C30 1.389 . S
C30 H9 0.949 . S
C30 C29 1.389 . S
C30 C31 1.387 . S
C31 C30 1.387 . S
C31 C32 1.372 . S
C32 H10 0.950 . S
C32 C31 1.372 . S
C32 C33 1.379 . S
C33 H11 0.948 . S
C33 C28 1.364 . S
C33 C32 1.379 . S
C34 C3 1.383 . S
C34 C21 1.479 . S
C34 C35 1.398 . S
C35 C0 1.382 . S
C35 H12 0.951 . S
C35 C34 1.398 . S
C36 C37 1.384 . S
C36 H49 0.947 . S
C36 C71 1.382 . S
C37 C36 1.384 . S
C37 C38 1.378 . S
C38 C37 1.378 . S
C38 C39 1.378 . S
C38 H50 0.952 . S
C39 C38 1.378 . S
C39 H51 0.950 . S
C39 C70 1.383 . S
H40 C59 0.947 . S
H41 C60 0.946 . S
H42 C62 0.953 . S
H43 C63 0.945 . S
H44 C65 0.952 . S
H45 C66 0.949 . S
H46 C68 0.950 . S
H47 C69 0.948 . S
H48 C71 0.951 . S
H49 C36 0.947 . S
H50 C38 0.952 . S
H51 C39 0.950 . S
N52 C55 1.382 . S
N52 C57 1.363 . S
N53 C55 1.371 . S
N53 C56 1.372 . S
N54 C56 1.361 . S
N54 C57 1.377 . S
C55 N52 1.382 . S
C55 N53 1.371 . S
C55 C58 1.480 . S
C56 N53 1.372 . S
C56 N54 1.361 . S
C56 C64 1.457 . S
C57 N52 1.363 . S
C57 N54 1.377 . S
C57 C70 1.479 . S
C58 C55 1.480 . S
C58 C59 1.383 . S
C58 C63 1.385 . S
C59 H40 0.947 . S
C59 C58 1.383 . S
C59 C60 1.388 . S
C60 H41 0.946 . S
C60 C59 1.388 . S
C60 C61 1.384 . S
C61 C60 1.384 . S
C61 C62 1.377 . S
C62 H42 0.953 . S
C62 C61 1.377 . S
C62 C63 1.369 . S
C63 H43 0.945 . S
C63 C58 1.385 . S
C63 C62 1.369 . S
C64 C56 1.457 . S
C64 C65 1.372 . S
C64 C69 1.364 . S
C65 H44 0.952 . S
C65 C64 1.372 . S
C65 C66 1.389 . S
C66 H45 0.949 . S
C66 C65 1.389 . S
C66 C67 1.387 . S
C67 C66 1.387 . S
C67 C68 1.372 . S
C68 H46 0.950 . S
C68 C67 1.372 . S
C68 C69 1.379 . S
C69 H47 0.948 . S
C69 C64 1.364 . S
C69 C68 1.379 . S
C70 C39 1.383 . S
C70 C57 1.479 . S
C70 C71 1.398 . S
C71 C36 1.382 . S
C71 H48 0.951 . S
C71 C70 1.398 . S
C72 C73 1.384 . S
C72 H85 0.947 . S
C72 C107 1.382 . S
C73 C72 1.384 . S
C73 C74 1.378 . S
C74 C73 1.378 . S
C74 C75 1.378 . S
C74 H86 0.952 . S
C75 C74 1.378 . S
C75 H87 0.950 . S
C75 C106 1.383 . S
H76 C95 0.947 . S
H77 C96 0.946 . S
H78 C98 0.953 . S
H79 C99 0.945 . S
H80 C101 0.952 . S
H81 C102 0.949 . S
H82 C104 0.950 . S
H83 C105 0.948 . S
H84 C107 0.951 . S
H85 C72 0.947 . S
H86 C74 0.952 . S
H87 C75 0.950 . S
N88 C91 1.382 . S
N88 C93 1.363 . S
N89 C91 1.371 . S
N89 C92 1.372 . S
N90 C92 1.361 . S
N90 C93 1.377 . S
C91 N88 1.382 . S
C91 N89 1.371 . S
C91 C94 1.480 . S
C92 N89 1.372 . S
C92 N90 1.361 . S
C92 C100 1.457 . S
C93 N88 1.363 . S
C93 N90 1.377 . S
C93 C106 1.479 . S
C94 C91 1.480 . S
C94 C95 1.383 . S
C94 C99 1.385 . S
C95 H76 0.947 . S
C95 C94 1.383 . S
C95 C96 1.388 . S
C96 H77 0.946 . S
C96 C95 1.388 . S
C96 C97 1.384 . S
C97 C96 1.384 . S
C97 C98 1.377 . S
C98 H78 0.953 . S
C98 C97 1.377 . S
C98 C99 1.369 . S
C99 H79 0.945 . S
C99 C94 1.385 . S
C99 C98 1.369 . S
C100 C92 1.457 . S
C100 C101 1.372 . S
C100 C105 1.364 . S
C101 H80 0.952 . S
C101 C100 1.372 . S
C101 C102 1.389 . S
C102 H81 0.949 . S
C102 C101 1.389 . S
C102 C103 1.387 . S
C103 C102 1.387 . S
C103 C104 1.372 . S
C104 H82 0.950 . S
C104 C103 1.372 . S
C104 C105 1.379 . S
C105 H83 0.948 . S
C105 C100 1.364 . S
C105 C104 1.379 . S
C106 C75 1.383 . S
C106 C93 1.479 . S
C106 C107 1.398 . S
C107 C72 1.382 . S
C107 H84 0.951 . S
C107 C106 1.398 . S
C108 C109 1.384 . S
C108 H121 0.947 . S
C108 C143 1.382 . S
C109 C108 1.384 . S
C109 C110 1.378 . S
C110 C109 1.378 . S
C110 C111 1.378 . S
C110 H122 0.952 . S
C111 C110 1.378 . S
C111 H123 0.950 . S
C111 C142 1.383 . S
H112 C131 0.947 . S
H113 C132 0.946 . S
H114 C134 0.953 . S
H115 C135 0.945 . S
H116 C137 0.952 . S
H117 C138 0.949 . S
H118 C140 0.950 . S
H119 C141 0.948 . S
H120 C143 0.951 . S
H121 C108 0.947 . S
H122 C110 0.952 . S
H123 C111 0.950 . S
N124 C127 1.382 . S
N124 C129 1.363 . S
N125 C127 1.371 . S
N125 C128 1.372 . S
N126 C128 1.361 . S
N126 C129 1.377 . S
C127 N124 1.382 . S
C127 N125 1.371 . S
C127 C130 1.480 . S
C128 N125 1.372 . S
C128 N126 1.361 . S
C128 C136 1.457 . S
C129 N124 1.363 . S
C129 N126 1.377 . S
C129 C142 1.479 . S
C130 C127 1.480 . S
C130 C131 1.383 . S
C130 C135 1.385 . S
C131 H112 0.947 . S
C131 C130 1.383 . S
C131 C132 1.388 . S
C132 H113 0.946 . S
C132 C131 1.388 . S
C132 C133 1.384 . S
C133 C132 1.384 . S
C133 C134 1.377 . S
C134 H114 0.953 . S
C134 C133 1.377 . S
C134 C135 1.369 . S
C135 H115 0.945 . S
C135 C130 1.385 . S
C135 C134 1.369 . S
C136 C128 1.457 . S
C136 C137 1.372 . S
C136 C141 1.364 . S
C137 H116 0.952 . S
C137 C136 1.372 . S
C137 C138 1.389 . S
C138 H117 0.949 . S
C138 C137 1.389 . S
C138 C139 1.387 . S
C139 C138 1.387 . S
C139 C140 1.372 . S
C140 H118 0.950 . S
C140 C139 1.372 . S
C140 C141 1.379 . S
C141 H119 0.948 . S
C141 C136 1.364 . S
C141 C140 1.379 . S
C142 C111 1.383 . S
C142 C129 1.479 . S
C142 C143 1.398 . S
C143 C108 1.382 . S
C143 H120 0.951 . S
C143 C142 1.398 . S
C144 C145 1.384 . S
C144 H157 0.947 . S
C144 C179 1.382 . S
C145 C144 1.384 . S
C145 C146 1.378 . S
C146 C145 1.378 . S
C146 C147 1.378 . S
C146 H158 0.952 . S
C147 C146 1.378 . S
C147 H159 0.950 . S
C147 C178 1.383 . S
H148 C167 0.947 . S
H149 C168 0.946 . S
H150 C170 0.953 . S
H151 C171 0.945 . S
H152 C173 0.952 . S
H153 C174 0.949 . S
H154 C176 0.950 . S
H155 C177 0.948 . S
H156 C179 0.951 . S
H157 C144 0.947 . S
H158 C146 0.952 . S
H159 C147 0.950 . S
N160 C163 1.382 . S
N160 C165 1.363 . S
N161 C163 1.371 . S
N161 C164 1.372 . S
N162 C164 1.361 . S
N162 C165 1.377 . S
C163 N160 1.382 . S
C163 N161 1.371 . S
C163 C166 1.480 . S
C164 N161 1.372 . S
C164 N162 1.361 . S
C164 C172 1.457 . S
C165 N160 1.363 . S
C165 N162 1.377 . S
C165 C178 1.479 . S
C166 C163 1.480 . S
C166 C167 1.383 . S
C166 C171 1.385 . S
C167 H148 0.947 . S
C167 C166 1.383 . S
C167 C168 1.388 . S
C168 H149 0.946 . S
C168 C167 1.388 . S
C168 C169 1.384 . S
C169 C168 1.384 . S
C169 C170 1.377 . S
C170 H150 0.953 . S
C170 C169 1.377 . S
C170 C171 1.369 . S
C171 H151 0.945 . S
C171 C166 1.385 . S
C171 C170 1.369 . S
C172 C164 1.457 . S
C172 C173 1.372 . S
C172 C177 1.364 . S
C173 H152 0.952 . S
C173 C172 1.372 . S
C173 C174 1.389 . S
C174 H153 0.949 . S
C174 C173 1.389 . S
C174 C175 1.387 . S
C175 C174 1.387 . S
C175 C176 1.372 . S
C176 H154 0.950 . S
C176 C175 1.372 . S
C176 C177 1.379 . S
C177 H155 0.948 . S
C177 C172 1.364 . S
C177 C176 1.379 . S
C178 C147 1.383 . S
C178 C165 1.479 . S
C178 C179 1.398 . S
C179 C144 1.382 . S
C179 H156 0.951 . S
C179 C178 1.398 . S
C180 C181 1.384 . S
C180 H193 0.947 . S
C180 C215 1.382 . S
C181 C180 1.384 . S
C181 C182 1.378 . S
C182 C181 1.378 . S
C182 C183 1.378 . S
C182 H194 0.952 . S
C183 C182 1.378 . S
C183 H195 0.950 . S
C183 C214 1.383 . S
H184 C203 0.947 . S
H185 C204 0.946 . S
H186 C206 0.953 . S
H187 C207 0.945 . S
H188 C209 0.952 . S
H189 C210 0.949 . S
H190 C212 0.950 . S
H191 C213 0.948 . S
H192 C215 0.951 . S
H193 C180 0.947 . S
H194 C182 0.952 . S
H195 C183 0.950 . S
N196 C199 1.382 . S
N196 C201 1.363 . S
N197 C199 1.371 . S
N197 C200 1.372 . S
N198 C200 1.361 . S
N198 C201 1.377 . S
C199 N196 1.382 . S
C199 N197 1.371 . S
C199 C202 1.480 . S
C200 N197 1.372 . S
C200 N198 1.361 . S
C200 C208 1.457 . S
C201 N196 1.363 . S
C201 N198 1.377 . S
C201 C214 1.479 . S
C202 C199 1.480 . S
C202 C203 1.383 . S
C202 C207 1.385 . S
C203 H184 0.947 . S
C203 C202 1.383 . S
C203 C204 1.388 . S
C204 H185 0.946 . S
C204 C203 1.388 . S
C204 C205 1.384 . S
C205 C204 1.384 . S
C205 C206 1.377 . S
C206 H186 0.953 . S
C206 C205 1.377 . S
C206 C207 1.369 . S
C207 H187 0.945 . S
C207 C202 1.385 . S
C207 C206 1.369 . S
C208 C200 1.457 . S
C208 C209 1.372 . S
C208 C213 1.364 . S
C209 H188 0.952 . S
C209 C208 1.372 . S
C209 C210 1.389 . S
C210 H189 0.949 . S
C210 C209 1.389 . S
C210 C211 1.387 . S
C211 C210 1.387 . S
C211 C212 1.372 . S
C212 H190 0.950 . S
C212 C211 1.372 . S
C212 C213 1.379 . S
C213 H191 0.948 . S
C213 C208 1.364 . S
C213 C212 1.379 . S
C214 C183 1.383 . S
C214 C201 1.479 . S
C214 C215 1.398 . S
C215 C180 1.382 . S
C215 H192 0.951 . S
C215 C214 1.398 . S
C216 C217 1.384 . S
C216 H229 0.947 . S
C216 C251 1.382 . S
C217 C216 1.384 . S
C217 C218 1.378 . S
C218 C217 1.378 . S
C218 C219 1.378 . S
C218 H230 0.952 . S
C219 C218 1.378 . S
C219 H231 0.950 . S
C219 C250 1.383 . S
H220 C239 0.947 . S
H221 C240 0.946 . S
H222 C242 0.953 . S
H223 C243 0.945 . S
H224 C245 0.952 . S
H225 C246 0.949 . S
H226 C248 0.950 . S
H227 C249 0.948 . S
H228 C251 0.951 . S
H229 C216 0.947 . S
H230 C218 0.952 . S
H231 C219 0.950 . S
N232 C235 1.382 . S
N232 C237 1.363 . S
N233 C235 1.371 . S
N233 C236 1.372 . S
N234 C236 1.361 . S
N234 C237 1.377 . S
C235 N232 1.382 . S
C235 N233 1.371 . S
C235 C238 1.480 . S
C236 N233 1.372 . S
C236 N234 1.361 . S
C236 C244 1.457 . S
C237 N232 1.363 . S
C237 N234 1.377 . S
C237 C250 1.479 . S
C238 C235 1.480 . S
C238 C239 1.383 . S
C238 C243 1.385 . S
C239 H220 0.947 . S
C239 C238 1.383 . S
C239 C240 1.388 . S
C240 H221 0.946 . S
C240 C239 1.388 . S
C240 C241 1.384 . S
C241 C240 1.384 . S
C241 C242 1.377 . S
C242 H222 0.953 . S
C242 C241 1.377 . S
C242 C243 1.369 . S
C243 H223 0.945 . S
C243 C238 1.385 . S
C243 C242 1.369 . S
C244 C236 1.457 . S
C244 C245 1.372 . S
C244 C249 1.364 . S
C245 H224 0.952 . S
C245 C244 1.372 . S
C245 C246 1.389 . S
C246 H225 0.949 . S
C246 C245 1.389 . S
C246 C247 1.387 . S
C247 C246 1.387 . S
C247 C248 1.372 . S
C248 H226 0.950 . S
C248 C247 1.372 . S
C248 C249 1.379 . S
C249 H227 0.948 . S
C249 C244 1.364 . S
C249 C248 1.379 . S
C250 C219 1.383 . S
C250 C237 1.479 . S
C250 C251 1.398 . S
C251 C216 1.382 . S
C251 H228 0.951 . S
C251 C250 1.398 . S
C252 C253 1.384 . S
C252 H265 0.947 . S
C252 C287 1.382 . S
C253 C252 1.384 . S
C253 C254 1.378 . S
C254 C253 1.378 . S
C254 C255 1.378 . S
C254 H266 0.952 . S
C255 C254 1.378 . S
C255 H267 0.950 . S
C255 C286 1.383 . S
H256 C275 0.947 . S
H257 C276 0.946 . S
H258 C278 0.953 . S
H259 C279 0.945 . S
H260 C281 0.952 . S
H261 C282 0.949 . S
H262 C284 0.950 . S
H263 C285 0.948 . S
H264 C287 0.951 . S
H265 C252 0.947 . S
H266 C254 0.952 . S
H267 C255 0.950 . S
N268 C271 1.382 . S
N268 C273 1.363 . S
N269 C271 1.371 . S
N269 C272 1.372 . S
N270 C272 1.361 . S
N270 C273 1.377 . S
C271 N268 1.382 . S
C271 N269 1.371 . S
C271 C274 1.480 . S
C272 N269 1.372 . S
C272 N270 1.361 . S
C272 C280 1.457 . S
C273 N268 1.363 . S
C273 N270 1.377 . S
C273 C286 1.479 . S
C274 C271 1.480 . S
C274 C275 1.383 . S
C274 C279 1.385 . S
C275 H256 0.947 . S
C275 C274 1.383 . S
C275 C276 1.388 . S
C276 H257 0.946 . S
C276 C275 1.388 . S
C276 C277 1.384 . S
C277 C276 1.384 . S
C277 C278 1.377 . S
C278 H258 0.953 . S
C278 C277 1.377 . S
C278 C279 1.369 . S
C279 H259 0.945 . S
C279 C274 1.385 . S
C279 C278 1.369 . S
C280 C272 1.457 . S
C280 C281 1.372 . S
C280 C285 1.364 . S
C281 H260 0.952 . S
C281 C280 1.372 . S
C281 C282 1.389 . S
C282 H261 0.949 . S
C282 C281 1.389 . S
C282 C283 1.387 . S
C283 C282 1.387 . S
C283 C284 1.372 . S
C284 H262 0.950 . S
C284 C283 1.372 . S
C284 C285 1.379 . S
C285 H263 0.948 . S
C285 C280 1.364 . S
C285 C284 1.379 . S
C286 C255 1.383 . S
C286 C273 1.479 . S
C286 C287 1.398 . S
C287 C252 1.382 . S
C287 H264 0.951 . S
C287 C286 1.398 . S
C288 O304 1.251 . S
C288 O306 1.254 1_545 S
N289 C290 1.333 . S
N289 C294 1.307 . S
N289 Zn295 2.020 . S
C290 N289 1.333 . S
C290 C291 1.379 . S
C290 H308 0.952 . S
C291 C290 1.379 . S
C291 C292 1.390 . S
C291 H318 0.949 . S
C292 C291 1.390 . S
C292 C293 1.357 . S
C293 C292 1.357 . S
C293 C294 1.370 . S
C293 H319 0.950 . S
C294 N289 1.307 . S
C294 C293 1.370 . S
C294 H312 0.948 1_455 S
Zn295 N289 2.020 . S
Zn295 O304 2.039 . S
Zn295 O310 2.034 . S
Zn295 O314 2.025 1_455 S
Zn295 O316 2.024 1_455 S
C296 O315 1.246 1_545 S
C296 O316 1.249 . S
N297 C298 1.307 . S
N297 C299 1.333 . S
N297 Zn303 2.020 . S
C298 N297 1.307 . S
C298 C302 1.370 . S
C298 H309 0.948 1_655 S
C299 N297 1.333 . S
C299 C300 1.379 . S
C299 H307 0.952 . S
C300 C299 1.379 . S
C300 C301 1.390 . S
C300 H320 0.949 . S
C301 C300 1.390 . S
C301 C302 1.357 . S
C302 C298 1.370 . S
C302 C301 1.357 . S
C302 H321 0.968 . S
Zn303 N297 2.020 . S
Zn303 O306 2.025 1_655 S
Zn303 O311 2.024 1_655 S
Zn303 O313 2.039 . S
Zn303 O315 2.034 . S
O304 C288 1.251 . S
O304 Zn295 2.039 . S
C305 O310 1.246 1_565 S
C305 O311 1.249 . S
O306 C288 1.254 1_565 S
O306 Zn303 2.025 1_455 S
H307 C299 0.952 . S
H308 C290 0.952 . S
H309 C298 0.948 1_455 S
O310 Zn295 2.034 . S
O310 C305 1.246 1_545 S
O311 Zn303 2.024 1_455 S
O311 C305 1.249 . S
H312 C294 0.948 1_655 S
O313 Zn303 2.039 . S
O313 C317 1.251 . S
O314 Zn295 2.025 1_655 S
O314 C317 1.254 1_545 S
O315 C296 1.246 1_565 S
O315 Zn303 2.034 . S
O316 Zn295 2.024 1_655 S
O316 C296 1.249 . S
C317 O313 1.251 . S
C317 O314 1.254 1_565 S
H318 C291 0.949 . S
H319 C293 0.950 . S
H320 C300 0.949 . S
H321 C302 0.968 . S
C322 O338 1.251 1_565 S
C322 O340 1.254 . S
N323 C324 1.333 . S
N323 C328 1.307 . S
N323 Zn329 2.020 . S
C324 N323 1.333 . S
C324 C325 1.379 . S
C324 H342 0.952 . S
C325 C324 1.379 . S
C325 C326 1.390 . S
C325 H352 0.949 . S
C326 C325 1.390 . S
C326 C327 1.357 . S
C327 C326 1.357 . S
C327 C328 1.370 . S
C327 H353 0.950 . S
C328 N323 1.307 . S
C328 C327 1.370 . S
C328 H346 0.948 . S
Zn329 N323 2.020 . S
Zn329 O338 2.039 . S
Zn329 O344 2.034 1_556 S
Zn329 O348 2.025 1_556 S
Zn329 O350 2.024 . S
C330 O349 1.246 . S
C330 O350 1.249 1_565 S
N331 C332 1.307 . S
N331 C333 1.333 . S
N331 Zn337 2.020 . S
C332 N331 1.307 . S
C332 C336 1.370 . S
C332 H343 0.948 . S
C333 N331 1.333 . S
C333 C334 1.379 . S
C333 H341 0.952 . S
C334 C333 1.379 . S
C334 C335 1.390 . S
C334 H354 0.949 . S
C335 C334 1.390 . S
C335 C336 1.357 . S
C336 C332 1.370 . S
C336 C335 1.357 . S
C336 H355 0.950 . S
Zn337 N331 2.020 . S
Zn337 O340 2.025 1_554 S
Zn337 O345 2.024 . S
Zn337 O347 2.039 . S
Zn337 O349 2.034 1_554 S
O338 C322 1.251 1_545 S
O338 Zn329 2.039 . S
C339 O344 1.246 . S
C339 O345 1.249 1_545 S
O340 C322 1.254 . S
O340 Zn337 2.025 1_556 S
H341 C333 0.952 . S
H342 C324 0.952 . S
H343 C332 0.948 . S
O344 Zn329 2.034 1_554 S
O344 C339 1.246 . S
O345 Zn337 2.024 . S
O345 C339 1.249 1_565 S
H346 C328 0.948 . S
O347 Zn337 2.039 . S
O347 C351 1.251 1_565 S
O348 Zn329 2.025 1_554 S
O348 C351 1.254 . S
O349 C330 1.246 . S
O349 Zn337 2.034 1_556 S
O350 Zn329 2.024 . S
O350 C330 1.249 1_545 S
C351 O347 1.251 1_545 S
C351 O348 1.254 . S
H352 C325 0.949 . S
H353 C327 0.950 . S
H354 C334 0.949 . S
H355 C336 0.950 . S
C356 O372 1.251 . S
C356 O374 1.254 . S
N357 C358 1.333 . S
N357 C362 1.307 . S
N357 Zn363 2.020 . S
C358 N357 1.333 . S
C358 C359 1.379 . S
C358 H376 0.952 . S
C359 C358 1.379 . S
C359 C360 1.390 . S
C359 H386 0.949 . S
C360 C359 1.390 . S
C360 C361 1.357 . S
C361 C360 1.357 . S
C361 C362 1.370 . S
C361 H387 0.950 . S
C362 N357 1.307 . S
C362 C361 1.370 . S
C362 H380 0.948 . S
Zn363 N357 2.020 . S
Zn363 O372 2.039 . S
Zn363 O378 2.034 . S
Zn363 O382 2.025 . S
Zn363 O384 2.024 . S
C364 O383 1.246 . S
C364 O384 1.249 . S
N365 C366 1.307 . S
N365 C367 1.333 . S
N365 Zn371 2.020 . S
C366 N365 1.307 . S
C366 C370 1.370 . S
C366 H377 0.948 . S
C367 N365 1.333 . S
C367 C368 1.379 . S
C367 H375 0.952 . S
C368 C367 1.379 . S
C368 C369 1.390 . S
C368 H388 0.949 . S
C369 C368 1.390 . S
C369 C370 1.357 . S
C370 C366 1.370 . S
C370 C369 1.357 . S
C370 H389 0.950 . S
Zn371 N365 2.020 . S
Zn371 O374 2.025 . S
Zn371 O379 2.024 . S
Zn371 O381 2.039 . S
Zn371 O383 2.034 . S
O372 C356 1.251 . S
O372 Zn363 2.039 . S
C373 O378 1.246 . S
C373 O379 1.249 . S
O374 C356 1.254 . S
O374 Zn371 2.025 . S
H375 C367 0.952 . S
H376 C358 0.952 . S
H377 C366 0.948 . S
O378 Zn363 2.034 . S
O378 C373 1.246 . S
O379 Zn371 2.024 . S
O379 C373 1.249 . S
H380 C362 0.948 . S
O381 Zn371 2.039 . S
O381 C385 1.251 . S
O382 Zn363 2.025 . S
O382 C385 1.254 . S
O383 C364 1.246 . S
O383 Zn371 2.034 . S
O384 Zn363 2.024 . S
O384 C364 1.249 . S
C385 O381 1.251 . S
C385 O382 1.254 . S
H386 C359 0.949 . S
H387 C361 0.950 . S
H388 C368 0.949 . S
H389 C370 0.950 . S
C390 O406 1.251 1_556 S
C390 O408 1.254 . S
N391 C392 1.333 . S
N391 C396 1.307 . S
N391 Zn397 2.020 . S
C392 N391 1.333 . S
C392 C393 1.379 . S
C392 H410 0.952 . S
C393 C392 1.379 . S
C393 C394 1.390 . S
C393 H420 0.949 . S
C394 C393 1.390 . S
C394 C395 1.357 . S
C395 C394 1.357 . S
C395 C396 1.370 . S
C395 H421 0.950 . S
C396 N391 1.307 . S
C396 C395 1.370 . S
C396 H414 0.948 . S
Zn397 N391 2.020 . S
Zn397 O406 2.039 . S
Zn397 O412 2.034 1_655 S
Zn397 O416 2.025 1_655 S
Zn397 O418 2.024 . S
C398 O417 1.246 . S
C398 O418 1.249 1_556 S
N399 C400 1.307 . S
N399 C401 1.333 . S
N399 Zn405 2.020 . S
C400 N399 1.307 . S
C400 C404 1.370 . S
C400 H411 0.948 . S
C401 N399 1.333 . S
C401 C402 1.379 . S
C401 H409 0.952 . S
C402 C401 1.379 . S
C402 C403 1.390 . S
C402 H422 0.949 . S
C403 C402 1.390 . S
C403 C404 1.357 . S
C404 C400 1.370 . S
C404 C403 1.357 . S
C404 H423 0.950 . S
Zn405 N399 2.020 . S
Zn405 O408 2.025 1_455 S
Zn405 O413 2.024 . S
Zn405 O415 2.039 . S
Zn405 O417 2.034 1_455 S
O406 C390 1.251 1_554 S
O406 Zn397 2.039 . S
C407 O412 1.246 . S
C407 O413 1.249 1_554 S
O408 C390 1.254 . S
O408 Zn405 2.025 1_655 S
H409 C401 0.952 . S
H410 C392 0.952 . S
H411 C400 0.948 . S
O412 Zn397 2.034 1_455 S
O412 C407 1.246 . S
O413 Zn405 2.024 . S
O413 C407 1.249 1_556 S
H414 C396 0.948 . S
O415 Zn405 2.039 . S
O415 C419 1.251 1_556 S
O416 Zn397 2.025 1_455 S
O416 C419 1.254 . S
O417 C398 1.246 . S
O417 Zn405 2.034 1_655 S
O418 Zn397 2.024 . S
O418 C398 1.249 1_554 S
C419 O415 1.251 1_554 S
C419 O416 1.254 . S
H420 C393 0.949 . S
H421 C395 0.950 . S
H422 C402 0.949 . S
H423 C404 0.950 . S
H424 C432 0.950 . S
H425 C437 0.950 . S
H426 C434 0.950 . S
H427 C436 0.950 . S
H428 C438 0.950 1_655 S
H429 C440 0.950 1_655 S
H430 C442 0.950 . S
H431 C443 0.950 . S
C432 H424 0.950 . S
C432 C433 1.386 . S
C432 C434 1.391 . S
C433 C432 1.386 . S
C433 C437 1.393 . S
C434 H426 0.950 . S
C434 C432 1.391 . S
C434 C435 1.400 . S
C435 C434 1.400 . S
C435 C436 1.398 . S
C435 C441 1.491 . S
C436 H427 0.950 . S
C436 C435 1.398 . S
C436 C437 1.391 . S
C437 H425 0.950 . S
C437 C433 1.393 . S
C437 C436 1.391 . S
C438 H428 0.950 1_455 S
C438 C439 1.386 . S
C438 C440 1.391 . S
C439 C438 1.386 . S
C439 C443 1.393 . S
C440 H429 0.950 1_455 S
C440 C438 1.391 . S
C440 C441 1.400 . S
C441 C435 1.491 . S
C441 C440 1.400 . S
C441 C442 1.398 . S
C442 H430 0.950 . S
C442 C441 1.398 . S
C442 C443 1.391 . S
C443 H431 0.950 . S
C443 C439 1.393 . S
C443 C442 1.391 . S
H444 C452 0.950 . S
H445 C457 0.950 . S
H446 C454 0.950 . S
H447 C456 0.950 . S
H448 C458 0.950 . S
H449 C460 0.950 . S
H450 C462 0.950 . S
H451 C463 0.950 . S
C452 H444 0.950 . S
C452 C453 1.386 . S
C452 C454 1.391 . S
C453 C452 1.386 . S
C453 C457 1.393 . S
C454 H446 0.950 . S
C454 C452 1.391 . S
C454 C455 1.400 . S
C455 C454 1.400 . S
C455 C456 1.398 . S
C455 C461 1.491 . S
C456 H447 0.950 . S
C456 C455 1.398 . S
C456 C457 1.391 . S
C457 H445 0.950 . S
C457 C453 1.393 . S
C457 C456 1.391 . S
C458 H448 0.950 . S
C458 C459 1.386 . S
C458 C460 1.391 . S
C459 C458 1.386 . S
C459 C463 1.393 . S
C460 H449 0.950 . S
C460 C458 1.391 . S
C460 C461 1.400 . S
C461 C455 1.491 . S
C461 C460 1.400 . S
C461 C462 1.398 . S
C462 H450 0.950 . S
C462 C461 1.398 . S
C462 C463 1.391 . S
C463 H451 0.950 . S
C463 C459 1.393 . S
C463 C462 1.391 . S
H464 C472 0.950 . S
H465 C477 0.950 . S
H466 C474 0.950 . S
H467 C476 0.950 . S
H468 C478 0.950 . S
H469 C480 0.950 . S
H470 C482 0.950 . S
H471 C483 0.950 . S
C472 H464 0.950 . S
C472 C473 1.386 . S
C472 C474 1.391 . S
C473 C472 1.386 . S
C473 C477 1.393 . S
C474 H466 0.950 . S
C474 C472 1.391 . S
C474 C475 1.400 . S
C475 C474 1.400 . S
C475 C476 1.398 . S
C475 C481 1.491 . S
C476 H467 0.950 . S
C476 C475 1.398 . S
C476 C477 1.391 . S
C477 H465 0.950 . S
C477 C473 1.393 . S
C477 C476 1.391 . S
C478 H468 0.950 . S
C478 C479 1.386 . S
C478 C480 1.391 . S
C479 C478 1.386 . S
C479 C483 1.393 . S
C480 H469 0.950 . S
C480 C478 1.391 . S
C480 C481 1.400 . S
C481 C475 1.491 . S
C481 C480 1.400 . S
C481 C482 1.398 . S
C482 H470 0.950 . S
C482 C481 1.398 . S
C482 C483 1.391 . S
C483 H471 0.950 . S
C483 C479 1.393 . S
C483 C482 1.391 . S
H484 C492 0.950 . S
H485 C497 0.950 . S
H486 C494 0.950 . S
H487 C496 0.950 . S
H488 C498 0.950 . S
H489 C500 0.950 . S
H490 C502 0.950 . S
H491 C503 0.950 . S
C492 H484 0.950 . S
C492 C493 1.386 . S
C492 C494 1.391 . S
C493 C492 1.386 . S
C493 C497 1.393 . S
C494 H486 0.950 . S
C494 C492 1.391 . S
C494 C495 1.400 . S
C495 C494 1.400 . S
C495 C496 1.398 . S
C495 C501 1.491 . S
C496 H487 0.950 . S
C496 C495 1.398 . S
C496 C497 1.391 . S
C497 H485 0.950 . S
C497 C493 1.393 . S
C497 C496 1.391 . S
C498 H488 0.950 . S
C498 C499 1.386 . S
C498 C500 1.391 . S
C499 C498 1.386 . S
C499 C503 1.393 . S
C500 H489 0.950 . S
C500 C498 1.391 . S
C500 C501 1.400 . S
C501 C495 1.491 . S
C501 C500 1.400 . S
C501 C502 1.398 . S
C502 H490 0.950 . S
C502 C501 1.398 . S
C502 C503 1.391 . S
C503 H491 0.950 . S
C503 C499 1.393 . S
C503 C502 1.391 . S
H504 C512 0.950 . S
H505 C517 0.950 . S
H506 C514 0.950 . S
H507 C516 0.950 . S
H508 C518 0.950 1_565 S
H509 C520 0.950 . S
H510 C522 0.950 . S
H511 C523 0.950 . S
C512 H504 0.950 . S
C512 C513 1.386 . S
C512 C514 1.391 . S
C513 C512 1.386 . S
C513 C517 1.393 . S
C514 H506 0.950 . S
C514 C512 1.391 . S
C514 C515 1.400 . S
C515 C514 1.400 . S
C515 C516 1.398 . S
C515 C521 1.491 . S
C516 H507 0.950 . S
C516 C515 1.398 . S
C516 C517 1.391 . S
C517 H505 0.950 . S
C517 C513 1.393 . S
C517 C516 1.391 . S
C518 H508 0.950 1_545 S
C518 C519 1.386 . S
C518 C520 1.391 . S
C519 C518 1.386 . S
C519 C523 1.393 . S
C520 H509 0.950 . S
C520 C518 1.391 . S
C520 C521 1.400 . S
C521 C515 1.491 . S
C521 C520 1.400 . S
C521 C522 1.398 . S
C522 H510 0.950 . S
C522 C521 1.398 . S
C522 C523 1.391 . S
C523 H511 0.950 . S
C523 C519 1.393 . S
C523 C522 1.391 . S
H524 C532 0.950 . S
H525 C537 0.950 . S
H526 C534 0.950 . S
H527 C536 0.950 . S
H528 C538 0.950 . S
H529 C540 0.950 . S
H530 C542 0.950 . S
H531 C543 0.950 1_545 S
C532 H524 0.950 . S
C532 C533 1.386 . S
C532 C534 1.391 . S
C533 C532 1.386 . S
C533 C537 1.393 . S
C534 H526 0.950 . S
C534 C532 1.391 . S
C534 C535 1.400 . S
C535 C534 1.400 . S
C535 C536 1.398 . S
C535 C541 1.491 . S
C536 H527 0.950 . S
C536 C535 1.398 . S
C536 C537 1.391 . S
C537 H525 0.950 . S
C537 C533 1.393 . S
C537 C536 1.391 . S
C538 H528 0.950 . S
C538 C539 1.386 . S
C538 C540 1.391 . S
C539 C538 1.386 . S
C539 C543 1.393 . S
C540 H529 0.950 . S
C540 C538 1.391 . S
C540 C541 1.400 . S
C541 C535 1.491 . S
C541 C540 1.400 . S
C541 C542 1.398 . S
C542 H530 0.950 . S
C542 C541 1.398 . S
C542 C543 1.391 . S
C543 H531 0.950 1_565 S
C543 C539 1.393 . S
C543 C542 1.391 . S
H544 C552 0.950 . S
H545 C557 0.950 . S
H546 C554 0.950 1_554 S
H547 C556 0.950 . S
H548 C558 0.950 . S
H549 C560 0.950 . S
H550 C562 0.950 1_554 S
H551 C563 0.944 1_554 S
C552 H544 0.950 . S
C552 C553 1.386 . S
C552 C554 1.391 . S
C553 C552 1.386 . S
C553 C557 1.393 . S
C554 H546 0.950 1_556 S
C554 C552 1.391 . S
C554 C555 1.400 . S
C555 C554 1.400 . S
C555 C556 1.398 . S
C555 C561 1.491 . S
C556 H547 0.950 . S
C556 C555 1.398 . S
C556 C557 1.391 . S
C557 H545 0.950 . S
C557 C553 1.393 . S
C557 C556 1.391 . S
C558 H548 0.950 . S
C558 C559 1.386 . S
C558 C560 1.391 . S
C559 C558 1.386 . S
C559 C563 1.397 . S
C560 H549 0.950 . S
C560 C558 1.391 . S
C560 C561 1.400 . S
C561 C555 1.491 . S
C561 C560 1.400 . S
C561 C562 1.398 . S
C562 H550 0.950 1_556 S
C562 C561 1.398 . S
C562 C563 1.392 . S
C563 H551 0.944 1_556 S
C563 C559 1.397 . S
C563 C562 1.392 . S
H564 C572 0.950 . S
H565 C577 0.950 . S
H566 C574 0.950 . S
H567 C576 0.950 . S
H568 C578 0.950 . S
H569 C580 0.950 . S
H570 C582 0.950 . S
H571 C583 0.950 . S
C572 H564 0.950 . S
C572 C573 1.386 . S
C572 C574 1.391 . S
C573 C572 1.386 . S
C573 C577 1.393 . S
C574 H566 0.950 . S
C574 C572 1.391 . S
C574 C575 1.400 . S
C575 C574 1.400 . S
C575 C576 1.398 . S
C575 C581 1.491 . S
C576 H567 0.950 . S
C576 C575 1.398 . S
C576 C577 1.391 . S
C577 H565 0.950 . S
C577 C573 1.393 . S
C577 C576 1.391 . S
C578 H568 0.950 . S
C578 C579 1.386 . S
C578 C580 1.391 . S
C579 C578 1.386 . S
C579 C583 1.393 . S
C580 H569 0.950 . S
C580 C578 1.391 . S
C580 C581 1.400 . S
C581 C575 1.491 . S
C581 C580 1.400 . S
C581 C582 1.398 . S
C582 H570 0.950 . S
C582 C581 1.398 . S
C582 C583 1.391 . S
C583 H571 0.950 . S
C583 C579 1.393 . S
C583 C582 1.391 . S
H584 C592 0.950 . S
H585 C597 0.950 . S
H586 C594 0.950 . S
H587 C596 0.950 . S
H588 C598 0.950 . S
H589 C600 0.950 . S
H590 C602 0.950 . S
H591 C603 0.950 1_556 S
C592 H584 0.950 . S
C592 C593 1.386 . S
C592 C594 1.391 . S
C593 C592 1.386 . S
C593 C597 1.393 . S
C594 H586 0.950 . S
C594 C592 1.391 . S
C594 C595 1.400 . S
C595 C594 1.400 . S
C595 C596 1.398 . S
C595 C601 1.491 . S
C596 H587 0.950 . S
C596 C595 1.398 . S
C596 C597 1.391 . S
C597 H585 0.950 . S
C597 C593 1.393 . S
C597 C596 1.391 . S
C598 H588 0.950 . S
C598 C599 1.386 . S
C598 C600 1.391 . S
C599 C598 1.386 . S
C599 C603 1.393 . S
C600 H589 0.950 . S
C600 C598 1.391 . S
C600 C601 1.400 . S
C601 C595 1.491 . S
C601 C600 1.400 . S
C601 C602 1.398 . S
C602 H590 0.950 . S
C602 C601 1.398 . S
C602 C603 1.391 . S
C603 H591 0.950 1_554 S
C603 C599 1.393 . S
C603 C602 1.391 . S
H604 C612 0.950 . S
H605 C617 0.950 . S
H606 C614 0.950 . S
H607 C616 0.950 . S
H608 C618 0.950 . S
H609 C620 0.950 . S
H610 C622 0.950 . S
H611 C623 0.950 . S
C612 H604 0.950 . S
C612 C613 1.386 . S
C612 C614 1.391 . S
C613 C612 1.386 . S
C613 C617 1.393 . S
C614 H606 0.950 . S
C614 C612 1.391 . S
C614 C615 1.400 . S
C615 C614 1.400 . S
C615 C616 1.398 . S
C615 C621 1.491 . S
C616 H607 0.950 . S
C616 C615 1.398 . S
C616 C617 1.391 . S
C617 H605 0.950 . S
C617 C613 1.393 . S
C617 C616 1.391 . S
C618 H608 0.950 . S
C618 C619 1.386 . S
C618 C620 1.391 . S
C619 C618 1.386 . S
C619 C623 1.393 . S
C620 H609 0.950 . S
C620 C618 1.391 . S
C620 C621 1.400 . S
C621 C615 1.491 . S
C621 C620 1.400 . S
C621 C622 1.398 . S
C622 H610 0.950 . S
C622 C621 1.398 . S
C622 C623 1.391 . S
C623 H611 0.950 . S
C623 C619 1.393 . S
C623 C622 1.391 . S
H624 C632 0.950 . S
H625 C637 0.950 . S
H626 C634 0.950 . S
H627 C636 0.950 . S
H628 C638 0.950 . S
H629 C640 0.950 . S
H630 C642 0.950 . S
H631 C643 0.950 . S
C632 H624 0.950 . S
C632 C633 1.386 . S
C632 C634 1.391 . S
C633 C632 1.386 . S
C633 C637 1.393 . S
C634 H626 0.950 . S
C634 C632 1.391 . S
C634 C635 1.400 . S
C635 C634 1.400 . S
C635 C636 1.398 . S
C635 C641 1.491 . S
C636 H627 0.950 . S
C636 C635 1.398 . S
C636 C637 1.391 . S
C637 H625 0.950 . S
C637 C633 1.393 . S
C637 C636 1.391 . S
C638 H628 0.950 . S
C638 C639 1.386 . S
C638 C640 1.391 . S
C639 C638 1.386 . S
C639 C643 1.393 . S
C640 H629 0.950 . S
C640 C638 1.391 . S
C640 C641 1.400 . S
C641 C635 1.491 . S
C641 C640 1.400 . S
C641 C642 1.398 . S
C642 H630 0.950 . S
C642 C641 1.398 . S
C642 C643 1.391 . S
C643 H631 0.950 . S
C643 C639 1.393 . S
C643 C642 1.391 . S
H644 C652 0.950 . S
H645 C657 0.950 . S
H646 C654 0.950 . S
H647 C656 0.950 . S
H648 C658 0.950 . S
H649 C660 0.950 . S
H650 C662 0.950 . S
H651 C663 0.950 . S
C652 H644 0.950 . S
C652 C653 1.386 . S
C652 C654 1.391 . S
C653 C652 1.386 . S
C653 C657 1.393 . S
C654 H646 0.950 . S
C654 C652 1.391 . S
C654 C655 1.400 . S
C655 C654 1.400 . S
C655 C656 1.398 . S
C655 C661 1.491 . S
C656 H647 0.950 . S
C656 C655 1.398 . S
C656 C657 1.391 . S
C657 H645 0.950 . S
C657 C653 1.393 . S
C657 C656 1.391 . S
C658 H648 0.950 . S
C658 C659 1.386 . S
C658 C660 1.391 . S
C659 C658 1.386 . S
C659 C663 1.393 . S
C660 H649 0.950 . S
C660 C658 1.391 . S
C660 C661 1.400 . S
C661 C655 1.491 . S
C661 C660 1.400 . S
C661 C662 1.398 . S
C662 H650 0.950 . S
C662 C661 1.398 . S
C662 C663 1.391 . S
C663 H651 0.950 . S
C663 C659 1.393 . S
C663 C662 1.391 . S
H664 C672 0.950 . S
H665 C677 0.950 . S
H666 C674 0.950 . S
H667 C676 0.950 . S
H668 C678 0.950 . S
H669 C680 0.950 . S
H670 C682 0.950 1_545 S
H671 C683 0.950 1_545 S
C672 H664 0.950 . S
C672 C673 1.386 . S
C672 C674 1.391 . S
C673 C672 1.386 . S
C673 C677 1.393 . S
C674 H666 0.950 . S
C674 C672 1.391 . S
C674 C675 1.400 . S
C675 C674 1.400 . S
C675 C676 1.398 . S
C675 C681 1.491 . S
C676 H667 0.950 . S
C676 C675 1.398 . S
C676 C677 1.391 . S
C677 H665 0.950 . S
C677 C673 1.393 . S
C677 C676 1.391 . S
C678 H668 0.950 . S
C678 C679 1.386 . S
C678 C680 1.391 . S
C679 C678 1.386 . S
C679 C683 1.393 . S
C680 H669 0.950 . S
C680 C678 1.391 . S
C680 C681 1.400 . S
C681 C675 1.491 . S
C681 C680 1.400 . S
C681 C682 1.398 . S
C682 H670 0.950 1_565 S
C682 C681 1.398 . S
C682 C683 1.391 . S
C683 H671 0.950 1_565 S
C683 C679 1.393 . S
C683 C682 1.391 . S
H684 C692 0.950 . S
H685 C697 0.950 . S
H686 C694 0.950 . S
H687 C696 0.950 . S
H688 C698 0.950 1_565 S
H689 C700 0.950 . S
H690 C702 0.950 . S
H691 C703 0.950 . S
C692 H684 0.950 . S
C692 C693 1.386 . S
C692 C694 1.391 . S
C693 C692 1.386 . S
C693 C697 1.393 . S
C694 H686 0.950 . S
C694 C692 1.391 . S
C694 C695 1.400 . S
C695 C694 1.400 . S
C695 C696 1.398 . S
C695 C701 1.491 . S
C696 H687 0.950 . S
C696 C695 1.398 . S
C696 C697 1.391 . S
C697 H685 0.950 . S
C697 C693 1.393 . S
C697 C696 1.391 . S
C698 H688 0.950 1_545 S
C698 C699 1.386 . S
C698 C700 1.391 . S
C699 C698 1.386 . S
C699 C703 1.393 . S
C700 H689 0.950 . S
C700 C698 1.391 . S
C700 C701 1.400 . S
C701 C695 1.491 . S
C701 C700 1.400 . S
C701 C702 1.398 . S
C702 H690 0.950 . S
C702 C701 1.398 . S
C702 C703 1.391 . S
C703 H691 0.950 . S
C703 C699 1.393 . S
C703 C702 1.391 . S
H704 C712 0.950 . S
H705 C717 0.950 . S
H706 C714 0.950 . S
H707 C716 0.950 . S
H708 C718 0.950 . S
H709 C720 0.950 . S
H710 C722 0.950 . S
H711 C723 0.950 . S
C712 H704 0.950 . S
C712 C713 1.386 . S
C712 C714 1.391 . S
C713 C712 1.386 . S
C713 C717 1.393 . S
C714 H706 0.950 . S
C714 C712 1.391 . S
C714 C715 1.400 . S
C715 C714 1.400 . S
C715 C716 1.398 . S
C715 C721 1.491 . S
C716 H707 0.950 . S
C716 C715 1.398 . S
C716 C717 1.391 . S
C717 H705 0.950 . S
C717 C713 1.393 . S
C717 C716 1.391 . S
C718 H708 0.950 . S
C718 C719 1.386 . S
C718 C720 1.391 . S
C719 C718 1.386 . S
C719 C723 1.393 . S
C720 H709 0.950 . S
C720 C718 1.391 . S
C720 C721 1.400 . S
C721 C715 1.491 . S
C721 C720 1.400 . S
C721 C722 1.398 . S
C722 H710 0.950 . S
C722 C721 1.398 . S
C722 C723 1.391 . S
C723 H711 0.950 . S
C723 C719 1.393 . S
C723 C722 1.391 . S
H724 C732 0.950 . S
H725 C737 0.950 . S
H726 C734 0.950 . S
H727 C736 0.950 . S
H728 C738 0.950 . S
H729 C740 0.950 . S
H730 C742 0.950 . S
H731 C743 0.950 . S
C732 H724 0.950 . S
C732 C733 1.386 . S
C732 C734 1.391 . S
C733 C732 1.386 . S
C733 C737 1.393 . S
C734 H726 0.950 . S
C734 C732 1.391 . S
C734 C735 1.400 . S
C735 C734 1.400 . S
C735 C736 1.398 . S
C735 C741 1.491 . S
C736 H727 0.950 . S
C736 C735 1.398 . S
C736 C737 1.391 . S
C737 H725 0.950 . S
C737 C733 1.393 . S
C737 C736 1.391 . S
C738 H728 0.950 . S
C738 C739 1.386 . S
C738 C740 1.391 . S
C739 C738 1.386 . S
C739 C743 1.393 . S
C740 H729 0.950 . S
C740 C738 1.391 . S
C740 C741 1.400 . S
C741 C735 1.491 . S
C741 C740 1.400 . S
C741 C742 1.398 . S
C742 H730 0.950 . S
C742 C741 1.398 . S
C742 C743 1.391 . S
C743 H731 0.950 . S
C743 C739 1.393 . S
C743 C742 1.391 . S
H744 C752 0.950 . S
H745 C757 0.950 . S
H746 C754 0.950 . S
H747 C756 0.950 . S
H748 C758 0.950 1_545 S
H749 C760 0.950 . S
H750 C762 0.950 . S
H751 C763 0.950 . S
C752 H744 0.950 . S
C752 C753 1.386 . S
C752 C754 1.391 . S
C753 C752 1.386 . S
C753 C757 1.393 . S
C754 H746 0.950 . S
C754 C752 1.391 . S
C754 C755 1.400 . S
C755 C754 1.400 . S
C755 C756 1.398 . S
C755 C761 1.491 . S
C756 H747 0.950 . S
C756 C755 1.398 . S
C756 C757 1.391 . S
C757 H745 0.950 . S
C757 C753 1.393 . S
C757 C756 1.391 . S
C758 H748 0.950 1_565 S
C758 C759 1.386 . S
C758 C760 1.391 . S
C759 C758 1.386 . S
C759 C763 1.393 . S
C760 H749 0.950 . S
C760 C758 1.391 . S
C760 C761 1.400 . S
C761 C755 1.491 . S
C761 C760 1.400 . S
C761 C762 1.398 . S
C762 H750 0.950 . S
C762 C761 1.398 . S
C762 C763 1.391 . S
C763 H751 0.950 . S
C763 C759 1.393 . S
C763 C762 1.391 . S
H764 C772 0.950 . S
H765 C777 0.950 . S
H766 C774 0.950 . S
H767 C776 0.950 . S
H768 C778 0.950 . S
H769 C780 0.950 . S
H770 C782 0.950 . S
H771 C783 0.950 . S
C772 H764 0.950 . S
C772 C773 1.386 . S
C772 C774 1.391 . S
C773 C772 1.386 . S
C773 C777 1.393 . S
C774 H766 0.950 . S
C774 C772 1.391 . S
C774 C775 1.400 . S
C775 C774 1.400 . S
C775 C776 1.398 . S
C775 C781 1.491 . S
C776 H767 0.950 . S
C776 C775 1.398 . S
C776 C777 1.391 . S
C777 H765 0.950 . S
C777 C773 1.393 . S
C777 C776 1.391 . S
C778 H768 0.950 . S
C778 C779 1.386 . S
C778 C780 1.391 . S
C779 C778 1.386 . S
C779 C783 1.393 . S
C780 H769 0.950 . S
C780 C778 1.391 . S
C780 C781 1.400 . S
C781 C775 1.491 . S
C781 C780 1.400 . S
C781 C782 1.398 . S
C782 H770 0.950 . S
C782 C781 1.398 . S
C782 C783 1.391 . S
C783 H771 0.950 . S
C783 C779 1.393 . S
C783 C782 1.391 . S
H784 C792 0.950 . S
H785 C797 0.950 . S
H786 C794 0.950 . S
H787 C796 0.950 . S
H788 C798 0.950 . S
H789 C800 0.950 . S
H790 C802 0.950 . S
H791 C803 0.950 . S
C792 H784 0.950 . S
C792 C793 1.386 . S
C792 C794 1.391 . S
C793 C792 1.386 . S
C793 C797 1.393 . S
C794 H786 0.950 . S
C794 C792 1.391 . S
C794 C795 1.400 . S
C795 C794 1.400 . S
C795 C796 1.398 . S
C795 C801 1.491 . S
C796 H787 0.950 . S
C796 C795 1.398 . S
C796 C797 1.391 . S
C797 H785 0.950 . S
C797 C793 1.393 . S
C797 C796 1.391 . S
C798 H788 0.950 . S
C798 C799 1.386 . S
C798 C800 1.391 . S
C799 C798 1.386 . S
C799 C803 1.393 . S
C800 H789 0.950 . S
C800 C798 1.391 . S
C800 C801 1.400 . S
C801 C795 1.491 . S
C801 C800 1.400 . S
C801 C802 1.398 . S
C802 H790 0.950 . S
C802 C801 1.398 . S
C802 C803 1.391 . S
C803 H791 0.950 . S
C803 C799 1.393 . S
C803 C802 1.391 . S
H804 C812 0.950 . S
H805 C817 0.950 . S
H806 C814 0.950 . S
H807 C816 0.950 . S
H808 C818 0.950 . S
H809 C820 0.950 . S
H810 C822 0.950 . S
H811 C823 0.950 . S
C812 H804 0.950 . S
C812 C813 1.386 . S
C812 C814 1.391 . S
C813 C812 1.386 . S
C813 C817 1.393 . S
C814 H806 0.950 . S
C814 C812 1.391 . S
C814 C815 1.400 . S
C815 C814 1.400 . S
C815 C816 1.398 . S
C815 C821 1.491 . S
C816 H807 0.950 . S
C816 C815 1.398 . S
C816 C817 1.391 . S
C817 H805 0.950 . S
C817 C813 1.393 . S
C817 C816 1.391 . S
C818 H808 0.950 . S
C818 C819 1.386 . S
C818 C820 1.391 . S
C819 C818 1.386 . S
C819 C823 1.393 . S
C820 H809 0.950 . S
C820 C818 1.391 . S
C820 C821 1.400 . S
C821 C815 1.491 . S
C821 C820 1.400 . S
C821 C822 1.398 . S
C822 H810 0.950 . S
C822 C821 1.398 . S
C822 C823 1.391 . S
C823 H811 0.950 . S
C823 C819 1.393 . S
C823 C822 1.391 . S
H824 C832 0.950 . S
H825 C837 0.950 . S
H826 C834 0.950 . S
H827 C836 0.950 . S
H828 C838 0.950 . S
H829 C840 0.950 . S
H830 C842 0.950 . S
H831 C843 0.952 1_454 S
C832 H824 0.950 . S
C832 C833 1.386 . S
C832 C834 1.391 . S
C833 C832 1.386 . S
C833 C837 1.393 . S
C834 H826 0.950 . S
C834 C832 1.391 . S
C834 C835 1.400 . S
C835 C834 1.400 . S
C835 C836 1.398 . S
C835 C841 1.491 . S
C836 H827 0.950 . S
C836 C835 1.398 . S
C836 C837 1.391 . S
C837 H825 0.950 . S
C837 C833 1.393 . S
C837 C836 1.391 . S
C838 H828 0.950 . S
C838 C839 1.386 . S
C838 C840 1.391 . S
C839 C838 1.386 . S
C839 C843 1.393 . S
C840 H829 0.950 . S
C840 C838 1.391 . S
C840 C841 1.400 . S
C841 C835 1.491 . S
C841 C840 1.400 . S
C841 C842 1.398 . S
C842 H830 0.950 . S
C842 C841 1.398 . S
C842 C843 1.391 . S
C843 H831 0.952 1_656 S
C843 C839 1.393 . S
C843 C842 1.391 . S
H844 C852 0.950 . S
H845 C857 0.950 . S
H846 C854 0.950 . S
H847 C856 0.950 . S
H848 C858 0.950 . S
H849 C860 0.950 . S
H850 C862 0.950 . S
H851 C863 0.950 . S
C852 H844 0.950 . S
C852 C853 1.386 . S
C852 C854 1.391 . S
C853 C852 1.386 . S
C853 C857 1.393 . S
C854 H846 0.950 . S
C854 C852 1.391 . S
C854 C855 1.400 . S
C855 C854 1.400 . S
C855 C856 1.398 . S
C855 C861 1.491 . S
C856 H847 0.950 . S
C856 C855 1.398 . S
C856 C857 1.391 . S
C857 H845 0.950 . S
C857 C853 1.393 . S
C857 C856 1.391 . S
C858 H848 0.950 . S
C858 C859 1.386 . S
C858 C860 1.391 . S
C859 C858 1.386 . S
C859 C863 1.393 . S
C860 H849 0.950 . S
C860 C858 1.391 . S
C860 C861 1.400 . S
C861 C855 1.491 . S
C861 C860 1.400 . S
C861 C862 1.398 . S
C862 H850 0.950 . S
C862 C861 1.398 . S
C862 C863 1.391 . S
C863 H851 0.950 . S
C863 C859 1.393 . S
C863 C862 1.391 . S
H864 C872 0.950 . S
H865 C877 0.950 . S
H866 C874 0.950 . S
H867 C876 0.950 . S
H868 C878 0.950 . S
H869 C880 0.950 . S
H870 C882 0.950 . S
H871 C883 0.950 . S
C872 H864 0.950 . S
C872 C873 1.386 . S
C872 C874 1.391 . S
C873 C872 1.386 . S
C873 C877 1.393 . S
C874 H866 0.950 . S
C874 C872 1.391 . S
C874 C875 1.400 . S
C875 C874 1.400 . S
C875 C876 1.398 . S
C875 C881 1.491 . S
C876 H867 0.950 . S
C876 C875 1.398 . S
C876 C877 1.391 . S
C877 H865 0.950 . S
C877 C873 1.393 . S
C877 C876 1.391 . S
C878 H868 0.950 . S
C878 C879 1.386 . S
C878 C880 1.391 . S
C879 C878 1.386 . S
C879 C883 1.393 . S
C880 H869 0.950 . S
C880 C878 1.391 . S
C880 C881 1.400 . S
C881 C875 1.491 . S
C881 C880 1.400 . S
C881 C882 1.398 . S
C882 H870 0.950 . S
C882 C881 1.398 . S
C882 C883 1.391 . S
C883 H871 0.950 . S
C883 C879 1.393 . S
C883 C882 1.391 . S
H884 C892 0.950 . S
H885 C897 0.950 . S
H886 C894 0.950 . S
H887 C896 0.950 . S
H888 C898 0.950 . S
H889 C900 0.950 . S
H890 C902 0.950 . S
H891 C903 0.950 . S
C892 H884 0.950 . S
C892 C893 1.386 . S
C892 C894 1.391 . S
C893 C892 1.386 . S
C893 C897 1.393 . S
C894 H886 0.950 . S
C894 C892 1.391 . S
C894 C895 1.400 . S
C895 C894 1.400 . S
C895 C896 1.398 . S
C895 C901 1.491 . S
C896 H887 0.950 . S
C896 C895 1.398 . S
C896 C897 1.391 . S
C897 H885 0.950 . S
C897 C893 1.393 . S
C897 C896 1.391 . S
C898 H888 0.950 . S
C898 C899 1.386 . S
C898 C900 1.391 . S
C899 C898 1.386 . S
C899 C903 1.393 . S
C900 H889 0.950 . S
C900 C898 1.391 . S
C900 C901 1.400 . S
C901 C895 1.491 . S
C901 C900 1.400 . S
C901 C902 1.398 . S
C902 H890 0.950 . S
C902 C901 1.398 . S
C902 C903 1.391 . S
C903 H891 0.950 . S
C903 C899 1.393 . S
C903 C902 1.391 . S
C433 C1 2.293 . S
C439 C288 2.332 . S
C453 C67 2.265 . S
C459 C330 2.307 . S
C479 C360 1.013 . S
C473 C97 1.001 . S
C493 C133 1.066 . S
C499 C394 1.066 . S
C519 C351 1.874 . S
C513 C25 1.828 . S
C539 C305 1.870 . S
C533 C37 1.837 . S
C559 C398 1.383 . S
C553 C103 1.333 . S
C579 C364 1.437 . S
C573 C109 1.428 . S
C593 C31 2.203 . S
C599 C419 2.234 . S
C619 C326 1.157 . S
C613 C73 1.139 . S
C633 C139 1.166 . S
C639 C301 1.172 . S
C653 C61 2.152 . S
C659 C385 2.194 . S
C679 C317 2.344 . S
C673 C175 2.341 . S
C693 C181 2.255 . S
C699 C339 2.292 . S
C713 C247 1.017 . S
C719 C369 1.012 . S
C733 C277 1.070 . S
C739 C403 1.061 . S
C753 C145 1.867 . S
C759 C322 1.874 . S
C779 C296 1.876 . S
C773 C211 1.846 . S
C799 C407 1.358 . S
C793 C217 1.352 . S
C819 C373 1.453 . S
C813 C283 1.442 . S
C833 C169 2.226 . S
C839 C390 2.223 . S
C859 C335 1.137 . S
C853 C241 1.134 . S
C879 C292 1.165 . S
C873 C253 1.153 . S
C893 C205 2.156 . S
C899 C356 2.202 . S
