# Generated by pormake.
# Topology pyr, (3,6)-cn, num edge types: 1
# Building blocks:
#     Node 0, Type 0, BuildingBlock: KAKCAD_clean_linker_0, # of connection points: 3
#     Node 1, Type 0, BuildingBlock: KAKCAD_clean_linker_0, # of connection points: 3
#     Node 2, Type 0, BuildingBlock: KAKCAD_clean_linker_0, # of connection points: 3
#     Node 3, Type 0, BuildingBlock: KAKCAD_clean_linker_0, # of connection points: 3
#     Node 4, Type 0, BuildingBlock: KAKCAD_clean_linker_0, # of connection points: 3
#     Node 5, Type 0, BuildingBlock: KAKCAD_clean_linker_0, # of connection points: 3
#     Node 6, Type 0, BuildingBlock: KAKCAD_clean_linker_0, # of connection points: 3
#     Node 7, Type 0, BuildingBlock: KAKCAD_clean_linker_0, # of connection points: 3
#     Node 8, Type 1, BuildingBlock: GEDQOX_clean_sbu_0, # of connection points: 6
#     Node 9, Type 1, BuildingBlock: GEDQOX_clean_sbu_0, # of connection points: 6
#     Node 10, Type 1, BuildingBlock: GEDQOX_clean_sbu_0, # of connection points: 6
#     Node 11, Type 1, BuildingBlock: GEDQOX_clean_sbu_0, # of connection points: 6
#     Edge 12, Type (0, 1), BuildingBlock: ZUJKAS_clean_linker_0, # of connection points: 2
#     Edge 13, Type (0, 1), BuildingBlock: ZUJKAS_clean_linker_0, # of connection points: 2
#     Edge 14, Type (0, 1), BuildingBlock: ZUJKAS_clean_linker_0, # of connection points: 2
#     Edge 15, Type (0, 1), BuildingBlock: ZUJKAS_clean_linker_0, # of connection points: 2
#     Edge 16, Type (0, 1), BuildingBlock: ZUJKAS_clean_linker_0, # of connection points: 2
#     Edge 17, Type (0, 1), BuildingBlock: ZUJKAS_clean_linker_0, # of connection points: 2
#     Edge 18, Type (0, 1), BuildingBlock: ZUJKAS_clean_linker_0, # of connection points: 2
#     Edge 19, Type (0, 1), BuildingBlock: ZUJKAS_clean_linker_0, # of connection points: 2
#     Edge 20, Type (0, 1), BuildingBlock: ZUJKAS_clean_linker_0, # of connection points: 2
#     Edge 21, Type (0, 1), BuildingBlock: ZUJKAS_clean_linker_0, # of connection points: 2
#     Edge 22, Type (0, 1), BuildingBlock: ZUJKAS_clean_linker_0, # of connection points: 2
#     Edge 23, Type (0, 1), BuildingBlock: ZUJKAS_clean_linker_0, # of connection points: 2
#     Edge 24, Type (0, 1), BuildingBlock: ZUJKAS_clean_linker_0, # of connection points: 2
#     Edge 25, Type (0, 1), BuildingBlock: ZUJKAS_clean_linker_0, # of connection points: 2
#     Edge 26, Type (0, 1), BuildingBlock: ZUJKAS_clean_linker_0, # of connection points: 2
#     Edge 27, Type (0, 1), BuildingBlock: ZUJKAS_clean_linker_0, # of connection points: 2
#     Edge 28, Type (0, 1), BuildingBlock: ZUJKAS_clean_linker_0, # of connection points: 2
#     Edge 29, Type (0, 1), BuildingBlock: ZUJKAS_clean_linker_0, # of connection points: 2
#     Edge 30, Type (0, 1), BuildingBlock: ZUJKAS_clean_linker_0, # of connection points: 2
#     Edge 31, Type (0, 1), BuildingBlock: ZUJKAS_clean_linker_0, # of connection points: 2
#     Edge 32, Type (0, 1), BuildingBlock: ZUJKAS_clean_linker_0, # of connection points: 2
#     Edge 33, Type (0, 1), BuildingBlock: ZUJKAS_clean_linker_0, # of connection points: 2
#     Edge 34, Type (0, 1), BuildingBlock: ZUJKAS_clean_linker_0, # of connection points: 2
#     Edge 35, Type (0, 1), BuildingBlock: ZUJKAS_clean_linker_0, # of connection points: 2
# Relax obj value: 0.083
# Max RMSD: 0.144
# Mean RMSD: 0.058
data_MOF--net-pyr--node1-GEDQOX_clean_sbu_0--node2-KAKCAD_clean_linker_0--edge1-ZUJKAS_clean_linker_0
_symmetry_space_group_name_H-M    P1
_symmetry_Int_Tables_number       1
_symmetry_cell_setting            triclinic
loop_
_symmetry_equiv_pos_as_xyz
'x, y, z'
_cell_length_a     59.733841
_cell_length_b     59.907577
_cell_length_c     52.85181
_cell_angle_alpha  87.426311
_cell_angle_beta   90.487009
_cell_angle_gamma 87.616588
loop_
_atom_site_label
_atom_site_type_symbol
_atom_site_fract_x
_atom_site_fract_y
_atom_site_fract_z
_atom_type_partial_charge
C0 C 0.14565 0.15341 0.23602 0.0
C1 C 0.15802 0.14171 0.25556 0.0
C2 C 0.15636 0.1633 0.21501 0.0
C3 C 0.17992 0.16209 0.21284 0.0
C4 C 0.19229 0.15023 0.23236 0.0
C5 C 0.18153 0.14014 0.25328 0.0
C6 C 0.19139 0.17342 0.19059 0.0
C7 C 0.18235 0.19374 0.17945 0.0
C8 C 0.19251 0.20466 0.15857 0.0
C9 C 0.21259 0.19502 0.14903 0.0
C10 C 0.22228 0.17466 0.1597 0.0
C11 C 0.21132 0.1641 0.18039 0.0
C12 C 0.24368 0.16426 0.14929 0.0
C13 C 0.2483 0.16533 0.12313 0.0
C14 C 0.25969 0.15285 0.16547 0.0
C15 C 0.2794 0.14279 0.1559 0.0
C16 C 0.284 0.14375 0.12974 0.0
C17 C 0.18186 0.2261 0.147 0.0
C18 C 0.15842 0.22862 0.14389 0.0
C19 C 0.19473 0.24444 0.13962 0.0
C20 C 0.18444 0.26475 0.13005 0.0
C21 C 0.16091 0.26739 0.12733 0.0
C22 C 0.14816 0.2488 0.13419 0.0
C23 C 0.26805 0.15527 0.11355 0.0
H24 H 0.12753 0.15469 0.23674 0.0
H25 H 0.14602 0.17172 0.2003 0.0
H26 H 0.21041 0.14909 0.23182 0.0
H27 H 0.19172 0.13151 0.26799 0.0
H28 H 0.16751 0.2015 0.18748 0.0
H29 H 0.21802 0.14816 0.18818 0.0
H30 H 0.22065 0.20339 0.1332 0.0
H31 H 0.23647 0.17369 0.10987 0.0
H32 H 0.25713 0.15178 0.18573 0.0
H33 H 0.2909 0.13395 0.16915 0.0
H34 H 0.14788 0.21484 0.14883 0.0
H35 H 0.21278 0.24334 0.1419 0.0
H36 H 0.27087 0.15674 0.09335 0.0
H37 H 0.13012 0.24967 0.13189 0.0
H38 H 0.19499 0.27856 0.12536 0.0
C39 C 0.3737 0.82425 0.83457 0.0
C40 C 0.39597 0.83058 0.83166 0.0
C41 C 0.36367 0.81131 0.81669 0.0
C42 C 0.37569 0.80427 0.79554 0.0
C43 C 0.39814 0.81003 0.79295 0.0
C44 C 0.40817 0.8231 0.81079 0.0
C45 C 0.36453 0.79174 0.77577 0.0
C46 C 0.34302 0.79882 0.76687 0.0
C47 C 0.3325 0.78762 0.7476 0.0
C48 C 0.34345 0.76886 0.73766 0.0
C49 C 0.36487 0.76149 0.74632 0.0
C50 C 0.37545 0.77312 0.76523 0.0
C51 C 0.37618 0.74205 0.73472 0.0
C52 C 0.36427 0.7228 0.73054 0.0
C53 C 0.39824 0.74323 0.72596 0.0
C54 C 0.40783 0.72591 0.71223 0.0
C55 C 0.39554 0.70706 0.70712 0.0
C56 C 0.31047 0.79589 0.73703 0.0
C57 C 0.29289 0.80234 0.75299 0.0
C58 C 0.3069 0.79721 0.71069 0.0
C59 C 0.28615 0.80458 0.7005 0.0
C60 C 0.26844 0.81078 0.71641 0.0
C61 C 0.27205 0.8097 0.74277 0.0
C62 C 0.37384 0.70549 0.71694 0.0
H63 H 0.36397 0.82935 0.85068 0.0
H64 H 0.34644 0.80682 0.81938 0.0
H65 H 0.40775 0.80505 0.7767 0.0
H66 H 0.42525 0.82789 0.80778 0.0
H67 H 0.33481 0.8136 0.77426 0.0
H68 H 0.39197 0.76745 0.77205 0.0
H69 H 0.33537 0.76013 0.7228 0.0
H70 H 0.34734 0.72131 0.73745 0.0
H71 H 0.40772 0.75797 0.72874 0.0
H72 H 0.42452 0.7277 0.70477 0.0
H73 H 0.29514 0.80133 0.77337 0.0
H74 H 0.32027 0.79279 0.69789 0.0
H75 H 0.36413 0.69097 0.71384 0.0
H76 H 0.25868 0.81422 0.75552 0.0
H77 H 0.28411 0.80574 0.6801 0.0
C78 C 0.78312 0.44418 0.8844 0.0
C79 C 0.80134 0.42912 0.88997 0.0
C80 C 0.76264 0.43637 0.87631 0.0
C81 C 0.75998 0.41335 0.87413 0.0
C82 C 0.77818 0.39831 0.87981 0.0
C83 C 0.79871 0.40614 0.88749 0.0
C84 C 0.73831 0.40488 0.86599 0.0
C85 C 0.72756 0.41376 0.8438 0.0
C86 C 0.70773 0.4047 0.83522 0.0
C87 C 0.69833 0.38721 0.84949 0.0
C88 C 0.70864 0.37844 0.87194 0.0
C89 C 0.72876 0.38726 0.87997 0.0
C90 C 0.69863 0.35958 0.88633 0.0
C91 C 0.67533 0.35932 0.88961 0.0
C92 C 0.71209 0.34116 0.8956 0.0
C93 C 0.70233 0.32248 0.90697 0.0
C94 C 0.67893 0.32186 0.9093 0.0
C95 C 0.69703 0.41279 0.81096 0.0
C96 C 0.69304 0.43575 0.80533 0.0
C97 C 0.68995 0.39735 0.79365 0.0
C98 C 0.67854 0.40465 0.77149 0.0
C99 C 0.6739 0.42756 0.76616 0.0
C100 C 0.68146 0.44308 0.78317 0.0
C101 C 0.66558 0.34067 0.90091 0.0
H102 H 0.7848 0.46199 0.88607 0.0
H103 H 0.7488 0.44825 0.8721 0.0
H104 H 0.77656 0.3805 0.87809 0.0
H105 H 0.81248 0.39419 0.89185 0.0
H106 H 0.73513 0.42703 0.83266 0.0
H107 H 0.73688 0.38061 0.89729 0.0
H108 H 0.68303 0.38017 0.84286 0.0
H109 H 0.66455 0.3734 0.88299 0.0
H110 H 0.73009 0.34082 0.89324 0.0
H111 H 0.71308 0.30836 0.91353 0.0
H112 H 0.6983 0.44798 0.8184 0.0
H113 H 0.69305 0.37956 0.79738 0.0
H114 H 0.6475 0.34068 0.90215 0.0
H115 H 0.67828 0.46086 0.77942 0.0
H116 H 0.67276 0.39228 0.7589 0.0
C117 C 0.83177 0.74002 0.22767 0.0
C118 C 0.85348 0.73777 0.21781 0.0
C119 C 0.82843 0.74867 0.25149 0.0
C120 C 0.84671 0.75515 0.26598 0.0
C121 C 0.86815 0.75457 0.25526 0.0
C122 C 0.87149 0.74601 0.23138 0.0
C123 C 0.84383 0.75982 0.29311 0.0
C124 C 0.83098 0.74566 0.30842 0.0
C125 C 0.82935 0.74836 0.33457 0.0
C126 C 0.84083 0.76558 0.34545 0.0
C127 C 0.85397 0.77983 0.33047 0.0
C128 C 0.85528 0.77692 0.30426 0.0
C129 C 0.86696 0.79723 0.34235 0.0
C130 C 0.86804 0.81871 0.33075 0.0
C131 C 0.87864 0.79233 0.36527 0.0
C132 C 0.89106 0.80859 0.37638 0.0
C133 C 0.8921 0.83009 0.36482 0.0
C134 C 0.81655 0.73235 0.35042 0.0
C135 C 0.79629 0.72445 0.34135 0.0
C136 C 0.82511 0.72379 0.37394 0.0
C137 C 0.81399 0.70718 0.38766 0.0
C138 C 0.79425 0.69872 0.378 0.0
C139 C 0.78533 0.70774 0.35492 0.0
C140 C 0.88047 0.83498 0.34186 0.0
H141 H 0.81754 0.73378 0.21777 0.0
H142 H 0.81164 0.74928 0.25912 0.0
H143 H 0.88258 0.7594 0.26594 0.0
H144 H 0.88836 0.74485 0.22406 0.0
H145 H 0.82309 0.73172 0.30011 0.0
H146 H 0.86562 0.78761 0.29263 0.0
H147 H 0.83943 0.76797 0.36559 0.0
H148 H 0.85901 0.82306 0.31324 0.0
H149 H 0.87846 0.7758 0.37444 0.0
H150 H 0.9001 0.80422 0.39388 0.0
H151 H 0.789 0.73102 0.32356 0.0
H152 H 0.84081 0.72933 0.38132 0.0
H153 H 0.88067 0.8515 0.33269 0.0
H154 H 0.76988 0.70181 0.34731 0.0
H155 H 0.82124 0.70043 0.40539 0.0
C156 C 0.90395 0.88608 0.79981 0.0
C157 C 0.89155 0.89783 0.78032 0.0
C158 C 0.89325 0.87595 0.82067 0.0
C159 C 0.86969 0.87698 0.82275 0.0
C160 C 0.85729 0.88895 0.80335 0.0
C161 C 0.86803 0.89924 0.78255 0.0
C162 C 0.85822 0.86521 0.84468 0.0
C163 C 0.86697 0.84441 0.85485 0.0
C164 C 0.85658 0.83279 0.87513 0.0
C165 C 0.8368 0.84254 0.88531 0.0
C166 C 0.82757 0.86344 0.8757 0.0
C167 C 0.83854 0.87452 0.85541 0.0
C168 C 0.80647 0.87377 0.8867 0.0
C169 C 0.78795 0.86078 0.89283 0.0
C170 C 0.80447 0.89687 0.89081 0.0
C171 C 0.78471 0.90663 0.90066 0.0
C172 C 0.76609 0.8937 0.9065 0.0
C173 C 0.86673 0.81062 0.88552 0.0
C174 C 0.87731 0.79538 0.86936 0.0
C175 C 0.86672 0.80469 0.91167 0.0
C176 C 0.8773 0.78455 0.92128 0.0
C177 C 0.88837 0.76966 0.90512 0.0
C178 C 0.88799 0.77538 0.87897 0.0
C179 C 0.76808 0.87059 0.90239 0.0
H180 H 0.92207 0.88493 0.79915 0.0
H181 H 0.90358 0.86743 0.83533 0.0
H182 H 0.83916 0.88997 0.80387 0.0
H183 H 0.85781 0.90789 0.76788 0.0
H184 H 0.88207 0.83717 0.84686 0.0
H185 H 0.83165 0.8905 0.84792 0.0
H186 H 0.82854 0.83387 0.90079 0.0
H187 H 0.78865 0.84301 0.88982 0.0
H188 H 0.81832 0.90748 0.88658 0.0
H189 H 0.78392 0.92446 0.90329 0.0
H190 H 0.8773 0.79882 0.84907 0.0
H191 H 0.85905 0.81591 0.92489 0.0
H192 H 0.75429 0.85996 0.90681 0.0
H193 H 0.89581 0.76425 0.86575 0.0
H194 H 0.87732 0.78094 0.94154 0.0
C195 C 0.67609 0.19615 0.21124 0.0
C196 C 0.65796 0.20537 0.19671 0.0
C197 C 0.68581 0.20839 0.22997 0.0
C198 C 0.67794 0.23036 0.23431 0.0
C199 C 0.65991 0.23967 0.21942 0.0
C200 C 0.64989 0.22721 0.20098 0.0
C201 C 0.68818 0.24309 0.25476 0.0
C202 C 0.71122 0.2401 0.26048 0.0
C203 C 0.72077 0.25028 0.28119 0.0
C204 C 0.70711 0.26424 0.29574 0.0
C205 C 0.68433 0.26813 0.28982 0.0
C206 C 0.67492 0.25748 0.26941 0.0
C207 C 0.67063 0.28347 0.30519 0.0
C208 C 0.67173 0.28146 0.33176 0.0
C209 C 0.65781 0.30126 0.29346 0.0
C210 C 0.64716 0.31737 0.30806 0.0
C211 C 0.64894 0.31578 0.33464 0.0
C212 C 0.74464 0.24546 0.28862 0.0
C213 C 0.7543 0.22374 0.28712 0.0
C214 C 0.75747 0.2621 0.29894 0.0
C215 C 0.77889 0.25684 0.30882 0.0
C216 C 0.78812 0.23496 0.3081 0.0
C217 C 0.77588 0.2186 0.29662 0.0
C218 C 0.66092 0.29741 0.34634 0.0
H219 H 0.68236 0.1792 0.20857 0.0
H220 H 0.69921 0.20035 0.24141 0.0
H221 H 0.65358 0.25661 0.2219 0.0
H222 H 0.63596 0.23468 0.18989 0.0
H223 H 0.72182 0.22981 0.24875 0.0
H224 H 0.65711 0.25985 0.26561 0.0
H225 H 0.71414 0.27205 0.31193 0.0
H226 H 0.68139 0.26779 0.34124 0.0
H227 H 0.65678 0.30321 0.273 0.0
H228 H 0.63782 0.33124 0.29858 0.0
H229 H 0.74487 0.21042 0.27967 0.0
H230 H 0.7508 0.27912 0.29987 0.0
H231 H 0.66267 0.29582 0.36677 0.0
H232 H 0.78256 0.20153 0.29612 0.0
H233 H 0.78814 0.26977 0.3174 0.0
C234 C 0.26111 0.60834 0.16387 0.0
C235 C 0.25622 0.60674 0.13797 0.0
C236 C 0.28226 0.61448 0.17183 0.0
C237 C 0.29897 0.61919 0.15404 0.0
C238 C 0.29413 0.61747 0.12815 0.0
C239 C 0.273 0.6113 0.1202 0.0
C240 C 0.32127 0.62621 0.16243 0.0
C241 C 0.33215 0.61544 0.18363 0.0
C242 C 0.3532 0.62214 0.19162 0.0
C243 C 0.36318 0.63992 0.17851 0.0
C244 C 0.35241 0.65113 0.15766 0.0
C245 C 0.33158 0.64402 0.1495 0.0
C246 C 0.36286 0.67065 0.1451 0.0
C247 C 0.3724 0.68678 0.15985 0.0
C248 C 0.36409 0.67297 0.11857 0.0
C249 C 0.37538 0.6907 0.10709 0.0
C250 C 0.3856 0.70637 0.12197 0.0
C251 C 0.36475 0.61132 0.21412 0.0
C252 C 0.3535 0.60865 0.23721 0.0
C253 C 0.38771 0.6054 0.21315 0.0
C254 C 0.39945 0.598 0.23506 0.0
C255 C 0.38851 0.59647 0.25848 0.0
C256 C 0.36529 0.60133 0.25923 0.0
C257 C 0.38363 0.70442 0.14843 0.0
H258 H 0.24846 0.60526 0.17801 0.0
H259 H 0.28538 0.61598 0.19188 0.0
H260 H 0.30677 0.62069 0.11403 0.0
H261 H 0.26989 0.60985 0.10014 0.0
H262 H 0.32448 0.60158 0.19363 0.0
H263 H 0.32302 0.65289 0.13366 0.0
H264 H 0.37933 0.64529 0.18483 0.0
H265 H 0.37127 0.68571 0.18031 0.0
H266 H 0.35694 0.66072 0.10677 0.0
H267 H 0.37669 0.69177 0.08665 0.0
H268 H 0.33582 0.61325 0.23848 0.0
H269 H 0.3967 0.60698 0.19548 0.0
H270 H 0.39083 0.71654 0.16037 0.0
H271 H 0.3564 0.60044 0.277 0.0
H272 H 0.4172 0.59384 0.23372 0.0
C273 C 0.16402 0.22333 0.66186 0.0
C274 C 0.14225 0.21824 0.66942 0.0
C275 C 0.17595 0.23907 0.67443 0.0
C276 C 0.1664 0.25013 0.69487 0.0
C277 C 0.14462 0.24509 0.70247 0.0
C278 C 0.13265 0.22928 0.68986 0.0
C279 C 0.17927 0.26687 0.70804 0.0
C280 C 0.19181 0.28231 0.69392 0.0
C281 C 0.20455 0.29793 0.70602 0.0
C282 C 0.20492 0.29778 0.73256 0.0
C283 C 0.19222 0.28277 0.74686 0.0
C284 C 0.17926 0.26746 0.73462 0.0
C285 C 0.19153 0.28454 0.77453 0.0
C286 C 0.21119 0.28113 0.78911 0.0
C287 C 0.17203 0.29306 0.78574 0.0
C288 C 0.17262 0.29986 0.81065 0.0
C289 C 0.19271 0.29794 0.82495 0.0
C290 C 0.21701 0.31476 0.69102 0.0
C291 C 0.2291 0.30866 0.66953 0.0
C292 C 0.21685 0.33711 0.69809 0.0
C293 C 0.22867 0.35297 0.68413 0.0
C294 C 0.2409 0.34685 0.66276 0.0
C295 C 0.24092 0.32453 0.65555 0.0
C296 C 0.21169 0.28746 0.81423 0.0
H297 H 0.17206 0.21478 0.64653 0.0
H298 H 0.19284 0.2423 0.66841 0.0
H299 H 0.13672 0.25355 0.71795 0.0
H300 H 0.11583 0.22585 0.69597 0.0
H301 H 0.19113 0.28256 0.67341 0.0
H302 H 0.16957 0.25581 0.74582 0.0
H303 H 0.2148 0.30966 0.74219 0.0
H304 H 0.2264 0.2745 0.78071 0.0
H305 H 0.15677 0.29601 0.77464 0.0
H306 H 0.1577 0.3081 0.81788 0.0
H307 H 0.22966 0.29154 0.6637 0.0
H308 H 0.20744 0.34241 0.71435 0.0
H309 H 0.22728 0.28514 0.82479 0.0
H310 H 0.24999 0.31934 0.63901 0.0
H311 H 0.2285 0.36997 0.69032 0.0
Nd312 Nd 0.03962 0.99959 0.51541 0.0
Nd313 Nd 1.0085 0.04057 0.51991 0.0
C314 C 0.05791 0.9589 0.51229 0.0
C315 C 0.06749 0.94198 0.53057 0.0
C316 C 0.07788 0.9224 0.52203 0.0
C317 C 0.08951 0.90753 0.53907 0.0
C318 C 0.09098 0.91214 0.5649 0.0
C319 C 0.07963 0.93136 0.5735 0.0
C320 C 0.06798 0.94618 0.55645 0.0
C321 C 0.05659 0.03254 0.54349 0.0
C322 C 1.00356 1.00104 0.56303 0.0
C323 C 0.9896 0.08105 0.52221 0.0
C324 C 0.97685 0.09596 0.50398 0.0
C325 C 0.97894 0.11919 0.50415 0.0
C326 C 0.96648 0.13337 0.48703 0.0
C327 C 0.95163 0.12443 0.46976 0.0
C328 C 0.94991 0.10115 0.4694 0.0
C329 C 0.96252 0.08703 0.48622 0.0
C330 C 0.99142 1.00787 0.49154 0.0
C331 C 0.04537 0.03931 0.47298 0.0
O332 O 0.03625 0.96297 0.51346 0.0
O333 O 0.06919 0.97708 0.50968 0.0
O334 O 0.06891 0.01999 0.52934 0.0
O335 O 0.03682 0.0263 0.54404 0.0
O336 O 1.01566 0.98841 0.54784 0.0
O337 O 1.00131 0.02292 0.55846 0.0
O338 O 1.01088 0.07756 0.51746 0.0
O339 O 0.97977 0.06281 0.52959 0.0
O340 O 0.97915 0.02066 0.50543 0.0
O341 O 1.01127 1.01394 0.49111 0.0
O342 O 0.03334 0.05187 0.48834 0.0
O343 O 0.04732 0.01738 0.47716 0.0
H344 H 0.07761 0.91895 0.50208 0.0
H345 H 0.09782 0.89272 0.53193 0.0
H346 H 0.08065 0.93556 0.59319 0.0
H347 H 0.06009 0.96134 0.5633 0.0
H348 H 0.99006 0.12634 0.51761 0.0
H349 H 0.96807 0.15128 0.48763 0.0
H350 H 0.93884 0.09385 0.45599 0.0
H351 H 0.96092 0.06913 0.48544 0.0
Nd352 Nd 0.52664 1.00241 0.03889 0.0
Nd353 Nd 0.52147 0.03185 0.99584 0.0
C354 C 0.5321 0.96719 0.07075 0.0
C355 C 0.52464 0.94413 0.07081 0.0
C356 C 0.52332 0.93279 0.04819 0.0
C357 C 0.51387 0.91187 0.04799 0.0
C358 C 0.50568 0.90189 0.07043 0.0
C359 C 0.50765 0.91301 0.09318 0.0
C360 C 0.517 0.93399 0.09334 0.0
C361 C 0.49139 0.0334 0.04466 0.0
C362 C 0.49675 0.98724 0.991 0.0
C363 C 0.51621 0.06686 0.96375 0.0
C364 C 0.52994 0.0862 0.95862 0.0
C365 C 0.52039 0.10584 0.94703 0.0
C366 C 0.53308 0.12485 0.94395 0.0
C367 C 0.55549 0.12441 0.95244 0.0
C368 C 0.56504 0.10454 0.96378 0.0
C369 C 0.55234 0.08562 0.96691 0.0
C370 C 0.55719 1.0013 0.99041 0.0
C371 C 0.55137 0.04749 0.04418 0.0
O372 O 0.54687 0.97276 0.05377 0.0
O373 O 0.51622 0.98258 0.07291 0.0
O374 O 0.50672 0.02819 0.06166 0.0
O375 O 0.49518 0.02275 0.02479 0.0
O376 O 0.51089 0.98042 1.00926 0.0
O377 O 0.49449 1.00859 0.98442 0.0
O378 O 0.50716 0.06591 0.98615 0.0
O379 O 0.5249 0.04758 0.95739 0.0
O380 O 0.54209 1.00645 0.97315 0.0
O381 O 0.55303 1.01194 1.01017 0.0
O382 O 0.53993 0.05375 0.02347 0.0
O383 O 0.55117 0.02681 0.05344 0.0
H384 H 0.52915 0.9403 0.03056 0.0
H385 H 0.51282 0.90359 0.03024 0.0
H386 H 0.50126 0.90585 0.11072 0.0
H387 H 0.51773 0.94257 0.11092 0.0
H388 H 0.50306 0.10658 0.94071 0.0
H389 H 0.52537 0.13988 0.93495 0.0
H390 H 0.58215 0.10381 0.97083 0.0
H391 H 0.55988 0.07063 0.97624 0.0
Nd392 Nd 0.50185 0.50074 0.51409 0.0
Nd393 Nd 0.5449 0.52594 0.52445 0.0
C394 C 0.46162 0.48886 0.50034 0.0
C395 C 0.43959 0.48728 0.51196 0.0
C396 C 0.42257 0.47685 0.49923 0.0
C397 C 0.40221 0.47313 0.51114 0.0
C398 C 0.39863 0.47977 0.53604 0.0
C399 C 0.4155 0.49104 0.54835 0.0
C400 C 0.43586 0.49476 0.53639 0.0
C401 C 0.52571 0.486 0.55663 0.0
C402 C 0.49932 0.54491 0.54915 0.0
C403 C 0.585 0.53799 0.53851 0.0
C404 C 0.60686 0.54139 0.52698 0.0
C405 C 0.62565 0.54369 0.54249 0.0
C406 C 0.6461 0.54924 0.53179 0.0
C407 C 0.64797 0.5527 0.50539 0.0
C408 C 0.62924 0.54935 0.48988 0.0
C409 C 0.60885 0.54368 0.50061 0.0
C410 C 0.52107 0.54062 0.48183 0.0
C411 C 0.54741 0.48141 0.48968 0.0
O412 O 0.46874 0.50906 0.49616 0.0
O413 O 0.47715 0.47471 0.50969 0.0
O414 O 0.51469 0.47266 0.54291 0.0
O415 O 0.52225 0.50593 0.54893 0.0
O416 O 0.48844 0.53255 0.53338 0.0
O417 O 0.52125 0.54247 0.55231 0.0
O418 O 0.57869 0.51733 0.54071 0.0
O419 O 0.56885 0.55221 0.53086 0.0
O420 O 0.53215 0.55396 0.49549 0.0
O421 O 0.52459 0.5207 0.48958 0.0
O422 O 0.55835 0.49421 0.50496 0.0
O423 O 0.52544 0.48351 0.48677 0.0
H424 H 0.42529 0.47092 0.48038 0.0
H425 H 0.3897 0.46413 0.50128 0.0
H426 H 0.41313 0.49654 0.56743 0.0
H427 H 0.44891 0.50288 0.54644 0.0
H428 H 0.62436 0.5418 0.56291 0.0
H429 H 0.66029 0.55136 0.54421 0.0
H430 H 0.62997 0.55215 0.46953 0.0
H431 H 0.59444 0.54187 0.48838 0.0
Nd432 Nd 1.0076 0.51499 0.03433 0.0
Nd433 Nd 0.04679 0.52537 0.99934 0.0
C434 C 0.96742 0.51088 0.05402 0.0
C435 C 0.95028 0.52812 0.05963 0.0
C436 C 0.92888 0.52248 0.06776 0.0
C437 C 0.91286 0.53937 0.07301 0.0
C438 C 0.91805 0.562 0.06966 0.0
C439 C 0.93944 0.56745 0.06126 0.0
C440 C 0.95545 0.55067 0.05655 0.0
C441 C 0.04169 0.53674 0.05611 0.0
C442 C 1.00598 0.56256 0.99795 0.0
C443 C 0.08706 0.53102 0.98055 0.0
C444 C 0.10594 0.51553 0.97489 0.0
C445 C 0.11252 0.49783 0.99204 0.0
C446 C 0.12763 0.48096 0.98473 0.0
C447 C 0.13647 0.48156 0.96016 0.0
C448 C 0.13102 0.50013 0.94367 0.0
C449 C 0.11582 0.51693 0.95096 0.0
C450 C 1.0126 0.50394 0.97732 0.0
C451 C 0.04782 0.47711 0.03463 0.0
O452 O 0.97147 0.50887 0.02993 0.0
O453 O 0.98574 0.51101 0.06774 0.0
O454 O 0.0307 0.52138 0.06809 0.0
O455 O 0.03378 0.54087 0.03419 0.0
O456 O 0.99486 0.54715 1.01089 0.0
O457 O 0.02763 0.55943 0.99347 0.0
O458 O 0.08239 0.53322 1.00451 0.0
O459 O 0.06917 0.52946 0.96638 0.0
O460 O 0.02393 0.51906 0.96533 0.0
O461 O 1.02044 0.49969 0.99927 0.0
O462 O 0.05916 0.49239 0.02168 0.0
O463 O 0.02625 0.48062 0.03943 0.0
H464 H 0.92466 0.50511 0.07025 0.0
H465 H 0.89651 0.53482 0.0797 0.0
H466 H 0.94405 0.58474 0.05912 0.0
H467 H 0.97203 0.55533 0.05081 0.0
H468 H 0.10526 0.49648 1.0107 0.0
H469 H 0.13137 0.46685 0.99783 0.0
H470 H 0.13789 0.50128 0.92478 0.0
H471 H 0.11105 0.53051 0.93751 0.0
H472 H 0.16731 0.10081 0.28048 0.0
H473 H 0.14795 0.08382 0.31674 0.0
H474 H 0.10354 0.14227 0.31885 0.0
H475 H 0.1225 0.15909 0.28236 0.0
H476 H 0.14249 0.09456 0.36417 0.0
H477 H 0.05797 0.09576 0.32045 0.0
H478 H 0.08256 0.102 0.30234 0.0
H479 H 0.06894 0.12314 0.32071 0.0
C480 C 0.15342 0.11009 0.28864 0.0
C481 C 0.14642 0.13132 0.27815 0.0
C482 C 0.14227 0.10029 0.30943 0.0
C483 C 0.12379 0.1114 0.32045 0.0
C484 C 0.11715 0.13285 0.31038 0.0
H485 H 0.04084 0.08291 0.45385 0.0
H486 H 0.05985 0.1002 0.41742 0.0
C487 C 0.12814 0.14255 0.28945 0.0
C488 C 0.11189 0.1008 0.34272 0.0
H489 H 0.06012 0.08716 0.36488 0.0
C490 C 0.12449 0.09285 0.36415 0.0
C491 C 0.08832 0.0984 0.34304 0.0
C492 C 0.07368 0.10506 0.32031 0.0
C493 C 0.1143 0.08306 0.38574 0.0
C494 C 0.09076 0.08092 0.38612 0.0
C495 C 0.07812 0.08887 0.36478 0.0
C496 C 0.07903 0.07025 0.40833 0.0
C497 C 0.12879 0.07544 0.40826 0.0
C498 C 0.08311 0.04751 0.41536 0.0
C499 C 0.0721 0.03751 0.43609 0.0
C500 C 0.05673 0.04997 0.45053 0.0
C501 C 0.05257 0.07273 0.44335 0.0
C502 C 0.06344 0.08267 0.42243 0.0
H503 H 0.14559 0.0827 0.40737 0.0
H504 H 0.12066 0.08009 0.42621 0.0
H505 H 0.13113 0.05695 0.40868 0.0
H506 H 0.09476 0.0374 0.40466 0.0
H507 H 0.0758 0.01997 0.4409 0.0
H508 H 0.37612 0.86683 0.85349 0.0
H509 H 0.39305 0.89212 0.88245 0.0
H510 H 0.4558 0.85414 0.87953 0.0
H511 H 0.4389 0.82839 0.8509 0.0
H512 H 0.41534 0.88163 0.93108 0.0
H513 H 0.47054 0.92001 0.8584 0.0
H514 H 0.44667 0.90416 0.85018 0.0
H515 H 0.47206 0.88997 0.86165 0.0
C516 C 0.39344 0.86362 0.85926 0.0
C517 C 0.40616 0.84557 0.84983 0.0
C518 C 0.4031 0.87816 0.87571 0.0
C519 C 0.42569 0.87508 0.88289 0.0
C520 C 0.4384 0.85694 0.87388 0.0
H521 H 0.49629 0.94201 1.00059 0.0
H522 H 0.47841 0.91445 0.97533 0.0
C523 C 0.42873 0.84231 0.85748 0.0
C524 C 0.43596 0.89111 0.89951 0.0
H525 H 0.47431 0.93173 0.90021 0.0
C526 C 0.42827 0.89257 0.92442 0.0
C527 C 0.45263 0.90547 0.89057 0.0
C528 C 0.46092 0.90505 0.86369 0.0
C529 C 0.43695 0.908 0.94074 0.0
C530 C 0.45382 0.92218 0.93188 0.0
C531 C 0.46142 0.92077 0.90693 0.0
C532 C 0.46365 0.93887 0.94802 0.0
C533 C 0.42774 0.90931 0.96715 0.0
C534 C 0.46138 0.96171 0.94095 0.0
C535 C 0.47165 0.97751 0.95529 0.0
C536 C 0.48454 0.97071 0.97687 0.0
C537 C 0.4865 0.94782 0.9841 0.0
C538 C 0.47618 0.93203 0.96976 0.0
H539 H 0.41148 0.90105 0.96904 0.0
H540 H 0.43981 0.90076 0.98083 0.0
H541 H 0.42537 0.92698 0.97243 0.0
H542 H 0.45182 0.96729 0.92416 0.0
H543 H 0.46983 0.99499 0.94916 0.0
H544 H 0.67757 0.41277 0.71811 0.0
H545 H 0.65287 0.42259 0.68177 0.0
H546 H 0.61484 0.46879 0.72662 0.0
H547 H 0.63918 0.45872 0.76323 0.0
H548 H 0.58877 0.43817 0.70023 0.0
H549 H 0.64905 0.48143 0.63743 0.0
H550 H 0.65848 0.45426 0.65005 0.0
H551 H 0.65386 0.47669 0.67106 0.0
C552 C 0.664 0.42509 0.72019 0.0
C553 C 0.66031 0.43499 0.74351 0.0
C554 C 0.65003 0.4308 0.69938 0.0
C555 C 0.63218 0.44652 0.70152 0.0
C556 C 0.62862 0.45668 0.72462 0.0
H557 H 0.54874 0.51319 0.58601 0.0
H558 H 0.57428 0.50245 0.62116 0.0
C559 C 0.64263 0.45104 0.74543 0.0
C560 C 0.61662 0.45169 0.67997 0.0
H561 H 0.61361 0.47449 0.61966 0.0
C562 C 0.59415 0.44611 0.68259 0.0
C563 C 0.62376 0.46214 0.65711 0.0
C564 C 0.64755 0.46918 0.65368 0.0
C565 C 0.57856 0.45068 0.66285 0.0
C566 C 0.58577 0.46084 0.63986 0.0
C567 C 0.60824 0.46648 0.63727 0.0
C568 C 0.57002 0.46693 0.61872 0.0
C569 C 0.55442 0.44509 0.6669 0.0
C570 C 0.55924 0.45044 0.60566 0.0
C571 C 0.54458 0.45654 0.58549 0.0
C572 C 0.54062 0.47919 0.57816 0.0
C573 C 0.55146 0.4956 0.59129 0.0
C574 C 0.56608 0.48951 0.61133 0.0
H575 H 0.55077 0.44152 0.68723 0.0
H576 H 0.54298 0.45904 0.6596 0.0
H577 H 0.55072 0.43003 0.65637 0.0
H578 H 0.56235 0.4329 0.6109 0.0
H579 H 0.53652 0.44359 0.57555 0.0
H580 H 0.8288 0.73779 0.17354 0.0
H581 H 0.83358 0.71182 0.13914 0.0
H582 H 0.89179 0.68105 0.17746 0.0
H583 H 0.88715 0.70661 0.21166 0.0
H584 H 0.89744 0.68856 0.12549 0.0
H585 H 0.81871 0.64528 0.14765 0.0
H586 H 0.81643 0.675 0.14097 0.0
H587 H 0.83087 0.66413 0.16908 0.0
C588 C 0.84269 0.72557 0.17448 0.0
C589 C 0.85761 0.72429 0.19531 0.0
C590 C 0.84535 0.71074 0.15489 0.0
C591 C 0.86286 0.69437 0.15598 0.0
C592 C 0.87819 0.69362 0.17625 0.0
H593 H 0.89619 0.56537 0.11429 0.0
H594 H 0.878 0.59918 0.13026 0.0
C595 C 0.8756 0.70838 0.19572 0.0
C596 C 0.86517 0.67726 0.13675 0.0
H597 H 0.8426 0.6292 0.11788 0.0
C598 C 0.88529 0.67579 0.12337 0.0
C599 C 0.84929 0.6606 0.13431 0.0
C600 C 0.82764 0.6611 0.14883 0.0
C601 C 0.89062 0.6574 0.10875 0.0
C602 C 0.87504 0.64033 0.10692 0.0
C603 C 0.85438 0.64241 0.1192 0.0
C604 C 0.8813 0.61897 0.09529 0.0
C605 C 0.91354 0.6557 0.09693 0.0
C606 C 0.88802 0.61857 0.06994 0.0
C607 C 0.89865 0.59935 0.0609 0.0
C608 C 0.90226 0.58017 0.07697 0.0
C609 C 0.89351 0.57991 0.10153 0.0
C610 C 0.88317 0.59923 0.11065 0.0
H611 H 0.92498 0.66812 0.10426 0.0
H612 H 0.92141 0.63873 0.10056 0.0
H613 H 0.91188 0.65883 0.07613 0.0
H614 H 0.88625 0.63348 0.05761 0.0
H615 H 0.90506 0.59982 0.04178 0.0
H616 H 0.29036 0.12282 0.08436 0.0
H617 H 0.32457 0.10461 0.06847 0.0
H618 H 0.3603 0.12124 0.13571 0.0
H619 H 0.32637 0.13972 0.15161 0.0
H620 H 0.36676 0.12001 0.05723 0.0
H621 H 0.37458 0.05448 0.1344 0.0
H622 H 0.34942 0.07187 0.12926 0.0
H623 H 0.37307 0.08232 0.14564 0.0
C624 C 0.30548 0.12284 0.09578 0.0
C625 C 0.30521 0.13277 0.11954 0.0
C626 C 0.32514 0.11224 0.08664 0.0
C627 C 0.34515 0.11103 0.10098 0.0
C628 C 0.34507 0.12129 0.12443 0.0
H629 H 0.48144 0.05522 0.08761 0.0
H630 H 0.44621 0.07397 0.09941 0.0
C631 C 0.32548 0.13191 0.13357 0.0
C632 C 0.36608 0.09924 0.09146 0.0
H633 H 0.40577 0.05779 0.10712 0.0
C634 C 0.37518 0.1063 0.06808 0.0
C635 C 0.37727 0.08124 0.10541 0.0
C636 C 0.36801 0.07185 0.12994 0.0
C637 C 0.39532 0.09649 0.05882 0.0
C638 C 0.40667 0.07867 0.07296 0.0
C639 C 0.39735 0.07143 0.09615 0.0
C640 C 0.42853 0.06775 0.06469 0.0
C641 C 0.40464 0.10592 0.03435 0.0
C642 C 0.4308 0.05779 0.04109 0.0
C643 C 0.4512 0.04703 0.03416 0.0
C644 C 0.46984 0.04575 0.05078 0.0
C645 C 0.46753 0.0558 0.07426 0.0
C646 C 0.44726 0.06656 0.08111 0.0
H647 H 0.39762 0.12306 0.02953 0.0
H648 H 0.42319 0.10647 0.03538 0.0
H649 H 0.40019 0.0951 0.01874 0.0
H650 H 0.41665 0.0579 0.02816 0.0
H651 H 0.45225 0.03937 1.01604 0.0
H652 H 0.24129 0.84589 0.73069 0.0
H653 H 0.20663 0.86069 0.71001 0.0
H654 H 0.21197 0.80919 0.65564 0.0
H655 H 0.24607 0.79381 0.67673 0.0
H656 H 0.20415 0.87738 0.66143 0.0
H657 H 0.14617 0.80806 0.67381 0.0
H658 H 0.17163 0.80933 0.69229 0.0
H659 H 0.17253 0.7992 0.66075 0.0
C660 C 0.23477 0.83738 0.71473 0.0
C661 C 0.24647 0.81872 0.70529 0.0
C662 C 0.21503 0.84591 0.70287 0.0
C663 C 0.20658 0.83587 0.68149 0.0
C664 C 0.21791 0.81693 0.67242 0.0
H665 H 0.13279 0.8948 0.55515 0.0
H666 H 0.15917 0.87538 0.58493 0.0
C667 C 0.2376 0.80836 0.68428 0.0
C668 C 0.18729 0.84647 0.66709 0.0
H669 H 0.13645 0.83609 0.64102 0.0
C670 C 0.18922 0.86845 0.65727 0.0
C671 C 0.16776 0.83484 0.66183 0.0
C672 C 0.16426 0.81163 0.67294 0.0
C673 C 0.17254 0.87881 0.6415 0.0
C674 C 0.15361 0.86675 0.63512 0.0
C675 C 0.15117 0.84513 0.64574 0.0
C676 C 0.13666 0.87626 0.61674 0.0
C677 C 0.1754 0.90251 0.6315 0.0
C678 C 0.11502 0.88239 0.62464 0.0
C679 C 0.09978 0.89337 0.60759 0.0
C680 C 0.10596 0.89822 0.58236 0.0
C681 C 0.12738 0.89111 0.57434 0.0
C682 C 0.14256 0.8802 0.59137 0.0
H683 H 0.18795 0.91113 0.64276 0.0
H684 H 0.18126 0.90227 0.61164 0.0
H685 H 0.15923 0.91234 0.63164 0.0
H686 H 0.11018 0.87933 0.64416 0.0
H687 H 0.08331 0.8984 0.61425 0.0
H688 H 0.84276 0.41886 0.8716 0.0
H689 H 0.87881 0.43143 0.88657 0.0
H690 H 0.84486 0.46965 0.94315 0.0
H691 H 0.80869 0.45767 0.92763 0.0
H692 H 0.87648 0.49307 0.92127 0.0
H693 H 0.91229 0.40876 0.9491 0.0
H694 H 0.90401 0.41096 0.91638 0.0
H695 H 0.88315 0.41372 0.94058 0.0
C696 C 0.84306 0.4299 0.88727 0.0
C697 C 0.82304 0.43722 0.89859 0.0
C698 C 0.86363 0.43696 0.89591 0.0
C699 C 0.86457 0.45103 0.91639 0.0
C700 C 0.84453 0.45867 0.92743 0.0
H701 H 0.98622 0.47372 1.0012 0.0
H702 H 0.94993 0.46136 0.98673 0.0
C703 C 0.82392 0.45188 0.91854 0.0
C704 C 0.88643 0.45814 0.92599 0.0
H705 H 0.93784 0.43838 0.94753 0.0
C706 C 0.88986 0.48111 0.92716 0.0
C707 C 0.90372 0.44252 0.93413 0.0
C708 C 0.90055 0.41763 0.93526 0.0
C709 C 0.91026 0.48891 0.93578 0.0
C710 C 0.92796 0.4733 0.94259 0.0
C711 C 0.92438 0.45033 0.94191 0.0
C712 C 0.95019 0.48043 0.95095 0.0
C713 C 0.91241 0.51376 0.938 0.0
C714 C 0.96264 0.4948 0.93538 0.0
C715 C 0.98318 0.50217 0.94378 0.0
C716 C 0.99177 0.49495 0.9677 0.0
C717 C 0.97981 0.47977 0.98278 0.0
C718 C 0.95914 0.47265 0.97452 0.0
H719 H 0.89576 0.52255 0.93958 0.0
H720 H 0.92276 0.51743 0.95475 0.0
H721 H 0.92056 0.52074 0.92077 0.0
H722 H 0.9564 0.50047 0.91678 0.0
H723 H 0.99219 0.51368 0.93168 0.0
H724 H 0.77958 0.66071 0.35828 0.0
H725 H 0.75937 0.63091 0.38004 0.0
H726 H 0.76343 0.66517 0.44991 0.0
H727 H 0.78408 0.69487 0.42829 0.0
H728 H 0.77127 0.61919 0.45652 0.0
H729 H 0.69403 0.63934 0.39923 0.0
H730 H 0.71836 0.63291 0.38081 0.0
H731 H 0.71739 0.65747 0.39921 0.0
C732 C 0.77614 0.66186 0.37829 0.0
C733 C 0.78309 0.6802 0.39157 0.0
C734 C 0.76461 0.64486 0.39066 0.0
C735 C 0.75953 0.64609 0.41643 0.0
C736 C 0.76714 0.66398 0.42997 0.0
H737 H 0.67383 0.58484 0.52407 0.0
H738 H 0.70417 0.60386 0.50283 0.0
C739 C 0.7789 0.6809 0.41764 0.0
C740 C 0.74552 0.62921 0.42905 0.0
H741 H 0.69341 0.60802 0.42779 0.0
C742 C 0.75427 0.61667 0.45022 0.0
C743 C 0.72334 0.626 0.42075 0.0
C744 C 0.7126 0.63976 0.39891 0.0
C745 C 0.74134 0.60103 0.46341 0.0
C746 C 0.71913 0.59805 0.45525 0.0
C747 C 0.71056 0.61023 0.4338 0.0
C748 C 0.70368 0.58387 0.46977 0.0
C749 C 0.75148 0.58785 0.48597 0.0
C750 C 0.69353 0.56615 0.4583 0.0
C751 C 0.67621 0.55511 0.47046 0.0
C752 C 0.66858 0.56182 0.49418 0.0
C753 C 0.67951 0.57896 0.50605 0.0
C754 C 0.69688 0.58989 0.49393 0.0
H755 H 0.77008 0.58751 0.48561 0.0
H756 H 0.74596 0.59578 0.50357 0.0
H757 H 0.74586 0.5704 0.4867 0.0
H758 H 0.69852 0.56137 0.43957 0.0
H759 H 0.66835 0.54179 0.46097 0.0
H760 H 0.17593 0.29868 0.09171 0.0
H761 H 0.15761 0.33418 0.07669 0.0
H762 H 0.1013 0.32115 0.12474 0.0
H763 H 0.11991 0.28635 0.14083 0.0
H764 H 0.11949 0.34421 0.05117 0.0
H765 H 0.11239 0.38346 0.14361 0.0
H766 H 0.12911 0.35814 0.13957 0.0
H767 H 0.09926 0.3571 0.14371 0.0
C768 C 0.15983 0.30346 0.09951 0.0
C769 C 0.14964 0.28933 0.11774 0.0
C770 C 0.14921 0.32382 0.09066 0.0
C771 C 0.12811 0.33084 0.0998 0.0
C772 C 0.11777 0.31665 0.11771 0.0
H773 H 0.03227 0.44375 0.06676 0.0
H774 H 0.05172 0.40869 0.08167 0.0
C775 C 0.12839 0.29638 0.12665 0.0
C776 C 0.1167 0.35262 0.09022 0.0
H777 H 0.09134 0.40139 0.10939 0.0
C778 C 0.11351 0.35674 0.06396 0.0
C779 C 0.10878 0.36924 0.10669 0.0
C780 C 0.11275 0.3669 0.13493 0.0
C781 C 0.10227 0.37647 0.05389 0.0
C782 C 0.0941 0.39292 0.07039 0.0
C783 C 0.09739 0.38887 0.09662 0.0
C784 C 0.08217 0.4144 0.06091 0.0
C785 C 0.09874 0.37923 0.02561 0.0
C786 C 0.09268 0.42968 0.04437 0.0
C787 C 0.08156 0.44983 0.03581 0.0
C788 C 0.05958 0.45543 0.04357 0.0
C789 C 0.04911 0.44013 0.06021 0.0
C790 C 0.06028 0.42001 0.06884 0.0
H791 H 0.10043 0.36297 0.01635 0.0
H792 H 0.08194 0.38702 0.02091 0.0
H793 H 0.11157 0.39028 0.0175 0.0
H794 H 0.10966 0.42617 0.03824 0.0
H795 H 0.09025 0.461 0.02303 0.0
H796 H 0.69075 0.27864 0.89903 0.0
H797 H 0.67061 0.24503 0.91056 0.0
H798 H 0.62238 0.28461 0.9514 0.0
H799 H 0.6427 0.31833 0.94053 0.0
H800 H 0.65564 0.22696 0.96221 0.0
H801 H 0.58742 0.25293 0.8932 0.0
H802 H 0.61497 0.2642 0.8914 0.0
H803 H 0.59573 0.27331 0.91507 0.0
C804 C 0.67618 0.28017 0.91099 0.0
C805 C 0.66824 0.3012 0.91873 0.0
C806 C 0.66465 0.26096 0.91743 0.0
C807 C 0.64495 0.26249 0.93154 0.0
C808 C 0.63746 0.28323 0.94023 0.0
H809 H 0.54219 0.16714 0.96288 0.0
H810 H 0.56429 0.20061 0.95941 0.0
C811 C 0.64903 0.30245 0.93391 0.0
C812 C 0.63152 0.2426 0.93586 0.0
H813 H 0.58327 0.21937 0.9172 0.0
C814 C 0.63979 0.22524 0.95246 0.0
C815 C 0.61091 0.24057 0.92305 0.0
C816 C 0.60168 0.25863 0.90453 0.0
C817 C 0.62776 0.20582 0.95681 0.0
C818 C 0.60727 0.20363 0.94369 0.0
C819 C 0.59898 0.22112 0.92722 0.0
C820 C 0.59423 0.18322 0.94643 0.0
C821 C 0.63692 0.18804 0.97569 0.0
C822 C 0.60367 0.16244 0.93994 0.0
C823 C 0.59109 0.14332 0.94189 0.0
C824 C 0.56876 0.14472 0.95006 0.0
C825 C 0.55928 0.1656 0.95627 0.0
C826 C 0.57191 0.18469 0.95445 0.0
H827 H 0.64893 0.19491 0.98918 0.0
H828 H 0.62323 0.1803 0.98663 0.0
H829 H 0.64597 0.17472 0.96542 0.0
H830 H 0.62067 0.16105 0.93305 0.0
H831 H 0.59872 0.1275 0.93663 0.0
H832 H 0.9195 0.86019 0.3418 0.0
H833 H 0.93977 0.88964 0.36158 0.0
H834 H 0.91415 0.86875 0.43453 0.0
H835 H 0.89373 0.8394 0.41493 0.0
H836 H 0.92112 0.92454 0.38835 0.0
H837 H 0.98147 0.87254 0.44838 0.0
H838 H 0.96603 0.86145 0.42257 0.0
H839 H 0.95287 0.86519 0.45264 0.0
C840 C 0.91819 0.86188 0.36205 0.0
C841 C 0.90504 0.84746 0.37682 0.0
C842 C 0.92987 0.87861 0.37332 0.0
C843 C 0.92872 0.88112 0.39954 0.0
C844 C 0.91569 0.86672 0.41435 0.0
H845 H 0.9484 0.99517 0.48802 0.0
H846 H 0.93433 0.96453 0.4641 0.0
C847 C 0.90401 0.84999 0.40311 0.0
C848 C 0.94001 0.89963 0.41125 0.0
H849 H 0.97734 0.91121 0.45763 0.0
C850 C 0.93358 0.92165 0.40333 0.0
C851 C 0.95643 0.89576 0.43056 0.0
C852 C 0.9648 0.87246 0.4389 0.0
C853 C 0.94256 0.93995 0.41485 0.0
C854 C 0.95813 0.93606 0.43501 0.0
C855 C 0.9652 0.91408 0.44232 0.0
C856 C 0.96672 0.95461 0.44925 0.0
C857 C 0.93527 0.9633 0.40544 0.0
C858 C 0.98964 0.95883 0.44915 0.0
C859 C 0.99771 0.97631 0.46279 0.0
C860 C 0.98296 0.98965 0.47687 0.0
C861 C 0.96008 0.98523 0.47716 0.0
C862 C 0.95202 0.96782 0.46346 0.0
H863 H 0.92798 0.96348 0.38602 0.0
H864 H 0.92228 0.97008 0.41822 0.0
H865 H 0.94958 0.97456 0.40538 0.0
H866 H 1.00123 0.94868 0.43841 0.0
H867 H 1.01546 0.97933 0.4624 0.0
H868 H 0.43837 0.68876 0.70692 0.0
H869 H 0.45368 0.66054 0.67896 0.0
H870 H 0.38897 0.6571 0.64286 0.0
H871 H 0.37374 0.68579 0.67006 0.0
H872 H 0.43975 0.61676 0.67346 0.0
H873 H 0.43095 0.66753 0.58298 0.0
H874 H 0.42901 0.67976 0.61353 0.0
H875 H 0.40572 0.66556 0.60104 0.0
C876 C 0.42747 0.68216 0.69286 0.0
C877 C 0.40485 0.68954 0.6907 0.0
C878 C 0.43619 0.66597 0.67701 0.0
C879 C 0.42251 0.65698 0.65865 0.0
C880 C 0.39989 0.6641 0.65663 0.0
H881 H 0.45424 0.55608 0.5477 0.0
H882 H 0.43389 0.58241 0.57441 0.0
C883 C 0.39116 0.6803 0.67242 0.0
C884 C 0.43186 0.63985 0.64193 0.0
H885 H 0.44321 0.62967 0.58018 0.0
C886 C 0.44049 0.61956 0.65307 0.0
C887 C 0.43265 0.64354 0.61532 0.0
C888 C 0.42427 0.66533 0.60245 0.0
C889 C 0.45005 0.60288 0.63829 0.0
C890 C 0.45124 0.60675 0.61177 0.0
C891 C 0.44217 0.6268 0.60054 0.0
C892 C 0.46325 0.59081 0.59564 0.0
C893 C 0.45883 0.58123 0.65114 0.0
C894 C 0.48646 0.58717 0.59857 0.0
C895 C 0.4981 0.57232 0.58338 0.0
C896 C 0.48674 0.56081 0.56489 0.0
C897 C 0.46346 0.56464 0.56182 0.0
C898 C 0.45182 0.57964 0.57701 0.0
H899 H 0.45158 0.57856 0.67027 0.0
H900 H 0.45507 0.56677 0.63961 0.0
H901 H 0.4773 0.58169 0.65333 0.0
H902 H 0.49561 0.59594 0.61258 0.0
H903 H 0.51602 0.56986 0.58623 0.0
H904 H 0.8818 0.9386 0.7553 0.0
H905 H 0.90078 0.9556 0.71871 0.0
H906 H 0.94675 0.89832 0.71769 0.0
H907 H 0.92774 0.88109 0.75401 0.0
H908 H 0.94712 0.96646 0.71396 0.0
H909 H 0.92354 0.90521 0.6437 0.0
H910 H 0.90932 0.90771 0.67352 0.0
H911 H 0.93624 0.8933 0.67244 0.0
C912 C 0.89581 0.92947 0.74718 0.0
C913 C 0.9031 0.90835 0.75777 0.0
C914 C 0.90676 0.93931 0.72628 0.0
C915 C 0.92512 0.92821 0.71509 0.0
C916 C 0.93247 0.90717 0.72562 0.0
H917 H 1.00959 0.95801 0.58346 0.0
H918 H 0.99133 0.94096 0.62046 0.0
C919 C 0.92166 0.89741 0.74665 0.0
C920 C 0.9368 0.93879 0.69279 0.0
H921 H 0.94934 0.9321 0.63034 0.0
C922 C 0.94752 0.95899 0.69565 0.0
C923 C 0.93757 0.92904 0.66884 0.0
C924 C 0.92592 0.90771 0.66424 0.0
C925 C 0.95924 0.96942 0.67556 0.0
C926 C 0.95977 0.95985 0.65144 0.0
C927 C 0.94905 0.9396 0.64864 0.0
C928 C 0.97122 0.97054 0.62892 0.0
C929 C 0.97154 0.99026 0.68075 0.0
C930 C 0.96603 0.99289 0.6208 0.0
C931 C 0.97668 1.00278 0.59975 0.0
C932 C 0.99258 0.99053 0.58581 0.0
C933 C 0.99751 0.96805 0.59366 0.0
C934 C 0.987 0.95823 0.61489 0.0
H935 H 0.97566 0.99116 0.70121 0.0
H936 H 0.98732 0.99102 0.66987 0.0
H937 H 0.96069 1.00518 0.67519 0.0
H938 H 0.95347 1.0027 0.63056 0.0
H939 H 0.97217 0.02002 0.59419 0.0
H940 H 0.61369 0.19679 0.19257 0.0
H941 H 0.59645 0.17105 0.16415 0.0
H942 H 0.66055 0.15828 0.12935 0.0
H943 H 0.67795 0.18326 0.15848 0.0
H944 H 0.59152 0.16921 0.11456 0.0
H945 H 0.64451 0.096 0.14958 0.0
H946 H 0.64423 0.12237 0.16471 0.0
H947 H 0.6607 0.11828 0.13677 0.0
C948 C 0.62401 0.18858 0.1787 0.0
C949 C 0.64715 0.19176 0.17781 0.0
C950 C 0.61419 0.17388 0.16251 0.0
C951 C 0.62731 0.16229 0.14503 0.0
C952 C 0.65022 0.16644 0.14323 0.0
H953 H 0.56634 0.08734 0.02528 0.0
H954 H 0.58561 0.11549 0.04844 0.0
C955 C 0.66012 0.18081 0.15972 0.0
C956 C 0.61707 0.14554 0.12914 0.0
H957 H 0.62154 0.09082 0.11373 0.0
C958 C 0.59804 0.15205 0.1144 0.0
C959 C 0.62537 0.12304 0.12927 0.0
C960 C 0.64467 0.11443 0.14613 0.0
C961 C 0.58707 0.13672 0.09982 0.0
C962 C 0.59586 0.11441 0.09926 0.0
C963 C 0.61494 0.10796 0.11393 0.0
C964 C 0.58496 0.09714 0.08468 0.0
C965 C 0.56575 0.14444 0.08594 0.0
C966 C 0.57913 0.07698 0.09702 0.0
C967 C 0.56872 0.06063 0.08369 0.0
C968 C 0.56369 0.06421 0.05779 0.0
C969 C 0.56981 0.08423 0.04531 0.0
C970 C 0.58063 0.10042 0.05858 0.0
H971 H 0.5579 0.15954 0.09424 0.0
H972 H 0.56966 0.14886 0.06589 0.0
H973 H 0.55336 0.13112 0.08632 0.0
H974 H 0.58235 0.074 0.11712 0.0
H975 H 0.56412 0.04541 0.09383 0.0
H976 H 0.42936 0.61155 0.27139 0.0
H977 H 0.45126 0.60241 0.30994 0.0
H978 H 0.39912 0.56056 0.33807 0.0
H979 H 0.37711 0.56935 0.29924 0.0
H980 H 0.41672 0.59123 0.37382 0.0
H981 H 0.48318 0.54048 0.32723 0.0
H982 H 0.47712 0.56776 0.31262 0.0
H983 H 0.45613 0.54714 0.31265 0.0
C984 C 0.42264 0.60015 0.28559 0.0
C985 C 0.4016 0.59093 0.2821 0.0
C986 C 0.43514 0.59504 0.30765 0.0
C987 C 0.42689 0.58062 0.32663 0.0
C988 C 0.40575 0.5717 0.32353 0.0
H989 H 0.49981 0.51325 0.45097 0.0
H990 H 0.47633 0.5238 0.41397 0.0
C991 C 0.3932 0.57677 0.3014 0.0
C992 C 0.44047 0.57483 0.34967 0.0
H993 H 0.48964 0.54875 0.37001 0.0
C994 C 0.43265 0.58191 0.37307 0.0
C995 C 0.46113 0.56255 0.34852 0.0
C996 C 0.46988 0.55385 0.32397 0.0
C997 C 0.44515 0.57722 0.39543 0.0
C998 C 0.46603 0.56533 0.39417 0.0
C999 C 0.47371 0.55806 0.3708 0.0
C1000 C 0.4798 0.55938 0.41703 0.0
C1001 C 0.43582 0.58463 0.42027 0.0
C1002 C 0.48962 0.57594 0.43089 0.0
C1003 C 0.50313 0.56994 0.45208 0.0
C1004 C 0.50699 0.54732 0.45957 0.0
C1005 C 0.49712 0.53082 0.44562 0.0
C1006 C 0.48371 0.5368 0.4245 0.0
H1007 H 0.41771 0.5896 0.41869 0.0
H1008 H 0.43813 0.57107 0.43521 0.0
H1009 H 0.44496 0.59924 0.42638 0.0
H1010 H 0.48703 0.59345 0.42516 0.0
H1011 H 0.51058 0.58295 0.46254 0.0
H1012 H 0.22895 0.31923 0.84316 0.0
H1013 H 0.22932 0.34532 0.87692 0.0
H1014 H 0.16044 0.33193 0.89352 0.0
H1015 H 0.16054 0.30419 0.86137 0.0
H1016 H 0.20634 0.38159 0.87222 0.0
H1017 H 0.18121 0.34214 0.9629 0.0
H1018 H 0.19033 0.32575 0.93675 0.0
H1019 H 0.16145 0.33554 0.93901 0.0
C1020 C 0.21418 0.32086 0.85476 0.0
C1021 C 0.19454 0.30975 0.84909 0.0
C1022 C 0.21439 0.33605 0.87401 0.0
C1023 C 0.19491 0.34074 0.88781 0.0
C1024 C 0.17585 0.32841 0.88355 0.0
H1025 H 0.13218 0.46293 0.91452 0.0
H1026 H 0.15117 0.4293 0.89986 0.0
C1027 C 0.17579 0.31282 0.86468 0.0
C1028 C 0.19313 0.36111 0.90282 0.0
H1029 H 0.16931 0.3819 0.95581 0.0
C1030 C 0.19883 0.38148 0.89083 0.0
C1031 C 0.18367 0.3612 0.92728 0.0
C1032 C 0.17909 0.33989 0.94228 0.0
C1033 C 0.19367 0.40193 0.90166 0.0
C1034 C 0.18193 0.40208 0.92473 0.0
C1035 C 0.17792 0.38175 0.93782 0.0
C1036 C 0.17139 0.42298 0.93381 0.0
C1037 C 0.20014 0.42323 0.88777 0.0
C1038 C 0.17613 0.43037 0.95802 0.0
C1039 C 0.16525 0.44975 0.9665 0.0
C1040 C 0.1494 0.46193 0.95091 0.0
C1041 C 0.14475 0.45436 0.92672 0.0
C1042 C 0.15556 0.43507 0.91832 0.0
H1043 H 0.21532 0.42035 0.87616 0.0
H1044 H 0.18629 0.42921 0.87473 0.0
H1045 H 0.20338 0.43657 0.9011 0.0
H1046 H 0.18819 0.42113 0.97031 0.0
H1047 H 0.16918 0.45517 0.98525 0.0
H1048 H 0.76115 0.9264 0.94158 0.0
H1049 H 0.72654 0.94347 0.95791 0.0
H1050 H 0.68775 0.90293 0.9101 0.0
H1051 H 0.72226 0.88543 0.89423 0.0
H1052 H 0.69375 0.96848 0.93808 0.0
H1053 H 0.65567 0.89099 0.97407 0.0
H1054 H 0.68425 0.89125 0.96344 0.0
H1055 H 0.66153 0.88999 0.94095 0.0
C1056 C 0.74527 0.92104 0.93453 0.0
C1057 C 0.74473 0.90427 0.91664 0.0
C1058 C 0.72536 0.93085 0.94398 0.0
C1059 C 0.70417 0.9243 0.93584 0.0
C1060 C 0.70362 0.90788 0.91757 0.0
H1061 H 0.56616 0.97496 0.95067 0.0
H1062 H 0.60177 0.95651 0.93914 0.0
C1063 C 0.72352 0.89789 0.90834 0.0
C1064 C 0.68283 0.93507 0.94587 0.0
H1065 H 0.63133 0.92376 0.97073 0.0
C1066 C 0.68027 0.9586 0.94545 0.0
C1067 C 0.66496 0.92247 0.95576 0.0
C1068 C 0.66681 0.8973 0.95886 0.0
C1069 C 0.66044 0.96964 0.9538 0.0
C1070 C 0.64243 0.95701 0.96295 0.0
C1071 C 0.645 0.93355 0.96365 0.0
C1072 C 0.62053 0.96785 0.9709 0.0
C1073 C 0.65859 0.99484 0.95216 0.0
C1074 C 0.61884 0.98018 0.99296 0.0
C1075 C 0.59826 0.99059 0.99984 0.0
C1076 C 0.57892 0.98914 0.98465 0.0
C1077 C 0.58065 0.97654 0.96281 0.0
C1078 C 0.60107 0.96593 0.95615 0.0
H1079 H 0.67262 1.0022 0.94142 0.0
H1080 H 0.6425 1.0007 0.94292 0.0
H1081 H 0.65875 1.0012 0.97156 0.0
H1082 H 0.63348 0.9818 1.00486 0.0
H1083 H 0.5976 1.00014 0.01676 0.0
H1084 H 0.79951 0.24283 0.35658 0.0
H1085 H 0.83248 0.22804 0.38034 0.0
H1086 H 0.85807 0.19813 0.31303 0.0
H1087 H 0.82446 0.21217 0.28946 0.0
H1088 H 0.85907 0.16874 0.34981 0.0
H1089 H 0.896 0.24386 0.38634 0.0
H1090 H 0.86707 0.24315 0.39482 0.0
H1091 H 0.87465 0.2456 0.36188 0.0
C1092 C 0.81244 0.23355 0.34674 0.0
C1093 C 0.80955 0.22866 0.32122 0.0
C1094 C 0.83138 0.22523 0.36029 0.0
C1095 C 0.84804 0.21232 0.3484 0.0
C1096 C 0.84552 0.20815 0.32258 0.0
H1097 H 0.96481 0.15881 0.4382 0.0
H1098 H 0.94154 0.18091 0.40684 0.0
C1099 C 0.82636 0.21614 0.30915 0.0
C1100 C 0.86652 0.20097 0.36363 0.0
H1101 H 0.90489 0.20894 0.41029 0.0
C1102 C 0.86936 0.17764 0.36266 0.0
C1103 C 0.88027 0.21251 0.38017 0.0
C1104 C 0.87949 0.23769 0.38063 0.0
C1105 C 0.88468 0.16545 0.37864 0.0
C1106 C 0.89696 0.17679 0.39673 0.0
C1107 C 0.8951 0.20022 0.39678 0.0
C1108 C 0.91095 0.16444 0.41641 0.0
C1109 C 0.8874 0.14049 0.37606 0.0
C1110 C 0.90131 0.14844 0.43266 0.0
C1111 C 0.91452 0.13576 0.45026 0.0
C1112 C 0.93757 0.13913 0.45231 0.0
C1113 C 0.94707 0.15591 0.43694 0.0
C1114 C 0.93383 0.16847 0.41904 0.0
H1115 H 0.88304 0.13575 0.35659 0.0
H1116 H 0.90482 0.13428 0.38054 0.0
H1117 H 0.8759 0.13194 0.38933 0.0
H1118 H 0.88355 0.14558 0.43153 0.0
H1119 H 0.90674 0.12321 0.46225 0.0
H1120 H 0.22997 0.57463 0.15912 0.0
H1121 H 0.19275 0.56445 0.14514 0.0
H1122 H 0.19428 0.61424 0.08375 0.0
H1123 H 0.23138 0.62474 0.09775 0.0
H1124 H 0.15304 0.59271 0.13912 0.0
H1125 H 0.17977 0.55604 0.04885 0.0
H1126 H 0.19929 0.56098 0.07406 0.0
H1127 H 0.18878 0.58382 0.05354 0.0
C1128 C 0.22233 0.58353 0.14275 0.0
C1129 C 0.23368 0.60044 0.12948 0.0
C1130 C 0.20113 0.57762 0.13473 0.0
C1131 C 0.19095 0.5884 0.11325 0.0
C1132 C 0.20208 0.60543 0.10009 0.0
H1133 H 0.06529 0.57024 0.03414 0.0
H1134 H 0.10092 0.58421 0.04876 0.0
C1135 C 0.22328 0.61137 0.1081 0.0
C1136 C 0.16853 0.58202 0.10483 0.0
H1137 H 0.14082 0.55924 0.0562 0.0
C1138 C 0.15032 0.58536 0.12102 0.0
C1139 C 0.16512 0.57253 0.08117 0.0
C1140 C 0.18427 0.56792 0.06343 0.0
C1141 C 0.12866 0.57963 0.11404 0.0
C1142 C 0.12528 0.56992 0.09049 0.0
C1143 C 0.14348 0.56674 0.07423 0.0
C1144 C 0.10312 0.5624 0.08254 0.0
C1145 C 0.10953 0.58434 0.13177 0.0
C1146 C 0.09261 0.54552 0.0967 0.0
C1147 C 0.07229 0.53755 0.08842 0.0
C1148 C 0.06229 0.5462 0.06572 0.0
C1149 C 0.07269 0.56328 0.05171 0.0
C1150 C 0.093 0.57125 0.06001 0.0
H1151 H 0.11368 0.59726 0.1453 0.0
H1152 H 0.09409 0.59003 0.12109 0.0
H1153 H 0.10596 0.56877 0.14291 0.0
H1154 H 0.10039 0.53814 0.11386 0.0
H1155 H 0.06469 0.52428 0.09948 0.0
H1156 H 0.2284 0.39038 0.64947 0.0
H1157 H 0.25043 0.41804 0.62629 0.0
H1158 H 0.30471 0.36886 0.62037 0.0
H1159 H 0.28301 0.34125 0.64371 0.0
H1160 H 0.29291 0.43345 0.63921 0.0
H1161 H 0.29428 0.39304 0.54695 0.0
H1162 H 0.27475 0.38586 0.57162 0.0
H1163 H 0.30306 0.37433 0.57296 0.0
C1164 C 0.24507 0.38549 0.6433 0.0
C1165 C 0.25393 0.36358 0.6483 0.0
C1166 C 0.25755 0.40127 0.62998 0.0
C1167 C 0.27901 0.39534 0.6213 0.0
C1168 C 0.28796 0.37358 0.62641 0.0
H1169 H 0.39617 0.46263 0.58452 0.0
H1170 H 0.36394 0.44643 0.60516 0.0
C1171 C 0.27553 0.35782 0.63972 0.0
C1172 C 0.29249 0.412 0.60758 0.0
H1173 H 0.32173 0.4204 0.55313 0.0
C1174 C 0.29896 0.43083 0.62023 0.0
C1175 C 0.29999 0.40873 0.58268 0.0
C1176 C 0.29249 0.38952 0.56764 0.0
C1177 C 0.31384 0.44583 0.60913 0.0
C1178 C 0.32262 0.44163 0.58496 0.0
C1179 C 0.31512 0.42351 0.57176 0.0
C1180 C 0.341 0.45452 0.57384 0.0
C1181 C 0.32027 0.46581 0.62353 0.0
C1182 C 0.33881 0.46449 0.54936 0.0
C1183 C 0.35729 0.47373 0.53744 0.0
C1184 C 0.37828 0.47303 0.54978 0.0
C1185 C 0.38015 0.46382 0.57468 0.0
C1186 C 0.36171 0.45456 0.58654 0.0
H1187 H 0.30696 0.47076 0.63699 0.0
H1188 H 0.33577 0.46145 0.63471 0.0
H1189 H 0.32349 0.48036 0.6105 0.0
H1190 H 0.32298 0.46451 0.5392 0.0
H1191 H 0.35529 0.4809 0.51833 0.0
H1192 H 0.87573 0.74005 0.9436 0.0
H1193 H 0.89554 0.70554 0.95978 0.0
H1194 H 0.94814 0.71621 0.90589 0.0
H1195 H 0.92867 0.75079 0.88986 0.0
H1196 H 0.9088 0.66645 0.93316 0.0
H1197 H 0.98279 0.70571 0.97349 0.0
H1198 H 0.95711 0.72144 0.96531 0.0
H1199 H 0.97648 0.71387 0.941 0.0
C1200 C 0.89163 0.73523 0.93531 0.0
C1201 C 0.90049 0.74845 0.91534 0.0
C1202 C 0.90291 0.71534 0.94453 0.0
C1203 C 0.92357 0.70822 0.93435 0.0
C1204 C 0.93244 0.72135 0.91442 0.0
H1205 H 1.02102 0.59633 0.96597 0.0
H1206 H 1.00075 0.63075 0.95056 0.0
C1207 C 0.9211 0.74111 0.90505 0.0
C1208 C 0.93561 0.68694 0.94416 0.0
H1209 H 0.98453 0.66622 0.97235 0.0
C1210 C 0.92531 0.66643 0.94185 0.0
C1211 C 0.95727 0.68669 0.95538 0.0
C1212 C 0.96906 0.70809 0.95919 0.0
C1213 C 0.93616 0.64583 0.94982 0.0
C1214 C 0.95781 0.64555 0.96128 0.0
C1215 C 0.96803 0.66614 0.96364 0.0
C1216 C 0.97016 0.62423 0.97078 0.0
C1217 C 0.92451 0.62454 0.94497 0.0
C1218 C 0.96012 0.60888 0.98768 0.0
C1219 C 0.97162 0.58895 0.99625 0.0
C1220 C 0.99378 0.5839 0.98871 0.0
C1221 C 1.00401 0.5995 0.97225 0.0
C1222 C 0.99239 0.61931 0.96342 0.0
H1223 H 0.91214 0.62701 0.92917 0.0
H1224 H 0.93668 0.61086 0.9403 0.0
H1225 H 0.91527 0.61924 0.96218 0.0
H1226 H 0.94335 0.61234 0.9945 0.0
H1227 H 0.9631 0.57757 1.00897 0.0
H1228 H 0.37486 0.73338 0.07994 0.0
H1229 H 0.3959 0.76478 0.06253 0.0
H1230 H 0.44642 0.75199 0.12078 0.0
H1231 H 0.42599 0.72037 0.13769 0.0
H1232 H 0.40575 0.80226 0.08797 0.0
H1233 H 0.48423 0.7595 0.05791 0.0
H1234 H 0.45904 0.7447 0.06447 0.0
H1235 H 0.47737 0.75157 0.08995 0.0
C1236 C 0.39069 0.73702 0.08867 0.0
C1237 C 0.39873 0.7245 0.11024 0.0
C1238 C 0.40262 0.75498 0.07878 0.0
C1239 C 0.42288 0.76048 0.09013 0.0
C1240 C 0.43109 0.74774 0.11137 0.0
H1241 H 0.51064 0.86611 0.1042 0.0
H1242 H 0.48999 0.83166 0.10507 0.0
C1243 C 0.41922 0.72986 0.12124 0.0
C1244 C 0.43461 0.78064 0.0814 0.0
H1245 H 0.48634 0.79879 0.06584 0.0
C1246 C 0.42324 0.80153 0.08258 0.0
C1247 C 0.45742 0.77958 0.07438 0.0
C1248 C 0.47015 0.7576 0.07134 0.0
C1249 C 0.43444 0.82146 0.07844 0.0
C1250 C 0.45753 0.82037 0.07271 0.0
C1251 C 0.46866 0.7995 0.07039 0.0
C1252 C 0.47073 0.84066 0.071 0.0
C1253 C 0.42185 0.84352 0.08153 0.0
C1254 C 0.46695 0.85687 0.05131 0.0
C1255 C 0.47866 0.8766 0.05081 0.0
C1256 C 0.49433 0.88037 0.07002 0.0
C1257 C 0.49847 0.86379 0.08934 0.0
C1258 C 0.48681 0.84407 0.08977 0.0
H1259 H 0.405 0.84134 0.0898 0.0
H1260 H 0.43147 0.8543 0.09386 0.0
H1261 H 0.41968 0.85241 0.06274 0.0
H1262 H 0.45473 0.8544 0.03654 0.0
H1263 H 0.475 0.88914 0.03578 0.0
H1264 H 0.11724 0.18528 0.69084 0.0
H1265 H 0.09992 0.15482 0.6695 0.0
H1266 H 0.12292 0.1812 0.5975 0.0
H1267 H 0.13969 0.21208 0.61855 0.0
H1268 H 0.07852 0.1662 0.59642 0.0
H1269 H 0.13894 0.10318 0.64168 0.0
H1270 H 0.12356 0.12015 0.6633 0.0
H1271 H 0.14299 0.13286 0.64188 0.0
C1272 C 0.11826 0.18482 0.67041 0.0
C1273 C 0.13004 0.20094 0.65639 0.0
C1274 C 0.10855 0.16731 0.65831 0.0
C1275 C 0.11054 0.16559 0.63203 0.0
C1276 C 0.12138 0.18218 0.61784 0.0
H1277 H 0.09856 0.04865 0.54359 0.0
H1278 H 0.11106 0.08163 0.5647 0.0
C1279 C 0.13108 0.19969 0.62991 0.0
C1280 C 0.1022 0.14601 0.6194 0.0
H1281 H 0.11022 0.08947 0.61637 0.0
C1282 C 0.08538 0.1494 0.60078 0.0
C1283 C 0.1115 0.12422 0.6249 0.0
C1284 C 0.13039 0.1198 0.64386 0.0
C1285 C 0.07742 0.13145 0.58762 0.0
C1286 C 0.08637 0.10959 0.59355 0.0
C1287 C 0.10331 0.10626 0.61203 0.0
C1288 C 0.07865 0.08993 0.58058 0.0
C1289 C 0.05986 0.13607 0.56714 0.0
C1290 C 0.05638 0.0836 0.58282 0.0
C1291 C 0.04925 0.06482 0.57082 0.0
C1292 C 0.06433 0.05202 0.55655 0.0
C1293 C 0.08665 0.05824 0.55451 0.0
C1294 C 0.09377 0.07704 0.56651 0.0
H1295 H 0.05886 0.15399 0.56067 0.0
H1296 H 0.06339 0.12578 0.55056 0.0
H1297 H 0.04324 0.13171 0.57466 0.0
H1298 H 0.04458 0.09308 0.594 0.0
H1299 H 0.03193 0.06034 0.5727 0.0
H1300 H 0.65196 0.36081 0.32631 0.0
H1301 H 0.63789 0.39054 0.35299 0.0
H1302 H 0.61024 0.3412 0.40442 0.0
H1303 H 0.62459 0.31138 0.37801 0.0
H1304 H 0.59603 0.40239 0.36581 0.0
H1305 H 0.64502 0.37746 0.45259 0.0
H1306 H 0.65098 0.3658 0.42236 0.0
H1307 H 0.62885 0.35514 0.44176 0.0
C1308 C 0.64277 0.35633 0.34324 0.0
C1309 C 0.6394 0.33379 0.35013 0.0
C1310 C 0.63487 0.3733 0.35853 0.0
C1311 C 0.62345 0.36806 0.38098 0.0
C1312 C 0.61961 0.34559 0.3876 0.0
H1313 H 0.53009 0.44989 0.4605 0.0
H1314 H 0.55022 0.42374 0.43405 0.0
C1315 C 0.62767 0.32859 0.37242 0.0
C1316 C 0.61477 0.38614 0.39694 0.0
H1317 H 0.61403 0.40364 0.45755 0.0
C1318 C 0.60015 0.40278 0.38581 0.0
C1319 C 0.62052 0.38693 0.42292 0.0
C1320 C 0.6374 0.37051 0.43555 0.0
C1321 C 0.59039 0.41965 0.40017 0.0
C1322 C 0.59496 0.41954 0.42649 0.0
C1323 C 0.61032 0.40349 0.43743 0.0
C1324 C 0.58308 0.43524 0.44311 0.0
C1325 C 0.57526 0.43743 0.387 0.0
C1326 C 0.59496 0.44985 0.45775 0.0
C1327 C 0.58347 0.46477 0.4732 0.0
C1328 C 0.55993 0.46523 0.47423 0.0
C1329 C 0.5482 0.4502 0.45993 0.0
C1330 C 0.55967 0.43529 0.44467 0.0
H1331 H 0.57909 0.43934 0.3665 0.0
H1332 H 0.5576 0.43253 0.38871 0.0
H1333 H 0.57682 0.45386 0.39563 0.0
H1334 H 0.61307 0.4499 0.45697 0.0
H1335 H 0.59299 0.4761 0.48403 0.0
loop_
_geom_bond_atom_site_label_1
_geom_bond_atom_site_label_2
_geom_bond_distance
_geom_bond_site_symmetry_2
_ccdc_geom_bond_type
C0 C1 1.386 . S
C0 C2 1.397 . S
C0 H24 0.931 . S
C1 C0 1.386 . S
C1 C5 1.397 . S
C2 C0 1.397 . S
C2 C3 1.384 . S
C2 H25 0.930 . S
C3 C2 1.384 . S
C3 C4 1.377 . S
C3 C6 1.481 . S
C4 C3 1.377 . S
C4 C5 1.389 . S
C4 H26 0.929 . S
C5 C1 1.397 . S
C5 C4 1.389 . S
C5 H27 0.931 . S
C6 C3 1.481 . S
C6 C7 1.387 . S
C6 C11 1.390 . S
C7 C6 1.387 . S
C7 C8 1.401 . S
C7 H28 0.930 . S
C8 C7 1.401 . S
C8 C9 1.376 . S
C8 C17 1.511 . S
C9 C8 1.376 . S
C9 C10 1.392 . S
C9 H30 0.931 . S
C10 C9 1.392 . S
C10 C11 1.361 . S
C10 C12 1.500 . S
C11 C6 1.390 . S
C11 C10 1.361 . S
C11 H29 0.931 . S
C12 C10 1.500 . S
C12 C13 1.371 . S
C12 C14 1.365 . S
C13 C12 1.371 . S
C13 C23 1.386 . S
C13 H31 0.931 . S
C14 C12 1.365 . S
C14 C15 1.409 . S
C14 H32 0.929 . S
C15 C14 1.409 . S
C15 C16 1.380 . S
C15 H33 0.930 . S
C16 C15 1.380 . S
C16 C23 1.357 . S
C17 C8 1.511 . S
C17 C18 1.341 . S
C17 C19 1.371 . S
C18 C17 1.341 . S
C18 C22 1.394 . S
C18 H34 0.930 . S
C19 C17 1.371 . S
C19 C20 1.392 . S
C19 H35 0.931 . S
C20 C19 1.392 . S
C20 C21 1.331 . S
C20 H38 0.932 . S
C21 C20 1.331 . S
C21 C22 1.336 . S
C22 C18 1.394 . S
C22 C21 1.336 . S
C22 H37 0.929 . S
C23 C13 1.386 . S
C23 C16 1.357 . S
C23 H36 0.928 . S
H24 C0 0.931 . S
H25 C2 0.930 . S
H26 C4 0.929 . S
H27 C5 0.931 . S
H28 C7 0.930 . S
H29 C11 0.931 . S
H30 C9 0.931 . S
H31 C13 0.931 . S
H32 C14 0.929 . S
H33 C15 0.930 . S
H34 C18 0.930 . S
H35 C19 0.931 . S
H36 C23 0.928 . S
H37 C22 0.929 . S
H38 C20 0.932 . S
C39 C40 1.386 . S
C39 C41 1.397 . S
C39 H63 0.931 . S
C40 C39 1.386 . S
C40 C44 1.397 . S
C41 C39 1.397 . S
C41 C42 1.384 . S
C41 H64 0.930 . S
C42 C41 1.384 . S
C42 C43 1.377 . S
C42 C45 1.481 . S
C43 C42 1.377 . S
C43 C44 1.389 . S
C43 H65 0.929 . S
C44 C40 1.397 . S
C44 C43 1.389 . S
C44 H66 0.931 . S
C45 C42 1.481 . S
C45 C46 1.387 . S
C45 C50 1.390 . S
C46 C45 1.387 . S
C46 C47 1.401 . S
C46 H67 0.930 . S
C47 C46 1.401 . S
C47 C48 1.376 . S
C47 C56 1.511 . S
C48 C47 1.376 . S
C48 C49 1.392 . S
C48 H69 0.931 . S
C49 C48 1.392 . S
C49 C50 1.361 . S
C49 C51 1.500 . S
C50 C45 1.390 . S
C50 C49 1.361 . S
C50 H68 0.931 . S
C51 C49 1.500 . S
C51 C52 1.371 . S
C51 C53 1.365 . S
C52 C51 1.371 . S
C52 C62 1.386 . S
C52 H70 0.931 . S
C53 C51 1.365 . S
C53 C54 1.409 . S
C53 H71 0.929 . S
C54 C53 1.409 . S
C54 C55 1.380 . S
C54 H72 0.930 . S
C55 C54 1.380 . S
C55 C62 1.357 . S
C56 C47 1.511 . S
C56 C57 1.341 . S
C56 C58 1.371 . S
C57 C56 1.341 . S
C57 C61 1.394 . S
C57 H73 0.930 . S
C58 C56 1.371 . S
C58 C59 1.392 . S
C58 H74 0.931 . S
C59 C58 1.392 . S
C59 C60 1.331 . S
C59 H77 0.932 . S
C60 C59 1.331 . S
C60 C61 1.336 . S
C61 C57 1.394 . S
C61 C60 1.336 . S
C61 H76 0.929 . S
C62 C52 1.386 . S
C62 C55 1.357 . S
C62 H75 0.928 . S
H63 C39 0.931 . S
H64 C41 0.930 . S
H65 C43 0.929 . S
H66 C44 0.931 . S
H67 C46 0.930 . S
H68 C50 0.931 . S
H69 C48 0.931 . S
H70 C52 0.931 . S
H71 C53 0.929 . S
H72 C54 0.930 . S
H73 C57 0.930 . S
H74 C58 0.931 . S
H75 C62 0.928 . S
H76 C61 0.929 . S
H77 C59 0.932 . S
C78 C79 1.386 . S
C78 C80 1.397 . S
C78 H102 0.931 . S
C79 C78 1.386 . S
C79 C83 1.397 . S
C80 C78 1.397 . S
C80 C81 1.384 . S
C80 H103 0.930 . S
C81 C80 1.384 . S
C81 C82 1.377 . S
C81 C84 1.481 . S
C82 C81 1.377 . S
C82 C83 1.389 . S
C82 H104 0.929 . S
C83 C79 1.397 . S
C83 C82 1.389 . S
C83 H105 0.931 . S
C84 C81 1.481 . S
C84 C85 1.387 . S
C84 C89 1.390 . S
C85 C84 1.387 . S
C85 C86 1.401 . S
C85 H106 0.930 . S
C86 C85 1.401 . S
C86 C87 1.376 . S
C86 C95 1.511 . S
C87 C86 1.376 . S
C87 C88 1.392 . S
C87 H108 0.931 . S
C88 C87 1.392 . S
C88 C89 1.361 . S
C88 C90 1.500 . S
C89 C84 1.390 . S
C89 C88 1.361 . S
C89 H107 0.931 . S
C90 C88 1.500 . S
C90 C91 1.371 . S
C90 C92 1.365 . S
C91 C90 1.371 . S
C91 C101 1.386 . S
C91 H109 0.931 . S
C92 C90 1.365 . S
C92 C93 1.409 . S
C92 H110 0.929 . S
C93 C92 1.409 . S
C93 C94 1.380 . S
C93 H111 0.930 . S
C94 C93 1.380 . S
C94 C101 1.357 . S
C95 C86 1.511 . S
C95 C96 1.341 . S
C95 C97 1.371 . S
C96 C95 1.341 . S
C96 C100 1.394 . S
C96 H112 0.930 . S
C97 C95 1.371 . S
C97 C98 1.392 . S
C97 H113 0.931 . S
C98 C97 1.392 . S
C98 C99 1.331 . S
C98 H116 0.932 . S
C99 C98 1.331 . S
C99 C100 1.336 . S
C100 C96 1.394 . S
C100 C99 1.336 . S
C100 H115 0.929 . S
C101 C91 1.386 . S
C101 C94 1.357 . S
C101 H114 0.928 . S
H102 C78 0.931 . S
H103 C80 0.930 . S
H104 C82 0.929 . S
H105 C83 0.931 . S
H106 C85 0.930 . S
H107 C89 0.931 . S
H108 C87 0.931 . S
H109 C91 0.931 . S
H110 C92 0.929 . S
H111 C93 0.930 . S
H112 C96 0.930 . S
H113 C97 0.931 . S
H114 C101 0.928 . S
H115 C100 0.929 . S
H116 C98 0.932 . S
C117 C118 1.386 . S
C117 C119 1.397 . S
C117 H141 0.931 . S
C118 C117 1.386 . S
C118 C122 1.397 . S
C119 C117 1.397 . S
C119 C120 1.384 . S
C119 H142 0.930 . S
C120 C119 1.384 . S
C120 C121 1.377 . S
C120 C123 1.481 . S
C121 C120 1.377 . S
C121 C122 1.389 . S
C121 H143 0.929 . S
C122 C118 1.397 . S
C122 C121 1.389 . S
C122 H144 0.931 . S
C123 C120 1.481 . S
C123 C124 1.387 . S
C123 C128 1.390 . S
C124 C123 1.387 . S
C124 C125 1.401 . S
C124 H145 0.930 . S
C125 C124 1.401 . S
C125 C126 1.376 . S
C125 C134 1.511 . S
C126 C125 1.376 . S
C126 C127 1.392 . S
C126 H147 0.931 . S
C127 C126 1.392 . S
C127 C128 1.361 . S
C127 C129 1.500 . S
C128 C123 1.390 . S
C128 C127 1.361 . S
C128 H146 0.931 . S
C129 C127 1.500 . S
C129 C130 1.371 . S
C129 C131 1.365 . S
C130 C129 1.371 . S
C130 C140 1.386 . S
C130 H148 0.931 . S
C131 C129 1.365 . S
C131 C132 1.409 . S
C131 H149 0.929 . S
C132 C131 1.409 . S
C132 C133 1.380 . S
C132 H150 0.930 . S
C133 C132 1.380 . S
C133 C140 1.357 . S
C134 C125 1.511 . S
C134 C135 1.341 . S
C134 C136 1.371 . S
C135 C134 1.341 . S
C135 C139 1.394 . S
C135 H151 0.930 . S
C136 C134 1.371 . S
C136 C137 1.392 . S
C136 H152 0.931 . S
C137 C136 1.392 . S
C137 C138 1.331 . S
C137 H155 0.932 . S
C138 C137 1.331 . S
C138 C139 1.336 . S
C139 C135 1.394 . S
C139 C138 1.336 . S
C139 H154 0.929 . S
C140 C130 1.386 . S
C140 C133 1.357 . S
C140 H153 0.928 . S
H141 C117 0.931 . S
H142 C119 0.930 . S
H143 C121 0.929 . S
H144 C122 0.931 . S
H145 C124 0.930 . S
H146 C128 0.931 . S
H147 C126 0.931 . S
H148 C130 0.931 . S
H149 C131 0.929 . S
H150 C132 0.930 . S
H151 C135 0.930 . S
H152 C136 0.931 . S
H153 C140 0.928 . S
H154 C139 0.929 . S
H155 C137 0.932 . S
C156 C157 1.386 . S
C156 C158 1.397 . S
C156 H180 0.931 . S
C157 C156 1.386 . S
C157 C161 1.397 . S
C158 C156 1.397 . S
C158 C159 1.384 . S
C158 H181 0.930 . S
C159 C158 1.384 . S
C159 C160 1.377 . S
C159 C162 1.481 . S
C160 C159 1.377 . S
C160 C161 1.389 . S
C160 H182 0.929 . S
C161 C157 1.397 . S
C161 C160 1.389 . S
C161 H183 0.931 . S
C162 C159 1.481 . S
C162 C163 1.387 . S
C162 C167 1.390 . S
C163 C162 1.387 . S
C163 C164 1.401 . S
C163 H184 0.930 . S
C164 C163 1.401 . S
C164 C165 1.376 . S
C164 C173 1.511 . S
C165 C164 1.376 . S
C165 C166 1.392 . S
C165 H186 0.931 . S
C166 C165 1.392 . S
C166 C167 1.361 . S
C166 C168 1.500 . S
C167 C162 1.390 . S
C167 C166 1.361 . S
C167 H185 0.931 . S
C168 C166 1.500 . S
C168 C169 1.371 . S
C168 C170 1.365 . S
C169 C168 1.371 . S
C169 C179 1.386 . S
C169 H187 0.931 . S
C170 C168 1.365 . S
C170 C171 1.409 . S
C170 H188 0.929 . S
C171 C170 1.409 . S
C171 C172 1.380 . S
C171 H189 0.930 . S
C172 C171 1.380 . S
C172 C179 1.357 . S
C173 C164 1.511 . S
C173 C174 1.341 . S
C173 C175 1.371 . S
C174 C173 1.341 . S
C174 C178 1.394 . S
C174 H190 0.930 . S
C175 C173 1.371 . S
C175 C176 1.392 . S
C175 H191 0.931 . S
C176 C175 1.392 . S
C176 C177 1.331 . S
C176 H194 0.932 . S
C177 C176 1.331 . S
C177 C178 1.336 . S
C178 C174 1.394 . S
C178 C177 1.336 . S
C178 H193 0.929 . S
C179 C169 1.386 . S
C179 C172 1.357 . S
C179 H192 0.928 . S
H180 C156 0.931 . S
H181 C158 0.930 . S
H182 C160 0.929 . S
H183 C161 0.931 . S
H184 C163 0.930 . S
H185 C167 0.931 . S
H186 C165 0.931 . S
H187 C169 0.931 . S
H188 C170 0.929 . S
H189 C171 0.930 . S
H190 C174 0.930 . S
H191 C175 0.931 . S
H192 C179 0.928 . S
H193 C178 0.929 . S
H194 C176 0.932 . S
C195 C196 1.386 . S
C195 C197 1.397 . S
C195 H219 0.931 . S
C196 C195 1.386 . S
C196 C200 1.397 . S
C197 C195 1.397 . S
C197 C198 1.384 . S
C197 H220 0.930 . S
C198 C197 1.384 . S
C198 C199 1.377 . S
C198 C201 1.481 . S
C199 C198 1.377 . S
C199 C200 1.389 . S
C199 H221 0.929 . S
C200 C196 1.397 . S
C200 C199 1.389 . S
C200 H222 0.931 . S
C201 C198 1.481 . S
C201 C202 1.387 . S
C201 C206 1.390 . S
C202 C201 1.387 . S
C202 C203 1.401 . S
C202 H223 0.930 . S
C203 C202 1.401 . S
C203 C204 1.376 . S
C203 C212 1.511 . S
C204 C203 1.376 . S
C204 C205 1.392 . S
C204 H225 0.931 . S
C205 C204 1.392 . S
C205 C206 1.361 . S
C205 C207 1.500 . S
C206 C201 1.390 . S
C206 C205 1.361 . S
C206 H224 0.931 . S
C207 C205 1.500 . S
C207 C208 1.371 . S
C207 C209 1.365 . S
C208 C207 1.371 . S
C208 C218 1.386 . S
C208 H226 0.931 . S
C209 C207 1.365 . S
C209 C210 1.409 . S
C209 H227 0.929 . S
C210 C209 1.409 . S
C210 C211 1.380 . S
C210 H228 0.930 . S
C211 C210 1.380 . S
C211 C218 1.357 . S
C212 C203 1.511 . S
C212 C213 1.341 . S
C212 C214 1.371 . S
C213 C212 1.341 . S
C213 C217 1.394 . S
C213 H229 0.930 . S
C214 C212 1.371 . S
C214 C215 1.392 . S
C214 H230 0.931 . S
C215 C214 1.392 . S
C215 C216 1.331 . S
C215 H233 0.932 . S
C216 C215 1.331 . S
C216 C217 1.336 . S
C217 C213 1.394 . S
C217 C216 1.336 . S
C217 H232 0.929 . S
C218 C208 1.386 . S
C218 C211 1.357 . S
C218 H231 0.928 . S
H219 C195 0.931 . S
H220 C197 0.930 . S
H221 C199 0.929 . S
H222 C200 0.931 . S
H223 C202 0.930 . S
H224 C206 0.931 . S
H225 C204 0.931 . S
H226 C208 0.931 . S
H227 C209 0.929 . S
H228 C210 0.930 . S
H229 C213 0.930 . S
H230 C214 0.931 . S
H231 C218 0.928 . S
H232 C217 0.929 . S
H233 C215 0.932 . S
C234 C235 1.386 . S
C234 C236 1.397 . S
C234 H258 0.931 . S
C235 C234 1.386 . S
C235 C239 1.397 . S
C236 C234 1.397 . S
C236 C237 1.384 . S
C236 H259 0.930 . S
C237 C236 1.384 . S
C237 C238 1.377 . S
C237 C240 1.481 . S
C238 C237 1.377 . S
C238 C239 1.389 . S
C238 H260 0.929 . S
C239 C235 1.397 . S
C239 C238 1.389 . S
C239 H261 0.931 . S
C240 C237 1.481 . S
C240 C241 1.387 . S
C240 C245 1.390 . S
C241 C240 1.387 . S
C241 C242 1.401 . S
C241 H262 0.930 . S
C242 C241 1.401 . S
C242 C243 1.376 . S
C242 C251 1.511 . S
C243 C242 1.376 . S
C243 C244 1.392 . S
C243 H264 0.931 . S
C244 C243 1.392 . S
C244 C245 1.361 . S
C244 C246 1.500 . S
C245 C240 1.390 . S
C245 C244 1.361 . S
C245 H263 0.931 . S
C246 C244 1.500 . S
C246 C247 1.371 . S
C246 C248 1.365 . S
C247 C246 1.371 . S
C247 C257 1.386 . S
C247 H265 0.931 . S
C248 C246 1.365 . S
C248 C249 1.409 . S
C248 H266 0.929 . S
C249 C248 1.409 . S
C249 C250 1.380 . S
C249 H267 0.930 . S
C250 C249 1.380 . S
C250 C257 1.357 . S
C251 C242 1.511 . S
C251 C252 1.341 . S
C251 C253 1.371 . S
C252 C251 1.341 . S
C252 C256 1.394 . S
C252 H268 0.930 . S
C253 C251 1.371 . S
C253 C254 1.392 . S
C253 H269 0.931 . S
C254 C253 1.392 . S
C254 C255 1.331 . S
C254 H272 0.932 . S
C255 C254 1.331 . S
C255 C256 1.336 . S
C256 C252 1.394 . S
C256 C255 1.336 . S
C256 H271 0.929 . S
C257 C247 1.386 . S
C257 C250 1.357 . S
C257 H270 0.928 . S
H258 C234 0.931 . S
H259 C236 0.930 . S
H260 C238 0.929 . S
H261 C239 0.931 . S
H262 C241 0.930 . S
H263 C245 0.931 . S
H264 C243 0.931 . S
H265 C247 0.931 . S
H266 C248 0.929 . S
H267 C249 0.930 . S
H268 C252 0.930 . S
H269 C253 0.931 . S
H270 C257 0.928 . S
H271 C256 0.929 . S
H272 C254 0.932 . S
C273 C274 1.386 . S
C273 C275 1.397 . S
C273 H297 0.931 . S
C274 C273 1.386 . S
C274 C278 1.397 . S
C275 C273 1.397 . S
C275 C276 1.384 . S
C275 H298 0.930 . S
C276 C275 1.384 . S
C276 C277 1.377 . S
C276 C279 1.481 . S
C277 C276 1.377 . S
C277 C278 1.389 . S
C277 H299 0.929 . S
C278 C274 1.397 . S
C278 C277 1.389 . S
C278 H300 0.931 . S
C279 C276 1.481 . S
C279 C280 1.387 . S
C279 C284 1.390 . S
C280 C279 1.387 . S
C280 C281 1.401 . S
C280 H301 0.930 . S
C281 C280 1.401 . S
C281 C282 1.376 . S
C281 C290 1.511 . S
C282 C281 1.376 . S
C282 C283 1.392 . S
C282 H303 0.931 . S
C283 C282 1.392 . S
C283 C284 1.361 . S
C283 C285 1.500 . S
C284 C279 1.390 . S
C284 C283 1.361 . S
C284 H302 0.931 . S
C285 C283 1.500 . S
C285 C286 1.371 . S
C285 C287 1.365 . S
C286 C285 1.371 . S
C286 C296 1.386 . S
C286 H304 0.931 . S
C287 C285 1.365 . S
C287 C288 1.409 . S
C287 H305 0.929 . S
C288 C287 1.409 . S
C288 C289 1.380 . S
C288 H306 0.930 . S
C289 C288 1.380 . S
C289 C296 1.357 . S
C290 C281 1.511 . S
C290 C291 1.341 . S
C290 C292 1.371 . S
C291 C290 1.341 . S
C291 C295 1.394 . S
C291 H307 0.930 . S
C292 C290 1.371 . S
C292 C293 1.392 . S
C292 H308 0.931 . S
C293 C292 1.392 . S
C293 C294 1.331 . S
C293 H311 0.932 . S
C294 C293 1.331 . S
C294 C295 1.336 . S
C295 C291 1.394 . S
C295 C294 1.336 . S
C295 H310 0.929 . S
C296 C286 1.386 . S
C296 C289 1.357 . S
C296 H309 0.928 . S
H297 C273 0.931 . S
H298 C275 0.930 . S
H299 C277 0.929 . S
H300 C278 0.931 . S
H301 C280 0.930 . S
H302 C284 0.931 . S
H303 C282 0.931 . S
H304 C286 0.931 . S
H305 C287 0.929 . S
H306 C288 0.930 . S
H307 C291 0.930 . S
H308 C292 0.931 . S
H309 C296 0.928 . S
H310 C295 0.929 . S
H311 C293 0.932 . S
Nd312 C314 2.836 . S
Nd312 O332 2.500 . S
Nd312 O333 2.492 . S
Nd312 O334 2.487 1_565 S
Nd312 O335 2.682 1_565 S
Nd312 O336 2.410 . S
Nd312 O341 2.414 1_455 S
Nd312 O343 2.424 1_565 S
Nd313 C323 2.836 . S
Nd313 O335 2.414 1_655 S
Nd313 O337 2.424 1_545 S
Nd313 O338 2.500 . S
Nd313 O339 2.492 . S
Nd313 O340 2.487 1_545 S
Nd313 O341 2.682 1_545 S
Nd313 O342 2.410 . S
C314 Nd312 2.836 . S
C314 C315 1.498 . S
C314 O332 1.258 . S
C314 O333 1.239 . S
C315 C314 1.498 . S
C315 C316 1.366 . S
C315 C320 1.407 . S
C316 C315 1.366 . S
C316 C317 1.392 . S
C316 H344 0.930 . S
C317 C316 1.392 . S
C317 C318 1.398 . S
C317 H345 0.929 . S
C318 C317 1.398 . S
C318 C319 1.352 . S
C319 C318 1.352 . S
C319 C320 1.384 . S
C319 H346 0.930 . S
C320 C315 1.407 . S
C320 C319 1.384 . S
C320 H347 0.929 . S
C321 O334 1.241 . S
C321 O335 1.273 . S
C322 O336 1.251 1_655 S
C322 O337 1.268 . S
C323 Nd313 2.836 . S
C323 C324 1.498 . S
C323 O338 1.258 . S
C323 O339 1.239 . S
C324 C323 1.498 . S
C324 C325 1.366 . S
C324 C329 1.407 . S
C325 C324 1.366 . S
C325 C326 1.392 . S
C325 H348 0.930 . S
C326 C325 1.392 . S
C326 C327 1.398 . S
C326 H349 0.929 . S
C327 C326 1.398 . S
C327 C328 1.352 . S
C328 C327 1.352 . S
C328 C329 1.384 . S
C328 H350 0.930 . S
C329 C324 1.407 . S
C329 C328 1.384 . S
C329 H351 0.929 . S
C330 O340 1.241 . S
C330 O341 1.273 . S
C331 O342 1.251 1_455 S
C331 O343 1.268 . S
O332 Nd312 2.500 . S
O332 C314 1.258 . S
O333 Nd312 2.492 . S
O333 C314 1.239 . S
O334 Nd312 2.487 1_545 S
O334 C321 1.241 . S
O335 Nd312 2.682 1_545 S
O335 Nd313 2.414 1_455 S
O335 C321 1.273 . S
O336 Nd312 2.410 . S
O336 C322 1.251 1_455 S
O337 Nd313 2.424 1_565 S
O337 C322 1.268 . S
O338 Nd313 2.500 . S
O338 C323 1.258 . S
O339 Nd313 2.492 . S
O339 C323 1.239 . S
O340 Nd313 2.487 1_565 S
O340 C330 1.241 . S
O341 Nd312 2.414 1_655 S
O341 Nd313 2.682 1_565 S
O341 C330 1.273 . S
O342 Nd313 2.410 . S
O342 C331 1.251 1_655 S
O343 Nd312 2.424 1_545 S
O343 C331 1.268 . S
H344 C316 0.930 . S
H345 C317 0.929 . S
H346 C319 0.930 . S
H347 C320 0.929 . S
H348 C325 0.930 . S
H349 C326 0.929 . S
H350 C328 0.930 . S
H351 C329 0.929 . S
Nd352 C354 2.836 . S
Nd352 O372 2.500 . S
Nd352 O373 2.492 . S
Nd352 O374 2.487 1_565 S
Nd352 O375 2.682 1_565 S
Nd352 O376 2.410 1_554 S
Nd352 O381 2.414 1_554 S
Nd352 O383 2.424 1_565 S
Nd353 C363 2.836 . S
Nd353 O375 2.414 1_556 S
Nd353 O377 2.424 1_545 S
Nd353 O378 2.500 . S
Nd353 O379 2.492 . S
Nd353 O380 2.458 1_545 S
Nd353 O381 2.682 1_545 S
Nd353 O382 2.410 1_556 S
C354 Nd352 2.836 . S
C354 C355 1.498 . S
C354 O372 1.258 . S
C354 O373 1.239 . S
C355 C354 1.498 . S
C355 C356 1.366 . S
C355 C360 1.407 . S
C356 C355 1.366 . S
C356 C357 1.392 . S
C356 H384 0.930 . S
C357 C356 1.392 . S
C357 C358 1.398 . S
C357 H385 0.929 . S
C358 C357 1.398 . S
C358 C359 1.352 . S
C359 C358 1.352 . S
C359 C360 1.384 . S
C359 H386 0.930 . S
C360 C355 1.407 . S
C360 C359 1.384 . S
C360 H387 0.929 . S
C361 O374 1.241 . S
C361 O375 1.273 . S
C362 O376 1.251 . S
C362 O377 1.268 . S
C363 Nd353 2.836 . S
C363 C364 1.498 . S
C363 O378 1.258 . S
C363 O379 1.239 . S
C364 C363 1.498 . S
C364 C365 1.366 . S
C364 C369 1.407 . S
C365 C364 1.366 . S
C365 C366 1.392 . S
C365 H388 0.930 . S
C366 C365 1.392 . S
C366 C367 1.398 . S
C366 H389 0.929 . S
C367 C366 1.398 . S
C367 C368 1.352 . S
C368 C367 1.352 . S
C368 C369 1.384 . S
C368 H390 0.930 . S
C369 C364 1.407 . S
C369 C368 1.384 . S
C369 H391 0.929 . S
C370 O380 1.281 . S
C370 O381 1.273 . S
C371 O382 1.251 . S
C371 O383 1.268 . S
O372 Nd352 2.500 . S
O372 C354 1.258 . S
O373 Nd352 2.492 . S
O373 C354 1.239 . S
O374 Nd352 2.487 1_545 S
O374 C361 1.241 . S
O375 Nd352 2.682 1_545 S
O375 Nd353 2.414 1_554 S
O375 C361 1.273 . S
O376 Nd352 2.410 1_556 S
O376 C362 1.251 . S
O377 Nd353 2.424 1_565 S
O377 C362 1.268 . S
O378 Nd353 2.500 . S
O378 C363 1.258 . S
O379 Nd353 2.492 . S
O379 C363 1.239 . S
O380 Nd353 2.458 1_565 S
O380 C370 1.281 . S
O381 Nd352 2.414 1_556 S
O381 Nd353 2.682 1_565 S
O381 C370 1.273 . S
O382 Nd353 2.410 1_554 S
O382 C371 1.251 . S
O383 Nd352 2.424 1_545 S
O383 C371 1.268 . S
H384 C356 0.930 . S
H385 C357 0.929 . S
H386 C359 0.930 . S
H387 C360 0.929 . S
H388 C365 0.930 . S
H389 C366 0.929 . S
H390 C368 0.930 . S
H391 C369 0.929 . S
Nd392 C394 2.836 . S
Nd392 O412 2.500 . S
Nd392 O413 2.492 . S
Nd392 O414 2.487 . S
Nd392 O415 2.682 . S
Nd392 O416 2.410 . S
Nd392 O421 2.414 . S
Nd392 O423 2.424 . S
Nd393 C403 2.836 . S
Nd393 O415 2.414 . S
Nd393 O417 2.424 . S
Nd393 O418 2.500 . S
Nd393 O419 2.492 . S
Nd393 O420 2.487 . S
Nd393 O421 2.682 . S
Nd393 O422 2.410 . S
C394 Nd392 2.836 . S
C394 C395 1.498 . S
C394 O412 1.258 . S
C394 O413 1.239 . S
C395 C394 1.498 . S
C395 C396 1.366 . S
C395 C400 1.407 . S
C396 C395 1.366 . S
C396 C397 1.392 . S
C396 H424 0.930 . S
C397 C396 1.392 . S
C397 C398 1.398 . S
C397 H425 0.929 . S
C398 C397 1.398 . S
C398 C399 1.352 . S
C399 C398 1.352 . S
C399 C400 1.384 . S
C399 H426 0.930 . S
C400 C395 1.407 . S
C400 C399 1.384 . S
C400 H427 0.929 . S
C401 O414 1.241 . S
C401 O415 1.273 . S
C402 O416 1.251 . S
C402 O417 1.268 . S
C403 Nd393 2.836 . S
C403 C404 1.498 . S
C403 O418 1.258 . S
C403 O419 1.239 . S
C404 C403 1.498 . S
C404 C405 1.366 . S
C404 C409 1.407 . S
C405 C404 1.366 . S
C405 C406 1.392 . S
C405 H428 0.930 . S
C406 C405 1.392 . S
C406 C407 1.398 . S
C406 H429 0.929 . S
C407 C406 1.398 . S
C407 C408 1.352 . S
C408 C407 1.352 . S
C408 C409 1.384 . S
C408 H430 0.930 . S
C409 C404 1.407 . S
C409 C408 1.384 . S
C409 H431 0.929 . S
C410 O420 1.241 . S
C410 O421 1.273 . S
C411 O422 1.251 . S
C411 O423 1.268 . S
O412 Nd392 2.500 . S
O412 C394 1.258 . S
O413 Nd392 2.492 . S
O413 C394 1.239 . S
O414 Nd392 2.487 . S
O414 C401 1.241 . S
O415 Nd392 2.682 . S
O415 Nd393 2.414 . S
O415 C401 1.273 . S
O416 Nd392 2.410 . S
O416 C402 1.251 . S
O417 Nd393 2.424 . S
O417 C402 1.268 . S
O418 Nd393 2.500 . S
O418 C403 1.258 . S
O419 Nd393 2.492 . S
O419 C403 1.239 . S
O420 Nd393 2.487 . S
O420 C410 1.241 . S
O421 Nd392 2.414 . S
O421 Nd393 2.682 . S
O421 C410 1.273 . S
O422 Nd393 2.410 . S
O422 C411 1.251 . S
O423 Nd392 2.424 . S
O423 C411 1.268 . S
H424 C396 0.930 . S
H425 C397 0.929 . S
H426 C399 0.930 . S
H427 C400 0.929 . S
H428 C405 0.930 . S
H429 C406 0.929 . S
H430 C408 0.930 . S
H431 C409 0.929 . S
Nd432 C434 2.836 . S
Nd432 O452 2.500 . S
Nd432 O453 2.492 . S
Nd432 O454 2.487 1_655 S
Nd432 O455 2.682 1_655 S
Nd432 O456 2.410 . S
Nd432 O461 2.414 1_554 S
Nd432 O463 2.424 1_655 S
Nd433 C443 2.836 . S
Nd433 O455 2.414 1_556 S
Nd433 O457 2.424 1_455 S
Nd433 O458 2.500 . S
Nd433 O459 2.492 . S
Nd433 O460 2.487 1_455 S
Nd433 O461 2.682 1_455 S
Nd433 O462 2.410 . S
C434 Nd432 2.836 . S
C434 C435 1.498 . S
C434 O452 1.258 . S
C434 O453 1.239 . S
C435 C434 1.498 . S
C435 C436 1.366 . S
C435 C440 1.407 . S
C436 C435 1.366 . S
C436 C437 1.392 . S
C436 H464 0.930 . S
C437 C436 1.392 . S
C437 C438 1.398 . S
C437 H465 0.929 . S
C438 C437 1.398 . S
C438 C439 1.352 . S
C439 C438 1.352 . S
C439 C440 1.384 . S
C439 H466 0.930 . S
C440 C435 1.407 . S
C440 C439 1.384 . S
C440 H467 0.929 . S
C441 O454 1.241 . S
C441 O455 1.273 . S
C442 O456 1.251 1_556 S
C442 O457 1.268 . S
C443 Nd433 2.836 . S
C443 C444 1.498 . S
C443 O458 1.258 . S
C443 O459 1.239 . S
C444 C443 1.498 . S
C444 C445 1.366 . S
C444 C449 1.407 . S
C445 C444 1.366 . S
C445 C446 1.392 . S
C445 H468 0.930 . S
C446 C445 1.392 . S
C446 C447 1.398 . S
C446 H469 0.929 . S
C447 C446 1.398 . S
C447 C448 1.352 . S
C448 C447 1.352 . S
C448 C449 1.384 . S
C448 H470 0.930 . S
C449 C444 1.407 . S
C449 C448 1.384 . S
C449 H471 0.929 . S
C450 O460 1.241 . S
C450 O461 1.273 . S
C451 O462 1.251 1_554 S
C451 O463 1.268 . S
O452 Nd432 2.500 . S
O452 C434 1.258 . S
O453 Nd432 2.492 . S
O453 C434 1.239 . S
O454 Nd432 2.487 1_455 S
O454 C441 1.241 . S
O455 Nd432 2.682 1_455 S
O455 Nd433 2.414 1_554 S
O455 C441 1.273 . S
O456 Nd432 2.410 . S
O456 C442 1.251 1_554 S
O457 Nd433 2.424 1_655 S
O457 C442 1.268 . S
O458 Nd433 2.500 . S
O458 C443 1.258 . S
O459 Nd433 2.492 . S
O459 C443 1.239 . S
O460 Nd433 2.487 1_655 S
O460 C450 1.241 . S
O461 Nd432 2.414 1_556 S
O461 Nd433 2.682 1_655 S
O461 C450 1.273 . S
O462 Nd433 2.410 . S
O462 C451 1.251 1_556 S
O463 Nd432 2.424 1_455 S
O463 C451 1.268 . S
H464 C436 0.930 . S
H465 C437 0.929 . S
H466 C439 0.930 . S
H467 C440 0.929 . S
H468 C445 0.930 . S
H469 C446 0.929 . S
H470 C448 0.930 . S
H471 C449 0.929 . S
H472 C480 0.929 . S
H473 C482 0.930 . S
H474 C484 0.930 . S
H475 C487 0.929 . S
H476 C490 0.930 . S
H477 C492 0.960 . S
H478 C492 0.960 . S
H479 C492 0.960 . S
C480 H472 0.929 . S
C480 C481 1.377 . S
C480 C482 1.384 . S
C481 C480 1.377 . S
C481 C487 1.390 . S
C482 H473 0.930 . S
C482 C480 1.384 . S
C482 C483 1.372 . S
C483 C482 1.372 . S
C483 C484 1.400 . S
C483 C488 1.490 . S
C484 H474 0.930 . S
C484 C483 1.400 . S
C484 C487 1.386 . S
H485 C501 0.930 . S
H486 C502 0.931 . S
C487 H475 0.929 . S
C487 C481 1.390 . S
C487 C484 1.386 . S
C488 C483 1.490 . S
C488 C490 1.395 . S
C488 C491 1.403 . S
H489 C495 0.930 . S
C490 H476 0.930 . S
C490 C488 1.395 . S
C490 C493 1.403 . S
C491 C488 1.403 . S
C491 C492 1.524 . S
C491 C495 1.400 . S
C492 H477 0.960 . S
C492 H478 0.960 . S
C492 H479 0.960 . S
C492 C491 1.524 . S
C493 C490 1.403 . S
C493 C494 1.392 . S
C493 C497 1.495 . S
C494 C493 1.392 . S
C494 C495 1.385 . S
C494 C496 1.478 . S
C495 H489 0.930 . S
C495 C491 1.400 . S
C495 C494 1.385 . S
C496 C494 1.478 . S
C496 C498 1.381 . S
C496 C502 1.383 . S
C497 C493 1.495 . S
C497 H503 0.959 . S
C497 H504 0.961 . S
C497 H505 0.960 . S
C498 C496 1.381 . S
C498 C499 1.394 . S
C498 H506 0.930 . S
C499 C498 1.394 . S
C499 C500 1.383 . S
C499 H507 0.929 . S
C500 C499 1.383 . S
C500 C501 1.377 . S
C501 H485 0.930 . S
C501 C500 1.377 . S
C501 C502 1.379 . S
C502 H486 0.931 . S
C502 C496 1.383 . S
C502 C501 1.379 . S
H503 C497 0.959 . S
H504 C497 0.961 . S
H505 C497 0.960 . S
H506 C498 0.930 . S
H507 C499 0.929 . S
H508 C516 0.929 . S
H509 C518 0.930 . S
H510 C520 0.930 . S
H511 C523 0.929 . S
H512 C526 0.930 . S
H513 C528 0.960 . S
H514 C528 0.960 . S
H515 C528 0.960 . S
C516 H508 0.929 . S
C516 C517 1.377 . S
C516 C518 1.384 . S
C517 C516 1.377 . S
C517 C523 1.390 . S
C518 H509 0.930 . S
C518 C516 1.384 . S
C518 C519 1.372 . S
C519 C518 1.372 . S
C519 C520 1.400 . S
C519 C524 1.490 . S
C520 H510 0.930 . S
C520 C519 1.400 . S
C520 C523 1.386 . S
H521 C537 0.930 . S
H522 C538 0.931 . S
C523 H511 0.929 . S
C523 C517 1.390 . S
C523 C520 1.386 . S
C524 C519 1.490 . S
C524 C526 1.395 . S
C524 C527 1.403 . S
H525 C531 0.930 . S
C526 H512 0.930 . S
C526 C524 1.395 . S
C526 C529 1.403 . S
C527 C524 1.403 . S
C527 C528 1.524 . S
C527 C531 1.400 . S
C528 H513 0.960 . S
C528 H514 0.960 . S
C528 H515 0.960 . S
C528 C527 1.524 . S
C529 C526 1.403 . S
C529 C530 1.392 . S
C529 C533 1.495 . S
C530 C529 1.392 . S
C530 C531 1.385 . S
C530 C532 1.478 . S
C531 H525 0.930 . S
C531 C527 1.400 . S
C531 C530 1.385 . S
C532 C530 1.478 . S
C532 C534 1.381 . S
C532 C538 1.383 . S
C533 C529 1.495 . S
C533 H539 0.959 . S
C533 H540 0.961 . S
C533 H541 0.960 . S
C534 C532 1.381 . S
C534 C535 1.394 . S
C534 H542 0.930 . S
C535 C534 1.394 . S
C535 C536 1.383 . S
C535 H543 0.929 . S
C536 C535 1.383 . S
C536 C537 1.377 . S
C537 H521 0.930 . S
C537 C536 1.377 . S
C537 C538 1.379 . S
C538 H522 0.931 . S
C538 C532 1.383 . S
C538 C537 1.379 . S
H539 C533 0.959 . S
H540 C533 0.961 . S
H541 C533 0.960 . S
H542 C534 0.930 . S
H543 C535 0.929 . S
H544 C552 0.929 . S
H545 C554 0.930 . S
H546 C556 0.930 . S
H547 C559 0.929 . S
H548 C562 0.930 . S
H549 C564 0.960 . S
H550 C564 0.960 . S
H551 C564 0.960 . S
C552 H544 0.929 . S
C552 C553 1.377 . S
C552 C554 1.384 . S
C553 C552 1.377 . S
C553 C559 1.390 . S
C554 H545 0.930 . S
C554 C552 1.384 . S
C554 C555 1.372 . S
C555 C554 1.372 . S
C555 C556 1.400 . S
C555 C560 1.490 . S
C556 H546 0.930 . S
C556 C555 1.400 . S
C556 C559 1.386 . S
H557 C573 0.930 . S
H558 C574 0.931 . S
C559 H547 0.929 . S
C559 C553 1.390 . S
C559 C556 1.386 . S
C560 C555 1.490 . S
C560 C562 1.395 . S
C560 C563 1.403 . S
H561 C567 0.930 . S
C562 H548 0.930 . S
C562 C560 1.395 . S
C562 C565 1.403 . S
C563 C560 1.403 . S
C563 C564 1.524 . S
C563 C567 1.400 . S
C564 H549 0.960 . S
C564 H550 0.960 . S
C564 H551 0.960 . S
C564 C563 1.524 . S
C565 C562 1.403 . S
C565 C566 1.392 . S
C565 C569 1.495 . S
C566 C565 1.392 . S
C566 C567 1.385 . S
C566 C568 1.478 . S
C567 H561 0.930 . S
C567 C563 1.400 . S
C567 C566 1.385 . S
C568 C566 1.478 . S
C568 C570 1.381 . S
C568 C574 1.383 . S
C569 C565 1.495 . S
C569 H575 0.959 . S
C569 H576 0.961 . S
C569 H577 0.960 . S
C570 C568 1.381 . S
C570 C571 1.394 . S
C570 H578 0.930 . S
C571 C570 1.394 . S
C571 C572 1.383 . S
C571 H579 0.929 . S
C572 C571 1.383 . S
C572 C573 1.377 . S
C573 H557 0.930 . S
C573 C572 1.377 . S
C573 C574 1.379 . S
C574 H558 0.931 . S
C574 C568 1.383 . S
C574 C573 1.379 . S
H575 C569 0.959 . S
H576 C569 0.961 . S
H577 C569 0.960 . S
H578 C570 0.930 . S
H579 C571 0.929 . S
H580 C588 0.929 . S
H581 C590 0.930 . S
H582 C592 0.930 . S
H583 C595 0.929 . S
H584 C598 0.930 . S
H585 C600 0.960 . S
H586 C600 0.960 . S
H587 C600 0.960 . S
C588 H580 0.929 . S
C588 C589 1.377 . S
C588 C590 1.384 . S
C589 C588 1.377 . S
C589 C595 1.390 . S
C590 H581 0.930 . S
C590 C588 1.384 . S
C590 C591 1.372 . S
C591 C590 1.372 . S
C591 C592 1.400 . S
C591 C596 1.490 . S
C592 H582 0.930 . S
C592 C591 1.400 . S
C592 C595 1.386 . S
H593 C609 0.930 . S
H594 C610 0.931 . S
C595 H583 0.929 . S
C595 C589 1.390 . S
C595 C592 1.386 . S
C596 C591 1.490 . S
C596 C598 1.395 . S
C596 C599 1.403 . S
H597 C603 0.930 . S
C598 H584 0.930 . S
C598 C596 1.395 . S
C598 C601 1.403 . S
C599 C596 1.403 . S
C599 C600 1.524 . S
C599 C603 1.400 . S
C600 H585 0.960 . S
C600 H586 0.960 . S
C600 H587 0.960 . S
C600 C599 1.524 . S
C601 C598 1.403 . S
C601 C602 1.392 . S
C601 C605 1.495 . S
C602 C601 1.392 . S
C602 C603 1.385 . S
C602 C604 1.478 . S
C603 H597 0.930 . S
C603 C599 1.400 . S
C603 C602 1.385 . S
C604 C602 1.478 . S
C604 C606 1.381 . S
C604 C610 1.383 . S
C605 C601 1.495 . S
C605 H611 0.959 . S
C605 H612 0.961 . S
C605 H613 0.960 . S
C606 C604 1.381 . S
C606 C607 1.394 . S
C606 H614 0.930 . S
C607 C606 1.394 . S
C607 C608 1.383 . S
C607 H615 0.929 . S
C608 C607 1.383 . S
C608 C609 1.377 . S
C609 H593 0.930 . S
C609 C608 1.377 . S
C609 C610 1.379 . S
C610 H594 0.931 . S
C610 C604 1.383 . S
C610 C609 1.379 . S
H611 C605 0.959 . S
H612 C605 0.961 . S
H613 C605 0.960 . S
H614 C606 0.930 . S
H615 C607 0.929 . S
H616 C624 0.929 . S
H617 C626 0.930 . S
H618 C628 0.930 . S
H619 C631 0.929 . S
H620 C634 0.930 . S
H621 C636 0.960 . S
H622 C636 0.960 . S
H623 C636 0.960 . S
C624 H616 0.929 . S
C624 C625 1.377 . S
C624 C626 1.384 . S
C625 C624 1.377 . S
C625 C631 1.390 . S
C626 H617 0.930 . S
C626 C624 1.384 . S
C626 C627 1.372 . S
C627 C626 1.372 . S
C627 C628 1.400 . S
C627 C632 1.490 . S
C628 H618 0.930 . S
C628 C627 1.400 . S
C628 C631 1.386 . S
H629 C645 0.930 . S
H630 C646 0.931 . S
C631 H619 0.929 . S
C631 C625 1.390 . S
C631 C628 1.386 . S
C632 C627 1.490 . S
C632 C634 1.395 . S
C632 C635 1.403 . S
H633 C639 0.930 . S
C634 H620 0.930 . S
C634 C632 1.395 . S
C634 C637 1.403 . S
C635 C632 1.403 . S
C635 C636 1.524 . S
C635 C639 1.400 . S
C636 H621 0.960 . S
C636 H622 0.960 . S
C636 H623 0.960 . S
C636 C635 1.524 . S
C637 C634 1.403 . S
C637 C638 1.392 . S
C637 C641 1.495 . S
C638 C637 1.392 . S
C638 C639 1.385 . S
C638 C640 1.478 . S
C639 H633 0.930 . S
C639 C635 1.400 . S
C639 C638 1.385 . S
C640 C638 1.478 . S
C640 C642 1.381 . S
C640 C646 1.383 . S
C641 C637 1.495 . S
C641 H647 0.959 1_554 S
C641 H648 0.961 . S
C641 H649 0.960 1_554 S
C642 C640 1.381 . S
C642 C643 1.394 . S
C642 H650 0.930 1_554 S
C643 C642 1.394 . S
C643 C644 1.383 . S
C643 H651 0.929 1_554 S
C644 C643 1.383 . S
C644 C645 1.377 . S
C645 H629 0.930 . S
C645 C644 1.377 . S
C645 C646 1.379 . S
C646 H630 0.931 . S
C646 C640 1.383 . S
C646 C645 1.379 . S
H647 C641 0.959 1_556 S
H648 C641 0.961 . S
H649 C641 0.960 1_556 S
H650 C642 0.930 1_556 S
H651 C643 0.929 1_556 S
H652 C660 0.929 . S
H653 C662 0.930 . S
H654 C664 0.930 . S
H655 C667 0.929 . S
H656 C670 0.930 . S
H657 C672 0.960 . S
H658 C672 0.960 . S
H659 C672 0.960 . S
C660 H652 0.929 . S
C660 C661 1.377 . S
C660 C662 1.384 . S
C661 C660 1.377 . S
C661 C667 1.390 . S
C662 H653 0.930 . S
C662 C660 1.384 . S
C662 C663 1.372 . S
C663 C662 1.372 . S
C663 C664 1.400 . S
C663 C668 1.490 . S
C664 H654 0.930 . S
C664 C663 1.400 . S
C664 C667 1.386 . S
H665 C681 0.930 . S
H666 C682 0.931 . S
C667 H655 0.929 . S
C667 C661 1.390 . S
C667 C664 1.386 . S
C668 C663 1.490 . S
C668 C670 1.395 . S
C668 C671 1.403 . S
H669 C675 0.930 . S
C670 H656 0.930 . S
C670 C668 1.395 . S
C670 C673 1.403 . S
C671 C668 1.403 . S
C671 C672 1.524 . S
C671 C675 1.400 . S
C672 H657 0.960 . S
C672 H658 0.960 . S
C672 H659 0.960 . S
C672 C671 1.524 . S
C673 C670 1.403 . S
C673 C674 1.392 . S
C673 C677 1.495 . S
C674 C673 1.392 . S
C674 C675 1.385 . S
C674 C676 1.478 . S
C675 H669 0.930 . S
C675 C671 1.400 . S
C675 C674 1.385 . S
C676 C674 1.478 . S
C676 C678 1.381 . S
C676 C682 1.383 . S
C677 C673 1.495 . S
C677 H683 0.959 . S
C677 H684 0.961 . S
C677 H685 0.960 . S
C678 C676 1.381 . S
C678 C679 1.394 . S
C678 H686 0.930 . S
C679 C678 1.394 . S
C679 C680 1.383 . S
C679 H687 0.929 . S
C680 C679 1.383 . S
C680 C681 1.377 . S
C681 H665 0.930 . S
C681 C680 1.377 . S
C681 C682 1.379 . S
C682 H666 0.931 . S
C682 C676 1.383 . S
C682 C681 1.379 . S
H683 C677 0.959 . S
H684 C677 0.961 . S
H685 C677 0.960 . S
H686 C678 0.930 . S
H687 C679 0.929 . S
H688 C696 0.929 . S
H689 C698 0.930 . S
H690 C700 0.930 . S
H691 C703 0.929 . S
H692 C706 0.930 . S
H693 C708 0.960 . S
H694 C708 0.960 . S
H695 C708 0.960 . S
C696 H688 0.929 . S
C696 C697 1.377 . S
C696 C698 1.384 . S
C697 C696 1.377 . S
C697 C703 1.390 . S
C698 H689 0.930 . S
C698 C696 1.384 . S
C698 C699 1.372 . S
C699 C698 1.372 . S
C699 C700 1.400 . S
C699 C704 1.490 . S
C700 H690 0.930 . S
C700 C699 1.400 . S
C700 C703 1.386 . S
H701 C717 0.930 1_554 S
H702 C718 0.931 . S
C703 H691 0.929 . S
C703 C697 1.390 . S
C703 C700 1.386 . S
C704 C699 1.490 . S
C704 C706 1.395 . S
C704 C707 1.403 . S
H705 C711 0.930 . S
C706 H692 0.930 . S
C706 C704 1.395 . S
C706 C709 1.403 . S
C707 C704 1.403 . S
C707 C708 1.524 . S
C707 C711 1.400 . S
C708 H693 0.960 . S
C708 H694 0.960 . S
C708 H695 0.960 . S
C708 C707 1.524 . S
C709 C706 1.403 . S
C709 C710 1.392 . S
C709 C713 1.495 . S
C710 C709 1.392 . S
C710 C711 1.385 . S
C710 C712 1.478 . S
C711 H705 0.930 . S
C711 C707 1.400 . S
C711 C710 1.385 . S
C712 C710 1.478 . S
C712 C714 1.381 . S
C712 C718 1.383 . S
C713 C709 1.495 . S
C713 H719 0.959 . S
C713 H720 0.961 . S
C713 H721 0.960 . S
C714 C712 1.381 . S
C714 C715 1.394 . S
C714 H722 0.930 . S
C715 C714 1.394 . S
C715 C716 1.383 . S
C715 H723 0.929 . S
C716 C715 1.383 . S
C716 C717 1.377 . S
C717 H701 0.930 1_556 S
C717 C716 1.377 . S
C717 C718 1.379 . S
C718 H702 0.931 . S
C718 C712 1.383 . S
C718 C717 1.379 . S
H719 C713 0.959 . S
H720 C713 0.961 . S
H721 C713 0.960 . S
H722 C714 0.930 . S
H723 C715 0.929 . S
H724 C732 0.929 . S
H725 C734 0.930 . S
H726 C736 0.930 . S
H727 C739 0.929 . S
H728 C742 0.930 . S
H729 C744 0.960 . S
H730 C744 0.960 . S
H731 C744 0.960 . S
C732 H724 0.929 . S
C732 C733 1.377 . S
C732 C734 1.384 . S
C733 C732 1.377 . S
C733 C739 1.390 . S
C734 H725 0.930 . S
C734 C732 1.384 . S
C734 C735 1.372 . S
C735 C734 1.372 . S
C735 C736 1.400 . S
C735 C740 1.490 . S
C736 H726 0.930 . S
C736 C735 1.400 . S
C736 C739 1.386 . S
H737 C753 0.930 . S
H738 C754 0.931 . S
C739 H727 0.929 . S
C739 C733 1.390 . S
C739 C736 1.386 . S
C740 C735 1.490 . S
C740 C742 1.395 . S
C740 C743 1.403 . S
H741 C747 0.930 . S
C742 H728 0.930 . S
C742 C740 1.395 . S
C742 C745 1.403 . S
C743 C740 1.403 . S
C743 C744 1.524 . S
C743 C747 1.400 . S
C744 H729 0.960 . S
C744 H730 0.960 . S
C744 H731 0.960 . S
C744 C743 1.524 . S
C745 C742 1.403 . S
C745 C746 1.392 . S
C745 C749 1.495 . S
C746 C745 1.392 . S
C746 C747 1.385 . S
C746 C748 1.478 . S
C747 H741 0.930 . S
C747 C743 1.400 . S
C747 C746 1.385 . S
C748 C746 1.478 . S
C748 C750 1.381 . S
C748 C754 1.383 . S
C749 C745 1.495 . S
C749 H755 0.959 . S
C749 H756 0.961 . S
C749 H757 0.960 . S
C750 C748 1.381 . S
C750 C751 1.394 . S
C750 H758 0.930 . S
C751 C750 1.394 . S
C751 C752 1.383 . S
C751 H759 0.929 . S
C752 C751 1.383 . S
C752 C753 1.377 . S
C753 H737 0.930 . S
C753 C752 1.377 . S
C753 C754 1.379 . S
C754 H738 0.931 . S
C754 C748 1.383 . S
C754 C753 1.379 . S
H755 C749 0.959 . S
H756 C749 0.961 . S
H757 C749 0.960 . S
H758 C750 0.930 . S
H759 C751 0.929 . S
H760 C768 0.929 . S
H761 C770 0.930 . S
H762 C772 0.930 . S
H763 C775 0.929 . S
H764 C778 0.930 . S
H765 C780 0.960 . S
H766 C780 0.960 . S
H767 C780 0.960 . S
C768 H760 0.929 . S
C768 C769 1.377 . S
C768 C770 1.384 . S
C769 C768 1.377 . S
C769 C775 1.390 . S
C770 H761 0.930 . S
C770 C768 1.384 . S
C770 C771 1.372 . S
C771 C770 1.372 . S
C771 C772 1.400 . S
C771 C776 1.490 . S
C772 H762 0.930 . S
C772 C771 1.400 . S
C772 C775 1.386 . S
H773 C789 0.930 1_556 S
H774 C790 0.931 . S
C775 H763 0.929 . S
C775 C769 1.390 . S
C775 C772 1.386 . S
C776 C771 1.490 . S
C776 C778 1.395 . S
C776 C779 1.403 . S
H777 C783 0.930 . S
C778 H764 0.930 . S
C778 C776 1.395 . S
C778 C781 1.403 . S
C779 C776 1.403 . S
C779 C780 1.524 . S
C779 C783 1.400 . S
C780 H765 0.960 . S
C780 H766 0.960 . S
C780 H767 0.960 . S
C780 C779 1.524 . S
C781 C778 1.403 . S
C781 C782 1.392 . S
C781 C785 1.495 . S
C782 C781 1.392 . S
C782 C783 1.385 . S
C782 C784 1.478 . S
C783 H777 0.930 . S
C783 C779 1.400 . S
C783 C782 1.385 . S
C784 C782 1.478 . S
C784 C786 1.381 . S
C784 C790 1.383 . S
C785 C781 1.495 . S
C785 H791 0.959 . S
C785 H792 0.961 . S
C785 H793 0.960 . S
C786 C784 1.381 . S
C786 C787 1.394 . S
C786 H794 0.930 . S
C787 C786 1.394 . S
C787 C788 1.383 . S
C787 H795 0.929 . S
C788 C787 1.383 . S
C788 C789 1.377 . S
C789 H773 0.930 1_554 S
C789 C788 1.377 . S
C789 C790 1.379 . S
C790 H774 0.931 . S
C790 C784 1.383 . S
C790 C789 1.379 . S
H791 C785 0.959 . S
H792 C785 0.961 . S
H793 C785 0.960 . S
H794 C786 0.930 . S
H795 C787 0.929 . S
H796 C804 0.929 . S
H797 C806 0.930 . S
H798 C808 0.930 . S
H799 C811 0.929 . S
H800 C814 0.930 . S
H801 C816 0.960 . S
H802 C816 0.960 . S
H803 C816 0.960 . S
C804 H796 0.929 . S
C804 C805 1.377 . S
C804 C806 1.384 . S
C805 C804 1.377 . S
C805 C811 1.390 . S
C806 H797 0.930 . S
C806 C804 1.384 . S
C806 C807 1.372 . S
C807 C806 1.372 . S
C807 C808 1.400 . S
C807 C812 1.490 . S
C808 H798 0.930 . S
C808 C807 1.400 . S
C808 C811 1.386 . S
H809 C825 0.930 . S
H810 C826 0.931 . S
C811 H799 0.929 . S
C811 C805 1.390 . S
C811 C808 1.386 . S
C812 C807 1.490 . S
C812 C814 1.395 . S
C812 C815 1.403 . S
H813 C819 0.930 . S
C814 H800 0.930 . S
C814 C812 1.395 . S
C814 C817 1.403 . S
C815 C812 1.403 . S
C815 C816 1.524 . S
C815 C819 1.400 . S
C816 H801 0.960 . S
C816 H802 0.960 . S
C816 H803 0.960 . S
C816 C815 1.524 . S
C817 C814 1.403 . S
C817 C818 1.392 . S
C817 C821 1.495 . S
C818 C817 1.392 . S
C818 C819 1.385 . S
C818 C820 1.478 . S
C819 H813 0.930 . S
C819 C815 1.400 . S
C819 C818 1.385 . S
C820 C818 1.478 . S
C820 C822 1.381 . S
C820 C826 1.383 . S
C821 C817 1.495 . S
C821 H827 0.959 . S
C821 H828 0.961 . S
C821 H829 0.960 . S
C822 C820 1.381 . S
C822 C823 1.394 . S
C822 H830 0.930 . S
C823 C822 1.394 . S
C823 C824 1.383 . S
C823 H831 0.929 . S
C824 C823 1.383 . S
C824 C825 1.377 . S
C825 H809 0.930 . S
C825 C824 1.377 . S
C825 C826 1.379 . S
C826 H810 0.931 . S
C826 C820 1.383 . S
C826 C825 1.379 . S
H827 C821 0.959 . S
H828 C821 0.961 . S
H829 C821 0.960 . S
H830 C822 0.930 . S
H831 C823 0.929 . S
H832 C840 0.929 . S
H833 C842 0.930 . S
H834 C844 0.930 . S
H835 C847 0.929 . S
H836 C850 0.930 . S
H837 C852 0.960 . S
H838 C852 0.960 . S
H839 C852 0.960 . S
C840 H832 0.929 . S
C840 C841 1.377 . S
C840 C842 1.384 . S
C841 C840 1.377 . S
C841 C847 1.390 . S
C842 H833 0.930 . S
C842 C840 1.384 . S
C842 C843 1.372 . S
C843 C842 1.372 . S
C843 C844 1.400 . S
C843 C848 1.490 . S
C844 H834 0.930 . S
C844 C843 1.400 . S
C844 C847 1.386 . S
H845 C861 0.930 . S
H846 C862 0.931 . S
C847 H835 0.929 . S
C847 C841 1.390 . S
C847 C844 1.386 . S
C848 C843 1.490 . S
C848 C850 1.395 . S
C848 C851 1.403 . S
H849 C855 0.930 . S
C850 H836 0.930 . S
C850 C848 1.395 . S
C850 C853 1.403 . S
C851 C848 1.403 . S
C851 C852 1.524 . S
C851 C855 1.400 . S
C852 H837 0.960 . S
C852 H838 0.960 . S
C852 H839 0.960 . S
C852 C851 1.524 . S
C853 C850 1.403 . S
C853 C854 1.392 . S
C853 C857 1.495 . S
C854 C853 1.392 . S
C854 C855 1.385 . S
C854 C856 1.478 . S
C855 H849 0.930 . S
C855 C851 1.400 . S
C855 C854 1.385 . S
C856 C854 1.478 . S
C856 C858 1.381 . S
C856 C862 1.383 . S
C857 C853 1.495 . S
C857 H863 0.959 . S
C857 H864 0.961 . S
C857 H865 0.960 . S
C858 C856 1.381 . S
C858 C859 1.394 . S
C858 H866 0.930 . S
C859 C858 1.394 . S
C859 C860 1.383 . S
C859 H867 0.929 . S
C860 C859 1.383 . S
C860 C861 1.377 . S
C861 H845 0.930 . S
C861 C860 1.377 . S
C861 C862 1.379 . S
C862 H846 0.931 . S
C862 C856 1.383 . S
C862 C861 1.379 . S
H863 C857 0.959 . S
H864 C857 0.961 . S
H865 C857 0.960 . S
H866 C858 0.930 . S
H867 C859 0.929 . S
H868 C876 0.929 . S
H869 C878 0.930 . S
H870 C880 0.930 . S
H871 C883 0.929 . S
H872 C886 0.930 . S
H873 C888 0.960 . S
H874 C888 0.960 . S
H875 C888 0.960 . S
C876 H868 0.929 . S
C876 C877 1.377 . S
C876 C878 1.384 . S
C877 C876 1.377 . S
C877 C883 1.390 . S
C878 H869 0.930 . S
C878 C876 1.384 . S
C878 C879 1.372 . S
C879 C878 1.372 . S
C879 C880 1.400 . S
C879 C884 1.490 . S
C880 H870 0.930 . S
C880 C879 1.400 . S
C880 C883 1.386 . S
H881 C897 0.930 . S
H882 C898 0.931 . S
C883 H871 0.929 . S
C883 C877 1.390 . S
C883 C880 1.386 . S
C884 C879 1.490 . S
C884 C886 1.395 . S
C884 C887 1.403 . S
H885 C891 0.930 . S
C886 H872 0.930 . S
C886 C884 1.395 . S
C886 C889 1.403 . S
C887 C884 1.403 . S
C887 C888 1.524 . S
C887 C891 1.400 . S
C888 H873 0.960 . S
C888 H874 0.960 . S
C888 H875 0.960 . S
C888 C887 1.524 . S
C889 C886 1.403 . S
C889 C890 1.392 . S
C889 C893 1.495 . S
C890 C889 1.392 . S
C890 C891 1.385 . S
C890 C892 1.478 . S
C891 H885 0.930 . S
C891 C887 1.400 . S
C891 C890 1.385 . S
C892 C890 1.478 . S
C892 C894 1.381 . S
C892 C898 1.383 . S
C893 C889 1.495 . S
C893 H899 0.959 . S
C893 H900 0.961 . S
C893 H901 0.960 . S
C894 C892 1.381 . S
C894 C895 1.394 . S
C894 H902 0.930 . S
C895 C894 1.394 . S
C895 C896 1.383 . S
C895 H903 0.929 . S
C896 C895 1.383 . S
C896 C897 1.377 . S
C897 H881 0.930 . S
C897 C896 1.377 . S
C897 C898 1.379 . S
C898 H882 0.931 . S
C898 C892 1.383 . S
C898 C897 1.379 . S
H899 C893 0.959 . S
H900 C893 0.961 . S
H901 C893 0.960 . S
H902 C894 0.930 . S
H903 C895 0.929 . S
H904 C912 0.929 . S
H905 C914 0.930 . S
H906 C916 0.930 . S
H907 C919 0.929 . S
H908 C922 0.930 . S
H909 C924 0.960 . S
H910 C924 0.960 . S
H911 C924 0.960 . S
C912 H904 0.929 . S
C912 C913 1.377 . S
C912 C914 1.384 . S
C913 C912 1.377 . S
C913 C919 1.390 . S
C914 H905 0.930 . S
C914 C912 1.384 . S
C914 C915 1.372 . S
C915 C914 1.372 . S
C915 C916 1.400 . S
C915 C920 1.490 . S
C916 H906 0.930 . S
C916 C915 1.400 . S
C916 C919 1.386 . S
H917 C933 0.930 . S
H918 C934 0.931 . S
C919 H907 0.929 . S
C919 C913 1.390 . S
C919 C916 1.386 . S
C920 C915 1.490 . S
C920 C922 1.395 . S
C920 C923 1.403 . S
H921 C927 0.930 . S
C922 H908 0.930 . S
C922 C920 1.395 . S
C922 C925 1.403 . S
C923 C920 1.403 . S
C923 C924 1.524 . S
C923 C927 1.400 . S
C924 H909 0.960 . S
C924 H910 0.960 . S
C924 H911 0.960 . S
C924 C923 1.524 . S
C925 C922 1.403 . S
C925 C926 1.392 . S
C925 C929 1.495 . S
C926 C925 1.392 . S
C926 C927 1.385 . S
C926 C928 1.478 . S
C927 H921 0.930 . S
C927 C923 1.400 . S
C927 C926 1.385 . S
C928 C926 1.478 . S
C928 C930 1.381 . S
C928 C934 1.383 . S
C929 C925 1.495 . S
C929 H935 0.959 . S
C929 H936 0.961 . S
C929 H937 0.960 . S
C930 C928 1.381 . S
C930 C931 1.394 . S
C930 H938 0.930 . S
C931 C930 1.394 . S
C931 C932 1.383 . S
C931 H939 0.929 . S
C932 C931 1.383 . S
C932 C933 1.377 . S
C933 H917 0.930 . S
C933 C932 1.377 . S
C933 C934 1.379 . S
C934 H918 0.931 . S
C934 C928 1.383 . S
C934 C933 1.379 . S
H935 C929 0.959 . S
H936 C929 0.961 . S
H937 C929 0.960 . S
H938 C930 0.930 . S
H939 C931 0.929 . S
H940 C948 0.929 . S
H941 C950 0.930 . S
H942 C952 0.930 . S
H943 C955 0.929 . S
H944 C958 0.930 . S
H945 C960 0.960 . S
H946 C960 0.960 . S
H947 C960 0.960 . S
C948 H940 0.929 . S
C948 C949 1.377 . S
C948 C950 1.384 . S
C949 C948 1.377 . S
C949 C955 1.390 . S
C950 H941 0.930 . S
C950 C948 1.384 . S
C950 C951 1.372 . S
C951 C950 1.372 . S
C951 C952 1.400 . S
C951 C956 1.490 . S
C952 H942 0.930 . S
C952 C951 1.400 . S
C952 C955 1.386 . S
H953 C969 0.930 . S
H954 C970 0.931 . S
C955 H943 0.929 . S
C955 C949 1.390 . S
C955 C952 1.386 . S
C956 C951 1.490 . S
C956 C958 1.395 . S
C956 C959 1.403 . S
H957 C963 0.930 . S
C958 H944 0.930 . S
C958 C956 1.395 . S
C958 C961 1.403 . S
C959 C956 1.403 . S
C959 C960 1.524 . S
C959 C963 1.400 . S
C960 H945 0.960 . S
C960 H946 0.960 . S
C960 H947 0.960 . S
C960 C959 1.524 . S
C961 C958 1.403 . S
C961 C962 1.392 . S
C961 C965 1.495 . S
C962 C961 1.392 . S
C962 C963 1.385 . S
C962 C964 1.478 . S
C963 H957 0.930 . S
C963 C959 1.400 . S
C963 C962 1.385 . S
C964 C962 1.478 . S
C964 C966 1.381 . S
C964 C970 1.383 . S
C965 C961 1.495 . S
C965 H971 0.959 . S
C965 H972 0.961 . S
C965 H973 0.960 . S
C966 C964 1.381 . S
C966 C967 1.394 . S
C966 H974 0.930 . S
C967 C966 1.394 . S
C967 C968 1.383 . S
C967 H975 0.929 . S
C968 C967 1.383 . S
C968 C969 1.377 . S
C969 H953 0.930 . S
C969 C968 1.377 . S
C969 C970 1.379 . S
C970 H954 0.931 . S
C970 C964 1.383 . S
C970 C969 1.379 . S
H971 C965 0.959 . S
H972 C965 0.961 . S
H973 C965 0.960 . S
H974 C966 0.930 . S
H975 C967 0.929 . S
H976 C984 0.929 . S
H977 C986 0.930 . S
H978 C988 0.930 . S
H979 C991 0.929 . S
H980 C994 0.930 . S
H981 C996 0.960 . S
H982 C996 0.960 . S
H983 C996 0.960 . S
C984 H976 0.929 . S
C984 C985 1.377 . S
C984 C986 1.384 . S
C985 C984 1.377 . S
C985 C991 1.390 . S
C986 H977 0.930 . S
C986 C984 1.384 . S
C986 C987 1.372 . S
C987 C986 1.372 . S
C987 C988 1.400 . S
C987 C992 1.490 . S
C988 H978 0.930 . S
C988 C987 1.400 . S
C988 C991 1.386 . S
H989 C1005 0.930 . S
H990 C1006 0.931 . S
C991 H979 0.929 . S
C991 C985 1.390 . S
C991 C988 1.386 . S
C992 C987 1.490 . S
C992 C994 1.395 . S
C992 C995 1.403 . S
H993 C999 0.930 . S
C994 H980 0.930 . S
C994 C992 1.395 . S
C994 C997 1.403 . S
C995 C992 1.403 . S
C995 C996 1.524 . S
C995 C999 1.400 . S
C996 H981 0.960 . S
C996 H982 0.960 . S
C996 H983 0.960 . S
C996 C995 1.524 . S
C997 C994 1.403 . S
C997 C998 1.392 . S
C997 C1001 1.495 . S
C998 C997 1.392 . S
C998 C999 1.385 . S
C998 C1000 1.478 . S
C999 H993 0.930 . S
C999 C995 1.400 . S
C999 C998 1.385 . S
C1000 C998 1.478 . S
C1000 C1002 1.381 . S
C1000 C1006 1.383 . S
C1001 C997 1.495 . S
C1001 H1007 0.959 . S
C1001 H1008 0.961 . S
C1001 H1009 0.960 . S
C1002 C1000 1.381 . S
C1002 C1003 1.394 . S
C1002 H1010 0.930 . S
C1003 C1002 1.394 . S
C1003 C1004 1.383 . S
C1003 H1011 0.929 . S
C1004 C1003 1.383 . S
C1004 C1005 1.377 . S
C1005 H989 0.930 . S
C1005 C1004 1.377 . S
C1005 C1006 1.379 . S
C1006 H990 0.931 . S
C1006 C1000 1.383 . S
C1006 C1005 1.379 . S
H1007 C1001 0.959 . S
H1008 C1001 0.961 . S
H1009 C1001 0.960 . S
H1010 C1002 0.930 . S
H1011 C1003 0.929 . S
H1012 C1020 0.929 . S
H1013 C1022 0.930 . S
H1014 C1024 0.930 . S
H1015 C1027 0.929 . S
H1016 C1030 0.930 . S
H1017 C1032 0.960 . S
H1018 C1032 0.960 . S
H1019 C1032 0.960 . S
C1020 H1012 0.929 . S
C1020 C1021 1.377 . S
C1020 C1022 1.384 . S
C1021 C1020 1.377 . S
C1021 C1027 1.390 . S
C1022 H1013 0.930 . S
C1022 C1020 1.384 . S
C1022 C1023 1.372 . S
C1023 C1022 1.372 . S
C1023 C1024 1.400 . S
C1023 C1028 1.490 . S
C1024 H1014 0.930 . S
C1024 C1023 1.400 . S
C1024 C1027 1.386 . S
H1025 C1041 0.930 . S
H1026 C1042 0.931 . S
C1027 H1015 0.929 . S
C1027 C1021 1.390 . S
C1027 C1024 1.386 . S
C1028 C1023 1.490 . S
C1028 C1030 1.395 . S
C1028 C1031 1.403 . S
H1029 C1035 0.930 . S
C1030 H1016 0.930 . S
C1030 C1028 1.395 . S
C1030 C1033 1.403 . S
C1031 C1028 1.403 . S
C1031 C1032 1.524 . S
C1031 C1035 1.400 . S
C1032 H1017 0.960 . S
C1032 H1018 0.960 . S
C1032 H1019 0.960 . S
C1032 C1031 1.524 . S
C1033 C1030 1.403 . S
C1033 C1034 1.392 . S
C1033 C1037 1.495 . S
C1034 C1033 1.392 . S
C1034 C1035 1.385 . S
C1034 C1036 1.478 . S
C1035 H1029 0.930 . S
C1035 C1031 1.400 . S
C1035 C1034 1.385 . S
C1036 C1034 1.478 . S
C1036 C1038 1.381 . S
C1036 C1042 1.383 . S
C1037 C1033 1.495 . S
C1037 H1043 0.959 . S
C1037 H1044 0.961 . S
C1037 H1045 0.960 . S
C1038 C1036 1.381 . S
C1038 C1039 1.394 . S
C1038 H1046 0.930 . S
C1039 C1038 1.394 . S
C1039 C1040 1.383 . S
C1039 H1047 0.929 . S
C1040 C1039 1.383 . S
C1040 C1041 1.377 . S
C1041 H1025 0.930 . S
C1041 C1040 1.377 . S
C1041 C1042 1.379 . S
C1042 H1026 0.931 . S
C1042 C1036 1.383 . S
C1042 C1041 1.379 . S
H1043 C1037 0.959 . S
H1044 C1037 0.961 . S
H1045 C1037 0.960 . S
H1046 C1038 0.930 . S
H1047 C1039 0.929 . S
H1048 C1056 0.929 . S
H1049 C1058 0.930 . S
H1050 C1060 0.930 . S
H1051 C1063 0.929 . S
H1052 C1066 0.930 . S
H1053 C1068 0.960 . S
H1054 C1068 0.960 . S
H1055 C1068 0.960 . S
C1056 H1048 0.929 . S
C1056 C1057 1.377 . S
C1056 C1058 1.384 . S
C1057 C1056 1.377 . S
C1057 C1063 1.390 . S
C1058 H1049 0.930 . S
C1058 C1056 1.384 . S
C1058 C1059 1.372 . S
C1059 C1058 1.372 . S
C1059 C1060 1.400 . S
C1059 C1064 1.490 . S
C1060 H1050 0.930 . S
C1060 C1059 1.400 . S
C1060 C1063 1.386 . S
H1061 C1077 0.930 . S
H1062 C1078 0.931 . S
C1063 H1051 0.929 . S
C1063 C1057 1.390 . S
C1063 C1060 1.386 . S
C1064 C1059 1.490 . S
C1064 C1066 1.395 . S
C1064 C1067 1.403 . S
H1065 C1071 0.930 . S
C1066 H1052 0.930 . S
C1066 C1064 1.395 . S
C1066 C1069 1.403 . S
C1067 C1064 1.403 . S
C1067 C1068 1.524 . S
C1067 C1071 1.400 . S
C1068 H1053 0.960 . S
C1068 H1054 0.960 . S
C1068 H1055 0.960 . S
C1068 C1067 1.524 . S
C1069 C1066 1.403 . S
C1069 C1070 1.392 . S
C1069 C1073 1.495 . S
C1070 C1069 1.392 . S
C1070 C1071 1.385 . S
C1070 C1072 1.478 . S
C1071 H1065 0.930 . S
C1071 C1067 1.400 . S
C1071 C1070 1.385 . S
C1072 C1070 1.478 . S
C1072 C1074 1.381 . S
C1072 C1078 1.383 . S
C1073 C1069 1.495 . S
C1073 H1079 0.959 . S
C1073 H1080 0.961 . S
C1073 H1081 0.960 . S
C1074 C1072 1.381 . S
C1074 C1075 1.394 . S
C1074 H1082 0.930 . S
C1075 C1074 1.394 . S
C1075 C1076 1.383 . S
C1075 H1083 0.959 . S
C1076 C1075 1.383 . S
C1076 C1077 1.377 . S
C1077 H1061 0.930 . S
C1077 C1076 1.377 . S
C1077 C1078 1.379 . S
C1078 H1062 0.931 . S
C1078 C1072 1.383 . S
C1078 C1077 1.379 . S
H1079 C1073 0.959 . S
H1080 C1073 0.961 . S
H1081 C1073 0.960 . S
H1082 C1074 0.930 . S
H1083 C1075 0.959 . S
H1084 C1092 0.929 . S
H1085 C1094 0.930 . S
H1086 C1096 0.930 . S
H1087 C1099 0.929 . S
H1088 C1102 0.930 . S
H1089 C1104 0.960 . S
H1090 C1104 0.960 . S
H1091 C1104 0.960 . S
C1092 H1084 0.929 . S
C1092 C1093 1.377 . S
C1092 C1094 1.384 . S
C1093 C1092 1.377 . S
C1093 C1099 1.390 . S
C1094 H1085 0.930 . S
C1094 C1092 1.384 . S
C1094 C1095 1.372 . S
C1095 C1094 1.372 . S
C1095 C1096 1.400 . S
C1095 C1100 1.490 . S
C1096 H1086 0.930 . S
C1096 C1095 1.400 . S
C1096 C1099 1.386 . S
H1097 C1113 0.930 . S
H1098 C1114 0.931 . S
C1099 H1087 0.929 . S
C1099 C1093 1.390 . S
C1099 C1096 1.386 . S
C1100 C1095 1.490 . S
C1100 C1102 1.395 . S
C1100 C1103 1.403 . S
H1101 C1107 0.930 . S
C1102 H1088 0.930 . S
C1102 C1100 1.395 . S
C1102 C1105 1.403 . S
C1103 C1100 1.403 . S
C1103 C1104 1.524 . S
C1103 C1107 1.400 . S
C1104 H1089 0.960 . S
C1104 H1090 0.960 . S
C1104 H1091 0.960 . S
C1104 C1103 1.524 . S
C1105 C1102 1.403 . S
C1105 C1106 1.392 . S
C1105 C1109 1.495 . S
C1106 C1105 1.392 . S
C1106 C1107 1.385 . S
C1106 C1108 1.478 . S
C1107 H1101 0.930 . S
C1107 C1103 1.400 . S
C1107 C1106 1.385 . S
C1108 C1106 1.478 . S
C1108 C1110 1.381 . S
C1108 C1114 1.383 . S
C1109 C1105 1.495 . S
C1109 H1115 0.959 . S
C1109 H1116 0.961 . S
C1109 H1117 0.960 . S
C1110 C1108 1.381 . S
C1110 C1111 1.394 . S
C1110 H1118 0.930 . S
C1111 C1110 1.394 . S
C1111 C1112 1.383 . S
C1111 H1119 0.929 . S
C1112 C1111 1.383 . S
C1112 C1113 1.377 . S
C1113 H1097 0.930 . S
C1113 C1112 1.377 . S
C1113 C1114 1.379 . S
C1114 H1098 0.931 . S
C1114 C1108 1.383 . S
C1114 C1113 1.379 . S
H1115 C1109 0.959 . S
H1116 C1109 0.961 . S
H1117 C1109 0.960 . S
H1118 C1110 0.930 . S
H1119 C1111 0.929 . S
H1120 C1128 0.929 . S
H1121 C1130 0.930 . S
H1122 C1132 0.930 . S
H1123 C1135 0.929 . S
H1124 C1138 0.930 . S
H1125 C1140 0.960 . S
H1126 C1140 0.960 . S
H1127 C1140 0.960 . S
C1128 H1120 0.929 . S
C1128 C1129 1.377 . S
C1128 C1130 1.384 . S
C1129 C1128 1.377 . S
C1129 C1135 1.390 . S
C1130 H1121 0.930 . S
C1130 C1128 1.384 . S
C1130 C1131 1.372 . S
C1131 C1130 1.372 . S
C1131 C1132 1.400 . S
C1131 C1136 1.490 . S
C1132 H1122 0.930 . S
C1132 C1131 1.400 . S
C1132 C1135 1.386 . S
H1133 C1149 0.930 . S
H1134 C1150 0.931 . S
C1135 H1123 0.929 . S
C1135 C1129 1.390 . S
C1135 C1132 1.386 . S
C1136 C1131 1.490 . S
C1136 C1138 1.395 . S
C1136 C1139 1.403 . S
H1137 C1143 0.930 . S
C1138 H1124 0.930 . S
C1138 C1136 1.395 . S
C1138 C1141 1.403 . S
C1139 C1136 1.403 . S
C1139 C1140 1.524 . S
C1139 C1143 1.400 . S
C1140 H1125 0.960 . S
C1140 H1126 0.960 . S
C1140 H1127 0.960 . S
C1140 C1139 1.524 . S
C1141 C1138 1.403 . S
C1141 C1142 1.392 . S
C1141 C1145 1.495 . S
C1142 C1141 1.392 . S
C1142 C1143 1.385 . S
C1142 C1144 1.478 . S
C1143 H1137 0.930 . S
C1143 C1139 1.400 . S
C1143 C1142 1.385 . S
C1144 C1142 1.478 . S
C1144 C1146 1.381 . S
C1144 C1150 1.383 . S
C1145 C1141 1.495 . S
C1145 H1151 0.959 . S
C1145 H1152 0.961 . S
C1145 H1153 0.960 . S
C1146 C1144 1.381 . S
C1146 C1147 1.394 . S
C1146 H1154 0.930 . S
C1147 C1146 1.394 . S
C1147 C1148 1.383 . S
C1147 H1155 0.929 . S
C1148 C1147 1.383 . S
C1148 C1149 1.377 . S
C1149 H1133 0.930 . S
C1149 C1148 1.377 . S
C1149 C1150 1.379 . S
C1150 H1134 0.931 . S
C1150 C1144 1.383 . S
C1150 C1149 1.379 . S
H1151 C1145 0.959 . S
H1152 C1145 0.961 . S
H1153 C1145 0.960 . S
H1154 C1146 0.930 . S
H1155 C1147 0.929 . S
H1156 C1164 0.929 . S
H1157 C1166 0.930 . S
H1158 C1168 0.930 . S
H1159 C1171 0.929 . S
H1160 C1174 0.930 . S
H1161 C1176 0.960 . S
H1162 C1176 0.960 . S
H1163 C1176 0.960 . S
C1164 H1156 0.929 . S
C1164 C1165 1.377 . S
C1164 C1166 1.384 . S
C1165 C1164 1.377 . S
C1165 C1171 1.390 . S
C1166 H1157 0.930 . S
C1166 C1164 1.384 . S
C1166 C1167 1.372 . S
C1167 C1166 1.372 . S
C1167 C1168 1.400 . S
C1167 C1172 1.490 . S
C1168 H1158 0.930 . S
C1168 C1167 1.400 . S
C1168 C1171 1.386 . S
H1169 C1185 0.930 . S
H1170 C1186 0.931 . S
C1171 H1159 0.929 . S
C1171 C1165 1.390 . S
C1171 C1168 1.386 . S
C1172 C1167 1.490 . S
C1172 C1174 1.395 . S
C1172 C1175 1.403 . S
H1173 C1179 0.930 . S
C1174 H1160 0.930 . S
C1174 C1172 1.395 . S
C1174 C1177 1.403 . S
C1175 C1172 1.403 . S
C1175 C1176 1.524 . S
C1175 C1179 1.400 . S
C1176 H1161 0.960 . S
C1176 H1162 0.960 . S
C1176 H1163 0.960 . S
C1176 C1175 1.524 . S
C1177 C1174 1.403 . S
C1177 C1178 1.392 . S
C1177 C1181 1.495 . S
C1178 C1177 1.392 . S
C1178 C1179 1.385 . S
C1178 C1180 1.478 . S
C1179 H1173 0.930 . S
C1179 C1175 1.400 . S
C1179 C1178 1.385 . S
C1180 C1178 1.478 . S
C1180 C1182 1.381 . S
C1180 C1186 1.383 . S
C1181 C1177 1.495 . S
C1181 H1187 0.959 . S
C1181 H1188 0.961 . S
C1181 H1189 0.960 . S
C1182 C1180 1.381 . S
C1182 C1183 1.394 . S
C1182 H1190 0.930 . S
C1183 C1182 1.394 . S
C1183 C1184 1.383 . S
C1183 H1191 0.929 . S
C1184 C1183 1.383 . S
C1184 C1185 1.377 . S
C1185 H1169 0.930 . S
C1185 C1184 1.377 . S
C1185 C1186 1.379 . S
C1186 H1170 0.931 . S
C1186 C1180 1.383 . S
C1186 C1185 1.379 . S
H1187 C1181 0.959 . S
H1188 C1181 0.961 . S
H1189 C1181 0.960 . S
H1190 C1182 0.930 . S
H1191 C1183 0.929 . S
H1192 C1200 0.929 . S
H1193 C1202 0.930 . S
H1194 C1204 0.930 . S
H1195 C1207 0.929 . S
H1196 C1210 0.930 . S
H1197 C1212 0.960 . S
H1198 C1212 0.960 . S
H1199 C1212 0.960 . S
C1200 H1192 0.929 . S
C1200 C1201 1.377 . S
C1200 C1202 1.384 . S
C1201 C1200 1.377 . S
C1201 C1207 1.390 . S
C1202 H1193 0.930 . S
C1202 C1200 1.384 . S
C1202 C1203 1.372 . S
C1203 C1202 1.372 . S
C1203 C1204 1.400 . S
C1203 C1208 1.490 . S
C1204 H1194 0.930 . S
C1204 C1203 1.400 . S
C1204 C1207 1.386 . S
H1205 C1221 0.930 . S
H1206 C1222 0.931 . S
C1207 H1195 0.929 . S
C1207 C1201 1.390 . S
C1207 C1204 1.386 . S
C1208 C1203 1.490 . S
C1208 C1210 1.395 . S
C1208 C1211 1.403 . S
H1209 C1215 0.930 . S
C1210 H1196 0.930 . S
C1210 C1208 1.395 . S
C1210 C1213 1.403 . S
C1211 C1208 1.403 . S
C1211 C1212 1.524 . S
C1211 C1215 1.400 . S
C1212 H1197 0.960 . S
C1212 H1198 0.960 . S
C1212 H1199 0.960 . S
C1212 C1211 1.524 . S
C1213 C1210 1.403 . S
C1213 C1214 1.392 . S
C1213 C1217 1.495 . S
C1214 C1213 1.392 . S
C1214 C1215 1.385 . S
C1214 C1216 1.478 . S
C1215 H1209 0.930 . S
C1215 C1211 1.400 . S
C1215 C1214 1.385 . S
C1216 C1214 1.478 . S
C1216 C1218 1.381 . S
C1216 C1222 1.383 . S
C1217 C1213 1.495 . S
C1217 H1223 0.959 . S
C1217 H1224 0.961 . S
C1217 H1225 0.960 . S
C1218 C1216 1.381 . S
C1218 C1219 1.394 . S
C1218 H1226 0.915 1_556 S
C1219 C1218 1.394 . S
C1219 C1220 1.383 . S
C1219 H1227 0.929 1_556 S
C1220 C1219 1.383 . S
C1220 C1221 1.377 . S
C1221 H1205 0.930 . S
C1221 C1220 1.377 . S
C1221 C1222 1.379 . S
C1222 H1206 0.931 . S
C1222 C1216 1.383 . S
C1222 C1221 1.379 . S
H1223 C1217 0.959 . S
H1224 C1217 0.961 . S
H1225 C1217 0.960 . S
H1226 C1218 0.915 1_554 S
H1227 C1219 0.929 1_554 S
H1228 C1236 0.929 . S
H1229 C1238 0.930 . S
H1230 C1240 0.930 . S
H1231 C1243 0.929 . S
H1232 C1246 0.930 . S
H1233 C1248 0.960 . S
H1234 C1248 0.960 . S
H1235 C1248 0.960 . S
C1236 H1228 0.929 . S
C1236 C1237 1.377 . S
C1236 C1238 1.384 . S
C1237 C1236 1.377 . S
C1237 C1243 1.390 . S
C1238 H1229 0.930 . S
C1238 C1236 1.384 . S
C1238 C1239 1.372 . S
C1239 C1238 1.372 . S
C1239 C1240 1.400 . S
C1239 C1244 1.490 . S
C1240 H1230 0.930 . S
C1240 C1239 1.400 . S
C1240 C1243 1.386 . S
H1241 C1257 0.930 . S
H1242 C1258 0.931 . S
C1243 H1231 0.929 . S
C1243 C1237 1.390 . S
C1243 C1240 1.386 . S
C1244 C1239 1.490 . S
C1244 C1246 1.395 . S
C1244 C1247 1.403 . S
H1245 C1251 0.930 . S
C1246 H1232 0.930 . S
C1246 C1244 1.395 . S
C1246 C1249 1.403 . S
C1247 C1244 1.403 . S
C1247 C1248 1.524 . S
C1247 C1251 1.400 . S
C1248 H1233 0.960 . S
C1248 H1234 0.960 . S
C1248 H1235 0.960 . S
C1248 C1247 1.524 . S
C1249 C1246 1.403 . S
C1249 C1250 1.392 . S
C1249 C1253 1.495 . S
C1250 C1249 1.392 . S
C1250 C1251 1.385 . S
C1250 C1252 1.478 . S
C1251 H1245 0.930 . S
C1251 C1247 1.400 . S
C1251 C1250 1.385 . S
C1252 C1250 1.478 . S
C1252 C1254 1.381 . S
C1252 C1258 1.383 . S
C1253 C1249 1.495 . S
C1253 H1259 0.959 . S
C1253 H1260 0.961 . S
C1253 H1261 0.960 . S
C1254 C1252 1.381 . S
C1254 C1255 1.394 . S
C1254 H1262 0.930 . S
C1255 C1254 1.394 . S
C1255 C1256 1.383 . S
C1255 H1263 0.929 . S
C1256 C1255 1.383 . S
C1256 C1257 1.377 . S
C1257 H1241 0.930 . S
C1257 C1256 1.377 . S
C1257 C1258 1.379 . S
C1258 H1242 0.931 . S
C1258 C1252 1.383 . S
C1258 C1257 1.379 . S
H1259 C1253 0.959 . S
H1260 C1253 0.961 . S
H1261 C1253 0.960 . S
H1262 C1254 0.930 . S
H1263 C1255 0.929 . S
H1264 C1272 0.929 . S
H1265 C1274 0.930 . S
H1266 C1276 0.930 . S
H1267 C1279 0.929 . S
H1268 C1282 0.930 . S
H1269 C1284 0.960 . S
H1270 C1284 0.960 . S
H1271 C1284 0.960 . S
C1272 H1264 0.929 . S
C1272 C1273 1.377 . S
C1272 C1274 1.384 . S
C1273 C1272 1.377 . S
C1273 C1279 1.390 . S
C1274 H1265 0.930 . S
C1274 C1272 1.384 . S
C1274 C1275 1.372 . S
C1275 C1274 1.372 . S
C1275 C1276 1.400 . S
C1275 C1280 1.490 . S
C1276 H1266 0.930 . S
C1276 C1275 1.400 . S
C1276 C1279 1.386 . S
H1277 C1293 0.930 . S
H1278 C1294 0.931 . S
C1279 H1267 0.929 . S
C1279 C1273 1.390 . S
C1279 C1276 1.386 . S
C1280 C1275 1.490 . S
C1280 C1282 1.395 . S
C1280 C1283 1.403 . S
H1281 C1287 0.930 . S
C1282 H1268 0.930 . S
C1282 C1280 1.395 . S
C1282 C1285 1.403 . S
C1283 C1280 1.403 . S
C1283 C1284 1.524 . S
C1283 C1287 1.400 . S
C1284 H1269 0.960 . S
C1284 H1270 0.960 . S
C1284 H1271 0.960 . S
C1284 C1283 1.524 . S
C1285 C1282 1.403 . S
C1285 C1286 1.392 . S
C1285 C1289 1.495 . S
C1286 C1285 1.392 . S
C1286 C1287 1.385 . S
C1286 C1288 1.478 . S
C1287 H1281 0.930 . S
C1287 C1283 1.400 . S
C1287 C1286 1.385 . S
C1288 C1286 1.478 . S
C1288 C1290 1.381 . S
C1288 C1294 1.383 . S
C1289 C1285 1.495 . S
C1289 H1295 0.959 . S
C1289 H1296 0.961 . S
C1289 H1297 0.960 . S
C1290 C1288 1.381 . S
C1290 C1291 1.394 . S
C1290 H1298 0.930 . S
C1291 C1290 1.394 . S
C1291 C1292 1.383 . S
C1291 H1299 0.929 . S
C1292 C1291 1.383 . S
C1292 C1293 1.377 . S
C1293 H1277 0.930 . S
C1293 C1292 1.377 . S
C1293 C1294 1.379 . S
C1294 H1278 0.931 . S
C1294 C1288 1.383 . S
C1294 C1293 1.379 . S
H1295 C1289 0.959 . S
H1296 C1289 0.961 . S
H1297 C1289 0.960 . S
H1298 C1290 0.930 . S
H1299 C1291 0.929 . S
H1300 C1308 0.929 . S
H1301 C1310 0.930 . S
H1302 C1312 0.930 . S
H1303 C1315 0.929 . S
H1304 C1318 0.930 . S
H1305 C1320 0.960 . S
H1306 C1320 0.960 . S
H1307 C1320 0.960 . S
C1308 H1300 0.929 . S
C1308 C1309 1.377 . S
C1308 C1310 1.384 . S
C1309 C1308 1.377 . S
C1309 C1315 1.390 . S
C1310 H1301 0.930 . S
C1310 C1308 1.384 . S
C1310 C1311 1.372 . S
C1311 C1310 1.372 . S
C1311 C1312 1.400 . S
C1311 C1316 1.490 . S
C1312 H1302 0.930 . S
C1312 C1311 1.400 . S
C1312 C1315 1.386 . S
H1313 C1329 0.930 . S
H1314 C1330 0.931 . S
C1315 H1303 0.929 . S
C1315 C1309 1.390 . S
C1315 C1312 1.386 . S
C1316 C1311 1.490 . S
C1316 C1318 1.395 . S
C1316 C1319 1.403 . S
H1317 C1323 0.930 . S
C1318 H1304 0.930 . S
C1318 C1316 1.395 . S
C1318 C1321 1.403 . S
C1319 C1316 1.403 . S
C1319 C1320 1.524 . S
C1319 C1323 1.400 . S
C1320 H1305 0.960 . S
C1320 H1306 0.960 . S
C1320 H1307 0.960 . S
C1320 C1319 1.524 . S
C1321 C1318 1.403 . S
C1321 C1322 1.392 . S
C1321 C1325 1.495 . S
C1322 C1321 1.392 . S
C1322 C1323 1.385 . S
C1322 C1324 1.478 . S
C1323 H1317 0.930 . S
C1323 C1319 1.400 . S
C1323 C1322 1.385 . S
C1324 C1322 1.478 . S
C1324 C1326 1.381 . S
C1324 C1330 1.383 . S
C1325 C1321 1.495 . S
C1325 H1331 0.959 . S
C1325 H1332 0.961 . S
C1325 H1333 0.960 . S
C1326 C1324 1.381 . S
C1326 C1327 1.394 . S
C1326 H1334 0.930 . S
C1327 C1326 1.394 . S
C1327 C1328 1.383 . S
C1327 H1335 0.929 . S
C1328 C1327 1.383 . S
C1328 C1329 1.377 . S
C1329 H1313 0.930 . S
C1329 C1328 1.377 . S
C1329 C1330 1.379 . S
C1330 H1314 0.931 . S
C1330 C1324 1.383 . S
C1330 C1329 1.379 . S
H1331 C1325 0.959 . S
H1332 C1325 0.961 . S
H1333 C1325 0.960 . S
H1334 C1326 0.930 . S
H1335 C1327 0.929 . S
C481 C1 2.957 . S
C500 C331 2.930 . S
C517 C40 2.420 . S
C536 C362 2.470 . S
C572 C401 1.274 . S
C553 C99 1.330 . S
C589 C118 0.369 . S
C608 C438 0.340 . S
C644 C361 2.868 . S
C625 C16 2.940 . S
C680 C318 1.615 . S
C661 C60 1.614 . S
C716 C450 1.320 . S
C697 C79 1.379 . S
C752 C407 0.903 . S
C733 C138 0.891 . S
C769 C21 2.286 . S
C788 C451 2.285 . S
C824 C367 1.276 . S
C805 C94 1.283 . S
C841 C133 0.540 . S
C860 C330 0.516 . S
C877 C55 2.594 . S
C896 C402 2.608 . S
C932 C322 2.926 . S
C913 C157 2.960 . S
C949 C196 2.410 . S
C968 C371 2.480 . S
C985 C255 1.320 . S
C1004 C410 1.298 . S
C1021 C289 0.360 . S
C1040 C447 0.364 . S
C1057 C172 2.940 . S
C1076 C370 2.838 . S
C1112 C327 1.619 . S
C1093 C216 1.604 . S
C1148 C441 1.304 . S
C1129 C235 1.384 . S
C1184 C398 0.890 . S
C1165 C294 0.888 . S
C1201 C177 2.285 . S
C1220 C442 2.283 . S
C1256 C358 1.278 . S
C1237 C250 1.288 . S
C1292 C321 0.656 . S
C1273 C274 0.547 . S
C1309 C211 2.597 . S
C1328 C411 2.602 . S
