# Generated by pormake.
# Topology anh, (6,3)-cn, num edge types: 1
# Building blocks:
#     Node 0, Type 0, BuildingBlock: MIFKUJ_clean_sbu_0, # of connection points: 6
#     Node 1, Type 0, BuildingBlock: MIFKUJ_clean_sbu_0, # of connection points: 6
#     Node 2, Type 0, BuildingBlock: MIFKUJ_clean_sbu_0, # of connection points: 6
#     Node 3, Type 1, BuildingBlock: MIDCAF_clean_linker_0, # of connection points: 3
#     Node 4, Type 1, BuildingBlock: MIDCAF_clean_linker_0, # of connection points: 3
#     Node 5, Type 1, BuildingBlock: MIDCAF_clean_linker_0, # of connection points: 3
#     Node 6, Type 1, BuildingBlock: MIDCAF_clean_linker_0, # of connection points: 3
#     Node 7, Type 1, BuildingBlock: MIDCAF_clean_linker_0, # of connection points: 3
#     Node 8, Type 1, BuildingBlock: MIDCAF_clean_linker_0, # of connection points: 3
#     Edge 9, Type (0, 1), BuildingBlock: OJICUG_clean_linker_0, # of connection points: 2
#     Edge 10, Type (0, 1), BuildingBlock: OJICUG_clean_linker_0, # of connection points: 2
#     Edge 11, Type (0, 1), BuildingBlock: OJICUG_clean_linker_0, # of connection points: 2
#     Edge 12, Type (0, 1), BuildingBlock: OJICUG_clean_linker_0, # of connection points: 2
#     Edge 13, Type (0, 1), BuildingBlock: OJICUG_clean_linker_0, # of connection points: 2
#     Edge 14, Type (0, 1), BuildingBlock: OJICUG_clean_linker_0, # of connection points: 2
#     Edge 15, Type (0, 1), BuildingBlock: OJICUG_clean_linker_0, # of connection points: 2
#     Edge 16, Type (0, 1), BuildingBlock: OJICUG_clean_linker_0, # of connection points: 2
#     Edge 17, Type (0, 1), BuildingBlock: OJICUG_clean_linker_0, # of connection points: 2
#     Edge 18, Type (0, 1), BuildingBlock: OJICUG_clean_linker_0, # of connection points: 2
#     Edge 19, Type (0, 1), BuildingBlock: OJICUG_clean_linker_0, # of connection points: 2
#     Edge 20, Type (0, 1), BuildingBlock: OJICUG_clean_linker_0, # of connection points: 2
#     Edge 21, Type (0, 1), BuildingBlock: OJICUG_clean_linker_0, # of connection points: 2
#     Edge 22, Type (0, 1), BuildingBlock: OJICUG_clean_linker_0, # of connection points: 2
#     Edge 23, Type (0, 1), BuildingBlock: OJICUG_clean_linker_0, # of connection points: 2
#     Edge 24, Type (0, 1), BuildingBlock: OJICUG_clean_linker_0, # of connection points: 2
#     Edge 25, Type (0, 1), BuildingBlock: OJICUG_clean_linker_0, # of connection points: 2
#     Edge 26, Type (0, 1), BuildingBlock: OJICUG_clean_linker_0, # of connection points: 2
# Relax obj value: 0.135
# Max RMSD: 0.186
# Mean RMSD: 0.150
data_MOF--net-anh--node1-MIFKUJ_clean_sbu_0--node2-MIDCAF_clean_linker_0--edge1-OJICUG_clean_linker_0
_symmetry_space_group_name_H-M    P1
_symmetry_Int_Tables_number       1
_symmetry_cell_setting            triclinic
loop_
_symmetry_equiv_pos_as_xyz
'x, y, z'
_cell_length_a     29.534283
_cell_length_b     29.171945
_cell_length_c     49.26312
_cell_angle_alpha  93.608431
_cell_angle_beta   90.946664
_cell_angle_gamma 119.86341
loop_
_atom_site_label
_atom_site_type_symbol
_atom_site_fract_x
_atom_site_fract_y
_atom_site_fract_z
_atom_type_partial_charge
Zn0 Zn 0.02536 0.5487 0.15332 0.0
Zn1 Zn 0.86299 0.44454 0.1593 0.0
C2 C 0.11648 0.54307 0.15693 0.0
O3 O 0.12179 0.57449 0.17855 0.0
C4 C 0.77985 0.46045 0.18022 0.0
O5 O 0.76618 0.4162 0.19163 0.0
O6 O 0.05749 0.62722 0.15014 0.0
O7 O 0.95489 0.50492 0.13768 0.0
O8 O 0.87947 0.45049 0.11897 0.0
C9 C 0.09353 0.64982 0.13372 0.0
O10 O 0.10516 0.62056 0.11715 0.0
O11 O 0.07535 0.52446 0.14136 0.0
C12 C 0.81628 0.34203 0.18278 0.0
O13 O 0.85157 0.36736 0.20293 0.0
O14 O 0.8156 0.36684 0.16268 0.0
O15 O 0.92613 0.47668 0.18832 0.0
O16 O 0.0124 0.53269 0.19188 0.0
O17 O 0.8204 0.48035 0.1664 0.0
C18 C 0.92699 0.48313 0.11611 0.0
C19 C 0.9698 0.50102 0.20244 0.0
Zn20 Zn 0.56097 0.07593 0.50571 0.0
Zn21 Zn 0.48721 0.92185 0.50222 0.0
C22 C 0.6714 0.12534 0.51504 0.0
O23 O 0.65999 0.13734 0.53916 0.0
C24 C 0.38428 0.83506 0.51454 0.0
O25 O 0.37946 0.87214 0.5285 0.0
O26 O 0.56378 0.14642 0.50809 0.0
O27 O 0.51267 0.03716 0.47325 0.0
O28 O 0.46897 0.94929 0.46992 0.0
C29 C 0.58004 0.17529 0.48817 0.0
O30 O 0.59504 0.15849 0.46665 0.0
O31 O 0.63431 0.09417 0.49796 0.0
C32 C 0.5745 0.90831 0.51525 0.0
O33 O 0.5656 0.92032 0.54 0.0
O34 O 0.54836 0.9108 0.49523 0.0
O35 O 0.49382 0.95821 0.53949 0.0
O36 O 0.53845 0.04636 0.54187 0.0
O37 O 0.42633 0.84758 0.50268 0.0
C38 C 0.48026 0.99314 0.46063 0.0
C39 C 0.51326 0.00308 0.55305 0.0
Zn40 Zn 0.61794 0.53905 0.82126 0.0
Zn41 Zn 0.50534 0.55589 0.81443 0.0
C42 C 0.5994 0.44026 0.84238 0.0
O43 O 0.63031 0.47225 0.86288 0.0
C44 C 0.54205 0.66302 0.80556 0.0
O45 O 0.52283 0.63883 0.78126 0.0
O46 O 0.69526 0.5702 0.82674 0.0
O47 O 0.60269 0.55073 0.78322 0.0
O48 O 0.52493 0.54433 0.77687 0.0
C49 C 0.72585 0.57316 0.80824 0.0
O50 O 0.70706 0.55644 0.78298 0.0
O51 O 0.58725 0.45975 0.82301 0.0
C52 C 0.41665 0.54382 0.83719 0.0
O53 O 0.45322 0.567 0.85695 0.0
O54 O 0.42902 0.53333 0.81398 0.0
O55 O 0.51442 0.51573 0.8438 0.0
O56 O 0.59787 0.56939 0.85346 0.0
O57 O 0.54174 0.63564 0.82476 0.0
C58 C 0.56677 0.54866 0.7677 0.0
C59 C 0.55172 0.54363 0.86123 0.0
C60 C 0.24746 0.87043 0.19816 0.0
C61 C 0.249 0.86147 0.1699 0.0
C62 C 0.2947 0.89534 0.15699 0.0
C63 C 0.33898 0.93469 0.1723 0.0
H64 H 0.49874 0.09493 0.17896 0.0
H65 H 0.58484 0.16261 0.16632 0.0
H66 H 0.65763 0.11356 0.22607 0.0
H67 H 0.57164 0.04823 0.23954 0.0
H68 H 0.50802 0.07188 0.29875 0.0
H69 H 0.50989 0.06847 0.34775 0.0
H70 H 0.35324 0.93354 0.34145 0.0
H71 H 0.35129 0.93644 0.29192 0.0
H72 H 0.28905 0.91374 0.23523 0.0
H73 H 0.21339 0.8449 0.20897 0.0
H74 H 0.29695 0.89014 0.13519 0.0
H75 H 0.37425 0.9585 0.16189 0.0
N76 N 0.43318 0.00597 0.2062 0.0
N77 N 0.4762 0.03359 0.24958 0.0
N78 N 0.38592 0.97594 0.24538 0.0
C79 C 0.47801 0.03445 0.22216 0.0
C80 C 0.43037 0.00481 0.26139 0.0
C81 C 0.38685 0.97626 0.21779 0.0
C82 C 0.52878 0.06717 0.21046 0.0
C83 C 0.53327 0.09809 0.18892 0.0
C84 C 0.58269 0.13671 0.18166 0.0
C85 C 0.62835 0.1443 0.19554 0.0
C86 C 0.62343 0.10999 0.21552 0.0
C87 C 0.57419 0.07229 0.22311 0.0
C88 C 0.42961 0.00422 0.29136 0.0
C89 C 0.47373 0.04158 0.30769 0.0
C90 C 0.47465 0.03999 0.33586 0.0
C91 C 0.43158 1.00091 0.34842 0.0
C92 C 0.38702 0.96397 0.33224 0.0
C93 C 0.3859 0.9658 0.30394 0.0
C94 C 0.33832 0.94101 0.2008 0.0
C95 C 0.29139 0.90977 0.21336 0.0
C96 C 0.54836 0.38394 0.5054 0.0
C97 C 0.58855 0.37844 0.49358 0.0
C98 C 0.63397 0.4243 0.48677 0.0
C99 C 0.64092 0.47476 0.49404 0.0
H100 H 0.5895 0.63206 0.48551 0.0
H101 H 0.58874 0.71314 0.47706 0.0
H102 H 0.72045 0.80222 0.53515 0.0
H103 H 0.71895 0.72045 0.54451 0.0
H104 H 0.61865 0.64629 0.60291 0.0
H105 H 0.60419 0.64005 0.65156 0.0
H106 H 0.59956 0.48947 0.64677 0.0
H107 H 0.61404 0.49543 0.5983 0.0
H108 H 0.52561 0.43717 0.5239 0.0
H109 H 0.5124 0.34942 0.51027 0.0
H110 H 0.66569 0.4214 0.4777 0.0
H111 H 0.67789 0.50958 0.49068 0.0
N112 N 0.63071 0.57564 0.5119 0.0
N113 N 0.63918 0.6193 0.55516 0.0
N114 N 0.61219 0.52909 0.55127 0.0
C115 C 0.64278 0.62075 0.52774 0.0
C116 C 0.62391 0.5736 0.56707 0.0
C117 C 0.61573 0.52974 0.52389 0.0
C118 C 0.65385 0.67012 0.51587 0.0
C119 C 0.61946 0.66935 0.49565 0.0
C120 C 0.61913 0.716 0.49085 0.0
C121 C 0.65371 0.7642 0.50597 0.0
C122 C 0.69222 0.76561 0.52376 0.0
C123 C 0.69179 0.71892 0.52893 0.0
C124 C 0.61751 0.57136 0.59672 0.0
C125 C 0.61486 0.612 0.61225 0.0
C126 C 0.60618 0.60829 0.64002 0.0
C127 C 0.60066 0.56424 0.65281 0.0
C128 C 0.60403 0.52402 0.63741 0.0
C129 C 0.61212 0.5274 0.60963 0.0
C130 C 0.60265 0.47978 0.50824 0.0
C131 C 0.55557 0.43409 0.51288 0.0
C132 C 0.95796 0.64082 0.86563 0.0
C133 C 0.92984 0.60982 0.84173 0.0
C134 C 0.94424 0.57446 0.82934 0.0
C135 C 0.98244 0.56679 0.84194 0.0
H136 H 0.13966 0.56858 0.84012 0.0
H137 H 0.21308 0.55898 0.8253 0.0
H138 H 0.1997 0.46888 0.89403 0.0
H139 H 0.12723 0.47936 0.90922 0.0
H140 H 0.05203 0.47771 0.95771 0.0
H141 H 0.02574 0.4617 0.00462 0.0
H142 H 0.99314 0.59057 0.0072 0.0
H143 H 0.0185 0.6062 0.96025 0.0
H144 H 0.01353 0.65396 0.89791 0.0
H145 H 0.94912 0.66963 0.87527 0.0
H146 H 0.92336 0.5497 0.81102 0.0
H147 H 0.9902 0.53669 0.83297 0.0
N148 N 0.06696 0.55964 0.87245 0.0
N149 N 0.08067 0.53423 0.91474 0.0
N150 N 0.02684 0.57142 0.91091 0.0
C151 C 0.09028 0.53929 0.88788 0.0
C152 C 0.04908 0.55033 0.92637 0.0
C153 C 0.03531 0.57588 0.88398 0.0
C154 C 0.12833 0.52572 0.87618 0.0
C155 C 0.15172 0.54586 0.8518 0.0
C156 C 0.19365 0.54013 0.8432 0.0
C157 C 0.21269 0.51394 0.85876 0.0
C158 C 0.18662 0.49031 0.88195 0.0
C159 C 0.14503 0.49629 0.89063 0.0
C160 C 0.03712 0.54309 0.9553 0.0
C161 C 0.03973 0.50293 0.96838 0.0
C162 C 0.02446 0.49356 0.9951 0.0
C163 C 0.00745 0.5249 0.00936 0.0
C164 C 0.00642 0.56609 -0.00338 0.0
C165 C 0.02067 0.5748 0.96975 0.0
C166 C 0.00608 0.59363 0.86732 0.0
C167 C 0.99513 0.6322 0.87852 0.0
C168 C 0.19971 0.61993 0.45374 0.0
C169 C 0.20384 0.63206 0.482 0.0
C170 C 0.16215 0.5993 0.4977 0.0
C171 C 0.11711 0.55522 0.48521 0.0
H172 H 0.95434 0.41148 0.49293 0.0
H173 H 0.88326 0.33495 0.51209 0.0
H174 H 0.87037 0.23643 0.43958 0.0
H175 H 0.93876 0.31385 0.41994 0.0
H176 H 0.9338 0.38801 0.36572 0.0
H177 H 0.92009 0.39571 0.31747 0.0
H178 H 0.05278 0.55475 0.32442 0.0
H179 H 0.06715 0.54712 0.37205 0.0
H180 H 0.153 0.56911 0.41939 0.0
H181 H 0.23079 0.64481 0.44103 0.0
H182 H 0.16441 0.60781 0.51956 0.0
H183 H 0.08531 0.53082 0.49766 0.0
N184 N 0.03084 0.45685 0.45558 0.0
N185 N 0.9793 0.41892 0.41463 0.0
N186 N 0.05472 0.5022 0.41594 0.0
C187 C 0.98835 0.41596 0.44145 0.0
C188 C 0.0121 0.4623 0.4018 0.0
C189 C 0.06465 0.49992 0.44265 0.0
C190 C 0.95133 0.3686 0.45485 0.0
C191 C 0.93657 0.37322 0.48134 0.0
C192 C 0.89598 0.32911 0.49235 0.0
C193 C 0.87016 0.27923 0.47728 0.0
C194 C 0.88791 0.27429 0.45151 0.0
C195 C 0.92743 0.31859 0.44028 0.0
C196 C 0.00197 0.46669 0.37277 0.0
C197 C 0.95999 0.42464 0.35695 0.0
C198 C 0.95188 0.42912 0.32937 0.0
C199 C 0.98567 0.47562 0.31712 0.0
C200 C 0.02667 0.518 0.33313 0.0
C201 C 0.03479 0.51359 0.36054 0.0
C202 C 0.11276 0.54402 0.45679 0.0
C203 C 0.15478 0.5767 0.4413 0.0
C204 C 0.50496 0.18092 0.81549 0.0
C205 C 0.54966 0.22028 0.83079 0.0
C206 C 0.58718 0.20733 0.83985 0.0
C207 C 0.58193 0.15772 0.832 0.0
H208 H 0.50857 0.93558 0.83632 0.0
H209 H 0.51569 0.85695 0.84371 0.0
H210 H 0.64805 0.91409 0.79301 0.0
H211 H 0.63957 0.99118 0.78505 0.0
H212 H 0.53802 0.95576 0.72196 0.0
H213 H 0.52768 0.9482 0.67255 0.0
H214 H 0.49246 0.07544 0.67636 0.0
H215 H 0.50368 0.08387 0.72585 0.0
H216 H 0.46684 0.10378 0.79412 0.0
H217 H 0.47445 0.18865 0.80882 0.0
H218 H 0.62225 0.23658 0.85156 0.0
H219 H 0.61302 0.15012 0.83771 0.0
N220 N 0.55541 0.04415 0.81288 0.0
N221 N 0.5475 0.99763 0.77061 0.0
N222 N 0.5286 0.06641 0.7729 0.0
C223 C 0.55869 0.00501 0.7979 0.0
C224 C 0.53225 0.02794 0.75794 0.0
C225 C 0.54018 0.075 0.8002 0.0
C226 C 0.57357 0.96925 0.81016 0.0
C227 C 0.54046 0.93223 0.82778 0.0
C228 C 0.5445 0.88715 0.8319 0.0
C229 C 0.58178 0.87867 0.81846 0.0
C230 C 0.61821 0.91879 0.80318 0.0
C231 C 0.61378 0.96326 0.79885 0.0
C232 C 0.52212 0.02074 0.72797 0.0
C233 C 0.52772 0.98197 0.71236 0.0
C234 C 0.52144 0.97734 0.68399 0.0
C235 C 0.50942 0.01133 0.67054 0.0
C236 C 0.50243 0.04914 0.68613 0.0
C237 C 0.50865 0.05377 0.71453 0.0
C238 C 0.53943 0.12052 0.81472 0.0
C239 C 0.50021 0.13195 0.80732 0.0
C240 C 0.64609 0.55376 0.13008 0.0
C241 C 0.63435 0.52898 0.15458 0.0
C242 C 0.58449 0.51176 0.16467 0.0
C243 C 0.5465 0.5168 0.14978 0.0
H244 H 0.40074 0.51992 0.15047 0.0
H245 H 0.3206 0.5154 0.166 0.0
H246 H 0.27475 0.52143 0.08314 0.0
H247 H 0.35332 0.52448 0.06757 0.0
H248 H 0.42357 0.53746 0.02012 0.0
H249 H 0.4389 0.54132 0.97161 0.0
H250 H 0.58695 0.54921 0.98778 0.0
H251 H 0.57248 0.54656 0.03611 0.0
H252 H 0.61875 0.57653 0.0961 0.0
H253 H 0.68358 0.56682 0.12135 0.0
H254 H 0.57435 0.49301 0.18363 0.0
H255 H 0.50784 0.50132 0.15745 0.0
N256 N 0.47075 0.53069 0.11568 0.0
N257 N 0.44228 0.53231 0.07107 0.0
N258 N 0.5244 0.5412 0.07926 0.0
C259 C 0.43343 0.5284 0.09805 0.0
C260 C 0.4876 0.53859 0.06152 0.0
C261 C 0.5166 0.5374 0.10627 0.0
C262 C 0.38383 0.52289 0.10778 0.0
C263 C 0.37333 0.5198 0.13555 0.0
C264 C 0.32749 0.51742 0.14447 0.0
C265 C 0.29125 0.5181 0.12581 0.0
C266 C 0.30128 0.51995 0.09803 0.0
C267 C 0.34683 0.5222 0.08913 0.0
C268 C 0.49677 0.54172 0.03208 0.0
C269 C 0.45949 0.54021 0.01336 0.0
C270 C 0.46812 0.54216 0.98554 0.0
C271 C 0.51416 0.54564 0.97589 0.0
C272 C 0.55146 0.54738 0.99461 0.0
C273 C 0.54293 0.54552 0.02236 0.0
C274 C 0.55771 0.53881 0.1245 0.0
C275 C 0.60843 0.55871 0.11533 0.0
C276 C 0.15454 0.49938 0.12713 0.0
C277 C 0.15942 0.53293 0.15008 0.0
H278 H 0.19188 0.46716 0.10186 0.0
C279 C 0.2067 0.55855 0.16602 0.0
H280 H 0.11847 0.47876 0.11455 0.0
C281 C 0.24886 0.55231 0.15864 0.0
C282 C 0.24466 0.52013 0.1352 0.0
H283 H 0.21177 0.58466 0.18386 0.0
H284 H 0.28537 0.57436 0.17077 0.0
C285 C 0.19668 0.49294 0.11981 0.0
C286 C 0.76698 0.19023 0.52433 0.0
C287 C 0.72484 0.15756 0.50565 0.0
H288 H 0.84656 0.25287 0.53015 0.0
C289 C 0.73271 0.16124 0.47766 0.0
H290 H 0.7622 0.18806 0.54605 0.0
C291 C 0.78043 0.1993 0.46855 0.0
C292 C 0.82202 0.2341 0.48717 0.0
H293 H 0.70099 0.13697 0.4627 0.0
H294 H 0.78342 0.20313 0.44685 0.0
C295 C 0.81519 0.2278 0.51518 0.0
C296 C 0.5717 0.7512 0.78805 0.0
C297 C 0.55885 0.72009 0.81034 0.0
H298 H 0.58882 0.8249 0.77319 0.0
C299 C 0.55747 0.74281 0.83615 0.0
H300 H 0.5731 0.73492 0.7679 0.0
C301 C 0.56636 0.79495 0.83923 0.0
C302 C 0.57769 0.82548 0.81664 0.0
H303 H 0.54731 0.71962 0.85367 0.0
H304 H 0.56349 0.81105 0.85912 0.0
C305 C 0.58114 0.80311 0.79116 0.0
C306 C 0.76187 0.53369 0.17202 0.0
C307 C 0.74399 0.48199 0.17942 0.0
H308 H 0.74137 0.59031 0.15979 0.0
C309 C 0.69044 0.44915 0.1831 0.0
H310 H 0.80307 0.56022 0.16951 0.0
C311 C 0.65486 0.46591 0.17696 0.0
C312 C 0.67228 0.51614 0.16737 0.0
H313 H 0.67551 0.4091 0.18888 0.0
H314 H 0.61351 0.43801 0.17787 0.0
C315 C 0.72645 0.5508 0.16635 0.0
C316 C 0.34444 0.74171 0.49391 0.0
C317 C 0.33929 0.78038 0.50985 0.0
H318 H 0.30572 0.66409 0.47311 0.0
C319 C 0.28996 0.76725 0.5194 0.0
H320 H 0.38193 0.75018 0.48647 0.0
C321 C 0.24615 0.71761 0.51173 0.0
C322 C 0.25093 0.68039 0.49431 0.0
H323 H 0.28472 0.79603 0.53185 0.0
H324 H 0.20816 0.70953 0.51818 0.0
C325 C 0.30078 0.69235 0.48622 0.0
C326 C 0.55651 0.35038 0.81682 0.0
C327 C 0.5831 0.383 0.84053 0.0
H328 H 0.52628 0.27457 0.79495 0.0
C329 C 0.59645 0.361 0.86174 0.0
H330 H 0.54586 0.36596 0.80001 0.0
C331 C 0.58457 0.30796 0.859 0.0
C332 C 0.55913 0.27565 0.83496 0.0
H333 H 0.61682 0.38496 0.88035 0.0
H334 H 0.59562 0.2924 0.87567 0.0
C335 C 0.54491 0.2976 0.81403 0.0
C336 C 0.62888 0.87295 0.53412 0.0
C337 C 0.60509 0.88093 0.5114 0.0
H338 H 0.66222 0.82977 0.55031 0.0
C339 C 0.60483 0.85634 0.48584 0.0
H340 H 0.63005 0.89146 0.55408 0.0
C341 C 0.62401 0.82104 0.48354 0.0
C342 C 0.64386 0.80968 0.50675 0.0
H343 H 0.58717 0.86199 0.46785 0.0
H344 H 0.6212 0.80096 0.46381 0.0
C345 C 0.64783 0.83768 0.53186 0.0
C346 C 0.81491 0.58969 0.7964 0.0
C347 C 0.78073 0.58961 0.81594 0.0
H348 H 0.88976 0.59772 0.78906 0.0
C349 C 0.79823 0.60179 0.8435 0.0
H350 H 0.80267 0.58086 0.77496 0.0
C351 C 0.84756 0.61079 0.85157 0.0
C352 C 0.88107 0.60844 0.83227 0.0
H353 H 0.773 0.6022 0.85912 0.0
H354 H 0.85809 0.61677 0.87318 0.0
C355 C 0.86469 0.59912 0.80449 0.0
C356 C 0.11599 0.73984 0.15412 0.0
C357 C 0.12908 0.70776 0.13748 0.0
H358 H 0.14323 0.81496 0.17646 0.0
C359 C 0.1794 0.73026 0.12752 0.0
H360 H 0.07722 0.72383 0.16173 0.0
C361 C 0.21751 0.78206 0.13639 0.0
C362 C 0.20587 0.81265 0.15512 0.0
H363 H 0.19065 0.70667 0.11453 0.0
H364 H 0.25702 0.79637 0.13018 0.0
C365 C 0.15392 0.79195 0.16267 0.0
C366 C 0.60103 0.25983 0.46752 0.0
C367 C 0.58181 0.22699 0.48914 0.0
H368 H 0.61782 0.33332 0.45175 0.0
C369 C 0.5643 0.24405 0.51183 0.0
H370 H 0.61481 0.24782 0.44972 0.0
C371 C 0.56604 0.29279 0.51295 0.0
C372 C 0.58525 0.32579 0.4914 0.0
H373 H 0.54947 0.21989 0.52888 0.0
H374 H 0.55325 0.3051 0.53106 0.0
C375 C 0.60289 0.30885 0.46867 0.0
C376 C 0.34954 0.53681 0.86904 0.0
C377 C 0.36293 0.53199 0.84223 0.0
H378 H 0.29199 0.53515 0.89513 0.0
C379 C 0.32536 0.51793 0.82071 0.0
H380 H 0.37749 0.54736 0.8861 0.0
C381 C 0.27581 0.51062 0.82596 0.0
C382 C 0.26299 0.5167 0.85281 0.0
H383 H 0.33463 0.51387 0.79983 0.0
H384 H 0.24776 0.50072 0.80904 0.0
C385 C 0.30023 0.52925 0.87426 0.0
C386 C 0.7384 0.25864 0.16251 0.0
C387 C 0.77257 0.2878 0.18518 0.0
H388 H 0.66688 0.18956 0.14775 0.0
C389 C 0.76165 0.26676 0.21063 0.0
H390 H 0.74611 0.27365 0.14254 0.0
C391 C 0.71581 0.21914 0.21372 0.0
C392 C 0.68018 0.19104 0.19132 0.0
H393 H 0.78709 0.2884 0.2285 0.0
H394 H 0.70718 0.2059 0.234 0.0
C395 C 0.69281 0.21062 0.16552 0.0
C396 C 0.98871 0.54392 0.0841 0.0
C397 C 0.94897 0.49301 0.08915 0.0
H398 H 0.03839 0.59409 0.05467 0.0
C399 C 0.92936 0.45227 0.06804 0.0
H400 H 0.0033 0.57608 0.09994 0.0
C401 C 0.94956 0.46231 0.04226 0.0
C402 C 0.98879 0.51352 0.03709 0.0
H403 H 0.89853 0.41269 0.07149 0.0
H404 H 0.93358 0.43044 0.02616 0.0
C405 C 0.00827 0.55426 0.05822 0.0
C406 C 0.47035 0.04178 0.42313 0.0
C407 C 0.45946 0.99347 0.43318 0.0
H408 H 0.46892 0.08173 0.38848 0.0
C409 C 0.43289 0.94653 0.41588 0.0
H410 H 0.49006 0.0786 0.43599 0.0
C411 C 0.42092 0.94848 0.38856 0.0
C412 C 0.43525 0.99734 0.37813 0.0
H413 H 0.42371 0.90864 0.42303 0.0
H414 H 0.40325 0.91216 0.37529 0.0
C415 C 0.45835 0.04366 0.39589 0.0
C416 C 0.61254 0.54218 0.72672 0.0
C417 C 0.57438 0.55163 0.73818 0.0
H418 H 0.65074 0.53893 0.69073 0.0
C419 C 0.54467 0.56509 0.72131 0.0
H420 H 0.6359 0.53148 0.73913 0.0
C421 C 0.55346 0.56965 0.69357 0.0
C422 C 0.5916 0.56014 0.68219 0.0
H423 H 0.51511 0.57278 0.72957 0.0
H424 H 0.53006 0.58003 0.68096 0.0
C425 C 0.62088 0.54615 0.69899 0.0
C426 C 0.48381 0.95801 0.59629 0.0
C427 C 0.50882 0.00502 0.58295 0.0
H428 H 0.46371 0.92312 0.63438 0.0
C429 C 0.53153 0.05401 0.59862 0.0
H430 H 0.46569 0.91957 0.58487 0.0
C431 C 0.53053 0.05596 0.62697 0.0
C432 C 0.50681 0.009 0.64034 0.0
H433 H 0.55113 0.09102 0.58906 0.0
H434 H 0.54986 0.09435 0.63847 0.0
C435 C 0.48288 0.96 0.62467 0.0
C436 C 0.58225 0.57942 0.90955 0.0
C437 C 0.54168 0.54515 0.89044 0.0
H438 H 0.60507 0.60722 0.95144 0.0
C439 C 0.49158 0.51206 0.89954 0.0
H440 H 0.6212 0.60566 0.90318 0.0
C441 C 0.48241 0.51279 0.92723 0.0
C442 C 0.52316 0.54658 0.94638 0.0
H443 H 0.45951 0.48509 0.88532 0.0
H444 H 0.44369 0.48599 0.93368 0.0
C445 C 0.57306 0.58018 0.93721 0.0
C446 C 0.02106 0.50869 0.2448 0.0
C447 C 0.97227 0.49259 0.23161 0.0
H448 H 0.06314 0.51486 0.28174 0.0
C449 C 0.92715 0.4692 0.24661 0.0
H450 H 0.0566 0.52625 0.23385 0.0
C451 C 0.93104 0.46273 0.27436 0.0
C452 C 0.98013 0.47982 0.28753 0.0
H453 H 0.88908 0.45688 0.23708 0.0
H454 H 0.8959 0.44556 0.28564 0.0
C455 C 0.0249 0.50229 0.27233 0.0
loop_
_geom_bond_atom_site_label_1
_geom_bond_atom_site_label_2
_geom_bond_distance
_geom_bond_site_symmetry_2
_ccdc_geom_bond_type
Zn0 O6 1.969 . S
Zn0 O7 1.965 . S
Zn0 O11 2.024 . S
Zn0 O16 1.969 . S
Zn1 O8 1.969 . S
Zn1 O14 1.969 . S
Zn1 O15 1.965 . S
Zn1 O17 2.024 . S
C2 O3 1.229 . S
C2 O11 1.058 . S
O3 C2 1.229 . S
C4 O5 1.229 . S
C4 O17 1.058 . S
O5 C4 1.229 . S
O6 Zn0 1.969 . S
O6 C9 1.267 . S
O7 Zn0 1.965 . S
O7 C18 1.260 1_455 S
O8 Zn1 1.969 . S
O8 C18 1.258 . S
C9 O6 1.267 . S
C9 O10 1.228 . S
O10 C9 1.228 . S
O11 Zn0 2.024 . S
O11 C2 1.058 . S
C12 O13 1.228 . S
C12 O14 1.267 . S
O13 C12 1.228 . S
O14 Zn1 1.969 . S
O14 C12 1.267 . S
O15 Zn1 1.965 . S
O15 C19 1.260 1_655 S
O16 Zn0 1.969 . S
O16 C19 1.258 . S
O17 Zn1 2.024 . S
O17 C4 1.058 . S
C18 O7 1.260 1_655 S
C18 O8 1.258 . S
C19 O15 1.260 1_455 S
C19 O16 1.258 . S
Zn20 O26 1.969 . S
Zn20 O27 1.965 . S
Zn20 O31 2.024 . S
Zn20 O36 1.969 . S
Zn21 O28 1.969 . S
Zn21 O34 1.969 . S
Zn21 O35 1.965 . S
Zn21 O37 2.024 . S
C22 O23 1.229 . S
C22 O31 1.058 . S
O23 C22 1.229 . S
C24 O25 1.229 . S
C24 O37 1.058 . S
O25 C24 1.229 . S
O26 Zn20 1.969 . S
O26 C29 1.267 . S
O27 Zn20 1.965 . S
O27 C38 1.260 . S
O28 Zn21 1.969 . S
O28 C38 1.258 1_565 S
C29 O26 1.267 . S
C29 O30 1.228 . S
O30 C29 1.228 . S
O31 Zn20 2.024 . S
O31 C22 1.058 . S
C32 O33 1.228 . S
C32 O34 1.267 . S
O33 C32 1.228 . S
O34 Zn21 1.969 . S
O34 C32 1.267 . S
O35 Zn21 1.965 . S
O35 C39 1.260 1_565 S
O36 Zn20 1.969 . S
O36 C39 1.258 . S
O37 Zn21 2.024 . S
O37 C24 1.058 . S
C38 O27 1.260 . S
C38 O28 1.258 1_545 S
C39 O35 1.260 1_545 S
C39 O36 1.258 . S
Zn40 O46 1.969 . S
Zn40 O47 1.965 . S
Zn40 O51 2.024 . S
Zn40 O56 1.969 . S
Zn41 O48 1.969 . S
Zn41 O54 1.969 . S
Zn41 O55 1.965 . S
Zn41 O57 2.024 . S
C42 O43 1.229 . S
C42 O51 1.058 . S
O43 C42 1.229 . S
C44 O45 1.229 . S
C44 O57 1.058 . S
O45 C44 1.229 . S
O46 Zn40 1.969 . S
O46 C49 1.267 . S
O47 Zn40 1.965 . S
O47 C58 1.260 . S
O48 Zn41 1.969 . S
O48 C58 1.258 . S
C49 O46 1.267 . S
C49 O50 1.228 . S
O50 C49 1.228 . S
O51 Zn40 2.024 . S
O51 C42 1.058 . S
C52 O53 1.228 . S
C52 O54 1.267 . S
O53 C52 1.228 . S
O54 Zn41 1.969 . S
O54 C52 1.267 . S
O55 Zn41 1.965 . S
O55 C59 1.260 . S
O56 Zn40 1.969 . S
O56 C59 1.258 . S
O57 Zn41 2.024 . S
O57 C44 1.058 . S
C58 O47 1.260 . S
C58 O48 1.258 . S
C59 O55 1.260 . S
C59 O56 1.258 . S
C60 C61 1.384 . S
C60 H73 0.947 . S
C60 C95 1.382 . S
C61 C60 1.384 . S
C61 C62 1.378 . S
C62 C61 1.378 . S
C62 C63 1.378 . S
C62 H74 0.952 . S
C63 C62 1.378 . S
C63 H75 0.950 . S
C63 C94 1.383 . S
H64 C83 0.947 . S
H65 C84 0.946 . S
H66 C86 0.953 . S
H67 C87 0.945 . S
H68 C89 0.952 . S
H69 C90 0.949 . S
H70 C92 0.950 . S
H71 C93 0.948 . S
H72 C95 0.951 . S
H73 C60 0.947 . S
H74 C62 0.952 . S
H75 C63 0.950 . S
N76 C79 1.382 . S
N76 C81 1.363 1_545 S
N77 C79 1.371 . S
N77 C80 1.372 . S
N78 C80 1.361 1_565 S
N78 C81 1.377 . S
C79 N76 1.382 . S
C79 N77 1.371 . S
C79 C82 1.480 . S
C80 N77 1.372 . S
C80 N78 1.361 1_545 S
C80 C88 1.457 . S
C81 N76 1.363 1_565 S
C81 N78 1.377 . S
C81 C94 1.479 . S
C82 C79 1.480 . S
C82 C83 1.383 . S
C82 C87 1.385 . S
C83 H64 0.947 . S
C83 C82 1.383 . S
C83 C84 1.388 . S
C84 H65 0.946 . S
C84 C83 1.388 . S
C84 C85 1.384 . S
C85 C84 1.384 . S
C85 C86 1.377 . S
C86 H66 0.953 . S
C86 C85 1.377 . S
C86 C87 1.369 . S
C87 H67 0.945 . S
C87 C82 1.385 . S
C87 C86 1.369 . S
C88 C80 1.457 . S
C88 C89 1.372 . S
C88 C93 1.364 1_545 S
C89 H68 0.952 . S
C89 C88 1.372 . S
C89 C90 1.389 . S
C90 H69 0.949 . S
C90 C89 1.389 . S
C90 C91 1.387 . S
C91 C90 1.387 . S
C91 C92 1.372 1_545 S
C92 H70 0.950 . S
C92 C91 1.372 1_565 S
C92 C93 1.379 . S
C93 H71 0.948 . S
C93 C88 1.364 1_565 S
C93 C92 1.379 . S
C94 C63 1.383 . S
C94 C81 1.479 . S
C94 C95 1.398 . S
C95 C60 1.382 . S
C95 H72 0.951 . S
C95 C94 1.398 . S
C96 C97 1.384 . S
C96 H109 0.947 . S
C96 C131 1.382 . S
C97 C96 1.384 . S
C97 C98 1.378 . S
C98 C97 1.378 . S
C98 C99 1.378 . S
C98 H110 0.952 . S
C99 C98 1.378 . S
C99 H111 0.950 . S
C99 C130 1.383 . S
H100 C119 0.947 . S
H101 C120 0.946 . S
H102 C122 0.953 . S
H103 C123 0.945 . S
H104 C125 0.952 . S
H105 C126 0.949 . S
H106 C128 0.950 . S
H107 C129 0.948 . S
H108 C131 0.951 . S
H109 C96 0.947 . S
H110 C98 0.952 . S
H111 C99 0.950 . S
N112 C115 1.382 . S
N112 C117 1.363 . S
N113 C115 1.371 . S
N113 C116 1.372 . S
N114 C116 1.361 . S
N114 C117 1.377 . S
C115 N112 1.382 . S
C115 N113 1.371 . S
C115 C118 1.480 . S
C116 N113 1.372 . S
C116 N114 1.361 . S
C116 C124 1.457 . S
C117 N112 1.363 . S
C117 N114 1.377 . S
C117 C130 1.479 . S
C118 C115 1.480 . S
C118 C119 1.383 . S
C118 C123 1.385 . S
C119 H100 0.947 . S
C119 C118 1.383 . S
C119 C120 1.388 . S
C120 H101 0.946 . S
C120 C119 1.388 . S
C120 C121 1.384 . S
C121 C120 1.384 . S
C121 C122 1.377 . S
C122 H102 0.953 . S
C122 C121 1.377 . S
C122 C123 1.369 . S
C123 H103 0.945 . S
C123 C118 1.385 . S
C123 C122 1.369 . S
C124 C116 1.457 . S
C124 C125 1.372 . S
C124 C129 1.364 . S
C125 H104 0.952 . S
C125 C124 1.372 . S
C125 C126 1.389 . S
C126 H105 0.949 . S
C126 C125 1.389 . S
C126 C127 1.387 . S
C127 C126 1.387 . S
C127 C128 1.372 . S
C128 H106 0.950 . S
C128 C127 1.372 . S
C128 C129 1.379 . S
C129 H107 0.948 . S
C129 C124 1.364 . S
C129 C128 1.379 . S
C130 C99 1.383 . S
C130 C117 1.479 . S
C130 C131 1.398 . S
C131 C96 1.382 . S
C131 H108 0.951 . S
C131 C130 1.398 . S
C132 C133 1.384 . S
C132 H145 0.947 . S
C132 C167 1.382 . S
C133 C132 1.384 . S
C133 C134 1.378 . S
C134 C133 1.378 . S
C134 C135 1.378 . S
C134 H146 0.952 . S
C135 C134 1.378 . S
C135 H147 0.950 . S
C135 C166 1.383 . S
H136 C155 0.947 . S
H137 C156 0.946 . S
H138 C158 0.953 . S
H139 C159 0.945 . S
H140 C161 0.952 . S
H141 C162 0.949 1_554 S
H142 C164 0.950 1_554 S
H143 C165 0.948 . S
H144 C167 0.951 . S
H145 C132 0.947 . S
H146 C134 0.952 . S
H147 C135 0.950 . S
N148 C151 1.382 . S
N148 C153 1.363 1_455 S
N149 C151 1.371 . S
N149 C152 1.372 . S
N150 C152 1.361 1_655 S
N150 C153 1.377 . S
C151 N148 1.382 . S
C151 N149 1.371 . S
C151 C154 1.480 . S
C152 N149 1.372 . S
C152 N150 1.361 1_455 S
C152 C160 1.457 . S
C153 N148 1.363 1_655 S
C153 N150 1.377 . S
C153 C166 1.479 . S
C154 C151 1.480 . S
C154 C155 1.383 . S
C154 C159 1.385 . S
C155 H136 0.947 . S
C155 C154 1.383 . S
C155 C156 1.388 . S
C156 H137 0.946 . S
C156 C155 1.388 . S
C156 C157 1.384 . S
C157 C156 1.384 . S
C157 C158 1.377 . S
C158 H138 0.953 . S
C158 C157 1.377 . S
C158 C159 1.369 . S
C159 H139 0.945 . S
C159 C154 1.385 . S
C159 C158 1.369 . S
C160 C152 1.457 . S
C160 C161 1.372 . S
C160 C165 1.364 1_455 S
C161 H140 0.952 . S
C161 C160 1.372 . S
C161 C162 1.389 . S
C162 H141 0.949 1_556 S
C162 C161 1.389 . S
C162 C163 1.387 1_556 S
C163 C162 1.387 1_554 S
C163 C164 1.372 1_454 S
C164 H142 0.950 1_556 S
C164 C163 1.372 1_656 S
C164 C165 1.379 . S
C165 H143 0.948 . S
C165 C160 1.364 1_655 S
C165 C164 1.379 . S
C166 C135 1.383 . S
C166 C153 1.479 . S
C166 C167 1.398 . S
C167 C132 1.382 . S
C167 H144 0.951 . S
C167 C166 1.398 . S
C168 C169 1.384 . S
C168 H181 0.947 . S
C168 C203 1.382 . S
C169 C168 1.384 . S
C169 C170 1.378 . S
C170 C169 1.378 . S
C170 C171 1.378 . S
C170 H182 0.952 . S
C171 C170 1.378 . S
C171 H183 0.950 . S
C171 C202 1.383 . S
H172 C191 0.947 . S
H173 C192 0.946 . S
H174 C194 0.953 . S
H175 C195 0.945 . S
H176 C197 0.952 . S
H177 C198 0.949 . S
H178 C200 0.950 . S
H179 C201 0.948 . S
H180 C203 0.951 . S
H181 C168 0.947 . S
H182 C170 0.952 . S
H183 C171 0.950 . S
N184 C187 1.382 1_455 S
N184 C189 1.363 . S
N185 C187 1.371 . S
N185 C188 1.372 1_655 S
N186 C188 1.361 . S
N186 C189 1.377 . S
C187 N184 1.382 1_655 S
C187 N185 1.371 . S
C187 C190 1.480 . S
C188 N185 1.372 1_455 S
C188 N186 1.361 . S
C188 C196 1.457 . S
C189 N184 1.363 . S
C189 N186 1.377 . S
C189 C202 1.479 . S
C190 C187 1.480 . S
C190 C191 1.383 . S
C190 C195 1.385 . S
C191 H172 0.947 . S
C191 C190 1.383 . S
C191 C192 1.388 . S
C192 H173 0.946 . S
C192 C191 1.388 . S
C192 C193 1.384 . S
C193 C192 1.384 . S
C193 C194 1.377 . S
C194 H174 0.953 . S
C194 C193 1.377 . S
C194 C195 1.369 . S
C195 H175 0.945 . S
C195 C190 1.385 . S
C195 C194 1.369 . S
C196 C188 1.457 . S
C196 C197 1.372 1_455 S
C196 C201 1.364 . S
C197 H176 0.952 . S
C197 C196 1.372 1_655 S
C197 C198 1.389 . S
C198 H177 0.949 . S
C198 C197 1.389 . S
C198 C199 1.387 1_655 S
C199 C198 1.387 1_455 S
C199 C200 1.372 . S
C200 H178 0.950 . S
C200 C199 1.372 . S
C200 C201 1.379 . S
C201 H179 0.948 . S
C201 C196 1.364 . S
C201 C200 1.379 . S
C202 C171 1.383 . S
C202 C189 1.479 . S
C202 C203 1.398 . S
C203 C168 1.382 . S
C203 H180 0.951 . S
C203 C202 1.398 . S
C204 C205 1.384 . S
C204 H217 0.947 . S
C204 C239 1.382 . S
C205 C204 1.384 . S
C205 C206 1.378 . S
C206 C205 1.378 . S
C206 C207 1.378 . S
C206 H218 0.952 . S
C207 C206 1.378 . S
C207 H219 0.950 . S
C207 C238 1.383 . S
H208 C227 0.947 . S
H209 C228 0.946 . S
H210 C230 0.953 . S
H211 C231 0.945 . S
H212 C233 0.952 . S
H213 C234 0.949 . S
H214 C236 0.950 . S
H215 C237 0.948 . S
H216 C239 0.951 . S
H217 C204 0.947 . S
H218 C206 0.952 . S
H219 C207 0.950 . S
N220 C223 1.382 1_545 S
N220 C225 1.363 . S
N221 C223 1.371 . S
N221 C224 1.372 1_565 S
N222 C224 1.361 . S
N222 C225 1.377 . S
C223 N220 1.382 1_565 S
C223 N221 1.371 . S
C223 C226 1.480 . S
C224 N221 1.372 1_545 S
C224 N222 1.361 . S
C224 C232 1.457 . S
C225 N220 1.363 . S
C225 N222 1.377 . S
C225 C238 1.479 . S
C226 C223 1.480 . S
C226 C227 1.383 . S
C226 C231 1.385 . S
C227 H208 0.947 . S
C227 C226 1.383 . S
C227 C228 1.388 . S
C228 H209 0.946 . S
C228 C227 1.388 . S
C228 C229 1.384 . S
C229 C228 1.384 . S
C229 C230 1.377 . S
C230 H210 0.953 . S
C230 C229 1.377 . S
C230 C231 1.369 . S
C231 H211 0.945 . S
C231 C226 1.385 . S
C231 C230 1.369 . S
C232 C224 1.457 . S
C232 C233 1.372 1_545 S
C232 C237 1.364 . S
C233 H212 0.952 . S
C233 C232 1.372 1_565 S
C233 C234 1.389 . S
C234 H213 0.949 . S
C234 C233 1.389 . S
C234 C235 1.387 1_565 S
C235 C234 1.387 1_545 S
C235 C236 1.372 . S
C236 H214 0.950 . S
C236 C235 1.372 . S
C236 C237 1.379 . S
C237 H215 0.948 . S
C237 C232 1.364 . S
C237 C236 1.379 . S
C238 C207 1.383 . S
C238 C225 1.479 . S
C238 C239 1.398 . S
C239 C204 1.382 . S
C239 H216 0.951 . S
C239 C238 1.398 . S
C240 C241 1.384 . S
C240 H253 0.947 . S
C240 C275 1.382 . S
C241 C240 1.384 . S
C241 C242 1.378 . S
C242 C241 1.378 . S
C242 C243 1.378 . S
C242 H254 0.952 . S
C243 C242 1.378 . S
C243 H255 0.950 . S
C243 C274 1.383 . S
H244 C263 0.947 . S
H245 C264 0.946 . S
H246 C266 0.953 . S
H247 C267 0.945 . S
H248 C269 0.952 . S
H249 C270 0.949 1_556 S
H250 C272 0.950 1_556 S
H251 C273 0.948 . S
H252 C275 0.951 . S
H253 C240 0.947 . S
H254 C242 0.952 . S
H255 C243 0.950 . S
N256 C259 1.382 . S
N256 C261 1.363 . S
N257 C259 1.371 . S
N257 C260 1.372 . S
N258 C260 1.361 . S
N258 C261 1.377 . S
C259 N256 1.382 . S
C259 N257 1.371 . S
C259 C262 1.480 . S
C260 N257 1.372 . S
C260 N258 1.361 . S
C260 C268 1.457 . S
C261 N256 1.363 . S
C261 N258 1.377 . S
C261 C274 1.479 . S
C262 C259 1.480 . S
C262 C263 1.383 . S
C262 C267 1.385 . S
C263 H244 0.947 . S
C263 C262 1.383 . S
C263 C264 1.388 . S
C264 H245 0.946 . S
C264 C263 1.388 . S
C264 C265 1.384 . S
C265 C264 1.384 . S
C265 C266 1.377 . S
C266 H246 0.953 . S
C266 C265 1.377 . S
C266 C267 1.369 . S
C267 H247 0.945 . S
C267 C262 1.385 . S
C267 C266 1.369 . S
C268 C260 1.457 . S
C268 C269 1.372 . S
C268 C273 1.364 . S
C269 H248 0.952 . S
C269 C268 1.372 . S
C269 C270 1.389 . S
C270 H249 0.949 1_554 S
C270 C269 1.389 . S
C270 C271 1.387 1_554 S
C271 C270 1.387 1_556 S
C271 C272 1.372 1_556 S
C272 H250 0.950 1_554 S
C272 C271 1.372 1_554 S
C272 C273 1.379 . S
C273 H251 0.948 . S
C273 C268 1.364 . S
C273 C272 1.379 . S
C274 C243 1.383 . S
C274 C261 1.479 . S
C274 C275 1.398 . S
C275 C240 1.382 . S
C275 H252 0.951 . S
C275 C274 1.398 . S
C276 C277 1.387 . S
C276 H280 0.950 . S
C276 C285 1.390 . S
C277 C276 1.387 . S
C277 C279 1.387 . S
H278 C285 0.950 . S
C279 C277 1.387 . S
C279 C281 1.390 . S
C279 H283 0.950 . S
H280 C276 0.950 . S
C281 C279 1.390 . S
C281 C282 1.387 . S
C281 H284 0.950 . S
C282 C281 1.387 . S
C282 C285 1.387 . S
H283 C279 0.950 . S
H284 C281 0.950 . S
C285 C276 1.390 . S
C285 H278 0.950 . S
C285 C282 1.387 . S
C286 C287 1.387 . S
C286 H290 0.950 . S
C286 C295 1.390 . S
C287 C286 1.387 . S
C287 C289 1.387 . S
H288 C295 0.950 . S
C289 C287 1.387 . S
C289 C291 1.390 . S
C289 H293 0.950 . S
H290 C286 0.950 . S
C291 C289 1.390 . S
C291 C292 1.387 . S
C291 H294 0.950 . S
C292 C291 1.387 . S
C292 C295 1.387 . S
H293 C289 0.950 . S
H294 C291 0.950 . S
C295 C286 1.390 . S
C295 H288 0.950 . S
C295 C292 1.387 . S
C296 C297 1.387 . S
C296 H300 0.950 . S
C296 C305 1.390 . S
C297 C296 1.387 . S
C297 C299 1.387 . S
H298 C305 0.950 . S
C299 C297 1.387 . S
C299 C301 1.390 . S
C299 H303 0.950 . S
H300 C296 0.950 . S
C301 C299 1.390 . S
C301 C302 1.387 . S
C301 H304 0.950 . S
C302 C301 1.387 . S
C302 C305 1.387 . S
H303 C299 0.950 . S
H304 C301 0.950 . S
C305 C296 1.390 . S
C305 H298 0.950 . S
C305 C302 1.387 . S
C306 C307 1.387 . S
C306 H310 0.950 . S
C306 C315 1.390 . S
C307 C306 1.387 . S
C307 C309 1.387 . S
H308 C315 0.950 . S
C309 C307 1.387 . S
C309 C311 1.390 . S
C309 H313 0.950 . S
H310 C306 0.950 . S
C311 C309 1.390 . S
C311 C312 1.387 . S
C311 H314 0.950 . S
C312 C311 1.387 . S
C312 C315 1.387 . S
H313 C309 0.950 . S
H314 C311 0.950 . S
C315 C306 1.390 . S
C315 H308 0.950 . S
C315 C312 1.387 . S
C316 C317 1.387 . S
C316 H320 0.950 . S
C316 C325 1.390 . S
C317 C316 1.387 . S
C317 C319 1.387 . S
H318 C325 0.950 . S
C319 C317 1.387 . S
C319 C321 1.390 . S
C319 H323 0.950 . S
H320 C316 0.950 . S
C321 C319 1.390 . S
C321 C322 1.387 . S
C321 H324 0.950 . S
C322 C321 1.387 . S
C322 C325 1.387 . S
H323 C319 0.950 . S
H324 C321 0.950 . S
C325 C316 1.390 . S
C325 H318 0.950 . S
C325 C322 1.387 . S
C326 C327 1.387 . S
C326 H330 0.950 . S
C326 C335 1.390 . S
C327 C326 1.387 . S
C327 C329 1.387 . S
H328 C335 0.950 . S
C329 C327 1.387 . S
C329 C331 1.390 . S
C329 H333 0.950 . S
H330 C326 0.950 . S
C331 C329 1.390 . S
C331 C332 1.387 . S
C331 H334 0.950 . S
C332 C331 1.387 . S
C332 C335 1.387 . S
H333 C329 0.950 . S
H334 C331 0.950 . S
C335 C326 1.390 . S
C335 H328 0.950 . S
C335 C332 1.387 . S
C336 C337 1.387 . S
C336 H340 0.950 . S
C336 C345 1.390 . S
C337 C336 1.387 . S
C337 C339 1.387 . S
H338 C345 0.950 . S
C339 C337 1.387 . S
C339 C341 1.390 . S
C339 H343 0.950 . S
H340 C336 0.950 . S
C341 C339 1.390 . S
C341 C342 1.387 . S
C341 H344 0.950 . S
C342 C341 1.387 . S
C342 C345 1.387 . S
H343 C339 0.950 . S
H344 C341 0.950 . S
C345 C336 1.390 . S
C345 H338 0.950 . S
C345 C342 1.387 . S
C346 C347 1.387 . S
C346 H350 0.950 . S
C346 C355 1.390 . S
C347 C346 1.387 . S
C347 C349 1.387 . S
H348 C355 0.950 . S
C349 C347 1.387 . S
C349 C351 1.390 . S
C349 H353 0.950 . S
H350 C346 0.950 . S
C351 C349 1.390 . S
C351 C352 1.387 . S
C351 H354 0.950 . S
C352 C351 1.387 . S
C352 C355 1.387 . S
H353 C349 0.950 . S
H354 C351 0.950 . S
C355 C346 1.390 . S
C355 H348 0.950 . S
C355 C352 1.387 . S
C356 C357 1.387 . S
C356 H360 0.950 . S
C356 C365 1.390 . S
C357 C356 1.387 . S
C357 C359 1.387 . S
H358 C365 0.950 . S
C359 C357 1.387 . S
C359 C361 1.390 . S
C359 H363 0.950 . S
H360 C356 0.950 . S
C361 C359 1.390 . S
C361 C362 1.387 . S
C361 H364 0.950 . S
C362 C361 1.387 . S
C362 C365 1.387 . S
H363 C359 0.950 . S
H364 C361 0.950 . S
C365 C356 1.390 . S
C365 H358 0.950 . S
C365 C362 1.387 . S
C366 C367 1.387 . S
C366 H370 0.950 . S
C366 C375 1.390 . S
C367 C366 1.387 . S
C367 C369 1.387 . S
H368 C375 0.950 . S
C369 C367 1.387 . S
C369 C371 1.390 . S
C369 H373 0.950 . S
H370 C366 0.950 . S
C371 C369 1.390 . S
C371 C372 1.387 . S
C371 H374 0.950 . S
C372 C371 1.387 . S
C372 C375 1.387 . S
H373 C369 0.950 . S
H374 C371 0.950 . S
C375 C366 1.390 . S
C375 H368 0.950 . S
C375 C372 1.387 . S
C376 C377 1.387 . S
C376 H380 0.950 . S
C376 C385 1.390 . S
C377 C376 1.387 . S
C377 C379 1.387 . S
H378 C385 0.950 . S
C379 C377 1.387 . S
C379 C381 1.390 . S
C379 H383 0.950 . S
H380 C376 0.950 . S
C381 C379 1.390 . S
C381 C382 1.387 . S
C381 H384 0.950 . S
C382 C381 1.387 . S
C382 C385 1.387 . S
H383 C379 0.950 . S
H384 C381 0.950 . S
C385 C376 1.390 . S
C385 H378 0.950 . S
C385 C382 1.387 . S
C386 C387 1.387 . S
C386 H390 0.950 . S
C386 C395 1.390 . S
C387 C386 1.387 . S
C387 C389 1.387 . S
H388 C395 0.950 . S
C389 C387 1.387 . S
C389 C391 1.390 . S
C389 H393 0.950 . S
H390 C386 0.950 . S
C391 C389 1.390 . S
C391 C392 1.387 . S
C391 H394 0.950 . S
C392 C391 1.387 . S
C392 C395 1.387 . S
H393 C389 0.950 . S
H394 C391 0.950 . S
C395 C386 1.390 . S
C395 H388 0.950 . S
C395 C392 1.387 . S
C396 C397 1.387 . S
C396 H400 0.950 . S
C396 C405 1.390 . S
C397 C396 1.387 . S
C397 C399 1.387 1_455 S
H398 C405 0.950 . S
C399 C397 1.387 1_655 S
C399 C401 1.390 1_655 S
C399 H403 0.950 . S
H400 C396 0.950 . S
C401 C399 1.390 1_455 S
C401 C402 1.387 . S
C401 H404 0.950 1_455 S
C402 C401 1.387 . S
C402 C405 1.387 . S
H403 C399 0.950 . S
H404 C401 0.950 1_655 S
C405 C396 1.390 . S
C405 H398 0.950 . S
C405 C402 1.387 . S
C406 C407 1.387 . S
C406 H410 0.950 . S
C406 C415 1.390 . S
C407 C406 1.387 . S
C407 C409 1.387 1_545 S
H408 C415 0.950 . S
C409 C407 1.387 1_565 S
C409 C411 1.390 . S
C409 H413 0.950 . S
H410 C406 0.950 . S
C411 C409 1.390 . S
C411 C412 1.387 1_565 S
C411 H414 0.950 . S
C412 C411 1.387 1_545 S
C412 C415 1.387 . S
H413 C409 0.950 . S
H414 C411 0.950 . S
C415 C406 1.390 . S
C415 H408 0.950 . S
C415 C412 1.387 . S
C416 C417 1.387 . S
C416 H420 0.950 . S
C416 C425 1.390 . S
C417 C416 1.387 . S
C417 C419 1.387 . S
H418 C425 0.950 . S
C419 C417 1.387 . S
C419 C421 1.390 . S
C419 H423 0.950 . S
H420 C416 0.950 . S
C421 C419 1.390 . S
C421 C422 1.387 . S
C421 H424 0.950 . S
C422 C421 1.387 . S
C422 C425 1.387 . S
H423 C419 0.950 . S
H424 C421 0.950 . S
C425 C416 1.390 . S
C425 H418 0.950 . S
C425 C422 1.387 . S
C426 C427 1.387 1_565 S
C426 H430 0.950 . S
C426 C435 1.390 . S
C427 C426 1.387 1_545 S
C427 C429 1.387 . S
H428 C435 0.950 . S
C429 C427 1.387 . S
C429 C431 1.390 . S
C429 H433 0.950 . S
H430 C426 0.950 . S
C431 C429 1.390 . S
C431 C432 1.387 . S
C431 H434 0.950 . S
C432 C431 1.387 . S
C432 C435 1.387 1_545 S
H433 C429 0.950 . S
H434 C431 0.950 . S
C435 C426 1.390 . S
C435 H428 0.950 . S
C435 C432 1.387 1_565 S
C436 C437 1.387 . S
C436 H440 0.950 . S
C436 C445 1.390 . S
C437 C436 1.387 . S
C437 C439 1.387 . S
H438 C445 0.950 . S
C439 C437 1.387 . S
C439 C441 1.390 . S
C439 H443 0.950 . S
H440 C436 0.950 . S
C441 C439 1.390 . S
C441 C442 1.387 . S
C441 H444 0.950 . S
C442 C441 1.387 . S
C442 C445 1.387 . S
H443 C439 0.950 . S
H444 C441 0.950 . S
C445 C436 1.390 . S
C445 H438 0.950 . S
C445 C442 1.387 . S
C446 C447 1.387 1_455 S
C446 H450 0.950 . S
C446 C455 1.390 . S
C447 C446 1.387 1_655 S
C447 C449 1.387 . S
H448 C455 0.950 . S
C449 C447 1.387 . S
C449 C451 1.390 . S
C449 H453 0.950 . S
H450 C446 0.950 . S
C451 C449 1.390 . S
C451 C452 1.387 1_655 S
C451 H454 0.950 . S
C452 C451 1.387 1_455 S
C452 C455 1.388 . S
H453 C449 0.950 . S
H454 C451 0.950 . S
C455 C446 1.390 . S
C455 H448 0.950 . S
C455 C452 1.388 . S
C277 C2 1.457 . S
C282 C265 1.498 . S
C287 C22 1.431 . S
C292 C193 1.493 . S
C297 C44 1.498 . S
C302 C229 1.531 . S
C307 C4 1.629 . S
C312 C241 1.694 . S
C322 C169 1.714 . S
C317 C24 1.668 . S
C332 C205 1.661 . S
C327 C42 1.584 . S
C337 C32 1.429 . S
C342 C121 1.383 . S
C347 C49 1.375 . S
C352 C133 1.364 . S
C357 C9 1.364 . S
C362 C61 1.357 . S
C372 C97 1.378 . S
C367 C29 1.319 . S
C382 C157 1.354 . S
C377 C52 1.351 . S
C387 C12 1.339 . S
C392 C85 1.340 . S
C402 C163 1.437 . S
C397 C18 1.441 1_455 S
C407 C38 1.431 . S
C412 C91 1.435 . S
C417 C58 1.423 . S
C422 C127 1.449 . S
C432 C235 1.506 . S
C427 C39 1.496 . S
C442 C271 1.497 . S
C437 C59 1.476 . S
C447 C19 1.479 1_655 S
C452 C199 1.498 . S
