# Generated by pormake.
# Topology pth, (4,4)-cn, num edge types: 1
# Building blocks:
#     Node 0, Type 0, BuildingBlock: NAHDIM_clean_sbu_0, # of connection points: 4
#     Node 1, Type 0, BuildingBlock: NAHDIM_clean_sbu_0, # of connection points: 4
#     Node 2, Type 0, BuildingBlock: NAHDIM_clean_sbu_0, # of connection points: 4
#     Node 3, Type 1, BuildingBlock: NAWXER_clean_linker_0, # of connection points: 4
#     Node 4, Type 1, BuildingBlock: NAWXER_clean_linker_0, # of connection points: 4
#     Node 5, Type 1, BuildingBlock: NAWXER_clean_linker_0, # of connection points: 4
#     Edge 6, Type (0, 1), BuildingBlock: EZIPEK_clean_linker_0, # of connection points: 2
#     Edge 7, Type (0, 1), BuildingBlock: EZIPEK_clean_linker_0, # of connection points: 2
#     Edge 8, Type (0, 1), BuildingBlock: EZIPEK_clean_linker_0, # of connection points: 2
#     Edge 9, Type (0, 1), BuildingBlock: EZIPEK_clean_linker_0, # of connection points: 2
#     Edge 10, Type (0, 1), BuildingBlock: EZIPEK_clean_linker_0, # of connection points: 2
#     Edge 11, Type (0, 1), BuildingBlock: EZIPEK_clean_linker_0, # of connection points: 2
#     Edge 12, Type (0, 1), BuildingBlock: EZIPEK_clean_linker_0, # of connection points: 2
#     Edge 13, Type (0, 1), BuildingBlock: EZIPEK_clean_linker_0, # of connection points: 2
#     Edge 14, Type (0, 1), BuildingBlock: EZIPEK_clean_linker_0, # of connection points: 2
#     Edge 15, Type (0, 1), BuildingBlock: EZIPEK_clean_linker_0, # of connection points: 2
#     Edge 16, Type (0, 1), BuildingBlock: EZIPEK_clean_linker_0, # of connection points: 2
#     Edge 17, Type (0, 1), BuildingBlock: EZIPEK_clean_linker_0, # of connection points: 2
# Relax obj value: 0.041
# Max RMSD: 0.166
# Mean RMSD: 0.084
data_MOF--net-pth--node1-NAHDIM_clean_sbu_0--node2-NAWXER_clean_linker_0--edge1-EZIPEK_clean_linker_0
_symmetry_space_group_name_H-M    P1
_symmetry_Int_Tables_number       1
_symmetry_cell_setting            triclinic
loop_
_symmetry_equiv_pos_as_xyz
'x, y, z'
_cell_length_a     22.596498
_cell_length_b     22.718209
_cell_length_c     50.094341
_cell_angle_alpha  92.087437
_cell_angle_beta   90.019692
_cell_angle_gamma 120.63285
loop_
_atom_site_label
_atom_site_type_symbol
_atom_site_fract_x
_atom_site_fract_y
_atom_site_fract_z
_atom_type_partial_charge
C0 C 0.04536 0.99166 0.09031 0.0
O1 O 0.04368 0.0432 0.10224 0.0
O2 O 0.00155 0.10642 0.06489 0.0
Zn3 Zn 0.01738 0.04134 0.04218 0.0
O4 O 0.93358 0.97556 0.02013 0.0
C5 C 0.0802 0.13525 0.00235 0.0
O6 O 0.01963 0.13002 0.00313 0.0
O7 O 0.03941 0.98359 0.06503 0.0
C8 C 0.94329 0.95076 -0.00145 0.0
O9 O 0.00647 0.97094 0.99131 0.0
C10 C 0.94697 0.09317 0.07691 0.0
O11 O 0.89249 0.03138 0.07487 0.0
O12 O 0.09368 0.10007 0.01771 0.0
C13 C 0.06523 0.15421 0.32191 0.0
O14 O 0.05518 0.09816 0.30927 0.0
O15 O 0.03182 -0.00166 0.34477 0.0
Zn16 Zn 0.04997 0.07844 0.36892 0.0
O17 O 0.96724 0.05672 0.39076 0.0
C18 C 0.17557 0.08731 0.38598 0.0
O19 O 0.17672 0.06849 0.36098 0.0
O20 O 0.06931 0.15901 0.34728 0.0
C21 C 0.96646 0.0495 0.41582 0.0
O22 O 0.01922 0.05195 0.42795 0.0
C23 C 0.98343 0.9371 0.3473 0.0
O24 O 0.93871 0.92255 0.36636 0.0
O25 O 0.12854 0.09861 0.39355 0.0
C26 C 0.10934 0.03172 0.66302 0.0
O27 O 0.1021 0.08558 0.66382 0.0
O28 O 0.94879 0.01252 0.67859 0.0
Zn29 Zn 0.01155 -0.00234 0.70253 0.0
O30 O 0.07246 0.07985 0.72676 0.0
C31 C 0.92956 0.92395 0.74595 0.0
O32 O 0.94439 0.98595 0.7536 0.0
O33 O 0.07383 0.98296 0.67833 0.0
C34 C 0.06306 0.12892 0.73344 0.0
O35 O 0.00941 0.13009 0.72411 0.0
C36 C 0.89453 0.01175 0.68584 0.0
O37 O 0.8766 0.00304 0.71095 0.0
O38 O 0.95532 0.91542 0.72466 0.0
C39 C 0.98813 0.33255 0.24351 0.0
C40 C 0.04532 0.35423 0.26064 0.0
C41 C 0.98091 0.3803 0.22923 0.0
C42 C 0.03137 0.45014 0.23166 0.0
C43 C 0.09532 0.42393 0.2633 0.0
C44 C 0.08823 0.47159 0.24897 0.0
C45 C 0.02438 0.50191 0.21728 0.0
C46 C 0.0384 0.36051 0.15602 0.0
C47 C 0.97859 0.32528 0.13991 0.0
C48 C 0.05071 0.41778 0.17181 0.0
C49 C 0.00286 0.43987 0.17189 0.0
C50 C 0.93168 0.34831 0.13944 0.0
C51 C 0.94395 0.40549 0.15523 0.0
C52 C 0.01287 0.49814 0.18936 0.0
C53 C 0.07677 0.78489 0.17156 0.0
C54 C 0.03169 0.77238 0.15005 0.0
C55 C 0.07147 0.7304 0.18551 0.0
C56 C 0.02035 0.66261 0.17837 0.0
C57 C 0.98118 0.70486 0.14262 0.0
C58 C 0.97579 0.65027 0.1566 0.0
C59 C 0.01604 0.60462 0.19261 0.0
C60 C 0.94896 0.70618 0.25359 0.0
C61 C -0.00185 0.74335 0.27393 0.0
C62 C 0.95758 0.66243 0.23588 0.0
C63 C 0.01507 0.6546 0.23848 0.0
C64 C 0.05569 0.73562 0.27654 0.0
C65 C 0.06364 0.69082 0.25911 0.0
C66 C 0.02192 0.60538 0.22067 0.0
H67 H 0.94882 0.27887 0.24148 0.0
H68 H 0.93567 0.3628 0.21656 0.0
H69 H 0.13942 0.44135 0.27662 0.0
H70 H 0.12731 0.52531 0.25133 0.0
H71 H 0.07528 0.34349 0.1564 0.0
H72 H 0.09722 0.44445 0.18409 0.0
H73 H 0.88546 0.3217 0.12699 0.0
H74 H 0.90667 0.42203 0.15489 0.0
H75 H 0.11623 0.83677 0.17741 0.0
H76 H 0.10806 0.74127 0.20161 0.0
H77 H 0.9461 0.69456 0.12598 0.0
H78 H 0.93657 0.59846 0.15054 0.0
H79 H 0.90405 0.71122 0.25143 0.0
H80 H 0.91872 0.63374 0.22043 0.0
H81 H 0.09402 0.76385 0.2922 0.0
H82 H 0.10789 0.68482 0.26158 0.0
N83 N 0.02759 0.555 0.23191 0.0
N84 N 0.00998 0.55012 0.17803 0.0
C85 C 0.76401 0.08562 0.50048 0.0
C86 C 0.74739 0.03748 0.47923 0.0
C87 C 0.7119 0.08662 0.51509 0.0
C88 C 0.64251 0.03883 0.50883 0.0
C89 C 0.67827 0.9898 0.47291 0.0
C90 C 0.62615 0.99066 0.48756 0.0
C91 C 0.58661 0.04139 0.5231 0.0
C92 C 0.69476 0.98824 0.5849 0.0
C93 C 0.7226 0.03572 0.60663 0.0
C94 C 0.65032 0.99192 0.56655 0.0
C95 C 0.634 0.04378 0.56954 0.0
C96 C 0.7063 0.08737 0.6097 0.0
C97 C 0.66208 0.0912 0.59132 0.0
C98 C 0.5842 0.04639 0.55122 0.0
C99 C 0.30185 0.99403 0.57101 0.0
C100 C 0.31601 0.04088 0.59255 0.0
C101 C 0.35543 -0.00143 0.55559 0.0
C102 C 0.4238 0.04993 0.56159 0.0
C103 C 0.38411 0.09288 0.59825 0.0
C104 C 0.43768 0.09698 0.58302 0.0
C105 C 0.48142 0.05088 0.54734 0.0
C106 C 0.37854 0.11205 0.48662 0.0
C107 C 0.35108 0.06689 0.46422 0.0
C108 C 0.42099 0.10502 0.50492 0.0
C109 C 0.436 0.0524 0.50109 0.0
C110 C 0.36598 0.01444 0.46031 0.0
C111 C 0.40855 0.00752 0.47854 0.0
C112 C 0.48445 0.04708 0.51925 0.0
H113 H 0.81724 0.12321 0.50536 0.0
H114 H 0.7258 0.12559 0.53087 0.0
H115 H 0.66479 0.95272 0.4564 0.0
H116 H 0.57298 0.95385 0.48222 0.0
H117 H 0.70648 0.9477 0.58246 0.0
H118 H 0.62769 0.95348 0.55039 0.0
H119 H 0.72712 0.12407 0.6265 0.0
H120 H 0.64956 0.13111 0.59416 0.0
H121 H 0.24956 0.95331 0.56651 0.0
H122 H 0.34369 0.96069 0.53955 0.0
H123 H 0.39582 0.12927 0.61488 0.0
H124 H 0.49011 0.1365 0.58813 0.0
H125 H 0.36757 0.15294 0.48978 0.0
H126 H 0.44323 0.14158 0.5217 0.0
H127 H 0.34506 0.97928 0.44305 0.0
H128 H 0.42009 0.9671 0.47505 0.0
N129 N 0.5366 0.04188 0.50823 0.0
N130 N 0.53171 0.05099 0.56222 0.0
C131 C 0.29568 0.3127 0.82616 0.0
C132 C 0.26862 0.33449 0.80618 0.0
C133 C 0.3493 0.36075 0.84296 0.0
C134 C 0.3757 0.43115 0.8402 0.0
C135 C 0.29477 0.40459 0.80337 0.0
C136 C 0.34812 0.4526 0.82022 0.0
C137 C 0.43528 0.48306 0.85653 0.0
C138 C 0.26643 0.36629 0.91494 0.0
C139 C 0.28404 0.33225 0.93333 0.0
C140 C 0.31675 0.41509 0.89883 0.0
C141 C 0.3851 0.43003 0.90088 0.0
C142 C 0.35226 0.34735 0.93545 0.0
C143 C 0.40252 0.39625 0.91947 0.0
C144 C 0.43967 0.4825 0.88464 0.0
C145 C 0.69527 0.75806 0.91003 0.0
C146 C 0.71631 0.74128 0.93347 0.0
C147 C 0.64104 0.70718 0.8943 0.0
C148 C 0.60897 0.63809 0.90104 0.0
C149 C 0.68258 0.67287 0.94088 0.0
C150 C 0.62973 0.6217 0.92472 0.0
C151 C 0.55103 0.58313 0.88467 0.0
C152 C 0.72654 0.67683 0.82811 0.0
C153 C 0.71853 0.71674 0.80933 0.0
C154 C 0.67105 0.63271 0.84355 0.0
C155 C 0.60681 0.62753 0.84018 0.0
C156 C 0.65401 0.71062 0.80566 0.0
C157 C 0.59831 0.66573 0.82078 0.0
C158 C 0.54803 0.58137 0.85646 0.0
H159 H 0.27636 0.25864 0.82832 0.0
H160 H 0.37113 0.34292 0.85764 0.0
H161 H 0.27457 0.42203 0.78788 0.0
H162 H 0.36825 0.50662 0.81755 0.0
H163 H 0.21397 0.3554 0.91326 0.0
H164 H 0.3025 0.44164 0.88504 0.0
H165 H 0.36657 0.32163 0.94964 0.0
H166 H 0.45505 0.40744 0.92148 0.0
H167 H 0.72023 0.8107 0.90414 0.0
H168 H 0.62387 0.72233 0.87708 0.0
H169 H 0.69782 0.65907 0.95903 0.0
H170 H 0.6052 0.56916 0.93071 0.0
H171 H 0.77585 0.6805 0.83098 0.0
H172 H 0.67818 0.60258 0.85809 0.0
H173 H 0.64693 0.74079 0.79112 0.0
H174 H 0.54894 0.66187 0.81775 0.0
N175 N 0.48987 0.53233 0.84353 0.0
N176 N 0.49711 0.53278 0.89758 0.0
C177 C 0.93749 0.1446 0.12086 0.0
C178 C 0.94594 0.14882 0.09278 0.0
C179 C 0.97654 0.26903 0.09564 0.0
C180 C 0.965 0.2639 0.1235 0.0
N181 N 0.92144 0.19427 0.16193 0.0
N182 N 0.95756 0.209 0.05266 0.0
C183 C 0.9413 0.20076 0.1359 0.0
C184 C 0.96068 0.20933 0.07993 0.0
N185 N 0.92954 0.08861 0.13338 0.0
N186 N 0.00502 0.3314 0.08437 0.0
H187 H 0.94435 0.16552 0.04055 0.0
H188 H 0.96123 0.24941 0.04215 0.0
H189 H 0.01691 0.37633 0.09519 0.0
H190 H 0.02195 0.33965 0.06479 0.0
H191 H 0.93152 0.08621 0.15406 0.0
H192 H 0.92608 0.0462 0.12315 0.0
H193 H 0.89684 0.14766 0.17124 0.0
H194 H 0.92425 0.23459 0.17364 0.0
C195 C 0.87125 0.989 0.44813 0.0
C196 C 0.90941 0.04533 0.43168 0.0
C197 C 0.83589 0.09169 0.44415 0.0
C198 C 0.80254 0.03937 0.46266 0.0
N199 N 0.7943 0.94377 0.48538 0.0
N200 N 0.93738 0.15761 0.41815 0.0
C201 C 0.82182 0.98946 0.46554 0.0
C202 C 0.8942 0.09866 0.43071 0.0
N203 N 0.88035 0.93392 0.44637 0.0
N204 N 0.81088 0.13377 0.43893 0.0
H205 H 0.98206 0.16609 0.40875 0.0
H206 H 0.9327 0.20093 0.41931 0.0
H207 H 0.76828 0.13046 0.44844 0.0
H208 H 0.82847 0.16778 0.42347 0.0
H209 H 0.84901 0.88837 0.45579 0.0
H210 H 0.91533 0.93129 0.43353 0.0
H211 H 0.81184 0.91106 0.49034 0.0
H212 H 0.75756 0.94231 0.49838 0.0
C213 C 0.82251 0.80744 0.74925 0.0
C214 C 0.88079 0.86515 0.76173 0.0
C215 C 0.83348 0.82466 0.80576 0.0
C216 C 0.77745 0.76522 0.79331 0.0
N217 N 0.72861 0.69121 0.75388 0.0
N218 N 0.95075 0.91761 0.80167 0.0
C219 C 0.77532 0.75373 0.76524 0.0
C220 C 0.88911 0.87026 0.78996 0.0
N221 N 0.80924 0.80548 0.7225 0.0
N222 N 0.83227 0.8395 0.83238 0.0
H223 H -0.00641 0.95009 0.79064 0.0
H224 H 0.96155 0.91941 0.82201 0.0
H225 H 0.79194 0.8082 0.84467 0.0
H226 H 0.86837 0.88597 0.84174 0.0
H227 H 0.76327 0.76823 0.71325 0.0
H228 H 0.84069 0.84413 0.70986 0.0
H229 H 0.72927 0.67789 0.7338 0.0
H230 H 0.69371 0.6504 0.76507 0.0
C231 C 0.98773 0.90008 0.12344 0.0
C232 C 0.04369 0.93738 0.10629 0.0
C233 C 0.0896 0.86336 0.11649 0.0
C234 C 0.03699 0.83026 0.13537 0.0
N235 N 0.94401 0.82541 0.16071 0.0
N236 N 0.15379 0.96239 0.08955 0.0
C237 C 0.98851 0.85124 0.14006 0.0
C238 C 0.09637 0.92121 0.10364 0.0
N239 N 0.93188 0.90835 0.12277 0.0
N240 N 0.13172 0.83824 0.11028 0.0
H241 H 0.16058 0.0054 0.08 0.0
H242 H 0.19717 0.95751 0.08921 0.0
H243 H 0.12868 0.79633 0.11946 0.0
H244 H 0.166 0.85541 0.09459 0.0
H245 H 0.88666 0.87735 0.13279 0.0
H246 H 0.92772 0.94142 0.11005 0.0
H247 H 0.91269 0.84442 0.1669 0.0
H248 H 0.94274 0.78912 0.17325 0.0
C249 C 0.19154 0.03243 0.42549 0.0
C250 C 0.22091 0.08335 0.40615 0.0
C251 C 0.33636 0.12137 0.42404 0.0
C252 C 0.3064 0.07426 0.44467 0.0
N253 N 0.20593 0.99302 0.46797 0.0
N254 N 0.3194 0.18237 0.38885 0.0
C255 C 0.23404 0.03224 0.44629 0.0
C256 C 0.29291 0.12952 0.40588 0.0
N257 N 0.12372 0.98213 0.42321 0.0
N258 N 0.40622 0.15691 0.42141 0.0
H259 H 0.28899 0.18954 0.3752 0.0
H260 H 0.37047 0.22208 0.38962 0.0
H261 H 0.43972 0.15333 0.43469 0.0
H262 H 0.43083 0.18617 0.40508 0.0
H263 H 0.10133 0.93953 0.435 0.0
H264 H 0.09097 0.97926 0.40789 0.0
H265 H 0.15348 0.96725 0.47175 0.0
H266 H 0.23555 0.99075 0.48344 0.0
C267 C 0.18308 0.22467 0.74315 0.0
C268 C 0.11401 0.18522 0.75141 0.0
C269 C 0.14501 0.24992 0.79444 0.0
C270 C 0.21509 0.28386 0.7872 0.0
N271 N 0.30293 0.29854 0.75626 0.0
N272 N 0.02957 0.15408 0.78582 0.0
C273 C 0.23475 0.26993 0.76196 0.0
C274 C 0.09482 0.19646 0.77724 0.0
N275 N 0.19877 0.22068 0.71703 0.0
N276 N 0.12642 0.26964 0.81753 0.0
H277 H 0.99105 0.11488 0.77377 0.0
H278 H 0.01474 0.1544 0.80548 0.0
H279 H 0.16207 0.30762 0.83087 0.0
H280 H 0.07557 0.25227 0.82252 0.0
H281 H 0.24678 0.25318 0.70913 0.0
H282 H 0.16189 0.18919 0.70254 0.0
H283 H 0.32061 0.28418 0.7395 0.0
H284 H 0.34241 0.33301 0.76933 0.0
C285 C 0.87938 0.07515 0.64892 0.0
C286 C 0.85048 0.01842 0.66573 0.0
C287 C 0.7366 0.97721 0.64547 0.0
C288 C 0.7668 0.02975 0.62689 0.0
N289 N 0.86821 0.1221 0.60782 0.0
N290 N 0.75431 0.90776 0.67619 0.0
C291 C 0.83865 0.07686 0.62769 0.0
C292 C 0.77974 0.96735 0.66304 0.0
N293 N 0.94464 0.12884 0.65392 0.0
N294 N 0.66659 0.93779 0.64682 0.0
H295 H 0.78445 0.89728 0.68862 0.0
H296 H 0.70501 0.86585 0.67269 0.0
H297 H 0.63308 0.94326 0.63423 0.0
H298 H 0.64176 0.90391 0.66196 0.0
H299 H 0.96568 0.17459 0.64405 0.0
H300 H 0.97564 0.13056 0.6697 0.0
H301 H 0.92121 0.15255 0.60575 0.0
H302 H 0.83989 0.12502 0.59199 0.0
C303 C 0.8848 0.83731 0.97319 0.0
C304 C 0.88431 0.89699 0.98231 0.0
C305 C 0.76918 0.84995 0.96237 0.0
C306 C 0.7742 0.79529 0.95019 0.0
N307 N 0.84474 0.74641 0.93914 0.0
N308 N 0.83169 0.9666 0.98039 0.0
C309 C 0.83441 0.79173 0.95414 0.0
C310 C 0.82802 0.90524 0.97551 0.0
N311 N 0.93104 0.82203 0.98364 0.0
N312 N 0.70782 0.84819 0.96219 0.0
H313 H 0.87506 0.00957 0.98883 0.0
H314 H 0.79457 0.97692 0.97342 0.0
H315 H 0.66294 0.80762 0.95345 0.0
H316 H 0.7 0.88356 0.97305 0.0
H317 H 0.92904 0.77582 0.97931 0.0
H318 H 0.96608 0.85148 -0.00102 0.0
H319 H 0.89098 0.74664 0.93956 0.0
H320 H 0.81013 0.71356 0.92427 0.0
C321 C 0.98165 0.82643 0.33856 0.0
C322 C 0.97901 0.88285 0.3287 0.0
C323 C 0.992 0.84957 0.28305 0.0
C324 C 0.98928 0.79028 0.29266 0.0
N325 N 0.96453 0.71364 0.32863 0.0
N326 N 0.96284 0.93728 0.29122 0.0
C327 C 0.97879 0.77597 0.32016 0.0
C328 C 0.97845 0.89113 0.3008 0.0
N329 N 0.99068 0.82272 0.36531 0.0
N330 N 0.01034 0.86792 0.25733 0.0
H331 H 0.94953 0.96636 0.30368 0.0
H332 H 0.95563 0.9411 0.27096 0.0
H333 H 0.02237 0.83982 0.24378 0.0
H334 H 0.01996 0.91446 0.25021 0.0
H335 H 0.00055 0.78663 0.37313 0.0
H336 H -0.00532 0.8593 0.37952 0.0
H337 H 0.94971 0.69809 0.34802 0.0
H338 H 0.96084 0.67488 0.31565 0.0
C339 C 0.21212 0.01917 0.65477 0.0
C340 C 0.15925 0.02902 0.64465 0.0
C341 C 0.21055 0.04921 0.60037 0.0
C342 C 0.26003 0.03397 0.61003 0.0
N343 N 0.29822 0.98887 0.64461 0.0
N344 N 0.09898 0.03781 0.6066 0.0
C345 C 0.25777 0.01406 0.6367 0.0
C346 C 0.15576 0.03952 0.61706 0.0
N347 N 0.22136 0.01852 0.68172 0.0
N348 N 0.21722 0.0753 0.57565 0.0
H349 H 0.0568 0.02876 0.61804 0.0
H350 H 0.09064 0.03836 0.58618 0.0
H351 H 0.25684 0.08342 0.56284 0.0
H352 H 0.18697 0.09435 0.56879 0.0
H353 H 0.26371 0.01896 0.69018 0.0
H354 H 0.19064 0.02437 0.69582 0.0
H355 H 0.2935 0.96705 0.663 0.0
H356 H 0.33182 0.98359 0.63183 0.0
C357 C 0.18567 0.24876 0.99577 0.0
C358 C 0.13314 0.18473 0.98474 0.0
C359 C 0.18199 0.21569 0.94025 0.0
C360 C 0.23136 0.28162 0.95092 0.0
N361 N 0.27402 0.36563 0.9876 0.0
N362 N 0.0742 0.11007 0.94629 0.0
C363 C 0.23167 0.29946 0.97839 0.0
C364 C 0.12911 0.16904 0.95689 0.0
N365 N 0.19166 0.26102 0.02286 0.0
N366 N 0.18714 0.19688 0.9145 0.0
H367 H 0.03552 0.07364 0.95793 0.0
H368 H 0.06422 0.09941 0.92585 0.0
H369 H 0.22506 0.22977 0.90167 0.0
H370 H 0.15741 0.14716 0.90643 0.0
H371 H 0.23351 0.30337 0.03232 0.0
H372 H 0.15699 0.22647 0.03619 0.0
H373 H 0.27149 0.38372 0.00671 0.0
H374 H 0.30815 0.40433 0.97543 0.0
C375 C 0.0099 0.22306 0.3125 0.0
C376 C 0.06202 0.20728 0.30683 0.0
C377 C 0.09944 0.28368 0.2693 0.0
C378 C 0.05167 0.30408 0.27662 0.0
N379 N 0.97064 0.30351 0.30811 0.0
N380 N 0.16373 0.23051 0.28285 0.0
C381 C 0.00968 0.27689 0.29913 0.0
C382 C 0.10888 0.23977 0.28602 0.0
N383 N 0.95832 0.18427 0.32954 0.0
N384 N 0.13424 0.30466 0.24598 0.0
H385 H 0.17275 0.19937 0.29496 0.0
H386 H 0.20358 0.25831 0.26985 0.0
H387 H 0.12883 0.3371 0.23328 0.0
H388 H 0.1641 0.28557 0.23811 0.0
H389 H 0.91513 0.18894 0.33211 0.0
H390 H 0.95478 0.14267 0.33913 0.0
H391 H 0.945 0.29089 0.32616 0.0
H392 H 0.96877 0.34284 0.29876 0.0
loop_
_geom_bond_atom_site_label_1
_geom_bond_atom_site_label_2
_geom_bond_distance
_geom_bond_site_symmetry_2
_ccdc_geom_bond_type
C0 O1 1.160 . S
C0 O7 1.185 . S
O1 C0 1.160 . S
O2 Zn3 1.899 . S
O2 C10 1.284 1_455 S
Zn3 O2 1.899 . S
Zn3 O4 2.032 1_445 S
Zn3 O7 2.086 1_545 S
Zn3 O12 1.977 . S
O4 Zn3 2.032 1_665 S
O4 C8 1.278 . S
C5 O6 1.203 . S
C5 O12 1.267 . S
O6 C5 1.203 . S
O7 C0 1.185 . S
O7 Zn3 2.086 1_565 S
C8 O4 1.278 . S
C8 O9 1.211 1_564 S
O9 C8 1.211 1_546 S
C10 O2 1.284 1_655 S
C10 O11 1.273 . S
O11 C10 1.273 . S
O12 Zn3 1.977 . S
O12 C5 1.267 . S
C13 O14 1.160 . S
C13 O20 1.185 . S
O14 C13 1.160 . S
O15 Zn16 1.899 . S
O15 C23 1.284 1_545 S
Zn16 O15 1.899 . S
Zn16 O17 2.032 1_455 S
Zn16 O20 2.086 . S
Zn16 O25 1.977 . S
O17 Zn16 2.032 1_655 S
O17 C21 1.278 . S
C18 O19 1.203 . S
C18 O25 1.267 . S
O19 C18 1.203 . S
O20 C13 1.185 . S
O20 Zn16 2.086 . S
C21 O17 1.278 . S
C21 O22 1.211 . S
O22 C21 1.211 . S
C23 O15 1.284 1_565 S
C23 O24 1.273 1_455 S
O24 C23 1.273 1_655 S
O25 Zn16 1.977 . S
O25 C18 1.267 . S
C26 O27 1.160 . S
C26 O33 1.185 1_545 S
O27 C26 1.160 . S
O28 Zn29 1.899 1_655 S
O28 C36 1.284 . S
Zn29 O28 1.899 1_455 S
Zn29 O30 2.032 . S
Zn29 O33 2.086 1_545 S
Zn29 O38 1.977 1_445 S
O30 Zn29 2.032 . S
O30 C34 1.278 . S
C31 O32 1.203 . S
C31 O38 1.267 . S
O32 C31 1.203 . S
O33 C26 1.185 1_565 S
O33 Zn29 2.086 1_565 S
C34 O30 1.278 . S
C34 O35 1.211 . S
O35 C34 1.211 . S
C36 O28 1.284 . S
C36 O37 1.273 . S
O37 C36 1.273 . S
O38 Zn29 1.977 1_665 S
O38 C31 1.267 . S
C39 C40 1.384 1_655 S
C39 C41 1.384 . S
C39 H67 0.931 . S
C40 C39 1.384 1_455 S
C40 C43 1.382 . S
C41 C39 1.384 . S
C41 C42 1.381 1_655 S
C41 H68 0.930 . S
C42 C41 1.381 1_455 S
C42 C44 1.381 . S
C42 C45 1.487 . S
C43 C40 1.382 . S
C43 C44 1.387 . S
C43 H69 0.930 . S
C44 C42 1.381 . S
C44 C43 1.387 . S
C44 H70 0.931 . S
C45 C42 1.487 . S
C45 C52 1.399 . S
C45 N83 1.343 . S
C46 C47 1.384 . S
C46 C48 1.384 . S
C46 H71 0.931 . S
C47 C46 1.384 . S
C47 C50 1.382 1_455 S
C48 C46 1.384 . S
C48 C49 1.381 . S
C48 H72 0.930 . S
C49 C48 1.381 . S
C49 C51 1.381 1_455 S
C49 C52 1.487 . S
C50 C47 1.382 1_655 S
C50 C51 1.387 . S
C50 H73 0.930 . S
C51 C49 1.381 1_655 S
C51 C50 1.387 . S
C51 H74 0.931 . S
C52 C45 1.399 . S
C52 C49 1.487 . S
C52 N84 1.343 . S
C53 C54 1.384 . S
C53 C55 1.384 . S
C53 H75 0.931 . S
C54 C53 1.384 . S
C54 C57 1.382 1_455 S
C55 C53 1.384 . S
C55 C56 1.381 . S
C55 H76 0.930 . S
C56 C55 1.381 . S
C56 C58 1.381 1_455 S
C56 C59 1.487 . S
C57 C54 1.382 1_655 S
C57 C58 1.387 . S
C57 H77 0.930 . S
C58 C56 1.381 1_655 S
C58 C57 1.387 . S
C58 H78 0.931 . S
C59 C56 1.487 . S
C59 C66 1.399 . S
C59 N84 1.343 . S
C60 C61 1.384 1_655 S
C60 C62 1.384 . S
C60 H79 0.931 . S
C61 C60 1.384 1_455 S
C61 C64 1.382 . S
C62 C60 1.384 . S
C62 C63 1.381 1_655 S
C62 H80 0.930 . S
C63 C62 1.381 1_455 S
C63 C65 1.381 . S
C63 C66 1.487 . S
C64 C61 1.382 . S
C64 C65 1.387 . S
C64 H81 0.930 . S
C65 C63 1.381 . S
C65 C64 1.387 . S
C65 H82 0.931 . S
C66 C59 1.399 . S
C66 C63 1.487 . S
C66 N83 1.343 . S
H67 C39 0.931 . S
H68 C41 0.930 . S
H69 C43 0.930 . S
H70 C44 0.931 . S
H71 C46 0.931 . S
H72 C48 0.930 . S
H73 C50 0.930 . S
H74 C51 0.931 . S
H75 C53 0.931 . S
H76 C55 0.930 . S
H77 C57 0.930 . S
H78 C58 0.931 . S
H79 C60 0.931 . S
H80 C62 0.930 . S
H81 C64 0.930 . S
H82 C65 0.931 . S
N83 C45 1.343 . S
N83 C66 1.343 . S
N84 C52 1.343 . S
N84 C59 1.343 . S
C85 C86 1.384 . S
C85 C87 1.384 . S
C85 H113 0.931 . S
C86 C85 1.384 . S
C86 C89 1.382 1_545 S
C87 C85 1.384 . S
C87 C88 1.381 . S
C87 H114 0.930 . S
C88 C87 1.381 . S
C88 C90 1.381 1_545 S
C88 C91 1.487 . S
C89 C86 1.382 1_565 S
C89 C90 1.387 . S
C89 H115 0.930 . S
C90 C88 1.381 1_565 S
C90 C89 1.387 . S
C90 H116 0.931 . S
C91 C88 1.487 . S
C91 C98 1.399 . S
C91 N129 1.343 . S
C92 C93 1.384 1_565 S
C92 C94 1.384 . S
C92 H117 0.931 . S
C93 C92 1.384 1_545 S
C93 C96 1.382 . S
C94 C92 1.384 . S
C94 C95 1.381 1_565 S
C94 H118 0.930 . S
C95 C94 1.381 1_545 S
C95 C97 1.381 . S
C95 C98 1.487 . S
C96 C93 1.382 . S
C96 C97 1.387 . S
C96 H119 0.930 . S
C97 C95 1.381 . S
C97 C96 1.387 . S
C97 H120 0.931 . S
C98 C91 1.399 . S
C98 C95 1.487 . S
C98 N130 1.343 . S
C99 C100 1.384 1_565 S
C99 C101 1.384 . S
C99 H121 0.931 . S
C100 C99 1.384 1_545 S
C100 C103 1.382 . S
C101 C99 1.384 . S
C101 C102 1.381 1_565 S
C101 H122 0.930 . S
C102 C101 1.381 1_545 S
C102 C104 1.381 . S
C102 C105 1.487 . S
C103 C100 1.382 . S
C103 C104 1.387 . S
C103 H123 0.930 . S
C104 C102 1.381 . S
C104 C103 1.387 . S
C104 H124 0.931 . S
C105 C102 1.487 . S
C105 C112 1.399 . S
C105 N130 1.343 . S
C106 C107 1.384 . S
C106 C108 1.384 . S
C106 H125 0.931 . S
C107 C106 1.384 . S
C107 C110 1.382 1_545 S
C108 C106 1.384 . S
C108 C109 1.381 . S
C108 H126 0.930 . S
C109 C108 1.381 . S
C109 C111 1.381 1_545 S
C109 C112 1.487 . S
C110 C107 1.382 1_565 S
C110 C111 1.387 . S
C110 H127 0.930 . S
C111 C109 1.381 1_565 S
C111 C110 1.387 . S
C111 H128 0.931 . S
C112 C105 1.399 . S
C112 C109 1.487 . S
C112 N129 1.343 . S
H113 C85 0.931 . S
H114 C87 0.930 . S
H115 C89 0.930 . S
H116 C90 0.931 . S
H117 C92 0.931 . S
H118 C94 0.930 . S
H119 C96 0.930 . S
H120 C97 0.931 . S
H121 C99 0.931 . S
H122 C101 0.930 . S
H123 C103 0.930 . S
H124 C104 0.931 . S
H125 C106 0.931 . S
H126 C108 0.930 . S
H127 C110 0.930 . S
H128 C111 0.931 . S
N129 C91 1.343 . S
N129 C112 1.343 . S
N130 C98 1.343 . S
N130 C105 1.343 . S
C131 C132 1.384 . S
C131 C133 1.384 . S
C131 H159 0.931 . S
C132 C131 1.384 . S
C132 C135 1.382 . S
C133 C131 1.384 . S
C133 C134 1.381 . S
C133 H160 0.930 . S
C134 C133 1.381 . S
C134 C136 1.381 . S
C134 C137 1.487 . S
C135 C132 1.382 . S
C135 C136 1.387 . S
C135 H161 0.930 . S
C136 C134 1.381 . S
C136 C135 1.387 . S
C136 H162 0.931 . S
C137 C134 1.487 . S
C137 C144 1.399 . S
C137 N175 1.343 . S
C138 C139 1.384 . S
C138 C140 1.384 . S
C138 H163 0.931 . S
C139 C138 1.384 . S
C139 C142 1.382 . S
C140 C138 1.384 . S
C140 C141 1.381 . S
C140 H164 0.930 . S
C141 C140 1.381 . S
C141 C143 1.381 . S
C141 C144 1.487 . S
C142 C139 1.382 . S
C142 C143 1.387 . S
C142 H165 0.930 . S
C143 C141 1.381 . S
C143 C142 1.387 . S
C143 H166 0.931 . S
C144 C137 1.399 . S
C144 C141 1.487 . S
C144 N176 1.343 . S
C145 C146 1.384 . S
C145 C147 1.384 . S
C145 H167 0.931 . S
C146 C145 1.384 . S
C146 C149 1.382 . S
C147 C145 1.384 . S
C147 C148 1.381 . S
C147 H168 0.930 . S
C148 C147 1.381 . S
C148 C150 1.381 . S
C148 C151 1.487 . S
C149 C146 1.382 . S
C149 C150 1.387 . S
C149 H169 0.930 . S
C150 C148 1.381 . S
C150 C149 1.387 . S
C150 H170 0.931 . S
C151 C148 1.487 . S
C151 C158 1.399 . S
C151 N176 1.343 . S
C152 C153 1.384 . S
C152 C154 1.384 . S
C152 H171 0.931 . S
C153 C152 1.384 . S
C153 C156 1.382 . S
C154 C152 1.384 . S
C154 C155 1.381 . S
C154 H172 0.930 . S
C155 C154 1.381 . S
C155 C157 1.381 . S
C155 C158 1.487 . S
C156 C153 1.382 . S
C156 C157 1.387 . S
C156 H173 0.930 . S
C157 C155 1.381 . S
C157 C156 1.387 . S
C157 H174 0.931 . S
C158 C151 1.399 . S
C158 C155 1.487 . S
C158 N175 1.343 . S
H159 C131 0.931 . S
H160 C133 0.930 . S
H161 C135 0.930 . S
H162 C136 0.931 . S
H163 C138 0.931 . S
H164 C140 0.930 . S
H165 C142 0.930 . S
H166 C143 0.931 . S
H167 C145 0.931 . S
H168 C147 0.930 . S
H169 C149 0.930 . S
H170 C150 0.931 . S
H171 C152 0.931 . S
H172 C154 0.930 . S
H173 C156 0.930 . S
H174 C157 0.931 . S
N175 C137 1.343 . S
N175 C158 1.343 . S
N176 C144 1.343 . S
N176 C151 1.343 . S
C177 C178 1.363 . S
C177 C183 1.379 . S
C177 N185 1.356 . S
C178 C177 1.363 . S
C178 C184 1.363 1_655 S
C179 C180 1.363 . S
C179 C184 1.379 . S
C179 N186 1.356 . S
C180 C179 1.363 . S
C180 C183 1.363 1_455 S
N181 C183 1.356 . S
N181 H193 0.984 . S
N181 H194 0.985 . S
N182 C184 1.356 . S
N182 H187 0.984 . S
N182 H188 0.985 . S
C183 C177 1.379 . S
C183 C180 1.363 1_655 S
C183 N181 1.356 . S
C184 C178 1.363 1_455 S
C184 C179 1.379 . S
C184 N182 1.356 . S
N185 C177 1.356 . S
N185 H191 0.984 . S
N185 H192 0.984 . S
N186 C179 1.356 . S
N186 H189 0.984 . S
N186 H190 0.985 . S
H187 N182 0.984 . S
H188 N182 0.985 . S
H189 N186 0.984 . S
H190 N186 0.985 . S
H191 N185 0.984 . S
H192 N185 0.984 . S
H193 N181 0.984 . S
H194 N181 0.985 . S
C195 C196 1.363 1_565 S
C195 C201 1.379 . S
C195 N203 1.356 . S
C196 C195 1.363 1_545 S
C196 C202 1.363 . S
C197 C198 1.363 . S
C197 C202 1.379 . S
C197 N204 1.356 . S
C198 C197 1.363 . S
C198 C201 1.363 1_545 S
N199 C201 1.356 . S
N199 H211 0.984 . S
N199 H212 0.985 . S
N200 C202 1.356 . S
N200 H205 0.984 . S
N200 H206 0.985 1_655 S
C201 C195 1.379 . S
C201 C198 1.363 1_565 S
C201 N199 1.356 . S
C202 C196 1.363 . S
C202 C197 1.379 . S
C202 N200 1.356 . S
N203 C195 1.356 . S
N203 H209 0.984 . S
N203 H210 0.984 . S
N204 C197 1.356 . S
N204 H207 0.984 . S
N204 H208 0.985 . S
H205 N200 0.984 . S
H206 N200 0.985 1_455 S
H207 N204 0.984 . S
H208 N204 0.985 . S
H209 N203 0.984 . S
H210 N203 0.984 . S
H211 N199 0.984 . S
H212 N199 0.985 . S
C213 C214 1.363 . S
C213 C219 1.379 . S
C213 N221 1.356 . S
C214 C213 1.363 . S
C214 C220 1.363 . S
C215 C216 1.363 . S
C215 C220 1.379 . S
C215 N222 1.356 . S
C216 C215 1.363 . S
C216 C219 1.363 . S
N217 C219 1.356 . S
N217 H229 0.984 . S
N217 H230 0.985 . S
N218 C220 1.356 . S
N218 H223 0.984 . S
N218 H224 0.985 . S
C219 C213 1.379 . S
C219 C216 1.363 . S
C219 N217 1.356 . S
C220 C214 1.363 . S
C220 C215 1.379 . S
C220 N218 1.356 . S
N221 C213 1.356 . S
N221 H227 0.984 . S
N221 H228 0.984 . S
N222 C215 1.356 . S
N222 H225 0.984 . S
N222 H226 0.985 . S
H223 N218 0.984 . S
H224 N218 0.985 . S
H225 N222 0.984 . S
H226 N222 0.985 . S
H227 N221 0.984 . S
H228 N221 0.984 . S
H229 N217 0.984 . S
H230 N217 0.985 . S
C231 C232 1.363 1_655 S
C231 C237 1.379 . S
C231 N239 1.356 . S
C232 C231 1.363 1_455 S
C232 C238 1.363 . S
C233 C234 1.363 . S
C233 C238 1.379 . S
C233 N240 1.356 . S
C234 C233 1.363 . S
C234 C237 1.363 1_455 S
N235 C237 1.356 . S
N235 H247 0.984 . S
N235 H248 0.985 . S
N236 C238 1.356 . S
N236 H241 0.984 . S
N236 H242 0.985 . S
C237 C231 1.379 . S
C237 C234 1.363 1_655 S
C237 N235 1.356 . S
C238 C232 1.363 . S
C238 C233 1.379 . S
C238 N236 1.356 . S
N239 C231 1.356 . S
N239 H245 0.984 . S
N239 H246 0.984 . S
N240 C233 1.356 . S
N240 H243 0.984 . S
N240 H244 0.985 . S
H241 N236 0.984 . S
H242 N236 0.985 . S
H243 N240 0.984 . S
H244 N240 0.985 . S
H245 N239 0.984 . S
H246 N239 0.984 . S
H247 N235 0.984 . S
H248 N235 0.985 . S
C249 C250 1.363 . S
C249 C255 1.379 . S
C249 N257 1.356 1_545 S
C250 C249 1.363 . S
C250 C256 1.363 . S
C251 C252 1.363 . S
C251 C256 1.379 . S
C251 N258 1.356 . S
C252 C251 1.363 . S
C252 C255 1.363 . S
N253 C255 1.356 1_565 S
N253 H265 0.984 . S
N253 H266 0.985 . S
N254 C256 1.356 . S
N254 H259 0.984 . S
N254 H260 0.985 . S
C255 C249 1.379 . S
C255 C252 1.363 . S
C255 N253 1.356 1_545 S
C256 C250 1.363 . S
C256 C251 1.379 . S
C256 N254 1.356 . S
N257 C249 1.356 1_565 S
N257 H263 0.984 . S
N257 H264 0.984 1_565 S
N258 C251 1.356 . S
N258 H261 0.984 . S
N258 H262 0.985 . S
H259 N254 0.984 . S
H260 N254 0.985 . S
H261 N258 0.984 . S
H262 N258 0.985 . S
H263 N257 0.984 . S
H264 N257 0.984 1_545 S
H265 N253 0.984 . S
H266 N253 0.985 . S
C267 C268 1.363 . S
C267 C273 1.379 . S
C267 N275 1.356 . S
C268 C267 1.363 . S
C268 C274 1.363 . S
C269 C270 1.363 . S
C269 C274 1.379 . S
C269 N276 1.356 . S
C270 C269 1.363 . S
C270 C273 1.363 . S
N271 C273 1.356 . S
N271 H283 0.984 . S
N271 H284 0.985 . S
N272 C274 1.356 . S
N272 H277 0.984 . S
N272 H278 0.985 . S
C273 C267 1.379 . S
C273 C270 1.363 . S
C273 N271 1.356 . S
C274 C268 1.363 . S
C274 C269 1.379 . S
C274 N272 1.356 . S
N275 C267 1.356 . S
N275 H281 0.984 . S
N275 H282 0.984 . S
N276 C269 1.356 . S
N276 H279 0.984 . S
N276 H280 0.985 . S
H277 N272 0.984 . S
H278 N272 0.985 . S
H279 N276 0.984 . S
H280 N276 0.985 . S
H281 N275 0.984 . S
H282 N275 0.984 . S
H283 N271 0.984 . S
H284 N271 0.985 . S
C285 C286 1.363 . S
C285 C291 1.379 . S
C285 N293 1.356 . S
C286 C285 1.363 . S
C286 C292 1.363 1_545 S
C287 C288 1.363 1_565 S
C287 C292 1.379 . S
C287 N294 1.356 . S
C288 C287 1.363 1_545 S
C288 C291 1.363 . S
N289 C291 1.356 . S
N289 H301 0.984 . S
N289 H302 0.985 . S
N290 C292 1.356 . S
N290 H295 0.984 . S
N290 H296 0.985 . S
C291 C285 1.379 . S
C291 C288 1.363 . S
C291 N289 1.356 . S
C292 C286 1.363 1_565 S
C292 C287 1.379 . S
C292 N290 1.356 . S
N293 C285 1.356 . S
N293 H299 0.984 . S
N293 H300 0.984 . S
N294 C287 1.356 . S
N294 H297 0.984 . S
N294 H298 0.985 . S
H295 N290 0.984 . S
H296 N290 0.985 . S
H297 N294 0.984 . S
H298 N294 0.985 . S
H299 N293 0.984 . S
H300 N293 0.984 . S
H301 N289 0.984 . S
H302 N289 0.985 . S
C303 C304 1.363 . S
C303 C309 1.379 . S
C303 N311 1.369 . S
C304 C303 1.363 . S
C304 C310 1.363 . S
C305 C306 1.363 . S
C305 C310 1.379 . S
C305 N312 1.356 . S
C306 C305 1.363 . S
C306 C309 1.363 . S
N307 C309 1.356 . S
N307 H319 0.984 . S
N307 H320 0.985 . S
N308 C310 1.356 . S
N308 H313 0.984 1_566 S
N308 H314 0.985 1_565 S
C309 C303 1.379 . S
C309 C306 1.363 . S
C309 N307 1.356 . S
C310 C304 1.363 . S
C310 C305 1.379 . S
C310 N308 1.356 . S
N311 C303 1.369 . S
N311 H317 0.986 . S
N311 H318 0.972 1_556 S
N312 C305 1.356 . S
N312 H315 0.984 . S
N312 H316 0.985 . S
H313 N308 0.984 1_544 S
H314 N308 0.985 1_545 S
H315 N312 0.984 . S
H316 N312 0.985 . S
H317 N311 0.986 . S
H318 N311 0.972 1_554 S
H319 N307 0.984 . S
H320 N307 0.985 . S
C321 C322 1.363 . S
C321 C327 1.379 . S
C321 N329 1.356 . S
C322 C321 1.363 . S
C322 C328 1.363 . S
C323 C324 1.363 . S
C323 C328 1.379 . S
C323 N330 1.356 . S
C324 C323 1.363 . S
C324 C327 1.363 . S
N325 C327 1.356 . S
N325 H337 0.984 . S
N325 H338 0.985 . S
N326 C328 1.347 1_655 S
N326 H331 0.990 . S
N326 H332 0.989 . S
C327 C321 1.379 . S
C327 C324 1.363 . S
C327 N325 1.356 . S
C328 C322 1.363 . S
C328 C323 1.379 . S
C328 N326 1.347 1_455 S
N329 C321 1.356 . S
N329 H335 0.984 . S
N329 H336 0.984 . S
N330 C323 1.356 . S
N330 H333 0.984 . S
N330 H334 0.987 . S
H331 N326 0.990 . S
H332 N326 0.989 . S
H333 N330 0.984 . S
H334 N330 0.987 . S
H335 N329 0.984 . S
H336 N329 0.984 . S
H337 N325 0.984 . S
H338 N325 0.985 . S
C339 C340 1.363 . S
C339 C345 1.379 . S
C339 N347 1.356 . S
C340 C339 1.363 . S
C340 C346 1.363 . S
C341 C342 1.363 . S
C341 C346 1.379 . S
C341 N348 1.356 . S
C342 C341 1.363 . S
C342 C345 1.363 . S
N343 C345 1.356 . S
N343 H355 0.984 . S
N343 H356 0.985 . S
N344 C346 1.356 . S
N344 H349 0.984 1_545 S
N344 H350 0.985 . S
C345 C339 1.379 . S
C345 C342 1.363 . S
C345 N343 1.356 . S
C346 C340 1.363 . S
C346 C341 1.379 . S
C346 N344 1.356 . S
N347 C339 1.356 . S
N347 H353 0.984 . S
N347 H354 0.984 1_545 S
N348 C341 1.356 . S
N348 H351 0.984 . S
N348 H352 0.985 . S
H349 N344 0.984 1_565 S
H350 N344 0.985 . S
H351 N348 0.984 . S
H352 N348 0.985 . S
H353 N347 0.984 . S
H354 N347 0.984 1_565 S
H355 N343 0.984 . S
H356 N343 0.985 . S
C357 C358 1.363 . S
C357 C363 1.379 . S
C357 N365 1.356 1_556 S
C358 C357 1.363 . S
C358 C364 1.363 . S
C359 C360 1.363 . S
C359 C364 1.379 . S
C359 N366 1.356 . S
C360 C359 1.363 . S
C360 C363 1.363 . S
N361 C363 1.356 . S
N361 H373 0.984 . S
N361 H374 0.985 . S
N362 C364 1.356 . S
N362 H367 0.984 . S
N362 H368 0.985 . S
C363 C357 1.379 . S
C363 C360 1.363 . S
C363 N361 1.356 . S
C364 C358 1.363 . S
C364 C359 1.379 . S
C364 N362 1.356 . S
N365 C357 1.356 1_554 S
N365 H371 0.984 . S
N365 H372 0.984 . S
N366 C359 1.356 . S
N366 H369 0.984 . S
N366 H370 0.985 . S
H367 N362 0.984 . S
H368 N362 0.985 . S
H369 N366 0.984 . S
H370 N366 0.985 . S
H371 N365 0.984 . S
H372 N365 0.984 . S
H373 N361 0.984 . S
H374 N361 0.985 . S
C375 C376 1.363 1_655 S
C375 C381 1.379 . S
C375 N383 1.356 . S
C376 C375 1.363 1_455 S
C376 C382 1.363 . S
C377 C378 1.363 . S
C377 C382 1.379 . S
C377 N384 1.356 . S
C378 C377 1.363 . S
C378 C381 1.363 1_455 S
N379 C381 1.356 . S
N379 H391 0.984 . S
N379 H392 0.985 . S
N380 C382 1.356 . S
N380 H385 0.984 . S
N380 H386 0.985 . S
C381 C375 1.379 . S
C381 C378 1.363 1_655 S
C381 N379 1.356 . S
C382 C376 1.363 . S
C382 C377 1.379 . S
C382 N380 1.356 . S
N383 C375 1.356 . S
N383 H389 0.984 . S
N383 H390 0.984 . S
N384 C377 1.356 . S
N384 H387 0.984 . S
N384 H388 0.985 . S
H385 N380 0.984 . S
H386 N380 0.985 . S
H387 N384 0.984 . S
H388 N384 0.985 . S
H389 N383 0.984 . S
H390 N383 0.984 . S
H391 N379 0.984 . S
H392 N379 0.985 . S
C180 C47 1.432 . S
C178 C10 1.433 . S
C196 C21 1.448 . S
C198 C86 1.483 . S
C214 C31 1.397 . S
C216 C153 1.492 . S
C232 C0 1.407 . S
C234 C54 1.465 . S
C252 C107 1.480 . S
C250 C18 1.392 . S
C268 C34 1.413 . S
C270 C132 1.445 . S
C288 C93 1.428 . S
C286 C36 1.434 . S
C304 C8 1.414 1_556 S
C306 C146 1.446 . S
C324 C61 1.436 . S
C322 C23 1.436 . S
C342 C100 1.407 . S
C340 C26 1.355 . S
C360 C139 1.484 . S
C358 C5 1.398 1_556 S
C376 C13 1.410 . S
C378 C40 1.462 . S
