# Generated by pormake.
# Topology zzz, (3,6)-cn, num edge types: 1
# Building blocks:
#     Node 0, Type 0, BuildingBlock: ESEHIV_clean_linker_0, # of connection points: 3
#     Node 1, Type 0, BuildingBlock: ESEHIV_clean_linker_0, # of connection points: 3
#     Node 2, Type 0, BuildingBlock: ESEHIV_clean_linker_0, # of connection points: 3
#     Node 3, Type 0, BuildingBlock: ESEHIV_clean_linker_0, # of connection points: 3
#     Node 4, Type 0, BuildingBlock: ESEHIV_clean_linker_0, # of connection points: 3
#     Node 5, Type 0, BuildingBlock: ESEHIV_clean_linker_0, # of connection points: 3
#     Node 6, Type 0, BuildingBlock: ESEHIV_clean_linker_0, # of connection points: 3
#     Node 7, Type 0, BuildingBlock: ESEHIV_clean_linker_0, # of connection points: 3
#     Node 8, Type 1, BuildingBlock: MIFKUJ_clean_sbu_0, # of connection points: 6
#     Node 9, Type 1, BuildingBlock: MIFKUJ_clean_sbu_0, # of connection points: 6
#     Node 10, Type 1, BuildingBlock: MIFKUJ_clean_sbu_0, # of connection points: 6
#     Node 11, Type 1, BuildingBlock: MIFKUJ_clean_sbu_0, # of connection points: 6
#     Edge 12, Type (0, 1), BuildingBlock: AJUNOK_clean_linker_0, # of connection points: 2
#     Edge 13, Type (0, 1), BuildingBlock: AJUNOK_clean_linker_0, # of connection points: 2
#     Edge 14, Type (0, 1), BuildingBlock: AJUNOK_clean_linker_0, # of connection points: 2
#     Edge 15, Type (0, 1), BuildingBlock: AJUNOK_clean_linker_0, # of connection points: 2
#     Edge 16, Type (0, 1), BuildingBlock: AJUNOK_clean_linker_0, # of connection points: 2
#     Edge 17, Type (0, 1), BuildingBlock: AJUNOK_clean_linker_0, # of connection points: 2
#     Edge 18, Type (0, 1), BuildingBlock: AJUNOK_clean_linker_0, # of connection points: 2
#     Edge 19, Type (0, 1), BuildingBlock: AJUNOK_clean_linker_0, # of connection points: 2
#     Edge 20, Type (0, 1), BuildingBlock: AJUNOK_clean_linker_0, # of connection points: 2
#     Edge 21, Type (0, 1), BuildingBlock: AJUNOK_clean_linker_0, # of connection points: 2
#     Edge 22, Type (0, 1), BuildingBlock: AJUNOK_clean_linker_0, # of connection points: 2
#     Edge 23, Type (0, 1), BuildingBlock: AJUNOK_clean_linker_0, # of connection points: 2
#     Edge 24, Type (0, 1), BuildingBlock: AJUNOK_clean_linker_0, # of connection points: 2
#     Edge 25, Type (0, 1), BuildingBlock: AJUNOK_clean_linker_0, # of connection points: 2
#     Edge 26, Type (0, 1), BuildingBlock: AJUNOK_clean_linker_0, # of connection points: 2
#     Edge 27, Type (0, 1), BuildingBlock: AJUNOK_clean_linker_0, # of connection points: 2
#     Edge 28, Type (0, 1), BuildingBlock: AJUNOK_clean_linker_0, # of connection points: 2
#     Edge 29, Type (0, 1), BuildingBlock: AJUNOK_clean_linker_0, # of connection points: 2
#     Edge 30, Type (0, 1), BuildingBlock: AJUNOK_clean_linker_0, # of connection points: 2
#     Edge 31, Type (0, 1), BuildingBlock: AJUNOK_clean_linker_0, # of connection points: 2
#     Edge 32, Type (0, 1), BuildingBlock: AJUNOK_clean_linker_0, # of connection points: 2
#     Edge 33, Type (0, 1), BuildingBlock: AJUNOK_clean_linker_0, # of connection points: 2
#     Edge 34, Type (0, 1), BuildingBlock: AJUNOK_clean_linker_0, # of connection points: 2
#     Edge 35, Type (0, 1), BuildingBlock: AJUNOK_clean_linker_0, # of connection points: 2
# Relax obj value: 0.346
# Max RMSD: 0.198
# Mean RMSD: 0.190
data_MOF--net-zzz--node1-MIFKUJ_clean_sbu_0--node2-ESEHIV_clean_linker_0--edge1-AJUNOK_clean_linker_0
_symmetry_space_group_name_H-M    P1
_symmetry_Int_Tables_number       1
_symmetry_cell_setting            triclinic
loop_
_symmetry_equiv_pos_as_xyz
'x, y, z'
_cell_length_a     31.459986
_cell_length_b     31.512787
_cell_length_c     12.254865
_cell_angle_alpha  88.896363
_cell_angle_beta   89.8648
_cell_angle_gamma 93.729584
loop_
_atom_site_label
_atom_site_type_symbol
_atom_site_fract_x
_atom_site_fract_y
_atom_site_fract_z
_atom_type_partial_charge
H0 H 0.79558 0.59481 0.11188 0.0
H1 H 0.69368 0.59019 0.88451 0.0
H2 H 0.66666 0.57093 0.22786 0.0
C3 C 0.76151 0.5941 0.09767 0.0
C4 C 0.73328 0.58659 0.18536 0.0
C5 C 0.74736 0.59392 0.99047 0.0
C6 C 0.70413 0.59073 0.96891 0.0
C7 C 0.67467 0.58227 0.05341 0.0
C8 C 0.68911 0.57949 0.16277 0.0
H9 H 0.02272 0.79985 0.15432 0.0
H10 H 0.02463 0.72632 0.8676 0.0
H11 H 0.97333 0.66888 0.16815 0.0
C12 C 0.01771 0.76902 0.11638 0.0
C13 C -0.00184 0.73482 0.17564 0.0
C14 C 0.0251 0.76649 0.00559 0.0
C15 C 0.01827 0.72762 0.95444 0.0
C16 C 9e-05 0.6916 0.01143 0.0
C17 C 0.98927 0.69537 0.12364 0.0
H18 H 0.68572 0.91124 0.13764 0.0
H19 H 0.76985 0.91328 0.86801 0.0
H20 H 0.8201 0.93794 0.18786 0.0
C21 C 0.71827 0.91015 0.10831 0.0
C22 C 0.75202 0.9209 0.17912 0.0
C23 C 0.725 0.91282 0.99661 0.0
C24 C 0.76603 0.91117 0.95606 0.0
C25 C 0.80156 0.91916 0.02353 0.0
C26 C 0.79418 0.92633 0.13619 0.0
H27 H 0.41629 0.71193 0.14689 0.0
H28 H 0.50795 0.81912 0.16038 0.0
H29 H 0.41298 0.81122 0.90796 0.0
C30 C 0.42643 0.7441 0.1202 0.0
C31 C 0.41346 0.7581 0.01813 0.0
C32 C 0.46111 0.7653 0.1721 0.0
C33 C 0.47899 0.8042 0.12691 0.0
C34 C 0.45992 0.82196 0.03334 0.0
C35 C 0.42441 0.80014 0.98638 0.0
H36 H 0.20376 0.41443 0.06287 0.0
H37 H 0.29316 0.41902 0.32096 0.0
H38 H 0.33384 0.45836 0.99567 0.0
C39 C 0.23693 0.41768 0.08796 0.0
C40 C 0.26768 0.43473 0.01434 0.0
C41 C 0.24603 0.41494 0.19811 0.0
C42 C 0.28778 0.42046 0.23356 0.0
C43 C 0.32089 0.43465 0.16213 0.0
C44 C 0.31021 0.44372 0.05125 0.0
H45 H 0.986 0.20741 0.05447 0.0
H46 H 0.00344 0.2938 0.31734 0.0
H47 H 0.99467 0.34179 0.98599 0.0
C48 C 0.99168 0.23963 0.0833 0.0
C49 C -0.00423 0.27297 0.00694 0.0
C50 C 0.9935 0.24661 0.19447 0.0
C51 C -1e-05 0.2881 0.23075 0.0
C52 C -0.00266 0.32282 0.15822 0.0
C53 C -0.00366 0.31554 0.04378 0.0
H54 H 0.3021 0.10592 0.05624 0.0
H55 H 0.20712 0.11554 0.29749 0.0
H56 H 0.18395 0.03044 0.02893 0.0
C57 C 0.269 0.09979 0.08072 0.0
C58 C 0.24306 0.07072 0.02178 0.0
C59 C 0.25804 0.10893 0.18696 0.0
C60 C 0.21543 0.10425 0.21764 0.0
C61 C 0.18813 0.07383 0.166 0.0
C62 C 0.20243 0.05641 0.0664 0.0
H63 H 0.50142 0.30602 0.06596 0.0
H64 H 0.50741 0.17731 0.95409 0.0
H65 H 0.51905 0.20631 0.29678 0.0
C66 C 0.50349 0.27223 0.08274 0.0
C67 C 0.51112 0.25875 0.1886 0.0
C68 C 0.50134 0.24348 -0.0028 0.0
C69 C 0.50685 0.19974 0.0198 0.0
C70 C 0.51292 0.18613 0.12966 0.0
C71 C 0.51387 0.21605 0.2126 0.0
Zn72 Zn -0.0016 0.05245 0.64956 0.0
Zn73 Zn 0.98551 0.95082 0.53757 0.0
C74 C 0.97986 0.13134 0.75233 0.0
O75 O 0.94179 0.11526 0.72594 0.0
C76 C -0.00115 0.8677 0.4471 0.0
O77 O 0.03733 0.87842 0.48283 0.0
O78 O 0.96406 0.07767 0.53112 0.0
O79 O 0.05082 0.03228 0.56311 0.0
O80 O 0.0165 0.99431 0.43618 0.0
C81 C 0.98891 0.10815 0.49485 0.0
O82 O 0.02821 0.11283 0.53056 0.0
O83 O 0.01142 0.10806 0.73977 0.0
C84 C 0.00228 0.90034 0.70376 0.0
O85 O 0.96481 0.88869 0.66446 0.0
O86 O 0.02396 0.93123 0.65842 0.0
O87 O 0.93222 0.96752 0.61939 0.0
O88 O 0.96203 0.00988 0.74392 0.0
O89 O 0.97077 0.89521 0.45116 0.0
C90 C 0.0479 0.01907 0.46467 0.0
C91 C 0.93349 0.98149 0.71671 0.0
Zn92 Zn 0.43986 0.00761 0.58976 0.0
Zn93 Zn 0.56626 0.00777 0.60929 0.0
C94 C 0.37365 0.00861 0.7444 0.0
O95 O 0.36814 0.97099 0.70039 0.0
C96 C 0.62988 0.98932 0.45021 0.0
O97 O 0.61923 0.02703 0.41749 0.0
O98 O 0.39224 0.00862 0.48592 0.0
O99 O 0.48209 0.04206 0.49116 0.0
O100 O 0.55154 0.05283 0.50291 0.0
C101 C 0.38531 0.04804 0.47613 0.0
O102 O 0.40916 0.07625 0.52997 0.0
O103 O 0.40701 0.03227 0.71878 0.0
C104 C 0.63941 0.03071 0.72802 0.0
O105 O 0.65991 0.0381 0.63567 0.0
O106 O 0.59957 0.03348 0.7302 0.0
O107 O 0.5191 0.97855 0.70337 0.0
O108 O 0.45948 0.9499 0.6355 0.0
O109 O 0.60861 0.97064 0.52846 0.0
C110 C 0.51706 0.05891 0.45427 0.0
C111 C 0.49273 0.9467 0.69351 0.0
Zn112 Zn 0.52197 0.46024 0.59605 0.0
Zn113 Zn 0.46793 0.5586 0.61404 0.0
C114 C 0.52123 0.38872 0.73063 0.0
O115 O 0.56124 0.40308 0.72062 0.0
C116 C 0.46299 0.62661 0.45914 0.0
O117 O 0.42334 0.62078 0.49278 0.0
O118 O 0.55498 0.4218 0.50468 0.0
O119 O 0.48909 0.48933 0.47055 0.0
O120 O 0.43161 0.51117 0.54652 0.0
C121 C 0.52416 0.39746 0.47049 0.0
O122 O 0.48493 0.40737 0.48689 0.0
O123 O 0.49246 0.41223 0.69441 0.0
C124 C 0.45331 0.62574 0.72779 0.0
O125 O 0.49241 0.62945 0.68971 0.0
O126 O 0.43022 0.59259 0.70556 0.0
O127 O 0.51627 0.54784 0.72106 0.0
O128 O 0.55858 0.49534 0.69887 0.0
O129 O 0.48988 0.60051 0.49112 0.0
C130 C 0.44908 0.49231 0.46984 0.0
C131 C 0.54813 0.52763 0.75062 0.0
Zn132 Zn 0.06472 0.498 0.60952 0.0
Zn133 Zn 0.93029 0.5127 0.58895 0.0
C134 C 0.13761 0.49318 0.73793 0.0
O135 O 0.13827 0.53294 0.70345 0.0
C136 C 0.85637 0.5261 0.4789 0.0
O137 O 0.85163 0.48754 0.52167 0.0
O138 O 0.10469 0.50236 0.48661 0.0
O139 O 0.01106 0.46768 0.53206 0.0
O140 O 0.94135 0.45995 0.5105 0.0
C141 C 0.10913 0.46331 0.4667 0.0
O142 O 0.08624 0.43361 0.52123 0.0
O143 O 0.10481 0.46837 0.71674 0.0
C144 C 0.88651 0.5444 0.73667 0.0
O145 O 0.90913 0.57464 0.6841 0.0
O146 O 0.89282 0.5058 0.71779 0.0
O147 O 0.98682 0.53785 0.64152 0.0
O148 O 0.05247 0.55282 0.68597 0.0
O149 O 0.89289 0.54616 0.48616 0.0
C150 C 0.97842 0.44941 0.48541 0.0
C151 C 0.01361 0.56008 0.69729 0.0
C152 C 0.15842 0.04555 0.34612 0.0
C153 C 0.15144 0.0548 0.23415 0.0
C154 C 0.12496 0.03443 0.41895 0.0
C155 C 0.08264 0.03036 0.38356 0.0
H156 H 0.19021 0.04828 0.37975 0.0
H157 H 0.13247 0.02881 0.50405 0.0
S158 S 0.0461 0.04822 0.09878 0.0
N159 N 0.09826 0.05838 0.09187 0.0
N160 N 0.03532 0.03397 0.22696 0.0
C161 C 0.07496 0.03715 0.27091 0.0
C162 C 0.10925 0.05002 0.19681 0.0
C163 C 0.55692 0.13745 0.23195 0.0
C164 C 0.52042 0.14225 0.16736 0.0
C165 C 0.55571 0.10982 0.32298 0.0
C166 C 0.51865 0.08431 0.35011 0.0
H167 H 0.5845 0.15965 0.22159 0.0
H168 H 0.58328 0.11048 0.37585 0.0
S169 S 0.42216 0.07114 0.17649 0.0
N170 N 0.45092 0.11105 0.11794 0.0
N171 N 0.44991 0.05583 0.28297 0.0
C172 C 0.48488 0.08328 0.27432 0.0
C173 C 0.48569 0.11264 0.1835 0.0
C174 C 0.37525 0.41926 0.304 0.0
C175 C 0.36319 0.4454 0.21552 0.0
C176 C 0.40303 0.43466 0.38532 0.0
C177 C 0.42317 0.47556 0.37727 0.0
H178 H 0.3597 0.38783 0.31655 0.0
H179 H 0.40722 0.41489 0.45719 0.0
S180 S 0.41303 0.55282 0.14837 0.0
N181 N 0.37925 0.51248 0.11753 0.0
N182 N 0.43558 0.53938 0.26463 0.0
C183 C 0.41611 0.50013 0.28273 0.0
C184 C 0.38574 0.48531 0.20227 0.0
C185 C 0.01994 0.39521 0.23082 0.0
C186 C 0.98767 0.36324 0.21157 0.0
C187 C 0.01685 0.42346 0.31857 0.0
C188 C 0.98206 0.41982 0.39204 0.0
H189 H 0.04871 0.39685 0.18183 0.0
H190 H 0.04206 0.44792 0.3294 0.0
S191 S 0.88655 0.3449 0.36665 0.0
N192 N 0.91734 0.33354 0.26349 0.0
N193 N 0.91255 0.38421 0.43039 0.0
C194 C 0.94829 0.38997 0.3678 0.0
C195 C 0.95079 0.36251 0.27703 0.0
C196 C 0.86623 0.9685 0.97882 0.0
C197 C 0.84314 0.92914 0.96518 0.0
C198 C 0.89614 0.98465 0.89977 0.0
C199 C 0.90269 0.96312 0.80151 0.0
H200 H 0.85933 0.98816 0.04732 0.0
H201 H 0.91268 0.01531 0.91342 0.0
S202 S 0.85258 0.85701 0.73167 0.0
N203 N 0.83414 0.86608 0.85448 0.0
N204 N 0.88339 0.89961 0.69814 0.0
C205 C 0.88049 0.92324 0.78901 0.0
C206 C 0.85298 0.90536 0.87317 0.0
C207 C 0.49872 0.84625 0.86462 0.0
C208 C 0.48051 0.85692 0.9651 0.0
C209 C 0.50245 0.87541 0.77677 0.0
C210 C 0.48949 0.91674 0.78738 0.0
H211 H 0.50739 0.81423 0.85078 0.0
H212 H 0.51475 0.86529 0.69949 0.0
S213 S 0.44705 0.96322 0.03782 0.0
N214 N 0.45345 0.9131 0.07263 0.0
N215 N 0.46316 0.96904 0.90959 0.0
C216 C 0.47497 0.92918 0.88998 0.0
C217 C 0.47005 0.89905 0.97859 0.0
C218 C 0.62164 0.52582 -0.00271 0.0
C219 C 0.63112 0.56929 0.01654 0.0
C220 C 0.59363 0.51252 0.91348 0.0
C221 C 0.57367 0.5422 0.84678 0.0
H222 H 0.63943 0.50216 0.03925 0.0
H223 H 0.58909 0.47883 0.89765 0.0
S224 S 0.58572 0.65962 0.87017 0.0
N225 N 0.61642 0.64165 0.96741 0.0
N226 N 0.56346 0.61698 0.81181 0.0
C227 C 0.58023 0.58555 0.87167 0.0
C228 C 0.60879 0.59898 0.95654 0.0
C229 C 0.97465 0.65599 0.84052 0.0
C230 C 0.99174 0.65214 0.94662 0.0
C231 C 0.98036 0.62543 0.76095 0.0
C232 C 0.00108 0.58845 0.78571 0.0
H233 H 0.95998 0.68481 0.81582 0.0
H234 H 0.97055 0.632 0.678 0.0
S235 S 0.0439 0.55829 0.0564 0.0
N236 N 0.02578 0.60568 0.07528 0.0
N237 N 0.03383 0.54671 0.92764 0.0
C238 C 0.01442 0.58197 0.89426 0.0
C239 C 0.00976 0.61381 0.97474 0.0
C240 C 0.00366 0.17114 0.24312 0.0
C241 C 0.98678 0.20986 0.27036 0.0
C242 C -0.00191 0.13563 0.3113 0.0
C243 C 0.97676 0.13766 0.4107 0.0
H244 H 0.02312 0.16851 0.17085 0.0
H245 H 0.01411 0.10755 0.29089 0.0
S246 S 0.92494 0.23014 0.52035 0.0
N247 N 0.94445 0.24691 0.40087 0.0
N248 N 0.93759 0.18025 0.53422 0.0
C249 C 0.95843 0.17534 0.43856 0.0
C250 C 0.96289 0.21155 0.36738 0.0
C251 C 0.32233 0.12191 0.30334 0.0
C252 C 0.28841 0.09475 0.26857 0.0
C253 C 0.35349 0.10642 0.37187 0.0
C254 C 0.35192 0.06319 0.40528 0.0
H255 H 0.32508 0.1549 0.27616 0.0
H256 H 0.37955 0.12828 0.39649 0.0
S257 S 0.26977 0.97912 0.33336 0.0
N258 N 0.25535 0.02249 0.27 0.0
N259 N 0.31379 0.99381 0.39906 0.0
C260 C 0.31822 0.0358 0.37057 0.0
C261 C 0.28648 0.0515 0.3019 0.0
C262 C 0.55231 0.32205 0.25762 0.0
C263 C 0.5195 0.28997 0.2731 0.0
C264 C 0.55745 0.35549 0.33033 0.0
C265 C 0.52968 0.35724 0.41904 0.0
H266 H 0.5727 0.32225 0.1862 0.0
H267 H 0.58066 0.3816 0.31207 0.0
S268 S 0.44285 0.27778 0.50259 0.0
N269 N 0.46197 0.25952 0.38832 0.0
N270 N 0.47202 0.322 0.52694 0.0
C271 C 0.49937 0.32327 0.44058 0.0
C272 C 0.49402 0.28959 0.36656 0.0
C273 C 0.21426 0.46366 0.3238 0.0
C274 C 0.21205 0.42373 0.274 0.0
C275 C 0.18005 0.47694 0.38315 0.0
C276 C 0.14286 0.45042 0.3955 0.0
H277 H 0.24223 0.48538 0.31391 0.0
H278 H 0.18307 0.50779 0.42097 0.0
S279 S 0.12131 0.34313 0.27958 0.0
N280 N 0.16989 0.35843 0.23724 0.0
N281 N 0.10565 0.38229 0.35441 0.0
C282 C 0.14036 0.41019 0.34692 0.0
C283 C 0.17499 0.39709 0.28445 0.0
C284 C 0.99137 0.83142 0.94985 0.0
C285 C 0.02633 0.80616 0.94081 0.0
C286 C 0.98681 0.86569 0.87913 0.0
C287 C 0.01691 0.87587 0.79668 0.0
H288 H 0.9659 0.82301 0.00766 0.0
H289 H 0.95778 0.88237 0.88369 0.0
S290 S 0.11637 0.82249 0.74688 0.0
N291 N 0.09347 0.7955 0.85064 0.0
N292 N 0.08459 0.86062 0.71493 0.0
C293 C 0.05355 0.85285 0.79117 0.0
C294 C 0.05818 0.81752 0.86368 0.0
C295 C 0.71085 0.98536 0.93734 0.0
C296 C 0.69858 0.94156 0.93596 0.0
C297 C 0.69068 0.0143 0.8714 0.0
C298 C 0.65693 1.00044 0.80461 0.0
H299 H 0.73743 0.99701 0.98698 0.0
H300 H 0.70199 0.04753 0.87124 0.0
S301 S 0.61177 0.88929 0.77586 0.0
N302 N 0.6508 0.88559 0.86471 0.0
N303 N 0.61061 0.9404 0.74378 0.0
C304 C 0.64306 0.95689 0.80596 0.0
C305 C 0.66447 0.92723 0.87133 0.0
C306 C 0.45778 0.7264 0.88286 0.0
C307 C 0.41758 0.72669 0.93249 0.0
C308 C 0.46772 0.69446 0.81394 0.0
C309 C 0.43844 0.66007 0.7942 0.0
H310 H 0.483 0.7498 0.90279 0.0
H311 H 0.49957 0.69627 0.77967 0.0
S312 S 0.32893 0.64455 0.90762 0.0
N313 N 0.3481 0.68989 0.95953 0.0
N314 N 0.36705 0.62778 0.82929 0.0
C315 C 0.39774 0.65955 0.84269 0.0
C316 C 0.38736 0.69313 0.91282 0.0
C317 C 0.81665 0.61069 0.90032 0.0
C318 C 0.77827 0.58555 0.90554 0.0
C319 C 0.85184 0.59632 0.84704 0.0
C320 C 0.84963 0.55646 0.79737 0.0
H321 H 0.82011 0.64048 0.94315 0.0
H322 H 0.8813 0.61617 0.84679 0.0
S323 S 0.75443 0.48162 0.7737 0.0
N324 N 0.73852 0.52087 0.84778 0.0
N325 N 0.80499 0.49432 0.74462 0.0
C326 C 0.81075 0.53214 0.79584 0.0
C327 C 0.77478 0.5468 0.85003 0.0
C328 C 0.03064 0.23626 0.86031 0.0
C329 C 0.99496 0.25814 0.89248 0.0
C330 C 0.02585 0.19599 0.81159 0.0
C331 C 0.98523 0.17659 0.78977 0.0
H332 H 0.06205 0.24708 0.8885 0.0
H333 H 0.05406 0.17888 0.79758 0.0
S334 S 0.88264 0.22743 0.82661 0.0
N335 N 0.91889 0.26235 0.87463 0.0
N336 N 0.90913 0.18743 0.78329 0.0
C337 C 0.94989 0.20146 0.80569 0.0
C338 C 0.95508 0.24252 0.8542 0.0
C339 C 0.28241 0.07259 0.84343 0.0
C340 C 0.2664 0.04873 0.93518 0.0
C341 C 0.31769 0.06015 0.7831 0.0
C342 C 0.33863 0.02353 0.81274 0.0
H343 H 0.26909 0.10249 0.82217 0.0
H344 H 0.32882 0.07945 0.71337 0.0
S345 S 0.31071 0.9506 0.04621 0.0
N346 N 0.27515 0.98683 0.05171 0.0
N347 N 0.34068 0.96339 0.93824 0.0
C348 C 0.3223 0.99879 0.90164 0.0
C349 C 0.28646 0.01135 0.96272 0.0
C350 C 0.54067 0.27858 0.8448 0.0
C351 C 0.5008 0.26402 0.88744 0.0
C352 C 0.54624 0.31804 0.78995 0.0
C353 C 0.51202 0.34437 0.77364 0.0
H354 H 0.56878 0.26219 0.8666 0.0
H355 H 0.57833 0.329 0.76617 0.0
S356 S 0.39911 0.315 0.84314 0.0
N357 N 0.42515 0.27478 0.89109 0.0
N358 N 0.43531 0.34855 0.78514 0.0
C359 C 0.47102 0.32738 0.80217 0.0
C360 C 0.46544 0.28711 0.85862 0.0
C361 C 0.2361 0.49452 0.91875 0.0
C362 C 0.24908 0.45269 0.91339 0.0
C363 C 0.2004 0.50724 0.8607 0.0
C364 C 0.17594 0.4786 0.79528 0.0
H365 H 0.25096 0.51631 0.97683 0.0
H366 H 0.19059 0.5392 0.8718 0.0
S367 S 0.20137 0.36819 0.73646 0.0
N368 N 0.23802 0.38454 0.8254 0.0
N369 N 0.17132 0.40863 0.71525 0.0
C370 C 0.19069 0.43792 0.78166 0.0
C371 C 0.22728 0.42508 0.84019 0.0
C372 C 0.01716 0.755 0.361 0.0
C373 C 0.98404 0.74633 0.28615 0.0
C374 C 0.02026 0.79338 0.41784 0.0
C375 C 0.98943 0.82375 0.40559 0.0
H376 H 0.04449 0.73577 0.36134 0.0
H377 H 0.04877 0.80055 0.46518 0.0
S378 S 0.88784 0.80736 0.25459 0.0
N379 N 0.91377 0.76473 0.22839 0.0
N380 N 0.91871 0.83634 0.33735 0.0
C381 C 0.9521 0.81137 0.34824 0.0
C382 C 0.94917 0.77221 0.29014 0.0
C383 C 0.72726 0.98329 0.2686 0.0
C384 C 0.73802 0.94088 0.28066 0.0
C385 C 0.69306 0.99845 0.32613 0.0
C386 C 0.66878 0.97241 0.4014 0.0
H387 H 0.74178 0.00331 0.20398 0.0
H388 H 0.68444 0.03044 0.30675 0.0
S389 S 0.69183 0.86254 0.48483 0.0
N390 N 0.72673 0.87527 0.38659 0.0
N391 N 0.66383 0.90463 0.50045 0.0
C392 C 0.68272 0.93168 0.42468 0.0
C393 C 0.71716 0.91586 0.3636 0.0
C394 C 0.46137 0.74109 0.36427 0.0
C395 C 0.48059 0.74066 0.26085 0.0
C396 C 0.45898 0.70465 0.4322 0.0
C397 C 0.47614 0.66667 0.39964 0.0
H398 H 0.44361 0.76789 0.38715 0.0
H399 H 0.44083 0.70527 0.50736 0.0
S400 S 0.53585 0.65126 0.14499 0.0
N401 N 0.52193 0.70087 0.1354 0.0
N402 N 0.51803 0.6326 0.26457 0.0
C403 C 0.49995 0.66738 0.30283 0.0
C404 C 0.50223 0.70449 0.23323 0.0
C405 C 0.7906 0.60358 0.32145 0.0
C406 C 0.75384 0.57801 0.29262 0.0
C407 C 0.82317 0.58716 0.38435 0.0
C408 C 0.81943 0.54517 0.42537 0.0
H409 H 0.79646 0.63494 0.2844 0.0
H410 H 0.85225 0.60687 0.39617 0.0
S411 S 0.72333 0.4704 0.40538 0.0
N412 N 0.71185 0.51202 0.32983 0.0
N413 N 0.77128 0.4821 0.45512 0.0
C414 C 0.77999 0.52172 0.41163 0.0
C415 C 0.74739 0.53809 0.34464 0.0
loop_
_geom_bond_atom_site_label_1
_geom_bond_atom_site_label_2
_geom_bond_distance
_geom_bond_site_symmetry_2
_ccdc_geom_bond_type
H0 C3 0.931 . S
H1 C6 0.928 . S
H2 C8 0.930 . S
C3 H0 0.931 . S
C3 C4 1.413 . S
C3 C5 1.360 1_554 S
C4 C3 1.413 . S
C4 C8 1.429 . S
C5 C3 1.360 1_556 S
C5 C6 1.372 . S
C6 H1 0.928 . S
C6 C5 1.372 . S
C6 C7 1.404 1_556 S
C7 C6 1.404 1_554 S
C7 C8 1.391 . S
C8 H2 0.930 . S
C8 C4 1.429 . S
C8 C7 1.391 . S
H9 C12 0.930 . S
H10 C15 0.928 . S
H11 C17 0.930 . S
C12 H9 0.930 . S
C12 C13 1.413 . S
C12 C14 1.360 1_554 S
C13 C12 1.413 . S
C13 C17 1.429 1_655 S
C14 C12 1.360 1_556 S
C14 C15 1.372 . S
C15 H10 0.928 . S
C15 C14 1.372 . S
C15 C16 1.405 1_556 S
C16 C15 1.405 1_554 S
C16 C17 1.391 1_655 S
C17 H11 0.930 . S
C17 C13 1.429 1_455 S
C17 C16 1.391 1_455 S
H18 C21 0.931 . S
H19 C24 0.928 . S
H20 C26 0.930 . S
C21 H18 0.931 . S
C21 C22 1.413 . S
C21 C23 1.360 1_554 S
C22 C21 1.413 . S
C22 C26 1.429 . S
C23 C21 1.360 1_556 S
C23 C24 1.372 . S
C24 H19 0.928 . S
C24 C23 1.372 . S
C24 C25 1.404 1_556 S
C25 C24 1.404 1_554 S
C25 C26 1.391 . S
C26 H20 0.930 . S
C26 C22 1.429 . S
C26 C25 1.391 . S
H27 C30 0.931 . S
H28 C33 0.928 . S
H29 C35 0.930 . S
C30 H27 0.931 . S
C30 C31 1.413 1_554 S
C30 C32 1.360 . S
C31 C30 1.413 1_556 S
C31 C35 1.429 . S
C32 C30 1.360 . S
C32 C33 1.372 . S
C33 H28 0.928 . S
C33 C32 1.372 . S
C33 C34 1.404 . S
C34 C33 1.404 . S
C34 C35 1.391 1_554 S
C35 H29 0.930 . S
C35 C31 1.429 . S
C35 C34 1.391 1_556 S
H36 C39 0.931 . S
H37 C42 0.928 . S
H38 C44 0.930 . S
C39 H36 0.931 . S
C39 C40 1.413 . S
C39 C41 1.360 . S
C40 C39 1.413 . S
C40 C44 1.429 . S
C41 C39 1.360 . S
C41 C42 1.372 . S
C42 H37 0.928 . S
C42 C41 1.372 . S
C42 C43 1.404 . S
C43 C42 1.404 . S
C43 C44 1.391 . S
C44 H38 0.930 . S
C44 C40 1.429 . S
C44 C43 1.391 . S
H45 C48 0.931 . S
H46 C51 0.928 . S
H47 C53 0.930 . S
C48 H45 0.931 . S
C48 C49 1.414 . S
C48 C50 1.360 . S
C49 C48 1.414 . S
C49 C53 1.430 1_655 S
C50 C48 1.360 . S
C50 C51 1.373 . S
C51 H46 0.928 . S
C51 C50 1.373 . S
C51 C52 1.404 . S
C52 C51 1.404 . S
C52 C53 1.390 1_655 S
C53 H47 0.930 . S
C53 C49 1.430 1_455 S
C53 C52 1.390 1_455 S
H54 C57 0.931 . S
H55 C60 0.928 . S
H56 C62 0.930 . S
C57 H54 0.931 . S
C57 C58 1.413 . S
C57 C59 1.360 . S
C58 C57 1.413 . S
C58 C62 1.429 . S
C59 C57 1.360 . S
C59 C60 1.372 . S
C60 H55 0.928 . S
C60 C59 1.372 . S
C60 C61 1.404 . S
C61 C60 1.404 . S
C61 C62 1.391 . S
C62 H56 0.930 . S
C62 C58 1.429 . S
C62 C61 1.391 . S
H63 C66 0.931 . S
H64 C69 0.928 . S
H65 C71 0.930 . S
C66 H63 0.931 . S
C66 C67 1.413 . S
C66 C68 1.360 . S
C67 C66 1.413 . S
C67 C71 1.429 . S
C68 C66 1.360 . S
C68 C69 1.372 . S
C69 H64 0.928 . S
C69 C68 1.372 . S
C69 C70 1.404 . S
C70 C69 1.404 . S
C70 C71 1.391 . S
C71 H65 0.930 . S
C71 C67 1.429 . S
C71 C70 1.391 . S
Zn72 O78 1.969 . S
Zn72 O79 1.965 1_655 S
Zn72 O83 2.024 1_655 S
Zn72 O88 1.969 . S
Zn73 O80 1.969 . S
Zn73 O86 1.969 . S
Zn73 O87 1.965 1_455 S
Zn73 O89 2.024 1_455 S
C74 O75 1.229 1_455 S
C74 O83 1.058 . S
O75 C74 1.229 1_655 S
C76 O77 1.229 1_655 S
C76 O89 1.058 . S
O77 C76 1.229 1_455 S
O78 Zn72 1.969 . S
O78 C81 1.267 . S
O79 Zn72 1.965 1_455 S
O79 C90 1.260 . S
O80 Zn73 1.969 . S
O80 C90 1.258 1_565 S
C81 O78 1.267 . S
C81 O82 1.228 1_655 S
O82 C81 1.228 1_455 S
O83 Zn72 2.024 1_455 S
O83 C74 1.058 . S
C84 O85 1.228 1_455 S
C84 O86 1.267 . S
O85 C84 1.228 1_655 S
O86 Zn73 1.969 . S
O86 C84 1.267 . S
O87 Zn73 1.965 1_655 S
O87 C91 1.260 . S
O88 Zn72 1.969 . S
O88 C91 1.258 1_545 S
O89 Zn73 2.024 1_655 S
O89 C76 1.058 . S
C90 O79 1.260 . S
C90 O80 1.258 1_545 S
C91 O87 1.260 . S
C91 O88 1.258 1_565 S
Zn92 O98 1.969 1_545 S
Zn92 O99 1.965 . S
Zn92 O103 2.024 . S
Zn92 O108 1.969 1_545 S
Zn93 O100 1.969 1_565 S
Zn93 O106 1.969 1_565 S
Zn93 O107 1.965 . S
Zn93 O109 2.024 . S
C94 O95 1.229 . S
C94 O103 1.058 . S
O95 C94 1.229 . S
C96 O97 1.229 . S
C96 O109 1.058 . S
O97 C96 1.229 . S
O98 Zn92 1.969 1_565 S
O98 C101 1.267 1_565 S
O99 Zn92 1.965 . S
O99 C110 1.260 . S
O100 Zn93 1.969 1_545 S
O100 C110 1.258 . S
C101 O98 1.267 1_545 S
C101 O102 1.228 . S
O102 C101 1.228 . S
O103 Zn92 2.024 . S
O103 C94 1.058 . S
C104 O105 1.228 . S
C104 O106 1.267 1_565 S
O105 C104 1.228 . S
O106 Zn93 1.969 1_545 S
O106 C104 1.267 1_545 S
O107 Zn93 1.965 . S
O107 C111 1.260 . S
O108 Zn92 1.969 1_565 S
O108 C111 1.258 . S
O109 Zn93 2.024 . S
O109 C96 1.058 . S
C110 O99 1.260 . S
C110 O100 1.258 . S
C111 O107 1.260 . S
C111 O108 1.258 . S
Zn112 O118 1.969 . S
Zn112 O119 1.965 . S
Zn112 O123 2.024 . S
Zn112 O128 1.969 . S
Zn113 O120 1.969 . S
Zn113 O126 1.969 . S
Zn113 O127 1.965 . S
Zn113 O129 2.024 . S
C114 O115 1.229 . S
C114 O123 1.058 . S
O115 C114 1.229 . S
C116 O117 1.229 . S
C116 O129 1.058 . S
O117 C116 1.229 . S
O118 Zn112 1.969 . S
O118 C121 1.267 . S
O119 Zn112 1.965 . S
O119 C130 1.260 . S
O120 Zn113 1.969 . S
O120 C130 1.258 . S
C121 O118 1.267 . S
C121 O122 1.228 . S
O122 C121 1.228 . S
O123 Zn112 2.024 . S
O123 C114 1.058 . S
C124 O125 1.228 . S
C124 O126 1.267 . S
O125 C124 1.228 . S
O126 Zn113 1.969 . S
O126 C124 1.267 . S
O127 Zn113 1.965 . S
O127 C131 1.260 . S
O128 Zn112 1.969 . S
O128 C131 1.258 . S
O129 Zn113 2.024 . S
O129 C116 1.058 . S
C130 O119 1.260 . S
C130 O120 1.258 . S
C131 O127 1.260 . S
C131 O128 1.258 . S
Zn132 O138 1.969 . S
Zn132 O139 1.965 . S
Zn132 O143 2.024 . S
Zn132 O148 1.969 . S
Zn133 O140 1.969 . S
Zn133 O146 1.969 . S
Zn133 O147 1.965 . S
Zn133 O149 2.024 . S
C134 O135 1.229 . S
C134 O143 1.058 . S
O135 C134 1.229 . S
C136 O137 1.229 . S
C136 O149 1.058 . S
O137 C136 1.229 . S
O138 Zn132 1.969 . S
O138 C141 1.267 . S
O139 Zn132 1.965 . S
O139 C150 1.260 1_455 S
O140 Zn133 1.969 . S
O140 C150 1.258 . S
C141 O138 1.267 . S
C141 O142 1.228 . S
O142 C141 1.228 . S
O143 Zn132 2.024 . S
O143 C134 1.058 . S
C144 O145 1.228 . S
C144 O146 1.267 . S
O145 C144 1.228 . S
O146 Zn133 1.969 . S
O146 C144 1.267 . S
O147 Zn133 1.965 . S
O147 C151 1.260 1_655 S
O148 Zn132 1.969 . S
O148 C151 1.258 . S
O149 Zn133 2.024 . S
O149 C136 1.058 . S
C150 O139 1.260 1_655 S
C150 O140 1.258 . S
C151 O147 1.260 1_455 S
C151 O148 1.258 . S
C152 C153 1.369 . S
C152 C154 1.419 . S
C152 H156 0.930 . S
C153 C152 1.369 . S
C153 C162 1.429 . S
C154 C152 1.419 . S
C154 C155 1.363 . S
C154 H157 0.929 . S
C155 C154 1.363 . S
C155 C161 1.428 . S
H156 C152 0.930 . S
H157 C154 0.929 . S
S158 N159 1.613 . S
S158 N160 1.610 . S
N159 S158 1.613 . S
N159 C162 1.350 . S
N160 S158 1.610 . S
N160 C161 1.351 . S
C161 C155 1.428 . S
C161 N160 1.351 . S
C161 C162 1.434 . S
C162 C153 1.429 . S
C162 N159 1.350 . S
C162 C161 1.434 . S
C163 C164 1.369 . S
C163 C165 1.419 . S
C163 H167 0.930 . S
C164 C163 1.369 . S
C164 C173 1.429 . S
C165 C163 1.419 . S
C165 C166 1.363 . S
C165 H168 0.929 . S
C166 C165 1.363 . S
C166 C172 1.428 . S
H167 C163 0.930 . S
H168 C165 0.929 . S
S169 N170 1.613 . S
S169 N171 1.610 . S
N170 S169 1.613 . S
N170 C173 1.350 . S
N171 S169 1.610 . S
N171 C172 1.351 . S
C172 C166 1.428 . S
C172 N171 1.351 . S
C172 C173 1.434 . S
C173 C164 1.429 . S
C173 N170 1.350 . S
C173 C172 1.434 . S
C174 C175 1.369 . S
C174 C176 1.419 . S
C174 H178 0.930 . S
C175 C174 1.369 . S
C175 C184 1.429 . S
C176 C174 1.419 . S
C176 C177 1.363 . S
C176 H179 0.929 . S
C177 C176 1.363 . S
C177 C183 1.428 . S
H178 C174 0.930 . S
H179 C176 0.929 . S
S180 N181 1.613 . S
S180 N182 1.610 . S
N181 S180 1.613 . S
N181 C184 1.350 . S
N182 S180 1.610 . S
N182 C183 1.351 . S
C183 C177 1.428 . S
C183 N182 1.351 . S
C183 C184 1.434 . S
C184 C175 1.429 . S
C184 N181 1.350 . S
C184 C183 1.434 . S
C185 C186 1.369 1_455 S
C185 C187 1.419 . S
C185 H189 0.930 . S
C186 C185 1.369 1_655 S
C186 C195 1.429 . S
C187 C185 1.419 . S
C187 C188 1.363 1_455 S
C187 H190 0.929 . S
C188 C187 1.363 1_655 S
C188 C194 1.428 . S
H189 C185 0.930 . S
H190 C187 0.929 . S
S191 N192 1.613 . S
S191 N193 1.610 . S
N192 S191 1.613 . S
N192 C195 1.350 . S
N193 S191 1.610 . S
N193 C194 1.351 . S
C194 C188 1.428 . S
C194 N193 1.351 . S
C194 C195 1.434 . S
C195 C186 1.429 . S
C195 N192 1.350 . S
C195 C194 1.434 . S
C196 C197 1.369 . S
C196 C198 1.419 . S
C196 H200 0.930 1_556 S
C197 C196 1.369 . S
C197 C206 1.429 . S
C198 C196 1.419 . S
C198 C199 1.363 . S
C198 H201 0.929 . S
C199 C198 1.363 . S
C199 C205 1.428 . S
H200 C196 0.930 1_554 S
H201 C198 0.929 . S
S202 N203 1.613 . S
S202 N204 1.610 . S
N203 S202 1.613 . S
N203 C206 1.350 . S
N204 S202 1.610 . S
N204 C205 1.351 . S
C205 C199 1.428 . S
C205 N204 1.351 . S
C205 C206 1.434 . S
C206 C197 1.429 . S
C206 N203 1.350 . S
C206 C205 1.434 . S
C207 C208 1.369 . S
C207 C209 1.419 . S
C207 H211 0.930 . S
C208 C207 1.369 . S
C208 C217 1.429 . S
C209 C207 1.419 . S
C209 C210 1.363 . S
C209 H212 0.929 . S
C210 C209 1.363 . S
C210 C216 1.428 . S
H211 C207 0.930 . S
H212 C209 0.929 . S
S213 N214 1.613 . S
S213 N215 1.610 1_554 S
N214 S213 1.613 . S
N214 C217 1.350 1_554 S
N215 S213 1.610 1_556 S
N215 C216 1.351 . S
C216 C210 1.428 . S
C216 N215 1.351 . S
C216 C217 1.434 . S
C217 C208 1.429 . S
C217 N214 1.350 1_556 S
C217 C216 1.434 . S
C218 C219 1.369 . S
C218 C220 1.419 . S
C218 H222 0.930 . S
C219 C218 1.369 . S
C219 C228 1.429 . S
C220 C218 1.419 . S
C220 C221 1.363 . S
C220 H223 0.929 . S
C221 C220 1.363 . S
C221 C227 1.428 . S
H222 C218 0.930 . S
H223 C220 0.929 . S
S224 N225 1.613 . S
S224 N226 1.610 . S
N225 S224 1.613 . S
N225 C228 1.350 . S
N226 S224 1.610 . S
N226 C227 1.351 . S
C227 C221 1.428 . S
C227 N226 1.351 . S
C227 C228 1.434 . S
C228 C219 1.429 . S
C228 N225 1.350 . S
C228 C227 1.434 . S
C229 C230 1.369 1_655 S
C229 C231 1.417 1_655 S
C229 H233 0.930 . S
C230 C229 1.369 1_455 S
C230 C239 1.429 . S
C231 C229 1.417 1_455 S
C231 C232 1.367 . S
C231 H234 0.927 1_455 S
C232 C231 1.367 . S
C232 C238 1.428 . S
H233 C229 0.930 . S
H234 C231 0.927 1_655 S
S235 N236 1.613 . S
S235 N237 1.610 1_554 S
N236 S235 1.613 . S
N236 C239 1.350 1_554 S
N237 S235 1.610 1_556 S
N237 C238 1.351 . S
C238 C232 1.428 . S
C238 N237 1.351 . S
C238 C239 1.434 . S
C239 C230 1.429 . S
C239 N236 1.350 1_556 S
C239 C238 1.434 . S
C240 C241 1.369 1_455 S
C240 C242 1.419 1_455 S
C240 H244 0.930 . S
C241 C240 1.369 1_655 S
C241 C250 1.429 . S
C242 C240 1.419 1_655 S
C242 C243 1.363 . S
C242 H245 0.929 1_655 S
C243 C242 1.363 . S
C243 C249 1.428 . S
H244 C240 0.930 . S
H245 C242 0.929 1_455 S
S246 N247 1.613 . S
S246 N248 1.610 . S
N247 S246 1.613 . S
N247 C250 1.350 . S
N248 S246 1.610 . S
N248 C249 1.351 . S
C249 C243 1.428 . S
C249 N248 1.351 . S
C249 C250 1.434 . S
C250 C241 1.429 . S
C250 N247 1.350 . S
C250 C249 1.434 . S
C251 C252 1.369 . S
C251 C253 1.419 . S
C251 H255 0.930 . S
C252 C251 1.369 . S
C252 C261 1.429 . S
C253 C251 1.419 . S
C253 C254 1.363 . S
C253 H256 0.929 . S
C254 C253 1.363 . S
C254 C260 1.428 1_545 S
H255 C251 0.930 . S
H256 C253 0.929 . S
S257 N258 1.613 1_565 S
S257 N259 1.610 . S
N258 S257 1.613 1_545 S
N258 C261 1.350 . S
N259 S257 1.610 . S
N259 C260 1.351 . S
C260 C254 1.428 1_565 S
C260 N259 1.351 . S
C260 C261 1.434 1_565 S
C261 C252 1.429 . S
C261 N258 1.350 . S
C261 C260 1.434 1_545 S
C262 C263 1.369 . S
C262 C264 1.419 . S
C262 H266 0.930 . S
C263 C262 1.369 . S
C263 C272 1.429 . S
C264 C262 1.419 . S
C264 C265 1.363 . S
C264 H267 0.929 . S
C265 C264 1.363 . S
C265 C271 1.428 . S
H266 C262 0.930 . S
H267 C264 0.929 . S
S268 N269 1.613 . S
S268 N270 1.610 . S
N269 S268 1.613 . S
N269 C272 1.350 . S
N270 S268 1.610 . S
N270 C271 1.351 . S
C271 C265 1.428 . S
C271 N270 1.351 . S
C271 C272 1.434 . S
C272 C263 1.429 . S
C272 N269 1.350 . S
C272 C271 1.434 . S
C273 C274 1.369 . S
C273 C275 1.419 . S
C273 H277 0.930 . S
C274 C273 1.369 . S
C274 C283 1.429 . S
C275 C273 1.419 . S
C275 C276 1.363 . S
C275 H278 0.929 . S
C276 C275 1.363 . S
C276 C282 1.428 . S
H277 C273 0.930 . S
H278 C275 0.929 . S
S279 N280 1.613 . S
S279 N281 1.610 . S
N280 S279 1.613 . S
N280 C283 1.350 . S
N281 S279 1.610 . S
N281 C282 1.351 . S
C282 C276 1.428 . S
C282 N281 1.351 . S
C282 C283 1.434 . S
C283 C274 1.429 . S
C283 N280 1.350 . S
C283 C282 1.434 . S
C284 C285 1.369 1_655 S
C284 C286 1.419 . S
C284 H288 0.930 . S
C285 C284 1.369 1_455 S
C285 C294 1.429 . S
C286 C284 1.419 . S
C286 C287 1.363 1_655 S
C286 H289 0.929 . S
C287 C286 1.363 1_455 S
C287 C293 1.428 . S
H288 C284 0.930 . S
H289 C286 0.929 . S
S290 N291 1.613 . S
S290 N292 1.610 . S
N291 S290 1.613 . S
N291 C294 1.350 . S
N292 S290 1.610 . S
N292 C293 1.351 . S
C293 C287 1.428 . S
C293 N292 1.351 . S
C293 C294 1.434 . S
C294 C285 1.429 . S
C294 N291 1.350 . S
C294 C293 1.434 . S
C295 C296 1.369 . S
C295 C297 1.419 1_565 S
C295 H299 0.930 . S
C296 C295 1.369 . S
C296 C305 1.429 . S
C297 C295 1.419 1_545 S
C297 C298 1.363 1_545 S
C297 H300 0.929 . S
C298 C297 1.363 1_565 S
C298 C304 1.428 . S
H299 C295 0.930 . S
H300 C297 0.929 . S
S301 N302 1.613 . S
S301 N303 1.610 . S
N302 S301 1.613 . S
N302 C305 1.350 . S
N303 S301 1.610 . S
N303 C304 1.351 . S
C304 C298 1.428 . S
C304 N303 1.351 . S
C304 C305 1.434 . S
C305 C296 1.429 . S
C305 N302 1.350 . S
C305 C304 1.434 . S
C306 C307 1.369 . S
C306 C308 1.419 . S
C306 H310 0.930 . S
C307 C306 1.369 . S
C307 C316 1.429 . S
C308 C306 1.419 . S
C308 C309 1.363 . S
C308 H311 0.929 . S
C309 C308 1.363 . S
C309 C315 1.428 . S
H310 C306 0.930 . S
H311 C308 0.929 . S
S312 N313 1.613 . S
S312 N314 1.610 . S
N313 S312 1.613 . S
N313 C316 1.350 . S
N314 S312 1.610 . S
N314 C315 1.351 . S
C315 C309 1.428 . S
C315 N314 1.351 . S
C315 C316 1.434 . S
C316 C307 1.429 . S
C316 N313 1.350 . S
C316 C315 1.434 . S
C317 C318 1.369 . S
C317 C319 1.419 . S
C317 H321 0.930 . S
C318 C317 1.369 . S
C318 C327 1.429 . S
C319 C317 1.419 . S
C319 C320 1.363 . S
C319 H322 0.929 . S
C320 C319 1.363 . S
C320 C326 1.428 . S
H321 C317 0.930 . S
H322 C319 0.929 . S
S323 N324 1.613 . S
S323 N325 1.610 . S
N324 S323 1.613 . S
N324 C327 1.350 . S
N325 S323 1.610 . S
N325 C326 1.351 . S
C326 C320 1.428 . S
C326 N325 1.351 . S
C326 C327 1.434 . S
C327 C318 1.429 . S
C327 N324 1.350 . S
C327 C326 1.434 . S
C328 C329 1.369 . S
C328 C330 1.419 . S
C328 H332 0.930 . S
C329 C328 1.369 . S
C329 C338 1.429 1_455 S
C330 C328 1.419 . S
C330 C331 1.363 . S
C330 H333 0.929 . S
C331 C330 1.363 . S
C331 C337 1.428 1_455 S
H332 C328 0.930 . S
H333 C330 0.929 . S
S334 N335 1.613 . S
S334 N336 1.610 . S
N335 S334 1.613 . S
N335 C338 1.350 . S
N336 S334 1.610 . S
N336 C337 1.351 . S
C337 C331 1.428 1_655 S
C337 N336 1.351 . S
C337 C338 1.434 . S
C338 C329 1.429 1_655 S
C338 N335 1.350 . S
C338 C337 1.434 . S
C339 C340 1.369 . S
C339 C341 1.419 . S
C339 H343 0.930 . S
C340 C339 1.369 . S
C340 C349 1.424 1_556 S
C341 C339 1.419 . S
C341 C342 1.363 . S
C341 H344 0.929 . S
C342 C341 1.363 . S
C342 C348 1.428 . S
H343 C339 0.930 . S
H344 C341 0.929 . S
S345 N346 1.613 . S
S345 N347 1.610 . S
N346 S345 1.613 . S
N346 C349 1.359 . S
N347 S345 1.610 . S
N347 C348 1.351 1_554 S
C348 C342 1.428 . S
C348 N347 1.351 1_556 S
C348 C349 1.430 1_556 S
C349 C340 1.424 1_554 S
C349 N346 1.359 . S
C349 C348 1.430 1_554 S
C350 C351 1.369 . S
C350 C352 1.419 . S
C350 H354 0.930 . S
C351 C350 1.369 . S
C351 C360 1.429 . S
C352 C350 1.419 . S
C352 C353 1.363 . S
C352 H355 0.929 . S
C353 C352 1.363 . S
C353 C359 1.428 . S
H354 C350 0.930 . S
H355 C352 0.929 . S
S356 N357 1.613 . S
S356 N358 1.610 . S
N357 S356 1.613 . S
N357 C360 1.350 . S
N358 S356 1.610 . S
N358 C359 1.351 . S
C359 C353 1.428 . S
C359 N358 1.351 . S
C359 C360 1.434 . S
C360 C351 1.429 . S
C360 N357 1.350 . S
C360 C359 1.434 . S
C361 C362 1.369 . S
C361 C363 1.419 . S
C361 H365 0.930 1_556 S
C362 C361 1.369 . S
C362 C371 1.429 . S
C363 C361 1.419 . S
C363 C364 1.363 . S
C363 H366 0.929 . S
C364 C363 1.363 . S
C364 C370 1.428 . S
H365 C361 0.930 1_554 S
H366 C363 0.929 . S
S367 N368 1.613 . S
S367 N369 1.610 . S
N368 S367 1.613 . S
N368 C371 1.350 . S
N369 S367 1.610 . S
N369 C370 1.351 . S
C370 C364 1.428 . S
C370 N369 1.351 . S
C370 C371 1.434 . S
C371 C362 1.429 . S
C371 N368 1.350 . S
C371 C370 1.434 . S
C372 C373 1.369 1_455 S
C372 C374 1.419 . S
C372 H376 0.930 . S
C373 C372 1.369 1_655 S
C373 C382 1.429 . S
C374 C372 1.419 . S
C374 C375 1.363 1_455 S
C374 H377 0.929 . S
C375 C374 1.363 1_655 S
C375 C381 1.428 . S
H376 C372 0.930 . S
H377 C374 0.929 . S
S378 N379 1.613 . S
S378 N380 1.610 . S
N379 S378 1.613 . S
N379 C382 1.350 . S
N380 S378 1.610 . S
N380 C381 1.351 . S
C381 C375 1.428 . S
C381 N380 1.351 . S
C381 C382 1.434 . S
C382 C373 1.429 . S
C382 N379 1.350 . S
C382 C381 1.434 . S
C383 C384 1.369 . S
C383 C385 1.419 . S
C383 H387 0.930 . S
C384 C383 1.369 . S
C384 C393 1.429 . S
C385 C383 1.419 . S
C385 C386 1.363 . S
C385 H388 0.929 . S
C386 C385 1.363 . S
C386 C392 1.428 . S
H387 C383 0.930 . S
H388 C385 0.929 . S
S389 N390 1.613 . S
S389 N391 1.610 . S
N390 S389 1.613 . S
N390 C393 1.350 . S
N391 S389 1.610 . S
N391 C392 1.351 . S
C392 C386 1.428 . S
C392 N391 1.351 . S
C392 C393 1.434 . S
C393 C384 1.429 . S
C393 N390 1.350 . S
C393 C392 1.434 . S
C394 C395 1.369 . S
C394 C396 1.419 . S
C394 H398 0.930 . S
C395 C394 1.369 . S
C395 C404 1.429 . S
C396 C394 1.419 . S
C396 C397 1.363 . S
C396 H399 0.929 . S
C397 C396 1.363 . S
C397 C403 1.428 . S
H398 C394 0.930 . S
H399 C396 0.929 . S
S400 N401 1.613 . S
S400 N402 1.610 . S
N401 S400 1.613 . S
N401 C404 1.350 . S
N402 S400 1.610 . S
N402 C403 1.351 . S
C403 C397 1.428 . S
C403 N402 1.351 . S
C403 C404 1.434 . S
C404 C395 1.429 . S
C404 N401 1.350 . S
C404 C403 1.434 . S
C405 C406 1.369 . S
C405 C407 1.419 . S
C405 H409 0.930 . S
C406 C405 1.369 . S
C406 C415 1.429 . S
C407 C405 1.419 . S
C407 C408 1.363 . S
C407 H410 0.929 . S
C408 C407 1.363 . S
C408 C414 1.428 . S
H409 C405 0.930 . S
H410 C407 0.929 . S
S411 N412 1.613 . S
S411 N413 1.610 . S
N412 S411 1.613 . S
N412 C415 1.350 . S
N413 S411 1.610 . S
N413 C414 1.351 . S
C414 C408 1.428 . S
C414 N413 1.351 . S
C414 C415 1.434 . S
C415 C406 1.429 . S
C415 N412 1.350 . S
C415 C414 1.434 . S
C153 C61 1.563 . S
C155 C90 1.603 . S
C166 C110 1.464 . S
C164 C70 1.479 . S
C177 C130 1.588 . S
C175 C43 1.554 . S
C188 C150 1.480 . S
C186 C52 1.467 . S
C199 C91 1.610 . S
C197 C25 1.564 1_556 S
C208 C34 1.482 1_556 S
C210 C111 1.463 . S
C219 C7 1.560 1_556 S
C221 C131 1.589 . S
C230 C16 1.475 1_456 S
C232 C151 1.475 . S
C243 C81 0.916 . S
C241 C50 0.967 . S
C254 C101 0.966 . S
C252 C59 0.999 . S
C265 C121 0.908 . S
C263 C67 0.956 . S
C274 C41 1.008 . S
C276 C141 0.954 . S
C285 C14 0.960 1_455 S
C287 C84 0.924 . S
C298 C104 0.953 . S
C296 C23 1.017 . S
C309 C124 0.923 . S
C307 C31 0.949 . S
C318 C5 1.011 . S
C320 C144 0.965 . S
C329 C49 1.590 1_456 S
C331 C74 1.543 . S
C340 C58 1.608 1_556 S
C342 C94 1.571 . S
C353 C114 1.521 . S
C351 C68 1.563 1_556 S
C364 C134 1.600 . S
C362 C40 1.651 1_556 S
C373 C13 1.586 . S
C375 C76 1.552 . S
C386 C96 1.566 . S
C384 C22 1.621 . S
C397 C116 1.523 . S
C395 C32 1.561 . S
C406 C4 1.654 . S
C408 C136 1.600 . S
