# Generated by pormake.
# Topology tsx, (6,3)-cn, num edge types: 1
# Building blocks:
#     Node 0, Type 0, BuildingBlock: LEVNOQ01_clean_sbu_1, # of connection points: 6
#     Node 1, Type 0, BuildingBlock: LEVNOQ01_clean_sbu_1, # of connection points: 6
#     Node 2, Type 1, BuildingBlock: ESEHIV_clean_linker_0, # of connection points: 3
#     Node 3, Type 1, BuildingBlock: ESEHIV_clean_linker_0, # of connection points: 3
#     Node 4, Type 1, BuildingBlock: ESEHIV_clean_linker_0, # of connection points: 3
#     Node 5, Type 1, BuildingBlock: ESEHIV_clean_linker_0, # of connection points: 3
#     Edge 6, Type (0, 1), BuildingBlock: FUNLAD_clean_linker_0, # of connection points: 2
#     Edge 7, Type (0, 1), BuildingBlock: FUNLAD_clean_linker_0, # of connection points: 2
#     Edge 8, Type (0, 1), BuildingBlock: FUNLAD_clean_linker_0, # of connection points: 2
#     Edge 9, Type (0, 1), BuildingBlock: FUNLAD_clean_linker_0, # of connection points: 2
#     Edge 10, Type (0, 1), BuildingBlock: FUNLAD_clean_linker_0, # of connection points: 2
#     Edge 11, Type (0, 1), BuildingBlock: FUNLAD_clean_linker_0, # of connection points: 2
#     Edge 12, Type (0, 1), BuildingBlock: FUNLAD_clean_linker_0, # of connection points: 2
#     Edge 13, Type (0, 1), BuildingBlock: FUNLAD_clean_linker_0, # of connection points: 2
#     Edge 14, Type (0, 1), BuildingBlock: FUNLAD_clean_linker_0, # of connection points: 2
#     Edge 15, Type (0, 1), BuildingBlock: FUNLAD_clean_linker_0, # of connection points: 2
#     Edge 16, Type (0, 1), BuildingBlock: FUNLAD_clean_linker_0, # of connection points: 2
#     Edge 17, Type (0, 1), BuildingBlock: FUNLAD_clean_linker_0, # of connection points: 2
# Relax obj value: 0.130
# Max RMSD: 0.158
# Mean RMSD: 0.120
data_MOF--net-tsx--node1-LEVNOQ01_clean_sbu_1--node2-ESEHIV_clean_linker_0--edge1-FUNLAD_clean_linker_0
_symmetry_space_group_name_H-M    P1
_symmetry_Int_Tables_number       1
_symmetry_cell_setting            triclinic
loop_
_symmetry_equiv_pos_as_xyz
'x, y, z'
_cell_length_a     20.242349
_cell_length_b     24.739384
_cell_length_c     40.836666
_cell_angle_alpha  97.776256
_cell_angle_beta   90.665531
_cell_angle_gamma 91.181001
loop_
_atom_site_label
_atom_site_type_symbol
_atom_site_fract_x
_atom_site_fract_y
_atom_site_fract_z
_atom_type_partial_charge
O0 O 0.13467 0.0156 0.07214 0.0
Mg1 Mg 0.16888 0.03458 0.02644 0.0
O2 O 0.03202 0.02299 0.05536 0.0
Mg3 Mg 0.04644 0.02414 -0.00158 0.0
O4 O 0.128 0.0955 0.00418 0.0
O5 O 0.226 0.10179 0.03144 0.0
O6 O 0.06056 0.02765 0.94106 0.0
O7 O 0.97213 0.09505 0.00061 0.0
Mg8 Mg 0.929 0.98082 0.95154 0.0
O9 O 0.96445 0.95848 -0.00626 0.0
O10 O 0.9959 0.96428 0.91328 0.0
O11 O 0.89632 0.06171 0.96296 0.0
O12 O 0.8774 0.91677 0.96643 0.0
C13 C 0.17494 0.93633 0.98889 0.0
C14 C 0.07351 0.01587 0.07803 0.0
C15 C 0.18267 0.1223 0.01357 0.0
C16 C 0.04241 -0.00079 0.91381 0.0
C17 C 0.9197 0.10057 0.98372 0.0
C18 C 0.91816 0.92127 0.99121 0.0
O19 O 0.21627 0.97488 -0.00419 0.0
O20 O 0.11355 0.94552 0.99268 0.0
O21 O 0.65173 0.52139 0.57565 0.0
Mg22 Mg 0.68983 0.53792 0.53001 0.0
O23 O 0.54723 0.51147 0.5585 0.0
Mg24 Mg 0.54863 0.51922 0.50164 0.0
O25 O 0.63091 0.58707 0.50681 0.0
O26 O 0.7332 0.61136 0.5256 0.0
O27 O 0.55278 0.52743 0.44459 0.0
O28 O 0.47703 0.59309 0.51053 0.0
Mg29 Mg 0.41575 0.49122 0.46473 0.0
O30 O 0.46574 0.45185 0.49739 0.0
O31 O 0.46169 0.49132 0.41936 0.0
O32 O 0.38011 0.5656 0.48752 0.0
O33 O 0.3695 0.4214 0.47308 0.0
C34 C 0.67977 0.434 0.48915 0.0
C35 C 0.5914 0.51162 0.58118 0.0
C36 C 0.67956 0.62263 0.51079 0.0
C37 C 0.51852 0.51296 0.41826 0.0
C38 C 0.41659 0.60192 0.50404 0.0
C39 C 0.41739 0.41598 0.49345 0.0
O40 O 0.72241 0.47106 0.49844 0.0
O41 O 0.61816 0.44364 0.49148 0.0
H42 H 0.98446 0.06531 0.38466 0.0
H43 H 0.10627 0.92354 0.3803 0.0
H44 H 0.044 0.00541 0.47409 0.0
C45 C 0.01 0.03513 0.3967 0.0
C46 C 0.00927 0.03905 0.43127 0.0
C47 C 0.04467 -0.00646 0.3778 0.0
C48 C 0.0793 0.95613 0.39428 0.0
C49 C 0.07907 0.96047 0.42892 0.0
C50 C 0.04365 0.0017 0.44733 0.0
H51 H 0.89398 0.01623 0.61327 0.0
H52 H 0.065 0.12254 0.63039 0.0
H53 H -4e-05 0.0646 0.53102 0.0
C54 C 0.93341 0.03984 0.6039 0.0
C55 C 0.94098 0.03744 0.56953 0.0
C56 C 0.97855 0.06972 0.62619 0.0
C57 C 0.02976 0.09956 0.61354 0.0
C58 C 0.0379 0.09825 0.57932 0.0
C59 C 0.99313 0.06713 0.55746 0.0
H60 H 0.46649 0.55977 0.88413 0.0
H61 H 0.57597 0.41131 0.87866 0.0
H62 H 0.53674 0.50458 0.97309 0.0
C63 C 0.49218 0.52944 0.89597 0.0
C64 C 0.49803 0.5364 0.9305 0.0
C65 C 0.51976 0.48429 0.87679 0.0
C66 C 0.55426 0.44645 0.89297 0.0
C67 C 0.56112 0.45394 0.92769 0.0
C68 C 0.5325 0.49889 0.94632 0.0
H69 H 0.42883 0.49527 0.11107 0.0
H70 H 0.57163 0.62699 0.12901 0.0
H71 H 0.4957 0.57678 0.03049 0.0
C72 C 0.457 0.52804 0.10228 0.0
C73 C 0.45567 0.53373 0.06848 0.0
C74 C 0.49912 0.5617 0.12414 0.0
C75 C 0.53764 0.60221 0.11223 0.0
C76 C 0.53664 0.60815 0.07858 0.0
C77 C 0.49532 0.57377 0.05674 0.0
C78 C 0.26482 0.18782 -0.00319 0.0
C79 C 0.19862 0.17547 0.00303 0.0
C80 C 0.28441 0.24047 0.99239 0.0
C81 C 0.23805 0.28234 -0.0058 0.0
C82 C 0.17095 0.26913 -0.00161 0.0
C83 C 0.15114 0.21579 0.00241 0.0
C84 C 0.26004 0.34057 -0.00207 0.0
C85 C 0.31997 0.35676 0.98835 0.0
C86 C 0.35414 0.40721 0.00443 0.0
C87 C 0.423 0.40623 0.00888 0.0
C88 C 0.45614 0.44846 0.02902 0.0
C89 C 0.421 0.49255 0.04476 0.0
H90 H 0.26706 0.4564 0.01458 0.0
C91 C 0.35307 0.49575 0.03866 0.0
C92 C 0.31975 0.45343 0.01845 0.0
H93 H 0.32569 0.53027 0.05013 0.0
H94 H 0.30229 0.15715 -0.00311 0.0
H95 H 0.33674 0.24852 0.99011 0.0
H96 H 0.13433 0.30067 0.0002 0.0
H97 H 0.09975 0.20704 0.0072 0.0
H98 H 0.22959 0.36914 0.01325 0.0
H99 H 0.34961 0.32824 0.97252 0.0
H100 H 0.45079 0.37129 -0.00173 0.0
H101 H 0.50886 0.44579 0.03328 0.0
C102 C 0.26393 0.87376 0.96889 0.0
C103 C 0.19982 0.88066 0.98118 0.0
C104 C 0.29391 0.82349 0.96723 0.0
C105 C 0.26071 0.77901 0.9782 0.0
C106 C 0.19477 0.78459 0.98819 0.0
C107 C 0.16443 0.8353 0.98981 0.0
C108 C 0.29439 0.72653 0.97842 0.0
C109 C 0.35968 0.72508 0.98491 0.0
C110 C 0.39859 0.6755 0.97649 0.0
C111 C 0.46155 0.68134 0.96321 0.0
C112 C 0.49557 0.63557 0.94952 0.0
C113 C 0.4677 0.58342 0.94977 0.0
H114 H 0.32502 0.61734 0.98967 0.0
C115 C 0.40739 0.57703 0.96548 0.0
C116 C 0.37268 0.62295 0.97869 0.0
H117 H 0.38577 0.53674 0.96605 0.0
H118 H 0.29186 0.9078 0.96146 0.0
H119 H 0.34353 0.81982 0.95767 0.0
H120 H 0.16775 0.7504 -0.00402 0.0
H121 H 0.11483 0.83961 -0.00064 0.0
H122 H 0.26576 0.68908 0.97133 0.0
H123 H 0.38726 0.76303 0.99232 0.0
H124 H 0.48265 0.72148 0.96153 0.0
H125 H 0.54232 0.6409 0.93757 0.0
C126 C 0.91306 0.82899 0.00662 0.0
C127 C 0.90828 0.88523 0.01623 0.0
C128 C 0.87877 0.79257 0.02374 0.0
C129 C 0.83798 0.81232 0.05012 0.0
C130 C 0.84037 0.86817 0.06233 0.0
C131 C 0.87531 0.90468 0.04531 0.0
C132 C 0.78588 0.77714 0.06184 0.0
C133 C 0.75217 0.73994 0.04047 0.0
C134 C 0.69386 0.70856 0.04953 0.0
C135 C 0.67886 0.65771 0.03099 0.0
C136 C 0.62539 0.62612 0.03932 0.0
C137 C 0.58564 0.64519 0.0662 0.0
H138 H 0.66012 0.76909 0.08905 0.0
C139 C 0.59828 0.69744 0.08353 0.0
C140 C 0.65189 0.72896 0.07526 0.0
H141 H 0.56751 0.7134 0.10398 0.0
H142 H 0.93831 0.81345 0.98415 0.0
H143 H 0.88004 0.74941 0.01466 0.0
H144 H 0.81002 0.88413 0.08295 0.0
H145 H 0.87063 0.94815 0.05278 0.0
H146 H 0.7708 0.7859 0.0874 0.0
H147 H 0.76718 0.73224 0.01482 0.0
H148 H 0.70984 0.64161 0.01066 0.0
H149 H 0.61711 0.58578 0.02569 0.0
C150 C 0.83367 0.15918 0.9644 0.0
C151 C 0.88479 0.15291 0.98704 0.0
C152 C 0.79835 0.20686 0.9669 0.0
C153 C 0.81243 0.24977 0.99231 0.0
C154 C 0.86514 0.245 0.01434 0.0
C155 C 0.90099 0.19658 0.01187 0.0
C156 C 0.77303 0.29983 -0.00578 0.0
C157 C 0.70747 0.29549 0.98805 0.0
C158 C 0.6682 0.33831 0.97555 0.0
C159 C 0.61513 0.32128 0.95389 0.0
C160 C 0.58052 0.35891 0.93832 0.0
C161 C 0.59742 0.4145 0.94467 0.0
H162 H 0.72411 0.4088 -0.00037 0.0
C163 C 0.64859 0.43216 0.96744 0.0
C164 C 0.68421 0.39427 0.98263 0.0
H165 H 0.66194 0.47511 0.97288 0.0
H166 H 0.82064 0.12717 0.94443 0.0
H167 H 0.76002 0.21022 0.94858 0.0
H168 H 0.87771 0.27816 0.03369 0.0
H169 H 0.94068 0.19316 0.02944 0.0
H170 H 0.79914 0.33893 -0.00359 0.0
H171 H 0.68368 0.25537 0.98673 0.0
H172 H 0.60175 0.27838 0.94807 0.0
H173 H 0.54052 0.34456 0.92128 0.0
C174 C 0.7247 0.69073 0.47776 0.0
C175 C 0.67606 0.67615 0.49929 0.0
C176 C 0.73786 0.74552 0.47502 0.0
C177 C 0.70403 0.78685 0.49479 0.0
C178 C 0.65037 0.77173 0.51349 0.0
C179 C 0.63647 0.71665 0.51577 0.0
C180 C 0.72846 0.84476 0.50005 0.0
C181 C 0.79268 0.85869 0.49651 0.0
C182 C 0.82484 0.91157 0.51082 0.0
C183 C 0.89181 0.92021 0.50385 0.0
C184 C 0.92855 0.9631 0.52157 0.0
C185 C 0.89915 -0.00131 0.54668 0.0
H186 H 0.74307 0.94489 0.54088 0.0
C187 C 0.83112 -0.00738 0.5521 0.0
C188 C 0.79427 0.94954 0.53443 0.0
H189 H 0.80694 0.01988 0.57103 0.0
H190 H 0.75564 0.65988 0.46474 0.0
H191 H 0.77713 0.75504 0.45887 0.0
H192 H 0.62267 0.80258 0.52855 0.0
H193 H 0.59909 0.70617 0.53276 0.0
H194 H 0.69454 0.87497 0.51122 0.0
H195 H 0.82615 0.82788 0.48557 0.0
H196 H 0.91697 0.89182 0.48589 0.0
H197 H 0.981 0.9661 0.51704 0.0
C198 C 0.76801 0.37085 0.46869 0.0
C199 C 0.70336 0.3781 0.48019 0.0
C200 C 0.79708 0.32018 0.46694 0.0
C201 C 0.7624 0.27563 0.47701 0.0
C202 C 0.69594 0.28154 0.48599 0.0
C203 C 0.66652 0.33266 0.48771 0.0
C204 C 0.79556 0.22297 0.47754 0.0
C205 C 0.85989 0.22163 0.48613 0.0
C206 C 0.90055 0.17312 0.47741 0.0
C207 C 0.96471 0.18131 0.46614 0.0
C208 C 0.00127 0.13714 0.4523 0.0
C209 C 0.97478 0.0841 0.45037 0.0
H210 H 0.82686 0.11221 0.48669 0.0
C211 C 0.91288 0.07521 0.46401 0.0
C212 C 0.87558 0.11963 0.47734 0.0
H213 H 0.89225 0.03423 0.46292 0.0
H214 H 0.79714 0.40498 0.4622 0.0
H215 H 0.84733 0.31626 0.45824 0.0
H216 H 0.66784 0.24734 0.49309 0.0
H217 H 0.61655 0.33725 0.49674 0.0
H218 H 0.76798 0.18562 0.4687 0.0
H219 H 0.8861 0.2596 0.49527 0.0
H220 H 0.98512 0.22218 0.46624 0.0
H221 H 0.04928 0.14445 0.44207 0.0
C222 C 0.40583 0.31722 0.49394 0.0
C223 C 0.41348 0.36939 0.51195 0.0
C224 C 0.37559 0.27517 0.50817 0.0
C225 C 0.35154 0.28507 0.54051 0.0
C226 C 0.36629 0.33545 0.55978 0.0
C227 C 0.39697 0.37766 0.54549 0.0
C228 C 0.30447 0.24615 0.55291 0.0
C229 C 0.25668 0.22041 0.53293 0.0
C230 C 0.20221 0.1874 0.5447 0.0
C231 C 0.14105 0.18408 0.52786 0.0
C232 C 0.08782 0.15489 0.53887 0.0
C233 C 0.09502 0.12762 0.56668 0.0
H234 H 0.25717 0.15915 0.58481 0.0
C235 C 0.15716 0.12923 0.58271 0.0
C236 C 0.21008 0.15901 0.57197 0.0
H237 H 0.16517 0.10721 0.60354 0.0
H238 H 0.41797 0.31025 0.46795 0.0
H239 H 0.36686 0.23611 0.49311 0.0
H240 H 0.34881 0.34375 0.5849 0.0
H241 H 0.4015 0.41797 0.5596 0.0
H242 H 0.30382 0.24415 0.57931 0.0
H243 H 0.25375 0.22776 0.50731 0.0
H244 H 0.1339 0.20523 0.50656 0.0
H245 H 0.04068 0.15475 0.52607 0.0
C246 C 0.32184 0.66131 0.51886 0.0
C247 C 0.38911 0.65667 0.51161 0.0
C248 C 0.28954 0.70994 0.51685 0.0
C249 C 0.32367 0.75495 0.50669 0.0
C250 C 0.39249 0.75159 0.50236 0.0
C251 C 0.42509 0.7029 0.50494 0.0
C252 C 0.28908 0.80335 0.49702 0.0
C253 C 0.22265 0.80718 0.49545 0.0
C254 C 0.18723 0.84895 0.47941 0.0
C255 C 0.12061 0.83814 0.47009 0.0
C256 C 0.08549 0.8744 0.45355 0.0
C257 C 0.11634 0.92223 0.4461 0.0
H258 H 0.26794 0.9088 0.48002 0.0
C259 C 0.18219 0.93417 0.4559 0.0
C260 C 0.2175 0.89791 0.47253 0.0
H261 H 0.20617 0.97159 0.45073 0.0
H262 H 0.2932 0.62616 0.52426 0.0
H263 H 0.23733 0.7102 0.52178 0.0
H264 H 0.42051 0.78561 0.49498 0.0
H265 H 0.47705 0.70017 0.49899 0.0
H266 H 0.31991 0.83413 0.48777 0.0
H267 H 0.19136 0.77593 0.50372 0.0
H268 H 0.09579 0.80102 0.47519 0.0
H269 H 0.03435 0.86505 0.44645 0.0
C270 C 0.09052 0.97445 0.12946 0.0
C271 C 0.05198 0.00684 0.11135 0.0
C272 C 0.07566 0.96928 0.16212 0.0
C273 C 0.02276 -0.00235 0.17791 0.0
C274 C 0.98178 0.02755 0.15921 0.0
C275 C 0.99612 0.03201 0.1261 0.0
C276 C 0.01026 -0.00287 0.2138 0.0
C277 C 0.05937 -0.00974 0.23548 0.0
C278 C 0.05205 -0.01013 0.27175 0.0
C279 C 0.10813 0.97843 0.29004 0.0
C280 C 0.10546 0.9788 0.32421 0.0
C281 C 0.04647 -0.00932 0.34116 0.0
H282 H 0.94804 0.01037 0.27585 0.0
C283 C 0.98994 0.00158 0.32293 0.0
C284 C 0.99258 0.00122 0.28864 0.0
H285 H 0.94344 0.01034 0.33518 0.0
H286 H 0.1328 0.95329 0.11839 0.0
H287 H 0.10627 0.94326 0.17489 0.0
H288 H 0.93993 0.04898 0.17054 0.0
H289 H 0.9653 0.05686 0.11256 0.0
H290 H 0.96038 0.00483 0.22228 0.0
H291 H 0.10934 0.98553 0.22633 0.0
H292 H 0.15473 0.9696 0.27787 0.0
H293 H 0.15021 0.97103 0.33743 0.0
C294 C 0.05641 0.97545 0.85339 0.0
C295 C 0.06281 0.01448 0.88165 0.0
C296 C 0.05506 -0.00852 0.82199 0.0
C297 C 0.05934 0.04706 0.81815 0.0
C298 C 0.07271 0.08564 0.8461 0.0
C299 C 0.07427 0.06949 0.87774 0.0
C300 C 0.04723 0.06509 0.78536 0.0
C301 C 0.00222 0.03897 0.76387 0.0
C302 C 0.99162 0.05043 0.72949 0.0
C303 C 0.96724 0.0078 0.70605 0.0
C304 C 0.96084 0.01468 0.67284 0.0
C305 C 0.97727 0.06497 0.66224 0.0
H306 H 0.02224 0.1359 0.73701 0.0
C307 C -0.00201 0.10879 0.68614 0.0
C308 C 0.00554 0.10154 0.71941 0.0
H309 H 0.00939 0.14856 0.67912 0.0
H310 H 0.04829 0.93268 0.85566 0.0
H311 H 0.04805 0.96036 0.80083 0.0
H312 H 0.07764 0.1286 0.84367 0.0
H313 H 0.07904 0.10049 0.89912 0.0
H314 H 0.07505 0.10024 0.77923 0.0
H315 H 0.97389 0.00481 0.7711 0.0
H316 H 0.95555 0.96812 0.71321 0.0
H317 H 0.94575 0.97962 0.65538 0.0
C318 C 0.51373 0.50765 0.62887 0.0
C319 C 0.5747 0.49562 0.61378 0.0
C320 C 0.50161 0.49442 0.66071 0.0
C321 C 0.55002 0.46807 0.67761 0.0
C322 C 0.60931 0.45387 0.66161 0.0
C323 C 0.6218 0.46793 0.63035 0.0
C324 C 0.54273 0.45568 0.7121 0.0
C325 C 0.50357 0.48321 0.73473 0.0
C326 C 0.50665 0.47717 0.77056 0.0
C327 C 0.4519 0.49182 0.79031 0.0
C328 C 0.45528 0.49199 0.82456 0.0
C329 C 0.51395 0.47824 0.84003 0.0
H330 H 0.60896 0.45191 0.77187 0.0
C331 C 0.56827 0.46219 0.82019 0.0
C332 C 0.56482 0.4618 0.78591 0.0
H333 H 0.61456 0.45224 0.83127 0.0
H334 H 0.4763 0.52845 0.61645 0.0
H335 H 0.45452 0.50482 0.67184 0.0
H336 H 0.64719 0.43305 0.67374 0.0
H337 H 0.66875 0.45704 0.61909 0.0
H338 H 0.57523 0.42519 0.71976 0.0
H339 H 0.46991 0.51308 0.72734 0.0
H340 H 0.40659 0.504 0.77927 0.0
H341 H 0.4121 0.50376 0.83901 0.0
C342 C 0.57344 0.49862 0.36351 0.0
C343 C 0.53656 0.53144 0.3869 0.0
C344 C 0.57342 0.50835 0.33047 0.0
C345 C 0.53576 0.55088 0.32042 0.0
C346 C 0.50258 0.58553 0.3446 0.0
C347 C 0.50285 0.57584 0.37743 0.0
C348 C 0.52433 0.55821 0.28517 0.0
C349 C 0.5536 0.52941 0.2592 0.0
C350 C 0.53734 0.53666 0.22455 0.0
C351 C 0.58759 0.53112 0.20112 0.0
C352 C 0.5745 0.53864 0.16846 0.0
C353 C 0.5105 0.55067 0.15839 0.0
H354 H 0.43246 0.55062 0.23167 0.0
C355 C 0.45939 0.55429 0.1814 0.0
C356 C 0.47274 0.54764 0.21435 0.0
H357 H 0.40967 0.5634 0.17407 0.0
H358 H 0.5987 0.46349 0.37031 0.0
H359 H 0.59999 0.48054 0.31295 0.0
H360 H 0.47332 0.6186 0.33783 0.0
H361 H 0.47294 0.60094 0.39507 0.0
H362 H 0.48892 0.58873 0.28034 0.0
H363 H 0.5926 0.50145 0.26296 0.0
H364 H 0.63746 0.52207 0.20825 0.0
H365 H 0.61456 0.53528 0.15097 0.0
loop_
_geom_bond_atom_site_label_1
_geom_bond_atom_site_label_2
_geom_bond_distance
_geom_bond_site_symmetry_2
_ccdc_geom_bond_type
O0 Mg1 1.990 . S
O0 C14 1.253 . S
Mg1 O0 1.990 . S
Mg1 O4 2.180 . S
Mg1 O5 2.117 . S
Mg1 O19 2.030 1_545 S
O2 Mg3 2.071 1_554 S
O2 C14 1.260 . S
Mg3 O2 2.071 1_556 S
Mg3 O4 2.099 1_556 S
Mg3 O6 2.080 . S
Mg3 O7 2.080 1_556 S
Mg3 O9 2.099 1_445 S
Mg3 O20 2.079 1_545 S
O4 Mg1 2.180 . S
O4 Mg3 2.099 1_554 S
O4 C15 1.279 . S
O5 Mg1 2.117 . S
O5 C15 1.250 . S
O6 Mg3 2.080 . S
O6 C16 1.264 . S
O7 Mg3 2.080 1_554 S
O7 C17 1.248 1_454 S
Mg8 O9 2.180 1_545 S
Mg8 O10 2.030 . S
Mg8 O11 1.990 . S
Mg8 O12 2.117 1_545 S
O9 Mg3 2.099 1_665 S
O9 Mg8 2.180 1_565 S
O9 C18 1.279 1_556 S
O10 Mg8 2.030 . S
O10 C16 1.248 1_655 S
O11 Mg8 1.990 . S
O11 C17 1.253 . S
O12 Mg8 2.117 1_565 S
O12 C18 1.250 1_556 S
C13 O19 1.248 . S
C13 O20 1.264 1_554 S
C14 O0 1.253 . S
C14 O2 1.260 . S
C15 O4 1.279 . S
C15 O5 1.250 . S
C16 O6 1.264 . S
C16 O10 1.248 1_455 S
C17 O7 1.248 1_656 S
C17 O11 1.253 . S
C18 O9 1.279 1_554 S
C18 O12 1.250 1_554 S
O19 Mg1 2.030 1_565 S
O19 C13 1.248 . S
O20 Mg3 2.079 1_565 S
O20 C13 1.264 1_556 S
O21 Mg22 1.990 . S
O21 C35 1.253 . S
Mg22 O21 1.990 . S
Mg22 O25 2.180 . S
Mg22 O26 2.117 . S
Mg22 O40 2.030 . S
O23 Mg24 2.072 . S
O23 C35 1.260 . S
Mg24 O23 2.072 . S
Mg24 O25 2.099 . S
Mg24 O27 2.079 . S
Mg24 O28 2.072 . S
Mg24 O30 2.099 . S
Mg24 O41 2.079 . S
O25 Mg22 2.180 . S
O25 Mg24 2.099 . S
O25 C36 1.279 . S
O26 Mg22 2.117 . S
O26 C36 1.250 . S
O27 Mg24 2.079 . S
O27 C37 1.264 . S
O28 Mg24 2.072 . S
O28 C38 1.260 . S
Mg29 O30 2.180 . S
Mg29 O31 2.030 . S
Mg29 O32 1.990 . S
Mg29 O33 2.117 . S
O30 Mg24 2.099 . S
O30 Mg29 2.180 . S
O30 C39 1.279 . S
O31 Mg29 2.030 . S
O31 C37 1.248 . S
O32 Mg29 1.990 . S
O32 C38 1.253 . S
O33 Mg29 2.117 . S
O33 C39 1.250 . S
C34 O40 1.248 . S
C34 O41 1.264 . S
C35 O21 1.253 . S
C35 O23 1.260 . S
C36 O25 1.279 . S
C36 O26 1.250 . S
C37 O27 1.264 . S
C37 O31 1.248 . S
C38 O28 1.260 . S
C38 O32 1.253 . S
C39 O30 1.279 . S
C39 O33 1.250 . S
O40 Mg22 2.030 . S
O40 C34 1.248 . S
O41 Mg24 2.079 . S
O41 C34 1.264 . S
H42 C45 0.931 1_655 S
H43 C48 0.928 . S
H44 C50 0.930 . S
C45 H42 0.931 1_455 S
C45 C46 1.413 . S
C45 C47 1.355 1_545 S
C46 C45 1.413 . S
C46 C50 1.429 . S
C47 C45 1.355 1_565 S
C47 C48 1.378 . S
C48 H43 0.928 . S
C48 C47 1.378 . S
C48 C49 1.404 . S
C49 C48 1.404 . S
C49 C50 1.391 1_565 S
C50 H44 0.930 . S
C50 C46 1.429 . S
C50 C49 1.391 1_545 S
H51 C54 0.931 . S
H52 C57 0.928 . S
H53 C59 0.931 . S
C54 H51 0.931 . S
C54 C55 1.413 . S
C54 C56 1.360 1_655 S
C55 C54 1.413 . S
C55 C59 1.438 . S
C56 C54 1.360 1_455 S
C56 C57 1.372 . S
C57 H52 0.928 . S
C57 C56 1.372 . S
C57 C58 1.404 . S
C58 C57 1.404 . S
C58 C59 1.382 1_455 S
C59 H53 0.931 . S
C59 C55 1.438 . S
C59 C58 1.382 1_655 S
H60 C63 0.931 . S
H61 C66 0.928 . S
H62 C68 0.930 . S
C63 H60 0.931 . S
C63 C64 1.413 . S
C63 C65 1.360 . S
C64 C63 1.413 . S
C64 C68 1.429 . S
C65 C63 1.360 . S
C65 C66 1.372 . S
C66 H61 0.928 . S
C66 C65 1.372 . S
C66 C67 1.404 . S
C67 C66 1.404 . S
C67 C68 1.391 . S
C68 H62 0.930 . S
C68 C64 1.429 . S
C68 C67 1.391 . S
H69 C72 0.931 . S
H70 C75 0.928 . S
H71 C77 0.930 . S
C72 H69 0.931 . S
C72 C73 1.413 . S
C72 C74 1.360 . S
C73 C72 1.413 . S
C73 C77 1.429 . S
C74 C72 1.360 . S
C74 C75 1.372 . S
C75 H70 0.928 . S
C75 C74 1.372 . S
C75 C76 1.404 . S
C76 C75 1.404 . S
C76 C77 1.391 . S
C77 H71 0.930 . S
C77 C73 1.429 . S
C77 C76 1.391 . S
C78 C79 1.386 . S
C78 C80 1.383 . S
C78 H94 0.951 . S
C79 C78 1.386 . S
C79 C83 1.379 1_554 S
C80 C78 1.383 . S
C80 C81 1.402 . S
C80 H95 0.951 . S
C81 C80 1.402 . S
C81 C82 1.375 . S
C81 C84 1.481 . S
C82 C81 1.375 . S
C82 C83 1.367 1_554 S
C82 H96 0.951 1_554 S
C83 C79 1.379 1_556 S
C83 C82 1.367 1_556 S
C83 H97 0.954 . S
C84 C81 1.481 . S
C84 C85 1.297 . S
C84 H98 0.950 . S
C85 C84 1.297 . S
C85 C86 1.479 . S
C85 H99 0.950 . S
C86 C85 1.479 . S
C86 C87 1.375 . S
C86 C92 1.404 . S
C87 C86 1.375 . S
C87 C88 1.369 . S
C87 H100 0.950 . S
C88 C87 1.369 . S
C88 C89 1.392 . S
C88 H101 0.951 . S
C89 C88 1.392 . S
C89 C91 1.384 . S
H90 C92 0.949 . S
C91 C89 1.384 . S
C91 C92 1.385 . S
C91 H93 0.950 . S
C92 C86 1.404 . S
C92 H90 0.949 . S
C92 C91 1.385 . S
H93 C91 0.950 . S
H94 C78 0.951 . S
H95 C80 0.951 . S
H96 C82 0.951 1_556 S
H97 C83 0.954 . S
H98 C84 0.950 . S
H99 C85 0.950 . S
H100 C87 0.950 . S
H101 C88 0.951 . S
C102 C103 1.386 1_556 S
C102 C104 1.383 . S
C102 H118 0.951 . S
C103 C102 1.386 1_554 S
C103 C107 1.383 . S
C104 C102 1.383 . S
C104 C105 1.402 . S
C104 H119 0.951 . S
C105 C104 1.402 . S
C105 C106 1.375 1_556 S
C105 C108 1.481 . S
C106 C105 1.375 1_554 S
C106 C107 1.367 . S
C106 H120 0.951 . S
C107 C103 1.383 . S
C107 C106 1.367 . S
C107 H121 0.950 . S
C108 C105 1.481 . S
C108 C109 1.297 . S
C108 H122 0.950 . S
C109 C108 1.297 . S
C109 C110 1.479 . S
C109 H123 0.950 . S
C110 C109 1.479 . S
C110 C111 1.375 . S
C110 C116 1.404 . S
C111 C110 1.375 . S
C111 C112 1.369 . S
C111 H124 0.950 . S
C112 C111 1.369 . S
C112 C113 1.392 . S
C112 H125 0.951 . S
C113 C112 1.392 . S
C113 C115 1.384 . S
H114 C116 0.949 . S
C115 C113 1.384 . S
C115 C116 1.385 . S
C115 H117 0.950 . S
C116 C110 1.404 . S
C116 H114 0.949 . S
C116 C115 1.385 . S
H117 C115 0.950 . S
H118 C102 0.951 . S
H119 C104 0.951 . S
H120 C106 0.951 . S
H121 C107 0.950 . S
H122 C108 0.950 . S
H123 C109 0.950 . S
H124 C111 0.950 . S
H125 C112 0.951 . S
C126 C127 1.386 . S
C126 C128 1.383 . S
C126 H142 0.951 . S
C127 C126 1.386 . S
C127 C131 1.383 . S
C128 C126 1.383 . S
C128 C129 1.402 . S
C128 H143 0.951 . S
C129 C128 1.402 . S
C129 C130 1.375 . S
C129 C132 1.481 . S
C130 C129 1.375 . S
C130 C131 1.367 . S
C130 H144 0.951 . S
C131 C127 1.383 . S
C131 C130 1.367 . S
C131 H145 0.950 . S
C132 C129 1.481 . S
C132 C133 1.297 . S
C132 H146 0.950 . S
C133 C132 1.297 . S
C133 C134 1.479 . S
C133 H147 0.950 . S
C134 C133 1.479 . S
C134 C135 1.375 . S
C134 C140 1.404 . S
C135 C134 1.375 . S
C135 C136 1.369 . S
C135 H148 0.950 . S
C136 C135 1.369 . S
C136 C137 1.392 . S
C136 H149 0.951 . S
C137 C136 1.392 . S
C137 C139 1.384 . S
H138 C140 0.949 . S
C139 C137 1.384 . S
C139 C140 1.385 . S
C139 H141 0.950 . S
C140 C134 1.404 . S
C140 H138 0.949 . S
C140 C139 1.385 . S
H141 C139 0.950 . S
H142 C126 0.951 . S
H143 C128 0.951 . S
H144 C130 0.951 . S
H145 C131 0.950 . S
H146 C132 0.950 . S
H147 C133 0.950 . S
H148 C135 0.950 . S
H149 C136 0.951 . S
C150 C151 1.384 1_556 S
C150 C152 1.383 . S
C150 H166 0.951 . S
C151 C150 1.384 1_554 S
C151 C155 1.384 . S
C152 C150 1.383 . S
C152 C153 1.402 . S
C152 H167 0.951 . S
C153 C152 1.402 . S
C153 C154 1.375 1_556 S
C153 C156 1.481 . S
C154 C153 1.375 1_554 S
C154 C155 1.367 . S
C154 H168 0.951 . S
C155 C151 1.384 . S
C155 C154 1.367 . S
C155 H169 0.950 . S
C156 C153 1.481 . S
C156 C157 1.297 . S
C156 H170 0.957 . S
C157 C156 1.297 . S
C157 C158 1.479 . S
C157 H171 0.950 . S
C158 C157 1.479 . S
C158 C159 1.375 . S
C158 C164 1.404 . S
C159 C158 1.375 . S
C159 C160 1.369 . S
C159 H172 0.950 . S
C160 C159 1.369 . S
C160 C161 1.392 . S
C160 H173 0.951 . S
C161 C160 1.392 . S
C161 C163 1.384 . S
H162 C164 0.971 . S
C163 C161 1.384 . S
C163 C164 1.385 . S
C163 H165 0.950 . S
C164 C158 1.404 . S
C164 H162 0.971 . S
C164 C163 1.385 . S
H165 C163 0.950 . S
H166 C150 0.951 . S
H167 C152 0.951 . S
H168 C154 0.951 . S
H169 C155 0.950 . S
H170 C156 0.957 . S
H171 C157 0.950 . S
H172 C159 0.950 . S
H173 C160 0.951 . S
C174 C175 1.386 . S
C174 C176 1.383 . S
C174 H190 0.951 . S
C175 C174 1.386 . S
C175 C179 1.383 . S
C176 C174 1.383 . S
C176 C177 1.402 . S
C176 H191 0.951 . S
C177 C176 1.402 . S
C177 C178 1.375 . S
C177 C180 1.481 . S
C178 C177 1.375 . S
C178 C179 1.367 . S
C178 H192 0.951 . S
C179 C175 1.383 . S
C179 C178 1.367 . S
C179 H193 0.950 . S
C180 C177 1.481 . S
C180 C181 1.297 . S
C180 H194 0.950 . S
C181 C180 1.297 . S
C181 C182 1.479 . S
C181 H195 0.950 . S
C182 C181 1.479 . S
C182 C183 1.375 . S
C182 C188 1.404 . S
C183 C182 1.375 . S
C183 C184 1.369 . S
C183 H196 0.950 . S
C184 C183 1.369 . S
C184 C185 1.392 1_565 S
C184 H197 0.951 . S
C185 C184 1.392 1_545 S
C185 C187 1.384 1_545 S
H186 C188 0.949 . S
C187 C185 1.384 1_565 S
C187 C188 1.385 . S
C187 H189 0.950 1_565 S
C188 C182 1.404 . S
C188 H186 0.949 . S
C188 C187 1.385 . S
H189 C187 0.950 1_545 S
H190 C174 0.951 . S
H191 C176 0.951 . S
H192 C178 0.951 . S
H193 C179 0.950 . S
H194 C180 0.950 . S
H195 C181 0.950 . S
H196 C183 0.950 . S
H197 C184 0.951 . S
C198 C199 1.386 . S
C198 C200 1.383 . S
C198 H214 0.951 . S
C199 C198 1.386 . S
C199 C203 1.383 . S
C200 C198 1.383 . S
C200 C201 1.402 . S
C200 H215 0.951 . S
C201 C200 1.402 . S
C201 C202 1.375 . S
C201 C204 1.481 . S
C202 C201 1.375 . S
C202 C203 1.367 . S
C202 H216 0.951 . S
C203 C199 1.383 . S
C203 C202 1.367 . S
C203 H217 0.950 . S
C204 C201 1.481 . S
C204 C205 1.297 . S
C204 H218 0.950 . S
C205 C204 1.297 . S
C205 C206 1.479 . S
C205 H219 0.950 . S
C206 C205 1.479 . S
C206 C207 1.375 . S
C206 C212 1.404 . S
C207 C206 1.375 . S
C207 C208 1.369 . S
C207 H220 0.950 . S
C208 C207 1.369 . S
C208 C209 1.392 . S
C208 H221 0.951 1_655 S
C209 C208 1.392 . S
C209 C211 1.384 . S
H210 C212 0.949 . S
C211 C209 1.384 . S
C211 C212 1.385 . S
C211 H213 0.950 . S
C212 C206 1.404 . S
C212 H210 0.949 . S
C212 C211 1.385 . S
H213 C211 0.950 . S
H214 C198 0.951 . S
H215 C200 0.951 . S
H216 C202 0.951 . S
H217 C203 0.950 . S
H218 C204 0.950 . S
H219 C205 0.950 . S
H220 C207 0.950 . S
H221 C208 0.951 1_455 S
C222 C223 1.386 . S
C222 C224 1.383 . S
C222 H238 0.951 . S
C223 C222 1.386 . S
C223 C227 1.383 . S
C224 C222 1.383 . S
C224 C225 1.402 . S
C224 H239 0.951 . S
C225 C224 1.402 . S
C225 C226 1.375 . S
C225 C228 1.481 . S
C226 C225 1.375 . S
C226 C227 1.367 . S
C226 H240 0.951 . S
C227 C223 1.383 . S
C227 C226 1.367 . S
C227 H241 0.950 . S
C228 C225 1.481 . S
C228 C229 1.297 . S
C228 H242 0.950 . S
C229 C228 1.297 . S
C229 C230 1.479 . S
C229 H243 0.950 . S
C230 C229 1.479 . S
C230 C231 1.375 . S
C230 C236 1.404 . S
C231 C230 1.375 . S
C231 C232 1.369 . S
C231 H244 0.950 . S
C232 C231 1.369 . S
C232 C233 1.392 . S
C232 H245 0.951 . S
C233 C232 1.392 . S
C233 C235 1.384 . S
H234 C236 0.949 . S
C235 C233 1.384 . S
C235 C236 1.385 . S
C235 H237 0.950 . S
C236 C230 1.404 . S
C236 H234 0.949 . S
C236 C235 1.385 . S
H237 C235 0.950 . S
H238 C222 0.951 . S
H239 C224 0.951 . S
H240 C226 0.951 . S
H241 C227 0.950 . S
H242 C228 0.950 . S
H243 C229 0.950 . S
H244 C231 0.950 . S
H245 C232 0.951 . S
C246 C247 1.386 . S
C246 C248 1.383 . S
C246 H262 0.951 . S
C247 C246 1.386 . S
C247 C251 1.383 . S
C248 C246 1.383 . S
C248 C249 1.402 . S
C248 H263 0.951 . S
C249 C248 1.402 . S
C249 C250 1.375 . S
C249 C252 1.481 . S
C250 C249 1.375 . S
C250 C251 1.367 . S
C250 H264 0.951 . S
C251 C247 1.383 . S
C251 C250 1.367 . S
C251 H265 0.950 . S
C252 C249 1.481 . S
C252 C253 1.297 . S
C252 H266 0.950 . S
C253 C252 1.297 . S
C253 C254 1.479 . S
C253 H267 0.950 . S
C254 C253 1.479 . S
C254 C255 1.375 . S
C254 C260 1.404 . S
C255 C254 1.375 . S
C255 C256 1.369 . S
C255 H268 0.950 . S
C256 C255 1.369 . S
C256 C257 1.392 . S
C256 H269 0.951 . S
C257 C256 1.392 . S
C257 C259 1.384 . S
H258 C260 0.949 . S
C259 C257 1.384 . S
C259 C260 1.385 . S
C259 H261 0.950 . S
C260 C254 1.404 . S
C260 H258 0.949 . S
C260 C259 1.385 . S
H261 C259 0.950 . S
H262 C246 0.951 . S
H263 C248 0.951 . S
H264 C250 0.951 . S
H265 C251 0.950 . S
H266 C252 0.950 . S
H267 C253 0.950 . S
H268 C255 0.950 . S
H269 C256 0.951 . S
C270 C271 1.386 1_565 S
C270 C272 1.383 . S
C270 H286 0.951 . S
C271 C270 1.386 1_545 S
C271 C275 1.383 . S
C272 C270 1.383 . S
C272 C273 1.402 1_565 S
C272 H287 0.951 . S
C273 C272 1.402 1_545 S
C273 C274 1.375 . S
C273 C276 1.481 . S
C274 C273 1.375 . S
C274 C275 1.367 . S
C274 H288 0.951 1_455 S
C275 C271 1.383 . S
C275 C274 1.367 . S
C275 H289 0.950 1_455 S
C276 C273 1.481 . S
C276 C277 1.297 . S
C276 H290 0.950 . S
C277 C276 1.297 . S
C277 C278 1.479 . S
C277 H291 0.943 1_545 S
C278 C277 1.479 . S
C278 C279 1.375 1_545 S
C278 C284 1.404 . S
C279 C278 1.375 1_565 S
C279 C280 1.369 . S
C279 H292 0.950 . S
C280 C279 1.369 . S
C280 C281 1.392 1_565 S
C280 H293 0.951 . S
C281 C280 1.392 1_545 S
C281 C283 1.384 . S
H282 C284 0.949 . S
C283 C281 1.384 . S
C283 C284 1.385 . S
C283 H285 0.950 1_455 S
C284 C278 1.404 . S
C284 H282 0.949 . S
C284 C283 1.385 . S
H285 C283 0.950 1_655 S
H286 C270 0.951 . S
H287 C272 0.951 . S
H288 C274 0.951 1_655 S
H289 C275 0.950 1_655 S
H290 C276 0.950 . S
H291 C277 0.943 1_565 S
H292 C279 0.950 . S
H293 C280 0.951 . S
C294 C295 1.386 . S
C294 C296 1.383 1_455 S
C294 H310 0.951 1_445 S
C295 C294 1.386 . S
C295 C299 1.383 . S
C296 C294 1.383 1_655 S
C296 C297 1.402 1_655 S
C296 H311 0.951 . S
C297 C296 1.402 1_455 S
C297 C298 1.375 . S
C297 C300 1.481 . S
C298 C297 1.375 . S
C298 C299 1.367 . S
C298 H312 0.951 . S
C299 C295 1.383 . S
C299 C298 1.367 . S
C299 H313 0.950 . S
C300 C297 1.481 . S
C300 C301 1.297 1_455 S
C300 H314 0.950 . S
C301 C300 1.297 1_655 S
C301 C302 1.479 . S
C301 H315 0.950 . S
C302 C301 1.479 . S
C302 C303 1.375 . S
C302 C308 1.404 1_655 S
C303 C302 1.375 . S
C303 C304 1.369 . S
C303 H316 0.950 . S
C304 C303 1.369 . S
C304 C305 1.392 . S
C304 H317 0.951 . S
C305 C304 1.392 . S
C305 C307 1.384 1_655 S
H306 C308 0.949 . S
C307 C305 1.384 1_455 S
C307 C308 1.385 . S
C307 H309 0.950 . S
C308 C302 1.404 1_455 S
C308 H306 0.949 . S
C308 C307 1.385 . S
H309 C307 0.950 . S
H310 C294 0.951 1_665 S
H311 C296 0.951 . S
H312 C298 0.951 . S
H313 C299 0.950 . S
H314 C300 0.950 . S
H315 C301 0.950 . S
H316 C303 0.950 . S
H317 C304 0.951 . S
C318 C319 1.386 . S
C318 C320 1.383 . S
C318 H334 0.951 . S
C319 C318 1.386 . S
C319 C323 1.383 . S
C320 C318 1.383 . S
C320 C321 1.402 . S
C320 H335 0.951 . S
C321 C320 1.402 . S
C321 C322 1.375 . S
C321 C324 1.481 . S
C322 C321 1.375 . S
C322 C323 1.367 . S
C322 H336 0.951 . S
C323 C319 1.383 . S
C323 C322 1.367 . S
C323 H337 0.950 . S
C324 C321 1.481 . S
C324 C325 1.297 . S
C324 H338 0.950 . S
C325 C324 1.297 . S
C325 C326 1.479 . S
C325 H339 0.950 . S
C326 C325 1.479 . S
C326 C327 1.375 . S
C326 C332 1.404 . S
C327 C326 1.375 . S
C327 C328 1.369 . S
C327 H340 0.950 . S
C328 C327 1.369 . S
C328 C329 1.392 . S
C328 H341 0.951 . S
C329 C328 1.392 . S
C329 C331 1.384 . S
H330 C332 0.949 . S
C331 C329 1.384 . S
C331 C332 1.385 . S
C331 H333 0.950 . S
C332 C326 1.404 . S
C332 H330 0.949 . S
C332 C331 1.385 . S
H333 C331 0.950 . S
H334 C318 0.951 . S
H335 C320 0.951 . S
H336 C322 0.951 . S
H337 C323 0.950 . S
H338 C324 0.950 . S
H339 C325 0.950 . S
H340 C327 0.950 . S
H341 C328 0.951 . S
C342 C343 1.386 . S
C342 C344 1.383 . S
C342 H358 0.951 . S
C343 C342 1.386 . S
C343 C347 1.383 . S
C344 C342 1.383 . S
C344 C345 1.402 . S
C344 H359 0.951 . S
C345 C344 1.402 . S
C345 C346 1.375 . S
C345 C348 1.481 . S
C346 C345 1.375 . S
C346 C347 1.367 . S
C346 H360 0.951 . S
C347 C343 1.383 . S
C347 C346 1.367 . S
C347 H361 0.950 . S
C348 C345 1.481 . S
C348 C349 1.297 . S
C348 H362 0.950 . S
C349 C348 1.297 . S
C349 C350 1.479 . S
C349 H363 0.950 . S
C350 C349 1.479 . S
C350 C351 1.375 . S
C350 C356 1.404 . S
C351 C350 1.375 . S
C351 C352 1.369 . S
C351 H364 0.950 . S
C352 C351 1.369 . S
C352 C353 1.392 . S
C352 H365 0.951 . S
C353 C352 1.392 . S
C353 C355 1.384 . S
H354 C356 0.949 . S
C355 C353 1.384 . S
C355 C356 1.385 . S
C355 H357 0.950 . S
C356 C350 1.404 . S
C356 H354 0.949 . S
C356 C355 1.385 . S
H357 C355 0.950 . S
H358 C342 0.951 . S
H359 C344 0.951 . S
H360 C346 0.951 . S
H361 C347 0.950 . S
H362 C348 0.950 . S
H363 C349 0.950 . S
H364 C351 0.950 . S
H365 C352 0.951 . S
C89 C73 1.350 . S
C79 C15 1.210 . S
C103 C13 1.392 . S
C113 C64 1.406 . S
C127 C18 1.240 . S
C137 C76 1.357 . S
C151 C17 1.296 1_554 S
C161 C67 1.341 . S
C175 C36 1.193 . S
C185 C55 1.363 . S
C199 C34 1.392 . S
C209 C46 1.406 1_655 S
C233 C58 1.381 . S
C223 C39 1.298 . S
C257 C49 1.344 . S
C247 C38 1.304 . S
C271 C14 1.484 . S
C281 C47 1.538 1_545 S
C295 C16 1.361 . S
C305 C56 1.413 1_655 S
C329 C65 1.543 . S
C319 C35 1.501 . S
C343 C37 1.331 . S
C353 C74 1.396 . S
