# Generated by pormake.
# Topology pth, (4,4)-cn, num edge types: 1
# Building blocks:
#     Node 0, Type 0, BuildingBlock: AZAVOO_clean_sbu_0, # of connection points: 4
#     Node 1, Type 0, BuildingBlock: AZAVOO_clean_sbu_0, # of connection points: 4
#     Node 2, Type 0, BuildingBlock: AZAVOO_clean_sbu_0, # of connection points: 4
#     Node 3, Type 1, BuildingBlock: AZAVOO_clean_linker_0, # of connection points: 4
#     Node 4, Type 1, BuildingBlock: AZAVOO_clean_linker_0, # of connection points: 4
#     Node 5, Type 1, BuildingBlock: AZAVOO_clean_linker_0, # of connection points: 4
#     Edge 6, Type (0, 1), BuildingBlock: OJICUG_clean_linker_0, # of connection points: 2
#     Edge 7, Type (0, 1), BuildingBlock: OJICUG_clean_linker_0, # of connection points: 2
#     Edge 8, Type (0, 1), BuildingBlock: OJICUG_clean_linker_0, # of connection points: 2
#     Edge 9, Type (0, 1), BuildingBlock: OJICUG_clean_linker_0, # of connection points: 2
#     Edge 10, Type (0, 1), BuildingBlock: OJICUG_clean_linker_0, # of connection points: 2
#     Edge 11, Type (0, 1), BuildingBlock: OJICUG_clean_linker_0, # of connection points: 2
#     Edge 12, Type (0, 1), BuildingBlock: OJICUG_clean_linker_0, # of connection points: 2
#     Edge 13, Type (0, 1), BuildingBlock: OJICUG_clean_linker_0, # of connection points: 2
#     Edge 14, Type (0, 1), BuildingBlock: OJICUG_clean_linker_0, # of connection points: 2
#     Edge 15, Type (0, 1), BuildingBlock: OJICUG_clean_linker_0, # of connection points: 2
#     Edge 16, Type (0, 1), BuildingBlock: OJICUG_clean_linker_0, # of connection points: 2
#     Edge 17, Type (0, 1), BuildingBlock: OJICUG_clean_linker_0, # of connection points: 2
# Relax obj value: 0.188
# Max RMSD: 0.232
# Mean RMSD: 0.224
data_MOF--net-pth--node1-AZAVOO_clean_sbu_0--node2-AZAVOO_clean_linker_0--edge1-OJICUG_clean_linker_0
_symmetry_space_group_name_H-M    P1
_symmetry_Int_Tables_number       1
_symmetry_cell_setting            triclinic
loop_
_symmetry_equiv_pos_as_xyz
'x, y, z'
_cell_length_a     20.082909
_cell_length_b     20.720292
_cell_length_c     54.550462
_cell_angle_alpha  92.379013
_cell_angle_beta   92.18899
_cell_angle_gamma 122.29655
loop_
_atom_site_label
_atom_site_type_symbol
_atom_site_fract_x
_atom_site_fract_y
_atom_site_fract_z
_atom_type_partial_charge
Mg0 Mg 0.23323 0.12969 0.09506 0.0
O1 O 0.14588 0.07897 0.06107 0.0
O2 O 0.13908 0.17199 0.04427 0.0
Mg3 Mg 0.21677 0.28087 0.0692 0.0
C4 C 0.11935 0.10235 0.0443 0.0
C5 C 0.23227 0.00213 0.12192 0.0
O6 O 0.30167 0.06202 0.12974 0.0
O7 O 0.14231 0.13336 0.11728 0.0
O8 O 0.13463 0.22595 0.10051 0.0
O9 O 0.32971 0.15799 0.0706 0.0
O10 O 0.28967 0.23589 0.08087 0.0
C11 C 0.11322 0.17485 0.11599 0.0
C12 C 0.3325 0.22114 0.06771 0.0
O13 O 0.18933 0.01044 0.10636 0.0
Mg14 Mg 0.88681 0.93141 0.41103 0.0
O15 O 0.01214 -0.00171 0.42962 0.0
O16 O 0.02882 0.09814 0.45274 0.0
Mg17 Mg 0.91457 0.09687 0.44869 0.0
C18 C 0.05457 0.05766 0.44436 0.0
C19 C 0.89678 0.79397 0.3917 0.0
O20 O 0.85217 0.76518 0.41021 0.0
O21 O 0.92252 0.02373 0.3834 0.0
O22 O 0.93466 0.11868 0.40829 0.0
O23 O 0.84217 0.86539 0.44483 0.0
O24 O 0.84999 0.974 0.43865 0.0
C25 C 0.93689 0.0916 0.3871 0.0
C26 C 0.83563 0.92113 0.45293 0.0
O27 O 0.92074 0.86224 0.38676 0.0
Mg28 Mg 0.07994 0.12547 0.74162 0.0
O29 O 0.16455 0.23713 0.76429 0.0
O30 O 0.09595 0.26715 0.78815 0.0
Mg31 Mg 0.9656 0.17005 0.78155 0.0
C32 C 0.16132 0.28186 0.78024 0.0
C33 C 0.18249 0.09751 0.70733 0.0
O34 O 0.12464 0.02674 0.70982 0.0
O35 O 0.03677 0.18385 0.71729 0.0
O36 O 0.9595 0.20075 0.74171 0.0
O37 O 0.08761 0.05695 0.77061 0.0
O38 O -0.00102 0.08925 0.76854 0.0
C39 C 0.98783 0.20417 0.72086 0.0
C40 C 0.02832 0.05556 0.77978 0.0
O41 O 0.18025 0.15219 0.71771 0.0
H42 H 0.94613 0.35328 0.07832 0.0
H43 H 0.15461 0.97163 0.28547 0.0
H44 H 0.84925 0.29649 0.2047 0.0
H45 H 0.85247 0.19852 0.17911 0.0
H46 H 0.08018 0.27079 0.21465 0.0
H47 H 0.07635 0.36804 0.23999 0.0
H48 H 0.89047 0.44145 0.17501 0.0
H49 H 0.89441 0.4049 0.13208 0.0
H50 H 0.11058 0.41408 0.151 0.0
H51 H 0.10642 0.45158 0.19376 0.0
H52 H 0.93493 0.60713 0.20084 0.0
H53 H 0.98887 0.71379 0.17418 0.0
H54 H 0.20484 0.71526 0.17298 0.0
H55 H 0.15139 0.61056 0.20026 0.0
H56 H 0.89941 0.59748 0.25845 0.0
H57 H 0.92537 0.72269 0.27307 0.0
H58 H 0.17367 0.82429 0.26279 0.0
H59 H 0.14708 0.69849 0.24867 0.0
H60 H 0.85625 0.45359 0.28768 0.0
H61 H 0.83952 0.51818 0.32325 0.0
H62 H 0.09152 0.6813 0.33123 0.0
H63 H 0.10785 0.6155 0.29585 0.0
H64 H 0.85106 0.29373 0.26462 0.0
H65 H 0.84768 0.20739 0.29473 0.0
H66 H 0.08855 0.37838 0.32053 0.0
H67 H 0.09107 0.46409 0.29065 0.0
O68 O 0.94613 0.36855 0.09534 0.0
O69 O 0.05905 0.3775 0.10581 0.0
O70 O 0.01465 0.86618 0.28511 0.0
O71 O 0.14253 0.92164 0.27947 0.0
C72 C 0.97569 0.41534 0.23156 0.0
C73 C 0.99391 0.46887 0.21363 0.0
C74 C 0.0108 0.54258 0.22061 0.0
C75 C 0.00608 0.56199 0.24527 0.0
C76 C 0.98922 0.50902 0.26332 0.0
C77 C 0.97611 0.43633 0.25656 0.0
C78 C 0.96326 0.34009 0.22381 0.0
C79 C 0.8979 0.28846 0.20776 0.0
C80 C 0.89999 0.23282 0.19311 0.0
C81 C 0.96735 0.22822 0.19449 0.0
C82 C 0.02733 0.27269 0.21316 0.0
C83 C 0.02536 0.32852 0.22771 0.0
C84 C -0.00219 0.4486 0.18748 0.0
C85 C 0.93876 0.43585 0.16979 0.0
C86 C 0.9411 0.41482 0.14531 0.0
C87 C 0.00277 0.40647 0.13811 0.0
C88 C 0.0623 0.42007 0.15591 0.0
C89 C 0.05993 0.44121 0.18036 0.0
C90 C 0.03941 0.60149 0.20247 0.0
C91 C 0.99355 0.63018 0.19459 0.0
C92 C 0.02428 0.69065 0.17926 0.0
C93 C 0.10127 0.72309 0.17157 0.0
C94 C 0.1458 0.69216 0.17886 0.0
C95 C 0.11517 0.63201 0.19424 0.0
C96 C 0.02132 0.63901 0.25247 0.0
C97 C 0.95928 0.64694 0.25927 0.0
C98 C 0.97431 0.71849 0.26763 0.0
C99 C 0.05167 0.78352 0.26912 0.0
C100 C 0.11346 0.77544 0.26187 0.0
C101 C 0.0984 0.70376 0.25367 0.0
C102 C 0.98308 0.53045 0.28904 0.0
C103 C 0.90814 0.50106 0.2978 0.0
C104 C 0.89869 0.53837 0.31803 0.0
C105 C 0.96412 0.6057 0.32963 0.0
C106 C 0.04002 0.63026 0.32234 0.0
C107 C 0.04949 0.59233 0.30234 0.0
C108 C 0.97096 0.38548 0.2757 0.0
C109 C 0.9028 0.31248 0.2769 0.0
C110 C 0.90132 0.26304 0.29388 0.0
C111 C 0.96794 0.28607 0.30995 0.0
C112 C 0.03601 0.3593 0.3086 0.0
C113 C 0.03745 0.40847 0.29165 0.0
C114 C 0.00465 0.38336 0.11215 0.0
C115 C 0.06815 0.85943 0.27837 0.0
H116 H 0.63429 0.9514 0.42285 0.0
H117 H 0.20625 0.26424 0.5783 0.0
H118 H 0.59354 0.98987 0.56604 0.0
H119 H 0.65615 0.92552 0.54953 0.0
H120 H 0.84042 0.13959 0.52389 0.0
H121 H 0.77914 0.20397 0.54157 0.0
H122 H 0.52739 0.9861 0.51791 0.0
H123 H 0.55623 0.9484 0.47858 0.0
H124 H 0.69808 0.18651 0.46287 0.0
H125 H 0.66971 0.22338 0.50249 0.0
H126 H 0.40133 0.0143 0.52187 0.0
H127 H 0.29473 -0.00363 0.49348 0.0
H128 H 0.42343 0.24011 0.48559 0.0
H129 H 0.53008 0.25732 0.51414 0.0
H130 H 0.37093 0.05691 0.57847 0.0
H131 H 0.2569 0.06723 0.58495 0.0
H132 H 0.39044 0.30177 0.56512 0.0
H133 H 0.50428 0.29083 0.55902 0.0
H134 H 0.50829 0.06101 0.61761 0.0
H135 H 0.42959 0.04853 0.65202 0.0
H136 H 0.47382 0.27393 0.64204 0.0
H137 H 0.5579 0.28815 0.60888 0.0
H138 H 0.63589 0.05185 0.60718 0.0
H139 H 0.73738 0.07751 0.63923 0.0
H140 H 0.83463 0.32 0.63797 0.0
H141 H 0.73522 0.29428 0.60477 0.0
O142 O 0.62196 0.96743 0.43804 0.0
O143 O 0.69029 0.09018 0.43012 0.0
O144 O 0.18453 0.13793 0.58606 0.0
O145 O 0.25039 0.25853 0.57583 0.0
C146 C 0.63205 0.13313 0.55853 0.0
C147 C 0.58576 0.13062 0.53788 0.0
C148 C 0.52804 0.14842 0.54098 0.0
C149 C 0.51486 0.16663 0.56478 0.0
C150 C 0.56243 0.17096 0.58543 0.0
C151 C 0.62316 0.15704 0.58212 0.0
C152 C 0.68249 0.10176 0.55528 0.0
C153 C 0.64986 0.02365 0.55809 0.0
C154 C 0.68507 0.98673 0.54833 0.0
C155 C 0.75265 0.02711 0.53514 0.0
C156 C 0.78898 0.10687 0.53422 0.0
C157 C 0.75407 0.14395 0.54426 0.0
C158 C 0.59678 0.10741 0.51302 0.0
C159 C 0.56429 0.02992 0.50587 0.0
C160 C 0.58097 0.0086 0.48341 0.0
C161 C 0.62978 0.06447 0.46762 0.0
C162 C 0.66045 0.14206 0.47462 0.0
C163 C 0.64408 0.16328 0.49716 0.0
C164 C 0.47301 0.13703 0.52001 0.0
C165 C 0.40748 0.06343 0.5134 0.0
C166 C 0.34676 0.05338 0.49718 0.0
C167 C 0.35052 0.11696 0.48746 0.0
C168 C 0.41865 0.19023 0.49302 0.0
C169 C 0.47967 0.20013 0.50914 0.0
C170 C 0.44558 0.17308 0.56825 0.0
C171 C 0.37527 0.11038 0.57553 0.0
C172 C 0.31032 0.11647 0.57921 0.0
C173 C 0.31455 0.18536 0.57553 0.0
C174 C 0.38516 0.24792 0.5681 0.0
C175 C 0.45018 0.24182 0.56453 0.0
C176 C 0.5379 0.17505 0.61048 0.0
C177 C 0.50425 0.10923 0.62363 0.0
C178 C 0.45782 0.10158 0.64299 0.0
C179 C 0.44285 0.15901 0.64923 0.0
C180 C 0.48364 0.22831 0.63773 0.0
C181 C 0.53167 0.23658 0.61869 0.0
C182 C 0.67971 0.17127 0.60306 0.0
C183 C 0.67999 0.11054 0.61336 0.0
C184 C 0.73753 0.12521 0.63175 0.0
C185 C 0.79424 0.20074 0.64063 0.0
C186 C 0.79179 0.26141 0.63117 0.0
C187 C 0.73514 0.24674 0.61235 0.0
C188 C 0.64923 0.04179 0.4441 0.0
C189 C 0.24576 0.19219 0.57948 0.0
H190 H 0.76394 0.73496 0.07743 0.0
H191 H 0.21999 0.18947 0.84943 0.0
H192 H 0.72363 0.82363 0.93866 0.0
H193 H 0.82977 0.93017 0.96521 0.0
H194 H 0.96564 0.82438 0.9614 0.0
H195 H 0.85843 0.71751 0.93519 0.0
H196 H 0.62503 0.69565 0.97746 0.0
H197 H 0.66973 0.72069 0.02117 0.0
H198 H 0.81433 0.6276 0.00786 0.0
H199 H 0.76882 0.60272 0.9642 0.0
H200 H 0.46378 0.53682 0.95401 0.0
H201 H 0.3979 0.44829 0.98587 0.0
H202 H 0.56682 0.37988 0.98255 0.0
H203 H 0.63009 0.46638 0.94997 0.0
H204 H 0.4239 0.54316 0.90405 0.0
H205 H 0.29867 0.43296 0.88605 0.0
H206 H 0.41269 0.30782 0.87419 0.0
H207 H 0.53753 0.41854 0.89231 0.0
H208 H 0.52376 0.66884 0.87378 0.0
H209 H 0.42229 0.60601 0.8399 0.0
H210 H 0.51088 0.46216 0.82069 0.0
H211 H 0.61469 0.52855 0.8537 0.0
H212 H 0.6607 0.77881 0.87474 0.0
H213 H 0.74801 0.87197 0.84687 0.0
H214 H 0.91817 0.80823 0.86144 0.0
H215 H 0.82672 0.71022 0.88715 0.0
O216 O 0.74669 0.72415 0.06011 0.0
O217 O 0.82037 0.67616 0.05228 0.0
O218 O 0.21138 0.29827 0.86499 0.0
O219 O 0.26808 0.23286 0.85737 0.0
C220 C 0.71198 0.69092 0.92496 0.0
C221 C 0.66769 0.63425 0.94123 0.0
C222 C 0.59625 0.56708 0.93262 0.0
C223 C 0.56685 0.55809 0.9081 0.0
C224 C 0.61104 0.615 0.89169 0.0
C225 C 0.68494 0.68069 0.89997 0.0
C226 C 0.78365 0.76321 0.93507 0.0
C227 C 0.77752 0.82495 0.94291 0.0
C228 C 0.83809 0.88556 0.9581 0.0
C229 C 0.9055 0.88499 0.96566 0.0
C230 C 0.91377 0.82565 0.95621 0.0
C231 C 0.85318 0.76513 0.94103 0.0
C232 C 0.69384 0.64752 0.96778 0.0
C233 C 0.66617 0.68055 0.98409 0.0
C234 C 0.69188 0.69485 0.00901 0.0
C235 C 0.74572 0.67626 0.01801 0.0
C236 C 0.77291 0.64268 0.00154 0.0
C237 C 0.74704 0.62835 0.97663 0.0
C238 C 0.55137 0.50762 0.94978 0.0
C239 C 0.48533 0.50146 0.95985 0.0
C240 C 0.44853 0.45161 0.97822 0.0
C241 C 0.47782 0.4078 0.98693 0.0
C242 C 0.54249 0.41235 0.97611 0.0
C243 C 0.57886 0.46184 0.95761 0.0
C244 C 0.48956 0.48867 0.8994 0.0
C245 C 0.42139 0.49154 0.89779 0.0
C246 C 0.35007 0.42864 0.88743 0.0
C247 C 0.34579 0.36172 0.87851 0.0
C248 C 0.41398 0.35853 0.88077 0.0
C249 C 0.48523 0.42145 0.89122 0.0
C250 C 0.57679 0.60344 0.86616 0.0
C251 C 0.52455 0.62739 0.86122 0.0
C252 C 0.46534 0.59005 0.84217 0.0
C253 C 0.45674 0.52731 0.82806 0.0
C254 C 0.51552 0.5102 0.8311 0.0
C255 C 0.5755 0.54848 0.84993 0.0
C256 C 0.73659 0.73668 0.88263 0.0
C257 C 0.71589 0.78367 0.87136 0.0
C258 C 0.76697 0.83824 0.85584 0.0
C259 C 0.84082 0.84829 0.85181 0.0
C260 C 0.86147 0.80151 0.86354 0.0
C261 C 0.8095 0.74575 0.87849 0.0
C262 C 0.77334 0.69204 0.04447 0.0
C263 C 0.2709 0.29585 0.86662 0.0
C264 C 0.01246 0.20025 0.13032 0.0
C265 C 0.05951 0.16998 0.13458 0.0
H266 H 0.94436 0.24039 0.14599 0.0
C267 C 0.06215 0.14415 0.15781 0.0
H268 H 0.00827 0.21947 0.11249 0.0
C269 C 0.02545 0.15629 0.17716 0.0
C270 C 0.98473 0.19341 0.17342 0.0
H271 H 0.09749 0.11999 0.16158 0.0
H272 H 0.03327 0.14128 0.19536 0.0
C273 C 0.97503 0.21142 0.14951 0.0
C274 C 0.73875 0.89256 0.48371 0.0
C275 C 0.81776 0.92908 0.47816 0.0
H276 H 0.65592 0.89547 0.5063 0.0
C277 C 0.87669 0.98894 0.49418 0.0
H278 H 0.69244 0.8475 0.47117 0.0
C279 C 0.85622 0.01657 0.51442 0.0
C280 C 0.77638 0.98521 0.51865 0.0
H281 H 0.93802 0.01827 0.48996 0.0
H282 H 0.90242 0.06589 0.52567 0.0
C283 C 0.71808 0.92036 0.50384 0.0
C284 C 0.94327 0.02493 0.81521 0.0
C285 C 0.9894 0.00911 0.80052 0.0
H286 H 0.86302 0.98874 0.84365 0.0
C287 C 0.99079 0.94312 0.80391 0.0
H288 H 0.94166 0.07579 0.81312 0.0
C289 C 0.9435 0.8916 0.82073 0.0
C290 C 0.89514 0.90585 0.83504 0.0
H291 H 0.02507 0.92902 0.79258 0.0
H292 H 0.94275 0.83916 0.8217 0.0
C293 C 0.89742 0.97437 0.83251 0.0
C294 C 0.12408 0.86607 0.12619 0.0
C295 C 0.20119 0.9282 0.13294 0.0
H296 H 0.03228 0.75201 0.13291 0.0
C297 C 0.24662 0.92053 0.15142 0.0
H298 H 0.08764 0.87007 0.11194 0.0
C299 C 0.21473 0.85313 0.16348 0.0
C300 C 0.13677 0.79191 0.15731 0.0
H301 H 0.30619 0.96731 0.15706 0.0
H302 H 0.25032 0.85009 0.17826 0.0
C303 C 0.09216 0.79862 0.13828 0.0
C304 C 0.16226 0.03043 0.4462 0.0
C305 C 0.13451 0.07764 0.45316 0.0
H306 H 0.25318 0.00661 0.45129 0.0
C307 C 0.18211 0.14179 0.46977 0.0
H308 H 0.1274 0.9808 0.43334 0.0
C309 C 0.25408 0.15645 0.48 0.0
C310 C 0.28007 0.10731 0.47388 0.0
H311 H 0.16278 0.17951 0.47551 0.0
H312 H 0.28756 0.2043 0.4936 0.0
C313 C 0.23422 0.04504 0.4565 0.0
C314 C 0.2373 0.39298 0.81164 0.0
C315 C 0.23626 0.3507 0.79068 0.0
H316 H 0.30728 0.48112 0.8399 0.0
C317 C 0.30821 0.37235 0.78057 0.0
H318 H 0.1831 0.37787 0.81994 0.0
C319 C 0.37979 0.43263 0.79185 0.0
C320 C 0.38112 0.47244 0.81354 0.0
H321 H 0.30954 0.34156 0.76425 0.0
H322 H 0.43421 0.44673 0.78391 0.0
C323 C 0.3088 0.45288 0.82297 0.0
C324 C 0.95256 0.1895 0.67572 0.0
C325 C 0.9521 0.21905 0.69935 0.0
H326 H 0.90157 0.1598 0.63858 0.0
C327 C 0.90678 0.25176 0.70262 0.0
H328 H 0.98654 0.16368 0.67255 0.0
C329 C 0.85891 0.25029 0.68301 0.0
C330 C 0.85475 0.215 0.66001 0.0
H331 H 0.90538 0.27515 0.72058 0.0
H332 H 0.82163 0.27249 0.6862 0.0
C333 C 0.90361 0.18674 0.6563 0.0
C334 C 0.04093 0.96971 0.0238 0.0
C335 C 0.06534 0.0472 0.02396 0.0
H336 H 0.971 0.85797 0.00539 0.0
C337 C 0.0383 0.07145 0.00438 0.0
H338 H 0.06037 0.94892 0.03859 0.0
C339 C 0.98757 0.01923 0.98517 0.0
C340 C 0.96298 0.94177 0.98512 0.0
H341 H 0.05622 0.13078 0.00384 0.0
H342 H 0.96769 0.03948 0.97033 0.0
C343 C 0.99028 0.91763 0.00462 0.0
C344 C 0.97064 0.77873 0.35824 0.0
C345 C 0.91743 0.74676 0.37669 0.0
H346 H 0.02736 0.75901 0.32904 0.0
C347 C 0.88307 0.66871 0.38047 0.0
H348 H -0.00175 0.83864 0.35489 0.0
C349 C 0.89982 0.62312 0.36567 0.0
C350 C 0.95198 0.65485 0.34698 0.0
H351 H 0.84203 0.64233 0.39458 0.0
H352 H 0.87143 0.56288 0.36867 0.0
C353 C 0.98791 0.73328 0.3436 0.0
C354 C 0.31992 0.18631 0.69487 0.0
C355 C 0.24999 0.11327 0.69303 0.0
H356 H 0.43681 0.2576 0.68319 0.0
C357 C 0.24512 0.05515 0.67744 0.0
H358 H 0.32564 0.23215 0.70692 0.0
C359 C 0.30822 0.06995 0.66362 0.0
C360 C 0.37835 0.14299 0.66534 0.0
H361 H 0.19189 -0.00156 0.67551 0.0
H362 H 0.30093 0.0244 0.65107 0.0
C363 C 0.3836 0.20093 0.68125 0.0
C364 C 0.39826 0.24266 0.02818 0.0
C365 C 0.37457 0.27004 0.0478 0.0
H366 H 0.44792 0.26411 -0.00685 0.0
C367 C 0.38727 0.34352 0.04764 0.0
H368 H 0.38873 0.18599 0.02779 0.0
C369 C 0.42139 0.38823 0.02798 0.0
C370 C 0.44313 0.36027 0.00796 0.0
H371 H 0.37053 0.36652 0.06268 0.0
H372 H 0.43101 0.44495 0.02852 0.0
C373 C 0.43209 0.28735 0.00837 0.0
C374 C 0.92461 0.10951 0.34217 0.0
C375 C 0.95267 0.14075 0.36645 0.0
H376 H 0.90712 0.13121 0.30506 0.0
C377 C 0.98987 0.22019 0.37154 0.0
H378 H 0.89539 0.04847 0.33774 0.0
C379 C -0.00378 0.26707 0.35305 0.0
C380 C 0.96544 0.23582 0.32895 0.0
H381 H 0.01247 0.24619 0.39004 0.0
H382 H 0.02281 0.3276 0.35787 0.0
C383 C 0.93054 0.15668 0.32357 0.0
loop_
_geom_bond_atom_site_label_1
_geom_bond_atom_site_label_2
_geom_bond_distance
_geom_bond_site_symmetry_2
_ccdc_geom_bond_type
Mg0 O1 2.028 . S
Mg0 O7 1.986 . S
Mg0 O9 2.114 . S
Mg0 O10 2.251 . S
Mg0 O13 2.010 . S
O1 Mg0 2.028 . S
O1 C4 1.245 1_455 S
O2 Mg3 2.028 . S
O2 C4 1.251 1_455 S
Mg3 O2 2.028 . S
Mg3 O8 2.032 . S
Mg3 O10 2.079 . S
C4 O1 1.245 1_655 S
C4 O2 1.251 1_655 S
C5 O6 1.264 1_565 S
C5 O13 1.249 1_565 S
O6 C5 1.264 1_545 S
O7 Mg0 1.986 . S
O7 C11 1.246 . S
O8 Mg3 2.032 . S
O8 C11 1.259 . S
O9 Mg0 2.114 . S
O9 C12 1.252 . S
O10 Mg0 2.251 . S
O10 Mg3 2.079 . S
O10 C12 1.273 . S
C11 O7 1.246 . S
C11 O8 1.259 . S
C12 O9 1.252 . S
C12 O10 1.273 . S
O13 Mg0 2.010 . S
O13 C5 1.249 1_545 S
Mg14 O15 2.028 1_665 S
Mg14 O21 1.986 1_665 S
Mg14 O23 2.114 . S
Mg14 O24 2.251 1_565 S
Mg14 O27 2.010 . S
O15 Mg14 2.028 1_445 S
O15 C18 1.250 . S
O16 Mg17 2.028 . S
O16 C18 1.248 . S
Mg17 O16 2.028 . S
Mg17 O22 2.032 . S
Mg17 O24 2.079 1_455 S
C18 O15 1.250 . S
C18 O16 1.248 . S
C19 O20 1.264 . S
C19 O27 1.249 . S
O20 C19 1.264 . S
O21 Mg14 1.986 1_445 S
O21 C25 1.246 . S
O22 Mg17 2.032 . S
O22 C25 1.259 . S
O23 Mg14 2.114 . S
O23 C26 1.252 . S
O24 Mg14 2.251 1_545 S
O24 Mg17 2.079 1_655 S
O24 C26 1.273 1_545 S
C25 O21 1.246 . S
C25 O22 1.259 . S
C26 O23 1.252 . S
C26 O24 1.273 1_565 S
O27 Mg14 2.010 . S
O27 C19 1.249 . S
Mg28 O29 2.028 . S
Mg28 O35 1.986 . S
Mg28 O37 2.114 . S
Mg28 O38 2.251 . S
Mg28 O41 2.010 . S
O29 Mg28 2.028 . S
O29 C32 1.250 . S
O30 Mg31 2.028 . S
O30 C32 1.248 . S
Mg31 O30 2.028 . S
Mg31 O36 2.032 . S
Mg31 O38 2.079 . S
C32 O29 1.250 . S
C32 O30 1.248 . S
C33 O34 1.264 1_545 S
C33 O41 1.249 . S
O34 C33 1.264 1_565 S
O35 Mg28 1.986 . S
O35 C39 1.246 . S
O36 Mg31 2.032 . S
O36 C39 1.259 . S
O37 Mg28 2.114 . S
O37 C40 1.252 . S
O38 Mg28 2.251 . S
O38 Mg31 2.079 . S
O38 C40 1.273 . S
C39 O35 1.246 . S
C39 O36 1.259 . S
C40 O37 1.252 . S
C40 O38 1.273 . S
O41 Mg28 2.010 . S
O41 C33 1.249 . S
H42 O68 0.856 . S
H43 O71 0.854 1_545 S
H44 C79 0.930 . S
H45 C80 0.930 . S
H46 C82 0.930 . S
H47 C83 0.930 . S
H48 C85 0.931 1_655 S
H49 C86 0.930 . S
H50 C88 0.930 . S
H51 C89 0.929 . S
H52 C91 0.930 1_655 S
H53 C92 0.936 . S
H54 C94 0.930 . S
H55 C95 0.929 . S
H56 C97 0.924 1_655 S
H57 C98 0.930 1_655 S
H58 C100 0.930 . S
H59 C101 0.932 . S
H60 C103 0.930 . S
H61 C104 0.929 . S
H62 C106 0.931 . S
H63 C107 0.930 . S
H64 C109 0.929 . S
H65 C110 0.931 . S
H66 C112 0.930 . S
H67 C113 0.929 . S
O68 H42 0.856 . S
O68 C114 1.300 . S
O69 C114 1.209 . S
O70 C115 1.199 . S
O71 H43 0.854 1_565 S
O71 C115 1.297 . S
C72 C73 1.404 . S
C72 C77 1.397 . S
C72 C78 1.492 . S
C73 C72 1.404 . S
C73 C74 1.396 . S
C73 C84 1.492 . S
C74 C73 1.396 . S
C74 C75 1.397 . S
C74 C90 1.509 . S
C75 C74 1.397 . S
C75 C76 1.412 . S
C75 C96 1.485 . S
C76 C75 1.412 . S
C76 C77 1.388 . S
C76 C102 1.490 . S
C77 C72 1.397 . S
C77 C76 1.388 . S
C77 C108 1.519 . S
C78 C72 1.492 . S
C78 C79 1.363 1_455 S
C78 C83 1.390 . S
C79 H44 0.930 . S
C79 C78 1.363 1_655 S
C79 C80 1.372 . S
C80 H45 0.930 . S
C80 C79 1.372 . S
C80 C81 1.383 1_655 S
C81 C80 1.383 1_455 S
C81 C82 1.395 . S
C82 H46 0.930 . S
C82 C81 1.395 . S
C82 C83 1.362 . S
C83 H47 0.930 . S
C83 C78 1.390 . S
C83 C82 1.362 . S
C84 C73 1.492 . S
C84 C85 1.377 . S
C84 C89 1.397 . S
C85 H48 0.931 1_455 S
C85 C84 1.377 . S
C85 C86 1.376 . S
C86 H49 0.930 . S
C86 C85 1.376 . S
C86 C87 1.376 . S
C87 C86 1.376 . S
C87 C88 1.378 . S
C87 C114 1.486 . S
C88 H50 0.930 . S
C88 C87 1.378 . S
C88 C89 1.376 . S
C89 H51 0.929 . S
C89 C84 1.397 . S
C89 C88 1.376 . S
C90 C74 1.509 . S
C90 C91 1.391 . S
C90 C95 1.386 . S
C91 H52 0.930 1_455 S
C91 C90 1.391 . S
C91 C92 1.375 . S
C92 H53 0.936 . S
C92 C91 1.375 . S
C92 C93 1.375 . S
C93 C92 1.375 . S
C93 C94 1.361 . S
C94 H54 0.930 . S
C94 C93 1.361 . S
C94 C95 1.399 . S
C95 H55 0.929 . S
C95 C90 1.386 . S
C95 C94 1.399 . S
C96 C75 1.485 . S
C96 C97 1.410 . S
C96 C101 1.360 . S
C97 H56 0.924 1_455 S
C97 C96 1.410 . S
C97 C98 1.363 . S
C98 H57 0.930 1_455 S
C98 C97 1.363 . S
C98 C99 1.397 . S
C99 C98 1.397 . S
C99 C100 1.390 . S
C99 C115 1.476 . S
C100 H58 0.930 . S
C100 C99 1.390 . S
C100 C101 1.366 . S
C101 H59 0.932 . S
C101 C96 1.360 . S
C101 C100 1.366 . S
C102 C76 1.490 . S
C102 C103 1.380 1_455 S
C102 C107 1.386 . S
C103 H60 0.930 . S
C103 C102 1.380 1_655 S
C103 C104 1.381 . S
C104 H61 0.929 . S
C104 C103 1.381 . S
C104 C105 1.371 1_655 S
C105 C104 1.371 1_455 S
C105 C106 1.380 . S
C106 H62 0.931 . S
C106 C105 1.380 . S
C106 C107 1.387 . S
C107 H63 0.930 . S
C107 C102 1.386 . S
C107 C106 1.387 . S
C108 C77 1.519 . S
C108 C109 1.377 1_455 S
C108 C113 1.361 . S
C109 H64 0.929 . S
C109 C108 1.377 1_655 S
C109 C110 1.386 . S
C110 H65 0.931 . S
C110 C109 1.386 . S
C110 C111 1.363 1_655 S
C111 C110 1.363 1_455 S
C111 C112 1.385 . S
C112 H66 0.930 . S
C112 C111 1.385 . S
C112 C113 1.396 . S
C113 H67 0.929 . S
C113 C108 1.361 . S
C113 C112 1.396 . S
C114 O68 1.300 . S
C114 O69 1.209 . S
C114 C87 1.486 . S
C115 O70 1.199 . S
C115 O71 1.297 . S
C115 C99 1.476 . S
H116 O142 0.856 . S
H117 O145 0.854 . S
H118 C153 0.930 1_565 S
H119 C154 0.930 1_565 S
H120 C156 0.930 . S
H121 C157 0.930 . S
H122 C159 0.931 . S
H123 C160 0.931 . S
H124 C162 0.930 . S
H125 C163 0.929 . S
H126 C165 0.930 . S
H127 C166 0.931 . S
H128 C168 0.930 . S
H129 C169 0.929 . S
H130 C171 0.931 . S
H131 C172 0.930 . S
H132 C174 0.930 . S
H133 C175 0.932 . S
H134 C177 0.930 . S
H135 C178 0.929 . S
H136 C180 0.931 . S
H137 C181 0.930 . S
H138 C183 0.929 . S
H139 C184 0.931 . S
H140 C186 0.930 . S
H141 C187 0.929 . S
O142 H116 0.856 . S
O142 C188 1.300 . S
O143 C188 1.209 . S
O144 C189 1.199 . S
O145 H117 0.854 . S
O145 C189 1.297 . S
C146 C147 1.404 . S
C146 C151 1.397 . S
C146 C152 1.492 . S
C147 C146 1.404 . S
C147 C148 1.396 . S
C147 C158 1.492 . S
C148 C147 1.396 . S
C148 C149 1.397 . S
C148 C164 1.509 . S
C149 C148 1.397 . S
C149 C150 1.412 . S
C149 C170 1.485 . S
C150 C149 1.412 . S
C150 C151 1.388 . S
C150 C176 1.490 . S
C151 C146 1.397 . S
C151 C150 1.388 . S
C151 C182 1.519 . S
C152 C146 1.492 . S
C152 C153 1.363 . S
C152 C157 1.390 . S
C153 H118 0.930 1_545 S
C153 C152 1.363 . S
C153 C154 1.372 . S
C154 H119 0.930 1_545 S
C154 C153 1.372 . S
C154 C155 1.383 . S
C155 C154 1.383 . S
C155 C156 1.395 . S
C156 H120 0.930 . S
C156 C155 1.395 . S
C156 C157 1.362 . S
C157 H121 0.930 . S
C157 C152 1.390 . S
C157 C156 1.362 . S
C158 C147 1.492 . S
C158 C159 1.377 . S
C158 C163 1.397 . S
C159 H122 0.931 . S
C159 C158 1.377 . S
C159 C160 1.376 . S
C160 H123 0.931 . S
C160 C159 1.376 . S
C160 C161 1.376 . S
C161 C160 1.376 . S
C161 C162 1.378 . S
C161 C188 1.486 . S
C162 H124 0.930 . S
C162 C161 1.378 . S
C162 C163 1.376 . S
C163 H125 0.929 . S
C163 C158 1.397 . S
C163 C162 1.376 . S
C164 C148 1.509 . S
C164 C165 1.391 . S
C164 C169 1.386 . S
C165 H126 0.930 . S
C165 C164 1.391 . S
C165 C166 1.375 . S
C166 H127 0.931 . S
C166 C165 1.375 . S
C166 C167 1.375 . S
C167 C166 1.375 . S
C167 C168 1.361 . S
C168 H128 0.930 . S
C168 C167 1.361 . S
C168 C169 1.399 . S
C169 H129 0.929 . S
C169 C164 1.386 . S
C169 C168 1.399 . S
C170 C149 1.485 . S
C170 C171 1.394 . S
C170 C175 1.360 . S
C171 H130 0.931 . S
C171 C170 1.394 . S
C171 C172 1.372 . S
C172 H131 0.930 . S
C172 C171 1.372 . S
C172 C173 1.397 . S
C173 C172 1.397 . S
C173 C174 1.390 . S
C173 C189 1.476 . S
C174 H132 0.930 . S
C174 C173 1.390 . S
C174 C175 1.366 . S
C175 H133 0.932 . S
C175 C170 1.360 . S
C175 C174 1.366 . S
C176 C150 1.490 . S
C176 C177 1.380 . S
C176 C181 1.386 . S
C177 H134 0.930 . S
C177 C176 1.380 . S
C177 C178 1.381 . S
C178 H135 0.929 . S
C178 C177 1.381 . S
C178 C179 1.371 . S
C179 C178 1.371 . S
C179 C180 1.380 . S
C180 H136 0.931 . S
C180 C179 1.380 . S
C180 C181 1.387 . S
C181 H137 0.930 . S
C181 C176 1.386 . S
C181 C180 1.387 . S
C182 C151 1.519 . S
C182 C183 1.377 . S
C182 C187 1.361 . S
C183 H138 0.929 . S
C183 C182 1.377 . S
C183 C184 1.386 . S
C184 H139 0.931 . S
C184 C183 1.386 . S
C184 C185 1.363 . S
C185 C184 1.363 . S
C185 C186 1.385 . S
C186 H140 0.930 . S
C186 C185 1.385 . S
C186 C187 1.396 . S
C187 H141 0.929 . S
C187 C182 1.361 . S
C187 C186 1.396 . S
C188 O142 1.300 . S
C188 O143 1.209 . S
C188 C161 1.486 . S
C189 O144 1.199 . S
C189 O145 1.297 . S
C189 C173 1.476 . S
H190 O216 0.856 . S
H191 O219 0.854 . S
H192 C227 0.930 . S
H193 C228 0.930 . S
H194 C230 0.930 . S
H195 C231 0.930 . S
H196 C233 0.925 1_556 S
H197 C234 0.930 . S
H198 C236 0.930 . S
H199 C237 0.929 . S
H200 C239 0.930 . S
H201 C240 0.933 . S
H202 C242 0.930 . S
H203 C243 0.929 . S
H204 C245 0.931 . S
H205 C246 0.930 . S
H206 C248 0.930 . S
H207 C249 0.932 . S
H208 C251 0.930 . S
H209 C252 0.929 . S
H210 C254 0.931 . S
H211 C255 0.930 . S
H212 C257 0.929 . S
H213 C258 0.931 . S
H214 C260 0.930 . S
H215 C261 0.929 . S
O216 H190 0.856 . S
O216 C262 1.300 . S
O217 C262 1.209 . S
O218 C263 1.199 . S
O219 H191 0.854 . S
O219 C263 1.297 . S
C220 C221 1.404 . S
C220 C225 1.397 . S
C220 C226 1.492 . S
C221 C220 1.404 . S
C221 C222 1.396 . S
C221 C232 1.492 . S
C222 C221 1.396 . S
C222 C223 1.397 . S
C222 C238 1.509 . S
C223 C222 1.397 . S
C223 C224 1.412 . S
C223 C244 1.485 . S
C224 C223 1.412 . S
C224 C225 1.388 . S
C224 C250 1.490 . S
C225 C220 1.397 . S
C225 C224 1.388 . S
C225 C256 1.519 . S
C226 C220 1.492 . S
C226 C227 1.363 . S
C226 C231 1.390 . S
C227 H192 0.930 . S
C227 C226 1.363 . S
C227 C228 1.372 . S
C228 H193 0.930 . S
C228 C227 1.372 . S
C228 C229 1.383 . S
C229 C228 1.383 . S
C229 C230 1.395 . S
C230 H194 0.930 . S
C230 C229 1.395 . S
C230 C231 1.362 . S
C231 H195 0.930 . S
C231 C226 1.390 . S
C231 C230 1.362 . S
C232 C221 1.492 . S
C232 C233 1.377 1_556 S
C232 C237 1.397 . S
C233 H196 0.925 1_554 S
C233 C232 1.377 1_554 S
C233 C234 1.376 . S
C234 H197 0.930 . S
C234 C233 1.376 . S
C234 C235 1.376 . S
C235 C234 1.376 . S
C235 C236 1.378 . S
C235 C262 1.486 . S
C236 H198 0.930 . S
C236 C235 1.378 . S
C236 C237 1.376 1_554 S
C237 H199 0.929 . S
C237 C232 1.397 . S
C237 C236 1.376 1_556 S
C238 C222 1.509 . S
C238 C239 1.391 . S
C238 C243 1.386 . S
C239 H200 0.930 . S
C239 C238 1.391 . S
C239 C240 1.375 . S
C240 H201 0.933 . S
C240 C239 1.375 . S
C240 C241 1.375 1_556 S
C241 C240 1.375 1_554 S
C241 C242 1.361 . S
C242 H202 0.930 . S
C242 C241 1.361 . S
C242 C243 1.399 1_554 S
C243 H203 0.929 . S
C243 C238 1.386 . S
C243 C242 1.399 1_556 S
C244 C223 1.485 . S
C244 C245 1.394 . S
C244 C249 1.360 . S
C245 H204 0.931 . S
C245 C244 1.394 . S
C245 C246 1.372 . S
C246 H205 0.930 . S
C246 C245 1.372 . S
C246 C247 1.397 . S
C247 C246 1.397 . S
C247 C248 1.390 . S
C247 C263 1.476 . S
C248 H206 0.930 . S
C248 C247 1.390 . S
C248 C249 1.366 . S
C249 H207 0.932 . S
C249 C244 1.360 . S
C249 C248 1.366 . S
C250 C224 1.490 . S
C250 C251 1.380 . S
C250 C255 1.386 . S
C251 H208 0.930 . S
C251 C250 1.380 . S
C251 C252 1.381 . S
C252 H209 0.929 . S
C252 C251 1.381 . S
C252 C253 1.371 . S
C253 C252 1.371 . S
C253 C254 1.380 . S
C254 H210 0.931 . S
C254 C253 1.380 . S
C254 C255 1.387 . S
C255 H211 0.930 . S
C255 C250 1.386 . S
C255 C254 1.387 . S
C256 C225 1.519 . S
C256 C257 1.377 . S
C256 C261 1.361 . S
C257 H212 0.929 . S
C257 C256 1.377 . S
C257 C258 1.386 . S
C258 H213 0.931 . S
C258 C257 1.386 . S
C258 C259 1.363 . S
C259 C258 1.363 . S
C259 C260 1.385 . S
C260 H214 0.930 . S
C260 C259 1.385 . S
C260 C261 1.396 . S
C261 H215 0.929 . S
C261 C256 1.361 . S
C261 C260 1.396 . S
C262 O216 1.300 . S
C262 O217 1.209 . S
C262 C235 1.486 . S
C263 O218 1.199 . S
C263 O219 1.297 . S
C263 C247 1.476 . S
C264 C265 1.388 . S
C264 H268 0.949 1_455 S
C264 C273 1.390 1_455 S
C265 C264 1.388 . S
C265 C267 1.387 . S
H266 C273 0.950 . S
C267 C265 1.387 . S
C267 C269 1.390 . S
C267 H271 0.950 . S
H268 C264 0.949 1_655 S
C269 C267 1.390 . S
C269 C270 1.387 . S
C269 H272 0.950 . S
C270 C269 1.387 . S
C270 C273 1.387 1_455 S
H271 C267 0.950 . S
H272 C269 0.950 . S
C273 C264 1.390 1_655 S
C273 H266 0.950 . S
C273 C270 1.387 1_655 S
C274 C275 1.387 . S
C274 H278 0.950 1_545 S
C274 C283 1.390 . S
C275 C274 1.387 . S
C275 C277 1.387 . S
H276 C283 0.950 . S
C277 C275 1.387 . S
C277 C279 1.390 . S
C277 H281 0.950 . S
H278 C274 0.950 1_565 S
C279 C277 1.390 . S
C279 C280 1.387 . S
C279 H282 0.950 . S
C280 C279 1.387 . S
C280 C283 1.387 . S
H281 C277 0.950 . S
H282 C279 0.950 . S
C283 C274 1.390 . S
C283 H276 0.950 . S
C283 C280 1.387 . S
C284 C285 1.387 . S
C284 H288 0.950 1_565 S
C284 C293 1.390 . S
C285 C284 1.387 . S
C285 C287 1.387 . S
H286 C293 0.950 . S
C287 C285 1.387 . S
C287 C289 1.390 . S
C287 H291 0.950 . S
H288 C284 0.950 1_545 S
C289 C287 1.390 . S
C289 C290 1.387 . S
C289 H292 0.950 . S
C290 C289 1.387 . S
C290 C293 1.387 . S
H291 C287 0.950 . S
H292 C289 0.950 . S
C293 C284 1.390 . S
C293 H286 0.950 . S
C293 C290 1.387 . S
C294 C295 1.387 . S
C294 H298 0.950 . S
C294 C303 1.390 . S
C295 C294 1.387 . S
C295 C297 1.387 . S
H296 C303 0.950 . S
C297 C295 1.387 . S
C297 C299 1.390 . S
C297 H301 0.950 1_565 S
H298 C294 0.950 . S
C299 C297 1.390 . S
C299 C300 1.387 . S
C299 H302 0.950 . S
C300 C299 1.387 . S
C300 C303 1.387 . S
H301 C297 0.950 1_545 S
H302 C299 0.950 . S
C303 C294 1.390 . S
C303 H296 0.950 . S
C303 C300 1.387 . S
C304 C305 1.387 . S
C304 H308 0.950 1_545 S
C304 C313 1.390 . S
C305 C304 1.387 . S
C305 C307 1.387 . S
H306 C313 0.950 . S
C307 C305 1.387 . S
C307 C309 1.390 . S
C307 H311 0.950 . S
H308 C304 0.950 1_565 S
C309 C307 1.390 . S
C309 C310 1.387 . S
C309 H312 0.950 . S
C310 C309 1.387 . S
C310 C313 1.387 . S
H311 C307 0.950 . S
H312 C309 0.950 . S
C313 C304 1.390 . S
C313 H306 0.950 . S
C313 C310 1.387 . S
C314 C315 1.387 . S
C314 H318 0.950 . S
C314 C323 1.390 . S
C315 C314 1.387 . S
C315 C317 1.387 . S
H316 C323 0.950 . S
C317 C315 1.387 . S
C317 C319 1.390 . S
C317 H321 0.950 . S
H318 C314 0.950 . S
C319 C317 1.390 . S
C319 C320 1.387 . S
C319 H322 0.950 . S
C320 C319 1.387 . S
C320 C323 1.387 . S
H321 C317 0.950 . S
H322 C319 0.950 . S
C323 C314 1.390 . S
C323 H316 0.950 . S
C323 C320 1.387 . S
C324 C325 1.387 . S
C324 H328 0.950 1_655 S
C324 C333 1.390 . S
C325 C324 1.387 . S
C325 C327 1.387 . S
H326 C333 0.950 . S
C327 C325 1.387 . S
C327 C329 1.390 . S
C327 H331 0.950 . S
H328 C324 0.950 1_455 S
C329 C327 1.390 . S
C329 C330 1.387 . S
C329 H332 0.950 . S
C330 C329 1.387 . S
C330 C333 1.387 . S
H331 C327 0.950 . S
H332 C329 0.950 . S
C333 C324 1.390 . S
C333 H326 0.950 . S
C333 C330 1.387 . S
C334 C335 1.387 . S
C334 H338 0.950 . S
C334 C343 1.390 . S
C335 C334 1.387 . S
C335 C337 1.387 1_565 S
H336 C343 0.950 . S
C337 C335 1.387 1_545 S
C337 C339 1.390 1_544 S
C337 H341 0.950 1_655 S
H338 C334 0.950 . S
C339 C337 1.390 1_566 S
C339 C340 1.387 . S
C339 H342 0.950 1_565 S
C340 C339 1.387 . S
C340 C343 1.387 1_556 S
H341 C337 0.950 1_455 S
H342 C339 0.950 1_545 S
C343 C334 1.390 . S
C343 H336 0.950 . S
C343 C340 1.387 1_554 S
C344 C345 1.387 1_455 S
C344 H348 0.950 . S
C344 C353 1.390 . S
C345 C344 1.387 1_655 S
C345 C347 1.387 . S
H346 C353 0.950 . S
C347 C345 1.387 . S
C347 C349 1.390 . S
C347 H351 0.950 . S
H348 C344 0.950 . S
C349 C347 1.390 . S
C349 C350 1.387 . S
C349 H352 0.950 . S
C350 C349 1.387 . S
C350 C353 1.387 1_655 S
H351 C347 0.950 . S
H352 C349 0.950 . S
C353 C344 1.390 . S
C353 H346 0.950 . S
C353 C350 1.387 1_455 S
C354 C355 1.387 . S
C354 H358 0.950 . S
C354 C363 1.390 . S
C355 C354 1.387 . S
C355 C357 1.387 . S
H356 C363 0.950 . S
C357 C355 1.387 . S
C357 C359 1.390 . S
C357 H361 0.950 1_545 S
H358 C354 0.950 . S
C359 C357 1.390 . S
C359 C360 1.387 . S
C359 H362 0.950 . S
C360 C359 1.387 . S
C360 C363 1.387 . S
H361 C357 0.950 1_565 S
H362 C359 0.950 . S
C363 C354 1.390 . S
C363 H356 0.950 . S
C363 C360 1.387 . S
C364 C365 1.387 . S
C364 H368 0.950 . S
C364 C373 1.390 . S
C365 C364 1.387 . S
C365 C367 1.387 . S
H366 C373 0.950 1_556 S
C367 C365 1.387 . S
C367 C369 1.390 . S
C367 H371 0.950 . S
H368 C364 0.950 . S
C369 C367 1.390 . S
C369 C370 1.387 . S
C369 H372 0.950 . S
C370 C369 1.387 . S
C370 C373 1.387 . S
H371 C367 0.950 . S
H372 C369 0.950 . S
C373 C364 1.390 . S
C373 H366 0.950 1_554 S
C373 C370 1.387 . S
C374 C375 1.387 . S
C374 H378 0.950 . S
C374 C383 1.390 . S
C375 C374 1.387 . S
C375 C377 1.387 . S
H376 C383 0.950 . S
C377 C375 1.387 . S
C377 C379 1.390 . S
C377 H381 0.950 . S
H378 C374 0.950 . S
C379 C377 1.390 . S
C379 C380 1.387 . S
C379 H382 0.950 . S
C380 C379 1.387 . S
C380 C383 1.387 . S
H381 C377 0.950 . S
H382 C379 0.950 . S
C383 C374 1.390 . S
C383 H376 0.950 . S
C383 C380 1.387 . S
C270 C81 1.415 . S
C265 C11 1.572 . S
C275 C26 1.588 1_545 S
C280 C155 1.513 . S
C285 C40 1.974 1_665 S
C290 C259 1.986 . S
C295 C5 0.804 . S
C300 C93 0.852 . S
C310 C167 1.031 . S
C305 C18 1.025 . S
C315 C32 1.699 . S
C320 C253 1.500 . S
C330 C185 1.918 . S
C325 C39 1.918 1_655 S
C335 C4 1.483 1_565 S
C340 C229 1.435 . S
C350 C105 1.495 1_655 S
C345 C19 1.537 . S
C360 C179 1.386 . S
C355 C33 1.413 . S
C370 C241 0.894 . S
C365 C12 0.894 . S
C375 C25 2.027 . S
C380 C111 2.044 . S
