# Generated by pormake.
# Topology pth, (4,4)-cn, num edge types: 1
# Building blocks:
#     Node 0, Type 0, BuildingBlock: QUQFOY_clean_sbu_1, # of connection points: 4
#     Node 1, Type 0, BuildingBlock: QUQFOY_clean_sbu_1, # of connection points: 4
#     Node 2, Type 0, BuildingBlock: QUQFOY_clean_sbu_1, # of connection points: 4
#     Node 3, Type 1, BuildingBlock: NAHDIM_clean_linker_0, # of connection points: 4
#     Node 4, Type 1, BuildingBlock: NAHDIM_clean_linker_0, # of connection points: 4
#     Node 5, Type 1, BuildingBlock: NAHDIM_clean_linker_0, # of connection points: 4
#     Edge 6, Type (0, 1), BuildingBlock: XUDNAN_clean_linker_2, # of connection points: 2
#     Edge 7, Type (0, 1), BuildingBlock: XUDNAN_clean_linker_2, # of connection points: 2
#     Edge 8, Type (0, 1), BuildingBlock: XUDNAN_clean_linker_2, # of connection points: 2
#     Edge 9, Type (0, 1), BuildingBlock: XUDNAN_clean_linker_2, # of connection points: 2
#     Edge 10, Type (0, 1), BuildingBlock: XUDNAN_clean_linker_2, # of connection points: 2
#     Edge 11, Type (0, 1), BuildingBlock: XUDNAN_clean_linker_2, # of connection points: 2
#     Edge 12, Type (0, 1), BuildingBlock: XUDNAN_clean_linker_2, # of connection points: 2
#     Edge 13, Type (0, 1), BuildingBlock: XUDNAN_clean_linker_2, # of connection points: 2
#     Edge 14, Type (0, 1), BuildingBlock: XUDNAN_clean_linker_2, # of connection points: 2
#     Edge 15, Type (0, 1), BuildingBlock: XUDNAN_clean_linker_2, # of connection points: 2
#     Edge 16, Type (0, 1), BuildingBlock: XUDNAN_clean_linker_2, # of connection points: 2
#     Edge 17, Type (0, 1), BuildingBlock: XUDNAN_clean_linker_2, # of connection points: 2
# Relax obj value: 0.028
# Max RMSD: 0.121
# Mean RMSD: 0.078
data_MOF--net-pth--node1-QUQFOY_clean_sbu_1--node2-NAHDIM_clean_linker_0--edge1-XUDNAN_clean_linker_2
_symmetry_space_group_name_H-M    P1
_symmetry_Int_Tables_number       1
_symmetry_cell_setting            triclinic
loop_
_symmetry_equiv_pos_as_xyz
'x, y, z'
_cell_length_a     30.662853
_cell_length_b     33.35824
_cell_length_c     83.332395
_cell_angle_alpha  89.610842
_cell_angle_beta   90.7532
_cell_angle_gamma 120.05492
loop_
_atom_site_label
_atom_site_type_symbol
_atom_site_fract_x
_atom_site_fract_y
_atom_site_fract_z
_atom_type_partial_charge
O0 O 0.00599 0.0992 0.05792 0.0
Cd1 Cd 0.95816 0.05408 0.07495 0.0
Cd2 Cd 0.00462 0.00638 0.06653 0.0
O3 O 0.05363 0.06759 0.0551 0.0
O4 O 0.9301 0.08951 0.08549 0.0
O5 O 0.97992 0.06907 0.09812 0.0
C6 C 0.95449 0.09038 0.0983 0.0
C7 C 0.03583 0.96887 0.08276 0.0
C8 C 0.0444 0.09999 0.05201 0.0
C9 C 0.89517 0.96423 0.05795 0.0
O10 O 0.93603 0.96439 0.0554 0.0
O11 O 0.89504 0.99493 0.06686 0.0
O12 O 0.03928 0.96942 0.06735 0.0
O13 O 0.01543 0.9907 0.0891 0.0
O14 O 0.98308 0.06616 0.41042 0.0
Cd15 Cd 0.04473 0.07863 0.39724 0.0
Cd16 Cd 0.99547 0.98398 0.39407 0.0
O17 O 0.94058 0.99101 0.4058 0.0
O18 O 0.0748 0.14296 0.38889 0.0
O19 O 0.03897 0.08073 0.3733 0.0
C20 C 0.06041 0.12525 0.37475 0.0
C21 C 0.96634 0.92374 0.3753 0.0
C22 C 0.94349 0.02699 0.41201 0.0
C23 C 0.09571 0.03154 0.41212 0.0
O24 O 0.05767 0.9942 0.40725 0.0
O25 O 0.09941 0.07049 0.40903 0.0
O26 O 0.95911 0.91586 0.39043 0.0
O27 O 0.99014 0.96632 0.37059 0.0
O28 O 0.92565 0.01057 0.70955 0.0
Cd29 Cd 0.96067 0.98154 0.72265 0.0
Cd30 Cd 0.02156 0.06935 0.73179 0.0
O31 O 0.9679 0.07992 0.72054 0.0
O32 O 0.91208 0.91429 0.72525 0.0
O33 O 0.94263 0.9633 0.74567 0.0
C34 C 0.91434 0.92144 0.74051 0.0
C35 C 0.05636 0.10401 0.75648 0.0
C36 C 0.93353 0.05159 0.71108 0.0
C37 C 0.06656 0.02464 0.71181 0.0
O38 O 0.07147 0.06194 0.71749 0.0
O39 O 0.02534 0.9868 0.71339 0.0
O40 O 0.06614 0.12795 0.74348 0.0
O41 O 0.02448 0.06013 0.75564 0.0
C42 C 0.90152 0.70862 0.27703 0.0
C43 C 0.91359 0.69257 0.29292 0.0
C44 C 0.97201 0.66519 0.28568 0.0
C45 C 0.02212 0.67543 0.28648 0.0
C46 C 0.03709 0.64596 0.27959 0.0
C47 C 0.0008 0.60503 0.27176 0.0
C48 C 0.94981 0.59388 0.27116 0.0
C49 C 0.93596 0.62415 0.278 0.0
C50 C 0.09179 0.65893 0.2804 0.0
C51 C 0.91002 0.55026 0.26301 0.0
C52 C 0.13573 0.38068 0.28698 0.0
C53 C 0.10133 0.37401 0.30121 0.0
C54 C 0.05092 0.4068 0.29003 0.0
C55 C 0.00386 0.39555 0.28356 0.0
C56 C 0.99584 0.42927 0.27613 0.0
C57 C 0.03624 0.47538 0.275 0.0
C58 C 0.08326 0.48757 0.28224 0.0
C59 C 0.09003 0.4533 0.28981 0.0
C60 C 0.94481 0.41525 0.26891 0.0
C61 C 0.12695 0.53657 0.28145 0.0
C62 C 0.06594 0.40311 0.1789 0.0
C63 C 0.0188 0.39977 0.18066 0.0
C64 C 0.01522 0.43814 0.1856 0.0
C65 C 0.05975 0.48065 0.18884 0.0
C66 C 0.10727 0.48501 0.18586 0.0
C67 C 0.10971 0.44611 0.18076 0.0
C68 C 0.96386 0.43262 0.18814 0.0
C69 C 0.15542 0.52997 0.18898 0.0
C70 C 0.11797 0.81572 0.17805 0.0
C71 C 0.10997 0.7892 0.16227 0.0
C72 C 0.0665 0.7074 0.17082 0.0
C73 C 0.0202 0.66607 0.17105 0.0
C74 C 0.01476 0.62651 0.17898 0.0
C75 C 0.05688 0.62837 0.18684 0.0
C76 C 0.10416 0.66964 0.18635 0.0
C77 C 0.10851 0.7087 0.17841 0.0
C78 C 0.96382 0.58306 0.17929 0.0
C79 C 0.14999 0.67275 0.19454 0.0
C80 C 0.01628 0.57497 0.26344 0.0
C81 C 0.01958 0.54081 0.27234 0.0
C82 C 0.03102 0.50974 0.26492 0.0
C83 C 0.03818 0.51197 0.24812 0.0
C84 C 0.04797 0.48026 0.24019 0.0
C85 C 0.05369 0.48196 0.22365 0.0
C86 C 0.05115 0.51617 0.21438 0.0
C87 C 0.05645 0.51782 0.1975 0.0
C88 C 0.05713 0.55411 0.18876 0.0
C89 C 0.05127 0.58833 0.19644 0.0
C90 C 0.0426 0.58539 0.21317 0.0
C91 C 0.03366 0.61759 0.22113 0.0
C92 C 0.02487 0.6142 0.23756 0.0
C93 C 0.02558 0.57896 0.24674 0.0
C94 C 0.03566 0.54682 0.23903 0.0
C95 C 0.04314 0.54947 0.22218 0.0
C96 C 0.07798 0.31705 0.19542 0.0
C97 C 0.04334 0.32288 0.18336 0.0
O98 O 0.96052 0.696 0.29228 0.0
O99 O 0.06861 0.74488 0.16336 0.0
O100 O 0.07023 0.36536 0.1757 0.0
O101 O 0.05697 0.3717 0.29597 0.0
H102 H 0.884 0.65599 0.29505 0.0
H103 H 0.8989 0.68552 0.26709 0.0
H104 H 0.93135 0.74445 0.27405 0.0
H105 H 0.86478 0.70751 0.2778 0.0
H106 H 0.04973 0.70704 0.29241 0.0
H107 H 0.89702 0.61546 0.2771 0.0
H108 H 0.09542 0.63136 0.28675 0.0
H109 H 0.11557 0.69234 0.28671 0.0
H110 H 0.10634 0.66161 0.26807 0.0
H111 H 0.87138 0.54425 0.26487 0.0
H112 H 0.91188 0.51981 0.2676 0.0
H113 H 0.91719 0.55273 0.24991 0.0
H114 H 0.12152 0.40364 0.30963 0.0
H115 H 0.16994 0.38011 0.29122 0.0
H116 H 0.14825 0.41444 0.281 0.0
H117 H 0.1157 0.35288 0.27792 0.0
H118 H 0.97362 0.35983 0.28398 0.0
H119 H 0.1263 0.46308 0.29517 0.0
H120 H 0.93259 0.44009 0.2725 0.0
H121 H 0.91573 0.37981 0.27261 0.0
H122 H 0.9473 0.41616 0.25562 0.0
H123 H 0.16102 0.54068 0.28782 0.0
H124 H 0.11608 0.56059 0.28686 0.0
H125 H 0.13659 0.54696 0.26872 0.0
H126 H 0.01242 0.32131 0.1907 0.0
H127 H 0.98478 0.36698 0.17848 0.0
H128 H 0.14592 0.44855 0.17902 0.0
H129 H 0.95721 0.43258 0.20121 0.0
H130 H 0.93325 0.39985 0.1829 0.0
H131 H 0.96194 0.46222 0.18272 0.0
H132 H 0.18924 0.52857 0.18519 0.0
H133 H 0.15898 0.53815 0.20199 0.0
H134 H 0.15436 0.55864 0.18247 0.0
H135 H 0.14463 0.78736 0.1601 0.0
H136 H 0.14751 0.85263 0.17661 0.0
H137 H 0.13052 0.80064 0.18772 0.0
H138 H 0.08249 0.81373 0.18199 0.0
H139 H 0.98797 0.66512 0.16515 0.0
H140 H 0.14482 0.74004 0.17842 0.0
H141 H 0.95119 0.57412 0.1919 0.0
H142 H 0.96662 0.55372 0.17424 0.0
H143 H 0.9349 0.58687 0.17236 0.0
H144 H 0.18486 0.7061 0.19207 0.0
H145 H 0.15543 0.6439 0.1905 0.0
H146 H 0.14416 0.6692 0.20771 0.0
H147 H 0.013 0.53828 0.28516 0.0
H148 H 0.05074 0.45334 0.24664 0.0
H149 H 0.06057 0.45624 0.21825 0.0
H150 H 0.06257 0.55588 0.17588 0.0
H151 H 0.03276 0.64551 0.21472 0.0
H152 H 0.01784 0.63979 0.24299 0.0
H153 H 0.11362 0.32394 0.18972 0.0
H154 H 0.05865 0.28155 0.20057 0.0
H155 H 0.08791 0.34221 0.20539 0.0
C156 C 0.42396 0.11501 0.67226 0.0
C157 C 0.38378 0.09919 0.65895 0.0
C158 C 0.42131 0.07648 0.63734 0.0
C159 C 0.45594 0.12148 0.63207 0.0
C160 C 0.49046 0.12859 0.61994 0.0
C161 C 0.49108 0.09009 0.61318 0.0
C162 C 0.45669 0.04483 0.6186 0.0
C163 C 0.4218 0.03869 0.63044 0.0
C164 C 0.52644 0.17731 0.6144 0.0
C165 C 0.45705 0.00295 0.61201 0.0
C166 C 0.8967 0.19194 0.60926 0.0
C167 C 0.84301 0.16109 0.61527 0.0
C168 C 0.76771 0.16761 0.61036 0.0
C169 C 0.73234 0.12001 0.6112 0.0
C170 C 0.68198 0.10312 0.60647 0.0
C171 C 0.66674 0.13448 0.60096 0.0
C172 C 0.7018 0.18254 0.60073 0.0
C173 C 0.75186 0.19844 0.60549 0.0
C174 C 0.6452 0.05174 0.6071 0.0
C175 C 0.68657 0.21697 0.59516 0.0
C176 C 0.67278 0.07292 0.49913 0.0
C177 C 0.63622 0.03182 0.50641 0.0
C178 C 0.59838 0.03131 0.51581 0.0
C179 C 0.59659 0.07256 0.51772 0.0
C180 C 0.63116 0.11318 0.50947 0.0
C181 C 0.66881 0.11275 0.50018 0.0
C182 C 0.56113 0.98702 0.52408 0.0
C183 C 0.62945 0.1574 0.51097 0.0
C184 C 0.19949 0.99325 0.52067 0.0
C185 C 0.24985 0.01612 0.51193 0.0
C186 C 0.32355 0.00845 0.51917 0.0
C187 C 0.33724 0.97808 0.52611 0.0
C188 C 0.38707 0.99335 0.53097 0.0
C189 C 0.42409 0.04044 0.52889 0.0
C190 C 0.41098 0.0711 0.52132 0.0
C191 C 0.36088 0.0547 0.51637 0.0
C192 C 0.39996 0.95931 0.53855 0.0
C193 C 0.44983 0.1213 0.51866 0.0
C194 C 0.52853 0.09715 0.60076 0.0
C195 C 0.57784 0.11149 0.60583 0.0
C196 C 0.61461 0.11708 0.59489 0.0
C197 C 0.60181 0.107 0.57848 0.0
C198 C 0.63741 0.11042 0.56728 0.0
C199 C 0.62426 0.09968 0.5512 0.0
C200 C 0.57515 0.0857 0.54565 0.0
C201 C 0.56119 0.0739 0.52937 0.0
C202 C 0.51216 0.06026 0.52422 0.0
C203 C 0.4762 0.05766 0.53497 0.0
C204 C 0.48935 0.06907 0.55132 0.0
C205 C 0.45409 0.06672 0.56248 0.0
C206 C 0.46689 0.07628 0.57865 0.0
C207 C 0.51551 0.08877 0.58428 0.0
C208 C 0.55213 0.09299 0.57315 0.0
C209 C 0.53894 0.08284 0.55668 0.0
C210 C 0.7828 0.08889 0.50757 0.0
C211 C 0.7405 0.05555 0.4962 0.0
O212 O 0.38703 0.06766 0.64901 0.0
O213 O 0.27415 0.99143 0.51536 0.0
O214 O 0.71227 0.07531 0.49109 0.0
O215 O 0.81728 0.18528 0.61406 0.0
H216 H 0.38919 0.12968 0.65186 0.0
H217 H 0.4622 0.13215 0.667 0.0
H218 H 0.41886 0.08489 0.67951 0.0
H219 H 0.42155 0.1403 0.68028 0.0
H220 H 0.45646 0.15129 0.63728 0.0
H221 H 0.39508 0.00415 0.6346 0.0
H222 H 0.56531 0.18726 0.61832 0.0
H223 H 0.51702 0.20286 0.61934 0.0
H224 H 0.52614 0.17918 0.60109 0.0
H225 H 0.43225 0.97099 0.61888 0.0
H226 H 0.49596 0.0086 0.61223 0.0
H227 H 0.44386 0.99743 0.59932 0.0
H228 H 0.82537 0.13025 0.60724 0.0
H229 H 0.91813 0.17321 0.60996 0.0
H230 H 0.91671 0.22418 0.6165 0.0
H231 H 0.89562 0.20162 0.59653 0.0
H232 H 0.74373 0.0959 0.61549 0.0
H233 H 0.77926 0.23513 0.60511 0.0
H234 H 0.63014 0.03886 0.59486 0.0
H235 H 0.61281 0.0449 0.61475 0.0
H236 H 0.66273 0.0319 0.6119 0.0
H237 H 0.71781 0.25334 0.59635 0.0
H238 H 0.65404 0.21265 0.60223 0.0
H239 H 0.67435 0.2103 0.58239 0.0
H240 H 0.71739 0.02356 0.50328 0.0
H241 H 0.63707 1.00006 0.50483 0.0
H242 H 0.69652 0.14403 0.49421 0.0
H243 H 0.5645 0.99224 0.53729 0.0
H244 H 0.56705 0.95766 0.52116 0.0
H245 H 0.52216 0.97765 0.5205 0.0
H246 H 0.65612 0.18483 0.50273 0.0
H247 H 0.63914 0.17037 0.52348 0.0
H248 H 0.59072 0.15062 0.50837 0.0
H249 H 0.27173 0.0521 0.51663 0.0
H250 H 0.17924 0.01259 0.51835 0.0
H251 H 0.20616 0.99333 0.53381 0.0
H252 H 0.17533 0.9568 0.51666 0.0
H253 H 0.30837 0.94229 0.52795 0.0
H254 H 0.35136 0.07814 0.51032 0.0
H255 H 0.41013 0.96834 0.55138 0.0
H256 H 0.43313 0.96127 0.53257 0.0
H257 H 0.36808 0.92311 0.53783 0.0
H258 H 0.4333 0.14117 0.51313 0.0
H259 H 0.4798 0.12366 0.51071 0.0
H260 H 0.46794 0.1377 0.53028 0.0
H261 H 0.58776 0.1184 0.61845 0.0
H262 H 0.67576 0.12096 0.57083 0.0
H263 H 0.65318 0.10252 0.54319 0.0
H264 H 0.50157 0.0506 0.51176 0.0
H265 H 0.41604 0.05709 0.55886 0.0
H266 H 0.43813 0.0736 0.58671 0.0
H267 H 0.80497 0.12386 0.50217 0.0
H268 H 0.80836 0.07527 0.51063 0.0
H269 H 0.76624 0.09248 0.51888 0.0
C270 C 0.80393 0.72424 0.84409 0.0
C271 C 0.76358 0.70318 0.83078 0.0
C272 C 0.68065 0.66943 0.84363 0.0
C273 C 0.63697 0.67251 0.84468 0.0
C274 C 0.59451 0.63891 0.8529 0.0
C275 C 0.59608 0.6015 0.8604 0.0
C276 C 0.64027 0.5983 0.85955 0.0
C277 C 0.68211 0.63226 0.8512 0.0
C278 C 0.54797 0.64335 0.8536 0.0
C279 C 0.64327 0.55898 0.86754 0.0
C280 C 0.37209 0.2892 0.82119 0.0
C281 C 0.33096 0.28955 0.83141 0.0
C282 C 0.37093 0.37033 0.84098 0.0
C283 C 0.40702 0.36869 0.85114 0.0
C284 C 0.44189 0.40793 0.85983 0.0
C285 C 0.43951 0.44918 0.85881 0.0
C286 C 0.40287 0.45078 0.84875 0.0
C287 C 0.36939 0.41141 0.83987 0.0
C288 C 0.4812 0.40521 0.87013 0.0
C289 C 0.39892 0.49399 0.84744 0.0
C290 C 0.33304 0.38892 0.96131 0.0
C291 C 0.37663 0.38799 0.95689 0.0
C292 C 0.41554 0.4253 0.94862 0.0
C293 C 0.41036 0.4639 0.9444 0.0
C294 C 0.36674 0.46509 0.94893 0.0
C295 C 0.32887 0.42769 0.95746 0.0
C296 C 0.46214 0.42334 0.94433 0.0
C297 C 0.3599 0.50563 0.94463 0.0
C298 C 0.66307 0.81203 0.96243 0.0
C299 C 0.6429 0.77705 0.97627 0.0
C300 C 0.61817 0.70183 0.96373 0.0
C301 C 0.63011 0.66665 0.96254 0.0
C302 C 0.6002 0.62677 0.95335 0.0
C303 C 0.55734 0.62216 0.94511 0.0
C304 C 0.5451 0.65768 0.94614 0.0
C305 C 0.5756 0.69716 0.95542 0.0
C306 C 0.61427 0.58952 0.95246 0.0
C307 C 0.49961 0.65379 0.93746 0.0
C308 C 0.55164 0.56569 0.8692 0.0
C309 C 0.51666 0.52619 0.86079 0.0
C310 C 0.47479 0.49041 0.86844 0.0
C311 C 0.46754 0.49386 0.885 0.0
C312 C 0.42577 0.45864 0.89307 0.0
C313 C 0.41998 0.46153 0.90948 0.0
C314 C 0.45535 0.50005 0.9184 0.0
C315 C 0.45049 0.50279 0.93515 0.0
C316 C 0.48478 0.54266 0.9435 0.0
C317 C 0.52454 0.57986 0.93562 0.0
C318 C 0.53149 0.57688 0.91902 0.0
C319 C 0.57235 0.61285 0.91086 0.0
C320 C 0.57912 0.60927 0.89455 0.0
C321 C 0.54489 0.56987 0.88574 0.0
C322 C 0.50295 0.53358 0.89368 0.0
C323 C 0.49658 0.53686 0.91038 0.0
C324 C 0.26926 0.28077 0.95657 0.0
C325 C 0.28634 0.30938 0.97206 0.0
O326 O 0.72021 0.70308 0.83534 0.0
O327 O 0.64878 0.73938 0.97292 0.0
O328 O 0.29413 0.3535 0.96921 0.0
O329 O 0.33731 0.3337 0.83194 0.0
H330 H 0.75544 0.66714 0.82873 0.0
H331 H 0.79208 0.70118 0.85474 0.0
H332 H 0.8099 0.75842 0.84797 0.0
H333 H 0.84016 0.72836 0.83985 0.0
H334 H 0.63614 0.70133 0.8389 0.0
H335 H 0.7157 0.62947 0.8508 0.0
H336 H 0.5153 0.61188 0.84842 0.0
H337 H 0.55251 0.67421 0.84698 0.0
H338 H 0.53914 0.6459 0.8663 0.0
H339 H 0.68047 0.56152 0.86589 0.0
H340 H 0.6135 0.52543 0.86253 0.0
H341 H 0.63631 0.55875 0.88059 0.0
H342 H 0.33276 0.2777 0.84379 0.0
H343 H 0.36616 0.25354 0.82052 0.0
H344 H 0.41001 0.31194 0.82646 0.0
H345 H 0.37153 0.30164 0.80882 0.0
H346 H 0.40861 0.33716 0.85231 0.0
H347 H 0.34145 0.41241 0.83203 0.0
H348 H 0.47227 0.40541 0.88298 0.0
H349 H 0.51898 0.4358 0.868 0.0
H350 H 0.48291 0.37329 0.86777 0.0
H351 H 0.36565 0.48836 0.84019 0.0
H352 H 0.4334 0.52197 0.84176 0.0
H353 H 0.39636 0.50612 0.85959 0.0
H354 H 0.32173 0.31163 0.97664 0.0
H355 H 0.3808 0.35846 0.95981 0.0
H356 H 0.29525 0.42822 0.96098 0.0
H357 H 0.46312 0.41953 0.93114 0.0
H358 H 0.46325 0.39388 0.95022 0.0
H359 H 0.49655 0.45606 0.94786 0.0
H360 H 0.32187 0.49937 0.94774 0.0
H361 H 0.36587 0.51305 0.93158 0.0
H362 H 0.38851 0.53693 0.95115 0.0
H363 H 0.60233 0.76529 0.97802 0.0
H364 H 0.6589 0.84246 0.96521 0.0
H365 H 0.64179 0.7961 0.95118 0.0
H366 H 0.7035 0.82404 0.96033 0.0
H367 H 0.66302 0.67052 0.96893 0.0
H368 H 0.56577 0.72401 0.95604 0.0
H369 H 0.6196 0.58337 0.93974 0.0
H370 H 0.58314 0.55655 0.95727 0.0
H371 H 0.64934 0.5987 0.95933 0.0
H372 H 0.49511 0.68441 0.93946 0.0
H373 H 0.46505 0.62231 0.94156 0.0
H374 H 0.50293 0.65003 0.92437 0.0
H375 H 0.52231 0.52309 0.84813 0.0
H376 H 0.39728 0.42817 0.88684 0.0
H377 H 0.38735 0.43315 0.91507 0.0
H378 H 0.48033 0.54486 0.95631 0.0
H379 H 0.59985 0.64397 0.91703 0.0
H380 H 0.61151 0.63785 0.88894 0.0
H381 H 0.23384 0.27819 0.95188 0.0
H382 H 0.26278 0.24533 0.9588 0.0
H383 H 0.29857 0.29712 0.94723 0.0
H384 H 0.03226 0.13795 0.11958 0.0
H385 H 0.88026 0.10671 0.10779 0.0
H386 H 0.88517 0.15999 0.12912 0.0
H387 H 0.02795 0.15329 0.16313 0.0
H388 H 0.09164 0.20129 0.16398 0.0
H389 H 0.07393 0.15662 0.14911 0.0
H390 H 0.10559 0.21875 0.12666 0.0
H391 H 0.12299 0.26352 0.14143 0.0
H392 H 0.08067 0.25746 0.1252 0.0
H393 H 0.90811 0.2195 0.15068 0.0
H394 H 0.94774 0.28172 0.17094 0.0
H395 H 0.0871 0.27859 0.16714 0.0
C396 C 0.99961 0.14148 0.12181 0.0
C397 C 0.95555 0.11776 0.11227 0.0
C398 C 0.91415 0.12433 0.11511 0.0
C399 C 0.9166 0.15448 0.12718 0.0
C400 C 0.961 0.17823 0.13614 0.0
C401 C 0.00184 0.17222 0.13359 0.0
C402 C 0.04644 0.20469 0.14402 0.0
C403 C 0.06082 0.17733 0.15576 0.0
C404 C 0.09157 0.23808 0.13371 0.0
C405 C 0.02436 0.23 0.15275 0.0
C406 C 0.97488 0.21385 0.14817 0.0
C407 C 0.94671 0.23214 0.15448 0.0
C408 C 0.96954 0.26749 0.16596 0.0
C409 C 0.02008 0.28433 0.171 0.0
C410 C 0.04802 0.26583 0.16397 0.0
H411 H 0.93614 0.09658 0.42685 0.0
H412 H 0.85735 0.94736 0.42031 0.0
H413 H 0.79271 0.93925 0.43942 0.0
H414 H 0.91924 0.09591 0.4679 0.0
H415 H 0.90977 0.14504 0.46823 0.0
H416 H 0.94673 0.13997 0.45263 0.0
H417 H 0.88889 0.14611 0.43099 0.0
H418 H 0.85193 0.15163 0.44654 0.0
H419 H 0.82184 0.10683 0.43159 0.0
H420 H 0.74215 0.94646 0.46135 0.0
H421 H 0.70771 0.96889 0.48399 0.0
H422 H 0.81729 0.1135 0.4755 0.0
C423 C 0.90478 0.06225 0.42917 0.0
C424 C 0.90187 0.02261 0.42206 0.0
C425 C 0.86039 0.97829 0.42555 0.0
C426 C 0.82341 0.9733 0.43639 0.0
C427 C 0.82811 0.01298 0.44348 0.0
C428 C 0.8674 0.05666 0.43988 0.0
C429 C 0.86522 0.09344 0.44983 0.0
C430 C 0.91308 0.12014 0.46027 0.0
C431 C 0.85643 0.12644 0.43909 0.0
C432 C 0.81958 0.06344 0.45997 0.0
C433 C 0.79853 0.01717 0.45604 0.0
C434 C 0.75797 0.98262 0.46442 0.0
C435 C 0.73885 0.99566 0.4773 0.0
C436 C 0.76051 0.0428 0.48177 0.0
C437 C 0.80044 0.07712 0.47262 0.0
H438 H 0.90008 0.9252 0.7729 0.0
H439 H 0.86555 0.82922 0.73341 0.0
H440 H 0.82168 0.76348 0.75201 0.0
H441 H 0.92373 0.86092 0.80247 0.0
H442 H 0.89451 0.87433 0.81859 0.0
H443 H 0.92204 0.91417 0.80213 0.0
H444 H 0.83715 0.91145 0.79677 0.0
H445 H 0.80941 0.87176 0.81327 0.0
H446 H 0.78076 0.85634 0.79359 0.0
H447 H 0.78519 0.70822 0.77497 0.0
H448 H 0.75589 0.66692 0.80076 0.0
H449 H 0.81013 0.79838 0.82516 0.0
C450 C 0.88305 0.89035 0.76816 0.0
C451 C 0.88633 0.88235 0.7517 0.0
C452 C 0.86344 0.83623 0.74596 0.0
C453 C 0.83846 0.79862 0.75643 0.0
C454 C 0.83621 0.80766 0.77259 0.0
C455 C 0.85745 0.85232 0.77843 0.0
C456 C 0.84972 0.85235 0.79635 0.0
C457 C 0.90053 0.87689 0.80541 0.0
C458 C 0.81732 0.87427 0.80022 0.0
C459 C 0.82161 0.80076 0.7997 0.0
C460 C 0.8143 0.77564 0.78582 0.0
C461 C 0.79059 0.72749 0.78592 0.0
C462 C 0.77423 0.70437 0.80063 0.0
C463 C 0.78177 0.72933 0.81507 0.0
C464 C 0.8048 0.7782 0.81445 0.0
H465 H 0.01133 0.93904 0.11396 0.0
H466 H 0.09973 0.93884 0.07373 0.0
H467 H 0.12707 0.89235 0.08952 0.0
H468 H 0.09725 0.94654 0.14547 0.0
H469 H 0.04797 0.90798 0.15879 0.0
H470 H 0.03635 0.94239 0.14449 0.0
H471 H 0.95984 0.86801 0.13304 0.0
H472 H 0.97136 0.83336 0.14726 0.0
H473 H 0.9685 0.82142 0.12608 0.0
H474 H 0.14511 0.84624 0.10953 0.0
H475 H 0.153 0.80357 0.13265 0.0
H476 H 0.04925 0.82974 0.15943 0.0
C477 C 0.03679 0.92955 0.10855 0.0
C478 C 0.05366 0.9428 0.09265 0.0
C479 C 0.08637 0.92912 0.08589 0.0
C480 C 0.10211 0.9027 0.09476 0.0
C481 C 0.08443 0.8898 0.11032 0.0
C482 C 0.05238 0.90258 0.11717 0.0
C483 C 0.03811 0.88316 0.13401 0.0
C484 C 0.056 0.92236 0.14642 0.0
C485 C 0.98107 0.84948 0.13515 0.0
C486 C 0.06751 0.85786 0.13558 0.0
C487 C 0.09406 0.86229 0.12179 0.0
C488 C 0.12462 0.84265 0.12043 0.0
C489 C 0.12889 0.81851 0.13362 0.0
C490 C 0.10289 0.81422 0.14804 0.0
C491 C 0.07068 0.83321 0.14879 0.0
H492 H 0.15426 0.09332 0.43538 0.0
H493 H 0.11711 0.96151 0.41411 0.0
H494 H 0.1655 0.94919 0.43552 0.0
H495 H 0.28282 0.12363 0.45205 0.0
H496 H 0.27273 0.14768 0.46998 0.0
H497 H 0.24497 0.15106 0.45117 0.0
H498 H 0.1569 0.11084 0.46427 0.0
H499 H 0.18417 0.10695 0.48301 0.0
H500 H 0.13406 0.05531 0.47383 0.0
H501 H 0.20389 0.94441 0.46136 0.0
H502 H 0.23102 0.94825 0.48957 0.0
H503 H 0.24327 0.08282 0.49447 0.0
C504 C 0.15813 0.06282 0.43487 0.0
C505 C 0.1325 0.02862 0.42299 0.0
C506 C 0.1368 0.9883 0.42304 0.0
C507 C 0.16434 0.98107 0.43513 0.0
C508 C 0.18744 0.01453 0.44706 0.0
C509 C 0.18501 0.05484 0.44697 0.0
C510 C 0.20744 0.08233 0.46226 0.0
C511 C 0.25482 0.12894 0.45864 0.0
C512 C 0.1683 0.08922 0.47137 0.0
C513 C 0.22074 0.0502 0.47124 0.0
C514 C 0.20975 0.0117 0.46215 0.0
C515 C 0.2141 0.97502 0.46843 0.0
C516 C 0.22958 0.97751 0.48447 0.0
C517 C 0.24074 0.01653 0.49405 0.0
C518 C 0.23665 0.0534 0.48724 0.0
H519 H 0.12614 0.19507 0.7611 0.0
H520 H 0.05239 0.06214 0.7854 0.0
H521 H 0.10938 0.09741 0.80879 0.0
H522 H 0.24712 0.22572 0.77227 0.0
H523 H 0.26938 0.28661 0.77477 0.0
H524 H 0.2181 0.25288 0.76112 0.0
H525 H 0.16188 0.27795 0.77598 0.0
H526 H 0.21324 0.31217 0.78964 0.0
H527 H 0.15315 0.2687 0.79732 0.0
H528 H 0.18193 0.14501 0.82789 0.0
H529 H 0.26164 0.20144 0.84139 0.0
H530 H 0.28687 0.30264 0.80443 0.0
C531 C 0.12098 0.17354 0.77149 0.0
C532 C 0.08464 0.12587 0.77145 0.0
C533 C 0.07971 0.09882 0.78521 0.0
C534 C 0.11194 0.11856 0.79855 0.0
C535 C 0.14849 0.16542 0.79797 0.0
C536 C 0.15274 0.19263 0.78484 0.0
C537 C 0.19753 0.24102 0.78654 0.0
C538 C 0.23524 0.25217 0.77287 0.0
C539 C 0.18041 0.27709 0.78743 0.0
C540 C 0.21887 0.23648 0.80246 0.0
C541 C 0.18987 0.19281 0.80897 0.0
C542 C 0.20428 0.17961 0.82307 0.0
C543 C 0.24956 0.21181 0.83065 0.0
C544 C 0.2798 0.25667 0.82413 0.0
C545 C 0.26386 0.269 0.80989 0.0
H546 H 0.88601 0.0144 0.68251 0.0
H547 H 0.92426 0.12832 0.71517 0.0
H548 H 0.89316 0.16351 0.69526 0.0
H549 H 0.93071 0.08075 0.64891 0.0
H550 H 0.88307 0.04068 0.63519 0.0
H551 H 0.89823 0.01944 0.65304 0.0
H552 H 0.8047 0.97845 0.66161 0.0
H553 H 0.78908 0.99929 0.64365 0.0
H554 H 0.77292 0.01141 0.66304 0.0
H555 H 0.87036 0.19207 0.67053 0.0
H556 H 0.85731 0.2116 0.64288 0.0
H557 H 0.83556 0.08007 0.6261 0.0
C558 C 0.88609 0.04585 0.68571 0.0
C559 C 0.90703 0.06838 0.70046 0.0
C560 C 0.90805 0.11031 0.70399 0.0
C561 C 0.89033 0.13048 0.69277 0.0
C562 C 0.87165 0.10827 0.67809 0.0
C563 C 0.86911 0.06669 0.67457 0.0
C564 C 0.85318 0.05273 0.65728 0.0
C565 C 0.89372 0.04817 0.64807 0.0
C566 C 0.80191 0.0078 0.65634 0.0
C567 C 0.84911 0.09381 0.65145 0.0
C568 C 0.85899 0.12506 0.6637 0.0
C569 C 0.86136 0.16737 0.66093 0.0
C570 C 0.85392 0.17818 0.64521 0.0
C571 C 0.84431 0.14684 0.63246 0.0
C572 C 0.84151 0.10404 0.63571 0.0
H573 H 0.88555 0.90631 0.03328 0.0
H574 H 0.79935 0.94776 0.06286 0.0
H575 H 0.72333 0.89875 0.04652 0.0
H576 H 0.83208 0.91113 0.99683 0.0
H577 H 0.83175 0.86181 0.98799 0.0
H578 H 0.87778 0.89518 0.0032 0.0
H579 H 0.84886 0.82115 0.02034 0.0
H580 H 0.80287 0.78741 0.00511 0.0
H581 H 0.78336 0.78614 0.02551 0.0
H582 H 0.65919 0.85194 0.02536 0.0
H583 H 0.61109 0.80926 0.0012 0.0
H584 H 0.73918 0.79878 0.98537 0.0
C585 C 0.85044 0.90424 0.03658 0.0
C586 C 0.84837 0.9307 0.04942 0.0
C587 C 0.80185 0.9277 0.05312 0.0
C588 C 0.75843 0.89989 0.04392 0.0
C589 C 0.76211 0.87521 0.0311 0.0
C590 C 0.80685 0.87689 0.02748 0.0
C591 C 0.80169 0.84979 0.01237 0.0
C592 C 0.83797 0.88138 0.99933 0.0
C593 C 0.80966 0.80868 0.01606 0.0
C594 C 0.74739 0.83351 0.00786 0.0
C595 C 0.72507 0.84817 0.01889 0.0
C596 C 0.67595 0.83954 0.0168 0.0
C597 C 0.64895 0.81533 0.00306 0.0
C598 C 0.67108 0.79995 0.99161 0.0
C599 C 0.72097 0.80923 0.99412 0.0
H600 H 0.00385 0.9227 0.34557 0.0
H601 H 0.88909 0.83615 0.3798 0.0
H602 H 0.86156 0.76859 0.36208 0.0
H603 H 0.93216 0.86593 0.30906 0.0
H604 H 0.9861 0.87067 0.2989 0.0
H605 H 0.99438 0.91325 0.31365 0.0
H606 H 0.05748 0.89709 0.32935 0.0
H607 H 0.04919 0.85432 0.31471 0.0
H608 H 0.03822 0.83876 0.33562 0.0
H609 H 0.84771 0.71016 0.34123 0.0
H610 H 0.84959 0.66367 0.31862 0.0
H611 H 0.97622 0.78653 0.29844 0.0
C612 C 0.9724 0.88967 0.34917 0.0
C613 C 0.94827 0.88463 0.36398 0.0
C614 C 0.90799 0.8407 0.36848 0.0
C615 C 0.89202 0.80216 0.35849 0.0
C616 C 0.91704 0.808 0.3441 0.0
C617 C 0.95646 0.85053 0.33943 0.0
C618 C 0.97861 0.84656 0.32375 0.0
C619 C 0.97242 0.87584 0.31056 0.0
C620 C 0.03417 0.85997 0.326 0.0
C621 C 0.94559 0.79521 0.32042 0.0
C622 C 0.91006 0.77377 0.33225 0.0
C623 C 0.8753 0.72651 0.33187 0.0
C624 C 0.87673 0.70039 0.319 0.0
C625 C 0.91295 0.72147 0.30676 0.0
C626 C 0.94794 0.76954 0.30758 0.0
H627 H 0.15171 0.10062 0.70081 0.0
H628 H 0.0781 0.95076 0.70398 0.0
H629 H 0.15086 0.95293 0.69067 0.0
H630 H 0.20499 0.11047 0.66171 0.0
H631 H 0.2623 0.16342 0.66649 0.0
H632 H 0.20453 0.14987 0.67632 0.0
H633 H 0.24756 0.15821 0.70405 0.0
H634 H 0.30544 0.17173 0.69432 0.0
H635 H 0.27734 0.12444 0.7084 0.0
H636 H 0.23368 0.97214 0.67814 0.0
H637 H 0.31756 0.00632 0.66573 0.0
H638 H 0.33462 0.1431 0.66969 0.0
C639 C 0.15081 0.06821 0.69872 0.0
C640 C 0.10931 0.02551 0.70349 0.0
C641 C 0.10947 0.98387 0.7004 0.0
C642 C 0.15065 0.98476 0.69289 0.0
C643 C 0.19106 0.02751 0.68842 0.0
C644 C 0.19123 0.06842 0.6911 0.0
C645 C 0.2389 0.10974 0.68498 0.0
C646 C 0.22694 0.13484 0.67158 0.0
C647 C 0.26909 0.14297 0.69876 0.0
C648 C 0.26572 0.08574 0.67849 0.0
C649 C 0.23771 0.03835 0.68067 0.0
C650 C 0.2556 0.00912 0.67614 0.0
C651 C 0.30321 0.02885 0.66904 0.0
C652 C 0.33193 0.07728 0.66629 0.0
C653 C 0.31293 0.1059 0.67128 0.0
H654 H 0.1334 0.11662 0.03853 0.0
H655 H 0.02935 0.16908 0.04037 0.0
H656 H 0.08119 0.22991 0.02088 0.0
H657 H 0.24772 0.2291 0.0351 0.0
H658 H 0.2771 0.20808 0.02155 0.0
H659 H 0.23274 0.16953 0.03611 0.0
H660 H 0.17938 0.11289 0.01334 0.0
H661 H 0.22346 0.15129 0.99871 0.0
H662 H 0.15766 0.13371 0.9968 0.0
H663 H 0.14064 0.28138 -0.00024 0.0
H664 H 0.20676 0.32307 0.97965 0.0
H665 H 0.27421 0.23953 0.99231 0.0
C666 C 0.12168 0.1411 0.03494 0.0
C667 C 0.07721 0.13798 0.04098 0.0
C668 C 0.06327 0.17074 0.03595 0.0
C669 C 0.09244 0.20544 0.02486 0.0
C670 C 0.13568 0.20719 0.01901 0.0
C671 C 0.15054 0.17618 0.02396 0.0
C672 C 0.19828 0.18529 0.01564 0.0
C673 C 0.24152 0.19881 0.02783 0.0
C674 C 0.18912 0.1433 0.00552 0.0
C675 C 0.20758 0.22595 0.00512 0.0
C676 C 0.17096 0.23795 0.00721 0.0
C677 C 0.17012 0.27294 0.99824 0.0
C678 C 0.20794 0.29653 0.98687 0.0
C679 C 0.24661 0.28553 0.98479 0.0
C680 C 0.24593 0.24948 0.99398 0.0
H681 H 0.11223 0.22001 0.37358 0.0
H682 H 0.01838 0.09806 0.34471 0.0
H683 H 0.01905 0.14821 0.32261 0.0
H684 H 0.05501 0.2846 0.36184 0.0
H685 H 0.11273 0.33962 0.36143 0.0
H686 H 0.10739 0.29444 0.37461 0.0
H687 H 0.18658 0.29906 0.36198 0.0
H688 H 0.19255 0.34469 0.34889 0.0
H689 H 0.18876 0.29329 0.34056 0.0
H690 H 0.02506 0.21173 0.30444 0.0
H691 H 0.04171 0.28407 0.29075 0.0
H692 H 0.13355 0.3641 0.33129 0.0
C693 C 0.09233 0.2038 0.36254 0.0
C694 C 0.06523 0.15509 0.36087 0.0
C695 C 0.03962 0.1353 0.34623 0.0
C696 C 0.03962 0.16349 0.33364 0.0
C697 C 0.06581 0.21137 0.33583 0.0
C698 C 0.09226 0.23138 0.34984 0.0
C699 C 0.1169 0.28365 0.34927 0.0
C700 C 0.09679 0.30161 0.36258 0.0
C701 C 0.17462 0.30651 0.35023 0.0
C702 C 0.09956 0.28995 0.33284 0.0
C703 C 0.07001 0.24786 0.32529 0.0
C704 C 0.04852 0.24489 0.31018 0.0
C705 C 0.058 0.28605 0.30253 0.0
C706 C 0.08885 0.32963 0.30996 0.0
C707 C 0.10976 0.33134 0.32532 0.0
loop_
_geom_bond_atom_site_label_1
_geom_bond_atom_site_label_2
_geom_bond_distance
_geom_bond_site_symmetry_2
_ccdc_geom_bond_type
O0 Cd1 2.223 1_455 S
O0 C8 1.315 . S
Cd1 O0 2.223 1_655 S
Cd1 O4 2.297 . S
Cd1 O5 2.439 1_655 S
Cd1 O11 2.240 1_545 S
Cd2 O3 2.240 . S
Cd2 O10 2.223 1_545 S
Cd2 O12 2.297 1_545 S
Cd2 O13 2.439 1_545 S
O3 Cd2 2.240 . S
O3 C8 1.279 . S
O4 Cd1 2.297 . S
O4 C6 1.247 1_655 S
O5 Cd1 2.439 1_455 S
O5 C6 1.208 . S
C6 O4 1.247 1_455 S
C6 O5 1.208 . S
C7 O12 1.247 . S
C7 O13 1.208 . S
C8 O0 1.315 . S
C8 O3 1.279 . S
C9 O10 1.315 1_655 S
C9 O11 1.279 . S
O10 Cd2 2.223 1_565 S
O10 C9 1.315 1_455 S
O11 Cd1 2.240 1_565 S
O11 C9 1.279 . S
O12 Cd2 2.297 1_565 S
O12 C7 1.247 . S
O13 Cd2 2.439 1_565 S
O13 C7 1.208 . S
O14 Cd15 2.223 . S
O14 C22 1.315 1_455 S
Cd15 O14 2.223 . S
Cd15 O18 2.297 . S
Cd15 O19 2.439 . S
Cd15 O25 2.240 . S
Cd16 O17 2.240 1_565 S
Cd16 O24 2.223 1_655 S
Cd16 O26 2.297 1_655 S
Cd16 O27 2.439 1_655 S
O17 Cd16 2.240 1_545 S
O17 C22 1.279 . S
O18 Cd15 2.297 . S
O18 C20 1.247 . S
O19 Cd15 2.439 . S
O19 C20 1.208 . S
C20 O18 1.247 . S
C20 O19 1.208 . S
C21 O26 1.247 . S
C21 O27 1.208 . S
C22 O14 1.315 1_655 S
C22 O17 1.279 . S
C23 O24 1.315 1_545 S
C23 O25 1.279 . S
O24 Cd16 2.223 1_455 S
O24 C23 1.315 1_565 S
O25 Cd15 2.240 . S
O25 C23 1.279 . S
O26 Cd16 2.297 1_455 S
O26 C21 1.247 . S
O27 Cd16 2.439 1_455 S
O27 C21 1.208 . S
O28 Cd29 2.223 . S
O28 C36 1.315 1_565 S
Cd29 O28 2.223 . S
Cd29 O32 2.297 . S
Cd29 O33 2.439 . S
Cd29 O39 2.240 1_665 S
Cd30 O31 2.240 1_455 S
Cd30 O38 2.223 . S
Cd30 O40 2.297 . S
Cd30 O41 2.439 . S
O31 Cd30 2.240 1_655 S
O31 C36 1.279 . S
O32 Cd29 2.297 . S
O32 C34 1.247 . S
O33 Cd29 2.439 . S
O33 C34 1.208 . S
C34 O32 1.247 . S
C34 O33 1.208 . S
C35 O40 1.247 . S
C35 O41 1.208 . S
C36 O28 1.315 1_545 S
C36 O31 1.279 . S
C37 O38 1.315 . S
C37 O39 1.279 . S
O38 Cd30 2.223 . S
O38 C37 1.315 . S
O39 Cd29 2.240 1_445 S
O39 C37 1.279 . S
O40 Cd30 2.297 . S
O40 C35 1.247 . S
O41 Cd30 2.439 . S
O41 C35 1.208 . S
C42 C43 1.560 . S
C42 H103 0.959 . S
C42 H104 0.959 . S
C42 H105 0.960 . S
C43 C42 1.560 . S
C43 O98 1.426 . S
C43 H102 0.980 1_655 S
C44 C45 1.407 1_655 S
C44 C49 1.418 . S
C44 O98 1.334 . S
C45 C44 1.407 1_455 S
C45 C46 1.360 . S
C45 H106 0.929 . S
C46 C45 1.360 . S
C46 C47 1.401 . S
C46 C50 1.527 . S
C47 C46 1.401 . S
C47 C48 1.405 1_455 S
C47 C80 1.587 . S
C48 C47 1.405 1_655 S
C48 C49 1.332 . S
C48 C51 1.496 . S
C49 C44 1.418 . S
C49 C48 1.332 . S
C49 H107 0.929 . S
C50 C46 1.527 . S
C50 H108 0.959 . S
C50 H109 0.961 . S
C50 H110 0.961 . S
C51 C48 1.496 . S
C51 H111 0.960 . S
C51 H112 0.960 . S
C51 H113 0.961 . S
C52 C53 1.517 . S
C52 H115 0.961 . S
C52 H116 0.960 . S
C52 H117 0.959 . S
C53 C52 1.517 . S
C53 O101 1.468 . S
C53 H114 0.980 . S
C54 C55 1.349 . S
C54 C59 1.367 . S
C54 O101 1.408 . S
C55 C54 1.349 . S
C55 C56 1.407 . S
C55 H118 0.930 . S
C56 C55 1.407 . S
C56 C57 1.449 . S
C56 C60 1.535 1_455 S
C57 C56 1.449 . S
C57 C58 1.384 . S
C57 C82 1.553 . S
C58 C57 1.384 . S
C58 C59 1.364 . S
C58 C61 1.450 . S
C59 C54 1.367 . S
C59 C58 1.364 . S
C59 H119 0.931 . S
C60 C56 1.535 1_655 S
C60 H120 0.959 . S
C60 H121 0.961 . S
C60 H122 0.959 . S
C61 C58 1.450 . S
C61 H123 0.960 . S
C61 H124 0.960 . S
C61 H125 0.960 . S
C62 C63 1.309 . S
C62 C67 1.304 . S
C62 O100 1.435 . S
C63 C62 1.309 . S
C63 C64 1.476 . S
C63 H127 0.930 1_455 S
C64 C63 1.476 . S
C64 C65 1.400 . S
C64 C68 1.567 1_455 S
C65 C64 1.400 . S
C65 C66 1.373 . S
C65 C87 1.432 . S
C66 C65 1.373 . S
C66 C67 1.339 . S
C66 C69 1.530 . S
C67 C62 1.304 . S
C67 C66 1.339 . S
C67 H128 0.930 . S
C68 C64 1.567 1_655 S
C68 H129 0.961 . S
C68 H130 0.960 . S
C68 H131 0.958 . S
C69 C66 1.530 . S
C69 H132 0.961 . S
C69 H133 0.960 . S
C69 H134 0.960 . S
C70 C71 1.530 1_655 S
C70 H136 0.961 . S
C70 H137 0.961 . S
C70 H138 0.959 . S
C71 C70 1.530 1_455 S
C71 O99 1.412 1_455 S
C71 H135 0.980 . S
C72 C73 1.288 . S
C72 C77 1.377 1_655 S
C72 O99 1.393 . S
C73 C72 1.288 . S
C73 C74 1.369 . S
C73 H139 0.932 . S
C74 C73 1.369 . S
C74 C75 1.398 1_655 S
C74 C78 1.527 . S
C75 C74 1.398 1_455 S
C75 C76 1.380 . S
C75 C89 1.497 . S
C76 C75 1.380 . S
C76 C77 1.383 . S
C76 C79 1.603 . S
C77 C72 1.377 1_455 S
C77 C76 1.383 . S
C77 H140 0.929 . S
C78 C74 1.527 . S
C78 H141 0.961 . S
C78 H142 0.959 . S
C78 H143 0.959 . S
C79 C76 1.603 . S
C79 H144 0.960 . S
C79 H145 0.962 . S
C79 H146 0.961 . S
C80 C47 1.587 . S
C80 C81 1.360 . S
C80 C93 1.412 . S
C81 C80 1.360 . S
C81 C82 1.365 . S
C81 H147 0.929 . S
C82 C57 1.553 . S
C82 C81 1.365 . S
C82 C83 1.404 . S
C83 C82 1.404 . S
C83 C84 1.395 . S
C83 C94 1.451 . S
C84 C83 1.395 . S
C84 C85 1.322 . S
C84 H148 0.930 . S
C85 C84 1.322 . S
C85 C86 1.459 . S
C85 H149 0.929 . S
C86 C85 1.459 . S
C86 C87 1.445 . S
C86 C95 1.395 . S
C87 C65 1.432 . S
C87 C86 1.445 . S
C87 C88 1.370 . S
C88 C87 1.370 . S
C88 C89 1.438 . S
C88 H150 0.930 . S
C89 C75 1.497 . S
C89 C88 1.438 . S
C89 C90 1.360 . S
C90 C89 1.360 . S
C90 C91 1.401 . S
C90 C95 1.446 . S
C91 C90 1.401 . S
C91 C92 1.347 . S
C91 H151 0.929 . S
C92 C91 1.347 . S
C92 C93 1.455 . S
C92 H152 0.930 . S
C93 C80 1.412 . S
C93 C92 1.455 . S
C93 C94 1.331 . S
C94 C83 1.451 . S
C94 C93 1.331 . S
C94 C95 1.497 . S
C95 C86 1.395 . S
C95 C90 1.446 . S
C95 C94 1.497 . S
C96 C97 1.582 . S
C96 H153 0.962 . S
C96 H154 0.959 . S
C96 H155 0.958 . S
C97 C96 1.582 . S
C97 O100 1.458 . S
C97 H126 0.980 . S
O98 C43 1.426 . S
O98 C44 1.334 . S
O99 C71 1.412 1_655 S
O99 C72 1.393 . S
O100 C62 1.435 . S
O100 C97 1.458 . S
O101 C53 1.468 . S
O101 C54 1.408 . S
H102 C43 0.980 1_455 S
H103 C42 0.959 . S
H104 C42 0.959 . S
H105 C42 0.960 . S
H106 C45 0.929 . S
H107 C49 0.929 . S
H108 C50 0.959 . S
H109 C50 0.961 . S
H110 C50 0.961 . S
H111 C51 0.960 . S
H112 C51 0.960 . S
H113 C51 0.961 . S
H114 C53 0.980 . S
H115 C52 0.961 . S
H116 C52 0.960 . S
H117 C52 0.959 . S
H118 C55 0.930 . S
H119 C59 0.931 . S
H120 C60 0.959 . S
H121 C60 0.961 . S
H122 C60 0.959 . S
H123 C61 0.960 . S
H124 C61 0.960 . S
H125 C61 0.960 . S
H126 C97 0.980 . S
H127 C63 0.930 1_655 S
H128 C67 0.930 . S
H129 C68 0.961 . S
H130 C68 0.960 . S
H131 C68 0.958 . S
H132 C69 0.961 . S
H133 C69 0.960 . S
H134 C69 0.960 . S
H135 C71 0.980 . S
H136 C70 0.961 . S
H137 C70 0.961 . S
H138 C70 0.959 . S
H139 C73 0.932 . S
H140 C77 0.929 . S
H141 C78 0.961 . S
H142 C78 0.959 . S
H143 C78 0.959 . S
H144 C79 0.960 . S
H145 C79 0.962 . S
H146 C79 0.961 . S
H147 C81 0.929 . S
H148 C84 0.930 . S
H149 C85 0.929 . S
H150 C88 0.930 . S
H151 C91 0.929 . S
H152 C92 0.930 . S
H153 C96 0.962 . S
H154 C96 0.959 . S
H155 C96 0.958 . S
C156 C157 1.560 1_565 S
C156 H217 0.959 . S
C156 H218 0.959 . S
C156 H219 0.960 1_565 S
C157 C156 1.560 1_545 S
C157 O212 1.440 . S
C157 H216 0.980 . S
C158 C159 1.407 . S
C158 C163 1.418 1_545 S
C158 O212 1.334 . S
C159 C158 1.407 . S
C159 C160 1.360 . S
C159 H220 0.929 . S
C160 C159 1.360 . S
C160 C161 1.401 . S
C160 C164 1.527 . S
C161 C160 1.401 . S
C161 C162 1.405 . S
C161 C194 1.587 . S
C162 C161 1.405 . S
C162 C163 1.332 1_545 S
C162 C165 1.496 1_545 S
C163 C158 1.418 1_565 S
C163 C162 1.332 1_565 S
C163 H221 0.929 . S
C164 C160 1.527 . S
C164 H222 0.959 . S
C164 H223 0.961 . S
C164 H224 0.961 . S
C165 C162 1.496 1_565 S
C165 H225 0.960 . S
C165 H226 0.960 . S
C165 H227 0.961 . S
C166 C167 1.517 . S
C166 H229 0.961 . S
C166 H230 0.960 . S
C166 H231 0.959 . S
C167 C166 1.517 . S
C167 O215 1.468 . S
C167 H228 0.980 . S
C168 C169 1.349 . S
C168 C173 1.367 . S
C168 O215 1.408 . S
C169 C168 1.349 . S
C169 C170 1.407 . S
C169 H232 0.930 . S
C170 C169 1.407 . S
C170 C171 1.449 . S
C170 C174 1.535 . S
C171 C170 1.449 . S
C171 C172 1.384 . S
C171 C196 1.553 . S
C172 C171 1.384 . S
C172 C173 1.364 . S
C172 C175 1.450 . S
C173 C168 1.367 . S
C173 C172 1.364 . S
C173 H233 0.931 . S
C174 C170 1.535 . S
C174 H234 0.959 . S
C174 H235 0.961 1_545 S
C174 H236 0.959 1_545 S
C175 C172 1.450 . S
C175 H237 0.960 . S
C175 H238 0.960 . S
C175 H239 0.960 . S
C176 C177 1.309 . S
C176 C181 1.304 . S
C176 O214 1.435 . S
C177 C176 1.309 . S
C177 C178 1.476 . S
C177 H241 0.930 . S
C178 C177 1.476 . S
C178 C179 1.400 . S
C178 C182 1.567 1_545 S
C179 C178 1.400 . S
C179 C180 1.373 . S
C179 C201 1.432 . S
C180 C179 1.373 . S
C180 C181 1.339 . S
C180 C183 1.530 . S
C181 C176 1.304 . S
C181 C180 1.339 . S
C181 H242 0.930 . S
C182 C178 1.567 1_565 S
C182 H243 0.961 . S
C182 H244 0.960 . S
C182 H245 0.958 . S
C183 C180 1.530 . S
C183 H246 0.961 . S
C183 H247 0.960 . S
C183 H248 0.960 . S
C184 C185 1.530 . S
C184 H250 0.961 . S
C184 H251 0.961 1_545 S
C184 H252 0.959 1_545 S
C185 C184 1.530 . S
C185 O213 1.412 . S
C185 H249 0.980 . S
C186 C187 1.288 1_545 S
C186 C191 1.377 . S
C186 O213 1.393 . S
C187 C186 1.288 1_565 S
C187 C188 1.369 1_565 S
C187 H253 0.932 . S
C188 C187 1.369 1_545 S
C188 C189 1.398 . S
C188 C192 1.527 1_545 S
C189 C188 1.398 . S
C189 C190 1.380 . S
C189 C203 1.497 . S
C190 C189 1.380 . S
C190 C191 1.383 . S
C190 C193 1.603 . S
C191 C186 1.377 . S
C191 C190 1.383 . S
C191 H254 0.929 . S
C192 C188 1.527 1_565 S
C192 H255 0.961 . S
C192 H256 0.959 . S
C192 H257 0.959 . S
C193 C190 1.603 . S
C193 H258 0.960 . S
C193 H259 0.962 . S
C193 H260 0.961 . S
C194 C161 1.587 . S
C194 C195 1.360 . S
C194 C207 1.412 . S
C195 C194 1.360 . S
C195 C196 1.365 . S
C195 H261 0.929 . S
C196 C171 1.553 . S
C196 C195 1.365 . S
C196 C197 1.404 . S
C197 C196 1.404 . S
C197 C198 1.395 . S
C197 C208 1.451 . S
C198 C197 1.395 . S
C198 C199 1.322 . S
C198 H262 0.930 . S
C199 C198 1.322 . S
C199 C200 1.459 . S
C199 H263 0.929 . S
C200 C199 1.459 . S
C200 C201 1.445 . S
C200 C209 1.395 . S
C201 C179 1.432 . S
C201 C200 1.445 . S
C201 C202 1.370 . S
C202 C201 1.370 . S
C202 C203 1.438 . S
C202 H264 0.930 . S
C203 C189 1.497 . S
C203 C202 1.438 . S
C203 C204 1.360 . S
C204 C203 1.360 . S
C204 C205 1.401 . S
C204 C209 1.446 . S
C205 C204 1.401 . S
C205 C206 1.347 . S
C205 H265 0.929 . S
C206 C205 1.347 . S
C206 C207 1.455 . S
C206 H266 0.930 . S
C207 C194 1.412 . S
C207 C206 1.455 . S
C207 C208 1.331 . S
C208 C197 1.451 . S
C208 C207 1.331 . S
C208 C209 1.497 . S
C209 C200 1.395 . S
C209 C204 1.446 . S
C209 C208 1.497 . S
C210 C211 1.582 . S
C210 H267 0.962 . S
C210 H268 0.959 . S
C210 H269 0.958 . S
C211 C210 1.582 . S
C211 O214 1.458 . S
C211 H240 0.980 . S
O212 C157 1.440 . S
O212 C158 1.334 . S
O213 C185 1.412 . S
O213 C186 1.393 . S
O214 C176 1.435 . S
O214 C211 1.458 . S
O215 C167 1.468 . S
O215 C168 1.408 . S
H216 C157 0.980 . S
H217 C156 0.959 . S
H218 C156 0.959 . S
H219 C156 0.960 1_545 S
H220 C159 0.929 . S
H221 C163 0.929 . S
H222 C164 0.959 . S
H223 C164 0.961 . S
H224 C164 0.961 . S
H225 C165 0.960 . S
H226 C165 0.960 . S
H227 C165 0.961 . S
H228 C167 0.980 . S
H229 C166 0.961 . S
H230 C166 0.960 . S
H231 C166 0.959 . S
H232 C169 0.930 . S
H233 C173 0.931 . S
H234 C174 0.959 . S
H235 C174 0.961 1_565 S
H236 C174 0.959 1_565 S
H237 C175 0.960 . S
H238 C175 0.960 . S
H239 C175 0.960 . S
H240 C211 0.980 . S
H241 C177 0.930 . S
H242 C181 0.930 . S
H243 C182 0.961 . S
H244 C182 0.960 . S
H245 C182 0.958 . S
H246 C183 0.961 . S
H247 C183 0.960 . S
H248 C183 0.960 . S
H249 C185 0.980 . S
H250 C184 0.961 . S
H251 C184 0.961 1_565 S
H252 C184 0.959 1_565 S
H253 C187 0.932 . S
H254 C191 0.929 . S
H255 C192 0.961 . S
H256 C192 0.959 . S
H257 C192 0.959 . S
H258 C193 0.960 . S
H259 C193 0.962 . S
H260 C193 0.961 . S
H261 C195 0.929 . S
H262 C198 0.930 . S
H263 C199 0.929 . S
H264 C202 0.930 . S
H265 C205 0.929 . S
H266 C206 0.930 . S
H267 C210 0.962 . S
H268 C210 0.959 . S
H269 C210 0.958 . S
C270 C271 1.560 . S
C270 H331 0.959 . S
C270 H332 0.959 . S
C270 H333 0.960 . S
C271 C270 1.560 . S
C271 O326 1.426 . S
C271 H330 0.980 . S
C272 C273 1.407 . S
C272 C277 1.418 . S
C272 O326 1.334 . S
C273 C272 1.407 . S
C273 C274 1.360 . S
C273 H334 0.929 . S
C274 C273 1.360 . S
C274 C275 1.401 . S
C274 C278 1.527 . S
C275 C274 1.401 . S
C275 C276 1.405 . S
C275 C308 1.587 . S
C276 C275 1.405 . S
C276 C277 1.332 . S
C276 C279 1.496 . S
C277 C272 1.418 . S
C277 C276 1.332 . S
C277 H335 0.929 . S
C278 C274 1.527 . S
C278 H336 0.959 . S
C278 H337 0.961 . S
C278 H338 0.961 . S
C279 C276 1.496 . S
C279 H339 0.960 . S
C279 H340 0.960 . S
C279 H341 0.961 . S
C280 C281 1.517 . S
C280 H343 0.961 . S
C280 H344 0.960 . S
C280 H345 0.959 . S
C281 C280 1.517 . S
C281 O329 1.468 . S
C281 H342 0.980 . S
C282 C283 1.349 . S
C282 C287 1.367 . S
C282 O329 1.408 . S
C283 C282 1.349 . S
C283 C284 1.407 . S
C283 H346 0.930 . S
C284 C283 1.407 . S
C284 C285 1.449 . S
C284 C288 1.535 . S
C285 C284 1.449 . S
C285 C286 1.384 . S
C285 C310 1.553 . S
C286 C285 1.384 . S
C286 C287 1.364 . S
C286 C289 1.450 . S
C287 C282 1.367 . S
C287 C286 1.364 . S
C287 H347 0.931 . S
C288 C284 1.535 . S
C288 H348 0.959 . S
C288 H349 0.961 . S
C288 H350 0.959 . S
C289 C286 1.450 . S
C289 H351 0.960 . S
C289 H352 0.960 . S
C289 H353 0.960 . S
C290 C291 1.309 . S
C290 C295 1.304 . S
C290 O328 1.435 . S
C291 C290 1.309 . S
C291 C292 1.476 . S
C291 H355 0.930 . S
C292 C291 1.476 . S
C292 C293 1.400 . S
C292 C296 1.567 . S
C293 C292 1.400 . S
C293 C294 1.373 . S
C293 C315 1.432 . S
C294 C293 1.373 . S
C294 C295 1.339 . S
C294 C297 1.530 . S
C295 C290 1.304 . S
C295 C294 1.339 . S
C295 H356 0.930 . S
C296 C292 1.567 . S
C296 H357 0.961 . S
C296 H358 0.960 . S
C296 H359 0.958 . S
C297 C294 1.530 . S
C297 H360 0.961 . S
C297 H361 0.960 . S
C297 H362 0.960 . S
C298 C299 1.530 . S
C298 H364 0.961 . S
C298 H365 0.961 . S
C298 H366 0.959 . S
C299 C298 1.530 . S
C299 O327 1.412 . S
C299 H363 0.980 . S
C300 C301 1.288 . S
C300 C305 1.377 . S
C300 O327 1.393 . S
C301 C300 1.288 . S
C301 C302 1.369 . S
C301 H367 0.932 . S
C302 C301 1.369 . S
C302 C303 1.398 . S
C302 C306 1.527 . S
C303 C302 1.398 . S
C303 C304 1.380 . S
C303 C317 1.497 . S
C304 C303 1.380 . S
C304 C305 1.383 . S
C304 C307 1.603 . S
C305 C300 1.377 . S
C305 C304 1.383 . S
C305 H368 0.929 . S
C306 C302 1.527 . S
C306 H369 0.961 . S
C306 H370 0.959 . S
C306 H371 0.959 . S
C307 C304 1.603 . S
C307 H372 0.960 . S
C307 H373 0.962 . S
C307 H374 0.961 . S
C308 C275 1.587 . S
C308 C309 1.360 . S
C308 C321 1.412 . S
C309 C308 1.360 . S
C309 C310 1.365 . S
C309 H375 0.929 . S
C310 C285 1.553 . S
C310 C309 1.365 . S
C310 C311 1.404 . S
C311 C310 1.404 . S
C311 C312 1.395 . S
C311 C322 1.451 . S
C312 C311 1.395 . S
C312 C313 1.322 . S
C312 H376 0.930 . S
C313 C312 1.322 . S
C313 C314 1.459 . S
C313 H377 0.929 . S
C314 C313 1.459 . S
C314 C315 1.445 . S
C314 C323 1.395 . S
C315 C293 1.432 . S
C315 C314 1.445 . S
C315 C316 1.370 . S
C316 C315 1.370 . S
C316 C317 1.438 . S
C316 H378 0.930 . S
C317 C303 1.497 . S
C317 C316 1.438 . S
C317 C318 1.360 . S
C318 C317 1.360 . S
C318 C319 1.401 . S
C318 C323 1.446 . S
C319 C318 1.401 . S
C319 C320 1.347 . S
C319 H379 0.929 . S
C320 C319 1.347 . S
C320 C321 1.455 . S
C320 H380 0.930 . S
C321 C308 1.412 . S
C321 C320 1.455 . S
C321 C322 1.331 . S
C322 C311 1.451 . S
C322 C321 1.331 . S
C322 C323 1.497 . S
C323 C314 1.395 . S
C323 C318 1.446 . S
C323 C322 1.497 . S
C324 C325 1.582 . S
C324 H381 0.962 . S
C324 H382 0.959 . S
C324 H383 0.958 . S
C325 C324 1.582 . S
C325 O328 1.458 . S
C325 H354 0.980 . S
O326 C271 1.426 . S
O326 C272 1.334 . S
O327 C299 1.412 . S
O327 C300 1.393 . S
O328 C290 1.435 . S
O328 C325 1.458 . S
O329 C281 1.468 . S
O329 C282 1.408 . S
H330 C271 0.980 . S
H331 C270 0.959 . S
H332 C270 0.959 . S
H333 C270 0.960 . S
H334 C273 0.929 . S
H335 C277 0.929 . S
H336 C278 0.959 . S
H337 C278 0.961 . S
H338 C278 0.961 . S
H339 C279 0.960 . S
H340 C279 0.960 . S
H341 C279 0.961 . S
H342 C281 0.980 . S
H343 C280 0.961 . S
H344 C280 0.960 . S
H345 C280 0.959 . S
H346 C283 0.930 . S
H347 C287 0.931 . S
H348 C288 0.959 . S
H349 C288 0.961 . S
H350 C288 0.959 . S
H351 C289 0.960 . S
H352 C289 0.960 . S
H353 C289 0.960 . S
H354 C325 0.980 . S
H355 C291 0.930 . S
H356 C295 0.930 . S
H357 C296 0.961 . S
H358 C296 0.960 . S
H359 C296 0.958 . S
H360 C297 0.961 . S
H361 C297 0.960 . S
H362 C297 0.960 . S
H363 C299 0.980 . S
H364 C298 0.961 . S
H365 C298 0.961 . S
H366 C298 0.959 . S
H367 C301 0.932 . S
H368 C305 0.929 . S
H369 C306 0.961 . S
H370 C306 0.959 . S
H371 C306 0.959 . S
H372 C307 0.960 . S
H373 C307 0.962 . S
H374 C307 0.961 . S
H375 C309 0.929 . S
H376 C312 0.930 . S
H377 C313 0.929 . S
H378 C316 0.930 . S
H379 C319 0.929 . S
H380 C320 0.930 . S
H381 C324 0.962 . S
H382 C324 0.959 . S
H383 C324 0.958 . S
H384 C396 0.930 . S
H385 C398 0.930 . S
H386 C399 0.930 . S
H387 C403 0.959 . S
H388 C403 0.959 . S
H389 C403 0.961 . S
H390 C404 0.960 . S
H391 C404 0.961 . S
H392 C404 0.959 . S
H393 C407 0.929 . S
H394 C408 0.931 . S
H395 C410 0.930 . S
C396 H384 0.930 . S
C396 C397 1.399 . S
C396 C401 1.399 . S
C397 C396 1.399 . S
C397 C398 1.376 1_455 S
C398 H385 0.930 . S
C398 C397 1.376 1_655 S
C398 C399 1.388 . S
C399 H386 0.930 . S
C399 C398 1.388 . S
C399 C400 1.390 . S
C400 C399 1.390 . S
C400 C401 1.394 1_655 S
C400 C406 1.465 . S
C401 C396 1.399 . S
C401 C400 1.394 1_455 S
C401 C402 1.516 . S
C402 C401 1.516 . S
C402 C403 1.502 . S
C402 C404 1.561 . S
C402 C405 1.526 . S
C403 H387 0.959 . S
C403 H388 0.959 . S
C403 H389 0.961 . S
C403 C402 1.502 . S
C404 H390 0.960 . S
C404 H391 0.961 . S
C404 H392 0.959 . S
C404 C402 1.561 . S
C405 C402 1.526 . S
C405 C406 1.396 1_455 S
C405 C410 1.390 . S
C406 C400 1.465 . S
C406 C405 1.396 1_655 S
C406 C407 1.399 . S
C407 H393 0.929 . S
C407 C406 1.399 . S
C407 C408 1.385 . S
C408 H394 0.931 . S
C408 C407 1.385 . S
C408 C409 1.389 1_655 S
C409 C408 1.389 1_455 S
C409 C410 1.387 . S
C410 H395 0.930 . S
C410 C405 1.390 . S
C410 C409 1.387 . S
H411 C423 0.930 . S
H412 C425 0.930 . S
H413 C426 0.930 . S
H414 C430 0.959 . S
H415 C430 0.959 . S
H416 C430 0.961 . S
H417 C431 0.960 . S
H418 C431 0.961 . S
H419 C431 0.959 . S
H420 C434 0.929 . S
H421 C435 0.931 . S
H422 C437 0.930 . S
C423 H411 0.930 . S
C423 C424 1.399 . S
C423 C428 1.399 . S
C424 C423 1.399 . S
C424 C425 1.376 . S
C425 H412 0.930 . S
C425 C424 1.376 . S
C425 C426 1.388 . S
C426 H413 0.930 . S
C426 C425 1.388 . S
C426 C427 1.390 . S
C427 C426 1.390 . S
C427 C428 1.394 . S
C427 C433 1.465 . S
C428 C423 1.399 . S
C428 C427 1.394 . S
C428 C429 1.516 . S
C429 C428 1.516 . S
C429 C430 1.502 . S
C429 C431 1.561 . S
C429 C432 1.526 . S
C430 H414 0.959 . S
C430 H415 0.959 . S
C430 H416 0.961 . S
C430 C429 1.502 . S
C431 H417 0.960 . S
C431 H418 0.961 . S
C431 H419 0.959 . S
C431 C429 1.561 . S
C432 C429 1.526 . S
C432 C433 1.396 . S
C432 C437 1.390 . S
C433 C427 1.465 . S
C433 C432 1.396 . S
C433 C434 1.399 . S
C434 H420 0.929 . S
C434 C433 1.399 . S
C434 C435 1.385 . S
C435 H421 0.931 . S
C435 C434 1.385 . S
C435 C436 1.389 . S
C436 C435 1.389 . S
C436 C437 1.387 . S
C437 H422 0.930 . S
C437 C432 1.390 . S
C437 C436 1.387 . S
H438 C450 0.930 . S
H439 C452 0.930 . S
H440 C453 0.930 . S
H441 C457 0.959 . S
H442 C457 0.959 . S
H443 C457 0.961 . S
H444 C458 0.960 . S
H445 C458 0.961 . S
H446 C458 0.959 . S
H447 C461 0.929 . S
H448 C462 0.931 . S
H449 C464 0.930 . S
C450 H438 0.930 . S
C450 C451 1.399 . S
C450 C455 1.399 . S
C451 C450 1.399 . S
C451 C452 1.376 . S
C452 H439 0.930 . S
C452 C451 1.376 . S
C452 C453 1.388 . S
C453 H440 0.930 . S
C453 C452 1.388 . S
C453 C454 1.390 . S
C454 C453 1.390 . S
C454 C455 1.394 . S
C454 C460 1.465 . S
C455 C450 1.399 . S
C455 C454 1.394 . S
C455 C456 1.516 . S
C456 C455 1.516 . S
C456 C457 1.502 . S
C456 C458 1.561 . S
C456 C459 1.526 . S
C457 H441 0.959 . S
C457 H442 0.959 . S
C457 H443 0.961 . S
C457 C456 1.502 . S
C458 H444 0.960 . S
C458 H445 0.961 . S
C458 H446 0.959 . S
C458 C456 1.561 . S
C459 C456 1.526 . S
C459 C460 1.396 . S
C459 C464 1.390 . S
C460 C454 1.465 . S
C460 C459 1.396 . S
C460 C461 1.399 . S
C461 H447 0.929 . S
C461 C460 1.399 . S
C461 C462 1.385 . S
C462 H448 0.931 . S
C462 C461 1.385 . S
C462 C463 1.389 . S
C463 C462 1.389 . S
C463 C464 1.387 . S
C464 H449 0.930 . S
C464 C459 1.390 . S
C464 C463 1.387 . S
H465 C477 0.930 . S
H466 C479 0.930 . S
H467 C480 0.930 . S
H468 C484 0.959 . S
H469 C484 0.959 . S
H470 C484 0.961 . S
H471 C485 0.960 . S
H472 C485 0.961 . S
H473 C485 0.959 1_655 S
H474 C488 0.929 . S
H475 C489 0.931 . S
H476 C491 0.930 . S
C477 H465 0.930 . S
C477 C478 1.399 . S
C477 C482 1.399 . S
C478 C477 1.399 . S
C478 C479 1.376 1_455 S
C479 H466 0.930 . S
C479 C478 1.376 1_655 S
C479 C480 1.388 . S
C480 H467 0.930 . S
C480 C479 1.388 . S
C480 C481 1.390 . S
C481 C480 1.390 . S
C481 C482 1.394 1_655 S
C481 C487 1.473 . S
C482 C477 1.399 . S
C482 C481 1.394 1_455 S
C482 C483 1.516 . S
C483 C482 1.516 . S
C483 C484 1.502 . S
C483 C485 1.561 . S
C483 C486 1.526 . S
C484 H468 0.959 . S
C484 H469 0.959 . S
C484 H470 0.961 . S
C484 C483 1.502 . S
C485 H471 0.960 . S
C485 H472 0.961 . S
C485 H473 0.959 1_455 S
C485 C483 1.561 . S
C486 C483 1.526 . S
C486 C487 1.388 1_455 S
C486 C491 1.390 . S
C487 C481 1.473 . S
C487 C486 1.388 1_655 S
C487 C488 1.398 . S
C488 H474 0.929 . S
C488 C487 1.398 . S
C488 C489 1.385 . S
C489 H475 0.931 . S
C489 C488 1.385 . S
C489 C490 1.389 1_655 S
C490 C489 1.389 1_455 S
C490 C491 1.387 . S
C491 H476 0.930 . S
C491 C486 1.390 . S
C491 C490 1.387 . S
H492 C504 0.930 . S
H493 C506 0.931 1_565 S
H494 C507 0.930 . S
H495 C511 0.959 . S
H496 C511 0.959 . S
H497 C511 0.961 . S
H498 C512 0.960 . S
H499 C512 0.961 . S
H500 C512 0.959 . S
H501 C515 0.922 1_565 S
H502 C516 0.931 1_565 S
H503 C518 0.930 . S
C504 H492 0.930 . S
C504 C505 1.399 . S
C504 C509 1.399 . S
C505 C504 1.399 . S
C505 C506 1.374 . S
C506 H493 0.931 1_545 S
C506 C505 1.374 . S
C506 C507 1.389 1_545 S
C507 H494 0.930 . S
C507 C506 1.389 1_565 S
C507 C508 1.390 1_565 S
C508 C507 1.390 1_545 S
C508 C509 1.394 . S
C508 C514 1.465 . S
C509 C504 1.399 . S
C509 C508 1.394 . S
C509 C510 1.516 . S
C510 C509 1.516 . S
C510 C511 1.502 . S
C510 C512 1.561 . S
C510 C513 1.526 . S
C511 H495 0.959 . S
C511 H496 0.959 . S
C511 H497 0.961 . S
C511 C510 1.502 . S
C512 H498 0.960 . S
C512 H499 0.961 . S
C512 H500 0.959 . S
C512 C510 1.561 . S
C513 C510 1.526 . S
C513 C514 1.396 . S
C513 C518 1.390 . S
C514 C508 1.465 . S
C514 C513 1.396 . S
C514 C515 1.407 . S
C515 H501 0.922 1_545 S
C515 C514 1.407 . S
C515 C516 1.384 . S
C516 H502 0.931 1_545 S
C516 C515 1.384 . S
C516 C517 1.389 . S
C517 C516 1.389 . S
C517 C518 1.387 . S
C518 H503 0.930 . S
C518 C513 1.390 . S
C518 C517 1.387 . S
H519 C531 0.930 . S
H520 C533 0.930 . S
H521 C534 0.930 . S
H522 C538 0.959 . S
H523 C538 0.959 . S
H524 C538 0.961 . S
H525 C539 0.960 . S
H526 C539 0.961 . S
H527 C539 0.959 . S
H528 C542 0.929 . S
H529 C543 0.931 . S
H530 C545 0.930 . S
C531 H519 0.930 . S
C531 C532 1.399 . S
C531 C536 1.399 . S
C532 C531 1.399 . S
C532 C533 1.376 . S
C533 H520 0.930 . S
C533 C532 1.376 . S
C533 C534 1.388 . S
C534 H521 0.930 . S
C534 C533 1.388 . S
C534 C535 1.390 . S
C535 C534 1.390 . S
C535 C536 1.394 . S
C535 C541 1.465 . S
C536 C531 1.399 . S
C536 C535 1.394 . S
C536 C537 1.516 . S
C537 C536 1.516 . S
C537 C538 1.502 . S
C537 C539 1.561 . S
C537 C540 1.526 . S
C538 H522 0.959 . S
C538 H523 0.959 . S
C538 H524 0.961 . S
C538 C537 1.502 . S
C539 H525 0.960 . S
C539 H526 0.961 . S
C539 H527 0.959 . S
C539 C537 1.561 . S
C540 C537 1.526 . S
C540 C541 1.396 . S
C540 C545 1.390 . S
C541 C535 1.465 . S
C541 C540 1.396 . S
C541 C542 1.399 . S
C542 H528 0.929 . S
C542 C541 1.399 . S
C542 C543 1.385 . S
C543 H529 0.931 . S
C543 C542 1.385 . S
C543 C544 1.389 . S
C544 C543 1.389 . S
C544 C545 1.387 . S
C545 H530 0.930 . S
C545 C540 1.390 . S
C545 C544 1.387 . S
H546 C558 0.930 1_565 S
H547 C560 0.930 . S
H548 C561 0.930 . S
H549 C565 0.956 1_545 S
H550 C565 0.959 . S
H551 C565 0.961 . S
H552 C566 0.960 . S
H553 C566 0.961 . S
H554 C566 0.959 . S
H555 C569 0.929 . S
H556 C570 0.931 . S
H557 C572 0.930 1_565 S
C558 H546 0.930 1_545 S
C558 C559 1.399 . S
C558 C563 1.399 . S
C559 C558 1.399 . S
C559 C560 1.376 . S
C560 H547 0.930 . S
C560 C559 1.376 . S
C560 C561 1.388 . S
C561 H548 0.930 . S
C561 C560 1.388 . S
C561 C562 1.390 . S
C562 C561 1.390 . S
C562 C563 1.394 . S
C562 C568 1.465 . S
C563 C558 1.399 . S
C563 C562 1.394 . S
C563 C564 1.516 1_545 S
C564 C563 1.516 1_565 S
C564 C565 1.502 . S
C564 C566 1.561 . S
C564 C567 1.526 1_565 S
C565 H549 0.956 1_565 S
C565 H550 0.959 . S
C565 H551 0.961 . S
C565 C564 1.502 . S
C566 H552 0.960 . S
C566 H553 0.961 . S
C566 H554 0.959 . S
C566 C564 1.561 . S
C567 C564 1.526 1_545 S
C567 C568 1.396 . S
C567 C572 1.390 . S
C568 C562 1.465 . S
C568 C567 1.396 . S
C568 C569 1.399 . S
C569 H555 0.929 . S
C569 C568 1.399 . S
C569 C570 1.385 . S
C570 H556 0.931 . S
C570 C569 1.385 . S
C570 C571 1.389 . S
C571 C570 1.389 . S
C571 C572 1.387 . S
C572 H557 0.930 1_545 S
C572 C567 1.390 . S
C572 C571 1.387 . S
H573 C585 0.930 . S
H574 C587 0.930 . S
H575 C588 0.930 . S
H576 C592 0.959 . S
H577 C592 0.959 . S
H578 C592 0.961 . S
H579 C593 0.960 . S
H580 C593 0.961 . S
H581 C593 0.959 . S
H582 C596 0.929 . S
H583 C597 0.931 . S
H584 C599 0.928 1_554 S
C585 H573 0.930 . S
C585 C586 1.399 . S
C585 C590 1.399 . S
C586 C585 1.399 . S
C586 C587 1.376 . S
C587 H574 0.930 . S
C587 C586 1.376 . S
C587 C588 1.388 . S
C588 H575 0.930 . S
C588 C587 1.388 . S
C588 C589 1.390 . S
C589 C588 1.390 . S
C589 C590 1.394 . S
C589 C595 1.469 . S
C590 C585 1.399 . S
C590 C589 1.394 . S
C590 C591 1.516 . S
C591 C590 1.516 . S
C591 C592 1.502 . S
C591 C593 1.561 . S
C591 C594 1.526 . S
C592 H576 0.959 . S
C592 H577 0.959 . S
C592 H578 0.961 . S
C592 C591 1.502 . S
C593 H579 0.960 . S
C593 H580 0.961 . S
C593 H581 0.959 . S
C593 C591 1.561 . S
C594 C591 1.526 . S
C594 C595 1.398 . S
C594 C599 1.390 1_554 S
C595 C589 1.469 . S
C595 C594 1.398 . S
C595 C596 1.393 1_554 S
C596 H582 0.929 . S
C596 C595 1.393 1_556 S
C596 C597 1.385 . S
C597 H583 0.931 . S
C597 C596 1.385 . S
C597 C598 1.389 . S
C598 C597 1.389 . S
C598 C599 1.387 . S
C599 H584 0.928 1_556 S
C599 C594 1.390 1_556 S
C599 C598 1.387 . S
H600 C612 0.930 . S
H601 C614 0.930 . S
H602 C615 0.930 . S
H603 C619 0.959 . S
H604 C619 0.959 . S
H605 C619 0.961 . S
H606 C620 0.960 . S
H607 C620 0.961 . S
H608 C620 0.959 . S
H609 C623 0.929 . S
H610 C624 0.931 . S
H611 C626 0.930 . S
C612 H600 0.930 . S
C612 C613 1.399 . S
C612 C617 1.399 . S
C613 C612 1.399 . S
C613 C614 1.376 . S
C614 H601 0.930 . S
C614 C613 1.376 . S
C614 C615 1.388 . S
C615 H602 0.930 . S
C615 C614 1.388 . S
C615 C616 1.390 . S
C616 C615 1.390 . S
C616 C617 1.394 . S
C616 C622 1.465 . S
C617 C612 1.399 . S
C617 C616 1.394 . S
C617 C618 1.516 . S
C618 C617 1.516 . S
C618 C619 1.502 1_455 S
C618 C620 1.561 . S
C618 C621 1.526 . S
C619 H603 0.959 . S
C619 H604 0.959 . S
C619 H605 0.961 . S
C619 C618 1.502 1_655 S
C620 H606 0.960 . S
C620 H607 0.961 . S
C620 H608 0.959 . S
C620 C618 1.561 . S
C621 C618 1.526 . S
C621 C622 1.396 . S
C621 C626 1.390 . S
C622 C616 1.465 . S
C622 C621 1.396 . S
C622 C623 1.399 . S
C623 H609 0.929 . S
C623 C622 1.399 . S
C623 C624 1.385 . S
C624 H610 0.931 . S
C624 C623 1.385 . S
C624 C625 1.389 . S
C625 C624 1.389 . S
C625 C626 1.387 . S
C626 H611 0.930 . S
C626 C621 1.390 . S
C626 C625 1.387 . S
H627 C639 0.930 . S
H628 C641 0.930 . S
H629 C642 0.930 . S
H630 C646 0.959 . S
H631 C646 0.959 . S
H632 C646 0.961 . S
H633 C647 0.960 . S
H634 C647 0.961 . S
H635 C647 0.959 . S
H636 C650 0.929 . S
H637 C651 0.931 . S
H638 C653 0.930 . S
C639 H627 0.930 . S
C639 C640 1.399 . S
C639 C644 1.399 . S
C640 C639 1.399 . S
C640 C641 1.376 1_545 S
C641 H628 0.930 . S
C641 C640 1.376 1_565 S
C641 C642 1.388 . S
C642 H629 0.930 . S
C642 C641 1.388 . S
C642 C643 1.390 1_565 S
C643 C642 1.390 1_545 S
C643 C644 1.394 . S
C643 C649 1.465 . S
C644 C639 1.399 . S
C644 C643 1.394 . S
C644 C645 1.516 . S
C645 C644 1.516 . S
C645 C646 1.502 . S
C645 C647 1.561 . S
C645 C648 1.526 . S
C646 H630 0.959 . S
C646 H631 0.959 . S
C646 H632 0.961 . S
C646 C645 1.502 . S
C647 H633 0.960 . S
C647 H634 0.961 . S
C647 H635 0.959 . S
C647 C645 1.561 . S
C648 C645 1.526 . S
C648 C649 1.396 . S
C648 C653 1.390 . S
C649 C643 1.465 . S
C649 C648 1.396 . S
C649 C650 1.399 1_545 S
C650 H636 0.929 . S
C650 C649 1.399 1_565 S
C650 C651 1.385 . S
C651 H637 0.931 . S
C651 C650 1.385 . S
C651 C652 1.389 1_565 S
C652 C651 1.389 1_545 S
C652 C653 1.387 . S
C653 H638 0.930 . S
C653 C648 1.390 . S
C653 C652 1.387 . S
H654 C666 0.930 . S
H655 C668 0.930 . S
H656 C669 0.930 . S
H657 C673 0.959 . S
H658 C673 0.959 . S
H659 C673 0.961 . S
H660 C674 0.960 . S
H661 C674 0.961 . S
H662 C674 0.959 . S
H663 C677 0.929 . S
H664 C678 0.931 . S
H665 C680 0.930 . S
C666 H654 0.930 . S
C666 C667 1.399 . S
C666 C671 1.399 . S
C667 C666 1.399 . S
C667 C668 1.376 . S
C668 H655 0.930 . S
C668 C667 1.376 . S
C668 C669 1.388 . S
C669 H656 0.930 . S
C669 C668 1.388 . S
C669 C670 1.390 . S
C670 C669 1.390 . S
C670 C671 1.394 . S
C670 C676 1.465 . S
C671 C666 1.399 . S
C671 C670 1.394 . S
C671 C672 1.516 1_554 S
C672 C671 1.516 1_556 S
C672 C673 1.502 . S
C672 C674 1.561 . S
C672 C675 1.526 . S
C673 H657 0.959 . S
C673 H658 0.959 . S
C673 H659 0.961 . S
C673 C672 1.502 . S
C674 H660 0.960 . S
C674 H661 0.961 . S
C674 H662 0.959 . S
C674 C672 1.561 . S
C675 C672 1.526 . S
C675 C676 1.396 1_556 S
C675 C680 1.390 . S
C676 C670 1.465 . S
C676 C675 1.396 1_554 S
C676 C677 1.399 . S
C677 H663 0.929 . S
C677 C676 1.399 . S
C677 C678 1.385 1_554 S
C678 H664 0.931 . S
C678 C677 1.385 1_556 S
C678 C679 1.389 . S
C679 C678 1.389 . S
C679 C680 1.387 . S
C680 H665 0.930 . S
C680 C675 1.390 . S
C680 C679 1.387 . S
H681 C693 0.930 . S
H682 C695 0.930 1_655 S
H683 C696 0.930 1_655 S
H684 C700 0.959 1_655 S
H685 C700 0.959 . S
H686 C700 0.961 . S
H687 C701 0.960 . S
H688 C701 0.961 . S
H689 C701 0.959 . S
H690 C704 0.929 1_655 S
H691 C705 0.931 . S
H692 C707 0.930 . S
C693 H681 0.930 . S
C693 C694 1.399 . S
C693 C698 1.399 . S
C694 C693 1.399 . S
C694 C695 1.376 . S
C695 H682 0.930 1_455 S
C695 C694 1.376 . S
C695 C696 1.388 . S
C696 H683 0.930 1_455 S
C696 C695 1.388 . S
C696 C697 1.390 . S
C697 C696 1.390 . S
C697 C698 1.394 . S
C697 C703 1.465 . S
C698 C693 1.399 . S
C698 C697 1.394 . S
C698 C699 1.516 . S
C699 C698 1.516 . S
C699 C700 1.502 . S
C699 C701 1.561 . S
C699 C702 1.526 . S
C700 H684 0.959 1_455 S
C700 H685 0.959 . S
C700 H686 0.961 . S
C700 C699 1.502 . S
C701 H687 0.960 . S
C701 H688 0.961 . S
C701 H689 0.959 . S
C701 C699 1.561 . S
C702 C699 1.526 . S
C702 C703 1.396 . S
C702 C707 1.390 . S
C703 C697 1.465 . S
C703 C702 1.396 . S
C703 C704 1.399 . S
C704 H690 0.929 1_455 S
C704 C703 1.399 . S
C704 C705 1.385 . S
C705 H691 0.931 . S
C705 C704 1.385 . S
C705 C706 1.389 . S
C706 C705 1.389 . S
C706 C707 1.387 . S
C707 H692 0.930 . S
C707 C702 1.390 . S
C707 C706 1.387 . S
C409 C97 1.233 . S
C397 C6 1.535 . S
C424 C22 1.642 . S
C436 C211 1.300 . S
C451 C34 1.091 . S
C463 C271 0.809 . S
C478 C7 1.414 . S
C490 C71 1.133 . S
C517 C185 1.182 . S
C505 C23 1.489 . S
C532 C35 1.290 . S
C544 C281 0.895 . S
C571 C167 0.894 . S
C559 C36 1.609 . S
C586 C9 1.769 . S
C598 C299 1.422 . S
C625 C43 0.999 1_455 S
C613 C21 1.305 . S
C652 C157 1.094 . S
C640 C37 1.445 . S
C679 C325 1.433 . S
C667 C8 1.864 . S
C694 C20 1.477 . S
C706 C53 1.023 . S
