# Generated by pormake.
# Topology ssc, (4,4)-cn, num edge types: 1
# Building blocks:
#     Node 0, Type 0, BuildingBlock: GALJAG_clean_sbu_0, # of connection points: 4
#     Node 1, Type 0, BuildingBlock: GALJAG_clean_sbu_0, # of connection points: 4
#     Node 2, Type 0, BuildingBlock: GALJAG_clean_sbu_0, # of connection points: 4
#     Node 3, Type 0, BuildingBlock: GALJAG_clean_sbu_0, # of connection points: 4
#     Node 4, Type 0, BuildingBlock: GALJAG_clean_sbu_0, # of connection points: 4
#     Node 5, Type 0, BuildingBlock: GALJAG_clean_sbu_0, # of connection points: 4
#     Node 6, Type 0, BuildingBlock: GALJAG_clean_sbu_0, # of connection points: 4
#     Node 7, Type 0, BuildingBlock: GALJAG_clean_sbu_0, # of connection points: 4
#     Node 8, Type 0, BuildingBlock: GALJAG_clean_sbu_0, # of connection points: 4
#     Node 9, Type 0, BuildingBlock: GALJAG_clean_sbu_0, # of connection points: 4
#     Node 10, Type 0, BuildingBlock: GALJAG_clean_sbu_0, # of connection points: 4
#     Node 11, Type 0, BuildingBlock: GALJAG_clean_sbu_0, # of connection points: 4
#     Node 12, Type 1, BuildingBlock: KUFVIS_clean_linker_0, # of connection points: 4
#     Node 13, Type 1, BuildingBlock: KUFVIS_clean_linker_0, # of connection points: 4
#     Node 14, Type 1, BuildingBlock: KUFVIS_clean_linker_0, # of connection points: 4
#     Node 15, Type 1, BuildingBlock: KUFVIS_clean_linker_0, # of connection points: 4
#     Node 16, Type 1, BuildingBlock: KUFVIS_clean_linker_0, # of connection points: 4
#     Node 17, Type 1, BuildingBlock: KUFVIS_clean_linker_0, # of connection points: 4
#     Node 18, Type 1, BuildingBlock: KUFVIS_clean_linker_0, # of connection points: 4
#     Node 19, Type 1, BuildingBlock: KUFVIS_clean_linker_0, # of connection points: 4
#     Node 20, Type 1, BuildingBlock: KUFVIS_clean_linker_0, # of connection points: 4
#     Node 21, Type 1, BuildingBlock: KUFVIS_clean_linker_0, # of connection points: 4
#     Node 22, Type 1, BuildingBlock: KUFVIS_clean_linker_0, # of connection points: 4
#     Node 23, Type 1, BuildingBlock: KUFVIS_clean_linker_0, # of connection points: 4
#     Edge 24, Type (0, 1), BuildingBlock: OJICUG_clean_linker_0, # of connection points: 2
#     Edge 25, Type (0, 1), BuildingBlock: OJICUG_clean_linker_0, # of connection points: 2
#     Edge 26, Type (0, 1), BuildingBlock: OJICUG_clean_linker_0, # of connection points: 2
#     Edge 27, Type (0, 1), BuildingBlock: OJICUG_clean_linker_0, # of connection points: 2
#     Edge 28, Type (0, 1), BuildingBlock: OJICUG_clean_linker_0, # of connection points: 2
#     Edge 29, Type (0, 1), BuildingBlock: OJICUG_clean_linker_0, # of connection points: 2
#     Edge 30, Type (0, 1), BuildingBlock: OJICUG_clean_linker_0, # of connection points: 2
#     Edge 31, Type (0, 1), BuildingBlock: OJICUG_clean_linker_0, # of connection points: 2
#     Edge 32, Type (0, 1), BuildingBlock: OJICUG_clean_linker_0, # of connection points: 2
#     Edge 33, Type (0, 1), BuildingBlock: OJICUG_clean_linker_0, # of connection points: 2
#     Edge 34, Type (0, 1), BuildingBlock: OJICUG_clean_linker_0, # of connection points: 2
#     Edge 35, Type (0, 1), BuildingBlock: OJICUG_clean_linker_0, # of connection points: 2
#     Edge 36, Type (0, 1), BuildingBlock: OJICUG_clean_linker_0, # of connection points: 2
#     Edge 37, Type (0, 1), BuildingBlock: OJICUG_clean_linker_0, # of connection points: 2
#     Edge 38, Type (0, 1), BuildingBlock: OJICUG_clean_linker_0, # of connection points: 2
#     Edge 39, Type (0, 1), BuildingBlock: OJICUG_clean_linker_0, # of connection points: 2
#     Edge 40, Type (0, 1), BuildingBlock: OJICUG_clean_linker_0, # of connection points: 2
#     Edge 41, Type (0, 1), BuildingBlock: OJICUG_clean_linker_0, # of connection points: 2
#     Edge 42, Type (0, 1), BuildingBlock: OJICUG_clean_linker_0, # of connection points: 2
#     Edge 43, Type (0, 1), BuildingBlock: OJICUG_clean_linker_0, # of connection points: 2
#     Edge 44, Type (0, 1), BuildingBlock: OJICUG_clean_linker_0, # of connection points: 2
#     Edge 45, Type (0, 1), BuildingBlock: OJICUG_clean_linker_0, # of connection points: 2
#     Edge 46, Type (0, 1), BuildingBlock: OJICUG_clean_linker_0, # of connection points: 2
#     Edge 47, Type (0, 1), BuildingBlock: OJICUG_clean_linker_0, # of connection points: 2
#     Edge 48, Type (0, 1), BuildingBlock: OJICUG_clean_linker_0, # of connection points: 2
#     Edge 49, Type (0, 1), BuildingBlock: OJICUG_clean_linker_0, # of connection points: 2
#     Edge 50, Type (0, 1), BuildingBlock: OJICUG_clean_linker_0, # of connection points: 2
#     Edge 51, Type (0, 1), BuildingBlock: OJICUG_clean_linker_0, # of connection points: 2
#     Edge 52, Type (0, 1), BuildingBlock: OJICUG_clean_linker_0, # of connection points: 2
#     Edge 53, Type (0, 1), BuildingBlock: OJICUG_clean_linker_0, # of connection points: 2
#     Edge 54, Type (0, 1), BuildingBlock: OJICUG_clean_linker_0, # of connection points: 2
#     Edge 55, Type (0, 1), BuildingBlock: OJICUG_clean_linker_0, # of connection points: 2
#     Edge 56, Type (0, 1), BuildingBlock: OJICUG_clean_linker_0, # of connection points: 2
#     Edge 57, Type (0, 1), BuildingBlock: OJICUG_clean_linker_0, # of connection points: 2
#     Edge 58, Type (0, 1), BuildingBlock: OJICUG_clean_linker_0, # of connection points: 2
#     Edge 59, Type (0, 1), BuildingBlock: OJICUG_clean_linker_0, # of connection points: 2
#     Edge 60, Type (0, 1), BuildingBlock: OJICUG_clean_linker_0, # of connection points: 2
#     Edge 61, Type (0, 1), BuildingBlock: OJICUG_clean_linker_0, # of connection points: 2
#     Edge 62, Type (0, 1), BuildingBlock: OJICUG_clean_linker_0, # of connection points: 2
#     Edge 63, Type (0, 1), BuildingBlock: OJICUG_clean_linker_0, # of connection points: 2
#     Edge 64, Type (0, 1), BuildingBlock: OJICUG_clean_linker_0, # of connection points: 2
#     Edge 65, Type (0, 1), BuildingBlock: OJICUG_clean_linker_0, # of connection points: 2
#     Edge 66, Type (0, 1), BuildingBlock: OJICUG_clean_linker_0, # of connection points: 2
#     Edge 67, Type (0, 1), BuildingBlock: OJICUG_clean_linker_0, # of connection points: 2
#     Edge 68, Type (0, 1), BuildingBlock: OJICUG_clean_linker_0, # of connection points: 2
#     Edge 69, Type (0, 1), BuildingBlock: OJICUG_clean_linker_0, # of connection points: 2
#     Edge 70, Type (0, 1), BuildingBlock: OJICUG_clean_linker_0, # of connection points: 2
#     Edge 71, Type (0, 1), BuildingBlock: OJICUG_clean_linker_0, # of connection points: 2
# Relax obj value: 0.073
# Max RMSD: 0.279
# Mean RMSD: 0.240
data_MOF--net-ssc--node1-GALJAG_clean_sbu_0--node2-KUFVIS_clean_linker_0--edge1-OJICUG_clean_linker_0
_symmetry_space_group_name_H-M    P1
_symmetry_Int_Tables_number       1
_symmetry_cell_setting            triclinic
loop_
_symmetry_equiv_pos_as_xyz
'x, y, z'
_cell_length_a     23.259948
_cell_length_b     23.251542
_cell_length_c     23.250428
_cell_angle_alpha  90.143052
_cell_angle_beta   89.887153
_cell_angle_gamma 90.14654
loop_
_atom_site_label
_atom_site_type_symbol
_atom_site_fract_x
_atom_site_fract_y
_atom_site_fract_z
_atom_type_partial_charge
In0 In 0.00116 0.26584 0.10811 0.0
O1 O 0.04303 0.20485 0.17249 0.0
O2 O 0.07952 0.28794 0.16167 0.0
C3 C 0.00403 0.17598 0.03478 0.0
C4 C 0.91752 0.28114 0.1872 0.0
C5 C 0.00463 0.35161 0.02931 0.0
O6 O 0.04371 0.21317 0.03586 0.0
O7 O 0.96534 0.18284 0.07226 0.0
O8 O 0.96204 0.31819 0.03378 0.0
O9 O 0.04301 0.34428 0.06688 0.0
C10 C 0.0791 0.24151 0.18975 0.0
O11 O 0.96233 0.31164 0.18685 0.0
O12 O 0.91191 0.24935 0.14352 0.0
In13 In 0.01326 0.74814 0.37005 0.0
O14 O 0.98713 0.68138 0.43752 0.0
O15 O 0.06452 0.6682 0.39061 0.0
C16 C 0.92708 0.72004 0.29826 0.0
C17 C 0.00242 0.83251 0.45051 0.0
C18 C 0.09126 0.78091 0.29066 0.0
O19 O 0.97624 0.69793 0.29407 0.0
O20 O 0.92009 0.75126 0.34223 0.0
O21 O 0.04054 0.7996 0.29036 0.0
O22 O 0.10374 0.75218 0.33476 0.0
C23 C 0.03145 0.65096 0.42999 0.0
O24 O 0.03889 0.79283 0.45495 0.0
O25 O 0.97427 0.83143 0.40426 0.0
In26 In 0.5023 0.76761 0.60951 0.0
O27 O 0.5454 0.71586 0.53694 0.0
O28 O 0.46718 0.68469 0.573 0.0
C29 C 0.58048 0.74256 0.69047 0.0
C30 C 0.50673 0.85444 0.53187 0.0
C31 C 0.41817 0.78006 0.68871 0.0
O32 O 0.5458 0.70541 0.67146 0.0
O33 O 0.57938 0.79017 0.6645 0.0
O34 O 0.46308 0.81036 0.68978 0.0
O35 O 0.41258 0.75021 0.64368 0.0
C36 C 0.50607 0.67832 0.53564 0.0
O37 O 0.46407 0.82099 0.5354 0.0
O38 O 0.54456 0.84666 0.56988 0.0
In39 In 0.51267 0.24613 0.87102 0.0
O40 O 0.54021 0.30117 0.79379 0.0
O41 O 0.60256 0.24948 0.83446 0.0
C42 C 0.50252 0.32995 0.95204 0.0
C43 C 0.42728 0.21916 0.79761 0.0
C44 C 0.53101 0.14903 0.93136 0.0
O45 O 0.54057 0.29161 0.95486 0.0
O46 O 0.47217 0.32766 0.90725 0.0
O47 O 0.487 0.17981 0.93921 0.0
O48 O 0.56351 0.16566 0.89126 0.0
C49 C 0.59041 0.28114 0.79235 0.0
O50 O 0.47659 0.19736 0.79355 0.0
O51 O 0.41962 0.24924 0.84226 0.0
In52 In 0.10648 0.9941 0.22825 0.0
O53 O 0.16969 0.951 0.28956 0.0
O54 O 0.16035 0.91616 0.20558 0.0
C55 C 0.03317 0.9918 0.3181 0.0
C56 C 0.18616 0.07751 0.21427 0.0
C57 C 0.0281 0.99043 0.14205 0.0
O58 O 0.07098 0.03017 0.31123 0.0
O59 O 0.03379 0.95214 0.28086 0.0
O60 O 0.03264 0.03327 0.17519 0.0
O61 O 0.0654 0.95192 0.14989 0.0
C62 C 0.18764 0.91571 0.25247 0.0
O63 O 0.18596 0.03278 0.18364 0.0
O64 O 0.14201 0.08334 0.2453 0.0
In65 In 0.22851 0.88589 0.50084 0.0
O66 O 0.18462 0.80617 0.46176 0.0
O67 O 0.24565 0.85118 0.41135 0.0
C68 C 0.14232 0.96419 0.50398 0.0
C69 C 0.25293 0.80485 0.57923 0.0
C70 C 0.31814 0.95939 0.50432 0.0
O71 O 0.17583 0.95978 0.46145 0.0
O72 O 0.14975 0.92672 0.54244 0.0
O73 O 0.28043 0.95866 0.5435 0.0
O74 O 0.31181 0.92159 0.46582 0.0
C75 C 0.21502 0.80668 0.4169 0.0
O76 O 0.28997 0.82299 0.54401 0.0
O77 O 0.20584 0.83175 0.57858 0.0
In78 In 0.37179 0.98218 0.7477 0.0
O79 O 0.29288 0.95472 0.69529 0.0
O80 O 0.3374 0.89132 0.74229 0.0
C81 C 0.45299 0.99415 0.66416 0.0
C82 C 0.29939 0.06811 0.77515 0.0
C83 C 0.42987 0.96242 0.84571 0.0
O84 O 0.40575 0.02055 0.66399 0.0
O85 O 0.45831 0.95895 0.70485 0.0
O86 O 0.43774 0.00743 0.81634 0.0
O87 O 0.39104 0.92947 0.82702 0.0
C88 C 0.29342 0.90378 0.71339 0.0
O89 O 0.29496 0.01875 0.79679 0.0
O90 O 0.34396 0.07552 0.74491 0.0
In91 In 0.24764 0.12494 0.01252 0.0
O92 O 0.19547 0.20405 0.04016 0.0
O93 O 0.24387 0.16016 0.10298 0.0
C94 C 0.16332 0.04438 0.00258 0.0
C95 C 0.27498 0.19722 0.92648 0.0
C96 C 0.34496 0.06495 0.03014 0.0
O97 O 0.20259 0.04072 0.03961 0.0
O98 O 0.16491 0.08986 0.97322 0.0
O99 O 0.31394 0.05707 0.98627 0.0
O100 O 0.3283 0.10476 0.06298 0.0
C101 C 0.21444 0.20385 0.09081 0.0
O102 O 0.29717 0.20139 0.97564 0.0
O103 O 0.244 0.15309 0.91938 0.0
In104 In 0.72837 0.3866 0.00028 0.0
O105 O 0.79004 0.32348 0.04294 0.0
O106 O 0.7062 0.33249 0.07815 0.0
C107 C 0.8182 0.4598 0.00356 0.0
C108 C 0.7143 0.30726 0.91648 0.0
C109 C 0.64234 0.46514 0.0046 0.0
O110 O 0.78104 0.45858 0.04325 0.0
O111 O 0.81121 0.42265 0.96454 0.0
O112 O 0.6758 0.4613 0.96199 0.0
O113 O 0.64971 0.42705 0.04244 0.0
C114 C 0.75322 0.30546 0.07846 0.0
O115 O 0.68393 0.30708 0.96136 0.0
O116 O 0.74514 0.35158 0.91076 0.0
In117 In 0.86977 0.48329 0.24732 0.0
O118 O 0.79146 0.45526 0.19394 0.0
O119 O 0.83341 0.39323 0.24499 0.0
C120 C 0.95036 0.49263 0.16304 0.0
C121 C 0.79711 0.5691 0.27479 0.0
C122 C 0.93124 0.4663 0.3439 0.0
O123 O 0.95313 0.45477 0.20159 0.0
O124 O 0.90566 0.5231 0.16522 0.0
O125 O 0.93871 0.50992 0.31247 0.0
O126 O 0.891 0.43351 0.32816 0.0
C127 C 0.79062 0.40511 0.21415 0.0
O128 O 0.79358 0.52012 0.29746 0.0
O129 O 0.84081 0.57619 0.24325 0.0
In130 In 0.74703 0.62352 0.51208 0.0
O131 O 0.69401 0.70216 0.53945 0.0
O132 O 0.74267 0.65902 0.60256 0.0
C133 C 0.6632 0.54262 0.50064 0.0
C134 C 0.77525 0.69649 0.42683 0.0
C135 C 0.84409 0.5634 0.53045 0.0
O136 O 0.70205 0.53882 0.53809 0.0
O137 O 0.66491 0.58834 0.47167 0.0
O138 O 0.8136 0.55575 0.48616 0.0
O139 O 0.82705 0.60302 0.56334 0.0
C140 C 0.71295 0.70245 0.5901 0.0
O141 O 0.79761 0.69971 0.47598 0.0
O142 O 0.74374 0.65283 0.41923 0.0
In143 In 0.61033 0.49387 0.72875 0.0
O144 O 0.67383 0.45101 0.78988 0.0
O145 O 0.66496 0.41667 0.7056 0.0
C146 C 0.53664 0.4889 0.81811 0.0
C147 C 0.68918 0.57813 0.71554 0.0
C148 C 0.53192 0.49098 0.64255 0.0
O149 O 0.53842 0.44967 0.78045 0.0
O150 O 0.57354 0.52828 0.81187 0.0
O151 O 0.53607 0.53323 0.67648 0.0
O152 O 0.56966 0.45274 0.64959 0.0
C153 C 0.69204 0.41603 0.75262 0.0
O154 O 0.68911 0.53391 0.68417 0.0
O155 O 0.64537 0.58298 0.74722 0.0
H156 H 0.90857 0.43447 0.70402 0.0
H157 H 0.94032 0.25696 0.7397 0.0
H158 H 0.02317 0.33861 0.59528 0.0
H159 H 0.99089 0.21638 0.57956 0.0
H160 H 0.11747 0.10218 0.6503 0.0
H161 H 0.07299 0.25547 0.7422 0.0
C162 C 0.93382 0.39593 0.69624 0.0
C163 C 0.96712 0.39266 0.64641 0.0
C164 C 0.92024 0.34652 0.72701 0.0
C165 C 0.9505 0.29559 0.71568 0.0
C166 C 0.99101 0.29359 0.67051 0.0
C167 C 0.99671 0.3414 0.6336 0.0
C168 C 0.02635 0.24127 0.66261 0.0
C169 C 0.02069 0.20538 0.61354 0.0
C170 C 0.05333 0.15452 0.60976 0.0
C171 C 0.09107 0.14056 0.65404 0.0
C172 C 0.0987 0.17658 0.70113 0.0
C173 C 0.06624 0.2269 0.70587 0.0
H174 H 0.86219 0.59628 0.85642 0.0
H175 H 0.99577 0.6942 0.9384 0.0
H176 H 0.93014 0.74511 0.77177 0.0
H177 H 0.04707 0.7444 0.76894 0.0
H178 H 0.12064 0.89865 0.83841 0.0
H179 H 0.99101 0.80882 0.93472 0.0
C180 C 0.89284 0.63168 0.85538 0.0
C181 C 0.89258 0.66897 0.80884 0.0
C182 C 0.92867 0.64095 0.90239 0.0
C183 C 0.96727 0.6875 0.90217 0.0
C184 C 0.96948 0.72449 0.85395 0.0
C185 C 0.93107 0.71543 0.80764 0.0
C186 C 0.01187 0.77225 0.85101 0.0
C187 C 0.04797 0.77705 0.8023 0.0
C188 C 0.08689 0.82288 0.79798 0.0
C189 C 0.08935 0.86394 0.84148 0.0
C190 C 0.05629 0.85867 0.89113 0.0
C191 C 0.01729 0.81265 0.89639 0.0
H192 H 0.40554 0.93518 0.20247 0.0
H193 H 0.43611 0.75761 0.23906 0.0
H194 H 0.52245 0.83901 0.09648 0.0
H195 H 0.48922 0.71626 0.08038 0.0
H196 H 0.61471 0.60227 0.15334 0.0
H197 H 0.56979 0.75647 0.2435 0.0
C198 C 0.43084 0.89655 0.19528 0.0
C199 C 0.46545 0.89323 0.14636 0.0
C200 C 0.41659 0.84725 0.22589 0.0
C201 C 0.44686 0.79617 0.21516 0.0
C202 C 0.48834 0.79402 0.17087 0.0
C203 C 0.49511 0.84186 0.13418 0.0
C204 C 0.5237 0.74158 0.16372 0.0
C205 C 0.51854 0.70538 0.1148 0.0
C206 C 0.55111 0.65442 0.11174 0.0
C207 C 0.58827 0.64067 0.15658 0.0
C208 C 0.59566 0.67712 0.2034 0.0
C209 C 0.56323 0.72755 0.20742 0.0
H210 H 0.36163 0.09408 0.356 0.0
H211 H 0.49448 0.19412 0.43664 0.0
H212 H 0.4273 0.24318 0.27007 0.0
H213 H 0.54387 0.2445 0.26605 0.0
H214 H 0.61575 0.40005 0.33431 0.0
H215 H 0.48979 0.30764 0.43297 0.0
C216 C 0.39195 0.12976 0.35451 0.0
C217 C 0.39093 0.16678 0.30779 0.0
C218 C 0.42786 0.13981 0.4013 0.0
C219 C 0.46595 0.1868 0.40055 0.0
C220 C 0.46755 0.22348 0.35205 0.0
C221 C 0.4289 0.21367 0.30606 0.0
C222 C 0.5093 0.27185 0.34857 0.0
C223 C 0.5446 0.27726 0.29931 0.0
C224 C 0.58269 0.32375 0.29439 0.0
C225 C 0.58497 0.36493 0.33778 0.0
C226 C 0.55326 0.35878 0.38819 0.0
C227 C 0.51509 0.31211 0.39405 0.0
H228 H 0.65615 0.88233 0.39591 0.0
H229 H 0.74509 0.92402 0.24016 0.0
H230 H 0.58316 0.00656 0.28052 0.0
H231 H 0.59813 0.97265 0.15797 0.0
H232 H 0.70501 0.08785 0.06067 0.0
H233 H 0.74209 0.05777 0.23821 0.0
C234 C 0.65932 0.90826 0.35715 0.0
C235 C 0.61462 0.94547 0.34312 0.0
C236 C 0.70558 0.89977 0.3203 0.0
C237 C 0.70941 0.93139 0.26934 0.0
C238 C 0.66601 0.97117 0.25513 0.0
C239 C 0.61747 0.97721 0.29161 0.0
C240 C 0.67324 0.00603 0.20236 0.0
C241 C 0.63615 -0.00049 0.15476 0.0
C242 C 0.64835 0.02884 0.10318 0.0
C243 C 0.69773 0.06278 0.09943 0.0
C244 C 0.72865 0.07703 0.14857 0.0
C245 C 0.71795 0.04703 0.19979 0.0
H246 H 0.06162 0.29401 0.40572 0.0
H247 H 0.1583 0.40132 0.5211 0.0
H248 H 0.23851 0.25604 0.43815 0.0
H249 H 0.24043 0.25317 0.57032 0.0
H250 H 0.39384 0.34427 0.61607 0.0
H251 H 0.2802 0.41636 0.48972 0.0
C252 C 0.10019 0.30132 0.43107 0.0
C253 C 0.14918 0.26982 0.41778 0.0
C254 C 0.10389 0.35092 0.46468 0.0
C255 C 0.15521 0.36315 0.49443 0.0
C256 C 0.20264 0.32573 0.48878 0.0
C257 C 0.20019 0.28059 0.44817 0.0
C258 C 0.25499 0.33306 0.52433 0.0
C259 C 0.26912 0.28944 0.56395 0.0
C260 C 0.31937 0.29379 0.59666 0.0
C261 C 0.35554 0.34082 0.5895 0.0
C262 C 0.34181 0.38545 0.55208 0.0
C263 C 0.29102 0.38209 0.51924 0.0
H264 H 0.85627 0.13346 0.89837 0.0
H265 H 0.77044 0.06646 0.74972 0.0
H266 H 0.93693 -0.00022 0.79954 0.0
H267 H 0.93316 0.00481 0.6854 0.0
H268 H 0.83549 0.87724 0.594 0.0
H269 H 0.76697 0.94955 0.74922 0.0
C270 C 0.85487 0.10294 0.86286 0.0
C271 C 0.90159 0.06687 0.85325 0.0
C272 C 0.80813 0.10355 0.82584 0.0
C273 C 0.80645 0.06522 0.77922 0.0
C274 C 0.85249 0.02661 0.76972 0.0
C275 C 0.9009 0.02843 0.80653 0.0
C276 C 0.84916 0.98459 0.72158 0.0
C277 C 0.8945 0.97906 0.68119 0.0
C278 C 0.88885 0.94059 0.63475 0.0
C279 C 0.83879 0.90823 0.62897 0.0
C280 C 0.79545 0.91044 0.67018 0.0
C281 C 0.80018 0.94885 0.71645 0.0
H282 H 0.39795 0.63365 0.85898 0.0
H283 H 0.30084 0.55348 0.99419 0.0
H284 H 0.2511 0.72043 0.9284 0.0
H285 H 0.25131 0.72387 0.04453 0.0
H286 H 0.0971 0.65549 0.11898 0.0
H287 H 0.18656 0.55752 0.99035 0.0
C288 C 0.36279 0.63512 0.88987 0.0
C289 C 0.32625 0.68223 0.89006 0.0
C290 C 0.35357 0.5885 0.92618 0.0
C291 C 0.30747 0.58941 0.96531 0.0
C292 C 0.27089 0.63796 0.96759 0.0
C293 C 0.28022 0.68411 0.92903 0.0
C294 C 0.22333 0.64141 0.01023 0.0
C295 C 0.21865 0.69056 0.04584 0.0
C296 C 0.17285 0.69541 0.08473 0.0
C297 C 0.13178 0.65198 0.08772 0.0
C298 C 0.13695 0.60193 0.05528 0.0
C299 C 0.18288 0.59615 0.01624 0.0
H300 H 0.55903 0.78779 0.90847 0.0
H301 H 0.65344 0.89624 0.02478 0.0
H302 H 0.73703 0.75441 0.93948 0.0
H303 H 0.73851 0.75084 0.07282 0.0
H304 H 0.89233 0.84271 0.11535 0.0
H305 H 0.77597 0.91388 0.99093 0.0
C306 C 0.59742 0.79577 0.93389 0.0
C307 C 0.64728 0.76599 0.91978 0.0
C308 C 0.59996 0.84509 0.9681 0.0
C309 C 0.65112 0.85825 -0.00224 0.0
C310 C 0.6995 0.82229 0.99123 0.0
C311 C 0.69806 0.77766 0.95012 0.0
C312 C 0.75195 0.83055 0.02626 0.0
C313 C 0.76694 0.78721 0.06577 0.0
C314 C 0.81773 0.79188 0.09746 0.0
C315 C 0.85363 0.83898 0.08941 0.0
C316 C 0.83893 0.88349 0.05222 0.0
C317 C 0.78756 0.87978 0.02035 0.0
H318 H 0.35917 0.63572 0.39807 0.0
H319 H 0.27331 0.5659 0.25075 0.0
H320 H 0.44041 0.50108 0.30108 0.0
H321 H 0.43678 0.50372 0.18733 0.0
H322 H 0.33909 0.37499 0.09759 0.0
H323 H 0.26994 0.45021 0.2511 0.0
C324 C 0.35793 0.60476 0.36294 0.0
C325 C 0.40483 0.56884 0.35375 0.0
C326 C 0.31101 0.60437 0.32614 0.0
C327 C 0.30948 0.5654 0.28008 0.0
C328 C 0.3558 0.52702 0.27098 0.0
C329 C 0.40427 0.52969 0.30765 0.0
C330 C 0.3526 0.48423 0.22354 0.0
C331 C 0.39812 0.47792 0.18345 0.0
C332 C 0.39254 0.43869 0.13763 0.0
C333 C 0.34245 0.40639 0.13219 0.0
C334 C 0.29878 0.40967 0.17295 0.0
C335 C 0.30343 0.44872 0.21865 0.0
H336 H 0.89985 0.14135 0.36271 0.0
H337 H 0.79919 0.06062 0.49496 0.0
H338 H 0.75095 0.22757 0.42819 0.0
H339 H 0.74891 0.23158 0.54439 0.0
H340 H 0.59282 0.16368 0.6152 0.0
H341 H 0.68654 0.0643 0.4908 0.0
C342 C 0.86416 0.14288 0.39297 0.0
C343 C 0.82731 0.18974 0.392 0.0
C344 C 0.85381 0.09599 0.42865 0.0
C345 C 0.80675 0.0968 0.46661 0.0
C346 C 0.77029 0.14546 0.46829 0.0
C347 C 0.78035 0.19151 0.42982 0.0
C348 C 0.72176 0.14901 0.50979 0.0
C349 C 0.71609 0.1984 0.54488 0.0
C350 C 0.66936 0.20348 0.58261 0.0
C351 C 0.62808 0.16016 0.58461 0.0
C352 C 0.6347 0.10948 0.55339 0.0
C353 C 0.68165 0.10346 0.51565 0.0
H354 H 0.15133 0.37807 0.89163 0.0
H355 H 0.24293 0.42371 0.73856 0.0
H356 H 0.07956 0.50416 0.7775 0.0
H357 H 0.09601 0.47211 0.65508 0.0
H358 H 0.20392 0.58806 0.55987 0.0
H359 H 0.23938 0.55627 0.73743 0.0
C360 C 0.15487 0.40459 0.85331 0.0
C361 C 0.11025 0.4419 0.83933 0.0
C362 C 0.20206 0.39749 0.81735 0.0
C363 C 0.20654 0.43007 0.76709 0.0
C364 C 0.16295 0.46957 0.75273 0.0
C365 C 0.11378 0.47467 0.78852 0.0
C366 C 0.17065 0.5051 0.70051 0.0
C367 C 0.13404 0.49902 0.65251 0.0
C368 C 0.14679 0.52877 0.60133 0.0
C369 C 0.19623 0.56269 0.59834 0.0
C370 C 0.22681 0.57636 0.64785 0.0
C371 C 0.21551 0.54599 0.69872 0.0
C372 C 0.99581 0.3729 0.92371 0.0
C373 C 0.01461 0.38916 0.9789 0.0
H374 H 0.01018 0.38097 0.83277 0.0
C375 C 0.05206 0.43602 0.98409 0.0
H376 H 0.96736 0.33634 0.91826 0.0
C377 C 0.07391 0.46369 0.93554 0.0
C378 C 0.0617 0.44233 0.88037 0.0
H379 H 0.06869 0.44754 0.02562 0.0
H380 H 0.10751 0.49554 0.94137 0.0
C381 C 0.01934 0.39932 0.87467 0.0
C382 C 0.9015 0.69711 0.19572 0.0
C383 C 0.88784 0.72343 0.24863 0.0
H384 H 0.88805 0.69786 0.10416 0.0
C385 C 0.84306 0.76344 0.25058 0.0
H386 H 0.93689 0.66707 0.19254 0.0
C387 C 0.81371 0.77897 0.20108 0.0
C388 C 0.83004 0.75624 0.14778 0.0
H389 H 0.83459 0.7871 0.28937 0.0
H390 H 0.78261 0.81355 0.20352 0.0
C391 C 0.87321 0.71409 0.14529 0.0
C392 C 0.46442 0.58805 0.49744 0.0
C393 C 0.49909 0.63653 0.48841 0.0
H394 H 0.41022 0.52425 0.45939 0.0
C395 C 0.51561 0.65077 0.43203 0.0
H396 H 0.44985 0.57769 0.54022 0.0
C397 C 0.49189 0.62082 0.38526 0.0
C398 C 0.45242 0.57583 0.39466 0.0
H399 H 0.54168 0.68857 0.42386 0.0
H400 H 0.49898 0.63711 0.34219 0.0
C401 C 0.44212 0.55725 0.45108 0.0
C402 C 0.6696 0.23919 0.73507 0.0
C403 C 0.62425 0.27859 0.73857 0.0
H404 H 0.72376 0.18844 0.6812 0.0
C405 C 0.60402 0.30401 0.68764 0.0
H406 H 0.68269 0.21551 0.77241 0.0
C407 C 0.62576 0.28631 0.63414 0.0
C408 C 0.66853 0.24375 0.63127 0.0
H409 H 0.56797 0.33339 0.68876 0.0
H410 H 0.60502 0.30114 0.59524 0.0
C411 C 0.69268 0.22312 0.68229 0.0
C412 C 0.09522 0.56946 0.4562 0.0
C413 C 0.04947 0.60594 0.47057 0.0
H414 H 0.15976 0.51177 0.4869 0.0
C415 C 0.02885 0.60638 0.52727 0.0
H416 H 0.11278 0.56919 0.41301 0.0
C417 C 0.0568 0.57456 0.56978 0.0
C418 C 0.10404 0.53977 0.55593 0.0
H419 H 0.99493 0.63565 0.53997 0.0
H420 H 0.04533 0.582 0.61435 0.0
C421 C 0.12156 0.5359 0.49826 0.0
C422 C 0.65131 0.77686 0.76249 0.0
C423 C 0.60993 0.73619 0.74615 0.0
H424 H 0.70046 0.81378 0.83055 0.0
C425 C 0.58959 0.69669 0.78727 0.0
H426 H 0.66446 0.81017 0.73304 0.0
C427 C 0.60799 0.7005 0.84454 0.0
C428 C 0.64818 0.74283 0.86089 0.0
H429 H 0.55623 0.66597 0.77635 0.0
H430 H 0.58747 0.67382 0.8768 0.0
C431 C 0.67174 0.77894 0.81866 0.0
C432 C 0.44929 0.41376 0.99131 0.0
C433 C 0.48791 0.36864 0.00055 0.0
H434 H 0.3916 0.47483 0.02871 0.0
C435 C 0.50419 0.35561 0.05731 0.0
H436 H 0.43432 0.42284 0.94853 0.0
C437 C 0.47807 0.38414 0.10385 0.0
C438 C 0.43714 0.42748 0.09402 0.0
H439 H 0.53323 0.32032 0.06588 0.0
H440 H 0.48642 0.36937 0.1472 0.0
C441 C 0.42496 0.44358 0.03732 0.0
C442 C 0.84102 0.22816 0.23919 0.0
C443 C 0.88354 0.27081 0.24014 0.0
H444 H 0.78641 0.17197 0.28713 0.0
C445 C 0.89991 0.29428 0.29358 0.0
H446 H 0.83049 0.2069 0.19983 0.0
C447 C 0.87573 0.27309 0.34478 0.0
C448 C 0.83443 0.22885 0.34297 0.0
H449 H 0.93421 0.32577 0.29609 0.0
H450 H 0.89276 0.28758 0.38566 0.0
C451 C 0.81599 0.20802 0.28959 0.0
C452 C 0.92962 0.98392 0.34641 0.0
C453 C 0.98634 -0.00033 0.36016 0.0
H454 H 0.84018 0.00151 0.36105 0.0
C455 C 0.99627 0.03423 0.40855 0.0
H456 H 0.92074 0.95795 0.3087 0.0
C457 C 0.95052 0.05709 0.43982 0.0
C458 C 0.89382 0.04758 0.42173 0.0
H459 H 0.03931 0.04829 0.4185 0.0
H460 H 0.95958 0.08896 0.47266 0.0
C461 C 0.88348 0.0081 0.37693 0.0
C462 C 0.29743 0.70738 0.58857 0.0
C463 C 0.2587 0.74921 0.60896 0.0
H464 H 0.31904 0.61754 0.58694 0.0
C465 C 0.21824 0.73371 0.65083 0.0
H466 H 0.32798 0.71762 0.55486 0.0
C467 C 0.21569 0.67778 0.67184 0.0
C468 C 0.25099 0.63486 0.64831 0.0
H469 H 0.18543 0.76366 0.664 0.0
H470 H 0.18101 0.66659 0.701 0.0
C471 C 0.29304 0.65031 0.60749 0.0
C472 C 0.52638 0.96439 0.89186 0.0
C473 C 0.46978 0.94358 0.89103 0.0
H474 H 0.61312 0.94765 0.91704 0.0
C475 C 0.45505 0.89696 0.92631 0.0
H476 H 0.53936 -0.00105 0.86346 0.0
C477 C 0.49678 0.86988 0.95972 0.0
C478 C 0.55442 0.88772 0.95706 0.0
H479 H 0.41186 0.87943 0.92578 0.0
H480 H 0.4852 0.83118 0.98296 0.0
C481 C 0.56853 0.9359 0.92366 0.0
C482 C 0.25826 0.25853 0.17086 0.0
C483 C 0.21881 0.25703 0.12543 0.0
H484 H 0.31056 0.30985 0.2261 0.0
C485 C 0.19507 0.30906 0.10602 0.0
H486 H 0.28073 0.22025 0.18327 0.0
C487 C 0.21442 0.36159 0.12873 0.0
C488 C 0.25696 0.3624 0.17164 0.0
H489 H 0.1657 0.30948 0.06992 0.0
H490 H 0.2009 0.40129 0.10861 0.0
C491 C 0.27589 0.31037 0.19497 0.0
C492 C 0.92253 -0.00135 0.12082 0.0
C493 C 0.97779 0.98028 0.10443 0.0
H494 H 0.83173 0.9836 0.11291 0.0
C495 C 0.98315 0.94301 0.05744 0.0
H496 H 0.91696 0.02699 0.15745 0.0
C497 C 0.9347 0.92074 0.02989 0.0
C498 C 0.87952 0.93244 0.05146 0.0
H499 H 0.02478 0.92683 0.04571 0.0
H500 H 0.94069 0.88722 -0.00202 0.0
C501 C 0.87362 0.97479 0.09445 0.0
C502 C 0.26915 0.75614 0.3402 0.0
C503 C 0.22657 0.7541 0.38272 0.0
H504 H 0.32627 0.70968 0.28528 0.0
C505 C 0.20422 0.70011 0.39878 0.0
H506 H 0.28956 0.79599 0.32992 0.0
C507 C 0.2265 0.64948 0.37434 0.0
C508 C 0.27069 0.65243 0.33306 0.0
H509 H 0.17282 0.69676 0.43307 0.0
H510 H 0.21295 0.60824 0.39122 0.0
C511 C 0.29029 0.70632 0.31483 0.0
C512 C 0.55827 0.99676 0.63877 0.0
C513 C 0.50093 0.01054 0.62546 0.0
H514 H 0.64739 0.01739 0.6244 0.0
C515 C 0.49023 0.04816 0.57978 0.0
H516 H 0.56798 0.96856 0.67445 0.0
C517 C 0.53528 0.0739 0.54967 0.0
C518 C 0.59238 0.0639 0.56572 0.0
H519 H 0.44693 0.06127 0.57043 0.0
H520 H 0.52547 0.10653 0.51801 0.0
C521 C 0.60375 0.02404 0.60968 0.0
C522 C 0.29724 0.29997 0.90125 0.0
C523 C 0.27149 0.24687 0.88725 0.0
H524 H 0.29579 0.39152 0.88804 0.0
C525 C 0.232 0.24464 0.84198 0.0
H526 H 0.3269 0.30336 0.93698 0.0
C527 C 0.21637 0.29406 0.81254 0.0
C528 C 0.23839 0.34755 0.82928 0.0
H529 H 0.20881 0.20566 0.83316 0.0
H530 H 0.1821 0.29139 0.78108 0.0
C531 C 0.28013 0.35028 0.87286 0.0
C532 C 0.42662 0.03847 0.09375 0.0
C533 C 0.38981 0.02415 0.04818 0.0
H534 H 0.48398 0.00752 0.15854 0.0
C535 C 0.3887 0.96731 0.02795 0.0
H536 H 0.42738 0.08176 0.11104 0.0
C537 C 0.42008 0.92467 0.05618 0.0
C538 C 0.45513 0.93846 0.10327 0.0
H539 H 0.3592 0.95465 0.99419 0.0
H540 H 0.41203 0.88009 0.04511 0.0
C541 C 0.45971 0.9962 0.12039 0.0
C542 C 0.90862 0.49737 0.96177 0.0
C543 C 0.86027 0.50673 0.99649 0.0
H544 H 0.97262 0.53503 0.90761 0.0
C545 C 0.84648 0.56319 0.01313 0.0
H546 H 0.9186 0.45454 0.94707 0.0
C547 C 0.87685 0.60976 0.98958 0.0
C548 C 0.92166 0.60008 0.95002 0.0
H549 H 0.80878 0.57162 0.03923 0.0
H550 H 0.86092 0.65295 0.99682 0.0
C551 C 0.93979 0.54354 0.9396 0.0
C552 C 0.74887 0.65326 0.23203 0.0
C553 C 0.74723 0.6081 0.27165 0.0
H554 H 0.70142 0.71391 0.18248 0.0
C555 C 0.69447 0.59402 0.298 0.0
H556 H 0.78757 0.66213 0.20842 0.0
C557 C 0.64388 0.62219 0.28132 0.0
C558 C 0.64599 0.66565 0.23942 0.0
H559 H 0.69152 0.55838 0.32779 0.0
H560 H 0.60288 0.6069 0.29743 0.0
C561 C 0.69919 0.68254 0.21686 0.0
C562 C 0.63741 0.43733 0.50042 0.0
C563 C 0.6245 0.49437 0.48508 0.0
H564 H 0.62297 0.34775 0.48164 0.0
C565 C 0.57931 0.50432 0.44671 0.0
H566 H 0.67277 0.4282 0.52921 0.0
C567 C 0.54913 0.45877 0.42189 0.0
C568 C 0.56491 0.40183 0.4333 0.0
H569 H 0.57039 0.54733 0.43237 0.0
H570 H 0.51782 0.46795 0.38874 0.0
C571 C 0.60843 0.39127 0.47389 0.0
C572 C 0.25906 0.84479 0.21693 0.0
C573 C 0.2435 0.88628 0.2578 0.0
H574 H 0.3262 0.79496 0.17929 0.0
C575 C 0.2854 0.90664 0.29649 0.0
H576 H 0.22912 0.83177 0.18404 0.0
C577 C 0.34251 0.88794 0.29183 0.0
C578 C 0.35793 0.84724 0.24962 0.0
H579 H 0.27516 0.94015 0.32728 0.0
H580 H 0.37529 0.9084 0.31793 0.0
C581 C 0.31503 0.82392 0.21415 0.0
C582 C 0.05813 0.00968 0.55156 0.0
C583 C 0.10489 0.01465 0.51397 0.0
H584 H -0.0009 0.0527 0.60728 0.0
C585 C 0.12135 0.06977 0.49515 0.0
H586 H 0.04646 0.96822 0.56825 0.0
C587 C 0.09521 0.11892 0.51872 0.0
C588 C 0.05237 0.11343 0.56124 0.0
H589 H 0.15783 0.07506 0.4666 0.0
H590 H 0.11369 0.16074 0.50947 0.0
C591 C 0.0308 0.05837 0.57354 0.0
C592 C 0.68572 0.39034 0.19269 0.0
C593 C 0.73716 0.37081 0.2176 0.0
H594 H 0.59341 0.3881 0.19652 0.0
C595 C 0.73463 0.32547 0.25712 0.0
H596 H 0.68607 0.42637 0.16325 0.0
C597 C 0.68236 0.30157 0.27363 0.0
C598 C 0.63082 0.325 0.2535 0.0
H599 H 0.77239 0.31297 0.28044 0.0
H600 H 0.68204 0.27048 0.30833 0.0
C601 C 0.63272 0.36785 0.21093 0.0
C602 C 0.79547 0.59651 0.7032 0.0
C603 C 0.74183 0.6124 0.72646 0.0
H604 H 0.8874 0.60423 0.71053 0.0
C605 C 0.74038 0.65485 0.76917 0.0
H606 H 0.79838 0.56224 0.67172 0.0
C607 C 0.79047 0.68044 0.78943 0.0
C608 C 0.84407 0.6623 0.76899 0.0
H609 H 0.70088 0.66495 0.79031 0.0
H610 H 0.78763 0.70994 0.82552 0.0
C611 C 0.84637 0.62104 0.72472 0.0
C612 C 0.49926 0.87653 0.42636 0.0
C613 C 0.51761 0.89228 0.48185 0.0
H614 H 0.5143 0.88528 0.33561 0.0
C615 C 0.55552 0.9387 0.48772 0.0
H616 H 0.47054 0.84027 0.42038 0.0
C617 C 0.57805 0.96652 0.43954 0.0
C618 C 0.56601 0.94577 0.3841 0.0
H619 H 0.57199 0.94971 0.52948 0.0
H620 H 0.61193 -0.00204 0.44586 0.0
C621 C 0.52334 0.90318 0.37773 0.0
C622 C 0.40277 0.19804 0.69435 0.0
C623 C 0.38856 0.22345 0.74756 0.0
H624 H 0.38992 0.19994 0.60272 0.0
C625 C 0.34355 0.26323 0.74972 0.0
H626 H 0.43834 0.16822 0.691 0.0
C627 C 0.31446 0.27929 0.70018 0.0
C628 C 0.33123 0.25737 0.64665 0.0
H629 H 0.33459 0.28621 0.78882 0.0
H630 H 0.28317 0.31369 0.70286 0.0
C631 C 0.37468 0.21552 0.64396 0.0
C632 C 0.96148 0.08598 0.99679 0.0
C633 C 0.99648 0.13419 0.98761 0.0
H634 H 0.9069 0.02238 0.95897 0.0
C635 C 0.01303 0.14814 0.93116 0.0
H636 H 0.94675 0.07595 0.03959 0.0
C637 C 0.98922 0.11806 0.88449 0.0
C638 C 0.94943 0.07339 0.89404 0.0
H639 H 0.03934 0.18574 0.92284 0.0
H640 H 0.99645 0.13414 0.84136 0.0
C641 C 0.93907 0.05507 0.95053 0.0
C642 C 0.17081 0.73625 0.23592 0.0
C643 C 0.12561 0.77595 0.23736 0.0
H644 H 0.22581 0.68365 0.18472 0.0
C645 C 0.10616 0.7995 0.18523 0.0
H646 H 0.18309 0.71378 0.27426 0.0
C647 C 0.12872 0.77988 0.13274 0.0
C648 C 0.17154 0.73727 0.13202 0.0
H649 H 0.0702 0.829 0.18475 0.0
H650 H 0.1086 0.79334 0.09301 0.0
C651 C 0.19482 0.71842 0.18411 0.0
C652 C 0.59498 0.06763 0.95799 0.0
C653 C 0.54958 0.10457 0.97241 0.0
H654 H 0.65985 0.0103 0.9888 0.0
C655 C 0.52989 0.10608 0.02943 0.0
H656 H 0.61188 0.06655 0.91456 0.0
C657 C 0.5582 0.07468 0.07204 0.0
C658 C 0.60512 0.03948 0.05811 0.0
H659 H 0.49633 0.13574 0.04215 0.0
H660 H 0.54719 0.08263 0.11664 0.0
C661 C 0.62188 0.03473 0.00027 0.0
C662 C 0.08867 0.19809 0.28783 0.0
C663 C 0.10891 0.23634 0.24547 0.0
H664 H 0.08761 0.17734 0.37791 0.0
C665 C 0.15093 0.27689 0.26039 0.0
H666 H 0.0548 0.16755 0.2781 0.0
C667 C 0.17245 0.27982 0.31613 0.0
C668 C 0.14917 0.24497 0.35954 0.0
H669 H 0.16383 0.30952 0.23013 0.0
H670 H 0.20178 0.31455 0.32679 0.0
C671 C 0.10804 0.20295 0.34474 0.0
C672 C 0.00189 0.85801 0.55581 0.0
C673 C 0.98652 0.87104 0.49879 0.0
H674 H 0.98283 0.87174 0.64542 0.0
C675 C 0.94768 0.91588 0.48898 0.0
H676 H 0.03105 0.82295 0.56484 0.0
C677 C 0.92235 0.94542 0.53466 0.0
C678 C 0.93388 0.92945 0.59153 0.0
H679 H 0.93329 0.92491 0.44599 0.0
H680 H 0.88884 0.97637 0.52559 0.0
C681 C 0.97494 0.88639 0.60195 0.0
C682 C 0.34158 0.72499 0.73849 0.0
C683 C 0.38393 0.76773 0.74109 0.0
H684 H 0.28646 0.66742 0.7842 0.0
C685 C 0.39969 0.78964 0.79538 0.0
H686 H 0.33163 0.70483 0.69843 0.0
C687 C 0.375 0.7669 0.84569 0.0
C688 C 0.33373 0.72272 0.84217 0.0
H689 H 0.43389 0.82111 0.79919 0.0
H690 H 0.39161 0.78014 0.88714 0.0
C691 C 0.31591 0.70345 0.78801 0.0
C692 C 0.4331 0.47804 0.84529 0.0
C693 C 0.48922 0.49527 0.85975 0.0
H694 H 0.34308 0.49373 0.85842 0.0
C695 C 0.49764 0.53006 0.90827 0.0
H696 H 0.42538 0.45184 0.80748 0.0
C697 C 0.45091 0.55184 0.93885 0.0
C698 C 0.39471 0.54099 0.91991 0.0
H699 H 0.54018 0.54519 0.91879 0.0
H700 H 0.45875 0.58387 0.97186 0.0
C701 C 0.38596 0.50128 0.87499 0.0
C702 C 0.79832 0.20828 0.08849 0.0
C703 C 0.75913 0.24992 0.10835 0.0
H704 H 0.82076 0.11861 0.08767 0.0
C705 C 0.71846 0.23433 0.14998 0.0
H706 H 0.82901 0.21856 0.05491 0.0
C707 C 0.71627 0.17854 0.17138 0.0
C708 C 0.75217 0.13578 0.14848 0.0
H709 H 0.68526 0.26406 0.16264 0.0
H710 H 0.68149 0.16725 0.20038 0.0
C711 C 0.79432 0.15131 0.10779 0.0
C712 C 0.95862 0.40359 0.42596 0.0
C713 C 0.97271 0.44845 0.38824 0.0
H714 H 0.98985 0.33968 0.48411 0.0
C715 C 0.0297 0.46814 0.38595 0.0
H716 H 0.91527 0.38653 0.42746 0.0
C717 C 0.07255 0.44024 0.41738 0.0
C718 C 0.05886 0.39402 0.45361 0.0
H719 H 0.04217 0.50132 0.35573 0.0
H720 H 0.11709 0.45109 0.40889 0.0
C721 C 0.0011 0.37732 0.45906 0.0
C722 C 0.69268 0.80761 0.60447 0.0
C723 C 0.71711 0.75601 0.62421 0.0
H724 H 0.69736 0.89994 0.6062 0.0
C725 C 0.757 0.75843 0.66923 0.0
H726 H 0.66299 0.80734 0.56864 0.0
C727 C 0.77436 0.81073 0.69256 0.0
C728 C 0.75451 0.86233 0.66903 0.0
H729 H 0.78003 0.72053 0.68183 0.0
H730 H 0.80931 0.81092 0.72338 0.0
C731 C 0.71161 0.86059 0.62651 0.0
C732 C 0.4264 0.49986 0.62108 0.0
C733 C 0.48156 0.48101 0.60489 0.0
H734 H 0.33548 0.4856 0.61291 0.0
C735 C 0.48671 0.44348 0.55807 0.0
H736 H 0.42097 0.52837 0.6576 0.0
C737 C 0.43815 0.42159 0.53041 0.0
C738 C 0.38301 0.43391 0.55169 0.0
H739 H 0.5282 0.42679 0.54658 0.0
H740 H 0.44394 0.38791 0.49863 0.0
C741 C 0.37736 0.47635 0.59463 0.0
C742 C 0.70262 0.20073 0.89862 0.0
C743 C 0.72554 0.25447 0.88249 0.0
H744 H 0.71018 0.10876 0.89107 0.0
C745 C 0.76829 0.25595 0.8401 0.0
H746 H 0.67113 0.19778 0.93287 0.0
C747 C 0.78886 0.20583 0.81479 0.0
C748 C 0.7685 0.15219 0.83294 0.0
H749 H 0.78923 0.29553 0.82982 0.0
H750 H 0.82493 0.20873 0.78531 0.0
C751 C 0.72428 0.14982 0.87421 0.0
C752 C 0.99019 0.54596 0.07948 0.0
C753 C -0.00097 0.50709 0.12449 0.0
H754 H 0.02816 0.60369 0.01877 0.0
C755 C 0.05562 0.49045 0.13768 0.0
H756 H 0.94758 0.56127 0.07035 0.0
C757 C 0.10241 0.51643 0.10944 0.0
C758 C 0.09299 0.55756 0.06619 0.0
H759 H 0.0639 0.46123 0.1729 0.0
H760 H 0.14562 0.50776 0.12434 0.0
C761 C 0.03645 0.57013 0.04991 0.0
C762 C 0.7322 0.74588 0.34345 0.0
C763 C 0.77221 0.74677 0.38832 0.0
H764 H 0.68277 0.79435 0.28352 0.0
C765 C 0.79909 0.7992 0.40275 0.0
H766 H 0.70814 0.70746 0.33436 0.0
C767 C 0.78277 0.8502 0.37509 0.0
C768 C 0.74069 0.84882 0.33177 0.0
H769 H 0.82914 0.80157 0.43822 0.0
H770 H 0.79949 0.89093 0.39052 0.0
C771 C 0.71734 0.79598 0.31471 0.0
C772 C 0.92609 0.53749 0.59382 0.0
C773 C 0.88899 0.52275 0.54864 0.0
H774 H 0.98423 0.50719 0.65821 0.0
C775 C 0.88791 0.46577 0.52879 0.0
H776 H 0.92681 0.58089 0.61084 0.0
C777 C 0.91998 0.42346 0.55676 0.0
C778 C 0.95543 0.4377 0.60344 0.0
H779 H 0.85815 0.45282 0.49537 0.0
H780 H 0.91249 0.3788 0.54563 0.0
C781 C 0.95965 0.49554 0.62036 0.0
C782 C 0.40859 0.99691 0.46255 0.0
C783 C 0.36006 0.00644 0.49697 0.0
H784 H 0.47258 0.03419 0.40809 0.0
C785 C 0.34597 0.06303 0.51289 0.0
H786 H 0.41879 0.95395 0.44842 0.0
C787 C 0.37621 0.10945 0.48889 0.0
C788 C 0.42112 0.09952 0.44949 0.0
H789 H 0.30815 0.0716 0.53878 0.0
H790 H 0.36006 0.15264 0.49556 0.0
C791 C 0.43959 0.04295 0.43987 0.0
C792 C 0.1965 0.09317 0.79671 0.0
C793 C 0.24961 0.10709 0.77098 0.0
H794 H 0.10495 0.10629 0.79514 0.0
C795 C 0.25175 0.15185 0.7309 0.0
H796 H 0.19318 0.05777 0.82676 0.0
C797 C 0.20227 0.18099 0.71488 0.0
C798 C 0.14884 0.1645 0.73717 0.0
H799 H 0.29072 0.1605 0.70761 0.0
H800 H 0.20489 0.21208 0.68029 0.0
C801 C 0.14616 0.12128 0.77926 0.0
C802 C 0.08005 0.00511 0.9483 0.0
C803 C 0.12469 0.99593 0.98753 0.0
H804 H 0.01993 0.96759 0.88963 0.0
C805 C 0.13752 0.93918 0.00401 0.0
H806 H 0.07113 0.04785 0.93316 0.0
C807 C 0.10941 0.89262 0.97749 0.0
C808 C 0.06673 0.90238 0.93586 0.0
H809 H 0.17239 0.93064 0.03357 0.0
H810 H 0.12407 0.84929 0.9861 0.0
C811 C 0.05068 0.95904 0.92348 0.0
C812 C 0.76307 0.34465 0.71747 0.0
C813 C 0.74762 0.38623 0.75826 0.0
H814 H 0.83001 0.29431 0.68023 0.0
C815 C 0.78935 0.40601 0.79744 0.0
H816 H 0.73325 0.33208 0.68429 0.0
C817 C 0.84627 0.38664 0.79333 0.0
C818 C 0.86169 0.34608 0.75098 0.0
H819 H 0.77917 0.43953 0.82823 0.0
H820 H 0.87903 0.40674 0.81973 0.0
C821 C 0.81882 0.3232 0.71516 0.0
C822 C 0.55813 0.50964 0.05304 0.0
C823 C 0.60465 0.51533 0.01528 0.0
H824 H 0.49867 0.55167 0.10906 0.0
C825 C 0.62041 0.57075 0.99671 0.0
H826 H 0.54703 0.46794 0.06952 0.0
C827 C 0.59377 0.61948 0.02065 0.0
C828 C 0.55104 0.61327 0.06319 0.0
H829 H 0.6567 0.5766 0.96804 0.0
H830 H 0.6117 0.66157 0.01155 0.0
C831 C 0.53024 0.55788 0.0753 0.0
C832 C 0.18826 0.88874 0.69407 0.0
C833 C 0.24019 0.86931 0.71803 0.0
H834 H 0.09605 0.88666 0.69977 0.0
C835 C 0.23843 0.82437 0.75805 0.0
H836 H 0.18805 0.92448 0.66427 0.0
C837 C 0.18645 0.80084 0.77598 0.0
C838 C 0.13457 0.82415 0.75663 0.0
H839 H 0.27661 0.81203 0.78076 0.0
H840 H 0.18676 0.77011 0.811 0.0
C841 C 0.13563 0.86656 0.71364 0.0
C842 C 0.23815 0.15305 0.26881 0.0
C843 C 0.23921 0.11104 0.22563 0.0
H844 H 0.2859 0.20713 0.32574 0.0
C845 C 0.29274 0.09474 0.2024 0.0
H846 H 0.19873 0.16335 0.29004 0.0
C847 C 0.34387 0.11868 0.22409 0.0
C848 C 0.34191 0.15969 0.26861 0.0
H849 H 0.29535 0.06077 0.17055 0.0
H850 H 0.38477 0.10176 0.20966 0.0
C851 C 0.28848 0.17789 0.28942 0.0
loop_
_geom_bond_atom_site_label_1
_geom_bond_atom_site_label_2
_geom_bond_distance
_geom_bond_site_symmetry_2
_ccdc_geom_bond_type
In0 O1 2.294 . S
In0 O2 2.326 . S
In0 O6 2.266 . S
In0 O7 2.326 1_455 S
In0 O8 2.266 1_455 S
In0 O9 2.326 . S
In0 O11 2.294 1_455 S
In0 O12 2.326 1_455 S
O1 In0 2.294 . S
O1 C10 1.240 . S
O2 In0 2.326 . S
O2 C10 1.252 . S
C3 O6 1.252 1_655 S
C3 O7 1.260 . S
C4 O11 1.240 . S
C4 O12 1.252 . S
C5 O8 1.252 1_455 S
C5 O9 1.260 . S
O6 In0 2.266 . S
O6 C3 1.252 1_455 S
O7 In0 2.326 1_655 S
O7 C3 1.260 . S
O8 In0 2.266 1_655 S
O8 C5 1.252 1_655 S
O9 In0 2.326 . S
O9 C5 1.260 . S
C10 O1 1.240 . S
C10 O2 1.252 . S
O11 In0 2.294 1_655 S
O11 C4 1.240 . S
O12 In0 2.326 1_655 S
O12 C4 1.252 . S
In13 O14 2.293 1_455 S
In13 O15 2.327 . S
In13 O19 2.265 1_455 S
In13 O20 2.325 1_455 S
In13 O21 2.268 . S
In13 O22 2.326 . S
In13 O24 2.294 . S
In13 O25 2.325 1_455 S
O14 In13 2.293 1_655 S
O14 C23 1.240 1_655 S
O15 In13 2.327 . S
O15 C23 1.252 . S
C16 O19 1.252 . S
C16 O20 1.260 . S
C17 O24 1.240 1_655 S
C17 O25 1.252 . S
C18 O21 1.252 . S
C18 O22 1.260 . S
O19 In13 2.265 1_655 S
O19 C16 1.252 . S
O20 In13 2.325 1_655 S
O20 C16 1.260 . S
O21 In13 2.268 . S
O21 C18 1.252 . S
O22 In13 2.326 . S
O22 C18 1.260 . S
C23 O14 1.240 1_455 S
C23 O15 1.252 . S
O24 In13 2.294 . S
O24 C17 1.240 1_455 S
O25 In13 2.325 1_655 S
O25 C17 1.252 . S
In26 O27 2.294 . S
In26 O28 2.326 . S
In26 O32 2.266 . S
In26 O33 2.326 . S
In26 O34 2.266 . S
In26 O35 2.326 . S
In26 O37 2.294 . S
In26 O38 2.326 . S
O27 In26 2.294 . S
O27 C36 1.240 . S
O28 In26 2.326 . S
O28 C36 1.252 . S
C29 O32 1.252 . S
C29 O33 1.260 . S
C30 O37 1.240 . S
C30 O38 1.252 . S
C31 O34 1.252 . S
C31 O35 1.260 . S
O32 In26 2.266 . S
O32 C29 1.252 . S
O33 In26 2.326 . S
O33 C29 1.260 . S
O34 In26 2.266 . S
O34 C31 1.252 . S
O35 In26 2.326 . S
O35 C31 1.260 . S
C36 O27 1.240 . S
C36 O28 1.252 . S
O37 In26 2.294 . S
O37 C30 1.240 . S
O38 In26 2.326 . S
O38 C30 1.252 . S
In39 O40 2.294 . S
In39 O41 2.326 . S
In39 O45 2.266 . S
In39 O46 2.326 . S
In39 O47 2.266 . S
In39 O48 2.326 . S
In39 O50 2.294 . S
In39 O51 2.326 . S
O40 In39 2.294 . S
O40 C49 1.240 . S
O41 In39 2.326 . S
O41 C49 1.252 . S
C42 O45 1.252 . S
C42 O46 1.260 . S
C43 O50 1.240 . S
C43 O51 1.252 . S
C44 O47 1.252 . S
C44 O48 1.260 . S
O45 In39 2.266 . S
O45 C42 1.252 . S
O46 In39 2.326 . S
O46 C42 1.260 . S
O47 In39 2.266 . S
O47 C44 1.252 . S
O48 In39 2.326 . S
O48 C44 1.260 . S
C49 O40 1.240 . S
C49 O41 1.252 . S
O50 In39 2.294 . S
O50 C43 1.240 . S
O51 In39 2.326 . S
O51 C43 1.252 . S
In52 O53 2.294 1_545 S
In52 O54 2.326 1_545 S
In52 O58 2.266 1_545 S
In52 O59 2.326 . S
In52 O60 2.266 . S
In52 O61 2.326 1_545 S
In52 O63 2.294 . S
In52 O64 2.326 . S
O53 In52 2.294 1_565 S
O53 C62 1.240 . S
O54 In52 2.326 1_565 S
O54 C62 1.252 . S
C55 O58 1.252 1_545 S
C55 O59 1.260 . S
C56 O63 1.240 . S
C56 O64 1.252 . S
C57 O60 1.252 1_565 S
C57 O61 1.260 . S
O58 In52 2.266 1_565 S
O58 C55 1.252 1_565 S
O59 In52 2.326 . S
O59 C55 1.260 . S
O60 In52 2.266 . S
O60 C57 1.252 1_545 S
O61 In52 2.326 1_565 S
O61 C57 1.260 . S
C62 O53 1.240 . S
C62 O54 1.252 . S
O63 In52 2.294 . S
O63 C56 1.240 . S
O64 In52 2.326 . S
O64 C56 1.252 . S
In65 O66 2.294 . S
In65 O67 2.326 . S
In65 O71 2.266 . S
In65 O72 2.326 . S
In65 O73 2.266 . S
In65 O74 2.326 . S
In65 O76 2.294 . S
In65 O77 2.326 . S
O66 In65 2.294 . S
O66 C75 1.240 . S
O67 In65 2.326 . S
O67 C75 1.252 . S
C68 O71 1.252 . S
C68 O72 1.260 . S
C69 O76 1.240 . S
C69 O77 1.252 . S
C70 O73 1.252 . S
C70 O74 1.260 . S
O71 In65 2.266 . S
O71 C68 1.252 . S
O72 In65 2.326 . S
O72 C68 1.260 . S
O73 In65 2.266 . S
O73 C70 1.252 . S
O74 In65 2.326 . S
O74 C70 1.260 . S
C75 O66 1.240 . S
C75 O67 1.252 . S
O76 In65 2.294 . S
O76 C69 1.240 . S
O77 In65 2.326 . S
O77 C69 1.252 . S
In78 O79 2.289 1_545 S
In78 O80 2.324 1_545 S
In78 O84 2.264 1_545 S
In78 O85 2.329 . S
In78 O86 2.268 . S
In78 O87 2.322 1_545 S
In78 O89 2.299 . S
In78 O90 2.329 . S
O79 In78 2.289 1_565 S
O79 C88 1.240 . S
O80 In78 2.324 1_565 S
O80 C88 1.252 . S
C81 O84 1.252 1_545 S
C81 O85 1.260 . S
C82 O89 1.240 . S
C82 O90 1.252 . S
C83 O86 1.252 1_565 S
C83 O87 1.260 . S
O84 In78 2.264 1_565 S
O84 C81 1.252 1_565 S
O85 In78 2.329 . S
O85 C81 1.260 . S
O86 In78 2.268 . S
O86 C83 1.252 1_545 S
O87 In78 2.322 1_565 S
O87 C83 1.260 . S
C88 O79 1.240 . S
C88 O80 1.252 . S
O89 In78 2.299 . S
O89 C82 1.240 . S
O90 In78 2.329 . S
O90 C82 1.252 . S
In91 O92 2.294 . S
In91 O93 2.326 . S
In91 O97 2.266 . S
In91 O98 2.326 1_554 S
In91 O99 2.266 1_554 S
In91 O100 2.326 . S
In91 O102 2.294 1_554 S
In91 O103 2.326 1_554 S
O92 In91 2.294 . S
O92 C101 1.240 . S
O93 In91 2.326 . S
O93 C101 1.252 . S
C94 O97 1.252 1_556 S
C94 O98 1.260 . S
C95 O102 1.240 . S
C95 O103 1.252 . S
C96 O99 1.252 1_554 S
C96 O100 1.260 . S
O97 In91 2.266 . S
O97 C94 1.252 1_554 S
O98 In91 2.326 1_556 S
O98 C94 1.260 . S
O99 In91 2.266 1_556 S
O99 C96 1.252 1_556 S
O100 In91 2.326 . S
O100 C96 1.260 . S
C101 O92 1.240 . S
C101 O93 1.252 . S
O102 In91 2.294 1_556 S
O102 C95 1.240 . S
O103 In91 2.326 1_556 S
O103 C95 1.252 . S
In104 O105 2.297 . S
In104 O106 2.328 . S
In104 O110 2.267 . S
In104 O111 2.323 1_554 S
In104 O112 2.265 1_554 S
In104 O113 2.328 . S
In104 O115 2.291 1_554 S
In104 O116 2.325 1_554 S
O105 In104 2.297 . S
O105 C114 1.240 . S
O106 In104 2.328 . S
O106 C114 1.252 . S
C107 O110 1.252 1_556 S
C107 O111 1.260 . S
C108 O115 1.240 . S
C108 O116 1.252 . S
C109 O112 1.252 1_554 S
C109 O113 1.260 . S
O110 In104 2.267 . S
O110 C107 1.252 1_554 S
O111 In104 2.323 1_556 S
O111 C107 1.260 . S
O112 In104 2.265 1_556 S
O112 C109 1.252 1_556 S
O113 In104 2.328 . S
O113 C109 1.260 . S
C114 O105 1.240 . S
C114 O106 1.252 . S
O115 In104 2.291 1_556 S
O115 C108 1.240 . S
O116 In104 2.325 1_556 S
O116 C108 1.252 . S
In117 O118 2.294 . S
In117 O119 2.326 . S
In117 O123 2.266 . S
In117 O124 2.326 . S
In117 O125 2.266 . S
In117 O126 2.326 . S
In117 O128 2.294 . S
In117 O129 2.326 . S
O118 In117 2.294 . S
O118 C127 1.240 . S
O119 In117 2.326 . S
O119 C127 1.252 . S
C120 O123 1.252 . S
C120 O124 1.260 . S
C121 O128 1.240 . S
C121 O129 1.252 . S
C122 O125 1.252 . S
C122 O126 1.260 . S
O123 In117 2.266 . S
O123 C120 1.252 . S
O124 In117 2.326 . S
O124 C120 1.260 . S
O125 In117 2.266 . S
O125 C122 1.252 . S
O126 In117 2.326 . S
O126 C122 1.260 . S
C127 O118 1.240 . S
C127 O119 1.252 . S
O128 In117 2.294 . S
O128 C121 1.240 . S
O129 In117 2.326 . S
O129 C121 1.252 . S
In130 O131 2.294 . S
In130 O132 2.326 . S
In130 O136 2.266 . S
In130 O137 2.326 . S
In130 O138 2.266 . S
In130 O139 2.326 . S
In130 O141 2.294 . S
In130 O142 2.326 . S
O131 In130 2.294 . S
O131 C140 1.240 . S
O132 In130 2.326 . S
O132 C140 1.252 . S
C133 O136 1.252 . S
C133 O137 1.260 . S
C134 O141 1.240 . S
C134 O142 1.252 . S
C135 O138 1.252 . S
C135 O139 1.260 . S
O136 In130 2.266 . S
O136 C133 1.252 . S
O137 In130 2.326 . S
O137 C133 1.260 . S
O138 In130 2.266 . S
O138 C135 1.252 . S
O139 In130 2.326 . S
O139 C135 1.260 . S
C140 O131 1.240 . S
C140 O132 1.252 . S
O141 In130 2.294 . S
O141 C134 1.240 . S
O142 In130 2.326 . S
O142 C134 1.252 . S
In143 O144 2.294 . S
In143 O145 2.326 . S
In143 O149 2.266 . S
In143 O150 2.326 . S
In143 O151 2.266 . S
In143 O152 2.326 . S
In143 O154 2.294 . S
In143 O155 2.326 . S
O144 In143 2.294 . S
O144 C153 1.240 . S
O145 In143 2.326 . S
O145 C153 1.252 . S
C146 O149 1.252 . S
C146 O150 1.260 . S
C147 O154 1.240 . S
C147 O155 1.252 . S
C148 O151 1.252 . S
C148 O152 1.260 . S
O149 In143 2.266 . S
O149 C146 1.252 . S
O150 In143 2.326 . S
O150 C146 1.260 . S
O151 In143 2.266 . S
O151 C148 1.252 . S
O152 In143 2.326 . S
O152 C148 1.260 . S
C153 O144 1.240 . S
C153 O145 1.252 . S
O154 In143 2.294 . S
O154 C147 1.240 . S
O155 In143 2.326 . S
O155 C147 1.252 . S
H156 C162 0.930 . S
H157 C165 0.931 . S
H158 C167 0.931 . S
H159 C169 0.930 . S
H160 C171 0.930 . S
H161 C173 0.931 . S
C162 H156 0.930 . S
C162 C163 1.380 . S
C162 C164 1.394 . S
C163 C162 1.380 . S
C163 C167 1.382 . S
C164 C162 1.394 . S
C164 C165 1.400 . S
C165 H157 0.931 . S
C165 C164 1.400 . S
C165 C166 1.375 . S
C166 C165 1.375 . S
C166 C167 1.415 . S
C166 C168 1.501 1_655 S
C167 H158 0.931 . S
C167 C163 1.382 . S
C167 C166 1.415 . S
C168 C166 1.501 1_455 S
C168 C169 1.384 . S
C168 C173 1.408 . S
C169 H159 0.930 . S
C169 C168 1.384 . S
C169 C170 1.389 . S
C170 C169 1.389 . S
C170 C171 1.405 . S
C171 H160 0.930 . S
C171 C170 1.405 . S
C171 C172 1.364 . S
C172 C171 1.364 . S
C172 C173 1.400 . S
C173 H161 0.931 . S
C173 C168 1.408 . S
C173 C172 1.400 . S
H174 C180 0.930 . S
H175 C183 0.931 . S
H176 C185 0.931 . S
H177 C187 0.930 . S
H178 C189 0.930 . S
H179 C191 0.931 . S
C180 H174 0.930 . S
C180 C181 1.380 . S
C180 C182 1.394 . S
C181 C180 1.380 . S
C181 C185 1.382 . S
C182 C180 1.394 . S
C182 C183 1.400 . S
C183 H175 0.931 . S
C183 C182 1.400 . S
C183 C184 1.375 . S
C184 C183 1.375 . S
C184 C185 1.415 . S
C184 C186 1.501 1_655 S
C185 H176 0.931 . S
C185 C181 1.382 . S
C185 C184 1.415 . S
C186 C184 1.501 1_455 S
C186 C187 1.384 . S
C186 C191 1.408 . S
C187 H177 0.930 . S
C187 C186 1.384 . S
C187 C188 1.389 . S
C188 C187 1.389 . S
C188 C189 1.405 . S
C189 H178 0.930 . S
C189 C188 1.405 . S
C189 C190 1.364 . S
C190 C189 1.364 . S
C190 C191 1.400 . S
C191 H179 0.931 . S
C191 C186 1.408 . S
C191 C190 1.400 . S
H192 C198 0.930 . S
H193 C201 0.931 . S
H194 C203 0.931 . S
H195 C205 0.930 . S
H196 C207 0.930 . S
H197 C209 0.931 . S
C198 H192 0.930 . S
C198 C199 1.380 . S
C198 C200 1.394 . S
C199 C198 1.380 . S
C199 C203 1.382 . S
C200 C198 1.394 . S
C200 C201 1.400 . S
C201 H193 0.931 . S
C201 C200 1.400 . S
C201 C202 1.375 . S
C202 C201 1.375 . S
C202 C203 1.415 . S
C202 C204 1.501 . S
C203 H194 0.931 . S
C203 C199 1.382 . S
C203 C202 1.415 . S
C204 C202 1.501 . S
C204 C205 1.384 . S
C204 C209 1.408 . S
C205 H195 0.930 . S
C205 C204 1.384 . S
C205 C206 1.389 . S
C206 C205 1.389 . S
C206 C207 1.405 . S
C207 H196 0.930 . S
C207 C206 1.405 . S
C207 C208 1.364 . S
C208 C207 1.364 . S
C208 C209 1.400 . S
C209 H197 0.931 . S
C209 C204 1.408 . S
C209 C208 1.400 . S
H210 C216 0.930 . S
H211 C219 0.931 . S
H212 C221 0.931 . S
H213 C223 0.930 . S
H214 C225 0.930 . S
H215 C227 0.931 . S
C216 H210 0.930 . S
C216 C217 1.380 . S
C216 C218 1.394 . S
C217 C216 1.380 . S
C217 C221 1.382 . S
C218 C216 1.394 . S
C218 C219 1.400 . S
C219 H211 0.931 . S
C219 C218 1.400 . S
C219 C220 1.375 . S
C220 C219 1.375 . S
C220 C221 1.415 . S
C220 C222 1.501 . S
C221 H212 0.931 . S
C221 C217 1.382 . S
C221 C220 1.415 . S
C222 C220 1.501 . S
C222 C223 1.384 . S
C222 C227 1.408 . S
C223 H213 0.930 . S
C223 C222 1.384 . S
C223 C224 1.389 . S
C224 C223 1.389 . S
C224 C225 1.405 . S
C225 H214 0.930 . S
C225 C224 1.405 . S
C225 C226 1.364 . S
C226 C225 1.364 . S
C226 C227 1.400 . S
C227 H215 0.931 . S
C227 C222 1.408 . S
C227 C226 1.400 . S
H228 C234 0.930 . S
H229 C237 0.931 . S
H230 C239 0.931 . S
H231 C241 0.930 . S
H232 C243 0.930 . S
H233 C245 0.931 . S
C234 H228 0.930 . S
C234 C235 1.380 . S
C234 C236 1.394 . S
C235 C234 1.380 . S
C235 C239 1.382 . S
C236 C234 1.394 . S
C236 C237 1.400 . S
C237 H229 0.931 . S
C237 C236 1.400 . S
C237 C238 1.375 . S
C238 C237 1.375 . S
C238 C239 1.415 . S
C238 C240 1.501 1_565 S
C239 H230 0.931 . S
C239 C235 1.382 . S
C239 C238 1.415 . S
C240 C238 1.501 1_545 S
C240 C241 1.384 . S
C240 C245 1.408 . S
C241 H231 0.930 . S
C241 C240 1.384 . S
C241 C242 1.389 . S
C242 C241 1.389 . S
C242 C243 1.405 . S
C243 H232 0.930 . S
C243 C242 1.405 . S
C243 C244 1.364 . S
C244 C243 1.364 . S
C244 C245 1.400 . S
C245 H233 0.931 . S
C245 C240 1.408 . S
C245 C244 1.400 . S
H246 C252 0.930 . S
H247 C255 0.931 . S
H248 C257 0.931 . S
H249 C259 0.930 . S
H250 C261 0.930 . S
H251 C263 0.931 . S
C252 H246 0.930 . S
C252 C253 1.380 . S
C252 C254 1.394 . S
C253 C252 1.380 . S
C253 C257 1.382 . S
C254 C252 1.394 . S
C254 C255 1.400 . S
C255 H247 0.931 . S
C255 C254 1.400 . S
C255 C256 1.375 . S
C256 C255 1.375 . S
C256 C257 1.415 . S
C256 C258 1.501 . S
C257 H248 0.931 . S
C257 C253 1.382 . S
C257 C256 1.415 . S
C258 C256 1.501 . S
C258 C259 1.384 . S
C258 C263 1.408 . S
C259 H249 0.930 . S
C259 C258 1.384 . S
C259 C260 1.389 . S
C260 C259 1.389 . S
C260 C261 1.405 . S
C261 H250 0.930 . S
C261 C260 1.405 . S
C261 C262 1.364 . S
C262 C261 1.364 . S
C262 C263 1.400 . S
C263 H251 0.931 . S
C263 C258 1.408 . S
C263 C262 1.400 . S
H264 C270 0.930 . S
H265 C273 0.931 . S
H266 C275 0.931 . S
H267 C277 0.930 . S
H268 C279 0.930 . S
H269 C281 0.931 . S
C270 H264 0.930 . S
C270 C271 1.380 . S
C270 C272 1.394 . S
C271 C270 1.380 . S
C271 C275 1.382 . S
C272 C270 1.394 . S
C272 C273 1.400 . S
C273 H265 0.931 . S
C273 C272 1.400 . S
C273 C274 1.375 . S
C274 C273 1.375 . S
C274 C275 1.415 . S
C274 C276 1.501 1_545 S
C275 H266 0.931 . S
C275 C271 1.382 . S
C275 C274 1.415 . S
C276 C274 1.501 1_565 S
C276 C277 1.384 . S
C276 C281 1.408 . S
C277 H267 0.930 . S
C277 C276 1.384 . S
C277 C278 1.389 . S
C278 C277 1.389 . S
C278 C279 1.405 . S
C279 H268 0.930 . S
C279 C278 1.405 . S
C279 C280 1.364 . S
C280 C279 1.364 . S
C280 C281 1.400 . S
C281 H269 0.931 . S
C281 C276 1.408 . S
C281 C280 1.400 . S
H282 C288 0.930 . S
H283 C291 0.931 . S
H284 C293 0.931 . S
H285 C295 0.930 . S
H286 C297 0.930 . S
H287 C299 0.931 . S
C288 H282 0.930 . S
C288 C289 1.380 . S
C288 C290 1.394 . S
C289 C288 1.380 . S
C289 C293 1.382 . S
C290 C288 1.394 . S
C290 C291 1.400 . S
C291 H283 0.931 . S
C291 C290 1.400 . S
C291 C292 1.375 . S
C292 C291 1.375 . S
C292 C293 1.415 . S
C292 C294 1.501 1_556 S
C293 H284 0.931 . S
C293 C289 1.382 . S
C293 C292 1.415 . S
C294 C292 1.501 1_554 S
C294 C295 1.384 . S
C294 C299 1.408 . S
C295 H285 0.930 . S
C295 C294 1.384 . S
C295 C296 1.389 . S
C296 C295 1.389 . S
C296 C297 1.405 . S
C297 H286 0.930 . S
C297 C296 1.405 . S
C297 C298 1.364 . S
C298 C297 1.364 . S
C298 C299 1.400 . S
C299 H287 0.931 . S
C299 C294 1.408 . S
C299 C298 1.400 . S
H300 C306 0.930 . S
H301 C309 0.931 . S
H302 C311 0.931 . S
H303 C313 0.930 . S
H304 C315 0.930 . S
H305 C317 0.931 . S
C306 H300 0.930 . S
C306 C307 1.380 . S
C306 C308 1.394 . S
C307 C306 1.380 . S
C307 C311 1.382 . S
C308 C306 1.394 . S
C308 C309 1.400 . S
C309 H301 0.931 . S
C309 C308 1.400 . S
C309 C310 1.375 . S
C310 C309 1.375 . S
C310 C311 1.415 . S
C310 C312 1.501 1_556 S
C311 H302 0.931 . S
C311 C307 1.382 . S
C311 C310 1.415 . S
C312 C310 1.501 1_554 S
C312 C313 1.384 . S
C312 C317 1.408 . S
C313 H303 0.930 . S
C313 C312 1.384 . S
C313 C314 1.389 . S
C314 C313 1.389 . S
C314 C315 1.405 . S
C315 H304 0.930 . S
C315 C314 1.405 . S
C315 C316 1.364 . S
C316 C315 1.364 . S
C316 C317 1.400 . S
C317 H305 0.931 . S
C317 C312 1.408 . S
C317 C316 1.400 . S
H318 C324 0.930 . S
H319 C327 0.931 . S
H320 C329 0.931 . S
H321 C331 0.930 . S
H322 C333 0.930 . S
H323 C335 0.931 . S
C324 H318 0.930 . S
C324 C325 1.380 . S
C324 C326 1.394 . S
C325 C324 1.380 . S
C325 C329 1.382 . S
C326 C324 1.394 . S
C326 C327 1.400 . S
C327 H319 0.931 . S
C327 C326 1.400 . S
C327 C328 1.375 . S
C328 C327 1.375 . S
C328 C329 1.415 . S
C328 C330 1.501 . S
C329 H320 0.931 . S
C329 C325 1.382 . S
C329 C328 1.415 . S
C330 C328 1.501 . S
C330 C331 1.384 . S
C330 C335 1.408 . S
C331 H321 0.930 . S
C331 C330 1.384 . S
C331 C332 1.389 . S
C332 C331 1.389 . S
C332 C333 1.405 . S
C333 H322 0.930 . S
C333 C332 1.405 . S
C333 C334 1.364 . S
C334 C333 1.364 . S
C334 C335 1.400 . S
C335 H323 0.931 . S
C335 C330 1.408 . S
C335 C334 1.400 . S
H336 C342 0.930 . S
H337 C345 0.931 . S
H338 C347 0.931 . S
H339 C349 0.930 . S
H340 C351 0.930 . S
H341 C353 0.931 . S
C342 H336 0.930 . S
C342 C343 1.380 . S
C342 C344 1.394 . S
C343 C342 1.380 . S
C343 C347 1.382 . S
C344 C342 1.394 . S
C344 C345 1.400 . S
C345 H337 0.931 . S
C345 C344 1.400 . S
C345 C346 1.375 . S
C346 C345 1.375 . S
C346 C347 1.415 . S
C346 C348 1.501 . S
C347 H338 0.931 . S
C347 C343 1.382 . S
C347 C346 1.415 . S
C348 C346 1.501 . S
C348 C349 1.384 . S
C348 C353 1.408 . S
C349 H339 0.930 . S
C349 C348 1.384 . S
C349 C350 1.389 . S
C350 C349 1.389 . S
C350 C351 1.405 . S
C351 H340 0.930 . S
C351 C350 1.405 . S
C351 C352 1.364 . S
C352 C351 1.364 . S
C352 C353 1.400 . S
C353 H341 0.931 . S
C353 C348 1.408 . S
C353 C352 1.400 . S
H354 C360 0.930 . S
H355 C363 0.931 . S
H356 C365 0.931 . S
H357 C367 0.930 . S
H358 C369 0.930 . S
H359 C371 0.931 . S
C360 H354 0.930 . S
C360 C361 1.380 . S
C360 C362 1.394 . S
C361 C360 1.380 . S
C361 C365 1.382 . S
C362 C360 1.394 . S
C362 C363 1.400 . S
C363 H355 0.931 . S
C363 C362 1.400 . S
C363 C364 1.375 . S
C364 C363 1.375 . S
C364 C365 1.415 . S
C364 C366 1.501 . S
C365 H356 0.931 . S
C365 C361 1.382 . S
C365 C364 1.415 . S
C366 C364 1.501 . S
C366 C367 1.384 . S
C366 C371 1.408 . S
C367 H357 0.930 . S
C367 C366 1.384 . S
C367 C368 1.389 . S
C368 C367 1.389 . S
C368 C369 1.405 . S
C369 H358 0.930 . S
C369 C368 1.405 . S
C369 C370 1.364 . S
C370 C369 1.364 . S
C370 C371 1.400 . S
C371 H359 0.931 . S
C371 C366 1.408 . S
C371 C370 1.400 . S
C372 C373 1.387 . S
C372 H376 0.950 . S
C372 C381 1.390 . S
C373 C372 1.387 . S
C373 C375 1.387 . S
H374 C381 0.950 . S
C375 C373 1.387 . S
C375 C377 1.390 . S
C375 H379 0.950 1_556 S
H376 C372 0.950 . S
C377 C375 1.390 . S
C377 C378 1.387 . S
C377 H380 0.950 . S
C378 C377 1.387 . S
C378 C381 1.387 . S
H379 C375 0.950 1_554 S
H380 C377 0.950 . S
C381 C372 1.390 . S
C381 H374 0.950 . S
C381 C378 1.387 . S
C382 C383 1.387 . S
C382 H386 0.950 . S
C382 C391 1.390 . S
C383 C382 1.387 . S
C383 C385 1.387 . S
H384 C391 0.950 . S
C385 C383 1.387 . S
C385 C387 1.390 . S
C385 H389 0.950 . S
H386 C382 0.950 . S
C387 C385 1.390 . S
C387 C388 1.387 . S
C387 H390 0.950 . S
C388 C387 1.387 . S
C388 C391 1.387 . S
H389 C385 0.950 . S
H390 C387 0.950 . S
C391 C382 1.390 . S
C391 H384 0.950 . S
C391 C388 1.387 . S
C392 C393 1.387 . S
C392 H396 0.950 . S
C392 C401 1.390 . S
C393 C392 1.387 . S
C393 C395 1.387 . S
H394 C401 0.950 . S
C395 C393 1.387 . S
C395 C397 1.390 . S
C395 H399 0.950 . S
H396 C392 0.950 . S
C397 C395 1.390 . S
C397 C398 1.387 . S
C397 H400 0.950 . S
C398 C397 1.387 . S
C398 C401 1.387 . S
H399 C395 0.950 . S
H400 C397 0.950 . S
C401 C392 1.390 . S
C401 H394 0.950 . S
C401 C398 1.387 . S
C402 C403 1.387 . S
C402 H406 0.950 . S
C402 C411 1.390 . S
C403 C402 1.387 . S
C403 C405 1.387 . S
H404 C411 0.950 . S
C405 C403 1.387 . S
C405 C407 1.390 . S
C405 H409 0.950 . S
H406 C402 0.950 . S
C407 C405 1.390 . S
C407 C408 1.387 . S
C407 H410 0.950 . S
C408 C407 1.387 . S
C408 C411 1.387 . S
H409 C405 0.950 . S
H410 C407 0.950 . S
C411 C402 1.390 . S
C411 H404 0.950 . S
C411 C408 1.387 . S
C412 C413 1.387 1_655 S
C412 H416 0.950 . S
C412 C421 1.390 . S
C413 C412 1.387 1_455 S
C413 C415 1.387 . S
H414 C421 0.950 . S
C415 C413 1.387 . S
C415 C417 1.390 . S
C415 H419 0.950 . S
H416 C412 0.950 . S
C417 C415 1.390 . S
C417 C418 1.387 . S
C417 H420 0.950 . S
C418 C417 1.387 . S
C418 C421 1.387 1_455 S
H419 C415 0.950 . S
H420 C417 0.950 . S
C421 C412 1.390 . S
C421 H414 0.950 . S
C421 C418 1.387 1_655 S
C422 C423 1.387 . S
C422 H426 0.950 . S
C422 C431 1.390 . S
C423 C422 1.387 . S
C423 C425 1.387 . S
H424 C431 0.950 . S
C425 C423 1.387 . S
C425 C427 1.390 . S
C425 H429 0.950 . S
H426 C422 0.950 . S
C427 C425 1.390 . S
C427 C428 1.387 . S
C427 H430 0.950 . S
C428 C427 1.387 . S
C428 C431 1.387 . S
H429 C425 0.950 . S
H430 C427 0.950 . S
C431 C422 1.390 . S
C431 H424 0.950 . S
C431 C428 1.387 . S
C432 C433 1.387 . S
C432 H436 0.950 . S
C432 C441 1.390 . S
C433 C432 1.387 . S
C433 C435 1.387 . S
H434 C441 0.950 . S
C435 C433 1.387 . S
C435 C437 1.390 . S
C435 H439 0.950 . S
H436 C432 0.950 . S
C437 C435 1.390 . S
C437 C438 1.387 . S
C437 H440 0.950 . S
C438 C437 1.387 . S
C438 C441 1.387 . S
H439 C435 0.950 . S
H440 C437 0.950 . S
C441 C432 1.390 . S
C441 H434 0.950 . S
C441 C438 1.387 . S
C442 C443 1.387 . S
C442 H446 0.950 . S
C442 C451 1.390 . S
C443 C442 1.387 . S
C443 C445 1.387 . S
H444 C451 0.950 . S
C445 C443 1.387 . S
C445 C447 1.390 . S
C445 H449 0.950 . S
H446 C442 0.950 . S
C447 C445 1.390 . S
C447 C448 1.387 . S
C447 H450 0.950 . S
C448 C447 1.387 . S
C448 C451 1.387 . S
H449 C445 0.950 . S
H450 C447 0.950 . S
C451 C442 1.390 . S
C451 H444 0.950 . S
C451 C448 1.387 . S
C452 C453 1.387 . S
C452 H456 0.950 . S
C452 C461 1.390 . S
C453 C452 1.387 . S
C453 C455 1.387 1_545 S
H454 C461 0.950 . S
C455 C453 1.387 1_565 S
C455 C457 1.390 . S
C455 H459 0.950 . S
H456 C452 0.950 . S
C457 C455 1.390 . S
C457 C458 1.387 1_565 S
C457 H460 0.950 . S
C458 C457 1.387 1_545 S
C458 C461 1.387 . S
H459 C455 0.950 . S
H460 C457 0.950 . S
C461 C452 1.390 . S
C461 H454 0.950 . S
C461 C458 1.387 . S
C462 C463 1.387 . S
C462 H466 0.950 . S
C462 C471 1.390 . S
C463 C462 1.387 . S
C463 C465 1.387 . S
H464 C471 0.950 . S
C465 C463 1.387 . S
C465 C467 1.390 . S
C465 H469 0.950 . S
H466 C462 0.950 . S
C467 C465 1.390 . S
C467 C468 1.387 . S
C467 H470 0.950 . S
C468 C467 1.387 . S
C468 C471 1.387 . S
H469 C465 0.950 . S
H470 C467 0.950 . S
C471 C462 1.390 . S
C471 H464 0.950 . S
C471 C468 1.387 . S
C472 C473 1.387 . S
C472 H476 0.950 . S
C472 C481 1.390 . S
C473 C472 1.387 . S
C473 C475 1.387 1_565 S
H474 C481 0.950 . S
C475 C473 1.387 1_545 S
C475 C477 1.390 . S
C475 H479 0.950 . S
H476 C472 0.950 . S
C477 C475 1.390 . S
C477 C478 1.387 1_545 S
C477 H480 0.950 . S
C478 C477 1.387 1_565 S
C478 C481 1.387 . S
H479 C475 0.950 . S
H480 C477 0.950 . S
C481 C472 1.390 . S
C481 H474 0.950 . S
C481 C478 1.387 . S
C482 C483 1.387 . S
C482 H486 0.950 . S
C482 C491 1.390 . S
C483 C482 1.387 . S
C483 C485 1.387 . S
H484 C491 0.950 . S
C485 C483 1.387 . S
C485 C487 1.390 . S
C485 H489 0.950 . S
H486 C482 0.950 . S
C487 C485 1.390 . S
C487 C488 1.387 . S
C487 H490 0.950 . S
C488 C487 1.387 . S
C488 C491 1.387 . S
H489 C485 0.950 . S
H490 C487 0.950 . S
C491 C482 1.390 . S
C491 H484 0.950 . S
C491 C488 1.387 . S
C492 C493 1.387 . S
C492 H496 0.950 . S
C492 C501 1.390 . S
C493 C492 1.387 . S
C493 C495 1.387 . S
H494 C501 0.950 . S
C495 C493 1.387 . S
C495 C497 1.390 . S
C495 H499 0.950 1_655 S
H496 C492 0.950 . S
C497 C495 1.390 . S
C497 C498 1.387 . S
C497 H500 0.950 . S
C498 C497 1.387 . S
C498 C501 1.387 . S
H499 C495 0.950 1_455 S
H500 C497 0.950 . S
C501 C492 1.390 . S
C501 H494 0.950 . S
C501 C498 1.387 . S
C502 C503 1.387 . S
C502 H506 0.950 . S
C502 C511 1.390 . S
C503 C502 1.387 . S
C503 C505 1.387 . S
H504 C511 0.950 . S
C505 C503 1.387 . S
C505 C507 1.390 . S
C505 H509 0.950 . S
H506 C502 0.950 . S
C507 C505 1.390 . S
C507 C508 1.387 . S
C507 H510 0.950 . S
C508 C507 1.387 . S
C508 C511 1.387 . S
H509 C505 0.950 . S
H510 C507 0.950 . S
C511 C502 1.390 . S
C511 H504 0.950 . S
C511 C508 1.387 . S
C512 C513 1.387 . S
C512 H516 0.950 . S
C512 C521 1.390 . S
C513 C512 1.387 . S
C513 C515 1.387 1_545 S
H514 C521 0.950 . S
C515 C513 1.387 1_565 S
C515 C517 1.390 . S
C515 H519 0.950 . S
H516 C512 0.950 . S
C517 C515 1.390 . S
C517 C518 1.387 1_565 S
C517 H520 0.950 . S
C518 C517 1.387 1_545 S
C518 C521 1.387 . S
H519 C515 0.950 . S
H520 C517 0.950 . S
C521 C512 1.390 . S
C521 H514 0.950 . S
C521 C518 1.387 . S
C522 C523 1.387 . S
C522 H526 0.950 . S
C522 C531 1.390 . S
C523 C522 1.387 . S
C523 C525 1.387 . S
H524 C531 0.950 . S
C525 C523 1.387 . S
C525 C527 1.390 . S
C525 H529 0.950 . S
H526 C522 0.950 . S
C527 C525 1.390 . S
C527 C528 1.387 . S
C527 H530 0.950 . S
C528 C527 1.387 . S
C528 C531 1.387 . S
H529 C525 0.950 . S
H530 C527 0.950 . S
C531 C522 1.390 . S
C531 H524 0.950 . S
C531 C528 1.387 . S
C532 C533 1.387 . S
C532 H536 0.950 . S
C532 C541 1.390 . S
C533 C532 1.387 . S
C533 C535 1.387 1_554 S
H534 C541 0.950 . S
C535 C533 1.387 1_556 S
C535 C537 1.390 . S
C535 H539 0.950 . S
H536 C532 0.950 . S
C537 C535 1.390 . S
C537 C538 1.387 1_556 S
C537 H540 0.950 . S
C538 C537 1.387 1_554 S
C538 C541 1.387 . S
H539 C535 0.950 . S
H540 C537 0.950 . S
C541 C532 1.390 . S
C541 H534 0.950 . S
C541 C538 1.387 . S
C542 C543 1.387 . S
C542 H546 0.950 . S
C542 C551 1.390 . S
C543 C542 1.387 . S
C543 C545 1.387 1_556 S
H544 C551 0.950 . S
C545 C543 1.387 1_554 S
C545 C547 1.390 . S
C545 H549 0.950 . S
H546 C542 0.950 . S
C547 C545 1.390 . S
C547 C548 1.387 1_554 S
C547 H550 0.950 . S
C548 C547 1.387 1_556 S
C548 C551 1.387 . S
H549 C545 0.950 . S
H550 C547 0.950 . S
C551 C542 1.390 . S
C551 H544 0.950 . S
C551 C548 1.387 . S
C552 C553 1.387 . S
C552 H556 0.950 . S
C552 C561 1.390 . S
C553 C552 1.387 . S
C553 C555 1.387 . S
H554 C561 0.950 . S
C555 C553 1.387 . S
C555 C557 1.390 . S
C555 H559 0.950 . S
H556 C552 0.950 . S
C557 C555 1.390 . S
C557 C558 1.387 . S
C557 H560 0.950 . S
C558 C557 1.387 . S
C558 C561 1.387 . S
H559 C555 0.950 . S
H560 C557 0.950 . S
C561 C552 1.390 . S
C561 H554 0.950 . S
C561 C558 1.387 . S
C562 C563 1.387 . S
C562 H566 0.950 . S
C562 C571 1.390 . S
C563 C562 1.387 . S
C563 C565 1.387 . S
H564 C571 0.950 . S
C565 C563 1.387 . S
C565 C567 1.390 . S
C565 H569 0.950 . S
H566 C562 0.950 . S
C567 C565 1.390 . S
C567 C568 1.387 . S
C567 H570 0.950 . S
C568 C567 1.387 . S
C568 C571 1.387 . S
H569 C565 0.950 . S
H570 C567 0.950 . S
C571 C562 1.390 . S
C571 H564 0.950 . S
C571 C568 1.387 . S
C572 C573 1.387 . S
C572 H576 0.950 . S
C572 C581 1.390 . S
C573 C572 1.387 . S
C573 C575 1.387 . S
H574 C581 0.950 . S
C575 C573 1.387 . S
C575 C577 1.390 . S
C575 H579 0.950 . S
H576 C572 0.950 . S
C577 C575 1.390 . S
C577 C578 1.387 . S
C577 H580 0.950 . S
C578 C577 1.387 . S
C578 C581 1.387 . S
H579 C575 0.950 . S
H580 C577 0.950 . S
C581 C572 1.390 . S
C581 H574 0.950 . S
C581 C578 1.387 . S
C582 C583 1.387 . S
C582 H586 0.950 . S
C582 C591 1.390 . S
C583 C582 1.387 . S
C583 C585 1.387 . S
H584 C591 0.950 . S
C585 C583 1.387 . S
C585 C587 1.390 . S
C585 H589 0.950 . S
H586 C582 0.950 . S
C587 C585 1.390 . S
C587 C588 1.387 . S
C587 H590 0.950 . S
C588 C587 1.387 . S
C588 C591 1.387 . S
H589 C585 0.950 . S
H590 C587 0.950 . S
C591 C582 1.390 . S
C591 H584 0.950 . S
C591 C588 1.387 . S
C592 C593 1.387 . S
C592 H596 0.950 . S
C592 C601 1.390 . S
C593 C592 1.387 . S
C593 C595 1.387 . S
H594 C601 0.950 . S
C595 C593 1.387 . S
C595 C597 1.390 . S
C595 H599 0.950 . S
H596 C592 0.950 . S
C597 C595 1.390 . S
C597 C598 1.387 . S
C597 H600 0.950 . S
C598 C597 1.387 . S
C598 C601 1.387 . S
H599 C595 0.950 . S
H600 C597 0.950 . S
C601 C592 1.390 . S
C601 H594 0.950 . S
C601 C598 1.387 . S
C602 C603 1.387 . S
C602 H606 0.950 . S
C602 C611 1.390 . S
C603 C602 1.387 . S
C603 C605 1.387 . S
H604 C611 0.950 . S
C605 C603 1.387 . S
C605 C607 1.390 . S
C605 H609 0.950 . S
H606 C602 0.950 . S
C607 C605 1.390 . S
C607 C608 1.387 . S
C607 H610 0.950 . S
C608 C607 1.387 . S
C608 C611 1.387 . S
H609 C605 0.950 . S
H610 C607 0.950 . S
C611 C602 1.390 . S
C611 H604 0.950 . S
C611 C608 1.387 . S
C612 C613 1.387 . S
C612 H616 0.950 . S
C612 C621 1.390 . S
C613 C612 1.387 . S
C613 C615 1.387 . S
H614 C621 0.950 . S
C615 C613 1.387 . S
C615 C617 1.390 . S
C615 H619 0.950 . S
H616 C612 0.950 . S
C617 C615 1.390 . S
C617 C618 1.387 . S
C617 H620 0.950 . S
C618 C617 1.387 . S
C618 C621 1.387 . S
H619 C615 0.950 . S
H620 C617 0.950 . S
C621 C612 1.390 . S
C621 H614 0.950 . S
C621 C618 1.387 . S
C622 C623 1.387 . S
C622 H626 0.950 . S
C622 C631 1.390 . S
C623 C622 1.387 . S
C623 C625 1.387 . S
H624 C631 0.950 . S
C625 C623 1.387 . S
C625 C627 1.390 . S
C625 H629 0.950 . S
H626 C622 0.950 . S
C627 C625 1.390 . S
C627 C628 1.387 . S
C627 H630 0.950 . S
C628 C627 1.387 . S
C628 C631 1.387 . S
H629 C625 0.950 . S
H630 C627 0.950 . S
C631 C622 1.390 . S
C631 H624 0.950 . S
C631 C628 1.387 . S
C632 C633 1.387 . S
C632 H636 0.950 1_556 S
C632 C641 1.390 . S
C633 C632 1.387 . S
C633 C635 1.387 1_655 S
H634 C641 0.950 . S
C635 C633 1.387 1_455 S
C635 C637 1.390 . S
C635 H639 0.950 . S
H636 C632 0.950 1_554 S
C637 C635 1.390 . S
C637 C638 1.387 1_455 S
C637 H640 0.950 . S
C638 C637 1.387 1_655 S
C638 C641 1.387 . S
H639 C635 0.950 . S
H640 C637 0.950 . S
C641 C632 1.390 . S
C641 H634 0.950 . S
C641 C638 1.387 . S
C642 C643 1.387 . S
C642 H646 0.950 . S
C642 C651 1.390 . S
C643 C642 1.387 . S
C643 C645 1.387 . S
H644 C651 0.950 . S
C645 C643 1.387 . S
C645 C647 1.390 . S
C645 H649 0.950 . S
H646 C642 0.950 . S
C647 C645 1.390 . S
C647 C648 1.387 . S
C647 H650 0.950 . S
C648 C647 1.387 . S
C648 C651 1.387 . S
H649 C645 0.950 . S
H650 C647 0.950 . S
C651 C642 1.390 . S
C651 H644 0.950 . S
C651 C648 1.387 . S
C652 C653 1.387 . S
C652 H656 0.950 . S
C652 C661 1.390 . S
C653 C652 1.387 . S
C653 C655 1.387 . S
H654 C661 0.950 . S
C655 C653 1.387 . S
C655 C657 1.390 . S
C655 H659 0.950 . S
H656 C652 0.950 . S
C657 C655 1.390 . S
C657 C658 1.387 . S
C657 H660 0.950 . S
C658 C657 1.387 . S
C658 C661 1.387 . S
H659 C655 0.950 . S
H660 C657 0.950 . S
C661 C652 1.390 . S
C661 H654 0.950 . S
C661 C658 1.387 . S
C662 C663 1.387 . S
C662 H666 0.950 . S
C662 C671 1.390 . S
C663 C662 1.387 . S
C663 C665 1.387 . S
H664 C671 0.950 . S
C665 C663 1.387 . S
C665 C667 1.390 . S
C665 H669 0.950 . S
H666 C662 0.950 . S
C667 C665 1.390 . S
C667 C668 1.387 . S
C667 H670 0.950 . S
C668 C667 1.387 . S
C668 C671 1.387 . S
H669 C665 0.950 . S
H670 C667 0.950 . S
C671 C662 1.390 . S
C671 H664 0.950 . S
C671 C668 1.387 . S
C672 C673 1.387 1_455 S
C672 H676 0.950 . S
C672 C681 1.390 . S
C673 C672 1.387 1_655 S
C673 C675 1.387 . S
H674 C681 0.950 . S
C675 C673 1.387 . S
C675 C677 1.390 . S
C675 H679 0.950 . S
H676 C672 0.950 . S
C677 C675 1.390 . S
C677 C678 1.387 . S
C677 H680 0.950 . S
C678 C677 1.387 . S
C678 C681 1.387 1_655 S
H679 C675 0.950 . S
H680 C677 0.950 . S
C681 C672 1.390 . S
C681 H674 0.950 . S
C681 C678 1.387 1_455 S
C682 C683 1.387 . S
C682 H686 0.950 . S
C682 C691 1.390 . S
C683 C682 1.387 . S
C683 C685 1.387 . S
H684 C691 0.950 . S
C685 C683 1.387 . S
C685 C687 1.390 . S
C685 H689 0.950 . S
H686 C682 0.950 . S
C687 C685 1.390 . S
C687 C688 1.387 . S
C687 H690 0.950 . S
C688 C687 1.387 . S
C688 C691 1.387 . S
H689 C685 0.950 . S
H690 C687 0.950 . S
C691 C682 1.390 . S
C691 H684 0.950 . S
C691 C688 1.387 . S
C692 C693 1.387 . S
C692 H696 0.950 . S
C692 C701 1.390 . S
C693 C692 1.387 . S
C693 C695 1.387 . S
H694 C701 0.950 . S
C695 C693 1.387 . S
C695 C697 1.390 . S
C695 H699 0.950 . S
H696 C692 0.950 . S
C697 C695 1.390 . S
C697 C698 1.387 . S
C697 H700 0.950 . S
C698 C697 1.387 . S
C698 C701 1.387 . S
H699 C695 0.950 . S
H700 C697 0.950 . S
C701 C692 1.390 . S
C701 H694 0.950 . S
C701 C698 1.387 . S
C702 C703 1.387 . S
C702 H706 0.950 . S
C702 C711 1.390 . S
C703 C702 1.387 . S
C703 C705 1.387 . S
H704 C711 0.950 . S
C705 C703 1.387 . S
C705 C707 1.390 . S
C705 H709 0.950 . S
H706 C702 0.950 . S
C707 C705 1.390 . S
C707 C708 1.387 . S
C707 H710 0.950 . S
C708 C707 1.387 . S
C708 C711 1.387 . S
H709 C705 0.950 . S
H710 C707 0.950 . S
C711 C702 1.390 . S
C711 H704 0.950 . S
C711 C708 1.387 . S
C712 C713 1.387 . S
C712 H716 0.950 . S
C712 C721 1.390 . S
C713 C712 1.387 . S
C713 C715 1.387 . S
H714 C721 0.950 . S
C715 C713 1.387 . S
C715 C717 1.390 . S
C715 H719 0.950 . S
H716 C712 0.950 . S
C717 C715 1.390 . S
C717 C718 1.387 . S
C717 H720 0.950 . S
C718 C717 1.387 . S
C718 C721 1.387 . S
H719 C715 0.950 . S
H720 C717 0.950 . S
C721 C712 1.390 . S
C721 H714 0.950 . S
C721 C718 1.387 . S
C722 C723 1.387 . S
C722 H726 0.950 . S
C722 C731 1.390 . S
C723 C722 1.387 . S
C723 C725 1.387 . S
H724 C731 0.950 . S
C725 C723 1.387 . S
C725 C727 1.390 . S
C725 H729 0.950 . S
H726 C722 0.950 . S
C727 C725 1.390 . S
C727 C728 1.387 . S
C727 H730 0.950 . S
C728 C727 1.387 . S
C728 C731 1.387 . S
H729 C725 0.950 . S
H730 C727 0.950 . S
C731 C722 1.390 . S
C731 H724 0.950 . S
C731 C728 1.387 . S
C732 C733 1.387 . S
C732 H736 0.950 . S
C732 C741 1.390 . S
C733 C732 1.387 . S
C733 C735 1.387 . S
H734 C741 0.950 . S
C735 C733 1.387 . S
C735 C737 1.390 . S
C735 H739 0.950 . S
H736 C732 0.950 . S
C737 C735 1.390 . S
C737 C738 1.387 . S
C737 H740 0.950 . S
C738 C737 1.387 . S
C738 C741 1.387 . S
H739 C735 0.950 . S
H740 C737 0.950 . S
C741 C732 1.390 . S
C741 H734 0.950 . S
C741 C738 1.387 . S
C742 C743 1.387 . S
C742 H746 0.950 . S
C742 C751 1.390 . S
C743 C742 1.387 . S
C743 C745 1.387 . S
H744 C751 0.950 . S
C745 C743 1.387 . S
C745 C747 1.390 . S
C745 H749 0.950 . S
H746 C742 0.950 . S
C747 C745 1.390 . S
C747 C748 1.387 . S
C747 H750 0.950 . S
C748 C747 1.387 . S
C748 C751 1.387 . S
H749 C745 0.950 . S
H750 C747 0.950 . S
C751 C742 1.390 . S
C751 H744 0.950 . S
C751 C748 1.387 . S
C752 C753 1.387 . S
C752 H756 0.950 . S
C752 C761 1.390 . S
C753 C752 1.387 . S
C753 C755 1.387 . S
H754 C761 0.950 . S
C755 C753 1.387 . S
C755 C757 1.390 . S
C755 H759 0.950 . S
H756 C752 0.950 . S
C757 C755 1.390 . S
C757 C758 1.387 . S
C757 H760 0.950 . S
C758 C757 1.387 . S
C758 C761 1.387 . S
H759 C755 0.950 . S
H760 C757 0.950 . S
C761 C752 1.390 . S
C761 H754 0.950 . S
C761 C758 1.387 . S
C762 C763 1.387 . S
C762 H766 0.950 . S
C762 C771 1.390 . S
C763 C762 1.387 . S
C763 C765 1.387 . S
H764 C771 0.950 . S
C765 C763 1.387 . S
C765 C767 1.390 . S
C765 H769 0.950 . S
H766 C762 0.950 . S
C767 C765 1.390 . S
C767 C768 1.387 . S
C767 H770 0.950 . S
C768 C767 1.387 . S
C768 C771 1.387 . S
H769 C765 0.950 . S
H770 C767 0.950 . S
C771 C762 1.390 . S
C771 H764 0.950 . S
C771 C768 1.387 . S
C772 C773 1.387 . S
C772 H776 0.950 . S
C772 C781 1.390 . S
C773 C772 1.387 . S
C773 C775 1.387 . S
H774 C781 0.950 . S
C775 C773 1.387 . S
C775 C777 1.390 . S
C775 H779 0.950 . S
H776 C772 0.950 . S
C777 C775 1.390 . S
C777 C778 1.387 . S
C777 H780 0.950 . S
C778 C777 1.387 . S
C778 C781 1.387 . S
H779 C775 0.950 . S
H780 C777 0.950 . S
C781 C772 1.390 . S
C781 H774 0.950 . S
C781 C778 1.387 . S
C782 C783 1.387 . S
C782 H786 0.950 . S
C782 C791 1.390 . S
C783 C782 1.387 . S
C783 C785 1.387 . S
H784 C791 0.950 . S
C785 C783 1.387 . S
C785 C787 1.390 . S
C785 H789 0.950 . S
H786 C782 0.950 . S
C787 C785 1.390 . S
C787 C788 1.387 . S
C787 H790 0.950 . S
C788 C787 1.387 . S
C788 C791 1.387 . S
H789 C785 0.950 . S
H790 C787 0.950 . S
C791 C782 1.390 . S
C791 H784 0.950 . S
C791 C788 1.387 . S
C792 C793 1.387 . S
C792 H796 0.950 . S
C792 C801 1.390 . S
C793 C792 1.387 . S
C793 C795 1.387 . S
H794 C801 0.950 . S
C795 C793 1.387 . S
C795 C797 1.390 . S
C795 H799 0.950 . S
H796 C792 0.950 . S
C797 C795 1.390 . S
C797 C798 1.387 . S
C797 H800 0.950 . S
C798 C797 1.387 . S
C798 C801 1.387 . S
H799 C795 0.950 . S
H800 C797 0.950 . S
C801 C792 1.390 . S
C801 H794 0.950 . S
C801 C798 1.387 . S
C802 C803 1.387 . S
C802 H806 0.950 . S
C802 C811 1.390 . S
C803 C802 1.387 . S
C803 C805 1.387 1_556 S
H804 C811 0.950 . S
C805 C803 1.387 1_554 S
C805 C807 1.390 . S
C805 H809 0.950 . S
H806 C802 0.950 . S
C807 C805 1.390 . S
C807 C808 1.387 1_554 S
C807 H810 0.950 . S
C808 C807 1.387 1_556 S
C808 C811 1.387 . S
H809 C805 0.950 . S
H810 C807 0.950 . S
C811 C802 1.390 . S
C811 H804 0.950 . S
C811 C808 1.387 . S
C812 C813 1.387 . S
C812 H816 0.950 . S
C812 C821 1.390 . S
C813 C812 1.387 . S
C813 C815 1.387 . S
H814 C821 0.950 . S
C815 C813 1.387 . S
C815 C817 1.390 . S
C815 H819 0.950 . S
H816 C812 0.950 . S
C817 C815 1.390 . S
C817 C818 1.387 . S
C817 H820 0.950 . S
C818 C817 1.387 . S
C818 C821 1.387 . S
H819 C815 0.950 . S
H820 C817 0.950 . S
C821 C812 1.390 . S
C821 H814 0.950 . S
C821 C818 1.387 . S
C822 C823 1.387 . S
C822 H826 0.950 . S
C822 C831 1.390 . S
C823 C822 1.387 . S
C823 C825 1.387 1_554 S
H824 C831 0.950 . S
C825 C823 1.387 1_556 S
C825 C827 1.390 . S
C825 H829 0.950 . S
H826 C822 0.950 . S
C827 C825 1.390 . S
C827 C828 1.387 1_556 S
C827 H830 0.950 . S
C828 C827 1.387 1_554 S
C828 C831 1.387 . S
H829 C825 0.950 . S
H830 C827 0.950 . S
C831 C822 1.390 . S
C831 H824 0.950 . S
C831 C828 1.387 . S
C832 C833 1.387 . S
C832 H836 0.950 . S
C832 C841 1.390 . S
C833 C832 1.387 . S
C833 C835 1.387 . S
H834 C841 0.950 . S
C835 C833 1.387 . S
C835 C837 1.390 . S
C835 H839 0.950 . S
H836 C832 0.950 . S
C837 C835 1.390 . S
C837 C838 1.387 . S
C837 H840 0.950 . S
C838 C837 1.387 . S
C838 C841 1.387 . S
H839 C835 0.950 . S
H840 C837 0.950 . S
C841 C832 1.390 . S
C841 H834 0.950 . S
C841 C838 1.387 . S
C842 C843 1.387 . S
C842 H846 0.950 . S
C842 C851 1.390 . S
C843 C842 1.387 . S
C843 C845 1.387 . S
H844 C851 0.950 . S
C845 C843 1.387 . S
C845 C847 1.390 . S
C845 H849 0.950 . S
H846 C842 0.950 . S
C847 C845 1.390 . S
C847 C848 1.387 . S
C847 H850 0.950 . S
C848 C847 1.387 . S
C848 C851 1.387 . S
H849 C845 0.950 . S
H850 C847 0.950 . S
C851 C842 1.390 . S
C851 H844 0.950 . S
C851 C848 1.387 . S
C378 C361 1.241 . S
C373 C5 1.360 1_556 S
C383 C16 1.361 . S
C388 C314 1.237 . S
C393 C36 1.351 . S
C398 C325 1.230 . S
C408 C350 1.236 . S
C403 C49 1.354 . S
C413 C23 1.351 . S
C418 C368 1.218 . S
C428 C307 1.248 . S
C423 C29 1.364 . S
C438 C332 1.223 . S
C433 C42 1.360 1_554 S
C448 C343 1.248 . S
C443 C4 1.358 . S
C453 C55 1.359 1_655 S
C458 C344 1.232 . S
C468 C370 1.264 . S
C463 C69 1.358 . S
C478 C308 1.235 . S
C473 C83 1.357 . S
C488 C334 1.254 . S
C483 C101 1.351 . S
C493 C57 1.357 1_655 S
C498 C316 1.253 . S
C503 C75 1.359 . S
C508 C326 1.247 . S
C513 C81 1.360 . S
C518 C352 1.249 . S
C528 C362 1.246 . S
C523 C95 1.353 . S
C538 C199 1.233 . S
C533 C96 1.358 1_565 S
C548 C182 1.226 . S
C543 C107 1.354 . S
C558 C208 1.257 . S
C553 C121 1.354 . S
C568 C226 1.246 . S
C563 C133 1.358 . S
C573 C62 1.353 . S
C578 C200 1.240 . S
C583 C68 1.364 1_545 S
C588 C170 1.227 . S
C593 C127 1.357 . S
C598 C224 1.241 . S
C603 C147 1.353 . S
C608 C181 1.248 . S
C618 C235 1.233 . S
C613 C30 1.350 . S
C628 C260 1.239 . S
C623 C43 1.355 . S
C633 C3 1.360 1_556 S
C638 C271 1.235 . S
C643 C18 1.361 . S
C648 C296 1.235 . S
C658 C242 1.224 . S
C653 C44 1.361 1_554 S
C668 C253 1.249 . S
C663 C10 1.353 . S
C673 C17 1.350 . S
C678 C278 1.218 . S
C688 C289 1.247 . S
C683 C31 1.363 . S
C693 C146 1.358 . S
C698 C290 1.234 . S
C703 C114 1.349 . S
C708 C244 1.254 . S
C718 C254 1.231 . S
C713 C122 1.359 1_455 S
C723 C140 1.357 . S
C728 C280 1.263 . S
C738 C262 1.247 . S
C733 C148 1.356 . S
C743 C108 1.351 . S
C748 C272 1.245 . S
C758 C298 1.250 . S
C753 C120 1.359 1_455 S
C768 C236 1.249 . S
C763 C134 1.359 . S
C778 C163 1.238 . S
C773 C135 1.363 . S
C788 C218 1.232 . S
C783 C70 1.360 1_545 S
C793 C82 1.356 . S
C798 C172 1.262 . S
C808 C190 1.241 . S
C803 C94 1.356 1_565 S
C818 C164 1.242 . S
C813 C153 1.354 . S
C823 C109 1.359 . S
C828 C206 1.223 . S
C833 C88 1.353 . S
C838 C188 1.238 . S
C843 C56 1.352 . S
C848 C217 1.247 . S
