# Generated by pormake.
# Topology pyr, (3,6)-cn, num edge types: 1
# Building blocks:
#     Node 0, Type 0, BuildingBlock: BELTOD_clean_linker_0, # of connection points: 3
#     Node 1, Type 0, BuildingBlock: BELTOD_clean_linker_0, # of connection points: 3
#     Node 2, Type 0, BuildingBlock: BELTOD_clean_linker_0, # of connection points: 3
#     Node 3, Type 0, BuildingBlock: BELTOD_clean_linker_0, # of connection points: 3
#     Node 4, Type 0, BuildingBlock: BELTOD_clean_linker_0, # of connection points: 3
#     Node 5, Type 0, BuildingBlock: BELTOD_clean_linker_0, # of connection points: 3
#     Node 6, Type 0, BuildingBlock: BELTOD_clean_linker_0, # of connection points: 3
#     Node 7, Type 0, BuildingBlock: BELTOD_clean_linker_0, # of connection points: 3
#     Node 8, Type 1, BuildingBlock: FUNLAD_clean_sbu_0, # of connection points: 6
#     Node 9, Type 1, BuildingBlock: FUNLAD_clean_sbu_0, # of connection points: 6
#     Node 10, Type 1, BuildingBlock: FUNLAD_clean_sbu_0, # of connection points: 6
#     Node 11, Type 1, BuildingBlock: FUNLAD_clean_sbu_0, # of connection points: 6
#     Edge 12, Type (0, 1), BuildingBlock: MIFKUJ_clean_linker_0, # of connection points: 2
#     Edge 13, Type (0, 1), BuildingBlock: MIFKUJ_clean_linker_0, # of connection points: 2
#     Edge 14, Type (0, 1), BuildingBlock: MIFKUJ_clean_linker_0, # of connection points: 2
#     Edge 15, Type (0, 1), BuildingBlock: MIFKUJ_clean_linker_0, # of connection points: 2
#     Edge 16, Type (0, 1), BuildingBlock: MIFKUJ_clean_linker_0, # of connection points: 2
#     Edge 17, Type (0, 1), BuildingBlock: MIFKUJ_clean_linker_0, # of connection points: 2
#     Edge 18, Type (0, 1), BuildingBlock: MIFKUJ_clean_linker_0, # of connection points: 2
#     Edge 19, Type (0, 1), BuildingBlock: MIFKUJ_clean_linker_0, # of connection points: 2
#     Edge 20, Type (0, 1), BuildingBlock: MIFKUJ_clean_linker_0, # of connection points: 2
#     Edge 21, Type (0, 1), BuildingBlock: MIFKUJ_clean_linker_0, # of connection points: 2
#     Edge 22, Type (0, 1), BuildingBlock: MIFKUJ_clean_linker_0, # of connection points: 2
#     Edge 23, Type (0, 1), BuildingBlock: MIFKUJ_clean_linker_0, # of connection points: 2
#     Edge 24, Type (0, 1), BuildingBlock: MIFKUJ_clean_linker_0, # of connection points: 2
#     Edge 25, Type (0, 1), BuildingBlock: MIFKUJ_clean_linker_0, # of connection points: 2
#     Edge 26, Type (0, 1), BuildingBlock: MIFKUJ_clean_linker_0, # of connection points: 2
#     Edge 27, Type (0, 1), BuildingBlock: MIFKUJ_clean_linker_0, # of connection points: 2
#     Edge 28, Type (0, 1), BuildingBlock: MIFKUJ_clean_linker_0, # of connection points: 2
#     Edge 29, Type (0, 1), BuildingBlock: MIFKUJ_clean_linker_0, # of connection points: 2
#     Edge 30, Type (0, 1), BuildingBlock: MIFKUJ_clean_linker_0, # of connection points: 2
#     Edge 31, Type (0, 1), BuildingBlock: MIFKUJ_clean_linker_0, # of connection points: 2
#     Edge 32, Type (0, 1), BuildingBlock: MIFKUJ_clean_linker_0, # of connection points: 2
#     Edge 33, Type (0, 1), BuildingBlock: MIFKUJ_clean_linker_0, # of connection points: 2
#     Edge 34, Type (0, 1), BuildingBlock: MIFKUJ_clean_linker_0, # of connection points: 2
#     Edge 35, Type (0, 1), BuildingBlock: MIFKUJ_clean_linker_0, # of connection points: 2
# Relax obj value: 0.044
# Max RMSD: 0.061
# Mean RMSD: 0.031
data_MOF--net-pry--node1-FUNLAD_clean_sbu_0--node2-BELTOD_clean_linker_0--edge1-MIFKUJ_clean_linker_0
_symmetry_space_group_name_H-M    P1
_symmetry_Int_Tables_number       1
_symmetry_cell_setting            triclinic
loop_
_symmetry_equiv_pos_as_xyz
'x, y, z'
_cell_length_a     51.991759
_cell_length_b     54.937568
_cell_length_c     54.690314
_cell_angle_alpha  90.175178
_cell_angle_beta   90.340271
_cell_angle_gamma 87.316692
loop_
_atom_site_label
_atom_site_type_symbol
_atom_site_fract_x
_atom_site_fract_y
_atom_site_fract_z
_atom_type_partial_charge
P0 P 0.1711 0.18412 0.19462 0.0
H1 H 0.2178 0.19738 0.17002 0.0
H2 H 0.2504 0.17456 0.14624 0.0
H3 H 0.20549 0.11052 0.15035 0.0
H4 H 0.17283 0.13364 0.17431 0.0
H5 H 0.14912 0.23183 0.20906 0.0
H6 H 0.12841 0.2656 0.18657 0.0
H7 H 0.12985 0.22164 0.12084 0.0
H8 H 0.15153 0.18808 0.14357 0.0
H9 H 0.18453 0.13925 0.22143 0.0
H10 H 0.11797 0.18844 0.21395 0.0
O11 O 0.18996 0.19918 0.21363 0.0
H12 H 0.16303 0.11731 0.2536 0.0
H13 H 0.09631 0.16662 0.24633 0.0
C14 C 0.19309 0.16716 0.17443 0.0
C15 C 0.21483 0.17847 0.16567 0.0
C16 C 0.23346 0.16537 0.15192 0.0
C17 C 0.23082 0.14054 0.14648 0.0
C18 C 0.20846 0.12946 0.15455 0.0
C19 C 0.18967 0.1427 0.16821 0.0
C20 C 0.15214 0.20742 0.17804 0.0
C21 C 0.14481 0.22934 0.18985 0.0
C22 C 0.13275 0.24871 0.17688 0.0
C23 C 0.1274 0.24666 0.15167 0.0
C24 C 0.134 0.22423 0.14007 0.0
C25 C 0.14621 0.20484 0.15312 0.0
C26 C 0.15265 0.1651 0.21454 0.0
C27 C 0.16494 0.1449 0.22612 0.0
C28 C 0.15262 0.13239 0.24471 0.0
C29 C 0.12783 0.14008 0.25267 0.0
C30 C 0.11543 0.16021 0.24084 0.0
C31 C 0.12772 0.17258 0.22205 0.0
P32 P 0.36749 0.86291 0.66249 0.0
H33 H 0.41629 0.86279 0.68881 0.0
H34 H 0.42823 0.87512 0.73028 0.0
H35 H 0.34784 0.88572 0.74847 0.0
H36 H 0.33596 0.87243 0.70727 0.0
H37 H 0.41184 0.84467 0.634 0.0
H38 H 0.42491 0.80496 0.61736 0.0
H39 H 0.35932 0.77378 0.65136 0.0
H40 H 0.34605 0.81413 0.66784 0.0
H41 H 0.33396 0.90512 0.67557 0.0
H42 H 0.32948 0.8424 0.6285 0.0
O43 O 0.38521 0.88254 0.64758 0.0
H44 H 0.29195 0.92045 0.66101 0.0
H45 H 0.28801 0.85816 0.61289 0.0
C46 C 0.37524 0.86714 0.69463 0.0
C47 C 0.40119 0.86726 0.70185 0.0
C48 C 0.40801 0.87436 0.72559 0.0
C49 C 0.38899 0.8818 0.74258 0.0
C50 C 0.36295 0.88053 0.73567 0.0
C51 C 0.35614 0.87294 0.71204 0.0
C52 C 0.37767 0.83258 0.6519 0.0
C53 C 0.40019 0.82938 0.63799 0.0
C54 C 0.40782 0.80647 0.62858 0.0
C55 C 0.3932 0.786 0.63289 0.0
C56 C 0.37089 0.78914 0.64735 0.0
C57 C 0.36333 0.81218 0.65692 0.0
C58 C 0.33453 0.87193 0.65414 0.0
C59 C 0.32366 0.89426 0.66256 0.0
C60 C 0.29974 0.90331 0.65376 0.0
C61 C 0.28631 0.89065 0.63565 0.0
C62 C 0.29732 0.86825 0.6272 0.0
C63 C 0.32118 0.8591 0.63623 0.0
P64 P 0.65626 0.39348 0.89794 0.0
H65 H 0.69355 0.37531 0.93358 0.0
H66 H 0.72326 0.39579 0.9606 0.0
H67 H 0.68623 0.46532 0.94183 0.0
H68 H 0.65624 0.44467 0.9151 0.0
H69 H 0.64052 0.34744 0.87837 0.0
H70 H 0.61213 0.31687 0.89345 0.0
H71 H 0.59794 0.35993 0.95869 0.0
H72 H 0.6268 0.39051 0.94345 0.0
H73 H 0.67065 0.43491 0.86895 0.0
H74 H 0.60159 0.39683 0.88316 0.0
O75 O 0.67853 0.3793 0.88047 0.0
H76 H 0.64765 0.45948 0.83798 0.0
H77 H 0.57905 0.42001 0.85134 0.0
C78 C 0.67318 0.40851 0.92192 0.0
C79 C 0.69139 0.3949 0.93579 0.0
C80 C 0.70823 0.40661 0.95135 0.0
C81 C 0.70715 0.43216 0.95312 0.0
C82 C 0.68759 0.44562 0.94057 0.0
C83 C 0.67056 0.43382 0.92519 0.0
C84 C 0.63621 0.37083 0.91011 0.0
C85 C 0.63148 0.3502 0.89601 0.0
C86 C 0.61496 0.33292 0.90451 0.0
C87 C 0.60272 0.33606 0.92722 0.0
C88 C 0.60729 0.35696 0.94122 0.0
C89 C 0.6238 0.37435 0.9326 0.0
C90 C 0.63789 0.4141 0.87841 0.0
C91 C 0.65044 0.43208 0.86564 0.0
C92 C 0.63732 0.44593 0.84777 0.0
C93 C 0.61154 0.44156 0.8419 0.0
C94 C 0.59875 0.42418 0.85553 0.0
C95 C 0.61178 0.41065 0.87368 0.0
P96 P 0.86665 0.63884 0.42271 0.0
H97 H 0.91546 0.65435 0.40545 0.0
H98 H 0.9503 0.67487 0.42521 0.0
H99 H 0.91369 0.66655 0.49533 0.0
H100 H 0.87828 0.64642 0.47506 0.0
H101 H 0.8463 0.62776 0.37453 0.0
H102 H 0.86282 0.60179 0.34141 0.0
H103 H 0.92436 0.57404 0.3886 0.0
H104 H 0.90777 0.6004 0.42168 0.0
H105 H 0.81645 0.6585 0.43819 0.0
H106 H 0.86423 0.59332 0.45026 0.0
O107 O 0.85384 0.66313 0.40802 0.0
H108 H 0.78152 0.64094 0.46023 0.0
H109 H 0.82934 0.57565 0.4733 0.0
C110 C 0.89441 0.64881 0.43879 0.0
C111 C 0.91528 0.65632 0.42517 0.0
C112 C 0.93537 0.66788 0.43659 0.0
C113 C 0.9349 0.6723 0.46194 0.0
C114 C 0.91456 0.6635 0.47577 0.0
C115 C 0.89435 0.65194 0.46423 0.0
C116 C 0.8763 0.61648 0.4002 0.0
C117 C 0.86314 0.61584 0.37784 0.0
C118 C 0.87249 0.60081 0.35899 0.0
C119 C 0.89508 0.58606 0.36232 0.0
C120 C 0.90717 0.58551 0.3854 0.0
C121 C 0.89771 0.60053 0.40428 0.0
C122 C 0.84268 0.62699 0.44225 0.0
C123 C 0.81957 0.64051 0.44599 0.0
C124 C 0.79965 0.6305 0.4589 0.0
C125 C 0.80256 0.60681 0.46854 0.0
C126 C 0.82636 0.5938 0.46583 0.0
C127 C 0.84631 0.60386 0.45275 0.0
P128 P 0.86822 0.86328 0.85837 0.0
H129 H 0.85196 0.89875 0.89607 0.0
H130 H 0.8103 0.91355 0.91143 0.0
H131 H 0.7724 0.86586 0.86133 0.0
H132 H 0.81464 0.85116 0.84559 0.0
H133 H 0.91818 0.83741 0.86512 0.0
H134 H 0.93164 0.79768 0.88172 0.0
H135 H 0.85203 0.78109 0.89146 0.0
H136 H 0.83859 0.82089 0.87443 0.0
H137 H 0.83795 0.89164 0.82109 0.0
H138 H 0.90996 0.84953 0.82435 0.0
O139 O 0.88948 0.8807 0.87211 0.0
H140 H 0.84882 0.9059 0.78021 0.0
H141 H 0.92105 0.8641 0.78385 0.0
C142 C 0.83663 0.87378 0.86954 0.0
C143 C 0.83483 0.89143 0.88817 0.0
C144 C 0.81084 0.90002 0.89696 0.0
C145 C 0.7879 0.89103 0.88758 0.0
C146 C 0.78968 0.8731 0.86908 0.0
C147 C 0.81381 0.8647 0.86002 0.0
C148 C 0.8773 0.8323 0.86808 0.0
C149 C 0.9035 0.82508 0.8702 0.0
C150 C 0.91124 0.80226 0.87986 0.0
C151 C 0.89297 0.78605 0.88801 0.0
C152 C 0.86666 0.79315 0.88559 0.0
C153 C 0.85892 0.81595 0.87562 0.0
C154 C 0.8728 0.86892 0.82589 0.0
C155 C 0.85574 0.88481 0.81286 0.0
C156 C 0.86207 0.89314 0.78944 0.0
C157 C 0.88592 0.8863 0.77875 0.0
C158 C 0.90262 0.86992 0.79157 0.0
C159 C 0.89611 0.86132 0.81475 0.0
P160 P 0.66844 0.18507 0.32785 0.0
H161 H 0.68331 0.216 0.36834 0.0
H162 H 0.66102 0.24913 0.39068 0.0
H163 H 0.59098 0.23572 0.35101 0.0
H164 H 0.61342 0.20212 0.32904 0.0
H165 H 0.71429 0.15694 0.31271 0.0
H166 H 0.74769 0.13318 0.33484 0.0
H167 H 0.70568 0.14502 0.40209 0.0
H168 H 0.67191 0.16834 0.37956 0.0
H169 H 0.64825 0.19751 0.27942 0.0
H170 H 0.64698 0.13597 0.32792 0.0
O171 O 0.68688 0.20274 0.31129 0.0
H172 H 0.62747 0.1744 0.24756 0.0
H173 H 0.62496 0.11275 0.29634 0.0
C174 C 0.64999 0.20613 0.34735 0.0
C175 C 0.66298 0.21975 0.36486 0.0
C176 C 0.65025 0.23899 0.37741 0.0
C177 C 0.62417 0.24538 0.37258 0.0
C178 C 0.61097 0.23124 0.35544 0.0
C179 C 0.6238 0.21194 0.34284 0.0
C180 C 0.69081 0.16484 0.3445 0.0
C181 C 0.71213 0.15426 0.33219 0.0
C182 C 0.73137 0.14081 0.34495 0.0
C183 C 0.72976 0.13752 0.37041 0.0
C184 C 0.70765 0.14716 0.38252 0.0
C185 C 0.68833 0.16065 0.36967 0.0
C186 C 0.6495 0.16843 0.306 0.0
C187 C 0.64312 0.17906 0.28335 0.0
C188 C 0.63097 0.16576 0.2651 0.0
C189 C 0.62446 0.14147 0.26908 0.0
C190 C 0.63005 0.13118 0.29227 0.0
C191 C 0.64244 0.14453 0.31051 0.0
P192 P 0.41708 0.57045 0.05562 0.0
H193 H 0.38413 0.54527 0.02099 0.0
H194 H 0.33757 0.54071 0.01911 0.0
H195 H 0.32858 0.58329 0.0854 0.0
H196 H 0.37507 0.58715 0.08744 0.0
H197 H 0.46548 0.59402 0.04961 0.0
H198 H 0.47546 0.63671 0.04433 0.0
H199 H 0.3945 0.65551 0.03372 0.0
H200 H 0.38466 0.61309 0.0396 0.0
H201 H 0.42673 0.52773 0.08653 0.0
H202 H 0.42838 0.60587 0.09415 0.0
O203 O 0.43272 0.54955 0.03837 0.0
H204 H 0.43801 0.52312 0.13001 0.0
H205 H 0.44008 0.60131 0.13707 0.0
C206 C 0.38303 0.56615 0.05458 0.0
C207 C 0.37212 0.55336 0.03524 0.0
C208 C 0.34548 0.55097 0.03409 0.0
C209 C 0.32932 0.56156 0.05217 0.0
C210 C 0.34046 0.57448 0.07146 0.0
C211 C 0.36705 0.57676 0.07262 0.0
C212 C 0.42437 0.60039 0.04523 0.0
C213 C 0.44997 0.60728 0.04555 0.0
C214 C 0.45564 0.6317 0.04252 0.0
C215 C 0.43571 0.64958 0.03899 0.0
C216 C 0.41022 0.64226 0.03699 0.0
C217 C 0.40459 0.61789 0.04018 0.0
C218 C 0.42747 0.56705 0.08691 0.0
C219 C 0.42997 0.54382 0.09741 0.0
C220 C 0.43625 0.54122 0.1222 0.0
C221 C 0.44021 0.56187 0.13674 0.0
C222 C 0.43768 0.58509 0.12613 0.0
C223 C 0.43106 0.58767 0.10151 0.0
P224 P 0.14107 0.39369 0.61059 0.0
H225 H 0.15058 0.34584 0.58934 0.0
H226 H 0.12316 0.3186 0.56733 0.0
H227 H 0.06275 0.37546 0.56428 0.0
H228 H 0.0904 0.40251 0.58718 0.0
H229 H 0.19255 0.40777 0.62264 0.0
H230 H 0.22417 0.43039 0.60076 0.0
H231 H 0.17033 0.44175 0.54082 0.0
H232 H 0.13877 0.41832 0.56285 0.0
H233 H 0.10008 0.38219 0.64341 0.0
H234 H 0.13802 0.44654 0.62093 0.0
O235 O 0.15775 0.37441 0.6289 0.0
H236 H 0.07745 0.40562 0.67521 0.0
H237 H 0.11496 0.47031 0.65237 0.0
C238 C 0.1222 0.37585 0.59042 0.0
C239 C 0.13157 0.35255 0.58365 0.0
C240 C 0.11589 0.33708 0.57077 0.0
C241 C 0.0906 0.34477 0.56411 0.0
C242 C 0.08195 0.36885 0.56947 0.0
C243 C 0.09772 0.38432 0.58251 0.0
C244 C 0.16363 0.41094 0.59408 0.0
C245 C 0.18755 0.41504 0.60475 0.0
C246 C 0.20551 0.42826 0.59232 0.0
C247 C 0.19974 0.43797 0.56905 0.0
C248 C 0.17542 0.43428 0.5586 0.0
C249 C 0.15741 0.42093 0.57114 0.0
C250 C 0.1208 0.41257 0.62998 0.0
C251 C 0.10298 0.40154 0.64493 0.0
C252 C 0.08991 0.41503 0.66299 0.0
C253 C 0.09451 0.43984 0.66643 0.0
C254 C 0.11127 0.45117 0.65038 0.0
C255 C 0.1244 0.43759 0.63233 0.0
C256 C 0.02397 0.0277 0.46925 0.0
N257 N 0.00596 0.06021 0.5366 0.0
C258 C 0.02858 0.07149 0.53466 0.0
C259 C 0.03006 0.09586 0.54136 0.0
C260 C 0.00796 0.1088 0.54985 0.0
C261 C 0.98515 0.09648 0.55269 0.0
C262 C 0.98461 0.07195 0.54605 0.0
Zn263 Zn 0.00327 0.02687 0.52085 0.0
C264 C 0.95301 0.02496 0.492 0.0
N265 N 0.99661 0.95864 0.4856 0.0
C266 C 0.01819 0.94891 0.47465 0.0
C267 C 0.97537 0.94545 0.48849 0.0
C268 C 0.97584 0.92101 0.48143 0.0
C269 C 0.99839 0.91012 0.47134 0.0
C270 C 0.01949 0.92457 0.46732 0.0
Zn271 Zn 0.99847 0.99193 0.50161 0.0
O272 O 0.0202 0.04073 0.48827 0.0
C273 C 0.04865 0.99355 0.53036 0.0
O274 O 0.01738 0.00568 0.46961 0.0
H275 H 0.9585 0.95355 0.49736 0.0
H276 H 0.04519 0.06193 0.52676 0.0
H277 H 0.0349 0.95972 0.47263 0.0
O278 O 0.04061 0.01533 0.53477 0.0
O279 O 0.03482 0.98013 0.51725 0.0
H280 H 0.96683 0.0626 0.54744 0.0
O281 O 0.97942 0.97878 0.53383 0.0
O282 O 0.98637 0.01275 0.55345 0.0
O283 O 0.96211 0.0038 0.48629 0.0
O284 O 0.96588 0.03798 0.50648 0.0
C285 C 0.97768 0.99145 0.55334 0.0
H286 H 0.04792 0.10485 0.5386 0.0
H287 H 0.96777 0.10589 0.55931 0.0
H288 H 0.95923 0.91045 0.48513 0.0
H289 H 0.03711 0.91694 0.45934 0.0
C290 C 0.54847 0.98561 0.99493 0.0
N291 N 0.50869 0.0541 0.98939 0.0
C292 C 0.53175 0.06388 0.99407 0.0
C293 C 0.53535 0.08827 0.98895 0.0
C294 C 0.51504 0.10272 0.97886 0.0
C295 C 0.49193 0.09187 0.97282 0.0
C296 C 0.48909 0.06733 0.97841 0.0
Zn297 Zn 0.50305 0.02067 0.00366 0.0
C298 C 0.47801 0.98697 0.96976 0.0
N299 N 0.49281 0.95204 0.03689 0.0
C300 C 0.51292 0.9386 0.04673 0.0
C301 C 0.46923 0.94265 0.03407 0.0
C302 C 0.46544 0.91851 0.04031 0.0
C303 C 0.48617 0.90382 0.0493 0.0
C304 C 0.51004 0.91426 0.053 0.0
Zn305 Zn 0.49844 0.98543 0.02231 0.0
O306 O 0.54008 0.00726 0.99033 0.0
C307 C 0.52345 0.01924 0.0562 0.0
O308 O 0.53495 0.97221 0.00816 0.0
H309 H 0.45361 0.95355 0.02593 0.0
H310 H 0.54704 0.05306 0.00284 0.0
H311 H 0.5315 0.94646 0.04881 0.0
O312 O 0.52009 0.03242 0.03727 0.0
O313 O 0.5166 0.9973 0.05549 0.0
H314 H 0.47088 0.05917 0.975 0.0
O315 O 0.4617 0.99932 0.03632 0.0
O316 O 0.46639 0.03367 0.01701 0.0
O317 O 0.48076 0.97376 0.98877 0.0
O318 O 0.48549 0.0087 0.97042 0.0
C319 C 0.45311 0.02076 0.03095 0.0
H320 H 0.55361 0.09593 0.99346 0.0
H321 H 0.47586 0.10251 0.96502 0.0
H322 H 0.44682 0.91107 0.03687 0.0
H323 H 0.52643 0.90353 0.06006 0.0
C324 C 0.51378 0.46731 0.48178 0.0
N325 N 0.50856 0.49672 0.55295 0.0
C326 C 0.49865 0.47666 0.5632 0.0
C327 C 0.5036 0.47118 0.58781 0.0
C328 C 0.51918 0.48631 0.60161 0.0
C329 C 0.52912 0.50678 0.59053 0.0
C330 C 0.52339 0.51177 0.56617 0.0
Zn331 Zn 0.50109 0.50654 0.51767 0.0
C332 C 0.54754 0.52759 0.49536 0.0
N333 N 0.48681 0.53075 0.44497 0.0
C334 C 0.47552 0.51436 0.43019 0.0
C335 C 0.49342 0.55281 0.43639 0.0
C336 C 0.48884 0.55898 0.41191 0.0
C337 C 0.47744 0.54224 0.39617 0.0
C338 C 0.47075 0.51969 0.40568 0.0
Zn339 Zn 0.49411 0.5206 0.4802 0.0
O340 O 0.51225 0.47069 0.50478 0.0
C341 C 0.44762 0.49982 0.50261 0.0
O342 O 0.50764 0.48501 0.46759 0.0
H343 H 0.50238 0.56555 0.4485 0.0
H344 H 0.48681 0.46502 0.55236 0.0
H345 H 0.47043 0.49692 0.43736 0.0
O346 O 0.4626 0.49685 0.5209 0.0
O347 O 0.4561 0.50866 0.48298 0.0
H348 H 0.53067 0.52788 0.55788 0.0
O349 O 0.48084 0.55599 0.49352 0.0
O350 O 0.48979 0.54239 0.53033 0.0
O351 O 0.5321 0.53262 0.47781 0.0
O352 O 0.53955 0.51644 0.5139 0.0
C353 C 0.48158 0.55967 0.51651 0.0
H354 H 0.49563 0.45522 0.59587 0.0
H355 H 0.54089 0.51905 0.60077 0.0
H356 H 0.49408 0.57667 0.40542 0.0
H357 H 0.4624 0.506 0.39419 0.0
C358 C 0.99162 0.56131 1.00181 0.0
N359 N 0.99411 0.52889 0.07201 0.0
C360 C 1.00065 0.54994 0.0831 0.0
C361 C 0.9943 0.55426 0.10759 0.0
C362 C 0.98095 0.53682 0.12054 0.0
C363 C 0.97431 0.51542 0.10853 0.0
C364 C 0.98118 0.51177 0.08422 0.0
Zn365 Zn 0.00435 0.52098 0.03695 0.0
C366 C 0.96141 0.49837 0.01012 0.0
N367 N 0.02509 0.50139 0.96428 0.0
C368 C 0.037 0.51861 0.95128 0.0
C369 C 0.01859 0.48003 0.95381 0.0
C370 C 0.02368 0.47556 0.9291 0.0
C371 C 0.03551 0.49328 0.91513 0.0
C372 C 0.04237 0.51495 0.9266 0.0
Zn373 Zn 0.01515 0.50952 0.99937 0.0
O374 O 0.99006 0.55654 0.02453 0.0
C375 C 0.05818 0.53214 0.02615 0.0
O376 O 0.00152 0.54511 0.98761 0.0
H377 H 0.0091 0.46662 0.96452 0.0
H378 H 0.01097 0.56326 0.07302 0.0
H379 H 0.04187 0.53553 0.95993 0.0
O380 O 0.04156 0.5342 0.04308 0.0
O381 O 0.05208 0.52253 0.00591 0.0
H382 H 0.97643 0.49502 0.07518 0.0
O383 O 0.02885 0.47376 0.01171 0.0
O384 O 0.01843 0.48554 0.04878 0.0
O385 O 0.97787 0.49678 0.99306 0.0
O386 O 0.96757 0.50754 0.03051 0.0
C387 C 0.02775 0.46913 0.03449 0.0
H388 H 0.9996 0.57108 0.11624 0.0
H389 H 0.96436 0.50137 0.11799 0.0
H390 H 0.01838 0.45846 0.92105 0.0
H391 H 0.05118 0.52925 0.91648 0.0
H392 H 0.10074 0.16143 0.29079 0.0
H393 H 0.08289 0.14177 0.3266 0.0
H394 H 0.1099 0.07154 0.29926 0.0
H395 H 0.12753 0.09107 0.26318 0.0
H396 H 0.06075 0.07022 0.31806 0.0
H397 H 0.14253 0.09909 0.34422 0.0
H398 H 0.17497 0.12991 0.35038 0.0
H399 H 0.12217 0.17211 0.39545 0.0
H400 H 0.08927 0.1417 0.38928 0.0
H401 H 0.04298 0.00407 0.4282 0.0
H402 H 0.06062 0.02213 0.3914 0.0
H403 H 0.0467 0.09393 0.42214 0.0
H404 H 0.03016 0.0759 0.4593 0.0
H405 H 0.08977 0.09396 0.40095 0.0
H406 H 0.00755 0.06727 0.37481 0.0
H407 H 0.97353 0.03806 0.36833 0.0
H408 H 0.02442 0.9939 0.32312 0.0
H409 H 0.05886 0.0227 0.32958 0.0
C410 C 0.10263 0.14177 0.29218 0.0
C411 C 0.11569 0.1279 0.27398 0.0
C412 C 0.09258 0.13054 0.31284 0.0
C413 C 0.09524 0.10512 0.3159 0.0
C414 C 0.10764 0.09116 0.29746 0.0
C415 C 0.11787 0.1024 0.27687 0.0
C416 C 0.08554 0.0932 0.33847 0.0
C417 C 0.06734 0.07519 0.33618 0.0
C418 C 0.09354 0.10002 0.36224 0.0
C419 C 0.11336 0.11823 0.3661 0.0
C420 C 0.13777 0.11503 0.3553 0.0
C421 C 0.15625 0.13241 0.35881 0.0
C422 C 0.15062 0.15298 0.37325 0.0
C423 C 0.1265 0.15618 0.38425 0.0
C424 C 0.10794 0.13887 0.38077 0.0
C425 C 0.04372 0.0237 0.42714 0.0
C426 C 0.03506 0.03848 0.44679 0.0
C427 C 0.05366 0.03409 0.40593 0.0
C428 C 0.05467 0.05957 0.40352 0.0
C429 C 0.04623 0.07427 0.42329 0.0
C430 C 0.03668 0.0639 0.44462 0.0
C431 C 0.0647 0.07099 0.38069 0.0
C432 C 0.08306 0.08892 0.3829 0.0
C433 C 0.05655 0.06432 0.35685 0.0
C434 C 0.03586 0.04701 0.35289 0.0
C435 C 0.01154 0.05124 0.36363 0.0
C436 C 0.99218 0.03477 0.35994 0.0
C437 C 0.99683 0.01411 0.34538 0.0
C438 C 0.02085 0.0099 0.33442 0.0
C439 C 0.0403 0.0263 0.33807 0.0
H440 H 0.98182 1.00138 0.34255 0.0
H441 H 0.16495 0.16642 0.37594 0.0
H442 H 0.42457 0.863 0.77562 0.0
H443 H 0.43796 0.88096 0.81461 0.0
H444 H 0.38434 0.94209 0.80296 0.0
H445 H 0.37055 0.92402 0.76421 0.0
H446 H 0.43709 0.95416 0.81672 0.0
H447 H 0.36828 0.90397 0.84264 0.0
H448 H 0.34615 0.86539 0.84583 0.0
H449 H 0.41228 0.83203 0.88197 0.0
H450 H 0.43496 0.87033 0.87867 0.0
H451 H 0.45216 0.011 0.93239 0.0
H452 H 0.43504 0.99356 0.89474 0.0
H453 H 0.46446 0.92218 0.91699 0.0
H454 H 0.47981 0.93936 0.95532 0.0
H455 H 0.42289 0.91542 0.89699 0.0
H456 H 0.49342 0.96157 0.87062 0.0
H457 H 0.51931 0.99778 0.86622 0.0
H458 H 0.45613 0.0357 0.82964 0.0
H459 H 0.42975 0.99981 0.83409 0.0
C460 C 0.41555 0.8802 0.78144 0.0
C461 C 0.3964 0.89201 0.76685 0.0
C462 C 0.42319 0.89043 0.80374 0.0
C463 C 0.41216 0.91289 0.81175 0.0
C464 C 0.39312 0.92476 0.79718 0.0
C465 C 0.38512 0.91432 0.77512 0.0
C466 C 0.4207 0.92412 0.83516 0.0
C467 C 0.43373 0.9459 0.83434 0.0
C468 C 0.41709 0.91293 0.85807 0.0
C469 C 0.40341 0.88995 0.86018 0.0
C470 C 0.37819 0.88835 0.85107 0.0
C471 C 0.36553 0.86654 0.85294 0.0
C472 C 0.37783 0.84625 0.86404 0.0
C473 C 0.40279 0.84775 0.87335 0.0
C474 C 0.41555 0.86951 0.8715 0.0
C475 C 0.45486 0.99158 0.92924 0.0
C476 C 0.46738 0.97659 0.94685 0.0
C477 C 0.44527 0.98158 0.90754 0.0
C478 C 0.44887 0.95647 0.90243 0.0
C479 C 0.46127 0.94154 0.92021 0.0
C480 C 0.47015 0.95141 0.94219 0.0
C481 C 0.43965 0.94564 0.87882 0.0
C482 C 0.42641 0.92385 0.8795 0.0
C483 C 0.4437 0.95651 0.85569 0.0
C484 C 0.45953 0.97809 0.85292 0.0
C485 C 0.48499 0.97769 0.86178 0.0
C486 C 0.49976 0.99815 0.85926 0.0
C487 C 0.48934 0.01905 0.84772 0.0
C488 C 0.46416 0.01951 0.83861 0.0
C489 C 0.4493 0.99911 0.84111 0.0
H490 H 0.50081 0.03487 0.84578 0.0
H491 H 0.36799 0.82938 0.86547 0.0
H492 H 0.56069 0.4569 0.83578 0.0
H493 H 0.53929 0.46928 0.79748 0.0
H494 H 0.61235 0.46475 0.76048 0.0
H495 H 0.63372 0.45148 0.79809 0.0
H496 H 0.58012 0.50548 0.74662 0.0
H497 H 0.5769 0.41754 0.75871 0.0
H498 H 0.565 0.38133 0.78185 0.0
H499 H 0.48536 0.40571 0.77871 0.0
H500 H 0.49688 0.44228 0.75584 0.0
H501 H 0.56634 0.48319 0.62291 0.0
H502 H 0.57641 0.47947 0.66642 0.0
H503 H 0.49553 0.47539 0.68245 0.0
H504 H 0.48544 0.47846 0.63856 0.0
H505 H 0.5236 0.44441 0.71029 0.0
H506 H 0.52578 0.5286 0.69162 0.0
H507 H 0.53741 0.56473 0.66823 0.0
H508 H 0.61741 0.54888 0.6841 0.0
H509 H 0.60632 0.51243 0.70729 0.0
C510 C 0.57224 0.45866 0.81953 0.0
C511 C 0.59893 0.45297 0.82004 0.0
C512 C 0.55998 0.46589 0.79774 0.0
C513 C 0.57428 0.46773 0.77622 0.0
C514 C 0.60105 0.46354 0.77698 0.0
C515 C 0.61325 0.45607 0.79861 0.0
C516 C 0.56145 0.47186 0.75235 0.0
C517 C 0.56771 0.49221 0.73863 0.0
C518 C 0.54468 0.45484 0.74233 0.0
C519 C 0.53777 0.43277 0.75586 0.0
C520 C 0.55688 0.41527 0.76313 0.0
C521 C 0.5502 0.39467 0.77617 0.0
C522 C 0.52444 0.39126 0.78182 0.0
C523 C 0.5053 0.40841 0.77437 0.0
C524 C 0.51189 0.42907 0.76137 0.0
C525 C 0.55076 0.4813 0.63573 0.0
C526 C 0.52514 0.4813 0.62755 0.0
C527 C 0.55648 0.47934 0.66056 0.0
C528 C 0.53664 0.47788 0.67771 0.0
C529 C 0.51108 0.47676 0.66951 0.0
C530 C 0.50535 0.47841 0.64452 0.0
C531 C 0.54293 0.47769 0.70415 0.0
C532 C 0.53544 0.45808 0.71839 0.0
C533 C 0.55842 0.49553 0.71471 0.0
C534 C 0.5652 0.5177 0.70112 0.0
C535 C 0.54587 0.53275 0.69003 0.0
C536 C 0.55237 0.55329 0.67681 0.0
C537 C 0.57814 0.55908 0.67466 0.0
C538 C 0.59746 0.54437 0.68579 0.0
C539 C 0.59107 0.52379 0.69902 0.0
H540 H 0.58313 0.57497 0.66438 0.0
H541 H 0.51931 0.3753 0.79191 0.0
H542 H 0.8719 0.56055 0.32587 0.0
H543 H 0.89105 0.54719 0.28709 0.0
H544 H 0.96507 0.57024 0.31175 0.0
H545 H 0.94592 0.58429 0.35024 0.0
H546 H 0.9515 0.59031 0.2688 0.0
H547 H 0.95519 0.51015 0.30242 0.0
H548 H 0.93875 0.47427 0.32307 0.0
H549 H 0.88334 0.46609 0.26545 0.0
H550 H 0.8992 0.50215 0.2446 0.0
H551 H 0.0117 0.55262 0.15744 0.0
H552 H 1.00092 0.55689 0.20082 0.0
H553 H 0.92433 0.53353 0.18558 0.0
H554 H 0.9351 0.52898 0.14233 0.0
H555 H 0.94372 0.51151 0.2255 0.0
H556 H 0.93617 0.59371 0.19468 0.0
H557 H 0.95127 0.63015 0.17393 0.0
H558 H 0.01251 0.63487 0.22651 0.0
H559 H 0.99797 0.59824 0.24739 0.0
C560 C 0.89234 0.56241 0.32316 0.0
C561 C 0.90736 0.57362 0.34102 0.0
C562 C 0.9033 0.55458 0.30109 0.0
C563 C 0.92949 0.5577 0.29659 0.0
C564 C 0.94483 0.56765 0.31491 0.0
C565 C 0.93388 0.57548 0.33697 0.0
C566 C 0.94009 0.55322 0.27184 0.0
C567 C 0.95033 0.5729 0.25952 0.0
C568 C 0.93787 0.53073 0.25956 0.0
C569 C 0.92828 0.50899 0.27203 0.0
C570 C 0.93936 0.50083 0.29424 0.0
C571 C 0.93017 0.48043 0.30596 0.0
C572 C 0.90998 0.46794 0.2956 0.0
C573 C 0.89897 0.47579 0.27346 0.0
C574 C 0.90808 0.4962 0.26166 0.0
C575 C 0.99251 0.54863 0.16335 0.0
C576 C 0.97421 0.54054 0.14656 0.0
C577 C 0.9864 0.55099 0.18811 0.0
C578 C 0.96178 0.54564 0.19638 0.0
C579 C 0.94349 0.5376 0.17961 0.0
C580 C 0.94964 0.53507 0.15492 0.0
C581 C 0.95483 0.54868 0.22245 0.0
C582 C 0.94522 0.52878 0.23496 0.0
C583 C 0.95745 0.57102 0.23491 0.0
C584 C 0.96616 0.59309 0.22242 0.0
C585 C 0.95298 0.60241 0.2017 0.0
C586 C 0.96141 0.62311 0.18994 0.0
C587 C 0.98288 0.63477 0.19885 0.0
C588 C 0.99592 0.62579 0.2196 0.0
C589 C 0.98758 0.60507 0.23141 0.0
H590 H 0.98938 0.6508 0.18972 0.0
H591 H 0.90289 0.45214 0.30471 0.0
H592 H 0.25955 0.15508 0.10751 0.0
H593 H 0.29548 0.1329 0.08752 0.0
H594 H 0.28553 0.07142 0.13478 0.0
H595 H 0.24993 0.09379 0.15533 0.0
H596 H 0.33561 0.08091 0.13155 0.0
H597 H 0.26714 0.07025 0.07424 0.0
H598 H 0.23101 0.0831 0.04711 0.0
H599 H 0.28142 0.12603 0.00493 0.0
H600 H 0.31781 0.1137 0.03203 0.0
H601 H 0.42215 1.00053 0.06536 0.0
H602 H 0.38312 0.01885 0.08412 0.0
H603 H 0.38952 0.08291 0.03962 0.0
H604 H 0.42836 0.06471 0.02072 0.0
H605 H 0.3402 0.07019 0.04156 0.0
H606 H 0.40798 0.08257 0.09957 0.0
H607 H 0.44437 0.07024 0.12663 0.0
H608 H 0.39542 0.02458 0.16739 0.0
H609 H 0.3588 0.03638 0.14033 0.0
C610 C 0.26498 0.13685 0.11373 0.0
C611 C 0.25171 0.1263 0.13312 0.0
C612 C 0.28546 0.12407 0.1021 0.0
C613 C 0.29322 0.10031 0.10942 0.0
C614 C 0.27996 0.08967 0.12869 0.0
C615 C 0.25939 0.10243 0.1403 0.0
C616 C 0.31553 0.08691 0.09739 0.0
C617 C 0.33638 0.07821 0.1119 0.0
C618 C 0.31698 0.0838 0.07167 0.0
C619 C 0.29515 0.09123 0.05531 0.0
C620 C 0.27049 0.08259 0.0593 0.0
C621 C 0.24996 0.08975 0.0439 0.0
C622 C 0.2539 0.10542 0.02434 0.0
C623 C 0.27839 0.11391 0.0201 0.0
C624 C 0.29898 0.10683 0.03546 0.0
C625 C 0.41518 0.01846 0.05945 0.0
C626 C 0.42854 0.03113 0.04154 0.0
C627 C 0.39289 0.02899 0.0703 0.0
C628 C 0.38341 0.05244 0.06353 0.0
C629 C 0.39636 0.06484 0.04522 0.0
C630 C 0.41867 0.05439 0.03446 0.0
C631 C 0.3603 0.06429 0.07571 0.0
C632 C 0.33934 0.07274 0.06122 0.0
C633 C 0.35877 0.06723 0.10143 0.0
C634 C 0.38072 0.06014 0.11776 0.0
C635 C 0.40503 0.06974 0.11418 0.0
C636 C 0.42569 0.06288 0.12953 0.0
C637 C 0.42223 0.04658 0.14867 0.0
C638 C 0.39808 0.03716 0.15253 0.0
C639 C 0.37736 0.04394 0.1372 0.0
H640 H 0.43825 0.04129 0.16054 0.0
H641 H 0.23799 0.11094 0.01244 0.0
H642 H 0.27261 0.93887 0.62669 0.0
H643 H 0.23242 0.95614 0.60946 0.0
H644 H 0.20382 0.88412 0.60198 0.0
H645 H 0.2437 0.86661 0.61997 0.0
H646 H 0.19554 0.91228 0.56019 0.0
H647 H 0.18145 0.92048 0.64671 0.0
H648 H 0.19192 0.93313 0.68877 0.0
H649 H 0.19108 0.00791 0.66604 0.0
H650 H 0.18096 0.99566 0.62375 0.0
H651 H 0.06563 0.94579 0.53281 0.0
H652 H 0.10555 0.92877 0.55072 0.0
H653 H 0.12825 1.00116 0.56907 0.0
H654 H 0.08762 0.01827 0.55201 0.0
H655 H 0.14018 0.97295 0.60528 0.0
H656 H 0.15483 0.96597 0.51922 0.0
H657 H 0.1454 0.95431 0.47663 0.0
H658 H 0.14674 0.87892 0.49729 0.0
H659 H 0.15586 0.89015 0.54008 0.0
C660 C 0.25769 0.92661 0.62183 0.0
C661 C 0.26156 0.90123 0.62502 0.0
C662 C 0.23469 0.93658 0.6118 0.0
C663 C 0.21495 0.92148 0.60456 0.0
C664 C 0.21878 0.89616 0.60738 0.0
C665 C 0.24171 0.88616 0.61761 0.0
C666 C 0.19042 0.93214 0.59391 0.0
C667 C 0.18324 0.9253 0.57016 0.0
C668 C 0.17473 0.9497 0.60658 0.0
C669 C 0.1807 0.95712 0.63202 0.0
C670 C 0.18371 0.9396 0.65064 0.0
C671 C 0.18954 0.9467 0.67453 0.0
C672 C 0.19223 0.9713 0.68006 0.0
C673 C 0.18903 0.98886 0.66172 0.0
C674 C 0.18322 0.98185 0.63779 0.0
C675 C 0.07913 0.95815 0.54057 0.0
C676 C 0.07342 0.98345 0.54082 0.0
C677 C 0.10212 0.94836 0.55072 0.0
C678 C 0.12037 0.96362 0.5609 0.0
C679 C 0.11463 0.98892 0.56131 0.0
C680 C 0.0914 0.99872 0.55146 0.0
C681 C 0.14515 0.95313 0.57143 0.0
C682 C 0.15243 0.95998 0.59519 0.0
C683 C 0.1611 0.93576 0.55865 0.0
C684 C 0.1558 0.92893 0.5329 0.0
C685 C 0.15295 0.94691 0.51471 0.0
C686 C 0.14769 0.94038 0.49053 0.0
C687 C 0.14541 0.9159 0.48427 0.0
C688 C 0.14848 0.89788 0.50217 0.0
C689 C 0.15373 0.90432 0.52638 0.0
H690 H 0.14132 0.91088 0.46554 0.0
H691 H 0.19674 0.97677 0.69857 0.0
H692 H 0.73422 0.46844 0.93393 0.0
H693 H 0.77567 0.48225 0.94827 0.0
H694 H 0.77107 0.43706 0.01225 0.0
H695 H 0.72948 0.42289 0.99786 0.0
H696 H 0.79455 0.48973 0.01585 0.0
H697 H 0.80029 0.40983 0.97551 0.0
H698 H 0.78937 0.38232 0.94167 0.0
H699 H 0.82288 0.43034 0.89023 0.0
H700 H 0.83353 0.45838 0.92377 0.0
H701 H 0.92759 0.48399 0.04438 0.0
H702 H 0.88282 0.47367 0.03801 0.0
H703 H 0.89034 0.48699 0.96065 0.0
H704 H 0.93553 0.49596 0.96682 0.0
H705 H 0.86396 0.44994 0.96572 0.0
H706 H 0.85982 0.52922 0.00267 0.0
H707 H 0.86897 0.56026 0.0338 0.0
H708 H 0.83169 0.51856 0.08837 0.0
H709 H 0.82262 0.4871 0.05762 0.0
C710 C 0.74154 0.46211 0.95149 0.0
C711 C 0.72873 0.44452 0.96477 0.0
C712 C 0.76524 0.46995 0.95959 0.0
C713 C 0.77632 0.46053 0.98118 0.0
C714 C 0.76265 0.44454 0.99557 0.0
C715 C 0.73904 0.4364 0.98729 0.0
C716 C 0.80358 0.46459 0.98661 0.0
C717 C 0.80986 0.48083 0.00523 0.0
C718 C 0.82327 0.45344 0.97216 0.0
C719 C 0.81746 0.43629 0.9521 0.0
C720 C 0.80513 0.41461 0.95696 0.0
C721 C 0.79901 0.39891 0.93785 0.0
C722 C 0.80537 0.4046 0.91381 0.0
C723 C 0.81794 0.42597 0.90885 0.0
C724 C 0.82402 0.44176 0.92791 0.0
C725 C 0.91968 0.48452 0.026 0.0
C726 C 0.93492 0.49083 0.00608 0.0
C727 C 0.89405 0.47883 0.0224 0.0
C728 C 0.88297 0.48012 0.99893 0.0
C729 C 0.8984 0.48593 0.97895 0.0
C730 C 0.92421 0.49104 0.98247 0.0
C731 C 0.85537 0.47533 0.99507 0.0
C732 C 0.84889 0.45886 0.97661 0.0
C733 C 0.83552 0.48671 0.0094 0.0
C734 C 0.84077 0.50569 0.02789 0.0
C735 C 0.85372 0.5266 0.02134 0.0
C736 C 0.85888 0.54428 0.03892 0.0
C737 C 0.85098 0.54135 0.06306 0.0
C738 C 0.83783 0.52078 0.06967 0.0
C739 C 0.83266 0.50303 0.05217 0.0
H740 H 0.855 0.55506 0.07665 0.0
H741 H 0.80062 0.39243 0.89903 0.0
H742 H 0.78859 0.55972 0.46246 0.0
H743 H 0.74726 0.54318 0.47248 0.0
H744 H 0.72306 0.61134 0.50653 0.0
H745 H 0.76496 0.62752 0.49795 0.0
H746 H 0.70188 0.57533 0.52925 0.0
H747 H 0.71083 0.60049 0.44574 0.0
H748 H 0.73129 0.6009 0.40517 0.0
H749 H 0.7193 0.52454 0.39649 0.0
H750 H 0.6991 0.52362 0.43718 0.0
H751 H 0.5688 0.56009 0.46457 0.0
H752 H 0.61349 0.57212 0.46405 0.0
H753 H 0.63212 0.52194 0.52282 0.0
H754 H 0.58736 0.51057 0.52407 0.0
H755 H 0.65631 0.54883 0.45445 0.0
H756 H 0.68015 0.54252 0.55803 0.0
H757 H 0.65786 0.54725 0.59759 0.0
H758 H 0.60033 0.5953 0.56439 0.0
H759 H 0.62245 0.59112 0.52474 0.0
C760 C 0.77489 0.57092 0.47288 0.0
C761 C 0.7799 0.59515 0.47897 0.0
C762 C 0.75113 0.56151 0.47836 0.0
C763 C 0.73183 0.57629 0.48958 0.0
C764 C 0.73757 0.5997 0.4976 0.0
C765 C 0.76145 0.60901 0.49244 0.0
C766 C 0.70496 0.5685 0.49055 0.0
C767 C 0.69194 0.56937 0.51295 0.0
C768 C 0.69178 0.56138 0.46914 0.0
C769 C 0.70371 0.56193 0.44459 0.0
C770 C 0.71271 0.58376 0.43523 0.0
C771 C 0.72424 0.58409 0.41222 0.0
C772 C 0.72665 0.56275 0.39829 0.0
C773 C 0.71746 0.54105 0.40732 0.0
C774 C 0.70596 0.54061 0.43035 0.0
C775 C 0.58243 0.55169 0.47741 0.0
C776 C 0.57458 0.53452 0.49445 0.0
C777 C 0.60796 0.55853 0.47707 0.0
C778 C 0.62609 0.54817 0.49362 0.0
C779 C 0.61837 0.53061 0.51027 0.0
C780 C 0.59279 0.52404 0.51087 0.0
C781 C 0.65316 0.55553 0.49318 0.0
C782 C 0.66625 0.55457 0.47083 0.0
C783 C 0.66607 0.56332 0.5145 0.0
C784 C 0.65283 0.56628 0.53836 0.0
C785 C 0.6628 0.55417 0.55921 0.0
C786 C 0.65018 0.55674 0.58164 0.0
C787 C 0.62764 0.5715 0.58349 0.0
C788 C 0.61773 0.5838 0.56292 0.0
C789 C 0.63029 0.58131 0.54046 0.0
H790 H 0.61788 0.57343 0.60086 0.0
H791 H 0.73559 0.56304 0.38047 0.0
H792 H 0.1368 0.26049 0.10408 0.0
H793 H 0.11913 0.29616 0.08208 0.0
H794 H 0.07495 0.31809 0.14556 0.0
H795 H 0.09134 0.28178 0.16717 0.0
H796 H 0.04661 0.32663 0.10752 0.0
H797 H 0.13361 0.34474 0.12809 0.0
H798 H 0.18084 0.33803 0.12929 0.0
H799 H 0.18315 0.33904 0.05082 0.0
H800 H 0.13587 0.34546 0.04916 0.0
H801 H 0.02225 0.45206 0.08105 0.0
H802 H 0.0384 0.4133 0.09828 0.0
H803 H 0.07156 0.3928 0.02873 0.0
H804 H 0.05535 0.43175 0.01123 0.0
H805 H 0.10521 0.38258 0.06714 0.0
H806 H 0.01754 0.36716 0.04752 0.0
H807 H 0.9705 0.37532 0.04751 0.0
H808 H 0.9698 0.37062 0.12586 0.0
H809 H 0.01691 0.36277 0.12636 0.0
C810 C 0.12301 0.27262 0.11332 0.0
C811 C 0.11577 0.26807 0.13764 0.0
C812 C 0.11315 0.29334 0.10075 0.0
C813 C 0.09601 0.31033 0.1122 0.0
C814 C 0.08825 0.30551 0.13622 0.0
C815 C 0.09792 0.28473 0.14872 0.0
C816 C 0.08619 0.33312 0.09935 0.0
C817 C 0.05954 0.33894 0.09895 0.0
C818 C 0.10278 0.34916 0.08754 0.0
C819 C 0.13119 0.3453 0.0885 0.0
C820 C 0.14418 0.34334 0.11109 0.0
C821 C 0.17095 0.33962 0.11185 0.0
C822 C 0.18498 0.33803 0.09014 0.0
C823 C 0.17225 0.34023 0.06762 0.0
C824 C 0.14547 0.34392 0.06676 0.0
C825 C 0.03291 0.43934 0.0693 0.0
C826 C 0.03737 0.44511 0.04465 0.0
C827 C 0.04209 0.41706 0.07922 0.0
C828 C 0.05605 0.39988 0.06482 0.0
C829 C 0.0608 0.40566 0.04025 0.0
C830 C 0.05142 0.42793 0.03022 0.0
C831 C 0.06577 0.37609 0.0756 0.0
C832 C 0.09235 0.37014 0.0756 0.0
C833 C 0.04915 0.36004 0.08723 0.0
C834 C 0.02079 0.36458 0.08698 0.0
C835 C 0.00738 0.36804 0.06476 0.0
C836 C 0.9807 0.37258 0.06466 0.0
C837 C 0.96718 0.37354 0.08667 0.0
C838 C 0.98031 0.36989 0.10882 0.0
C839 C 0.007 0.36537 0.10902 0.0
H840 H 0.94652 0.37706 0.08656 0.0
H841 H 0.20571 0.33516 0.09077 0.0
H842 H 0.56649 0.31165 0.9019 0.0
H843 H 0.54474 0.27556 0.9151 0.0
H844 H 0.57951 0.28127 0.98661 0.0
H845 H 0.60199 0.31698 0.97325 0.0
H846 H 0.58906 0.2375 0.967 0.0
H847 H 0.51428 0.28978 0.97863 0.0
H848 H 0.4809 0.32128 0.96773 0.0
H849 H 0.45569 0.27689 0.90829 0.0
H850 H 0.48918 0.24524 0.9186 0.0
H851 H 0.533 0.13401 0.01267 0.0
H852 H 0.54115 0.17708 0.00741 0.0
H853 H 0.5114 0.17441 0.93367 0.0
H854 H 0.50287 0.13115 0.939 0.0
H855 H 0.49738 0.21779 0.95726 0.0
H856 H 0.57456 0.16799 0.94292 0.0
H857 H 0.60814 0.13639 0.95307 0.0
H858 H 0.62913 0.17682 0.01688 0.0
H859 H 0.59538 0.2085 0.0073 0.0
C860 C 0.56925 0.30537 0.92053 0.0
C861 C 0.58619 0.31692 0.93646 0.0
C862 C 0.55657 0.28492 0.92814 0.0
C863 C 0.56045 0.27578 0.95186 0.0
C864 C 0.57623 0.28809 0.96823 0.0
C865 C 0.58894 0.30855 0.96062 0.0
C866 C 0.55075 0.25178 0.95846 0.0
C867 C 0.56891 0.23338 0.96541 0.0
C868 C 0.5246 0.24621 0.95556 0.0
C869 C 0.5044 0.2652 0.94929 0.0
C870 C 0.50177 0.28681 0.9631 0.0
C871 C 0.48279 0.30468 0.95705 0.0
C872 C 0.46622 0.30111 0.9373 0.0
C873 C 0.46855 0.27963 0.92358 0.0
C874 C 0.48751 0.26171 0.92954 0.0
C875 C 0.52811 0.14264 0.99537 0.0
C876 C 0.51779 0.12921 0.97605 0.0
C877 C 0.53265 0.16723 0.99244 0.0
C878 C 0.52728 0.17877 0.97003 0.0
C879 C 0.51571 0.16577 0.9511 0.0
C880 C 0.51093 0.14112 0.95411 0.0
C881 C 0.53571 0.20373 0.96583 0.0
C882 C 0.51743 0.22215 0.95917 0.0
C883 C 0.56181 0.2094 0.96886 0.0
C884 C 0.58227 0.19048 0.97453 0.0
C885 C 0.58621 0.17005 0.95921 0.0
C886 C 0.60529 0.15214 0.96485 0.0
C887 C 0.62071 0.15456 0.98564 0.0
C888 C 0.61714 0.17495 1.0008 0.0
C889 C 0.59805 0.19289 0.99527 0.0
H890 H 0.63548 0.14068 0.98998 0.0
H891 H 0.45154 0.31497 0.93264 0.0
H892 H 0.92399 0.70868 0.49488 0.0
H893 H 0.94858 0.74472 0.50107 0.0
H894 H 0.01072 0.71247 0.45828 0.0
H895 H 0.98647 0.67578 0.45252 0.0
H896 H 0.99793 0.76186 0.51405 0.0
H897 H 0.01823 0.75374 0.41239 0.0
H898 H 0.00459 0.73009 0.37647 0.0
H899 H 0.92908 0.7254 0.40702 0.0
H900 H 0.94216 0.74938 0.44283 0.0
H901 H 0.03929 0.8789 0.48232 0.0
H902 H 0.04058 0.83439 0.48118 0.0
H903 H 0.96352 0.83645 0.45131 0.0
H904 H 0.96239 0.88095 0.45165 0.0
H905 H 0.99344 0.79953 0.43158 0.0
H906 H 0.97502 0.83469 0.51143 0.0
H907 H 0.98609 0.85965 0.54707 0.0
H908 H 0.05156 0.81145 0.56231 0.0
H909 H 0.04166 0.78687 0.52588 0.0
C910 C 0.94341 0.70858 0.48784 0.0
C911 C 0.95299 0.68961 0.47261 0.0
C912 C 0.95748 0.72931 0.49141 0.0
C913 C 0.98115 0.73141 0.47966 0.0
C914 C 0.99231 0.71122 0.46725 0.0
C915 C 0.97833 0.69038 0.46382 0.0
C916 C 0.99067 0.75599 0.47576 0.0
C917 C 0.99755 0.77001 0.496 0.0
C918 C 0.98964 0.76665 0.45222 0.0
C919 C 0.98128 0.75306 0.43036 0.0
C920 C 0.99869 0.74775 0.41133 0.0
C921 C 0.99106 0.7343 0.39101 0.0
C922 C 0.96601 0.72618 0.3895 0.0
C923 C 0.94848 0.73166 0.40822 0.0
C924 C 0.95599 0.74518 0.42852 0.0
C925 C 0.02291 0.8699 0.47482 0.0
C926 C 1.0006 0.88342 0.46728 0.0
C927 C 0.02364 0.84446 0.47433 0.0
C928 C 0.00203 0.83218 0.46649 0.0
C929 C 0.98039 0.84562 0.45749 0.0
C930 C 0.97966 0.87102 0.45791 0.0
C931 C 1.0006 0.80559 0.46991 0.0
C932 C 0.99494 0.79122 0.44954 0.0
C933 C 0.00235 0.79479 0.49342 0.0
C934 C 0.00781 0.80914 0.51573 0.0
C935 C 0.99191 0.82952 0.52224 0.0
C936 C 0.99797 0.8436 0.54261 0.0
C937 C 0.01942 0.83708 0.55706 0.0
C938 C 0.03495 0.8165 0.55109 0.0
C939 C 0.02921 0.80256 0.5305 0.0
H940 H 0.02401 0.84799 0.57287 0.0
H941 H 0.96018 0.71568 0.37381 0.0
H942 H 0.44205 0.76513 0.62829 0.0
H943 H 0.45534 0.72711 0.60774 0.0
H944 H 0.37596 0.71362 0.59177 0.0
H945 H 0.36247 0.75178 0.6123 0.0
H946 H 0.40061 0.67231 0.60493 0.0
H947 H 0.41609 0.73521 0.5476 0.0
H948 H 0.43336 0.7736 0.5331 0.0
H949 H 0.51046 0.74512 0.54648 0.0
H950 H 0.49363 0.70666 0.5614 0.0
H951 H 0.46171 0.60087 0.49314 0.0
H952 H 0.44504 0.63905 0.51186 0.0
H953 H 0.46399 0.61044 0.58338 0.0
H954 H 0.48036 0.57234 0.56494 0.0
H955 H 0.46606 0.67329 0.53931 0.0
H956 H 0.4198 0.6312 0.62474 0.0
H957 H 0.39951 0.59325 0.63641 0.0
H958 H 0.37827 0.58095 0.56155 0.0
H959 H 0.39811 0.61898 0.54949 0.0
C960 C 0.42735 0.75418 0.62033 0.0
C961 C 0.40114 0.76178 0.62182 0.0
C962 C 0.43502 0.73235 0.60855 0.0
C963 C 0.41674 0.71755 0.59774 0.0
C964 C 0.3905 0.72466 0.59987 0.0
C965 C 0.38279 0.74651 0.61172 0.0
C966 C 0.42508 0.69488 0.58405 0.0
C967 C 0.41494 0.67257 0.59062 0.0
C968 C 0.44337 0.69509 0.5649 0.0
C969 C 0.45358 0.71813 0.55581 0.0
C970 C 0.43672 0.73719 0.54761 0.0
C971 C 0.44643 0.75896 0.53929 0.0
C972 C 0.47299 0.76182 0.53892 0.0
C973 C 0.48989 0.74289 0.5468 0.0
C974 C 0.48028 0.72109 0.55517 0.0
C975 C 0.46237 0.60272 0.51285 0.0
C976 C 0.4723 0.5834 0.52748 0.0
C977 C 0.45285 0.62461 0.52355 0.0
C978 C 0.45287 0.62762 0.54912 0.0
C979 C 0.46327 0.60852 0.56368 0.0
C980 C 0.47277 0.58671 0.55303 0.0
C981 C 0.4421 0.65065 0.56066 0.0
C982 C 0.45176 0.67303 0.55366 0.0
C983 C 0.423 0.65056 0.57907 0.0
C984 C 0.41066 0.62784 0.5862 0.0
C985 C 0.4107 0.62045 0.61079 0.0
C986 C 0.3993 0.59892 0.61747 0.0
C987 C 0.38768 0.58466 0.59972 0.0
C988 C 0.38736 0.59196 0.57526 0.0
C989 C 0.39871 0.61349 0.5685 0.0
H990 H 0.37889 0.56799 0.60492 0.0
H991 H 0.48047 0.77868 0.53247 0.0
H992 H 0.93204 0.90577 0.76797 0.0
H993 H 0.94543 0.92403 0.72953 0.0
H994 H 0.87185 0.90973 0.69722 0.0
H995 H 0.85817 0.89169 0.73586 0.0
H996 H 0.91636 0.89591 0.66721 0.0
H997 H 0.88101 0.96507 0.71219 0.0
H998 H 0.87676 0.99227 0.74803 0.0
H999 H 0.95646 0.00862 0.74245 0.0
H1000 H 0.96129 0.98122 0.70677 0.0
H1001 H 0.93775 0.96083 0.55727 0.0
H1002 H 0.91976 0.94401 0.59449 0.0
H1003 H 0.9764 0.98024 0.63772 0.0
H1004 H 0.99269 0.99875 0.60065 0.0
H1005 H 0.93798 0.98271 0.66258 0.0
H1006 H 0.97604 0.91249 0.62092 0.0
H1007 H 0.98338 0.88285 0.58743 0.0
H1008 H 0.90351 0.86616 0.58845 0.0
H1009 H 0.89568 0.89584 0.62183 0.0
C1010 C 0.91872 0.90639 0.75266 0.0
C1011 C 0.89402 0.89716 0.75504 0.0
C1012 C 0.92636 0.91698 0.73071 0.0
C1013 C 0.90966 0.91837 0.71041 0.0
C1014 C 0.8851 0.90891 0.71258 0.0
C1015 C 0.87725 0.89869 0.73472 0.0
C1016 C 0.91795 0.92964 0.68699 0.0
C1017 C 0.92079 0.91498 0.66604 0.0
C1018 C 0.92448 0.95432 0.6856 0.0
C1019 C 0.92156 0.97092 0.70694 0.0
C1020 C 0.89768 0.97431 0.71872 0.0
C1021 C 0.89516 0.98979 0.73899 0.0
C1022 C 0.91634 1.00212 0.74755 0.0
C1023 C 0.94008 0.99904 0.73582 0.0
C1024 C 0.94271 0.98355 0.71556 0.0
C1025 C 0.94624 0.96526 0.57477 0.0
C1026 C 0.96665 0.98113 0.57598 0.0
C1027 C 0.93615 0.95536 0.59616 0.0
C1028 C 0.94699 0.9601 0.61931 0.0
C1029 C 0.96742 0.97609 0.62037 0.0
C1030 C 0.97686 0.98669 0.59908 0.0
C1031 C 0.937 0.94891 0.64241 0.0
C1032 C 0.93371 0.9636 0.66346 0.0
C1033 C 0.93061 0.92405 0.64403 0.0
C1034 C 0.93524 0.90655 0.62368 0.0
C1035 C 0.96002 0.90263 0.61386 0.0
C1036 C 0.96426 0.88579 0.59492 0.0
C1037 C 0.94389 0.87267 0.58577 0.0
C1038 C 0.91925 0.87636 0.59553 0.0
C1039 C 0.91491 0.89316 0.61447 0.0
H1040 H 0.94715 0.85957 0.57119 0.0
H1041 H 0.91435 0.01409 0.76324 0.0
H1042 H 0.59035 0.15758 0.23313 0.0
H1043 H 0.57369 0.13492 0.19871 0.0
H1044 H 0.6134 0.06935 0.22493 0.0
H1045 H 0.63169 0.09234 0.25863 0.0
H1046 H 0.61854 0.07028 0.17831 0.0
H1047 H 0.54538 0.08097 0.22973 0.0
H1048 H 0.51299 0.10292 0.25534 0.0
H1049 H 0.48749 0.14579 0.19351 0.0
H1050 H 0.51997 0.12432 0.1676 0.0
H1051 H 0.54423 0.99556 0.09663 0.0
H1052 H 0.56129 0.01403 0.13405 0.0
H1053 H 0.54315 0.08562 0.1049 0.0
H1054 H 0.52671 0.06744 0.06742 0.0
H1055 H 0.5263 0.07831 0.15459 0.0
H1056 H 0.60214 0.06723 0.10419 0.0
H1057 H 0.63342 0.04292 0.07937 0.0
H1058 H 0.65227 0.99754 0.14132 0.0
H1059 H 0.62078 0.02137 0.16641 0.0
C1060 C 0.59585 0.1384 0.23159 0.0
C1061 C 0.61258 0.12699 0.24889 0.0
C1062 C 0.5859 0.12528 0.21194 0.0
C1063 C 0.59183 0.10018 0.20921 0.0
C1064 C 0.60836 0.08864 0.22652 0.0
C1065 C 0.6186 0.10183 0.24606 0.0
C1066 C 0.58128 0.08626 0.188 0.0
C1067 C 0.59826 0.07177 0.17348 0.0
C1068 C 0.55484 0.08817 0.18125 0.0
C1069 C 0.53528 0.10117 0.19677 0.0
C1070 C 0.533 0.0952 0.22163 0.0
C1071 C 0.5146 0.10754 0.2362 0.0
C1072 C 0.49823 0.12578 0.22607 0.0
C1073 C 0.5002 0.13167 0.20134 0.0
C1074 C 0.51859 0.11941 0.1867 0.0
C1075 C 0.54397 0.01523 0.09817 0.0
C1076 C 0.53417 0.02999 0.07895 0.0
C1077 C 0.55374 0.02577 0.11956 0.0
C1078 C 0.55351 0.05125 0.12231 0.0
C1079 C 0.54351 0.06595 0.10324 0.0
C1080 C 0.53422 0.05548 0.08175 0.0
C1081 C 0.5636 0.06276 0.14498 0.0
C1082 C 0.54651 0.07676 0.1597 0.0
C1083 C 0.58979 0.06008 0.1521 0.0
C1084 C 0.60889 0.0459 0.1371 0.0
C1085 C 0.61278 0.05193 0.11246 0.0
C1086 C 0.63058 0.03827 0.09835 0.0
C1087 C 0.64477 0.01865 0.10874 0.0
C1088 C 0.64124 0.01271 0.13328 0.0
C1089 C 0.62343 0.02629 0.14746 0.0
H1090 H 0.65853 0.00809 0.09778 0.0
H1091 H 0.484 0.13531 0.23738 0.0
H1092 H 0.41518 0.5352 0.17028 0.0
H1093 H 0.42255 0.53383 0.21458 0.0
H1094 H 0.48518 0.58201 0.20704 0.0
H1095 H 0.47786 0.58349 0.16272 0.0
H1096 H 0.49578 0.54136 0.23866 0.0
H1097 H 0.43155 0.60603 0.22558 0.0
H1098 H 0.39069 0.62417 0.20934 0.0
H1099 H 0.34843 0.57272 0.25 0.0
H1100 H 0.38909 0.55402 0.2662 0.0
H1101 H 0.5088 0.56606 0.36496 0.0
H1102 H 0.50294 0.57219 0.32101 0.0
H1103 H 0.43126 0.53577 0.32366 0.0
H1104 H 0.4362 0.53085 0.36773 0.0
H1105 H 0.42637 0.57262 0.29396 0.0
H1106 H 0.48883 0.50623 0.30528 0.0
H1107 H 0.5289 0.48604 0.32107 0.0
H1108 H 0.57351 0.53791 0.28348 0.0
H1109 H 0.53367 0.55861 0.26773 0.0
C1110 C 0.43072 0.54523 0.17807 0.0
C1111 C 0.44593 0.55949 0.16317 0.0
C1112 C 0.43479 0.54457 0.20332 0.0
C1113 C 0.45425 0.558 0.214 0.0
C1114 C 0.47003 0.57159 0.19908 0.0
C1115 C 0.46577 0.57249 0.17386 0.0
C1116 C 0.4577 0.55831 0.24083 0.0
C1117 C 0.4808 0.5485 0.2508 0.0
C1118 C 0.43786 0.56717 0.25653 0.0
C1119 C 0.41338 0.57848 0.24692 0.0
C1120 C 0.41356 0.59845 0.2309 0.0
C1121 C 0.39043 0.60886 0.22173 0.0
C1122 C 0.36698 0.59957 0.22859 0.0
C1123 C 0.36661 0.57988 0.24468 0.0
C1124 C 0.38969 0.56938 0.25388 0.0
C1125 C 0.49153 0.5598 0.35629 0.0
C1126 C 0.47311 0.54771 0.36985 0.0
C1127 C 0.48836 0.56305 0.3311 0.0
C1128 C 0.46694 0.55395 0.31895 0.0
C1129 C 0.44805 0.54277 0.33259 0.0
C1130 C 0.45105 0.53974 0.35777 0.0
C1131 C 0.46442 0.55541 0.29197 0.0
C1132 C 0.44147 0.56557 0.2819 0.0
C1133 C 0.48429 0.54658 0.27618 0.0
C1134 C 0.50827 0.53412 0.28555 0.0
C1135 C 0.50718 0.51343 0.30053 0.0
C1136 C 0.52985 0.50188 0.30945 0.0
C1137 C 0.55373 0.51073 0.30334 0.0
C1138 C 0.555 0.53111 0.28823 0.0
C1139 C 0.53238 0.54274 0.27929 0.0
H1140 H 0.57126 0.50176 0.31025 0.0
H1141 H 0.3491 0.60766 0.22148 0.0
H1142 H 0.04668 0.43768 0.68716 0.0
H1143 H 0.03413 0.4518 0.72801 0.0
H1144 H 0.10711 0.48521 0.73656 0.0
H1145 H 0.12017 0.47043 0.69626 0.0
H1146 H 0.09875 0.45402 0.77264 0.0
H1147 H 0.05081 0.51967 0.7333 0.0
H1148 H 0.01944 0.53847 0.70422 0.0
H1149 H 0.95875 0.49996 0.73738 0.0
H1150 H 0.98982 0.48065 0.76646 0.0
H1151 H 0.07786 0.5052 0.88916 0.0
H1152 H 0.08515 0.50032 0.84538 0.0
H1153 H 0.01181 0.46744 0.83739 0.0
H1154 H 0.00384 0.47322 0.88113 0.0
H1155 H 0.01955 0.49928 0.80081 0.0
H1156 H 0.06697 0.43232 0.83847 0.0
H1157 H 0.09787 0.41251 0.86738 0.0
H1158 H 0.15905 0.45228 0.83673 0.0
H1159 H 0.12843 0.47258 0.80785 0.0
C1160 C 0.05988 0.44836 0.6976 0.0
C1161 C 0.08452 0.45271 0.68855 0.0
C1162 C 0.05259 0.45661 0.72085 0.0
C1163 C 0.06974 0.4695 0.73531 0.0
C1164 C 0.09362 0.47526 0.72567 0.0
C1165 C 0.10095 0.46697 0.70251 0.0
C1166 C 0.06421 0.47431 0.76144 0.0
C1167 C 0.08166 0.46433 0.77878 0.0
C1168 C 0.04144 0.48694 0.7694 0.0
C1169 C 0.02271 0.49853 0.75192 0.0
C1170 C 0.03081 0.51503 0.73426 0.0
C1171 C 0.01307 0.52583 0.7178 0.0
C1172 C 0.98713 0.52037 0.71891 0.0
C1173 C 0.97886 0.50415 0.73652 0.0
C1174 C 0.99652 0.4933 0.75301 0.0
C1175 C 0.06315 0.49714 0.87808 0.0
C1176 C 0.0403 0.48953 0.88865 0.0
C1177 C 0.06744 0.4942 0.85309 0.0
C1178 C 0.04914 0.48329 0.8382 0.0
C1179 C 0.02619 0.47586 0.84859 0.0
C1180 C 0.02182 0.4789 0.87362 0.0
C1181 C 0.05427 0.47923 0.81188 0.0
C1182 C 0.03671 0.48915 0.79459 0.0
C1183 C 0.07688 0.46639 0.80386 0.0
C1184 C 0.09536 0.45414 0.82116 0.0
C1185 C 0.08698 0.43698 0.83802 0.0
C1186 C 0.10444 0.42564 0.85438 0.0
C1187 C 0.13039 0.43118 0.85394 0.0
C1188 C 0.13894 0.44803 0.83708 0.0
C1189 C 0.12154 0.45944 0.8207 0.0
H1190 H 0.14389 0.42238 0.86662 0.0
H1191 H 0.97342 0.52875 0.70616 0.0
H1192 H 0.74612 0.86507 0.90059 0.0
H1193 H 0.70556 0.88056 0.91867 0.0
H1194 H 0.73132 0.95394 0.91431 0.0
H1195 H 0.77209 0.93843 0.89691 0.0
H1196 H 0.70994 0.94948 0.95587 0.0
H1197 H 0.6838 0.92956 0.87443 0.0
H1198 H 0.67899 0.90361 0.83797 0.0
H1199 H 0.63571 0.85384 0.87975 0.0
H1200 H 0.64056 0.87933 0.91657 0.0
H1201 H 0.58652 0.0109 0.97318 0.0
H1202 H 0.62679 0.99448 0.95514 0.0
H1203 H 0.60671 0.92171 0.97409 0.0
H1204 H 0.56659 0.93799 0.99245 0.0
H1205 H 0.62459 0.92564 0.92557 0.0
H1206 H 0.65062 0.94746 0.00695 0.0
H1207 H 0.65449 0.9752 0.04217 0.0
H1208 H 0.69732 0.02368 0.99842 0.0
H1209 H 0.69337 0.99639 0.9628 0.0
C1210 C 0.74302 0.88453 0.90326 0.0
C1211 C 0.76243 0.90047 0.89727 0.0
C1212 C 0.71973 0.89343 0.91359 0.0
C1213 C 0.715 0.91857 0.91772 0.0
C1214 C 0.73433 0.93449 0.9115 0.0
C1215 C 0.7577 0.92558 0.90149 0.0
C1216 C 0.69026 0.92832 0.92893 0.0
C1217 C 0.69133 0.94446 0.94893 0.0
C1218 C 0.66573 0.92159 0.92041 0.0
C1219 C 0.66278 0.90622 0.89831 0.0
C1220 C 0.67343 0.91298 0.87589 0.0
C1221 C 0.67066 0.89837 0.85515 0.0
C1222 C 0.65711 0.87705 0.85656 0.0
C1223 C 0.64624 0.87033 0.8787 0.0
C1224 C 0.64897 0.88486 0.8995 0.0
C1225 C 0.59069 0.9914 0.9736 0.0
C1226 C 0.57328 0.9758 0.98438 0.0
C1227 C 0.61377 0.98203 0.96329 0.0
C1228 C 0.6199 0.95682 0.96328 0.0
C1229 C 0.60246 0.9412 0.97384 0.0
C1230 C 0.57955 0.95058 0.98445 0.0
C1231 C 0.64444 0.94676 0.95226 0.0
C1232 C 0.64328 0.93059 0.93238 0.0
C1233 C 0.66886 0.95368 0.96068 0.0
C1234 C 0.67148 0.97 0.98214 0.0
C1235 C 0.66069 0.96413 0.00478 0.0
C1236 C 0.66293 0.97976 0.02483 0.0
C1237 C 0.67608 1.00122 0.02252 0.0
C1238 C 0.6871 0.00706 1.00017 0.0
C1239 C 0.68489 0.99151 0.98005 0.0
H1240 H 0.67778 0.0133 0.03806 0.0
H1241 H 0.65499 0.86577 0.84048 0.0
H1242 H 0.7816 0.14128 0.36347 0.0
H1243 H 0.81721 0.12026 0.38512 0.0
H1244 H 0.7633 0.08416 0.43053 0.0
H1245 H 0.72738 0.10521 0.40882 0.0
H1246 H 0.8023 0.09863 0.45771 0.0
H1247 H 0.79486 0.05379 0.38346 0.0
H1248 H 0.79174 0.04773 0.33887 0.0
H1249 H 0.86626 0.07689 0.3297 0.0
H1250 H 0.86967 0.08345 0.37423 0.0
H1251 H 0.91933 1.00161 0.46207 0.0
H1252 H 0.87954 0.01848 0.44329 0.0
H1253 H 0.89135 0.08778 0.47785 0.0
H1254 H 0.93072 0.07089 0.49712 0.0
H1255 H 0.8706 0.05271 0.41142 0.0
H1256 H 0.83477 0.11863 0.48846 0.0
H1257 H 0.83577 0.12117 0.5335 0.0
H1258 H 0.84386 0.04317 0.53806 0.0
H1259 H 0.84256 0.04014 0.49307 0.0
C1260 C 0.77721 0.12868 0.37787 0.0
C1261 C 0.75148 0.12479 0.38414 0.0
C1262 C 0.79768 0.11667 0.39032 0.0
C1263 C 0.79307 0.10026 0.40928 0.0
C1264 C 0.76744 0.09668 0.41597 0.0
C1265 C 0.74688 0.10878 0.40353 0.0
C1266 C 0.81505 0.08692 0.422 0.0
C1267 C 0.81721 0.08858 0.44757 0.0
C1268 C 0.83434 0.07329 0.40895 0.0
C1269 C 0.83242 0.0693 0.38217 0.0
C1270 C 0.8105 0.05907 0.37192 0.0
C1271 C 0.80869 0.05553 0.34666 0.0
C1272 C 0.82876 0.06197 0.33146 0.0
C1273 C 0.85072 0.07193 0.3415 0.0
C1274 C 0.85261 0.07554 0.36675 0.0
C1275 C 0.91335 0.02038 0.46585 0.0
C1276 C 0.92826 0.03482 0.48122 0.0
C1277 C 0.89059 0.03006 0.45501 0.0
C1278 C 0.88212 0.05439 0.45927 0.0
C1279 C 0.89703 0.06883 0.47459 0.0
C1280 C 0.91969 0.05914 0.48555 0.0
C1281 C 0.85822 0.06488 0.44711 0.0
C1282 C 0.85569 0.06271 0.42161 0.0
C1283 C 0.83834 0.07759 0.46029 0.0
C1284 C 0.8388 0.07919 0.48738 0.0
C1285 C 0.83664 0.10202 0.49907 0.0
C1286 C 0.83729 0.10354 0.52459 0.0
C1287 C 0.83996 0.08235 0.53862 0.0
C1288 C 0.84189 0.05958 0.52717 0.0
C1289 C 0.84123 0.05795 0.50166 0.0
H1290 H 0.84048 0.08358 0.55838 0.0
H1291 H 0.82733 0.05921 0.31191 0.0
H1292 H 0.29846 0.56473 0.01144 0.0
H1293 H 0.25179 0.56202 0.00922 0.0
H1294 H 0.24905 0.55239 0.08741 0.0
H1295 H 0.29591 0.55397 0.08965 0.0
H1296 H 0.21868 0.52183 0.06536 0.0
H1297 H 0.23095 0.6072 0.06091 0.0
H1298 H 0.2492 0.64484 0.04562 0.0
H1299 H 0.2171 0.63202 0.97448 0.0
H1300 H 0.19895 0.5941 0.98925 0.0
H1301 H 0.08213 0.54096 0.06975 0.0
H1302 H 0.12767 0.54893 0.07626 0.0
H1303 H 0.13981 0.54777 0.99832 0.0
H1304 H 0.09449 0.5396 0.99164 0.0
H1305 H 0.16451 0.58583 0.02328 0.0
H1306 H 0.15497 0.49877 0.02804 0.0
H1307 H 0.13617 0.46172 0.04414 0.0
H1308 H 0.16285 0.47899 0.11632 0.0
H1309 H 0.18145 0.51638 0.10069 0.0
C1310 C 0.288 0.56173 0.02814 0.0
C1311 C 0.30094 0.55962 0.05074 0.0
C1312 C 0.26126 0.5605 0.02688 0.0
C1313 C 0.24687 0.55742 0.04821 0.0
C1314 C 0.25974 0.55494 0.07074 0.0
C1315 C 0.28651 0.55605 0.07201 0.0
C1316 C 0.21843 0.55646 0.04689 0.0
C1317 C 0.20682 0.53605 0.05654 0.0
C1318 C 0.20295 0.57485 0.0351 0.0
C1319 C 0.21378 0.59769 0.02614 0.0
C1320 C 0.22794 0.6123 0.04195 0.0
C1321 C 0.23824 0.63371 0.03339 0.0
C1322 C 0.23436 0.64079 0.00908 0.0
C1323 C 0.22011 0.6265 0.9933 0.0
C1324 C 0.20979 0.60506 1.00176 0.0
C1325 C 0.09443 0.54273 0.054 0.0
C1326 C 0.08482 0.53949 0.03019 0.0
C1327 C 0.12041 0.5472 0.05776 0.0
C1328 C 0.13705 0.54873 0.03776 0.0
C1329 C 0.12723 0.54663 0.01396 0.0
C1330 C 0.10138 0.54186 0.0102 0.0
C1331 C 0.16498 0.55117 0.04154 0.0
C1332 C 0.17645 0.57181 0.03232 0.0
C1333 C 0.1803 0.5331 0.05387 0.0
C1334 C 0.16933 0.51052 0.06325 0.0
C1335 C 0.15663 0.49478 0.04738 0.0
C1336 C 0.14604 0.4737 0.05642 0.0
C1337 C 0.14825 0.46804 0.08125 0.0
C1338 C 0.16111 0.48342 0.09709 0.0
C1339 C 0.17169 0.50455 0.08816 0.0
H1340 H 0.14004 0.45171 0.08821 0.0
H1341 H 0.24235 0.65737 1.00249 0.0
H1342 H 0.23288 0.47054 0.58746 0.0
H1343 H 0.27057 0.48574 0.56766 0.0
H1344 H 0.24907 0.45102 0.50011 0.0
H1345 H 0.21196 0.43438 0.52043 0.0
H1346 H 0.29609 0.43927 0.50923 0.0
H1347 H 0.25035 0.51512 0.50632 0.0
H1348 H 0.22289 0.55019 0.52023 0.0
H1349 H 0.27944 0.56731 0.57436 0.0
H1350 H 0.30709 0.53213 0.56107 0.0
H1351 H 0.4136 0.49187 0.46551 0.0
H1352 H 0.36739 0.48527 0.46914 0.0
H1353 H 0.37354 0.49055 0.54762 0.0
H1354 H 0.4197 0.49655 0.54425 0.0
H1355 H 0.33123 0.52072 0.52241 0.0
H1356 H 0.37124 0.43816 0.52838 0.0
H1357 H 0.39837 0.40385 0.51219 0.0
H1358 H 0.3507 0.40162 0.44791 0.0
H1359 H 0.32348 0.43619 0.4636 0.0
C1360 C 0.23603 0.46627 0.56833 0.0
C1361 C 0.21966 0.45093 0.55563 0.0
C1362 C 0.25741 0.47533 0.55687 0.0
C1363 C 0.26261 0.46974 0.53227 0.0
C1364 C 0.24543 0.45561 0.5191 0.0
C1365 C 0.22412 0.44627 0.53068 0.0
C1366 C 0.28757 0.47614 0.52158 0.0
C1367 C 0.30342 0.45731 0.5115 0.0
C1368 C 0.29734 0.49963 0.52456 0.0
C1369 C 0.28078 0.52087 0.53272 0.0
C1370 C 0.25687 0.52625 0.52131 0.0
C1371 C 0.24127 0.54617 0.52907 0.0
C1372 C 0.2494 0.56095 0.54818 0.0
C1373 C 0.27317 0.55585 0.55955 0.0
C1374 C 0.28884 0.53594 0.55187 0.0
C1375 C 0.40508 0.49147 0.48352 0.0
C1376 C 0.42019 0.4946 0.50462 0.0
C1377 C 0.37877 0.48778 0.48553 0.0
C1378 C 0.36722 0.48761 0.50861 0.0
C1379 C 0.38222 0.49078 0.52966 0.0
C1380 C 0.40856 0.494 0.52771 0.0
C1381 C 0.33954 0.48367 0.51114 0.0
C1382 C 0.32337 0.50297 0.5196 0.0
C1383 C 0.32933 0.4608 0.50628 0.0
C1384 C 0.34556 0.43994 0.497 0.0
C1385 C 0.3667 0.4305 0.51069 0.0
C1386 C 0.38206 0.41098 0.50163 0.0
C1387 C 0.37632 0.40062 0.47899 0.0
C1388 C 0.35515 0.4097 0.46541 0.0
C1389 C 0.33976 0.42925 0.47438 0.0
H1390 H 0.38824 0.38551 0.47201 0.0
H1391 H 0.2373 0.57637 0.55416 0.0
H1392 H 0.93188 0.75362 0.87356 0.0
H1393 H 0.94717 0.71583 0.89358 0.0
H1394 H 0.88908 0.72663 0.94897 0.0
H1395 H 0.8738 0.76464 0.92911 0.0
H1396 H 0.93674 0.71334 0.96893 0.0
H1397 H 0.88206 0.68432 0.90513 0.0
H1398 H 0.86637 0.68039 0.86272 0.0
H1399 H 0.94042 0.6503 0.8408 0.0
H1400 H 0.95667 0.65437 0.88303 0.0
H1401 H 0.95729 0.59513 0.02235 0.0
H1402 H 0.93912 0.63279 0.00394 0.0
H1403 H 0.98558 0.6193 0.93976 0.0
H1404 H 0.00277 0.58121 0.95759 0.0
H1405 H 0.94173 0.63425 0.92489 0.0
H1406 H 0.99779 0.66465 0.98684 0.0
H1407 H 0.01521 0.66935 0.02855 0.0
H1408 H 0.94143 0.69766 0.0532 0.0
H1409 H 0.92349 0.69284 0.01168 0.0
C1410 C 0.92233 0.74801 0.89001 0.0
C1411 C 0.90153 0.76227 0.89964 0.0
C1412 C 0.93102 0.72626 0.9014 0.0
C1413 C 0.91924 0.71817 0.92279 0.0
C1414 C 0.89851 0.73238 0.93249 0.0
C1415 C 0.88964 0.75404 0.92097 0.0
C1416 C 0.92874 0.69506 0.93508 0.0
C1417 C 0.93749 0.69597 0.95941 0.0
C1418 C 0.9304 0.67241 0.92258 0.0
C1419 C 0.92064 0.66986 0.8972 0.0
C1420 C 0.89506 0.67704 0.89123 0.0
C1421 C 0.88606 0.67475 0.86723 0.0
C1422 C 0.90241 0.66516 0.84907 0.0
C1423 C 0.92779 0.65776 0.85488 0.0
C1424 C 0.93689 0.66003 0.87885 0.0
C1425 C 0.96375 0.60029 0.00438 0.0
C1426 C 0.98157 0.5851 0.99152 0.0
C1427 C 0.95341 0.62197 0.99385 0.0
C1428 C 0.96111 0.62936 0.97044 0.0
C1429 C 0.97911 0.61422 0.95775 0.0
C1430 C 0.98907 0.59239 0.96806 0.0
C1431 C 0.95016 0.65243 0.9588 0.0
C1432 C 0.94104 0.65155 0.93453 0.0
C1433 C 0.94848 0.67516 0.97128 0.0
C1434 C 0.95924 0.67814 0.99622 0.0
C1435 C 0.98524 0.67172 1.0012 0.0
C1436 C 0.99521 0.67443 0.0248 0.0
C1437 C 0.97942 0.68373 0.04353 0.0
C1438 C 0.95363 0.69042 0.03868 0.0
C1439 C 0.94356 0.68772 0.01512 0.0
H1440 H 0.98717 0.68581 0.06178 0.0
H1441 H 0.8954 0.6634 0.8305 0.0
H1442 H 0.4081 0.68643 0.06175 0.0
H1443 H 0.41783 0.72933 0.06423 0.0
H1444 H 0.48594 0.71522 0.02085 0.0
H1445 H 0.47614 0.6721 0.01795 0.0
H1446 H 0.49508 0.7433 0.06163 0.0
H1447 H 0.43402 0.74311 0.99534 0.0
H1448 H 0.39307 0.73392 0.97513 0.0
H1449 H 0.35116 0.77634 0.02906 0.0
H1450 H 0.39186 0.78551 0.04981 0.0
H1451 H 0.51883 0.86675 0.0339 0.0
H1452 H 0.51155 0.82318 0.03432 0.0
H1453 H 0.43964 0.83743 0.07193 0.0
H1454 H 0.44671 0.88116 0.07123 0.0
H1455 H 0.4328 0.8089 0.03415 0.0
H1456 H 0.4931 0.80953 0.10055 0.0
H1457 H 0.53365 0.8186 0.12157 0.0
H1458 H 0.57652 0.7755 0.06881 0.0
H1459 H 0.53624 0.76644 0.04728 0.0
C1460 C 0.4249 0.69247 0.05232 0.0
C1461 C 0.44121 0.67586 0.03942 0.0
C1462 C 0.43051 0.717 0.05389 0.0
C1463 C 0.45248 0.72547 0.04255 0.0
C1464 C 0.46889 0.709 0.02974 0.0
C1465 C 0.46327 0.6844 0.02812 0.0
C1466 C 0.45836 0.75151 0.0444 0.0
C1467 C 0.48167 0.75769 0.05532 0.0
C1468 C 0.44049 0.7702 0.03678 0.0
C1469 C 0.41599 0.76481 0.02425 0.0
C1470 C 0.41606 0.75032 0.003 0.0
C1471 C 0.3929 0.74514 0.99143 0.0
C1472 C 0.36952 0.75449 1.00083 0.0
C1473 C 0.36928 0.76909 0.02181 0.0
C1474 C 0.39239 0.7743 0.03347 0.0
C1475 C 0.50177 0.86055 0.04277 0.0
C1476 C 0.48333 0.87733 0.05256 0.0
C1477 C 0.49761 0.83563 0.04298 0.0
C1478 C 0.47511 0.827 0.05329 0.0
C1479 C 0.45709 0.84369 0.06381 0.0
C1480 C 0.46114 0.86863 0.06343 0.0
C1481 C 0.46952 0.80083 0.05153 0.0
C1482 C 0.44626 0.79459 0.04055 0.0
C1483 C 0.48739 0.78212 0.05923 0.0
C1484 C 0.51166 0.7875 0.07217 0.0
C1485 C 0.51119 0.80215 0.09332 0.0
C1486 C 0.53413 0.80725 0.10534 0.0
C1487 C 0.55765 0.79768 0.0965 0.0
C1488 C 0.55829 0.78293 0.07563 0.0
C1489 C 0.5354 0.77778 0.06352 0.0
H1490 H 0.57539 0.80166 0.10583 0.0
H1491 H 0.35161 0.75046 0.99185 0.0
H1492 H 0.03979 0.34032 0.57558 0.0
H1493 H 0.01437 0.30478 0.56838 0.0
H1494 H 0.07618 0.27174 0.52559 0.0
H1495 H 0.10095 0.30788 0.53124 0.0
H1496 H 0.03237 0.25566 0.50999 0.0
H1497 H 0.07389 0.26577 0.58934 0.0
H1498 H 0.08156 0.28765 0.62799 0.0
H1499 H 0.00154 0.28453 0.64619 0.0
H1500 H 0.99338 0.26289 0.60747 0.0
H1501 H 0.04382 0.13407 0.57457 0.0
H1502 H 0.04796 0.17825 0.5751 0.0
H1503 H 0.97759 0.18778 0.5333 0.0
H1504 H 0.97343 0.14353 0.53259 0.0
H1505 H 0.0176 0.2178 0.59072 0.0
H1506 H 0.9901 0.23145 0.48961 0.0
H1507 H 0.98868 0.20764 0.45129 0.0
H1508 H 0.0503 0.15966 0.47749 0.0
H1509 H 0.05227 0.18336 0.51578 0.0
C1510 C 0.04755 0.326 0.56372 0.0
C1511 C 0.07274 0.32665 0.55453 0.0
C1512 C 0.03305 0.30556 0.55983 0.0
C1513 C 0.04375 0.28528 0.54719 0.0
C1514 C 0.06764 0.28704 0.5357 0.0
C1515 C 0.08194 0.30762 0.5392 0.0
C1516 C 0.03236 0.26113 0.54903 0.0
C1517 C 0.02866 0.24756 0.52761 0.0
C1518 C 0.028 0.25031 0.57206 0.0
C1519 C 0.03298 0.26298 0.59545 0.0
C1520 C 0.05793 0.26985 0.60156 0.0
C1521 C 0.06237 0.28221 0.62346 0.0
C1522 C 0.04204 0.28753 0.63951 0.0
C1523 C 0.01726 0.28044 0.63372 0.0
C1524 C 0.01271 0.26814 0.61181 0.0
C1525 C 0.02905 0.14564 0.56583 0.0
C1526 C 0.00838 0.13545 0.55347 0.0
C1527 C 0.03134 0.17082 0.56624 0.0
C1528 C 0.01318 0.18618 0.55407 0.0
C1529 C 0.99185 0.17616 0.54269 0.0
C1530 C 0.98942 0.15095 0.54245 0.0
C1531 C 0.01789 0.21238 0.55173 0.0
C1532 C 0.02041 0.22623 0.57307 0.0
C1533 C 0.0219 0.22318 0.5287 0.0
C1534 C 0.02106 0.20898 0.50565 0.0
C1535 C 0.00335 0.21584 0.48714 0.0
C1536 C 0.00246 0.20237 0.46544 0.0
C1537 C 0.01932 0.18209 0.462 0.0
C1538 C 0.03717 0.1753 0.48022 0.0
C1539 C 0.03815 0.18872 0.50193 0.0
H1540 H 0.01859 0.17168 0.4452 0.0
H1541 H 0.0455 0.29711 0.65645 0.0
H1542 H 0.64439 0.28979 0.38175 0.0
H1543 H 0.62394 0.32548 0.40151 0.0
H1544 H 0.55421 0.28699 0.41025 0.0
H1545 H 0.57463 0.25106 0.39034 0.0
H1546 H 0.54217 0.33192 0.39658 0.0
H1547 H 0.59584 0.29652 0.45909 0.0
H1548 H 0.63595 0.27921 0.47766 0.0
H1549 H 0.67215 0.34701 0.46704 0.0
H1550 H 0.63236 0.36463 0.44808 0.0
H1551 H 0.5276 0.42508 0.50648 0.0
H1552 H 0.54384 0.3861 0.48937 0.0
H1553 H 0.53844 0.41639 0.41676 0.0
H1554 H 0.52171 0.45513 0.43366 0.0
H1555 H 0.58536 0.37281 0.46549 0.0
H1556 H 0.52661 0.3731 0.37481 0.0
H1557 H 0.48406 0.38798 0.35938 0.0
H1558 H 0.45345 0.38586 0.43206 0.0
H1559 H 0.49571 0.37066 0.44787 0.0
C1560 C 0.62479 0.28872 0.38811 0.0
C1561 C 0.61132 0.26729 0.38462 0.0
C1562 C 0.61306 0.30926 0.39942 0.0
C1563 C 0.58758 0.30897 0.40782 0.0
C1564 C 0.57389 0.28777 0.40401 0.0
C1565 C 0.5856 0.2672 0.39257 0.0
C1566 C 0.57532 0.33083 0.42041 0.0
C1567 C 0.55165 0.34082 0.41165 0.0
C1568 C 0.58722 0.34232 0.44051 0.0
C1569 C 0.61117 0.33183 0.45198 0.0
C1570 C 0.61241 0.30769 0.46056 0.0
C1571 C 0.63508 0.29783 0.47118 0.0
C1572 C 0.6566 0.31198 0.47348 0.0
C1573 C 0.65548 0.33606 0.46522 0.0
C1574 C 0.63286 0.346 0.45456 0.0
C1575 C 0.5297 0.42342 0.48685 0.0
C1576 C 0.52319 0.44332 0.47149 0.0
C1577 C 0.5391 0.40109 0.47707 0.0
C1578 C 0.54218 0.39803 0.45168 0.0
C1579 C 0.53583 0.41796 0.43635 0.0
C1580 C 0.52633 0.44023 0.44609 0.0
C1581 C 0.55253 0.37427 0.44126 0.0
C1582 C 0.57585 0.36392 0.45043 0.0
C1583 C 0.54 0.36215 0.42193 0.0
C1584 C 0.51441 0.37096 0.41254 0.0
C1585 C 0.51077 0.37571 0.38748 0.0
C1586 C 0.48671 0.38422 0.37867 0.0
C1587 C 0.46609 0.38793 0.39474 0.0
C1588 C 0.46946 0.38306 0.41964 0.0
C1589 C 0.49347 0.37452 0.42854 0.0
H1590 H 0.44749 0.39455 0.38789 0.0
H1591 H 0.67414 0.30432 0.48171 0.0
loop_
_geom_bond_atom_site_label_1
_geom_bond_atom_site_label_2
_geom_bond_distance
_geom_bond_site_symmetry_2
_ccdc_geom_bond_type
P0 O11 1.490 . S
P0 C14 1.812 . S
P0 C20 1.803 . S
P0 C26 1.819 . S
H1 C15 0.941 . S
H2 C16 0.939 . S
H3 C18 0.940 . S
H4 C19 0.940 . S
H5 C21 0.939 . S
H6 C22 0.942 . S
H7 C24 0.940 . S
H8 C25 0.939 . S
H9 C27 0.941 . S
H10 C31 0.939 . S
O11 P0 1.490 . S
H12 C28 0.939 . S
H13 C30 0.940 . S
C14 P0 1.812 . S
C14 C15 1.389 . S
C14 C19 1.391 . S
C15 H1 0.941 . S
C15 C14 1.389 . S
C15 C16 1.397 . S
C16 H2 0.939 . S
C16 C15 1.397 . S
C16 C17 1.378 . S
C17 C16 1.378 . S
C17 C18 1.378 . S
C18 H3 0.940 . S
C18 C17 1.378 . S
C18 C19 1.396 . S
C19 H4 0.940 . S
C19 C14 1.391 . S
C19 C18 1.396 . S
C20 P0 1.803 . S
C20 C21 1.378 . S
C20 C25 1.400 . S
C21 H5 0.939 . S
C21 C20 1.378 . S
C21 C22 1.361 . S
C22 H6 0.942 . S
C22 C21 1.361 . S
C22 C23 1.369 . S
C23 C22 1.369 . S
C23 C24 1.404 . S
C24 H7 0.940 . S
C24 C23 1.404 . S
C24 C25 1.389 . S
C25 H8 0.939 . S
C25 C20 1.400 . S
C25 C24 1.389 . S
C26 P0 1.819 . S
C26 C27 1.391 . S
C26 C31 1.391 . S
C27 H9 0.941 . S
C27 C26 1.391 . S
C27 C28 1.396 . S
C28 H12 0.939 . S
C28 C27 1.396 . S
C28 C29 1.397 . S
C29 C28 1.397 . S
C29 C30 1.385 . S
C30 H13 0.940 . S
C30 C29 1.385 . S
C30 C31 1.388 . S
C31 H10 0.939 . S
C31 C26 1.391 . S
C31 C30 1.388 . S
P32 O43 1.490 . S
P32 C46 1.812 . S
P32 C52 1.803 . S
P32 C58 1.819 . S
H33 C47 0.941 . S
H34 C48 0.939 . S
H35 C50 0.940 . S
H36 C51 0.940 . S
H37 C53 0.939 . S
H38 C54 0.942 . S
H39 C56 0.940 . S
H40 C57 0.939 . S
H41 C59 0.941 . S
H42 C63 0.939 . S
O43 P32 1.490 . S
H44 C60 0.939 . S
H45 C62 0.940 . S
C46 P32 1.812 . S
C46 C47 1.389 . S
C46 C51 1.391 . S
C47 H33 0.941 . S
C47 C46 1.389 . S
C47 C48 1.397 . S
C48 H34 0.939 . S
C48 C47 1.397 . S
C48 C49 1.378 . S
C49 C48 1.378 . S
C49 C50 1.378 . S
C50 H35 0.940 . S
C50 C49 1.378 . S
C50 C51 1.396 . S
C51 H36 0.940 . S
C51 C46 1.391 . S
C51 C50 1.396 . S
C52 P32 1.803 . S
C52 C53 1.378 . S
C52 C57 1.400 . S
C53 H37 0.939 . S
C53 C52 1.378 . S
C53 C54 1.361 . S
C54 H38 0.942 . S
C54 C53 1.361 . S
C54 C55 1.369 . S
C55 C54 1.369 . S
C55 C56 1.404 . S
C56 H39 0.940 . S
C56 C55 1.404 . S
C56 C57 1.389 . S
C57 H40 0.939 . S
C57 C52 1.400 . S
C57 C56 1.389 . S
C58 P32 1.819 . S
C58 C59 1.391 . S
C58 C63 1.391 . S
C59 H41 0.941 . S
C59 C58 1.391 . S
C59 C60 1.396 . S
C60 H44 0.939 . S
C60 C59 1.396 . S
C60 C61 1.397 . S
C61 C60 1.397 . S
C61 C62 1.385 . S
C62 H45 0.940 . S
C62 C61 1.385 . S
C62 C63 1.388 . S
C63 H42 0.939 . S
C63 C58 1.391 . S
C63 C62 1.388 . S
P64 O75 1.490 . S
P64 C78 1.812 . S
P64 C84 1.803 . S
P64 C90 1.819 . S
H65 C79 0.941 . S
H66 C80 0.939 . S
H67 C82 0.940 . S
H68 C83 0.940 . S
H69 C85 0.939 . S
H70 C86 0.942 . S
H71 C88 0.940 . S
H72 C89 0.939 . S
H73 C91 0.941 . S
H74 C95 0.939 . S
O75 P64 1.490 . S
H76 C92 0.939 . S
H77 C94 0.940 . S
C78 P64 1.812 . S
C78 C79 1.389 . S
C78 C83 1.391 . S
C79 H65 0.941 . S
C79 C78 1.389 . S
C79 C80 1.397 . S
C80 H66 0.939 . S
C80 C79 1.397 . S
C80 C81 1.378 . S
C81 C80 1.378 . S
C81 C82 1.378 . S
C82 H67 0.940 . S
C82 C81 1.378 . S
C82 C83 1.396 . S
C83 H68 0.940 . S
C83 C78 1.391 . S
C83 C82 1.396 . S
C84 P64 1.803 . S
C84 C85 1.378 . S
C84 C89 1.400 . S
C85 H69 0.939 . S
C85 C84 1.378 . S
C85 C86 1.361 . S
C86 H70 0.942 . S
C86 C85 1.361 . S
C86 C87 1.369 . S
C87 C86 1.369 . S
C87 C88 1.404 . S
C88 H71 0.940 . S
C88 C87 1.404 . S
C88 C89 1.389 . S
C89 H72 0.939 . S
C89 C84 1.400 . S
C89 C88 1.389 . S
C90 P64 1.819 . S
C90 C91 1.391 . S
C90 C95 1.391 . S
C91 H73 0.941 . S
C91 C90 1.391 . S
C91 C92 1.396 . S
C92 H76 0.939 . S
C92 C91 1.396 . S
C92 C93 1.397 . S
C93 C92 1.397 . S
C93 C94 1.385 . S
C94 H77 0.940 . S
C94 C93 1.385 . S
C94 C95 1.388 . S
C95 H74 0.939 . S
C95 C90 1.391 . S
C95 C94 1.388 . S
P96 O107 1.490 . S
P96 C110 1.812 . S
P96 C116 1.803 . S
P96 C122 1.819 . S
H97 C111 0.941 . S
H98 C112 0.939 . S
H99 C114 0.940 . S
H100 C115 0.940 . S
H101 C117 0.939 . S
H102 C118 0.942 . S
H103 C120 0.940 . S
H104 C121 0.939 . S
H105 C123 0.941 . S
H106 C127 0.939 . S
O107 P96 1.490 . S
H108 C124 0.939 . S
H109 C126 0.940 . S
C110 P96 1.812 . S
C110 C111 1.389 . S
C110 C115 1.391 . S
C111 H97 0.941 . S
C111 C110 1.389 . S
C111 C112 1.397 . S
C112 H98 0.939 . S
C112 C111 1.397 . S
C112 C113 1.378 . S
C113 C112 1.378 . S
C113 C114 1.378 . S
C114 H99 0.940 . S
C114 C113 1.378 . S
C114 C115 1.396 . S
C115 H100 0.940 . S
C115 C110 1.391 . S
C115 C114 1.396 . S
C116 P96 1.803 . S
C116 C117 1.378 . S
C116 C121 1.400 . S
C117 H101 0.939 . S
C117 C116 1.378 . S
C117 C118 1.361 . S
C118 H102 0.942 . S
C118 C117 1.361 . S
C118 C119 1.369 . S
C119 C118 1.369 . S
C119 C120 1.404 . S
C120 H103 0.940 . S
C120 C119 1.404 . S
C120 C121 1.389 . S
C121 H104 0.939 . S
C121 C116 1.400 . S
C121 C120 1.389 . S
C122 P96 1.819 . S
C122 C123 1.391 . S
C122 C127 1.391 . S
C123 H105 0.941 . S
C123 C122 1.391 . S
C123 C124 1.396 . S
C124 H108 0.939 . S
C124 C123 1.396 . S
C124 C125 1.397 . S
C125 C124 1.397 . S
C125 C126 1.385 . S
C126 H109 0.940 . S
C126 C125 1.385 . S
C126 C127 1.388 . S
C127 H106 0.939 . S
C127 C122 1.391 . S
C127 C126 1.388 . S
P128 O139 1.490 . S
P128 C142 1.812 . S
P128 C148 1.803 . S
P128 C154 1.819 . S
H129 C143 0.941 . S
H130 C144 0.939 . S
H131 C146 0.940 . S
H132 C147 0.940 . S
H133 C149 0.939 . S
H134 C150 0.942 . S
H135 C152 0.940 . S
H136 C153 0.939 . S
H137 C155 0.941 . S
H138 C159 0.939 . S
O139 P128 1.490 . S
H140 C156 0.939 . S
H141 C158 0.940 . S
C142 P128 1.812 . S
C142 C143 1.389 . S
C142 C147 1.391 . S
C143 H129 0.941 . S
C143 C142 1.389 . S
C143 C144 1.397 . S
C144 H130 0.939 . S
C144 C143 1.397 . S
C144 C145 1.378 . S
C145 C144 1.378 . S
C145 C146 1.378 . S
C146 H131 0.940 . S
C146 C145 1.378 . S
C146 C147 1.396 . S
C147 H132 0.940 . S
C147 C142 1.391 . S
C147 C146 1.396 . S
C148 P128 1.803 . S
C148 C149 1.378 . S
C148 C153 1.400 . S
C149 H133 0.939 . S
C149 C148 1.378 . S
C149 C150 1.361 . S
C150 H134 0.942 . S
C150 C149 1.361 . S
C150 C151 1.369 . S
C151 C150 1.369 . S
C151 C152 1.404 . S
C152 H135 0.940 . S
C152 C151 1.404 . S
C152 C153 1.389 . S
C153 H136 0.939 . S
C153 C148 1.400 . S
C153 C152 1.389 . S
C154 P128 1.819 . S
C154 C155 1.391 . S
C154 C159 1.391 . S
C155 H137 0.941 . S
C155 C154 1.391 . S
C155 C156 1.396 . S
C156 H140 0.939 . S
C156 C155 1.396 . S
C156 C157 1.397 . S
C157 C156 1.397 . S
C157 C158 1.385 . S
C158 H141 0.940 . S
C158 C157 1.385 . S
C158 C159 1.388 . S
C159 H138 0.939 . S
C159 C154 1.391 . S
C159 C158 1.388 . S
P160 O171 1.490 . S
P160 C174 1.812 . S
P160 C180 1.803 . S
P160 C186 1.819 . S
H161 C175 0.941 . S
H162 C176 0.939 . S
H163 C178 0.940 . S
H164 C179 0.940 . S
H165 C181 0.939 . S
H166 C182 0.942 . S
H167 C184 0.940 . S
H168 C185 0.939 . S
H169 C187 0.941 . S
H170 C191 0.939 . S
O171 P160 1.490 . S
H172 C188 0.939 . S
H173 C190 0.940 . S
C174 P160 1.812 . S
C174 C175 1.389 . S
C174 C179 1.391 . S
C175 H161 0.941 . S
C175 C174 1.389 . S
C175 C176 1.397 . S
C176 H162 0.939 . S
C176 C175 1.397 . S
C176 C177 1.378 . S
C177 C176 1.378 . S
C177 C178 1.378 . S
C178 H163 0.940 . S
C178 C177 1.378 . S
C178 C179 1.396 . S
C179 H164 0.940 . S
C179 C174 1.391 . S
C179 C178 1.396 . S
C180 P160 1.803 . S
C180 C181 1.378 . S
C180 C185 1.400 . S
C181 H165 0.939 . S
C181 C180 1.378 . S
C181 C182 1.361 . S
C182 H166 0.942 . S
C182 C181 1.361 . S
C182 C183 1.369 . S
C183 C182 1.369 . S
C183 C184 1.404 . S
C184 H167 0.940 . S
C184 C183 1.404 . S
C184 C185 1.389 . S
C185 H168 0.939 . S
C185 C180 1.400 . S
C185 C184 1.389 . S
C186 P160 1.819 . S
C186 C187 1.391 . S
C186 C191 1.391 . S
C187 H169 0.941 . S
C187 C186 1.391 . S
C187 C188 1.396 . S
C188 H172 0.939 . S
C188 C187 1.396 . S
C188 C189 1.397 . S
C189 C188 1.397 . S
C189 C190 1.385 . S
C190 H173 0.940 . S
C190 C189 1.385 . S
C190 C191 1.388 . S
C191 H170 0.939 . S
C191 C186 1.391 . S
C191 C190 1.388 . S
P192 O203 1.490 . S
P192 C206 1.812 . S
P192 C212 1.803 . S
P192 C218 1.819 . S
H193 C207 0.941 . S
H194 C208 0.939 . S
H195 C210 0.940 . S
H196 C211 0.940 . S
H197 C213 0.939 . S
H198 C214 0.942 . S
H199 C216 0.940 . S
H200 C217 0.939 . S
H201 C219 0.941 . S
H202 C223 0.939 . S
O203 P192 1.490 . S
H204 C220 0.939 . S
H205 C222 0.940 . S
C206 P192 1.812 . S
C206 C207 1.389 . S
C206 C211 1.391 . S
C207 H193 0.941 . S
C207 C206 1.389 . S
C207 C208 1.397 . S
C208 H194 0.939 . S
C208 C207 1.397 . S
C208 C209 1.378 . S
C209 C208 1.378 . S
C209 C210 1.378 . S
C210 H195 0.940 . S
C210 C209 1.378 . S
C210 C211 1.396 . S
C211 H196 0.940 . S
C211 C206 1.391 . S
C211 C210 1.396 . S
C212 P192 1.803 . S
C212 C213 1.378 . S
C212 C217 1.400 . S
C213 H197 0.939 . S
C213 C212 1.378 . S
C213 C214 1.361 . S
C214 H198 0.942 . S
C214 C213 1.361 . S
C214 C215 1.369 . S
C215 C214 1.369 . S
C215 C216 1.404 . S
C216 H199 0.940 . S
C216 C215 1.404 . S
C216 C217 1.389 . S
C217 H200 0.939 . S
C217 C212 1.400 . S
C217 C216 1.389 . S
C218 P192 1.819 . S
C218 C219 1.391 . S
C218 C223 1.391 . S
C219 H201 0.941 . S
C219 C218 1.391 . S
C219 C220 1.396 . S
C220 H204 0.939 . S
C220 C219 1.396 . S
C220 C221 1.397 . S
C221 C220 1.397 . S
C221 C222 1.385 . S
C222 H205 0.940 . S
C222 C221 1.385 . S
C222 C223 1.388 . S
C223 H202 0.939 . S
C223 C218 1.391 . S
C223 C222 1.388 . S
P224 O235 1.490 . S
P224 C238 1.812 . S
P224 C244 1.803 . S
P224 C250 1.819 . S
H225 C239 0.941 . S
H226 C240 0.939 . S
H227 C242 0.940 . S
H228 C243 0.940 . S
H229 C245 0.939 . S
H230 C246 0.942 . S
H231 C248 0.940 . S
H232 C249 0.939 . S
H233 C251 0.941 . S
H234 C255 0.939 . S
O235 P224 1.490 . S
H236 C252 0.939 . S
H237 C254 0.940 . S
C238 P224 1.812 . S
C238 C239 1.389 . S
C238 C243 1.391 . S
C239 H225 0.941 . S
C239 C238 1.389 . S
C239 C240 1.397 . S
C240 H226 0.939 . S
C240 C239 1.397 . S
C240 C241 1.378 . S
C241 C240 1.378 . S
C241 C242 1.378 . S
C242 H227 0.940 . S
C242 C241 1.378 . S
C242 C243 1.396 . S
C243 H228 0.940 . S
C243 C238 1.391 . S
C243 C242 1.396 . S
C244 P224 1.803 . S
C244 C245 1.378 . S
C244 C249 1.400 . S
C245 H229 0.939 . S
C245 C244 1.378 . S
C245 C246 1.361 . S
C246 H230 0.942 . S
C246 C245 1.361 . S
C246 C247 1.369 . S
C247 C246 1.369 . S
C247 C248 1.404 . S
C248 H231 0.940 . S
C248 C247 1.404 . S
C248 C249 1.389 . S
C249 H232 0.939 . S
C249 C244 1.400 . S
C249 C248 1.389 . S
C250 P224 1.819 . S
C250 C251 1.391 . S
C250 C255 1.391 . S
C251 H233 0.941 . S
C251 C250 1.391 . S
C251 C252 1.396 . S
C252 H236 0.939 . S
C252 C251 1.396 . S
C252 C253 1.397 . S
C253 C252 1.397 . S
C253 C254 1.385 . S
C254 H237 0.940 . S
C254 C253 1.385 . S
C254 C255 1.388 . S
C255 H234 0.939 . S
C255 C250 1.391 . S
C255 C254 1.388 . S
C256 O272 1.251 . S
C256 O274 1.254 1_545 S
N257 C258 1.333 . S
N257 C262 1.307 . S
N257 Zn263 2.020 . S
C258 N257 1.333 . S
C258 C259 1.379 . S
C258 H276 0.952 . S
C259 C258 1.379 . S
C259 C260 1.390 . S
C259 H286 0.949 . S
C260 C259 1.390 . S
C260 C261 1.357 . S
C261 C260 1.357 . S
C261 C262 1.370 . S
C261 H287 0.950 . S
C262 N257 1.307 . S
C262 C261 1.370 . S
C262 H280 0.948 1_455 S
Zn263 N257 2.020 . S
Zn263 O272 2.039 . S
Zn263 O278 2.034 . S
Zn263 O282 2.025 1_455 S
Zn263 O284 2.024 1_455 S
C264 O283 1.293 . S
C264 O284 1.249 . S
N265 C266 1.307 . S
N265 C267 1.333 . S
N265 Zn271 2.020 . S
C266 N265 1.307 . S
C266 C270 1.370 . S
C266 H277 0.948 1_655 S
C267 N265 1.333 . S
C267 C268 1.379 . S
C267 H275 0.952 . S
C268 C267 1.379 . S
C268 C269 1.390 . S
C268 H288 0.949 . S
C269 C268 1.390 . S
C269 C270 1.357 . S
C270 C266 1.370 . S
C270 C269 1.357 . S
C270 H289 0.940 1_655 S
Zn271 N265 2.020 . S
Zn271 O274 2.025 1_655 S
Zn271 O279 2.024 1_655 S
Zn271 O281 2.039 . S
Zn271 O283 2.011 1_565 S
O272 C256 1.251 . S
O272 Zn263 2.039 . S
C273 O278 1.246 1_565 S
C273 O279 1.249 . S
O274 C256 1.254 1_565 S
O274 Zn271 2.025 1_455 S
H275 C267 0.952 . S
H276 C258 0.952 . S
H277 C266 0.948 1_455 S
O278 Zn263 2.034 . S
O278 C273 1.246 1_545 S
O279 Zn271 2.024 1_455 S
O279 C273 1.249 . S
H280 C262 0.948 1_655 S
O281 Zn271 2.039 . S
O281 C285 1.251 . S
O282 Zn263 2.025 1_655 S
O282 C285 1.254 1_545 S
O283 C264 1.293 . S
O283 Zn271 2.011 1_545 S
O284 Zn263 2.024 1_655 S
O284 C264 1.249 . S
C285 O281 1.251 . S
C285 O282 1.254 1_565 S
H286 C259 0.949 . S
H287 C261 0.950 . S
H288 C268 0.949 . S
H289 C270 0.940 1_455 S
C290 O306 1.251 1_565 S
C290 O308 1.254 1_556 S
N291 C292 1.333 . S
N291 C296 1.307 . S
N291 Zn297 2.032 . S
C292 N291 1.333 . S
C292 C293 1.379 . S
C292 H310 0.952 . S
C293 C292 1.379 . S
C293 C294 1.390 . S
C293 H320 0.949 . S
C294 C293 1.390 . S
C294 C295 1.357 . S
C295 C294 1.357 . S
C295 C296 1.370 . S
C295 H321 0.950 . S
C296 N291 1.307 . S
C296 C295 1.370 . S
C296 H314 0.948 . S
Zn297 N291 2.032 . S
Zn297 O306 2.049 . S
Zn297 O312 1.992 1_556 S
Zn297 O316 2.011 1_556 S
Zn297 O318 2.062 . S
C298 O317 1.246 . S
C298 O318 1.249 1_565 S
N299 C300 1.307 . S
N299 C301 1.333 . S
N299 Zn305 2.020 . S
C300 N299 1.307 . S
C300 C304 1.370 . S
C300 H311 0.948 . S
C301 N299 1.333 . S
C301 C302 1.379 . S
C301 H309 0.952 . S
C302 C301 1.379 . S
C302 C303 1.390 . S
C302 H322 0.949 . S
C303 C302 1.390 . S
C303 C304 1.357 . S
C304 C300 1.370 . S
C304 C303 1.357 . S
C304 H323 0.950 . S
Zn305 N299 2.020 . S
Zn305 O308 2.025 . S
Zn305 O313 2.024 . S
Zn305 O315 2.039 1_565 S
Zn305 O317 2.034 1_554 S
O306 C290 1.251 1_545 S
O306 Zn297 2.049 . S
C307 O312 1.246 . S
C307 O313 1.249 1_545 S
O308 C290 1.254 1_554 S
O308 Zn305 2.025 . S
H309 C301 0.952 . S
H310 C292 0.952 . S
H311 C300 0.948 . S
O312 Zn297 1.992 1_554 S
O312 C307 1.246 . S
O313 Zn305 2.024 . S
O313 C307 1.249 1_565 S
H314 C296 0.948 . S
O315 Zn305 2.039 1_545 S
O315 C319 1.251 . S
O316 Zn297 2.011 1_554 S
O316 C319 1.254 . S
O317 C298 1.246 . S
O317 Zn305 2.034 1_556 S
O318 Zn297 2.062 . S
O318 C298 1.249 1_545 S
C319 O315 1.251 . S
C319 O316 1.254 . S
H320 C293 0.949 . S
H321 C295 0.950 . S
H322 C302 0.949 . S
H323 C304 0.950 . S
C324 O340 1.251 . S
C324 O342 1.254 . S
N325 C326 1.333 . S
N325 C330 1.307 . S
N325 Zn331 2.020 . S
C326 N325 1.333 . S
C326 C327 1.379 . S
C326 H344 0.952 . S
C327 C326 1.379 . S
C327 C328 1.390 . S
C327 H354 0.949 . S
C328 C327 1.390 . S
C328 C329 1.357 . S
C329 C328 1.357 . S
C329 C330 1.370 . S
C329 H355 0.950 . S
C330 N325 1.307 . S
C330 C329 1.370 . S
C330 H348 0.948 . S
Zn331 N325 2.020 . S
Zn331 O340 2.039 . S
Zn331 O346 2.034 . S
Zn331 O350 2.025 . S
Zn331 O352 2.024 . S
C332 O351 1.246 . S
C332 O352 1.249 . S
N333 C334 1.307 . S
N333 C335 1.333 . S
N333 Zn339 2.020 . S
C334 N333 1.307 . S
C334 C338 1.370 . S
C334 H345 0.948 . S
C335 N333 1.333 . S
C335 C336 1.379 . S
C335 H343 0.952 . S
C336 C335 1.379 . S
C336 C337 1.390 . S
C336 H356 0.949 . S
C337 C336 1.390 . S
C337 C338 1.357 . S
C338 C334 1.370 . S
C338 C337 1.357 . S
C338 H357 0.950 . S
Zn339 N333 2.020 . S
Zn339 O342 2.025 . S
Zn339 O347 2.024 . S
Zn339 O349 2.039 . S
Zn339 O351 2.034 . S
O340 C324 1.251 . S
O340 Zn331 2.039 . S
C341 O346 1.246 . S
C341 O347 1.249 . S
O342 C324 1.254 . S
O342 Zn339 2.025 . S
H343 C335 0.952 . S
H344 C326 0.952 . S
H345 C334 0.948 . S
O346 Zn331 2.034 . S
O346 C341 1.246 . S
O347 Zn339 2.024 . S
O347 C341 1.249 . S
H348 C330 0.948 . S
O349 Zn339 2.039 . S
O349 C353 1.251 . S
O350 Zn331 2.025 . S
O350 C353 1.254 . S
O351 C332 1.246 . S
O351 Zn339 2.034 . S
O352 Zn331 2.024 . S
O352 C332 1.249 . S
C353 O349 1.251 . S
C353 O350 1.254 . S
H354 C327 0.949 . S
H355 C329 0.950 . S
H356 C336 0.949 . S
H357 C338 0.950 . S
C358 O374 1.251 1_556 S
C358 O376 1.273 . S
N359 C360 1.333 . S
N359 C364 1.307 . S
N359 Zn365 2.020 . S
C360 N359 1.333 . S
C360 C361 1.379 . S
C360 H378 0.952 . S
C361 C360 1.379 . S
C361 C362 1.390 . S
C361 H388 0.949 . S
C362 C361 1.390 . S
C362 C363 1.357 . S
C363 C362 1.357 . S
C363 C364 1.370 . S
C363 H389 0.950 . S
C364 N359 1.307 . S
C364 C363 1.370 . S
C364 H382 0.948 . S
Zn365 N359 2.020 . S
Zn365 O374 2.039 . S
Zn365 O380 2.034 1_655 S
Zn365 O384 2.025 1_655 S
Zn365 O386 2.024 . S
C366 O385 1.246 . S
C366 O386 1.249 1_556 S
N367 C368 1.307 . S
N367 C369 1.333 . S
N367 Zn373 2.020 . S
C368 N367 1.307 . S
C368 C372 1.370 . S
C368 H379 0.948 . S
C369 N367 1.333 . S
C369 C370 1.379 . S
C369 H377 0.952 . S
C370 C369 1.379 . S
C370 C371 1.390 . S
C370 H390 0.949 . S
C371 C370 1.390 . S
C371 C372 1.357 . S
C372 C368 1.370 . S
C372 C371 1.357 . S
C372 H391 0.950 . S
Zn373 N367 2.020 . S
Zn373 O376 2.013 1_455 S
Zn373 O381 2.024 . S
Zn373 O383 2.039 . S
Zn373 O385 2.034 1_455 S
O374 C358 1.251 1_554 S
O374 Zn365 2.039 . S
C375 O380 1.246 . S
C375 O381 1.249 1_554 S
O376 C358 1.273 . S
O376 Zn373 2.013 1_655 S
H377 C369 0.952 . S
H378 C360 0.952 . S
H379 C368 0.948 . S
O380 Zn365 2.034 1_455 S
O380 C375 1.246 . S
O381 Zn373 2.024 . S
O381 C375 1.249 1_556 S
H382 C364 0.948 . S
O383 Zn373 2.039 . S
O383 C387 1.251 1_556 S
O384 Zn365 2.025 1_455 S
O384 C387 1.254 . S
O385 C366 1.246 . S
O385 Zn373 2.034 1_655 S
O386 Zn365 2.024 . S
O386 C366 1.249 1_554 S
C387 O383 1.251 1_554 S
C387 O384 1.254 . S
H388 C361 0.949 . S
H389 C363 0.950 . S
H390 C370 0.949 . S
H391 C372 0.950 . S
H392 C410 0.951 . S
H393 C412 0.951 . S
H394 C414 0.950 . S
H395 C415 0.950 . S
H396 C417 0.950 . S
H397 C420 0.950 . S
H398 C421 0.950 . S
H399 C423 0.950 . S
H400 C424 0.950 . S
H401 C425 0.951 . S
H402 C427 0.951 . S
H403 C429 0.950 . S
H404 C430 0.950 1_655 S
H405 C432 0.950 . S
H406 C435 0.950 1_545 S
H407 C436 0.950 . S
H408 C438 0.950 . S
H409 C439 0.950 1_545 S
C410 H392 0.951 . S
C410 C411 1.366 . S
C410 C412 1.388 . S
C411 C410 1.366 . S
C411 C415 1.385 . S
C412 H393 0.951 . S
C412 C410 1.388 . S
C412 C413 1.366 . S
C413 C412 1.366 . S
C413 C414 1.414 . S
C413 C416 1.499 . S
C414 H394 0.950 . S
C414 C413 1.414 . S
C414 C415 1.374 . S
C415 H395 0.950 . S
C415 C411 1.385 . S
C415 C414 1.374 . S
C416 C413 1.499 . S
C416 C417 1.373 . S
C416 C418 1.389 . S
C417 H396 0.950 . S
C417 C416 1.373 . S
C417 C433 1.377 . S
C418 C416 1.389 . S
C418 C419 1.524 . S
C418 C432 1.377 . S
C419 C418 1.524 . S
C419 C420 1.397 . S
C419 C424 1.363 . S
C420 H397 0.950 . S
C420 C419 1.397 . S
C420 C421 1.334 . S
C421 H398 0.950 . S
C421 C420 1.334 . S
C421 C422 1.287 . S
C422 C421 1.287 . S
C422 C423 1.524 . S
C422 H441 0.913 . S
C423 H399 0.950 . S
C423 C422 1.524 . S
C423 C424 1.415 . S
C424 H400 0.950 . S
C424 C419 1.363 . S
C424 C423 1.415 . S
C425 H401 0.951 . S
C425 C426 1.366 . S
C425 C427 1.388 . S
C426 C425 1.366 . S
C426 C430 1.385 . S
C427 H402 0.951 . S
C427 C425 1.388 . S
C427 C428 1.366 . S
C428 C427 1.366 . S
C428 C429 1.414 . S
C428 C431 1.499 . S
C429 H403 0.950 . S
C429 C428 1.414 . S
C429 C430 1.374 . S
C430 H404 0.950 1_455 S
C430 C426 1.385 . S
C430 C429 1.374 . S
C431 C428 1.499 . S
C431 C432 1.373 . S
C431 C433 1.389 . S
C432 H405 0.950 . S
C432 C418 1.377 . S
C432 C431 1.373 . S
C433 C417 1.377 . S
C433 C431 1.389 . S
C433 C434 1.524 . S
C434 C433 1.524 . S
C434 C435 1.397 1_545 S
C434 C439 1.363 1_545 S
C435 H406 0.950 1_565 S
C435 C434 1.397 1_565 S
C435 C436 1.334 . S
C436 H407 0.950 . S
C436 C435 1.334 . S
C436 C437 1.287 . S
C437 C436 1.287 . S
C437 C438 1.524 . S
C437 H440 0.999 . S
C438 H408 0.950 . S
C438 C437 1.524 . S
C438 C439 1.415 . S
C439 H409 0.950 1_565 S
C439 C434 1.363 1_565 S
C439 C438 1.415 . S
H440 C437 0.999 . S
H441 C422 0.913 . S
H442 C460 0.951 . S
H443 C462 0.951 . S
H444 C464 0.950 . S
H445 C465 0.950 . S
H446 C467 0.950 . S
H447 C470 0.950 . S
H448 C471 0.950 . S
H449 C473 0.950 . S
H450 C474 0.950 . S
H451 C475 0.951 . S
H452 C477 0.951 . S
H453 C479 0.950 . S
H454 C480 0.950 . S
H455 C482 0.950 . S
H456 C485 0.950 . S
H457 C486 0.950 . S
H458 C488 0.950 . S
H459 C489 0.950 . S
C460 H442 0.951 . S
C460 C461 1.366 . S
C460 C462 1.388 . S
C461 C460 1.366 . S
C461 C465 1.385 . S
C462 H443 0.951 . S
C462 C460 1.388 . S
C462 C463 1.366 . S
C463 C462 1.366 . S
C463 C464 1.414 . S
C463 C466 1.499 . S
C464 H444 0.950 . S
C464 C463 1.414 . S
C464 C465 1.374 . S
C465 H445 0.950 . S
C465 C461 1.385 . S
C465 C464 1.374 . S
C466 C463 1.499 . S
C466 C467 1.373 . S
C466 C468 1.389 . S
C467 H446 0.950 . S
C467 C466 1.373 . S
C467 C483 1.377 . S
C468 C466 1.389 . S
C468 C469 1.524 . S
C468 C482 1.377 . S
C469 C468 1.524 . S
C469 C470 1.397 . S
C469 C474 1.363 . S
C470 H447 0.950 . S
C470 C469 1.397 . S
C470 C471 1.334 . S
C471 H448 0.950 . S
C471 C470 1.334 . S
C471 C472 1.287 . S
C472 C471 1.287 . S
C472 C473 1.524 . S
C472 H491 0.913 . S
C473 H449 0.950 . S
C473 C472 1.524 . S
C473 C474 1.415 . S
C474 H450 0.950 . S
C474 C469 1.363 . S
C474 C473 1.415 . S
C475 H451 0.951 . S
C475 C476 1.366 . S
C475 C477 1.388 . S
C476 C475 1.366 . S
C476 C480 1.385 . S
C477 H452 0.951 . S
C477 C475 1.388 . S
C477 C478 1.366 . S
C478 C477 1.366 . S
C478 C479 1.414 . S
C478 C481 1.499 . S
C479 H453 0.950 . S
C479 C478 1.414 . S
C479 C480 1.374 . S
C480 H454 0.950 . S
C480 C476 1.385 . S
C480 C479 1.374 . S
C481 C478 1.499 . S
C481 C482 1.373 . S
C481 C483 1.389 . S
C482 H455 0.950 . S
C482 C468 1.377 . S
C482 C481 1.373 . S
C483 C467 1.377 . S
C483 C481 1.389 . S
C483 C484 1.524 1_565 S
C484 C483 1.524 1_545 S
C484 C485 1.397 . S
C484 C489 1.363 . S
C485 H456 0.950 . S
C485 C484 1.397 . S
C485 C486 1.334 . S
C486 H457 0.950 . S
C486 C485 1.334 . S
C486 C487 1.287 . S
C487 C486 1.287 . S
C487 C488 1.524 . S
C487 H490 0.999 . S
C488 H458 0.950 . S
C488 C487 1.524 . S
C488 C489 1.415 . S
C489 H459 0.950 . S
C489 C484 1.363 . S
C489 C488 1.415 . S
H490 C487 0.999 . S
H491 C472 0.913 . S
H492 C510 0.951 . S
H493 C512 0.951 . S
H494 C514 0.950 . S
H495 C515 0.950 . S
H496 C517 0.950 . S
H497 C520 0.950 . S
H498 C521 0.950 . S
H499 C523 0.950 . S
H500 C524 0.950 . S
H501 C525 0.951 . S
H502 C527 0.951 . S
H503 C529 0.950 . S
H504 C530 0.950 . S
H505 C532 0.950 . S
H506 C535 0.950 . S
H507 C536 0.950 . S
H508 C538 0.950 . S
H509 C539 0.950 . S
C510 H492 0.951 . S
C510 C511 1.366 . S
C510 C512 1.388 . S
C511 C510 1.366 . S
C511 C515 1.385 . S
C512 H493 0.951 . S
C512 C510 1.388 . S
C512 C513 1.366 . S
C513 C512 1.366 . S
C513 C514 1.414 . S
C513 C516 1.499 . S
C514 H494 0.950 . S
C514 C513 1.414 . S
C514 C515 1.374 . S
C515 H495 0.950 . S
C515 C511 1.385 . S
C515 C514 1.374 . S
C516 C513 1.499 . S
C516 C517 1.373 . S
C516 C518 1.389 . S
C517 H496 0.950 . S
C517 C516 1.373 . S
C517 C533 1.377 . S
C518 C516 1.389 . S
C518 C519 1.524 . S
C518 C532 1.377 . S
C519 C518 1.524 . S
C519 C520 1.397 . S
C519 C524 1.363 . S
C520 H497 0.950 . S
C520 C519 1.397 . S
C520 C521 1.334 . S
C521 H498 0.950 . S
C521 C520 1.334 . S
C521 C522 1.287 . S
C522 C521 1.287 . S
C522 C523 1.524 . S
C522 H541 0.913 . S
C523 H499 0.950 . S
C523 C522 1.524 . S
C523 C524 1.415 . S
C524 H500 0.950 . S
C524 C519 1.363 . S
C524 C523 1.415 . S
C525 H501 0.951 . S
C525 C526 1.366 . S
C525 C527 1.388 . S
C526 C525 1.366 . S
C526 C530 1.385 . S
C527 H502 0.951 . S
C527 C525 1.388 . S
C527 C528 1.366 . S
C528 C527 1.366 . S
C528 C529 1.414 . S
C528 C531 1.499 . S
C529 H503 0.950 . S
C529 C528 1.414 . S
C529 C530 1.374 . S
C530 H504 0.950 . S
C530 C526 1.385 . S
C530 C529 1.374 . S
C531 C528 1.499 . S
C531 C532 1.373 . S
C531 C533 1.389 . S
C532 H505 0.950 . S
C532 C518 1.377 . S
C532 C531 1.373 . S
C533 C517 1.377 . S
C533 C531 1.389 . S
C533 C534 1.524 . S
C534 C533 1.524 . S
C534 C535 1.397 . S
C534 C539 1.363 . S
C535 H506 0.950 . S
C535 C534 1.397 . S
C535 C536 1.334 . S
C536 H507 0.950 . S
C536 C535 1.334 . S
C536 C537 1.287 . S
C537 C536 1.287 . S
C537 C538 1.524 . S
C537 H540 0.999 . S
C538 H508 0.950 . S
C538 C537 1.524 . S
C538 C539 1.415 . S
C539 H509 0.950 . S
C539 C534 1.363 . S
C539 C538 1.415 . S
H540 C537 0.999 . S
H541 C522 0.913 . S
H542 C560 0.951 . S
H543 C562 0.951 . S
H544 C564 0.950 . S
H545 C565 0.950 . S
H546 C567 0.950 . S
H547 C570 0.950 . S
H548 C571 0.950 . S
H549 C573 0.950 . S
H550 C574 0.950 . S
H551 C575 0.951 . S
H552 C577 0.951 . S
H553 C579 0.950 . S
H554 C580 0.950 . S
H555 C582 0.950 . S
H556 C585 0.950 . S
H557 C586 0.950 . S
H558 C588 0.950 . S
H559 C589 0.950 . S
C560 H542 0.951 . S
C560 C561 1.366 . S
C560 C562 1.388 . S
C561 C560 1.366 . S
C561 C565 1.385 . S
C562 H543 0.951 . S
C562 C560 1.388 . S
C562 C563 1.366 . S
C563 C562 1.366 . S
C563 C564 1.414 . S
C563 C566 1.499 . S
C564 H544 0.950 . S
C564 C563 1.414 . S
C564 C565 1.374 . S
C565 H545 0.950 . S
C565 C561 1.385 . S
C565 C564 1.374 . S
C566 C563 1.499 . S
C566 C567 1.373 . S
C566 C568 1.389 . S
C567 H546 0.950 . S
C567 C566 1.373 . S
C567 C583 1.377 . S
C568 C566 1.389 . S
C568 C569 1.524 . S
C568 C582 1.377 . S
C569 C568 1.524 . S
C569 C570 1.397 . S
C569 C574 1.363 . S
C570 H547 0.950 . S
C570 C569 1.397 . S
C570 C571 1.334 . S
C571 H548 0.950 . S
C571 C570 1.334 . S
C571 C572 1.287 . S
C572 C571 1.287 . S
C572 C573 1.524 . S
C572 H591 0.913 . S
C573 H549 0.950 . S
C573 C572 1.524 . S
C573 C574 1.415 . S
C574 H550 0.950 . S
C574 C569 1.363 . S
C574 C573 1.415 . S
C575 H551 0.951 . S
C575 C576 1.366 . S
C575 C577 1.388 . S
C576 C575 1.366 . S
C576 C580 1.385 . S
C577 H552 0.951 . S
C577 C575 1.388 . S
C577 C578 1.366 . S
C578 C577 1.366 . S
C578 C579 1.414 . S
C578 C581 1.499 . S
C579 H553 0.950 . S
C579 C578 1.414 . S
C579 C580 1.374 . S
C580 H554 0.950 . S
C580 C576 1.385 . S
C580 C579 1.374 . S
C581 C578 1.499 . S
C581 C582 1.373 . S
C581 C583 1.389 . S
C582 H555 0.950 . S
C582 C568 1.377 . S
C582 C581 1.373 . S
C583 C567 1.377 . S
C583 C581 1.389 . S
C583 C584 1.524 . S
C584 C583 1.524 . S
C584 C585 1.397 . S
C584 C589 1.366 1_655 S
C585 H556 0.950 . S
C585 C584 1.397 . S
C585 C586 1.334 . S
C586 H557 0.950 . S
C586 C585 1.334 . S
C586 C587 1.287 1_655 S
C587 C586 1.287 1_455 S
C587 C588 1.524 . S
C587 H590 0.999 . S
C588 H558 0.950 . S
C588 C587 1.524 . S
C588 C589 1.412 . S
C589 H559 0.950 . S
C589 C584 1.366 1_455 S
C589 C588 1.412 . S
H590 C587 0.999 . S
H591 C572 0.913 . S
H592 C610 0.951 . S
H593 C612 0.951 . S
H594 C614 0.950 . S
H595 C615 0.950 . S
H596 C617 0.950 . S
H597 C620 0.950 . S
H598 C621 0.950 . S
H599 C623 0.950 . S
H600 C624 0.950 . S
H601 C625 0.951 . S
H602 C627 0.951 . S
H603 C629 0.950 . S
H604 C630 0.950 . S
H605 C632 0.950 . S
H606 C635 0.950 . S
H607 C636 0.950 . S
H608 C638 0.950 . S
H609 C639 0.950 . S
C610 H592 0.951 . S
C610 C611 1.366 . S
C610 C612 1.388 . S
C611 C610 1.366 . S
C611 C615 1.385 . S
C612 H593 0.951 . S
C612 C610 1.388 . S
C612 C613 1.366 . S
C613 C612 1.366 . S
C613 C614 1.414 . S
C613 C616 1.499 . S
C614 H594 0.950 . S
C614 C613 1.414 . S
C614 C615 1.374 . S
C615 H595 0.950 . S
C615 C611 1.385 . S
C615 C614 1.374 . S
C616 C613 1.499 . S
C616 C617 1.373 . S
C616 C618 1.389 . S
C617 H596 0.950 . S
C617 C616 1.373 . S
C617 C633 1.377 . S
C618 C616 1.389 . S
C618 C619 1.524 . S
C618 C632 1.377 . S
C619 C618 1.524 . S
C619 C620 1.397 . S
C619 C624 1.363 . S
C620 H597 0.950 . S
C620 C619 1.397 . S
C620 C621 1.334 . S
C621 H598 0.950 . S
C621 C620 1.334 . S
C621 C622 1.287 1_554 S
C622 C621 1.287 1_556 S
C622 C623 1.524 . S
C622 H641 0.913 . S
C623 H599 0.950 . S
C623 C622 1.524 . S
C623 C624 1.415 1_556 S
C624 H600 0.950 . S
C624 C619 1.363 . S
C624 C623 1.415 1_554 S
C625 H601 0.951 . S
C625 C626 1.366 . S
C625 C627 1.388 . S
C626 C625 1.366 . S
C626 C630 1.385 . S
C627 H602 0.951 . S
C627 C625 1.388 . S
C627 C628 1.366 . S
C628 C627 1.366 . S
C628 C629 1.414 . S
C628 C631 1.499 . S
C629 H603 0.950 . S
C629 C628 1.414 . S
C629 C630 1.374 . S
C630 H604 0.950 . S
C630 C626 1.385 . S
C630 C629 1.374 . S
C631 C628 1.499 . S
C631 C632 1.373 . S
C631 C633 1.389 . S
C632 H605 0.950 . S
C632 C618 1.377 . S
C632 C631 1.373 . S
C633 C617 1.377 . S
C633 C631 1.389 . S
C633 C634 1.524 . S
C634 C633 1.524 . S
C634 C635 1.397 . S
C634 C639 1.363 . S
C635 H606 0.950 . S
C635 C634 1.397 . S
C635 C636 1.334 . S
C636 H607 0.950 . S
C636 C635 1.334 . S
C636 C637 1.287 . S
C637 C636 1.287 . S
C637 C638 1.524 . S
C637 H640 0.999 . S
C638 H608 0.950 . S
C638 C637 1.524 . S
C638 C639 1.415 . S
C639 H609 0.950 . S
C639 C634 1.363 . S
C639 C638 1.415 . S
H640 C637 0.999 . S
H641 C622 0.913 . S
H642 C660 0.951 . S
H643 C662 0.951 . S
H644 C664 0.950 . S
H645 C665 0.950 . S
H646 C667 0.950 . S
H647 C670 0.950 . S
H648 C671 0.950 . S
H649 C673 0.950 . S
H650 C674 0.950 . S
H651 C675 0.951 . S
H652 C677 0.951 . S
H653 C679 0.944 1_545 S
H654 C680 0.950 1_545 S
H655 C682 0.950 . S
H656 C685 0.950 . S
H657 C686 0.950 . S
H658 C688 0.950 . S
H659 C689 0.950 . S
C660 H642 0.951 . S
C660 C661 1.366 . S
C660 C662 1.388 . S
C661 C660 1.366 . S
C661 C665 1.385 . S
C662 H643 0.951 . S
C662 C660 1.388 . S
C662 C663 1.366 . S
C663 C662 1.366 . S
C663 C664 1.414 . S
C663 C666 1.499 . S
C664 H644 0.950 . S
C664 C663 1.414 . S
C664 C665 1.374 . S
C665 H645 0.950 . S
C665 C661 1.385 . S
C665 C664 1.374 . S
C666 C663 1.499 . S
C666 C667 1.373 . S
C666 C668 1.389 . S
C667 H646 0.950 . S
C667 C666 1.373 . S
C667 C683 1.377 . S
C668 C666 1.389 . S
C668 C669 1.524 . S
C668 C682 1.377 . S
C669 C668 1.524 . S
C669 C670 1.397 . S
C669 C674 1.363 1_565 S
C670 H647 0.950 . S
C670 C669 1.397 . S
C670 C671 1.334 . S
C671 H648 0.950 . S
C671 C670 1.334 . S
C671 C672 1.287 1_565 S
C672 C671 1.287 1_545 S
C672 C673 1.524 . S
C672 H691 0.913 . S
C673 H649 0.950 . S
C673 C672 1.524 . S
C673 C674 1.415 . S
C674 H650 0.950 . S
C674 C669 1.363 1_545 S
C674 C673 1.415 . S
C675 H651 0.951 . S
C675 C676 1.366 . S
C675 C677 1.388 . S
C676 C675 1.366 . S
C676 C680 1.385 . S
C677 H652 0.951 . S
C677 C675 1.388 . S
C677 C678 1.366 . S
C678 C677 1.366 . S
C678 C679 1.414 . S
C678 C681 1.499 . S
C679 H653 0.944 1_565 S
C679 C678 1.414 . S
C679 C680 1.374 . S
C680 H654 0.950 1_565 S
C680 C676 1.385 . S
C680 C679 1.374 . S
C681 C678 1.499 . S
C681 C682 1.373 . S
C681 C683 1.389 . S
C682 H655 0.950 . S
C682 C668 1.377 . S
C682 C681 1.373 . S
C683 C667 1.377 . S
C683 C681 1.389 . S
C683 C684 1.524 . S
C684 C683 1.524 . S
C684 C685 1.397 . S
C684 C689 1.363 . S
C685 H656 0.950 . S
C685 C684 1.397 . S
C685 C686 1.334 . S
C686 H657 0.950 . S
C686 C685 1.334 . S
C686 C687 1.287 . S
C687 C686 1.287 . S
C687 C688 1.524 . S
C687 H690 0.999 . S
C688 H658 0.950 . S
C688 C687 1.524 . S
C688 C689 1.415 . S
C689 H659 0.950 . S
C689 C684 1.363 . S
C689 C688 1.415 . S
H690 C687 0.999 . S
H691 C672 0.913 . S
H692 C710 0.951 . S
H693 C712 0.951 . S
H694 C714 0.950 . S
H695 C715 0.950 . S
H696 C717 0.950 . S
H697 C720 0.950 . S
H698 C721 0.950 . S
H699 C723 0.950 . S
H700 C724 0.950 . S
H701 C725 0.951 . S
H702 C727 0.951 . S
H703 C729 0.950 . S
H704 C730 0.950 . S
H705 C732 0.950 . S
H706 C735 0.950 . S
H707 C736 0.950 . S
H708 C738 0.950 . S
H709 C739 0.950 . S
C710 H692 0.951 . S
C710 C711 1.366 . S
C710 C712 1.388 . S
C711 C710 1.366 . S
C711 C715 1.385 . S
C712 H693 0.951 . S
C712 C710 1.388 . S
C712 C713 1.366 . S
C713 C712 1.366 . S
C713 C714 1.414 . S
C713 C716 1.499 . S
C714 H694 0.950 . S
C714 C713 1.414 . S
C714 C715 1.374 . S
C715 H695 0.950 . S
C715 C711 1.385 . S
C715 C714 1.374 . S
C716 C713 1.499 . S
C716 C717 1.373 . S
C716 C718 1.389 . S
C717 H696 0.950 . S
C717 C716 1.373 . S
C717 C733 1.377 . S
C718 C716 1.389 . S
C718 C719 1.524 . S
C718 C732 1.377 . S
C719 C718 1.524 . S
C719 C720 1.397 . S
C719 C724 1.363 . S
C720 H697 0.950 . S
C720 C719 1.397 . S
C720 C721 1.334 . S
C721 H698 0.950 . S
C721 C720 1.334 . S
C721 C722 1.287 . S
C722 C721 1.287 . S
C722 C723 1.524 . S
C722 H741 0.913 . S
C723 H699 0.950 . S
C723 C722 1.524 . S
C723 C724 1.415 . S
C724 H700 0.950 . S
C724 C719 1.363 . S
C724 C723 1.415 . S
C725 H701 0.951 . S
C725 C726 1.366 . S
C725 C727 1.388 . S
C726 C725 1.366 . S
C726 C730 1.385 . S
C727 H702 0.951 . S
C727 C725 1.388 . S
C727 C728 1.366 . S
C728 C727 1.366 . S
C728 C729 1.414 . S
C728 C731 1.499 . S
C729 H703 0.950 . S
C729 C728 1.414 . S
C729 C730 1.374 . S
C730 H704 0.950 . S
C730 C726 1.385 . S
C730 C729 1.374 . S
C731 C728 1.499 . S
C731 C732 1.373 . S
C731 C733 1.389 . S
C732 H705 0.950 . S
C732 C718 1.377 . S
C732 C731 1.373 . S
C733 C717 1.377 . S
C733 C731 1.389 . S
C733 C734 1.524 1_556 S
C734 C733 1.524 1_554 S
C734 C735 1.397 . S
C734 C739 1.363 . S
C735 H706 0.950 . S
C735 C734 1.397 . S
C735 C736 1.334 . S
C736 H707 0.950 . S
C736 C735 1.334 . S
C736 C737 1.287 . S
C737 C736 1.287 . S
C737 C738 1.524 . S
C737 H740 0.999 . S
C738 H708 0.950 . S
C738 C737 1.524 . S
C738 C739 1.415 . S
C739 H709 0.950 . S
C739 C734 1.363 . S
C739 C738 1.415 . S
H740 C737 0.999 . S
H741 C722 0.913 . S
H742 C760 0.951 . S
H743 C762 0.951 . S
H744 C764 0.950 . S
H745 C765 0.950 . S
H746 C767 0.950 . S
H747 C770 0.950 . S
H748 C771 0.950 . S
H749 C773 0.950 . S
H750 C774 0.950 . S
H751 C775 0.951 . S
H752 C777 0.951 . S
H753 C779 0.950 . S
H754 C780 0.950 . S
H755 C782 0.950 . S
H756 C785 0.950 . S
H757 C786 0.950 . S
H758 C788 0.950 . S
H759 C789 0.950 . S
C760 H742 0.951 . S
C760 C761 1.366 . S
C760 C762 1.388 . S
C761 C760 1.366 . S
C761 C765 1.385 . S
C762 H743 0.951 . S
C762 C760 1.388 . S
C762 C763 1.366 . S
C763 C762 1.366 . S
C763 C764 1.414 . S
C763 C766 1.499 . S
C764 H744 0.950 . S
C764 C763 1.414 . S
C764 C765 1.374 . S
C765 H745 0.950 . S
C765 C761 1.385 . S
C765 C764 1.374 . S
C766 C763 1.499 . S
C766 C767 1.373 . S
C766 C768 1.389 . S
C767 H746 0.950 . S
C767 C766 1.373 . S
C767 C783 1.377 . S
C768 C766 1.389 . S
C768 C769 1.524 . S
C768 C782 1.377 . S
C769 C768 1.524 . S
C769 C770 1.397 . S
C769 C774 1.363 . S
C770 H747 0.950 . S
C770 C769 1.397 . S
C770 C771 1.334 . S
C771 H748 0.950 . S
C771 C770 1.334 . S
C771 C772 1.287 . S
C772 C771 1.287 . S
C772 C773 1.524 . S
C772 H791 0.913 . S
C773 H749 0.950 . S
C773 C772 1.524 . S
C773 C774 1.415 . S
C774 H750 0.950 . S
C774 C769 1.363 . S
C774 C773 1.415 . S
C775 H751 0.951 . S
C775 C776 1.366 . S
C775 C777 1.388 . S
C776 C775 1.366 . S
C776 C780 1.385 . S
C777 H752 0.951 . S
C777 C775 1.388 . S
C777 C778 1.366 . S
C778 C777 1.366 . S
C778 C779 1.414 . S
C778 C781 1.499 . S
C779 H753 0.950 . S
C779 C778 1.414 . S
C779 C780 1.374 . S
C780 H754 0.950 . S
C780 C776 1.385 . S
C780 C779 1.374 . S
C781 C778 1.499 . S
C781 C782 1.373 . S
C781 C783 1.389 . S
C782 H755 0.950 . S
C782 C768 1.377 . S
C782 C781 1.373 . S
C783 C767 1.377 . S
C783 C781 1.389 . S
C783 C784 1.524 . S
C784 C783 1.524 . S
C784 C785 1.397 . S
C784 C789 1.363 . S
C785 H756 0.950 . S
C785 C784 1.397 . S
C785 C786 1.334 . S
C786 H757 0.950 . S
C786 C785 1.334 . S
C786 C787 1.287 . S
C787 C786 1.287 . S
C787 C788 1.524 . S
C787 H790 0.999 . S
C788 H758 0.950 . S
C788 C787 1.524 . S
C788 C789 1.415 . S
C789 H759 0.950 . S
C789 C784 1.363 . S
C789 C788 1.415 . S
H790 C787 0.999 . S
H791 C772 0.913 . S
H792 C810 0.951 . S
H793 C812 0.951 . S
H794 C814 0.950 . S
H795 C815 0.950 . S
H796 C817 0.950 . S
H797 C820 0.950 . S
H798 C821 0.950 . S
H799 C823 0.950 1_556 S
H800 C824 0.950 . S
H801 C825 0.951 . S
H802 C827 0.951 . S
H803 C829 0.950 . S
H804 C830 0.950 1_556 S
H805 C832 0.950 . S
H806 C835 0.950 . S
H807 C836 0.950 . S
H808 C838 0.950 . S
H809 C839 0.950 . S
C810 H792 0.951 . S
C810 C811 1.366 . S
C810 C812 1.388 . S
C811 C810 1.366 . S
C811 C815 1.385 . S
C812 H793 0.951 . S
C812 C810 1.388 . S
C812 C813 1.366 . S
C813 C812 1.366 . S
C813 C814 1.414 . S
C813 C816 1.499 . S
C814 H794 0.950 . S
C814 C813 1.414 . S
C814 C815 1.374 . S
C815 H795 0.950 . S
C815 C811 1.385 . S
C815 C814 1.374 . S
C816 C813 1.499 . S
C816 C817 1.373 . S
C816 C818 1.389 . S
C817 H796 0.950 . S
C817 C816 1.373 . S
C817 C833 1.377 . S
C818 C816 1.389 . S
C818 C819 1.524 . S
C818 C832 1.377 . S
C819 C818 1.524 . S
C819 C820 1.397 . S
C819 C824 1.363 . S
C820 H797 0.950 . S
C820 C819 1.397 . S
C820 C821 1.334 . S
C821 H798 0.950 . S
C821 C820 1.334 . S
C821 C822 1.287 . S
C822 C821 1.287 . S
C822 C823 1.524 . S
C822 H841 0.913 . S
C823 H799 0.950 1_554 S
C823 C822 1.524 . S
C823 C824 1.415 . S
C824 H800 0.950 . S
C824 C819 1.363 . S
C824 C823 1.415 . S
C825 H801 0.951 . S
C825 C826 1.366 . S
C825 C827 1.388 . S
C826 C825 1.366 . S
C826 C830 1.385 . S
C827 H802 0.951 . S
C827 C825 1.388 . S
C827 C828 1.366 . S
C828 C827 1.366 . S
C828 C829 1.414 . S
C828 C831 1.499 . S
C829 H803 0.950 . S
C829 C828 1.414 . S
C829 C830 1.374 . S
C830 H804 0.950 1_554 S
C830 C826 1.385 . S
C830 C829 1.374 . S
C831 C828 1.499 . S
C831 C832 1.373 . S
C831 C833 1.389 . S
C832 H805 0.950 . S
C832 C818 1.377 . S
C832 C831 1.373 . S
C833 C817 1.377 . S
C833 C831 1.389 . S
C833 C834 1.524 . S
C834 C833 1.524 . S
C834 C835 1.397 1_455 S
C834 C839 1.363 . S
C835 H806 0.950 . S
C835 C834 1.397 1_655 S
C835 C836 1.334 . S
C836 H807 0.950 . S
C836 C835 1.334 . S
C836 C837 1.287 . S
C837 C836 1.287 . S
C837 C838 1.524 . S
C837 H840 0.999 . S
C838 H808 0.950 . S
C838 C837 1.524 . S
C838 C839 1.415 1_655 S
C839 H809 0.950 . S
C839 C834 1.363 . S
C839 C838 1.415 1_455 S
H840 C837 0.999 . S
H841 C822 0.913 . S
H842 C860 0.951 . S
H843 C862 0.951 . S
H844 C864 0.950 . S
H845 C865 0.950 . S
H846 C867 0.950 . S
H847 C870 0.950 . S
H848 C871 0.950 . S
H849 C873 0.950 . S
H850 C874 0.950 . S
H851 C875 0.951 . S
H852 C877 0.951 . S
H853 C879 0.950 . S
H854 C880 0.950 . S
H855 C882 0.950 . S
H856 C885 0.950 . S
H857 C886 0.950 . S
H858 C888 0.950 . S
H859 C889 0.950 . S
C860 H842 0.951 . S
C860 C861 1.366 . S
C860 C862 1.388 . S
C861 C860 1.366 . S
C861 C865 1.385 . S
C862 H843 0.951 . S
C862 C860 1.388 . S
C862 C863 1.366 . S
C863 C862 1.366 . S
C863 C864 1.414 . S
C863 C866 1.499 . S
C864 H844 0.950 . S
C864 C863 1.414 . S
C864 C865 1.374 . S
C865 H845 0.950 . S
C865 C861 1.385 . S
C865 C864 1.374 . S
C866 C863 1.499 . S
C866 C867 1.373 . S
C866 C868 1.389 . S
C867 H846 0.950 . S
C867 C866 1.373 . S
C867 C883 1.377 . S
C868 C866 1.389 . S
C868 C869 1.524 . S
C868 C882 1.377 . S
C869 C868 1.524 . S
C869 C870 1.397 . S
C869 C874 1.363 . S
C870 H847 0.950 . S
C870 C869 1.397 . S
C870 C871 1.334 . S
C871 H848 0.950 . S
C871 C870 1.334 . S
C871 C872 1.287 . S
C872 C871 1.287 . S
C872 C873 1.524 . S
C872 H891 0.913 . S
C873 H849 0.950 . S
C873 C872 1.524 . S
C873 C874 1.415 . S
C874 H850 0.950 . S
C874 C869 1.363 . S
C874 C873 1.415 . S
C875 H851 0.951 . S
C875 C876 1.366 . S
C875 C877 1.388 . S
C876 C875 1.366 . S
C876 C880 1.385 . S
C877 H852 0.951 . S
C877 C875 1.388 . S
C877 C878 1.366 . S
C878 C877 1.366 . S
C878 C879 1.414 . S
C878 C881 1.499 . S
C879 H853 0.950 . S
C879 C878 1.414 . S
C879 C880 1.374 . S
C880 H854 0.950 . S
C880 C876 1.385 . S
C880 C879 1.374 . S
C881 C878 1.499 . S
C881 C882 1.373 . S
C881 C883 1.389 . S
C882 H855 0.950 . S
C882 C868 1.377 . S
C882 C881 1.373 . S
C883 C867 1.377 . S
C883 C881 1.389 . S
C883 C884 1.524 . S
C884 C883 1.524 . S
C884 C885 1.397 . S
C884 C889 1.363 . S
C885 H856 0.950 . S
C885 C884 1.397 . S
C885 C886 1.334 . S
C886 H857 0.950 . S
C886 C885 1.334 . S
C886 C887 1.287 . S
C887 C886 1.287 . S
C887 C888 1.524 . S
C887 H890 0.999 . S
C888 H858 0.950 . S
C888 C887 1.524 . S
C888 C889 1.415 . S
C889 H859 0.950 . S
C889 C884 1.363 . S
C889 C888 1.415 . S
H890 C887 0.999 . S
H891 C872 0.913 . S
H892 C910 0.951 . S
H893 C912 0.951 . S
H894 C914 0.950 . S
H895 C915 0.950 . S
H896 C917 0.950 . S
H897 C920 0.950 . S
H898 C921 0.950 . S
H899 C923 0.950 . S
H900 C924 0.950 . S
H901 C925 0.951 . S
H902 C927 0.951 . S
H903 C929 0.950 . S
H904 C930 0.950 . S
H905 C932 0.950 . S
H906 C935 0.950 . S
H907 C936 0.950 . S
H908 C938 0.950 . S
H909 C939 0.950 . S
C910 H892 0.951 . S
C910 C911 1.366 . S
C910 C912 1.388 . S
C911 C910 1.366 . S
C911 C915 1.385 . S
C912 H893 0.951 . S
C912 C910 1.388 . S
C912 C913 1.366 . S
C913 C912 1.366 . S
C913 C914 1.414 . S
C913 C916 1.499 . S
C914 H894 0.950 . S
C914 C913 1.414 . S
C914 C915 1.374 . S
C915 H895 0.950 . S
C915 C911 1.385 . S
C915 C914 1.374 . S
C916 C913 1.499 . S
C916 C917 1.373 . S
C916 C918 1.389 . S
C917 H896 0.950 . S
C917 C916 1.373 . S
C917 C933 1.377 . S
C918 C916 1.389 . S
C918 C919 1.524 . S
C918 C932 1.377 . S
C919 C918 1.524 . S
C919 C920 1.397 . S
C919 C924 1.363 . S
C920 H897 0.950 . S
C920 C919 1.397 . S
C920 C921 1.334 . S
C921 H898 0.950 . S
C921 C920 1.334 . S
C921 C922 1.287 . S
C922 C921 1.287 . S
C922 C923 1.524 . S
C922 H941 0.913 . S
C923 H899 0.950 . S
C923 C922 1.524 . S
C923 C924 1.415 . S
C924 H900 0.950 . S
C924 C919 1.363 . S
C924 C923 1.415 . S
C925 H901 0.951 . S
C925 C926 1.366 . S
C925 C927 1.388 . S
C926 C925 1.366 . S
C926 C930 1.385 . S
C927 H902 0.951 . S
C927 C925 1.388 . S
C927 C928 1.366 . S
C928 C927 1.366 . S
C928 C929 1.414 . S
C928 C931 1.499 . S
C929 H903 0.950 . S
C929 C928 1.414 . S
C929 C930 1.374 . S
C930 H904 0.950 . S
C930 C926 1.385 . S
C930 C929 1.374 . S
C931 C928 1.499 . S
C931 C932 1.373 . S
C931 C933 1.389 . S
C932 H905 0.950 . S
C932 C918 1.377 . S
C932 C931 1.373 . S
C933 C917 1.377 . S
C933 C931 1.389 . S
C933 C934 1.524 . S
C934 C933 1.524 . S
C934 C935 1.397 . S
C934 C939 1.363 . S
C935 H906 0.950 . S
C935 C934 1.397 . S
C935 C936 1.334 . S
C936 H907 0.950 . S
C936 C935 1.334 . S
C936 C937 1.287 . S
C937 C936 1.287 . S
C937 C938 1.524 . S
C937 H940 0.999 . S
C938 H908 0.950 . S
C938 C937 1.524 . S
C938 C939 1.415 . S
C939 H909 0.950 . S
C939 C934 1.363 . S
C939 C938 1.415 . S
H940 C937 0.999 . S
H941 C922 0.913 . S
H942 C960 0.951 . S
H943 C962 0.951 . S
H944 C964 0.950 . S
H945 C965 0.950 . S
H946 C967 0.950 . S
H947 C970 0.950 . S
H948 C971 0.950 . S
H949 C973 0.950 . S
H950 C974 0.950 . S
H951 C975 0.951 . S
H952 C977 0.951 . S
H953 C979 0.950 . S
H954 C980 0.950 . S
H955 C982 0.950 . S
H956 C985 0.950 . S
H957 C986 0.950 . S
H958 C988 0.950 . S
H959 C989 0.950 . S
C960 H942 0.951 . S
C960 C961 1.366 . S
C960 C962 1.388 . S
C961 C960 1.366 . S
C961 C965 1.385 . S
C962 H943 0.951 . S
C962 C960 1.388 . S
C962 C963 1.366 . S
C963 C962 1.366 . S
C963 C964 1.414 . S
C963 C966 1.499 . S
C964 H944 0.950 . S
C964 C963 1.414 . S
C964 C965 1.374 . S
C965 H945 0.950 . S
C965 C961 1.385 . S
C965 C964 1.374 . S
C966 C963 1.499 . S
C966 C967 1.373 . S
C966 C968 1.389 . S
C967 H946 0.950 . S
C967 C966 1.373 . S
C967 C983 1.377 . S
C968 C966 1.389 . S
C968 C969 1.524 . S
C968 C982 1.377 . S
C969 C968 1.524 . S
C969 C970 1.397 . S
C969 C974 1.363 . S
C970 H947 0.950 . S
C970 C969 1.397 . S
C970 C971 1.334 . S
C971 H948 0.950 . S
C971 C970 1.334 . S
C971 C972 1.287 . S
C972 C971 1.287 . S
C972 C973 1.524 . S
C972 H991 0.913 . S
C973 H949 0.950 . S
C973 C972 1.524 . S
C973 C974 1.415 . S
C974 H950 0.950 . S
C974 C969 1.363 . S
C974 C973 1.415 . S
C975 H951 0.951 . S
C975 C976 1.366 . S
C975 C977 1.388 . S
C976 C975 1.366 . S
C976 C980 1.385 . S
C977 H952 0.951 . S
C977 C975 1.388 . S
C977 C978 1.366 . S
C978 C977 1.366 . S
C978 C979 1.414 . S
C978 C981 1.499 . S
C979 H953 0.950 . S
C979 C978 1.414 . S
C979 C980 1.374 . S
C980 H954 0.950 . S
C980 C976 1.385 . S
C980 C979 1.374 . S
C981 C978 1.499 . S
C981 C982 1.373 . S
C981 C983 1.389 . S
C982 H955 0.950 . S
C982 C968 1.377 . S
C982 C981 1.373 . S
C983 C967 1.377 . S
C983 C981 1.389 . S
C983 C984 1.524 . S
C984 C983 1.524 . S
C984 C985 1.397 . S
C984 C989 1.363 . S
C985 H956 0.950 . S
C985 C984 1.397 . S
C985 C986 1.334 . S
C986 H957 0.950 . S
C986 C985 1.334 . S
C986 C987 1.287 . S
C987 C986 1.287 . S
C987 C988 1.524 . S
C987 H990 0.999 . S
C988 H958 0.950 . S
C988 C987 1.524 . S
C988 C989 1.415 . S
C989 H959 0.950 . S
C989 C984 1.363 . S
C989 C988 1.415 . S
H990 C987 0.999 . S
H991 C972 0.913 . S
H992 C1010 0.951 . S
H993 C1012 0.951 . S
H994 C1014 0.950 . S
H995 C1015 0.950 . S
H996 C1017 0.950 . S
H997 C1020 0.950 . S
H998 C1021 0.950 . S
H999 C1023 0.950 . S
H1000 C1024 0.950 1_455 S
H1001 C1025 0.951 . S
H1002 C1027 0.951 . S
H1003 C1029 0.950 1_455 S
H1004 C1030 0.950 1_455 S
H1005 C1032 0.950 . S
H1006 C1035 0.950 . S
H1007 C1036 0.950 . S
H1008 C1038 0.950 . S
H1009 C1039 0.950 . S
C1010 H992 0.951 . S
C1010 C1011 1.366 . S
C1010 C1012 1.388 . S
C1011 C1010 1.366 . S
C1011 C1015 1.385 . S
C1012 H993 0.951 . S
C1012 C1010 1.388 . S
C1012 C1013 1.366 . S
C1013 C1012 1.366 . S
C1013 C1014 1.414 . S
C1013 C1016 1.499 . S
C1014 H994 0.950 . S
C1014 C1013 1.414 . S
C1014 C1015 1.374 . S
C1015 H995 0.950 . S
C1015 C1011 1.385 . S
C1015 C1014 1.374 . S
C1016 C1013 1.499 . S
C1016 C1017 1.373 . S
C1016 C1018 1.389 . S
C1017 H996 0.950 . S
C1017 C1016 1.373 . S
C1017 C1033 1.377 . S
C1018 C1016 1.389 . S
C1018 C1019 1.524 . S
C1018 C1032 1.377 . S
C1019 C1018 1.524 . S
C1019 C1020 1.397 . S
C1019 C1024 1.363 . S
C1020 H997 0.950 . S
C1020 C1019 1.397 . S
C1020 C1021 1.334 1_565 S
C1021 H998 0.950 . S
C1021 C1020 1.334 1_545 S
C1021 C1022 1.287 . S
C1022 C1021 1.287 . S
C1022 C1023 1.524 1_655 S
C1022 H1041 0.913 . S
C1023 H999 0.950 . S
C1023 C1022 1.524 1_455 S
C1023 C1024 1.415 1_445 S
C1024 H1000 0.950 1_655 S
C1024 C1019 1.363 . S
C1024 C1023 1.415 1_665 S
C1025 H1001 0.951 . S
C1025 C1026 1.366 . S
C1025 C1027 1.388 . S
C1026 C1025 1.366 . S
C1026 C1030 1.385 . S
C1027 H1002 0.951 . S
C1027 C1025 1.388 . S
C1027 C1028 1.366 . S
C1028 C1027 1.366 . S
C1028 C1029 1.414 . S
C1028 C1031 1.499 . S
C1029 H1003 0.950 1_655 S
C1029 C1028 1.414 . S
C1029 C1030 1.374 . S
C1030 H1004 0.950 1_655 S
C1030 C1026 1.385 . S
C1030 C1029 1.374 . S
C1031 C1028 1.499 . S
C1031 C1032 1.373 . S
C1031 C1033 1.389 . S
C1032 H1005 0.950 . S
C1032 C1018 1.377 . S
C1032 C1031 1.373 . S
C1033 C1017 1.377 . S
C1033 C1031 1.389 . S
C1033 C1034 1.524 . S
C1034 C1033 1.524 . S
C1034 C1035 1.397 . S
C1034 C1039 1.363 . S
C1035 H1006 0.950 . S
C1035 C1034 1.397 . S
C1035 C1036 1.334 . S
C1036 H1007 0.950 . S
C1036 C1035 1.334 . S
C1036 C1037 1.287 . S
C1037 C1036 1.287 . S
C1037 C1038 1.524 . S
C1037 H1040 0.999 . S
C1038 H1008 0.950 . S
C1038 C1037 1.524 . S
C1038 C1039 1.415 . S
C1039 H1009 0.950 . S
C1039 C1034 1.363 . S
C1039 C1038 1.415 . S
H1040 C1037 0.999 . S
H1041 C1022 0.913 . S
H1042 C1060 0.951 . S
H1043 C1062 0.951 . S
H1044 C1064 0.950 . S
H1045 C1065 0.950 . S
H1046 C1067 0.950 . S
H1047 C1070 0.950 . S
H1048 C1071 0.950 . S
H1049 C1073 0.950 . S
H1050 C1074 0.950 . S
H1051 C1075 0.951 1_565 S
H1052 C1077 0.951 . S
H1053 C1079 0.950 . S
H1054 C1080 0.950 . S
H1055 C1082 0.950 . S
H1056 C1085 0.950 . S
H1057 C1086 0.950 . S
H1058 C1088 0.950 . S
H1059 C1089 0.950 . S
C1060 H1042 0.951 . S
C1060 C1061 1.366 . S
C1060 C1062 1.388 . S
C1061 C1060 1.366 . S
C1061 C1065 1.385 . S
C1062 H1043 0.951 . S
C1062 C1060 1.388 . S
C1062 C1063 1.366 . S
C1063 C1062 1.366 . S
C1063 C1064 1.414 . S
C1063 C1066 1.499 . S
C1064 H1044 0.950 . S
C1064 C1063 1.414 . S
C1064 C1065 1.374 . S
C1065 H1045 0.950 . S
C1065 C1061 1.385 . S
C1065 C1064 1.374 . S
C1066 C1063 1.499 . S
C1066 C1067 1.373 . S
C1066 C1068 1.389 . S
C1067 H1046 0.950 . S
C1067 C1066 1.373 . S
C1067 C1083 1.377 . S
C1068 C1066 1.389 . S
C1068 C1069 1.524 . S
C1068 C1082 1.377 . S
C1069 C1068 1.524 . S
C1069 C1070 1.397 . S
C1069 C1074 1.363 . S
C1070 H1047 0.950 . S
C1070 C1069 1.397 . S
C1070 C1071 1.334 . S
C1071 H1048 0.950 . S
C1071 C1070 1.334 . S
C1071 C1072 1.287 . S
C1072 C1071 1.287 . S
C1072 C1073 1.524 . S
C1072 H1091 0.913 . S
C1073 H1049 0.950 . S
C1073 C1072 1.524 . S
C1073 C1074 1.415 . S
C1074 H1050 0.950 . S
C1074 C1069 1.363 . S
C1074 C1073 1.415 . S
C1075 H1051 0.951 1_545 S
C1075 C1076 1.366 . S
C1075 C1077 1.388 . S
C1076 C1075 1.366 . S
C1076 C1080 1.385 . S
C1077 H1052 0.951 . S
C1077 C1075 1.388 . S
C1077 C1078 1.366 . S
C1078 C1077 1.366 . S
C1078 C1079 1.414 . S
C1078 C1081 1.499 . S
C1079 H1053 0.950 . S
C1079 C1078 1.414 . S
C1079 C1080 1.374 . S
C1080 H1054 0.950 . S
C1080 C1076 1.385 . S
C1080 C1079 1.374 . S
C1081 C1078 1.499 . S
C1081 C1082 1.373 . S
C1081 C1083 1.389 . S
C1082 H1055 0.950 . S
C1082 C1068 1.377 . S
C1082 C1081 1.373 . S
C1083 C1067 1.377 . S
C1083 C1081 1.389 . S
C1083 C1084 1.524 . S
C1084 C1083 1.524 . S
C1084 C1085 1.397 . S
C1084 C1089 1.363 . S
C1085 H1056 0.950 . S
C1085 C1084 1.397 . S
C1085 C1086 1.334 . S
C1086 H1057 0.950 . S
C1086 C1085 1.334 . S
C1086 C1087 1.287 . S
C1087 C1086 1.287 . S
C1087 C1088 1.524 1_545 S
C1087 H1090 0.999 1_545 S
C1088 H1058 0.950 . S
C1088 C1087 1.524 1_565 S
C1088 C1089 1.415 1_565 S
C1089 H1059 0.950 . S
C1089 C1084 1.363 . S
C1089 C1088 1.415 1_545 S
H1090 C1087 0.999 1_565 S
H1091 C1072 0.913 . S
H1092 C1110 0.951 . S
H1093 C1112 0.951 . S
H1094 C1114 0.950 . S
H1095 C1115 0.950 . S
H1096 C1117 0.950 . S
H1097 C1120 0.950 . S
H1098 C1121 0.950 . S
H1099 C1123 0.950 . S
H1100 C1124 0.950 . S
H1101 C1125 0.951 . S
H1102 C1127 0.951 . S
H1103 C1129 0.950 . S
H1104 C1130 0.950 . S
H1105 C1132 0.950 . S
H1106 C1135 0.950 . S
H1107 C1136 0.950 . S
H1108 C1138 0.950 . S
H1109 C1139 0.950 . S
C1110 H1092 0.951 . S
C1110 C1111 1.366 . S
C1110 C1112 1.388 . S
C1111 C1110 1.366 . S
C1111 C1115 1.385 . S
C1112 H1093 0.951 . S
C1112 C1110 1.388 . S
C1112 C1113 1.366 . S
C1113 C1112 1.366 . S
C1113 C1114 1.414 . S
C1113 C1116 1.499 . S
C1114 H1094 0.950 . S
C1114 C1113 1.414 . S
C1114 C1115 1.374 . S
C1115 H1095 0.950 . S
C1115 C1111 1.385 . S
C1115 C1114 1.374 . S
C1116 C1113 1.499 . S
C1116 C1117 1.373 . S
C1116 C1118 1.389 . S
C1117 H1096 0.950 . S
C1117 C1116 1.373 . S
C1117 C1133 1.377 . S
C1118 C1116 1.389 . S
C1118 C1119 1.524 . S
C1118 C1132 1.377 . S
C1119 C1118 1.524 . S
C1119 C1120 1.397 . S
C1119 C1124 1.363 . S
C1120 H1097 0.950 . S
C1120 C1119 1.397 . S
C1120 C1121 1.334 . S
C1121 H1098 0.950 . S
C1121 C1120 1.334 . S
C1121 C1122 1.287 . S
C1122 C1121 1.287 . S
C1122 C1123 1.524 . S
C1122 H1141 0.913 . S
C1123 H1099 0.950 . S
C1123 C1122 1.524 . S
C1123 C1124 1.415 . S
C1124 H1100 0.950 . S
C1124 C1119 1.363 . S
C1124 C1123 1.415 . S
C1125 H1101 0.951 . S
C1125 C1126 1.366 . S
C1125 C1127 1.388 . S
C1126 C1125 1.366 . S
C1126 C1130 1.385 . S
C1127 H1102 0.951 . S
C1127 C1125 1.388 . S
C1127 C1128 1.366 . S
C1128 C1127 1.366 . S
C1128 C1129 1.414 . S
C1128 C1131 1.499 . S
C1129 H1103 0.950 . S
C1129 C1128 1.414 . S
C1129 C1130 1.374 . S
C1130 H1104 0.950 . S
C1130 C1126 1.385 . S
C1130 C1129 1.374 . S
C1131 C1128 1.499 . S
C1131 C1132 1.373 . S
C1131 C1133 1.389 . S
C1132 H1105 0.950 . S
C1132 C1118 1.377 . S
C1132 C1131 1.373 . S
C1133 C1117 1.377 . S
C1133 C1131 1.389 . S
C1133 C1134 1.524 . S
C1134 C1133 1.524 . S
C1134 C1135 1.397 . S
C1134 C1139 1.363 . S
C1135 H1106 0.950 . S
C1135 C1134 1.397 . S
C1135 C1136 1.334 . S
C1136 H1107 0.950 . S
C1136 C1135 1.334 . S
C1136 C1137 1.287 . S
C1137 C1136 1.287 . S
C1137 C1138 1.524 . S
C1137 H1140 0.999 . S
C1138 H1108 0.950 . S
C1138 C1137 1.524 . S
C1138 C1139 1.415 . S
C1139 H1109 0.950 . S
C1139 C1134 1.363 . S
C1139 C1138 1.415 . S
H1140 C1137 0.999 . S
H1141 C1122 0.913 . S
H1142 C1160 0.951 . S
H1143 C1162 0.951 . S
H1144 C1164 0.950 . S
H1145 C1165 0.950 . S
H1146 C1167 0.950 . S
H1147 C1170 0.950 . S
H1148 C1171 0.950 . S
H1149 C1173 0.950 . S
H1150 C1174 0.950 . S
H1151 C1175 0.951 . S
H1152 C1177 0.951 . S
H1153 C1179 0.950 . S
H1154 C1180 0.950 . S
H1155 C1182 0.950 . S
H1156 C1185 0.950 . S
H1157 C1186 0.950 . S
H1158 C1188 0.950 . S
H1159 C1189 0.950 . S
C1160 H1142 0.951 . S
C1160 C1161 1.366 . S
C1160 C1162 1.388 . S
C1161 C1160 1.366 . S
C1161 C1165 1.385 . S
C1162 H1143 0.951 . S
C1162 C1160 1.388 . S
C1162 C1163 1.366 . S
C1163 C1162 1.366 . S
C1163 C1164 1.414 . S
C1163 C1166 1.499 . S
C1164 H1144 0.950 . S
C1164 C1163 1.414 . S
C1164 C1165 1.374 . S
C1165 H1145 0.950 . S
C1165 C1161 1.385 . S
C1165 C1164 1.374 . S
C1166 C1163 1.499 . S
C1166 C1167 1.373 . S
C1166 C1168 1.389 . S
C1167 H1146 0.950 . S
C1167 C1166 1.373 . S
C1167 C1183 1.377 . S
C1168 C1166 1.389 . S
C1168 C1169 1.524 . S
C1168 C1182 1.377 . S
C1169 C1168 1.524 . S
C1169 C1170 1.397 . S
C1169 C1174 1.363 . S
C1170 H1147 0.950 . S
C1170 C1169 1.397 . S
C1170 C1171 1.334 . S
C1171 H1148 0.950 . S
C1171 C1170 1.334 . S
C1171 C1172 1.287 1_455 S
C1172 C1171 1.287 1_655 S
C1172 C1173 1.524 . S
C1172 H1191 0.913 . S
C1173 H1149 0.950 . S
C1173 C1172 1.524 . S
C1173 C1174 1.415 1_655 S
C1174 H1150 0.950 . S
C1174 C1169 1.363 . S
C1174 C1173 1.415 1_455 S
C1175 H1151 0.951 . S
C1175 C1176 1.366 . S
C1175 C1177 1.388 . S
C1176 C1175 1.366 . S
C1176 C1180 1.385 . S
C1177 H1152 0.951 . S
C1177 C1175 1.388 . S
C1177 C1178 1.366 . S
C1178 C1177 1.366 . S
C1178 C1179 1.414 . S
C1178 C1181 1.499 . S
C1179 H1153 0.950 . S
C1179 C1178 1.414 . S
C1179 C1180 1.374 . S
C1180 H1154 0.950 . S
C1180 C1176 1.385 . S
C1180 C1179 1.374 . S
C1181 C1178 1.499 . S
C1181 C1182 1.373 . S
C1181 C1183 1.389 . S
C1182 H1155 0.950 . S
C1182 C1168 1.377 . S
C1182 C1181 1.373 . S
C1183 C1167 1.377 . S
C1183 C1181 1.389 . S
C1183 C1184 1.524 . S
C1184 C1183 1.524 . S
C1184 C1185 1.397 . S
C1184 C1189 1.363 . S
C1185 H1156 0.950 . S
C1185 C1184 1.397 . S
C1185 C1186 1.334 . S
C1186 H1157 0.950 . S
C1186 C1185 1.334 . S
C1186 C1187 1.287 . S
C1187 C1186 1.287 . S
C1187 C1188 1.524 . S
C1187 H1190 0.999 . S
C1188 H1158 0.950 . S
C1188 C1187 1.524 . S
C1188 C1189 1.415 . S
C1189 H1159 0.950 . S
C1189 C1184 1.363 . S
C1189 C1188 1.415 . S
H1190 C1187 0.999 . S
H1191 C1172 0.913 . S
H1192 C1210 0.951 . S
H1193 C1212 0.951 . S
H1194 C1214 0.950 . S
H1195 C1215 0.950 . S
H1196 C1217 0.950 . S
H1197 C1220 0.950 . S
H1198 C1221 0.950 . S
H1199 C1223 0.950 . S
H1200 C1224 0.950 . S
H1201 C1225 0.947 . S
H1202 C1227 0.951 1_545 S
H1203 C1229 0.950 . S
H1204 C1230 0.950 . S
H1205 C1232 0.950 . S
H1206 C1235 0.950 . S
H1207 C1236 0.950 . S
H1208 C1238 0.950 . S
H1209 C1239 0.950 . S
C1210 H1192 0.951 . S
C1210 C1211 1.366 . S
C1210 C1212 1.388 . S
C1211 C1210 1.366 . S
C1211 C1215 1.385 . S
C1212 H1193 0.951 . S
C1212 C1210 1.388 . S
C1212 C1213 1.366 . S
C1213 C1212 1.366 . S
C1213 C1214 1.414 . S
C1213 C1216 1.499 . S
C1214 H1194 0.950 . S
C1214 C1213 1.414 . S
C1214 C1215 1.374 . S
C1215 H1195 0.950 . S
C1215 C1211 1.385 . S
C1215 C1214 1.374 . S
C1216 C1213 1.499 . S
C1216 C1217 1.373 . S
C1216 C1218 1.389 . S
C1217 H1196 0.950 . S
C1217 C1216 1.373 . S
C1217 C1233 1.377 . S
C1218 C1216 1.389 . S
C1218 C1219 1.524 . S
C1218 C1232 1.377 . S
C1219 C1218 1.524 . S
C1219 C1220 1.397 . S
C1219 C1224 1.363 . S
C1220 H1197 0.950 . S
C1220 C1219 1.397 . S
C1220 C1221 1.334 . S
C1221 H1198 0.950 . S
C1221 C1220 1.334 . S
C1221 C1222 1.287 . S
C1222 C1221 1.287 . S
C1222 C1223 1.524 . S
C1222 H1241 0.913 . S
C1223 H1199 0.950 . S
C1223 C1222 1.524 . S
C1223 C1224 1.415 . S
C1224 H1200 0.950 . S
C1224 C1219 1.363 . S
C1224 C1223 1.415 . S
C1225 H1201 0.947 . S
C1225 C1226 1.368 1_545 S
C1225 C1227 1.389 1_545 S
C1226 C1225 1.368 1_565 S
C1226 C1230 1.385 . S
C1227 H1202 0.951 1_565 S
C1227 C1225 1.389 1_565 S
C1227 C1228 1.366 . S
C1228 C1227 1.366 . S
C1228 C1229 1.414 . S
C1228 C1231 1.499 . S
C1229 H1203 0.950 . S
C1229 C1228 1.414 . S
C1229 C1230 1.374 . S
C1230 H1204 0.950 . S
C1230 C1226 1.385 . S
C1230 C1229 1.374 . S
C1231 C1228 1.499 . S
C1231 C1232 1.373 . S
C1231 C1233 1.389 . S
C1232 H1205 0.950 . S
C1232 C1218 1.377 . S
C1232 C1231 1.373 . S
C1233 C1217 1.377 . S
C1233 C1231 1.389 . S
C1233 C1234 1.524 . S
C1234 C1233 1.524 . S
C1234 C1235 1.397 1_556 S
C1234 C1239 1.363 1_565 S
C1235 H1206 0.950 . S
C1235 C1234 1.397 1_554 S
C1235 C1236 1.334 . S
C1236 H1207 0.950 . S
C1236 C1235 1.334 . S
C1236 C1237 1.287 1_565 S
C1237 C1236 1.287 1_545 S
C1237 C1238 1.524 . S
C1237 H1240 0.999 . S
C1238 H1208 0.950 . S
C1238 C1237 1.524 . S
C1238 C1239 1.415 1_554 S
C1239 H1209 0.950 . S
C1239 C1234 1.363 1_545 S
C1239 C1238 1.415 1_556 S
H1240 C1237 0.999 . S
H1241 C1222 0.913 . S
H1242 C1260 0.951 . S
H1243 C1262 0.951 . S
H1244 C1264 0.950 . S
H1245 C1265 0.950 . S
H1246 C1267 0.950 . S
H1247 C1270 0.950 . S
H1248 C1271 0.950 . S
H1249 C1273 0.950 . S
H1250 C1274 0.950 . S
H1251 C1275 0.951 . S
H1252 C1277 0.951 . S
H1253 C1279 0.950 . S
H1254 C1280 0.950 . S
H1255 C1282 0.950 . S
H1256 C1285 0.950 . S
H1257 C1286 0.950 . S
H1258 C1288 0.950 . S
H1259 C1289 0.950 . S
C1260 H1242 0.951 . S
C1260 C1261 1.366 . S
C1260 C1262 1.388 . S
C1261 C1260 1.366 . S
C1261 C1265 1.385 . S
C1262 H1243 0.951 . S
C1262 C1260 1.388 . S
C1262 C1263 1.366 . S
C1263 C1262 1.366 . S
C1263 C1264 1.414 . S
C1263 C1266 1.499 . S
C1264 H1244 0.950 . S
C1264 C1263 1.414 . S
C1264 C1265 1.374 . S
C1265 H1245 0.950 . S
C1265 C1261 1.385 . S
C1265 C1264 1.374 . S
C1266 C1263 1.499 . S
C1266 C1267 1.373 . S
C1266 C1268 1.389 . S
C1267 H1246 0.950 . S
C1267 C1266 1.373 . S
C1267 C1283 1.377 . S
C1268 C1266 1.389 . S
C1268 C1269 1.524 . S
C1268 C1282 1.377 . S
C1269 C1268 1.524 . S
C1269 C1270 1.397 . S
C1269 C1274 1.363 . S
C1270 H1247 0.950 . S
C1270 C1269 1.397 . S
C1270 C1271 1.334 . S
C1271 H1248 0.950 . S
C1271 C1270 1.334 . S
C1271 C1272 1.287 . S
C1272 C1271 1.287 . S
C1272 C1273 1.524 . S
C1272 H1291 0.913 . S
C1273 H1249 0.950 . S
C1273 C1272 1.524 . S
C1273 C1274 1.415 . S
C1274 H1250 0.950 . S
C1274 C1269 1.363 . S
C1274 C1273 1.415 . S
C1275 H1251 0.951 . S
C1275 C1276 1.366 . S
C1275 C1277 1.388 . S
C1276 C1275 1.366 . S
C1276 C1280 1.385 . S
C1277 H1252 0.951 . S
C1277 C1275 1.388 . S
C1277 C1278 1.366 . S
C1278 C1277 1.366 . S
C1278 C1279 1.414 . S
C1278 C1281 1.499 . S
C1279 H1253 0.950 . S
C1279 C1278 1.414 . S
C1279 C1280 1.374 . S
C1280 H1254 0.950 . S
C1280 C1276 1.385 . S
C1280 C1279 1.374 . S
C1281 C1278 1.499 . S
C1281 C1282 1.373 . S
C1281 C1283 1.389 . S
C1282 H1255 0.950 . S
C1282 C1268 1.377 . S
C1282 C1281 1.373 . S
C1283 C1267 1.377 . S
C1283 C1281 1.389 . S
C1283 C1284 1.524 . S
C1284 C1283 1.524 . S
C1284 C1285 1.397 . S
C1284 C1289 1.363 . S
C1285 H1256 0.950 . S
C1285 C1284 1.397 . S
C1285 C1286 1.334 . S
C1286 H1257 0.950 . S
C1286 C1285 1.334 . S
C1286 C1287 1.287 . S
C1287 C1286 1.287 . S
C1287 C1288 1.524 . S
C1287 H1290 0.999 . S
C1288 H1258 0.950 . S
C1288 C1287 1.524 . S
C1288 C1289 1.415 . S
C1289 H1259 0.950 . S
C1289 C1284 1.363 . S
C1289 C1288 1.415 . S
H1290 C1287 0.999 . S
H1291 C1272 0.913 . S
H1292 C1310 0.951 . S
H1293 C1312 0.951 . S
H1294 C1314 0.950 . S
H1295 C1315 0.950 . S
H1296 C1317 0.950 . S
H1297 C1320 0.950 . S
H1298 C1321 0.950 . S
H1299 C1323 0.984 . S
H1300 C1324 0.950 1_556 S
H1301 C1325 0.951 . S
H1302 C1327 0.951 . S
H1303 C1329 0.950 1_556 S
H1304 C1330 0.950 1_556 S
H1305 C1332 0.950 . S
H1306 C1335 0.950 . S
H1307 C1336 0.950 . S
H1308 C1338 0.950 . S
H1309 C1339 0.950 . S
C1310 H1292 0.951 . S
C1310 C1311 1.366 . S
C1310 C1312 1.388 . S
C1311 C1310 1.366 . S
C1311 C1315 1.385 . S
C1312 H1293 0.951 . S
C1312 C1310 1.388 . S
C1312 C1313 1.366 . S
C1313 C1312 1.366 . S
C1313 C1314 1.414 . S
C1313 C1316 1.499 . S
C1314 H1294 0.950 . S
C1314 C1313 1.414 . S
C1314 C1315 1.374 . S
C1315 H1295 0.950 . S
C1315 C1311 1.385 . S
C1315 C1314 1.374 . S
C1316 C1313 1.499 . S
C1316 C1317 1.373 . S
C1316 C1318 1.389 . S
C1317 H1296 0.950 . S
C1317 C1316 1.373 . S
C1317 C1333 1.377 . S
C1318 C1316 1.389 . S
C1318 C1319 1.524 . S
C1318 C1332 1.377 . S
C1319 C1318 1.524 . S
C1319 C1320 1.397 . S
C1319 C1324 1.363 . S
C1320 H1297 0.950 . S
C1320 C1319 1.397 . S
C1320 C1321 1.334 . S
C1321 H1298 0.950 . S
C1321 C1320 1.334 . S
C1321 C1322 1.287 . S
C1322 C1321 1.287 . S
C1322 C1323 1.496 1_554 S
C1322 H1341 0.913 . S
C1323 H1299 0.984 . S
C1323 C1322 1.496 1_556 S
C1323 C1324 1.404 1_556 S
C1324 H1300 0.950 1_554 S
C1324 C1319 1.363 . S
C1324 C1323 1.404 1_554 S
C1325 H1301 0.951 . S
C1325 C1326 1.366 . S
C1325 C1327 1.388 . S
C1326 C1325 1.366 . S
C1326 C1330 1.385 . S
C1327 H1302 0.951 . S
C1327 C1325 1.388 . S
C1327 C1328 1.366 . S
C1328 C1327 1.366 . S
C1328 C1329 1.414 . S
C1328 C1331 1.499 . S
C1329 H1303 0.950 1_554 S
C1329 C1328 1.414 . S
C1329 C1330 1.374 . S
C1330 H1304 0.950 1_554 S
C1330 C1326 1.385 . S
C1330 C1329 1.374 . S
C1331 C1328 1.499 . S
C1331 C1332 1.373 . S
C1331 C1333 1.389 . S
C1332 H1305 0.950 . S
C1332 C1318 1.377 . S
C1332 C1331 1.373 . S
C1333 C1317 1.377 . S
C1333 C1331 1.389 . S
C1333 C1334 1.524 . S
C1334 C1333 1.524 . S
C1334 C1335 1.397 . S
C1334 C1339 1.363 . S
C1335 H1306 0.950 . S
C1335 C1334 1.397 . S
C1335 C1336 1.334 . S
C1336 H1307 0.950 . S
C1336 C1335 1.334 . S
C1336 C1337 1.287 . S
C1337 C1336 1.287 . S
C1337 C1338 1.524 . S
C1337 H1340 0.999 . S
C1338 H1308 0.950 . S
C1338 C1337 1.524 . S
C1338 C1339 1.415 . S
C1339 H1309 0.950 . S
C1339 C1334 1.363 . S
C1339 C1338 1.415 . S
H1340 C1337 0.999 . S
H1341 C1322 0.913 . S
H1342 C1360 0.951 . S
H1343 C1362 0.951 . S
H1344 C1364 0.950 . S
H1345 C1365 0.950 . S
H1346 C1367 0.950 . S
H1347 C1370 0.950 . S
H1348 C1371 0.950 . S
H1349 C1373 0.950 . S
H1350 C1374 0.950 . S
H1351 C1375 0.951 . S
H1352 C1377 0.951 . S
H1353 C1379 0.950 . S
H1354 C1380 0.950 . S
H1355 C1382 0.950 . S
H1356 C1385 0.950 . S
H1357 C1386 0.950 . S
H1358 C1388 0.950 . S
H1359 C1389 0.950 . S
C1360 H1342 0.951 . S
C1360 C1361 1.366 . S
C1360 C1362 1.388 . S
C1361 C1360 1.366 . S
C1361 C1365 1.385 . S
C1362 H1343 0.951 . S
C1362 C1360 1.388 . S
C1362 C1363 1.366 . S
C1363 C1362 1.366 . S
C1363 C1364 1.414 . S
C1363 C1366 1.499 . S
C1364 H1344 0.950 . S
C1364 C1363 1.414 . S
C1364 C1365 1.374 . S
C1365 H1345 0.950 . S
C1365 C1361 1.385 . S
C1365 C1364 1.374 . S
C1366 C1363 1.499 . S
C1366 C1367 1.373 . S
C1366 C1368 1.389 . S
C1367 H1346 0.950 . S
C1367 C1366 1.373 . S
C1367 C1383 1.377 . S
C1368 C1366 1.389 . S
C1368 C1369 1.524 . S
C1368 C1382 1.377 . S
C1369 C1368 1.524 . S
C1369 C1370 1.397 . S
C1369 C1374 1.363 . S
C1370 H1347 0.950 . S
C1370 C1369 1.397 . S
C1370 C1371 1.334 . S
C1371 H1348 0.950 . S
C1371 C1370 1.334 . S
C1371 C1372 1.287 . S
C1372 C1371 1.287 . S
C1372 C1373 1.524 . S
C1372 H1391 0.913 . S
C1373 H1349 0.950 . S
C1373 C1372 1.524 . S
C1373 C1374 1.415 . S
C1374 H1350 0.950 . S
C1374 C1369 1.363 . S
C1374 C1373 1.415 . S
C1375 H1351 0.951 . S
C1375 C1376 1.366 . S
C1375 C1377 1.388 . S
C1376 C1375 1.366 . S
C1376 C1380 1.385 . S
C1377 H1352 0.951 . S
C1377 C1375 1.388 . S
C1377 C1378 1.366 . S
C1378 C1377 1.366 . S
C1378 C1379 1.414 . S
C1378 C1381 1.499 . S
C1379 H1353 0.950 . S
C1379 C1378 1.414 . S
C1379 C1380 1.374 . S
C1380 H1354 0.950 . S
C1380 C1376 1.385 . S
C1380 C1379 1.374 . S
C1381 C1378 1.499 . S
C1381 C1382 1.373 . S
C1381 C1383 1.389 . S
C1382 H1355 0.950 . S
C1382 C1368 1.377 . S
C1382 C1381 1.373 . S
C1383 C1367 1.377 . S
C1383 C1381 1.389 . S
C1383 C1384 1.524 . S
C1384 C1383 1.524 . S
C1384 C1385 1.397 . S
C1384 C1389 1.363 . S
C1385 H1356 0.950 . S
C1385 C1384 1.397 . S
C1385 C1386 1.334 . S
C1386 H1357 0.950 . S
C1386 C1385 1.334 . S
C1386 C1387 1.287 . S
C1387 C1386 1.287 . S
C1387 C1388 1.524 . S
C1387 H1390 0.999 . S
C1388 H1358 0.950 . S
C1388 C1387 1.524 . S
C1388 C1389 1.415 . S
C1389 H1359 0.950 . S
C1389 C1384 1.363 . S
C1389 C1388 1.415 . S
H1390 C1387 0.999 . S
H1391 C1372 0.913 . S
H1392 C1410 0.951 . S
H1393 C1412 0.951 . S
H1394 C1414 0.950 . S
H1395 C1415 0.950 . S
H1396 C1417 0.950 . S
H1397 C1420 0.950 . S
H1398 C1421 0.950 . S
H1399 C1423 0.950 . S
H1400 C1424 0.950 . S
H1401 C1425 0.951 . S
H1402 C1427 0.951 . S
H1403 C1429 0.950 1_455 S
H1404 C1430 0.950 1_455 S
H1405 C1432 0.950 . S
H1406 C1435 0.950 . S
H1407 C1436 0.950 . S
H1408 C1438 0.950 . S
H1409 C1439 0.950 . S
C1410 H1392 0.951 . S
C1410 C1411 1.366 . S
C1410 C1412 1.388 . S
C1411 C1410 1.366 . S
C1411 C1415 1.385 . S
C1412 H1393 0.951 . S
C1412 C1410 1.388 . S
C1412 C1413 1.366 . S
C1413 C1412 1.366 . S
C1413 C1414 1.414 . S
C1413 C1416 1.499 . S
C1414 H1394 0.950 . S
C1414 C1413 1.414 . S
C1414 C1415 1.374 . S
C1415 H1395 0.950 . S
C1415 C1411 1.385 . S
C1415 C1414 1.374 . S
C1416 C1413 1.499 . S
C1416 C1417 1.373 . S
C1416 C1418 1.389 . S
C1417 H1396 0.950 . S
C1417 C1416 1.373 . S
C1417 C1433 1.377 . S
C1418 C1416 1.389 . S
C1418 C1419 1.524 . S
C1418 C1432 1.377 . S
C1419 C1418 1.524 . S
C1419 C1420 1.397 . S
C1419 C1424 1.363 1_655 S
C1420 H1397 0.950 . S
C1420 C1419 1.397 . S
C1420 C1421 1.334 . S
C1421 H1398 0.950 . S
C1421 C1420 1.334 . S
C1421 C1422 1.287 1_655 S
C1422 C1421 1.287 1_455 S
C1422 C1423 1.524 . S
C1422 H1441 0.913 . S
C1423 H1399 0.950 . S
C1423 C1422 1.524 . S
C1423 C1424 1.415 . S
C1424 H1400 0.950 . S
C1424 C1419 1.363 1_455 S
C1424 C1423 1.415 . S
C1425 H1401 0.951 . S
C1425 C1426 1.366 . S
C1425 C1427 1.388 . S
C1426 C1425 1.366 . S
C1426 C1430 1.385 . S
C1427 H1402 0.951 . S
C1427 C1425 1.388 . S
C1427 C1428 1.366 . S
C1428 C1427 1.366 . S
C1428 C1429 1.414 . S
C1428 C1431 1.499 . S
C1429 H1403 0.950 1_655 S
C1429 C1428 1.414 . S
C1429 C1430 1.374 . S
C1430 H1404 0.950 1_655 S
C1430 C1426 1.385 . S
C1430 C1429 1.374 . S
C1431 C1428 1.499 . S
C1431 C1432 1.373 . S
C1431 C1433 1.389 . S
C1432 H1405 0.950 . S
C1432 C1418 1.377 . S
C1432 C1431 1.373 . S
C1433 C1417 1.377 . S
C1433 C1431 1.389 . S
C1433 C1434 1.524 . S
C1434 C1433 1.524 . S
C1434 C1435 1.397 1_556 S
C1434 C1439 1.363 . S
C1435 H1406 0.950 . S
C1435 C1434 1.397 1_554 S
C1435 C1436 1.334 . S
C1436 H1407 0.950 . S
C1436 C1435 1.334 . S
C1436 C1437 1.287 . S
C1437 C1436 1.287 . S
C1437 C1438 1.524 . S
C1437 H1440 0.999 . S
C1438 H1408 0.950 . S
C1438 C1437 1.524 . S
C1438 C1439 1.415 1_554 S
C1439 H1409 0.950 . S
C1439 C1434 1.363 . S
C1439 C1438 1.415 1_556 S
H1440 C1437 0.999 . S
H1441 C1422 0.913 . S
H1442 C1460 0.951 . S
H1443 C1462 0.951 . S
H1444 C1464 0.950 . S
H1445 C1465 0.950 . S
H1446 C1467 0.950 . S
H1447 C1470 0.950 . S
H1448 C1471 0.950 . S
H1449 C1473 0.950 . S
H1450 C1474 0.950 . S
H1451 C1475 0.951 . S
H1452 C1477 0.951 . S
H1453 C1479 0.950 . S
H1454 C1480 0.950 . S
H1455 C1482 0.950 . S
H1456 C1485 0.950 . S
H1457 C1486 0.950 . S
H1458 C1488 0.950 . S
H1459 C1489 0.950 . S
C1460 H1442 0.951 . S
C1460 C1461 1.366 . S
C1460 C1462 1.388 . S
C1461 C1460 1.366 . S
C1461 C1465 1.385 . S
C1462 H1443 0.951 . S
C1462 C1460 1.388 . S
C1462 C1463 1.366 . S
C1463 C1462 1.366 . S
C1463 C1464 1.414 . S
C1463 C1466 1.499 . S
C1464 H1444 0.950 . S
C1464 C1463 1.414 . S
C1464 C1465 1.374 . S
C1465 H1445 0.950 . S
C1465 C1461 1.385 . S
C1465 C1464 1.374 . S
C1466 C1463 1.499 . S
C1466 C1467 1.373 . S
C1466 C1468 1.389 . S
C1467 H1446 0.950 . S
C1467 C1466 1.373 . S
C1467 C1483 1.377 . S
C1468 C1466 1.389 . S
C1468 C1469 1.524 . S
C1468 C1482 1.377 . S
C1469 C1468 1.524 . S
C1469 C1470 1.397 . S
C1469 C1474 1.363 . S
C1470 H1447 0.950 . S
C1470 C1469 1.397 . S
C1470 C1471 1.334 . S
C1471 H1448 0.950 . S
C1471 C1470 1.334 . S
C1471 C1472 1.287 . S
C1472 C1471 1.287 . S
C1472 C1473 1.524 . S
C1472 H1491 0.913 . S
C1473 H1449 0.950 . S
C1473 C1472 1.524 . S
C1473 C1474 1.415 . S
C1474 H1450 0.950 . S
C1474 C1469 1.363 . S
C1474 C1473 1.415 . S
C1475 H1451 0.951 . S
C1475 C1476 1.366 . S
C1475 C1477 1.388 . S
C1476 C1475 1.366 . S
C1476 C1480 1.385 . S
C1477 H1452 0.951 . S
C1477 C1475 1.388 . S
C1477 C1478 1.366 . S
C1478 C1477 1.366 . S
C1478 C1479 1.414 . S
C1478 C1481 1.499 . S
C1479 H1453 0.950 . S
C1479 C1478 1.414 . S
C1479 C1480 1.374 . S
C1480 H1454 0.950 . S
C1480 C1476 1.385 . S
C1480 C1479 1.374 . S
C1481 C1478 1.499 . S
C1481 C1482 1.373 . S
C1481 C1483 1.389 . S
C1482 H1455 0.950 . S
C1482 C1468 1.377 . S
C1482 C1481 1.373 . S
C1483 C1467 1.377 . S
C1483 C1481 1.389 . S
C1483 C1484 1.524 . S
C1484 C1483 1.524 . S
C1484 C1485 1.397 . S
C1484 C1489 1.363 . S
C1485 H1456 0.950 . S
C1485 C1484 1.397 . S
C1485 C1486 1.334 . S
C1486 H1457 0.950 . S
C1486 C1485 1.334 . S
C1486 C1487 1.287 . S
C1487 C1486 1.287 . S
C1487 C1488 1.524 . S
C1487 H1490 0.999 . S
C1488 H1458 0.950 . S
C1488 C1487 1.524 . S
C1488 C1489 1.415 . S
C1489 H1459 0.950 . S
C1489 C1484 1.363 . S
C1489 C1488 1.415 . S
H1490 C1487 0.999 . S
H1491 C1472 0.913 . S
H1492 C1510 0.951 . S
H1493 C1512 0.951 . S
H1494 C1514 0.950 . S
H1495 C1515 0.950 . S
H1496 C1517 0.950 . S
H1497 C1520 0.950 . S
H1498 C1521 0.950 . S
H1499 C1523 0.950 1_655 S
H1500 C1524 0.950 . S
H1501 C1525 0.951 . S
H1502 C1527 0.951 . S
H1503 C1529 0.950 . S
H1504 C1530 0.950 . S
H1505 C1532 0.950 . S
H1506 C1535 0.950 . S
H1507 C1536 0.950 . S
H1508 C1538 0.950 . S
H1509 C1539 0.950 . S
C1510 H1492 0.951 . S
C1510 C1511 1.366 . S
C1510 C1512 1.388 . S
C1511 C1510 1.366 . S
C1511 C1515 1.385 . S
C1512 H1493 0.951 . S
C1512 C1510 1.388 . S
C1512 C1513 1.366 . S
C1513 C1512 1.366 . S
C1513 C1514 1.414 . S
C1513 C1516 1.499 . S
C1514 H1494 0.950 . S
C1514 C1513 1.414 . S
C1514 C1515 1.374 . S
C1515 H1495 0.950 . S
C1515 C1511 1.385 . S
C1515 C1514 1.374 . S
C1516 C1513 1.499 . S
C1516 C1517 1.373 . S
C1516 C1518 1.389 . S
C1517 H1496 0.950 . S
C1517 C1516 1.373 . S
C1517 C1533 1.377 . S
C1518 C1516 1.389 . S
C1518 C1519 1.524 . S
C1518 C1532 1.377 . S
C1519 C1518 1.524 . S
C1519 C1520 1.397 . S
C1519 C1524 1.363 . S
C1520 H1497 0.950 . S
C1520 C1519 1.397 . S
C1520 C1521 1.334 . S
C1521 H1498 0.950 . S
C1521 C1520 1.334 . S
C1521 C1522 1.287 . S
C1522 C1521 1.287 . S
C1522 C1523 1.524 . S
C1522 H1541 0.913 . S
C1523 H1499 0.950 1_455 S
C1523 C1522 1.524 . S
C1523 C1524 1.415 . S
C1524 H1500 0.950 . S
C1524 C1519 1.363 . S
C1524 C1523 1.415 . S
C1525 H1501 0.951 . S
C1525 C1526 1.366 . S
C1525 C1527 1.388 . S
C1526 C1525 1.366 . S
C1526 C1530 1.385 . S
C1527 H1502 0.951 . S
C1527 C1525 1.388 . S
C1527 C1528 1.366 . S
C1528 C1527 1.366 . S
C1528 C1529 1.414 . S
C1528 C1531 1.499 . S
C1529 H1503 0.950 . S
C1529 C1528 1.414 . S
C1529 C1530 1.374 . S
C1530 H1504 0.950 . S
C1530 C1526 1.385 . S
C1530 C1529 1.374 . S
C1531 C1528 1.499 . S
C1531 C1532 1.373 . S
C1531 C1533 1.389 . S
C1532 H1505 0.950 . S
C1532 C1518 1.377 . S
C1532 C1531 1.373 . S
C1533 C1517 1.377 . S
C1533 C1531 1.389 . S
C1533 C1534 1.524 . S
C1534 C1533 1.524 . S
C1534 C1535 1.397 . S
C1534 C1539 1.363 . S
C1535 H1506 0.950 . S
C1535 C1534 1.397 . S
C1535 C1536 1.334 . S
C1536 H1507 0.950 . S
C1536 C1535 1.334 . S
C1536 C1537 1.287 . S
C1537 C1536 1.287 . S
C1537 C1538 1.524 . S
C1537 H1540 0.999 . S
C1538 H1508 0.950 . S
C1538 C1537 1.524 . S
C1538 C1539 1.415 . S
C1539 H1509 0.950 . S
C1539 C1534 1.363 . S
C1539 C1538 1.415 . S
H1540 C1537 0.999 . S
H1541 C1522 0.913 . S
H1542 C1560 0.951 . S
H1543 C1562 0.951 . S
H1544 C1564 0.950 . S
H1545 C1565 0.950 . S
H1546 C1567 0.950 . S
H1547 C1570 0.950 . S
H1548 C1571 0.950 . S
H1549 C1573 0.950 . S
H1550 C1574 0.950 . S
H1551 C1575 0.951 . S
H1552 C1577 0.951 . S
H1553 C1579 0.950 . S
H1554 C1580 0.950 . S
H1555 C1582 0.950 . S
H1556 C1585 0.950 . S
H1557 C1586 0.950 . S
H1558 C1588 0.950 . S
H1559 C1589 0.950 . S
C1560 H1542 0.951 . S
C1560 C1561 1.366 . S
C1560 C1562 1.388 . S
C1561 C1560 1.366 . S
C1561 C1565 1.385 . S
C1562 H1543 0.951 . S
C1562 C1560 1.388 . S
C1562 C1563 1.366 . S
C1563 C1562 1.366 . S
C1563 C1564 1.414 . S
C1563 C1566 1.499 . S
C1564 H1544 0.950 . S
C1564 C1563 1.414 . S
C1564 C1565 1.374 . S
C1565 H1545 0.950 . S
C1565 C1561 1.385 . S
C1565 C1564 1.374 . S
C1566 C1563 1.499 . S
C1566 C1567 1.373 . S
C1566 C1568 1.389 . S
C1567 H1546 0.950 . S
C1567 C1566 1.373 . S
C1567 C1583 1.377 . S
C1568 C1566 1.389 . S
C1568 C1569 1.524 . S
C1568 C1582 1.377 . S
C1569 C1568 1.524 . S
C1569 C1570 1.397 . S
C1569 C1574 1.363 . S
C1570 H1547 0.950 . S
C1570 C1569 1.397 . S
C1570 C1571 1.334 . S
C1571 H1548 0.950 . S
C1571 C1570 1.334 . S
C1571 C1572 1.287 . S
C1572 C1571 1.287 . S
C1572 C1573 1.524 . S
C1572 H1591 0.913 . S
C1573 H1549 0.950 . S
C1573 C1572 1.524 . S
C1573 C1574 1.415 . S
C1574 H1550 0.950 . S
C1574 C1569 1.363 . S
C1574 C1573 1.415 . S
C1575 H1551 0.951 . S
C1575 C1576 1.366 . S
C1575 C1577 1.388 . S
C1576 C1575 1.366 . S
C1576 C1580 1.385 . S
C1577 H1552 0.951 . S
C1577 C1575 1.388 . S
C1577 C1578 1.366 . S
C1578 C1577 1.366 . S
C1578 C1579 1.414 . S
C1578 C1581 1.499 . S
C1579 H1553 0.950 . S
C1579 C1578 1.414 . S
C1579 C1580 1.374 . S
C1580 H1554 0.950 . S
C1580 C1576 1.385 . S
C1580 C1579 1.374 . S
C1581 C1578 1.499 . S
C1581 C1582 1.373 . S
C1581 C1583 1.389 . S
C1582 H1555 0.950 . S
C1582 C1568 1.377 . S
C1582 C1581 1.373 . S
C1583 C1567 1.377 . S
C1583 C1581 1.389 . S
C1583 C1584 1.524 . S
C1584 C1583 1.524 . S
C1584 C1585 1.397 . S
C1584 C1589 1.363 . S
C1585 H1556 0.950 . S
C1585 C1584 1.397 . S
C1585 C1586 1.334 . S
C1586 H1557 0.950 . S
C1586 C1585 1.334 . S
C1586 C1587 1.287 . S
C1587 C1586 1.287 . S
C1587 C1588 1.524 . S
C1587 H1590 0.999 . S
C1588 H1558 0.950 . S
C1588 C1587 1.524 . S
C1588 C1589 1.415 . S
C1589 H1559 0.950 . S
C1589 C1584 1.363 . S
C1589 C1588 1.415 . S
H1590 C1587 0.999 . S
H1591 C1572 0.913 . S
C411 C29 2.280 . S
C426 C256 2.379 . S
C461 C49 2.228 . S
C476 C298 2.234 . S
C526 C328 0.980 . S
C511 C93 0.940 . S
C561 C119 0.925 . S
C576 C362 0.961 . S
C626 C319 1.848 . S
C611 C17 1.767 . S
C676 C273 1.894 . S
C661 C61 1.889 . S
C726 C366 1.298 . S
C711 C81 1.232 . S
C776 C332 1.429 . S
C761 C125 1.337 . S
C811 C23 2.088 . S
C826 C387 2.177 . S
C876 C294 1.061 . S
C861 C87 1.019 . S
C911 C113 1.076 . S
C926 C269 1.132 . S
C961 C55 2.161 . S
C976 C353 2.164 . S
C1026 C285 2.302 . S
C1011 C157 2.291 . S
C1061 C189 2.186 . S
C1076 C307 2.286 . S
C1111 C221 0.952 . S
C1126 C337 0.952 . S
C1161 C253 0.974 . S
C1176 C371 1.020 . S
C1211 C145 1.894 . S
C1226 C290 1.902 . S
C1276 C264 1.812 . S
C1261 C183 1.732 . S
C1326 C375 1.349 . S
C1311 C209 1.350 . S
C1376 C341 1.361 . S
C1361 C247 1.283 . S
C1411 C151 2.194 . S
C1426 C358 2.200 . S
C1476 C303 1.072 . S
C1461 C215 1.077 . S
C1526 C260 1.110 . S
C1511 C241 1.063 . S
C1561 C177 2.120 . S
C1576 C324 2.206 . S
