# Generated by pormake.
# Topology anh, (6,3)-cn, num edge types: 1
# Building blocks:
#     Node 0, Type 0, BuildingBlock: BETFAJ_clean_sbu_0, # of connection points: 6
#     Node 1, Type 0, BuildingBlock: BETFAJ_clean_sbu_0, # of connection points: 6
#     Node 2, Type 0, BuildingBlock: BETFAJ_clean_sbu_0, # of connection points: 6
#     Node 3, Type 1, BuildingBlock: KAKCAD_clean_linker_0, # of connection points: 3
#     Node 4, Type 1, BuildingBlock: KAKCAD_clean_linker_0, # of connection points: 3
#     Node 5, Type 1, BuildingBlock: KAKCAD_clean_linker_0, # of connection points: 3
#     Node 6, Type 1, BuildingBlock: KAKCAD_clean_linker_0, # of connection points: 3
#     Node 7, Type 1, BuildingBlock: KAKCAD_clean_linker_0, # of connection points: 3
#     Node 8, Type 1, BuildingBlock: KAKCAD_clean_linker_0, # of connection points: 3
#     Edge 9, Type (0, 1), BuildingBlock: AJUNOK_clean_linker_0, # of connection points: 2
#     Edge 10, Type (0, 1), BuildingBlock: AJUNOK_clean_linker_0, # of connection points: 2
#     Edge 11, Type (0, 1), BuildingBlock: AJUNOK_clean_linker_0, # of connection points: 2
#     Edge 12, Type (0, 1), BuildingBlock: AJUNOK_clean_linker_0, # of connection points: 2
#     Edge 13, Type (0, 1), BuildingBlock: AJUNOK_clean_linker_0, # of connection points: 2
#     Edge 14, Type (0, 1), BuildingBlock: AJUNOK_clean_linker_0, # of connection points: 2
#     Edge 15, Type (0, 1), BuildingBlock: AJUNOK_clean_linker_0, # of connection points: 2
#     Edge 16, Type (0, 1), BuildingBlock: AJUNOK_clean_linker_0, # of connection points: 2
#     Edge 17, Type (0, 1), BuildingBlock: AJUNOK_clean_linker_0, # of connection points: 2
#     Edge 18, Type (0, 1), BuildingBlock: AJUNOK_clean_linker_0, # of connection points: 2
#     Edge 19, Type (0, 1), BuildingBlock: AJUNOK_clean_linker_0, # of connection points: 2
#     Edge 20, Type (0, 1), BuildingBlock: AJUNOK_clean_linker_0, # of connection points: 2
#     Edge 21, Type (0, 1), BuildingBlock: AJUNOK_clean_linker_0, # of connection points: 2
#     Edge 22, Type (0, 1), BuildingBlock: AJUNOK_clean_linker_0, # of connection points: 2
#     Edge 23, Type (0, 1), BuildingBlock: AJUNOK_clean_linker_0, # of connection points: 2
#     Edge 24, Type (0, 1), BuildingBlock: AJUNOK_clean_linker_0, # of connection points: 2
#     Edge 25, Type (0, 1), BuildingBlock: AJUNOK_clean_linker_0, # of connection points: 2
#     Edge 26, Type (0, 1), BuildingBlock: AJUNOK_clean_linker_0, # of connection points: 2
# Relax obj value: 0.212
# Max RMSD: 0.224
# Mean RMSD: 0.164
data_MOF--net-anh--node1-BETFAJ_clean_sbu_0--node2-KAKCAD_clean_linker_0--edge1-AJUNOK_clean_linker_0
_symmetry_space_group_name_H-M    P1
_symmetry_Int_Tables_number       1
_symmetry_cell_setting            triclinic
loop_
_symmetry_equiv_pos_as_xyz
'x, y, z'
_cell_length_a     29.566999
_cell_length_b     35.506895
_cell_length_c     52.850604
_cell_angle_alpha  92.217191
_cell_angle_beta   89.393881
_cell_angle_gamma 130.01586
loop_
_atom_site_label
_atom_site_type_symbol
_atom_site_fract_x
_atom_site_fract_y
_atom_site_fract_z
_atom_type_partial_charge
Sm0 Sm 0.17563 0.56307 0.14589 0.0
Sm1 Sm 0.10345 0.59271 0.15664 0.0
C2 C 0.24283 0.54351 0.12854 0.0
C3 C 0.2337 0.49788 0.12496 0.0
C4 C 0.28205 0.49944 0.12671 0.0
C5 C 0.27385 0.45617 0.12388 0.0
C6 C 0.21704 0.4106 0.11939 0.0
C7 C 0.16853 0.40908 0.11775 0.0
C8 C 0.17675 0.45242 0.12069 0.0
C9 C 0.15109 0.56198 0.19606 0.0
C10 C 0.24252 0.68188 0.15316 0.0
C11 C 1.02633 0.60034 0.17541 0.0
C12 C 0.96172 0.56752 0.17338 0.0
C13 C 0.92852 0.56367 0.19388 0.0
C14 C 0.86673 0.52881 0.19275 0.0
C15 C 0.83807 0.49759 0.17115 0.0
C16 C 0.87126 0.50227 0.15052 0.0
C17 C 0.93265 0.53663 0.15169 0.0
C18 C 0.12128 0.58724 0.1057 0.0
C19 C 1.03611 0.47284 0.15077 0.0
O20 O 0.24523 0.5575 0.15208 0.0
O21 O 0.21154 0.54814 0.11375 0.0
O22 O 0.16711 0.59576 0.18142 0.0
O23 O 0.14938 0.52813 0.18459 0.0
O24 O 0.24391 0.64844 0.14218 0.0
O25 O 0.19395 0.66844 0.16391 0.0
O26 O 1.04688 0.58313 0.18807 0.0
O27 O 1.05507 0.62096 0.15456 0.0
O28 O 0.10876 0.5567 0.1218 0.0
O29 O 0.12282 0.62179 0.11614 0.0
O30 O 1.03247 0.50713 0.15746 0.0
O31 O 0.08646 0.48461 0.14357 0.0
H32 H 0.32619 0.53418 0.13009 0.0
H33 H 0.31221 0.45852 0.12455 0.0
H34 H 0.12445 0.37445 0.1141 0.0
H35 H 0.13873 0.45046 0.1195 0.0
H36 H 0.9504 0.58693 0.21086 0.0
H37 H 0.84145 0.52577 0.20873 0.0
H38 H 0.8495 0.47899 0.13354 0.0
H39 H 0.9574 0.53851 0.13579 0.0
Sm40 Sm 0.67981 0.06134 0.47081 0.0
Sm41 Sm 0.5955 0.087 0.46469 0.0
C42 C 0.73351 0.02667 0.48222 0.0
C43 C 0.7199 0.98161 0.49103 0.0
C44 C 0.67635 0.95252 0.50906 0.0
C45 C 0.66466 0.90986 0.51696 0.0
C46 C 0.69629 0.89571 0.50695 0.0
C47 C 0.73883 0.92443 0.48849 0.0
C48 C 0.75066 0.96706 0.48071 0.0
C49 C 0.66879 0.08269 0.42309 0.0
C50 C 0.53359 0.97081 0.46609 0.0
C51 C 0.5429 0.11967 0.44823 0.0
C52 C 0.54759 0.16139 0.45803 0.0
C53 C 0.51299 0.17148 0.44783 0.0
C54 C 0.51813 0.21139 0.45762 0.0
C55 C 0.55789 0.24158 0.47778 0.0
C56 C 0.59258 0.23127 0.48778 0.0
C57 C 0.58745 0.19158 0.47802 0.0
C58 C 0.61735 0.0873 0.51572 0.0
C59 C 0.74178 0.17696 0.47091 0.0
O60 O 0.72803 0.0524 0.49843 0.0
O61 O 0.71472 0.02373 0.45934 0.0
O62 O 0.62688 0.05677 0.43827 0.0
O63 O 0.71808 0.09672 0.43256 0.0
O64 O 0.58568 0.98544 0.47349 0.0
O65 O 0.52707 1.00251 0.45899 0.0
O66 O 0.5913 0.13172 0.43828 0.0
O67 O 0.51723 0.08266 0.46328 0.0
O68 O 0.63654 0.079 0.49699 0.0
O69 O 0.58438 0.09657 0.50757 0.0
O70 O 0.69016 0.16254 0.46296 0.0
O71 O 0.74794 0.14527 0.4784 0.0
H72 H 0.65154 0.96277 0.51704 0.0
H73 H 0.63148 0.88829 0.53115 0.0
H74 H 0.76279 0.91377 0.47996 0.0
H75 H 0.78387 0.98872 0.46654 0.0
H76 H 0.48218 0.14862 0.43232 0.0
H77 H 0.49152 0.21893 0.44928 0.0
H78 H 0.62326 0.25361 0.50341 0.0
H79 H 0.61457 0.18434 0.48615 0.0
Sm80 Sm 0.63204 0.57293 0.84807 0.0
Sm81 Sm 0.54547 0.46301 0.84638 0.0
C82 C 0.69126 0.66731 0.83983 0.0
C83 C 0.67871 0.69846 0.83042 0.0
C84 C 0.63647 0.68115 0.81106 0.0
C85 C 0.62715 0.71201 0.80159 0.0
C86 C 0.65963 0.76061 0.81139 0.0
C87 C 0.70061 0.7773 0.83125 0.0
C88 C 0.71021 0.74655 0.8406 0.0
C89 C 0.60819 0.53049 0.89397 0.0
C90 C 0.48529 0.51554 0.84987 0.0
C91 C 0.48908 0.36839 0.85222 0.0
C92 C 0.50019 0.33408 0.84519 0.0
C93 C 0.54329 0.33606 0.85795 0.0
C94 C 0.55466 0.30466 0.85031 0.0
C95 C 0.52319 0.27051 0.8298 0.0
C96 C 0.48002 0.26852 0.81715 0.0
C97 C 0.46833 0.29958 0.8249 0.0
C98 C 0.56626 0.50241 0.79988 0.0
C99 C 0.69404 0.52169 0.84795 0.0
O100 O 0.68658 0.63649 0.8233 0.0
O101 O 0.67006 0.64839 0.86192 0.0
O102 O 0.57102 0.51827 0.877 0.0
O103 O 0.66111 0.56835 0.88752 0.0
O104 O 0.53952 0.55507 0.84342 0.0
O105 O 0.47682 0.4751 0.8555 0.0
O106 O 0.52303 0.40252 0.86988 0.0
O107 O 0.47799 0.38461 0.83352 0.0
O108 O 0.60578 0.51749 0.81643 0.0
O109 O 0.51484 0.46424 0.80722 0.0
O110 O 0.63809 0.47981 0.84903 0.0
O111 O 0.7041 0.56377 0.84589 0.0
H112 H 0.61104 0.64394 0.8031 0.0
H113 H 0.59449 0.69788 0.78661 0.0
H114 H 0.72627 0.81458 0.83914 0.0
H115 H 0.74282 0.76055 0.85559 0.0
H116 H 0.56871 0.36216 0.87369 0.0
H117 H 0.58818 0.30712 0.86045 0.0
H118 H 0.4561 0.24371 0.80084 0.0
H119 H 0.43494 0.29717 0.81466 0.0
C120 C 0.65747 0.12638 0.30172 0.0
C121 C 0.64618 0.08758 0.31486 0.0
C122 C 0.65594 0.12461 0.27521 0.0
C123 C 0.64382 0.08425 0.2613 0.0
C124 C 0.63226 0.04539 0.27467 0.0
C125 C 0.63297 0.04689 0.30112 0.0
C126 C 0.64378 0.08273 0.23303 0.0
C127 C 0.68434 0.12574 0.21977 0.0
C128 C 0.68532 0.12469 0.19315 0.0
C129 C 0.64487 0.07915 0.17951 0.0
C130 C 0.60381 0.03542 0.1926 0.0
C131 C 0.60362 0.03802 0.2192 0.0
C132 C 0.55938 0.98621 0.1795 0.0
C133 C 0.51694 0.97756 0.16259 0.0
C134 C 0.55331 0.94566 0.1872 0.0
C135 C 0.50432 0.89751 0.17946 0.0
C136 C 0.45964 0.88845 0.16397 0.0
C137 C 0.72986 0.17211 0.18052 0.0
C138 C 0.7339 0.21302 0.18698 0.0
C139 C 0.77364 0.17911 0.16514 0.0
C140 C 0.82175 0.22645 0.15735 0.0
C141 C 0.82653 0.26758 0.16446 0.0
C142 C 0.78141 0.25999 0.17903 0.0
C143 C 0.4675 0.92917 0.15494 0.0
H144 H 0.66735 0.15799 0.31197 0.0
H145 H 0.66396 0.15479 0.26565 0.0
H146 H 0.62388 1.01414 0.26473 0.0
H147 H 0.62475 0.01678 0.31089 0.0
H148 H 0.7166 0.16033 0.23021 0.0
H149 H 0.57086 1.00481 0.22917 0.0
H150 H 0.64528 0.07778 0.159 0.0
H151 H 0.52015 1.00797 0.15647 0.0
H152 H 0.58527 0.95113 0.20026 0.0
H153 H 0.49984 0.86719 0.18676 0.0
H154 H 0.7012 0.2089 0.19903 0.0
H155 H 0.77221 0.14847 0.1602 0.0
H156 H 0.43447 0.92354 0.14258 0.0
H157 H 0.78416 0.29082 0.18528 0.0
H158 H 0.85581 0.23106 0.14617 0.0
C159 C 0.58456 0.56812 0.6808 0.0
C160 C 0.60865 0.55068 0.69377 0.0
C161 C 0.58886 0.57179 0.65453 0.0
C162 C 0.61812 0.55875 0.64061 0.0
C163 C 0.64439 0.54324 0.65376 0.0
C164 C 0.6397 0.53925 0.68007 0.0
C165 C 0.61977 0.56022 0.61245 0.0
C166 C 0.62625 0.59793 0.60036 0.0
C167 C 0.6251 0.5986 0.57383 0.0
C168 C 0.61845 0.56133 0.55921 0.0
C169 C 0.61246 0.52345 0.57092 0.0
C170 C 0.61299 0.52317 0.59753 0.0
C171 C 0.60487 0.48369 0.55551 0.0
C172 C 0.56632 0.46114 0.53431 0.0
C173 C 0.63548 0.46739 0.56222 0.0
C174 C 0.62728 0.42911 0.54827 0.0
C175 C 0.58801 0.40602 0.52737 0.0
C176 C 0.63133 0.63871 0.56166 0.0
C177 C 0.60064 0.65413 0.57107 0.0
C178 C 0.6697 0.66323 0.54133 0.0
C179 C 0.67881 0.70348 0.53128 0.0
C180 C 0.64961 0.71984 0.54132 0.0
C181 C 0.60956 0.69418 0.56096 0.0
C182 C 0.5579 0.42262 0.52041 0.0
H183 H 0.56132 0.57807 0.69094 0.0
H184 H 0.56769 0.58353 0.6451 0.0
H185 H 0.66822 0.53379 0.64372 0.0
H186 H 0.65878 0.52577 0.68961 0.0
H187 H 0.63323 0.62748 0.61164 0.0
H188 H 0.6062 0.49308 0.60662 0.0
H189 H 0.61787 0.56179 0.53873 0.0
H190 H 0.54181 0.47264 0.52874 0.0
H191 H 0.66601 0.48437 0.57826 0.0
H192 H 0.65103 0.41702 0.55407 0.0
H193 H 0.57011 0.63549 0.58648 0.0
H194 H 0.69405 0.65228 0.53372 0.0
H195 H 0.52797 0.40591 0.50416 0.0
H196 H 0.58642 0.70599 0.56899 0.0
H197 H 0.70923 0.72219 0.51585 0.0
C198 C 0.16341 0.58803 0.98105 0.0
C199 C 0.11396 0.55583 0.99611 0.0
C200 C 0.15923 0.58056 0.95464 0.0
C201 C 0.10521 0.54131 0.94275 0.0
C202 C 1.05569 0.50938 0.95786 0.0
C203 C 1.06011 0.51638 0.98426 0.0
C204 C 0.10021 0.53394 0.91465 0.0
C205 C 0.14075 0.53301 0.9013 0.0
C206 C 0.13745 0.52549 0.87483 0.0
C207 C 0.09011 0.51968 0.86147 0.0
C208 C 1.0477 0.52089 0.87505 0.0
C209 C 1.05468 0.52778 0.90156 0.0
C210 C 0.9946 0.51502 0.86414 0.0
C211 C 1.00128 0.55034 0.84899 0.0
C212 C 0.93734 0.47997 0.87422 0.0
C213 C 0.89036 0.48081 0.87012 0.0
C214 C 0.89724 0.51714 0.85583 0.0
C215 C 0.1862 0.52535 0.86358 0.0
C216 C 0.24663 0.56741 0.86728 0.0
C217 C 0.17563 0.48148 0.85596 0.0
C218 C 0.22271 0.47995 0.85243 0.0
C219 C 0.28332 0.52215 0.85641 0.0
C220 C 0.29345 0.56596 0.86379 0.0
C221 C 0.95398 0.55119 0.84483 0.0
H222 H 0.20538 0.61875 0.98974 0.0
H223 H 0.198 0.60595 0.94347 0.0
H224 H 1.01357 0.47873 0.94924 0.0
H225 H 1.02119 0.49133 0.99542 0.0
H226 H 0.17514 0.53732 0.91192 0.0
H227 H 1.02457 0.52946 0.91237 0.0
H228 H 0.08629 0.51423 0.84107 0.0
H229 H 1.0441 0.57897 0.8412 0.0
H230 H 0.92937 0.45258 0.88648 0.0
H231 H 0.84885 0.45365 0.87926 0.0
H232 H 0.25788 0.60166 0.87425 0.0
H233 H 0.13049 0.44746 0.85387 0.0
H234 H 0.96257 0.57926 0.83298 0.0
H235 H 0.3379 0.59938 0.86818 0.0
H236 H 0.21122 0.44503 0.84687 0.0
C237 C 1.07856 0.54378 0.31812 0.0
C238 C 0.13202 0.56909 0.3052 0.0
C239 C 1.07823 0.54477 0.34461 0.0
C240 C 0.13136 0.5707 0.35874 0.0
C241 C 0.18483 0.59622 0.34562 0.0
C242 C 0.18514 0.5957 0.31917 0.0
C243 C 0.13115 0.57101 0.38699 0.0
C244 C 0.08628 0.52876 0.39982 0.0
C245 C 0.08536 0.52838 0.42648 0.0
C246 C 0.13182 0.57162 0.44048 0.0
C247 C 0.17774 0.6143 0.42775 0.0
C248 C 0.17633 0.61346 0.40119 0.0
C249 C 0.22857 0.66087 0.44109 0.0
C250 C 0.22079 0.69076 0.45507 0.0
C251 C 0.28639 0.68015 0.43551 0.0
C252 C 0.33515 0.7287 0.44277 0.0
C253 C 0.32756 0.75958 0.45577 0.0
C254 C 1.03559 0.48175 0.4387 0.0
C255 C 0.97754 0.45436 0.42907 0.0
C256 C 1.04572 0.46138 0.45788 0.0
C257 C 0.99954 0.41378 0.46614 0.0
C258 C 0.94214 0.38542 0.45543 0.0
C259 C 0.93173 0.40706 0.43722 0.0
C260 C 0.26976 0.73969 0.46224 0.0
H261 H 1.03707 0.52337 0.3077 0.0
H262 H 1.03633 0.52547 0.354 0.0
H263 H 0.22653 0.61586 0.35574 0.0
H264 H 0.22686 0.61511 0.30958 0.0
H265 H 1.05244 0.49532 0.38892 0.0
H266 H 0.21063 0.64667 0.39156 0.0
H267 H 0.13232 0.57208 0.46099 0.0
H268 H 0.17672 0.67725 0.45916 0.0
H269 H 0.29365 0.65828 0.42432 0.0
H270 H 0.37863 0.74284 0.43696 0.0
H271 H 0.96778 0.46901 0.41452 0.0
H272 H 0.08977 0.48132 0.46572 0.0
H273 H 0.26231 0.76243 0.47222 0.0
H274 H 0.88838 0.38667 0.42849 0.0
H275 H 1.00903 0.39896 0.48068 0.0
C276 C 0.60986 0.01837 0.63124 0.0
C277 C 0.64175 0.06593 0.62219 0.0
C278 C 0.60772 1.01141 0.65729 0.0
C279 C 0.63759 0.05193 0.67474 0.0
C280 C 0.6719 0.09958 0.66547 0.0
C281 C 0.67398 0.10648 0.63951 0.0
C282 C 0.63098 0.04481 0.70255 0.0
C283 C 0.63209 1.01 0.71351 0.0
C284 C 0.62615 1.00366 0.73982 0.0
C285 C 0.61909 0.03283 0.75522 0.0
C286 C 0.61711 0.06752 0.74454 0.0
C287 C 0.62281 0.07284 0.71818 0.0
C288 C 0.60767 0.0976 0.76046 0.0
C289 C 0.56788 0.07706 0.78062 0.0
C290 C 0.63637 0.14669 0.75474 0.0
C291 C 0.62362 0.17366 0.76794 0.0
C292 C 0.5822 0.15255 0.78743 0.0
C293 C 0.62771 0.96665 0.75105 0.0
C294 C 0.59596 0.91935 0.73954 0.0
C295 C 0.66185 0.97854 0.77296 0.0
C296 C 0.66535 0.94434 0.78273 0.0
C297 C 0.63461 0.8974 0.77087 0.0
C298 C 0.59906 0.88506 0.74941 0.0
C299 C 0.55556 0.10431 0.79403 0.0
H300 H 0.58456 0.98649 0.61825 0.0
H301 H 0.58075 0.97422 0.6638 0.0
H302 H 0.69656 0.13164 0.67834 0.0
H303 H 0.69987 0.14359 0.63298 0.0
H304 H 0.63904 0.98861 0.70163 0.0
H305 H 0.61918 0.09804 0.7096 0.0
H306 H 0.61483 0.02827 0.77548 0.0
H307 H 0.54482 0.03941 0.78559 0.0
H308 H 0.66832 0.16424 0.73976 0.0
H309 H 0.64512 0.21074 0.76239 0.0
H310 H 0.56837 0.90874 0.72291 0.0
H311 H 0.68713 0.01477 0.78218 0.0
H312 H 0.52468 0.08736 0.80941 0.0
H313 H 0.57342 0.84877 0.74026 0.0
H314 H 0.69322 0.95503 0.79926 0.0
C315 C 0.49173 0.34079 0.96642 0.0
C316 C 0.54286 0.39034 0.97006 0.0
C317 C 0.46783 0.30911 0.9866 0.0
C318 C 0.49456 0.32646 0.0108 0.0
C319 C 0.54794 0.37518 0.01392 0.0
C320 C 0.57177 0.40677 0.99378 0.0
C321 C 0.46262 0.2976 0.03353 0.0
C322 C 0.494 0.3004 0.05427 0.0
C323 C 0.46857 0.28641 0.0783 0.0
C324 C 0.41034 0.26801 0.08126 0.0
C325 C 0.37796 0.26468 0.06067 0.0
C326 C 0.40354 0.27695 0.03659 0.0
C327 C 0.32519 0.26061 0.06558 0.0
C328 C 0.28726 0.23362 0.08577 0.0
C329 C 0.31891 0.2912 0.05287 0.0
C330 C 0.28037 0.29839 0.0616 0.0
C331 C 0.24771 0.2759 0.08348 0.0
C332 C 0.50723 0.3012 0.10078 0.0
C333 C 0.55036 0.29587 0.10019 0.0
C334 C 0.50753 0.32797 0.12123 0.0
C335 C 0.55294 0.3524 0.13945 0.0
C336 C 0.59884 0.35054 0.13758 0.0
C337 C 0.59586 0.32042 0.11839 0.0
C338 C 0.24913 0.24152 0.0948 0.0
H339 H 0.46883 0.32714 0.94823 0.0
H340 H 0.42691 0.27174 0.98356 0.0
H341 H 0.56912 0.3902 0.03239 0.0
H342 H 0.61059 0.44495 -0.00273 0.0
H343 H 0.54016 0.31778 0.05216 0.0
H344 H 0.3796 0.27555 0.02071 0.0
H345 H 0.39248 0.26056 0.10012 0.0
H346 H 0.28976 0.20884 0.09565 0.0
H347 H 0.34756 0.31349 0.03757 0.0
H348 H 0.28058 0.32542 0.05261 0.0
H349 H 0.55101 0.27528 0.08474 0.0
H350 H 0.47542 0.33337 0.12212 0.0
H351 H 0.22361 0.22318 0.11153 0.0
H352 H 0.63114 0.31891 0.11621 0.0
H353 H 0.55429 0.37539 0.15406 0.0
C354 C 0.18341 0.3387 0.0911 0.0
C355 C 0.21003 0.36585 0.11407 0.0
C356 C 0.18978 0.30458 0.08242 0.0
C357 C 0.22274 0.29643 0.09649 0.0
H358 H 0.16184 0.3468 0.07877 0.0
H359 H 0.17302 0.28749 0.06366 0.0
S360 S 0.29104 0.3514 0.16013 0.0
N361 N 0.26217 0.37679 0.15254 0.0
N362 N 0.27517 0.31331 0.13609 0.0
C363 C 0.24397 0.31946 0.12072 0.0
C364 C 0.23753 0.3542 0.12951 0.0
C365 C 0.78736 0.26588 0.46911 0.0
C366 C 0.79475 0.23046 0.46971 0.0
C367 C 0.83537 0.31586 0.46554 0.0
C368 C 0.89319 0.33295 0.46218 0.0
H369 H 0.74382 0.25487 0.47107 0.0
H370 H 0.82684 0.34127 0.46501 0.0
S371 S 0.93672 0.25535 0.46179 0.0
N372 N 0.865 0.21637 0.46684 0.0
N373 N 0.95469 0.30978 0.4596 0.0
C374 C 0.90147 0.2981 0.46325 0.0
C375 C 0.85252 0.24713 0.46711 0.0
C376 C 0.64206 0.82093 0.81665 0.0
C377 C 0.6519 0.79433 0.80063 0.0
C378 C 0.63614 0.85386 0.80691 0.0
C379 C 0.64013 0.86167 0.78075 0.0
H380 H 0.63851 0.816 0.83689 0.0
H381 H 0.62798 0.87311 0.81996 0.0
S382 S 0.67035 0.80395 0.73104 0.0
N383 N 0.66808 0.77963 0.75751 0.0
N384 N 0.6578 0.84183 0.73922 0.0
C385 C 0.65063 0.83563 0.76458 0.0
C386 C 0.65632 0.80194 0.7745 0.0
C387 C 0.74105 0.47322 0.16009 0.0
C388 C 0.77342 0.46019 0.16928 0.0
C389 C 0.68241 0.43697 0.15177 0.0
C390 C 0.65461 0.38661 0.15223 0.0
H391 H 0.76239 0.51156 0.15773 0.0
H392 H 0.66031 0.44863 0.14318 0.0
S393 S 0.71844 0.33415 0.17848 0.0
N394 N 0.77238 0.39435 0.18127 0.0
N395 N 0.66172 0.32583 0.16565 0.0
C396 C 0.68535 0.3733 0.16325 0.0
C397 C 0.745 0.41026 0.17176 0.0
C398 C 0.42583 0.89992 0.45579 0.0
C399 C 0.4809 0.91675 0.4651 0.0
C400 C 0.37627 0.8494 0.45364 0.0
C401 C 0.37934 0.81318 0.46061 0.0
H402 H 0.42093 0.9259 0.44966 0.0
H403 H 0.33561 0.83858 0.4457 0.0
S404 S 0.51096 0.83684 0.48813 0.0
N405 N 0.53388 0.89216 0.48277 0.0
N406 N 0.441 0.79784 0.47879 0.0
C407 C 0.43347 0.82935 0.47062 0.0
C408 C 0.48399 0.8808 0.47287 0.0
C409 C 0.59617 0.25907 0.81754 0.0
C410 C 0.53707 0.2386 0.82086 0.0
C411 C 0.61034 0.23075 0.80735 0.0
C412 C 0.56603 0.1807 0.80009 0.0
H413 H 0.63185 0.29772 0.82217 0.0
H414 H 0.65647 0.24841 0.8049 0.0
S415 S 0.40441 0.10873 0.80609 0.0
N416 N 0.43398 0.16438 0.81742 0.0
N417 N 0.46041 0.11169 0.79745 0.0
C418 C 0.50677 0.15946 0.80389 0.0
C419 C 0.49237 0.18825 0.81439 0.0
C420 C 0.62711 0.80634 0.51707 0.0
C421 C 0.68521 0.85121 0.51573 0.0
C422 C 0.61588 0.76386 0.52513 0.0
C423 C 0.66236 0.76471 0.53207 0.0
H424 H 0.59008 0.80391 0.51159 0.0
H425 H 0.57053 0.73001 0.52578 0.0
S426 S 0.82195 0.87379 0.53401 0.0
N427 N 0.78945 0.8945 0.52347 0.0
N428 N 0.76832 0.81465 0.53842 0.0
C429 C 0.72054 0.80942 0.53109 0.0
C430 C 0.73197 0.85265 0.52299 0.0
C431 C 0.73766 0.47708 0.85067 0.0
C432 C 0.74656 0.52136 0.84945 0.0
C433 C 0.78535 0.4761 0.85244 0.0
C434 C 0.84606 0.51931 0.85311 0.0
H435 H 0.69295 0.44227 0.85028 0.0
H436 H 0.77402 0.44048 0.85308 0.0
S437 S 0.89559 0.64597 0.85198 0.0
N438 N 0.82296 0.61029 0.84984 0.0
N439 N 0.91051 0.60858 0.85348 0.0
C440 C 0.8555 0.5639 0.85209 0.0
C441 C 0.80689 0.56487 0.85025 0.0
C442 C 0.35275 0.74937 0.14893 0.0
C443 C 0.29692 0.73517 0.15427 0.0
C444 C 0.40486 0.79894 0.15146 0.0
C445 C 0.40347 0.83668 0.15907 0.0
H446 H 0.35657 0.72187 0.14333 0.0
H447 H 0.44674 0.80774 0.14765 0.0
S448 S 0.26895 0.81995 0.17465 0.0
N449 N 0.24384 0.76388 0.16694 0.0
N450 N 0.34129 0.85632 0.1717 0.0
C451 C 0.34792 0.82322 0.16387 0.0
C452 C 0.29493 0.77278 0.1615 0.0
C453 C 0.6203 0.32982 0.49305 0.0
C454 C 0.56378 0.28385 0.48864 0.0
C455 C 0.6276 0.36934 0.50507 0.0
C456 C 0.57867 0.36454 0.51311 0.0
H457 H 0.65934 0.33517 0.48734 0.0
H458 H 0.67199 0.40389 0.50826 0.0
S459 S 0.42138 0.25174 0.50669 0.0
N460 N 0.45803 0.23568 0.49358 0.0
N461 N 0.47177 0.31013 0.51607 0.0
C462 C 0.52185 0.31909 0.50847 0.0
C463 C 0.5144 0.27874 0.49625 0.0
C464 C 0.37651 0.47769 0.85958 0.0
C465 C 0.43377 0.51728 0.85093 0.0
C466 C 0.32905 0.47917 0.86094 0.0
C467 C 0.33497 0.52044 0.85385 0.0
H468 H 0.36804 0.44491 0.86563 0.0
H469 H 0.28728 0.44756 0.86815 0.0
S470 S 0.47386 0.63315 0.82785 0.0
N471 N 0.49147 0.59872 0.83401 0.0
N472 N 0.40432 0.60121 0.83611 0.0
C473 C 0.3918 0.5599 0.8447 0.0
C474 C 0.44005 0.55839 0.84335 0.0
C475 C 0.98752 0.38553 0.16068 0.0
C476 C 0.98269 0.41991 0.15208 0.0
C477 C 0.93713 0.33602 0.16385 0.0
C478 C 0.8799 0.31879 0.1583 0.0
H479 H 1.03042 0.39734 0.16585 0.0
H480 H 0.94291 0.31147 0.17151 0.0
S481 S 0.84438 0.39175 0.13076 0.0
N482 N 0.9167 0.43184 0.13539 0.0
N483 N 0.8225 0.3389 0.14074 0.0
C484 C 0.87493 0.35226 0.1484 0.0
C485 C 0.9261 0.40271 0.14545 0.0
C486 C 0.13811 0.61613 0.06138 0.0
C487 C 0.1216 0.57914 0.07792 0.0
C488 C 0.13679 0.60873 0.03498 0.0
C489 C 0.11808 0.56382 0.02412 0.0
H490 H 0.15189 0.65102 0.06886 0.0
H491 H 0.14923 0.63798 0.02294 0.0
S492 S 1.07316 0.45606 0.05896 0.0
N493 N 0.08834 0.49658 0.0814 0.0
N494 N 0.08507 0.48263 0.03188 0.0
C495 C 0.10232 0.52684 0.04041 0.0
C496 C 0.10436 0.53453 0.06728 0.0
C497 C 0.60755 0.05132 0.38328 0.0
C498 C 0.66134 0.08774 0.3962 0.0
C499 C 0.60244 0.05213 0.35697 0.0
C500 C 0.65048 0.09 0.34286 0.0
H501 H 0.57 0.02085 0.39336 0.0
H502 H 0.56098 0.02248 0.34749 0.0
S503 S 0.79909 0.19613 0.36818 0.0
N504 N 0.76241 0.16403 0.39326 0.0
N505 N 0.75235 0.16607 0.34392 0.0
C506 C 0.70351 0.12783 0.35577 0.0
C507 C 0.70904 0.12655 0.38244 0.0
C508 C 0.63501 0.54727 0.76376 0.0
C509 C 0.57758 0.51822 0.77344 0.0
C510 C 0.64507 0.55836 0.73802 0.0
C511 C 0.59815 0.54133 0.72122 0.0
H512 H 0.67218 0.56039 0.77595 0.0
H513 H 0.68977 0.58009 0.73117 0.0
S514 S 0.43994 0.4657 0.73747 0.0
N515 N 0.47361 0.47436 0.76447 0.0
N516 N 0.49241 0.49466 0.71626 0.0
C517 C 0.54084 0.5134 0.73089 0.0
C518 C 0.5306 0.50202 0.75696 0.0
C519 C 0.64556 0.05846 0.55008 0.0
C520 C 0.62688 0.0843 0.54275 0.0
C521 C 0.65053 0.05262 0.57583 0.0
C522 C 0.63791 0.07314 0.59503 0.0
H523 H 0.65492 0.04161 0.53588 0.0
H524 H 0.66432 0.03197 0.58075 0.0
S525 S 0.58757 0.14418 0.5857 0.0
N526 N 0.596 0.13064 0.55675 0.0
N527 N 0.60554 0.11986 0.60488 0.0
C528 C 0.61988 0.09948 0.58786 0.0
C529 C 0.61431 0.105 0.56178 0.0
C530 C 0.53545 0.46214 0.92162 0.0
C531 C 0.59443 0.49736 0.91428 0.0
C532 C 0.51931 0.42728 0.93932 0.0
C533 C 0.5615 0.42614 0.9503 0.0
H534 H 0.50129 0.46134 0.91354 0.0
H535 H 0.47344 0.40143 0.94471 0.0
S536 S 0.72137 0.50843 0.93629 0.0
N537 N 0.69503 0.52806 0.91861 0.0
N538 N 0.66454 0.46211 0.95189 0.0
C539 C 0.62069 0.46099 0.94303 0.0
C540 C 0.63721 0.49672 0.92502 0.0
C541 C 0.17067 0.60821 0.23711 0.0
C542 C 0.14211 0.56312 0.22352 0.0
C543 C 0.1666 0.60989 0.26356 0.0
C544 C 0.13267 0.56648 0.27717 0.0
H545 H 0.19788 0.64247 0.22736 0.0
H546 H 0.19049 0.64537 0.27349 0.0
S547 S 1.04611 0.43907 0.25016 0.0
N548 N 1.07681 0.47404 0.22542 0.0
N549 N 1.06828 0.47722 0.27502 0.0
C550 C 0.10221 0.52115 0.26366 0.0
C551 C 0.10717 0.51948 0.23685 0.0
loop_
_geom_bond_atom_site_label_1
_geom_bond_atom_site_label_2
_geom_bond_distance
_geom_bond_site_symmetry_2
_ccdc_geom_bond_type
Sm0 C2 2.846 . S
Sm0 O20 2.543 . S
Sm0 O21 2.450 . S
Sm0 O22 2.681 . S
Sm0 O23 2.464 . S
Sm0 O24 2.396 . S
Sm0 O28 2.386 . S
Sm0 O31 2.408 1_455 S
Sm1 C11 2.846 . S
Sm1 O22 2.386 1_655 S
Sm1 O25 2.408 1_655 S
Sm1 O26 2.543 . S
Sm1 O27 2.450 . S
Sm1 O28 2.681 1_655 S
Sm1 O29 2.464 . S
Sm1 O30 2.396 . S
C2 Sm0 2.846 . S
C2 C3 1.506 . S
C2 O20 1.261 . S
C2 O21 1.242 . S
C3 C2 1.506 . S
C3 C4 1.358 . S
C3 C8 1.382 . S
C4 C3 1.358 . S
C4 C5 1.385 . S
C4 H32 0.930 . S
C5 C4 1.385 . S
C5 C6 1.395 . S
C5 H33 0.929 . S
C6 C5 1.395 . S
C6 C7 1.335 . S
C7 C6 1.335 . S
C7 C8 1.398 . S
C7 H34 0.930 . S
C8 C3 1.382 . S
C8 C7 1.398 . S
C8 H35 0.929 . S
C9 O22 1.271 . S
C9 O23 1.251 . S
C10 O24 1.252 . S
C10 O25 1.272 . S
C11 Sm1 2.846 . S
C11 C12 1.506 . S
C11 O26 1.261 . S
C11 O27 1.242 . S
C12 C11 1.506 . S
C12 C13 1.358 . S
C12 C17 1.382 . S
C13 C12 1.358 . S
C13 C14 1.385 . S
C13 H36 0.930 . S
C14 C13 1.385 . S
C14 C15 1.395 . S
C14 H37 0.929 . S
C15 C14 1.395 . S
C15 C16 1.335 . S
C16 C15 1.335 . S
C16 C17 1.398 . S
C16 H38 0.930 . S
C17 C12 1.382 . S
C17 C16 1.398 . S
C17 H39 0.929 . S
C18 O28 1.271 . S
C18 O29 1.251 1_455 S
C19 O30 1.252 . S
C19 O31 1.272 . S
O20 Sm0 2.543 . S
O20 C2 1.261 . S
O21 Sm0 2.450 . S
O21 C2 1.242 . S
O22 Sm0 2.681 . S
O22 Sm1 2.386 1_455 S
O22 C9 1.271 . S
O23 Sm0 2.464 . S
O23 C9 1.251 . S
O24 Sm0 2.396 . S
O24 C10 1.252 . S
O25 Sm1 2.408 1_455 S
O25 C10 1.272 . S
O26 Sm1 2.543 . S
O26 C11 1.261 . S
O27 Sm1 2.450 . S
O27 C11 1.242 . S
O28 Sm0 2.386 . S
O28 Sm1 2.681 1_455 S
O28 C18 1.271 . S
O29 Sm1 2.464 . S
O29 C18 1.251 1_655 S
O30 Sm1 2.396 . S
O30 C19 1.252 . S
O31 Sm0 2.408 1_655 S
O31 C19 1.272 . S
H32 C4 0.930 . S
H33 C5 0.929 . S
H34 C7 0.930 . S
H35 C8 0.929 . S
H36 C13 0.930 . S
H37 C14 0.929 . S
H38 C16 0.930 . S
H39 C17 0.929 . S
Sm40 C42 2.846 . S
Sm40 O60 2.543 . S
Sm40 O61 2.450 . S
Sm40 O62 2.681 1_565 S
Sm40 O63 2.464 . S
Sm40 O64 2.396 . S
Sm40 O68 2.386 . S
Sm40 O71 2.408 1_565 S
Sm41 C51 2.846 . S
Sm41 O62 2.386 . S
Sm41 O65 2.408 1_545 S
Sm41 O66 2.543 . S
Sm41 O67 2.450 . S
Sm41 O68 2.681 1_545 S
Sm41 O69 2.464 . S
Sm41 O70 2.396 . S
C42 Sm40 2.846 . S
C42 C43 1.506 . S
C42 O60 1.261 . S
C42 O61 1.242 . S
C43 C42 1.506 . S
C43 C44 1.358 . S
C43 C48 1.382 . S
C44 C43 1.358 . S
C44 C45 1.385 . S
C44 H72 0.930 . S
C45 C44 1.385 . S
C45 C46 1.395 . S
C45 H73 0.929 . S
C46 C45 1.395 . S
C46 C47 1.335 . S
C47 C46 1.335 . S
C47 C48 1.398 . S
C47 H74 0.930 . S
C48 C43 1.382 . S
C48 C47 1.398 . S
C48 H75 0.929 . S
C49 O62 1.271 . S
C49 O63 1.251 1_545 S
C50 O64 1.252 . S
C50 O65 1.272 . S
C51 Sm41 2.846 . S
C51 C52 1.506 . S
C51 O66 1.261 . S
C51 O67 1.242 . S
C52 C51 1.506 . S
C52 C53 1.358 . S
C52 C57 1.382 . S
C53 C52 1.358 . S
C53 C54 1.385 . S
C53 H76 0.930 . S
C54 C53 1.385 . S
C54 C55 1.395 . S
C54 H77 0.929 . S
C55 C54 1.395 . S
C55 C56 1.335 . S
C56 C55 1.335 . S
C56 C57 1.398 . S
C56 H78 0.930 . S
C57 C52 1.382 . S
C57 C56 1.398 . S
C57 H79 0.929 . S
C58 O68 1.271 1_545 S
C58 O69 1.251 . S
C59 O70 1.252 . S
C59 O71 1.272 . S
O60 Sm40 2.543 . S
O60 C42 1.261 . S
O61 Sm40 2.450 . S
O61 C42 1.242 . S
O62 Sm40 2.681 1_545 S
O62 Sm41 2.386 . S
O62 C49 1.271 . S
O63 Sm40 2.464 . S
O63 C49 1.251 1_565 S
O64 Sm40 2.396 . S
O64 C50 1.252 . S
O65 Sm41 2.408 1_565 S
O65 C50 1.272 . S
O66 Sm41 2.543 . S
O66 C51 1.261 . S
O67 Sm41 2.450 . S
O67 C51 1.242 . S
O68 Sm40 2.386 . S
O68 Sm41 2.681 1_565 S
O68 C58 1.271 1_565 S
O69 Sm41 2.464 . S
O69 C58 1.251 . S
O70 Sm41 2.396 . S
O70 C59 1.252 . S
O71 Sm40 2.408 1_545 S
O71 C59 1.272 . S
H72 C44 0.930 . S
H73 C45 0.929 . S
H74 C47 0.930 . S
H75 C48 0.929 . S
H76 C53 0.930 . S
H77 C54 0.929 . S
H78 C56 0.930 . S
H79 C57 0.929 . S
Sm80 C82 2.846 . S
Sm80 O100 2.543 . S
Sm80 O101 2.450 . S
Sm80 O102 2.681 . S
Sm80 O103 2.464 . S
Sm80 O104 2.396 . S
Sm80 O108 2.386 . S
Sm80 O111 2.408 . S
Sm81 C91 2.846 . S
Sm81 O102 2.386 . S
Sm81 O105 2.408 . S
Sm81 O106 2.543 . S
Sm81 O107 2.450 . S
Sm81 O108 2.681 . S
Sm81 O109 2.464 . S
Sm81 O110 2.396 . S
C82 Sm80 2.846 . S
C82 C83 1.506 . S
C82 O100 1.261 . S
C82 O101 1.242 . S
C83 C82 1.506 . S
C83 C84 1.358 . S
C83 C88 1.382 . S
C84 C83 1.358 . S
C84 C85 1.385 . S
C84 H112 0.930 . S
C85 C84 1.385 . S
C85 C86 1.395 . S
C85 H113 0.929 . S
C86 C85 1.395 . S
C86 C87 1.335 . S
C87 C86 1.335 . S
C87 C88 1.398 . S
C87 H114 0.930 . S
C88 C83 1.382 . S
C88 C87 1.398 . S
C88 H115 0.929 . S
C89 O102 1.271 . S
C89 O103 1.251 . S
C90 O104 1.252 . S
C90 O105 1.272 . S
C91 Sm81 2.846 . S
C91 C92 1.506 . S
C91 O106 1.261 . S
C91 O107 1.242 . S
C92 C91 1.506 . S
C92 C93 1.358 . S
C92 C97 1.382 . S
C93 C92 1.358 . S
C93 C94 1.385 . S
C93 H116 0.930 . S
C94 C93 1.385 . S
C94 C95 1.395 . S
C94 H117 0.929 . S
C95 C94 1.395 . S
C95 C96 1.335 . S
C96 C95 1.335 . S
C96 C97 1.398 . S
C96 H118 0.930 . S
C97 C92 1.382 . S
C97 C96 1.398 . S
C97 H119 0.929 . S
C98 O108 1.271 . S
C98 O109 1.251 . S
C99 O110 1.252 . S
C99 O111 1.272 . S
O100 Sm80 2.543 . S
O100 C82 1.261 . S
O101 Sm80 2.450 . S
O101 C82 1.242 . S
O102 Sm80 2.681 . S
O102 Sm81 2.386 . S
O102 C89 1.271 . S
O103 Sm80 2.464 . S
O103 C89 1.251 . S
O104 Sm80 2.396 . S
O104 C90 1.252 . S
O105 Sm81 2.408 . S
O105 C90 1.272 . S
O106 Sm81 2.543 . S
O106 C91 1.261 . S
O107 Sm81 2.450 . S
O107 C91 1.242 . S
O108 Sm80 2.386 . S
O108 Sm81 2.681 . S
O108 C98 1.271 . S
O109 Sm81 2.464 . S
O109 C98 1.251 . S
O110 Sm81 2.396 . S
O110 C99 1.252 . S
O111 Sm80 2.408 . S
O111 C99 1.272 . S
H112 C84 0.930 . S
H113 C85 0.929 . S
H114 C87 0.930 . S
H115 C88 0.929 . S
H116 C93 0.930 . S
H117 C94 0.929 . S
H118 C96 0.930 . S
H119 C97 0.929 . S
C120 C121 1.386 . S
C120 C122 1.397 . S
C120 H144 0.931 . S
C121 C120 1.386 . S
C121 C125 1.397 1_545 S
C122 C120 1.397 . S
C122 C123 1.384 . S
C122 H145 0.930 . S
C123 C122 1.384 . S
C123 C124 1.377 1_545 S
C123 C126 1.481 . S
C124 C123 1.377 1_565 S
C124 C125 1.389 . S
C124 H146 0.929 . S
C125 C121 1.397 1_565 S
C125 C124 1.389 . S
C125 H147 0.931 . S
C126 C123 1.481 . S
C126 C127 1.387 . S
C126 C131 1.390 1_545 S
C127 C126 1.387 . S
C127 C128 1.401 . S
C127 H148 0.930 . S
C128 C127 1.401 . S
C128 C129 1.376 . S
C128 C137 1.511 . S
C129 C128 1.376 . S
C129 C130 1.392 1_545 S
C129 H150 0.931 . S
C130 C129 1.392 1_565 S
C130 C131 1.361 . S
C130 C132 1.500 . S
C131 C126 1.390 1_565 S
C131 C130 1.361 . S
C131 H149 0.931 . S
C132 C130 1.500 . S
C132 C133 1.371 . S
C132 C134 1.365 . S
C133 C132 1.371 . S
C133 C143 1.386 . S
C133 H151 0.931 . S
C134 C132 1.365 . S
C134 C135 1.409 . S
C134 H152 0.929 . S
C135 C134 1.409 . S
C135 C136 1.380 . S
C135 H153 0.930 . S
C136 C135 1.380 . S
C136 C143 1.357 . S
C137 C128 1.511 . S
C137 C138 1.341 . S
C137 C139 1.371 . S
C138 C137 1.341 . S
C138 C142 1.394 . S
C138 H154 0.930 . S
C139 C137 1.371 . S
C139 C140 1.392 . S
C139 H155 0.931 . S
C140 C139 1.392 . S
C140 C141 1.331 . S
C140 H158 0.932 . S
C141 C140 1.331 . S
C141 C142 1.336 . S
C142 C138 1.394 . S
C142 C141 1.336 . S
C142 H157 0.929 . S
C143 C133 1.386 . S
C143 C136 1.357 . S
C143 H156 0.928 . S
H144 C120 0.931 . S
H145 C122 0.930 . S
H146 C124 0.929 . S
H147 C125 0.931 . S
H148 C127 0.930 . S
H149 C131 0.931 . S
H150 C129 0.931 . S
H151 C133 0.931 . S
H152 C134 0.929 . S
H153 C135 0.930 . S
H154 C138 0.930 . S
H155 C139 0.931 . S
H156 C143 0.928 . S
H157 C142 0.929 . S
H158 C140 0.932 . S
C159 C160 1.386 . S
C159 C161 1.397 . S
C159 H183 0.931 . S
C160 C159 1.386 . S
C160 C164 1.397 . S
C161 C159 1.397 . S
C161 C162 1.384 . S
C161 H184 0.930 . S
C162 C161 1.384 . S
C162 C163 1.377 . S
C162 C165 1.481 . S
C163 C162 1.377 . S
C163 C164 1.389 . S
C163 H185 0.929 . S
C164 C160 1.397 . S
C164 C163 1.389 . S
C164 H186 0.931 . S
C165 C162 1.481 . S
C165 C166 1.387 . S
C165 C170 1.390 . S
C166 C165 1.387 . S
C166 C167 1.401 . S
C166 H187 0.930 . S
C167 C166 1.401 . S
C167 C168 1.376 . S
C167 C176 1.511 . S
C168 C167 1.376 . S
C168 C169 1.392 . S
C168 H189 0.931 . S
C169 C168 1.392 . S
C169 C170 1.361 . S
C169 C171 1.500 . S
C170 C165 1.390 . S
C170 C169 1.361 . S
C170 H188 0.931 . S
C171 C169 1.500 . S
C171 C172 1.371 . S
C171 C173 1.365 . S
C172 C171 1.371 . S
C172 C182 1.386 . S
C172 H190 0.931 . S
C173 C171 1.365 . S
C173 C174 1.409 . S
C173 H191 0.929 . S
C174 C173 1.409 . S
C174 C175 1.380 . S
C174 H192 0.930 . S
C175 C174 1.380 . S
C175 C182 1.357 . S
C176 C167 1.511 . S
C176 C177 1.341 . S
C176 C178 1.371 . S
C177 C176 1.341 . S
C177 C181 1.394 . S
C177 H193 0.930 . S
C178 C176 1.371 . S
C178 C179 1.392 . S
C178 H194 0.931 . S
C179 C178 1.392 . S
C179 C180 1.331 . S
C179 H197 0.932 . S
C180 C179 1.331 . S
C180 C181 1.336 . S
C181 C177 1.394 . S
C181 C180 1.336 . S
C181 H196 0.929 . S
C182 C172 1.386 . S
C182 C175 1.357 . S
C182 H195 0.928 . S
H183 C159 0.931 . S
H184 C161 0.930 . S
H185 C163 0.929 . S
H186 C164 0.931 . S
H187 C166 0.930 . S
H188 C170 0.931 . S
H189 C168 0.931 . S
H190 C172 0.931 . S
H191 C173 0.929 . S
H192 C174 0.930 . S
H193 C177 0.930 . S
H194 C178 0.931 . S
H195 C182 0.928 . S
H196 C181 0.929 . S
H197 C179 0.932 . S
C198 C199 1.386 . S
C198 C200 1.397 . S
C198 H222 0.931 . S
C199 C198 1.386 . S
C199 C203 1.397 1_455 S
C200 C198 1.397 . S
C200 C201 1.384 . S
C200 H223 0.930 . S
C201 C200 1.384 . S
C201 C202 1.377 1_455 S
C201 C204 1.481 . S
C202 C201 1.377 1_655 S
C202 C203 1.389 . S
C202 H224 0.929 . S
C203 C199 1.397 1_655 S
C203 C202 1.389 . S
C203 H225 0.931 . S
C204 C201 1.481 . S
C204 C205 1.387 . S
C204 C209 1.390 . S
C205 C204 1.387 . S
C205 C206 1.401 . S
C205 H226 0.930 . S
C206 C205 1.401 . S
C206 C207 1.376 . S
C206 C215 1.511 . S
C207 C206 1.376 . S
C207 C208 1.392 . S
C207 H228 0.931 . S
C208 C207 1.392 . S
C208 C209 1.361 . S
C208 C210 1.500 1_455 S
C209 C204 1.390 . S
C209 C208 1.361 . S
C209 H227 0.931 1_455 S
C210 C208 1.500 1_655 S
C210 C211 1.371 . S
C210 C212 1.365 . S
C211 C210 1.371 . S
C211 C221 1.386 . S
C211 H229 0.931 1_655 S
C212 C210 1.365 . S
C212 C213 1.409 . S
C212 H230 0.929 . S
C213 C212 1.409 . S
C213 C214 1.380 . S
C213 H231 0.930 . S
C214 C213 1.380 . S
C214 C221 1.357 . S
C215 C206 1.511 . S
C215 C216 1.341 . S
C215 C217 1.371 . S
C216 C215 1.341 . S
C216 C220 1.394 . S
C216 H232 0.930 . S
C217 C215 1.371 . S
C217 C218 1.392 . S
C217 H233 0.931 . S
C218 C217 1.392 . S
C218 C219 1.331 . S
C218 H236 0.932 . S
C219 C218 1.331 . S
C219 C220 1.336 . S
C220 C216 1.394 . S
C220 C219 1.336 . S
C220 H235 0.929 . S
C221 C211 1.386 . S
C221 C214 1.357 . S
C221 H234 0.928 . S
H222 C198 0.931 . S
H223 C200 0.930 . S
H224 C202 0.929 . S
H225 C203 0.931 . S
H226 C205 0.930 . S
H227 C209 0.931 1_655 S
H228 C207 0.931 . S
H229 C211 0.931 1_455 S
H230 C212 0.929 . S
H231 C213 0.930 . S
H232 C216 0.930 . S
H233 C217 0.931 . S
H234 C221 0.928 . S
H235 C220 0.929 . S
H236 C218 0.932 . S
C237 C238 1.386 . S
C237 C239 1.397 . S
C237 H261 0.931 . S
C238 C237 1.386 . S
C238 C242 1.397 1_655 S
C239 C237 1.397 . S
C239 C240 1.384 . S
C239 H262 0.930 . S
C240 C239 1.384 . S
C240 C241 1.377 1_655 S
C240 C243 1.481 . S
C241 C240 1.377 1_455 S
C241 C242 1.389 . S
C241 H263 0.929 . S
C242 C238 1.397 1_455 S
C242 C241 1.389 . S
C242 H264 0.931 . S
C243 C240 1.481 . S
C243 C244 1.387 . S
C243 C248 1.390 1_655 S
C244 C243 1.387 . S
C244 C245 1.401 . S
C244 H265 0.930 . S
C245 C244 1.401 . S
C245 C246 1.376 . S
C245 C254 1.511 . S
C246 C245 1.376 . S
C246 C247 1.392 1_655 S
C246 H267 0.931 . S
C247 C246 1.392 1_455 S
C247 C248 1.361 . S
C247 C249 1.500 . S
C248 C243 1.390 1_455 S
C248 C247 1.361 . S
C248 H266 0.931 . S
C249 C247 1.500 . S
C249 C250 1.371 . S
C249 C251 1.365 . S
C250 C249 1.371 . S
C250 C260 1.386 . S
C250 H268 0.931 . S
C251 C249 1.365 . S
C251 C252 1.409 . S
C251 H269 0.929 . S
C252 C251 1.409 . S
C252 C253 1.380 . S
C252 H270 0.930 . S
C253 C252 1.380 . S
C253 C260 1.357 . S
C254 C245 1.511 . S
C254 C255 1.341 . S
C254 C256 1.371 . S
C255 C254 1.341 . S
C255 C259 1.394 . S
C255 H271 0.930 . S
C256 C254 1.371 . S
C256 C257 1.392 . S
C256 H272 0.931 . S
C257 C256 1.392 . S
C257 C258 1.331 . S
C257 H275 0.932 . S
C258 C257 1.331 . S
C258 C259 1.336 . S
C259 C255 1.394 . S
C259 C258 1.336 . S
C259 H274 0.929 . S
C260 C250 1.386 . S
C260 C253 1.357 . S
C260 H273 0.928 . S
H261 C237 0.931 . S
H262 C239 0.930 . S
H263 C241 0.929 . S
H264 C242 0.931 . S
H265 C244 0.930 . S
H266 C248 0.931 . S
H267 C246 0.931 . S
H268 C250 0.931 . S
H269 C251 0.929 . S
H270 C252 0.930 . S
H271 C255 0.930 . S
H272 C256 0.931 . S
H273 C260 0.928 . S
H274 C259 0.929 . S
H275 C257 0.932 . S
C276 C277 1.386 . S
C276 C278 1.397 . S
C276 H300 0.931 . S
C277 C276 1.386 . S
C277 C281 1.397 1_565 S
C278 C276 1.397 . S
C278 C279 1.384 . S
C278 H301 0.930 . S
C279 C278 1.384 . S
C279 C280 1.377 1_565 S
C279 C282 1.481 . S
C280 C279 1.377 1_545 S
C280 C281 1.389 . S
C280 H302 0.929 . S
C281 C277 1.397 1_545 S
C281 C280 1.389 . S
C281 H303 0.931 . S
C282 C279 1.481 . S
C282 C283 1.387 . S
C282 C287 1.390 1_565 S
C283 C282 1.387 . S
C283 C284 1.401 . S
C283 H304 0.930 . S
C284 C283 1.401 . S
C284 C285 1.376 1_565 S
C284 C293 1.511 . S
C285 C284 1.376 1_545 S
C285 C286 1.392 . S
C285 H306 0.931 . S
C286 C285 1.392 . S
C286 C287 1.361 . S
C286 C288 1.500 . S
C287 C282 1.390 1_545 S
C287 C286 1.361 . S
C287 H305 0.931 . S
C288 C286 1.500 . S
C288 C289 1.371 . S
C288 C290 1.365 . S
C289 C288 1.371 . S
C289 C299 1.386 . S
C289 H307 0.931 . S
C290 C288 1.365 . S
C290 C291 1.409 . S
C290 H308 0.929 . S
C291 C290 1.409 . S
C291 C292 1.380 . S
C291 H309 0.930 . S
C292 C291 1.380 . S
C292 C299 1.357 . S
C293 C284 1.511 . S
C293 C294 1.341 . S
C293 C295 1.371 . S
C294 C293 1.341 . S
C294 C298 1.394 . S
C294 H310 0.930 . S
C295 C293 1.371 . S
C295 C296 1.392 . S
C295 H311 0.931 . S
C296 C295 1.392 . S
C296 C297 1.331 . S
C296 H314 0.932 . S
C297 C296 1.331 . S
C297 C298 1.336 . S
C298 C294 1.394 . S
C298 C297 1.336 . S
C298 H313 0.929 . S
C299 C289 1.386 . S
C299 C292 1.357 . S
C299 H312 0.928 . S
H300 C276 0.931 . S
H301 C278 0.930 . S
H302 C280 0.929 . S
H303 C281 0.931 . S
H304 C283 0.930 . S
H305 C287 0.931 . S
H306 C285 0.931 . S
H307 C289 0.931 . S
H308 C290 0.929 . S
H309 C291 0.930 . S
H310 C294 0.930 . S
H311 C295 0.931 . S
H312 C299 0.928 . S
H313 C298 0.929 . S
H314 C296 0.932 . S
C315 C316 1.386 . S
C315 C317 1.397 1_556 S
C315 H339 0.931 . S
C316 C315 1.386 . S
C316 C320 1.397 . S
C317 C315 1.397 1_554 S
C317 C318 1.384 . S
C317 H340 0.930 . S
C318 C317 1.384 . S
C318 C319 1.377 . S
C318 C321 1.481 . S
C319 C318 1.377 . S
C319 C320 1.389 1_554 S
C319 H341 0.929 . S
C320 C316 1.397 . S
C320 C319 1.389 1_556 S
C320 H342 0.931 . S
C321 C318 1.481 . S
C321 C322 1.387 . S
C321 C326 1.390 . S
C322 C321 1.387 . S
C322 C323 1.401 . S
C322 H343 0.930 . S
C323 C322 1.401 . S
C323 C324 1.376 . S
C323 C332 1.511 . S
C324 C323 1.376 . S
C324 C325 1.392 . S
C324 H345 0.931 . S
C325 C324 1.392 . S
C325 C326 1.361 . S
C325 C327 1.500 . S
C326 C321 1.390 . S
C326 C325 1.361 . S
C326 H344 0.931 . S
C327 C325 1.500 . S
C327 C328 1.371 . S
C327 C329 1.365 . S
C328 C327 1.371 . S
C328 C338 1.386 . S
C328 H346 0.931 . S
C329 C327 1.365 . S
C329 C330 1.409 . S
C329 H347 0.929 . S
C330 C329 1.409 . S
C330 C331 1.380 . S
C330 H348 0.930 . S
C331 C330 1.380 . S
C331 C338 1.357 . S
C332 C323 1.511 . S
C332 C333 1.341 . S
C332 C334 1.371 . S
C333 C332 1.341 . S
C333 C337 1.394 . S
C333 H349 0.930 . S
C334 C332 1.371 . S
C334 C335 1.392 . S
C334 H350 0.931 . S
C335 C334 1.392 . S
C335 C336 1.331 . S
C335 H353 0.932 . S
C336 C335 1.331 . S
C336 C337 1.336 . S
C337 C333 1.394 . S
C337 C336 1.336 . S
C337 H352 0.929 . S
C338 C328 1.386 . S
C338 C331 1.357 . S
C338 H351 0.928 . S
H339 C315 0.931 . S
H340 C317 0.930 . S
H341 C319 0.929 . S
H342 C320 0.931 . S
H343 C322 0.930 . S
H344 C326 0.931 . S
H345 C324 0.931 . S
H346 C328 0.931 . S
H347 C329 0.929 . S
H348 C330 0.930 . S
H349 C333 0.930 . S
H350 C334 0.931 . S
H351 C338 0.928 . S
H352 C337 0.929 . S
H353 C335 0.932 . S
C354 C355 1.369 . S
C354 C356 1.419 . S
C354 H358 0.930 . S
C355 C354 1.369 . S
C355 C364 1.429 . S
C356 C354 1.419 . S
C356 C357 1.363 . S
C356 H359 0.929 . S
C357 C356 1.363 . S
C357 C363 1.428 . S
H358 C354 0.930 . S
H359 C356 0.929 . S
S360 N361 1.613 . S
S360 N362 1.610 . S
N361 S360 1.613 . S
N361 C364 1.350 . S
N362 S360 1.610 . S
N362 C363 1.351 . S
C363 C357 1.428 . S
C363 N362 1.351 . S
C363 C364 1.434 . S
C364 C355 1.429 . S
C364 N361 1.350 . S
C364 C363 1.434 . S
C365 C366 1.369 . S
C365 C367 1.419 . S
C365 H369 0.930 . S
C366 C365 1.369 . S
C366 C375 1.429 . S
C367 C365 1.419 . S
C367 C368 1.363 . S
C367 H370 0.929 . S
C368 C367 1.363 . S
C368 C374 1.428 . S
H369 C365 0.930 . S
H370 C367 0.929 . S
S371 N372 1.613 . S
S371 N373 1.610 . S
N372 S371 1.613 . S
N372 C375 1.350 . S
N373 S371 1.610 . S
N373 C374 1.351 . S
C374 C368 1.428 . S
C374 N373 1.351 . S
C374 C375 1.434 . S
C375 C366 1.429 . S
C375 N372 1.350 . S
C375 C374 1.434 . S
C376 C377 1.369 . S
C376 C378 1.419 . S
C376 H380 0.930 . S
C377 C376 1.369 . S
C377 C386 1.429 . S
C378 C376 1.419 . S
C378 C379 1.363 . S
C378 H381 0.929 . S
C379 C378 1.363 . S
C379 C385 1.428 . S
H380 C376 0.930 . S
H381 C378 0.929 . S
S382 N383 1.613 . S
S382 N384 1.610 . S
N383 S382 1.613 . S
N383 C386 1.350 . S
N384 S382 1.610 . S
N384 C385 1.351 . S
C385 C379 1.428 . S
C385 N384 1.351 . S
C385 C386 1.434 . S
C386 C377 1.429 . S
C386 N383 1.350 . S
C386 C385 1.434 . S
C387 C388 1.369 . S
C387 C389 1.419 . S
C387 H391 0.930 . S
C388 C387 1.369 . S
C388 C397 1.429 . S
C389 C387 1.419 . S
C389 C390 1.363 . S
C389 H392 0.929 . S
C390 C389 1.363 . S
C390 C396 1.428 . S
H391 C387 0.930 . S
H392 C389 0.929 . S
S393 N394 1.613 . S
S393 N395 1.610 . S
N394 S393 1.613 . S
N394 C397 1.350 . S
N395 S393 1.610 . S
N395 C396 1.351 . S
C396 C390 1.428 . S
C396 N395 1.351 . S
C396 C397 1.434 . S
C397 C388 1.429 . S
C397 N394 1.350 . S
C397 C396 1.434 . S
C398 C399 1.369 . S
C398 C400 1.419 . S
C398 H402 0.930 . S
C399 C398 1.369 . S
C399 C408 1.429 . S
C400 C398 1.419 . S
C400 C401 1.363 . S
C400 H403 0.929 . S
C401 C400 1.363 . S
C401 C407 1.428 . S
H402 C398 0.930 . S
H403 C400 0.929 . S
S404 N405 1.613 . S
S404 N406 1.610 . S
N405 S404 1.613 . S
N405 C408 1.350 . S
N406 S404 1.610 . S
N406 C407 1.351 . S
C407 C401 1.428 . S
C407 N406 1.351 . S
C407 C408 1.434 . S
C408 C399 1.429 . S
C408 N405 1.350 . S
C408 C407 1.434 . S
C409 C410 1.369 . S
C409 C411 1.419 . S
C409 H413 0.930 . S
C410 C409 1.369 . S
C410 C419 1.429 . S
C411 C409 1.419 . S
C411 C412 1.363 . S
C411 H414 0.929 . S
C412 C411 1.363 . S
C412 C418 1.428 . S
H413 C409 0.930 . S
H414 C411 0.929 . S
S415 N416 1.613 . S
S415 N417 1.610 . S
N416 S415 1.613 . S
N416 C419 1.350 . S
N417 S415 1.610 . S
N417 C418 1.351 . S
C418 C412 1.428 . S
C418 N417 1.351 . S
C418 C419 1.434 . S
C419 C410 1.429 . S
C419 N416 1.350 . S
C419 C418 1.434 . S
C420 C421 1.369 . S
C420 C422 1.419 . S
C420 H424 0.930 . S
C421 C420 1.369 . S
C421 C430 1.429 . S
C422 C420 1.419 . S
C422 C423 1.363 . S
C422 H425 0.929 . S
C423 C422 1.363 . S
C423 C429 1.428 . S
H424 C420 0.930 . S
H425 C422 0.929 . S
S426 N427 1.613 . S
S426 N428 1.610 . S
N427 S426 1.613 . S
N427 C430 1.350 . S
N428 S426 1.610 . S
N428 C429 1.351 . S
C429 C423 1.428 . S
C429 N428 1.351 . S
C429 C430 1.434 . S
C430 C421 1.429 . S
C430 N427 1.350 . S
C430 C429 1.434 . S
C431 C432 1.369 . S
C431 C433 1.419 . S
C431 H435 0.930 . S
C432 C431 1.369 . S
C432 C441 1.429 . S
C433 C431 1.419 . S
C433 C434 1.363 . S
C433 H436 0.929 . S
C434 C433 1.363 . S
C434 C440 1.428 . S
H435 C431 0.930 . S
H436 C433 0.929 . S
S437 N438 1.613 . S
S437 N439 1.610 . S
N438 S437 1.613 . S
N438 C441 1.350 . S
N439 S437 1.610 . S
N439 C440 1.351 . S
C440 C434 1.428 . S
C440 N439 1.351 . S
C440 C441 1.434 . S
C441 C432 1.429 . S
C441 N438 1.350 . S
C441 C440 1.434 . S
C442 C443 1.369 . S
C442 C444 1.419 . S
C442 H446 0.930 . S
C443 C442 1.369 . S
C443 C452 1.429 . S
C444 C442 1.419 . S
C444 C445 1.363 . S
C444 H447 0.929 . S
C445 C444 1.363 . S
C445 C451 1.428 . S
H446 C442 0.930 . S
H447 C444 0.929 . S
S448 N449 1.613 . S
S448 N450 1.610 . S
N449 S448 1.613 . S
N449 C452 1.350 . S
N450 S448 1.610 . S
N450 C451 1.351 . S
C451 C445 1.428 . S
C451 N450 1.351 . S
C451 C452 1.434 . S
C452 C443 1.429 . S
C452 N449 1.350 . S
C452 C451 1.434 . S
C453 C454 1.369 . S
C453 C455 1.419 . S
C453 H457 0.930 . S
C454 C453 1.369 . S
C454 C463 1.429 . S
C455 C453 1.419 . S
C455 C456 1.363 . S
C455 H458 0.929 . S
C456 C455 1.363 . S
C456 C462 1.428 . S
H457 C453 0.930 . S
H458 C455 0.929 . S
S459 N460 1.613 . S
S459 N461 1.610 . S
N460 S459 1.613 . S
N460 C463 1.350 . S
N461 S459 1.610 . S
N461 C462 1.351 . S
C462 C456 1.428 . S
C462 N461 1.351 . S
C462 C463 1.434 . S
C463 C454 1.429 . S
C463 N460 1.350 . S
C463 C462 1.434 . S
C464 C465 1.369 . S
C464 C466 1.419 . S
C464 H468 0.930 . S
C465 C464 1.369 . S
C465 C474 1.429 . S
C466 C464 1.419 . S
C466 C467 1.363 . S
C466 H469 0.929 . S
C467 C466 1.363 . S
C467 C473 1.428 . S
H468 C464 0.930 . S
H469 C466 0.929 . S
S470 N471 1.613 . S
S470 N472 1.610 . S
N471 S470 1.613 . S
N471 C474 1.350 . S
N472 S470 1.610 . S
N472 C473 1.351 . S
C473 C467 1.428 . S
C473 N472 1.351 . S
C473 C474 1.434 . S
C474 C465 1.429 . S
C474 N471 1.350 . S
C474 C473 1.434 . S
C475 C476 1.369 . S
C475 C477 1.419 . S
C475 H479 0.930 . S
C476 C475 1.369 . S
C476 C485 1.429 . S
C477 C475 1.419 . S
C477 C478 1.363 . S
C477 H480 0.929 . S
C478 C477 1.363 . S
C478 C484 1.428 . S
H479 C475 0.930 . S
H480 C477 0.929 . S
S481 N482 1.613 . S
S481 N483 1.610 . S
N482 S481 1.613 . S
N482 C485 1.350 . S
N483 S481 1.610 . S
N483 C484 1.351 . S
C484 C478 1.428 . S
C484 N483 1.351 . S
C484 C485 1.434 . S
C485 C476 1.429 . S
C485 N482 1.350 . S
C485 C484 1.434 . S
C486 C487 1.369 . S
C486 C488 1.419 . S
C486 H490 0.930 . S
C487 C486 1.369 . S
C487 C496 1.429 1_455 S
C488 C486 1.419 . S
C488 C489 1.363 . S
C488 H491 0.929 . S
C489 C488 1.363 . S
C489 C495 1.428 1_455 S
H490 C486 0.930 . S
H491 C488 0.929 . S
S492 N493 1.613 . S
S492 N494 1.610 . S
N493 S492 1.613 . S
N493 C496 1.350 . S
N494 S492 1.610 . S
N494 C495 1.351 . S
C495 C489 1.428 1_655 S
C495 N494 1.351 . S
C495 C496 1.434 . S
C496 C487 1.429 1_655 S
C496 N493 1.350 . S
C496 C495 1.434 . S
C497 C498 1.369 . S
C497 C499 1.419 . S
C497 H501 0.930 1_545 S
C498 C497 1.369 . S
C498 C507 1.429 . S
C499 C497 1.419 . S
C499 C500 1.363 . S
C499 H502 0.929 1_545 S
C500 C499 1.363 . S
C500 C506 1.428 . S
H501 C497 0.930 1_565 S
H502 C499 0.929 1_565 S
S503 N504 1.613 . S
S503 N505 1.610 . S
N504 S503 1.613 . S
N504 C507 1.350 . S
N505 S503 1.610 . S
N505 C506 1.351 . S
C506 C500 1.428 . S
C506 N505 1.351 . S
C506 C507 1.434 . S
C507 C498 1.429 . S
C507 N504 1.350 . S
C507 C506 1.434 . S
C508 C509 1.369 . S
C508 C510 1.419 . S
C508 H512 0.930 . S
C509 C508 1.369 . S
C509 C518 1.429 . S
C510 C508 1.419 . S
C510 C511 1.363 . S
C510 H513 0.929 . S
C511 C510 1.363 . S
C511 C517 1.428 . S
H512 C508 0.930 . S
H513 C510 0.929 . S
S514 N515 1.613 . S
S514 N516 1.610 . S
N515 S514 1.613 . S
N515 C518 1.350 . S
N516 S514 1.610 . S
N516 C517 1.351 . S
C517 C511 1.428 . S
C517 N516 1.351 . S
C517 C518 1.434 . S
C518 C509 1.429 . S
C518 N515 1.350 . S
C518 C517 1.434 . S
C519 C520 1.355 1_565 S
C519 C521 1.421 . S
C519 H523 0.943 . S
C520 C519 1.355 1_545 S
C520 C529 1.429 . S
C521 C519 1.421 . S
C521 C522 1.363 . S
C521 H524 0.929 . S
C522 C521 1.363 . S
C522 C528 1.428 1_565 S
H523 C519 0.943 . S
H524 C521 0.929 . S
S525 N526 1.613 . S
S525 N527 1.610 . S
N526 S525 1.613 . S
N526 C529 1.350 . S
N527 S525 1.610 . S
N527 C528 1.351 . S
C528 C522 1.428 1_545 S
C528 N527 1.351 . S
C528 C529 1.434 . S
C529 C520 1.429 . S
C529 N526 1.350 . S
C529 C528 1.434 . S
C530 C531 1.369 . S
C530 C532 1.419 . S
C530 H534 0.930 . S
C531 C530 1.369 . S
C531 C540 1.429 . S
C532 C530 1.419 . S
C532 C533 1.363 . S
C532 H535 0.929 . S
C533 C532 1.363 . S
C533 C539 1.428 . S
H534 C530 0.930 . S
H535 C532 0.929 . S
S536 N537 1.613 . S
S536 N538 1.610 . S
N537 S536 1.613 . S
N537 C540 1.350 . S
N538 S536 1.610 . S
N538 C539 1.351 . S
C539 C533 1.428 . S
C539 N538 1.351 . S
C539 C540 1.434 . S
C540 C531 1.429 . S
C540 N537 1.350 . S
C540 C539 1.434 . S
C541 C542 1.369 . S
C541 C543 1.419 . S
C541 H545 0.930 . S
C542 C541 1.369 . S
C542 C551 1.429 1_455 S
C543 C541 1.419 . S
C543 C544 1.363 . S
C543 H546 0.929 . S
C544 C543 1.363 . S
C544 C550 1.428 1_455 S
H545 C541 0.930 . S
H546 C543 0.929 . S
S547 N548 1.613 . S
S547 N549 1.610 . S
N548 S547 1.613 . S
N548 C551 1.350 . S
N549 S547 1.610 . S
N549 C550 1.351 . S
C550 C544 1.428 1_655 S
C550 N549 1.351 . S
C550 C551 1.434 . S
C551 C542 1.429 1_655 S
C551 N548 1.350 . S
C551 C550 1.434 . S
C355 C6 0.912 . S
C357 C331 0.944 . S
C366 C59 2.029 . S
C368 C258 1.974 . S
C377 C86 1.347 . S
C379 C297 1.385 . S
C388 C15 0.644 . S
C390 C336 0.547 . S
C401 C253 2.049 . S
C399 C50 2.154 . S
C412 C292 1.380 . S
C410 C95 1.350 . S
C421 C46 1.293 . S
C423 C180 1.319 . S
C432 C99 3.189 . S
C434 C214 3.129 . S
C443 C10 2.183 . S
C445 C136 2.104 . S
C456 C175 1.385 . S
C454 C55 1.344 . S
C467 C219 3.053 . S
C465 C90 3.114 . S
C476 C19 2.032 . S
C478 C141 1.987 . S
C489 C199 1.791 1_554 S
C487 C18 1.719 . S
C498 C49 1.324 . S
C500 C121 1.371 . S
C509 C98 1.451 . S
C511 C160 1.506 . S
C522 C277 1.487 . S
C520 C58 1.439 . S
C533 C316 1.080 . S
C531 C89 1.080 . S
C542 C9 1.322 . S
C544 C238 1.357 1_455 S
