# Generated by pormake.
# Topology ptr, (4,4)-cn, num edge types: 1
# Building blocks:
#     Node 0, Type 0, BuildingBlock: AZAVOO_clean_sbu_0, # of connection points: 4
#     Node 1, Type 0, BuildingBlock: AZAVOO_clean_sbu_0, # of connection points: 4
#     Node 2, Type 0, BuildingBlock: AZAVOO_clean_sbu_0, # of connection points: 4
#     Node 3, Type 0, BuildingBlock: AZAVOO_clean_sbu_0, # of connection points: 4
#     Node 4, Type 0, BuildingBlock: AZAVOO_clean_sbu_0, # of connection points: 4
#     Node 5, Type 0, BuildingBlock: AZAVOO_clean_sbu_0, # of connection points: 4
#     Node 6, Type 0, BuildingBlock: AZAVOO_clean_sbu_0, # of connection points: 4
#     Node 7, Type 0, BuildingBlock: AZAVOO_clean_sbu_0, # of connection points: 4
#     Node 8, Type 0, BuildingBlock: AZAVOO_clean_sbu_0, # of connection points: 4
#     Node 9, Type 0, BuildingBlock: AZAVOO_clean_sbu_0, # of connection points: 4
#     Node 10, Type 0, BuildingBlock: AZAVOO_clean_sbu_0, # of connection points: 4
#     Node 11, Type 0, BuildingBlock: AZAVOO_clean_sbu_0, # of connection points: 4
#     Node 12, Type 0, BuildingBlock: AZAVOO_clean_sbu_0, # of connection points: 4
#     Node 13, Type 0, BuildingBlock: AZAVOO_clean_sbu_0, # of connection points: 4
#     Node 14, Type 0, BuildingBlock: AZAVOO_clean_sbu_0, # of connection points: 4
#     Node 15, Type 0, BuildingBlock: AZAVOO_clean_sbu_0, # of connection points: 4
#     Node 16, Type 0, BuildingBlock: AZAVOO_clean_sbu_0, # of connection points: 4
#     Node 17, Type 0, BuildingBlock: AZAVOO_clean_sbu_0, # of connection points: 4
#     Node 18, Type 1, BuildingBlock: NAWXER_clean_linker_0, # of connection points: 4
#     Node 19, Type 1, BuildingBlock: NAWXER_clean_linker_0, # of connection points: 4
#     Node 20, Type 1, BuildingBlock: NAWXER_clean_linker_0, # of connection points: 4
#     Node 21, Type 1, BuildingBlock: NAWXER_clean_linker_0, # of connection points: 4
#     Node 22, Type 1, BuildingBlock: NAWXER_clean_linker_0, # of connection points: 4
#     Node 23, Type 1, BuildingBlock: NAWXER_clean_linker_0, # of connection points: 4
#     Node 24, Type 1, BuildingBlock: NAWXER_clean_linker_0, # of connection points: 4
#     Node 25, Type 1, BuildingBlock: NAWXER_clean_linker_0, # of connection points: 4
#     Node 26, Type 1, BuildingBlock: NAWXER_clean_linker_0, # of connection points: 4
#     Node 27, Type 1, BuildingBlock: NAWXER_clean_linker_0, # of connection points: 4
#     Node 28, Type 1, BuildingBlock: NAWXER_clean_linker_0, # of connection points: 4
#     Node 29, Type 1, BuildingBlock: NAWXER_clean_linker_0, # of connection points: 4
#     Node 30, Type 1, BuildingBlock: NAWXER_clean_linker_0, # of connection points: 4
#     Node 31, Type 1, BuildingBlock: NAWXER_clean_linker_0, # of connection points: 4
#     Node 32, Type 1, BuildingBlock: NAWXER_clean_linker_0, # of connection points: 4
#     Node 33, Type 1, BuildingBlock: NAWXER_clean_linker_0, # of connection points: 4
#     Node 34, Type 1, BuildingBlock: NAWXER_clean_linker_0, # of connection points: 4
#     Node 35, Type 1, BuildingBlock: NAWXER_clean_linker_0, # of connection points: 4
#     Edge 36, Type (0, 1), None
#     Edge 37, Type (0, 1), None
#     Edge 38, Type (0, 1), None
#     Edge 39, Type (0, 1), None
#     Edge 40, Type (0, 1), None
#     Edge 41, Type (0, 1), None
#     Edge 42, Type (0, 1), None
#     Edge 43, Type (0, 1), None
#     Edge 44, Type (0, 1), None
#     Edge 45, Type (0, 1), None
#     Edge 46, Type (0, 1), None
#     Edge 47, Type (0, 1), None
#     Edge 48, Type (0, 1), None
#     Edge 49, Type (0, 1), None
#     Edge 50, Type (0, 1), None
#     Edge 51, Type (0, 1), None
#     Edge 52, Type (0, 1), None
#     Edge 53, Type (0, 1), None
#     Edge 54, Type (0, 1), None
#     Edge 55, Type (0, 1), None
#     Edge 56, Type (0, 1), None
#     Edge 57, Type (0, 1), None
#     Edge 58, Type (0, 1), None
#     Edge 59, Type (0, 1), None
#     Edge 60, Type (0, 1), None
#     Edge 61, Type (0, 1), None
#     Edge 62, Type (0, 1), None
#     Edge 63, Type (0, 1), None
#     Edge 64, Type (0, 1), None
#     Edge 65, Type (0, 1), None
#     Edge 66, Type (0, 1), None
#     Edge 67, Type (0, 1), None
#     Edge 68, Type (0, 1), None
#     Edge 69, Type (0, 1), None
#     Edge 70, Type (0, 1), None
#     Edge 71, Type (0, 1), None
#     Edge 72, Type (0, 1), None
#     Edge 73, Type (0, 1), None
#     Edge 74, Type (0, 1), None
#     Edge 75, Type (0, 1), None
#     Edge 76, Type (0, 1), None
#     Edge 77, Type (0, 1), None
#     Edge 78, Type (0, 1), None
#     Edge 79, Type (0, 1), None
#     Edge 80, Type (0, 1), None
#     Edge 81, Type (0, 1), None
#     Edge 82, Type (0, 1), None
#     Edge 83, Type (0, 1), None
#     Edge 84, Type (0, 1), None
#     Edge 85, Type (0, 1), None
#     Edge 86, Type (0, 1), None
#     Edge 87, Type (0, 1), None
#     Edge 88, Type (0, 1), None
#     Edge 89, Type (0, 1), None
#     Edge 90, Type (0, 1), None
#     Edge 91, Type (0, 1), None
#     Edge 92, Type (0, 1), None
#     Edge 93, Type (0, 1), None
#     Edge 94, Type (0, 1), None
#     Edge 95, Type (0, 1), None
#     Edge 96, Type (0, 1), None
#     Edge 97, Type (0, 1), None
#     Edge 98, Type (0, 1), None
#     Edge 99, Type (0, 1), None
#     Edge 100, Type (0, 1), None
#     Edge 101, Type (0, 1), None
#     Edge 102, Type (0, 1), None
#     Edge 103, Type (0, 1), None
#     Edge 104, Type (0, 1), None
#     Edge 105, Type (0, 1), None
#     Edge 106, Type (0, 1), None
#     Edge 107, Type (0, 1), None
# Relax obj value: 0.081
# Max RMSD: 0.305
# Mean RMSD: 0.124
data_MOF--net-ptr--node1-AZAVOO_clean_sbu_0--node2-NAWXER_clean_linker_0--edge1-none
_symmetry_space_group_name_H-M    P1
_symmetry_Int_Tables_number       1
_symmetry_cell_setting            triclinic
loop_
_symmetry_equiv_pos_as_xyz
'x, y, z'
_cell_length_a     48.215014
_cell_length_b     47.19403
_cell_length_c     32.820272
_cell_angle_alpha  91.613651
_cell_angle_beta   92.067635
_cell_angle_gamma 119.99007
loop_
_atom_site_label
_atom_site_type_symbol
_atom_site_fract_x
_atom_site_fract_y
_atom_site_fract_z
_atom_type_partial_charge
Mg0 Mg 0.01541 0.33674 0.99965 0.0
O1 O 0.98902 0.35142 0.04593 0.0
O2 O 0.95087 0.35564 0.01057 0.0
Mg3 Mg 0.9524 0.34449 0.94306 0.0
C4 C 0.96587 0.35738 0.04422 0.0
C5 C 0.04954 0.30397 0.04536 0.0
O6 O 0.04393 0.28966 1.00867 0.0
O7 O 0.97328 0.2835 0.99077 0.0
O8 O 0.9376 0.2916 0.95507 0.0
O9 O 0.04864 0.3903 0.98918 0.0
O10 O 0.00322 0.35894 0.95334 0.0
C11 C 0.94596 0.2727 0.97169 0.0
C12 C 0.02785 0.38754 0.96094 0.0
O13 O 0.03996 0.32428 0.05222 0.0
Mg14 Mg 0.67112 0.64366 0.06476 0.0
O15 O 0.6306 0.63038 0.01577 0.0
O16 O 0.5868 0.61992 0.04819 0.0
Mg17 Mg 0.59834 0.62368 0.11723 0.0
C18 C 0.60112 0.62254 0.01532 0.0
C19 C 0.7123 0.6832 0.98936 0.0
O20 O 0.69478 0.69735 0.98738 0.0
O21 O 0.67657 0.69388 0.08012 0.0
O22 O 0.63355 0.67876 0.1167 0.0
O23 O 0.65693 0.59067 0.06646 0.0
O24 O 0.63822 0.61535 0.106 0.0
C25 C 0.65963 0.7009 0.10289 0.0
C26 C 0.63787 0.58901 0.09421 0.0
O27 O 0.70762 0.66278 0.01645 0.0
Mg28 Mg 0.31095 0.95233 0.97158 0.0
O29 O 0.35059 0.97949 0.02257 0.0
O30 O 0.39563 0.01511 0.99441 0.0
Mg31 Mg 0.38531 0.01016 0.92518 0.0
C32 C 0.38015 0.0017 0.02566 0.0
C33 C 0.27014 0.95086 0.04691 0.0
O34 O 0.28788 0.98293 0.04764 0.0
O35 O 0.30517 -0.00335 0.96138 0.0
O36 O 0.35071 0.02963 0.93153 0.0
O37 O 0.32648 0.91498 0.964 0.0
O38 O 0.3449 0.96021 0.92994 0.0
C39 C 0.32361 0.02321 0.94447 0.0
C40 C 0.34579 0.93424 0.938 0.0
O41 O 0.27408 0.93345 0.01998 0.0
Mg42 Mg 0.96856 0.64258 0.04554 0.0
O43 O -0.00487 0.62803 0.99845 0.0
O44 O 0.02871 0.61822 0.03624 0.0
Mg45 Mg 0.02337 0.624 0.1044 0.0
C46 C 0.01672 0.61977 1.00159 0.0
C47 C 0.9573 0.68985 0.98432 0.0
O48 O 0.98653 0.7131 0.99581 0.0
O49 O 0.01289 0.69335 0.06159 0.0
O50 O 0.04185 0.67885 0.10136 0.0
O51 O 0.9311 0.5893 0.04848 0.0
O52 O 0.97529 0.615 0.08873 0.0
C53 C 0.03721 0.70076 0.08586 0.0
C54 C 0.94966 0.58831 0.07715 0.0
O55 O 0.9466 0.66122 0.99721 0.0
Mg56 Mg 0.33117 0.3529 0.98812 0.0
O57 O 0.37032 0.36524 0.03894 0.0
O58 O 0.41246 0.36749 0.00991 0.0
Mg59 Mg 0.40137 0.3589 0.94093 0.0
C60 C 0.39859 0.36936 0.04143 0.0
C61 C 0.29174 0.32407 0.06692 0.0
O62 O 0.30956 0.31044 0.07162 0.0
O63 O 0.31913 0.29961 0.97986 0.0
O64 O 0.36229 0.30594 0.94868 0.0
O65 O 0.35135 0.40631 0.97861 0.0
O66 O 0.36544 0.37453 0.94541 0.0
C67 C 0.33482 0.28784 0.96268 0.0
C68 C 0.3691 0.40321 0.95217 0.0
O69 O 0.29511 0.34134 0.03643 0.0
Mg70 Mg 0.65355 0.01423 0.05253 0.0
O71 O 0.61585 0.98612 0.99982 0.0
O72 O 0.57392 0.94364 0.02528 0.0
Mg73 Mg 0.58357 0.94522 0.09401 0.0
C74 C 0.58799 0.96073 0.99528 0.0
C75 C 0.69556 0.02569 0.97694 0.0
O76 O 0.67882 0.99356 0.97288 0.0
O77 O 0.66803 0.97542 0.05839 0.0
O78 O 0.62499 0.93588 0.0866 0.0
O79 O 0.63044 0.04443 0.06545 0.0
O80 O 0.61832 -0.00188 0.09404 0.0
C81 C 0.65318 0.94756 0.07399 0.0
C82 C 0.61305 0.022 0.08995 0.0
O83 O 0.69043 0.04055 1.00605 0.0
Mg84 Mg 0.69064 0.68136 0.32902 0.0
O85 O 0.66445 0.69538 0.37728 0.0
O86 O 0.63065 0.70559 0.34056 0.0
Mg87 Mg 0.63616 0.70156 0.27219 0.0
C88 C 0.64267 0.70342 0.37486 0.0
C89 C 0.70431 0.63416 0.38835 0.0
O90 O 0.6761 0.60948 0.3758 0.0
O91 O 0.6458 0.63072 0.31258 0.0
O92 O 0.61757 0.64665 0.27368 0.0
O93 O 0.72875 0.73447 0.32684 0.0
O94 O 0.68405 0.71012 0.28749 0.0
C95 C 0.62168 0.62413 0.2883 0.0
C96 C 0.71006 0.73641 0.29923 0.0
O97 O 0.71313 0.6627 0.37631 0.0
Mg98 Mg 0.31768 0.98596 0.38367 0.0
O99 O 0.27839 0.97139 0.33288 0.0
O100 O 0.2343 0.96458 0.36116 0.0
Mg101 Mg 0.24389 0.97032 0.43063 0.0
C102 C 0.24938 0.96496 0.32983 0.0
C103 C 0.3499 0.98059 0.30815 0.0
O104 O 0.32589 0.95058 0.31056 0.0
O105 O 0.32449 0.03723 0.39481 0.0
O106 O 0.28103 0.02437 0.42948 0.0
O107 O 0.30212 0.93283 0.39212 0.0
O108 O 0.28388 0.96069 0.42561 0.0
C109 C 0.30787 0.04552 0.41638 0.0
C110 C 0.28329 0.9335 0.41879 0.0
O111 O 0.35379 0.00249 0.33481 0.0
Mg112 Mg 0.98864 0.29146 0.31543 0.0
O113 O 0.02865 0.3203 0.36545 0.0
O114 O 0.07239 0.3563 0.33528 0.0
Mg115 Mg 0.06121 0.34921 0.26627 0.0
C116 C 0.05782 0.3434 0.36727 0.0
C117 C 0.95002 0.29037 0.39245 0.0
O118 O 0.96797 0.32243 0.39362 0.0
O119 O 0.98139 0.33471 0.30445 0.0
O120 O 0.02579 0.36759 0.27249 0.0
O121 O 0.00507 0.25491 0.30918 0.0
O122 O 0.02184 0.29909 0.27319 0.0
C123 C -0.00109 0.36093 0.28638 0.0
C124 C 0.02363 0.27378 0.28232 0.0
O125 O 0.95306 0.27304 0.36454 0.0
Mg126 Mg 0.64051 0.98212 0.37281 0.0
O127 O 0.66679 0.96897 0.32375 0.0
O128 O 0.70623 0.96631 0.35816 0.0
Mg129 Mg 0.70514 0.97554 0.42641 0.0
C130 C 0.69078 0.96426 0.32475 0.0
C131 C 0.58403 0.9821 0.32564 0.0
O132 O 0.57005 0.96061 0.35341 0.0
O133 O 0.68162 0.0356 0.38286 0.0
O134 O 0.7184 0.02857 0.4175 0.0
O135 O 0.60807 0.92823 0.38257 0.0
O136 O 0.65402 0.9598 0.41716 0.0
C137 C 0.70896 0.04703 0.40203 0.0
C138 C 0.6294 0.93115 0.41007 0.0
O139 O 0.61435 -0.00418 0.324 0.0
Mg140 Mg -0.00582 0.67817 0.31321 0.0
O141 O 0.03522 0.69455 0.36205 0.0
O142 O 0.07985 0.70743 0.33026 0.0
Mg143 Mg 0.06804 0.70296 0.26103 0.0
C144 C 0.0651 0.70411 0.36293 0.0
C145 C 0.95863 0.67407 0.39059 0.0
O146 O 0.97924 0.70563 0.39063 0.0
O147 O -0.00707 0.63012 0.29823 0.0
O148 O 0.03577 0.64713 0.26079 0.0
O149 O 0.0044 0.73007 0.31048 0.0
O150 O 0.02593 0.70794 0.27167 0.0
C151 C 0.01045 0.62422 0.27521 0.0
C152 C 0.02405 0.73316 0.28282 0.0
O153 O 0.95862 0.65523 0.36223 0.0
Mg154 Mg 0.34216 0.37952 0.39985 0.0
O155 O 0.30175 0.34934 0.35037 0.0
O156 O 0.25865 0.31353 0.38179 0.0
Mg157 Mg 0.27061 0.32132 0.45068 0.0
C158 C 0.27268 0.32601 0.34932 0.0
C159 C 0.38093 0.38043 0.32321 0.0
O160 O 0.36292 0.3484 0.323 0.0
O161 O 0.35079 0.3371 0.41165 0.0
O162 O 0.30667 0.30386 0.44391 0.0
O163 O 0.32424 0.41502 0.40598 0.0
O164 O 0.30919 0.37156 0.44277 0.0
C165 C 0.33362 0.31089 0.42995 0.0
C166 C 0.30645 0.39629 0.43351 0.0
O167 O 0.37773 0.39824 0.35029 0.0
Mg168 Mg 0.34857 0.01435 0.66093 0.0
O169 O 0.32197 0.02952 0.70641 0.0
O170 O 0.28665 0.03731 0.66963 0.0
Mg171 Mg 0.29011 0.02742 0.60199 0.0
C172 C 0.3001 0.03733 0.70387 0.0
C173 C 0.3757 0.9751 0.70439 0.0
O174 O 0.36894 0.96192 0.66696 0.0
O175 O 0.3054 0.96263 0.64829 0.0
O176 O 0.27183 0.97282 0.61105 0.0
O177 O 0.38435 0.06757 0.65491 0.0
O178 O 0.33995 0.03944 0.61535 0.0
C179 C 0.27894 0.95292 0.62761 0.0
C180 C 0.36518 0.06697 0.62583 0.0
O181 O 0.36933 -0.00239 0.71303 0.0
Mg182 Mg -0.00689 0.30412 0.72518 0.0
O183 O 0.95343 0.29192 0.67498 0.0
O184 O 0.91148 0.28945 0.70482 0.0
Mg185 Mg 0.92337 0.29849 0.77364 0.0
C186 C 0.92504 0.28758 0.673 0.0
C187 C 0.03347 0.33463 0.64736 0.0
O188 O 0.01629 0.34908 0.644 0.0
O189 O 0.00549 0.35749 0.73392 0.0
O190 O 0.96255 0.35129 0.76557 0.0
O191 O 0.97263 0.25059 0.7352 0.0
O192 O 0.95925 0.28291 0.76841 0.0
C193 C 0.98998 0.36931 0.75144 0.0
C194 C 0.95536 0.25412 0.76201 0.0
O195 O 0.02914 0.31587 0.67647 0.0
Mg196 Mg 0.66633 0.63615 0.65838 0.0
O197 O 0.7057 0.6673 0.70829 0.0
O198 O 0.74759 0.7064 0.67833 0.0
Mg199 Mg 0.7365 0.69897 0.60943 0.0
C200 C 0.73386 0.69233 0.71025 0.0
C201 C 0.62641 0.63082 0.73551 0.0
O202 O 0.64318 0.66298 0.73717 0.0
O203 O 0.65387 0.67605 0.64689 0.0
O204 O 0.69696 0.71138 0.61446 0.0
O205 O 0.68698 0.60295 0.64924 0.0
O206 O 0.69997 0.64734 0.61566 0.0
C207 C 0.6694 0.70225 0.62787 0.0
C208 C 0.70381 0.62281 0.62196 0.0
O209 O 0.63071 0.61452 0.70741 0.0
Mg210 Mg 0.31004 0.3235 0.71524 0.0
O211 O 0.33658 0.30878 0.66919 0.0
O212 O 0.37422 0.30396 0.70489 0.0
Mg213 Mg 0.37223 0.31488 0.77239 0.0
C214 C 0.35953 0.30254 0.67109 0.0
C215 C 0.2772 0.35736 0.67012 0.0
O216 O 0.28287 0.37118 0.7071 0.0
O217 O 0.35229 0.37645 0.7247 0.0
O218 O 0.38757 0.36802 0.76081 0.0
O219 O 0.27628 0.27006 0.72521 0.0
O220 O 0.32158 0.30094 0.76157 0.0
C221 C 0.37942 0.38707 0.74413 0.0
C222 C 0.29676 0.27251 0.75373 0.0
O223 O 0.28628 0.33672 0.66269 0.0
Mg224 Mg 0.65676 0.01547 0.64721 0.0
O225 O 0.69576 0.02863 0.69888 0.0
O226 O 0.73873 0.03254 0.67019 0.0
Mg227 Mg 0.72836 0.02371 0.60121 0.0
C228 C 0.72445 0.03381 0.70158 0.0
C229 C 0.61344 0.98196 0.72181 0.0
O230 O 0.62972 0.96652 0.72456 0.0
O231 O 0.64616 0.96269 0.63862 0.0
O232 O 0.6902 0.97043 0.60848 0.0
O233 O 0.67593 0.06883 0.63741 0.0
O234 O 0.69131 0.03776 0.6052 0.0
C235 C 0.66265 0.95171 0.62185 0.0
C236 C 0.69419 0.06613 0.61143 0.0
O237 O 0.61941 0.00236 0.69428 0.0
Mg238 Mg -0.00076 0.6921 0.72211 0.0
O239 O 0.96044 0.66269 0.67106 0.0
O240 O 0.91718 0.62375 0.69904 0.0
Mg241 Mg 0.92717 0.62952 0.76812 0.0
C242 C 0.93189 0.63834 0.6679 0.0
C243 C 0.04048 0.69831 0.64554 0.0
O244 O 0.02411 0.66613 0.64312 0.0
O245 O 0.0101 0.65098 0.73285 0.0
O246 O 0.96582 0.61578 0.76338 0.0
O247 O 0.97977 0.7262 0.73074 0.0
O248 O 0.96471 0.68111 0.76377 0.0
C249 C -0.00648 0.62443 0.7508 0.0
C250 C 0.96172 0.70613 0.75708 0.0
O251 O 0.0357 0.71399 0.67396 0.0
C252 C 0.25156 0.33731 0.09332 0.0
C253 C 0.26723 0.31905 0.09608 0.0
C254 C 0.22677 0.33134 0.11841 0.0
C255 C 0.21706 0.30706 0.14697 0.0
C256 C 0.25837 0.29551 0.12572 0.0
C257 C 0.23329 0.28941 0.15089 0.0
C258 C 0.18768 0.29833 0.16847 0.0
C259 C 0.22449 0.28479 0.30644 0.0
C260 C 0.25349 0.31479 0.3098 0.0
C261 C 0.20345 0.27651 0.2721 0.0
C262 C 0.21077 0.29802 0.24028 0.0
C263 C 0.262 0.33528 0.27664 0.0
C264 C 0.24067 0.32713 0.24234 0.0
C265 C 0.18448 0.29283 0.21056 0.0
C266 C 0.04464 0.25149 0.23041 0.0
C267 C 0.04959 0.27008 0.2668 0.0
C268 C 0.0709 0.25451 0.21009 0.0
C269 C 0.10224 0.27672 0.22569 0.0
C270 C 0.08071 0.29066 0.28363 0.0
C271 C 0.10686 0.29381 0.26335 0.0
C272 C 0.13068 0.28282 0.20372 0.0
C273 C 0.07668 0.31453 0.11587 0.0
C274 C 0.06884 0.29821 0.07699 0.0
C275 C 0.09697 0.31078 0.14423 0.0
C276 C 0.10958 0.29041 0.13441 0.0
C277 C 0.08105 0.27739 0.06767 0.0
C278 C 0.10132 0.27374 0.09591 0.0
C279 C 0.13408 0.28906 0.16184 0.0
H280 H 0.25798 0.35587 0.07115 0.0
H281 H 0.21463 0.34529 0.11482 0.0
H282 H 0.27003 0.28106 0.12855 0.0
H283 H 0.22581 0.27009 0.17213 0.0
H284 H 0.21732 0.26828 0.3312 0.0
H285 H 0.18052 0.254 0.27147 0.0
H286 H 0.28412 0.35864 0.27834 0.0
H287 H 0.24667 0.34471 0.21897 0.0
H288 H 0.02063 0.23589 0.2168 0.0
H289 H 0.06675 0.2403 0.18174 0.0
H290 H 0.08485 0.30555 0.31139 0.0
H291 H 0.1308 0.31083 0.27623 0.0
H292 H 0.06784 0.33086 0.12404 0.0
H293 H 0.1036 0.32464 0.17328 0.0
H294 H 0.07561 0.26443 0.03809 0.0
H295 H 0.111 0.25819 0.08741 0.0
N296 N 0.16233 0.29617 0.14597 0.0
N297 N 0.156 0.28512 0.22616 0.0
C298 C 0.65439 0.89687 0.08641 0.0
C299 C 0.67078 0.93114 0.08667 0.0
C300 C 0.66656 0.88097 0.10973 0.0
C301 C 0.69498 0.89909 0.13434 0.0
C302 C 0.70065 0.94924 0.10848 0.0
C303 C 0.71263 0.93327 0.13247 0.0
C304 C 0.70518 0.88139 0.16168 0.0
C305 C 0.72881 0.9533 0.28679 0.0
C306 C 0.69904 0.95204 0.28744 0.0
C307 C 0.7343 0.93524 0.25698 0.0
C308 C 0.71033 0.91563 0.22684 0.0
C309 C 0.67595 0.93461 0.25528 0.0
C310 C 0.68146 0.91635 0.2254 0.0
C311 C 0.71296 0.88949 0.20404 0.0
C312 C 0.73883 0.78073 0.25206 0.0
C313 C 0.71699 0.76758 0.28271 0.0
C314 C 0.74041 0.80631 0.22988 0.0
C315 C 0.72036 0.8191 0.23847 0.0
C316 C 0.69811 0.78139 0.29266 0.0
C317 C 0.70014 0.80737 0.27105 0.0
C318 C 0.71736 0.84162 0.21073 0.0
C319 C 0.65714 0.74168 0.15025 0.0
C320 C 0.67179 0.73527 0.11771 0.0
C321 C 0.66947 0.77336 0.167 0.0
C322 C 0.69672 0.79947 0.15172 0.0
C323 C 0.69888 0.7616 0.10189 0.0
C324 C 0.71105 0.7936 0.11854 0.0
C325 C 0.70816 0.83291 0.16899 0.0
H326 H 0.63117 0.8825 0.07017 0.0
H327 H 0.65272 0.85451 0.11035 0.0
H328 H 0.71343 0.97578 0.10963 0.0
H329 H 0.735 0.9476 0.15051 0.0
H330 H 0.74726 0.96669 0.31085 0.0
H331 H 0.75663 0.93493 0.25905 0.0
H332 H 0.65271 0.93293 0.25499 0.0
H333 H 0.66214 0.9008 0.20324 0.0
H334 H 0.75321 0.76995 0.24366 0.0
H335 H 0.75617 0.81508 0.20484 0.0
H336 H 0.68083 0.77116 0.31592 0.0
H337 H 0.68432 0.81677 0.27794 0.0
H338 H 0.63633 0.72213 0.16342 0.0
H339 H 0.65754 0.77753 0.19188 0.0
H340 H 0.7107 0.75748 0.07685 0.0
H341 H 0.73178 0.81366 0.10589 0.0
N342 N 0.70282 0.85326 0.14603 0.0
N343 N 0.71913 0.86936 0.22675 0.0
C344 C 0.08125 0.74205 0.13382 0.0
C345 C 0.05904 0.73531 0.1007 0.0
C346 C 0.09984 0.7737 0.1512 0.0
C347 C 0.09691 0.7995 0.13586 0.0
C348 C 0.05664 0.76143 0.0847 0.0
C349 C 0.07575 0.79342 0.10195 0.0
C350 C 0.11702 0.83273 0.15505 0.0
C351 C 0.03485 0.77333 0.23009 0.0
C352 C 0.04511 0.7646 0.26563 0.0
C353 C 0.05689 0.79935 0.2082 0.0
C354 C 0.08946 0.81665 0.22155 0.0
C355 C 0.07721 0.78297 0.28025 0.0
C356 C 0.0992 0.80909 0.25856 0.0
C357 C 0.1141 0.84058 0.19581 0.0
C358 C 0.20159 0.95185 0.28361 0.0
C359 C 0.2313 0.95337 0.28964 0.0
C360 C 0.18115 0.93436 0.24966 0.0
C361 C 0.18983 0.91783 0.2211 0.0
C362 C 0.24133 0.93953 0.25905 0.0
C363 C 0.22063 0.92158 0.22531 0.0
C364 C 0.16409 0.8907 0.19481 0.0
C365 C 0.23095 0.90065 0.08008 0.0
C366 C 0.24542 0.93464 0.07688 0.0
C367 C 0.20642 0.88451 0.10635 0.0
C368 C 0.19558 0.90183 0.13013 0.0
C369 C 0.23541 0.95235 0.10163 0.0
C370 C 0.21049 0.93601 0.12795 0.0
C371 C 0.16698 0.88281 0.1538 0.0
H372 H 0.08383 0.72271 0.14719 0.0
H373 H 0.11646 0.77804 0.17695 0.0
H374 H 0.03979 0.75712 0.05929 0.0
H375 H 0.07353 0.81324 0.08944 0.0
H376 H 0.01016 0.75898 0.21815 0.0
H377 H 0.04879 0.80508 0.18005 0.0
H378 H 0.08555 0.7761 0.30728 0.0
H379 H 0.12421 0.82207 0.2694 0.0
H380 H 0.19328 0.96252 0.30636 0.0
H381 H 0.15746 0.93164 0.24735 0.0
H382 H 0.26406 0.94018 0.26281 0.0
H383 H 0.22772 0.90836 0.20465 0.0
H384 H 0.23829 0.88629 0.06188 0.0
H385 H 0.19552 0.85817 0.1076 0.0
H386 H 0.24614 0.97861 0.09979 0.0
H387 H 0.20224 0.94988 0.14546 0.0
N388 N 0.14317 0.85415 0.13569 0.0
N389 N 0.13766 0.86918 0.21394 0.0
C390 C 0.31417 0.06276 0.77539 0.0
C391 C 0.29267 0.05074 0.74078 0.0
C392 C 0.31027 0.08087 0.80693 0.0
C393 C 0.28431 0.08666 0.8051 0.0
C394 C 0.26604 0.05545 0.73977 0.0
C395 C 0.26198 0.07325 0.77149 0.0
C396 C 0.2831 0.1108 0.83408 0.0
C397 C 0.28187 0.03353 0.91344 0.0
C398 C 0.31204 0.04564 0.93403 0.0
C399 C 0.27387 0.05505 0.89497 0.0
C400 C 0.29576 0.08883 0.89771 0.0
C401 C 0.33328 0.0795 0.93803 0.0
C402 C 0.32498 0.10097 0.92057 0.0
C403 C 0.2891 0.11213 0.87681 0.0
C404 C 0.28857 0.23583 0.93267 0.0
C405 C 0.31936 0.25249 0.95238 0.0
C406 C 0.2777 0.20552 0.91177 0.0
C407 C 0.29739 0.19146 0.91094 0.0
C408 C 0.33786 0.23715 0.95408 0.0
C409 C 0.32675 0.20665 0.93403 0.0
C410 C 0.2895 0.16272 0.88356 0.0
C411 C 0.31622 0.24784 0.80578 0.0
C412 C 0.29289 0.24378 0.77563 0.0
C413 C 0.31324 0.22123 0.82658 0.0
C414 C 0.28616 0.19 0.81915 0.0
C415 C 0.26614 0.21233 0.76722 0.0
C416 C 0.26286 0.18564 0.78877 0.0
C417 C 0.28362 0.16169 0.84082 0.0
H418 H 0.33518 0.06002 0.77699 0.0
H419 H 0.32875 0.092 0.83138 0.0
H420 H 0.24896 0.04654 0.71363 0.0
H421 H 0.24199 0.07766 0.76898 0.0
H422 H 0.26537 0.00739 0.90947 0.0
H423 H 0.25104 0.04536 0.87786 0.0
H424 H 0.35676 0.08926 0.95346 0.0
H425 H 0.34207 0.12703 0.92321 0.0
H426 H 0.27407 0.24743 0.93053 0.0
H427 H 0.25478 0.19393 0.89454 0.0
H428 H 0.36174 0.24965 0.9689 0.0
H429 H 0.34222 0.19612 0.934 0.0
H430 H 0.33699 0.27159 0.81349 0.0
H431 H 0.33244 0.22515 0.84828 0.0
H432 H 0.24776 0.20835 0.74412 0.0
H433 H 0.2421 0.16163 0.78181 0.0
N434 N 0.28028 0.13557 0.8179 0.0
N435 N 0.29219 0.13803 0.89968 0.0
C436 C 0.93567 0.21862 0.94291 0.0
C437 C 0.92439 0.23731 0.96282 0.0
C438 C 0.914 0.18875 0.9221 0.0
C439 C 0.88084 0.17718 0.92132 0.0
C440 C 0.8912 0.22429 0.96489 0.0
C441 C 0.86962 0.19429 0.94481 0.0
C442 C 0.85772 0.14943 0.89327 0.0
C443 C 0.91435 0.23208 0.81401 0.0
C444 C 0.93171 0.22643 0.78456 0.0
C445 C 0.89211 0.20652 0.83589 0.0
C446 C 0.8874 0.17484 0.82993 0.0
C447 C 0.92664 0.19458 0.77792 0.0
C448 C 0.90448 0.16891 0.80035 0.0
C449 C 0.86189 0.14752 0.85107 0.0
C450 C 0.73375 0.05822 0.77339 0.0
C451 C 0.74315 0.04487 0.74148 0.0
C452 C 0.75449 0.07417 0.80787 0.0
C453 C 0.78472 0.07646 0.81148 0.0
C454 C 0.77262 0.04563 0.7463 0.0
C455 C 0.79314 0.06127 0.78083 0.0
C456 C 0.80996 0.09961 0.84204 0.0
C457 C 0.73223 0.02894 0.92242 0.0
C458 C 0.72156 0.04459 0.94962 0.0
C459 C 0.75887 0.04746 0.89952 0.0
C460 C 0.7749 0.08182 0.90333 0.0
C461 C 0.73709 0.07893 0.95217 0.0
C462 C 0.76346 0.09729 0.92935 0.0
C463 C 0.80527 0.10241 0.8839 0.0
H464 H 0.96117 0.22839 0.94038 0.0
H465 H 0.92319 0.17568 0.90471 0.0
H466 H 0.88197 0.23841 0.97976 0.0
H467 H 0.84418 0.1858 0.94495 0.0
H468 H 0.91772 0.25626 0.82023 0.0
H469 H 0.87814 0.21154 0.85698 0.0
H470 H 0.93967 0.18949 0.75541 0.0
H471 H 0.90057 0.14444 0.79451 0.0
H472 H 0.71132 0.05825 0.77057 0.0
H473 H 0.7477 0.08655 0.83023 0.0
H474 H 0.78054 0.0354 0.7225 0.0
H475 H 0.8164 0.06295 0.78264 0.0
H476 H 0.72072 0.00247 0.91986 0.0
H477 H 0.76758 0.03501 0.8801 0.0
H478 H 0.72934 0.09177 0.9725 0.0
H479 H 0.7754 0.12378 0.93267 0.0
N480 N 0.82944 0.127 0.90775 0.0
N481 N 0.83817 0.12239 0.82743 0.0
C482 C 0.74819 0.7169 0.93473 0.0
C483 C 0.73784 0.69072 0.96081 0.0
C484 C 0.77395 0.72461 0.91001 0.0
C485 C 0.78941 0.70605 0.91099 0.0
C486 C 0.75287 0.67178 0.96058 0.0
C487 C 0.77831 0.6794 0.93607 0.0
C488 C 0.81864 0.71496 0.88901 0.0
C489 C 0.7441 0.68215 0.78247 0.0
C490 C 0.75276 0.70324 0.74996 0.0
C491 C 0.76545 0.68944 0.8164 0.0
C492 C 0.79556 0.71831 0.81887 0.0
C493 C 0.78187 0.73317 0.75391 0.0
C494 C 0.80301 0.74057 0.78797 0.0
C495 C 0.82183 0.72175 0.8472 0.0
C496 C 0.91929 0.68783 0.80676 0.0
C497 C 0.93835 0.71113 0.77931 0.0
C498 C 0.8979 0.6922 0.82936 0.0
C499 C 0.89599 0.72072 0.82664 0.0
C500 C 0.93559 0.73921 0.77515 0.0
C501 C 0.91439 0.74394 0.7987 0.0
C502 C 0.87263 0.7243 0.85068 0.0
C503 C 0.9472 0.72658 0.93932 0.0
C504 C 0.93539 0.69754 0.96038 0.0
C505 C 0.92606 0.73383 0.91771 0.0
C506 C 0.89273 0.71236 0.91721 0.0
C507 C 0.90203 0.67629 0.95993 0.0
C508 C 0.88098 0.6838 0.939 0.0
C509 C 0.86977 0.71823 0.8926 0.0
H510 H 0.73702 0.7319 0.93424 0.0
H511 H 0.78239 0.74557 0.89125 0.0
H512 H 0.74534 0.65121 0.97986 0.0
H513 H 0.78967 0.66456 0.93718 0.0
H514 H 0.72191 0.65884 0.78036 0.0
H515 H 0.75937 0.6712 0.83891 0.0
H516 H 0.78917 0.75012 0.72964 0.0
H517 H 0.82619 0.76282 0.78889 0.0
H518 H 0.92089 0.66612 0.81134 0.0
H519 H 0.88277 0.67308 0.84906 0.0
H520 H 0.94999 0.7576 0.75422 0.0
H521 H 0.91254 0.76571 0.7954 0.0
H522 H 0.97275 0.74356 0.93929 0.0
H523 H 0.9357 0.75611 0.9013 0.0
H524 H 0.89204 0.65392 0.97617 0.0
H525 H 0.85542 0.66677 0.93894 0.0
N526 N 0.84284 0.71369 0.90994 0.0
N527 N 0.84886 0.72625 0.82987 0.0
C528 C 0.71758 0.59997 0.43408 0.0
C529 C 0.72754 0.62866 0.41281 0.0
C530 C 0.74006 0.59518 0.45666 0.0
C531 C 0.7729 0.61882 0.45786 0.0
C532 C 0.76044 0.65204 0.41388 0.0
C533 C 0.78283 0.64699 0.43573 0.0
C534 C 0.79711 0.6155 0.4834 0.0
C535 C 0.74349 0.64088 0.56879 0.0
C536 C 0.72673 0.61823 0.59809 0.0
C537 C 0.7649 0.63736 0.54522 0.0
C538 C 0.76909 0.61022 0.54874 0.0
C539 C 0.73146 0.59139 0.6027 0.0
C540 C 0.75268 0.58748 0.57816 0.0
C541 C 0.79366 0.60849 0.5251 0.0
C542 C 0.92252 0.65241 0.59765 0.0
C543 C 0.91368 0.62931 0.6278 0.0
C544 C 0.90164 0.64683 0.56378 0.0
C545 C 0.87191 0.61759 0.55871 0.0
C546 C 0.88489 0.59928 0.62147 0.0
C547 C 0.86429 0.59349 0.58726 0.0
C548 C 0.84603 0.61484 0.53015 0.0
C549 C 0.91676 0.62789 0.42827 0.0
C550 C 0.93332 0.66134 0.42006 0.0
C551 C 0.89064 0.61557 0.45317 0.0
C552 C 0.88062 0.63651 0.46944 0.0
C553 C 0.92399 0.68237 0.43804 0.0
C554 C 0.89749 0.66992 0.46188 0.0
C555 C 0.85006 0.62354 0.48909 0.0
H556 H 0.69245 0.58142 0.43365 0.0
H557 H 0.73182 0.57312 0.47327 0.0
H558 H 0.76903 0.67424 0.39749 0.0
H559 H 0.80796 0.66565 0.43626 0.0
H560 H 0.74025 0.66158 0.56375 0.0
H561 H 0.77859 0.65636 0.52461 0.0
H562 H 0.7188 0.57351 0.625 0.0
H563 H 0.75636 0.56687 0.5822 0.0
H564 H 0.94437 0.67594 0.60181 0.0
H565 H 0.90775 0.66663 0.54375 0.0
H566 H 0.87745 0.58089 0.64402 0.0
H567 H 0.84138 0.57091 0.58443 0.0
H568 H 0.92355 0.6112 0.41475 0.0
H569 H 0.87744 0.5896 0.45818 0.0
H570 H 0.93615 0.70817 0.43205 0.0
H571 H 0.88965 0.68626 0.47378 0.0
N572 N 0.8254 0.6232 0.46726 0.0
N573 N 0.8179 0.60774 0.54648 0.0
C574 C 0.32581 0.2554 0.43645 0.0
C575 C 0.34633 0.2894 0.44025 0.0
C576 C 0.33469 0.23464 0.45468 0.0
C577 C 0.3638 0.2476 0.47801 0.0
C578 C 0.37653 0.30237 0.46104 0.0
C579 C 0.38515 0.28153 0.48018 0.0
C580 C 0.3705 0.22504 0.50078 0.0
C581 C 0.39468 0.28631 0.63464 0.0
C582 C 0.36715 0.28949 0.63408 0.0
C583 C 0.39896 0.26839 0.60336 0.0
C584 C 0.37601 0.25342 0.57064 0.0
C585 C 0.34516 0.27625 0.60001 0.0
C586 C 0.34936 0.25809 0.56884 0.0
C587 C 0.37691 0.2282 0.54358 0.0
C588 C 0.38742 0.10626 0.57098 0.0
C589 C 0.37068 0.09696 0.60674 0.0
C590 C 0.38985 0.13282 0.55021 0.0
C591 C 0.37521 0.15021 0.56467 0.0
C592 C 0.35699 0.11487 0.62209 0.0
C593 C 0.35943 0.14146 0.60136 0.0
C594 C 0.37524 0.1767 0.54124 0.0
C595 C 0.30711 0.08637 0.4652 0.0
C596 C 0.32213 0.07964 0.43335 0.0
C597 C 0.3223 0.11662 0.48657 0.0
C598 C 0.35265 0.14106 0.47634 0.0
C599 C 0.35223 0.10463 0.42222 0.0
C600 C 0.36722 0.13539 0.44331 0.0
C601 C 0.36731 0.17305 0.49884 0.0
H602 H 0.30231 0.245 0.42087 0.0
H603 H 0.31795 0.20849 0.45249 0.0
H604 H 0.39246 0.32862 0.46482 0.0
H605 H 0.4079 0.29189 0.49764 0.0
H606 H 0.41221 0.29631 0.66028 0.0
H607 H 0.41949 0.26485 0.60577 0.0
H608 H 0.32357 0.27797 0.59873 0.0
H609 H 0.33057 0.24588 0.5449 0.0
H610 H 0.39804 0.09256 0.55868 0.0
H611 H 0.40279 0.13948 0.52256 0.0
H612 H 0.34376 0.10779 0.64952 0.0
H613 H 0.34798 0.15446 0.61323 0.0
H614 H 0.28397 0.06788 0.47481 0.0
H615 H 0.31036 0.12095 0.51132 0.0
H616 H 0.36445 0.10023 0.39793 0.0
H617 H 0.39042 0.15441 0.43455 0.0
N618 N 0.36555 0.19739 0.48027 0.0
N619 N 0.37954 0.20408 0.56197 0.0
C620 C 0.76257 0.09703 0.41163 0.0
C621 C 0.72913 0.08245 0.41231 0.0
C622 C 0.78261 0.12742 0.43182 0.0
C623 C 0.76962 0.14343 0.4541 0.0
C624 C 0.71602 0.09984 0.43123 0.0
C625 C 0.73617 0.13012 0.45223 0.0
C626 C 0.79146 0.17211 0.48181 0.0
C627 C 0.72146 0.12564 0.59544 0.0
C628 C 0.71783 0.0943 0.58956 0.0
C629 C 0.7435 0.1517 0.57339 0.0
C630 C 0.7619 0.14662 0.54501 0.0
C631 C 0.7366 0.08959 0.56142 0.0
C632 C 0.75875 0.11553 0.54003 0.0
C633 C 0.78697 0.17424 0.52388 0.0
C634 C 0.8763 0.27583 0.62938 0.0
C635 C 0.90588 0.27674 0.63341 0.0
C636 C 0.85557 0.26048 0.59489 0.0
C637 C 0.86388 0.24576 0.56353 0.0
C638 C 0.91511 0.26384 0.60085 0.0
C639 C 0.89419 0.24817 0.56649 0.0
C640 C 0.83852 0.22273 0.53296 0.0
C641 C 0.91155 0.23989 0.42512 0.0
C642 C 0.92555 0.27389 0.42241 0.0
C643 C 0.886 0.22303 0.44957 0.0
C644 C 0.87386 0.23969 0.47203 0.0
C645 C 0.91468 0.29102 0.44673 0.0
C646 C 0.88879 0.27393 0.47142 0.0
C647 C 0.84333 0.21986 0.4912 0.0
H648 H 0.77321 0.08398 0.3975 0.0
H649 H 0.80831 0.13722 0.43258 0.0
H650 H 0.69028 0.08887 0.43266 0.0
H651 H 0.72562 0.14226 0.46871 0.0
H652 H 0.70732 0.13002 0.61695 0.0
H653 H 0.74622 0.17576 0.57848 0.0
H654 H 0.73436 0.06584 0.55577 0.0
H655 H 0.77377 0.11126 0.51994 0.0
H656 H 0.86847 0.28569 0.65371 0.0
H657 H 0.83223 0.25866 0.59366 0.0
H658 H 0.93761 0.2639 0.60303 0.0
H659 H 0.90092 0.23599 0.5438 0.0
H660 H 0.91969 0.22602 0.40737 0.0
H661 H 0.87493 0.19661 0.44989 0.0
H662 H 0.92519 0.31729 0.44532 0.0
H663 H 0.87954 0.28714 0.48835 0.0
N664 N 0.81953 0.19492 0.46743 0.0
N665 N 0.81035 0.19974 0.5475 0.0
C666 C 0.92783 0.54875 0.13129 0.0
C667 C 0.94344 0.5577 0.09471 0.0
C668 C 0.92795 0.52385 0.15319 0.0
C669 C 0.94413 0.50801 0.13901 0.0
C670 C 0.95802 0.5407 0.07926 0.0
C671 C 0.9581 0.51575 0.10111 0.0
C672 C 0.94853 0.48508 0.16462 0.0
C673 C 0.01201 0.58424 0.22535 0.0
C674 C -0.00091 0.59009 0.26022 0.0
C675 C -0.00089 0.55268 0.20779 0.0
C676 C 0.97314 0.52624 0.22478 0.0
C677 C 0.97357 0.56337 0.27788 0.0
C678 C 0.96094 0.53157 0.26051 0.0
C679 C 0.96012 0.49302 0.20587 0.0
C680 C 0.00697 0.4161 0.27493 0.0
C681 C 0.98612 0.38218 0.27509 0.0
C682 C -0.00265 0.43577 0.25523 0.0
C683 C 0.96713 0.42164 0.23437 0.0
C684 C 0.95491 0.36837 0.25705 0.0
C685 C 0.94554 0.388 0.23642 0.0
C686 C 0.95927 0.44234 0.20943 0.0
C687 C 0.93036 0.37266 0.08131 0.0
C688 C 0.95861 0.37083 0.08112 0.0
C689 C 0.92641 0.3915 0.11165 0.0
C690 C 0.9505 0.40885 0.1426 0.0
C691 C 0.98167 0.38618 0.11381 0.0
C692 C 0.97783 0.40531 0.14399 0.0
C693 C 0.94991 0.43535 0.16734 0.0
H694 H 0.91688 0.56203 0.14386 0.0
H695 H 0.91648 0.51786 0.18195 0.0
H696 H 0.97069 0.54781 0.05139 0.0
H697 H 0.97068 0.50383 0.08955 0.0
H698 H 0.03154 0.60417 0.21076 0.0
H699 H 0.00933 0.54889 0.18073 0.0
H700 H 0.96311 0.56707 0.30473 0.0
H701 H 0.94122 0.51127 0.27436 0.0
H702 H 0.0312 0.42715 0.28844 0.0
H703 H 0.01424 0.46176 0.25419 0.0
H704 H 0.93863 0.34216 0.25638 0.0
H705 H 0.92194 0.37683 0.22096 0.0
H706 H 0.912 0.36097 0.05673 0.0
H707 H 0.90528 0.39404 0.1096 0.0
H708 H 0.00382 0.38553 0.11443 0.0
H709 H -0.00258 0.41927 0.16648 0.0
N710 N 0.94434 0.4568 0.14679 0.0
N711 N 0.96455 0.47116 0.22689 0.0
C712 C 0.44573 0.37871 0.08643 0.0
C713 C 0.41741 0.38013 0.08119 0.0
C714 C 0.46705 0.39481 0.12017 0.0
C715 C 0.46062 0.41277 0.1494 0.0
C716 C 0.40958 0.39566 0.11224 0.0
C717 C 0.43116 0.41215 0.14583 0.0
C718 C 0.4876 0.43787 0.17641 0.0
C719 C 0.4216 0.43026 0.29085 0.0
C720 C 0.40565 0.39609 0.29319 0.0
C721 C 0.44654 0.44583 0.265 0.0
C722 C 0.45619 0.4277 0.24075 0.0
C723 C 0.41448 0.37766 0.26789 0.0
C724 C 0.43973 0.3934 0.24193 0.0
C725 C 0.48521 0.44574 0.21758 0.0
C726 C 0.57804 0.58447 0.23871 0.0
C727 C 0.59916 0.58992 0.27267 0.0
C728 C 0.55825 0.55308 0.22117 0.0
C729 C 0.55884 0.5262 0.23713 0.0
C730 C 0.59943 0.56281 0.28912 0.0
C731 C 0.57907 0.53105 0.2717 0.0
C732 C 0.53728 0.49327 0.21775 0.0
C733 C 0.62252 0.54775 0.14634 0.0
C734 C 0.61461 0.55795 0.11026 0.0
C735 C 0.59854 0.52248 0.16716 0.0
C736 C 0.56638 0.50756 0.15228 0.0
C737 C 0.58289 0.54173 0.09399 0.0
C738 C 0.55893 0.51644 0.1147 0.0
C739 C 0.54002 0.485 0.17706 0.0
H740 H 0.45233 0.36667 0.06331 0.0
H741 H 0.48968 0.39512 0.12195 0.0
H742 H 0.38798 0.39728 0.10908 0.0
H743 H 0.42588 0.42657 0.16704 0.0
H744 H 0.41521 0.44519 0.30955 0.0
H745 H 0.45872 0.47231 0.26448 0.0
H746 H 0.4026 0.35126 0.26907 0.0
H747 H 0.44705 0.37892 0.22398 0.0
H748 H 0.57713 0.60459 0.22489 0.0
H749 H 0.54246 0.54977 0.19488 0.0
H750 H 0.6154 0.56613 0.31517 0.0
H751 H 0.57953 0.51043 0.28466 0.0
H752 H 0.64693 0.56044 0.15949 0.0
H753 H 0.60488 0.51562 0.19574 0.0
H754 H 0.57641 0.54979 0.06648 0.0
H755 H 0.53428 0.50526 0.10266 0.0
N756 N 0.5151 0.45778 0.15807 0.0
N757 N 0.51016 0.47322 0.23645 0.0
C758 C 0.3941 0.02 0.26642 0.0
C759 C 0.37394 0.98775 0.27774 0.0
C760 C 0.41905 0.02692 0.24081 0.0
C761 C 0.42433 0.00176 0.22692 0.0
C762 C 0.37831 0.96243 0.26183 0.0
C763 C 0.40369 0.9695 0.23725 0.0
C764 C 0.45428 0.00946 0.20823 0.0
C765 C 0.38632 0.98729 0.09711 0.0
C766 C 0.39804 0.00957 0.06597 0.0
C767 C 0.40582 0.99138 0.13197 0.0
C768 C 0.43719 0.01835 0.13702 0.0
C769 C 0.4287 0.03744 0.07203 0.0
C770 C 0.44799 0.04179 0.10718 0.0
C771 C 0.46089 0.01885 0.16772 0.0
C772 C 0.56907 -0.00294 0.13749 0.0
C773 C 0.58729 0.02262 0.11205 0.0
C774 C 0.54453 -0.00324 0.15854 0.0
C775 C 0.53865 0.02289 0.15644 0.0
C776 C 0.5809 0.04845 0.10892 0.0
C777 C 0.55666 0.04855 0.13102 0.0
C778 C 0.51159 0.02161 0.17737 0.0
C779 C 0.57867 0.01831 0.27448 0.0
C780 C 0.56447 0.99039 0.29774 0.0
C781 C 0.55959 0.02611 0.24917 0.0
C782 C 0.52601 0.00566 0.24585 0.0
C783 C 0.53089 0.97056 0.29515 0.0
C784 C 0.51197 0.97807 0.26956 0.0
C785 C 0.5049 0.01217 0.21803 0.0
H786 H 0.3911 0.03991 0.27822 0.0
H787 H 0.43523 0.05206 0.2337 0.0
H788 H 0.36322 0.93739 0.27017 0.0
H789 H 0.40788 0.94993 0.22727 0.0
H790 H 0.36293 0.96538 0.09328 0.0
H791 H 0.39708 0.97198 0.15307 0.0
H792 H 0.43841 0.05519 0.04877 0.0
H793 H 0.47214 0.06264 0.10995 0.0
H794 H 0.57356 0.97703 0.14133 0.0
H795 H 0.53 0.97586 0.17626 0.0
H796 H 0.59459 0.0685 0.0896 0.0
H797 H 0.55189 0.06857 0.12821 0.0
H798 H 0.60444 0.03436 0.27625 0.0
H799 H 0.57112 0.04807 0.2322 0.0
H800 H 0.51911 0.94893 0.31269 0.0
H801 H 0.4862 0.96188 0.26784 0.0
N802 N 0.47642 0.00651 0.23165 0.0
N803 N 0.4895 0.02478 0.15414 0.0
C804 C 0.57244 0.99402 0.74831 0.0
C805 C 0.58733 0.97495 0.74922 0.0
C806 C 0.54651 0.98658 0.77199 0.0
C807 C 0.53486 0.96 0.7973 0.0
C808 C 0.57617 0.94869 0.77523 0.0
C809 C 0.54997 0.94113 0.79893 0.0
C810 C 0.5055 0.95127 0.81897 0.0
C811 C 0.53984 0.92414 0.94911 0.0
C812 C 0.56945 0.95333 0.95553 0.0
C813 C 0.51895 0.91998 0.91597 0.0
C814 C 0.52722 0.94477 0.88834 0.0
C815 C 0.57878 0.97712 0.92612 0.0
C816 C 0.55772 0.973 0.89299 0.0
C817 C 0.50176 0.94342 0.86035 0.0
C818 C 0.36482 0.91135 0.88414 0.0
C819 C 0.37085 0.92945 0.92126 0.0
C820 C 0.3903 0.9131 0.86311 0.0
C821 C 0.42203 0.93341 0.87883 0.0
C822 C 0.4023 0.9483 0.93799 0.0
C823 C 0.4277 0.95004 0.9171 0.0
C824 C 0.44974 0.93816 0.85602 0.0
C825 C 0.40188 0.98042 0.77435 0.0
C826 C 0.39289 0.96559 0.73463 0.0
C827 C 0.42052 0.97326 0.80129 0.0
C828 C 0.43032 0.95096 0.7891 0.0
C829 C 0.40207 0.94266 0.72303 0.0
C830 C 0.42075 0.93565 0.74984 0.0
C831 C 0.45357 0.94632 0.81474 0.0
H832 H 0.58051 0.01454 0.72883 0.0
H833 H 0.53528 0.00151 0.77018 0.0
H834 H 0.58707 0.93346 0.77645 0.0
H835 H 0.54101 0.92004 0.81751 0.0
H836 H 0.53197 0.90518 0.97093 0.0
H837 H 0.4955 0.89807 0.91316 0.0
H838 H 0.60137 -5e-05 0.93018 0.0
H839 H 0.56445 0.9929 0.87279 0.0
H840 H 0.34061 0.89713 0.87056 0.0
H841 H 0.3853 0.89939 0.83416 0.0
H842 H 0.40733 0.96287 0.96628 0.0
H843 H 0.45196 0.96564 0.92998 0.0
H844 H 0.3953 -0.00174 0.78424 0.0
H845 H 0.42825 0.98604 0.83106 0.0
H846 H 0.39561 0.93074 0.69274 0.0
H847 H 0.42828 0.91864 0.73958 0.0
N848 N 0.4812 0.95228 0.79793 0.0
N849 N 0.47398 0.93712 0.87702 0.0
C850 C 0.98921 0.57087 0.76034 0.0
C851 C 0.00793 0.60506 0.76391 0.0
C852 C -0.00163 0.55177 0.78209 0.0
C853 C 0.02602 0.56651 0.80855 0.0
C854 C 0.03671 0.61995 0.78838 0.0
C855 C 0.04567 0.60071 0.81086 0.0
C856 C 0.03379 0.54506 0.83209 0.0
C857 C 0.05293 0.60391 0.96714 0.0
C858 C 0.02558 0.6074 0.96489 0.0
C859 C 0.05819 0.58627 0.9364 0.0
C860 C 0.03641 0.5718 0.90242 0.0
C861 C 0.00471 0.59457 0.92972 0.0
C862 C 0.00988 0.57667 0.89902 0.0
C863 C 0.03878 0.54741 0.87512 0.0
C864 C 0.05769 0.44775 0.94716 0.0
C865 C 0.03115 0.41609 0.93906 0.0
C866 C 0.06059 0.47418 0.92529 0.0
C867 C 0.03711 0.46932 0.89491 0.0
C868 C 0.00754 0.41162 0.90909 0.0
C869 C 0.01014 0.43796 0.88798 0.0
C870 C 0.03967 0.49704 0.87181 0.0
C871 C 0.9873 0.42016 0.75875 0.0
C872 C 0.00552 0.40462 0.76181 0.0
C873 C -0.00182 0.45067 0.77856 0.0
C874 C 0.02704 0.46573 0.80275 0.0
C875 C 0.0358 0.42096 0.78292 0.0
C876 C 0.04645 0.45134 0.80356 0.0
C877 C 0.03476 0.49506 0.82883 0.0
H878 H 0.96668 0.559 0.74219 0.0
H879 H 0.98303 0.52536 0.77957 0.0
H880 H 0.05108 0.64639 0.79222 0.0
H881 H 0.06741 0.61245 0.83054 0.0
H882 H 0.0696 0.6135 0.99369 0.0
H883 H 0.07864 0.5827 0.94011 0.0
H884 H 0.98319 0.59638 0.92719 0.0
H885 H 0.99193 0.56489 0.87406 0.0
H886 H 0.07627 0.45207 0.97014 0.0
H887 H 0.08129 0.49831 0.9318 0.0
H888 H 0.98692 0.38772 0.9016 0.0
H889 H 0.99091 0.43367 0.86611 0.0
H890 H 0.96378 0.40785 0.74293 0.0
H891 H 0.98291 0.46144 0.77731 0.0
H892 H 0.05 0.40912 0.78616 0.0
H893 H 0.06899 0.46281 0.82164 0.0
N894 N 0.03201 0.51908 0.81098 0.0
N895 N 0.04189 0.52336 0.89317 0.0
C896 C 0.59085 0.62971 0.79059 0.0
C897 C 0.60144 0.61321 0.76463 0.0
C898 C 0.56482 0.61196 0.81484 0.0
C899 C 0.54938 0.57762 0.81344 0.0
C900 C 0.58675 0.57899 0.765 0.0
C901 C 0.56102 0.56145 0.78903 0.0
C902 C 0.51903 0.55743 0.83298 0.0
C903 C 0.59152 0.60127 0.94218 0.0
C904 C 0.58187 0.61262 0.97587 0.0
C905 C 0.57055 0.58601 0.90774 0.0
C906 C 0.53983 0.58262 0.9058 0.0
C907 C 0.55183 0.61073 0.97302 0.0
C908 C 0.53113 0.59598 0.93837 0.0
C909 C 0.51449 0.55982 0.87501 0.0
C910 C 0.41112 0.42649 0.9015 0.0
C911 C 0.39297 0.43136 0.93046 0.0
C912 C 0.43341 0.45254 0.88027 0.0
C913 C 0.43742 0.48393 0.8865 0.0
C914 C 0.3974 0.46294 0.93743 0.0
C915 C 0.41963 0.4891 0.91571 0.0
C916 C 0.46268 0.51169 0.8657 0.0
C917 C 0.38927 0.44083 0.77329 0.0
C918 C 0.40085 0.42239 0.75345 0.0
C919 C 0.41068 0.47067 0.79431 0.0
C920 C 0.44388 0.48249 0.79528 0.0
C921 C 0.43408 0.43559 0.75168 0.0
C922 C 0.45541 0.46561 0.77191 0.0
C923 C 0.46673 0.51025 0.82344 0.0
H924 H 0.60181 0.65612 0.79101 0.0
H925 H 0.55597 0.62485 0.83321 0.0
H926 H 0.59455 0.56553 0.74584 0.0
H927 H 0.54954 0.53495 0.78768 0.0
H928 H 0.61437 0.60205 0.94353 0.0
H929 H 0.57765 0.57484 0.88415 0.0
H930 H 0.54371 0.61937 0.99833 0.0
H931 H 0.5075 0.59342 0.93796 0.0
H932 H 0.4083 0.40254 0.89515 0.0
H933 H 0.44791 0.44814 0.8594 0.0
H934 H 0.38376 0.46745 0.9596 0.0
H935 H 0.42297 0.51334 0.92172 0.0
H936 H 0.36372 0.43089 0.77557 0.0
H937 H 0.40128 0.48355 0.81166 0.0
H938 H 0.44352 0.42164 0.73688 0.0
H939 H 0.4809 0.47429 0.77198 0.0
N940 N 0.49485 0.53297 0.80901 0.0
N941 N 0.48637 0.53671 0.88953 0.0
C942 C 0.65469 0.72825 0.44686 0.0
C943 C 0.63345 0.71471 0.4121 0.0
C944 C 0.64905 0.74562 0.47782 0.0
C945 C 0.62174 0.74919 0.47498 0.0
C946 C 0.60523 0.71664 0.41065 0.0
C947 C 0.59953 0.73372 0.44161 0.0
C948 C 0.61906 0.77366 0.50161 0.0
C949 C 0.6248 0.70427 0.59045 0.0
C950 C 0.65379 0.72041 0.61445 0.0
C951 C 0.61467 0.72235 0.56745 0.0
C952 C 0.63337 0.75663 0.56878 0.0
C953 C 0.67155 0.75466 0.61706 0.0
C954 C 0.66123 0.77261 0.5948 0.0
C955 C 0.62443 0.77691 0.5446 0.0
C956 C 0.6183 0.89939 0.58972 0.0
C957 C 0.64823 0.91652 0.61155 0.0
C958 C 0.60874 0.86912 0.56947 0.0
C959 C 0.62889 0.8556 0.57144 0.0
C960 C 0.66726 0.90191 0.6156 0.0
C961 C 0.65744 0.87149 0.5962 0.0
C962 C 0.62208 0.82618 0.54623 0.0
C963 C 0.64986 0.90787 0.46274 0.0
C964 C 0.62618 0.90295 0.43262 0.0
C965 C 0.64692 0.88202 0.48524 0.0
C966 C 0.61973 0.85072 0.47921 0.0
C967 C 0.59938 0.87134 0.42554 0.0
C968 C 0.59627 0.84538 0.44857 0.0
C969 C 0.61716 0.82345 0.50324 0.0
H970 H 0.67682 0.72758 0.44875 0.0
H971 H 0.66724 0.75814 0.50236 0.0
H972 H 0.58825 0.70639 0.38445 0.0
H973 H 0.57846 0.7363 0.43839 0.0
H974 H 0.61117 0.67776 0.58734 0.0
H975 H 0.59279 0.70966 0.54811 0.0
H976 H 0.69424 0.76748 0.63482 0.0
H977 H 0.67586 0.7991 0.59655 0.0
H978 H 0.6035 0.91052 0.5857 0.0
H979 H 0.58642 0.85699 0.55095 0.0
H980 H 0.69054 0.91486 0.63197 0.0
H981 H 0.67327 0.86141 0.59832 0.0
H982 H 0.67073 0.93178 0.46934 0.0
H983 H 0.6661 0.88658 0.50738 0.0
H984 H 0.58074 0.86672 0.40251 0.0
H985 H 0.57542 0.82124 0.44278 0.0
N986 N 0.61536 0.79705 0.48274 0.0
N987 N 0.62558 0.8029 0.56492 0.0
C988 C 0.11492 0.71923 0.40629 0.0
C989 C 0.08402 0.71519 0.40265 0.0
C990 C 0.13498 0.73509 0.44116 0.0
C991 C 0.12478 0.74754 0.47311 0.0
C992 C 0.07288 0.72541 0.43588 0.0
C993 C 0.09319 0.74182 0.47051 0.0
C994 C 0.14933 0.77233 0.50313 0.0
C995 C 0.0774 0.75067 0.61485 0.0
C996 C 0.06482 0.71674 0.61602 0.0
C997 C 0.1022 0.76913 0.58992 0.0
C998 C 0.1151 0.75423 0.56547 0.0
C999 C 0.07662 0.70139 0.59009 0.0
C1000 C 0.10178 0.7201 0.56502 0.0
C1001 C 0.14462 0.77576 0.54493 0.0
C1002 C 0.22419 0.90415 0.61637 0.0
C1003 C 0.25758 0.91767 0.61704 0.0
C1004 C 0.20375 0.87302 0.59796 0.0
C1005 C 0.21641 0.85546 0.57847 0.0
C1006 C 0.27018 0.89891 0.60068 0.0
C1007 C 0.24974 0.86815 0.58108 0.0
C1008 C 0.19476 0.82588 0.55207 0.0
C1009 C 0.26096 0.87452 0.43578 0.0
C1010 C 0.26174 0.90459 0.44121 0.0
C1011 C 0.24102 0.84799 0.45885 0.0
C1012 C 0.22193 0.85139 0.48773 0.0
C1013 C 0.24225 0.90752 0.46983 0.0
C1014 C 0.22217 0.88112 0.49212 0.0
C1015 C 0.19887 0.82322 0.51005 0.0
H1016 H 0.12417 0.71146 0.3814 0.0
H1017 H 0.1593 0.73944 0.44206 0.0
H1018 H 0.04927 0.72291 0.43395 0.0
H1019 H 0.08484 0.75214 0.49359 0.0
H1020 H 0.06858 0.76323 0.6339 0.0
H1021 H 0.11196 0.79542 0.59058 0.0
H1022 H 0.06726 0.67522 0.59029 0.0
H1023 H 0.11164 0.70816 0.54672 0.0
H1024 H 0.21395 0.91826 0.62853 0.0
H1025 H 0.17812 0.86372 0.5963 0.0
H1026 H 0.29589 0.90901 0.60036 0.0
H1027 H 0.25999 0.85492 0.56644 0.0
H1028 H 0.27575 0.87155 0.41394 0.0
H1029 H 0.24045 0.82489 0.45417 0.0
H1030 H 0.24232 0.93024 0.47526 0.0
H1031 H 0.20638 0.88394 0.51237 0.0
N1032 N 0.17638 0.79637 0.48756 0.0
N1033 N 0.16769 0.80222 0.56763 0.0
C1034 C 0.28464 0.41573 0.48775 0.0
C1035 C 0.28026 0.39929 0.44973 0.0
C1036 C 0.25807 0.41157 0.50835 0.0
C1037 C 0.2269 0.39018 0.49151 0.0
C1038 C 0.24934 0.37961 0.43179 0.0
C1039 C 0.22285 0.37522 0.45242 0.0
C1040 C 0.19805 0.38298 0.51346 0.0
C1041 C 0.25091 0.3486 0.5994 0.0
C1042 C 0.25837 0.364 0.63882 0.0
C1043 C 0.23101 0.35314 0.57131 0.0
C1044 C 0.2184 0.37334 0.582 0.0
C1045 C 0.24624 0.38474 0.64898 0.0
C1046 C 0.22632 0.38913 0.62102 0.0
C1047 C 0.19415 0.37531 0.55491 0.0
C1048 C 0.07497 0.32327 0.62094 0.0
C1049 C 0.05884 0.3411 0.61887 0.0
C1050 C 0.10058 0.3307 0.59664 0.0
C1051 C 0.11066 0.35604 0.56952 0.0
C1052 C 0.0682 0.36583 0.59076 0.0
C1053 C 0.09406 0.37337 0.56638 0.0
C1054 C 0.14046 0.36583 0.54836 0.0
C1055 C 0.10531 0.38369 0.4118 0.0
C1056 C 0.07644 0.35364 0.40712 0.0
C1057 C 0.12589 0.39105 0.4464 0.0
C1058 C 0.11825 0.36851 0.47704 0.0
C1059 C 0.06753 0.33211 0.4392 0.0
C1060 C 0.08843 0.33931 0.47367 0.0
C1061 C 0.1442 0.37286 0.50671 0.0
H1062 H 0.30846 0.43056 0.50225 0.0
H1063 H 0.26188 0.42431 0.53778 0.0
H1064 H 0.24559 0.36622 0.40283 0.0
H1065 H 0.19909 0.35888 0.43854 0.0
H1066 H 0.25974 0.33239 0.59059 0.0
H1067 H 0.22463 0.34001 0.54176 0.0
H1068 H 0.25143 0.39699 0.67899 0.0
H1069 H 0.21663 0.40454 0.63015 0.0
H1070 H 0.06827 0.3039 0.64199 0.0
H1071 H 0.11299 0.31697 0.59963 0.0
H1072 H 0.05626 0.38005 0.58851 0.0
H1073 H 0.10177 0.39349 0.54633 0.0
H1074 H 0.11272 0.40094 0.38786 0.0
H1075 H 0.14879 0.41365 0.44807 0.0
H1076 H 0.04549 0.30868 0.43641 0.0
H1077 H 0.08221 0.32096 0.49607 0.0
N1078 N 0.17291 0.38129 0.49128 0.0
N1079 N 0.16562 0.36741 0.57063 0.0
loop_
_geom_bond_atom_site_label_1
_geom_bond_atom_site_label_2
_geom_bond_distance
_geom_bond_site_symmetry_2
_ccdc_geom_bond_type
Mg0 O1 2.028 1_556 S
Mg0 O7 1.986 1_455 S
Mg0 O9 2.114 . S
Mg0 O10 2.251 1_455 S
Mg0 O13 2.010 1_556 S
O1 Mg0 2.028 1_554 S
O1 C4 1.250 1_455 S
O2 Mg3 2.028 1_554 S
O2 C4 1.248 . S
Mg3 O2 2.028 1_556 S
Mg3 O8 2.032 . S
Mg3 O10 2.079 . S
C4 O1 1.250 1_655 S
C4 O2 1.248 . S
C5 O6 1.264 . S
C5 O13 1.249 . S
O6 C5 1.264 . S
O7 Mg0 1.986 1_655 S
O7 C11 1.246 . S
O8 Mg3 2.032 . S
O8 C11 1.259 . S
O9 Mg0 2.114 . S
O9 C12 1.252 . S
O10 Mg0 2.251 1_655 S
O10 Mg3 2.079 . S
O10 C12 1.273 1_655 S
C11 O7 1.246 . S
C11 O8 1.259 . S
C12 O9 1.252 . S
C12 O10 1.273 1_455 S
O13 Mg0 2.010 1_554 S
O13 C5 1.249 . S
Mg14 O15 2.028 1_554 S
Mg14 O21 1.986 . S
Mg14 O23 2.114 . S
Mg14 O24 2.251 . S
Mg14 O27 2.010 . S
O15 Mg14 2.028 1_556 S
O15 C18 1.250 . S
O16 Mg17 2.028 1_556 S
O16 C18 1.248 . S
Mg17 O16 2.028 1_554 S
Mg17 O22 2.032 . S
Mg17 O24 2.079 . S
C18 O15 1.250 . S
C18 O16 1.248 . S
C19 O20 1.264 1_556 S
C19 O27 1.249 1_556 S
O20 C19 1.264 1_554 S
O21 Mg14 1.986 . S
O21 C25 1.246 . S
O22 Mg17 2.032 . S
O22 C25 1.259 . S
O23 Mg14 2.114 . S
O23 C26 1.252 . S
O24 Mg14 2.251 . S
O24 Mg17 2.079 . S
O24 C26 1.273 . S
C25 O21 1.246 . S
C25 O22 1.259 . S
C26 O23 1.252 . S
C26 O24 1.273 . S
O27 Mg14 2.010 . S
O27 C19 1.249 1_554 S
Mg28 O29 2.028 1_566 S
Mg28 O35 1.986 1_565 S
Mg28 O37 2.114 . S
Mg28 O38 2.251 1_565 S
Mg28 O41 2.010 1_556 S
O29 Mg28 2.028 1_544 S
O29 C32 1.250 . S
O30 Mg31 2.028 1_554 S
O30 C32 1.248 . S
Mg31 O30 2.028 1_556 S
Mg31 O36 2.032 . S
Mg31 O38 2.079 . S
C32 O29 1.250 . S
C32 O30 1.248 . S
C33 O34 1.264 . S
C33 O41 1.249 . S
O34 C33 1.264 . S
O35 Mg28 1.986 1_545 S
O35 C39 1.246 . S
O36 Mg31 2.032 . S
O36 C39 1.259 . S
O37 Mg28 2.114 . S
O37 C40 1.252 . S
O38 Mg28 2.251 1_545 S
O38 Mg31 2.079 . S
O38 C40 1.273 1_545 S
C39 O35 1.246 . S
C39 O36 1.259 . S
C40 O37 1.252 . S
C40 O38 1.273 1_565 S
O41 Mg28 2.010 1_554 S
O41 C33 1.249 . S
Mg42 O43 2.028 1_654 S
Mg42 O49 1.986 1_655 S
Mg42 O51 2.114 . S
Mg42 O52 2.251 1_655 S
Mg42 O55 2.010 . S
O43 Mg42 2.028 1_456 S
O43 C46 1.250 . S
O44 Mg45 2.028 1_556 S
O44 C46 1.248 . S
Mg45 O44 2.028 1_554 S
Mg45 O50 2.032 . S
Mg45 O52 2.079 . S
C46 O43 1.250 . S
C46 O44 1.248 . S
C47 O48 1.264 1_556 S
C47 O55 1.249 1_556 S
O48 C47 1.264 1_554 S
O49 Mg42 1.986 1_455 S
O49 C53 1.246 . S
O50 Mg45 2.032 . S
O50 C53 1.259 . S
O51 Mg42 2.114 . S
O51 C54 1.252 . S
O52 Mg42 2.251 1_455 S
O52 Mg45 2.079 . S
O52 C54 1.273 1_455 S
C53 O49 1.246 . S
C53 O50 1.259 . S
C54 O51 1.252 . S
C54 O52 1.273 1_655 S
O55 Mg42 2.010 . S
O55 C47 1.249 1_554 S
Mg56 O57 2.028 1_556 S
Mg56 O63 1.986 . S
Mg56 O65 2.114 . S
Mg56 O66 2.251 . S
Mg56 O69 2.010 1_556 S
O57 Mg56 2.028 1_554 S
O57 C60 1.250 . S
O58 Mg59 2.028 1_554 S
O58 C60 1.248 . S
Mg59 O58 2.028 1_556 S
Mg59 O64 2.032 . S
Mg59 O66 2.079 . S
C60 O57 1.250 . S
C60 O58 1.248 . S
C61 O62 1.264 . S
C61 O69 1.249 . S
O62 C61 1.264 . S
O63 Mg56 1.986 . S
O63 C67 1.246 . S
O64 Mg59 2.032 . S
O64 C67 1.259 . S
O65 Mg56 2.114 . S
O65 C68 1.252 . S
O66 Mg56 2.251 . S
O66 Mg59 2.079 . S
O66 C68 1.273 . S
C67 O63 1.246 . S
C67 O64 1.259 . S
C68 O65 1.252 . S
C68 O66 1.273 . S
O69 Mg56 2.010 1_554 S
O69 C61 1.249 . S
Mg70 O71 2.029 1_554 S
Mg70 O77 1.986 1_545 S
Mg70 O79 2.114 . S
Mg70 O80 2.251 1_545 S
Mg70 O83 2.010 . S
O71 Mg70 2.029 1_556 S
O71 C74 1.251 1_545 S
O72 Mg73 2.028 1_556 S
O72 C74 1.248 . S
Mg73 O72 2.028 1_554 S
Mg73 O78 2.032 . S
Mg73 O80 2.079 . S
C74 O71 1.251 1_565 S
C74 O72 1.248 . S
C75 O76 1.264 1_556 S
C75 O83 1.249 1_556 S
O76 C75 1.264 1_554 S
O77 Mg70 1.986 1_565 S
O77 C81 1.246 . S
O78 Mg73 2.032 . S
O78 C81 1.259 . S
O79 Mg70 2.114 . S
O79 C82 1.252 . S
O80 Mg70 2.251 1_565 S
O80 Mg73 2.079 . S
O80 C82 1.273 1_565 S
C81 O77 1.246 . S
C81 O78 1.259 . S
C82 O79 1.252 . S
C82 O80 1.273 1_545 S
O83 Mg70 2.010 . S
O83 C75 1.249 1_554 S
Mg84 O85 2.028 . S
Mg84 O91 1.986 . S
Mg84 O93 2.114 . S
Mg84 O94 2.251 . S
Mg84 O97 2.010 . S
O85 Mg84 2.028 . S
O85 C88 1.250 . S
O86 Mg87 2.028 . S
O86 C88 1.248 . S
Mg87 O86 2.028 . S
Mg87 O92 2.032 . S
Mg87 O94 2.079 . S
C88 O85 1.250 . S
C88 O86 1.248 . S
C89 O90 1.264 . S
C89 O97 1.249 . S
O90 C89 1.264 . S
O91 Mg84 1.986 . S
O91 C95 1.246 . S
O92 Mg87 2.032 . S
O92 C95 1.259 . S
O93 Mg84 2.114 . S
O93 C96 1.252 . S
O94 Mg84 2.251 . S
O94 Mg87 2.079 . S
O94 C96 1.273 . S
C95 O91 1.246 . S
C95 O92 1.259 . S
C96 O93 1.252 . S
C96 O94 1.273 . S
O97 Mg84 2.010 . S
O97 C89 1.249 . S
Mg98 O99 2.028 . S
Mg98 O105 1.986 1_565 S
Mg98 O107 2.114 . S
Mg98 O108 2.251 . S
Mg98 O111 2.010 . S
O99 Mg98 2.028 . S
O99 C102 1.250 . S
O100 Mg101 2.028 . S
O100 C102 1.248 . S
Mg101 O100 2.028 . S
Mg101 O106 2.032 1_565 S
Mg101 O108 2.079 . S
C102 O99 1.250 . S
C102 O100 1.248 . S
C103 O104 1.264 . S
C103 O111 1.249 . S
O104 C103 1.264 . S
O105 Mg98 1.986 1_545 S
O105 C109 1.246 . S
O106 Mg101 2.032 1_545 S
O106 C109 1.259 . S
O107 Mg98 2.114 . S
O107 C110 1.252 . S
O108 Mg98 2.251 . S
O108 Mg101 2.079 . S
O108 C110 1.273 . S
C109 O105 1.246 . S
C109 O106 1.259 . S
C110 O107 1.252 . S
C110 O108 1.273 . S
O111 Mg98 2.010 . S
O111 C103 1.249 . S
Mg112 O113 2.028 . S
Mg112 O119 1.986 . S
Mg112 O121 2.114 . S
Mg112 O122 2.251 . S
Mg112 O125 2.010 1_455 S
O113 Mg112 2.028 . S
O113 C116 1.250 . S
O114 Mg115 2.028 . S
O114 C116 1.248 . S
Mg115 O114 2.028 . S
Mg115 O120 2.032 . S
Mg115 O122 2.079 . S
C116 O113 1.250 . S
C116 O114 1.248 . S
C117 O118 1.264 . S
C117 O125 1.249 . S
O118 C117 1.264 . S
O119 Mg112 1.986 . S
O119 C123 1.246 . S
O120 Mg115 2.032 . S
O120 C123 1.259 . S
O121 Mg112 2.114 . S
O121 C124 1.252 . S
O122 Mg112 2.251 . S
O122 Mg115 2.079 . S
O122 C124 1.273 . S
C123 O119 1.246 . S
C123 O120 1.259 . S
C124 O121 1.252 . S
C124 O122 1.273 . S
O125 Mg112 2.010 1_655 S
O125 C117 1.249 . S
Mg126 O127 2.028 . S
Mg126 O133 1.986 1_565 S
Mg126 O135 2.114 . S
Mg126 O136 2.251 . S
Mg126 O139 2.010 . S
O127 Mg126 2.028 . S
O127 C130 1.250 . S
O128 Mg129 2.028 . S
O128 C130 1.248 . S
Mg129 O128 2.028 . S
Mg129 O134 2.032 1_565 S
Mg129 O136 2.079 . S
C130 O127 1.250 . S
C130 O128 1.248 . S
C131 O132 1.264 . S
C131 O139 1.249 . S
O132 C131 1.264 . S
O133 Mg126 1.986 1_545 S
O133 C137 1.246 . S
O134 Mg129 2.032 1_545 S
O134 C137 1.259 . S
O135 Mg126 2.114 . S
O135 C138 1.252 . S
O136 Mg126 2.251 . S
O136 Mg129 2.079 . S
O136 C138 1.273 . S
C137 O133 1.246 . S
C137 O134 1.259 . S
C138 O135 1.252 . S
C138 O136 1.273 . S
O139 Mg126 2.010 . S
O139 C131 1.249 . S
Mg140 O141 2.028 . S
Mg140 O147 1.986 . S
Mg140 O149 2.114 . S
Mg140 O150 2.251 . S
Mg140 O153 2.010 1_455 S
O141 Mg140 2.028 . S
O141 C144 1.250 . S
O142 Mg143 2.028 . S
O142 C144 1.248 . S
Mg143 O142 2.028 . S
Mg143 O148 2.032 . S
Mg143 O150 2.079 . S
C144 O141 1.250 . S
C144 O142 1.248 . S
C145 O146 1.264 . S
C145 O153 1.249 . S
O146 C145 1.264 . S
O147 Mg140 1.986 . S
O147 C151 1.246 . S
O148 Mg143 2.032 . S
O148 C151 1.259 . S
O149 Mg140 2.114 . S
O149 C152 1.252 . S
O150 Mg140 2.251 . S
O150 Mg143 2.079 . S
O150 C152 1.273 . S
C151 O147 1.246 . S
C151 O148 1.259 . S
C152 O149 1.252 . S
C152 O150 1.273 . S
O153 Mg140 2.010 1_655 S
O153 C145 1.249 . S
Mg154 O155 2.028 . S
Mg154 O161 1.986 . S
Mg154 O163 2.114 . S
Mg154 O164 2.251 . S
Mg154 O167 2.010 . S
O155 Mg154 2.028 . S
O155 C158 1.250 . S
O156 Mg157 2.028 . S
O156 C158 1.248 . S
Mg157 O156 2.028 . S
Mg157 O162 2.032 . S
Mg157 O164 2.079 . S
C158 O155 1.250 . S
C158 O156 1.248 . S
C159 O160 1.264 . S
C159 O167 1.249 . S
O160 C159 1.264 . S
O161 Mg154 1.986 . S
O161 C165 1.246 . S
O162 Mg157 2.032 . S
O162 C165 1.259 . S
O163 Mg154 2.114 . S
O163 C166 1.252 . S
O164 Mg154 2.251 . S
O164 Mg157 2.079 . S
O164 C166 1.273 . S
C165 O161 1.246 . S
C165 O162 1.259 . S
C166 O163 1.252 . S
C166 O164 1.273 . S
O167 Mg154 2.010 . S
O167 C159 1.249 . S
Mg168 O169 2.028 . S
Mg168 O175 1.986 1_545 S
Mg168 O177 2.114 . S
Mg168 O178 2.251 . S
Mg168 O181 2.010 . S
O169 Mg168 2.028 . S
O169 C172 1.250 . S
O170 Mg171 2.028 . S
O170 C172 1.248 . S
Mg171 O170 2.028 . S
Mg171 O176 2.032 1_545 S
Mg171 O178 2.079 . S
C172 O169 1.250 . S
C172 O170 1.248 . S
C173 O174 1.264 . S
C173 O181 1.249 . S
O174 C173 1.264 . S
O175 Mg168 1.986 1_565 S
O175 C179 1.246 . S
O176 Mg171 2.032 1_565 S
O176 C179 1.259 . S
O177 Mg168 2.114 . S
O177 C180 1.252 . S
O178 Mg168 2.251 . S
O178 Mg171 2.079 . S
O178 C180 1.273 . S
C179 O175 1.246 . S
C179 O176 1.259 . S
C180 O177 1.252 . S
C180 O178 1.273 . S
O181 Mg168 2.010 . S
O181 C173 1.249 . S
Mg182 O183 2.028 . S
Mg182 O189 1.986 . S
Mg182 O191 2.114 . S
Mg182 O192 2.251 . S
Mg182 O195 2.010 1_655 S
O183 Mg182 2.028 . S
O183 C186 1.250 . S
O184 Mg185 2.028 . S
O184 C186 1.248 . S
Mg185 O184 2.028 . S
Mg185 O190 2.032 . S
Mg185 O192 2.079 . S
C186 O183 1.250 . S
C186 O184 1.248 . S
C187 O188 1.264 . S
C187 O195 1.249 . S
O188 C187 1.264 . S
O189 Mg182 1.986 . S
O189 C193 1.246 . S
O190 Mg185 2.032 . S
O190 C193 1.259 . S
O191 Mg182 2.114 . S
O191 C194 1.252 . S
O192 Mg182 2.251 . S
O192 Mg185 2.079 . S
O192 C194 1.273 . S
C193 O189 1.246 . S
C193 O190 1.259 . S
C194 O191 1.252 . S
C194 O192 1.273 . S
O195 Mg182 2.010 1_455 S
O195 C187 1.249 . S
Mg196 O197 2.028 . S
Mg196 O203 1.986 . S
Mg196 O205 2.114 . S
Mg196 O206 2.251 . S
Mg196 O209 2.010 . S
O197 Mg196 2.028 . S
O197 C200 1.250 . S
O198 Mg199 2.028 . S
O198 C200 1.248 . S
Mg199 O198 2.028 . S
Mg199 O204 2.032 . S
Mg199 O206 2.079 . S
C200 O197 1.250 . S
C200 O198 1.248 . S
C201 O202 1.264 . S
C201 O209 1.249 . S
O202 C201 1.264 . S
O203 Mg196 1.986 . S
O203 C207 1.246 . S
O204 Mg199 2.032 . S
O204 C207 1.259 . S
O205 Mg196 2.114 . S
O205 C208 1.252 . S
O206 Mg196 2.251 . S
O206 Mg199 2.079 . S
O206 C208 1.273 . S
C207 O203 1.246 . S
C207 O204 1.259 . S
C208 O205 1.252 . S
C208 O206 1.273 . S
O209 Mg196 2.010 . S
O209 C201 1.249 . S
Mg210 O211 2.028 . S
Mg210 O217 1.986 . S
Mg210 O219 2.114 . S
Mg210 O220 2.251 . S
Mg210 O223 2.010 . S
O211 Mg210 2.028 . S
O211 C214 1.250 . S
O212 Mg213 2.028 . S
O212 C214 1.248 . S
Mg213 O212 2.028 . S
Mg213 O218 2.032 . S
Mg213 O220 2.079 . S
C214 O211 1.250 . S
C214 O212 1.248 . S
C215 O216 1.264 . S
C215 O223 1.249 . S
O216 C215 1.264 . S
O217 Mg210 1.986 . S
O217 C221 1.246 . S
O218 Mg213 2.032 . S
O218 C221 1.259 . S
O219 Mg210 2.114 . S
O219 C222 1.252 . S
O220 Mg210 2.251 . S
O220 Mg213 2.079 . S
O220 C222 1.273 . S
C221 O217 1.246 . S
C221 O218 1.259 . S
C222 O219 1.252 . S
C222 O220 1.273 . S
O223 Mg210 2.010 . S
O223 C215 1.249 . S
Mg224 O225 2.028 . S
Mg224 O231 1.986 1_545 S
Mg224 O233 2.114 . S
Mg224 O234 2.251 . S
Mg224 O237 2.010 . S
O225 Mg224 2.028 . S
O225 C228 1.250 . S
O226 Mg227 2.028 . S
O226 C228 1.248 . S
Mg227 O226 2.028 . S
Mg227 O232 2.032 1_545 S
Mg227 O234 2.079 . S
C228 O225 1.250 . S
C228 O226 1.248 . S
C229 O230 1.264 . S
C229 O237 1.249 . S
O230 C229 1.264 . S
O231 Mg224 1.986 1_565 S
O231 C235 1.246 . S
O232 Mg227 2.032 1_565 S
O232 C235 1.259 . S
O233 Mg224 2.114 . S
O233 C236 1.252 . S
O234 Mg224 2.251 . S
O234 Mg227 2.079 . S
O234 C236 1.273 . S
C235 O231 1.246 . S
C235 O232 1.259 . S
C236 O233 1.252 . S
C236 O234 1.273 . S
O237 Mg224 2.010 . S
O237 C229 1.249 . S
Mg238 O239 2.028 . S
Mg238 O245 1.986 . S
Mg238 O247 2.114 . S
Mg238 O248 2.251 . S
Mg238 O251 2.010 1_655 S
O239 Mg238 2.028 . S
O239 C242 1.250 . S
O240 Mg241 2.028 . S
O240 C242 1.248 . S
Mg241 O240 2.028 . S
Mg241 O246 2.032 . S
Mg241 O248 2.079 . S
C242 O239 1.250 . S
C242 O240 1.248 . S
C243 O244 1.264 . S
C243 O251 1.249 . S
O244 C243 1.264 . S
O245 Mg238 1.986 . S
O245 C249 1.246 . S
O246 Mg241 2.032 . S
O246 C249 1.259 . S
O247 Mg238 2.114 . S
O247 C250 1.252 . S
O248 Mg238 2.251 . S
O248 Mg241 2.079 . S
O248 C250 1.273 . S
C249 O245 1.246 . S
C249 O246 1.259 . S
C250 O247 1.252 . S
C250 O248 1.273 . S
O251 Mg238 2.010 1_455 S
O251 C243 1.249 . S
C252 C253 1.384 . S
C252 C254 1.384 . S
C252 H280 0.931 . S
C253 C252 1.384 . S
C253 C256 1.382 . S
C254 C252 1.384 . S
C254 C255 1.381 . S
C254 H281 0.930 . S
C255 C254 1.381 . S
C255 C257 1.381 . S
C255 C258 1.487 . S
C256 C253 1.382 . S
C256 C257 1.387 . S
C256 H282 0.930 . S
C257 C255 1.381 . S
C257 C256 1.387 . S
C257 H283 0.931 . S
C258 C255 1.487 . S
C258 C265 1.399 . S
C258 N296 1.343 . S
C259 C260 1.384 . S
C259 C261 1.384 . S
C259 H284 0.931 . S
C260 C259 1.384 . S
C260 C263 1.382 . S
C261 C259 1.384 . S
C261 C262 1.381 . S
C261 H285 0.930 . S
C262 C261 1.381 . S
C262 C264 1.381 . S
C262 C265 1.487 . S
C263 C260 1.382 . S
C263 C264 1.387 . S
C263 H286 0.930 . S
C264 C262 1.381 . S
C264 C263 1.387 . S
C264 H287 0.931 . S
C265 C258 1.399 . S
C265 C262 1.487 . S
C265 N297 1.343 . S
C266 C267 1.384 . S
C266 C268 1.384 . S
C266 H288 0.931 . S
C267 C266 1.384 . S
C267 C270 1.382 . S
C268 C266 1.384 . S
C268 C269 1.381 . S
C268 H289 0.930 . S
C269 C268 1.381 . S
C269 C271 1.381 . S
C269 C272 1.487 . S
C270 C267 1.382 . S
C270 C271 1.387 . S
C270 H290 0.930 . S
C271 C269 1.381 . S
C271 C270 1.387 . S
C271 H291 0.931 . S
C272 C269 1.487 . S
C272 C279 1.399 . S
C272 N297 1.343 . S
C273 C274 1.384 . S
C273 C275 1.384 . S
C273 H292 0.931 . S
C274 C273 1.384 . S
C274 C277 1.382 . S
C275 C273 1.384 . S
C275 C276 1.381 . S
C275 H293 0.930 . S
C276 C275 1.381 . S
C276 C278 1.381 . S
C276 C279 1.487 . S
C277 C274 1.382 . S
C277 C278 1.387 . S
C277 H294 0.930 . S
C278 C276 1.381 . S
C278 C277 1.387 . S
C278 H295 0.931 . S
C279 C272 1.399 . S
C279 C276 1.487 . S
C279 N296 1.343 . S
H280 C252 0.931 . S
H281 C254 0.930 . S
H282 C256 0.930 . S
H283 C257 0.931 . S
H284 C259 0.931 . S
H285 C261 0.930 . S
H286 C263 0.930 . S
H287 C264 0.931 . S
H288 C266 0.931 . S
H289 C268 0.930 . S
H290 C270 0.930 . S
H291 C271 0.931 . S
H292 C273 0.931 . S
H293 C275 0.930 . S
H294 C277 0.930 . S
H295 C278 0.931 . S
N296 C258 1.343 . S
N296 C279 1.343 . S
N297 C265 1.343 . S
N297 C272 1.343 . S
C298 C299 1.384 . S
C298 C300 1.384 . S
C298 H326 0.931 . S
C299 C298 1.384 . S
C299 C302 1.382 . S
C300 C298 1.384 . S
C300 C301 1.381 . S
C300 H327 0.930 . S
C301 C300 1.381 . S
C301 C303 1.381 . S
C301 C304 1.487 . S
C302 C299 1.382 . S
C302 C303 1.387 . S
C302 H328 0.930 . S
C303 C301 1.381 . S
C303 C302 1.387 . S
C303 H329 0.931 . S
C304 C301 1.487 . S
C304 C311 1.399 . S
C304 N342 1.343 . S
C305 C306 1.384 . S
C305 C307 1.384 . S
C305 H330 0.931 . S
C306 C305 1.384 . S
C306 C309 1.382 . S
C307 C305 1.384 . S
C307 C308 1.381 . S
C307 H331 0.930 . S
C308 C307 1.381 . S
C308 C310 1.381 . S
C308 C311 1.487 . S
C309 C306 1.382 . S
C309 C310 1.387 . S
C309 H332 0.930 . S
C310 C308 1.381 . S
C310 C309 1.387 . S
C310 H333 0.931 . S
C311 C304 1.399 . S
C311 C308 1.487 . S
C311 N343 1.343 . S
C312 C313 1.384 . S
C312 C314 1.384 . S
C312 H334 0.931 . S
C313 C312 1.384 . S
C313 C316 1.382 . S
C314 C312 1.384 . S
C314 C315 1.381 . S
C314 H335 0.930 . S
C315 C314 1.381 . S
C315 C317 1.381 . S
C315 C318 1.487 . S
C316 C313 1.382 . S
C316 C317 1.387 . S
C316 H336 0.930 . S
C317 C315 1.381 . S
C317 C316 1.387 . S
C317 H337 0.931 . S
C318 C315 1.487 . S
C318 C325 1.399 . S
C318 N343 1.343 . S
C319 C320 1.384 . S
C319 C321 1.384 . S
C319 H338 0.931 . S
C320 C319 1.384 . S
C320 C323 1.382 . S
C321 C319 1.384 . S
C321 C322 1.381 . S
C321 H339 0.930 . S
C322 C321 1.381 . S
C322 C324 1.381 . S
C322 C325 1.487 . S
C323 C320 1.382 . S
C323 C324 1.387 . S
C323 H340 0.930 . S
C324 C322 1.381 . S
C324 C323 1.387 . S
C324 H341 0.931 . S
C325 C318 1.399 . S
C325 C322 1.487 . S
C325 N342 1.343 . S
H326 C298 0.931 . S
H327 C300 0.930 . S
H328 C302 0.930 . S
H329 C303 0.931 . S
H330 C305 0.931 . S
H331 C307 0.930 . S
H332 C309 0.930 . S
H333 C310 0.931 . S
H334 C312 0.931 . S
H335 C314 0.930 . S
H336 C316 0.930 . S
H337 C317 0.931 . S
H338 C319 0.931 . S
H339 C321 0.930 . S
H340 C323 0.930 . S
H341 C324 0.931 . S
N342 C304 1.343 . S
N342 C325 1.343 . S
N343 C311 1.343 . S
N343 C318 1.343 . S
C344 C345 1.384 . S
C344 C346 1.384 . S
C344 H372 0.931 . S
C345 C344 1.384 . S
C345 C348 1.382 . S
C346 C344 1.384 . S
C346 C347 1.381 . S
C346 H373 0.930 . S
C347 C346 1.381 . S
C347 C349 1.381 . S
C347 C350 1.487 . S
C348 C345 1.382 . S
C348 C349 1.387 . S
C348 H374 0.930 . S
C349 C347 1.381 . S
C349 C348 1.387 . S
C349 H375 0.931 . S
C350 C347 1.487 . S
C350 C357 1.399 . S
C350 N388 1.343 . S
C351 C352 1.384 . S
C351 C353 1.384 . S
C351 H376 0.931 . S
C352 C351 1.384 . S
C352 C355 1.382 . S
C353 C351 1.384 . S
C353 C354 1.381 . S
C353 H377 0.930 . S
C354 C353 1.381 . S
C354 C356 1.381 . S
C354 C357 1.487 . S
C355 C352 1.382 . S
C355 C356 1.387 . S
C355 H378 0.930 . S
C356 C354 1.381 . S
C356 C355 1.387 . S
C356 H379 0.931 . S
C357 C350 1.399 . S
C357 C354 1.487 . S
C357 N389 1.343 . S
C358 C359 1.384 . S
C358 C360 1.384 . S
C358 H380 0.931 . S
C359 C358 1.384 . S
C359 C362 1.382 . S
C360 C358 1.384 . S
C360 C361 1.381 . S
C360 H381 0.930 . S
C361 C360 1.381 . S
C361 C363 1.381 . S
C361 C364 1.487 . S
C362 C359 1.382 . S
C362 C363 1.387 . S
C362 H382 0.930 . S
C363 C361 1.381 . S
C363 C362 1.387 . S
C363 H383 0.931 . S
C364 C361 1.487 . S
C364 C371 1.399 . S
C364 N389 1.343 . S
C365 C366 1.384 . S
C365 C367 1.384 . S
C365 H384 0.931 . S
C366 C365 1.384 . S
C366 C369 1.382 . S
C367 C365 1.384 . S
C367 C368 1.381 . S
C367 H385 0.930 . S
C368 C367 1.381 . S
C368 C370 1.381 . S
C368 C371 1.487 . S
C369 C366 1.382 . S
C369 C370 1.387 . S
C369 H386 0.930 . S
C370 C368 1.381 . S
C370 C369 1.387 . S
C370 H387 0.931 . S
C371 C364 1.399 . S
C371 C368 1.487 . S
C371 N388 1.343 . S
H372 C344 0.931 . S
H373 C346 0.930 . S
H374 C348 0.930 . S
H375 C349 0.931 . S
H376 C351 0.931 . S
H377 C353 0.930 . S
H378 C355 0.930 . S
H379 C356 0.931 . S
H380 C358 0.931 . S
H381 C360 0.930 . S
H382 C362 0.930 . S
H383 C363 0.931 . S
H384 C365 0.931 . S
H385 C367 0.930 . S
H386 C369 0.930 . S
H387 C370 0.931 . S
N388 C350 1.343 . S
N388 C371 1.343 . S
N389 C357 1.343 . S
N389 C364 1.343 . S
C390 C391 1.384 . S
C390 C392 1.384 . S
C390 H418 0.931 . S
C391 C390 1.384 . S
C391 C394 1.382 . S
C392 C390 1.384 . S
C392 C393 1.381 . S
C392 H419 0.930 . S
C393 C392 1.381 . S
C393 C395 1.381 . S
C393 C396 1.487 . S
C394 C391 1.382 . S
C394 C395 1.387 . S
C394 H420 0.930 . S
C395 C393 1.381 . S
C395 C394 1.387 . S
C395 H421 0.931 . S
C396 C393 1.487 . S
C396 C403 1.399 . S
C396 N434 1.343 . S
C397 C398 1.384 . S
C397 C399 1.384 . S
C397 H422 0.931 . S
C398 C397 1.384 . S
C398 C401 1.382 . S
C399 C397 1.384 . S
C399 C400 1.381 . S
C399 H423 0.930 . S
C400 C399 1.381 . S
C400 C402 1.381 . S
C400 C403 1.487 . S
C401 C398 1.382 . S
C401 C402 1.387 . S
C401 H424 0.930 . S
C402 C400 1.381 . S
C402 C401 1.387 . S
C402 H425 0.931 . S
C403 C396 1.399 . S
C403 C400 1.487 . S
C403 N435 1.343 . S
C404 C405 1.384 . S
C404 C406 1.384 . S
C404 H426 0.931 . S
C405 C404 1.384 . S
C405 C408 1.382 . S
C406 C404 1.384 . S
C406 C407 1.381 . S
C406 H427 0.930 . S
C407 C406 1.381 . S
C407 C409 1.381 . S
C407 C410 1.487 . S
C408 C405 1.382 . S
C408 C409 1.387 . S
C408 H428 0.930 . S
C409 C407 1.381 . S
C409 C408 1.387 . S
C409 H429 0.931 . S
C410 C407 1.487 . S
C410 C417 1.399 . S
C410 N435 1.343 . S
C411 C412 1.384 . S
C411 C413 1.384 . S
C411 H430 0.931 . S
C412 C411 1.384 . S
C412 C415 1.382 . S
C413 C411 1.384 . S
C413 C414 1.381 . S
C413 H431 0.930 . S
C414 C413 1.381 . S
C414 C416 1.381 . S
C414 C417 1.487 . S
C415 C412 1.382 . S
C415 C416 1.387 . S
C415 H432 0.930 . S
C416 C414 1.381 . S
C416 C415 1.387 . S
C416 H433 0.931 . S
C417 C410 1.399 . S
C417 C414 1.487 . S
C417 N434 1.343 . S
H418 C390 0.931 . S
H419 C392 0.930 . S
H420 C394 0.930 . S
H421 C395 0.931 . S
H422 C397 0.931 . S
H423 C399 0.930 . S
H424 C401 0.930 . S
H425 C402 0.931 . S
H426 C404 0.931 . S
H427 C406 0.930 . S
H428 C408 0.930 . S
H429 C409 0.931 . S
H430 C411 0.931 . S
H431 C413 0.930 . S
H432 C415 0.930 . S
H433 C416 0.931 . S
N434 C396 1.343 . S
N434 C417 1.343 . S
N435 C403 1.343 . S
N435 C410 1.343 . S
C436 C437 1.384 . S
C436 C438 1.384 . S
C436 H464 0.931 . S
C437 C436 1.384 . S
C437 C440 1.382 . S
C438 C436 1.384 . S
C438 C439 1.381 . S
C438 H465 0.930 . S
C439 C438 1.381 . S
C439 C441 1.381 . S
C439 C442 1.487 . S
C440 C437 1.382 . S
C440 C441 1.387 . S
C440 H466 0.930 . S
C441 C439 1.381 . S
C441 C440 1.387 . S
C441 H467 0.931 . S
C442 C439 1.487 . S
C442 C449 1.399 . S
C442 N480 1.343 . S
C443 C444 1.384 . S
C443 C445 1.384 . S
C443 H468 0.931 . S
C444 C443 1.384 . S
C444 C447 1.382 . S
C445 C443 1.384 . S
C445 C446 1.381 . S
C445 H469 0.930 . S
C446 C445 1.381 . S
C446 C448 1.381 . S
C446 C449 1.487 . S
C447 C444 1.382 . S
C447 C448 1.387 . S
C447 H470 0.930 . S
C448 C446 1.381 . S
C448 C447 1.387 . S
C448 H471 0.931 . S
C449 C442 1.399 . S
C449 C446 1.487 . S
C449 N481 1.343 . S
C450 C451 1.384 . S
C450 C452 1.384 . S
C450 H472 0.931 . S
C451 C450 1.384 . S
C451 C454 1.382 . S
C452 C450 1.384 . S
C452 C453 1.381 . S
C452 H473 0.930 . S
C453 C452 1.381 . S
C453 C455 1.381 . S
C453 C456 1.487 . S
C454 C451 1.382 . S
C454 C455 1.387 . S
C454 H474 0.930 . S
C455 C453 1.381 . S
C455 C454 1.387 . S
C455 H475 0.931 . S
C456 C453 1.487 . S
C456 C463 1.399 . S
C456 N481 1.343 . S
C457 C458 1.384 . S
C457 C459 1.384 . S
C457 H476 0.931 . S
C458 C457 1.384 . S
C458 C461 1.382 . S
C459 C457 1.384 . S
C459 C460 1.381 . S
C459 H477 0.930 . S
C460 C459 1.381 . S
C460 C462 1.381 . S
C460 C463 1.487 . S
C461 C458 1.382 . S
C461 C462 1.387 . S
C461 H478 0.930 . S
C462 C460 1.381 . S
C462 C461 1.387 . S
C462 H479 0.931 . S
C463 C456 1.399 . S
C463 C460 1.487 . S
C463 N480 1.343 . S
H464 C436 0.931 . S
H465 C438 0.930 . S
H466 C440 0.930 . S
H467 C441 0.931 . S
H468 C443 0.931 . S
H469 C445 0.930 . S
H470 C447 0.930 . S
H471 C448 0.931 . S
H472 C450 0.931 . S
H473 C452 0.930 . S
H474 C454 0.930 . S
H475 C455 0.931 . S
H476 C457 0.931 . S
H477 C459 0.930 . S
H478 C461 0.930 . S
H479 C462 0.931 . S
N480 C442 1.343 . S
N480 C463 1.343 . S
N481 C449 1.343 . S
N481 C456 1.343 . S
C482 C483 1.384 . S
C482 C484 1.384 . S
C482 H510 0.931 . S
C483 C482 1.384 . S
C483 C486 1.382 . S
C484 C482 1.384 . S
C484 C485 1.381 . S
C484 H511 0.930 . S
C485 C484 1.381 . S
C485 C487 1.381 . S
C485 C488 1.487 . S
C486 C483 1.382 . S
C486 C487 1.387 . S
C486 H512 0.930 . S
C487 C485 1.381 . S
C487 C486 1.387 . S
C487 H513 0.931 . S
C488 C485 1.487 . S
C488 C495 1.399 . S
C488 N526 1.343 . S
C489 C490 1.384 . S
C489 C491 1.384 . S
C489 H514 0.931 . S
C490 C489 1.384 . S
C490 C493 1.382 . S
C491 C489 1.384 . S
C491 C492 1.381 . S
C491 H515 0.930 . S
C492 C491 1.381 . S
C492 C494 1.381 . S
C492 C495 1.487 . S
C493 C490 1.382 . S
C493 C494 1.387 . S
C493 H516 0.930 . S
C494 C492 1.381 . S
C494 C493 1.387 . S
C494 H517 0.931 . S
C495 C488 1.399 . S
C495 C492 1.487 . S
C495 N527 1.343 . S
C496 C497 1.384 . S
C496 C498 1.384 . S
C496 H518 0.931 . S
C497 C496 1.384 . S
C497 C500 1.382 . S
C498 C496 1.384 . S
C498 C499 1.381 . S
C498 H519 0.930 . S
C499 C498 1.381 . S
C499 C501 1.381 . S
C499 C502 1.487 . S
C500 C497 1.382 . S
C500 C501 1.387 . S
C500 H520 0.930 . S
C501 C499 1.381 . S
C501 C500 1.387 . S
C501 H521 0.931 . S
C502 C499 1.487 . S
C502 C509 1.399 . S
C502 N527 1.343 . S
C503 C504 1.384 . S
C503 C505 1.384 . S
C503 H522 0.931 . S
C504 C503 1.384 . S
C504 C507 1.382 . S
C505 C503 1.384 . S
C505 C506 1.381 . S
C505 H523 0.930 . S
C506 C505 1.381 . S
C506 C508 1.381 . S
C506 C509 1.487 . S
C507 C504 1.382 . S
C507 C508 1.387 . S
C507 H524 0.930 . S
C508 C506 1.381 . S
C508 C507 1.387 . S
C508 H525 0.931 . S
C509 C502 1.399 . S
C509 C506 1.487 . S
C509 N526 1.343 . S
H510 C482 0.931 . S
H511 C484 0.930 . S
H512 C486 0.930 . S
H513 C487 0.931 . S
H514 C489 0.931 . S
H515 C491 0.930 . S
H516 C493 0.930 . S
H517 C494 0.931 . S
H518 C496 0.931 . S
H519 C498 0.930 . S
H520 C500 0.930 . S
H521 C501 0.931 . S
H522 C503 0.931 . S
H523 C505 0.930 . S
H524 C507 0.930 . S
H525 C508 0.931 . S
N526 C488 1.343 . S
N526 C509 1.343 . S
N527 C495 1.343 . S
N527 C502 1.343 . S
C528 C529 1.384 . S
C528 C530 1.384 . S
C528 H556 0.931 . S
C529 C528 1.384 . S
C529 C532 1.382 . S
C530 C528 1.384 . S
C530 C531 1.381 . S
C530 H557 0.930 . S
C531 C530 1.381 . S
C531 C533 1.381 . S
C531 C534 1.487 . S
C532 C529 1.382 . S
C532 C533 1.387 . S
C532 H558 0.930 . S
C533 C531 1.381 . S
C533 C532 1.387 . S
C533 H559 0.931 . S
C534 C531 1.487 . S
C534 C541 1.399 . S
C534 N572 1.343 . S
C535 C536 1.384 . S
C535 C537 1.384 . S
C535 H560 0.931 . S
C536 C535 1.384 . S
C536 C539 1.382 . S
C537 C535 1.384 . S
C537 C538 1.381 . S
C537 H561 0.930 . S
C538 C537 1.381 . S
C538 C540 1.381 . S
C538 C541 1.487 . S
C539 C536 1.382 . S
C539 C540 1.387 . S
C539 H562 0.930 . S
C540 C538 1.381 . S
C540 C539 1.387 . S
C540 H563 0.931 . S
C541 C534 1.399 . S
C541 C538 1.487 . S
C541 N573 1.343 . S
C542 C543 1.384 . S
C542 C544 1.384 . S
C542 H564 0.931 . S
C543 C542 1.384 . S
C543 C546 1.382 . S
C544 C542 1.384 . S
C544 C545 1.381 . S
C544 H565 0.930 . S
C545 C544 1.381 . S
C545 C547 1.381 . S
C545 C548 1.487 . S
C546 C543 1.382 . S
C546 C547 1.387 . S
C546 H566 0.930 . S
C547 C545 1.381 . S
C547 C546 1.387 . S
C547 H567 0.931 . S
C548 C545 1.487 . S
C548 C555 1.399 . S
C548 N573 1.343 . S
C549 C550 1.384 . S
C549 C551 1.384 . S
C549 H568 0.931 . S
C550 C549 1.384 . S
C550 C553 1.382 . S
C551 C549 1.384 . S
C551 C552 1.381 . S
C551 H569 0.930 . S
C552 C551 1.381 . S
C552 C554 1.381 . S
C552 C555 1.487 . S
C553 C550 1.382 . S
C553 C554 1.387 . S
C553 H570 0.930 . S
C554 C552 1.381 . S
C554 C553 1.387 . S
C554 H571 0.931 . S
C555 C548 1.399 . S
C555 C552 1.487 . S
C555 N572 1.343 . S
H556 C528 0.931 . S
H557 C530 0.930 . S
H558 C532 0.930 . S
H559 C533 0.931 . S
H560 C535 0.931 . S
H561 C537 0.930 . S
H562 C539 0.930 . S
H563 C540 0.931 . S
H564 C542 0.931 . S
H565 C544 0.930 . S
H566 C546 0.930 . S
H567 C547 0.931 . S
H568 C549 0.931 . S
H569 C551 0.930 . S
H570 C553 0.930 . S
H571 C554 0.931 . S
N572 C534 1.343 . S
N572 C555 1.343 . S
N573 C541 1.343 . S
N573 C548 1.343 . S
C574 C575 1.384 . S
C574 C576 1.384 . S
C574 H602 0.931 . S
C575 C574 1.384 . S
C575 C578 1.382 . S
C576 C574 1.384 . S
C576 C577 1.381 . S
C576 H603 0.930 . S
C577 C576 1.381 . S
C577 C579 1.381 . S
C577 C580 1.487 . S
C578 C575 1.382 . S
C578 C579 1.387 . S
C578 H604 0.930 . S
C579 C577 1.381 . S
C579 C578 1.387 . S
C579 H605 0.931 . S
C580 C577 1.487 . S
C580 C587 1.399 . S
C580 N618 1.343 . S
C581 C582 1.384 . S
C581 C583 1.384 . S
C581 H606 0.931 . S
C582 C581 1.384 . S
C582 C585 1.382 . S
C583 C581 1.384 . S
C583 C584 1.381 . S
C583 H607 0.930 . S
C584 C583 1.381 . S
C584 C586 1.381 . S
C584 C587 1.487 . S
C585 C582 1.382 . S
C585 C586 1.387 . S
C585 H608 0.930 . S
C586 C584 1.381 . S
C586 C585 1.387 . S
C586 H609 0.931 . S
C587 C580 1.399 . S
C587 C584 1.487 . S
C587 N619 1.343 . S
C588 C589 1.384 . S
C588 C590 1.384 . S
C588 H610 0.931 . S
C589 C588 1.384 . S
C589 C592 1.382 . S
C590 C588 1.384 . S
C590 C591 1.381 . S
C590 H611 0.930 . S
C591 C590 1.381 . S
C591 C593 1.381 . S
C591 C594 1.487 . S
C592 C589 1.382 . S
C592 C593 1.387 . S
C592 H612 0.930 . S
C593 C591 1.381 . S
C593 C592 1.387 . S
C593 H613 0.931 . S
C594 C591 1.487 . S
C594 C601 1.399 . S
C594 N619 1.343 . S
C595 C596 1.384 . S
C595 C597 1.384 . S
C595 H614 0.931 . S
C596 C595 1.384 . S
C596 C599 1.382 . S
C597 C595 1.384 . S
C597 C598 1.381 . S
C597 H615 0.930 . S
C598 C597 1.381 . S
C598 C600 1.381 . S
C598 C601 1.487 . S
C599 C596 1.382 . S
C599 C600 1.387 . S
C599 H616 0.930 . S
C600 C598 1.381 . S
C600 C599 1.387 . S
C600 H617 0.931 . S
C601 C594 1.399 . S
C601 C598 1.487 . S
C601 N618 1.343 . S
H602 C574 0.931 . S
H603 C576 0.930 . S
H604 C578 0.930 . S
H605 C579 0.931 . S
H606 C581 0.931 . S
H607 C583 0.930 . S
H608 C585 0.930 . S
H609 C586 0.931 . S
H610 C588 0.931 . S
H611 C590 0.930 . S
H612 C592 0.930 . S
H613 C593 0.931 . S
H614 C595 0.931 . S
H615 C597 0.930 . S
H616 C599 0.930 . S
H617 C600 0.931 . S
N618 C580 1.343 . S
N618 C601 1.343 . S
N619 C587 1.343 . S
N619 C594 1.343 . S
C620 C621 1.384 . S
C620 C622 1.384 . S
C620 H648 0.931 . S
C621 C620 1.384 . S
C621 C624 1.382 . S
C622 C620 1.384 . S
C622 C623 1.381 . S
C622 H649 0.930 . S
C623 C622 1.381 . S
C623 C625 1.381 . S
C623 C626 1.487 . S
C624 C621 1.382 . S
C624 C625 1.387 . S
C624 H650 0.930 . S
C625 C623 1.381 . S
C625 C624 1.387 . S
C625 H651 0.931 . S
C626 C623 1.487 . S
C626 C633 1.399 . S
C626 N664 1.343 . S
C627 C628 1.384 . S
C627 C629 1.384 . S
C627 H652 0.931 . S
C628 C627 1.384 . S
C628 C631 1.382 . S
C629 C627 1.384 . S
C629 C630 1.381 . S
C629 H653 0.930 . S
C630 C629 1.381 . S
C630 C632 1.381 . S
C630 C633 1.487 . S
C631 C628 1.382 . S
C631 C632 1.387 . S
C631 H654 0.930 . S
C632 C630 1.381 . S
C632 C631 1.387 . S
C632 H655 0.931 . S
C633 C626 1.399 . S
C633 C630 1.487 . S
C633 N665 1.343 . S
C634 C635 1.384 . S
C634 C636 1.384 . S
C634 H656 0.931 . S
C635 C634 1.384 . S
C635 C638 1.382 . S
C636 C634 1.384 . S
C636 C637 1.381 . S
C636 H657 0.930 . S
C637 C636 1.381 . S
C637 C639 1.381 . S
C637 C640 1.487 . S
C638 C635 1.382 . S
C638 C639 1.387 . S
C638 H658 0.930 . S
C639 C637 1.381 . S
C639 C638 1.387 . S
C639 H659 0.931 . S
C640 C637 1.487 . S
C640 C647 1.399 . S
C640 N665 1.343 . S
C641 C642 1.384 . S
C641 C643 1.384 . S
C641 H660 0.931 . S
C642 C641 1.384 . S
C642 C645 1.382 . S
C643 C641 1.384 . S
C643 C644 1.381 . S
C643 H661 0.930 . S
C644 C643 1.381 . S
C644 C646 1.381 . S
C644 C647 1.487 . S
C645 C642 1.382 . S
C645 C646 1.387 . S
C645 H662 0.930 . S
C646 C644 1.381 . S
C646 C645 1.387 . S
C646 H663 0.931 . S
C647 C640 1.399 . S
C647 C644 1.487 . S
C647 N664 1.343 . S
H648 C620 0.931 . S
H649 C622 0.930 . S
H650 C624 0.930 . S
H651 C625 0.931 . S
H652 C627 0.931 . S
H653 C629 0.930 . S
H654 C631 0.930 . S
H655 C632 0.931 . S
H656 C634 0.931 . S
H657 C636 0.930 . S
H658 C638 0.930 . S
H659 C639 0.931 . S
H660 C641 0.931 . S
H661 C643 0.930 . S
H662 C645 0.930 . S
H663 C646 0.931 . S
N664 C626 1.343 . S
N664 C647 1.343 . S
N665 C633 1.343 . S
N665 C640 1.343 . S
C666 C667 1.384 . S
C666 C668 1.384 . S
C666 H694 0.931 . S
C667 C666 1.384 . S
C667 C670 1.382 1_655 S
C668 C666 1.384 . S
C668 C669 1.411 . S
C668 H695 0.930 . S
C669 C668 1.411 . S
C669 C671 1.366 1_655 S
C669 C672 1.471 1_655 S
C670 C667 1.382 1_455 S
C670 C671 1.387 . S
C670 H696 0.930 . S
C671 C669 1.366 1_455 S
C671 C670 1.387 . S
C671 H697 0.931 . S
C672 C669 1.471 1_455 S
C672 C679 1.398 1_455 S
C672 N710 1.347 . S
C673 C674 1.384 . S
C673 C675 1.384 . S
C673 H698 0.931 . S
C674 C673 1.384 . S
C674 C677 1.382 1_455 S
C675 C673 1.384 . S
C675 C676 1.384 . S
C675 H699 0.930 . S
C676 C675 1.384 . S
C676 C678 1.374 1_455 S
C676 C679 1.498 1_455 S
C677 C674 1.382 1_655 S
C677 C678 1.387 . S
C677 H700 0.930 . S
C678 C676 1.374 1_655 S
C678 C677 1.387 . S
C678 H701 0.931 . S
C679 C672 1.398 1_655 S
C679 C676 1.498 1_655 S
C679 N711 1.338 . S
C680 C681 1.384 . S
C680 C682 1.384 . S
C680 H702 0.931 . S
C681 C680 1.384 . S
C681 C684 1.382 1_455 S
C682 C680 1.384 . S
C682 C683 1.420 . S
C682 H703 0.930 . S
C683 C682 1.420 . S
C683 C685 1.361 1_455 S
C683 C686 1.471 1_455 S
C684 C681 1.382 1_655 S
C684 C685 1.387 . S
C684 H704 0.930 . S
C685 C683 1.361 1_655 S
C685 C684 1.387 . S
C685 H705 0.931 . S
C686 C683 1.471 1_655 S
C686 C693 1.398 1_655 S
C686 N711 1.343 . S
C687 C688 1.384 . S
C687 C689 1.384 . S
C687 H706 0.931 . S
C688 C687 1.384 . S
C688 C691 1.382 1_655 S
C689 C687 1.384 . S
C689 C690 1.382 . S
C689 H707 0.930 . S
C690 C689 1.382 . S
C690 C692 1.379 1_655 S
C690 C693 1.498 1_655 S
C691 C688 1.382 1_455 S
C691 C692 1.387 . S
C691 H708 0.930 . S
C692 C690 1.379 1_455 S
C692 C691 1.387 . S
C692 H709 0.931 . S
C693 C686 1.398 1_455 S
C693 C690 1.498 1_455 S
C693 N710 1.335 . S
H694 C666 0.931 . S
H695 C668 0.930 . S
H696 C670 0.930 . S
H697 C671 0.931 . S
H698 C673 0.931 . S
H699 C675 0.930 . S
H700 C677 0.930 . S
H701 C678 0.931 . S
H702 C680 0.931 . S
H703 C682 0.930 . S
H704 C684 0.930 . S
H705 C685 0.931 . S
H706 C687 0.931 . S
H707 C689 0.930 . S
H708 C691 0.930 . S
H709 C692 0.931 . S
N710 C672 1.347 . S
N710 C693 1.335 . S
N711 C679 1.338 . S
N711 C686 1.343 . S
C712 C713 1.384 . S
C712 C714 1.384 . S
C712 H740 0.931 . S
C713 C712 1.384 . S
C713 C716 1.382 . S
C714 C712 1.384 . S
C714 C715 1.381 . S
C714 H741 0.930 . S
C715 C714 1.381 . S
C715 C717 1.381 . S
C715 C718 1.487 . S
C716 C713 1.382 . S
C716 C717 1.387 . S
C716 H742 0.930 . S
C717 C715 1.381 . S
C717 C716 1.387 . S
C717 H743 0.931 . S
C718 C715 1.487 . S
C718 C725 1.399 . S
C718 N756 1.343 . S
C719 C720 1.384 . S
C719 C721 1.384 . S
C719 H744 0.931 . S
C720 C719 1.384 . S
C720 C723 1.382 . S
C721 C719 1.384 . S
C721 C722 1.381 . S
C721 H745 0.930 . S
C722 C721 1.381 . S
C722 C724 1.381 . S
C722 C725 1.487 . S
C723 C720 1.382 . S
C723 C724 1.387 . S
C723 H746 0.930 . S
C724 C722 1.381 . S
C724 C723 1.387 . S
C724 H747 0.931 . S
C725 C718 1.399 . S
C725 C722 1.487 . S
C725 N757 1.343 . S
C726 C727 1.384 . S
C726 C728 1.384 . S
C726 H748 0.931 . S
C727 C726 1.384 . S
C727 C730 1.382 . S
C728 C726 1.384 . S
C728 C729 1.381 . S
C728 H749 0.930 . S
C729 C728 1.381 . S
C729 C731 1.381 . S
C729 C732 1.487 . S
C730 C727 1.382 . S
C730 C731 1.387 . S
C730 H750 0.930 . S
C731 C729 1.381 . S
C731 C730 1.387 . S
C731 H751 0.931 . S
C732 C729 1.487 . S
C732 C739 1.399 . S
C732 N757 1.343 . S
C733 C734 1.384 . S
C733 C735 1.384 . S
C733 H752 0.931 . S
C734 C733 1.384 . S
C734 C737 1.382 . S
C735 C733 1.384 . S
C735 C736 1.381 . S
C735 H753 0.930 . S
C736 C735 1.381 . S
C736 C738 1.381 . S
C736 C739 1.487 . S
C737 C734 1.382 . S
C737 C738 1.387 . S
C737 H754 0.930 . S
C738 C736 1.381 . S
C738 C737 1.387 . S
C738 H755 0.931 . S
C739 C732 1.399 . S
C739 C736 1.487 . S
C739 N756 1.343 . S
H740 C712 0.931 . S
H741 C714 0.930 . S
H742 C716 0.930 . S
H743 C717 0.931 . S
H744 C719 0.931 . S
H745 C721 0.930 . S
H746 C723 0.930 . S
H747 C724 0.931 . S
H748 C726 0.931 . S
H749 C728 0.930 . S
H750 C730 0.930 . S
H751 C731 0.931 . S
H752 C733 0.931 . S
H753 C735 0.930 . S
H754 C737 0.930 . S
H755 C738 0.931 . S
N756 C718 1.343 . S
N756 C739 1.343 . S
N757 C725 1.343 . S
N757 C732 1.343 . S
C758 C759 1.384 1_545 S
C758 C760 1.384 . S
C758 H786 0.931 . S
C759 C758 1.384 1_565 S
C759 C762 1.382 . S
C760 C758 1.384 . S
C760 C761 1.381 1_545 S
C760 H787 0.930 . S
C761 C760 1.381 1_565 S
C761 C763 1.381 . S
C761 C764 1.487 . S
C762 C759 1.382 . S
C762 C763 1.387 . S
C762 H788 0.930 . S
C763 C761 1.381 . S
C763 C762 1.387 . S
C763 H789 0.931 . S
C764 C761 1.487 . S
C764 C771 1.399 1_565 S
C764 N802 1.343 . S
C765 C766 1.384 1_565 S
C765 C767 1.384 . S
C765 H790 0.931 . S
C766 C765 1.384 1_545 S
C766 C769 1.382 . S
C767 C765 1.384 . S
C767 C768 1.381 1_565 S
C767 H791 0.930 . S
C768 C767 1.381 1_545 S
C768 C770 1.381 . S
C768 C771 1.487 . S
C769 C766 1.382 . S
C769 C770 1.387 . S
C769 H792 0.930 . S
C770 C768 1.381 . S
C770 C769 1.387 . S
C770 H793 0.931 . S
C771 C764 1.399 1_545 S
C771 C768 1.487 . S
C771 N803 1.343 . S
C772 C773 1.384 1_565 S
C772 C774 1.384 . S
C772 H794 0.931 . S
C773 C772 1.384 1_545 S
C773 C776 1.382 . S
C774 C772 1.384 . S
C774 C775 1.381 1_565 S
C774 H795 0.930 . S
C775 C774 1.381 1_545 S
C775 C777 1.381 . S
C775 C778 1.487 . S
C776 C773 1.382 . S
C776 C777 1.387 . S
C776 H796 0.930 . S
C777 C775 1.381 . S
C777 C776 1.387 . S
C777 H797 0.931 . S
C778 C775 1.487 . S
C778 C785 1.399 1_545 S
C778 N803 1.343 . S
C779 C780 1.384 1_545 S
C779 C781 1.384 . S
C779 H798 0.931 . S
C780 C779 1.384 1_565 S
C780 C783 1.382 . S
C781 C779 1.384 . S
C781 C782 1.381 1_545 S
C781 H799 0.930 . S
C782 C781 1.381 1_565 S
C782 C784 1.381 . S
C782 C785 1.487 . S
C783 C780 1.382 . S
C783 C784 1.387 . S
C783 H800 0.930 . S
C784 C782 1.381 . S
C784 C783 1.387 . S
C784 H801 0.931 . S
C785 C778 1.399 1_565 S
C785 C782 1.487 . S
C785 N802 1.343 . S
H786 C758 0.931 . S
H787 C760 0.930 . S
H788 C762 0.930 . S
H789 C763 0.931 . S
H790 C765 0.931 . S
H791 C767 0.930 . S
H792 C769 0.930 . S
H793 C770 0.931 . S
H794 C772 0.931 . S
H795 C774 0.930 . S
H796 C776 0.930 . S
H797 C777 0.931 . S
H798 C779 0.931 . S
H799 C781 0.930 . S
H800 C783 0.930 . S
H801 C784 0.931 . S
N802 C764 1.343 . S
N802 C785 1.343 . S
N803 C771 1.343 . S
N803 C778 1.343 . S
C804 C805 1.384 . S
C804 C806 1.384 . S
C804 H832 0.931 . S
C805 C804 1.384 . S
C805 C808 1.382 1_545 S
C806 C804 1.384 . S
C806 C807 1.386 . S
C806 H833 0.930 . S
C807 C806 1.386 . S
C807 C809 1.368 1_545 S
C807 C810 1.499 1_545 S
C808 C805 1.382 1_565 S
C808 C809 1.387 . S
C808 H834 0.930 . S
C809 C807 1.368 1_565 S
C809 C808 1.387 . S
C809 H835 0.931 . S
C810 C807 1.499 1_565 S
C810 C817 1.399 1_565 S
C810 N848 1.340 . S
C811 C812 1.384 . S
C811 C813 1.384 . S
C811 H836 0.931 . S
C812 C811 1.384 . S
C812 C815 1.382 1_565 S
C813 C811 1.384 . S
C813 C814 1.400 . S
C813 H837 0.930 . S
C814 C813 1.400 . S
C814 C816 1.372 1_565 S
C814 C817 1.472 1_565 S
C815 C812 1.382 1_545 S
C815 C816 1.387 . S
C815 H838 0.930 . S
C816 C814 1.372 1_545 S
C816 C815 1.387 . S
C816 H839 0.931 . S
C817 C810 1.399 1_545 S
C817 C814 1.472 1_545 S
C817 N849 1.349 . S
C818 C819 1.384 . S
C818 C820 1.384 . S
C818 H840 0.931 . S
C819 C818 1.384 . S
C819 C822 1.382 1_565 S
C820 C818 1.384 . S
C820 C821 1.384 . S
C820 H841 0.930 . S
C821 C820 1.384 . S
C821 C823 1.373 1_565 S
C821 C824 1.499 1_565 S
C822 C819 1.382 1_545 S
C822 C823 1.387 . S
C822 H842 0.930 . S
C823 C821 1.373 1_545 S
C823 C822 1.387 . S
C823 H843 0.931 . S
C824 C821 1.499 1_545 S
C824 C831 1.399 1_545 S
C824 N849 1.336 . S
C825 C826 1.384 . S
C825 C827 1.384 . S
C825 H844 0.931 . S
C826 C825 1.384 . S
C826 C829 1.382 1_545 S
C827 C825 1.384 . S
C827 C828 1.409 . S
C827 H845 0.930 . S
C828 C827 1.409 . S
C828 C830 1.368 1_545 S
C828 C831 1.472 1_545 S
C829 C826 1.382 1_565 S
C829 C830 1.387 . S
C829 H846 0.930 . S
C830 C828 1.368 1_565 S
C830 C829 1.387 . S
C830 H847 0.931 . S
C831 C824 1.399 1_565 S
C831 C828 1.472 1_565 S
C831 N848 1.345 . S
H832 C804 0.931 . S
H833 C806 0.930 . S
H834 C808 0.930 . S
H835 C809 0.931 . S
H836 C811 0.931 . S
H837 C813 0.930 . S
H838 C815 0.930 . S
H839 C816 0.931 . S
H840 C818 0.931 . S
H841 C820 0.930 . S
H842 C822 0.930 . S
H843 C823 0.931 . S
H844 C825 0.931 . S
H845 C827 0.930 . S
H846 C829 0.930 . S
H847 C830 0.931 . S
N848 C810 1.340 . S
N848 C831 1.345 . S
N849 C817 1.349 . S
N849 C824 1.336 . S
C850 C851 1.384 . S
C850 C852 1.384 . S
C850 H878 0.931 . S
C851 C850 1.384 . S
C851 C854 1.382 1_655 S
C852 C850 1.384 . S
C852 C853 1.381 . S
C852 H879 0.930 . S
C853 C852 1.381 . S
C853 C855 1.381 1_655 S
C853 C856 1.486 . S
C854 C851 1.382 1_455 S
C854 C855 1.387 . S
C854 H880 0.930 . S
C855 C853 1.381 1_455 S
C855 C854 1.387 . S
C855 H881 0.931 . S
C856 C853 1.486 . S
C856 C863 1.399 . S
C856 N894 1.324 1_655 S
C857 C858 1.384 . S
C857 C859 1.384 . S
C857 H882 0.931 . S
C858 C857 1.384 . S
C858 C861 1.382 1_455 S
C859 C857 1.384 . S
C859 C860 1.385 . S
C859 H883 0.930 . S
C860 C859 1.385 . S
C860 C862 1.371 1_455 S
C860 C863 1.501 1_455 S
C861 C858 1.382 1_655 S
C861 C862 1.387 . S
C861 H884 0.930 . S
C862 C860 1.371 1_655 S
C862 C861 1.387 . S
C862 H885 0.931 . S
C863 C856 1.399 . S
C863 C860 1.501 1_655 S
C863 N895 1.337 . S
C864 C865 1.384 . S
C864 C866 1.384 . S
C864 H886 0.931 . S
C865 C864 1.384 . S
C865 C868 1.382 1_455 S
C866 C864 1.384 . S
C866 C867 1.381 . S
C866 H887 0.930 . S
C867 C866 1.381 . S
C867 C869 1.381 1_455 S
C867 C870 1.486 1_455 S
C868 C865 1.382 1_655 S
C868 C869 1.387 . S
C868 H888 0.930 . S
C869 C867 1.381 1_655 S
C869 C868 1.387 . S
C869 H889 0.931 . S
C870 C867 1.486 1_655 S
C870 C877 1.399 1_655 S
C870 N895 1.344 . S
C871 C872 1.384 . S
C871 C873 1.384 . S
C871 H890 0.931 . S
C872 C871 1.384 . S
C872 C875 1.382 1_655 S
C873 C871 1.384 . S
C873 C874 1.387 . S
C873 H891 0.930 . S
C874 C873 1.387 . S
C874 C876 1.365 1_655 S
C874 C877 1.501 1_655 S
C875 C872 1.382 1_455 S
C875 C876 1.387 . S
C875 H892 0.930 . S
C876 C874 1.365 1_455 S
C876 C875 1.387 . S
C876 H893 0.931 . S
C877 C870 1.399 1_455 S
C877 C874 1.501 1_455 S
C877 N894 1.358 . S
H878 C850 0.931 . S
H879 C852 0.930 . S
H880 C854 0.930 . S
H881 C855 0.931 . S
H882 C857 0.931 . S
H883 C859 0.930 . S
H884 C861 0.930 . S
H885 C862 0.931 . S
H886 C864 0.931 . S
H887 C866 0.930 . S
H888 C868 0.930 . S
H889 C869 0.931 . S
H890 C871 0.931 . S
H891 C873 0.930 . S
H892 C875 0.930 . S
H893 C876 0.931 . S
N894 C856 1.324 1_455 S
N894 C877 1.358 . S
N895 C863 1.337 . S
N895 C870 1.344 . S
C896 C897 1.384 . S
C896 C898 1.384 . S
C896 H924 0.931 . S
C897 C896 1.384 . S
C897 C900 1.382 . S
C898 C896 1.384 . S
C898 C899 1.381 . S
C898 H925 0.930 . S
C899 C898 1.381 . S
C899 C901 1.381 . S
C899 C902 1.487 . S
C900 C897 1.382 . S
C900 C901 1.387 . S
C900 H926 0.930 . S
C901 C899 1.381 . S
C901 C900 1.387 . S
C901 H927 0.931 . S
C902 C899 1.487 . S
C902 C909 1.399 . S
C902 N940 1.343 . S
C903 C904 1.384 . S
C903 C905 1.384 . S
C903 H928 0.931 . S
C904 C903 1.384 . S
C904 C907 1.382 . S
C905 C903 1.384 . S
C905 C906 1.381 . S
C905 H929 0.930 . S
C906 C905 1.381 . S
C906 C908 1.381 . S
C906 C909 1.487 . S
C907 C904 1.382 . S
C907 C908 1.387 . S
C907 H930 0.930 . S
C908 C906 1.381 . S
C908 C907 1.387 . S
C908 H931 0.931 . S
C909 C902 1.399 . S
C909 C906 1.487 . S
C909 N941 1.343 . S
C910 C911 1.384 . S
C910 C912 1.384 . S
C910 H932 0.931 . S
C911 C910 1.384 . S
C911 C914 1.382 . S
C912 C910 1.384 . S
C912 C913 1.381 . S
C912 H933 0.930 . S
C913 C912 1.381 . S
C913 C915 1.381 . S
C913 C916 1.487 . S
C914 C911 1.382 . S
C914 C915 1.387 . S
C914 H934 0.930 . S
C915 C913 1.381 . S
C915 C914 1.387 . S
C915 H935 0.931 . S
C916 C913 1.487 . S
C916 C923 1.399 . S
C916 N941 1.343 . S
C917 C918 1.384 . S
C917 C919 1.384 . S
C917 H936 0.931 . S
C918 C917 1.384 . S
C918 C921 1.382 . S
C919 C917 1.384 . S
C919 C920 1.381 . S
C919 H937 0.930 . S
C920 C919 1.381 . S
C920 C922 1.381 . S
C920 C923 1.487 . S
C921 C918 1.382 . S
C921 C922 1.387 . S
C921 H938 0.930 . S
C922 C920 1.381 . S
C922 C921 1.387 . S
C922 H939 0.931 . S
C923 C916 1.399 . S
C923 C920 1.487 . S
C923 N940 1.343 . S
H924 C896 0.931 . S
H925 C898 0.930 . S
H926 C900 0.930 . S
H927 C901 0.931 . S
H928 C903 0.931 . S
H929 C905 0.930 . S
H930 C907 0.930 . S
H931 C908 0.931 . S
H932 C910 0.931 . S
H933 C912 0.930 . S
H934 C914 0.930 . S
H935 C915 0.931 . S
H936 C917 0.931 . S
H937 C919 0.930 . S
H938 C921 0.930 . S
H939 C922 0.931 . S
N940 C902 1.343 . S
N940 C923 1.343 . S
N941 C909 1.343 . S
N941 C916 1.343 . S
C942 C943 1.384 . S
C942 C944 1.384 . S
C942 H970 0.931 . S
C943 C942 1.384 . S
C943 C946 1.382 . S
C944 C942 1.384 . S
C944 C945 1.381 . S
C944 H971 0.930 . S
C945 C944 1.381 . S
C945 C947 1.381 . S
C945 C948 1.487 . S
C946 C943 1.382 . S
C946 C947 1.387 . S
C946 H972 0.930 . S
C947 C945 1.381 . S
C947 C946 1.387 . S
C947 H973 0.931 . S
C948 C945 1.487 . S
C948 C955 1.399 . S
C948 N986 1.343 . S
C949 C950 1.384 . S
C949 C951 1.384 . S
C949 H974 0.931 . S
C950 C949 1.384 . S
C950 C953 1.382 . S
C951 C949 1.384 . S
C951 C952 1.381 . S
C951 H975 0.930 . S
C952 C951 1.381 . S
C952 C954 1.381 . S
C952 C955 1.487 . S
C953 C950 1.382 . S
C953 C954 1.387 . S
C953 H976 0.930 . S
C954 C952 1.381 . S
C954 C953 1.387 . S
C954 H977 0.931 . S
C955 C948 1.399 . S
C955 C952 1.487 . S
C955 N987 1.343 . S
C956 C957 1.384 . S
C956 C958 1.384 . S
C956 H978 0.931 . S
C957 C956 1.384 . S
C957 C960 1.382 . S
C958 C956 1.384 . S
C958 C959 1.381 . S
C958 H979 0.930 . S
C959 C958 1.381 . S
C959 C961 1.381 . S
C959 C962 1.487 . S
C960 C957 1.382 . S
C960 C961 1.387 . S
C960 H980 0.930 . S
C961 C959 1.381 . S
C961 C960 1.387 . S
C961 H981 0.931 . S
C962 C959 1.487 . S
C962 C969 1.399 . S
C962 N987 1.343 . S
C963 C964 1.384 . S
C963 C965 1.384 . S
C963 H982 0.931 . S
C964 C963 1.384 . S
C964 C967 1.382 . S
C965 C963 1.384 . S
C965 C966 1.381 . S
C965 H983 0.930 . S
C966 C965 1.381 . S
C966 C968 1.381 . S
C966 C969 1.487 . S
C967 C964 1.382 . S
C967 C968 1.387 . S
C967 H984 0.930 . S
C968 C966 1.381 . S
C968 C967 1.387 . S
C968 H985 0.931 . S
C969 C962 1.399 . S
C969 C966 1.487 . S
C969 N986 1.343 . S
H970 C942 0.931 . S
H971 C944 0.930 . S
H972 C946 0.930 . S
H973 C947 0.931 . S
H974 C949 0.931 . S
H975 C951 0.930 . S
H976 C953 0.930 . S
H977 C954 0.931 . S
H978 C956 0.931 . S
H979 C958 0.930 . S
H980 C960 0.930 . S
H981 C961 0.931 . S
H982 C963 0.931 . S
H983 C965 0.930 . S
H984 C967 0.930 . S
H985 C968 0.931 . S
N986 C948 1.343 . S
N986 C969 1.343 . S
N987 C955 1.343 . S
N987 C962 1.343 . S
C988 C989 1.384 . S
C988 C990 1.384 . S
C988 H1016 0.931 . S
C989 C988 1.384 . S
C989 C992 1.382 . S
C990 C988 1.384 . S
C990 C991 1.381 . S
C990 H1017 0.930 . S
C991 C990 1.381 . S
C991 C993 1.381 . S
C991 C994 1.487 . S
C992 C989 1.382 . S
C992 C993 1.387 . S
C992 H1018 0.930 . S
C993 C991 1.381 . S
C993 C992 1.387 . S
C993 H1019 0.931 . S
C994 C991 1.487 . S
C994 C1001 1.399 . S
C994 N1032 1.343 . S
C995 C996 1.384 . S
C995 C997 1.384 . S
C995 H1020 0.931 . S
C996 C995 1.384 . S
C996 C999 1.382 . S
C997 C995 1.384 . S
C997 C998 1.381 . S
C997 H1021 0.930 . S
C998 C997 1.381 . S
C998 C1000 1.381 . S
C998 C1001 1.487 . S
C999 C996 1.382 . S
C999 C1000 1.387 . S
C999 H1022 0.930 . S
C1000 C998 1.381 . S
C1000 C999 1.387 . S
C1000 H1023 0.931 . S
C1001 C994 1.399 . S
C1001 C998 1.487 . S
C1001 N1033 1.343 . S
C1002 C1003 1.384 . S
C1002 C1004 1.384 . S
C1002 H1024 0.931 . S
C1003 C1002 1.384 . S
C1003 C1006 1.382 . S
C1004 C1002 1.384 . S
C1004 C1005 1.381 . S
C1004 H1025 0.930 . S
C1005 C1004 1.381 . S
C1005 C1007 1.381 . S
C1005 C1008 1.487 . S
C1006 C1003 1.382 . S
C1006 C1007 1.387 . S
C1006 H1026 0.930 . S
C1007 C1005 1.381 . S
C1007 C1006 1.387 . S
C1007 H1027 0.931 . S
C1008 C1005 1.487 . S
C1008 C1015 1.399 . S
C1008 N1033 1.343 . S
C1009 C1010 1.384 . S
C1009 C1011 1.384 . S
C1009 H1028 0.931 . S
C1010 C1009 1.384 . S
C1010 C1013 1.382 . S
C1011 C1009 1.384 . S
C1011 C1012 1.381 . S
C1011 H1029 0.930 . S
C1012 C1011 1.381 . S
C1012 C1014 1.381 . S
C1012 C1015 1.487 . S
C1013 C1010 1.382 . S
C1013 C1014 1.387 . S
C1013 H1030 0.930 . S
C1014 C1012 1.381 . S
C1014 C1013 1.387 . S
C1014 H1031 0.931 . S
C1015 C1008 1.399 . S
C1015 C1012 1.487 . S
C1015 N1032 1.343 . S
H1016 C988 0.931 . S
H1017 C990 0.930 . S
H1018 C992 0.930 . S
H1019 C993 0.931 . S
H1020 C995 0.931 . S
H1021 C997 0.930 . S
H1022 C999 0.930 . S
H1023 C1000 0.931 . S
H1024 C1002 0.931 . S
H1025 C1004 0.930 . S
H1026 C1006 0.930 . S
H1027 C1007 0.931 . S
H1028 C1009 0.931 . S
H1029 C1011 0.930 . S
H1030 C1013 0.930 . S
H1031 C1014 0.931 . S
N1032 C994 1.343 . S
N1032 C1015 1.343 . S
N1033 C1001 1.343 . S
N1033 C1008 1.343 . S
C1034 C1035 1.384 . S
C1034 C1036 1.384 . S
C1034 H1062 0.931 . S
C1035 C1034 1.384 . S
C1035 C1038 1.382 . S
C1036 C1034 1.384 . S
C1036 C1037 1.381 . S
C1036 H1063 0.930 . S
C1037 C1036 1.381 . S
C1037 C1039 1.381 . S
C1037 C1040 1.487 . S
C1038 C1035 1.382 . S
C1038 C1039 1.387 . S
C1038 H1064 0.930 . S
C1039 C1037 1.381 . S
C1039 C1038 1.387 . S
C1039 H1065 0.931 . S
C1040 C1037 1.487 . S
C1040 C1047 1.399 . S
C1040 N1078 1.343 . S
C1041 C1042 1.384 . S
C1041 C1043 1.384 . S
C1041 H1066 0.931 . S
C1042 C1041 1.384 . S
C1042 C1045 1.382 . S
C1043 C1041 1.384 . S
C1043 C1044 1.381 . S
C1043 H1067 0.930 . S
C1044 C1043 1.381 . S
C1044 C1046 1.381 . S
C1044 C1047 1.487 . S
C1045 C1042 1.382 . S
C1045 C1046 1.387 . S
C1045 H1068 0.930 . S
C1046 C1044 1.381 . S
C1046 C1045 1.387 . S
C1046 H1069 0.931 . S
C1047 C1040 1.399 . S
C1047 C1044 1.487 . S
C1047 N1079 1.343 . S
C1048 C1049 1.384 . S
C1048 C1050 1.384 . S
C1048 H1070 0.931 . S
C1049 C1048 1.384 . S
C1049 C1052 1.382 . S
C1050 C1048 1.384 . S
C1050 C1051 1.381 . S
C1050 H1071 0.930 . S
C1051 C1050 1.381 . S
C1051 C1053 1.381 . S
C1051 C1054 1.487 . S
C1052 C1049 1.382 . S
C1052 C1053 1.387 . S
C1052 H1072 0.930 . S
C1053 C1051 1.381 . S
C1053 C1052 1.387 . S
C1053 H1073 0.931 . S
C1054 C1051 1.487 . S
C1054 C1061 1.399 . S
C1054 N1079 1.343 . S
C1055 C1056 1.384 . S
C1055 C1057 1.384 . S
C1055 H1074 0.931 . S
C1056 C1055 1.384 . S
C1056 C1059 1.382 . S
C1057 C1055 1.384 . S
C1057 C1058 1.381 . S
C1057 H1075 0.930 . S
C1058 C1057 1.381 . S
C1058 C1060 1.381 . S
C1058 C1061 1.487 . S
C1059 C1056 1.382 . S
C1059 C1060 1.387 . S
C1059 H1076 0.930 . S
C1060 C1058 1.381 . S
C1060 C1059 1.387 . S
C1060 H1077 0.931 . S
C1061 C1054 1.399 . S
C1061 C1058 1.487 . S
C1061 N1078 1.343 . S
H1062 C1034 0.931 . S
H1063 C1036 0.930 . S
H1064 C1038 0.930 . S
H1065 C1039 0.931 . S
H1066 C1041 0.931 . S
H1067 C1043 0.930 . S
H1068 C1045 0.930 . S
H1069 C1046 0.931 . S
H1070 C1048 0.931 . S
H1071 C1050 0.930 . S
H1072 C1052 0.930 . S
H1073 C1053 0.931 . S
H1074 C1055 0.931 . S
H1075 C1057 0.930 . S
H1076 C1059 0.930 . S
H1077 C1060 0.931 . S
N1078 C1040 1.343 . S
N1078 C1061 1.343 . S
N1079 C1047 1.343 . S
N1079 C1054 1.343 . S
C4 C688 1.586 . S
C26 C734 1.662 . S
C766 C32 1.548 . S
C40 C819 1.539 . S
C12 C865 1.616 . S
C18 C904 1.602 . S
C46 C858 1.628 . S
C911 C68 1.689 . S
C812 C74 1.556 . S
C82 C773 1.537 . S
C667 C54 1.573 . S
C60 C713 1.575 . S
C88 C943 1.853 . S
C110 C1010 1.825 . S
C1056 C116 1.726 . S
C124 C267 1.554 . S
C96 C313 1.664 . S
C102 C359 1.714 . S
C130 C306 1.714 . S
C152 C352 1.787 . S
C260 C158 1.705 . S
C1035 C166 1.659 . S
C964 C138 1.696 . S
C989 C144 1.768 . S
C172 C391 1.753 . S
C194 C444 1.831 . S
C200 C490 1.748 . S
C208 C536 1.679 . S
C589 C180 1.667 . S
C635 C186 1.756 . S
C582 C214 1.821 . S
C628 C236 1.817 . S
C242 C543 1.748 . S
C497 C250 1.590 . S
C222 C412 1.700 . S
C451 C228 1.758 . S
C274 C5 1.975 . S
C25 C320 2.272 . S
C366 C33 2.124 . S
C398 C39 2.202 . S
C437 C11 2.270 . S
C483 C19 1.747 . S
C47 C504 1.891 . S
C67 C405 2.206 . S
C75 C458 2.114 . S
C81 C299 2.245 . S
C345 C53 2.351 . S
C61 C253 1.783 . S
C529 C89 1.703 . S
C109 C596 2.208 . S
C117 C642 1.832 . S
C681 C123 1.371 . S
C95 C727 2.064 . S
C103 C759 1.216 . S
C131 C780 1.118 . S
C151 C674 1.448 . S
C720 C159 1.817 . S
C165 C575 2.111 . S
C137 C621 2.160 . S
C550 C145 1.669 . S
C826 C173 1.145 . S
C193 C872 1.369 . S
C201 C897 1.755 . S
C950 C207 2.047 . S
C1003 C179 2.181 . S
C187 C1049 1.721 . S
C215 C1042 1.778 . S
C235 C957 2.152 . S
C996 C243 1.827 . S
C851 C249 1.296 . S
C918 C221 2.003 . S
C229 C805 1.218 . S
