# Generated by pormake.
# Topology csq, (4,8)-cn, num edge types: 1
# Building blocks:
#     Node 0, Type 0, BuildingBlock: MIFKUJ_clean_linker_1, # of connection points: 4
#     Node 1, Type 0, BuildingBlock: MIFKUJ_clean_linker_1, # of connection points: 4
#     Node 2, Type 0, BuildingBlock: MIFKUJ_clean_linker_1, # of connection points: 4
#     Node 3, Type 0, BuildingBlock: MIFKUJ_clean_linker_1, # of connection points: 4
#     Node 4, Type 0, BuildingBlock: MIFKUJ_clean_linker_1, # of connection points: 4
#     Node 5, Type 0, BuildingBlock: MIFKUJ_clean_linker_1, # of connection points: 4
#     Node 6, Type 1, BuildingBlock: TAGTUT_clean_sbu_3, # of connection points: 8
#     Node 7, Type 1, BuildingBlock: TAGTUT_clean_sbu_3, # of connection points: 8
#     Node 8, Type 1, BuildingBlock: TAGTUT_clean_sbu_3, # of connection points: 8
#     Edge 9, Type (0, 1), BuildingBlock: AJUNOK_clean_linker_0, # of connection points: 2
#     Edge 10, Type (0, 1), BuildingBlock: AJUNOK_clean_linker_0, # of connection points: 2
#     Edge 11, Type (0, 1), BuildingBlock: AJUNOK_clean_linker_0, # of connection points: 2
#     Edge 12, Type (0, 1), BuildingBlock: AJUNOK_clean_linker_0, # of connection points: 2
#     Edge 13, Type (0, 1), BuildingBlock: AJUNOK_clean_linker_0, # of connection points: 2
#     Edge 14, Type (0, 1), BuildingBlock: AJUNOK_clean_linker_0, # of connection points: 2
#     Edge 15, Type (0, 1), BuildingBlock: AJUNOK_clean_linker_0, # of connection points: 2
#     Edge 16, Type (0, 1), BuildingBlock: AJUNOK_clean_linker_0, # of connection points: 2
#     Edge 17, Type (0, 1), BuildingBlock: AJUNOK_clean_linker_0, # of connection points: 2
#     Edge 18, Type (0, 1), BuildingBlock: AJUNOK_clean_linker_0, # of connection points: 2
#     Edge 19, Type (0, 1), BuildingBlock: AJUNOK_clean_linker_0, # of connection points: 2
#     Edge 20, Type (0, 1), BuildingBlock: AJUNOK_clean_linker_0, # of connection points: 2
#     Edge 21, Type (0, 1), BuildingBlock: AJUNOK_clean_linker_0, # of connection points: 2
#     Edge 22, Type (0, 1), BuildingBlock: AJUNOK_clean_linker_0, # of connection points: 2
#     Edge 23, Type (0, 1), BuildingBlock: AJUNOK_clean_linker_0, # of connection points: 2
#     Edge 24, Type (0, 1), BuildingBlock: AJUNOK_clean_linker_0, # of connection points: 2
#     Edge 25, Type (0, 1), BuildingBlock: AJUNOK_clean_linker_0, # of connection points: 2
#     Edge 26, Type (0, 1), BuildingBlock: AJUNOK_clean_linker_0, # of connection points: 2
#     Edge 27, Type (0, 1), BuildingBlock: AJUNOK_clean_linker_0, # of connection points: 2
#     Edge 28, Type (0, 1), BuildingBlock: AJUNOK_clean_linker_0, # of connection points: 2
#     Edge 29, Type (0, 1), BuildingBlock: AJUNOK_clean_linker_0, # of connection points: 2
#     Edge 30, Type (0, 1), BuildingBlock: AJUNOK_clean_linker_0, # of connection points: 2
#     Edge 31, Type (0, 1), BuildingBlock: AJUNOK_clean_linker_0, # of connection points: 2
#     Edge 32, Type (0, 1), BuildingBlock: AJUNOK_clean_linker_0, # of connection points: 2
# Relax obj value: 0.028
# Max RMSD: 0.107
# Mean RMSD: 0.042
data_MOF--net-csq--node1-TAGTUT_clean_sbu_3--node2-MIFKUJ_clean_linker_1--edge1-AJUNOK_clean_linker_0
_symmetry_space_group_name_H-M    P1
_symmetry_Int_Tables_number       1
_symmetry_cell_setting            triclinic
loop_
_symmetry_equiv_pos_as_xyz
'x, y, z'
_cell_length_a     50.058774
_cell_length_b     49.453642
_cell_length_c     17.016531
_cell_angle_alpha  92.702393
_cell_angle_beta   92.707731
_cell_angle_gamma 120.02521
loop_
_atom_site_label
_atom_site_type_symbol
_atom_site_fract_x
_atom_site_fract_y
_atom_site_fract_z
_atom_type_partial_charge
H0 H 0.26965 0.44883 0.32815 0.0
H1 H 0.31172 0.44732 0.40189 0.0
H2 H 0.37836 0.53168 0.30251 0.0
H3 H 0.33582 0.53315 0.22794 0.0
H4 H 0.25051 0.49257 0.3212 0.0
H5 H 0.29387 0.44256 0.15359 0.0
H6 H 0.33805 0.44376 0.09404 0.0
H7 H 0.35468 0.52621 0.97918 0.0
H8 H 0.3103 0.52471 0.03841 0.0
H9 H 0.20944 0.49679 0.99651 0.0
H10 H 0.16007 0.47685 0.91807 0.0
H11 H 0.11532 0.40345 0.07482 0.0
H12 H 0.16487 0.42313 0.15262 0.0
H13 H 0.24432 0.4717 0.03077 0.0
H14 H 0.19575 0.51764 0.19055 0.0
H15 H 0.156 0.51952 0.26533 0.0
H16 H 0.14958 0.44456 0.39897 0.0
H17 H 0.1905 0.44418 0.32716 0.0
C18 C 0.29974 0.49121 0.27341 0.0
C19 C 0.29325 0.46739 0.32352 0.0
C20 C 0.31722 0.46645 0.36509 0.0
C21 C 0.34803 0.48952 0.35782 0.0
C22 C 0.35466 0.51369 0.30853 0.0
C23 C 0.33052 0.51466 0.26677 0.0
C24 C 0.27416 0.48895 0.22223 0.0
C25 C 0.2491 0.48826 0.2576 0.0
C26 C 0.27292 0.48383 0.13949 0.0
C27 C 0.29879 0.48357 0.10042 0.0
C28 C 0.30712 0.46096 0.11577 0.0
C29 C 0.33262 0.4619 0.08255 0.0
C30 C 0.35022 0.48539 0.03294 0.0
C31 C 0.34165 0.50787 0.01737 0.0
C32 C 0.31618 0.50693 0.05065 0.0
C33 C 0.19056 0.46192 0.08132 0.0
C34 C 0.18907 0.47625 0.01351 0.0
C35 C 0.16101 0.46472 0.96857 0.0
C36 C 0.1341 0.43872 0.9909 0.0
C37 C 0.1358 0.42367 0.05708 0.0
C38 C 0.16394 0.43508 0.10174 0.0
C39 C 0.22007 0.47446 0.12995 0.0
C40 C 0.2459 0.477 0.09399 0.0
C41 C 0.22202 0.48126 0.21243 0.0
C42 C 0.19615 0.48081 0.25333 0.0
C43 C 0.18558 0.5015 0.23566 0.0
C44 C 0.16261 0.50233 0.27811 0.0
C45 C 0.14928 0.48204 0.33815 0.0
C46 C 0.15952 0.46085 0.35408 0.0
C47 C 0.18284 0.46046 0.31277 0.0
H48 H 0.77547 0.30055 0.97788 0.0
H49 H 0.81012 0.34281 0.89911 0.0
H50 H 0.88849 0.34065 0.00801 0.0
H51 H 0.85397 0.29738 0.08347 0.0
H52 H 0.763 0.24341 0.97243 0.0
H53 H 0.80843 0.32755 0.19589 0.0
H54 H 0.85159 0.36873 0.28394 0.0
H55 H 0.88398 0.30467 0.33236 0.0
H56 H 0.84064 0.26345 0.24568 0.0
H57 H 0.75845 0.17476 0.23502 0.0
H58 H 0.71946 0.12721 0.28963 0.0
H59 H 0.6489 0.14934 0.21966 0.0
H60 H 0.68782 0.19608 0.16186 0.0
H61 H 0.7768 0.23961 0.26163 0.0
H62 H 0.73318 0.15573 0.06853 0.0
H63 H 0.6895 0.10919 1.00066 0.0
H64 H 0.66045 0.16721 0.88446 0.0
H65 H 0.70224 0.21362 0.9609 0.0
C66 C 0.81209 0.29605 0.03792 0.0
C67 C 0.80013 0.30917 0.98502 0.0
C68 C 0.81979 0.33324 0.94009 0.0
C69 C 0.85175 0.34481 0.94819 0.0
C70 C 0.86384 0.33213 1.00165 0.0
C71 C 0.84415 0.30767 0.04538 0.0
C72 C 0.7907 0.26876 0.08039 0.0
C73 C 0.76575 0.24298 0.03589 0.0
C74 C 0.7952 0.26717 0.1627 0.0
C75 C 0.82151 0.29256 0.2138 0.0
C76 C 0.82481 0.3224 0.22551 0.0
C77 C 0.84922 0.34574 0.27617 0.0
C78 C 0.87084 0.33964 0.31497 0.0
C79 C 0.86749 0.3098 0.30322 0.0
C80 C 0.84286 0.28637 0.25369 0.0
C81 C 0.72595 0.1889 0.19509 0.0
C82 C 0.73465 0.16952 0.2325 0.0
C83 C 0.71236 0.14238 0.2634 0.0
C84 C 0.68119 0.13473 0.25938 0.0
C85 C 0.67268 0.1545 0.22288 0.0
C86 C 0.69489 0.18136 0.19085 0.0
C87 C 0.74876 0.21545 0.15406 0.0
C88 C 0.77398 0.24056 0.19837 0.0
C89 C 0.74512 0.21605 0.07145 0.0
C90 C 0.72064 0.18823 0.02161 0.0
C91 C 0.7171 0.15848 0.02964 0.0
C92 C 0.69239 0.1318 0.98923 0.0
C93 C 0.67157 0.13433 0.93596 0.0
C94 C 0.6758 0.16431 0.9257 0.0
C95 C 0.69998 0.19095 0.96845 0.0
H96 H 0.58114 0.74651 0.93152 0.0
H97 H 0.59053 0.71179 0.84327 0.0
H98 H 0.49566 0.6383 0.85234 0.0
H99 H 0.48645 0.67274 0.94106 0.0
H100 H 0.53584 0.7637 0.90106 0.0
H101 H 0.5624 0.70982 0.09217 0.0
H102 H 0.56089 0.6691 0.17166 0.0
H103 H 0.46766 0.64191 0.22461 0.0
H104 H 0.46889 0.68193 0.14329 0.0
H105 H 0.46417 0.76302 0.16103 0.0
H106 H 0.46226 0.79814 0.2647 0.0
H107 H 0.55596 0.86862 0.22877 0.0
H108 H 0.55784 0.8336 0.12522 0.0
H109 H 0.50506 0.74241 0.17395 0.0
H110 H 0.47665 0.79419 0.98874 0.0
H111 H 0.47607 0.83526 0.91493 0.0
H112 H 0.56858 0.86501 0.85062 0.0
H113 H 0.56932 0.82419 0.92548 0.0
C114 C 0.53326 0.71184 0.94337 0.0
C115 C 0.56244 0.72289 0.91431 0.0
C116 C 0.56772 0.70332 0.86372 0.0
C117 C 0.54364 0.67281 0.84062 0.0
C118 C 0.51434 0.66203 0.86861 0.0
C119 C 0.5092 0.6814 0.91997 0.0
C120 C 0.5273 0.73285 0.99383 0.0
C121 C 0.52955 0.75942 0.96127 0.0
C122 C 0.51761 0.72598 0.07079 0.0
C123 C 0.51563 0.69883 0.11067 0.0
C124 C 0.54131 0.69456 0.119 0.0
C125 C 0.54057 0.67151 0.16534 0.0
C126 C 0.51412 0.65218 0.20434 0.0
C127 C 0.48819 0.656 0.19441 0.0
C128 C 0.48895 0.67903 0.14818 0.0
C129 C 0.51098 0.79599 0.13498 0.0
C130 C 0.48409 0.78623 0.17478 0.0
C131 C 0.48309 0.80608 0.23406 0.0
C132 C 0.50911 0.8357 0.25474 0.0
C133 C 0.53581 0.84563 0.21412 0.0
C134 C 0.53671 0.82593 0.15436 0.0
C135 C 0.51388 0.77347 0.08159 0.0
C136 C 0.51108 0.74659 0.11351 0.0
C137 C 0.52265 0.77981 0.00379 0.0
C138 C 0.52318 0.80625 0.96373 0.0
C139 C 0.49702 0.80983 0.95989 0.0
C140 C 0.49655 0.83305 0.9168 0.0
C141 C 0.52227 0.85333 0.87692 0.0
C142 C 0.54853 0.84992 0.88125 0.0
C143 C 0.54892 0.82654 0.92392 0.0
H144 H 0.81724 0.50229 0.18938 0.0
H145 H 0.86715 0.5098 0.24123 0.0
H146 H 0.91457 0.58918 0.10283 0.0
H147 H 0.86449 0.58199 0.05238 0.0
H148 H 0.79216 0.54416 0.18896 0.0
H149 H 0.82277 0.48638 0.00789 0.0
H150 H 0.86463 0.4872 0.93711 0.0
H151 H 0.8696 0.5616 0.80412 0.0
H152 H 0.82823 0.56123 0.87654 0.0
H153 H 0.74626 0.55366 0.88468 0.0
H154 H 0.69977 0.54997 0.82164 0.0
H155 H 0.64394 0.48223 0.98165 0.0
H156 H 0.69078 0.48485 0.0429 0.0
H157 H 0.76637 0.51477 0.90083 0.0
H158 H 0.73679 0.5736 0.07197 0.0
H159 H 0.69904 0.5791 0.14734 0.0
H160 H 0.69632 0.51144 0.30267 0.0
H161 H 0.7336 0.50536 0.22603 0.0
C162 C 0.83739 0.54161 0.11747 0.0
C163 C 0.83841 0.52156 0.17125 0.0
C164 C 0.86679 0.52557 0.19965 0.0
C165 C 0.89447 0.54981 0.17498 0.0
C166 C 0.89346 0.57035 0.12247 0.0
C167 C 0.86502 0.56633 0.09406 0.0
C168 C 0.80739 0.5348 0.07994 0.0
C169 C 0.78617 0.53733 0.12625 0.0
C170 C 0.80021 0.52642 0.99803 0.0
C171 C 0.82242 0.5238 0.94761 0.0
C172 C 0.83264 0.50263 0.96286 0.0
C173 C 0.85649 0.50305 0.92224 0.0
C174 C 0.87039 0.52448 0.86508 0.0
C175 C 0.85948 0.54501 0.8483 0.0
C176 C 0.83562 0.54457 0.88892 0.0
C177 C 0.722 0.51986 0.96907 0.0
C178 C 0.72403 0.53769 0.9057 0.0
C179 C 0.69754 0.53589 0.87051 0.0
C180 C 0.66854 0.51652 0.89861 0.0
C181 C 0.66618 0.49761 0.95986 0.0
C182 C 0.69283 0.4992 0.99482 0.0
C183 C 0.75078 0.52424 0.00958 0.0
C184 C 0.77195 0.52123 0.96376 0.0
C185 C 0.75808 0.5328 0.09182 0.0
C186 C 0.73749 0.53846 0.14208 0.0
C187 C 0.72806 0.55987 0.12211 0.0
C188 C 0.70657 0.56309 0.16528 0.0
C189 C 0.69454 0.54542 0.23019 0.0
C190 C 0.70527 0.52532 0.25286 0.0
C191 C 0.72651 0.52183 0.20909 0.0
H192 H 0.26516 0.87873 0.10415 0.0
H193 H 0.29941 0.92424 0.03416 0.0
H194 H 0.3073 0.86308 0.85906 0.0
H195 H 0.27376 0.81782 0.92977 0.0
H196 H 0.21777 0.78986 0.96983 0.0
H197 H 0.26348 0.85845 0.27274 0.0
H198 H 0.31091 0.89777 0.35079 0.0
H199 H 0.36537 0.87503 0.20137 0.0
H200 H 0.31781 0.83608 0.12208 0.0
H201 H 0.23079 0.73415 0.25383 0.0
H202 H 0.19857 0.69577 0.34452 0.0
H203 H 0.12132 0.70658 0.26671 0.0
H204 H 0.15325 0.74425 0.17521 0.0
H205 H 0.24611 0.79381 0.25517 0.0
H206 H 0.20238 0.70764 0.06026 0.0
H207 H 0.16445 0.6606 0.97722 0.0
H208 H 0.11671 0.7086 0.90351 0.0
H209 H 0.15511 0.75597 0.98538 0.0
C210 C 0.26748 0.84496 0.02305 0.0
C211 C 0.27415 0.87512 0.05045 0.0
C212 C 0.29335 0.90102 0.01012 0.0
C213 C 0.30563 0.89704 0.94097 0.0
C214 C 0.29755 0.86668 0.9113 0.0
C215 C 0.27861 0.84085 0.952 0.0
C216 C 0.24969 0.81784 0.06956 0.0
C217 C 0.22387 0.79074 0.0323 0.0
C218 C 0.25835 0.81844 0.15021 0.0
C219 C 0.2872 0.84453 0.19149 0.0
C220 C 0.28567 0.86231 0.256 0.0
C221 C 0.31269 0.88471 0.30038 0.0
C222 C 0.34163 0.88921 0.28205 0.0
C223 C 0.34325 0.87183 0.21663 0.0
C224 C 0.31621 0.84978 0.17126 0.0
C225 C 0.1941 0.74136 0.20644 0.0
C226 C 0.20682 0.72799 0.25597 0.0
C227 C 0.18862 0.70648 0.30835 0.0
C228 C 0.15754 0.69821 0.31209 0.0
C229 C 0.14514 0.71226 0.26395 0.0
C230 C 0.16321 0.7335 0.21121 0.0
C231 C 0.21387 0.76608 0.156 0.0
C232 C 0.23996 0.79286 0.19267 0.0
C233 C 0.20615 0.76451 0.07416 0.0
C234 C 0.18145 0.73526 0.02961 0.0
C235 C 0.18361 0.70799 0.02684 0.0
C236 C 0.16216 0.68127 0.97889 0.0
C237 C 0.13787 0.68115 0.93375 0.0
C238 C 0.1353 0.70819 0.93769 0.0
C239 C 0.15712 0.73515 0.98454 0.0
H240 H 0.54946 0.23783 0.09751 0.0
H241 H 0.56535 0.20492 0.02456 0.0
H242 H 0.48406 0.12214 0.08762 0.0
H243 H 0.46767 0.15479 0.15793 0.0
H244 H 0.49964 0.23922 0.05307 0.0
H245 H 0.53543 0.21383 0.29205 0.0
H246 H 0.5379 0.17701 0.37903 0.0
H247 H 0.44018 0.13581 0.40699 0.0
H248 H 0.43756 0.17197 0.31775 0.0
H249 H 0.41751 0.24164 0.2874 0.0
H250 H 0.40826 0.2791 0.36483 0.0
H251 H 0.49247 0.35554 0.29182 0.0
H252 H 0.50234 0.31856 0.21719 0.0
H253 H 0.4637 0.23344 0.32129 0.0
H254 H 0.43054 0.26505 0.08996 0.0
H255 H 0.4293 0.30046 0.99577 0.0
H256 H 0.5242 0.33126 0.95195 0.0
H257 H 0.52588 0.2972 0.04864 0.0
C258 C 0.50736 0.19874 0.1331 0.0
C259 C 0.5354 0.21257 0.09694 0.0
C260 C 0.54456 0.1939 0.05574 0.0
C261 C 0.52589 0.16119 0.05092 0.0
C262 C 0.499 0.14738 0.09164 0.0
C263 C 0.48964 0.166 0.13182 0.0
C264 C 0.49492 0.21836 0.16358 0.0
C265 C 0.49227 0.23849 0.11226 0.0
C266 C 0.48395 0.21603 0.23949 0.0
C267 C 0.4862 0.19535 0.29711 0.0
C268 C 0.51454 0.19695 0.31704 0.0
C269 C 0.51603 0.17622 0.36789 0.0
C270 C 0.48928 0.15371 0.4006 0.0
C271 C 0.46117 0.15293 0.38281 0.0
C272 C 0.45968 0.1736 0.33188 0.0
C273 C 0.46042 0.27735 0.24565 0.0
C274 C 0.43367 0.26652 0.28702 0.0
C275 C 0.42839 0.28772 0.33117 0.0
C276 C 0.44977 0.31981 0.33373 0.0
C277 C 0.47574 0.33071 0.28995 0.0
C278 C 0.48116 0.30965 0.24666 0.0
C279 C 0.46921 0.25517 0.21154 0.0
C280 C 0.47099 0.23429 0.26197 0.0
C281 C 0.47971 0.25716 0.13492 0.0
C282 C 0.47838 0.27849 0.07733 0.0
C283 C 0.45117 0.27959 0.06061 0.0
C284 C 0.45031 0.29948 0.0056 0.0
C285 C 0.47654 0.31844 0.96542 0.0
C286 C 0.5036 0.31703 0.98179 0.0
C287 C 0.50451 0.29739 0.03696 0.0
C288 C 0.05634 0.48141 0.53426 0.0
C289 C 0.0355 0.44029 0.8195 0.0
C290 C 0.94929 0.43647 0.77877 0.0
Mg291 Mg 0.02834 0.51937 0.44529 0.0
Mg292 Mg 0.01275 0.56735 0.54994 0.0
O293 O 0.00491 0.52624 0.52918 0.0
Mg294 Mg 0.01441 0.50656 0.61654 0.0
O295 O 0.02397 0.48464 0.69832 0.0
Mg296 Mg 0.00041 0.44045 0.64749 0.0
Mg297 Mg 0.01517 0.48986 0.80162 0.0
C298 C 0.97174 0.53387 0.69058 0.0
O299 O 0.04968 0.55404 0.68961 0.0
O300 O 0.00261 0.53564 0.36072 0.0
O301 O 0.03951 0.54062 0.81454 0.0
O302 O 0.06737 0.56995 0.4601 0.0
O303 O 0.99279 0.56791 0.43655 0.0
O304 O 0.06132 0.60129 0.54639 0.0
O305 O 0.9789 0.45811 0.55401 0.0
O306 O 0.98894 0.46909 0.42951 0.0
C307 C 0.97407 0.44972 0.47987 0.0
C308 C 0.99159 0.55406 0.36974 0.0
O309 O 0.9775 0.5113 0.683 0.0
O310 O 0.02504 0.42887 0.74796 0.0
O311 O 0.98529 0.55856 0.65244 0.0
O312 O 0.95844 0.42528 0.72376 0.0
O313 O 0.03414 0.46356 0.85116 0.0
O314 O 0.96673 0.46394 0.81191 0.0
O315 O 0.05039 0.50374 0.54236 0.0
O316 O 0.04207 0.45661 0.57109 0.0
C317 C 0.07696 0.59687 0.49553 0.0
C318 C 0.05266 0.56118 0.76476 0.0
C319 C 0.5026 0.05438 0.52223 0.0
C320 C 0.58475 0.03132 0.40957 0.0
C321 C 0.5214 0.93607 0.46522 0.0
Mg322 Mg 0.46038 0.02361 0.6657 0.0
Mg323 Mg 0.48241 0.99354 0.8055 0.0
O324 O 0.47248 0.99208 0.69738 0.0
Mg325 Mg 0.50582 0.0018 0.62558 0.0
O326 O 0.53711 0.01214 0.54833 0.0
Mg327 Mg 0.50986 0.99731 0.44726 0.0
Mg328 Mg 0.56419 0.99653 0.56259 0.0
C329 C 0.50796 0.95043 0.74141 0.0
O330 O 0.54707 0.03106 0.7191 0.0
O331 O 0.41968 -0.00152 0.74589 0.0
O332 O 0.58146 0.01702 0.68284 0.0
O333 O 0.49012 0.0596 0.77017 0.0
O334 O 0.43705 0.97913 0.84025 0.0
O335 O 0.51184 0.04068 0.85115 0.0
O336 O 0.4678 0.9739 0.52498 0.0
O337 O 0.43362 0.98824 0.55889 0.0
C338 C 0.44177 0.97286 0.51267 0.0
C339 C 0.41599 0.98347 0.80798 0.0
O340 O 0.50846 0.95877 0.67046 0.0
O341 O 0.55667 0.02389 0.38838 0.0
O342 O 0.50097 0.96242 0.79978 0.0
O343 O 0.511 0.9522 0.4341 0.0
O344 O 0.59192 0.02206 0.47192 0.0
O345 O 0.54114 0.94725 0.52514 0.0
O346 O 0.502 0.04426 0.59044 0.0
O347 O 0.50697 0.04148 0.46131 0.0
C348 C 0.5084 0.06313 0.82986 0.0
C349 C 0.57314 0.03191 0.73038 0.0
C350 C 0.53431 0.56103 0.71767 0.0
C351 C 0.44046 0.47364 0.85283 0.0
C352 C 0.47624 0.41369 0.77533 0.0
Mg353 Mg 0.56479 0.55611 0.5574 0.0
Mg354 Mg 0.5219 0.50243 0.417 0.0
O355 O 0.53756 0.5104 0.52301 0.0
Mg356 Mg 0.50797 0.4964 0.6081 0.0
O357 O 0.48085 0.48453 0.69771 0.0
Mg358 Mg 0.51087 0.49343 0.79041 0.0
Mg359 Mg 0.44513 0.44475 0.69061 0.0
C360 C 0.48003 0.43546 0.48229 0.0
O361 O 0.46745 0.49307 0.53355 0.0
O362 O 0.59744 0.55579 0.46225 0.0
O363 O 0.42751 0.44942 0.57622 0.0
O364 O 0.54222 0.5736 0.46404 0.0
O365 O 0.56585 0.5175 0.36907 0.0
O366 O 0.50655 0.53411 0.38307 0.0
O367 O 0.54502 0.49795 0.69474 0.0
O368 O 0.58604 0.53946 0.65211 0.0
C369 C 0.57402 0.5179 0.69986 0.0
C370 C 0.59289 0.53927 0.39674 0.0
O371 O 0.48837 0.44566 0.55548 0.0
O372 O 0.4702 0.4882 0.86771 0.0
O373 O 0.48842 0.45343 0.42526 0.0
O374 O 0.49565 0.44169 0.80274 0.0
O375 O 0.42682 0.456 0.78936 0.0
O376 O 0.45498 0.4083 0.72198 0.0
O377 O 0.52829 0.54822 0.64722 0.0
O378 O 0.52762 0.54482 0.7776 0.0
C379 C 0.52116 0.56311 0.40673 0.0
C380 C 0.43872 0.4718 0.53016 0.0
C381 C 0.1274 0.48101 0.46883 0.0
C382 C 0.12576 0.48353 0.38671 0.0
C383 C 0.10511 0.4809 0.51595 0.0
C384 C 0.0806 0.48406 0.48349 0.0
H385 H 0.14608 0.47899 0.49724 0.0
H386 H 0.10705 0.47829 0.5785 0.0
S387 S 0.06447 0.49023 0.27243 0.0
N388 N 0.09638 0.48807 0.27494 0.0
N389 N 0.05531 0.48913 0.36465 0.0
C390 C 0.07872 0.4871 0.40211 0.0
C391 C 0.10112 0.4866 0.35352 0.0
C392 C 0.6286 0.08654 0.25491 0.0
C393 C 0.65769 0.10681 0.29568 0.0
C394 C 0.60534 0.06132 0.29076 0.0
C395 C 0.61048 0.05533 0.36832 0.0
H396 H 0.62366 0.09046 0.1952 0.0
H397 H 0.58306 0.04677 0.25798 0.0
S398 S 0.68252 0.10236 0.50115 0.0
N399 N 0.69005 0.11982 0.41823 0.0
N400 N 0.64703 0.0722 0.48503 0.0
C401 C 0.6398 0.07515 0.40902 0.0
C402 C 0.66322 0.10094 0.37286 0.0
C403 C 0.53921 0.63865 0.31509 0.0
C404 C 0.51423 0.62918 0.25806 0.0
C405 C 0.54039 0.61748 0.36534 0.0
C406 C 0.51683 0.58572 0.36024 0.0
H407 H 0.55812 0.66269 0.32085 0.0
H408 H 0.56056 0.62597 0.40678 0.0
S409 S 0.44551 0.54935 0.22324 0.0
N410 N 0.46475 0.58616 0.20128 0.0
N411 N 0.46692 0.5463 0.29526 0.0
C412 C 0.49128 0.57611 0.3047 0.0
C413 C 0.48999 0.59781 0.2539 0.0
C414 C 0.92885 0.52838 0.207 0.0
C415 C 0.92416 0.55414 0.20804 0.0
C416 C 0.95319 0.52959 0.25384 0.0
C417 C 0.97318 0.55649 0.30371 0.0
H418 H 0.91247 0.50654 0.17354 0.0
H419 H 0.95463 0.50849 0.25608 0.0
S420 S 0.97406 0.63197 0.31635 0.0
N421 N 0.94389 0.6086 0.25403 0.0
N422 N 0.98984 0.61096 0.34213 0.0
C423 C 0.97061 0.5834 0.29905 0.0
C424 C 0.94597 0.58221 0.25107 0.0
C425 C 0.37782 0.94257 0.34791 0.0
C426 C 0.36973 0.91105 0.33387 0.0
C427 C 0.40221 0.96284 0.40346 0.0
C428 C 0.41945 0.95234 0.44664 0.0
H429 H 0.36468 0.95139 0.31707 0.0
H430 H 0.40716 0.98675 0.41409 0.0
S431 S 0.40572 0.8713 0.4366 0.0
N432 N 0.37989 0.86991 0.3699 0.0
N433 N 0.42591 0.9081 0.47412 0.0
C434 C 0.41194 0.92101 0.43228 0.0
C435 C 0.38699 0.90033 0.37592 0.0
C436 C 0.46378 0.35292 0.45898 0.0
C437 C 0.44686 0.3427 0.38483 0.0
C438 C 0.47147 0.38201 0.49651 0.0
C439 C 0.46278 0.40161 0.4598 0.0
H440 H 0.47356 0.33976 0.48431 0.0
H441 H 0.48695 0.39048 0.54991 0.0
S442 S 0.41268 0.38213 0.27408 0.0
N443 N 0.41747 0.35164 0.28252 0.0
N444 N 0.43168 0.40636 0.35295 0.0
C445 C 0.4427 0.38982 0.39048 0.0
C446 C 0.43485 0.36027 0.35269 0.0
C447 C 0.49632 0.87076 0.77765 0.0
C448 C 0.52161 0.87823 0.8322 0.0
C449 C 0.4934 0.89431 0.74175 0.0
C450 C 0.51557 0.92609 0.75964 0.0
H451 H 0.47815 0.84659 0.7646 0.0
H452 H 0.47275 0.88772 0.7037 0.0
S453 S 0.58669 0.95818 0.89496 0.0
N454 N 0.56993 0.91984 0.89897 0.0
N455 N 0.5641 0.96389 0.8323 0.0
C456 C 0.54154 0.93381 0.8112 0.0
C457 C 0.5447 0.90992 0.84717 0.0
C458 C 0.61527 0.48819 0.82988 0.0
C459 C 0.64113 0.51637 0.86243 0.0
C460 C 0.59208 0.48855 0.78107 0.0
C461 C 0.59452 0.51711 0.76303 0.0
H462 H 0.61393 0.46597 0.83814 0.0
H463 H 0.57333 0.46658 0.75327 0.0
S464 S 0.6543 0.59657 0.84697 0.0
N465 N 0.66502 0.57294 0.88441 0.0
N466 N 0.62221 0.57371 0.79021 0.0
C467 C 0.6189 0.54513 0.80051 0.0
C468 C 0.64205 0.54473 0.85102 0.0
C469 C 0.1245 0.64018 0.82217 0.0
C470 C 0.11497 0.65251 0.88404 0.0
C471 C 0.10359 0.61155 0.77911 0.0
C472 C 0.07269 0.59403 0.79792 0.0
H473 H 0.14843 0.65244 0.80817 0.0
H474 H 0.11207 0.60228 0.73393 0.0
S475 S 0.03593 0.61689 0.95162 0.0
N476 N 0.07224 0.64588 0.9587 0.0
N477 N 0.03324 0.59184 0.87962 0.0
C478 C 0.06272 0.60667 0.85783 0.0
C479 C 0.08379 0.63598 0.90047 0.0
C480 C 0.53204 0.11514 0.01853 0.0
C481 C 0.53101 0.14129 0.99375 0.0
C482 C 0.52791 0.09112 0.96367 0.0
C483 C 0.52185 0.09222 0.88253 0.0
H484 H 0.53398 0.1123 0.08092 0.0
H485 H 0.52681 0.07044 0.98584 0.0
S486 S 0.52196 0.15823 0.78749 0.0
N487 N 0.52771 0.16901 0.88293 0.0
N488 N 0.51962 0.12368 0.77951 0.0
C489 C 0.52375 0.11966 0.8567 0.0
C490 C 0.52838 0.14428 0.91253 0.0
C491 C 0.3757 0.48705 0.90931 0.0
C492 C 0.37554 0.48485 0.99132 0.0
C493 C 0.39755 0.4844 0.86653 0.0
C494 C 0.42053 0.47979 0.90371 0.0
H495 H 0.35809 0.48979 0.87723 0.0
H496 H 0.3961 0.48548 0.80309 0.0
S497 S 0.43147 0.47401 0.11781 0.0
N498 N 0.40113 0.47887 0.10897 0.0
N499 N 0.44264 0.47428 0.0278 0.0
C500 C 0.4215 0.47864 0.98601 0.0
C501 C 0.39882 0.48092 0.02989 0.0
C502 C 0.89492 0.39899 0.93753 0.0
C503 C 0.87282 0.36974 0.90023 0.0
C504 C 0.91816 0.42152 0.89567 0.0
C505 C 0.92054 0.41526 0.81539 0.0
H506 H 0.89489 0.40404 1.00018 0.0
H507 H 0.93547 0.4432 0.92803 0.0
S508 S 0.86583 0.34321 0.68919 0.0
N509 N 0.85259 0.33655 0.77755 0.0
N510 N 0.89677 0.37864 0.69862 0.0
C511 C 0.89739 0.38667 0.77645 0.0
C512 C 0.8734 0.36394 0.81899 0.0
C513 C 0.92372 0.55502 0.81896 0.0
C514 C 0.89663 0.52597 0.82397 0.0
C515 C 0.9483 0.55725 0.77778 0.0
C516 C 0.94684 0.5305 0.74033 0.0
H517 H 0.92587 0.57625 0.84683 0.0
H518 H 0.96851 0.58017 0.77469 0.0
S519 S 0.88029 0.44918 0.73199 0.0
N520 N 0.86941 0.47005 0.7859 0.0
N521 N 0.91555 0.47415 0.70875 0.0
C522 C 0.92 0.50125 0.74557 0.0
C523 C 0.89494 0.49901 0.7873 0.0
C524 C 0.3575 0.94493 0.95547 0.0
C525 C 0.33064 0.92436 0.90684 0.0
C526 C 0.38462 0.96613 0.92291 0.0
C527 C 0.38565 0.9678 0.8408 0.0
H528 H 0.35831 0.94294 0.01858 0.0
H529 H 0.40545 0.98 0.96195 0.0
S530 S 0.32019 0.92233 0.68918 0.0
N531 N 0.30557 0.90932 0.77363 0.0
N532 N 0.3567 0.94965 0.71217 0.0
C533 C 0.35822 0.94944 0.79205 0.0
C534 C 0.33065 0.92748 0.8252 0.0
C535 C 0.50158 0.37221 0.91738 0.0
C536 C 0.47665 0.3412 0.91048 0.0
C537 C 0.50181 0.39481 0.87038 0.0
C538 C 0.47706 0.3876 0.81417 0.0
H539 H 0.52075 0.37945 0.96143 0.0
H540 H 0.52132 0.41848 0.88023 0.0
S541 S 0.40764 0.30881 0.76668 0.0
N542 N 0.4277 0.30364 0.83823 0.0
N543 N 0.42782 0.34626 0.75048 0.0
C544 C 0.45254 0.35628 0.80408 0.0
C545 C 0.45234 0.33314 0.85223 0.0
C546 C 0.1002 0.42488 0.86654 0.0
C547 C 0.10407 0.42985 0.94929 0.0
C548 C 0.07542 0.42463 0.82426 0.0
C549 C 0.05421 0.42993 0.86371 0.0
H550 H 0.11756 0.42327 0.83421 0.0
H551 H 0.0746 0.42322 0.76038 0.0
S552 S 0.0514 0.43878 0.08017 0.0
N553 N 0.08256 0.43596 0.06952 0.0
N554 N 0.03599 0.43569 0.98988 0.0
C555 C 0.05617 0.43185 0.94659 0.0
C556 C 0.08118 0.43177 0.98957 0.0
C557 C 0.6163 0.10295 0.87874 0.0
C558 C 0.64574 0.10599 0.89039 0.0
C559 C 0.59235 0.0779 0.8307 0.0
C560 C 0.59661 0.05451 0.79301 0.0
H561 H 0.61184 0.12046 0.90552 0.0
H562 H 0.57086 0.07782 0.82021 0.0
S563 S 0.6687 0.05021 0.80895 0.0
N564 N 0.67754 0.08283 0.86187 0.0
N565 N 0.6321 0.03485 0.77596 0.0
C566 C 0.62545 0.05632 0.80786 0.0
C567 C 0.65006 0.08221 0.85541 0.0
C568 C 0.53126 0.63492 0.72435 0.0
C569 C 0.54938 0.65053 0.79511 0.0
C570 C 0.52948 0.60736 0.69267 0.0
C571 C 0.5452 0.59448 0.73233 0.0
H572 H 0.51664 0.64276 0.69682 0.0
H573 H 0.51333 0.59448 0.64183 0.0
S574 S 0.59905 0.62904 0.91274 0.0
N575 N 0.58636 0.65358 0.89782 0.0
N576 N 0.58234 0.60125 0.83962 0.0
C577 C 0.56561 0.61152 0.79871 0.0
C578 C 0.56786 0.63977 0.82997 0.0
C579 C 0.4683 0.09721 0.42168 0.0
C580 C 0.48991 0.12881 0.44514 0.0
C581 C 0.47118 0.07296 0.45253 0.0
C582 C 0.49542 0.07932 0.50897 0.0
H583 H 0.45016 0.09116 0.37536 0.0
H584 H 0.45528 0.04907 0.42887 0.0
S585 S 0.55614 0.1576 0.59647 0.0
N586 N 0.53491 0.16498 0.53339 0.0
N587 N 0.54012 0.11906 0.59143 0.0
C588 C 0.51596 0.11055 0.53703 0.0
C589 C 0.51329 0.1354 0.50496 0.0
C590 C 0.39651 0.48672 0.36336 0.0
C591 C 0.3729 0.48787 0.40246 0.0
C592 C 0.41836 0.48174 0.40476 0.0
C593 C 0.41651 0.47721 0.48552 0.0
H594 H 0.39748 0.48873 0.30032 0.0
H595 H 0.43617 0.48062 0.37338 0.0
S596 S 0.36164 0.48226 0.61596 0.0
N597 N 0.35101 0.48741 0.5272 0.0
N598 N 0.39142 0.47716 0.6045 0.0
C599 C 0.39374 0.47947 0.52545 0.0
C600 C 0.37201 0.48502 0.48394 0.0
C601 C 0.89397 0.37938 0.4321 0.0
C602 C 0.89792 0.365 0.36374 0.0
C603 C 0.91936 0.4054 0.47448 0.0
C604 C 0.94928 0.41816 0.44855 0.0
H605 H 0.87102 0.37093 0.45165 0.0
H606 H 0.91523 0.41674 0.52469 0.0
S607 S 0.97192 0.38783 0.27596 0.0
N608 N 0.93414 0.36415 0.27511 0.0
N609 N 0.98163 0.41334 0.35324 0.0
C610 C 0.95358 0.40311 0.38225 0.0
C611 C 0.92794 0.37645 0.34011 0.0
C612 C 0.53059 0.86943 0.38115 0.0
C613 C 0.50826 0.85706 0.31638 0.0
C614 C 0.53303 0.89333 0.43388 0.0
C615 C 0.51357 0.90596 0.42241 0.0
H616 H 0.547 0.86138 0.38927 0.0
H617 H 0.55156 0.90328 0.48068 0.0
S618 S 0.44984 0.87952 0.26374 0.0
N619 N 0.46508 0.85721 0.24616 0.0
N620 N 0.46963 0.90237 0.34385 0.0
C621 C 0.48993 0.8923 0.36007 0.0
C622 C 0.48732 0.8678 0.30724 0.0
C623 C 0.67249 0.55293 0.3537 0.0
C624 C 0.66946 0.54642 0.27129 0.0
C625 C 0.64815 0.55211 0.39368 0.0
C626 C 0.6197 0.54405 0.35282 0.0
H627 H 0.69372 0.55841 0.38752 0.0
H628 H 0.65124 0.55661 0.45733 0.0
S629 S 0.60049 0.52584 0.13626 0.0
N630 N 0.63625 0.53258 0.15 0.0
N631 N 0.59048 0.53061 0.2247 0.0
C632 C 0.61669 0.5381 0.27015 0.0
C633 C 0.64157 0.53939 0.22951 0.0
C634 C 0.14486 0.67369 0.44184 0.0
C635 C 0.13718 0.6729 0.36054 0.0
C636 C 0.12529 0.64934 0.48729 0.0
C637 C 0.09801 0.62339 0.45182 0.0
H638 H 0.16592 0.69334 0.47037 0.0
H639 H 0.13168 0.65055 0.54961 0.0
S640 S 0.06759 0.61052 0.24158 0.0
N641 N 0.10055 0.64414 0.24726 0.0
N642 N 0.06387 0.5989 0.33168 0.0
C643 C 0.09017 0.62264 0.37082 0.0
C644 C 0.10977 0.64723 0.3253 0.0
loop_
_geom_bond_atom_site_label_1
_geom_bond_atom_site_label_2
_geom_bond_distance
_geom_bond_site_symmetry_2
_ccdc_geom_bond_type
H0 C19 0.949 . S
H1 C20 0.950 . S
H2 C22 0.950 . S
H3 C23 0.950 . S
H4 C25 0.950 . S
H5 C28 0.950 . S
H6 C29 0.950 . S
H7 C31 0.951 1_556 S
H8 C32 0.949 . S
H9 C34 0.949 . S
H10 C35 0.950 1_556 S
H11 C37 0.950 . S
H12 C38 0.950 . S
H13 C40 0.950 . S
H14 C43 0.950 . S
H15 C44 0.950 . S
H16 C46 0.951 . S
H17 C47 0.949 . S
C18 C19 1.376 . S
C18 C23 1.386 . S
C18 C24 1.483 . S
C19 H0 0.949 . S
C19 C18 1.376 . S
C19 C20 1.397 . S
C20 H1 0.950 . S
C20 C19 1.397 . S
C20 C21 1.391 . S
C21 C20 1.391 . S
C21 C22 1.405 . S
C22 H2 0.950 . S
C22 C21 1.405 . S
C22 C23 1.367 . S
C23 H3 0.950 . S
C23 C18 1.386 . S
C23 C22 1.367 . S
C24 C18 1.483 . S
C24 C25 1.382 . S
C24 C26 1.403 . S
C25 H4 0.950 . S
C25 C24 1.382 . S
C25 C41 1.411 . S
C26 C24 1.403 . S
C26 C27 1.489 . S
C26 C40 1.411 . S
C27 C26 1.489 . S
C27 C28 1.383 . S
C27 C32 1.382 . S
C28 H5 0.950 . S
C28 C27 1.383 . S
C28 C29 1.395 . S
C29 H6 0.950 . S
C29 C28 1.395 . S
C29 C30 1.288 . S
C30 C29 1.288 . S
C30 C31 1.392 . S
C31 H7 0.951 1_554 S
C31 C30 1.392 . S
C31 C32 1.392 . S
C32 H8 0.949 . S
C32 C27 1.382 . S
C32 C31 1.392 . S
C33 C34 1.376 . S
C33 C38 1.386 . S
C33 C39 1.483 . S
C34 H9 0.949 . S
C34 C33 1.376 . S
C34 C35 1.397 . S
C35 H10 0.950 1_554 S
C35 C34 1.397 . S
C35 C36 1.391 . S
C36 C35 1.391 . S
C36 C37 1.405 . S
C37 H11 0.950 . S
C37 C36 1.405 . S
C37 C38 1.367 . S
C38 H12 0.950 . S
C38 C33 1.386 . S
C38 C37 1.367 . S
C39 C33 1.483 . S
C39 C40 1.382 . S
C39 C41 1.403 . S
C40 H13 0.950 . S
C40 C26 1.411 . S
C40 C39 1.382 . S
C41 C25 1.411 . S
C41 C39 1.403 . S
C41 C42 1.489 . S
C42 C41 1.489 . S
C42 C43 1.383 . S
C42 C47 1.382 . S
C43 H14 0.950 . S
C43 C42 1.383 . S
C43 C44 1.395 . S
C44 H15 0.950 . S
C44 C43 1.395 . S
C44 C45 1.288 . S
C45 C44 1.288 . S
C45 C46 1.392 . S
C46 H16 0.951 . S
C46 C45 1.392 . S
C46 C47 1.392 . S
C47 H17 0.949 . S
C47 C42 1.382 . S
C47 C46 1.392 . S
H48 C67 0.949 . S
H49 C68 0.950 . S
H50 C70 0.950 . S
H51 C71 0.950 . S
H52 C73 0.950 1_556 S
H53 C76 0.950 . S
H54 C77 0.950 . S
H55 C79 0.951 . S
H56 C80 0.949 . S
H57 C82 0.949 . S
H58 C83 0.950 . S
H59 C85 0.950 . S
H60 C86 0.950 . S
H61 C88 0.950 . S
H62 C91 0.950 . S
H63 C92 0.950 . S
H64 C94 0.951 . S
H65 C95 0.949 . S
C66 C67 1.376 1_554 S
C66 C71 1.386 . S
C66 C72 1.483 . S
C67 H48 0.949 . S
C67 C66 1.376 1_556 S
C67 C68 1.397 . S
C68 H49 0.950 . S
C68 C67 1.397 . S
C68 C69 1.391 . S
C69 C68 1.391 . S
C69 C70 1.405 . S
C70 H50 0.950 . S
C70 C69 1.405 . S
C70 C71 1.367 1_556 S
C71 H51 0.950 . S
C71 C66 1.386 . S
C71 C70 1.367 1_554 S
C72 C66 1.483 . S
C72 C73 1.382 . S
C72 C74 1.403 . S
C73 H52 0.950 1_554 S
C73 C72 1.382 . S
C73 C89 1.411 . S
C74 C72 1.403 . S
C74 C75 1.489 . S
C74 C88 1.411 . S
C75 C74 1.489 . S
C75 C76 1.383 . S
C75 C80 1.382 . S
C76 H53 0.950 . S
C76 C75 1.383 . S
C76 C77 1.395 . S
C77 H54 0.950 . S
C77 C76 1.395 . S
C77 C78 1.288 . S
C78 C77 1.288 . S
C78 C79 1.392 . S
C79 H55 0.951 . S
C79 C78 1.392 . S
C79 C80 1.392 . S
C80 H56 0.949 . S
C80 C75 1.382 . S
C80 C79 1.392 . S
C81 C82 1.376 . S
C81 C86 1.386 . S
C81 C87 1.483 . S
C82 H57 0.949 . S
C82 C81 1.376 . S
C82 C83 1.397 . S
C83 H58 0.950 . S
C83 C82 1.397 . S
C83 C84 1.391 . S
C84 C83 1.391 . S
C84 C85 1.405 . S
C85 H59 0.950 . S
C85 C84 1.405 . S
C85 C86 1.367 . S
C86 H60 0.950 . S
C86 C81 1.386 . S
C86 C85 1.367 . S
C87 C81 1.483 . S
C87 C88 1.382 . S
C87 C89 1.403 . S
C88 H61 0.950 . S
C88 C74 1.411 . S
C88 C87 1.382 . S
C89 C73 1.411 . S
C89 C87 1.403 . S
C89 C90 1.489 . S
C90 C89 1.489 . S
C90 C91 1.383 . S
C90 C95 1.382 1_554 S
C91 H62 0.950 . S
C91 C90 1.383 . S
C91 C92 1.395 1_554 S
C92 H63 0.950 . S
C92 C91 1.395 1_556 S
C92 C93 1.288 . S
C93 C92 1.288 . S
C93 C94 1.392 . S
C94 H64 0.951 . S
C94 C93 1.392 . S
C94 C95 1.392 . S
C95 H65 0.949 . S
C95 C90 1.382 1_556 S
C95 C94 1.392 . S
H96 C115 0.949 . S
H97 C116 0.950 . S
H98 C118 0.950 . S
H99 C119 0.950 . S
H100 C121 0.950 . S
H101 C124 0.950 . S
H102 C125 0.950 . S
H103 C127 0.951 . S
H104 C128 0.949 . S
H105 C130 0.949 . S
H106 C131 0.950 . S
H107 C133 0.950 . S
H108 C134 0.950 . S
H109 C136 0.950 . S
H110 C139 0.950 . S
H111 C140 0.950 . S
H112 C142 0.951 . S
H113 C143 0.949 . S
C114 C115 1.376 . S
C114 C119 1.386 . S
C114 C120 1.483 . S
C115 H96 0.949 . S
C115 C114 1.376 . S
C115 C116 1.397 . S
C116 H97 0.950 . S
C116 C115 1.397 . S
C116 C117 1.391 . S
C117 C116 1.391 . S
C117 C118 1.405 . S
C118 H98 0.950 . S
C118 C117 1.405 . S
C118 C119 1.367 . S
C119 H99 0.950 . S
C119 C114 1.386 . S
C119 C118 1.367 . S
C120 C114 1.483 . S
C120 C121 1.382 . S
C120 C122 1.403 1_556 S
C121 H100 0.950 . S
C121 C120 1.382 . S
C121 C137 1.411 . S
C122 C120 1.403 1_554 S
C122 C123 1.489 . S
C122 C136 1.411 . S
C123 C122 1.489 . S
C123 C124 1.383 . S
C123 C128 1.382 . S
C124 H101 0.950 . S
C124 C123 1.383 . S
C124 C125 1.395 . S
C125 H102 0.950 . S
C125 C124 1.395 . S
C125 C126 1.288 . S
C126 C125 1.288 . S
C126 C127 1.392 . S
C127 H103 0.951 . S
C127 C126 1.392 . S
C127 C128 1.392 . S
C128 H104 0.949 . S
C128 C123 1.382 . S
C128 C127 1.392 . S
C129 C130 1.376 . S
C129 C134 1.386 . S
C129 C135 1.483 . S
C130 H105 0.949 . S
C130 C129 1.376 . S
C130 C131 1.397 . S
C131 H106 0.950 . S
C131 C130 1.397 . S
C131 C132 1.391 . S
C132 C131 1.391 . S
C132 C133 1.405 . S
C133 H107 0.950 . S
C133 C132 1.405 . S
C133 C134 1.367 . S
C134 H108 0.950 . S
C134 C129 1.386 . S
C134 C133 1.367 . S
C135 C129 1.483 . S
C135 C136 1.382 . S
C135 C137 1.403 1_554 S
C136 H109 0.950 . S
C136 C122 1.411 . S
C136 C135 1.382 . S
C137 C121 1.411 . S
C137 C135 1.403 1_556 S
C137 C138 1.489 . S
C138 C137 1.489 . S
C138 C139 1.383 . S
C138 C143 1.382 . S
C139 H110 0.950 . S
C139 C138 1.383 . S
C139 C140 1.395 . S
C140 H111 0.950 . S
C140 C139 1.395 . S
C140 C141 1.288 . S
C141 C140 1.288 . S
C141 C142 1.392 . S
C142 H112 0.951 . S
C142 C141 1.392 . S
C142 C143 1.392 . S
C143 H113 0.949 . S
C143 C138 1.382 . S
C143 C142 1.392 . S
H144 C163 0.949 . S
H145 C164 0.950 . S
H146 C166 0.950 . S
H147 C167 0.950 . S
H148 C169 0.950 . S
H149 C172 0.950 . S
H150 C173 0.950 . S
H151 C175 0.951 . S
H152 C176 0.949 . S
H153 C178 0.949 . S
H154 C179 0.950 . S
H155 C181 0.950 . S
H156 C182 0.950 . S
H157 C184 0.950 . S
H158 C187 0.950 . S
H159 C188 0.950 . S
H160 C190 0.951 . S
H161 C191 0.949 . S
C162 C163 1.376 . S
C162 C167 1.386 . S
C162 C168 1.483 . S
C163 H144 0.949 . S
C163 C162 1.376 . S
C163 C164 1.397 . S
C164 H145 0.950 . S
C164 C163 1.397 . S
C164 C165 1.391 . S
C165 C164 1.391 . S
C165 C166 1.405 . S
C166 H146 0.950 . S
C166 C165 1.405 . S
C166 C167 1.367 . S
C167 H147 0.950 . S
C167 C162 1.386 . S
C167 C166 1.367 . S
C168 C162 1.483 . S
C168 C169 1.382 . S
C168 C170 1.403 1_554 S
C169 H148 0.950 . S
C169 C168 1.382 . S
C169 C185 1.411 . S
C170 C168 1.403 1_556 S
C170 C171 1.489 . S
C170 C184 1.411 . S
C171 C170 1.489 . S
C171 C172 1.383 . S
C171 C176 1.382 . S
C172 H149 0.950 . S
C172 C171 1.383 . S
C172 C173 1.395 . S
C173 H150 0.950 . S
C173 C172 1.395 . S
C173 C174 1.288 . S
C174 C173 1.288 . S
C174 C175 1.392 . S
C175 H151 0.951 . S
C175 C174 1.392 . S
C175 C176 1.392 . S
C176 H152 0.949 . S
C176 C171 1.382 . S
C176 C175 1.392 . S
C177 C178 1.376 . S
C177 C182 1.386 . S
C177 C183 1.483 . S
C178 H153 0.949 . S
C178 C177 1.376 . S
C178 C179 1.397 . S
C179 H154 0.950 . S
C179 C178 1.397 . S
C179 C180 1.391 . S
C180 C179 1.391 . S
C180 C181 1.405 . S
C181 H155 0.950 . S
C181 C180 1.405 . S
C181 C182 1.367 . S
C182 H156 0.950 . S
C182 C177 1.386 . S
C182 C181 1.367 . S
C183 C177 1.483 . S
C183 C184 1.382 . S
C183 C185 1.403 1_556 S
C184 H157 0.950 . S
C184 C170 1.411 . S
C184 C183 1.382 . S
C185 C169 1.411 . S
C185 C183 1.403 1_554 S
C185 C186 1.489 . S
C186 C185 1.489 . S
C186 C187 1.383 . S
C186 C191 1.382 . S
C187 H158 0.950 . S
C187 C186 1.383 . S
C187 C188 1.395 . S
C188 H159 0.950 . S
C188 C187 1.395 . S
C188 C189 1.288 . S
C189 C188 1.288 . S
C189 C190 1.392 . S
C190 H160 0.951 . S
C190 C189 1.392 . S
C190 C191 1.392 . S
C191 H161 0.949 . S
C191 C186 1.382 . S
C191 C190 1.392 . S
H192 C211 0.949 . S
H193 C212 0.950 . S
H194 C214 0.950 1_554 S
H195 C215 0.950 . S
H196 C217 0.950 1_556 S
H197 C220 0.950 . S
H198 C221 0.950 . S
H199 C223 0.951 . S
H200 C224 0.949 . S
H201 C226 0.949 . S
H202 C227 0.950 . S
H203 C229 0.950 . S
H204 C230 0.950 . S
H205 C232 0.950 . S
H206 C235 0.950 . S
H207 C236 0.950 . S
H208 C238 0.951 . S
H209 C239 0.949 . S
C210 C211 1.376 1_554 S
C210 C215 1.386 . S
C210 C216 1.483 . S
C211 H192 0.949 . S
C211 C210 1.376 1_556 S
C211 C212 1.397 . S
C212 H193 0.950 . S
C212 C211 1.397 . S
C212 C213 1.391 . S
C213 C212 1.391 . S
C213 C214 1.405 . S
C214 H194 0.950 1_556 S
C214 C213 1.405 . S
C214 C215 1.367 1_556 S
C215 H195 0.950 . S
C215 C210 1.386 . S
C215 C214 1.367 1_554 S
C216 C210 1.483 . S
C216 C217 1.382 . S
C216 C218 1.403 . S
C217 H196 0.950 1_554 S
C217 C216 1.382 . S
C217 C233 1.411 . S
C218 C216 1.403 . S
C218 C219 1.489 . S
C218 C232 1.411 . S
C219 C218 1.489 . S
C219 C220 1.383 . S
C219 C224 1.382 . S
C220 H197 0.950 . S
C220 C219 1.383 . S
C220 C221 1.395 . S
C221 H198 0.950 . S
C221 C220 1.395 . S
C221 C222 1.288 . S
C222 C221 1.288 . S
C222 C223 1.392 . S
C223 H199 0.951 . S
C223 C222 1.392 . S
C223 C224 1.392 . S
C224 H200 0.949 . S
C224 C219 1.382 . S
C224 C223 1.392 . S
C225 C226 1.376 . S
C225 C230 1.386 . S
C225 C231 1.483 . S
C226 H201 0.949 . S
C226 C225 1.376 . S
C226 C227 1.397 . S
C227 H202 0.950 . S
C227 C226 1.397 . S
C227 C228 1.391 . S
C228 C227 1.391 . S
C228 C229 1.405 . S
C229 H203 0.950 . S
C229 C228 1.405 . S
C229 C230 1.367 . S
C230 H204 0.950 . S
C230 C225 1.386 . S
C230 C229 1.367 . S
C231 C225 1.483 . S
C231 C232 1.382 . S
C231 C233 1.403 . S
C232 H205 0.950 . S
C232 C218 1.411 . S
C232 C231 1.382 . S
C233 C217 1.411 . S
C233 C231 1.403 . S
C233 C234 1.489 . S
C234 C233 1.489 . S
C234 C235 1.383 . S
C234 C239 1.382 1_554 S
C235 H206 0.950 . S
C235 C234 1.383 . S
C235 C236 1.395 1_554 S
C236 H207 0.950 . S
C236 C235 1.395 1_556 S
C236 C237 1.288 . S
C237 C236 1.288 . S
C237 C238 1.392 . S
C238 H208 0.951 . S
C238 C237 1.392 . S
C238 C239 1.392 . S
C239 H209 0.949 . S
C239 C234 1.382 1_556 S
C239 C238 1.392 . S
H240 C259 0.949 . S
H241 C260 0.950 1_556 S
H242 C262 0.950 . S
H243 C263 0.950 . S
H244 C265 0.950 . S
H245 C268 0.950 . S
H246 C269 0.950 . S
H247 C271 0.951 . S
H248 C272 0.949 . S
H249 C274 0.949 . S
H250 C275 0.950 . S
H251 C277 0.950 . S
H252 C278 0.950 . S
H253 C280 0.950 . S
H254 C283 0.950 . S
H255 C284 0.950 . S
H256 C286 0.951 1_556 S
H257 C287 0.949 . S
C258 C259 1.376 . S
C258 C263 1.386 . S
C258 C264 1.483 . S
C259 H240 0.949 . S
C259 C258 1.376 . S
C259 C260 1.397 . S
C260 H241 0.950 1_554 S
C260 C259 1.397 . S
C260 C261 1.391 . S
C261 C260 1.391 . S
C261 C262 1.405 . S
C262 H242 0.950 . S
C262 C261 1.405 . S
C262 C263 1.367 . S
C263 H243 0.950 . S
C263 C258 1.386 . S
C263 C262 1.367 . S
C264 C258 1.483 . S
C264 C265 1.382 . S
C264 C266 1.403 . S
C265 H244 0.950 . S
C265 C264 1.382 . S
C265 C281 1.411 . S
C266 C264 1.403 . S
C266 C267 1.489 . S
C266 C280 1.411 . S
C267 C266 1.489 . S
C267 C268 1.383 . S
C267 C272 1.382 . S
C268 H245 0.950 . S
C268 C267 1.383 . S
C268 C269 1.395 . S
C269 H246 0.950 . S
C269 C268 1.395 . S
C269 C270 1.288 . S
C270 C269 1.288 . S
C270 C271 1.392 . S
C271 H247 0.951 . S
C271 C270 1.392 . S
C271 C272 1.392 . S
C272 H248 0.949 . S
C272 C267 1.382 . S
C272 C271 1.392 . S
C273 C274 1.376 . S
C273 C278 1.386 . S
C273 C279 1.483 . S
C274 H249 0.949 . S
C274 C273 1.376 . S
C274 C275 1.397 . S
C275 H250 0.950 . S
C275 C274 1.397 . S
C275 C276 1.391 . S
C276 C275 1.391 . S
C276 C277 1.405 . S
C277 H251 0.950 . S
C277 C276 1.405 . S
C277 C278 1.367 . S
C278 H252 0.950 . S
C278 C273 1.386 . S
C278 C277 1.367 . S
C279 C273 1.483 . S
C279 C280 1.382 . S
C279 C281 1.403 . S
C280 H253 0.950 . S
C280 C266 1.411 . S
C280 C279 1.382 . S
C281 C265 1.411 . S
C281 C279 1.403 . S
C281 C282 1.489 . S
C282 C281 1.489 . S
C282 C283 1.383 . S
C282 C287 1.382 . S
C283 H254 0.950 . S
C283 C282 1.383 . S
C283 C284 1.395 . S
C284 H255 0.950 . S
C284 C283 1.395 . S
C284 C285 1.288 . S
C285 C284 1.288 . S
C285 C286 1.392 . S
C286 H256 0.951 1_554 S
C286 C285 1.392 . S
C286 C287 1.392 . S
C287 H257 0.949 . S
C287 C282 1.382 . S
C287 C286 1.392 . S
C288 O315 1.312 . S
C288 O316 1.208 . S
C289 O310 1.331 . S
C289 O313 1.244 . S
C290 O312 1.264 . S
C290 O314 1.273 . S
Mg291 O293 1.936 1_455 S
Mg291 O300 2.081 1_455 S
Mg291 O302 2.023 . S
Mg291 O306 2.031 1_455 S
Mg291 O315 2.291 . S
Mg292 O293 1.945 . S
Mg292 O303 1.963 . S
Mg292 O304 1.927 1_655 S
Mg292 O311 2.005 . S
O293 Mg291 1.936 1_655 S
O293 Mg292 1.945 . S
O293 Mg294 1.915 1_655 S
Mg294 O293 1.915 1_455 S
Mg294 O295 1.915 . S
Mg294 O299 2.013 . S
Mg294 O305 2.114 1_455 S
Mg294 O309 2.013 1_455 S
Mg294 O315 2.114 . S
O295 Mg294 1.915 . S
O295 Mg296 1.936 . S
O295 Mg297 1.963 . S
Mg296 O295 1.936 . S
Mg296 O305 2.291 1_455 S
Mg296 O310 2.081 . S
Mg296 O312 2.023 1_455 S
Mg296 O316 2.031 . S
Mg297 O295 1.963 . S
Mg297 O301 1.986 . S
Mg297 O313 1.942 . S
Mg297 O314 1.955 1_455 S
C298 O309 1.191 . S
C298 O311 1.307 . S
O299 Mg294 2.013 . S
O299 C318 1.191 . S
O300 Mg291 2.081 1_655 S
O300 C308 1.331 . S
O301 Mg297 1.986 . S
O301 C318 1.307 . S
O302 Mg291 2.023 . S
O302 C317 1.264 . S
O303 Mg292 1.963 . S
O303 C308 1.244 . S
O304 Mg292 1.927 1_455 S
O304 C317 1.273 . S
O305 Mg294 2.114 1_655 S
O305 Mg296 2.291 1_655 S
O305 C307 1.312 . S
O306 Mg291 2.031 1_655 S
O306 C307 1.208 . S
C307 O305 1.312 . S
C307 O306 1.208 . S
C308 O300 1.331 . S
C308 O303 1.244 . S
O309 Mg294 2.013 1_655 S
O309 C298 1.191 . S
O310 C289 1.331 . S
O310 Mg296 2.081 . S
O311 Mg292 2.005 . S
O311 C298 1.307 . S
O312 C290 1.264 . S
O312 Mg296 2.023 1_655 S
O313 C289 1.244 . S
O313 Mg297 1.942 . S
O314 C290 1.273 . S
O314 Mg297 1.955 1_655 S
O315 C288 1.312 . S
O315 Mg291 2.291 . S
O315 Mg294 2.114 . S
O316 C288 1.208 . S
O316 Mg296 2.031 . S
C317 O302 1.264 . S
C317 O304 1.273 . S
C318 O299 1.191 . S
C318 O301 1.307 . S
C319 O346 1.312 . S
C319 O347 1.208 . S
C320 O341 1.331 . S
C320 O344 1.244 . S
C321 O343 1.264 . S
C321 O345 1.273 . S
Mg322 O324 1.936 1_545 S
Mg322 O331 2.081 1_545 S
Mg322 O333 2.023 . S
Mg322 O337 2.031 1_545 S
Mg322 O346 2.291 . S
Mg323 O324 1.963 . S
Mg323 O334 1.942 . S
Mg323 O335 1.955 1_565 S
Mg323 O342 1.986 . S
O324 Mg322 1.936 1_565 S
O324 Mg323 1.963 . S
O324 Mg325 1.915 1_565 S
Mg325 O324 1.915 1_545 S
Mg325 O326 1.915 . S
Mg325 O330 2.013 . S
Mg325 O336 2.114 1_545 S
Mg325 O340 2.013 1_545 S
Mg325 O346 2.114 . S
O326 Mg325 1.915 . S
O326 Mg327 1.936 . S
O326 Mg328 1.963 . S
Mg327 O326 1.936 . S
Mg327 O336 2.291 1_545 S
Mg327 O341 2.081 . S
Mg327 O343 2.023 1_545 S
Mg327 O347 2.031 . S
Mg328 O326 1.963 . S
Mg328 O332 1.986 . S
Mg328 O344 1.942 . S
Mg328 O345 1.955 1_545 S
C329 O340 1.191 . S
C329 O342 1.307 . S
O330 Mg325 2.013 . S
O330 C349 1.191 . S
O331 Mg322 2.081 1_565 S
O331 C339 1.331 . S
O332 Mg328 1.986 . S
O332 C349 1.307 . S
O333 Mg322 2.023 . S
O333 C348 1.264 . S
O334 Mg323 1.942 . S
O334 C339 1.244 . S
O335 Mg323 1.955 1_545 S
O335 C348 1.273 . S
O336 Mg325 2.114 1_565 S
O336 Mg327 2.291 1_565 S
O336 C338 1.312 . S
O337 Mg322 2.031 1_565 S
O337 C338 1.208 . S
C338 O336 1.312 . S
C338 O337 1.208 . S
C339 O331 1.331 . S
C339 O334 1.244 . S
O340 Mg325 2.013 1_565 S
O340 C329 1.191 . S
O341 C320 1.331 . S
O341 Mg327 2.081 . S
O342 Mg323 1.986 . S
O342 C329 1.307 . S
O343 C321 1.264 . S
O343 Mg327 2.023 1_565 S
O344 C320 1.244 . S
O344 Mg328 1.942 . S
O345 C321 1.273 . S
O345 Mg328 1.955 1_565 S
O346 C319 1.312 . S
O346 Mg322 2.291 . S
O346 Mg325 2.114 . S
O347 C319 1.208 . S
O347 Mg327 2.031 . S
C348 O333 1.264 . S
C348 O335 1.273 . S
C349 O330 1.191 . S
C349 O332 1.307 . S
C350 O377 1.312 . S
C350 O378 1.208 . S
C351 O372 1.331 . S
C351 O375 1.244 . S
C352 O374 1.264 . S
C352 O376 1.273 . S
Mg353 O355 1.936 . S
Mg353 O362 2.081 . S
Mg353 O364 2.023 . S
Mg353 O368 2.031 . S
Mg353 O377 2.291 . S
Mg354 O355 1.963 . S
Mg354 O365 1.942 . S
Mg354 O366 1.955 . S
Mg354 O373 1.986 . S
O355 Mg353 1.936 . S
O355 Mg354 1.963 . S
O355 Mg356 1.915 . S
Mg356 O355 1.915 . S
Mg356 O357 1.915 . S
Mg356 O361 2.013 . S
Mg356 O367 2.114 . S
Mg356 O371 2.013 . S
Mg356 O377 2.114 . S
O357 Mg356 1.915 . S
O357 Mg358 1.936 . S
O357 Mg359 1.963 . S
Mg358 O357 1.936 . S
Mg358 O367 2.291 . S
Mg358 O372 2.081 . S
Mg358 O374 2.023 . S
Mg358 O378 2.031 . S
Mg359 O357 1.963 . S
Mg359 O363 1.986 . S
Mg359 O375 1.942 . S
Mg359 O376 1.955 . S
C360 O371 1.191 . S
C360 O373 1.307 . S
O361 Mg356 2.013 . S
O361 C380 1.191 . S
O362 Mg353 2.081 . S
O362 C370 1.331 . S
O363 Mg359 1.986 . S
O363 C380 1.307 . S
O364 Mg353 2.023 . S
O364 C379 1.264 . S
O365 Mg354 1.942 . S
O365 C370 1.244 . S
O366 Mg354 1.955 . S
O366 C379 1.273 . S
O367 Mg356 2.114 . S
O367 Mg358 2.291 . S
O367 C369 1.312 . S
O368 Mg353 2.031 . S
O368 C369 1.208 . S
C369 O367 1.312 . S
C369 O368 1.208 . S
C370 O362 1.331 . S
C370 O365 1.244 . S
O371 Mg356 2.013 . S
O371 C360 1.191 . S
O372 C351 1.331 . S
O372 Mg358 2.081 . S
O373 Mg354 1.986 . S
O373 C360 1.307 . S
O374 C352 1.264 . S
O374 Mg358 2.023 . S
O375 C351 1.244 . S
O375 Mg359 1.942 . S
O376 C352 1.273 . S
O376 Mg359 1.955 . S
O377 C350 1.312 . S
O377 Mg353 2.291 . S
O377 Mg356 2.114 . S
O378 C350 1.208 . S
O378 Mg358 2.031 . S
C379 O364 1.264 . S
C379 O366 1.273 . S
C380 O361 1.191 . S
C380 O363 1.307 . S
C381 C382 1.369 . S
C381 C383 1.419 . S
C381 H385 0.930 . S
C382 C381 1.369 . S
C382 C391 1.429 . S
C383 C381 1.419 . S
C383 C384 1.363 . S
C383 H386 0.929 . S
C384 C383 1.363 . S
C384 C390 1.428 . S
H385 C381 0.930 . S
H386 C383 0.929 . S
S387 N388 1.613 . S
S387 N389 1.610 . S
N388 S387 1.613 . S
N388 C391 1.350 . S
N389 S387 1.610 . S
N389 C390 1.351 . S
C390 C384 1.428 . S
C390 N389 1.351 . S
C390 C391 1.434 . S
C391 C382 1.429 . S
C391 N388 1.350 . S
C391 C390 1.434 . S
C392 C393 1.369 . S
C392 C394 1.419 . S
C392 H396 0.930 . S
C393 C392 1.369 . S
C393 C402 1.429 . S
C394 C392 1.419 . S
C394 C395 1.363 . S
C394 H397 0.929 . S
C395 C394 1.363 . S
C395 C401 1.428 . S
H396 C392 0.930 . S
H397 C394 0.929 . S
S398 N399 1.613 . S
S398 N400 1.610 . S
N399 S398 1.613 . S
N399 C402 1.350 . S
N400 S398 1.610 . S
N400 C401 1.351 . S
C401 C395 1.428 . S
C401 N400 1.351 . S
C401 C402 1.434 . S
C402 C393 1.429 . S
C402 N399 1.350 . S
C402 C401 1.434 . S
C403 C404 1.369 . S
C403 C405 1.419 . S
C403 H407 0.930 . S
C404 C403 1.369 . S
C404 C413 1.429 . S
C405 C403 1.419 . S
C405 C406 1.363 . S
C405 H408 0.929 . S
C406 C405 1.363 . S
C406 C412 1.428 . S
H407 C403 0.930 . S
H408 C405 0.929 . S
S409 N410 1.613 . S
S409 N411 1.610 . S
N410 S409 1.613 . S
N410 C413 1.350 . S
N411 S409 1.610 . S
N411 C412 1.351 . S
C412 C406 1.428 . S
C412 N411 1.351 . S
C412 C413 1.434 . S
C413 C404 1.429 . S
C413 N410 1.350 . S
C413 C412 1.434 . S
C414 C415 1.369 . S
C414 C416 1.419 . S
C414 H418 0.930 . S
C415 C414 1.369 . S
C415 C424 1.429 . S
C416 C414 1.419 . S
C416 C417 1.363 . S
C416 H419 0.929 . S
C417 C416 1.363 . S
C417 C423 1.428 . S
H418 C414 0.930 . S
H419 C416 0.929 . S
S420 N421 1.613 . S
S420 N422 1.610 . S
N421 S420 1.613 . S
N421 C424 1.350 . S
N422 S420 1.610 . S
N422 C423 1.351 . S
C423 C417 1.428 . S
C423 N422 1.351 . S
C423 C424 1.434 . S
C424 C415 1.429 . S
C424 N421 1.350 . S
C424 C423 1.434 . S
C425 C426 1.369 . S
C425 C427 1.419 . S
C425 H429 0.930 . S
C426 C425 1.369 . S
C426 C435 1.429 . S
C427 C425 1.419 . S
C427 C428 1.363 . S
C427 H430 0.929 . S
C428 C427 1.363 . S
C428 C434 1.428 . S
H429 C425 0.930 . S
H430 C427 0.929 . S
S431 N432 1.613 . S
S431 N433 1.610 . S
N432 S431 1.613 . S
N432 C435 1.350 . S
N433 S431 1.610 . S
N433 C434 1.351 . S
C434 C428 1.428 . S
C434 N433 1.351 . S
C434 C435 1.434 . S
C435 C426 1.429 . S
C435 N432 1.350 . S
C435 C434 1.434 . S
C436 C437 1.369 . S
C436 C438 1.419 . S
C436 H440 0.930 . S
C437 C436 1.369 . S
C437 C446 1.429 . S
C438 C436 1.419 . S
C438 C439 1.363 . S
C438 H441 0.929 . S
C439 C438 1.363 . S
C439 C445 1.428 . S
H440 C436 0.930 . S
H441 C438 0.929 . S
S442 N443 1.613 . S
S442 N444 1.610 . S
N443 S442 1.613 . S
N443 C446 1.350 . S
N444 S442 1.610 . S
N444 C445 1.351 . S
C445 C439 1.428 . S
C445 N444 1.351 . S
C445 C446 1.434 . S
C446 C437 1.429 . S
C446 N443 1.350 . S
C446 C445 1.434 . S
C447 C448 1.369 . S
C447 C449 1.419 . S
C447 H451 0.930 . S
C448 C447 1.369 . S
C448 C457 1.429 . S
C449 C447 1.419 . S
C449 C450 1.363 . S
C449 H452 0.929 . S
C450 C449 1.363 . S
C450 C456 1.428 . S
H451 C447 0.930 . S
H452 C449 0.929 . S
S453 N454 1.613 . S
S453 N455 1.610 . S
N454 S453 1.613 . S
N454 C457 1.350 . S
N455 S453 1.610 . S
N455 C456 1.351 . S
C456 C450 1.428 . S
C456 N455 1.351 . S
C456 C457 1.434 . S
C457 C448 1.429 . S
C457 N454 1.350 . S
C457 C456 1.434 . S
C458 C459 1.369 . S
C458 C460 1.419 . S
C458 H462 0.930 . S
C459 C458 1.369 . S
C459 C468 1.429 . S
C460 C458 1.419 . S
C460 C461 1.363 . S
C460 H463 0.929 . S
C461 C460 1.363 . S
C461 C467 1.428 . S
H462 C458 0.930 . S
H463 C460 0.929 . S
S464 N465 1.613 . S
S464 N466 1.610 . S
N465 S464 1.613 . S
N465 C468 1.350 . S
N466 S464 1.610 . S
N466 C467 1.351 . S
C467 C461 1.428 . S
C467 N466 1.351 . S
C467 C468 1.434 . S
C468 C459 1.429 . S
C468 N465 1.350 . S
C468 C467 1.434 . S
C469 C470 1.369 . S
C469 C471 1.419 . S
C469 H473 0.930 . S
C470 C469 1.369 . S
C470 C479 1.429 . S
C471 C469 1.419 . S
C471 C472 1.363 . S
C471 H474 0.929 . S
C472 C471 1.363 . S
C472 C478 1.428 . S
H473 C469 0.930 . S
H474 C471 0.929 . S
S475 N476 1.613 . S
S475 N477 1.610 . S
N476 S475 1.613 . S
N476 C479 1.350 . S
N477 S475 1.610 . S
N477 C478 1.351 . S
C478 C472 1.428 . S
C478 N477 1.351 . S
C478 C479 1.434 . S
C479 C470 1.429 . S
C479 N476 1.350 . S
C479 C478 1.434 . S
C480 C481 1.369 . S
C480 C482 1.419 . S
C480 H484 0.930 1_556 S
C481 C480 1.369 . S
C481 C490 1.429 . S
C482 C480 1.419 . S
C482 C483 1.363 . S
C482 H485 0.929 . S
C483 C482 1.363 . S
C483 C489 1.428 . S
H484 C480 0.930 1_554 S
H485 C482 0.929 . S
S486 N487 1.613 . S
S486 N488 1.610 . S
N487 S486 1.613 . S
N487 C490 1.350 . S
N488 S486 1.610 . S
N488 C489 1.351 . S
C489 C483 1.428 . S
C489 N488 1.351 . S
C489 C490 1.434 . S
C490 C481 1.429 . S
C490 N487 1.350 . S
C490 C489 1.434 . S
C491 C492 1.369 . S
C491 C493 1.419 . S
C491 H495 0.930 . S
C492 C491 1.369 . S
C492 C501 1.429 . S
C493 C491 1.419 . S
C493 C494 1.363 . S
C493 H496 0.929 . S
C494 C493 1.363 . S
C494 C500 1.428 . S
H495 C491 0.930 . S
H496 C493 0.929 . S
S497 N498 1.613 . S
S497 N499 1.610 1_554 S
N498 S497 1.613 . S
N498 C501 1.350 1_554 S
N499 S497 1.610 1_556 S
N499 C500 1.351 . S
C500 C494 1.428 . S
C500 N499 1.351 . S
C500 C501 1.434 . S
C501 C492 1.429 . S
C501 N498 1.350 1_556 S
C501 C500 1.434 . S
C502 C503 1.369 . S
C502 C504 1.419 . S
C502 H506 0.930 . S
C503 C502 1.369 . S
C503 C512 1.429 . S
C504 C502 1.419 . S
C504 C505 1.363 . S
C504 H507 0.929 . S
C505 C504 1.363 . S
C505 C511 1.428 . S
H506 C502 0.930 . S
H507 C504 0.929 . S
S508 N509 1.613 . S
S508 N510 1.610 . S
N509 S508 1.613 . S
N509 C512 1.350 . S
N510 S508 1.610 . S
N510 C511 1.351 . S
C511 C505 1.428 . S
C511 N510 1.351 . S
C511 C512 1.434 . S
C512 C503 1.429 . S
C512 N509 1.350 . S
C512 C511 1.434 . S
C513 C514 1.369 . S
C513 C515 1.419 . S
C513 H517 0.930 . S
C514 C513 1.369 . S
C514 C523 1.429 . S
C515 C513 1.419 . S
C515 C516 1.363 . S
C515 H518 0.929 . S
C516 C515 1.363 . S
C516 C522 1.428 . S
H517 C513 0.930 . S
H518 C515 0.929 . S
S519 N520 1.613 . S
S519 N521 1.610 . S
N520 S519 1.613 . S
N520 C523 1.350 . S
N521 S519 1.610 . S
N521 C522 1.351 . S
C522 C516 1.428 . S
C522 N521 1.351 . S
C522 C523 1.434 . S
C523 C514 1.429 . S
C523 N520 1.350 . S
C523 C522 1.434 . S
C524 C525 1.369 . S
C524 C526 1.419 . S
C524 H528 0.930 . S
C525 C524 1.369 . S
C525 C534 1.429 . S
C526 C524 1.419 . S
C526 C527 1.363 . S
C526 H529 0.929 . S
C527 C526 1.363 . S
C527 C533 1.428 . S
H528 C524 0.930 . S
H529 C526 0.929 . S
S530 N531 1.613 . S
S530 N532 1.610 . S
N531 S530 1.613 . S
N531 C534 1.350 . S
N532 S530 1.610 . S
N532 C533 1.351 . S
C533 C527 1.428 . S
C533 N532 1.351 . S
C533 C534 1.434 . S
C534 C525 1.429 . S
C534 N531 1.350 . S
C534 C533 1.434 . S
C535 C536 1.369 . S
C535 C537 1.419 . S
C535 H539 0.930 . S
C536 C535 1.369 . S
C536 C545 1.429 . S
C537 C535 1.419 . S
C537 C538 1.363 . S
C537 H540 0.929 . S
C538 C537 1.363 . S
C538 C544 1.428 . S
H539 C535 0.930 . S
H540 C537 0.929 . S
S541 N542 1.613 . S
S541 N543 1.610 . S
N542 S541 1.613 . S
N542 C545 1.350 . S
N543 S541 1.610 . S
N543 C544 1.351 . S
C544 C538 1.428 . S
C544 N543 1.351 . S
C544 C545 1.434 . S
C545 C536 1.429 . S
C545 N542 1.350 . S
C545 C544 1.434 . S
C546 C547 1.369 . S
C546 C548 1.419 . S
C546 H550 0.930 . S
C547 C546 1.369 . S
C547 C556 1.429 . S
C548 C546 1.419 . S
C548 C549 1.363 . S
C548 H551 0.929 . S
C549 C548 1.363 . S
C549 C555 1.428 . S
H550 C546 0.930 . S
H551 C548 0.929 . S
S552 N553 1.613 . S
S552 N554 1.610 . S
N553 S552 1.613 . S
N553 C556 1.350 . S
N554 S552 1.610 . S
N554 C555 1.351 . S
C555 C549 1.428 . S
C555 N554 1.351 . S
C555 C556 1.434 . S
C556 C547 1.429 . S
C556 N553 1.350 . S
C556 C555 1.434 . S
C557 C558 1.369 . S
C557 C559 1.419 . S
C557 H561 0.930 . S
C558 C557 1.369 . S
C558 C567 1.429 . S
C559 C557 1.419 . S
C559 C560 1.363 . S
C559 H562 0.929 . S
C560 C559 1.363 . S
C560 C566 1.428 . S
H561 C557 0.930 . S
H562 C559 0.929 . S
S563 N564 1.613 . S
S563 N565 1.610 . S
N564 S563 1.613 . S
N564 C567 1.350 . S
N565 S563 1.610 . S
N565 C566 1.351 . S
C566 C560 1.428 . S
C566 N565 1.351 . S
C566 C567 1.434 . S
C567 C558 1.429 . S
C567 N564 1.350 . S
C567 C566 1.434 . S
C568 C569 1.369 . S
C568 C570 1.419 . S
C568 H572 0.930 . S
C569 C568 1.369 . S
C569 C578 1.429 . S
C570 C568 1.419 . S
C570 C571 1.363 . S
C570 H573 0.929 . S
C571 C570 1.363 . S
C571 C577 1.428 . S
H572 C568 0.930 . S
H573 C570 0.929 . S
S574 N575 1.613 . S
S574 N576 1.610 . S
N575 S574 1.613 . S
N575 C578 1.350 . S
N576 S574 1.610 . S
N576 C577 1.351 . S
C577 C571 1.428 . S
C577 N576 1.351 . S
C577 C578 1.434 . S
C578 C569 1.429 . S
C578 N575 1.350 . S
C578 C577 1.434 . S
C579 C580 1.369 . S
C579 C581 1.419 . S
C579 H583 0.930 . S
C580 C579 1.369 . S
C580 C589 1.429 . S
C581 C579 1.419 . S
C581 C582 1.363 . S
C581 H584 0.929 . S
C582 C581 1.363 . S
C582 C588 1.428 . S
H583 C579 0.930 . S
H584 C581 0.929 . S
S585 N586 1.613 . S
S585 N587 1.610 . S
N586 S585 1.613 . S
N586 C589 1.350 . S
N587 S585 1.610 . S
N587 C588 1.351 . S
C588 C582 1.428 . S
C588 N587 1.351 . S
C588 C589 1.434 . S
C589 C580 1.429 . S
C589 N586 1.350 . S
C589 C588 1.434 . S
C590 C591 1.369 . S
C590 C592 1.419 . S
C590 H594 0.930 . S
C591 C590 1.369 . S
C591 C600 1.429 . S
C592 C590 1.419 . S
C592 C593 1.363 . S
C592 H595 0.929 . S
C593 C592 1.363 . S
C593 C599 1.428 . S
H594 C590 0.930 . S
H595 C592 0.929 . S
S596 N597 1.613 . S
S596 N598 1.610 . S
N597 S596 1.613 . S
N597 C600 1.350 . S
N598 S596 1.610 . S
N598 C599 1.351 . S
C599 C593 1.428 . S
C599 N598 1.351 . S
C599 C600 1.434 . S
C600 C591 1.429 . S
C600 N597 1.350 . S
C600 C599 1.434 . S
C601 C602 1.369 . S
C601 C603 1.419 . S
C601 H605 0.930 . S
C602 C601 1.369 . S
C602 C611 1.429 . S
C603 C601 1.419 . S
C603 C604 1.363 . S
C603 H606 0.929 . S
C604 C603 1.363 . S
C604 C610 1.428 . S
H605 C601 0.930 . S
H606 C603 0.929 . S
S607 N608 1.613 . S
S607 N609 1.610 . S
N608 S607 1.613 . S
N608 C611 1.350 . S
N609 S607 1.610 . S
N609 C610 1.351 . S
C610 C604 1.428 . S
C610 N609 1.351 . S
C610 C611 1.434 . S
C611 C602 1.429 . S
C611 N608 1.350 . S
C611 C610 1.434 . S
C612 C613 1.369 . S
C612 C614 1.419 . S
C612 H616 0.930 . S
C613 C612 1.369 . S
C613 C622 1.429 . S
C614 C612 1.419 . S
C614 C615 1.363 . S
C614 H617 0.929 . S
C615 C614 1.363 . S
C615 C621 1.428 . S
H616 C612 0.930 . S
H617 C614 0.929 . S
S618 N619 1.613 . S
S618 N620 1.610 . S
N619 S618 1.613 . S
N619 C622 1.350 . S
N620 S618 1.610 . S
N620 C621 1.351 . S
C621 C615 1.428 . S
C621 N620 1.351 . S
C621 C622 1.434 . S
C622 C613 1.429 . S
C622 N619 1.350 . S
C622 C621 1.434 . S
C623 C624 1.369 . S
C623 C625 1.419 . S
C623 H627 0.930 . S
C624 C623 1.369 . S
C624 C633 1.429 . S
C625 C623 1.419 . S
C625 C626 1.363 . S
C625 H628 0.929 . S
C626 C625 1.363 . S
C626 C632 1.428 . S
H627 C623 0.930 . S
H628 C625 0.929 . S
S629 N630 1.613 . S
S629 N631 1.610 . S
N630 S629 1.613 . S
N630 C633 1.350 . S
N631 S629 1.610 . S
N631 C632 1.351 . S
C632 C626 1.428 . S
C632 N631 1.351 . S
C632 C633 1.434 . S
C633 C624 1.429 . S
C633 N630 1.350 . S
C633 C632 1.434 . S
C634 C635 1.369 . S
C634 C636 1.419 . S
C634 H638 0.930 . S
C635 C634 1.369 . S
C635 C644 1.429 . S
C636 C634 1.419 . S
C636 C637 1.363 . S
C636 H639 0.929 . S
C637 C636 1.363 . S
C637 C643 1.428 . S
H638 C634 0.930 . S
H639 C636 0.929 . S
S640 N641 1.613 . S
S640 N642 1.610 . S
N641 S640 1.613 . S
N641 C644 1.350 . S
N642 S640 1.610 . S
N642 C643 1.351 . S
C643 C637 1.428 . S
C643 N642 1.351 . S
C643 C644 1.434 . S
C644 C635 1.429 . S
C644 N641 1.350 . S
C644 C643 1.434 . S
C382 C45 1.885 . S
C384 C288 1.747 . S
C393 C84 1.578 . S
C395 C320 1.535 . S
C406 C379 1.839 . S
C404 C126 1.860 . S
C417 C308 1.425 . S
C415 C165 1.466 . S
C426 C222 1.723 . S
C428 C338 1.639 . S
C439 C360 1.379 . S
C437 C276 1.378 . S
C450 C329 1.767 . S
C448 C141 1.806 . S
C459 C180 1.468 . S
C461 C369 1.368 . S
C472 C318 1.678 . S
C470 C237 1.739 . S
C481 C261 1.531 1_556 S
C483 C348 1.491 . S
C492 C30 1.789 1_556 S
C494 C351 1.766 . S
C505 C290 1.604 . S
C503 C69 1.628 . S
C516 C298 1.707 . S
C514 C174 1.798 . S
C527 C339 1.516 . S
C525 C213 1.545 . S
C538 C352 1.848 . S
C536 C285 1.876 1_556 S
C549 C289 1.439 . S
C547 C36 1.481 1_556 S
C560 C349 1.606 . S
C558 C93 1.642 . S
C569 C117 1.394 . S
C571 C350 1.354 . S
C582 C319 1.713 . S
C580 C270 1.791 . S
C593 C380 1.353 . S
C591 C21 1.417 . S
C604 C307 1.621 . S
C602 C78 1.726 . S
C615 C321 1.516 . S
C613 C132 1.562 . S
C624 C189 1.788 . S
C626 C370 1.761 . S
C635 C228 1.632 . S
C637 C317 1.608 . S
