# Generated by pormake.
# Topology anh, (6,3)-cn, num edge types: 1
# Building blocks:
#     Node 0, Type 0, BuildingBlock: BETDIP_clean_sbu_0, # of connection points: 6
#     Node 1, Type 0, BuildingBlock: BETDIP_clean_sbu_0, # of connection points: 6
#     Node 2, Type 0, BuildingBlock: BETDIP_clean_sbu_0, # of connection points: 6
#     Node 3, Type 1, BuildingBlock: MIDCAF_clean_linker_0, # of connection points: 3
#     Node 4, Type 1, BuildingBlock: MIDCAF_clean_linker_0, # of connection points: 3
#     Node 5, Type 1, BuildingBlock: MIDCAF_clean_linker_0, # of connection points: 3
#     Node 6, Type 1, BuildingBlock: MIDCAF_clean_linker_0, # of connection points: 3
#     Node 7, Type 1, BuildingBlock: MIDCAF_clean_linker_0, # of connection points: 3
#     Node 8, Type 1, BuildingBlock: MIDCAF_clean_linker_0, # of connection points: 3
#     Edge 9, Type (0, 1), None
#     Edge 10, Type (0, 1), None
#     Edge 11, Type (0, 1), None
#     Edge 12, Type (0, 1), None
#     Edge 13, Type (0, 1), None
#     Edge 14, Type (0, 1), None
#     Edge 15, Type (0, 1), None
#     Edge 16, Type (0, 1), None
#     Edge 17, Type (0, 1), None
#     Edge 18, Type (0, 1), None
#     Edge 19, Type (0, 1), None
#     Edge 20, Type (0, 1), None
#     Edge 21, Type (0, 1), None
#     Edge 22, Type (0, 1), None
#     Edge 23, Type (0, 1), None
#     Edge 24, Type (0, 1), None
#     Edge 25, Type (0, 1), None
#     Edge 26, Type (0, 1), None
# Relax obj value: 0.462
# Max RMSD: 0.214
# Mean RMSD: 0.181
data_MOF--net-anh--node1-BETDIP_clean_sbu_0--node2-MIDCAF_clean_linker_0--edge1-none
_symmetry_space_group_name_H-M    P1
_symmetry_Int_Tables_number       1
_symmetry_cell_setting            triclinic
loop_
_symmetry_equiv_pos_as_xyz
'x, y, z'
_cell_length_a     19.946144
_cell_length_b     19.970514
_cell_length_c     37.028461
_cell_angle_alpha  90.046824
_cell_angle_beta   89.947589
_cell_angle_gamma 120.03368
loop_
_atom_site_label
_atom_site_type_symbol
_atom_site_fract_x
_atom_site_fract_y
_atom_site_fract_z
_atom_type_partial_charge
Tb0 Tb 0.23493 0.66989 0.13954 0.0
Tb1 Tb 1.1513 0.50921 0.15503 0.0
C2 C 0.28861 0.81303 0.14189 0.0
C3 C 0.26363 0.86398 0.15863 0.0
C4 C 0.26116 0.86945 0.19633 0.0
C5 C 0.25345 0.92855 0.21203 0.0
C6 C 0.24769 0.98356 0.1904 0.0
C7 C 0.23883 0.97079 0.15282 0.0
C8 C 0.2481 0.91228 0.13703 0.0
C9 C 0.19962 0.57909 0.08283 0.0
C10 C 0.33962 0.59149 0.13746 0.0
C11 C 1.07533 0.3652 0.15675 0.0
C12 C 0.99026 0.3219 0.16139 0.0
C13 C 0.94226 0.32297 0.13368 0.0
C14 C 0.87139 0.3175 0.14212 0.0
C15 C 0.84815 0.31109 0.17826 0.0
C16 C 0.88983 0.29727 0.20492 0.0
C17 C 0.95998 0.30168 0.19647 0.0
C18 C 1.169 0.59283 0.21407 0.0
C19 C 1.04601 0.58721 0.14056 0.0
O20 O 0.24703 0.77018 0.11492 0.0
O21 O 0.30946 0.77561 0.16402 0.0
O22 O 1.15815 0.57218 0.10929 0.0
O23 O 0.26558 0.64243 0.0861 0.0
O24 O 0.33961 0.65801 0.13635 0.0
O25 O 0.27215 0.5264 0.14411 0.0
O26 O 1.10052 0.40407 0.1266 0.0
O27 O 1.11415 0.40701 0.18465 0.0
O28 O 0.22105 0.60822 0.19012 0.0
O29 O 1.10685 0.53085 0.20422 0.0
O30 O 1.04724 0.5209 0.1414 0.0
O31 O 1.11392 0.65286 0.14372 0.0
H32 H 0.27068 0.8316 0.21387 0.0
H33 H 0.26019 0.93497 0.24102 0.0
H34 H 0.23118 1.00978 0.13527 0.0
H35 H 0.24759 0.90773 0.10786 0.0
H36 H 0.96296 0.33667 0.10611 0.0
H37 H 0.83895 0.32606 0.12097 0.0
H38 H 0.87114 0.28904 0.23286 0.0
H39 H 0.99466 0.29871 0.21824 0.0
Tb40 Tb 0.73072 0.12334 0.47289 0.0
Tb41 Tb 0.6533 0.20649 0.48867 0.0
C42 C 0.82045 1.06987 0.47486 0.0
C43 C 0.89648 1.09463 0.49146 0.0
C44 C 0.9046 1.09714 0.52914 0.0
C45 C 0.97141 1.10448 0.54471 0.0
C46 C 1.03199 1.10985 0.52295 0.0
C47 C 1.02798 1.1187 0.48539 0.0
C48 C 0.96019 1.10979 0.46974 0.0
C49 C 0.67488 0.15866 0.41634 0.0
C50 C 0.54744 1.01844 0.47101 0.0
C51 C 0.58491 0.28212 0.49066 0.0
C52 C 0.62664 0.3671 0.49527 0.0
C53 C 0.67523 0.41505 0.4674 0.0
C54 C 0.74078 0.48588 0.47565 0.0
C55 C 0.75823 0.50915 0.51176 0.0
C56 C 0.70314 0.4675 0.53863 0.0
C57 C 0.63725 0.39738 0.53037 0.0
C58 C 0.71962 0.1889 0.54755 0.0
C59 C 0.83673 0.31202 0.47404 0.0
O60 O 0.81911 1.11165 0.44803 0.0
O61 O 0.76214 1.04884 0.49708 0.0
O62 O 0.70948 0.2 0.44281 0.0
O63 O 0.67239 1.09283 0.41952 0.0
O64 O 0.61414 1.01863 0.46978 0.0
O65 O 0.54966 1.08573 0.47777 0.0
O66 O 0.5985 0.257 0.46044 0.0
O67 O 0.58815 0.2434 0.5185 0.0
O68 O 0.68293 0.13692 0.5236 0.0
O69 O 0.71957 0.2509 0.53778 0.0
O70 O 0.76902 0.31061 0.47496 0.0
O71 O 0.83465 0.24427 0.47713 0.0
H72 H 0.85733 1.0879 0.54677 0.0
H73 H 0.97119 1.09778 0.5737 0.0
H74 H 1.0745 0.12607 0.46775 0.0
H75 H 0.95602 1.11026 0.44058 0.0
H76 H 0.66778 0.39436 0.43983 0.0
H77 H 0.78146 0.5183 0.45435 0.0
H78 H 0.71404 0.4862 0.56655 0.0
H79 H 0.59995 0.36274 0.55227 0.0
Tb80 Tb 0.68956 0.62793 0.80597 0.0
Tb81 Tb 0.85029 0.70522 0.82158 0.0
C82 C 0.54622 0.53826 0.80816 0.0
C83 C 0.49511 0.46238 0.82489 0.0
C84 C 0.48961 0.45452 0.86258 0.0
C85 C 0.4303 0.38779 0.87827 0.0
C86 C 0.37511 0.32702 0.85663 0.0
C87 C 0.38792 0.33082 0.81905 0.0
C88 C 0.44664 0.39853 0.80328 0.0
C89 C 0.78069 0.68352 0.74932 0.0
C90 C 0.76798 0.81105 0.80404 0.0
C91 C 0.99447 0.77353 0.82338 0.0
C92 C 1.03782 0.7319 0.82798 0.0
C93 C 1.03693 0.68303 0.8002 0.0
C94 C 1.04231 0.61766 0.80856 0.0
C95 C 1.04848 0.60068 0.84468 0.0
C96 C 1.06218 0.65602 0.87143 0.0
C97 C 1.05786 0.72173 0.86306 0.0
C98 C 0.76638 0.63922 0.88057 0.0
C99 C 0.77228 0.52189 0.80708 0.0
O100 O 0.5893 0.53954 0.78126 0.0
O101 O 0.58357 0.59663 0.8303 0.0
O102 O 0.78749 0.649 0.77578 0.0
O103 O 0.71729 0.68605 0.75258 0.0
O104 O 0.7014 0.74441 0.80284 0.0
O105 O 0.83311 0.80879 0.81073 0.0
O106 O 0.95564 0.75981 0.79321 0.0
O107 O 0.95253 0.7704 0.85127 0.0
O108 O 0.75104 0.67579 0.85662 0.0
O109 O 0.82848 0.63921 0.87074 0.0
O110 O 0.83866 0.58951 0.80796 0.0
O111 O 0.70655 0.52405 0.81018 0.0
H112 H 0.5276 0.50191 0.88013 0.0
H113 H 0.42388 0.38818 0.90726 0.0
H114 H 0.34881 0.28416 0.8015 0.0
H115 H 0.45121 0.4025 0.77411 0.0
H116 H 1.0234 0.69012 0.77264 0.0
H117 H 1.03385 0.57677 0.78734 0.0
H118 H 1.07022 0.64546 0.89936 0.0
H119 H 1.06071 0.75925 0.88489 0.0
C120 C 0.26818 1.0707 0.24336 0.0
C121 C 0.27239 1.06159 0.20583 0.0
C122 C 0.32204 0.12756 0.1854 0.0
C123 C 0.37853 0.194 0.20258 0.0
H124 H 0.5937 0.25683 0.1788 0.0
H125 H 0.70113 0.24957 0.1509 0.0
H126 H 0.85799 0.41227 0.22942 0.0
H127 H 0.75111 0.41917 0.25746 0.0
H128 H 0.65669 0.34791 0.35346 0.0
H129 H 0.71319 0.30435 0.39958 0.0
H130 H 0.55212 1.06647 0.37205 0.0
H131 H 0.4944 1.11069 0.32573 0.0
H132 H 0.32841 0.13705 0.28988 0.0
H133 H 0.22691 1.02304 0.25986 0.0
H134 H 0.32578 0.12511 0.15633 0.0
H135 H 0.42192 0.23986 0.18595 0.0
N136 N 0.5259 0.28403 0.23401 0.0
N137 N 0.61175 0.30309 0.28086 0.0
N138 N 0.47831 0.22748 0.29076 0.0
C139 C 0.59956 0.31514 0.24618 0.0
C140 C 0.55203 0.25951 0.30325 0.0
C141 C 0.46468 0.24195 0.25636 0.0
C142 C 0.66407 0.33751 0.22074 0.0
C143 C 0.65171 0.29377 0.18907 0.0
C144 C 0.71285 0.28862 0.17339 0.0
C145 C 0.78656 0.3274 0.18922 0.0
C146 C 0.8007 0.37932 0.21771 0.0
C147 C 0.73995 0.38442 0.23332 0.0
C148 C 0.57034 0.23267 0.33672 0.0
C149 C 0.63184 0.28638 0.35801 0.0
C150 C 0.6648 0.26135 0.38395 0.0
C151 C 0.63777 0.1821 0.38875 0.0
C152 C 0.57454 0.12787 0.36836 0.0
C153 C 0.54055 0.1531 0.34259 0.0
C154 C 0.3868 0.19467 0.24028 0.0
C155 C 0.32619 0.13647 0.26065 0.0
C156 C 0.87465 0.5569 0.55072 0.0
C157 C 0.83635 0.57079 0.52242 0.0
C158 C 0.87101 0.64431 0.50649 0.0
C159 C 0.93757 0.70551 0.52192 0.0
H160 H 1.11325 0.93503 0.51823 0.0
H161 H 1.09459 1.0311 0.48871 0.0
H162 H 1.09263 0.13046 0.5923 0.0
H163 H 1.10521 1.02905 0.62223 0.0
H164 H 0.91292 0.86344 0.65849 0.0
H165 H 0.81109 0.80596 0.70498 0.0
H166 H 0.88821 0.64526 0.73243 0.0
H167 H 0.98818 0.70152 0.68612 0.0
H168 H 0.96476 0.60675 0.59013 0.0
H169 H 0.85055 0.49976 0.5625 0.0
H170 H 0.84327 0.65583 0.48413 0.0
H171 H 0.95841 0.76337 0.5116 0.0
N172 N 1.05422 0.83152 0.56648 0.0
N173 N 1.04563 0.87935 0.62324 0.0
N174 N 0.98788 0.74602 0.61352 0.0
C175 C 1.07347 0.89279 0.58877 0.0
C176 C 1.0041 0.80579 0.63585 0.0
C177 C 1.01185 0.75802 0.57876 0.0
C178 C 1.10386 0.97047 0.57261 0.0
C179 C 1.11104 0.97851 0.53489 0.0
C180 C 1.1011 1.03498 0.51776 0.0
C181 C 1.08517 1.08484 0.53827 0.0
C182 C 1.09878 1.08911 0.57576 0.0
C183 C 1.10655 1.03113 0.59299 0.0
C184 C 0.95911 0.78766 0.66941 0.0
C185 C 0.90929 0.81743 0.67536 0.0
C186 C 0.85013 0.78358 0.70123 0.0
C187 C 0.84123 0.72052 0.72165 0.0
C188 C 0.89352 0.69352 0.71677 0.0
C189 C 0.95145 0.72634 0.69074 0.0
C190 C 0.96949 0.69342 0.55346 0.0
C191 C 0.94078 0.61772 0.56609 0.0
C192 C 0.97972 0.4848 0.8839 0.0
C193 C 1.03196 0.52275 0.85552 0.0
C194 C 1.07086 0.48796 0.8397 0.0
C195 C 1.06547 0.42162 0.85529 0.0
H196 H 1.11868 0.24535 0.85209 0.0
H197 H 0.23349 0.2637 0.82252 0.0
H198 H 0.33526 0.26703 0.92611 0.0
H199 H 0.2212 0.25476 0.95606 0.0
H200 H 0.24777 0.44688 0.9921 0.0
H201 H 0.29197 0.54865 0.03856 0.0
H202 H 1.05375 0.47187 0.06583 0.0
H203 H 1.0102 0.37198 0.01956 0.0
H204 H 0.93938 0.39519 0.9235 0.0
H205 H 0.94667 0.50903 0.8956 0.0
H206 H 1.11016 0.51543 0.81729 0.0
H207 H 1.10252 0.40067 0.84504 0.0
N208 N 1.07462 0.30534 0.90012 0.0
N209 N 1.13085 0.31415 0.95692 0.0
N210 N 1.05545 0.37203 0.94701 0.0
C211 C 1.11651 0.28612 0.92249 0.0
C212 C 1.09887 0.35584 0.96941 0.0
C213 C 1.04354 0.34787 0.91229 0.0
C214 C 1.16375 0.25548 0.90643 0.0
C215 C 1.1645 0.2478 0.86874 0.0
C216 C 0.23096 0.25757 0.85159 0.0
C217 C 0.2969 0.27384 0.87205 0.0
C218 C 0.28765 0.26065 0.90958 0.0
C219 C 0.22186 0.25306 0.92683 0.0
C220 C 1.12561 0.40087 0.00294 0.0
C221 C 0.20527 0.45059 0.00892 0.0
C222 C 0.23049 0.50971 0.03478 0.0
C223 C 1.17618 0.51867 0.05514 0.0
C224 C 1.09683 0.46651 0.05022 0.0
C225 C 1.0718 0.40862 0.02421 0.0
C226 C 1.0214 0.39005 0.88688 0.0
C227 C 0.97438 0.41889 0.89943 0.0
C228 C 0.47204 0.88014 0.44331 0.0
C229 C 0.47038 0.94146 0.46201 0.0
C230 C 0.39454 0.92678 0.47069 0.0
C231 C 0.32536 0.8554 0.46123 0.0
H232 H 0.99277 0.58679 0.45621 0.0
H233 H 0.87192 0.46813 0.47296 0.0
H234 H 0.98376 0.33424 0.45679 0.0
H235 H 1.10371 0.45222 0.43961 0.0
H236 H 1.06716 0.56389 0.32959 0.0
H237 H 1.05749 0.54193 0.26521 0.0
H238 H 0.30344 0.69555 0.25353 0.0
H239 H 0.31321 0.71947 0.31952 0.0
H240 H 0.40997 0.76786 0.41767 0.0
H241 H 0.52733 0.8868 0.43542 0.0
H242 H 0.3883 0.97083 0.48482 0.0
H243 H 0.26961 0.84894 0.46799 0.0
N244 N 0.19277 0.66604 0.44536 0.0
N245 N 1.13466 0.59704 0.39173 0.0
N246 N 0.2541 0.7133 0.3886 0.0
C247 C 1.13179 0.60167 0.42837 0.0
C248 C 0.19413 0.65168 0.37143 0.0
C249 C 0.25509 0.72287 0.42538 0.0
C250 C 1.06175 0.5322 0.44759 0.0
C251 C 0.993 0.53273 0.45726 0.0
C252 C 0.92215 0.46333 0.46654 0.0
C253 C 0.91507 0.38876 0.46663 0.0
C254 C 0.98435 0.38872 0.45767 0.0
C255 C 1.05469 0.45775 0.44803 0.0
C256 C 0.19112 0.6429 0.33058 0.0
C257 C 1.11975 0.59361 0.31374 0.0
C258 C 1.11417 0.58108 0.2763 0.0
C259 C 1.17972 0.61617 0.25355 0.0
C260 C 0.25152 0.66724 0.26989 0.0
C261 C 0.25704 0.68081 0.30787 0.0
C262 C 0.32771 0.79494 0.44187 0.0
C263 C 0.40344 0.81033 0.43311 0.0
C264 C 0.70125 0.37428 0.79086 0.0
C265 C 0.77063 0.44351 0.79975 0.0
C266 C 0.83816 0.43632 0.79969 0.0
C267 C 0.83664 0.36542 0.79051 0.0
H268 H 0.87646 1.08868 0.80109 0.0
H269 H 0.87972 0.97009 0.81775 0.0
H270 H 0.65615 0.83132 0.76875 0.0
H271 H 0.65449 0.94858 0.75117 0.0
H272 H 0.70234 1.045 0.65297 0.0
H273 H 0.68786 1.05463 0.58701 0.0
H274 H 0.78086 0.30039 0.59859 0.0
H275 H 0.79346 0.29086 0.66293 0.0
H276 H 0.64526 0.25496 0.77294 0.0
H277 H 0.64731 0.37491 0.78996 0.0
H278 H 0.89326 0.48647 0.80606 0.0
H279 H 0.89099 0.36562 0.78947 0.0
N280 N 0.77013 0.16569 0.77873 0.0
N281 N 0.75584 1.10425 0.72197 0.0
N282 N 0.75902 0.22356 0.72511 0.0
C283 C 0.76456 1.10335 0.75874 0.0
C284 C 0.75413 0.16411 0.70482 0.0
C285 C 0.76667 0.22658 0.76174 0.0
C286 C 0.76408 1.03075 0.7752 0.0
C287 C 0.82706 1.03302 0.79439 0.0
C288 C 0.82929 0.96387 0.80376 0.0
C289 C 0.76802 0.8881 0.79513 0.0
C290 C 0.70489 0.88653 0.7766 0.0
C291 C 0.70363 0.9551 0.7665 0.0
C292 C 0.74821 0.16701 0.66397 0.0
C293 C 0.71993 1.1011 0.6413 0.0
C294 C 0.71169 1.10653 0.60334 0.0
C295 C 0.73249 0.17824 0.58699 0.0
C296 C 0.76325 0.24377 0.60969 0.0
C297 C 0.77038 0.23828 0.64712 0.0
C298 C 0.76728 0.29669 0.78092 0.0
C299 C 0.69987 0.3039 0.78132 0.0
C300 C 0.96965 0.65814 0.12404 0.0
C301 C 0.96933 0.58887 0.13314 0.0
C302 C 0.89452 0.52146 0.13316 0.0
C303 C 0.82518 0.52298 0.12386 0.0
H304 H 0.50909 0.48339 0.13444 0.0
H305 H 0.38713 0.48013 0.15128 0.0
H306 H 0.47141 0.7029 0.10179 0.0
H307 H 0.59041 0.70452 0.08403 0.0
H308 H 0.63919 0.65642 0.98597 0.0
H309 H 0.66342 0.6707 0.92 0.0
H310 H 0.81708 0.57868 0.93168 0.0
H311 H 0.79481 0.56627 -0.00397 0.0
H312 H 0.90642 0.714 0.10585 0.0
H313 H 1.02432 0.71197 0.12307 0.0
H314 H 0.8895 0.46647 0.13971 0.0
H315 H 0.77092 0.46874 0.12291 0.0
N316 N 0.6921 0.5893 0.11178 0.0
N317 N 0.64508 0.60349 0.05502 0.0
N318 N 0.76136 0.60036 0.05819 0.0
C319 C 0.63535 0.59483 0.09179 0.0
C320 C 0.70679 0.6052 0.03787 0.0
C321 C 0.75656 0.59276 0.09482 0.0
C322 C 0.5632 0.59533 0.10827 0.0
C323 C 0.50266 0.53259 0.12766 0.0
C324 C 0.43125 0.53037 0.13713 0.0
C325 C 0.41662 0.59144 0.12843 0.0
C326 C 0.47803 0.65435 0.1097 0.0
C327 C 0.54787 0.65558 0.09949 0.0
C328 C 0.71576 0.61105 -0.00297 0.0
C329 C 0.67793 0.63901 0.97432 0.0
C330 C 0.69167 0.64714 0.93635 0.0
C331 C 0.74285 0.62654 0.92003 0.0
C332 C 0.77785 0.59612 0.94276 0.0
C333 C 0.76515 0.5891 0.98019 0.0
C334 C 0.82599 0.59222 0.11405 0.0
C335 C 0.90068 0.65951 0.11438 0.0
loop_
_geom_bond_atom_site_label_1
_geom_bond_atom_site_label_2
_geom_bond_distance
_geom_bond_site_symmetry_2
_ccdc_geom_bond_type
Tb0 C2 2.809 . S
Tb0 O20 2.484 . S
Tb0 O21 2.440 . S
Tb0 O22 2.658 . S
Tb0 O23 2.409 . S
Tb0 O24 2.378 . S
Tb0 O28 2.325 . S
Tb0 O31 2.341 1_455 S
Tb1 C11 2.809 . S
Tb1 O22 2.325 1_655 S
Tb1 O25 2.341 1_655 S
Tb1 O26 2.484 . S
Tb1 O27 2.440 . S
Tb1 O28 2.658 1_655 S
Tb1 O29 2.409 . S
Tb1 O30 2.378 . S
C2 Tb0 2.809 . S
C2 C3 1.514 . S
C2 O20 1.248 . S
C2 O21 1.266 . S
C3 C2 1.514 . S
C3 C4 1.359 . S
C3 C8 1.348 . S
C4 C3 1.359 . S
C4 C5 1.380 . S
C4 H32 0.929 . S
C5 C4 1.380 . S
C5 C6 1.347 . S
C5 H33 0.931 . S
C6 C5 1.347 . S
C6 C7 1.369 . S
C7 C6 1.369 . S
C7 C8 1.408 . S
C7 H34 0.930 . S
C8 C3 1.348 . S
C8 C7 1.408 . S
C8 H35 0.930 . S
C9 O22 1.281 . S
C9 O23 1.254 . S
C10 O24 1.236 . S
C10 O25 1.266 . S
C11 Tb1 2.809 . S
C11 C12 1.514 . S
C11 O26 1.248 . S
C11 O27 1.266 . S
C12 C11 1.514 . S
C12 C13 1.359 . S
C12 C17 1.348 . S
C13 C12 1.359 . S
C13 C14 1.380 . S
C13 H36 0.929 . S
C14 C13 1.380 . S
C14 C15 1.347 . S
C14 H37 0.931 . S
C15 C14 1.347 . S
C15 C16 1.369 . S
C16 C15 1.369 . S
C16 C17 1.408 . S
C16 H38 0.930 . S
C17 C12 1.348 . S
C17 C16 1.408 . S
C17 H39 0.930 . S
C18 O28 1.281 . S
C18 O29 1.254 1_455 S
C19 O30 1.236 . S
C19 O31 1.266 . S
O20 Tb0 2.484 . S
O20 C2 1.248 . S
O21 Tb0 2.440 . S
O21 C2 1.266 . S
O22 Tb0 2.658 . S
O22 Tb1 2.325 1_455 S
O22 C9 1.281 . S
O23 Tb0 2.409 . S
O23 C9 1.254 . S
O24 Tb0 2.378 . S
O24 C10 1.236 . S
O25 Tb1 2.341 1_455 S
O25 C10 1.266 . S
O26 Tb1 2.484 . S
O26 C11 1.248 . S
O27 Tb1 2.440 . S
O27 C11 1.266 . S
O28 Tb0 2.325 . S
O28 Tb1 2.658 1_455 S
O28 C18 1.281 . S
O29 Tb1 2.409 . S
O29 C18 1.254 1_655 S
O30 Tb1 2.378 . S
O30 C19 1.236 . S
O31 Tb0 2.341 1_655 S
O31 C19 1.266 . S
H32 C4 0.929 . S
H33 C5 0.931 . S
H34 C7 0.930 . S
H35 C8 0.930 . S
H36 C13 0.929 . S
H37 C14 0.931 . S
H38 C16 0.930 . S
H39 C17 0.930 . S
Tb40 C42 2.809 . S
Tb40 O60 2.484 . S
Tb40 O61 2.440 . S
Tb40 O62 2.658 1_565 S
Tb40 O63 2.409 . S
Tb40 O64 2.378 . S
Tb40 O68 2.325 1_565 S
Tb40 O71 2.341 1_565 S
Tb41 C51 2.809 . S
Tb41 O62 2.325 . S
Tb41 O65 2.341 1_545 S
Tb41 O66 2.484 . S
Tb41 O67 2.440 . S
Tb41 O68 2.658 . S
Tb41 O69 2.409 . S
Tb41 O70 2.378 . S
C42 Tb40 2.809 . S
C42 C43 1.514 . S
C42 O60 1.248 . S
C42 O61 1.266 . S
C43 C42 1.514 . S
C43 C44 1.359 . S
C43 C48 1.348 . S
C44 C43 1.359 . S
C44 C45 1.380 . S
C44 H72 0.929 . S
C45 C44 1.380 . S
C45 C46 1.347 . S
C45 H73 0.931 . S
C46 C45 1.347 . S
C46 C47 1.369 . S
C47 C46 1.369 . S
C47 C48 1.408 . S
C47 H74 0.930 . S
C48 C43 1.348 . S
C48 C47 1.408 . S
C48 H75 0.930 . S
C49 O62 1.281 . S
C49 O63 1.254 1_545 S
C50 O64 1.236 . S
C50 O65 1.266 . S
C51 Tb41 2.809 . S
C51 C52 1.514 . S
C51 O66 1.248 . S
C51 O67 1.266 . S
C52 C51 1.514 . S
C52 C53 1.359 . S
C52 C57 1.348 . S
C53 C52 1.359 . S
C53 C54 1.380 . S
C53 H76 0.929 . S
C54 C53 1.380 . S
C54 C55 1.347 . S
C54 H77 0.931 . S
C55 C54 1.347 . S
C55 C56 1.369 . S
C56 C55 1.369 . S
C56 C57 1.408 . S
C56 H78 0.930 . S
C57 C52 1.348 . S
C57 C56 1.408 . S
C57 H79 0.930 . S
C58 O68 1.281 . S
C58 O69 1.254 . S
C59 O70 1.236 . S
C59 O71 1.266 . S
O60 Tb40 2.484 . S
O60 C42 1.248 . S
O61 Tb40 2.440 . S
O61 C42 1.266 . S
O62 Tb40 2.658 1_545 S
O62 Tb41 2.325 . S
O62 C49 1.281 . S
O63 Tb40 2.409 . S
O63 C49 1.254 1_565 S
O64 Tb40 2.378 . S
O64 C50 1.236 . S
O65 Tb41 2.341 1_565 S
O65 C50 1.266 . S
O66 Tb41 2.484 . S
O66 C51 1.248 . S
O67 Tb41 2.440 . S
O67 C51 1.266 . S
O68 Tb40 2.325 1_545 S
O68 Tb41 2.658 . S
O68 C58 1.281 . S
O69 Tb41 2.409 . S
O69 C58 1.254 . S
O70 Tb41 2.378 . S
O70 C59 1.236 . S
O71 Tb40 2.341 1_545 S
O71 C59 1.266 . S
H72 C44 0.929 . S
H73 C45 0.931 . S
H74 C47 0.930 . S
H75 C48 0.930 . S
H76 C53 0.929 . S
H77 C54 0.931 . S
H78 C56 0.930 . S
H79 C57 0.930 . S
Tb80 C82 2.809 . S
Tb80 O100 2.484 . S
Tb80 O101 2.440 . S
Tb80 O102 2.658 . S
Tb80 O103 2.409 . S
Tb80 O104 2.378 . S
Tb80 O108 2.325 . S
Tb80 O111 2.341 . S
Tb81 C91 2.809 . S
Tb81 O102 2.325 . S
Tb81 O105 2.341 . S
Tb81 O106 2.484 . S
Tb81 O107 2.440 . S
Tb81 O108 2.658 . S
Tb81 O109 2.409 . S
Tb81 O110 2.378 . S
C82 Tb80 2.809 . S
C82 C83 1.514 . S
C82 O100 1.248 . S
C82 O101 1.266 . S
C83 C82 1.514 . S
C83 C84 1.359 . S
C83 C88 1.348 . S
C84 C83 1.359 . S
C84 C85 1.380 . S
C84 H112 0.929 . S
C85 C84 1.380 . S
C85 C86 1.347 . S
C85 H113 0.931 . S
C86 C85 1.347 . S
C86 C87 1.369 . S
C87 C86 1.369 . S
C87 C88 1.408 . S
C87 H114 0.930 . S
C88 C83 1.348 . S
C88 C87 1.408 . S
C88 H115 0.930 . S
C89 O102 1.281 . S
C89 O103 1.254 . S
C90 O104 1.236 . S
C90 O105 1.266 . S
C91 Tb81 2.809 . S
C91 C92 1.514 . S
C91 O106 1.248 . S
C91 O107 1.266 . S
C92 C91 1.514 . S
C92 C93 1.359 . S
C92 C97 1.348 . S
C93 C92 1.359 . S
C93 C94 1.380 . S
C93 H116 0.929 . S
C94 C93 1.380 . S
C94 C95 1.347 . S
C94 H117 0.931 . S
C95 C94 1.347 . S
C95 C96 1.369 . S
C96 C95 1.369 . S
C96 C97 1.408 . S
C96 H118 0.930 . S
C97 C92 1.348 . S
C97 C96 1.408 . S
C97 H119 0.930 . S
C98 O108 1.281 . S
C98 O109 1.254 . S
C99 O110 1.236 . S
C99 O111 1.266 . S
O100 Tb80 2.484 . S
O100 C82 1.248 . S
O101 Tb80 2.440 . S
O101 C82 1.266 . S
O102 Tb80 2.658 . S
O102 Tb81 2.325 . S
O102 C89 1.281 . S
O103 Tb80 2.409 . S
O103 C89 1.254 . S
O104 Tb80 2.378 . S
O104 C90 1.236 . S
O105 Tb81 2.341 . S
O105 C90 1.266 . S
O106 Tb81 2.484 . S
O106 C91 1.248 . S
O107 Tb81 2.440 . S
O107 C91 1.266 . S
O108 Tb80 2.325 . S
O108 Tb81 2.658 . S
O108 C98 1.281 . S
O109 Tb81 2.409 . S
O109 C98 1.254 . S
O110 Tb81 2.378 . S
O110 C99 1.236 . S
O111 Tb80 2.341 . S
O111 C99 1.266 . S
H112 C84 0.929 . S
H113 C85 0.931 . S
H114 C87 0.930 . S
H115 C88 0.930 . S
H116 C93 0.929 . S
H117 C94 0.931 . S
H118 C96 0.930 . S
H119 C97 0.930 . S
C120 C121 1.384 . S
C120 H133 0.947 . S
C120 C155 1.382 . S
C121 C120 1.384 . S
C121 C122 1.378 . S
C122 C121 1.378 . S
C122 C123 1.378 . S
C122 H134 0.952 . S
C123 C122 1.378 . S
C123 H135 0.950 . S
C123 C154 1.383 . S
H124 C143 0.947 . S
H125 C144 0.946 . S
H126 C146 0.953 . S
H127 C147 0.945 . S
H128 C149 0.952 . S
H129 C150 0.949 . S
H130 C152 0.950 . S
H131 C153 0.948 . S
H132 C155 0.951 . S
H133 C120 0.947 . S
H134 C122 0.952 . S
H135 C123 0.950 . S
N136 C139 1.382 . S
N136 C141 1.363 1_545 S
N137 C139 1.371 . S
N137 C140 1.372 . S
N138 C140 1.361 1_565 S
N138 C141 1.377 . S
C139 N136 1.382 . S
C139 N137 1.371 . S
C139 C142 1.480 . S
C140 N137 1.372 . S
C140 N138 1.361 1_545 S
C140 C148 1.457 . S
C141 N136 1.363 1_565 S
C141 N138 1.377 . S
C141 C154 1.479 . S
C142 C139 1.480 . S
C142 C143 1.383 . S
C142 C147 1.385 . S
C143 H124 0.947 . S
C143 C142 1.383 . S
C143 C144 1.388 . S
C144 H125 0.946 . S
C144 C143 1.388 . S
C144 C145 1.384 . S
C145 C144 1.384 . S
C145 C146 1.377 . S
C146 H126 0.953 . S
C146 C145 1.377 . S
C146 C147 1.369 . S
C147 H127 0.945 . S
C147 C142 1.385 . S
C147 C146 1.369 . S
C148 C140 1.457 . S
C148 C149 1.372 . S
C148 C153 1.364 1_545 S
C149 H128 0.952 . S
C149 C148 1.372 . S
C149 C150 1.389 . S
C150 H129 0.949 . S
C150 C149 1.389 . S
C150 C151 1.387 . S
C151 C150 1.387 . S
C151 C152 1.372 1_545 S
C152 H130 0.950 . S
C152 C151 1.372 1_565 S
C152 C153 1.379 . S
C153 H131 0.948 . S
C153 C148 1.364 1_565 S
C153 C152 1.379 . S
C154 C123 1.383 . S
C154 C141 1.479 . S
C154 C155 1.398 . S
C155 C120 1.382 . S
C155 H132 0.951 . S
C155 C154 1.398 . S
C156 C157 1.384 . S
C156 H169 0.947 . S
C156 C191 1.382 . S
C157 C156 1.384 . S
C157 C158 1.378 . S
C158 C157 1.378 . S
C158 C159 1.378 . S
C158 H170 0.952 . S
C159 C158 1.378 . S
C159 H171 0.950 . S
C159 C190 1.383 . S
H160 C179 0.947 . S
H161 C180 0.946 . S
H162 C182 0.953 . S
H163 C183 0.945 . S
H164 C185 0.952 . S
H165 C186 0.949 . S
H166 C188 0.950 . S
H167 C189 0.948 . S
H168 C191 0.951 . S
H169 C156 0.947 . S
H170 C158 0.952 . S
H171 C159 0.950 . S
N172 C175 1.382 . S
N172 C177 1.363 . S
N173 C175 1.371 . S
N173 C176 1.372 . S
N174 C176 1.361 . S
N174 C177 1.377 . S
C175 N172 1.382 . S
C175 N173 1.371 . S
C175 C178 1.480 . S
C176 N173 1.372 . S
C176 N174 1.361 . S
C176 C184 1.457 . S
C177 N172 1.363 . S
C177 N174 1.377 . S
C177 C190 1.479 . S
C178 C175 1.480 . S
C178 C179 1.383 . S
C178 C183 1.385 . S
C179 H160 0.947 . S
C179 C178 1.383 . S
C179 C180 1.388 . S
C180 H161 0.946 . S
C180 C179 1.388 . S
C180 C181 1.384 . S
C181 C180 1.384 . S
C181 C182 1.377 . S
C182 H162 0.953 . S
C182 C181 1.377 . S
C182 C183 1.369 . S
C183 H163 0.945 . S
C183 C178 1.385 . S
C183 C182 1.369 . S
C184 C176 1.457 . S
C184 C185 1.372 . S
C184 C189 1.364 . S
C185 H164 0.952 . S
C185 C184 1.372 . S
C185 C186 1.389 . S
C186 H165 0.949 . S
C186 C185 1.389 . S
C186 C187 1.387 . S
C187 C186 1.387 . S
C187 C188 1.372 . S
C188 H166 0.950 . S
C188 C187 1.372 . S
C188 C189 1.379 . S
C189 H167 0.948 . S
C189 C184 1.364 . S
C189 C188 1.379 . S
C190 C159 1.383 . S
C190 C177 1.479 . S
C190 C191 1.398 . S
C191 C156 1.382 . S
C191 H168 0.951 . S
C191 C190 1.398 . S
C192 C193 1.384 . S
C192 H205 0.947 . S
C192 C227 1.382 . S
C193 C192 1.384 . S
C193 C194 1.378 . S
C194 C193 1.378 . S
C194 C195 1.378 . S
C194 H206 0.952 . S
C195 C194 1.378 . S
C195 H207 0.950 . S
C195 C226 1.383 . S
H196 C215 0.947 . S
H197 C216 0.946 . S
H198 C218 0.953 . S
H199 C219 0.945 . S
H200 C221 0.952 . S
H201 C222 0.949 . S
H202 C224 0.950 . S
H203 C225 0.948 . S
H204 C227 0.951 . S
H205 C192 0.947 . S
H206 C194 0.952 . S
H207 C195 0.950 . S
N208 C211 1.382 1_655 S
N208 C213 1.363 . S
N209 C211 1.371 . S
N209 C212 1.372 1_455 S
N210 C212 1.361 . S
N210 C213 1.377 . S
C211 N208 1.382 1_455 S
C211 N209 1.371 . S
C211 C214 1.480 . S
C212 N209 1.372 1_655 S
C212 N210 1.361 . S
C212 C220 1.457 1_556 S
C213 N208 1.363 . S
C213 N210 1.377 . S
C213 C226 1.479 . S
C214 C211 1.480 . S
C214 C215 1.383 . S
C214 C219 1.385 . S
C215 H196 0.947 . S
C215 C214 1.383 . S
C215 C216 1.388 . S
C216 H197 0.946 . S
C216 C215 1.388 . S
C216 C217 1.384 . S
C217 C216 1.384 . S
C217 C218 1.377 . S
C218 H198 0.953 . S
C218 C217 1.377 . S
C218 C219 1.369 . S
C219 H199 0.945 . S
C219 C214 1.385 . S
C219 C218 1.369 . S
C220 C212 1.457 1_554 S
C220 C221 1.372 1_655 S
C220 C225 1.364 . S
C221 H200 0.952 . S
C221 C220 1.372 1_455 S
C221 C222 1.389 . S
C222 H201 0.949 . S
C222 C221 1.389 . S
C222 C223 1.387 . S
C223 C222 1.387 . S
C223 C224 1.372 1_455 S
C224 H202 0.950 . S
C224 C223 1.372 1_655 S
C224 C225 1.379 . S
C225 H203 0.948 . S
C225 C220 1.364 . S
C225 C224 1.379 . S
C226 C195 1.383 . S
C226 C213 1.479 . S
C226 C227 1.398 . S
C227 C192 1.382 . S
C227 H204 0.951 . S
C227 C226 1.398 . S
C228 C229 1.384 . S
C228 H241 0.947 . S
C228 C263 1.382 . S
C229 C228 1.384 . S
C229 C230 1.378 . S
C230 C229 1.378 . S
C230 C231 1.378 . S
C230 H242 0.952 . S
C231 C230 1.378 . S
C231 H243 0.950 . S
C231 C262 1.383 . S
H232 C251 0.947 . S
H233 C252 0.946 . S
H234 C254 0.953 . S
H235 C255 0.945 . S
H236 C257 0.952 . S
H237 C258 0.949 . S
H238 C260 0.950 . S
H239 C261 0.948 . S
H240 C263 0.951 . S
H241 C228 0.947 . S
H242 C230 0.952 . S
H243 C231 0.950 . S
N244 C247 1.382 . S
N244 C249 1.363 . S
N245 C247 1.372 . S
N245 C248 1.377 . S
N246 C248 1.361 . S
N246 C249 1.377 . S
C247 N244 1.382 . S
C247 N245 1.372 . S
C247 C250 1.480 1_455 S
C248 N245 1.377 . S
C248 N246 1.361 . S
C248 C256 1.457 . S
C249 N244 1.363 . S
C249 N246 1.377 . S
C249 C262 1.479 . S
C250 C247 1.480 1_655 S
C250 C251 1.383 . S
C250 C255 1.385 . S
C251 H232 0.947 . S
C251 C250 1.383 . S
C251 C252 1.388 . S
C252 H233 0.946 . S
C252 C251 1.388 . S
C252 C253 1.384 . S
C253 C252 1.384 . S
C253 C254 1.377 . S
C254 H234 0.953 . S
C254 C253 1.377 . S
C254 C255 1.369 . S
C255 H235 0.945 . S
C255 C250 1.385 . S
C255 C254 1.369 . S
C256 C248 1.457 . S
C256 C257 1.372 1_455 S
C256 C261 1.364 . S
C257 H236 0.952 . S
C257 C256 1.372 1_655 S
C257 C258 1.389 . S
C258 H237 0.949 . S
C258 C257 1.389 . S
C258 C259 1.387 1_655 S
C259 C258 1.387 1_455 S
C259 C260 1.372 . S
C260 H238 0.950 . S
C260 C259 1.372 . S
C260 C261 1.379 . S
C261 H239 0.948 . S
C261 C256 1.364 . S
C261 C260 1.379 . S
C262 C231 1.383 . S
C262 C249 1.479 . S
C262 C263 1.398 . S
C263 C228 1.382 . S
C263 H240 0.951 . S
C263 C262 1.398 . S
C264 C265 1.384 . S
C264 H277 0.947 . S
C264 C299 1.382 . S
C265 C264 1.384 . S
C265 C266 1.378 . S
C266 C265 1.378 . S
C266 C267 1.378 . S
C266 H278 0.952 . S
C267 C266 1.378 . S
C267 H279 0.950 . S
C267 C298 1.383 . S
H268 C287 0.947 . S
H269 C288 0.946 . S
H270 C290 0.953 . S
H271 C291 0.945 . S
H272 C293 0.952 . S
H273 C294 0.949 . S
H274 C296 0.950 . S
H275 C297 0.948 . S
H276 C299 0.951 . S
H277 C264 0.947 . S
H278 C266 0.952 . S
H279 C267 0.950 . S
N280 C283 1.382 1_545 S
N280 C285 1.363 . S
N281 C283 1.371 . S
N281 C284 1.372 1_565 S
N282 C284 1.361 . S
N282 C285 1.377 . S
C283 N280 1.382 1_565 S
C283 N281 1.371 . S
C283 C286 1.480 . S
C284 N281 1.372 1_545 S
C284 N282 1.361 . S
C284 C292 1.457 . S
C285 N280 1.363 . S
C285 N282 1.377 . S
C285 C298 1.479 . S
C286 C283 1.480 . S
C286 C287 1.383 . S
C286 C291 1.385 . S
C287 H268 0.947 . S
C287 C286 1.383 . S
C287 C288 1.388 . S
C288 H269 0.946 . S
C288 C287 1.388 . S
C288 C289 1.384 . S
C289 C288 1.384 . S
C289 C290 1.377 . S
C290 H270 0.953 . S
C290 C289 1.377 . S
C290 C291 1.369 . S
C291 H271 0.945 . S
C291 C286 1.385 . S
C291 C290 1.369 . S
C292 C284 1.457 . S
C292 C293 1.372 1_545 S
C292 C297 1.364 . S
C293 H272 0.952 . S
C293 C292 1.372 1_565 S
C293 C294 1.389 . S
C294 H273 0.949 . S
C294 C293 1.389 . S
C294 C295 1.387 1_565 S
C295 C294 1.387 1_545 S
C295 C296 1.372 . S
C296 H274 0.950 . S
C296 C295 1.372 . S
C296 C297 1.379 . S
C297 H275 0.948 . S
C297 C292 1.364 . S
C297 C296 1.379 . S
C298 C267 1.383 . S
C298 C285 1.479 . S
C298 C299 1.398 . S
C299 C264 1.382 . S
C299 H276 0.951 . S
C299 C298 1.398 . S
C300 C301 1.384 . S
C300 H313 0.947 . S
C300 C335 1.382 . S
C301 C300 1.384 . S
C301 C302 1.378 . S
C302 C301 1.378 . S
C302 C303 1.378 . S
C302 H314 0.952 . S
C303 C302 1.378 . S
C303 H315 0.950 . S
C303 C334 1.383 . S
H304 C323 0.947 . S
H305 C324 0.946 . S
H306 C326 0.953 . S
H307 C327 0.945 . S
H308 C329 0.952 1_554 S
H309 C330 0.949 . S
H310 C332 0.950 . S
H311 C333 0.948 1_554 S
H312 C335 0.951 . S
H313 C300 0.947 . S
H314 C302 0.952 . S
H315 C303 0.950 . S
N316 C319 1.382 . S
N316 C321 1.363 . S
N317 C319 1.371 . S
N317 C320 1.372 . S
N318 C320 1.361 . S
N318 C321 1.377 . S
C319 N316 1.382 . S
C319 N317 1.371 . S
C319 C322 1.480 . S
C320 N317 1.372 . S
C320 N318 1.361 . S
C320 C328 1.457 . S
C321 N316 1.363 . S
C321 N318 1.377 . S
C321 C334 1.479 . S
C322 C319 1.480 . S
C322 C323 1.383 . S
C322 C327 1.385 . S
C323 H304 0.947 . S
C323 C322 1.383 . S
C323 C324 1.388 . S
C324 H305 0.946 . S
C324 C323 1.388 . S
C324 C325 1.384 . S
C325 C324 1.384 . S
C325 C326 1.377 . S
C326 H306 0.953 . S
C326 C325 1.377 . S
C326 C327 1.369 . S
C327 H307 0.945 . S
C327 C322 1.385 . S
C327 C326 1.369 . S
C328 C320 1.457 . S
C328 C329 1.372 1_554 S
C328 C333 1.364 1_554 S
C329 H308 0.952 1_556 S
C329 C328 1.372 1_556 S
C329 C330 1.389 . S
C330 H309 0.949 . S
C330 C329 1.389 . S
C330 C331 1.387 . S
C331 C330 1.387 . S
C331 C332 1.372 . S
C332 H310 0.950 . S
C332 C331 1.372 . S
C332 C333 1.379 . S
C333 H311 0.948 1_556 S
C333 C328 1.364 1_556 S
C333 C332 1.379 . S
C334 C303 1.383 . S
C334 C321 1.479 . S
C334 C335 1.398 . S
C335 C300 1.382 . S
C335 H312 0.951 . S
C335 C334 1.398 . S
C10 C325 4.876 . S
C59 C253 4.933 . S
C90 C289 4.876 . S
C19 C301 4.991 . S
C229 C50 4.936 . S
C265 C99 4.991 . S
C46 C181 2.028 . S
C95 C193 1.887 . S
C6 C121 1.822 . S
C157 C55 1.887 . S
C217 C86 2.027 . S
C15 C145 1.951 . S
C223 C9 1.159 . S
C49 C151 0.953 . S
C89 C187 1.155 . S
C295 C58 2.053 . S
C331 C98 2.053 . S
C18 C259 2.058 . S
