# Generated by pormake.
# Topology pth, (4,4)-cn, num edge types: 1
# Building blocks:
#     Node 0, Type 0, BuildingBlock: UXUYUI_clean_sbu_0, # of connection points: 4
#     Node 1, Type 0, BuildingBlock: UXUYUI_clean_sbu_0, # of connection points: 4
#     Node 2, Type 0, BuildingBlock: UXUYUI_clean_sbu_0, # of connection points: 4
#     Node 3, Type 1, BuildingBlock: MIFKUJ_clean_linker_1, # of connection points: 4
#     Node 4, Type 1, BuildingBlock: MIFKUJ_clean_linker_1, # of connection points: 4
#     Node 5, Type 1, BuildingBlock: MIFKUJ_clean_linker_1, # of connection points: 4
#     Edge 6, Type (0, 1), BuildingBlock: FUNLAD_clean_linker_0, # of connection points: 2
#     Edge 7, Type (0, 1), BuildingBlock: FUNLAD_clean_linker_0, # of connection points: 2
#     Edge 8, Type (0, 1), BuildingBlock: FUNLAD_clean_linker_0, # of connection points: 2
#     Edge 9, Type (0, 1), BuildingBlock: FUNLAD_clean_linker_0, # of connection points: 2
#     Edge 10, Type (0, 1), BuildingBlock: FUNLAD_clean_linker_0, # of connection points: 2
#     Edge 11, Type (0, 1), BuildingBlock: FUNLAD_clean_linker_0, # of connection points: 2
#     Edge 12, Type (0, 1), BuildingBlock: FUNLAD_clean_linker_0, # of connection points: 2
#     Edge 13, Type (0, 1), BuildingBlock: FUNLAD_clean_linker_0, # of connection points: 2
#     Edge 14, Type (0, 1), BuildingBlock: FUNLAD_clean_linker_0, # of connection points: 2
#     Edge 15, Type (0, 1), BuildingBlock: FUNLAD_clean_linker_0, # of connection points: 2
#     Edge 16, Type (0, 1), BuildingBlock: FUNLAD_clean_linker_0, # of connection points: 2
#     Edge 17, Type (0, 1), BuildingBlock: FUNLAD_clean_linker_0, # of connection points: 2
# Relax obj value: 0.075
# Max RMSD: 0.209
# Mean RMSD: 0.121
data_MOF--net-pth--node1-UXUYUI_clean_sbu_0--node2-MIFKUJ_clean_linker_1--edge1-FUNLAD_clean_linker_0
_symmetry_space_group_name_H-M    P1
_symmetry_Int_Tables_number       1
_symmetry_cell_setting            triclinic
loop_
_symmetry_equiv_pos_as_xyz
'x, y, z'
_cell_length_a     39.182618
_cell_length_b     39.162373
_cell_length_c     84.496197
_cell_angle_alpha  90.019511
_cell_angle_beta   89.955893
_cell_angle_gamma 119.98166
loop_
_atom_site_label
_atom_site_type_symbol
_atom_site_fract_x
_atom_site_fract_y
_atom_site_fract_z
_atom_type_partial_charge
Li0 Li 0.03517 0.02455 0.03273 0.0
Li1 Li 0.98804 0.02396 0.05199 0.0
Li2 Li 0.00678 0.97194 0.05148 0.0
Li3 Li 0.96546 0.97401 0.03102 0.0
C4 C 0.07752 0.05952 0.05793 0.0
N5 N 0.15322 0.1229 0.06017 0.0
C6 C 0.08367 0.09693 0.06173 0.0
C7 C 0.10988 0.0543 0.0554 0.0
C8 C 0.12217 0.1286 0.06279 0.0
C9 C 0.14791 0.08673 0.05654 0.0
C10 C 0.97603 0.03713 0.01464 0.0
C11 C 0.92809 0.04368 -0.00099 0.0
N12 N 0.9477 0.04439 0.98562 0.0
C13 C 0.99573 0.038 0.00071 0.0
C14 C 0.94195 0.04007 0.01378 0.0
C15 C 0.98094 0.04167 0.98616 0.0
C16 C 0.10266 0.04968 0.0126 0.0
N17 N 0.0805 0.06086 0.02116 0.0
C18 C 0.12101 0.12785 0.01317 0.0
C19 C 0.08884 0.09895 0.0215 0.0
C20 C 0.14453 0.11735 0.0042 0.0
C21 C 0.13504 0.07766 0.00395 0.0
H22 H 0.09495 0.01907 0.01234 0.0
H23 H 0.07016 0.10674 0.02818 0.0
C24 C 0.98119 0.05626 0.08081 0.0
N25 N 0.97814 0.05762 0.06484 0.0
C26 C 0.97933 0.08443 0.09035 0.0
C27 C 0.96971 0.11375 0.06682 0.0
C28 C 0.97216 0.08531 0.05774 0.0
C29 C 0.9742 0.11415 0.08334 0.0
H30 H 0.98662 0.03423 0.08605 0.0
H31 H 0.97044 0.08598 0.04499 0.0
C32 C 0.01891 0.93703 0.02779 0.0
N33 N 0.03132 0.87349 0.028 0.0
C34 C 0.98781 0.89911 0.02459 0.0
C35 C 0.05636 0.94264 0.03102 0.0
C36 C 0.99469 0.86738 0.02476 0.0
C37 C 0.06201 0.91014 0.03111 0.0
C38 C 0.91546 0.954 0.05824 0.0
C39 C 0.89322 0.91912 0.06676 0.0
C40 C 0.89897 0.97737 0.05439 0.0
C41 C 0.85463 0.90798 0.07113 0.0
C42 C 0.86032 0.96527 0.05898 0.0
N43 N 0.83912 0.93109 0.06718 0.0
C44 C 0.04619 0.94707 0.07324 0.0
C45 C 0.98336 0.89799 0.06413 0.0
C46 C 0.04971 0.91923 0.08238 0.0
N47 N 0.01345 0.9359 0.06431 0.0
C48 C 0.98572 0.86924 0.07297 0.0
C49 C 0.01924 0.87968 0.08225 0.0
H50 H 0.06952 0.9775 0.07327 0.0
H51 H 0.95754 0.8901 0.057 0.0
C52 C 0.93898 0.94009 0.00148 0.0
N53 N 0.92525 0.94258 0.01597 0.0
C54 C 0.91305 0.91649 0.98967 0.0
C55 C 0.85902 0.89829 0.00783 0.0
C56 C 0.88604 0.92234 0.01929 0.0
C57 C 0.87247 0.89485 0.99282 0.0
H58 H 0.97032 0.95593 -0.00081 0.0
H59 H 0.87547 0.92389 0.03087 0.0
O60 O 0.04003 0.02829 0.05649 0.0
O61 O 0.98966 0.03284 0.02901 0.0
O62 O 0.01259 0.96837 0.02803 0.0
O63 O 0.95349 0.96559 0.05413 0.0
H64 H 0.05905 0.10162 0.06367 0.0
H65 H 0.10568 0.02563 0.05236 0.0
H66 H 0.12735 0.15775 0.06564 0.0
H67 H 0.1732 0.08315 0.05448 0.0
H68 H 0.90171 0.04589 -0.00181 0.0
H69 H 0.0217 0.03507 0.00104 0.0
H70 H 0.92622 0.03953 0.02438 0.0
H71 H 0.99579 0.04213 0.9753 0.0
H72 H 0.12685 0.15795 0.01345 0.0
H73 H 0.15251 0.06842 0.99718 0.0
H74 H 0.9835 0.08384 0.10299 0.0
H75 H 0.96506 0.13561 0.0609 0.0
H76 H 0.95853 0.89409 0.02225 0.0
H77 H 0.08069 0.9717 0.03363 0.0
H78 H 0.97084 0.83786 0.02239 0.0
H79 H 0.09078 0.91403 0.03369 0.0
H80 H 0.90564 0.90086 0.06998 0.0
H81 H 0.91569 0.00432 0.04779 0.0
H82 H 0.83705 0.881 0.07768 0.0
H83 H 0.84716 0.98301 0.05601 0.0
H84 H 0.07613 0.92844 0.08932 0.0
H85 H 0.96129 0.83924 0.07272 0.0
H86 H 0.92474 0.91505 0.97823 0.0
H87 H 0.82805 0.88163 0.01087 0.0
Li88 Li 0.98763 0.96341 0.36451 0.0
Li89 Li 0.03305 0.00531 0.38511 0.0
Li90 Li 0.96324 0.99156 0.38396 0.0
Li91 Li 0.01181 0.03635 0.36486 0.0
C92 C 0.96921 0.91506 0.38985 0.0
N93 N 0.94169 0.83534 0.39346 0.0
C94 C 0.99423 0.90196 0.39547 0.0
C95 C 0.93003 0.88764 0.38632 0.0
C96 C 0.97981 0.86153 0.39715 0.0
C97 C 0.91671 0.84746 0.38815 0.0
C98 C 0.08025 0.02257 0.35736 0.0
C99 C 0.14581 0.07693 0.35265 0.0
N100 N 0.15743 0.05109 0.34796 0.0
C101 C 0.09271 0.99662 0.35223 0.0
C102 C 0.10689 0.06311 0.35736 0.0
C103 C 0.13189 0.01157 0.34764 0.0
C104 C 0.95265 0.91366 0.33811 0.0
N105 N 0.97616 0.92042 0.35092 0.0
C106 C 0.98889 0.86927 0.34304 0.0
C107 C 0.99419 0.89898 0.35354 0.0
C108 C 0.96519 0.8619 0.32958 0.0
C109 C 0.94669 0.88432 0.32722 0.0
H110 H 0.93931 0.93168 0.33613 0.0
H111 H 0.01372 0.90579 0.36354 0.0
C112 C 0.07988 0.02968 0.41286 0.0
N113 N 0.07423 0.01103 0.39872 0.0
C114 C 0.10842 0.03193 0.42338 0.0
C115 C 0.12433 0.99524 0.40467 0.0
C116 C 0.09565 0.99386 0.39451 0.0
C117 C 0.13087 0.01426 0.41937 0.0
H118 H 0.06167 0.04211 0.41612 0.0
H119 H 0.08961 0.97797 0.38349 0.0
C120 C 0.92085 0.98449 0.35771 0.0
N121 N 0.84537 0.97057 0.35237 0.0
C122 C 0.91455 0.01572 0.35408 0.0
C123 C 0.88882 0.9461 0.35834 0.0
C124 C 0.87615 0.00811 0.3515 0.0
C125 C 0.85087 0.93968 0.35569 0.0
C126 C 0.03346 0.08058 0.3932 0.0
C127 C 0.01407 0.09907 0.39972 0.0
C128 C 0.07453 0.1013 0.39203 0.0
C129 C 0.03606 0.13832 0.40461 0.0
C130 C 0.09549 0.14047 0.39708 0.0
N131 N 0.07598 0.15805 0.40318 0.0
C132 C 0.90211 0.95488 0.40689 0.0
C133 C 0.90783 0.01168 0.39438 0.0
C134 C 0.87118 0.95141 0.4163 0.0
N135 N 0.91962 0.98467 0.3962 0.0
C136 C 0.87695 0.00922 0.40344 0.0
C137 C 0.85832 0.97891 0.41464 0.0
H138 H 0.91251 0.93419 0.40829 0.0
H139 H 0.92294 0.03562 0.38607 0.0
C140 C 0.0403 0.0814 0.33713 0.0
N141 N 0.0255 0.08069 0.35175 0.0
C142 C 0.04646 0.111 0.32637 0.0
C143 C 0.02239 0.13877 0.346 0.0
C144 C 0.01673 0.10866 0.35637 0.0
C145 C 0.03687 0.13986 0.33068 0.0
H146 H 0.04627 0.0583 0.33367 0.0
H147 H 0.00355 0.10658 0.3678 0.0
O148 O 0.98293 0.95454 0.38798 0.0
O149 O 0.04187 0.00838 0.36181 0.0
O150 O 0.95823 0.99143 0.36041 0.0
O151 O 0.0123 0.04216 0.38831 0.0
H152 H 0.02449 0.92272 0.39845 0.0
H153 H 0.91008 0.89726 0.38226 0.0
H154 H -0.00107 0.85098 0.4014 0.0
H155 H 0.8865 0.82592 0.38538 0.0
H156 H 0.16673 0.10824 0.35265 0.0
H157 H 0.07243 0.96521 0.35192 0.0
H158 H 0.09756 0.0838 0.36074 0.0
H159 H 0.14198 0.99175 0.34379 0.0
H160 H 0.00435 0.85324 0.34513 0.0
H161 H 0.9281 0.87948 0.31702 0.0
H162 H 0.11204 0.04629 0.43471 0.0
H163 H 0.14104 0.98132 0.4011 0.0
H164 H 0.93897 0.04557 0.3534 0.0
H165 H 0.89321 0.92148 0.36076 0.0
H166 H 0.87084 0.03206 0.34881 0.0
H167 H 0.82581 0.91012 0.35621 0.0
H168 H 0.98236 0.08339 0.40091 0.0
H169 H 0.09013 0.08713 0.38752 0.0
H170 H 0.02139 0.15306 0.40956 0.0
H171 H 0.12729 0.15684 0.39621 0.0
H172 H 0.8575 0.92752 0.42476 0.0
H173 H 0.86849 0.03148 0.402 0.0
H174 H 0.05793 0.11088 0.31472 0.0
H175 H 0.01378 0.15986 0.34971 0.0
Li176 Li 0.02445 0.9857 0.69763 0.0
Li177 Li 0.02656 0.02986 0.71878 0.0
Li178 Li 0.97166 0.96047 0.71694 0.0
Li179 Li 0.97482 0.00904 0.69825 0.0
C180 C 0.05469 0.96792 0.72362 0.0
N181 N 0.10874 0.94334 0.72872 0.0
C182 C 0.09062 0.99302 0.731 0.0
C183 C 0.0461 0.93018 0.71898 0.0
C184 C 0.11759 0.98008 0.73343 0.0
C185 C 0.07386 0.91835 0.72162 0.0
C186 C 0.05879 0.07663 0.69006 0.0
C187 C 0.07425 0.14232 0.68262 0.0
N188 N 0.1111 0.15066 0.67834 0.0
C189 C 0.09664 0.0857 0.68537 0.0
C190 C 0.04734 0.10503 0.68849 0.0
C191 C 0.12272 0.12334 0.67957 0.0
C192 C 0.04084 0.95909 0.66935 0.0
N193 N 0.05637 0.97558 0.68362 0.0
C194 C 0.11887 0.98366 0.67628 0.0
C195 C 0.09459 0.98785 0.68724 0.0
C196 C 0.10389 0.96752 0.66134 0.0
C197 C 0.06427 0.95488 0.65793 0.0
H198 H 0.01054 0.95025 0.66669 0.0
H199 H 0.10676 0.00233 0.69837 0.0
C200 C 0.04767 0.07123 0.74769 0.0
N201 N 0.06095 0.07021 0.73292 0.0
C202 C 0.07286 0.09885 0.75874 0.0
C203 C 0.12486 0.12378 0.73918 0.0
C204 C 0.09874 0.0956 0.72855 0.0
C205 C 0.11207 0.12551 0.75454 0.0
H206 H 0.01764 0.05018 0.75094 0.0
H207 H 0.10904 0.09323 0.717 0.0
C208 C 0.93729 0.91798 0.69135 0.0
N209 N 0.877 0.84116 0.68762 0.0
C210 C 0.89838 0.90975 0.68993 0.0
C211 C 0.94564 0.88726 0.69064 0.0
C212 C 0.86828 0.87068 0.68812 0.0
C213 C 0.91473 0.84859 0.68881 0.0
C214 C 0.95595 0.03396 0.72639 0.0
C215 C 0.9195 0.01932 0.73392 0.0
C216 C 0.97949 0.07449 0.72391 0.0
C217 C 0.90692 0.04547 0.73861 0.0
C218 C 0.96593 0.09971 0.72879 0.0
N219 N 0.93019 0.0848 0.73595 0.0
C220 C 0.94598 0.89443 0.7377 0.0
C221 C 0.89749 0.90999 0.72951 0.0
C222 C 0.91871 0.8644 0.7475 0.0
N223 N 0.93496 0.91657 0.72905 0.0
C224 C 0.86938 0.88048 0.73917 0.0
C225 C 0.87999 0.85757 0.74849 0.0
H226 H 0.97612 0.90072 0.73734 0.0
H227 H 0.88966 0.92821 0.72255 0.0
C228 C 0.95823 0.03757 0.67057 0.0
N229 N 0.94437 0.023 0.68524 0.0
C230 C 0.93507 0.04462 0.66001 0.0
C231 C 0.88388 0.02167 0.67989 0.0
C232 C 0.90805 0.01508 0.69006 0.0
C233 C 0.89713 0.03617 0.66456 0.0
H234 H 0.98695 0.04283 0.66695 0.0
H235 H 0.89722 0.00224 0.70158 0.0
O236 O 0.02806 0.98021 0.72107 0.0
O237 O 0.03274 0.0397 0.6956 0.0
O238 O 0.96709 0.95597 0.69335 0.0
O239 O 0.96853 0.00865 0.72164 0.0
H240 H 0.09766 0.02221 0.73477 0.0
H241 H 0.01838 0.91032 0.71335 0.0
H242 H 0.14557 -0.00075 0.73907 0.0
H243 H 0.06766 0.88929 0.71801 0.0
H244 H 0.06578 0.16458 0.6814 0.0
H245 H 0.10596 0.06409 0.68636 0.0
H246 H 0.01786 0.09832 0.69158 0.0
H247 H 0.15219 0.13083 0.67604 0.0
H248 H 0.1495 0.99449 0.67922 0.0
H249 H 0.05173 0.94232 0.64651 0.0
H250 H 0.06182 0.09929 0.77045 0.0
H251 H 0.15509 0.14318 0.73558 0.0
H252 H 0.89146 0.93323 0.69037 0.0
H253 H 0.97567 0.89322 0.69144 0.0
H254 H 0.83798 0.86383 0.68713 0.0
H255 H 0.92074 0.82448 0.68831 0.0
H256 H 0.90101 0.98808 0.73609 0.0
H257 H 0.00811 0.08642 0.71847 0.0
H258 H 0.87868 0.03451 0.74437 0.0
H259 H 0.98388 0.13116 0.72692 0.0
H260 H 0.92817 0.84768 0.75463 0.0
H261 H 0.83973 0.87586 0.73945 0.0
H262 H 0.94653 0.05605 0.64834 0.0
H263 H 0.85455 0.01397 0.68377 0.0
H264 H 0.0532 0.4724 0.18043 0.0
H265 H 0.05312 0.41906 0.1653 0.0
H266 H 0.94239 0.33552 0.187 0.0
H267 H 0.943 0.38876 0.20219 0.0
H268 H 0.00402 0.50035 0.18031 0.0
H269 H 0.05357 0.45091 0.21863 0.0
H270 H 0.06185 0.40524 0.23562 0.0
H271 H 0.94783 0.36754 0.25664 0.0
H272 H 0.94001 0.41383 0.2397 0.0
H273 H 0.92217 0.50828 0.23449 0.0
H274 H 0.91059 0.55414 0.25003 0.0
H275 H 0.02387 0.65013 0.23541 0.0
H276 H 0.03526 0.604 0.21983 0.0
H277 H 0.98159 0.49148 0.23832 0.0
H278 H 0.93896 0.5497 0.19661 0.0
H279 H 0.94502 0.60505 0.18095 0.0
H280 H 0.06354 0.6354 0.1678 0.0
H281 H 0.05708 0.57988 0.18332 0.0
C282 C -0.00171 0.43452 0.19253 0.0
C283 C 0.02901 0.44256 0.18194 0.0
C284 C 0.02883 0.41205 0.17327 0.0
C285 C -0.00225 0.37298 0.17495 0.0
C286 C 0.96713 0.36511 0.18562 0.0
C287 C 0.96738 0.39556 0.1943 0.0
C288 C -0.00244 0.4668 0.20142 0.0
C289 C -0.00038 0.49867 0.19302 0.0
C290 C 0.99225 0.46489 0.21801 0.0
C291 C 0.99604 0.43556 0.22781 0.0
C292 C 0.03012 0.43243 0.22675 0.0
C293 C 0.03479 0.40625 0.23647 0.0
C294 C 0.00549 0.3827 0.24749 0.0
C295 C 0.97119 0.38564 0.24843 0.0
C296 C 0.96658 0.41194 0.23872 0.0
C297 C 0.97944 0.55276 0.22594 0.0
C298 C 0.94446 0.53923 0.2346 0.0
C299 C 0.93794 0.56543 0.24351 0.0
C300 C 0.96637 0.60572 0.24398 0.0
C301 C 0.00121 0.61934 0.23512 0.0
C302 C 0.00778 0.59303 0.22623 0.0
C303 C 0.98654 0.52419 0.21713 0.0
C304 C 0.98586 0.49305 0.22559 0.0
C305 C 0.99457 0.52764 0.2007 0.0
C306 C -0.00233 0.56086 0.1912 0.0
C307 C 0.96628 0.56844 0.19041 0.0
C308 C 0.96984 0.60013 0.18149 0.0
C309 C 0.00478 0.62466 0.17313 0.0
C310 C 0.03605 0.61679 0.17391 0.0
C311 C 0.03245 0.58514 0.18281 0.0
H312 H 0.58273 0.05694 0.51276 0.0
H313 H 0.63519 0.05583 0.49745 0.0
H314 H 0.61536 0.95166 0.52283 0.0
H315 H 0.56309 0.95298 0.53808 0.0
H316 H 0.50705 0.00485 0.51349 0.0
H317 H 0.60822 0.06327 0.55198 0.0
H318 H 0.66205 0.07275 0.56937 0.0
H319 H 0.58486 0.96116 0.59201 0.0
H320 H 0.53101 0.95221 0.57472 0.0
H321 H 0.42297 0.93609 0.57121 0.0
H322 H 0.3652 0.92588 0.58595 0.0
H323 H 0.37113 0.02716 0.56275 0.0
H324 H 0.43059 0.0387 0.54884 0.0
H325 H 0.49585 0.99474 0.57197 0.0
H326 H 0.394 0.9386 0.53113 0.0
H327 H 0.34202 0.93711 0.51457 0.0
H328 H 0.42507 0.05228 0.49614 0.0
H329 H 0.47646 0.05404 0.51306 0.0
C330 C 0.56919 0.00525 0.52665 0.0
C331 C 0.58987 0.03402 0.51507 0.0
C332 C 0.61973 0.03326 0.5063 0.0
C333 C 0.62937 0.0036 0.50891 0.0
C334 C 0.60905 0.97522 0.5207 0.0
C335 C 0.57915 0.97595 0.52943 0.0
C336 C 0.53566 0.00436 0.53518 0.0
C337 C 0.50488 0.00323 0.5263 0.0
C338 C 0.53264 0.00198 0.55186 0.0
C339 C 0.56567 0.00692 0.562 0.0
C340 C 0.60303 0.04068 0.56059 0.0
C341 C 0.6338 0.04602 0.57052 0.0
C342 C 0.62777 0.01773 0.5821 0.0
C343 C 0.59034 0.98381 0.58339 0.0
C344 C 0.55958 0.97855 0.57348 0.0
C345 C 0.43095 0.98791 0.55879 0.0
C346 C 0.41193 0.95621 0.56935 0.0
C347 C 0.37853 0.95012 0.57763 0.0
C348 C 0.36316 0.97547 0.57547 0.0
C349 C 0.38228 0.00723 0.56484 0.0
C350 C 0.41605 0.0136 0.5567 0.0
C351 C 0.46678 0.99419 0.55026 0.0
C352 C 0.49807 0.99642 0.55916 0.0
C353 C 0.47051 0.99823 0.53361 0.0
C354 C 0.43895 0.99662 0.52344 0.0
C355 C 0.40086 0.96361 0.5236 0.0
C356 C 0.3713 0.96268 0.51405 0.0
C357 C 0.3794 0.99467 0.5041 0.0
C358 C 0.41771 0.02746 0.50386 0.0
C359 C 0.4472 0.02837 0.51341 0.0
H360 H 0.46743 0.42118 0.84557 0.0
H361 H 0.41308 0.37192 0.82948 0.0
H362 H 0.3326 0.39999 0.85334 0.0
H363 H 0.38706 0.44958 0.86917 0.0
H364 H 0.49679 0.49928 0.84672 0.0
H365 H 0.44444 0.39471 0.88306 0.0
H366 H 0.39614 0.33972 0.899 0.0
H367 H 0.36656 0.41855 0.92337 0.0
H368 H 0.41512 0.47357 0.90739 0.0
H369 H 0.51062 0.58351 0.90341 0.0
H370 H 0.55889 0.64007 0.91869 0.0
H371 H 0.65178 0.62158 0.90077 0.0
H372 H 0.60326 0.56519 0.88537 0.0
H373 H 0.49184 0.50621 0.90524 0.0
H374 H 0.54556 0.61062 0.8653 0.0
H375 H 0.59786 0.66212 0.84914 0.0
H376 H 0.62906 0.57748 0.83177 0.0
H377 H 0.57726 0.52638 0.84818 0.0
C378 C 0.43123 0.43883 0.85862 0.0
C379 C 0.43803 0.41657 0.84736 0.0
C380 C 0.40695 0.3883 0.83826 0.0
C381 C 0.36862 0.38216 0.84016 0.0
C382 C 0.36187 0.40432 0.85153 0.0
C383 C 0.39289 0.43239 0.86067 0.0
C384 C 0.46432 0.47011 0.86779 0.0
C385 C 0.49603 0.50045 0.85954 0.0
C386 C 0.4633 0.47167 0.88449 0.0
C387 C 0.43316 0.43821 0.89394 0.0
C388 C 0.42723 0.40009 0.89171 0.0
C389 C 0.39958 0.36866 0.90082 0.0
C390 C 0.37748 0.37476 0.91244 0.0
C391 C 0.38346 0.41298 0.91465 0.0
C392 C 0.4111 0.44442 0.9055 0.0
C393 C 0.55339 0.57032 0.8932 0.0
C394 C 0.5414 0.59166 0.90279 0.0
C395 C 0.56901 0.62389 0.91155 0.0
C396 C 0.60918 0.6353 0.91097 0.0
C397 C 0.62114 0.6139 0.9013 0.0
C398 C 0.59346 0.58162 0.89253 0.0
C399 C 0.52364 0.5359 0.88412 0.0
C400 C 0.49261 0.50488 0.89243 0.0
C401 C 0.52577 0.53328 0.8675 0.0
C402 C 0.55779 0.5648 0.85801 0.0
C403 C 0.56395 0.60331 0.85812 0.0
C404 C 0.5936 0.63259 0.8488 0.0
C405 C 0.61757 0.62382 0.8392 0.0
C406 C 0.6114 0.58525 0.83919 0.0
C407 C 0.58166 0.55598 0.84846 0.0
C408 C 0.95919 0.13926 0.10833 0.0
C409 C 0.97567 0.14654 0.09306 0.0
C410 C 0.96187 0.17013 0.11759 0.0
C411 C 0.98113 0.20898 0.11174 0.0
C412 C 0.99683 0.21609 0.0964 0.0
C413 C 0.99447 0.18537 0.08721 0.0
C414 C 0.98462 0.24269 0.12108 0.0
C415 C 0.98643 0.2442 0.13701 0.0
C416 C 0.9906 0.27816 0.14647 0.0
C417 C 0.98052 0.27235 0.16258 0.0
C418 C 0.98332 0.30316 0.17188 0.0
C419 C 0.9965 0.34067 0.16528 0.0
H420 H 0.01433 0.32243 0.12778 0.0
C421 C 0.00756 0.3468 0.14926 0.0
C422 C 0.00486 0.31603 0.13997 0.0
H423 H 0.01769 0.37527 0.14377 0.0
H424 H 0.94383 0.10963 0.11309 0.0
H425 H 0.94823 0.16329 0.12917 0.0
H426 H 0.01165 0.24571 0.09159 0.0
H427 H 0.0081 0.19229 0.07562 0.0
H428 H 0.9868 0.26733 0.1144 0.0
H429 H 0.98443 0.21936 0.14353 0.0
H430 H 0.97 0.24371 0.16798 0.0
H431 H 0.97525 0.29761 0.18426 0.0
C432 C 0.82597 0.9697 0.44116 0.0
C433 C 0.8266 0.97702 0.42486 0.0
C434 C 0.7975 0.97035 0.45094 0.0
C435 C 0.76909 0.97846 0.44458 0.0
C436 C 0.76896 0.98439 0.4282 0.0
C437 C 0.79751 0.98391 0.41845 0.0
C438 C 0.739 0.98075 0.45451 0.0
C439 C 0.74394 0.99 0.47003 0.0
C440 C 0.71441 0.99394 0.47972 0.0
C441 C 0.7139 0.98863 0.49617 0.0
C442 C 0.68654 0.99202 0.50568 0.0
C443 C 0.65937 0.00127 0.49895 0.0
H444 H 0.68797 0.00972 0.46049 0.0
C445 C 0.66044 0.00746 0.48253 0.0
C446 C 0.68771 0.00399 0.47302 0.0
H447 H 0.63979 0.01446 0.47697 0.0
H448 H 0.84804 0.96434 0.44645 0.0
H449 H 0.79786 0.96431 0.46341 0.0
H450 H 0.74712 0.99016 0.42295 0.0
H451 H 0.79685 0.98901 0.40589 0.0
H452 H 0.71236 0.97581 0.44857 0.0
H453 H 0.77045 0.99479 0.47603 0.0
H454 H 0.73449 0.98144 0.50167 0.0
H455 H 0.68683 0.98764 0.51832 0.0
C456 C 0.82736 0.83721 0.76905 0.0
C457 C 0.8512 0.82795 0.75965 0.0
C458 C 0.80025 0.80965 0.77965 0.0
C459 C 0.79594 0.77184 0.78093 0.0
C460 C 0.82029 0.76286 0.77171 0.0
C461 C 0.84763 0.79058 0.76117 0.0
C462 C 0.76722 0.74144 0.79198 0.0
C463 C 0.7353 0.74187 0.79772 0.0
C464 C 0.70601 0.7114 0.80858 0.0
C465 C 0.66878 0.70813 0.81006 0.0
C466 C 0.64023 0.68 0.82009 0.0
C467 C 0.64832 0.65451 0.82893 0.0
H468 H 0.74307 0.68873 0.81742 0.0
C469 C 0.68575 0.65812 0.82769 0.0
C470 C 0.7144 0.68638 0.81771 0.0
H471 H 0.69307 0.63936 0.8346 0.0
H472 H 0.83018 0.86614 0.76844 0.0
H473 H 0.78339 0.81855 0.78695 0.0
H474 H 0.81793 0.73415 0.77255 0.0
H475 H 0.8656 0.7826 0.75406 0.0
H476 H 0.7718 0.717 0.79481 0.0
H477 H 0.72894 0.76445 0.79376 0.0
H478 H 0.66154 0.72715 0.80329 0.0
H479 H 0.61155 0.67773 0.82069 0.0
C480 C 0.03558 0.85721 0.10751 0.0
C481 C 0.0219 0.84935 0.09183 0.0
C482 C 0.03611 0.82786 0.11676 0.0
C483 C 0.02288 0.78998 0.11047 0.0
C484 C 0.01046 0.78261 0.09464 0.0
C485 C 0.00976 0.81186 0.08544 0.0
C486 C 0.02203 0.75756 0.11991 0.0
C487 C 0.01874 0.75534 0.13581 0.0
C488 C 0.01575 0.72174 0.14513 0.0
C489 C -0.00214 0.71381 0.16012 0.0
C490 C 0.99416 0.68228 0.16919 0.0
C491 C 0.0086 0.65817 0.16352 0.0
H492 H 0.04587 0.70374 0.12832 0.0
C493 C 0.02706 0.66647 0.14863 0.0
C494 C 0.03077 0.69797 0.13956 0.0
H495 H 0.03838 0.64838 0.14388 0.0
H496 H 0.04513 0.88583 0.11276 0.0
H497 H 0.04711 0.83512 0.12874 0.0
H498 H 0.00064 0.7539 0.08943 0.0
H499 H -0.00027 0.80512 0.0733 0.0
H500 H 0.02134 0.73339 0.11335 0.0
H501 H 0.01562 0.77763 0.14224 0.0
H502 H 0.98643 0.73189 0.16479 0.0
H503 H 0.98039 0.6771 0.18073 0.0
C504 C 0.16252 0.98027 0.43295 0.0
C505 C 0.16001 0.01448 0.43064 0.0
C506 C 0.18986 0.98023 0.44352 0.0
C507 C 0.21567 0.01462 0.45195 0.0
C508 C 0.21264 0.04859 0.44983 0.0
C509 C 0.18519 0.04859 0.43927 0.0
C510 C 0.24541 0.01606 0.46327 0.0
C511 C 0.25981 0.99119 0.46268 0.0
C512 C 0.28999 0.9928 0.4738 0.0
C513 C 0.29348 0.95903 0.47561 0.0
C514 C 0.3221 0.95943 0.48558 0.0
C515 C 0.34818 0.99381 0.49387 0.0
H516 H 0.31538 0.05433 0.48073 0.0
C517 C 0.3448 0.02768 0.49205 0.0
C518 C 0.31615 0.02728 0.4821 0.0
H519 H 0.36435 0.05459 0.49834 0.0
H520 H 0.14282 0.95322 0.42677 0.0
H521 H 0.18998 0.95292 0.44522 0.0
H522 H 0.23189 0.0754 0.45625 0.0
H523 H 0.18406 0.07545 0.43771 0.0
H524 H 0.2561 0.03902 0.4722 0.0
H525 H 0.24916 0.9683 0.45372 0.0
H526 H 0.27401 0.93219 0.46925 0.0
H527 H 0.32431 0.93302 0.48654 0.0
C528 C 0.16676 0.19299 0.7617 0.0
C529 C 0.14001 0.15403 0.76622 0.0
C530 C 0.19443 0.21935 0.77246 0.0
C531 C 0.19586 0.20728 0.78802 0.0
C532 C 0.16908 0.16837 0.79252 0.0
C533 C 0.14126 0.14207 0.78178 0.0
C534 C 0.22622 0.2338 0.79952 0.0
C535 C 0.2433 0.27335 0.79896 0.0
C536 C 0.27473 0.29999 0.81006 0.0
C537 C 0.27977 0.33748 0.81305 0.0
C538 C 0.30988 0.36391 0.82299 0.0
C539 C 0.33598 0.35357 0.82999 0.0
H540 H 0.29863 0.2614 0.8147 0.0
C541 C 0.33116 0.31615 0.82694 0.0
C542 C 0.30085 0.28959 0.81708 0.0
H543 H 0.35083 0.30739 0.83219 0.0
H544 H 0.16644 0.20307 0.74979 0.0
H545 H 0.21526 0.24874 0.76838 0.0
H546 H 0.16983 0.15821 0.80438 0.0
H547 H 0.12142 0.11205 0.78554 0.0
H548 H 0.23368 0.22008 0.80904 0.0
H549 H 0.23302 0.28692 0.79042 0.0
H550 H 0.26036 0.3464 0.80765 0.0
H551 H 0.31324 0.39277 0.82494 0.0
C552 C 0.84596 0.05473 0.65801 0.0
C553 C 0.87058 0.04018 0.65312 0.0
C554 C 0.81918 0.05607 0.64747 0.0
C555 C 0.81619 0.04248 0.63182 0.0
C556 C 0.84178 0.02927 0.62681 0.0
C557 C 0.86856 0.02796 0.63734 0.0
C558 C 0.78681 0.04137 0.6204 0.0
C559 C 0.75265 0.03899 0.62487 0.0
C560 C 0.72157 0.03453 0.61357 0.0
C561 C 0.68294 0.01926 0.61922 0.0
C562 C 0.65259 0.01385 0.60903 0.0
C563 C 0.66019 0.02378 0.59293 0.0
H564 H 0.75888 0.05828 0.59273 0.0
C565 C 0.69898 0.03977 0.58731 0.0
C566 C 0.72939 0.04528 0.59751 0.0
H567 H 0.70584 0.04767 0.57496 0.0
H568 H 0.84743 0.06515 0.67001 0.0
H569 H 0.80111 0.06793 0.65165 0.0
H570 H 0.84037 0.01893 0.6148 0.0
H571 H 0.88684 0.01625 0.63321 0.0
H572 H 0.79237 0.03934 0.60795 0.0
H573 H 0.74568 0.03746 0.63738 0.0
H574 H 0.67609 0.01115 0.63156 0.0
H575 H 0.6232 0.00223 0.61383 0.0
C576 C 0.80723 0.86404 0.97879 0.0
C577 C 0.8445 0.86761 0.98078 0.0
C578 C 0.78029 0.83705 0.96796 0.0
C579 C 0.78999 0.81284 0.95896 0.0
C580 C 0.82763 0.81729 0.9606 0.0
C581 C 0.85452 0.84419 0.97144 0.0
C582 C 0.76175 0.78266 0.94778 0.0
C583 C 0.72238 0.76476 0.94965 0.0
C584 C 0.69397 0.73225 0.93931 0.0
C585 C 0.65665 0.70554 0.94541 0.0
C586 C 0.62921 0.67415 0.93623 0.0
C587 C 0.63834 0.66896 0.92064 0.0
H588 H 0.73088 0.7482 0.91828 0.0
C589 C 0.67545 0.6961 0.91441 0.0
C590 C 0.70296 0.7275 0.92361 0.0
H591 H 0.68306 0.69338 0.90233 0.0
H592 H 0.79894 0.88228 0.98554 0.0
H593 H 0.75211 0.83554 0.96662 0.0
H594 H 0.83597 0.79921 0.95374 0.0
H595 H 0.88282 0.84588 0.97277 0.0
H596 H 0.77401 0.77281 0.93851 0.0
H597 H 0.71033 0.77204 0.95984 0.0
H598 H 0.64886 0.70858 0.95743 0.0
H599 H 0.60105 0.65356 0.94145 0.0
C600 C 0.95692 0.79595 0.32259 0.0
C601 C 0.96155 0.83232 0.31772 0.0
C602 C 0.95621 0.76918 0.31148 0.0
C603 C 0.95995 0.77817 0.29521 0.0
C604 C 0.96426 0.81439 0.29036 0.0
C605 C 0.9648 0.8411 0.30147 0.0
C606 C 0.96219 0.75176 0.28314 0.0
C607 C 0.94567 0.7125 0.28514 0.0
C608 C 0.9503 0.68574 0.27394 0.0
C609 C 0.93998 0.64779 0.27923 0.0
C610 C 0.94493 0.62183 0.26948 0.0
C611 C 0.96021 0.63312 0.25412 0.0
H612 H 0.9722 0.72518 0.25357 0.0
C613 C 0.96993 0.67078 0.24865 0.0
C614 C 0.96487 0.69679 0.2584 0.0
H615 H 0.9811 0.68002 0.23676 0.0
H616 H 0.95427 0.78834 0.33503 0.0
H617 H 0.95406 0.74217 0.31579 0.0
H618 H 0.96764 0.82226 0.27793 0.0
H619 H 0.96903 0.86916 0.29737 0.0
H620 H 0.97842 0.76568 0.27243 0.0
H621 H 0.92873 0.69912 0.29581 0.0
H622 H 0.92862 0.63834 0.29109 0.0
H623 H 0.93753 0.59315 0.27411 0.0
C624 C 0.15599 0.95216 0.65285 0.0
C625 C 0.1303 0.96623 0.64911 0.0
C626 C 0.183 0.95372 0.64167 0.0
C627 C 0.18501 0.96969 0.62655 0.0
C628 C 0.15913 0.98348 0.6228 0.0
C629 C 0.13173 0.9814 0.63391 0.0
C630 C 0.21567 0.97498 0.61494 0.0
C631 C 0.23039 0.9505 0.61407 0.0
C632 C 0.26319 0.95754 0.60332 0.0
C633 C 0.2655 0.92523 0.5975 0.0
C634 C 0.2973 0.931 0.5881 0.0
C635 C 0.32801 0.96931 0.5846 0.0
H636 H 0.29318 0.02147 0.60431 0.0
C637 C 0.32552 0.00167 0.5904 0.0
C638 C 0.29344 0.99587 0.59962 0.0
H639 H 0.34895 0.03157 0.58826 0.0
H640 H 0.1555 0.9404 0.66451 0.0
H641 H 0.20318 0.94374 0.6451 0.0
H642 H 0.16038 0.99627 0.61129 0.0
H643 H 0.11261 0.99295 0.63081 0.0
H644 H 0.22581 -0.00061 0.60666 0.0
H645 H 0.21748 0.92387 0.62121 0.0
H646 H 0.24262 0.89541 0.60023 0.0
H647 H 0.29783 0.90535 0.58363 0.0
C648 C 0.18365 0.14017 0.97905 0.0
C649 C 0.17791 0.14766 0.99481 0.0
C650 C 0.21329 0.16983 0.96984 0.0
C651 C 0.23777 0.20761 0.97623 0.0
C652 C 0.23303 0.21449 0.99216 0.0
C653 C 0.20327 0.18496 0.00133 0.0
C654 C 0.26844 0.24059 0.96672 0.0
C655 C 0.26582 0.24364 0.95093 0.0
C656 C 0.29513 0.27775 0.94144 0.0
C657 C 0.29747 0.2728 0.9251 0.0
C658 C 0.32411 0.30422 0.91568 0.0
C659 C 0.34881 0.34146 0.92239 0.0
H660 H 0.31784 0.32079 0.96056 0.0
C661 C 0.34611 0.34661 0.93871 0.0
C662 C 0.31951 0.3152 0.94814 0.0
H663 H 0.36485 0.3749 0.94426 0.0
H664 H 0.16456 0.1117 0.97371 0.0
H665 H 0.21687 0.16294 0.95777 0.0
H666 H 0.25181 0.24314 0.99744 0.0
H667 H 0.19994 0.19138 0.01352 0.0
H668 H 0.29304 0.2638 0.97317 0.0
H669 H 0.24111 0.22035 0.94454 0.0
H670 H 0.2787 0.24446 0.91958 0.0
H671 H 0.32503 0.29944 0.9031 0.0
C672 C 0.05225 0.2084 0.3236 0.0
C673 C 0.03932 0.16931 0.319 0.0
C674 C 0.05157 0.23524 0.31289 0.0
C675 C 0.03759 0.22343 0.29737 0.0
C676 C 0.02617 0.18485 0.29261 0.0
C677 C 0.02684 0.15801 0.30331 0.0
C678 C 0.03433 0.2503 0.28584 0.0
C679 C 0.0293 0.28059 0.29023 0.0
C680 C 0.02336 0.30616 0.27887 0.0
C681 C 0.00623 0.32797 0.28441 0.0
C682 C 0.00012 0.35248 0.27423 0.0
C683 C 0.0112 0.35593 0.25823 0.0
H684 H 0.04917 0.2946 0.25816 0.0
C685 C 0.02863 0.33436 0.25268 0.0
C686 C 0.03485 0.30991 0.26287 0.0
H687 H 0.03739 0.33624 0.2404 0.0
H688 H 0.06284 0.21823 0.3355 0.0
H689 H 0.06212 0.26515 0.31685 0.0
H690 H 0.01563 0.17506 0.28069 0.0
H691 H 0.01633 0.12804 0.29941 0.0
H692 H 0.03304 0.2428 0.27341 0.0
H693 H 0.02701 0.28563 0.30272 0.0
H694 H -0.00255 0.32601 0.29669 0.0
H695 H 0.98731 0.36925 0.27897 0.0
loop_
_geom_bond_atom_site_label_1
_geom_bond_atom_site_label_2
_geom_bond_distance
_geom_bond_site_symmetry_2
_ccdc_geom_bond_type
Li0 N17 1.990 . S
Li0 O60 1.956 . S
Li0 O61 1.970 1_455 S
Li0 O62 1.961 1_545 S
Li1 N25 1.990 . S
Li1 O60 1.970 1_655 S
Li1 O61 1.956 . S
Li1 O63 1.961 1_545 S
Li2 N47 1.990 . S
Li2 O60 1.961 1_565 S
Li2 O62 1.956 . S
Li2 O63 1.970 1_455 S
Li3 N53 1.990 . S
Li3 O61 1.961 1_565 S
Li3 O62 1.970 1_655 S
Li3 O63 1.956 . S
C4 C6 1.348 . S
C4 C7 1.356 . S
C4 O60 1.325 . S
N5 C8 1.314 . S
N5 C9 1.279 . S
C6 C4 1.348 . S
C6 C8 1.353 . S
C6 H64 0.929 . S
C7 C4 1.356 . S
C7 C9 1.358 . S
C7 H65 0.930 . S
C8 N5 1.314 . S
C8 C6 1.353 . S
C8 H66 0.930 . S
C9 N5 1.279 . S
C9 C7 1.358 . S
C9 H67 0.930 . S
C10 C13 1.348 1_655 S
C10 C14 1.356 . S
C10 O61 1.325 . S
C11 N12 1.279 . S
C11 C14 1.358 . S
C11 H68 0.930 . S
N12 C11 1.279 . S
N12 C15 1.314 . S
C13 C10 1.348 1_455 S
C13 C15 1.353 1_455 S
C13 H69 0.929 . S
C14 C10 1.356 . S
C14 C11 1.358 . S
C14 H70 0.930 . S
C15 N12 1.314 . S
C15 C13 1.353 1_655 S
C15 H71 0.930 1_655 S
C16 N17 1.314 . S
C16 C21 1.353 1_554 S
C16 H22 0.948 . S
N17 Li0 1.990 . S
N17 C16 1.314 . S
N17 C19 1.279 . S
C18 C19 1.358 . S
C18 C20 1.327 1_554 S
C18 H72 0.930 . S
C19 N17 1.279 . S
C19 C18 1.358 . S
C19 H23 0.930 . S
C20 C18 1.327 1_556 S
C20 C21 1.357 . S
C21 C16 1.353 1_556 S
C21 C20 1.357 . S
C21 H73 0.929 . S
H22 C16 0.948 . S
H23 C19 0.930 . S
C24 N25 1.314 . S
C24 C26 1.353 . S
C24 H30 0.930 . S
N25 Li1 1.990 . S
N25 C24 1.314 . S
N25 C28 1.279 . S
C26 C24 1.353 . S
C26 C29 1.348 . S
C26 H74 0.929 . S
C27 C28 1.358 . S
C27 C29 1.356 . S
C27 H75 0.930 . S
C28 N25 1.279 . S
C28 C27 1.358 . S
C28 H31 0.930 . S
C29 C26 1.348 . S
C29 C27 1.356 . S
H30 C24 0.930 . S
H31 C28 0.930 . S
C32 C34 1.348 1_455 S
C32 C35 1.356 . S
C32 O62 1.325 . S
N33 C36 1.314 . S
N33 C37 1.279 . S
C34 C32 1.348 1_655 S
C34 C36 1.353 1_655 S
C34 H76 0.929 . S
C35 C32 1.356 . S
C35 C37 1.358 . S
C35 H77 0.930 . S
C36 N33 1.314 . S
C36 C34 1.353 1_455 S
C36 H78 0.930 1_455 S
C37 N33 1.279 . S
C37 C35 1.358 . S
C37 H79 0.930 . S
C38 C39 1.348 . S
C38 C40 1.356 . S
C38 O63 1.325 . S
C39 C38 1.348 . S
C39 C41 1.353 . S
C39 H80 0.929 . S
C40 C38 1.356 . S
C40 C42 1.358 . S
C40 H81 0.930 . S
C41 C39 1.353 . S
C41 N43 1.314 . S
C41 H82 0.930 . S
C42 C40 1.358 . S
C42 N43 1.279 . S
C42 H83 0.930 . S
N43 C41 1.314 . S
N43 C42 1.279 . S
C44 C46 1.353 . S
C44 N47 1.314 . S
C44 H50 0.930 . S
C45 N47 1.279 . S
C45 C48 1.358 . S
C45 H51 0.930 . S
C46 C44 1.353 . S
C46 C49 1.348 . S
C46 H84 0.929 . S
N47 Li2 1.990 . S
N47 C44 1.314 . S
N47 C45 1.279 . S
C48 C45 1.358 . S
C48 C49 1.356 . S
C48 H85 0.930 . S
C49 C46 1.348 . S
C49 C48 1.356 . S
H50 C44 0.930 . S
H51 C45 0.930 . S
C52 N53 1.314 . S
C52 C54 1.353 1_554 S
C52 H58 0.948 . S
N53 Li3 1.990 . S
N53 C52 1.314 . S
N53 C56 1.279 . S
C54 C52 1.353 1_556 S
C54 C57 1.358 . S
C54 H86 0.929 . S
C55 C56 1.358 . S
C55 C57 1.326 1_554 S
C55 H87 0.930 . S
C56 N53 1.279 . S
C56 C55 1.358 . S
C56 H59 0.930 . S
C57 C54 1.358 . S
C57 C55 1.326 1_556 S
H58 C52 0.948 . S
H59 C56 0.930 . S
O60 Li0 1.956 . S
O60 Li1 1.970 1_455 S
O60 Li2 1.961 1_545 S
O60 C4 1.325 . S
O61 Li0 1.970 1_655 S
O61 Li1 1.956 . S
O61 Li3 1.961 1_545 S
O61 C10 1.325 . S
O62 Li0 1.961 1_565 S
O62 Li2 1.956 . S
O62 Li3 1.970 1_455 S
O62 C32 1.325 . S
O63 Li1 1.961 1_565 S
O63 Li2 1.970 1_655 S
O63 Li3 1.956 . S
O63 C38 1.325 . S
H64 C6 0.929 . S
H65 C7 0.930 . S
H66 C8 0.930 . S
H67 C9 0.930 . S
H68 C11 0.930 . S
H69 C13 0.929 . S
H70 C14 0.930 . S
H71 C15 0.930 1_455 S
H72 C18 0.930 . S
H73 C21 0.929 . S
H74 C26 0.929 . S
H75 C27 0.930 . S
H76 C34 0.929 . S
H77 C35 0.930 . S
H78 C36 0.930 1_655 S
H79 C37 0.930 . S
H80 C39 0.929 . S
H81 C40 0.930 . S
H82 C41 0.930 . S
H83 C42 0.930 . S
H84 C46 0.929 . S
H85 C48 0.930 . S
H86 C54 0.929 . S
H87 C55 0.930 . S
Li88 N105 1.990 . S
Li88 O148 1.956 . S
Li88 O149 1.970 1_665 S
Li88 O150 1.961 . S
Li89 N113 1.990 . S
Li89 O148 1.970 1_445 S
Li89 O149 1.956 . S
Li89 O151 1.961 . S
Li90 N135 1.990 . S
Li90 O148 1.961 . S
Li90 O150 1.956 . S
Li90 O151 1.970 1_665 S
Li91 N141 1.990 . S
Li91 O149 1.961 . S
Li91 O150 1.970 1_445 S
Li91 O151 1.956 . S
C92 C94 1.348 1_655 S
C92 C95 1.356 . S
C92 O148 1.325 . S
N93 C96 1.314 . S
N93 C97 1.279 . S
C94 C92 1.348 1_455 S
C94 C96 1.353 1_455 S
C94 H152 0.929 . S
C95 C92 1.356 . S
C95 C97 1.358 . S
C95 H153 0.930 . S
C96 N93 1.314 . S
C96 C94 1.353 1_655 S
C96 H154 0.930 1_655 S
C97 N93 1.279 . S
C97 C95 1.358 . S
C97 H155 0.930 . S
C98 C101 1.348 1_545 S
C98 C102 1.356 . S
C98 O149 1.325 . S
C99 N100 1.279 . S
C99 C102 1.358 . S
C99 H156 0.930 . S
N100 C99 1.279 . S
N100 C103 1.314 . S
C101 C98 1.348 1_565 S
C101 C103 1.353 1_565 S
C101 H157 0.929 . S
C102 C98 1.356 . S
C102 C99 1.358 . S
C102 H158 0.930 . S
C103 N100 1.314 . S
C103 C101 1.353 1_545 S
C103 H159 0.930 1_545 S
C104 N105 1.314 . S
C104 C109 1.353 . S
C104 H110 0.930 . S
N105 Li88 1.990 . S
N105 C104 1.314 . S
N105 C107 1.279 . S
C106 C107 1.358 . S
C106 C108 1.356 . S
C106 H160 0.930 . S
C107 N105 1.279 . S
C107 C106 1.358 . S
C107 H111 0.930 . S
C108 C106 1.356 . S
C108 C109 1.348 . S
C109 C104 1.353 . S
C109 C108 1.348 . S
C109 H161 0.929 . S
H110 C104 0.930 . S
H111 C107 0.930 . S
C112 N113 1.314 . S
C112 C114 1.353 . S
C112 H118 0.930 . S
N113 Li89 1.990 . S
N113 C112 1.314 . S
N113 C116 1.279 . S
C114 C112 1.353 . S
C114 C117 1.348 . S
C114 H162 0.929 . S
C115 C116 1.358 . S
C115 C117 1.356 . S
C115 H163 0.930 . S
C116 N113 1.279 . S
C116 C115 1.358 . S
C116 H119 0.930 . S
C117 C114 1.348 . S
C117 C115 1.356 . S
H118 C112 0.930 . S
H119 C116 0.930 . S
C120 C122 1.348 1_565 S
C120 C123 1.356 . S
C120 O150 1.325 . S
N121 C124 1.314 . S
N121 C125 1.279 . S
C122 C120 1.348 1_545 S
C122 C124 1.353 1_545 S
C122 H164 0.929 . S
C123 C120 1.356 . S
C123 C125 1.358 . S
C123 H165 0.930 . S
C124 N121 1.314 . S
C124 C122 1.353 1_565 S
C124 H166 0.930 1_565 S
C125 N121 1.279 . S
C125 C123 1.358 . S
C125 H167 0.930 . S
C126 C127 1.348 1_455 S
C126 C128 1.356 . S
C126 O151 1.325 . S
C127 C126 1.348 1_655 S
C127 C129 1.353 1_655 S
C127 H168 0.929 . S
C128 C126 1.356 . S
C128 C130 1.358 . S
C128 H169 0.930 . S
C129 C127 1.353 1_455 S
C129 N131 1.314 . S
C129 H170 0.930 1_455 S
C130 C128 1.358 . S
C130 N131 1.279 . S
C130 H171 0.930 . S
N131 C129 1.314 . S
N131 C130 1.279 . S
C132 C134 1.353 . S
C132 N135 1.314 . S
C132 H138 0.930 . S
C133 N135 1.279 . S
C133 C136 1.358 . S
C133 H139 0.930 . S
C134 C132 1.353 . S
C134 C137 1.348 . S
C134 H172 0.929 . S
N135 Li90 1.990 . S
N135 C132 1.314 . S
N135 C133 1.279 . S
C136 C133 1.358 . S
C136 C137 1.356 . S
C136 H173 0.930 . S
C137 C134 1.348 . S
C137 C136 1.356 . S
H138 C132 0.930 . S
H139 C133 0.930 . S
C140 N141 1.314 . S
C140 C142 1.353 . S
C140 H146 0.930 . S
N141 Li91 1.990 . S
N141 C140 1.314 . S
N141 C144 1.279 . S
C142 C140 1.353 . S
C142 C145 1.348 . S
C142 H174 0.929 . S
C143 C144 1.358 . S
C143 C145 1.356 . S
C143 H175 0.930 . S
C144 N141 1.279 . S
C144 C143 1.358 . S
C144 H147 0.930 . S
C145 C142 1.348 . S
C145 C143 1.356 . S
H146 C140 0.930 . S
H147 C144 0.930 . S
O148 Li88 1.956 . S
O148 Li89 1.970 1_665 S
O148 Li90 1.961 . S
O148 C92 1.325 . S
O149 Li88 1.970 1_445 S
O149 Li89 1.956 . S
O149 Li91 1.961 . S
O149 C98 1.325 . S
O150 Li88 1.961 . S
O150 Li90 1.956 . S
O150 Li91 1.970 1_665 S
O150 C120 1.325 . S
O151 Li89 1.961 . S
O151 Li90 1.970 1_445 S
O151 Li91 1.956 . S
O151 C126 1.325 . S
H152 C94 0.929 . S
H153 C95 0.930 . S
H154 C96 0.930 1_455 S
H155 C97 0.930 . S
H156 C99 0.930 . S
H157 C101 0.929 . S
H158 C102 0.930 . S
H159 C103 0.930 1_565 S
H160 C106 0.930 . S
H161 C109 0.929 . S
H162 C114 0.929 . S
H163 C115 0.930 . S
H164 C122 0.929 . S
H165 C123 0.930 . S
H166 C124 0.930 1_545 S
H167 C125 0.930 . S
H168 C127 0.929 . S
H169 C128 0.930 . S
H170 C129 0.930 1_655 S
H171 C130 0.930 . S
H172 C134 0.929 . S
H173 C136 0.930 . S
H174 C142 0.929 . S
H175 C143 0.930 . S
Li176 N193 1.990 . S
Li176 O236 1.956 . S
Li176 O237 1.970 1_565 S
Li176 O238 1.961 1_455 S
Li177 N201 1.990 . S
Li177 O236 1.970 1_545 S
Li177 O237 1.956 . S
Li177 O239 1.961 1_455 S
Li178 N223 1.990 . S
Li178 O236 1.961 1_655 S
Li178 O238 1.956 . S
Li178 O239 1.970 1_565 S
Li179 N229 1.990 . S
Li179 O237 1.961 1_655 S
Li179 O238 1.970 1_545 S
Li179 O239 1.956 . S
C180 C182 1.348 1_565 S
C180 C183 1.356 . S
C180 O236 1.325 . S
N181 C184 1.314 . S
N181 C185 1.279 . S
C182 C180 1.348 1_545 S
C182 C184 1.353 1_545 S
C182 H240 0.929 . S
C183 C180 1.356 . S
C183 C185 1.358 . S
C183 H241 0.930 . S
C184 N181 1.314 . S
C184 C182 1.353 1_565 S
C184 H242 0.930 1_565 S
C185 N181 1.279 . S
C185 C183 1.358 . S
C185 H243 0.930 . S
C186 C189 1.348 . S
C186 C190 1.356 . S
C186 O237 1.325 . S
C187 N188 1.279 . S
C187 C190 1.358 . S
C187 H244 0.930 . S
N188 C187 1.279 . S
N188 C191 1.314 . S
C189 C186 1.348 . S
C189 C191 1.353 . S
C189 H245 0.929 . S
C190 C186 1.356 . S
C190 C187 1.358 . S
C190 H246 0.930 . S
C191 N188 1.314 . S
C191 C189 1.353 . S
C191 H247 0.930 . S
C192 N193 1.314 . S
C192 C197 1.353 . S
C192 H198 0.930 . S
N193 Li176 1.990 . S
N193 C192 1.314 . S
N193 C195 1.279 . S
C194 C195 1.358 . S
C194 C196 1.356 . S
C194 H248 0.930 . S
C195 N193 1.279 . S
C195 C194 1.358 . S
C195 H199 0.930 . S
C196 C194 1.356 . S
C196 C197 1.348 . S
C197 C192 1.353 . S
C197 C196 1.348 . S
C197 H249 0.929 . S
H198 C192 0.930 . S
H199 C195 0.930 . S
C200 N201 1.314 . S
C200 C202 1.353 . S
C200 H206 0.930 . S
N201 Li177 1.990 . S
N201 C200 1.314 . S
N201 C204 1.279 . S
C202 C200 1.353 . S
C202 C205 1.348 . S
C202 H250 0.929 . S
C203 C204 1.358 . S
C203 C205 1.356 . S
C203 H251 0.930 . S
C204 N201 1.279 . S
C204 C203 1.358 . S
C204 H207 0.930 . S
C205 C202 1.348 . S
C205 C203 1.356 . S
H206 C200 0.930 . S
H207 C204 0.930 . S
C208 C210 1.348 . S
C208 C211 1.356 . S
C208 O238 1.325 . S
N209 C212 1.314 . S
N209 C213 1.279 . S
C210 C208 1.348 . S
C210 C212 1.353 . S
C210 H252 0.929 . S
C211 C208 1.356 . S
C211 C213 1.358 . S
C211 H253 0.930 . S
C212 N209 1.314 . S
C212 C210 1.353 . S
C212 H254 0.930 . S
C213 N209 1.279 . S
C213 C211 1.358 . S
C213 H255 0.930 . S
C214 C215 1.348 1_545 S
C214 C216 1.356 . S
C214 O239 1.325 . S
C215 C214 1.348 1_565 S
C215 C217 1.353 1_565 S
C215 H256 0.929 . S
C216 C214 1.356 . S
C216 C218 1.358 . S
C216 H257 0.930 . S
C217 C215 1.353 1_545 S
C217 N219 1.314 . S
C217 H258 0.930 1_545 S
C218 C216 1.358 . S
C218 N219 1.279 . S
C218 H259 0.930 . S
N219 C217 1.314 . S
N219 C218 1.279 . S
C220 C222 1.353 . S
C220 N223 1.314 . S
C220 H226 0.930 . S
C221 N223 1.279 . S
C221 C224 1.358 . S
C221 H227 0.930 . S
C222 C220 1.353 . S
C222 C225 1.348 . S
C222 H260 0.929 . S
N223 Li178 1.990 . S
N223 C220 1.314 . S
N223 C221 1.279 . S
C224 C221 1.358 . S
C224 C225 1.356 . S
C224 H261 0.930 . S
C225 C222 1.348 . S
C225 C224 1.356 . S
H226 C220 0.930 . S
H227 C221 0.930 . S
C228 N229 1.314 . S
C228 C230 1.353 . S
C228 H234 0.930 . S
N229 Li179 1.990 . S
N229 C228 1.314 . S
N229 C232 1.279 . S
C230 C228 1.353 . S
C230 C233 1.348 . S
C230 H262 0.929 . S
C231 C232 1.358 . S
C231 C233 1.356 . S
C231 H263 0.930 . S
C232 N229 1.279 . S
C232 C231 1.358 . S
C232 H235 0.930 . S
C233 C230 1.348 . S
C233 C231 1.356 . S
H234 C228 0.930 . S
H235 C232 0.930 . S
O236 Li176 1.956 . S
O236 Li177 1.970 1_565 S
O236 Li178 1.961 1_455 S
O236 C180 1.325 . S
O237 Li176 1.970 1_545 S
O237 Li177 1.956 . S
O237 Li179 1.961 1_455 S
O237 C186 1.325 . S
O238 Li176 1.961 1_655 S
O238 Li178 1.956 . S
O238 Li179 1.970 1_565 S
O238 C208 1.325 . S
O239 Li177 1.961 1_655 S
O239 Li178 1.970 1_545 S
O239 Li179 1.956 . S
O239 C214 1.325 . S
H240 C182 0.929 . S
H241 C183 0.930 . S
H242 C184 0.930 1_545 S
H243 C185 0.930 . S
H244 C187 0.930 . S
H245 C189 0.929 . S
H246 C190 0.930 . S
H247 C191 0.930 . S
H248 C194 0.930 . S
H249 C197 0.929 . S
H250 C202 0.929 . S
H251 C203 0.930 . S
H252 C210 0.929 . S
H253 C211 0.930 . S
H254 C212 0.930 . S
H255 C213 0.930 . S
H256 C215 0.929 . S
H257 C216 0.930 . S
H258 C217 0.930 1_565 S
H259 C218 0.930 . S
H260 C222 0.929 . S
H261 C224 0.930 . S
H262 C230 0.929 . S
H263 C231 0.930 . S
H264 C283 0.949 . S
H265 C284 0.950 . S
H266 C286 0.950 . S
H267 C287 0.950 . S
H268 C289 0.950 . S
H269 C292 0.950 . S
H270 C293 0.950 . S
H271 C295 0.951 . S
H272 C296 0.949 . S
H273 C298 0.949 . S
H274 C299 0.950 . S
H275 C301 0.950 . S
H276 C302 0.950 . S
H277 C304 0.950 . S
H278 C307 0.950 . S
H279 C308 0.950 . S
H280 C310 0.951 . S
H281 C311 0.949 . S
C282 C283 1.376 . S
C282 C287 1.386 1_455 S
C282 C288 1.483 . S
C283 H264 0.949 . S
C283 C282 1.376 . S
C283 C284 1.397 . S
C284 H265 0.950 . S
C284 C283 1.397 . S
C284 C285 1.391 . S
C285 C284 1.391 . S
C285 C286 1.405 1_455 S
C286 H266 0.950 . S
C286 C285 1.405 1_655 S
C286 C287 1.367 . S
C287 H267 0.950 . S
C287 C282 1.386 1_655 S
C287 C286 1.367 . S
C288 C282 1.483 . S
C288 C289 1.382 . S
C288 C290 1.403 1_455 S
C289 H268 0.950 . S
C289 C288 1.382 . S
C289 C305 1.411 . S
C290 C288 1.403 1_655 S
C290 C291 1.489 . S
C290 C304 1.411 . S
C291 C290 1.489 . S
C291 C292 1.383 1_655 S
C291 C296 1.382 . S
C292 H269 0.950 . S
C292 C291 1.383 1_455 S
C292 C293 1.395 . S
C293 H270 0.950 . S
C293 C292 1.395 . S
C293 C294 1.288 1_455 S
C294 C293 1.288 1_655 S
C294 C295 1.392 . S
C295 H271 0.951 . S
C295 C294 1.392 . S
C295 C296 1.392 . S
C296 H272 0.949 . S
C296 C291 1.382 . S
C296 C295 1.392 . S
C297 C298 1.376 . S
C297 C302 1.386 1_655 S
C297 C303 1.483 . S
C298 H273 0.949 . S
C298 C297 1.376 . S
C298 C299 1.397 . S
C299 H274 0.950 . S
C299 C298 1.397 . S
C299 C300 1.399 . S
C300 C299 1.399 . S
C300 C301 1.390 1_655 S
C301 H275 0.950 . S
C301 C300 1.390 1_455 S
C301 C302 1.367 . S
C302 H276 0.950 . S
C302 C297 1.386 1_455 S
C302 C301 1.367 . S
C303 C297 1.483 . S
C303 C304 1.382 . S
C303 C305 1.403 1_655 S
C304 H277 0.950 . S
C304 C290 1.411 . S
C304 C303 1.382 . S
C305 C289 1.411 . S
C305 C303 1.403 1_455 S
C305 C306 1.489 . S
C306 C305 1.489 . S
C306 C307 1.383 1_455 S
C306 C311 1.382 . S
C307 H278 0.950 . S
C307 C306 1.383 1_655 S
C307 C308 1.395 . S
C308 H279 0.950 . S
C308 C307 1.395 . S
C308 C309 1.288 1_655 S
C309 C308 1.288 1_455 S
C309 C310 1.392 . S
C310 H280 0.951 . S
C310 C309 1.392 . S
C310 C311 1.392 . S
C311 H281 0.949 . S
C311 C306 1.382 . S
C311 C310 1.392 . S
H312 C331 0.949 . S
H313 C332 0.950 . S
H314 C334 0.950 . S
H315 C335 0.950 . S
H316 C337 0.950 . S
H317 C340 0.950 . S
H318 C341 0.950 . S
H319 C343 0.951 . S
H320 C344 0.949 . S
H321 C346 0.949 . S
H322 C347 0.950 . S
H323 C349 0.950 . S
H324 C350 0.950 . S
H325 C352 0.950 . S
H326 C355 0.950 . S
H327 C356 0.950 . S
H328 C358 0.951 . S
H329 C359 0.949 . S
C330 C331 1.376 . S
C330 C335 1.386 1_545 S
C330 C336 1.483 . S
C331 H312 0.949 . S
C331 C330 1.376 . S
C331 C332 1.397 . S
C332 H313 0.950 . S
C332 C331 1.397 . S
C332 C333 1.391 . S
C333 C332 1.391 . S
C333 C334 1.405 1_545 S
C334 H314 0.950 . S
C334 C333 1.405 1_565 S
C334 C335 1.367 . S
C335 H315 0.950 . S
C335 C330 1.386 1_565 S
C335 C334 1.367 . S
C336 C330 1.483 . S
C336 C337 1.382 . S
C336 C338 1.403 1_545 S
C337 H316 0.950 . S
C337 C336 1.382 . S
C337 C353 1.411 . S
C338 C336 1.403 1_565 S
C338 C339 1.489 . S
C338 C352 1.411 . S
C339 C338 1.489 . S
C339 C340 1.383 1_565 S
C339 C344 1.382 . S
C340 H317 0.950 . S
C340 C339 1.383 1_545 S
C340 C341 1.395 . S
C341 H318 0.950 . S
C341 C340 1.395 . S
C341 C342 1.288 1_545 S
C342 C341 1.288 1_565 S
C342 C343 1.392 . S
C343 H319 0.951 . S
C343 C342 1.392 . S
C343 C344 1.392 . S
C344 H320 0.949 . S
C344 C339 1.382 . S
C344 C343 1.392 . S
C345 C346 1.376 . S
C345 C350 1.386 1_565 S
C345 C351 1.483 . S
C346 H321 0.949 . S
C346 C345 1.376 . S
C346 C347 1.397 . S
C347 H322 0.950 . S
C347 C346 1.397 . S
C347 C348 1.412 . S
C348 C347 1.412 . S
C348 C349 1.394 1_565 S
C349 H323 0.950 . S
C349 C348 1.394 1_545 S
C349 C350 1.367 . S
C350 H324 0.950 . S
C350 C345 1.386 1_545 S
C350 C349 1.367 . S
C351 C345 1.483 . S
C351 C352 1.382 . S
C351 C353 1.403 1_565 S
C352 H325 0.950 . S
C352 C338 1.411 . S
C352 C351 1.382 . S
C353 C337 1.411 . S
C353 C351 1.403 1_545 S
C353 C354 1.489 . S
C354 C353 1.489 . S
C354 C355 1.383 1_545 S
C354 C359 1.382 . S
C355 H326 0.950 . S
C355 C354 1.383 1_565 S
C355 C356 1.395 . S
C356 H327 0.950 . S
C356 C355 1.395 . S
C356 C357 1.288 1_565 S
C357 C356 1.288 1_545 S
C357 C358 1.392 . S
C358 H328 0.951 . S
C358 C357 1.392 . S
C358 C359 1.392 . S
C359 H329 0.949 . S
C359 C354 1.382 . S
C359 C358 1.392 . S
H360 C379 0.949 . S
H361 C380 0.950 . S
H362 C382 0.950 . S
H363 C383 0.950 . S
H364 C385 0.950 . S
H365 C388 0.950 . S
H366 C389 0.950 . S
H367 C391 0.951 . S
H368 C392 0.949 . S
H369 C394 0.949 . S
H370 C395 0.950 . S
H371 C397 0.950 . S
H372 C398 0.950 . S
H373 C400 0.950 . S
H374 C403 0.950 . S
H375 C404 0.950 . S
H376 C406 0.951 . S
H377 C407 0.949 . S
C378 C379 1.376 . S
C378 C383 1.386 . S
C378 C384 1.483 . S
C379 H360 0.949 . S
C379 C378 1.376 . S
C379 C380 1.397 . S
C380 H361 0.950 . S
C380 C379 1.397 . S
C380 C381 1.391 . S
C381 C380 1.391 . S
C381 C382 1.405 . S
C382 H362 0.950 . S
C382 C381 1.405 . S
C382 C383 1.367 . S
C383 H363 0.950 . S
C383 C378 1.386 . S
C383 C382 1.367 . S
C384 C378 1.483 . S
C384 C385 1.382 . S
C384 C386 1.403 . S
C385 H364 0.950 . S
C385 C384 1.382 . S
C385 C401 1.411 . S
C386 C384 1.403 . S
C386 C387 1.489 . S
C386 C400 1.411 . S
C387 C386 1.489 . S
C387 C388 1.383 . S
C387 C392 1.382 . S
C388 H365 0.950 . S
C388 C387 1.383 . S
C388 C389 1.395 . S
C389 H366 0.950 . S
C389 C388 1.395 . S
C389 C390 1.288 . S
C390 C389 1.288 . S
C390 C391 1.392 . S
C391 H367 0.951 . S
C391 C390 1.392 . S
C391 C392 1.392 . S
C392 H368 0.949 . S
C392 C387 1.382 . S
C392 C391 1.392 . S
C393 C394 1.376 . S
C393 C398 1.386 . S
C393 C399 1.483 . S
C394 H369 0.949 . S
C394 C393 1.376 . S
C394 C395 1.397 . S
C395 H370 0.950 . S
C395 C394 1.397 . S
C395 C396 1.391 . S
C396 C395 1.391 . S
C396 C397 1.405 . S
C397 H371 0.950 . S
C397 C396 1.405 . S
C397 C398 1.367 . S
C398 H372 0.950 . S
C398 C393 1.386 . S
C398 C397 1.367 . S
C399 C393 1.483 . S
C399 C400 1.382 . S
C399 C401 1.403 . S
C400 H373 0.950 . S
C400 C386 1.411 . S
C400 C399 1.382 . S
C401 C385 1.411 . S
C401 C399 1.403 . S
C401 C402 1.489 . S
C402 C401 1.489 . S
C402 C403 1.383 . S
C402 C407 1.382 . S
C403 H374 0.950 . S
C403 C402 1.383 . S
C403 C404 1.395 . S
C404 H375 0.950 . S
C404 C403 1.395 . S
C404 C405 1.288 . S
C405 C404 1.288 . S
C405 C406 1.392 . S
C406 H376 0.951 . S
C406 C405 1.392 . S
C406 C407 1.392 . S
C407 H377 0.949 . S
C407 C402 1.382 . S
C407 C406 1.392 . S
C408 C409 1.386 . S
C408 C410 1.383 . S
C408 H424 0.951 . S
C409 C408 1.386 . S
C409 C413 1.383 . S
C410 C408 1.383 . S
C410 C411 1.402 . S
C410 H425 0.951 . S
C411 C410 1.402 . S
C411 C412 1.375 1_655 S
C411 C414 1.481 . S
C412 C411 1.375 1_455 S
C412 C413 1.367 1_455 S
C412 H426 0.951 . S
C413 C409 1.383 . S
C413 C412 1.367 1_655 S
C413 H427 0.950 1_655 S
C414 C411 1.481 . S
C414 C415 1.297 . S
C414 H428 0.950 1_655 S
C415 C414 1.297 . S
C415 C416 1.479 . S
C415 H429 0.950 . S
C416 C415 1.479 . S
C416 C417 1.375 . S
C416 C422 1.404 1_655 S
C417 C416 1.375 . S
C417 C418 1.369 . S
C417 H430 0.950 . S
C418 C417 1.369 . S
C418 C419 1.385 1_655 S
C418 H431 0.951 . S
C419 C418 1.385 1_455 S
C419 C421 1.401 . S
H420 C422 0.949 . S
C421 C419 1.401 . S
C421 C422 1.385 . S
C421 H423 0.950 . S
C422 C416 1.404 1_455 S
C422 H420 0.949 . S
C422 C421 1.385 . S
H423 C421 0.950 . S
H424 C408 0.951 . S
H425 C410 0.951 . S
H426 C412 0.951 . S
H427 C413 0.950 1_455 S
H428 C414 0.950 1_455 S
H429 C415 0.950 . S
H430 C417 0.950 . S
H431 C418 0.951 . S
C432 C433 1.386 . S
C432 C434 1.383 . S
C432 H448 0.951 . S
C433 C432 1.386 . S
C433 C437 1.383 . S
C434 C432 1.383 . S
C434 C435 1.402 . S
C434 H449 0.951 . S
C435 C434 1.402 . S
C435 C436 1.375 . S
C435 C438 1.481 . S
C436 C435 1.375 . S
C436 C437 1.367 . S
C436 H450 0.951 . S
C437 C433 1.383 . S
C437 C436 1.367 . S
C437 H451 0.950 . S
C438 C435 1.481 . S
C438 C439 1.297 . S
C438 H452 0.950 . S
C439 C438 1.297 . S
C439 C440 1.479 1_565 S
C439 H453 0.955 1_565 S
C440 C439 1.479 1_545 S
C440 C441 1.375 . S
C440 C446 1.404 . S
C441 C440 1.375 . S
C441 C442 1.358 . S
C441 H454 0.951 1_545 S
C442 C441 1.358 . S
C442 C443 1.405 . S
C442 H455 0.948 1_545 S
C443 C442 1.405 . S
C443 C445 1.384 . S
H444 C446 0.949 . S
C445 C443 1.384 . S
C445 C446 1.385 . S
C445 H447 0.950 . S
C446 C440 1.404 . S
C446 H444 0.949 . S
C446 C445 1.385 . S
H447 C445 0.950 . S
H448 C432 0.951 . S
H449 C434 0.951 . S
H450 C436 0.951 . S
H451 C437 0.950 . S
H452 C438 0.950 . S
H453 C439 0.955 1_545 S
H454 C441 0.951 1_565 S
H455 C442 0.948 1_565 S
C456 C457 1.386 . S
C456 C458 1.383 . S
C456 H472 0.951 . S
C457 C456 1.386 . S
C457 C461 1.383 . S
C458 C456 1.383 . S
C458 C459 1.402 . S
C458 H473 0.951 . S
C459 C458 1.402 . S
C459 C460 1.375 . S
C459 C462 1.481 . S
C460 C459 1.375 . S
C460 C461 1.367 . S
C460 H474 0.951 . S
C461 C457 1.383 . S
C461 C460 1.367 . S
C461 H475 0.950 . S
C462 C459 1.481 . S
C462 C463 1.297 . S
C462 H476 0.950 . S
C463 C462 1.297 . S
C463 C464 1.479 . S
C463 H477 0.950 . S
C464 C463 1.479 . S
C464 C465 1.375 . S
C464 C470 1.404 . S
C465 C464 1.375 . S
C465 C466 1.369 . S
C465 H478 0.950 . S
C466 C465 1.369 . S
C466 C467 1.392 . S
C466 H479 0.951 . S
C467 C466 1.392 . S
C467 C469 1.384 . S
H468 C470 0.949 . S
C469 C467 1.384 . S
C469 C470 1.385 . S
C469 H471 0.950 . S
C470 C464 1.404 . S
C470 H468 0.949 . S
C470 C469 1.385 . S
H471 C469 0.950 . S
H472 C456 0.951 . S
H473 C458 0.951 . S
H474 C460 0.951 . S
H475 C461 0.950 . S
H476 C462 0.950 . S
H477 C463 0.950 . S
H478 C465 0.950 . S
H479 C466 0.951 . S
C480 C481 1.386 . S
C480 C482 1.383 . S
C480 H496 0.951 . S
C481 C480 1.386 . S
C481 C485 1.383 . S
C482 C480 1.383 . S
C482 C483 1.402 . S
C482 H497 0.951 . S
C483 C482 1.402 . S
C483 C484 1.375 . S
C483 C486 1.481 . S
C484 C483 1.375 . S
C484 C485 1.367 . S
C484 H498 0.951 . S
C485 C481 1.383 . S
C485 C484 1.367 . S
C485 H499 0.950 . S
C486 C483 1.481 . S
C486 C487 1.297 . S
C486 H500 0.950 . S
C487 C486 1.297 . S
C487 C488 1.479 1_455 S
C487 H501 0.950 1_455 S
C488 C487 1.479 1_655 S
C488 C489 1.375 . S
C488 C494 1.404 1_655 S
C489 C488 1.375 . S
C489 C490 1.369 . S
C489 H502 0.950 . S
C490 C489 1.369 . S
C490 C491 1.392 . S
C490 H503 0.951 . S
C491 C490 1.392 . S
C491 C493 1.384 1_655 S
H492 C494 0.949 . S
C493 C491 1.384 1_455 S
C493 C494 1.385 . S
C493 H495 0.950 . S
C494 C488 1.404 1_455 S
C494 H492 0.949 . S
C494 C493 1.385 . S
H495 C493 0.950 . S
H496 C480 0.951 . S
H497 C482 0.951 . S
H498 C484 0.951 . S
H499 C485 0.950 . S
H500 C486 0.950 . S
H501 C487 0.950 1_655 S
H502 C489 0.950 . S
H503 C490 0.951 . S
C504 C505 1.386 . S
C504 C506 1.383 . S
C504 H520 0.951 1_545 S
C505 C504 1.386 . S
C505 C509 1.383 . S
C506 C504 1.383 . S
C506 C507 1.402 . S
C506 H521 0.951 1_545 S
C507 C506 1.402 . S
C507 C508 1.375 . S
C507 C510 1.481 . S
C508 C507 1.375 . S
C508 C509 1.367 . S
C508 H522 0.951 . S
C509 C505 1.383 . S
C509 C508 1.367 . S
C509 H523 0.950 . S
C510 C507 1.481 . S
C510 C511 1.297 . S
C510 H524 0.950 . S
C511 C510 1.297 . S
C511 C512 1.479 . S
C511 H525 0.950 1_545 S
C512 C511 1.479 . S
C512 C513 1.375 1_545 S
C512 C518 1.404 . S
C513 C512 1.375 1_565 S
C513 C514 1.369 . S
C513 H526 0.950 . S
C514 C513 1.369 . S
C514 C515 1.392 1_565 S
C514 H527 0.951 . S
C515 C514 1.392 1_545 S
C515 C517 1.384 . S
H516 C518 0.949 . S
C517 C515 1.384 . S
C517 C518 1.385 . S
C517 H519 0.950 . S
C518 C512 1.404 . S
C518 H516 0.949 . S
C518 C517 1.385 . S
H519 C517 0.950 . S
H520 C504 0.951 1_565 S
H521 C506 0.951 1_565 S
H522 C508 0.951 . S
H523 C509 0.950 . S
H524 C510 0.950 . S
H525 C511 0.950 1_565 S
H526 C513 0.950 . S
H527 C514 0.951 . S
C528 C529 1.386 . S
C528 C530 1.383 . S
C528 H544 0.951 . S
C529 C528 1.386 . S
C529 C533 1.383 . S
C530 C528 1.383 . S
C530 C531 1.402 . S
C530 H545 0.951 . S
C531 C530 1.402 . S
C531 C532 1.375 . S
C531 C534 1.481 . S
C532 C531 1.375 . S
C532 C533 1.367 . S
C532 H546 0.951 . S
C533 C529 1.383 . S
C533 C532 1.367 . S
C533 H547 0.950 . S
C534 C531 1.481 . S
C534 C535 1.297 . S
C534 H548 0.950 . S
C535 C534 1.297 . S
C535 C536 1.479 . S
C535 H549 0.950 . S
C536 C535 1.479 . S
C536 C537 1.375 . S
C536 C542 1.404 . S
C537 C536 1.375 . S
C537 C538 1.369 . S
C537 H550 0.950 . S
C538 C537 1.369 . S
C538 C539 1.392 . S
C538 H551 0.951 . S
C539 C538 1.392 . S
C539 C541 1.384 . S
H540 C542 0.949 . S
C541 C539 1.384 . S
C541 C542 1.385 . S
C541 H543 0.950 . S
C542 C536 1.404 . S
C542 H540 0.949 . S
C542 C541 1.385 . S
H543 C541 0.950 . S
H544 C528 0.951 . S
H545 C530 0.951 . S
H546 C532 0.951 . S
H547 C533 0.950 . S
H548 C534 0.950 . S
H549 C535 0.950 . S
H550 C537 0.950 . S
H551 C538 0.951 . S
C552 C553 1.386 . S
C552 C554 1.383 . S
C552 H568 0.951 . S
C553 C552 1.386 . S
C553 C557 1.383 . S
C554 C552 1.383 . S
C554 C555 1.402 . S
C554 H569 0.951 . S
C555 C554 1.402 . S
C555 C556 1.375 . S
C555 C558 1.481 . S
C556 C555 1.375 . S
C556 C557 1.367 . S
C556 H570 0.951 . S
C557 C553 1.383 . S
C557 C556 1.367 . S
C557 H571 0.950 . S
C558 C555 1.481 . S
C558 C559 1.297 . S
C558 H572 0.950 . S
C559 C558 1.297 . S
C559 C560 1.479 . S
C559 H573 0.950 . S
C560 C559 1.479 . S
C560 C561 1.375 . S
C560 C566 1.404 . S
C561 C560 1.375 . S
C561 C562 1.369 . S
C561 H574 0.950 . S
C562 C561 1.369 . S
C562 C563 1.392 . S
C562 H575 0.951 . S
C563 C562 1.392 . S
C563 C565 1.384 . S
H564 C566 0.949 . S
C565 C563 1.384 . S
C565 C566 1.385 . S
C565 H567 0.950 . S
C566 C560 1.404 . S
C566 H564 0.949 . S
C566 C565 1.385 . S
H567 C565 0.950 . S
H568 C552 0.951 . S
H569 C554 0.951 . S
H570 C556 0.951 . S
H571 C557 0.950 . S
H572 C558 0.950 . S
H573 C559 0.950 . S
H574 C561 0.950 . S
H575 C562 0.951 . S
C576 C577 1.386 . S
C576 C578 1.383 . S
C576 H592 0.951 1_556 S
C577 C576 1.386 . S
C577 C581 1.383 . S
C578 C576 1.383 . S
C578 C579 1.402 . S
C578 H593 0.951 . S
C579 C578 1.402 . S
C579 C580 1.375 . S
C579 C582 1.481 . S
C580 C579 1.375 . S
C580 C581 1.367 . S
C580 H594 0.951 . S
C581 C577 1.383 . S
C581 C580 1.367 . S
C581 H595 0.950 . S
C582 C579 1.481 . S
C582 C583 1.297 . S
C582 H596 0.950 . S
C583 C582 1.297 . S
C583 C584 1.479 . S
C583 H597 0.950 . S
C584 C583 1.479 . S
C584 C585 1.375 . S
C584 C590 1.404 . S
C585 C584 1.375 . S
C585 C586 1.369 . S
C585 H598 0.950 . S
C586 C585 1.369 . S
C586 C587 1.392 . S
C586 H599 0.951 . S
C587 C586 1.392 . S
C587 C589 1.384 . S
H588 C590 0.949 . S
C589 C587 1.384 . S
C589 C590 1.385 . S
C589 H591 0.950 . S
C590 C584 1.404 . S
C590 H588 0.949 . S
C590 C589 1.385 . S
H591 C589 0.950 . S
H592 C576 0.951 1_554 S
H593 C578 0.951 . S
H594 C580 0.951 . S
H595 C581 0.950 . S
H596 C582 0.950 . S
H597 C583 0.950 . S
H598 C585 0.950 . S
H599 C586 0.951 . S
C600 C601 1.386 . S
C600 C602 1.383 . S
C600 H616 0.951 . S
C601 C600 1.386 . S
C601 C605 1.383 . S
C602 C600 1.383 . S
C602 C603 1.402 . S
C602 H617 0.951 . S
C603 C602 1.402 . S
C603 C604 1.375 1_655 S
C603 C606 1.481 . S
C604 C603 1.375 1_455 S
C604 C605 1.367 1_455 S
C604 H618 0.951 . S
C605 C601 1.383 . S
C605 C604 1.367 1_655 S
C605 H619 0.950 1_655 S
C606 C603 1.481 . S
C606 C607 1.297 . S
C606 H620 0.950 1_655 S
C607 C606 1.297 . S
C607 C608 1.479 . S
C607 H621 0.950 . S
C608 C607 1.479 . S
C608 C609 1.375 . S
C608 C614 1.404 1_655 S
C609 C608 1.375 . S
C609 C610 1.369 . S
C609 H622 0.950 . S
C610 C609 1.369 . S
C610 C611 1.392 . S
C610 H623 0.951 . S
C611 C610 1.392 . S
C611 C613 1.384 1_655 S
H612 C614 0.949 . S
C613 C611 1.384 1_455 S
C613 C614 1.385 . S
C613 H615 0.950 . S
C614 C608 1.404 1_455 S
C614 H612 0.949 . S
C614 C613 1.385 . S
H615 C613 0.950 . S
H616 C600 0.951 . S
H617 C602 0.951 . S
H618 C604 0.951 . S
H619 C605 0.950 1_455 S
H620 C606 0.950 1_455 S
H621 C607 0.950 . S
H622 C609 0.950 . S
H623 C610 0.951 . S
C624 C625 1.386 . S
C624 C626 1.383 . S
C624 H640 0.951 . S
C625 C624 1.386 . S
C625 C629 1.383 . S
C626 C624 1.383 . S
C626 C627 1.402 . S
C626 H641 0.951 . S
C627 C626 1.402 . S
C627 C628 1.375 1_565 S
C627 C630 1.481 . S
C628 C627 1.375 1_545 S
C628 C629 1.367 1_545 S
C628 H642 0.951 . S
C629 C625 1.383 . S
C629 C628 1.367 1_565 S
C629 H643 0.950 1_565 S
C630 C627 1.481 . S
C630 C631 1.297 . S
C630 H644 0.950 1_565 S
C631 C630 1.297 . S
C631 C632 1.479 . S
C631 H645 0.950 . S
C632 C631 1.479 . S
C632 C633 1.375 . S
C632 C638 1.404 1_565 S
C633 C632 1.375 . S
C633 C634 1.369 . S
C633 H646 0.950 . S
C634 C633 1.369 . S
C634 C635 1.392 . S
C634 H647 0.951 . S
C635 C634 1.392 . S
C635 C637 1.384 1_565 S
H636 C638 0.949 . S
C637 C635 1.384 1_545 S
C637 C638 1.385 . S
C637 H639 0.950 . S
C638 C632 1.404 1_545 S
C638 H636 0.949 . S
C638 C637 1.385 . S
H639 C637 0.950 . S
H640 C624 0.951 . S
H641 C626 0.951 . S
H642 C628 0.951 . S
H643 C629 0.950 1_545 S
H644 C630 0.950 1_545 S
H645 C631 0.950 . S
H646 C633 0.950 . S
H647 C634 0.951 . S
C648 C649 1.386 . S
C648 C650 1.383 . S
C648 H664 0.951 . S
C649 C648 1.386 . S
C649 C653 1.383 . S
C650 C648 1.383 . S
C650 C651 1.402 . S
C650 H665 0.951 . S
C651 C650 1.402 . S
C651 C652 1.375 . S
C651 C654 1.481 . S
C652 C651 1.375 . S
C652 C653 1.367 . S
C652 H666 0.951 . S
C653 C649 1.383 . S
C653 C652 1.367 . S
C653 H667 0.950 1_556 S
C654 C651 1.481 . S
C654 C655 1.297 . S
C654 H668 0.950 . S
C655 C654 1.297 . S
C655 C656 1.479 . S
C655 H669 0.950 . S
C656 C655 1.479 . S
C656 C657 1.375 . S
C656 C662 1.404 . S
C657 C656 1.375 . S
C657 C658 1.369 . S
C657 H670 0.950 . S
C658 C657 1.369 . S
C658 C659 1.392 . S
C658 H671 0.951 . S
C659 C658 1.392 . S
C659 C661 1.384 . S
H660 C662 0.949 . S
C661 C659 1.384 . S
C661 C662 1.385 . S
C661 H663 0.950 . S
C662 C656 1.404 . S
C662 H660 0.949 . S
C662 C661 1.385 . S
H663 C661 0.950 . S
H664 C648 0.951 . S
H665 C650 0.951 . S
H666 C652 0.951 . S
H667 C653 0.950 1_554 S
H668 C654 0.950 . S
H669 C655 0.950 . S
H670 C657 0.950 . S
H671 C658 0.951 . S
C672 C673 1.386 . S
C672 C674 1.383 . S
C672 H688 0.951 . S
C673 C672 1.386 . S
C673 C677 1.383 . S
C674 C672 1.383 . S
C674 C675 1.402 . S
C674 H689 0.951 . S
C675 C674 1.402 . S
C675 C676 1.375 . S
C675 C678 1.481 . S
C676 C675 1.375 . S
C676 C677 1.367 . S
C676 H690 0.951 1_455 S
C677 C673 1.383 . S
C677 C676 1.367 . S
C677 H691 0.950 . S
C678 C675 1.481 . S
C678 C679 1.297 . S
C678 H692 0.950 . S
C679 C678 1.297 . S
C679 C680 1.479 . S
C679 H693 0.950 . S
C680 C679 1.479 . S
C680 C681 1.375 . S
C680 C686 1.404 . S
C681 C680 1.375 . S
C681 C682 1.369 . S
C681 H694 0.950 . S
C682 C681 1.369 . S
C682 C683 1.392 . S
C682 H695 0.951 . S
C683 C682 1.392 . S
C683 C685 1.384 1_455 S
H684 C686 0.953 1_655 S
C685 C683 1.384 1_655 S
C685 C686 1.385 1_655 S
C685 H687 0.950 . S
C686 C680 1.404 . S
C686 H684 0.953 1_455 S
C686 C685 1.385 1_455 S
H687 C685 0.950 . S
H688 C672 0.951 . S
H689 C674 0.951 . S
H690 C676 0.951 1_655 S
H691 C677 0.950 . S
H692 C678 0.950 . S
H693 C679 0.950 . S
H694 C681 0.950 . S
H695 C682 0.951 . S
C419 C285 1.427 . S
C409 C29 1.407 . S
C433 C137 1.412 . S
C443 C333 1.442 . S
C457 C225 1.440 . S
C467 C405 1.408 . S
C481 C49 1.416 . S
C491 C309 1.446 1_655 S
C515 C357 1.416 . S
C505 C117 1.437 . S
C529 C205 1.418 . S
C539 C381 1.428 . S
C563 C342 1.438 1_545 S
C553 C233 1.433 . S
C577 C57 1.451 . S
C587 C396 1.410 . S
C611 C300 1.426 . S
C601 C108 1.420 . S
C635 C348 1.412 . S
C625 C196 1.415 . S
C659 C390 1.429 . S
C649 C20 1.437 . S
C673 C145 1.427 . S
C683 C294 1.440 1_455 S
