# Generated by pormake.
# Topology pth, (4,4)-cn, num edge types: 1
# Building blocks:
#     Node 0, Type 0, BuildingBlock: QUQFOY_clean_sbu_3, # of connection points: 4
#     Node 1, Type 0, BuildingBlock: QUQFOY_clean_sbu_3, # of connection points: 4
#     Node 2, Type 0, BuildingBlock: QUQFOY_clean_sbu_3, # of connection points: 4
#     Node 3, Type 1, BuildingBlock: AZAVOO_clean_linker_0, # of connection points: 4
#     Node 4, Type 1, BuildingBlock: AZAVOO_clean_linker_0, # of connection points: 4
#     Node 5, Type 1, BuildingBlock: AZAVOO_clean_linker_0, # of connection points: 4
#     Edge 6, Type (0, 1), BuildingBlock: XIVTED_clean_linker_0, # of connection points: 2
#     Edge 7, Type (0, 1), BuildingBlock: XIVTED_clean_linker_0, # of connection points: 2
#     Edge 8, Type (0, 1), BuildingBlock: XIVTED_clean_linker_0, # of connection points: 2
#     Edge 9, Type (0, 1), BuildingBlock: XIVTED_clean_linker_0, # of connection points: 2
#     Edge 10, Type (0, 1), BuildingBlock: XIVTED_clean_linker_0, # of connection points: 2
#     Edge 11, Type (0, 1), BuildingBlock: XIVTED_clean_linker_0, # of connection points: 2
#     Edge 12, Type (0, 1), BuildingBlock: XIVTED_clean_linker_0, # of connection points: 2
#     Edge 13, Type (0, 1), BuildingBlock: XIVTED_clean_linker_0, # of connection points: 2
#     Edge 14, Type (0, 1), BuildingBlock: XIVTED_clean_linker_0, # of connection points: 2
#     Edge 15, Type (0, 1), BuildingBlock: XIVTED_clean_linker_0, # of connection points: 2
#     Edge 16, Type (0, 1), BuildingBlock: XIVTED_clean_linker_0, # of connection points: 2
#     Edge 17, Type (0, 1), BuildingBlock: XIVTED_clean_linker_0, # of connection points: 2
# Relax obj value: 0.108
# Max RMSD: 0.224
# Mean RMSD: 0.148
data_MOF--net-pth--node1-QUQFOY_clean_sbu_3--node2-AZAVOO_clean_linker_0--edge1-XIVTED_clean_linker_0
_symmetry_space_group_name_H-M    P1
_symmetry_Int_Tables_number       1
_symmetry_cell_setting            triclinic
loop_
_symmetry_equiv_pos_as_xyz
'x, y, z'
_cell_length_a     26.59601
_cell_length_b     26.648711
_cell_length_c     73.721989
_cell_angle_alpha  92.381286
_cell_angle_beta   89.506205
_cell_angle_gamma 120.97766
loop_
_atom_site_label
_atom_site_type_symbol
_atom_site_fract_x
_atom_site_fract_y
_atom_site_fract_z
_atom_type_partial_charge
C0 C 0.96721 0.11627 0.10174 0.0
O1 O 0.94272 0.12232 0.08799 0.0
Cd2 Cd 0.96574 0.11009 0.05736 0.0
O3 O 0.00442 0.09999 0.09981 0.0
Cd4 Cd 0.04794 0.06852 0.07539 0.0
C5 C 0.11654 0.20188 0.05768 0.0
O6 O 0.96402 0.02004 0.05515 0.0
O7 O 0.04537 0.03419 0.04388 0.0
O8 O 0.02583 0.98114 0.09022 0.0
C9 C -0.00929 0.01329 0.04182 0.0
O10 O 0.06568 0.18994 0.05265 0.0
C11 C 0.07842 -0.00405 0.09368 0.0
O12 O 0.12325 0.16632 0.06692 0.0
O13 O 0.11847 0.04589 0.08868 0.0
C14 C 0.15401 0.13846 0.417 0.0
O15 O 0.17462 0.1581 0.40156 0.0
Cd16 Cd 0.11025 0.13262 0.37582 0.0
O17 O 0.09887 0.10734 0.4193 0.0
Cd18 Cd 0.00067 0.06457 0.40557 0.0
C19 C 0.0356 0.98089 0.3788 0.0
O20 O 0.03356 0.1461 0.38716 0.0
O21 O 0.94277 0.07933 0.38253 0.0
O22 O 0.97822 0.0967 0.43391 0.0
C23 C 0.98632 0.12832 0.37837 0.0
O24 O 0.07449 0.02795 0.37172 0.0
C25 C 0.93356 0.04756 0.43733 0.0
O26 O 0.0023 0.98138 0.39123 0.0
O27 O 0.91902 0.00564 0.42567 0.0
C28 C 0.94377 0.12513 0.71698 0.0
O29 O 0.95068 0.16107 0.72994 0.0
Cd30 Cd 0.00633 0.17578 0.75689 0.0
O31 O 0.97041 0.09682 0.71719 0.0
Cd32 Cd 0.04119 0.09153 0.73749 0.0
C33 C 0.9384 0.03227 0.76928 0.0
O34 O 0.10079 0.19265 0.74907 0.0
O35 O 0.1019 0.12663 0.76484 0.0
O36 O 0.11002 0.1058 0.71395 0.0
C37 C 0.12343 0.18045 0.76195 0.0
O38 O 0.94927 0.08434 0.7724 0.0
C39 C 0.10781 0.05748 0.71547 0.0
O40 O 0.96352 0.02059 0.7564 0.0
O41 O 0.07168 0.02242 0.72675 0.0
H42 H -0.00493 0.44598 0.12178 0.0
H43 H 0.14475 0.94225 0.27 0.0
H44 H 0.91103 0.41969 0.22837 0.0
H45 H 0.88423 0.3247 0.21409 0.0
H46 H 0.0682 0.38377 0.20782 0.0
H47 H 0.0942 0.47721 0.22314 0.0
H48 H 0.94438 0.49209 0.19594 0.0
H49 H 0.94779 0.46371 0.16415 0.0
H50 H 0.13731 0.55871 0.16748 0.0
H51 H 0.13314 0.58615 0.19932 0.0
H52 H 0.97099 0.62349 0.20425 0.0
H53 H 0.99025 0.68808 0.17919 0.0
H54 H 0.17672 0.76332 0.1873 0.0
H55 H 0.15678 0.69814 0.21246 0.0
H56 H 0.96368 0.65602 0.25215 0.0
H57 H 0.97859 0.75173 0.26192 0.0
H58 H 0.1654 0.82974 0.25466 0.0
H59 H 0.14986 0.73364 0.24513 0.0
H60 H 0.93444 0.54466 0.27702 0.0
H61 H 0.92582 0.58433 0.3066 0.0
H62 H 0.11251 0.71002 0.30683 0.0
H63 H 0.12082 0.66727 0.27805 0.0
H64 H 0.91589 0.43603 0.26153 0.0
H65 H 0.9046 0.36094 0.28199 0.0
H66 H 0.09148 0.46022 0.29309 0.0
H67 H 0.1024 0.53288 0.27183 0.0
O68 O -0.00529 0.4578 0.13436 0.0
O69 O 0.09206 0.5079 0.13672 0.0
O70 O 0.04116 0.86179 0.26949 0.0
O71 O 0.13754 0.90401 0.26603 0.0
C72 C 0.02001 0.51516 0.23255 0.0
C73 C 0.03627 0.55722 0.21925 0.0
C74 C 0.04987 0.61442 0.22436 0.0
C75 C 0.04642 0.62946 0.24268 0.0
C76 C 0.03153 0.58765 0.25607 0.0
C77 C 0.01865 0.53064 0.25098 0.0
C78 C 0.00448 0.45492 0.22689 0.0
C79 C 0.94541 0.41109 0.22456 0.0
C80 C 0.93025 0.35717 0.21618 0.0
C81 C 0.97402 0.34677 0.20959 0.0
C82 C 0.0333 0.38982 0.21292 0.0
C83 C 0.04836 0.44343 0.22157 0.0
C84 C 0.0385 0.5411 0.19987 0.0
C85 C 0.98654 0.50662 0.18976 0.0
C86 C 0.98865 0.49055 0.17161 0.0
C87 C 0.04284 0.50894 0.16326 0.0
C88 C 0.09486 0.54382 0.17348 0.0
C89 C 0.09264 0.55968 0.19164 0.0
C90 C 0.06251 0.65667 0.21016 0.0
C91 C 0.01594 0.65426 0.20068 0.0
C92 C 0.02706 0.69073 0.18631 0.0
C93 C 0.08501 0.73027 0.18121 0.0
C94 C 0.13172 0.73341 0.19101 0.0
C95 C 0.12046 0.69647 0.20534 0.0
C96 C 0.05563 0.68811 0.24779 0.0
C97 C 0.00772 0.69394 0.25259 0.0
C98 C 0.01639 0.74861 0.25818 0.0
C99 C 0.07323 0.79844 0.25904 0.0
C100 C 0.12108 0.79234 0.2541 0.0
C101 C 0.11233 0.7376 0.24855 0.0
C102 C 0.02813 0.60374 0.27532 0.0
C103 C 0.97365 0.57942 0.28383 0.0
C104 C 0.96877 0.60266 0.30063 0.0
C105 C 0.01821 0.65122 0.30903 0.0
C106 C 0.07342 0.67236 0.301 0.0
C107 C 0.07832 0.64842 0.28439 0.0
C108 C 0.01008 0.48905 0.265 0.0
C109 C 0.95425 0.4412 0.26836 0.0
C110 C 0.94788 0.39873 0.28018 0.0
C111 C -0.00271 0.40407 0.28895 0.0
C112 C 0.05274 0.45387 0.28617 0.0
C113 C 0.05907 0.49579 0.27421 0.0
C114 C 0.04494 0.49166 0.144 0.0
C115 C 0.08275 0.85652 0.26516 0.0
H116 H 0.56314 0.00234 0.45005 0.0
H117 H 0.21271 0.11875 0.59094 0.0
H118 H 0.52943 0.92697 0.54451 0.0
H119 H 0.61099 0.92679 0.52943 0.0
H120 H 0.73173 0.09287 0.55687 0.0
H121 H 0.649 0.09438 0.57088 0.0
H122 H 0.44659 0.95252 0.52029 0.0
H123 H 0.48053 0.95848 0.48905 0.0
H124 H 0.64124 0.11938 0.5041 0.0
H125 H 0.60635 0.11341 0.53518 0.0
H126 H 0.34611 0.97196 0.5385 0.0
H127 H 0.30068 0.00358 0.51648 0.0
H128 H 0.46283 0.16996 0.51367 0.0
H129 H 0.50769 0.13831 0.5359 0.0
H130 H 0.32731 0.9477 0.58117 0.0
H131 H 0.24403 0.95928 0.58888 0.0
H132 H 0.34887 0.14355 0.57812 0.0
H133 H 0.43198 0.13148 0.57069 0.0
H134 H 0.40912 0.92955 0.60647 0.0
H135 H 0.36006 0.92558 0.63518 0.0
H136 H 0.42944 0.11216 0.63405 0.0
H137 H 0.47918 0.11561 0.60588 0.0
H138 H 0.53827 0.93475 0.59231 0.0
H139 H 0.60704 0.94583 0.61644 0.0
H140 H 0.64995 0.12436 0.6274 0.0
H141 H 0.58159 0.1128 0.60356 0.0
O142 O 0.55042 0.001 0.46247 0.0
O143 O 0.6326 0.08312 0.47098 0.0
O144 O 0.19298 0.018 0.59341 0.0
O145 O 0.2449 0.11291 0.58794 0.0
C146 C 0.53305 0.0184 0.56318 0.0
C147 C 0.50372 0.02805 0.54904 0.0
C148 C 0.45628 0.03594 0.55308 0.0
C149 C 0.43635 0.03164 0.57105 0.0
C150 C 0.46656 0.02348 0.5852 0.0
C151 C 0.51605 0.01876 0.58135 0.0
C152 C 0.58325 0.01092 0.55862 0.0
C153 C 0.57369 0.96249 0.54764 0.0
C154 C 0.62059 0.96241 0.53909 0.0
C155 C 0.67806 0.01042 0.54164 0.0
C156 C 0.68792 0.05593 0.55423 0.0
C157 C 0.64078 0.05648 0.5625 0.0
C158 C 0.52417 0.03228 0.53001 0.0
C159 C 0.48899 0.98911 0.51678 0.0
C160 C 0.50856 -0.00743 0.49896 0.0
C161 C 0.56369 0.03932 0.49408 0.0
C162 C 0.59864 0.08273 0.5074 0.0
C163 C 0.5789 0.07933 0.52518 0.0
C164 C 0.43004 0.05287 0.53873 0.0
C165 C 0.37176 0.01508 0.53306 0.0
C166 C 0.34594 0.0333 0.5206 0.0
C167 C 0.37829 0.08934 0.51353 0.0
C168 C 0.43716 0.12647 0.51887 0.0
C169 C 0.46275 0.10846 0.53148 0.0
C170 C 0.38549 0.03866 0.57529 0.0
C171 C 0.33212 0.99049 0.58048 0.0
C172 C 0.28466 -0.00276 0.58487 0.0
C173 C 0.28977 0.05236 0.58409 0.0
C174 C 0.34339 0.1005 0.57884 0.0
C175 C 0.39087 0.09372 0.57452 0.0
C176 C 0.44728 0.0228 0.60413 0.0
C177 C 0.415 0.96968 0.6128 0.0
C178 C 0.38661 0.96746 0.62907 0.0
C179 C 0.39037 0.01843 0.63685 0.0
C180 C 0.42613 0.07216 0.62864 0.0
C181 C 0.45443 0.07429 0.61246 0.0
C182 C 0.55452 0.02275 0.5964 0.0
C183 C 0.56226 0.97593 0.60009 0.0
C184 C 0.60167 0.98246 0.61375 0.0
C185 C 0.6335 0.03583 0.62389 0.0
C186 C 0.6252 0.08233 0.62011 0.0
C187 C 0.58619 0.07584 0.6065 0.0
C188 C 0.58452 0.04268 0.47517 0.0
C189 C 0.23952 0.0598 0.58877 0.0
H190 H 0.73253 0.78737 0.01614 0.0
H191 H 0.20965 0.25264 0.89422 0.0
H192 H 0.63331 0.75247 0.91023 0.0
H193 H 0.72155 0.8397 0.92253 0.0
H194 H 0.79237 0.73218 0.93673 0.0
H195 H 0.70502 0.64585 0.9239 0.0
H196 H 0.59646 0.71445 0.9483 0.0
H197 H 0.65039 0.75858 0.97684 0.0
H198 H 0.67073 0.60915 0.98276 0.0
H199 H 0.61772 0.56606 0.95395 0.0
H200 H 0.47629 0.60791 0.95566 0.0
H201 H 0.42262 0.56177 0.98308 0.0
H202 H 0.4345 0.4091 0.96896 0.0
H203 H 0.48974 0.45649 0.94186 0.0
H204 H 0.3865 0.52874 0.92493 0.0
H205 H 0.28783 0.44246 0.92154 0.0
H206 H 0.35991 0.34744 0.89402 0.0
H207 H 0.4584 0.43368 0.89778 0.0
H208 H 0.41932 0.56859 0.88644 0.0
H209 H 0.35611 0.51475 0.86007 0.0
H210 H 0.48249 0.46953 0.84124 0.0
H211 H 0.5447 0.52156 0.86804 0.0
H212 H 0.5434 0.68114 0.87753 0.0
H213 H 0.5969 0.7423 0.85222 0.0
H214 H 0.72643 0.69138 0.85686 0.0
H215 H 0.67152 0.62891 0.88181 0.0
O216 O 0.71044 0.7686 0.00505 0.0
O217 O 0.71618 0.68902 0.00815 0.0
O218 O 0.21353 0.33718 0.91075 0.0
O219 O 0.24827 0.287 0.89607 0.0
C220 C 0.60335 0.63999 0.91498 0.0
C221 C 0.57438 0.61271 0.93103 0.0
C222 C 0.51746 0.56292 0.92997 0.0
C223 C 0.48919 0.54067 0.91292 0.0
C224 C 0.51736 0.5696 0.89696 0.0
C225 C 0.57464 0.61897 0.89798 0.0
C226 C 0.66262 0.69297 0.9165 0.0
C227 C 0.66918 0.74832 0.91518 0.0
C228 C 0.71934 0.79794 0.92234 0.0
C229 C 0.76315 0.79249 0.93097 0.0
C230 C 0.75953 0.73791 0.93014 0.0
C231 C 0.70953 0.68842 0.92289 0.0
C232 C 0.60356 0.63728 0.94902 0.0
C233 C 0.61261 0.69134 0.95579 0.0
C234 C 0.64338 0.71641 0.9721 0.0
C235 C 0.66507 0.6875 0.98206 0.0
C236 C 0.65472 0.63263 0.97541 0.0
C237 C 0.62428 0.6078 0.95901 0.0
C238 C 0.48669 0.53539 0.94682 0.0
C239 C 0.46784 0.56478 0.95864 0.0
C240 C 0.43699 0.53827 0.97421 0.0
C241 C 0.4243 0.48179 0.97817 0.0
C242 C 0.44433 0.45298 0.96643 0.0
C243 C 0.47534 0.47963 0.95088 0.0
C244 C 0.42961 0.48735 0.9117 0.0
C245 C 0.38095 0.489 0.9184 0.0
C246 C 0.32462 0.43977 0.91634 0.0
C247 C 0.31597 0.38806 0.90747 0.0
C248 C 0.36498 0.38651 0.90091 0.0
C249 C 0.42129 0.43567 0.90305 0.0
C250 C 0.48598 0.54801 0.87926 0.0
C251 C 0.43384 0.54794 0.87645 0.0
C252 C 0.398 0.51749 0.86144 0.0
C253 C 0.41469 0.48811 0.84882 0.0
C254 C 0.46918 0.49234 0.85081 0.0
C255 C 0.50456 0.52189 0.86605 0.0
C256 C 0.60373 0.6508 0.88148 0.0
C257 C 0.58269 0.68235 0.87281 0.0
C258 C 0.61356 0.71759 0.85849 0.0
C259 C 0.66615 0.72204 0.85266 0.0
C260 C 0.6858 0.68845 0.86092 0.0
C261 C 0.65478 0.65309 0.87523 0.0
C262 C 0.6987 0.71483 -0.00078 0.0
C263 C 0.25612 0.33602 0.90492 0.0
H264 H 0.02201 0.12365 0.13397 0.0
H265 H 0.88762 0.29753 0.18346 0.0
H266 H 0.88612 0.14618 0.11122 0.0
H267 H 0.02569 0.27978 0.20692 0.0
H268 H 0.87321 0.22515 0.15981 0.0
H269 H 0.01154 0.16435 0.1631 0.0
C270 C 0.9894 0.13637 0.13515 0.0
C271 C 0.95569 0.1326 0.12002 0.0
C272 C 0.90613 0.23635 0.17026 0.0
C273 C 0.94366 0.17925 0.15328 0.0
C274 C 0.91405 0.27742 0.18395 0.0
C275 C 0.95846 0.29541 0.19716 0.0
C276 C 0.94336 0.21354 0.16956 0.0
C277 C -0.00816 0.26824 0.19678 0.0
C278 C 0.98349 0.15962 0.15179 0.0
C279 C 0.91378 0.14921 0.12241 0.0
N280 N 0.98421 0.22928 0.18302 0.0
N281 N 0.90947 0.17245 0.13865 0.0
H282 H 0.84402 0.94586 0.45073 0.0
H283 H 0.76504 0.11078 0.52704 0.0
H284 H 0.94801 0.13253 0.46223 0.0
H285 H 0.69797 0.92469 0.52744 0.0
H286 H 0.83277 0.1192 0.50346 0.0
H287 H 0.78852 0.93613 0.47842 0.0
C288 C 0.85523 0.98471 0.45909 0.0
C289 C 0.90033 0.04014 0.45412 0.0
C290 C 0.80381 0.0766 0.50887 0.0
C291 C 0.83729 0.02935 0.48567 0.0
C292 C 0.76535 0.07176 0.52253 0.0
C293 C 0.72537 0.01682 0.52932 0.0
C294 C 0.80184 0.0261 0.50164 0.0
C295 C 0.72717 0.96778 0.52242 0.0
C296 C 0.82383 0.9791 0.47492 0.0
C297 C 0.91338 0.08899 0.46549 0.0
N298 N 0.76423 0.97344 0.50878 0.0
N299 N 0.88169 0.0825 0.48065 0.0
H300 H 0.87231 0.04092 0.79637 0.0
H301 H 0.7266 0.70805 0.82438 0.0
H302 H 0.90739 0.91651 0.76852 0.0
H303 H 0.68954 0.83387 0.85004 0.0
H304 H 0.79135 0.78228 0.80327 0.0
H305 H 0.80346 0.96404 0.81564 0.0
C306 C 0.86555 -0.00262 0.79428 0.0
C307 C 0.8959 0.98526 0.78082 0.0
C308 C 0.76871 0.79343 0.81346 0.0
C309 C 0.81676 0.89667 0.80295 0.0
C310 C 0.73195 0.7512 0.82553 0.0
C311 C 0.70254 0.76476 0.83897 0.0
C312 C 0.77629 0.84965 0.81491 0.0
C313 C 0.71059 0.82114 0.83974 0.0
C314 C 0.82605 0.95338 0.8053 0.0
C315 C 0.88502 0.92786 0.77874 0.0
N316 N 0.74684 0.86149 0.82794 0.0
N317 N 0.84642 0.88566 0.78975 0.0
H318 H 0.17526 0.02464 0.11465 0.0
H319 H 0.03024 0.69759 0.14813 0.0
H320 H 0.00988 0.87816 0.09516 0.0
H321 H 0.16468 0.84785 0.17892 0.0
H322 H 0.03905 0.76148 0.12402 0.0
H323 H 0.18766 0.95832 0.13387 0.0
C324 C 0.14215 0.97844 0.11421 0.0
C325 C 0.09112 0.95677 0.10354 0.0
C326 C 0.06702 0.7805 0.13598 0.0
C327 C 0.1051 0.88128 0.12519 0.0
C328 C 0.06184 0.7441 0.14975 0.0
C329 C 0.09587 0.76775 0.16567 0.0
C330 C 0.10635 0.84109 0.13815 0.0
C331 C 0.13738 0.82802 0.16688 0.0
C332 C 0.14912 0.9408 0.12519 0.0
C333 C 0.04946 0.89672 0.1034 0.0
N334 N 0.14095 0.86292 0.15337 0.0
N335 N 0.05726 0.86116 0.11413 0.0
H336 H 0.27238 0.18019 0.4163 0.0
H337 H 0.27203 0.08044 0.51676 0.0
H338 H 0.12563 0.11749 0.45257 0.0
H339 H 0.42102 0.14343 0.48151 0.0
H340 H 0.22262 0.10642 0.4946 0.0
H341 H 0.33284 0.18079 0.44125 0.0
C342 C 0.25314 0.16742 0.42956 0.0
C343 C 0.19365 0.14776 0.43229 0.0
C344 C 0.26629 0.11502 0.49172 0.0
C345 C 0.2622 0.148 0.46076 0.0
C346 C 0.29429 0.09985 0.50432 0.0
C347 C 0.35015 0.10901 0.50077 0.0
C348 C 0.29415 0.13899 0.47535 0.0
C349 C 0.37778 0.13554 0.48468 0.0
C350 C 0.2876 0.16762 0.44377 0.0
C351 C 0.17103 0.13199 0.44976 0.0
N352 N 0.34915 0.149 0.47242 0.0
N353 N 0.20517 0.13188 0.46326 0.0
H354 H 0.14763 0.16922 0.79681 0.0
H355 H 0.42568 0.4866 0.81184 0.0
H356 H 0.19881 0.29582 0.75535 0.0
H357 H 0.30792 0.39472 0.85517 0.0
H358 H 0.3542 0.41206 0.78986 0.0
H359 H 0.2191 0.24654 0.81767 0.0
C360 C 0.17415 0.21326 0.79209 0.0
C361 C 0.16733 0.22643 0.77441 0.0
C362 C 0.34409 0.40874 0.80418 0.0
C363 C 0.24921 0.31444 0.79804 0.0
C364 C 0.38462 0.45091 0.81663 0.0
C365 C 0.37196 0.44661 0.83518 0.0
C366 C 0.29181 0.36156 0.81052 0.0
C367 C 0.31865 0.39965 0.8409 0.0
C368 C 0.21459 0.25727 0.804 0.0
C369 C 0.20264 0.28418 0.76895 0.0
N370 N 0.28067 0.35851 0.82861 0.0
N371 N 0.24258 0.32624 0.78073 0.0
H372 H 0.91713 0.0522 0.68655 0.0
H373 H 0.6504 0.09033 0.65734 0.0
H374 H 0.8718 0.1694 0.71418 0.0
H375 H 0.71436 0.00091 0.62285 0.0
H376 H 0.727 0.11236 0.67957 0.0
H377 H 0.84004 0.02731 0.66389 0.0
C378 C 0.89131 0.073 0.6878 0.0
C379 C 0.90092 0.11291 0.70232 0.0
C380 C 0.72436 0.08787 0.66716 0.0
C381 C 0.81243 0.08408 0.67662 0.0
C382 C 0.68064 0.07532 0.65445 0.0
C383 C 0.6764 0.04428 0.63814 0.0
C384 C 0.76418 0.0691 0.66361 0.0
C385 C 0.71592 0.02472 0.6353 0.0
C386 C 0.84728 0.05865 0.67489 0.0
C387 C 0.86608 0.13843 0.70325 0.0
N388 N 0.75844 0.0377 0.6479 0.0
N389 N 0.82327 0.12334 0.69065 0.0
H390 H 0.87963 0.98281 0.03222 0.0
H391 H 0.87994 0.83135 0.93697 0.0
H392 H 0.03342 0.98585 0.01145 0.0
H393 H 0.73976 0.85691 0.95531 0.0
H394 H 0.94 0.89269 0.963 0.0
H395 H 0.82961 0.93958 0.00327 0.0
C396 C 0.9029 0.97438 0.02154 0.0
C397 C 0.96059 0.98755 0.02426 0.0
C398 C 0.89649 0.88571 0.96109 0.0
C399 C 0.90363 0.93817 -0.009 0.0
C400 C 0.86231 0.85085 0.94625 0.0
C401 C 0.80483 0.83904 0.94396 0.0
C402 C 0.87258 0.90817 0.97379 0.0
C403 C 0.7841 0.86544 0.95634 0.0
C404 C 0.87443 0.95 0.00496 0.0
C405 C 0.98879 0.97611 0.0099 0.0
N406 N 0.81768 0.89811 0.97082 0.0
N407 N 0.95983 0.95161 -0.00611 0.0
H408 H 0.1233 0.96338 0.36794 0.0
H409 H 0.92707 0.6698 0.31568 0.0
H410 H 0.93622 0.87222 0.3757 0.0
H411 H 0.09491 0.71105 0.33768 0.0
H412 H 0.92689 0.74156 0.33717 0.0
H413 H 0.114 0.87222 0.35574 0.0
C414 C 0.08029 0.92398 0.36713 0.0
C415 C 0.03034 0.92517 0.37262 0.0
C416 C 0.9631 0.73389 0.33752 0.0
C417 C 0.01938 0.82127 0.35857 0.0
C418 C 0.9632 0.69256 0.32531 0.0
C419 C 0.01171 0.68488 0.32455 0.0
C420 C 0.01233 0.76869 0.34872 0.0
C421 C 0.05748 0.71673 0.3373 0.0
C422 C 0.0751 0.87197 0.36035 0.0
C423 C 0.97569 0.8729 0.37153 0.0
N424 N 0.05735 0.75828 0.34857 0.0
N425 N 0.97141 0.82307 0.36425 0.0
H426 H 0.09618 0.95086 0.70615 0.0
H427 H 0.41811 0.09705 0.6657 0.0
H428 H 0.21378 0.13725 0.7026 0.0
H429 H 0.27596 0.93353 0.64286 0.0
H430 H 0.34959 0.10167 0.68699 0.0
H431 H 0.16787 0.93451 0.68958 0.0
C432 C 0.13703 0.98816 0.70194 0.0
C433 C 0.14897 0.04543 0.70551 0.0
C434 C 0.33375 0.06441 0.67746 0.0
C435 C 0.23098 0.02721 0.6873 0.0
C436 C 0.37271 0.06174 0.6653 0.0
C437 C 0.35258 0.01545 0.65221 0.0
C438 C 0.27438 0.02018 0.6767 0.0
C439 C 0.29351 0.97004 0.65271 0.0
C440 C 0.17771 0.97883 0.69256 0.0
C441 C 0.20254 0.09238 0.69989 0.0
N442 N 0.25621 0.97382 0.66464 0.0
N443 N 0.24167 0.08224 0.69115 0.0
H444 H 0.11991 0.29581 0.04293 0.0
H445 H 0.43753 0.41321 0.00219 0.0
H446 H 0.2308 0.22843 0.05692 0.0
H447 H 0.32572 0.48068 -0.01045 0.0
H448 H 0.3688 0.3548 0.02561 0.0
H449 H 0.20155 0.37429 0.02715 0.0
C450 C 0.16171 0.29797 0.04289 0.0
C451 C 0.16828 0.25493 0.05099 0.0
C452 C 0.35974 0.38299 0.01787 0.0
C453 C 0.26185 0.34435 0.03271 0.0
C454 C 0.39875 0.41605 0.00444 0.0
C455 C 0.38702 0.45139 -0.00622 0.0
C456 C 0.30846 0.38502 0.02056 0.0
C457 C 0.33673 0.45431 -0.00251 0.0
C458 C 0.20837 0.34283 0.03386 0.0
C459 C 0.22368 0.26042 0.05072 0.0
N460 N 0.29903 0.42106 0.01043 0.0
N461 N 0.26815 0.3038 0.04145 0.0
H462 H 0.88906 0.12346 0.36401 0.0
H463 H 0.07213 0.36289 0.29139 0.0
H464 H 0.07729 0.21094 0.3595 0.0
H465 H 0.90936 0.33795 0.31274 0.0
H466 H 0.06609 0.29055 0.31182 0.0
H467 H 0.88768 0.18601 0.34062 0.0
C468 C 0.92989 0.15543 0.35798 0.0
C469 C 0.98341 0.16254 0.36372 0.0
C470 C 0.03166 0.30089 0.31199 0.0
C471 C 0.98203 0.23298 0.33707 0.0
C472 C 0.03523 0.34247 0.30043 0.0
C473 C -0.00822 0.35747 0.30059 0.0
C474 C 0.98398 0.27345 0.32367 0.0
C475 C 0.94384 0.32778 0.31214 0.0
C476 C 0.92909 0.19109 0.34476 0.0
C477 C 0.03516 0.20451 0.35557 0.0
N478 N 0.94131 0.28723 0.32331 0.0
N479 N 0.03317 0.23808 0.34262 0.0
loop_
_geom_bond_atom_site_label_1
_geom_bond_atom_site_label_2
_geom_bond_distance
_geom_bond_site_symmetry_2
_ccdc_geom_bond_type
C0 O1 1.306 . S
C0 O3 1.160 . S
O1 C0 1.306 . S
O1 Cd2 2.228 1_455 S
Cd2 O1 2.228 1_655 S
Cd2 O6 2.273 . S
Cd2 O10 2.277 1_655 S
O3 C0 1.160 . S
O3 Cd4 2.203 . S
Cd4 O3 2.203 . S
Cd4 O6 2.411 1_455 S
Cd4 O7 2.333 1_545 S
Cd4 O8 2.352 1_545 S
Cd4 O12 2.277 . S
Cd4 O13 2.356 . S
C5 O10 1.209 . S
C5 O12 1.226 . S
O6 Cd2 2.273 . S
O6 Cd4 2.411 1_655 S
O6 C9 1.320 . S
O7 Cd4 2.333 1_565 S
O7 C9 1.214 1_465 S
O8 Cd4 2.352 1_565 S
O8 C11 1.258 . S
C9 O6 1.320 . S
C9 O7 1.214 1_645 S
O10 Cd2 2.277 1_455 S
O10 C5 1.209 . S
C11 O8 1.258 . S
C11 O13 1.282 1_565 S
O12 Cd4 2.277 . S
O12 C5 1.226 . S
O13 Cd4 2.356 . S
O13 C11 1.282 1_545 S
C14 O15 1.306 . S
C14 O17 1.160 . S
O15 C14 1.306 . S
O15 Cd16 2.228 . S
Cd16 O15 2.228 . S
Cd16 O20 2.273 . S
Cd16 O24 2.277 . S
O17 C14 1.160 . S
O17 Cd18 2.203 1_455 S
Cd18 O17 2.203 1_655 S
Cd18 O20 2.411 1_655 S
Cd18 O21 2.333 . S
Cd18 O22 2.352 . S
Cd18 O26 2.277 1_545 S
Cd18 O27 2.356 1_545 S
C19 O24 1.209 1_565 S
C19 O26 1.226 1_455 S
O20 Cd16 2.273 . S
O20 Cd18 2.411 1_455 S
O20 C23 1.320 . S
O21 Cd18 2.333 . S
O21 C23 1.214 1_655 S
O22 Cd18 2.352 . S
O22 C25 1.258 . S
C23 O20 1.320 . S
C23 O21 1.214 1_455 S
O24 Cd16 2.277 . S
O24 C19 1.209 1_545 S
C25 O22 1.258 . S
C25 O27 1.282 1_545 S
O26 Cd18 2.277 1_565 S
O26 C19 1.226 1_655 S
O27 Cd18 2.356 1_565 S
O27 C25 1.282 1_565 S
C28 O29 1.306 1_655 S
C28 O31 1.160 1_655 S
O29 C28 1.306 1_455 S
O29 Cd30 2.228 . S
Cd30 O29 2.228 . S
Cd30 O34 2.273 . S
Cd30 O38 2.277 . S
O31 C28 1.160 1_455 S
O31 Cd32 2.203 . S
Cd32 O31 2.203 . S
Cd32 O34 2.411 . S
Cd32 O35 2.333 . S
Cd32 O36 2.352 . S
Cd32 O40 2.277 . S
Cd32 O41 2.356 . S
C33 O38 1.210 . S
C33 O40 1.224 . S
O34 Cd30 2.273 . S
O34 Cd32 2.411 . S
O34 C37 1.320 . S
O35 Cd32 2.333 . S
O35 C37 1.214 . S
O36 Cd32 2.352 . S
O36 C39 1.258 . S
C37 O34 1.320 . S
C37 O35 1.214 . S
O38 Cd30 2.277 . S
O38 C33 1.210 . S
C39 O36 1.258 . S
C39 O41 1.282 . S
O40 Cd32 2.277 . S
O40 C33 1.224 . S
O41 Cd32 2.356 . S
O41 C39 1.282 . S
H42 O68 0.856 . S
H43 O71 0.854 . S
H44 C79 0.930 . S
H45 C80 0.930 . S
H46 C82 0.930 . S
H47 C83 0.930 . S
H48 C85 0.931 1_655 S
H49 C86 0.930 1_655 S
H50 C88 0.930 . S
H51 C89 0.929 . S
H52 C91 0.930 1_655 S
H53 C92 0.931 1_655 S
H54 C94 0.930 . S
H55 C95 0.929 . S
H56 C97 0.931 . S
H57 C98 0.930 . S
H58 C100 0.930 . S
H59 C101 0.932 . S
H60 C103 0.930 . S
H61 C104 0.929 . S
H62 C106 0.931 . S
H63 C107 0.930 . S
H64 C109 0.929 . S
H65 C110 0.931 . S
H66 C112 0.930 . S
H67 C113 0.929 . S
O68 H42 0.856 . S
O68 C114 1.300 . S
O69 C114 1.209 . S
O70 C115 1.199 . S
O71 H43 0.854 . S
O71 C115 1.297 . S
C72 C73 1.404 . S
C72 C77 1.397 . S
C72 C78 1.492 . S
C73 C72 1.404 . S
C73 C74 1.396 . S
C73 C84 1.492 . S
C74 C73 1.396 . S
C74 C75 1.397 . S
C74 C90 1.509 . S
C75 C74 1.397 . S
C75 C76 1.412 . S
C75 C96 1.485 . S
C76 C75 1.412 . S
C76 C77 1.388 . S
C76 C102 1.490 . S
C77 C72 1.397 . S
C77 C76 1.388 . S
C77 C108 1.519 . S
C78 C72 1.492 . S
C78 C79 1.363 1_455 S
C78 C83 1.390 . S
C79 H44 0.930 . S
C79 C78 1.363 1_655 S
C79 C80 1.372 . S
C80 H45 0.930 . S
C80 C79 1.372 . S
C80 C81 1.383 1_655 S
C81 C80 1.383 1_455 S
C81 C82 1.395 . S
C82 H46 0.930 . S
C82 C81 1.395 . S
C82 C83 1.362 . S
C83 H47 0.930 . S
C83 C78 1.390 . S
C83 C82 1.362 . S
C84 C73 1.492 . S
C84 C85 1.377 . S
C84 C89 1.397 . S
C85 H48 0.931 1_455 S
C85 C84 1.377 . S
C85 C86 1.376 . S
C86 H49 0.930 1_455 S
C86 C85 1.376 . S
C86 C87 1.376 . S
C87 C86 1.376 . S
C87 C88 1.378 . S
C87 C114 1.486 . S
C88 H50 0.930 . S
C88 C87 1.378 . S
C88 C89 1.376 . S
C89 H51 0.929 . S
C89 C84 1.397 . S
C89 C88 1.376 . S
C90 C74 1.509 . S
C90 C91 1.391 . S
C90 C95 1.386 . S
C91 H52 0.930 1_455 S
C91 C90 1.391 . S
C91 C92 1.375 . S
C92 H53 0.931 1_455 S
C92 C91 1.375 . S
C92 C93 1.375 . S
C93 C92 1.375 . S
C93 C94 1.361 . S
C94 H54 0.930 . S
C94 C93 1.361 . S
C94 C95 1.399 . S
C95 H55 0.929 . S
C95 C90 1.386 . S
C95 C94 1.399 . S
C96 C75 1.485 . S
C96 C97 1.394 1_455 S
C96 C101 1.360 . S
C97 H56 0.931 . S
C97 C96 1.394 1_655 S
C97 C98 1.372 . S
C98 H57 0.930 . S
C98 C97 1.372 . S
C98 C99 1.397 1_655 S
C99 C98 1.397 1_455 S
C99 C100 1.390 . S
C99 C115 1.476 . S
C100 H58 0.930 . S
C100 C99 1.390 . S
C100 C101 1.366 . S
C101 H59 0.932 . S
C101 C96 1.360 . S
C101 C100 1.366 . S
C102 C76 1.490 . S
C102 C103 1.380 1_455 S
C102 C107 1.386 . S
C103 H60 0.930 . S
C103 C102 1.380 1_655 S
C103 C104 1.381 . S
C104 H61 0.929 . S
C104 C103 1.381 . S
C104 C105 1.371 1_655 S
C105 C104 1.371 1_455 S
C105 C106 1.380 . S
C106 H62 0.931 . S
C106 C105 1.380 . S
C106 C107 1.387 . S
C107 H63 0.930 . S
C107 C102 1.386 . S
C107 C106 1.387 . S
C108 C77 1.519 . S
C108 C109 1.377 1_455 S
C108 C113 1.361 . S
C109 H64 0.929 . S
C109 C108 1.377 1_655 S
C109 C110 1.386 . S
C110 H65 0.931 . S
C110 C109 1.386 . S
C110 C111 1.363 1_655 S
C111 C110 1.363 1_455 S
C111 C112 1.385 . S
C112 H66 0.930 . S
C112 C111 1.385 . S
C112 C113 1.396 . S
C113 H67 0.929 . S
C113 C108 1.361 . S
C113 C112 1.396 . S
C114 O68 1.300 . S
C114 O69 1.209 . S
C114 C87 1.486 . S
C115 O70 1.199 . S
C115 O71 1.297 . S
C115 C99 1.476 . S
H116 O142 0.856 . S
H117 O145 0.854 . S
H118 C153 0.930 1_565 S
H119 C154 0.930 1_565 S
H120 C156 0.930 . S
H121 C157 0.930 . S
H122 C159 0.931 . S
H123 C160 0.930 . S
H124 C162 0.930 . S
H125 C163 0.929 . S
H126 C165 0.930 . S
H127 C166 0.931 . S
H128 C168 0.930 . S
H129 C169 0.929 . S
H130 C171 0.931 . S
H131 C172 0.930 . S
H132 C174 0.930 . S
H133 C175 0.932 . S
H134 C177 0.930 . S
H135 C178 0.929 1_565 S
H136 C180 0.931 . S
H137 C181 0.930 . S
H138 C183 0.929 . S
H139 C184 0.931 . S
H140 C186 0.930 . S
H141 C187 0.929 . S
O142 H116 0.856 . S
O142 C188 1.300 . S
O143 C188 1.209 . S
O144 C189 1.199 . S
O145 H117 0.854 . S
O145 C189 1.297 . S
C146 C147 1.404 . S
C146 C151 1.397 . S
C146 C152 1.492 . S
C147 C146 1.404 . S
C147 C148 1.396 . S
C147 C158 1.492 . S
C148 C147 1.396 . S
C148 C149 1.397 . S
C148 C164 1.509 . S
C149 C148 1.397 . S
C149 C150 1.412 . S
C149 C170 1.485 . S
C150 C149 1.412 . S
C150 C151 1.388 . S
C150 C176 1.490 . S
C151 C146 1.397 . S
C151 C150 1.388 . S
C151 C182 1.519 . S
C152 C146 1.492 . S
C152 C153 1.363 . S
C152 C157 1.390 . S
C153 H118 0.930 1_545 S
C153 C152 1.363 . S
C153 C154 1.372 . S
C154 H119 0.930 1_545 S
C154 C153 1.372 . S
C154 C155 1.383 . S
C155 C154 1.383 . S
C155 C156 1.395 . S
C156 H120 0.930 . S
C156 C155 1.395 . S
C156 C157 1.362 . S
C157 H121 0.930 . S
C157 C152 1.390 . S
C157 C156 1.362 . S
C158 C147 1.492 . S
C158 C159 1.377 . S
C158 C163 1.397 . S
C159 H122 0.931 . S
C159 C158 1.377 . S
C159 C160 1.376 . S
C160 H123 0.930 . S
C160 C159 1.376 . S
C160 C161 1.376 . S
C161 C160 1.376 . S
C161 C162 1.378 . S
C161 C188 1.486 . S
C162 H124 0.930 . S
C162 C161 1.378 . S
C162 C163 1.376 . S
C163 H125 0.929 . S
C163 C158 1.397 . S
C163 C162 1.376 . S
C164 C148 1.509 . S
C164 C165 1.391 . S
C164 C169 1.386 . S
C165 H126 0.930 . S
C165 C164 1.391 . S
C165 C166 1.375 . S
C166 H127 0.931 . S
C166 C165 1.375 . S
C166 C167 1.375 . S
C167 C166 1.375 . S
C167 C168 1.361 . S
C168 H128 0.930 . S
C168 C167 1.361 . S
C168 C169 1.399 . S
C169 H129 0.929 . S
C169 C164 1.386 . S
C169 C168 1.399 . S
C170 C149 1.485 . S
C170 C171 1.394 . S
C170 C175 1.360 . S
C171 H130 0.931 . S
C171 C170 1.394 . S
C171 C172 1.372 . S
C172 H131 0.930 . S
C172 C171 1.372 . S
C172 C173 1.397 . S
C173 C172 1.397 . S
C173 C174 1.390 . S
C173 C189 1.476 . S
C174 H132 0.930 . S
C174 C173 1.390 . S
C174 C175 1.366 . S
C175 H133 0.932 . S
C175 C170 1.360 . S
C175 C174 1.366 . S
C176 C150 1.490 . S
C176 C177 1.380 . S
C176 C181 1.386 . S
C177 H134 0.930 . S
C177 C176 1.380 . S
C177 C178 1.381 . S
C178 H135 0.929 1_545 S
C178 C177 1.381 . S
C178 C179 1.371 . S
C179 C178 1.371 . S
C179 C180 1.380 . S
C180 H136 0.931 . S
C180 C179 1.380 . S
C180 C181 1.387 . S
C181 H137 0.930 . S
C181 C176 1.386 . S
C181 C180 1.387 . S
C182 C151 1.519 . S
C182 C183 1.377 . S
C182 C187 1.361 . S
C183 H138 0.929 . S
C183 C182 1.377 . S
C183 C184 1.386 . S
C184 H139 0.931 . S
C184 C183 1.386 . S
C184 C185 1.363 . S
C185 C184 1.363 . S
C185 C186 1.385 . S
C186 H140 0.930 . S
C186 C185 1.385 . S
C186 C187 1.396 . S
C187 H141 0.929 . S
C187 C182 1.361 . S
C187 C186 1.396 . S
C188 O142 1.300 . S
C188 O143 1.209 . S
C188 C161 1.486 . S
C189 O144 1.199 . S
C189 O145 1.297 . S
C189 C173 1.476 . S
H190 O216 0.856 . S
H191 O219 0.854 . S
H192 C227 0.930 . S
H193 C228 0.930 . S
H194 C230 0.930 . S
H195 C231 0.930 . S
H196 C233 0.931 . S
H197 C234 0.930 . S
H198 C236 0.938 . S
H199 C237 0.929 . S
H200 C239 0.930 . S
H201 C240 0.931 . S
H202 C242 0.930 . S
H203 C243 0.929 . S
H204 C245 0.931 . S
H205 C246 0.930 . S
H206 C248 0.930 . S
H207 C249 0.932 . S
H208 C251 0.930 . S
H209 C252 0.929 . S
H210 C254 0.931 . S
H211 C255 0.930 . S
H212 C257 0.929 . S
H213 C258 0.931 . S
H214 C260 0.930 . S
H215 C261 0.929 . S
O216 H190 0.856 . S
O216 C262 1.300 . S
O217 C262 1.209 . S
O218 C263 1.199 . S
O219 H191 0.854 . S
O219 C263 1.297 . S
C220 C221 1.404 . S
C220 C225 1.397 . S
C220 C226 1.492 . S
C221 C220 1.404 . S
C221 C222 1.396 . S
C221 C232 1.492 . S
C222 C221 1.396 . S
C222 C223 1.397 . S
C222 C238 1.509 . S
C223 C222 1.397 . S
C223 C224 1.412 . S
C223 C244 1.485 . S
C224 C223 1.412 . S
C224 C225 1.388 . S
C224 C250 1.490 . S
C225 C220 1.397 . S
C225 C224 1.388 . S
C225 C256 1.519 . S
C226 C220 1.492 . S
C226 C227 1.363 . S
C226 C231 1.390 . S
C227 H192 0.930 . S
C227 C226 1.363 . S
C227 C228 1.372 . S
C228 H193 0.930 . S
C228 C227 1.372 . S
C228 C229 1.383 . S
C229 C228 1.383 . S
C229 C230 1.395 . S
C230 H194 0.930 . S
C230 C229 1.395 . S
C230 C231 1.362 . S
C231 H195 0.930 . S
C231 C226 1.390 . S
C231 C230 1.362 . S
C232 C221 1.492 . S
C232 C233 1.377 . S
C232 C237 1.397 . S
C233 H196 0.931 . S
C233 C232 1.377 . S
C233 C234 1.376 1_556 S
C234 H197 0.930 . S
C234 C233 1.376 1_554 S
C234 C235 1.376 . S
C235 C234 1.376 . S
C235 C236 1.378 1_554 S
C235 C262 1.486 . S
C236 H198 0.938 . S
C236 C235 1.378 1_556 S
C236 C237 1.376 . S
C237 H199 0.929 . S
C237 C232 1.397 . S
C237 C236 1.376 . S
C238 C222 1.509 . S
C238 C239 1.391 . S
C238 C243 1.386 . S
C239 H200 0.930 . S
C239 C238 1.391 . S
C239 C240 1.375 . S
C240 H201 0.931 . S
C240 C239 1.375 . S
C240 C241 1.375 . S
C241 C240 1.375 . S
C241 C242 1.361 . S
C242 H202 0.930 . S
C242 C241 1.361 . S
C242 C243 1.399 . S
C243 H203 0.929 . S
C243 C238 1.386 . S
C243 C242 1.399 . S
C244 C223 1.485 . S
C244 C245 1.394 . S
C244 C249 1.360 . S
C245 H204 0.931 . S
C245 C244 1.394 . S
C245 C246 1.372 . S
C246 H205 0.930 . S
C246 C245 1.372 . S
C246 C247 1.397 . S
C247 C246 1.397 . S
C247 C248 1.390 . S
C247 C263 1.476 . S
C248 H206 0.930 . S
C248 C247 1.390 . S
C248 C249 1.366 . S
C249 H207 0.932 . S
C249 C244 1.360 . S
C249 C248 1.366 . S
C250 C224 1.490 . S
C250 C251 1.380 . S
C250 C255 1.386 . S
C251 H208 0.930 . S
C251 C250 1.380 . S
C251 C252 1.381 . S
C252 H209 0.929 . S
C252 C251 1.381 . S
C252 C253 1.371 . S
C253 C252 1.371 . S
C253 C254 1.380 . S
C254 H210 0.931 . S
C254 C253 1.380 . S
C254 C255 1.387 . S
C255 H211 0.930 . S
C255 C250 1.386 . S
C255 C254 1.387 . S
C256 C225 1.519 . S
C256 C257 1.377 . S
C256 C261 1.361 . S
C257 H212 0.929 . S
C257 C256 1.377 . S
C257 C258 1.386 . S
C258 H213 0.931 . S
C258 C257 1.386 . S
C258 C259 1.363 . S
C259 C258 1.363 . S
C259 C260 1.385 . S
C260 H214 0.930 . S
C260 C259 1.385 . S
C260 C261 1.396 . S
C261 H215 0.929 . S
C261 C256 1.361 . S
C261 C260 1.396 . S
C262 O216 1.300 . S
C262 O217 1.209 . S
C262 C235 1.486 . S
C263 O218 1.199 . S
C263 O219 1.297 . S
C263 C247 1.476 . S
H264 C270 0.930 . S
H265 C274 0.930 1_655 S
H266 C279 0.929 . S
H267 C277 0.929 . S
H268 C272 0.929 1_655 S
H269 C278 0.929 . S
C270 H264 0.930 . S
C270 C271 1.367 . S
C270 C278 1.378 . S
C271 C270 1.367 . S
C271 C279 1.433 . S
C272 H268 0.929 1_455 S
C272 C274 1.378 . S
C272 C276 1.350 . S
C273 C276 1.463 . S
C273 C278 1.350 . S
C273 N281 1.427 . S
C274 H265 0.930 1_455 S
C274 C272 1.378 . S
C274 C275 1.367 . S
C275 C274 1.367 . S
C275 C277 1.433 . S
C276 C272 1.350 . S
C276 C273 1.463 . S
C276 N280 1.427 . S
C277 H267 0.929 . S
C277 C275 1.433 . S
C277 N280 1.384 . S
C278 H269 0.929 . S
C278 C270 1.378 . S
C278 C273 1.350 . S
C279 H266 0.929 . S
C279 C271 1.433 . S
C279 N281 1.384 . S
N280 C276 1.427 . S
N280 C277 1.384 . S
N281 C273 1.427 . S
N281 C279 1.384 . S
H282 C288 0.930 . S
H283 C292 0.930 . S
H284 C297 0.929 . S
H285 C295 0.929 . S
H286 C290 0.929 . S
H287 C296 0.929 . S
C288 H282 0.930 . S
C288 C289 1.367 1_565 S
C288 C296 1.378 . S
C289 C288 1.367 1_545 S
C289 C297 1.433 . S
C290 H286 0.929 . S
C290 C292 1.378 . S
C290 C294 1.350 . S
C291 C294 1.463 . S
C291 C296 1.350 1_545 S
C291 N299 1.427 . S
C292 H283 0.930 . S
C292 C290 1.378 . S
C292 C293 1.367 . S
C293 C292 1.367 . S
C293 C295 1.433 1_545 S
C294 C290 1.350 . S
C294 C291 1.463 . S
C294 N298 1.427 1_545 S
C295 H285 0.929 . S
C295 C293 1.433 1_565 S
C295 N298 1.384 . S
C296 H287 0.929 . S
C296 C288 1.378 . S
C296 C291 1.350 1_565 S
C297 H284 0.929 . S
C297 C289 1.433 . S
C297 N299 1.384 . S
N298 C294 1.427 1_565 S
N298 C295 1.384 . S
N299 C291 1.427 . S
N299 C297 1.384 . S
H300 C306 0.930 1_545 S
H301 C310 0.930 . S
H302 C315 0.929 . S
H303 C313 0.929 . S
H304 C308 0.929 . S
H305 C314 0.929 . S
C306 H300 0.930 1_565 S
C306 C307 1.367 . S
C306 C314 1.378 . S
C307 C306 1.367 . S
C307 C315 1.433 . S
C308 H304 0.929 . S
C308 C310 1.378 . S
C308 C312 1.350 . S
C309 C312 1.463 . S
C309 C314 1.350 . S
C309 N317 1.427 . S
C310 H301 0.930 . S
C310 C308 1.378 . S
C310 C311 1.367 . S
C311 C310 1.367 . S
C311 C313 1.433 . S
C312 C308 1.350 . S
C312 C309 1.463 . S
C312 N316 1.427 . S
C313 H303 0.929 . S
C313 C311 1.433 . S
C313 N316 1.384 . S
C314 H305 0.929 . S
C314 C306 1.378 . S
C314 C309 1.350 . S
C315 H302 0.929 . S
C315 C307 1.433 . S
C315 N317 1.384 . S
N316 C312 1.427 . S
N316 C313 1.384 . S
N317 C309 1.427 . S
N317 C315 1.384 . S
H318 C324 0.930 1_545 S
H319 C328 0.930 . S
H320 C333 0.929 . S
H321 C331 0.929 . S
H322 C326 0.929 . S
H323 C332 0.929 . S
C324 H318 0.930 1_565 S
C324 C325 1.367 . S
C324 C332 1.378 . S
C325 C324 1.367 . S
C325 C333 1.433 . S
C326 H322 0.929 . S
C326 C328 1.378 . S
C326 C330 1.350 . S
C327 C330 1.463 . S
C327 C332 1.350 . S
C327 N335 1.427 . S
C328 H319 0.930 . S
C328 C326 1.378 . S
C328 C329 1.367 . S
C329 C328 1.367 . S
C329 C331 1.433 . S
C330 C326 1.350 . S
C330 C327 1.463 . S
C330 N334 1.427 . S
C331 H321 0.929 . S
C331 C329 1.433 . S
C331 N334 1.384 . S
C332 H323 0.929 . S
C332 C324 1.378 . S
C332 C327 1.350 . S
C333 H320 0.929 . S
C333 C325 1.433 . S
C333 N335 1.384 . S
N334 C330 1.427 . S
N334 C331 1.384 . S
N335 C327 1.427 . S
N335 C333 1.384 . S
H336 C342 0.930 . S
H337 C346 0.930 . S
H338 C351 0.929 1_565 S
H339 C349 0.929 . S
H340 C344 0.929 . S
H341 C350 0.929 . S
C342 H336 0.930 . S
C342 C343 1.367 . S
C342 C350 1.378 . S
C343 C342 1.367 . S
C343 C351 1.433 . S
C344 H340 0.929 . S
C344 C346 1.378 . S
C344 C348 1.350 . S
C345 C348 1.463 . S
C345 C350 1.350 . S
C345 N353 1.427 . S
C346 H337 0.930 . S
C346 C344 1.378 . S
C346 C347 1.367 . S
C347 C346 1.367 . S
C347 C349 1.433 . S
C348 C344 1.350 . S
C348 C345 1.463 . S
C348 N352 1.427 . S
C349 H339 0.929 . S
C349 C347 1.433 . S
C349 N352 1.384 . S
C350 H341 0.929 . S
C350 C342 1.378 . S
C350 C345 1.350 . S
C351 H338 0.929 1_545 S
C351 C343 1.433 . S
C351 N353 1.384 . S
N352 C348 1.427 . S
N352 C349 1.384 . S
N353 C345 1.427 . S
N353 C351 1.384 . S
H354 C360 0.930 . S
H355 C364 0.930 . S
H356 C369 0.929 . S
H357 C367 0.929 . S
H358 C362 0.929 . S
H359 C368 0.929 . S
C360 H354 0.930 . S
C360 C361 1.367 . S
C360 C368 1.378 . S
C361 C360 1.367 . S
C361 C369 1.433 . S
C362 H358 0.929 . S
C362 C364 1.378 . S
C362 C366 1.350 . S
C363 C366 1.463 . S
C363 C368 1.350 . S
C363 N371 1.427 . S
C364 H355 0.930 . S
C364 C362 1.378 . S
C364 C365 1.367 . S
C365 C364 1.367 . S
C365 C367 1.433 . S
C366 C362 1.350 . S
C366 C363 1.463 . S
C366 N370 1.427 . S
C367 H357 0.929 . S
C367 C365 1.433 . S
C367 N370 1.384 . S
C368 H359 0.929 . S
C368 C360 1.378 . S
C368 C363 1.350 . S
C369 H356 0.929 . S
C369 C361 1.433 . S
C369 N371 1.384 . S
N370 C366 1.427 . S
N370 C367 1.384 . S
N371 C363 1.427 . S
N371 C369 1.384 . S
H372 C378 0.930 . S
H373 C382 0.930 . S
H374 C387 0.929 . S
H375 C385 0.929 . S
H376 C380 0.929 . S
H377 C386 0.929 . S
C378 H372 0.930 . S
C378 C379 1.367 . S
C378 C386 1.378 . S
C379 C378 1.367 . S
C379 C387 1.433 . S
C380 H376 0.929 . S
C380 C382 1.378 . S
C380 C384 1.350 . S
C381 C384 1.463 . S
C381 C386 1.350 . S
C381 N389 1.427 . S
C382 H373 0.930 . S
C382 C380 1.378 . S
C382 C383 1.367 . S
C383 C382 1.367 . S
C383 C385 1.433 . S
C384 C380 1.350 . S
C384 C381 1.463 . S
C384 N388 1.427 . S
C385 H375 0.929 . S
C385 C383 1.433 . S
C385 N388 1.384 . S
C386 H377 0.929 . S
C386 C378 1.378 . S
C386 C381 1.350 . S
C387 H374 0.929 . S
C387 C379 1.433 . S
C387 N389 1.384 . S
N388 C384 1.427 . S
N388 C385 1.384 . S
N389 C381 1.427 . S
N389 C387 1.384 . S
H390 C396 0.930 . S
H391 C400 0.930 . S
H392 C405 0.929 1_445 S
H393 C403 0.929 . S
H394 C398 0.929 . S
H395 C404 0.929 . S
C396 H390 0.930 . S
C396 C397 1.367 . S
C396 C404 1.378 . S
C397 C396 1.367 . S
C397 C405 1.433 . S
C398 H394 0.929 . S
C398 C400 1.378 . S
C398 C402 1.350 . S
C399 C402 1.463 1_554 S
C399 C404 1.350 . S
C399 N407 1.427 . S
C400 H391 0.930 . S
C400 C398 1.378 . S
C400 C401 1.367 . S
C401 C400 1.367 . S
C401 C403 1.433 . S
C402 C398 1.350 . S
C402 C399 1.463 1_556 S
C402 N406 1.425 1_556 S
C403 H393 0.929 . S
C403 C401 1.433 . S
C403 N406 1.369 1_556 S
C404 H395 0.929 . S
C404 C396 1.378 . S
C404 C399 1.350 . S
C405 H392 0.929 1_665 S
C405 C397 1.433 . S
C405 N407 1.384 . S
N406 C402 1.425 1_554 S
N406 C403 1.369 1_554 S
N407 C399 1.427 . S
N407 C405 1.384 . S
H408 C414 0.930 . S
H409 C418 0.930 . S
H410 C423 0.929 . S
H411 C421 0.929 . S
H412 C416 0.929 . S
H413 C422 0.929 . S
C414 H408 0.930 . S
C414 C415 1.367 . S
C414 C422 1.378 . S
C415 C414 1.367 . S
C415 C423 1.433 1_455 S
C416 H412 0.929 . S
C416 C418 1.378 . S
C416 C420 1.345 1_655 S
C417 C420 1.460 . S
C417 C422 1.350 . S
C417 N425 1.427 1_455 S
C418 H409 0.930 . S
C418 C416 1.378 . S
C418 C419 1.367 . S
C419 C418 1.367 . S
C419 C421 1.433 1_655 S
C420 C416 1.345 1_455 S
C420 C417 1.460 . S
C420 N424 1.435 . S
C421 H411 0.929 . S
C421 C419 1.433 1_455 S
C421 N424 1.384 . S
C422 H413 0.929 . S
C422 C414 1.378 . S
C422 C417 1.350 . S
C423 H410 0.929 . S
C423 C415 1.433 1_655 S
C423 N425 1.384 . S
N424 C420 1.435 . S
N424 C421 1.384 . S
N425 C417 1.427 1_655 S
N425 C423 1.384 . S
H426 C432 0.930 . S
H427 C436 0.930 . S
H428 C441 0.929 . S
H429 C439 0.928 1_565 S
H430 C434 0.929 . S
H431 C440 0.929 . S
C432 H426 0.930 . S
C432 C433 1.367 . S
C432 C440 1.378 . S
C433 C432 1.367 . S
C433 C441 1.433 . S
C434 H430 0.929 . S
C434 C436 1.378 . S
C434 C438 1.350 . S
C435 C438 1.463 . S
C435 C440 1.350 . S
C435 N443 1.427 . S
C436 H427 0.930 . S
C436 C434 1.378 . S
C436 C437 1.367 . S
C437 C436 1.367 . S
C437 C439 1.433 . S
C438 C434 1.350 . S
C438 C435 1.463 . S
C438 N442 1.427 . S
C439 H429 0.928 1_545 S
C439 C437 1.433 . S
C439 N442 1.384 . S
C440 H431 0.929 . S
C440 C432 1.378 . S
C440 C435 1.350 . S
C441 H428 0.929 . S
C441 C433 1.433 . S
C441 N443 1.384 . S
N442 C438 1.427 . S
N442 C439 1.384 . S
N443 C435 1.427 . S
N443 C441 1.384 . S
H444 C450 0.930 . S
H445 C454 0.930 . S
H446 C459 0.929 . S
H447 C457 0.929 . S
H448 C452 0.929 . S
H449 C458 0.929 . S
C450 H444 0.930 . S
C450 C451 1.367 . S
C450 C458 1.378 . S
C451 C450 1.367 . S
C451 C459 1.433 . S
C452 H448 0.929 . S
C452 C454 1.378 . S
C452 C456 1.350 . S
C453 C456 1.463 . S
C453 C458 1.350 . S
C453 N461 1.427 . S
C454 H445 0.930 . S
C454 C452 1.378 . S
C454 C455 1.367 1_554 S
C455 C454 1.367 1_556 S
C455 C457 1.433 . S
C456 C452 1.350 . S
C456 C453 1.463 . S
C456 N460 1.427 . S
C457 H447 0.929 . S
C457 C455 1.433 . S
C457 N460 1.384 1_556 S
C458 H449 0.929 . S
C458 C450 1.378 . S
C458 C453 1.350 . S
C459 H446 0.929 . S
C459 C451 1.433 . S
C459 N461 1.384 . S
N460 C456 1.427 . S
N460 C457 1.384 1_554 S
N461 C453 1.427 . S
N461 C459 1.384 . S
H462 C468 0.930 . S
H463 C472 0.930 . S
H464 C477 0.929 . S
H465 C475 0.929 . S
H466 C470 0.929 . S
H467 C476 0.929 . S
C468 H462 0.930 . S
C468 C469 1.367 1_655 S
C468 C476 1.378 . S
C469 C468 1.367 1_455 S
C469 C477 1.433 . S
C470 H466 0.929 . S
C470 C472 1.378 . S
C470 C474 1.350 . S
C471 C474 1.463 . S
C471 C476 1.350 1_455 S
C471 N479 1.427 . S
C472 H463 0.930 . S
C472 C470 1.378 . S
C472 C473 1.367 . S
C473 C472 1.367 . S
C473 C475 1.433 1_455 S
C474 C470 1.350 . S
C474 C471 1.463 . S
C474 N478 1.427 1_455 S
C475 H465 0.929 . S
C475 C473 1.433 1_655 S
C475 N478 1.384 . S
C476 H467 0.929 . S
C476 C468 1.378 . S
C476 C471 1.350 1_655 S
C477 H464 0.929 . S
C477 C469 1.433 . S
C477 N479 1.384 . S
N478 C474 1.427 1_655 S
N478 C475 1.384 . S
N479 C471 1.427 . S
N479 C477 1.384 . S
C275 C81 1.410 . S
C271 C0 1.516 . S
C289 C25 1.464 . S
C293 C155 1.373 . S
C307 C33 2.126 1_665 S
C311 C259 2.128 . S
C325 C11 0.804 . S
C329 C93 0.803 . S
C347 C167 0.809 . S
C343 C14 0.812 . S
C361 C37 1.592 . S
C365 C253 1.478 . S
C383 C185 2.124 . S
C379 C28 2.129 . S
C397 C9 1.580 1_565 S
C401 C229 1.476 . S
C419 C105 1.509 1_655 S
C415 C19 1.624 . S
C437 C179 1.411 . S
C433 C39 1.507 . S
C455 C241 0.844 . S
C451 C5 0.838 . S
C469 C23 2.226 . S
C473 C111 2.228 . S
