# Generated by pormake.
# Topology zzz, (3,6)-cn, num edge types: 1
# Building blocks:
#     Node 0, Type 0, BuildingBlock: BETDAH_clean_linker_0, # of connection points: 3
#     Node 1, Type 0, BuildingBlock: BETDAH_clean_linker_0, # of connection points: 3
#     Node 2, Type 0, BuildingBlock: BETDAH_clean_linker_0, # of connection points: 3
#     Node 3, Type 0, BuildingBlock: BETDAH_clean_linker_0, # of connection points: 3
#     Node 4, Type 0, BuildingBlock: BETDAH_clean_linker_0, # of connection points: 3
#     Node 5, Type 0, BuildingBlock: BETDAH_clean_linker_0, # of connection points: 3
#     Node 6, Type 0, BuildingBlock: BETDAH_clean_linker_0, # of connection points: 3
#     Node 7, Type 0, BuildingBlock: BETDAH_clean_linker_0, # of connection points: 3
#     Node 8, Type 1, BuildingBlock: FUNLAD_clean_sbu_0, # of connection points: 6
#     Node 9, Type 1, BuildingBlock: FUNLAD_clean_sbu_0, # of connection points: 6
#     Node 10, Type 1, BuildingBlock: FUNLAD_clean_sbu_0, # of connection points: 6
#     Node 11, Type 1, BuildingBlock: FUNLAD_clean_sbu_0, # of connection points: 6
#     Edge 12, Type (0, 1), BuildingBlock: XIVTED_clean_linker_0, # of connection points: 2
#     Edge 13, Type (0, 1), BuildingBlock: XIVTED_clean_linker_0, # of connection points: 2
#     Edge 14, Type (0, 1), BuildingBlock: XIVTED_clean_linker_0, # of connection points: 2
#     Edge 15, Type (0, 1), BuildingBlock: XIVTED_clean_linker_0, # of connection points: 2
#     Edge 16, Type (0, 1), BuildingBlock: XIVTED_clean_linker_0, # of connection points: 2
#     Edge 17, Type (0, 1), BuildingBlock: XIVTED_clean_linker_0, # of connection points: 2
#     Edge 18, Type (0, 1), BuildingBlock: XIVTED_clean_linker_0, # of connection points: 2
#     Edge 19, Type (0, 1), BuildingBlock: XIVTED_clean_linker_0, # of connection points: 2
#     Edge 20, Type (0, 1), BuildingBlock: XIVTED_clean_linker_0, # of connection points: 2
#     Edge 21, Type (0, 1), BuildingBlock: XIVTED_clean_linker_0, # of connection points: 2
#     Edge 22, Type (0, 1), BuildingBlock: XIVTED_clean_linker_0, # of connection points: 2
#     Edge 23, Type (0, 1), BuildingBlock: XIVTED_clean_linker_0, # of connection points: 2
#     Edge 24, Type (0, 1), BuildingBlock: XIVTED_clean_linker_0, # of connection points: 2
#     Edge 25, Type (0, 1), BuildingBlock: XIVTED_clean_linker_0, # of connection points: 2
#     Edge 26, Type (0, 1), BuildingBlock: XIVTED_clean_linker_0, # of connection points: 2
#     Edge 27, Type (0, 1), BuildingBlock: XIVTED_clean_linker_0, # of connection points: 2
#     Edge 28, Type (0, 1), BuildingBlock: XIVTED_clean_linker_0, # of connection points: 2
#     Edge 29, Type (0, 1), BuildingBlock: XIVTED_clean_linker_0, # of connection points: 2
#     Edge 30, Type (0, 1), BuildingBlock: XIVTED_clean_linker_0, # of connection points: 2
#     Edge 31, Type (0, 1), BuildingBlock: XIVTED_clean_linker_0, # of connection points: 2
#     Edge 32, Type (0, 1), BuildingBlock: XIVTED_clean_linker_0, # of connection points: 2
#     Edge 33, Type (0, 1), BuildingBlock: XIVTED_clean_linker_0, # of connection points: 2
#     Edge 34, Type (0, 1), BuildingBlock: XIVTED_clean_linker_0, # of connection points: 2
#     Edge 35, Type (0, 1), BuildingBlock: XIVTED_clean_linker_0, # of connection points: 2
# Relax obj value: 0.118
# Max RMSD: 0.175
# Mean RMSD: 0.091
data_MOF--net-zzz--node1-FUNLAD_clean_sbu_0--node2-BETDAH_clean_linker_0--edge1-XIVTED_clean_linker_0
_symmetry_space_group_name_H-M    P1
_symmetry_Int_Tables_number       1
_symmetry_cell_setting            triclinic
loop_
_symmetry_equiv_pos_as_xyz
'x, y, z'
_cell_length_a     51.751038
_cell_length_b     57.226329
_cell_length_c     17.591282
_cell_angle_alpha  85.531036
_cell_angle_beta   85.084949
_cell_angle_gamma 89.964574
loop_
_atom_site_label
_atom_site_type_symbol
_atom_site_fract_x
_atom_site_fract_y
_atom_site_fract_z
_atom_type_partial_charge
H0 H 0.85865 0.49743 0.26202 0.0
H1 H 0.79973 0.4629 0.15425 0.0
H2 H 0.79054 0.47064 0.39725 0.0
C3 C 0.83957 0.48934 0.2655 0.0
C4 C 0.82542 0.48563 0.3367 0.0
C5 C 0.83064 0.48091 0.2 0.0
C6 C 0.80652 0.46955 0.20503 0.0
C7 C 0.79156 0.46644 0.27605 0.0
C8 C 0.8015 0.47386 0.3421 0.0
N9 N 0.76674 0.45561 0.28277 0.0
C10 C 0.75188 0.45466 0.22097 0.0
H11 H 0.99524 0.84093 0.11101 0.0
H12 H 0.97602 0.78543 0.97436 0.0
H13 H 0.93588 0.79133 0.1975 0.0
C14 C 0.98463 0.82495 0.10464 0.0
C15 C 0.96586 0.81703 0.16271 0.0
C16 C 0.98835 0.81391 0.0363 0.0
C17 C 0.97355 0.79387 0.02749 0.0
C18 C 0.95486 0.7854 0.08642 0.0
C19 C 0.95066 0.79744 0.15303 0.0
N20 N 0.93942 0.76533 0.07957 0.0
C21 C 0.94637 0.748 0.03067 0.0
H22 H 0.67799 0.01871 0.12955 0.0
H23 H 0.75191 0.00315 0.01489 0.0
H24 H 0.73817 0.98927 0.25978 0.0
C25 C 0.69796 0.01311 0.13231 0.0
C26 C 0.70625 0.00467 0.20276 0.0
C27 C 0.71408 0.01244 0.06447 0.0
C28 C 0.73956 0.00408 0.06746 0.0
C29 C 0.74854 0.99621 0.13853 0.0
C30 C 0.73155 0.996 0.20553 0.0
N31 N 0.77408 0.98754 0.14476 0.0
C32 C 0.7948 0.9914 0.08922 0.0
H33 H 0.54039 0.63871 0.14426 0.0
H34 H 0.53083 0.70903 0.04726 0.0
H35 H 0.55383 0.6967 0.27715 0.0
C36 C 0.54143 0.65746 0.14931 0.0
C37 C 0.54845 0.66582 0.21721 0.0
C38 C 0.53474 0.67292 0.0887 0.0
C39 C 0.53587 0.69717 0.09469 0.0
C40 C 0.54296 0.70584 0.16298 0.0
C41 C 0.54881 0.69005 0.22425 0.0
N42 N 0.54404 0.73018 0.17282 0.0
C43 C 0.54224 0.74776 0.11444 0.0
H44 H 0.17959 0.53556 0.13622 0.0
H45 H 0.24329 0.52055 0.27256 0.0
H46 H 0.24995 0.50762 0.03326 0.0
C47 C 0.19966 0.53047 0.1403 0.0
C48 C 0.21376 0.52238 0.0763 0.0
C49 C 0.21001 0.52956 0.21133 0.0
C50 C 0.23545 0.52156 0.21726 0.0
C51 C 0.25023 0.51415 0.15236 0.0
C52 C 0.23908 0.51424 0.0824 0.0
N53 N 0.27588 0.50562 0.15618 0.0
C54 C 0.28862 0.50406 0.22271 0.0
H55 H 0.05107 0.1677 0.29432 0.0
H56 H 0.06487 0.22411 0.43345 0.0
H57 H 0.10673 0.22108 0.21112 0.0
C58 C 0.0606 0.18413 0.30204 0.0
C59 C 0.07896 0.19334 0.24482 0.0
C60 C 0.0554 0.19495 0.37027 0.0
C61 C 0.0686 0.21579 0.38041 0.0
C62 C 0.08698 0.22547 0.32245 0.0
C63 C 0.09244 0.21388 0.25536 0.0
N64 N 0.10047 0.24663 0.33028 0.0
C65 C 0.0918 0.26295 0.38105 0.0
H66 H 0.35583 0.9829 0.29609 0.0
H67 H 0.28265 1.00089 0.41027 0.0
H68 H 0.29711 0.01503 0.16577 0.0
C69 C 0.33611 0.98916 0.29316 0.0
C70 C 0.32826 0.99821 0.22277 0.0
C71 C 0.32001 0.99023 0.36091 0.0
C72 C 0.29494 0.99957 0.35778 0.0
C73 C 0.28637 0.00802 0.28671 0.0
C74 C 0.30337 0.0078 0.21993 0.0
N75 N 0.26135 0.01784 0.28028 0.0
C76 C 0.24038 0.01462 0.3352 0.0
H77 H 0.51057 0.35624 0.28907 0.0
H78 H 0.48401 0.29326 0.42123 0.0
H79 H 0.46187 0.30798 0.19153 0.0
C80 C 0.50043 0.33954 0.29329 0.0
C81 C 0.48699 0.33353 0.2319 0.0
C82 C 0.49926 0.32533 0.36195 0.0
C83 C 0.48523 0.30419 0.36791 0.0
C84 C 0.47205 0.29767 0.30574 0.0
C85 C 0.47241 0.31274 0.23875 0.0
N86 N 0.45801 0.27628 0.30949 0.0
C87 C 0.4642 0.25673 0.35608 0.0
C88 C 0.02811 0.96131 0.76765 0.0
N89 N 0.99659 0.98348 0.56605 0.0
C90 C 0.01385 0.96777 0.53757 0.0
C91 C 0.00654 0.95197 0.48738 0.0
C92 C 0.98108 0.95199 0.46575 0.0
C93 C 0.9637 0.96883 0.49384 0.0
C94 C 0.97195 0.98459 0.54421 0.0
Zn95 Zn 0.00858 1.00013 0.65608 0.0
C96 C 0.96735 0.00188 0.78315 0.0
N97 N 0.03741 0.02792 0.84997 0.0
C98 C 0.062 0.02623 0.87191 0.0
C99 C 0.02075 0.04427 0.87725 0.0
C100 C 0.02883 0.06046 0.92517 0.0
C101 C 0.05439 0.05997 0.94629 0.0
C102 C 0.07095 0.04219 0.92047 0.0
Zn103 Zn 0.02524 0.01134 0.76021 0.0
O104 O 0.01759 0.96665 0.70611 0.0
C105 C 0.06649 0.00955 0.63351 0.0
O106 O 0.03433 0.97753 0.80831 0.0
H107 H 1.00156 0.04592 0.85769 0.0
H108 H 0.033 0.96636 0.5574 0.0
H109 H 0.07508 0.0133 0.84881 0.0
O110 O 0.04697 0.0035 0.60026 0.0
O111 O 0.06323 0.01431 0.70301 0.0
H112 H 0.95836 0.99692 0.56845 0.0
O113 O 0.0161 0.04482 0.71024 0.0
O114 O 0.99978 0.03394 0.60738 0.0
O115 O 0.98691 0.00793 0.81634 0.0
O116 O 0.97054 0.99724 0.71347 0.0
C117 C 0.00586 0.05016 0.6482 0.0
H118 H 0.02046 0.93894 0.46928 0.0
H119 H 0.94387 0.96943 0.47856 0.0
H120 H 0.01545 0.0741 0.94153 0.0
H121 H 0.09076 0.04103 0.93573 0.0
C122 C 0.47355 0.99234 0.63943 0.0
N123 N 0.51155 0.05519 0.66615 0.0
C124 C 0.50879 0.06052 0.59057 0.0
C125 C 0.50568 0.08367 0.56238 0.0
C126 C 0.50516 0.10163 0.6124 0.0
C127 C 0.50785 0.09571 0.69034 0.0
C128 C 0.51118 0.07222 0.71612 0.0
Zn129 Zn 0.51549 0.02057 0.70124 0.0
C130 C 0.48325 0.00555 0.84061 0.0
N131 N 0.5227 0.94728 0.75976 0.0
C132 C 0.51962 0.92969 0.7134 0.0
C133 C 0.52868 0.9426 0.8332 0.0
C134 C 0.53236 0.91964 0.86224 0.0
C135 C 0.52957 0.90113 0.81579 0.0
C136 C 0.52281 0.90628 0.74068 0.0
Zn137 Zn 0.51881 0.98192 0.72386 0.0
O138 O 0.4828 0.01271 0.64373 0.0
C139 C 0.55115 0.99684 0.58463 0.0
O140 O 0.48553 0.97458 0.66645 0.0
H141 H 0.53068 0.95675 0.86958 0.0
H142 H 0.50878 0.04672 0.55192 0.0
H143 H 0.51482 0.93381 0.65524 0.0
O144 O 0.54136 0.01621 0.60299 0.0
O145 O 0.54417 0.97805 0.62444 0.0
H146 H 0.51339 0.06758 0.77599 0.0
O147 O 0.55204 0.99 0.77978 0.0
O148 O 0.5482 0.02811 0.75983 0.0
O149 O 0.49344 0.98625 0.82319 0.0
O150 O 0.48975 0.02425 0.79971 0.0
C151 C 0.56071 0.01051 0.78543 0.0
H152 H 0.50322 0.08742 0.50213 0.0
H153 H 0.50764 0.1091 0.73065 0.0
H154 H 0.53711 0.91637 0.92091 0.0
H155 H 0.5205 0.89242 0.70318 0.0
C156 C 0.52789 0.45795 0.64914 0.0
N157 N 0.46403 0.50226 0.66964 0.0
C158 C 0.46387 0.49724 0.59535 0.0
C159 C 0.44071 0.49648 0.56117 0.0
C160 C 0.41736 0.50126 0.60317 0.0
C161 C 0.41791 0.5072 0.67899 0.0
C162 C 0.4417 0.50738 0.71169 0.0
Zn163 Zn 0.49962 0.50045 0.71191 0.0
C164 C 0.50273 0.47068 0.84715 0.0
N165 N 0.57716 0.49457 0.77166 0.0
C166 C 0.5989 0.48711 0.73155 0.0
C167 C 0.57694 0.49777 0.84755 0.0
C168 C 0.59853 0.49224 0.88704 0.0
C169 C 0.62075 0.48345 0.84827 0.0
C170 C 0.62123 0.48157 0.76905 0.0
Zn171 Zn 0.54172 0.49742 0.72838 0.0
O172 O 0.5067 0.46904 0.65722 0.0
C173 C 0.53838 0.52763 0.59394 0.0
O174 O 0.54828 0.46645 0.67174 0.0
H175 H 0.5595 0.50355 0.87874 0.0
H176 H 0.48179 0.49354 0.5624 0.0
H177 H 0.59858 0.48451 0.67139 0.0
O178 O 0.51497 0.52186 0.61492 0.0
O179 O 0.55651 0.5186 0.63071 0.0
H180 H 0.4423 0.51137 0.77063 0.0
O181 O 0.53476 0.52866 0.78338 0.0
O182 O 0.49312 0.5315 0.76865 0.0
O183 O 0.52617 0.47617 0.82589 0.0
O184 O 0.48479 0.47941 0.80917 0.0
C185 C 0.51361 0.53984 0.79149 0.0
H186 H 0.44107 0.49227 0.50208 0.0
H187 H 0.40018 0.51109 0.71283 0.0
H188 H 0.59759 0.49417 0.948 0.0
H189 H 0.63814 0.47482 0.73748 0.0
C190 C 0.05351 0.5176 0.57614 0.0
N191 N 0.02764 0.45193 0.67489 0.0
C192 C 0.02463 0.44693 0.60179 0.0
C193 C 0.02884 0.42433 0.57932 0.0
C194 C 0.03652 0.4066 0.63218 0.0
C195 C 0.03953 0.41216 0.70738 0.0
C196 C 0.03483 0.43506 0.72777 0.0
Zn197 Zn 0.02229 0.48613 0.69951 0.0
C198 C 0.06277 0.50454 0.78358 0.0
N199 N 0.01155 0.55881 0.73056 0.0
C200 C 0.00434 0.57618 0.67936 0.0
C201 C 0.01326 0.56276 0.80526 0.0
C202 C 0.00661 0.58441 0.83184 0.0
C203 C 0.99807 0.60237 0.78135 0.0
C204 C 0.9976 0.59833 0.70368 0.0
Zn205 Zn 0.01718 0.52474 0.70434 0.0
O206 O 0.04749 0.49678 0.6022 0.0
C207 C 0.97653 0.50647 0.62089 0.0
O208 O 0.04235 0.53478 0.60668 0.0
H209 H 0.01894 0.54881 0.84531 0.0
H210 H 0.01932 0.4606 0.5602 0.0
H211 H 1.00299 0.57264 0.62031 0.0
O212 O 0.98934 0.488 0.63618 0.0
O213 O 0.98444 0.526 0.6402 0.0
H214 H 0.03718 0.43942 0.78551 0.0
O215 O 0.99224 0.51407 0.80173 0.0
O216 O 0.99704 0.47609 0.79722 0.0
O217 O 0.04991 0.52291 0.76756 0.0
O218 O 0.05511 0.48495 0.76413 0.0
C219 C 0.98627 0.49333 0.82833 0.0
H220 H 0.02676 0.42094 0.52041 0.0
H221 H 0.04537 0.39894 0.7499 0.0
H222 H 0.00763 0.58692 0.89193 0.0
H223 H 0.99105 0.61176 0.66304 0.0
H224 H 0.19663 0.99525 0.29701 0.0
H225 H 0.11254 0.02369 0.6835 0.0
H226 H 0.22899 0.02876 0.47845 0.0
H227 H 0.08038 0.99698 0.4888 0.0
H228 H 0.15566 0.02398 0.61367 0.0
H229 H 0.15434 0.99352 0.3712 0.0
C230 C 0.19476 0.00204 0.35303 0.0
C231 C 0.2161 0.01205 0.3822 0.0
C232 C 0.13914 0.01808 0.5863 0.0
C233 C 0.16785 0.01044 0.46721 0.0
C234 C 0.11451 0.01792 0.62609 0.0
C235 C 0.09273 0.01035 0.59196 0.0
C236 C 0.14207 0.0105 0.51195 0.0
C237 C 0.09652 0.00304 0.51745 0.0
C238 C 0.17064 1.00117 0.39525 0.0
C239 C 0.21285 0.02081 0.45452 0.0
N240 N 0.12064 0.00327 0.48017 0.0
N241 N 0.18909 0.01984 0.49471 0.0
H242 H 0.5044 0.22932 0.317 0.0
H243 H 0.47299 0.13475 0.6738 0.0
H244 H 0.4418 0.23699 0.49084 0.0
H245 H 0.52877 0.12444 0.48282 0.0
H246 H 0.46456 0.1742 0.61669 0.0
H247 H 0.51675 0.19267 0.38551 0.0
C248 C 0.49338 0.22322 0.37002 0.0
C249 C 0.47209 0.23584 0.39865 0.0
C250 C 0.47875 0.16334 0.58758 0.0
C251 C 0.48587 0.19413 0.47714 0.0
C252 C 0.48368 0.14091 0.62037 0.0
C253 C 0.50144 0.12625 0.58261 0.0
C254 C 0.4918 0.17117 0.51684 0.0
C255 C 0.51461 0.13502 0.51323 0.0
C256 C 0.50037 0.20235 0.40907 0.0
C257 C 0.45834 0.2275 0.46731 0.0
N258 N 0.50946 0.15684 0.48251 0.0
N259 N 0.46541 0.20702 0.50433 0.0
H260 H 0.31087 0.4653 0.2833 0.0
H261 H 0.37986 0.53481 0.58926 0.0
H262 H 0.29804 0.53848 0.31365 0.0
H263 H 0.39987 0.46488 0.53122 0.0
H264 H 0.34377 0.53442 0.50709 0.0
H265 H 0.33777 0.46285 0.39168 0.0
C266 C 0.31362 0.48078 0.31357 0.0
C267 C 0.30263 0.50214 0.29002 0.0
C268 C 0.35584 0.51905 0.51328 0.0
C269 C 0.33327 0.49966 0.41306 0.0
C270 C 0.37626 0.51922 0.56051 0.0
C271 C 0.3929 0.49995 0.56609 0.0
C272 C 0.35212 0.4994 0.47203 0.0
C273 C 0.3876 0.4802 0.5275 0.0
C274 C 0.32892 0.47943 0.37524 0.0
C275 C 0.30649 0.52175 0.3305 0.0
N276 N 0.36782 0.4805 0.48163 0.0
N277 N 0.32172 0.52011 0.38997 0.0
H278 H 0.11713 0.28295 0.48792 0.0
H279 H 0.00821 0.38089 0.54379 0.0
H280 H 0.04543 0.28415 0.38026 0.0
H281 H 0.07777 0.37824 0.66283 0.0
H282 H 0.02015 0.3438 0.49105 0.0
H283 H 0.10192 0.31614 0.56013 0.0
C284 C 0.09806 0.29013 0.48033 0.0
C285 C 0.0824 0.28107 0.42855 0.0
C286 C 0.03274 0.35118 0.52919 0.0
C287 C 0.06499 0.31889 0.50965 0.0
C288 C 0.02595 0.37241 0.55915 0.0
C289 C 0.04215 0.38279 0.6072 0.0
C290 C 0.05603 0.34025 0.54681 0.0
C291 C 0.06468 0.37082 0.62621 0.0
C292 C 0.08939 0.30903 0.52131 0.0
C293 C 0.05796 0.29082 0.41994 0.0
N294 N 0.0711 0.3503 0.59532 0.0
N295 N 0.05003 0.30933 0.45977 0.0
H296 H 0.83815 0.01182 0.1261 0.0
H297 H 0.92137 0.9871 0.73423 0.0
H298 H 0.80596 0.97817 0.94467 0.0
H299 H 0.95359 0.0141 0.92838 0.0
H300 H 0.87851 0.98559 0.80585 0.0
H301 H 0.88001 0.01512 0.0497 0.0
C302 C 0.83995 0.00532 0.06965 0.0
C303 C 0.81879 0.99481 0.04114 0.0
C304 C 0.89498 0.99184 0.83268 0.0
C305 C 0.86656 0.99824 0.95354 0.0
C306 C 0.91946 0.9927 0.79184 0.0
C307 C 0.94119 1.00067 0.82534 0.0
C308 C 0.89214 0.9991 0.90745 0.0
C309 C 0.93749 0.00774 0.90017 0.0
C310 C 0.86383 0.0071 0.02615 0.0
C311 C 0.82197 0.98648 0.96816 0.0
N312 N 0.91351 0.0068 0.9385 0.0
N313 N 0.84548 0.98833 0.92672 0.0
H314 H 0.50403 0.75991 0.02281 0.0
H315 H 0.56995 0.88454 0.89325 0.0
H316 H 0.5791 0.78079 0.08293 0.0
H317 H 0.49868 0.8624 0.80966 0.0
H318 H 0.5746 0.84552 0.95655 0.0
H319 H 0.50237 0.79613 0.9381 0.0
C320 C 0.52025 0.77207 0.01724 0.0
C321 C 0.54172 0.76766 0.0593 0.0
C322 C 0.55802 0.84904 0.92392 0.0
C323 C 0.53999 0.80886 0.96404 0.0
C324 C 0.55534 0.87135 0.88795 0.0
C325 C 0.53377 0.87673 0.84685 0.0
C326 C 0.53885 0.83194 0.91962 0.0
C327 C 0.51561 0.85891 0.84079 0.0
C328 C 0.51933 0.79267 0.96914 0.0
C329 C 0.56224 0.78375 0.05105 0.0
N330 N 0.51839 0.83734 0.87762 0.0
N331 N 0.56081 0.80374 0.00471 0.0
H332 H 0.75998 0.4801 0.08513 0.0
H333 H 0.6179 0.45211 0.97223 0.0
H334 H 0.70709 0.43118 0.21593 0.0
H335 H 0.67233 0.49581 0.82591 0.0
H336 H 0.65195 0.44173 0.0561 0.0
H337 H 0.72997 0.48391 0.98394 0.0
C338 C 0.74214 0.46995 0.09176 0.0
C339 C 0.73575 0.45533 0.15821 0.0
C340 C 0.65664 0.45342 0.00538 0.0
C341 C 0.70142 0.4597 0.04419 0.0
C342 C 0.63719 0.45935 0.95759 0.0
C343 C 0.64234 0.47502 0.89276 0.0
C344 C 0.68143 0.46345 0.98889 0.0
C345 C 0.66766 0.48371 0.8756 0.0
C346 C 0.72506 0.47211 0.03427 0.0
C347 C 0.71254 0.44262 0.16511 0.0
N348 N 0.68625 0.47805 0.92408 0.0
N349 N 0.69608 0.44522 0.10896 0.0
H350 H 0.97844 0.74656 0.90018 0.0
H351 H 0.96475 0.60705 0.90713 0.0
H352 H 0.92843 0.70427 0.06452 0.0
H353 H 0.00917 0.64791 0.72494 0.0
H354 H 0.95089 0.64302 0.9632 0.0
H355 H 0.98976 0.71133 0.83256 0.0
C356 C 0.96977 0.72984 0.92148 0.0
C357 C 0.95254 0.72805 0.98754 0.0
C358 C 0.96359 0.64425 0.9108 0.0
C359 C 0.96531 0.688 0.91168 0.0
C360 C 0.9716 0.62368 0.87893 0.0
C361 C 0.98838 0.6245 0.81178 0.0
C362 C 0.97249 0.66598 0.87573 0.0
C363 C 0.99623 0.64654 0.77682 0.0
C364 C 0.97618 0.7098 0.88309 0.0
C365 C 0.9418 0.7062 0.01354 0.0
N366 N 0.9884 0.66646 0.80961 0.0
N367 N 0.94842 0.687 0.97572 0.0
H368 H 0.06537 0.18484 0.51914 0.0
H369 H 0.01317 0.08791 0.72976 0.0
H370 H 0.00782 0.17517 0.36091 0.0
H371 H 0.99322 0.0697 0.50834 0.0
H372 H 0.01689 0.12889 0.68085 0.0
H373 H 0.04554 0.15295 0.60413 0.0
C374 C 0.04784 0.17669 0.50393 0.0
C375 C 0.03849 0.18233 0.43239 0.0
C376 C 0.01167 0.11598 0.64297 0.0
C377 C 0.01583 0.14552 0.52862 0.0
C378 C 0.00936 0.09254 0.67088 0.0
C379 C 1.00355 0.07523 0.62233 0.0
C380 C 0.00833 0.12215 0.56574 0.0
C381 C 0.99817 0.08239 0.54734 0.0
C382 C 0.0365 0.15833 0.55242 0.0
C383 C 0.0159 0.17098 0.41508 0.0
N384 N 1.00104 0.10531 0.52101 0.0
N385 N 0.00579 0.15263 0.46174 0.0
H386 H 0.34312 0.94981 0.41222 0.0
H387 H 0.43904 0.02712 0.61122 0.0
H388 H 0.32658 0.02042 0.4693 0.0
H389 H 0.44865 0.95232 0.60514 0.0
H390 H 0.39589 0.02364 0.56884 0.0
H391 H 0.37817 0.9481 0.49747 0.0
C392 C 0.34616 0.96456 0.44551 0.0
C393 C 0.33214 0.98536 0.43346 0.0
C394 C 0.40728 0.00791 0.57713 0.0
C395 C 0.37275 0.98393 0.52829 0.0
C396 C 0.43213 0.00991 0.60052 0.0
C397 C 0.44771 0.99 0.61065 0.0
C398 C 0.39785 0.98587 0.56242 0.0
C399 C 0.43742 0.96815 0.5972 0.0
C400 C 0.36637 0.96371 0.49335 0.0
C401 C 0.33693 0.00407 0.47713 0.0
N402 N 0.41321 0.9667 0.57286 0.0
N403 N 0.35728 0.00314 0.52119 0.0
H404 H 0.47364 0.32999 0.50147 0.0
H405 H 0.56878 0.43288 0.58599 0.0
H406 H 0.54741 0.34398 0.37268 0.0
H407 H 0.48641 0.4291 0.65021 0.0
H408 H 0.56638 0.39387 0.5367 0.0
H409 H 0.48449 0.3584 0.59065 0.0
C410 C 0.49256 0.33835 0.49375 0.0
C411 C 0.50947 0.33503 0.42901 0.0
C412 C 0.54896 0.40158 0.56243 0.0
C413 C 0.52164 0.36801 0.52899 0.0
C414 C 0.55029 0.42381 0.59007 0.0
C415 C 0.52767 0.4344 0.62054 0.0
C416 C 0.52494 0.38984 0.56695 0.0
C417 C 0.50424 0.42182 0.62553 0.0
C418 C 0.49861 0.35481 0.54399 0.0
C419 C 0.5337 0.34642 0.42142 0.0
N420 N 0.50349 0.40029 0.59881 0.0
N421 N 0.53887 0.36285 0.46986 0.0
H422 H 0.17732 0.56635 0.23712 0.0
H423 H 0.08494 0.48413 0.51777 0.0
H424 H 0.20093 0.49945 0.33779 0.0
H425 H 0.07463 0.55921 0.50824 0.0
H426 H 0.12591 0.48985 0.44062 0.0
H427 H 0.13926 0.56538 0.33083 0.0
C428 C 0.17487 0.55183 0.28052 0.0
C429 C 0.19215 0.53289 0.27975 0.0
C430 C 0.11473 0.5051 0.4554 0.0
C431 C 0.14853 0.53134 0.38463 0.0
C432 C 0.09111 0.50187 0.49872 0.0
C433 C 0.07626 0.52125 0.51968 0.0
C434 C 0.12356 0.52786 0.43157 0.0
C435 C 0.08543 0.54379 0.49322 0.0
C436 C 0.15314 0.55123 0.33348 0.0
C437 C 0.18815 0.51444 0.3367 0.0
N438 N 0.10854 0.5465 0.45012 0.0
N439 N 0.16645 0.51389 0.3859 0.0
H440 H 0.9759 0.82478 0.89004 0.0
H441 H 0.05031 0.9418 0.89444 0.0
H442 H 0.03712 0.83229 0.03803 0.0
H443 H 0.01314 0.92357 0.69631 0.0
H444 H 0.04981 0.90028 0.94057 0.0
H445 H 0.99399 0.8579 0.80664 0.0
C446 C 0.99379 0.83275 0.90329 0.0
C447 C 0.00463 0.82623 0.97208 0.0
C448 C 0.04223 0.90535 0.88624 0.0
C449 C 0.02477 0.86471 0.87896 0.0
C450 C 0.04237 0.92907 0.86021 0.0
C451 C 0.03126 0.93624 0.79234 0.0
C452 C 0.03052 0.88882 0.84468 0.0
C453 C 0.02151 0.91893 0.74974 0.0
C454 C 0.00397 0.85189 0.85613 0.0
C455 C 0.0278 0.83724 0.9864 0.0
N456 N 0.02093 0.89611 0.77731 0.0
N457 N 0.03664 0.85647 0.94168 0.0
H458 H 0.70878 0.98221 0.95529 0.0
H459 H 0.58434 0.05111 0.81913 0.0
H460 H 0.68966 0.05223 0.01385 0.0
H461 H 0.59614 0.9765 0.81492 0.0
H462 H 0.6278 0.05491 0.86314 0.0
H463 H 0.67397 0.98386 0.86933 0.0
C464 C 0.69801 0.99833 0.9473 0.0
C465 C 0.70186 0.01703 0.99197 0.0
C466 C 0.62085 0.03776 0.85206 0.0
C467 C 0.66145 0.01875 0.89653 0.0
C468 C 0.59601 0.03556 0.82753 0.0
C469 C 0.58641 0.01341 0.81455 0.0
C470 C 0.63625 0.01772 0.86272 0.0
C471 C 0.60252 0.99389 0.82536 0.0
C472 C 0.67782 0.99913 0.89936 0.0
C473 C 0.68711 0.03741 0.98042 0.0
N474 N 0.62657 0.9965 0.84892 0.0
N475 N 0.66715 0.03757 0.935 0.0
H476 H 0.48759 0.65464 0.07062 0.0
H477 H 0.55541 0.56815 0.79249 0.0
H478 H 0.56415 0.66598 0.95755 0.0
H479 H 0.47294 0.56515 0.85524 0.0
H480 H 0.55727 0.60627 0.84322 0.0
H481 H 0.47929 0.62541 0.9808 0.0
C482 C 0.5022 0.65163 0.02456 0.0
C483 C 0.52649 0.66268 0.02062 0.0
C484 C 0.53867 0.59748 0.8455 0.0
C485 C 0.5177 0.62874 0.92039 0.0
C486 C 0.53763 0.57553 0.81724 0.0
C487 C 0.51404 0.56325 0.82107 0.0
C488 C 0.51605 0.60719 0.8794 0.0
C489 C 0.49156 0.57394 0.85208 0.0
C490 C 0.49759 0.63481 0.97389 0.0
C491 C 0.5451 0.65792 0.96159 0.0
N492 N 0.49317 0.5952 0.88132 0.0
N493 N 0.5405 0.64095 0.91457 0.0
H494 H 0.84929 0.44498 0.11807 0.0
H495 H 0.96466 0.52612 0.91695 0.0
H496 H 0.85331 0.51996 0.12611 0.0
H497 H 0.95725 0.45343 0.87185 0.0
H498 H 0.92417 0.52303 -0.00261 0.0
H499 H 0.8876 0.44691 0.02496 0.0
C500 C 0.85777 0.4619 0.09822 0.0
C501 C 0.84832 0.48236 0.12951 0.0
C502 C 0.93133 0.50767 0.97022 0.0
C503 C 0.8923 0.48463 0.02591 0.0
C504 C 0.95464 0.50937 0.92475 0.0
C505 C 0.96433 0.49 0.88746 0.0
C506 C 0.91747 0.48643 0.97893 0.0
C507 C 0.95051 0.46875 0.89994 0.0
C508 C 0.87979 0.46297 0.04605 0.0
C509 C 0.86015 0.50381 0.10327 0.0
N510 N 0.92763 0.46753 0.94452 0.0
N511 N 0.8817 0.50435 0.05371 0.0
H512 H 0.04633 0.19043 0.13475 0.0
H513 H 0.10234 0.08209 0.93097 0.0
H514 H 0.11982 0.16526 0.20437 0.0
H515 H 0.02753 0.08206 0.06062 0.0
H516 H 0.11392 0.11791 0.98991 0.0
H517 H 0.04453 0.15773 0.05355 0.0
C518 C 0.06267 0.17863 0.12987 0.0
C519 C 0.08329 0.18046 0.17567 0.0
C520 C 0.09507 0.10983 0.0051 0.0
C521 C 0.08107 0.14297 0.08491 0.0
C522 C 0.08849 0.08932 0.97236 0.0
C523 C 0.06367 0.0792 0.98969 0.0
C524 C 0.07647 0.12039 0.05368 0.0
C525 C 0.04652 0.08954 0.04336 0.0
C526 C 0.06147 0.15988 0.08456 0.0
C527 C 0.10377 0.16444 0.16899 0.0
N528 N 0.05307 0.10976 0.07229 0.0
N529 N 0.10199 0.14598 0.12521 0.0
H530 H 0.34276 0.03608 0.12284 0.0
H531 H 0.46598 0.96883 0.94015 0.0
H532 H 0.3583 0.96266 0.1716 0.0
H533 H 0.45024 0.04153 0.87674 0.0
H534 H 0.42655 0.96688 0.02629 0.0
H535 H 0.38082 0.03866 0.02887 0.0
C536 C 0.35383 0.02041 0.11237 0.0
C537 C 0.34748 0.99914 0.15506 0.0
C538 C 0.4317 0.98332 -0.00613 0.0
C539 C 0.39126 0.00205 0.04965 0.0
C540 C 0.45438 0.9845 0.94498 0.0
C541 C 0.46149 0.00539 0.90106 0.0
C542 C 0.41583 0.00315 -0.00083 0.0
C543 C 0.44558 0.02509 0.90977 0.0
C544 C 0.37571 0.02194 0.05953 0.0
C545 C 0.36266 0.97943 0.14022 0.0
N546 N 0.42343 0.02347 0.95763 0.0
N547 N 0.38391 0.98141 0.08932 0.0
H548 H 0.52981 0.35061 0.14697 0.0
H549 H 0.45691 0.44674 0.89104 0.0
H550 H 0.44637 0.35462 0.16332 0.0
H551 H 0.53694 0.45094 0.94136 0.0
H552 H 0.45166 0.41107 0.97871 0.0
H553 H 0.53215 0.38415 0.05242 0.0
C554 C 0.51196 0.35837 0.12932 0.0
C555 C 0.48789 0.35004 0.16296 0.0
C556 C 0.47025 0.42 0.9707 0.0
C557 C 0.49033 0.38879 0.05628 0.0
C558 C 0.47321 0.44041 0.92132 0.0
C559 C 0.49744 0.45178 0.90859 0.0
C560 C 0.49174 0.41091 0.00656 0.0
C561 C 0.51795 0.44273 0.94886 0.0
C562 C 0.51326 0.37764 0.07602 0.0
C563 C 0.46528 0.36058 0.13819 0.0
N564 N 0.51467 0.42279 -0.00466 0.0
N565 N 0.46701 0.37968 0.08664 0.0
H566 H 0.20298 0.48199 0.01283 0.0
H567 H 0.08591 0.54478 0.8159 0.0
H568 H 0.19158 0.55669 0.98917 0.0
H569 H 0.0966 0.46976 0.82753 0.0
H570 H 0.12752 0.54921 0.86674 0.0
H571 H 0.16836 0.47697 0.92834 0.0
C572 C 0.19384 0.49737 0.98729 0.0
C573 C 0.19996 0.51978 0.00764 0.0
C574 C 0.12091 0.53174 0.85814 0.0
C575 C 0.16004 0.51422 0.91372 0.0
C576 C 0.09696 0.52915 0.82958 0.0
C577 C 0.08757 0.50681 0.81822 0.0
C578 C 0.13567 0.51184 0.87642 0.0
C579 C 0.103 0.48729 0.83615 0.0
C580 C 0.17388 0.4945 0.94003 0.0
C581 C 0.18733 0.53914 0.97457 0.0
N582 N 0.12627 0.49024 0.86497 0.0
N583 N 0.16771 0.53589 0.9301 0.0
H584 H 1.0012 0.82541 0.26163 0.0
H585 H 0.93528 0.92652 0.48157 0.0
H586 H 0.92275 0.84142 0.21171 0.0
H587 H 0.00854 0.93413 0.3444 0.0
H588 H 0.92682 0.89045 0.41924 0.0
H589 H 1.00076 0.85866 0.34097 0.0
C590 C 0.98353 0.83541 0.26999 0.0
C591 C 0.96203 0.83086 0.23011 0.0
C592 C 0.94456 0.90029 0.40284 0.0
C593 C 0.96157 0.86895 0.31921 0.0
C594 C 0.94933 0.92092 0.43757 0.0
C595 C 0.97292 0.93314 0.41921 0.0
C596 C 0.96376 0.89181 0.35109 0.0
C597 C 0.99047 0.92496 0.36211 0.0
C598 C 0.98339 0.85447 0.31433 0.0
C599 C 0.93963 0.84443 0.24207 0.0
N600 N 0.98576 0.9046 0.33126 0.0
N601 N 0.94005 0.86326 0.28493 0.0
H602 H 0.69216 0.96677 0.30314 0.0
H603 H 0.56849 0.03358 0.48541 0.0
H604 H 0.67605 0.04004 0.25395 0.0
H605 H 0.58426 0.96087 0.54854 0.0
H606 H 0.60799 0.03563 0.39966 0.0
H607 H 0.65406 0.96401 0.39718 0.0
C608 C 0.68097 0.98237 0.31359 0.0
C609 C 0.68717 0.00365 0.2708 0.0
C610 C 0.60284 0.01915 0.4319 0.0
C611 C 0.64337 1.00054 0.37621 0.0
C612 C 0.58011 0.01792 0.4806 0.0
C613 C 0.57298 0.99701 0.52433 0.0
C614 C 0.61874 0.99935 0.42658 0.0
C615 C 0.58892 0.97733 0.51562 0.0
C616 C 0.65907 0.98074 0.36645 0.0
C617 C 0.67183 0.02328 0.28553 0.0
N618 N 0.61114 0.979 0.46794 0.0
N619 N 0.65058 0.0212 0.33642 0.0
H620 H 0.524 0.66307 0.36068 0.0
H621 H 0.58443 0.54182 0.51144 0.0
H622 H 0.58253 0.62929 0.21879 0.0
H623 H 0.50347 0.55979 0.54806 0.0
H624 H 0.59129 0.57785 0.42502 0.0
H625 H 0.52482 0.62979 0.45701 0.0
C626 C 0.53754 0.64895 0.35094 0.0
C627 C 0.5531 0.64873 0.28189 0.0
C628 C 0.57211 0.57369 0.45228 0.0
C629 C 0.55399 0.61075 0.39078 0.0
C630 C 0.56816 0.55319 0.50099 0.0
C631 C 0.54331 0.54766 0.53627 0.0
C632 C 0.55123 0.58893 0.44126 0.0
C633 C 0.52291 0.56311 0.52148 0.0
C634 C 0.53783 0.62992 0.40534 0.0
C635 C 0.57013 0.6299 0.2714 0.0
N636 N 0.52738 0.58308 0.47578 0.0
N637 N 0.57003 0.61148 0.32517 0.0
H638 H 0.84289 0.52843 0.36781 0.0
H639 H 0.95001 0.46649 0.60307 0.0
H640 H 0.83857 0.45595 0.45498 0.0
H641 H 0.94513 0.54184 0.56762 0.0
H642 H 0.90758 0.46302 0.55543 0.0
H643 H 0.8771 0.53501 0.4517 0.0
C644 C 0.84851 0.51414 0.40698 0.0
C645 C 0.8381 0.4916 0.40458 0.0
C646 C 0.91565 0.48034 0.55841 0.0
C647 C 0.87775 0.49869 0.49805 0.0
C648 C 0.94007 0.48235 0.5848 0.0
C649 C 0.95132 0.50451 0.58835 0.0
C650 C 0.90239 0.50061 0.53425 0.0
C651 C 0.93729 0.52441 0.56506 0.0
C652 C 0.86819 0.51782 0.45422 0.0
C653 C 0.8461 0.47358 0.45554 0.0
N654 N 0.91362 0.52198 0.53821 0.0
N655 N 0.8659 0.47738 0.49907 0.0
loop_
_geom_bond_atom_site_label_1
_geom_bond_atom_site_label_2
_geom_bond_distance
_geom_bond_site_symmetry_2
_ccdc_geom_bond_type
H0 C3 0.929 . S
H1 C6 0.929 . S
H2 C8 0.930 . S
C3 H0 0.929 . S
C3 C4 1.398 . S
C3 C5 1.396 . S
C4 C3 1.398 . S
C4 C8 1.407 . S
C5 C3 1.396 . S
C5 C6 1.394 . S
C6 H1 0.929 . S
C6 C5 1.394 . S
C6 C7 1.382 . S
C7 C6 1.382 . S
C7 C8 1.392 . S
C7 N9 1.420 . S
C8 H2 0.930 . S
C8 C4 1.407 . S
C8 C7 1.392 . S
N9 C7 1.420 . S
N9 C10 1.244 . S
C10 N9 1.244 . S
H11 C14 0.929 . S
H12 C17 0.929 . S
H13 C19 0.930 . S
C14 H11 0.929 . S
C14 C15 1.398 . S
C14 C16 1.396 1_554 S
C15 C14 1.398 . S
C15 C19 1.407 . S
C16 C14 1.396 1_556 S
C16 C17 1.394 . S
C17 H12 0.929 . S
C17 C16 1.394 . S
C17 C18 1.382 1_556 S
C18 C17 1.382 1_554 S
C18 C19 1.392 . S
C18 N20 1.420 . S
C19 H13 0.930 . S
C19 C15 1.407 . S
C19 C18 1.392 . S
N20 C18 1.420 . S
N20 C21 1.244 1_554 S
C21 N20 1.244 1_556 S
H22 C25 0.929 . S
H23 C28 0.929 1_556 S
H24 C30 0.930 . S
C25 H22 0.929 . S
C25 C26 1.393 1_565 S
C25 C27 1.396 1_565 S
C26 C25 1.393 1_545 S
C26 C30 1.413 . S
C27 C25 1.396 1_545 S
C27 C28 1.396 . S
C28 H23 0.929 1_554 S
C28 C27 1.396 . S
C28 C29 1.382 . S
C29 C28 1.382 . S
C29 C30 1.392 . S
C29 N31 1.420 . S
C30 H24 0.930 . S
C30 C26 1.413 . S
C30 C29 1.392 . S
N31 C29 1.420 . S
N31 C32 1.230 1_545 S
C32 N31 1.230 1_565 S
H33 C36 0.929 . S
H34 C39 0.929 1_556 S
H35 C41 0.930 . S
C36 H33 0.929 . S
C36 C37 1.398 . S
C36 C38 1.396 . S
C37 C36 1.398 . S
C37 C41 1.407 . S
C38 C36 1.396 . S
C38 C39 1.394 . S
C39 H34 0.929 1_554 S
C39 C38 1.394 . S
C39 C40 1.382 . S
C40 C39 1.382 . S
C40 C41 1.392 . S
C40 N42 1.420 . S
C41 H35 0.930 . S
C41 C37 1.407 . S
C41 C40 1.392 . S
N42 C40 1.420 . S
N42 C43 1.244 . S
C43 N42 1.244 . S
H44 C47 0.929 . S
H45 C50 0.929 . S
H46 C52 0.930 . S
C47 H44 0.929 . S
C47 C48 1.398 . S
C47 C49 1.396 . S
C48 C47 1.398 . S
C48 C52 1.407 . S
C49 C47 1.396 . S
C49 C50 1.394 . S
C50 H45 0.929 . S
C50 C49 1.394 . S
C50 C51 1.382 . S
C51 C50 1.382 . S
C51 C52 1.392 . S
C51 N53 1.420 . S
C52 H46 0.930 . S
C52 C48 1.407 . S
C52 C51 1.392 . S
N53 C51 1.420 . S
N53 C54 1.244 . S
C54 N53 1.244 . S
H55 C58 0.929 . S
H56 C61 0.929 . S
H57 C63 0.930 . S
C58 H55 0.929 . S
C58 C59 1.398 . S
C58 C60 1.396 . S
C59 C58 1.398 . S
C59 C63 1.407 . S
C60 C58 1.396 . S
C60 C61 1.394 . S
C61 H56 0.929 . S
C61 C60 1.394 . S
C61 C62 1.382 . S
C62 C61 1.382 . S
C62 C63 1.392 . S
C62 N64 1.420 . S
C63 H57 0.930 . S
C63 C59 1.407 . S
C63 C62 1.392 . S
N64 C62 1.420 . S
N64 C65 1.244 . S
C65 N64 1.244 . S
H66 C69 0.929 . S
H67 C72 0.929 . S
H68 C74 0.930 . S
C69 H66 0.929 . S
C69 C70 1.397 1_565 S
C69 C71 1.392 1_565 S
C70 C69 1.397 1_545 S
C70 C74 1.416 . S
C71 C69 1.392 1_545 S
C71 C72 1.399 . S
C72 H67 0.929 . S
C72 C71 1.399 . S
C72 C73 1.382 . S
C73 C72 1.382 . S
C73 C74 1.392 . S
C73 N75 1.420 . S
C74 H68 0.930 . S
C74 C70 1.416 . S
C74 C73 1.392 . S
N75 C73 1.420 . S
N75 C76 1.238 1_545 S
C76 N75 1.238 1_565 S
H77 C80 0.929 . S
H78 C83 0.929 . S
H79 C85 0.930 . S
C80 H77 0.929 . S
C80 C81 1.398 . S
C80 C82 1.396 . S
C81 C80 1.398 . S
C81 C85 1.407 . S
C82 C80 1.396 . S
C82 C83 1.394 . S
C83 H78 0.929 . S
C83 C82 1.394 . S
C83 C84 1.382 . S
C84 C83 1.382 . S
C84 C85 1.392 . S
C84 N86 1.420 . S
C85 H79 0.930 . S
C85 C81 1.407 . S
C85 C84 1.392 . S
N86 C84 1.420 . S
N86 C87 1.244 . S
C87 N86 1.244 . S
C88 O104 1.251 . S
C88 O106 1.254 . S
N89 C90 1.343 . S
N89 C94 1.282 1_455 S
N89 Zn95 2.030 . S
C90 N89 1.343 . S
C90 C91 1.379 . S
C90 H108 0.952 . S
C91 C90 1.379 . S
C91 C92 1.390 1_455 S
C91 H118 0.949 . S
C92 C91 1.390 1_655 S
C92 C93 1.357 . S
C93 C92 1.357 . S
C93 C94 1.370 . S
C93 H119 0.950 . S
C94 N89 1.282 1_655 S
C94 C93 1.370 . S
C94 H112 0.948 . S
Zn95 N89 2.030 . S
Zn95 O104 2.039 . S
Zn95 O110 2.034 . S
Zn95 O114 2.025 1_565 S
Zn95 O116 2.024 1_455 S
C96 O115 1.246 . S
C96 O116 1.249 1_545 S
N97 C98 1.307 . S
N97 C99 1.333 . S
N97 Zn103 2.020 . S
C98 N97 1.307 . S
C98 C102 1.370 1_556 S
C98 H109 0.948 . S
C99 N97 1.333 . S
C99 C100 1.379 . S
C99 H107 0.952 . S
C100 C99 1.379 . S
C100 C101 1.390 1_556 S
C100 H120 0.949 . S
C101 C100 1.390 1_554 S
C101 C102 1.357 . S
C102 C98 1.370 1_554 S
C102 C101 1.357 . S
C102 H121 0.950 . S
Zn103 N97 2.020 . S
Zn103 O106 2.025 1_545 S
Zn103 O111 2.024 . S
Zn103 O113 2.039 . S
Zn103 O115 2.034 1_455 S
O104 C88 1.251 . S
O104 Zn95 2.039 . S
C105 O110 1.246 . S
C105 O111 1.249 1_565 S
O106 C88 1.254 . S
O106 Zn103 2.025 1_565 S
H107 C99 0.952 . S
H108 C90 0.952 . S
H109 C98 0.948 . S
O110 Zn95 2.034 . S
O110 C105 1.246 . S
O111 Zn103 2.024 . S
O111 C105 1.249 1_545 S
H112 C94 0.948 . S
O113 Zn103 2.039 . S
O113 C117 1.251 . S
O114 Zn95 2.025 1_545 S
O114 C117 1.254 . S
O115 C96 1.246 . S
O115 Zn103 2.034 1_655 S
O116 Zn95 2.024 1_655 S
O116 C96 1.249 1_565 S
C117 O113 1.251 . S
C117 O114 1.254 . S
H118 C91 0.949 . S
H119 C93 0.950 . S
H120 C100 0.949 . S
H121 C102 0.950 . S
C122 O138 1.251 1_565 S
C122 O140 1.254 . S
N123 C124 1.333 . S
N123 C128 1.307 . S
N123 Zn129 2.020 . S
C124 N123 1.333 . S
C124 C125 1.379 . S
C124 H142 0.952 . S
C125 C124 1.379 . S
C125 C126 1.390 . S
C125 H152 0.949 . S
C126 C125 1.390 . S
C126 C127 1.357 . S
C127 C126 1.357 . S
C127 C128 1.370 . S
C127 H153 0.950 . S
C128 N123 1.307 . S
C128 C127 1.370 . S
C128 H146 0.948 . S
Zn129 N123 2.020 . S
Zn129 O138 2.039 . S
Zn129 O144 2.034 . S
Zn129 O148 2.025 . S
Zn129 O150 2.024 . S
C130 O149 1.246 1_545 S
C130 O150 1.249 . S
N131 C132 1.307 . S
N131 C133 1.333 . S
N131 Zn137 2.020 . S
C132 N131 1.307 . S
C132 C136 1.370 . S
C132 H143 0.948 . S
C133 N131 1.333 . S
C133 C134 1.379 . S
C133 H141 0.952 . S
C134 C133 1.379 . S
C134 C135 1.390 . S
C134 H154 0.949 . S
C135 C134 1.390 . S
C135 C136 1.357 . S
C136 C132 1.370 . S
C136 C135 1.357 . S
C136 H155 0.950 . S
Zn137 N131 2.020 . S
Zn137 O140 2.025 . S
Zn137 O145 2.024 . S
Zn137 O147 2.039 . S
Zn137 O149 2.034 . S
O138 C122 1.251 1_545 S
O138 Zn129 2.039 . S
C139 O144 1.246 1_565 S
C139 O145 1.249 . S
O140 C122 1.254 . S
O140 Zn137 2.025 . S
H141 C133 0.952 . S
H142 C124 0.952 . S
H143 C132 0.948 . S
O144 Zn129 2.034 . S
O144 C139 1.246 1_545 S
O145 Zn137 2.024 . S
O145 C139 1.249 . S
H146 C128 0.948 . S
O147 Zn137 2.039 . S
O147 C151 1.251 1_565 S
O148 Zn129 2.025 . S
O148 C151 1.254 . S
O149 C130 1.246 1_565 S
O149 Zn137 2.034 . S
O150 Zn129 2.024 . S
O150 C130 1.249 . S
C151 O147 1.251 1_545 S
C151 O148 1.254 . S
H152 C125 0.949 . S
H153 C127 0.950 . S
H154 C134 0.949 . S
H155 C136 0.950 . S
C156 O172 1.251 . S
C156 O174 1.254 . S
N157 C158 1.333 . S
N157 C162 1.307 . S
N157 Zn163 2.020 . S
C158 N157 1.333 . S
C158 C159 1.379 . S
C158 H176 0.952 . S
C159 C158 1.379 . S
C159 C160 1.390 . S
C159 H186 0.949 . S
C160 C159 1.390 . S
C160 C161 1.357 . S
C161 C160 1.357 . S
C161 C162 1.370 . S
C161 H187 0.950 . S
C162 N157 1.307 . S
C162 C161 1.370 . S
C162 H180 0.948 . S
Zn163 N157 2.020 . S
Zn163 O172 2.039 . S
Zn163 O178 2.034 . S
Zn163 O182 2.025 . S
Zn163 O184 2.024 . S
C164 O183 1.246 . S
C164 O184 1.249 . S
N165 C166 1.307 . S
N165 C167 1.333 . S
N165 Zn171 2.020 . S
C166 N165 1.307 . S
C166 C170 1.370 . S
C166 H177 0.948 . S
C167 N165 1.333 . S
C167 C168 1.379 . S
C167 H175 0.952 . S
C168 C167 1.379 . S
C168 C169 1.390 . S
C168 H188 0.949 . S
C169 C168 1.390 . S
C169 C170 1.357 . S
C170 C166 1.370 . S
C170 C169 1.357 . S
C170 H189 0.950 . S
Zn171 N165 2.020 . S
Zn171 O174 2.025 . S
Zn171 O179 2.024 . S
Zn171 O181 2.039 . S
Zn171 O183 2.034 . S
O172 C156 1.251 . S
O172 Zn163 2.039 . S
C173 O178 1.246 . S
C173 O179 1.249 . S
O174 C156 1.254 . S
O174 Zn171 2.025 . S
H175 C167 0.952 . S
H176 C158 0.952 . S
H177 C166 0.948 . S
O178 Zn163 2.034 . S
O178 C173 1.246 . S
O179 Zn171 2.024 . S
O179 C173 1.249 . S
H180 C162 0.948 . S
O181 Zn171 2.039 . S
O181 C185 1.251 . S
O182 Zn163 2.025 . S
O182 C185 1.254 . S
O183 C164 1.246 . S
O183 Zn171 2.034 . S
O184 Zn163 2.024 . S
O184 C164 1.249 . S
C185 O181 1.251 . S
C185 O182 1.254 . S
H186 C159 0.949 . S
H187 C161 0.950 . S
H188 C168 0.949 . S
H189 C170 0.950 . S
C190 O206 1.251 . S
C190 O208 1.254 . S
N191 C192 1.333 . S
N191 C196 1.307 . S
N191 Zn197 2.020 . S
C192 N191 1.333 . S
C192 C193 1.379 . S
C192 H210 0.952 . S
C193 C192 1.379 . S
C193 C194 1.390 . S
C193 H220 0.949 . S
C194 C193 1.390 . S
C194 C195 1.357 . S
C195 C194 1.357 . S
C195 C196 1.370 . S
C195 H221 0.950 . S
C196 N191 1.307 . S
C196 C195 1.370 . S
C196 H214 0.948 . S
Zn197 N191 2.020 . S
Zn197 O206 2.039 . S
Zn197 O212 2.034 1_455 S
Zn197 O216 2.025 1_455 S
Zn197 O218 2.024 . S
C198 O217 1.246 . S
C198 O218 1.249 . S
N199 C200 1.307 . S
N199 C201 1.333 1_455 S
N199 Zn205 2.020 . S
C200 N199 1.307 . S
C200 C204 1.370 . S
C200 H211 0.948 . S
C201 N199 1.333 1_655 S
C201 C202 1.379 . S
C201 H209 0.952 . S
C202 C201 1.379 . S
C202 C203 1.390 1_655 S
C202 H222 0.949 . S
C203 C202 1.390 1_455 S
C203 C204 1.357 . S
C204 C200 1.370 . S
C204 C203 1.357 . S
C204 H223 0.950 . S
Zn205 N199 2.020 . S
Zn205 O208 2.025 . S
Zn205 O213 2.024 1_455 S
Zn205 O215 2.039 1_455 S
Zn205 O217 2.034 . S
O206 C190 1.251 . S
O206 Zn197 2.039 . S
C207 O212 1.246 . S
C207 O213 1.249 . S
O208 C190 1.254 . S
O208 Zn205 2.025 . S
H209 C201 0.952 . S
H210 C192 0.952 . S
H211 C200 0.948 . S
O212 Zn197 2.034 1_655 S
O212 C207 1.246 . S
O213 Zn205 2.024 1_655 S
O213 C207 1.249 . S
H214 C196 0.948 . S
O215 Zn205 2.039 1_655 S
O215 C219 1.251 . S
O216 Zn197 2.025 1_655 S
O216 C219 1.254 . S
O217 C198 1.246 . S
O217 Zn205 2.034 . S
O218 Zn197 2.024 . S
O218 C198 1.249 . S
C219 O215 1.251 . S
C219 O216 1.254 . S
H220 C193 0.949 . S
H221 C195 0.950 . S
H222 C202 0.949 . S
H223 C204 0.950 . S
H224 C230 0.930 . S
H225 C234 0.930 . S
H226 C239 0.929 . S
H227 C237 0.929 . S
H228 C232 0.929 . S
H229 C238 0.929 . S
C230 H224 0.930 . S
C230 C231 1.402 . S
C230 C238 1.378 . S
C231 C230 1.402 . S
C231 C239 1.397 1_565 S
C232 H228 0.929 . S
C232 C234 1.378 . S
C232 C236 1.350 1_545 S
C233 C236 1.463 . S
C233 C238 1.350 . S
C233 N241 1.427 1_565 S
C234 H225 0.930 . S
C234 C232 1.378 . S
C234 C235 1.367 1_545 S
C235 C234 1.367 1_565 S
C235 C237 1.433 . S
C236 C232 1.350 1_565 S
C236 C233 1.463 . S
C236 N240 1.427 . S
C237 H227 0.929 . S
C237 C235 1.433 . S
C237 N240 1.384 . S
C238 H229 0.929 . S
C238 C230 1.378 . S
C238 C233 1.350 . S
C239 H226 0.929 . S
C239 C231 1.397 1_545 S
C239 N241 1.384 . S
N240 C236 1.427 . S
N240 C237 1.384 . S
N241 C233 1.427 1_545 S
N241 C239 1.384 . S
H242 C248 0.930 . S
H243 C252 0.930 . S
H244 C257 0.929 . S
H245 C255 0.929 . S
H246 C250 0.929 . S
H247 C256 0.929 . S
C248 H242 0.930 . S
C248 C249 1.367 . S
C248 C256 1.378 . S
C249 C248 1.367 . S
C249 C257 1.433 . S
C250 H246 0.929 . S
C250 C252 1.378 . S
C250 C254 1.350 . S
C251 C254 1.463 . S
C251 C256 1.350 . S
C251 N259 1.427 . S
C252 H243 0.930 . S
C252 C250 1.378 . S
C252 C253 1.367 . S
C253 C252 1.367 . S
C253 C255 1.433 . S
C254 C250 1.350 . S
C254 C251 1.463 . S
C254 N258 1.427 . S
C255 H245 0.929 . S
C255 C253 1.433 . S
C255 N258 1.384 . S
C256 H247 0.929 . S
C256 C248 1.378 . S
C256 C251 1.350 . S
C257 H244 0.929 . S
C257 C249 1.433 . S
C257 N259 1.384 . S
N258 C254 1.427 . S
N258 C255 1.384 . S
N259 C251 1.427 . S
N259 C257 1.384 . S
H260 C266 0.930 . S
H261 C270 0.930 . S
H262 C275 0.929 . S
H263 C273 0.929 . S
H264 C268 0.929 . S
H265 C274 0.929 . S
C266 H260 0.930 . S
C266 C267 1.367 . S
C266 C274 1.378 . S
C267 C266 1.367 . S
C267 C275 1.433 . S
C268 H264 0.929 . S
C268 C270 1.378 . S
C268 C272 1.350 . S
C269 C272 1.463 . S
C269 C274 1.350 . S
C269 N277 1.427 . S
C270 H261 0.930 . S
C270 C268 1.378 . S
C270 C271 1.367 . S
C271 C270 1.367 . S
C271 C273 1.433 . S
C272 C268 1.350 . S
C272 C269 1.463 . S
C272 N276 1.427 . S
C273 H263 0.929 . S
C273 C271 1.433 . S
C273 N276 1.384 . S
C274 H265 0.929 . S
C274 C266 1.378 . S
C274 C269 1.350 . S
C275 H262 0.929 . S
C275 C267 1.433 . S
C275 N277 1.384 . S
N276 C272 1.427 . S
N276 C273 1.384 . S
N277 C269 1.427 . S
N277 C275 1.384 . S
H278 C284 0.930 . S
H279 C288 0.930 . S
H280 C293 0.929 . S
H281 C291 0.929 . S
H282 C286 0.929 . S
H283 C292 0.929 . S
C284 H278 0.930 . S
C284 C285 1.367 . S
C284 C292 1.378 . S
C285 C284 1.367 . S
C285 C293 1.433 . S
C286 H282 0.929 . S
C286 C288 1.378 . S
C286 C290 1.350 . S
C287 C290 1.463 . S
C287 C292 1.350 . S
C287 N295 1.427 . S
C288 H279 0.930 . S
C288 C286 1.378 . S
C288 C289 1.367 . S
C289 C288 1.367 . S
C289 C291 1.433 . S
C290 C286 1.350 . S
C290 C287 1.463 . S
C290 N294 1.427 . S
C291 H281 0.929 . S
C291 C289 1.433 . S
C291 N294 1.384 . S
C292 H283 0.929 . S
C292 C284 1.378 . S
C292 C287 1.350 . S
C293 H280 0.929 . S
C293 C285 1.433 . S
C293 N295 1.384 . S
N294 C290 1.427 . S
N294 C291 1.384 . S
N295 C287 1.427 . S
N295 C293 1.384 . S
H296 C302 0.930 1_554 S
H297 C306 0.930 . S
H298 C311 0.929 . S
H299 C309 0.929 . S
H300 C304 0.929 . S
H301 C310 0.929 . S
C302 H296 0.930 1_556 S
C302 C303 1.367 . S
C302 C310 1.378 . S
C303 C302 1.367 . S
C303 C311 1.433 1_545 S
C304 H300 0.929 . S
C304 C306 1.378 . S
C304 C308 1.350 1_565 S
C305 C308 1.463 . S
C305 C310 1.350 . S
C305 N313 1.427 1_545 S
C306 H297 0.930 . S
C306 C304 1.378 . S
C306 C307 1.367 1_565 S
C307 C306 1.367 1_545 S
C307 C309 1.433 . S
C308 C304 1.350 1_545 S
C308 C305 1.463 . S
C308 N312 1.427 . S
C309 H299 0.929 . S
C309 C307 1.433 . S
C309 N312 1.384 . S
C310 H301 0.929 . S
C310 C302 1.378 . S
C310 C305 1.350 . S
C311 H298 0.929 . S
C311 C303 1.433 1_565 S
C311 N313 1.384 . S
N312 C308 1.427 . S
N312 C309 1.384 . S
N313 C305 1.427 1_565 S
N313 C311 1.384 . S
H314 C320 0.930 . S
H315 C324 0.930 . S
H316 C329 0.929 . S
H317 C327 0.929 . S
H318 C322 0.929 . S
H319 C328 0.929 . S
C320 H314 0.930 . S
C320 C321 1.367 1_556 S
C320 C328 1.378 . S
C321 C320 1.367 1_554 S
C321 C329 1.433 . S
C322 H318 0.929 . S
C322 C324 1.378 . S
C322 C326 1.350 . S
C323 C326 1.463 . S
C323 C328 1.350 . S
C323 N331 1.427 . S
C324 H315 0.930 . S
C324 C322 1.378 . S
C324 C325 1.367 . S
C325 C324 1.367 . S
C325 C327 1.433 . S
C326 C322 1.350 . S
C326 C323 1.463 . S
C326 N330 1.427 . S
C327 H317 0.929 . S
C327 C325 1.433 . S
C327 N330 1.384 . S
C328 H319 0.929 . S
C328 C320 1.378 . S
C328 C323 1.350 . S
C329 H316 0.929 . S
C329 C321 1.433 . S
C329 N331 1.384 1_554 S
N330 C326 1.427 . S
N330 C327 1.384 . S
N331 C323 1.427 . S
N331 C329 1.384 1_556 S
H332 C338 0.930 . S
H333 C342 0.930 . S
H334 C347 0.929 . S
H335 C345 0.929 . S
H336 C340 0.929 1_554 S
H337 C346 0.929 . S
C338 H332 0.930 . S
C338 C339 1.367 1_556 S
C338 C346 1.378 . S
C339 C338 1.367 1_554 S
C339 C347 1.433 . S
C340 H336 0.929 1_556 S
C340 C342 1.378 . S
C340 C344 1.350 . S
C341 C344 1.463 . S
C341 C346 1.350 . S
C341 N349 1.427 1_556 S
C342 H333 0.930 . S
C342 C340 1.378 . S
C342 C343 1.367 . S
C343 C342 1.367 . S
C343 C345 1.433 . S
C344 C340 1.350 . S
C344 C341 1.463 . S
C344 N348 1.427 . S
C345 H335 0.929 . S
C345 C343 1.433 . S
C345 N348 1.384 . S
C346 H337 0.929 . S
C346 C338 1.378 . S
C346 C341 1.350 . S
C347 H334 0.929 . S
C347 C339 1.433 . S
C347 N349 1.384 . S
N348 C344 1.427 . S
N348 C345 1.384 . S
N349 C341 1.427 1_554 S
N349 C347 1.384 . S
H350 C356 0.930 1_455 S
H351 C360 0.930 . S
H352 C365 0.929 . S
H353 C363 0.929 . S
H354 C358 0.929 . S
H355 C364 0.922 1_455 S
C356 H350 0.930 1_655 S
C356 C357 1.367 . S
C356 C364 1.379 . S
C357 C356 1.367 . S
C357 C365 1.433 . S
C358 H354 0.929 . S
C358 C360 1.378 . S
C358 C362 1.350 . S
C359 C362 1.463 . S
C359 C364 1.355 . S
C359 N367 1.427 . S
C360 H351 0.930 . S
C360 C358 1.378 . S
C360 C361 1.367 . S
C361 C360 1.367 . S
C361 C363 1.433 1_655 S
C362 C358 1.350 . S
C362 C359 1.463 . S
C362 N366 1.427 1_655 S
C363 H353 0.929 . S
C363 C361 1.433 1_455 S
C363 N366 1.384 . S
C364 H355 0.922 1_655 S
C364 C356 1.379 . S
C364 C359 1.355 . S
C365 H352 0.929 . S
C365 C357 1.433 . S
C365 N367 1.384 . S
N366 C362 1.427 1_455 S
N366 C363 1.384 . S
N367 C359 1.427 . S
N367 C365 1.384 . S
H368 C374 0.930 . S
H369 C378 0.930 1_655 S
H370 C383 0.929 . S
H371 C381 0.929 . S
H372 C376 0.929 . S
H373 C382 0.929 . S
C374 H368 0.930 . S
C374 C375 1.367 . S
C374 C382 1.378 . S
C375 C374 1.367 . S
C375 C383 1.433 . S
C376 H372 0.929 . S
C376 C378 1.378 . S
C376 C380 1.350 . S
C377 C380 1.463 . S
C377 C382 1.350 . S
C377 N385 1.427 . S
C378 H369 0.930 1_455 S
C378 C376 1.378 . S
C378 C379 1.367 . S
C379 C378 1.367 . S
C379 C381 1.433 . S
C380 C376 1.350 . S
C380 C377 1.463 . S
C380 N384 1.427 . S
C381 H371 0.929 . S
C381 C379 1.433 . S
C381 N384 1.384 . S
C382 H373 0.929 . S
C382 C374 1.378 . S
C382 C377 1.350 . S
C383 H370 0.929 . S
C383 C375 1.433 . S
C383 N385 1.384 . S
N384 C380 1.427 . S
N384 C381 1.384 . S
N385 C377 1.427 . S
N385 C383 1.384 . S
H386 C392 0.930 . S
H387 C396 0.930 . S
H388 C401 0.929 . S
H389 C399 0.929 . S
H390 C394 0.929 . S
H391 C400 0.929 . S
C392 H386 0.930 . S
C392 C393 1.381 . S
C392 C400 1.378 . S
C393 C392 1.381 . S
C393 C401 1.419 1_565 S
C394 H390 0.929 . S
C394 C396 1.378 . S
C394 C398 1.350 1_545 S
C395 C398 1.463 . S
C395 C400 1.350 . S
C395 N403 1.427 1_565 S
C396 H387 0.930 . S
C396 C394 1.378 . S
C396 C397 1.367 1_545 S
C397 C396 1.367 1_565 S
C397 C399 1.433 . S
C398 C394 1.350 1_565 S
C398 C395 1.463 . S
C398 N402 1.427 . S
C399 H389 0.929 . S
C399 C397 1.433 . S
C399 N402 1.384 . S
C400 H391 0.929 . S
C400 C392 1.378 . S
C400 C395 1.350 . S
C401 H388 0.929 . S
C401 C393 1.419 1_545 S
C401 N403 1.384 . S
N402 C398 1.427 . S
N402 C399 1.384 . S
N403 C395 1.427 1_545 S
N403 C401 1.384 . S
H404 C410 0.930 . S
H405 C414 0.930 . S
H406 C419 0.929 . S
H407 C417 0.929 . S
H408 C412 0.929 . S
H409 C418 0.929 . S
C410 H404 0.930 . S
C410 C411 1.367 . S
C410 C418 1.378 . S
C411 C410 1.367 . S
C411 C419 1.433 . S
C412 H408 0.929 . S
C412 C414 1.378 . S
C412 C416 1.350 . S
C413 C416 1.463 . S
C413 C418 1.350 . S
C413 N421 1.427 . S
C414 H405 0.930 . S
C414 C412 1.378 . S
C414 C415 1.367 . S
C415 C414 1.367 . S
C415 C417 1.433 . S
C416 C412 1.350 . S
C416 C413 1.463 . S
C416 N420 1.427 . S
C417 H407 0.929 . S
C417 C415 1.433 . S
C417 N420 1.384 . S
C418 H409 0.929 . S
C418 C410 1.378 . S
C418 C413 1.350 . S
C419 H406 0.929 . S
C419 C411 1.433 . S
C419 N421 1.384 . S
N420 C416 1.427 . S
N420 C417 1.384 . S
N421 C413 1.427 . S
N421 C419 1.384 . S
H422 C428 0.930 . S
H423 C432 0.930 . S
H424 C437 0.929 . S
H425 C435 0.929 . S
H426 C430 0.929 . S
H427 C436 0.929 . S
C428 H422 0.930 . S
C428 C429 1.367 . S
C428 C436 1.378 . S
C429 C428 1.367 . S
C429 C437 1.433 . S
C430 H426 0.929 . S
C430 C432 1.378 . S
C430 C434 1.350 . S
C431 C434 1.463 . S
C431 C436 1.350 . S
C431 N439 1.427 . S
C432 H423 0.930 . S
C432 C430 1.378 . S
C432 C433 1.367 . S
C433 C432 1.367 . S
C433 C435 1.433 . S
C434 C430 1.350 . S
C434 C431 1.463 . S
C434 N438 1.427 . S
C435 H425 0.929 . S
C435 C433 1.433 . S
C435 N438 1.384 . S
C436 H427 0.929 . S
C436 C428 1.378 . S
C436 C431 1.350 . S
C437 H424 0.929 . S
C437 C429 1.433 . S
C437 N439 1.384 . S
N438 C434 1.427 . S
N438 C435 1.384 . S
N439 C431 1.427 . S
N439 C437 1.384 . S
H440 C446 0.930 . S
H441 C450 0.930 . S
H442 C455 0.929 1_554 S
H443 C453 0.929 . S
H444 C448 0.929 . S
H445 C454 0.929 . S
C446 H440 0.930 . S
C446 C447 1.367 . S
C446 C454 1.378 . S
C447 C446 1.367 . S
C447 C455 1.433 . S
C448 H444 0.929 . S
C448 C450 1.378 . S
C448 C452 1.350 1_455 S
C449 C452 1.463 . S
C449 C454 1.350 . S
C449 N457 1.427 . S
C450 H441 0.930 . S
C450 C448 1.378 . S
C450 C451 1.367 . S
C451 C450 1.367 . S
C451 C453 1.433 1_455 S
C452 C448 1.350 1_655 S
C452 C449 1.463 . S
C452 N456 1.427 . S
C453 H443 0.929 . S
C453 C451 1.433 1_655 S
C453 N456 1.384 . S
C454 H445 0.929 . S
C454 C446 1.378 . S
C454 C449 1.350 . S
C455 H442 0.929 1_556 S
C455 C447 1.433 . S
C455 N457 1.384 . S
N456 C452 1.427 . S
N456 C453 1.384 . S
N457 C449 1.427 . S
N457 C455 1.384 . S
H458 C464 0.930 . S
H459 C468 0.930 . S
H460 C473 0.929 . S
H461 C471 0.929 . S
H462 C466 0.929 . S
H463 C472 0.929 . S
C464 H458 0.930 . S
C464 C465 1.371 . S
C464 C472 1.378 1_554 S
C465 C464 1.371 . S
C465 C473 1.429 1_564 S
C466 H462 0.929 . S
C466 C468 1.378 . S
C466 C470 1.350 . S
C467 C470 1.463 . S
C467 C472 1.350 1_545 S
C467 N475 1.427 . S
C468 H459 0.930 . S
C468 C466 1.378 . S
C468 C469 1.367 . S
C469 C468 1.367 . S
C469 C471 1.433 1_545 S
C470 C466 1.350 . S
C470 C467 1.463 . S
C470 N474 1.427 1_545 S
C471 H461 0.929 . S
C471 C469 1.433 1_565 S
C471 N474 1.384 . S
C472 H463 0.929 . S
C472 C464 1.378 1_556 S
C472 C467 1.350 1_565 S
C473 H460 0.929 . S
C473 C465 1.429 1_546 S
C473 N475 1.384 . S
N474 C470 1.427 1_565 S
N474 C471 1.384 . S
N475 C467 1.427 . S
N475 C473 1.384 . S
H476 C482 0.930 . S
H477 C486 0.930 . S
H478 C491 0.929 . S
H479 C489 0.929 . S
H480 C484 0.929 . S
H481 C490 0.929 . S
C482 H476 0.930 . S
C482 C483 1.367 1_556 S
C482 C490 1.378 . S
C483 C482 1.367 1_554 S
C483 C491 1.433 . S
C484 H480 0.929 . S
C484 C486 1.378 . S
C484 C488 1.350 . S
C485 C488 1.463 . S
C485 C490 1.350 . S
C485 N493 1.427 . S
C486 H477 0.930 . S
C486 C484 1.378 . S
C486 C487 1.367 . S
C487 C486 1.367 . S
C487 C489 1.433 . S
C488 C484 1.350 . S
C488 C485 1.463 . S
C488 N492 1.427 . S
C489 H479 0.929 . S
C489 C487 1.433 . S
C489 N492 1.384 . S
C490 H481 0.929 . S
C490 C482 1.378 . S
C490 C485 1.350 . S
C491 H478 0.929 . S
C491 C483 1.433 . S
C491 N493 1.384 1_554 S
N492 C488 1.427 . S
N492 C489 1.384 . S
N493 C485 1.427 . S
N493 C491 1.384 1_556 S
H494 C500 0.930 . S
H495 C504 0.930 . S
H496 C509 0.929 . S
H497 C507 0.929 . S
H498 C502 0.929 . S
H499 C508 0.929 . S
C500 H494 0.930 . S
C500 C501 1.367 . S
C500 C508 1.378 1_554 S
C501 C500 1.367 . S
C501 C509 1.433 . S
C502 H498 0.929 . S
C502 C504 1.378 . S
C502 C506 1.350 . S
C503 C506 1.463 . S
C503 C508 1.350 . S
C503 N511 1.427 1_556 S
C504 H495 0.930 . S
C504 C502 1.378 . S
C504 C505 1.367 . S
C505 C504 1.367 . S
C505 C507 1.433 . S
C506 C502 1.350 . S
C506 C503 1.463 . S
C506 N510 1.427 . S
C507 H497 0.929 . S
C507 C505 1.433 . S
C507 N510 1.384 . S
C508 H499 0.929 . S
C508 C500 1.378 1_556 S
C508 C503 1.350 . S
C509 H496 0.929 . S
C509 C501 1.433 . S
C509 N511 1.384 . S
N510 C506 1.427 . S
N510 C507 1.384 . S
N511 C503 1.427 1_554 S
N511 C509 1.384 . S
H512 C518 0.930 . S
H513 C522 0.930 1_556 S
H514 C527 0.929 . S
H515 C525 0.929 . S
H516 C520 0.929 . S
H517 C526 0.929 . S
C518 H512 0.930 . S
C518 C519 1.367 . S
C518 C526 1.378 . S
C519 C518 1.367 . S
C519 C527 1.433 . S
C520 H516 0.929 . S
C520 C522 1.378 . S
C520 C524 1.350 . S
C521 C524 1.463 . S
C521 C526 1.350 . S
C521 N529 1.427 . S
C522 H513 0.930 1_554 S
C522 C520 1.378 . S
C522 C523 1.367 . S
C523 C522 1.367 . S
C523 C525 1.433 . S
C524 C520 1.350 . S
C524 C521 1.463 . S
C524 N528 1.427 . S
C525 H515 0.929 . S
C525 C523 1.433 . S
C525 N528 1.384 . S
C526 H517 0.929 . S
C526 C518 1.378 . S
C526 C521 1.350 . S
C527 H514 0.929 . S
C527 C519 1.433 . S
C527 N529 1.384 . S
N528 C524 1.427 . S
N528 C525 1.384 . S
N529 C521 1.427 . S
N529 C527 1.384 . S
H530 C536 0.930 . S
H531 C540 0.930 . S
H532 C545 0.929 . S
H533 C543 0.929 . S
H534 C538 0.929 . S
H535 C544 0.929 . S
C536 H530 0.930 . S
C536 C537 1.393 . S
C536 C544 1.378 . S
C537 C536 1.393 . S
C537 C545 1.407 1_545 S
C538 H534 0.929 . S
C538 C540 1.378 1_554 S
C538 C542 1.350 1_565 S
C539 C542 1.463 . S
C539 C544 1.350 . S
C539 N547 1.427 1_545 S
C540 H531 0.930 . S
C540 C538 1.378 1_556 S
C540 C541 1.367 1_565 S
C541 C540 1.367 1_545 S
C541 C543 1.433 . S
C542 C538 1.350 1_545 S
C542 C539 1.463 . S
C542 N546 1.427 1_554 S
C543 H533 0.929 . S
C543 C541 1.433 . S
C543 N546 1.384 . S
C544 H535 0.929 . S
C544 C536 1.378 . S
C544 C539 1.350 . S
C545 H532 0.929 . S
C545 C537 1.407 1_565 S
C545 N547 1.384 . S
N546 C542 1.427 1_556 S
N546 C543 1.384 . S
N547 C539 1.427 1_565 S
N547 C545 1.384 . S
H548 C554 0.930 . S
H549 C558 0.930 . S
H550 C563 0.929 . S
H551 C561 0.929 . S
H552 C556 0.929 . S
H553 C562 0.929 . S
C554 H548 0.930 . S
C554 C555 1.367 . S
C554 C562 1.378 . S
C555 C554 1.367 . S
C555 C563 1.433 . S
C556 H552 0.929 . S
C556 C558 1.378 . S
C556 C560 1.350 1_556 S
C557 C560 1.463 . S
C557 C562 1.350 . S
C557 N565 1.427 . S
C558 H549 0.930 . S
C558 C556 1.378 . S
C558 C559 1.367 . S
C559 C558 1.367 . S
C559 C561 1.433 . S
C560 C556 1.350 1_554 S
C560 C557 1.463 . S
C560 N564 1.427 . S
C561 H551 0.929 . S
C561 C559 1.433 . S
C561 N564 1.384 1_556 S
C562 H553 0.929 . S
C562 C554 1.378 . S
C562 C557 1.350 . S
C563 H550 0.929 . S
C563 C555 1.433 . S
C563 N565 1.384 . S
N564 C560 1.427 . S
N564 C561 1.384 1_554 S
N565 C557 1.427 . S
N565 C563 1.384 . S
H566 C572 0.930 . S
H567 C576 0.930 . S
H568 C581 0.929 . S
H569 C579 0.929 . S
H570 C574 0.929 . S
H571 C580 0.929 . S
C572 H566 0.930 . S
C572 C573 1.367 . S
C572 C580 1.378 . S
C573 C572 1.367 . S
C573 C581 1.433 . S
C574 H570 0.929 . S
C574 C576 1.378 . S
C574 C578 1.350 . S
C575 C578 1.463 1_554 S
C575 C580 1.350 . S
C575 N583 1.427 . S
C576 H567 0.930 . S
C576 C574 1.378 . S
C576 C577 1.367 . S
C577 C576 1.367 . S
C577 C579 1.433 . S
C578 C574 1.350 . S
C578 C575 1.463 1_556 S
C578 N582 1.427 . S
C579 H569 0.929 . S
C579 C577 1.433 . S
C579 N582 1.384 . S
C580 H571 0.929 . S
C580 C572 1.378 . S
C580 C575 1.350 . S
C581 H568 0.929 . S
C581 C573 1.433 . S
C581 N583 1.384 . S
N582 C578 1.427 . S
N582 C579 1.384 . S
N583 C575 1.427 . S
N583 C581 1.384 . S
H584 C590 0.930 . S
H585 C594 0.930 . S
H586 C599 0.929 . S
H587 C597 0.929 . S
H588 C592 0.929 . S
H589 C598 0.929 . S
C590 H584 0.930 . S
C590 C591 1.367 . S
C590 C598 1.378 . S
C591 C590 1.367 . S
C591 C599 1.433 . S
C592 H588 0.929 . S
C592 C594 1.378 . S
C592 C596 1.350 . S
C593 C596 1.463 . S
C593 C598 1.350 . S
C593 N601 1.427 . S
C594 H585 0.930 . S
C594 C592 1.378 . S
C594 C595 1.367 . S
C595 C594 1.367 . S
C595 C597 1.433 . S
C596 C592 1.350 . S
C596 C593 1.463 . S
C596 N600 1.427 . S
C597 H587 0.929 . S
C597 C595 1.433 . S
C597 N600 1.384 . S
C598 H589 0.929 . S
C598 C590 1.378 . S
C598 C593 1.350 . S
C599 H586 0.929 . S
C599 C591 1.433 . S
C599 N601 1.384 . S
N600 C596 1.427 . S
N600 C597 1.384 . S
N601 C593 1.427 . S
N601 C599 1.384 . S
H602 C608 0.930 . S
H603 C612 0.936 . S
H604 C617 0.929 . S
H605 C615 0.929 . S
H606 C610 0.929 . S
H607 C616 0.929 . S
C608 H602 0.930 . S
C608 C609 1.369 . S
C608 C616 1.378 . S
C609 C608 1.369 . S
C609 C617 1.431 1_565 S
C610 H606 0.929 . S
C610 C612 1.377 . S
C610 C614 1.350 1_545 S
C611 C614 1.463 . S
C611 C616 1.350 . S
C611 N619 1.427 1_565 S
C612 H603 0.936 . S
C612 C610 1.377 . S
C612 C613 1.363 1_545 S
C613 C612 1.363 1_565 S
C613 C615 1.433 . S
C614 C610 1.350 1_565 S
C614 C611 1.463 . S
C614 N618 1.427 . S
C615 H605 0.929 . S
C615 C613 1.433 . S
C615 N618 1.384 . S
C616 H607 0.929 . S
C616 C608 1.378 . S
C616 C611 1.350 . S
C617 H604 0.929 . S
C617 C609 1.431 1_545 S
C617 N619 1.384 . S
N618 C614 1.427 . S
N618 C615 1.384 . S
N619 C611 1.427 1_545 S
N619 C617 1.384 . S
H620 C626 0.930 . S
H621 C630 0.930 . S
H622 C635 0.929 . S
H623 C633 0.929 . S
H624 C628 0.929 . S
H625 C634 0.929 . S
C626 H620 0.930 . S
C626 C627 1.367 . S
C626 C634 1.378 . S
C627 C626 1.367 . S
C627 C635 1.433 . S
C628 H624 0.929 . S
C628 C630 1.378 . S
C628 C632 1.350 . S
C629 C632 1.463 . S
C629 C634 1.350 . S
C629 N637 1.427 . S
C630 H621 0.930 . S
C630 C628 1.378 . S
C630 C631 1.367 . S
C631 C630 1.367 . S
C631 C633 1.433 . S
C632 C628 1.350 . S
C632 C629 1.463 . S
C632 N636 1.427 . S
C633 H623 0.929 . S
C633 C631 1.433 . S
C633 N636 1.384 . S
C634 H625 0.929 . S
C634 C626 1.378 . S
C634 C629 1.350 . S
C635 H622 0.929 . S
C635 C627 1.433 . S
C635 N637 1.384 . S
N636 C632 1.427 . S
N636 C633 1.384 . S
N637 C629 1.427 . S
N637 C635 1.384 . S
H638 C644 0.930 . S
H639 C648 0.930 . S
H640 C653 0.929 . S
H641 C651 0.929 . S
H642 C646 0.929 . S
H643 C652 0.929 . S
C644 H638 0.930 . S
C644 C645 1.367 . S
C644 C652 1.378 . S
C645 C644 1.367 . S
C645 C653 1.433 . S
C646 H642 0.929 . S
C646 C648 1.378 . S
C646 C650 1.350 . S
C647 C650 1.463 . S
C647 C652 1.350 . S
C647 N655 1.427 . S
C648 H639 0.930 . S
C648 C646 1.378 . S
C648 C649 1.367 . S
C649 C648 1.367 . S
C649 C651 1.433 . S
C650 C646 1.350 . S
C650 C647 1.463 . S
C650 N654 1.427 . S
C651 H641 0.929 . S
C651 C649 1.433 . S
C651 N654 1.384 . S
C652 H643 0.929 . S
C652 C644 1.378 . S
C652 C647 1.350 . S
C653 H640 0.929 . S
C653 C645 1.433 . S
C653 N655 1.384 . S
N654 C650 1.427 . S
N654 C651 1.384 . S
N655 C647 1.427 . S
N655 C653 1.384 . S
C231 C76 1.851 . S
C235 C105 1.875 . S
C253 C126 1.544 . S
C249 C87 1.516 . S
C271 C160 1.380 . S
C267 C54 1.351 . S
C289 C194 1.541 . S
C285 C65 1.521 . S
C307 C96 1.875 . S
C303 C32 1.852 1_546 S
C321 C43 1.521 . S
C325 C135 1.547 . S
C339 C10 1.338 . S
C343 C169 1.372 . S
C357 C21 1.526 . S
C361 C203 1.543 1_655 S
C379 C117 0.507 . S
C375 C60 0.571 . S
C397 C122 0.984 . S
C393 C71 0.965 1_565 S
C415 C156 0.911 . S
C411 C82 0.894 . S
C429 C49 0.405 . S
C433 C190 0.390 . S
C447 C16 0.621 . S
C451 C88 0.532 . S
C469 C151 0.988 . S
C465 C27 0.964 1_565 S
C487 C185 0.904 . S
C483 C38 0.897 . S
C501 C5 0.421 . S
C505 C219 0.387 . S
C519 C59 1.286 . S
C523 C101 1.321 . S
C537 C70 1.715 . S
C541 C130 1.760 . S
C559 C164 1.551 . S
C555 C81 1.512 . S
C577 C198 1.612 . S
C573 C48 1.557 . S
C591 C15 1.279 . S
C595 C92 1.326 . S
C613 C139 1.760 . S
C609 C26 1.721 1_565 S
C631 C173 1.551 . S
C627 C37 1.517 . S
C645 C4 1.571 . S
C649 C207 1.612 . S
