# Generated by pormake.
# Topology zzz, (3,6)-cn, num edge types: 1
# Building blocks:
#     Node 0, Type 0, BuildingBlock: VETTIZ_charged_linker_0, # of connection points: 3
#     Node 1, Type 0, BuildingBlock: VETTIZ_charged_linker_0, # of connection points: 3
#     Node 2, Type 0, BuildingBlock: VETTIZ_charged_linker_0, # of connection points: 3
#     Node 3, Type 0, BuildingBlock: VETTIZ_charged_linker_0, # of connection points: 3
#     Node 4, Type 0, BuildingBlock: VETTIZ_charged_linker_0, # of connection points: 3
#     Node 5, Type 0, BuildingBlock: VETTIZ_charged_linker_0, # of connection points: 3
#     Node 6, Type 0, BuildingBlock: VETTIZ_charged_linker_0, # of connection points: 3
#     Node 7, Type 0, BuildingBlock: VETTIZ_charged_linker_0, # of connection points: 3
#     Node 8, Type 1, BuildingBlock: CUKXOW_clean_sbu_0, # of connection points: 6
#     Node 9, Type 1, BuildingBlock: CUKXOW_clean_sbu_0, # of connection points: 6
#     Node 10, Type 1, BuildingBlock: CUKXOW_clean_sbu_0, # of connection points: 6
#     Node 11, Type 1, BuildingBlock: CUKXOW_clean_sbu_0, # of connection points: 6
#     Edge 12, Type (0, 1), BuildingBlock: XIVTED_clean_linker_0, # of connection points: 2
#     Edge 13, Type (0, 1), BuildingBlock: XIVTED_clean_linker_0, # of connection points: 2
#     Edge 14, Type (0, 1), BuildingBlock: XIVTED_clean_linker_0, # of connection points: 2
#     Edge 15, Type (0, 1), BuildingBlock: XIVTED_clean_linker_0, # of connection points: 2
#     Edge 16, Type (0, 1), BuildingBlock: XIVTED_clean_linker_0, # of connection points: 2
#     Edge 17, Type (0, 1), BuildingBlock: XIVTED_clean_linker_0, # of connection points: 2
#     Edge 18, Type (0, 1), BuildingBlock: XIVTED_clean_linker_0, # of connection points: 2
#     Edge 19, Type (0, 1), BuildingBlock: XIVTED_clean_linker_0, # of connection points: 2
#     Edge 20, Type (0, 1), BuildingBlock: XIVTED_clean_linker_0, # of connection points: 2
#     Edge 21, Type (0, 1), BuildingBlock: XIVTED_clean_linker_0, # of connection points: 2
#     Edge 22, Type (0, 1), BuildingBlock: XIVTED_clean_linker_0, # of connection points: 2
#     Edge 23, Type (0, 1), BuildingBlock: XIVTED_clean_linker_0, # of connection points: 2
#     Edge 24, Type (0, 1), BuildingBlock: XIVTED_clean_linker_0, # of connection points: 2
#     Edge 25, Type (0, 1), BuildingBlock: XIVTED_clean_linker_0, # of connection points: 2
#     Edge 26, Type (0, 1), BuildingBlock: XIVTED_clean_linker_0, # of connection points: 2
#     Edge 27, Type (0, 1), BuildingBlock: XIVTED_clean_linker_0, # of connection points: 2
#     Edge 28, Type (0, 1), BuildingBlock: XIVTED_clean_linker_0, # of connection points: 2
#     Edge 29, Type (0, 1), BuildingBlock: XIVTED_clean_linker_0, # of connection points: 2
#     Edge 30, Type (0, 1), BuildingBlock: XIVTED_clean_linker_0, # of connection points: 2
#     Edge 31, Type (0, 1), BuildingBlock: XIVTED_clean_linker_0, # of connection points: 2
#     Edge 32, Type (0, 1), BuildingBlock: XIVTED_clean_linker_0, # of connection points: 2
#     Edge 33, Type (0, 1), BuildingBlock: XIVTED_clean_linker_0, # of connection points: 2
#     Edge 34, Type (0, 1), BuildingBlock: XIVTED_clean_linker_0, # of connection points: 2
#     Edge 35, Type (0, 1), BuildingBlock: XIVTED_clean_linker_0, # of connection points: 2
# Relax obj value: 0.220
# Max RMSD: 0.235
# Mean RMSD: 0.190
data_MOF--net-zzz--node1-CUKXOW_clean_sbu_0--node2-VETTIZ_charged_linker_0--edge1-XIVTED_clean_linker_0
_symmetry_space_group_name_H-M    P1
_symmetry_Int_Tables_number       1
_symmetry_cell_setting            triclinic
loop_
_symmetry_equiv_pos_as_xyz
'x, y, z'
_cell_length_a     58.015077
_cell_length_b     56.743772
_cell_length_c     20.494125
_cell_angle_alpha  92.576057
_cell_angle_beta   88.057922
_cell_angle_gamma 95.438698
loop_
_atom_site_label
_atom_site_type_symbol
_atom_site_fract_x
_atom_site_fract_y
_atom_site_fract_z
_atom_type_partial_charge
C0 C 0.78823 0.46273 0.30666 0.0
C1 C 0.80768 0.45215 0.32733 0.0
C2 C 0.81657 0.43401 0.28772 0.0
C3 C 0.79017 0.44035 0.20333 0.0
C4 C 0.77929 0.45595 0.24475 0.0
C5 C 0.75795 0.46361 0.21409 0.0
H6 H 0.69483 0.4633 0.93822 0.0
C7 C 0.77951 0.43958 0.13926 0.0
C8 C 0.75999 0.45246 0.14511 0.0
H9 H 0.67491 0.4888 0.13141 0.0
H10 H 0.71187 0.4795 0.17271 0.0
H11 H 0.74435 0.48799 0.94125 0.0
H12 H 0.71713 0.41666 0.97449 0.0
H13 H 0.74208 0.41605 0.92259 0.0
H14 H 0.71798 0.43081 0.89759 0.0
H15 H 0.74292 0.46596 0.87596 0.0
H16 H 0.76821 0.47153 0.92544 0.0
C17 C 0.75972 0.49093 0.21388 0.0
C18 C 0.73639 0.45263 0.25222 0.0
C19 C 0.82883 0.41792 0.94179 0.0
C20 C 0.82731 0.42306 0.87589 0.0
C21 C 0.80609 0.42882 0.85268 0.0
C22 C 0.78712 0.43116 0.89589 0.0
C23 C 0.78974 0.42862 0.96315 0.0
C24 C 0.81016 0.42149 0.9849 0.0
C25 C 0.81091 0.42206 0.05824 0.0
C26 C 0.78791 0.43181 0.07689 0.0
C27 C 0.77562 0.43541 0.02112 0.0
C28 C 0.83196 0.43937 0.07914 0.0
C29 C 0.81183 0.39637 0.0804 0.0
C30 C 0.69844 0.46681 0.98947 0.0
C31 C 0.68202 0.47637 0.03196 0.0
C32 C 0.68739 0.48127 0.09805 0.0
C33 C 0.70862 0.47558 0.12194 0.0
C34 C 0.72449 0.46497 0.07905 0.0
C35 C 0.71937 0.46129 0.01371 0.0
C36 C 0.73839 0.45092 0.97403 0.0
C37 C 0.75479 0.44661 0.02718 0.0
C38 C 0.74691 0.45518 0.0887 0.0
C39 C 0.74902 0.4699 0.92642 0.0
C40 C 0.72848 0.42739 0.9399 0.0
H41 H 0.81569 0.41455 0.19731 0.0
H42 H 0.78053 0.47609 0.33738 0.0
H43 H 0.73934 0.43491 0.2697 0.0
H44 H 0.72101 0.4494 0.22169 0.0
H45 H 0.73219 0.46403 0.29568 0.0
H46 H 0.77694 0.49792 0.19376 0.0
H47 H 0.75762 0.49868 0.26423 0.0
H48 H 0.74662 0.4975 0.18328 0.0
H49 H 0.84513 0.41382 0.9607 0.0
H50 H 0.80466 0.43285 0.80188 0.0
H51 H 0.77155 0.43608 0.87572 0.0
H52 H 0.8319 0.45646 0.05461 0.0
H53 H 0.84853 0.43181 0.06566 0.0
H54 H 0.83226 0.4438 0.13184 0.0
H55 H 0.80765 0.3829 0.04036 0.0
H56 H 0.79886 0.39194 0.12008 0.0
H57 H 0.82931 0.39353 0.0973 0.0
H58 H 0.83129 0.4254 0.30287 0.0
C59 C 0.80778 0.42795 0.22615 0.0
C60 C 0.90887 0.81312 0.88407 0.0
C61 C 0.90549 0.83715 0.89577 0.0
C62 C 0.88918 0.84365 0.9441 0.0
C63 C 0.88571 0.80374 0.98107 0.0
C64 C 0.89818 0.79648 0.92665 0.0
C65 C 0.90055 0.7703 0.92559 0.0
H66 H 0.92983 0.68109 0.07015 0.0
C67 C 0.8835 0.78457 0.02718 0.0
C68 C 0.88976 0.76415 0.99279 0.0
H69 H 0.89354 0.67703 0.88756 0.0
H70 H 0.87858 0.71494 0.91696 0.0
H71 H 0.9465 0.73906 0.08585 0.0
H72 H 0.88134 0.7011 0.14519 0.0
H73 H 0.89102 0.72198 0.20691 0.0
H74 H 0.90777 0.69745 0.18522 0.0
H75 H 0.94485 0.71686 0.1462 0.0
H76 H 0.93862 0.74667 0.16768 0.0
C77 C 0.92642 0.76575 0.92006 0.0
C78 C 0.88699 0.75831 0.86761 0.0
C79 C 0.89521 0.81333 0.26175 0.0
C80 C 0.90656 0.8046 0.31358 0.0
C81 C 0.91298 0.78119 0.30791 0.0
C82 C 0.90869 0.76708 0.25048 0.0
C83 C 0.89857 0.77676 0.19753 0.0
C84 C 0.89209 0.79959 0.20397 0.0
C85 C 0.88379 0.80825 0.14159 0.0
C86 C 0.88576 0.78651 0.09624 0.0
C87 C 0.89426 0.76797 0.12945 0.0
C88 C 0.90016 0.83024 0.12102 0.0
C89 C 0.85829 0.81356 0.15235 0.0
C90 C 0.91936 0.68849 0.03498 0.0
C91 C 0.91483 0.67686 0.97335 0.0
C92 C 0.8994 0.68649 0.9319 0.0
C93 C 0.89131 0.70851 0.94702 0.0
C94 C 0.89904 0.72111 0.00302 0.0
C95 C 0.91056 0.71049 0.0494 0.0
C96 C 0.91102 0.72525 0.11307 0.0
C97 C 0.89863 0.74655 0.09425 0.0
C98 C 0.89356 0.74421 0.02803 0.0
C99 C 0.93657 0.73234 0.12967 0.0
C100 C 0.89721 0.71076 0.16587 0.0
H101 H 0.86695 0.83221 0.02406 0.0
H102 H 0.92071 0.80778 0.84541 0.0
H103 H 0.88882 0.76953 0.82428 0.0
H104 H 0.86822 0.75509 0.88046 0.0
H105 H 0.89387 0.74144 0.85096 0.0
H106 H 0.93616 0.77511 0.96089 0.0
H107 H 0.93442 0.77195 0.87313 0.0
H108 H 0.92858 0.74658 0.92143 0.0
H109 H 0.89055 0.8314 0.26377 0.0
H110 H 0.92177 0.77402 0.34728 0.0
H111 H 0.91419 0.74954 0.24852 0.0
H112 H 0.9128 0.82551 0.0818 0.0
H113 H 0.91077 0.83848 0.16155 0.0
H114 H 0.89038 0.84469 0.10502 0.0
H115 H 0.84817 0.79905 0.17859 0.0
H116 H 0.84958 0.81493 0.10572 0.0
H117 H 0.85713 0.83033 0.18191 0.0
H118 H 0.88586 0.86204 0.95232 0.0
C119 C 0.87891 0.82677 0.98652 0.0
C120 C 0.81196 0.99254 0.09048 0.0
C121 C 0.82063 0.98819 0.02616 0.0
C122 C 0.8051 0.98051 0.97682 0.0
C123 C 0.77291 0.98053 0.05448 0.0
C124 C 0.78786 0.98829 0.10374 0.0
C125 C 0.77478 0.99096 0.16877 0.0
H126 H 0.67116 0.9676 0.33665 0.0
C127 C 0.7494 0.97614 0.08295 0.0
C128 C 0.75019 0.98132 0.1507 0.0
H129 H 0.73136 0.00906 0.41123 0.0
H130 H 0.75267 0.00177 0.30797 0.0
H131 H 0.66891 0.9933 0.23065 0.0
H132 H 0.69631 0.92702 0.24325 0.0
H133 H 0.6806 0.92545 0.17079 0.0
H134 H 0.66628 0.93243 0.24789 0.0
H135 H 0.65194 0.96666 0.2067 0.0
H136 H 0.66959 0.9839 0.14841 0.0
C137 C 0.7762 0.01759 0.18896 0.0
C138 C 0.78493 0.97582 0.21933 0.0
C139 C 0.68042 0.96163 0.93741 0.0
C140 C 0.65654 0.95835 0.95316 0.0
C141 C 0.64941 0.95036 0.01552 0.0
C142 C 0.66556 0.94866 0.06357 0.0
C143 C 0.68897 0.95568 0.04989 0.0
C144 C 0.69634 0.96035 0.98676 0.0
C145 C 0.72221 0.96601 0.98146 0.0
C146 C 0.72832 0.9675 0.05344 0.0
C147 C 0.70871 0.96162 0.09283 0.0
C148 C 0.7275 0.9902 0.94921 0.0
C149 C 0.73261 0.94501 0.94334 0.0
C150 C 0.68919 0.97451 0.33158 0.0
C151 C 0.69981 0.98832 0.3821 0.0
C152 C 0.72295 0.99805 0.3728 0.0
C153 C 0.73512 0.99403 0.3128 0.0
C154 C 0.72364 0.981 0.2612 0.0
C155 C 0.7009 0.97183 0.27165 0.0
C156 C 0.68955 0.96217 0.21059 0.0
C157 C 0.70929 0.96625 0.1612 0.0
C158 C 0.72961 0.97675 0.19048 0.0
C159 C 0.66891 0.97704 0.19823 0.0
C160 C 0.68261 0.93537 0.21826 0.0
H161 H 0.77066 0.97089 0.9506 0.0
H162 H 0.82363 0.99851 0.12922 0.0
H163 H 0.78566 0.95732 0.19956 0.0
H164 H 0.77438 0.97493 0.26511 0.0
H165 H 0.80279 0.98311 0.23156 0.0
H166 H 0.7738 0.02836 0.14607 0.0
H167 H 0.79335 0.02366 0.20942 0.0
H168 H 0.76249 0.02188 0.22486 0.0
H169 H 0.68649 0.96671 0.88905 0.0
H170 H 0.63124 0.94731 0.02942 0.0
H171 H 0.65901 0.94342 0.11069 0.0
H172 H 0.71641 0.00346 0.97196 0.0
H173 H 0.72409 0.98855 0.89612 0.0
H174 H 0.74556 0.99783 0.95493 0.0
H175 H 0.71988 0.92915 0.93793 0.0
H176 H 0.74727 0.93877 0.96908 0.0
H177 H 0.7386 0.94987 0.89324 0.0
H178 H 0.8114 0.97729 0.9271 0.0
C179 C 0.78143 0.97666 0.99057 0.0
C180 C 0.59601 0.71827 0.35213 0.0
C181 C 0.60557 0.69803 0.37409 0.0
C182 C 0.62283 0.68789 0.33466 0.0
C183 C 0.61568 0.71289 0.24767 0.0
C184 C 0.60197 0.72581 0.28863 0.0
C185 C 0.59526 0.74733 0.25492 0.0
H186 H 0.58559 0.79871 0.96327 0.0
C187 C 0.6154 0.7215 0.18199 0.0
C188 C 0.60479 0.74273 0.1853 0.0
H189 H 0.56771 0.82794 0.15461 0.0
H190 H 0.58216 0.79434 0.20473 0.0
H191 H 0.63494 0.77831 0.99816 0.0
H192 H 0.56491 0.75434 0.97309 0.0
H193 H 0.57593 0.72685 0.98167 0.0
H194 H 0.58572 0.74513 0.91433 0.0
H195 H 0.6188 0.77464 0.92445 0.0
H196 H 0.63349 0.75075 0.95362 0.0
C197 C 0.60786 0.76968 0.28819 0.0
C198 C 0.56863 0.74715 0.25756 0.0
C199 C 0.60786 0.65892 0.00069 0.0
C200 C 0.60168 0.66009 0.93523 0.0
C201 C 0.60494 0.68212 0.90535 0.0
C202 C 0.61146 0.70291 0.94234 0.0
C203 C 0.61408 0.70168 0.00989 0.0
C204 C 0.6139 0.6799 0.03721 0.0
C205 C 0.61785 0.682 0.10949 0.0
C206 C 0.61812 0.70886 0.12153 0.0
C207 C 0.61488 0.72 0.06332 0.0
C208 C 0.64129 0.67229 0.12254 0.0
C209 C 0.59721 0.66838 0.14581 0.0
C210 C 0.58472 0.79801 0.01605 0.0
C211 C 0.57528 0.81593 0.05483 0.0
C212 C 0.57497 0.81441 0.12348 0.0
C213 C 0.58331 0.79491 0.15246 0.0
C214 C 0.59202 0.77678 0.11237 0.0
C215 C 0.59261 0.77868 0.04533 0.0
C216 C 0.60114 0.75749 0.0092 0.0
C217 C 0.6069 0.74294 0.06573 0.0
C218 C 0.60145 0.75418 0.12631 0.0
C219 C 0.62323 0.76563 0.96876 0.0
C220 C 0.58108 0.74527 0.96734 0.0
H221 H 0.64181 0.68815 0.24358 0.0
H222 H 0.58382 0.7274 0.3827 0.0
H223 H 0.56047 0.72963 0.23961 0.0
H224 H 0.56244 0.76056 0.2268 0.0
H225 H 0.56214 0.7505 0.30843 0.0
H226 H 0.62536 0.76615 0.30368 0.0
H227 H 0.59799 0.77558 0.33239 0.0
H228 H 0.61099 0.7845 0.25496 0.0
H229 H 0.60604 0.64225 0.02476 0.0
H230 H 0.60128 0.68342 0.85424 0.0
H231 H 0.61325 0.71929 0.91783 0.0
H232 H 0.64734 0.66094 0.08097 0.0
H233 H 0.63992 0.66077 0.1651 0.0
H234 H 0.65518 0.6869 0.13087 0.0
H235 H 0.58059 0.67517 0.13359 0.0
H236 H 0.59876 0.66993 0.19938 0.0
H237 H 0.59619 0.64914 0.13254 0.0
H238 H 0.63121 0.67295 0.35042 0.0
C239 C 0.62828 0.6957 0.27197 0.0
C240 C 0.3191 0.5264 0.31508 0.0
C241 C 0.32821 0.52801 0.37819 0.0
C242 C 0.31612 0.53898 0.42983 0.0
C243 C 0.28615 0.54658 0.35673 0.0
C244 C 0.29788 0.53579 0.30549 0.0
C245 C 0.28466 0.53519 0.24291 0.0
H246 H 0.19096 0.56833 0.08957 0.0
C247 C 0.26519 0.5552 0.33156 0.0
C248 C 0.26433 0.54921 0.26437 0.0
H249 H 0.23865 0.51915 0.01431 0.0
H250 H 0.26156 0.52665 0.11205 0.0
H251 H 0.18041 0.54958 0.20185 0.0
H252 H 0.22997 0.60776 0.16922 0.0
H253 H 0.21452 0.61407 0.24265 0.0
H254 H 0.19896 0.60712 0.16836 0.0
H255 H 0.17371 0.57873 0.22639 0.0
H256 H 0.18542 0.55967 0.28249 0.0
C257 C 0.27664 0.50901 0.22425 0.0
C258 C 0.30015 0.5478 0.1899 0.0
C259 C 0.20273 0.58263 0.48657 0.0
C260 C 0.18091 0.5901 0.47444 0.0
C261 C 0.17699 0.5988 0.41288 0.0
C262 C 0.19331 0.5969 0.36156 0.0
C263 C 0.21351 0.58601 0.37202 0.0
C264 C 0.21887 0.58083 0.43456 0.0
C265 C 0.24186 0.57061 0.43615 0.0
C266 C 0.24758 0.56756 0.36335 0.0
C267 C 0.23065 0.5762 0.32631 0.0
C268 C 0.23825 0.54648 0.46944 0.0
C269 C 0.25922 0.58919 0.47088 0.0
C270 C 0.20671 0.55966 0.09317 0.0
C271 C 0.21324 0.54346 0.04399 0.0
C272 C 0.23335 0.5318 0.05168 0.0
C273 C 0.24643 0.53599 0.10856 0.0
C274 C 0.23878 0.55131 0.15909 0.0
C275 C 0.21915 0.56276 0.15053 0.0
C276 C 0.21152 0.57596 0.21124 0.0
C277 C 0.22964 0.5704 0.25836 0.0
C278 C 0.24601 0.55646 0.22752 0.0
C279 C 0.18654 0.56567 0.23169 0.0
C280 C 0.21366 0.60268 0.19743 0.0
H281 H 0.28695 0.55649 0.46077 0.0
H282 H 0.32812 0.51788 0.27476 0.0
H283 H 0.30777 0.56536 0.2092 0.0
H284 H 0.29044 0.55114 0.14638 0.0
H285 H 0.31461 0.53715 0.17405 0.0
H286 H 0.27359 0.49831 0.26844 0.0
H287 H 0.28986 0.50077 0.19263 0.0
H288 H 0.25989 0.507 0.19959 0.0
H289 H 0.20628 0.57639 0.53405 0.0
H290 H 0.16041 0.6049 0.40253 0.0
H291 H 0.18893 0.60252 0.31475 0.0
H292 H 0.22277 0.53569 0.45006 0.0
H293 H 0.23557 0.54906 0.52311 0.0
H294 H 0.25288 0.53556 0.46071 0.0
H295 H 0.2529 0.60713 0.4746 0.0
H296 H 0.27605 0.59161 0.44351 0.0
H297 H 0.26235 0.5842 0.52139 0.0
H298 H 0.32298 0.54042 0.47855 0.0
C299 C 0.2953 0.54842 0.41936 0.0
C300 C 0.11534 0.19002 0.51946 0.0
C301 C 0.1177 0.16579 0.50488 0.0
C302 C 0.13184 0.1597 0.45025 0.0
C303 C 0.13284 0.19954 0.41425 0.0
C304 C 0.12311 0.2067 0.47314 0.0
C305 C 0.11942 0.23265 0.47477 0.0
H306 H 0.07823 0.31857 0.33549 0.0
C307 C 0.13147 0.21816 0.36753 0.0
C308 C 0.12562 0.23842 0.40345 0.0
H309 H 0.12205 0.32641 0.50411 0.0
H310 H 0.13693 0.28864 0.47312 0.0
H311 H 0.1239 0.29819 0.24544 0.0
H312 H 0.06267 0.26038 0.33166 0.0
H313 H 0.06729 0.25078 0.24947 0.0
H314 H 0.06075 0.28075 0.26775 0.0
H315 H 0.09536 0.30175 0.21808 0.0
H316 H 0.11072 0.27702 0.18914 0.0
C317 C 0.13593 0.24585 0.52464 0.0
C318 C 0.09384 0.23613 0.49276 0.0
C319 C 0.11268 0.18699 0.13896 0.0
C320 C 0.09709 0.19324 0.09337 0.0
C321 C 0.0886 0.21576 0.1008 0.0
C322 C 0.09443 0.23092 0.15547 0.0
C323 C 0.10834 0.22317 0.20384 0.0
C324 C 0.117 0.20137 0.19493 0.0
C325 C 0.12832 0.19384 0.25428 0.0
C326 C 0.1262 0.2154 0.30007 0.0
C327 C 0.11477 0.23276 0.26998 0.0
C328 C 0.15394 0.19057 0.23651 0.0
C329 C 0.11433 0.17089 0.27882 0.0
C330 C 0.09039 0.31201 0.36754 0.0
C331 C 0.09727 0.32476 0.42588 0.0
C332 C 0.1146 0.31613 0.46293 0.0
C333 C 0.1227 0.29415 0.44713 0.0
C334 C 0.11305 0.28052 0.39513 0.0
C335 C 0.09917 0.29007 0.35226 0.0
C336 C 0.09637 0.27443 0.29049 0.0
C337 C 0.11055 0.25406 0.30595 0.0
C338 C 0.11849 0.25743 0.36965 0.0
C339 C 0.107 0.28851 0.23229 0.0
C340 C 0.0704 0.26615 0.28388 0.0
H341 H 0.15019 0.17149 0.36397 0.0
H342 H 0.10605 0.19557 0.56329 0.0
H343 H 0.08208 0.22582 0.45793 0.0
H344 H 0.0906 0.25505 0.4917 0.0
H345 H 0.08917 0.23034 0.54292 0.0
H346 H 0.13786 0.23493 0.56749 0.0
H347 H 0.12901 0.26223 0.54523 0.0
H348 H 0.15345 0.25021 0.50229 0.0
H349 H 0.11999 0.17009 0.13417 0.0
H350 H 0.07661 0.22116 0.06624 0.0
H351 H 0.08703 0.24756 0.15959 0.0
H352 H 0.16195 0.20558 0.20784 0.0
H353 H 0.15543 0.17391 0.20667 0.0
H354 H 0.16446 0.19019 0.28038 0.0
H355 H 0.10196 0.16238 0.24272 0.0
H356 H 0.10352 0.17459 0.32319 0.0
H357 H 0.12576 0.15695 0.28859 0.0
H358 H 0.13497 0.14151 0.43818 0.0
C359 C 0.13993 0.17675 0.4057 0.0
C360 C 0.30176 0.01999 0.02591 0.0
C361 C 0.32266 0.03135 0.99972 0.0
C362 C 0.33317 0.05168 0.03282 0.0
C363 C 0.30667 0.04494 0.1239 0.0
C364 C 0.29353 0.02796 0.08795 0.0
C365 C 0.27072 0.02117 0.12426 0.0
H366 H 0.21235 0.02566 0.42107 0.0
C367 C 0.29695 0.04651 0.19004 0.0
C368 C 0.27496 0.03388 0.19108 0.0
H369 H 0.18365 0.99787 0.2382 0.0
H370 H 0.22094 0.00767 0.18282 0.0
H371 H 0.25395 0.00043 0.4077 0.0
H372 H 0.24318 0.07177 0.37289 0.0
H373 H 0.26912 0.0716 0.41603 0.0
H374 H 0.2424 0.05809 0.45049 0.0
H375 H 0.26198 0.02339 0.46709 0.0
H376 H 0.28245 0.01396 0.40523 0.0
C377 C 0.26709 0.99405 0.12917 0.0
C378 C 0.25129 0.03145 0.08796 0.0
C379 C 0.35532 0.05431 0.3676 0.0
C380 C 0.35301 0.04977 0.43439 0.0
C381 C 0.33095 0.0497 0.46545 0.0
C382 C 0.31128 0.05179 0.42905 0.0
C383 C 0.31364 0.05327 0.36086 0.0
C384 C 0.33547 0.05567 0.33158 0.0
C385 C 0.33477 0.05669 0.2585 0.0
C386 C 0.30864 0.05267 0.24874 0.0
C387 C 0.29657 0.05006 0.30865 0.0
C388 C 0.3478 0.03625 0.22686 0.0
C389 C 0.34558 0.08144 0.23815 0.0
C390 C 0.21384 0.02151 0.36912 0.0
C391 C 0.1948 0.01098 0.33439 0.0
C392 C 0.19784 0.00631 0.26634 0.0
C393 C 0.21943 0.01212 0.23411 0.0
C394 C 0.23814 0.02284 0.2701 0.0
C395 C 0.23507 0.027 0.33669 0.0
C396 C 0.2569 0.03685 0.36901 0.0
C397 C 0.2731 0.04037 0.31009 0.0
C398 C 0.26228 0.03192 0.25188 0.0
C399 C 0.26426 0.01787 0.41476 0.0
C400 C 0.25277 0.06083 0.40443 0.0
H401 H 0.3329 0.07453 0.11824 0.0
H402 H 0.29252 0.00528 0.99947 0.0
H403 H 0.25713 0.04947 0.07108 0.0
H404 H 0.2358 0.03371 0.11936 0.0
H405 H 0.24622 0.02006 0.0443 0.0
H406 H 0.28249 0.98736 0.1504 0.0
H407 H 0.26449 0.98524 0.08011 0.0
H408 H 0.25193 0.9885 0.16075 0.0
H409 H 0.37208 0.05469 0.34262 0.0
H410 H 0.32881 0.04687 0.51731 0.0
H411 H 0.29487 0.05113 0.45485 0.0
H412 H 0.34008 0.01885 0.24409 0.0
H413 H 0.36639 0.03838 0.23911 0.0
H414 H 0.34738 0.03557 0.17304 0.0
H415 H 0.35563 0.09118 0.27782 0.0
H416 H 0.33203 0.09286 0.2251 0.0
H417 H 0.35811 0.08004 0.19633 0.0
H418 H 0.34855 0.06135 0.01243 0.0
C419 C 0.32493 0.05877 0.09455 0.0
C420 C 0.40459 0.28137 0.0248 0.0
C421 C 0.39648 0.30298 0.00759 0.0
C422 C 0.38156 0.31432 0.0521 0.0
C423 C 0.38892 0.28736 0.13439 0.0
C424 C 0.39996 0.27353 0.08864 0.0
C425 C 0.40625 0.25108 0.11832 0.0
H426 H 0.42384 0.19625 0.39974 0.0
C427 C 0.39155 0.2783 0.19911 0.0
C428 C 0.40066 0.25628 0.19071 0.0
H429 H 0.42621 0.16492 0.20393 0.0
H430 H 0.41645 0.20195 0.16051 0.0
H431 H 0.45112 0.24088 0.36733 0.0
H432 H 0.37811 0.22456 0.39127 0.0
H433 H 0.38614 0.2518 0.43381 0.0
H434 H 0.3991 0.22562 0.45413 0.0
H435 H 0.43672 0.2472 0.44359 0.0
H436 H 0.44106 0.26892 0.38145 0.0
C437 C 0.43227 0.24849 0.10526 0.0
C438 C 0.39023 0.23004 0.08991 0.0
C439 C 0.402 0.33983 0.38355 0.0
C440 C 0.41448 0.33954 0.44108 0.0
C441 C 0.4172 0.31746 0.46748 0.0
C442 C 0.41013 0.29627 0.43296 0.0
C443 C 0.40123 0.29716 0.37029 0.0
C444 C 0.39658 0.31866 0.34738 0.0
C445 C 0.38959 0.31676 0.27716 0.0
C446 C 0.3918 0.29052 0.26107 0.0
C447 C 0.39866 0.27929 0.31575 0.0
C448 C 0.40738 0.33306 0.23751 0.0
C449 C 0.36431 0.32333 0.27339 0.0
C450 C 0.4217 0.19705 0.3476 0.0
C451 C 0.42514 0.17745 0.30545 0.0
C452 C 0.42335 0.17972 0.2375 0.0
C453 C 0.41747 0.20107 0.21252 0.0
C454 C 0.41357 0.22032 0.25596 0.0
C455 C 0.41595 0.21805 0.3222 0.0
C456 C 0.41271 0.24048 0.3614 0.0
C457 C 0.4054 0.25591 0.30886 0.0
C458 C 0.40639 0.24433 0.24677 0.0
C459 C 0.43648 0.2499 0.39028 0.0
C460 C 0.39305 0.23546 0.41331 0.0
H461 H 0.36668 0.31591 0.14816 0.0
H462 H 0.41501 0.27153 0.9905 0.0
H463 H 0.3729 0.2356 0.07928 0.0
H464 H 0.38664 0.21571 0.12458 0.0
H465 H 0.3977 0.2227 0.04356 0.0
H466 H 0.44279 0.26512 0.12045 0.0
H467 H 0.43596 0.24475 0.05247 0.0
H468 H 0.43842 0.23411 0.13262 0.0
H469 H 0.3985 0.35643 0.36372 0.0
H470 H 0.42635 0.31639 0.51224 0.0
H471 H 0.41319 0.28008 0.45464 0.0
H472 H 0.42529 0.32836 0.24451 0.0
H473 H 0.4066 0.35195 0.25323 0.0
H474 H 0.40454 0.3321 0.18474 0.0
H475 H 0.35621 0.32671 0.32248 0.0
H476 H 0.35296 0.30877 0.24972 0.0
H477 H 0.3635 0.33966 0.24591 0.0
H478 H 0.37453 0.33057 0.04037 0.0
C479 C 0.37744 0.3063 0.11512 0.0
Tb480 Tb 0.99262 0.98676 0.62439 0.0
C481 C 0.04641 0.00054 0.60298 0.0
Tb482 Tb 0.01908 0.02048 0.72859 0.0
O483 O 0.99656 0.01433 0.55201 0.0
O484 O 0.99654 0.02314 0.65092 0.0
O485 O 0.02818 0.98564 0.58727 0.0
C486 C 0.04031 0.05838 0.7908 0.0
O487 O 0.04621 0.01639 0.65288 0.0
C488 C 0.01113 0.97594 0.7597 0.0
C489 C 0.96633 0.00507 0.75509 0.0
O490 O 0.02331 0.05866 0.75148 0.0
O491 O 0.04537 0.0367 0.79529 0.0
O492 O 0.01526 0.99337 0.8024 0.0
O493 O 0.01448 0.98393 0.70331 0.0
O494 O 0.98375 0.02145 0.76754 0.0
O495 O 0.96695 0.98899 0.70567 0.0
C496 C 0.97266 0.9488 0.55873 0.0
O497 O 0.96239 0.96749 0.57752 0.0
O498 O 0.99403 0.9517 0.57636 0.0
C499 C 1.00019 0.03158 0.59546 0.0
Tb500 Tb 0.50395 0.02375 0.64166 0.0
C501 C 0.55056 0.99973 0.62147 0.0
Tb502 Tb 0.50913 0.9773 0.71397 0.0
O503 O 0.53094 0.04374 0.69914 0.0
O504 O 0.51162 0.0143 0.73587 0.0
O505 O 0.53678 0.01443 0.59717 0.0
C506 C 0.52173 0.94344 0.78846 0.0
O507 O 0.54382 0.98538 0.66964 0.0
C508 C 0.48346 0.9731 0.60962 0.0
C509 C 0.46344 0.002 0.73876 0.0
O510 O 0.51907 0.9414 0.72571 0.0
O511 O 0.51712 0.96445 0.80923 0.0
O512 O 0.48077 0.95886 0.65783 0.0
O513 O 0.50136 0.98692 0.61962 0.0
O514 O 0.47756 0.98767 0.76304 0.0
O515 O 0.46952 0.01543 0.68811 0.0
C516 C 0.48901 0.05533 0.56385 0.0
O517 O 0.48698 0.05593 0.62717 0.0
O518 O 0.49998 0.03728 0.54444 0.0
C519 C 0.52892 0.02898 0.74628 0.0
Tb520 Tb 0.51928 0.52138 0.66221 0.0
C521 C 0.46926 0.50381 0.61481 0.0
Tb522 Tb 0.49068 0.48022 0.73477 0.0
O523 O 0.52149 0.49908 0.57227 0.0
O524 O 0.51759 0.48417 0.66287 0.0
O525 O 0.48586 0.52165 0.61709 0.0
C526 C 0.4684 0.439 0.76972 0.0
O527 O 0.46908 0.485 0.65148 0.0
C528 C 0.4929 0.52251 0.79409 0.0
C529 C 0.5414 0.49615 0.77846 0.0
O530 O 0.45926 0.45905 0.76932 0.0
O531 O 0.49 0.44231 0.75118 0.0
O532 O 0.48956 0.50282 0.82464 0.0
O533 O 0.49235 0.51741 0.73389 0.0
O534 O 0.52449 0.47864 0.77556 0.0
O535 O 0.54166 0.51547 0.74356 0.0
C536 C 0.54001 0.56346 0.62883 0.0
O537 O 0.54976 0.5437 0.62649 0.0
O538 O 0.51873 0.55941 0.64971 0.0
C539 C 0.51764 0.47933 0.60244 0.0
Tb540 Tb 0.98722 0.50039 0.64412 0.0
C541 C 0.02785 0.46863 0.61682 0.0
Tb542 Tb 0.02692 0.50439 0.74378 0.0
O543 O 0.01121 0.51651 0.57046 0.0
O544 O 0.01531 0.52482 0.6702 0.0
O545 O 0.00602 0.4715 0.60386 0.0
C546 C 0.06871 0.51183 0.79645 0.0
O547 O 0.03943 0.48099 0.66424 0.0
C548 C 0.9899 0.4766 0.77281 0.0
C549 C 0.98606 0.53589 0.77146 0.0
O550 O 0.05361 0.4939 0.80722 0.0
O551 O 0.06011 0.52572 0.75696 0.0
O552 O 0.0027 0.48805 0.81703 0.0
O553 O 0.99901 0.48 0.7173 0.0
O554 O 0.00784 0.53296 0.785 0.0
O555 O 0.97466 0.52374 0.72342 0.0
C556 C 0.94552 0.49335 0.59086 0.0
O557 O 0.96108 0.51074 0.57878 0.0
O558 O 0.95361 0.47972 0.63206 0.0
C559 C 0.02423 0.52792 0.61422 0.0
H560 H 0.1874 0.99515 0.45893 0.0
H561 H 0.05014 0.98754 0.47296 0.0
H562 H 0.15021 0.01366 0.29236 0.0
H563 H 0.09128 0.01262 0.63781 0.0
H564 H 0.08571 0.98801 0.40404 0.0
H565 H 0.15115 0.99182 0.52281 0.0
C566 C 0.17167 0.99858 0.43553 0.0
C567 C 0.17215 0.00539 0.37024 0.0
C568 C 0.08686 0.99331 0.45534 0.0
C569 C 0.13027 0.00069 0.44335 0.0
C570 C 0.06666 0.99292 0.49479 0.0
C571 C 0.06778 0.99998 0.56133 0.0
C572 C 0.10837 0.00019 0.48306 0.0
C573 C 0.08961 0.00707 0.58682 0.0
C574 C 0.15096 0.99654 0.4722 0.0
C575 C 0.15084 0.00845 0.34237 0.0
N576 N 0.10905 0.00678 0.54782 0.0
N577 N 0.13075 0.00615 0.37913 0.0
H578 H 0.40473 0.15574 0.41142 0.0
H579 H 0.49611 0.05944 0.4319 0.0
H580 H 0.45923 0.14882 0.26532 0.0
H581 H 0.45789 0.08702 0.59777 0.0
H582 H 0.47818 0.08618 0.36162 0.0
H583 H 0.41873 0.12372 0.47014 0.0
C584 C 0.41955 0.1473 0.39136 0.0
C585 C 0.4311 0.15526 0.334 0.0
C586 C 0.47375 0.08632 0.41338 0.0
C587 C 0.44727 0.11855 0.40122 0.0
C588 C 0.48398 0.07116 0.45343 0.0
C589 C 0.47867 0.07133 0.52076 0.0
C590 C 0.45783 0.10139 0.44088 0.0
C591 C 0.46268 0.08658 0.54623 0.0
C592 C 0.42755 0.12906 0.425 0.0
C593 C 0.44987 0.14329 0.30946 0.0
N594 N 0.4528 0.10096 0.50628 0.0
N595 N 0.45756 0.12566 0.34363 0.0
H596 H 0.33453 0.4894 0.44648 0.0
H597 H 0.46442 0.53727 0.52471 0.0
H598 H 0.37182 0.54733 0.34777 0.0
H599 H 0.43045 0.47258 0.59966 0.0
H600 H 0.43187 0.5396 0.45353 0.0
H601 H 0.3706 0.48062 0.49492 0.0
C602 C 0.35054 0.49978 0.43352 0.0
C603 C 0.3504 0.5189 0.39265 0.0
C604 C 0.43161 0.5248 0.48518 0.0
C605 C 0.39153 0.50968 0.44977 0.0
C606 C 0.45017 0.5235 0.52618 0.0
C607 C 0.45009 0.50487 0.56911 0.0
C608 C 0.41268 0.50744 0.48729 0.0
C609 C 0.43121 0.48742 0.56803 0.0
C610 C 0.37109 0.49493 0.46156 0.0
C611 C 0.3714 0.53222 0.37837 0.0
N612 N 0.4132 0.48926 0.52834 0.0
N613 N 0.3911 0.52758 0.40766 0.0
H614 H 0.08906 0.3394 0.55278 0.0
H615 H 0.0167 0.4464 0.49834 0.0
H616 H 0.08015 0.35976 0.35507 0.0
H617 H 0.06477 0.44683 0.65478 0.0
H618 H 0.03405 0.41203 0.44632 0.0
H619 H 0.07376 0.37569 0.59356 0.0
C620 C 0.0842 0.35157 0.51759 0.0
C621 C 0.0866 0.34659 0.44998 0.0
C622 C 0.04085 0.41991 0.49165 0.0
C623 C 0.068 0.38804 0.49738 0.0
C624 C 0.03097 0.43941 0.52147 0.0
C625 C 0.03923 0.44943 0.58118 0.0
C626 C 0.05866 0.41013 0.52277 0.0
C627 C 0.05782 0.43974 0.60882 0.0
C628 C 0.07528 0.37227 0.54122 0.0
C629 C 0.07872 0.36274 0.40749 0.0
N630 N 0.06666 0.42044 0.57991 0.0
N631 N 0.06968 0.38277 0.43193 0.0
H632 H 0.84673 0.95299 0.98608 0.0
H633 H 0.95221 0.03911 0.84385 0.0
H634 H 0.85037 0.02874 0.01837 0.0
H635 H 0.93433 0.96714 0.77297 0.0
H636 H 0.91915 0.03517 0.92203 0.0
H637 H 0.88387 0.95723 0.92583 0.0
C638 C 0.85579 0.97049 0.98211 0.0
C639 C 0.84563 0.99053 0.00759 0.0
C640 C 0.92251 0.02029 0.8893 0.0
C641 C 0.88782 0.99566 0.93669 0.0
C642 C 0.94134 0.02252 0.84457 0.0
C643 C 0.94594 0.00352 0.80114 0.0
C644 C 0.90843 0.99878 0.89144 0.0
C645 C 0.93132 0.9824 0.80467 0.0
C646 C 0.87682 0.97295 0.94696 0.0
C647 C 0.85783 0.01286 0.00016 0.0
N648 N 0.91333 0.9806 0.84902 0.0
N649 N 0.87823 0.01488 0.96474 0.0
H650 H 0.57877 0.86388 0.08843 0.0
H651 H 0.52582 0.89717 0.75344 0.0
H652 H 0.54878 0.81237 0.94664 0.0
H653 H 0.53409 0.94762 0.91656 0.0
H654 H 0.53757 0.86646 0.82181 0.0
H655 H 0.56496 0.89554 0.02594 0.0
C656 C 0.56911 0.8592 0.04469 0.0
C657 C 0.56527 0.83543 0.02226 0.0
C658 C 0.53676 0.88422 0.84285 0.0
C659 C 0.5498 0.87145 0.95027 0.0
C660 C 0.53013 0.90175 0.80373 0.0
C661 C 0.52893 0.92488 0.82953 0.0
C662 C 0.54252 0.8899 0.90816 0.0
C663 C 0.53474 0.92992 0.89498 0.0
C664 C 0.56135 0.87726 0.0089 0.0
C665 C 0.55271 0.83044 0.96501 0.0
N666 N 0.54141 0.91258 0.9321 0.0
N667 N 0.54565 0.84824 0.93087 0.0
H668 H 0.6514 0.44186 0.98357 0.0
H669 H 0.54644 0.45949 0.85709 0.0
H670 H 0.66114 0.51747 0.01933 0.0
H671 H 0.57982 0.52753 0.80395 0.0
H672 H 0.57811 0.45482 0.92827 0.0
H673 H 0.61591 0.44637 0.92711 0.0
C674 C 0.64565 0.4594 0.98072 0.0
C675 C 0.65894 0.47929 0.0067 0.0
C676 C 0.57876 0.47063 0.90036 0.0
C677 C 0.61817 0.48474 0.94226 0.0
C678 C 0.56053 0.47343 0.85982 0.0
C679 C 0.56061 0.49374 0.82309 0.0
C680 C 0.5975 0.48815 0.90418 0.0
C681 C 0.57921 0.51137 0.83031 0.0
C682 C 0.62532 0.462 0.94878 0.0
C683 C 0.65108 0.5017 0.00071 0.0
N684 N 0.59698 0.50812 0.86987 0.0
N685 N 0.63128 0.50389 0.96829 0.0
H686 H 0.92858 0.6402 0.04495 0.0
H687 H 0.94943 0.5578 0.73254 0.0
H688 H 0.92784 0.66443 0.84803 0.0
H689 H 0.996 0.55708 0.89228 0.0
H690 H 0.93214 0.5912 0.78725 0.0
H691 H 0.94602 0.6046 0.00123 0.0
C692 C 0.93203 0.6382 0.99287 0.0
C693 C 0.92613 0.65529 0.95016 0.0
C694 C 0.94603 0.58357 0.8105 0.0
C695 C 0.94538 0.61445 0.9004 0.0
C696 C 0.95586 0.56445 0.77953 0.0
C697 C 0.97435 0.55476 0.80761 0.0
C698 C 0.95439 0.59286 0.87061 0.0
C699 C 0.98193 0.56422 0.86867 0.0
C700 C 0.94188 0.61784 0.96813 0.0
C701 C 0.93108 0.6515 0.88301 0.0
N702 N 0.97187 0.58281 0.8984 0.0
N703 N 0.94007 0.63144 0.86032 0.0
H704 H 0.12585 0.11949 0.52669 0.0
H705 H 0.99927 0.07544 0.6553 0.0
H706 H 0.07354 0.16874 0.55606 0.0
H707 H 0.03681 0.03603 0.50933 0.0
H708 H 0.02924 0.10905 0.64572 0.0
H709 H 0.09646 0.08713 0.5516 0.0
C710 C 0.10838 0.12367 0.53911 0.0
C711 C 0.10222 0.14701 0.53741 0.0
C712 C 0.03082 0.09298 0.616 0.0
C713 C 0.06875 0.11002 0.56769 0.0
C714 C 0.01379 0.07396 0.62119 0.0
C715 C 0.01589 0.05297 0.58376 0.0
C716 C 0.05016 0.09062 0.57402 0.0
C717 C 0.03474 0.05188 0.53952 0.0
C718 C 0.09166 0.10515 0.55338 0.0
C719 C 0.07935 0.1512 0.55667 0.0
N720 N 0.05139 0.07032 0.53658 0.0
N721 N 0.06341 0.13286 0.5705 0.0
H722 H 0.39898 0.0669 0.4287 0.0
H723 H 0.4854 0.9961 0.49601 0.0
H724 H 0.3519 0.01223 0.51326 0.0
H725 H 0.43725 0.96586 0.64094 0.0
H726 H 0.45446 0.01693 0.45334 0.0
H727 H 0.43152 0.04708 0.46503 0.0
C728 C 0.39551 0.05079 0.45524 0.0
C729 C 0.37269 0.04108 0.4674 0.0
C730 C 0.45065 0.00598 0.49492 0.0
C731 C 0.40981 0.0178 0.50702 0.0
C732 C 0.46822 0.99387 0.51859 0.0
C733 C 0.46397 0.98005 0.57323 0.0
C734 C 0.42867 0.00403 0.52629 0.0
C735 C 0.44128 0.9767 0.59916 0.0
C736 C 0.41411 0.03927 0.47514 0.0
C737 C 0.36919 0.02044 0.50315 0.0
N738 N 0.42449 0.9889 0.57593 0.0
N739 N 0.38756 0.00942 0.52137 0.0
H740 H 0.43426 0.37639 0.36993 0.0
H741 H 0.51384 0.43513 0.6497 0.0
H742 H 0.42697 0.35276 0.56804 0.0
H743 H 0.49398 0.47453 0.48918 0.0
H744 H 0.48679 0.40149 0.61368 0.0
H745 H 0.45985 0.41005 0.40745 0.0
C746 C 0.43749 0.37842 0.42167 0.0
C747 C 0.42801 0.36157 0.46591 0.0
C748 C 0.4884 0.41751 0.58641 0.0
C749 C 0.45858 0.39984 0.5083 0.0
C750 C 0.50371 0.43662 0.60698 0.0
C751 C 0.5055 0.45769 0.57346 0.0
C752 C 0.47537 0.41942 0.53081 0.0
C753 C 0.493 0.45854 0.51646 0.0
C754 C 0.45246 0.3976 0.44275 0.0
C755 C 0.43395 0.36501 0.53185 0.0
N756 N 0.47835 0.43966 0.49698 0.0
N757 N 0.44904 0.38367 0.55098 0.0
H758 H 0.16922 0.54707 0.52377 0.0
H759 H 0.04566 0.5671 0.67546 0.0
H760 H 0.14622 0.61711 0.5197 0.0
H761 H 0.05627 0.51255 0.52715 0.0
H762 H 0.08597 0.58408 0.65617 0.0
H763 H 0.13121 0.53247 0.56838 0.0
C764 C 0.15647 0.55958 0.53465 0.0
C765 C 0.16079 0.58334 0.51799 0.0
C766 C 0.07934 0.56839 0.62819 0.0
C767 C 0.11747 0.56666 0.56834 0.0
C768 C 0.05653 0.55879 0.6389 0.0
C769 C 0.04784 0.53866 0.60213 0.0
C770 C 0.09348 0.55719 0.58213 0.0
C771 C 0.06239 0.52829 0.5557 0.0
C772 C 0.13478 0.55115 0.55928 0.0
C773 C 0.14346 0.59866 0.5318 0.0
N774 N 0.08467 0.53755 0.54741 0.0
N775 N 0.12235 0.59 0.5559 0.0
H776 H 0.89688 0.87098 0.81087 0.0
H777 H 0.0119 0.9524 0.87283 0.0
H778 H 0.95089 0.84546 0.9203 0.0
H779 H 0.98015 0.94842 0.68609 0.0
H780 H 0.98708 0.91663 0.90289 0.0
H781 H 0.92458 0.90372 0.77424 0.0
C782 C 0.91464 0.8722 0.82634 0.0
C783 C 0.9219 0.85554 0.86755 0.0
C784 C 0.98589 0.92351 0.8548 0.0
C785 C 0.95309 0.8929 0.82839 0.0
C786 C 0.99997 0.94381 0.83767 0.0
C787 C 0.99829 0.95313 0.77598 0.0
C788 C 0.9696 0.91306 0.8105 0.0
C789 C 0.98246 0.9415 0.73267 0.0
C790 C 0.93035 0.89075 0.80572 0.0
C791 C 0.94491 0.8579 0.88757 0.0
N792 N 0.96844 0.9223 0.75089 0.0
N793 N 0.9597 0.87646 0.86843 0.0
H794 H 0.66213 0.99725 0.87756 0.0
H795 H 0.52744 0.00597 0.85948 0.0
H796 H 0.61131 0.94045 0.93353 0.0
H797 H 0.57501 0.03929 0.71796 0.0
H798 H 0.55957 0.98727 0.90426 0.0
H799 H 0.63165 0.01655 0.82823 0.0
C800 C 0.64473 0.98846 0.87823 0.0
C801 C 0.63932 0.96721 0.91063 0.0
C802 C 0.56294 0.99873 0.86349 0.0
C803 C 0.6043 0.98996 0.85692 0.0
C804 C 0.54473 0.00943 0.83835 0.0
C805 C 0.5486 0.02338 0.78389 0.0
C806 C 0.58517 0.00256 0.83464 0.0
C807 C 0.57136 0.02836 0.75969 0.0
C808 C 0.6273 0.99974 0.85079 0.0
C809 C 0.61626 0.95708 0.91072 0.0
N810 N 0.58888 0.01771 0.78488 0.0
N811 N 0.59952 0.96875 0.88529 0.0
H812 H 0.6078 0.61264 0.94147 0.0
H813 H 0.49256 0.56737 0.75401 0.0
H814 H 0.56421 0.66035 0.85786 0.0
H815 H 0.52336 0.52614 0.8934 0.0
H816 H 0.52083 0.60102 0.78111 0.0
H817 H 0.58003 0.57937 0.90934 0.0
C818 C 0.59257 0.61613 0.9157 0.0
C819 C 0.58825 0.63942 0.90315 0.0
C820 C 0.52126 0.58468 0.80619 0.0
C821 C 0.55645 0.60144 0.8664 0.0
C822 C 0.50515 0.56558 0.79089 0.0
C823 C 0.50599 0.54401 0.82078 0.0
C824 C 0.53834 0.58201 0.85153 0.0
C825 C 0.52223 0.54253 0.86915 0.0
C826 C 0.57669 0.59714 0.89769 0.0
C827 C 0.56844 0.64275 0.86824 0.0
N828 N 0.53804 0.56121 0.88239 0.0
N829 N 0.55319 0.62399 0.85153 0.0
H830 H 0.84282 0.4645 0.82285 0.0
H831 H 0.96906 0.43671 0.71448 0.0
H832 H 0.86169 0.3938 0.84754 0.0
H833 H 0.95654 0.49425 0.85172 0.0
H834 H 0.92786 0.42165 0.72559 0.0
H835 H 0.88299 0.47679 0.78992 0.0
C836 C 0.85523 0.45135 0.81873 0.0
C837 C 0.84905 0.4281 0.83763 0.0
C838 C 0.93429 0.43751 0.75318 0.0
C839 C 0.89469 0.44208 0.80084 0.0
C840 C 0.9576 0.446 0.74722 0.0
C841 C 0.96598 0.46646 0.78306 0.0
C842 C 0.91937 0.45016 0.79336 0.0
C843 C 0.95066 0.47819 0.8242 0.0
C844 C 0.8781 0.45845 0.80088 0.0
C845 C 0.86588 0.41185 0.83301 0.0
N846 N 0.92791 0.47001 0.82769 0.0
N847 N 0.88812 0.41919 0.81531 0.0
H848 H 0.08647 0.19817 0.96362 0.0
H849 H 0.0694 0.05847 0.89187 0.0
H850 H 0.0862 0.14621 0.11143 0.0
H851 H 0.03458 0.10523 0.77664 0.0
H852 H 0.08367 0.09246 0.96153 0.0
H853 H 0.07347 0.16601 0.88421 0.0
C854 C 0.08371 0.18014 0.97941 0.0
C855 C 0.08806 0.17488 0.04398 0.0
C856 C 0.07299 0.09532 0.92078 0.0
C857 C 0.07373 0.1383 0.95374 0.0
C858 C 0.06496 0.07596 0.88092 0.0
C859 C 0.05065 0.07909 0.82902 0.0
C860 C 0.0669 0.11804 0.90825 0.0
C861 C 0.04545 0.10214 0.81672 0.0
C862 C 0.07641 0.16186 0.93413 0.0
C863 C 0.08402 0.15115 0.06177 0.0
N864 N 0.05356 0.12084 0.85621 0.0
N865 N 0.07737 0.13383 0.01692 0.0
H866 H 0.3355 0.05235 0.88513 0.0
H867 H 0.44255 0.97514 0.83657 0.0
H868 H 0.3413 0.98909 0.98945 0.0
H869 H 0.42996 0.03054 0.70824 0.0
H870 H 0.40411 0.97796 0.88728 0.0
H871 H 0.36754 0.0421 0.81171 0.0
C872 C 0.343 0.03582 0.89092 0.0
C873 C 0.33565 0.02144 0.94302 0.0
C874 C 0.40967 0.98937 0.84768 0.0
C875 C 0.37307 0.0101 0.86121 0.0
C876 C 0.43173 0.98788 0.81887 0.0
C877 C 0.43976 0.00287 0.76856 0.0
C878 C 0.3955 0.00612 0.82655 0.0
C879 C 0.42472 0.0188 0.74734 0.0
C880 C 0.36148 0.0301 0.84954 0.0
C881 C 0.34625 0.00047 0.94931 0.0
N882 N 0.40348 0.02016 0.77683 0.0
N883 N 0.36472 0.99566 0.90976 0.0
H884 H 0.44137 0.30787 0.96069 0.0
H885 H 0.4224 0.42841 0.80006 0.0
H886 H 0.37356 0.32886 0.92428 0.0
H887 H 0.48769 0.39775 0.78572 0.0
H888 H 0.40387 0.39103 0.84056 0.0
H889 H 0.45843 0.33843 0.88871 0.0
C890 C 0.42997 0.31837 0.93599 0.0
C891 C 0.40599 0.31602 0.94964 0.0
C892 C 0.42221 0.39236 0.82788 0.0
C893 C 0.42553 0.35166 0.86885 0.0
C894 C 0.43278 0.41374 0.8051 0.0
C895 C 0.45662 0.41619 0.79027 0.0
C896 C 0.43565 0.37344 0.83674 0.0
C897 C 0.46927 0.39661 0.79716 0.0
C898 C 0.43977 0.33605 0.89541 0.0
C899 C 0.39219 0.3304 0.91653 0.0
N900 N 0.4587 0.37615 0.82067 0.0
N901 N 0.40217 0.34791 0.87885 0.0
H902 H 0.19394 0.49938 0.00611 0.0
H903 H 0.10052 0.5501 0.78306 0.0
H904 H 0.19468 0.57307 0.96273 0.0
H905 H 0.09023 0.48206 0.87058 0.0
H906 H 0.1389 0.55655 0.83085 0.0
H907 H 0.16034 0.49033 0.9366 0.0
C908 C 0.18746 0.51353 0.98033 0.0
C909 C 0.19706 0.537 0.99011 0.0
C910 C 0.12829 0.54016 0.83937 0.0
C911 C 0.15842 0.52691 0.91177 0.0
C912 C 0.10639 0.5365 0.81224 0.0
C913 C 0.09212 0.51564 0.82361 0.0
C914 C 0.13607 0.52274 0.87769 0.0
C915 C 0.10063 0.49849 0.8612 0.0
C916 C 0.16811 0.50842 0.94139 0.0
C917 C 0.18772 0.55475 0.95652 0.0
N918 N 0.12203 0.50244 0.88705 0.0
N919 N 0.16883 0.54937 0.91927 0.0
H920 H 0.94923 0.81063 0.36816 0.0
H921 H 0.92706 0.93795 0.52853 0.0
H922 H 0.88209 0.83762 0.38027 0.0
H923 H 0.99315 0.90886 0.52382 0.0
H924 H 0.90942 0.90016 0.48182 0.0
H925 H 0.96455 0.84447 0.4366 0.0
C926 C 0.93755 0.82332 0.3867 0.0
C927 C 0.9144 0.82141 0.36784 0.0
C928 C 0.92777 0.90202 0.49123 0.0
C929 C 0.932 0.86066 0.44455 0.0
C930 C 0.93783 0.92362 0.51748 0.0
C931 C 0.9616 0.92654 0.52932 0.0
C932 C 0.94164 0.8833 0.47672 0.0
C933 C 0.97478 0.90738 0.51486 0.0
C934 C 0.94637 0.84284 0.42513 0.0
C935 C 0.90015 0.83861 0.39275 0.0
N936 N 0.96465 0.88663 0.48909 0.0
N937 N 0.90924 0.85768 0.42899 0.0
H938 H 0.68136 0.03003 0.40941 0.0
H939 H 0.58306 0.96971 0.64927 0.0
H940 H 0.68205 0.9595 0.47792 0.0
H941 H 0.57398 0.03034 0.53607 0.0
H942 H 0.62283 0.9699 0.60571 0.0
H943 H 0.64627 0.03502 0.47712 0.0
C944 C 0.67469 0.01601 0.44105 0.0
C945 C 0.68479 0.99448 0.43905 0.0
C946 C 0.61215 0.9832 0.59059 0.0
C947 C 0.64423 0.99965 0.51463 0.0
C948 C 0.58937 0.98308 0.61528 0.0
C949 C 0.57489 0.99981 0.59561 0.0
C950 C 0.62076 0.00031 0.54628 0.0
C951 C 0.58429 0.01687 0.552 0.0
C952 C 0.65444 0.01868 0.47874 0.0
C953 C 0.67499 0.97652 0.47911 0.0
N954 N 0.60656 0.01663 0.52874 0.0
N955 N 0.65515 0.97941 0.51479 0.0
H956 H 0.56014 0.68982 0.415 0.0
H957 H 0.58549 0.57593 0.5962 0.0
H958 H 0.62918 0.6764 0.46549 0.0
H959 H 0.51857 0.60326 0.61037 0.0
H960 H 0.60196 0.61326 0.55054 0.0
H961 H 0.54437 0.65998 0.49107 0.0
C962 C 0.57201 0.68114 0.44342 0.0
C963 C 0.59606 0.68535 0.43269 0.0
C964 C 0.58372 0.61123 0.56439 0.0
C965 C 0.57809 0.65057 0.51829 0.0
C966 C 0.57433 0.58989 0.59015 0.0
C967 C 0.55064 0.58649 0.60643 0.0
C968 C 0.56922 0.62911 0.55376 0.0
C969 C 0.53692 0.60516 0.59801 0.0
C970 C 0.56297 0.6639 0.48643 0.0
C971 C 0.61053 0.6733 0.47071 0.0
N972 N 0.54633 0.62555 0.57135 0.0
N973 N 0.60134 0.65613 0.51067 0.0
H974 H 0.81971 0.42713 0.42968 0.0
H975 H 0.926 0.52185 0.50865 0.0
H976 H 0.82712 0.49704 0.35341 0.0
H977 H 0.91221 0.45666 0.60931 0.0
H978 H 0.88815 0.51459 0.45837 0.0
H979 H 0.85086 0.43924 0.50514 0.0
C980 C 0.82746 0.44528 0.43038 0.0
C981 C 0.82088 0.46113 0.38538 0.0
C982 C 0.89327 0.50196 0.49188 0.0
C983 C 0.8571 0.47492 0.46982 0.0
C984 C 0.91493 0.50605 0.52032 0.0
C985 C 0.92232 0.48968 0.56247 0.0
C986 C 0.87897 0.48122 0.50525 0.0
C987 C 0.90725 0.4696 0.57646 0.0
C988 C 0.84537 0.45215 0.47303 0.0
C989 C 0.83158 0.48436 0.38773 0.0
N990 N 0.88639 0.46582 0.54743 0.0
N991 N 0.84948 0.49044 0.42832 0.0
loop_
_geom_bond_atom_site_label_1
_geom_bond_atom_site_label_2
_geom_bond_distance
_geom_bond_site_symmetry_2
_ccdc_geom_bond_type
C0 C1 1.391 . S
C0 C4 1.391 . S
C0 H42 0.948 . S
C1 C0 1.391 . S
C1 C2 1.391 . S
C2 C1 1.391 . S
C2 H58 0.947 . S
C2 C59 1.392 . S
C3 C4 1.391 . S
C3 C7 1.397 . S
C3 C59 1.419 . S
C4 C0 1.391 . S
C4 C3 1.391 . S
C4 C5 1.399 . S
C5 C4 1.399 . S
C5 C8 1.396 . S
C5 C17 1.453 . S
C5 C18 1.684 . S
H6 C30 0.948 . S
C7 C3 1.397 . S
C7 C8 1.394 . S
C7 C26 1.723 . S
C8 C5 1.396 . S
C8 C7 1.394 . S
C8 C38 1.723 . S
H9 C32 0.947 . S
H10 C33 0.948 . S
H11 C39 0.982 . S
H12 C40 0.979 . S
H13 C40 0.980 . S
H14 C40 0.983 . S
H15 C39 0.979 . S
H16 C39 0.977 . S
C17 C5 1.453 . S
C17 H46 0.982 . S
C17 H47 0.979 . S
C17 H48 0.977 . S
C18 C5 1.684 . S
C18 H43 0.979 . S
C18 H44 0.980 . S
C18 H45 0.983 . S
C19 C20 1.391 . S
C19 C24 1.391 . S
C19 H49 0.948 . S
C20 C19 1.391 . S
C20 C21 1.391 . S
C21 C20 1.391 . S
C21 C22 1.392 . S
C21 H50 0.947 . S
C22 C21 1.392 . S
C22 C23 1.419 . S
C22 H51 0.948 . S
C23 C22 1.419 . S
C23 C24 1.391 . S
C23 C27 1.389 1_556 S
C24 C19 1.391 . S
C24 C23 1.391 . S
C24 C25 1.399 1_556 S
C25 C24 1.399 1_554 S
C25 C26 1.396 . S
C25 C28 1.453 . S
C25 C29 1.684 . S
C26 C7 1.723 . S
C26 C25 1.396 . S
C26 C27 1.402 . S
C27 C23 1.389 1_554 S
C27 C26 1.402 . S
C27 C37 1.722 1_554 S
C28 C25 1.453 . S
C28 H52 0.982 . S
C28 H53 0.979 . S
C28 H54 0.977 . S
C29 C25 1.684 . S
C29 H55 0.979 . S
C29 H56 0.980 . S
C29 H57 0.983 . S
C30 H6 0.948 . S
C30 C31 1.391 1_556 S
C30 C35 1.391 . S
C31 C30 1.391 1_554 S
C31 C32 1.391 . S
C32 H9 0.947 . S
C32 C31 1.391 . S
C32 C33 1.392 . S
C33 H10 0.948 . S
C33 C32 1.392 . S
C33 C34 1.419 . S
C34 C33 1.419 . S
C34 C35 1.391 1_554 S
C34 C38 1.397 . S
C35 C30 1.391 . S
C35 C34 1.391 1_556 S
C35 C36 1.399 . S
C36 C35 1.399 . S
C36 C37 1.396 . S
C36 C39 1.453 . S
C36 C40 1.684 . S
C37 C27 1.722 1_556 S
C37 C36 1.396 . S
C37 C38 1.394 1_556 S
C38 C8 1.723 . S
C38 C34 1.397 . S
C38 C37 1.394 1_554 S
C39 H11 0.982 . S
C39 H15 0.979 . S
C39 H16 0.977 . S
C39 C36 1.453 . S
C40 H12 0.979 . S
C40 H13 0.980 . S
C40 H14 0.983 . S
C40 C36 1.684 . S
H41 C59 0.948 . S
H42 C0 0.948 . S
H43 C18 0.979 . S
H44 C18 0.980 . S
H45 C18 0.983 . S
H46 C17 0.982 . S
H47 C17 0.979 . S
H48 C17 0.977 . S
H49 C19 0.948 . S
H50 C21 0.947 . S
H51 C22 0.948 . S
H52 C28 0.982 . S
H53 C28 0.979 . S
H54 C28 0.977 . S
H55 C29 0.979 . S
H56 C29 0.980 . S
H57 C29 0.983 . S
H58 C2 0.947 . S
C59 C2 1.392 . S
C59 C3 1.419 . S
C59 H41 0.948 . S
C60 C61 1.391 . S
C60 C64 1.391 . S
C60 H102 0.948 . S
C61 C60 1.391 . S
C61 C62 1.391 . S
C62 C61 1.391 . S
C62 H118 0.947 . S
C62 C119 1.392 . S
C63 C64 1.391 . S
C63 C67 1.397 . S
C63 C119 1.419 . S
C64 C60 1.391 . S
C64 C63 1.391 . S
C64 C65 1.399 . S
C65 C64 1.399 . S
C65 C68 1.396 . S
C65 C77 1.453 . S
C65 C78 1.684 . S
H66 C90 0.948 . S
C67 C63 1.397 . S
C67 C68 1.394 . S
C67 C86 1.723 1_556 S
C68 C65 1.396 . S
C68 C67 1.394 . S
C68 C98 1.723 . S
H69 C92 0.947 . S
H70 C93 0.948 . S
H71 C99 0.982 . S
H72 C100 0.979 . S
H73 C100 0.980 . S
H74 C100 0.983 . S
H75 C99 0.979 . S
H76 C99 0.977 . S
C77 C65 1.453 . S
C77 H106 0.982 . S
C77 H107 0.979 . S
C77 H108 0.977 . S
C78 C65 1.684 . S
C78 H103 0.979 . S
C78 H104 0.980 . S
C78 H105 0.983 . S
C79 C80 1.391 . S
C79 C84 1.391 . S
C79 H109 0.948 . S
C80 C79 1.391 . S
C80 C81 1.391 . S
C81 C80 1.391 . S
C81 C82 1.392 . S
C81 H110 0.947 . S
C82 C81 1.392 . S
C82 C83 1.419 . S
C82 H111 0.948 . S
C83 C82 1.419 . S
C83 C84 1.391 . S
C83 C87 1.397 . S
C84 C79 1.391 . S
C84 C83 1.391 . S
C84 C85 1.399 . S
C85 C84 1.399 . S
C85 C86 1.396 . S
C85 C88 1.453 . S
C85 C89 1.684 . S
C86 C67 1.723 1_554 S
C86 C85 1.396 . S
C86 C87 1.394 . S
C87 C83 1.397 . S
C87 C86 1.394 . S
C87 C97 1.723 . S
C88 C85 1.453 . S
C88 H112 0.982 . S
C88 H113 0.979 . S
C88 H114 0.977 . S
C89 C85 1.684 . S
C89 H115 0.979 . S
C89 H116 0.980 . S
C89 H117 0.983 . S
C90 H66 0.948 . S
C90 C91 1.391 1_554 S
C90 C95 1.391 . S
C91 C90 1.391 1_556 S
C91 C92 1.391 . S
C92 H69 0.947 . S
C92 C91 1.391 . S
C92 C93 1.392 . S
C93 H70 0.948 . S
C93 C92 1.392 . S
C93 C94 1.419 . S
C94 C93 1.419 . S
C94 C95 1.391 1_556 S
C94 C98 1.397 . S
C95 C90 1.391 . S
C95 C94 1.391 1_554 S
C95 C96 1.399 . S
C96 C95 1.399 . S
C96 C97 1.396 . S
C96 C99 1.453 . S
C96 C100 1.684 . S
C97 C87 1.723 . S
C97 C96 1.396 . S
C97 C98 1.394 1_554 S
C98 C68 1.723 . S
C98 C94 1.397 . S
C98 C97 1.394 1_556 S
C99 H71 0.982 . S
C99 H75 0.979 . S
C99 H76 0.977 . S
C99 C96 1.453 . S
C100 H72 0.979 . S
C100 H73 0.980 . S
C100 H74 0.983 . S
C100 C96 1.684 . S
H101 C119 0.948 . S
H102 C60 0.948 . S
H103 C78 0.979 . S
H104 C78 0.980 . S
H105 C78 0.983 . S
H106 C77 0.982 . S
H107 C77 0.979 . S
H108 C77 0.977 . S
H109 C79 0.948 . S
H110 C81 0.947 . S
H111 C82 0.948 . S
H112 C88 0.982 . S
H113 C88 0.979 . S
H114 C88 0.977 . S
H115 C89 0.979 . S
H116 C89 0.980 . S
H117 C89 0.983 . S
H118 C62 0.947 . S
C119 C62 1.392 . S
C119 C63 1.419 . S
C119 H101 0.948 . S
C120 C121 1.391 . S
C120 C124 1.391 . S
C120 H162 0.948 . S
C121 C120 1.391 . S
C121 C122 1.391 1_554 S
C122 C121 1.391 1_556 S
C122 H178 0.947 . S
C122 C179 1.392 . S
C123 C124 1.391 . S
C123 C127 1.397 1_565 S
C123 C179 1.419 1_554 S
C124 C120 1.391 . S
C124 C123 1.391 . S
C124 C125 1.399 . S
C125 C124 1.399 . S
C125 C128 1.396 1_565 S
C125 C137 1.453 1_565 S
C125 C138 1.684 . S
H126 C150 0.948 . S
C127 C123 1.397 1_545 S
C127 C128 1.394 . S
C127 C146 1.722 . S
C128 C125 1.396 1_545 S
C128 C127 1.394 . S
C128 C158 1.723 . S
H129 C152 0.947 . S
H130 C153 0.948 . S
H131 C159 0.982 . S
H132 C160 0.979 . S
H133 C160 0.980 . S
H134 C160 0.983 . S
H135 C159 0.979 . S
H136 C159 0.977 . S
C137 C125 1.453 1_545 S
C137 H166 0.982 . S
C137 H167 0.979 . S
C137 H168 0.977 . S
C138 C125 1.684 . S
C138 H163 0.979 . S
C138 H164 0.980 . S
C138 H165 0.983 . S
C139 C140 1.391 . S
C139 C144 1.391 . S
C139 H169 0.948 . S
C140 C139 1.391 . S
C140 C141 1.391 . S
C141 C140 1.391 . S
C141 C142 1.392 1_556 S
C141 H170 0.947 . S
C142 C141 1.392 1_554 S
C142 C143 1.419 . S
C142 H171 0.948 . S
C143 C142 1.419 . S
C143 C144 1.391 1_554 S
C143 C147 1.397 1_565 S
C144 C139 1.391 . S
C144 C143 1.391 1_556 S
C144 C145 1.399 . S
C145 C144 1.399 . S
C145 C146 1.396 1_566 S
C145 C148 1.453 1_565 S
C145 C149 1.684 . S
C146 C127 1.722 . S
C146 C145 1.396 1_544 S
C146 C147 1.394 . S
C147 C143 1.397 1_545 S
C147 C146 1.394 . S
C147 C157 1.723 . S
C148 C145 1.453 1_545 S
C148 H172 0.982 . S
C148 H173 0.979 . S
C148 H174 0.977 . S
C149 C145 1.684 . S
C149 H175 0.979 . S
C149 H176 0.980 . S
C149 H177 0.983 . S
C150 H126 0.948 . S
C150 C151 1.391 . S
C150 C155 1.391 . S
C151 C150 1.391 . S
C151 C152 1.391 . S
C152 H129 0.947 . S
C152 C151 1.391 . S
C152 C153 1.392 . S
C153 H130 0.948 . S
C153 C152 1.392 . S
C153 C154 1.419 . S
C154 C153 1.419 . S
C154 C155 1.391 . S
C154 C158 1.397 1_565 S
C155 C150 1.391 . S
C155 C154 1.391 . S
C155 C156 1.399 . S
C156 C155 1.399 . S
C156 C157 1.396 1_565 S
C156 C159 1.453 1_565 S
C156 C160 1.684 . S
C157 C147 1.723 . S
C157 C156 1.396 1_545 S
C157 C158 1.394 . S
C158 C128 1.723 . S
C158 C154 1.397 1_545 S
C158 C157 1.394 . S
C159 H131 0.982 . S
C159 H135 0.979 . S
C159 H136 0.977 . S
C159 C156 1.453 1_545 S
C160 H132 0.979 . S
C160 H133 0.980 . S
C160 H134 0.983 . S
C160 C156 1.684 . S
H161 C179 0.948 . S
H162 C120 0.948 . S
H163 C138 0.979 . S
H164 C138 0.980 . S
H165 C138 0.983 . S
H166 C137 0.982 . S
H167 C137 0.979 . S
H168 C137 0.977 . S
H169 C139 0.948 . S
H170 C141 0.947 . S
H171 C142 0.948 . S
H172 C148 0.982 . S
H173 C148 0.979 . S
H174 C148 0.977 . S
H175 C149 0.979 . S
H176 C149 0.980 . S
H177 C149 0.983 . S
H178 C122 0.947 . S
C179 C122 1.392 . S
C179 C123 1.419 1_556 S
C179 H161 0.948 . S
C180 C181 1.391 . S
C180 C184 1.391 . S
C180 H222 0.948 . S
C181 C180 1.391 . S
C181 C182 1.391 . S
C182 C181 1.391 . S
C182 H238 0.947 . S
C182 C239 1.392 . S
C183 C184 1.391 . S
C183 C187 1.397 . S
C183 C239 1.419 . S
C184 C180 1.391 . S
C184 C183 1.391 . S
C184 C185 1.399 . S
C185 C184 1.399 . S
C185 C188 1.396 . S
C185 C197 1.453 . S
C185 C198 1.684 . S
H186 C210 0.948 . S
C187 C183 1.397 . S
C187 C188 1.394 . S
C187 C206 1.723 . S
C188 C185 1.396 . S
C188 C187 1.394 . S
C188 C218 1.723 . S
H189 C212 0.947 . S
H190 C213 0.948 . S
H191 C219 0.982 . S
H192 C220 0.979 . S
H193 C220 0.980 . S
H194 C220 0.983 . S
H195 C219 0.979 . S
H196 C219 0.977 . S
C197 C185 1.453 . S
C197 H226 0.982 . S
C197 H227 0.979 . S
C197 H228 0.977 . S
C198 C185 1.684 . S
C198 H223 0.979 . S
C198 H224 0.980 . S
C198 H225 0.983 . S
C199 C200 1.391 . S
C199 C204 1.391 . S
C199 H229 0.948 . S
C200 C199 1.391 . S
C200 C201 1.391 . S
C201 C200 1.391 . S
C201 C202 1.392 . S
C201 H230 0.947 . S
C202 C201 1.392 . S
C202 C203 1.419 . S
C202 H231 0.948 . S
C203 C202 1.419 . S
C203 C204 1.391 . S
C203 C207 1.397 1_556 S
C204 C199 1.391 . S
C204 C203 1.391 . S
C204 C205 1.399 1_556 S
C205 C204 1.399 1_554 S
C205 C206 1.396 . S
C205 C208 1.453 . S
C205 C209 1.684 . S
C206 C187 1.723 . S
C206 C205 1.396 . S
C206 C207 1.394 . S
C207 C203 1.397 1_554 S
C207 C206 1.394 . S
C207 C217 1.723 . S
C208 C205 1.453 . S
C208 H232 0.982 . S
C208 H233 0.979 . S
C208 H234 0.977 . S
C209 C205 1.684 . S
C209 H235 0.979 . S
C209 H236 0.980 . S
C209 H237 0.983 . S
C210 H186 0.948 . S
C210 C211 1.391 1_556 S
C210 C215 1.391 1_556 S
C211 C210 1.391 1_554 S
C211 C212 1.391 . S
C212 H189 0.947 . S
C212 C211 1.391 . S
C212 C213 1.392 . S
C213 H190 0.948 . S
C213 C212 1.392 . S
C213 C214 1.419 . S
C214 C213 1.419 . S
C214 C215 1.391 . S
C214 C218 1.397 . S
C215 C210 1.391 1_554 S
C215 C214 1.391 . S
C215 C216 1.399 1_554 S
C216 C215 1.399 1_556 S
C216 C217 1.396 1_556 S
C216 C219 1.453 . S
C216 C220 1.684 . S
C217 C207 1.723 . S
C217 C216 1.396 1_554 S
C217 C218 1.394 . S
C218 C188 1.723 . S
C218 C214 1.397 . S
C218 C217 1.394 . S
C219 H191 0.982 . S
C219 H195 0.979 . S
C219 H196 0.977 . S
C219 C216 1.453 . S
C220 H192 0.979 . S
C220 H193 0.980 . S
C220 H194 0.983 . S
C220 C216 1.684 . S
H221 C239 0.948 . S
H222 C180 0.948 . S
H223 C198 0.979 . S
H224 C198 0.980 . S
H225 C198 0.983 . S
H226 C197 0.982 . S
H227 C197 0.979 . S
H228 C197 0.977 . S
H229 C199 0.948 . S
H230 C201 0.947 . S
H231 C202 0.948 . S
H232 C208 0.982 . S
H233 C208 0.979 . S
H234 C208 0.977 . S
H235 C209 0.979 . S
H236 C209 0.980 . S
H237 C209 0.983 . S
H238 C182 0.947 . S
C239 C182 1.392 . S
C239 C183 1.419 . S
C239 H221 0.948 . S
C240 C241 1.391 . S
C240 C244 1.391 . S
C240 H282 0.948 . S
C241 C240 1.391 . S
C241 C242 1.391 . S
C242 C241 1.391 . S
C242 H298 0.947 . S
C242 C299 1.392 . S
C243 C244 1.391 . S
C243 C247 1.397 . S
C243 C299 1.419 . S
C244 C240 1.391 . S
C244 C243 1.391 . S
C244 C245 1.399 . S
C245 C244 1.399 . S
C245 C248 1.396 . S
C245 C257 1.453 . S
C245 C258 1.684 . S
H246 C270 0.948 . S
C247 C243 1.397 . S
C247 C248 1.394 . S
C247 C266 1.723 . S
C248 C245 1.396 . S
C248 C247 1.394 . S
C248 C278 1.723 . S
H249 C272 0.947 . S
H250 C273 0.948 . S
H251 C279 0.982 . S
H252 C280 0.979 . S
H253 C280 0.980 . S
H254 C280 0.983 . S
H255 C279 0.979 . S
H256 C279 0.977 . S
C257 C245 1.453 . S
C257 H286 0.982 . S
C257 H287 0.979 . S
C257 H288 0.977 . S
C258 C245 1.684 . S
C258 H283 0.979 . S
C258 H284 0.980 . S
C258 H285 0.983 . S
C259 C260 1.391 . S
C259 C264 1.391 . S
C259 H289 0.948 . S
C260 C259 1.391 . S
C260 C261 1.391 . S
C261 C260 1.391 . S
C261 C262 1.392 . S
C261 H290 0.947 . S
C262 C261 1.392 . S
C262 C263 1.419 . S
C262 H291 0.948 . S
C263 C262 1.419 . S
C263 C264 1.391 . S
C263 C267 1.397 . S
C264 C259 1.391 . S
C264 C263 1.391 . S
C264 C265 1.399 . S
C265 C264 1.399 . S
C265 C266 1.396 . S
C265 C268 1.453 . S
C265 C269 1.684 . S
C266 C247 1.723 . S
C266 C265 1.396 . S
C266 C267 1.394 . S
C267 C263 1.397 . S
C267 C266 1.394 . S
C267 C277 1.723 . S
C268 C265 1.453 . S
C268 H292 0.982 . S
C268 H293 0.979 . S
C268 H294 0.977 . S
C269 C265 1.684 . S
C269 H295 0.979 . S
C269 H296 0.980 . S
C269 H297 0.983 . S
C270 H246 0.948 . S
C270 C271 1.391 . S
C270 C275 1.391 . S
C271 C270 1.391 . S
C271 C272 1.391 . S
C272 H249 0.947 . S
C272 C271 1.391 . S
C272 C273 1.392 . S
C273 H250 0.948 . S
C273 C272 1.392 . S
C273 C274 1.419 . S
C274 C273 1.419 . S
C274 C275 1.391 . S
C274 C278 1.397 . S
C275 C270 1.391 . S
C275 C274 1.391 . S
C275 C276 1.399 . S
C276 C275 1.399 . S
C276 C277 1.396 . S
C276 C279 1.453 . S
C276 C280 1.684 . S
C277 C267 1.723 . S
C277 C276 1.396 . S
C277 C278 1.394 . S
C278 C248 1.723 . S
C278 C274 1.397 . S
C278 C277 1.394 . S
C279 H251 0.982 . S
C279 H255 0.979 . S
C279 H256 0.977 . S
C279 C276 1.453 . S
C280 H252 0.979 . S
C280 H253 0.980 . S
C280 H254 0.983 . S
C280 C276 1.684 . S
H281 C299 0.948 . S
H282 C240 0.948 . S
H283 C258 0.979 . S
H284 C258 0.980 . S
H285 C258 0.983 . S
H286 C257 0.982 . S
H287 C257 0.979 . S
H288 C257 0.977 . S
H289 C259 0.948 . S
H290 C261 0.947 . S
H291 C262 0.948 . S
H292 C268 0.982 . S
H293 C268 0.979 . S
H294 C268 0.977 . S
H295 C269 0.979 . S
H296 C269 0.980 . S
H297 C269 0.983 . S
H298 C242 0.947 . S
C299 C242 1.392 . S
C299 C243 1.419 . S
C299 H281 0.948 . S
C300 C301 1.391 . S
C300 C304 1.391 . S
C300 H342 0.948 . S
C301 C300 1.391 . S
C301 C302 1.391 . S
C302 C301 1.391 . S
C302 H358 0.947 . S
C302 C359 1.392 . S
C303 C304 1.391 . S
C303 C307 1.397 . S
C303 C359 1.419 . S
C304 C300 1.391 . S
C304 C303 1.391 . S
C304 C305 1.399 . S
C305 C304 1.399 . S
C305 C308 1.396 . S
C305 C317 1.453 . S
C305 C318 1.684 . S
H306 C330 0.948 . S
C307 C303 1.397 . S
C307 C308 1.394 . S
C307 C326 1.723 . S
C308 C305 1.396 . S
C308 C307 1.394 . S
C308 C338 1.723 . S
H309 C332 0.947 . S
H310 C333 0.948 . S
H311 C339 0.982 . S
H312 C340 0.979 . S
H313 C340 0.980 . S
H314 C340 0.983 . S
H315 C339 0.979 . S
H316 C339 0.977 . S
C317 C305 1.453 . S
C317 H346 0.982 . S
C317 H347 0.979 . S
C317 H348 0.977 . S
C318 C305 1.684 . S
C318 H343 0.979 . S
C318 H344 0.980 . S
C318 H345 0.983 . S
C319 C320 1.391 . S
C319 C324 1.391 . S
C319 H349 0.948 . S
C320 C319 1.391 . S
C320 C321 1.391 . S
C321 C320 1.391 . S
C321 C322 1.392 . S
C321 H350 0.947 . S
C322 C321 1.392 . S
C322 C323 1.419 . S
C322 H351 0.948 . S
C323 C322 1.419 . S
C323 C324 1.391 . S
C323 C327 1.397 . S
C324 C319 1.391 . S
C324 C323 1.391 . S
C324 C325 1.399 . S
C325 C324 1.399 . S
C325 C326 1.396 . S
C325 C328 1.453 . S
C325 C329 1.684 . S
C326 C307 1.723 . S
C326 C325 1.396 . S
C326 C327 1.394 . S
C327 C323 1.397 . S
C327 C326 1.394 . S
C327 C337 1.723 . S
C328 C325 1.453 . S
C328 H352 0.982 . S
C328 H353 0.979 . S
C328 H354 0.977 . S
C329 C325 1.684 . S
C329 H355 0.979 . S
C329 H356 0.980 . S
C329 H357 0.983 . S
C330 H306 0.948 . S
C330 C331 1.391 . S
C330 C335 1.391 . S
C331 C330 1.391 . S
C331 C332 1.391 . S
C332 H309 0.947 . S
C332 C331 1.391 . S
C332 C333 1.392 . S
C333 H310 0.948 . S
C333 C332 1.392 . S
C333 C334 1.419 . S
C334 C333 1.419 . S
C334 C335 1.391 . S
C334 C338 1.397 . S
C335 C330 1.391 . S
C335 C334 1.391 . S
C335 C336 1.399 . S
C336 C335 1.399 . S
C336 C337 1.396 . S
C336 C339 1.453 . S
C336 C340 1.684 . S
C337 C327 1.723 . S
C337 C336 1.396 . S
C337 C338 1.394 . S
C338 C308 1.723 . S
C338 C334 1.397 . S
C338 C337 1.394 . S
C339 H311 0.982 . S
C339 H315 0.979 . S
C339 H316 0.977 . S
C339 C336 1.453 . S
C340 H312 0.979 . S
C340 H313 0.980 . S
C340 H314 0.983 . S
C340 C336 1.684 . S
H341 C359 0.948 . S
H342 C300 0.948 . S
H343 C318 0.979 . S
H344 C318 0.980 . S
H345 C318 0.983 . S
H346 C317 0.982 . S
H347 C317 0.979 . S
H348 C317 0.977 . S
H349 C319 0.948 . S
H350 C321 0.947 . S
H351 C322 0.948 . S
H352 C328 0.982 . S
H353 C328 0.979 . S
H354 C328 0.977 . S
H355 C329 0.979 . S
H356 C329 0.980 . S
H357 C329 0.983 . S
H358 C302 0.947 . S
C359 C302 1.392 . S
C359 C303 1.419 . S
C359 H341 0.948 . S
C360 C361 1.391 . S
C360 C364 1.391 . S
C360 H402 0.948 . S
C361 C360 1.391 . S
C361 C362 1.391 . S
C362 C361 1.391 . S
C362 H418 0.947 . S
C362 C419 1.392 . S
C363 C364 1.391 . S
C363 C367 1.397 . S
C363 C419 1.419 . S
C364 C360 1.391 . S
C364 C363 1.391 . S
C364 C365 1.399 . S
C365 C364 1.399 . S
C365 C368 1.396 . S
C365 C377 1.453 1_545 S
C365 C378 1.684 . S
H366 C390 0.948 . S
C367 C363 1.397 . S
C367 C368 1.394 . S
C367 C386 1.723 . S
C368 C365 1.396 . S
C368 C367 1.394 . S
C368 C398 1.723 . S
H369 C392 0.947 . S
H370 C393 0.948 . S
H371 C399 0.982 . S
H372 C400 0.979 . S
H373 C400 0.980 . S
H374 C400 0.983 . S
H375 C399 0.979 . S
H376 C399 0.977 . S
C377 C365 1.453 1_565 S
C377 H406 0.982 . S
C377 H407 0.979 . S
C377 H408 0.977 . S
C378 C365 1.684 . S
C378 H403 0.979 . S
C378 H404 0.980 . S
C378 H405 0.983 . S
C379 C380 1.391 . S
C379 C384 1.391 . S
C379 H409 0.948 . S
C380 C379 1.391 . S
C380 C381 1.391 . S
C381 C380 1.391 . S
C381 C382 1.392 . S
C381 H410 0.947 . S
C382 C381 1.392 . S
C382 C383 1.419 . S
C382 H411 0.948 . S
C383 C382 1.419 . S
C383 C384 1.391 . S
C383 C387 1.397 . S
C384 C379 1.391 . S
C384 C383 1.391 . S
C384 C385 1.399 . S
C385 C384 1.399 . S
C385 C386 1.396 . S
C385 C388 1.453 1_545 S
C385 C389 1.684 . S
C386 C367 1.723 . S
C386 C385 1.396 . S
C386 C387 1.394 . S
C387 C383 1.397 . S
C387 C386 1.394 . S
C387 C397 1.723 . S
C388 C385 1.453 1_565 S
C388 H412 0.982 . S
C388 H413 0.979 . S
C388 H414 0.977 . S
C389 C385 1.684 . S
C389 H415 0.979 . S
C389 H416 0.980 . S
C389 H417 0.983 . S
C390 H366 0.948 . S
C390 C391 1.391 . S
C390 C395 1.391 . S
C391 C390 1.391 . S
C391 C392 1.391 . S
C392 H369 0.947 . S
C392 C391 1.391 . S
C392 C393 1.392 . S
C393 H370 0.948 . S
C393 C392 1.392 . S
C393 C394 1.419 . S
C394 C393 1.419 . S
C394 C395 1.391 . S
C394 C398 1.397 . S
C395 C390 1.391 . S
C395 C394 1.391 . S
C395 C396 1.399 . S
C396 C395 1.399 . S
C396 C397 1.396 . S
C396 C399 1.453 1_545 S
C396 C400 1.684 . S
C397 C387 1.723 . S
C397 C396 1.396 . S
C397 C398 1.394 . S
C398 C368 1.723 . S
C398 C394 1.397 . S
C398 C397 1.394 . S
C399 H371 0.982 . S
C399 H375 0.979 . S
C399 H376 0.977 . S
C399 C396 1.453 1_565 S
C400 H372 0.979 . S
C400 H373 0.980 . S
C400 H374 0.983 . S
C400 C396 1.684 . S
H401 C419 0.948 . S
H402 C360 0.948 . S
H403 C378 0.979 . S
H404 C378 0.980 . S
H405 C378 0.983 . S
H406 C377 0.982 . S
H407 C377 0.979 . S
H408 C377 0.977 . S
H409 C379 0.948 . S
H410 C381 0.947 . S
H411 C382 0.948 . S
H412 C388 0.982 . S
H413 C388 0.979 . S
H414 C388 0.977 . S
H415 C389 0.979 . S
H416 C389 0.980 . S
H417 C389 0.983 . S
H418 C362 0.947 . S
C419 C362 1.392 . S
C419 C363 1.419 . S
C419 H401 0.948 . S
C420 C421 1.391 . S
C420 C424 1.391 . S
C420 H462 0.948 . S
C421 C420 1.391 . S
C421 C422 1.391 . S
C422 C421 1.391 . S
C422 H478 0.947 . S
C422 C479 1.392 . S
C423 C424 1.391 . S
C423 C427 1.397 . S
C423 C479 1.419 . S
C424 C420 1.391 . S
C424 C423 1.391 . S
C424 C425 1.399 . S
C425 C424 1.399 . S
C425 C428 1.396 . S
C425 C437 1.453 . S
C425 C438 1.684 . S
H426 C450 0.948 . S
C427 C423 1.397 . S
C427 C428 1.394 . S
C427 C446 1.723 . S
C428 C425 1.396 . S
C428 C427 1.394 . S
C428 C458 1.723 . S
H429 C452 0.947 . S
H430 C453 0.948 . S
H431 C459 0.982 . S
H432 C460 0.979 . S
H433 C460 0.980 . S
H434 C460 0.983 . S
H435 C459 0.979 . S
H436 C459 0.977 . S
C437 C425 1.453 . S
C437 H466 0.982 . S
C437 H467 0.979 . S
C437 H468 0.977 . S
C438 C425 1.684 . S
C438 H463 0.979 . S
C438 H464 0.980 . S
C438 H465 0.983 . S
C439 C440 1.391 . S
C439 C444 1.391 . S
C439 H469 0.948 . S
C440 C439 1.391 . S
C440 C441 1.391 . S
C441 C440 1.391 . S
C441 C442 1.392 . S
C441 H470 0.947 . S
C442 C441 1.392 . S
C442 C443 1.419 . S
C442 H471 0.948 . S
C443 C442 1.419 . S
C443 C444 1.391 . S
C443 C447 1.397 . S
C444 C439 1.391 . S
C444 C443 1.391 . S
C444 C445 1.399 . S
C445 C444 1.399 . S
C445 C446 1.396 . S
C445 C448 1.453 . S
C445 C449 1.684 . S
C446 C427 1.723 . S
C446 C445 1.396 . S
C446 C447 1.394 . S
C447 C443 1.397 . S
C447 C446 1.394 . S
C447 C457 1.723 . S
C448 C445 1.453 . S
C448 H472 0.982 . S
C448 H473 0.979 . S
C448 H474 0.977 . S
C449 C445 1.684 . S
C449 H475 0.979 . S
C449 H476 0.980 . S
C449 H477 0.983 . S
C450 H426 0.948 . S
C450 C451 1.391 . S
C450 C455 1.391 . S
C451 C450 1.391 . S
C451 C452 1.391 . S
C452 H429 0.947 . S
C452 C451 1.391 . S
C452 C453 1.392 . S
C453 H430 0.948 . S
C453 C452 1.392 . S
C453 C454 1.419 . S
C454 C453 1.419 . S
C454 C455 1.391 . S
C454 C458 1.397 . S
C455 C450 1.391 . S
C455 C454 1.391 . S
C455 C456 1.399 . S
C456 C455 1.399 . S
C456 C457 1.396 . S
C456 C459 1.453 . S
C456 C460 1.684 . S
C457 C447 1.723 . S
C457 C456 1.396 . S
C457 C458 1.394 . S
C458 C428 1.723 . S
C458 C454 1.397 . S
C458 C457 1.394 . S
C459 H431 0.982 . S
C459 H435 0.979 . S
C459 H436 0.977 . S
C459 C456 1.453 . S
C460 H432 0.979 . S
C460 H433 0.980 . S
C460 H434 0.983 . S
C460 C456 1.684 . S
H461 C479 0.948 . S
H462 C420 0.948 . S
H463 C438 0.979 . S
H464 C438 0.980 . S
H465 C438 0.983 . S
H466 C437 0.982 . S
H467 C437 0.979 . S
H468 C437 0.977 . S
H469 C439 0.948 . S
H470 C441 0.947 . S
H471 C442 0.948 . S
H472 C448 0.982 . S
H473 C448 0.979 . S
H474 C448 0.977 . S
H475 C449 0.979 . S
H476 C449 0.980 . S
H477 C449 0.983 . S
H478 C422 0.947 . S
C479 C422 1.392 . S
C479 C423 1.419 . S
C479 H461 0.948 . S
Tb480 O483 2.453 1_665 S
Tb480 O484 2.596 1_665 S
Tb480 O485 2.374 1_655 S
Tb480 O493 2.343 . S
Tb480 O495 2.353 1_565 S
Tb480 O497 2.427 . S
Tb480 O498 2.513 . S
C481 O485 1.251 . S
C481 O487 1.263 . S
Tb482 O484 2.343 . S
Tb482 O487 2.353 1_545 S
Tb482 O490 2.427 . S
Tb482 O491 2.513 . S
Tb482 O492 2.453 1_545 S
Tb482 O493 2.596 1_445 S
Tb482 O494 2.374 1_455 S
O483 Tb480 2.453 1_445 S
O483 C499 1.245 . S
O484 Tb480 2.596 1_445 S
O484 Tb482 2.343 . S
O484 C499 1.259 . S
O485 Tb480 2.374 1_455 S
O485 C481 1.251 . S
C486 O490 1.275 . S
C486 O491 1.246 . S
O487 C481 1.263 . S
O487 Tb482 2.353 1_565 S
C488 O492 1.245 1_655 S
C488 O493 1.259 . S
C489 O494 1.250 . S
C489 O495 1.263 . S
O490 Tb482 2.427 . S
O490 C486 1.275 . S
O491 Tb482 2.513 . S
O491 C486 1.246 . S
O492 Tb482 2.453 1_565 S
O492 C488 1.245 1_455 S
O493 Tb480 2.343 . S
O493 Tb482 2.596 1_665 S
O493 C488 1.259 . S
O494 Tb482 2.374 1_655 S
O494 C489 1.250 . S
O495 Tb480 2.353 1_545 S
O495 C489 1.263 . S
C496 O497 1.275 . S
C496 O498 1.246 . S
O497 Tb480 2.427 . S
O497 C496 1.275 . S
O498 Tb480 2.513 . S
O498 C496 1.246 . S
C499 O483 1.245 . S
C499 O484 1.259 . S
Tb500 O503 2.453 . S
Tb500 O504 2.596 1_545 S
Tb500 O505 2.374 . S
Tb500 O513 2.343 . S
Tb500 O515 2.353 . S
Tb500 O517 2.427 . S
Tb500 O518 2.513 . S
C501 O505 1.270 . S
C501 O507 1.244 1_545 S
Tb502 O504 2.343 . S
Tb502 O507 2.353 . S
Tb502 O510 2.427 . S
Tb502 O511 2.513 . S
Tb502 O512 2.453 . S
Tb502 O513 2.596 1_565 S
Tb502 O514 2.374 . S
O503 Tb500 2.453 . S
O503 C519 1.245 . S
O504 Tb500 2.596 1_565 S
O504 Tb502 2.343 . S
O504 C519 1.259 1_565 S
O505 Tb500 2.374 . S
O505 C501 1.270 . S
C506 O510 1.275 . S
C506 O511 1.246 . S
O507 C501 1.244 1_565 S
O507 Tb502 2.353 . S
C508 O512 1.245 . S
C508 O513 1.259 1_565 S
C509 O514 1.250 1_545 S
C509 O515 1.263 . S
O510 Tb502 2.427 . S
O510 C506 1.275 . S
O511 Tb502 2.513 . S
O511 C506 1.246 . S
O512 Tb502 2.453 . S
O512 C508 1.245 . S
O513 Tb500 2.343 . S
O513 Tb502 2.596 1_545 S
O513 C508 1.259 1_545 S
O514 Tb502 2.374 . S
O514 C509 1.250 1_565 S
O515 Tb500 2.353 . S
O515 C509 1.263 . S
C516 O517 1.275 . S
C516 O518 1.246 . S
O517 Tb500 2.427 . S
O517 C516 1.275 . S
O518 Tb500 2.513 . S
O518 C516 1.246 . S
C519 O503 1.245 . S
C519 O504 1.259 1_545 S
Tb520 O523 2.453 . S
Tb520 O524 2.596 . S
Tb520 O525 2.374 . S
Tb520 O533 2.343 . S
Tb520 O535 2.353 . S
Tb520 O537 2.427 . S
Tb520 O538 2.513 . S
C521 O525 1.251 . S
C521 O527 1.263 . S
Tb522 O524 2.343 . S
Tb522 O527 2.353 . S
Tb522 O530 2.427 . S
Tb522 O531 2.513 . S
Tb522 O532 2.453 . S
Tb522 O533 2.596 . S
Tb522 O534 2.374 . S
O523 Tb520 2.453 . S
O523 C539 1.245 . S
O524 Tb520 2.596 . S
O524 Tb522 2.343 . S
O524 C539 1.259 . S
O525 Tb520 2.374 . S
O525 C521 1.251 . S
C526 O530 1.275 . S
C526 O531 1.246 . S
O527 C521 1.263 . S
O527 Tb522 2.353 . S
C528 O532 1.245 . S
C528 O533 1.259 . S
C529 O534 1.250 . S
C529 O535 1.263 . S
O530 Tb522 2.427 . S
O530 C526 1.275 . S
O531 Tb522 2.513 . S
O531 C526 1.246 . S
O532 Tb522 2.453 . S
O532 C528 1.245 . S
O533 Tb520 2.343 . S
O533 Tb522 2.596 . S
O533 C528 1.259 . S
O534 Tb522 2.374 . S
O534 C529 1.250 . S
O535 Tb520 2.353 . S
O535 C529 1.263 . S
C536 O537 1.275 . S
C536 O538 1.246 . S
O537 Tb520 2.427 . S
O537 C536 1.275 . S
O538 Tb520 2.513 . S
O538 C536 1.246 . S
C539 O523 1.245 . S
C539 O524 1.259 . S
Tb540 O543 2.453 1_655 S
Tb540 O544 2.596 1_655 S
Tb540 O545 2.374 1_655 S
Tb540 O553 2.343 . S
Tb540 O555 2.353 . S
Tb540 O557 2.427 . S
Tb540 O558 2.513 . S
C541 O545 1.251 . S
C541 O547 1.263 . S
Tb542 O544 2.343 . S
Tb542 O547 2.353 . S
Tb542 O550 2.427 . S
Tb542 O551 2.513 . S
Tb542 O552 2.453 1_455 S
Tb542 O553 2.596 1_455 S
Tb542 O554 2.374 . S
O543 Tb540 2.453 1_455 S
O543 C559 1.245 . S
O544 Tb540 2.596 1_455 S
O544 Tb542 2.343 . S
O544 C559 1.259 . S
O545 Tb540 2.374 1_455 S
O545 C541 1.251 . S
C546 O550 1.275 . S
C546 O551 1.246 . S
O547 C541 1.263 . S
O547 Tb542 2.353 . S
C548 O552 1.245 . S
C548 O553 1.259 . S
C549 O554 1.250 1_655 S
C549 O555 1.263 . S
O550 Tb542 2.427 . S
O550 C546 1.275 . S
O551 Tb542 2.513 . S
O551 C546 1.246 . S
O552 Tb542 2.453 1_655 S
O552 C548 1.245 . S
O553 Tb540 2.343 . S
O553 Tb542 2.596 1_655 S
O553 C548 1.259 . S
O554 Tb542 2.374 . S
O554 C549 1.250 1_455 S
O555 Tb540 2.353 . S
O555 C549 1.263 . S
C556 O557 1.275 . S
C556 O558 1.246 . S
O557 Tb540 2.427 . S
O557 C556 1.275 . S
O558 Tb540 2.513 . S
O558 C556 1.246 . S
C559 O543 1.245 . S
C559 O544 1.259 . S
H560 C566 0.930 . S
H561 C570 0.930 . S
H562 C575 0.929 . S
H563 C573 0.929 . S
H564 C568 0.929 . S
H565 C574 0.929 . S
C566 H560 0.930 . S
C566 C567 1.367 1_565 S
C566 C574 1.378 . S
C567 C566 1.367 1_545 S
C567 C575 1.433 . S
C568 H564 0.929 . S
C568 C570 1.378 . S
C568 C572 1.345 1_545 S
C569 C572 1.462 . S
C569 C574 1.361 . S
C569 N577 1.416 1_565 S
C570 H561 0.930 . S
C570 C568 1.378 . S
C570 C571 1.367 1_545 S
C571 C570 1.367 1_565 S
C571 C573 1.433 . S
C572 C568 1.345 1_565 S
C572 C569 1.462 . S
C572 N576 1.433 . S
C573 H563 0.929 . S
C573 C571 1.433 . S
C573 N576 1.384 . S
C574 H565 0.929 . S
C574 C566 1.378 . S
C574 C569 1.361 . S
C575 H562 0.929 . S
C575 C567 1.433 . S
C575 N577 1.384 . S
N576 C572 1.433 . S
N576 C573 1.384 . S
N577 C569 1.416 1_545 S
N577 C575 1.384 . S
H578 C584 0.930 . S
H579 C588 0.930 . S
H580 C593 0.929 . S
H581 C591 0.929 . S
H582 C586 0.929 . S
H583 C592 0.929 . S
C584 H578 0.930 . S
C584 C585 1.367 . S
C584 C592 1.378 . S
C585 C584 1.367 . S
C585 C593 1.433 . S
C586 H582 0.929 . S
C586 C588 1.378 . S
C586 C590 1.350 . S
C587 C590 1.463 . S
C587 C592 1.350 . S
C587 N595 1.427 . S
C588 H579 0.930 . S
C588 C586 1.378 . S
C588 C589 1.367 . S
C589 C588 1.367 . S
C589 C591 1.433 . S
C590 C586 1.350 . S
C590 C587 1.463 . S
C590 N594 1.427 . S
C591 H581 0.929 . S
C591 C589 1.433 . S
C591 N594 1.384 . S
C592 H583 0.929 . S
C592 C584 1.378 . S
C592 C587 1.350 . S
C593 H580 0.929 . S
C593 C585 1.433 . S
C593 N595 1.384 . S
N594 C590 1.427 . S
N594 C591 1.384 . S
N595 C587 1.427 . S
N595 C593 1.384 . S
H596 C602 0.930 . S
H597 C606 0.930 . S
H598 C611 0.929 . S
H599 C609 0.929 . S
H600 C604 0.929 . S
H601 C610 0.929 . S
C602 H596 0.930 . S
C602 C603 1.367 . S
C602 C610 1.378 . S
C603 C602 1.367 . S
C603 C611 1.433 . S
C604 H600 0.929 . S
C604 C606 1.378 . S
C604 C608 1.350 . S
C605 C608 1.463 . S
C605 C610 1.350 . S
C605 N613 1.427 . S
C606 H597 0.930 . S
C606 C604 1.378 . S
C606 C607 1.367 . S
C607 C606 1.367 . S
C607 C609 1.433 . S
C608 C604 1.350 . S
C608 C605 1.463 . S
C608 N612 1.427 . S
C609 H599 0.929 . S
C609 C607 1.433 . S
C609 N612 1.384 . S
C610 H601 0.929 . S
C610 C602 1.378 . S
C610 C605 1.350 . S
C611 H598 0.929 . S
C611 C603 1.433 . S
C611 N613 1.384 . S
N612 C608 1.427 . S
N612 C609 1.384 . S
N613 C605 1.427 . S
N613 C611 1.384 . S
H614 C620 0.930 . S
H615 C624 0.930 . S
H616 C629 0.929 . S
H617 C627 0.929 . S
H618 C622 0.929 . S
H619 C628 0.929 . S
C620 H614 0.930 . S
C620 C621 1.367 . S
C620 C628 1.378 . S
C621 C620 1.367 . S
C621 C629 1.433 . S
C622 H618 0.929 . S
C622 C624 1.378 . S
C622 C626 1.350 . S
C623 C626 1.463 . S
C623 C628 1.350 . S
C623 N631 1.427 . S
C624 H615 0.930 . S
C624 C622 1.378 . S
C624 C625 1.367 . S
C625 C624 1.367 . S
C625 C627 1.433 . S
C626 C622 1.350 . S
C626 C623 1.463 . S
C626 N630 1.427 . S
C627 H617 0.929 . S
C627 C625 1.433 . S
C627 N630 1.384 . S
C628 H619 0.929 . S
C628 C620 1.378 . S
C628 C623 1.350 . S
C629 H616 0.929 . S
C629 C621 1.433 . S
C629 N631 1.384 . S
N630 C626 1.427 . S
N630 C627 1.384 . S
N631 C623 1.427 . S
N631 C629 1.384 . S
H632 C638 0.930 . S
H633 C642 0.930 . S
H634 C647 0.929 . S
H635 C645 0.929 . S
H636 C640 0.929 . S
H637 C646 0.929 . S
C638 H632 0.930 . S
C638 C639 1.361 1_565 S
C638 C646 1.378 1_554 S
C639 C638 1.361 1_545 S
C639 C647 1.439 1_554 S
C640 H636 0.929 . S
C640 C642 1.378 . S
C640 C644 1.350 . S
C641 C644 1.463 . S
C641 C646 1.350 1_545 S
C641 N649 1.427 . S
C642 H633 0.930 . S
C642 C640 1.378 . S
C642 C643 1.367 . S
C643 C642 1.367 . S
C643 C645 1.433 1_545 S
C644 C640 1.350 . S
C644 C641 1.463 . S
C644 N648 1.427 1_545 S
C645 H635 0.929 . S
C645 C643 1.433 1_565 S
C645 N648 1.384 . S
C646 H637 0.929 . S
C646 C638 1.378 1_556 S
C646 C641 1.350 1_565 S
C647 H634 0.929 . S
C647 C639 1.439 1_556 S
C647 N649 1.384 . S
N648 C644 1.427 1_565 S
N648 C645 1.384 . S
N649 C641 1.427 . S
N649 C647 1.384 . S
H650 C656 0.930 1_554 S
H651 C660 0.930 . S
H652 C665 0.929 . S
H653 C663 0.929 . S
H654 C658 0.929 . S
H655 C664 0.929 . S
C656 H650 0.930 1_556 S
C656 C657 1.367 . S
C656 C664 1.378 . S
C657 C656 1.367 . S
C657 C665 1.433 . S
C658 H654 0.929 . S
C658 C660 1.378 . S
C658 C662 1.350 . S
C659 C662 1.463 . S
C659 C664 1.350 . S
C659 N667 1.427 . S
C660 H651 0.930 . S
C660 C658 1.378 . S
C660 C661 1.367 . S
C661 C660 1.367 . S
C661 C663 1.433 . S
C662 C658 1.350 . S
C662 C659 1.463 . S
C662 N666 1.427 . S
C663 H653 0.929 . S
C663 C661 1.433 . S
C663 N666 1.384 . S
C664 H655 0.929 . S
C664 C656 1.378 . S
C664 C659 1.350 . S
C665 H652 0.929 . S
C665 C657 1.433 . S
C665 N667 1.384 . S
N666 C662 1.427 . S
N666 C663 1.384 . S
N667 C659 1.427 . S
N667 C665 1.384 . S
H668 C674 0.930 . S
H669 C678 0.930 . S
H670 C683 0.929 . S
H671 C681 0.929 . S
H672 C676 0.929 . S
H673 C682 0.929 . S
C674 H668 0.930 . S
C674 C675 1.367 . S
C674 C682 1.378 . S
C675 C674 1.367 . S
C675 C683 1.433 1_556 S
C676 H672 0.929 . S
C676 C678 1.378 . S
C676 C680 1.350 . S
C677 C680 1.463 . S
C677 C682 1.350 . S
C677 N685 1.427 . S
C678 H669 0.930 . S
C678 C676 1.378 . S
C678 C679 1.367 . S
C679 C678 1.367 . S
C679 C681 1.433 . S
C680 C676 1.350 . S
C680 C677 1.463 . S
C680 N684 1.427 . S
C681 H671 0.929 . S
C681 C679 1.433 . S
C681 N684 1.384 . S
C682 H673 0.929 . S
C682 C674 1.378 . S
C682 C677 1.350 . S
C683 H670 0.929 . S
C683 C675 1.433 1_554 S
C683 N685 1.384 1_554 S
N684 C680 1.427 . S
N684 C681 1.384 . S
N685 C677 1.427 . S
N685 C683 1.384 1_556 S
H686 C692 0.930 . S
H687 C696 0.930 . S
H688 C701 0.929 . S
H689 C699 0.929 . S
H690 C694 0.929 . S
H691 C700 0.929 . S
C692 H686 0.930 . S
C692 C693 1.367 . S
C692 C700 1.378 . S
C693 C692 1.367 . S
C693 C701 1.433 . S
C694 H690 0.929 . S
C694 C696 1.378 . S
C694 C698 1.350 . S
C695 C698 1.463 . S
C695 C700 1.350 . S
C695 N703 1.427 . S
C696 H687 0.930 . S
C696 C694 1.378 . S
C696 C697 1.367 . S
C697 C696 1.367 . S
C697 C699 1.433 . S
C698 C694 1.350 . S
C698 C695 1.463 . S
C698 N702 1.427 . S
C699 H689 0.929 . S
C699 C697 1.433 . S
C699 N702 1.384 . S
C700 H691 0.929 . S
C700 C692 1.378 . S
C700 C695 1.350 . S
C701 H688 0.929 . S
C701 C693 1.433 . S
C701 N703 1.384 . S
N702 C698 1.427 . S
N702 C699 1.384 . S
N703 C695 1.427 . S
N703 C701 1.384 . S
H704 C710 0.930 . S
H705 C714 0.930 . S
H706 C719 0.929 . S
H707 C717 0.929 . S
H708 C712 0.929 . S
H709 C718 0.929 . S
C710 H704 0.930 . S
C710 C711 1.367 . S
C710 C718 1.378 . S
C711 C710 1.367 . S
C711 C719 1.433 . S
C712 H708 0.929 . S
C712 C714 1.378 . S
C712 C716 1.350 . S
C713 C716 1.463 . S
C713 C718 1.350 . S
C713 N721 1.427 . S
C714 H705 0.930 . S
C714 C712 1.378 . S
C714 C715 1.367 . S
C715 C714 1.367 . S
C715 C717 1.433 . S
C716 C712 1.350 . S
C716 C713 1.463 . S
C716 N720 1.427 . S
C717 H707 0.929 . S
C717 C715 1.433 . S
C717 N720 1.384 . S
C718 H709 0.929 . S
C718 C710 1.378 . S
C718 C713 1.350 . S
C719 H706 0.929 . S
C719 C711 1.433 . S
C719 N721 1.384 . S
N720 C716 1.427 . S
N720 C717 1.384 . S
N721 C713 1.427 . S
N721 C719 1.384 . S
H722 C728 0.930 . S
H723 C732 0.930 . S
H724 C737 0.929 . S
H725 C735 0.929 . S
H726 C730 0.929 . S
H727 C736 0.929 . S
C728 H722 0.930 . S
C728 C729 1.367 . S
C728 C736 1.378 . S
C729 C728 1.367 . S
C729 C737 1.433 1_545 S
C730 H726 0.929 . S
C730 C732 1.378 . S
C730 C734 1.348 1_565 S
C731 C734 1.464 . S
C731 C736 1.350 . S
C731 N739 1.427 1_545 S
C732 H723 0.930 . S
C732 C730 1.378 . S
C732 C733 1.367 . S
C733 C732 1.367 . S
C733 C735 1.433 1_565 S
C734 C730 1.348 1_545 S
C734 C731 1.464 . S
C734 N738 1.428 . S
C735 H725 0.929 . S
C735 C733 1.433 1_545 S
C735 N738 1.384 . S
C736 H727 0.929 . S
C736 C728 1.378 . S
C736 C731 1.350 . S
C737 H724 0.929 . S
C737 C729 1.433 1_565 S
C737 N739 1.384 . S
N738 C734 1.428 . S
N738 C735 1.384 . S
N739 C731 1.427 1_565 S
N739 C737 1.384 . S
H740 C746 0.930 . S
H741 C750 0.930 . S
H742 C755 0.929 . S
H743 C753 0.929 . S
H744 C748 0.929 . S
H745 C754 0.929 . S
C746 H740 0.930 . S
C746 C747 1.367 . S
C746 C754 1.378 . S
C747 C746 1.367 . S
C747 C755 1.433 . S
C748 H744 0.929 . S
C748 C750 1.378 . S
C748 C752 1.350 . S
C749 C752 1.463 . S
C749 C754 1.350 . S
C749 N757 1.427 . S
C750 H741 0.930 . S
C750 C748 1.378 . S
C750 C751 1.367 . S
C751 C750 1.367 . S
C751 C753 1.433 . S
C752 C748 1.350 . S
C752 C749 1.463 . S
C752 N756 1.427 . S
C753 H743 0.929 . S
C753 C751 1.433 . S
C753 N756 1.384 . S
C754 H745 0.929 . S
C754 C746 1.378 . S
C754 C749 1.350 . S
C755 H742 0.929 . S
C755 C747 1.433 . S
C755 N757 1.384 . S
N756 C752 1.427 . S
N756 C753 1.384 . S
N757 C749 1.427 . S
N757 C755 1.384 . S
H758 C764 0.930 . S
H759 C768 0.930 . S
H760 C773 0.929 . S
H761 C771 0.929 . S
H762 C766 0.929 . S
H763 C772 0.929 . S
C764 H758 0.930 . S
C764 C765 1.367 . S
C764 C772 1.378 . S
C765 C764 1.367 . S
C765 C773 1.433 . S
C766 H762 0.929 . S
C766 C768 1.378 . S
C766 C770 1.350 . S
C767 C770 1.463 . S
C767 C772 1.350 . S
C767 N775 1.427 . S
C768 H759 0.930 . S
C768 C766 1.378 . S
C768 C769 1.367 . S
C769 C768 1.367 . S
C769 C771 1.433 . S
C770 C766 1.350 . S
C770 C767 1.463 . S
C770 N774 1.427 . S
C771 H761 0.929 . S
C771 C769 1.433 . S
C771 N774 1.384 . S
C772 H763 0.929 . S
C772 C764 1.378 . S
C772 C767 1.350 . S
C773 H760 0.929 . S
C773 C765 1.433 . S
C773 N775 1.384 . S
N774 C770 1.427 . S
N774 C771 1.384 . S
N775 C767 1.427 . S
N775 C773 1.384 . S
H776 C782 0.930 . S
H777 C786 0.930 . S
H778 C791 0.929 . S
H779 C789 0.929 . S
H780 C784 0.929 . S
H781 C790 0.929 . S
C782 H776 0.930 . S
C782 C783 1.367 . S
C782 C790 1.378 . S
C783 C782 1.367 . S
C783 C791 1.433 . S
C784 H780 0.929 . S
C784 C786 1.378 . S
C784 C788 1.350 . S
C785 C788 1.463 . S
C785 C790 1.350 . S
C785 N793 1.427 . S
C786 H777 0.930 . S
C786 C784 1.378 . S
C786 C787 1.367 . S
C787 C786 1.367 . S
C787 C789 1.433 . S
C788 C784 1.350 . S
C788 C785 1.463 . S
C788 N792 1.427 . S
C789 H779 0.929 . S
C789 C787 1.433 . S
C789 N792 1.384 . S
C790 H781 0.929 . S
C790 C782 1.378 . S
C790 C785 1.350 . S
C791 H778 0.929 . S
C791 C783 1.433 . S
C791 N793 1.384 . S
N792 C788 1.427 . S
N792 C789 1.384 . S
N793 C785 1.427 . S
N793 C791 1.384 . S
H794 C800 0.930 . S
H795 C804 0.930 . S
H796 C809 0.929 . S
H797 C807 0.929 . S
H798 C802 0.929 . S
H799 C808 0.929 . S
C800 H794 0.930 . S
C800 C801 1.371 . S
C800 C808 1.378 . S
C801 C800 1.371 . S
C801 C809 1.430 1_545 S
C802 H798 0.929 . S
C802 C804 1.378 . S
C802 C806 1.350 1_565 S
C803 C806 1.463 . S
C803 C808 1.350 . S
C803 N811 1.427 1_545 S
C804 H795 0.930 . S
C804 C802 1.378 . S
C804 C805 1.367 1_565 S
C805 C804 1.367 1_545 S
C805 C807 1.433 . S
C806 C802 1.350 1_545 S
C806 C803 1.463 . S
C806 N810 1.427 . S
C807 H797 0.929 . S
C807 C805 1.433 . S
C807 N810 1.384 . S
C808 H799 0.929 . S
C808 C800 1.378 . S
C808 C803 1.350 . S
C809 H796 0.929 . S
C809 C801 1.430 1_565 S
C809 N811 1.384 . S
N810 C806 1.427 . S
N810 C807 1.384 . S
N811 C803 1.427 1_565 S
N811 C809 1.384 . S
H812 C818 0.930 . S
H813 C822 0.930 . S
H814 C827 0.929 . S
H815 C825 0.929 . S
H816 C820 0.929 . S
H817 C826 0.929 . S
C818 H812 0.930 . S
C818 C819 1.367 . S
C818 C826 1.378 . S
C819 C818 1.367 . S
C819 C827 1.433 . S
C820 H816 0.929 . S
C820 C822 1.378 . S
C820 C824 1.350 . S
C821 C824 1.463 . S
C821 C826 1.350 . S
C821 N829 1.427 . S
C822 H813 0.930 . S
C822 C820 1.378 . S
C822 C823 1.367 . S
C823 C822 1.367 . S
C823 C825 1.433 . S
C824 C820 1.350 . S
C824 C821 1.463 . S
C824 N828 1.427 . S
C825 H815 0.929 . S
C825 C823 1.433 . S
C825 N828 1.384 . S
C826 H817 0.929 . S
C826 C818 1.378 . S
C826 C821 1.350 . S
C827 H814 0.929 . S
C827 C819 1.433 . S
C827 N829 1.384 . S
N828 C824 1.427 . S
N828 C825 1.384 . S
N829 C821 1.427 . S
N829 C827 1.384 . S
H830 C836 0.930 . S
H831 C840 0.930 . S
H832 C845 0.929 . S
H833 C843 0.929 . S
H834 C838 0.929 . S
H835 C844 0.929 . S
C836 H830 0.930 . S
C836 C837 1.367 . S
C836 C844 1.378 . S
C837 C836 1.367 . S
C837 C845 1.433 . S
C838 H834 0.929 . S
C838 C840 1.378 . S
C838 C842 1.350 . S
C839 C842 1.463 . S
C839 C844 1.350 . S
C839 N847 1.427 . S
C840 H831 0.930 . S
C840 C838 1.378 . S
C840 C841 1.367 . S
C841 C840 1.367 . S
C841 C843 1.433 . S
C842 C838 1.350 . S
C842 C839 1.463 . S
C842 N846 1.427 . S
C843 H833 0.929 . S
C843 C841 1.433 . S
C843 N846 1.384 . S
C844 H835 0.929 . S
C844 C836 1.378 . S
C844 C839 1.350 . S
C845 H832 0.929 . S
C845 C837 1.433 . S
C845 N847 1.384 . S
N846 C842 1.427 . S
N846 C843 1.384 . S
N847 C839 1.427 . S
N847 C845 1.384 . S
H848 C854 0.930 . S
H849 C858 0.930 . S
H850 C863 0.929 . S
H851 C861 0.929 . S
H852 C856 0.929 1_554 S
H853 C862 0.929 . S
C854 H848 0.930 . S
C854 C855 1.367 1_556 S
C854 C862 1.378 . S
C855 C854 1.367 1_554 S
C855 C863 1.433 . S
C856 H852 0.929 1_556 S
C856 C858 1.378 . S
C856 C860 1.350 . S
C857 C860 1.463 . S
C857 C862 1.350 . S
C857 N865 1.427 1_556 S
C858 H849 0.930 . S
C858 C856 1.378 . S
C858 C859 1.367 . S
C859 C858 1.367 . S
C859 C861 1.433 . S
C860 C856 1.350 . S
C860 C857 1.463 . S
C860 N864 1.427 . S
C861 H851 0.929 . S
C861 C859 1.433 . S
C861 N864 1.384 . S
C862 H853 0.929 . S
C862 C854 1.378 . S
C862 C857 1.350 . S
C863 H850 0.929 . S
C863 C855 1.433 . S
C863 N865 1.384 . S
N864 C860 1.427 . S
N864 C861 1.384 . S
N865 C857 1.427 1_554 S
N865 C863 1.384 . S
H866 C872 0.930 . S
H867 C876 0.930 . S
H868 C881 0.929 . S
H869 C879 0.929 . S
H870 C874 0.929 . S
H871 C880 0.929 . S
C872 H866 0.930 . S
C872 C873 1.367 . S
C872 C880 1.378 . S
C873 C872 1.367 . S
C873 C881 1.433 1_545 S
C874 H870 0.929 . S
C874 C876 1.378 . S
C874 C878 1.350 1_565 S
C875 C878 1.463 . S
C875 C880 1.350 . S
C875 N883 1.427 1_545 S
C876 H867 0.930 . S
C876 C874 1.378 . S
C876 C877 1.367 1_565 S
C877 C876 1.367 1_545 S
C877 C879 1.433 . S
C878 C874 1.350 1_545 S
C878 C875 1.463 . S
C878 N882 1.427 . S
C879 H869 0.929 . S
C879 C877 1.433 . S
C879 N882 1.384 . S
C880 H871 0.929 . S
C880 C872 1.378 . S
C880 C875 1.350 . S
C881 H868 0.929 . S
C881 C873 1.433 1_565 S
C881 N883 1.384 . S
N882 C878 1.427 . S
N882 C879 1.384 . S
N883 C875 1.427 1_565 S
N883 C881 1.384 . S
H884 C890 0.930 . S
H885 C894 0.930 . S
H886 C899 0.929 . S
H887 C897 0.929 . S
H888 C892 0.929 . S
H889 C898 0.929 . S
C890 H884 0.930 . S
C890 C891 1.367 . S
C890 C898 1.378 . S
C891 C890 1.367 . S
C891 C899 1.433 . S
C892 H888 0.929 . S
C892 C894 1.378 . S
C892 C896 1.350 . S
C893 C896 1.463 . S
C893 C898 1.350 . S
C893 N901 1.427 . S
C894 H885 0.930 . S
C894 C892 1.378 . S
C894 C895 1.367 . S
C895 C894 1.367 . S
C895 C897 1.433 . S
C896 C892 1.350 . S
C896 C893 1.463 . S
C896 N900 1.427 . S
C897 H887 0.929 . S
C897 C895 1.433 . S
C897 N900 1.384 . S
C898 H889 0.929 . S
C898 C890 1.378 . S
C898 C893 1.350 . S
C899 H886 0.929 . S
C899 C891 1.433 . S
C899 N901 1.384 . S
N900 C896 1.427 . S
N900 C897 1.384 . S
N901 C893 1.427 . S
N901 C899 1.384 . S
H902 C908 0.930 . S
H903 C912 0.930 . S
H904 C917 0.929 . S
H905 C915 0.929 . S
H906 C910 0.929 . S
H907 C916 0.929 . S
C908 H902 0.930 . S
C908 C909 1.367 1_554 S
C908 C916 1.378 1_554 S
C909 C908 1.367 1_556 S
C909 C917 1.433 . S
C910 H906 0.929 . S
C910 C912 1.378 . S
C910 C914 1.350 . S
C911 C914 1.463 . S
C911 C916 1.350 . S
C911 N919 1.427 . S
C912 H903 0.930 . S
C912 C910 1.378 . S
C912 C913 1.367 . S
C913 C912 1.367 . S
C913 C915 1.433 . S
C914 C910 1.350 . S
C914 C911 1.463 . S
C914 N918 1.427 . S
C915 H905 0.929 . S
C915 C913 1.433 . S
C915 N918 1.384 . S
C916 H907 0.929 . S
C916 C908 1.378 1_556 S
C916 C911 1.350 . S
C917 H904 0.929 . S
C917 C909 1.433 . S
C917 N919 1.384 . S
N918 C914 1.427 . S
N918 C915 1.384 . S
N919 C911 1.427 . S
N919 C917 1.384 . S
H920 C926 0.930 . S
H921 C930 0.930 . S
H922 C935 0.929 . S
H923 C933 0.929 . S
H924 C928 0.929 . S
H925 C934 0.929 . S
C926 H920 0.930 . S
C926 C927 1.367 . S
C926 C934 1.378 . S
C927 C926 1.367 . S
C927 C935 1.433 . S
C928 H924 0.929 . S
C928 C930 1.378 . S
C928 C932 1.350 . S
C929 C932 1.463 . S
C929 C934 1.350 . S
C929 N937 1.427 . S
C930 H921 0.930 . S
C930 C928 1.378 . S
C930 C931 1.367 . S
C931 C930 1.367 . S
C931 C933 1.433 . S
C932 C928 1.350 . S
C932 C929 1.463 . S
C932 N936 1.427 . S
C933 H923 0.929 . S
C933 C931 1.433 . S
C933 N936 1.384 . S
C934 H925 0.929 . S
C934 C926 1.378 . S
C934 C929 1.350 . S
C935 H922 0.929 . S
C935 C927 1.433 . S
C935 N937 1.384 . S
N936 C932 1.427 . S
N936 C933 1.384 . S
N937 C929 1.427 . S
N937 C935 1.384 . S
H938 C944 0.930 . S
H939 C948 0.930 . S
H940 C953 0.929 . S
H941 C951 0.929 . S
H942 C946 0.929 . S
H943 C952 0.929 . S
C944 H938 0.930 . S
C944 C945 1.374 . S
C944 C952 1.378 . S
C945 C944 1.374 . S
C945 C953 1.427 1_545 S
C946 H942 0.929 . S
C946 C948 1.378 . S
C946 C950 1.368 . S
C947 C950 1.465 1_545 S
C947 C952 1.359 . S
C947 N955 1.417 1_545 S
C948 H939 0.930 . S
C948 C946 1.378 . S
C948 C949 1.384 . S
C949 C948 1.384 . S
C949 C951 1.418 1_565 S
C950 C946 1.368 . S
C950 C947 1.465 1_565 S
C950 N954 1.408 1_565 S
C951 H941 0.929 . S
C951 C949 1.418 1_545 S
C951 N954 1.384 . S
C952 H943 0.929 . S
C952 C944 1.378 . S
C952 C947 1.359 . S
C953 H940 0.929 . S
C953 C945 1.427 1_565 S
C953 N955 1.384 . S
N954 C950 1.408 1_545 S
N954 C951 1.384 . S
N955 C947 1.417 1_565 S
N955 C953 1.384 . S
H956 C962 0.930 . S
H957 C966 0.930 . S
H958 C971 0.929 . S
H959 C969 0.929 . S
H960 C964 0.929 . S
H961 C970 0.929 . S
C962 H956 0.930 . S
C962 C963 1.367 . S
C962 C970 1.378 . S
C963 C962 1.367 . S
C963 C971 1.433 . S
C964 H960 0.929 . S
C964 C966 1.378 . S
C964 C968 1.350 . S
C965 C968 1.463 . S
C965 C970 1.350 . S
C965 N973 1.427 . S
C966 H957 0.930 . S
C966 C964 1.378 . S
C966 C967 1.367 . S
C967 C966 1.367 . S
C967 C969 1.433 . S
C968 C964 1.350 . S
C968 C965 1.463 . S
C968 N972 1.427 . S
C969 H959 0.929 . S
C969 C967 1.433 . S
C969 N972 1.384 . S
C970 H961 0.929 . S
C970 C962 1.378 . S
C970 C965 1.350 . S
C971 H958 0.929 . S
C971 C963 1.433 . S
C971 N973 1.384 . S
N972 C968 1.427 . S
N972 C969 1.384 . S
N973 C965 1.427 . S
N973 C971 1.384 . S
H974 C980 0.930 . S
H975 C984 0.930 . S
H976 C989 0.929 . S
H977 C987 0.929 . S
H978 C982 0.929 . S
H979 C988 0.929 . S
C980 H974 0.930 . S
C980 C981 1.367 . S
C980 C988 1.378 . S
C981 C980 1.367 . S
C981 C989 1.433 . S
C982 H978 0.929 . S
C982 C984 1.378 . S
C982 C986 1.350 . S
C983 C986 1.463 . S
C983 C988 1.350 . S
C983 N991 1.427 . S
C984 H975 0.930 . S
C984 C982 1.378 . S
C984 C985 1.367 . S
C985 C984 1.367 . S
C985 C987 1.433 . S
C986 C982 1.350 . S
C986 C983 1.463 . S
C986 N990 1.427 . S
C987 H977 0.929 . S
C987 C985 1.433 . S
C987 N990 1.384 . S
C988 H979 0.929 . S
C988 C980 1.378 . S
C988 C983 1.350 . S
C989 H976 0.929 . S
C989 C981 1.433 . S
C989 N991 1.384 . S
N990 C986 1.427 . S
N990 C987 1.384 . S
N991 C983 1.427 . S
N991 C989 1.384 . S
C567 C391 1.560 . S
C571 C481 1.546 . S
C589 C516 2.250 . S
C585 C451 2.192 . S
C607 C521 1.425 . S
C603 C241 1.363 . S
C625 C541 1.953 . S
C621 C331 1.708 . S
C643 C489 1.549 . S
C639 C121 1.452 1_545 S
C657 C211 2.077 1_556 S
C661 C506 2.251 . S
C675 C31 1.464 1_556 S
C679 C529 1.425 . S
C693 C91 1.836 . S
C697 C549 1.955 . S
C715 C499 1.514 . S
C711 C301 1.237 . S
C733 C508 0.668 . S
C729 C380 0.667 . S
C751 C539 1.656 . S
C747 C440 1.579 . S
C765 C260 0.850 . S
C769 C559 0.900 . S
C783 C61 1.366 . S
C787 C488 1.507 . S
C805 C519 0.679 . S
C801 C140 0.710 1_545 S
C823 C528 1.654 . S
C819 C200 1.464 . S
C837 C20 0.903 . S
C841 C548 0.891 . S
C855 C320 2.097 . S
C859 C486 2.230 . S
C873 C361 1.594 1_556 S
C877 C509 1.906 . S
C895 C526 2.384 . S
C891 C421 2.096 1_556 S
C913 C546 2.103 . S
C909 C271 2.054 1_556 S
C927 C80 2.184 . S
C931 C496 2.229 . S
C949 C501 1.904 1_565 S
C945 C151 1.835 1_545 S
C967 C536 2.384 . S
C963 C181 1.984 . S
C981 C1 1.836 . S
C985 C556 2.102 . S
