# Generated by pormake.
# Topology pto, (3,4)-cn, num edge types: 1
# Building blocks:
#     Node 0, Type 0, BuildingBlock: BETDIP_clean_linker_0, # of connection points: 3
#     Node 1, Type 0, BuildingBlock: BETDIP_clean_linker_0, # of connection points: 3
#     Node 2, Type 0, BuildingBlock: BETDIP_clean_linker_0, # of connection points: 3
#     Node 3, Type 0, BuildingBlock: BETDIP_clean_linker_0, # of connection points: 3
#     Node 4, Type 0, BuildingBlock: BETDIP_clean_linker_0, # of connection points: 3
#     Node 5, Type 0, BuildingBlock: BETDIP_clean_linker_0, # of connection points: 3
#     Node 6, Type 0, BuildingBlock: BETDIP_clean_linker_0, # of connection points: 3
#     Node 7, Type 0, BuildingBlock: BETDIP_clean_linker_0, # of connection points: 3
#     Node 8, Type 1, BuildingBlock: KOZSID_clean_sbu_0, # of connection points: 4
#     Node 9, Type 1, BuildingBlock: KOZSID_clean_sbu_0, # of connection points: 4
#     Node 10, Type 1, BuildingBlock: KOZSID_clean_sbu_0, # of connection points: 4
#     Node 11, Type 1, BuildingBlock: KOZSID_clean_sbu_0, # of connection points: 4
#     Node 12, Type 1, BuildingBlock: KOZSID_clean_sbu_0, # of connection points: 4
#     Node 13, Type 1, BuildingBlock: KOZSID_clean_sbu_0, # of connection points: 4
#     Edge 14, Type (0, 1), BuildingBlock: TEMPAE_clean_linker_10, # of connection points: 2
#     Edge 15, Type (0, 1), BuildingBlock: TEMPAE_clean_linker_10, # of connection points: 2
#     Edge 16, Type (0, 1), BuildingBlock: TEMPAE_clean_linker_10, # of connection points: 2
#     Edge 17, Type (0, 1), BuildingBlock: TEMPAE_clean_linker_10, # of connection points: 2
#     Edge 18, Type (0, 1), BuildingBlock: TEMPAE_clean_linker_10, # of connection points: 2
#     Edge 19, Type (0, 1), BuildingBlock: TEMPAE_clean_linker_10, # of connection points: 2
#     Edge 20, Type (0, 1), BuildingBlock: TEMPAE_clean_linker_10, # of connection points: 2
#     Edge 21, Type (0, 1), BuildingBlock: TEMPAE_clean_linker_10, # of connection points: 2
#     Edge 22, Type (0, 1), BuildingBlock: TEMPAE_clean_linker_10, # of connection points: 2
#     Edge 23, Type (0, 1), BuildingBlock: TEMPAE_clean_linker_10, # of connection points: 2
#     Edge 24, Type (0, 1), BuildingBlock: TEMPAE_clean_linker_10, # of connection points: 2
#     Edge 25, Type (0, 1), BuildingBlock: TEMPAE_clean_linker_10, # of connection points: 2
#     Edge 26, Type (0, 1), BuildingBlock: TEMPAE_clean_linker_10, # of connection points: 2
#     Edge 27, Type (0, 1), BuildingBlock: TEMPAE_clean_linker_10, # of connection points: 2
#     Edge 28, Type (0, 1), BuildingBlock: TEMPAE_clean_linker_10, # of connection points: 2
#     Edge 29, Type (0, 1), BuildingBlock: TEMPAE_clean_linker_10, # of connection points: 2
#     Edge 30, Type (0, 1), BuildingBlock: TEMPAE_clean_linker_10, # of connection points: 2
#     Edge 31, Type (0, 1), BuildingBlock: TEMPAE_clean_linker_10, # of connection points: 2
#     Edge 32, Type (0, 1), BuildingBlock: TEMPAE_clean_linker_10, # of connection points: 2
#     Edge 33, Type (0, 1), BuildingBlock: TEMPAE_clean_linker_10, # of connection points: 2
#     Edge 34, Type (0, 1), BuildingBlock: TEMPAE_clean_linker_10, # of connection points: 2
#     Edge 35, Type (0, 1), BuildingBlock: TEMPAE_clean_linker_10, # of connection points: 2
#     Edge 36, Type (0, 1), BuildingBlock: TEMPAE_clean_linker_10, # of connection points: 2
#     Edge 37, Type (0, 1), BuildingBlock: TEMPAE_clean_linker_10, # of connection points: 2
# Relax obj value: 0.011
# Max RMSD: 0.132
# Mean RMSD: 0.060
data_MOF--net-pto--node1-KOZSID_clean_sbu_0--node2-BETDIP_clean_linker_0--edge1-TEMPAE_clean_linker_10
_symmetry_space_group_name_H-M    P1
_symmetry_Int_Tables_number       1
_symmetry_cell_setting            triclinic
loop_
_symmetry_equiv_pos_as_xyz
'x, y, z'
_cell_length_a     37.121593
_cell_length_b     51.783805
_cell_length_c     45.370081
_cell_angle_alpha  95.766802
_cell_angle_beta   102.95623
_cell_angle_gamma 107.54243
loop_
_atom_site_label
_atom_site_type_symbol
_atom_site_fract_x
_atom_site_fract_y
_atom_site_fract_z
_atom_type_partial_charge
H0 H 0.17447 0.30257 0.34224 0.0
H1 H 0.21746 0.2582 0.28153 0.0
H2 H 0.24695 0.34614 0.28913 0.0
H3 H 0.15823 0.22305 0.28331 0.0
C4 C 0.16685 0.22664 0.3083 0.0
C5 C 0.19164 0.30275 0.3258 0.0
C6 C 0.20897 0.32733 0.31607 0.0
C7 C 0.19492 0.27792 0.31355 0.0
C8 C 0.21575 0.27758 0.2913 0.0
C9 C 0.23479 0.30209 0.28208 0.0
C10 C 0.23155 0.3269 0.29505 0.0
N11 N 0.17871 0.25382 0.32514 0.0
H12 H 0.22465 0.78353 0.65563 0.0
H13 H 0.31434 0.85298 0.71765 0.0
H14 H 0.27152 0.77747 0.74946 0.0
H15 H 0.31815 0.87099 0.67583 0.0
C16 C 0.28986 0.86185 0.65903 0.0
C17 C 0.24435 0.79244 0.67834 0.0
C18 C 0.2446 0.77677 0.70192 0.0
C19 C 0.26923 0.81982 0.68359 0.0
C20 C 0.29556 0.83172 0.71287 0.0
C21 C 0.29681 0.81631 0.73666 0.0
C22 C 0.27103 0.78908 0.73094 0.0
N23 N 0.2651 0.83496 0.65927 0.0
H24 H 0.85859 0.80815 0.31735 0.0
H25 H 0.90413 0.84419 0.4134 0.0
H26 H 0.84189 0.88323 0.35148 0.0
H27 H 0.90708 0.802 0.41835 0.0
C28 C 0.91305 0.79407 0.39756 0.0
C29 C 0.86303 0.82459 0.33596 0.0
C30 C 0.84723 0.84571 0.33046 0.0
C31 C 0.88353 0.82374 0.36561 0.0
C32 C 0.88824 0.84431 0.39033 0.0
C33 C 0.87312 0.86575 0.38516 0.0
C34 C 0.8533 0.86653 0.35525 0.0
N35 N 0.89952 0.80218 0.36929 0.0
H36 H 0.70761 0.25708 0.84115 0.0
H37 H 0.7365 0.34522 0.85682 0.0
H38 H 0.76888 0.30523 0.78448 0.0
H39 H 0.73137 0.33978 0.90399 0.0
C40 C 0.70785 0.32036 0.90074 0.0
C41 C 0.72093 0.27688 0.83528 0.0
C42 C 0.73775 0.27828 0.81043 0.0
C43 C 0.72086 0.30088 0.85255 0.0
C44 C 0.7376 0.32657 0.84457 0.0
C45 C 0.75487 0.32831 0.81995 0.0
C46 C 0.75474 0.30404 0.80302 0.0
N47 N 0.70245 0.29834 0.87696 0.0
H48 H 0.78619 0.80634 0.82534 0.0
H49 H 0.81755 0.83588 0.74633 0.0
H50 H 0.75605 0.87526 0.79534 0.0
H51 H 0.80287 0.78704 0.73195 0.0
C52 C 0.81976 0.78363 0.75316 0.0
C53 C 0.78592 0.8206 0.80944 0.0
C54 C 0.76855 0.84093 0.81322 0.0
C55 C 0.80275 0.81826 0.78505 0.0
C56 C 0.80368 0.83714 0.76479 0.0
C57 C 0.78709 0.85791 0.76855 0.0
C58 C 0.76923 0.85944 0.79259 0.0
N59 N 0.81921 0.79703 0.78187 0.0
H60 H 0.72027 0.28124 0.39152 0.0
H61 H 0.83588 0.33287 0.44498 0.0
H62 H 0.77121 0.36192 0.37271 0.0
H63 H 0.82834 0.30445 0.47753 0.0
C64 C 0.80651 0.28483 0.46571 0.0
C65 C 0.74425 0.30063 0.39686 0.0
C66 C 0.74181 0.3212 0.37939 0.0
C67 C 0.77739 0.30486 0.42128 0.0
C68 C 0.80912 0.32976 0.42749 0.0
C69 C 0.80723 0.35039 0.40986 0.0
C70 C 0.77306 0.34611 0.38637 0.0
N71 N 0.77819 0.28309 0.43797 0.0
H72 H 0.09238 0.29162 0.71691 0.0
H73 H 0.15987 0.25339 0.77605 0.0
H74 H 0.1628 0.33527 0.80747 0.0
H75 H 0.10439 0.21369 0.74636 0.0
C76 C 0.10781 0.21947 0.7245 0.0
C77 C 0.1124 0.29257 0.73876 0.0
C78 C 0.12563 0.31619 0.76173 0.0
C79 C 0.12389 0.26969 0.74399 0.0
C80 C 0.14966 0.27061 0.77227 0.0
C81 C 0.16407 0.29432 0.79515 0.0
C82 C 0.15179 0.31697 0.7898 0.0
N83 N 0.11112 0.24669 0.71977 0.0
H84 H 0.29407 0.86421 0.25225 0.0
H85 H 0.29038 0.77985 0.24348 0.0
H86 H 0.25239 0.81411 0.31586 0.0
H87 H 0.29704 0.78453 0.19715 0.0
C88 C 0.31275 0.80605 0.19777 0.0
C89 C 0.28756 0.84481 0.26043 0.0
C90 C 0.27236 0.84203 0.28612 0.0
C91 C 0.29383 0.82257 0.2446 0.0
C92 C 0.28489 0.79711 0.25476 0.0
C93 C 0.26968 0.79395 0.28039 0.0
C94 C 0.26388 0.81653 0.29599 0.0
N95 N 0.31032 0.82698 0.2193 0.0
C96 C 0.16193 0.615 0.38379 0.0
C97 C 0.19661 0.63171 0.40477 0.0
C98 C 0.19512 0.62447 0.43268 0.0
C99 C 0.15974 0.60389 0.42718 0.0
N100 N 0.13877 0.5972 0.39732 0.0
Co101 Co 0.08467 0.56969 0.3794 0.0
N102 N 0.08064 0.56113 0.42095 0.0
C103 C 0.10803 0.57231 0.44815 0.0
C104 C 0.09732 0.56176 0.47263 0.0
C105 C 0.06108 0.54244 0.46032 0.0
C106 C 0.05184 0.54233 0.42893 0.0
N107 N 0.03044 0.5424 0.3614 0.0
C108 C 0.00624 0.52566 0.37512 0.0
C109 C 0.97144 0.50917 0.35398 0.0
C110 C 0.97379 0.51565 0.32594 0.0
C111 C 0.00972 0.53555 0.33144 0.0
N112 N 0.08876 0.57813 0.33783 0.0
C113 C 0.06205 0.5663 0.31043 0.0
C114 C 0.07282 0.57691 0.28601 0.0
C115 C 0.10826 0.59705 0.29857 0.0
C116 C 0.11694 0.59756 0.33005 0.0
N117 N 0.10716 0.53977 0.37368 0.0
C118 C 0.13459 0.49489 0.36714 0.0
C119 C 0.10525 0.49777 0.34376 0.0
C120 C 0.09233 0.52024 0.34737 0.0
C121 C 0.15087 0.51525 0.39352 0.0
C122 C 0.13672 0.5373 0.39634 0.0
N123 N 0.06207 0.59946 0.38514 0.0
C124 C 0.01695 0.62284 0.36531 0.0
C125 C 0.03044 0.64204 0.39261 0.0
C126 C 0.06007 0.6396 0.41615 0.0
C127 C 0.07519 0.61822 0.41203 0.0
C128 C 0.03314 0.602 0.36204 0.0
H129 H 0.09753 0.61733 0.43088 0.0
H130 H 0.02193 0.58831 0.34051 0.0
H131 H 0.07001 0.52112 0.32863 0.0
H132 H 0.14979 0.55182 0.41724 0.0
C133 C 0.14414 0.5919 0.4498 0.0
C134 C 0.15113 0.61797 0.35173 0.0
C135 C 0.01577 0.52354 0.40759 0.0
C136 C 0.02574 0.54697 0.30871 0.0
H137 H 0.22005 0.648 0.40052 0.0
H138 H 0.21663 0.63377 0.45456 0.0
H139 H 0.11415 0.56712 0.4965 0.0
H140 H 0.0436 0.52961 0.47292 0.0
H141 H 0.94718 0.49353 0.35816 0.0
H142 H 0.95232 0.5064 0.30403 0.0
H143 H 0.05624 0.57135 0.26207 0.0
H144 H 0.12531 0.61041 0.28613 0.0
H145 H 0.09234 0.48276 0.32261 0.0
H146 H 0.17375 0.51385 0.41223 0.0
H147 H 0.99441 0.62415 0.34625 0.0
H148 H 0.07124 0.65394 0.43781 0.0
C149 C 0.0575 0.59598 0.74891 0.0
C150 C 0.09131 0.61187 0.77146 0.0
C151 C 0.08537 0.60598 0.79896 0.0
C152 C 0.04864 0.58671 0.79169 0.0
N153 N 0.03109 0.57942 0.76111 0.0
Co154 Co 0.97782 0.552 0.7404 0.0
N155 N 0.96859 0.54389 0.78097 0.0
C156 C 0.99332 0.55522 0.80927 0.0
C157 C 0.97962 0.54449 0.83262 0.0
C158 C 0.94434 0.52471 0.81836 0.0
C159 C 0.93865 0.52459 0.78705 0.0
N160 N 0.92409 0.52504 0.71978 0.0
C161 C 0.89804 0.50802 0.73189 0.0
C162 C 0.86429 0.49202 0.70944 0.0
C163 C 0.86944 0.49891 0.68206 0.0
C164 C 0.90586 0.51863 0.68935 0.0
N165 N 0.98753 0.55956 0.69977 0.0
C166 C 0.96315 0.54742 0.67152 0.0
C167 C 0.9766 0.5579 0.64801 0.0
C168 C 0.01146 0.57816 0.662 0.0
C169 C 0.01755 0.57873 0.69346 0.0
N170 N 0.00041 0.52184 0.73823 0.0
C171 C 0.0297 0.47756 0.73691 0.0
C172 C 0.00112 0.47904 0.71184 0.0
C173 C 0.98716 0.50128 0.71289 0.0
C174 C 0.04376 0.49879 0.7624 0.0
C175 C 0.02882 0.52047 0.7626 0.0
N176 N 0.95522 0.58219 0.74263 0.0
C177 C 0.91834 0.60895 0.71748 0.0
C178 C 0.92596 0.62628 0.74529 0.0
C179 C 0.94796 0.62121 0.77183 0.0
C180 C 0.96254 0.59935 0.76996 0.0
C181 C 0.93275 0.58697 0.71672 0.0
H182 H 0.97993 0.59696 0.79088 0.0
H183 H 0.92551 0.57428 0.69485 0.0
H184 H 0.96538 0.50125 0.69308 0.0
H185 H 0.04035 0.53562 0.78297 0.0
C186 C 0.02994 0.57502 0.81302 0.0
C187 C 0.05087 0.59884 0.71659 0.0
C188 C 0.90531 0.50483 0.76397 0.0
C189 C 0.9255 0.52908 0.66801 0.0
H190 H 0.11723 0.62671 0.76839 0.0
H191 H 0.10524 0.61494 0.82159 0.0
H192 H 0.99406 0.54987 0.85701 0.0
H193 H 0.92533 0.51141 0.82961 0.0
H194 H 0.83916 0.47632 0.71243 0.0
H195 H 0.84976 0.48973 0.65941 0.0
H196 H 0.9618 0.55251 0.62368 0.0
H197 H 0.02934 0.59156 0.65019 0.0
H198 H 0.98962 0.46317 0.69143 0.0
H199 H 0.06555 0.49837 0.78255 0.0
H200 H 0.90109 0.61225 0.69644 0.0
H201 H 0.95446 0.63436 0.79383 0.0
C202 C 0.22767 0.01447 0.53323 0.0
C203 C 0.26307 0.02304 0.55586 0.0
C204 C 0.27928 0.0509 0.55761 0.0
C205 C 0.25297 0.05774 0.53607 0.0
N206 N 0.22141 0.03592 0.52082 0.0
Co207 Co 0.17631 0.03661 0.48823 0.0
N208 N 0.20734 0.07235 0.48022 0.0
C209 C 0.24032 0.09044 0.49971 0.0
C210 C 0.2544 0.11416 0.48877 0.0
C211 C 0.22848 0.11089 0.4608 0.0
C212 C 0.19993 0.08514 0.45612 0.0
N213 N 0.13109 0.03735 0.45569 0.0
C214 C 0.13031 0.05252 0.43305 0.0
C215 C 0.09235 0.04578 0.41444 0.0
C216 C 0.0686 0.02641 0.42654 0.0
C217 C 0.09325 0.02211 0.45156 0.0
N218 N 0.14542 0.00095 0.49658 0.0
C219 C 0.10607 0.98984 0.48861 0.0
C220 C 0.09317 0.96478 0.49738 0.0
C221 C 0.12652 0.95994 0.51188 0.0
C222 C 0.15799 0.98247 0.51121 0.0
N223 N 0.15963 0.05614 0.51888 0.0
C224 C 0.13939 0.08585 0.56363 0.0
C225 C 0.15174 0.06352 0.56993 0.0
C226 C 0.1613 0.04874 0.54714 0.0
C227 C 0.13654 0.09267 0.53434 0.0
C228 C 0.14706 0.07772 0.5124 0.0
N229 N 0.19296 0.01708 0.45766 0.0
C230 C 0.17727 0.98049 0.41493 0.0
C231 C 0.217 0.98691 0.4161 0.0
C232 C 0.24447 0.00908 0.43803 0.0
C233 C 0.23177 0.02415 0.45835 0.0
C234 C 0.1659 0.99565 0.43608 0.0
H235 H 0.25342 0.04121 0.47498 0.0
H236 H 0.13525 0.98966 0.4353 0.0
H237 H 0.1706 0.03156 0.55256 0.0
H238 H 0.14559 0.08396 0.49035 0.0
C239 C 0.25978 0.08296 0.5259 0.0
C240 C 0.1992 0.9865 0.52606 0.0
C241 C 0.16422 0.07496 0.43033 0.0
C242 C 0.0831 0.00093 0.46822 0.0
H243 H 0.27567 0.01054 0.56984 0.0
H244 H 0.3075 0.06431 0.57206 0.0
H245 H 0.28074 0.13154 0.49954 0.0
H246 H 0.23005 0.12608 0.44598 0.0
H247 H 0.08268 0.05409 0.39435 0.0
H248 H 0.03734 0.01595 0.41744 0.0
H249 H 0.06323 0.95106 0.49258 0.0
H250 H 0.12753 0.94191 0.52173 0.0
H251 H 0.15406 0.05756 0.59231 0.0
H252 H 0.12742 0.10999 0.52874 0.0
H253 H 0.15526 0.96328 0.39845 0.0
H254 H 0.27546 0.01464 0.43949 0.0
C255 C 0.53061 0.86871 0.06814 0.0
C256 C 0.53201 0.89329 0.08456 0.0
C257 C 0.56695 0.91257 0.08512 0.0
C258 C 0.58486 0.89881 0.069 0.0
N259 N 0.56313 0.87214 0.05803 0.0
Co260 Co 0.57865 0.84489 0.03445 0.0
N261 N 0.62 0.87438 0.02448 0.0
C262 C 0.63617 0.90069 0.03927 0.0
C263 C 0.6641 0.91624 0.02688 0.0
C264 C 0.66558 0.89852 0.0029 0.0
C265 C 0.63834 0.87311 0.00205 0.0
N266 N 0.59441 0.81773 0.01106 0.0
C267 C 0.61494 0.82128 0.98981 0.0
C268 C 0.61961 0.79682 0.9788 0.0
C269 C 0.60144 0.77739 0.994 0.0
C270 C 0.58672 0.79101 0.0133 0.0
N271 N 0.53748 0.81526 0.04448 0.0
C272 C 0.53535 0.78869 0.04297 0.0
C273 C 0.50402 0.77297 0.05183 0.0
C274 C 0.48558 0.79081 0.05977 0.0
C275 C 0.50686 0.81657 0.05536 0.0
N276 N 0.54104 0.84549 0.99698 0.0
C277 C 0.49064 0.84607 0.94099 0.0
C278 C 0.49066 0.82117 0.95074 0.0
C279 C 0.51626 0.82133 0.97849 0.0
C280 C 0.51587 0.87071 0.96051 0.0
C281 C 0.54041 0.86996 0.98847 0.0
N282 N 0.6165 0.8443 0.07187 0.0
C283 C 0.6814 0.8458 0.09786 0.0
C284 C 0.67041 0.84313 0.12521 0.0
C285 C 0.6321 0.84113 0.12548 0.0
C286 C 0.60575 0.84207 0.09869 0.0
C287 C 0.65387 0.84602 0.07135 0.0
H288 H 0.57665 0.84097 0.09975 0.0
H289 H 0.66286 0.84754 0.0504 0.0
H290 H 0.51629 0.80183 0.98481 0.0
H291 H 0.55947 0.88923 0.00293 0.0
C292 C 0.61927 0.91086 0.06042 0.0
C293 C 0.50008 0.84214 0.06545 0.0
C294 C 0.6322 0.84781 0.98111 0.0
C295 C 0.55982 0.77865 0.02919 0.0
H296 H 0.51038 0.89677 0.0955 0.0
H297 H 0.57758 0.93416 0.09548 0.0
H298 H 0.6802 0.93809 0.03356 0.0
H299 H 0.68447 0.90367 0.98781 0.0
H300 H 0.63454 0.79338 0.96163 0.0
H301 H 0.5979 0.75568 0.99037 0.0
H302 H 0.49511 0.75106 0.05187 0.0
H303 H 0.45997 0.78558 0.06854 0.0
H304 H 0.47106 0.80155 0.93709 0.0
H305 H 0.51742 0.89051 0.95409 0.0
H306 H 0.71084 0.8473 0.0969 0.0
H307 H 0.62278 0.83928 0.14639 0.0
C308 C 0.84074 0.03656 0.6556 0.0
C309 C 0.87598 0.03731 0.67493 0.0
C310 C 0.9042 0.05992 0.6716 0.0
C311 C 0.88479 0.07152 0.65035 0.0
N312 N 0.84573 0.05793 0.64015 0.0
Co313 Co 0.80722 0.06625 0.607 0.0
N314 N 0.84892 0.0994 0.6019 0.0
C315 C 0.887 0.10938 0.61831 0.0
C316 C 0.90801 0.13349 0.61123 0.0
C317 C 0.88165 0.13958 0.58931 0.0
C318 C 0.846 0.11859 0.58408 0.0
N319 N 0.76909 0.07377 0.57287 0.0
C320 C 0.77417 0.09468 0.5568 0.0
C321 C 0.74014 0.09177 0.53444 0.0
C322 C 0.71233 0.06848 0.53689 0.0
C323 C 0.73095 0.05843 0.56034 0.0
N324 N 0.7651 0.03398 0.61307 0.0
C325 C 0.72639 0.02543 0.59846 0.0
C326 C 0.70444 0.00315 0.60804 0.0
C327 C 0.73071 0.99695 0.62996 0.0
C328 C 0.76738 0.01576 0.63226 0.0
N329 N 0.79565 0.09043 0.63776 0.0
C330 C 0.78011 0.1268 0.6799 0.0
C331 C 0.75043 0.10991 0.65451 0.0
C332 C 0.75871 0.09194 0.63402 0.0
C333 C 0.81751 0.12465 0.68416 0.0
C334 C 0.8246 0.10657 0.66298 0.0
N335 N 0.81884 0.042 0.57628 0.0
C336 C 0.7976 0.00096 0.5375 0.0
C337 C 0.836 0.00528 0.53562 0.0
C338 C 0.8655 0.02872 0.55401 0.0
C339 C 0.8564 0.04657 0.57404 0.0
C340 C 0.78971 0.01951 0.55754 0.0
H341 H 0.88038 0.06379 0.58763 0.0
H342 H 0.75982 0.01496 0.5577 0.0
H343 H 0.73481 0.07977 0.61508 0.0
H344 H 0.85385 0.10623 0.66737 0.0
C345 C 0.90223 0.09543 0.63995 0.0
C346 C 0.80358 0.01475 0.65204 0.0
C347 C 0.80995 0.11828 0.56278 0.0
C348 C 0.71233 0.03683 0.57361 0.0
H349 H 0.88093 0.02284 0.68966 0.0
H350 H 0.93524 0.06694 0.68309 0.0
H351 H 0.93872 0.14538 0.62111 0.0
H352 H 0.88794 0.15766 0.57872 0.0
H353 H 0.73564 0.10548 0.51856 0.0
H354 H 0.68178 0.06045 0.52395 0.0
H355 H 0.67326 0.99216 0.5994 0.0
H356 H 0.72377 0.98009 0.64233 0.0
H357 H 0.72104 0.11095 0.64993 0.0
H358 H 0.84139 0.13689 0.70376 0.0
H359 H 0.77361 0.98302 0.52403 0.0
H360 H 0.89562 0.03342 0.55298 0.0
C361 C 0.41552 0.32849 0.1212 0.0
C362 C 0.41256 0.35341 0.1329 0.0
C363 C 0.43984 0.3736 0.12485 0.0
C364 C 0.45757 0.35996 0.10852 0.0
N365 N 0.44282 0.33221 0.10513 0.0
Co366 Co 0.45989 0.30454 0.08276 0.0
N367 N 0.50062 0.33438 0.07147 0.0
C368 C 0.50807 0.36185 0.07823 0.0
C369 C 0.53729 0.37723 0.06704 0.0
C370 C 0.54902 0.35849 0.05191 0.0
C371 C 0.52605 0.33264 0.05469 0.0
N372 N 0.47784 0.27691 0.06117 0.0
C373 C 0.50597 0.28063 0.04587 0.0
C374 C 0.5088 0.25573 0.03406 0.0
C375 C 0.48159 0.23556 0.04222 0.0
C376 C 0.46371 0.2492 0.0584 0.0
N377 N 0.41841 0.27468 0.09333 0.0
C378 C 0.40962 0.24718 0.08507 0.0
C379 C 0.38118 0.23173 0.09688 0.0
C380 C 0.37121 0.25039 0.11381 0.0
C381 C 0.39398 0.27637 0.11111 0.0
N382 N 0.42137 0.30323 0.04381 0.0
C383 C 0.36546 0.30126 0.98936 0.0
C384 C 0.37301 0.27749 0.99651 0.0
C385 C 0.40067 0.27889 0.02372 0.0
C386 C 0.38663 0.32607 0.00964 0.0
C387 C 0.41445 0.32663 0.03634 0.0
N388 N 0.49813 0.30581 0.12176 0.0
C389 C 0.52312 0.28264 0.16114 0.0
C390 C 0.54897 0.30769 0.17886 0.0
C391 C 0.54958 0.33177 0.16733 0.0
C392 C 0.52394 0.33039 0.13903 0.0
C393 C 0.49847 0.28214 0.13275 0.0
H394 H 0.52523 0.3495 0.13178 0.0
H395 H 0.47976 0.26236 0.12024 0.0
H396 H 0.4046 0.25997 0.02801 0.0
H397 H 0.42993 0.34628 0.0505 0.0
C398 C 0.48758 0.37261 0.09558 0.0
C399 C 0.39261 0.302 0.12684 0.0
C400 C 0.52944 0.30713 0.04081 0.0
C401 C 0.43178 0.23652 0.06937 0.0
H402 H 0.39295 0.35671 0.14614 0.0
H403 H 0.44606 0.3956 0.1303 0.0
H404 H 0.54869 0.39943 0.06958 0.0
H405 H 0.57186 0.36331 0.0401 0.0
H406 H 0.528 0.2524 0.02043 0.0
H407 H 0.47496 0.21354 0.03639 0.0
H408 H 0.37026 0.20954 0.0946 0.0
H409 H 0.35034 0.24523 0.12732 0.0
H410 H 0.3571 0.25776 0.98145 0.0
H411 H 0.38207 0.34508 0.00474 0.0
H412 H 0.52216 0.26344 0.16904 0.0
H413 H 0.56917 0.35166 0.18041 0.0
C414 C 0.19511 0.37047 0.30561 0.0
C415 C 0.20201 0.35319 0.32658 0.0
C416 C 0.18651 0.3942 0.31438 0.0
C417 C 0.18423 0.40073 0.3448 0.0
C418 C 0.19174 0.38369 0.36627 0.0
C419 C 0.20069 0.36017 0.35694 0.0
C420 C 0.17882 0.41188 0.2908 0.0
C421 C 0.18943 0.38996 0.39888 0.0
C422 C 0.18772 0.47389 0.37026 0.0
C423 C 0.1477 0.47063 0.36382 0.0
C424 C 0.2002 0.45118 0.36504 0.0
C425 C 0.17193 0.42462 0.35343 0.0
C426 C 0.13153 0.42112 0.34803 0.0
C427 C 0.11992 0.44418 0.35316 0.0
C428 C 0.24351 0.45575 0.37083 0.0
C429 C 0.10049 0.39311 0.33601 0.0
H430 H 0.19533 0.36506 0.28197 0.0
H431 H 0.20649 0.34717 0.37342 0.0
H432 H 0.14795 0.41135 0.28623 0.0
H433 H 0.19782 0.43363 0.29971 0.0
H434 H 0.18416 0.40492 0.26869 0.0
H435 H 0.19776 0.37537 0.41314 0.0
H436 H 0.20897 0.4112 0.40985 0.0
H437 H 0.15911 0.3889 0.39881 0.0
H438 H 0.20925 0.49435 0.37836 0.0
H439 H 0.08896 0.44156 0.34864 0.0
H440 H 0.2503 0.45109 0.34871 0.0
H441 H 0.25193 0.44159 0.38564 0.0
H442 H 0.26177 0.47727 0.38198 0.0
H443 H 0.10108 0.38525 0.31252 0.0
H444 H 0.07055 0.39363 0.33507 0.0
H445 H 0.10654 0.37825 0.35075 0.0
C446 C 0.17831 0.74044 0.67743 0.0
C447 C 0.21638 0.74812 0.69715 0.0
C448 C 0.15036 0.71461 0.67556 0.0
C449 C 0.15996 0.69659 0.69501 0.0
C450 C 0.19857 0.70367 0.71405 0.0
C451 C 0.22655 0.72886 0.71407 0.0
C452 C 0.11012 0.70705 0.6536 0.0
C453 C 0.20986 0.68537 0.73575 0.0
C454 C 0.07892 0.64988 0.72247 0.0
C455 C 0.07608 0.62379 0.70827 0.0
C456 C 0.10584 0.67376 0.71808 0.0
C457 C 0.12902 0.67155 0.69766 0.0
C458 C 0.12454 0.6453 0.6818 0.0
C459 C 0.09907 0.62164 0.68812 0.0
C460 C 0.11084 0.70118 0.73649 0.0
C461 C 0.14723 0.64208 0.65872 0.0
H462 H 0.16964 0.75487 0.66418 0.0
H463 H 0.25621 0.73373 0.72826 0.0
H464 H 0.1003 0.68543 0.64137 0.0
H465 H 0.08867 0.70869 0.66658 0.0
H466 H 0.10955 0.72078 0.63631 0.0
H467 H 0.24085 0.69433 0.74979 0.0
H468 H 0.19062 0.68194 0.75153 0.0
H469 H 0.20566 0.66496 0.72266 0.0
H470 H 0.06114 0.65146 0.73811 0.0
H471 H 0.0974 0.60144 0.67755 0.0
H472 H 0.10495 0.71545 0.7209 0.0
H473 H 0.14159 0.71072 0.75083 0.0
H474 H 0.091 0.69921 0.75181 0.0
H475 H 0.14892 0.65834 0.64439 0.0
H476 H 0.13371 0.62161 0.64336 0.0
H477 H 0.17761 0.64406 0.67096 0.0
C478 C 0.94279 0.76334 0.37265 0.0
C479 C 0.9317 0.77249 0.39828 0.0
C480 C 0.95986 0.74256 0.37305 0.0
C481 C 0.96573 0.73052 0.39962 0.0
C482 C 0.9549 0.73985 0.42566 0.0
C483 C 0.93817 0.76086 0.42471 0.0
C484 C 0.97133 0.73335 0.34492 0.0
C485 C 0.96045 0.72738 0.45431 0.0
C486 C 0.9732 0.65893 0.38685 0.0
C487 C 0.01387 0.66456 0.39615 0.0
C488 C 0.95711 0.68013 0.38863 0.0
C489 C 0.98232 0.70768 0.39973 0.0
C490 C 0.02338 0.71346 0.40967 0.0
C491 C 0.03867 0.69179 0.40789 0.0
C492 C 0.91315 0.67309 0.37812 0.0
C493 C 0.05123 0.74259 0.42139 0.0
H494 H 0.93817 0.77239 0.35221 0.0
H495 H 0.92965 0.76796 0.44454 0.0
H496 H 0.00286 0.73542 0.35118 0.0
H497 H 0.95443 0.71127 0.33559 0.0
H498 H 0.96598 0.74541 0.32649 0.0
H499 H 0.95113 0.73728 0.47277 0.0
H500 H 0.94326 0.70506 0.44876 0.0
H501 H 0.99172 0.72936 0.46323 0.0
H502 H 0.95392 0.63785 0.37814 0.0
H503 H 0.07014 0.69625 0.41483 0.0
H504 H 0.90534 0.68282 0.35802 0.0
H505 H 0.90243 0.6814 0.39665 0.0
H506 H 0.89754 0.65053 0.37152 0.0
H507 H 0.04889 0.7549 0.40282 0.0
H508 H 0.08221 0.7435 0.42946 0.0
H509 H 0.04322 0.75247 0.44063 0.0
C510 C 0.76858 0.35873 0.78133 0.0
C511 C 0.77392 0.35541 0.81215 0.0
C512 C 0.78853 0.38358 0.77348 0.0
C513 C 0.8144 0.40566 0.79701 0.0
C514 C 0.81911 0.40272 0.8282 0.0
C515 C 0.79881 0.37761 0.8354 0.0
C516 C 0.78263 0.38598 0.73996 0.0
C517 C 0.84646 0.42583 0.85392 0.0
C518 C 0.89668 0.45796 0.77608 0.0
C519 C 0.88183 0.47959 0.77257 0.0
C520 C 0.87505 0.43379 0.78416 0.0
C521 C 0.83781 0.43139 0.7889 0.0
C522 C 0.82288 0.45341 0.78553 0.0
C523 C 0.84519 0.47735 0.77737 0.0
C524 C 0.89195 0.41078 0.78748 0.0
C525 C 0.78336 0.45161 0.79043 0.0
H526 H 0.74893 0.34177 0.76329 0.0
H527 H 0.80335 0.37508 0.85924 0.0
H528 H 0.77346 0.40408 0.73574 0.0
H529 H 0.81072 0.38927 0.73373 0.0
H530 H 0.76022 0.36732 0.72453 0.0
H531 H 0.84519 0.42079 0.87698 0.0
H532 H 0.87704 0.43031 0.85228 0.0
H533 H 0.83906 0.44491 0.85182 0.0
H534 H 0.92519 0.45999 0.77234 0.0
H535 H 0.83409 0.49434 0.77467 0.0
H536 H 0.87206 0.39183 0.7711 0.0
H537 H 0.89439 0.40597 0.81098 0.0
H538 H 0.9214 0.41601 0.78317 0.0
H539 H 0.76013 0.43394 0.77411 0.0
H540 H 0.77619 0.47066 0.78719 0.0
H541 H 0.78273 0.44789 0.81399 0.0
C542 C 0.14032 0.17644 0.3089 0.0
C543 C 0.16419 0.20298 0.3244 0.0
C544 C 0.13759 0.15365 0.32373 0.0
C545 C 0.16023 0.1575 0.35444 0.0
C546 C 0.18498 0.18427 0.36996 0.0
C547 C 0.18627 0.20675 0.35486 0.0
C548 C 0.11016 0.12555 0.30673 0.0
C549 C 0.21028 0.18916 0.40247 0.0
C550 C 0.13338 0.10804 0.40838 0.0
C551 C 0.15892 0.09302 0.4074 0.0
C552 C 0.13184 0.12796 0.38982 0.0
C553 C 0.15764 0.13377 0.37078 0.0
C554 C 0.18307 0.11831 0.36932 0.0
C555 C 0.18312 0.09789 0.38749 0.0
C556 C 0.10376 0.14358 0.39159 0.0
C557 C 0.21173 0.12436 0.34994 0.0
H558 H 0.12332 0.1736 0.2853 0.0
H559 H 0.20521 0.22723 0.36675 0.0
H560 H 0.12678 0.1111 0.30537 0.0
H561 H 0.0883 0.11714 0.31949 0.0
H562 H 0.09432 0.12607 0.28304 0.0
H563 H 0.22937 0.211 0.4107 0.0
H564 H 0.19151 0.18334 0.41826 0.0
H565 H 0.22911 0.17601 0.40391 0.0
H566 H 0.11545 0.1048 0.42443 0.0
H567 H 0.20335 0.08657 0.38726 0.0
H568 H 0.08722 0.1441 0.36816 0.0
H569 H 0.12043 0.16519 0.40318 0.0
H570 H 0.0825 0.13432 0.40455 0.0
H571 H 0.19633 0.1242 0.32593 0.0
H572 H 0.2276 0.10929 0.34973 0.0
H573 H 0.23358 0.14528 0.35907 0.0
C574 C 0.31437 0.82123 0.79415 0.0
C575 C 0.32541 0.82793 0.76749 0.0
C576 C 0.34228 0.82747 0.82265 0.0
C577 C 0.38213 0.84168 0.82488 0.0
C578 C 0.393 0.85069 0.79869 0.0
C579 C 0.36458 0.84343 0.77018 0.0
C580 C 0.32941 0.8172 0.8499 0.0
C581 C 0.43499 0.86671 0.80038 0.0
C582 C 0.44804 0.86703 0.90659 0.0
C583 C 0.46467 0.84614 0.91063 0.0
C584 C 0.42261 0.86665 0.87832 0.0
C585 C 0.41257 0.84442 0.85377 0.0
C586 C 0.42973 0.82356 0.85746 0.0
C587 C 0.45599 0.82493 0.88558 0.0
C588 C 0.40578 0.88968 0.87498 0.0
C589 C 0.41943 0.79928 0.83199 0.0
H590 H 0.28397 0.81006 0.79253 0.0
H591 H 0.37348 0.84878 0.7498 0.0
H592 H 0.34274 0.80146 0.85678 0.0
H593 H 0.33972 0.83426 0.86987 0.0
H594 H 0.29703 0.80786 0.84478 0.0
H595 H 0.4375 0.87606 0.77961 0.0
H596 H 0.44792 0.88328 0.82101 0.0
H597 H 0.45266 0.85279 0.80244 0.0
H598 H 0.4541 0.88344 0.92569 0.0
H599 H 0.4695 0.80913 0.88792 0.0
H600 H 0.37403 0.88188 0.87352 0.0
H601 H 0.40879 0.89743 0.85341 0.0
H602 H 0.42037 0.90715 0.89466 0.0
H603 H 0.38748 0.78778 0.82593 0.0
H604 H 0.43549 0.78485 0.8385 0.0
H605 H 0.42626 0.80651 0.81105 0.0
C606 C 0.89019 0.91477 0.40974 0.0
C607 C 0.87572 0.88671 0.41097 0.0
C608 C 0.88771 0.93475 0.43176 0.0
C609 C 0.86958 0.92634 0.45515 0.0
C610 C 0.85637 0.89806 0.4572 0.0
C611 C 0.8599 0.87857 0.43516 0.0
C612 C 0.9029 0.96472 0.42918 0.0
C613 C 0.83646 0.88824 0.48156 0.0
C614 C 0.87986 0.97917 0.52383 0.0
C615 C 0.84512 0.9854 0.51482 0.0
C616 C 0.88849 0.96022 0.50456 0.0
C617 C 0.86146 0.94682 0.4758 0.0
C618 C 0.82636 0.95294 0.46658 0.0
C619 C 0.81881 0.97231 0.48604 0.0
C620 C 0.92643 0.95446 0.51499 0.0
C621 C 0.79665 0.93895 0.43614 0.0
H622 H 0.9026 0.92102 0.39105 0.0
H623 H 0.84838 0.85682 0.43589 0.0
H624 H 0.87791 0.9724 0.42249 0.0
H625 H 0.92184 0.97727 0.45172 0.0
H626 H 0.91992 0.96805 0.41182 0.0
H627 H 0.83072 0.86591 0.48153 0.0
H628 H 0.85466 0.89987 0.50469 0.0
H629 H 0.80808 0.89212 0.47756 0.0
H630 H 0.90014 0.9888 0.54618 0.0
H631 H 0.79229 0.97731 0.47853 0.0
H632 H 0.94347 0.95851 0.49774 0.0
H633 H 0.92016 0.93243 0.51683 0.0
H634 H 0.94489 0.96723 0.53759 0.0
H635 H 0.81018 0.94363 0.41699 0.0
H636 H 0.77037 0.94552 0.43272 0.0
H637 H 0.78704 0.91627 0.4347 0.0
C638 C 0.65274 0.29228 0.91991 0.0
C639 C 0.68219 0.31733 0.92178 0.0
C640 C 0.62797 0.2898 0.93953 0.0
C641 C 0.63267 0.31296 0.96135 0.0
C642 C 0.66256 0.33823 0.96343 0.0
C643 C 0.68702 0.34006 0.94365 0.0
C644 C 0.59656 0.26249 0.93676 0.0
C645 C 0.66839 0.3634 0.9863 0.0
C646 C 0.54586 0.31527 0.99139 0.0
C647 C 0.5557 0.30815 0.02032 0.0
C648 C 0.57061 0.31681 0.97188 0.0
C649 C 0.60587 0.31096 0.98162 0.0
C650 C 0.61574 0.30358 0.01086 0.0
C651 C 0.59052 0.30238 0.02996 0.0
C652 C 0.55918 0.32491 0.94098 0.0
C653 C 0.65297 0.29711 0.02199 0.0
H654 H 0.6489 0.27459 0.90307 0.0
H655 H 0.70977 0.35944 0.94508 0.0
H656 H 0.60002 0.25548 0.95922 0.0
H657 H 0.5672 0.26484 0.93048 0.0
H658 H 0.59741 0.24628 0.91919 0.0
H659 H 0.69328 0.3814 0.98525 0.0
H660 H 0.64136 0.36905 0.98185 0.0
H661 H 0.67391 0.35891 0.00998 0.0
H662 H 0.51883 0.31974 0.98416 0.0
H663 H 0.59794 0.29697 0.05248 0.0
H664 H 0.5571 0.30847 0.92237 0.0
H665 H 0.58209 0.34389 0.93945 0.0
H666 H 0.53066 0.32863 0.93683 0.0
H667 H 0.65364 0.28004 0.00549 0.0
H668 H 0.65592 0.29116 0.04505 0.0
H669 H 0.67878 0.3153 0.02319 0.0
C670 C 0.29997 0.90563 0.63865 0.0
C671 C 0.27689 0.87822 0.63649 0.0
C672 C 0.28735 0.92223 0.61888 0.0
C673 C 0.25082 0.91105 0.59633 0.0
C674 C 0.22792 0.8831 0.59344 0.0
C675 C 0.24118 0.86701 0.61362 0.0
C676 C 0.31255 0.95197 0.62275 0.0
C677 C 0.18895 0.8704 0.56956 0.0
C678 C 0.20011 0.96163 0.57027 0.0
C679 C 0.2096 0.96536 0.54249 0.0
C680 C 0.21276 0.9436 0.58771 0.0
C681 C 0.23556 0.92908 0.57709 0.0
C682 C 0.24469 0.93253 0.54871 0.0
C683 C 0.23174 0.95084 0.53179 0.0
C684 C 0.20255 0.94062 0.61788 0.0
C685 C 0.26879 0.91736 0.5366 0.0
H686 H 0.3276 0.91429 0.65629 0.0
H687 H 0.22324 0.84577 0.61169 0.0
H688 H 0.31845 0.95654 0.60059 0.0
H689 H 0.29675 0.96563 0.62968 0.0
H690 H 0.34101 0.95712 0.64036 0.0
H691 H 0.17591 0.84796 0.56896 0.0
H692 H 0.16808 0.88061 0.5745 0.0
H693 H 0.19245 0.87366 0.54642 0.0
H694 H 0.18348 0.97334 0.57861 0.0
H695 H 0.23935 0.95416 0.51042 0.0
H696 H 0.22979 0.94764 0.63704 0.0
H697 H 0.18719 0.91866 0.61802 0.0
H698 H 0.18359 0.95273 0.62235 0.0
H699 H 0.29861 0.92386 0.55258 0.0
H700 H 0.27156 0.92122 0.51342 0.0
H701 H 0.25534 0.89488 0.53534 0.0
C702 C 0.79021 0.85413 0.29616 0.0
C703 C 0.8231 0.8455 0.29929 0.0
C704 C 0.76699 0.85402 0.26713 0.0
C705 C 0.77605 0.84426 0.24041 0.0
C706 C 0.80887 0.83525 0.24323 0.0
C707 C 0.83227 0.83627 0.27262 0.0
C708 C 0.73254 0.86418 0.26509 0.0
C709 C 0.81899 0.82424 0.21521 0.0
C710 C 0.69062 0.82014 0.16861 0.0
C711 C 0.69878 0.84266 0.15355 0.0
C712 C 0.71643 0.81991 0.19631 0.0
C713 C 0.75058 0.8431 0.20957 0.0
C714 C 0.75912 0.86579 0.19419 0.0
C715 C 0.73326 0.86514 0.16609 0.0
C716 C 0.70678 0.79508 0.21165 0.0
C717 C 0.79472 0.89114 0.20795 0.0
H718 H 0.78212 0.86065 0.31644 0.0
H719 H 0.85784 0.82992 0.27466 0.0
H720 H 0.7347 0.88052 0.25087 0.0
H721 H 0.70482 0.84709 0.25369 0.0
H722 H 0.73079 0.87255 0.28806 0.0
H723 H 0.84514 0.81764 0.22133 0.0
H724 H 0.79379 0.80639 0.20106 0.0
H725 H 0.82474 0.84021 0.20069 0.0
H726 H 0.66398 0.80272 0.15866 0.0
H727 H 0.73928 0.88259 0.1544 0.0
H728 H 0.70067 0.80082 0.23377 0.0
H729 H 0.73221 0.78767 0.21695 0.0
H730 H 0.68086 0.77789 0.19711 0.0
H731 H 0.79247 0.9009 0.23008 0.0
H732 H 0.79795 0.90655 0.19251 0.0
H733 H 0.82168 0.88544 0.21302 0.0
C734 C 0.75314 0.23437 0.80713 0.0
C735 C 0.73867 0.25311 0.79235 0.0
C736 C 0.75815 0.21212 0.79009 0.0
C737 C 0.74804 0.20846 0.75757 0.0
C738 C 0.73176 0.22666 0.74256 0.0
C739 C 0.72747 0.24884 0.76014 0.0
C740 C 0.77588 0.19328 0.80692 0.0
C741 C 0.7201 0.22325 0.70792 0.0
C742 C 0.80046 0.17347 0.71262 0.0
C743 C 0.77246 0.14716 0.70113 0.0
C744 C 0.79323 0.19331 0.73167 0.0
C745 C 0.75691 0.18685 0.7392 0.0
C746 C 0.72868 0.16026 0.72805 0.0
C747 C 0.73685 0.14069 0.70926 0.0
C748 C 0.82418 0.22143 0.74318 0.0
C749 C 0.68955 0.15267 0.73549 0.0
H750 H 0.76206 0.23777 0.83205 0.0
H751 H 0.71587 0.26318 0.74871 0.0
H752 H 0.75741 0.17146 0.79781 0.0
H753 H 0.80515 0.19583 0.80309 0.0
H754 H 0.77932 0.1976 0.83207 0.0
H755 H 0.70517 0.23788 0.69981 0.0
H756 H 0.74655 0.22668 0.69928 0.0
H757 H 0.70024 0.20195 0.69758 0.0
H758 H 0.82778 0.17887 0.7061 0.0
H759 H 0.71526 0.1203 0.7009 0.0
H760 H 0.83114 0.22667 0.7686 0.0
H761 H 0.81291 0.23724 0.73359 0.0
H762 H 0.85169 0.22266 0.73668 0.0
H763 H 0.69396 0.15621 0.76076 0.0
H764 H 0.67131 0.13083 0.7259 0.0
H765 H 0.67314 0.16604 0.72604 0.0
C766 C 0.2607 0.32092 0.23893 0.0
C767 C 0.25795 0.30183 0.259 0.0
C768 C 0.2832 0.32143 0.2178 0.0
C769 C 0.30184 0.30148 0.21544 0.0
C770 C 0.29844 0.28169 0.23489 0.0
C771 C 0.27743 0.28253 0.25691 0.0
C772 C 0.28726 0.3435 0.19817 0.0
C773 C 0.31686 0.2595 0.23237 0.0
C774 C 0.3284 0.28858 0.1405 0.0
C775 C 0.36916 0.30142 0.14958 0.0
C776 C 0.30623 0.28774 0.16191 0.0
C777 C 0.32508 0.30141 0.19269 0.0
C778 C 0.36615 0.31515 0.20172 0.0
C779 C 0.38782 0.31444 0.18019 0.0
C780 C 0.26275 0.272 0.15166 0.0
C781 C 0.3871 0.33097 0.23396 0.0
H782 H 0.24515 0.33552 0.2395 0.0
H783 H 0.27663 0.26806 0.27259 0.0
H784 H 0.31873 0.35461 0.20061 0.0
H785 H 0.27353 0.33401 0.17359 0.0
H786 H 0.27333 0.35871 0.20441 0.0
H787 H 0.30894 0.24438 0.24755 0.0
H788 H 0.30741 0.24832 0.20827 0.0
H789 H 0.34924 0.2689 0.23863 0.0
H790 H 0.31399 0.27888 0.11669 0.0
H791 H 0.41937 0.32451 0.18708 0.0
H792 H 0.24605 0.28627 0.15378 0.0
H793 H 0.25501 0.25675 0.16671 0.0
H794 H 0.25314 0.26098 0.12746 0.0
H795 H 0.37349 0.34646 0.23984 0.0
H796 H 0.4188 0.34172 0.23677 0.0
H797 H 0.38418 0.31681 0.25073 0.0
C798 C 0.86608 0.76025 0.7769 0.0
C799 C 0.83685 0.76133 0.75191 0.0
C800 C 0.88191 0.73884 0.7759 0.0
C801 C 0.86743 0.71771 0.74959 0.0
C802 C 0.83789 0.71876 0.7243 0.0
C803 C 0.82335 0.74082 0.72562 0.0
C804 C 0.91408 0.7388 0.80298 0.0
C805 C 0.82112 0.69634 0.69611 0.0
C806 C 0.92791 0.67276 0.73442 0.0
C807 C 0.91121 0.64967 0.74657 0.0
C808 C 0.91434 0.69529 0.73565 0.0
C809 C 0.88275 0.69427 0.74869 0.0
C810 C 0.86562 0.67075 0.76074 0.0
C811 C 0.88041 0.64882 0.75985 0.0
C812 C 0.93392 0.7202 0.72317 0.0
C813 C 0.83143 0.66865 0.77427 0.0
H814 H 0.87686 0.7763 0.79714 0.0
H815 H 0.80067 0.74168 0.70634 0.0
H816 H 0.90401 0.72028 0.81328 0.0
H817 H 0.94003 0.73782 0.79524 0.0
H818 H 0.92328 0.75738 0.82109 0.0
H819 H 0.798 0.70011 0.67856 0.0
H820 H 0.84472 0.6947 0.68554 0.0
H821 H 0.80836 0.6762 0.70274 0.0
H822 H 0.9519 0.67327 0.7243 0.0
H823 H 0.86758 0.63078 0.76911 0.0
H824 H 0.94483 0.73886 0.74134 0.0
H825 H 0.91237 0.72356 0.70398 0.0
H826 H 0.95892 0.71806 0.7147 0.0
H827 H 0.83994 0.6856 0.79416 0.0
H828 H 0.82095 0.64872 0.78206 0.0
H829 H 0.80674 0.67091 0.75695 0.0
C830 C 0.86302 0.39054 0.44418 0.0
C831 C 0.84142 0.37588 0.41456 0.0
C832 C 0.8943 0.41527 0.44838 0.0
C833 C 0.90395 0.42551 0.42235 0.0
C834 C 0.88274 0.41046 0.39248 0.0
C835 C 0.85199 0.38581 0.38899 0.0
C836 C 0.91652 0.43068 0.48055 0.0
C837 C 0.89213 0.42061 0.36407 0.0
C838 C 0.95342 0.50053 0.42063 0.0
C839 C 0.99015 0.50036 0.41798 0.0
C840 C 0.92579 0.47666 0.42442 0.0
C841 C 0.93547 0.45225 0.42574 0.0
C842 C 0.9738 0.45277 0.42556 0.0
C843 C 0.00072 0.47689 0.42152 0.0
C844 C 0.88526 0.47697 0.42442 0.0
C845 C 0.98542 0.42732 0.42725 0.0
H846 H 0.85491 0.38301 0.46403 0.0
H847 H 0.83606 0.37425 0.36607 0.0
H848 H 0.94845 0.43488 0.48396 0.0
H849 H 0.91202 0.45087 0.484 0.0
H850 H 0.90703 0.41911 0.49837 0.0
H851 H 0.87293 0.40636 0.34252 0.0
H852 H 0.88866 0.44111 0.36331 0.0
H853 H 0.92309 0.42312 0.3648 0.0
H854 H 0.94557 0.51886 0.41788 0.0
H855 H 0.02932 0.47699 0.41946 0.0
H856 H 0.87539 0.46687 0.44299 0.0
H857 H 0.86422 0.46519 0.40224 0.0
H858 H 0.88408 0.49823 0.42741 0.0
H859 H 0.97542 0.41671 0.44549 0.0
H860 H 0.01766 0.43221 0.43185 0.0
H861 H 0.97109 0.41272 0.40508 0.0
C862 C 0.10984 0.34944 0.72857 0.0
C863 C 0.11181 0.33989 0.75656 0.0
C864 C 0.09652 0.37169 0.72343 0.0
C865 C 0.08481 0.38464 0.74682 0.0
C866 C 0.08666 0.37505 0.77509 0.0
C867 C 0.10016 0.35283 0.77962 0.0
C868 C 0.09515 0.38143 0.69306 0.0
C869 C 0.07428 0.38825 0.80055 0.0
C870 C 0.0842 0.45793 0.74851 0.0
C871 C 0.0441 0.45374 0.73712 0.0
C872 C 0.09797 0.4356 0.75102 0.0
C873 C 0.07097 0.40842 0.742 0.0
C874 C 0.03057 0.40403 0.72971 0.0
C875 C 0.01762 0.42676 0.72736 0.0
C876 C 0.1413 0.44112 0.76402 0.0
C877 C 0.00089 0.37534 0.71994 0.0
H878 H 0.1192 0.3397 0.71079 0.0
H879 H 0.10109 0.34529 0.80112 0.0
H880 H 0.06484 0.38038 0.68175 0.0
H881 H 0.11412 0.40328 0.69695 0.0
H882 H 0.10496 0.36899 0.67715 0.0
H883 H 0.07728 0.37823 0.82107 0.0
H884 H 0.09234 0.41037 0.80763 0.0
H885 H 0.04328 0.38713 0.79219 0.0
H886 H 0.10483 0.47875 0.7557 0.0
H887 H 0.98656 0.42342 0.71884 0.0
H888 H 0.15245 0.43 0.74793 0.0
H889 H 0.14636 0.4333 0.78594 0.0
H890 H 0.15864 0.46341 0.76847 0.0
H891 H 0.00943 0.36282 0.7032 0.0
H892 H 0.97088 0.37541 0.70935 0.0
H893 H 1.00016 0.36503 0.74019 0.0
C894 C 0.23572 0.74284 0.26903 0.0
C895 C 0.25836 0.76691 0.29051 0.0
C896 C 0.22077 0.71775 0.27862 0.0
C897 C 0.22872 0.71675 0.31043 0.0
C898 C 0.25307 0.74069 0.33212 0.0
C899 C 0.26761 0.76547 0.32189 0.0
C900 C 0.19497 0.69264 0.2548 0.0
C901 C 0.26243 0.74042 0.36622 0.0
C902 C 0.15385 0.66341 0.33724 0.0
C903 C 0.17178 0.64343 0.34179 0.0
C904 C 0.17213 0.68737 0.32702 0.0
C905 C 0.20917 0.69129 0.32116 0.0
C906 C 0.22735 0.67102 0.32575 0.0
C907 C 0.20832 0.64721 0.33601 0.0
C908 C 0.15178 0.70848 0.32246 0.0
C909 C 0.26676 0.67447 0.31973 0.0
H910 H 0.22824 0.74387 0.24477 0.0
H911 H 0.28563 0.78394 0.33855 0.0
H912 H 0.20523 0.6749 0.25851 0.0
H913 H 0.16454 0.68682 0.25709 0.0
H914 H 0.19443 0.6962 0.23099 0.0
H915 H 0.28425 0.76017 0.37989 0.0
H916 H 0.23522 0.73659 0.37389 0.0
H917 H 0.27398 0.72347 0.37131 0.0
H918 H 0.12542 0.66018 0.34165 0.0
H919 H 0.2218 0.63146 0.3394 0.0
H920 H 0.14684 0.71162 0.29824 0.0
H921 H 0.17062 0.72857 0.33719 0.0
H922 H 0.12307 0.70227 0.32806 0.0
H923 H 0.26513 0.6765 0.2954 0.0
H924 H 0.27695 0.65685 0.32454 0.0
H925 H 0.28896 0.69365 0.33424 0.0
C926 C 0.82493 0.89257 0.74234 0.0
C927 C 0.7892 0.87864 0.74812 0.0
C928 C 0.82813 0.91405 0.72545 0.0
C929 C 0.79473 0.92159 0.71393 0.0
C930 C 0.75828 0.90694 0.71878 0.0
C931 C 0.75599 0.88569 0.7359 0.0
C932 C 0.86752 0.92929 0.72083 0.0
C933 C 0.72191 0.91417 0.70657 0.0
C934 C 0.80868 0.99459 0.69994 0.0
C935 C 0.80253 0.99102 0.66803 0.0
C936 C 0.80683 0.97218 0.71523 0.0
C937 C 0.79822 0.94563 0.69804 0.0
C938 C 0.79206 0.94202 0.66573 0.0
C939 C 0.79439 0.96486 0.65108 0.0
C940 C 0.81372 0.97687 0.74972 0.0
C941 C 0.78255 0.91403 0.64663 0.0
H942 H 0.85073 0.88733 0.752 0.0
H943 H 0.72822 0.87471 0.74003 0.0
H944 H 0.865 0.92954 0.69604 0.0
H945 H 0.8777 0.95102 0.73274 0.0
H946 H 0.89011 0.91994 0.72981 0.0
H947 H 0.6954 0.89975 0.71082 0.0
H948 H 0.72606 0.93533 0.71768 0.0
H949 H 0.71669 0.91394 0.68147 0.0
H950 H 0.81475 0.01492 0.71283 0.0
H951 H 0.78955 0.96231 0.62633 0.0
H952 H 0.83788 0.96959 0.76053 0.0
H953 H 0.78703 0.96478 0.75576 0.0
H954 H 0.82126 0.99892 0.75974 0.0
H955 H 0.80601 0.90526 0.65484 0.0
H956 H 0.77926 0.91483 0.62182 0.0
H957 H 0.75489 0.89973 0.64925 0.0
C958 C 0.69763 0.29369 0.32882 0.0
C959 C 0.70808 0.31638 0.3524 0.0
C960 C 0.66965 0.29098 0.3011 0.0
C961 C 0.65138 0.31126 0.29715 0.0
C962 C 0.66041 0.33345 0.32157 0.0
C963 C 0.68895 0.33588 0.34882 0.0
C964 C 0.66115 0.26721 0.27549 0.0
C965 C 0.64102 0.35519 0.31848 0.0
C966 C 0.61525 0.32345 0.21632 0.0
C967 C 0.57507 0.30866 0.20919 0.0
C968 C 0.64042 0.32424 0.24479 0.0
C969 C 0.62487 0.31029 0.26683 0.0
C970 C 0.58421 0.29556 0.25986 0.0
C971 C 0.55981 0.29473 0.23097 0.0
C972 C 0.68372 0.33986 0.2512 0.0
C973 C 0.56646 0.28089 0.28297 0.0
H974 H 0.71276 0.27878 0.33149 0.0
H975 H 0.69696 0.35335 0.36717 0.0
H976 H 0.62913 0.25614 0.26696 0.0
H977 H 0.67126 0.27515 0.25588 0.0
H978 H 0.67593 0.2523 0.28289 0.0
H979 H 0.64849 0.36957 0.34054 0.0
H980 H 0.65046 0.3673 0.30108 0.0
H981 H 0.60868 0.34542 0.31036 0.0
H982 H 0.62708 0.33403 0.19937 0.0
H983 H 0.52864 0.28351 0.22555 0.0
H984 H 0.70078 0.32586 0.25674 0.0
H985 H 0.69318 0.35654 0.27149 0.0
H986 H 0.69121 0.34911 0.23138 0.0
H987 H 0.58001 0.26514 0.28926 0.0
H988 H 0.53422 0.27065 0.2741 0.0
H989 H 0.57262 0.29578 0.30436 0.0
C990 C 0.09606 0.17083 0.70205 0.0
C991 C 0.10848 0.19876 0.69993 0.0
C992 C 0.09808 0.15087 0.67971 0.0
C993 C 0.11381 0.15923 0.65516 0.0
C994 C 0.12614 0.18745 0.65284 0.0
C995 C 0.12298 0.20687 0.67512 0.0
C996 C 0.0839 0.12091 0.68258 0.0
C997 C 0.14369 0.19722 0.62729 0.0
C998 C 0.15965 0.11419 0.61607 0.0
C999 C 0.13136 0.1029 0.58785 0.0
C1000 C 0.15402 0.13225 0.6384 0.0
C1001 C 0.11891 0.1387 0.63252 0.0
C1002 C 0.08962 0.12654 0.60445 0.0
C1003 C 0.09641 0.10901 0.58226 0.0
C1004 C 0.18623 0.14515 0.66782 0.0
C1005 C 0.05147 0.13246 0.59765 0.0
H1006 H 0.0848 0.16461 0.72125 0.0
H1007 H 0.13295 0.2285 0.67355 0.0
H1008 H 0.0622 0.10853 0.66094 0.0
H1009 H 0.10884 0.11294 0.68635 0.0
H1010 H 0.07018 0.11767 0.7019 0.0
H1011 H 0.15137 0.21984 0.62854 0.0
H1012 H 0.17061 0.19175 0.62845 0.0
H1013 H 0.1228 0.18678 0.60461 0.0
H1014 H 0.18683 0.10965 0.62022 0.0
H1015 H 0.07445 0.10008 0.56046 0.0
H1016 H 0.17465 0.14093 0.68799 0.0
H1017 H 0.19722 0.16784 0.66951 0.0
H1018 H 0.21129 0.13741 0.66916 0.0
H1019 H 0.03735 0.12846 0.61663 0.0
H1020 H 0.0306 0.11979 0.57577 0.0
H1021 H 0.05723 0.15452 0.5961 0.0
C1022 C 0.34424 0.79188 0.15897 0.0
C1023 C 0.3375 0.81302 0.17633 0.0
C1024 C 0.36929 0.79778 0.1397 0.0
C1025 C 0.38768 0.8255 0.13749 0.0
C1026 C 0.38 0.8469 0.15424 0.0
C1027 C 0.35514 0.84042 0.17364 0.0
C1028 C 0.37703 0.77439 0.12246 0.0
C1029 C 0.39873 0.87666 0.1522 0.0
C1030 C 0.48374 0.84074 0.11559 0.0
C1031 C 0.4716 0.84054 0.08404 0.0
C1032 C 0.45683 0.83652 0.13337 0.0
C1033 C 0.41684 0.83209 0.11919 0.0
C1034 C 0.40469 0.83263 0.08737 0.0
C1035 C 0.43232 0.83669 0.07006 0.0
C1036 C 0.47097 0.83588 0.16712 0.0
C1037 C 0.36241 0.8282 0.07152 0.0
H1038 H 0.33057 0.7707 0.16103 0.0
H1039 H 0.34982 0.85686 0.18683 0.0
H1040 H 0.37049 0.77505 0.09751 0.0
H1041 H 0.40852 0.77661 0.13044 0.0
H1042 H 0.35923 0.75393 0.12571 0.0
H1043 H 0.38758 0.89067 0.16493 0.0
H1044 H 0.43097 0.88299 0.1618 0.0
H1045 H 0.39318 0.8793 0.12781 0.0
H1046 H 0.51424 0.84348 0.12611 0.0
H1047 H 0.42318 0.83636 0.04555 0.0
H1048 H 0.45656 0.81516 0.17174 0.0
H1049 H 0.46281 0.85087 0.18118 0.0
H1050 H 0.50326 0.84074 0.1748 0.0
H1051 H 0.34399 0.80697 0.07182 0.0
H1052 H 0.3583 0.83125 0.04726 0.0
H1053 H 0.3516 0.84256 0.08399 0.0
C1054 C 0.77682 0.23453 0.46664 0.0
C1055 C 0.80611 0.26008 0.47958 0.0
C1056 C 0.77669 0.21113 0.47987 0.0
C1057 C 0.80666 0.21334 0.50653 0.0
C1058 C 0.83627 0.2391 0.51965 0.0
C1059 C 0.83555 0.26218 0.50603 0.0
C1060 C 0.7445 0.18404 0.46534 0.0
C1061 C 0.86877 0.24225 0.548 0.0
C1062 C 0.78891 0.1594 0.55745 0.0
C1063 C 0.80903 0.14255 0.54818 0.0
C1064 C 0.78767 0.18245 0.54395 0.0
C1065 C 0.80712 0.18869 0.5207 0.0
C1066 C 0.8273 0.17152 0.51118 0.0
C1067 C 0.82788 0.14852 0.525 0.0
C1068 C 0.76569 0.20015 0.55462 0.0
C1069 C 0.84843 0.17751 0.48653 0.0
H1070 H 0.7539 0.23276 0.44621 0.0
H1071 H 0.8582 0.28193 0.51603 0.0
H1072 H 0.75736 0.16843 0.45836 0.0
H1073 H 0.72848 0.17627 0.4823 0.0
H1074 H 0.72315 0.18582 0.44482 0.0
H1075 H 0.88965 0.26368 0.55528 0.0
H1076 H 0.85619 0.23626 0.56729 0.0
H1077 H 0.88527 0.22828 0.54359 0.0
H1078 H 0.77426 0.15452 0.57536 0.0
H1079 H 0.84317 0.13522 0.51784 0.0
H1080 H 0.74265 0.20119 0.53487 0.0
H1081 H 0.78602 0.22149 0.56402 0.0
H1082 H 0.75165 0.19222 0.57259 0.0
H1083 H 0.82755 0.17778 0.46492 0.0
H1084 H 0.86261 0.16207 0.48171 0.0
H1085 H 0.87127 0.1982 0.49366 0.0
C1086 C 0.2279 0.31812 0.83479 0.0
C1087 C 0.19294 0.29568 0.82424 0.0
C1088 C 0.25619 0.31923 0.86169 0.0
C1089 C 0.24902 0.29757 0.87864 0.0
C1090 C 0.21349 0.27504 0.86829 0.0
C1091 C 0.18599 0.27427 0.84105 0.0
C1092 C 0.29397 0.34338 0.87172 0.0
C1093 C 0.20453 0.25178 0.886 0.0
C1094 C 0.33551 0.2868 0.93258 0.0
C1095 C 0.3356 0.3002 0.96102 0.0
C1096 C 0.30765 0.28594 0.90553 0.0
C1097 C 0.27883 0.2984 0.9071 0.0
C1098 C 0.27858 0.31173 0.93583 0.0
C1099 C 0.30719 0.31266 0.96243 0.0
C1100 C 0.30925 0.27193 0.87525 0.0
C1101 C 0.24797 0.32487 0.9385 0.0
H1102 H 0.23348 0.33453 0.82159 0.0
H1103 H 0.15881 0.257 0.83299 0.0
H1104 H 0.29753 0.35413 0.89514 0.0
H1105 H 0.31928 0.33599 0.87285 0.0
H1106 H 0.29508 0.35846 0.85588 0.0
H1107 H 0.17513 0.23613 0.87526 0.0
H1108 H 0.22693 0.24149 0.8874 0.0
H1109 H 0.20582 0.26001 0.9099 0.0
H1110 H 0.35771 0.27738 0.93145 0.0
H1111 H 0.30702 0.32279 0.98448 0.0
H1112 H 0.31271 0.28674 0.85917 0.0
H1113 H 0.28135 0.25481 0.86447 0.0
H1114 H 0.33382 0.26355 0.87793 0.0
H1115 H 0.24978 0.3413 0.92443 0.0
H1116 H 0.25142 0.33398 0.96263 0.0
H1117 H 0.21822 0.30931 0.92939 0.0
C1118 C 0.29131 0.89248 0.30779 0.0
C1119 C 0.26505 0.86547 0.30275 0.0
C1120 C 0.28543 0.9144 0.32473 0.0
C1121 C 0.25297 0.9091 0.33745 0.0
C1122 C 0.22607 0.88201 0.33207 0.0
C1123 C 0.23213 0.86066 0.31447 0.0
C1124 C 0.31427 0.94313 0.32946 0.0
C1125 C 0.19126 0.87542 0.34546 0.0
C1126 C 0.25578 0.95631 0.40815 0.0
C1127 C 0.22959 0.96944 0.39559 0.0
C1128 C 0.26461 0.93718 0.38934 0.0
C1129 C 0.24743 0.93156 0.35716 0.0
C1130 C 0.22246 0.94584 0.34425 0.0
C1131 C 0.2134 0.96436 0.3637 0.0
C1132 C 0.29071 0.92198 0.40407 0.0
C1133 C 0.20432 0.94088 0.31001 0.0
H1134 H 0.317 0.89645 0.29909 0.0
H1135 H 0.21104 0.84006 0.31004 0.0
H1136 H 0.29852 0.9576 0.32251 0.0
H1137 H 0.32999 0.95035 0.35419 0.0
H1138 H 0.33625 0.94416 0.31615 0.0
H1139 H 0.1733 0.85322 0.33934 0.0
H1140 H 0.20147 0.88129 0.3709 0.0
H1141 H 0.17226 0.88755 0.33714 0.0
H1142 H 0.26795 0.9601 0.43288 0.0
H1143 H 0.19329 0.97469 0.35406 0.0
H1144 H 0.31504 0.92382 0.39313 0.0
H1145 H 0.27355 0.89974 0.40047 0.0
H1146 H 0.30337 0.92979 0.42917 0.0
H1147 H 0.22713 0.94242 0.29747 0.0
H1148 H 0.18913 0.95576 0.30339 0.0
H1149 H 0.18271 0.91976 0.30237 0.0
C1150 C 0.75419 0.86841 0.85518 0.0
C1151 C 0.74935 0.84271 0.83845 0.0
C1152 C 0.73539 0.87042 0.87849 0.0
C1153 C 0.71141 0.84614 0.88541 0.0
C1154 C 0.70662 0.82013 0.86881 0.0
C1155 C 0.72555 0.81874 0.84548 0.0
C1156 C 0.7412 0.89851 0.89572 0.0
C1157 C 0.68137 0.79378 0.87564 0.0
C1158 C 0.69128 0.84791 0.96383 0.0
C1159 C 0.65311 0.84889 0.95689 0.0
C1160 C 0.71082 0.84733 0.94081 0.0
C1161 C 0.69162 0.84786 0.91026 0.0
C1162 C 0.6532 0.84938 0.90337 0.0
C1163 C 0.6343 0.84981 0.92688 0.0
C1164 C 0.75166 0.84562 0.94904 0.0
C1165 C 0.63191 0.85014 0.87112 0.0
H1166 H 0.77299 0.88701 0.8502 0.0
H1167 H 0.72121 0.79884 0.83238 0.0
H1168 H 0.71244 0.90155 0.89347 0.0
H1169 H 0.75453 0.90006 0.92058 0.0
H1170 H 0.76033 0.9154 0.88722 0.0
H1171 H 0.68099 0.7752 0.86084 0.0
H1172 H 0.69226 0.79231 0.90006 0.0
H1173 H 0.65082 0.79379 0.87215 0.0
H1174 H 0.7055 0.84716 0.98722 0.0
H1175 H 0.60468 0.85052 0.92182 0.0
H1176 H 0.77221 0.86298 0.94229 0.0
H1177 H 0.75181 0.8263 0.93614 0.0
H1178 H 0.76279 0.8461 0.97402 0.0
H1179 H 0.64965 0.86761 0.86254 0.0
H1180 H 0.6027 0.85223 0.86983 0.0
H1181 H 0.62782 0.83098 0.85546 0.0
loop_
_geom_bond_atom_site_label_1
_geom_bond_atom_site_label_2
_geom_bond_distance
_geom_bond_site_symmetry_2
_ccdc_geom_bond_type
H0 C5 0.930 . S
H1 C8 0.930 . S
H2 C10 0.930 . S
H3 C4 1.016 . S
C4 H3 1.016 . S
C4 N11 1.286 . S
C5 H0 0.930 . S
C5 C6 1.397 . S
C5 C7 1.361 . S
C6 C5 1.397 . S
C6 C10 1.390 . S
C7 C5 1.361 . S
C7 C8 1.393 . S
C7 N11 1.413 . S
C8 H1 0.930 . S
C8 C7 1.393 . S
C8 C9 1.399 . S
C9 C8 1.399 . S
C9 C10 1.381 . S
C10 H2 0.930 . S
C10 C6 1.390 . S
C10 C9 1.381 . S
N11 C4 1.286 . S
N11 C7 1.413 . S
H12 C17 0.930 . S
H13 C20 0.930 . S
H14 C22 0.930 . S
H15 C16 1.016 . S
C16 H15 1.016 . S
C16 N23 1.286 . S
C17 H12 0.930 . S
C17 C18 1.397 . S
C17 C19 1.361 . S
C18 C17 1.397 . S
C18 C22 1.390 . S
C19 C17 1.361 . S
C19 C20 1.393 . S
C19 N23 1.413 . S
C20 H13 0.930 . S
C20 C19 1.393 . S
C20 C21 1.399 . S
C21 C20 1.399 . S
C21 C22 1.381 . S
C22 H14 0.930 . S
C22 C18 1.390 . S
C22 C21 1.381 . S
N23 C16 1.286 . S
N23 C19 1.413 . S
H24 C29 0.930 . S
H25 C32 0.930 . S
H26 C34 0.930 . S
H27 C28 1.016 . S
C28 H27 1.016 . S
C28 N35 1.286 . S
C29 H24 0.930 . S
C29 C30 1.397 . S
C29 C31 1.361 . S
C30 C29 1.397 . S
C30 C34 1.390 . S
C31 C29 1.361 . S
C31 C32 1.393 . S
C31 N35 1.413 . S
C32 H25 0.930 . S
C32 C31 1.393 . S
C32 C33 1.399 . S
C33 C32 1.399 . S
C33 C34 1.381 . S
C34 H26 0.930 . S
C34 C30 1.390 . S
C34 C33 1.381 . S
N35 C28 1.286 . S
N35 C31 1.413 . S
H36 C41 0.930 . S
H37 C44 0.930 . S
H38 C46 0.930 . S
H39 C40 1.016 . S
C40 H39 1.016 . S
C40 N47 1.286 . S
C41 H36 0.930 . S
C41 C42 1.397 . S
C41 C43 1.361 . S
C42 C41 1.397 . S
C42 C46 1.390 . S
C43 C41 1.361 . S
C43 C44 1.393 . S
C43 N47 1.413 . S
C44 H37 0.930 . S
C44 C43 1.393 . S
C44 C45 1.399 . S
C45 C44 1.399 . S
C45 C46 1.381 . S
C46 H38 0.930 . S
C46 C42 1.390 . S
C46 C45 1.381 . S
N47 C40 1.286 . S
N47 C43 1.413 . S
H48 C53 0.930 . S
H49 C56 0.930 . S
H50 C58 0.930 . S
H51 C52 1.016 . S
C52 H51 1.016 . S
C52 N59 1.286 . S
C53 H48 0.930 . S
C53 C54 1.397 . S
C53 C55 1.361 . S
C54 C53 1.397 . S
C54 C58 1.390 . S
C55 C53 1.361 . S
C55 C56 1.393 . S
C55 N59 1.413 . S
C56 H49 0.930 . S
C56 C55 1.393 . S
C56 C57 1.399 . S
C57 C56 1.399 . S
C57 C58 1.381 . S
C58 H50 0.930 . S
C58 C54 1.390 . S
C58 C57 1.381 . S
N59 C52 1.286 . S
N59 C55 1.413 . S
H60 C65 0.930 . S
H61 C68 0.930 . S
H62 C70 0.930 . S
H63 C64 1.016 . S
C64 H63 1.016 . S
C64 N71 1.286 . S
C65 H60 0.930 . S
C65 C66 1.397 . S
C65 C67 1.361 . S
C66 C65 1.397 . S
C66 C70 1.390 . S
C67 C65 1.361 . S
C67 C68 1.393 . S
C67 N71 1.413 . S
C68 H61 0.930 . S
C68 C67 1.393 . S
C68 C69 1.399 . S
C69 C68 1.399 . S
C69 C70 1.381 . S
C70 H62 0.930 . S
C70 C66 1.390 . S
C70 C69 1.381 . S
N71 C64 1.286 . S
N71 C67 1.413 . S
H72 C77 0.930 . S
H73 C80 0.930 . S
H74 C82 0.930 . S
H75 C76 1.016 . S
C76 H75 1.016 . S
C76 N83 1.286 . S
C77 H72 0.930 . S
C77 C78 1.397 . S
C77 C79 1.361 . S
C78 C77 1.397 . S
C78 C82 1.390 . S
C79 C77 1.361 . S
C79 C80 1.393 . S
C79 N83 1.413 . S
C80 H73 0.930 . S
C80 C79 1.393 . S
C80 C81 1.399 . S
C81 C80 1.399 . S
C81 C82 1.381 . S
C82 H74 0.930 . S
C82 C78 1.390 . S
C82 C81 1.381 . S
N83 C76 1.286 . S
N83 C79 1.413 . S
H84 C89 0.930 . S
H85 C92 0.930 . S
H86 C94 0.930 . S
H87 C88 1.016 . S
C88 H87 1.016 . S
C88 N95 1.286 . S
C89 H84 0.930 . S
C89 C90 1.397 . S
C89 C91 1.361 . S
C90 C89 1.397 . S
C90 C94 1.390 . S
C91 C89 1.361 . S
C91 C92 1.393 . S
C91 N95 1.413 . S
C92 H85 0.930 . S
C92 C91 1.393 . S
C92 C93 1.399 . S
C93 C92 1.399 . S
C93 C94 1.381 . S
C94 H86 0.930 . S
C94 C90 1.390 . S
C94 C93 1.381 . S
N95 C88 1.286 . S
N95 C91 1.413 . S
C96 C97 1.443 . S
C96 N100 1.376 . S
C96 C134 1.389 . S
C97 C96 1.443 . S
C97 C98 1.340 . S
C97 H137 0.951 . S
C98 C97 1.340 . S
C98 C99 1.439 . S
C98 H138 0.950 . S
C99 C98 1.439 . S
C99 N100 1.374 . S
C99 C133 1.395 . S
N100 C96 1.376 . S
N100 C99 1.374 . S
N100 Co101 2.008 . S
Co101 N100 2.008 . S
Co101 N102 1.995 . S
Co101 N107 2.008 . S
Co101 N112 1.995 . S
Co101 N117 2.282 . S
Co101 N123 2.282 . S
N102 Co101 1.995 . S
N102 C103 1.376 . S
N102 C106 1.383 . S
C103 N102 1.376 . S
C103 C104 1.446 . S
C103 C133 1.391 . S
C104 C103 1.446 . S
C104 C105 1.339 . S
C104 H139 0.949 . S
C105 C104 1.339 . S
C105 C106 1.439 . S
C105 H140 0.950 . S
C106 N102 1.383 . S
C106 C105 1.439 . S
C106 C135 1.392 . S
N107 Co101 2.008 . S
N107 C108 1.376 . S
N107 C111 1.374 . S
C108 N107 1.376 . S
C108 C109 1.436 1_455 S
C108 C135 1.389 . S
C109 C108 1.436 1_655 S
C109 C110 1.335 1_655 S
C109 H141 0.963 . S
C110 C109 1.335 1_455 S
C110 C111 1.439 . S
C110 H142 0.950 1_455 S
C111 N107 1.374 . S
C111 C110 1.439 . S
C111 C136 1.395 . S
N112 Co101 1.995 . S
N112 C113 1.376 . S
N112 C116 1.383 . S
C113 N112 1.376 . S
C113 C114 1.446 . S
C113 C136 1.391 . S
C114 C113 1.446 . S
C114 C115 1.339 . S
C114 H143 0.949 . S
C115 C114 1.339 . S
C115 C116 1.439 . S
C115 H144 0.950 . S
C116 N112 1.383 . S
C116 C115 1.439 . S
C116 C134 1.392 . S
N117 Co101 2.282 . S
N117 C120 1.332 . S
N117 C122 1.332 . S
C118 C119 1.386 . S
C118 C121 1.388 . S
C119 C118 1.386 . S
C119 C120 1.382 . S
C119 H145 0.950 . S
C120 N117 1.332 . S
C120 C119 1.382 . S
C120 H131 0.952 . S
C121 C118 1.388 . S
C121 C122 1.382 . S
C121 H146 0.950 . S
C122 N117 1.332 . S
C122 C121 1.382 . S
C122 H132 0.948 . S
N123 Co101 2.282 . S
N123 C127 1.332 . S
N123 C128 1.332 . S
C124 C125 1.388 . S
C124 C128 1.382 . S
C124 H147 0.950 . S
C125 C124 1.388 . S
C125 C126 1.386 . S
C126 C125 1.386 . S
C126 C127 1.382 . S
C126 H148 0.950 . S
C127 N123 1.332 . S
C127 C126 1.382 . S
C127 H129 0.952 . S
C128 N123 1.332 . S
C128 C124 1.382 . S
C128 H130 0.948 . S
H129 C127 0.952 . S
H130 C128 0.948 . S
H131 C120 0.952 . S
H132 C122 0.948 . S
C133 C99 1.395 . S
C133 C103 1.391 . S
C134 C96 1.389 . S
C134 C116 1.392 . S
C135 C106 1.392 . S
C135 C108 1.389 . S
C136 C111 1.395 . S
C136 C113 1.391 . S
H137 C97 0.951 . S
H138 C98 0.950 . S
H139 C104 0.949 . S
H140 C105 0.950 . S
H141 C109 0.963 . S
H142 C110 0.950 1_655 S
H143 C114 0.949 . S
H144 C115 0.950 . S
H145 C119 0.950 . S
H146 C121 0.950 . S
H147 C124 0.950 . S
H148 C126 0.950 . S
C149 C150 1.443 . S
C149 N153 1.376 . S
C149 C187 1.389 . S
C150 C149 1.443 . S
C150 C151 1.340 . S
C150 H190 0.951 . S
C151 C150 1.340 . S
C151 C152 1.439 . S
C151 H191 0.950 . S
C152 C151 1.439 . S
C152 N153 1.374 . S
C152 C186 1.395 . S
N153 C149 1.376 . S
N153 C152 1.374 . S
N153 Co154 2.016 . S
Co154 N153 2.016 . S
Co154 N155 1.991 1_455 S
Co154 N160 2.001 1_455 S
Co154 N165 1.999 . S
Co154 N170 2.293 . S
Co154 N176 2.272 1_455 S
N155 Co154 1.991 1_655 S
N155 C156 1.376 1_655 S
N155 C159 1.383 . S
C156 N155 1.376 1_455 S
C156 C157 1.446 . S
C156 C186 1.391 . S
C157 C156 1.446 . S
C157 C158 1.339 1_455 S
C157 H192 0.949 . S
C158 C157 1.339 1_655 S
C158 C159 1.439 . S
C158 H193 0.950 . S
C159 N155 1.383 . S
C159 C158 1.439 . S
C159 C188 1.392 . S
N160 Co154 2.001 1_655 S
N160 C161 1.376 . S
N160 C164 1.374 . S
C161 N160 1.376 . S
C161 C162 1.443 . S
C161 C188 1.389 . S
C162 C161 1.443 . S
C162 C163 1.340 . S
C162 H194 0.951 . S
C163 C162 1.340 . S
C163 C164 1.439 . S
C163 H195 0.950 . S
C164 N160 1.374 . S
C164 C163 1.439 . S
C164 C189 1.395 . S
N165 Co154 1.999 . S
N165 C166 1.376 1_455 S
N165 C169 1.383 . S
C166 N165 1.376 1_655 S
C166 C167 1.453 . S
C166 C189 1.391 . S
C167 C166 1.453 . S
C167 C168 1.330 1_655 S
C167 H196 0.952 . S
C168 C167 1.330 1_455 S
C168 C169 1.439 . S
C168 H197 0.950 . S
C169 N165 1.383 . S
C169 C168 1.439 . S
C169 C187 1.392 . S
N170 Co154 2.293 . S
N170 C173 1.332 . S
N170 C175 1.332 . S
C171 C172 1.386 . S
C171 C174 1.388 . S
C172 C171 1.386 . S
C172 C173 1.382 . S
C172 H198 0.950 . S
C173 N170 1.332 . S
C173 C172 1.382 . S
C173 H184 0.952 . S
C174 C171 1.388 . S
C174 C175 1.382 . S
C174 H199 0.950 . S
C175 N170 1.332 . S
C175 C174 1.382 . S
C175 H185 0.948 . S
N176 Co154 2.272 1_655 S
N176 C180 1.332 . S
N176 C181 1.332 . S
C177 C178 1.388 . S
C177 C181 1.382 . S
C177 H200 0.950 . S
C178 C177 1.388 . S
C178 C179 1.386 . S
C179 C178 1.386 . S
C179 C180 1.382 . S
C179 H201 0.950 . S
C180 N176 1.332 . S
C180 C179 1.382 . S
C180 H182 0.952 . S
C181 N176 1.332 . S
C181 C177 1.382 . S
C181 H183 0.948 . S
H182 C180 0.952 . S
H183 C181 0.948 . S
H184 C173 0.952 . S
H185 C175 0.948 . S
C186 C152 1.395 . S
C186 C156 1.391 . S
C187 C149 1.389 . S
C187 C169 1.392 . S
C188 C159 1.392 . S
C188 C161 1.389 . S
C189 C164 1.395 . S
C189 C166 1.391 . S
H190 C150 0.951 . S
H191 C151 0.950 . S
H192 C157 0.949 . S
H193 C158 0.950 . S
H194 C162 0.951 . S
H195 C163 0.950 . S
H196 C167 0.952 . S
H197 C168 0.950 . S
H198 C172 0.950 . S
H199 C174 0.950 . S
H200 C177 0.950 . S
H201 C179 0.950 . S
C202 C203 1.443 . S
C202 N206 1.376 . S
C202 C240 1.389 . S
C203 C202 1.443 . S
C203 C204 1.340 . S
C203 H243 0.951 . S
C204 C203 1.340 . S
C204 C205 1.439 1_565 S
C204 H244 0.950 . S
C205 C204 1.439 1_545 S
C205 N206 1.374 1_545 S
C205 C239 1.395 . S
N206 C202 1.376 . S
N206 C205 1.374 1_565 S
N206 Co207 1.987 1_565 S
Co207 N206 1.987 1_545 S
Co207 N208 2.021 . S
Co207 N213 2.030 . S
Co207 N218 1.969 1_545 S
Co207 N223 2.309 . S
Co207 N229 2.257 1_545 S
N208 Co207 2.021 . S
N208 C209 1.376 . S
N208 C212 1.383 . S
C209 N208 1.376 . S
C209 C210 1.446 . S
C209 C239 1.391 . S
C210 C209 1.446 . S
C210 C211 1.339 . S
C210 H245 0.949 . S
C211 C210 1.339 . S
C211 C212 1.439 . S
C211 H246 0.950 . S
C212 N208 1.383 . S
C212 C211 1.439 . S
C212 C241 1.392 . S
N213 Co207 2.030 . S
N213 C214 1.376 . S
N213 C217 1.374 1_545 S
C214 N213 1.376 . S
C214 C215 1.443 . S
C214 C241 1.389 . S
C215 C214 1.443 . S
C215 C216 1.340 . S
C215 H247 0.951 . S
C216 C215 1.340 . S
C216 C217 1.439 1_545 S
C216 H248 0.950 . S
C217 N213 1.374 1_565 S
C217 C216 1.439 1_565 S
C217 C242 1.395 . S
N218 Co207 1.969 1_565 S
N218 C219 1.376 . S
N218 C222 1.383 . S
C219 N218 1.376 . S
C219 C220 1.446 . S
C219 C242 1.391 . S
C220 C219 1.446 . S
C220 C221 1.339 . S
C220 H249 0.949 . S
C221 C220 1.339 . S
C221 C222 1.439 . S
C221 H250 0.950 . S
C222 N218 1.383 . S
C222 C221 1.439 . S
C222 C240 1.392 . S
N223 Co207 2.309 . S
N223 C226 1.332 . S
N223 C228 1.332 . S
C224 C225 1.386 . S
C224 C227 1.388 . S
C225 C224 1.386 . S
C225 C226 1.382 . S
C225 H251 0.950 . S
C226 N223 1.332 . S
C226 C225 1.382 . S
C226 H237 0.952 . S
C227 C224 1.388 . S
C227 C228 1.382 . S
C227 H252 0.950 . S
C228 N223 1.332 . S
C228 C227 1.382 . S
C228 H238 0.948 . S
N229 Co207 2.257 1_565 S
N229 C233 1.332 . S
N229 C234 1.332 . S
C230 C231 1.388 . S
C230 C234 1.382 . S
C230 H253 0.950 . S
C231 C230 1.388 . S
C231 C232 1.386 . S
C232 C231 1.386 . S
C232 C233 1.382 . S
C232 H254 0.950 . S
C233 N229 1.332 . S
C233 C232 1.382 . S
C233 H235 0.952 . S
C234 N229 1.332 . S
C234 C230 1.382 . S
C234 H236 0.948 . S
H235 C233 0.952 . S
H236 C234 0.948 . S
H237 C226 0.952 . S
H238 C228 0.948 . S
C239 C205 1.395 . S
C239 C209 1.391 . S
C240 C202 1.389 . S
C240 C222 1.392 . S
C241 C212 1.392 . S
C241 C214 1.389 . S
C242 C217 1.395 . S
C242 C219 1.391 . S
H243 C203 0.951 . S
H244 C204 0.950 . S
H245 C210 0.949 . S
H246 C211 0.950 . S
H247 C215 0.951 . S
H248 C216 0.950 . S
H249 C220 0.949 . S
H250 C221 0.950 . S
H251 C225 0.950 . S
H252 C227 0.950 . S
H253 C230 0.950 . S
H254 C232 0.950 . S
C255 C256 1.443 . S
C255 N259 1.376 . S
C255 C293 1.389 . S
C256 C255 1.443 . S
C256 C257 1.340 . S
C256 H296 0.951 . S
C257 C256 1.340 . S
C257 C258 1.439 . S
C257 H297 0.950 . S
C258 C257 1.439 . S
C258 N259 1.374 . S
C258 C292 1.395 . S
N259 C255 1.376 . S
N259 C258 1.374 . S
N259 Co260 2.008 . S
Co260 N259 2.008 . S
Co260 N261 1.995 . S
Co260 N266 2.008 1_554 S
Co260 N271 1.995 . S
Co260 N276 2.282 1_554 S
Co260 N282 2.282 . S
N261 Co260 1.995 . S
N261 C262 1.376 . S
N261 C265 1.383 1_554 S
C262 N261 1.376 . S
C262 C263 1.446 . S
C262 C292 1.391 . S
C263 C262 1.446 . S
C263 C264 1.339 1_554 S
C263 H298 0.949 . S
C264 C263 1.339 1_556 S
C264 C265 1.439 . S
C264 H299 0.950 . S
C265 N261 1.383 1_556 S
C265 C264 1.439 . S
C265 C294 1.392 . S
N266 Co260 2.008 1_556 S
N266 C267 1.376 . S
N266 C270 1.374 . S
C267 N266 1.376 . S
C267 C268 1.443 . S
C267 C294 1.389 . S
C268 C267 1.443 . S
C268 C269 1.340 . S
C268 H300 0.951 . S
C269 C268 1.340 . S
C269 C270 1.439 . S
C269 H301 0.950 . S
C270 N266 1.374 . S
C270 C269 1.439 . S
C270 C295 1.395 1_556 S
N271 Co260 1.995 . S
N271 C272 1.376 . S
N271 C275 1.383 . S
C272 N271 1.376 . S
C272 C273 1.446 . S
C272 C295 1.391 . S
C273 C272 1.446 . S
C273 C274 1.339 . S
C273 H302 0.949 . S
C274 C273 1.339 . S
C274 C275 1.439 . S
C274 H303 0.950 . S
C275 N271 1.383 . S
C275 C274 1.439 . S
C275 C293 1.392 . S
N276 Co260 2.282 1_556 S
N276 C279 1.332 . S
N276 C281 1.332 . S
C277 C278 1.386 . S
C277 C280 1.388 . S
C278 C277 1.386 . S
C278 C279 1.382 . S
C278 H304 0.950 . S
C279 N276 1.332 . S
C279 C278 1.382 . S
C279 H290 0.952 . S
C280 C277 1.388 . S
C280 C281 1.382 . S
C280 H305 0.950 . S
C281 N276 1.332 . S
C281 C280 1.382 . S
C281 H291 0.948 . S
N282 Co260 2.282 . S
N282 C286 1.332 . S
N282 C287 1.332 . S
C283 C284 1.388 . S
C283 C287 1.382 . S
C283 H306 0.950 . S
C284 C283 1.388 . S
C284 C285 1.386 . S
C285 C284 1.386 . S
C285 C286 1.382 . S
C285 H307 0.950 . S
C286 N282 1.332 . S
C286 C285 1.382 . S
C286 H288 0.952 . S
C287 N282 1.332 . S
C287 C283 1.382 . S
C287 H289 0.948 . S
H288 C286 0.952 . S
H289 C287 0.948 . S
H290 C279 0.952 . S
H291 C281 0.948 . S
C292 C258 1.395 . S
C292 C262 1.391 . S
C293 C255 1.389 . S
C293 C275 1.392 . S
C294 C265 1.392 . S
C294 C267 1.389 . S
C295 C270 1.395 1_554 S
C295 C272 1.391 . S
H296 C256 0.951 . S
H297 C257 0.950 . S
H298 C263 0.949 . S
H299 C264 0.950 . S
H300 C268 0.951 . S
H301 C269 0.950 . S
H302 C273 0.949 . S
H303 C274 0.950 . S
H304 C278 0.950 . S
H305 C280 0.950 . S
H306 C283 0.950 . S
H307 C285 0.950 . S
C308 C309 1.443 . S
C308 N312 1.376 . S
C308 C346 1.389 . S
C309 C308 1.443 . S
C309 C310 1.340 . S
C309 H349 0.951 . S
C310 C309 1.340 . S
C310 C311 1.439 . S
C310 H350 0.950 . S
C311 C310 1.439 . S
C311 N312 1.374 . S
C311 C345 1.395 . S
N312 C308 1.376 . S
N312 C311 1.374 . S
N312 Co313 2.008 . S
Co313 N312 2.008 . S
Co313 N314 1.995 . S
Co313 N319 2.008 . S
Co313 N324 1.995 . S
Co313 N329 2.282 . S
Co313 N335 2.282 . S
N314 Co313 1.995 . S
N314 C315 1.376 . S
N314 C318 1.383 . S
C315 N314 1.376 . S
C315 C316 1.446 . S
C315 C345 1.391 . S
C316 C315 1.446 . S
C316 C317 1.339 . S
C316 H351 0.949 . S
C317 C316 1.339 . S
C317 C318 1.439 . S
C317 H352 0.950 . S
C318 N314 1.383 . S
C318 C317 1.439 . S
C318 C347 1.392 . S
N319 Co313 2.008 . S
N319 C320 1.376 . S
N319 C323 1.374 . S
C320 N319 1.376 . S
C320 C321 1.443 . S
C320 C347 1.389 . S
C321 C320 1.443 . S
C321 C322 1.340 . S
C321 H353 0.951 . S
C322 C321 1.340 . S
C322 C323 1.439 . S
C322 H354 0.950 . S
C323 N319 1.374 . S
C323 C322 1.439 . S
C323 C348 1.395 . S
N324 Co313 1.995 . S
N324 C325 1.376 . S
N324 C328 1.383 . S
C325 N324 1.376 . S
C325 C326 1.446 1_545 S
C325 C348 1.391 . S
C326 C325 1.446 1_565 S
C326 C327 1.339 . S
C326 H355 0.949 . S
C327 C326 1.339 . S
C327 C328 1.439 1_565 S
C327 H356 0.950 . S
C328 N324 1.383 . S
C328 C327 1.439 1_545 S
C328 C346 1.392 . S
N329 Co313 2.282 . S
N329 C332 1.332 . S
N329 C334 1.332 . S
C330 C331 1.386 . S
C330 C333 1.388 . S
C331 C330 1.386 . S
C331 C332 1.382 . S
C331 H357 0.950 . S
C332 N329 1.332 . S
C332 C331 1.382 . S
C332 H343 0.952 . S
C333 C330 1.388 . S
C333 C334 1.382 . S
C333 H358 0.950 . S
C334 N329 1.332 . S
C334 C333 1.382 . S
C334 H344 0.948 . S
N335 Co313 2.282 . S
N335 C339 1.332 . S
N335 C340 1.332 . S
C336 C337 1.388 . S
C336 C340 1.382 1_565 S
C336 H359 0.950 . S
C337 C336 1.388 . S
C337 C338 1.386 1_565 S
C338 C337 1.386 1_545 S
C338 C339 1.382 . S
C338 H360 0.950 . S
C339 N335 1.332 . S
C339 C338 1.382 . S
C339 H341 0.952 . S
C340 N335 1.332 . S
C340 C336 1.382 1_545 S
C340 H342 0.948 . S
H341 C339 0.952 . S
H342 C340 0.948 . S
H343 C332 0.952 . S
H344 C334 0.948 . S
C345 C311 1.395 . S
C345 C315 1.391 . S
C346 C308 1.389 . S
C346 C328 1.392 . S
C347 C318 1.392 . S
C347 C320 1.389 . S
C348 C323 1.395 . S
C348 C325 1.391 . S
H349 C309 0.951 . S
H350 C310 0.950 . S
H351 C316 0.949 . S
H352 C317 0.950 . S
H353 C321 0.951 . S
H354 C322 0.950 . S
H355 C326 0.949 . S
H356 C327 0.950 . S
H357 C331 0.950 . S
H358 C333 0.950 . S
H359 C336 0.950 . S
H360 C338 0.950 . S
C361 C362 1.443 . S
C361 N365 1.376 . S
C361 C399 1.389 . S
C362 C361 1.443 . S
C362 C363 1.340 . S
C362 H402 0.951 . S
C363 C362 1.340 . S
C363 C364 1.439 . S
C363 H403 0.950 . S
C364 C363 1.439 . S
C364 N365 1.374 . S
C364 C398 1.395 . S
N365 C361 1.376 . S
N365 C364 1.374 . S
N365 Co366 2.008 . S
Co366 N365 2.008 . S
Co366 N367 1.995 . S
Co366 N372 2.008 . S
Co366 N377 1.995 . S
Co366 N382 2.282 . S
Co366 N388 2.282 . S
N367 Co366 1.995 . S
N367 C368 1.376 . S
N367 C371 1.383 . S
C368 N367 1.376 . S
C368 C369 1.446 . S
C368 C398 1.391 . S
C369 C368 1.446 . S
C369 C370 1.339 . S
C369 H404 0.949 . S
C370 C369 1.339 . S
C370 C371 1.439 . S
C370 H405 0.950 . S
C371 N367 1.383 . S
C371 C370 1.439 . S
C371 C400 1.392 . S
N372 Co366 2.008 . S
N372 C373 1.376 . S
N372 C376 1.374 . S
C373 N372 1.376 . S
C373 C374 1.443 . S
C373 C400 1.389 . S
C374 C373 1.443 . S
C374 C375 1.340 . S
C374 H406 0.951 . S
C375 C374 1.340 . S
C375 C376 1.439 . S
C375 H407 0.950 . S
C376 N372 1.374 . S
C376 C375 1.439 . S
C376 C401 1.395 . S
N377 Co366 1.995 . S
N377 C378 1.376 . S
N377 C381 1.383 . S
C378 N377 1.376 . S
C378 C379 1.446 . S
C378 C401 1.391 . S
C379 C378 1.446 . S
C379 C380 1.339 . S
C379 H408 0.949 . S
C380 C379 1.339 . S
C380 C381 1.439 . S
C380 H409 0.950 . S
C381 N377 1.383 . S
C381 C380 1.439 . S
C381 C399 1.392 . S
N382 Co366 2.282 . S
N382 C385 1.332 . S
N382 C387 1.332 . S
C383 C384 1.386 1_556 S
C383 C386 1.388 1_556 S
C384 C383 1.386 1_554 S
C384 C385 1.382 . S
C384 H410 0.950 . S
C385 N382 1.332 . S
C385 C384 1.382 . S
C385 H396 0.952 . S
C386 C383 1.388 1_554 S
C386 C387 1.382 . S
C386 H411 0.950 . S
C387 N382 1.332 . S
C387 C386 1.382 . S
C387 H397 0.948 . S
N388 Co366 2.282 . S
N388 C392 1.332 . S
N388 C393 1.332 . S
C389 C390 1.388 . S
C389 C393 1.382 . S
C389 H412 0.950 . S
C390 C389 1.388 . S
C390 C391 1.386 . S
C391 C390 1.386 . S
C391 C392 1.382 . S
C391 H413 0.950 . S
C392 N388 1.332 . S
C392 C391 1.382 . S
C392 H394 0.952 . S
C393 N388 1.332 . S
C393 C389 1.382 . S
C393 H395 0.948 . S
H394 C392 0.952 . S
H395 C393 0.948 . S
H396 C385 0.952 . S
H397 C387 0.948 . S
C398 C364 1.395 . S
C398 C368 1.391 . S
C399 C361 1.389 . S
C399 C381 1.392 . S
C400 C371 1.392 . S
C400 C373 1.389 . S
C401 C376 1.395 . S
C401 C378 1.391 . S
H402 C362 0.951 . S
H403 C363 0.950 . S
H404 C369 0.949 . S
H405 C370 0.950 . S
H406 C374 0.951 . S
H407 C375 0.950 . S
H408 C379 0.949 . S
H409 C380 0.950 . S
H410 C384 0.950 . S
H411 C386 0.950 . S
H412 C389 0.950 . S
H413 C391 0.950 . S
C414 C415 1.391 . S
C414 C416 1.394 . S
C414 H430 0.931 . S
C415 C414 1.391 . S
C415 C419 1.376 . S
C416 C414 1.394 . S
C416 C417 1.369 . S
C416 C420 1.531 . S
C417 C416 1.369 . S
C417 C418 1.410 . S
C417 C425 1.503 . S
C418 C417 1.410 . S
C418 C419 1.392 . S
C418 C421 1.511 . S
C419 C415 1.376 . S
C419 C418 1.392 . S
C419 H431 0.929 . S
C420 C416 1.531 . S
C420 H432 0.960 . S
C420 H433 0.962 . S
C420 H434 0.960 . S
C421 C418 1.511 . S
C421 H435 0.961 . S
C421 H436 0.961 . S
C421 H437 0.961 . S
C422 C423 1.370 . S
C422 C424 1.363 . S
C422 H438 0.931 . S
C423 C422 1.370 . S
C423 C427 1.408 . S
C424 C422 1.363 . S
C424 C425 1.370 . S
C424 C428 1.524 . S
C425 C417 1.503 . S
C425 C424 1.370 . S
C425 C426 1.403 . S
C426 C425 1.403 . S
C426 C427 1.404 . S
C426 C429 1.539 . S
C427 C423 1.408 . S
C427 C426 1.404 . S
C427 H439 0.930 . S
C428 C424 1.524 . S
C428 H440 0.956 . S
C428 H441 0.961 . S
C428 H442 0.961 . S
C429 C426 1.539 . S
C429 H443 0.958 . S
C429 H444 0.961 . S
C429 H445 0.960 . S
H430 C414 0.931 . S
H431 C419 0.929 . S
H432 C420 0.960 . S
H433 C420 0.962 . S
H434 C420 0.960 . S
H435 C421 0.961 . S
H436 C421 0.961 . S
H437 C421 0.961 . S
H438 C422 0.931 . S
H439 C427 0.930 . S
H440 C428 0.956 . S
H441 C428 0.961 . S
H442 C428 0.961 . S
H443 C429 0.958 . S
H444 C429 0.961 . S
H445 C429 0.960 . S
C446 C447 1.391 . S
C446 C448 1.394 . S
C446 H462 0.931 . S
C447 C446 1.391 . S
C447 C451 1.376 . S
C448 C446 1.394 . S
C448 C449 1.369 . S
C448 C452 1.531 . S
C449 C448 1.369 . S
C449 C450 1.410 . S
C449 C457 1.503 . S
C450 C449 1.410 . S
C450 C451 1.392 . S
C450 C453 1.511 . S
C451 C447 1.376 . S
C451 C450 1.392 . S
C451 H463 0.929 . S
C452 C448 1.531 . S
C452 H464 0.960 . S
C452 H465 0.962 . S
C452 H466 0.960 . S
C453 C450 1.511 . S
C453 H467 0.961 . S
C453 H468 0.961 . S
C453 H469 0.961 . S
C454 C455 1.370 . S
C454 C456 1.363 . S
C454 H470 0.931 . S
C455 C454 1.370 . S
C455 C459 1.408 . S
C456 C454 1.363 . S
C456 C457 1.370 . S
C456 C460 1.524 . S
C457 C449 1.503 . S
C457 C456 1.370 . S
C457 C458 1.403 . S
C458 C457 1.403 . S
C458 C459 1.404 . S
C458 C461 1.539 . S
C459 C455 1.408 . S
C459 C458 1.404 . S
C459 H471 0.930 . S
C460 C456 1.524 . S
C460 H472 0.956 . S
C460 H473 0.961 . S
C460 H474 0.961 . S
C461 C458 1.539 . S
C461 H475 0.958 . S
C461 H476 0.961 . S
C461 H477 0.960 . S
H462 C446 0.931 . S
H463 C451 0.929 . S
H464 C452 0.960 . S
H465 C452 0.962 . S
H466 C452 0.960 . S
H467 C453 0.961 . S
H468 C453 0.961 . S
H469 C453 0.961 . S
H470 C454 0.931 . S
H471 C459 0.930 . S
H472 C460 0.956 . S
H473 C460 0.961 . S
H474 C460 0.961 . S
H475 C461 0.958 . S
H476 C461 0.961 . S
H477 C461 0.960 . S
C478 C479 1.391 . S
C478 C480 1.394 . S
C478 H494 0.931 . S
C479 C478 1.391 . S
C479 C483 1.376 . S
C480 C478 1.394 . S
C480 C481 1.369 . S
C480 C484 1.531 . S
C481 C480 1.369 . S
C481 C482 1.410 . S
C481 C489 1.503 . S
C482 C481 1.410 . S
C482 C483 1.392 . S
C482 C485 1.511 . S
C483 C479 1.376 . S
C483 C482 1.392 . S
C483 H495 0.929 . S
C484 C480 1.531 . S
C484 H496 0.960 . S
C484 H497 0.962 . S
C484 H498 0.960 . S
C485 C482 1.511 . S
C485 H499 0.961 . S
C485 H500 0.961 . S
C485 H501 0.961 1_655 S
C486 C487 1.370 1_655 S
C486 C488 1.363 . S
C486 H502 0.931 . S
C487 C486 1.370 1_455 S
C487 C491 1.408 . S
C488 C486 1.363 . S
C488 C489 1.370 . S
C488 C492 1.524 . S
C489 C481 1.503 . S
C489 C488 1.370 . S
C489 C490 1.403 1_655 S
C490 C489 1.403 1_455 S
C490 C491 1.404 . S
C490 C493 1.539 . S
C491 C487 1.408 . S
C491 C490 1.404 . S
C491 H503 0.930 . S
C492 C488 1.524 . S
C492 H504 0.956 . S
C492 H505 0.961 . S
C492 H506 0.961 . S
C493 C490 1.539 . S
C493 H507 0.958 . S
C493 H508 0.961 . S
C493 H509 0.960 . S
H494 C478 0.931 . S
H495 C483 0.929 . S
H496 C484 0.960 . S
H497 C484 0.962 . S
H498 C484 0.960 . S
H499 C485 0.961 . S
H500 C485 0.961 . S
H501 C485 0.961 1_455 S
H502 C486 0.931 . S
H503 C491 0.930 . S
H504 C492 0.956 . S
H505 C492 0.961 . S
H506 C492 0.961 . S
H507 C493 0.958 . S
H508 C493 0.961 . S
H509 C493 0.960 . S
C510 C511 1.391 . S
C510 C512 1.394 . S
C510 H526 0.931 . S
C511 C510 1.391 . S
C511 C515 1.376 . S
C512 C510 1.394 . S
C512 C513 1.369 . S
C512 C516 1.531 . S
C513 C512 1.369 . S
C513 C514 1.410 . S
C513 C521 1.503 . S
C514 C513 1.410 . S
C514 C515 1.392 . S
C514 C517 1.511 . S
C515 C511 1.376 . S
C515 C514 1.392 . S
C515 H527 0.929 . S
C516 C512 1.531 . S
C516 H528 0.960 . S
C516 H529 0.962 . S
C516 H530 0.960 . S
C517 C514 1.511 . S
C517 H531 0.961 . S
C517 H532 0.961 . S
C517 H533 0.961 . S
C518 C519 1.370 . S
C518 C520 1.363 . S
C518 H534 0.931 . S
C519 C518 1.370 . S
C519 C523 1.408 . S
C520 C518 1.363 . S
C520 C521 1.370 . S
C520 C524 1.524 . S
C521 C513 1.503 . S
C521 C520 1.370 . S
C521 C522 1.403 . S
C522 C521 1.403 . S
C522 C523 1.404 . S
C522 C525 1.539 . S
C523 C519 1.408 . S
C523 C522 1.404 . S
C523 H535 0.930 . S
C524 C520 1.524 . S
C524 H536 0.956 . S
C524 H537 0.961 . S
C524 H538 0.961 . S
C525 C522 1.539 . S
C525 H539 0.958 . S
C525 H540 0.961 . S
C525 H541 0.960 . S
H526 C510 0.931 . S
H527 C515 0.929 . S
H528 C516 0.960 . S
H529 C516 0.962 . S
H530 C516 0.960 . S
H531 C517 0.961 . S
H532 C517 0.961 . S
H533 C517 0.961 . S
H534 C518 0.931 . S
H535 C523 0.930 . S
H536 C524 0.956 . S
H537 C524 0.961 . S
H538 C524 0.961 . S
H539 C525 0.958 . S
H540 C525 0.961 . S
H541 C525 0.960 . S
C542 C543 1.391 . S
C542 C544 1.394 . S
C542 H558 0.931 . S
C543 C542 1.391 . S
C543 C547 1.376 . S
C544 C542 1.394 . S
C544 C545 1.369 . S
C544 C548 1.531 . S
C545 C544 1.369 . S
C545 C546 1.410 . S
C545 C553 1.503 . S
C546 C545 1.410 . S
C546 C547 1.392 . S
C546 C549 1.511 . S
C547 C543 1.376 . S
C547 C546 1.392 . S
C547 H559 0.929 . S
C548 C544 1.531 . S
C548 H560 0.960 . S
C548 H561 0.962 . S
C548 H562 0.960 . S
C549 C546 1.511 . S
C549 H563 0.961 . S
C549 H564 0.961 . S
C549 H565 0.961 . S
C550 C551 1.370 . S
C550 C552 1.363 . S
C550 H566 0.931 . S
C551 C550 1.370 . S
C551 C555 1.408 . S
C552 C550 1.363 . S
C552 C553 1.370 . S
C552 C556 1.524 . S
C553 C545 1.503 . S
C553 C552 1.370 . S
C553 C554 1.403 . S
C554 C553 1.403 . S
C554 C555 1.404 . S
C554 C557 1.539 . S
C555 C551 1.408 . S
C555 C554 1.404 . S
C555 H567 0.930 . S
C556 C552 1.524 . S
C556 H568 0.956 . S
C556 H569 0.961 . S
C556 H570 0.961 . S
C557 C554 1.539 . S
C557 H571 0.958 . S
C557 H572 0.961 . S
C557 H573 0.960 . S
H558 C542 0.931 . S
H559 C547 0.929 . S
H560 C548 0.960 . S
H561 C548 0.962 . S
H562 C548 0.960 . S
H563 C549 0.961 . S
H564 C549 0.961 . S
H565 C549 0.961 . S
H566 C550 0.931 . S
H567 C555 0.930 . S
H568 C556 0.956 . S
H569 C556 0.961 . S
H570 C556 0.961 . S
H571 C557 0.958 . S
H572 C557 0.961 . S
H573 C557 0.960 . S
C574 C575 1.391 . S
C574 C576 1.394 . S
C574 H590 0.931 . S
C575 C574 1.391 . S
C575 C579 1.376 . S
C576 C574 1.394 . S
C576 C577 1.369 . S
C576 C580 1.531 . S
C577 C576 1.369 . S
C577 C578 1.410 . S
C577 C585 1.503 . S
C578 C577 1.410 . S
C578 C579 1.392 . S
C578 C581 1.511 . S
C579 C575 1.376 . S
C579 C578 1.392 . S
C579 H591 0.929 . S
C580 C576 1.531 . S
C580 H592 0.960 . S
C580 H593 0.962 . S
C580 H594 0.960 . S
C581 C578 1.511 . S
C581 H595 0.961 . S
C581 H596 0.961 . S
C581 H597 0.961 . S
C582 C583 1.370 . S
C582 C584 1.363 . S
C582 H598 0.931 . S
C583 C582 1.370 . S
C583 C587 1.408 . S
C584 C582 1.363 . S
C584 C585 1.370 . S
C584 C588 1.524 . S
C585 C577 1.503 . S
C585 C584 1.370 . S
C585 C586 1.403 . S
C586 C585 1.403 . S
C586 C587 1.404 . S
C586 C589 1.539 . S
C587 C583 1.408 . S
C587 C586 1.404 . S
C587 H599 0.930 . S
C588 C584 1.524 . S
C588 H600 0.956 . S
C588 H601 0.961 . S
C588 H602 0.961 . S
C589 C586 1.539 . S
C589 H603 0.958 . S
C589 H604 0.961 . S
C589 H605 0.960 . S
H590 C574 0.931 . S
H591 C579 0.929 . S
H592 C580 0.960 . S
H593 C580 0.962 . S
H594 C580 0.960 . S
H595 C581 0.961 . S
H596 C581 0.961 . S
H597 C581 0.961 . S
H598 C582 0.931 . S
H599 C587 0.930 . S
H600 C588 0.956 . S
H601 C588 0.961 . S
H602 C588 0.961 . S
H603 C589 0.958 . S
H604 C589 0.961 . S
H605 C589 0.960 . S
C606 C607 1.391 . S
C606 C608 1.394 . S
C606 H622 0.931 . S
C607 C606 1.391 . S
C607 C611 1.376 . S
C608 C606 1.394 . S
C608 C609 1.369 . S
C608 C612 1.531 . S
C609 C608 1.369 . S
C609 C610 1.410 . S
C609 C617 1.503 . S
C610 C609 1.410 . S
C610 C611 1.392 . S
C610 C613 1.511 . S
C611 C607 1.376 . S
C611 C610 1.392 . S
C611 H623 0.929 . S
C612 C608 1.531 . S
C612 H624 0.960 . S
C612 H625 0.962 . S
C612 H626 0.960 . S
C613 C610 1.511 . S
C613 H627 0.961 . S
C613 H628 0.961 . S
C613 H629 0.961 . S
C614 C615 1.370 . S
C614 C616 1.363 . S
C614 H630 0.931 . S
C615 C614 1.370 . S
C615 C619 1.408 . S
C616 C614 1.363 . S
C616 C617 1.370 . S
C616 C620 1.524 . S
C617 C609 1.503 . S
C617 C616 1.370 . S
C617 C618 1.403 . S
C618 C617 1.403 . S
C618 C619 1.404 . S
C618 C621 1.539 . S
C619 C615 1.408 . S
C619 C618 1.404 . S
C619 H631 0.930 . S
C620 C616 1.524 . S
C620 H632 0.956 . S
C620 H633 0.961 . S
C620 H634 0.961 . S
C621 C618 1.539 . S
C621 H635 0.958 . S
C621 H636 0.961 . S
C621 H637 0.960 . S
H622 C606 0.931 . S
H623 C611 0.929 . S
H624 C612 0.960 . S
H625 C612 0.962 . S
H626 C612 0.960 . S
H627 C613 0.961 . S
H628 C613 0.961 . S
H629 C613 0.961 . S
H630 C614 0.931 . S
H631 C619 0.930 . S
H632 C620 0.956 . S
H633 C620 0.961 . S
H634 C620 0.961 . S
H635 C621 0.958 . S
H636 C621 0.961 . S
H637 C621 0.960 . S
C638 C639 1.391 . S
C638 C640 1.394 . S
C638 H654 0.931 . S
C639 C638 1.391 . S
C639 C643 1.376 . S
C640 C638 1.394 . S
C640 C641 1.369 . S
C640 C644 1.531 . S
C641 C640 1.369 . S
C641 C642 1.410 . S
C641 C649 1.503 . S
C642 C641 1.410 . S
C642 C643 1.392 . S
C642 C645 1.511 1_556 S
C643 C639 1.376 . S
C643 C642 1.392 . S
C643 H655 0.929 . S
C644 C640 1.531 . S
C644 H656 0.960 . S
C644 H657 0.962 . S
C644 H658 0.960 . S
C645 C642 1.511 1_554 S
C645 H659 0.961 . S
C645 H660 0.961 . S
C645 H661 0.961 . S
C646 C647 1.370 . S
C646 C648 1.363 1_554 S
C646 H662 0.931 . S
C647 C646 1.370 . S
C647 C651 1.408 . S
C648 C646 1.363 1_556 S
C648 C649 1.370 . S
C648 C652 1.524 . S
C649 C641 1.503 . S
C649 C648 1.370 . S
C649 C650 1.403 . S
C650 C649 1.403 . S
C650 C651 1.404 1_556 S
C650 C653 1.539 . S
C651 C647 1.408 . S
C651 C650 1.404 1_554 S
C651 H663 0.930 . S
C652 C648 1.524 . S
C652 H664 0.956 . S
C652 H665 0.961 . S
C652 H666 0.961 . S
C653 C650 1.539 . S
C653 H667 0.958 . S
C653 H668 0.961 1_556 S
C653 H669 0.960 . S
H654 C638 0.931 . S
H655 C643 0.929 . S
H656 C644 0.960 . S
H657 C644 0.962 . S
H658 C644 0.960 . S
H659 C645 0.961 . S
H660 C645 0.961 . S
H661 C645 0.961 . S
H662 C646 0.931 . S
H663 C651 0.930 . S
H664 C652 0.956 . S
H665 C652 0.961 . S
H666 C652 0.961 . S
H667 C653 0.958 . S
H668 C653 0.961 1_554 S
H669 C653 0.960 . S
C670 C671 1.391 . S
C670 C672 1.394 . S
C670 H686 0.931 . S
C671 C670 1.391 . S
C671 C675 1.376 . S
C672 C670 1.394 . S
C672 C673 1.369 . S
C672 C676 1.531 . S
C673 C672 1.369 . S
C673 C674 1.410 . S
C673 C681 1.503 . S
C674 C673 1.410 . S
C674 C675 1.392 . S
C674 C677 1.511 . S
C675 C671 1.376 . S
C675 C674 1.392 . S
C675 H687 0.929 . S
C676 C672 1.531 . S
C676 H688 0.960 . S
C676 H689 0.962 . S
C676 H690 0.960 . S
C677 C674 1.511 . S
C677 H691 0.961 . S
C677 H692 0.961 . S
C677 H693 0.961 . S
C678 C679 1.370 . S
C678 C680 1.363 . S
C678 H694 0.931 . S
C679 C678 1.370 . S
C679 C683 1.408 . S
C680 C678 1.363 . S
C680 C681 1.370 . S
C680 C684 1.524 . S
C681 C673 1.503 . S
C681 C680 1.370 . S
C681 C682 1.403 . S
C682 C681 1.403 . S
C682 C683 1.404 . S
C682 C685 1.539 . S
C683 C679 1.408 . S
C683 C682 1.404 . S
C683 H695 0.930 . S
C684 C680 1.524 . S
C684 H696 0.956 . S
C684 H697 0.961 . S
C684 H698 0.961 . S
C685 C682 1.539 . S
C685 H699 0.958 . S
C685 H700 0.961 . S
C685 H701 0.960 . S
H686 C670 0.931 . S
H687 C675 0.929 . S
H688 C676 0.960 . S
H689 C676 0.962 . S
H690 C676 0.960 . S
H691 C677 0.961 . S
H692 C677 0.961 . S
H693 C677 0.961 . S
H694 C678 0.931 . S
H695 C683 0.930 . S
H696 C684 0.956 . S
H697 C684 0.961 . S
H698 C684 0.961 . S
H699 C685 0.958 . S
H700 C685 0.961 . S
H701 C685 0.960 . S
C702 C703 1.391 . S
C702 C704 1.394 . S
C702 H718 0.931 . S
C703 C702 1.391 . S
C703 C707 1.376 . S
C704 C702 1.394 . S
C704 C705 1.369 . S
C704 C708 1.531 . S
C705 C704 1.369 . S
C705 C706 1.410 . S
C705 C713 1.503 . S
C706 C705 1.410 . S
C706 C707 1.392 . S
C706 C709 1.511 . S
C707 C703 1.376 . S
C707 C706 1.392 . S
C707 H719 0.929 . S
C708 C704 1.531 . S
C708 H720 0.960 . S
C708 H721 0.962 . S
C708 H722 0.960 . S
C709 C706 1.511 . S
C709 H723 0.961 . S
C709 H724 0.961 . S
C709 H725 0.961 . S
C710 C711 1.370 . S
C710 C712 1.363 . S
C710 H726 0.931 . S
C711 C710 1.370 . S
C711 C715 1.408 . S
C712 C710 1.363 . S
C712 C713 1.370 . S
C712 C716 1.524 . S
C713 C705 1.503 . S
C713 C712 1.370 . S
C713 C714 1.403 . S
C714 C713 1.403 . S
C714 C715 1.404 . S
C714 C717 1.539 . S
C715 C711 1.408 . S
C715 C714 1.404 . S
C715 H727 0.930 . S
C716 C712 1.524 . S
C716 H728 0.956 . S
C716 H729 0.961 . S
C716 H730 0.961 . S
C717 C714 1.539 . S
C717 H731 0.958 . S
C717 H732 0.961 . S
C717 H733 0.960 . S
H718 C702 0.931 . S
H719 C707 0.929 . S
H720 C708 0.960 . S
H721 C708 0.962 . S
H722 C708 0.960 . S
H723 C709 0.961 . S
H724 C709 0.961 . S
H725 C709 0.961 . S
H726 C710 0.931 . S
H727 C715 0.930 . S
H728 C716 0.956 . S
H729 C716 0.961 . S
H730 C716 0.961 . S
H731 C717 0.958 . S
H732 C717 0.961 . S
H733 C717 0.960 . S
C734 C735 1.391 . S
C734 C736 1.394 . S
C734 H750 0.931 . S
C735 C734 1.391 . S
C735 C739 1.376 . S
C736 C734 1.394 . S
C736 C737 1.369 . S
C736 C740 1.531 . S
C737 C736 1.369 . S
C737 C738 1.410 . S
C737 C745 1.503 . S
C738 C737 1.410 . S
C738 C739 1.392 . S
C738 C741 1.511 . S
C739 C735 1.376 . S
C739 C738 1.392 . S
C739 H751 0.929 . S
C740 C736 1.531 . S
C740 H752 0.960 . S
C740 H753 0.962 . S
C740 H754 0.960 . S
C741 C738 1.511 . S
C741 H755 0.961 . S
C741 H756 0.961 . S
C741 H757 0.961 . S
C742 C743 1.370 . S
C742 C744 1.363 . S
C742 H758 0.931 . S
C743 C742 1.370 . S
C743 C747 1.408 . S
C744 C742 1.363 . S
C744 C745 1.370 . S
C744 C748 1.524 . S
C745 C737 1.503 . S
C745 C744 1.370 . S
C745 C746 1.403 . S
C746 C745 1.403 . S
C746 C747 1.404 . S
C746 C749 1.539 . S
C747 C743 1.408 . S
C747 C746 1.404 . S
C747 H759 0.930 . S
C748 C744 1.524 . S
C748 H760 0.956 . S
C748 H761 0.961 . S
C748 H762 0.961 . S
C749 C746 1.539 . S
C749 H763 0.958 . S
C749 H764 0.961 . S
C749 H765 0.960 . S
H750 C734 0.931 . S
H751 C739 0.929 . S
H752 C740 0.960 . S
H753 C740 0.962 . S
H754 C740 0.960 . S
H755 C741 0.961 . S
H756 C741 0.961 . S
H757 C741 0.961 . S
H758 C742 0.931 . S
H759 C747 0.930 . S
H760 C748 0.956 . S
H761 C748 0.961 . S
H762 C748 0.961 . S
H763 C749 0.958 . S
H764 C749 0.961 . S
H765 C749 0.960 . S
C766 C767 1.391 . S
C766 C768 1.394 . S
C766 H782 0.931 . S
C767 C766 1.391 . S
C767 C771 1.376 . S
C768 C766 1.394 . S
C768 C769 1.369 . S
C768 C772 1.531 . S
C769 C768 1.369 . S
C769 C770 1.410 . S
C769 C777 1.503 . S
C770 C769 1.410 . S
C770 C771 1.392 . S
C770 C773 1.511 . S
C771 C767 1.376 . S
C771 C770 1.392 . S
C771 H783 0.929 . S
C772 C768 1.531 . S
C772 H784 0.960 . S
C772 H785 0.962 . S
C772 H786 0.960 . S
C773 C770 1.511 . S
C773 H787 0.961 . S
C773 H788 0.961 . S
C773 H789 0.961 . S
C774 C775 1.370 . S
C774 C776 1.363 . S
C774 H790 0.931 . S
C775 C774 1.370 . S
C775 C779 1.408 . S
C776 C774 1.363 . S
C776 C777 1.370 . S
C776 C780 1.524 . S
C777 C769 1.503 . S
C777 C776 1.370 . S
C777 C778 1.403 . S
C778 C777 1.403 . S
C778 C779 1.404 . S
C778 C781 1.539 . S
C779 C775 1.408 . S
C779 C778 1.404 . S
C779 H791 0.930 . S
C780 C776 1.524 . S
C780 H792 0.956 . S
C780 H793 0.961 . S
C780 H794 0.961 . S
C781 C778 1.539 . S
C781 H795 0.958 . S
C781 H796 0.961 . S
C781 H797 0.960 . S
H782 C766 0.931 . S
H783 C771 0.929 . S
H784 C772 0.960 . S
H785 C772 0.962 . S
H786 C772 0.960 . S
H787 C773 0.961 . S
H788 C773 0.961 . S
H789 C773 0.961 . S
H790 C774 0.931 . S
H791 C779 0.930 . S
H792 C780 0.956 . S
H793 C780 0.961 . S
H794 C780 0.961 . S
H795 C781 0.958 . S
H796 C781 0.961 . S
H797 C781 0.960 . S
C798 C799 1.391 . S
C798 C800 1.394 . S
C798 H814 0.931 . S
C799 C798 1.391 . S
C799 C803 1.376 . S
C800 C798 1.394 . S
C800 C801 1.369 . S
C800 C804 1.531 . S
C801 C800 1.369 . S
C801 C802 1.410 . S
C801 C809 1.503 . S
C802 C801 1.410 . S
C802 C803 1.392 . S
C802 C805 1.511 . S
C803 C799 1.376 . S
C803 C802 1.392 . S
C803 H815 0.929 . S
C804 C800 1.531 . S
C804 H816 0.960 . S
C804 H817 0.962 . S
C804 H818 0.960 . S
C805 C802 1.511 . S
C805 H819 0.961 . S
C805 H820 0.961 . S
C805 H821 0.961 . S
C806 C807 1.370 . S
C806 C808 1.363 . S
C806 H822 0.931 . S
C807 C806 1.370 . S
C807 C811 1.408 . S
C808 C806 1.363 . S
C808 C809 1.370 . S
C808 C812 1.524 . S
C809 C801 1.503 . S
C809 C808 1.370 . S
C809 C810 1.403 . S
C810 C809 1.403 . S
C810 C811 1.404 . S
C810 C813 1.539 . S
C811 C807 1.408 . S
C811 C810 1.404 . S
C811 H823 0.930 . S
C812 C808 1.524 . S
C812 H824 0.956 . S
C812 H825 0.961 . S
C812 H826 0.961 . S
C813 C810 1.539 . S
C813 H827 0.958 . S
C813 H828 0.961 . S
C813 H829 0.960 . S
H814 C798 0.931 . S
H815 C803 0.929 . S
H816 C804 0.960 . S
H817 C804 0.962 . S
H818 C804 0.960 . S
H819 C805 0.961 . S
H820 C805 0.961 . S
H821 C805 0.961 . S
H822 C806 0.931 . S
H823 C811 0.930 . S
H824 C812 0.956 . S
H825 C812 0.961 . S
H826 C812 0.961 . S
H827 C813 0.958 . S
H828 C813 0.961 . S
H829 C813 0.960 . S
C830 C831 1.391 . S
C830 C832 1.394 . S
C830 H846 0.931 . S
C831 C830 1.391 . S
C831 C835 1.376 . S
C832 C830 1.394 . S
C832 C833 1.369 . S
C832 C836 1.531 . S
C833 C832 1.369 . S
C833 C834 1.410 . S
C833 C841 1.503 . S
C834 C833 1.410 . S
C834 C835 1.392 . S
C834 C837 1.511 . S
C835 C831 1.376 . S
C835 C834 1.392 . S
C835 H847 0.929 . S
C836 C832 1.531 . S
C836 H848 0.960 . S
C836 H849 0.962 . S
C836 H850 0.960 . S
C837 C834 1.511 . S
C837 H851 0.961 . S
C837 H852 0.961 . S
C837 H853 0.961 . S
C838 C839 1.373 . S
C838 C840 1.363 . S
C838 H854 0.931 . S
C839 C838 1.373 . S
C839 C843 1.406 . S
C840 C838 1.363 . S
C840 C841 1.370 . S
C840 C844 1.524 . S
C841 C833 1.503 . S
C841 C840 1.370 . S
C841 C842 1.403 . S
C842 C841 1.403 . S
C842 C843 1.416 . S
C842 C845 1.539 . S
C843 C839 1.406 . S
C843 C842 1.416 . S
C843 H855 0.922 1_655 S
C844 C840 1.524 . S
C844 H856 0.956 . S
C844 H857 0.961 . S
C844 H858 0.961 . S
C845 C842 1.539 . S
C845 H859 0.958 . S
C845 H860 0.961 . S
C845 H861 0.960 . S
H846 C830 0.931 . S
H847 C835 0.929 . S
H848 C836 0.960 . S
H849 C836 0.962 . S
H850 C836 0.960 . S
H851 C837 0.961 . S
H852 C837 0.961 . S
H853 C837 0.961 . S
H854 C838 0.931 . S
H855 C843 0.922 1_455 S
H856 C844 0.956 . S
H857 C844 0.961 . S
H858 C844 0.961 . S
H859 C845 0.958 . S
H860 C845 0.961 . S
H861 C845 0.960 . S
C862 C863 1.391 . S
C862 C864 1.394 . S
C862 H878 0.931 . S
C863 C862 1.391 . S
C863 C867 1.376 . S
C864 C862 1.394 . S
C864 C865 1.369 . S
C864 C868 1.531 . S
C865 C864 1.369 . S
C865 C866 1.410 . S
C865 C873 1.503 . S
C866 C865 1.410 . S
C866 C867 1.392 . S
C866 C869 1.511 . S
C867 C863 1.376 . S
C867 C866 1.392 . S
C867 H879 0.929 . S
C868 C864 1.531 . S
C868 H880 0.960 . S
C868 H881 0.962 . S
C868 H882 0.960 . S
C869 C866 1.511 . S
C869 H883 0.961 . S
C869 H884 0.961 . S
C869 H885 0.961 . S
C870 C871 1.370 . S
C870 C872 1.363 . S
C870 H886 0.931 . S
C871 C870 1.370 . S
C871 C875 1.408 . S
C872 C870 1.363 . S
C872 C873 1.370 . S
C872 C876 1.524 . S
C873 C865 1.503 . S
C873 C872 1.370 . S
C873 C874 1.403 . S
C874 C873 1.403 . S
C874 C875 1.404 . S
C874 C877 1.539 . S
C875 C871 1.408 . S
C875 C874 1.404 . S
C875 H887 0.930 . S
C876 C872 1.524 . S
C876 H888 0.956 . S
C876 H889 0.961 . S
C876 H890 0.961 . S
C877 C874 1.539 . S
C877 H891 0.958 . S
C877 H892 0.961 . S
C877 H893 0.960 . S
H878 C862 0.931 . S
H879 C867 0.929 . S
H880 C868 0.960 . S
H881 C868 0.962 . S
H882 C868 0.960 . S
H883 C869 0.961 . S
H884 C869 0.961 . S
H885 C869 0.961 . S
H886 C870 0.931 . S
H887 C875 0.930 . S
H888 C876 0.956 . S
H889 C876 0.961 . S
H890 C876 0.961 . S
H891 C877 0.958 . S
H892 C877 0.961 . S
H893 C877 0.960 . S
C894 C895 1.391 . S
C894 C896 1.394 . S
C894 H910 0.931 . S
C895 C894 1.391 . S
C895 C899 1.376 . S
C896 C894 1.394 . S
C896 C897 1.369 . S
C896 C900 1.531 . S
C897 C896 1.369 . S
C897 C898 1.410 . S
C897 C905 1.503 . S
C898 C897 1.410 . S
C898 C899 1.392 . S
C898 C901 1.511 . S
C899 C895 1.376 . S
C899 C898 1.392 . S
C899 H911 0.929 . S
C900 C896 1.531 . S
C900 H912 0.960 . S
C900 H913 0.962 . S
C900 H914 0.960 . S
C901 C898 1.511 . S
C901 H915 0.961 . S
C901 H916 0.961 . S
C901 H917 0.961 . S
C902 C903 1.370 . S
C902 C904 1.363 . S
C902 H918 0.931 . S
C903 C902 1.370 . S
C903 C907 1.408 . S
C904 C902 1.363 . S
C904 C905 1.370 . S
C904 C908 1.524 . S
C905 C897 1.503 . S
C905 C904 1.370 . S
C905 C906 1.403 . S
C906 C905 1.403 . S
C906 C907 1.404 . S
C906 C909 1.539 . S
C907 C903 1.408 . S
C907 C906 1.404 . S
C907 H919 0.930 . S
C908 C904 1.524 . S
C908 H920 0.956 . S
C908 H921 0.961 . S
C908 H922 0.961 . S
C909 C906 1.539 . S
C909 H923 0.958 . S
C909 H924 0.961 . S
C909 H925 0.960 . S
H910 C894 0.931 . S
H911 C899 0.929 . S
H912 C900 0.960 . S
H913 C900 0.962 . S
H914 C900 0.960 . S
H915 C901 0.961 . S
H916 C901 0.961 . S
H917 C901 0.961 . S
H918 C902 0.931 . S
H919 C907 0.930 . S
H920 C908 0.956 . S
H921 C908 0.961 . S
H922 C908 0.961 . S
H923 C909 0.958 . S
H924 C909 0.961 . S
H925 C909 0.960 . S
C926 C927 1.391 . S
C926 C928 1.394 . S
C926 H942 0.931 . S
C927 C926 1.391 . S
C927 C931 1.376 . S
C928 C926 1.394 . S
C928 C929 1.369 . S
C928 C932 1.531 . S
C929 C928 1.369 . S
C929 C930 1.410 . S
C929 C937 1.503 . S
C930 C929 1.410 . S
C930 C931 1.392 . S
C930 C933 1.511 . S
C931 C927 1.376 . S
C931 C930 1.392 . S
C931 H943 0.929 . S
C932 C928 1.531 . S
C932 H944 0.960 . S
C932 H945 0.962 . S
C932 H946 0.960 . S
C933 C930 1.511 . S
C933 H947 0.961 . S
C933 H948 0.961 . S
C933 H949 0.961 . S
C934 C935 1.370 . S
C934 C936 1.363 . S
C934 H950 0.931 . S
C935 C934 1.370 . S
C935 C939 1.408 . S
C936 C934 1.363 . S
C936 C937 1.370 . S
C936 C940 1.524 . S
C937 C929 1.503 . S
C937 C936 1.370 . S
C937 C938 1.403 . S
C938 C937 1.403 . S
C938 C939 1.404 . S
C938 C941 1.539 . S
C939 C935 1.408 . S
C939 C938 1.404 . S
C939 H951 0.930 . S
C940 C936 1.524 . S
C940 H952 0.956 . S
C940 H953 0.961 . S
C940 H954 0.961 . S
C941 C938 1.539 . S
C941 H955 0.958 . S
C941 H956 0.961 . S
C941 H957 0.960 . S
H942 C926 0.931 . S
H943 C931 0.929 . S
H944 C932 0.960 . S
H945 C932 0.962 . S
H946 C932 0.960 . S
H947 C933 0.961 . S
H948 C933 0.961 . S
H949 C933 0.961 . S
H950 C934 0.931 . S
H951 C939 0.930 . S
H952 C940 0.956 . S
H953 C940 0.961 . S
H954 C940 0.961 . S
H955 C941 0.958 . S
H956 C941 0.961 . S
H957 C941 0.960 . S
C958 C959 1.391 . S
C958 C960 1.394 . S
C958 H974 0.931 . S
C959 C958 1.391 . S
C959 C963 1.376 . S
C960 C958 1.394 . S
C960 C961 1.369 . S
C960 C964 1.531 . S
C961 C960 1.369 . S
C961 C962 1.410 . S
C961 C969 1.503 . S
C962 C961 1.410 . S
C962 C963 1.392 . S
C962 C965 1.511 . S
C963 C959 1.376 . S
C963 C962 1.392 . S
C963 H975 0.929 . S
C964 C960 1.531 . S
C964 H976 0.960 . S
C964 H977 0.962 . S
C964 H978 0.960 . S
C965 C962 1.511 . S
C965 H979 0.961 . S
C965 H980 0.961 . S
C965 H981 0.961 . S
C966 C967 1.370 . S
C966 C968 1.363 . S
C966 H982 0.931 . S
C967 C966 1.370 . S
C967 C971 1.408 . S
C968 C966 1.363 . S
C968 C969 1.370 . S
C968 C972 1.524 . S
C969 C961 1.503 . S
C969 C968 1.370 . S
C969 C970 1.403 . S
C970 C969 1.403 . S
C970 C971 1.404 . S
C970 C973 1.539 . S
C971 C967 1.408 . S
C971 C970 1.404 . S
C971 H983 0.930 . S
C972 C968 1.524 . S
C972 H984 0.956 . S
C972 H985 0.961 . S
C972 H986 0.961 . S
C973 C970 1.539 . S
C973 H987 0.958 . S
C973 H988 0.961 . S
C973 H989 0.960 . S
H974 C958 0.931 . S
H975 C963 0.929 . S
H976 C964 0.960 . S
H977 C964 0.962 . S
H978 C964 0.960 . S
H979 C965 0.961 . S
H980 C965 0.961 . S
H981 C965 0.961 . S
H982 C966 0.931 . S
H983 C971 0.930 . S
H984 C972 0.956 . S
H985 C972 0.961 . S
H986 C972 0.961 . S
H987 C973 0.958 . S
H988 C973 0.961 . S
H989 C973 0.960 . S
C990 C991 1.391 . S
C990 C992 1.394 . S
C990 H1006 0.931 . S
C991 C990 1.391 . S
C991 C995 1.376 . S
C992 C990 1.394 . S
C992 C993 1.369 . S
C992 C996 1.531 . S
C993 C992 1.369 . S
C993 C994 1.410 . S
C993 C1001 1.503 . S
C994 C993 1.410 . S
C994 C995 1.392 . S
C994 C997 1.511 . S
C995 C991 1.376 . S
C995 C994 1.392 . S
C995 H1007 0.929 . S
C996 C992 1.531 . S
C996 H1008 0.960 . S
C996 H1009 0.962 . S
C996 H1010 0.960 . S
C997 C994 1.511 . S
C997 H1011 0.961 . S
C997 H1012 0.961 . S
C997 H1013 0.961 . S
C998 C999 1.370 . S
C998 C1000 1.363 . S
C998 H1014 0.931 . S
C999 C998 1.370 . S
C999 C1003 1.408 . S
C1000 C998 1.363 . S
C1000 C1001 1.370 . S
C1000 C1004 1.524 . S
C1001 C993 1.503 . S
C1001 C1000 1.370 . S
C1001 C1002 1.403 . S
C1002 C1001 1.403 . S
C1002 C1003 1.404 . S
C1002 C1005 1.539 . S
C1003 C999 1.408 . S
C1003 C1002 1.404 . S
C1003 H1015 0.930 . S
C1004 C1000 1.524 . S
C1004 H1016 0.956 . S
C1004 H1017 0.961 . S
C1004 H1018 0.961 . S
C1005 C1002 1.539 . S
C1005 H1019 0.958 . S
C1005 H1020 0.961 . S
C1005 H1021 0.960 . S
H1006 C990 0.931 . S
H1007 C995 0.929 . S
H1008 C996 0.960 . S
H1009 C996 0.962 . S
H1010 C996 0.960 . S
H1011 C997 0.961 . S
H1012 C997 0.961 . S
H1013 C997 0.961 . S
H1014 C998 0.931 . S
H1015 C1003 0.930 . S
H1016 C1004 0.956 . S
H1017 C1004 0.961 . S
H1018 C1004 0.961 . S
H1019 C1005 0.958 . S
H1020 C1005 0.961 . S
H1021 C1005 0.960 . S
C1022 C1023 1.391 . S
C1022 C1024 1.394 . S
C1022 H1038 0.931 . S
C1023 C1022 1.391 . S
C1023 C1027 1.376 . S
C1024 C1022 1.394 . S
C1024 C1025 1.369 . S
C1024 C1028 1.531 . S
C1025 C1024 1.369 . S
C1025 C1026 1.410 . S
C1025 C1033 1.503 . S
C1026 C1025 1.410 . S
C1026 C1027 1.392 . S
C1026 C1029 1.511 . S
C1027 C1023 1.376 . S
C1027 C1026 1.392 . S
C1027 H1039 0.929 . S
C1028 C1024 1.531 . S
C1028 H1040 0.960 . S
C1028 H1041 0.962 . S
C1028 H1042 0.960 . S
C1029 C1026 1.511 . S
C1029 H1043 0.961 . S
C1029 H1044 0.961 . S
C1029 H1045 0.961 . S
C1030 C1031 1.370 . S
C1030 C1032 1.363 . S
C1030 H1046 0.931 . S
C1031 C1030 1.370 . S
C1031 C1035 1.408 . S
C1032 C1030 1.363 . S
C1032 C1033 1.370 . S
C1032 C1036 1.524 . S
C1033 C1025 1.503 . S
C1033 C1032 1.370 . S
C1033 C1034 1.403 . S
C1034 C1033 1.403 . S
C1034 C1035 1.404 . S
C1034 C1037 1.539 . S
C1035 C1031 1.408 . S
C1035 C1034 1.404 . S
C1035 H1047 0.930 . S
C1036 C1032 1.524 . S
C1036 H1048 0.956 . S
C1036 H1049 0.961 . S
C1036 H1050 0.961 . S
C1037 C1034 1.539 . S
C1037 H1051 0.958 . S
C1037 H1052 0.961 . S
C1037 H1053 0.960 . S
H1038 C1022 0.931 . S
H1039 C1027 0.929 . S
H1040 C1028 0.960 . S
H1041 C1028 0.962 . S
H1042 C1028 0.960 . S
H1043 C1029 0.961 . S
H1044 C1029 0.961 . S
H1045 C1029 0.961 . S
H1046 C1030 0.931 . S
H1047 C1035 0.930 . S
H1048 C1036 0.956 . S
H1049 C1036 0.961 . S
H1050 C1036 0.961 . S
H1051 C1037 0.958 . S
H1052 C1037 0.961 . S
H1053 C1037 0.960 . S
C1054 C1055 1.391 . S
C1054 C1056 1.394 . S
C1054 H1070 0.931 . S
C1055 C1054 1.391 . S
C1055 C1059 1.376 . S
C1056 C1054 1.394 . S
C1056 C1057 1.369 . S
C1056 C1060 1.531 . S
C1057 C1056 1.369 . S
C1057 C1058 1.410 . S
C1057 C1065 1.503 . S
C1058 C1057 1.410 . S
C1058 C1059 1.392 . S
C1058 C1061 1.511 . S
C1059 C1055 1.376 . S
C1059 C1058 1.392 . S
C1059 H1071 0.929 . S
C1060 C1056 1.531 . S
C1060 H1072 0.960 . S
C1060 H1073 0.962 . S
C1060 H1074 0.960 . S
C1061 C1058 1.511 . S
C1061 H1075 0.961 . S
C1061 H1076 0.961 . S
C1061 H1077 0.961 . S
C1062 C1063 1.370 . S
C1062 C1064 1.363 . S
C1062 H1078 0.931 . S
C1063 C1062 1.370 . S
C1063 C1067 1.408 . S
C1064 C1062 1.363 . S
C1064 C1065 1.370 . S
C1064 C1068 1.524 . S
C1065 C1057 1.503 . S
C1065 C1064 1.370 . S
C1065 C1066 1.403 . S
C1066 C1065 1.403 . S
C1066 C1067 1.404 . S
C1066 C1069 1.539 . S
C1067 C1063 1.408 . S
C1067 C1066 1.404 . S
C1067 H1079 0.930 . S
C1068 C1064 1.524 . S
C1068 H1080 0.956 . S
C1068 H1081 0.961 . S
C1068 H1082 0.961 . S
C1069 C1066 1.539 . S
C1069 H1083 0.958 . S
C1069 H1084 0.961 . S
C1069 H1085 0.960 . S
H1070 C1054 0.931 . S
H1071 C1059 0.929 . S
H1072 C1060 0.960 . S
H1073 C1060 0.962 . S
H1074 C1060 0.960 . S
H1075 C1061 0.961 . S
H1076 C1061 0.961 . S
H1077 C1061 0.961 . S
H1078 C1062 0.931 . S
H1079 C1067 0.930 . S
H1080 C1068 0.956 . S
H1081 C1068 0.961 . S
H1082 C1068 0.961 . S
H1083 C1069 0.958 . S
H1084 C1069 0.961 . S
H1085 C1069 0.960 . S
C1086 C1087 1.391 . S
C1086 C1088 1.394 . S
C1086 H1102 0.931 . S
C1087 C1086 1.391 . S
C1087 C1091 1.376 . S
C1088 C1086 1.394 . S
C1088 C1089 1.369 . S
C1088 C1092 1.531 . S
C1089 C1088 1.369 . S
C1089 C1090 1.410 . S
C1089 C1097 1.503 . S
C1090 C1089 1.410 . S
C1090 C1091 1.392 . S
C1090 C1093 1.511 . S
C1091 C1087 1.376 . S
C1091 C1090 1.392 . S
C1091 H1103 0.929 . S
C1092 C1088 1.531 . S
C1092 H1104 0.960 . S
C1092 H1105 0.962 . S
C1092 H1106 0.960 . S
C1093 C1090 1.511 . S
C1093 H1107 0.961 . S
C1093 H1108 0.961 . S
C1093 H1109 0.961 . S
C1094 C1095 1.370 . S
C1094 C1096 1.363 . S
C1094 H1110 0.931 . S
C1095 C1094 1.370 . S
C1095 C1099 1.408 . S
C1096 C1094 1.363 . S
C1096 C1097 1.370 . S
C1096 C1100 1.524 . S
C1097 C1089 1.503 . S
C1097 C1096 1.370 . S
C1097 C1098 1.403 . S
C1098 C1097 1.403 . S
C1098 C1099 1.404 . S
C1098 C1101 1.539 . S
C1099 C1095 1.408 . S
C1099 C1098 1.404 . S
C1099 H1111 0.930 . S
C1100 C1096 1.524 . S
C1100 H1112 0.956 . S
C1100 H1113 0.961 . S
C1100 H1114 0.961 . S
C1101 C1098 1.539 . S
C1101 H1115 0.958 . S
C1101 H1116 0.961 . S
C1101 H1117 0.960 . S
H1102 C1086 0.931 . S
H1103 C1091 0.929 . S
H1104 C1092 0.960 . S
H1105 C1092 0.962 . S
H1106 C1092 0.960 . S
H1107 C1093 0.961 . S
H1108 C1093 0.961 . S
H1109 C1093 0.961 . S
H1110 C1094 0.931 . S
H1111 C1099 0.930 . S
H1112 C1100 0.956 . S
H1113 C1100 0.961 . S
H1114 C1100 0.961 . S
H1115 C1101 0.958 . S
H1116 C1101 0.961 . S
H1117 C1101 0.960 . S
C1118 C1119 1.391 . S
C1118 C1120 1.394 . S
C1118 H1134 0.931 . S
C1119 C1118 1.391 . S
C1119 C1123 1.376 . S
C1120 C1118 1.394 . S
C1120 C1121 1.369 . S
C1120 C1124 1.531 . S
C1121 C1120 1.369 . S
C1121 C1122 1.410 . S
C1121 C1129 1.503 . S
C1122 C1121 1.410 . S
C1122 C1123 1.392 . S
C1122 C1125 1.511 . S
C1123 C1119 1.376 . S
C1123 C1122 1.392 . S
C1123 H1135 0.929 . S
C1124 C1120 1.531 . S
C1124 H1136 0.960 . S
C1124 H1137 0.962 . S
C1124 H1138 0.960 . S
C1125 C1122 1.511 . S
C1125 H1139 0.961 . S
C1125 H1140 0.961 . S
C1125 H1141 0.961 . S
C1126 C1127 1.370 . S
C1126 C1128 1.363 . S
C1126 H1142 0.931 . S
C1127 C1126 1.370 . S
C1127 C1131 1.408 . S
C1128 C1126 1.363 . S
C1128 C1129 1.370 . S
C1128 C1132 1.524 . S
C1129 C1121 1.503 . S
C1129 C1128 1.370 . S
C1129 C1130 1.403 . S
C1130 C1129 1.403 . S
C1130 C1131 1.404 . S
C1130 C1133 1.539 . S
C1131 C1127 1.408 . S
C1131 C1130 1.404 . S
C1131 H1143 0.930 . S
C1132 C1128 1.524 . S
C1132 H1144 0.956 . S
C1132 H1145 0.961 . S
C1132 H1146 0.961 . S
C1133 C1130 1.539 . S
C1133 H1147 0.958 . S
C1133 H1148 0.961 . S
C1133 H1149 0.960 . S
H1134 C1118 0.931 . S
H1135 C1123 0.929 . S
H1136 C1124 0.960 . S
H1137 C1124 0.962 . S
H1138 C1124 0.960 . S
H1139 C1125 0.961 . S
H1140 C1125 0.961 . S
H1141 C1125 0.961 . S
H1142 C1126 0.931 . S
H1143 C1131 0.930 . S
H1144 C1132 0.956 . S
H1145 C1132 0.961 . S
H1146 C1132 0.961 . S
H1147 C1133 0.958 . S
H1148 C1133 0.961 . S
H1149 C1133 0.960 . S
C1150 C1151 1.391 . S
C1150 C1152 1.394 . S
C1150 H1166 0.931 . S
C1151 C1150 1.391 . S
C1151 C1155 1.376 . S
C1152 C1150 1.394 . S
C1152 C1153 1.369 . S
C1152 C1156 1.531 . S
C1153 C1152 1.369 . S
C1153 C1154 1.410 . S
C1153 C1161 1.503 . S
C1154 C1153 1.410 . S
C1154 C1155 1.392 . S
C1154 C1157 1.511 . S
C1155 C1151 1.376 . S
C1155 C1154 1.392 . S
C1155 H1167 0.929 . S
C1156 C1152 1.531 . S
C1156 H1168 0.960 . S
C1156 H1169 0.962 . S
C1156 H1170 0.960 . S
C1157 C1154 1.511 . S
C1157 H1171 0.961 . S
C1157 H1172 0.961 . S
C1157 H1173 0.961 . S
C1158 C1159 1.370 . S
C1158 C1160 1.363 . S
C1158 H1174 0.931 . S
C1159 C1158 1.370 . S
C1159 C1163 1.408 . S
C1160 C1158 1.363 . S
C1160 C1161 1.370 . S
C1160 C1164 1.524 . S
C1161 C1153 1.503 . S
C1161 C1160 1.370 . S
C1161 C1162 1.403 . S
C1162 C1161 1.403 . S
C1162 C1163 1.404 . S
C1162 C1165 1.539 . S
C1163 C1159 1.408 . S
C1163 C1162 1.404 . S
C1163 H1175 0.930 . S
C1164 C1160 1.524 . S
C1164 H1176 0.956 . S
C1164 H1177 0.961 . S
C1164 H1178 0.961 . S
C1165 C1162 1.539 . S
C1165 H1179 0.958 . S
C1165 H1180 0.961 . S
C1165 H1181 0.960 . S
H1166 C1150 0.931 . S
H1167 C1155 0.929 . S
H1168 C1156 0.960 . S
H1169 C1156 0.962 . S
H1170 C1156 0.960 . S
H1171 C1157 0.961 . S
H1172 C1157 0.961 . S
H1173 C1157 0.961 . S
H1174 C1158 0.931 . S
H1175 C1163 0.930 . S
H1176 C1164 0.956 . S
H1177 C1164 0.961 . S
H1178 C1164 0.961 . S
H1179 C1165 0.958 . S
H1180 C1165 0.961 . S
H1181 C1165 0.960 . S
C423 C118 1.610 . S
C415 C6 1.624 . S
C455 C187 1.430 . S
C447 C18 1.430 . S
C487 C125 1.608 . S
C479 C28 1.602 . S
C519 C188 1.534 . S
C511 C45 1.535 . S
C551 C241 1.480 . S
C543 C4 1.478 . S
C583 C277 1.707 . S
C575 C21 1.720 . S
C607 C33 1.638 . S
C615 C337 1.674 . S
C647 C400 1.688 . S
C639 C40 1.702 . S
C679 C240 1.597 . S
C671 C16 1.607 . S
C703 C30 1.710 . S
C711 C284 1.709 . S
C743 C330 1.624 . S
C735 C42 1.623 . S
C775 C399 1.666 . S
C767 C9 1.636 . S
C799 C52 1.563 . S
C807 C178 1.564 . S
C839 C135 1.701 1_655 S
C831 C69 1.705 . S
C863 C78 1.432 . S
C871 C171 1.431 . S
C895 C93 1.454 . S
C903 C134 1.493 . S
C935 C346 1.695 1_565 S
C927 C57 1.683 . S
C967 C390 1.690 . S
C959 C66 1.685 . S
C999 C224 1.487 . S
C991 C76 1.495 . S
C1023 C88 1.558 . S
C1031 C293 1.531 . S
C1063 C347 1.642 . S
C1055 C64 1.607 . S
C1095 C383 1.640 . S
C1087 C81 1.606 . S
C1127 C231 1.464 . S
C1119 C90 1.455 . S
C1151 C54 1.673 . S
C1159 C294 1.675 . S
