# Generated by pormake.
# Topology anh, (6,3)-cn, num edge types: 1
# Building blocks:
#     Node 0, Type 0, BuildingBlock: BETDAH_clean_sbu_0, # of connection points: 6
#     Node 1, Type 0, BuildingBlock: BETDAH_clean_sbu_0, # of connection points: 6
#     Node 2, Type 0, BuildingBlock: BETDAH_clean_sbu_0, # of connection points: 6
#     Node 3, Type 1, BuildingBlock: QEWDON_clean_linker_0, # of connection points: 3
#     Node 4, Type 1, BuildingBlock: QEWDON_clean_linker_0, # of connection points: 3
#     Node 5, Type 1, BuildingBlock: QEWDON_clean_linker_0, # of connection points: 3
#     Node 6, Type 1, BuildingBlock: QEWDON_clean_linker_0, # of connection points: 3
#     Node 7, Type 1, BuildingBlock: QEWDON_clean_linker_0, # of connection points: 3
#     Node 8, Type 1, BuildingBlock: QEWDON_clean_linker_0, # of connection points: 3
#     Edge 9, Type (0, 1), BuildingBlock: XUDNAN_clean_linker_2, # of connection points: 2
#     Edge 10, Type (0, 1), BuildingBlock: XUDNAN_clean_linker_2, # of connection points: 2
#     Edge 11, Type (0, 1), BuildingBlock: XUDNAN_clean_linker_2, # of connection points: 2
#     Edge 12, Type (0, 1), BuildingBlock: XUDNAN_clean_linker_2, # of connection points: 2
#     Edge 13, Type (0, 1), BuildingBlock: XUDNAN_clean_linker_2, # of connection points: 2
#     Edge 14, Type (0, 1), BuildingBlock: XUDNAN_clean_linker_2, # of connection points: 2
#     Edge 15, Type (0, 1), BuildingBlock: XUDNAN_clean_linker_2, # of connection points: 2
#     Edge 16, Type (0, 1), BuildingBlock: XUDNAN_clean_linker_2, # of connection points: 2
#     Edge 17, Type (0, 1), BuildingBlock: XUDNAN_clean_linker_2, # of connection points: 2
#     Edge 18, Type (0, 1), BuildingBlock: XUDNAN_clean_linker_2, # of connection points: 2
#     Edge 19, Type (0, 1), BuildingBlock: XUDNAN_clean_linker_2, # of connection points: 2
#     Edge 20, Type (0, 1), BuildingBlock: XUDNAN_clean_linker_2, # of connection points: 2
#     Edge 21, Type (0, 1), BuildingBlock: XUDNAN_clean_linker_2, # of connection points: 2
#     Edge 22, Type (0, 1), BuildingBlock: XUDNAN_clean_linker_2, # of connection points: 2
#     Edge 23, Type (0, 1), BuildingBlock: XUDNAN_clean_linker_2, # of connection points: 2
#     Edge 24, Type (0, 1), BuildingBlock: XUDNAN_clean_linker_2, # of connection points: 2
#     Edge 25, Type (0, 1), BuildingBlock: XUDNAN_clean_linker_2, # of connection points: 2
#     Edge 26, Type (0, 1), BuildingBlock: XUDNAN_clean_linker_2, # of connection points: 2
# Relax obj value: 0.135
# Max RMSD: 0.176
# Mean RMSD: 0.126
data_MOF--net-anh--node1-BETDAH_clean_sbu_0--node2-QEWDON_clean_linker_0--edge1-XUDNAN_clean_linker_2
_symmetry_space_group_name_H-M    P1
_symmetry_Int_Tables_number       1
_symmetry_cell_setting            triclinic
loop_
_symmetry_equiv_pos_as_xyz
'x, y, z'
_cell_length_a     31.614812
_cell_length_b     39.228695
_cell_length_c     47.867173
_cell_angle_alpha  97.027778
_cell_angle_beta   90.956646
_cell_angle_gamma 129.57553
loop_
_atom_site_label
_atom_site_type_symbol
_atom_site_fract_x
_atom_site_fract_y
_atom_site_fract_z
_atom_type_partial_charge
Ho0 Ho 0.14077 0.51793 0.13693 0.0
Ho1 Ho 1.0687 0.53594 0.16463 0.0
C2 C 0.18628 0.62147 0.15444 0.0
C3 C 0.21107 0.52491 0.10636 0.0
C4 C 0.27108 0.56253 0.10954 0.0
C5 C 0.29746 0.58158 0.086 0.0
C6 C 0.3534 0.62014 0.08958 0.0
C7 C 0.38383 0.6402 0.11679 0.0
C8 C 0.35688 0.62093 0.14026 0.0
C9 C 0.30118 0.58287 0.13671 0.0
C10 C 0.14782 0.52606 0.19367 0.0
C11 C 1.02034 0.43238 0.14595 0.0
C12 C 1.00653 0.53484 0.19928 0.0
C13 C 0.94867 0.5022 0.2044 0.0
C14 C 0.93455 0.50428 0.23175 0.0
C15 C 0.87916 0.48033 0.23592 0.0
C16 C 0.8374 0.45495 0.21262 0.0
C17 C 0.85145 0.44829 0.18592 0.0
C18 C 0.90677 0.47174 0.18186 0.0
C19 C 1.06212 0.52757 0.10749 0.0
O20 O 0.19147 0.59346 0.13999 0.0
O21 O 0.14462 0.60742 0.16918 0.0
O22 O 0.19255 0.50114 0.12681 0.0
O23 O 0.18063 0.5348 0.09871 0.0
O24 O 0.15198 0.49958 0.17744 0.0
O25 O 0.14466 0.5493 0.17927 0.0
O26 O 1.01785 0.46118 0.16163 0.0
O27 O 1.06163 0.44605 0.13069 0.0
O28 O 1.01482 0.5501 0.17535 0.0
O29 O 1.03841 0.52573 0.20557 0.0
O30 O 1.05685 0.55367 0.12344 0.0
O31 O 1.06547 0.50502 0.12244 0.0
H32 H 0.27459 0.56706 0.06494 0.0
H33 H 0.37267 0.63433 0.07107 0.0
H34 H 0.37897 0.63464 0.16147 0.0
H35 H 0.28163 0.56959 0.15537 0.0
H36 H 0.96648 0.52678 0.24954 0.0
H37 H 0.86953 0.48526 0.25688 0.0
H38 H 0.82062 0.42893 0.16745 0.0
H39 H 0.91692 0.46872 0.16068 0.0
Ho40 Ho 0.7092 0.06374 0.48191 0.0
Ho41 Ho 0.63321 0.08189 0.46235 0.0
C42 C 0.57869 0.98448 0.4717 0.0
C43 C 0.76899 0.05095 0.50795 0.0
C44 C 0.7625 1.0106 0.51039 0.0
C45 C 0.71135 0.97049 0.51459 0.0
C46 C 0.70564 0.93252 0.51677 0.0
C47 C 0.75073 0.93346 0.51448 0.0
C48 C 0.80181 0.97369 0.51009 0.0
C49 C 0.8076 1.01181 0.50815 0.0
C50 C 0.66698 0.0314 0.42632 0.0
C51 C 0.76619 0.16305 0.47 0.0
C52 C 0.58491 0.10866 0.44093 0.0
C53 C 0.58159 0.14357 0.45232 0.0
C54 C 0.57896 0.16782 0.43413 0.0
C55 C 0.5764 0.20128 0.44503 0.0
C56 C 0.576 0.21076 0.4743 0.0
C57 C 0.57952 0.18681 0.49244 0.0
C58 C 0.58258 0.15379 0.48161 0.0
C59 C 0.64937 0.08768 0.51912 0.0
O60 O 0.62399 1.0044 0.48941 0.0
O61 O 0.57632 1.00642 0.45366 0.0
O62 O 0.77726 0.063 0.48292 0.0
O63 O 0.73423 0.05373 0.52014 0.0
O64 O 0.6773 1.01255 0.4423 0.0
O65 O 0.68233 0.06775 0.44015 0.0
O66 O 0.71627 0.1496 0.46359 0.0
O67 O 0.77478 0.13675 0.4784 0.0
O68 O 0.55955 0.07377 0.45358 0.0
O69 O 0.63369 0.12311 0.43566 0.0
O70 O 0.60392 0.0739 0.50572 0.0
O71 O 0.68478 0.10086 0.50223 0.0
H72 H 0.67566 0.96841 0.51625 0.0
H73 H 0.66587 0.90254 0.52056 0.0
H74 H 0.83725 0.97563 0.50771 0.0
H75 H 0.84731 0.04224 0.5047 0.0
H76 H 0.57871 0.16078 0.4115 0.0
H77 H 0.57355 0.21906 0.43052 0.0
H78 H 0.58027 0.19381 0.51513 0.0
H79 H 0.58563 0.13617 0.49617 0.0
Ho80 Ho 0.69594 0.61294 0.84332 0.0
Ho81 Ho 0.61526 0.51218 0.83978 0.0
C82 C 0.56334 0.56033 0.84376 0.0
C83 C 0.74921 0.69461 0.83555 0.0
C84 C 0.73584 0.72275 0.82934 0.0
C85 C 0.68793 0.705 0.81155 0.0
C86 C 0.67689 0.73286 0.80562 0.0
C87 C 0.71338 0.77882 0.81753 0.0
C88 C 0.7606 0.796 0.83584 0.0
C89 C 0.77178 0.76824 0.84157 0.0
C90 C 0.68259 0.58451 0.89324 0.0
C91 C 0.74863 0.56488 0.84043 0.0
C92 C 0.56577 0.43176 0.84896 0.0
C93 C 0.57607 0.40014 0.84322 0.0
C94 C 0.55788 0.3683 0.86085 0.0
C95 C 0.56906 0.33901 0.85627 0.0
C96 C 0.59844 0.34103 0.83389 0.0
C97 C 0.61667 0.37307 0.81626 0.0
C98 C 0.60588 0.40261 0.82101 0.0
C99 C 0.62858 0.53968 0.78936 0.0
O100 O 0.61162 0.59581 0.83741 0.0
O101 O 0.5571 0.52534 0.84965 0.0
O102 O 0.74016 0.68287 0.86056 0.0
O103 O 0.73391 0.6618 0.81536 0.0
O104 O 0.72948 0.61936 0.88715 0.0
O105 O 0.64483 0.56821 0.87331 0.0
O106 O 0.69769 0.52695 0.84083 0.0
O107 O 0.759 0.60323 0.8398 0.0
O108 O 0.55155 0.44048 0.8268 0.0
O109 O 0.60233 0.46775 0.8677 0.0
O110 O 0.58218 0.5043 0.79547 0.0
O111 O 0.66633 0.55668 0.80953 0.0
H112 H 0.65934 0.66978 0.80207 0.0
H113 H 0.64033 0.71853 0.79131 0.0
H114 H 0.78889 0.83091 0.84596 0.0
H115 H 0.80862 0.78236 0.85559 0.0
H116 H 0.53519 0.36622 0.87822 0.0
H117 H 0.55413 0.31439 0.87002 0.0
H118 H 0.63993 0.37569 0.79907 0.0
H119 H 0.62105 0.42751 0.80744 0.0
H120 H 0.63906 0.06025 0.21856 0.0
C121 C 0.60439 0.02677 0.20775 0.0
C122 C 0.58472 0.98954 0.2207 0.0
C123 C 0.57785 0.02103 0.18153 0.0
H124 H 0.52191 0.91775 0.21742 0.0
C125 C 0.5388 0.94635 0.20697 0.0
C126 C 0.51127 0.93995 0.18114 0.0
C127 C 0.53115 0.97733 0.16843 0.0
C128 C 0.59538 0.06071 0.16909 0.0
H129 H 0.50958 0.97234 0.14852 0.0
C130 C 0.65178 0.09753 0.1683 0.0
C131 C 0.66723 0.13525 0.15712 0.0
C132 C 0.55494 0.06223 0.15846 0.0
H133 H 0.51143 0.03501 0.15921 0.0
C134 C 0.57006 0.09924 0.14724 0.0
H135 H 0.68346 0.09695 0.17647 0.0
C136 C 0.62564 0.13546 0.14656 0.0
H137 H 0.6361 0.16361 0.13749 0.0
H138 H 0.53849 0.09993 0.13912 0.0
H139 H 0.63644 0.58556 0.57346 0.0
C140 C 0.63109 0.55586 0.56538 0.0
C141 C 0.62959 0.53123 0.58487 0.0
C142 C 0.62254 0.54078 0.53588 0.0
H143 H 0.61736 0.47201 0.59021 0.0
C144 C 0.61898 0.49106 0.575 0.0
C145 C 0.61069 0.47528 0.54589 0.0
C146 C 0.61417 0.50093 0.52649 0.0
C147 C 0.61814 0.5644 0.51502 0.0
H148 H 0.6085 0.48881 0.50406 0.0
C149 C 0.6463 0.61107 0.52101 0.0
C150 C 0.63907 0.63213 0.50178 0.0
C151 C 0.5831 0.53959 0.4892 0.0
H152 H 0.55883 0.50362 0.484 0.0
C153 C 0.57743 0.56049 0.46977 0.0
H154 H 0.67316 0.63097 0.54073 0.0
C155 C 0.60515 0.60626 0.47588 0.0
H156 H 0.59987 0.62137 0.46021 0.0
H157 H 0.55072 0.54091 0.44994 0.0
H158 H 0.18774 0.5818 0.9025 0.0
C159 C 0.15483 0.5796 0.89264 0.0
C160 C 0.11402 0.57219 0.90913 0.0
C161 C 0.15436 0.58559 0.86421 0.0
H162 H 1.04113 0.5658 0.91006 0.0
C163 C 1.07283 0.57197 0.89741 0.0
C164 C 1.06984 0.5768 0.86909 0.0
C165 C 0.11002 0.58262 0.85243 0.0
C166 C 0.20146 0.59741 0.84758 0.0
H167 H 0.10664 0.58516 0.83038 0.0
C168 C 0.23417 0.58486 0.85323 0.0
C169 C 0.28002 0.59881 0.83812 0.0
C170 C 0.216 0.62396 0.82646 0.0
H171 H 0.1944 0.63602 0.82189 0.0
C172 C 0.25972 0.63669 0.81117 0.0
H173 H 0.22438 0.5646 0.86936 0.0
C174 C 0.29114 0.62425 0.81677 0.0
H175 H 0.324 0.63433 0.80392 0.0
H176 H 0.26962 0.65675 0.79484 0.0
H177 H 0.11025 0.54158 0.41204 0.0
C178 C 0.14796 0.57538 0.42004 0.0
C179 C 0.18249 0.60192 0.40054 0.0
C180 C 0.1614 0.59207 0.44937 0.0
H181 H 0.25718 0.66683 0.39533 0.0
C182 C 0.22993 0.64663 0.41032 0.0
C183 C 0.24418 0.66453 0.43944 0.0
C184 C 0.20999 0.63685 0.45878 0.0
C185 C 0.12474 0.5627 0.46994 0.0
H186 H 0.22165 0.65035 0.48124 0.0
C187 C 1.09303 0.5156 0.46387 0.0
C188 C 1.05609 0.48761 0.48234 0.0
C189 C 0.11989 0.58129 0.49552 0.0
H190 H 0.14205 0.61694 0.50085 0.0
C191 C 1.085 0.55389 0.5144 0.0
H192 H 1.09687 0.50035 0.44476 0.0
C193 C 1.05312 0.50742 0.50788 0.0
H194 H 1.02475 0.48693 0.5224 0.0
H195 H 1.08161 0.56871 0.53392 0.0
H196 H 0.60131 1.0062 0.72141 0.0
C197 C 0.60717 0.03449 0.73342 0.0
C198 C 0.62932 0.07262 0.72117 0.0
C199 C 0.59153 0.03256 0.76089 0.0
H200 H 0.65354 0.1384 0.7267 0.0
C201 C 0.63622 0.10904 0.73637 0.0
C202 C 0.62057 0.10761 0.76376 0.0
C203 C 0.59834 0.06923 0.77585 0.0
C204 C 0.56832 0.99259 0.77426 0.0
H205 H 0.58592 0.06771 0.79693 0.0
C206 C 0.59438 0.97397 0.77397 0.0
C207 C 0.57565 0.93864 0.78888 0.0
C208 C 0.52165 0.97434 0.78866 0.0
H209 H 0.50044 0.98773 0.78896 0.0
C210 C 0.50203 0.93874 0.80291 0.0
H211 H 0.63003 0.98781 0.76263 0.0
C212 C 0.52901 0.92126 0.80331 0.0
H213 H 0.51397 0.89485 0.81552 0.0
H214 H 0.46631 0.92515 0.81413 0.0
H215 H 0.71236 0.64516 0.09674 0.0
C216 C 0.70264 0.62055 0.10958 0.0
C217 C 0.68089 0.5776 0.09639 0.0
C218 C 0.71215 0.63218 0.13918 0.0
H219 H 0.6551 0.51395 0.10249 0.0
C220 C 0.66896 0.54609 0.11309 0.0
C221 C 0.67823 0.55703 0.14299 0.0
C222 C 0.69891 0.60021 0.15575 0.0
C223 C 0.73535 0.67783 0.15251 0.0
H224 H 0.70482 0.60936 0.1786 0.0
C225 C 0.70959 0.69455 0.14489 0.0
C226 C 0.73131 0.73836 0.15634 0.0
C227 C 0.78329 0.70505 0.17218 0.0
H228 H 0.80393 0.69276 0.17831 0.0
C229 C 0.80545 0.74876 0.18363 0.0
H230 H 0.67122 0.67242 0.13066 0.0
C231 C 0.77969 0.76544 0.1758 0.0
H232 H 0.79739 0.79928 0.18504 0.0
H233 H 0.84264 0.76976 0.19866 0.0
H234 H 0.46058 0.65492 0.08263 0.0
H235 H 0.44418 0.71148 0.16105 0.0
H236 H 0.5448 0.76335 0.17367 0.0
H237 H 0.54521 0.64484 0.10756 0.0
H238 H 0.58901 0.66058 0.0797 0.0
H239 H 0.52001 0.63981 0.07191 0.0
H240 H 0.55686 0.71181 0.05233 0.0
H241 H 0.62662 0.73287 0.05987 0.0
H242 H 0.60835 0.76612 0.07401 0.0
H243 H 0.63732 0.78839 0.18505 0.0
H244 H 0.71218 0.78577 0.19272 0.0
H245 H 0.67623 0.72155 0.10525 0.0
C246 C 0.47838 0.67994 0.10166 0.0
C247 C 0.44429 0.67884 0.12087 0.0
C248 C 0.46922 0.71122 0.14607 0.0
C249 C 0.52662 0.74131 0.15329 0.0
C250 C 0.5589 0.7394 0.13483 0.0
C251 C 0.53579 0.71032 0.10908 0.0
C252 C 0.57773 0.70913 0.09536 0.0
C253 C 0.55672 0.66076 0.08828 0.0
C254 C 0.59332 0.73133 0.06882 0.0
C255 C 0.6256 0.73758 0.11893 0.0
C256 C 0.61475 0.75606 0.14114 0.0
C257 C 0.64754 0.77582 0.16741 0.0
C258 C 0.69026 0.77428 0.1716 0.0
C259 C 0.69971 0.75308 0.14961 0.0
C260 C 0.66963 0.73774 0.12246 0.0
H261 H 0.85594 0.23257 0.5084 0.0
H262 H 0.78004 0.19638 0.42198 0.0
H263 H 0.85239 0.2743 0.4144 0.0
H264 H 0.88495 0.33598 0.52215 0.0
H265 H 0.94987 0.36595 0.5441 0.0
H266 H 0.89746 0.30613 0.54173 0.0
H267 H 0.96697 0.29564 0.52584 0.0
H268 H 1.01976 0.35554 0.52828 0.0
H269 H 1.00239 0.31864 0.49559 0.0
H270 H 0.92769 0.35624 0.41695 0.0
H271 H 0.99835 0.43846 0.43023 0.0
H272 H 1.0248 0.42393 0.51577 0.0
C273 C 0.85576 0.24104 0.48772 0.0
C274 C 0.8133 0.20859 0.46554 0.0
C275 C 0.81279 0.22088 0.43905 0.0
C276 C 0.85372 0.26495 0.43454 0.0
C277 C 0.89459 0.29653 0.45689 0.0
C278 C 0.89592 0.28536 0.48303 0.0
C279 C 0.9412 0.32688 0.5042 0.0
C280 C 0.9169 0.33415 0.52953 0.0
C281 C 0.9852 0.32399 0.51405 0.0
C282 C 0.96417 0.36303 0.48602 0.0
C283 C 0.93724 0.34458 0.45868 0.0
C284 C 0.94959 0.3711 0.4382 0.0
C285 C 0.99008 0.41783 0.44592 0.0
C286 C 1.01754 0.43779 0.47398 0.0
C287 C 1.00461 0.40977 0.49415 0.0
H288 H 0.61327 0.7601 0.81068 0.0
H289 H 0.78942 0.86591 0.8091 0.0
H290 H 0.77292 0.91739 0.80047 0.0
H291 H 0.56892 0.78931 0.75375 0.0
H292 H 0.50984 0.77542 0.77003 0.0
H293 H 0.53536 0.74651 0.77573 0.0
H294 H 0.54511 0.76922 0.82998 0.0
H295 H 0.52001 0.79848 0.82459 0.0
H296 H 0.58593 0.82771 0.84531 0.0
H297 H 0.73847 0.9587 0.79513 0.0
H298 H 0.68787 0.98643 0.79109 0.0
H299 H 0.53295 0.85196 0.79142 0.0
C300 C 0.64834 0.79384 0.80805 0.0
C301 C 0.70276 0.80899 0.81087 0.0
C302 C 0.74748 0.85371 0.80768 0.0
C303 C 0.73852 0.88315 0.80252 0.0
C304 C 0.68454 0.86728 0.80021 0.0
C305 C 0.64011 0.82358 0.80256 0.0
C306 C 0.58627 0.81519 0.79939 0.0
C307 C 0.54784 0.7795 0.77316 0.0
C308 C 0.55767 0.80188 0.82643 0.0
C309 C 0.60759 0.86128 0.79535 0.0
C310 C 0.66438 0.89078 0.79595 0.0
C311 C 0.69385 0.93575 0.79407 0.0
C312 C 0.66452 0.95108 0.79151 0.0
C313 C 0.60607 0.92143 0.79052 0.0
C314 C 0.57751 0.87579 0.79227 0.0
H315 H 0.82619 0.5125 0.24002 0.0
H316 H 0.73248 0.38259 0.18591 0.0
H317 H 0.66061 0.38708 0.17274 0.0
H318 H 0.70071 0.50859 0.25499 0.0
H319 H 0.74461 0.56741 0.2527 0.0
H320 H 0.77321 0.54526 0.26814 0.0
H321 H 0.84626 0.57813 0.23296 0.0
H322 H 0.81771 0.59942 0.21717 0.0
H323 H 0.82353 0.56202 0.19534 0.0
H324 H 0.61644 0.41545 0.15413 0.0
H325 H 0.60691 0.46366 0.13162 0.0
H326 H 0.73757 0.5784 0.19403 0.0
C327 C 0.78877 0.48353 0.22698 0.0
C328 C 0.78504 0.44728 0.21399 0.0
C329 C 0.73623 0.41076 0.19614 0.0
C330 C 0.69503 0.413 0.18865 0.0
C331 C 0.70306 0.45176 0.19939 0.0
C332 C 0.7485 0.48611 0.21873 0.0
C333 C 0.75575 0.52849 0.22186 0.0
C334 C 0.74277 0.53797 0.25116 0.0
C335 C 0.81416 0.56928 0.21644 0.0
C336 C 0.71172 0.51445 0.19882 0.0
C337 C 0.67961 0.46946 0.18725 0.0
C338 C 0.64076 0.4505 0.16342 0.0
C339 C 0.63642 0.47851 0.15042 0.0
C340 C 0.6724 0.52548 0.16052 0.0
C341 C 0.70848 0.54282 0.18585 0.0
H342 H 0.48176 0.92672 0.43463 0.0
H343 H 0.56769 0.93351 0.50969 0.0
H344 H 0.49086 0.85357 0.51017 0.0
H345 H 0.34278 0.84939 0.45461 0.0
H346 H 0.31168 0.81929 0.41892 0.0
H347 H 0.37271 0.87775 0.42487 0.0
H348 H 0.42284 0.85858 0.39308 0.0
H349 H 0.36205 0.80007 0.38711 0.0
H350 H 0.42745 0.81727 0.40118 0.0
H351 H 0.40645 0.7725 0.50203 0.0
H352 H 0.31969 0.69527 0.48555 0.0
H353 H 0.28684 0.74013 0.41613 0.0
C354 C 0.4842 0.91149 0.45129 0.0
C355 C 0.53091 0.93661 0.47214 0.0
C356 C 0.53255 0.91518 0.49344 0.0
C357 C 0.489 0.86968 0.49395 0.0
C358 C 0.44386 0.84584 0.47304 0.0
C359 C 0.44098 0.86588 0.45211 0.0
C360 C 0.38809 0.83213 0.4318 0.0
C361 C 0.35166 0.84544 0.43261 0.0
C362 C 0.4009 0.8267 0.4015 0.0
C363 C 0.36207 0.79004 0.4445 0.0
C364 C 0.39488 0.79881 0.46834 0.0
C365 C 0.38013 0.76526 0.48352 0.0
C366 C 0.33052 0.72149 0.47408 0.0
C367 C 0.29605 0.7115 0.44965 0.0
C368 C 0.31231 0.7465 0.43478 0.0
H369 H 0.58419 0.29215 0.78324 0.0
H370 H 0.63676 0.31829 0.87308 0.0
H371 H 0.65227 0.2637 0.8647 0.0
H372 H 0.51004 0.17493 0.77269 0.0
H373 H 0.52936 0.17201 0.73782 0.0
H374 H 0.52557 0.21496 0.75073 0.0
H375 H 0.62697 0.27617 0.74168 0.0
H376 H 0.63107 0.23335 0.72875 0.0
H377 H 0.68069 0.27794 0.75743 0.0
H378 H 0.65956 0.20479 0.84657 0.0
H379 H 0.65589 0.14452 0.82028 0.0
H380 H 0.59617 0.15591 0.74257 0.0
C381 C 0.59975 0.28685 0.80107 0.0
C382 C 0.6095 0.30948 0.82879 0.0
C383 C 0.62874 0.30103 0.8517 0.0
C384 C 0.63795 0.27033 0.84712 0.0
C385 C 0.62756 0.24834 0.81953 0.0
C386 C 0.60879 0.25616 0.7969 0.0
C387 C 0.59845 0.22671 0.76955 0.0
C388 C 0.53722 0.19529 0.75697 0.0
C389 C 0.63658 0.25526 0.74809 0.0
C390 C 0.61395 0.20087 0.78034 0.0
C391 C 0.63099 0.21402 0.80918 0.0
C392 C 0.64632 0.19423 0.82397 0.0
C393 C 0.64376 0.15985 0.8089 0.0
C394 C 0.62571 0.14545 0.77937 0.0
C395 C 0.611 0.1666 0.76501 0.0
H396 H 0.66038 0.84481 0.49434 0.0
H397 H 0.82641 0.92916 0.53915 0.0
H398 H 0.81606 0.86172 0.54165 0.0
H399 H 0.60014 0.75451 0.53491 0.0
H400 H 0.55492 0.7114 0.50468 0.0
H401 H 0.57581 0.76646 0.50643 0.0
H402 H 0.61321 0.77247 0.45793 0.0
H403 H 0.59263 0.71753 0.45606 0.0
H404 H 0.66339 0.7649 0.45329 0.0
H405 H 0.78762 0.784 0.53824 0.0
H406 H 0.74359 0.70361 0.52916 0.0
H407 H 0.59459 0.67094 0.48947 0.0
C408 C 0.69443 0.8493 0.50506 0.0
C409 C 0.74434 0.89265 0.51647 0.0
C410 C 0.78806 0.89658 0.52979 0.0
C411 C 0.78243 0.85836 0.53153 0.0
C412 C 0.73268 0.81625 0.52004 0.0
C413 C 0.68938 0.81157 0.50719 0.0
C414 C 0.64025 0.76269 0.4964 0.0
C415 C 0.58981 0.7479 0.51151 0.0
C416 C 0.6266 0.7539 0.464 0.0
C417 C 0.66278 0.74056 0.50492 0.0
C418 C 0.71612 0.77188 0.51856 0.0
C419 C 0.74567 0.75917 0.52776 0.0
C420 C 0.72017 0.71333 0.52267 0.0
C421 C 0.66556 0.68064 0.5085 0.0
C422 C 0.63664 0.69485 0.49993 0.0
H423 H 0.85172 0.61983 0.87262 0.0
H424 H 0.74795 0.5042 0.80557 0.0
H425 H 0.82146 0.49851 0.80285 0.0
H426 H 0.98583 0.66828 0.84857 0.0
H427 H 1.02043 0.68341 0.88374 0.0
H428 H 0.96194 0.68108 0.87875 0.0
H429 H 0.91245 0.62515 0.91387 0.0
H430 H 0.97088 0.62751 0.91906 0.0
H431 H 0.90278 0.57419 0.9078 0.0
H432 H 0.90802 0.50603 0.80713 0.0
H433 H 0.99346 0.51934 0.8225 0.0
H434 H 1.03772 0.62515 0.88991 0.0
C435 C 0.84494 0.59377 0.85711 0.0
C436 C 0.79435 0.56295 0.83887 0.0
C437 C 0.78644 0.52844 0.81951 0.0
C438 C 0.82813 0.52504 0.81777 0.0
C439 C 0.8775 0.55581 0.836 0.0
C440 C 0.88567 0.58904 0.85569 0.0
C441 C 0.9405 0.6153 0.87448 0.0
C442 C 0.97948 0.66497 0.87118 0.0
C443 C 0.93108 0.61022 0.90565 0.0
C444 C 0.96198 0.59192 0.86223 0.0
C445 C 0.92549 0.55821 0.8397 0.0
C446 C 0.9367 0.53228 0.82482 0.0
C447 C 0.98561 0.54027 0.83355 0.0
C448 C 1.02259 0.57337 0.8573 0.0
C449 C 1.01047 0.59969 0.87159 0.0
H450 H 0.29854 0.67211 0.15473 0.0
H451 H 0.16814 0.68035 0.15397 0.0
H452 H 0.23722 0.76209 0.1545 0.0
H453 H 0.39387 0.77256 0.20463 0.0
H454 H 0.45341 0.78715 0.1885 0.0
H455 H 0.39173 0.72924 0.18496 0.0
H456 H 0.38943 0.72288 0.12921 0.0
H457 H 0.45161 0.78099 0.13447 0.0
H458 H 0.39106 0.76246 0.11273 0.0
H459 H 0.32036 0.84311 0.157 0.0
H460 H 0.41226 0.91886 0.16766 0.0
H461 H 0.48964 0.85936 0.17059 0.0
C462 C 0.28464 0.69115 0.15422 0.0
C463 C 0.22809 0.67006 0.15406 0.0
C464 C 0.21136 0.69602 0.15408 0.0
C465 C 0.25021 0.74236 0.15416 0.0
C466 C 0.30579 0.76236 0.15459 0.0
C467 C 0.32312 0.73774 0.15502 0.0
C468 C 0.3857 0.76813 0.15846 0.0
C469 C 0.40748 0.76403 0.18575 0.0
C470 C 0.40569 0.75804 0.13217 0.0
C471 C 0.40083 0.81371 0.16058 0.0
C472 C 0.35406 0.80949 0.1575 0.0
C473 C 0.3573 0.84685 0.15927 0.0
C474 C 0.40964 0.88972 0.16515 0.0
C475 C 0.45791 0.89487 0.16974 0.0
C476 C 0.45336 0.8563 0.16694 0.0
H477 H 0.63138 0.29637 0.46259 0.0
H478 H 0.50826 0.20151 0.51286 0.0
H479 H 0.50117 0.25775 0.53459 0.0
H480 H 0.70088 0.39314 0.51639 0.0
H481 H 0.71434 0.43072 0.49283 0.0
H482 H 0.70771 0.38229 0.47975 0.0
H483 H 0.63027 0.35575 0.44063 0.0
H484 H 0.63672 0.40418 0.45358 0.0
H485 H 0.57057 0.34861 0.45047 0.0
H486 H 0.50951 0.3242 0.55232 0.0
H487 H 0.53353 0.39785 0.56559 0.0
H488 H 0.65191 0.45144 0.50444 0.0
C489 C 0.60238 0.28731 0.47786 0.0
C490 C 0.57043 0.24451 0.48608 0.0
C491 C 0.53357 0.23417 0.50646 0.0
C492 C 0.52899 0.26581 0.51881 0.0
C493 C 0.5615 0.30778 0.51057 0.0
C494 C 0.59747 0.31872 0.49057 0.0
C495 C 0.62919 0.36703 0.48647 0.0
C496 C 0.69173 0.39493 0.49434 0.0
C497 C 0.61587 0.36899 0.45597 0.0
C498 C 0.60581 0.38155 0.50753 0.0
C499 C 0.5666 0.34663 0.52102 0.0
C500 C 0.54005 0.35179 0.54187 0.0
C501 C 0.55423 0.39386 0.54937 0.0
C502 C 0.59484 0.43052 0.53621 0.0
C503 C 0.62042 0.42399 0.51471 0.0
H504 H 0.55641 0.62604 0.83468 0.0
H505 H 0.45973 0.49245 0.85605 0.0
H506 H 0.37947 0.489 0.85874 0.0
H507 H 0.49775 0.66355 0.88073 0.0
H508 H 0.49735 0.69467 0.85611 0.0
H509 H 0.5482 0.68744 0.856 0.0
H510 H 0.51751 0.65298 0.80279 0.0
H511 H 0.46679 0.66032 0.80263 0.0
H512 H 0.44578 0.60554 0.7908 0.0
H513 H 0.30738 0.49882 0.85834 0.0
H514 H 0.2501 0.52084 0.85363 0.0
H515 H 0.39295 0.64901 0.83431 0.0
C516 C 0.51843 0.59607 0.83998 0.0
C517 C 0.51507 0.5595 0.84515 0.0
C518 C 0.4641 0.52104 0.85197 0.0
C519 C 0.41792 0.5187 0.8536 0.0
C520 C 0.42256 0.55511 0.84844 0.0
C521 C 0.47153 0.59315 0.84176 0.0
C522 C 0.46499 0.62736 0.83694 0.0
C523 C 0.50442 0.67082 0.85875 0.0
C524 C 0.4743 0.6371 0.80648 0.0
C525 C 0.40476 0.60241 0.84173 0.0
C526 C 0.3811 0.56085 0.84842 0.0
C527 C 0.32568 0.53147 0.85325 0.0
C528 C 0.29337 0.54448 0.85077 0.0
C529 C 0.3161 0.58669 0.84348 0.0
C530 C 0.37321 0.61612 0.83942 0.0
H531 H 0.92022 0.39504 0.16419 0.0
H532 H 1.01398 0.35978 0.12595 0.0
H533 H 0.93545 0.27936 0.12673 0.0
H534 H 0.85545 0.31421 0.21061 0.0
H535 H 0.79088 0.30329 0.20579 0.0
H536 H 0.85466 0.35753 0.20252 0.0
H537 H 0.81583 0.35058 0.15225 0.0
H538 H 0.75169 0.29652 0.15533 0.0
H539 H 0.7893 0.30221 0.12585 0.0
H540 H 0.84481 0.20193 0.13242 0.0
H541 H 0.74962 0.13567 0.13873 0.0
H542 H 0.7177 0.22401 0.17264 0.0
C543 C 0.92468 0.37061 0.15603 0.0
C544 C 0.97356 0.38383 0.14513 0.0
C545 C 0.97697 0.35048 0.13437 0.0
C546 C 0.93266 0.30477 0.13487 0.0
C547 C 0.88524 0.29307 0.14604 0.0
C548 C 0.88105 0.32522 0.15619 0.0
C549 C 0.82545 0.30445 0.1663 0.0
C550 C 0.83204 0.32085 0.1982 0.0
C551 C 0.79371 0.314 0.14888 0.0
C552 C 0.79855 0.25534 0.16023 0.0
C553 C 0.83363 0.24925 0.14879 0.0
C554 C 0.81715 0.20644 0.14137 0.0
C555 C 0.76317 0.16902 0.1452 0.0
C556 C 0.72621 0.17466 0.15608 0.0
C557 C 0.7448 0.21855 0.16405 0.0
H558 H 1.06796 0.58148 0.07314 0.0
H559 H 1.07172 0.47285 0.07307 0.0
H560 H 1.09004 0.47514 0.02313 0.0
H561 H 0.99719 0.54305 0.00177 0.0
H562 H 1.03496 0.59889 0.99393 0.0
H563 H 1.02344 0.5894 0.02992 0.0
H564 H 0.12902 0.649 0.04565 0.0
H565 H 0.14089 0.65839 0.00965 0.0
H566 H 0.17487 0.6431 0.02849 0.0
H567 H 0.11051 0.49048 0.97366 0.0
H568 H 0.12197 0.51248 0.92635 0.0
H569 H 0.10091 0.60884 0.95751 0.0
C570 C 1.0724 0.55809 0.06252 0.0
C571 C 1.06918 0.52737 0.07704 0.0
C572 C 1.07472 0.49701 0.06242 0.0
C573 C 1.08521 0.49809 0.03407 0.0
C574 C 1.08922 0.52931 0.02047 0.0
C575 C 1.08222 0.55833 0.03403 0.0
C576 C 1.08678 0.58758 0.01418 0.0
C577 C 1.03235 0.57921 0.00968 0.0
C578 C 0.13581 0.63748 0.02515 0.0
C579 C 1.09733 0.57038 0.98739 0.0
C580 C 1.09925 0.53715 0.9916 0.0
C581 C 0.10895 0.51638 0.97007 0.0
C582 C 0.1158 0.5293 0.94334 0.0
C583 C 0.11236 0.56233 0.93828 0.0
C584 C 0.10348 0.58334 0.96075 0.0
H585 H 0.65104 0.07085 0.38864 0.0
H586 H 0.65887 0.96524 0.39368 0.0
H587 H 0.64645 0.94755 0.34142 0.0
H588 H 0.54474 1.01071 0.329 0.0
H589 H 0.57316 0.05984 0.31338 0.0
H590 H 0.58471 0.06517 0.3512 0.0
H591 H 0.69043 0.12319 0.34967 0.0
H592 H 0.67921 0.11756 0.31176 0.0
H593 H 0.72292 0.10815 0.32683 0.0
H594 H 0.6332 0.94105 0.28901 0.0
H595 H 0.61031 0.94092 0.23942 0.0
H596 H 0.60844 0.04928 0.26785 0.0
C597 C 0.65014 0.04404 0.37867 0.0
C598 C 0.65628 0.01957 0.39511 0.0
C599 C 0.6544 0.98446 0.38143 0.0
C600 C 0.64767 0.97433 0.35178 0.0
C601 C 0.64258 0.99947 0.33613 0.0
C602 C 0.64303 0.03323 0.34902 0.0
C603 C 0.63415 0.05367 0.32714 0.0
C604 C 0.58103 0.04692 0.33037 0.0
C605 C 0.6847 0.10361 0.32897 0.0
C606 C 0.62829 0.02588 0.29998 0.0
C607 C 0.63393 0.99518 0.30571 0.0
C608 C 0.62872 0.96494 0.28422 0.0
C609 C 0.61575 0.96512 0.25615 0.0
C610 C 0.60774 0.99513 0.24979 0.0
C611 C 0.61533 0.02653 0.27201 0.0
H612 H 0.55466 0.49215 0.74146 0.0
H613 H 0.72455 0.61012 0.77169 0.0
H614 H 0.74035 0.62615 0.72278 0.0
H615 H 0.5857 0.45708 0.68012 0.0
H616 H 0.52359 0.4352 0.6583 0.0
H617 H 0.52389 0.43689 0.69602 0.0
H618 H 0.4909 0.48298 0.69872 0.0
H619 H 0.49069 0.48155 0.66094 0.0
H620 H 0.53013 0.53462 0.68471 0.0
H621 H 0.7383 0.62693 0.66977 0.0
H622 H 0.72141 0.60803 0.61717 0.0
H623 H 0.55536 0.48653 0.62195 0.0
C624 C 0.59492 0.52183 0.73788 0.0
C625 C 0.63806 0.55057 0.76045 0.0
C626 C 0.69056 0.58836 0.75481 0.0
C627 C 0.69991 0.59763 0.72708 0.0
C628 C 0.65647 0.56844 0.70523 0.0
C629 C 0.60517 0.53102 0.71033 0.0
C630 C 0.567 0.50243 0.683 0.0
C631 C 0.54902 0.45512 0.67914 0.0
C632 C 0.51671 0.50029 0.68178 0.0
C633 C 0.60501 0.52914 0.66163 0.0
C634 C 0.65611 0.56762 0.67481 0.0
C635 C 0.69836 0.59701 0.65925 0.0
C636 C 0.68844 0.5862 0.62948 0.0
C637 C 0.63714 0.54603 0.61578 0.0
C638 C 0.59481 0.5176 0.63207 0.0
H639 H 0.57135 0.05089 0.55535 0.0
H640 H 0.74647 0.12514 0.55128 0.0
H641 H 0.75992 0.12523 0.60244 0.0
H642 H 0.58525 0.10795 0.62299 0.0
H643 H 0.52437 0.05868 0.63384 0.0
H644 H 0.52872 0.06282 0.5968 0.0
H645 H 0.51011 0.9876 0.58629 0.0
H646 H 0.50598 0.98332 0.62336 0.0
H647 H 0.55407 0.98139 0.60517 0.0
H648 H 0.75445 0.12032 0.6547 0.0
H649 H 0.73034 0.11121 0.70389 0.0
H650 H 0.55893 0.03944 0.67316 0.0
C651 C 0.61248 0.06699 0.56522 0.0
C652 C 0.65789 0.0878 0.54948 0.0
C653 C 0.71112 0.10869 0.56304 0.0
C654 C 0.7191 0.1089 0.59203 0.0
C655 C 0.67335 0.08798 0.607 0.0
C656 C 0.62108 0.06741 0.59403 0.0
C657 C 0.57902 0.04851 0.61493 0.0
C658 C 0.55282 0.07083 0.61727 0.0
C659 C 0.53468 0.99715 0.60696 0.0
C660 C 0.61581 0.06207 0.64182 0.0
C661 C 0.67009 0.08469 0.63684 0.0
C662 C 0.71201 0.10221 0.65877 0.0
C663 C 0.69808 0.09686 0.68652 0.0
C664 C 0.64285 0.07406 0.69186 0.0
C665 C 0.60125 0.0562 0.66929 0.0
H666 H 0.75634 0.62917 0.94121 0.0
H667 H 0.58661 0.51234 0.90935 0.0
H668 H 0.56969 0.49354 0.95762 0.0
H669 H 0.77881 0.58177 -0.00481 0.0
H670 H 0.81881 0.63363 0.02023 0.0
H671 H 0.81899 0.63469 0.9827 0.0
H672 H 0.78759 0.68195 0.98809 0.0
H673 H 0.78723 0.68098 0.02556 0.0
H674 H 0.72572 0.66114 0.00413 0.0
H675 H 0.57047 0.48996 0.01005 0.0
H676 H 0.58718 0.50472 0.06259 0.0
H677 H 0.75492 0.62587 0.0598 0.0
C678 C 0.71588 0.59922 0.94432 0.0
C679 C 0.67295 0.5718 0.92159 0.0
C680 C 0.62022 0.53341 0.9265 0.0
C681 C 0.61028 0.52248 0.95381 0.0
C682 C 0.65343 0.55053 0.9759 0.0
C683 C 0.7051 0.58825 0.97144 0.0
C684 C 0.74315 0.61493 -0.00101 0.0
C685 C 0.79287 0.61632 -0.00071 0.0
C686 C 0.762 0.66255 0.00451 0.0
C687 C 0.7046 0.58681 0.01974 0.0
C688 C 0.6533 0.54939 0.00604 0.0
C689 C 0.61058 0.51902 0.02098 0.0
C690 C 0.6204 0.52754 0.05073 0.0
C691 C 0.67219 0.56644 0.06507 0.0
C692 C 0.71486 0.596 0.04929 0.0
H693 H 0.16229 0.59159 0.23223 0.0
H694 H 0.13396 0.46694 0.22476 0.0
H695 H 0.13509 0.47113 0.2767 0.0
H696 H 0.25755 0.64619 0.29539 0.0
H697 H 0.23328 0.67445 0.31053 0.0
H698 H 0.22665 0.66028 0.27259 0.0
H699 H 0.12119 0.61657 0.26953 0.0
H700 H 0.12744 0.63062 0.30749 0.0
H701 H 1.08 0.5727 0.29026 0.0
H702 H 0.14101 0.48923 0.32903 0.0
H703 H 0.15617 0.52212 0.37923 0.0
H704 H 0.1837 0.63654 0.35348 0.0
C705 C 0.15593 0.56508 0.24159 0.0
C706 C 0.14786 0.52884 0.22463 0.0
C707 C 0.14025 0.49497 0.23749 0.0
C708 C 0.14061 0.49698 0.26691 0.0
C709 C 0.14895 0.53323 0.28313 0.0
C710 C 0.15676 0.56682 0.27102 0.0
C711 C 0.16732 0.60306 0.2935 0.0
C712 C 0.22461 0.64869 0.29296 0.0
C713 C 0.12124 0.60589 0.28999 0.0
C714 C 0.1651 0.5849 0.32013 0.0
C715 C 0.15367 0.54427 0.31357 0.0
C716 C 0.14977 0.52093 0.33446 0.0
C717 C 0.1582 0.53978 0.36289 0.0
C718 C 0.17089 0.58175 0.37021 0.0
C719 C 0.17422 0.60448 0.34847 0.0
loop_
_geom_bond_atom_site_label_1
_geom_bond_atom_site_label_2
_geom_bond_distance
_geom_bond_site_symmetry_2
_ccdc_geom_bond_type
Ho0 C3 2.811 . S
Ho0 O20 2.322 . S
Ho0 O22 2.378 . S
Ho0 O23 2.524 . S
Ho0 O24 2.381 . S
Ho0 O25 2.669 . S
Ho0 O27 2.346 1_455 S
Ho0 O31 2.305 . S
Ho1 C12 2.811 1_455 S
Ho1 O21 2.346 . S
Ho1 O25 2.305 . S
Ho1 O26 2.322 1_455 S
Ho1 O28 2.378 1_455 S
Ho1 O29 2.524 1_455 S
Ho1 O30 2.381 . S
Ho1 O31 2.669 . S
C2 O20 1.259 . S
C2 O21 1.268 . S
C3 Ho0 2.811 . S
C3 C4 1.488 . S
C3 O22 1.215 . S
C3 O23 1.289 . S
C4 C3 1.488 . S
C4 C5 1.348 . S
C4 C9 1.413 . S
C5 C4 1.348 . S
C5 C6 1.442 . S
C5 H32 0.930 . S
C6 C5 1.442 . S
C6 C7 1.381 . S
C6 H33 0.931 . S
C7 C6 1.381 . S
C7 C8 1.321 . S
C8 C7 1.321 . S
C8 C9 1.403 . S
C8 H34 0.934 . S
C9 C4 1.413 . S
C9 C8 1.403 . S
C9 H35 0.930 . S
C10 O24 1.275 . S
C10 O25 1.256 . S
C11 O26 1.259 . S
C11 O27 1.268 . S
C12 Ho1 2.811 1_655 S
C12 C13 1.488 . S
C12 O28 1.215 . S
C12 O29 1.289 . S
C13 C12 1.488 . S
C13 C14 1.348 . S
C13 C18 1.413 . S
C14 C13 1.348 . S
C14 C15 1.442 . S
C14 H36 0.930 . S
C15 C14 1.442 . S
C15 C16 1.381 . S
C15 H37 0.931 . S
C16 C15 1.381 . S
C16 C17 1.321 . S
C17 C16 1.321 . S
C17 C18 1.403 . S
C17 H38 0.934 . S
C18 C13 1.413 . S
C18 C17 1.403 . S
C18 H39 0.930 . S
C19 O30 1.275 . S
C19 O31 1.256 . S
O20 Ho0 2.322 . S
O20 C2 1.259 . S
O21 Ho1 2.346 . S
O21 C2 1.268 . S
O22 Ho0 2.378 . S
O22 C3 1.215 . S
O23 Ho0 2.524 . S
O23 C3 1.289 . S
O24 Ho0 2.381 . S
O24 C10 1.275 . S
O25 Ho0 2.669 . S
O25 Ho1 2.305 . S
O25 C10 1.256 . S
O26 Ho1 2.322 1_655 S
O26 C11 1.259 . S
O27 Ho0 2.346 1_655 S
O27 C11 1.268 . S
O28 Ho1 2.378 1_655 S
O28 C12 1.215 . S
O29 Ho1 2.524 1_655 S
O29 C12 1.289 . S
O30 Ho1 2.381 . S
O30 C19 1.275 . S
O31 Ho0 2.305 . S
O31 Ho1 2.669 . S
O31 C19 1.256 . S
H32 C5 0.930 . S
H33 C6 0.931 . S
H34 C8 0.934 . S
H35 C9 0.930 . S
H36 C14 0.930 . S
H37 C15 0.931 . S
H38 C17 0.934 . S
H39 C18 0.930 . S
Ho40 C43 2.811 1_545 S
Ho40 O60 2.322 1_545 S
Ho40 O62 2.378 1_545 S
Ho40 O63 2.524 1_545 S
Ho40 O64 2.381 . S
Ho40 O65 2.669 . S
Ho40 O67 2.346 . S
Ho40 O71 2.305 . S
Ho41 C52 2.811 . S
Ho41 O61 2.346 1_545 S
Ho41 O65 2.305 . S
Ho41 O66 2.322 . S
Ho41 O68 2.378 . S
Ho41 O69 2.524 . S
Ho41 O70 2.381 . S
Ho41 O71 2.669 . S
C42 O60 1.259 . S
C42 O61 1.268 . S
C43 Ho40 2.811 1_565 S
C43 C44 1.488 . S
C43 O62 1.215 . S
C43 O63 1.289 . S
C44 C43 1.488 . S
C44 C45 1.348 . S
C44 C49 1.413 . S
C45 C44 1.348 . S
C45 C46 1.442 . S
C45 H72 0.930 . S
C46 C45 1.442 . S
C46 C47 1.381 . S
C46 H73 0.931 . S
C47 C46 1.381 . S
C47 C48 1.321 . S
C48 C47 1.321 . S
C48 C49 1.403 . S
C48 H74 0.934 . S
C49 C44 1.413 . S
C49 C48 1.403 . S
C49 H75 0.930 . S
C50 O64 1.275 . S
C50 O65 1.256 . S
C51 O66 1.259 . S
C51 O67 1.268 . S
C52 Ho41 2.811 . S
C52 C53 1.488 . S
C52 O68 1.215 . S
C52 O69 1.289 . S
C53 C52 1.488 . S
C53 C54 1.348 . S
C53 C58 1.413 . S
C54 C53 1.348 . S
C54 C55 1.442 . S
C54 H76 0.930 . S
C55 C54 1.442 . S
C55 C56 1.381 . S
C55 H77 0.931 . S
C56 C55 1.381 . S
C56 C57 1.321 . S
C57 C56 1.321 . S
C57 C58 1.403 . S
C57 H78 0.934 . S
C58 C53 1.413 . S
C58 C57 1.403 . S
C58 H79 0.930 . S
C59 O70 1.275 . S
C59 O71 1.256 . S
O60 Ho40 2.322 1_565 S
O60 C42 1.259 . S
O61 Ho41 2.346 1_565 S
O61 C42 1.268 . S
O62 Ho40 2.378 1_565 S
O62 C43 1.215 . S
O63 Ho40 2.524 1_565 S
O63 C43 1.289 . S
O64 Ho40 2.381 . S
O64 C50 1.275 . S
O65 Ho40 2.669 . S
O65 Ho41 2.305 . S
O65 C50 1.256 . S
O66 Ho41 2.322 . S
O66 C51 1.259 . S
O67 Ho40 2.346 . S
O67 C51 1.268 . S
O68 Ho41 2.378 . S
O68 C52 1.215 . S
O69 Ho41 2.524 . S
O69 C52 1.289 . S
O70 Ho41 2.381 . S
O70 C59 1.275 . S
O71 Ho40 2.305 . S
O71 Ho41 2.669 . S
O71 C59 1.256 . S
H72 C45 0.930 . S
H73 C46 0.931 . S
H74 C48 0.934 . S
H75 C49 0.930 . S
H76 C54 0.930 . S
H77 C55 0.931 . S
H78 C57 0.934 . S
H79 C58 0.930 . S
Ho80 C83 2.811 . S
Ho80 O100 2.322 . S
Ho80 O102 2.378 . S
Ho80 O103 2.524 . S
Ho80 O104 2.381 . S
Ho80 O105 2.669 . S
Ho80 O107 2.346 . S
Ho80 O111 2.305 . S
Ho81 C92 2.811 . S
Ho81 O101 2.346 . S
Ho81 O105 2.305 . S
Ho81 O106 2.322 . S
Ho81 O108 2.378 . S
Ho81 O109 2.524 . S
Ho81 O110 2.381 . S
Ho81 O111 2.669 . S
C82 O100 1.259 . S
C82 O101 1.268 . S
C83 Ho80 2.811 . S
C83 C84 1.488 . S
C83 O102 1.215 . S
C83 O103 1.289 . S
C84 C83 1.488 . S
C84 C85 1.348 . S
C84 C89 1.413 . S
C85 C84 1.348 . S
C85 C86 1.442 . S
C85 H112 0.930 . S
C86 C85 1.442 . S
C86 C87 1.381 . S
C86 H113 0.931 . S
C87 C86 1.381 . S
C87 C88 1.321 . S
C88 C87 1.321 . S
C88 C89 1.403 . S
C88 H114 0.934 . S
C89 C84 1.413 . S
C89 C88 1.403 . S
C89 H115 0.930 . S
C90 O104 1.275 . S
C90 O105 1.256 . S
C91 O106 1.259 . S
C91 O107 1.268 . S
C92 Ho81 2.811 . S
C92 C93 1.488 . S
C92 O108 1.215 . S
C92 O109 1.289 . S
C93 C92 1.488 . S
C93 C94 1.348 . S
C93 C98 1.413 . S
C94 C93 1.348 . S
C94 C95 1.442 . S
C94 H116 0.930 . S
C95 C94 1.442 . S
C95 C96 1.381 . S
C95 H117 0.931 . S
C96 C95 1.381 . S
C96 C97 1.321 . S
C97 C96 1.321 . S
C97 C98 1.403 . S
C97 H118 0.934 . S
C98 C93 1.413 . S
C98 C97 1.403 . S
C98 H119 0.930 . S
C99 O110 1.275 . S
C99 O111 1.256 . S
O100 Ho80 2.322 . S
O100 C82 1.259 . S
O101 Ho81 2.346 . S
O101 C82 1.268 . S
O102 Ho80 2.378 . S
O102 C83 1.215 . S
O103 Ho80 2.524 . S
O103 C83 1.289 . S
O104 Ho80 2.381 . S
O104 C90 1.275 . S
O105 Ho80 2.669 . S
O105 Ho81 2.305 . S
O105 C90 1.256 . S
O106 Ho81 2.322 . S
O106 C91 1.259 . S
O107 Ho80 2.346 . S
O107 C91 1.268 . S
O108 Ho81 2.378 . S
O108 C92 1.215 . S
O109 Ho81 2.524 . S
O109 C92 1.289 . S
O110 Ho81 2.381 . S
O110 C99 1.275 . S
O111 Ho80 2.305 . S
O111 Ho81 2.669 . S
O111 C99 1.256 . S
H112 C85 0.930 . S
H113 C86 0.931 . S
H114 C88 0.934 . S
H115 C89 0.930 . S
H116 C94 0.930 . S
H117 C95 0.931 . S
H118 C97 0.934 . S
H119 C98 0.930 . S
H120 C121 0.949 . S
C121 H120 0.949 . S
C121 C122 1.395 . S
C121 C123 1.391 . S
C122 C121 1.395 . S
C122 C125 1.390 1_545 S
C123 C121 1.391 . S
C123 C127 1.387 . S
C123 C128 1.491 . S
H124 C125 0.950 . S
C125 C122 1.390 1_565 S
C125 H124 0.950 . S
C125 C126 1.378 . S
C126 C125 1.378 . S
C126 C127 1.409 1_565 S
C127 C123 1.387 . S
C127 C126 1.409 1_545 S
C127 H129 0.951 . S
C128 C123 1.491 . S
C128 C130 1.382 . S
C128 C132 1.404 . S
H129 C127 0.951 . S
C130 C128 1.382 . S
C130 C131 1.390 . S
C130 H135 0.949 . S
C131 C130 1.390 . S
C131 C136 1.399 . S
C132 C128 1.404 . S
C132 H133 0.950 . S
C132 C134 1.375 . S
H133 C132 0.950 . S
C134 C132 1.375 . S
C134 C136 1.382 . S
C134 H138 0.950 . S
H135 C130 0.949 . S
C136 C131 1.399 . S
C136 C134 1.382 . S
C136 H137 0.952 . S
H137 C136 0.952 . S
H138 C134 0.950 . S
H139 C140 0.949 . S
C140 H139 0.949 . S
C140 C141 1.395 . S
C140 C142 1.391 . S
C141 C140 1.395 . S
C141 C144 1.390 . S
C142 C140 1.391 . S
C142 C146 1.387 . S
C142 C147 1.491 . S
H143 C144 0.950 . S
C144 C141 1.390 . S
C144 H143 0.950 . S
C144 C145 1.378 . S
C145 C144 1.378 . S
C145 C146 1.409 . S
C146 C142 1.387 . S
C146 C145 1.409 . S
C146 H148 0.951 . S
C147 C142 1.491 . S
C147 C149 1.382 . S
C147 C151 1.404 . S
H148 C146 0.951 . S
C149 C147 1.382 . S
C149 C150 1.390 . S
C149 H154 0.949 . S
C150 C149 1.390 . S
C150 C155 1.399 . S
C151 C147 1.404 . S
C151 H152 0.950 . S
C151 C153 1.375 . S
H152 C151 0.950 . S
C153 C151 1.375 . S
C153 C155 1.382 . S
C153 H157 0.950 . S
H154 C149 0.949 . S
C155 C150 1.399 . S
C155 C153 1.382 . S
C155 H156 0.952 . S
H156 C155 0.952 . S
H157 C153 0.950 . S
H158 C159 0.949 . S
C159 H158 0.949 . S
C159 C160 1.395 . S
C159 C161 1.391 . S
C160 C159 1.395 . S
C160 C163 1.390 . S
C161 C159 1.391 . S
C161 C165 1.387 . S
C161 C166 1.491 . S
H162 C163 0.950 1_655 S
C163 C160 1.390 . S
C163 H162 0.950 1_455 S
C163 C164 1.378 . S
C164 C163 1.378 . S
C164 C165 1.409 . S
C165 C161 1.387 . S
C165 C164 1.409 . S
C165 H167 0.951 . S
C166 C161 1.491 . S
C166 C168 1.382 . S
C166 C170 1.404 . S
H167 C165 0.951 . S
C168 C166 1.382 . S
C168 C169 1.390 . S
C168 H173 0.949 . S
C169 C168 1.390 . S
C169 C174 1.399 . S
C170 C166 1.404 . S
C170 H171 0.950 . S
C170 C172 1.375 . S
H171 C170 0.950 . S
C172 C170 1.375 . S
C172 C174 1.382 . S
C172 H176 0.950 . S
H173 C168 0.949 . S
C174 C169 1.399 . S
C174 C172 1.382 . S
C174 H175 0.952 . S
H175 C174 0.952 . S
H176 C172 0.950 . S
H177 C178 0.949 . S
C178 H177 0.949 . S
C178 C179 1.395 1_655 S
C178 C180 1.391 1_655 S
C179 C178 1.395 1_455 S
C179 C182 1.390 . S
C180 C178 1.391 1_455 S
C180 C184 1.387 . S
C180 C185 1.491 1_455 S
H181 C182 0.950 . S
C182 C179 1.390 . S
C182 H181 0.950 . S
C182 C183 1.378 . S
C183 C182 1.378 . S
C183 C184 1.409 . S
C184 C180 1.387 . S
C184 C183 1.409 . S
C184 H186 0.951 . S
C185 C180 1.491 1_655 S
C185 C187 1.382 . S
C185 C189 1.404 . S
H186 C184 0.951 . S
C187 C185 1.382 . S
C187 C188 1.390 . S
C187 H192 0.949 . S
C188 C187 1.390 . S
C188 C193 1.399 . S
C189 C185 1.404 . S
C189 H190 0.950 . S
C189 C191 1.375 . S
H190 C189 0.950 . S
C191 C189 1.375 . S
C191 C193 1.382 . S
C191 H195 0.950 . S
H192 C187 0.949 . S
C193 C188 1.399 . S
C193 C191 1.382 . S
C193 H194 0.952 . S
H194 C193 0.952 . S
H195 C191 0.950 . S
H196 C197 0.949 . S
C197 H196 0.949 . S
C197 C198 1.395 . S
C197 C199 1.391 . S
C198 C197 1.395 . S
C198 C201 1.390 . S
C199 C197 1.391 . S
C199 C203 1.387 . S
C199 C204 1.491 . S
H200 C201 0.950 . S
C201 C198 1.390 . S
C201 H200 0.950 . S
C201 C202 1.378 . S
C202 C201 1.378 . S
C202 C203 1.409 . S
C203 C199 1.387 . S
C203 C202 1.409 . S
C203 H205 0.951 . S
C204 C199 1.491 . S
C204 C206 1.382 1_545 S
C204 C208 1.404 1_545 S
H205 C203 0.951 . S
C206 C204 1.382 1_565 S
C206 C207 1.390 . S
C206 H211 0.949 . S
C207 C206 1.390 . S
C207 C212 1.399 . S
C208 C204 1.404 1_565 S
C208 H209 0.950 1_565 S
C208 C210 1.375 . S
H209 C208 0.950 1_545 S
C210 C208 1.375 . S
C210 C212 1.382 . S
C210 H214 0.950 . S
H211 C206 0.949 . S
C212 C207 1.399 . S
C212 C210 1.382 . S
C212 H213 0.952 . S
H213 C212 0.952 . S
H214 C210 0.950 . S
H215 C216 0.949 . S
C216 H215 0.949 . S
C216 C217 1.395 . S
C216 C218 1.391 . S
C217 C216 1.395 . S
C217 C220 1.390 . S
C218 C216 1.391 . S
C218 C222 1.387 . S
C218 C223 1.491 . S
H219 C220 0.950 . S
C220 C217 1.390 . S
C220 H219 0.950 . S
C220 C221 1.378 . S
C221 C220 1.378 . S
C221 C222 1.409 . S
C222 C218 1.387 . S
C222 C221 1.409 . S
C222 H224 0.951 . S
C223 C218 1.491 . S
C223 C225 1.382 . S
C223 C227 1.404 . S
H224 C222 0.951 . S
C225 C223 1.382 . S
C225 C226 1.390 . S
C225 H230 0.949 . S
C226 C225 1.390 . S
C226 C231 1.399 . S
C227 C223 1.404 . S
C227 H228 0.950 . S
C227 C229 1.375 . S
H228 C227 0.950 . S
C229 C227 1.375 . S
C229 C231 1.382 . S
C229 H233 0.950 . S
H230 C225 0.949 . S
C231 C226 1.399 . S
C231 C229 1.382 . S
C231 H232 0.952 . S
H232 C231 0.952 . S
H233 C229 0.950 . S
H234 C246 0.930 . S
H235 C248 0.930 . S
H236 C249 0.930 . S
H237 C253 0.959 . S
H238 C253 0.959 . S
H239 C253 0.961 . S
H240 C254 0.960 . S
H241 C254 0.961 . S
H242 C254 0.959 . S
H243 C257 0.929 . S
H244 C258 0.931 . S
H245 C260 0.930 . S
C246 H234 0.930 . S
C246 C247 1.399 . S
C246 C251 1.399 . S
C247 C246 1.399 . S
C247 C248 1.376 . S
C248 H235 0.930 . S
C248 C247 1.376 . S
C248 C249 1.388 . S
C249 H236 0.930 . S
C249 C248 1.388 . S
C249 C250 1.390 . S
C250 C249 1.390 . S
C250 C251 1.394 . S
C250 C256 1.465 . S
C251 C246 1.399 . S
C251 C250 1.394 . S
C251 C252 1.516 . S
C252 C251 1.516 . S
C252 C253 1.502 . S
C252 C254 1.561 . S
C252 C255 1.526 . S
C253 H237 0.959 . S
C253 H238 0.959 . S
C253 H239 0.961 . S
C253 C252 1.502 . S
C254 H240 0.960 . S
C254 H241 0.961 . S
C254 H242 0.959 . S
C254 C252 1.561 . S
C255 C252 1.526 . S
C255 C256 1.396 . S
C255 C260 1.390 . S
C256 C250 1.465 . S
C256 C255 1.396 . S
C256 C257 1.399 . S
C257 H243 0.929 . S
C257 C256 1.399 . S
C257 C258 1.385 . S
C258 H244 0.931 . S
C258 C257 1.385 . S
C258 C259 1.389 . S
C259 C258 1.389 . S
C259 C260 1.387 . S
C260 H245 0.930 . S
C260 C255 1.390 . S
C260 C259 1.387 . S
H261 C273 0.930 . S
H262 C275 0.930 . S
H263 C276 0.930 . S
H264 C280 0.959 . S
H265 C280 0.959 . S
H266 C280 0.961 . S
H267 C281 0.960 . S
H268 C281 0.961 . S
H269 C281 0.959 . S
H270 C284 0.929 . S
H271 C285 0.931 . S
H272 C287 0.930 . S
C273 H261 0.930 . S
C273 C274 1.399 . S
C273 C278 1.399 . S
C274 C273 1.399 . S
C274 C275 1.376 . S
C275 H262 0.930 . S
C275 C274 1.376 . S
C275 C276 1.388 . S
C276 H263 0.930 . S
C276 C275 1.388 . S
C276 C277 1.390 . S
C277 C276 1.390 . S
C277 C278 1.394 . S
C277 C283 1.465 . S
C278 C273 1.399 . S
C278 C277 1.394 . S
C278 C279 1.516 . S
C279 C278 1.516 . S
C279 C280 1.502 . S
C279 C281 1.561 . S
C279 C282 1.526 . S
C280 H264 0.959 . S
C280 H265 0.959 . S
C280 H266 0.961 . S
C280 C279 1.502 . S
C281 H267 0.960 . S
C281 H268 0.961 . S
C281 H269 0.959 . S
C281 C279 1.561 . S
C282 C279 1.526 . S
C282 C283 1.396 . S
C282 C287 1.390 . S
C283 C277 1.465 . S
C283 C282 1.396 . S
C283 C284 1.399 . S
C284 H270 0.929 . S
C284 C283 1.399 . S
C284 C285 1.385 . S
C285 H271 0.931 . S
C285 C284 1.385 . S
C285 C286 1.389 . S
C286 C285 1.389 . S
C286 C287 1.387 . S
C287 H272 0.930 . S
C287 C282 1.390 . S
C287 C286 1.387 . S
H288 C300 0.930 . S
H289 C302 0.930 . S
H290 C303 0.930 . S
H291 C307 0.959 . S
H292 C307 0.959 . S
H293 C307 0.961 . S
H294 C308 0.960 . S
H295 C308 0.961 . S
H296 C308 0.959 . S
H297 C311 0.929 . S
H298 C312 0.931 . S
H299 C314 0.930 . S
C300 H288 0.930 . S
C300 C301 1.399 . S
C300 C305 1.399 . S
C301 C300 1.399 . S
C301 C302 1.376 . S
C302 H289 0.930 . S
C302 C301 1.376 . S
C302 C303 1.388 . S
C303 H290 0.930 . S
C303 C302 1.388 . S
C303 C304 1.390 . S
C304 C303 1.390 . S
C304 C305 1.394 . S
C304 C310 1.465 . S
C305 C300 1.399 . S
C305 C304 1.394 . S
C305 C306 1.516 . S
C306 C305 1.516 . S
C306 C307 1.502 . S
C306 C308 1.561 . S
C306 C309 1.526 . S
C307 H291 0.959 . S
C307 H292 0.959 . S
C307 H293 0.961 . S
C307 C306 1.502 . S
C308 H294 0.960 . S
C308 H295 0.961 . S
C308 H296 0.959 . S
C308 C306 1.561 . S
C309 C306 1.526 . S
C309 C310 1.396 . S
C309 C314 1.390 . S
C310 C304 1.465 . S
C310 C309 1.396 . S
C310 C311 1.399 . S
C311 H297 0.929 . S
C311 C310 1.399 . S
C311 C312 1.385 . S
C312 H298 0.931 . S
C312 C311 1.385 . S
C312 C313 1.389 . S
C313 C312 1.389 . S
C313 C314 1.387 . S
C314 H299 0.930 . S
C314 C309 1.390 . S
C314 C313 1.387 . S
H315 C327 0.930 . S
H316 C329 0.930 . S
H317 C330 0.930 . S
H318 C334 0.959 . S
H319 C334 0.959 . S
H320 C334 0.961 . S
H321 C335 0.960 . S
H322 C335 0.961 . S
H323 C335 0.959 . S
H324 C338 0.929 . S
H325 C339 0.931 . S
H326 C341 0.930 . S
C327 H315 0.930 . S
C327 C328 1.399 . S
C327 C332 1.399 . S
C328 C327 1.399 . S
C328 C329 1.376 . S
C329 H316 0.930 . S
C329 C328 1.376 . S
C329 C330 1.388 . S
C330 H317 0.930 . S
C330 C329 1.388 . S
C330 C331 1.390 . S
C331 C330 1.390 . S
C331 C332 1.394 . S
C331 C337 1.465 . S
C332 C327 1.399 . S
C332 C331 1.394 . S
C332 C333 1.516 . S
C333 C332 1.516 . S
C333 C334 1.502 . S
C333 C335 1.561 . S
C333 C336 1.526 . S
C334 H318 0.959 . S
C334 H319 0.959 . S
C334 H320 0.961 . S
C334 C333 1.502 . S
C335 H321 0.960 . S
C335 H322 0.961 . S
C335 H323 0.959 . S
C335 C333 1.561 . S
C336 C333 1.526 . S
C336 C337 1.396 . S
C336 C341 1.390 . S
C337 C331 1.465 . S
C337 C336 1.396 . S
C337 C338 1.399 . S
C338 H324 0.929 . S
C338 C337 1.399 . S
C338 C339 1.385 . S
C339 H325 0.931 . S
C339 C338 1.385 . S
C339 C340 1.389 . S
C340 C339 1.389 . S
C340 C341 1.387 . S
C341 H326 0.930 . S
C341 C336 1.390 . S
C341 C340 1.387 . S
H342 C354 0.930 . S
H343 C356 0.930 . S
H344 C357 0.930 . S
H345 C361 0.959 . S
H346 C361 0.959 . S
H347 C361 0.961 . S
H348 C362 0.960 . S
H349 C362 0.961 . S
H350 C362 0.959 . S
H351 C365 0.929 . S
H352 C366 0.931 . S
H353 C368 0.930 . S
C354 H342 0.930 . S
C354 C355 1.399 . S
C354 C359 1.399 . S
C355 C354 1.399 . S
C355 C356 1.376 . S
C356 H343 0.930 . S
C356 C355 1.376 . S
C356 C357 1.388 . S
C357 H344 0.930 . S
C357 C356 1.388 . S
C357 C358 1.390 . S
C358 C357 1.390 . S
C358 C359 1.394 . S
C358 C364 1.465 . S
C359 C354 1.399 . S
C359 C358 1.394 . S
C359 C360 1.516 . S
C360 C359 1.516 . S
C360 C361 1.502 . S
C360 C362 1.561 . S
C360 C363 1.526 . S
C361 H345 0.959 . S
C361 H346 0.959 . S
C361 H347 0.961 . S
C361 C360 1.502 . S
C362 H348 0.960 . S
C362 H349 0.961 . S
C362 H350 0.959 . S
C362 C360 1.561 . S
C363 C360 1.526 . S
C363 C364 1.396 . S
C363 C368 1.390 . S
C364 C358 1.465 . S
C364 C363 1.396 . S
C364 C365 1.399 . S
C365 H351 0.929 . S
C365 C364 1.399 . S
C365 C366 1.385 . S
C366 H352 0.931 . S
C366 C365 1.385 . S
C366 C367 1.389 . S
C367 C366 1.389 . S
C367 C368 1.387 . S
C368 H353 0.930 . S
C368 C363 1.390 . S
C368 C367 1.387 . S
H369 C381 0.930 . S
H370 C383 0.930 . S
H371 C384 0.930 . S
H372 C388 0.959 . S
H373 C388 0.959 . S
H374 C388 0.961 . S
H375 C389 0.960 . S
H376 C389 0.961 . S
H377 C389 0.959 . S
H378 C392 0.929 . S
H379 C393 0.931 . S
H380 C395 0.930 . S
C381 H369 0.930 . S
C381 C382 1.399 . S
C381 C386 1.399 . S
C382 C381 1.399 . S
C382 C383 1.376 . S
C383 H370 0.930 . S
C383 C382 1.376 . S
C383 C384 1.388 . S
C384 H371 0.930 . S
C384 C383 1.388 . S
C384 C385 1.390 . S
C385 C384 1.390 . S
C385 C386 1.394 . S
C385 C391 1.465 . S
C386 C381 1.399 . S
C386 C385 1.394 . S
C386 C387 1.516 . S
C387 C386 1.516 . S
C387 C388 1.502 . S
C387 C389 1.561 . S
C387 C390 1.526 . S
C388 H372 0.959 . S
C388 H373 0.959 . S
C388 H374 0.961 . S
C388 C387 1.502 . S
C389 H375 0.960 . S
C389 H376 0.961 . S
C389 H377 0.959 . S
C389 C387 1.561 . S
C390 C387 1.526 . S
C390 C391 1.396 . S
C390 C395 1.390 . S
C391 C385 1.465 . S
C391 C390 1.396 . S
C391 C392 1.399 . S
C392 H378 0.929 . S
C392 C391 1.399 . S
C392 C393 1.385 . S
C393 H379 0.931 . S
C393 C392 1.385 . S
C393 C394 1.389 . S
C394 C393 1.389 . S
C394 C395 1.387 . S
C395 H380 0.930 . S
C395 C390 1.390 . S
C395 C394 1.387 . S
H396 C408 0.930 . S
H397 C410 0.930 . S
H398 C411 0.930 . S
H399 C415 0.959 . S
H400 C415 0.959 . S
H401 C415 0.961 . S
H402 C416 0.960 . S
H403 C416 0.961 . S
H404 C416 0.959 . S
H405 C419 0.929 . S
H406 C420 0.931 . S
H407 C422 0.930 . S
C408 H396 0.930 . S
C408 C409 1.399 . S
C408 C413 1.399 . S
C409 C408 1.399 . S
C409 C410 1.376 . S
C410 H397 0.930 . S
C410 C409 1.376 . S
C410 C411 1.388 . S
C411 H398 0.930 . S
C411 C410 1.388 . S
C411 C412 1.390 . S
C412 C411 1.390 . S
C412 C413 1.394 . S
C412 C418 1.465 . S
C413 C408 1.399 . S
C413 C412 1.394 . S
C413 C414 1.516 . S
C414 C413 1.516 . S
C414 C415 1.502 . S
C414 C416 1.561 . S
C414 C417 1.526 . S
C415 H399 0.959 . S
C415 H400 0.959 . S
C415 H401 0.961 . S
C415 C414 1.502 . S
C416 H402 0.960 . S
C416 H403 0.961 . S
C416 H404 0.959 . S
C416 C414 1.561 . S
C417 C414 1.526 . S
C417 C418 1.396 . S
C417 C422 1.390 . S
C418 C412 1.465 . S
C418 C417 1.396 . S
C418 C419 1.399 . S
C419 H405 0.929 . S
C419 C418 1.399 . S
C419 C420 1.385 . S
C420 H406 0.931 . S
C420 C419 1.385 . S
C420 C421 1.389 . S
C421 C420 1.389 . S
C421 C422 1.387 . S
C422 H407 0.930 . S
C422 C417 1.390 . S
C422 C421 1.387 . S
H423 C435 0.930 . S
H424 C437 0.930 . S
H425 C438 0.930 . S
H426 C442 0.959 . S
H427 C442 0.959 . S
H428 C442 0.961 . S
H429 C443 0.960 . S
H430 C443 0.961 . S
H431 C443 0.959 . S
H432 C446 0.929 . S
H433 C447 0.931 . S
H434 C449 0.930 . S
C435 H423 0.930 . S
C435 C436 1.399 . S
C435 C440 1.399 . S
C436 C435 1.399 . S
C436 C437 1.376 . S
C437 H424 0.930 . S
C437 C436 1.376 . S
C437 C438 1.388 . S
C438 H425 0.930 . S
C438 C437 1.388 . S
C438 C439 1.390 . S
C439 C438 1.390 . S
C439 C440 1.394 . S
C439 C445 1.465 . S
C440 C435 1.399 . S
C440 C439 1.394 . S
C440 C441 1.516 . S
C441 C440 1.516 . S
C441 C442 1.502 . S
C441 C443 1.561 . S
C441 C444 1.526 . S
C442 H426 0.959 . S
C442 H427 0.959 . S
C442 H428 0.961 . S
C442 C441 1.502 . S
C443 H429 0.960 . S
C443 H430 0.961 . S
C443 H431 0.959 . S
C443 C441 1.561 . S
C444 C441 1.526 . S
C444 C445 1.396 . S
C444 C449 1.390 . S
C445 C439 1.465 . S
C445 C444 1.396 . S
C445 C446 1.399 . S
C446 H432 0.929 . S
C446 C445 1.399 . S
C446 C447 1.385 . S
C447 H433 0.931 . S
C447 C446 1.385 . S
C447 C448 1.389 . S
C448 C447 1.389 . S
C448 C449 1.387 . S
C449 H434 0.930 . S
C449 C444 1.390 . S
C449 C448 1.387 . S
H450 C462 0.930 . S
H451 C464 0.930 . S
H452 C465 0.930 . S
H453 C469 0.959 . S
H454 C469 0.959 . S
H455 C469 0.961 . S
H456 C470 0.960 . S
H457 C470 0.961 . S
H458 C470 0.959 . S
H459 C473 0.929 . S
H460 C474 0.931 . S
H461 C476 0.930 . S
C462 H450 0.930 . S
C462 C463 1.399 . S
C462 C467 1.399 . S
C463 C462 1.399 . S
C463 C464 1.376 . S
C464 H451 0.930 . S
C464 C463 1.376 . S
C464 C465 1.388 . S
C465 H452 0.930 . S
C465 C464 1.388 . S
C465 C466 1.390 . S
C466 C465 1.390 . S
C466 C467 1.394 . S
C466 C472 1.465 . S
C467 C462 1.399 . S
C467 C466 1.394 . S
C467 C468 1.516 . S
C468 C467 1.516 . S
C468 C469 1.502 . S
C468 C470 1.561 . S
C468 C471 1.526 . S
C469 H453 0.959 . S
C469 H454 0.959 . S
C469 H455 0.961 . S
C469 C468 1.502 . S
C470 H456 0.960 . S
C470 H457 0.961 . S
C470 H458 0.959 . S
C470 C468 1.561 . S
C471 C468 1.526 . S
C471 C472 1.396 . S
C471 C476 1.390 . S
C472 C466 1.465 . S
C472 C471 1.396 . S
C472 C473 1.399 . S
C473 H459 0.929 . S
C473 C472 1.399 . S
C473 C474 1.385 . S
C474 H460 0.931 . S
C474 C473 1.385 . S
C474 C475 1.389 . S
C475 C474 1.389 . S
C475 C476 1.387 . S
C476 H461 0.930 . S
C476 C471 1.390 . S
C476 C475 1.387 . S
H477 C489 0.930 . S
H478 C491 0.930 . S
H479 C492 0.930 . S
H480 C496 0.959 . S
H481 C496 0.959 . S
H482 C496 0.961 . S
H483 C497 0.960 . S
H484 C497 0.961 . S
H485 C497 0.959 . S
H486 C500 0.929 . S
H487 C501 0.931 . S
H488 C503 0.930 . S
C489 H477 0.930 . S
C489 C490 1.399 . S
C489 C494 1.399 . S
C490 C489 1.399 . S
C490 C491 1.376 . S
C491 H478 0.930 . S
C491 C490 1.376 . S
C491 C492 1.388 . S
C492 H479 0.930 . S
C492 C491 1.388 . S
C492 C493 1.390 . S
C493 C492 1.390 . S
C493 C494 1.394 . S
C493 C499 1.465 . S
C494 C489 1.399 . S
C494 C493 1.394 . S
C494 C495 1.516 . S
C495 C494 1.516 . S
C495 C496 1.502 . S
C495 C497 1.561 . S
C495 C498 1.526 . S
C496 H480 0.959 . S
C496 H481 0.959 . S
C496 H482 0.961 . S
C496 C495 1.502 . S
C497 H483 0.960 . S
C497 H484 0.961 . S
C497 H485 0.959 . S
C497 C495 1.561 . S
C498 C495 1.526 . S
C498 C499 1.396 . S
C498 C503 1.390 . S
C499 C493 1.465 . S
C499 C498 1.396 . S
C499 C500 1.399 . S
C500 H486 0.929 . S
C500 C499 1.399 . S
C500 C501 1.385 . S
C501 H487 0.931 . S
C501 C500 1.385 . S
C501 C502 1.389 . S
C502 C501 1.389 . S
C502 C503 1.387 . S
C503 H488 0.930 . S
C503 C498 1.390 . S
C503 C502 1.387 . S
H504 C516 0.930 . S
H505 C518 0.930 . S
H506 C519 0.930 . S
H507 C523 0.959 . S
H508 C523 0.959 . S
H509 C523 0.961 . S
H510 C524 0.960 . S
H511 C524 0.961 . S
H512 C524 0.959 . S
H513 C527 0.929 . S
H514 C528 0.931 . S
H515 C530 0.930 . S
C516 H504 0.930 . S
C516 C517 1.399 . S
C516 C521 1.399 . S
C517 C516 1.399 . S
C517 C518 1.376 . S
C518 H505 0.930 . S
C518 C517 1.376 . S
C518 C519 1.388 . S
C519 H506 0.930 . S
C519 C518 1.388 . S
C519 C520 1.390 . S
C520 C519 1.390 . S
C520 C521 1.394 . S
C520 C526 1.465 . S
C521 C516 1.399 . S
C521 C520 1.394 . S
C521 C522 1.516 . S
C522 C521 1.516 . S
C522 C523 1.502 . S
C522 C524 1.561 . S
C522 C525 1.526 . S
C523 H507 0.959 . S
C523 H508 0.959 . S
C523 H509 0.961 . S
C523 C522 1.502 . S
C524 H510 0.960 . S
C524 H511 0.961 . S
C524 H512 0.959 . S
C524 C522 1.561 . S
C525 C522 1.526 . S
C525 C526 1.396 . S
C525 C530 1.390 . S
C526 C520 1.465 . S
C526 C525 1.396 . S
C526 C527 1.399 . S
C527 H513 0.929 . S
C527 C526 1.399 . S
C527 C528 1.385 . S
C528 H514 0.931 . S
C528 C527 1.385 . S
C528 C529 1.389 . S
C529 C528 1.389 . S
C529 C530 1.387 . S
C530 H515 0.930 . S
C530 C525 1.390 . S
C530 C529 1.387 . S
H531 C543 0.930 . S
H532 C545 0.930 . S
H533 C546 0.930 . S
H534 C550 0.959 . S
H535 C550 0.959 . S
H536 C550 0.961 . S
H537 C551 0.960 . S
H538 C551 0.961 . S
H539 C551 0.959 . S
H540 C554 0.929 . S
H541 C555 0.931 . S
H542 C557 0.930 . S
C543 H531 0.930 . S
C543 C544 1.399 . S
C543 C548 1.399 . S
C544 C543 1.399 . S
C544 C545 1.376 . S
C545 H532 0.930 . S
C545 C544 1.376 . S
C545 C546 1.388 . S
C546 H533 0.930 . S
C546 C545 1.388 . S
C546 C547 1.390 . S
C547 C546 1.390 . S
C547 C548 1.394 . S
C547 C553 1.465 . S
C548 C543 1.399 . S
C548 C547 1.394 . S
C548 C549 1.516 . S
C549 C548 1.516 . S
C549 C550 1.502 . S
C549 C551 1.561 . S
C549 C552 1.526 . S
C550 H534 0.959 . S
C550 H535 0.959 . S
C550 H536 0.961 . S
C550 C549 1.502 . S
C551 H537 0.960 . S
C551 H538 0.961 . S
C551 H539 0.959 . S
C551 C549 1.561 . S
C552 C549 1.526 . S
C552 C553 1.396 . S
C552 C557 1.390 . S
C553 C547 1.465 . S
C553 C552 1.396 . S
C553 C554 1.399 . S
C554 H540 0.929 . S
C554 C553 1.399 . S
C554 C555 1.385 . S
C555 H541 0.931 . S
C555 C554 1.385 . S
C555 C556 1.389 . S
C556 C555 1.389 . S
C556 C557 1.387 . S
C557 H542 0.930 . S
C557 C552 1.390 . S
C557 C556 1.387 . S
H558 C570 0.930 . S
H559 C572 0.930 . S
H560 C573 0.930 . S
H561 C577 0.956 1_656 S
H562 C577 0.959 1_556 S
H563 C577 0.961 . S
H564 C578 0.960 . S
H565 C578 0.963 . S
H566 C578 0.959 . S
H567 C581 0.929 . S
H568 C582 0.931 . S
H569 C584 0.930 . S
C570 H558 0.930 . S
C570 C571 1.399 . S
C570 C575 1.399 . S
C571 C570 1.399 . S
C571 C572 1.376 . S
C572 H559 0.930 . S
C572 C571 1.376 . S
C572 C573 1.388 . S
C573 H560 0.930 . S
C573 C572 1.388 . S
C573 C574 1.390 . S
C574 C573 1.390 . S
C574 C575 1.394 . S
C574 C580 1.465 1_554 S
C575 C570 1.399 . S
C575 C574 1.394 . S
C575 C576 1.516 . S
C576 C575 1.516 . S
C576 C577 1.502 . S
C576 C578 1.561 . S
C576 C579 1.526 1_554 S
C577 H561 0.956 1_454 S
C577 H562 0.959 1_554 S
C577 H563 0.961 . S
C577 C576 1.502 . S
C578 H564 0.960 . S
C578 H565 0.963 . S
C578 H566 0.959 . S
C578 C576 1.561 . S
C579 C576 1.526 1_556 S
C579 C580 1.396 . S
C579 C584 1.390 . S
C580 C574 1.465 1_556 S
C580 C579 1.396 . S
C580 C581 1.399 . S
C581 H567 0.929 . S
C581 C580 1.399 . S
C581 C582 1.385 . S
C582 H568 0.931 . S
C582 C581 1.385 . S
C582 C583 1.389 . S
C583 C582 1.389 . S
C583 C584 1.387 . S
C584 H569 0.930 . S
C584 C579 1.390 . S
C584 C583 1.387 . S
H585 C597 0.930 . S
H586 C599 0.930 . S
H587 C600 0.930 . S
H588 C604 0.959 1_565 S
H589 C604 0.959 . S
H590 C604 0.961 . S
H591 C605 0.960 . S
H592 C605 0.961 . S
H593 C605 0.959 . S
H594 C608 0.929 . S
H595 C609 0.931 . S
H596 C611 0.930 . S
C597 H585 0.930 . S
C597 C598 1.399 . S
C597 C602 1.399 . S
C598 C597 1.399 . S
C598 C599 1.376 . S
C599 H586 0.930 . S
C599 C598 1.376 . S
C599 C600 1.388 . S
C600 H587 0.930 . S
C600 C599 1.388 . S
C600 C601 1.390 . S
C601 C600 1.390 . S
C601 C602 1.394 . S
C601 C607 1.465 . S
C602 C597 1.399 . S
C602 C601 1.394 . S
C602 C603 1.516 . S
C603 C602 1.516 . S
C603 C604 1.502 . S
C603 C605 1.561 . S
C603 C606 1.526 . S
C604 H588 0.959 1_545 S
C604 H589 0.959 . S
C604 H590 0.961 . S
C604 C603 1.502 . S
C605 H591 0.960 . S
C605 H592 0.961 . S
C605 H593 0.959 . S
C605 C603 1.561 . S
C606 C603 1.526 . S
C606 C607 1.396 . S
C606 C611 1.390 . S
C607 C601 1.465 . S
C607 C606 1.396 . S
C607 C608 1.399 . S
C608 H594 0.929 . S
C608 C607 1.399 . S
C608 C609 1.385 . S
C609 H595 0.931 . S
C609 C608 1.385 . S
C609 C610 1.389 . S
C610 C609 1.389 . S
C610 C611 1.387 . S
C611 H596 0.930 . S
C611 C606 1.390 . S
C611 C610 1.387 . S
H612 C624 0.930 . S
H613 C626 0.930 . S
H614 C627 0.930 . S
H615 C631 0.959 . S
H616 C631 0.959 . S
H617 C631 0.961 . S
H618 C632 0.960 . S
H619 C632 0.961 . S
H620 C632 0.959 . S
H621 C635 0.929 . S
H622 C636 0.931 . S
H623 C638 0.930 . S
C624 H612 0.930 . S
C624 C625 1.399 . S
C624 C629 1.399 . S
C625 C624 1.399 . S
C625 C626 1.376 . S
C626 H613 0.930 . S
C626 C625 1.376 . S
C626 C627 1.388 . S
C627 H614 0.930 . S
C627 C626 1.388 . S
C627 C628 1.390 . S
C628 C627 1.390 . S
C628 C629 1.394 . S
C628 C634 1.465 . S
C629 C624 1.399 . S
C629 C628 1.394 . S
C629 C630 1.516 . S
C630 C629 1.516 . S
C630 C631 1.502 . S
C630 C632 1.561 . S
C630 C633 1.526 . S
C631 H615 0.959 . S
C631 H616 0.959 . S
C631 H617 0.961 . S
C631 C630 1.502 . S
C632 H618 0.960 . S
C632 H619 0.961 . S
C632 H620 0.959 . S
C632 C630 1.561 . S
C633 C630 1.526 . S
C633 C634 1.396 . S
C633 C638 1.390 . S
C634 C628 1.465 . S
C634 C633 1.396 . S
C634 C635 1.399 . S
C635 H621 0.929 . S
C635 C634 1.399 . S
C635 C636 1.385 . S
C636 H622 0.931 . S
C636 C635 1.385 . S
C636 C637 1.389 . S
C637 C636 1.389 . S
C637 C638 1.387 . S
C638 H623 0.930 . S
C638 C633 1.390 . S
C638 C637 1.387 . S
H639 C651 0.930 1_565 S
H640 C653 0.930 . S
H641 C654 0.930 . S
H642 C658 0.959 1_545 S
H643 C658 0.959 . S
H644 C658 0.961 . S
H645 C659 0.960 . S
H646 C659 0.961 . S
H647 C659 0.959 . S
H648 C662 0.929 . S
H649 C663 0.931 . S
H650 C665 0.930 1_565 S
C651 H639 0.930 1_545 S
C651 C652 1.399 . S
C651 C656 1.399 . S
C652 C651 1.399 . S
C652 C653 1.376 . S
C653 H640 0.930 . S
C653 C652 1.376 . S
C653 C654 1.388 . S
C654 H641 0.930 . S
C654 C653 1.388 . S
C654 C655 1.390 . S
C655 C654 1.390 . S
C655 C656 1.394 . S
C655 C661 1.465 . S
C656 C651 1.399 . S
C656 C655 1.394 . S
C656 C657 1.523 . S
C657 C656 1.523 . S
C657 C658 1.507 1_545 S
C657 C659 1.548 1_545 S
C657 C660 1.527 . S
C658 H642 0.959 1_565 S
C658 H643 0.959 . S
C658 H644 0.961 . S
C658 C657 1.507 1_565 S
C659 H645 0.960 . S
C659 H646 0.961 . S
C659 H647 0.959 . S
C659 C657 1.548 1_565 S
C660 C657 1.527 . S
C660 C661 1.396 . S
C660 C665 1.390 . S
C661 C655 1.465 . S
C661 C660 1.396 . S
C661 C662 1.399 . S
C662 H648 0.929 . S
C662 C661 1.399 . S
C662 C663 1.385 . S
C663 H649 0.931 . S
C663 C662 1.385 . S
C663 C664 1.389 . S
C664 C663 1.389 . S
C664 C665 1.387 . S
C665 H650 0.930 1_545 S
C665 C660 1.390 . S
C665 C664 1.387 . S
H666 C678 0.930 . S
H667 C680 0.930 . S
H668 C681 0.930 . S
H669 C685 0.959 . S
H670 C685 0.959 . S
H671 C685 0.961 1_556 S
H672 C686 0.960 . S
H673 C686 0.961 1_554 S
H674 C686 0.959 . S
H675 C689 0.929 1_556 S
H676 C690 0.931 . S
H677 C692 0.930 . S
C678 H666 0.930 . S
C678 C679 1.399 . S
C678 C683 1.399 . S
C679 C678 1.399 . S
C679 C680 1.376 . S
C680 H667 0.930 . S
C680 C679 1.376 . S
C680 C681 1.388 . S
C681 H668 0.930 . S
C681 C680 1.388 . S
C681 C682 1.390 . S
C682 C681 1.390 . S
C682 C683 1.394 . S
C682 C688 1.465 . S
C683 C678 1.399 . S
C683 C682 1.394 . S
C683 C684 1.516 . S
C684 C683 1.516 . S
C684 C685 1.502 1_556 S
C684 C686 1.561 . S
C684 C687 1.526 1_556 S
C685 H669 0.959 . S
C685 H670 0.959 . S
C685 H671 0.961 1_554 S
C685 C684 1.502 1_554 S
C686 H672 0.960 . S
C686 H673 0.961 1_556 S
C686 H674 0.959 . S
C686 C684 1.561 . S
C687 C684 1.526 1_554 S
C687 C688 1.396 1_554 S
C687 C692 1.390 . S
C688 C682 1.465 . S
C688 C687 1.396 1_556 S
C688 C689 1.399 1_556 S
C689 H675 0.929 1_554 S
C689 C688 1.399 1_554 S
C689 C690 1.385 . S
C690 H676 0.931 . S
C690 C689 1.385 . S
C690 C691 1.389 . S
C691 C690 1.389 . S
C691 C692 1.387 . S
C692 H677 0.930 . S
C692 C687 1.390 . S
C692 C691 1.387 . S
H693 C705 0.930 . S
H694 C707 0.930 . S
H695 C708 0.930 . S
H696 C712 0.959 . S
H697 C712 0.959 . S
H698 C712 0.961 . S
H699 C713 0.960 . S
H700 C713 0.961 . S
H701 C713 0.959 . S
H702 C716 0.929 . S
H703 C717 0.931 . S
H704 C719 0.930 . S
C705 H693 0.930 . S
C705 C706 1.399 . S
C705 C710 1.399 . S
C706 C705 1.399 . S
C706 C707 1.376 1_455 S
C707 H694 0.930 . S
C707 C706 1.376 1_655 S
C707 C708 1.388 . S
C708 H695 0.930 . S
C708 C707 1.388 . S
C708 C709 1.390 1_655 S
C709 C708 1.390 1_455 S
C709 C710 1.394 . S
C709 C715 1.465 . S
C710 C705 1.399 . S
C710 C709 1.394 . S
C710 C711 1.516 . S
C711 C710 1.516 . S
C711 C712 1.502 . S
C711 C713 1.561 . S
C711 C714 1.526 . S
C712 H696 0.959 . S
C712 H697 0.959 . S
C712 H698 0.961 . S
C712 C711 1.502 . S
C713 H699 0.960 . S
C713 H700 0.961 . S
C713 H701 0.959 . S
C713 C711 1.561 . S
C714 C711 1.526 . S
C714 C715 1.396 . S
C714 C719 1.390 . S
C715 C709 1.465 . S
C715 C714 1.396 . S
C715 C716 1.399 1_455 S
C716 H702 0.929 . S
C716 C715 1.399 1_655 S
C716 C717 1.385 . S
C717 H703 0.931 . S
C717 C716 1.385 . S
C717 C718 1.389 1_655 S
C718 C717 1.389 1_455 S
C718 C719 1.387 . S
C719 H704 0.930 . S
C719 C714 1.390 . S
C719 C718 1.387 . S
C247 C7 0.851 . S
C259 C226 0.702 . S
C274 C51 1.998 . S
C286 C188 1.931 . S
C301 C87 1.310 . S
C313 C207 1.215 . S
C328 C16 0.226 . S
C340 C221 0.160 . S
C367 C183 1.882 . S
C355 C42 1.907 . S
C394 C202 1.145 . S
C382 C96 1.128 . S
C409 C47 1.321 . S
C421 C150 1.314 . S
C436 C91 3.050 . S
C448 C164 3.035 1_655 S
C463 C2 1.890 . S
C475 C126 1.869 . S
C502 C145 1.076 . S
C490 C56 1.098 . S
C529 C169 3.056 . S
C517 C82 3.094 . S
C544 C11 2.004 . S
C556 C131 1.925 . S
C583 C160 1.723 . S
C571 C19 1.721 . S
C598 C50 1.425 . S
C610 C122 1.529 . S
C625 C99 1.551 . S
C637 C141 1.542 . S
C664 C198 1.546 . S
C652 C59 1.567 . S
C691 C217 1.385 . S
C679 C90 1.353 . S
C706 C10 1.443 . S
C718 C179 1.498 . S
