# Generated by pormake.
# Topology ant, (3,6)-cn, num edge types: 1
# Building blocks:
#     Node 0, Type 0, BuildingBlock: CUQRIR_clean_linker_1, # of connection points: 3
#     Node 1, Type 0, BuildingBlock: CUQRIR_clean_linker_1, # of connection points: 3
#     Node 2, Type 0, BuildingBlock: CUQRIR_clean_linker_1, # of connection points: 3
#     Node 3, Type 0, BuildingBlock: CUQRIR_clean_linker_1, # of connection points: 3
#     Node 4, Type 0, BuildingBlock: CUQRIR_clean_linker_1, # of connection points: 3
#     Node 5, Type 0, BuildingBlock: CUQRIR_clean_linker_1, # of connection points: 3
#     Node 6, Type 0, BuildingBlock: CUQRIR_clean_linker_1, # of connection points: 3
#     Node 7, Type 0, BuildingBlock: CUQRIR_clean_linker_1, # of connection points: 3
#     Node 8, Type 1, BuildingBlock: MIDCAF_clean_sbu_0, # of connection points: 6
#     Node 9, Type 1, BuildingBlock: MIDCAF_clean_sbu_0, # of connection points: 6
#     Node 10, Type 1, BuildingBlock: MIDCAF_clean_sbu_0, # of connection points: 6
#     Node 11, Type 1, BuildingBlock: MIDCAF_clean_sbu_0, # of connection points: 6
#     Edge 12, Type (0, 1), BuildingBlock: MIFKUJ_clean_linker_0, # of connection points: 2
#     Edge 13, Type (0, 1), BuildingBlock: MIFKUJ_clean_linker_0, # of connection points: 2
#     Edge 14, Type (0, 1), BuildingBlock: MIFKUJ_clean_linker_0, # of connection points: 2
#     Edge 15, Type (0, 1), BuildingBlock: MIFKUJ_clean_linker_0, # of connection points: 2
#     Edge 16, Type (0, 1), BuildingBlock: MIFKUJ_clean_linker_0, # of connection points: 2
#     Edge 17, Type (0, 1), BuildingBlock: MIFKUJ_clean_linker_0, # of connection points: 2
#     Edge 18, Type (0, 1), BuildingBlock: MIFKUJ_clean_linker_0, # of connection points: 2
#     Edge 19, Type (0, 1), BuildingBlock: MIFKUJ_clean_linker_0, # of connection points: 2
#     Edge 20, Type (0, 1), BuildingBlock: MIFKUJ_clean_linker_0, # of connection points: 2
#     Edge 21, Type (0, 1), BuildingBlock: MIFKUJ_clean_linker_0, # of connection points: 2
#     Edge 22, Type (0, 1), BuildingBlock: MIFKUJ_clean_linker_0, # of connection points: 2
#     Edge 23, Type (0, 1), BuildingBlock: MIFKUJ_clean_linker_0, # of connection points: 2
#     Edge 24, Type (0, 1), BuildingBlock: MIFKUJ_clean_linker_0, # of connection points: 2
#     Edge 25, Type (0, 1), BuildingBlock: MIFKUJ_clean_linker_0, # of connection points: 2
#     Edge 26, Type (0, 1), BuildingBlock: MIFKUJ_clean_linker_0, # of connection points: 2
#     Edge 27, Type (0, 1), BuildingBlock: MIFKUJ_clean_linker_0, # of connection points: 2
#     Edge 28, Type (0, 1), BuildingBlock: MIFKUJ_clean_linker_0, # of connection points: 2
#     Edge 29, Type (0, 1), BuildingBlock: MIFKUJ_clean_linker_0, # of connection points: 2
#     Edge 30, Type (0, 1), BuildingBlock: MIFKUJ_clean_linker_0, # of connection points: 2
#     Edge 31, Type (0, 1), BuildingBlock: MIFKUJ_clean_linker_0, # of connection points: 2
#     Edge 32, Type (0, 1), BuildingBlock: MIFKUJ_clean_linker_0, # of connection points: 2
#     Edge 33, Type (0, 1), BuildingBlock: MIFKUJ_clean_linker_0, # of connection points: 2
#     Edge 34, Type (0, 1), BuildingBlock: MIFKUJ_clean_linker_0, # of connection points: 2
#     Edge 35, Type (0, 1), BuildingBlock: MIFKUJ_clean_linker_0, # of connection points: 2
# Relax obj value: 0.108
# Max RMSD: 0.219
# Mean RMSD: 0.148
data_MOF--net-ant--node1-MIDCAF_clean_sbu_0--node2-CUQRIR_clean_linker_1--edge1-MIFKUJ_clean_linker_0
_symmetry_space_group_name_H-M    P1
_symmetry_Int_Tables_number       1
_symmetry_cell_setting            triclinic
loop_
_symmetry_equiv_pos_as_xyz
'x, y, z'
_cell_length_a     35.161737
_cell_length_b     34.998022
_cell_length_c     87.987918
_cell_angle_alpha  85.197746
_cell_angle_beta   93.505882
_cell_angle_gamma 89.947396
loop_
_atom_site_label
_atom_site_type_symbol
_atom_site_fract_x
_atom_site_fract_y
_atom_site_fract_z
_atom_type_partial_charge
C0 C 0.1827 0.28208 0.07412 0.0
N1 N 0.17914 0.2504 0.0662 0.0
N2 N 0.1704 0.31388 0.06529 0.0
C3 C 0.20078 0.28264 0.09003 0.0
C4 C 0.15919 0.30049 0.05174 0.0
N5 N 0.16466 0.26208 0.05225 0.0
C6 C 0.14043 0.3246 0.03838 0.0
H7 H 0.17845 0.27772 0.09834 0.0
H8 H 0.21405 0.31085 0.09171 0.0
H9 H 0.22269 0.25974 0.09238 0.0
H10 H 0.16259 0.33513 0.03064 0.0
H11 H 0.12567 0.34977 0.04224 0.0
H12 H 0.11957 0.30754 0.03185 0.0
C13 C 0.06589 0.79469 0.33614 0.0
N14 N 0.09296 0.79929 0.32582 0.0
N15 N 0.03058 0.79725 0.32901 0.0
C16 C 0.07385 0.78936 0.35316 0.0
C17 C 0.03716 0.80344 0.31401 0.0
N18 N 0.07499 0.80527 0.3121 0.0
C19 C 0.00695 0.80253 0.30112 0.0
H20 H 0.04999 0.80079 0.35916 0.0
H21 H 0.10067 0.8039 0.3566 0.0
H22 H 0.07709 0.75831 0.35671 0.0
H23 H 0.99746 0.83229 0.29743 0.0
H24 H 0.98192 0.78555 0.30468 0.0
H25 H 0.01833 0.78989 0.29118 0.0
C26 C 0.67301 0.77656 0.57475 0.0
N27 N 0.66776 0.74383 0.56768 0.0
N28 N 0.66128 0.80754 0.5653 0.0
C29 C 0.68693 0.77805 0.59119 0.0
C30 C 0.64876 0.79241 0.55224 0.0
N31 N 0.65235 0.75366 0.55371 0.0
C32 C 0.63649 0.81578 0.53761 0.0
H33 H 0.67465 0.80313 0.59612 0.0
H34 H 0.71841 0.78077 0.59184 0.0
H35 H 0.67942 0.75145 0.59809 0.0
H36 H 0.64993 0.84449 0.53711 0.0
H37 H 0.60512 0.81971 0.53705 0.0
H38 H 0.64411 0.80102 0.52752 0.0
C39 C 0.5785 0.28271 0.83611 0.0
N40 N 0.60425 0.28607 0.82524 0.0
N41 N 0.54369 0.27434 0.82983 0.0
C42 C 0.58782 0.285 0.8529 0.0
C43 C 0.54906 0.27296 0.81483 0.0
N44 N 0.58585 0.27968 0.81208 0.0
C45 C 0.51816 0.26572 0.8028 0.0
H46 H 0.56555 0.2711 0.85983 0.0
H47 H 0.58975 0.31561 0.85525 0.0
H48 H 0.61584 0.27128 0.85635 0.0
H49 H 0.49023 0.27633 0.80598 0.0
H50 H 0.51599 0.23439 0.80183 0.0
H51 H 0.52466 0.27971 0.79148 0.0
C52 C 0.03877 0.70154 0.91153 0.0
N53 N 0.05261 0.72448 0.92226 0.0
N54 N 0.04201 0.66413 0.91686 0.0
C55 C 0.02109 0.71546 0.89607 0.0
C56 C 0.05869 0.66507 0.9311 0.0
N57 N 0.06538 0.70165 0.93433 0.0
C58 C 0.06583 0.63047 0.94231 0.0
H59 H 0.98998 0.71921 0.89692 0.0
H60 H 0.0253 0.69435 0.88761 0.0
H61 H 0.03334 0.74337 0.89197 0.0
H62 H 0.06244 0.60327 0.93678 0.0
H63 H 0.04561 0.63102 0.9515 0.0
H64 H 0.09506 0.63122 0.94774 0.0
C65 C 0.67133 0.8072 0.17077 0.0
N66 N 0.69746 0.79642 0.18241 0.0
N67 N 0.63533 0.80265 0.1754 0.0
C68 C 0.68081 0.81999 0.15474 0.0
C69 C 0.64052 0.78896 0.19021 0.0
N70 N 0.67801 0.78493 0.19443 0.0
C71 C 0.60889 0.78035 0.20071 0.0
H72 H 0.68759 0.85102 0.15409 0.0
H73 H 0.6564 0.81554 0.14649 0.0
H74 H 0.70618 0.80429 0.15156 0.0
H75 H 0.58256 0.79651 0.19664 0.0
H76 H 0.61755 0.78763 0.21245 0.0
H77 H 0.60268 0.74922 0.20115 0.0
C78 C 0.53195 0.19179 0.41251 0.0
N79 N 0.54193 0.21224 0.42456 0.0
N80 N 0.5262 0.15444 0.41728 0.0
C81 C 0.52562 0.20867 0.39628 0.0
C82 C 0.53325 0.15298 0.43262 0.0
N83 N 0.54228 0.18808 0.43703 0.0
C84 C 0.53404 0.11675 0.44317 0.0
H85 H 0.50607 0.19067 0.38958 0.0
H86 H 0.55341 0.21031 0.39094 0.0
H87 H 0.51382 0.23818 0.39591 0.0
H88 H 0.54094 0.09145 0.43703 0.0
H89 H 0.50557 0.11245 0.44781 0.0
H90 H 0.55531 0.11872 0.45293 0.0
C91 C 0.16853 0.30946 0.66907 0.0
N92 N 0.19519 0.30346 0.68091 0.0
N93 N 0.13342 0.31454 0.67428 0.0
C94 C 0.17702 0.31265 0.65249 0.0
C95 C 0.13976 0.31119 0.68968 0.0
N96 N 0.17716 0.30499 0.69368 0.0
C97 C 0.10906 0.31145 0.70087 0.0
H98 H 0.15514 0.33037 0.64551 0.0
H99 H 0.17693 0.28354 0.64838 0.0
H100 H 0.20557 0.32535 0.65091 0.0
H101 H 0.08152 0.30151 0.69582 0.0
H102 H 0.10531 0.34118 0.70404 0.0
H103 H 0.11699 0.29291 0.71143 0.0
Zn104 Zn 0.20029 0.72565 0.13766 0.0
Zn105 Zn 0.11054 0.82999 0.11103 0.0
Zn106 Zn 0.15769 0.77894 0.12377 0.0
C107 C 0.11654 0.7737 0.09051 0.0
C108 C 0.1804 0.86666 0.11438 0.0
O109 O 0.13739 0.76818 0.14688 0.0
O110 O 0.18194 0.72942 0.15835 0.0
C111 C 0.16566 0.69102 0.1139 0.0
O112 O 0.13851 0.75811 0.10159 0.0
O113 O 0.10043 0.80542 0.09177 0.0
O114 O 0.14573 0.87369 0.1107 0.0
O115 O 0.19148 0.83238 0.11918 0.0
O116 O 0.18358 0.68157 0.1265 0.0
O117 O 0.15593 0.72641 0.11028 0.0
O118 O 0.21641 0.80339 0.12644 0.0
O119 O 0.24977 0.75034 0.13308 0.0
C120 C 0.24874 0.786 0.12943 0.0
O121 O 0.10648 0.78599 0.13824 0.0
O122 O 0.06943 0.82958 0.12507 0.0
C123 C 0.15257 0.74979 0.15907 0.0
C124 C 0.07528 0.80608 0.13663 0.0
Zn125 Zn 0.54266 0.651 0.35544 0.0
Zn126 Zn 0.59824 0.73957 0.39242 0.0
Zn127 Zn 0.56797 0.70021 0.37476 0.0
C128 C 0.54573 0.78642 0.37643 0.0
C129 C 0.65559 0.72236 0.37643 0.0
O130 O 0.56193 0.64263 0.38762 0.0
O131 O 0.54139 0.60462 0.36999 0.0
C132 C 0.48757 0.71137 0.35611 0.0
O133 O 0.53192 0.75307 0.37419 0.0
O134 O 0.57908 0.78904 0.38236 0.0
O135 O 0.65276 0.72692 0.39037 0.0
O136 O 0.62552 0.71645 0.36785 0.0
O137 O 0.49441 0.68057 0.35018 0.0
O138 O 0.51221 0.72454 0.36577 0.0
O139 O 0.60694 0.69928 0.3556 0.0
O140 O 0.58379 0.65568 0.3408 0.0
C141 C 0.6085 0.68072 0.34357 0.0
O142 O 0.5718 0.66925 0.39814 0.0
O143 O 0.57469 0.72005 0.41133 0.0
C144 C 0.55156 0.60928 0.3837 0.0
C145 C 0.57043 0.6844 0.41096 0.0
Zn146 Zn 0.60699 0.31516 0.60655 0.0
Zn147 Zn 0.69656 0.22092 0.64199 0.0
Zn148 Zn 0.65684 0.27073 0.62341 0.0
C149 C 0.74247 0.287 0.63601 0.0
C150 C 0.68073 0.18396 0.61582 0.0
O151 O 0.60342 0.28115 0.63541 0.0
O152 O 0.56691 0.32287 0.62089 0.0
C153 C 0.67801 0.35389 0.60873 0.0
O154 O 0.71358 0.29866 0.62706 0.0
O155 O 0.74128 0.25519 0.64389 0.0
O156 O 0.69942 0.17862 0.62853 0.0
O157 O 0.66296 0.21602 0.61214 0.0
O158 O 0.64475 0.356 0.60241 0.0
O159 O 0.68864 0.32422 0.61765 0.0
O160 O 0.64173 0.24285 0.60222 0.0
O161 O 0.59592 0.27978 0.59045 0.0
C162 C 0.61702 0.25047 0.59093 0.0
O163 O 0.63089 0.26201 0.64575 0.0
O164 O 0.66326 0.2156 0.65945 0.0
C165 C 0.57261 0.3015 0.63307 0.0
C166 C 0.63661 0.24005 0.65821 0.0
Zn167 Zn 0.04453 0.16842 0.85437 0.0
Zn168 Zn 0.11156 0.25465 0.89435 0.0
Zn169 Zn 0.07664 0.2119 0.87498 0.0
C170 C 0.10014 0.18421 0.91036 0.0
C171 C 0.04419 0.29258 0.8848 0.0
O172 O 0.11293 0.21045 0.85513 0.0
O173 O 0.08564 0.17015 0.8398 0.0
C174 C 0.05082 0.12341 0.88231 0.0
O175 O 0.0828 0.17751 0.89752 0.0
O176 O 0.11654 0.21582 0.91186 0.0
O177 O 0.07236 0.29501 0.89423 0.0
O178 O 0.04106 0.26395 0.87651 0.0
O179 O 0.03771 0.12227 0.86866 0.0
O180 O 0.06678 0.15413 0.88668 0.0
O181 O 0.02195 0.23985 0.86666 0.0
O182 O 1.00005 0.20299 0.84887 0.0
C183 C 0.99644 0.23213 0.85623 0.0
O184 O 0.13392 0.22727 0.86713 0.0
O185 O 0.15781 0.26689 0.8835 0.0
C186 C 0.11203 0.19343 0.84265 0.0
C187 C 0.16111 0.24894 0.87181 0.0
H188 H 0.13349 0.3421 0.08796 0.0
H189 H 0.12914 0.40974 0.09347 0.0
H190 H 0.20125 0.44169 0.0566 0.0
H191 H 0.20531 0.37408 0.05111 0.0
H192 H 0.22166 0.47736 0.08308 0.0
H193 H 0.1093 0.45803 0.05112 0.0
H194 H 0.04996 0.42557 0.0433 0.0
H195 H 1.00156 0.44983 0.08512 0.0
H196 H 0.0609 0.4819 0.09331 0.0
H197 H 0.19791 0.67537 0.08764 0.0
H198 H 0.19415 0.61444 0.07573 0.0
H199 H 0.11211 0.57323 0.10767 0.0
H200 H 0.11481 0.63464 0.11909 0.0
H201 H 0.09646 0.54365 0.08135 0.0
H202 H 0.20902 0.55644 0.11459 0.0
H203 H 0.26845 0.58708 0.12355 0.0
H204 H 0.3164 0.57321 0.08061 0.0
H205 H 0.25699 0.54295 0.07131 0.0
C206 C 0.14857 0.36367 0.08117 0.0
C207 C 0.1697 0.35315 0.06914 0.0
C208 C 0.14591 0.40224 0.08422 0.0
C209 C 0.16458 0.4309 0.07535 0.0
C210 C 0.18651 0.42017 0.06356 0.0
C211 C 0.18879 0.38168 0.06042 0.0
C212 C 0.16122 0.47205 0.07835 0.0
C213 C 0.19435 0.49204 0.08245 0.0
C214 C 0.12553 0.49106 0.07783 0.0
C215 C 0.08969 0.47206 0.07289 0.0
C216 C 0.08613 0.45617 0.05871 0.0
C217 C 0.05247 0.43788 0.0542 0.0
C218 C 0.02204 0.43556 0.06372 0.0
C219 C 0.02518 0.45161 0.07776 0.0
C220 C 0.05881 0.46987 0.08234 0.0
C221 C 0.1776 0.65406 0.09154 0.0
C222 C 0.15582 0.66006 0.10398 0.0
C223 C 0.176 0.6189 0.08495 0.0
C224 C 0.15338 0.58878 0.09098 0.0
C225 C 0.12978 0.59583 0.10277 0.0
C226 C 0.13118 0.63101 0.10926 0.0
C227 C 0.15692 0.54899 0.0862 0.0
C228 C 0.12383 0.52915 0.08181 0.0
C229 C 0.19264 0.52992 0.0866 0.0
C230 C 0.22844 0.54785 0.0922 0.0
C231 C 0.23215 0.56016 0.10702 0.0
C232 C 0.26583 0.57743 0.11217 0.0
C233 C 0.29614 0.58219 0.10264 0.0
C234 C 0.29287 0.56958 0.08796 0.0
C235 C 0.25921 0.55236 0.08275 0.0
H236 H 0.3222 0.59556 0.10664 0.0
H237 H 0.996 0.4214 0.06021 0.0
H238 H 0.9685 0.84236 0.32394 0.0
H239 H 0.90428 0.82747 0.33179 0.0
H240 H 0.94679 0.72316 0.35682 0.0
H241 H 0.01056 0.73695 0.34797 0.0
H242 H 0.88393 0.70853 0.34157 0.0
H243 H 0.92079 0.80531 0.37486 0.0
H244 H 0.94555 0.86798 0.38163 0.0
H245 H 0.85441 0.92532 0.35397 0.0
H246 H 0.82937 0.86299 0.34687 0.0
H247 H 0.71978 0.68309 0.38661 0.0
H248 H 0.78415 0.69358 0.37775 0.0
H249 H 0.74005 0.78135 0.34387 0.0
H250 H 0.67578 0.77087 0.35277 0.0
H251 H 0.80306 0.80316 0.36373 0.0
H252 H 0.7635 0.70294 0.3327 0.0
H253 H 0.73992 0.63927 0.32701 0.0
H254 H 0.83671 0.58611 0.35245 0.0
H255 H 0.86089 0.64953 0.35848 0.0
C256 C 0.96399 0.81644 0.3312 0.0
C257 C 0.99427 0.79088 0.33544 0.0
C258 C 0.92744 0.80803 0.33578 0.0
C259 C 0.92073 0.77443 0.3451 0.0
C260 C 0.95127 0.74929 0.34967 0.0
C261 C 0.98774 0.7574 0.34482 0.0
C262 C 0.88162 0.76498 0.3496 0.0
C263 C 0.86651 0.72895 0.34669 0.0
C264 C 0.85851 0.79198 0.35593 0.0
C265 C 0.87338 0.8295 0.36025 0.0
C266 C 0.90616 0.8313 0.37015 0.0
C267 C 0.92023 0.86675 0.37405 0.0
C268 C 0.90161 0.90061 0.36821 0.0
C269 C 0.86882 0.89907 0.35848 0.0
C270 C 0.85465 0.86369 0.35452 0.0
C271 C 0.72392 0.70407 0.37709 0.0
C272 C 0.69307 0.72564 0.37007 0.0
C273 C 0.76048 0.71001 0.37205 0.0
C274 C 0.76662 0.73806 0.36013 0.0
C275 C 0.73569 0.75939 0.35302 0.0
C276 C 0.69906 0.75307 0.35793 0.0
C277 C 0.80568 0.74681 0.35576 0.0
C278 C 0.82068 0.7827 0.35871 0.0
C279 C 0.82875 0.71944 0.34971 0.0
C280 C 0.81398 0.68118 0.34614 0.0
C281 C 0.77972 0.67777 0.33721 0.0
C282 C 0.76623 0.64167 0.33388 0.0
C283 C 0.78673 0.60867 0.33939 0.0
C284 C 0.82084 0.61171 0.3482 0.0
C285 C 0.8345 0.64776 0.35155 0.0
H286 H 0.77622 0.58074 0.3368 0.0
H287 H 0.91255 0.92803 0.37124 0.0
H288 H 0.73549 0.71644 0.58002 0.0
H289 H 0.75069 0.65001 0.58984 0.0
H290 H 0.6344 0.61775 0.5789 0.0
H291 H 0.6192 0.68437 0.56952 0.0
H292 H 0.65904 0.58383 0.60595 0.0
H293 H 0.70532 0.60142 0.55551 0.0
H294 H 0.74325 0.63235 0.53529 0.0
H295 H 0.84633 0.60478 0.56272 0.0
H296 H 0.80901 0.57409 0.58321 0.0
H297 H 0.69358 0.38996 0.58164 0.0
H298 H 0.70871 0.45775 0.57729 0.0
H299 H 0.72885 0.46428 0.62587 0.0
H300 H 0.71343 0.39588 0.63023 0.0
H301 H 0.75966 0.51287 0.58259 0.0
H302 H 0.67781 0.542 0.63485 0.0
H303 H 0.63391 0.50891 0.65239 0.0
H304 H 0.59218 0.44028 0.61677 0.0
H305 H 0.63536 0.4734 0.59899 0.0
C306 C 0.71322 0.69511 0.57995 0.0
C307 C 0.67625 0.70522 0.57403 0.0
C308 C 0.72191 0.65722 0.58543 0.0
C309 C 0.69377 0.62876 0.585 0.0
C310 C 0.65658 0.63915 0.57939 0.0
C311 C 0.64792 0.67704 0.57394 0.0
C312 C 0.70307 0.58792 0.58992 0.0
C313 C 0.68139 0.56851 0.60098 0.0
C314 C 0.73191 0.56764 0.58332 0.0
C315 C 0.75436 0.58584 0.57096 0.0
C316 C 0.73606 0.6022 0.55728 0.0
C317 C 0.75743 0.61966 0.54577 0.0
C318 C 0.79713 0.62065 0.54775 0.0
C319 C 0.81557 0.60406 0.56122 0.0
C320 C 0.79433 0.58661 0.57278 0.0
C321 C 0.7031 0.40542 0.59134 0.0
C322 C 0.7022 0.38789 0.60626 0.0
C323 C 0.71167 0.44426 0.58885 0.0
C324 C 0.71902 0.46638 0.60126 0.0
C325 C 0.72276 0.44783 0.61612 0.0
C326 C 0.71437 0.40868 0.61862 0.0
C327 C 0.71568 0.50887 0.59864 0.0
C328 C 0.73819 0.52856 0.58792 0.0
C329 C 0.68685 0.52924 0.60521 0.0
C330 C 0.66014 0.50981 0.61569 0.0
C331 C 0.65915 0.51994 0.63077 0.0
C332 C 0.6344 0.50119 0.64074 0.0
C333 C 0.61038 0.47241 0.63572 0.0
C334 C 0.61088 0.46249 0.62067 0.0
C335 C 0.63546 0.48125 0.61064 0.0
H336 H 0.59133 0.45786 0.64347 0.0
H337 H 0.81362 0.63417 0.53882 0.0
H338 H 0.64286 0.34553 0.83608 0.0
H339 H 0.71223 0.3487 0.84201 0.0
H340 H 0.72529 0.23608 0.82638 0.0
H341 H 0.65628 0.2333 0.82039 0.0
H342 H 0.76141 0.24573 0.85575 0.0
H343 H 0.74941 0.30696 0.80441 0.0
H344 H 0.7242 0.35576 0.78448 0.0
H345 H 0.77367 0.44498 0.80979 0.0
H346 H 0.79841 0.39676 0.83006 0.0
H347 H 0.95707 0.24692 0.82898 0.0
H348 H 0.89208 0.27162 0.8246 0.0
H349 H 0.8906 0.29308 0.87213 0.0
H350 H 0.95601 0.26815 0.87659 0.0
H351 H 0.84833 0.33636 0.82886 0.0
H352 H 0.80655 0.25314 0.88383 0.0
H353 H 0.83134 0.2013 0.9026 0.0
H354 H 0.88938 0.15107 0.86754 0.0
H355 H 0.86448 0.20228 0.84855 0.0
C356 C 0.66087 0.32182 0.83381 0.0
C357 C 0.64481 0.28933 0.82769 0.0
C358 C 0.70023 0.32356 0.83718 0.0
C359 C 0.72374 0.29257 0.83465 0.0
C360 C 0.70757 0.26023 0.82844 0.0
C361 C 0.6684 0.25876 0.82489 0.0
C362 C 0.7652 0.29319 0.83869 0.0
C363 C 0.78035 0.26588 0.85001 0.0
C364 C 0.78983 0.31936 0.83113 0.0
C365 C 0.77535 0.34828 0.81885 0.0
C366 C 0.75459 0.33701 0.80581 0.0
C367 C 0.74044 0.36455 0.79443 0.0
C368 C 0.74728 0.40343 0.79588 0.0
C369 C 0.76834 0.41485 0.80869 0.0
C370 C 0.7824 0.38743 0.82014 0.0
C371 C 0.94329 0.25794 0.83841 0.0
C372 C 0.96137 0.25537 0.85315 0.0
C373 C 0.90624 0.2723 0.83586 0.0
C374 C 0.88639 0.28378 0.84806 0.0
C375 C 0.90547 0.28424 0.86257 0.0
C376 C 0.94284 0.27018 0.86509 0.0
C377 C 0.8445 0.28891 0.84595 0.0
C378 C 0.82924 0.31703 0.83492 0.0
C379 C 0.81965 0.26316 0.85363 0.0
C380 C 0.83405 0.23176 0.86485 0.0
C381 C 0.8245 0.23094 0.88014 0.0
C382 C 0.83856 0.20168 0.89081 0.0
C383 C 0.86203 0.17299 0.88628 0.0
C384 C 0.87131 0.17338 0.87105 0.0
C385 C 0.85724 0.20251 0.86033 0.0
H386 H 0.87296 0.15042 0.89456 0.0
H387 H 0.73634 0.42471 0.78706 0.0
H388 H 0.06598 0.63371 0.89197 0.0
H389 H 0.04668 0.5717 0.88275 0.0
H390 H 0.96624 0.5572 0.91787 0.0
H391 H 0.98512 0.61952 0.9268 0.0
H392 H 0.01969 0.49758 0.91822 0.0
H393 H 0.93241 0.56793 0.88227 0.0
H394 H 0.91357 0.61839 0.86196 0.0
H395 H 0.9901 0.57136 0.8321 0.0
H396 H 0.00987 0.52094 0.85232 0.0
H397 H 0.98658 0.31202 0.9019 0.0
H398 H 0.96453 0.37786 0.90366 0.0
H399 H 0.02841 0.41581 0.86489 0.0
H400 H 0.04833 0.34975 0.86263 0.0
H401 H 0.97303 0.4647 0.86659 0.0
H402 H 0.07003 0.40569 0.90198 0.0
H403 H 0.0965 0.35679 0.92162 0.0
H404 H 0.01123 0.38491 0.95184 0.0
H405 H 0.98388 0.43361 0.93226 0.0
C406 C 0.04337 0.61767 0.89733 0.0
C407 C 0.02683 0.63106 0.91 0.0
C408 C 0.03238 0.58237 0.89212 0.0
C409 C 0.00491 0.55993 0.8996 0.0
C410 C 0.98734 0.57413 0.9119 0.0
C411 C 0.99803 0.60956 0.91698 0.0
C412 C 0.99799 0.5199 0.89583 0.0
C413 C 0.00857 0.49037 0.90705 0.0
C414 C 0.98482 0.51063 0.88109 0.0
C415 C 0.97282 0.54079 0.86887 0.0
C416 C 0.94546 0.56852 0.87142 0.0
C417 C 0.93457 0.59709 0.85991 0.0
C418 C 0.95068 0.59812 0.84576 0.0
C419 C 0.97766 0.57053 0.84307 0.0
C420 C 0.98868 0.54192 0.85455 0.0
C421 C 0.99394 0.33417 0.89325 0.0
C422 C 0.01891 0.32609 0.8821 0.0
C423 C 0.9818 0.37186 0.89435 0.0
C424 C 0.99599 0.40205 0.88476 0.0
C425 C 0.01728 0.39318 0.8725 0.0
C426 C 0.02856 0.35536 0.87116 0.0
C427 C 0.99475 0.44232 0.88901 0.0
C428 C 0.98316 0.47189 0.87788 0.0
C429 C 0.00805 0.4519 0.90375 0.0
C430 C 0.02462 0.42291 0.9156 0.0
C431 C 0.0568 0.40127 0.91278 0.0
C432 C 0.07195 0.3736 0.9239 0.0
C433 C 0.05548 0.36766 0.93795 0.0
C434 C 0.02389 0.38948 0.94093 0.0
C435 C 0.00853 0.4171 0.92983 0.0
H436 H 0.06724 0.34621 0.94654 0.0
H437 H 0.94221 0.62027 0.83686 0.0
H438 H 0.74209 0.73349 0.18803 0.0
H439 H 0.81124 0.72921 0.18549 0.0
H440 H 0.81397 0.85068 0.17238 0.0
H441 H 0.74487 0.85471 0.17494 0.0
H442 H 0.85091 0.745 0.16001 0.0
H443 H 0.8998 0.88657 0.18568 0.0
H444 H 0.88357 0.92557 0.20648 0.0
H445 H 0.83559 0.82679 0.23035 0.0
H446 H 0.85203 0.78707 0.20982 0.0
H447 H 0.02761 0.86142 0.14396 0.0
H448 H 0.96864 0.8534 0.15697 0.0
H449 H 0.99302 0.73273 0.1667 0.0
H450 H 0.05274 0.74078 0.15352 0.0
H451 H 0.94559 0.82863 0.1848 0.0
H452 H 0.90632 0.6854 0.16142 0.0
H453 H 0.92291 0.64578 0.14082 0.0
H454 H 0.95073 0.74721 0.11287 0.0
H455 H 0.93383 0.78738 0.13322 0.0
C456 C 0.75771 0.75926 0.18483 0.0
C457 C 0.73838 0.79446 0.18174 0.0
C458 C 0.79711 0.7568 0.18329 0.0
C459 C 0.81804 0.78965 0.17886 0.0
C460 C 0.79868 0.82499 0.176 0.0
C461 C 0.75923 0.82731 0.17738 0.0
C462 C 0.85966 0.78689 0.17645 0.0
C463 C 0.87171 0.76272 0.16569 0.0
C464 C 0.88696 0.81016 0.18373 0.0
C465 C 0.87683 0.83392 0.19611 0.0
C466 C 0.88588 0.87313 0.19538 0.0
C467 C 0.87665 0.89537 0.20713 0.0
C468 C 0.85847 0.8787 0.21971 0.0
C469 C 0.84954 0.83972 0.22057 0.0
C470 C 0.85874 0.81734 0.20887 0.0
C471 C 0.02092 0.83326 0.14916 0.0
C472 C 0.04469 0.80165 0.14757 0.0
C473 C 0.98713 0.82873 0.15665 0.0
C474 C 0.97586 0.79237 0.16262 0.0
C475 C 1.00081 0.76104 0.16202 0.0
C476 C 0.03508 0.76567 0.15459 0.0
C477 C 0.93656 0.78753 0.16808 0.0
C478 C 0.92488 0.81038 0.17937 0.0
C479 C 0.90957 0.76302 0.16131 0.0
C480 C 0.91931 0.73927 0.14892 0.0
C481 C 0.91591 0.6992 0.15086 0.0
C482 C 0.92535 0.67667 0.13923 0.0
C483 C 0.93802 0.69396 0.12557 0.0
C484 C 0.94107 0.73383 0.12348 0.0
C485 C 0.93159 0.75649 0.13506 0.0
H486 H 0.94536 0.67646 0.11659 0.0
H487 H 0.85136 0.89596 0.22879 0.0
H488 H 0.49667 0.26155 0.4369 0.0
H489 H 0.50059 0.33205 0.43453 0.0
H490 H 0.6018 0.32528 0.40955 0.0
H491 H 0.59701 0.25474 0.41156 0.0
H492 H 0.59807 0.38415 0.43515 0.0
H493 H 0.53652 0.34127 0.38815 0.0
H494 H 0.4883 0.30364 0.37446 0.0
H495 H 0.39903 0.36185 0.39467 0.0
H496 H 0.44685 0.3993 0.40873 0.0
H497 H 0.61353 0.56604 0.39333 0.0
H498 H 0.61329 0.50013 0.40505 0.0
H499 H 0.49215 0.50885 0.40981 0.0
H500 H 0.49239 0.57422 0.39737 0.0
H501 H 0.5041 0.4485 0.39701 0.0
H502 H 0.56181 0.49803 0.44128 0.0
H503 H 0.60744 0.53555 0.45627 0.0
H504 H 0.69984 0.46667 0.44386 0.0
H505 H 0.6549 0.42912 0.42853 0.0
C506 C 0.51994 0.27532 0.4311 0.0
C507 C 0.54648 0.25317 0.42435 0.0
C508 C 0.52225 0.31538 0.42978 0.0
C509 C 0.55161 0.33383 0.42193 0.0
C510 C 0.57915 0.31157 0.41576 0.0
C511 C 0.57633 0.2715 0.41681 0.0
C512 C 0.55126 0.37622 0.41884 0.0
C513 C 0.57782 0.3984 0.42674 0.0
C514 C 0.52397 0.39472 0.40826 0.0
C515 C 0.49524 0.37271 0.39962 0.0
C516 C 0.50663 0.34576 0.38979 0.0
C517 C 0.47937 0.32452 0.38194 0.0
C518 C 0.44062 0.33027 0.38372 0.0
C519 C 0.42906 0.35737 0.39332 0.0
C520 C 0.45622 0.37861 0.40123 0.0
C521 C 0.58719 0.55424 0.39741 0.0
C522 C 0.5531 0.5752 0.39472 0.0
C523 C 0.58698 0.5165 0.40411 0.0
C524 C 0.55269 0.49922 0.40844 0.0
C525 C 0.51898 0.52128 0.40656 0.0
C526 C 0.51914 0.55878 0.39963 0.0
C527 C 0.55128 0.45723 0.41322 0.0
C528 C 0.52429 0.43481 0.40559 0.0
C529 C 0.57783 0.43875 0.42425 0.0
C530 C 0.60496 0.4609 0.43364 0.0
C531 C 0.59189 0.49101 0.44165 0.0
C532 C 0.61763 0.51229 0.45022 0.0
C533 C 0.6565 0.50355 0.451 0.0
C534 C 0.66971 0.47342 0.44324 0.0
C535 C 0.64411 0.4521 0.43462 0.0
H536 H 0.67637 0.52009 0.45763 0.0
H537 H 0.41956 0.31381 0.37764 0.0
H538 H 0.10177 0.26991 0.65333 0.0
H539 H 0.03639 0.27447 0.64169 0.0
H540 H 0.01692 0.37529 0.66529 0.0
H541 H 0.08253 0.37122 0.67645 0.0
H542 H 0.97404 0.26596 0.65563 0.0
H543 H 0.94576 0.43072 0.64734 0.0
H544 H 0.98031 0.48983 0.63966 0.0
H545 H 0.05621 0.42528 0.61504 0.0
H546 H 0.02182 0.36588 0.62237 0.0
H547 H 0.78432 0.29939 0.66175 0.0
H548 H 0.85203 0.31439 0.66391 0.0
H549 H 0.85231 0.33449 0.6149 0.0
H550 H 0.78365 0.31986 0.61271 0.0
H551 H 0.90574 0.38251 0.63213 0.0
H552 H 0.87453 0.25052 0.62781 0.0
H553 H 0.83953 0.1908 0.63405 0.0
H554 H 0.88501 0.18749 0.68056 0.0
H555 H 0.91976 0.2476 0.67465 0.0
C556 C 0.08375 0.29359 0.65564 0.0
C557 C 0.09707 0.32021 0.66577 0.0
C558 C 0.04632 0.29607 0.6491 0.0
C559 C 0.02149 0.32534 0.65251 0.0
C560 C 0.03543 0.35279 0.66221 0.0
C561 C 0.07283 0.35034 0.66869 0.0
C562 C 0.98022 0.32509 0.6472 0.0
C563 C 0.95938 0.29145 0.65037 0.0
C564 C 0.96072 0.3581 0.64012 0.0
C565 C 0.98135 0.39377 0.63552 0.0
C566 C 0.9697 0.42915 0.64022 0.0
C567 C 0.98929 0.46271 0.63595 0.0
C568 C 0.0205 0.4613 0.62691 0.0
C569 C 0.03212 0.42632 0.62209 0.0
C570 C 0.01262 0.39268 0.62632 0.0
C571 C 0.79842 0.30847 0.65145 0.0
C572 C 0.77877 0.30832 0.63706 0.0
C573 C 0.83721 0.31685 0.6527 0.0
C574 C 0.85748 0.32477 0.63957 0.0
C575 C 0.83726 0.32834 0.6252 0.0
C576 C 0.79801 0.32019 0.62395 0.0
C577 C 0.89997 0.32383 0.64101 0.0
C578 C 0.9208 0.35707 0.6372 0.0
C579 C 0.91977 0.2903 0.64726 0.0
C580 C 0.89955 0.2537 0.6508 0.0
C581 C 0.87689 0.23718 0.63939 0.0
C582 C 0.8571 0.20326 0.64287 0.0
C583 C 0.86 0.18539 0.6577 0.0
C584 C 0.88278 0.20137 0.66908 0.0
C585 C 0.90256 0.23535 0.66567 0.0
H586 H 0.84464 0.15914 0.66038 0.0
H587 H 0.03563 0.48731 0.62361 0.0
H588 H 0.25071 0.3466 0.69312 0.0
H589 H 0.3194 0.34244 0.68966 0.0
H590 H 0.29983 0.24567 0.66296 0.0
H591 H 0.23114 0.24984 0.66655 0.0
H592 H 0.36698 0.23797 0.68294 0.0
H593 H 0.30648 0.33033 0.645 0.0
H594 H 0.26739 0.38767 0.63666 0.0
H595 H 0.34482 0.45727 0.66187 0.0
H596 H 0.38404 0.40014 0.67057 0.0
H597 H 0.52685 0.24007 0.63687 0.0
H598 H 0.46604 0.23724 0.64897 0.0
H599 H 0.48682 0.34948 0.66466 0.0
H600 H 0.54633 0.35324 0.65146 0.0
H601 H 0.42058 0.34996 0.65341 0.0
H602 H 0.48995 0.25691 0.68635 0.0
H603 H 0.52672 0.19897 0.69542 0.0
H604 H 0.43517 0.12845 0.67972 0.0
H605 H 0.39744 0.186 0.6706 0.0
C606 C 0.2613 0.32405 0.68678 0.0
C607 C 0.2358 0.29866 0.68003 0.0
C608 C 0.30045 0.32174 0.68475 0.0
C609 C 0.31484 0.29386 0.67597 0.0
C610 C 0.28949 0.26735 0.66981 0.0
C611 C 0.2503 0.26989 0.67174 0.0
C612 C 0.35559 0.2944 0.67209 0.0
C613 C 0.37888 0.2622 0.67638 0.0
C614 C 0.37126 0.32654 0.66393 0.0
C615 C 0.34794 0.36093 0.65857 0.0
C616 C 0.315 0.35782 0.64886 0.0
C617 C 0.29284 0.39028 0.64406 0.0
C618 C 0.30356 0.42608 0.64876 0.0
C619 C 0.33652 0.4295 0.65826 0.0
C620 C 0.35872 0.3971 0.66313 0.0
C621 C 0.51876 0.26364 0.64326 0.0
C622 C 0.54132 0.29663 0.64346 0.0
C623 C 0.48398 0.26203 0.65023 0.0
C624 C 0.47165 0.29292 0.658 0.0
C625 C 0.4954 0.3252 0.65878 0.0
C626 C 0.5296 0.32727 0.65138 0.0
C627 C 0.43274 0.29309 0.66407 0.0
C628 C 0.40946 0.32559 0.66016 0.0
C629 C 0.41733 0.26101 0.67258 0.0
C630 C 0.44049 0.22615 0.67787 0.0
C631 C 0.47737 0.22919 0.68486 0.0
C632 C 0.49854 0.19631 0.68999 0.0
C633 C 0.48334 0.16005 0.68815 0.0
C634 C 0.44689 0.15658 0.68118 0.0
C635 C 0.42552 0.18938 0.67608 0.0
H636 H 0.49981 0.13462 0.69212 0.0
H637 H 0.28638 0.45119 0.64503 0.0
H638 H 0.60438 0.86979 0.163 0.0
H639 H 0.53779 0.88022 0.15293 0.0
H640 H 0.51837 0.75832 0.15886 0.0
H641 H 0.58438 0.74835 0.16911 0.0
H642 H 0.49021 0.85712 0.12967 0.0
H643 H 0.43352 0.74095 0.17339 0.0
H644 H 0.45136 0.71071 0.19918 0.0
H645 H 0.51433 0.81101 0.20992 0.0
H646 H 0.49642 0.8421 0.18428 0.0
H647 H 0.30902 0.77299 0.1129 0.0
H648 H 0.37506 0.79199 0.11851 0.0
H649 H 0.33851 0.86026 0.15357 0.0
H650 H 0.27194 0.84215 0.14757 0.0
H651 H 0.39328 0.80239 0.16386 0.0
H652 H 0.3781 0.90655 0.12642 0.0
H653 H 0.35852 0.94002 0.10142 0.0
H654 H 0.43683 0.87131 0.07963 0.0
H655 H 0.45646 0.83694 0.1045 0.0
C656 C 0.58594 0.84535 0.16176 0.0
C657 C 0.59922 0.8083 0.16678 0.0
C658 C 0.54795 0.85124 0.15608 0.0
C659 C 0.52272 0.82014 0.1554 0.0
C660 C 0.53693 0.78289 0.15952 0.0
C661 C 0.57466 0.7771 0.16525 0.0
C662 C 0.48112 0.82634 0.15137 0.0
C663 C 0.46904 0.84525 0.13716 0.0
C664 C 0.45323 0.81196 0.16132 0.0
C665 C 0.46378 0.79375 0.17687 0.0
C666 C 0.451 0.75665 0.18128 0.0
C667 C 0.46116 0.73934 0.19587 0.0
C668 C 0.48398 0.75891 0.20617 0.0
C669 C 0.49669 0.79586 0.20192 0.0
C670 C 0.48658 0.81333 0.18735 0.0
C671 C 0.31492 0.79342 0.12133 0.0
C672 C 0.28542 0.80656 0.12966 0.0
C673 C 0.35268 0.80411 0.12459 0.0
C674 C 0.36183 0.82745 0.13649 0.0
C675 C 0.33211 0.84233 0.1443 0.0
C676 C 0.29409 0.83231 0.14077 0.0
C677 C 0.40248 0.83175 0.14193 0.0
C678 C 0.41442 0.81467 0.15643 0.0
C679 C 0.43004 0.84828 0.13235 0.0
C680 C 0.41858 0.86895 0.11734 0.0
C681 C 0.39094 0.89833 0.11629 0.0
C682 C 0.37987 0.91752 0.10214 0.0
C683 C 0.39638 0.90776 0.08894 0.0
C684 C 0.42406 0.87883 0.08987 0.0
C685 C 0.43522 0.85952 0.104 0.0
H686 H 0.38777 0.92264 0.07799 0.0
H687 H 0.49169 0.74548 0.21746 0.0
H688 H 0.50394 0.20908 0.8307 0.0
H689 H 0.43846 0.20065 0.8385 0.0
H690 H 0.4389 0.31607 0.85239 0.0
H691 H 0.50473 0.3241 0.84467 0.0
H692 H 0.40114 0.26511 0.87197 0.0
H693 H 0.39822 0.30182 0.81709 0.0
H694 H 0.41748 0.29465 0.79096 0.0
H695 H 0.37758 0.17846 0.79388 0.0
H696 H 0.35909 0.18477 0.82017 0.0
H697 H 0.20865 0.30968 0.87007 0.0
H698 H 0.2741 0.31061 0.8623 0.0
H699 H 0.26219 0.19463 0.84958 0.0
H700 H 0.19633 0.19351 0.8574 0.0
H701 H 0.30602 0.24119 0.82979 0.0
H702 H 0.30089 0.20713 0.88353 0.0
H703 H 0.28127 0.21459 0.90955 0.0
H704 H 0.33785 0.32327 0.90948 0.0
H705 H 0.35731 0.31674 0.88335 0.0
C706 C 0.49012 0.23217 0.83574 0.0
C707 C 0.50875 0.26723 0.83709 0.0
C708 C 0.45285 0.22751 0.84009 0.0
C709 C 0.43369 0.25803 0.84571 0.0
C710 C 0.45323 0.29226 0.84801 0.0
C711 C 0.49065 0.29684 0.84369 0.0
C712 C 0.39258 0.25518 0.8482 0.0
C713 C 0.38029 0.2601 0.86275 0.0
C714 C 0.36559 0.24772 0.83622 0.0
C715 C 0.37691 0.24386 0.82049 0.0
C716 C 0.39363 0.27476 0.81214 0.0
C717 C 0.40451 0.27083 0.79733 0.0
C718 C 0.39866 0.23616 0.79074 0.0
C719 C 0.38199 0.20534 0.79897 0.0
C720 C 0.37123 0.2091 0.8138 0.0
C721 C 0.21974 0.2846 0.86536 0.0
C722 C 0.19758 0.25144 0.8644 0.0
C723 C 0.25711 0.28516 0.86096 0.0
C724 C 0.27314 0.2524 0.85571 0.0
C725 C 0.2503 0.2201 0.8537 0.0
C726 C 0.21272 0.21955 0.85811 0.0
C727 C 0.31448 0.25117 0.85356 0.0
C728 C 0.32684 0.24559 0.83907 0.0
C729 C 0.34158 0.25773 0.86564 0.0
C730 C 0.33028 0.26158 0.88143 0.0
C731 C 0.30892 0.23274 0.88902 0.0
C732 C 0.29786 0.23679 0.9038 0.0
C733 C 0.30824 0.26942 0.91116 0.0
C734 C 0.3298 0.29803 0.90376 0.0
C735 C 0.34088 0.29415 0.88897 0.0
H736 H 0.29965 0.2725 0.92259 0.0
H737 H 0.40711 0.23317 0.77927 0.0
H738 H 0.14568 0.85145 0.31745 0.0
H739 H 0.2151 0.84587 0.3226 0.0
H740 H 0.2006 0.73345 0.34564 0.0
H741 H 0.13144 0.73961 0.3407 0.0
H742 H 0.25106 0.7707 0.36138 0.0
H743 H 0.22982 0.74696 0.30844 0.0
H744 H 0.20657 0.76148 0.28155 0.0
H745 H 0.27597 0.86238 0.27854 0.0
H746 H 0.2995 0.84856 0.30545 0.0
H747 H 0.43702 0.69703 0.33266 0.0
H748 H 0.37255 0.72156 0.32747 0.0
H749 H 0.38859 0.79462 0.36447 0.0
H750 H 0.4529 0.76811 0.37029 0.0
H751 H 0.33848 0.78514 0.31914 0.0
H752 H 0.30507 0.80275 0.38132 0.0
H753 H 0.32734 0.77847 0.40752 0.0
H754 H 0.36436 0.67352 0.39091 0.0
H755 H 0.34193 0.69704 0.36467 0.0
C756 C 0.15761 0.8257 0.32362 0.0
C757 C 0.13359 0.79607 0.32881 0.0
C758 C 0.19711 0.82244 0.32654 0.0
C759 C 0.21318 0.78913 0.33446 0.0
C760 C 0.18895 0.75955 0.33964 0.0
C761 C 0.14954 0.76301 0.33683 0.0
C762 C 0.25517 0.78449 0.33721 0.0
C763 C 0.27018 0.77415 0.35215 0.0
C764 C 0.28021 0.7886 0.32518 0.0
C765 C 0.2661 0.79696 0.309 0.0
C766 C 0.2399 0.7724 0.30207 0.0
C767 C 0.2267 0.78048 0.28683 0.0
C768 C 0.23963 0.81294 0.27836 0.0
C769 C 0.26591 0.8373 0.28512 0.0
C770 C 0.27924 0.82933 0.30036 0.0
C771 C 0.42707 0.7185 0.33969 0.0
C772 C 0.45024 0.73056 0.35198 0.0
C773 C 0.39013 0.73277 0.3366 0.0
C774 C 0.37534 0.75967 0.34566 0.0
C775 C 0.39907 0.77344 0.35744 0.0
C776 C 0.43606 0.75869 0.36066 0.0
C777 C 0.33432 0.77069 0.34329 0.0
C778 C 0.31946 0.78237 0.32842 0.0
C779 C 0.30919 0.76651 0.3553 0.0
C780 C 0.32225 0.75186 0.37104 0.0
C781 C 0.31788 0.77447 0.38329 0.0
C782 C 0.33053 0.76085 0.39813 0.0
C783 C 0.34738 0.72454 0.40087 0.0
C784 C 0.35144 0.70169 0.38877 0.0
C785 C 0.33878 0.71516 0.37391 0.0
H786 H 0.35721 0.71407 0.41236 0.0
H787 H 0.22943 0.81915 0.26656 0.0
H788 H 0.60255 0.85795 0.56157 0.0
H789 H 0.60361 0.92564 0.5671 0.0
H790 H 0.7229 0.91454 0.58152 0.0
H791 H 0.7217 0.84704 0.5759 0.0
H792 H 0.6842 0.94818 0.60195 0.0
H793 H 0.69063 0.96271 0.54712 0.0
H794 H 0.66914 0.95581 0.52029 0.0
H795 H 0.56531 0.01576 0.52639 0.0
H796 H 0.58591 0.02259 0.55331 0.0
H797 H 0.73739 0.1351 0.61094 0.0
H798 H 0.73165 0.07451 0.59915 0.0
H799 H 0.61258 0.09803 0.58732 0.0
H800 H 0.61845 0.15933 0.59901 0.0
H801 H 0.64583 0.05905 0.56532 0.0
H802 H 0.63679 0.04419 0.61937 0.0
H803 H 0.65624 0.05269 0.64627 0.0
H804 H 0.76124 0.99298 0.64192 0.0
H805 H 0.74267 0.98464 0.6149 0.0
C806 C 0.629 0.87026 0.56577 0.0
C807 C 0.66204 0.84742 0.56837 0.0
C808 C 0.62964 0.90888 0.56889 0.0
C809 C 0.66343 0.92539 0.57461 0.0
C810 C 0.69649 0.90251 0.57712 0.0
C811 C 0.69581 0.86397 0.57399 0.0
C812 C 0.66411 0.96577 0.57881 0.0
C813 C 0.67629 0.97238 0.59385 0.0
C814 C 0.65226 0.9974 0.56845 0.0
C815 C 0.63964 0.99273 0.55231 0.0
C816 C 0.66302 0.97405 0.5428 0.0
C817 C 0.65104 0.97027 0.52755 0.0
C818 C 0.61585 0.98531 0.52164 0.0
C819 C 0.59256 0.00415 0.53097 0.0
C820 C 0.60438 0.00797 0.54622 0.0
C821 C 0.71019 0.12779 0.6055 0.0
C822 C 0.67837 0.15188 0.60588 0.0
C823 C 0.7069 0.09309 0.59881 0.0
C824 C 0.67148 0.08126 0.59267 0.0
C825 C 0.64016 0.10649 0.59205 0.0
C826 C 0.64357 0.1416 0.59865 0.0
C827 C 0.66687 0.04124 0.5883 0.0
C828 C 0.65371 0.03472 0.57336 0.0
C829 C 0.67733 0.00947 0.59878 0.0
C830 C 0.68846 0.01407 0.61507 0.0
C831 C 0.66414 0.03309 0.62412 0.0
C832 C 0.675 0.03786 0.63939 0.0
C833 C 0.70999 0.02345 0.64579 0.0
C834 C 0.73416 0.00416 0.63694 0.0
C835 C 0.72347 0.99937 0.62165 0.0
H836 H 0.71835 0.02718 0.65761 0.0
H837 H 0.60666 0.98244 0.50982 0.0
H838 H 0.22257 0.20218 0.05194 0.0
H839 H 0.23821 0.13492 0.06019 0.0
H840 H 0.17777 0.14377 0.10094 0.0
H841 H 0.16038 0.21038 0.09229 0.0
H842 H 0.25341 0.10566 0.10548 0.0
H843 H 0.13282 0.1013 0.07558 0.0
H844 H 0.08867 0.11321 0.05281 0.0
H845 H 0.16604 0.05695 0.0259 0.0
H846 H 0.21071 0.04467 0.04858 0.0
H847 H 0.1889 0.92401 0.1328 0.0
H848 H 0.20797 0.98908 0.12459 0.0
H849 H 0.24583 0.94964 0.08283 0.0
H850 H 0.22618 0.88428 0.09111 0.0
H851 H 0.19384 1.00314 0.07661 0.0
H852 H 0.30772 0.99468 0.10765 0.0
H853 H 0.34991 0.97859 0.13069 0.0
H854 H 0.2886 0.0574 0.15516 0.0
H855 H 0.24556 0.07352 0.13233 0.0
C856 C 0.21236 0.18961 0.06258 0.0
C857 C 0.19009 0.21141 0.07145 0.0
C858 C 0.22158 0.15135 0.06735 0.0
C859 C 0.20927 0.13439 0.08121 0.0
C860 C 0.18785 0.1564 0.09028 0.0
C861 C 0.17803 0.19442 0.08536 0.0
C862 C 0.21711 0.09321 0.08594 0.0
C863 C 0.24036 0.08313 0.09924 0.0
C864 C 0.20128 0.06389 0.07746 0.0
C865 C 0.17526 0.07249 0.06371 0.0
C866 C 0.14061 0.09186 0.06477 0.0
C867 C 0.11541 0.09846 0.05191 0.0
C868 C 0.12455 0.08583 0.03792 0.0
C869 C 0.159 0.06667 0.03675 0.0
C870 C 0.18423 0.05981 0.04961 0.0
C871 C 0.20334 0.92888 0.12229 0.0
C872 C 0.20672 0.89913 0.11271 0.0
C873 C 0.21406 0.96621 0.11752 0.0
C874 C 0.22827 0.97451 0.10302 0.0
C875 C 0.23494 0.94403 0.09405 0.0
C876 C 0.22426 0.90657 0.09887 0.0
C877 C 0.22966 0.01514 0.09641 0.0
C878 C 0.20792 0.02535 0.08273 0.0
C879 C 0.24724 0.04443 0.10449 0.0
C880 C 0.27323 0.03517 0.11826 0.0
C881 C 0.30303 0.00841 0.11797 0.0
C882 C 0.32714 0.9993 0.13099 0.0
C883 C 0.32191 0.01693 0.14439 0.0
C884 C 0.29261 0.04377 0.14477 0.0
C885 C 0.26838 0.05296 0.13177 0.0
H886 H 0.3406 0.00984 0.15447 0.0
H887 H 0.10487 0.09081 0.028 0.0
H888 H 0.56178 0.12912 0.39365 0.0
H889 H 0.54906 0.06876 0.38185 0.0
H890 H 0.45346 0.04782 0.40984 0.0
H891 H 0.46615 0.10817 0.42147 0.0
H892 H 0.50368 0.98861 0.41286 0.0
H893 H 0.4392 0.06526 0.37148 0.0
H894 H 0.43234 0.11839 0.35124 0.0
H895 H 0.52604 0.07378 0.32895 0.0
H896 H 0.53386 0.02067 0.34917 0.0
H897 H 0.47998 0.80663 0.38877 0.0
H898 H 0.45839 0.87255 0.39062 0.0
H899 H 0.54561 0.91419 0.36111 0.0
H900 H 0.56547 0.84837 0.35854 0.0
H901 H 0.48939 0.96382 0.35812 0.0
H902 H 0.56269 0.89739 0.40053 0.0
H903 H 0.57572 0.84534 0.42088 0.0
H904 H 0.47248 0.87269 0.44142 0.0
H905 H 0.45859 0.92458 0.42104 0.0
C906 C 0.53745 0.11205 0.39689 0.0
C907 C 0.51501 0.12295 0.40847 0.0
C908 C 0.53017 0.07762 0.39019 0.0
C909 C 0.50026 0.0537 0.39496 0.0
C910 C 0.4767 0.06571 0.40599 0.0
C911 C 0.48391 0.10009 0.41262 0.0
C912 C 0.49615 0.01442 0.38978 0.0
C913 C 0.49962 0.98325 0.4009 0.0
C914 C 0.49207 0.00734 0.37416 0.0
C915 C 0.48728 0.03911 0.36191 0.0
C916 C 0.45854 0.06693 0.36232 0.0
C917 C 0.45444 0.09702 0.35084 0.0
C918 C 0.47878 0.0995 0.33883 0.0
C919 C 0.50722 0.07184 0.33826 0.0
C920 C 0.51146 0.0417 0.34972 0.0
C921 C 0.49274 0.82968 0.38186 0.0
C922 C 0.52384 0.8224 0.37325 0.0
C923 C 0.48096 0.86749 0.38318 0.0
C924 C 0.50108 0.89852 0.37635 0.0
C925 C 0.52966 0.89094 0.36654 0.0
C926 C 0.54096 0.85324 0.36504 0.0
C927 C 0.497 0.93807 0.38122 0.0
C928 C 0.49246 0.96926 0.37009 0.0
C929 C 0.5009 0.94539 0.39685 0.0
C930 C 0.50938 0.9145 0.40918 0.0
C931 C 0.54268 0.89213 0.40935 0.0
C932 C 0.55022 0.86268 0.42088 0.0
C933 C 0.52488 0.85563 0.43241 0.0
C934 C 0.49202 0.87812 0.43246 0.0
C935 C 0.4843 0.90754 0.42092 0.0
H936 H 0.53076 0.83282 0.44133 0.0
H937 H 0.47557 0.12283 0.32995 0.0
H938 H 0.11225 0.77018 0.92864 0.0
H939 H 0.11273 0.84074 0.92665 0.0
H940 H 0.99338 0.8423 0.91198 0.0
H941 H 0.99274 0.77202 0.91443 0.0
H942 H 0.03904 0.88586 0.89242 0.0
H943 H 0.02218 0.86453 0.94639 0.0
H944 H 0.03905 0.8404 0.97308 0.0
H945 H 0.14129 0.90732 0.97289 0.0
H946 H 0.1257 0.931 0.94606 0.0
H947 H 0.99097 0.07564 0.88496 0.0
H948 H 0.99187 0.01002 0.89677 0.0
H949 H 0.1082 0.02431 0.91382 0.0
H950 H 0.10678 0.09105 0.90244 0.0
H951 H 0.06937 0.97315 0.93307 0.0
H952 H 0.09233 0.98971 0.88006 0.0
H953 H 0.08009 0.01454 0.85314 0.0
H954 H 0.97286 0.95595 0.85137 0.0
H955 H 0.9842 0.93126 0.87837 0.0
C956 C 0.08613 0.78577 0.92516 0.0
C957 C 0.05263 0.76586 0.92138 0.0
C958 C 0.08637 0.82594 0.92408 0.0
C959 C 0.05308 0.84676 0.91918 0.0
C960 C 0.01942 0.82679 0.91574 0.0
C961 C 0.01912 0.78673 0.91696 0.0
C962 C 0.05371 0.88918 0.91637 0.0
C963 C 0.04519 0.90488 0.90137 0.0
C964 C 0.06343 0.91395 0.92796 0.0
C965 C 0.073 0.89915 0.94407 0.0
C966 C 0.04858 0.87366 0.95193 0.0
C967 C 0.05786 0.86012 0.96712 0.0
C968 C 0.09125 0.87227 0.97466 0.0
C969 C 0.11548 0.89787 0.96702 0.0
C970 C 0.10646 0.9113 0.95182 0.0
C971 C 0.01633 0.06518 0.89165 0.0
C972 C 0.04894 0.08813 0.89266 0.0
C973 C 0.01688 0.02765 0.89835 0.0
C974 C 0.05047 0.01185 0.90578 0.0
C975 C 0.08207 0.0358 0.90803 0.0
C976 C 0.08124 0.07389 0.90155 0.0
C977 C 0.05366 0.96956 0.90921 0.0
C978 C 0.06322 0.95396 0.92419 0.0
C979 C 0.04572 0.94452 0.89758 0.0
C980 C 0.03898 0.95891 0.88128 0.0
C981 C 0.06603 0.98232 0.87396 0.0
C982 C 0.05926 0.99635 0.85868 0.0
C983 C 0.02568 0.98689 0.85056 0.0
C984 C 0.99884 0.96329 0.85768 0.0
C985 C 0.00544 0.94924 0.87297 0.0
H986 H 0.02049 0.99779 0.83874 0.0
H987 H 0.0983 0.86199 0.98644 0.0
H988 H 0.19158 0.26925 0.0243 0.0
H989 H 0.17061 0.23406 0.00235 0.0
H990 H 0.09534 0.16644 0.03051 0.0
H991 H 0.11671 0.20165 0.05262 0.0
H992 H 0.14177 0.12555 0.00728 0.0
H993 H 0.05217 0.22761 0.01232 0.0
H994 H 0.03531 0.29418 0.01647 0.0
H995 H 0.09125 0.33501 0.97627 0.0
H996 H 0.10918 0.26873 0.97206 0.0
H997 H 0.03619 0.16276 0.92439 0.0
H998 H 0.03457 0.15024 0.95217 0.0
H999 H 0.15699 0.13858 0.95585 0.0
H1000 H 0.15854 0.15183 0.92825 0.0
H1001 H 0.06975 0.20723 0.96654 0.0
H1002 H 0.18571 0.09357 0.99133 0.0
H1003 H 0.20403 0.02738 0.98732 0.0
H1004 H 0.092 0.0071 0.96752 0.0
H1005 H 0.07263 0.0729 0.97171 0.0
C1006 C 0.17101 0.24646 0.0258 0.0
C1007 C 0.15547 0.23819 0.03999 0.0
C1008 C 0.1592 0.2263 0.01335 0.0
C1009 C 0.13161 0.19752 0.01488 0.0
C1010 C 0.11719 0.18803 0.02922 0.0
C1011 C 0.12913 0.20823 0.04175 0.0
C1012 C 0.11549 0.18056 0.00104 0.0
C1013 C 0.12548 0.14294 0.99841 0.0
C1014 C 0.09373 0.20331 0.98965 0.0
C1015 C 0.08222 0.24318 0.99194 0.0
C1016 C 0.06112 0.25079 0.00443 0.0
C1017 C 0.05135 0.28848 0.00679 0.0
C1018 C 0.06224 0.31881 0.99665 0.0
C1019 C 0.08284 0.31149 0.98411 0.0
C1020 C 0.09279 0.27386 0.98173 0.0
C1021 C 0.06243 0.15509 0.93106 0.0
C1022 C 0.0975 0.15836 0.92429 0.0
C1023 C 0.06154 0.14824 0.94695 0.0
C1024 C 0.0957 0.14392 0.95613 0.0
C1025 C 0.13024 0.14154 0.94905 0.0
C1026 C 0.13114 0.149 0.93324 0.0
C1027 C 0.09683 0.15222 0.97243 0.0
C1028 C 0.08459 0.18882 0.97554 0.0
C1029 C 0.11631 0.12831 0.98419 0.0
C1030 C 0.12777 0.08847 0.98175 0.0
C1031 C 0.16483 0.075 0.98621 0.0
C1032 C 0.17543 0.0375 0.9839 0.0
C1033 C 0.14922 0.01309 0.97714 0.0
C1034 C 0.11231 0.02609 0.97272 0.0
C1035 C 0.10153 0.06353 0.97504 0.0
H1036 H 0.1575 0.98409 0.97534 0.0
H1037 H 0.05468 0.34796 0.99851 0.0
H1038 H 0.06786 0.86153 0.28948 0.0
H1039 H 0.08298 0.85661 0.26283 0.0
H1040 H 0.13342 0.74512 0.2755 0.0
H1041 H 0.11833 0.75037 0.30212 0.0
H1042 H 0.17298 0.78647 0.25409 0.0
H1043 H 0.04187 0.75292 0.26174 0.0
H1044 H 0.97581 0.7625 0.26865 0.0
H1045 H 0.96344 0.85961 0.23549 0.0
H1046 H 0.02958 0.85081 0.22847 0.0
H1047 H 0.16265 0.70162 0.18487 0.0
H1048 H 0.15011 0.71524 0.21087 0.0
H1049 H 0.10003 0.82419 0.19376 0.0
H1050 H 0.11277 0.81088 0.1677 0.0
H1051 H 0.06093 0.7892 0.21685 0.0
H1052 H 0.18998 0.82051 0.20779 0.0
H1053 H 0.25513 0.80996 0.20007 0.0
H1054 H 0.2717 0.71861 0.23561 0.0
H1055 H 0.20637 0.72814 0.24337 0.0
C1056 C 0.08319 0.83661 0.28654 0.0
C1057 C 0.09205 0.80632 0.29766 0.0
C1058 C 0.09146 0.8336 0.27138 0.0
C1059 C 0.10854 0.80014 0.26717 0.0
C1060 C 0.12005 0.7711 0.27852 0.0
C1061 C 0.11176 0.77416 0.29369 0.0
C1062 C 0.11225 0.79423 0.25087 0.0
C1063 C 0.1485 0.78679 0.24597 0.0
C1064 C 0.08028 0.79559 0.24021 0.0
C1065 C 0.04086 0.80152 0.24473 0.0
C1066 C 0.02523 0.77658 0.25604 0.0
C1067 C 0.98772 0.78179 0.25994 0.0
C1068 C 0.96552 0.81177 0.25258 0.0
C1069 C 0.98073 0.83651 0.24124 0.0
C1070 C 0.0182 0.8314 0.23729 0.0
C1071 C 0.14839 0.72822 0.18661 0.0
C1072 C 0.1386 0.75515 0.17423 0.0
C1073 C 0.14144 0.73603 0.20147 0.0
C1074 C 0.12492 0.77107 0.20424 0.0
C1075 C 0.11299 0.79706 0.19185 0.0
C1076 C 0.11995 0.78924 0.17694 0.0
C1077 C 0.12164 0.78106 0.22013 0.0
C1078 C 0.08549 0.78928 0.22494 0.0
C1079 C 0.15372 0.78062 0.2307 0.0
C1080 C 0.19307 0.77476 0.22605 0.0
C1081 C 0.20736 0.79791 0.21386 0.0
C1082 C 0.24436 0.79215 0.2095 0.0
C1083 C 0.2675 0.76355 0.21731 0.0
C1084 C 0.25371 0.7407 0.22954 0.0
C1085 C 0.2167 0.74628 0.23393 0.0
H1086 H 0.29615 0.75916 0.21392 0.0
H1087 H 0.93649 0.81573 0.25561 0.0
H1088 H 0.69778 0.69957 0.54377 0.0
H1089 H 0.68282 0.6599 0.52249 0.0
H1090 H 0.57095 0.71165 0.51577 0.0
H1091 H 0.58516 0.74934 0.53762 0.0
H1092 H 0.56665 0.6393 0.50933 0.0
H1093 H 0.64989 0.74725 0.49607 0.0
H1094 H 0.70889 0.78463 0.49924 0.0
H1095 H 0.77558 0.68607 0.49144 0.0
H1096 H 0.7169 0.64802 0.48839 0.0
H1097 H 0.52198 0.69438 0.43282 0.0
H1098 H 0.53478 0.67649 0.45997 0.0
H1099 H 0.6309 0.60811 0.44997 0.0
H1100 H 0.61746 0.62572 0.42254 0.0
H1101 H 0.65169 0.6663 0.46683 0.0
H1102 H 0.56248 0.56659 0.47173 0.0
H1103 H 0.50162 0.53311 0.46754 0.0
H1104 H 0.44376 0.61829 0.49009 0.0
H1105 H 0.50418 0.65269 0.49418 0.0
C1106 C 0.66973 0.70165 0.53796 0.0
C1107 C 0.64273 0.72785 0.54212 0.0
C1108 C 0.66126 0.67919 0.52576 0.0
C1109 C 0.62602 0.6833 0.5173 0.0
C1110 C 0.59837 0.70797 0.52205 0.0
C1111 C 0.60661 0.72987 0.53438 0.0
C1112 C 0.61908 0.66551 0.50259 0.0
C1113 C 0.58525 0.64502 0.50002 0.0
C1114 C 0.64397 0.67176 0.49058 0.0
C1115 C 0.67914 0.69474 0.49217 0.0
C1116 C 0.67717 0.73356 0.49509 0.0
C1117 C 0.71053 0.75485 0.49686 0.0
C1118 C 0.74597 0.73771 0.49558 0.0
C1119 C 0.74811 0.69928 0.49246 0.0
C1120 C 0.71483 0.67785 0.4907 0.0
C1121 C 0.54451 0.6738 0.43637 0.0
C1122 C 0.56873 0.66139 0.42567 0.0
C1123 C 0.55189 0.66355 0.45192 0.0
C1124 C 0.58395 0.64105 0.45707 0.0
C1125 C 0.60594 0.62539 0.44626 0.0
C1126 C 0.5981 0.6352 0.43059 0.0
C1127 C 0.59834 0.64152 0.47331 0.0
C1128 C 0.63364 0.65906 0.47621 0.0
C1129 C 0.57452 0.63293 0.48552 0.0
C1130 C 0.53798 0.61228 0.48323 0.0
C1131 C 0.53677 0.57834 0.4757 0.0
C1132 C 0.50233 0.55917 0.47336 0.0
C1133 C 0.46884 0.57357 0.47854 0.0
C1134 C 0.46974 0.60714 0.4861 0.0
C1135 C 0.50412 0.62645 0.48846 0.0
H1136 H 0.44218 0.5587 0.47671 0.0
H1137 H 0.77177 0.75423 0.49696 0.0
H1138 H 0.60745 0.22027 0.79741 0.0
H1139 H 0.61688 0.22162 0.76995 0.0
H1140 H 0.60336 0.34469 0.76585 0.0
H1141 H 0.59475 0.34302 0.79348 0.0
H1142 H 0.55221 0.30426 0.74627 0.0
H1143 H 0.68601 0.31269 0.75969 0.0
H1144 H 0.74644 0.29381 0.77407 0.0
H1145 H 0.7394 0.18215 0.75734 0.0
H1146 H 0.67869 0.20012 0.74299 0.0
H1147 H 0.61213 0.30865 0.6664 0.0
H1148 H 0.59857 0.3231 0.69215 0.0
H1149 H 0.60353 0.20259 0.70705 0.0
H1150 H 0.61868 0.18805 0.68139 0.0
H1151 H 0.66005 0.252 0.72054 0.0
H1152 H 0.50661 0.2475 0.72753 0.0
H1153 H 0.44261 0.2647 0.71577 0.0
H1154 H 0.48782 0.36665 0.69313 0.0
H1155 H 0.5516 0.35083 0.70529 0.0
C1156 C 0.60825 0.24758 0.79068 0.0
C1157 C 0.60128 0.28161 0.79737 0.0
C1158 C 0.61325 0.2484 0.77506 0.0
C1159 C 0.61072 0.28328 0.76592 0.0
C1160 C 0.60548 0.31756 0.77275 0.0
C1161 C 0.60105 0.31671 0.78845 0.0
C1162 C 0.61003 0.28312 0.74913 0.0
C1163 C 0.57606 0.29358 0.74056 0.0
C1164 C 0.64086 0.26847 0.74182 0.0
C1165 C 0.67763 0.2577 0.75032 0.0
C1166 C 0.69718 0.28401 0.75915 0.0
C1167 C 0.73151 0.27349 0.7673 0.0
C1168 C 0.74667 0.23679 0.76666 0.0
C1169 C 0.72761 0.21057 0.75783 0.0
C1170 C 0.69327 0.22093 0.74966 0.0
C1171 C 0.60848 0.28508 0.67497 0.0
C1172 C 0.61653 0.24722 0.67193 0.0
C1173 C 0.60044 0.29341 0.68971 0.0
C1174 C 0.59933 0.2639 0.70149 0.0
C1175 C 0.60389 0.22575 0.69808 0.0
C1176 C 0.61255 0.21746 0.68343 0.0
C1177 C 0.60207 0.27275 0.71766 0.0
C1178 C 0.63646 0.26349 0.72617 0.0
C1179 C 0.57165 0.28851 0.72489 0.0
C1180 C 0.53407 0.29729 0.71687 0.0
C1181 C 0.50287 0.27344 0.71995 0.0
C1182 C 0.46655 0.28321 0.71339 0.0
C1183 C 0.4612 0.3166 0.70361 0.0
C1184 C 0.49208 0.34055 0.70056 0.0
C1185 C 0.52833 0.3312 0.70729 0.0
H1186 H 0.43315 0.32395 0.69843 0.0
H1187 H 0.77324 0.22871 0.77298 0.0
H1188 H 0.13268 0.68903 0.95023 0.0
H1189 H 0.14731 0.70073 0.97713 0.0
H1190 H 0.03658 0.75325 0.97852 0.0
H1191 H 0.02203 0.74093 0.95173 0.0
H1192 H 0.09253 0.79145 0.99394 0.0
H1193 H 0.05033 0.66118 0.99072 0.0
H1194 H 0.053 0.59639 0.98178 0.0
H1195 H 0.1657 0.58001 0.00302 0.0
H1196 H 0.164 0.64506 0.01185 0.0
H1197 H 0.05457 0.77913 0.07061 0.0
H1198 H 0.05131 0.7647 0.0439 0.0
H1199 H 0.16549 0.7184 0.04974 0.0
H1200 H 0.16907 0.73352 0.07656 0.0
H1201 H 0.11554 0.67696 0.03066 0.0
H1202 H 0.15555 0.80587 0.0356 0.0
H1203 H 0.15318 0.87128 0.04394 0.0
H1204 H 0.04511 0.89093 0.01904 0.0
H1205 H 0.04645 0.82534 0.01079 0.0
C1206 C 0.1118 0.70331 0.95635 0.0
C1207 C 0.07613 0.71365 0.94919 0.0
C1208 C 0.12007 0.70998 0.97162 0.0
C1209 C 0.09271 0.72715 0.97987 0.0
C1210 C 0.05797 0.73973 0.97238 0.0
C1211 C 0.04968 0.73285 0.95714 0.0
C1212 C 0.0992 0.73016 0.99649 0.0
C1213 C 0.09732 0.76647 0.00199 0.0
C1214 C 0.10639 0.69748 0.0069 0.0
C1215 C 0.10722 0.65816 0.00179 0.0
C1216 C 0.07581 0.64389 0.99338 0.0
C1217 C 0.07713 0.60711 0.98834 0.0
C1218 C 0.10954 0.58414 0.99179 0.0
C1219 C 0.14065 0.59787 0.00033 0.0
C1220 C 0.13953 0.6347 0.00535 0.0
C1221 C 0.07868 0.76508 0.0663 0.0
C1222 C 0.11203 0.75715 0.07565 0.0
C1223 C 0.07683 0.75702 0.05104 0.0
C1224 C 0.10841 0.74117 0.04481 0.0
C1225 C 0.14085 0.73071 0.05436 0.0
C1226 C 0.14273 0.73889 0.0697 0.0
C1227 C 0.10813 0.73829 0.02812 0.0
C1228 C 0.11119 0.70204 0.02261 0.0
C1229 C 0.102 0.77106 0.01766 0.0
C1230 C 0.10091 0.81046 0.02273 0.0
C1231 C 0.13106 0.82395 0.03205 0.0
C1232 C 0.12994 0.86111 0.03673 0.0
C1233 C 0.09896 0.88521 0.03206 0.0
C1234 C 0.06905 0.8722 0.02268 0.0
C1235 C 0.06996 0.83502 0.01801 0.0
H1236 H 0.09818 0.91399 0.03568 0.0
H1237 H 0.11051 0.55566 0.98788 0.0
H1238 H 0.68659 0.71271 0.20684 0.0
H1239 H 0.6935 0.6929 0.23429 0.0
H1240 H 0.70523 0.81142 0.24385 0.0
H1241 H 0.69987 0.8307 0.21628 0.0
H1242 H 0.74504 0.76724 0.26554 0.0
H1243 H 0.61483 0.76939 0.24439 0.0
H1244 H 0.56078 0.75404 0.22678 0.0
H1245 H 0.58158 0.63371 0.23782 0.0
H1246 H 0.63538 0.64844 0.25575 0.0
H1247 H 0.63118 0.75202 0.33326 0.0
H1248 H 0.66397 0.76918 0.30995 0.0
H1249 H 0.67896 0.64935 0.30374 0.0
H1250 H 0.64607 0.63216 0.32706 0.0
H1251 H 0.63143 0.69344 0.28115 0.0
H1252 H 0.78052 0.70447 0.29504 0.0
H1253 H 0.83153 0.72768 0.3125 0.0
H1254 H 0.76682 0.83003 0.31659 0.0
H1255 H 0.71606 0.80785 0.29879 0.0
C1256 C 0.69245 0.73415 0.21485 0.0
C1257 C 0.69325 0.77304 0.20961 0.0
C1258 C 0.69584 0.72302 0.2305 0.0
C1259 C 0.69891 0.75075 0.24119 0.0
C1260 C 0.70282 0.78948 0.23587 0.0
C1261 C 0.69999 0.80051 0.22016 0.0
C1262 C 0.69341 0.73987 0.25764 0.0
C1263 C 0.72017 0.75112 0.26893 0.0
C1264 C 0.66092 0.71906 0.26222 0.0
C1265 C 0.6293 0.71 0.25123 0.0
C1266 C 0.60796 0.73967 0.24298 0.0
C1267 C 0.57727 0.73107 0.23301 0.0
C1268 C 0.56791 0.69293 0.23108 0.0
C1269 C 0.58896 0.66326 0.23927 0.0
C1270 C 0.6194 0.67169 0.24941 0.0
C1271 C 0.64336 0.72941 0.32739 0.0
C1272 C 0.63651 0.6908 0.33205 0.0
C1273 C 0.6622 0.73924 0.31404 0.0
C1274 C 0.6746 0.71057 0.3052 0.0
C1275 C 0.67015 0.67195 0.31049 0.0
C1276 C 0.6512 0.66214 0.32376 0.0
C1277 C 0.6832 0.72029 0.28903 0.0
C1278 C 0.65668 0.70895 0.27775 0.0
C1279 C 0.71522 0.74182 0.28457 0.0
C1280 C 0.74437 0.75425 0.29586 0.0
C1281 C 0.77718 0.73182 0.29975 0.0
C1282 C 0.80615 0.74493 0.30958 0.0
C1283 C 0.80235 0.78027 0.31567 0.0
C1284 C 0.76965 0.80261 0.3119 0.0
C1285 C 0.74084 0.78984 0.30192 0.0
H1286 H 0.82483 0.79047 0.32322 0.0
H1287 H 0.54426 0.68637 0.22329 0.0
H1288 H 0.61022 0.21364 0.44755 0.0
H1289 H 0.63188 0.21642 0.47459 0.0
H1290 H 0.51934 0.18416 0.48784 0.0
H1291 H 0.49837 0.18066 0.46091 0.0
H1292 H 0.61335 0.25512 0.49754 0.0
H1293 H 0.52334 0.12324 0.5193 0.0
H1294 H 0.50006 0.06239 0.51003 0.0
H1295 H 0.58955 0.06366 0.47892 0.0
H1296 H 0.61369 0.12422 0.48813 0.0
H1297 H 0.55346 0.22714 0.57555 0.0
H1298 H 0.5495 0.2052 0.54983 0.0
H1299 H 0.67216 0.20395 0.54993 0.0
H1300 H 0.67623 0.22469 0.576 0.0
H1301 H 0.58596 0.14292 0.53353 0.0
H1302 H 0.68557 0.26266 0.51582 0.0
H1303 H 0.71282 0.32185 0.52531 0.0
H1304 H 0.61034 0.34114 0.54779 0.0
H1305 H 0.58233 0.28248 0.53821 0.0
C1306 C 0.59018 0.20798 0.45632 0.0
C1307 C 0.55282 0.19687 0.45236 0.0
C1308 C 0.6025 0.20928 0.4717 0.0
C1309 C 0.57751 0.19945 0.48326 0.0
C1310 C 0.53944 0.19077 0.47916 0.0
C1311 C 0.52731 0.18921 0.46384 0.0
C1312 C 0.59096 0.19771 0.49963 0.0
C1313 C 0.60807 0.23024 0.50531 0.0
C1314 C 0.58432 0.16517 0.50984 0.0
C1315 C 0.57013 0.1285 0.50433 0.0
C1316 C 0.53816 0.11047 0.51053 0.0
C1317 C 0.52477 0.07605 0.50526 0.0
C1318 C 0.54325 0.05923 0.49387 0.0
C1319 C 0.5752 0.07677 0.48772 0.0
C1320 C 0.58869 0.11119 0.49293 0.0
C1321 C 0.57954 0.2207 0.5703 0.0
C1322 C 0.61512 0.22769 0.57762 0.0
C1323 C 0.57727 0.20811 0.55565 0.0
C1324 C 0.61052 0.20339 0.54798 0.0
C1325 C 0.64622 0.20746 0.55572 0.0
C1326 C 0.64851 0.21919 0.57057 0.0
C1327 C 0.60719 0.20057 0.5313 0.0
C1328 C 0.59193 0.16731 0.52561 0.0
C1329 C 0.61612 0.23209 0.52103 0.0
C1330 C 0.63214 0.26798 0.52648 0.0
C1331 C 0.66886 0.27965 0.52275 0.0
C1332 C 0.68441 0.31309 0.52813 0.0
C1333 C 0.66339 0.33515 0.5372 0.0
C1334 C 0.62666 0.32395 0.54082 0.0
C1335 C 0.61095 0.2906 0.53543 0.0
H1336 H 0.67551 0.36097 0.54139 0.0
H1337 H 0.53288 0.03255 0.48983 0.0
H1338 H 0.18965 0.23491 0.70778 0.0
H1339 H 0.19744 0.21952 0.73554 0.0
H1340 H 0.20665 0.34022 0.74191 0.0
H1341 H 0.19682 0.35521 0.71417 0.0
H1342 H 0.24324 0.2279 0.7598 0.0
H1343 H 0.16086 0.36232 0.77093 0.0
H1344 H 0.11429 0.4091 0.75807 0.0
H1345 H 0.06928 0.32308 0.73002 0.0
H1346 H 0.11592 0.27597 0.74259 0.0
H1347 H 0.14619 0.26278 0.83689 0.0
H1348 H 0.17822 0.28518 0.81393 0.0
H1349 H 0.16548 0.1732 0.79721 0.0
H1350 H 0.13454 0.15039 0.82035 0.0
H1351 H 0.14199 0.289 0.78646 0.0
H1352 H 0.2347 0.1606 0.77057 0.0
H1353 H 0.27448 0.10887 0.78399 0.0
H1354 H 0.29075 0.17439 0.82293 0.0
H1355 H 0.25322 0.22763 0.80944 0.0
C1356 C 0.19469 0.25785 0.71517 0.0
C1357 C 0.19294 0.29611 0.70902 0.0
C1358 C 0.199 0.24918 0.731 0.0
C1359 C 0.20175 0.27874 0.7409 0.0
C1360 C 0.20369 0.31692 0.73457 0.0
C1361 C 0.19862 0.32553 0.71876 0.0
C1362 C 0.19791 0.26975 0.75761 0.0
C1363 C 0.22109 0.24113 0.76566 0.0
C1364 C 0.1696 0.28763 0.76541 0.0
C1365 C 0.1421 0.31588 0.75755 0.0
C1366 C 0.14111 0.35351 0.76196 0.0
C1367 C 0.11479 0.38006 0.75471 0.0
C1368 C 0.08903 0.36913 0.74315 0.0
C1369 C 0.08951 0.3316 0.73886 0.0
C1370 C 0.11597 0.30501 0.74599 0.0
C1371 C 0.15168 0.24248 0.82864 0.0
C1372 C 0.13821 0.20468 0.83052 0.0
C1373 C 0.16963 0.25545 0.81543 0.0
C1374 C 0.17438 0.2309 0.80383 0.0
C1375 C 0.16272 0.19257 0.80607 0.0
C1376 C 0.14486 0.17959 0.81928 0.0
C1377 C 0.18663 0.24637 0.78864 0.0
C1378 C 0.16487 0.27625 0.78082 0.0
C1379 C 0.21582 0.22907 0.78109 0.0
C1380 C 0.24064 0.19812 0.78899 0.0
C1381 C 0.24728 0.16437 0.78189 0.0
C1382 C 0.26961 0.13479 0.7895 0.0
C1383 C 0.28526 0.13842 0.80428 0.0
C1384 C 0.27888 0.17177 0.81144 0.0
C1385 C 0.25723 0.20175 0.80378 0.0
H1386 H 0.30228 0.11536 0.8102 0.0
H1387 H 0.06859 0.38968 0.73758 0.0
loop_
_geom_bond_atom_site_label_1
_geom_bond_atom_site_label_2
_geom_bond_distance
_geom_bond_site_symmetry_2
_ccdc_geom_bond_type
C0 N1 1.317 . S
C0 N2 1.348 . S
C0 C3 1.485 . S
N1 C0 1.317 . S
N1 N5 1.370 . S
N2 C0 1.348 . S
N2 C4 1.346 . S
C3 C0 1.485 . S
C3 H7 0.960 . S
C3 H8 0.961 . S
C3 H9 0.960 . S
C4 N2 1.346 . S
C4 N5 1.307 . S
C4 C6 1.486 . S
N5 N1 1.370 . S
N5 C4 1.307 . S
C6 C4 1.486 . S
C6 H10 0.960 . S
C6 H11 0.960 . S
C6 H12 0.959 . S
H7 C3 0.960 . S
H8 C3 0.961 . S
H9 C3 0.960 . S
H10 C6 0.960 . S
H11 C6 0.960 . S
H12 C6 0.959 . S
C13 N14 1.317 . S
C13 N15 1.348 . S
C13 C16 1.485 . S
N14 C13 1.317 . S
N14 N18 1.370 . S
N15 C13 1.348 . S
N15 C17 1.346 . S
C16 C13 1.485 . S
C16 H20 0.960 . S
C16 H21 0.961 . S
C16 H22 0.960 . S
C17 N15 1.346 . S
C17 N18 1.307 . S
C17 C19 1.486 . S
N18 N14 1.370 . S
N18 C17 1.307 . S
C19 C17 1.486 . S
C19 H23 0.960 . S
C19 H24 0.960 . S
C19 H25 0.959 . S
H20 C16 0.960 . S
H21 C16 0.961 . S
H22 C16 0.960 . S
H23 C19 0.960 . S
H24 C19 0.960 . S
H25 C19 0.959 . S
C26 N27 1.317 . S
C26 N28 1.348 . S
C26 C29 1.485 . S
N27 C26 1.317 . S
N27 N31 1.370 . S
N28 C26 1.348 . S
N28 C30 1.346 . S
C29 C26 1.485 . S
C29 H33 0.960 . S
C29 H34 0.961 . S
C29 H35 0.960 . S
C30 N28 1.346 . S
C30 N31 1.307 . S
C30 C32 1.486 . S
N31 N27 1.370 . S
N31 C30 1.307 . S
C32 C30 1.486 . S
C32 H36 0.960 . S
C32 H37 0.960 . S
C32 H38 0.959 . S
H33 C29 0.960 . S
H34 C29 0.961 . S
H35 C29 0.960 . S
H36 C32 0.960 . S
H37 C32 0.960 . S
H38 C32 0.959 . S
C39 N40 1.317 . S
C39 N41 1.348 . S
C39 C42 1.485 . S
N40 C39 1.317 . S
N40 N44 1.370 . S
N41 C39 1.348 . S
N41 C43 1.346 . S
C42 C39 1.485 . S
C42 H46 0.960 . S
C42 H47 0.961 . S
C42 H48 0.960 . S
C43 N41 1.346 . S
C43 N44 1.307 . S
C43 C45 1.486 . S
N44 N40 1.370 . S
N44 C43 1.307 . S
C45 C43 1.486 . S
C45 H49 0.960 . S
C45 H50 0.960 . S
C45 H51 0.959 . S
H46 C42 0.960 . S
H47 C42 0.961 . S
H48 C42 0.960 . S
H49 C45 0.960 . S
H50 C45 0.960 . S
H51 C45 0.959 . S
C52 N53 1.317 . S
C52 N54 1.348 . S
C52 C55 1.485 . S
N53 C52 1.317 . S
N53 N57 1.370 . S
N54 C52 1.348 . S
N54 C56 1.346 . S
C55 C52 1.485 . S
C55 H59 0.960 . S
C55 H60 0.961 . S
C55 H61 0.960 . S
C56 N54 1.346 . S
C56 N57 1.307 . S
C56 C58 1.486 . S
N57 N53 1.370 . S
N57 C56 1.307 . S
C58 C56 1.486 . S
C58 H62 0.960 . S
C58 H63 0.960 . S
C58 H64 0.959 . S
H59 C55 0.960 . S
H60 C55 0.961 . S
H61 C55 0.960 . S
H62 C58 0.960 . S
H63 C58 0.960 . S
H64 C58 0.959 . S
C65 N66 1.317 . S
C65 N67 1.348 . S
C65 C68 1.485 . S
N66 C65 1.317 . S
N66 N70 1.370 . S
N67 C65 1.348 . S
N67 C69 1.346 . S
C68 C65 1.485 . S
C68 H72 0.960 . S
C68 H73 0.961 . S
C68 H74 0.960 . S
C69 N67 1.346 . S
C69 N70 1.307 . S
C69 C71 1.486 . S
N70 N66 1.370 . S
N70 C69 1.307 . S
C71 C69 1.486 . S
C71 H75 0.960 . S
C71 H76 0.960 . S
C71 H77 0.959 . S
H72 C68 0.960 . S
H73 C68 0.961 . S
H74 C68 0.960 . S
H75 C71 0.960 . S
H76 C71 0.960 . S
H77 C71 0.959 . S
C78 N79 1.317 . S
C78 N80 1.348 . S
C78 C81 1.485 . S
N79 C78 1.317 . S
N79 N83 1.370 . S
N80 C78 1.348 . S
N80 C82 1.346 . S
C81 C78 1.485 . S
C81 H85 0.960 . S
C81 H86 0.961 . S
C81 H87 0.960 . S
C82 N80 1.346 . S
C82 N83 1.307 . S
C82 C84 1.486 . S
N83 N79 1.370 . S
N83 C82 1.307 . S
C84 C82 1.486 . S
C84 H88 0.960 . S
C84 H89 0.960 . S
C84 H90 0.959 . S
H85 C81 0.960 . S
H86 C81 0.961 . S
H87 C81 0.960 . S
H88 C84 0.960 . S
H89 C84 0.960 . S
H90 C84 0.959 . S
C91 N92 1.317 . S
C91 N93 1.348 . S
C91 C94 1.485 . S
N92 C91 1.317 . S
N92 N96 1.370 . S
N93 C91 1.348 . S
N93 C95 1.346 . S
C94 C91 1.485 . S
C94 H98 0.960 . S
C94 H99 0.961 . S
C94 H100 0.960 . S
C95 N93 1.346 . S
C95 N96 1.307 . S
C95 C97 1.486 . S
N96 N92 1.370 . S
N96 C95 1.307 . S
C97 C95 1.486 . S
C97 H101 0.960 . S
C97 H102 0.960 . S
C97 H103 0.959 . S
H98 C94 0.960 . S
H99 C94 0.961 . S
H100 C94 0.960 . S
H101 C97 0.960 . S
H102 C97 0.960 . S
H103 C97 0.959 . S
Zn104 O110 1.920 . S
Zn104 O116 1.898 . S
Zn104 O119 1.905 . S
Zn105 O113 1.905 . S
Zn105 O114 1.898 . S
Zn105 O122 1.920 . S
Zn106 O109 2.080 . S
Zn106 O112 2.114 . S
Zn106 O115 2.120 . S
Zn106 O117 2.120 . S
Zn106 O118 2.114 . S
Zn106 O121 2.080 . S
C107 O112 1.166 . S
C107 O113 1.182 . S
C108 O114 1.167 . S
C108 O115 1.299 . S
O109 Zn106 2.080 . S
O109 C123 1.305 . S
O110 Zn104 1.920 . S
O110 C123 1.234 . S
C111 O116 1.167 . S
C111 O117 1.299 . S
O112 Zn106 2.114 . S
O112 C107 1.166 . S
O113 Zn105 1.905 . S
O113 C107 1.182 . S
O114 Zn105 1.898 . S
O114 C108 1.167 . S
O115 Zn106 2.120 . S
O115 C108 1.299 . S
O116 Zn104 1.898 . S
O116 C111 1.167 . S
O117 Zn106 2.120 . S
O117 C111 1.299 . S
O118 Zn106 2.114 . S
O118 C120 1.166 . S
O119 Zn104 1.905 . S
O119 C120 1.182 . S
C120 O118 1.166 . S
C120 O119 1.182 . S
O121 Zn106 2.080 . S
O121 C124 1.305 . S
O122 Zn105 1.920 . S
O122 C124 1.234 . S
C123 O109 1.305 . S
C123 O110 1.234 . S
C124 O121 1.305 . S
C124 O122 1.234 . S
Zn125 O131 1.920 . S
Zn125 O137 1.898 . S
Zn125 O140 1.905 . S
Zn126 O134 1.905 . S
Zn126 O135 1.898 . S
Zn126 O143 1.920 . S
Zn127 O130 2.080 . S
Zn127 O133 2.114 . S
Zn127 O136 2.120 . S
Zn127 O138 2.120 . S
Zn127 O139 2.114 . S
Zn127 O142 2.080 . S
C128 O133 1.166 . S
C128 O134 1.182 . S
C129 O135 1.167 . S
C129 O136 1.299 . S
O130 Zn127 2.080 . S
O130 C144 1.305 . S
O131 Zn125 1.920 . S
O131 C144 1.234 . S
C132 O137 1.167 . S
C132 O138 1.299 . S
O133 Zn127 2.114 . S
O133 C128 1.166 . S
O134 Zn126 1.905 . S
O134 C128 1.182 . S
O135 Zn126 1.898 . S
O135 C129 1.167 . S
O136 Zn127 2.120 . S
O136 C129 1.299 . S
O137 Zn125 1.898 . S
O137 C132 1.167 . S
O138 Zn127 2.120 . S
O138 C132 1.299 . S
O139 Zn127 2.114 . S
O139 C141 1.166 . S
O140 Zn125 1.905 . S
O140 C141 1.182 . S
C141 O139 1.166 . S
C141 O140 1.182 . S
O142 Zn127 2.080 . S
O142 C145 1.305 . S
O143 Zn126 1.920 . S
O143 C145 1.234 . S
C144 O130 1.305 . S
C144 O131 1.234 . S
C145 O142 1.305 . S
C145 O143 1.234 . S
Zn146 O152 1.920 . S
Zn146 O158 1.898 . S
Zn146 O161 1.905 . S
Zn147 O155 1.905 . S
Zn147 O156 1.898 . S
Zn147 O164 1.920 . S
Zn148 O151 2.080 . S
Zn148 O154 2.114 . S
Zn148 O157 2.120 . S
Zn148 O159 2.120 . S
Zn148 O160 2.114 . S
Zn148 O163 2.080 . S
C149 O154 1.166 . S
C149 O155 1.182 . S
C150 O156 1.167 . S
C150 O157 1.299 . S
O151 Zn148 2.080 . S
O151 C165 1.305 . S
O152 Zn146 1.920 . S
O152 C165 1.234 . S
C153 O158 1.167 . S
C153 O159 1.299 . S
O154 Zn148 2.114 . S
O154 C149 1.166 . S
O155 Zn147 1.905 . S
O155 C149 1.182 . S
O156 Zn147 1.898 . S
O156 C150 1.167 . S
O157 Zn148 2.120 . S
O157 C150 1.299 . S
O158 Zn146 1.898 . S
O158 C153 1.167 . S
O159 Zn148 2.120 . S
O159 C153 1.299 . S
O160 Zn148 2.114 . S
O160 C162 1.166 . S
O161 Zn146 1.905 . S
O161 C162 1.182 . S
C162 O160 1.166 . S
C162 O161 1.182 . S
O163 Zn148 2.080 . S
O163 C166 1.305 . S
O164 Zn147 1.920 . S
O164 C166 1.234 . S
C165 O151 1.305 . S
C165 O152 1.234 . S
C166 O163 1.305 . S
C166 O164 1.234 . S
Zn167 O173 1.920 . S
Zn167 O179 1.898 . S
Zn167 O182 1.905 . S
Zn168 O176 1.905 . S
Zn168 O177 1.898 . S
Zn168 O185 1.920 . S
Zn169 O172 2.080 . S
Zn169 O175 2.114 . S
Zn169 O178 2.120 . S
Zn169 O180 2.120 . S
Zn169 O181 2.114 . S
Zn169 O184 2.080 . S
C170 O175 1.166 . S
C170 O176 1.182 . S
C171 O177 1.167 . S
C171 O178 1.299 . S
O172 Zn169 2.080 . S
O172 C186 1.305 . S
O173 Zn167 1.920 . S
O173 C186 1.234 . S
C174 O179 1.167 . S
C174 O180 1.299 . S
O175 Zn169 2.114 . S
O175 C170 1.166 . S
O176 Zn168 1.905 . S
O176 C170 1.182 . S
O177 Zn168 1.898 . S
O177 C171 1.167 . S
O178 Zn169 2.120 . S
O178 C171 1.299 . S
O179 Zn167 1.898 . S
O179 C174 1.167 . S
O180 Zn169 2.120 . S
O180 C174 1.299 . S
O181 Zn169 2.114 . S
O181 C183 1.166 . S
O182 Zn167 1.905 . S
O182 C183 1.182 . S
C183 O181 1.166 . S
C183 O182 1.182 . S
O184 Zn169 2.080 . S
O184 C187 1.305 . S
O185 Zn168 1.920 . S
O185 C187 1.234 . S
C186 O172 1.305 . S
C186 O173 1.234 . S
C187 O184 1.305 . S
C187 O185 1.234 . S
H188 C206 0.951 . S
H189 C208 0.951 . S
H190 C210 0.950 . S
H191 C211 0.950 . S
H192 C213 0.950 . S
H193 C216 0.950 . S
H194 C217 0.950 . S
H195 C219 0.950 . S
H196 C220 0.950 . S
H197 C221 0.951 . S
H198 C223 0.951 . S
H199 C225 0.950 . S
H200 C226 0.950 . S
H201 C228 0.950 . S
H202 C231 0.950 . S
H203 C232 0.950 . S
H204 C234 0.950 . S
H205 C235 0.950 . S
C206 H188 0.951 . S
C206 C207 1.366 . S
C206 C208 1.388 . S
C207 C206 1.366 . S
C207 C211 1.385 . S
C208 H189 0.951 . S
C208 C206 1.388 . S
C208 C209 1.366 . S
C209 C208 1.366 . S
C209 C210 1.414 . S
C209 C212 1.499 . S
C210 H190 0.950 . S
C210 C209 1.414 . S
C210 C211 1.374 . S
C211 H191 0.950 . S
C211 C207 1.385 . S
C211 C210 1.374 . S
C212 C209 1.499 . S
C212 C213 1.373 . S
C212 C214 1.389 . S
C213 H192 0.950 . S
C213 C212 1.373 . S
C213 C229 1.377 . S
C214 C212 1.389 . S
C214 C215 1.524 . S
C214 C228 1.377 . S
C215 C214 1.524 . S
C215 C216 1.397 . S
C215 C220 1.363 . S
C216 H193 0.950 . S
C216 C215 1.397 . S
C216 C217 1.334 . S
C217 H194 0.950 . S
C217 C216 1.334 . S
C217 C218 1.287 . S
C218 C217 1.287 . S
C218 C219 1.524 . S
C218 H237 0.913 . S
C219 H195 0.950 . S
C219 C218 1.524 . S
C219 C220 1.415 . S
C220 H196 0.950 . S
C220 C215 1.363 . S
C220 C219 1.415 . S
C221 H197 0.951 . S
C221 C222 1.366 . S
C221 C223 1.388 . S
C222 C221 1.366 . S
C222 C226 1.385 . S
C223 H198 0.951 . S
C223 C221 1.388 . S
C223 C224 1.366 . S
C224 C223 1.366 . S
C224 C225 1.414 . S
C224 C227 1.499 . S
C225 H199 0.950 . S
C225 C224 1.414 . S
C225 C226 1.374 . S
C226 H200 0.950 . S
C226 C222 1.385 . S
C226 C225 1.374 . S
C227 C224 1.499 . S
C227 C228 1.373 . S
C227 C229 1.389 . S
C228 H201 0.950 . S
C228 C214 1.377 . S
C228 C227 1.373 . S
C229 C213 1.377 . S
C229 C227 1.389 . S
C229 C230 1.524 . S
C230 C229 1.524 . S
C230 C231 1.397 . S
C230 C235 1.363 . S
C231 H202 0.950 . S
C231 C230 1.397 . S
C231 C232 1.334 . S
C232 H203 0.950 . S
C232 C231 1.334 . S
C232 C233 1.287 . S
C233 C232 1.287 . S
C233 C234 1.524 . S
C233 H236 0.999 . S
C234 H204 0.950 . S
C234 C233 1.524 . S
C234 C235 1.415 . S
C235 H205 0.950 . S
C235 C230 1.363 . S
C235 C234 1.415 . S
H236 C233 0.999 . S
H237 C218 0.913 . S
H238 C256 0.951 . S
H239 C258 0.951 . S
H240 C260 0.950 . S
H241 C261 0.950 . S
H242 C263 0.950 . S
H243 C266 0.950 . S
H244 C267 0.950 . S
H245 C269 0.950 . S
H246 C270 0.950 . S
H247 C271 0.951 . S
H248 C273 0.951 . S
H249 C275 0.950 . S
H250 C276 0.950 . S
H251 C278 0.950 . S
H252 C281 0.950 . S
H253 C282 0.950 . S
H254 C284 0.950 . S
H255 C285 0.950 . S
C256 H238 0.951 . S
C256 C257 1.366 . S
C256 C258 1.388 1_455 S
C257 C256 1.366 . S
C257 C261 1.385 . S
C258 H239 0.951 . S
C258 C256 1.388 1_655 S
C258 C259 1.366 . S
C259 C258 1.366 . S
C259 C260 1.414 . S
C259 C262 1.499 . S
C260 H240 0.950 . S
C260 C259 1.414 . S
C260 C261 1.374 1_655 S
C261 H241 0.950 . S
C261 C257 1.385 . S
C261 C260 1.374 1_455 S
C262 C259 1.499 . S
C262 C263 1.373 . S
C262 C264 1.389 . S
C263 H242 0.950 . S
C263 C262 1.373 . S
C263 C279 1.377 . S
C264 C262 1.389 . S
C264 C265 1.524 . S
C264 C278 1.377 . S
C265 C264 1.524 . S
C265 C266 1.397 . S
C265 C270 1.363 . S
C266 H243 0.950 . S
C266 C265 1.397 . S
C266 C267 1.334 . S
C267 H244 0.950 . S
C267 C266 1.334 . S
C267 C268 1.287 . S
C268 C267 1.287 . S
C268 C269 1.524 . S
C268 H287 0.913 . S
C269 H245 0.950 . S
C269 C268 1.524 . S
C269 C270 1.415 . S
C270 H246 0.950 . S
C270 C265 1.363 . S
C270 C269 1.415 . S
C271 H247 0.951 . S
C271 C272 1.366 . S
C271 C273 1.388 . S
C272 C271 1.366 . S
C272 C276 1.385 . S
C273 H248 0.951 . S
C273 C271 1.388 . S
C273 C274 1.366 . S
C274 C273 1.366 . S
C274 C275 1.414 . S
C274 C277 1.499 . S
C275 H249 0.950 . S
C275 C274 1.414 . S
C275 C276 1.374 . S
C276 H250 0.950 . S
C276 C272 1.385 . S
C276 C275 1.374 . S
C277 C274 1.499 . S
C277 C278 1.373 . S
C277 C279 1.389 . S
C278 H251 0.950 . S
C278 C264 1.377 . S
C278 C277 1.373 . S
C279 C263 1.377 . S
C279 C277 1.389 . S
C279 C280 1.524 . S
C280 C279 1.524 . S
C280 C281 1.397 . S
C280 C285 1.363 . S
C281 H252 0.950 . S
C281 C280 1.397 . S
C281 C282 1.334 . S
C282 H253 0.950 . S
C282 C281 1.334 . S
C282 C283 1.287 . S
C283 C282 1.287 . S
C283 C284 1.524 . S
C283 H286 0.999 . S
C284 H254 0.950 . S
C284 C283 1.524 . S
C284 C285 1.415 . S
C285 H255 0.950 . S
C285 C280 1.363 . S
C285 C284 1.415 . S
H286 C283 0.999 . S
H287 C268 0.913 . S
H288 C306 0.951 . S
H289 C308 0.951 . S
H290 C310 0.950 . S
H291 C311 0.950 . S
H292 C313 0.950 . S
H293 C316 0.950 . S
H294 C317 0.950 . S
H295 C319 0.950 . S
H296 C320 0.950 . S
H297 C321 0.951 . S
H298 C323 0.951 . S
H299 C325 0.950 . S
H300 C326 0.950 . S
H301 C328 0.950 . S
H302 C331 0.950 . S
H303 C332 0.950 . S
H304 C334 0.950 . S
H305 C335 0.950 . S
C306 H288 0.951 . S
C306 C307 1.366 . S
C306 C308 1.388 . S
C307 C306 1.366 . S
C307 C311 1.385 . S
C308 H289 0.951 . S
C308 C306 1.388 . S
C308 C309 1.366 . S
C309 C308 1.366 . S
C309 C310 1.414 . S
C309 C312 1.499 . S
C310 H290 0.950 . S
C310 C309 1.414 . S
C310 C311 1.374 . S
C311 H291 0.950 . S
C311 C307 1.385 . S
C311 C310 1.374 . S
C312 C309 1.499 . S
C312 C313 1.373 . S
C312 C314 1.389 . S
C313 H292 0.950 . S
C313 C312 1.373 . S
C313 C329 1.377 . S
C314 C312 1.389 . S
C314 C315 1.524 . S
C314 C328 1.377 . S
C315 C314 1.524 . S
C315 C316 1.397 . S
C315 C320 1.363 . S
C316 H293 0.950 . S
C316 C315 1.397 . S
C316 C317 1.334 . S
C317 H294 0.950 . S
C317 C316 1.334 . S
C317 C318 1.287 . S
C318 C317 1.287 . S
C318 C319 1.524 . S
C318 H337 0.913 . S
C319 H295 0.950 . S
C319 C318 1.524 . S
C319 C320 1.415 . S
C320 H296 0.950 . S
C320 C315 1.363 . S
C320 C319 1.415 . S
C321 H297 0.951 . S
C321 C322 1.366 . S
C321 C323 1.388 . S
C322 C321 1.366 . S
C322 C326 1.385 . S
C323 H298 0.951 . S
C323 C321 1.388 . S
C323 C324 1.366 . S
C324 C323 1.366 . S
C324 C325 1.414 . S
C324 C327 1.499 . S
C325 H299 0.950 . S
C325 C324 1.414 . S
C325 C326 1.374 . S
C326 H300 0.950 . S
C326 C322 1.385 . S
C326 C325 1.374 . S
C327 C324 1.499 . S
C327 C328 1.373 . S
C327 C329 1.389 . S
C328 H301 0.950 . S
C328 C314 1.377 . S
C328 C327 1.373 . S
C329 C313 1.377 . S
C329 C327 1.389 . S
C329 C330 1.524 . S
C330 C329 1.524 . S
C330 C331 1.397 . S
C330 C335 1.363 . S
C331 H302 0.950 . S
C331 C330 1.397 . S
C331 C332 1.334 . S
C332 H303 0.950 . S
C332 C331 1.334 . S
C332 C333 1.287 . S
C333 C332 1.287 . S
C333 C334 1.524 . S
C333 H336 0.999 . S
C334 H304 0.950 . S
C334 C333 1.524 . S
C334 C335 1.415 . S
C335 H305 0.950 . S
C335 C330 1.363 . S
C335 C334 1.415 . S
H336 C333 0.999 . S
H337 C318 0.913 . S
H338 C356 0.951 . S
H339 C358 0.951 . S
H340 C360 0.950 . S
H341 C361 0.950 . S
H342 C363 0.950 . S
H343 C366 0.950 . S
H344 C367 0.950 . S
H345 C369 0.950 . S
H346 C370 0.950 . S
H347 C371 0.951 . S
H348 C373 0.951 . S
H349 C375 0.950 . S
H350 C376 0.950 . S
H351 C378 0.950 . S
H352 C381 0.950 . S
H353 C382 0.950 . S
H354 C384 0.950 . S
H355 C385 0.950 . S
C356 H338 0.951 . S
C356 C357 1.366 . S
C356 C358 1.388 . S
C357 C356 1.366 . S
C357 C361 1.385 . S
C358 H339 0.951 . S
C358 C356 1.388 . S
C358 C359 1.366 . S
C359 C358 1.366 . S
C359 C360 1.414 . S
C359 C362 1.499 . S
C360 H340 0.950 . S
C360 C359 1.414 . S
C360 C361 1.374 . S
C361 H341 0.950 . S
C361 C357 1.385 . S
C361 C360 1.374 . S
C362 C359 1.499 . S
C362 C363 1.373 . S
C362 C364 1.389 . S
C363 H342 0.950 . S
C363 C362 1.373 . S
C363 C379 1.377 . S
C364 C362 1.389 . S
C364 C365 1.524 . S
C364 C378 1.377 . S
C365 C364 1.524 . S
C365 C366 1.397 . S
C365 C370 1.363 . S
C366 H343 0.950 . S
C366 C365 1.397 . S
C366 C367 1.334 . S
C367 H344 0.950 . S
C367 C366 1.334 . S
C367 C368 1.287 . S
C368 C367 1.287 . S
C368 C369 1.524 . S
C368 H387 0.913 . S
C369 H345 0.950 . S
C369 C368 1.524 . S
C369 C370 1.415 . S
C370 H346 0.950 . S
C370 C365 1.363 . S
C370 C369 1.415 . S
C371 H347 0.951 . S
C371 C372 1.366 . S
C371 C373 1.388 . S
C372 C371 1.366 . S
C372 C376 1.385 . S
C373 H348 0.951 . S
C373 C371 1.388 . S
C373 C374 1.366 . S
C374 C373 1.366 . S
C374 C375 1.414 . S
C374 C377 1.499 . S
C375 H349 0.950 . S
C375 C374 1.414 . S
C375 C376 1.374 . S
C376 H350 0.950 . S
C376 C372 1.385 . S
C376 C375 1.374 . S
C377 C374 1.499 . S
C377 C378 1.373 . S
C377 C379 1.389 . S
C378 H351 0.950 . S
C378 C364 1.377 . S
C378 C377 1.373 . S
C379 C363 1.377 . S
C379 C377 1.389 . S
C379 C380 1.524 . S
C380 C379 1.524 . S
C380 C381 1.397 . S
C380 C385 1.363 . S
C381 H352 0.950 . S
C381 C380 1.397 . S
C381 C382 1.334 . S
C382 H353 0.950 . S
C382 C381 1.334 . S
C382 C383 1.287 . S
C383 C382 1.287 . S
C383 C384 1.524 . S
C383 H386 0.999 . S
C384 H354 0.950 . S
C384 C383 1.524 . S
C384 C385 1.415 . S
C385 H355 0.950 . S
C385 C380 1.363 . S
C385 C384 1.415 . S
H386 C383 0.999 . S
H387 C368 0.913 . S
H388 C406 0.951 . S
H389 C408 0.951 . S
H390 C410 0.950 . S
H391 C411 0.950 1_655 S
H392 C413 0.950 . S
H393 C416 0.950 . S
H394 C417 0.950 1_655 S
H395 C419 0.950 . S
H396 C420 0.950 . S
H397 C421 0.951 . S
H398 C423 0.951 . S
H399 C425 0.950 . S
H400 C426 0.950 . S
H401 C428 0.950 . S
H402 C431 0.950 . S
H403 C432 0.950 . S
H404 C434 0.950 . S
H405 C435 0.950 . S
C406 H388 0.951 . S
C406 C407 1.366 . S
C406 C408 1.388 . S
C407 C406 1.366 . S
C407 C411 1.385 . S
C408 H389 0.951 . S
C408 C406 1.388 . S
C408 C409 1.366 . S
C409 C408 1.366 . S
C409 C410 1.414 . S
C409 C412 1.499 . S
C410 H390 0.950 . S
C410 C409 1.414 . S
C410 C411 1.374 . S
C411 H391 0.950 1_455 S
C411 C407 1.385 . S
C411 C410 1.374 . S
C412 C409 1.499 . S
C412 C413 1.373 . S
C412 C414 1.389 . S
C413 H392 0.950 . S
C413 C412 1.373 . S
C413 C429 1.377 . S
C414 C412 1.389 . S
C414 C415 1.524 . S
C414 C428 1.377 . S
C415 C414 1.524 . S
C415 C416 1.397 . S
C415 C420 1.363 . S
C416 H393 0.950 . S
C416 C415 1.397 . S
C416 C417 1.334 . S
C417 H394 0.950 1_455 S
C417 C416 1.334 . S
C417 C418 1.287 . S
C418 C417 1.287 . S
C418 C419 1.524 . S
C418 H437 0.913 . S
C419 H395 0.950 . S
C419 C418 1.524 . S
C419 C420 1.415 . S
C420 H396 0.950 . S
C420 C415 1.363 . S
C420 C419 1.415 . S
C421 H397 0.951 . S
C421 C422 1.366 . S
C421 C423 1.388 . S
C422 C421 1.366 . S
C422 C426 1.385 . S
C423 H398 0.951 . S
C423 C421 1.388 . S
C423 C424 1.366 . S
C424 C423 1.366 . S
C424 C425 1.414 . S
C424 C427 1.499 . S
C425 H399 0.950 . S
C425 C424 1.414 . S
C425 C426 1.374 . S
C426 H400 0.950 . S
C426 C422 1.385 . S
C426 C425 1.374 . S
C427 C424 1.499 . S
C427 C428 1.373 . S
C427 C429 1.389 . S
C428 H401 0.950 . S
C428 C414 1.377 . S
C428 C427 1.373 . S
C429 C413 1.377 . S
C429 C427 1.389 . S
C429 C430 1.524 . S
C430 C429 1.524 . S
C430 C431 1.397 . S
C430 C435 1.363 . S
C431 H402 0.950 . S
C431 C430 1.397 . S
C431 C432 1.334 . S
C432 H403 0.950 . S
C432 C431 1.334 . S
C432 C433 1.287 . S
C433 C432 1.287 . S
C433 C434 1.524 . S
C433 H436 0.999 . S
C434 H404 0.950 . S
C434 C433 1.524 . S
C434 C435 1.415 . S
C435 H405 0.950 . S
C435 C430 1.363 . S
C435 C434 1.415 . S
H436 C433 0.999 . S
H437 C418 0.913 . S
H438 C456 0.951 . S
H439 C458 0.951 . S
H440 C460 0.950 . S
H441 C461 0.950 . S
H442 C463 0.950 . S
H443 C466 0.950 . S
H444 C467 0.950 . S
H445 C469 0.950 . S
H446 C470 0.950 . S
H447 C471 0.951 . S
H448 C473 0.951 . S
H449 C475 0.950 . S
H450 C476 0.950 1_455 S
H451 C478 0.950 . S
H452 C481 0.950 . S
H453 C482 0.950 . S
H454 C484 0.950 . S
H455 C485 0.950 . S
C456 H438 0.951 . S
C456 C457 1.366 . S
C456 C458 1.388 . S
C457 C456 1.366 . S
C457 C461 1.385 . S
C458 H439 0.951 . S
C458 C456 1.388 . S
C458 C459 1.366 . S
C459 C458 1.366 . S
C459 C460 1.414 . S
C459 C462 1.499 . S
C460 H440 0.950 . S
C460 C459 1.414 . S
C460 C461 1.374 . S
C461 H441 0.950 . S
C461 C457 1.385 . S
C461 C460 1.374 . S
C462 C459 1.499 . S
C462 C463 1.373 . S
C462 C464 1.389 . S
C463 H442 0.950 . S
C463 C462 1.373 . S
C463 C479 1.377 . S
C464 C462 1.389 . S
C464 C465 1.524 . S
C464 C478 1.377 . S
C465 C464 1.524 . S
C465 C466 1.397 . S
C465 C470 1.363 . S
C466 H443 0.950 . S
C466 C465 1.397 . S
C466 C467 1.334 . S
C467 H444 0.950 . S
C467 C466 1.334 . S
C467 C468 1.287 . S
C468 C467 1.287 . S
C468 C469 1.524 . S
C468 H487 0.913 . S
C469 H445 0.950 . S
C469 C468 1.524 . S
C469 C470 1.415 . S
C470 H446 0.950 . S
C470 C465 1.363 . S
C470 C469 1.415 . S
C471 H447 0.951 . S
C471 C472 1.366 . S
C471 C473 1.388 . S
C472 C471 1.366 . S
C472 C476 1.385 . S
C473 H448 0.951 . S
C473 C471 1.388 . S
C473 C474 1.366 . S
C474 C473 1.366 . S
C474 C475 1.414 . S
C474 C477 1.499 . S
C475 H449 0.950 . S
C475 C474 1.414 . S
C475 C476 1.374 . S
C476 H450 0.950 1_655 S
C476 C472 1.385 . S
C476 C475 1.374 . S
C477 C474 1.499 . S
C477 C478 1.373 . S
C477 C479 1.389 . S
C478 H451 0.950 . S
C478 C464 1.377 . S
C478 C477 1.373 . S
C479 C463 1.377 . S
C479 C477 1.389 . S
C479 C480 1.524 . S
C480 C479 1.524 . S
C480 C481 1.397 . S
C480 C485 1.363 . S
C481 H452 0.950 . S
C481 C480 1.397 . S
C481 C482 1.334 . S
C482 H453 0.950 . S
C482 C481 1.334 . S
C482 C483 1.287 . S
C483 C482 1.287 . S
C483 C484 1.524 . S
C483 H486 0.999 . S
C484 H454 0.950 . S
C484 C483 1.524 . S
C484 C485 1.415 . S
C485 H455 0.950 . S
C485 C480 1.363 . S
C485 C484 1.415 . S
H486 C483 0.999 . S
H487 C468 0.913 . S
H488 C506 0.951 . S
H489 C508 0.951 . S
H490 C510 0.950 . S
H491 C511 0.950 . S
H492 C513 0.950 . S
H493 C516 0.950 . S
H494 C517 0.950 . S
H495 C519 0.950 . S
H496 C520 0.950 . S
H497 C521 0.951 . S
H498 C523 0.951 . S
H499 C525 0.950 . S
H500 C526 0.950 . S
H501 C528 0.950 . S
H502 C531 0.950 . S
H503 C532 0.950 . S
H504 C534 0.950 . S
H505 C535 0.950 . S
C506 H488 0.951 . S
C506 C507 1.366 . S
C506 C508 1.388 . S
C507 C506 1.366 . S
C507 C511 1.385 . S
C508 H489 0.951 . S
C508 C506 1.388 . S
C508 C509 1.366 . S
C509 C508 1.366 . S
C509 C510 1.414 . S
C509 C512 1.499 . S
C510 H490 0.950 . S
C510 C509 1.414 . S
C510 C511 1.374 . S
C511 H491 0.950 . S
C511 C507 1.385 . S
C511 C510 1.374 . S
C512 C509 1.499 . S
C512 C513 1.373 . S
C512 C514 1.389 . S
C513 H492 0.950 . S
C513 C512 1.373 . S
C513 C529 1.377 . S
C514 C512 1.389 . S
C514 C515 1.524 . S
C514 C528 1.377 . S
C515 C514 1.524 . S
C515 C516 1.397 . S
C515 C520 1.363 . S
C516 H493 0.950 . S
C516 C515 1.397 . S
C516 C517 1.334 . S
C517 H494 0.950 . S
C517 C516 1.334 . S
C517 C518 1.287 . S
C518 C517 1.287 . S
C518 C519 1.524 . S
C518 H537 0.913 . S
C519 H495 0.950 . S
C519 C518 1.524 . S
C519 C520 1.415 . S
C520 H496 0.950 . S
C520 C515 1.363 . S
C520 C519 1.415 . S
C521 H497 0.951 . S
C521 C522 1.366 . S
C521 C523 1.388 . S
C522 C521 1.366 . S
C522 C526 1.385 . S
C523 H498 0.951 . S
C523 C521 1.388 . S
C523 C524 1.366 . S
C524 C523 1.366 . S
C524 C525 1.414 . S
C524 C527 1.499 . S
C525 H499 0.950 . S
C525 C524 1.414 . S
C525 C526 1.374 . S
C526 H500 0.950 . S
C526 C522 1.385 . S
C526 C525 1.374 . S
C527 C524 1.499 . S
C527 C528 1.373 . S
C527 C529 1.389 . S
C528 H501 0.950 . S
C528 C514 1.377 . S
C528 C527 1.373 . S
C529 C513 1.377 . S
C529 C527 1.389 . S
C529 C530 1.524 . S
C530 C529 1.524 . S
C530 C531 1.397 . S
C530 C535 1.363 . S
C531 H502 0.950 . S
C531 C530 1.397 . S
C531 C532 1.334 . S
C532 H503 0.950 . S
C532 C531 1.334 . S
C532 C533 1.287 . S
C533 C532 1.287 . S
C533 C534 1.524 . S
C533 H536 0.999 . S
C534 H504 0.950 . S
C534 C533 1.524 . S
C534 C535 1.415 . S
C535 H505 0.950 . S
C535 C530 1.363 . S
C535 C534 1.415 . S
H536 C533 0.999 . S
H537 C518 0.913 . S
H538 C556 0.951 . S
H539 C558 0.951 . S
H540 C560 0.950 . S
H541 C561 0.950 . S
H542 C563 0.950 . S
H543 C566 0.950 . S
H544 C567 0.950 . S
H545 C569 0.950 . S
H546 C570 0.950 . S
H547 C571 0.951 . S
H548 C573 0.951 . S
H549 C575 0.950 . S
H550 C576 0.950 . S
H551 C578 0.950 . S
H552 C581 0.950 . S
H553 C582 0.950 . S
H554 C584 0.950 . S
H555 C585 0.950 . S
C556 H538 0.951 . S
C556 C557 1.366 . S
C556 C558 1.388 1_455 S
C557 C556 1.366 . S
C557 C561 1.385 . S
C558 H539 0.951 . S
C558 C556 1.388 1_655 S
C558 C559 1.366 . S
C559 C558 1.366 . S
C559 C560 1.414 . S
C559 C562 1.499 . S
C560 H540 0.950 . S
C560 C559 1.414 . S
C560 C561 1.374 1_655 S
C561 H541 0.950 . S
C561 C557 1.385 . S
C561 C560 1.374 1_455 S
C562 C559 1.499 . S
C562 C563 1.373 . S
C562 C564 1.389 . S
C563 H542 0.950 . S
C563 C562 1.373 . S
C563 C579 1.377 . S
C564 C562 1.389 . S
C564 C565 1.524 . S
C564 C578 1.377 . S
C565 C564 1.524 . S
C565 C566 1.397 . S
C565 C570 1.363 . S
C566 H543 0.950 . S
C566 C565 1.397 . S
C566 C567 1.334 . S
C567 H544 0.950 . S
C567 C566 1.334 . S
C567 C568 1.287 . S
C568 C567 1.287 . S
C568 C569 1.524 . S
C568 H587 0.913 . S
C569 H545 0.950 . S
C569 C568 1.524 . S
C569 C570 1.415 . S
C570 H546 0.950 . S
C570 C565 1.363 . S
C570 C569 1.415 . S
C571 H547 0.951 . S
C571 C572 1.366 . S
C571 C573 1.388 . S
C572 C571 1.366 . S
C572 C576 1.385 . S
C573 H548 0.951 . S
C573 C571 1.388 . S
C573 C574 1.366 . S
C574 C573 1.366 . S
C574 C575 1.414 . S
C574 C577 1.499 . S
C575 H549 0.950 . S
C575 C574 1.414 . S
C575 C576 1.374 . S
C576 H550 0.950 . S
C576 C572 1.385 . S
C576 C575 1.374 . S
C577 C574 1.499 . S
C577 C578 1.373 . S
C577 C579 1.389 . S
C578 H551 0.950 . S
C578 C564 1.377 . S
C578 C577 1.373 . S
C579 C563 1.377 . S
C579 C577 1.389 . S
C579 C580 1.524 . S
C580 C579 1.524 . S
C580 C581 1.397 . S
C580 C585 1.363 . S
C581 H552 0.950 . S
C581 C580 1.397 . S
C581 C582 1.334 . S
C582 H553 0.950 . S
C582 C581 1.334 . S
C582 C583 1.287 . S
C583 C582 1.287 . S
C583 C584 1.524 . S
C583 H586 0.999 . S
C584 H554 0.950 . S
C584 C583 1.524 . S
C584 C585 1.415 . S
C585 H555 0.950 . S
C585 C580 1.363 . S
C585 C584 1.415 . S
H586 C583 0.999 . S
H587 C568 0.913 . S
H588 C606 0.951 . S
H589 C608 0.951 . S
H590 C610 0.950 . S
H591 C611 0.950 . S
H592 C613 0.950 . S
H593 C616 0.950 . S
H594 C617 0.950 . S
H595 C619 0.950 . S
H596 C620 0.950 . S
H597 C621 0.951 . S
H598 C623 0.951 . S
H599 C625 0.950 . S
H600 C626 0.950 . S
H601 C628 0.950 . S
H602 C631 0.950 . S
H603 C632 0.950 . S
H604 C634 0.950 . S
H605 C635 0.950 . S
C606 H588 0.951 . S
C606 C607 1.366 . S
C606 C608 1.388 . S
C607 C606 1.366 . S
C607 C611 1.385 . S
C608 H589 0.951 . S
C608 C606 1.388 . S
C608 C609 1.366 . S
C609 C608 1.366 . S
C609 C610 1.414 . S
C609 C612 1.499 . S
C610 H590 0.950 . S
C610 C609 1.414 . S
C610 C611 1.374 . S
C611 H591 0.950 . S
C611 C607 1.385 . S
C611 C610 1.374 . S
C612 C609 1.499 . S
C612 C613 1.373 . S
C612 C614 1.389 . S
C613 H592 0.950 . S
C613 C612 1.373 . S
C613 C629 1.377 . S
C614 C612 1.389 . S
C614 C615 1.524 . S
C614 C628 1.377 . S
C615 C614 1.524 . S
C615 C616 1.397 . S
C615 C620 1.363 . S
C616 H593 0.950 . S
C616 C615 1.397 . S
C616 C617 1.334 . S
C617 H594 0.950 . S
C617 C616 1.334 . S
C617 C618 1.287 . S
C618 C617 1.287 . S
C618 C619 1.524 . S
C618 H637 0.913 . S
C619 H595 0.950 . S
C619 C618 1.524 . S
C619 C620 1.415 . S
C620 H596 0.950 . S
C620 C615 1.363 . S
C620 C619 1.415 . S
C621 H597 0.951 . S
C621 C622 1.366 . S
C621 C623 1.388 . S
C622 C621 1.366 . S
C622 C626 1.385 . S
C623 H598 0.951 . S
C623 C621 1.388 . S
C623 C624 1.366 . S
C624 C623 1.366 . S
C624 C625 1.414 . S
C624 C627 1.499 . S
C625 H599 0.950 . S
C625 C624 1.414 . S
C625 C626 1.374 . S
C626 H600 0.950 . S
C626 C622 1.385 . S
C626 C625 1.374 . S
C627 C624 1.499 . S
C627 C628 1.373 . S
C627 C629 1.389 . S
C628 H601 0.950 . S
C628 C614 1.377 . S
C628 C627 1.373 . S
C629 C613 1.377 . S
C629 C627 1.389 . S
C629 C630 1.524 . S
C630 C629 1.524 . S
C630 C631 1.397 . S
C630 C635 1.363 . S
C631 H602 0.950 . S
C631 C630 1.397 . S
C631 C632 1.334 . S
C632 H603 0.950 . S
C632 C631 1.334 . S
C632 C633 1.287 . S
C633 C632 1.287 . S
C633 C634 1.524 . S
C633 H636 0.999 . S
C634 H604 0.950 . S
C634 C633 1.524 . S
C634 C635 1.415 . S
C635 H605 0.950 . S
C635 C630 1.363 . S
C635 C634 1.415 . S
H636 C633 0.999 . S
H637 C618 0.913 . S
H638 C656 0.951 . S
H639 C658 0.951 . S
H640 C660 0.950 . S
H641 C661 0.950 . S
H642 C663 0.950 . S
H643 C666 0.950 . S
H644 C667 0.950 . S
H645 C669 0.950 . S
H646 C670 0.950 . S
H647 C671 0.951 . S
H648 C673 0.951 . S
H649 C675 0.950 . S
H650 C676 0.950 . S
H651 C678 0.950 . S
H652 C681 0.950 . S
H653 C682 0.950 . S
H654 C684 0.950 . S
H655 C685 0.950 . S
C656 H638 0.951 . S
C656 C657 1.366 . S
C656 C658 1.388 . S
C657 C656 1.366 . S
C657 C661 1.385 . S
C658 H639 0.951 . S
C658 C656 1.388 . S
C658 C659 1.366 . S
C659 C658 1.366 . S
C659 C660 1.414 . S
C659 C662 1.499 . S
C660 H640 0.950 . S
C660 C659 1.414 . S
C660 C661 1.374 . S
C661 H641 0.950 . S
C661 C657 1.385 . S
C661 C660 1.374 . S
C662 C659 1.499 . S
C662 C663 1.373 . S
C662 C664 1.389 . S
C663 H642 0.950 . S
C663 C662 1.373 . S
C663 C679 1.377 . S
C664 C662 1.389 . S
C664 C665 1.524 . S
C664 C678 1.377 . S
C665 C664 1.524 . S
C665 C666 1.397 . S
C665 C670 1.363 . S
C666 H643 0.950 . S
C666 C665 1.397 . S
C666 C667 1.334 . S
C667 H644 0.950 . S
C667 C666 1.334 . S
C667 C668 1.287 . S
C668 C667 1.287 . S
C668 C669 1.524 . S
C668 H687 0.913 . S
C669 H645 0.950 . S
C669 C668 1.524 . S
C669 C670 1.415 . S
C670 H646 0.950 . S
C670 C665 1.363 . S
C670 C669 1.415 . S
C671 H647 0.951 . S
C671 C672 1.366 . S
C671 C673 1.388 . S
C672 C671 1.366 . S
C672 C676 1.385 . S
C673 H648 0.951 . S
C673 C671 1.388 . S
C673 C674 1.366 . S
C674 C673 1.366 . S
C674 C675 1.414 . S
C674 C677 1.499 . S
C675 H649 0.950 . S
C675 C674 1.414 . S
C675 C676 1.374 . S
C676 H650 0.950 . S
C676 C672 1.385 . S
C676 C675 1.374 . S
C677 C674 1.499 . S
C677 C678 1.373 . S
C677 C679 1.389 . S
C678 H651 0.950 . S
C678 C664 1.377 . S
C678 C677 1.373 . S
C679 C663 1.377 . S
C679 C677 1.389 . S
C679 C680 1.524 . S
C680 C679 1.524 . S
C680 C681 1.397 . S
C680 C685 1.363 . S
C681 H652 0.950 . S
C681 C680 1.397 . S
C681 C682 1.334 . S
C682 H653 0.950 . S
C682 C681 1.334 . S
C682 C683 1.287 . S
C683 C682 1.287 . S
C683 C684 1.524 . S
C683 H686 0.999 . S
C684 H654 0.950 . S
C684 C683 1.524 . S
C684 C685 1.415 . S
C685 H655 0.950 . S
C685 C680 1.363 . S
C685 C684 1.415 . S
H686 C683 0.999 . S
H687 C668 0.913 . S
H688 C706 0.951 . S
H689 C708 0.951 . S
H690 C710 0.950 . S
H691 C711 0.950 . S
H692 C713 0.950 . S
H693 C716 0.950 . S
H694 C717 0.950 . S
H695 C719 0.950 . S
H696 C720 0.950 . S
H697 C721 0.951 . S
H698 C723 0.951 . S
H699 C725 0.950 . S
H700 C726 0.950 . S
H701 C728 0.950 . S
H702 C731 0.950 . S
H703 C732 0.950 . S
H704 C734 0.950 . S
H705 C735 0.950 . S
C706 H688 0.951 . S
C706 C707 1.366 . S
C706 C708 1.388 . S
C707 C706 1.366 . S
C707 C711 1.385 . S
C708 H689 0.951 . S
C708 C706 1.388 . S
C708 C709 1.366 . S
C709 C708 1.366 . S
C709 C710 1.414 . S
C709 C712 1.499 . S
C710 H690 0.950 . S
C710 C709 1.414 . S
C710 C711 1.374 . S
C711 H691 0.950 . S
C711 C707 1.385 . S
C711 C710 1.374 . S
C712 C709 1.499 . S
C712 C713 1.373 . S
C712 C714 1.389 . S
C713 H692 0.950 . S
C713 C712 1.373 . S
C713 C729 1.377 . S
C714 C712 1.389 . S
C714 C715 1.524 . S
C714 C728 1.377 . S
C715 C714 1.524 . S
C715 C716 1.397 . S
C715 C720 1.363 . S
C716 H693 0.950 . S
C716 C715 1.397 . S
C716 C717 1.334 . S
C717 H694 0.950 . S
C717 C716 1.334 . S
C717 C718 1.287 . S
C718 C717 1.287 . S
C718 C719 1.524 . S
C718 H737 0.913 . S
C719 H695 0.950 . S
C719 C718 1.524 . S
C719 C720 1.415 . S
C720 H696 0.950 . S
C720 C715 1.363 . S
C720 C719 1.415 . S
C721 H697 0.951 . S
C721 C722 1.366 . S
C721 C723 1.388 . S
C722 C721 1.366 . S
C722 C726 1.385 . S
C723 H698 0.951 . S
C723 C721 1.388 . S
C723 C724 1.366 . S
C724 C723 1.366 . S
C724 C725 1.414 . S
C724 C727 1.499 . S
C725 H699 0.950 . S
C725 C724 1.414 . S
C725 C726 1.374 . S
C726 H700 0.950 . S
C726 C722 1.385 . S
C726 C725 1.374 . S
C727 C724 1.499 . S
C727 C728 1.373 . S
C727 C729 1.389 . S
C728 H701 0.950 . S
C728 C714 1.377 . S
C728 C727 1.373 . S
C729 C713 1.377 . S
C729 C727 1.389 . S
C729 C730 1.524 . S
C730 C729 1.524 . S
C730 C731 1.397 . S
C730 C735 1.363 . S
C731 H702 0.950 . S
C731 C730 1.397 . S
C731 C732 1.334 . S
C732 H703 0.950 . S
C732 C731 1.334 . S
C732 C733 1.287 . S
C733 C732 1.287 . S
C733 C734 1.524 . S
C733 H736 0.999 . S
C734 H704 0.950 . S
C734 C733 1.524 . S
C734 C735 1.415 . S
C735 H705 0.950 . S
C735 C730 1.363 . S
C735 C734 1.415 . S
H736 C733 0.999 . S
H737 C718 0.913 . S
H738 C756 0.951 . S
H739 C758 0.951 . S
H740 C760 0.950 . S
H741 C761 0.950 . S
H742 C763 0.950 . S
H743 C766 0.950 . S
H744 C767 0.950 . S
H745 C769 0.950 . S
H746 C770 0.950 . S
H747 C771 0.951 . S
H748 C773 0.951 . S
H749 C775 0.950 . S
H750 C776 0.950 . S
H751 C778 0.950 . S
H752 C781 0.950 . S
H753 C782 0.950 . S
H754 C784 0.950 . S
H755 C785 0.950 . S
C756 H738 0.951 . S
C756 C757 1.366 . S
C756 C758 1.388 . S
C757 C756 1.366 . S
C757 C761 1.385 . S
C758 H739 0.951 . S
C758 C756 1.388 . S
C758 C759 1.366 . S
C759 C758 1.366 . S
C759 C760 1.414 . S
C759 C762 1.499 . S
C760 H740 0.950 . S
C760 C759 1.414 . S
C760 C761 1.374 . S
C761 H741 0.950 . S
C761 C757 1.385 . S
C761 C760 1.374 . S
C762 C759 1.499 . S
C762 C763 1.373 . S
C762 C764 1.389 . S
C763 H742 0.950 . S
C763 C762 1.373 . S
C763 C779 1.377 . S
C764 C762 1.389 . S
C764 C765 1.524 . S
C764 C778 1.377 . S
C765 C764 1.524 . S
C765 C766 1.397 . S
C765 C770 1.363 . S
C766 H743 0.950 . S
C766 C765 1.397 . S
C766 C767 1.334 . S
C767 H744 0.950 . S
C767 C766 1.334 . S
C767 C768 1.287 . S
C768 C767 1.287 . S
C768 C769 1.524 . S
C768 H787 0.913 . S
C769 H745 0.950 . S
C769 C768 1.524 . S
C769 C770 1.415 . S
C770 H746 0.950 . S
C770 C765 1.363 . S
C770 C769 1.415 . S
C771 H747 0.951 . S
C771 C772 1.366 . S
C771 C773 1.388 . S
C772 C771 1.366 . S
C772 C776 1.385 . S
C773 H748 0.951 . S
C773 C771 1.388 . S
C773 C774 1.366 . S
C774 C773 1.366 . S
C774 C775 1.414 . S
C774 C777 1.499 . S
C775 H749 0.950 . S
C775 C774 1.414 . S
C775 C776 1.374 . S
C776 H750 0.950 . S
C776 C772 1.385 . S
C776 C775 1.374 . S
C777 C774 1.499 . S
C777 C778 1.373 . S
C777 C779 1.389 . S
C778 H751 0.950 . S
C778 C764 1.377 . S
C778 C777 1.373 . S
C779 C763 1.377 . S
C779 C777 1.389 . S
C779 C780 1.524 . S
C780 C779 1.524 . S
C780 C781 1.397 . S
C780 C785 1.363 . S
C781 H752 0.950 . S
C781 C780 1.397 . S
C781 C782 1.334 . S
C782 H753 0.950 . S
C782 C781 1.334 . S
C782 C783 1.287 . S
C783 C782 1.287 . S
C783 C784 1.524 . S
C783 H786 0.999 . S
C784 H754 0.950 . S
C784 C783 1.524 . S
C784 C785 1.415 . S
C785 H755 0.950 . S
C785 C780 1.363 . S
C785 C784 1.415 . S
H786 C783 0.999 . S
H787 C768 0.913 . S
H788 C806 0.951 . S
H789 C808 0.951 . S
H790 C810 0.950 . S
H791 C811 0.950 . S
H792 C813 0.950 . S
H793 C816 0.950 . S
H794 C817 0.950 . S
H795 C819 0.950 1_545 S
H796 C820 0.950 1_545 S
H797 C821 0.951 . S
H798 C823 0.951 . S
H799 C825 0.950 . S
H800 C826 0.950 . S
H801 C828 0.950 . S
H802 C831 0.950 . S
H803 C832 0.950 . S
H804 C834 0.950 . S
H805 C835 0.950 . S
C806 H788 0.951 . S
C806 C807 1.366 . S
C806 C808 1.388 . S
C807 C806 1.366 . S
C807 C811 1.385 . S
C808 H789 0.951 . S
C808 C806 1.388 . S
C808 C809 1.366 . S
C809 C808 1.366 . S
C809 C810 1.414 . S
C809 C812 1.499 . S
C810 H790 0.950 . S
C810 C809 1.414 . S
C810 C811 1.374 . S
C811 H791 0.950 . S
C811 C807 1.385 . S
C811 C810 1.374 . S
C812 C809 1.499 . S
C812 C813 1.373 . S
C812 C814 1.389 . S
C813 H792 0.950 . S
C813 C812 1.373 . S
C813 C829 1.377 1_565 S
C814 C812 1.389 . S
C814 C815 1.524 . S
C814 C828 1.377 1_565 S
C815 C814 1.524 . S
C815 C816 1.397 . S
C815 C820 1.363 . S
C816 H793 0.950 . S
C816 C815 1.397 . S
C816 C817 1.334 . S
C817 H794 0.950 . S
C817 C816 1.334 . S
C817 C818 1.287 . S
C818 C817 1.287 . S
C818 C819 1.524 . S
C818 H837 0.913 . S
C819 H795 0.950 1_565 S
C819 C818 1.524 . S
C819 C820 1.415 . S
C820 H796 0.950 1_565 S
C820 C815 1.363 . S
C820 C819 1.415 . S
C821 H797 0.951 . S
C821 C822 1.366 . S
C821 C823 1.388 . S
C822 C821 1.366 . S
C822 C826 1.385 . S
C823 H798 0.951 . S
C823 C821 1.388 . S
C823 C824 1.366 . S
C824 C823 1.366 . S
C824 C825 1.414 . S
C824 C827 1.499 . S
C825 H799 0.950 . S
C825 C824 1.414 . S
C825 C826 1.374 . S
C826 H800 0.950 . S
C826 C822 1.385 . S
C826 C825 1.374 . S
C827 C824 1.499 . S
C827 C828 1.373 . S
C827 C829 1.389 . S
C828 H801 0.950 . S
C828 C814 1.377 1_545 S
C828 C827 1.373 . S
C829 C813 1.377 1_545 S
C829 C827 1.389 . S
C829 C830 1.524 . S
C830 C829 1.524 . S
C830 C831 1.397 . S
C830 C835 1.363 1_545 S
C831 H802 0.950 . S
C831 C830 1.397 . S
C831 C832 1.334 . S
C832 H803 0.950 . S
C832 C831 1.334 . S
C832 C833 1.287 . S
C833 C832 1.287 . S
C833 C834 1.524 1_545 S
C833 H836 0.999 . S
C834 H804 0.950 . S
C834 C833 1.524 1_565 S
C834 C835 1.415 . S
C835 H805 0.950 . S
C835 C830 1.363 1_565 S
C835 C834 1.415 . S
H836 C833 0.999 . S
H837 C818 0.913 . S
H838 C856 0.951 . S
H839 C858 0.951 . S
H840 C860 0.950 . S
H841 C861 0.950 . S
H842 C863 0.950 . S
H843 C866 0.950 . S
H844 C867 0.950 . S
H845 C869 0.950 . S
H846 C870 0.950 . S
H847 C871 0.951 . S
H848 C873 0.951 . S
H849 C875 0.950 . S
H850 C876 0.950 . S
H851 C878 0.950 . S
H852 C881 0.950 . S
H853 C882 0.950 . S
H854 C884 0.950 . S
H855 C885 0.950 . S
C856 H838 0.951 . S
C856 C857 1.366 . S
C856 C858 1.388 . S
C857 C856 1.366 . S
C857 C861 1.385 . S
C858 H839 0.951 . S
C858 C856 1.388 . S
C858 C859 1.366 . S
C859 C858 1.366 . S
C859 C860 1.414 . S
C859 C862 1.499 . S
C860 H840 0.950 . S
C860 C859 1.414 . S
C860 C861 1.374 . S
C861 H841 0.950 . S
C861 C857 1.385 . S
C861 C860 1.374 . S
C862 C859 1.499 . S
C862 C863 1.373 . S
C862 C864 1.389 . S
C863 H842 0.950 . S
C863 C862 1.373 . S
C863 C879 1.377 . S
C864 C862 1.389 . S
C864 C865 1.524 . S
C864 C878 1.377 . S
C865 C864 1.524 . S
C865 C866 1.397 . S
C865 C870 1.363 . S
C866 H843 0.950 . S
C866 C865 1.397 . S
C866 C867 1.334 . S
C867 H844 0.950 . S
C867 C866 1.334 . S
C867 C868 1.287 . S
C868 C867 1.287 . S
C868 C869 1.524 . S
C868 H887 0.913 . S
C869 H845 0.950 . S
C869 C868 1.524 . S
C869 C870 1.415 . S
C870 H846 0.950 . S
C870 C865 1.363 . S
C870 C869 1.415 . S
C871 H847 0.951 . S
C871 C872 1.366 . S
C871 C873 1.388 . S
C872 C871 1.366 . S
C872 C876 1.385 . S
C873 H848 0.951 . S
C873 C871 1.388 . S
C873 C874 1.366 . S
C874 C873 1.366 . S
C874 C875 1.414 . S
C874 C877 1.499 1_565 S
C875 H849 0.950 . S
C875 C874 1.414 . S
C875 C876 1.374 . S
C876 H850 0.950 . S
C876 C872 1.385 . S
C876 C875 1.374 . S
C877 C874 1.499 1_545 S
C877 C878 1.373 . S
C877 C879 1.389 . S
C878 H851 0.950 . S
C878 C864 1.377 . S
C878 C877 1.373 . S
C879 C863 1.377 . S
C879 C877 1.389 . S
C879 C880 1.524 . S
C880 C879 1.524 . S
C880 C881 1.397 1_545 S
C880 C885 1.363 . S
C881 H852 0.950 . S
C881 C880 1.397 1_565 S
C881 C882 1.334 . S
C882 H853 0.950 . S
C882 C881 1.334 . S
C882 C883 1.287 . S
C883 C882 1.287 . S
C883 C884 1.524 1_565 S
C883 H886 0.999 . S
C884 H854 0.950 . S
C884 C883 1.524 1_545 S
C884 C885 1.415 . S
C885 H855 0.950 . S
C885 C880 1.363 . S
C885 C884 1.415 . S
H886 C883 0.999 . S
H887 C868 0.913 . S
H888 C906 0.951 . S
H889 C908 0.951 . S
H890 C910 0.950 . S
H891 C911 0.950 . S
H892 C913 0.950 . S
H893 C916 0.950 . S
H894 C917 0.950 . S
H895 C919 0.950 . S
H896 C920 0.950 . S
H897 C921 0.951 . S
H898 C923 0.951 . S
H899 C925 0.950 . S
H900 C926 0.950 . S
H901 C928 0.950 . S
H902 C931 0.950 . S
H903 C932 0.950 . S
H904 C934 0.950 . S
H905 C935 0.950 . S
C906 H888 0.951 . S
C906 C907 1.366 . S
C906 C908 1.388 . S
C907 C906 1.366 . S
C907 C911 1.385 . S
C908 H889 0.951 . S
C908 C906 1.388 . S
C908 C909 1.366 . S
C909 C908 1.366 . S
C909 C910 1.414 . S
C909 C912 1.499 . S
C910 H890 0.950 . S
C910 C909 1.414 . S
C910 C911 1.374 . S
C911 H891 0.950 . S
C911 C907 1.385 . S
C911 C910 1.374 . S
C912 C909 1.499 . S
C912 C913 1.373 1_545 S
C912 C914 1.389 . S
C913 H892 0.950 . S
C913 C912 1.373 1_565 S
C913 C929 1.377 . S
C914 C912 1.389 . S
C914 C915 1.524 . S
C914 C928 1.377 1_545 S
C915 C914 1.524 . S
C915 C916 1.397 . S
C915 C920 1.363 . S
C916 H893 0.950 . S
C916 C915 1.397 . S
C916 C917 1.334 . S
C917 H894 0.950 . S
C917 C916 1.334 . S
C917 C918 1.287 . S
C918 C917 1.287 . S
C918 C919 1.524 . S
C918 H937 0.913 . S
C919 H895 0.950 . S
C919 C918 1.524 . S
C919 C920 1.415 . S
C920 H896 0.950 . S
C920 C915 1.363 . S
C920 C919 1.415 . S
C921 H897 0.951 . S
C921 C922 1.366 . S
C921 C923 1.388 . S
C922 C921 1.366 . S
C922 C926 1.385 . S
C923 H898 0.951 . S
C923 C921 1.388 . S
C923 C924 1.366 . S
C924 C923 1.366 . S
C924 C925 1.414 . S
C924 C927 1.499 . S
C925 H899 0.950 . S
C925 C924 1.414 . S
C925 C926 1.374 . S
C926 H900 0.950 . S
C926 C922 1.385 . S
C926 C925 1.374 . S
C927 C924 1.499 . S
C927 C928 1.373 . S
C927 C929 1.389 . S
C928 H901 0.950 . S
C928 C914 1.377 1_565 S
C928 C927 1.373 . S
C929 C913 1.377 . S
C929 C927 1.389 . S
C929 C930 1.524 . S
C930 C929 1.524 . S
C930 C931 1.397 . S
C930 C935 1.363 . S
C931 H902 0.950 . S
C931 C930 1.397 . S
C931 C932 1.334 . S
C932 H903 0.950 . S
C932 C931 1.334 . S
C932 C933 1.287 . S
C933 C932 1.287 . S
C933 C934 1.524 . S
C933 H936 0.999 . S
C934 H904 0.950 . S
C934 C933 1.524 . S
C934 C935 1.415 . S
C935 H905 0.950 . S
C935 C930 1.363 . S
C935 C934 1.415 . S
H936 C933 0.999 . S
H937 C918 0.913 . S
H938 C956 0.951 . S
H939 C958 0.951 . S
H940 C960 0.951 1_655 S
H941 C961 0.950 1_655 S
H942 C963 0.950 . S
H943 C966 0.950 . S
H944 C967 0.950 . S
H945 C969 0.950 . S
H946 C970 0.950 . S
H947 C971 0.951 . S
H948 C973 0.951 . S
H949 C975 0.950 . S
H950 C976 0.950 . S
H951 C978 0.950 . S
H952 C981 0.950 . S
H953 C982 0.950 . S
H954 C984 0.950 . S
H955 C985 0.950 . S
C956 H938 0.951 . S
C956 C957 1.366 . S
C956 C958 1.388 . S
C957 C956 1.366 . S
C957 C961 1.385 . S
C958 H939 0.951 . S
C958 C956 1.388 . S
C958 C959 1.366 . S
C959 C958 1.366 . S
C959 C960 1.414 . S
C959 C962 1.499 . S
C960 H940 0.951 1_455 S
C960 C959 1.414 . S
C960 C961 1.374 . S
C961 H941 0.950 1_455 S
C961 C957 1.385 . S
C961 C960 1.374 . S
C962 C959 1.499 . S
C962 C963 1.373 . S
C962 C964 1.389 . S
C963 H942 0.950 . S
C963 C962 1.373 . S
C963 C979 1.377 . S
C964 C962 1.389 . S
C964 C965 1.524 . S
C964 C978 1.377 . S
C965 C964 1.524 . S
C965 C966 1.397 . S
C965 C970 1.363 . S
C966 H943 0.950 . S
C966 C965 1.397 . S
C966 C967 1.334 . S
C967 H944 0.950 . S
C967 C966 1.334 . S
C967 C968 1.287 . S
C968 C967 1.287 . S
C968 C969 1.524 . S
C968 H987 0.913 . S
C969 H945 0.950 . S
C969 C968 1.524 . S
C969 C970 1.415 . S
C970 H946 0.950 . S
C970 C965 1.363 . S
C970 C969 1.415 . S
C971 H947 0.951 . S
C971 C972 1.366 . S
C971 C973 1.388 . S
C972 C971 1.366 . S
C972 C976 1.385 . S
C973 H948 0.951 . S
C973 C971 1.388 . S
C973 C974 1.366 . S
C974 C973 1.366 . S
C974 C975 1.414 . S
C974 C977 1.499 1_545 S
C975 H949 0.950 . S
C975 C974 1.414 . S
C975 C976 1.374 . S
C976 H950 0.950 . S
C976 C972 1.385 . S
C976 C975 1.374 . S
C977 C974 1.499 1_565 S
C977 C978 1.373 . S
C977 C979 1.389 . S
C978 H951 0.950 . S
C978 C964 1.377 . S
C978 C977 1.373 . S
C979 C963 1.377 . S
C979 C977 1.389 . S
C979 C980 1.524 . S
C980 C979 1.524 . S
C980 C981 1.397 . S
C980 C985 1.363 1_455 S
C981 H952 0.950 . S
C981 C980 1.397 . S
C981 C982 1.334 1_565 S
C982 H953 0.950 . S
C982 C981 1.334 1_545 S
C982 C983 1.287 1_445 S
C983 C982 1.287 1_665 S
C983 C984 1.525 . S
C983 H986 0.998 1_565 S
C984 H954 0.950 . S
C984 C983 1.525 . S
C984 C985 1.415 . S
C985 H955 0.950 . S
C985 C980 1.363 1_655 S
C985 C984 1.415 . S
H986 C983 0.998 1_545 S
H987 C968 0.913 . S
H988 C1006 0.951 . S
H989 C1008 0.951 . S
H990 C1010 0.950 . S
H991 C1011 0.950 . S
H992 C1013 0.950 1_554 S
H993 C1016 0.950 . S
H994 C1017 0.950 . S
H995 C1019 0.950 . S
H996 C1020 0.950 . S
H997 C1021 0.951 . S
H998 C1023 0.951 . S
H999 C1025 0.950 . S
H1000 C1026 0.950 . S
H1001 C1028 0.950 . S
H1002 C1031 0.950 . S
H1003 C1032 0.950 . S
H1004 C1034 0.950 . S
H1005 C1035 0.950 . S
C1006 H988 0.951 . S
C1006 C1007 1.366 . S
C1006 C1008 1.388 . S
C1007 C1006 1.366 . S
C1007 C1011 1.385 . S
C1008 H989 0.951 . S
C1008 C1006 1.388 . S
C1008 C1009 1.366 . S
C1009 C1008 1.366 . S
C1009 C1010 1.414 . S
C1009 C1012 1.499 . S
C1010 H990 0.950 . S
C1010 C1009 1.414 . S
C1010 C1011 1.374 . S
C1011 H991 0.950 . S
C1011 C1007 1.385 . S
C1011 C1010 1.374 . S
C1012 C1009 1.499 . S
C1012 C1013 1.373 1_554 S
C1012 C1014 1.389 1_554 S
C1013 H992 0.950 1_556 S
C1013 C1012 1.373 1_556 S
C1013 C1029 1.377 . S
C1014 C1012 1.389 1_556 S
C1014 C1015 1.524 . S
C1014 C1028 1.377 . S
C1015 C1014 1.524 . S
C1015 C1016 1.397 1_556 S
C1015 C1020 1.363 . S
C1016 H993 0.950 . S
C1016 C1015 1.397 1_554 S
C1016 C1017 1.334 . S
C1017 H994 0.950 . S
C1017 C1016 1.334 . S
C1017 C1018 1.287 1_554 S
C1018 C1017 1.287 1_556 S
C1018 C1019 1.524 . S
C1018 H1037 0.915 1_556 S
C1019 H995 0.950 . S
C1019 C1018 1.524 . S
C1019 C1020 1.415 . S
C1020 H996 0.950 . S
C1020 C1015 1.363 . S
C1020 C1019 1.415 . S
C1021 H997 0.951 . S
C1021 C1022 1.366 . S
C1021 C1023 1.388 . S
C1022 C1021 1.366 . S
C1022 C1026 1.385 . S
C1023 H998 0.951 . S
C1023 C1021 1.388 . S
C1023 C1024 1.366 . S
C1024 C1023 1.366 . S
C1024 C1025 1.414 . S
C1024 C1027 1.499 . S
C1025 H999 0.950 . S
C1025 C1024 1.414 . S
C1025 C1026 1.374 . S
C1026 H1000 0.950 . S
C1026 C1022 1.385 . S
C1026 C1025 1.374 . S
C1027 C1024 1.499 . S
C1027 C1028 1.373 . S
C1027 C1029 1.389 . S
C1028 H1001 0.950 . S
C1028 C1014 1.377 . S
C1028 C1027 1.373 . S
C1029 C1013 1.377 . S
C1029 C1027 1.389 . S
C1029 C1030 1.524 . S
C1030 C1029 1.524 . S
C1030 C1031 1.397 . S
C1030 C1035 1.363 . S
C1031 H1002 0.950 . S
C1031 C1030 1.397 . S
C1031 C1032 1.334 . S
C1032 H1003 0.950 . S
C1032 C1031 1.334 . S
C1032 C1033 1.287 . S
C1033 C1032 1.287 . S
C1033 C1034 1.524 . S
C1033 H1036 0.999 . S
C1034 H1004 0.950 . S
C1034 C1033 1.524 . S
C1034 C1035 1.415 . S
C1035 H1005 0.950 . S
C1035 C1030 1.363 . S
C1035 C1034 1.415 . S
H1036 C1033 0.999 . S
H1037 C1018 0.915 1_554 S
H1038 C1056 0.951 . S
H1039 C1058 0.951 . S
H1040 C1060 0.950 . S
H1041 C1061 0.950 . S
H1042 C1063 0.950 . S
H1043 C1066 0.950 . S
H1044 C1067 0.950 1_655 S
H1045 C1069 0.950 . S
H1046 C1070 0.950 . S
H1047 C1071 0.951 . S
H1048 C1073 0.951 . S
H1049 C1075 0.950 . S
H1050 C1076 0.950 . S
H1051 C1078 0.950 . S
H1052 C1081 0.950 . S
H1053 C1082 0.950 . S
H1054 C1084 0.950 . S
H1055 C1085 0.950 . S
C1056 H1038 0.951 . S
C1056 C1057 1.366 . S
C1056 C1058 1.388 . S
C1057 C1056 1.366 . S
C1057 C1061 1.385 . S
C1058 H1039 0.951 . S
C1058 C1056 1.388 . S
C1058 C1059 1.366 . S
C1059 C1058 1.366 . S
C1059 C1060 1.414 . S
C1059 C1062 1.499 . S
C1060 H1040 0.950 . S
C1060 C1059 1.414 . S
C1060 C1061 1.374 . S
C1061 H1041 0.950 . S
C1061 C1057 1.385 . S
C1061 C1060 1.374 . S
C1062 C1059 1.499 . S
C1062 C1063 1.373 . S
C1062 C1064 1.389 . S
C1063 H1042 0.950 . S
C1063 C1062 1.373 . S
C1063 C1079 1.377 . S
C1064 C1062 1.389 . S
C1064 C1065 1.524 . S
C1064 C1078 1.377 . S
C1065 C1064 1.524 . S
C1065 C1066 1.397 . S
C1065 C1070 1.363 . S
C1066 H1043 0.950 . S
C1066 C1065 1.397 . S
C1066 C1067 1.334 . S
C1067 H1044 0.950 1_455 S
C1067 C1066 1.334 . S
C1067 C1068 1.287 . S
C1068 C1067 1.287 . S
C1068 C1069 1.524 . S
C1068 H1087 0.913 . S
C1069 H1045 0.950 . S
C1069 C1068 1.524 . S
C1069 C1070 1.415 . S
C1070 H1046 0.950 . S
C1070 C1065 1.363 . S
C1070 C1069 1.415 . S
C1071 H1047 0.951 . S
C1071 C1072 1.366 . S
C1071 C1073 1.388 . S
C1072 C1071 1.366 . S
C1072 C1076 1.385 . S
C1073 H1048 0.951 . S
C1073 C1071 1.388 . S
C1073 C1074 1.366 . S
C1074 C1073 1.366 . S
C1074 C1075 1.414 . S
C1074 C1077 1.499 . S
C1075 H1049 0.950 . S
C1075 C1074 1.414 . S
C1075 C1076 1.374 . S
C1076 H1050 0.950 . S
C1076 C1072 1.385 . S
C1076 C1075 1.374 . S
C1077 C1074 1.499 . S
C1077 C1078 1.373 . S
C1077 C1079 1.389 . S
C1078 H1051 0.950 . S
C1078 C1064 1.377 . S
C1078 C1077 1.373 . S
C1079 C1063 1.377 . S
C1079 C1077 1.389 . S
C1079 C1080 1.524 . S
C1080 C1079 1.524 . S
C1080 C1081 1.397 . S
C1080 C1085 1.363 . S
C1081 H1052 0.950 . S
C1081 C1080 1.397 . S
C1081 C1082 1.334 . S
C1082 H1053 0.950 . S
C1082 C1081 1.334 . S
C1082 C1083 1.287 . S
C1083 C1082 1.287 . S
C1083 C1084 1.524 . S
C1083 H1086 0.999 . S
C1084 H1054 0.950 . S
C1084 C1083 1.524 . S
C1084 C1085 1.415 . S
C1085 H1055 0.950 . S
C1085 C1080 1.363 . S
C1085 C1084 1.415 . S
H1086 C1083 0.999 . S
H1087 C1068 0.913 . S
H1088 C1106 0.951 . S
H1089 C1108 0.951 . S
H1090 C1110 0.950 . S
H1091 C1111 0.950 . S
H1092 C1113 0.950 . S
H1093 C1116 0.950 . S
H1094 C1117 0.950 . S
H1095 C1119 0.950 . S
H1096 C1120 0.950 . S
H1097 C1121 0.951 . S
H1098 C1123 0.951 . S
H1099 C1125 0.950 . S
H1100 C1126 0.950 . S
H1101 C1128 0.950 . S
H1102 C1131 0.950 . S
H1103 C1132 0.950 . S
H1104 C1134 0.950 . S
H1105 C1135 0.950 . S
C1106 H1088 0.951 . S
C1106 C1107 1.366 . S
C1106 C1108 1.388 . S
C1107 C1106 1.366 . S
C1107 C1111 1.385 . S
C1108 H1089 0.951 . S
C1108 C1106 1.388 . S
C1108 C1109 1.366 . S
C1109 C1108 1.366 . S
C1109 C1110 1.414 . S
C1109 C1112 1.499 . S
C1110 H1090 0.950 . S
C1110 C1109 1.414 . S
C1110 C1111 1.374 . S
C1111 H1091 0.950 . S
C1111 C1107 1.385 . S
C1111 C1110 1.374 . S
C1112 C1109 1.499 . S
C1112 C1113 1.373 . S
C1112 C1114 1.389 . S
C1113 H1092 0.950 . S
C1113 C1112 1.373 . S
C1113 C1129 1.377 . S
C1114 C1112 1.389 . S
C1114 C1115 1.524 . S
C1114 C1128 1.377 . S
C1115 C1114 1.524 . S
C1115 C1116 1.397 . S
C1115 C1120 1.363 . S
C1116 H1093 0.950 . S
C1116 C1115 1.397 . S
C1116 C1117 1.334 . S
C1117 H1094 0.950 . S
C1117 C1116 1.334 . S
C1117 C1118 1.287 . S
C1118 C1117 1.287 . S
C1118 C1119 1.524 . S
C1118 H1137 0.913 . S
C1119 H1095 0.950 . S
C1119 C1118 1.524 . S
C1119 C1120 1.415 . S
C1120 H1096 0.950 . S
C1120 C1115 1.363 . S
C1120 C1119 1.415 . S
C1121 H1097 0.951 . S
C1121 C1122 1.366 . S
C1121 C1123 1.388 . S
C1122 C1121 1.366 . S
C1122 C1126 1.385 . S
C1123 H1098 0.951 . S
C1123 C1121 1.388 . S
C1123 C1124 1.366 . S
C1124 C1123 1.366 . S
C1124 C1125 1.414 . S
C1124 C1127 1.499 . S
C1125 H1099 0.950 . S
C1125 C1124 1.414 . S
C1125 C1126 1.374 . S
C1126 H1100 0.950 . S
C1126 C1122 1.385 . S
C1126 C1125 1.374 . S
C1127 C1124 1.499 . S
C1127 C1128 1.373 . S
C1127 C1129 1.389 . S
C1128 H1101 0.950 . S
C1128 C1114 1.377 . S
C1128 C1127 1.373 . S
C1129 C1113 1.377 . S
C1129 C1127 1.389 . S
C1129 C1130 1.524 . S
C1130 C1129 1.524 . S
C1130 C1131 1.397 . S
C1130 C1135 1.363 . S
C1131 H1102 0.950 . S
C1131 C1130 1.397 . S
C1131 C1132 1.334 . S
C1132 H1103 0.950 . S
C1132 C1131 1.334 . S
C1132 C1133 1.287 . S
C1133 C1132 1.287 . S
C1133 C1134 1.524 . S
C1133 H1136 0.999 . S
C1134 H1104 0.950 . S
C1134 C1133 1.524 . S
C1134 C1135 1.415 . S
C1135 H1105 0.950 . S
C1135 C1130 1.363 . S
C1135 C1134 1.415 . S
H1136 C1133 0.999 . S
H1137 C1118 0.913 . S
H1138 C1156 0.951 . S
H1139 C1158 0.951 . S
H1140 C1160 0.950 . S
H1141 C1161 0.950 . S
H1142 C1163 0.950 . S
H1143 C1166 0.950 . S
H1144 C1167 0.950 . S
H1145 C1169 0.950 . S
H1146 C1170 0.950 . S
H1147 C1171 0.951 . S
H1148 C1173 0.951 . S
H1149 C1175 0.950 . S
H1150 C1176 0.950 . S
H1151 C1178 0.950 . S
H1152 C1181 0.950 . S
H1153 C1182 0.950 . S
H1154 C1184 0.950 . S
H1155 C1185 0.950 . S
C1156 H1138 0.951 . S
C1156 C1157 1.366 . S
C1156 C1158 1.388 . S
C1157 C1156 1.366 . S
C1157 C1161 1.385 . S
C1158 H1139 0.951 . S
C1158 C1156 1.388 . S
C1158 C1159 1.366 . S
C1159 C1158 1.366 . S
C1159 C1160 1.414 . S
C1159 C1162 1.499 . S
C1160 H1140 0.950 . S
C1160 C1159 1.414 . S
C1160 C1161 1.374 . S
C1161 H1141 0.950 . S
C1161 C1157 1.385 . S
C1161 C1160 1.374 . S
C1162 C1159 1.499 . S
C1162 C1163 1.373 . S
C1162 C1164 1.389 . S
C1163 H1142 0.950 . S
C1163 C1162 1.373 . S
C1163 C1179 1.377 . S
C1164 C1162 1.389 . S
C1164 C1165 1.524 . S
C1164 C1178 1.377 . S
C1165 C1164 1.524 . S
C1165 C1166 1.397 . S
C1165 C1170 1.363 . S
C1166 H1143 0.950 . S
C1166 C1165 1.397 . S
C1166 C1167 1.334 . S
C1167 H1144 0.950 . S
C1167 C1166 1.334 . S
C1167 C1168 1.287 . S
C1168 C1167 1.287 . S
C1168 C1169 1.524 . S
C1168 H1187 0.913 . S
C1169 H1145 0.950 . S
C1169 C1168 1.524 . S
C1169 C1170 1.415 . S
C1170 H1146 0.950 . S
C1170 C1165 1.363 . S
C1170 C1169 1.415 . S
C1171 H1147 0.951 . S
C1171 C1172 1.366 . S
C1171 C1173 1.388 . S
C1172 C1171 1.366 . S
C1172 C1176 1.385 . S
C1173 H1148 0.951 . S
C1173 C1171 1.388 . S
C1173 C1174 1.366 . S
C1174 C1173 1.366 . S
C1174 C1175 1.414 . S
C1174 C1177 1.499 . S
C1175 H1149 0.950 . S
C1175 C1174 1.414 . S
C1175 C1176 1.374 . S
C1176 H1150 0.950 . S
C1176 C1172 1.385 . S
C1176 C1175 1.374 . S
C1177 C1174 1.499 . S
C1177 C1178 1.373 . S
C1177 C1179 1.389 . S
C1178 H1151 0.950 . S
C1178 C1164 1.377 . S
C1178 C1177 1.373 . S
C1179 C1163 1.377 . S
C1179 C1177 1.389 . S
C1179 C1180 1.524 . S
C1180 C1179 1.524 . S
C1180 C1181 1.397 . S
C1180 C1185 1.363 . S
C1181 H1152 0.950 . S
C1181 C1180 1.397 . S
C1181 C1182 1.334 . S
C1182 H1153 0.950 . S
C1182 C1181 1.334 . S
C1182 C1183 1.287 . S
C1183 C1182 1.287 . S
C1183 C1184 1.524 . S
C1183 H1186 0.999 . S
C1184 H1154 0.950 . S
C1184 C1183 1.524 . S
C1184 C1185 1.415 . S
C1185 H1155 0.950 . S
C1185 C1180 1.363 . S
C1185 C1184 1.415 . S
H1186 C1183 0.999 . S
H1187 C1168 0.913 . S
H1188 C1206 0.951 . S
H1189 C1208 0.951 . S
H1190 C1210 0.934 1_655 S
H1191 C1211 0.950 1_655 S
H1192 C1213 0.950 1_556 S
H1193 C1216 0.950 . S
H1194 C1217 0.950 . S
H1195 C1219 0.950 . S
H1196 C1220 0.950 . S
H1197 C1221 0.951 . S
H1198 C1223 0.951 . S
H1199 C1225 0.950 . S
H1200 C1226 0.950 . S
H1201 C1228 0.950 . S
H1202 C1231 0.950 . S
H1203 C1232 0.950 . S
H1204 C1234 0.950 1_655 S
H1205 C1235 0.950 1_655 S
C1206 H1188 0.951 . S
C1206 C1207 1.366 . S
C1206 C1208 1.388 . S
C1207 C1206 1.366 . S
C1207 C1211 1.385 . S
C1208 H1189 0.951 . S
C1208 C1206 1.388 . S
C1208 C1209 1.366 . S
C1209 C1208 1.366 . S
C1209 C1210 1.414 . S
C1209 C1212 1.499 . S
C1210 H1190 0.934 1_455 S
C1210 C1209 1.414 . S
C1210 C1211 1.374 . S
C1211 H1191 0.950 1_455 S
C1211 C1207 1.385 . S
C1211 C1210 1.374 . S
C1212 C1209 1.499 . S
C1212 C1213 1.373 1_556 S
C1212 C1214 1.389 1_556 S
C1213 H1192 0.950 1_554 S
C1213 C1212 1.373 1_554 S
C1213 C1229 1.377 . S
C1214 C1212 1.389 1_554 S
C1214 C1215 1.524 . S
C1214 C1228 1.377 . S
C1215 C1214 1.524 . S
C1215 C1216 1.397 1_554 S
C1215 C1220 1.363 . S
C1216 H1193 0.950 . S
C1216 C1215 1.397 1_556 S
C1216 C1217 1.334 . S
C1217 H1194 0.950 . S
C1217 C1216 1.334 . S
C1217 C1218 1.287 . S
C1218 C1217 1.287 . S
C1218 C1219 1.524 1_556 S
C1218 H1237 0.913 . S
C1219 H1195 0.950 . S
C1219 C1218 1.524 1_554 S
C1219 C1220 1.415 . S
C1220 H1196 0.950 . S
C1220 C1215 1.363 . S
C1220 C1219 1.415 . S
C1221 H1197 0.951 . S
C1221 C1222 1.366 . S
C1221 C1223 1.388 . S
C1222 C1221 1.366 . S
C1222 C1226 1.385 . S
C1223 H1198 0.951 . S
C1223 C1221 1.388 . S
C1223 C1224 1.366 . S
C1224 C1223 1.366 . S
C1224 C1225 1.414 . S
C1224 C1227 1.499 . S
C1225 H1199 0.950 . S
C1225 C1224 1.414 . S
C1225 C1226 1.374 . S
C1226 H1200 0.950 . S
C1226 C1222 1.385 . S
C1226 C1225 1.374 . S
C1227 C1224 1.499 . S
C1227 C1228 1.373 . S
C1227 C1229 1.389 . S
C1228 H1201 0.950 . S
C1228 C1214 1.377 . S
C1228 C1227 1.373 . S
C1229 C1213 1.377 . S
C1229 C1227 1.389 . S
C1229 C1230 1.524 . S
C1230 C1229 1.524 . S
C1230 C1231 1.397 . S
C1230 C1235 1.363 . S
C1231 H1202 0.950 . S
C1231 C1230 1.397 . S
C1231 C1232 1.334 . S
C1232 H1203 0.950 . S
C1232 C1231 1.334 . S
C1232 C1233 1.287 . S
C1233 C1232 1.287 . S
C1233 C1234 1.524 . S
C1233 H1236 0.999 . S
C1234 H1204 0.950 1_455 S
C1234 C1233 1.524 . S
C1234 C1235 1.415 . S
C1235 H1205 0.950 1_455 S
C1235 C1230 1.363 . S
C1235 C1234 1.415 . S
H1236 C1233 0.999 . S
H1237 C1218 0.913 . S
H1238 C1256 0.951 . S
H1239 C1258 0.951 . S
H1240 C1260 0.950 . S
H1241 C1261 0.950 . S
H1242 C1263 0.950 . S
H1243 C1266 0.950 . S
H1244 C1267 0.950 . S
H1245 C1269 0.950 . S
H1246 C1270 0.950 . S
H1247 C1271 0.951 . S
H1248 C1273 0.951 . S
H1249 C1275 0.950 . S
H1250 C1276 0.950 . S
H1251 C1278 0.950 . S
H1252 C1281 0.950 . S
H1253 C1282 0.950 . S
H1254 C1284 0.950 . S
H1255 C1285 0.950 . S
C1256 H1238 0.951 . S
C1256 C1257 1.366 . S
C1256 C1258 1.388 . S
C1257 C1256 1.366 . S
C1257 C1261 1.385 . S
C1258 H1239 0.951 . S
C1258 C1256 1.388 . S
C1258 C1259 1.366 . S
C1259 C1258 1.366 . S
C1259 C1260 1.414 . S
C1259 C1262 1.499 . S
C1260 H1240 0.950 . S
C1260 C1259 1.414 . S
C1260 C1261 1.374 . S
C1261 H1241 0.950 . S
C1261 C1257 1.385 . S
C1261 C1260 1.374 . S
C1262 C1259 1.499 . S
C1262 C1263 1.373 . S
C1262 C1264 1.389 . S
C1263 H1242 0.950 . S
C1263 C1262 1.373 . S
C1263 C1279 1.377 . S
C1264 C1262 1.389 . S
C1264 C1265 1.524 . S
C1264 C1278 1.377 . S
C1265 C1264 1.524 . S
C1265 C1266 1.397 . S
C1265 C1270 1.363 . S
C1266 H1243 0.950 . S
C1266 C1265 1.397 . S
C1266 C1267 1.334 . S
C1267 H1244 0.950 . S
C1267 C1266 1.334 . S
C1267 C1268 1.287 . S
C1268 C1267 1.287 . S
C1268 C1269 1.524 . S
C1268 H1287 0.913 . S
C1269 H1245 0.950 . S
C1269 C1268 1.524 . S
C1269 C1270 1.415 . S
C1270 H1246 0.950 . S
C1270 C1265 1.363 . S
C1270 C1269 1.415 . S
C1271 H1247 0.951 . S
C1271 C1272 1.366 . S
C1271 C1273 1.388 . S
C1272 C1271 1.366 . S
C1272 C1276 1.385 . S
C1273 H1248 0.951 . S
C1273 C1271 1.388 . S
C1273 C1274 1.366 . S
C1274 C1273 1.366 . S
C1274 C1275 1.414 . S
C1274 C1277 1.499 . S
C1275 H1249 0.950 . S
C1275 C1274 1.414 . S
C1275 C1276 1.374 . S
C1276 H1250 0.950 . S
C1276 C1272 1.385 . S
C1276 C1275 1.374 . S
C1277 C1274 1.499 . S
C1277 C1278 1.373 . S
C1277 C1279 1.389 . S
C1278 H1251 0.950 . S
C1278 C1264 1.377 . S
C1278 C1277 1.373 . S
C1279 C1263 1.377 . S
C1279 C1277 1.389 . S
C1279 C1280 1.524 . S
C1280 C1279 1.524 . S
C1280 C1281 1.397 . S
C1280 C1285 1.363 . S
C1281 H1252 0.950 . S
C1281 C1280 1.397 . S
C1281 C1282 1.334 . S
C1282 H1253 0.950 . S
C1282 C1281 1.334 . S
C1282 C1283 1.287 . S
C1283 C1282 1.287 . S
C1283 C1284 1.524 . S
C1283 H1286 0.999 . S
C1284 H1254 0.950 . S
C1284 C1283 1.524 . S
C1284 C1285 1.415 . S
C1285 H1255 0.950 . S
C1285 C1280 1.363 . S
C1285 C1284 1.415 . S
H1286 C1283 0.999 . S
H1287 C1268 0.913 . S
H1288 C1306 0.951 . S
H1289 C1308 0.951 . S
H1290 C1310 0.950 . S
H1291 C1311 0.950 . S
H1292 C1313 0.950 . S
H1293 C1316 0.950 . S
H1294 C1317 0.950 . S
H1295 C1319 0.950 . S
H1296 C1320 0.950 . S
H1297 C1321 0.951 . S
H1298 C1323 0.951 . S
H1299 C1325 0.950 . S
H1300 C1326 0.950 . S
H1301 C1328 0.950 . S
H1302 C1331 0.950 . S
H1303 C1332 0.950 . S
H1304 C1334 0.950 . S
H1305 C1335 0.950 . S
C1306 H1288 0.951 . S
C1306 C1307 1.366 . S
C1306 C1308 1.388 . S
C1307 C1306 1.366 . S
C1307 C1311 1.385 . S
C1308 H1289 0.951 . S
C1308 C1306 1.388 . S
C1308 C1309 1.366 . S
C1309 C1308 1.366 . S
C1309 C1310 1.414 . S
C1309 C1312 1.499 . S
C1310 H1290 0.950 . S
C1310 C1309 1.414 . S
C1310 C1311 1.374 . S
C1311 H1291 0.950 . S
C1311 C1307 1.385 . S
C1311 C1310 1.374 . S
C1312 C1309 1.499 . S
C1312 C1313 1.373 . S
C1312 C1314 1.389 . S
C1313 H1292 0.950 . S
C1313 C1312 1.373 . S
C1313 C1329 1.377 . S
C1314 C1312 1.389 . S
C1314 C1315 1.524 . S
C1314 C1328 1.377 . S
C1315 C1314 1.524 . S
C1315 C1316 1.397 . S
C1315 C1320 1.363 . S
C1316 H1293 0.950 . S
C1316 C1315 1.397 . S
C1316 C1317 1.334 . S
C1317 H1294 0.950 . S
C1317 C1316 1.334 . S
C1317 C1318 1.287 . S
C1318 C1317 1.287 . S
C1318 C1319 1.524 . S
C1318 H1337 0.913 . S
C1319 H1295 0.950 . S
C1319 C1318 1.524 . S
C1319 C1320 1.415 . S
C1320 H1296 0.950 . S
C1320 C1315 1.363 . S
C1320 C1319 1.415 . S
C1321 H1297 0.951 . S
C1321 C1322 1.366 . S
C1321 C1323 1.388 . S
C1322 C1321 1.366 . S
C1322 C1326 1.385 . S
C1323 H1298 0.951 . S
C1323 C1321 1.388 . S
C1323 C1324 1.366 . S
C1324 C1323 1.366 . S
C1324 C1325 1.414 . S
C1324 C1327 1.499 . S
C1325 H1299 0.950 . S
C1325 C1324 1.414 . S
C1325 C1326 1.374 . S
C1326 H1300 0.950 . S
C1326 C1322 1.385 . S
C1326 C1325 1.374 . S
C1327 C1324 1.499 . S
C1327 C1328 1.373 . S
C1327 C1329 1.389 . S
C1328 H1301 0.950 . S
C1328 C1314 1.377 . S
C1328 C1327 1.373 . S
C1329 C1313 1.377 . S
C1329 C1327 1.389 . S
C1329 C1330 1.524 . S
C1330 C1329 1.524 . S
C1330 C1331 1.397 . S
C1330 C1335 1.363 . S
C1331 H1302 0.950 . S
C1331 C1330 1.397 . S
C1331 C1332 1.334 . S
C1332 H1303 0.950 . S
C1332 C1331 1.334 . S
C1332 C1333 1.287 . S
C1333 C1332 1.287 . S
C1333 C1334 1.524 . S
C1333 H1336 0.999 . S
C1334 H1304 0.950 . S
C1334 C1333 1.524 . S
C1334 C1335 1.415 . S
C1335 H1305 0.950 . S
C1335 C1330 1.363 . S
C1335 C1334 1.415 . S
H1336 C1333 0.999 . S
H1337 C1318 0.913 . S
H1338 C1356 0.951 . S
H1339 C1358 0.951 . S
H1340 C1360 0.950 . S
H1341 C1361 0.950 . S
H1342 C1363 0.950 . S
H1343 C1366 0.950 . S
H1344 C1367 0.950 . S
H1345 C1369 0.950 1_655 S
H1346 C1370 0.950 . S
H1347 C1371 0.951 . S
H1348 C1373 0.951 . S
H1349 C1375 0.950 . S
H1350 C1376 0.950 . S
H1351 C1378 0.950 . S
H1352 C1381 0.950 . S
H1353 C1382 0.950 . S
H1354 C1384 0.950 . S
H1355 C1385 0.950 . S
C1356 H1338 0.951 . S
C1356 C1357 1.366 . S
C1356 C1358 1.388 . S
C1357 C1356 1.366 . S
C1357 C1361 1.385 . S
C1358 H1339 0.951 . S
C1358 C1356 1.388 . S
C1358 C1359 1.366 . S
C1359 C1358 1.366 . S
C1359 C1360 1.414 . S
C1359 C1362 1.499 . S
C1360 H1340 0.950 . S
C1360 C1359 1.414 . S
C1360 C1361 1.374 . S
C1361 H1341 0.950 . S
C1361 C1357 1.385 . S
C1361 C1360 1.374 . S
C1362 C1359 1.499 . S
C1362 C1363 1.373 . S
C1362 C1364 1.389 . S
C1363 H1342 0.950 . S
C1363 C1362 1.373 . S
C1363 C1379 1.377 . S
C1364 C1362 1.389 . S
C1364 C1365 1.524 . S
C1364 C1378 1.377 . S
C1365 C1364 1.524 . S
C1365 C1366 1.397 . S
C1365 C1370 1.363 . S
C1366 H1343 0.950 . S
C1366 C1365 1.397 . S
C1366 C1367 1.334 . S
C1367 H1344 0.950 . S
C1367 C1366 1.334 . S
C1367 C1368 1.287 . S
C1368 C1367 1.287 . S
C1368 C1369 1.524 . S
C1368 H1387 0.913 . S
C1369 H1345 0.950 1_455 S
C1369 C1368 1.524 . S
C1369 C1370 1.415 . S
C1370 H1346 0.950 . S
C1370 C1365 1.363 . S
C1370 C1369 1.415 . S
C1371 H1347 0.951 . S
C1371 C1372 1.366 . S
C1371 C1373 1.388 . S
C1372 C1371 1.366 . S
C1372 C1376 1.385 . S
C1373 H1348 0.951 . S
C1373 C1371 1.388 . S
C1373 C1374 1.366 . S
C1374 C1373 1.366 . S
C1374 C1375 1.414 . S
C1374 C1377 1.499 . S
C1375 H1349 0.950 . S
C1375 C1374 1.414 . S
C1375 C1376 1.374 . S
C1376 H1350 0.950 . S
C1376 C1372 1.385 . S
C1376 C1375 1.374 . S
C1377 C1374 1.499 . S
C1377 C1378 1.373 . S
C1377 C1379 1.389 . S
C1378 H1351 0.950 . S
C1378 C1364 1.377 . S
C1378 C1377 1.373 . S
C1379 C1363 1.377 . S
C1379 C1377 1.389 . S
C1379 C1380 1.524 . S
C1380 C1379 1.524 . S
C1380 C1381 1.397 . S
C1380 C1385 1.363 . S
C1381 H1352 0.950 . S
C1381 C1380 1.397 . S
C1381 C1382 1.334 . S
C1382 H1353 0.950 . S
C1382 C1381 1.334 . S
C1382 C1383 1.287 . S
C1383 C1382 1.287 . S
C1383 C1384 1.524 . S
C1383 H1386 0.999 . S
C1384 H1354 0.950 . S
C1384 C1383 1.524 . S
C1384 C1385 1.415 . S
C1385 H1355 0.950 . S
C1385 C1380 1.363 . S
C1385 C1384 1.415 . S
H1386 C1383 0.999 . S
H1387 C1368 0.913 . S
C222 C111 1.511 . S
C207 N2 1.626 . S
C272 C129 1.006 . S
C257 N15 1.068 . S
C307 N27 1.294 . S
C322 C153 1.181 . S
C372 C183 1.583 1_655 S
C357 N40 1.777 . S
C422 C171 1.256 . S
C407 N54 1.387 . S
C457 N66 1.758 . S
C472 C124 1.665 1_655 S
C507 N79 1.557 . S
C522 C144 1.432 . S
C557 N93 1.084 . S
C572 C149 0.988 . S
C607 N92 1.749 . S
C622 C165 1.654 . S
C657 N67 1.090 . S
C672 C120 0.986 . S
C722 C187 1.016 . S
C707 N41 1.072 . S
C772 C132 1.577 . S
C757 N14 1.781 . S
C807 N28 1.619 . S
C822 C150 1.505 . S
C857 N1 1.306 . S
C872 C108 1.189 . S
C922 C128 1.256 . S
C907 N80 1.379 . S
C972 C174 1.436 . S
C957 N53 1.567 . S
C1022 C170 1.333 . S
C1007 N5 1.555 . S
C1072 C123 1.332 . S
C1057 N18 1.427 . S
C1107 N31 1.541 . S
C1122 C145 1.315 . S
C1157 N44 1.450 . S
C1172 C166 1.352 . S
C1222 C107 1.368 . S
C1207 N57 1.470 . S
C1257 N70 1.533 . S
C1272 C141 1.468 . S
C1322 C162 1.388 . S
C1307 N83 1.492 . S
C1372 C186 1.445 . S
C1357 N96 1.511 . S
