# Generated by pormake.
# Topology anh, (6,3)-cn, num edge types: 1
# Building blocks:
#     Node 0, Type 0, BuildingBlock: BETFAJ_clean_sbu_0, # of connection points: 6
#     Node 1, Type 0, BuildingBlock: BETFAJ_clean_sbu_0, # of connection points: 6
#     Node 2, Type 0, BuildingBlock: BETFAJ_clean_sbu_0, # of connection points: 6
#     Node 3, Type 1, BuildingBlock: KAKCAD_clean_linker_0, # of connection points: 3
#     Node 4, Type 1, BuildingBlock: KAKCAD_clean_linker_0, # of connection points: 3
#     Node 5, Type 1, BuildingBlock: KAKCAD_clean_linker_0, # of connection points: 3
#     Node 6, Type 1, BuildingBlock: KAKCAD_clean_linker_0, # of connection points: 3
#     Node 7, Type 1, BuildingBlock: KAKCAD_clean_linker_0, # of connection points: 3
#     Node 8, Type 1, BuildingBlock: KAKCAD_clean_linker_0, # of connection points: 3
#     Edge 9, Type (0, 1), BuildingBlock: UVAHIK_clean_linker_0, # of connection points: 2
#     Edge 10, Type (0, 1), BuildingBlock: UVAHIK_clean_linker_0, # of connection points: 2
#     Edge 11, Type (0, 1), BuildingBlock: UVAHIK_clean_linker_0, # of connection points: 2
#     Edge 12, Type (0, 1), BuildingBlock: UVAHIK_clean_linker_0, # of connection points: 2
#     Edge 13, Type (0, 1), BuildingBlock: UVAHIK_clean_linker_0, # of connection points: 2
#     Edge 14, Type (0, 1), BuildingBlock: UVAHIK_clean_linker_0, # of connection points: 2
#     Edge 15, Type (0, 1), BuildingBlock: UVAHIK_clean_linker_0, # of connection points: 2
#     Edge 16, Type (0, 1), BuildingBlock: UVAHIK_clean_linker_0, # of connection points: 2
#     Edge 17, Type (0, 1), BuildingBlock: UVAHIK_clean_linker_0, # of connection points: 2
#     Edge 18, Type (0, 1), BuildingBlock: UVAHIK_clean_linker_0, # of connection points: 2
#     Edge 19, Type (0, 1), BuildingBlock: UVAHIK_clean_linker_0, # of connection points: 2
#     Edge 20, Type (0, 1), BuildingBlock: UVAHIK_clean_linker_0, # of connection points: 2
#     Edge 21, Type (0, 1), BuildingBlock: UVAHIK_clean_linker_0, # of connection points: 2
#     Edge 22, Type (0, 1), BuildingBlock: UVAHIK_clean_linker_0, # of connection points: 2
#     Edge 23, Type (0, 1), BuildingBlock: UVAHIK_clean_linker_0, # of connection points: 2
#     Edge 24, Type (0, 1), BuildingBlock: UVAHIK_clean_linker_0, # of connection points: 2
#     Edge 25, Type (0, 1), BuildingBlock: UVAHIK_clean_linker_0, # of connection points: 2
#     Edge 26, Type (0, 1), BuildingBlock: UVAHIK_clean_linker_0, # of connection points: 2
# Relax obj value: 0.164
# Max RMSD: 0.199
# Mean RMSD: 0.150
data_MOF--net-anh--node1-BETFAJ_clean_sbu_0--node2-KAKCAD_clean_linker_0--edge1-UVAHIK_clean_linker_0
_symmetry_space_group_name_H-M    P1
_symmetry_Int_Tables_number       1
_symmetry_cell_setting            triclinic
loop_
_symmetry_equiv_pos_as_xyz
'x, y, z'
_cell_length_a     47.567581
_cell_length_b     52.74877
_cell_length_c     82.278647
_cell_angle_alpha  92.195706
_cell_angle_beta   89.860548
_cell_angle_gamma 127.22941
loop_
_atom_site_label
_atom_site_type_symbol
_atom_site_fract_x
_atom_site_fract_y
_atom_site_fract_z
_atom_type_partial_charge
Sm0 Sm 0.06144 0.50843 0.1476 0.0
Sm1 Sm 0.02491 0.53612 0.15715 0.0
C2 C 0.10418 0.49661 0.13592 0.0
C3 C 0.13792 0.50619 0.14291 0.0
C4 C 0.16773 0.52006 0.13322 0.0
C5 C 0.2004 0.53138 0.14019 0.0
C6 C 0.20358 0.52879 0.15692 0.0
C7 C 0.17373 0.51499 0.16658 0.0
C8 C 0.14128 0.50401 0.15968 0.0
C9 C 0.05299 0.50927 0.18064 0.0
C10 C 0.10856 0.58714 0.15459 0.0
C11 C 0.98342 0.54817 0.1707 0.0
C12 C 0.94665 0.52743 0.17584 0.0
C13 C 0.93627 0.53602 0.18962 0.0
C14 C 0.90164 0.51545 0.19498 0.0
C15 C 0.8771 0.48588 0.1867 0.0
C16 C 0.88779 0.47735 0.17296 0.0
C17 C 0.92222 0.49797 0.16756 0.0
C18 C 0.03591 0.5362 0.12428 0.0
C19 C 0.97856 0.45822 0.15082 0.0
O20 O 0.10423 0.51987 0.13092 0.0
O21 O 0.07604 0.47596 0.14402 0.0
O22 O 0.06171 0.53153 0.17155 0.0
O23 O 0.05081 0.48659 0.17257 0.0
O24 O 0.10681 0.56309 0.14772 0.0
O25 O 0.0805 0.58264 0.16093 0.0
O26 O 1.00535 0.54631 0.17908 0.0
O27 O 0.9883 0.54874 0.15503 0.0
O28 O 0.02506 0.51315 0.1332 0.0
O29 O 0.04057 0.56004 0.13249 0.0
O30 O 0.9821 0.48167 0.15947 0.0
O31 O 1.00481 0.46382 0.14202 0.0
H32 H 0.16578 0.52238 0.12032 0.0
H33 H 0.22305 0.54168 0.13247 0.0
H34 H 0.17558 0.51298 0.17953 0.0
H35 H 0.11891 0.49413 0.16754 0.0
H36 H 0.95497 0.55854 0.19625 0.0
H37 H 0.89405 0.52258 0.2056 0.0
H38 H 0.8693 0.45502 0.16614 0.0
H39 H 0.92974 0.49088 0.1569 0.0
Sm40 Sm 0.55835 0.00802 0.48284 0.0
Sm41 Sm 0.51471 0.03013 0.47647 0.0
C42 C 0.58579 0.98015 0.49337 0.0
C43 C 0.57615 0.9481 0.49537 0.0
C44 C 0.54428 0.92383 0.50239 0.0
C45 C 0.53671 0.89416 0.50481 0.0
C46 C 0.5607 0.88813 0.50011 0.0
C47 C 0.59219 0.91228 0.49277 0.0
C48 C 0.59985 0.94197 0.49047 0.0
C49 C 0.55468 0.01832 0.45074 0.0
C50 C 0.47216 0.95455 0.47611 0.0
C51 C 0.48824 0.05931 0.46673 0.0
C52 C 0.4953 0.09006 0.4709 0.0
C53 C 0.47355 0.09698 0.46444 0.0
C54 C 0.47934 0.12573 0.46884 0.0
C55 C 0.50705 0.14806 0.4798 0.0
C56 C 0.52902 0.14106 0.4861 0.0
C57 C 0.52314 0.11229 0.48171 0.0
C58 C 0.5202 0.02193 0.50885 0.0
C59 C 0.6018 0.08379 0.48138 0.0
O60 O 0.57091 0.98911 0.50289 0.0
O61 O 0.58885 0.9891 0.47847 0.0
O62 O 0.52877 0.00437 0.46009 0.0
O63 O 0.58337 0.02658 0.45808 0.0
O64 O 0.50076 0.96135 0.48356 0.0
O65 O 0.47241 0.97719 0.46965 0.0
O66 O 0.51322 0.06059 0.45911 0.0
O67 O 0.47463 0.03889 0.47824 0.0
O68 O 0.54521 0.03463 0.49904 0.0
O69 O 0.49163 0.01465 0.50191 0.0
O70 O 0.57188 0.07686 0.47558 0.0
O71 O 0.60312 0.06148 0.48711 0.0
H72 H 0.52538 0.92786 0.50615 0.0
H73 H 0.51206 0.8759 0.51033 0.0
H74 H 0.61138 0.90852 0.48918 0.0
H75 H 0.62459 0.96036 0.48505 0.0
H76 H 0.45193 0.08006 0.45607 0.0
H77 H 0.46221 0.13052 0.4636 0.0
H78 H 0.55028 0.15748 0.49473 0.0
H79 H 0.54006 0.10721 0.48692 0.0
Sm80 Sm 0.5727 0.55291 0.84846 0.0
Sm81 Sm 0.52476 0.48292 0.85057 0.0
C82 C 0.60542 0.61285 0.84047 0.0
C83 C 0.59822 0.63583 0.83728 0.0
C84 C 0.56876 0.62718 0.82788 0.0
C85 C 0.56365 0.64996 0.82443 0.0
C86 C 0.58779 0.68183 0.83036 0.0
C87 C 0.61678 0.69008 0.84009 0.0
C88 C 0.62194 0.66736 0.84345 0.0
C89 C 0.56303 0.53262 0.87952 0.0
C90 C 0.48465 0.51662 0.8513 0.0
C91 C 0.49352 0.42272 0.85752 0.0
C92 C 0.49958 0.39896 0.85351 0.0
C93 C 0.47828 0.36889 0.86017 0.0
C94 C 0.48307 0.34578 0.85597 0.0
C95 C 0.50928 0.35233 0.84501 0.0
C96 C 0.53086 0.38276 0.83852 0.0
C97 C 0.52604 0.40584 0.84274 0.0
C98 C 0.53396 0.50236 0.81932 0.0
C99 C 0.61366 0.5199 0.8495 0.0
O100 O 0.59324 0.58914 0.82979 0.0
O101 O 0.60276 0.60451 0.85548 0.0
O102 O 0.53891 0.52165 0.86885 0.0
O103 O 0.59363 0.55561 0.87417 0.0
O104 O 0.51597 0.54181 0.84645 0.0
O105 O 0.48196 0.49122 0.85573 0.0
O106 O 0.51719 0.44696 0.86713 0.0
O107 O 0.48369 0.43113 0.84533 0.0
O108 O 0.55843 0.51404 0.82995 0.0
O109 O 0.50389 0.47906 0.82488 0.0
O110 O 0.58114 0.49324 0.85157 0.0
O111 O 0.61776 0.54673 0.84703 0.0
H112 H 0.54995 0.60293 0.82302 0.0
H113 H 0.5412 0.64273 0.81679 0.0
H114 H 0.63553 0.71415 0.84516 0.0
H115 H 0.64474 0.67452 0.85081 0.0
H116 H 0.45778 0.3632 0.86854 0.0
H117 H 0.46632 0.32282 0.86139 0.0
H118 H 0.551 0.38857 0.82991 0.0
H119 H 0.54267 0.42893 0.83742 0.0
C120 C 0.55818 0.05084 0.26781 0.0
C121 C 0.54812 0.02379 0.27605 0.0
C122 C 0.55899 0.05066 0.25082 0.0
C123 C 0.5503 0.02358 0.24167 0.0
C124 C 0.54055 0.99661 0.25 0.0
C125 C 0.5392 0.99664 0.26698 0.0
C126 C 0.55093 0.02335 0.22351 0.0
C127 C 0.57647 0.05102 0.21544 0.0
C128 C 0.57644 0.05164 0.19834 0.0
C129 C 0.5507 0.02337 0.18918 0.0
C130 C 0.52545 0.99513 0.19711 0.0
C131 C 0.52565 0.99558 0.21419 0.0
C132 C 0.4979 0.96475 0.18804 0.0
C133 C 0.47349 0.96279 0.17744 0.0
C134 C 0.49307 0.93656 0.19171 0.0
C135 C 0.46372 0.90692 0.1855 0.0
C136 C 0.43818 0.90463 0.17559 0.0
C137 C 0.60365 0.08216 0.19048 0.0
C138 C 0.61309 0.11123 0.19743 0.0
C139 C 0.62215 0.08301 0.17688 0.0
C140 C 0.65031 0.11229 0.17084 0.0
C141 C 0.66058 0.14143 0.17823 0.0
C142 C 0.64117 0.14032 0.19149 0.0
C143 C 0.44378 0.93299 0.17135 0.0
H144 H 0.56486 0.07198 0.27452 0.0
H145 H 0.56592 0.07165 0.24488 0.0
H146 H 0.53432 0.97553 0.24345 0.0
H147 H 0.53179 0.97561 0.27306 0.0
H148 H 0.59696 0.07219 0.22253 0.0
H149 H 0.50527 0.97421 0.22021 0.0
H150 H 0.55024 0.0233 0.17602 0.0
H151 H 0.47641 0.98412 0.17453 0.0
H152 H 0.51144 0.93739 0.1999 0.0
H153 H 0.46019 0.88566 0.18915 0.0
H154 H 0.59914 0.11157 0.20776 0.0
H155 H 0.61567 0.06112 0.17125 0.0
H156 H 0.42478 0.93209 0.16361 0.0
H157 H 0.6483 0.162 0.19771 0.0
H158 H 0.6642 0.11205 0.16047 0.0
C159 C 0.53421 0.5336 0.6374 0.0
C160 C 0.55841 0.53137 0.64568 0.0
C161 C 0.5332 0.53316 0.62041 0.0
C162 C 0.55634 0.53042 0.61128 0.0
C163 C 0.58082 0.52853 0.61956 0.0
C164 C 0.5819 0.52909 0.63657 0.0
C165 C 0.55459 0.52918 0.5932 0.0
C166 C 0.55016 0.54943 0.585 0.0
C167 C 0.54772 0.54804 0.56793 0.0
C168 C 0.54985 0.52603 0.55897 0.0
C169 C 0.55408 0.50537 0.56698 0.0
C170 C 0.55656 0.50726 0.58408 0.0
C171 C 0.55466 0.48091 0.55769 0.0
C172 C 0.53006 0.46214 0.54493 0.0
C173 C 0.57858 0.47492 0.56218 0.0
C174 C 0.5772 0.45011 0.55447 0.0
C175 C 0.5518 0.43057 0.54209 0.0
C176 C 0.54303 0.56985 0.55969 0.0
C177 C 0.51776 0.57367 0.56518 0.0
C178 C 0.56494 0.58828 0.54697 0.0
C179 C 0.5626 0.61105 0.54035 0.0
C180 C 0.53806 0.61563 0.54622 0.0
C181 C 0.51516 0.59612 0.55848 0.0
C182 C 0.52862 0.43722 0.53722 0.0
H183 H 0.516 0.53573 0.64405 0.0
H184 H 0.51383 0.53438 0.61442 0.0
H185 H 0.59923 0.52673 0.61288 0.0
H186 H 0.60065 0.52705 0.64257 0.0
H187 H 0.54927 0.56683 0.59192 0.0
H188 H 0.55877 0.49082 0.59036 0.0
H189 H 0.54793 0.52484 0.5458 0.0
H190 H 0.51103 0.46592 0.5413 0.0
H191 H 0.59825 0.4893 0.57178 0.0
H192 H 0.59596 0.44612 0.55828 0.0
H193 H 0.50015 0.55941 0.5748 0.0
H194 H 0.58482 0.58597 0.54259 0.0
H195 H 0.5085 0.42248 0.52785 0.0
H196 H 0.49533 0.59834 0.56302 0.0
H197 H 0.5809 0.6258 0.53105 0.0
C198 C 0.08384 0.54654 0.94051 0.0
C199 C 0.05304 0.52465 0.94902 0.0
C200 C 0.08335 0.54546 0.92347 0.0
C201 C 0.05194 0.52273 0.91456 0.0
C202 C 1.02117 0.50087 0.92307 0.0
C203 C 1.02175 0.50172 0.94009 0.0
C204 C 0.05102 0.52184 0.89644 0.0
C205 C 0.07676 0.52259 0.88767 0.0
C206 C 0.07645 0.52097 0.87057 0.0
C207 C 0.04778 0.5184 0.86211 0.0
C208 C 1.0207 0.51762 0.87105 0.0
C209 C 0.02398 0.51978 0.88815 0.0
C210 C 0.98775 0.51399 0.8643 0.0
C211 C 0.98919 0.53479 0.85328 0.0
C212 C 0.95466 0.49302 0.87181 0.0
C213 C 0.92574 0.49399 0.86939 0.0
C214 C 0.92736 0.51545 0.85894 0.0
C215 C 0.1076 0.52261 0.86322 0.0
C216 C 0.14283 0.54916 0.86736 0.0
C217 C 0.10372 0.49553 0.85643 0.0
C218 C 0.13332 0.49501 0.85416 0.0
C219 C 0.16866 0.5214 0.85879 0.0
C220 C 0.17223 0.54865 0.86521 0.0
C221 C 0.9596 0.53523 0.85053 0.0
H222 H 0.10841 0.56435 0.94704 0.0
H223 H 0.10743 0.5627 0.91724 0.0
H224 H 0.99664 0.48292 0.91655 0.0
H225 H 0.99752 0.4847 0.94627 0.0
H226 H 0.09725 0.5239 0.89438 0.0
H227 H 1.00514 0.52024 0.89534 0.0
H228 H 0.04649 0.51692 0.84895 0.0
H229 H 1.01373 0.55187 0.84735 0.0
H230 H 0.95147 0.47637 0.88034 0.0
H231 H 0.90185 0.47779 0.87597 0.0
H232 H 0.1476 0.57025 0.87319 0.0
H233 H 0.07744 0.47398 0.85356 0.0
H234 H 0.96263 0.55222 0.84231 0.0
H235 H 0.19777 0.56968 0.86937 0.0
H236 H 0.12801 0.47331 0.84899 0.0
C237 C 1.00988 0.50543 0.36375 0.0
C238 C 0.03896 0.51083 0.35563 0.0
C239 C 1.0088 0.50504 0.38074 0.0
C240 C 0.03706 0.5106 0.38992 0.0
C241 C 0.06615 0.51603 0.3818 0.0
C242 C 0.06696 0.51589 0.36481 0.0
C243 C 0.03659 0.51149 0.40795 0.0
C244 C 1.00714 0.48684 0.41612 0.0
C245 C 1.00622 0.4876 0.43324 0.0
C246 C 0.03544 0.51409 0.44218 0.0
C247 C 0.06523 0.53904 0.43405 0.0
C248 C 0.06555 0.53726 0.41698 0.0
C249 C 0.09608 0.56787 0.44288 0.0
C250 C 0.09191 0.58747 0.45293 0.0
C251 C 0.13043 0.57824 0.43946 0.0
C252 C 0.15996 0.60808 0.44537 0.0
C253 C 0.15592 0.62854 0.45471 0.0
C254 C 0.97482 0.46008 0.44138 0.0
C255 C 0.94061 0.44584 0.43504 0.0
C256 C 0.97872 0.44601 0.4545 0.0
C257 C 0.94927 0.4176 0.4606 0.0
C258 C 0.91518 0.40269 0.45381 0.0
C259 C 0.91129 0.41759 0.44113 0.0
C260 C 0.12154 0.61761 0.4587 0.0
H261 H 0.98787 0.50128 0.35695 0.0
H262 H 0.98618 0.50099 0.38673 0.0
H263 H 0.0882 0.52025 0.3886 0.0
H264 H 0.08977 0.52028 0.35885 0.0
H265 H 0.98522 0.46652 0.40907 0.0
H266 H 0.08807 0.55662 0.41065 0.0
H267 H 0.03503 0.5153 0.45535 0.0
H268 H 0.06574 0.5802 0.45562 0.0
H269 H 0.1344 0.56365 0.43169 0.0
H270 H 0.18595 0.61575 0.44194 0.0
H271 H 0.93654 0.45619 0.42506 0.0
H272 H 1.00469 0.45625 0.45961 0.0
H273 H 0.11752 0.63265 0.46599 0.0
H274 H 0.88567 0.40684 0.43543 0.0
H275 H 0.95329 0.40712 0.47053 0.0
C276 C 0.53238 0.98896 0.69058 0.0
C277 C 0.5483 0.01763 0.6827 0.0
C278 C 0.53271 0.98885 0.70758 0.0
C279 C 0.54968 0.01753 0.71709 0.0
C280 C 0.56623 0.04628 0.70905 0.0
C281 C 0.56517 0.04626 0.69207 0.0
C282 C 0.54984 0.01748 0.73527 0.0
C283 C 0.55089 0.99508 0.74341 0.0
C284 C 0.55053 0.99456 0.76049 0.0
C285 C 0.55008 0.01748 0.76958 0.0
C286 C 0.54945 0.04036 0.76171 0.0
C287 C 0.54881 0.0398 0.7446 0.0
C288 C 0.54923 0.06494 0.77111 0.0
C289 C 0.52671 0.05676 0.78427 0.0
C290 C 0.57062 0.09673 0.76644 0.0
C291 C 0.56895 0.11962 0.77444 0.0
C292 C 0.54578 0.11136 0.78732 0.0
C293 C 0.55073 0.96994 0.76863 0.0
C294 C 0.52864 0.93802 0.76268 0.0
C295 C 0.57379 0.97818 0.7819 0.0
C296 C 0.5754 0.95515 0.78875 0.0
C297 C 0.5537 0.92331 0.7826 0.0
C298 C 0.53003 0.91499 0.7696 0.0
C299 C 0.52489 0.07969 0.79224 0.0
H300 H 0.51893 0.96654 0.68358 0.0
H301 H 0.51905 0.96614 0.71322 0.0
H302 H 0.58031 0.06896 0.71583 0.0
H303 H 0.57788 0.0687 0.68622 0.0
H304 H 0.55275 0.9783 0.73648 0.0
H305 H 0.54669 0.05649 0.73856 0.0
H306 H 0.5502 0.01748 0.78275 0.0
H307 H 0.50977 0.03245 0.78811 0.0
H308 H 0.58852 0.10389 0.75645 0.0
H309 H 0.58517 0.14366 0.77021 0.0
H310 H 0.51036 0.93085 0.75256 0.0
H311 H 0.59126 0.0026 0.7867 0.0
H312 H 0.50702 0.0726 0.80223 0.0
H313 H 0.51317 0.89079 0.76446 0.0
H314 H 0.5937 0.96227 0.79885 0.0
C315 C 0.50749 0.42724 0.05363 0.0
C316 C 0.51349 0.45462 0.04744 0.0
C317 C 0.50278 0.42185 0.07029 0.0
C318 C 0.50449 0.44394 0.08123 0.0
C319 C 0.51074 0.47138 0.07502 0.0
C320 C 0.51468 0.47641 0.05839 0.0
C321 C 0.50041 0.43892 0.09907 0.0
C322 C 0.51372 0.42474 0.10688 0.0
C323 C 0.51178 0.42186 0.12384 0.0
C324 C 0.49673 0.43367 0.13301 0.0
C325 C 0.48396 0.44841 0.12556 0.0
C326 C 0.48484 0.44997 0.10855 0.0
C327 C 0.47212 0.46417 0.13566 0.0
C328 C 0.45377 0.45089 0.15008 0.0
C329 C 0.48073 0.4936 0.13134 0.0
C330 C 0.47088 0.50914 0.14106 0.0
C331 C 0.45263 0.49595 0.1555 0.0
C332 C 0.52732 0.40838 0.13227 0.0
C333 C 0.52411 0.38178 0.12554 0.0
C334 C 0.54568 0.4223 0.14723 0.0
C335 C 0.56019 0.40986 0.15534 0.0
C336 C 0.55729 0.38353 0.14858 0.0
C337 C 0.5392 0.36959 0.13358 0.0
C338 C 0.44442 0.46671 0.15995 0.0
H339 H 0.50682 0.41005 0.04567 0.0
H340 H 0.49764 0.40027 0.07453 0.0
H341 H 0.51305 0.48939 0.083 0.0
H342 H 0.5185 0.49746 0.05416 0.0
H343 H 0.52704 0.41724 0.09989 0.0
H344 H 0.47352 0.46006 0.10271 0.0
H345 H 0.49589 0.43216 0.1461 0.0
H346 H 0.4464 0.42813 0.15373 0.0
H347 H 0.49545 0.5049 0.12051 0.0
H348 H 0.47702 0.53124 0.13701 0.0
H349 H 0.50989 0.37035 0.1141 0.0
H350 H 0.54963 0.44335 0.15257 0.0
H351 H 0.43066 0.45593 0.17105 0.0
H352 H 0.53686 0.34938 0.12809 0.0
H353 H 0.57489 0.42165 0.16665 0.0
C354 C 0.23837 0.51831 0.17401 0.0
C355 C 0.2375 0.539 0.1642 0.0
C356 C 0.27048 0.5263 0.1797 0.0
C357 C 0.36218 0.57324 0.16715 0.0
H358 H 0.36807 0.53172 0.20344 0.0
C359 C 0.45962 0.54494 0.16612 0.0
C360 C 0.43996 0.51152 0.16512 0.0
C361 C 0.44466 0.55916 0.17242 0.0
C362 C 0.36722 0.54408 0.19346 0.0
H363 H 0.26908 0.58524 0.15361 0.0
H364 H 0.32551 0.59968 0.16384 0.0
H365 H 0.32194 0.53887 0.2026 0.0
H366 H 0.39026 0.46714 0.17137 0.0
H367 H 0.36479 0.49195 0.18265 0.0
H368 H 0.4064 0.57714 0.15766 0.0
C369 C 0.30142 0.5769 0.16682 0.0
C370 C 0.34067 0.54794 0.19288 0.0
C371 C 0.2692 0.56866 0.16093 0.0
C372 C 0.4064 0.49291 0.17202 0.0
C373 C 0.39173 0.50716 0.17855 0.0
C374 C 0.38901 0.56985 0.16787 0.0
C375 C 0.30252 0.55537 0.17585 0.0
C376 C 0.33642 0.56058 0.17916 0.0
C377 C 0.41008 0.54025 0.17812 0.0
C378 C 0.39036 0.55344 0.1805 0.0
H379 H 0.21429 0.49518 0.17661 0.0
H380 H 0.27011 0.50873 0.18629 0.0
H381 H 0.35984 0.58303 0.15636 0.0
H382 H 0.48597 0.56008 0.16136 0.0
H383 H 0.45937 0.58476 0.17205 0.0
C384 C 0.6681 0.12476 0.48333 0.0
C385 C 0.63451 0.11722 0.48086 0.0
C386 C 0.69883 0.15598 0.48165 0.0
C387 C 0.72988 0.23181 0.46272 0.0
H388 H 0.81407 0.26799 0.48956 0.0
C389 C 0.85033 0.36412 0.4599 0.0
C390 C 0.88393 0.3711 0.45928 0.0
C391 C 0.82049 0.3337 0.46359 0.0
C392 C 0.79085 0.25815 0.48188 0.0
H393 H 0.60706 0.13707 0.47527 0.0
H394 H 0.66021 0.19128 0.47278 0.0
H395 H 0.76107 0.21418 0.49413 0.0
H396 H 0.91222 0.35123 0.4625 0.0
H397 H 0.86023 0.29832 0.46915 0.0
H398 H 0.75953 0.27577 0.45055 0.0
C399 C 0.66306 0.17302 0.47556 0.0
C400 C 0.76041 0.22721 0.48447 0.0
C401 C 0.63243 0.14185 0.47712 0.0
C402 C 0.88694 0.34698 0.46304 0.0
C403 C 0.85706 0.31655 0.46682 0.0
C404 C 0.76016 0.26273 0.46022 0.0
C405 C 0.69677 0.18052 0.47755 0.0
C406 C 0.72942 0.21358 0.47494 0.0
C407 C 0.82333 0.30935 0.46687 0.0
C408 C 0.79107 0.27638 0.46976 0.0
H409 H 0.67072 0.10638 0.48615 0.0
H410 H 0.7242 0.16062 0.48313 0.0
H411 H 0.70695 0.22203 0.45485 0.0
H412 H 0.84696 0.38217 0.45743 0.0
H413 H 0.79507 0.32924 0.46383 0.0
C414 C 0.54953 0.69924 0.8253 0.0
C415 C 0.58328 0.70653 0.82623 0.0
C416 C 0.54552 0.72251 0.82135 0.0
C417 C 0.59415 0.80982 0.82075 0.0
H418 H 0.52089 0.78847 0.78968 0.0
C419 C 0.58957 0.90618 0.79258 0.0
C420 C 0.55639 0.89897 0.78927 0.0
C421 C 0.59217 0.88276 0.79789 0.0
C422 C 0.54116 0.79479 0.79857 0.0
H423 H 0.6392 0.74413 0.82336 0.0
H424 H 0.63217 0.78462 0.81673 0.0
H425 H 0.52637 0.74747 0.79741 0.0
H426 H 0.49989 0.86171 0.78954 0.0
H427 H 0.50435 0.821 0.79904 0.0
H428 H 0.60891 0.85707 0.822 0.0
C429 C 0.60884 0.761 0.81926 0.0
C430 C 0.54433 0.77123 0.80298 0.0
C431 C 0.61285 0.73773 0.8231 0.0
C432 C 0.52587 0.86793 0.79175 0.0
C433 C 0.52845 0.84456 0.79715 0.0
C434 C 0.59087 0.83334 0.81642 0.0
C435 C 0.57514 0.75369 0.81832 0.0
C436 C 0.57102 0.7785 0.81404 0.0
C437 C 0.56165 0.85153 0.80013 0.0
C438 C 0.56447 0.82622 0.80518 0.0
H439 H 0.52619 0.67565 0.82785 0.0
H440 H 0.51921 0.71619 0.82091 0.0
H441 H 0.61467 0.81611 0.82949 0.0
H442 H 0.61361 0.92972 0.79059 0.0
H443 H 0.61821 0.88896 0.79981 0.0
C444 C 0.82143 0.47767 0.19435 0.0
C445 C 0.8397 0.46486 0.19144 0.0
C446 C 0.78484 0.45761 0.19578 0.0
C447 C 0.70674 0.41156 0.20029 0.0
H448 H 0.66412 0.3478 0.16469 0.0
C449 C 0.57491 0.36997 0.17347 0.0
C450 C 0.5764 0.3732 0.15656 0.0
C451 C 0.59913 0.36781 0.18155 0.0
C452 C 0.67547 0.3653 0.17477 0.0
H453 H 0.83468 0.42118 0.18936 0.0
H454 H 0.7706 0.38598 0.19209 0.0
H455 H 0.72445 0.37218 0.17352 0.0
H456 H 0.6022 0.37404 0.13466 0.0
H457 H 0.64494 0.37115 0.14864 0.0
H458 H 0.65916 0.40714 0.20044 0.0
C459 C 0.78443 0.41152 0.19286 0.0
C460 C 0.71 0.37904 0.18001 0.0
C461 C 0.82107 0.43164 0.19131 0.0
C462 C 0.60037 0.37139 0.14769 0.0
C463 C 0.62483 0.3696 0.15577 0.0
C464 C 0.6724 0.39815 0.19491 0.0
C465 C 0.76573 0.42427 0.19445 0.0
C466 C 0.72669 0.40361 0.19223 0.0
C467 C 0.62557 0.3693 0.17288 0.0
C468 C 0.65709 0.37615 0.18148 0.0
H469 H 0.83505 0.50316 0.19437 0.0
H470 H 0.77141 0.46838 0.19675 0.0
H471 H 0.71851 0.42982 0.21003 0.0
H472 H 0.55624 0.37085 0.18053 0.0
H473 H 0.59843 0.36686 0.19468 0.0
C474 C 0.40771 0.9136 0.46862 0.0
C475 C 0.43956 0.92095 0.47478 0.0
C476 C 0.37696 0.88201 0.46743 0.0
C477 C 0.34597 0.79859 0.46484 0.0
H478 H 0.25608 0.77863 0.47716 0.0
C479 C 0.2192 0.6681 0.46466 0.0
C480 C 0.1874 0.66178 0.45926 0.0
C481 C 0.24957 0.69949 0.46762 0.0
C482 C 0.28083 0.78373 0.47346 0.0
H483 H 0.46384 0.90054 0.48452 0.0
H484 H 0.41028 0.8455 0.48235 0.0
H485 H 0.30957 0.83352 0.47991 0.0
H486 H 0.16273 0.68374 0.45283 0.0
H487 H 0.21559 0.73836 0.45773 0.0
H488 H 0.31735 0.74907 0.45806 0.0
C489 C 0.40915 0.86421 0.47838 0.0
C490 C 0.31158 0.81529 0.47509 0.0
C491 C 0.43984 0.89583 0.4797 0.0
C492 C 0.1866 0.68769 0.45721 0.0
C493 C 0.21704 0.7191 0.46004 0.0
C494 C 0.3152 0.76708 0.4631 0.0
C495 C 0.37727 0.85687 0.47226 0.0
C496 C 0.34456 0.82316 0.47077 0.0
C497 C 0.24913 0.72553 0.46512 0.0
C498 C 0.28211 0.75914 0.46736 0.0
H499 H 0.40644 0.93227 0.46472 0.0
H500 H 0.35302 0.87723 0.46249 0.0
H501 H 0.37081 0.80383 0.46118 0.0
H502 H 0.22066 0.64871 0.46655 0.0
H503 H 0.27344 0.7033 0.47185 0.0
C504 C 0.48402 0.29538 0.83739 0.0
C505 C 0.51368 0.32738 0.84014 0.0
C506 C 0.48805 0.27204 0.83257 0.0
C507 C 0.55113 0.26189 0.81322 0.0
H508 H 0.49175 0.17798 0.83092 0.0
C509 C 0.57292 0.1671 0.79832 0.0
C510 C 0.54271 0.13555 0.79513 0.0
C511 C 0.56989 0.19032 0.80467 0.0
C512 C 0.50832 0.20118 0.82573 0.0
H513 H 0.57094 0.35962 0.84024 0.0
H514 H 0.57794 0.31894 0.83177 0.0
H515 H 0.48553 0.21878 0.84024 0.0
H516 H 0.4856 0.10371 0.79626 0.0
H517 H 0.48028 0.14417 0.80729 0.0
H518 H 0.57369 0.24427 0.7986 0.0
C519 C 0.55151 0.31199 0.83314 0.0
C520 C 0.50475 0.2246 0.83108 0.0
C521 C 0.54748 0.33534 0.838 0.0
C522 C 0.50945 0.12766 0.79878 0.0
C523 C 0.50641 0.15091 0.8051 0.0
C524 C 0.55465 0.23847 0.80785 0.0
C525 C 0.52184 0.28004 0.83033 0.0
C526 C 0.52605 0.25524 0.82487 0.0
C527 C 0.53657 0.18264 0.80798 0.0
C528 C 0.53324 0.20776 0.814 0.0
H529 H 0.45756 0.28842 0.83864 0.0
H530 H 0.4646 0.24778 0.83026 0.0
H531 H 0.56758 0.28504 0.80798 0.0
H532 H 0.599 0.1739 0.7959 0.0
H533 H 0.59375 0.21434 0.80703 0.0
C534 C 0.54122 0.84357 0.51851 0.0
C535 C 0.55369 0.85724 0.50335 0.0
C536 C 0.53677 0.8156 0.52197 0.0
C537 C 0.56633 0.76728 0.50884 0.0
H538 H 0.49085 0.70484 0.53622 0.0
C539 C 0.54298 0.64923 0.52367 0.0
C540 C 0.5372 0.64145 0.54013 0.0
C541 C 0.54295 0.67403 0.51819 0.0
C542 C 0.51217 0.72215 0.52862 0.0
H543 H 0.56998 0.85161 0.47972 0.0
H544 H 0.56164 0.8025 0.48562 0.0
H545 H 0.49376 0.75043 0.52828 0.0
H546 H 0.52747 0.6543 0.56373 0.0
H547 H 0.5268 0.69693 0.55411 0.0
H548 H 0.58464 0.73884 0.50921 0.0
C549 C 0.55611 0.81378 0.49501 0.0
C550 C 0.51391 0.74835 0.5241 0.0
C551 C 0.56079 0.84188 0.49159 0.0
C552 C 0.53121 0.65902 0.55091 0.0
C553 C 0.53091 0.68358 0.54541 0.0
C554 C 0.56442 0.74094 0.51328 0.0
C555 C 0.54443 0.80046 0.51031 0.0
C556 C 0.54129 0.7715 0.51432 0.0
C557 C 0.53689 0.69146 0.52901 0.0
C558 C 0.53759 0.7183 0.52339 0.0
H559 H 0.53598 0.85505 0.52791 0.0
H560 H 0.52829 0.8064 0.53398 0.0
H561 H 0.5881 0.78481 0.50151 0.0
H562 H 0.54722 0.63599 0.51497 0.0
H563 H 0.54733 0.67937 0.50544 0.0
C564 C 0.68086 0.54767 0.85355 0.0
C565 C 0.64613 0.51964 0.85005 0.0
C566 C 0.7107 0.5474 0.85445 0.0
C567 C 0.74537 0.50111 0.84095 0.0
H568 H 0.81669 0.55054 0.87513 0.0
C569 C 0.88331 0.51945 0.84235 0.0
C570 C 0.89594 0.51724 0.85743 0.0
C571 C 0.85331 0.51955 0.84119 0.0
C572 C 0.79726 0.53649 0.86542 0.0
H573 H 0.6174 0.46907 0.8445 0.0
H574 H 0.66894 0.46884 0.84535 0.0
H575 H 0.76554 0.55111 0.87357 0.0
H576 H 0.88552 0.51433 0.8832 0.0
H577 H 0.83513 0.51583 0.88127 0.0
H578 H 0.77765 0.4872 0.83255 0.0
C579 C 0.67316 0.49126 0.84769 0.0
C580 C 0.76756 0.53696 0.86446 0.0
C581 C 0.64315 0.49137 0.84724 0.0
C582 C 0.87725 0.51588 0.87127 0.0
C583 C 0.84799 0.5169 0.87016 0.0
C584 C 0.77562 0.50137 0.84164 0.0
C585 C 0.70786 0.51924 0.85144 0.0
C586 C 0.74051 0.51908 0.85228 0.0
C587 C 0.83482 0.51845 0.85508 0.0
C588 C 0.80237 0.51885 0.85398 0.0
H589 H 0.68506 0.5701 0.85588 0.0
H590 H 0.73639 0.56969 0.85729 0.0
H591 H 0.72588 0.48703 0.83127 0.0
H592 H 0.8962 0.52042 0.83128 0.0
H593 H 0.84485 0.52094 0.82927 0.0
C594 C 0.14432 0.64623 0.16064 0.0
C595 C 0.14283 0.61974 0.15537 0.0
C596 C 0.17649 0.67692 0.16151 0.0
C597 C 0.27291 0.71991 0.16512 0.0
H598 H 0.27767 0.7916 0.15087 0.0
C599 C 0.40543 0.84714 0.16584 0.0
C600 C 0.40485 0.87267 0.17071 0.0
C601 C 0.37394 0.81649 0.16266 0.0
C602 C 0.27682 0.77197 0.15509 0.0
H603 H 0.17434 0.60497 0.1469 0.0
H604 H 0.2305 0.65852 0.14851 0.0
H605 H 0.22215 0.73797 0.14808 0.0
H606 H 0.37044 0.88584 0.17594 0.0
H607 H 0.31566 0.83255 0.17063 0.0
H608 H 0.32727 0.75383 0.17247 0.0
C609 C 0.2067 0.65548 0.15201 0.0
C610 C 0.24491 0.74114 0.15345 0.0
C611 C 0.17443 0.62478 0.151 0.0
C612 C 0.37194 0.86688 0.17197 0.0
C613 C 0.34043 0.8362 0.16891 0.0
C614 C 0.30477 0.75077 0.16687 0.0
C615 C 0.20814 0.68197 0.15726 0.0
C616 C 0.24247 0.7147 0.15852 0.0
C617 C 0.34091 0.81043 0.16438 0.0
C618 C 0.30719 0.77732 0.16196 0.0
H619 H 0.12057 0.64333 0.1641 0.0
H620 H 0.17664 0.69667 0.16579 0.0
H621 H 0.27191 0.70019 0.16934 0.0
H622 H 0.43031 0.85081 0.16455 0.0
H623 H 0.37554 0.79752 0.15888 0.0
C624 C 0.54684 0.20706 0.48682 0.0
C625 C 0.51257 0.17822 0.48491 0.0
C626 C 0.55201 0.23518 0.49207 0.0
C627 C 0.50639 0.27236 0.4963 0.0
H628 H 0.58125 0.32857 0.52819 0.0
C629 C 0.54156 0.39458 0.518 0.0
C630 C 0.54872 0.40267 0.53475 0.0
C631 C 0.53812 0.368 0.51128 0.0
C632 C 0.56012 0.31307 0.51934 0.0
H633 H 0.45687 0.15644 0.48714 0.0
H634 H 0.46588 0.20542 0.49629 0.0
H635 H 0.57293 0.28055 0.51773 0.0
H636 H 0.55715 0.38864 0.55759 0.0
H637 H 0.55125 0.34253 0.5459 0.0
H638 H 0.49303 0.3045 0.49824 0.0
C639 C 0.48877 0.20641 0.49348 0.0
C640 C 0.5556 0.2857 0.51319 0.0
C641 C 0.4836 0.1783 0.48823 0.0
C642 C 0.55235 0.38353 0.54459 0.0
C643 C 0.54895 0.35703 0.53788 0.0
C644 C 0.51095 0.29978 0.50243 0.0
C645 C 0.52305 0.23518 0.49555 0.0
C646 C 0.52854 0.26488 0.50167 0.0
C647 C 0.54176 0.34889 0.52115 0.0
C648 C 0.53771 0.32035 0.51413 0.0
H649 H 0.56973 0.20798 0.48413 0.0
H650 H 0.57875 0.257 0.49329 0.0
H651 H 0.48553 0.25704 0.4873 0.0
H652 H 0.53901 0.40899 0.51004 0.0
H653 H 0.53301 0.36264 0.49831 0.0
C654 C 0.45292 0.54208 0.84569 0.0
C655 C 0.45226 0.51705 0.85193 0.0
C656 C 0.42303 0.54236 0.84618 0.0
C657 C 0.3228 0.49056 0.85674 0.0
H658 H 0.335 0.56864 0.84972 0.0
C659 C 0.19748 0.49177 0.85574 0.0
C660 C 0.20108 0.52056 0.85744 0.0
C661 C 0.22717 0.49119 0.85489 0.0
C662 C 0.3303 0.54632 0.85193 0.0
H663 H 0.41748 0.47255 0.86387 0.0
H664 H 0.36676 0.47325 0.86517 0.0
H665 H 0.3855 0.56825 0.84922 0.0
H666 H 0.24227 0.57181 0.85916 0.0
H667 H 0.29224 0.57077 0.85839 0.0
H668 H 0.26777 0.46889 0.86002 0.0
C669 C 0.39008 0.49278 0.85942 0.0
C670 C 0.36014 0.54599 0.85139 0.0
C671 C 0.41988 0.4924 0.85878 0.0
C672 C 0.23668 0.54867 0.85815 0.0
C673 C 0.26631 0.54808 0.85743 0.0
C674 C 0.29298 0.49095 0.85741 0.0
C675 C 0.39042 0.51774 0.85311 0.0
C676 C 0.35759 0.51809 0.85375 0.0
C677 C 0.26279 0.51934 0.85578 0.0
C678 C 0.29552 0.51884 0.85502 0.0
H679 H 0.47675 0.56169 0.8402 0.0
H680 H 0.4258 0.56213 0.84083 0.0
H681 H 0.31798 0.46804 0.85848 0.0
H682 H 0.17146 0.46912 0.85525 0.0
H683 H 0.22167 0.46812 0.85341 0.0
C684 C 0.94291 0.39865 0.14576 0.0
C685 C 0.94518 0.42522 0.15169 0.0
C686 C 0.91201 0.36756 0.14759 0.0
C687 C 0.82914 0.32253 0.17163 0.0
H688 H 0.7996 0.25381 0.13997 0.0
C689 C 0.69259 0.19994 0.17358 0.0
C690 C 0.69208 0.17293 0.17273 0.0
C691 C 0.72312 0.23006 0.17006 0.0
C692 C 0.80765 0.27275 0.14896 0.0
H693 H 0.91618 0.43966 0.16386 0.0
H694 H 0.86221 0.38618 0.1663 0.0
H695 H 0.85297 0.30751 0.13553 0.0
H696 H 0.72364 0.15684 0.16684 0.0
H697 H 0.77655 0.20934 0.16021 0.0
H698 H 0.78331 0.28785 0.18481 0.0
C699 C 0.88452 0.38896 0.16073 0.0
C700 C 0.83839 0.3036 0.14647 0.0
C701 C 0.91551 0.4199 0.15914 0.0
C702 C 0.72269 0.17684 0.1675 0.0
C703 C 0.75316 0.20701 0.16376 0.0
C704 C 0.79823 0.29189 0.17397 0.0
C705 C 0.88236 0.36219 0.15522 0.0
C706 C 0.84962 0.32905 0.15777 0.0
C707 C 0.75395 0.23408 0.16532 0.0
C708 C 0.78703 0.26661 0.16266 0.0
H709 H 0.96532 0.40179 0.14007 0.0
H710 H 0.9118 0.34776 0.14336 0.0
H711 H 0.83714 0.34103 0.18089 0.0
H712 H 0.66941 0.19794 0.17712 0.0
H713 H 0.72264 0.25033 0.17109 0.0
C714 C 0.02856 0.50654 0.09813 0.0
C715 C 0.03945 0.53501 0.10644 0.0
C716 C 0.03112 0.50528 0.0812 0.0
C717 C 0.07744 0.55549 0.04627 0.0
H718 H 0.99727 0.48481 0.02093 0.0
C719 C 0.06989 0.55506 0.97602 0.0
C720 C 0.05331 0.52586 0.96713 0.0
C721 C 0.0691 0.55607 0.99303 0.0
C722 C 1.02018 0.5045 0.02779 0.0
H723 H 0.06215 0.58461 0.10363 0.0
H724 H 0.06689 0.58253 0.07409 0.0
H725 H 0.99464 0.48662 0.05049 0.0
H726 H 0.02382 0.4749 0.9692 0.0
H727 H 0.02308 0.47662 -0.00116 0.0
H728 H 0.10323 0.57325 0.02365 0.0
C729 C 0.05637 0.56116 0.08064 0.0
C730 C 1.01858 0.50554 0.04476 0.0
C731 C 0.05349 0.56233 0.09754 0.0
C732 C 0.03641 0.49774 0.97568 0.0
C733 C 0.03589 0.49875 0.99269 0.0
C734 C 0.07918 0.55432 0.02929 0.0
C735 C 0.04499 0.53257 0.07225 0.0
C736 C 0.04711 0.53113 0.05421 0.0
C737 C 0.05199 0.52791 0.00163 0.0
C738 C 0.0505 0.52888 0.01978 0.0
H739 H 1.01775 0.48511 0.10469 0.0
H740 H 0.02248 0.48299 0.07512 0.0
H741 H 0.10006 0.57534 0.05321 0.0
H742 H 0.08276 0.57711 0.96978 0.0
H743 H 0.08128 0.57892 -0.00059 0.0
C744 C 0.58297 0.04172 0.42448 0.0
C745 C 0.55215 0.02078 0.43309 0.0
C746 C 0.58142 0.04307 0.40763 0.0
C747 C 0.51922 0.01803 0.37228 0.0
H748 H 0.59745 0.03224 0.34817 0.0
C749 C 0.51773 0.99887 0.30205 0.0
C750 C 0.54733 0.02401 0.29407 0.0
C751 C 0.51723 0.99899 0.31906 0.0
C752 C 0.57554 0.02846 0.35476 0.0
H753 H 0.4954 0.98518 0.43097 0.0
H754 H 0.49266 0.98646 0.40138 0.0
H755 H 0.59821 0.03105 0.37767 0.0
H756 H 0.59961 0.06883 0.29754 0.0
H757 H 0.59903 0.06872 0.32729 0.0
H758 H 0.49617 0.01432 0.34907 0.0
C759 C 0.51804 0.0025 0.40764 0.0
C760 C 0.57601 0.02797 0.37171 0.0
C761 C 0.51956 0.0016 0.42459 0.0
C762 C 0.5764 0.04926 0.3034 0.0
C763 C 0.57614 0.0491 0.32038 0.0
C764 C 0.51853 0.01802 0.35527 0.0
C765 C 0.54905 0.02301 0.39889 0.0
C766 C 0.54802 0.02303 0.38075 0.0
C767 C 0.54658 0.02396 0.32837 0.0
C768 C 0.54683 0.02348 0.34637 0.0
H769 H 0.6084 0.05708 0.43079 0.0
H770 H 0.60574 0.05984 0.40146 0.0
H771 H 0.49741 0.01459 0.37878 0.0
H772 H 0.4949 0.97923 0.29513 0.0
H773 H 0.4942 0.97925 0.32494 0.0
C774 C 0.50992 0.49373 0.79118 0.0
C775 C 0.53935 0.50913 0.80188 0.0
C776 C 0.51429 0.498 0.7745 0.0
C777 C 0.57712 0.54993 0.74327 0.0
H778 H 0.51579 0.47405 0.71523 0.0
C779 C 0.59017 0.54749 0.67292 0.0
C780 C 0.55835 0.53048 0.66372 0.0
C781 C 0.58983 0.54612 0.68989 0.0
C782 C 0.53291 0.49552 0.72287 0.0
H783 H 0.59648 0.54198 0.80362 0.0
H784 H 0.60427 0.54931 0.77425 0.0
H785 H 0.51196 0.46993 0.74461 0.0
H786 H 0.50127 0.49855 0.66515 0.0
H787 H 0.50066 0.49649 0.69465 0.0
H788 H 0.59799 0.57546 0.72137 0.0
C789 C 0.57776 0.53401 0.77883 0.0
C790 C 0.53071 0.49318 0.73973 0.0
C791 C 0.57334 0.52975 0.79562 0.0
C792 C 0.52624 0.5122 0.67187 0.0
C793 C 0.5259 0.51072 0.68878 0.0
C794 C 0.57937 0.55227 0.72633 0.0
C795 C 0.54824 0.51772 0.76806 0.0
C796 C 0.55237 0.52039 0.75014 0.0
C797 C 0.55766 0.52752 0.69799 0.0
C798 C 0.5569 0.52513 0.71596 0.0
H799 H 0.48337 0.47798 0.79568 0.0
H800 H 0.49096 0.48569 0.76662 0.0
H801 H 0.59404 0.57136 0.75095 0.0
H802 H 0.61535 0.56202 0.66702 0.0
H803 H 0.61473 0.55919 0.69665 0.0
C804 C 0.49745 0.01451 0.53695 0.0
C805 C 0.52418 0.02073 0.52655 0.0
C806 C 0.50094 0.01362 0.55372 0.0
C807 C 0.56759 0.03646 0.58662 0.0
H808 H 0.48331 0.98162 0.61161 0.0
C809 C 0.55973 0.00452 0.65505 0.0
C810 C 0.54667 0.01762 0.66475 0.0
C811 C 0.55818 0.00464 0.63806 0.0
C812 C 0.50699 0.99698 0.60473 0.0
H813 H 0.57549 0.03077 0.52547 0.0
H814 H 0.5809 0.02747 0.55467 0.0
H815 H 0.47816 0.98097 0.5821 0.0
H816 H 0.52139 0.04062 0.66447 0.0
H817 H 0.51752 0.03975 0.63467 0.0
H818 H 0.59624 0.05135 0.6095 0.0
C819 C 0.55763 0.02426 0.55001 0.0
C820 C 0.50414 0.99692 0.58783 0.0
C821 C 0.55443 0.02583 0.53323 0.0
C822 C 0.53177 0.03055 0.65722 0.0
C823 C 0.52948 0.02999 0.64025 0.0
C824 C 0.57044 0.03596 0.60352 0.0
C825 C 0.53094 0.01823 0.56054 0.0
C826 C 0.53433 0.01704 0.57851 0.0
C827 C 0.5428 0.01716 0.63058 0.0
C828 C 0.54012 0.01652 0.61268 0.0
H829 H 0.47395 0.01077 0.53215 0.0
H830 H 0.48019 0.00977 0.56133 0.0
H831 H 0.59142 0.05268 0.58003 0.0
H832 H 0.57142 0.99451 0.66062 0.0
H833 H 0.56851 0.99458 0.63076 0.0
C834 C 0.58494 0.52926 0.90626 0.0
C835 C 0.55681 0.52203 0.89632 0.0
C836 C 0.57906 0.51942 0.92226 0.0
C837 C 0.52486 0.50476 0.95632 0.0
H838 H 0.55137 0.45363 0.97266 0.0
C839 C 0.54121 0.49204 0.02443 0.0
C840 C 0.51858 0.46065 0.02972 0.0
C841 C 0.54482 0.49795 0.00789 0.0
C842 C 0.54382 0.46784 0.96819 0.0
H843 H 0.50055 0.49887 0.89512 0.0
H844 H 0.49053 0.48268 0.92336 0.0
H845 H 0.55983 0.46697 0.94387 0.0
H846 H 0.48247 0.41084 0.02141 0.0
H847 H 0.49042 0.42138 0.99244 0.0
H848 H 0.51007 0.50664 0.98073 0.0
C849 C 0.51695 0.49555 0.91867 0.0
C850 C 0.54875 0.47553 0.95183 0.0
C851 C 0.52268 0.50475 0.90257 0.0
C852 C 0.50053 0.43529 0.0179 0.0
C853 C 0.50481 0.44124 0.00131 0.0
C854 C 0.52071 0.4977 0.97273 0.0
C855 C 0.54509 0.50281 0.92862 0.0
C856 C 0.53927 0.49402 0.94579 0.0
C857 C 0.52663 0.47263 0.99622 0.0
C858 C 0.53015 0.4792 0.97877 0.0
H859 H 0.61145 0.54241 0.90167 0.0
H860 H 0.60115 0.52538 0.92978 0.0
H861 H 0.51756 0.51919 0.95191 0.0
H862 H 0.55638 0.51221 0.03306 0.0
H863 H 0.56212 0.52235 0.00417 0.0
C864 C 0.05327 0.53564 0.20676 0.0
C865 C 0.05215 0.51116 0.19857 0.0
C866 C 0.05213 0.53688 0.22377 0.0
C867 C 0.07278 0.51293 0.26015 0.0
H868 H 1.00374 0.51829 0.28156 0.0
C869 C 0.04888 0.49386 0.32874 0.0
C870 C 0.0403 0.51146 0.33763 0.0
C871 C 0.05047 0.49464 0.31178 0.0
C872 C 0.02363 0.51735 0.27584 0.0
H873 H 0.04927 0.46901 0.20169 0.0
H874 H 0.04816 0.47167 0.23134 0.0
H875 H 1.00726 0.51943 0.25196 0.0
H876 H 0.02709 0.544 0.33585 0.0
H877 H 0.03103 0.54635 0.30631 0.0
H878 H 0.08992 0.51163 0.28386 0.0
C879 C 0.04969 0.48974 0.22463 0.0
C880 C 0.0255 0.51789 0.25887 0.0
C881 C 0.05019 0.48817 0.20767 0.0
C882 C 0.0334 0.52993 0.32925 0.0
C883 C 0.03553 0.53113 0.3123 0.0
C884 C 0.07132 0.51289 0.27712 0.0
C885 C 0.05057 0.51404 0.23285 0.0
C886 C 0.04981 0.5153 0.25087 0.0
C887 C 0.0441 0.51349 0.30331 0.0
C888 C 0.04643 0.5147 0.28522 0.0
H889 H 0.05496 0.55375 0.20003 0.0
H890 H 0.05303 0.55596 0.22984 0.0
H891 H 0.09208 0.5113 0.25428 0.0
H892 H 0.0539 0.47912 0.33489 0.0
H893 H 0.05633 0.48013 0.30533 0.0
loop_
_geom_bond_atom_site_label_1
_geom_bond_atom_site_label_2
_geom_bond_distance
_geom_bond_site_symmetry_2
_ccdc_geom_bond_type
Sm0 C2 2.846 . S
Sm0 O20 2.543 . S
Sm0 O21 2.450 . S
Sm0 O22 2.681 . S
Sm0 O23 2.464 . S
Sm0 O24 2.396 . S
Sm0 O28 2.386 . S
Sm0 O31 2.408 1_455 S
Sm1 C11 2.846 . S
Sm1 O22 2.386 1_655 S
Sm1 O25 2.408 1_655 S
Sm1 O26 2.543 . S
Sm1 O27 2.450 . S
Sm1 O28 2.681 1_655 S
Sm1 O29 2.464 1_655 S
Sm1 O30 2.396 . S
C2 Sm0 2.846 . S
C2 C3 1.506 . S
C2 O20 1.261 . S
C2 O21 1.242 . S
C3 C2 1.506 . S
C3 C4 1.358 . S
C3 C8 1.382 . S
C4 C3 1.358 . S
C4 C5 1.385 . S
C4 H32 0.930 . S
C5 C4 1.385 . S
C5 C6 1.395 . S
C5 H33 0.929 . S
C6 C5 1.395 . S
C6 C7 1.335 . S
C7 C6 1.335 . S
C7 C8 1.398 . S
C7 H34 0.930 . S
C8 C3 1.382 . S
C8 C7 1.398 . S
C8 H35 0.929 . S
C9 O22 1.271 . S
C9 O23 1.251 . S
C10 O24 1.252 . S
C10 O25 1.272 . S
C11 Sm1 2.846 . S
C11 C12 1.506 . S
C11 O26 1.261 . S
C11 O27 1.242 . S
C12 C11 1.506 . S
C12 C13 1.358 . S
C12 C17 1.382 . S
C13 C12 1.358 . S
C13 C14 1.385 . S
C13 H36 0.930 . S
C14 C13 1.385 . S
C14 C15 1.395 . S
C14 H37 0.929 . S
C15 C14 1.395 . S
C15 C16 1.335 . S
C16 C15 1.335 . S
C16 C17 1.398 . S
C16 H38 0.930 . S
C17 C12 1.382 . S
C17 C16 1.398 . S
C17 H39 0.929 . S
C18 O28 1.271 . S
C18 O29 1.251 . S
C19 O30 1.252 . S
C19 O31 1.272 . S
O20 Sm0 2.543 . S
O20 C2 1.261 . S
O21 Sm0 2.450 . S
O21 C2 1.242 . S
O22 Sm0 2.681 . S
O22 Sm1 2.386 1_455 S
O22 C9 1.271 . S
O23 Sm0 2.464 . S
O23 C9 1.251 . S
O24 Sm0 2.396 . S
O24 C10 1.252 . S
O25 Sm1 2.408 1_455 S
O25 C10 1.272 . S
O26 Sm1 2.543 . S
O26 C11 1.261 . S
O27 Sm1 2.450 . S
O27 C11 1.242 . S
O28 Sm0 2.386 . S
O28 Sm1 2.681 1_455 S
O28 C18 1.271 . S
O29 Sm1 2.464 1_455 S
O29 C18 1.251 . S
O30 Sm1 2.396 . S
O30 C19 1.252 . S
O31 Sm0 2.408 1_655 S
O31 C19 1.272 . S
H32 C4 0.930 . S
H33 C5 0.929 . S
H34 C7 0.930 . S
H35 C8 0.929 . S
H36 C13 0.930 . S
H37 C14 0.929 . S
H38 C16 0.930 . S
H39 C17 0.929 . S
Sm40 C42 2.846 . S
Sm40 O60 2.543 . S
Sm40 O61 2.450 . S
Sm40 O62 2.681 1_565 S
Sm40 O63 2.464 . S
Sm40 O64 2.396 . S
Sm40 O68 2.386 1_565 S
Sm40 O71 2.408 1_565 S
Sm41 C51 2.846 . S
Sm41 O62 2.386 . S
Sm41 O65 2.408 1_545 S
Sm41 O66 2.543 . S
Sm41 O67 2.450 . S
Sm41 O68 2.681 . S
Sm41 O69 2.464 . S
Sm41 O70 2.396 . S
C42 Sm40 2.846 . S
C42 C43 1.506 . S
C42 O60 1.261 . S
C42 O61 1.242 . S
C43 C42 1.506 . S
C43 C44 1.358 . S
C43 C48 1.382 . S
C44 C43 1.358 . S
C44 C45 1.385 . S
C44 H72 0.930 . S
C45 C44 1.385 . S
C45 C46 1.395 . S
C45 H73 0.929 . S
C46 C45 1.395 . S
C46 C47 1.335 . S
C47 C46 1.335 . S
C47 C48 1.398 . S
C47 H74 0.930 . S
C48 C43 1.382 . S
C48 C47 1.398 . S
C48 H75 0.929 . S
C49 O62 1.271 . S
C49 O63 1.251 1_545 S
C50 O64 1.252 . S
C50 O65 1.272 . S
C51 Sm41 2.846 . S
C51 C52 1.506 . S
C51 O66 1.261 . S
C51 O67 1.242 . S
C52 C51 1.506 . S
C52 C53 1.358 . S
C52 C57 1.382 . S
C53 C52 1.358 . S
C53 C54 1.385 . S
C53 H76 0.930 . S
C54 C53 1.385 . S
C54 C55 1.395 . S
C54 H77 0.929 . S
C55 C54 1.395 . S
C55 C56 1.335 . S
C56 C55 1.335 . S
C56 C57 1.398 . S
C56 H78 0.930 . S
C57 C52 1.382 . S
C57 C56 1.398 . S
C57 H79 0.929 . S
C58 O68 1.271 . S
C58 O69 1.251 . S
C59 O70 1.252 . S
C59 O71 1.272 . S
O60 Sm40 2.543 . S
O60 C42 1.261 . S
O61 Sm40 2.450 . S
O61 C42 1.242 . S
O62 Sm40 2.681 1_545 S
O62 Sm41 2.386 . S
O62 C49 1.271 . S
O63 Sm40 2.464 . S
O63 C49 1.251 1_565 S
O64 Sm40 2.396 . S
O64 C50 1.252 . S
O65 Sm41 2.408 1_565 S
O65 C50 1.272 . S
O66 Sm41 2.543 . S
O66 C51 1.261 . S
O67 Sm41 2.450 . S
O67 C51 1.242 . S
O68 Sm40 2.386 1_545 S
O68 Sm41 2.681 . S
O68 C58 1.271 . S
O69 Sm41 2.464 . S
O69 C58 1.251 . S
O70 Sm41 2.396 . S
O70 C59 1.252 . S
O71 Sm40 2.408 1_545 S
O71 C59 1.272 . S
H72 C44 0.930 . S
H73 C45 0.929 . S
H74 C47 0.930 . S
H75 C48 0.929 . S
H76 C53 0.930 . S
H77 C54 0.929 . S
H78 C56 0.930 . S
H79 C57 0.929 . S
Sm80 C82 2.846 . S
Sm80 O100 2.543 . S
Sm80 O101 2.450 . S
Sm80 O102 2.681 . S
Sm80 O103 2.464 . S
Sm80 O104 2.396 . S
Sm80 O108 2.386 . S
Sm80 O111 2.408 . S
Sm81 C91 2.846 . S
Sm81 O102 2.386 . S
Sm81 O105 2.408 . S
Sm81 O106 2.543 . S
Sm81 O107 2.450 . S
Sm81 O108 2.681 . S
Sm81 O109 2.464 . S
Sm81 O110 2.396 . S
C82 Sm80 2.846 . S
C82 C83 1.506 . S
C82 O100 1.261 . S
C82 O101 1.242 . S
C83 C82 1.506 . S
C83 C84 1.358 . S
C83 C88 1.382 . S
C84 C83 1.358 . S
C84 C85 1.385 . S
C84 H112 0.930 . S
C85 C84 1.385 . S
C85 C86 1.395 . S
C85 H113 0.929 . S
C86 C85 1.395 . S
C86 C87 1.335 . S
C87 C86 1.335 . S
C87 C88 1.398 . S
C87 H114 0.930 . S
C88 C83 1.382 . S
C88 C87 1.398 . S
C88 H115 0.929 . S
C89 O102 1.271 . S
C89 O103 1.251 . S
C90 O104 1.252 . S
C90 O105 1.272 . S
C91 Sm81 2.846 . S
C91 C92 1.506 . S
C91 O106 1.261 . S
C91 O107 1.242 . S
C92 C91 1.506 . S
C92 C93 1.358 . S
C92 C97 1.382 . S
C93 C92 1.358 . S
C93 C94 1.385 . S
C93 H116 0.930 . S
C94 C93 1.385 . S
C94 C95 1.395 . S
C94 H117 0.929 . S
C95 C94 1.395 . S
C95 C96 1.335 . S
C96 C95 1.335 . S
C96 C97 1.398 . S
C96 H118 0.930 . S
C97 C92 1.382 . S
C97 C96 1.398 . S
C97 H119 0.929 . S
C98 O108 1.271 . S
C98 O109 1.251 . S
C99 O110 1.252 . S
C99 O111 1.272 . S
O100 Sm80 2.543 . S
O100 C82 1.261 . S
O101 Sm80 2.450 . S
O101 C82 1.242 . S
O102 Sm80 2.681 . S
O102 Sm81 2.386 . S
O102 C89 1.271 . S
O103 Sm80 2.464 . S
O103 C89 1.251 . S
O104 Sm80 2.396 . S
O104 C90 1.252 . S
O105 Sm81 2.408 . S
O105 C90 1.272 . S
O106 Sm81 2.543 . S
O106 C91 1.261 . S
O107 Sm81 2.450 . S
O107 C91 1.242 . S
O108 Sm80 2.386 . S
O108 Sm81 2.681 . S
O108 C98 1.271 . S
O109 Sm81 2.464 . S
O109 C98 1.251 . S
O110 Sm81 2.396 . S
O110 C99 1.252 . S
O111 Sm80 2.408 . S
O111 C99 1.272 . S
H112 C84 0.930 . S
H113 C85 0.929 . S
H114 C87 0.930 . S
H115 C88 0.929 . S
H116 C93 0.930 . S
H117 C94 0.929 . S
H118 C96 0.930 . S
H119 C97 0.929 . S
C120 C121 1.386 . S
C120 C122 1.397 . S
C120 H144 0.931 . S
C121 C120 1.386 . S
C121 C125 1.397 1_545 S
C122 C120 1.397 . S
C122 C123 1.384 . S
C122 H145 0.930 . S
C123 C122 1.384 . S
C123 C124 1.377 1_545 S
C123 C126 1.481 . S
C124 C123 1.377 1_565 S
C124 C125 1.389 . S
C124 H146 0.929 . S
C125 C121 1.397 1_565 S
C125 C124 1.389 . S
C125 H147 0.931 . S
C126 C123 1.481 . S
C126 C127 1.387 . S
C126 C131 1.390 1_545 S
C127 C126 1.387 . S
C127 C128 1.401 . S
C127 H148 0.930 . S
C128 C127 1.401 . S
C128 C129 1.376 . S
C128 C137 1.511 . S
C129 C128 1.376 . S
C129 C130 1.392 1_545 S
C129 H150 0.931 . S
C130 C129 1.392 1_565 S
C130 C131 1.361 . S
C130 C132 1.500 . S
C131 C126 1.390 1_565 S
C131 C130 1.361 . S
C131 H149 0.931 . S
C132 C130 1.500 . S
C132 C133 1.371 . S
C132 C134 1.365 . S
C133 C132 1.371 . S
C133 C143 1.386 . S
C133 H151 0.931 . S
C134 C132 1.365 . S
C134 C135 1.409 . S
C134 H152 0.929 . S
C135 C134 1.409 . S
C135 C136 1.380 . S
C135 H153 0.930 . S
C136 C135 1.380 . S
C136 C143 1.357 . S
C137 C128 1.511 . S
C137 C138 1.341 . S
C137 C139 1.371 . S
C138 C137 1.341 . S
C138 C142 1.394 . S
C138 H154 0.930 . S
C139 C137 1.371 . S
C139 C140 1.392 . S
C139 H155 0.931 . S
C140 C139 1.392 . S
C140 C141 1.331 . S
C140 H158 0.932 . S
C141 C140 1.331 . S
C141 C142 1.336 . S
C142 C138 1.394 . S
C142 C141 1.336 . S
C142 H157 0.929 . S
C143 C133 1.386 . S
C143 C136 1.357 . S
C143 H156 0.928 . S
H144 C120 0.931 . S
H145 C122 0.930 . S
H146 C124 0.929 . S
H147 C125 0.931 . S
H148 C127 0.930 . S
H149 C131 0.931 . S
H150 C129 0.931 . S
H151 C133 0.931 . S
H152 C134 0.929 . S
H153 C135 0.930 . S
H154 C138 0.930 . S
H155 C139 0.931 . S
H156 C143 0.928 . S
H157 C142 0.929 . S
H158 C140 0.932 . S
C159 C160 1.386 . S
C159 C161 1.397 . S
C159 H183 0.931 . S
C160 C159 1.386 . S
C160 C164 1.397 . S
C161 C159 1.397 . S
C161 C162 1.384 . S
C161 H184 0.930 . S
C162 C161 1.384 . S
C162 C163 1.377 . S
C162 C165 1.481 . S
C163 C162 1.377 . S
C163 C164 1.389 . S
C163 H185 0.929 . S
C164 C160 1.397 . S
C164 C163 1.389 . S
C164 H186 0.931 . S
C165 C162 1.481 . S
C165 C166 1.387 . S
C165 C170 1.390 . S
C166 C165 1.387 . S
C166 C167 1.401 . S
C166 H187 0.930 . S
C167 C166 1.401 . S
C167 C168 1.376 . S
C167 C176 1.511 . S
C168 C167 1.376 . S
C168 C169 1.392 . S
C168 H189 0.931 . S
C169 C168 1.392 . S
C169 C170 1.361 . S
C169 C171 1.500 . S
C170 C165 1.390 . S
C170 C169 1.361 . S
C170 H188 0.931 . S
C171 C169 1.500 . S
C171 C172 1.371 . S
C171 C173 1.365 . S
C172 C171 1.371 . S
C172 C182 1.386 . S
C172 H190 0.931 . S
C173 C171 1.365 . S
C173 C174 1.409 . S
C173 H191 0.929 . S
C174 C173 1.409 . S
C174 C175 1.380 . S
C174 H192 0.930 . S
C175 C174 1.380 . S
C175 C182 1.357 . S
C176 C167 1.511 . S
C176 C177 1.341 . S
C176 C178 1.371 . S
C177 C176 1.341 . S
C177 C181 1.394 . S
C177 H193 0.930 . S
C178 C176 1.371 . S
C178 C179 1.392 . S
C178 H194 0.931 . S
C179 C178 1.392 . S
C179 C180 1.331 . S
C179 H197 0.932 . S
C180 C179 1.331 . S
C180 C181 1.336 . S
C181 C177 1.394 . S
C181 C180 1.336 . S
C181 H196 0.929 . S
C182 C172 1.386 . S
C182 C175 1.357 . S
C182 H195 0.928 . S
H183 C159 0.931 . S
H184 C161 0.930 . S
H185 C163 0.929 . S
H186 C164 0.931 . S
H187 C166 0.930 . S
H188 C170 0.931 . S
H189 C168 0.931 . S
H190 C172 0.931 . S
H191 C173 0.929 . S
H192 C174 0.930 . S
H193 C177 0.930 . S
H194 C178 0.931 . S
H195 C182 0.928 . S
H196 C181 0.929 . S
H197 C179 0.932 . S
C198 C199 1.386 . S
C198 C200 1.397 . S
C198 H222 0.931 . S
C199 C198 1.386 . S
C199 C203 1.397 . S
C200 C198 1.397 . S
C200 C201 1.384 . S
C200 H223 0.930 . S
C201 C200 1.384 . S
C201 C202 1.377 . S
C201 C204 1.481 . S
C202 C201 1.377 . S
C202 C203 1.389 . S
C202 H224 0.929 1_455 S
C203 C199 1.397 . S
C203 C202 1.389 . S
C203 H225 0.931 1_455 S
C204 C201 1.481 . S
C204 C205 1.387 . S
C204 C209 1.390 . S
C205 C204 1.387 . S
C205 C206 1.401 . S
C205 H226 0.930 . S
C206 C205 1.401 . S
C206 C207 1.376 . S
C206 C215 1.511 . S
C207 C206 1.376 . S
C207 C208 1.392 . S
C207 H228 0.931 . S
C208 C207 1.392 . S
C208 C209 1.361 . S
C208 C210 1.500 1_455 S
C209 C204 1.390 . S
C209 C208 1.361 . S
C209 H227 0.931 . S
C210 C208 1.500 1_655 S
C210 C211 1.369 . S
C210 C212 1.365 . S
C211 C210 1.369 . S
C211 C221 1.413 . S
C211 H229 0.906 1_655 S
C212 C210 1.365 . S
C212 C213 1.409 . S
C212 H230 0.929 . S
C213 C212 1.409 . S
C213 C214 1.380 . S
C213 H231 0.930 . S
C214 C213 1.380 . S
C214 C221 1.357 . S
C215 C206 1.511 . S
C215 C216 1.341 . S
C215 C217 1.371 . S
C216 C215 1.341 . S
C216 C220 1.394 . S
C216 H232 0.930 . S
C217 C215 1.371 . S
C217 C218 1.392 . S
C217 H233 0.931 . S
C218 C217 1.392 . S
C218 C219 1.331 . S
C218 H236 0.932 . S
C219 C218 1.331 . S
C219 C220 1.336 . S
C220 C216 1.394 . S
C220 C219 1.336 . S
C220 H235 0.929 . S
C221 C211 1.413 . S
C221 C214 1.357 . S
C221 H234 0.928 . S
H222 C198 0.931 . S
H223 C200 0.930 . S
H224 C202 0.929 1_655 S
H225 C203 0.931 1_655 S
H226 C205 0.930 . S
H227 C209 0.931 . S
H228 C207 0.931 . S
H229 C211 0.906 1_455 S
H230 C212 0.929 . S
H231 C213 0.930 . S
H232 C216 0.930 . S
H233 C217 0.931 . S
H234 C221 0.928 . S
H235 C220 0.929 . S
H236 C218 0.932 . S
C237 C238 1.403 . S
C237 C239 1.397 . S
C237 H261 0.931 . S
C238 C237 1.403 . S
C238 C242 1.381 1_655 S
C239 C237 1.397 . S
C239 C240 1.384 . S
C239 H262 0.930 . S
C240 C239 1.384 . S
C240 C241 1.377 1_655 S
C240 C243 1.481 . S
C241 C240 1.377 1_455 S
C241 C242 1.389 . S
C241 H263 0.929 . S
C242 C238 1.381 1_455 S
C242 C241 1.389 . S
C242 H264 0.931 . S
C243 C240 1.481 . S
C243 C244 1.387 . S
C243 C248 1.390 1_655 S
C244 C243 1.387 . S
C244 C245 1.401 . S
C244 H265 0.930 . S
C245 C244 1.401 . S
C245 C246 1.387 . S
C245 C254 1.511 . S
C246 C245 1.387 . S
C246 C247 1.381 1_655 S
C246 H267 0.931 . S
C247 C246 1.381 1_455 S
C247 C248 1.361 . S
C247 C249 1.500 . S
C248 C243 1.390 1_455 S
C248 C247 1.361 . S
C248 H266 0.931 . S
C249 C247 1.500 . S
C249 C250 1.371 . S
C249 C251 1.365 . S
C250 C249 1.371 . S
C250 C260 1.386 . S
C250 H268 0.931 . S
C251 C249 1.365 . S
C251 C252 1.409 . S
C251 H269 0.929 . S
C252 C251 1.409 . S
C252 C253 1.380 . S
C252 H270 0.930 . S
C253 C252 1.380 . S
C253 C260 1.357 . S
C254 C245 1.511 . S
C254 C255 1.341 . S
C254 C256 1.371 . S
C255 C254 1.341 . S
C255 C259 1.394 . S
C255 H271 0.930 . S
C256 C254 1.371 . S
C256 C257 1.392 . S
C256 H272 0.931 . S
C257 C256 1.392 . S
C257 C258 1.331 . S
C257 H275 0.932 . S
C258 C257 1.331 . S
C258 C259 1.336 . S
C259 C255 1.394 . S
C259 C258 1.336 . S
C259 H274 0.929 . S
C260 C250 1.386 . S
C260 C253 1.357 . S
C260 H273 0.928 . S
H261 C237 0.931 . S
H262 C239 0.930 . S
H263 C241 0.929 . S
H264 C242 0.931 . S
H265 C244 0.930 . S
H266 C248 0.931 . S
H267 C246 0.931 . S
H268 C250 0.931 . S
H269 C251 0.929 . S
H270 C252 0.930 . S
H271 C255 0.930 . S
H272 C256 0.931 . S
H273 C260 0.928 . S
H274 C259 0.929 . S
H275 C257 0.932 . S
C276 C277 1.386 . S
C276 C278 1.397 . S
C276 H300 0.931 . S
C277 C276 1.386 . S
C277 C281 1.397 1_565 S
C278 C276 1.397 . S
C278 C279 1.376 1_565 S
C278 H301 0.930 . S
C279 C278 1.376 1_545 S
C279 C280 1.386 . S
C279 C282 1.480 . S
C280 C279 1.386 . S
C280 C281 1.389 . S
C280 H302 0.929 . S
C281 C277 1.397 1_545 S
C281 C280 1.389 . S
C281 H303 0.931 . S
C282 C279 1.480 . S
C282 C283 1.387 1_545 S
C282 C287 1.390 . S
C283 C282 1.387 1_565 S
C283 C284 1.401 . S
C283 H304 0.930 . S
C284 C283 1.401 . S
C284 C285 1.376 1_565 S
C284 C293 1.511 . S
C285 C284 1.376 1_545 S
C285 C286 1.392 . S
C285 H306 0.931 . S
C286 C285 1.392 . S
C286 C287 1.361 . S
C286 C288 1.500 . S
C287 C282 1.390 . S
C287 C286 1.361 . S
C287 H305 0.931 . S
C288 C286 1.500 . S
C288 C289 1.371 . S
C288 C290 1.365 . S
C289 C288 1.371 . S
C289 C299 1.386 . S
C289 H307 0.931 . S
C290 C288 1.365 . S
C290 C291 1.409 . S
C290 H308 0.929 . S
C291 C290 1.409 . S
C291 C292 1.380 . S
C291 H309 0.930 . S
C292 C291 1.380 . S
C292 C299 1.357 . S
C293 C284 1.511 . S
C293 C294 1.341 . S
C293 C295 1.371 . S
C294 C293 1.341 . S
C294 C298 1.394 . S
C294 H310 0.930 . S
C295 C293 1.371 . S
C295 C296 1.392 . S
C295 H311 0.931 . S
C296 C295 1.392 . S
C296 C297 1.331 . S
C296 H314 0.932 . S
C297 C296 1.331 . S
C297 C298 1.336 . S
C298 C294 1.394 . S
C298 C297 1.336 . S
C298 H313 0.929 . S
C299 C289 1.386 . S
C299 C292 1.357 . S
C299 H312 0.928 . S
H300 C276 0.931 . S
H301 C278 0.930 . S
H302 C280 0.929 . S
H303 C281 0.931 . S
H304 C283 0.930 . S
H305 C287 0.931 . S
H306 C285 0.931 . S
H307 C289 0.931 . S
H308 C290 0.929 . S
H309 C291 0.930 . S
H310 C294 0.930 . S
H311 C295 0.931 . S
H312 C299 0.928 . S
H313 C298 0.929 . S
H314 C296 0.932 . S
C315 C316 1.386 . S
C315 C317 1.397 . S
C315 H339 0.931 . S
C316 C315 1.386 . S
C316 C320 1.397 . S
C317 C315 1.397 . S
C317 C318 1.384 . S
C317 H340 0.930 . S
C318 C317 1.384 . S
C318 C319 1.377 . S
C318 C321 1.481 . S
C319 C318 1.377 . S
C319 C320 1.389 . S
C319 H341 0.929 . S
C320 C316 1.397 . S
C320 C319 1.389 . S
C320 H342 0.931 . S
C321 C318 1.481 . S
C321 C322 1.387 . S
C321 C326 1.390 . S
C322 C321 1.387 . S
C322 C323 1.401 . S
C322 H343 0.930 . S
C323 C322 1.401 . S
C323 C324 1.376 . S
C323 C332 1.511 . S
C324 C323 1.376 . S
C324 C325 1.392 . S
C324 H345 0.931 . S
C325 C324 1.392 . S
C325 C326 1.361 . S
C325 C327 1.500 . S
C326 C321 1.390 . S
C326 C325 1.361 . S
C326 H344 0.931 . S
C327 C325 1.500 . S
C327 C328 1.371 . S
C327 C329 1.365 . S
C328 C327 1.371 . S
C328 C338 1.386 . S
C328 H346 0.931 . S
C329 C327 1.365 . S
C329 C330 1.409 . S
C329 H347 0.929 . S
C330 C329 1.409 . S
C330 C331 1.380 . S
C330 H348 0.930 . S
C331 C330 1.380 . S
C331 C338 1.357 . S
C332 C323 1.511 . S
C332 C333 1.341 . S
C332 C334 1.371 . S
C333 C332 1.341 . S
C333 C337 1.394 . S
C333 H349 0.930 . S
C334 C332 1.371 . S
C334 C335 1.392 . S
C334 H350 0.931 . S
C335 C334 1.392 . S
C335 C336 1.331 . S
C335 H353 0.932 . S
C336 C335 1.331 . S
C336 C337 1.336 . S
C337 C333 1.394 . S
C337 C336 1.336 . S
C337 H352 0.929 . S
C338 C328 1.386 . S
C338 C331 1.357 . S
C338 H351 0.928 . S
H339 C315 0.931 . S
H340 C317 0.930 . S
H341 C319 0.929 . S
H342 C320 0.931 . S
H343 C322 0.930 . S
H344 C326 0.931 . S
H345 C324 0.931 . S
H346 C328 0.931 . S
H347 C329 0.929 . S
H348 C330 0.930 . S
H349 C333 0.930 . S
H350 C334 0.931 . S
H351 C338 0.928 . S
H352 C337 0.929 . S
H353 C335 0.932 . S
C354 C355 1.349 . S
C354 C356 1.327 . S
C354 H379 0.950 . S
C355 C354 1.349 . S
C355 C371 1.349 . S
C356 C354 1.327 . S
C356 C375 1.429 . S
C356 H380 0.950 . S
C357 C374 1.574 . S
C357 C376 1.368 . S
C357 H381 0.949 . S
H358 C362 0.949 . S
C359 C360 1.349 . S
C359 C361 1.327 . S
C359 H382 0.950 . S
C360 C359 1.349 . S
C360 C372 1.349 . S
C361 C359 1.327 . S
C361 C377 1.429 . S
C361 H383 0.950 . S
C362 H358 0.949 . S
C362 C370 1.574 . S
C362 C378 1.368 . S
H363 C371 0.950 . S
H364 C369 0.950 . S
H365 C370 0.949 . S
H366 C372 0.950 . S
H367 C373 0.950 . S
H368 C374 0.949 . S
C369 H364 0.950 . S
C369 C371 1.327 . S
C369 C375 1.429 . S
C370 C362 1.574 . S
C370 H365 0.949 . S
C370 C376 1.368 . S
C371 C355 1.349 . S
C371 H363 0.950 . S
C371 C369 1.327 . S
C372 C360 1.349 . S
C372 H366 0.950 . S
C372 C373 1.327 . S
C373 H367 0.950 . S
C373 C372 1.327 . S
C373 C377 1.429 . S
C374 C357 1.574 . S
C374 H368 0.949 . S
C374 C378 1.368 . S
C375 C356 1.429 . S
C375 C369 1.429 . S
C375 C376 1.523 . S
C376 C357 1.368 . S
C376 C370 1.368 . S
C376 C375 1.523 . S
C377 C361 1.429 . S
C377 C373 1.429 . S
C377 C378 1.523 . S
C378 C362 1.368 . S
C378 C374 1.368 . S
C378 C377 1.523 . S
H379 C354 0.950 . S
H380 C356 0.950 . S
H381 C357 0.949 . S
H382 C359 0.950 . S
H383 C361 0.950 . S
C384 C385 1.349 . S
C384 C386 1.327 . S
C384 H409 0.950 . S
C385 C384 1.349 . S
C385 C401 1.349 . S
C386 C384 1.327 . S
C386 C405 1.429 . S
C386 H410 0.950 . S
C387 C404 1.574 . S
C387 C406 1.368 . S
C387 H411 0.949 . S
H388 C392 0.949 . S
C389 C390 1.349 . S
C389 C391 1.327 . S
C389 H412 0.950 . S
C390 C389 1.349 . S
C390 C402 1.349 . S
C391 C389 1.327 . S
C391 C407 1.429 . S
C391 H413 0.950 . S
C392 H388 0.949 . S
C392 C400 1.574 . S
C392 C408 1.368 . S
H393 C401 0.950 . S
H394 C399 0.950 . S
H395 C400 0.949 . S
H396 C402 0.950 . S
H397 C403 0.950 . S
H398 C404 0.949 . S
C399 H394 0.950 . S
C399 C401 1.327 . S
C399 C405 1.429 . S
C400 C392 1.574 . S
C400 H395 0.949 . S
C400 C406 1.368 . S
C401 C385 1.349 . S
C401 H393 0.950 . S
C401 C399 1.327 . S
C402 C390 1.349 . S
C402 H396 0.950 . S
C402 C403 1.327 . S
C403 H397 0.950 . S
C403 C402 1.327 . S
C403 C407 1.429 . S
C404 C387 1.574 . S
C404 H398 0.949 . S
C404 C408 1.368 . S
C405 C386 1.429 . S
C405 C399 1.429 . S
C405 C406 1.523 . S
C406 C387 1.368 . S
C406 C400 1.368 . S
C406 C405 1.523 . S
C407 C391 1.429 . S
C407 C403 1.429 . S
C407 C408 1.523 . S
C408 C392 1.368 . S
C408 C404 1.368 . S
C408 C407 1.523 . S
H409 C384 0.950 . S
H410 C386 0.950 . S
H411 C387 0.949 . S
H412 C389 0.950 . S
H413 C391 0.950 . S
C414 C415 1.349 . S
C414 C416 1.327 . S
C414 H439 0.950 . S
C415 C414 1.349 . S
C415 C431 1.349 . S
C416 C414 1.327 . S
C416 C435 1.429 . S
C416 H440 0.950 . S
C417 C434 1.574 . S
C417 C436 1.368 . S
C417 H441 0.949 . S
H418 C422 0.949 . S
C419 C420 1.349 . S
C419 C421 1.327 . S
C419 H442 0.950 . S
C420 C419 1.349 . S
C420 C432 1.349 . S
C421 C419 1.327 . S
C421 C437 1.429 . S
C421 H443 0.950 . S
C422 H418 0.949 . S
C422 C430 1.574 . S
C422 C438 1.368 . S
H423 C431 0.950 . S
H424 C429 0.950 . S
H425 C430 0.949 . S
H426 C432 0.950 . S
H427 C433 0.950 . S
H428 C434 0.949 . S
C429 H424 0.950 . S
C429 C431 1.327 . S
C429 C435 1.429 . S
C430 C422 1.574 . S
C430 H425 0.949 . S
C430 C436 1.368 . S
C431 C415 1.349 . S
C431 H423 0.950 . S
C431 C429 1.327 . S
C432 C420 1.349 . S
C432 H426 0.950 . S
C432 C433 1.327 . S
C433 H427 0.950 . S
C433 C432 1.327 . S
C433 C437 1.429 . S
C434 C417 1.574 . S
C434 H428 0.949 . S
C434 C438 1.368 . S
C435 C416 1.429 . S
C435 C429 1.429 . S
C435 C436 1.523 . S
C436 C417 1.368 . S
C436 C430 1.368 . S
C436 C435 1.523 . S
C437 C421 1.429 . S
C437 C433 1.429 . S
C437 C438 1.523 . S
C438 C422 1.368 . S
C438 C434 1.368 . S
C438 C437 1.523 . S
H439 C414 0.950 . S
H440 C416 0.950 . S
H441 C417 0.949 . S
H442 C419 0.950 . S
H443 C421 0.950 . S
C444 C445 1.349 . S
C444 C446 1.327 . S
C444 H469 0.950 . S
C445 C444 1.349 . S
C445 C461 1.349 . S
C446 C444 1.327 . S
C446 C465 1.429 . S
C446 H470 0.950 . S
C447 C464 1.574 . S
C447 C466 1.368 . S
C447 H471 0.949 . S
H448 C452 0.949 . S
C449 C450 1.349 . S
C449 C451 1.327 . S
C449 H472 0.950 . S
C450 C449 1.349 . S
C450 C462 1.349 . S
C451 C449 1.327 . S
C451 C467 1.429 . S
C451 H473 0.950 . S
C452 H448 0.949 . S
C452 C460 1.574 . S
C452 C468 1.368 . S
H453 C461 0.950 . S
H454 C459 0.950 . S
H455 C460 0.949 . S
H456 C462 0.950 . S
H457 C463 0.950 . S
H458 C464 0.949 . S
C459 H454 0.950 . S
C459 C461 1.327 . S
C459 C465 1.429 . S
C460 C452 1.574 . S
C460 H455 0.949 . S
C460 C466 1.368 . S
C461 C445 1.349 . S
C461 H453 0.950 . S
C461 C459 1.327 . S
C462 C450 1.349 . S
C462 H456 0.950 . S
C462 C463 1.327 . S
C463 H457 0.950 . S
C463 C462 1.327 . S
C463 C467 1.429 . S
C464 C447 1.574 . S
C464 H458 0.949 . S
C464 C468 1.368 . S
C465 C446 1.429 . S
C465 C459 1.429 . S
C465 C466 1.523 . S
C466 C447 1.368 . S
C466 C460 1.368 . S
C466 C465 1.523 . S
C467 C451 1.429 . S
C467 C463 1.429 . S
C467 C468 1.523 . S
C468 C452 1.368 . S
C468 C464 1.368 . S
C468 C467 1.523 . S
H469 C444 0.950 . S
H470 C446 0.950 . S
H471 C447 0.949 . S
H472 C449 0.950 . S
H473 C451 0.950 . S
C474 C475 1.349 . S
C474 C476 1.327 . S
C474 H499 0.950 . S
C475 C474 1.349 . S
C475 C491 1.349 . S
C476 C474 1.327 . S
C476 C495 1.429 . S
C476 H500 0.950 . S
C477 C494 1.574 . S
C477 C496 1.368 . S
C477 H501 0.949 . S
H478 C482 0.949 . S
C479 C480 1.349 . S
C479 C481 1.327 . S
C479 H502 0.950 . S
C480 C479 1.349 . S
C480 C492 1.349 . S
C481 C479 1.327 . S
C481 C497 1.429 . S
C481 H503 0.950 . S
C482 H478 0.949 . S
C482 C490 1.574 . S
C482 C498 1.368 . S
H483 C491 0.950 . S
H484 C489 0.950 . S
H485 C490 0.949 . S
H486 C492 0.950 . S
H487 C493 0.950 . S
H488 C494 0.949 . S
C489 H484 0.950 . S
C489 C491 1.327 . S
C489 C495 1.429 . S
C490 C482 1.574 . S
C490 H485 0.949 . S
C490 C496 1.368 . S
C491 C475 1.349 . S
C491 H483 0.950 . S
C491 C489 1.327 . S
C492 C480 1.349 . S
C492 H486 0.950 . S
C492 C493 1.327 . S
C493 H487 0.950 . S
C493 C492 1.327 . S
C493 C497 1.429 . S
C494 C477 1.574 . S
C494 H488 0.949 . S
C494 C498 1.368 . S
C495 C476 1.429 . S
C495 C489 1.429 . S
C495 C496 1.523 . S
C496 C477 1.368 . S
C496 C490 1.368 . S
C496 C495 1.523 . S
C497 C481 1.429 . S
C497 C493 1.429 . S
C497 C498 1.523 . S
C498 C482 1.368 . S
C498 C494 1.368 . S
C498 C497 1.523 . S
H499 C474 0.950 . S
H500 C476 0.950 . S
H501 C477 0.949 . S
H502 C479 0.950 . S
H503 C481 0.950 . S
C504 C505 1.349 . S
C504 C506 1.327 . S
C504 H529 0.950 . S
C505 C504 1.349 . S
C505 C521 1.349 . S
C506 C504 1.327 . S
C506 C525 1.429 . S
C506 H530 0.950 . S
C507 C524 1.574 . S
C507 C526 1.368 . S
C507 H531 0.949 . S
H508 C512 0.949 . S
C509 C510 1.349 . S
C509 C511 1.327 . S
C509 H532 0.950 . S
C510 C509 1.349 . S
C510 C522 1.349 . S
C511 C509 1.327 . S
C511 C527 1.429 . S
C511 H533 0.950 . S
C512 H508 0.949 . S
C512 C520 1.574 . S
C512 C528 1.368 . S
H513 C521 0.950 . S
H514 C519 0.950 . S
H515 C520 0.949 . S
H516 C522 0.950 . S
H517 C523 0.950 . S
H518 C524 0.949 . S
C519 H514 0.950 . S
C519 C521 1.327 . S
C519 C525 1.429 . S
C520 C512 1.574 . S
C520 H515 0.949 . S
C520 C526 1.368 . S
C521 C505 1.349 . S
C521 H513 0.950 . S
C521 C519 1.327 . S
C522 C510 1.349 . S
C522 H516 0.950 . S
C522 C523 1.327 . S
C523 H517 0.950 . S
C523 C522 1.327 . S
C523 C527 1.429 . S
C524 C507 1.574 . S
C524 H518 0.949 . S
C524 C528 1.368 . S
C525 C506 1.429 . S
C525 C519 1.429 . S
C525 C526 1.523 . S
C526 C507 1.368 . S
C526 C520 1.368 . S
C526 C525 1.523 . S
C527 C511 1.429 . S
C527 C523 1.429 . S
C527 C528 1.523 . S
C528 C512 1.368 . S
C528 C524 1.368 . S
C528 C527 1.523 . S
H529 C504 0.950 . S
H530 C506 0.950 . S
H531 C507 0.949 . S
H532 C509 0.950 . S
H533 C511 0.950 . S
C534 C535 1.349 . S
C534 C536 1.327 . S
C534 H559 0.950 . S
C535 C534 1.349 . S
C535 C551 1.349 . S
C536 C534 1.327 . S
C536 C555 1.429 . S
C536 H560 0.950 . S
C537 C554 1.574 . S
C537 C556 1.368 . S
C537 H561 0.949 . S
H538 C542 0.949 . S
C539 C540 1.349 . S
C539 C541 1.327 . S
C539 H562 0.950 . S
C540 C539 1.349 . S
C540 C552 1.349 . S
C541 C539 1.327 . S
C541 C557 1.429 . S
C541 H563 0.950 . S
C542 H538 0.949 . S
C542 C550 1.574 . S
C542 C558 1.368 . S
H543 C551 0.950 . S
H544 C549 0.950 . S
H545 C550 0.949 . S
H546 C552 0.950 . S
H547 C553 0.950 . S
H548 C554 0.949 . S
C549 H544 0.950 . S
C549 C551 1.327 . S
C549 C555 1.429 . S
C550 C542 1.574 . S
C550 H545 0.949 . S
C550 C556 1.368 . S
C551 C535 1.349 . S
C551 H543 0.950 . S
C551 C549 1.327 . S
C552 C540 1.349 . S
C552 H546 0.950 . S
C552 C553 1.327 . S
C553 H547 0.950 . S
C553 C552 1.327 . S
C553 C557 1.429 . S
C554 C537 1.574 . S
C554 H548 0.949 . S
C554 C558 1.368 . S
C555 C536 1.429 . S
C555 C549 1.429 . S
C555 C556 1.523 . S
C556 C537 1.368 . S
C556 C550 1.368 . S
C556 C555 1.523 . S
C557 C541 1.429 . S
C557 C553 1.429 . S
C557 C558 1.523 . S
C558 C542 1.368 . S
C558 C554 1.368 . S
C558 C557 1.523 . S
H559 C534 0.950 . S
H560 C536 0.950 . S
H561 C537 0.949 . S
H562 C539 0.950 . S
H563 C541 0.950 . S
C564 C565 1.349 . S
C564 C566 1.327 . S
C564 H589 0.950 . S
C565 C564 1.349 . S
C565 C581 1.349 . S
C566 C564 1.327 . S
C566 C585 1.429 . S
C566 H590 0.950 . S
C567 C584 1.574 . S
C567 C586 1.368 . S
C567 H591 0.949 . S
H568 C572 0.949 . S
C569 C570 1.349 . S
C569 C571 1.327 . S
C569 H592 0.950 . S
C570 C569 1.349 . S
C570 C582 1.349 . S
C571 C569 1.327 . S
C571 C587 1.429 . S
C571 H593 0.950 . S
C572 H568 0.949 . S
C572 C580 1.574 . S
C572 C588 1.368 . S
H573 C581 0.950 . S
H574 C579 0.950 . S
H575 C580 0.949 . S
H576 C582 0.950 . S
H577 C583 0.950 . S
H578 C584 0.949 . S
C579 H574 0.950 . S
C579 C581 1.327 . S
C579 C585 1.429 . S
C580 C572 1.574 . S
C580 H575 0.949 . S
C580 C586 1.368 . S
C581 C565 1.349 . S
C581 H573 0.950 . S
C581 C579 1.327 . S
C582 C570 1.349 . S
C582 H576 0.950 . S
C582 C583 1.327 . S
C583 H577 0.950 . S
C583 C582 1.327 . S
C583 C587 1.429 . S
C584 C567 1.574 . S
C584 H578 0.949 . S
C584 C588 1.368 . S
C585 C566 1.429 . S
C585 C579 1.429 . S
C585 C586 1.523 . S
C586 C567 1.368 . S
C586 C580 1.368 . S
C586 C585 1.523 . S
C587 C571 1.429 . S
C587 C583 1.429 . S
C587 C588 1.523 . S
C588 C572 1.368 . S
C588 C584 1.368 . S
C588 C587 1.523 . S
H589 C564 0.950 . S
H590 C566 0.950 . S
H591 C567 0.949 . S
H592 C569 0.950 . S
H593 C571 0.950 . S
C594 C595 1.349 . S
C594 C596 1.327 . S
C594 H619 0.950 . S
C595 C594 1.349 . S
C595 C611 1.349 . S
C596 C594 1.327 . S
C596 C615 1.429 . S
C596 H620 0.950 . S
C597 C614 1.574 . S
C597 C616 1.368 . S
C597 H621 0.949 . S
H598 C602 0.949 . S
C599 C600 1.349 . S
C599 C601 1.327 . S
C599 H622 0.950 . S
C600 C599 1.349 . S
C600 C612 1.349 . S
C601 C599 1.327 . S
C601 C617 1.429 . S
C601 H623 0.950 . S
C602 H598 0.949 . S
C602 C610 1.574 . S
C602 C618 1.368 . S
H603 C611 0.950 . S
H604 C609 0.950 . S
H605 C610 0.949 . S
H606 C612 0.950 . S
H607 C613 0.950 . S
H608 C614 0.949 . S
C609 H604 0.950 . S
C609 C611 1.327 . S
C609 C615 1.429 . S
C610 C602 1.574 . S
C610 H605 0.949 . S
C610 C616 1.368 . S
C611 C595 1.349 . S
C611 H603 0.950 . S
C611 C609 1.327 . S
C612 C600 1.349 . S
C612 H606 0.950 . S
C612 C613 1.327 . S
C613 H607 0.950 . S
C613 C612 1.327 . S
C613 C617 1.429 . S
C614 C597 1.574 . S
C614 H608 0.949 . S
C614 C618 1.368 . S
C615 C596 1.429 . S
C615 C609 1.429 . S
C615 C616 1.523 . S
C616 C597 1.368 . S
C616 C610 1.368 . S
C616 C615 1.523 . S
C617 C601 1.429 . S
C617 C613 1.429 . S
C617 C618 1.523 . S
C618 C602 1.368 . S
C618 C614 1.368 . S
C618 C617 1.523 . S
H619 C594 0.950 . S
H620 C596 0.950 . S
H621 C597 0.949 . S
H622 C599 0.950 . S
H623 C601 0.950 . S
C624 C625 1.349 . S
C624 C626 1.327 . S
C624 H649 0.950 . S
C625 C624 1.349 . S
C625 C641 1.349 . S
C626 C624 1.327 . S
C626 C645 1.429 . S
C626 H650 0.950 . S
C627 C644 1.574 . S
C627 C646 1.368 . S
C627 H651 0.949 . S
H628 C632 0.949 . S
C629 C630 1.349 . S
C629 C631 1.327 . S
C629 H652 0.950 . S
C630 C629 1.349 . S
C630 C642 1.349 . S
C631 C629 1.327 . S
C631 C647 1.429 . S
C631 H653 0.950 . S
C632 H628 0.949 . S
C632 C640 1.574 . S
C632 C648 1.368 . S
H633 C641 0.950 . S
H634 C639 0.950 . S
H635 C640 0.949 . S
H636 C642 0.950 . S
H637 C643 0.950 . S
H638 C644 0.949 . S
C639 H634 0.950 . S
C639 C641 1.327 . S
C639 C645 1.429 . S
C640 C632 1.574 . S
C640 H635 0.949 . S
C640 C646 1.368 . S
C641 C625 1.349 . S
C641 H633 0.950 . S
C641 C639 1.327 . S
C642 C630 1.349 . S
C642 H636 0.950 . S
C642 C643 1.327 . S
C643 H637 0.950 . S
C643 C642 1.327 . S
C643 C647 1.429 . S
C644 C627 1.574 . S
C644 H638 0.949 . S
C644 C648 1.368 . S
C645 C626 1.429 . S
C645 C639 1.429 . S
C645 C646 1.523 . S
C646 C627 1.368 . S
C646 C640 1.368 . S
C646 C645 1.523 . S
C647 C631 1.429 . S
C647 C643 1.429 . S
C647 C648 1.523 . S
C648 C632 1.368 . S
C648 C644 1.368 . S
C648 C647 1.523 . S
H649 C624 0.950 . S
H650 C626 0.950 . S
H651 C627 0.949 . S
H652 C629 0.950 . S
H653 C631 0.950 . S
C654 C655 1.349 . S
C654 C656 1.327 . S
C654 H679 0.950 . S
C655 C654 1.349 . S
C655 C671 1.349 . S
C656 C654 1.327 . S
C656 C675 1.429 . S
C656 H680 0.950 . S
C657 C674 1.574 . S
C657 C676 1.368 . S
C657 H681 0.949 . S
H658 C662 0.949 . S
C659 C660 1.349 . S
C659 C661 1.327 . S
C659 H682 0.950 . S
C660 C659 1.349 . S
C660 C672 1.349 . S
C661 C659 1.327 . S
C661 C677 1.429 . S
C661 H683 0.950 . S
C662 H658 0.949 . S
C662 C670 1.574 . S
C662 C678 1.368 . S
H663 C671 0.950 . S
H664 C669 0.950 . S
H665 C670 0.949 . S
H666 C672 0.950 . S
H667 C673 0.950 . S
H668 C674 0.949 . S
C669 H664 0.950 . S
C669 C671 1.327 . S
C669 C675 1.429 . S
C670 C662 1.574 . S
C670 H665 0.949 . S
C670 C676 1.368 . S
C671 C655 1.349 . S
C671 H663 0.950 . S
C671 C669 1.327 . S
C672 C660 1.349 . S
C672 H666 0.950 . S
C672 C673 1.327 . S
C673 H667 0.950 . S
C673 C672 1.327 . S
C673 C677 1.429 . S
C674 C657 1.574 . S
C674 H668 0.949 . S
C674 C678 1.368 . S
C675 C656 1.429 . S
C675 C669 1.429 . S
C675 C676 1.523 . S
C676 C657 1.368 . S
C676 C670 1.368 . S
C676 C675 1.523 . S
C677 C661 1.429 . S
C677 C673 1.429 . S
C677 C678 1.523 . S
C678 C662 1.368 . S
C678 C674 1.368 . S
C678 C677 1.523 . S
H679 C654 0.950 . S
H680 C656 0.950 . S
H681 C657 0.949 . S
H682 C659 0.950 . S
H683 C661 0.950 . S
C684 C685 1.349 . S
C684 C686 1.327 . S
C684 H709 0.950 . S
C685 C684 1.349 . S
C685 C701 1.349 . S
C686 C684 1.327 . S
C686 C705 1.429 . S
C686 H710 0.950 . S
C687 C704 1.574 . S
C687 C706 1.368 . S
C687 H711 0.949 . S
H688 C692 0.949 . S
C689 C690 1.349 . S
C689 C691 1.327 . S
C689 H712 0.950 . S
C690 C689 1.349 . S
C690 C702 1.349 . S
C691 C689 1.327 . S
C691 C707 1.429 . S
C691 H713 0.950 . S
C692 H688 0.949 . S
C692 C700 1.574 . S
C692 C708 1.368 . S
H693 C701 0.950 . S
H694 C699 0.950 . S
H695 C700 0.949 . S
H696 C702 0.950 . S
H697 C703 0.950 . S
H698 C704 0.949 . S
C699 H694 0.950 . S
C699 C701 1.327 . S
C699 C705 1.429 . S
C700 C692 1.574 . S
C700 H695 0.949 . S
C700 C706 1.368 . S
C701 C685 1.349 . S
C701 H693 0.950 . S
C701 C699 1.327 . S
C702 C690 1.349 . S
C702 H696 0.950 . S
C702 C703 1.327 . S
C703 H697 0.950 . S
C703 C702 1.327 . S
C703 C707 1.429 . S
C704 C687 1.574 . S
C704 H698 0.949 . S
C704 C708 1.368 . S
C705 C686 1.429 . S
C705 C699 1.429 . S
C705 C706 1.523 . S
C706 C687 1.368 . S
C706 C700 1.368 . S
C706 C705 1.523 . S
C707 C691 1.429 . S
C707 C703 1.429 . S
C707 C708 1.523 . S
C708 C692 1.368 . S
C708 C704 1.368 . S
C708 C707 1.523 . S
H709 C684 0.950 . S
H710 C686 0.950 . S
H711 C687 0.949 . S
H712 C689 0.950 . S
H713 C691 0.950 . S
C714 C715 1.349 1_655 S
C714 C716 1.327 . S
C714 H739 0.950 . S
C715 C714 1.349 1_455 S
C715 C731 1.349 . S
C716 C714 1.327 . S
C716 C735 1.429 1_655 S
C716 H740 0.950 . S
C717 C734 1.574 . S
C717 C736 1.368 . S
C717 H741 0.949 . S
H718 C722 0.949 1_655 S
C719 C720 1.349 . S
C719 C721 1.327 1_556 S
C719 H742 0.950 . S
C720 C719 1.349 . S
C720 C732 1.349 . S
C721 C719 1.327 1_554 S
C721 C737 1.429 . S
C721 H743 0.950 . S
C722 H718 0.949 1_455 S
C722 C730 1.574 1_455 S
C722 C738 1.368 . S
H723 C731 0.950 . S
H724 C729 0.950 . S
H725 C730 0.949 . S
H726 C732 0.950 1_655 S
H727 C733 0.950 1_655 S
H728 C734 0.949 . S
C729 H724 0.950 . S
C729 C731 1.327 . S
C729 C735 1.429 . S
C730 C722 1.574 1_655 S
C730 H725 0.949 . S
C730 C736 1.368 1_655 S
C731 C715 1.349 . S
C731 H723 0.950 . S
C731 C729 1.327 . S
C732 C720 1.349 . S
C732 H726 0.950 1_455 S
C732 C733 1.327 1_556 S
C733 H727 0.950 1_455 S
C733 C732 1.327 1_554 S
C733 C737 1.429 . S
C734 C717 1.574 . S
C734 H728 0.949 . S
C734 C738 1.368 . S
C735 C716 1.429 1_455 S
C735 C729 1.429 . S
C735 C736 1.523 . S
C736 C717 1.368 . S
C736 C730 1.368 1_455 S
C736 C735 1.523 . S
C737 C721 1.429 . S
C737 C733 1.429 . S
C737 C738 1.523 . S
C738 C722 1.368 . S
C738 C734 1.368 . S
C738 C737 1.523 . S
H739 C714 0.950 . S
H740 C716 0.950 . S
H741 C717 0.949 . S
H742 C719 0.950 . S
H743 C721 0.950 . S
C744 C745 1.349 . S
C744 C746 1.327 . S
C744 H769 0.950 . S
C745 C744 1.349 . S
C745 C761 1.349 1_545 S
C746 C744 1.327 . S
C746 C765 1.429 . S
C746 H770 0.950 . S
C747 C764 1.574 . S
C747 C766 1.368 1_565 S
C747 H771 0.949 . S
H748 C752 0.949 . S
C749 C750 1.349 1_565 S
C749 C751 1.327 . S
C749 H772 0.950 . S
C750 C749 1.349 1_545 S
C750 C762 1.349 . S
C751 C749 1.327 . S
C751 C767 1.429 1_565 S
C751 H773 0.950 . S
C752 H748 0.949 . S
C752 C760 1.574 . S
C752 C768 1.368 . S
H753 C761 0.950 . S
H754 C759 0.950 . S
H755 C760 0.949 . S
H756 C762 0.950 . S
H757 C763 0.950 . S
H758 C764 0.949 . S
C759 H754 0.950 . S
C759 C761 1.327 . S
C759 C765 1.429 1_565 S
C760 C752 1.574 . S
C760 H755 0.949 . S
C760 C766 1.368 . S
C761 C745 1.349 1_565 S
C761 H753 0.950 . S
C761 C759 1.327 . S
C762 C750 1.349 . S
C762 H756 0.950 . S
C762 C763 1.327 . S
C763 H757 0.950 . S
C763 C762 1.327 . S
C763 C767 1.429 . S
C764 C747 1.574 . S
C764 H758 0.949 . S
C764 C768 1.368 1_565 S
C765 C746 1.429 . S
C765 C759 1.429 1_545 S
C765 C766 1.523 . S
C766 C747 1.368 1_545 S
C766 C760 1.368 . S
C766 C765 1.523 . S
C767 C751 1.429 1_545 S
C767 C763 1.429 . S
C767 C768 1.523 . S
C768 C752 1.368 . S
C768 C764 1.368 1_545 S
C768 C767 1.523 . S
H769 C744 0.950 . S
H770 C746 0.950 . S
H771 C747 0.949 . S
H772 C749 0.950 . S
H773 C751 0.950 . S
C774 C775 1.349 . S
C774 C776 1.327 . S
C774 H799 0.950 . S
C775 C774 1.349 . S
C775 C791 1.349 . S
C776 C774 1.327 . S
C776 C795 1.429 . S
C776 H800 0.950 . S
C777 C794 1.574 . S
C777 C796 1.368 . S
C777 H801 0.949 . S
H778 C782 0.949 . S
C779 C780 1.349 . S
C779 C781 1.327 . S
C779 H802 0.950 . S
C780 C779 1.349 . S
C780 C792 1.349 . S
C781 C779 1.327 . S
C781 C797 1.429 . S
C781 H803 0.950 . S
C782 H778 0.949 . S
C782 C790 1.574 . S
C782 C798 1.368 . S
H783 C791 0.950 . S
H784 C789 0.950 . S
H785 C790 0.949 . S
H786 C792 0.950 . S
H787 C793 0.950 . S
H788 C794 0.949 . S
C789 H784 0.950 . S
C789 C791 1.327 . S
C789 C795 1.429 . S
C790 C782 1.574 . S
C790 H785 0.949 . S
C790 C796 1.368 . S
C791 C775 1.349 . S
C791 H783 0.950 . S
C791 C789 1.327 . S
C792 C780 1.349 . S
C792 H786 0.950 . S
C792 C793 1.327 . S
C793 H787 0.950 . S
C793 C792 1.327 . S
C793 C797 1.429 . S
C794 C777 1.574 . S
C794 H788 0.949 . S
C794 C798 1.368 . S
C795 C776 1.429 . S
C795 C789 1.429 . S
C795 C796 1.523 . S
C796 C777 1.368 . S
C796 C790 1.368 . S
C796 C795 1.523 . S
C797 C781 1.429 . S
C797 C793 1.429 . S
C797 C798 1.523 . S
C798 C782 1.368 . S
C798 C794 1.368 . S
C798 C797 1.523 . S
H799 C774 0.950 . S
H800 C776 0.950 . S
H801 C777 0.949 . S
H802 C779 0.950 . S
H803 C781 0.950 . S
C804 C805 1.349 . S
C804 C806 1.327 . S
C804 H829 0.950 . S
C805 C804 1.349 . S
C805 C821 1.349 1_545 S
C806 C804 1.327 . S
C806 C825 1.429 . S
C806 H830 0.950 . S
C807 C824 1.574 . S
C807 C826 1.368 1_565 S
C807 H831 0.949 . S
H808 C812 0.949 . S
C809 C810 1.379 . S
C809 C811 1.327 . S
C809 H832 0.950 . S
C810 C809 1.379 . S
C810 C822 1.316 1_565 S
C811 C809 1.327 . S
C811 C827 1.429 1_565 S
C811 H833 0.950 . S
C812 H808 0.949 . S
C812 C820 1.574 . S
C812 C828 1.368 . S
H813 C821 0.950 . S
H814 C819 0.950 . S
H815 C820 0.949 . S
H816 C822 0.950 . S
H817 C823 0.950 . S
H818 C824 0.949 . S
C819 H814 0.950 . S
C819 C821 1.327 . S
C819 C825 1.429 1_565 S
C820 C812 1.574 . S
C820 H815 0.949 . S
C820 C826 1.368 . S
C821 C805 1.349 1_565 S
C821 H813 0.950 . S
C821 C819 1.327 . S
C822 C810 1.316 1_545 S
C822 H816 0.950 . S
C822 C823 1.327 . S
C823 H817 0.950 . S
C823 C822 1.327 . S
C823 C827 1.429 . S
C824 C807 1.574 . S
C824 H818 0.949 . S
C824 C828 1.368 1_565 S
C825 C806 1.429 . S
C825 C819 1.429 1_545 S
C825 C826 1.523 . S
C826 C807 1.368 1_545 S
C826 C820 1.368 . S
C826 C825 1.523 . S
C827 C811 1.429 1_545 S
C827 C823 1.429 . S
C827 C828 1.523 . S
C828 C812 1.368 . S
C828 C824 1.368 1_545 S
C828 C827 1.523 . S
H829 C804 0.950 . S
H830 C806 0.950 . S
H831 C807 0.949 . S
H832 C809 0.950 . S
H833 C811 0.950 . S
C834 C835 1.349 . S
C834 C836 1.327 . S
C834 H859 0.950 . S
C835 C834 1.349 . S
C835 C851 1.349 . S
C836 C834 1.327 . S
C836 C855 1.429 . S
C836 H860 0.950 . S
C837 C854 1.574 . S
C837 C856 1.368 . S
C837 H861 0.949 . S
H838 C842 0.949 . S
C839 C840 1.349 . S
C839 C841 1.327 1_554 S
C839 H862 0.950 . S
C840 C839 1.349 . S
C840 C852 1.349 . S
C841 C839 1.327 1_556 S
C841 C857 1.429 . S
C841 H863 0.950 . S
C842 H838 0.949 . S
C842 C850 1.574 . S
C842 C858 1.368 . S
H843 C851 0.950 . S
H844 C849 0.950 . S
H845 C850 0.949 . S
H846 C852 0.950 . S
H847 C853 0.950 . S
H848 C854 0.949 . S
C849 H844 0.950 . S
C849 C851 1.327 . S
C849 C855 1.429 . S
C850 C842 1.574 . S
C850 H845 0.949 . S
C850 C856 1.368 . S
C851 C835 1.349 . S
C851 H843 0.950 . S
C851 C849 1.327 . S
C852 C840 1.349 . S
C852 H846 0.950 . S
C852 C853 1.327 1_554 S
C853 H847 0.950 . S
C853 C852 1.327 1_556 S
C853 C857 1.429 . S
C854 C837 1.574 . S
C854 H848 0.949 . S
C854 C858 1.368 . S
C855 C836 1.429 . S
C855 C849 1.429 . S
C855 C856 1.523 . S
C856 C837 1.368 . S
C856 C850 1.368 . S
C856 C855 1.523 . S
C857 C841 1.429 . S
C857 C853 1.429 . S
C857 C858 1.523 . S
C858 C842 1.368 . S
C858 C854 1.368 . S
C858 C857 1.523 . S
H859 C834 0.950 . S
H860 C836 0.950 . S
H861 C837 0.949 . S
H862 C839 0.950 . S
H863 C841 0.950 . S
C864 C865 1.349 . S
C864 C866 1.327 . S
C864 H889 0.950 . S
C865 C864 1.349 . S
C865 C881 1.349 . S
C866 C864 1.327 . S
C866 C885 1.429 . S
C866 H890 0.950 . S
C867 C884 1.574 . S
C867 C886 1.368 . S
C867 H891 0.949 . S
H868 C872 0.949 . S
C869 C870 1.367 . S
C869 C871 1.327 . S
C869 H892 0.950 . S
C870 C869 1.367 . S
C870 C882 1.347 . S
C871 C869 1.327 . S
C871 C887 1.429 . S
C871 H893 0.950 . S
C872 H868 0.949 . S
C872 C880 1.574 . S
C872 C888 1.368 . S
H873 C881 0.950 . S
H874 C879 0.950 . S
H875 C880 0.949 . S
H876 C882 0.920 1_655 S
H877 C883 0.950 . S
H878 C884 0.949 . S
C879 H874 0.950 . S
C879 C881 1.327 . S
C879 C885 1.429 . S
C880 C872 1.574 . S
C880 H875 0.949 . S
C880 C886 1.368 . S
C881 C865 1.349 . S
C881 H873 0.950 . S
C881 C879 1.327 . S
C882 C870 1.347 . S
C882 H876 0.920 1_455 S
C882 C883 1.329 . S
C883 H877 0.950 . S
C883 C882 1.329 . S
C883 C887 1.429 . S
C884 C867 1.574 . S
C884 H878 0.949 . S
C884 C888 1.368 . S
C885 C866 1.429 . S
C885 C879 1.429 . S
C885 C886 1.523 . S
C886 C867 1.368 . S
C886 C880 1.368 . S
C886 C885 1.523 . S
C887 C871 1.429 . S
C887 C883 1.429 . S
C887 C888 1.523 . S
C888 C872 1.368 . S
C888 C884 1.368 . S
C888 C887 1.523 . S
H889 C864 0.950 . S
H890 C866 0.950 . S
H891 C867 0.949 . S
H892 C869 0.950 . S
H893 C871 0.950 . S
C355 C6 0.458 . S
C360 C331 0.443 . S
C385 C59 1.871 . S
C390 C258 1.843 . S
C415 C86 1.157 . S
C420 C297 1.158 . S
C445 C15 0.327 . S
C450 C336 0.231 . S
C480 C253 1.929 . S
C475 C50 1.955 . S
C510 C292 1.256 . S
C505 C95 1.255 . S
C535 C46 1.162 . S
C540 C180 1.162 . S
C565 C99 3.069 . S
C570 C214 3.026 . S
C595 C10 1.983 . S
C600 C136 1.962 . S
C630 C175 1.241 . S
C625 C55 1.235 . S
C660 C219 2.903 . S
C655 C90 2.919 . S
C685 C19 1.863 . S
C690 C141 1.839 . S
C720 C199 1.760 . S
C715 C18 1.691 . S
C745 C49 1.336 . S
C750 C121 1.383 . S
C775 C98 1.453 . S
C780 C160 1.507 . S
C810 C277 1.492 . S
C805 C58 1.443 . S
C840 C316 1.115 . S
C835 C89 1.094 . S
C865 C9 1.332 . S
C870 C238 1.371 1_455 S
