# Generated by pormake.
# Topology ssa, (4,4)-cn, num edge types: 1
# Building blocks:
#     Node 0, Type 0, BuildingBlock: KOZSID_clean_sbu_0, # of connection points: 4
#     Node 1, Type 0, BuildingBlock: KOZSID_clean_sbu_0, # of connection points: 4
#     Node 2, Type 0, BuildingBlock: KOZSID_clean_sbu_0, # of connection points: 4
#     Node 3, Type 0, BuildingBlock: KOZSID_clean_sbu_0, # of connection points: 4
#     Node 4, Type 0, BuildingBlock: KOZSID_clean_sbu_0, # of connection points: 4
#     Node 5, Type 0, BuildingBlock: KOZSID_clean_sbu_0, # of connection points: 4
#     Node 6, Type 1, BuildingBlock: NAHDIM_clean_linker_0, # of connection points: 4
#     Node 7, Type 1, BuildingBlock: NAHDIM_clean_linker_0, # of connection points: 4
#     Node 8, Type 1, BuildingBlock: NAHDIM_clean_linker_0, # of connection points: 4
#     Node 9, Type 1, BuildingBlock: NAHDIM_clean_linker_0, # of connection points: 4
#     Node 10, Type 1, BuildingBlock: NAHDIM_clean_linker_0, # of connection points: 4
#     Node 11, Type 1, BuildingBlock: NAHDIM_clean_linker_0, # of connection points: 4
#     Edge 12, Type (0, 1), BuildingBlock: ZUJKAS_clean_linker_0, # of connection points: 2
#     Edge 13, Type (0, 1), BuildingBlock: ZUJKAS_clean_linker_0, # of connection points: 2
#     Edge 14, Type (0, 1), BuildingBlock: ZUJKAS_clean_linker_0, # of connection points: 2
#     Edge 15, Type (0, 1), BuildingBlock: ZUJKAS_clean_linker_0, # of connection points: 2
#     Edge 16, Type (0, 1), BuildingBlock: ZUJKAS_clean_linker_0, # of connection points: 2
#     Edge 17, Type (0, 1), BuildingBlock: ZUJKAS_clean_linker_0, # of connection points: 2
#     Edge 18, Type (0, 1), BuildingBlock: ZUJKAS_clean_linker_0, # of connection points: 2
#     Edge 19, Type (0, 1), BuildingBlock: ZUJKAS_clean_linker_0, # of connection points: 2
#     Edge 20, Type (0, 1), BuildingBlock: ZUJKAS_clean_linker_0, # of connection points: 2
#     Edge 21, Type (0, 1), BuildingBlock: ZUJKAS_clean_linker_0, # of connection points: 2
#     Edge 22, Type (0, 1), BuildingBlock: ZUJKAS_clean_linker_0, # of connection points: 2
#     Edge 23, Type (0, 1), BuildingBlock: ZUJKAS_clean_linker_0, # of connection points: 2
#     Edge 24, Type (0, 1), BuildingBlock: ZUJKAS_clean_linker_0, # of connection points: 2
#     Edge 25, Type (0, 1), BuildingBlock: ZUJKAS_clean_linker_0, # of connection points: 2
#     Edge 26, Type (0, 1), BuildingBlock: ZUJKAS_clean_linker_0, # of connection points: 2
#     Edge 27, Type (0, 1), BuildingBlock: ZUJKAS_clean_linker_0, # of connection points: 2
#     Edge 28, Type (0, 1), BuildingBlock: ZUJKAS_clean_linker_0, # of connection points: 2
#     Edge 29, Type (0, 1), BuildingBlock: ZUJKAS_clean_linker_0, # of connection points: 2
#     Edge 30, Type (0, 1), BuildingBlock: ZUJKAS_clean_linker_0, # of connection points: 2
#     Edge 31, Type (0, 1), BuildingBlock: ZUJKAS_clean_linker_0, # of connection points: 2
#     Edge 32, Type (0, 1), BuildingBlock: ZUJKAS_clean_linker_0, # of connection points: 2
#     Edge 33, Type (0, 1), BuildingBlock: ZUJKAS_clean_linker_0, # of connection points: 2
#     Edge 34, Type (0, 1), BuildingBlock: ZUJKAS_clean_linker_0, # of connection points: 2
#     Edge 35, Type (0, 1), BuildingBlock: ZUJKAS_clean_linker_0, # of connection points: 2
# Relax obj value: 0.011
# Max RMSD: 0.050
# Mean RMSD: 0.032
data_MOF--net-ssa--node1-KOZSID_clean_sbu_0--node2-NAHDIM_clean_linker_0--edge1-ZUJKAS_clean_linker_0
_symmetry_space_group_name_H-M    P1
_symmetry_Int_Tables_number       1
_symmetry_cell_setting            triclinic
loop_
_symmetry_equiv_pos_as_xyz
'x, y, z'
_cell_length_a     79.107751
_cell_length_b     80.41253
_cell_length_c     69.287733
_cell_angle_alpha  88.021187
_cell_angle_beta   90.382097
_cell_angle_gamma 121.7298
loop_
_atom_site_label
_atom_site_type_symbol
_atom_site_fract_x
_atom_site_fract_y
_atom_site_fract_z
_atom_type_partial_charge
C0 C 0.99005 0.52024 0.98859 0.0
C1 C 0.9714 0.5161 0.99439 0.0
C2 C 0.96608 0.50392 0.01035 0.0
C3 C 0.9817 0.50137 0.01342 0.0
N4 N 0.99679 0.51127 0.00044 0.0
Co5 Co 0.02225 0.51145 0.99938 0.0
N6 N 0.01443 0.49364 0.02302 0.0
C7 C 0.99741 0.486 0.03354 0.0
C8 C 0.99639 0.47457 0.04916 0.0
C9 C 0.01388 0.47509 0.04876 0.0
C10 C 0.02464 0.48692 0.03287 0.0
N11 N 0.04756 0.51135 0.99817 0.0
C12 C 0.05452 0.50274 0.01027 0.0
C13 C 0.07299 0.50659 0.00428 0.0
C14 C 0.07792 0.51807 0.98781 0.0
C15 C 0.06227 0.5206 0.98473 0.0
N16 N 0.03023 0.52954 0.97596 0.0
C17 C 0.04731 0.53729 0.96555 0.0
C18 C 0.04861 0.5492 0.95026 0.0
C19 C 0.03132 0.54907 0.9509 0.0
C20 C 0.02045 0.53704 0.96663 0.0
N21 N 0.03524 0.53439 0.01612 0.0
C22 C 0.05391 0.56628 0.04077 0.0
C23 C 0.06379 0.56565 0.02443 0.0
C24 C 0.05425 0.5497 0.01239 0.0
C25 C 0.03444 0.55082 0.04436 0.0
C26 C 0.02549 0.5352 0.03199 0.0
N27 N 0.00921 0.48844 0.98263 0.0
C28 C 0.0086 0.47232 0.95351 0.0
C29 C 0.9901 0.45598 0.95872 0.0
C30 C 0.98137 0.45617 0.97608 0.0
C31 C 0.99106 0.47237 0.98766 0.0
C32 C 0.01787 0.48823 0.96563 0.0
H33 H 0.98344 0.47154 0.00056 0.0
H34 H 0.03199 0.50016 0.96091 0.0
H35 H 0.06261 0.55 1.00025 0.0
H36 H 0.01068 0.52391 0.03563 0.0
C37 C 0.98273 0.48996 0.02849 0.0
C38 C 0.00071 0.53284 0.97178 0.0
C39 C 0.04458 0.49151 0.02796 0.0
C40 C 0.06154 0.53255 0.97008 0.0
H41 H 0.96256 0.52135 0.98776 0.0
H42 H 0.95245 0.4977 0.01875 0.0
H43 H 0.98441 0.46691 0.05967 0.0
H44 H 0.01829 0.4677 0.05909 0.0
H45 H 0.08215 0.50191 0.01127 0.0
H46 H 0.09151 0.52424 0.97937 0.0
H47 H 0.0606 0.55686 0.93976 0.0
H48 H 0.02709 0.55678 0.9408 0.0
H49 H 0.07895 0.57722 0.02108 0.0
H50 H 0.02598 0.55078 0.05661 0.0
H51 H 0.01604 0.47277 0.94026 0.0
H52 H 0.9669 0.44396 0.98061 0.0
C53 C 0.53552 0.01259 0.54132 0.0
C54 C 0.53506 0.00172 0.55755 0.0
C55 C 0.51722 0.98446 0.55753 0.0
C56 C 0.50788 0.98573 0.54134 0.0
N57 N 0.51874 0.00268 0.53085 0.0
Co58 Co 0.51057 0.0108 0.50654 0.0
N59 N 0.48415 0.98551 0.50674 0.0
C60 C 0.47756 0.97032 0.51971 0.0
C61 C 0.45898 0.95479 0.51592 0.0
C62 C 0.45339 0.96026 0.49943 0.0
C63 C 0.469 0.9789 0.49407 0.0
N64 N 0.50216 0.01914 0.48252 0.0
C65 C 0.4851 0.00952 0.47239 0.0
C66 C 0.48535 0.02063 0.45648 0.0
C67 C 0.50319 0.0379 0.45655 0.0
C68 C 0.51279 0.03636 0.4724 0.0
N69 N 0.5372 0.03587 0.50606 0.0
C70 C 0.54418 0.05062 0.49254 0.0
C71 C 0.56292 0.066 0.49611 0.0
C72 C 0.56827 0.06082 0.51295 0.0
C73 C 0.55241 0.04247 0.51868 0.0
N74 N 0.52181 0.9987 0.49061 0.0
C75 C 0.53647 0.98074 0.46747 0.0
C76 C 0.53869 0.99857 0.46163 0.0
C77 C 0.53147 0.00731 0.47341 0.0
C78 C 0.52701 0.97215 0.48514 0.0
C79 C 0.51976 0.98123 0.49632 0.0
N80 N 0.49931 0.02286 0.52246 0.0
C81 C 0.49681 0.05065 0.52995 0.0
C82 C 0.48408 0.04033 0.54561 0.0
C83 C 0.47898 0.02104 0.54936 0.0
C84 C 0.48669 0.01268 0.53771 0.0
C85 C 0.50417 0.04172 0.51867 0.0
H86 H 0.48231 0.99798 0.54143 0.0
H87 H 0.51379 0.05039 0.50698 0.0
H88 H 0.53382 0.02099 0.46823 0.0
H89 H 0.51239 0.97369 0.50942 0.0
C90 C 0.48901 0.9712 0.5355 0.0
C91 C 0.55219 0.03229 0.5366 0.0
C92 C 0.46864 0.98965 0.47683 0.0
C93 C 0.53223 0.05026 0.47745 0.0
H94 H 0.54642 0.00586 0.56834 0.0
H95 H 0.5117 0.97243 0.56807 0.0
H96 H 0.45051 0.94111 0.52417 0.0
H97 H 0.4394 0.9515 0.49218 0.0
H98 H 0.47397 0.01656 0.44573 0.0
H99 H 0.50869 0.04998 0.44605 0.0
H100 H 0.57147 0.07958 0.48774 0.0
H101 H 0.58214 0.06973 0.52036 0.0
H102 H 0.54613 0.00585 0.44811 0.0
H103 H 0.5248 0.95822 0.49016 0.0
H104 H 0.50094 0.06553 0.52622 0.0
H105 H 0.46932 0.01248 0.56144 0.0
C106 C 0.53911 0.53421 0.97768 0.0
C107 C 0.54059 0.54536 0.9613 0.0
C108 C 0.52339 0.54541 0.96043 0.0
C109 C 0.51241 0.53427 0.9762 0.0
N110 N 0.52165 0.5273 0.98727 0.0
Co111 Co 0.51046 0.50936 0.01078 0.0
N112 N 0.48512 0.50938 0.00943 0.0
C113 C 0.48074 0.5196 0.99661 0.0
C114 C 0.46252 0.51729 0.99971 0.0
C115 C 0.45487 0.50504 0.01563 0.0
C116 C 0.46894 0.50058 0.02132 0.0
N117 N 0.49893 0.49066 0.03371 0.0
C118 C 0.48107 0.48294 0.04278 0.0
C119 C 0.47891 0.47031 0.05807 0.0
C120 C 0.496 0.47004 0.05869 0.0
C121 C 0.50758 0.48246 0.04383 0.0
N122 N 0.53616 0.51008 0.01269 0.0
C123 C 0.54122 0.50125 0.02652 0.0
C124 C 0.55999 0.50466 0.02422 0.0
C125 C 0.56738 0.51634 0.0079 0.0
C126 C 0.55256 0.51928 0.00113 0.0
N127 N 0.52147 0.53206 0.02784 0.0
C128 C 0.53557 0.56355 0.05277 0.0
C129 C 0.53518 0.54653 0.05847 0.0
C130 C 0.52827 0.53117 0.04585 0.0
C131 C 0.52913 0.56471 0.03425 0.0
C132 C 0.52208 0.54888 0.02215 0.0
N133 N 0.49942 0.48666 0.99374 0.0
C134 C 0.49729 0.45699 0.98412 0.0
C135 C 0.48454 0.45482 0.96902 0.0
C136 C 0.47924 0.46884 0.9667 0.0
C137 C 0.48687 0.48454 0.97901 0.0
C138 C 0.50435 0.47274 0.99626 0.0
H139 H 0.48243 0.4948 0.97626 0.0
H140 H 0.5139 0.4734 0.0075 0.0
H141 H 0.52851 0.5187 0.05108 0.0
H142 H 0.51704 0.55055 0.00835 0.0
C143 C 0.49369 0.53057 0.98134 0.0
C144 C 0.55454 0.53035 0.98331 0.0
C145 C 0.46618 0.48786 0.03806 0.0
C146 C 0.5273 0.48823 0.04026 0.0
H147 H 0.55281 0.55262 0.95099 0.0
H148 H 0.51933 0.55266 0.94956 0.0
H149 H 0.45559 0.52367 0.99134 0.0
H150 H 0.44053 0.49993 0.02228 0.0
H151 H 0.46648 0.46244 0.06806 0.0
H152 H 0.49979 0.46223 0.06913 0.0
H153 H 0.56721 0.49886 0.03301 0.0
H154 H 0.58188 0.52174 0.00147 0.0
H155 H 0.54035 0.54511 0.07259 0.0
H156 H 0.52911 0.57762 0.02925 0.0
H157 H 0.50218 0.44678 0.98644 0.0
H158 H 0.46913 0.46773 0.95549 0.0
C159 C 0.96864 0.46188 0.51815 0.0
C160 C 0.94968 0.44723 0.51298 0.0
C161 C 0.94462 0.45436 0.49732 0.0
C162 C 0.9607 0.47284 0.49381 0.0
N163 N 0.97584 0.47794 0.50618 0.0
Co164 Co 0.00188 0.50358 0.50646 0.0
N165 N 0.99434 0.5141 0.48344 0.0
C166 C 0.97721 0.50464 0.47348 0.0
C167 C 0.9766 0.51521 0.45786 0.0
C168 C 0.99448 0.53244 0.45769 0.0
C169 C 0.00496 0.53141 0.47338 0.0
N170 N 0.02779 0.52934 0.50694 0.0
C171 C 0.03506 0.54536 0.4949 0.0
C172 C 0.05362 0.56033 0.50064 0.0
C173 C 0.05841 0.55343 0.51666 0.0
C174 C 0.04254 0.53477 0.51987 0.0
N175 N 0.0096 0.49297 0.52924 0.0
C176 C 0.02691 0.50229 0.53896 0.0
C177 C 0.02789 0.49137 0.55404 0.0
C178 C 0.01015 0.47402 0.55403 0.0
C179 C 0.99933 0.47535 0.53882 0.0
N180 N 0.01386 0.49347 0.48884 0.0
C181 C 0.03137 0.47981 0.46357 0.0
C182 C 0.04156 0.49051 0.47962 0.0
C183 C 0.03263 0.49714 0.49192 0.0
C184 C 0.01217 0.47594 0.46047 0.0
C185 C 0.00377 0.48284 0.47318 0.0
N186 N 0.98987 0.5137 0.52411 0.0
C187 C 0.99075 0.52925 0.55369 0.0
C188 C 0.97263 0.52761 0.54952 0.0
C189 C 0.96329 0.51884 0.53237 0.0
C190 C 0.97206 0.51202 0.52001 0.0
C191 C 0.99904 0.52236 0.5409 0.0
H192 H 0.96414 0.50546 0.50724 0.0
H193 H 0.01284 0.52414 0.54501 0.0
H194 H 0.04123 0.50522 0.50384 0.0
H195 H 0.98915 0.47948 0.46998 0.0
C196 C 0.96211 0.48565 0.47891 0.0
C197 C 0.97912 0.45977 0.53453 0.0
C198 C 0.02517 0.54699 0.47774 0.0
C199 C 0.04155 0.52166 0.53422 0.0
H200 H 0.94046 0.43287 0.51982 0.0
H201 H 0.93085 0.44695 0.48943 0.0
H202 H 0.9647 0.5108 0.44763 0.0
H203 H 0.99934 0.54429 0.44704 0.0
H204 H 0.06286 0.57471 0.49383 0.0
H205 H 0.072 0.56098 0.52481 0.0
H206 H 0.03992 0.49567 0.56409 0.0
H207 H 0.00558 0.4619 0.56428 0.0
H208 H 0.05633 0.4936 0.48289 0.0
H209 H 0.00371 0.46784 0.44815 0.0
H210 H 0.99847 0.53562 0.56693 0.0
H211 H 0.94936 0.51742 0.5283 0.0
C212 C 0.4884 0.00316 0.0526 0.0
C213 C 0.49347 0.01081 0.07085 0.0
C214 C 0.51039 0.02889 0.06865 0.0
C215 C 0.51538 0.03067 0.04948 0.0
N216 N 0.50303 0.01459 0.03958 0.0
Co217 Co 0.50835 0.008 0.01364 0.0
N218 N 0.53236 0.03492 0.00947 0.0
C219 C 0.53929 0.04998 0.02154 0.0
C220 C 0.55582 0.06682 0.01456 0.0
C221 C 0.55975 0.06221 0.99704 0.0
C222 C 0.54541 0.04269 0.99443 0.0
N223 N 0.51386 0.00113 0.98786 0.0
C224 C 0.529 0.01196 0.9751 0.0
C225 C 0.52762 0.00132 0.95916 0.0
C226 C 0.51107 0.98313 0.96198 0.0
C227 C 0.50335 0.98363 0.97943 0.0
N228 N 0.48399 0.98129 0.01775 0.0
C229 C 0.47745 0.96582 0.00635 0.0
C230 C 0.46241 0.94864 0.01461 0.0
C231 C 0.45866 0.95367 0.032 0.0
C232 C 0.471 0.97384 0.03288 0.0
N233 N 0.49199 0.01717 0.00121 0.0
C234 C 0.47351 0.0333 0.97956 0.0
C235 C 0.47058 0.01512 0.97523 0.0
C236 C 0.47972 0.00727 0.9863 0.0
C237 C 0.48464 0.04256 0.99583 0.0
C238 C 0.49361 0.03422 0.00647 0.0
N239 N 0.525 0.99885 0.02619 0.0
C240 C 0.53069 0.97268 0.03434 0.0
C241 C 0.54506 0.98411 0.04776 0.0
C242 C 0.55023 0.00351 0.04916 0.0
C243 C 0.54023 0.01055 0.03824 0.0
C244 C 0.5212 0.98036 0.02362 0.0
H245 H 0.5451 0.02547 0.03997 0.0
H246 H 0.51072 0.97088 0.01354 0.0
H247 H 0.47703 0.99339 0.98231 0.0
H248 H 0.50224 0.04201 0.0186 0.0
C249 C 0.53138 0.04713 0.04023 0.0
C250 C 0.46935 0.98577 0.04746 0.0
C251 C 0.54543 0.03194 0.97791 0.0
C252 C 0.48667 0.96774 0.98856 0.0
H253 H 0.48579 0.00412 0.08441 0.0
H254 H 0.51823 0.03935 0.07973 0.0
H255 H 0.56442 0.08059 0.02166 0.0
H256 H 0.57208 0.07195 0.9875 0.0
H257 H 0.53771 0.00606 0.9469 0.0
H258 H 0.50556 0.97087 0.9526 0.0
H259 H 0.4552 0.93417 0.00881 0.0
H260 H 0.44767 0.94368 0.04257 0.0
H261 H 0.46151 0.0071 0.96315 0.0
H262 H 0.48712 0.05655 0.9999 0.0
H263 H 0.52623 0.95759 0.03245 0.0
H264 H 0.56187 0.01327 0.05876 0.0
C265 C 0.51688 0.54488 0.50032 0.0
C266 C 0.51367 0.55952 0.50557 0.0
C267 C 0.50111 0.55233 0.52118 0.0
C268 C 0.49736 0.5338 0.52453 0.0
N269 N 0.50674 0.52865 0.51201 0.0
Co270 Co 0.5054 0.50301 0.51166 0.0
N271 N 0.48687 0.49245 0.53463 0.0
C272 C 0.47927 0.50156 0.54411 0.0
C273 C 0.46741 0.4909 0.55963 0.0
C274 C 0.46749 0.47398 0.56021 0.0
C275 C 0.4794 0.47528 0.54488 0.0
N276 N 0.50435 0.47751 0.51155 0.0
C277 C 0.49537 0.46183 0.52408 0.0
C278 C 0.49866 0.44722 0.51893 0.0
C279 C 0.51044 0.45402 0.50276 0.0
C280 C 0.51361 0.47228 0.49894 0.0
N281 N 0.52372 0.51346 0.48853 0.0
C282 C 0.53055 0.504 0.47846 0.0
C283 C 0.54277 0.51485 0.4632 0.0
C284 C 0.54377 0.5323 0.46345 0.0
C285 C 0.53201 0.53103 0.4789 0.0
N286 N 0.52857 0.51352 0.52906 0.0
C287 C 0.56123 0.52797 0.55409 0.0
C288 C 0.56059 0.51842 0.53738 0.0
C289 C 0.54428 0.51139 0.52518 0.0
C290 C 0.54527 0.53025 0.55797 0.0
C291 C 0.52924 0.52298 0.54539 0.0
N292 N 0.4822 0.49252 0.49415 0.0
C293 C 0.46509 0.47489 0.46573 0.0
C294 C 0.45041 0.47933 0.46815 0.0
C295 C 0.45168 0.49017 0.48399 0.0
C296 C 0.46747 0.49643 0.49678 0.0
C297 C 0.48072 0.48161 0.47873 0.0
H298 H 0.46746 0.50451 0.5086 0.0
H299 H 0.49152 0.47795 0.47583 0.0
H300 H 0.54466 0.50418 0.51274 0.0
H301 H 0.51756 0.52518 0.54918 0.0
C302 C 0.48471 0.5207 0.539 0.0
C303 C 0.52932 0.54697 0.48387 0.0
C304 C 0.48384 0.4602 0.54116 0.0
C305 C 0.52551 0.48503 0.48389 0.0
H306 H 0.51964 0.57387 0.49872 0.0
H307 H 0.49526 0.55967 0.52904 0.0
H308 H 0.46005 0.49516 0.56967 0.0
H309 H 0.45998 0.46224 0.571 0.0
H310 H 0.49324 0.43315 0.52621 0.0
H311 H 0.51621 0.44664 0.49486 0.0
H312 H 0.55013 0.51062 0.45315 0.0
H313 H 0.55225 0.54459 0.45341 0.0
H314 H 0.57247 0.51606 0.53383 0.0
H315 H 0.54518 0.53781 0.57058 0.0
H316 H 0.4648 0.46664 0.45356 0.0
H317 H 0.44047 0.49372 0.48661 0.0
C318 C 0.12922 0.38709 0.37423 0.0
C319 C 0.13375 0.40511 0.36177 0.0
C320 C 0.14321 0.40409 0.32906 0.0
C321 C 0.15861 0.4234 0.325 0.0
C322 C 0.17416 0.42751 0.31227 0.0
C323 C 0.17437 0.4119 0.30367 0.0
C324 C 0.15834 0.39242 0.30715 0.0
C325 C 0.14275 0.3888 0.31962 0.0
C326 C 0.19071 0.44848 0.30855 0.0
C327 C 0.15812 0.3754 0.29836 0.0
C328 C 0.31157 0.42677 0.35971 0.0
C329 C 0.29337 0.41855 0.34777 0.0
C330 C 0.27295 0.42899 0.33099 0.0
C331 C 0.2601 0.41091 0.32262 0.0
C332 C 0.2447 0.40844 0.31049 0.0
C333 C 0.24235 0.42447 0.30633 0.0
C334 C 0.25547 0.44275 0.31448 0.0
C335 C 0.27051 0.44471 0.32682 0.0
C336 C 0.23082 0.38866 0.30225 0.0
C337 C 0.25351 0.46019 0.31027 0.0
C338 C 0.2801 0.42989 0.18277 0.0
C339 C 0.26444 0.41146 0.18957 0.0
C340 C 0.24778 0.40954 0.1989 0.0
C341 C 0.24677 0.42636 0.2016 0.0
C342 C 0.26233 0.44486 0.19455 0.0
C343 C 0.27877 0.44635 0.18516 0.0
C344 C 0.23132 0.38955 0.20608 0.0
C345 C 0.2617 0.46307 0.1972 0.0
C346 C 0.09848 0.39625 0.18021 0.0
C347 C 0.11799 0.4142 0.17288 0.0
C348 C 0.14709 0.4116 0.17706 0.0
C349 C 0.15031 0.39622 0.17988 0.0
C350 C 0.1664 0.39858 0.19079 0.0
C351 C 0.17985 0.41699 0.19857 0.0
C352 C 0.17721 0.43291 0.19487 0.0
C353 C 0.16076 0.43001 0.18422 0.0
C354 C 0.16885 0.38133 0.19426 0.0
C355 C 0.19168 0.45293 0.20229 0.0
C356 C 0.19219 0.4158 0.29261 0.0
C357 C 0.20844 0.41831 0.30318 0.0
C358 C 0.22579 0.42195 0.29399 0.0
C359 C 0.22703 0.423 0.27359 0.0
C360 C 0.24423 0.42659 0.26385 0.0
C361 C 0.24515 0.42716 0.24378 0.0
C362 C 0.22897 0.42438 0.23266 0.0
C363 C 0.22963 0.42459 0.21225 0.0
C364 C 0.21353 0.42234 0.20161 0.0
C365 C 0.19648 0.4195 0.2108 0.0
C366 C 0.19532 0.41874 0.23123 0.0
C367 C 0.17821 0.41542 0.24099 0.0
C368 C 0.1772 0.41462 0.26108 0.0
C369 C 0.19318 0.41692 0.27219 0.0
C370 C 0.21063 0.42041 0.26266 0.0
C371 C 0.21166 0.42124 0.24217 0.0
C372 C 0.30938 0.41467 0.19049 0.0
C373 C 0.30195 0.41877 0.17148 0.0
O374 O 0.1292 0.39991 0.34271 0.0
O375 O 0.13079 0.40833 0.16721 0.0
O376 O 0.29676 0.43257 0.17401 0.0
O377 O 0.28772 0.43186 0.34319 0.0
H378 H 0.14998 0.41592 0.36325 0.0
H379 H 0.13879 0.38164 0.36949 0.0
H380 H 0.11345 0.37512 0.37288 0.0
H381 H 0.13235 0.3909 0.38964 0.0
H382 H 0.15861 0.43519 0.33212 0.0
H383 H 0.13065 0.37394 0.32282 0.0
H384 H 0.20422 0.45109 0.3162 0.0
H385 H 0.18678 0.45898 0.3137 0.0
H386 H 0.1944 0.45143 0.29288 0.0
H387 H 0.1449 0.3611 0.30304 0.0
H388 H 0.17174 0.37544 0.30248 0.0
H389 H 0.15816 0.37687 0.28238 0.0
H390 H 0.28078 0.40402 0.35309 0.0
H391 H 0.30649 0.41809 0.37383 0.0
H392 H 0.31385 0.44057 0.36592 0.0
H393 H 0.33246 0.42656 0.34145 0.0
H394 H 0.26184 0.3986 0.32562 0.0
H395 H 0.2805 0.4586 0.33328 0.0
H396 H 0.21517 0.38379 0.3058 0.0
H397 H 0.23384 0.37737 0.30783 0.0
H398 H 0.23238 0.38976 0.28628 0.0
H399 H 0.26609 0.47385 0.31608 0.0
H400 H 0.23948 0.45746 0.31686 0.0
H401 H 0.25273 0.46236 0.29444 0.0
H402 H 0.28884 0.40496 0.16652 0.0
H403 H 0.26508 0.3985 0.18781 0.0
H404 H 0.29084 0.46048 0.17984 0.0
H405 H 0.23039 0.3892 0.22209 0.0
H406 H 0.23368 0.37774 0.20174 0.0
H407 H 0.21683 0.38649 0.20042 0.0
H408 H 0.27515 0.47643 0.19115 0.0
H409 H 0.26038 0.46494 0.21281 0.0
H410 H 0.24838 0.46153 0.19001 0.0
H411 H 0.12426 0.42428 0.18512 0.0
H412 H 0.08797 0.4006 0.18487 0.0
H413 H 0.10141 0.38923 0.1928 0.0
H414 H 0.09146 0.38537 0.16875 0.0
H415 H 0.13982 0.38216 0.17398 0.0
H416 H 0.15867 0.44213 0.18135 0.0
H417 H 0.17 0.37897 0.20998 0.0
H418 H 0.18284 0.38443 0.18725 0.0
H419 H 0.15629 0.36766 0.18845 0.0
H420 H 0.18876 0.46421 0.19643 0.0
H421 H 0.20714 0.45738 0.19842 0.0
H422 H 0.19057 0.45245 0.21829 0.0
H423 H 0.20756 0.41739 0.31885 0.0
H424 H 0.25714 0.42885 0.27165 0.0
H425 H 0.25872 0.42984 0.23709 0.0
H426 H 0.21419 0.42258 0.18596 0.0
H427 H 0.16537 0.41335 0.23321 0.0
H428 H 0.16369 0.41208 0.26782 0.0
H429 H 0.3138 0.40383 0.18838 0.0
H430 H 0.2975 0.40859 0.20175 0.0
H431 H 0.32237 0.42836 0.19581 0.0
C432 C 0.8607 0.26584 0.87077 0.0
C433 C 0.87388 0.27975 0.85419 0.0
C434 C 0.85034 0.26524 0.82754 0.0
C435 C 0.85248 0.24914 0.8251 0.0
C436 C 0.8394 0.23375 0.81341 0.0
C437 C 0.82373 0.23433 0.80411 0.0
C438 C 0.82173 0.25065 0.80626 0.0
C439 C 0.83527 0.26602 0.81775 0.0
C440 C 0.84214 0.21669 0.81122 0.0
C441 C 0.80507 0.25168 0.79677 0.0
C442 C 0.71099 0.09154 0.83648 0.0
C443 C 0.71406 0.10835 0.84883 0.0
C444 C 0.731 0.13787 0.82726 0.0
C445 C 0.72864 0.15206 0.81765 0.0
C446 C 0.74427 0.16757 0.80691 0.0
C447 C 0.76269 0.16871 0.8055 0.0
C448 C 0.76527 0.15444 0.81522 0.0
C449 C 0.74942 0.13919 0.82609 0.0
C450 C 0.74107 0.18269 0.79699 0.0
C451 C 0.78472 0.15525 0.81398 0.0
C452 C 0.73682 0.13306 0.68309 0.0
C453 C 0.73296 0.14725 0.68904 0.0
C454 C 0.74772 0.16411 0.69802 0.0
C455 C 0.76665 0.1667 0.7012 0.0
C456 C 0.77078 0.15276 0.6945 0.0
C457 C 0.75583 0.1362 0.68529 0.0
C458 C 0.74301 0.17903 0.70433 0.0
C459 C 0.79084 0.15513 0.69748 0.0
C460 C 0.89992 0.29997 0.68653 0.0
C461 C 0.8889 0.2928 0.66741 0.0
C462 C 0.85509 0.26811 0.67918 0.0
C463 C 0.83622 0.26489 0.68269 0.0
C464 C 0.8216 0.24797 0.69277 0.0
C465 C 0.82597 0.23381 0.69935 0.0
C466 C 0.84482 0.23661 0.6953 0.0
C467 C 0.85923 0.25375 0.68529 0.0
C468 C 0.8016 0.24539 0.69673 0.0
C469 C 0.84982 0.22163 0.70189 0.0
C470 C 0.80893 0.21742 0.79292 0.0
C471 C 0.79355 0.20133 0.80319 0.0
C472 C 0.77916 0.18479 0.79374 0.0
C473 C 0.78012 0.18411 0.77344 0.0
C474 C 0.76616 0.16749 0.76352 0.0
C475 C 0.76686 0.16718 0.74349 0.0
C476 C 0.78145 0.18352 0.73257 0.0
C477 C 0.78185 0.1836 0.71215 0.0
C478 C 0.79663 0.20006 0.70177 0.0
C479 C 0.81113 0.21656 0.71124 0.0
C480 C 0.811 0.21674 0.73165 0.0
C481 C 0.82541 0.23307 0.74164 0.0
C482 C 0.82497 0.23322 0.76171 0.0
C483 C 0.80991 0.21719 0.77255 0.0
C484 C 0.79538 0.20048 0.76279 0.0
C485 C 0.79599 0.20022 0.74233 0.0
C486 C 0.70026 0.08573 0.69083 0.0
C487 C 0.70313 0.10464 0.68166 0.0
O488 O 0.8622 0.2801 0.83934 0.0
O489 O 0.86875 0.28529 0.67009 0.0
O490 O 0.7226 0.11633 0.67499 0.0
O491 O 0.71505 0.12322 0.83721 0.0
H492 H 0.88364 0.27481 0.84868 0.0
H493 H 0.85146 0.25065 0.8658 0.0
H494 H 0.85068 0.27046 0.87627 0.0
H495 H 0.87 0.26575 0.88281 0.0
H496 H 0.86421 0.24836 0.83231 0.0
H497 H 0.83378 0.27853 0.81961 0.0
H498 H 0.82966 0.20348 0.81862 0.0
H499 H 0.85631 0.21944 0.8175 0.0
H500 H 0.84186 0.21348 0.79572 0.0
H501 H 0.8048 0.26476 0.80091 0.0
H502 H 0.79055 0.23836 0.80078 0.0
H503 H 0.80675 0.25216 0.78083 0.0
H504 H 0.72805 0.11405 0.8571 0.0
H505 H 0.70997 0.07954 0.84584 0.0
H506 H 0.72366 0.09666 0.82626 0.0
H507 H 0.69716 0.0857 0.82798 0.0
H508 H 0.71441 0.15093 0.81865 0.0
H509 H 0.75155 0.12836 0.83343 0.0
H510 H 0.74169 0.1817 0.7811 0.0
H511 H 0.75308 0.19761 0.80083 0.0
H512 H 0.7265 0.18069 0.80093 0.0
H513 H 0.78397 0.14235 0.82128 0.0
H514 H 0.79655 0.16868 0.8208 0.0
H515 H 0.78909 0.15605 0.79861 0.0
H516 H 0.69988 0.11194 0.69316 0.0
H517 H 0.71846 0.14522 0.68659 0.0
H518 H 0.75873 0.1253 0.6803 0.0
H519 H 0.7425 0.17887 0.72035 0.0
H520 H 0.7285 0.17606 0.69879 0.0
H521 H 0.75486 0.19394 0.69926 0.0
H522 H 0.79143 0.14258 0.69211 0.0
H523 H 0.79445 0.15659 0.71309 0.0
H524 H 0.80246 0.16873 0.68982 0.0
H525 H 0.89116 0.2813 0.66182 0.0
H526 H 0.91612 0.30641 0.68424 0.0
H527 H 0.89457 0.28767 0.69732 0.0
H528 H 0.8975 0.31121 0.69255 0.0
H529 H 0.8331 0.27595 0.6778 0.0
H530 H 0.87366 0.25582 0.68249 0.0
H531 H 0.79877 0.24402 0.71256 0.0
H532 H 0.78972 0.23167 0.69036 0.0
H533 H 0.80057 0.2578 0.69071 0.0
H534 H 0.86459 0.22524 0.69643 0.0
H535 H 0.83832 0.20695 0.69692 0.0
H536 H 0.84983 0.22074 0.71792 0.0
H537 H 0.79269 0.20174 0.81878 0.0
H538 H 0.75449 0.15455 0.77114 0.0
H539 H 0.75568 0.154 0.73667 0.0
H540 H 0.79675 0.20011 0.6861 0.0
H541 H 0.83721 0.24595 0.73406 0.0
H542 H 0.83647 0.24617 0.76861 0.0
H543 H 0.68475 0.07613 0.69634 0.0
H544 H 0.7105 0.08922 0.70317 0.0
H545 H 0.70348 0.07771 0.68018 0.0
C546 C 0.64392 0.72829 0.35821 0.0
C547 C 0.62412 0.7247 0.36607 0.0
C548 C 0.61029 0.73694 0.34144 0.0
C549 C 0.59336 0.73135 0.33051 0.0
C550 C 0.591 0.74522 0.32004 0.0
C551 C 0.60653 0.76517 0.31974 0.0
C552 C 0.62378 0.77096 0.33078 0.0
C553 C 0.62533 0.75683 0.34179 0.0
C554 C 0.57191 0.73845 0.30928 0.0
C555 C 0.6407 0.79204 0.3309 0.0
C556 C 0.60851 0.8645 0.38124 0.0
C557 C 0.60351 0.87354 0.36395 0.0
C558 C 0.59265 0.84722 0.34089 0.0
C559 C 0.61168 0.85113 0.33603 0.0
C560 C 0.61397 0.83827 0.32472 0.0
C561 C 0.59693 0.82112 0.31822 0.0
C562 C 0.57779 0.8173 0.3228 0.0
C563 C 0.57592 0.83052 0.33395 0.0
C564 C 0.63462 0.84293 0.31984 0.0
C565 C 0.55932 0.79915 0.31608 0.0
C566 C 0.59864 0.85437 0.1929 0.0
C567 C 0.61671 0.85942 0.20175 0.0
C568 C 0.61889 0.84523 0.21181 0.0
C569 C 0.60255 0.8257 0.21347 0.0
C570 C 0.58448 0.82051 0.2043 0.0
C571 C 0.58287 0.83491 0.19393 0.0
C572 C 0.63861 0.85117 0.22087 0.0
C573 C 0.56675 0.79984 0.20576 0.0
C574 C 0.63371 0.70991 0.20184 0.0
C575 C 0.61657 0.71189 0.19443 0.0
C576 C 0.62005 0.74374 0.19647 0.0
C577 C 0.63558 0.76305 0.19862 0.0
C578 C 0.63251 0.77642 0.20807 0.0
C579 C 0.61326 0.77037 0.21505 0.0
C580 C 0.59724 0.75111 0.21195 0.0
C581 C 0.60083 0.73795 0.20275 0.0
C582 C 0.64989 0.79687 0.21098 0.0
C583 C 0.57639 0.74437 0.21857 0.0
C584 C 0.60476 0.77991 0.30783 0.0
C585 C 0.60115 0.79283 0.31731 0.0
C586 C 0.59926 0.80701 0.30702 0.0
C587 C 0.60033 0.80801 0.28662 0.0
C588 C 0.59788 0.82169 0.2758 0.0
C589 C 0.59893 0.82253 0.25572 0.0
C590 C 0.60279 0.80993 0.24569 0.0
C591 C 0.60423 0.81089 0.22528 0.0
C592 C 0.60762 0.79784 0.21576 0.0
C593 C 0.60998 0.78397 0.22608 0.0
C594 C 0.60916 0.78316 0.24651 0.0
C595 C 0.61226 0.76991 0.25737 0.0
C596 C 0.6111 0.769 0.27744 0.0
C597 C 0.6066 0.78115 0.28745 0.0
C598 C 0.60402 0.79503 0.27681 0.0
C599 C 0.60531 0.79603 0.25632 0.0
C600 C 0.60334 0.89372 0.20437 0.0
C601 C 0.60682 0.88787 0.18464 0.0
O602 O 0.61157 0.72262 0.35106 0.0
O603 O 0.62404 0.73111 0.18817 0.0
O604 O 0.59569 0.86768 0.18335 0.0
O605 O 0.58971 0.85895 0.3523 0.0
H606 H 0.62722 0.73734 0.37483 0.0
H607 H 0.65199 0.74228 0.34966 0.0
H608 H 0.64148 0.7164 0.34871 0.0
H609 H 0.65356 0.72914 0.37036 0.0
H610 H 0.58178 0.71599 0.33041 0.0
H611 H 0.63847 0.76147 0.35032 0.0
H612 H 0.56683 0.74885 0.3108 0.0
H613 H 0.55986 0.72368 0.3145 0.0
H614 H 0.57446 0.73773 0.29369 0.0
H615 H 0.65434 0.7936 0.33731 0.0
H616 H 0.6362 0.80049 0.33954 0.0
H617 H 0.64427 0.79863 0.31601 0.0
H618 H 0.61726 0.88359 0.35542 0.0
H619 H 0.61941 0.87614 0.3907 0.0
H620 H 0.61522 0.85623 0.37629 0.0
H621 H 0.59486 0.85433 0.38983 0.0
H622 H 0.62483 0.86409 0.34102 0.0
H623 H 0.56132 0.82766 0.33766 0.0
H624 H 0.63685 0.83144 0.32638 0.0
H625 H 0.64637 0.85735 0.32514 0.0
H626 H 0.63638 0.84294 0.30395 0.0
H627 H 0.54549 0.79817 0.32105 0.0
H628 H 0.55921 0.78595 0.32156 0.0
H629 H 0.55939 0.79905 0.30006 0.0
H630 H 0.62287 0.89333 0.18266 0.0
H631 H 0.62919 0.87434 0.20091 0.0
H632 H 0.56905 0.83112 0.18695 0.0
H633 H 0.63718 0.85098 0.23681 0.0
H634 H 0.65059 0.86607 0.2159 0.0
H635 H 0.64309 0.84062 0.21742 0.0
H636 H 0.55336 0.79848 0.19893 0.0
H637 H 0.56325 0.79486 0.22116 0.0
H638 H 0.57033 0.78991 0.19858 0.0
H639 H 0.60603 0.70776 0.20682 0.0
H640 H 0.6281 0.69462 0.20704 0.0
H641 H 0.64097 0.71972 0.21407 0.0
H642 H 0.64502 0.71401 0.19024 0.0
H643 H 0.6503 0.76743 0.19341 0.0
H644 H 0.58862 0.7232 0.20037 0.0
H645 H 0.6514 0.80007 0.22658 0.0
H646 H 0.6472 0.80761 0.20334 0.0
H647 H 0.6641 0.79899 0.20554 0.0
H648 H 0.56527 0.72973 0.21322 0.0
H649 H 0.57231 0.75505 0.2135 0.0
H650 H 0.57567 0.74361 0.23459 0.0
H651 H 0.59999 0.79197 0.33296 0.0
H652 H 0.59498 0.83183 0.28273 0.0
H653 H 0.59671 0.83323 0.24817 0.0
H654 H 0.60851 0.79855 0.2001 0.0
H655 H 0.61563 0.76009 0.25048 0.0
H656 H 0.61372 0.75857 0.285 0.0
H657 H 0.58732 0.8883 0.20656 0.0
H658 H 0.6121 0.90989 0.20545 0.0
H659 H 0.6081 0.88742 0.21615 0.0
C660 C 0.75082 0.59705 0.89438 0.0
C661 C 0.73721 0.59751 0.87876 0.0
C662 C 0.75089 0.59012 0.85082 0.0
C663 C 0.76751 0.60903 0.84726 0.0
C664 C 0.7828 0.6122 0.83462 0.0
C665 C 0.78164 0.59611 0.82559 0.0
C666 C 0.76483 0.57708 0.82901 0.0
C667 C 0.74951 0.57443 0.84131 0.0
C668 C 0.80035 0.63274 0.83111 0.0
C669 C 0.76324 0.55947 0.82006 0.0
C670 C 0.89286 0.62401 0.89389 0.0
C671 C 0.88885 0.6072 0.88109 0.0
C672 C 0.87908 0.61125 0.849 0.0
C673 C 0.86309 0.59246 0.84531 0.0
C674 C 0.84792 0.58982 0.8328 0.0
C675 C 0.84873 0.60639 0.82399 0.0
C676 C 0.86524 0.62535 0.82722 0.0
C677 C 0.88042 0.6275 0.83949 0.0
C678 C 0.83078 0.56938 0.82935 0.0
C679 C 0.86651 0.64336 0.81828 0.0
C680 C 0.87887 0.61137 0.69696 0.0
C681 C 0.86561 0.59309 0.70585 0.0
C682 C 0.84923 0.59014 0.71667 0.0
C683 C 0.84637 0.60595 0.7189 0.0
C684 C 0.85957 0.6243 0.70961 0.0
C685 C 0.87548 0.62664 0.69847 0.0
C686 C 0.83499 0.57014 0.72566 0.0
C687 C 0.85698 0.64147 0.71151 0.0
C688 C 0.71813 0.60948 0.70384 0.0
C689 C 0.72501 0.6035 0.68617 0.0
C690 C 0.74637 0.59268 0.70072 0.0
C691 C 0.74728 0.57626 0.70609 0.0
C692 C 0.76365 0.57809 0.71604 0.0
C693 C 0.77957 0.59688 0.72067 0.0
C694 C 0.77895 0.61363 0.71504 0.0
C695 C 0.76237 0.61139 0.70513 0.0
C696 C 0.76386 0.55994 0.72181 0.0
C697 C 0.79574 0.63389 0.71971 0.0
C698 C 0.79851 0.59906 0.81347 0.0
C699 C 0.81523 0.6014 0.82295 0.0
C700 C 0.83161 0.60394 0.81266 0.0
C701 C 0.83132 0.60396 0.79225 0.0
C702 C 0.84742 0.60623 0.78144 0.0
C703 C 0.84699 0.60626 0.76135 0.0
C704 C 0.83031 0.6037 0.7513 0.0
C705 C 0.82958 0.60336 0.73089 0.0
C706 C 0.81281 0.60095 0.72141 0.0
C707 C 0.79671 0.59902 0.73172 0.0
C708 C 0.79713 0.59925 0.75213 0.0
C709 C 0.78119 0.59737 0.76294 0.0
C710 C 0.78168 0.5975 0.78302 0.0
C711 C 0.79806 0.59936 0.79306 0.0
C712 C 0.81445 0.60161 0.78243 0.0
C713 C 0.81396 0.6015 0.76194 0.0
C714 C 0.92801 0.62733 0.69582 0.0
C715 C 0.90794 0.60893 0.69177 0.0
O716 O 0.73603 0.5863 0.86342 0.0
O717 O 0.72978 0.58969 0.69153 0.0
O718 O 0.89471 0.61457 0.68635 0.0
O719 O 0.89312 0.61401 0.86201 0.0
H720 H 0.74317 0.61286 0.87357 0.0
H721 H 0.76612 0.60337 0.88854 0.0
H722 H 0.74514 0.58175 0.8996 0.0
H723 H 0.75168 0.60583 0.9068 0.0
H724 H 0.76872 0.62141 0.85426 0.0
H725 H 0.73661 0.55992 0.84407 0.0
H726 H 0.81365 0.63413 0.83818 0.0
H727 H 0.79774 0.64391 0.83695 0.0
H728 H 0.80371 0.63588 0.8154 0.0
H729 H 0.75033 0.54551 0.82587 0.0
H730 H 0.77701 0.55928 0.82266 0.0
H731 H 0.76158 0.5603 0.8042 0.0
H732 H 0.8728 0.59569 0.88296 0.0
H733 H 0.88956 0.61884 0.90927 0.0
H734 H 0.88317 0.62963 0.88954 0.0
H735 H 0.90862 0.63623 0.89245 0.0
H736 H 0.86243 0.57989 0.85237 0.0
H737 H 0.89298 0.64194 0.84236 0.0
H738 H 0.8279 0.56733 0.81364 0.0
H739 H 0.81714 0.56717 0.83638 0.0
H740 H 0.83357 0.55803 0.83524 0.0
H741 H 0.87993 0.65708 0.82289 0.0
H742 H 0.8531 0.64365 0.82232 0.0
H743 H 0.86687 0.64292 0.8023 0.0
H744 H 0.90286 0.59969 0.70535 0.0
H745 H 0.86787 0.58106 0.70405 0.0
H746 H 0.88567 0.6406 0.69124 0.0
H747 H 0.83661 0.57065 0.74158 0.0
H748 H 0.83774 0.55885 0.72043 0.0
H749 H 0.81941 0.56567 0.72244 0.0
H750 H 0.8698 0.65527 0.7053 0.0
H751 H 0.85508 0.64353 0.72694 0.0
H752 H 0.84335 0.63851 0.70385 0.0
H753 H 0.73823 0.61662 0.67942 0.0
H754 H 0.71404 0.62033 0.69947 0.0
H755 H 0.73018 0.61629 0.71457 0.0
H756 H 0.70505 0.59651 0.71092 0.0
H757 H 0.73493 0.56191 0.70261 0.0
H758 H 0.76206 0.62431 0.70103 0.0
H759 H 0.76484 0.55894 0.73776 0.0
H760 H 0.7772 0.56084 0.7155 0.0
H761 H 0.75039 0.54637 0.717 0.0
H762 H 0.79324 0.6455 0.71399 0.0
H763 H 0.8099 0.63652 0.71354 0.0
H764 H 0.79748 0.63508 0.7356 0.0
H765 H 0.81549 0.6012 0.83862 0.0
H766 H 0.86056 0.60805 0.78839 0.0
H767 H 0.85989 0.60822 0.7538 0.0
H768 H 0.81235 0.60075 0.70575 0.0
H769 H 0.76813 0.59576 0.75602 0.0
H770 H 0.76902 0.59605 0.79058 0.0
H771 H 0.93403 0.63695 0.68258 0.0
H772 H 0.93888 0.62342 0.70089 0.0
H773 H 0.92619 0.63562 0.70728 0.0
C774 C 0.14433 0.74264 0.38219 0.0
C775 C 0.13675 0.7276 0.36628 0.0
C776 C 0.16469 0.74425 0.34292 0.0
C777 C 0.16091 0.75873 0.33633 0.0
C778 C 0.17435 0.77416 0.32382 0.0
C779 C 0.19187 0.77512 0.31769 0.0
C780 C 0.19547 0.76032 0.32388 0.0
C781 C 0.18176 0.74503 0.33634 0.0
C782 C 0.17 0.78964 0.31735 0.0
C783 C 0.214 0.76089 0.31759 0.0
C784 C 0.27311 0.88835 0.38367 0.0
C785 C 0.28634 0.88302 0.3729 0.0
C786 C 0.27508 0.87292 0.34057 0.0
C787 C 0.27812 0.8575 0.33793 0.0
C788 C 0.26586 0.84231 0.32567 0.0
C789 C 0.25004 0.84247 0.31613 0.0
C790 C 0.24726 0.85831 0.3185 0.0
C791 C 0.26011 0.87357 0.33046 0.0
C792 C 0.26951 0.82588 0.32327 0.0
C793 C 0.23033 0.85882 0.30893 0.0
C794 C 0.27886 0.87716 0.18951 0.0
C795 C 0.28426 0.86407 0.19663 0.0
C796 C 0.27063 0.84705 0.20734 0.0
C797 C 0.25129 0.84319 0.21107 0.0
C798 C 0.24568 0.85613 0.20342 0.0
C799 C 0.25951 0.87284 0.1925 0.0
C800 C 0.27688 0.83322 0.2147 0.0
C801 C 0.22513 0.85239 0.20691 0.0
C802 C 0.11837 0.71283 0.19293 0.0
C803 C 0.13341 0.72129 0.17609 0.0
C804 C 0.1653 0.74266 0.19217 0.0
C805 C 0.18317 0.74448 0.19781 0.0
C806 C 0.19738 0.76062 0.20805 0.0
C807 C 0.19355 0.77531 0.21279 0.0
C808 C 0.17556 0.77368 0.20704 0.0
C809 C 0.16162 0.7574 0.19677 0.0
C810 C 0.21642 0.76192 0.21395 0.0
C811 C 0.17104 0.78911 0.21188 0.0
C812 C 0.20689 0.79213 0.30562 0.0
C813 C 0.22104 0.80878 0.3151 0.0
C814 C 0.23565 0.82543 0.30483 0.0
C815 C 0.23624 0.82557 0.28442 0.0
C816 C 0.25077 0.84202 0.27359 0.0
C817 C 0.25095 0.84216 0.2535 0.0
C818 C 0.23685 0.82571 0.24345 0.0
C819 C 0.23691 0.8257 0.22302 0.0
C820 C 0.22275 0.80904 0.21353 0.0
C821 C 0.2083 0.79233 0.22387 0.0
C822 C 0.20789 0.7921 0.24429 0.0
C823 C 0.19345 0.77559 0.25513 0.0
C824 C 0.19308 0.77555 0.27521 0.0
C825 C 0.20717 0.792 0.28523 0.0
C826 C 0.2219 0.8088 0.2746 0.0
C827 C 0.22225 0.80885 0.2541 0.0
C828 C 0.31265 0.92452 0.19348 0.0
C829 C 0.31135 0.90691 0.18419 0.0
O830 O 0.15257 0.72951 0.35574 0.0
O831 O 0.15214 0.72645 0.18251 0.0
O832 O 0.29179 0.89379 0.17928 0.0
O833 O 0.2861 0.88696 0.3533 0.0
H834 H 0.12688 0.72987 0.35649 0.0
H835 H 0.15242 0.75777 0.37585 0.0
H836 H 0.15459 0.74091 0.39188 0.0
H837 H 0.13165 0.74075 0.39091 0.0
H838 H 0.14767 0.75829 0.341 0.0
H839 H 0.18451 0.73375 0.34136 0.0
H840 H 0.18153 0.80397 0.32298 0.0
H841 H 0.15519 0.78623 0.32245 0.0
H842 H 0.17063 0.79117 0.30134 0.0
H843 H 0.21457 0.7482 0.32358 0.0
H844 H 0.22735 0.77457 0.32236 0.0
H845 H 0.21469 0.76098 0.30159 0.0
H846 H 0.28005 0.86707 0.37577 0.0
H847 H 0.27313 0.88531 0.39944 0.0
H848 H 0.25759 0.87944 0.37853 0.0
H849 H 0.27836 0.90407 0.38111 0.0
H850 H 0.29 0.85732 0.34564 0.0
H851 H 0.258 0.88565 0.33261 0.0
H852 H 0.2692 0.82272 0.30775 0.0
H853 H 0.2575 0.81241 0.3308 0.0
H854 H 0.284 0.82931 0.32934 0.0
H855 H 0.22922 0.87131 0.31355 0.0
H856 H 0.21604 0.84499 0.31235 0.0
H857 H 0.23248 0.86007 0.29302 0.0
H858 H 0.31664 0.90017 0.19503 0.0
H859 H 0.299 0.86695 0.19358 0.0
H860 H 0.25541 0.88288 0.18662 0.0
H861 H 0.2771 0.83304 0.23072 0.0
H862 H 0.29185 0.83746 0.20924 0.0
H863 H 0.26594 0.81811 0.21031 0.0
H864 H 0.22359 0.8646 0.2012 0.0
H865 H 0.22161 0.85019 0.22262 0.0
H866 H 0.21402 0.83879 0.1998 0.0
H867 H 0.13391 0.73439 0.16957 0.0
H868 H 0.10332 0.70848 0.18771 0.0
H869 H 0.12254 0.72387 0.20409 0.0
H870 H 0.11777 0.69983 0.19977 0.0
H871 H 0.18592 0.73309 0.1942 0.0
H872 H 0.14792 0.75633 0.19254 0.0
H873 H 0.21764 0.76232 0.22992 0.0
H874 H 0.22935 0.77571 0.20788 0.0
H875 H 0.21727 0.74939 0.20898 0.0
H876 H 0.15633 0.78569 0.20648 0.0
H877 H 0.18269 0.80349 0.20548 0.0
H878 H 0.17127 0.79053 0.22778 0.0
H879 H 0.22065 0.80878 0.33076 0.0
H880 H 0.26208 0.85504 0.28054 0.0
H881 H 0.26235 0.85532 0.24594 0.0
H882 H 0.22286 0.80914 0.19787 0.0
H883 H 0.18222 0.76251 0.2482 0.0
H884 H 0.18159 0.76246 0.2828 0.0
H885 H 0.30741 0.93186 0.18339 0.0
H886 H 0.32822 0.93522 0.19757 0.0
H887 H 0.3032 0.91961 0.20676 0.0
C888 C 0.38657 0.13496 0.63115 0.0
C889 C 0.40398 0.13884 0.64406 0.0
C890 C 0.4012 0.14704 0.67658 0.0
C891 C 0.42073 0.16189 0.68046 0.0
C892 C 0.42453 0.17665 0.69318 0.0
C893 C 0.4084 0.17661 0.70198 0.0
C894 C 0.38868 0.16116 0.69863 0.0
C895 C 0.38536 0.14634 0.68617 0.0
C896 C 0.44575 0.19261 0.69672 0.0
C897 C 0.37111 0.16073 0.70758 0.0
C898 C 0.42628 0.31272 0.64403 0.0
C899 C 0.41773 0.29452 0.65638 0.0
C900 C 0.42829 0.27553 0.67561 0.0
C901 C 0.40929 0.26194 0.68329 0.0
C902 C 0.40617 0.24617 0.69538 0.0
C903 C 0.42238 0.24402 0.70003 0.0
C904 C 0.44157 0.25785 0.6926 0.0
C905 C 0.44425 0.27342 0.68047 0.0
C906 C 0.38552 0.23168 0.70308 0.0
C907 C 0.4592 0.25605 0.69735 0.0
C908 C 0.42678 0.27573 0.82458 0.0
C909 C 0.40829 0.26242 0.81654 0.0
C910 C 0.40547 0.24608 0.8069 0.0
C911 C 0.42156 0.24323 0.80487 0.0
C912 C 0.44011 0.25649 0.8131 0.0
C913 C 0.44238 0.27245 0.82303 0.0
C914 C 0.3853 0.23193 0.79878 0.0
C915 C 0.4576 0.25394 0.81119 0.0
C916 C 0.38501 0.09493 0.82848 0.0
C917 C 0.40326 0.11376 0.83526 0.0
C918 C 0.40167 0.14297 0.82948 0.0
C919 C 0.38652 0.14677 0.82656 0.0
C920 C 0.3898 0.16305 0.81526 0.0
C921 C 0.40891 0.17612 0.80717 0.0
C922 C 0.42455 0.17278 0.8108 0.0
C923 C 0.42073 0.15615 0.82185 0.0
C924 C 0.3728 0.16619 0.81183 0.0
C925 C 0.44529 0.18681 0.80303 0.0
C926 C 0.41213 0.19361 0.71322 0.0
C927 C 0.41544 0.21029 0.70281 0.0
C928 C 0.41915 0.22697 0.71217 0.0
C929 C 0.41951 0.22712 0.73257 0.0
C930 C 0.4233 0.24369 0.74246 0.0
C931 C 0.42332 0.24359 0.76254 0.0
C932 C 0.41951 0.22689 0.77352 0.0
C933 C 0.41902 0.2265 0.79394 0.0
C934 C 0.41567 0.20983 0.80441 0.0
C935 C 0.41254 0.19333 0.79505 0.0
C936 C 0.41257 0.19329 0.77462 0.0
C937 C 0.40911 0.17682 0.7647 0.0
C938 C 0.40916 0.17694 0.74459 0.0
C939 C 0.4124 0.19344 0.73364 0.0
C940 C 0.41601 0.21024 0.74334 0.0
C941 C 0.41607 0.21015 0.76384 0.0
C942 C 0.42069 0.31037 0.81392 0.0
C943 C 0.41885 0.3003 0.83368 0.0
O944 O 0.39735 0.13373 0.66306 0.0
O945 O 0.39758 0.12674 0.84009 0.0
O946 O 0.43031 0.29188 0.83387 0.0
O947 O 0.43185 0.29071 0.66345 0.0
H948 H 0.41515 0.15483 0.64241 0.0
H949 H 0.38083 0.14431 0.63539 0.0
H950 H 0.37423 0.11942 0.6326 0.0
H951 H 0.39152 0.13855 0.61579 0.0
H952 H 0.43294 0.16207 0.67326 0.0
H953 H 0.37034 0.13467 0.68312 0.0
H954 H 0.44879 0.20639 0.68928 0.0
H955 H 0.45654 0.18896 0.69124 0.0
H956 H 0.44817 0.19532 0.71239 0.0
H957 H 0.35671 0.14812 0.7029 0.0
H958 H 0.37159 0.17448 0.70362 0.0
H959 H 0.37183 0.15984 0.72355 0.0
H960 H 0.40457 0.28145 0.6502 0.0
H961 H 0.41991 0.30757 0.62933 0.0
H962 H 0.44179 0.31684 0.63982 0.0
H963 H 0.42046 0.33093 0.65986 0.0
H964 H 0.39681 0.26349 0.67986 0.0
H965 H 0.45886 0.284 0.67457 0.0
H966 H 0.38087 0.21674 0.69863 0.0
H967 H 0.3744 0.23519 0.69788 0.0
H968 H 0.38553 0.23149 0.71911 0.0
H969 H 0.47334 0.26863 0.69136 0.0
H970 H 0.45692 0.24239 0.6914 0.0
H971 H 0.46052 0.25504 0.71326 0.0
H972 H 0.40303 0.28887 0.83673 0.0
H973 H 0.39596 0.26458 0.81772 0.0
H974 H 0.45655 0.28272 0.82934 0.0
H975 H 0.38614 0.23318 0.78276 0.0
H976 H 0.37374 0.23478 0.80368 0.0
H977 H 0.38063 0.21666 0.8031 0.0
H978 H 0.47141 0.26633 0.81715 0.0
H979 H 0.46026 0.25262 0.79576 0.0
H980 H 0.45425 0.24021 0.81897 0.0
H981 H 0.4142 0.11983 0.82305 0.0
H982 H 0.38919 0.08433 0.8243 0.0
H983 H 0.37862 0.09826 0.81568 0.0
H984 H 0.37346 0.08811 0.84009 0.0
H985 H 0.37194 0.13663 0.83281 0.0
H986 H 0.43267 0.1536 0.82477 0.0
H987 H 0.37114 0.16802 0.7961 0.0
H988 H 0.37605 0.17982 0.81869 0.0
H989 H 0.35849 0.15385 0.81781 0.0
H990 H 0.45618 0.18314 0.80863 0.0
H991 H 0.45025 0.20198 0.80692 0.0
H992 H 0.4453 0.18646 0.78703 0.0
H993 H 0.41512 0.21029 0.68714 0.0
H994 H 0.42623 0.25692 0.73477 0.0
H995 H 0.42632 0.25678 0.76935 0.0
H996 H 0.41537 0.20966 0.82007 0.0
H997 H 0.40632 0.16364 0.77236 0.0
H998 H 0.40649 0.16389 0.73773 0.0
H999 H 0.43644 0.32189 0.81072 0.0
H1000 H 0.41155 0.31716 0.81364 0.0
H1001 H 0.41532 0.29958 0.80235 0.0
H1002 H 0.05164 0.46214 0.02357 0.0
H1003 H 0.06656 0.45011 0.04714 0.0
H1004 H 0.07533 0.49461 0.08613 0.0
H1005 H 0.06033 0.50651 0.06262 0.0
H1006 H 0.10481 0.47006 0.0656 0.0
H1007 H 0.04172 0.44249 0.1176 0.0
H1008 H 0.04017 0.44888 0.09269 0.0
H1009 H 0.0527 0.4677 0.10992 0.0
C1010 C 0.05696 0.46938 0.03713 0.0
C1011 C 0.05491 0.48515 0.04145 0.0
C1012 C 0.06544 0.46255 0.05053 0.0
C1013 C 0.07179 0.47133 0.06845 0.0
C1014 C 0.07024 0.48747 0.07249 0.0
H1015 H 0.11552 0.44687 0.17355 0.0
H1016 H 0.10594 0.46146 0.14743 0.0
C1017 C 0.0618 0.4943 0.0591 0.0
C1018 C 0.07948 0.46327 0.08318 0.0
H1019 H 0.06985 0.44191 0.12843 0.0
C1020 C 0.09717 0.46384 0.07933 0.0
C1021 C 0.0694 0.4551 0.10101 0.0
C1022 C 0.04985 0.4533 0.10556 0.0
C1023 C 0.10533 0.45686 0.09309 0.0
C1024 C 0.09533 0.44886 0.11099 0.0
C1025 C 0.07755 0.44817 0.11474 0.0
C1026 C 0.1029 0.44103 0.12613 0.0
C1027 C 0.12479 0.4585 0.08855 0.0
C1028 C 0.10441 0.42474 0.12278 0.0
C1029 C 0.10995 0.41643 0.13767 0.0
C1030 C 0.11409 0.42429 0.15616 0.0
C1031 C 0.11273 0.44071 0.15938 0.0
C1032 C 0.1072 0.449 0.14451 0.0
H1033 H 0.13293 0.46924 0.07645 0.0
H1034 H 0.13448 0.46292 0.1014 0.0
H1035 H 0.12182 0.44404 0.08426 0.0
H1036 H 0.1007 0.41807 0.10885 0.0
H1037 H 0.11049 0.40354 0.1349 0.0
H1038 H 0.55156 0.04654 0.57135 0.0
H1039 H 0.57838 0.06116 0.59504 0.0
H1040 H 0.61654 0.05393 0.55657 0.0
H1041 H 0.58971 0.0394 0.53286 0.0
H1042 H 0.59698 0.0429 0.6124 0.0
H1043 H 0.65152 0.11131 0.57199 0.0
H1044 H 0.62566 0.09684 0.56549 0.0
H1045 H 0.64252 0.0893 0.55897 0.0
C1046 C 0.56579 0.04832 0.56797 0.0
C1047 C 0.56878 0.04207 0.55038 0.0
C1048 C 0.58103 0.05661 0.58144 0.0
C1049 C 0.59952 0.05887 0.57744 0.0
C1050 C 0.60253 0.0527 0.55977 0.0
H1051 H 0.70574 0.09479 0.64452 0.0
H1052 H 0.68078 0.08429 0.61908 0.0
C1053 C 0.58725 0.04436 0.54631 0.0
C1054 C 0.61524 0.06667 0.59222 0.0
H1055 H 0.66269 0.10375 0.601 0.0
C1056 C 0.61131 0.05626 0.60997 0.0
C1057 C 0.63394 0.08405 0.58893 0.0
C1058 C 0.63868 0.09616 0.57039 0.0
C1059 C 0.62569 0.06261 0.62443 0.0
C1060 C 0.64436 0.08002 0.62119 0.0
C1061 C 0.64834 0.09042 0.60343 0.0
C1062 C 0.65994 0.08757 0.6361 0.0
C1063 C 0.62092 0.05038 0.64292 0.0
C1064 C 0.65664 0.09327 0.6539 0.0
C1065 C 0.67087 0.09931 0.66838 0.0
C1066 C 0.68876 0.1 0.66524 0.0
C1067 C 0.69221 0.09467 0.64723 0.0
C1068 C 0.67797 0.08864 0.63274 0.0
H1069 H 0.60806 0.03525 0.64126 0.0
H1070 H 0.63392 0.04961 0.64774 0.0
H1071 H 0.61711 0.05718 0.65442 0.0
H1072 H 0.64293 0.09279 0.65668 0.0
H1073 H 0.66774 0.10314 0.68218 0.0
H1074 H 0.52546 0.56113 0.09073 0.0
H1075 H 0.53784 0.58772 0.11329 0.0
H1076 H 0.57419 0.62919 0.06784 0.0
H1077 H 0.5615 0.60265 0.0451 0.0
H1078 H 0.57536 0.61116 0.12456 0.0
H1079 H 0.54878 0.65655 0.09033 0.0
H1080 H 0.53998 0.63193 0.08324 0.0
H1081 H 0.56361 0.65196 0.07449 0.0
C1082 C 0.53602 0.57594 0.08554 0.0
C1083 C 0.54254 0.57983 0.06618 0.0
C1084 C 0.54303 0.59112 0.09841 0.0
C1085 C 0.55674 0.6105 0.09222 0.0
C1086 C 0.56323 0.61445 0.07285 0.0
H1087 H 0.62801 0.71655 0.1561 0.0
H1088 H 0.61296 0.69243 0.13082 0.0
C1089 C 0.55605 0.59927 0.05989 0.0
C1090 C 0.56509 0.62627 0.10639 0.0
H1091 H 0.57128 0.67049 0.11636 0.0
C1092 C 0.57435 0.62406 0.1228 0.0
C1093 C 0.56386 0.64317 0.10404 0.0
C1094 C 0.55336 0.64601 0.08717 0.0
C1095 C 0.5825 0.6383 0.13684 0.0
C1096 C 0.58124 0.65514 0.13451 0.0
C1097 C 0.57218 0.65752 0.11806 0.0
C1098 C 0.58919 0.67032 0.14919 0.0
C1099 C 0.59265 0.63535 0.15398 0.0
C1100 C 0.5805 0.66596 0.1677 0.0
C1101 C 0.58898 0.6797 0.18209 0.0
C1102 C 0.60619 0.6981 0.17816 0.0
C1103 C 0.61457 0.7026 0.15943 0.0
C1104 C 0.60604 0.68885 0.14503 0.0
H1105 H 0.59607 0.62383 0.15159 0.0
H1106 H 0.60667 0.64918 0.15719 0.0
H1107 H 0.58272 0.63083 0.16686 0.0
H1108 H 0.56741 0.65176 0.17113 0.0
H1109 H 0.58236 0.67577 0.19643 0.0
H1110 H 0.93319 0.51131 0.55906 0.0
H1111 H 0.9187 0.5237 0.58116 0.0
H1112 H 0.97727 0.57231 0.59344 0.0
H1113 H 0.99177 0.5607 0.57064 0.0
H1114 H 0.92332 0.52911 0.6191 0.0
H1115 H 0.94854 0.60021 0.58144 0.0
H1116 H 0.94994 0.58098 0.57038 0.0
H1117 H 0.96901 0.59717 0.5866 0.0
C1118 C 0.94297 0.52485 0.56617 0.0
C1119 C 0.96367 0.53505 0.56295 0.0
C1120 C 0.93466 0.53182 0.57893 0.0
C1121 C 0.94685 0.54913 0.58871 0.0
C1122 C 0.96751 0.55919 0.58571 0.0
H1123 H 0.92373 0.586 0.69527 0.0
H1124 H 0.93116 0.57027 0.66996 0.0
C1125 C 0.97581 0.55234 0.57287 0.0
C1126 C 0.93814 0.55639 0.60254 0.0
H1127 H 0.93839 0.5973 0.61457 0.0
C1128 C 0.9264 0.54395 0.618 0.0
C1129 C 0.94177 0.57559 0.60089 0.0
C1130 C 0.95282 0.58917 0.5838 0.0
C1131 C 0.91888 0.55045 0.63226 0.0
C1132 C 0.92376 0.57012 0.63136 0.0
C1133 C 0.93484 0.58229 0.61547 0.0
C1134 C 0.91814 0.57866 0.64694 0.0
C1135 C 0.90567 0.53606 0.648 0.0
C1136 C 0.90891 0.58917 0.64244 0.0
C1137 C 0.90517 0.59866 0.65682 0.0
C1138 C 0.91029 0.59754 0.67611 0.0
C1139 C 0.9193 0.5868 0.68061 0.0
C1140 C 0.92338 0.57765 0.66617 0.0
H1141 H 0.89776 0.52082 0.64296 0.0
H1142 H 0.91494 0.53678 0.66041 0.0
H1143 H 0.89447 0.53932 0.65308 0.0
H1144 H 0.90488 0.59033 0.62769 0.0
H1145 H 0.89853 0.60707 0.65273 0.0
H1146 H 0.43052 0.95915 0.03471 0.0
H1147 H 0.39997 0.94513 0.05325 0.0
H1148 H 0.4295 0.99029 0.09445 0.0
H1149 H 0.45968 0.00455 0.07592 0.0
H1150 H 0.3961 0.92959 0.09032 0.0
H1151 H 0.3771 0.98656 0.08892 0.0
H1152 H 0.39507 0.98728 0.07242 0.0
H1153 H 0.40223 0.99625 0.09642 0.0
C1154 C 0.43119 0.9655 0.04835 0.0
C1155 C 0.44929 0.98073 0.0558 0.0
C1156 C 0.41326 0.95779 0.05859 0.0
C1157 C 0.41263 0.96599 0.07585 0.0
C1158 C 0.42972 0.98314 0.08157 0.0
H1159 H 0.34905 0.91393 0.18128 0.0
H1160 H 0.37173 0.92689 0.15338 0.0
C1161 C 0.44758 0.99079 0.07129 0.0
C1162 C 0.39487 0.95574 0.08875 0.0
H1163 H 0.36329 0.96274 0.11568 0.0
C1164 C 0.3887 0.93672 0.09561 0.0
C1165 C 0.38504 0.96493 0.09549 0.0
C1166 C 0.39008 0.9848 0.08775 0.0
C1167 C 0.3737 0.92705 0.10977 0.0
C1168 C 0.36488 0.9368 0.11753 0.0
C1169 C 0.37027 0.95539 0.10993 0.0
C1170 C 0.3508 0.92836 0.13419 0.0
C1171 C 0.36762 0.90655 0.11644 0.0
C1172 C 0.33168 0.92534 0.13282 0.0
C1173 C 0.31873 0.91802 0.1488 0.0
C1174 C 0.32468 0.91354 0.16642 0.0
C1175 C 0.34391 0.9168 0.16777 0.0
C1176 C 0.35684 0.92414 0.15183 0.0
H1177 H 0.37093 0.89908 0.10521 0.0
H1178 H 0.37612 0.90724 0.12951 0.0
H1179 H 0.35152 0.8976 0.12012 0.0
H1180 H 0.32681 0.92873 0.11941 0.0
H1181 H 0.30415 0.91607 0.14748 0.0
H1182 H 0.44593 0.42963 0.54731 0.0
H1183 H 0.43437 0.40192 0.57064 0.0
H1184 H 0.49482 0.4248 0.5886 0.0
H1185 H 0.50625 0.45273 0.5656 0.0
H1186 H 0.44432 0.37371 0.57343 0.0
H1187 H 0.4661 0.41691 0.63974 0.0
H1188 H 0.46526 0.42707 0.61637 0.0
H1189 H 0.48598 0.42461 0.62256 0.0
C1190 C 0.45664 0.42869 0.55637 0.0
C1191 C 0.47688 0.44326 0.55496 0.0
C1192 C 0.45009 0.41292 0.5696 0.0
C1193 C 0.46369 0.41149 0.58159 0.0
C1194 C 0.48401 0.42586 0.57983 0.0
H1195 H 0.44875 0.32548 0.68415 0.0
H1196 H 0.46444 0.35725 0.65531 0.0
C1197 C 0.49055 0.44169 0.56666 0.0
C1198 C 0.45658 0.3948 0.59572 0.0
H1199 H 0.45415 0.38316 0.6439 0.0
C1200 C 0.4464 0.37575 0.58885 0.0
C1201 C 0.45948 0.39753 0.61581 0.0
C1202 C 0.46964 0.41761 0.62413 0.0
C1203 C 0.43908 0.35933 0.60152 0.0
C1204 C 0.44171 0.36207 0.62162 0.0
C1205 C 0.45218 0.3811 0.62847 0.0
C1206 C 0.43326 0.34551 0.63588 0.0
C1207 C 0.42918 0.33931 0.59314 0.0
C1208 C 0.40696 0.32733 0.63535 0.0
C1209 C 0.39571 0.30756 0.6532 0.0
C1210 C 0.41367 0.30537 0.66891 0.0
C1211 C 0.43919 0.32641 0.67349 0.0
C1212 C 0.449 0.34556 0.65495 0.0
H1213 H 0.43379 0.34011 0.57785 0.0
H1214 H 0.43281 0.32961 0.60151 0.0
H1215 H 0.41284 0.33262 0.59346 0.0
H1216 H 0.39774 0.32849 0.62447 0.0
H1217 H 0.38038 0.29578 0.65211 0.0
H1218 H 0.53092 0.97462 0.42879 0.0
H1219 H 0.54105 0.95655 0.40899 0.0
H1220 H 0.56884 0.94727 0.45852 0.0
H1221 H 0.55829 0.96483 0.47843 0.0
H1222 H 0.57639 0.96205 0.39932 0.0
H1223 H 0.53322 0.89219 0.44155 0.0
H1224 H 0.53012 0.91258 0.44492 0.0
H1225 H 0.55021 0.91181 0.45638 0.0
C1226 C 0.53927 0.96878 0.43539 0.0
C1227 C 0.54365 0.97092 0.45518 0.0
C1228 C 0.545 0.95843 0.4241 0.0
C1229 C 0.55529 0.95015 0.43238 0.0
C1230 C 0.56036 0.95298 0.45196 0.0
H1231 H 0.62445 0.91146 0.37489 0.0
H1232 H 0.61207 0.93017 0.38991 0.0
C1233 C 0.55442 0.96309 0.4633 0.0
C1234 C 0.56076 0.93857 0.42058 0.0
H1235 H 0.55769 0.89466 0.41963 0.0
C1236 C 0.57216 0.94725 0.40366 0.0
C1237 C 0.55486 0.91909 0.42598 0.0
C1238 C 0.54125 0.9083 0.44308 0.0
C1239 C 0.57839 0.93722 0.39235 0.0
C1240 C 0.57355 0.9182 0.39845 0.0
C1241 C 0.56162 0.90932 0.41504 0.0
C1242 C 0.58101 0.90733 0.38819 0.0
C1243 C 0.58985 0.94704 0.37387 0.0
C1244 C 0.56775 0.88804 0.3827 0.0
C1245 C 0.57484 0.87719 0.37449 0.0
C1246 C 0.59535 0.88554 0.37127 0.0
C1247 C 0.60856 0.90486 0.37672 0.0
C1248 C 0.60148 0.9156 0.38519 0.0
H1249 H 0.58642 0.95797 0.36804 0.0
H1250 H 0.60601 0.95491 0.37684 0.0
H1251 H 0.58651 0.93623 0.36265 0.0
H1252 H 0.5519 0.88125 0.38509 0.0
H1253 H 0.56429 0.86217 0.37093 0.0
H1254 H 0.58828 0.56638 0.9819 0.0
H1255 H 0.61824 0.5774 0.96205 0.0
H1256 H 0.5902 0.52072 0.93678 0.0
H1257 H 0.56035 0.50968 0.95685 0.0
H1258 H 0.6288 0.53441 0.95029 0.0
H1259 H 0.62668 0.59091 0.90385 0.0
H1260 H 0.62501 0.59345 0.9293 0.0
H1261 H 0.60539 0.57241 0.91772 0.0
C1262 C 0.58856 0.55644 0.97192 0.0
C1263 C 0.57219 0.53731 0.97066 0.0
C1264 C 0.60555 0.56272 0.96057 0.0
C1265 C 0.6063 0.54996 0.94774 0.0
C1266 C 0.58985 0.53081 0.9465 0.0
H1267 H 0.70345 0.56005 0.87805 0.0
H1268 H 0.67119 0.54813 0.8935 0.0
C1269 C 0.57288 0.52454 0.95787 0.0
C1270 C 0.62463 0.55629 0.93634 0.0
H1271 H 0.65627 0.59014 0.90249 0.0
C1272 C 0.63476 0.5465 0.93972 0.0
C1273 C 0.63235 0.5721 0.92264 0.0
C1274 C 0.62173 0.58275 0.91799 0.0
C1275 C 0.65279 0.55246 0.93019 0.0
C1276 C 0.66061 0.56836 0.91652 0.0
C1277 C 0.65028 0.57797 0.91296 0.0
C1278 C 0.6798 0.57569 0.90621 0.0
C1279 C 0.66359 0.5421 0.93543 0.0
C1280 C 0.69512 0.59536 0.90751 0.0
C1281 C 0.71339 0.60235 0.89822 0.0
C1282 C 0.71674 0.58986 0.8874 0.0
C1283 C 0.70132 0.57016 0.88604 0.0
C1284 C 0.68293 0.56324 0.8951 0.0
H1285 H 0.65867 0.5343 0.94975 0.0
H1286 H 0.66038 0.53107 0.92451 0.0
H1287 H 0.67992 0.55253 0.93572 0.0
H1288 H 0.69307 0.60524 0.916 0.0
H1289 H 0.72509 0.61751 0.89975 0.0
H1290 H 0.01762 0.57616 0.47234 0.0
H1291 H 0.03588 0.60576 0.45135 0.0
H1292 H 0.07548 0.58722 0.43364 0.0
H1293 H 0.05688 0.55743 0.45427 0.0
H1294 H 0.07509 0.63485 0.45333 0.0
H1295 H 0.0598 0.60053 0.38207 0.0
H1296 H 0.04604 0.58727 0.40371 0.0
H1297 H 0.07031 0.59131 0.39919 0.0
C1298 C 0.03009 0.5784 0.46374 0.0
C1299 C 0.03584 0.56461 0.46466 0.0
C1300 C 0.04052 0.59525 0.45183 0.0
C1301 C 0.05685 0.59855 0.44069 0.0
C1302 C 0.06265 0.58476 0.44174 0.0
H1303 H 0.15032 0.70544 0.38361 0.0
H1304 H 0.1308 0.67366 0.40099 0.0
C1305 C 0.05215 0.56786 0.45358 0.0
C1306 C 0.06833 0.61684 0.4287 0.0
H1307 H 0.08416 0.63463 0.38255 0.0
C1308 C 0.077 0.63479 0.43785 0.0
C1309 C 0.07075 0.61673 0.40847 0.0
C1310 C 0.06109 0.59794 0.39772 0.0
C1311 C 0.08824 0.65261 0.42736 0.0
C1312 C 0.09088 0.65245 0.40726 0.0
C1313 C 0.08215 0.63459 0.39802 0.0
C1314 C 0.10247 0.67086 0.39566 0.0
C1315 C 0.09722 0.67158 0.43771 0.0
C1316 C 0.09289 0.67959 0.38686 0.0
C1317 C 0.10395 0.69766 0.37692 0.0
C1318 C 0.12477 0.7072 0.37545 0.0
C1319 C 0.13428 0.69825 0.38417 0.0
C1320 C 0.12319 0.68018 0.39413 0.0
H1321 H 0.09345 0.66922 0.45338 0.0
H1322 H 0.11364 0.67984 0.43594 0.0
H1323 H 0.09186 0.68077 0.43119 0.0
H1324 H 0.0769 0.67262 0.38808 0.0
H1325 H 0.09628 0.70438 0.37067 0.0
H1326 H 0.45519 0.05292 0.98951 0.0
H1327 H 0.44354 0.06943 0.96763 0.0
H1328 H 0.46326 0.05215 0.91861 0.0
H1329 H 0.47503 0.03579 0.94024 0.0
H1330 H 0.47544 0.09521 0.92129 0.0
H1331 H 0.3944 0.03968 0.92888 0.0
H1332 H 0.40926 0.04777 0.95031 0.0
H1333 H 0.41297 0.03348 0.93352 0.0
C1334 C 0.45705 0.05267 0.97407 0.0
C1335 C 0.46589 0.04293 0.96658 0.0
C1336 C 0.45032 0.06202 0.96162 0.0
C1337 C 0.45248 0.06188 0.94156 0.0
C1338 C 0.46141 0.05232 0.93407 0.0
H1339 H 0.43256 0.10544 0.83494 0.0
H1340 H 0.44509 0.09479 0.86194 0.0
C1341 C 0.46798 0.04287 0.94645 0.0
C1342 C 0.44559 0.07177 0.92819 0.0
H1343 H 0.40396 0.06614 0.90691 0.0
C1344 C 0.45981 0.08899 0.91823 0.0
C1345 C 0.42521 0.06366 0.92441 0.0
C1346 C 0.40946 0.04508 0.93473 0.0
C1347 C 0.45419 0.09821 0.90429 0.0
C1348 C 0.43382 0.08961 0.89983 0.0
C1349 C 0.41957 0.0727 0.91028 0.0
C1350 C 0.42704 0.09724 0.88368 0.0
C1351 C 0.47013 0.11708 0.89455 0.0
C1352 C 0.41233 0.10167 0.88678 0.0
C1353 C 0.40497 0.10753 0.8713 0.0
C1354 C 0.41233 0.10924 0.85243 0.0
C1355 C 0.42702 0.10476 0.84938 0.0
C1356 C 0.43425 0.09877 0.86483 0.0
H1357 H 0.48337 0.12495 0.90386 0.0
H1358 H 0.47501 0.11376 0.88101 0.0
H1359 H 0.46459 0.12693 0.8909 0.0
H1360 H 0.40634 0.10033 0.90116 0.0
H1361 H 0.39328 0.1104 0.87402 0.0
H1362 H 0.43606 0.5009 0.45195 0.0
H1363 H 0.40993 0.49067 0.42777 0.0
H1364 H 0.40211 0.43341 0.42809 0.0
H1365 H 0.42812 0.44346 0.45232 0.0
H1366 H 0.41053 0.47412 0.38957 0.0
H1367 H 0.34485 0.42469 0.43642 0.0
H1368 H 0.36805 0.44392 0.44598 0.0
H1369 H 0.36583 0.42174 0.43842 0.0
C1370 C 0.42859 0.48606 0.44704 0.0
C1371 C 0.4341 0.47296 0.45404 0.0
C1372 C 0.41377 0.48029 0.43318 0.0
C1373 C 0.40404 0.46126 0.42631 0.0
C1374 C 0.40935 0.4481 0.43338 0.0
H1375 H 0.29941 0.38456 0.34624 0.0
H1376 H 0.33144 0.40032 0.37366 0.0
C1377 C 0.42429 0.4539 0.4471 0.0
C1378 C 0.38882 0.45533 0.41119 0.0
H1379 H 0.33938 0.42469 0.40283 0.0
C1380 C 0.39492 0.46346 0.39245 0.0
C1381 C 0.36858 0.44127 0.41504 0.0
C1382 C 0.36129 0.43243 0.43507 0.0
C1383 C 0.38135 0.45747 0.37723 0.0
C1384 C 0.36103 0.44347 0.38109 0.0
C1385 C 0.35494 0.43548 0.3999 0.0
C1386 C 0.34585 0.43626 0.36589 0.0
C1387 C 0.38922 0.46556 0.35711 0.0
C1388 C 0.34433 0.4534 0.34946 0.0
C1389 C 0.32549 0.44486 0.33124 0.0
C1390 C 0.30598 0.41834 0.33375 0.0
C1391 C 0.31026 0.4001 0.34634 0.0
C1392 C 0.32962 0.4101 0.364 0.0
H1393 H 0.40507 0.47007 0.35559 0.0
H1394 H 0.38058 0.45472 0.34601 0.0
H1395 H 0.38841 0.47877 0.35422 0.0
H1396 H 0.35445 0.46895 0.35079 0.0
H1397 H 0.32337 0.45501 0.32247 0.0
H1398 H 0.97054 0.41729 0.96983 0.0
H1399 H 0.95195 0.38905 0.94958 0.0
H1400 H 0.96739 0.42754 0.89918 0.0
H1401 H 0.98614 0.45594 0.91938 0.0
H1402 H 0.91976 0.3801 0.92741 0.0
H1403 H 0.98143 0.38822 0.882 0.0
H1404 H 0.98567 0.40141 0.90384 0.0
H1405 H 0.97944 0.40948 0.8819 0.0
C1406 C 0.97001 0.41976 0.95442 0.0
C1407 C 0.97978 0.43885 0.9462 0.0
C1408 C 0.95944 0.4036 0.94287 0.0
C1409 C 0.95843 0.40617 0.92285 0.0
C1410 C 0.9683 0.4252 0.91454 0.0
H1411 H 0.86731 0.31043 0.8551 0.0
H1412 H 0.88802 0.34209 0.86988 0.0
C1413 C 0.97899 0.44141 0.9261 0.0
C1414 C 0.94633 0.38886 0.91096 0.0
H1415 H 0.94881 0.36341 0.87377 0.0
C1416 C 0.92609 0.37645 0.91565 0.0
C1417 C 0.95468 0.38408 0.89574 0.0
C1418 C 0.97653 0.39637 0.89063 0.0
C1419 C 0.91398 0.35925 0.90571 0.0
C1420 C 0.92224 0.35459 0.89028 0.0
C1421 C 0.94246 0.36711 0.88547 0.0
C1422 C 0.91045 0.33619 0.87976 0.0
C1423 C 0.89265 0.34593 0.91232 0.0
C1424 C 0.91659 0.3227 0.87965 0.0
C1425 C 0.90505 0.30482 0.8708 0.0
C1426 C 0.88716 0.30007 0.86178 0.0
C1427 C 0.88116 0.31374 0.86165 0.0
C1428 C 0.89286 0.33175 0.87031 0.0
H1429 H 0.89021 0.34897 0.92724 0.0
H1430 H 0.88283 0.34829 0.9026 0.0
H1431 H 0.88809 0.33032 0.91189 0.0
H1432 H 0.93008 0.32578 0.88688 0.0
H1433 H 0.90985 0.29443 0.8714 0.0
H1434 H 0.97143 0.51464 0.94552 0.0
H1435 H 0.95427 0.52822 0.92749 0.0
H1436 H 0.99173 0.58379 0.95377 0.0
H1437 H 0.00873 0.57008 0.97191 0.0
H1438 H 0.95129 0.56992 0.95652 0.0
H1439 H 0.97308 0.56754 0.88117 0.0
H1440 H 0.96291 0.54479 0.89479 0.0
H1441 H 0.98608 0.56569 0.90187 0.0
C1442 C 0.97608 0.52981 0.94717 0.0
C1443 C 0.99133 0.54143 0.95992 0.0
C1444 C 0.9664 0.53758 0.93684 0.0
C1445 C 0.97193 0.55709 0.9391 0.0
C1446 C 0.98736 0.56875 0.95173 0.0
H1447 H 0.92894 0.6227 0.87509 0.0
H1448 H 0.94946 0.61056 0.88847 0.0
C1449 C 0.99704 0.56098 0.96203 0.0
C1450 C 0.96068 0.56493 0.92937 0.0
H1451 H 0.94706 0.57386 0.88518 0.0
C1452 C 0.95046 0.57089 0.94092 0.0
C1453 C 0.95977 0.56632 0.90903 0.0
C1454 C 0.97118 0.56092 0.89594 0.0
C1455 C 0.93899 0.57785 0.93268 0.0
C1456 C 0.93748 0.57858 0.91235 0.0
C1457 C 0.94808 0.57306 0.90076 0.0
C1458 C 0.92493 0.58506 0.90298 0.0
C1459 C 0.92871 0.5845 0.94582 0.0
C1460 C 0.90432 0.57447 0.90634 0.0
C1461 C 0.89263 0.58135 0.89874 0.0
C1462 C 0.90129 0.59882 0.88744 0.0
C1463 C 0.92187 0.60909 0.88359 0.0
C1464 C 0.93358 0.60221 0.89123 0.0
H1465 H 0.93531 0.58765 0.96044 0.0
H1466 H 0.92948 0.59783 0.93968 0.0
H1467 H 0.91281 0.57276 0.94744 0.0
H1468 H 0.89733 0.56106 0.91514 0.0
H1469 H 0.87684 0.5732 0.90204 0.0
H1470 H 0.43924 0.99743 0.47266 0.0
H1471 H 0.40954 0.98043 0.45253 0.0
H1472 H 0.42955 0.94347 0.43203 0.0
H1473 H 0.45938 0.9607 0.45198 0.0
H1474 H 0.41407 0.95729 0.40265 0.0
H1475 H 0.36343 0.92443 0.46644 0.0
H1476 H 0.37922 0.95062 0.46629 0.0
H1477 H 0.39002 0.93579 0.46817 0.0
C1478 C 0.43727 0.98578 0.4637 0.0
C1479 C 0.45136 0.98022 0.4638 0.0
C1480 C 0.42035 0.97605 0.45231 0.0
C1481 C 0.41724 0.96053 0.44101 0.0
C1482 C 0.43166 0.95537 0.44069 0.0
H1483 H 0.30438 0.86985 0.39746 0.0
H1484 H 0.337 0.88869 0.41238 0.0
C1485 C 0.4486 0.96513 0.45206 0.0
C1486 C 0.39863 0.9492 0.43007 0.0
H1487 H 0.34836 0.91951 0.43586 0.0
C1488 C 0.39968 0.94901 0.40987 0.0
C1489 C 0.37994 0.9382 0.43958 0.0
C1490 C 0.37799 0.93706 0.46132 0.0
C1491 C 0.38245 0.93828 0.39888 0.0
C1492 C 0.36372 0.92769 0.40838 0.0
C1493 C 0.36273 0.92774 0.4286 0.0
C1494 C 0.34487 0.91612 0.3978 0.0
C1495 C 0.38446 0.93806 0.37727 0.0
C1496 C 0.33854 0.92527 0.38453 0.0
C1497 C 0.31993 0.91448 0.37589 0.0
C1498 C 0.30734 0.89438 0.38041 0.0
C1499 C 0.31387 0.88525 0.39351 0.0
C1500 C 0.33245 0.89601 0.40208 0.0
H1501 H 0.39985 0.9427 0.37283 0.0
H1502 H 0.37406 0.92325 0.37184 0.0
H1503 H 0.38078 0.94837 0.37026 0.0
H1504 H 0.34769 0.94086 0.38134 0.0
H1505 H 0.31511 0.92193 0.3661 0.0
H1506 H 0.47466 0.41706 0.97756 0.0
H1507 H 0.4643 0.3906 0.95533 0.0
H1508 H 0.46559 0.42789 0.90836 0.0
H1509 H 0.4774 0.45488 0.93013 0.0
H1510 H 0.43261 0.37118 0.93406 0.0
H1511 H 0.49842 0.40912 0.88539 0.0
H1512 H 0.4975 0.41878 0.90819 0.0
H1513 H 0.48626 0.42256 0.88713 0.0
C1514 C 0.47314 0.41981 0.96244 0.0
C1515 C 0.47715 0.43828 0.95568 0.0
C1516 C 0.46699 0.40456 0.94977 0.0
C1517 C 0.46457 0.40735 0.93007 0.0
C1518 C 0.46789 0.42553 0.92338 0.0
H1519 H 0.39761 0.31407 0.85028 0.0
H1520 H 0.40849 0.33951 0.87398 0.0
C1521 C 0.47433 0.44088 0.93597 0.0
C1522 C 0.45832 0.39117 0.91661 0.0
H1523 H 0.47047 0.37985 0.87392 0.0
C1524 C 0.44097 0.37303 0.92098 0.0
C1525 C 0.46942 0.39343 0.89972 0.0
C1526 C 0.48904 0.41196 0.89493 0.0
C1527 C 0.43421 0.35722 0.90875 0.0
C1528 C 0.44472 0.35983 0.89132 0.0
C1529 C 0.46226 0.37787 0.88715 0.0
C1530 C 0.43789 0.34411 0.87718 0.0
C1531 C 0.41614 0.3378 0.91492 0.0
C1532 C 0.45101 0.33873 0.87046 0.0
C1533 C 0.44498 0.32455 0.85656 0.0
C1534 C 0.42553 0.31516 0.84933 0.0
C1535 C 0.4125 0.32071 0.85595 0.0
C1536 C 0.41866 0.33514 0.8696 0.0
H1537 H 0.41402 0.33646 0.93086 0.0
H1538 H 0.40272 0.33664 0.90842 0.0
H1539 H 0.41728 0.32538 0.91017 0.0
H1540 H 0.46601 0.3456 0.87591 0.0
H1541 H 0.4556 0.32103 0.85144 0.0
H1542 H 0.07003 0.4991 0.45082 0.0
H1543 H 0.08598 0.48658 0.43086 0.0
H1544 H 0.03004 0.43205 0.42615 0.0
H1545 H 0.01398 0.4443 0.44643 0.0
H1546 H 0.0863 0.45166 0.44092 0.0
H1547 H 0.052 0.44772 0.36954 0.0
H1548 H 0.05229 0.46276 0.38848 0.0
H1549 H 0.03522 0.43677 0.3899 0.0
C1550 C 0.06109 0.48443 0.44557 0.0
C1551 C 0.04074 0.47266 0.45033 0.0
C1552 C 0.07021 0.47736 0.43405 0.0
C1553 C 0.05914 0.45848 0.4269 0.0
C1554 C 0.03876 0.4468 0.43125 0.0
H1555 H 0.09311 0.38876 0.36307 0.0
H1556 H 0.07469 0.40178 0.37825 0.0
C1557 C 0.02961 0.45384 0.44284 0.0
C1558 C 0.06932 0.45058 0.4161 0.0
H1559 H 0.07285 0.43483 0.37201 0.0
C1560 C 0.08343 0.44803 0.42583 0.0
C1561 C 0.06532 0.44568 0.39651 0.0
C1562 C 0.05049 0.44847 0.38537 0.0
C1563 C 0.09362 0.44058 0.41655 0.0
C1564 C 0.09001 0.43608 0.3968 0.0
C1565 C 0.0757 0.43842 0.3871 0.0
C1566 C 0.101 0.42895 0.38609 0.0
C1567 C 0.10785 0.4372 0.42815 0.0
C1568 C 0.12183 0.44019 0.38485 0.0
C1569 C 0.13234 0.43269 0.37648 0.0
C1570 C 0.1222 0.41391 0.3689 0.0
C1571 C 0.10129 0.40316 0.36906 0.0
C1572 C 0.09078 0.4106 0.37765 0.0
H1573 H 0.10458 0.43591 0.44389 0.0
H1574 H 0.10724 0.42373 0.42381 0.0
H1575 H 0.12322 0.44982 0.42564 0.0
H1576 H 0.13 0.45462 0.39077 0.0
H1577 H 0.14843 0.44143 0.37632 0.0
H1578 H 0.54932 0.0458 0.94073 0.0
H1579 H 0.57875 0.0592 0.91945 0.0
H1580 H 0.61099 0.05128 0.96567 0.0
H1581 H 0.58147 0.03759 0.98677 0.0
H1582 H 0.61716 0.09164 0.92423 0.0
H1583 H 0.61775 0.023 0.92114 0.0
H1584 H 0.59661 0.02347 0.93001 0.0
H1585 H 0.61778 0.03078 0.94513 0.0
C1586 C 0.56273 0.04692 0.94621 0.0
C1587 C 0.56327 0.04057 0.96518 0.0
C1588 C 0.57947 0.05456 0.93414 0.0
C1589 C 0.59691 0.0559 0.9409 0.0
C1590 C 0.59755 0.04997 0.96005 0.0
H1591 H 0.71251 0.09778 0.88725 0.0
H1592 H 0.68451 0.08559 0.91009 0.0
C1593 C 0.58081 0.0423 0.9721 0.0
C1594 C 0.61448 0.06365 0.92795 0.0
H1595 H 0.64523 0.05155 0.90669 0.0
C1596 C 0.62328 0.08287 0.92034 0.0
C1597 C 0.62243 0.05216 0.92297 0.0
C1598 C 0.61308 0.03115 0.93008 0.0
C1599 C 0.63996 0.091 0.90799 0.0
C1600 C 0.64783 0.07949 0.90294 0.0
C1601 C 0.63915 0.06033 0.91066 0.0
C1602 C 0.66474 0.08691 0.88922 0.0
C1603 C 0.6492 0.11192 0.90063 0.0
C1604 C 0.66271 0.0913 0.86991 0.0
C1605 C 0.6786 0.09821 0.85689 0.0
C1606 C 0.69689 0.10098 0.86299 0.0
C1607 C 0.69872 0.09613 0.88226 0.0
C1608 C 0.68277 0.08914 0.89527 0.0
H1609 H 0.64449 0.12013 0.90942 0.0
H1610 H 0.66567 0.11963 0.90067 0.0
H1611 H 0.64448 0.11208 0.88554 0.0
H1612 H 0.64876 0.08923 0.86487 0.0
H1613 H 0.67661 0.10139 0.84202 0.0
H1614 H 0.51827 0.55316 0.44845 0.0
H1615 H 0.53438 0.58369 0.42853 0.0
H1616 H 0.57796 0.61245 0.47284 0.0
H1617 H 0.56191 0.58187 0.49265 0.0
H1618 H 0.54166 0.62131 0.43846 0.0
H1619 H 0.61121 0.6226 0.42292 0.0
H1620 H 0.58881 0.60085 0.43186 0.0
H1621 H 0.60434 0.61985 0.44804 0.0
C1622 C 0.53133 0.56605 0.4538 0.0
C1623 C 0.53904 0.56536 0.47189 0.0
C1624 C 0.54046 0.58341 0.44251 0.0
C1625 C 0.55747 0.60022 0.44915 0.0
C1626 C 0.56503 0.59954 0.46736 0.0
H1627 H 0.61552 0.72077 0.40506 0.0
H1628 H 0.59872 0.6906 0.42535 0.0
C1629 C 0.55588 0.58219 0.47865 0.0
C1630 C 0.56723 0.6185 0.43707 0.0
H1631 H 0.6103 0.65053 0.41263 0.0
C1632 C 0.55666 0.62773 0.43281 0.0
C1633 C 0.58672 0.62668 0.4296 0.0
C1634 C 0.59843 0.61694 0.43316 0.0
C1635 C 0.56524 0.64513 0.42144 0.0
C1636 C 0.58484 0.65345 0.41427 0.0
C1637 C 0.59532 0.64413 0.41833 0.0
C1638 C 0.59457 0.67161 0.40207 0.0
C1639 C 0.55327 0.65441 0.41691 0.0
C1640 C 0.59779 0.67081 0.38236 0.0
C1641 C 0.6072 0.68792 0.37075 0.0
C1642 C 0.61386 0.70619 0.37873 0.0
C1643 C 0.61062 0.70693 0.39854 0.0
C1644 C 0.601 0.68975 0.41011 0.0
H1645 H 0.53737 0.64465 0.42115 0.0
H1646 H 0.55948 0.66817 0.4248 0.0
H1647 H 0.55423 0.65821 0.40122 0.0
H1648 H 0.59291 0.65691 0.37594 0.0
H1649 H 0.60931 0.6869 0.35551 0.0
H1650 H 0.44645 0.0239 0.56086 0.0
H1651 H 0.43333 0.03971 0.58012 0.0
H1652 H 0.4905 0.0935 0.57721 0.0
H1653 H 0.50386 0.0778 0.55822 0.0
H1654 H 0.44773 0.06027 0.61649 0.0
H1655 H 0.45042 0.10775 0.55483 0.0
H1656 H 0.45167 0.08623 0.55159 0.0
H1657 H 0.47316 0.10841 0.55935 0.0
C1658 C 0.45631 0.03903 0.56451 0.0
C1659 C 0.47617 0.04964 0.55785 0.0
C1660 C 0.44876 0.04804 0.57546 0.0
C1661 C 0.46089 0.06781 0.57986 0.0
C1662 C 0.48082 0.07831 0.57368 0.0
H1663 H 0.44168 0.15347 0.6299 0.0
H1664 H 0.45578 0.1356 0.61644 0.0
C1665 C 0.48839 0.06932 0.56276 0.0
C1666 C 0.4526 0.07768 0.59045 0.0
H1667 H 0.44211 0.11365 0.58543 0.0
C1668 C 0.44643 0.07192 0.60975 0.0
C1669 C 0.45094 0.09282 0.58155 0.0
C1670 C 0.45673 0.09912 0.56064 0.0
C1671 C 0.43905 0.08129 0.62058 0.0
C1672 C 0.43744 0.0965 0.61167 0.0
C1673 C 0.44347 0.10208 0.59229 0.0
C1674 C 0.42953 0.10694 0.62197 0.0
C1675 C 0.43357 0.07514 0.64154 0.0
C1676 C 0.41019 0.09677 0.62988 0.0
C1677 C 0.40219 0.10697 0.63783 0.0
C1678 C 0.41325 0.12755 0.63763 0.0
C1679 C 0.43278 0.13764 0.63018 0.0
C1680 C 0.44083 0.12744 0.62246 0.0
H1681 H 0.44106 0.06769 0.64752 0.0
H1682 H 0.43752 0.08789 0.65043 0.0
H1683 H 0.41729 0.06467 0.64285 0.0
H1684 H 0.40102 0.08099 0.62931 0.0
H1685 H 0.38713 0.09883 0.64353 0.0
H1686 H 0.45928 0.5085 0.06364 0.0
H1687 H 0.43049 0.49631 0.08554 0.0
H1688 H 0.40474 0.43875 0.06271 0.0
H1689 H 0.43364 0.45096 0.04094 0.0
H1690 H 0.38973 0.47825 0.0766 0.0
H1691 H 0.40495 0.42898 0.12137 0.0
H1692 H 0.42328 0.44787 0.10516 0.0
H1693 H 0.4037 0.42524 0.09586 0.0
C1694 C 0.44741 0.49327 0.06338 0.0
C1695 C 0.44854 0.48056 0.05085 0.0
C1696 C 0.43104 0.48633 0.07581 0.0
C1697 C 0.41565 0.46657 0.07592 0.0
C1698 C 0.41664 0.45395 0.06309 0.0
H1699 H 0.30666 0.39792 0.14381 0.0
H1700 H 0.33368 0.40953 0.11995 0.0
C1701 C 0.43301 0.4609 0.05065 0.0
C1702 C 0.39855 0.45923 0.08942 0.0
H1703 H 0.37469 0.42731 0.12762 0.0
C1704 C 0.38645 0.46714 0.08779 0.0
C1705 C 0.39433 0.44473 0.10398 0.0
C1706 C 0.40732 0.43629 0.10688 0.0
C1707 C 0.37005 0.46077 0.10021 0.0
C1708 C 0.36589 0.44634 0.11481 0.0
C1709 C 0.37792 0.43835 0.11637 0.0
C1710 C 0.34927 0.43953 0.12882 0.0
C1711 C 0.35713 0.46929 0.09742 0.0
C1712 C 0.34926 0.45251 0.14183 0.0
C1713 C 0.33387 0.44593 0.15542 0.0
C1714 C 0.31814 0.42625 0.15616 0.0
C1715 C 0.31836 0.41323 0.14328 0.0
C1716 C 0.33379 0.41982 0.12972 0.0
H1717 H 0.35929 0.47639 0.08285 0.0
H1718 H 0.34117 0.45781 0.09945 0.0
H1719 H 0.36103 0.48053 0.1083 0.0
H1720 H 0.36134 0.46767 0.14168 0.0
H1721 H 0.33436 0.45617 0.16551 0.0
H1722 H 0.98606 0.43004 0.53723 0.0
H1723 H 0.96987 0.40106 0.55925 0.0
H1724 H 0.93307 0.42069 0.58245 0.0
H1725 H 0.94953 0.44983 0.56062 0.0
H1726 H 0.95079 0.40949 0.61067 0.0
H1727 H 0.91391 0.35266 0.55592 0.0
H1728 H 0.94016 0.36896 0.55196 0.0
H1729 H 0.92392 0.3783 0.55033 0.0
C1730 C 0.97442 0.428 0.54699 0.0
C1731 C 0.9689 0.44195 0.54735 0.0
C1732 C 0.96512 0.41146 0.55944 0.0
C1733 C 0.95007 0.40859 0.57227 0.0
C1734 C 0.94457 0.42259 0.57258 0.0
H1735 H 0.88022 0.32173 0.66315 0.0
H1736 H 0.89474 0.3497 0.64006 0.0
C1737 C 0.95389 0.43914 0.56016 0.0
C1738 C 0.94058 0.3914 0.58589 0.0
H1739 H 0.91349 0.34144 0.5882 0.0
C1740 C 0.94253 0.3946 0.60578 0.0
C1741 C 0.92988 0.37201 0.57944 0.0
C1742 C 0.92665 0.36771 0.55825 0.0
C1743 C 0.93438 0.37893 0.61943 0.0
C1744 C 0.92369 0.35954 0.61298 0.0
C1745 C 0.92171 0.35633 0.59309 0.0
C1746 C 0.91451 0.34237 0.62665 0.0
C1747 C 0.93769 0.38327 0.64061 0.0
C1748 C 0.92044 0.32871 0.62642 0.0
C1749 C 0.91198 0.31259 0.63941 0.0
C1750 C 0.89724 0.3097 0.6527 0.0
C1751 C 0.89132 0.32342 0.65287 0.0
C1752 C 0.89974 0.33949 0.63984 0.0
H1753 H 0.95037 0.39836 0.6429 0.0
H1754 H 0.92417 0.38191 0.64698 0.0
H1755 H 0.94057 0.37276 0.6485 0.0
H1756 H 0.93183 0.33068 0.61635 0.0
H1757 H 0.91704 0.30243 0.63918 0.0
H1758 H 0.55526 0.95732 0.03921 0.0
H1759 H 0.56618 0.94078 0.06162 0.0
H1760 H 0.56674 0.97567 0.1078 0.0
H1761 H 0.55473 0.99145 0.08585 0.0
H1762 H 0.59855 0.95328 0.08364 0.0
H1763 H 0.53129 0.92104 0.13042 0.0
H1764 H 0.53301 0.93278 0.10724 0.0
H1765 H 0.54393 0.9472 0.12818 0.0
C1766 C 0.55752 0.96137 0.05418 0.0
C1767 C 0.55383 0.97555 0.06075 0.0
C1768 C 0.56393 0.95201 0.06693 0.0
C1769 C 0.56682 0.95667 0.08648 0.0
C1770 C 0.56411 0.97148 0.09288 0.0
H1771 H 0.6291 0.92507 0.16933 0.0
H1772 H 0.61968 0.94155 0.14514 0.0
C1773 C 0.55752 0.98072 0.08021 0.0
C1774 C 0.57241 0.94587 0.10021 0.0
H1775 H 0.55823 0.91873 0.14252 0.0
C1776 C 0.5897 0.94563 0.09648 0.0
C1777 C 0.56061 0.93555 0.11673 0.0
C1778 C 0.54107 0.93395 0.1208 0.0
C1779 C 0.59574 0.93569 0.10902 0.0
C1780 C 0.58448 0.92622 0.12607 0.0
C1781 C 0.56699 0.92617 0.12958 0.0
C1782 C 0.59043 0.91619 0.14045 0.0
C1783 C 0.61388 0.93512 0.10364 0.0
C1784 C 0.57687 0.8967 0.14644 0.0
C1785 C 0.58206 0.88742 0.16058 0.0
C1786 C 0.6011 0.89735 0.16876 0.0
C1787 C 0.61455 0.91693 0.16289 0.0
C1788 C 0.60923 0.9263 0.14898 0.0
H1789 H 0.61682 0.93738 0.08782 0.0
H1790 H 0.62705 0.94707 0.11085 0.0
H1791 H 0.61222 0.92097 0.10826 0.0
H1792 H 0.56219 0.88868 0.14025 0.0
H1793 H 0.57113 0.8725 0.16512 0.0
H1794 H 0.60085 0.54614 0.54472 0.0
H1795 H 0.62891 0.55831 0.56674 0.0
H1796 H 0.58859 0.53917 0.61552 0.0
H1797 H 0.56041 0.52671 0.59365 0.0
H1798 H 0.62158 0.57795 0.61739 0.0
H1799 H 0.64448 0.52538 0.60088 0.0
H1800 H 0.64213 0.53811 0.5802 0.0
H1801 H 0.62048 0.52135 0.59444 0.0
C1802 C 0.59791 0.54428 0.56013 0.0
C1803 C 0.57835 0.5354 0.56741 0.0
C1804 C 0.61397 0.55126 0.57268 0.0
C1805 C 0.61078 0.54942 0.59274 0.0
C1806 C 0.59134 0.54069 0.60007 0.0
H1807 H 0.692 0.56612 0.68531 0.0
H1808 H 0.66455 0.55319 0.66241 0.0
C1809 C 0.57527 0.53368 0.58755 0.0
C1810 C 0.62775 0.55704 0.60612 0.0
H1811 H 0.66581 0.55147 0.62094 0.0
C1812 C 0.63125 0.57216 0.61819 0.0
C1813 C 0.64019 0.5493 0.60724 0.0
C1814 C 0.6366 0.53252 0.59514 0.0
C1815 C 0.64705 0.57995 0.63123 0.0
C1816 C 0.65976 0.57252 0.63203 0.0
C1817 C 0.65612 0.55723 0.62014 0.0
C1818 C 0.67672 0.58023 0.64541 0.0
C1819 C 0.64983 0.59583 0.64426 0.0
C1820 C 0.69273 0.59964 0.64326 0.0
C1821 C 0.70846 0.60701 0.65623 0.0
C1822 C 0.70857 0.59504 0.67145 0.0
C1823 C 0.69251 0.57557 0.67351 0.0
C1824 C 0.67681 0.56819 0.66049 0.0
H1825 H 0.63635 0.59682 0.64491 0.0
H1826 H 0.65348 0.59326 0.65913 0.0
H1827 H 0.66237 0.61014 0.63866 0.0
H1828 H 0.693 0.6091 0.6316 0.0
H1829 H 0.72049 0.62213 0.65447 0.0
H1830 H 0.0782 0.60547 0.0315 0.0
H1831 H 0.09334 0.63261 0.05362 0.0
H1832 H 0.06673 0.59175 0.10214 0.0
H1833 H 0.0518 0.56455 0.08025 0.0
H1834 H 0.06059 0.62348 0.10205 0.0
H1835 H 0.14013 0.64827 0.09103 0.0
H1836 H 0.12644 0.64587 0.06941 0.0
H1837 H 0.12008 0.6245 0.08414 0.0
C1838 C 0.07582 0.60223 0.0469 0.0
C1839 C 0.06374 0.58283 0.05409 0.0
C1840 C 0.08447 0.61776 0.0595 0.0
C1841 C 0.08127 0.61415 0.07951 0.0
C1842 C 0.06936 0.59483 0.08674 0.0
H1843 H 0.13798 0.68961 0.17541 0.0
H1844 H 0.1256 0.66416 0.15145 0.0
C1845 C 0.06075 0.57932 0.07419 0.0
C1846 C 0.08966 0.63049 0.09295 0.0
H1847 H 0.13324 0.6677 0.11051 0.0
C1848 C 0.07647 0.63318 0.10389 0.0
C1849 C 0.11037 0.64297 0.09542 0.0
C1850 C 0.12514 0.64024 0.08452 0.0
C1851 C 0.08345 0.6481 0.11721 0.0
C1852 C 0.10416 0.66079 0.11945 0.0
C1853 C 0.11737 0.65803 0.10861 0.0
C1854 C 0.11236 0.67668 0.1334 0.0
C1855 C 0.06859 0.64992 0.12906 0.0
C1856 C 0.10922 0.69225 0.13102 0.0
C1857 C 0.11633 0.70682 0.14463 0.0
C1858 C 0.12692 0.7062 0.16074 0.0
C1859 C 0.13017 0.69064 0.16298 0.0
C1860 C 0.12308 0.6761 0.14934 0.0
H1861 H 0.05352 0.6365 0.12874 0.0
H1862 H 0.07334 0.65284 0.14432 0.0
H1863 H 0.06759 0.66237 0.12315 0.0
H1864 H 0.10113 0.69305 0.11871 0.0
H1865 H 0.11339 0.71849 0.14268 0.0
loop_
_geom_bond_atom_site_label_1
_geom_bond_atom_site_label_2
_geom_bond_distance
_geom_bond_site_symmetry_2
_ccdc_geom_bond_type
C0 C1 1.443 . S
C0 N4 1.376 1_556 S
C0 C38 1.389 . S
C1 C0 1.443 . S
C1 C2 1.340 1_556 S
C1 H41 0.951 . S
C2 C1 1.340 1_554 S
C2 C3 1.439 . S
C2 H42 0.950 . S
C3 C2 1.439 . S
C3 N4 1.374 . S
C3 C37 1.395 . S
N4 C0 1.376 1_554 S
N4 C3 1.374 . S
N4 Co5 2.010 1_655 S
Co5 N4 2.010 1_455 S
Co5 N6 2.038 . S
Co5 N11 2.008 . S
Co5 N16 1.952 1_554 S
Co5 N21 2.317 . S
Co5 N27 2.249 1_554 S
N6 Co5 2.038 . S
N6 C7 1.376 1_455 S
N6 C10 1.383 . S
C7 N6 1.376 1_655 S
C7 C8 1.446 . S
C7 C37 1.391 . S
C8 C7 1.446 . S
C8 C9 1.339 1_655 S
C8 H43 0.949 . S
C9 C8 1.339 1_455 S
C9 C10 1.439 . S
C9 H44 0.950 . S
C10 N6 1.383 . S
C10 C9 1.439 . S
C10 C39 1.392 . S
N11 Co5 2.008 . S
N11 C12 1.380 . S
N11 C15 1.371 1_554 S
C12 N11 1.380 . S
C12 C13 1.443 . S
C12 C39 1.389 . S
C13 C12 1.443 . S
C13 C14 1.340 1_554 S
C13 H45 0.951 . S
C14 C13 1.340 1_556 S
C14 C15 1.439 . S
C14 H46 0.950 . S
C15 N11 1.371 1_556 S
C15 C14 1.439 . S
C15 C40 1.395 . S
N16 Co5 1.952 1_556 S
N16 C17 1.376 . S
N16 C20 1.383 . S
C17 N16 1.376 . S
C17 C18 1.446 . S
C17 C40 1.391 . S
C18 C17 1.446 . S
C18 C19 1.339 . S
C18 H47 0.949 . S
C19 C18 1.339 . S
C19 C20 1.439 . S
C19 H48 0.950 . S
C20 N16 1.383 . S
C20 C19 1.439 . S
C20 C38 1.392 1_455 S
N21 Co5 2.317 . S
N21 C24 1.332 . S
N21 C26 1.332 . S
C22 C23 1.386 . S
C22 C25 1.388 . S
C23 C22 1.386 . S
C23 C24 1.382 . S
C23 H49 0.950 . S
C24 N21 1.332 . S
C24 C23 1.382 . S
C24 H35 0.952 . S
C25 C22 1.388 . S
C25 C26 1.382 . S
C25 H50 0.950 . S
C26 N21 1.332 . S
C26 C25 1.382 . S
C26 H36 0.948 . S
N27 Co5 2.249 1_556 S
N27 C31 1.332 1_455 S
N27 C32 1.332 . S
C28 C29 1.388 1_455 S
C28 C32 1.382 . S
C28 H51 0.950 . S
C29 C28 1.388 1_655 S
C29 C30 1.386 . S
C30 C29 1.386 . S
C30 C31 1.382 . S
C30 H52 0.950 . S
C31 N27 1.332 1_655 S
C31 C30 1.382 . S
C31 H33 0.960 . S
C32 N27 1.332 . S
C32 C28 1.382 . S
C32 H34 0.948 . S
H33 C31 0.960 . S
H34 C32 0.948 . S
H35 C24 0.952 . S
H36 C26 0.948 . S
C37 C3 1.395 . S
C37 C7 1.391 . S
C38 C0 1.389 . S
C38 C20 1.392 1_655 S
C39 C10 1.392 . S
C39 C12 1.389 . S
C40 C15 1.395 . S
C40 C17 1.391 . S
H41 C1 0.951 . S
H42 C2 0.950 . S
H43 C8 0.949 . S
H44 C9 0.950 . S
H45 C13 0.951 . S
H46 C14 0.950 . S
H47 C18 0.949 . S
H48 C19 0.950 . S
H49 C23 0.950 . S
H50 C25 0.950 . S
H51 C28 0.950 . S
H52 C30 0.950 . S
C53 C54 1.443 . S
C53 N57 1.376 . S
C53 C91 1.389 . S
C54 C53 1.443 . S
C54 C55 1.340 1_545 S
C54 H94 0.951 . S
C55 C54 1.340 1_565 S
C55 C56 1.439 . S
C55 H95 0.950 . S
C56 C55 1.439 . S
C56 N57 1.374 1_565 S
C56 C90 1.395 . S
N57 C53 1.376 . S
N57 C56 1.374 1_545 S
N57 Co58 2.008 . S
Co58 N57 2.008 . S
Co58 N59 1.995 1_545 S
Co58 N64 2.008 . S
Co58 N69 1.995 . S
Co58 N74 2.282 1_545 S
Co58 N80 2.282 . S
N59 Co58 1.995 1_565 S
N59 C60 1.376 . S
N59 C63 1.383 . S
C60 N59 1.376 . S
C60 C61 1.446 . S
C60 C90 1.391 . S
C61 C60 1.446 . S
C61 C62 1.339 . S
C61 H96 0.949 . S
C62 C61 1.339 . S
C62 C63 1.439 . S
C62 H97 0.950 . S
C63 N59 1.383 . S
C63 C62 1.439 . S
C63 C92 1.392 . S
N64 Co58 2.008 . S
N64 C65 1.391 . S
N64 C68 1.374 . S
C65 N64 1.391 . S
C65 C66 1.464 . S
C65 C92 1.359 1_545 S
C66 C65 1.464 . S
C66 C67 1.340 . S
C66 H98 0.951 . S
C67 C66 1.340 . S
C67 C68 1.439 . S
C67 H99 0.950 . S
C68 N64 1.374 . S
C68 C67 1.439 . S
C68 C93 1.395 . S
N69 Co58 1.995 . S
N69 C70 1.376 . S
N69 C73 1.383 . S
C70 N69 1.376 . S
C70 C71 1.446 . S
C70 C93 1.391 . S
C71 C70 1.446 . S
C71 C72 1.339 . S
C71 H100 0.949 . S
C72 C71 1.339 . S
C72 C73 1.439 . S
C72 H101 0.950 . S
C73 N69 1.383 . S
C73 C72 1.439 . S
C73 C91 1.392 . S
N74 Co58 2.282 1_565 S
N74 C77 1.328 1_565 S
N74 C79 1.332 . S
C75 C76 1.386 . S
C75 C78 1.388 . S
C76 C75 1.386 . S
C76 C77 1.357 1_565 S
C76 H102 0.950 . S
C77 N74 1.328 1_545 S
C77 C76 1.357 1_545 S
C77 H88 0.983 . S
C78 C75 1.388 . S
C78 C79 1.382 . S
C78 H103 0.950 . S
C79 N74 1.332 . S
C79 C78 1.382 . S
C79 H89 0.948 . S
N80 Co58 2.282 . S
N80 C84 1.332 . S
N80 C85 1.332 . S
C81 C82 1.388 . S
C81 C85 1.382 . S
C81 H104 0.950 . S
C82 C81 1.388 . S
C82 C83 1.386 . S
C83 C82 1.386 . S
C83 C84 1.382 . S
C83 H105 0.950 . S
C84 N80 1.332 . S
C84 C83 1.382 . S
C84 H86 0.946 . S
C85 N80 1.332 . S
C85 C81 1.382 . S
C85 H87 0.948 . S
H86 C84 0.946 . S
H87 C85 0.948 . S
H88 C77 0.983 . S
H89 C79 0.948 . S
C90 C56 1.395 . S
C90 C60 1.391 . S
C91 C53 1.389 . S
C91 C73 1.392 . S
C92 C63 1.392 . S
C92 C65 1.359 1_565 S
C93 C68 1.395 . S
C93 C70 1.391 . S
H94 C54 0.951 . S
H95 C55 0.950 . S
H96 C61 0.949 . S
H97 C62 0.950 . S
H98 C66 0.951 . S
H99 C67 0.950 . S
H100 C71 0.949 . S
H101 C72 0.950 . S
H102 C76 0.950 . S
H103 C78 0.950 . S
H104 C81 0.950 . S
H105 C83 0.950 . S
C106 C107 1.443 . S
C106 N110 1.376 . S
C106 C144 1.389 . S
C107 C106 1.443 . S
C107 C108 1.340 . S
C107 H147 0.951 . S
C108 C107 1.340 . S
C108 C109 1.439 . S
C108 H148 0.950 . S
C109 C108 1.439 . S
C109 N110 1.374 . S
C109 C143 1.395 . S
N110 C106 1.376 . S
N110 C109 1.374 . S
N110 Co111 2.008 1_556 S
Co111 N110 2.008 1_554 S
Co111 N112 1.995 . S
Co111 N117 2.008 . S
Co111 N122 1.995 . S
Co111 N127 2.282 . S
Co111 N133 2.282 1_554 S
N112 Co111 1.995 . S
N112 C113 1.376 1_554 S
N112 C116 1.383 . S
C113 N112 1.376 1_556 S
C113 C114 1.437 1_556 S
C113 C143 1.391 . S
C114 C113 1.437 1_554 S
C114 C115 1.376 . S
C114 H149 0.927 1_554 S
C115 C114 1.376 . S
C115 C116 1.439 . S
C115 H150 0.950 . S
C116 N112 1.383 . S
C116 C115 1.439 . S
C116 C145 1.392 . S
N117 Co111 2.008 . S
N117 C118 1.376 . S
N117 C121 1.374 . S
C118 N117 1.376 . S
C118 C119 1.443 . S
C118 C145 1.389 . S
C119 C118 1.443 . S
C119 C120 1.340 . S
C119 H151 0.951 . S
C120 C119 1.340 . S
C120 C121 1.439 . S
C120 H152 0.950 . S
C121 N117 1.374 . S
C121 C120 1.439 . S
C121 C146 1.395 . S
N122 Co111 1.995 . S
N122 C123 1.376 . S
N122 C126 1.383 . S
C123 N122 1.376 . S
C123 C124 1.446 . S
C123 C146 1.391 . S
C124 C123 1.446 . S
C124 C125 1.339 . S
C124 H153 0.949 . S
C125 C124 1.339 . S
C125 C126 1.439 . S
C125 H154 0.954 . S
C126 N122 1.383 . S
C126 C125 1.439 . S
C126 C144 1.392 1_554 S
N127 Co111 2.282 . S
N127 C130 1.332 . S
N127 C132 1.332 . S
C128 C129 1.386 . S
C128 C131 1.388 . S
C129 C128 1.386 . S
C129 C130 1.382 . S
C129 H155 0.950 . S
C130 N127 1.332 . S
C130 C129 1.382 . S
C130 H141 0.952 . S
C131 C128 1.388 . S
C131 C132 1.382 . S
C131 H156 0.950 . S
C132 N127 1.332 . S
C132 C131 1.382 . S
C132 H142 0.948 . S
N133 Co111 2.282 1_556 S
N133 C137 1.332 . S
N133 C138 1.332 . S
C134 C135 1.388 . S
C134 C138 1.382 . S
C134 H157 0.950 . S
C135 C134 1.388 . S
C135 C136 1.386 . S
C136 C135 1.386 . S
C136 C137 1.382 . S
C136 H158 0.950 . S
C137 N133 1.332 . S
C137 C136 1.382 . S
C137 H139 0.952 . S
C138 N133 1.332 . S
C138 C134 1.382 . S
C138 H140 0.948 1_556 S
H139 C137 0.952 . S
H140 C138 0.948 1_554 S
H141 C130 0.952 . S
H142 C132 0.948 . S
C143 C109 1.395 . S
C143 C113 1.391 . S
C144 C106 1.389 . S
C144 C126 1.392 1_556 S
C145 C116 1.392 . S
C145 C118 1.389 . S
C146 C121 1.395 . S
C146 C123 1.391 . S
H147 C107 0.951 . S
H148 C108 0.950 . S
H149 C114 0.927 1_556 S
H150 C115 0.950 . S
H151 C119 0.951 . S
H152 C120 0.950 . S
H153 C124 0.949 . S
H154 C125 0.954 . S
H155 C129 0.950 . S
H156 C131 0.950 . S
H157 C134 0.950 . S
H158 C136 0.950 . S
C159 C160 1.443 . S
C159 N163 1.376 . S
C159 C197 1.389 . S
C160 C159 1.443 . S
C160 C161 1.340 . S
C160 H200 0.951 . S
C161 C160 1.340 . S
C161 C162 1.439 . S
C161 H201 0.950 . S
C162 C161 1.439 . S
C162 N163 1.374 . S
C162 C196 1.395 . S
N163 C159 1.376 . S
N163 C162 1.374 . S
N163 Co164 2.008 1_655 S
Co164 N163 2.008 1_455 S
Co164 N165 1.995 1_455 S
Co164 N170 2.008 . S
Co164 N175 1.995 . S
Co164 N180 2.282 . S
Co164 N186 2.282 1_455 S
N165 Co164 1.995 1_655 S
N165 C166 1.376 . S
N165 C169 1.383 1_655 S
C166 N165 1.376 . S
C166 C167 1.446 . S
C166 C196 1.391 . S
C167 C166 1.446 . S
C167 C168 1.339 . S
C167 H202 0.949 . S
C168 C167 1.339 . S
C168 C169 1.439 1_655 S
C168 H203 0.950 1_655 S
C169 N165 1.383 1_455 S
C169 C168 1.439 1_455 S
C169 C198 1.392 . S
N170 Co164 2.008 . S
N170 C171 1.376 . S
N170 C174 1.374 . S
C171 N170 1.376 . S
C171 C172 1.443 . S
C171 C198 1.389 . S
C172 C171 1.443 . S
C172 C173 1.340 . S
C172 H204 0.951 . S
C173 C172 1.340 . S
C173 C174 1.439 . S
C173 H205 0.950 . S
C174 N170 1.374 . S
C174 C173 1.439 . S
C174 C199 1.395 . S
N175 Co164 1.995 . S
N175 C176 1.376 . S
N175 C179 1.383 1_455 S
C176 N175 1.376 . S
C176 C177 1.446 . S
C176 C199 1.391 . S
C177 C176 1.446 . S
C177 C178 1.339 . S
C177 H206 0.949 . S
C178 C177 1.339 . S
C178 C179 1.439 1_455 S
C178 H207 0.950 1_455 S
C179 N175 1.383 1_655 S
C179 C178 1.439 1_655 S
C179 C197 1.392 . S
N180 Co164 2.282 . S
N180 C183 1.332 . S
N180 C185 1.332 . S
C181 C182 1.386 . S
C181 C184 1.388 . S
C182 C181 1.386 . S
C182 C183 1.382 . S
C182 H208 0.950 . S
C183 N180 1.332 . S
C183 C182 1.382 . S
C183 H194 0.952 . S
C184 C181 1.388 . S
C184 C185 1.382 . S
C184 H209 0.950 . S
C185 N180 1.332 . S
C185 C184 1.382 . S
C185 H195 0.948 1_455 S
N186 Co164 2.282 1_655 S
N186 C190 1.332 . S
N186 C191 1.332 . S
C187 C188 1.388 . S
C187 C191 1.382 . S
C187 H210 0.950 . S
C188 C187 1.388 . S
C188 C189 1.386 . S
C189 C188 1.386 . S
C189 C190 1.382 . S
C189 H211 0.950 . S
C190 N186 1.332 . S
C190 C189 1.382 . S
C190 H192 0.952 . S
C191 N186 1.332 . S
C191 C187 1.382 . S
C191 H193 0.948 1_655 S
H192 C190 0.952 . S
H193 C191 0.948 1_455 S
H194 C183 0.952 . S
H195 C185 0.948 1_655 S
C196 C162 1.395 . S
C196 C166 1.391 . S
C197 C159 1.389 . S
C197 C179 1.392 . S
C198 C169 1.392 . S
C198 C171 1.389 . S
C199 C174 1.395 . S
C199 C176 1.391 . S
H200 C160 0.951 . S
H201 C161 0.950 . S
H202 C167 0.949 . S
H203 C168 0.950 1_455 S
H204 C172 0.951 . S
H205 C173 0.950 . S
H206 C177 0.949 . S
H207 C178 0.950 1_655 S
H208 C182 0.950 . S
H209 C184 0.950 . S
H210 C187 0.950 . S
H211 C189 0.950 . S
C212 C213 1.443 . S
C212 N216 1.376 . S
C212 C250 1.389 1_545 S
C213 C212 1.443 . S
C213 C214 1.340 . S
C213 H253 0.951 . S
C214 C213 1.340 . S
C214 C215 1.439 . S
C214 H254 0.950 . S
C215 C214 1.439 . S
C215 N216 1.374 . S
C215 C249 1.395 . S
N216 C212 1.376 . S
N216 C215 1.374 . S
N216 Co217 2.008 . S
Co217 N216 2.008 . S
Co217 N218 1.995 . S
Co217 N223 2.008 1_554 S
Co217 N228 1.995 1_545 S
Co217 N233 2.282 1_554 S
Co217 N239 2.282 1_545 S
N218 Co217 1.995 . S
N218 C219 1.376 . S
N218 C222 1.383 1_554 S
C219 N218 1.376 . S
C219 C220 1.446 . S
C219 C249 1.391 . S
C220 C219 1.446 . S
C220 C221 1.339 . S
C220 H255 0.949 . S
C221 C220 1.339 . S
C221 C222 1.439 1_554 S
C221 H256 0.950 1_554 S
C222 N218 1.383 1_556 S
C222 C221 1.439 1_556 S
C222 C251 1.392 . S
N223 Co217 2.008 1_556 S
N223 C224 1.376 . S
N223 C227 1.374 1_545 S
C224 N223 1.376 . S
C224 C225 1.443 . S
C224 C251 1.389 . S
C225 C224 1.443 . S
C225 C226 1.340 1_545 S
C225 H257 0.951 . S
C226 C225 1.340 1_565 S
C226 C227 1.439 . S
C226 H258 0.950 . S
C227 N223 1.374 1_565 S
C227 C226 1.439 . S
C227 C252 1.395 . S
N228 Co217 1.995 1_565 S
N228 C229 1.376 1_554 S
N228 C232 1.383 . S
C229 N228 1.376 1_556 S
C229 C230 1.446 1_556 S
C229 C252 1.391 . S
C230 C229 1.446 1_554 S
C230 C231 1.339 . S
C230 H259 0.949 1_554 S
C231 C230 1.339 . S
C231 C232 1.439 . S
C231 H260 0.950 . S
C232 N228 1.383 . S
C232 C231 1.439 . S
C232 C250 1.392 . S
N233 Co217 2.282 1_556 S
N233 C236 1.332 . S
N233 C238 1.332 . S
C234 C235 1.386 . S
C234 C237 1.388 . S
C235 C234 1.386 . S
C235 C236 1.382 . S
C235 H261 0.950 . S
C236 N233 1.332 . S
C236 C235 1.382 . S
C236 H247 0.952 . S
C237 C234 1.388 . S
C237 C238 1.382 . S
C237 H262 0.950 . S
C238 N233 1.332 . S
C238 C237 1.382 . S
C238 H248 0.948 1_556 S
N239 Co217 2.282 1_565 S
N239 C243 1.332 1_565 S
N239 C244 1.332 . S
C240 C241 1.388 . S
C240 C244 1.382 . S
C240 H263 0.950 . S
C241 C240 1.388 . S
C241 C242 1.386 . S
C242 C241 1.386 . S
C242 C243 1.382 1_565 S
C242 H264 0.957 . S
C243 N239 1.332 1_545 S
C243 C242 1.382 1_545 S
C243 H245 0.952 . S
C244 N239 1.332 . S
C244 C240 1.382 . S
C244 H246 0.948 . S
H245 C243 0.952 . S
H246 C244 0.948 . S
H247 C236 0.952 . S
H248 C238 0.948 1_554 S
C249 C215 1.395 . S
C249 C219 1.391 . S
C250 C212 1.389 1_565 S
C250 C232 1.392 . S
C251 C222 1.392 . S
C251 C224 1.389 . S
C252 C227 1.395 . S
C252 C229 1.391 . S
H253 C213 0.951 . S
H254 C214 0.950 . S
H255 C220 0.949 . S
H256 C221 0.950 1_556 S
H257 C225 0.951 . S
H258 C226 0.950 . S
H259 C230 0.949 1_556 S
H260 C231 0.950 . S
H261 C235 0.950 . S
H262 C237 0.950 . S
H263 C240 0.950 . S
H264 C242 0.957 . S
C265 C266 1.443 . S
C265 N269 1.376 . S
C265 C303 1.389 . S
C266 C265 1.443 . S
C266 C267 1.340 . S
C266 H306 0.951 . S
C267 C266 1.340 . S
C267 C268 1.439 . S
C267 H307 0.950 . S
C268 C267 1.439 . S
C268 N269 1.374 . S
C268 C302 1.395 . S
N269 C265 1.376 . S
N269 C268 1.374 . S
N269 Co270 2.008 . S
Co270 N269 2.008 . S
Co270 N271 1.995 . S
Co270 N276 2.008 . S
Co270 N281 1.995 . S
Co270 N286 2.282 . S
Co270 N292 2.282 . S
N271 Co270 1.995 . S
N271 C272 1.376 . S
N271 C275 1.383 . S
C272 N271 1.376 . S
C272 C273 1.446 . S
C272 C302 1.391 . S
C273 C272 1.446 . S
C273 C274 1.339 . S
C273 H308 0.949 . S
C274 C273 1.339 . S
C274 C275 1.439 . S
C274 H309 0.950 . S
C275 N271 1.383 . S
C275 C274 1.439 . S
C275 C304 1.392 . S
N276 Co270 2.008 . S
N276 C277 1.376 . S
N276 C280 1.374 . S
C277 N276 1.376 . S
C277 C278 1.443 . S
C277 C304 1.389 . S
C278 C277 1.443 . S
C278 C279 1.340 . S
C278 H310 0.951 . S
C279 C278 1.340 . S
C279 C280 1.439 . S
C279 H311 0.950 . S
C280 N276 1.374 . S
C280 C279 1.439 . S
C280 C305 1.395 . S
N281 Co270 1.995 . S
N281 C282 1.376 . S
N281 C285 1.383 . S
C282 N281 1.376 . S
C282 C283 1.446 . S
C282 C305 1.391 . S
C283 C282 1.446 . S
C283 C284 1.339 . S
C283 H312 0.949 . S
C284 C283 1.339 . S
C284 C285 1.439 . S
C284 H313 0.950 . S
C285 N281 1.383 . S
C285 C284 1.439 . S
C285 C303 1.392 . S
N286 Co270 2.282 . S
N286 C289 1.332 . S
N286 C291 1.332 . S
C287 C288 1.386 . S
C287 C290 1.388 . S
C288 C287 1.386 . S
C288 C289 1.382 . S
C288 H314 0.950 . S
C289 N286 1.332 . S
C289 C288 1.382 . S
C289 H300 0.952 . S
C290 C287 1.388 . S
C290 C291 1.382 . S
C290 H315 0.950 . S
C291 N286 1.332 . S
C291 C290 1.382 . S
C291 H301 0.948 . S
N292 Co270 2.282 . S
N292 C296 1.332 . S
N292 C297 1.332 . S
C293 C294 1.388 . S
C293 C297 1.382 . S
C293 H316 0.950 . S
C294 C293 1.388 . S
C294 C295 1.386 . S
C295 C294 1.386 . S
C295 C296 1.382 . S
C295 H317 0.950 . S
C296 N292 1.332 . S
C296 C295 1.382 . S
C296 H298 0.952 . S
C297 N292 1.332 . S
C297 C293 1.382 . S
C297 H299 0.948 . S
H298 C296 0.952 . S
H299 C297 0.948 . S
H300 C289 0.952 . S
H301 C291 0.948 . S
C302 C268 1.395 . S
C302 C272 1.391 . S
C303 C265 1.389 . S
C303 C285 1.392 . S
C304 C275 1.392 . S
C304 C277 1.389 . S
C305 C280 1.395 . S
C305 C282 1.391 . S
H306 C266 0.951 . S
H307 C267 0.950 . S
H308 C273 0.949 . S
H309 C274 0.950 . S
H310 C278 0.951 . S
H311 C279 0.950 . S
H312 C283 0.949 . S
H313 C284 0.950 . S
H314 C288 0.950 . S
H315 C290 0.950 . S
H316 C293 0.950 . S
H317 C295 0.950 . S
C318 C319 1.560 . S
C318 H379 0.959 . S
C318 H380 0.959 . S
C318 H381 0.960 . S
C319 C318 1.560 . S
C319 O374 1.426 . S
C319 H378 0.980 . S
C320 C321 1.407 . S
C320 C325 1.418 . S
C320 O374 1.334 . S
C321 C320 1.407 . S
C321 C322 1.360 . S
C321 H382 0.929 . S
C322 C321 1.360 . S
C322 C323 1.401 . S
C322 C326 1.527 . S
C323 C322 1.401 . S
C323 C324 1.405 . S
C323 C356 1.587 . S
C324 C323 1.405 . S
C324 C325 1.332 . S
C324 C327 1.496 . S
C325 C320 1.418 . S
C325 C324 1.332 . S
C325 H383 0.929 . S
C326 C322 1.527 . S
C326 H384 0.959 . S
C326 H385 0.961 . S
C326 H386 0.961 . S
C327 C324 1.496 . S
C327 H387 0.960 . S
C327 H388 0.960 . S
C327 H389 0.961 . S
C328 C329 1.517 . S
C328 H391 0.961 . S
C328 H392 0.960 . S
C328 H393 0.959 . S
C329 C328 1.517 . S
C329 O377 1.468 . S
C329 H390 0.980 . S
C330 C331 1.349 . S
C330 C335 1.367 . S
C330 O377 1.408 . S
C331 C330 1.349 . S
C331 C332 1.407 . S
C331 H394 0.930 . S
C332 C331 1.407 . S
C332 C333 1.449 . S
C332 C336 1.535 . S
C333 C332 1.449 . S
C333 C334 1.384 . S
C333 C358 1.553 . S
C334 C333 1.384 . S
C334 C335 1.364 . S
C334 C337 1.450 . S
C335 C330 1.367 . S
C335 C334 1.364 . S
C335 H395 0.931 . S
C336 C332 1.535 . S
C336 H396 0.959 . S
C336 H397 0.961 . S
C336 H398 0.959 . S
C337 C334 1.450 . S
C337 H399 0.960 . S
C337 H400 0.960 . S
C337 H401 0.960 . S
C338 C339 1.309 . S
C338 C343 1.304 . S
C338 O376 1.435 . S
C339 C338 1.309 . S
C339 C340 1.476 . S
C339 H403 0.930 . S
C340 C339 1.476 . S
C340 C341 1.400 . S
C340 C344 1.567 . S
C341 C340 1.400 . S
C341 C342 1.373 . S
C341 C363 1.432 . S
C342 C341 1.373 . S
C342 C343 1.339 . S
C342 C345 1.530 . S
C343 C338 1.304 . S
C343 C342 1.339 . S
C343 H404 0.930 . S
C344 C340 1.567 . S
C344 H405 0.961 . S
C344 H406 0.960 . S
C344 H407 0.958 . S
C345 C342 1.530 . S
C345 H408 0.961 . S
C345 H409 0.960 . S
C345 H410 0.960 . S
C346 C347 1.530 . S
C346 H412 0.961 . S
C346 H413 0.961 . S
C346 H414 0.959 . S
C347 C346 1.530 . S
C347 O375 1.412 . S
C347 H411 0.980 . S
C348 C349 1.288 . S
C348 C353 1.377 . S
C348 O375 1.393 . S
C349 C348 1.288 . S
C349 C350 1.369 . S
C349 H415 0.932 . S
C350 C349 1.369 . S
C350 C351 1.398 . S
C350 C354 1.527 . S
C351 C350 1.398 . S
C351 C352 1.380 . S
C351 C365 1.497 . S
C352 C351 1.380 . S
C352 C353 1.383 . S
C352 C355 1.603 . S
C353 C348 1.377 . S
C353 C352 1.383 . S
C353 H416 0.929 . S
C354 C350 1.527 . S
C354 H417 0.961 . S
C354 H418 0.959 . S
C354 H419 0.959 . S
C355 C352 1.603 . S
C355 H420 0.960 . S
C355 H421 0.962 . S
C355 H422 0.961 . S
C356 C323 1.587 . S
C356 C357 1.360 . S
C356 C369 1.412 . S
C357 C356 1.360 . S
C357 C358 1.365 . S
C357 H423 0.929 . S
C358 C333 1.553 . S
C358 C357 1.365 . S
C358 C359 1.404 . S
C359 C358 1.404 . S
C359 C360 1.395 . S
C359 C370 1.451 . S
C360 C359 1.395 . S
C360 C361 1.322 . S
C360 H424 0.930 . S
C361 C360 1.322 . S
C361 C362 1.459 . S
C361 H425 0.929 . S
C362 C361 1.459 . S
C362 C363 1.445 . S
C362 C371 1.395 . S
C363 C341 1.432 . S
C363 C362 1.445 . S
C363 C364 1.370 . S
C364 C363 1.370 . S
C364 C365 1.438 . S
C364 H426 0.930 . S
C365 C351 1.497 . S
C365 C364 1.438 . S
C365 C366 1.360 . S
C366 C365 1.360 . S
C366 C367 1.401 . S
C366 C371 1.446 . S
C367 C366 1.401 . S
C367 C368 1.347 . S
C367 H427 0.929 . S
C368 C367 1.347 . S
C368 C369 1.455 . S
C368 H428 0.930 . S
C369 C356 1.412 . S
C369 C368 1.455 . S
C369 C370 1.331 . S
C370 C359 1.451 . S
C370 C369 1.331 . S
C370 C371 1.497 . S
C371 C362 1.395 . S
C371 C366 1.446 . S
C371 C370 1.497 . S
C372 C373 1.582 . S
C372 H429 0.962 . S
C372 H430 0.959 . S
C372 H431 0.958 . S
C373 C372 1.582 . S
C373 O376 1.458 . S
C373 H402 0.980 . S
O374 C319 1.426 . S
O374 C320 1.334 . S
O375 C347 1.412 . S
O375 C348 1.393 . S
O376 C338 1.435 . S
O376 C373 1.458 . S
O377 C329 1.468 . S
O377 C330 1.408 . S
H378 C319 0.980 . S
H379 C318 0.959 . S
H380 C318 0.959 . S
H381 C318 0.960 . S
H382 C321 0.929 . S
H383 C325 0.929 . S
H384 C326 0.959 . S
H385 C326 0.961 . S
H386 C326 0.961 . S
H387 C327 0.960 . S
H388 C327 0.960 . S
H389 C327 0.961 . S
H390 C329 0.980 . S
H391 C328 0.961 . S
H392 C328 0.960 . S
H393 C328 0.959 . S
H394 C331 0.930 . S
H395 C335 0.931 . S
H396 C336 0.959 . S
H397 C336 0.961 . S
H398 C336 0.959 . S
H399 C337 0.960 . S
H400 C337 0.960 . S
H401 C337 0.960 . S
H402 C373 0.980 . S
H403 C339 0.930 . S
H404 C343 0.930 . S
H405 C344 0.961 . S
H406 C344 0.960 . S
H407 C344 0.958 . S
H408 C345 0.961 . S
H409 C345 0.960 . S
H410 C345 0.960 . S
H411 C347 0.980 . S
H412 C346 0.961 . S
H413 C346 0.961 . S
H414 C346 0.959 . S
H415 C349 0.932 . S
H416 C353 0.929 . S
H417 C354 0.961 . S
H418 C354 0.959 . S
H419 C354 0.959 . S
H420 C355 0.960 . S
H421 C355 0.962 . S
H422 C355 0.961 . S
H423 C357 0.929 . S
H424 C360 0.930 . S
H425 C361 0.929 . S
H426 C364 0.930 . S
H427 C367 0.929 . S
H428 C368 0.930 . S
H429 C372 0.962 . S
H430 C372 0.959 . S
H431 C372 0.958 . S
C432 C433 1.560 . S
C432 H493 0.959 . S
C432 H494 0.959 . S
C432 H495 0.960 . S
C433 C432 1.560 . S
C433 O488 1.426 . S
C433 H492 0.980 . S
C434 C435 1.407 . S
C434 C439 1.418 . S
C434 O488 1.334 . S
C435 C434 1.407 . S
C435 C436 1.360 . S
C435 H496 0.929 . S
C436 C435 1.360 . S
C436 C437 1.401 . S
C436 C440 1.527 . S
C437 C436 1.401 . S
C437 C438 1.405 . S
C437 C470 1.587 . S
C438 C437 1.405 . S
C438 C439 1.332 . S
C438 C441 1.496 . S
C439 C434 1.418 . S
C439 C438 1.332 . S
C439 H497 0.929 . S
C440 C436 1.527 . S
C440 H498 0.959 . S
C440 H499 0.961 . S
C440 H500 0.961 . S
C441 C438 1.496 . S
C441 H501 0.960 . S
C441 H502 0.960 . S
C441 H503 0.961 . S
C442 C443 1.517 . S
C442 H505 0.961 . S
C442 H506 0.960 . S
C442 H507 0.959 . S
C443 C442 1.517 . S
C443 O491 1.468 . S
C443 H504 0.980 . S
C444 C445 1.349 . S
C444 C449 1.367 . S
C444 O491 1.408 . S
C445 C444 1.349 . S
C445 C446 1.407 . S
C445 H508 0.930 . S
C446 C445 1.407 . S
C446 C447 1.449 . S
C446 C450 1.535 . S
C447 C446 1.449 . S
C447 C448 1.384 . S
C447 C472 1.553 . S
C448 C447 1.384 . S
C448 C449 1.364 . S
C448 C451 1.450 . S
C449 C444 1.367 . S
C449 C448 1.364 . S
C449 H509 0.931 . S
C450 C446 1.535 . S
C450 H510 0.959 . S
C450 H511 0.961 . S
C450 H512 0.959 . S
C451 C448 1.450 . S
C451 H513 0.960 . S
C451 H514 0.960 . S
C451 H515 0.960 . S
C452 C453 1.309 . S
C452 C457 1.304 . S
C452 O490 1.435 . S
C453 C452 1.309 . S
C453 C454 1.476 . S
C453 H517 0.930 . S
C454 C453 1.476 . S
C454 C455 1.400 . S
C454 C458 1.567 . S
C455 C454 1.400 . S
C455 C456 1.373 . S
C455 C477 1.432 . S
C456 C455 1.373 . S
C456 C457 1.339 . S
C456 C459 1.530 . S
C457 C452 1.304 . S
C457 C456 1.339 . S
C457 H518 0.930 . S
C458 C454 1.567 . S
C458 H519 0.961 . S
C458 H520 0.960 . S
C458 H521 0.958 . S
C459 C456 1.530 . S
C459 H522 0.961 . S
C459 H523 0.960 . S
C459 H524 0.960 . S
C460 C461 1.530 . S
C460 H526 0.961 . S
C460 H527 0.961 . S
C460 H528 0.959 . S
C461 C460 1.530 . S
C461 O489 1.412 . S
C461 H525 0.980 . S
C462 C463 1.288 . S
C462 C467 1.377 . S
C462 O489 1.393 . S
C463 C462 1.288 . S
C463 C464 1.369 . S
C463 H529 0.932 . S
C464 C463 1.369 . S
C464 C465 1.398 . S
C464 C468 1.527 . S
C465 C464 1.398 . S
C465 C466 1.380 . S
C465 C479 1.497 . S
C466 C465 1.380 . S
C466 C467 1.383 . S
C466 C469 1.603 . S
C467 C462 1.377 . S
C467 C466 1.383 . S
C467 H530 0.929 . S
C468 C464 1.527 . S
C468 H531 0.961 . S
C468 H532 0.959 . S
C468 H533 0.959 . S
C469 C466 1.603 . S
C469 H534 0.960 . S
C469 H535 0.962 . S
C469 H536 0.961 . S
C470 C437 1.587 . S
C470 C471 1.360 . S
C470 C483 1.412 . S
C471 C470 1.360 . S
C471 C472 1.365 . S
C471 H537 0.929 . S
C472 C447 1.553 . S
C472 C471 1.365 . S
C472 C473 1.404 . S
C473 C472 1.404 . S
C473 C474 1.395 . S
C473 C484 1.451 . S
C474 C473 1.395 . S
C474 C475 1.322 . S
C474 H538 0.930 . S
C475 C474 1.322 . S
C475 C476 1.459 . S
C475 H539 0.929 . S
C476 C475 1.459 . S
C476 C477 1.445 . S
C476 C485 1.395 . S
C477 C455 1.432 . S
C477 C476 1.445 . S
C477 C478 1.370 . S
C478 C477 1.370 . S
C478 C479 1.438 . S
C478 H540 0.930 . S
C479 C465 1.497 . S
C479 C478 1.438 . S
C479 C480 1.360 . S
C480 C479 1.360 . S
C480 C481 1.401 . S
C480 C485 1.446 . S
C481 C480 1.401 . S
C481 C482 1.347 . S
C481 H541 0.929 . S
C482 C481 1.347 . S
C482 C483 1.455 . S
C482 H542 0.930 . S
C483 C470 1.412 . S
C483 C482 1.455 . S
C483 C484 1.331 . S
C484 C473 1.451 . S
C484 C483 1.331 . S
C484 C485 1.497 . S
C485 C476 1.395 . S
C485 C480 1.446 . S
C485 C484 1.497 . S
C486 C487 1.582 . S
C486 H543 0.962 . S
C486 H544 0.959 . S
C486 H545 0.958 . S
C487 C486 1.582 . S
C487 O490 1.458 . S
C487 H516 0.980 . S
O488 C433 1.426 . S
O488 C434 1.334 . S
O489 C461 1.412 . S
O489 C462 1.393 . S
O490 C452 1.435 . S
O490 C487 1.458 . S
O491 C443 1.468 . S
O491 C444 1.408 . S
H492 C433 0.980 . S
H493 C432 0.959 . S
H494 C432 0.959 . S
H495 C432 0.960 . S
H496 C435 0.929 . S
H497 C439 0.929 . S
H498 C440 0.959 . S
H499 C440 0.961 . S
H500 C440 0.961 . S
H501 C441 0.960 . S
H502 C441 0.960 . S
H503 C441 0.961 . S
H504 C443 0.980 . S
H505 C442 0.961 . S
H506 C442 0.960 . S
H507 C442 0.959 . S
H508 C445 0.930 . S
H509 C449 0.931 . S
H510 C450 0.959 . S
H511 C450 0.961 . S
H512 C450 0.959 . S
H513 C451 0.960 . S
H514 C451 0.960 . S
H515 C451 0.960 . S
H516 C487 0.980 . S
H517 C453 0.930 . S
H518 C457 0.930 . S
H519 C458 0.961 . S
H520 C458 0.960 . S
H521 C458 0.958 . S
H522 C459 0.961 . S
H523 C459 0.960 . S
H524 C459 0.960 . S
H525 C461 0.980 . S
H526 C460 0.961 . S
H527 C460 0.961 . S
H528 C460 0.959 . S
H529 C463 0.932 . S
H530 C467 0.929 . S
H531 C468 0.961 . S
H532 C468 0.959 . S
H533 C468 0.959 . S
H534 C469 0.960 . S
H535 C469 0.962 . S
H536 C469 0.961 . S
H537 C471 0.929 . S
H538 C474 0.930 . S
H539 C475 0.929 . S
H540 C478 0.930 . S
H541 C481 0.929 . S
H542 C482 0.930 . S
H543 C486 0.962 . S
H544 C486 0.959 . S
H545 C486 0.958 . S
C546 C547 1.560 . S
C546 H607 0.959 . S
C546 H608 0.959 . S
C546 H609 0.960 . S
C547 C546 1.560 . S
C547 O602 1.426 . S
C547 H606 0.980 . S
C548 C549 1.407 . S
C548 C553 1.418 . S
C548 O602 1.334 . S
C549 C548 1.407 . S
C549 C550 1.360 . S
C549 H610 0.929 . S
C550 C549 1.360 . S
C550 C551 1.401 . S
C550 C554 1.527 . S
C551 C550 1.401 . S
C551 C552 1.405 . S
C551 C584 1.587 . S
C552 C551 1.405 . S
C552 C553 1.332 . S
C552 C555 1.496 . S
C553 C548 1.418 . S
C553 C552 1.332 . S
C553 H611 0.929 . S
C554 C550 1.527 . S
C554 H612 0.959 . S
C554 H613 0.961 . S
C554 H614 0.961 . S
C555 C552 1.496 . S
C555 H615 0.960 . S
C555 H616 0.960 . S
C555 H617 0.961 . S
C556 C557 1.517 . S
C556 H619 0.961 . S
C556 H620 0.960 . S
C556 H621 0.959 . S
C557 C556 1.517 . S
C557 O605 1.468 . S
C557 H618 0.980 . S
C558 C559 1.349 . S
C558 C563 1.367 . S
C558 O605 1.408 . S
C559 C558 1.349 . S
C559 C560 1.407 . S
C559 H622 0.930 . S
C560 C559 1.407 . S
C560 C561 1.449 . S
C560 C564 1.535 . S
C561 C560 1.449 . S
C561 C562 1.384 . S
C561 C586 1.553 . S
C562 C561 1.384 . S
C562 C563 1.364 . S
C562 C565 1.450 . S
C563 C558 1.367 . S
C563 C562 1.364 . S
C563 H623 0.931 . S
C564 C560 1.535 . S
C564 H624 0.959 . S
C564 H625 0.961 . S
C564 H626 0.959 . S
C565 C562 1.450 . S
C565 H627 0.960 . S
C565 H628 0.960 . S
C565 H629 0.960 . S
C566 C567 1.309 . S
C566 C571 1.304 . S
C566 O604 1.435 . S
C567 C566 1.309 . S
C567 C568 1.476 . S
C567 H631 0.930 . S
C568 C567 1.476 . S
C568 C569 1.400 . S
C568 C572 1.567 . S
C569 C568 1.400 . S
C569 C570 1.373 . S
C569 C591 1.432 . S
C570 C569 1.373 . S
C570 C571 1.339 . S
C570 C573 1.530 . S
C571 C566 1.304 . S
C571 C570 1.339 . S
C571 H632 0.930 . S
C572 C568 1.567 . S
C572 H633 0.961 . S
C572 H634 0.960 . S
C572 H635 0.958 . S
C573 C570 1.530 . S
C573 H636 0.961 . S
C573 H637 0.960 . S
C573 H638 0.960 . S
C574 C575 1.530 . S
C574 H640 0.961 . S
C574 H641 0.961 . S
C574 H642 0.959 . S
C575 C574 1.530 . S
C575 O603 1.412 . S
C575 H639 0.980 . S
C576 C577 1.288 . S
C576 C581 1.377 . S
C576 O603 1.393 . S
C577 C576 1.288 . S
C577 C578 1.369 . S
C577 H643 0.932 . S
C578 C577 1.369 . S
C578 C579 1.398 . S
C578 C582 1.527 . S
C579 C578 1.398 . S
C579 C580 1.380 . S
C579 C593 1.497 . S
C580 C579 1.380 . S
C580 C581 1.383 . S
C580 C583 1.603 . S
C581 C576 1.377 . S
C581 C580 1.383 . S
C581 H644 0.929 . S
C582 C578 1.527 . S
C582 H645 0.961 . S
C582 H646 0.959 . S
C582 H647 0.959 . S
C583 C580 1.603 . S
C583 H648 0.960 . S
C583 H649 0.962 . S
C583 H650 0.961 . S
C584 C551 1.587 . S
C584 C585 1.360 . S
C584 C597 1.412 . S
C585 C584 1.360 . S
C585 C586 1.365 . S
C585 H651 0.929 . S
C586 C561 1.553 . S
C586 C585 1.365 . S
C586 C587 1.404 . S
C587 C586 1.404 . S
C587 C588 1.395 . S
C587 C598 1.451 . S
C588 C587 1.395 . S
C588 C589 1.322 . S
C588 H652 0.930 . S
C589 C588 1.322 . S
C589 C590 1.459 . S
C589 H653 0.929 . S
C590 C589 1.459 . S
C590 C591 1.445 . S
C590 C599 1.395 . S
C591 C569 1.432 . S
C591 C590 1.445 . S
C591 C592 1.370 . S
C592 C591 1.370 . S
C592 C593 1.438 . S
C592 H654 0.930 . S
C593 C579 1.497 . S
C593 C592 1.438 . S
C593 C594 1.360 . S
C594 C593 1.360 . S
C594 C595 1.401 . S
C594 C599 1.446 . S
C595 C594 1.401 . S
C595 C596 1.347 . S
C595 H655 0.929 . S
C596 C595 1.347 . S
C596 C597 1.455 . S
C596 H656 0.930 . S
C597 C584 1.412 . S
C597 C596 1.455 . S
C597 C598 1.331 . S
C598 C587 1.451 . S
C598 C597 1.331 . S
C598 C599 1.497 . S
C599 C590 1.395 . S
C599 C594 1.446 . S
C599 C598 1.497 . S
C600 C601 1.582 . S
C600 H657 0.962 . S
C600 H658 0.959 . S
C600 H659 0.958 . S
C601 C600 1.582 . S
C601 O604 1.458 . S
C601 H630 0.980 . S
O602 C547 1.426 . S
O602 C548 1.334 . S
O603 C575 1.412 . S
O603 C576 1.393 . S
O604 C566 1.435 . S
O604 C601 1.458 . S
O605 C557 1.468 . S
O605 C558 1.408 . S
H606 C547 0.980 . S
H607 C546 0.959 . S
H608 C546 0.959 . S
H609 C546 0.960 . S
H610 C549 0.929 . S
H611 C553 0.929 . S
H612 C554 0.959 . S
H613 C554 0.961 . S
H614 C554 0.961 . S
H615 C555 0.960 . S
H616 C555 0.960 . S
H617 C555 0.961 . S
H618 C557 0.980 . S
H619 C556 0.961 . S
H620 C556 0.960 . S
H621 C556 0.959 . S
H622 C559 0.930 . S
H623 C563 0.931 . S
H624 C564 0.959 . S
H625 C564 0.961 . S
H626 C564 0.959 . S
H627 C565 0.960 . S
H628 C565 0.960 . S
H629 C565 0.960 . S
H630 C601 0.980 . S
H631 C567 0.930 . S
H632 C571 0.930 . S
H633 C572 0.961 . S
H634 C572 0.960 . S
H635 C572 0.958 . S
H636 C573 0.961 . S
H637 C573 0.960 . S
H638 C573 0.960 . S
H639 C575 0.980 . S
H640 C574 0.961 . S
H641 C574 0.961 . S
H642 C574 0.959 . S
H643 C577 0.932 . S
H644 C581 0.929 . S
H645 C582 0.961 . S
H646 C582 0.959 . S
H647 C582 0.959 . S
H648 C583 0.960 . S
H649 C583 0.962 . S
H650 C583 0.961 . S
H651 C585 0.929 . S
H652 C588 0.930 . S
H653 C589 0.929 . S
H654 C592 0.930 . S
H655 C595 0.929 . S
H656 C596 0.930 . S
H657 C600 0.962 . S
H658 C600 0.959 . S
H659 C600 0.958 . S
C660 C661 1.560 . S
C660 H721 0.959 . S
C660 H722 0.959 . S
C660 H723 0.960 . S
C661 C660 1.560 . S
C661 O716 1.426 . S
C661 H720 0.980 . S
C662 C663 1.407 . S
C662 C667 1.418 . S
C662 O716 1.334 . S
C663 C662 1.407 . S
C663 C664 1.360 . S
C663 H724 0.929 . S
C664 C663 1.360 . S
C664 C665 1.401 . S
C664 C668 1.527 . S
C665 C664 1.401 . S
C665 C666 1.405 . S
C665 C698 1.587 . S
C666 C665 1.405 . S
C666 C667 1.332 . S
C666 C669 1.496 . S
C667 C662 1.418 . S
C667 C666 1.332 . S
C667 H725 0.929 . S
C668 C664 1.527 . S
C668 H726 0.959 . S
C668 H727 0.961 . S
C668 H728 0.961 . S
C669 C666 1.496 . S
C669 H729 0.960 . S
C669 H730 0.960 . S
C669 H731 0.961 . S
C670 C671 1.517 . S
C670 H733 0.961 . S
C670 H734 0.960 . S
C670 H735 0.959 . S
C671 C670 1.517 . S
C671 O719 1.468 . S
C671 H732 0.980 . S
C672 C673 1.349 . S
C672 C677 1.367 . S
C672 O719 1.408 . S
C673 C672 1.349 . S
C673 C674 1.407 . S
C673 H736 0.930 . S
C674 C673 1.407 . S
C674 C675 1.449 . S
C674 C678 1.535 . S
C675 C674 1.449 . S
C675 C676 1.384 . S
C675 C700 1.553 . S
C676 C675 1.384 . S
C676 C677 1.364 . S
C676 C679 1.450 . S
C677 C672 1.367 . S
C677 C676 1.364 . S
C677 H737 0.931 . S
C678 C674 1.535 . S
C678 H738 0.959 . S
C678 H739 0.961 . S
C678 H740 0.959 . S
C679 C676 1.450 . S
C679 H741 0.960 . S
C679 H742 0.960 . S
C679 H743 0.960 . S
C680 C681 1.309 . S
C680 C685 1.304 . S
C680 O718 1.435 . S
C681 C680 1.309 . S
C681 C682 1.476 . S
C681 H745 0.930 . S
C682 C681 1.476 . S
C682 C683 1.400 . S
C682 C686 1.567 . S
C683 C682 1.400 . S
C683 C684 1.373 . S
C683 C705 1.432 . S
C684 C683 1.373 . S
C684 C685 1.339 . S
C684 C687 1.530 . S
C685 C680 1.304 . S
C685 C684 1.339 . S
C685 H746 0.930 . S
C686 C682 1.567 . S
C686 H747 0.961 . S
C686 H748 0.960 . S
C686 H749 0.958 . S
C687 C684 1.530 . S
C687 H750 0.961 . S
C687 H751 0.960 . S
C687 H752 0.960 . S
C688 C689 1.530 . S
C688 H754 0.961 . S
C688 H755 0.961 . S
C688 H756 0.959 . S
C689 C688 1.530 . S
C689 O717 1.412 . S
C689 H753 0.980 . S
C690 C691 1.288 . S
C690 C695 1.377 . S
C690 O717 1.393 . S
C691 C690 1.288 . S
C691 C692 1.369 . S
C691 H757 0.932 . S
C692 C691 1.369 . S
C692 C693 1.398 . S
C692 C696 1.527 . S
C693 C692 1.398 . S
C693 C694 1.380 . S
C693 C707 1.497 . S
C694 C693 1.380 . S
C694 C695 1.383 . S
C694 C697 1.603 . S
C695 C690 1.377 . S
C695 C694 1.383 . S
C695 H758 0.929 . S
C696 C692 1.527 . S
C696 H759 0.961 . S
C696 H760 0.959 . S
C696 H761 0.959 . S
C697 C694 1.603 . S
C697 H762 0.960 . S
C697 H763 0.962 . S
C697 H764 0.961 . S
C698 C665 1.587 . S
C698 C699 1.360 . S
C698 C711 1.412 . S
C699 C698 1.360 . S
C699 C700 1.365 . S
C699 H765 0.929 . S
C700 C675 1.553 . S
C700 C699 1.365 . S
C700 C701 1.404 . S
C701 C700 1.404 . S
C701 C702 1.395 . S
C701 C712 1.451 . S
C702 C701 1.395 . S
C702 C703 1.322 . S
C702 H766 0.930 . S
C703 C702 1.322 . S
C703 C704 1.459 . S
C703 H767 0.929 . S
C704 C703 1.459 . S
C704 C705 1.445 . S
C704 C713 1.395 . S
C705 C683 1.432 . S
C705 C704 1.445 . S
C705 C706 1.370 . S
C706 C705 1.370 . S
C706 C707 1.438 . S
C706 H768 0.930 . S
C707 C693 1.497 . S
C707 C706 1.438 . S
C707 C708 1.360 . S
C708 C707 1.360 . S
C708 C709 1.401 . S
C708 C713 1.446 . S
C709 C708 1.401 . S
C709 C710 1.347 . S
C709 H769 0.929 . S
C710 C709 1.347 . S
C710 C711 1.455 . S
C710 H770 0.930 . S
C711 C698 1.412 . S
C711 C710 1.455 . S
C711 C712 1.331 . S
C712 C701 1.451 . S
C712 C711 1.331 . S
C712 C713 1.497 . S
C713 C704 1.395 . S
C713 C708 1.446 . S
C713 C712 1.497 . S
C714 C715 1.582 . S
C714 H771 0.962 . S
C714 H772 0.959 . S
C714 H773 0.958 . S
C715 C714 1.582 . S
C715 O718 1.458 . S
C715 H744 0.980 . S
O716 C661 1.426 . S
O716 C662 1.334 . S
O717 C689 1.412 . S
O717 C690 1.393 . S
O718 C680 1.435 . S
O718 C715 1.458 . S
O719 C671 1.468 . S
O719 C672 1.408 . S
H720 C661 0.980 . S
H721 C660 0.959 . S
H722 C660 0.959 . S
H723 C660 0.960 . S
H724 C663 0.929 . S
H725 C667 0.929 . S
H726 C668 0.959 . S
H727 C668 0.961 . S
H728 C668 0.961 . S
H729 C669 0.960 . S
H730 C669 0.960 . S
H731 C669 0.961 . S
H732 C671 0.980 . S
H733 C670 0.961 . S
H734 C670 0.960 . S
H735 C670 0.959 . S
H736 C673 0.930 . S
H737 C677 0.931 . S
H738 C678 0.959 . S
H739 C678 0.961 . S
H740 C678 0.959 . S
H741 C679 0.960 . S
H742 C679 0.960 . S
H743 C679 0.960 . S
H744 C715 0.980 . S
H745 C681 0.930 . S
H746 C685 0.930 . S
H747 C686 0.961 . S
H748 C686 0.960 . S
H749 C686 0.958 . S
H750 C687 0.961 . S
H751 C687 0.960 . S
H752 C687 0.960 . S
H753 C689 0.980 . S
H754 C688 0.961 . S
H755 C688 0.961 . S
H756 C688 0.959 . S
H757 C691 0.932 . S
H758 C695 0.929 . S
H759 C696 0.961 . S
H760 C696 0.959 . S
H761 C696 0.959 . S
H762 C697 0.960 . S
H763 C697 0.962 . S
H764 C697 0.961 . S
H765 C699 0.929 . S
H766 C702 0.930 . S
H767 C703 0.929 . S
H768 C706 0.930 . S
H769 C709 0.929 . S
H770 C710 0.930 . S
H771 C714 0.962 . S
H772 C714 0.959 . S
H773 C714 0.958 . S
C774 C775 1.560 . S
C774 H835 0.959 . S
C774 H836 0.959 . S
C774 H837 0.960 . S
C775 C774 1.560 . S
C775 O830 1.426 . S
C775 H834 0.980 . S
C776 C777 1.407 . S
C776 C781 1.418 . S
C776 O830 1.334 . S
C777 C776 1.407 . S
C777 C778 1.360 . S
C777 H838 0.929 . S
C778 C777 1.360 . S
C778 C779 1.401 . S
C778 C782 1.527 . S
C779 C778 1.401 . S
C779 C780 1.405 . S
C779 C812 1.587 . S
C780 C779 1.405 . S
C780 C781 1.332 . S
C780 C783 1.496 . S
C781 C776 1.418 . S
C781 C780 1.332 . S
C781 H839 0.929 . S
C782 C778 1.527 . S
C782 H840 0.959 . S
C782 H841 0.961 . S
C782 H842 0.961 . S
C783 C780 1.496 . S
C783 H843 0.960 . S
C783 H844 0.960 . S
C783 H845 0.961 . S
C784 C785 1.517 . S
C784 H847 0.961 . S
C784 H848 0.960 . S
C784 H849 0.959 . S
C785 C784 1.517 . S
C785 O833 1.468 . S
C785 H846 0.980 . S
C786 C787 1.349 . S
C786 C791 1.367 . S
C786 O833 1.408 . S
C787 C786 1.349 . S
C787 C788 1.407 . S
C787 H850 0.930 . S
C788 C787 1.407 . S
C788 C789 1.449 . S
C788 C792 1.535 . S
C789 C788 1.449 . S
C789 C790 1.384 . S
C789 C814 1.553 . S
C790 C789 1.384 . S
C790 C791 1.364 . S
C790 C793 1.450 . S
C791 C786 1.367 . S
C791 C790 1.364 . S
C791 H851 0.931 . S
C792 C788 1.535 . S
C792 H852 0.959 . S
C792 H853 0.961 . S
C792 H854 0.959 . S
C793 C790 1.450 . S
C793 H855 0.960 . S
C793 H856 0.960 . S
C793 H857 0.960 . S
C794 C795 1.309 . S
C794 C799 1.304 . S
C794 O832 1.435 . S
C795 C794 1.309 . S
C795 C796 1.476 . S
C795 H859 0.930 . S
C796 C795 1.476 . S
C796 C797 1.400 . S
C796 C800 1.567 . S
C797 C796 1.400 . S
C797 C798 1.373 . S
C797 C819 1.432 . S
C798 C797 1.373 . S
C798 C799 1.339 . S
C798 C801 1.530 . S
C799 C794 1.304 . S
C799 C798 1.339 . S
C799 H860 0.930 . S
C800 C796 1.567 . S
C800 H861 0.961 . S
C800 H862 0.960 . S
C800 H863 0.958 . S
C801 C798 1.530 . S
C801 H864 0.961 . S
C801 H865 0.960 . S
C801 H866 0.960 . S
C802 C803 1.530 . S
C802 H868 0.961 . S
C802 H869 0.961 . S
C802 H870 0.959 . S
C803 C802 1.530 . S
C803 O831 1.412 . S
C803 H867 0.980 . S
C804 C805 1.288 . S
C804 C809 1.377 . S
C804 O831 1.393 . S
C805 C804 1.288 . S
C805 C806 1.369 . S
C805 H871 0.932 . S
C806 C805 1.369 . S
C806 C807 1.398 . S
C806 C810 1.527 . S
C807 C806 1.398 . S
C807 C808 1.380 . S
C807 C821 1.497 . S
C808 C807 1.380 . S
C808 C809 1.383 . S
C808 C811 1.603 . S
C809 C804 1.377 . S
C809 C808 1.383 . S
C809 H872 0.929 . S
C810 C806 1.527 . S
C810 H873 0.961 . S
C810 H874 0.959 . S
C810 H875 0.959 . S
C811 C808 1.603 . S
C811 H876 0.960 . S
C811 H877 0.962 . S
C811 H878 0.961 . S
C812 C779 1.587 . S
C812 C813 1.360 . S
C812 C825 1.412 . S
C813 C812 1.360 . S
C813 C814 1.365 . S
C813 H879 0.929 . S
C814 C789 1.553 . S
C814 C813 1.365 . S
C814 C815 1.404 . S
C815 C814 1.404 . S
C815 C816 1.395 . S
C815 C826 1.451 . S
C816 C815 1.395 . S
C816 C817 1.322 . S
C816 H880 0.930 . S
C817 C816 1.322 . S
C817 C818 1.459 . S
C817 H881 0.929 . S
C818 C817 1.459 . S
C818 C819 1.445 . S
C818 C827 1.395 . S
C819 C797 1.432 . S
C819 C818 1.445 . S
C819 C820 1.370 . S
C820 C819 1.370 . S
C820 C821 1.438 . S
C820 H882 0.930 . S
C821 C807 1.497 . S
C821 C820 1.438 . S
C821 C822 1.360 . S
C822 C821 1.360 . S
C822 C823 1.401 . S
C822 C827 1.446 . S
C823 C822 1.401 . S
C823 C824 1.347 . S
C823 H883 0.929 . S
C824 C823 1.347 . S
C824 C825 1.455 . S
C824 H884 0.930 . S
C825 C812 1.412 . S
C825 C824 1.455 . S
C825 C826 1.331 . S
C826 C815 1.451 . S
C826 C825 1.331 . S
C826 C827 1.497 . S
C827 C818 1.395 . S
C827 C822 1.446 . S
C827 C826 1.497 . S
C828 C829 1.582 . S
C828 H885 0.962 . S
C828 H886 0.959 . S
C828 H887 0.958 . S
C829 C828 1.582 . S
C829 O832 1.458 . S
C829 H858 0.980 . S
O830 C775 1.426 . S
O830 C776 1.334 . S
O831 C803 1.412 . S
O831 C804 1.393 . S
O832 C794 1.435 . S
O832 C829 1.458 . S
O833 C785 1.468 . S
O833 C786 1.408 . S
H834 C775 0.980 . S
H835 C774 0.959 . S
H836 C774 0.959 . S
H837 C774 0.960 . S
H838 C777 0.929 . S
H839 C781 0.929 . S
H840 C782 0.959 . S
H841 C782 0.961 . S
H842 C782 0.961 . S
H843 C783 0.960 . S
H844 C783 0.960 . S
H845 C783 0.961 . S
H846 C785 0.980 . S
H847 C784 0.961 . S
H848 C784 0.960 . S
H849 C784 0.959 . S
H850 C787 0.930 . S
H851 C791 0.931 . S
H852 C792 0.959 . S
H853 C792 0.961 . S
H854 C792 0.959 . S
H855 C793 0.960 . S
H856 C793 0.960 . S
H857 C793 0.960 . S
H858 C829 0.980 . S
H859 C795 0.930 . S
H860 C799 0.930 . S
H861 C800 0.961 . S
H862 C800 0.960 . S
H863 C800 0.958 . S
H864 C801 0.961 . S
H865 C801 0.960 . S
H866 C801 0.960 . S
H867 C803 0.980 . S
H868 C802 0.961 . S
H869 C802 0.961 . S
H870 C802 0.959 . S
H871 C805 0.932 . S
H872 C809 0.929 . S
H873 C810 0.961 . S
H874 C810 0.959 . S
H875 C810 0.959 . S
H876 C811 0.960 . S
H877 C811 0.962 . S
H878 C811 0.961 . S
H879 C813 0.929 . S
H880 C816 0.930 . S
H881 C817 0.929 . S
H882 C820 0.930 . S
H883 C823 0.929 . S
H884 C824 0.930 . S
H885 C828 0.962 . S
H886 C828 0.959 . S
H887 C828 0.958 . S
C888 C889 1.560 . S
C888 H949 0.959 . S
C888 H950 0.959 . S
C888 H951 0.960 . S
C889 C888 1.560 . S
C889 O944 1.426 . S
C889 H948 0.980 . S
C890 C891 1.407 . S
C890 C895 1.418 . S
C890 O944 1.334 . S
C891 C890 1.407 . S
C891 C892 1.360 . S
C891 H952 0.929 . S
C892 C891 1.360 . S
C892 C893 1.401 . S
C892 C896 1.527 . S
C893 C892 1.401 . S
C893 C894 1.405 . S
C893 C926 1.587 . S
C894 C893 1.405 . S
C894 C895 1.332 . S
C894 C897 1.496 . S
C895 C890 1.418 . S
C895 C894 1.332 . S
C895 H953 0.929 . S
C896 C892 1.527 . S
C896 H954 0.959 . S
C896 H955 0.961 . S
C896 H956 0.961 . S
C897 C894 1.496 . S
C897 H957 0.960 . S
C897 H958 0.960 . S
C897 H959 0.961 . S
C898 C899 1.517 . S
C898 H961 0.961 . S
C898 H962 0.960 . S
C898 H963 0.959 . S
C899 C898 1.517 . S
C899 O947 1.468 . S
C899 H960 0.980 . S
C900 C901 1.349 . S
C900 C905 1.367 . S
C900 O947 1.408 . S
C901 C900 1.349 . S
C901 C902 1.407 . S
C901 H964 0.930 . S
C902 C901 1.407 . S
C902 C903 1.449 . S
C902 C906 1.535 . S
C903 C902 1.449 . S
C903 C904 1.384 . S
C903 C928 1.553 . S
C904 C903 1.384 . S
C904 C905 1.364 . S
C904 C907 1.450 . S
C905 C900 1.367 . S
C905 C904 1.364 . S
C905 H965 0.931 . S
C906 C902 1.535 . S
C906 H966 0.959 . S
C906 H967 0.961 . S
C906 H968 0.959 . S
C907 C904 1.450 . S
C907 H969 0.960 . S
C907 H970 0.960 . S
C907 H971 0.960 . S
C908 C909 1.309 . S
C908 C913 1.304 . S
C908 O946 1.435 . S
C909 C908 1.309 . S
C909 C910 1.476 . S
C909 H973 0.930 . S
C910 C909 1.476 . S
C910 C911 1.400 . S
C910 C914 1.567 . S
C911 C910 1.400 . S
C911 C912 1.373 . S
C911 C933 1.432 . S
C912 C911 1.373 . S
C912 C913 1.339 . S
C912 C915 1.530 . S
C913 C908 1.304 . S
C913 C912 1.339 . S
C913 H974 0.930 . S
C914 C910 1.567 . S
C914 H975 0.961 . S
C914 H976 0.960 . S
C914 H977 0.958 . S
C915 C912 1.530 . S
C915 H978 0.961 . S
C915 H979 0.960 . S
C915 H980 0.960 . S
C916 C917 1.530 . S
C916 H982 0.961 . S
C916 H983 0.961 . S
C916 H984 0.959 . S
C917 C916 1.530 . S
C917 O945 1.412 . S
C917 H981 0.980 . S
C918 C919 1.288 . S
C918 C923 1.377 . S
C918 O945 1.393 . S
C919 C918 1.288 . S
C919 C920 1.369 . S
C919 H985 0.932 . S
C920 C919 1.369 . S
C920 C921 1.398 . S
C920 C924 1.527 . S
C921 C920 1.398 . S
C921 C922 1.380 . S
C921 C935 1.497 . S
C922 C921 1.380 . S
C922 C923 1.383 . S
C922 C925 1.603 . S
C923 C918 1.377 . S
C923 C922 1.383 . S
C923 H986 0.929 . S
C924 C920 1.527 . S
C924 H987 0.961 . S
C924 H988 0.959 . S
C924 H989 0.959 . S
C925 C922 1.603 . S
C925 H990 0.960 . S
C925 H991 0.962 . S
C925 H992 0.961 . S
C926 C893 1.587 . S
C926 C927 1.360 . S
C926 C939 1.412 . S
C927 C926 1.360 . S
C927 C928 1.365 . S
C927 H993 0.929 . S
C928 C903 1.553 . S
C928 C927 1.365 . S
C928 C929 1.404 . S
C929 C928 1.404 . S
C929 C930 1.395 . S
C929 C940 1.451 . S
C930 C929 1.395 . S
C930 C931 1.322 . S
C930 H994 0.930 . S
C931 C930 1.322 . S
C931 C932 1.459 . S
C931 H995 0.929 . S
C932 C931 1.459 . S
C932 C933 1.445 . S
C932 C941 1.395 . S
C933 C911 1.432 . S
C933 C932 1.445 . S
C933 C934 1.370 . S
C934 C933 1.370 . S
C934 C935 1.438 . S
C934 H996 0.930 . S
C935 C921 1.497 . S
C935 C934 1.438 . S
C935 C936 1.360 . S
C936 C935 1.360 . S
C936 C937 1.401 . S
C936 C941 1.446 . S
C937 C936 1.401 . S
C937 C938 1.347 . S
C937 H997 0.929 . S
C938 C937 1.347 . S
C938 C939 1.455 . S
C938 H998 0.930 . S
C939 C926 1.412 . S
C939 C938 1.455 . S
C939 C940 1.331 . S
C940 C929 1.451 . S
C940 C939 1.331 . S
C940 C941 1.497 . S
C941 C932 1.395 . S
C941 C936 1.446 . S
C941 C940 1.497 . S
C942 C943 1.582 . S
C942 H999 0.962 . S
C942 H1000 0.959 . S
C942 H1001 0.958 . S
C943 C942 1.582 . S
C943 O946 1.458 . S
C943 H972 0.980 . S
O944 C889 1.426 . S
O944 C890 1.334 . S
O945 C917 1.412 . S
O945 C918 1.393 . S
O946 C908 1.435 . S
O946 C943 1.458 . S
O947 C899 1.468 . S
O947 C900 1.408 . S
H948 C889 0.980 . S
H949 C888 0.959 . S
H950 C888 0.959 . S
H951 C888 0.960 . S
H952 C891 0.929 . S
H953 C895 0.929 . S
H954 C896 0.959 . S
H955 C896 0.961 . S
H956 C896 0.961 . S
H957 C897 0.960 . S
H958 C897 0.960 . S
H959 C897 0.961 . S
H960 C899 0.980 . S
H961 C898 0.961 . S
H962 C898 0.960 . S
H963 C898 0.959 . S
H964 C901 0.930 . S
H965 C905 0.931 . S
H966 C906 0.959 . S
H967 C906 0.961 . S
H968 C906 0.959 . S
H969 C907 0.960 . S
H970 C907 0.960 . S
H971 C907 0.960 . S
H972 C943 0.980 . S
H973 C909 0.930 . S
H974 C913 0.930 . S
H975 C914 0.961 . S
H976 C914 0.960 . S
H977 C914 0.958 . S
H978 C915 0.961 . S
H979 C915 0.960 . S
H980 C915 0.960 . S
H981 C917 0.980 . S
H982 C916 0.961 . S
H983 C916 0.961 . S
H984 C916 0.959 . S
H985 C919 0.932 . S
H986 C923 0.929 . S
H987 C924 0.961 . S
H988 C924 0.959 . S
H989 C924 0.959 . S
H990 C925 0.960 . S
H991 C925 0.962 . S
H992 C925 0.961 . S
H993 C927 0.929 . S
H994 C930 0.930 . S
H995 C931 0.929 . S
H996 C934 0.930 . S
H997 C937 0.929 . S
H998 C938 0.930 . S
H999 C942 0.962 . S
H1000 C942 0.959 . S
H1001 C942 0.958 . S
H1002 C1010 0.929 . S
H1003 C1012 0.930 . S
H1004 C1014 0.930 . S
H1005 C1017 0.929 . S
H1006 C1020 0.930 . S
H1007 C1022 0.960 . S
H1008 C1022 0.960 . S
H1009 C1022 0.960 . S
C1010 H1002 0.929 . S
C1010 C1011 1.377 . S
C1010 C1012 1.384 . S
C1011 C1010 1.377 . S
C1011 C1017 1.390 . S
C1012 H1003 0.930 . S
C1012 C1010 1.384 . S
C1012 C1013 1.372 . S
C1013 C1012 1.372 . S
C1013 C1014 1.400 . S
C1013 C1018 1.490 . S
C1014 H1004 0.930 . S
C1014 C1013 1.400 . S
C1014 C1017 1.386 . S
H1015 C1031 0.930 . S
H1016 C1032 0.931 . S
C1017 H1005 0.929 . S
C1017 C1011 1.390 . S
C1017 C1014 1.386 . S
C1018 C1013 1.490 . S
C1018 C1020 1.395 . S
C1018 C1021 1.403 . S
H1019 C1025 0.930 . S
C1020 H1006 0.930 . S
C1020 C1018 1.395 . S
C1020 C1023 1.403 . S
C1021 C1018 1.403 . S
C1021 C1022 1.524 . S
C1021 C1025 1.400 . S
C1022 H1007 0.960 . S
C1022 H1008 0.960 . S
C1022 H1009 0.960 . S
C1022 C1021 1.524 . S
C1023 C1020 1.403 . S
C1023 C1024 1.392 . S
C1023 C1027 1.495 . S
C1024 C1023 1.392 . S
C1024 C1025 1.385 . S
C1024 C1026 1.478 . S
C1025 H1019 0.930 . S
C1025 C1021 1.400 . S
C1025 C1024 1.385 . S
C1026 C1024 1.478 . S
C1026 C1028 1.381 . S
C1026 C1032 1.383 . S
C1027 C1023 1.495 . S
C1027 H1033 0.959 . S
C1027 H1034 0.961 . S
C1027 H1035 0.960 . S
C1028 C1026 1.381 . S
C1028 C1029 1.394 . S
C1028 H1036 0.930 . S
C1029 C1028 1.394 . S
C1029 C1030 1.383 . S
C1029 H1037 0.929 . S
C1030 C1029 1.383 . S
C1030 C1031 1.377 . S
C1031 H1015 0.930 . S
C1031 C1030 1.377 . S
C1031 C1032 1.379 . S
C1032 H1016 0.931 . S
C1032 C1026 1.383 . S
C1032 C1031 1.379 . S
H1033 C1027 0.959 . S
H1034 C1027 0.961 . S
H1035 C1027 0.960 . S
H1036 C1028 0.930 . S
H1037 C1029 0.929 . S
H1038 C1046 0.929 . S
H1039 C1048 0.930 . S
H1040 C1050 0.930 . S
H1041 C1053 0.929 . S
H1042 C1056 0.930 . S
H1043 C1058 0.960 . S
H1044 C1058 0.960 . S
H1045 C1058 0.960 . S
C1046 H1038 0.929 . S
C1046 C1047 1.377 . S
C1046 C1048 1.384 . S
C1047 C1046 1.377 . S
C1047 C1053 1.390 . S
C1048 H1039 0.930 . S
C1048 C1046 1.384 . S
C1048 C1049 1.372 . S
C1049 C1048 1.372 . S
C1049 C1050 1.400 . S
C1049 C1054 1.490 . S
C1050 H1040 0.930 . S
C1050 C1049 1.400 . S
C1050 C1053 1.386 . S
H1051 C1067 0.930 . S
H1052 C1068 0.931 . S
C1053 H1041 0.929 . S
C1053 C1047 1.390 . S
C1053 C1050 1.386 . S
C1054 C1049 1.490 . S
C1054 C1056 1.395 . S
C1054 C1057 1.403 . S
H1055 C1061 0.930 . S
C1056 H1042 0.930 . S
C1056 C1054 1.395 . S
C1056 C1059 1.403 . S
C1057 C1054 1.403 . S
C1057 C1058 1.524 . S
C1057 C1061 1.400 . S
C1058 H1043 0.960 . S
C1058 H1044 0.960 . S
C1058 H1045 0.960 . S
C1058 C1057 1.524 . S
C1059 C1056 1.403 . S
C1059 C1060 1.392 . S
C1059 C1063 1.495 . S
C1060 C1059 1.392 . S
C1060 C1061 1.385 . S
C1060 C1062 1.478 . S
C1061 H1055 0.930 . S
C1061 C1057 1.400 . S
C1061 C1060 1.385 . S
C1062 C1060 1.478 . S
C1062 C1064 1.381 . S
C1062 C1068 1.383 . S
C1063 C1059 1.495 . S
C1063 H1069 0.959 . S
C1063 H1070 0.961 . S
C1063 H1071 0.960 . S
C1064 C1062 1.381 . S
C1064 C1065 1.394 . S
C1064 H1072 0.930 . S
C1065 C1064 1.394 . S
C1065 C1066 1.383 . S
C1065 H1073 0.929 . S
C1066 C1065 1.383 . S
C1066 C1067 1.377 . S
C1067 H1051 0.930 . S
C1067 C1066 1.377 . S
C1067 C1068 1.379 . S
C1068 H1052 0.931 . S
C1068 C1062 1.383 . S
C1068 C1067 1.379 . S
H1069 C1063 0.959 . S
H1070 C1063 0.961 . S
H1071 C1063 0.960 . S
H1072 C1064 0.930 . S
H1073 C1065 0.929 . S
H1074 C1082 0.929 . S
H1075 C1084 0.930 . S
H1076 C1086 0.930 . S
H1077 C1089 0.929 . S
H1078 C1092 0.930 . S
H1079 C1094 0.960 . S
H1080 C1094 0.960 . S
H1081 C1094 0.960 . S
C1082 H1074 0.929 . S
C1082 C1083 1.377 . S
C1082 C1084 1.384 . S
C1083 C1082 1.377 . S
C1083 C1089 1.390 . S
C1084 H1075 0.930 . S
C1084 C1082 1.384 . S
C1084 C1085 1.372 . S
C1085 C1084 1.372 . S
C1085 C1086 1.400 . S
C1085 C1090 1.490 . S
C1086 H1076 0.930 . S
C1086 C1085 1.400 . S
C1086 C1089 1.386 . S
H1087 C1103 0.930 . S
H1088 C1104 0.931 . S
C1089 H1077 0.929 . S
C1089 C1083 1.390 . S
C1089 C1086 1.386 . S
C1090 C1085 1.490 . S
C1090 C1092 1.395 . S
C1090 C1093 1.403 . S
H1091 C1097 0.930 . S
C1092 H1078 0.930 . S
C1092 C1090 1.395 . S
C1092 C1095 1.403 . S
C1093 C1090 1.403 . S
C1093 C1094 1.524 . S
C1093 C1097 1.400 . S
C1094 H1079 0.960 . S
C1094 H1080 0.960 . S
C1094 H1081 0.960 . S
C1094 C1093 1.524 . S
C1095 C1092 1.403 . S
C1095 C1096 1.392 . S
C1095 C1099 1.495 . S
C1096 C1095 1.392 . S
C1096 C1097 1.385 . S
C1096 C1098 1.478 . S
C1097 H1091 0.930 . S
C1097 C1093 1.400 . S
C1097 C1096 1.385 . S
C1098 C1096 1.478 . S
C1098 C1100 1.381 . S
C1098 C1104 1.383 . S
C1099 C1095 1.495 . S
C1099 H1105 0.959 . S
C1099 H1106 0.961 . S
C1099 H1107 0.960 . S
C1100 C1098 1.381 . S
C1100 C1101 1.394 . S
C1100 H1108 0.930 . S
C1101 C1100 1.394 . S
C1101 C1102 1.383 . S
C1101 H1109 0.929 . S
C1102 C1101 1.383 . S
C1102 C1103 1.377 . S
C1103 H1087 0.930 . S
C1103 C1102 1.377 . S
C1103 C1104 1.379 . S
C1104 H1088 0.931 . S
C1104 C1098 1.383 . S
C1104 C1103 1.379 . S
H1105 C1099 0.959 . S
H1106 C1099 0.961 . S
H1107 C1099 0.960 . S
H1108 C1100 0.930 . S
H1109 C1101 0.929 . S
H1110 C1118 0.929 . S
H1111 C1120 0.930 . S
H1112 C1122 0.930 . S
H1113 C1125 0.929 . S
H1114 C1128 0.930 . S
H1115 C1130 0.960 . S
H1116 C1130 0.960 . S
H1117 C1130 0.960 . S
C1118 H1110 0.929 . S
C1118 C1119 1.377 . S
C1118 C1120 1.384 . S
C1119 C1118 1.377 . S
C1119 C1125 1.390 . S
C1120 H1111 0.930 . S
C1120 C1118 1.384 . S
C1120 C1121 1.372 . S
C1121 C1120 1.372 . S
C1121 C1122 1.400 . S
C1121 C1126 1.490 . S
C1122 H1112 0.930 . S
C1122 C1121 1.400 . S
C1122 C1125 1.386 . S
H1123 C1139 0.930 . S
H1124 C1140 0.931 . S
C1125 H1113 0.929 . S
C1125 C1119 1.390 . S
C1125 C1122 1.386 . S
C1126 C1121 1.490 . S
C1126 C1128 1.395 . S
C1126 C1129 1.403 . S
H1127 C1133 0.930 . S
C1128 H1114 0.930 . S
C1128 C1126 1.395 . S
C1128 C1131 1.403 . S
C1129 C1126 1.403 . S
C1129 C1130 1.524 . S
C1129 C1133 1.400 . S
C1130 H1115 0.960 . S
C1130 H1116 0.960 . S
C1130 H1117 0.960 . S
C1130 C1129 1.524 . S
C1131 C1128 1.403 . S
C1131 C1132 1.392 . S
C1131 C1135 1.495 . S
C1132 C1131 1.392 . S
C1132 C1133 1.385 . S
C1132 C1134 1.478 . S
C1133 H1127 0.930 . S
C1133 C1129 1.400 . S
C1133 C1132 1.385 . S
C1134 C1132 1.478 . S
C1134 C1136 1.381 . S
C1134 C1140 1.383 . S
C1135 C1131 1.495 . S
C1135 H1141 0.959 . S
C1135 H1142 0.961 . S
C1135 H1143 0.960 . S
C1136 C1134 1.381 . S
C1136 C1137 1.394 . S
C1136 H1144 0.930 . S
C1137 C1136 1.394 . S
C1137 C1138 1.383 . S
C1137 H1145 0.929 . S
C1138 C1137 1.383 . S
C1138 C1139 1.377 . S
C1139 H1123 0.930 . S
C1139 C1138 1.377 . S
C1139 C1140 1.379 . S
C1140 H1124 0.931 . S
C1140 C1134 1.383 . S
C1140 C1139 1.379 . S
H1141 C1135 0.959 . S
H1142 C1135 0.961 . S
H1143 C1135 0.960 . S
H1144 C1136 0.930 . S
H1145 C1137 0.929 . S
H1146 C1154 0.929 . S
H1147 C1156 0.930 . S
H1148 C1158 0.930 . S
H1149 C1161 0.929 . S
H1150 C1164 0.930 . S
H1151 C1166 0.960 . S
H1152 C1166 0.960 . S
H1153 C1166 0.960 . S
C1154 H1146 0.929 . S
C1154 C1155 1.377 . S
C1154 C1156 1.384 . S
C1155 C1154 1.377 . S
C1155 C1161 1.390 . S
C1156 H1147 0.930 . S
C1156 C1154 1.384 . S
C1156 C1157 1.372 . S
C1157 C1156 1.372 . S
C1157 C1158 1.400 . S
C1157 C1162 1.490 . S
C1158 H1148 0.930 . S
C1158 C1157 1.400 . S
C1158 C1161 1.386 . S
H1159 C1175 0.930 . S
H1160 C1176 0.931 . S
C1161 H1149 0.929 . S
C1161 C1155 1.390 . S
C1161 C1158 1.386 . S
C1162 C1157 1.490 . S
C1162 C1164 1.395 . S
C1162 C1165 1.403 . S
H1163 C1169 0.930 . S
C1164 H1150 0.930 . S
C1164 C1162 1.395 . S
C1164 C1167 1.403 . S
C1165 C1162 1.403 . S
C1165 C1166 1.524 . S
C1165 C1169 1.400 . S
C1166 H1151 0.960 . S
C1166 H1152 0.960 . S
C1166 H1153 0.960 . S
C1166 C1165 1.524 . S
C1167 C1164 1.403 . S
C1167 C1168 1.392 . S
C1167 C1171 1.495 . S
C1168 C1167 1.392 . S
C1168 C1169 1.385 . S
C1168 C1170 1.478 . S
C1169 H1163 0.930 . S
C1169 C1165 1.400 . S
C1169 C1168 1.385 . S
C1170 C1168 1.478 . S
C1170 C1172 1.381 . S
C1170 C1176 1.383 . S
C1171 C1167 1.495 . S
C1171 H1177 0.959 . S
C1171 H1178 0.961 . S
C1171 H1179 0.960 . S
C1172 C1170 1.381 . S
C1172 C1173 1.394 . S
C1172 H1180 0.930 . S
C1173 C1172 1.394 . S
C1173 C1174 1.383 . S
C1173 H1181 0.929 . S
C1174 C1173 1.383 . S
C1174 C1175 1.377 . S
C1175 H1159 0.930 . S
C1175 C1174 1.377 . S
C1175 C1176 1.379 . S
C1176 H1160 0.931 . S
C1176 C1170 1.383 . S
C1176 C1175 1.379 . S
H1177 C1171 0.959 . S
H1178 C1171 0.961 . S
H1179 C1171 0.960 . S
H1180 C1172 0.930 . S
H1181 C1173 0.929 . S
H1182 C1190 0.929 . S
H1183 C1192 0.930 . S
H1184 C1194 0.930 . S
H1185 C1197 0.929 . S
H1186 C1200 0.930 . S
H1187 C1202 0.960 . S
H1188 C1202 0.960 . S
H1189 C1202 0.960 . S
C1190 H1182 0.929 . S
C1190 C1191 1.377 . S
C1190 C1192 1.384 . S
C1191 C1190 1.377 . S
C1191 C1197 1.390 . S
C1192 H1183 0.930 . S
C1192 C1190 1.384 . S
C1192 C1193 1.372 . S
C1193 C1192 1.372 . S
C1193 C1194 1.400 . S
C1193 C1198 1.490 . S
C1194 H1184 0.930 . S
C1194 C1193 1.400 . S
C1194 C1197 1.386 . S
H1195 C1211 0.930 . S
H1196 C1212 0.931 . S
C1197 H1185 0.929 . S
C1197 C1191 1.390 . S
C1197 C1194 1.386 . S
C1198 C1193 1.490 . S
C1198 C1200 1.395 . S
C1198 C1201 1.403 . S
H1199 C1205 0.930 . S
C1200 H1186 0.930 . S
C1200 C1198 1.395 . S
C1200 C1203 1.403 . S
C1201 C1198 1.403 . S
C1201 C1202 1.524 . S
C1201 C1205 1.400 . S
C1202 H1187 0.960 . S
C1202 H1188 0.960 . S
C1202 H1189 0.960 . S
C1202 C1201 1.524 . S
C1203 C1200 1.403 . S
C1203 C1204 1.392 . S
C1203 C1207 1.495 . S
C1204 C1203 1.392 . S
C1204 C1205 1.385 . S
C1204 C1206 1.478 . S
C1205 H1199 0.930 . S
C1205 C1201 1.400 . S
C1205 C1204 1.385 . S
C1206 C1204 1.478 . S
C1206 C1208 1.381 . S
C1206 C1212 1.383 . S
C1207 C1203 1.495 . S
C1207 H1213 0.959 . S
C1207 H1214 0.961 . S
C1207 H1215 0.960 . S
C1208 C1206 1.381 . S
C1208 C1209 1.394 . S
C1208 H1216 0.930 . S
C1209 C1208 1.394 . S
C1209 C1210 1.383 . S
C1209 H1217 0.929 . S
C1210 C1209 1.383 . S
C1210 C1211 1.377 . S
C1211 H1195 0.930 . S
C1211 C1210 1.377 . S
C1211 C1212 1.379 . S
C1212 H1196 0.931 . S
C1212 C1206 1.383 . S
C1212 C1211 1.379 . S
H1213 C1207 0.959 . S
H1214 C1207 0.961 . S
H1215 C1207 0.960 . S
H1216 C1208 0.930 . S
H1217 C1209 0.929 . S
H1218 C1226 0.929 . S
H1219 C1228 0.930 . S
H1220 C1230 0.930 . S
H1221 C1233 0.929 . S
H1222 C1236 0.930 . S
H1223 C1238 0.960 . S
H1224 C1238 0.960 . S
H1225 C1238 0.960 . S
C1226 H1218 0.929 . S
C1226 C1227 1.377 . S
C1226 C1228 1.384 . S
C1227 C1226 1.377 . S
C1227 C1233 1.390 . S
C1228 H1219 0.930 . S
C1228 C1226 1.384 . S
C1228 C1229 1.372 . S
C1229 C1228 1.372 . S
C1229 C1230 1.400 . S
C1229 C1234 1.490 . S
C1230 H1220 0.930 . S
C1230 C1229 1.400 . S
C1230 C1233 1.386 . S
H1231 C1247 0.930 . S
H1232 C1248 0.931 . S
C1233 H1221 0.929 . S
C1233 C1227 1.390 . S
C1233 C1230 1.386 . S
C1234 C1229 1.490 . S
C1234 C1236 1.395 . S
C1234 C1237 1.403 . S
H1235 C1241 0.930 . S
C1236 H1222 0.930 . S
C1236 C1234 1.395 . S
C1236 C1239 1.403 . S
C1237 C1234 1.403 . S
C1237 C1238 1.524 . S
C1237 C1241 1.400 . S
C1238 H1223 0.960 . S
C1238 H1224 0.960 . S
C1238 H1225 0.960 . S
C1238 C1237 1.524 . S
C1239 C1236 1.403 . S
C1239 C1240 1.392 . S
C1239 C1243 1.495 . S
C1240 C1239 1.392 . S
C1240 C1241 1.385 . S
C1240 C1242 1.478 . S
C1241 H1235 0.930 . S
C1241 C1237 1.400 . S
C1241 C1240 1.385 . S
C1242 C1240 1.478 . S
C1242 C1244 1.381 . S
C1242 C1248 1.383 . S
C1243 C1239 1.495 . S
C1243 H1249 0.959 . S
C1243 H1250 0.961 . S
C1243 H1251 0.960 . S
C1244 C1242 1.381 . S
C1244 C1245 1.394 . S
C1244 H1252 0.930 . S
C1245 C1244 1.394 . S
C1245 C1246 1.383 . S
C1245 H1253 0.929 . S
C1246 C1245 1.383 . S
C1246 C1247 1.377 . S
C1247 H1231 0.930 . S
C1247 C1246 1.377 . S
C1247 C1248 1.379 . S
C1248 H1232 0.931 . S
C1248 C1242 1.383 . S
C1248 C1247 1.379 . S
H1249 C1243 0.959 . S
H1250 C1243 0.961 . S
H1251 C1243 0.960 . S
H1252 C1244 0.930 . S
H1253 C1245 0.929 . S
H1254 C1262 0.929 . S
H1255 C1264 0.930 . S
H1256 C1266 0.930 . S
H1257 C1269 0.929 . S
H1258 C1272 0.930 . S
H1259 C1274 0.960 . S
H1260 C1274 0.960 . S
H1261 C1274 0.960 . S
C1262 H1254 0.929 . S
C1262 C1263 1.377 . S
C1262 C1264 1.384 . S
C1263 C1262 1.377 . S
C1263 C1269 1.390 . S
C1264 H1255 0.930 . S
C1264 C1262 1.384 . S
C1264 C1265 1.372 . S
C1265 C1264 1.372 . S
C1265 C1266 1.400 . S
C1265 C1270 1.490 . S
C1266 H1256 0.930 . S
C1266 C1265 1.400 . S
C1266 C1269 1.386 . S
H1267 C1283 0.930 . S
H1268 C1284 0.931 . S
C1269 H1257 0.929 . S
C1269 C1263 1.390 . S
C1269 C1266 1.386 . S
C1270 C1265 1.490 . S
C1270 C1272 1.395 . S
C1270 C1273 1.403 . S
H1271 C1277 0.930 . S
C1272 H1258 0.930 . S
C1272 C1270 1.395 . S
C1272 C1275 1.403 . S
C1273 C1270 1.403 . S
C1273 C1274 1.524 . S
C1273 C1277 1.400 . S
C1274 H1259 0.960 . S
C1274 H1260 0.960 . S
C1274 H1261 0.960 . S
C1274 C1273 1.524 . S
C1275 C1272 1.403 . S
C1275 C1276 1.392 . S
C1275 C1279 1.495 . S
C1276 C1275 1.392 . S
C1276 C1277 1.385 . S
C1276 C1278 1.478 . S
C1277 H1271 0.930 . S
C1277 C1273 1.400 . S
C1277 C1276 1.385 . S
C1278 C1276 1.478 . S
C1278 C1280 1.381 . S
C1278 C1284 1.383 . S
C1279 C1275 1.495 . S
C1279 H1285 0.959 . S
C1279 H1286 0.961 . S
C1279 H1287 0.960 . S
C1280 C1278 1.381 . S
C1280 C1281 1.394 . S
C1280 H1288 0.930 . S
C1281 C1280 1.394 . S
C1281 C1282 1.383 . S
C1281 H1289 0.929 . S
C1282 C1281 1.383 . S
C1282 C1283 1.377 . S
C1283 H1267 0.930 . S
C1283 C1282 1.377 . S
C1283 C1284 1.379 . S
C1284 H1268 0.931 . S
C1284 C1278 1.383 . S
C1284 C1283 1.379 . S
H1285 C1279 0.959 . S
H1286 C1279 0.961 . S
H1287 C1279 0.960 . S
H1288 C1280 0.930 . S
H1289 C1281 0.929 . S
H1290 C1298 0.929 . S
H1291 C1300 0.930 . S
H1292 C1302 0.930 . S
H1293 C1305 0.929 . S
H1294 C1308 0.930 . S
H1295 C1310 0.960 . S
H1296 C1310 0.960 . S
H1297 C1310 0.960 . S
C1298 H1290 0.929 . S
C1298 C1299 1.377 . S
C1298 C1300 1.384 . S
C1299 C1298 1.377 . S
C1299 C1305 1.390 . S
C1300 H1291 0.930 . S
C1300 C1298 1.384 . S
C1300 C1301 1.372 . S
C1301 C1300 1.372 . S
C1301 C1302 1.400 . S
C1301 C1306 1.490 . S
C1302 H1292 0.930 . S
C1302 C1301 1.400 . S
C1302 C1305 1.386 . S
H1303 C1319 0.930 . S
H1304 C1320 0.931 . S
C1305 H1293 0.929 . S
C1305 C1299 1.390 . S
C1305 C1302 1.386 . S
C1306 C1301 1.490 . S
C1306 C1308 1.395 . S
C1306 C1309 1.403 . S
H1307 C1313 0.930 . S
C1308 H1294 0.930 . S
C1308 C1306 1.395 . S
C1308 C1311 1.403 . S
C1309 C1306 1.403 . S
C1309 C1310 1.524 . S
C1309 C1313 1.400 . S
C1310 H1295 0.960 . S
C1310 H1296 0.960 . S
C1310 H1297 0.960 . S
C1310 C1309 1.524 . S
C1311 C1308 1.403 . S
C1311 C1312 1.392 . S
C1311 C1315 1.495 . S
C1312 C1311 1.392 . S
C1312 C1313 1.385 . S
C1312 C1314 1.478 . S
C1313 H1307 0.930 . S
C1313 C1309 1.400 . S
C1313 C1312 1.385 . S
C1314 C1312 1.478 . S
C1314 C1316 1.381 . S
C1314 C1320 1.383 . S
C1315 C1311 1.495 . S
C1315 H1321 0.959 . S
C1315 H1322 0.961 . S
C1315 H1323 0.960 . S
C1316 C1314 1.381 . S
C1316 C1317 1.394 . S
C1316 H1324 0.930 . S
C1317 C1316 1.394 . S
C1317 C1318 1.383 . S
C1317 H1325 0.929 . S
C1318 C1317 1.383 . S
C1318 C1319 1.377 . S
C1319 H1303 0.930 . S
C1319 C1318 1.377 . S
C1319 C1320 1.379 . S
C1320 H1304 0.931 . S
C1320 C1314 1.383 . S
C1320 C1319 1.379 . S
H1321 C1315 0.959 . S
H1322 C1315 0.961 . S
H1323 C1315 0.960 . S
H1324 C1316 0.930 . S
H1325 C1317 0.929 . S
H1326 C1334 0.929 . S
H1327 C1336 0.930 . S
H1328 C1338 0.930 . S
H1329 C1341 0.929 . S
H1330 C1344 0.930 . S
H1331 C1346 0.960 . S
H1332 C1346 0.960 . S
H1333 C1346 0.960 . S
C1334 H1326 0.929 . S
C1334 C1335 1.377 . S
C1334 C1336 1.384 . S
C1335 C1334 1.377 . S
C1335 C1341 1.390 . S
C1336 H1327 0.930 . S
C1336 C1334 1.384 . S
C1336 C1337 1.372 . S
C1337 C1336 1.372 . S
C1337 C1338 1.400 . S
C1337 C1342 1.490 . S
C1338 H1328 0.930 . S
C1338 C1337 1.400 . S
C1338 C1341 1.386 . S
H1339 C1355 0.930 . S
H1340 C1356 0.931 . S
C1341 H1329 0.929 . S
C1341 C1335 1.390 . S
C1341 C1338 1.386 . S
C1342 C1337 1.490 . S
C1342 C1344 1.395 . S
C1342 C1345 1.403 . S
H1343 C1349 0.930 . S
C1344 H1330 0.930 . S
C1344 C1342 1.395 . S
C1344 C1347 1.403 . S
C1345 C1342 1.403 . S
C1345 C1346 1.524 . S
C1345 C1349 1.400 . S
C1346 H1331 0.960 . S
C1346 H1332 0.960 . S
C1346 H1333 0.960 . S
C1346 C1345 1.524 . S
C1347 C1344 1.403 . S
C1347 C1348 1.392 . S
C1347 C1351 1.495 . S
C1348 C1347 1.392 . S
C1348 C1349 1.385 . S
C1348 C1350 1.478 . S
C1349 H1343 0.930 . S
C1349 C1345 1.400 . S
C1349 C1348 1.385 . S
C1350 C1348 1.478 . S
C1350 C1352 1.381 . S
C1350 C1356 1.383 . S
C1351 C1347 1.495 . S
C1351 H1357 0.959 . S
C1351 H1358 0.961 . S
C1351 H1359 0.960 . S
C1352 C1350 1.381 . S
C1352 C1353 1.394 . S
C1352 H1360 0.930 . S
C1353 C1352 1.394 . S
C1353 C1354 1.383 . S
C1353 H1361 0.929 . S
C1354 C1353 1.383 . S
C1354 C1355 1.377 . S
C1355 H1339 0.930 . S
C1355 C1354 1.377 . S
C1355 C1356 1.379 . S
C1356 H1340 0.931 . S
C1356 C1350 1.383 . S
C1356 C1355 1.379 . S
H1357 C1351 0.959 . S
H1358 C1351 0.961 . S
H1359 C1351 0.960 . S
H1360 C1352 0.930 . S
H1361 C1353 0.929 . S
H1362 C1370 0.929 . S
H1363 C1372 0.930 . S
H1364 C1374 0.930 . S
H1365 C1377 0.929 . S
H1366 C1380 0.930 . S
H1367 C1382 0.960 . S
H1368 C1382 0.960 . S
H1369 C1382 0.960 . S
C1370 H1362 0.929 . S
C1370 C1371 1.377 . S
C1370 C1372 1.384 . S
C1371 C1370 1.377 . S
C1371 C1377 1.390 . S
C1372 H1363 0.930 . S
C1372 C1370 1.384 . S
C1372 C1373 1.372 . S
C1373 C1372 1.372 . S
C1373 C1374 1.400 . S
C1373 C1378 1.490 . S
C1374 H1364 0.930 . S
C1374 C1373 1.400 . S
C1374 C1377 1.386 . S
H1375 C1391 0.930 . S
H1376 C1392 0.931 . S
C1377 H1365 0.929 . S
C1377 C1371 1.390 . S
C1377 C1374 1.386 . S
C1378 C1373 1.490 . S
C1378 C1380 1.395 . S
C1378 C1381 1.403 . S
H1379 C1385 0.930 . S
C1380 H1366 0.930 . S
C1380 C1378 1.395 . S
C1380 C1383 1.403 . S
C1381 C1378 1.403 . S
C1381 C1382 1.524 . S
C1381 C1385 1.400 . S
C1382 H1367 0.960 . S
C1382 H1368 0.960 . S
C1382 H1369 0.960 . S
C1382 C1381 1.524 . S
C1383 C1380 1.403 . S
C1383 C1384 1.392 . S
C1383 C1387 1.495 . S
C1384 C1383 1.392 . S
C1384 C1385 1.385 . S
C1384 C1386 1.478 . S
C1385 H1379 0.930 . S
C1385 C1381 1.400 . S
C1385 C1384 1.385 . S
C1386 C1384 1.478 . S
C1386 C1388 1.381 . S
C1386 C1392 1.383 . S
C1387 C1383 1.495 . S
C1387 H1393 0.959 . S
C1387 H1394 0.961 . S
C1387 H1395 0.960 . S
C1388 C1386 1.381 . S
C1388 C1389 1.394 . S
C1388 H1396 0.930 . S
C1389 C1388 1.394 . S
C1389 C1390 1.383 . S
C1389 H1397 0.929 . S
C1390 C1389 1.383 . S
C1390 C1391 1.377 . S
C1391 H1375 0.930 . S
C1391 C1390 1.377 . S
C1391 C1392 1.379 . S
C1392 H1376 0.931 . S
C1392 C1386 1.383 . S
C1392 C1391 1.379 . S
H1393 C1387 0.959 . S
H1394 C1387 0.961 . S
H1395 C1387 0.960 . S
H1396 C1388 0.930 . S
H1397 C1389 0.929 . S
H1398 C1406 0.929 . S
H1399 C1408 0.930 . S
H1400 C1410 0.930 . S
H1401 C1413 0.929 . S
H1402 C1416 0.930 . S
H1403 C1418 0.960 . S
H1404 C1418 0.960 . S
H1405 C1418 0.960 . S
C1406 H1398 0.929 . S
C1406 C1407 1.377 . S
C1406 C1408 1.384 . S
C1407 C1406 1.377 . S
C1407 C1413 1.390 . S
C1408 H1399 0.930 . S
C1408 C1406 1.384 . S
C1408 C1409 1.372 . S
C1409 C1408 1.372 . S
C1409 C1410 1.400 . S
C1409 C1414 1.490 . S
C1410 H1400 0.930 . S
C1410 C1409 1.400 . S
C1410 C1413 1.386 . S
H1411 C1427 0.930 . S
H1412 C1428 0.931 . S
C1413 H1401 0.929 . S
C1413 C1407 1.390 . S
C1413 C1410 1.386 . S
C1414 C1409 1.490 . S
C1414 C1416 1.395 . S
C1414 C1417 1.403 . S
H1415 C1421 0.930 . S
C1416 H1402 0.930 . S
C1416 C1414 1.395 . S
C1416 C1419 1.403 . S
C1417 C1414 1.403 . S
C1417 C1418 1.524 . S
C1417 C1421 1.400 . S
C1418 H1403 0.960 . S
C1418 H1404 0.960 . S
C1418 H1405 0.960 . S
C1418 C1417 1.524 . S
C1419 C1416 1.403 . S
C1419 C1420 1.392 . S
C1419 C1423 1.495 . S
C1420 C1419 1.392 . S
C1420 C1421 1.385 . S
C1420 C1422 1.478 . S
C1421 H1415 0.930 . S
C1421 C1417 1.400 . S
C1421 C1420 1.385 . S
C1422 C1420 1.478 . S
C1422 C1424 1.381 . S
C1422 C1428 1.383 . S
C1423 C1419 1.495 . S
C1423 H1429 0.959 . S
C1423 H1430 0.961 . S
C1423 H1431 0.960 . S
C1424 C1422 1.381 . S
C1424 C1425 1.394 . S
C1424 H1432 0.930 . S
C1425 C1424 1.394 . S
C1425 C1426 1.383 . S
C1425 H1433 0.929 . S
C1426 C1425 1.383 . S
C1426 C1427 1.377 . S
C1427 H1411 0.930 . S
C1427 C1426 1.377 . S
C1427 C1428 1.379 . S
C1428 H1412 0.931 . S
C1428 C1422 1.383 . S
C1428 C1427 1.379 . S
H1429 C1423 0.959 . S
H1430 C1423 0.961 . S
H1431 C1423 0.960 . S
H1432 C1424 0.930 . S
H1433 C1425 0.929 . S
H1434 C1442 0.929 . S
H1435 C1444 0.930 . S
H1436 C1446 0.930 . S
H1437 C1449 0.929 1_455 S
H1438 C1452 0.930 . S
H1439 C1454 0.960 . S
H1440 C1454 0.960 . S
H1441 C1454 0.960 . S
C1442 H1434 0.929 . S
C1442 C1443 1.377 . S
C1442 C1444 1.384 . S
C1443 C1442 1.377 . S
C1443 C1449 1.390 . S
C1444 H1435 0.930 . S
C1444 C1442 1.384 . S
C1444 C1445 1.372 . S
C1445 C1444 1.372 . S
C1445 C1446 1.400 . S
C1445 C1450 1.490 . S
C1446 H1436 0.930 . S
C1446 C1445 1.400 . S
C1446 C1449 1.386 . S
H1447 C1463 0.930 . S
H1448 C1464 0.931 . S
C1449 H1437 0.929 1_655 S
C1449 C1443 1.390 . S
C1449 C1446 1.386 . S
C1450 C1445 1.490 . S
C1450 C1452 1.395 . S
C1450 C1453 1.403 . S
H1451 C1457 0.930 . S
C1452 H1438 0.930 . S
C1452 C1450 1.395 . S
C1452 C1455 1.403 . S
C1453 C1450 1.403 . S
C1453 C1454 1.524 . S
C1453 C1457 1.400 . S
C1454 H1439 0.960 . S
C1454 H1440 0.960 . S
C1454 H1441 0.960 . S
C1454 C1453 1.524 . S
C1455 C1452 1.403 . S
C1455 C1456 1.392 . S
C1455 C1459 1.495 . S
C1456 C1455 1.392 . S
C1456 C1457 1.385 . S
C1456 C1458 1.478 . S
C1457 H1451 0.930 . S
C1457 C1453 1.400 . S
C1457 C1456 1.385 . S
C1458 C1456 1.478 . S
C1458 C1460 1.381 . S
C1458 C1464 1.383 . S
C1459 C1455 1.495 . S
C1459 H1465 0.959 . S
C1459 H1466 0.961 . S
C1459 H1467 0.960 . S
C1460 C1458 1.381 . S
C1460 C1461 1.394 . S
C1460 H1468 0.930 . S
C1461 C1460 1.394 . S
C1461 C1462 1.383 . S
C1461 H1469 0.929 . S
C1462 C1461 1.383 . S
C1462 C1463 1.377 . S
C1463 H1447 0.930 . S
C1463 C1462 1.377 . S
C1463 C1464 1.379 . S
C1464 H1448 0.931 . S
C1464 C1458 1.383 . S
C1464 C1463 1.379 . S
H1465 C1459 0.959 . S
H1466 C1459 0.961 . S
H1467 C1459 0.960 . S
H1468 C1460 0.930 . S
H1469 C1461 0.929 . S
H1470 C1478 0.929 . S
H1471 C1480 0.930 . S
H1472 C1482 0.930 . S
H1473 C1485 0.929 . S
H1474 C1488 0.930 . S
H1475 C1490 0.960 . S
H1476 C1490 0.960 . S
H1477 C1490 0.960 . S
C1478 H1470 0.929 . S
C1478 C1479 1.377 . S
C1478 C1480 1.384 . S
C1479 C1478 1.377 . S
C1479 C1485 1.390 . S
C1480 H1471 0.930 . S
C1480 C1478 1.384 . S
C1480 C1481 1.372 . S
C1481 C1480 1.372 . S
C1481 C1482 1.400 . S
C1481 C1486 1.490 . S
C1482 H1472 0.930 . S
C1482 C1481 1.400 . S
C1482 C1485 1.386 . S
H1483 C1499 0.930 . S
H1484 C1500 0.931 . S
C1485 H1473 0.929 . S
C1485 C1479 1.390 . S
C1485 C1482 1.386 . S
C1486 C1481 1.490 . S
C1486 C1488 1.395 . S
C1486 C1489 1.403 . S
H1487 C1493 0.930 . S
C1488 H1474 0.930 . S
C1488 C1486 1.395 . S
C1488 C1491 1.403 . S
C1489 C1486 1.403 . S
C1489 C1490 1.524 . S
C1489 C1493 1.400 . S
C1490 H1475 0.960 . S
C1490 H1476 0.960 . S
C1490 H1477 0.960 . S
C1490 C1489 1.524 . S
C1491 C1488 1.403 . S
C1491 C1492 1.392 . S
C1491 C1495 1.495 . S
C1492 C1491 1.392 . S
C1492 C1493 1.385 . S
C1492 C1494 1.478 . S
C1493 H1487 0.930 . S
C1493 C1489 1.400 . S
C1493 C1492 1.385 . S
C1494 C1492 1.478 . S
C1494 C1496 1.381 . S
C1494 C1500 1.383 . S
C1495 C1491 1.495 . S
C1495 H1501 0.959 . S
C1495 H1502 0.961 . S
C1495 H1503 0.960 . S
C1496 C1494 1.381 . S
C1496 C1497 1.394 . S
C1496 H1504 0.930 . S
C1497 C1496 1.394 . S
C1497 C1498 1.383 . S
C1497 H1505 0.929 . S
C1498 C1497 1.383 . S
C1498 C1499 1.377 . S
C1499 H1483 0.930 . S
C1499 C1498 1.377 . S
C1499 C1500 1.379 . S
C1500 H1484 0.931 . S
C1500 C1494 1.383 . S
C1500 C1499 1.379 . S
H1501 C1495 0.959 . S
H1502 C1495 0.961 . S
H1503 C1495 0.960 . S
H1504 C1496 0.930 . S
H1505 C1497 0.929 . S
H1506 C1514 0.929 . S
H1507 C1516 0.930 . S
H1508 C1518 0.930 . S
H1509 C1521 0.929 . S
H1510 C1524 0.930 . S
H1511 C1526 0.960 . S
H1512 C1526 0.960 . S
H1513 C1526 0.960 . S
C1514 H1506 0.929 . S
C1514 C1515 1.377 . S
C1514 C1516 1.384 . S
C1515 C1514 1.377 . S
C1515 C1521 1.390 . S
C1516 H1507 0.930 . S
C1516 C1514 1.384 . S
C1516 C1517 1.372 . S
C1517 C1516 1.372 . S
C1517 C1518 1.400 . S
C1517 C1522 1.490 . S
C1518 H1508 0.930 . S
C1518 C1517 1.400 . S
C1518 C1521 1.386 . S
H1519 C1535 0.930 . S
H1520 C1536 0.931 . S
C1521 H1509 0.929 . S
C1521 C1515 1.390 . S
C1521 C1518 1.386 . S
C1522 C1517 1.490 . S
C1522 C1524 1.395 . S
C1522 C1525 1.403 . S
H1523 C1529 0.930 . S
C1524 H1510 0.930 . S
C1524 C1522 1.395 . S
C1524 C1527 1.403 . S
C1525 C1522 1.403 . S
C1525 C1526 1.524 . S
C1525 C1529 1.400 . S
C1526 H1511 0.960 . S
C1526 H1512 0.960 . S
C1526 H1513 0.960 . S
C1526 C1525 1.524 . S
C1527 C1524 1.403 . S
C1527 C1528 1.392 . S
C1527 C1531 1.495 . S
C1528 C1527 1.392 . S
C1528 C1529 1.385 . S
C1528 C1530 1.478 . S
C1529 H1523 0.930 . S
C1529 C1525 1.400 . S
C1529 C1528 1.385 . S
C1530 C1528 1.478 . S
C1530 C1532 1.381 . S
C1530 C1536 1.383 . S
C1531 C1527 1.495 . S
C1531 H1537 0.959 . S
C1531 H1538 0.961 . S
C1531 H1539 0.960 . S
C1532 C1530 1.381 . S
C1532 C1533 1.394 . S
C1532 H1540 0.930 . S
C1533 C1532 1.394 . S
C1533 C1534 1.383 . S
C1533 H1541 0.929 . S
C1534 C1533 1.383 . S
C1534 C1535 1.377 . S
C1535 H1519 0.930 . S
C1535 C1534 1.377 . S
C1535 C1536 1.379 . S
C1536 H1520 0.931 . S
C1536 C1530 1.383 . S
C1536 C1535 1.379 . S
H1537 C1531 0.959 . S
H1538 C1531 0.961 . S
H1539 C1531 0.960 . S
H1540 C1532 0.930 . S
H1541 C1533 0.929 . S
H1542 C1550 0.929 . S
H1543 C1552 0.930 . S
H1544 C1554 0.930 . S
H1545 C1557 0.929 . S
H1546 C1560 0.930 . S
H1547 C1562 0.960 . S
H1548 C1562 0.960 . S
H1549 C1562 0.960 . S
C1550 H1542 0.929 . S
C1550 C1551 1.377 . S
C1550 C1552 1.384 . S
C1551 C1550 1.377 . S
C1551 C1557 1.390 . S
C1552 H1543 0.930 . S
C1552 C1550 1.384 . S
C1552 C1553 1.372 . S
C1553 C1552 1.372 . S
C1553 C1554 1.400 . S
C1553 C1558 1.490 . S
C1554 H1544 0.930 . S
C1554 C1553 1.400 . S
C1554 C1557 1.386 . S
H1555 C1571 0.930 . S
H1556 C1572 0.931 . S
C1557 H1545 0.929 . S
C1557 C1551 1.390 . S
C1557 C1554 1.386 . S
C1558 C1553 1.490 . S
C1558 C1560 1.395 . S
C1558 C1561 1.403 . S
H1559 C1565 0.930 . S
C1560 H1546 0.930 . S
C1560 C1558 1.395 . S
C1560 C1563 1.403 . S
C1561 C1558 1.403 . S
C1561 C1562 1.524 . S
C1561 C1565 1.400 . S
C1562 H1547 0.960 . S
C1562 H1548 0.960 . S
C1562 H1549 0.960 . S
C1562 C1561 1.524 . S
C1563 C1560 1.403 . S
C1563 C1564 1.392 . S
C1563 C1567 1.495 . S
C1564 C1563 1.392 . S
C1564 C1565 1.385 . S
C1564 C1566 1.478 . S
C1565 H1559 0.930 . S
C1565 C1561 1.400 . S
C1565 C1564 1.385 . S
C1566 C1564 1.478 . S
C1566 C1568 1.381 . S
C1566 C1572 1.383 . S
C1567 C1563 1.495 . S
C1567 H1573 0.959 . S
C1567 H1574 0.961 . S
C1567 H1575 0.960 . S
C1568 C1566 1.381 . S
C1568 C1569 1.394 . S
C1568 H1576 0.930 . S
C1569 C1568 1.394 . S
C1569 C1570 1.383 . S
C1569 H1577 0.929 . S
C1570 C1569 1.383 . S
C1570 C1571 1.377 . S
C1571 H1555 0.930 . S
C1571 C1570 1.377 . S
C1571 C1572 1.379 . S
C1572 H1556 0.931 . S
C1572 C1566 1.383 . S
C1572 C1571 1.379 . S
H1573 C1567 0.959 . S
H1574 C1567 0.961 . S
H1575 C1567 0.960 . S
H1576 C1568 0.930 . S
H1577 C1569 0.929 . S
H1578 C1586 0.929 . S
H1579 C1588 0.930 . S
H1580 C1590 0.930 . S
H1581 C1593 0.929 . S
H1582 C1596 0.930 . S
H1583 C1598 0.960 . S
H1584 C1598 0.960 . S
H1585 C1598 0.960 . S
C1586 H1578 0.929 . S
C1586 C1587 1.377 . S
C1586 C1588 1.384 . S
C1587 C1586 1.377 . S
C1587 C1593 1.390 . S
C1588 H1579 0.930 . S
C1588 C1586 1.384 . S
C1588 C1589 1.372 . S
C1589 C1588 1.372 . S
C1589 C1590 1.400 . S
C1589 C1594 1.490 . S
C1590 H1580 0.930 . S
C1590 C1589 1.400 . S
C1590 C1593 1.386 . S
H1591 C1607 0.930 . S
H1592 C1608 0.931 . S
C1593 H1581 0.929 . S
C1593 C1587 1.390 . S
C1593 C1590 1.386 . S
C1594 C1589 1.490 . S
C1594 C1596 1.395 . S
C1594 C1597 1.403 . S
H1595 C1601 0.930 . S
C1596 H1582 0.930 . S
C1596 C1594 1.395 . S
C1596 C1599 1.403 . S
C1597 C1594 1.403 . S
C1597 C1598 1.524 . S
C1597 C1601 1.400 . S
C1598 H1583 0.960 . S
C1598 H1584 0.960 . S
C1598 H1585 0.960 . S
C1598 C1597 1.524 . S
C1599 C1596 1.403 . S
C1599 C1600 1.392 . S
C1599 C1603 1.495 . S
C1600 C1599 1.392 . S
C1600 C1601 1.385 . S
C1600 C1602 1.478 . S
C1601 H1595 0.930 . S
C1601 C1597 1.400 . S
C1601 C1600 1.385 . S
C1602 C1600 1.478 . S
C1602 C1604 1.381 . S
C1602 C1608 1.383 . S
C1603 C1599 1.495 . S
C1603 H1609 0.959 . S
C1603 H1610 0.961 . S
C1603 H1611 0.960 . S
C1604 C1602 1.381 . S
C1604 C1605 1.394 . S
C1604 H1612 0.930 . S
C1605 C1604 1.394 . S
C1605 C1606 1.383 . S
C1605 H1613 0.929 . S
C1606 C1605 1.383 . S
C1606 C1607 1.377 . S
C1607 H1591 0.930 . S
C1607 C1606 1.377 . S
C1607 C1608 1.379 . S
C1608 H1592 0.931 . S
C1608 C1602 1.383 . S
C1608 C1607 1.379 . S
H1609 C1603 0.959 . S
H1610 C1603 0.961 . S
H1611 C1603 0.960 . S
H1612 C1604 0.930 . S
H1613 C1605 0.929 . S
H1614 C1622 0.929 . S
H1615 C1624 0.930 . S
H1616 C1626 0.930 . S
H1617 C1629 0.929 . S
H1618 C1632 0.930 . S
H1619 C1634 0.960 . S
H1620 C1634 0.960 . S
H1621 C1634 0.960 . S
C1622 H1614 0.929 . S
C1622 C1623 1.377 . S
C1622 C1624 1.384 . S
C1623 C1622 1.377 . S
C1623 C1629 1.390 . S
C1624 H1615 0.930 . S
C1624 C1622 1.384 . S
C1624 C1625 1.372 . S
C1625 C1624 1.372 . S
C1625 C1626 1.400 . S
C1625 C1630 1.490 . S
C1626 H1616 0.930 . S
C1626 C1625 1.400 . S
C1626 C1629 1.386 . S
H1627 C1643 0.930 . S
H1628 C1644 0.931 . S
C1629 H1617 0.929 . S
C1629 C1623 1.390 . S
C1629 C1626 1.386 . S
C1630 C1625 1.490 . S
C1630 C1632 1.395 . S
C1630 C1633 1.403 . S
H1631 C1637 0.930 . S
C1632 H1618 0.930 . S
C1632 C1630 1.395 . S
C1632 C1635 1.403 . S
C1633 C1630 1.403 . S
C1633 C1634 1.524 . S
C1633 C1637 1.400 . S
C1634 H1619 0.960 . S
C1634 H1620 0.960 . S
C1634 H1621 0.960 . S
C1634 C1633 1.524 . S
C1635 C1632 1.403 . S
C1635 C1636 1.392 . S
C1635 C1639 1.495 . S
C1636 C1635 1.392 . S
C1636 C1637 1.385 . S
C1636 C1638 1.478 . S
C1637 H1631 0.930 . S
C1637 C1633 1.400 . S
C1637 C1636 1.385 . S
C1638 C1636 1.478 . S
C1638 C1640 1.381 . S
C1638 C1644 1.383 . S
C1639 C1635 1.495 . S
C1639 H1645 0.959 . S
C1639 H1646 0.961 . S
C1639 H1647 0.960 . S
C1640 C1638 1.381 . S
C1640 C1641 1.394 . S
C1640 H1648 0.930 . S
C1641 C1640 1.394 . S
C1641 C1642 1.383 . S
C1641 H1649 0.929 . S
C1642 C1641 1.383 . S
C1642 C1643 1.377 . S
C1643 H1627 0.930 . S
C1643 C1642 1.377 . S
C1643 C1644 1.379 . S
C1644 H1628 0.931 . S
C1644 C1638 1.383 . S
C1644 C1643 1.379 . S
H1645 C1639 0.959 . S
H1646 C1639 0.961 . S
H1647 C1639 0.960 . S
H1648 C1640 0.930 . S
H1649 C1641 0.929 . S
H1650 C1658 0.929 . S
H1651 C1660 0.930 . S
H1652 C1662 0.930 . S
H1653 C1665 0.929 . S
H1654 C1668 0.930 . S
H1655 C1670 0.960 . S
H1656 C1670 0.960 . S
H1657 C1670 0.960 . S
C1658 H1650 0.929 . S
C1658 C1659 1.377 . S
C1658 C1660 1.384 . S
C1659 C1658 1.377 . S
C1659 C1665 1.390 . S
C1660 H1651 0.930 . S
C1660 C1658 1.384 . S
C1660 C1661 1.372 . S
C1661 C1660 1.372 . S
C1661 C1662 1.400 . S
C1661 C1666 1.490 . S
C1662 H1652 0.930 . S
C1662 C1661 1.400 . S
C1662 C1665 1.386 . S
H1663 C1679 0.930 . S
H1664 C1680 0.931 . S
C1665 H1653 0.929 . S
C1665 C1659 1.390 . S
C1665 C1662 1.386 . S
C1666 C1661 1.490 . S
C1666 C1668 1.395 . S
C1666 C1669 1.403 . S
H1667 C1673 0.930 . S
C1668 H1654 0.930 . S
C1668 C1666 1.395 . S
C1668 C1671 1.403 . S
C1669 C1666 1.403 . S
C1669 C1670 1.524 . S
C1669 C1673 1.400 . S
C1670 H1655 0.960 . S
C1670 H1656 0.960 . S
C1670 H1657 0.960 . S
C1670 C1669 1.524 . S
C1671 C1668 1.403 . S
C1671 C1672 1.392 . S
C1671 C1675 1.495 . S
C1672 C1671 1.392 . S
C1672 C1673 1.385 . S
C1672 C1674 1.478 . S
C1673 H1667 0.930 . S
C1673 C1669 1.400 . S
C1673 C1672 1.385 . S
C1674 C1672 1.478 . S
C1674 C1676 1.381 . S
C1674 C1680 1.383 . S
C1675 C1671 1.495 . S
C1675 H1681 0.959 . S
C1675 H1682 0.961 . S
C1675 H1683 0.960 . S
C1676 C1674 1.381 . S
C1676 C1677 1.394 . S
C1676 H1684 0.930 . S
C1677 C1676 1.394 . S
C1677 C1678 1.383 . S
C1677 H1685 0.929 . S
C1678 C1677 1.383 . S
C1678 C1679 1.377 . S
C1679 H1663 0.930 . S
C1679 C1678 1.377 . S
C1679 C1680 1.379 . S
C1680 H1664 0.931 . S
C1680 C1674 1.383 . S
C1680 C1679 1.379 . S
H1681 C1675 0.959 . S
H1682 C1675 0.961 . S
H1683 C1675 0.960 . S
H1684 C1676 0.930 . S
H1685 C1677 0.929 . S
H1686 C1694 0.929 . S
H1687 C1696 0.930 . S
H1688 C1698 0.930 . S
H1689 C1701 0.929 . S
H1690 C1704 0.930 . S
H1691 C1706 0.960 . S
H1692 C1706 0.960 . S
H1693 C1706 0.960 . S
C1694 H1686 0.929 . S
C1694 C1695 1.377 . S
C1694 C1696 1.384 . S
C1695 C1694 1.377 . S
C1695 C1701 1.390 . S
C1696 H1687 0.930 . S
C1696 C1694 1.384 . S
C1696 C1697 1.372 . S
C1697 C1696 1.372 . S
C1697 C1698 1.400 . S
C1697 C1702 1.490 . S
C1698 H1688 0.930 . S
C1698 C1697 1.400 . S
C1698 C1701 1.386 . S
H1699 C1715 0.930 . S
H1700 C1716 0.931 . S
C1701 H1689 0.929 . S
C1701 C1695 1.390 . S
C1701 C1698 1.386 . S
C1702 C1697 1.490 . S
C1702 C1704 1.395 . S
C1702 C1705 1.403 . S
H1703 C1709 0.930 . S
C1704 H1690 0.930 . S
C1704 C1702 1.395 . S
C1704 C1707 1.403 . S
C1705 C1702 1.403 . S
C1705 C1706 1.524 . S
C1705 C1709 1.400 . S
C1706 H1691 0.960 . S
C1706 H1692 0.960 . S
C1706 H1693 0.960 . S
C1706 C1705 1.524 . S
C1707 C1704 1.403 . S
C1707 C1708 1.392 . S
C1707 C1711 1.495 . S
C1708 C1707 1.392 . S
C1708 C1709 1.385 . S
C1708 C1710 1.478 . S
C1709 H1703 0.930 . S
C1709 C1705 1.400 . S
C1709 C1708 1.385 . S
C1710 C1708 1.478 . S
C1710 C1712 1.381 . S
C1710 C1716 1.383 . S
C1711 C1707 1.495 . S
C1711 H1717 0.959 . S
C1711 H1718 0.961 . S
C1711 H1719 0.960 . S
C1712 C1710 1.381 . S
C1712 C1713 1.394 . S
C1712 H1720 0.930 . S
C1713 C1712 1.394 . S
C1713 C1714 1.383 . S
C1713 H1721 0.929 . S
C1714 C1713 1.383 . S
C1714 C1715 1.377 . S
C1715 H1699 0.930 . S
C1715 C1714 1.377 . S
C1715 C1716 1.379 . S
C1716 H1700 0.931 . S
C1716 C1710 1.383 . S
C1716 C1715 1.379 . S
H1717 C1711 0.959 . S
H1718 C1711 0.961 . S
H1719 C1711 0.960 . S
H1720 C1712 0.930 . S
H1721 C1713 0.929 . S
H1722 C1730 0.929 . S
H1723 C1732 0.930 . S
H1724 C1734 0.930 . S
H1725 C1737 0.929 . S
H1726 C1740 0.930 . S
H1727 C1742 0.960 . S
H1728 C1742 0.960 . S
H1729 C1742 0.960 . S
C1730 H1722 0.929 . S
C1730 C1731 1.377 . S
C1730 C1732 1.384 . S
C1731 C1730 1.377 . S
C1731 C1737 1.390 . S
C1732 H1723 0.930 . S
C1732 C1730 1.384 . S
C1732 C1733 1.372 . S
C1733 C1732 1.372 . S
C1733 C1734 1.400 . S
C1733 C1738 1.490 . S
C1734 H1724 0.930 . S
C1734 C1733 1.400 . S
C1734 C1737 1.386 . S
H1735 C1751 0.930 . S
H1736 C1752 0.931 . S
C1737 H1725 0.929 . S
C1737 C1731 1.390 . S
C1737 C1734 1.386 . S
C1738 C1733 1.490 . S
C1738 C1740 1.395 . S
C1738 C1741 1.403 . S
H1739 C1745 0.930 . S
C1740 H1726 0.930 . S
C1740 C1738 1.395 . S
C1740 C1743 1.403 . S
C1741 C1738 1.403 . S
C1741 C1742 1.524 . S
C1741 C1745 1.400 . S
C1742 H1727 0.960 . S
C1742 H1728 0.960 . S
C1742 H1729 0.960 . S
C1742 C1741 1.524 . S
C1743 C1740 1.403 . S
C1743 C1744 1.392 . S
C1743 C1747 1.495 . S
C1744 C1743 1.392 . S
C1744 C1745 1.385 . S
C1744 C1746 1.478 . S
C1745 H1739 0.930 . S
C1745 C1741 1.400 . S
C1745 C1744 1.385 . S
C1746 C1744 1.478 . S
C1746 C1748 1.381 . S
C1746 C1752 1.383 . S
C1747 C1743 1.495 . S
C1747 H1753 0.959 . S
C1747 H1754 0.961 . S
C1747 H1755 0.960 . S
C1748 C1746 1.381 . S
C1748 C1749 1.394 . S
C1748 H1756 0.930 . S
C1749 C1748 1.394 . S
C1749 C1750 1.383 . S
C1749 H1757 0.929 . S
C1750 C1749 1.383 . S
C1750 C1751 1.377 . S
C1751 H1735 0.930 . S
C1751 C1750 1.377 . S
C1751 C1752 1.379 . S
C1752 H1736 0.931 . S
C1752 C1746 1.383 . S
C1752 C1751 1.379 . S
H1753 C1747 0.959 . S
H1754 C1747 0.961 . S
H1755 C1747 0.960 . S
H1756 C1748 0.930 . S
H1757 C1749 0.929 . S
H1758 C1766 0.929 . S
H1759 C1768 0.930 . S
H1760 C1770 0.930 . S
H1761 C1773 0.929 . S
H1762 C1776 0.930 . S
H1763 C1778 0.960 . S
H1764 C1778 0.960 . S
H1765 C1778 0.960 . S
C1766 H1758 0.929 . S
C1766 C1767 1.377 . S
C1766 C1768 1.384 . S
C1767 C1766 1.377 . S
C1767 C1773 1.390 . S
C1768 H1759 0.930 . S
C1768 C1766 1.384 . S
C1768 C1769 1.372 . S
C1769 C1768 1.372 . S
C1769 C1770 1.400 . S
C1769 C1774 1.490 . S
C1770 H1760 0.930 . S
C1770 C1769 1.400 . S
C1770 C1773 1.386 . S
H1771 C1787 0.930 . S
H1772 C1788 0.931 . S
C1773 H1761 0.929 . S
C1773 C1767 1.390 . S
C1773 C1770 1.386 . S
C1774 C1769 1.490 . S
C1774 C1776 1.395 . S
C1774 C1777 1.403 . S
H1775 C1781 0.930 . S
C1776 H1762 0.930 . S
C1776 C1774 1.395 . S
C1776 C1779 1.403 . S
C1777 C1774 1.403 . S
C1777 C1778 1.524 . S
C1777 C1781 1.400 . S
C1778 H1763 0.960 . S
C1778 H1764 0.960 . S
C1778 H1765 0.960 . S
C1778 C1777 1.524 . S
C1779 C1776 1.403 . S
C1779 C1780 1.392 . S
C1779 C1783 1.495 . S
C1780 C1779 1.392 . S
C1780 C1781 1.385 . S
C1780 C1782 1.478 . S
C1781 H1775 0.930 . S
C1781 C1777 1.400 . S
C1781 C1780 1.385 . S
C1782 C1780 1.478 . S
C1782 C1784 1.381 . S
C1782 C1788 1.383 . S
C1783 C1779 1.495 . S
C1783 H1789 0.959 . S
C1783 H1790 0.961 . S
C1783 H1791 0.960 . S
C1784 C1782 1.381 . S
C1784 C1785 1.394 . S
C1784 H1792 0.930 . S
C1785 C1784 1.394 . S
C1785 C1786 1.383 . S
C1785 H1793 0.929 . S
C1786 C1785 1.383 . S
C1786 C1787 1.377 . S
C1787 H1771 0.930 . S
C1787 C1786 1.377 . S
C1787 C1788 1.379 . S
C1788 H1772 0.931 . S
C1788 C1782 1.383 . S
C1788 C1787 1.379 . S
H1789 C1783 0.959 . S
H1790 C1783 0.961 . S
H1791 C1783 0.960 . S
H1792 C1784 0.930 . S
H1793 C1785 0.929 . S
H1794 C1802 0.929 . S
H1795 C1804 0.930 . S
H1796 C1806 0.930 . S
H1797 C1809 0.929 . S
H1798 C1812 0.930 . S
H1799 C1814 0.960 . S
H1800 C1814 0.960 . S
H1801 C1814 0.960 . S
C1802 H1794 0.929 . S
C1802 C1803 1.377 . S
C1802 C1804 1.384 . S
C1803 C1802 1.377 . S
C1803 C1809 1.390 . S
C1804 H1795 0.930 . S
C1804 C1802 1.384 . S
C1804 C1805 1.372 . S
C1805 C1804 1.372 . S
C1805 C1806 1.400 . S
C1805 C1810 1.490 . S
C1806 H1796 0.930 . S
C1806 C1805 1.400 . S
C1806 C1809 1.386 . S
H1807 C1823 0.930 . S
H1808 C1824 0.931 . S
C1809 H1797 0.929 . S
C1809 C1803 1.390 . S
C1809 C1806 1.386 . S
C1810 C1805 1.490 . S
C1810 C1812 1.395 . S
C1810 C1813 1.403 . S
H1811 C1817 0.930 . S
C1812 H1798 0.930 . S
C1812 C1810 1.395 . S
C1812 C1815 1.403 . S
C1813 C1810 1.403 . S
C1813 C1814 1.524 . S
C1813 C1817 1.400 . S
C1814 H1799 0.960 . S
C1814 H1800 0.960 . S
C1814 H1801 0.960 . S
C1814 C1813 1.524 . S
C1815 C1812 1.403 . S
C1815 C1816 1.392 . S
C1815 C1819 1.495 . S
C1816 C1815 1.392 . S
C1816 C1817 1.385 . S
C1816 C1818 1.478 . S
C1817 H1811 0.930 . S
C1817 C1813 1.400 . S
C1817 C1816 1.385 . S
C1818 C1816 1.478 . S
C1818 C1820 1.381 . S
C1818 C1824 1.383 . S
C1819 C1815 1.495 . S
C1819 H1825 0.959 . S
C1819 H1826 0.961 . S
C1819 H1827 0.960 . S
C1820 C1818 1.381 . S
C1820 C1821 1.394 . S
C1820 H1828 0.930 . S
C1821 C1820 1.394 . S
C1821 C1822 1.383 . S
C1821 H1829 0.929 . S
C1822 C1821 1.383 . S
C1822 C1823 1.377 . S
C1823 H1807 0.930 . S
C1823 C1822 1.377 . S
C1823 C1824 1.379 . S
C1824 H1808 0.931 . S
C1824 C1818 1.383 . S
C1824 C1823 1.379 . S
H1825 C1819 0.959 . S
H1826 C1819 0.961 . S
H1827 C1819 0.960 . S
H1828 C1820 0.930 . S
H1829 C1821 0.929 . S
H1830 C1838 0.929 . S
H1831 C1840 0.930 . S
H1832 C1842 0.930 . S
H1833 C1845 0.929 . S
H1834 C1848 0.930 . S
H1835 C1850 0.960 . S
H1836 C1850 0.960 . S
H1837 C1850 0.960 . S
C1838 H1830 0.929 . S
C1838 C1839 1.377 . S
C1838 C1840 1.384 . S
C1839 C1838 1.377 . S
C1839 C1845 1.390 . S
C1840 H1831 0.930 . S
C1840 C1838 1.384 . S
C1840 C1841 1.372 . S
C1841 C1840 1.372 . S
C1841 C1842 1.400 . S
C1841 C1846 1.490 . S
C1842 H1832 0.930 . S
C1842 C1841 1.400 . S
C1842 C1845 1.386 . S
H1843 C1859 0.930 . S
H1844 C1860 0.931 . S
C1845 H1833 0.929 . S
C1845 C1839 1.390 . S
C1845 C1842 1.386 . S
C1846 C1841 1.490 . S
C1846 C1848 1.395 . S
C1846 C1849 1.403 . S
H1847 C1853 0.930 . S
C1848 H1834 0.930 . S
C1848 C1846 1.395 . S
C1848 C1851 1.403 . S
C1849 C1846 1.403 . S
C1849 C1850 1.524 . S
C1849 C1853 1.400 . S
C1850 H1835 0.960 . S
C1850 H1836 0.960 . S
C1850 H1837 0.960 . S
C1850 C1849 1.524 . S
C1851 C1848 1.403 . S
C1851 C1852 1.392 . S
C1851 C1855 1.495 . S
C1852 C1851 1.392 . S
C1852 C1853 1.385 . S
C1852 C1854 1.478 . S
C1853 H1847 0.930 . S
C1853 C1849 1.400 . S
C1853 C1852 1.385 . S
C1854 C1852 1.478 . S
C1854 C1856 1.381 . S
C1854 C1860 1.383 . S
C1855 C1851 1.495 . S
C1855 H1861 0.959 . S
C1855 H1862 0.961 . S
C1855 H1863 0.960 . S
C1856 C1854 1.381 . S
C1856 C1857 1.394 . S
C1856 H1864 0.930 . S
C1857 C1856 1.394 . S
C1857 C1858 1.383 . S
C1857 H1865 0.929 . S
C1858 C1857 1.383 . S
C1858 C1859 1.377 . S
C1859 H1843 0.930 . S
C1859 C1858 1.377 . S
C1859 C1860 1.379 . S
C1860 H1844 0.931 . S
C1860 C1854 1.383 . S
C1860 C1859 1.379 . S
H1861 C1855 0.959 . S
H1862 C1855 0.961 . S
H1863 C1855 0.960 . S
H1864 C1856 0.930 . S
H1865 C1857 0.929 . S
C1011 C39 1.860 . S
C1030 C347 1.688 . S
C1047 C91 1.921 . S
C1066 C487 1.580 . S
C1102 C575 1.429 . S
C1083 C128 1.659 . S
C1138 C715 1.440 . S
C1119 C188 1.709 . S
C1174 C829 1.565 . S
C1155 C250 1.813 . S
C1210 C899 0.999 . S
C1191 C304 1.870 . S
C1227 C75 1.753 . S
C1246 C557 1.041 . S
C1263 C144 1.731 . S
C1282 C661 1.217 . S
C1318 C775 1.270 . S
C1299 C198 1.749 . S
C1354 C917 1.451 . S
C1335 C234 1.615 . S
C1371 C294 1.778 . S
C1390 C329 0.960 . S
C1426 C433 1.052 . S
C1407 C29 1.532 . S
C1462 C671 1.448 . S
C1443 C38 1.982 . S
C1479 C92 1.962 . S
C1498 C785 1.495 . S
C1534 C943 1.316 . S
C1515 C135 1.935 . S
C1551 C181 1.650 . S
C1570 C319 1.346 . S
C1587 C251 2.040 . S
C1606 C443 1.476 . S
C1623 C303 1.783 . S
C1642 C547 1.551 . S
C1659 C82 1.757 . S
C1678 C889 1.532 . S
C1714 C373 1.298 . S
C1695 C145 1.984 . S
C1731 C197 1.827 . S
C1750 C461 1.253 . S
C1767 C241 1.802 . S
C1786 C601 1.185 . S
C1803 C287 1.648 . S
C1822 C689 1.217 . S
C1839 C22 1.739 . S
C1858 C803 1.301 . S
