# Generated by pormake.
# Topology wbl, (4,4)-cn, num edge types: 1
# Building blocks:
#     Node 0, Type 0, BuildingBlock: MUDLON_clean_linker_0, # of connection points: 4
#     Node 1, Type 0, BuildingBlock: MUDLON_clean_linker_0, # of connection points: 4
#     Node 2, Type 0, BuildingBlock: MUDLON_clean_linker_0, # of connection points: 4
#     Node 3, Type 0, BuildingBlock: MUDLON_clean_linker_0, # of connection points: 4
#     Node 4, Type 0, BuildingBlock: MUDLON_clean_linker_0, # of connection points: 4
#     Node 5, Type 0, BuildingBlock: MUDLON_clean_linker_0, # of connection points: 4
#     Node 6, Type 0, BuildingBlock: MUDLON_clean_linker_0, # of connection points: 4
#     Node 7, Type 0, BuildingBlock: MUDLON_clean_linker_0, # of connection points: 4
#     Node 8, Type 1, BuildingBlock: NAHDIM_clean_sbu_0, # of connection points: 4
#     Node 9, Type 1, BuildingBlock: NAHDIM_clean_sbu_0, # of connection points: 4
#     Node 10, Type 1, BuildingBlock: NAHDIM_clean_sbu_0, # of connection points: 4
#     Node 11, Type 1, BuildingBlock: NAHDIM_clean_sbu_0, # of connection points: 4
#     Node 12, Type 1, BuildingBlock: NAHDIM_clean_sbu_0, # of connection points: 4
#     Node 13, Type 1, BuildingBlock: NAHDIM_clean_sbu_0, # of connection points: 4
#     Node 14, Type 1, BuildingBlock: NAHDIM_clean_sbu_0, # of connection points: 4
#     Node 15, Type 1, BuildingBlock: NAHDIM_clean_sbu_0, # of connection points: 4
#     Edge 16, Type (0, 1), BuildingBlock: AJUNOK_clean_linker_0, # of connection points: 2
#     Edge 17, Type (0, 1), BuildingBlock: AJUNOK_clean_linker_0, # of connection points: 2
#     Edge 18, Type (0, 1), BuildingBlock: AJUNOK_clean_linker_0, # of connection points: 2
#     Edge 19, Type (0, 1), BuildingBlock: AJUNOK_clean_linker_0, # of connection points: 2
#     Edge 20, Type (0, 1), BuildingBlock: AJUNOK_clean_linker_0, # of connection points: 2
#     Edge 21, Type (0, 1), BuildingBlock: AJUNOK_clean_linker_0, # of connection points: 2
#     Edge 22, Type (0, 1), BuildingBlock: AJUNOK_clean_linker_0, # of connection points: 2
#     Edge 23, Type (0, 1), BuildingBlock: AJUNOK_clean_linker_0, # of connection points: 2
#     Edge 24, Type (0, 1), BuildingBlock: AJUNOK_clean_linker_0, # of connection points: 2
#     Edge 25, Type (0, 1), BuildingBlock: AJUNOK_clean_linker_0, # of connection points: 2
#     Edge 26, Type (0, 1), BuildingBlock: AJUNOK_clean_linker_0, # of connection points: 2
#     Edge 27, Type (0, 1), BuildingBlock: AJUNOK_clean_linker_0, # of connection points: 2
#     Edge 28, Type (0, 1), BuildingBlock: AJUNOK_clean_linker_0, # of connection points: 2
#     Edge 29, Type (0, 1), BuildingBlock: AJUNOK_clean_linker_0, # of connection points: 2
#     Edge 30, Type (0, 1), BuildingBlock: AJUNOK_clean_linker_0, # of connection points: 2
#     Edge 31, Type (0, 1), BuildingBlock: AJUNOK_clean_linker_0, # of connection points: 2
#     Edge 32, Type (0, 1), BuildingBlock: AJUNOK_clean_linker_0, # of connection points: 2
#     Edge 33, Type (0, 1), BuildingBlock: AJUNOK_clean_linker_0, # of connection points: 2
#     Edge 34, Type (0, 1), BuildingBlock: AJUNOK_clean_linker_0, # of connection points: 2
#     Edge 35, Type (0, 1), BuildingBlock: AJUNOK_clean_linker_0, # of connection points: 2
#     Edge 36, Type (0, 1), BuildingBlock: AJUNOK_clean_linker_0, # of connection points: 2
#     Edge 37, Type (0, 1), BuildingBlock: AJUNOK_clean_linker_0, # of connection points: 2
#     Edge 38, Type (0, 1), BuildingBlock: AJUNOK_clean_linker_0, # of connection points: 2
#     Edge 39, Type (0, 1), BuildingBlock: AJUNOK_clean_linker_0, # of connection points: 2
#     Edge 40, Type (0, 1), BuildingBlock: AJUNOK_clean_linker_0, # of connection points: 2
#     Edge 41, Type (0, 1), BuildingBlock: AJUNOK_clean_linker_0, # of connection points: 2
#     Edge 42, Type (0, 1), BuildingBlock: AJUNOK_clean_linker_0, # of connection points: 2
#     Edge 43, Type (0, 1), BuildingBlock: AJUNOK_clean_linker_0, # of connection points: 2
#     Edge 44, Type (0, 1), BuildingBlock: AJUNOK_clean_linker_0, # of connection points: 2
#     Edge 45, Type (0, 1), BuildingBlock: AJUNOK_clean_linker_0, # of connection points: 2
#     Edge 46, Type (0, 1), BuildingBlock: AJUNOK_clean_linker_0, # of connection points: 2
#     Edge 47, Type (0, 1), BuildingBlock: AJUNOK_clean_linker_0, # of connection points: 2
# Relax obj value: 0.106
# Max RMSD: 0.126
# Mean RMSD: 0.113
data_MOF--net-wbl--node1-NAHDIM_clean_sbu_0--node2-MUDLON_clean_linker_0--edge1-AJUNOK_clean_linker_0
_symmetry_space_group_name_H-M    P1
_symmetry_Int_Tables_number       1
_symmetry_cell_setting            triclinic
loop_
_symmetry_equiv_pos_as_xyz
'x, y, z'
_cell_length_a     44.419147
_cell_length_b     43.091526
_cell_length_c     59.833172
_cell_angle_alpha  89.968201
_cell_angle_beta   89.998908
_cell_angle_gamma 89.958596
loop_
_atom_site_label
_atom_site_type_symbol
_atom_site_fract_x
_atom_site_fract_y
_atom_site_fract_z
_atom_type_partial_charge
H0 H 0.13128 0.93724 0.33622 0.0
N1 N 0.08646 0.91729 0.3083 0.0
H2 H 0.13964 0.92086 0.37479 0.0
H3 H 0.05266 0.87881 0.33249 0.0
H4 H 0.0614 0.86175 0.37121 0.0
H5 H 0.11046 0.86234 0.2992 0.0
H6 H 0.1607 0.85166 0.28457 0.0
H7 H 0.12348 0.96009 0.28626 0.0
H8 H 0.17286 0.94925 0.27107 0.0
H9 H 0.10242 0.97645 0.32084 0.0
H10 H 0.03196 0.92236 0.29034 0.0
H11 H 0.07082 0.02221 0.3196 0.0
H12 H 0.99909 0.96797 0.29028 0.0
H13 H 0.94829 0.15579 0.33894 0.0
H14 H 0.92625 0.16486 0.37601 0.0
H15 H 0.90676 0.06712 0.38202 0.0
H16 H 0.92872 0.05811 0.34506 0.0
H17 H 0.9037 0.0621 0.30972 0.0
H18 H 0.85559 0.07507 0.2921 0.0
H19 H 0.8911 0.16413 0.27238 0.0
H20 H 0.93923 0.15123 0.29037 0.0
H21 H 0.99647 0.08545 0.34293 0.0
H22 H 0.02993 0.0416 0.33893 0.0
H23 H 0.98753 0.01813 0.27618 0.0
N24 N 0.95047 0.10253 0.3164 0.0
H25 H 0.95288 0.06117 0.2807 0.0
C26 C 0.09101 0.90947 0.33153 0.0
C27 C 0.11541 0.92142 0.34384 0.0
C28 C 0.12022 0.91202 0.36588 0.0
C29 C 0.10095 0.89033 0.37596 0.0
C30 C 0.07645 0.87862 0.36377 0.0
C31 C 0.07143 0.88831 0.34178 0.0
C32 C 0.11313 0.91202 0.29479 0.0
C33 C 0.12376 0.88142 0.29277 0.0
C34 C 0.15248 0.87533 0.28438 0.0
C35 C 0.17114 0.89976 0.27738 0.0
C36 C 0.15946 0.93008 0.27724 0.0
C37 C 0.13088 0.93626 0.28599 0.0
C38 C 0.06973 0.94579 0.30537 0.0
C39 C 0.08019 0.97437 0.31368 0.0
C40 C 0.06182 0.00062 0.3132 0.0
C41 C 0.0321 0.99885 0.30515 0.0
C42 C 0.02192 0.97043 0.29636 0.0
C43 C 0.04062 0.94427 0.29642 0.0
C44 C 0.94025 0.10642 0.33922 0.0
C45 C 0.9396 0.13632 0.34839 0.0
C46 C 0.92687 0.14146 0.36941 0.0
C47 C 0.91462 0.11668 0.38166 0.0
C48 C 0.91611 0.08655 0.37286 0.0
C49 C 0.92858 0.08144 0.35175 0.0
C50 C 0.92506 0.1059 0.30149 0.0
C51 C 0.90143 0.08413 0.30121 0.0
C52 C 0.87395 0.09157 0.2912 0.0
C53 C 0.86965 0.12076 0.28125 0.0
C54 C 0.89395 0.14148 0.27997 0.0
C55 C 0.92139 0.13411 0.29012 0.0
C56 C 0.9704 0.07602 0.31304 0.0
C57 C 0.99373 0.07057 0.32849 0.0
C58 C 0.0134 0.04564 0.32595 0.0
C59 C 0.01139 0.02596 0.30729 0.0
C60 C 0.98922 0.03221 0.2911 0.0
C61 C 0.96915 0.05703 0.29381 0.0
H62 H 0.97407 0.33883 0.61122 0.0
N63 N 0.96858 0.38263 0.58044 0.0
H64 H 0.94965 0.33695 0.64794 0.0
H65 H 0.93784 0.43039 0.60024 0.0
H66 H 0.91328 0.4286 0.63704 0.0
H67 H 0.91116 0.40095 0.56998 0.0
H68 H 0.87331 0.36873 0.55147 0.0
H69 H 0.97863 0.3312 0.55736 0.0
H70 H 0.94083 0.29881 0.53883 0.0
H71 H 0.02621 0.39041 0.58923 0.0
H72 H 0.95149 0.43301 0.55503 0.0
H73 H 0.05779 0.43471 0.5802 0.0
H74 H 0.98337 0.47681 0.54463 0.0
H75 H 0.15341 0.57478 0.58109 0.0
H76 H 0.16386 0.5916 0.61944 0.0
H77 H 0.06874 0.58853 0.63423 0.0
H78 H 0.05839 0.5732 0.59601 0.0
H79 H 0.06007 0.6141 0.56624 0.0
H80 H 0.06403 0.66419 0.54771 0.0
H81 H 0.13959 0.63057 0.50931 0.0
H82 H 0.13562 0.58013 0.52819 0.0
H83 H 0.11645 0.50778 0.55463 0.0
H84 H 0.08428 0.46193 0.5534 0.0
H85 H 0.00582 0.52076 0.56009 0.0
N86 N 0.09997 0.56581 0.56221 0.0
H87 H 0.03799 0.56623 0.55943 0.0
C88 C 0.95771 0.38458 0.60306 0.0
C89 C 0.96134 0.35872 0.61697 0.0
C90 C 0.94732 0.35765 0.63779 0.0
C91 C 0.9294 0.38251 0.64506 0.0
C92 C 0.92705 0.40921 0.63172 0.0
C93 C 0.94101 0.41021 0.61075 0.0
C94 C 0.9478 0.3683 0.56512 0.0
C95 C 0.91806 0.37913 0.56267 0.0
C96 C 0.89636 0.3606 0.55227 0.0
C97 C 0.90408 0.3311 0.5441 0.0
C98 C 0.93429 0.32149 0.54497 0.0
C99 C 0.9559 0.33994 0.55546 0.0
C100 C 0.98667 0.40821 0.57276 0.0
C101 C 0.01688 0.40911 0.5793 0.0
C102 C 0.03496 0.43442 0.57388 0.0
C103 C 0.02335 0.45945 0.56143 0.0
C104 C 0.99308 0.45819 0.55441 0.0
C105 C 0.97481 0.43294 0.56019 0.0
C106 C 0.10529 0.57232 0.58556 0.0
C107 C 0.13492 0.57729 0.59275 0.0
C108 C 0.14084 0.5867 0.61467 0.0
C109 C 0.11711 0.59106 0.6299 0.0
C110 C 0.08747 0.58541 0.62284 0.0
C111 C 0.08156 0.57632 0.6009 0.0
C112 C 0.09751 0.59314 0.54845 0.0
C113 C 0.0768 0.61694 0.55329 0.0
C114 C 0.07909 0.6457 0.54266 0.0
C115 C 0.10206 0.65122 0.52701 0.0
C116 C 0.1217 0.62691 0.52133 0.0
C117 C 0.11933 0.59811 0.53194 0.0
C118 C 0.07986 0.54036 0.5576 0.0
C119 C 0.09224 0.5107 0.55521 0.0
C120 C 0.07377 0.48452 0.55482 0.0
C121 C 0.04237 0.48742 0.55736 0.0
C122 C 0.02982 0.51742 0.55809 0.0
C123 C 0.04835 0.54365 0.55793 0.0
H124 H 0.65059 0.49165 0.84563 0.0
N125 N 0.61281 0.47861 0.81254 0.0
H126 H 0.6577 0.46249 0.88051 0.0
H127 H 0.57873 0.4297 0.82696 0.0
H128 H 0.58543 0.40086 0.8617 0.0
H129 H 0.59644 0.42594 0.79031 0.0
H130 H 0.63005 0.39484 0.76666 0.0
H131 H 0.6636 0.49778 0.79403 0.0
H132 H 0.69684 0.46742 0.76983 0.0
H133 H 0.6159 0.5399 0.8115 0.0
H134 H 0.55416 0.46368 0.80404 0.0
H135 H 0.5741 0.57661 0.80953 0.0
H136 H 0.51183 0.49978 0.80392 0.0
H137 H 0.42867 0.67572 0.84476 0.0
H138 H 0.41144 0.67981 0.8836 0.0
H139 H 0.41271 0.57992 0.88929 0.0
H140 H 0.43026 0.57601 0.85056 0.0
H141 H 0.39549 0.57956 0.81916 0.0
H142 H 0.34762 0.58364 0.79939 0.0
H143 H 0.37492 0.67212 0.77225 0.0
H144 H 0.4229 0.66807 0.7925 0.0
H145 H 0.49422 0.62861 0.83824 0.0
H146 H 0.53643 0.59352 0.8332 0.0
H147 H 0.48364 0.53909 0.78686 0.0
N148 N 0.43907 0.62433 0.82148 0.0
H149 H 0.44106 0.57309 0.79288 0.0
C150 C 0.61424 0.46292 0.83373 0.0
C151 C 0.63611 0.47207 0.84923 0.0
C152 C 0.64011 0.45544 0.86905 0.0
C153 C 0.62234 0.42923 0.87359 0.0
C154 C 0.59977 0.42066 0.85838 0.0
C155 C 0.59577 0.43733 0.83858 0.0
C156 C 0.62788 0.46396 0.79415 0.0
C157 C 0.618 0.43543 0.78549 0.0
C158 C 0.63714 0.41774 0.77195 0.0
C159 C 0.66597 0.42879 0.76646 0.0
C160 C 0.67458 0.45855 0.77354 0.0
C161 C 0.65569 0.4759 0.78735 0.0
C162 C 0.58804 0.49921 0.80842 0.0
C163 C 0.59321 0.53118 0.80938 0.0
C164 C 0.56921 0.55204 0.80855 0.0
C165 C 0.53934 0.54125 0.80719 0.0
C166 C 0.53441 0.50908 0.80497 0.0
C167 C 0.55861 0.48825 0.80534 0.0
C168 C 0.43086 0.62573 0.84482 0.0
C169 C 0.42555 0.65479 0.85451 0.0
C170 C 0.41562 0.65704 0.87658 0.0
C171 C 0.41091 0.63018 0.88943 0.0
C172 C 0.41661 0.601 0.87985 0.0
C173 C 0.42646 0.59875 0.85771 0.0
C174 C 0.4129 0.62355 0.80718 0.0
C175 C 0.39148 0.59957 0.80866 0.0
C176 C 0.36419 0.60183 0.79721 0.0
C177 C 0.35769 0.6281 0.78415 0.0
C178 C 0.37943 0.6516 0.78217 0.0
C179 C 0.40683 0.64925 0.79356 0.0
C180 C 0.46393 0.60354 0.81656 0.0
C181 C 0.49167 0.60905 0.82704 0.0
C182 C 0.51599 0.58906 0.82388 0.0
C183 C 0.51361 0.56328 0.80958 0.0
C184 C 0.48618 0.55828 0.79838 0.0
C185 C 0.46159 0.57804 0.80185 0.0
H186 H 0.50071 0.84655 0.10779 0.0
N187 N 0.49052 0.89046 0.07766 0.0
H188 H 0.47852 0.84201 0.14514 0.0
H189 H 0.45498 0.93373 0.09809 0.0
H190 H 0.43309 0.9297 0.13562 0.0
H191 H 0.43025 0.89814 0.06945 0.0
H192 H 0.39808 0.85963 0.05151 0.0
H193 H 0.50894 0.84617 0.05015 0.0
H194 H 0.47704 0.80861 0.03074 0.0
H195 H 0.5477 0.90125 0.08624 0.0
H196 H 0.46972 0.94102 0.05452 0.0
H197 H 0.5761 0.94835 0.07908 0.0
H198 H 0.49849 0.98812 0.04592 0.0
H199 H 0.66387 0.09301 0.08266 0.0
H200 H 0.67463 0.11156 0.12065 0.0
H201 H 0.57962 0.10973 0.13572 0.0
H202 H 0.56897 0.09217 0.09799 0.0
H203 H 0.57087 0.13204 0.06783 0.0
H204 H 0.57436 0.18086 0.04739 0.0
H205 H 0.64451 0.142 0.00595 0.0
H206 H 0.64203 0.0936 0.02742 0.0
H207 H 0.62978 0.02659 0.05548 0.0
H208 H 0.60023 0.97901 0.05317 0.0
H209 H 0.51876 0.03243 0.06299 0.0
N210 N 0.61025 0.08324 0.06422 0.0
H211 H 0.54848 0.07999 0.06321 0.0
C212 C 0.47947 0.89033 0.10027 0.0
C213 C 0.48626 0.86491 0.11394 0.0
C214 C 0.47365 0.86243 0.13521 0.0
C215 C 0.45389 0.88538 0.14315 0.0
C216 C 0.44788 0.91145 0.12974 0.0
C217 C 0.46052 0.9139 0.10841 0.0
C218 C 0.47204 0.87446 0.06161 0.0
C219 C 0.44069 0.87909 0.06059 0.0
C220 C 0.42226 0.85714 0.05011 0.0
C221 C 0.43499 0.83076 0.04 0.0
C222 C 0.46654 0.82837 0.03878 0.0
C223 C 0.48484 0.84991 0.04965 0.0
C224 C 0.50687 0.91759 0.07078 0.0
C225 C 0.53701 0.92004 0.07719 0.0
C226 C 0.55326 0.94699 0.07286 0.0
C227 C 0.53981 0.97218 0.06165 0.0
C228 C 0.50956 0.96939 0.05475 0.0
C229 C 0.49313 0.94238 0.05944 0.0
C230 C 0.61575 0.09106 0.08734 0.0
C231 C 0.64546 0.09633 0.09428 0.0
C232 C 0.65154 0.10688 0.11592 0.0
C233 C 0.6279 0.1125 0.13098 0.0
C234 C 0.59822 0.10621 0.12429 0.0
C235 C 0.59216 0.09578 0.10268 0.0
C236 C 0.6068 0.10939 0.04946 0.0
C237 C 0.58671 0.13377 0.05418 0.0
C238 C 0.58861 0.16169 0.04237 0.0
C239 C 0.61032 0.16556 0.02549 0.0
C240 C 0.62826 0.14005 0.01937 0.0
C241 C 0.62665 0.11232 0.03141 0.0
C242 C 0.5915 0.0566 0.06014 0.0
C243 C 0.60548 0.02795 0.05667 0.0
C244 C 0.58851 0.00078 0.05562 0.0
C245 C 0.55706 0.00159 0.05862 0.0
C246 C 0.54286 0.03071 0.06065 0.0
C247 C 0.55991 0.05802 0.0611 0.0
H248 H 0.1383 0.51584 0.90789 0.0
N249 N 0.10863 0.539 0.94273 0.0
H250 H 0.15007 0.54242 0.87257 0.0
H251 H 0.08564 0.59478 0.92877 0.0
H252 H 0.09723 0.62115 0.89379 0.0
H253 H 0.08704 0.58793 0.96711 0.0
H254 H 0.11781 0.6222 0.99086 0.0
H255 H 0.16323 0.52728 0.95817 0.0
H256 H 0.19344 0.56035 0.9828 0.0
H257 H 0.10636 0.48563 0.96463 0.0
H258 H 0.04977 0.55414 0.93307 0.0
H259 H 0.06256 0.45259 0.97087 0.0
H260 H 0.00642 0.52051 0.93762 0.0
H261 H 0.92444 0.34047 0.93203 0.0
H262 H 0.91121 0.32595 0.8936 0.0
H263 H 0.9161 0.42224 0.87394 0.0
H264 H 0.92867 0.43664 0.91231 0.0
H265 H 0.88449 0.43537 0.93846 0.0
H266 H 0.83506 0.43375 0.95594 0.0
H267 H 0.86811 0.36751 0.00429 0.0
H268 H 0.91755 0.36823 0.98596 0.0
H269 H 0.99042 0.38422 0.94787 0.0
H270 H 0.03258 0.42015 0.94959 0.0
H271 H 0.97044 0.49621 0.95982 0.0
N272 N 0.93229 0.39731 0.94828 0.0
H273 H 0.92848 0.46035 0.95665 0.0
C274 C 0.11129 0.55325 0.92102 0.0
C275 C 0.12884 0.53858 0.90467 0.0
C276 C 0.13554 0.55374 0.88461 0.0
C277 C 0.12492 0.58397 0.88072 0.0
C278 C 0.10613 0.59806 0.89661 0.0
C279 C 0.0994 0.58289 0.91659 0.0
C280 C 0.12325 0.55547 0.96056 0.0
C281 C 0.11015 0.58168 0.97064 0.0
C282 C 0.12758 0.60108 0.98425 0.0
C283 C 0.15787 0.5938 0.98845 0.0
C284 C 0.17007 0.56627 0.97982 0.0
C285 C 0.15292 0.5474 0.96585 0.0
C286 C 0.08163 0.52203 0.94803 0.0
C287 C 0.08444 0.49354 0.95909 0.0
C288 C 0.05938 0.47456 0.9624 0.0
C289 C 0.03089 0.48343 0.95431 0.0
C290 C 0.02786 0.51283 0.94422 0.0
C291 C 0.05289 0.5321 0.94134 0.0
C292 C 0.92751 0.38949 0.92509 0.0
C293 C 0.92296 0.35833 0.91933 0.0
C294 C 0.91549 0.35012 0.89744 0.0
C295 C 0.91229 0.37304 0.88091 0.0
C296 C 0.91788 0.40418 0.88647 0.0
C297 C 0.92531 0.41239 0.90837 0.0
C298 C 0.90471 0.40142 0.96071 0.0
C299 C 0.88135 0.42073 0.95295 0.0
C300 C 0.85305 0.41995 0.96307 0.0
C301 C 0.84752 0.40001 0.9812 0.0
C302 C 0.8715 0.38249 0.98997 0.0
C303 C 0.89978 0.3831 0.9797 0.0
C304 C 0.95628 0.41927 0.95221 0.0
C305 C 0.98599 0.40862 0.95075 0.0
C306 C 0.01009 0.42928 0.95191 0.0
C307 C 0.00509 0.46128 0.95492 0.0
C308 C 0.97524 0.47186 0.95714 0.0
C309 C 0.95106 0.45117 0.95558 0.0
H310 H 0.53404 0.3462 0.15586 0.0
N311 N 0.53707 0.38758 0.1885 0.0
H312 H 0.5601 0.3477 0.11977 0.0
H313 H 0.57044 0.43595 0.17243 0.0
H314 H 0.59681 0.43753 0.13638 0.0
H315 H 0.59118 0.4089 0.20423 0.0
H316 H 0.62833 0.37745 0.22432 0.0
H317 H 0.52659 0.33472 0.20963 0.0
H318 H 0.56337 0.30343 0.23011 0.0
H319 H 0.47921 0.38518 0.1791 0.0
H320 H 0.54605 0.44203 0.21121 0.0
H321 H 0.44158 0.42547 0.18457 0.0
H322 H 0.50814 0.48241 0.2178 0.0
H323 H 0.32658 0.55471 0.17536 0.0
H324 H 0.31303 0.56762 0.13664 0.0
H325 H 0.40709 0.56938 0.11887 0.0
H326 H 0.42064 0.55742 0.15733 0.0
H327 H 0.41328 0.60467 0.18483 0.0
H328 H 0.40306 0.6555 0.20121 0.0
H329 H 0.33651 0.61431 0.24463 0.0
H330 H 0.34658 0.56338 0.22787 0.0
H331 H 0.37282 0.49285 0.20449 0.0
H332 H 0.41082 0.45243 0.20934 0.0
H333 H 0.4808 0.52022 0.1975 0.0
N334 N 0.38142 0.55142 0.19288 0.0
H335 H 0.44272 0.56062 0.19425 0.0
C336 C 0.55034 0.39083 0.16672 0.0
C337 C 0.54729 0.3664 0.1515 0.0
C338 C 0.56206 0.36737 0.13095 0.0
C339 C 0.58023 0.39286 0.12531 0.0
C340 C 0.58288 0.41767 0.14039 0.0
C341 C 0.56785 0.41678 0.16092 0.0
C342 C 0.55612 0.37391 0.20528 0.0
C343 C 0.5846 0.38631 0.21038 0.0
C344 C 0.60587 0.36833 0.22182 0.0
C345 C 0.59871 0.33805 0.22871 0.0
C346 C 0.56937 0.32685 0.22527 0.0
C347 C 0.54833 0.34465 0.2136 0.0
C348 C 0.51521 0.41054 0.19481 0.0
C349 C 0.48547 0.40619 0.18787 0.0
C350 C 0.46395 0.42925 0.19119 0.0
C351 C 0.47164 0.45731 0.20179 0.0
C352 C 0.50144 0.46128 0.20939 0.0
C353 C 0.52313 0.43812 0.20582 0.0
C354 C 0.3745 0.5547 0.16939 0.0
C355 C 0.34422 0.55726 0.163 0.0
C356 C 0.33653 0.56466 0.14099 0.0
C357 C 0.35907 0.56915 0.12488 0.0
C358 C 0.38935 0.56548 0.13097 0.0
C359 C 0.39706 0.5586 0.15307 0.0
C360 C 0.38057 0.58016 0.20516 0.0
C361 C 0.39711 0.60633 0.19829 0.0
C362 C 0.39118 0.63543 0.20762 0.0
C363 C 0.36859 0.6389 0.22388 0.0
C364 C 0.35359 0.61238 0.23179 0.0
C365 C 0.35953 0.5833 0.22244 0.0
C366 C 0.40477 0.52955 0.19859 0.0
C367 C 0.39642 0.49899 0.20344 0.0
C368 C 0.41821 0.47591 0.20598 0.0
C369 C 0.44898 0.4828 0.20325 0.0
C370 C 0.45742 0.51394 0.19979 0.0
C371 C 0.43554 0.53715 0.19771 0.0
H372 H 0.39781 0.95882 0.41097 0.0
N373 N 0.41129 0.92822 0.45 0.0
H374 H 0.38754 0.93476 0.37483 0.0
H375 H 0.41905 0.86912 0.43884 0.0
H376 H 0.40932 0.84493 0.40244 0.0
H377 H 0.35679 0.95366 0.43832 0.0
H378 H 0.30878 0.94429 0.45657 0.0
H379 H 0.40192 0.89859 0.48837 0.0
H380 H 0.35332 0.8889 0.50678 0.0
H381 H 0.39297 0.98962 0.44898 0.0
H382 H 0.47048 0.92982 0.45499 0.0
H383 H 0.4254 0.03487 0.4497 0.0
H384 H 0.50338 0.97527 0.45498 0.0
H385 H 0.55155 0.16558 0.41851 0.0
H386 H 0.56986 0.1746 0.38038 0.0
H387 H 0.58022 0.0758 0.37113 0.0
H388 H 0.56249 0.06695 0.40926 0.0
H389 H 0.59579 0.07063 0.44079 0.0
H390 H 0.64464 0.07871 0.45837 0.0
H391 H 0.61302 0.16518 0.48625 0.0
H392 H 0.56392 0.15715 0.46818 0.0
H393 H 0.49491 0.10328 0.42107 0.0
H394 H 0.4605 0.05981 0.42543 0.0
H395 H 0.51885 0.02045 0.47576 0.0
N396 N 0.54866 0.11172 0.44023 0.0
H397 H 0.55341 0.06324 0.47122 0.0
C398 C 0.40913 0.91564 0.42771 0.0
C399 C 0.40083 0.93403 0.40925 0.0
C400 C 0.39499 0.92028 0.38856 0.0
C401 C 0.39719 0.88796 0.38597 0.0
C402 C 0.40687 0.86983 0.40412 0.0
C403 C 0.41269 0.88359 0.4248 0.0
C404 C 0.38324 0.92712 0.46217 0.0
C405 C 0.35661 0.9403 0.45361 0.0
C406 C 0.32904 0.93494 0.46408 0.0
C407 C 0.32741 0.91612 0.48319 0.0
C408 C 0.35404 0.90361 0.49211 0.0
C409 C 0.38173 0.90924 0.48172 0.0
C410 C 0.42927 0.95598 0.45207 0.0
C411 C 0.4169 0.98602 0.45065 0.0
C412 C 0.4356 0.01209 0.45086 0.0
C413 C 0.46705 0.00878 0.4523 0.0
C414 C 0.47926 0.97877 0.45418 0.0
C415 C 0.46053 0.95274 0.45409 0.0
C416 C 0.55573 0.11576 0.4168 0.0
C417 C 0.55737 0.1459 0.40811 0.0
C418 C 0.56778 0.15098 0.38638 0.0
C419 C 0.57684 0.1259 0.37296 0.0
C420 C 0.57397 0.09557 0.38129 0.0
C421 C 0.56366 0.09051 0.40304 0.0
C422 C 0.57598 0.11326 0.45334 0.0
C423 C 0.59909 0.09108 0.45096 0.0
C424 C 0.62697 0.09561 0.46117 0.0
C425 C 0.63248 0.12244 0.47385 0.0
C426 C 0.60927 0.14426 0.47662 0.0
C427 C 0.58124 0.13961 0.46649 0.0
C428 C 0.52793 0.08627 0.44471 0.0
C429 C 0.50051 0.0852 0.43295 0.0
C430 C 0.48061 0.06043 0.43565 0.0
C431 C 0.48716 0.0363 0.45068 0.0
C432 C 0.51359 0.03817 0.46352 0.0
C433 C 0.53362 0.0629 0.46075 0.0
H434 H 0.00232 0.8317 0.65244 0.0
N435 N 0.00792 0.87136 0.68602 0.0
H436 H 0.02721 0.8338 0.61587 0.0
H437 H 0.04638 0.91665 0.67165 0.0
H438 H 0.0714 0.91893 0.6351 0.0
H439 H 0.06296 0.88663 0.70358 0.0
H440 H 0.09398 0.85321 0.7274 0.0
H441 H 0.99082 0.81997 0.70663 0.0
H442 H 0.02166 0.78644 0.73043 0.0
H443 H 0.95157 0.87758 0.67304 0.0
H444 H 0.02084 0.92272 0.71139 0.0
H445 H 0.91894 0.92238 0.67762 0.0
H446 H 0.98769 0.96734 0.71734 0.0
H447 H 0.82498 0.06445 0.66371 0.0
H448 H 0.82049 0.08499 0.62563 0.0
H449 H 0.91725 0.08326 0.61905 0.0
H450 H 0.92169 0.06388 0.65702 0.0
H451 H 0.91455 0.10431 0.68725 0.0
H452 H 0.9049 0.15491 0.70405 0.0
H453 H 0.82401 0.11921 0.73455 0.0
H454 H 0.8337 0.06836 0.71755 0.0
H455 H 0.85731 0.99787 0.69454 0.0
H456 H 0.88869 0.95208 0.70036 0.0
H457 H 0.96817 0.01001 0.69811 0.0
N458 N 0.87514 0.05543 0.68696 0.0
H459 H 0.93638 0.05566 0.69428 0.0
C460 C 0.02266 0.8738 0.66469 0.0
C461 C 0.01735 0.85078 0.64869 0.0
C462 C 0.03144 0.85211 0.62788 0.0
C463 C 0.05129 0.87645 0.62278 0.0
C464 C 0.05647 0.89972 0.63877 0.0
C465 C 0.04219 0.89846 0.65959 0.0
C466 C 0.02452 0.85562 0.7033 0.0
C467 C 0.05349 0.8652 0.70981 0.0
C468 C 0.07125 0.84607 0.72337 0.0
C469 C 0.06019 0.81731 0.73083 0.0
C470 C 0.0306 0.80872 0.72531 0.0
C471 C 0.01298 0.82775 0.71168 0.0
C472 C 0.98841 0.89669 0.69194 0.0
C473 C 0.95933 0.89695 0.68302 0.0
C474 C 0.94064 0.92261 0.68584 0.0
C475 C 0.95045 0.94868 0.69801 0.0
C476 C 0.97942 0.94793 0.70764 0.0
C477 C 0.99836 0.92226 0.70447 0.0
C478 C 0.8735 0.06248 0.66338 0.0
C479 C 0.84516 0.06799 0.65387 0.0
C480 C 0.84265 0.07971 0.63216 0.0
C481 C 0.86857 0.0862 0.61954 0.0
C482 C 0.89692 0.07913 0.62859 0.0
C483 C 0.89943 0.06762 0.65034 0.0
C484 C 0.8747 0.08246 0.70112 0.0
C485 C 0.89536 0.10686 0.6982 0.0
C486 C 0.88974 0.13588 0.7077 0.0
C487 C 0.86365 0.1409 0.72046 0.0
C488 C 0.84443 0.11583 0.72496 0.0
C489 C 0.84994 0.08684 0.71529 0.0
C490 C 0.89439 0.03002 0.69339 0.0
C491 C 0.88149 0.00062 0.69581 0.0
C492 C 0.89956 0.97446 0.69887 0.0
C493 C 0.93116 0.97704 0.69904 0.0
C494 C 0.94399 0.00691 0.69809 0.0
C495 C 0.92576 0.03319 0.69559 0.0
C496 C 0.25771 0.66456 0.02138 0.0
O497 O 0.26914 0.65945 0.04129 0.0
O498 O 0.33112 0.65145 0.03682 0.0
Zn499 Zn 0.31983 0.67742 0.01001 0.0
O500 O 0.33883 0.66202 0.98144 0.0
C501 C 0.36304 0.72077 0.02128 0.0
O502 O 0.37657 0.69391 0.02391 0.0
O503 O 0.27475 0.67477 0.00595 0.0
C504 C 0.36316 0.64674 0.97928 0.0
O505 O 0.37819 0.6384 0.9972 0.0
C506 C 0.33276 0.62205 0.03783 0.0
O507 O 0.32768 0.60539 0.01985 0.0
O508 O 0.33562 0.72091 0.01515 0.0
C509 C 0.29709 0.869 0.26148 0.0
O510 O 0.31897 0.88878 0.26536 0.0
O511 O 0.36685 0.85163 0.22834 0.0
Zn512 Zn 0.34806 0.83085 0.25486 0.0
O513 O 0.367 0.84614 0.28331 0.0
C514 C 0.33493 0.76602 0.24563 0.0
O515 O 0.30789 0.77683 0.24134 0.0
O516 O 0.30382 0.84139 0.25591 0.0
C517 C 0.35664 0.83541 0.30153 0.0
O518 O 0.33503 0.81466 0.30063 0.0
C519 C 0.39527 0.85413 0.22697 0.0
O520 O 0.41189 0.84399 0.24361 0.0
O521 O 0.35524 0.7848 0.25199 0.0
C522 C 0.20641 0.87822 0.50767 0.0
O523 O 0.18451 0.89846 0.51006 0.0
O524 O 0.13731 0.85566 0.53575 0.0
Zn525 Zn 0.15586 0.83835 0.50775 0.0
O526 O 0.13646 0.85617 0.48014 0.0
C527 C 0.12407 0.78071 0.50535 0.0
O528 O 0.10187 0.79979 0.50069 0.0
O529 O 0.19977 0.84956 0.50674 0.0
C530 C 0.13829 0.84116 0.46192 0.0
O531 O 0.15192 0.81409 0.46185 0.0
C532 C 0.11004 0.86444 0.53659 0.0
O533 O 0.09375 0.86377 0.51827 0.0
O534 O 0.15019 0.7919 0.50865 0.0
C535 C 0.2333 0.64055 0.75567 0.0
O536 O 0.21793 0.61596 0.74952 0.0
O537 O 0.1643 0.64101 0.72764 0.0
Zn538 Zn 0.17409 0.66434 0.75583 0.0
O539 O 0.15765 0.6413 0.78241 0.0
C540 C 0.13186 0.71462 0.76379 0.0
O541 O 0.11931 0.69397 0.77696 0.0
O542 O 0.21915 0.66574 0.7592 0.0
C543 C 0.16548 0.65067 0.80168 0.0
O544 O 0.18336 0.67485 0.80317 0.0
C545 C 0.1397 0.64548 0.71731 0.0
O546 O 0.12013 0.66529 0.72553 0.0
O547 O 0.15606 0.70748 0.75362 0.0
C548 C 0.75739 0.14327 0.49841 0.0
O549 O 0.77448 0.11986 0.5045 0.0
O550 O 0.82754 0.14531 0.52402 0.0
Zn551 Zn 0.81492 0.1716 0.49766 0.0
O552 O 0.83376 0.15713 0.46894 0.0
C553 C 0.82359 0.23047 0.52035 0.0
O554 O 0.80559 0.21811 0.53532 0.0
O555 O 0.76977 0.16932 0.49448 0.0
C556 C 0.85664 0.13957 0.46732 0.0
O557 O 0.86883 0.12819 0.48557 0.0
C558 C 0.85125 0.15115 0.53513 0.0
O559 O 0.86893 0.17376 0.52847 0.0
O560 O 0.82936 0.21528 0.50267 0.0
C561 C 0.7709 0.35781 0.74164 0.0
O562 O 0.78791 0.36446 0.72435 0.0
O563 O 0.8471 0.34164 0.7307 0.0
Zn564 Zn 0.82495 0.32677 0.75794 0.0
O565 O 0.84397 0.34358 0.78585 0.0
C566 C 0.82529 0.26743 0.73851 0.0
O567 O 0.81741 0.28481 0.72143 0.0
O568 O 0.78165 0.34107 0.75724 0.0
C569 C 0.86862 0.33335 0.79371 0.0
O570 O 0.88278 0.3111 0.78298 0.0
C571 C 0.86289 0.36586 0.7279 0.0
O572 O 0.8662 0.38546 0.74453 0.0
O573 O 0.82831 0.28012 0.75754 0.0
C574 C 0.72039 0.38547 0.00178 0.0
O575 O 0.70308 0.41018 0.00099 0.0
O576 O 0.64115 0.36946 0.02701 0.0
Zn577 Zn 0.66351 0.35203 0.00075 0.0
O578 O 0.64831 0.37214 0.97274 0.0
C579 C 0.63031 0.29395 -0.0006 0.0
O580 O 0.60685 0.31219 0.9968 0.0
O581 O 0.7082 0.35885 0.00259 0.0
C582 C 0.65041 0.35881 0.95388 0.0
O583 O 0.66206 0.33081 0.95289 0.0
C584 C 0.65297 0.37587 0.04576 0.0
O585 O 0.68218 0.3726 0.04828 0.0
O586 O 0.65634 0.30602 0.00063 0.0
C587 C 0.74994 0.16069 0.25379 0.0
O588 O 0.74361 0.16266 0.23238 0.0
O589 O 0.67567 0.15316 0.23031 0.0
Zn590 Zn 0.68539 0.17158 0.26051 0.0
O591 O 0.66134 0.15054 0.28462 0.0
C592 C 0.68048 0.2369 0.24675 0.0
O593 O 0.69979 0.22939 0.23101 0.0
O594 O 0.72912 0.16504 0.26801 0.0
C595 C 0.63459 0.15901 0.28907 0.0
O596 O 0.62188 0.1804 0.27658 0.0
C597 C 0.65306 0.16304 0.21938 0.0
O598 O 0.63599 0.18458 0.22834 0.0
O599 O 0.67317 0.21659 0.26112 0.0
C600 C 0.21156 0.86817 0.25872 0.0
C601 C 0.20334 0.89372 0.27204 0.0
C602 C 0.2419 0.86055 0.25513 0.0
C603 C 0.26521 0.87831 0.26463 0.0
H604 H 0.19438 0.85375 0.25115 0.0
H605 H 0.2471 0.8405 0.24492 0.0
S606 S 0.25572 0.94677 0.30165 0.0
N607 N 0.22105 0.93611 0.29542 0.0
N608 N 0.27792 0.92236 0.28824 0.0
C609 C 0.25731 0.90414 0.27777 0.0
C610 C 0.22644 0.91171 0.28158 0.0
C611 C 0.1365 0.69624 0.52097 0.0
C612 C 0.10765 0.68318 0.51875 0.0
C613 C 0.14176 0.72751 0.51593 0.0
C614 C 0.11838 0.74701 0.50845 0.0
H615 H 0.15494 0.6825 0.52752 0.0
H616 H 0.1642 0.73662 0.51856 0.0
S617 S 0.03941 0.72291 0.49743 0.0
N618 N 0.05598 0.69119 0.50684 0.0
N619 N 0.06565 0.75004 0.49736 0.0
C620 C 0.08967 0.7338 0.50519 0.0
C621 C 0.08435 0.70191 0.51038 0.0
C622 C 0.31081 0.65932 0.77874 0.0
C623 C 0.32727 0.6321 0.77436 0.0
C624 C 0.28075 0.66228 0.77195 0.0
C625 C 0.26598 0.63811 0.76053 0.0
H626 H 0.32086 0.678 0.78827 0.0
H627 H 0.26876 0.68329 0.77638 0.0
S628 S 0.3006 0.56366 0.74253 0.0
N629 N 0.32772 0.58178 0.75614 0.0
N630 N 0.27121 0.58711 0.74338 0.0
C631 C 0.28272 0.61135 0.75511 0.0
C632 C 0.31334 0.60839 0.76205 0.0
C633 C 0.42491 0.77398 0.04159 0.0
C634 C 0.41602 0.80353 0.03409 0.0
C635 C 0.40745 0.74771 0.0374 0.0
C636 C 0.38009 0.74972 0.02566 0.0
H637 H 0.44539 0.77108 0.05121 0.0
H638 H 0.41548 0.72562 0.04368 0.0
S639 S 0.34679 0.82153 0.00188 0.0
N640 N 0.37827 0.8333 0.01388 0.0
N641 N 0.34497 0.78372 0.00626 0.0
C642 C 0.3707 0.77912 0.01808 0.0
C643 C 0.38874 0.80604 0.02225 0.0
C644 C 0.19298 0.60779 0.01933 0.0
C645 C 0.17821 0.6161 -0.00053 0.0
C646 C 0.21724 0.62531 0.02737 0.0
C647 C 0.22804 0.65125 0.01547 0.0
H648 H 0.18667 0.58675 0.02807 0.0
H649 H 0.22888 0.61711 0.04215 0.0
S650 S 0.19502 0.68402 0.96362 0.0
N651 N 0.17416 0.65322 0.96909 0.0
N652 N 0.22023 0.68589 0.98388 0.0
C653 C 0.21223 0.66079 0.99629 0.0
C654 C 0.1872 0.64324 0.98835 0.0
C655 C 0.38081 0.69219 0.23797 0.0
C656 C 0.35919 0.67039 0.23113 0.0
C657 C 0.37261 0.72277 0.24322 0.0
C658 C 0.34248 0.73286 0.2416 0.0
H659 H 0.40432 0.68563 0.23907 0.0
H660 H 0.39022 0.73875 0.24811 0.0
S661 S 0.27725 0.68445 0.22448 0.0
N662 N 0.3064 0.66077 0.22305 0.0
N663 N 0.29085 0.71805 0.23303 0.0
C664 C 0.32055 0.71104 0.23513 0.0
C665 C 0.32893 0.67987 0.22988 0.0
C666 C 0.29007 0.87575 0.49451 0.0
C667 C 0.29762 0.90728 0.49235 0.0
C668 C 0.26077 0.86662 0.50019 0.0
C669 C 0.23791 0.88867 0.50401 0.0
H670 H 0.3066 0.85796 0.49085 0.0
H671 H 0.25588 0.84202 0.50094 0.0
S672 S 0.2474 0.97437 0.50298 0.0
N673 N 0.28089 0.96062 0.49626 0.0
N674 N 0.2258 0.94371 0.50701 0.0
C675 C 0.24567 0.92037 0.50299 0.0
C676 C 0.2755 0.9296 0.4971 0.0
C677 C 0.10802 0.78678 0.73193 0.0
C678 C 0.08038 0.79457 0.74194 0.0
C679 C 0.1253 0.76186 0.73983 0.0
C680 C 0.11561 0.74372 0.75806 0.0
H681 H 0.11561 0.79899 0.71714 0.0
H682 H 0.14574 0.75597 0.73091 0.0
S683 S 0.04709 0.75786 0.79222 0.0
N684 N 0.04576 0.78465 0.7725 0.0
N685 N 0.07809 0.73776 0.78746 0.0
C686 C 0.08893 0.75261 0.76911 0.0
C687 C 0.07134 0.778 0.76101 0.0
C688 C 0.69635 0.38028 0.7679 0.0
C689 C 0.6889 0.40789 0.75666 0.0
C690 C 0.72209 0.3633 0.7621 0.0
C691 C 0.74124 0.37316 0.74474 0.0
H692 H 0.68324 0.37277 0.78218 0.0
H693 H 0.72765 0.34299 0.77196 0.0
S694 S 0.72898 0.44176 0.70817 0.0
N695 N 0.70069 0.44276 0.72606 0.0
N696 N 0.74895 0.41076 0.71482 0.0
C697 C 0.73273 0.39955 0.7323 0.0
C698 C 0.70663 0.41698 0.73839 0.0
C699 C 0.59219 0.21625 0.00968 0.0
C700 C 0.61622 0.19696 0.01614 0.0
C701 C 0.59708 0.24723 0.00342 0.0
C702 C 0.6262 0.26017 0.00345 0.0
H703 H 0.56933 0.20752 0.00992 0.0
H704 H 0.57772 0.26131 -0.00087 0.0
S705 S 0.69697 0.219 0.01841 0.0
N706 N 0.67029 0.19283 0.02186 0.0
N707 N 0.67963 0.25061 0.00963 0.0
C708 C 0.65058 0.24072 0.00909 0.0
C709 C 0.64555 0.20926 0.01554 0.0
C710 C 0.83357 0.14116 0.2525 0.0
C711 C 0.83914 0.13083 0.27438 0.0
C712 C 0.8047 0.15095 0.24599 0.0
C713 C 0.78052 0.15127 0.26126 0.0
H714 H 0.85157 0.14133 0.24028 0.0
H715 H 0.80136 0.15836 0.22887 0.0
S716 S 0.78432 0.12799 0.32105 0.0
N717 N 0.81879 0.12251 0.31155 0.0
N718 N 0.76468 0.14102 0.29958 0.0
C719 C 0.78613 0.14151 0.28337 0.0
C720 C 0.81539 0.13125 0.28986 0.0
C721 C 0.88385 0.29271 0.5166 0.0
C722 C 0.88058 0.30886 0.53683 0.0
C723 C 0.86428 0.26848 0.5109 0.0
C724 C 0.84089 0.25916 0.52536 0.0
H725 H 0.90219 0.29831 0.50536 0.0
H726 H 0.86837 0.25621 0.4954 0.0
S727 S 0.82206 0.29527 0.57997 0.0
N728 N 0.8516 0.31487 0.571 0.0
N729 N 0.81471 0.26943 0.56035 0.0
C730 C 0.83666 0.27606 0.54526 0.0
C731 C 0.85653 0.30087 0.55098 0.0
C732 C 0.67762 0.15674 0.47756 0.0
C733 C 0.66314 0.12858 0.4826 0.0
C734 C 0.70782 0.16169 0.48336 0.0
C735 C 0.7247 0.13865 0.49442 0.0
H736 H 0.66587 0.17464 0.46829 0.0
H737 H 0.71822 0.18339 0.47849 0.0
S738 S 0.69579 0.06234 0.51387 0.0
N739 N 0.66686 0.07854 0.50105 0.0
N740 N 0.72361 0.0876 0.51196 0.0
C741 C 0.70996 0.11093 0.50048 0.0
C742 C 0.67922 0.10594 0.49455 0.0
C743 C 0.8514 0.19476 0.70872 0.0
C744 C 0.85429 0.17294 0.72604 0.0
C745 C 0.84141 0.22496 0.71297 0.0
C746 C 0.83424 0.23471 0.73478 0.0
H747 H 0.85653 0.1883 0.69163 0.0
H748 H 0.83974 0.24088 0.699 0.0
S749 S 0.83809 0.18623 0.78601 0.0
N750 N 0.84905 0.16275 0.76576 0.0
N751 N 0.83068 0.21989 0.77396 0.0
C752 C 0.83709 0.21308 0.75231 0.0
C753 C 0.84694 0.18209 0.74789 0.0
C754 C 0.79754 0.4216 0.99306 0.0
C755 C 0.81621 0.39571 0.9894 0.0
C756 C 0.76686 0.41803 0.99794 0.0
C757 C 0.75357 0.38842 -0.0007 0.0
H758 H 0.8066 0.44485 0.99164 0.0
H759 H 0.75333 0.43874 5e-05 0.0
S760 S 0.79304 0.31302 0.99183 0.0
N761 N 0.81941 0.33942 0.98793 0.0
N762 N 0.76204 0.33259 0.99754 0.0
C763 C 0.77231 0.36227 0.99654 0.0
C764 C 0.80353 0.36594 0.99149 0.0
C765 C 0.64777 0.3111 0.22271 0.0
C766 C 0.62253 0.31642 0.23638 0.0
C767 C 0.66754 0.28642 0.22699 0.0
C768 C 0.66287 0.26619 0.24515 0.0
H769 H 0.65124 0.32492 0.2078 0.0
H770 H 0.68572 0.28233 0.21528 0.0
S771 S 0.60265 0.27363 0.28801 0.0
N772 N 0.59579 0.30199 0.27016 0.0
N773 N 0.63298 0.25581 0.27854 0.0
C774 C 0.63896 0.27286 0.25994 0.0
C775 C 0.61875 0.29787 0.25544 0.0
C776 C 0.11197 0.84631 0.40176 0.0
C777 C 0.10783 0.87833 0.39856 0.0
C778 C 0.12131 0.83452 0.42245 0.0
C779 C 0.12646 0.85426 0.44079 0.0
H780 H 0.10891 0.83035 0.38796 0.0
H781 H 0.12483 0.80972 0.42397 0.0
S782 S 0.1169 0.93988 0.44126 0.0
N783 N 0.10826 0.92953 0.41548 0.0
N784 N 0.1255 0.90745 0.45453 0.0
C785 C 0.12139 0.88629 0.43797 0.0
C786 C 0.11221 0.8983 0.4168 0.0
C787 C 0.10534 0.62832 0.66067 0.0
C788 C 0.12286 0.60352 0.65263 0.0
C789 C 0.11067 0.64131 0.68172 0.0
C790 C 0.13388 0.63016 0.69557 0.0
H791 H 0.08769 0.63825 0.65041 0.0
H792 H 0.0968 0.66068 0.68695 0.0
S793 S 0.18482 0.56404 0.68298 0.0
N794 N 0.16322 0.56705 0.66063 0.0
N795 N 0.1737 0.59179 0.70012 0.0
C796 C 0.1513 0.60498 0.6879 0.0
C797 C 0.14571 0.59163 0.66646 0.0
C798 C 0.37297 0.65084 0.91633 0.0
C799 C 0.39882 0.63284 0.91244 0.0
C800 C 0.36135 0.65456 0.9379 0.0
C801 C 0.37526 0.64064 0.95655 0.0
H802 H 0.36156 0.66215 0.90254 0.0
H803 H 0.34151 0.66892 0.93992 0.0
S804 S 0.44355 0.59084 0.95516 0.0
N805 N 0.43796 0.60066 0.9288 0.0
N806 N 0.41621 0.60755 0.96948 0.0
C807 C 0.401 0.62221 0.95283 0.0
C808 C 0.41273 0.6183 0.93076 0.0
C809 C 0.45541 0.87235 0.18387 0.0
C810 C 0.43861 0.88097 0.16495 0.0
C811 C 0.44122 0.86484 0.20406 0.0
C812 C 0.40964 0.86544 0.2061 0.0
H813 H 0.47973 0.87087 0.18293 0.0
H814 H 0.45519 0.8577 0.21799 0.0
S815 S 0.35549 0.88761 0.16149 0.0
N816 N 0.38885 0.89048 0.14953 0.0
N817 N 0.36205 0.87673 0.18749 0.0
C818 C 0.39262 0.87505 0.18744 0.0
C819 C 0.40713 0.88273 0.16688 0.0
C820 C 0.13121 0.5889 0.83928 0.0
C821 C 0.13486 0.60149 0.86075 0.0
C822 C 0.14084 0.60514 0.82026 0.0
C823 C 0.15486 0.63437 0.82206 0.0
H824 H 0.12066 0.56643 0.83717 0.0
H825 H 0.13754 0.5945 0.80405 0.0
S826 S 0.17037 0.67683 0.87485 0.0
N827 N 0.15382 0.64443 0.88293 0.0
N828 N 0.17198 0.67503 0.84732 0.0
C829 C 0.15873 0.64709 0.84355 0.0
C830 C 0.14871 0.63064 0.86285 0.0
C831 C 0.33609 0.60936 0.1004 0.0
C832 C 0.35123 0.58087 0.10239 0.0
C833 C 0.33023 0.62236 0.07941 0.0
C834 C 0.3388 0.60708 0.05962 0.0
H835 H 0.3294 0.62207 0.11521 0.0
H836 H 0.31881 0.64456 0.07871 0.0
S837 S 0.37829 0.53138 0.05592 0.0
N838 N 0.37439 0.53749 0.08303 0.0
N839 N 0.36272 0.56157 0.04338 0.0
C840 C 0.35338 0.5782 0.06138 0.0
C841 C 0.35983 0.56522 0.08283 0.0
C842 C 0.39883 0.88421 0.3442 0.0
C843 C 0.38777 0.87316 0.36472 0.0
C844 C 0.38908 0.87146 0.3239 0.0
C845 C 0.36767 0.84734 0.32333 0.0
H846 H 0.41512 0.90291 0.34384 0.0
H847 H 0.39814 0.88094 0.30854 0.0
S848 S 0.33133 0.81073 0.37269 0.0
N849 N 0.35404 0.83714 0.38337 0.0
N850 N 0.3358 0.81295 0.34535 0.0
C851 C 0.3566 0.83597 0.34383 0.0
C852 C 0.36663 0.84892 0.36447 0.0
C853 C 0.04994 0.87366 0.58109 0.0
C854 C 0.06675 0.87694 0.60085 0.0
C855 C 0.06413 0.87107 0.56028 0.0
C856 C 0.09573 0.87125 0.55845 0.0
H857 H 0.02558 0.87255 0.58179 0.0
H858 H 0.05017 0.86778 0.54563 0.0
S859 S 0.1499 0.88097 0.60523 0.0
N860 N 0.11651 0.88156 0.61734 0.0
N861 N 0.14337 0.87672 0.57824 0.0
C862 C 0.11279 0.87562 0.57806 0.0
C863 C 0.09826 0.87848 0.59924 0.0
C864 C 0.62969 0.42496 0.91488 0.0
C865 C 0.62803 0.41046 0.8939 0.0
C866 C 0.63626 0.40791 0.9342 0.0
C867 C 0.64177 0.37572 0.93326 0.0
H868 H 0.62593 0.44972 0.91636 0.0
H869 H 0.63756 0.42025 0.94994 0.0
S870 S 0.63999 0.32686 0.88216 0.0
N871 N 0.63228 0.3622 0.87316 0.0
N872 N 0.64457 0.32999 0.90945 0.0
C873 C 0.63986 0.36089 0.91234 0.0
C874 C 0.63297 0.37829 0.89268 0.0
C875 C 0.65615 0.11253 0.16727 0.0
C876 C 0.63405 0.12578 0.15341 0.0
C877 C 0.66213 0.12469 0.18856 0.0
C878 C 0.64627 0.15063 0.19678 0.0
H879 H 0.66869 0.09239 0.16172 0.0
H880 H 0.67922 0.11353 0.19867 0.0
S881 S 0.58768 0.19519 0.16612 0.0
N882 N 0.59741 0.16717 0.14877 0.0
N883 N 0.60831 0.18993 0.18875 0.0
C884 C 0.62437 0.16433 0.18287 0.0
C885 C 0.61835 0.15194 0.16122 0.0
C886 C 0.90822 0.10636 0.42255 0.0
C887 C 0.89929 0.12242 0.40322 0.0
C888 C 0.89416 0.11188 0.44316 0.0
C889 C 0.87039 0.13339 0.44513 0.0
H890 H 0.92651 0.08975 0.42179 0.0
H891 H 0.90209 0.09922 0.45766 0.0
S892 S 0.83751 0.17994 0.39879 0.0
N893 N 0.86462 0.15961 0.38689 0.0
N894 N 0.83798 0.17006 0.42545 0.0
C895 C 0.86089 0.14912 0.42568 0.0
C896 C 0.8754 0.14364 0.40479 0.0
C897 C 0.91455 0.40014 0.68346 0.0
C898 C 0.91127 0.37922 0.66564 0.0
C899 C 0.89848 0.39599 0.70347 0.0
C900 C 0.87843 0.37092 0.70621 0.0
H901 H 0.93014 0.41938 0.68211 0.0
H902 H 0.90219 0.41229 0.71696 0.0
S903 S 0.85985 0.31163 0.66318 0.0
N904 N 0.88523 0.33404 0.65115 0.0
N905 N 0.85488 0.32614 0.68843 0.0
C906 C 0.87427 0.35053 0.68803 0.0
C907 C 0.89074 0.35471 0.66783 0.0
C908 C 0.5768 0.15195 0.33556 0.0
C909 C 0.59072 0.13171 0.35081 0.0
C910 C 0.59068 0.1597 0.31528 0.0
C911 C 0.61915 0.14768 0.30952 0.0
H912 H 0.55514 0.16218 0.33946 0.0
H913 H 0.57923 0.17586 0.30432 0.0
S914 S 0.66489 0.09329 0.34379 0.0
N915 N 0.63435 0.09953 0.35884 0.0
N916 N 0.6604 0.11373 0.32069 0.0
C917 C 0.63298 0.12675 0.32445 0.0
C918 C 0.61879 0.11887 0.34509 0.0
C919 C 0.84522 0.09125 0.58156 0.0
C920 C 0.86596 0.10196 0.59754 0.0
C921 C 0.84113 0.10691 0.56124 0.0
C922 C 0.8576 0.13392 0.5561 0.0
H923 H 0.83192 0.07068 0.58485 0.0
H924 H 0.82468 0.09788 0.54957 0.0
S925 S 0.91401 0.17207 0.59275 0.0
N926 N 0.90262 0.14161 0.60718 0.0
N927 N 0.89533 0.17082 0.56893 0.0
C928 C 0.87868 0.14467 0.57188 0.0
C929 C 0.88275 0.12876 0.5926 0.0
C930 C 0.91579 0.34008 0.84652 0.0
C931 C 0.90185 0.36448 0.85818 0.0
C932 C 0.90532 0.33066 0.82548 0.0
C933 C 0.8803 0.34509 0.81538 0.0
H934 H 0.93491 0.3281 0.85375 0.0
H935 H 0.91667 0.31155 0.81728 0.0
S936 S 0.83578 0.41018 0.8393 0.0
N937 N 0.86175 0.40283 0.85831 0.0
N938 N 0.84212 0.38547 0.81876 0.0
C939 C 0.86638 0.36983 0.82684 0.0
C940 C 0.87714 0.37943 0.84822 0.0
C941 C 0.62929 0.39572 0.10504 0.0
C942 C 0.59785 0.39235 0.10432 0.0
C943 C 0.64687 0.39136 0.08584 0.0
C944 C 0.63361 0.3837 0.06519 0.0
H945 H 0.6405 0.40048 0.12075 0.0
H946 H 0.6711 0.39324 0.08739 0.0
S947 S 0.55157 0.37563 0.05425 0.0
N948 N 0.55383 0.38339 0.08121 0.0
N949 N 0.58659 0.3753 0.04501 0.0
C950 C 0.60194 0.38181 0.0641 0.0
C951 C 0.58414 0.38606 0.0837 0.0
loop_
_geom_bond_atom_site_label_1
_geom_bond_atom_site_label_2
_geom_bond_distance
_geom_bond_site_symmetry_2
_ccdc_geom_bond_type
H0 C27 0.929 . S
N1 C26 1.433 . S
N1 C32 1.435 . S
N1 C38 1.423 . S
H2 C28 0.930 . S
H3 C31 0.931 . S
H4 C30 0.929 . S
H5 C33 0.930 . S
H6 C34 0.932 . S
H7 C37 0.929 . S
H8 C36 0.931 . S
H9 C39 0.929 . S
H10 C43 0.932 . S
H11 C40 0.931 . S
H12 C42 0.929 . S
H13 C45 0.929 . S
H14 C46 0.930 . S
H15 C48 0.929 . S
H16 C49 0.931 . S
H17 C51 0.930 . S
H18 C52 0.932 . S
H19 C54 0.931 . S
H20 C55 0.929 . S
H21 C57 0.929 . S
H22 C58 0.931 1_455 S
H23 C60 0.929 . S
N24 C44 1.433 . S
N24 C50 1.435 . S
N24 C56 1.423 . S
H25 C61 0.932 . S
C26 N1 1.433 . S
C26 C27 1.363 . S
C26 C31 1.370 . S
C27 H0 0.929 . S
C27 C26 1.363 . S
C27 C28 1.385 . S
C28 H2 0.930 . S
C28 C27 1.385 . S
C28 C29 1.357 . S
C29 C28 1.357 . S
C29 C30 1.406 . S
C30 H4 0.929 . S
C30 C29 1.406 . S
C30 C31 1.391 . S
C31 H3 0.931 . S
C31 C26 1.370 . S
C31 C30 1.391 . S
C32 N1 1.435 . S
C32 C33 1.358 . S
C32 C37 1.371 . S
C33 H5 0.930 . S
C33 C32 1.358 . S
C33 C34 1.405 . S
C34 H6 0.932 . S
C34 C33 1.405 . S
C34 C35 1.383 . S
C35 C34 1.383 . S
C35 C36 1.393 . S
C36 H8 0.931 . S
C36 C35 1.393 . S
C36 C37 1.382 . S
C37 H7 0.929 . S
C37 C32 1.371 . S
C37 C36 1.382 . S
C38 N1 1.423 . S
C38 C39 1.362 . S
C38 C43 1.388 . S
C39 H9 0.929 . S
C39 C38 1.362 . S
C39 C40 1.376 1_565 S
C40 H11 0.931 . S
C40 C39 1.376 1_545 S
C40 C41 1.396 . S
C41 C40 1.396 . S
C41 C42 1.348 1_545 S
C41 C59 1.467 1_455 S
C42 H12 0.929 . S
C42 C41 1.348 1_565 S
C42 C43 1.443 . S
C43 H10 0.932 . S
C43 C38 1.388 . S
C43 C42 1.443 . S
C44 N24 1.433 . S
C44 C45 1.363 . S
C44 C49 1.370 . S
C45 H13 0.929 . S
C45 C44 1.363 . S
C45 C46 1.385 . S
C46 H14 0.930 . S
C46 C45 1.385 . S
C46 C47 1.357 . S
C47 C46 1.357 . S
C47 C48 1.406 . S
C48 H15 0.929 . S
C48 C47 1.406 . S
C48 C49 1.391 . S
C49 H16 0.931 . S
C49 C44 1.370 . S
C49 C48 1.391 . S
C50 N24 1.435 . S
C50 C51 1.358 . S
C50 C55 1.371 . S
C51 H17 0.930 . S
C51 C50 1.358 . S
C51 C52 1.405 . S
C52 H18 0.932 . S
C52 C51 1.405 . S
C52 C53 1.383 . S
C53 C52 1.383 . S
C53 C54 1.393 . S
C54 H19 0.931 . S
C54 C53 1.393 . S
C54 C55 1.382 . S
C55 H20 0.929 . S
C55 C50 1.371 . S
C55 C54 1.382 . S
C56 N24 1.423 . S
C56 C57 1.362 . S
C56 C61 1.388 . S
C57 H21 0.929 . S
C57 C56 1.362 . S
C57 C58 1.376 . S
C58 H22 0.931 1_655 S
C58 C57 1.376 . S
C58 C59 1.397 . S
C59 C41 1.467 1_655 S
C59 C58 1.397 . S
C59 C60 1.353 . S
C60 H23 0.929 . S
C60 C59 1.353 . S
C60 C61 1.443 . S
C61 H25 0.932 . S
C61 C56 1.388 . S
C61 C60 1.443 . S
H62 C89 0.929 . S
N63 C88 1.433 . S
N63 C94 1.435 . S
N63 C100 1.423 . S
H64 C90 0.930 . S
H65 C93 0.931 . S
H66 C92 0.929 . S
H67 C95 0.930 . S
H68 C96 0.932 . S
H69 C99 0.929 . S
H70 C98 0.931 . S
H71 C101 0.929 . S
H72 C105 0.932 . S
H73 C102 0.931 . S
H74 C104 0.929 . S
H75 C107 0.929 . S
H76 C108 0.930 . S
H77 C110 0.929 . S
H78 C111 0.931 . S
H79 C113 0.930 . S
H80 C114 0.932 . S
H81 C116 0.931 . S
H82 C117 0.929 . S
H83 C119 0.929 . S
H84 C120 0.931 . S
H85 C122 0.929 . S
N86 C106 1.433 . S
N86 C112 1.435 . S
N86 C118 1.423 . S
H87 C123 0.932 . S
C88 N63 1.433 . S
C88 C89 1.363 . S
C88 C93 1.370 . S
C89 H62 0.929 . S
C89 C88 1.363 . S
C89 C90 1.385 . S
C90 H64 0.930 . S
C90 C89 1.385 . S
C90 C91 1.357 . S
C91 C90 1.357 . S
C91 C92 1.406 . S
C92 H66 0.929 . S
C92 C91 1.406 . S
C92 C93 1.391 . S
C93 H65 0.931 . S
C93 C88 1.370 . S
C93 C92 1.391 . S
C94 N63 1.435 . S
C94 C95 1.358 . S
C94 C99 1.371 . S
C95 H67 0.930 . S
C95 C94 1.358 . S
C95 C96 1.405 . S
C96 H68 0.932 . S
C96 C95 1.405 . S
C96 C97 1.383 . S
C97 C96 1.383 . S
C97 C98 1.393 . S
C98 H70 0.931 . S
C98 C97 1.393 . S
C98 C99 1.382 . S
C99 H69 0.929 . S
C99 C94 1.371 . S
C99 C98 1.382 . S
C100 N63 1.423 . S
C100 C101 1.362 . S
C100 C105 1.388 . S
C101 H71 0.929 . S
C101 C100 1.362 . S
C101 C102 1.376 1_655 S
C102 H73 0.931 . S
C102 C101 1.376 1_455 S
C102 C103 1.396 . S
C103 C102 1.396 . S
C103 C104 1.348 1_455 S
C103 C121 1.472 . S
C104 H74 0.929 . S
C104 C103 1.348 1_655 S
C104 C105 1.443 . S
C105 H72 0.932 . S
C105 C100 1.388 . S
C105 C104 1.443 . S
C106 N86 1.433 . S
C106 C107 1.363 . S
C106 C111 1.370 . S
C107 H75 0.929 . S
C107 C106 1.363 . S
C107 C108 1.385 . S
C108 H76 0.930 . S
C108 C107 1.385 . S
C108 C109 1.357 . S
C109 C108 1.357 . S
C109 C110 1.406 . S
C110 H77 0.929 . S
C110 C109 1.406 . S
C110 C111 1.391 . S
C111 H78 0.931 . S
C111 C106 1.370 . S
C111 C110 1.391 . S
C112 N86 1.435 . S
C112 C113 1.358 . S
C112 C117 1.371 . S
C113 H79 0.930 . S
C113 C112 1.358 . S
C113 C114 1.405 . S
C114 H80 0.932 . S
C114 C113 1.405 . S
C114 C115 1.383 . S
C115 C114 1.383 . S
C115 C116 1.393 . S
C116 H81 0.931 . S
C116 C115 1.393 . S
C116 C117 1.382 . S
C117 H82 0.929 . S
C117 C112 1.371 . S
C117 C116 1.382 . S
C118 N86 1.423 . S
C118 C119 1.362 . S
C118 C123 1.388 . S
C119 H83 0.929 . S
C119 C118 1.362 . S
C119 C120 1.376 . S
C120 H84 0.931 . S
C120 C119 1.376 . S
C120 C121 1.396 . S
C121 C103 1.472 . S
C121 C120 1.396 . S
C121 C122 1.348 . S
C122 H85 0.929 . S
C122 C121 1.348 . S
C122 C123 1.443 . S
C123 H87 0.932 . S
C123 C118 1.388 . S
C123 C122 1.443 . S
H124 C151 0.929 . S
N125 C150 1.433 . S
N125 C156 1.435 . S
N125 C162 1.423 . S
H126 C152 0.930 . S
H127 C155 0.931 . S
H128 C154 0.929 . S
H129 C157 0.930 . S
H130 C158 0.932 . S
H131 C161 0.929 . S
H132 C160 0.931 . S
H133 C163 0.929 . S
H134 C167 0.932 . S
H135 C164 0.931 . S
H136 C166 0.929 . S
H137 C169 0.929 . S
H138 C170 0.930 . S
H139 C172 0.929 . S
H140 C173 0.931 . S
H141 C175 0.930 . S
H142 C176 0.932 . S
H143 C178 0.931 . S
H144 C179 0.929 . S
H145 C181 0.929 . S
H146 C182 0.931 . S
H147 C184 0.929 . S
N148 C168 1.433 . S
N148 C174 1.435 . S
N148 C180 1.423 . S
H149 C185 0.932 . S
C150 N125 1.433 . S
C150 C151 1.363 . S
C150 C155 1.370 . S
C151 H124 0.929 . S
C151 C150 1.363 . S
C151 C152 1.385 . S
C152 H126 0.930 . S
C152 C151 1.385 . S
C152 C153 1.357 . S
C153 C152 1.357 . S
C153 C154 1.406 . S
C154 H128 0.929 . S
C154 C153 1.406 . S
C154 C155 1.391 . S
C155 H127 0.931 . S
C155 C150 1.370 . S
C155 C154 1.391 . S
C156 N125 1.435 . S
C156 C157 1.358 . S
C156 C161 1.371 . S
C157 H129 0.930 . S
C157 C156 1.358 . S
C157 C158 1.405 . S
C158 H130 0.932 . S
C158 C157 1.405 . S
C158 C159 1.383 . S
C159 C158 1.383 . S
C159 C160 1.393 . S
C160 H132 0.931 . S
C160 C159 1.393 . S
C160 C161 1.382 . S
C161 H131 0.929 . S
C161 C156 1.371 . S
C161 C160 1.382 . S
C162 N125 1.423 . S
C162 C163 1.362 . S
C162 C167 1.388 . S
C163 H133 0.929 . S
C163 C162 1.362 . S
C163 C164 1.376 . S
C164 H135 0.931 . S
C164 C163 1.376 . S
C164 C165 1.396 . S
C165 C164 1.396 . S
C165 C166 1.348 . S
C165 C183 1.472 . S
C166 H136 0.929 . S
C166 C165 1.348 . S
C166 C167 1.443 . S
C167 H134 0.932 . S
C167 C162 1.388 . S
C167 C166 1.443 . S
C168 N148 1.433 . S
C168 C169 1.363 . S
C168 C173 1.370 . S
C169 H137 0.929 . S
C169 C168 1.363 . S
C169 C170 1.385 . S
C170 H138 0.930 . S
C170 C169 1.385 . S
C170 C171 1.357 . S
C171 C170 1.357 . S
C171 C172 1.406 . S
C172 H139 0.929 . S
C172 C171 1.406 . S
C172 C173 1.391 . S
C173 H140 0.931 . S
C173 C168 1.370 . S
C173 C172 1.391 . S
C174 N148 1.435 . S
C174 C175 1.358 . S
C174 C179 1.371 . S
C175 H141 0.930 . S
C175 C174 1.358 . S
C175 C176 1.405 . S
C176 H142 0.932 . S
C176 C175 1.405 . S
C176 C177 1.383 . S
C177 C176 1.383 . S
C177 C178 1.393 . S
C178 H143 0.931 . S
C178 C177 1.393 . S
C178 C179 1.382 . S
C179 H144 0.929 . S
C179 C174 1.371 . S
C179 C178 1.382 . S
C180 N148 1.423 . S
C180 C181 1.362 . S
C180 C185 1.388 . S
C181 H145 0.929 . S
C181 C180 1.362 . S
C181 C182 1.376 . S
C182 H146 0.931 . S
C182 C181 1.376 . S
C182 C183 1.396 . S
C183 C165 1.472 . S
C183 C182 1.396 . S
C183 C184 1.348 . S
C184 H147 0.929 . S
C184 C183 1.348 . S
C184 C185 1.443 . S
C185 H149 0.932 . S
C185 C180 1.388 . S
C185 C184 1.443 . S
H186 C213 0.929 . S
N187 C212 1.433 . S
N187 C218 1.435 . S
N187 C224 1.423 . S
H188 C214 0.930 . S
H189 C217 0.931 . S
H190 C216 0.929 . S
H191 C219 0.930 . S
H192 C220 0.932 . S
H193 C223 0.929 . S
H194 C222 0.888 1_556 S
H195 C225 0.929 . S
H196 C229 0.932 . S
H197 C226 0.931 . S
H198 C228 0.929 . S
H199 C231 0.929 . S
H200 C232 0.930 . S
H201 C234 0.929 . S
H202 C235 0.931 . S
H203 C237 0.930 . S
H204 C238 0.932 . S
H205 C240 0.888 1_556 S
H206 C241 0.929 . S
H207 C243 0.929 . S
H208 C244 0.931 1_565 S
H209 C246 0.929 . S
N210 C230 1.433 . S
N210 C236 1.435 . S
N210 C242 1.423 . S
H211 C247 0.932 . S
C212 N187 1.433 . S
C212 C213 1.363 . S
C212 C217 1.370 . S
C213 H186 0.929 . S
C213 C212 1.363 . S
C213 C214 1.385 . S
C214 H188 0.930 . S
C214 C213 1.385 . S
C214 C215 1.357 . S
C215 C214 1.357 . S
C215 C216 1.406 . S
C216 H190 0.929 . S
C216 C215 1.406 . S
C216 C217 1.391 . S
C217 H189 0.931 . S
C217 C212 1.370 . S
C217 C216 1.391 . S
C218 N187 1.435 . S
C218 C219 1.358 . S
C218 C223 1.371 . S
C219 H191 0.930 . S
C219 C218 1.358 . S
C219 C220 1.405 . S
C220 H192 0.932 . S
C220 C219 1.405 . S
C220 C221 1.383 . S
C221 C220 1.383 . S
C221 C222 1.393 . S
C222 H194 0.888 1_554 S
C222 C221 1.393 . S
C222 C223 1.382 . S
C223 H193 0.929 . S
C223 C218 1.371 . S
C223 C222 1.382 . S
C224 N187 1.423 . S
C224 C225 1.362 . S
C224 C229 1.388 . S
C225 H195 0.929 . S
C225 C224 1.362 . S
C225 C226 1.376 . S
C226 H197 0.931 . S
C226 C225 1.376 . S
C226 C227 1.396 . S
C227 C226 1.396 . S
C227 C228 1.348 . S
C227 C245 1.486 . S
C228 H198 0.929 . S
C228 C227 1.348 . S
C228 C229 1.443 . S
C229 H196 0.932 . S
C229 C224 1.388 . S
C229 C228 1.443 . S
C230 N210 1.433 . S
C230 C231 1.363 . S
C230 C235 1.370 . S
C231 H199 0.929 . S
C231 C230 1.363 . S
C231 C232 1.385 . S
C232 H200 0.930 . S
C232 C231 1.385 . S
C232 C233 1.357 . S
C233 C232 1.357 . S
C233 C234 1.406 . S
C234 H201 0.929 . S
C234 C233 1.406 . S
C234 C235 1.391 . S
C235 H202 0.931 . S
C235 C230 1.370 . S
C235 C234 1.391 . S
C236 N210 1.435 . S
C236 C237 1.358 . S
C236 C241 1.371 . S
C237 H203 0.930 . S
C237 C236 1.358 . S
C237 C238 1.405 . S
C238 H204 0.932 . S
C238 C237 1.405 . S
C238 C239 1.383 . S
C239 C238 1.383 . S
C239 C240 1.393 . S
C240 H205 0.888 1_554 S
C240 C239 1.393 . S
C240 C241 1.382 . S
C241 H206 0.929 . S
C241 C236 1.371 . S
C241 C240 1.382 . S
C242 N210 1.423 . S
C242 C243 1.362 . S
C242 C247 1.388 . S
C243 H207 0.929 . S
C243 C242 1.362 . S
C243 C244 1.376 . S
C244 H208 0.931 1_545 S
C244 C243 1.376 . S
C244 C245 1.394 1_545 S
C245 C227 1.486 . S
C245 C244 1.394 1_565 S
C245 C246 1.335 1_565 S
C246 H209 0.929 . S
C246 C245 1.335 1_545 S
C246 C247 1.443 . S
C247 H211 0.932 . S
C247 C242 1.388 . S
C247 C246 1.443 . S
H248 C275 0.929 . S
N249 C274 1.433 . S
N249 C280 1.435 . S
N249 C286 1.423 . S
H250 C276 0.930 . S
H251 C279 0.931 . S
H252 C278 0.929 . S
H253 C281 0.930 . S
H254 C282 0.932 . S
H255 C285 0.929 . S
H256 C284 0.931 1_554 S
H257 C287 0.929 . S
H258 C291 0.932 . S
H259 C288 0.931 . S
H260 C290 0.929 . S
H261 C293 0.929 . S
H262 C294 0.930 . S
H263 C296 0.929 . S
H264 C297 0.931 . S
H265 C299 0.930 . S
H266 C300 0.932 . S
H267 C302 0.931 1_554 S
H268 C303 0.929 . S
H269 C305 0.929 . S
H270 C306 0.931 1_455 S
H271 C308 0.929 . S
N272 C292 1.433 . S
N272 C298 1.435 . S
N272 C304 1.423 . S
H273 C309 0.932 . S
C274 N249 1.433 . S
C274 C275 1.363 . S
C274 C279 1.370 . S
C275 H248 0.929 . S
C275 C274 1.363 . S
C275 C276 1.385 . S
C276 H250 0.930 . S
C276 C275 1.385 . S
C276 C277 1.357 . S
C277 C276 1.357 . S
C277 C278 1.406 . S
C278 H252 0.929 . S
C278 C277 1.406 . S
C278 C279 1.391 . S
C279 H251 0.931 . S
C279 C274 1.370 . S
C279 C278 1.391 . S
C280 N249 1.435 . S
C280 C281 1.358 . S
C280 C285 1.371 . S
C281 H253 0.930 . S
C281 C280 1.358 . S
C281 C282 1.405 . S
C282 H254 0.932 . S
C282 C281 1.405 . S
C282 C283 1.383 . S
C283 C282 1.383 . S
C283 C284 1.393 . S
C284 H256 0.931 1_556 S
C284 C283 1.393 . S
C284 C285 1.382 . S
C285 H255 0.929 . S
C285 C280 1.371 . S
C285 C284 1.382 . S
C286 N249 1.423 . S
C286 C287 1.362 . S
C286 C291 1.388 . S
C287 H257 0.929 . S
C287 C286 1.362 . S
C287 C288 1.376 . S
C288 H259 0.931 . S
C288 C287 1.376 . S
C288 C289 1.396 . S
C289 C288 1.396 . S
C289 C290 1.348 . S
C289 C307 1.466 1_455 S
C290 H260 0.929 . S
C290 C289 1.348 . S
C290 C291 1.443 . S
C291 H258 0.932 . S
C291 C286 1.388 . S
C291 C290 1.443 . S
C292 N272 1.433 . S
C292 C293 1.363 . S
C292 C297 1.370 . S
C293 H261 0.929 . S
C293 C292 1.363 . S
C293 C294 1.385 . S
C294 H262 0.930 . S
C294 C293 1.385 . S
C294 C295 1.357 . S
C295 C294 1.357 . S
C295 C296 1.406 . S
C296 H263 0.929 . S
C296 C295 1.406 . S
C296 C297 1.391 . S
C297 H264 0.931 . S
C297 C292 1.370 . S
C297 C296 1.391 . S
C298 N272 1.435 . S
C298 C299 1.358 . S
C298 C303 1.371 . S
C299 H265 0.930 . S
C299 C298 1.358 . S
C299 C300 1.405 . S
C300 H266 0.932 . S
C300 C299 1.405 . S
C300 C301 1.383 . S
C301 C300 1.383 . S
C301 C302 1.393 . S
C302 H267 0.931 1_556 S
C302 C301 1.393 . S
C302 C303 1.382 . S
C303 H268 0.929 . S
C303 C298 1.371 . S
C303 C302 1.382 . S
C304 N272 1.423 . S
C304 C305 1.362 . S
C304 C309 1.388 . S
C305 H269 0.929 . S
C305 C304 1.362 . S
C305 C306 1.376 . S
C306 H270 0.931 1_655 S
C306 C305 1.376 . S
C306 C307 1.397 . S
C307 C289 1.466 1_655 S
C307 C306 1.397 . S
C307 C308 1.353 . S
C308 H271 0.929 . S
C308 C307 1.353 . S
C308 C309 1.443 . S
C309 H273 0.932 . S
C309 C304 1.388 . S
C309 C308 1.443 . S
H310 C337 0.929 . S
N311 C336 1.433 . S
N311 C342 1.435 . S
N311 C348 1.423 . S
H312 C338 0.930 . S
H313 C341 0.931 . S
H314 C340 0.929 . S
H315 C343 0.930 . S
H316 C344 0.932 . S
H317 C347 0.929 . S
H318 C346 0.931 . S
H319 C349 0.929 . S
H320 C353 0.932 . S
H321 C350 0.931 . S
H322 C352 0.929 . S
H323 C355 0.929 . S
H324 C356 0.930 . S
H325 C358 0.929 . S
H326 C359 0.931 . S
H327 C361 0.930 . S
H328 C362 0.932 . S
H329 C364 0.931 . S
H330 C365 0.929 . S
H331 C367 0.929 . S
H332 C368 0.931 . S
H333 C370 0.929 . S
N334 C354 1.433 . S
N334 C360 1.435 . S
N334 C366 1.423 . S
H335 C371 0.932 . S
C336 N311 1.433 . S
C336 C337 1.363 . S
C336 C341 1.370 . S
C337 H310 0.929 . S
C337 C336 1.363 . S
C337 C338 1.385 . S
C338 H312 0.930 . S
C338 C337 1.385 . S
C338 C339 1.357 . S
C339 C338 1.357 . S
C339 C340 1.406 . S
C340 H314 0.929 . S
C340 C339 1.406 . S
C340 C341 1.391 . S
C341 H313 0.931 . S
C341 C336 1.370 . S
C341 C340 1.391 . S
C342 N311 1.435 . S
C342 C343 1.358 . S
C342 C347 1.371 . S
C343 H315 0.930 . S
C343 C342 1.358 . S
C343 C344 1.405 . S
C344 H316 0.932 . S
C344 C343 1.405 . S
C344 C345 1.383 . S
C345 C344 1.383 . S
C345 C346 1.393 . S
C346 H318 0.931 . S
C346 C345 1.393 . S
C346 C347 1.382 . S
C347 H317 0.929 . S
C347 C342 1.371 . S
C347 C346 1.382 . S
C348 N311 1.423 . S
C348 C349 1.362 . S
C348 C353 1.388 . S
C349 H319 0.929 . S
C349 C348 1.362 . S
C349 C350 1.376 . S
C350 H321 0.931 . S
C350 C349 1.376 . S
C350 C351 1.396 . S
C351 C350 1.396 . S
C351 C352 1.348 . S
C351 C369 1.472 . S
C352 H322 0.929 . S
C352 C351 1.348 . S
C352 C353 1.443 . S
C353 H320 0.932 . S
C353 C348 1.388 . S
C353 C352 1.443 . S
C354 N334 1.433 . S
C354 C355 1.363 . S
C354 C359 1.370 . S
C355 H323 0.929 . S
C355 C354 1.363 . S
C355 C356 1.385 . S
C356 H324 0.930 . S
C356 C355 1.385 . S
C356 C357 1.357 . S
C357 C356 1.357 . S
C357 C358 1.406 . S
C358 H325 0.929 . S
C358 C357 1.406 . S
C358 C359 1.391 . S
C359 H326 0.931 . S
C359 C354 1.370 . S
C359 C358 1.391 . S
C360 N334 1.435 . S
C360 C361 1.358 . S
C360 C365 1.371 . S
C361 H327 0.930 . S
C361 C360 1.358 . S
C361 C362 1.405 . S
C362 H328 0.932 . S
C362 C361 1.405 . S
C362 C363 1.383 . S
C363 C362 1.383 . S
C363 C364 1.393 . S
C364 H329 0.931 . S
C364 C363 1.393 . S
C364 C365 1.382 . S
C365 H330 0.929 . S
C365 C360 1.371 . S
C365 C364 1.382 . S
C366 N334 1.423 . S
C366 C367 1.362 . S
C366 C371 1.388 . S
C367 H331 0.929 . S
C367 C366 1.362 . S
C367 C368 1.376 . S
C368 H332 0.931 . S
C368 C367 1.376 . S
C368 C369 1.396 . S
C369 C351 1.472 . S
C369 C368 1.396 . S
C369 C370 1.348 . S
C370 H333 0.929 . S
C370 C369 1.348 . S
C370 C371 1.443 . S
C371 H335 0.932 . S
C371 C366 1.388 . S
C371 C370 1.443 . S
H372 C399 0.929 . S
N373 C398 1.433 . S
N373 C404 1.435 . S
N373 C410 1.423 . S
H374 C400 0.930 . S
H375 C403 0.931 . S
H376 C402 0.929 . S
H377 C405 0.930 . S
H378 C406 0.932 . S
H379 C409 0.929 . S
H380 C408 0.931 . S
H381 C411 0.929 . S
H382 C415 0.932 . S
H383 C412 0.931 . S
H384 C414 0.929 . S
H385 C417 0.929 . S
H386 C418 0.930 . S
H387 C420 0.929 . S
H388 C421 0.931 . S
H389 C423 0.930 . S
H390 C424 0.932 . S
H391 C426 0.931 . S
H392 C427 0.929 . S
H393 C429 0.929 . S
H394 C430 0.931 . S
H395 C432 0.929 . S
N396 C416 1.433 . S
N396 C422 1.435 . S
N396 C428 1.423 . S
H397 C433 0.932 . S
C398 N373 1.433 . S
C398 C399 1.363 . S
C398 C403 1.370 . S
C399 H372 0.929 . S
C399 C398 1.363 . S
C399 C400 1.385 . S
C400 H374 0.930 . S
C400 C399 1.385 . S
C400 C401 1.357 . S
C401 C400 1.357 . S
C401 C402 1.406 . S
C402 H376 0.929 . S
C402 C401 1.406 . S
C402 C403 1.391 . S
C403 H375 0.931 . S
C403 C398 1.370 . S
C403 C402 1.391 . S
C404 N373 1.435 . S
C404 C405 1.358 . S
C404 C409 1.371 . S
C405 H377 0.930 . S
C405 C404 1.358 . S
C405 C406 1.405 . S
C406 H378 0.932 . S
C406 C405 1.405 . S
C406 C407 1.383 . S
C407 C406 1.383 . S
C407 C408 1.393 . S
C408 H380 0.931 . S
C408 C407 1.393 . S
C408 C409 1.382 . S
C409 H379 0.929 . S
C409 C404 1.371 . S
C409 C408 1.382 . S
C410 N373 1.423 . S
C410 C411 1.362 . S
C410 C415 1.388 . S
C411 H381 0.929 . S
C411 C410 1.362 . S
C411 C412 1.376 1_565 S
C412 H383 0.931 . S
C412 C411 1.376 1_545 S
C412 C413 1.396 . S
C413 C412 1.396 . S
C413 C414 1.348 1_545 S
C413 C431 1.472 . S
C414 H384 0.929 . S
C414 C413 1.348 1_565 S
C414 C415 1.443 . S
C415 H382 0.932 . S
C415 C410 1.388 . S
C415 C414 1.443 . S
C416 N396 1.433 . S
C416 C417 1.363 . S
C416 C421 1.370 . S
C417 H385 0.929 . S
C417 C416 1.363 . S
C417 C418 1.385 . S
C418 H386 0.930 . S
C418 C417 1.385 . S
C418 C419 1.357 . S
C419 C418 1.357 . S
C419 C420 1.406 . S
C420 H387 0.929 . S
C420 C419 1.406 . S
C420 C421 1.391 . S
C421 H388 0.931 . S
C421 C416 1.370 . S
C421 C420 1.391 . S
C422 N396 1.435 . S
C422 C423 1.358 . S
C422 C427 1.371 . S
C423 H389 0.930 . S
C423 C422 1.358 . S
C423 C424 1.405 . S
C424 H390 0.932 . S
C424 C423 1.405 . S
C424 C425 1.383 . S
C425 C424 1.383 . S
C425 C426 1.393 . S
C426 H391 0.931 . S
C426 C425 1.393 . S
C426 C427 1.382 . S
C427 H392 0.929 . S
C427 C422 1.371 . S
C427 C426 1.382 . S
C428 N396 1.423 . S
C428 C429 1.362 . S
C428 C433 1.388 . S
C429 H393 0.929 . S
C429 C428 1.362 . S
C429 C430 1.376 . S
C430 H394 0.931 . S
C430 C429 1.376 . S
C430 C431 1.396 . S
C431 C413 1.472 . S
C431 C430 1.396 . S
C431 C432 1.348 . S
C432 H395 0.929 . S
C432 C431 1.348 . S
C432 C433 1.443 . S
C433 H397 0.932 . S
C433 C428 1.388 . S
C433 C432 1.443 . S
H434 C461 0.929 . S
N435 C460 1.433 . S
N435 C466 1.435 . S
N435 C472 1.423 . S
H436 C462 0.930 . S
H437 C465 0.931 . S
H438 C464 0.929 . S
H439 C467 0.930 . S
H440 C468 0.932 . S
H441 C471 0.929 . S
H442 C470 0.931 . S
H443 C473 0.929 . S
H444 C477 0.932 . S
H445 C474 0.931 . S
H446 C476 0.929 . S
H447 C479 0.929 . S
H448 C480 0.930 . S
H449 C482 0.929 . S
H450 C483 0.931 . S
H451 C485 0.930 . S
H452 C486 0.932 . S
H453 C488 0.931 . S
H454 C489 0.929 . S
H455 C491 0.929 . S
H456 C492 0.931 1_565 S
H457 C494 0.929 . S
N458 C478 1.433 . S
N458 C484 1.435 . S
N458 C490 1.423 . S
H459 C495 0.932 . S
C460 N435 1.433 . S
C460 C461 1.363 . S
C460 C465 1.370 . S
C461 H434 0.929 . S
C461 C460 1.363 . S
C461 C462 1.385 . S
C462 H436 0.930 . S
C462 C461 1.385 . S
C462 C463 1.357 . S
C463 C462 1.357 . S
C463 C464 1.406 . S
C464 H438 0.929 . S
C464 C463 1.406 . S
C464 C465 1.391 . S
C465 H437 0.931 . S
C465 C460 1.370 . S
C465 C464 1.391 . S
C466 N435 1.435 . S
C466 C467 1.358 . S
C466 C471 1.371 . S
C467 H439 0.930 . S
C467 C466 1.358 . S
C467 C468 1.405 . S
C468 H440 0.932 . S
C468 C467 1.405 . S
C468 C469 1.383 . S
C469 C468 1.383 . S
C469 C470 1.393 . S
C470 H442 0.931 . S
C470 C469 1.393 . S
C470 C471 1.382 . S
C471 H441 0.929 . S
C471 C466 1.371 . S
C471 C470 1.382 . S
C472 N435 1.423 . S
C472 C473 1.362 . S
C472 C477 1.388 . S
C473 H443 0.929 . S
C473 C472 1.362 . S
C473 C474 1.376 1_455 S
C474 H445 0.931 . S
C474 C473 1.376 1_655 S
C474 C475 1.396 . S
C475 C474 1.396 . S
C475 C476 1.348 1_655 S
C475 C493 1.486 . S
C476 H446 0.929 . S
C476 C475 1.348 1_455 S
C476 C477 1.443 . S
C477 H444 0.932 . S
C477 C472 1.388 . S
C477 C476 1.443 . S
C478 N458 1.433 . S
C478 C479 1.363 . S
C478 C483 1.370 . S
C479 H447 0.929 . S
C479 C478 1.363 . S
C479 C480 1.385 . S
C480 H448 0.930 . S
C480 C479 1.385 . S
C480 C481 1.357 . S
C481 C480 1.357 . S
C481 C482 1.406 . S
C482 H449 0.929 . S
C482 C481 1.406 . S
C482 C483 1.391 . S
C483 H450 0.931 . S
C483 C478 1.370 . S
C483 C482 1.391 . S
C484 N458 1.435 . S
C484 C485 1.358 . S
C484 C489 1.371 . S
C485 H451 0.930 . S
C485 C484 1.358 . S
C485 C486 1.405 . S
C486 H452 0.932 . S
C486 C485 1.405 . S
C486 C487 1.383 . S
C487 C486 1.383 . S
C487 C488 1.393 . S
C488 H453 0.931 . S
C488 C487 1.393 . S
C488 C489 1.382 . S
C489 H454 0.929 . S
C489 C484 1.371 . S
C489 C488 1.382 . S
C490 N458 1.423 . S
C490 C491 1.362 . S
C490 C495 1.388 . S
C491 H455 0.929 . S
C491 C490 1.362 . S
C491 C492 1.376 . S
C492 H456 0.931 1_545 S
C492 C491 1.376 . S
C492 C493 1.394 1_545 S
C493 C475 1.486 . S
C493 C492 1.394 1_565 S
C493 C494 1.335 1_565 S
C494 H457 0.929 . S
C494 C493 1.335 1_545 S
C494 C495 1.443 . S
C495 H459 0.932 . S
C495 C490 1.388 . S
C495 C494 1.443 . S
C496 O497 1.160 . S
C496 O503 1.189 . S
O497 C496 1.160 . S
O498 Zn499 1.899 . S
O498 C506 1.284 . S
Zn499 O498 1.899 . S
Zn499 O500 2.032 1_554 S
Zn499 O503 2.093 . S
Zn499 O508 1.977 . S
O500 Zn499 2.032 1_556 S
O500 C504 1.278 . S
C501 O502 1.203 . S
C501 O508 1.267 . S
O502 C501 1.203 . S
O503 C496 1.189 . S
O503 Zn499 2.093 . S
C504 O500 1.278 . S
C504 O505 1.211 . S
O505 C504 1.211 . S
C506 O498 1.284 . S
C506 O507 1.273 . S
O507 C506 1.273 . S
O508 Zn499 1.977 . S
O508 C501 1.267 . S
C509 O510 1.160 . S
C509 O516 1.185 . S
O510 C509 1.160 . S
O511 Zn512 1.899 . S
O511 C519 1.284 . S
Zn512 O511 1.899 . S
Zn512 O513 2.032 . S
Zn512 O516 2.086 . S
Zn512 O521 1.977 . S
O513 Zn512 2.032 . S
O513 C517 1.278 . S
C514 O515 1.203 . S
C514 O521 1.267 . S
O515 C514 1.203 . S
O516 C509 1.185 . S
O516 Zn512 2.086 . S
C517 O513 1.278 . S
C517 O518 1.211 . S
O518 C517 1.211 . S
C519 O511 1.284 . S
C519 O520 1.273 . S
O520 C519 1.273 . S
O521 Zn512 1.977 . S
O521 C514 1.267 . S
C522 O523 1.160 . S
C522 O529 1.185 . S
O523 C522 1.160 . S
O524 Zn525 1.899 . S
O524 C532 1.284 . S
Zn525 O524 1.899 . S
Zn525 O526 2.032 . S
Zn525 O529 2.086 . S
Zn525 O534 1.977 . S
O526 Zn525 2.032 . S
O526 C530 1.278 . S
C527 O528 1.203 . S
C527 O534 1.267 . S
O528 C527 1.203 . S
O529 C522 1.185 . S
O529 Zn525 2.086 . S
C530 O526 1.278 . S
C530 O531 1.211 . S
O531 C530 1.211 . S
C532 O524 1.284 . S
C532 O533 1.273 . S
O533 C532 1.273 . S
O534 Zn525 1.977 . S
O534 C527 1.267 . S
C535 O536 1.160 . S
C535 O542 1.185 . S
O536 C535 1.160 . S
O537 Zn538 1.899 . S
O537 C545 1.284 . S
Zn538 O537 1.899 . S
Zn538 O539 2.032 . S
Zn538 O542 2.086 . S
Zn538 O547 1.977 . S
O539 Zn538 2.032 . S
O539 C543 1.278 . S
C540 O541 1.203 . S
C540 O547 1.267 . S
O541 C540 1.203 . S
O542 C535 1.185 . S
O542 Zn538 2.086 . S
C543 O539 1.278 . S
C543 O544 1.211 . S
O544 C543 1.211 . S
C545 O537 1.284 . S
C545 O546 1.273 . S
O546 C545 1.273 . S
O547 Zn538 1.977 . S
O547 C540 1.267 . S
C548 O549 1.160 . S
C548 O555 1.185 . S
O549 C548 1.160 . S
O550 Zn551 1.899 . S
O550 C558 1.284 . S
Zn551 O550 1.899 . S
Zn551 O552 2.032 . S
Zn551 O555 2.086 . S
Zn551 O560 1.977 . S
O552 Zn551 2.032 . S
O552 C556 1.278 . S
C553 O554 1.203 . S
C553 O560 1.267 . S
O554 C553 1.203 . S
O555 C548 1.185 . S
O555 Zn551 2.086 . S
C556 O552 1.278 . S
C556 O557 1.211 . S
O557 C556 1.211 . S
C558 O550 1.284 . S
C558 O559 1.273 . S
O559 C558 1.273 . S
O560 Zn551 1.977 . S
O560 C553 1.267 . S
C561 O562 1.160 . S
C561 O568 1.185 . S
O562 C561 1.160 . S
O563 Zn564 1.899 . S
O563 C571 1.284 . S
Zn564 O563 1.899 . S
Zn564 O565 2.032 . S
Zn564 O568 2.086 . S
Zn564 O573 1.977 . S
O565 Zn564 2.032 . S
O565 C569 1.278 . S
C566 O567 1.203 . S
C566 O573 1.267 . S
O567 C566 1.203 . S
O568 C561 1.185 . S
O568 Zn564 2.086 . S
C569 O565 1.278 . S
C569 O570 1.211 . S
O570 C569 1.211 . S
C571 O563 1.284 . S
C571 O572 1.273 . S
O572 C571 1.273 . S
O573 Zn564 1.977 . S
O573 C566 1.267 . S
C574 O575 1.160 . S
C574 O581 1.189 . S
O575 C574 1.160 . S
O576 Zn577 1.899 . S
O576 C584 1.284 . S
Zn577 O576 1.899 . S
Zn577 O578 2.032 1_554 S
Zn577 O581 2.093 . S
Zn577 O586 1.977 . S
O578 Zn577 2.032 1_556 S
O578 C582 1.278 . S
C579 O580 1.203 . S
C579 O586 1.267 . S
O580 C579 1.203 . S
O581 C574 1.189 . S
O581 Zn577 2.093 . S
C582 O578 1.278 . S
C582 O583 1.211 . S
O583 C582 1.211 . S
C584 O576 1.284 . S
C584 O585 1.273 . S
O585 C584 1.273 . S
O586 Zn577 1.977 . S
O586 C579 1.267 . S
C587 O588 1.160 . S
C587 O594 1.185 . S
O588 C587 1.160 . S
O589 Zn590 1.899 . S
O589 C597 1.284 . S
Zn590 O589 1.899 . S
Zn590 O591 2.032 . S
Zn590 O594 2.086 . S
Zn590 O599 1.977 . S
O591 Zn590 2.032 . S
O591 C595 1.278 . S
C592 O593 1.203 . S
C592 O599 1.267 . S
O593 C592 1.203 . S
O594 C587 1.185 . S
O594 Zn590 2.086 . S
C595 O591 1.278 . S
C595 O596 1.211 . S
O596 C595 1.211 . S
C597 O589 1.284 . S
C597 O598 1.273 . S
O598 C597 1.273 . S
O599 Zn590 1.977 . S
O599 C592 1.267 . S
C600 C601 1.369 . S
C600 C602 1.419 . S
C600 H604 0.930 . S
C601 C600 1.369 . S
C601 C610 1.429 . S
C602 C600 1.419 . S
C602 C603 1.363 . S
C602 H605 0.929 . S
C603 C602 1.363 . S
C603 C609 1.428 . S
H604 C600 0.930 . S
H605 C602 0.929 . S
S606 N607 1.613 . S
S606 N608 1.610 . S
N607 S606 1.613 . S
N607 C610 1.350 . S
N608 S606 1.610 . S
N608 C609 1.351 . S
C609 C603 1.428 . S
C609 N608 1.351 . S
C609 C610 1.434 . S
C610 C601 1.429 . S
C610 N607 1.350 . S
C610 C609 1.434 . S
C611 C612 1.369 . S
C611 C613 1.419 . S
C611 H615 0.930 . S
C612 C611 1.369 . S
C612 C621 1.429 . S
C613 C611 1.419 . S
C613 C614 1.363 . S
C613 H616 0.929 . S
C614 C613 1.363 . S
C614 C620 1.428 . S
H615 C611 0.930 . S
H616 C613 0.929 . S
S617 N618 1.613 . S
S617 N619 1.610 . S
N618 S617 1.613 . S
N618 C621 1.350 . S
N619 S617 1.610 . S
N619 C620 1.351 . S
C620 C614 1.428 . S
C620 N619 1.351 . S
C620 C621 1.434 . S
C621 C612 1.429 . S
C621 N618 1.350 . S
C621 C620 1.434 . S
C622 C623 1.369 . S
C622 C624 1.419 . S
C622 H626 0.930 . S
C623 C622 1.369 . S
C623 C632 1.429 . S
C624 C622 1.419 . S
C624 C625 1.363 . S
C624 H627 0.929 . S
C625 C624 1.363 . S
C625 C631 1.428 . S
H626 C622 0.930 . S
H627 C624 0.929 . S
S628 N629 1.613 . S
S628 N630 1.610 . S
N629 S628 1.613 . S
N629 C632 1.350 . S
N630 S628 1.610 . S
N630 C631 1.351 . S
C631 C625 1.428 . S
C631 N630 1.351 . S
C631 C632 1.434 . S
C632 C623 1.429 . S
C632 N629 1.350 . S
C632 C631 1.434 . S
C633 C634 1.369 . S
C633 C635 1.419 . S
C633 H637 0.937 . S
C634 C633 1.369 . S
C634 C643 1.429 . S
C635 C633 1.419 . S
C635 C636 1.363 . S
C635 H638 0.929 . S
C636 C635 1.363 . S
C636 C642 1.428 . S
H637 C633 0.937 . S
H638 C635 0.929 . S
S639 N640 1.613 . S
S639 N641 1.610 . S
N640 S639 1.613 . S
N640 C643 1.350 . S
N641 S639 1.610 . S
N641 C642 1.351 . S
C642 C636 1.428 . S
C642 N641 1.351 . S
C642 C643 1.434 . S
C643 C634 1.429 . S
C643 N640 1.350 . S
C643 C642 1.434 . S
C644 C645 1.369 . S
C644 C646 1.419 . S
C644 H648 0.930 . S
C645 C644 1.369 . S
C645 C654 1.429 1_554 S
C646 C644 1.419 . S
C646 C647 1.327 1_554 S
C646 H649 0.929 . S
C647 C646 1.327 1_556 S
C647 C653 1.461 . S
H648 C644 0.930 . S
H649 C646 0.929 . S
S650 N651 1.613 . S
S650 N652 1.610 . S
N651 S650 1.613 . S
N651 C654 1.350 . S
N652 S650 1.610 . S
N652 C653 1.351 . S
C653 C647 1.461 . S
C653 N652 1.351 . S
C653 C654 1.434 . S
C654 C645 1.429 1_556 S
C654 N651 1.350 . S
C654 C653 1.434 . S
C655 C656 1.369 . S
C655 C657 1.419 . S
C655 H659 0.930 . S
C656 C655 1.369 . S
C656 C665 1.429 . S
C657 C655 1.419 . S
C657 C658 1.363 . S
C657 H660 0.929 . S
C658 C657 1.363 . S
C658 C664 1.428 . S
H659 C655 0.930 . S
H660 C657 0.929 . S
S661 N662 1.613 . S
S661 N663 1.610 . S
N662 S661 1.613 . S
N662 C665 1.350 . S
N663 S661 1.610 . S
N663 C664 1.351 . S
C664 C658 1.428 . S
C664 N663 1.351 . S
C664 C665 1.434 . S
C665 C656 1.429 . S
C665 N662 1.350 . S
C665 C664 1.434 . S
C666 C667 1.369 . S
C666 C668 1.419 . S
C666 H670 0.930 . S
C667 C666 1.369 . S
C667 C676 1.429 . S
C668 C666 1.419 . S
C668 C669 1.363 . S
C668 H671 0.929 . S
C669 C668 1.363 . S
C669 C675 1.428 . S
H670 C666 0.930 . S
H671 C668 0.929 . S
S672 N673 1.613 . S
S672 N674 1.610 . S
N673 S672 1.613 . S
N673 C676 1.350 . S
N674 S672 1.610 . S
N674 C675 1.351 . S
C675 C669 1.428 . S
C675 N674 1.351 . S
C675 C676 1.434 . S
C676 C667 1.429 . S
C676 N673 1.350 . S
C676 C675 1.434 . S
C677 C678 1.369 . S
C677 C679 1.419 . S
C677 H681 0.930 . S
C678 C677 1.369 . S
C678 C687 1.429 . S
C679 C677 1.419 . S
C679 C680 1.363 . S
C679 H682 0.929 . S
C680 C679 1.363 . S
C680 C686 1.428 . S
H681 C677 0.930 . S
H682 C679 0.929 . S
S683 N684 1.613 . S
S683 N685 1.610 . S
N684 S683 1.613 . S
N684 C687 1.350 . S
N685 S683 1.610 . S
N685 C686 1.351 . S
C686 C680 1.428 . S
C686 N685 1.351 . S
C686 C687 1.434 . S
C687 C678 1.429 . S
C687 N684 1.350 . S
C687 C686 1.434 . S
C688 C689 1.369 . S
C688 C690 1.419 . S
C688 H692 0.930 . S
C689 C688 1.369 . S
C689 C698 1.429 . S
C690 C688 1.419 . S
C690 C691 1.363 . S
C690 H693 0.929 . S
C691 C690 1.363 . S
C691 C697 1.428 . S
H692 C688 0.930 . S
H693 C690 0.929 . S
S694 N695 1.613 . S
S694 N696 1.610 . S
N695 S694 1.613 . S
N695 C698 1.350 . S
N696 S694 1.610 . S
N696 C697 1.351 . S
C697 C691 1.428 . S
C697 N696 1.351 . S
C697 C698 1.434 . S
C698 C689 1.429 . S
C698 N695 1.350 . S
C698 C697 1.434 . S
C699 C700 1.369 . S
C699 C701 1.419 . S
C699 H703 0.930 . S
C700 C699 1.369 . S
C700 C709 1.421 1_554 S
C701 C699 1.419 . S
C701 C702 1.363 . S
C701 H704 0.929 . S
C702 C701 1.363 . S
C702 C708 1.428 . S
H703 C699 0.930 . S
H704 C701 0.929 . S
S705 N706 1.613 . S
S705 N707 1.610 . S
N706 S705 1.613 . S
N706 C709 1.363 . S
N707 S705 1.610 . S
N707 C708 1.351 1_556 S
C708 C702 1.428 . S
C708 N707 1.351 1_554 S
C708 C709 1.429 1_554 S
C709 C700 1.421 1_556 S
C709 N706 1.363 . S
C709 C708 1.429 1_556 S
C710 C711 1.369 . S
C710 C712 1.419 . S
C710 H714 0.930 . S
C711 C710 1.369 . S
C711 C720 1.429 . S
C712 C710 1.419 . S
C712 C713 1.363 . S
C712 H715 0.929 . S
C713 C712 1.363 . S
C713 C719 1.428 . S
H714 C710 0.930 . S
H715 C712 0.929 . S
S716 N717 1.613 . S
S716 N718 1.610 . S
N717 S716 1.613 . S
N717 C720 1.350 . S
N718 S716 1.610 . S
N718 C719 1.351 . S
C719 C713 1.428 . S
C719 N718 1.351 . S
C719 C720 1.434 . S
C720 C711 1.429 . S
C720 N717 1.350 . S
C720 C719 1.434 . S
C721 C722 1.369 . S
C721 C723 1.419 . S
C721 H725 0.930 . S
C722 C721 1.369 . S
C722 C731 1.429 . S
C723 C721 1.419 . S
C723 C724 1.363 . S
C723 H726 0.929 . S
C724 C723 1.363 . S
C724 C730 1.428 . S
H725 C721 0.930 . S
H726 C723 0.929 . S
S727 N728 1.613 . S
S727 N729 1.610 . S
N728 S727 1.613 . S
N728 C731 1.350 . S
N729 S727 1.610 . S
N729 C730 1.351 . S
C730 C724 1.428 . S
C730 N729 1.351 . S
C730 C731 1.434 . S
C731 C722 1.429 . S
C731 N728 1.350 . S
C731 C730 1.434 . S
C732 C733 1.369 . S
C732 C734 1.419 . S
C732 H736 0.930 . S
C733 C732 1.369 . S
C733 C742 1.429 . S
C734 C732 1.419 . S
C734 C735 1.363 . S
C734 H737 0.929 . S
C735 C734 1.363 . S
C735 C741 1.428 . S
H736 C732 0.930 . S
H737 C734 0.929 . S
S738 N739 1.613 . S
S738 N740 1.610 . S
N739 S738 1.613 . S
N739 C742 1.350 . S
N740 S738 1.610 . S
N740 C741 1.351 . S
C741 C735 1.428 . S
C741 N740 1.351 . S
C741 C742 1.434 . S
C742 C733 1.429 . S
C742 N739 1.350 . S
C742 C741 1.434 . S
C743 C744 1.369 . S
C743 C745 1.419 . S
C743 H747 0.930 . S
C744 C743 1.369 . S
C744 C753 1.429 . S
C745 C743 1.419 . S
C745 C746 1.363 . S
C745 H748 0.929 . S
C746 C745 1.363 . S
C746 C752 1.428 . S
H747 C743 0.930 . S
H748 C745 0.929 . S
S749 N750 1.613 . S
S749 N751 1.610 . S
N750 S749 1.613 . S
N750 C753 1.350 . S
N751 S749 1.610 . S
N751 C752 1.351 . S
C752 C746 1.428 . S
C752 N751 1.351 . S
C752 C753 1.434 . S
C753 C744 1.429 . S
C753 N750 1.350 . S
C753 C752 1.434 . S
C754 C755 1.369 . S
C754 C756 1.416 1_554 S
C754 H758 0.930 . S
C755 C754 1.369 . S
C755 C764 1.429 . S
C756 C754 1.416 1_556 S
C756 C757 1.363 . S
C756 H759 0.932 . S
C757 C756 1.363 . S
C757 C763 1.425 1_556 S
H758 C754 0.930 . S
H759 C756 0.932 . S
S760 N761 1.613 . S
S760 N762 1.613 . S
N761 S760 1.613 . S
N761 C764 1.350 . S
N762 S760 1.613 . S
N762 C763 1.353 . S
C763 C757 1.425 1_554 S
C763 N762 1.353 . S
C763 C764 1.434 . S
C764 C755 1.429 . S
C764 N761 1.350 . S
C764 C763 1.434 . S
C765 C766 1.369 . S
C765 C767 1.419 . S
C765 H769 0.930 . S
C766 C765 1.369 . S
C766 C775 1.429 . S
C767 C765 1.419 . S
C767 C768 1.363 . S
C767 H770 0.929 . S
C768 C767 1.363 . S
C768 C774 1.428 . S
H769 C765 0.930 . S
H770 C767 0.929 . S
S771 N772 1.613 . S
S771 N773 1.610 . S
N772 S771 1.613 . S
N772 C775 1.350 . S
N773 S771 1.610 . S
N773 C774 1.351 . S
C774 C768 1.428 . S
C774 N773 1.351 . S
C774 C775 1.434 . S
C775 C766 1.429 . S
C775 N772 1.350 . S
C775 C774 1.434 . S
C776 C777 1.369 . S
C776 C778 1.419 . S
C776 H780 0.930 . S
C777 C776 1.369 . S
C777 C786 1.429 . S
C778 C776 1.419 . S
C778 C779 1.363 . S
C778 H781 0.929 . S
C779 C778 1.363 . S
C779 C785 1.428 . S
H780 C776 0.930 . S
H781 C778 0.929 . S
S782 N783 1.613 . S
S782 N784 1.610 . S
N783 S782 1.613 . S
N783 C786 1.350 . S
N784 S782 1.610 . S
N784 C785 1.351 . S
C785 C779 1.428 . S
C785 N784 1.351 . S
C785 C786 1.434 . S
C786 C777 1.429 . S
C786 N783 1.350 . S
C786 C785 1.434 . S
C787 C788 1.369 . S
C787 C789 1.419 . S
C787 H791 0.930 . S
C788 C787 1.369 . S
C788 C797 1.429 . S
C789 C787 1.419 . S
C789 C790 1.363 . S
C789 H792 0.929 . S
C790 C789 1.363 . S
C790 C796 1.428 . S
H791 C787 0.930 . S
H792 C789 0.929 . S
S793 N794 1.613 . S
S793 N795 1.610 . S
N794 S793 1.613 . S
N794 C797 1.350 . S
N795 S793 1.610 . S
N795 C796 1.351 . S
C796 C790 1.428 . S
C796 N795 1.351 . S
C796 C797 1.434 . S
C797 C788 1.429 . S
C797 N794 1.350 . S
C797 C796 1.434 . S
C798 C799 1.369 . S
C798 C800 1.419 . S
C798 H802 0.930 . S
C799 C798 1.369 . S
C799 C808 1.429 . S
C800 C798 1.419 . S
C800 C801 1.363 . S
C800 H803 0.929 . S
C801 C800 1.363 . S
C801 C807 1.428 . S
H802 C798 0.930 . S
H803 C800 0.929 . S
S804 N805 1.613 . S
S804 N806 1.610 . S
N805 S804 1.613 . S
N805 C808 1.350 . S
N806 S804 1.610 . S
N806 C807 1.351 . S
C807 C801 1.428 . S
C807 N806 1.351 . S
C807 C808 1.434 . S
C808 C799 1.429 . S
C808 N805 1.350 . S
C808 C807 1.434 . S
C809 C810 1.369 . S
C809 C811 1.419 . S
C809 H813 0.930 . S
C810 C809 1.369 . S
C810 C819 1.429 . S
C811 C809 1.419 . S
C811 C812 1.363 . S
C811 H814 0.929 . S
C812 C811 1.363 . S
C812 C818 1.428 . S
H813 C809 0.930 . S
H814 C811 0.929 . S
S815 N816 1.613 . S
S815 N817 1.610 . S
N816 S815 1.613 . S
N816 C819 1.350 . S
N817 S815 1.610 . S
N817 C818 1.351 . S
C818 C812 1.428 . S
C818 N817 1.351 . S
C818 C819 1.434 . S
C819 C810 1.429 . S
C819 N816 1.350 . S
C819 C818 1.434 . S
C820 C821 1.369 . S
C820 C822 1.419 . S
C820 H824 0.930 . S
C821 C820 1.369 . S
C821 C830 1.429 . S
C822 C820 1.419 . S
C822 C823 1.363 . S
C822 H825 0.929 . S
C823 C822 1.363 . S
C823 C829 1.428 . S
H824 C820 0.930 . S
H825 C822 0.929 . S
S826 N827 1.613 . S
S826 N828 1.610 . S
N827 S826 1.613 . S
N827 C830 1.350 . S
N828 S826 1.610 . S
N828 C829 1.351 . S
C829 C823 1.428 . S
C829 N828 1.351 . S
C829 C830 1.434 . S
C830 C821 1.429 . S
C830 N827 1.350 . S
C830 C829 1.434 . S
C831 C832 1.369 . S
C831 C833 1.419 . S
C831 H835 0.930 . S
C832 C831 1.369 . S
C832 C841 1.429 . S
C833 C831 1.419 . S
C833 C834 1.363 . S
C833 H836 0.929 . S
C834 C833 1.363 . S
C834 C840 1.428 . S
H835 C831 0.930 . S
H836 C833 0.929 . S
S837 N838 1.613 . S
S837 N839 1.610 . S
N838 S837 1.613 . S
N838 C841 1.350 . S
N839 S837 1.610 . S
N839 C840 1.351 . S
C840 C834 1.428 . S
C840 N839 1.351 . S
C840 C841 1.434 . S
C841 C832 1.429 . S
C841 N838 1.350 . S
C841 C840 1.434 . S
C842 C843 1.369 . S
C842 C844 1.419 . S
C842 H846 0.930 . S
C843 C842 1.369 . S
C843 C852 1.429 . S
C844 C842 1.419 . S
C844 C845 1.363 . S
C844 H847 0.929 . S
C845 C844 1.363 . S
C845 C851 1.428 . S
H846 C842 0.930 . S
H847 C844 0.929 . S
S848 N849 1.613 . S
S848 N850 1.610 . S
N849 S848 1.613 . S
N849 C852 1.350 . S
N850 S848 1.610 . S
N850 C851 1.351 . S
C851 C845 1.428 . S
C851 N850 1.351 . S
C851 C852 1.434 . S
C852 C843 1.429 . S
C852 N849 1.350 . S
C852 C851 1.434 . S
C853 C854 1.369 . S
C853 C855 1.419 . S
C853 H857 0.930 . S
C854 C853 1.369 . S
C854 C863 1.429 . S
C855 C853 1.419 . S
C855 C856 1.363 . S
C855 H858 0.929 . S
C856 C855 1.363 . S
C856 C862 1.428 . S
H857 C853 0.930 . S
H858 C855 0.929 . S
S859 N860 1.613 . S
S859 N861 1.610 . S
N860 S859 1.613 . S
N860 C863 1.350 . S
N861 S859 1.610 . S
N861 C862 1.351 . S
C862 C856 1.428 . S
C862 N861 1.351 . S
C862 C863 1.434 . S
C863 C854 1.429 . S
C863 N860 1.350 . S
C863 C862 1.434 . S
C864 C865 1.369 . S
C864 C866 1.419 . S
C864 H868 0.930 . S
C865 C864 1.369 . S
C865 C874 1.429 . S
C866 C864 1.419 . S
C866 C867 1.363 . S
C866 H869 0.929 . S
C867 C866 1.363 . S
C867 C873 1.428 . S
H868 C864 0.930 . S
H869 C866 0.929 . S
S870 N871 1.613 . S
S870 N872 1.610 . S
N871 S870 1.613 . S
N871 C874 1.350 . S
N872 S870 1.610 . S
N872 C873 1.351 . S
C873 C867 1.428 . S
C873 N872 1.351 . S
C873 C874 1.434 . S
C874 C865 1.429 . S
C874 N871 1.350 . S
C874 C873 1.434 . S
C875 C876 1.369 . S
C875 C877 1.419 . S
C875 H879 0.930 . S
C876 C875 1.369 . S
C876 C885 1.429 . S
C877 C875 1.419 . S
C877 C878 1.363 . S
C877 H880 0.929 . S
C878 C877 1.363 . S
C878 C884 1.428 . S
H879 C875 0.930 . S
H880 C877 0.929 . S
S881 N882 1.613 . S
S881 N883 1.610 . S
N882 S881 1.613 . S
N882 C885 1.350 . S
N883 S881 1.610 . S
N883 C884 1.351 . S
C884 C878 1.428 . S
C884 N883 1.351 . S
C884 C885 1.434 . S
C885 C876 1.429 . S
C885 N882 1.350 . S
C885 C884 1.434 . S
C886 C887 1.369 . S
C886 C888 1.419 . S
C886 H890 0.930 . S
C887 C886 1.369 . S
C887 C896 1.429 . S
C888 C886 1.419 . S
C888 C889 1.363 . S
C888 H891 0.929 . S
C889 C888 1.363 . S
C889 C895 1.428 . S
H890 C886 0.930 . S
H891 C888 0.929 . S
S892 N893 1.613 . S
S892 N894 1.610 . S
N893 S892 1.613 . S
N893 C896 1.350 . S
N894 S892 1.610 . S
N894 C895 1.351 . S
C895 C889 1.428 . S
C895 N894 1.351 . S
C895 C896 1.434 . S
C896 C887 1.429 . S
C896 N893 1.350 . S
C896 C895 1.434 . S
C897 C898 1.369 . S
C897 C899 1.419 . S
C897 H901 0.930 . S
C898 C897 1.369 . S
C898 C907 1.429 . S
C899 C897 1.419 . S
C899 C900 1.363 . S
C899 H902 0.929 . S
C900 C899 1.363 . S
C900 C906 1.428 . S
H901 C897 0.930 . S
H902 C899 0.929 . S
S903 N904 1.613 . S
S903 N905 1.610 . S
N904 S903 1.613 . S
N904 C907 1.350 . S
N905 S903 1.610 . S
N905 C906 1.351 . S
C906 C900 1.428 . S
C906 N905 1.351 . S
C906 C907 1.434 . S
C907 C898 1.429 . S
C907 N904 1.350 . S
C907 C906 1.434 . S
C908 C909 1.369 . S
C908 C910 1.419 . S
C908 H912 0.930 . S
C909 C908 1.369 . S
C909 C918 1.429 . S
C910 C908 1.419 . S
C910 C911 1.363 . S
C910 H913 0.929 . S
C911 C910 1.363 . S
C911 C917 1.428 . S
H912 C908 0.930 . S
H913 C910 0.929 . S
S914 N915 1.613 . S
S914 N916 1.610 . S
N915 S914 1.613 . S
N915 C918 1.350 . S
N916 S914 1.610 . S
N916 C917 1.351 . S
C917 C911 1.428 . S
C917 N916 1.351 . S
C917 C918 1.434 . S
C918 C909 1.429 . S
C918 N915 1.350 . S
C918 C917 1.434 . S
C919 C920 1.369 . S
C919 C921 1.419 . S
C919 H923 0.930 . S
C920 C919 1.369 . S
C920 C929 1.429 . S
C921 C919 1.419 . S
C921 C922 1.363 . S
C921 H924 0.929 . S
C922 C921 1.363 . S
C922 C928 1.428 . S
H923 C919 0.930 . S
H924 C921 0.929 . S
S925 N926 1.613 . S
S925 N927 1.610 . S
N926 S925 1.613 . S
N926 C929 1.350 . S
N927 S925 1.610 . S
N927 C928 1.351 . S
C928 C922 1.428 . S
C928 N927 1.351 . S
C928 C929 1.434 . S
C929 C920 1.429 . S
C929 N926 1.350 . S
C929 C928 1.434 . S
C930 C931 1.369 . S
C930 C932 1.419 . S
C930 H934 0.930 . S
C931 C930 1.369 . S
C931 C940 1.429 . S
C932 C930 1.419 . S
C932 C933 1.363 . S
C932 H935 0.929 . S
C933 C932 1.363 . S
C933 C939 1.428 . S
H934 C930 0.930 . S
H935 C932 0.929 . S
S936 N937 1.613 . S
S936 N938 1.610 . S
N937 S936 1.613 . S
N937 C940 1.350 . S
N938 S936 1.610 . S
N938 C939 1.351 . S
C939 C933 1.428 . S
C939 N938 1.351 . S
C939 C940 1.434 . S
C940 C931 1.429 . S
C940 N937 1.350 . S
C940 C939 1.434 . S
C941 C942 1.369 . S
C941 C943 1.419 . S
C941 H945 0.930 . S
C942 C941 1.369 . S
C942 C951 1.429 . S
C943 C941 1.419 . S
C943 C944 1.363 . S
C943 H946 0.929 . S
C944 C943 1.363 . S
C944 C950 1.428 . S
H945 C941 0.930 . S
H946 C943 0.929 . S
S947 N948 1.613 . S
S947 N949 1.610 . S
N948 S947 1.613 . S
N948 C951 1.350 . S
N949 S947 1.610 . S
N949 C950 1.351 . S
C950 C944 1.428 . S
C950 N949 1.351 . S
C950 C951 1.434 . S
C951 C942 1.429 . S
C951 N948 1.350 . S
C951 C950 1.434 . S
C603 C509 1.507 . S
C601 C35 1.393 . S
C614 C527 1.597 . S
C612 C115 1.427 . S
C625 C535 1.506 . S
C623 C177 1.415 . S
C634 C221 1.406 . S
C636 C501 1.606 . S
C645 C283 1.389 1_554 S
C647 C496 1.500 1_556 S
C656 C363 1.413 . S
C658 C514 1.600 . S
C669 C522 1.505 . S
C667 C407 1.402 . S
C680 C540 1.597 . S
C678 C469 1.417 . S
C689 C159 1.404 . S
C691 C561 1.508 . S
C702 C579 1.602 . S
C700 C239 1.418 . S
C711 C53 1.402 . S
C713 C587 1.512 . S
C724 C553 1.598 . S
C722 C97 1.403 . S
C733 C425 1.415 . S
C735 C548 1.504 . S
C744 C487 1.429 . S
C746 C566 1.597 . S
C757 C574 1.508 1_556 S
C755 C301 1.407 1_554 S
C766 C345 1.418 . S
C768 C592 1.599 . S
C779 C530 1.742 . S
C777 C29 1.724 . S
C790 C545 1.700 . S
C788 C109 1.666 . S
C799 C171 1.675 . S
C801 C504 1.742 . S
C810 C215 1.720 . S
C812 C519 1.701 . S
C821 C277 1.722 . S
C823 C543 1.741 . S
C834 C506 1.697 . S
C832 C357 1.673 . S
C845 C517 1.741 . S
C843 C401 1.721 . S
C856 C532 1.699 . S
C854 C463 1.720 . S
C867 C582 1.742 . S
C865 C153 1.722 . S
C878 C597 1.695 . S
C876 C233 1.675 . S
C887 C47 1.668 . S
C889 C556 1.740 . S
C900 C571 1.699 . S
C898 C91 1.722 . S
C911 C595 1.741 . S
C909 C419 1.668 . S
C920 C481 1.675 . S
C922 C558 1.696 . S
C933 C569 1.741 . S
C931 C295 1.670 . S
C944 C584 1.696 . S
C942 C339 1.722 . S
