# Generated by pormake.
# Topology rtl, (3,6)-cn, num edge types: 1
# Building blocks:
#     Node 0, Type 0, BuildingBlock: CUQRIR_clean_linker_1, # of connection points: 3
#     Node 1, Type 0, BuildingBlock: CUQRIR_clean_linker_1, # of connection points: 3
#     Node 2, Type 0, BuildingBlock: CUQRIR_clean_linker_1, # of connection points: 3
#     Node 3, Type 0, BuildingBlock: CUQRIR_clean_linker_1, # of connection points: 3
#     Node 4, Type 1, BuildingBlock: KUMBOL_clean_sbu_1, # of connection points: 6
#     Node 5, Type 1, BuildingBlock: KUMBOL_clean_sbu_1, # of connection points: 6
#     Edge 6, Type (0, 1), BuildingBlock: OJICUG_clean_linker_0, # of connection points: 2
#     Edge 7, Type (0, 1), BuildingBlock: OJICUG_clean_linker_0, # of connection points: 2
#     Edge 8, Type (0, 1), BuildingBlock: OJICUG_clean_linker_0, # of connection points: 2
#     Edge 9, Type (0, 1), BuildingBlock: OJICUG_clean_linker_0, # of connection points: 2
#     Edge 10, Type (0, 1), BuildingBlock: OJICUG_clean_linker_0, # of connection points: 2
#     Edge 11, Type (0, 1), BuildingBlock: OJICUG_clean_linker_0, # of connection points: 2
#     Edge 12, Type (0, 1), BuildingBlock: OJICUG_clean_linker_0, # of connection points: 2
#     Edge 13, Type (0, 1), BuildingBlock: OJICUG_clean_linker_0, # of connection points: 2
#     Edge 14, Type (0, 1), BuildingBlock: OJICUG_clean_linker_0, # of connection points: 2
#     Edge 15, Type (0, 1), BuildingBlock: OJICUG_clean_linker_0, # of connection points: 2
#     Edge 16, Type (0, 1), BuildingBlock: OJICUG_clean_linker_0, # of connection points: 2
#     Edge 17, Type (0, 1), BuildingBlock: OJICUG_clean_linker_0, # of connection points: 2
# Relax obj value: 0.068
# Max RMSD: 0.252
# Mean RMSD: 0.191
data_MOF--net-rtl--node1-KUMBOL_clean_sbu_1--node2-CUQRIR_clean_linker_1--edge1-OJICUG_clean_linker_0
_symmetry_space_group_name_H-M    P1
_symmetry_Int_Tables_number       1
_symmetry_cell_setting            triclinic
loop_
_symmetry_equiv_pos_as_xyz
'x, y, z'
_cell_length_a     23.704039
_cell_length_b     24.334602
_cell_length_c     18.213979
_cell_angle_alpha  71.422819
_cell_angle_beta   96.999539
_cell_angle_gamma 91.793087
loop_
_atom_site_label
_atom_site_type_symbol
_atom_site_fract_x
_atom_site_fract_y
_atom_site_fract_z
_atom_type_partial_charge
C0 C 0.25332 0.80822 0.98299 0.0
N1 N 0.20726 0.83054 1.00074 0.0
N2 N 0.27554 0.7629 0.04385 0.0
C3 C 0.27656 0.83177 0.90583 0.0
C4 C 0.24137 0.75929 0.09994 0.0
N5 N 0.19982 0.80012 0.07345 0.0
C6 C 0.24549 0.71341 0.17866 0.0
H7 H 0.2538 0.8113 0.86465 0.0
H8 H 0.32275 0.82268 0.9118 0.0
H9 H 0.26922 0.87926 0.88089 0.0
H10 H 0.2764 0.72739 0.21993 0.0
H11 H 0.26016 0.67154 0.17526 0.0
H12 H 0.20384 0.70692 0.20205 0.0
C13 C 0.72788 0.7405 0.7498 0.0
N14 N 0.69498 0.69637 0.73952 0.0
N15 N 0.75717 0.76417 0.68774 0.0
C16 C 0.72999 0.76128 0.81951 0.0
C17 C 0.74105 0.7324 0.63978 0.0
N18 N 0.70265 0.69187 0.67064 0.0
C19 C 0.76789 0.73619 0.56737 0.0
H20 H 0.74126 0.80784 0.80412 0.0
H21 H 0.76263 0.73579 0.86575 0.0
H22 H 0.6885 0.7546 0.84339 0.0
H23 H 0.81203 0.75251 0.5708 0.0
H24 H 0.74244 0.76633 0.51598 0.0
H25 H 0.76889 0.69325 0.5584 0.0
C26 C 0.79202 0.23942 0.20534 0.0
N27 N 0.82963 0.20131 0.19895 0.0
N28 N 0.75935 0.26302 0.13678 0.0
C29 C 0.7907 0.25693 0.27721 0.0
C30 C 0.7795 0.23867 0.08763 0.0
N31 N 0.8226 0.20107 0.12562 0.0
C32 C 0.75369 0.24744 1.00506 0.0
H33 H 0.76314 0.22669 0.3166 0.0
H34 H 0.77405 0.30175 0.2623 0.0
H35 H 0.83414 0.25438 0.30868 0.0
H36 H 0.77434 0.28497 0.96553 0.0
H37 H 0.70749 0.25682 0.99812 0.0
H38 H 0.76029 0.20862 0.98759 0.0
C39 C 0.27808 0.28622 0.42119 0.0
N40 N 0.31201 0.3318 0.42325 0.0
N41 N 0.24801 0.26996 0.48342 0.0
C42 C 0.27636 0.25631 0.36024 0.0
C43 C 0.26471 0.30742 0.52295 0.0
N44 N 0.30317 0.34513 0.48624 0.0
C45 C 0.24396 0.30694 0.59798 0.0
H46 H 0.27982 0.2887 0.30242 0.0
H47 H 0.2373 0.23084 0.35673 0.0
H48 H 0.31301 0.22597 0.3748 0.0
H49 H 0.27261 0.27892 0.64766 0.0
H50 H 0.20021 0.28952 0.60186 0.0
H51 H 0.2446 0.35121 0.60303 0.0
C52 C 0.93792 0.18372 0.55014 0.0
C53 C 0.8369 0.18013 0.50891 0.0
C54 C 0.88824 0.15226 0.54849 0.0
C55 C 0.83666 0.23986 0.46874 0.0
C56 C 0.93752 0.24401 0.51122 0.0
C57 C 0.88697 0.2716 0.46908 0.0
N58 N 0.98543 0.15626 0.59452 0.0
C59 C 0.03217 0.1876 0.60784 0.0
C60 C 0.98722 0.27527 0.51891 0.0
C61 C 0.03447 0.24706 0.56845 0.0
Gd62 Gd 0.04877 0.96083 0.54297 0.0
Gd63 Gd 0.97731 0.05567 0.65569 0.0
N64 N 0.88954 0.09477 0.589 0.0
C65 C 0.78697 0.14747 0.51319 0.0
C66 C 0.84055 0.06346 0.59764 0.0
C67 C 0.78871 0.08902 0.55857 0.0
H68 H 0.84198 0.01844 0.6335 0.0
H69 H 0.75014 0.06378 0.56379 0.0
H70 H 0.16969 0.03556 0.49508 0.0
H71 H 0.06771 0.1672 0.64965 0.0
H72 H 0.27227 0.02376 0.53706 0.0
H73 H 0.74671 0.1673 0.48336 0.0
H74 H 0.79757 0.26216 0.43848 0.0
H75 H 0.99157 0.83171 0.6203 0.0
H76 H 0.98871 0.32158 0.48968 0.0
H77 H 0.07228 0.27128 0.57762 0.0
H78 H 0.29221 0.83032 0.71582 0.0
H79 H 0.88587 0.31785 0.43882 0.0
H80 H 0.12445 0.71469 0.75694 0.0
H81 H 0.02276 0.73388 0.70653 0.0
N82 N 0.07443 0.8673 0.62433 0.0
C83 C 0.13071 0.85725 0.64872 0.0
C84 C 0.03591 0.82361 0.64259 0.0
C85 C 0.11094 0.75761 0.71938 0.0
C86 C 0.05348 0.76827 0.69109 0.0
C87 C 0.15045 0.80216 0.69766 0.0
H88 H 0.22481 0.75114 0.7603 0.0
N89 N 0.14826 0.95402 0.57373 0.0
C90 C 0.16859 0.90213 0.62362 0.0
C91 C 0.26482 0.93766 0.617 0.0
C92 C 0.22742 0.89266 0.64682 0.0
C93 C 0.18495 0.9965 0.54032 0.0
C94 C 0.24352 0.9895 0.56272 0.0
O95 O 0.93757 0.04997 0.53894 0.0
O96 O 0.01455 0.0499 0.47548 0.0
O97 O 0.08879 0.94155 0.45206 0.0
O98 O 0.99812 0.93224 0.45471 0.0
O99 O 0.94696 0.96333 0.67831 0.0
O100 O 0.95753 0.93946 0.56653 0.0
O101 O 0.05053 0.92842 0.67539 0.0
O102 O 0.06131 0.01202 0.70748 0.0
O103 O 0.93992 0.01497 0.76252 0.0
O104 O 0.96774 0.1039 0.73575 0.0
O105 O 0.07728 0.05404 0.5213 0.0
O106 O 0.07047 0.07211 0.63719 0.0
C107 C 0.96197 0.06476 0.47476 0.0
C108 C 0.93252 0.93401 0.62938 0.0
C109 C 0.04305 0.8732 0.39681 0.0
C110 C 0.06926 0.82656 0.30444 0.0
C111 C 0.01588 0.77368 0.4111 0.0
C112 C 0.01627 0.82199 0.43669 0.0
C113 C 0.04203 0.77582 0.34556 0.0
C114 C 0.06957 0.87522 0.33083 0.0
C115 C 0.04149 0.92572 0.42062 0.0
C116 C 0.2472 0.83823 0.69707 0.0
C117 C 0.20882 0.79308 0.72231 0.0
H118 H 0.31028 0.93213 0.63351 0.0
C119 C 0.0694 0.95619 0.72467 0.0
C120 C 0.09288 0.08211 0.57142 0.0
C121 C 0.96447 0.05055 0.86877 0.0
C122 C 0.95103 0.07218 0.98738 0.0
C123 C 0.01856 0.99761 0.99173 0.0
C124 C 1.00508 0.00807 0.91148 0.0
C125 C 0.99141 0.02914 0.02977 0.0
C126 C 0.93807 0.08265 0.90675 0.0
C127 C 0.94582 0.06035 0.78572 0.0
H128 H 0.99524 0.7343 0.44229 0.0
H129 H 0.99517 0.81943 0.4871 0.0
H130 H 0.04188 0.73726 0.32805 0.0
H131 H 0.08968 0.91498 0.29946 0.0
H132 H 0.04972 0.96461 1.02466 0.0
H133 H 0.02559 0.9826 0.88312 0.0
H134 H 1.00222 0.02024 0.092 0.0
H135 H 0.90598 0.11475 0.87369 0.0
C136 C 0.68488 0.58054 0.12678 0.0
C137 C 0.67461 0.685 0.07195 0.0
C138 C 0.65104 0.63001 0.10547 0.0
C139 C 0.73199 0.68931 0.05872 0.0
C140 C 0.74284 0.58479 0.11538 0.0
C141 C 0.76604 0.63937 0.08054 0.0
N142 N 0.6609 0.52814 0.15797 0.0
C143 C 0.69313 0.47876 0.18428 0.0
C144 C 0.77573 0.53397 0.13931 0.0
C145 C 0.75086 0.48079 0.1747 0.0
Gd146 Gd 0.4583 0.47584 1.00924 0.0
Gd147 Gd 0.56345 0.52836 0.168 0.0
N148 N 0.59538 0.62439 0.11817 0.0
C149 C 0.63995 0.73415 0.0534 0.0
C150 C 0.56232 0.67248 0.10362 0.0
C151 C 0.5838 0.72786 0.07027 0.0
H152 H 0.51967 0.66891 0.11856 0.0
H153 H 0.55709 0.76573 0.05809 0.0
H154 H 0.51029 0.34118 0.05803 0.0
H155 H 0.6746 0.43772 0.21346 0.0
H156 H 0.48084 0.24093 0.12309 0.0
H157 H 0.65644 0.77714 0.02757 0.0
H158 H 0.75061 0.73117 0.0324 0.0
H159 H 0.33985 0.55842 0.97658 0.0
H160 H 0.82043 0.53541 0.13166 0.0
H161 H 0.77614 0.44137 0.19481 0.0
H162 H 0.29085 0.26193 0.17685 0.0
H163 H 0.81036 0.64345 0.07064 0.0
H164 H 0.20964 0.45286 0.09201 0.0
H165 H 0.24366 0.54894 1.01631 0.0
N166 N 0.36355 0.47115 0.03803 0.0
C167 C 0.34435 0.41725 0.07504 0.0
C168 C 0.3272 0.51746 1.01402 0.0
C169 C 0.25273 0.45734 0.07686 0.0
C170 C 0.27187 0.51168 0.03456 0.0
C171 C 0.28859 0.40901 0.09601 0.0
H172 H 0.22732 0.34576 0.15043 0.0
N173 N 0.43385 0.37915 0.07013 0.0
C174 C 0.38008 0.36978 0.09012 0.0
C175 C 0.39834 0.26657 0.13964 0.0
C176 C 0.36123 0.31324 0.12663 0.0
C177 C 0.46918 0.33369 0.07894 0.0
C178 C 0.45233 0.27682 0.11492 0.0
O179 O 0.5908 0.54163 0.04885 0.0
O180 O 0.5076 0.55909 0.96507 0.0
O181 O 0.48249 0.445 0.91776 0.0
O182 O 0.39864 0.48102 0.90693 0.0
O183 O 0.4796 0.57658 0.12616 0.0
O184 O 0.44065 0.56828 1.00577 0.0
O185 O 0.46612 0.42897 0.13921 0.0
O186 O 0.47314 0.50386 0.188 0.0
O187 O 0.57983 0.56438 0.26345 0.0
O188 O 0.58421 0.47131 0.28653 0.0
O189 O 0.54898 0.44451 0.03284 0.0
O190 O 0.57227 0.43711 0.16299 0.0
C191 C 0.56281 0.56551 0.97941 0.0
C192 C 0.44475 0.59387 0.0605 0.0
C193 C 0.43616 0.4877 0.79055 0.0
C194 C 0.4157 0.48374 0.65792 0.0
C195 C 0.45246 0.572 0.68075 0.0
C196 C 0.45368 0.5453 0.76127 0.0
C197 C 0.43301 0.54162 0.6291 0.0
C198 C 0.41788 0.45695 0.73889 0.0
C199 C 0.43411 0.4593 0.8743 0.0
C200 C 0.30607 0.30507 0.14857 0.0
C201 C 0.26993 0.35283 0.13363 0.0
H202 H 0.38543 0.22246 0.16757 0.0
C203 C 0.45304 0.4531 0.18955 0.0
C204 C 0.5796 0.42273 0.10081 0.0
C205 C 0.63628 0.51004 0.37919 0.0
C206 C 0.67272 0.53663 0.49503 0.0
C207 C 0.72736 0.47245 0.45081 0.0
C208 C 0.68511 0.47618 0.3889 0.0
C209 C 0.72148 0.50253 0.50331 0.0
C210 C 0.63007 0.53955 0.43275 0.0
C211 C 0.58995 0.51384 0.31595 0.0
H212 H 0.46588 0.61656 0.65831 0.0
H213 H 0.46741 0.56956 0.80059 0.0
H214 H 0.43147 0.56318 0.56687 0.0
H215 H 0.4035 0.41265 0.76167 0.0
H216 H 0.76513 0.44654 0.45778 0.0
H217 H 0.69056 0.45243 0.34911 0.0
H218 H 0.75591 0.50016 0.54911 0.0
H219 H 0.59168 0.56466 0.42581 0.0
C220 C 0.21878 0.17979 0.57897 0.0
C221 C 0.20939 0.22228 0.50536 0.0
H222 H 0.18823 0.10203 0.6583 0.0
C223 C 0.16102 0.21868 0.45449 0.0
H224 H 0.25584 0.18191 0.61904 0.0
C225 C 0.12377 0.17222 0.4756 0.0
C226 C 0.1331 0.12999 0.54925 0.0
H227 H 0.15208 0.252 0.39855 0.0
H228 H 0.08684 0.17004 0.43525 0.0
C229 C 0.18045 0.13431 0.60122 0.0
C230 C 0.36095 0.70431 0.11121 0.0
C231 C 0.32062 0.72386 0.0454 0.0
H232 H 0.42965 0.64638 0.16932 0.0
C233 C 0.32403 0.70351 0.98191 0.0
H234 H 0.36056 0.72045 0.16003 0.0
C235 C 0.36678 0.6645 0.98433 0.0
C236 C 0.40443 0.64151 0.05255 0.0
H237 H 0.29304 0.71678 0.93076 0.0
H238 H 0.36907 0.65117 0.93347 0.0
C239 C 0.40134 0.66257 0.11565 0.0
C240 C 0.84351 0.80896 0.73444 0.0
C241 C 0.79863 0.80988 0.67605 0.0
H242 H 0.92113 0.84862 0.76536 0.0
C243 C 0.797 0.85369 0.60352 0.0
H244 H 0.8463 0.7751 0.79028 0.0
C245 C 0.8408 0.894 0.58823 0.0
C246 C 0.8859 0.89243 0.64622 0.0
H247 H 0.76237 0.85582 0.55807 0.0
H248 H 0.83932 0.92659 0.53129 0.0
C249 C 0.88643 0.85052 0.71998 0.0
C250 C 0.70614 0.35241 0.05977 0.0
C251 C 0.71135 0.30106 0.12318 0.0
H252 H 0.65908 0.43152 1.0027 0.0
C253 C 0.67109 0.28876 0.17675 0.0
H254 H 0.73707 0.36292 1.01838 0.0
C255 C 0.62819 0.32856 0.16965 0.0
C256 C 0.62368 0.38024 0.10715 0.0
H257 H 0.67365 0.24874 0.22507 0.0
H258 H 0.59838 0.3189 0.21262 0.0
C259 C 0.66202 0.39152 0.05123 0.0
C260 C 0.18487 0.84627 0.17113 0.0
C261 C 0.16279 0.81573 0.12064 0.0
H262 H 0.17285 0.87365 0.26881 0.0
C263 C 0.10776 0.79337 0.12565 0.0
H264 H 0.22771 0.86299 0.1685 0.0
C265 C 0.07616 0.79916 0.18307 0.0
C266 C 0.09927 0.8273 0.23662 0.0
H267 H 0.09046 0.76918 0.08752 0.0
H268 H 0.03426 0.78016 0.18699 0.0
C269 C 0.15341 0.85225 0.22836 0.0
C270 C 0.68757 0.6214 0.86513 0.0
C271 C 0.66098 0.65911 0.79515 0.0
H272 H 0.67741 0.56103 0.97694 0.0
C273 C 0.60162 0.66482 0.78419 0.0
H274 H 0.73343 0.61701 0.87456 0.0
C275 C 0.56929 0.63424 0.84373 0.0
C276 C 0.59593 0.59687 0.91461 0.0
H277 H 0.58068 0.69464 0.73086 0.0
H278 H 0.52378 0.64123 0.83514 0.0
C279 C 0.65542 0.59014 0.92391 0.0
C280 C 0.92335 0.16475 0.26914 0.0
C281 C 0.86397 0.16202 0.2632 0.0
H282 H 1.00165 0.13557 0.34234 0.0
C283 C 0.83737 0.1243 0.32426 0.0
H284 H 0.94419 0.19401 0.22231 0.0
C285 C 0.86952 0.09143 0.3922 0.0
C286 C 0.92887 0.09596 0.40026 0.0
H287 H 0.79145 0.12161 0.31982 0.0
H288 H 0.84785 0.06299 0.43873 0.0
C289 C 0.95581 0.13165 0.33749 0.0
C290 C 0.3856 0.36258 0.5708 0.0
C291 C 0.33682 0.38373 0.51868 0.0
H292 H 0.44921 0.37814 0.65614 0.0
C293 C 0.3169 0.43977 0.50749 0.0
H294 H 0.40072 0.31897 0.58079 0.0
C295 C 0.34481 0.47393 0.54936 0.0
C296 C 0.3921 0.45174 0.60449 0.0
H297 H 0.27845 0.45597 0.46876 0.0
H298 H 0.32756 0.51631 0.54196 0.0
C299 C 0.41291 0.39618 0.61382 0.0
C300 C 0.65085 0.66622 0.56175 0.0
C301 C 0.67991 0.64848 0.63733 0.0
H302 H 0.62701 0.64576 0.45686 0.0
C303 C 0.69846 0.59081 0.67066 0.0
H304 H 0.6369 0.71086 0.53496 0.0
C305 C 0.69264 0.55289 0.62626 0.0
C306 C 0.66861 0.57232 0.54752 0.0
H307 H 0.72153 0.57658 0.72865 0.0
H308 H 0.70961 0.5093 0.65244 0.0
C309 C 0.64546 0.62875 0.5171 0.0
C310 C 0.8632 0.10823 0.12699 0.0
C311 C 0.85634 0.16848 0.09306 0.0
H312 H 0.89923 0.03035 0.12042 0.0
C313 C 0.8828 0.19707 0.02657 0.0
H314 H 0.84253 0.08522 0.17774 0.0
C315 C 0.91456 0.16589 0.99333 0.0
C316 C 0.92092 0.10547 0.02645 0.0
H317 H 0.8787 0.24363 1.00031 0.0
H318 H 0.93408 0.18903 0.9415 0.0
C319 C 0.89557 0.07697 0.09426 0.0
C320 C 0.38913 0.33204 0.3429 0.0
C321 C 0.34922 0.3623 0.36676 0.0
H322 H 0.45264 0.33715 0.26654 0.0
C323 C 0.34441 0.42268 0.33264 0.0
H324 H 0.39445 0.28567 0.36938 0.0
C325 C 0.37892 0.45236 0.27586 0.0
C326 C 0.4178 0.42189 0.25081 0.0
H327 H 0.31301 0.4467 0.3486 0.0
H328 H 0.37414 0.49894 0.25001 0.0
C329 C 0.42255 0.36148 0.28455 0.0
C330 C 0.12597 0.83383 0.90347 0.0
C331 C 0.16396 0.86322 0.94289 0.0
H332 H 0.06612 0.84023 0.80306 0.0
C333 C 0.16759 0.92361 0.91367 0.0
H334 H 0.1238 0.78697 0.9248 0.0
C335 C 0.1354 0.95411 0.84367 0.0
C336 C 0.09966 0.92438 0.80164 0.0
H337 H 0.19775 0.94654 0.94267 0.0
H338 H 0.14039 0.00066 0.82081 0.0
C339 C 0.09406 0.86412 0.83332 0.0
loop_
_geom_bond_atom_site_label_1
_geom_bond_atom_site_label_2
_geom_bond_distance
_geom_bond_site_symmetry_2
_ccdc_geom_bond_type
C0 N1 1.317 . S
C0 N2 1.348 1_556 S
C0 C3 1.485 . S
N1 C0 1.317 . S
N1 N5 1.370 1_556 S
N2 C0 1.348 1_554 S
N2 C4 1.346 . S
C3 C0 1.485 . S
C3 H7 0.960 . S
C3 H8 0.961 . S
C3 H9 0.960 . S
C4 N2 1.346 . S
C4 N5 1.307 . S
C4 C6 1.486 . S
N5 N1 1.370 1_554 S
N5 C4 1.307 . S
C6 C4 1.486 . S
C6 H10 0.960 . S
C6 H11 0.960 . S
C6 H12 0.959 . S
H7 C3 0.960 . S
H8 C3 0.961 . S
H9 C3 0.960 . S
H10 C6 0.960 . S
H11 C6 0.960 . S
H12 C6 0.959 . S
C13 N14 1.317 . S
C13 N15 1.348 . S
C13 C16 1.485 . S
N14 C13 1.317 . S
N14 N18 1.370 . S
N15 C13 1.348 . S
N15 C17 1.346 . S
C16 C13 1.485 . S
C16 H20 0.960 . S
C16 H21 0.961 . S
C16 H22 0.960 . S
C17 N15 1.346 . S
C17 N18 1.307 . S
C17 C19 1.486 . S
N18 N14 1.370 . S
N18 C17 1.307 . S
C19 C17 1.486 . S
C19 H23 0.960 . S
C19 H24 0.960 . S
C19 H25 0.959 . S
H20 C16 0.960 . S
H21 C16 0.961 . S
H22 C16 0.960 . S
H23 C19 0.960 . S
H24 C19 0.960 . S
H25 C19 0.959 . S
C26 N27 1.317 . S
C26 N28 1.348 . S
C26 C29 1.485 . S
N27 C26 1.317 . S
N27 N31 1.370 . S
N28 C26 1.348 . S
N28 C30 1.346 . S
C29 C26 1.485 . S
C29 H33 0.960 . S
C29 H34 0.961 . S
C29 H35 0.960 . S
C30 N28 1.346 . S
C30 N31 1.307 . S
C30 C32 1.486 1_554 S
N31 N27 1.370 . S
N31 C30 1.307 . S
C32 C30 1.486 1_556 S
C32 H36 0.960 . S
C32 H37 0.960 . S
C32 H38 0.959 . S
H33 C29 0.960 . S
H34 C29 0.961 . S
H35 C29 0.960 . S
H36 C32 0.960 . S
H37 C32 0.960 . S
H38 C32 0.959 . S
C39 N40 1.317 . S
C39 N41 1.348 . S
C39 C42 1.485 . S
N40 C39 1.317 . S
N40 N44 1.370 . S
N41 C39 1.348 . S
N41 C43 1.346 . S
C42 C39 1.485 . S
C42 H46 0.960 . S
C42 H47 0.961 . S
C42 H48 0.960 . S
C43 N41 1.346 . S
C43 N44 1.307 . S
C43 C45 1.486 . S
N44 N40 1.370 . S
N44 C43 1.307 . S
C45 C43 1.486 . S
C45 H49 0.960 . S
C45 H50 0.960 . S
C45 H51 0.959 . S
H46 C42 0.960 . S
H47 C42 0.961 . S
H48 C42 0.960 . S
H49 C45 0.960 . S
H50 C45 0.960 . S
H51 C45 0.959 . S
C52 C54 1.422 . S
C52 C56 1.415 . S
C52 N58 1.369 . S
C53 C54 1.421 . S
C53 C55 1.417 . S
C53 C65 1.422 . S
C54 C52 1.422 . S
C54 C53 1.421 . S
C54 N64 1.359 . S
C55 C53 1.417 . S
C55 C57 1.329 . S
C55 H74 0.930 . S
C56 C52 1.415 . S
C56 C57 1.437 . S
C56 C60 1.413 . S
C57 C55 1.329 . S
C57 C56 1.437 . S
C57 H79 0.929 . S
N58 C52 1.369 . S
N58 C59 1.338 1_655 S
N58 Gd63 2.622 . S
C59 N58 1.338 1_455 S
C59 C61 1.378 . S
C59 H71 0.929 . S
C60 C56 1.413 . S
C60 C61 1.348 1_655 S
C60 H76 0.931 . S
C61 C59 1.378 . S
C61 C60 1.348 1_455 S
C61 H77 0.930 . S
Gd62 N82 2.622 . S
Gd62 N89 2.570 . S
Gd62 O96 2.353 1_465 S
Gd62 O97 2.468 . S
Gd62 O98 2.427 . S
Gd62 O100 2.388 1_455 S
Gd62 O101 2.386 . S
Gd62 O105 2.307 1_565 S
Gd62 C115 2.805 . S
Gd63 N58 2.622 . S
Gd63 N64 2.570 . S
Gd63 O95 2.386 . S
Gd63 O99 2.307 1_545 S
Gd63 O102 2.353 1_655 S
Gd63 O103 2.468 . S
Gd63 O104 2.427 . S
Gd63 O106 2.388 1_655 S
Gd63 C127 2.805 . S
N64 C54 1.359 . S
N64 Gd63 2.570 . S
N64 C66 1.343 . S
C65 C53 1.422 . S
C65 C67 1.321 . S
C65 H73 0.931 . S
C66 N64 1.343 . S
C66 C67 1.390 . S
C66 H68 0.931 . S
C67 C65 1.321 . S
C67 C66 1.390 . S
C67 H69 0.930 . S
H68 C66 0.931 . S
H69 C67 0.930 . S
H70 C93 0.931 . S
H71 C59 0.929 . S
H72 C94 0.930 . S
H73 C65 0.931 . S
H74 C55 0.930 . S
H75 C84 0.929 1_655 S
H76 C60 0.931 . S
H77 C61 0.930 . S
H78 C116 0.930 . S
H79 C57 0.929 . S
H80 C85 0.931 . S
H81 C86 0.930 1_655 S
N82 Gd62 2.622 . S
N82 C83 1.369 . S
N82 C84 1.338 . S
C83 N82 1.369 . S
C83 C87 1.415 . S
C83 C90 1.422 . S
C84 H75 0.929 1_455 S
C84 N82 1.338 . S
C84 C86 1.378 . S
C85 H80 0.931 . S
C85 C86 1.348 . S
C85 C87 1.413 . S
C86 H81 0.930 1_455 S
C86 C84 1.378 . S
C86 C85 1.348 . S
C87 C83 1.415 . S
C87 C85 1.413 . S
C87 C117 1.437 . S
H88 C117 0.929 . S
N89 Gd62 2.570 . S
N89 C90 1.359 . S
N89 C93 1.343 . S
C90 C83 1.422 . S
C90 N89 1.359 . S
C90 C92 1.421 . S
C91 C92 1.422 . S
C91 C94 1.321 . S
C91 H118 0.931 . S
C92 C90 1.421 . S
C92 C91 1.422 . S
C92 C116 1.417 . S
C93 H70 0.931 . S
C93 N89 1.343 . S
C93 C94 1.390 . S
C94 H72 0.930 . S
C94 C91 1.321 . S
C94 C93 1.390 . S
O95 Gd63 2.386 . S
O95 C107 1.265 . S
O96 Gd62 2.353 1_645 S
O96 C107 1.242 . S
O97 Gd62 2.468 . S
O97 C115 1.263 . S
O98 Gd62 2.427 . S
O98 C115 1.252 . S
O99 Gd63 2.307 1_565 S
O99 C108 1.261 . S
O100 Gd62 2.388 1_655 S
O100 C108 1.252 . S
O101 Gd62 2.386 . S
O101 C119 1.265 . S
O102 Gd63 2.353 1_455 S
O102 C119 1.242 1_545 S
O103 Gd63 2.468 . S
O103 C127 1.263 . S
O104 Gd63 2.427 . S
O104 C127 1.252 . S
O105 Gd62 2.307 1_545 S
O105 C120 1.261 . S
O106 Gd63 2.388 1_455 S
O106 C120 1.252 . S
C107 O95 1.265 . S
C107 O96 1.242 . S
C108 O99 1.261 . S
C108 O100 1.252 . S
C109 C112 1.394 . S
C109 C114 1.370 . S
C109 C115 1.500 . S
C110 C113 1.383 . S
C110 C114 1.395 . S
C111 C112 1.396 . S
C111 C113 1.365 . S
C111 H128 0.929 . S
C112 C109 1.394 . S
C112 C111 1.396 . S
C112 H129 0.930 . S
C113 C110 1.383 . S
C113 C111 1.365 . S
C113 H130 0.931 . S
C114 C109 1.370 . S
C114 C110 1.395 . S
C114 H131 0.930 . S
C115 Gd62 2.805 . S
C115 O97 1.263 . S
C115 O98 1.252 . S
C115 C109 1.500 . S
C116 H78 0.930 . S
C116 C92 1.417 . S
C116 C117 1.329 . S
C117 C87 1.437 . S
C117 H88 0.929 . S
C117 C116 1.329 . S
H118 C91 0.931 . S
C119 O101 1.265 . S
C119 O102 1.242 1_565 S
C120 O105 1.261 . S
C120 O106 1.252 . S
C121 C124 1.394 . S
C121 C126 1.370 . S
C121 C127 1.500 . S
C122 C125 1.383 . S
C122 C126 1.395 . S
C123 C124 1.396 . S
C123 C125 1.365 . S
C123 H132 0.929 . S
C124 C121 1.394 . S
C124 C123 1.396 . S
C124 H133 0.930 . S
C125 C122 1.383 . S
C125 C123 1.365 . S
C125 H134 0.931 . S
C126 C121 1.370 . S
C126 C122 1.395 . S
C126 H135 0.930 . S
C127 Gd63 2.805 . S
C127 O103 1.263 . S
C127 O104 1.252 . S
C127 C121 1.500 . S
H128 C111 0.929 . S
H129 C112 0.930 . S
H130 C113 0.931 . S
H131 C114 0.930 . S
H132 C123 0.929 . S
H133 C124 0.930 . S
H134 C125 0.931 . S
H135 C126 0.930 . S
C136 C138 1.422 . S
C136 C140 1.415 . S
C136 N142 1.369 . S
C137 C138 1.421 . S
C137 C139 1.417 . S
C137 C149 1.422 . S
C138 C136 1.422 . S
C138 C137 1.421 . S
C138 N148 1.359 . S
C139 C137 1.417 . S
C139 C141 1.329 . S
C139 H158 0.930 . S
C140 C136 1.415 . S
C140 C141 1.437 . S
C140 C144 1.413 . S
C141 C139 1.329 . S
C141 C140 1.437 . S
C141 H163 0.929 . S
N142 C136 1.369 . S
N142 C143 1.338 . S
N142 Gd147 2.622 . S
C143 N142 1.338 . S
C143 C145 1.378 . S
C143 H155 0.929 . S
C144 C140 1.413 . S
C144 C145 1.348 . S
C144 H160 0.931 . S
C145 C143 1.378 . S
C145 C144 1.348 . S
C145 H161 0.930 . S
Gd146 N166 2.622 . S
Gd146 N173 2.570 . S
Gd146 O180 2.353 1_554 S
Gd146 O181 2.468 1_554 S
Gd146 O182 2.427 1_554 S
Gd146 O184 2.388 . S
Gd146 O185 2.386 . S
Gd146 O189 2.307 . S
Gd146 C199 2.805 1_554 S
Gd147 N142 2.622 . S
Gd147 N148 2.570 . S
Gd147 O179 2.386 . S
Gd147 O183 2.307 . S
Gd147 O186 2.353 . S
Gd147 O187 2.468 . S
Gd147 O188 2.427 . S
Gd147 O190 2.388 . S
Gd147 C211 2.805 . S
N148 C138 1.359 . S
N148 Gd147 2.570 . S
N148 C150 1.343 . S
C149 C137 1.422 . S
C149 C151 1.321 . S
C149 H157 0.931 . S
C150 N148 1.343 . S
C150 C151 1.390 . S
C150 H152 0.931 . S
C151 C149 1.321 . S
C151 C150 1.390 . S
C151 H153 0.930 . S
H152 C150 0.931 . S
H153 C151 0.930 . S
H154 C177 0.931 . S
H155 C143 0.929 . S
H156 C178 0.930 . S
H157 C149 0.931 . S
H158 C139 0.930 . S
H159 C168 0.929 . S
H160 C144 0.931 . S
H161 C145 0.930 . S
H162 C200 0.930 . S
H163 C141 0.929 . S
H164 C169 0.931 . S
H165 C170 0.930 . S
N166 Gd146 2.622 . S
N166 C167 1.369 . S
N166 C168 1.338 1_554 S
C167 N166 1.369 . S
C167 C171 1.415 . S
C167 C174 1.422 . S
C168 H159 0.929 . S
C168 N166 1.338 1_556 S
C168 C170 1.378 . S
C169 H164 0.931 . S
C169 C170 1.348 1_554 S
C169 C171 1.413 . S
C170 H165 0.930 . S
C170 C168 1.378 . S
C170 C169 1.348 1_556 S
C171 C167 1.415 . S
C171 C169 1.413 . S
C171 C201 1.437 . S
H172 C201 0.929 . S
N173 Gd146 2.570 . S
N173 C174 1.359 . S
N173 C177 1.343 . S
C174 C167 1.422 . S
C174 N173 1.359 . S
C174 C176 1.421 . S
C175 C176 1.422 . S
C175 C178 1.321 . S
C175 H202 0.931 . S
C176 C174 1.421 . S
C176 C175 1.422 . S
C176 C200 1.417 . S
C177 H154 0.931 . S
C177 N173 1.343 . S
C177 C178 1.390 . S
C178 H156 0.930 . S
C178 C175 1.321 . S
C178 C177 1.390 . S
O179 Gd147 2.386 . S
O179 C191 1.265 1_554 S
O180 Gd146 2.353 1_556 S
O180 C191 1.242 . S
O181 Gd146 2.468 1_556 S
O181 C199 1.263 . S
O182 Gd146 2.427 1_556 S
O182 C199 1.252 . S
O183 Gd147 2.307 . S
O183 C192 1.261 . S
O184 Gd146 2.388 . S
O184 C192 1.252 . S
O185 Gd146 2.386 . S
O185 C203 1.265 . S
O186 Gd147 2.353 . S
O186 C203 1.242 . S
O187 Gd147 2.468 . S
O187 C211 1.263 . S
O188 Gd147 2.427 . S
O188 C211 1.252 . S
O189 Gd146 2.307 . S
O189 C204 1.261 . S
O190 Gd147 2.388 . S
O190 C204 1.252 . S
C191 O179 1.265 1_556 S
C191 O180 1.242 . S
C192 O183 1.261 . S
C192 O184 1.252 . S
C193 C196 1.394 . S
C193 C198 1.370 . S
C193 C199 1.500 . S
C194 C197 1.383 . S
C194 C198 1.395 . S
C195 C196 1.396 . S
C195 C197 1.365 . S
C195 H212 0.929 . S
C196 C193 1.394 . S
C196 C195 1.396 . S
C196 H213 0.930 . S
C197 C194 1.383 . S
C197 C195 1.365 . S
C197 H214 0.931 . S
C198 C193 1.370 . S
C198 C194 1.395 . S
C198 H215 0.930 . S
C199 Gd146 2.805 1_556 S
C199 O181 1.263 . S
C199 O182 1.252 . S
C199 C193 1.500 . S
C200 H162 0.930 . S
C200 C176 1.417 . S
C200 C201 1.329 . S
C201 C171 1.437 . S
C201 H172 0.929 . S
C201 C200 1.329 . S
H202 C175 0.931 . S
C203 O185 1.265 . S
C203 O186 1.242 . S
C204 O189 1.261 . S
C204 O190 1.252 . S
C205 C208 1.394 . S
C205 C210 1.370 . S
C205 C211 1.500 . S
C206 C209 1.383 . S
C206 C210 1.395 . S
C207 C208 1.396 . S
C207 C209 1.365 . S
C207 H216 0.929 . S
C208 C205 1.394 . S
C208 C207 1.396 . S
C208 H217 0.930 . S
C209 C206 1.383 . S
C209 C207 1.365 . S
C209 H218 0.931 . S
C210 C205 1.370 . S
C210 C206 1.395 . S
C210 H219 0.930 . S
C211 Gd147 2.805 . S
C211 O187 1.263 . S
C211 O188 1.252 . S
C211 C205 1.500 . S
H212 C195 0.929 . S
H213 C196 0.930 . S
H214 C197 0.931 . S
H215 C198 0.930 . S
H216 C207 0.929 . S
H217 C208 0.930 . S
H218 C209 0.931 . S
H219 C210 0.930 . S
C220 C221 1.387 . S
C220 H224 0.950 . S
C220 C229 1.390 . S
C221 C220 1.387 . S
C221 C223 1.387 . S
H222 C229 0.950 . S
C223 C221 1.387 . S
C223 C225 1.390 . S
C223 H227 0.950 . S
H224 C220 0.950 . S
C225 C223 1.390 . S
C225 C226 1.387 . S
C225 H228 0.950 . S
C226 C225 1.387 . S
C226 C229 1.387 . S
H227 C223 0.950 . S
H228 C225 0.950 . S
C229 C220 1.390 . S
C229 H222 0.950 . S
C229 C226 1.387 . S
C230 C231 1.387 . S
C230 H234 0.950 . S
C230 C239 1.390 . S
C231 C230 1.387 . S
C231 C233 1.387 1_554 S
H232 C239 0.950 . S
C233 C231 1.387 1_556 S
C233 C235 1.390 . S
C233 H237 0.950 . S
H234 C230 0.950 . S
C235 C233 1.390 . S
C235 C236 1.387 1_556 S
C235 H238 0.950 . S
C236 C235 1.387 1_554 S
C236 C239 1.387 . S
H237 C233 0.950 . S
H238 C235 0.950 . S
C239 C230 1.390 . S
C239 H232 0.950 . S
C239 C236 1.387 . S
C240 C241 1.387 . S
C240 H244 0.950 . S
C240 C249 1.390 . S
C241 C240 1.387 . S
C241 C243 1.387 . S
H242 C249 0.950 . S
C243 C241 1.387 . S
C243 C245 1.390 . S
C243 H247 0.950 . S
H244 C240 0.950 . S
C245 C243 1.390 . S
C245 C246 1.387 . S
C245 H248 0.950 . S
C246 C245 1.387 . S
C246 C249 1.387 . S
H247 C243 0.950 . S
H248 C245 0.950 . S
C249 C240 1.390 . S
C249 H242 0.950 . S
C249 C246 1.387 . S
C250 C251 1.387 . S
C250 H254 0.950 1_554 S
C250 C259 1.390 . S
C251 C250 1.387 . S
C251 C253 1.387 . S
H252 C259 0.950 1_556 S
C253 C251 1.387 . S
C253 C255 1.390 . S
C253 H257 0.950 . S
H254 C250 0.950 1_556 S
C255 C253 1.390 . S
C255 C256 1.387 . S
C255 H258 0.950 . S
C256 C255 1.387 . S
C256 C259 1.387 . S
H257 C253 0.950 . S
H258 C255 0.950 . S
C259 C250 1.390 . S
C259 H252 0.950 1_554 S
C259 C256 1.387 . S
C260 C261 1.387 . S
C260 H264 0.950 . S
C260 C269 1.390 . S
C261 C260 1.387 . S
C261 C263 1.387 . S
H262 C269 0.950 . S
C263 C261 1.387 . S
C263 C265 1.390 . S
C263 H267 0.950 . S
H264 C260 0.950 . S
C265 C263 1.390 . S
C265 C266 1.387 . S
C265 H268 0.950 . S
C266 C265 1.387 . S
C266 C269 1.387 . S
H267 C263 0.950 . S
H268 C265 0.950 . S
C269 C260 1.390 . S
C269 H262 0.950 . S
C269 C266 1.387 . S
C270 C271 1.387 . S
C270 H274 0.950 . S
C270 C279 1.390 . S
C271 C270 1.387 . S
C271 C273 1.387 . S
H272 C279 0.950 . S
C273 C271 1.387 . S
C273 C275 1.390 . S
C273 H277 0.950 . S
H274 C270 0.950 . S
C275 C273 1.390 . S
C275 C276 1.387 . S
C275 H278 0.950 . S
C276 C275 1.387 . S
C276 C279 1.387 . S
H277 C273 0.950 . S
H278 C275 0.950 . S
C279 C270 1.390 . S
C279 H272 0.950 . S
C279 C276 1.387 . S
C280 C281 1.387 . S
C280 H284 0.950 . S
C280 C289 1.390 . S
C281 C280 1.387 . S
C281 C283 1.387 . S
H282 C289 0.950 . S
C283 C281 1.387 . S
C283 C285 1.390 . S
C283 H287 0.950 . S
H284 C280 0.950 . S
C285 C283 1.390 . S
C285 C286 1.387 . S
C285 H288 0.950 . S
C286 C285 1.387 . S
C286 C289 1.387 . S
H287 C283 0.950 . S
H288 C285 0.950 . S
C289 C280 1.390 . S
C289 H282 0.950 . S
C289 C286 1.387 . S
C290 C291 1.387 . S
C290 H294 0.950 . S
C290 C299 1.390 . S
C291 C290 1.387 . S
C291 C293 1.387 . S
H292 C299 0.950 . S
C293 C291 1.387 . S
C293 C295 1.390 . S
C293 H297 0.950 . S
H294 C290 0.950 . S
C295 C293 1.390 . S
C295 C296 1.387 . S
C295 H298 0.950 . S
C296 C295 1.387 . S
C296 C299 1.387 . S
H297 C293 0.950 . S
H298 C295 0.950 . S
C299 C290 1.390 . S
C299 H292 0.950 . S
C299 C296 1.387 . S
C300 C301 1.387 . S
C300 H304 0.950 . S
C300 C309 1.390 . S
C301 C300 1.387 . S
C301 C303 1.387 . S
H302 C309 0.950 . S
C303 C301 1.387 . S
C303 C305 1.390 . S
C303 H307 0.950 . S
H304 C300 0.950 . S
C305 C303 1.390 . S
C305 C306 1.387 . S
C305 H308 0.950 . S
C306 C305 1.387 . S
C306 C309 1.387 . S
H307 C303 0.950 . S
H308 C305 0.950 . S
C309 C300 1.390 . S
C309 H302 0.950 . S
C309 C306 1.387 . S
C310 C311 1.387 . S
C310 H314 0.950 . S
C310 C319 1.390 . S
C311 C310 1.387 . S
C311 C313 1.387 1_554 S
H312 C319 0.950 . S
C313 C311 1.387 1_556 S
C313 C315 1.390 . S
C313 H317 0.950 . S
H314 C310 0.950 . S
C315 C313 1.390 . S
C315 C316 1.387 . S
C315 H318 0.950 . S
C316 C315 1.387 . S
C316 C319 1.387 1_556 S
H317 C313 0.950 . S
H318 C315 0.950 . S
C319 C310 1.390 . S
C319 H312 0.950 . S
C319 C316 1.387 1_554 S
C320 C321 1.387 . S
C320 H324 0.950 . S
C320 C329 1.390 . S
C321 C320 1.387 . S
C321 C323 1.387 . S
H322 C329 0.950 . S
C323 C321 1.387 . S
C323 C325 1.390 . S
C323 H327 0.950 . S
H324 C320 0.950 . S
C325 C323 1.390 . S
C325 C326 1.387 . S
C325 H328 0.950 . S
C326 C325 1.387 . S
C326 C329 1.387 . S
H327 C323 0.950 . S
H328 C325 0.950 . S
C329 C320 1.390 . S
C329 H322 0.950 . S
C329 C326 1.387 . S
C330 C331 1.387 . S
C330 H334 0.950 . S
C330 C339 1.390 . S
C331 C330 1.387 . S
C331 C333 1.387 . S
H332 C339 0.950 . S
C333 C331 1.387 . S
C333 C335 1.390 . S
C333 H337 0.950 . S
H334 C330 0.950 . S
C335 C333 1.390 . S
C335 C336 1.387 . S
C335 H338 0.950 1_565 S
C336 C335 1.387 . S
C336 C339 1.387 . S
H337 C333 0.950 . S
H338 C335 0.950 1_545 S
C339 C330 1.390 . S
C339 H332 0.950 . S
C339 C336 1.387 . S
C226 C120 1.638 . S
C221 N41 1.669 . S
C231 N2 1.610 . S
C236 C192 1.602 . S
C241 N15 1.664 . S
C246 C108 1.638 . S
C251 N28 1.600 . S
C256 C204 1.602 . S
C266 C110 1.371 . S
C261 N5 1.591 . S
C276 C191 1.654 . S
C271 N14 1.646 . S
C281 N27 1.569 . S
C286 C107 1.610 . S
C291 N44 1.577 . S
C296 C194 1.406 . S
C306 C206 1.402 . S
C301 N18 1.577 . S
C316 C122 1.371 . S
C311 N31 1.591 . S
C326 C203 1.653 . S
C321 N40 1.657 . S
C331 N1 1.589 . S
C336 C119 1.610 . S
