# Generated by pormake.
# Topology zzz, (3,6)-cn, num edge types: 1
# Building blocks:
#     Node 0, Type 0, BuildingBlock: CUQRIR_clean_linker_1, # of connection points: 3
#     Node 1, Type 0, BuildingBlock: CUQRIR_clean_linker_1, # of connection points: 3
#     Node 2, Type 0, BuildingBlock: CUQRIR_clean_linker_1, # of connection points: 3
#     Node 3, Type 0, BuildingBlock: CUQRIR_clean_linker_1, # of connection points: 3
#     Node 4, Type 0, BuildingBlock: CUQRIR_clean_linker_1, # of connection points: 3
#     Node 5, Type 0, BuildingBlock: CUQRIR_clean_linker_1, # of connection points: 3
#     Node 6, Type 0, BuildingBlock: CUQRIR_clean_linker_1, # of connection points: 3
#     Node 7, Type 0, BuildingBlock: CUQRIR_clean_linker_1, # of connection points: 3
#     Node 8, Type 1, BuildingBlock: CUKXOW_clean_sbu_0, # of connection points: 6
#     Node 9, Type 1, BuildingBlock: CUKXOW_clean_sbu_0, # of connection points: 6
#     Node 10, Type 1, BuildingBlock: CUKXOW_clean_sbu_0, # of connection points: 6
#     Node 11, Type 1, BuildingBlock: CUKXOW_clean_sbu_0, # of connection points: 6
#     Edge 12, Type (0, 1), BuildingBlock: AJUNOK_clean_linker_0, # of connection points: 2
#     Edge 13, Type (0, 1), BuildingBlock: AJUNOK_clean_linker_0, # of connection points: 2
#     Edge 14, Type (0, 1), BuildingBlock: AJUNOK_clean_linker_0, # of connection points: 2
#     Edge 15, Type (0, 1), BuildingBlock: AJUNOK_clean_linker_0, # of connection points: 2
#     Edge 16, Type (0, 1), BuildingBlock: AJUNOK_clean_linker_0, # of connection points: 2
#     Edge 17, Type (0, 1), BuildingBlock: AJUNOK_clean_linker_0, # of connection points: 2
#     Edge 18, Type (0, 1), BuildingBlock: AJUNOK_clean_linker_0, # of connection points: 2
#     Edge 19, Type (0, 1), BuildingBlock: AJUNOK_clean_linker_0, # of connection points: 2
#     Edge 20, Type (0, 1), BuildingBlock: AJUNOK_clean_linker_0, # of connection points: 2
#     Edge 21, Type (0, 1), BuildingBlock: AJUNOK_clean_linker_0, # of connection points: 2
#     Edge 22, Type (0, 1), BuildingBlock: AJUNOK_clean_linker_0, # of connection points: 2
#     Edge 23, Type (0, 1), BuildingBlock: AJUNOK_clean_linker_0, # of connection points: 2
#     Edge 24, Type (0, 1), BuildingBlock: AJUNOK_clean_linker_0, # of connection points: 2
#     Edge 25, Type (0, 1), BuildingBlock: AJUNOK_clean_linker_0, # of connection points: 2
#     Edge 26, Type (0, 1), BuildingBlock: AJUNOK_clean_linker_0, # of connection points: 2
#     Edge 27, Type (0, 1), BuildingBlock: AJUNOK_clean_linker_0, # of connection points: 2
#     Edge 28, Type (0, 1), BuildingBlock: AJUNOK_clean_linker_0, # of connection points: 2
#     Edge 29, Type (0, 1), BuildingBlock: AJUNOK_clean_linker_0, # of connection points: 2
#     Edge 30, Type (0, 1), BuildingBlock: AJUNOK_clean_linker_0, # of connection points: 2
#     Edge 31, Type (0, 1), BuildingBlock: AJUNOK_clean_linker_0, # of connection points: 2
#     Edge 32, Type (0, 1), BuildingBlock: AJUNOK_clean_linker_0, # of connection points: 2
#     Edge 33, Type (0, 1), BuildingBlock: AJUNOK_clean_linker_0, # of connection points: 2
#     Edge 34, Type (0, 1), BuildingBlock: AJUNOK_clean_linker_0, # of connection points: 2
#     Edge 35, Type (0, 1), BuildingBlock: AJUNOK_clean_linker_0, # of connection points: 2
# Relax obj value: 0.059
# Max RMSD: 0.113
# Mean RMSD: 0.080
data_MOF--net-zzz--node1-CUKXOW_clean_sbu_0--node2-CUQRIR_clean_linker_1--edge1-AJUNOK_clean_linker_0
_symmetry_space_group_name_H-M    P1
_symmetry_Int_Tables_number       1
_symmetry_cell_setting            triclinic
loop_
_symmetry_equiv_pos_as_xyz
'x, y, z'
_cell_length_a     33.71447
_cell_length_b     35.911013
_cell_length_c     10.276502
_cell_angle_alpha  94.50573
_cell_angle_beta   85.431629
_cell_angle_gamma 93.788572
loop_
_atom_site_label
_atom_site_type_symbol
_atom_site_fract_x
_atom_site_fract_y
_atom_site_fract_z
_atom_type_partial_charge
C0 C 0.7444 0.51292 0.16346 0.0
N1 N 0.78426 0.51351 0.17143 0.0
N2 N 0.73568 0.51118 0.03629 0.0
C3 C 0.71435 0.5144 0.27931 0.0
C4 C 0.7717 0.51079 0.96781 0.0
N5 N 0.80114 0.51207 0.05016 0.0
C6 C 0.77777 0.50927 0.82072 0.0
H7 H 0.70881 0.4859 0.31397 0.0
H8 H 0.68576 0.52438 0.25324 0.0
H9 H 0.72613 0.53297 0.36068 0.0
H10 H 0.80897 0.50441 0.78446 0.0
H11 H 0.77012 0.53625 0.78659 0.0
H12 H 0.75741 0.48696 0.77729 0.0
C13 C 0.98063 0.75999 0.0695 0.0
N14 N 0.98539 0.79748 0.06341 0.0
N15 N 0.98888 0.74231 0.94981 0.0
C16 C 0.96744 0.74069 0.19144 0.0
C17 C 0.99943 0.77058 0.87127 0.0
N18 N 0.99747 0.80408 0.94082 0.0
C19 C 0.01377 0.76547 0.72919 0.0
H20 H 0.99415 0.73528 0.24192 0.0
H21 H 0.95114 0.71348 0.16714 0.0
H22 H 0.94822 0.75858 0.25927 0.0
H23 H 0.9879 0.76563 0.66897 0.0
H24 H 0.02778 0.73837 0.70715 0.0
H25 H 0.03535 0.78874 0.70161 0.0
C26 C 0.74599 0.99759 0.15539 0.0
N27 N 0.70647 0.00239 0.15513 0.0
N28 N 0.76391 0.99921 0.03276 0.0
C29 C 0.7674 0.99388 0.27594 0.0
C30 C 0.73387 0.0052 0.95845 0.0
N31 N 0.69905 0.00755 0.03308 0.0
C32 C 0.73907 0.00975 0.81359 0.0
H33 H 0.77134 0.02189 0.32869 0.0
H34 H 0.79713 0.98264 0.25049 0.0
H35 H 0.74954 0.97543 0.34297 0.0
H36 H 0.75614 0.98674 0.76341 0.0
H37 H 0.75657 0.03641 0.79635 0.0
H38 H 0.71006 0.00968 0.76971 0.0
C39 C 0.57681 0.75877 0.16893 0.0
N40 N 0.56842 0.72132 0.16003 0.0
N41 N 0.57107 0.77321 0.05454 0.0
C42 C 0.58886 0.78163 0.28953 0.0
C43 C 0.55833 0.7434 0.97678 0.0
N44 N 0.55668 0.71204 0.04099 0.0
C45 C 0.54313 0.74559 0.84408 0.0
H46 H 0.56222 0.79453 0.33978 0.0
H47 H 0.61082 0.80463 0.26213 0.0
H48 H 0.60167 0.76406 0.35782 0.0
H49 H 0.55516 0.77146 0.79888 0.0
H50 H 0.51012 0.74562 0.85487 0.0
H51 H 0.55133 0.72083 0.77845 0.0
C52 C 0.27249 0.51238 0.29001 0.0
N53 N 0.23257 0.50946 0.28144 0.0
N54 N 0.28113 0.51455 0.41728 0.0
C55 C 0.30273 0.51285 0.17476 0.0
C56 C 0.24505 0.513 0.48526 0.0
N57 N 0.21561 0.50995 0.40258 0.0
C58 C 0.23892 0.51486 0.63233 0.0
H59 H 0.33158 0.50323 0.19998 0.0
H60 H 0.30762 0.54191 0.14476 0.0
H61 H 0.2916 0.49496 0.0907 0.0
H62 H 0.25832 0.53805 0.6752 0.0
H63 H 0.24781 0.48844 0.66751 0.0
H64 H 0.20743 0.51866 0.66789 0.0
C65 C 0.03227 0.25967 0.37629 0.0
N66 N 0.02631 0.22214 0.38032 0.0
N67 N 0.0245 0.27703 0.49682 0.0
C68 C 0.04705 0.27936 0.25647 0.0
C69 C 0.01323 0.24859 0.57391 0.0
N70 N 0.01428 0.2153 0.50273 0.0
C71 C 0.99898 0.25336 0.71616 0.0
H72 H 0.0636 0.26042 0.18412 0.0
H73 H 0.06653 0.30445 0.28347 0.0
H74 H 0.02116 0.28879 0.21038 0.0
H75 H 0.98594 0.28086 0.74002 0.0
H76 H 0.02465 0.25194 0.77636 0.0
H77 H 0.97657 0.23057 0.74199 0.0
C78 C 0.26608 0.01221 0.26903 0.0
N79 N 0.30591 0.00827 0.26637 0.0
N80 N 0.24954 0.01341 0.39381 0.0
C81 C 0.243 0.01389 0.15066 0.0
C82 C 0.2805 0.00976 0.46689 0.0
N83 N 0.31477 0.00642 0.38973 0.0
C84 C 0.27698 0.00857 0.61362 0.0
H85 H 0.23581 0.04329 0.14253 0.0
H86 H 0.2144 0.99691 0.16141 0.0
H87 H 0.26024 0.00381 0.05971 0.0
H88 H 0.26849 0.97946 0.63848 0.0
H89 H 0.2535 0.02655 0.65955 0.0
H90 H 0.30564 0.01771 0.65575 0.0
C91 C 0.45388 0.26599 0.27134 0.0
N92 N 0.46393 0.30314 0.27646 0.0
N93 N 0.46123 0.2518 0.38494 0.0
C94 C 0.4363 0.24381 0.15767 0.0
C95 C 0.47698 0.2814 0.45739 0.0
N96 N 0.47857 0.31241 0.39129 0.0
C97 C 0.49299 0.27982 0.58928 0.0
H98 H 0.41978 0.2619 0.10087 0.0
H99 H 0.41617 0.22029 0.19205 0.0
H100 H 0.46078 0.23194 0.09201 0.0
H101 H 0.50383 0.25186 0.60083 0.0
H102 H 0.46886 0.28554 0.66676 0.0
H103 H 0.51765 0.30145 0.60305 0.0
Tb104 Tb 0.99432 0.98603 0.59912 0.0
C105 C 0.08682 0.01145 0.61813 0.0
Tb106 Tb 0.02097 0.03325 0.84331 0.0
O107 O 0.97232 0.03511 0.5179 0.0
O108 O 0.0178 0.04096 0.64378 0.0
O109 O 0.05963 0.98854 0.56089 0.0
C110 C 0.02619 0.09448 0.0074 0.0
O111 O 0.07744 0.03457 0.72213 0.0
C112 C 0.02069 0.96032 0.85436 0.0
C113 C 0.9284 0.00759 0.82424 0.0
O114 O 0.04742 0.06552 0.00931 0.0
O115 O 1.00194 0.08835 0.91551 0.0
O116 O 0.04266 0.98396 0.92495 0.0
O117 O 0.99739 0.97851 0.79857 0.0
O118 O 0.95569 0.0301 0.8826 0.0
O119 O 0.93781 0.9847 0.71973 0.0
C120 C 0.98712 0.92563 0.4323 0.0
O121 O 0.96685 0.95526 0.43274 0.0
O122 O 0.0117 0.93053 0.52364 0.0
C123 C 0.99417 0.05888 0.58812 0.0
Tb124 Tb 0.4997 0.04894 0.6766 0.0
C125 C 0.57433 0.00688 0.5466 0.0
Tb126 Tb 0.51412 0.97069 0.75945 0.0
O127 O 0.54948 0.07559 0.78028 0.0
O128 O 0.52125 0.02645 0.84043 0.0
O129 O 0.54864 0.0328 0.53515 0.0
C130 C 0.5374 0.91267 0.87483 0.0
O131 O 0.56842 0.98162 0.63483 0.0
C132 C 0.46369 0.97059 0.57547 0.0
C133 C 0.4393 0.01073 0.88026 0.0
O134 O 0.5012 0.92256 0.87552 0.0
O135 O 0.56083 0.93505 0.80627 0.0
O136 O 0.46596 0.94304 0.64835 0.0
O137 O 0.49298 0.9932 0.59568 0.0
O138 O 0.46891 0.99064 0.9068 0.0
O139 O 0.44277 0.03222 0.78008 0.0
C140 C 0.47627 0.10891 0.57295 0.0
O141 O 0.46467 0.09869 0.68894 0.0
O142 O 0.50097 0.08554 0.51681 0.0
C143 C 0.55142 0.04847 0.85504 0.0
Tb144 Tb 0.52768 0.53793 0.61413 0.0
C145 C 0.43252 0.52197 0.64704 0.0
Tb146 Tb 0.4896 0.48969 0.83622 0.0
O147 O 0.54466 0.48776 0.49037 0.0
O148 O 0.49679 0.4858 0.6305 0.0
O149 O 0.46346 0.54218 0.59422 0.0
C150 C 0.47391 0.42688 0.95757 0.0
O151 O 0.43651 0.49746 0.7352 0.0
C152 C 0.49983 0.56168 0.89681 0.0
C153 C 0.58463 0.50622 0.80526 0.0
O154 O 0.45657 0.45807 0.98887 0.0
O155 O 0.50007 0.43152 0.85995 0.0
O156 O 0.4741 0.54027 0.96277 0.0
O157 O 0.52043 0.54125 0.81835 0.0
O158 O 0.55372 0.48569 0.85617 0.0
O159 O 0.58052 0.53119 0.71865 0.0
C160 C 0.54677 0.5995 0.48887 0.0
O161 O 0.56134 0.56706 0.45722 0.0
O162 O 0.52121 0.59691 0.58938 0.0
C163 C 0.51847 0.46596 0.55269 0.0
Tb164 Tb 0.97461 0.50986 0.63069 0.0
C165 C 0.01757 0.43564 0.64162 0.0
Tb166 Tb 0.04195 0.50968 0.82057 0.0
O167 O 0.01872 0.50319 0.46186 0.0
O168 O 0.03418 0.53042 0.63889 0.0
O169 O 0.98463 0.45061 0.61295 0.0
C170 C 0.11165 0.50717 0.92584 0.0
O171 O 0.04578 0.45509 0.70682 0.0
C172 C 0.96882 0.50114 0.92386 0.0
C173 C 0.99832 0.58365 0.81076 0.0
O174 O 0.08036 0.48484 0.94816 0.0
O175 O 0.10365 0.5311 0.84477 0.0
O176 O 0.99785 0.51655 0.98939 0.0
O177 O 0.98239 0.48928 0.8126 0.0
O178 O 0.03148 0.56895 0.83889 0.0
O179 O 0.97014 0.56394 0.74647 0.0
C180 C 0.90515 0.51353 0.52536 0.0
O181 O 0.93607 0.53666 0.50888 0.0
O182 O 0.9135 0.48792 0.59948 0.0
C183 C 0.04769 0.51862 0.52754 0.0
C184 C 0.1822 0.98259 0.4232 0.0
C185 C 0.20815 0.01452 0.43975 0.0
C186 C 0.14284 0.982 0.47986 0.0
C187 C 0.12835 0.01314 0.55702 0.0
H188 H 0.19279 0.95772 0.36851 0.0
H189 H 0.12397 0.95663 0.46568 0.0
S190 S 0.18474 0.10427 0.62203 0.0
N191 N 0.21668 0.07844 0.53115 0.0
N192 N 0.14325 0.07748 0.64088 0.0
C193 C 0.15413 0.04548 0.57191 0.0
C194 C 0.19389 0.04613 0.51236 0.0
C195 C 0.48166 0.18742 0.3478 0.0
C196 C 0.4578 0.21368 0.41832 0.0
C197 C 0.48586 0.15264 0.39599 0.0
C198 C 0.46643 0.14324 0.51647 0.0
H199 H 0.49903 0.19479 0.25929 0.0
H200 H 0.50596 0.13376 0.34144 0.0
S201 S 0.39632 0.20094 0.72821 0.0
N202 N 0.41117 0.22695 0.60571 0.0
N203 N 0.41927 0.16158 0.69809 0.0
C204 C 0.44036 0.16837 0.58327 0.0
C205 C 0.43598 0.20366 0.53357 0.0
C206 C 0.32992 0.48811 0.54351 0.0
C207 C 0.31941 0.51687 0.47072 0.0
C208 C 0.36609 0.49056 0.60262 0.0
C209 C 0.39333 0.52185 0.5904 0.0
H210 H 0.30995 0.46348 0.55426 0.0
H211 H 0.37291 0.46733 0.65636 0.0
S212 S 0.37794 0.60575 0.41572 0.0
N213 N 0.33745 0.57819 0.39386 0.0
N214 N 0.40612 0.58295 0.50292 0.0
C215 C 0.38285 0.551 0.51814 0.0
C216 C 0.34576 0.54846 0.45866 0.0
C217 C 0.99913 0.33864 0.47234 0.0
C218 C 0.02449 0.3167 0.53138 0.0
C219 C 0.99771 0.3771 0.50717 0.0
C220 C 0.02188 0.39523 0.60185 0.0
H221 H 0.97974 0.32573 0.40036 0.0
H222 H 0.97724 0.39265 0.4597 0.0
S223 S 0.0946 0.34966 0.7812 0.0
N224 N 0.07506 0.31532 0.68537 0.0
N225 N 0.07276 0.38768 0.75188 0.0
C226 C 0.04805 0.37347 0.65968 0.0
C227 C 0.04918 0.33419 0.62446 0.0
C228 C 0.82089 0.97197 0.90259 0.0
C229 C 0.80576 0.00018 0.99133 0.0
C230 C 0.86059 0.97452 0.84977 0.0
C231 C 0.8867 0.00542 0.8842 0.0
H232 H 0.80159 0.94807 0.87242 0.0
H233 H 0.87075 0.95208 0.78111 0.0
S234 S 0.86081 0.08668 0.11479 0.0
N235 N 0.8192 0.05971 0.11226 0.0
N236 N 0.89402 0.0647 0.01536 0.0
C237 C 0.87188 0.0335 0.97548 0.0
C238 C 0.83137 0.03084 0.02848 0.0
C239 C 0.52734 0.82448 0.05293 0.0
C240 C 0.56572 0.81138 0.03378 0.0
C241 C 0.51898 0.85828 0.00565 0.0
C242 C 0.54881 0.87993 0.93735 0.0
H243 H 0.50329 0.80735 0.09843 0.0
H244 H 0.48854 0.86668 0.0181 0.0
S245 S 0.65516 0.85905 0.87508 0.0
N246 N 0.6344 0.8231 0.95198 0.0
N247 N 0.61912 0.88741 0.86368 0.0
C248 C 0.58795 0.86813 0.92475 0.0
C249 C 0.59631 0.83353 0.97282 0.0
C250 C 0.68823 0.53788 0.90522 0.0
C251 C 0.69737 0.50975 0.98321 0.0
C252 C 0.65215 0.53596 0.84566 0.0
C253 C 0.62364 0.50587 0.8627 0.0
H254 H 0.70918 0.56163 0.89076 0.0
H255 H 0.6464 0.55868 0.78772 0.0
S256 S 0.63438 0.42452 0.05672 0.0
N257 N 0.67618 0.45061 0.07277 0.0
N258 N 0.60774 0.4469 0.96325 0.0
C259 C 0.6326 0.47747 0.94113 0.0
C260 C 0.66958 0.47947 0.00101 0.0
C261 C 0.01594 0.68145 0.97523 0.0
C262 C 0.98968 0.70262 0.91682 0.0
C263 C 0.018 0.64295 0.94176 0.0
C264 C 0.99355 0.62406 0.84934 0.0
H265 H 0.03546 0.69498 0.0457 0.0
H266 H 0.03914 0.62798 0.98849 0.0
S267 S 0.91854 0.66751 0.67275 0.0
N268 N 0.93803 0.70248 0.76596 0.0
N269 N 0.94143 0.6301 0.7022 0.0
C270 C 0.96651 0.64508 0.79224 0.0
C271 C 0.96475 0.68437 0.82596 0.0
C272 C 0.97387 0.15557 0.49294 0.0
C273 C 0.00482 0.17845 0.54662 0.0
C274 C 0.96987 0.11707 0.51038 0.0
C275 C 0.99701 0.10012 0.58085 0.0
H276 H 0.9538 0.16736 0.43225 0.0
H277 H 0.94616 0.10031 0.46468 0.0
S278 S 0.0829 0.14889 0.74194 0.0
N279 N 0.06197 0.18235 0.67568 0.0
N280 N 0.05578 0.11001 0.70583 0.0
C281 C 0.02745 0.1232 0.63795 0.0
C282 C 0.03093 0.16241 0.62184 0.0
C283 C 0.35503 0.96674 0.5056 0.0
C284 C 0.35277 0.99773 0.43171 0.0
C285 C 0.39128 0.95773 0.54888 0.0
C286 C 0.42689 0.97874 0.5166 0.0
H287 H 0.32844 0.94941 0.53059 0.0
H288 H 0.39121 0.93439 0.6096 0.0
S289 S 0.43796 0.05839 0.30542 0.0
N290 N 0.38945 0.04843 0.32311 0.0
N291 N 0.45843 0.02813 0.38887 0.0
C292 C 0.42547 0.00824 0.43549 0.0
C293 C 0.3882 0.01859 0.39689 0.0
C294 C 0.52455 0.36851 0.38403 0.0
C295 C 0.49027 0.34966 0.4392 0.0
C296 C 0.53405 0.40615 0.42306 0.0
C297 C 0.50905 0.42594 0.51652 0.0
H298 H 0.54367 0.3541 0.3095 0.0
H299 H 0.56069 0.41994 0.37842 0.0
S300 S 0.41402 0.38838 0.68041 0.0
N301 N 0.43102 0.35259 0.58685 0.0
N302 N 0.44719 0.42356 0.65694 0.0
C303 C 0.47434 0.407 0.57044 0.0
C304 C 0.46539 0.3687 0.53264 0.0
C305 C 0.14712 0.48123 0.40818 0.0
C306 C 0.17364 0.51211 0.43619 0.0
C307 C 0.10586 0.48389 0.43243 0.0
C308 C 0.09034 0.51716 0.4895 0.0
H309 H 0.15842 0.45491 0.36805 0.0
H310 H 0.08617 0.45949 0.41072 0.0
S311 S 0.14761 0.60555 0.58224 0.0
N312 N 0.1818 0.57688 0.52043 0.0
N313 N 0.10434 0.58133 0.57462 0.0
C314 C 0.11665 0.54797 0.5198 0.0
C315 C 0.15838 0.54557 0.49125 0.0
C316 C 0.03891 0.8632 0.95062 0.0
C317 C 0.00768 0.84079 0.89655 0.0
C318 C 0.04371 0.90167 0.93298 0.0
C319 C 0.01707 0.91909 0.8621 0.0
H320 H 0.05863 0.85107 0.01163 0.0
H321 H 0.06764 0.91805 0.97884 0.0
S322 S 0.93019 0.87187 0.70195 0.0
N323 N 0.95067 0.8379 0.767 0.0
N324 N 0.95807 0.91026 0.73787 0.0
C325 C 0.98626 0.8965 0.80492 0.0
C326 C 0.98209 0.85728 0.82063 0.0
C327 C 0.62674 0.99561 0.01137 0.0
C328 C 0.66179 0.01866 0.99388 0.0
C329 C 0.59039 0.00634 0.97272 0.0
C330 C 0.5883 0.03991 0.91244 0.0
H331 H 0.62764 0.96905 0.05389 0.0
H332 H 0.56393 0.98804 0.98824 0.0
S333 S 0.6709 0.11232 0.8641 0.0
N334 N 0.69132 0.07843 0.92978 0.0
N335 N 0.62378 0.09792 0.85045 0.0
C336 C 0.62289 0.06395 0.90075 0.0
C337 C 0.65951 0.05338 0.9426 0.0
C338 C 0.56153 0.65337 0.90473 0.0
C339 C 0.53984 0.67597 0.99751 0.0
C340 C 0.54769 0.61664 0.87151 0.0
C341 C 0.51163 0.60132 0.93005 0.0
H342 H 0.58992 0.66391 0.86087 0.0
H343 H 0.56604 0.59997 0.80148 0.0
S344 S 0.44293 0.65096 0.1732 0.0
N345 N 0.48005 0.68217 0.14277 0.0
N346 N 0.4538 0.61252 0.08162 0.0
C347 C 0.48917 0.62418 0.02088 0.0
C348 C 0.50334 0.66173 0.0542 0.0
C349 C 0.87026 0.53896 0.05156 0.0
C350 C 0.84304 0.50926 0.01643 0.0
C351 C 0.91139 0.53571 0.0263 0.0
C352 C 0.92617 0.50302 0.96168 0.0
H353 H 0.85962 0.5649 0.09766 0.0
H354 H 0.93159 0.55927 0.05341 0.0
S355 S 0.86704 0.41733 0.85168 0.0
N356 N 0.83351 0.44591 0.91929 0.0
N357 N 0.91078 0.44043 0.86389 0.0
C358 C 0.89921 0.47329 0.92527 0.0
C359 C 0.85756 0.47626 0.95447 0.0
C360 C 0.05641 0.16482 0.28214 0.0
C361 C 0.0307 0.1937 0.27421 0.0
C362 C 0.05549 0.13301 0.19373 0.0
C363 C 0.02891 0.12923 0.09422 0.0
H364 H 0.07623 0.1663 0.36051 0.0
H365 H 0.07495 0.11088 0.20557 0.0
S366 S 0.95734 0.19849 0.02787 0.0
N367 N 0.97919 0.21737 0.15756 0.0
N368 N 0.97799 0.15832 0.98824 0.0
C369 C 0.00437 0.15884 0.08185 0.0
C370 C 0.0052 0.19098 0.17251 0.0
C371 C 0.35888 0.97624 0.13031 0.0
C372 C 0.33426 0.00649 0.15327 0.0
C373 C 0.39222 0.97761 0.03964 0.0
C374 C 0.40181 0.00902 0.96659 0.0
H375 H 0.35336 0.95216 0.18773 0.0
H376 H 0.41108 0.95412 0.02878 0.0
S377 S 0.34484 0.09446 0.98449 0.0
N378 N 0.32047 0.068 0.09259 0.0
N379 N 0.38222 0.07017 0.91818 0.0
C380 C 0.3759 0.0385 0.98292 0.0
C381 C 0.34225 0.03726 0.07684 0.0
C382 C 0.43584 0.35956 0.21096 0.0
C383 C 0.46012 0.32929 0.18008 0.0
C384 C 0.43924 0.39057 0.13523 0.0
C385 C 0.46702 0.39214 0.02605 0.0
H386 H 0.41571 0.36004 0.29851 0.0
H387 H 0.4212 0.41404 0.16558 0.0
S388 S 0.53514 0.31825 0.8997 0.0
N389 N 0.51097 0.30157 0.03086 0.0
N390 N 0.51706 0.35925 0.88525 0.0
C391 C 0.4897 0.36089 0.98977 0.0
C392 C 0.48628 0.32952 0.06759 0.0
C393 C 0.19141 0.4745 0.12136 0.0
C394 C 0.21075 0.50832 0.16639 0.0
C395 C 0.16031 0.47415 0.03826 0.0
C396 C 0.14858 0.50754 0.9942 0.0
H397 H 0.19841 0.44855 0.15879 0.0
H398 H 0.14436 0.44775 0.01242 0.0
S399 S 0.19356 0.60286 0.07233 0.0
N400 N 0.21828 0.57548 0.15478 0.0
N401 N 0.16141 0.57494 0.99192 0.0
C402 C 0.17017 0.54117 0.02948 0.0
C403 C 0.20101 0.54153 0.11718 0.0
C404 C 0.00728 0.83007 0.26689 0.0
C405 C 0.98049 0.82608 0.16852 0.0
C406 C 0.00845 0.86211 0.354 0.0
C407 C 0.98309 0.89128 0.34445 0.0
H408 H 0.02868 0.80914 0.27207 0.0
H409 H 0.03024 0.86451 0.42666 0.0
S410 S 0.90493 0.892 0.11058 0.0
N411 N 0.92566 0.85173 0.0734 0.0
N412 N 0.92856 0.9127 0.234 0.0
C413 C 0.95496 0.88672 0.24991 0.0
C414 C 0.95346 0.85386 0.16271 0.0
C415 C 0.65871 0.0374 0.30301 0.0
C416 C 0.67723 0.00397 0.26512 0.0
C417 C 0.62581 0.03819 0.39561 0.0
C418 C 0.61043 0.00554 0.45408 0.0
H419 H 0.66909 0.0628 0.25745 0.0
H420 H 0.6121 0.06451 0.42047 0.0
S421 S 0.6482 0.91065 0.38338 0.0
N422 N 0.67777 0.93749 0.28903 0.0
N423 N 0.61658 0.93868 0.46569 0.0
C424 C 0.62942 0.97203 0.41846 0.0
C425 C 0.66266 0.97132 0.32324 0.0
C426 C 0.59085 0.66333 0.23231 0.0
C427 C 0.56879 0.69523 0.259 0.0
C428 C 0.58459 0.63288 0.31017 0.0
C429 C 0.55604 0.63346 0.41754 0.0
H430 H 0.61159 0.66125 0.14636 0.0
H431 H 0.60118 0.60826 0.28313 0.0
S432 S 0.49203 0.71153 0.53183 0.0
N433 N 0.51849 0.72635 0.40168 0.0
N434 N 0.50711 0.6696 0.55104 0.0
C435 C 0.53527 0.66609 0.44932 0.0
C436 C 0.54161 0.69697 0.36939 0.0
C437 C 0.81942 0.47993 0.3219 0.0
C438 C 0.80597 0.51361 0.28625 0.0
C439 C 0.84977 0.48003 0.40801 0.0
C440 C 0.86837 0.51388 0.45699 0.0
H441 H 0.80808 0.45356 0.27643 0.0
H442 H 0.86064 0.45355 0.42862 0.0
S443 S 0.84074 0.60931 0.40286 0.0
N444 N 0.8102 0.58125 0.31649 0.0
N445 N 0.86871 0.58176 0.47301 0.0
C446 C 0.85355 0.54763 0.4277 0.0
C447 C 0.82185 0.5474 0.34368 0.0
loop_
_geom_bond_atom_site_label_1
_geom_bond_atom_site_label_2
_geom_bond_distance
_geom_bond_site_symmetry_2
_ccdc_geom_bond_type
C0 N1 1.317 . S
C0 N2 1.348 . S
C0 C3 1.485 . S
N1 C0 1.317 . S
N1 N5 1.370 . S
N2 C0 1.348 . S
N2 C4 1.346 1_554 S
C3 C0 1.485 . S
C3 H7 0.960 . S
C3 H8 0.961 . S
C3 H9 0.960 . S
C4 N2 1.346 1_556 S
C4 N5 1.307 1_556 S
C4 C6 1.486 . S
N5 N1 1.370 . S
N5 C4 1.307 1_554 S
C6 C4 1.486 . S
C6 H10 0.960 . S
C6 H11 0.960 . S
C6 H12 0.959 . S
H7 C3 0.960 . S
H8 C3 0.961 . S
H9 C3 0.960 . S
H10 C6 0.960 . S
H11 C6 0.960 . S
H12 C6 0.959 . S
C13 N14 1.317 . S
C13 N15 1.348 1_554 S
C13 C16 1.485 . S
N14 C13 1.317 . S
N14 N18 1.370 1_554 S
N15 C13 1.348 1_556 S
N15 C17 1.346 . S
C16 C13 1.485 . S
C16 H20 0.960 . S
C16 H21 0.961 . S
C16 H22 0.960 . S
C17 N15 1.346 . S
C17 N18 1.307 . S
C17 C19 1.486 . S
N18 N14 1.370 1_556 S
N18 C17 1.307 . S
C19 C17 1.486 . S
C19 H23 0.960 . S
C19 H24 0.960 . S
C19 H25 0.959 . S
H20 C16 0.960 . S
H21 C16 0.961 . S
H22 C16 0.960 . S
H23 C19 0.960 . S
H24 C19 0.960 . S
H25 C19 0.959 . S
C26 N27 1.317 . S
C26 N28 1.348 . S
C26 C29 1.485 . S
N27 C26 1.317 . S
N27 N31 1.370 . S
N28 C26 1.348 . S
N28 C30 1.346 1_554 S
C29 C26 1.485 . S
C29 H33 0.960 . S
C29 H34 0.961 . S
C29 H35 0.960 . S
C30 N28 1.346 1_556 S
C30 N31 1.307 1_556 S
C30 C32 1.486 . S
N31 N27 1.370 . S
N31 C30 1.307 1_554 S
C32 C30 1.486 . S
C32 H36 0.960 . S
C32 H37 0.960 . S
C32 H38 0.959 . S
H33 C29 0.960 . S
H34 C29 0.961 . S
H35 C29 0.960 . S
H36 C32 0.960 . S
H37 C32 0.960 . S
H38 C32 0.959 . S
C39 N40 1.317 . S
C39 N41 1.348 . S
C39 C42 1.485 . S
N40 C39 1.317 . S
N40 N44 1.370 . S
N41 C39 1.348 . S
N41 C43 1.346 1_554 S
C42 C39 1.485 . S
C42 H46 0.960 . S
C42 H47 0.961 . S
C42 H48 0.960 . S
C43 N41 1.346 1_556 S
C43 N44 1.307 1_556 S
C43 C45 1.486 . S
N44 N40 1.370 . S
N44 C43 1.307 1_554 S
C45 C43 1.486 . S
C45 H49 0.960 . S
C45 H50 0.960 . S
C45 H51 0.959 . S
H46 C42 0.960 . S
H47 C42 0.961 . S
H48 C42 0.960 . S
H49 C45 0.960 . S
H50 C45 0.960 . S
H51 C45 0.959 . S
C52 N53 1.317 . S
C52 N54 1.348 . S
C52 C55 1.485 . S
N53 C52 1.317 . S
N53 N57 1.370 . S
N54 C52 1.348 . S
N54 C56 1.346 . S
C55 C52 1.485 . S
C55 H59 0.960 . S
C55 H60 0.961 . S
C55 H61 0.960 . S
C56 N54 1.346 . S
C56 N57 1.307 . S
C56 C58 1.486 . S
N57 N53 1.370 . S
N57 C56 1.307 . S
C58 C56 1.486 . S
C58 H62 0.960 . S
C58 H63 0.960 . S
C58 H64 0.959 . S
H59 C55 0.960 . S
H60 C55 0.961 . S
H61 C55 0.960 . S
H62 C58 0.960 . S
H63 C58 0.960 . S
H64 C58 0.959 . S
C65 N66 1.317 . S
C65 N67 1.348 . S
C65 C68 1.485 . S
N66 C65 1.317 . S
N66 N70 1.370 . S
N67 C65 1.348 . S
N67 C69 1.346 . S
C68 C65 1.485 . S
C68 H72 0.960 . S
C68 H73 0.961 . S
C68 H74 0.960 . S
C69 N67 1.346 . S
C69 N70 1.307 . S
C69 C71 1.486 . S
N70 N66 1.370 . S
N70 C69 1.307 . S
C71 C69 1.486 . S
C71 H75 0.960 . S
C71 H76 0.960 . S
C71 H77 0.959 . S
H72 C68 0.960 . S
H73 C68 0.961 . S
H74 C68 0.960 . S
H75 C71 0.960 . S
H76 C71 0.960 . S
H77 C71 0.959 . S
C78 N79 1.317 . S
C78 N80 1.348 . S
C78 C81 1.485 . S
N79 C78 1.317 . S
N79 N83 1.370 . S
N80 C78 1.348 . S
N80 C82 1.346 . S
C81 C78 1.485 . S
C81 H85 0.960 . S
C81 H86 0.961 . S
C81 H87 0.960 . S
C82 N80 1.346 . S
C82 N83 1.307 . S
C82 C84 1.486 . S
N83 N79 1.370 . S
N83 C82 1.307 . S
C84 C82 1.486 . S
C84 H88 0.960 . S
C84 H89 0.960 . S
C84 H90 0.959 . S
H85 C81 0.960 . S
H86 C81 0.961 . S
H87 C81 0.960 . S
H88 C84 0.960 . S
H89 C84 0.960 . S
H90 C84 0.959 . S
C91 N92 1.317 . S
C91 N93 1.348 . S
C91 C94 1.485 . S
N92 C91 1.317 . S
N92 N96 1.370 . S
N93 C91 1.348 . S
N93 C95 1.346 . S
C94 C91 1.485 . S
C94 H98 0.960 . S
C94 H99 0.961 . S
C94 H100 0.960 . S
C95 N93 1.346 . S
C95 N96 1.307 . S
C95 C97 1.486 . S
N96 N92 1.370 . S
N96 C95 1.307 . S
C97 C95 1.486 . S
C97 H101 0.960 . S
C97 H102 0.960 . S
C97 H103 0.959 . S
H98 C94 0.960 . S
H99 C94 0.961 . S
H100 C94 0.960 . S
H101 C97 0.960 . S
H102 C97 0.960 . S
H103 C97 0.959 . S
Tb104 O107 2.453 1_565 S
Tb104 O108 2.596 1_665 S
Tb104 O109 2.374 1_665 S
Tb104 O117 2.344 1_655 S
Tb104 O119 2.353 1_565 S
Tb104 O121 2.427 . S
Tb104 O122 2.513 1_655 S
C105 O109 1.251 . S
C105 O111 1.263 . S
Tb106 O108 2.343 . S
Tb106 O111 2.353 . S
Tb106 O114 2.427 . S
Tb106 O115 2.513 1_455 S
Tb106 O116 2.453 1_545 S
Tb106 O117 2.595 1_545 S
Tb106 O118 2.374 1_455 S
O107 Tb104 2.453 1_545 S
O107 C123 1.245 1_655 S
O108 Tb104 2.596 1_445 S
O108 Tb106 2.343 . S
O108 C123 1.259 . S
O109 Tb104 2.374 1_445 S
O109 C105 1.251 . S
C110 O114 1.275 1_554 S
C110 O115 1.246 1_454 S
O111 C105 1.263 . S
O111 Tb106 2.353 . S
C112 O116 1.245 . S
C112 O117 1.259 . S
C113 O118 1.250 . S
C113 O119 1.263 . S
O114 Tb106 2.427 . S
O114 C110 1.275 1_556 S
O115 Tb106 2.513 1_655 S
O115 C110 1.246 1_656 S
O116 Tb106 2.453 1_565 S
O116 C112 1.245 . S
O117 Tb104 2.344 1_455 S
O117 Tb106 2.595 1_565 S
O117 C112 1.259 . S
O118 Tb106 2.374 1_655 S
O118 C113 1.250 . S
O119 Tb104 2.353 1_545 S
O119 C113 1.263 . S
C120 O121 1.275 . S
C120 O122 1.246 1_655 S
O121 Tb104 2.427 . S
O121 C120 1.275 . S
O122 Tb104 2.513 1_455 S
O122 C120 1.246 1_455 S
C123 O107 1.245 1_455 S
C123 O108 1.259 . S
Tb124 O127 2.453 . S
Tb124 O128 2.596 1_545 S
Tb124 O129 2.374 . S
Tb124 O137 2.343 . S
Tb124 O139 2.353 . S
Tb124 O141 2.427 . S
Tb124 O142 2.513 . S
C125 O129 1.247 1_565 S
C125 O131 1.266 . S
Tb126 O128 2.343 . S
Tb126 O131 2.353 . S
Tb126 O134 2.427 . S
Tb126 O135 2.513 . S
Tb126 O136 2.453 . S
Tb126 O137 2.596 1_565 S
Tb126 O138 2.374 . S
O127 Tb124 2.453 . S
O127 C143 1.245 . S
O128 Tb124 2.596 1_565 S
O128 Tb126 2.343 . S
O128 C143 1.259 1_565 S
O129 Tb124 2.374 . S
O129 C125 1.247 1_545 S
C130 O134 1.275 . S
C130 O135 1.246 . S
O131 C125 1.266 . S
O131 Tb126 2.353 . S
C132 O136 1.245 1_545 S
C132 O137 1.259 . S
C133 O138 1.250 1_545 S
C133 O139 1.263 . S
O134 Tb126 2.427 . S
O134 C130 1.275 . S
O135 Tb126 2.513 . S
O135 C130 1.246 . S
O136 Tb126 2.453 . S
O136 C132 1.245 1_565 S
O137 Tb124 2.343 . S
O137 Tb126 2.596 1_545 S
O137 C132 1.259 . S
O138 Tb126 2.374 . S
O138 C133 1.250 1_565 S
O139 Tb124 2.353 . S
O139 C133 1.263 . S
C140 O141 1.275 . S
C140 O142 1.246 . S
O141 Tb124 2.427 . S
O141 C140 1.275 . S
O142 Tb124 2.513 . S
O142 C140 1.246 . S
C143 O127 1.245 . S
C143 O128 1.259 1_545 S
Tb144 O147 2.453 . S
Tb144 O148 2.596 . S
Tb144 O149 2.374 . S
Tb144 O157 2.343 . S
Tb144 O159 2.353 . S
Tb144 O161 2.427 . S
Tb144 O162 2.513 . S
C145 O149 1.251 . S
C145 O151 1.263 . S
Tb146 O148 2.343 . S
Tb146 O151 2.353 . S
Tb146 O154 2.427 . S
Tb146 O155 2.513 . S
Tb146 O156 2.453 . S
Tb146 O157 2.596 . S
Tb146 O158 2.374 . S
O147 Tb144 2.453 . S
O147 C163 1.245 . S
O148 Tb144 2.596 . S
O148 Tb146 2.343 . S
O148 C163 1.259 . S
O149 Tb144 2.374 . S
O149 C145 1.251 . S
C150 O154 1.275 . S
C150 O155 1.246 . S
O151 C145 1.263 . S
O151 Tb146 2.353 . S
C152 O156 1.245 . S
C152 O157 1.259 . S
C153 O158 1.250 . S
C153 O159 1.263 . S
O154 Tb146 2.427 . S
O154 C150 1.275 . S
O155 Tb146 2.513 . S
O155 C150 1.246 . S
O156 Tb146 2.453 . S
O156 C152 1.245 . S
O157 Tb144 2.343 . S
O157 Tb146 2.596 . S
O157 C152 1.259 . S
O158 Tb146 2.374 . S
O158 C153 1.250 . S
O159 Tb144 2.353 . S
O159 C153 1.263 . S
C160 O161 1.275 . S
C160 O162 1.246 . S
O161 Tb144 2.427 . S
O161 C160 1.275 . S
O162 Tb144 2.513 . S
O162 C160 1.246 . S
C163 O147 1.245 . S
C163 O148 1.259 . S
Tb164 O167 2.453 1_655 S
Tb164 O168 2.596 1_655 S
Tb164 O169 2.372 1_655 S
Tb164 O177 2.343 . S
Tb164 O179 2.353 1_655 S
Tb164 O181 2.427 . S
Tb164 O182 2.513 . S
C165 O169 1.255 . S
C165 O171 1.263 . S
Tb166 O168 2.343 . S
Tb166 O171 2.353 . S
Tb166 O174 2.427 . S
Tb166 O175 2.513 . S
Tb166 O176 2.453 1_455 S
Tb166 O177 2.596 1_455 S
Tb166 O178 2.374 . S
O167 Tb164 2.453 1_455 S
O167 C183 1.245 . S
O168 Tb164 2.596 1_455 S
O168 Tb166 2.343 . S
O168 C183 1.259 . S
O169 Tb164 2.372 1_455 S
O169 C165 1.255 . S
C170 O174 1.275 . S
C170 O175 1.246 . S
O171 C165 1.263 . S
O171 Tb166 2.353 . S
C172 O176 1.245 . S
C172 O177 1.259 . S
C173 O178 1.249 1_655 S
C173 O179 1.263 1_655 S
O174 Tb166 2.427 . S
O174 C170 1.275 . S
O175 Tb166 2.513 . S
O175 C170 1.246 . S
O176 Tb166 2.453 1_655 S
O176 C172 1.245 . S
O177 Tb164 2.343 . S
O177 Tb166 2.596 1_655 S
O177 C172 1.259 . S
O178 Tb166 2.374 . S
O178 C173 1.249 1_455 S
O179 Tb164 2.353 1_455 S
O179 C173 1.263 1_455 S
C180 O181 1.275 . S
C180 O182 1.246 . S
O181 Tb164 2.427 . S
O181 C180 1.275 . S
O182 Tb164 2.513 . S
O182 C180 1.246 . S
C183 O167 1.245 . S
C183 O168 1.259 . S
C184 C185 1.369 . S
C184 C186 1.419 . S
C184 H188 0.930 . S
C185 C184 1.369 . S
C185 C194 1.429 . S
C186 C184 1.419 . S
C186 C187 1.363 . S
C186 H189 0.929 . S
C187 C186 1.363 . S
C187 C193 1.428 . S
H188 C184 0.930 . S
H189 C186 0.929 . S
S190 N191 1.613 . S
S190 N192 1.610 . S
N191 S190 1.613 . S
N191 C194 1.350 . S
N192 S190 1.610 . S
N192 C193 1.351 . S
C193 C187 1.428 . S
C193 N192 1.351 . S
C193 C194 1.434 . S
C194 C185 1.429 . S
C194 N191 1.350 . S
C194 C193 1.434 . S
C195 C196 1.369 . S
C195 C197 1.419 . S
C195 H199 0.930 . S
C196 C195 1.369 . S
C196 C205 1.429 . S
C197 C195 1.419 . S
C197 C198 1.363 . S
C197 H200 0.929 . S
C198 C197 1.363 . S
C198 C204 1.428 . S
H199 C195 0.930 . S
H200 C197 0.929 . S
S201 N202 1.613 . S
S201 N203 1.610 . S
N202 S201 1.613 . S
N202 C205 1.350 . S
N203 S201 1.610 . S
N203 C204 1.351 . S
C204 C198 1.428 . S
C204 N203 1.351 . S
C204 C205 1.434 . S
C205 C196 1.429 . S
C205 N202 1.350 . S
C205 C204 1.434 . S
C206 C207 1.369 . S
C206 C208 1.419 . S
C206 H210 0.930 . S
C207 C206 1.369 . S
C207 C216 1.429 . S
C208 C206 1.419 . S
C208 C209 1.363 . S
C208 H211 0.929 . S
C209 C208 1.363 . S
C209 C215 1.428 . S
H210 C206 0.930 . S
H211 C208 0.929 . S
S212 N213 1.613 . S
S212 N214 1.610 . S
N213 S212 1.613 . S
N213 C216 1.350 . S
N214 S212 1.610 . S
N214 C215 1.351 . S
C215 C209 1.428 . S
C215 N214 1.351 . S
C215 C216 1.434 . S
C216 C207 1.429 . S
C216 N213 1.350 . S
C216 C215 1.434 . S
C217 C218 1.369 . S
C217 C219 1.419 . S
C217 H221 0.930 . S
C218 C217 1.369 . S
C218 C227 1.429 . S
C219 C217 1.419 . S
C219 C220 1.363 . S
C219 H222 0.929 1_455 S
C220 C219 1.363 . S
C220 C226 1.428 . S
H221 C217 0.930 . S
H222 C219 0.929 1_655 S
S223 N224 1.613 . S
S223 N225 1.610 . S
N224 S223 1.613 . S
N224 C227 1.350 . S
N225 S223 1.610 . S
N225 C226 1.351 . S
C226 C220 1.428 . S
C226 N225 1.351 . S
C226 C227 1.434 . S
C227 C218 1.429 . S
C227 N224 1.350 . S
C227 C226 1.434 . S
C228 C229 1.369 . S
C228 C230 1.419 . S
C228 H232 0.930 . S
C229 C228 1.369 . S
C229 C238 1.429 1_566 S
C230 C228 1.419 . S
C230 C231 1.363 . S
C230 H233 0.929 . S
C231 C230 1.363 . S
C231 C237 1.428 1_565 S
H232 C228 0.930 . S
H233 C230 0.929 . S
S234 N235 1.613 . S
S234 N236 1.610 1_554 S
N235 S234 1.613 . S
N235 C238 1.350 . S
N236 S234 1.610 1_556 S
N236 C237 1.351 . S
C237 C231 1.428 1_545 S
C237 N236 1.351 . S
C237 C238 1.434 1_556 S
C238 C229 1.429 1_544 S
C238 N235 1.350 . S
C238 C237 1.434 1_554 S
C239 C240 1.369 1_556 S
C239 C241 1.419 . S
C239 H243 0.930 . S
C240 C239 1.369 1_554 S
C240 C249 1.429 1_554 S
C241 C239 1.419 . S
C241 C242 1.363 . S
C241 H244 0.929 . S
C242 C241 1.363 . S
C242 C248 1.428 . S
H243 C239 0.930 . S
H244 C241 0.929 . S
S245 N246 1.613 1_556 S
S245 N247 1.610 . S
N246 S245 1.613 1_554 S
N246 C249 1.350 1_554 S
N247 S245 1.610 . S
N247 C248 1.351 . S
C248 C242 1.428 . S
C248 N247 1.351 . S
C248 C249 1.434 . S
C249 C240 1.429 1_556 S
C249 N246 1.350 1_556 S
C249 C248 1.434 . S
C250 C251 1.369 1_554 S
C250 C252 1.419 1_554 S
C250 H254 0.930 . S
C251 C250 1.369 1_556 S
C251 C260 1.429 . S
C252 C250 1.419 1_556 S
C252 C253 1.363 . S
C252 H255 0.929 . S
C253 C252 1.363 . S
C253 C259 1.428 . S
H254 C250 0.930 . S
H255 C252 0.929 . S
S256 N257 1.613 . S
S256 N258 1.610 . S
N257 S256 1.613 . S
N257 C260 1.350 . S
N258 S256 1.610 . S
N258 C259 1.351 . S
C259 C253 1.428 . S
C259 N258 1.351 . S
C259 C260 1.434 . S
C260 C251 1.429 . S
C260 N257 1.350 . S
C260 C259 1.434 . S
C261 C262 1.394 . S
C261 C263 1.411 1_655 S
C261 H265 0.913 1_655 S
C262 C261 1.394 . S
C262 C271 1.429 . S
C263 C261 1.411 1_455 S
C263 C264 1.363 1_455 S
C263 H266 0.929 . S
C264 C263 1.363 1_655 S
C264 C270 1.428 . S
H265 C261 0.913 1_455 S
H266 C263 0.929 . S
S267 N268 1.613 . S
S267 N269 1.610 . S
N268 S267 1.613 . S
N268 C271 1.350 . S
N269 S267 1.610 . S
N269 C270 1.351 . S
C270 C264 1.428 . S
C270 N269 1.351 . S
C270 C271 1.434 . S
C271 C262 1.429 . S
C271 N268 1.350 . S
C271 C270 1.434 . S
C272 C273 1.369 . S
C272 C274 1.419 . S
C272 H276 0.930 1_455 S
C273 C272 1.369 . S
C273 C282 1.429 . S
C274 C272 1.419 . S
C274 C275 1.363 . S
C274 H277 0.929 1_455 S
C275 C274 1.363 . S
C275 C281 1.428 . S
H276 C272 0.930 1_655 S
H277 C274 0.929 1_655 S
S278 N279 1.613 . S
S278 N280 1.610 . S
N279 S278 1.613 . S
N279 C282 1.350 . S
N280 S278 1.610 . S
N280 C281 1.351 . S
C281 C275 1.428 . S
C281 N280 1.351 . S
C281 C282 1.434 . S
C282 C273 1.429 . S
C282 N279 1.350 . S
C282 C281 1.434 . S
C283 C284 1.369 . S
C283 C285 1.419 . S
C283 H287 0.930 . S
C284 C283 1.369 . S
C284 C293 1.429 . S
C285 C283 1.419 . S
C285 C286 1.363 . S
C285 H288 0.929 . S
C286 C285 1.363 . S
C286 C292 1.428 . S
H287 C283 0.930 . S
H288 C285 0.929 . S
S289 N290 1.613 . S
S289 N291 1.610 . S
N290 S289 1.613 . S
N290 C293 1.350 . S
N291 S289 1.610 . S
N291 C292 1.351 . S
C292 C286 1.428 . S
C292 N291 1.351 . S
C292 C293 1.434 . S
C293 C284 1.429 . S
C293 N290 1.350 . S
C293 C292 1.434 . S
C294 C295 1.369 . S
C294 C296 1.419 . S
C294 H298 0.930 . S
C295 C294 1.369 . S
C295 C304 1.429 . S
C296 C294 1.419 . S
C296 C297 1.363 . S
C296 H299 0.929 . S
C297 C296 1.363 . S
C297 C303 1.428 . S
H298 C294 0.930 . S
H299 C296 0.929 . S
S300 N301 1.613 . S
S300 N302 1.610 . S
N301 S300 1.613 . S
N301 C304 1.350 . S
N302 S300 1.610 . S
N302 C303 1.351 . S
C303 C297 1.428 . S
C303 N302 1.351 . S
C303 C304 1.434 . S
C304 C295 1.429 . S
C304 N301 1.350 . S
C304 C303 1.434 . S
C305 C306 1.369 . S
C305 C307 1.419 . S
C305 H309 0.930 . S
C306 C305 1.369 . S
C306 C315 1.429 . S
C307 C305 1.419 . S
C307 C308 1.363 . S
C307 H310 0.929 . S
C308 C307 1.363 . S
C308 C314 1.428 . S
H309 C305 0.930 . S
H310 C307 0.929 . S
S311 N312 1.613 . S
S311 N313 1.610 . S
N312 S311 1.613 . S
N312 C315 1.350 . S
N313 S311 1.610 . S
N313 C314 1.351 . S
C314 C308 1.428 . S
C314 N313 1.351 . S
C314 C315 1.434 . S
C315 C306 1.429 . S
C315 N312 1.350 . S
C315 C314 1.434 . S
C316 C317 1.369 . S
C316 C318 1.419 1_655 S
C316 H320 0.939 1_556 S
C317 C316 1.369 . S
C317 C326 1.429 . S
C318 C316 1.419 1_455 S
C318 C319 1.363 1_455 S
C318 H321 0.929 . S
C319 C318 1.363 1_655 S
C319 C325 1.428 . S
H320 C316 0.939 1_554 S
H321 C318 0.929 . S
S322 N323 1.613 . S
S322 N324 1.610 . S
N323 S322 1.613 . S
N323 C326 1.350 . S
N324 S322 1.610 . S
N324 C325 1.351 . S
C325 C319 1.428 . S
C325 N324 1.351 . S
C325 C326 1.434 . S
C326 C317 1.429 . S
C326 N323 1.350 . S
C326 C325 1.434 . S
C327 C328 1.369 1_554 S
C327 C329 1.419 . S
C327 H331 0.930 . S
C328 C327 1.369 1_556 S
C328 C337 1.429 . S
C329 C327 1.419 . S
C329 C330 1.363 1_554 S
C329 H332 0.929 . S
C330 C329 1.363 1_556 S
C330 C336 1.428 . S
H331 C327 0.930 . S
H332 C329 0.929 . S
S333 N334 1.613 1_545 S
S333 N335 1.610 . S
N334 S333 1.613 1_565 S
N334 C337 1.350 . S
N335 S333 1.610 . S
N335 C336 1.351 1_545 S
C336 C330 1.428 . S
C336 N335 1.351 1_565 S
C336 C337 1.434 . S
C337 C328 1.429 . S
C337 N334 1.350 . S
C337 C336 1.434 . S
C338 C339 1.369 . S
C338 C340 1.419 . S
C338 H342 0.930 . S
C339 C338 1.369 . S
C339 C348 1.429 1_556 S
C340 C338 1.419 . S
C340 C341 1.363 . S
C340 H343 0.929 . S
C341 C340 1.363 . S
C341 C347 1.428 . S
H342 C338 0.930 . S
H343 C340 0.929 . S
S344 N345 1.613 . S
S344 N346 1.610 . S
N345 S344 1.613 . S
N345 C348 1.350 . S
N346 S344 1.610 . S
N346 C347 1.351 1_554 S
C347 C341 1.428 . S
C347 N346 1.351 1_556 S
C347 C348 1.434 1_556 S
C348 C339 1.429 1_554 S
C348 N345 1.350 . S
C348 C347 1.434 1_554 S
C349 C350 1.369 . S
C349 C351 1.419 . S
C349 H353 0.930 . S
C350 C349 1.369 . S
C350 C359 1.429 1_556 S
C351 C349 1.419 . S
C351 C352 1.363 . S
C351 H354 0.929 . S
C352 C351 1.363 . S
C352 C358 1.428 . S
H353 C349 0.930 . S
H354 C351 0.929 . S
S355 N356 1.613 . S
S355 N357 1.610 . S
N356 S355 1.613 . S
N356 C359 1.350 . S
N357 S355 1.610 . S
N357 C358 1.351 1_554 S
C358 C352 1.428 . S
C358 N357 1.351 1_556 S
C358 C359 1.434 1_556 S
C359 C350 1.429 1_554 S
C359 N356 1.350 . S
C359 C358 1.434 1_554 S
C360 C361 1.369 . S
C360 C362 1.419 . S
C360 H364 0.930 . S
C361 C360 1.369 . S
C361 C370 1.429 . S
C362 C360 1.419 . S
C362 C363 1.363 . S
C362 H365 0.929 . S
C363 C362 1.363 . S
C363 C369 1.428 . S
H364 C360 0.930 . S
H365 C362 0.929 . S
S366 N367 1.613 . S
S366 N368 1.610 . S
N367 S366 1.613 . S
N367 C370 1.350 1_655 S
N368 S366 1.610 . S
N368 C369 1.351 1_655 S
C369 C363 1.428 . S
C369 N368 1.351 1_455 S
C369 C370 1.434 . S
C370 C361 1.429 . S
C370 N367 1.350 1_455 S
C370 C369 1.434 . S
C371 C372 1.369 . S
C371 C373 1.419 . S
C371 H375 0.930 1_545 S
C372 C371 1.369 . S
C372 C381 1.429 . S
C373 C371 1.419 . S
C373 C374 1.363 . S
C373 H376 0.929 1_545 S
C374 C373 1.363 . S
C374 C380 1.428 . S
H375 C371 0.930 1_565 S
H376 C373 0.929 1_565 S
S377 N378 1.613 1_556 S
S377 N379 1.610 . S
N378 S377 1.613 1_554 S
N378 C381 1.350 . S
N379 S377 1.610 . S
N379 C380 1.351 1_556 S
C380 C374 1.428 . S
C380 N379 1.351 1_554 S
C380 C381 1.434 . S
C381 C372 1.429 . S
C381 N378 1.350 . S
C381 C380 1.434 . S
C382 C383 1.369 . S
C382 C384 1.419 . S
C382 H386 0.930 . S
C383 C382 1.369 . S
C383 C392 1.429 . S
C384 C382 1.419 . S
C384 C385 1.363 . S
C384 H387 0.929 . S
C385 C384 1.363 . S
C385 C391 1.428 . S
H386 C382 0.930 . S
H387 C384 0.929 . S
S388 N389 1.613 . S
S388 N390 1.610 . S
N389 S388 1.613 . S
N389 C392 1.350 . S
N390 S388 1.610 . S
N390 C391 1.351 . S
C391 C385 1.428 . S
C391 N390 1.351 . S
C391 C392 1.434 . S
C392 C383 1.429 . S
C392 N389 1.350 . S
C392 C391 1.434 . S
C393 C394 1.369 . S
C393 C395 1.419 . S
C393 H397 0.930 . S
C394 C393 1.369 . S
C394 C403 1.429 . S
C395 C393 1.419 . S
C395 C396 1.363 . S
C395 H398 0.929 . S
C396 C395 1.363 . S
C396 C402 1.428 . S
H397 C393 0.930 . S
H398 C395 0.929 . S
S399 N400 1.613 . S
S399 N401 1.610 1_554 S
N400 S399 1.613 . S
N400 C403 1.350 . S
N401 S399 1.610 1_556 S
N401 C402 1.351 1_556 S
C402 C396 1.428 . S
C402 N401 1.351 1_554 S
C402 C403 1.434 . S
C403 C394 1.429 . S
C403 N400 1.350 . S
C403 C402 1.434 . S
C404 C405 1.369 . S
C404 C406 1.419 . S
C404 H408 0.930 . S
C405 C404 1.369 . S
C405 C414 1.429 . S
C406 C404 1.419 . S
C406 C407 1.363 . S
C406 H409 0.929 . S
C407 C406 1.363 . S
C407 C413 1.428 . S
H408 C404 0.930 . S
H409 C406 0.929 . S
S410 N411 1.613 . S
S410 N412 1.610 . S
N411 S410 1.613 . S
N411 C414 1.350 . S
N412 S410 1.610 . S
N412 C413 1.351 . S
C413 C407 1.428 . S
C413 N412 1.351 . S
C413 C414 1.434 . S
C414 C405 1.429 . S
C414 N411 1.350 . S
C414 C413 1.434 . S
C415 C416 1.369 . S
C415 C417 1.419 . S
C415 H419 0.930 . S
C416 C415 1.369 . S
C416 C425 1.429 . S
C417 C415 1.419 . S
C417 C418 1.363 . S
C417 H420 0.929 1_565 S
C418 C417 1.363 . S
C418 C424 1.428 . S
H419 C415 0.930 . S
H420 C417 0.929 1_545 S
S421 N422 1.613 . S
S421 N423 1.610 . S
N422 S421 1.613 . S
N422 C425 1.350 . S
N423 S421 1.610 . S
N423 C424 1.351 . S
C424 C418 1.428 . S
C424 N423 1.351 . S
C424 C425 1.434 . S
C425 C416 1.429 . S
C425 N422 1.350 . S
C425 C424 1.434 . S
C426 C427 1.369 . S
C426 C428 1.419 . S
C426 H430 0.930 . S
C427 C426 1.369 . S
C427 C436 1.429 . S
C428 C426 1.419 . S
C428 C429 1.363 . S
C428 H431 0.929 . S
C429 C428 1.363 . S
C429 C435 1.428 . S
H430 C426 0.930 . S
H431 C428 0.929 . S
S432 N433 1.613 . S
S432 N434 1.610 . S
N433 S432 1.613 . S
N433 C436 1.350 . S
N434 S432 1.610 . S
N434 C435 1.351 . S
C435 C429 1.428 . S
C435 N434 1.351 . S
C435 C436 1.434 . S
C436 C427 1.429 . S
C436 N433 1.350 . S
C436 C435 1.434 . S
C437 C438 1.369 . S
C437 C439 1.419 . S
C437 H441 0.930 . S
C438 C437 1.369 . S
C438 C447 1.429 . S
C439 C437 1.419 . S
C439 C440 1.363 . S
C439 H442 0.929 . S
C440 C439 1.363 . S
C440 C446 1.428 . S
H441 C437 0.930 . S
H442 C439 0.929 . S
S443 N444 1.613 . S
S443 N445 1.610 . S
N444 S443 1.613 . S
N444 C447 1.350 . S
N445 S443 1.610 . S
N445 C446 1.351 . S
C446 C440 1.428 . S
C446 N445 1.351 . S
C446 C447 1.434 . S
C447 C438 1.429 . S
C447 N444 1.350 . S
C447 C446 1.434 . S
C185 N80 1.574 . S
C187 C105 1.590 . S
C198 C140 1.554 . S
C196 N93 1.512 . S
C209 C145 1.399 . S
C207 N54 1.388 . S
C220 C165 1.528 . S
C218 N67 1.510 . S
C231 C113 1.588 1_565 S
C229 N28 1.578 1_556 S
C240 N41 1.531 . S
C242 C130 1.555 . S
C251 N2 1.392 1_556 S
C253 C153 1.400 . S
C262 N15 1.522 . S
C264 C173 1.530 . S
C275 C123 1.363 . S
C273 N70 1.385 . S
C286 C132 1.166 . S
C284 N83 1.179 . S
C297 C163 1.365 . S
C295 N96 1.358 . S
C306 N57 1.137 . S
C308 C183 1.100 . S
C317 N18 1.388 . S
C319 C112 1.366 1_655 S
C330 C143 1.167 1_565 S
C328 N31 1.181 1_556 S
C341 C152 1.365 . S
C339 N44 1.361 1_556 S
C350 N5 1.139 1_556 S
C352 C172 1.099 . S
C361 N66 1.467 . S
C363 C110 1.451 . S
C372 N79 1.528 . S
C374 C133 1.550 1_554 S
C385 C150 1.521 1_554 S
C383 N92 1.515 . S
C396 C170 1.543 1_554 S
C394 N53 1.559 . S
C405 N14 1.479 . S
C407 C120 1.448 . S
C418 C125 1.550 . S
C416 N27 1.538 . S
C429 C160 1.523 . S
C427 N40 1.538 . S
C438 N1 1.565 . S
C440 C180 1.542 . S
