# Generated by pormake.
# Topology apo, (3,6)-cn, num edge types: 1
# Building blocks:
#     Node 0, Type 0, BuildingBlock: CUQRIR_clean_linker_1, # of connection points: 3
#     Node 1, Type 0, BuildingBlock: CUQRIR_clean_linker_1, # of connection points: 3
#     Node 2, Type 0, BuildingBlock: CUQRIR_clean_linker_1, # of connection points: 3
#     Node 3, Type 0, BuildingBlock: CUQRIR_clean_linker_1, # of connection points: 3
#     Node 4, Type 0, BuildingBlock: CUQRIR_clean_linker_1, # of connection points: 3
#     Node 5, Type 0, BuildingBlock: CUQRIR_clean_linker_1, # of connection points: 3
#     Node 6, Type 0, BuildingBlock: CUQRIR_clean_linker_1, # of connection points: 3
#     Node 7, Type 0, BuildingBlock: CUQRIR_clean_linker_1, # of connection points: 3
#     Node 8, Type 1, BuildingBlock: KUMJIN_clean_sbu_1, # of connection points: 6
#     Node 9, Type 1, BuildingBlock: KUMJIN_clean_sbu_1, # of connection points: 6
#     Node 10, Type 1, BuildingBlock: KUMJIN_clean_sbu_1, # of connection points: 6
#     Node 11, Type 1, BuildingBlock: KUMJIN_clean_sbu_1, # of connection points: 6
#     Edge 12, Type (0, 1), BuildingBlock: EZIPEK_clean_linker_0, # of connection points: 2
#     Edge 13, Type (0, 1), BuildingBlock: EZIPEK_clean_linker_0, # of connection points: 2
#     Edge 14, Type (0, 1), BuildingBlock: EZIPEK_clean_linker_0, # of connection points: 2
#     Edge 15, Type (0, 1), BuildingBlock: EZIPEK_clean_linker_0, # of connection points: 2
#     Edge 16, Type (0, 1), BuildingBlock: EZIPEK_clean_linker_0, # of connection points: 2
#     Edge 17, Type (0, 1), BuildingBlock: EZIPEK_clean_linker_0, # of connection points: 2
#     Edge 18, Type (0, 1), BuildingBlock: EZIPEK_clean_linker_0, # of connection points: 2
#     Edge 19, Type (0, 1), BuildingBlock: EZIPEK_clean_linker_0, # of connection points: 2
#     Edge 20, Type (0, 1), BuildingBlock: EZIPEK_clean_linker_0, # of connection points: 2
#     Edge 21, Type (0, 1), BuildingBlock: EZIPEK_clean_linker_0, # of connection points: 2
#     Edge 22, Type (0, 1), BuildingBlock: EZIPEK_clean_linker_0, # of connection points: 2
#     Edge 23, Type (0, 1), BuildingBlock: EZIPEK_clean_linker_0, # of connection points: 2
#     Edge 24, Type (0, 1), BuildingBlock: EZIPEK_clean_linker_0, # of connection points: 2
#     Edge 25, Type (0, 1), BuildingBlock: EZIPEK_clean_linker_0, # of connection points: 2
#     Edge 26, Type (0, 1), BuildingBlock: EZIPEK_clean_linker_0, # of connection points: 2
#     Edge 27, Type (0, 1), BuildingBlock: EZIPEK_clean_linker_0, # of connection points: 2
#     Edge 28, Type (0, 1), BuildingBlock: EZIPEK_clean_linker_0, # of connection points: 2
#     Edge 29, Type (0, 1), BuildingBlock: EZIPEK_clean_linker_0, # of connection points: 2
#     Edge 30, Type (0, 1), BuildingBlock: EZIPEK_clean_linker_0, # of connection points: 2
#     Edge 31, Type (0, 1), BuildingBlock: EZIPEK_clean_linker_0, # of connection points: 2
#     Edge 32, Type (0, 1), BuildingBlock: EZIPEK_clean_linker_0, # of connection points: 2
#     Edge 33, Type (0, 1), BuildingBlock: EZIPEK_clean_linker_0, # of connection points: 2
#     Edge 34, Type (0, 1), BuildingBlock: EZIPEK_clean_linker_0, # of connection points: 2
#     Edge 35, Type (0, 1), BuildingBlock: EZIPEK_clean_linker_0, # of connection points: 2
# Relax obj value: 0.043
# Max RMSD: 0.251
# Mean RMSD: 0.193
data_MOF--net-apo--node1-KUMJIN_clean_sbu_1--node2-CUQRIR_clean_linker_1--edge1-EZIPEK_clean_linker_0
_symmetry_space_group_name_H-M    P1
_symmetry_Int_Tables_number       1
_symmetry_cell_setting            triclinic
loop_
_symmetry_equiv_pos_as_xyz
'x, y, z'
_cell_length_a     18.607586
_cell_length_b     27.594463
_cell_length_c     36.000128
_cell_angle_alpha  90.211292
_cell_angle_beta   90.317143
_cell_angle_gamma 90.426823
loop_
_atom_site_label
_atom_site_type_symbol
_atom_site_fract_x
_atom_site_fract_y
_atom_site_fract_z
_atom_type_partial_charge
C0 C 0.23824 0.34099 0.41023 0.0
N1 N 0.27162 0.38408 0.41682 0.0
N2 N 0.19692 0.34274 0.37893 0.0
C3 C 0.25155 0.29642 0.43321 0.0
C4 C 0.20707 0.38907 0.36711 0.0
N5 N 0.25504 0.41329 0.38881 0.0
C6 C 0.16752 0.41272 0.33554 0.0
H7 H 0.23999 0.26272 0.41737 0.0
H8 H 0.21755 0.29757 0.4584 0.0
H9 H 0.30833 0.29558 0.44263 0.0
H10 H 0.11795 0.39239 0.32789 0.0
H11 H 0.20351 0.41529 0.31121 0.0
H12 H 0.15309 0.45032 0.34341 0.0
C13 C 0.23584 0.19097 0.90988 0.0
N14 N 0.20419 0.14729 0.91574 0.0
N15 N 0.27044 0.19161 0.8769 0.0
C16 C 0.23322 0.23267 0.93687 0.0
C17 C 0.25771 0.14676 0.86268 0.0
N18 N 0.21698 0.11988 0.88598 0.0
C19 C 0.28412 0.12889 0.82577 0.0
H20 H 0.17835 0.23586 0.94846 0.0
H21 H 0.24847 0.26738 0.92354 0.0
H22 H 0.27046 0.22551 0.96036 0.0
H23 H 0.30028 0.0905 0.82817 0.0
H24 H 0.33056 0.1505 0.81577 0.0
H25 H 0.23973 0.13076 0.80513 0.0
C26 C 0.74991 0.18613 0.62849 0.0
N27 N 0.79011 0.14563 0.62415 0.0
N28 N 0.72374 0.18907 0.66334 0.0
C29 C 0.73565 0.22277 0.5985 0.0
C30 C 0.74884 0.14902 0.6803 0.0
N31 N 0.79033 0.12274 0.6569 0.0
C32 C 0.73719 0.13761 0.72073 0.0
H33 H 0.7254 0.25917 0.61037 0.0
H34 H 0.68709 0.21144 0.58261 0.0
H35 H 0.78157 0.22494 0.57902 0.0
H36 H 0.68172 0.14675 0.72916 0.0
H37 H 0.77462 0.16 0.73781 0.0
H38 H 0.74692 0.09876 0.72664 0.0
C39 C 0.77788 0.33587 0.12855 0.0
N40 N 0.74461 0.37933 0.12614 0.0
N41 N 0.8043 0.32875 0.16308 0.0
C42 C 0.7857 0.30075 0.09678 0.0
C43 C 0.78735 0.36962 0.18166 0.0
N44 N 0.75048 0.40071 0.15951 0.0
C45 C 0.80316 0.37776 0.22221 0.0
H46 H 0.73162 0.28784 0.08793 0.0
H47 H 0.81891 0.2691 0.10449 0.0
H48 H 0.81048 0.3194 0.07273 0.0
H49 H 0.85468 0.3605 0.23012 0.0
H50 H 0.75978 0.36079 0.23885 0.0
H51 H 0.80562 0.41704 0.22888 0.0
C52 C 0.74975 0.68458 0.62831 0.0
N53 N 0.71353 0.64198 0.6238 0.0
N54 N 0.79129 0.68394 0.65956 0.0
C55 C 0.74284 0.72693 0.60246 0.0
C56 C 0.77937 0.63887 0.67336 0.0
N57 N 0.73082 0.61394 0.65249 0.0
C58 C 0.81428 0.61861 0.70775 0.0
H59 H 0.77837 0.72123 0.57821 0.0
H60 H 0.75817 0.7614 0.61642 0.0
H61 H 0.68693 0.72955 0.59185 0.0
H62 H 0.77678 0.62146 0.7315 0.0
H63 H 0.86494 0.63816 0.71465 0.0
H64 H 0.82573 0.57954 0.70362 0.0
C65 C 0.76196 0.82984 0.12463 0.0
N66 N 0.79598 0.87256 0.11769 0.0
N67 N 0.72951 0.83036 0.15834 0.0
C68 C 0.76264 0.78732 0.09836 0.0
C69 C 0.74638 0.8752 0.17168 0.0
N70 N 0.78883 0.90017 0.1479 0.0
C71 C 0.71946 0.89635 0.20742 0.0
H72 H 0.72309 0.79341 0.0757 0.0
H73 H 0.74954 0.75293 0.11273 0.0
H74 H 0.81634 0.78417 0.08539 0.0
H75 H 0.76213 0.89321 0.22874 0.0
H76 H 0.67006 0.87765 0.21707 0.0
H77 H 0.70837 0.93551 0.20373 0.0
C78 C 0.22531 0.80413 0.41626 0.0
N79 N 0.19094 0.84671 0.42156 0.0
N80 N 0.2315 0.79391 0.37968 0.0
C81 C 0.25567 0.77348 0.4471 0.0
C82 C 0.19513 0.83039 0.36299 0.0
N83 N 0.17296 0.8641 0.38824 0.0
C84 C 0.18345 0.83398 0.32148 0.0
H85 H 0.29562 0.79507 0.46326 0.0
H86 H 0.28106 0.74004 0.4364 0.0
H87 H 0.2123 0.76278 0.46646 0.0
H88 H 0.14405 0.86232 0.31428 0.0
H89 H 0.16119 0.79996 0.30998 0.0
H90 H 0.23546 0.84091 0.30747 0.0
C91 C 0.24617 0.6809 0.91168 0.0
N92 N 0.27963 0.63846 0.91891 0.0
N93 N 0.20622 0.67774 0.88022 0.0
C94 C 0.25366 0.72553 0.93557 0.0
C95 C 0.21678 0.63171 0.86854 0.0
N96 N 0.26316 0.60811 0.89119 0.0
C97 C 0.18333 0.60951 0.83426 0.0
H98 H 0.21551 0.72302 0.95908 0.0
H99 H 0.24227 0.75889 0.91956 0.0
H100 H 0.30876 0.72797 0.94741 0.0
H101 H 0.22188 0.61164 0.81092 0.0
H102 H 0.13325 0.62851 0.8263 0.0
H103 H 0.17129 0.5706 0.83915 0.0
Eu104 Eu 0.10286 0.10072 0.23588 0.0
C105 C 0.76057 0.06461 0.2847 0.0
N106 N 0.79806 0.10688 0.28813 0.0
C107 C 0.69081 0.15235 0.27655 0.0
C108 C 0.68622 0.06481 0.2766 0.0
C109 C 0.76428 0.15048 0.28466 0.0
C110 C 0.65171 0.10935 0.27219 0.0
C111 C 0.75711 0.97676 0.28898 0.0
C112 C 0.7959 0.02092 0.29051 0.0
C113 C 0.6834 0.97695 0.28047 0.0
C114 C 0.64818 0.02078 0.27406 0.0
Eu115 Eu 0.9204 0.0995 0.30499 0.0
N116 N 0.86744 0.02157 0.29872 0.0
C117 C 0.79313 0.93367 0.29691 0.0
C118 C 0.90237 0.97956 0.30695 0.0
C119 C 0.86605 0.9351 0.30583 0.0
H120 H 0.7942 0.18393 0.28837 0.0
H121 H 0.89426 0.90197 0.31221 0.0
H122 H 0.21325 1.00437 0.23713 0.0
H123 H 0.2058 0.28138 0.20368 0.0
H124 H 0.95816 0.97964 0.31464 0.0
H125 H 0.76498 0.89914 0.29659 0.0
H126 H 0.11793 0.21407 0.2054 0.0
H127 H 0.66441 0.18696 0.27368 0.0
H128 H 0.65296 0.94335 0.2791 0.0
H129 H 0.59112 0.0203 0.26785 0.0
H130 H 0.33349 0.98257 0.26128 0.0
H131 H 0.5947 0.11093 0.26603 0.0
H132 H 0.32312 0.27271 0.23552 0.0
N133 N 0.22266 0.0783 0.25209 0.0
C134 C 0.26962 0.11456 0.26046 0.0
C135 C 0.31565 0.01979 0.26229 0.0
C136 C 0.34068 0.10467 0.27207 0.0
C137 C 0.24672 0.03181 0.24986 0.0
C138 C 0.3622 0.05635 0.27465 0.0
N139 N 0.18375 0.16792 0.23675 0.0
C140 C 0.16882 0.20988 0.21862 0.0
C141 C 0.30157 0.19892 0.25271 0.0
C142 C 0.25004 0.16111 0.25162 0.0
C143 C 0.28466 0.24303 0.23597 0.0
C144 C 0.21873 0.24798 0.21781 0.0
H145 H 0.41626 0.04719 0.28333 0.0
H146 H 0.444 0.13628 0.28694 0.0
H147 H 0.4099 0.21908 0.26937 0.0
O148 O 0.06937 0.10608 0.17746 0.0
O149 O 0.09921 0.16301 0.27757 0.0
O150 O 0.99608 0.16281 0.31496 0.0
O151 O 0.16438 0.06684 0.19147 0.0
O152 O 0.00787 0.14754 0.21871 0.0
O153 O 0.92201 0.16317 0.26455 0.0
O154 O 0.91946 0.07826 0.36376 0.0
O155 O 0.9126 0.06467 0.24783 0.0
O156 O 0.02685 0.03645 0.24142 0.0
O157 O 0.84885 0.13428 0.34457 0.0
O158 O 0.01581 0.05582 0.32485 0.0
O159 O 0.10944 0.04632 0.28291 0.0
C160 C 0.05881 0.18045 0.30456 0.0
C161 C 0.16603 0.10961 0.13538 0.0
C162 C 0.18771 0.12637 0.07003 0.0
C163 C 0.24276 0.15895 0.0803 0.0
C164 C 0.22325 0.14086 0.14487 0.0
C165 C 0.26057 0.16593 0.11752 0.0
C166 C 0.1488 0.10188 0.09772 0.0
C167 C 0.94976 0.1695 0.23096 0.0
C168 C 0.1259 0.08439 0.16473 0.0
C169 C 0.38957 0.14309 0.27755 0.0
C170 C 0.37017 0.19023 0.26757 0.0
C171 C 0.95931 0.03732 0.23054 0.0
C172 C 0.88529 0.13857 0.40745 0.0
C173 C 0.87572 0.14658 0.47496 0.0
C174 C 0.8978 0.19521 0.47209 0.0
C175 C 0.90678 0.18738 0.40537 0.0
C176 C 0.87084 0.11797 0.44248 0.0
C177 C 0.91322 0.21536 0.43755 0.0
C178 C 0.07733 0.03672 0.31473 0.0
C179 C 0.87187 0.11031 0.37318 0.0
H180 H 0.27327 0.17805 0.05929 0.0
H181 H 0.24009 0.14534 0.17336 0.0
H182 H 0.3042 0.19021 0.12518 0.0
H183 H 0.1064 0.0766 0.08997 0.0
H184 H 0.90168 0.21792 0.49665 0.0
H185 H 0.91755 0.20414 0.37879 0.0
H186 H 0.8531 0.08056 0.44436 0.0
H187 H 0.92873 0.25313 0.43565 0.0
Eu188 Eu 0.42807 0.41238 0.72599 0.0
C189 C 0.72204 0.46967 0.80191 0.0
N190 N 0.69724 0.42345 0.798 0.0
C191 C 0.81317 0.39719 0.77813 0.0
C192 C 0.79338 0.48177 0.79258 0.0
C193 C 0.74179 0.38701 0.78747 0.0
C194 C 0.83887 0.44486 0.78028 0.0
C195 C 0.70051 0.55288 0.82052 0.0
C196 C 0.67556 0.50492 0.81519 0.0
C197 C 0.77087 0.56544 0.81008 0.0
C198 C 0.81712 0.53 0.7961 0.0
Eu199 Eu 0.57584 0.40988 0.81274 0.0
N200 N 0.60718 0.49192 0.82444 0.0
C201 C 0.65473 0.58644 0.83723 0.0
C202 C 0.5652 0.52325 0.84397 0.0
C203 C 0.58741 0.57123 0.8498 0.0
H204 H 0.72183 0.35017 0.78583 0.0
H205 H 0.55299 0.59624 0.86444 0.0
H206 H 0.28717 0.45142 0.7763 0.0
H207 H 0.44667 0.25919 0.62954 0.0
H208 H 0.51539 0.5113 0.85598 0.0
H209 H 0.6719 0.6236 0.84188 0.0
H210 H 0.4912 0.33053 0.66362 0.0
H211 H 0.84819 0.36833 0.76915 0.0
H212 H 0.79052 0.60228 0.81345 0.0
H213 H 0.87155 0.54012 0.78869 0.0
H214 H 0.16151 0.42764 0.78768 0.0
H215 H 0.89411 0.45266 0.77288 0.0
H216 H 0.32117 0.23136 0.63746 0.0
N217 N 0.30818 0.39181 0.74044 0.0
C218 C 0.28026 0.35295 0.72184 0.0
C219 C 0.19443 0.40614 0.7693 0.0
C220 C 0.20789 0.33885 0.72682 0.0
C221 C 0.26603 0.41925 0.7631 0.0
C222 C 0.1653 0.36564 0.75123 0.0
N223 N 0.39412 0.34086 0.69383 0.0
C224 C 0.43738 0.3177 0.66898 0.0
C225 C 0.29568 0.28743 0.67739 0.0
C226 C 0.32388 0.3275 0.69733 0.0
C227 C 0.34082 0.26232 0.6532 0.0
C228 C 0.41182 0.2777 0.64884 0.0
H229 H 0.10959 0.35582 0.75588 0.0
H230 H 0.12461 0.28759 0.71059 0.0
H231 H 0.20133 0.24265 0.66735 0.0
O232 O 0.4421 0.42646 0.66635 0.0
O233 O 0.3952 0.36682 0.77601 0.0
O234 O 0.50002 0.34513 0.80721 0.0
O235 O 0.36028 0.46412 0.6968 0.0
O236 O 0.53365 0.37148 0.71767 0.0
O237 O 0.58128 0.34494 0.77432 0.0
O238 O 0.57606 0.41903 0.87363 0.0
O239 O 0.61169 0.44223 0.75696 0.0
O240 O 0.5048 0.47299 0.73959 0.0
O241 O 0.63497 0.36068 0.84866 0.0
O242 O 0.46446 0.44044 0.82354 0.0
O243 O 0.4165 0.4715 0.7689 0.0
C244 C 0.43032 0.34127 0.80111 0.0
C245 C 0.33027 0.43776 0.63595 0.0
C246 C 0.29634 0.41719 0.57198 0.0
C247 C 0.23124 0.39774 0.5852 0.0
C248 C 0.26206 0.42181 0.64761 0.0
C249 C 0.21385 0.40083 0.6226 0.0
C250 C 0.3465 0.43678 0.59766 0.0
C251 C 0.57287 0.34172 0.73799 0.0
C252 C 0.38463 0.453 0.66402 0.0
C253 C 0.18003 0.29892 0.70706 0.0
C254 C 0.2237 0.27339 0.68238 0.0
C255 C 0.57369 0.46934 0.73443 0.0
C256 C 0.67995 0.39098 0.90639 0.0
C257 C 0.72061 0.39953 0.97128 0.0
C258 C 0.79075 0.38844 0.95956 0.0
C259 C 0.75112 0.38179 0.89575 0.0
C260 C 0.66542 0.40192 0.94408 0.0
C261 C 0.80597 0.38081 0.92216 0.0
C262 C 0.42307 0.47094 0.80534 0.0
C263 C 0.62035 0.38359 0.87932 0.0
H264 H 0.19226 0.38196 0.56612 0.0
H265 H 0.24582 0.42505 0.67623 0.0
H266 H 0.16243 0.38739 0.63221 0.0
H267 H 0.39733 0.45122 0.58796 0.0
H268 H 0.8343 0.38564 0.97952 0.0
H269 H 0.76432 0.37384 0.86714 0.0
H270 H 0.61095 0.4101 0.95242 0.0
H271 H 0.86037 0.37282 0.91373 0.0
Eu272 Eu 0.08895 0.91143 0.73588 0.0
C273 C 0.75924 0.86753 0.78858 0.0
N274 N 0.80118 0.90664 0.78066 0.0
C275 C 0.70709 0.93951 0.74273 0.0
C276 C 0.68985 0.86238 0.77295 0.0
C277 C 0.77474 0.94351 0.75958 0.0
C278 C 0.66483 0.89841 0.74899 0.0
C279 C 0.73905 0.79558 0.8257 0.0
C280 C 0.78389 0.83422 0.81433 0.0
C281 C 0.67091 0.78949 0.80933 0.0
C282 C 0.6466 0.82259 0.78279 0.0
Eu283 Eu 0.91695 0.90858 0.80839 0.0
N284 N 0.84978 0.84124 0.82999 0.0
C285 C 0.76325 0.76492 0.85392 0.0
C286 C 0.87161 0.8132 0.85904 0.0
C287 C 0.82945 0.7742 0.871 0.0
H288 H 0.80456 0.97669 0.75633 0.0
H289 H 0.84768 0.75168 0.89367 0.0
H290 H 0.22012 0.85201 0.78492 0.0
H291 H 0.09895 0.0902 0.67253 0.0
H292 H 0.92124 0.82113 0.87335 0.0
H293 H 0.73044 0.73486 0.8634 0.0
H294 H 0.05037 0.00816 0.68415 0.0
H295 H 0.68709 0.96856 0.7255 0.0
H296 H 0.63615 0.75972 0.81742 0.0
H297 H 0.59337 0.81793 0.77089 0.0
H298 H 0.33552 0.87123 0.81452 0.0
H299 H 0.61193 0.89574 0.73638 0.0
H300 H 0.2128 0.11626 0.70262 0.0
N301 N 0.20198 0.92412 0.76561 0.0
C302 C 0.23198 0.96882 0.76051 0.0
C303 C 0.30652 0.89919 0.79984 0.0
C304 C 0.29981 0.98063 0.77598 0.0
C305 C 0.23981 0.88877 0.78356 0.0
C306 C 0.33622 0.94548 0.7965 0.0
N307 N 0.1318 0.99 0.72307 0.0
C308 C 0.09838 0.01997 0.69854 0.0
C309 C 0.22727 0.04837 0.73167 0.0
C310 C 0.19628 1.00246 0.73846 0.0
C311 C 0.19082 0.08062 0.70841 0.0
C312 C 0.12647 0.06611 0.69144 0.0
H313 H 0.38828 0.95325 0.80887 0.0
H314 H 0.38227 0.03613 0.78132 0.0
H315 H 0.31878 0.09537 0.74262 0.0
O316 O 0.09552 0.91175 0.67463 0.0
O317 O 0.07571 0.97326 0.77678 0.0
O318 O 0.03096 0.92891 0.8242 0.0
O319 O 0.17306 0.87124 0.708 0.0
O320 O 0.98133 0.93872 0.71613 0.0
O321 O 0.9334 0.97263 0.7692 0.0
O322 O 0.92595 0.9192 0.86838 0.0
O323 O 0.90085 0.86749 0.75392 0.0
O324 O 0.01454 0.84548 0.733 0.0
O325 O 0.84947 0.96132 0.83753 0.0
O326 O 0.99044 0.84423 0.81653 0.0
O327 O 0.09518 0.85528 0.78151 0.0
C328 C 0.06295 0.96793 0.8122 0.0
C329 C 0.19001 0.86797 0.64136 0.0
C330 C 0.20237 0.86418 0.574 0.0
C331 C 0.26212 0.83392 0.57833 0.0
C332 C 0.25 0.8376 0.64498 0.0
C333 C 0.28587 0.82089 0.61362 0.0
C334 C 0.16686 0.88185 0.60564 0.0
C335 C 0.94193 0.97152 0.73276 0.0
C336 C 0.15223 0.88433 0.67502 0.0
C337 C 0.33028 0.02653 0.76961 0.0
C338 C 0.29415 0.06028 0.74754 0.0
C339 C 0.94408 0.84001 0.73402 0.0
C340 C 0.81641 0.93333 0.89786 0.0
C341 C 0.78572 0.91113 0.96175 0.0
C342 C 0.72072 0.89103 0.94848 0.0
C343 C 0.74981 0.9147 0.88577 0.0
C344 C 0.83346 0.93257 0.93615 0.0
C345 C 0.70263 0.89342 0.91091 0.0
C346 C 0.05656 0.83269 0.80688 0.0
C347 C 0.8713 0.94801 0.87044 0.0
H348 H 0.29009 0.82008 0.55423 0.0
H349 H 0.26922 0.82652 0.67208 0.0
H350 H 0.33189 0.79745 0.61669 0.0
H351 H 0.12085 0.90533 0.6023 0.0
H352 H 0.68324 0.8741 0.96746 0.0
H353 H 0.73474 0.91553 0.85674 0.0
H354 H 0.88427 0.94748 0.94587 0.0
H355 H 0.65204 0.87833 0.90118 0.0
Eu356 Eu 0.4445 0.59816 0.22824 0.0
C357 C 0.75719 0.63245 0.2988 0.0
N358 N 0.71021 0.59451 0.29645 0.0
C359 C 0.80539 0.54245 0.27638 0.0
C360 C 0.82954 0.6272 0.28786 0.0
C361 C 0.7349 0.54915 0.28844 0.0
C362 C 0.8525 0.58192 0.2752 0.0
C363 C 0.78437 0.71369 0.32132 0.0
C364 C 0.73468 0.67555 0.31506 0.0
C365 C 0.85516 0.70943 0.30852 0.0
C366 C 0.87756 0.66641 0.29161 0.0
Eu367 Eu 0.5902 0.61145 0.31426 0.0
N368 N 0.66555 0.67915 0.32677 0.0
C369 C 0.76219 0.75439 0.34141 0.0
C370 C 0.64418 0.7183 0.34717 0.0
C371 C 0.69217 0.75627 0.355 0.0
H372 H 0.7009 0.51766 0.29162 0.0
H373 H 0.67471 0.78734 0.37091 0.0
H374 H 0.28694 0.6079 0.27387 0.0
H375 H 0.53447 0.45292 0.13525 0.0
H376 H 0.58987 0.72051 0.35717 0.0
H377 H 0.79896 0.78419 0.34704 0.0
H378 H 0.53575 0.53485 0.1625 0.0
H379 H 0.8237 0.50665 0.26872 0.0
H380 H 0.89361 0.7387 0.31253 0.0
H381 H 0.933 0.66312 0.28296 0.0
H382 H 0.18189 0.55709 0.28848 0.0
H383 H 0.90749 0.57648 0.26645 0.0
H384 H 0.44015 0.39401 0.15303 0.0
N385 N 0.33955 0.55311 0.24263 0.0
C386 C 0.33539 0.50742 0.22835 0.0
C387 C 0.22488 0.5426 0.27173 0.0
C388 C 0.27627 0.47697 0.23633 0.0
C389 C 0.28481 0.57131 0.26345 0.0
C390 C 0.22062 0.49523 0.25819 0.0
N391 N 0.44645 0.52152 0.19796 0.0
C392 C 0.49551 0.50912 0.17151 0.0
C393 C 0.38725 0.444 0.1903 0.0
C394 C 0.39073 0.49103 0.20581 0.0
C395 C 0.44088 0.42981 0.16552 0.0
C396 C 0.49431 0.4629 0.15547 0.0
H397 H 0.17364 0.47335 0.2643 0.0
H398 H 0.22959 0.40547 0.2283 0.0
H399 H 0.32648 0.37669 0.18785 0.0
O400 O 0.4351 0.60652 0.1675 0.0
O401 O 0.4397 0.54301 0.27452 0.0
O402 O 0.47968 0.58079 0.32814 0.0
O403 O 0.35806 0.64131 0.20437 0.0
O404 O 0.56124 0.58022 0.21942 0.0
O405 O 0.58389 0.54621 0.27562 0.0
O406 O 0.60507 0.62842 0.37314 0.0
O407 O 0.61744 0.65529 0.26215 0.0
O408 O 0.50831 0.66911 0.23238 0.0
O409 O 0.62296 0.55544 0.35395 0.0
O410 O 0.50432 0.67074 0.31278 0.0
O411 O 0.40695 0.64097 0.27842 0.0
C412 C 0.44114 0.54734 0.31088 0.0
C413 C 0.34104 0.65486 0.13828 0.0
C414 C 0.31209 0.656 0.07207 0.0
C415 C 0.27025 0.69747 0.07781 0.0
C416 C 0.29857 0.69621 0.14337 0.0
C417 C 0.26361 0.7174 0.11324 0.0
C418 C 0.34769 0.63469 0.10242 0.0
C419 C 0.59458 0.54786 0.23958 0.0
C420 C 0.37883 0.63383 0.17043 0.0
C421 C 0.2742 0.42954 0.2221 0.0
C422 C 0.32954 0.41309 0.19917 0.0
C423 C 0.57749 0.67802 0.23722 0.0
C424 C 0.5911 0.56691 0.41784 0.0
C425 C 0.59181 0.56883 0.48591 0.0
C426 C 0.53577 0.53443 0.48597 0.0
C427 C 0.53471 0.53286 0.41848 0.0
C428 C 0.61911 0.58496 0.45166 0.0
C429 C 0.5073 0.51677 0.45244 0.0
C430 C 0.43529 0.67066 0.30345 0.0
C431 C 0.62181 0.58462 0.38258 0.0
H432 H 0.24224 0.71421 0.05476 0.0
H433 H 0.29289 0.71247 0.17063 0.0
H434 H 0.23115 0.74933 0.11739 0.0
H435 H 0.37967 0.6025 0.09812 0.0
H436 H 0.51405 0.5214 0.51198 0.0
H437 H 0.51201 0.51868 0.39286 0.0
H438 H 0.66245 0.61145 0.45139 0.0
H439 H 0.4639 0.49041 0.45276 0.0
C440 C 0.0954 0.93955 0.39052 0.0
C441 C 0.15792 0.91449 0.37883 0.0
C442 C 0.16301 0.96635 0.32562 0.0
C443 C 0.10847 0.99728 0.33911 0.0
N444 N 0.04546 0.0199 0.39568 0.0
N445 N 0.26875 0.92374 0.34456 0.0
C446 C 0.08153 0.98639 0.37533 0.0
C447 C 0.19951 0.93677 0.35091 0.0
N448 N 0.04675 0.91833 0.41335 0.0
N449 N 0.16861 0.95546 0.28897 0.0
H450 H 0.29643 0.9004 0.36223 0.0
H451 H 0.29836 0.93918 0.323 0.0
H452 H 0.12903 0.96481 0.26981 0.0
H453 H 0.20624 0.93059 0.27922 0.0
H454 H 0.99862 0.93508 0.42046 0.0
H455 H 0.05087 0.88225 0.42091 0.0
H456 H 0.02714 0.01259 0.42245 0.0
H457 H 0.04472 0.05639 0.38836 0.0
C458 C 0.36268 0.58913 0.84927 0.0
C459 C 0.31227 0.57295 0.87591 0.0
C460 C 0.33548 0.48878 0.85718 0.0
C461 C 0.37981 0.50583 0.82768 0.0
N462 N 0.41736 0.57435 0.79012 0.0
N463 N 0.24576 0.50823 0.90377 0.0
C464 C 0.38828 0.55653 0.82209 0.0
C465 C 0.29793 0.52284 0.87974 0.0
N466 N 0.38506 0.63637 0.84937 0.0
N467 N 0.32727 0.44011 0.86284 0.0
H468 H 0.21995 0.53253 0.9213 0.0
H469 H 0.22585 0.47294 0.90518 0.0
H470 H 0.34566 0.41406 0.84422 0.0
H471 H 0.30361 0.42542 0.88643 0.0
H472 H 0.4281 0.64887 0.83358 0.0
H473 H 0.36566 0.66208 0.86792 0.0
H474 H 0.41755 0.61105 0.78343 0.0
H475 H 0.43321 0.55302 0.76795 0.0
C476 C 0.69521 0.52759 0.66133 0.0
C477 C 0.684 0.57737 0.66833 0.0
C478 C 0.60439 0.5563 0.71985 0.0
C479 C 0.61075 0.5064 0.71102 0.0
N480 N 0.64376 0.4471 0.66487 0.0
N481 N 0.61396 0.6388 0.69861 0.0
C482 C 0.65088 0.49261 0.67926 0.0
C483 C 0.63355 0.59148 0.69558 0.0
N484 N 0.74972 0.51358 0.63872 0.0
N485 N 0.57394 0.57038 0.75245 0.0
H486 H 0.6358 0.66577 0.68201 0.0
H487 H 0.57172 0.65046 0.71521 0.0
H488 H 0.55369 0.54571 0.77143 0.0
H489 H 0.57524 0.60594 0.76229 0.0
H490 H 0.76435 0.47746 0.63523 0.0
H491 H 0.78428 0.53858 0.62645 0.0
H492 H 0.66765 0.43644 0.64005 0.0
H493 H 0.60723 0.42209 0.67548 0.0
C494 C 0.9012 0.91772 0.18309 0.0
C495 C 0.8427 0.93468 0.16125 0.0
C496 C 0.8805 0.01811 0.17547 0.0
C497 C 0.92923 1.00127 0.20302 0.0
N498 N 0.98128 0.9328 0.23503 0.0
N499 N 0.77135 1.00166 0.14072 0.0
C500 C 0.93951 0.95044 0.20693 0.0
C501 C 0.83134 0.98512 0.15825 0.0
N502 N 0.91889 0.86984 0.1818 0.0
N503 N 0.88211 0.06567 0.16523 0.0
H504 H 0.73368 0.97828 0.12883 0.0
H505 H 0.75608 0.03791 0.14106 0.0
H506 H 0.91962 0.09019 0.17614 0.0
H507 H 0.85189 0.0793 0.14322 0.0
H508 H 0.9655 0.85603 0.19376 0.0
H509 H 0.89034 0.84453 0.16595 0.0
H510 H 0.9831 0.89626 0.24207 0.0
H511 H 0.00924 0.95465 0.25373 0.0
C512 C 0.82099 0.03558 0.66222 0.0
C513 C 0.83827 0.0848 0.66939 0.0
C514 C 0.92568 0.05988 0.71719 0.0
C515 C 0.90908 0.01044 0.70957 0.0
N516 N 0.84802 0.95064 0.67125 0.0
N517 N 0.91144 0.1445 0.70102 0.0
C518 C 0.85979 0.99815 0.68056 0.0
C519 C 0.89255 0.09693 0.6959 0.0
N520 N 0.76301 0.02475 0.64033 0.0
N521 N 0.97258 0.07156 0.74524 0.0
H522 H 0.88562 0.17284 0.68749 0.0
H523 H 0.95572 0.15623 0.71643 0.0
H524 H 0.00442 0.04612 0.75853 0.0
H525 H 0.97922 0.1062 0.75627 0.0
H526 H 0.74105 0.99015 0.63738 0.0
H527 H 0.73319 0.05143 0.62726 0.0
H528 H 0.82052 0.93973 0.64736 0.0
H529 H 0.86842 0.92168 0.68637 0.0
C530 C 0.73038 0.48822 0.17395 0.0
C531 C 0.70624 0.43931 0.17438 0.0
C532 C 0.62611 0.46001 0.22571 0.0
C533 C 0.63903 0.51029 0.22013 0.0
N534 N 0.70516 0.57245 0.18724 0.0
N535 N 0.62192 0.38051 0.1978 0.0
C536 C 0.69063 0.52451 0.19311 0.0
C537 C 0.64985 0.42631 0.19874 0.0
N538 N 0.79504 0.49938 0.15857 0.0
N539 N 0.59744 0.44328 0.25802 0.0
H540 H 0.6415 0.35376 0.18021 0.0
H541 H 0.57575 0.37064 0.21232 0.0
H542 H 0.59098 0.46483 0.2814 0.0
H543 H 0.59161 0.4065 0.26388 0.0
H544 H 0.81887 0.5336 0.16035 0.0
H545 H 0.82881 0.4728 0.14843 0.0
H546 H 0.73555 0.58464 0.16485 0.0
H547 H 0.68524 0.60008 0.20401 0.0
C548 C 0.29527 0.49789 0.3764 0.0
C549 C 0.30593 0.44739 0.37298 0.0
C550 C 0.4002 0.46212 0.32688 0.0
C551 C 0.3952 0.51309 0.33295 0.0
N552 N 0.3392 0.57946 0.36593 0.0
N553 N 0.37673 0.38137 0.34928 0.0
C554 C 0.34378 0.53092 0.35886 0.0
C555 C 0.36119 0.42969 0.34975 0.0
N556 N 0.23597 0.5142 0.39454 0.0
N557 N 0.43984 0.44396 0.29828 0.0
H558 H 0.34733 0.3554 0.36359 0.0
H559 H 0.42282 0.36733 0.33711 0.0
H560 H 0.47201 0.46483 0.28126 0.0
H561 H 0.43584 0.40818 0.2891 0.0
H562 H 0.21984 0.55024 0.39474 0.0
H563 H 0.19907 0.4907 0.40665 0.0
H564 H 0.31015 0.59383 0.38796 0.0
H565 H 0.36662 0.60561 0.35082 0.0
C566 C 0.20206 0.0317 0.87305 0.0
C567 C 0.17305 0.07918 0.87388 0.0
C568 C 0.06382 0.04928 0.8426 0.0
C569 C 0.09543 1.00322 0.8387 0.0
N570 N 0.18466 0.94618 0.85857 0.0
N571 N 0.08296 0.13487 0.85221 0.0
C572 C 0.16155 0.99299 0.85664 0.0
C573 C 0.10516 0.08829 0.8572 0.0
N574 N 0.27078 0.02468 0.88514 0.0
N575 N 0.99303 0.05521 0.83373 0.0
H576 H 0.11219 0.16479 0.86168 0.0
H577 H 0.03868 0.14407 0.83594 0.0
H578 H 0.96072 0.02654 0.82458 0.0
H579 H 0.9647 0.0868 0.83936 0.0
H580 H 0.29881 0.99249 0.88189 0.0
H581 H 0.30233 0.05279 0.89568 0.0
H582 H 0.22892 0.93519 0.87408 0.0
H583 H 0.15587 0.91727 0.84699 0.0
C584 C 0.24538 0.10692 0.97301 0.0
C585 C 0.18929 0.12907 0.95249 0.0
C586 C 0.12024 0.13893 1.00991 0.0
C587 C 0.17668 0.11639 0.02983 0.0
N588 N 0.27926 0.06402 0.02881 0.0
N589 N 0.06814 0.1581 0.94977 0.0
C590 C 0.2339 0.09457 1.01056 0.0
C591 C 0.12437 0.14165 0.97043 0.0
N592 N 0.31236 0.10287 0.95812 0.0
N593 N 0.06558 0.16053 0.02879 0.0
H594 H 0.07189 0.16265 0.9212 0.0
H595 H 0.01701 0.16394 0.96041 0.0
H596 H 0.06048 0.15823 0.05756 0.0
H597 H 0.02726 0.18249 1.01628 0.0
H598 H 0.35686 0.09137 0.97333 0.0
H599 H 0.3254 0.11615 0.93197 0.0
H600 H 0.31894 0.04426 1.0153 0.0
H601 H 0.27185 0.05484 0.05665 0.0
C602 C 0.235 0.42733 0.47395 0.0
C603 C 0.28783 0.40142 0.45396 0.0
C604 C 0.35763 0.39228 0.51161 0.0
C605 C 0.30559 0.42013 0.53083 0.0
N606 N 0.21129 0.47921 0.52652 0.0
N607 N 0.4074 0.36963 0.45171 0.0
C608 C 0.25054 0.44327 0.51043 0.0
C609 C 0.35231 0.38779 0.47213 0.0
N610 N 0.16743 0.43283 0.45974 0.0
N611 N 0.40882 0.36758 0.53094 0.0
H612 H 0.40344 0.36543 0.42299 0.0
H613 H 0.45814 0.36275 0.46278 0.0
H614 H 0.41384 0.36951 0.55975 0.0
H615 H 0.44315 0.34268 0.51859 0.0
H616 H 0.12536 0.44733 0.47512 0.0
H617 H 0.15137 0.41866 0.43416 0.0
H618 H 0.17363 0.49942 0.51178 0.0
H619 H 0.22231 0.49196 0.55332 0.0
C620 C 0.77379 0.42628 0.06958 0.0
C621 C 0.72271 0.40041 0.09099 0.0
C622 C 0.65909 0.37864 0.03316 0.0
C623 C 0.70834 0.40739 1.01229 0.0
N624 N 0.79336 0.47385 1.01436 0.0
N625 N 0.60569 0.36373 0.09348 0.0
C626 C 0.75793 0.43726 0.03204 0.0
C627 C 0.66073 0.38161 0.07279 0.0
N628 N 0.84146 0.43431 0.083 0.0
N629 N 0.61585 0.34508 1.01604 0.0
H630 H 0.60693 0.36546 0.12233 0.0
H631 H 0.55677 0.35249 0.08199 0.0
H632 H 0.61606 0.33859 0.98758 0.0
H633 H 0.58478 0.32014 0.03068 0.0
H634 H 0.88209 0.44977 0.06698 0.0
H635 H 0.85919 0.41958 0.108 0.0
H636 H 0.82781 0.49774 0.02842 0.0
H637 H 0.78207 0.4829 0.9868 0.0
C638 C 0.88822 0.13173 0.57832 0.0
C639 C 0.81471 0.12805 0.58829 0.0
C640 C 0.78148 0.12294 0.52204 0.0
C641 C 0.85501 0.12797 0.5124 0.0
N642 N 0.97869 0.12066 0.53073 0.0
N643 N 0.69308 0.1089 0.57018 0.0
C644 C 0.90842 0.12614 0.54049 0.0
C645 C 0.76233 0.11874 0.56018 0.0
N646 N 0.938 0.14533 0.6042 0.0
N647 N 0.72954 0.12646 0.49521 0.0
H648 H 0.67605 0.10991 0.59771 0.0
H649 H 0.65384 0.09669 0.55158 0.0
H650 H 0.741 0.12928 0.46702 0.0
H651 H 0.67498 0.12953 0.50094 0.0
H652 H 0.99122 0.15378 0.59794 0.0
H653 H 0.92408 0.15246 0.63144 0.0
H654 H 0.01976 0.11508 0.55 0.0
H655 H 0.99435 0.11674 0.50307 0.0
C656 C 0.74285 0.91524 0.0637 0.0
C657 C 0.80227 0.89149 0.0803 0.0
C658 C 0.8576 0.8839 1.01868 0.0
C659 C 0.79995 0.91064 1.00281 0.0
N660 N 0.70175 0.96546 1.0132 0.0
N661 N 0.92233 0.86162 0.07496 0.0
C662 C 0.74763 0.93112 0.02646 0.0
C663 C 0.86213 0.87914 0.05817 0.0
N664 N 0.67937 0.91918 0.08224 0.0
N665 N 0.90489 0.86022 0.99626 0.0
H666 H 0.92552 0.85713 0.10366 0.0
H667 H 0.97032 0.85566 0.06096 0.0
H668 H 0.90229 0.86148 0.96737 0.0
H669 H 0.94321 0.83617 1.00627 0.0
H670 H 0.63233 0.93133 0.06959 0.0
H671 H 0.67196 0.90667 0.1092 0.0
H672 H 0.66626 0.98418 0.03026 0.0
H673 H 0.70498 0.97877 0.98615 0.0
C674 C 0.72537 0.5977 0.56419 0.0
C675 C 0.68219 0.62439 0.58918 0.0
C676 C 0.58151 0.61931 0.54456 0.0
C677 C 0.62246 0.58776 0.52175 0.0
N678 N 0.72964 0.54048 0.51312 0.0
N679 N 0.56918 0.66099 0.60372 0.0
C680 C 0.69344 0.57522 0.53247 0.0
C681 C 0.61006 0.63512 0.57954 0.0
N682 N 0.79788 0.59571 0.56993 0.0
N683 N 0.5169 0.63607 0.53192 0.0
H684 H 0.59104 0.67759 0.62717 0.0
H685 H 0.51378 0.66483 0.60116 0.0
H686 H 0.49486 0.62591 0.50633 0.0
H687 H 0.4875 0.66285 0.54527 0.0
H688 H 0.83346 0.5815 0.55056 0.0
H689 H 0.82315 0.61193 0.59277 0.0
H690 H 0.7784 0.52615 0.52202 0.0
H691 H 0.70793 0.52269 0.48998 0.0
C692 C 0.23903 0.61202 0.98086 0.0
C693 C 0.29637 0.62404 0.95658 0.0
C694 C 0.37298 0.64432 1.01017 0.0
C695 C 0.31427 0.63467 0.03406 0.0
N696 N 0.20134 0.594 0.04374 0.0
N697 N 0.42256 0.63683 0.9481 0.0
C698 C 0.25087 0.61281 1.01982 0.0
C699 C 0.36526 0.63475 0.97141 0.0
N700 N 0.17159 0.6042 0.96683 0.0
N701 N 0.43419 0.66526 0.02413 0.0
H702 H 0.41719 0.62867 0.92001 0.0
H703 H 0.47549 0.64131 0.95707 0.0
H704 H 0.44196 0.6717 0.05244 0.0
H705 H 0.4757 0.67836 1.0076 0.0
H706 H 0.12592 0.60162 0.98331 0.0
H707 H 0.16043 0.60337 0.93846 0.0
H708 H 0.15671 0.57389 0.03502 0.0
H709 H 0.20907 0.59443 0.07249 0.0
C710 C 0.22265 0.9 0.47451 0.0
C711 C 0.17461 0.86625 0.45781 0.0
C712 C 0.12352 0.84703 0.51891 0.0
C713 C 0.17832 0.8756 0.53561 0.0
N714 N 0.26359 0.94078 0.53093 0.0
N715 N 0.07838 0.80814 0.46273 0.0
C716 C 0.222 0.90632 0.51374 0.0
C717 C 0.12285 0.84128 0.47964 0.0
N718 N 0.27359 0.92206 0.45319 0.0
N719 N 0.07369 0.8245 0.54077 0.0
H720 H 0.07759 0.80297 0.43399 0.0
H721 H 0.04458 0.78436 0.47674 0.0
H722 H 0.07416 0.82734 0.56963 0.0
H723 H 0.02878 0.80604 0.53058 0.0
H724 H 0.31565 0.94306 0.46378 0.0
H725 H 0.27585 0.91705 0.42459 0.0
H726 H 0.29315 0.96702 0.51688 0.0
H727 H 0.26322 0.94561 0.55972 0.0
C728 C 0.16106 0.29695 0.32152 0.0
C729 C 0.15728 0.30351 0.36057 0.0
C730 C 0.08902 0.22727 0.36402 0.0
C731 C 0.08608 0.22455 0.32456 0.0
N732 N 0.08877 0.2726 0.26892 0.0
N733 N 0.0921 0.28298 0.41614 0.0
C734 C 0.11273 0.26425 0.30406 0.0
C735 C 0.11309 0.27119 0.38109 0.0
N736 N 0.21261 0.31964 0.30116 0.0
N737 N 0.07221 0.18803 0.38529 0.0
H738 H 0.10314 0.31694 0.42777 0.0
H739 H 0.05773 0.26112 0.43165 0.0
H740 H 0.05774 0.15448 0.37402 0.0
H741 H 0.0793 0.18797 0.41405 0.0
H742 H 0.2149 0.31692 0.27236 0.0
H743 H 0.25659 0.33702 0.31349 0.0
H744 H 0.10302 0.30381 0.25432 0.0
H745 H 0.04901 0.25099 0.25653 0.0
C746 C 0.3693 0.25327 0.87712 0.0
C747 C 0.30869 0.2313 0.85967 0.0
C748 C 0.33791 0.27379 0.80299 0.0
C749 C 0.38982 0.30281 0.82169 0.0
N750 N 0.44196 0.32612 0.88103 0.0
N751 N 0.22384 0.23334 0.80888 0.0
C752 C 0.402 0.2944 0.86021 0.0
C753 C 0.28877 0.24618 0.82371 0.0
N754 N 0.39738 0.23401 0.9088 0.0
N755 N 0.34072 0.26744 0.76569 0.0
H756 H 0.18516 0.21465 0.82413 0.0
H757 H 0.20672 0.24579 0.78298 0.0
H758 H 0.38311 0.2813 0.75037 0.0
H759 H 0.30755 0.24274 0.75163 0.0
H760 H 0.44505 0.24671 0.92083 0.0
H761 H 0.37709 0.20232 0.92059 0.0
H762 H 0.44764 0.32282 0.90974 0.0
H763 H 0.46196 0.35854 0.87043 0.0
C764 C 0.613 0.22144 0.69093 0.0
C765 C 0.68521 0.22842 0.68028 0.0
C766 C 0.68213 0.31151 0.70408 0.0
C767 C 0.61239 0.30267 0.71849 0.0
N768 N 0.51968 0.24477 0.73363 0.0
N769 N 0.79351 0.27645 0.68267 0.0
C770 C 0.57994 0.25632 0.71411 0.0
C771 C 0.72125 0.27253 0.68847 0.0
N772 N 0.57624 0.18142 0.67874 0.0
N773 N 0.71094 0.35705 0.70499 0.0
H774 H 0.8237 0.24842 0.67137 0.0
H775 H 0.82436 0.30582 0.69188 0.0
H776 H 0.68524 0.38595 0.71768 0.0
H777 H 0.75788 0.36673 0.69114 0.0
H778 H 0.52126 0.1765 0.68277 0.0
H779 H 0.59987 0.15533 0.66175 0.0
H780 H 0.49644 0.2103 0.73361 0.0
H781 H 0.49844 0.26825 0.7533 0.0
C782 C 0.80006 0.24681 0.19077 0.0
C783 C 0.84043 0.28647 0.17705 0.0
C784 C 0.95014 0.23938 0.18369 0.0
C785 C 0.91238 0.20472 0.20541 0.0
N786 N 0.80018 0.16194 0.20748 0.0
N787 N 0.95433 0.32175 0.16097 0.0
C788 C 0.83643 0.20455 0.20299 0.0
C789 C 0.91569 0.28316 0.17382 0.0
N790 N 0.72715 0.25014 0.19307 0.0
N791 N 0.01284 0.22748 0.16685 0.0
H792 H 0.9301 0.35385 0.1524 0.0
H793 H 0.01036 0.32285 0.16159 0.0
H794 H 0.03088 0.192 0.16574 0.0
H795 H 0.0397 0.25045 0.14857 0.0
H796 H 0.69524 0.22468 0.20667 0.0
H797 H 0.69924 0.28004 0.18312 0.0
H798 H 0.74597 0.15735 0.20091 0.0
H799 H 0.82652 0.12991 0.21418 0.0
C800 C 0.81784 0.7355 0.71485 0.0
C801 C 0.83117 0.72346 0.67722 0.0
C802 C 0.91982 0.79004 0.67529 0.0
C803 C 0.91108 0.79772 0.71411 0.0
N804 N 0.87572 0.76047 0.77153 0.0
N805 N 0.91064 0.73146 0.62493 0.0
C806 C 0.86707 0.76541 0.73419 0.0
C807 C 0.88699 0.74846 0.65826 0.0
N808 N 0.75735 0.71962 0.73217 0.0
N809 N 0.95735 0.82269 0.65451 0.0
H810 H 0.8904 0.69961 0.61304 0.0
H811 H 0.95503 0.74609 0.61132 0.0
H812 H 0.98049 0.85391 0.66588 0.0
H813 H 0.95988 0.82075 0.62562 0.0
H814 H 0.74474 0.72949 0.75931 0.0
H815 H 0.7168 0.70116 0.71806 0.0
H816 H 0.84879 0.73384 0.78666 0.0
H817 H 0.91686 0.77828 0.78589 0.0
C818 C 0.63222 0.76649 0.15922 0.0
C819 C 0.69012 0.79165 0.17694 0.0
C820 C 0.65604 0.75246 0.23453 0.0
C821 C 0.61156 0.71876 0.21576 0.0
N822 N 0.56638 0.69048 0.15631 0.0
N823 N 0.7684 0.79511 0.23079 0.0
C824 C 0.60189 0.72474 0.1768 0.0
C825 C 0.70604 0.78015 0.21431 0.0
N826 N 0.60385 0.78346 0.12686 0.0
N827 N 0.64381 0.76328 0.27065 0.0
H828 H 0.80945 0.81188 0.21589 0.0
H829 H 0.78107 0.78602 0.25816 0.0
H830 H 0.59847 0.74962 0.28405 0.0
H831 H 0.67079 0.79182 0.28395 0.0
H832 H 0.55837 0.76804 0.11439 0.0
H833 H 0.62086 0.81605 0.11513 0.0
H834 H 0.56248 0.69213 0.12743 0.0
H835 H 0.54821 0.65813 0.16781 0.0
C836 C 0.35668 0.76299 0.37203 0.0
C837 C 0.28261 0.76164 0.3623 0.0
C838 C 0.31305 0.71099 0.30975 0.0
C839 C 0.38406 0.70357 0.32372 0.0
N840 N 0.4566 0.70969 0.38017 0.0
N841 N 0.19 0.71721 0.32961 0.0
C842 C 0.40187 0.72593 0.35837 0.0
C843 C 0.2604 0.72976 0.33381 0.0
N844 N 0.38466 0.79935 0.39348 0.0
N845 N 0.2967 0.7053 0.2731 0.0
H846 H 0.15086 0.72931 0.34808 0.0
H847 H 0.17303 0.69195 0.30968 0.0
H848 H 0.3366 0.70257 0.25308 0.0
H849 H 0.24532 0.71197 0.26259 0.0
H850 H 0.43957 0.80181 0.39936 0.0
H851 H 0.35482 0.82942 0.40147 0.0
H852 H 0.46784 0.72487 0.40618 0.0
H853 H 0.4819 0.67678 0.37541 0.0
C854 C 0.18287 0.72817 0.82459 0.0
C855 C 0.16673 0.71567 0.86173 0.0
C856 C 0.08475 0.78409 0.86471 0.0
C857 C 0.09137 0.79103 0.82575 0.0
N858 N 0.13287 0.75757 0.76731 0.0
N859 N 0.08679 0.72449 0.91369 0.0
C860 C 0.1362 0.7594 0.80517 0.0
C861 C 0.11242 0.74121 0.88071 0.0
N862 N 0.24408 0.71204 0.80821 0.0
N863 N 0.05783 0.81957 0.88702 0.0
H864 H 0.10399 0.6919 0.92521 0.0
H865 H 0.04352 0.74053 0.9272 0.0
H866 H 0.04413 0.85375 0.87716 0.0
H867 H 0.05734 0.81676 0.9159 0.0
H868 H 0.2605 0.72361 0.78202 0.0
H869 H 0.28203 0.69177 0.82253 0.0
H870 H 0.1617 0.73242 0.75178 0.0
H871 H 0.0948 0.77646 0.75195 0.0
loop_
_geom_bond_atom_site_label_1
_geom_bond_atom_site_label_2
_geom_bond_distance
_geom_bond_site_symmetry_2
_ccdc_geom_bond_type
C0 N1 1.317 . S
C0 N2 1.348 . S
C0 C3 1.485 . S
N1 C0 1.317 . S
N1 N5 1.370 . S
N2 C0 1.348 . S
N2 C4 1.346 . S
C3 C0 1.485 . S
C3 H7 0.960 . S
C3 H8 0.961 . S
C3 H9 0.960 . S
C4 N2 1.346 . S
C4 N5 1.307 . S
C4 C6 1.486 . S
N5 N1 1.370 . S
N5 C4 1.307 . S
C6 C4 1.486 . S
C6 H10 0.960 . S
C6 H11 0.960 . S
C6 H12 0.959 . S
H7 C3 0.960 . S
H8 C3 0.961 . S
H9 C3 0.960 . S
H10 C6 0.960 . S
H11 C6 0.960 . S
H12 C6 0.959 . S
C13 N14 1.317 . S
C13 N15 1.348 . S
C13 C16 1.485 . S
N14 C13 1.317 . S
N14 N18 1.370 . S
N15 C13 1.348 . S
N15 C17 1.346 . S
C16 C13 1.485 . S
C16 H20 0.960 . S
C16 H21 0.961 . S
C16 H22 0.960 . S
C17 N15 1.346 . S
C17 N18 1.307 . S
C17 C19 1.486 . S
N18 N14 1.370 . S
N18 C17 1.307 . S
C19 C17 1.486 . S
C19 H23 0.960 . S
C19 H24 0.960 . S
C19 H25 0.959 . S
H20 C16 0.960 . S
H21 C16 0.961 . S
H22 C16 0.960 . S
H23 C19 0.960 . S
H24 C19 0.960 . S
H25 C19 0.959 . S
C26 N27 1.317 . S
C26 N28 1.348 . S
C26 C29 1.485 . S
N27 C26 1.317 . S
N27 N31 1.370 . S
N28 C26 1.348 . S
N28 C30 1.346 . S
C29 C26 1.485 . S
C29 H33 0.960 . S
C29 H34 0.961 . S
C29 H35 0.960 . S
C30 N28 1.346 . S
C30 N31 1.307 . S
C30 C32 1.486 . S
N31 N27 1.370 . S
N31 C30 1.307 . S
C32 C30 1.486 . S
C32 H36 0.960 . S
C32 H37 0.960 . S
C32 H38 0.959 . S
H33 C29 0.960 . S
H34 C29 0.961 . S
H35 C29 0.960 . S
H36 C32 0.960 . S
H37 C32 0.960 . S
H38 C32 0.959 . S
C39 N40 1.317 . S
C39 N41 1.348 . S
C39 C42 1.485 . S
N40 C39 1.317 . S
N40 N44 1.370 . S
N41 C39 1.348 . S
N41 C43 1.346 . S
C42 C39 1.485 . S
C42 H46 0.960 . S
C42 H47 0.961 . S
C42 H48 0.960 . S
C43 N41 1.346 . S
C43 N44 1.307 . S
C43 C45 1.486 . S
N44 N40 1.370 . S
N44 C43 1.307 . S
C45 C43 1.486 . S
C45 H49 0.960 . S
C45 H50 0.960 . S
C45 H51 0.959 . S
H46 C42 0.960 . S
H47 C42 0.961 . S
H48 C42 0.960 . S
H49 C45 0.960 . S
H50 C45 0.960 . S
H51 C45 0.959 . S
C52 N53 1.317 . S
C52 N54 1.348 . S
C52 C55 1.485 . S
N53 C52 1.317 . S
N53 N57 1.370 . S
N54 C52 1.348 . S
N54 C56 1.346 . S
C55 C52 1.485 . S
C55 H59 0.960 . S
C55 H60 0.961 . S
C55 H61 0.960 . S
C56 N54 1.346 . S
C56 N57 1.307 . S
C56 C58 1.486 . S
N57 N53 1.370 . S
N57 C56 1.307 . S
C58 C56 1.486 . S
C58 H62 0.960 . S
C58 H63 0.960 . S
C58 H64 0.959 . S
H59 C55 0.960 . S
H60 C55 0.961 . S
H61 C55 0.960 . S
H62 C58 0.960 . S
H63 C58 0.960 . S
H64 C58 0.959 . S
C65 N66 1.317 . S
C65 N67 1.348 . S
C65 C68 1.485 . S
N66 C65 1.317 . S
N66 N70 1.370 . S
N67 C65 1.348 . S
N67 C69 1.346 . S
C68 C65 1.485 . S
C68 H72 0.960 . S
C68 H73 0.961 . S
C68 H74 0.960 . S
C69 N67 1.346 . S
C69 N70 1.307 . S
C69 C71 1.486 . S
N70 N66 1.370 . S
N70 C69 1.307 . S
C71 C69 1.486 . S
C71 H75 0.960 . S
C71 H76 0.960 . S
C71 H77 0.959 . S
H72 C68 0.960 . S
H73 C68 0.961 . S
H74 C68 0.960 . S
H75 C71 0.960 . S
H76 C71 0.960 . S
H77 C71 0.959 . S
C78 N79 1.317 . S
C78 N80 1.348 . S
C78 C81 1.485 . S
N79 C78 1.317 . S
N79 N83 1.370 . S
N80 C78 1.348 . S
N80 C82 1.346 . S
C81 C78 1.485 . S
C81 H85 0.960 . S
C81 H86 0.961 . S
C81 H87 0.960 . S
C82 N80 1.346 . S
C82 N83 1.307 . S
C82 C84 1.486 . S
N83 N79 1.370 . S
N83 C82 1.307 . S
C84 C82 1.486 . S
C84 H88 0.960 . S
C84 H89 0.960 . S
C84 H90 0.959 . S
H85 C81 0.960 . S
H86 C81 0.961 . S
H87 C81 0.960 . S
H88 C84 0.960 . S
H89 C84 0.960 . S
H90 C84 0.959 . S
C91 N92 1.317 . S
C91 N93 1.348 . S
C91 C94 1.485 . S
N92 C91 1.317 . S
N92 N96 1.370 . S
N93 C91 1.348 . S
N93 C95 1.346 . S
C94 C91 1.485 . S
C94 H98 0.960 . S
C94 H99 0.961 . S
C94 H100 0.960 . S
C95 N93 1.346 . S
C95 N96 1.307 . S
C95 C97 1.486 . S
N96 N92 1.370 . S
N96 C95 1.307 . S
C97 C95 1.486 . S
C97 H101 0.960 . S
C97 H102 0.960 . S
C97 H103 0.959 . S
H98 C94 0.960 . S
H99 C94 0.961 . S
H100 C94 0.960 . S
H101 C97 0.960 . S
H102 C97 0.960 . S
H103 C97 0.959 . S
Eu104 N133 2.600 . S
Eu104 N139 2.562 . S
Eu104 O148 2.462 . S
Eu104 O149 2.373 . S
Eu104 O151 2.432 . S
Eu104 O152 2.291 1_455 S
Eu104 O156 2.335 1_455 S
Eu104 O159 2.372 . S
Eu104 C168 2.787 . S
C105 N106 1.365 . S
C105 C108 1.405 . S
C105 C112 1.448 . S
N106 C105 1.365 . S
N106 C109 1.319 . S
N106 Eu115 2.600 . S
C107 C109 1.397 . S
C107 C110 1.367 . S
C107 H127 0.931 . S
C108 C105 1.405 . S
C108 C110 1.403 . S
C108 C114 1.439 . S
C109 N106 1.319 . S
C109 C107 1.397 . S
C109 H120 0.930 . S
C110 C107 1.367 . S
C110 C108 1.403 . S
C110 H131 0.929 . S
C111 C112 1.430 1_565 S
C111 C113 1.387 . S
C111 C117 1.404 . S
C112 C105 1.448 . S
C112 C111 1.430 1_545 S
C112 N116 1.351 . S
C113 C111 1.387 . S
C113 C114 1.374 1_565 S
C113 H128 0.931 . S
C114 C108 1.439 . S
C114 C113 1.374 1_545 S
C114 H129 0.931 . S
Eu115 N106 2.600 . S
Eu115 N116 2.562 . S
Eu115 O150 2.335 1_655 S
Eu115 O153 2.372 . S
Eu115 O154 2.462 . S
Eu115 O155 2.373 . S
Eu115 O157 2.432 . S
Eu115 O158 2.291 1_655 S
Eu115 C179 2.787 . S
N116 C112 1.351 . S
N116 Eu115 2.562 . S
N116 C118 1.325 1_545 S
C117 C111 1.404 . S
C117 C119 1.366 . S
C117 H125 0.930 . S
C118 N116 1.325 1_565 S
C118 C119 1.416 . S
C118 H124 0.929 . S
C119 C117 1.366 . S
C119 C118 1.416 . S
C119 H121 0.930 . S
H120 C109 0.930 . S
H121 C119 0.930 . S
H122 C137 0.930 . S
H123 C144 0.930 . S
H124 C118 0.929 . S
H125 C117 0.930 . S
H126 C140 0.929 . S
H127 C107 0.931 . S
H128 C113 0.931 . S
H129 C114 0.931 . S
H130 C135 0.931 . S
H131 C110 0.929 . S
H132 C143 0.930 . S
N133 Eu104 2.600 . S
N133 C134 1.365 . S
N133 C137 1.319 . S
C134 N133 1.365 . S
C134 C136 1.405 . S
C134 C142 1.448 . S
C135 H130 0.931 . S
C135 C137 1.397 . S
C135 C138 1.367 . S
C136 C134 1.405 . S
C136 C138 1.403 . S
C136 C169 1.439 . S
C137 H122 0.930 . S
C137 N133 1.319 . S
C137 C135 1.397 . S
C138 C135 1.367 . S
C138 C136 1.403 . S
C138 H145 0.929 . S
N139 Eu104 2.562 . S
N139 C140 1.325 . S
N139 C142 1.351 . S
C140 H126 0.929 . S
C140 N139 1.325 . S
C140 C144 1.416 . S
C141 C142 1.430 . S
C141 C143 1.404 . S
C141 C170 1.387 . S
C142 C134 1.448 . S
C142 N139 1.351 . S
C142 C141 1.430 . S
C143 H132 0.930 . S
C143 C141 1.404 . S
C143 C144 1.366 . S
C144 H123 0.930 . S
C144 C140 1.416 . S
C144 C143 1.366 . S
H145 C138 0.929 . S
H146 C169 0.931 . S
H147 C170 0.931 . S
O148 Eu104 2.462 . S
O148 C168 1.252 . S
O149 Eu104 2.373 . S
O149 C160 1.249 . S
O150 Eu115 2.335 1_455 S
O150 C160 1.264 . S
O151 Eu104 2.432 . S
O151 C168 1.268 . S
O152 Eu104 2.291 1_655 S
O152 C167 1.255 . S
O153 Eu115 2.372 . S
O153 C167 1.257 . S
O154 Eu115 2.462 . S
O154 C179 1.252 . S
O155 Eu115 2.373 . S
O155 C171 1.249 . S
O156 Eu104 2.335 1_655 S
O156 C171 1.264 . S
O157 Eu115 2.432 . S
O157 C179 1.268 . S
O158 Eu115 2.291 1_455 S
O158 C178 1.255 . S
O159 Eu104 2.372 . S
O159 C178 1.257 . S
C160 O149 1.249 . S
C160 O150 1.264 . S
C161 C164 1.382 . S
C161 C166 1.390 . S
C161 C168 1.506 . S
C162 C163 1.398 . S
C162 C166 1.392 . S
C163 C162 1.398 . S
C163 C165 1.372 . S
C163 H180 0.931 . S
C164 C161 1.382 . S
C164 C165 1.390 . S
C164 H181 0.931 . S
C165 C163 1.372 . S
C165 C164 1.390 . S
C165 H182 0.929 1_545 S
C166 C161 1.390 . S
C166 C162 1.392 . S
C166 H183 0.930 . S
C167 O152 1.255 . S
C167 O153 1.257 . S
C168 Eu104 2.787 . S
C168 O148 1.252 . S
C168 O151 1.268 . S
C168 C161 1.506 . S
C169 C136 1.439 . S
C169 H146 0.931 . S
C169 C170 1.374 . S
C170 C141 1.387 . S
C170 H147 0.931 . S
C170 C169 1.374 . S
C171 O155 1.249 . S
C171 O156 1.264 . S
C172 C175 1.382 . S
C172 C176 1.390 . S
C172 C179 1.506 . S
C173 C174 1.398 . S
C173 C176 1.392 . S
C174 C173 1.398 . S
C174 C177 1.372 . S
C174 H184 0.931 . S
C175 C172 1.382 . S
C175 C177 1.390 . S
C175 H185 0.931 . S
C176 C172 1.390 . S
C176 C173 1.392 . S
C176 H186 0.930 . S
C177 C174 1.372 . S
C177 C175 1.390 . S
C177 H187 0.929 . S
C178 O158 1.255 . S
C178 O159 1.257 . S
C179 Eu115 2.787 . S
C179 O154 1.252 . S
C179 O157 1.268 . S
C179 C172 1.506 . S
H180 C163 0.931 . S
H181 C164 0.931 . S
H182 C165 0.929 1_565 S
H183 C166 0.930 . S
H184 C174 0.931 . S
H185 C175 0.931 . S
H186 C176 0.930 . S
H187 C177 0.929 . S
Eu188 N217 2.600 . S
Eu188 N223 2.562 . S
Eu188 O232 2.462 . S
Eu188 O233 2.373 . S
Eu188 O235 2.432 . S
Eu188 O236 2.291 . S
Eu188 O240 2.335 . S
Eu188 O243 2.372 . S
Eu188 C252 2.787 . S
C189 N190 1.365 . S
C189 C192 1.405 . S
C189 C196 1.448 . S
N190 C189 1.365 . S
N190 C193 1.319 . S
N190 Eu199 2.600 . S
C191 C193 1.397 . S
C191 C194 1.367 . S
C191 H211 0.931 . S
C192 C189 1.405 . S
C192 C194 1.403 . S
C192 C198 1.439 . S
C193 N190 1.319 . S
C193 C191 1.397 . S
C193 H204 0.930 . S
C194 C191 1.367 . S
C194 C192 1.403 . S
C194 H215 0.929 . S
C195 C196 1.430 . S
C195 C197 1.387 . S
C195 C201 1.404 . S
C196 C189 1.448 . S
C196 C195 1.430 . S
C196 N200 1.351 . S
C197 C195 1.387 . S
C197 C198 1.374 . S
C197 H212 0.931 . S
C198 C192 1.439 . S
C198 C197 1.374 . S
C198 H213 0.931 . S
Eu199 N190 2.600 . S
Eu199 N200 2.562 . S
Eu199 O234 2.335 . S
Eu199 O237 2.372 . S
Eu199 O238 2.462 . S
Eu199 O239 2.373 . S
Eu199 O241 2.432 . S
Eu199 O242 2.291 . S
Eu199 C263 2.787 . S
N200 C196 1.351 . S
N200 Eu199 2.562 . S
N200 C202 1.325 . S
C201 C195 1.404 . S
C201 C203 1.366 . S
C201 H209 0.930 . S
C202 N200 1.325 . S
C202 C203 1.416 . S
C202 H208 0.929 . S
C203 C201 1.366 . S
C203 C202 1.416 . S
C203 H205 0.930 . S
H204 C193 0.930 . S
H205 C203 0.930 . S
H206 C221 0.930 . S
H207 C228 0.930 . S
H208 C202 0.929 . S
H209 C201 0.930 . S
H210 C224 0.929 . S
H211 C191 0.931 . S
H212 C197 0.931 . S
H213 C198 0.931 . S
H214 C219 0.931 . S
H215 C194 0.929 . S
H216 C227 0.930 . S
N217 Eu188 2.600 . S
N217 C218 1.365 . S
N217 C221 1.319 . S
C218 N217 1.365 . S
C218 C220 1.405 . S
C218 C226 1.448 . S
C219 H214 0.931 . S
C219 C221 1.397 . S
C219 C222 1.367 . S
C220 C218 1.405 . S
C220 C222 1.403 . S
C220 C253 1.439 . S
C221 H206 0.930 . S
C221 N217 1.319 . S
C221 C219 1.397 . S
C222 C219 1.367 . S
C222 C220 1.403 . S
C222 H229 0.929 . S
N223 Eu188 2.562 . S
N223 C224 1.325 . S
N223 C226 1.351 . S
C224 H210 0.929 . S
C224 N223 1.325 . S
C224 C228 1.416 . S
C225 C226 1.430 . S
C225 C227 1.404 . S
C225 C254 1.387 . S
C226 C218 1.448 . S
C226 N223 1.351 . S
C226 C225 1.430 . S
C227 H216 0.930 . S
C227 C225 1.404 . S
C227 C228 1.366 . S
C228 H207 0.930 . S
C228 C224 1.416 . S
C228 C227 1.366 . S
H229 C222 0.929 . S
H230 C253 0.931 . S
H231 C254 0.931 . S
O232 Eu188 2.462 . S
O232 C252 1.252 . S
O233 Eu188 2.373 . S
O233 C244 1.249 . S
O234 Eu199 2.335 . S
O234 C244 1.264 . S
O235 Eu188 2.432 . S
O235 C252 1.268 . S
O236 Eu188 2.291 . S
O236 C251 1.255 . S
O237 Eu199 2.372 . S
O237 C251 1.257 . S
O238 Eu199 2.462 . S
O238 C263 1.252 . S
O239 Eu199 2.373 . S
O239 C255 1.249 . S
O240 Eu188 2.335 . S
O240 C255 1.264 . S
O241 Eu199 2.432 . S
O241 C263 1.268 . S
O242 Eu199 2.291 . S
O242 C262 1.255 . S
O243 Eu188 2.372 . S
O243 C262 1.257 . S
C244 O233 1.249 . S
C244 O234 1.264 . S
C245 C248 1.382 . S
C245 C250 1.390 . S
C245 C252 1.506 . S
C246 C247 1.398 . S
C246 C250 1.392 . S
C247 C246 1.398 . S
C247 C249 1.372 . S
C247 H264 0.931 . S
C248 C245 1.382 . S
C248 C249 1.390 . S
C248 H265 0.931 . S
C249 C247 1.372 . S
C249 C248 1.390 . S
C249 H266 0.929 . S
C250 C245 1.390 . S
C250 C246 1.392 . S
C250 H267 0.930 . S
C251 O236 1.255 . S
C251 O237 1.257 . S
C252 Eu188 2.787 . S
C252 O232 1.252 . S
C252 O235 1.268 . S
C252 C245 1.506 . S
C253 C220 1.439 . S
C253 H230 0.931 . S
C253 C254 1.374 . S
C254 C225 1.387 . S
C254 H231 0.931 . S
C254 C253 1.374 . S
C255 O239 1.249 . S
C255 O240 1.264 . S
C256 C259 1.382 . S
C256 C260 1.390 . S
C256 C263 1.506 . S
C257 C258 1.398 . S
C257 C260 1.392 . S
C258 C257 1.398 . S
C258 C261 1.372 . S
C258 H268 0.931 . S
C259 C256 1.382 . S
C259 C261 1.390 . S
C259 H269 0.931 . S
C260 C256 1.390 . S
C260 C257 1.392 . S
C260 H270 0.930 . S
C261 C258 1.372 . S
C261 C259 1.390 . S
C261 H271 0.929 . S
C262 O242 1.255 . S
C262 O243 1.257 . S
C263 Eu199 2.787 . S
C263 O238 1.252 . S
C263 O241 1.268 . S
C263 C256 1.506 . S
H264 C247 0.931 . S
H265 C248 0.931 . S
H266 C249 0.929 . S
H267 C250 0.930 . S
H268 C258 0.931 . S
H269 C259 0.931 . S
H270 C260 0.930 . S
H271 C261 0.929 . S
Eu272 N301 2.600 . S
Eu272 N307 2.562 . S
Eu272 O316 2.462 . S
Eu272 O317 2.373 . S
Eu272 O319 2.432 . S
Eu272 O320 2.285 1_455 S
Eu272 O324 2.335 1_455 S
Eu272 O327 2.372 . S
Eu272 C336 2.787 . S
C273 N274 1.365 . S
C273 C276 1.405 . S
C273 C280 1.448 . S
N274 C273 1.365 . S
N274 C277 1.319 . S
N274 Eu283 2.600 . S
C275 C277 1.397 . S
C275 C278 1.367 . S
C275 H295 0.931 . S
C276 C273 1.405 . S
C276 C278 1.403 . S
C276 C282 1.439 . S
C277 N274 1.319 . S
C277 C275 1.397 . S
C277 H288 0.930 . S
C278 C275 1.367 . S
C278 C276 1.403 . S
C278 H299 0.929 . S
C279 C280 1.430 . S
C279 C281 1.387 . S
C279 C285 1.404 . S
C280 C273 1.448 . S
C280 C279 1.430 . S
C280 N284 1.351 . S
C281 C279 1.387 . S
C281 C282 1.374 . S
C281 H296 0.931 . S
C282 C276 1.439 . S
C282 C281 1.374 . S
C282 H297 0.931 . S
Eu283 N274 2.600 . S
Eu283 N284 2.562 . S
Eu283 O318 2.335 1_655 S
Eu283 O321 2.372 . S
Eu283 O322 2.462 . S
Eu283 O323 2.373 . S
Eu283 O325 2.432 . S
Eu283 O326 2.291 1_655 S
Eu283 C347 2.787 . S
N284 C280 1.351 . S
N284 Eu283 2.562 . S
N284 C286 1.325 . S
C285 C279 1.404 . S
C285 C287 1.366 . S
C285 H293 0.930 . S
C286 N284 1.325 . S
C286 C287 1.416 . S
C286 H292 0.929 . S
C287 C285 1.366 . S
C287 C286 1.416 . S
C287 H289 0.930 . S
H288 C277 0.930 . S
H289 C287 0.930 . S
H290 C305 0.930 . S
H291 C312 0.930 . S
H292 C286 0.929 . S
H293 C285 0.930 . S
H294 C308 0.929 . S
H295 C275 0.931 . S
H296 C281 0.931 . S
H297 C282 0.931 . S
H298 C303 0.931 . S
H299 C278 0.929 . S
H300 C311 0.930 . S
N301 Eu272 2.600 . S
N301 C302 1.365 . S
N301 C305 1.319 . S
C302 N301 1.365 . S
C302 C304 1.405 . S
C302 C310 1.448 . S
C303 H298 0.931 . S
C303 C305 1.397 . S
C303 C306 1.367 . S
C304 C302 1.405 . S
C304 C306 1.403 . S
C304 C337 1.439 . S
C305 H290 0.930 . S
C305 N301 1.319 . S
C305 C303 1.397 . S
C306 C303 1.367 . S
C306 C304 1.403 . S
C306 H313 0.929 . S
N307 Eu272 2.562 . S
N307 C308 1.325 1_565 S
N307 C310 1.351 . S
C308 H294 0.929 . S
C308 N307 1.325 1_545 S
C308 C312 1.416 . S
C309 C310 1.430 1_545 S
C309 C311 1.404 . S
C309 C338 1.387 . S
C310 C302 1.448 . S
C310 N307 1.351 . S
C310 C309 1.430 1_565 S
C311 H300 0.930 . S
C311 C309 1.404 . S
C311 C312 1.366 . S
C312 H291 0.930 . S
C312 C308 1.416 . S
C312 C311 1.366 . S
H313 C306 0.929 . S
H314 C337 0.931 . S
H315 C338 0.931 . S
O316 Eu272 2.462 . S
O316 C336 1.252 . S
O317 Eu272 2.373 . S
O317 C328 1.249 . S
O318 Eu283 2.335 1_455 S
O318 C328 1.264 . S
O319 Eu272 2.432 . S
O319 C336 1.268 . S
O320 Eu272 2.285 1_655 S
O320 C335 1.262 . S
O321 Eu283 2.372 . S
O321 C335 1.257 . S
O322 Eu283 2.462 . S
O322 C347 1.252 . S
O323 Eu283 2.373 . S
O323 C339 1.249 . S
O324 Eu272 2.335 1_655 S
O324 C339 1.263 . S
O325 Eu283 2.432 . S
O325 C347 1.268 . S
O326 Eu283 2.291 1_455 S
O326 C346 1.255 . S
O327 Eu272 2.372 . S
O327 C346 1.257 . S
C328 O317 1.249 . S
C328 O318 1.264 . S
C329 C332 1.382 . S
C329 C334 1.390 . S
C329 C336 1.506 . S
C330 C331 1.398 . S
C330 C334 1.392 . S
C331 C330 1.398 . S
C331 C333 1.372 . S
C331 H348 0.931 . S
C332 C329 1.382 . S
C332 C333 1.390 . S
C332 H349 0.931 . S
C333 C331 1.372 . S
C333 C332 1.390 . S
C333 H350 0.929 . S
C334 C329 1.390 . S
C334 C330 1.392 . S
C334 H351 0.930 . S
C335 O320 1.262 . S
C335 O321 1.257 . S
C336 Eu272 2.787 . S
C336 O316 1.252 . S
C336 O319 1.268 . S
C336 C329 1.506 . S
C337 C304 1.439 . S
C337 H314 0.931 . S
C337 C338 1.374 1_565 S
C338 C309 1.387 . S
C338 H315 0.931 . S
C338 C337 1.374 1_545 S
C339 O323 1.249 . S
C339 O324 1.263 . S
C340 C343 1.382 . S
C340 C344 1.390 . S
C340 C347 1.506 . S
C341 C342 1.398 . S
C341 C344 1.392 . S
C342 C341 1.398 . S
C342 C345 1.372 . S
C342 H352 0.931 . S
C343 C340 1.382 . S
C343 C345 1.390 . S
C343 H353 0.931 . S
C344 C340 1.390 . S
C344 C341 1.392 . S
C344 H354 0.930 . S
C345 C342 1.372 . S
C345 C343 1.390 . S
C345 H355 0.929 1_565 S
C346 O326 1.255 . S
C346 O327 1.257 . S
C347 Eu283 2.787 . S
C347 O322 1.252 . S
C347 O325 1.268 . S
C347 C340 1.506 . S
H348 C331 0.931 . S
H349 C332 0.931 . S
H350 C333 0.929 . S
H351 C334 0.930 . S
H352 C342 0.931 . S
H353 C343 0.931 . S
H354 C344 0.930 . S
H355 C345 0.929 1_545 S
Eu356 N385 2.600 . S
Eu356 N391 2.562 . S
Eu356 O400 2.462 . S
Eu356 O401 2.373 . S
Eu356 O403 2.432 . S
Eu356 O404 2.291 . S
Eu356 O408 2.335 . S
Eu356 O411 2.372 . S
Eu356 C420 2.787 . S
C357 N358 1.365 . S
C357 C360 1.405 . S
C357 C364 1.448 . S
N358 C357 1.365 . S
N358 C361 1.319 . S
N358 Eu367 2.600 . S
C359 C361 1.397 . S
C359 C362 1.367 . S
C359 H379 0.931 . S
C360 C357 1.405 . S
C360 C362 1.403 . S
C360 C366 1.439 . S
C361 N358 1.319 . S
C361 C359 1.397 . S
C361 H372 0.930 . S
C362 C359 1.367 . S
C362 C360 1.403 . S
C362 H383 0.929 . S
C363 C364 1.430 . S
C363 C365 1.387 . S
C363 C369 1.404 . S
C364 C357 1.448 . S
C364 C363 1.430 . S
C364 N368 1.351 . S
C365 C363 1.387 . S
C365 C366 1.374 . S
C365 H380 0.931 . S
C366 C360 1.439 . S
C366 C365 1.374 . S
C366 H381 0.931 . S
Eu367 N358 2.600 . S
Eu367 N368 2.562 . S
Eu367 O402 2.335 . S
Eu367 O405 2.372 . S
Eu367 O406 2.462 . S
Eu367 O407 2.373 . S
Eu367 O409 2.432 . S
Eu367 O410 2.291 . S
Eu367 C431 2.787 . S
N368 C364 1.351 . S
N368 Eu367 2.562 . S
N368 C370 1.325 . S
C369 C363 1.404 . S
C369 C371 1.366 . S
C369 H377 0.930 . S
C370 N368 1.325 . S
C370 C371 1.416 . S
C370 H376 0.929 . S
C371 C369 1.366 . S
C371 C370 1.416 . S
C371 H373 0.930 . S
H372 C361 0.930 . S
H373 C371 0.930 . S
H374 C389 0.930 . S
H375 C396 0.930 . S
H376 C370 0.929 . S
H377 C369 0.930 . S
H378 C392 0.929 . S
H379 C359 0.931 . S
H380 C365 0.931 . S
H381 C366 0.931 . S
H382 C387 0.931 . S
H383 C362 0.929 . S
H384 C395 0.930 . S
N385 Eu356 2.600 . S
N385 C386 1.365 . S
N385 C389 1.319 . S
C386 N385 1.365 . S
C386 C388 1.405 . S
C386 C394 1.448 . S
C387 H382 0.931 . S
C387 C389 1.397 . S
C387 C390 1.367 . S
C388 C386 1.405 . S
C388 C390 1.403 . S
C388 C421 1.439 . S
C389 H374 0.930 . S
C389 N385 1.319 . S
C389 C387 1.397 . S
C390 C387 1.367 . S
C390 C388 1.403 . S
C390 H397 0.929 . S
N391 Eu356 2.562 . S
N391 C392 1.325 . S
N391 C394 1.351 . S
C392 H378 0.929 . S
C392 N391 1.325 . S
C392 C396 1.416 . S
C393 C394 1.430 . S
C393 C395 1.404 . S
C393 C422 1.387 . S
C394 C386 1.448 . S
C394 N391 1.351 . S
C394 C393 1.430 . S
C395 H384 0.930 . S
C395 C393 1.404 . S
C395 C396 1.366 . S
C396 H375 0.930 . S
C396 C392 1.416 . S
C396 C395 1.366 . S
H397 C390 0.929 . S
H398 C421 0.931 . S
H399 C422 0.931 . S
O400 Eu356 2.462 . S
O400 C420 1.252 . S
O401 Eu356 2.373 . S
O401 C412 1.249 . S
O402 Eu367 2.335 . S
O402 C412 1.264 . S
O403 Eu356 2.432 . S
O403 C420 1.268 . S
O404 Eu356 2.291 . S
O404 C419 1.255 . S
O405 Eu367 2.372 . S
O405 C419 1.257 . S
O406 Eu367 2.462 . S
O406 C431 1.252 . S
O407 Eu367 2.373 . S
O407 C423 1.249 . S
O408 Eu356 2.335 . S
O408 C423 1.264 . S
O409 Eu367 2.432 . S
O409 C431 1.268 . S
O410 Eu367 2.291 . S
O410 C430 1.255 . S
O411 Eu356 2.372 . S
O411 C430 1.257 . S
C412 O401 1.249 . S
C412 O402 1.264 . S
C413 C416 1.382 . S
C413 C418 1.390 . S
C413 C420 1.506 . S
C414 C415 1.398 . S
C414 C418 1.392 . S
C415 C414 1.398 . S
C415 C417 1.372 . S
C415 H432 0.931 . S
C416 C413 1.382 . S
C416 C417 1.390 . S
C416 H433 0.931 . S
C417 C415 1.372 . S
C417 C416 1.390 . S
C417 H434 0.929 . S
C418 C413 1.390 . S
C418 C414 1.392 . S
C418 H435 0.930 . S
C419 O404 1.255 . S
C419 O405 1.257 . S
C420 Eu356 2.787 . S
C420 O400 1.252 . S
C420 O403 1.268 . S
C420 C413 1.506 . S
C421 C388 1.439 . S
C421 H398 0.931 . S
C421 C422 1.374 . S
C422 C393 1.387 . S
C422 H399 0.931 . S
C422 C421 1.374 . S
C423 O407 1.249 . S
C423 O408 1.264 . S
C424 C427 1.382 . S
C424 C428 1.390 . S
C424 C431 1.506 . S
C425 C426 1.398 . S
C425 C428 1.392 . S
C426 C425 1.398 . S
C426 C429 1.372 . S
C426 H436 0.931 . S
C427 C424 1.382 . S
C427 C429 1.390 . S
C427 H437 0.931 . S
C428 C424 1.390 . S
C428 C425 1.392 . S
C428 H438 0.930 . S
C429 C426 1.372 . S
C429 C427 1.390 . S
C429 H439 0.929 . S
C430 O410 1.255 . S
C430 O411 1.257 . S
C431 Eu367 2.787 . S
C431 O406 1.252 . S
C431 O409 1.268 . S
C431 C424 1.506 . S
H432 C415 0.931 . S
H433 C416 0.931 . S
H434 C417 0.929 . S
H435 C418 0.930 . S
H436 C426 0.931 . S
H437 C427 0.931 . S
H438 C428 0.930 . S
H439 C429 0.929 . S
C440 C441 1.363 . S
C440 C446 1.379 . S
C440 N448 1.356 . S
C441 C440 1.363 . S
C441 C447 1.363 . S
C442 C443 1.363 . S
C442 C447 1.379 . S
C442 N449 1.356 . S
C443 C442 1.363 . S
C443 C446 1.363 . S
N444 C446 1.356 1_545 S
N444 H456 0.984 . S
N444 H457 0.985 . S
N445 C447 1.356 . S
N445 H450 0.984 . S
N445 H451 0.985 . S
C446 C440 1.379 . S
C446 C443 1.363 . S
C446 N444 1.356 1_565 S
C447 C441 1.363 . S
C447 C442 1.379 . S
C447 N445 1.356 . S
N448 C440 1.356 . S
N448 H454 0.984 . S
N448 H455 0.984 . S
N449 C442 1.356 . S
N449 H452 0.984 1_565 S
N449 H453 0.985 . S
H450 N445 0.984 . S
H451 N445 0.985 . S
H452 N449 0.984 1_545 S
H453 N449 0.985 . S
H454 N448 0.984 . S
H455 N448 0.984 . S
H456 N444 0.984 . S
H457 N444 0.985 . S
C458 C459 1.363 . S
C458 C464 1.379 . S
C458 N466 1.356 . S
C459 C458 1.363 . S
C459 C465 1.363 . S
C460 C461 1.363 . S
C460 C465 1.379 . S
C460 N467 1.356 . S
C461 C460 1.363 . S
C461 C464 1.363 . S
N462 C464 1.356 . S
N462 H474 0.984 . S
N462 H475 0.985 . S
N463 C465 1.356 . S
N463 H468 0.984 . S
N463 H469 0.985 . S
C464 C458 1.379 . S
C464 C461 1.363 . S
C464 N462 1.356 . S
C465 C459 1.363 . S
C465 C460 1.379 . S
C465 N463 1.356 . S
N466 C458 1.356 . S
N466 H472 0.984 . S
N466 H473 0.984 . S
N467 C460 1.356 . S
N467 H470 0.984 . S
N467 H471 0.985 . S
H468 N463 0.984 . S
H469 N463 0.985 . S
H470 N467 0.984 . S
H471 N467 0.985 . S
H472 N466 0.984 . S
H473 N466 0.984 . S
H474 N462 0.984 . S
H475 N462 0.985 . S
C476 C477 1.363 . S
C476 C482 1.379 . S
C476 N484 1.356 . S
C477 C476 1.363 . S
C477 C483 1.363 . S
C478 C479 1.363 . S
C478 C483 1.379 . S
C478 N485 1.356 . S
C479 C478 1.363 . S
C479 C482 1.363 . S
N480 C482 1.356 . S
N480 H492 0.984 . S
N480 H493 0.985 . S
N481 C483 1.356 . S
N481 H486 0.984 . S
N481 H487 0.985 . S
C482 C476 1.379 . S
C482 C479 1.363 . S
C482 N480 1.356 . S
C483 C477 1.363 . S
C483 C478 1.379 . S
C483 N481 1.356 . S
N484 C476 1.356 . S
N484 H490 0.984 . S
N484 H491 0.984 . S
N485 C478 1.356 . S
N485 H488 0.984 . S
N485 H489 0.985 . S
H486 N481 0.984 . S
H487 N481 0.985 . S
H488 N485 0.984 . S
H489 N485 0.985 . S
H490 N484 0.984 . S
H491 N484 0.984 . S
H492 N480 0.984 . S
H493 N480 0.985 . S
C494 C495 1.363 . S
C494 C500 1.379 . S
C494 N502 1.356 . S
C495 C494 1.363 . S
C495 C501 1.363 . S
C496 C497 1.363 1_545 S
C496 C501 1.379 1_545 S
C496 N503 1.356 . S
C497 C496 1.363 1_565 S
C497 C500 1.363 . S
N498 C500 1.356 . S
N498 H510 0.984 1_655 S
N498 H511 0.985 . S
N499 C501 1.356 . S
N499 H504 0.984 . S
N499 H505 0.985 . S
C500 C494 1.379 . S
C500 C497 1.363 . S
C500 N498 1.356 . S
C501 C495 1.363 . S
C501 C496 1.379 1_565 S
C501 N499 1.356 . S
N502 C494 1.356 . S
N502 H508 0.984 . S
N502 H509 0.984 . S
N503 C496 1.356 . S
N503 H506 0.984 . S
N503 H507 0.985 . S
H504 N499 0.984 . S
H505 N499 0.985 . S
H506 N503 0.984 . S
H507 N503 0.985 . S
H508 N502 0.984 . S
H509 N502 0.984 . S
H510 N498 0.984 1_455 S
H511 N498 0.985 . S
C512 C513 1.363 . S
C512 C518 1.379 1_545 S
C512 N520 1.356 . S
C513 C512 1.363 . S
C513 C519 1.363 . S
C514 C515 1.363 . S
C514 C519 1.379 . S
C514 N521 1.356 . S
C515 C514 1.363 . S
C515 C518 1.363 1_545 S
N516 C518 1.356 . S
N516 H528 0.984 . S
N516 H529 0.985 . S
N517 C519 1.356 . S
N517 H522 0.984 . S
N517 H523 0.985 . S
C518 C512 1.379 1_565 S
C518 C515 1.363 1_565 S
C518 N516 1.356 . S
C519 C513 1.363 . S
C519 C514 1.379 . S
C519 N517 1.356 . S
N520 C512 1.356 . S
N520 H526 0.984 . S
N520 H527 0.984 . S
N521 C514 1.356 . S
N521 H524 0.984 . S
N521 H525 0.985 1_655 S
H522 N517 0.984 . S
H523 N517 0.985 . S
H524 N521 0.984 . S
H525 N521 0.985 1_455 S
H526 N520 0.984 . S
H527 N520 0.984 . S
H528 N516 0.984 . S
H529 N516 0.985 . S
C530 C531 1.363 . S
C530 C536 1.379 . S
C530 N538 1.356 . S
C531 C530 1.363 . S
C531 C537 1.363 . S
C532 C533 1.363 . S
C532 C537 1.379 . S
C532 N539 1.356 . S
C533 C532 1.363 . S
C533 C536 1.363 . S
N534 C536 1.356 . S
N534 H546 0.984 . S
N534 H547 0.985 . S
N535 C537 1.356 . S
N535 H540 0.984 . S
N535 H541 0.985 . S
C536 C530 1.379 . S
C536 C533 1.363 . S
C536 N534 1.356 . S
C537 C531 1.363 . S
C537 C532 1.379 . S
C537 N535 1.356 . S
N538 C530 1.356 . S
N538 H544 0.984 . S
N538 H545 0.984 . S
N539 C532 1.356 . S
N539 H542 0.984 . S
N539 H543 0.985 . S
H540 N535 0.984 . S
H541 N535 0.985 . S
H542 N539 0.984 . S
H543 N539 0.985 . S
H544 N538 0.984 . S
H545 N538 0.984 . S
H546 N534 0.984 . S
H547 N534 0.985 . S
C548 C549 1.363 . S
C548 C554 1.379 . S
C548 N556 1.356 . S
C549 C548 1.363 . S
C549 C555 1.363 . S
C550 C551 1.363 . S
C550 C555 1.379 . S
C550 N557 1.356 . S
C551 C550 1.363 . S
C551 C554 1.363 . S
N552 C554 1.356 . S
N552 H564 0.984 . S
N552 H565 0.985 . S
N553 C555 1.356 . S
N553 H558 0.984 . S
N553 H559 0.985 . S
C554 C548 1.379 . S
C554 C551 1.363 . S
C554 N552 1.356 . S
C555 C549 1.363 . S
C555 C550 1.379 . S
C555 N553 1.356 . S
N556 C548 1.356 . S
N556 H562 0.984 . S
N556 H563 0.984 . S
N557 C550 1.356 . S
N557 H560 0.984 . S
N557 H561 0.985 . S
H558 N553 0.984 . S
H559 N553 0.985 . S
H560 N557 0.984 . S
H561 N557 0.985 . S
H562 N556 0.984 . S
H563 N556 0.984 . S
H564 N552 0.984 . S
H565 N552 0.985 . S
C566 C567 1.363 . S
C566 C572 1.379 . S
C566 N574 1.356 . S
C567 C566 1.363 . S
C567 C573 1.363 . S
C568 C569 1.363 . S
C568 C573 1.379 . S
C568 N575 1.356 . S
C569 C568 1.363 . S
C569 C572 1.363 . S
N570 C572 1.356 1_565 S
N570 H582 0.984 . S
N570 H583 0.985 . S
N571 C573 1.356 . S
N571 H576 0.984 . S
N571 H577 0.985 . S
C572 C566 1.379 . S
C572 C569 1.363 . S
C572 N570 1.356 1_545 S
C573 C567 1.363 . S
C573 C568 1.379 . S
C573 N571 1.356 . S
N574 C566 1.356 . S
N574 H580 0.984 . S
N574 H581 0.984 . S
N575 C568 1.356 . S
N575 H578 0.984 1_455 S
N575 H579 0.985 1_455 S
H576 N571 0.984 . S
H577 N571 0.985 . S
H578 N575 0.984 1_655 S
H579 N575 0.985 1_655 S
H580 N574 0.984 . S
H581 N574 0.984 . S
H582 N570 0.984 . S
H583 N570 0.985 . S
C584 C585 1.363 . S
C584 C590 1.379 . S
C584 N592 1.356 . S
C585 C584 1.363 . S
C585 C591 1.363 . S
C586 C587 1.363 . S
C586 C591 1.379 1_554 S
C586 N593 1.356 . S
C587 C586 1.363 . S
C587 C590 1.363 1_554 S
N588 C590 1.356 . S
N588 H600 0.984 . S
N588 H601 0.985 1_556 S
N589 C591 1.356 . S
N589 H594 0.984 . S
N589 H595 0.985 . S
C590 C584 1.379 . S
C590 C587 1.363 1_556 S
C590 N588 1.356 . S
C591 C585 1.363 . S
C591 C586 1.379 1_556 S
C591 N589 1.356 . S
N592 C584 1.356 . S
N592 H598 0.984 . S
N592 H599 0.984 . S
N593 C586 1.356 . S
N593 H596 0.984 . S
N593 H597 0.985 . S
H594 N589 0.984 . S
H595 N589 0.985 . S
H596 N593 0.984 . S
H597 N593 0.985 . S
H598 N592 0.984 . S
H599 N592 0.984 . S
H600 N588 0.984 . S
H601 N588 0.985 1_554 S
C602 C603 1.363 . S
C602 C608 1.379 . S
C602 N610 1.356 . S
C603 C602 1.363 . S
C603 C609 1.363 . S
C604 C605 1.363 . S
C604 C609 1.379 . S
C604 N611 1.356 . S
C605 C604 1.363 . S
C605 C608 1.363 . S
N606 C608 1.356 . S
N606 H618 0.984 . S
N606 H619 0.985 . S
N607 C609 1.356 . S
N607 H612 0.984 . S
N607 H613 0.985 . S
C608 C602 1.379 . S
C608 C605 1.363 . S
C608 N606 1.356 . S
C609 C603 1.363 . S
C609 C604 1.379 . S
C609 N607 1.356 . S
N610 C602 1.356 . S
N610 H616 0.984 . S
N610 H617 0.984 . S
N611 C604 1.356 . S
N611 H614 0.984 . S
N611 H615 0.985 . S
H612 N607 0.984 . S
H613 N607 0.985 . S
H614 N611 0.984 . S
H615 N611 0.985 . S
H616 N610 0.984 . S
H617 N610 0.984 . S
H618 N606 0.984 . S
H619 N606 0.985 . S
C620 C621 1.363 . S
C620 C626 1.379 . S
C620 N628 1.356 . S
C621 C620 1.363 . S
C621 C627 1.363 . S
C622 C623 1.363 . S
C622 C627 1.379 1_556 S
C622 N629 1.356 . S
C623 C622 1.363 . S
C623 C626 1.363 1_556 S
N624 C626 1.356 . S
N624 H636 0.984 . S
N624 H637 0.985 1_554 S
N625 C627 1.356 . S
N625 H630 0.984 . S
N625 H631 0.985 . S
C626 C620 1.379 . S
C626 C623 1.363 1_554 S
C626 N624 1.356 . S
C627 C621 1.363 . S
C627 C622 1.379 1_554 S
C627 N625 1.356 . S
N628 C620 1.356 . S
N628 H634 0.984 . S
N628 H635 0.984 . S
N629 C622 1.356 . S
N629 H632 0.984 . S
N629 H633 0.985 . S
H630 N625 0.984 . S
H631 N625 0.985 . S
H632 N629 0.984 . S
H633 N629 0.985 . S
H634 N628 0.984 . S
H635 N628 0.984 . S
H636 N624 0.984 . S
H637 N624 0.985 1_556 S
C638 C639 1.363 . S
C638 C644 1.379 . S
C638 N646 1.356 . S
C639 C638 1.363 . S
C639 C645 1.363 . S
C640 C641 1.363 . S
C640 C645 1.379 . S
C640 N647 1.356 . S
C641 C640 1.363 . S
C641 C644 1.363 . S
N642 C644 1.356 . S
N642 H654 0.988 . S
N642 H655 0.985 . S
N643 C645 1.356 . S
N643 H648 0.984 . S
N643 H649 0.985 . S
C644 C638 1.379 . S
C644 C641 1.363 . S
C644 N642 1.356 . S
C645 C639 1.363 . S
C645 C640 1.379 . S
C645 N643 1.356 . S
N646 C638 1.356 . S
N646 H652 0.984 . S
N646 H653 0.984 . S
N647 C640 1.356 . S
N647 H650 0.984 . S
N647 H651 0.985 . S
H648 N643 0.984 . S
H649 N643 0.985 . S
H650 N647 0.984 . S
H651 N647 0.985 . S
H652 N646 0.984 . S
H653 N646 0.984 . S
H654 N642 0.988 . S
H655 N642 0.985 . S
C656 C657 1.363 . S
C656 C662 1.379 . S
C656 N664 1.356 . S
C657 C656 1.363 . S
C657 C663 1.363 . S
C658 C659 1.363 1_554 S
C658 C663 1.379 . S
C658 N665 1.356 1_554 S
C659 C658 1.363 1_556 S
C659 C662 1.363 1_556 S
N660 C662 1.356 1_556 S
N660 H672 0.984 . S
N660 H673 0.985 . S
N661 C663 1.356 . S
N661 H666 0.984 . S
N661 H667 0.985 . S
C662 C656 1.379 . S
C662 C659 1.363 1_554 S
C662 N660 1.356 1_554 S
C663 C657 1.363 . S
C663 C658 1.379 . S
C663 N661 1.356 . S
N664 C656 1.356 . S
N664 H670 0.984 . S
N664 H671 0.984 . S
N665 C658 1.356 1_556 S
N665 H668 0.984 . S
N665 H669 0.985 . S
H666 N661 0.984 . S
H667 N661 0.985 . S
H668 N665 0.984 . S
H669 N665 0.985 . S
H670 N664 0.984 . S
H671 N664 0.984 . S
H672 N660 0.984 . S
H673 N660 0.985 . S
C674 C675 1.363 . S
C674 C680 1.379 . S
C674 N682 1.356 . S
C675 C674 1.363 . S
C675 C681 1.363 . S
C676 C677 1.363 . S
C676 C681 1.379 . S
C676 N683 1.356 . S
C677 C676 1.363 . S
C677 C680 1.363 . S
N678 C680 1.356 . S
N678 H690 0.984 . S
N678 H691 0.985 . S
N679 C681 1.356 . S
N679 H684 0.984 . S
N679 H685 0.985 . S
C680 C674 1.379 . S
C680 C677 1.363 . S
C680 N678 1.356 . S
C681 C675 1.363 . S
C681 C676 1.379 . S
C681 N679 1.356 . S
N682 C674 1.356 . S
N682 H688 0.984 . S
N682 H689 0.984 . S
N683 C676 1.356 . S
N683 H686 0.984 . S
N683 H687 0.985 . S
H684 N679 0.984 . S
H685 N679 0.985 . S
H686 N683 0.984 . S
H687 N683 0.985 . S
H688 N682 0.984 . S
H689 N682 0.984 . S
H690 N678 0.984 . S
H691 N678 0.985 . S
C692 C693 1.363 . S
C692 C698 1.379 . S
C692 N700 1.356 . S
C693 C692 1.363 . S
C693 C699 1.363 . S
C694 C695 1.363 1_556 S
C694 C699 1.379 . S
C694 N701 1.356 1_556 S
C695 C694 1.363 1_554 S
C695 C698 1.363 1_554 S
N696 C698 1.356 1_554 S
N696 H708 0.984 . S
N696 H709 0.985 . S
N697 C699 1.356 . S
N697 H702 0.984 . S
N697 H703 0.985 . S
C698 C692 1.379 . S
C698 C695 1.363 1_556 S
C698 N696 1.356 1_556 S
C699 C693 1.363 . S
C699 C694 1.379 . S
C699 N697 1.356 . S
N700 C692 1.356 . S
N700 H706 0.984 . S
N700 H707 0.984 . S
N701 C694 1.356 1_554 S
N701 H704 0.984 . S
N701 H705 0.985 . S
H702 N697 0.984 . S
H703 N697 0.985 . S
H704 N701 0.984 . S
H705 N701 0.985 . S
H706 N700 0.984 . S
H707 N700 0.984 . S
H708 N696 0.984 . S
H709 N696 0.985 . S
C710 C711 1.363 . S
C710 C716 1.379 . S
C710 N718 1.356 . S
C711 C710 1.363 . S
C711 C717 1.363 . S
C712 C713 1.363 . S
C712 C717 1.379 . S
C712 N719 1.356 . S
C713 C712 1.363 . S
C713 C716 1.363 . S
N714 C716 1.356 . S
N714 H726 0.984 . S
N714 H727 0.985 . S
N715 C717 1.356 . S
N715 H720 0.984 . S
N715 H721 0.985 . S
C716 C710 1.379 . S
C716 C713 1.363 . S
C716 N714 1.356 . S
C717 C711 1.363 . S
C717 C712 1.379 . S
C717 N715 1.356 . S
N718 C710 1.356 . S
N718 H724 0.984 . S
N718 H725 0.984 . S
N719 C712 1.356 . S
N719 H722 0.984 . S
N719 H723 0.985 . S
H720 N715 0.984 . S
H721 N715 0.985 . S
H722 N719 0.984 . S
H723 N719 0.985 . S
H724 N718 0.984 . S
H725 N718 0.984 . S
H726 N714 0.984 . S
H727 N714 0.985 . S
C728 C729 1.363 . S
C728 C734 1.379 . S
C728 N736 1.356 . S
C729 C728 1.363 . S
C729 C735 1.363 . S
C730 C731 1.363 . S
C730 C735 1.379 . S
C730 N737 1.356 . S
C731 C730 1.363 . S
C731 C734 1.363 . S
N732 C734 1.356 . S
N732 H744 0.984 . S
N732 H745 0.985 . S
N733 C735 1.356 . S
N733 H738 0.984 . S
N733 H739 0.985 . S
C734 C728 1.379 . S
C734 C731 1.363 . S
C734 N732 1.356 . S
C735 C729 1.363 . S
C735 C730 1.379 . S
C735 N733 1.356 . S
N736 C728 1.356 . S
N736 H742 0.984 . S
N736 H743 0.984 . S
N737 C730 1.356 . S
N737 H740 0.984 . S
N737 H741 0.985 . S
H738 N733 0.984 . S
H739 N733 0.985 . S
H740 N737 0.984 . S
H741 N737 0.985 . S
H742 N736 0.984 . S
H743 N736 0.984 . S
H744 N732 0.984 . S
H745 N732 0.985 . S
C746 C747 1.363 . S
C746 C752 1.379 . S
C746 N754 1.356 . S
C747 C746 1.363 . S
C747 C753 1.363 . S
C748 C749 1.363 . S
C748 C753 1.379 . S
C748 N755 1.356 . S
C749 C748 1.363 . S
C749 C752 1.363 . S
N750 C752 1.356 . S
N750 H762 0.984 . S
N750 H763 0.985 . S
N751 C753 1.356 . S
N751 H756 0.984 . S
N751 H757 0.985 . S
C752 C746 1.379 . S
C752 C749 1.363 . S
C752 N750 1.356 . S
C753 C747 1.363 . S
C753 C748 1.379 . S
C753 N751 1.356 . S
N754 C746 1.356 . S
N754 H760 0.984 . S
N754 H761 0.984 . S
N755 C748 1.356 . S
N755 H758 0.984 . S
N755 H759 0.985 . S
H756 N751 0.984 . S
H757 N751 0.985 . S
H758 N755 0.984 . S
H759 N755 0.985 . S
H760 N754 0.984 . S
H761 N754 0.984 . S
H762 N750 0.984 . S
H763 N750 0.985 . S
C764 C765 1.363 . S
C764 C770 1.379 . S
C764 N772 1.356 . S
C765 C764 1.363 . S
C765 C771 1.363 . S
C766 C767 1.363 . S
C766 C771 1.379 . S
C766 N773 1.356 . S
C767 C766 1.363 . S
C767 C770 1.363 . S
N768 C770 1.356 . S
N768 H780 0.984 . S
N768 H781 0.985 . S
N769 C771 1.356 . S
N769 H774 0.984 . S
N769 H775 0.985 . S
C770 C764 1.379 . S
C770 C767 1.363 . S
C770 N768 1.356 . S
C771 C765 1.363 . S
C771 C766 1.379 . S
C771 N769 1.356 . S
N772 C764 1.356 . S
N772 H778 0.984 . S
N772 H779 0.984 . S
N773 C766 1.356 . S
N773 H776 0.984 . S
N773 H777 0.985 . S
H774 N769 0.984 . S
H775 N769 0.985 . S
H776 N773 0.984 . S
H777 N773 0.985 . S
H778 N772 0.984 . S
H779 N772 0.984 . S
H780 N768 0.984 . S
H781 N768 0.985 . S
C782 C783 1.363 . S
C782 C788 1.379 . S
C782 N790 1.356 . S
C783 C782 1.363 . S
C783 C789 1.363 . S
C784 C785 1.363 . S
C784 C789 1.379 . S
C784 N791 1.356 . S
C785 C784 1.363 . S
C785 C788 1.363 . S
N786 C788 1.356 . S
N786 H798 0.984 . S
N786 H799 0.985 . S
N787 C789 1.356 . S
N787 H792 0.984 . S
N787 H793 0.985 . S
C788 C782 1.379 . S
C788 C785 1.363 . S
C788 N786 1.356 . S
C789 C783 1.363 . S
C789 C784 1.379 . S
C789 N787 1.356 . S
N790 C782 1.356 . S
N790 H796 0.984 . S
N790 H797 0.984 . S
N791 C784 1.356 . S
N791 H794 0.984 1_655 S
N791 H795 0.985 1_655 S
H792 N787 0.984 . S
H793 N787 0.985 . S
H794 N791 0.984 1_455 S
H795 N791 0.985 1_455 S
H796 N790 0.984 . S
H797 N790 0.984 . S
H798 N786 0.984 . S
H799 N786 0.985 . S
C800 C801 1.363 . S
C800 C806 1.379 . S
C800 N808 1.356 . S
C801 C800 1.363 . S
C801 C807 1.363 . S
C802 C803 1.363 . S
C802 C807 1.379 . S
C802 N809 1.356 . S
C803 C802 1.363 . S
C803 C806 1.363 . S
N804 C806 1.356 . S
N804 H816 0.984 . S
N804 H817 0.985 . S
N805 C807 1.356 . S
N805 H810 0.984 . S
N805 H811 0.985 . S
C806 C800 1.379 . S
C806 C803 1.363 . S
C806 N804 1.356 . S
C807 C801 1.363 . S
C807 C802 1.379 . S
C807 N805 1.356 . S
N808 C800 1.356 . S
N808 H814 0.984 . S
N808 H815 0.984 . S
N809 C802 1.356 . S
N809 H812 0.984 . S
N809 H813 0.985 . S
H810 N805 0.984 . S
H811 N805 0.985 . S
H812 N809 0.984 . S
H813 N809 0.985 . S
H814 N808 0.984 . S
H815 N808 0.984 . S
H816 N804 0.984 . S
H817 N804 0.985 . S
C818 C819 1.363 . S
C818 C824 1.379 . S
C818 N826 1.356 . S
C819 C818 1.363 . S
C819 C825 1.363 . S
C820 C821 1.363 . S
C820 C825 1.379 . S
C820 N827 1.356 . S
C821 C820 1.363 . S
C821 C824 1.363 . S
N822 C824 1.356 . S
N822 H834 0.984 . S
N822 H835 0.985 . S
N823 C825 1.356 . S
N823 H828 0.984 . S
N823 H829 0.985 . S
C824 C818 1.379 . S
C824 C821 1.363 . S
C824 N822 1.356 . S
C825 C819 1.363 . S
C825 C820 1.379 . S
C825 N823 1.356 . S
N826 C818 1.356 . S
N826 H832 0.984 . S
N826 H833 0.984 . S
N827 C820 1.356 . S
N827 H830 0.984 . S
N827 H831 0.985 . S
H828 N823 0.984 . S
H829 N823 0.985 . S
H830 N827 0.984 . S
H831 N827 0.985 . S
H832 N826 0.984 . S
H833 N826 0.984 . S
H834 N822 0.984 . S
H835 N822 0.985 . S
C836 C837 1.363 . S
C836 C842 1.379 . S
C836 N844 1.356 . S
C837 C836 1.363 . S
C837 C843 1.363 . S
C838 C839 1.363 . S
C838 C843 1.379 . S
C838 N845 1.356 . S
C839 C838 1.363 . S
C839 C842 1.363 . S
N840 C842 1.356 . S
N840 H852 0.984 . S
N840 H853 0.985 . S
N841 C843 1.356 . S
N841 H846 0.984 . S
N841 H847 0.985 . S
C842 C836 1.379 . S
C842 C839 1.363 . S
C842 N840 1.356 . S
C843 C837 1.363 . S
C843 C838 1.379 . S
C843 N841 1.356 . S
N844 C836 1.356 . S
N844 H850 0.984 . S
N844 H851 0.984 . S
N845 C838 1.356 . S
N845 H848 0.984 . S
N845 H849 0.985 . S
H846 N841 0.984 . S
H847 N841 0.985 . S
H848 N845 0.984 . S
H849 N845 0.985 . S
H850 N844 0.984 . S
H851 N844 0.984 . S
H852 N840 0.984 . S
H853 N840 0.985 . S
C854 C855 1.363 . S
C854 C860 1.379 . S
C854 N862 1.356 . S
C855 C854 1.363 . S
C855 C861 1.363 . S
C856 C857 1.363 . S
C856 C861 1.379 . S
C856 N863 1.356 . S
C857 C856 1.363 . S
C857 C860 1.363 . S
N858 C860 1.356 . S
N858 H870 0.984 . S
N858 H871 0.985 . S
N859 C861 1.356 . S
N859 H864 0.984 . S
N859 H865 0.985 . S
C860 C854 1.379 . S
C860 C857 1.363 . S
C860 N858 1.356 . S
C861 C855 1.363 . S
C861 C856 1.379 . S
C861 N859 1.356 . S
N862 C854 1.356 . S
N862 H868 0.984 . S
N862 H869 0.984 . S
N863 C856 1.356 . S
N863 H866 0.984 . S
N863 H867 0.985 . S
H864 N859 0.984 . S
H865 N859 0.985 . S
H866 N863 0.984 . S
H867 N863 0.985 . S
H868 N862 0.984 . S
H869 N862 0.984 . S
H870 N858 0.984 . S
H871 N858 0.985 . S
C441 N83 1.626 . S
C443 C178 1.630 1_565 S
C461 C262 1.630 . S
C459 N96 1.626 . S
C479 C255 1.638 . S
C477 N57 1.620 . S
C495 N70 1.620 . S
C497 C171 1.638 1_565 S
C515 C335 1.630 1_545 S
C513 N31 1.627 . S
C533 C419 1.630 . S
C531 N44 1.628 . S
C549 N5 1.622 . S
C551 C412 1.638 . S
C567 N18 1.622 . S
C569 C328 1.638 1_545 S
C587 C162 1.449 . S
C585 N14 1.624 . S
C605 C246 1.449 . S
C603 N1 1.624 . S
C623 C257 1.350 . S
C621 N40 1.616 . S
C641 C173 1.350 . S
C639 N27 1.616 . S
C659 C341 1.449 . S
C657 N66 1.615 . S
C675 N53 1.615 . S
C677 C425 1.450 . S
C695 C414 1.350 . S
C693 N92 1.608 . S
C711 N79 1.608 . S
C713 C330 1.350 . S
C731 C160 1.524 . S
C729 N2 1.522 . S
C749 C244 1.523 . S
C747 N15 1.522 . S
C765 N28 1.520 . S
C767 C251 1.496 . S
C785 C167 1.495 . S
C783 N41 1.520 . S
C803 C339 1.523 . S
C801 N54 1.517 . S
C819 N67 1.517 . S
C821 C423 1.524 . S
C837 N80 1.515 . S
C839 C430 1.495 . S
C855 N93 1.515 . S
C857 C346 1.496 . S
