# Generated by pormake.
# Topology pyr, (3,6)-cn, num edge types: 1
# Building blocks:
#     Node 0, Type 0, BuildingBlock: KAKCAD_clean_linker_0, # of connection points: 3
#     Node 1, Type 0, BuildingBlock: KAKCAD_clean_linker_0, # of connection points: 3
#     Node 2, Type 0, BuildingBlock: KAKCAD_clean_linker_0, # of connection points: 3
#     Node 3, Type 0, BuildingBlock: KAKCAD_clean_linker_0, # of connection points: 3
#     Node 4, Type 0, BuildingBlock: KAKCAD_clean_linker_0, # of connection points: 3
#     Node 5, Type 0, BuildingBlock: KAKCAD_clean_linker_0, # of connection points: 3
#     Node 6, Type 0, BuildingBlock: KAKCAD_clean_linker_0, # of connection points: 3
#     Node 7, Type 0, BuildingBlock: KAKCAD_clean_linker_0, # of connection points: 3
#     Node 8, Type 1, BuildingBlock: LEVNOQ01_clean_sbu_1, # of connection points: 6
#     Node 9, Type 1, BuildingBlock: LEVNOQ01_clean_sbu_1, # of connection points: 6
#     Node 10, Type 1, BuildingBlock: LEVNOQ01_clean_sbu_1, # of connection points: 6
#     Node 11, Type 1, BuildingBlock: LEVNOQ01_clean_sbu_1, # of connection points: 6
#     Edge 12, Type (0, 1), BuildingBlock: XUDNAN_clean_linker_2, # of connection points: 2
#     Edge 13, Type (0, 1), BuildingBlock: XUDNAN_clean_linker_2, # of connection points: 2
#     Edge 14, Type (0, 1), BuildingBlock: XUDNAN_clean_linker_2, # of connection points: 2
#     Edge 15, Type (0, 1), BuildingBlock: XUDNAN_clean_linker_2, # of connection points: 2
#     Edge 16, Type (0, 1), BuildingBlock: XUDNAN_clean_linker_2, # of connection points: 2
#     Edge 17, Type (0, 1), BuildingBlock: XUDNAN_clean_linker_2, # of connection points: 2
#     Edge 18, Type (0, 1), BuildingBlock: XUDNAN_clean_linker_2, # of connection points: 2
#     Edge 19, Type (0, 1), BuildingBlock: XUDNAN_clean_linker_2, # of connection points: 2
#     Edge 20, Type (0, 1), BuildingBlock: XUDNAN_clean_linker_2, # of connection points: 2
#     Edge 21, Type (0, 1), BuildingBlock: XUDNAN_clean_linker_2, # of connection points: 2
#     Edge 22, Type (0, 1), BuildingBlock: XUDNAN_clean_linker_2, # of connection points: 2
#     Edge 23, Type (0, 1), BuildingBlock: XUDNAN_clean_linker_2, # of connection points: 2
#     Edge 24, Type (0, 1), BuildingBlock: XUDNAN_clean_linker_2, # of connection points: 2
#     Edge 25, Type (0, 1), BuildingBlock: XUDNAN_clean_linker_2, # of connection points: 2
#     Edge 26, Type (0, 1), BuildingBlock: XUDNAN_clean_linker_2, # of connection points: 2
#     Edge 27, Type (0, 1), BuildingBlock: XUDNAN_clean_linker_2, # of connection points: 2
#     Edge 28, Type (0, 1), BuildingBlock: XUDNAN_clean_linker_2, # of connection points: 2
#     Edge 29, Type (0, 1), BuildingBlock: XUDNAN_clean_linker_2, # of connection points: 2
#     Edge 30, Type (0, 1), BuildingBlock: XUDNAN_clean_linker_2, # of connection points: 2
#     Edge 31, Type (0, 1), BuildingBlock: XUDNAN_clean_linker_2, # of connection points: 2
#     Edge 32, Type (0, 1), BuildingBlock: XUDNAN_clean_linker_2, # of connection points: 2
#     Edge 33, Type (0, 1), BuildingBlock: XUDNAN_clean_linker_2, # of connection points: 2
#     Edge 34, Type (0, 1), BuildingBlock: XUDNAN_clean_linker_2, # of connection points: 2
#     Edge 35, Type (0, 1), BuildingBlock: XUDNAN_clean_linker_2, # of connection points: 2
# Relax obj value: 0.034
# Max RMSD: 0.110
# Mean RMSD: 0.045
data_MOF--net-pry--node1-LEVNOQ01_clean_sbu_1--node2-KAKCAD_clean_linker_0--edge1-XUDNAN_clean_linker_2
_symmetry_space_group_name_H-M    P1
_symmetry_Int_Tables_number       1
_symmetry_cell_setting            triclinic
loop_
_symmetry_equiv_pos_as_xyz
'x, y, z'
_cell_length_a     45.822227
_cell_length_b     44.108031
_cell_length_c     44.051869
_cell_angle_alpha  92.572759
_cell_angle_beta   91.089737
_cell_angle_gamma 94.017669
loop_
_atom_site_label
_atom_site_type_symbol
_atom_site_fract_x
_atom_site_fract_y
_atom_site_fract_z
_atom_type_partial_charge
C0 C 0.09405 0.11393 0.22836 0.0
C1 C 0.11445 0.11409 0.2526 0.0
C2 C 0.10297 0.12248 0.19953 0.0
C3 C 0.13258 0.13068 0.19421 0.0
C4 C 0.15301 0.1305 0.21842 0.0
C5 C 0.14398 0.12262 0.24742 0.0
C6 C 0.14216 0.13898 0.16339 0.0
C7 C 0.12797 0.16093 0.14752 0.0
C8 C 0.1367 0.16884 0.11818 0.0
C9 C 0.15956 0.1536 0.10463 0.0
C10 C 0.17422 0.13188 0.12035 0.0
C11 C 0.16554 0.12495 0.14981 0.0
C12 C 0.1988 0.11653 0.10615 0.0
C13 C 0.19553 0.10242 0.07696 0.0
C14 C 0.22573 0.1159 0.12176 0.0
C15 C 0.2491 0.10194 0.10828 0.0
C16 C 0.246 0.08761 0.079 0.0
C17 C 0.1226 0.19357 0.10222 0.0
C18 C 0.09269 0.19807 0.10571 0.0
C19 C 0.13916 0.21356 0.08403 0.0
C20 C 0.12629 0.23742 0.07007 0.0
C21 C 0.09659 0.24223 0.07417 0.0
C22 C 0.07993 0.22216 0.09205 0.0
C23 C 0.21868 0.08786 0.06371 0.0
H24 H 0.07114 0.1075 0.23184 0.0
H25 H 0.0868 0.12223 0.18125 0.0
H26 H 0.17595 0.13678 0.21498 0.0
H27 H 0.16012 0.12278 0.26573 0.0
H28 H 0.11074 0.17254 0.15862 0.0
H29 H 0.17651 0.10795 0.16188 0.0
H30 H 0.16628 0.15881 0.08189 0.0
H31 H 0.17487 0.10225 0.06456 0.0
H32 H 0.22894 0.12683 0.14421 0.0
H33 H 0.26976 0.10306 0.12072 0.0
H34 H 0.07898 0.18293 0.11897 0.0
H35 H 0.16233 0.21136 0.08116 0.0
H36 H 0.21493 0.0766 0.0415 0.0
H37 H 0.0569 0.22501 0.09538 0.0
H38 H 0.13985 0.2527 0.05679 0.0
C39 C 0.38174 0.92801 0.72354 0.0
C40 C 0.41066 0.94084 0.72592 0.0
C41 C 0.37083 0.91419 0.69613 0.0
C42 C 0.38881 0.91248 0.67074 0.0
C43 C 0.4177 0.92552 0.67303 0.0
C44 C 0.42846 0.93988 0.70036 0.0
C45 C 0.37757 0.89628 0.64228 0.0
C46 C 0.35056 0.90275 0.62955 0.0
C47 C 0.33937 0.88689 0.60302 0.0
C48 C 0.35537 0.86413 0.58938 0.0
C49 C 0.38219 0.85688 0.60225 0.0
C50 C 0.39326 0.8734 0.62854 0.0
C51 C 0.3978 0.83089 0.58958 0.0
C52 C 0.38211 0.80361 0.57953 0.0
C53 C 0.42856 0.83237 0.58942 0.0
C54 C 0.44326 0.80673 0.58097 0.0
C55 C 0.42753 0.77915 0.57223 0.0
C56 C 0.31112 0.89453 0.58946 0.0
C57 C 0.28684 0.89839 0.60793 0.0
C58 C 0.30876 0.89977 0.5583 0.0
C59 C 0.28313 0.91027 0.54619 0.0
C60 C 0.25935 0.9151 0.56493 0.0
C61 C 0.26109 0.9085 0.59571 0.0
C62 C 0.39683 0.77804 0.57084 0.0
H63 H 0.36764 0.92851 0.74299 0.0
H64 H 0.34857 0.9041 0.69499 0.0
H65 H 0.43193 0.92454 0.6537 0.0
H66 H 0.4509 0.94943 0.70179 0.0
H67 H 0.33851 0.92061 0.64001 0.0
H68 H 0.41349 0.86758 0.63924 0.0
H69 H 0.3467 0.85182 0.56896 0.0
H70 H 0.35843 0.80151 0.57973 0.0
H71 H 0.44132 0.85319 0.59642 0.0
H72 H 0.46696 0.80829 0.58185 0.0
H73 H 0.28802 0.89425 0.63196 0.0
H74 H 0.3272 0.89715 0.54362 0.0
H75 H 0.38414 0.75698 0.56452 0.0
H76 H 0.24305 0.91253 0.61056 0.0
H77 H 0.28221 0.91568 0.52246 0.0
C78 C 0.70716 0.45379 0.94095 0.0
C79 C 0.7333 0.43874 0.94121 0.0
C80 C 0.68209 0.44039 0.92563 0.0
C81 C 0.68271 0.41161 0.91084 0.0
C82 C 0.7088 0.39687 0.91067 0.0
C83 C 0.73383 0.41038 0.92536 0.0
C84 C 0.65658 0.39651 0.89513 0.0
C85 C 0.64364 0.40993 0.87046 0.0
C86 C 0.62214 0.39329 0.85208 0.0
C87 C 0.61252 0.3637 0.85983 0.0
C88 C 0.62563 0.35009 0.88421 0.0
C89 C 0.64748 0.36662 0.90186 0.0
C90 C 0.61944 0.31739 0.88865 0.0
C91 C 0.59108 0.30557 0.89462 0.0
C92 C 0.64209 0.2977 0.88609 0.0
C93 C 0.63651 0.26654 0.8894 0.0
C94 C 0.60821 0.25447 0.89593 0.0
C95 C 0.61314 0.40491 0.82251 0.0
C96 C 0.60818 0.43574 0.81968 0.0
C97 C 0.6116 0.38539 0.79631 0.0
C98 C 0.60555 0.39644 0.76792 0.0
C99 C 0.60107 0.42733 0.76496 0.0
C100 C 0.60216 0.44685 0.79117 0.0
C101 C 0.58557 0.27446 0.89862 0.0
H102 H 0.70593 0.47563 0.95291 0.0
H103 H 0.66212 0.45217 0.92582 0.0
H104 H 0.70991 0.37494 0.89877 0.0
H105 H 0.75373 0.39857 0.92392 0.0
H106 H 0.65213 0.43227 0.86413 0.0
H107 H 0.6582 0.35578 0.92024 0.0
H108 H 0.59616 0.35049 0.84574 0.0
H109 H 0.57334 0.32049 0.89671 0.0
H110 H 0.66408 0.30641 0.88103 0.0
H111 H 0.65439 0.25195 0.88658 0.0
H112 H 0.60915 0.45131 0.83946 0.0
H113 H 0.61586 0.36163 0.79754 0.0
H114 H 0.56363 0.26628 0.90436 0.0
H115 H 0.59884 0.4708 0.78958 0.0
H116 H 0.6043 0.38071 0.74826 0.0
C117 C 0.87027 0.58241 0.28509 0.0
C118 C 0.89903 0.5858 0.27492 0.0
C119 C 0.86441 0.58768 0.31587 0.0
C120 C 0.88727 0.59632 0.33703 0.0
C121 C 0.91616 0.59917 0.32663 0.0
C122 C 0.92195 0.59399 0.29586 0.0
C123 C 0.88093 0.60322 0.3696 0.0
C124 C 0.85898 0.58591 0.38434 0.0
C125 C 0.85164 0.59346 0.41445 0.0
C126 C 0.867 0.61828 0.43011 0.0
C127 C 0.88901 0.63594 0.41585 0.0
C128 C 0.89586 0.62814 0.38563 0.0
C129 C 0.90351 0.66371 0.43174 0.0
C130 C 0.88708 0.68359 0.44919 0.0
C131 C 0.9336 0.67127 0.42859 0.0
C132 C 0.94674 0.6984 0.44185 0.0
C133 C 0.93014 0.71864 0.45863 0.0
C134 C 0.82622 0.57725 0.42868 0.0
C135 C 0.79978 0.57123 0.41207 0.0
C136 C 0.82733 0.56989 0.45945 0.0
C137 C 0.80221 0.55789 0.47356 0.0
C138 C 0.77562 0.55336 0.45718 0.0
C139 C 0.7747 0.55957 0.42625 0.0
C140 C 0.90024 0.71067 0.4625 0.0
H141 H 0.85235 0.57599 0.26918 0.0
H142 H 0.84188 0.58563 0.32293 0.0
H143 H 0.93433 0.60533 0.3423 0.0
H144 H 0.94434 0.59645 0.28834 0.0
H145 H 0.84747 0.56652 0.37235 0.0
H146 H 0.91192 0.6424 0.37409 0.0
H147 H 0.8612 0.62444 0.45319 0.0
H148 H 0.86377 0.67879 0.45169 0.0
H149 H 0.94698 0.65627 0.41568 0.0
H150 H 0.9699 0.70368 0.43872 0.0
H151 H 0.79807 0.5769 0.38847 0.0
H152 H 0.84745 0.57404 0.47275 0.0
H153 H 0.88667 0.72595 0.4748 0.0
H154 H 0.75429 0.55628 0.41329 0.0
H155 H 0.80325 0.55336 0.49751 0.0
C156 C 0.88682 0.87417 0.7653 0.0
C157 C 0.90248 0.90206 0.76014 0.0
C158 C 0.87804 0.86703 0.7945 0.0
C159 C 0.88403 0.88783 0.81918 0.0
C160 C 0.89916 0.91586 0.81432 0.0
C161 C 0.9086 0.92278 0.78519 0.0
C162 C 0.87398 0.88011 0.84978 0.0
C163 C 0.88528 0.85575 0.86433 0.0
C164 C 0.87396 0.84597 0.89207 0.0
C165 C 0.85099 0.8615 0.90515 0.0
C166 C 0.83968 0.88638 0.89094 0.0
C167 C 0.85158 0.89557 0.86331 0.0
C168 C 0.81427 0.90183 0.9035 0.0
C169 C 0.78971 0.88484 0.91418 0.0
C170 C 0.81336 0.93362 0.90248 0.0
C171 C 0.78807 0.94785 0.91044 0.0
C172 C 0.76329 0.93068 0.91993 0.0
C173 C 0.88574 0.81909 0.90655 0.0
C174 C 0.89519 0.79473 0.8884 0.0
C175 C 0.88815 0.81757 0.93836 0.0
C176 C 0.8998 0.79251 0.95154 0.0
C177 C 0.90958 0.76836 0.93327 0.0
C178 C 0.9072 0.77003 0.9015 0.0
C179 C 0.76444 0.89916 0.92232 0.0
H180 H 0.88089 0.85785 0.74676 0.0
H181 H 0.86607 0.84539 0.79775 0.0
H182 H 0.90405 0.9322 0.83315 0.0
H183 H 0.92103 0.94424 0.78252 0.0
H184 H 0.90304 0.8445 0.85381 0.0
H185 H 0.84247 0.91386 0.85144 0.0
H186 H 0.84156 0.854 0.92613 0.0
H187 H 0.78949 0.86031 0.91488 0.0
H188 H 0.832 0.94745 0.89478 0.0
H189 H 0.78757 0.9722 0.90841 0.0
H190 H 0.89322 0.7945 0.86387 0.0
H191 H 0.88141 0.83592 0.95318 0.0
H192 H 0.74537 0.88549 0.92927 0.0
H193 H 0.9149 0.75234 0.88648 0.0
H194 H 0.90087 0.79201 0.97608 0.0
C195 C 0.61155 0.06254 0.29887 0.0
C196 C 0.60629 0.08288 0.27611 0.0
C197 C 0.61757 0.07348 0.32886 0.0
C198 C 0.61781 0.1048 0.3365 0.0
C199 C 0.61144 0.12486 0.31377 0.0
C200 C 0.60593 0.11402 0.28387 0.0
C201 C 0.62651 0.11724 0.36743 0.0
C202 C 0.65262 0.10945 0.38121 0.0
C203 C 0.66349 0.12478 0.40822 0.0
C204 C 0.64762 0.14793 0.42154 0.0
C205 C 0.62132 0.1559 0.40809 0.0
C206 C 0.61066 0.13982 0.38143 0.0
C207 C 0.60639 0.18278 0.42002 0.0
C208 C 0.6054 0.19009 0.45141 0.0
C209 C 0.59386 0.20211 0.39968 0.0
C210 C 0.58077 0.22795 0.4103 0.0
C211 C 0.5804 0.23575 0.44156 0.0
C212 C 0.69269 0.11844 0.42076 0.0
C213 C 0.70133 0.0885 0.42101 0.0
C214 C 0.7128 0.14247 0.43095 0.0
C215 C 0.74109 0.13674 0.44038 0.0
C216 C 0.75006 0.10688 0.43968 0.0
C217 C 0.72968 0.08278 0.43029 0.0
C218 C 0.59261 0.21635 0.46207 0.0
H219 H 0.61202 0.03842 0.29324 0.0
H220 H 0.62238 0.05757 0.346 0.0
H221 H 0.61181 0.14915 0.3189 0.0
H222 H 0.60189 0.13007 0.26661 0.0
H223 H 0.66545 0.09283 0.36978 0.0
H224 H 0.59028 0.14542 0.37089 0.0
H225 H 0.65634 0.16044 0.44181 0.0
H226 H 0.61459 0.1756 0.46777 0.0
H227 H 0.59467 0.19775 0.37534 0.0
H228 H 0.57109 0.24197 0.39381 0.0
H229 H 0.68628 0.06946 0.41358 0.0
H230 H 0.70704 0.16585 0.43072 0.0
H231 H 0.59288 0.22178 0.48629 0.0
H232 H 0.73587 0.05951 0.42915 0.0
H233 H 0.75605 0.15582 0.44788 0.0
C234 C 0.27127 0.61596 0.10662 0.0
C235 C 0.27213 0.61256 0.07479 0.0
C236 C 0.29611 0.62642 0.12355 0.0
C237 C 0.32243 0.63407 0.10912 0.0
C238 C 0.32321 0.63197 0.07719 0.0
C239 C 0.29817 0.62118 0.06009 0.0
C240 C 0.34851 0.64464 0.12796 0.0
C241 C 0.35566 0.62868 0.1536 0.0
C242 C 0.37713 0.6408 0.17468 0.0
C243 C 0.39223 0.66881 0.1694 0.0
C244 C 0.38535 0.68509 0.14383 0.0
C245 C 0.36374 0.67255 0.1229 0.0
C246 C 0.39816 0.7166 0.14067 0.0
C247 C 0.40092 0.73727 0.16604 0.0
C248 C 0.40567 0.72688 0.11195 0.0
C249 C 0.41458 0.75739 0.10847 0.0
C250 C 0.41624 0.77826 0.13363 0.0
C251 C 0.38161 0.62587 0.20371 0.0
C252 C 0.3574 0.61523 0.22037 0.0
C253 C 0.4099 0.62372 0.2158 0.0
C254 C 0.41387 0.61186 0.24431 0.0
C255 C 0.38963 0.60213 0.26144 0.0
C256 C 0.36137 0.60346 0.24894 0.0
C257 C 0.41001 0.7678 0.16256 0.0
H258 H 0.25129 0.61039 0.11857 0.0
H259 H 0.29468 0.62868 0.14807 0.0
H260 H 0.34329 0.63801 0.0656 0.0
H261 H 0.29937 0.61885 0.03558 0.0
H262 H 0.34377 0.60716 0.15764 0.0
H263 H 0.35719 0.6855 0.10389 0.0
H264 H 0.40843 0.6786 0.18594 0.0
H265 H 0.39493 0.73017 0.18843 0.0
H266 H 0.40424 0.71142 0.09208 0.0
H267 H 0.41996 0.76473 0.08598 0.0
H268 H 0.33529 0.61698 0.2118 0.0
H269 H 0.42894 0.63136 0.20328 0.0
H270 H 0.4111 0.78343 0.1823 0.0
H271 H 0.34228 0.59632 0.26164 0.0
H272 H 0.43598 0.61043 0.253 0.0
C273 C 0.08785 0.30547 0.5529 0.0
C274 C 0.05846 0.29756 0.55902 0.0
C275 C 0.10208 0.33187 0.5662 0.0
C276 C 0.08721 0.35154 0.5856 0.0
C277 C 0.05762 0.34374 0.59157 0.0
C278 C 0.04344 0.3169 0.57855 0.0
C279 C 0.10315 0.37952 0.59975 0.0
C280 C 0.12503 0.39509 0.58343 0.0
C281 C 0.14396 0.41814 0.59741 0.0
C282 C 0.139 0.42785 0.62757 0.0
C283 C 0.11619 0.41373 0.6441 0.0
C284 C 0.09858 0.38932 0.63004 0.0
C285 C 0.11166 0.42347 0.67647 0.0
C286 C 0.13565 0.4314 0.69641 0.0
C287 C 0.08325 0.42478 0.68775 0.0
C288 C 0.07894 0.43366 0.71812 0.0
C289 C 0.10292 0.4415 0.73806 0.0
C290 C 0.17059 0.42933 0.58129 0.0
C291 C 0.18627 0.40845 0.56425 0.0
C292 C 0.18118 0.4601 0.58333 0.0
C293 C 0.20704 0.46959 0.56884 0.0
C294 C 0.22282 0.44844 0.55225 0.0
C295 C 0.21184 0.41789 0.5498 0.0
C296 C 0.13133 0.44038 0.72678 0.0
H297 H 0.10024 0.29062 0.53866 0.0
H298 H 0.12511 0.33638 0.56177 0.0
H299 H 0.0454 0.35835 0.60622 0.0
H300 H 0.02076 0.31123 0.58376 0.0
H301 H 0.12806 0.38854 0.55977 0.0
H302 H 0.08225 0.37707 0.64315 0.0
H303 H 0.15336 0.44586 0.63839 0.0
H304 H 0.15786 0.43014 0.68873 0.0
H305 H 0.06427 0.4193 0.67298 0.0
H306 H 0.05674 0.43478 0.72588 0.0
H307 H 0.17918 0.38447 0.56261 0.0
H308 H 0.16956 0.47676 0.59618 0.0
H309 H 0.15028 0.44587 0.74159 0.0
H310 H 0.22326 0.40107 0.53694 0.0
H311 H 0.2151 0.49327 0.57133 0.0
O312 O 0.99592 0.01355 0.58801 0.0
Mg313 Mg 0.02626 0.03354 0.55958 0.0
O314 O 0.98215 0.98484 0.54752 0.0
Mg315 Mg 0.00402 0.00714 0.50372 0.0
O316 O 0.01259 0.05824 0.52422 0.0
O317 O 0.02999 0.07806 0.56958 0.0
O318 O 0.02567 0.02824 0.45961 0.0
O319 O 0.95827 0.0249 0.49256 0.0
Mg320 Mg 0.9772 0.97932 0.44707 0.0
O321 O 0.99331 0.95668 0.48299 0.0
O322 O 0.00762 0.00128 0.41941 0.0
O323 O 0.93696 0.99864 0.45345 0.0
O324 O 0.97444 0.9341 0.43936 0.0
C325 C 0.07168 0.99863 0.53385 0.0
C326 C 0.98065 0.99117 0.57609 0.0
C327 C 0.01962 0.08176 0.5427 0.0
C328 C 0.02502 0.02236 0.43085 0.0
C329 C 0.93638 0.01901 0.47446 0.0
C330 C 0.98562 0.93207 0.46624 0.0
O331 O 0.0673 0.01692 0.55585 0.0
O332 O 0.05152 0.99126 0.51391 0.0
O333 O 0.44957 0.06329 0.03101 0.0
Mg334 Mg 0.49396 0.07805 0.03041 0.0
O335 O 0.45687 0.01548 0.01667 0.0
Mg336 Mg 0.50672 0.01095 0.0033 0.0
O337 O 0.51322 0.06078 0.99243 0.0
O338 O 0.50863 0.11025 1.00054 0.0
O339 O 0.55554 0.00585 0.98723 0.0
O340 O 0.48922 0.001 0.95318 0.0
Mg341 Mg 0.51836 0.94161 0.97913 0.0
O342 O 0.49969 0.96164 0.0152 0.0
O343 O 0.56297 0.95672 0.97972 0.0
O344 O 0.49356 0.95205 0.94056 0.0
O345 O 0.50138 0.91161 0.01015 0.0
C346 C 0.52989 0.04296 0.07253 0.0
C347 C 0.43994 0.03599 0.02536 0.0
C348 C 0.51832 0.08833 0.98416 0.0
C349 C 0.57243 0.98446 0.98119 0.0
C350 C 0.48531 0.97802 0.93438 0.0
C351 C 0.49353 0.93511 0.02554 0.0
O352 O 0.52029 0.06869 0.06805 0.0
O353 O 0.526 0.02065 0.05298 0.0
O354 O 0.45924 0.55419 0.54802 0.0
Mg355 Mg 0.46778 0.50769 0.55139 0.0
O356 O 0.49621 0.55866 0.51715 0.0
Mg357 Mg 0.4993 0.50759 0.50444 0.0
O358 O 0.50967 0.49555 0.55566 0.0
O359 O 0.47946 0.5026 0.59462 0.0
O360 O 0.50429 0.45657 0.49124 0.0
O361 O 0.55079 0.51622 0.50702 0.0
Mg362 Mg 0.53106 0.50462 0.44248 0.0
O363 O 0.49246 0.52039 0.45507 0.0
O364 O 0.52908 0.45714 0.44839 0.0
O365 O 0.56686 0.53073 0.46263 0.0
O366 O 0.5085 0.52224 0.40763 0.0
C367 C 0.42885 0.48112 0.51308 0.0
C368 C 0.47701 0.57069 0.53324 0.0
C369 C 0.50432 0.49518 0.58458 0.0
C370 C 0.51707 0.4427 0.46973 0.0
C371 C 0.57132 0.52701 0.49057 0.0
C372 C 0.48866 0.52759 0.42717 0.0
O373 O 0.43662 0.47268 0.53865 0.0
O374 O 0.44678 0.49855 0.49889 0.0
O375 O 0.02145 0.44952 0.06534 0.0
Mg376 Mg 0.02692 0.49637 0.0672 0.0
O377 O 0.01426 0.45575 0.01676 0.0
Mg378 Mg 0.00493 0.50861 0.01071 0.0
O379 O 0.99109 0.52113 0.06195 0.0
O380 O 0.01199 0.51095 0.10685 0.0
O381 O 0.99513 0.55907 1.00148 0.0
O382 O 0.95407 0.49539 0.00984 0.0
Mg383 Mg 0.97563 0.50323 0.95916 0.0
O384 O 0.01945 0.49686 0.95921 0.0
O385 O 0.96399 0.54904 0.96312 0.0
O386 O 0.94485 0.46738 0.96862 0.0
O387 O 0.98993 0.49438 0.91746 0.0
C388 C 0.07463 0.52631 0.03532 0.0
C389 C 0.01857 0.43825 0.03863 0.0
C390 C 0.9916 0.52266 0.09169 0.0
C391 C 0.97693 0.56811 0.9821 0.0
C392 C 0.93648 0.47738 0.99389 0.0
C393 C 0.01535 0.49231 0.92987 0.0
O394 O 0.06872 0.5158 0.06081 0.0
O395 O 0.05483 0.52575 0.01455 0.0
H396 H 0.08681 0.0602 0.268 0.0
H397 H 0.12078 0.14818 0.30599 0.0
H398 H 0.10381 0.13398 0.35695 0.0
H399 H 0.02289 0.05161 0.31111 0.0
H400 H 0.02533 0.01152 0.31616 0.0
H401 H 0.04089 0.02863 0.2833 0.0
H402 H 0.0911 0.00857 0.29695 0.0
H403 H 0.07568 0.99151 0.33 0.0
H404 H 0.10749 0.01793 0.33401 0.0
H405 H 0.08084 0.11013 0.4038 0.0
H406 H 0.05423 0.07905 0.44147 0.0
H407 H 0.03728 0.00652 0.37222 0.0
C408 C 0.09067 0.0764 0.28711 0.0
C409 C 0.10494 0.10531 0.2832 0.0
C410 C 0.10994 0.12587 0.30868 0.0
C411 C 0.10038 0.11799 0.33764 0.0
C412 C 0.08634 0.08923 0.34081 0.0
C413 C 0.08178 0.06867 0.31621 0.0
C414 C 0.06639 0.03917 0.32553 0.0
C415 C 0.03714 0.03236 0.30799 0.0
C416 C 0.08636 0.01274 0.32137 0.0
C417 C 0.0618 0.04677 0.35888 0.0
C418 C 0.07375 0.07554 0.36752 0.0
C419 C 0.07161 0.08747 0.39728 0.0
C420 C 0.05654 0.06965 0.41857 0.0
C421 C 0.0436 0.04037 0.40987 0.0
C422 C 0.04679 0.02884 0.37969 0.0
H423 H 0.41076 0.91245 0.77923 0.0
H424 H 0.43783 0.99748 0.73906 0.0
H425 H 0.45691 0.01844 0.78945 0.0
H426 H 0.38879 0.94304 0.85172 0.0
H427 H 0.40324 0.91299 0.87259 0.0
H428 H 0.39056 0.90567 0.83382 0.0
H429 H 0.441 0.88667 0.81935 0.0
H430 H 0.45369 0.89361 0.85811 0.0
H431 H 0.47372 0.91093 0.82781 0.0
H432 H 0.47263 0.02972 0.84522 0.0
H433 H 0.4888 0.02808 0.89921 0.0
H434 H 0.45295 0.93454 0.90072 0.0
C435 C 0.42043 0.9356 0.78117 0.0
C436 C 0.42252 0.9536 0.75558 0.0
C437 C 0.43597 0.98349 0.75862 0.0
C438 C 0.44668 0.99557 0.78709 0.0
C439 C 0.44401 0.97724 0.81205 0.0
C440 C 0.43157 0.94773 0.80915 0.0
C441 C 0.43292 0.9319 0.83878 0.0
C442 C 0.40204 0.92288 0.84988 0.0
C443 C 0.45144 0.90415 0.83583 0.0
C444 C 0.448 0.95707 0.85894 0.0
C445 C 0.45394 0.98324 0.84338 0.0
C446 C 0.46807 0.00934 0.85759 0.0
C447 C 0.47699 0.0083 0.88825 0.0
C448 C 0.47211 0.98119 0.90399 0.0
C449 C 0.457 0.95557 0.88919 0.0
H450 H 0.56013 0.46674 0.75056 0.0
H451 H 0.62679 0.41313 0.71084 0.0
H452 H 0.61247 0.42857 0.65973 0.0
H453 H 0.50658 0.44852 0.69581 0.0
H454 H 0.49231 0.48559 0.69606 0.0
H455 H 0.51021 0.47333 0.72955 0.0
H456 H 0.54651 0.52122 0.73023 0.0
H457 H 0.5286 0.53372 0.69671 0.0
H458 H 0.56741 0.52932 0.69693 0.0
H459 H 0.58764 0.44644 0.61245 0.0
H460 H 0.55374 0.46446 0.57366 0.0
H461 H 0.50453 0.50629 0.64553 0.0
C462 C 0.5723 0.45893 0.73124 0.0
C463 C 0.59457 0.43879 0.73466 0.0
C464 C 0.60943 0.42839 0.70867 0.0
C465 C 0.60165 0.43723 0.67959 0.0
C466 C 0.57917 0.45668 0.67698 0.0
C467 C 0.56487 0.46754 0.70217 0.0
C468 C 0.5401 0.48636 0.69325 0.0
C469 C 0.51057 0.47261 0.70432 0.0
C470 C 0.54602 0.51963 0.70498 0.0
C471 C 0.54195 0.48342 0.65909 0.0
C472 C 0.56487 0.46669 0.64998 0.0
C473 C 0.56982 0.45989 0.61932 0.0
C474 C 0.5505 0.47015 0.59748 0.0
C475 C 0.52646 0.48656 0.60665 0.0
C476 C 0.52263 0.49366 0.63779 0.0
H477 H 0.91103 0.53259 0.24615 0.0
H478 H 0.90251 0.62795 0.23166 0.0
H479 H 0.91758 0.62028 0.17818 0.0
H480 H 0.97468 0.52635 0.20719 0.0
H481 H 0.96568 0.48834 0.19144 0.0
H482 H 0.94966 0.50066 0.22635 0.0
H483 H 0.8979 0.48674 0.20279 0.0
H484 H 0.91388 0.47464 0.16758 0.0
H485 H 0.88744 0.50303 0.16774 0.0
H486 H 0.93937 0.60306 0.12814 0.0
H487 H 0.96912 0.57881 0.08844 0.0
H488 H 0.96304 0.49516 0.13643 0.0
C489 C 0.91163 0.55157 0.23134 0.0
C490 C 0.90533 0.58071 0.2425 0.0
C491 C 0.90698 0.60538 0.22307 0.0
C492 C 0.91537 0.60117 0.19274 0.0
C493 C 0.92181 0.57211 0.1823 0.0
C494 C 0.91996 0.54771 0.2011 0.0
C495 C 0.93095 0.51957 0.18564 0.0
C496 C 0.95677 0.50809 0.20372 0.0
C497 C 0.90605 0.49452 0.18064 0.0
C498 C 0.94059 0.53224 0.1558 0.0
C499 C 0.93454 0.56236 0.15382 0.0
C500 C 0.94371 0.57932 0.12919 0.0
C501 C 0.96041 0.56542 0.10665 0.0
C502 C 0.96799 0.53518 0.10943 0.0
C503 C 0.95708 0.51824 0.13369 0.0
H504 H 0.29183 0.06018 0.10641 0.0
H505 H 0.25868 0.08336 0.01792 0.0
H506 H 0.30115 0.06208 0.99392 0.0
H507 H 0.36393 0.08516 0.09372 0.0
H508 H 0.37993 0.05612 0.11477 0.0
H509 H 0.34429 0.06772 0.12425 0.0
H510 H 0.32326 0.01168 0.11695 0.0
H511 H 0.3589 1.00001 0.1069 0.0
H512 H 0.32802 0.99105 0.08134 0.0
H513 H 0.34963 0.04304 0.97961 0.0
H514 H 0.40237 0.03464 0.97732 0.0
H515 H 0.40617 0.02825 0.075 0.0
C516 C 0.29323 0.06076 0.08196 0.0
C517 C 0.27127 0.07328 0.06425 0.0
C518 C 0.27439 0.07318 0.03222 0.0
C519 C 0.29864 0.06118 0.01825 0.0
C520 C 0.3199 0.04938 0.03647 0.0
C521 C 0.31757 0.04939 0.06768 0.0
C522 C 0.34504 0.03883 0.08244 0.0
C523 C 0.35913 0.06343 0.10511 0.0
C524 C 0.3384 0.0086 0.09782 0.0
C525 C 0.36378 0.03437 0.05479 0.0
C526 C 0.34845 0.03949 0.02836 0.0
C527 C 0.36165 0.03844 1.00008 0.0
C528 C 0.39153 0.03334 0.99892 0.0
C529 C 0.40796 0.02984 0.02586 0.0
C530 C 0.39374 0.02966 0.05401 0.0
H531 H 0.20332 0.89189 0.55037 0.0
H532 H 0.26001 0.97489 0.55569 0.0
H533 H 0.21829 0.00439 0.54172 0.0
H534 H 0.15679 0.91523 0.48475 0.0
H535 H 0.12392 0.89691 0.49934 0.0
H536 H 0.15879 0.8816 0.50626 0.0
H537 H 0.14999 0.88474 0.5642 0.0
H538 H 0.11519 0.9 0.55746 0.0
H539 H 0.1421 0.92063 0.58234 0.0
H540 H 0.1708 0.02533 0.53402 0.0
H541 H 0.11913 0.03727 0.53201 0.0
H542 H 0.09182 0.94105 0.52882 0.0
C543 C 0.20684 0.91617 0.54784 0.0
C544 C 0.23468 0.93134 0.55368 0.0
C545 C 0.23879 0.96308 0.5508 0.0
C546 C 0.2153 0.97991 0.54286 0.0
C547 C 0.18801 0.96448 0.53737 0.0
C548 C 0.1836 0.93331 0.53937 0.0
C549 C 0.15157 0.92284 0.53383 0.0
C550 C 0.14753 0.90296 0.50429 0.0
C551 C 0.13898 0.90608 0.56109 0.0
C552 C 0.13848 0.95321 0.53045 0.0
C553 C 0.16012 0.97678 0.53202 0.0
C554 C 0.15369 0.00711 0.532 0.0
C555 C 0.12434 0.01365 0.5309 0.0
C556 C 0.10177 0.99003 0.52972 0.0
C557 C 0.10883 0.95938 0.52882 0.0
H558 H 0.77459 0.40883 0.97139 0.0
H559 H 0.75368 0.49918 0.9468 0.0
H560 H 0.80141 0.5201 0.96827 0.0
H561 H 0.82194 0.43106 0.0398 0.0
H562 H 0.84698 0.40264 0.02994 0.0
H563 H 0.80863 0.39602 0.01997 0.0
H564 H 0.82168 0.38634 0.96347 0.0
H565 H 0.85989 0.39283 0.97324 0.0
H566 H 0.84382 0.41494 0.94469 0.0
H567 H 0.85348 0.53017 0.98666 0.0
H568 H 0.90684 0.52784 0.99397 0.0
H569 H 0.89553 0.42998 0.99954 0.0
C570 C 0.77978 0.4331 0.97076 0.0
C571 C 0.76023 0.45231 0.95738 0.0
C572 C 0.76793 0.484 0.95744 0.0
C573 C 0.79505 0.49611 0.96958 0.0
C574 C 0.81421 0.47623 0.98153 0.0
C575 C 0.80693 0.44535 0.98198 0.0
C576 C 0.83276 0.42813 0.9915 0.0
C577 C 0.82724 0.4136 0.02212 0.0
C578 C 0.83996 0.40418 0.96675 0.0
C579 C 0.85626 0.45392 0.99473 0.0
C580 C 0.84483 0.48166 0.9902 0.0
C581 C 0.86254 0.50867 0.99073 0.0
C582 C 0.89275 0.50715 0.99505 0.0
C583 C 0.90492 0.47876 0.99783 0.0
C584 C 0.88648 0.45193 0.99818 0.0
H585 H 0.73185 0.58987 0.46765 0.0
H586 H 0.75739 0.49858 0.48006 0.0
H587 H 0.7084 0.48436 0.50058 0.0
H588 H 0.68304 0.59331 0.53623 0.0
H589 H 0.65774 0.61529 0.51633 0.0
H590 H 0.69627 0.61938 0.50843 0.0
H591 H 0.68475 0.6067 0.45118 0.0
H592 H 0.64641 0.60285 0.45889 0.0
H593 H 0.66355 0.57187 0.43996 0.0
H594 H 0.65464 0.47889 0.51326 0.0
H595 H 0.6008 0.48108 0.512 0.0
H596 H 0.61076 0.5757 0.48969 0.0
C597 C 0.72725 0.56714 0.47551 0.0
C598 C 0.74812 0.54531 0.47268 0.0
C599 C 0.74158 0.51562 0.48258 0.0
C600 C 0.71394 0.50747 0.49434 0.0
C601 C 0.6935 0.52952 0.49648 0.0
C602 C 0.69999 0.55882 0.48745 0.0
C603 C 0.67355 0.57746 0.48891 0.0
C604 C 0.67792 0.60287 0.51396 0.0
C605 C 0.66666 0.59043 0.45789 0.0
C606 C 0.65045 0.55342 0.49757 0.0
C607 C 0.66254 0.52626 0.50317 0.0
C608 C 0.64509 0.50022 0.50961 0.0
C609 C 0.61456 0.5017 0.50909 0.0
C610 C 0.60193 0.52876 0.50138 0.0
C611 C 0.62009 0.55507 0.49645 0.0
H612 H 0.06121 0.28208 0.10203 0.0
H613 H 0.10268 0.26282 0.01636 0.0
H614 H 0.08218 0.30811 0.99517 0.0
H615 H 0.9945 0.31133 0.0711 0.0
H616 H 0.99348 0.34035 0.10114 0.0
H617 H 0.00926 0.305 0.10833 0.0
H618 H 0.05764 0.33458 0.12704 0.0
H619 H 0.04192 0.36993 0.12017 0.0
H620 H 0.07579 0.36134 0.10264 0.0
H621 H 0.05877 0.358 0.98446 0.0
H622 H 0.03886 0.40897 0.98721 0.0
H623 H 0.01327 0.39445 0.07998 0.0
C624 C 0.06547 0.28698 0.07859 0.0
C625 C 0.0833 0.26868 0.06077 0.0
C626 C 0.08908 0.2765 0.03047 0.0
C627 C 0.07735 0.30207 0.01817 0.0
C628 C 0.05989 0.3197 0.03645 0.0
C629 C 0.05416 0.31248 0.0661 0.0
C630 C 0.0368 0.33623 0.08193 0.0
C631 C 0.00672 0.32239 0.09116 0.0
C632 C 0.05407 0.35141 0.10956 0.0
C633 C 0.03388 0.35816 0.05676 0.0
C634 C 0.04698 0.34822 0.03051 0.0
C635 C 0.04819 0.3658 0.00484 0.0
C636 C 0.03662 0.39463 0.00647 0.0
C637 C 0.02433 0.40567 0.03371 0.0
C638 C 0.02228 0.38663 0.05871 0.0
H639 H 0.55809 0.21814 0.8819 0.0
H640 H 0.64494 0.21602 0.92255 0.0
H641 H 0.63359 0.16302 0.93554 0.0
H642 H 0.52335 0.18682 0.93975 0.0
H643 H 0.49475 0.16551 0.91755 0.0
H644 H 0.5127 0.19891 0.90282 0.0
H645 H 0.52598 0.16705 0.8547 0.0
H646 H 0.50848 0.13325 0.8699 0.0
H647 H 0.54612 0.13373 0.85866 0.0
H648 H 0.61057 0.11484 0.95321 0.0
H649 H 0.57625 0.08131 0.98121 0.0
H650 H 0.50326 0.11624 0.93381 0.0
C651 C 0.57497 0.20642 0.89303 0.0
C652 C 0.60252 0.2214 0.90086 0.0
C653 C 0.62392 0.20502 0.91543 0.0
C654 C 0.61768 0.17473 0.9229 0.0
C655 C 0.58995 0.16097 0.91571 0.0
C656 C 0.56885 0.17645 0.90126 0.0
C657 C 0.53916 0.15917 0.90154 0.0
C658 C 0.51619 0.17876 0.91633 0.0
C659 C 0.52937 0.14761 0.86928 0.0
C660 C 0.5463 0.13301 0.92082 0.0
C661 C 0.57602 0.13346 0.9273 0.0
C662 C 0.5874 0.11373 0.94765 0.0
C663 C 0.56781 0.09455 0.9633 0.0
C664 C 0.53736 0.09604 0.95901 0.0
C665 C 0.52657 0.11419 0.93648 0.0
H666 H 0.96725 0.75764 0.4288 0.0
H667 H 0.92172 0.74875 0.51365 0.0
H668 H 0.93936 0.80149 0.52958 0.0
H669 H 0.03105 0.80865 0.45943 0.0
H670 H 0.03193 0.82993 0.42544 0.0
H671 H 0.02008 0.79002 0.42334 0.0
H672 H 0.97127 0.80224 0.39736 0.0
H673 H 0.98302 0.84197 0.39921 0.0
H674 H 0.94889 0.82929 0.41581 0.0
H675 H 0.95668 0.85772 0.53299 0.0
H676 H 0.96839 0.91169 0.5213 0.0
H677 H 0.00264 0.88283 0.43477 0.0
C678 C 0.96185 0.76634 0.45121 0.0
C679 C 0.94335 0.74891 0.47008 0.0
C680 C 0.93587 0.76167 0.49877 0.0
C681 C 0.94602 0.79153 0.50813 0.0
C682 C 0.9638 0.80831 0.48866 0.0
C683 C 0.97168 0.79603 0.46079 0.0
C684 C 0.98793 0.81961 0.44237 0.0
C685 C 0.01963 0.81157 0.43736 0.0
C686 C 0.9718 0.82351 0.41192 0.0
C687 C 0.98688 0.84745 0.46355 0.0
C688 C 0.97355 0.84049 0.49052 0.0
C689 C 0.9678 0.86325 0.51228 0.0
C690 C 0.9748 0.89384 0.50572 0.0
C691 C 0.98701 0.90123 0.47754 0.0
C692 C 0.99398 0.87767 0.45681 0.0
H693 H 0.41803 0.73507 0.52626 0.0
H694 H 0.47082 0.75918 0.60773 0.0
H695 H 0.49333 0.7101 0.60284 0.0
H696 H 0.40143 0.65942 0.54063 0.0
H697 H 0.40404 0.64478 0.50197 0.0
H698 H 0.39486 0.68334 0.50942 0.0
H699 H 0.43843 0.70278 0.47718 0.0
H700 H 0.44777 0.66417 0.46962 0.0
H701 H 0.47473 0.69209 0.4862 0.0
H702 H 0.50594 0.65691 0.59282 0.0
H703 H 0.50808 0.6024 0.5778 0.0
H704 H 0.44745 0.61211 0.50282 0.0
C705 C 0.43469 0.73015 0.54274 0.0
C706 C 0.44292 0.751 0.56721 0.0
C707 C 0.46465 0.74379 0.58847 0.0
C708 C 0.47749 0.71594 0.58593 0.0
C709 C 0.46864 0.69573 0.56179 0.0
C710 C 0.44793 0.70252 0.54038 0.0
C711 C 0.44112 0.67599 0.51768 0.0
C712 C 0.40843 0.66525 0.51745 0.0
C713 C 0.45111 0.68425 0.48578 0.0
C714 C 0.45995 0.65266 0.53076 0.0
C715 C 0.4761 0.66479 0.55584 0.0
C716 C 0.4939 0.6473 0.57287 0.0
C717 C 0.495 0.61649 0.56424 0.0
C718 C 0.47832 0.60363 0.539 0.0
C719 C 0.46081 0.62186 0.52184 0.0
H720 H 0.90918 0.95845 0.73472 0.0
H721 H 0.91893 0.86239 0.71422 0.0
H722 H 0.93398 0.87417 0.66252 0.0
H723 H 0.88438 0.97871 0.66066 0.0
H724 H 0.90573 0.01468 0.66211 0.0
H725 H 0.89292 0.9986 0.69673 0.0
H726 H 0.94604 0.0013 0.71852 0.0
H727 H 0.95892 0.01783 0.68421 0.0
H728 H 0.97395 0.98381 0.69697 0.0
H729 H 0.94987 0.89677 0.61287 0.0
H730 H 0.97057 0.92894 0.57269 0.0
H731 H 0.95333 0.00976 0.62704 0.0
C732 C 0.91457 0.93974 0.7196 0.0
C733 C 0.91225 0.90933 0.72883 0.0
C734 C 0.9195 0.88581 0.70778 0.0
C735 C 0.92829 0.89226 0.67825 0.0
C736 C 0.93013 0.92242 0.66998 0.0
C737 C 0.92388 0.9458 0.69024 0.0
C738 C 0.92977 0.97648 0.67662 0.0
C739 C 0.90151 0.99309 0.67387 0.0
C740 C 0.95359 0.99599 0.69517 0.0
C741 C 0.94055 0.96672 0.64565 0.0
C742 C 0.94017 0.93544 0.64196 0.0
C743 C 0.95004 0.9213 0.61544 0.0
C744 C 0.96145 0.93968 0.59254 0.0
C745 C 0.96317 0.97175 0.59656 0.0
C746 C 0.95201 0.98526 0.62322 0.0
H747 H 0.56302 0.04396 0.2492 0.0
H748 H 0.64172 0.09968 0.23061 0.0
H749 H 0.63447 0.08719 0.17567 0.0
H750 H 0.56935 0.98544 0.18449 0.0
H751 H 0.53043 0.9826 0.17695 0.0
H752 H 0.54449 0.99093 0.21517 0.0
H753 H 0.51607 0.03967 0.21856 0.0
H754 H 0.50187 0.03143 0.18056 0.0
H755 H 0.52152 0.06755 0.19012 0.0
H756 H 0.61602 0.07471 0.12359 0.0
H757 H 0.58554 0.06582 0.07682 0.0
H758 H 0.51757 0.01902 0.12764 0.0
C759 C 0.5791 0.05264 0.23347 0.0
C760 C 0.60315 0.07237 0.24387 0.0
C761 C 0.62336 0.08428 0.22287 0.0
C762 C 0.6195 0.07716 0.19173 0.0
C763 C 0.59529 0.05809 0.18198 0.0
C764 C 0.57535 0.04598 0.20213 0.0
C765 C 0.54939 0.02922 0.1853 0.0
C766 C 0.54836 0.99501 0.19081 0.0
C767 C 0.52052 0.0428 0.19416 0.0
C768 C 0.55711 0.03529 0.15267 0.0
C769 C 0.58415 0.05121 0.15136 0.0
C770 C 0.59517 0.06163 0.12419 0.0
C771 C 0.5778 0.05643 0.09777 0.0
C772 C 0.54975 0.04111 0.09875 0.0
C773 C 0.53944 0.02985 0.12634 0.0
H774 H 0.4286 0.62616 0.30507 0.0
H775 H 0.361 0.55333 0.28765 0.0
H776 H 0.37184 0.53308 0.33773 0.0
H777 H 0.47916 0.58233 0.33263 0.0
H778 H 0.49498 0.61001 0.3607 0.0
H779 H 0.47684 0.62244 0.32757 0.0
H780 H 0.44277 0.65271 0.36216 0.0
H781 H 0.46062 0.63974 0.39555 0.0
H782 H 0.42153 0.63328 0.39037 0.0
H783 H 0.39581 0.51576 0.38498 0.0
H784 H 0.43367 0.50033 0.42093 0.0
H785 H 0.4863 0.58337 0.40628 0.0
C786 C 0.41571 0.60624 0.31201 0.0
C787 C 0.39398 0.59133 0.2925 0.0
C788 C 0.37751 0.56538 0.30243 0.0
C789 C 0.38344 0.5538 0.3309 0.0
C790 C 0.40563 0.56865 0.3493 0.0
C791 C 0.42147 0.59438 0.34015 0.0
C792 C 0.44701 0.60356 0.36156 0.0
C793 C 0.47619 0.6046 0.34461 0.0
C794 C 0.44271 0.63414 0.37841 0.0
C795 C 0.44445 0.57773 0.38297 0.0
C796 C 0.41978 0.55843 0.37636 0.0
C797 C 0.41473 0.53111 0.39091 0.0
C798 C 0.43617 0.52258 0.41144 0.0
C799 C 0.46233 0.54113 0.41659 0.0
C800 C 0.46589 0.56949 0.40329 0.0
H801 H 0.06251 0.41618 0.77626 0.0
H802 H 0.13225 0.48765 0.77313 0.0
H803 H 0.12244 0.50399 0.82621 0.0
H804 H 0.0133 0.45905 0.81504 0.0
H805 H 0.99855 0.42829 0.83703 0.0
H806 H 0.01397 0.4202 0.80061 0.0
H807 H 0.04926 0.3847 0.82572 0.0
H808 H 0.03414 0.39309 0.86238 0.0
H809 H 0.07294 0.39937 0.85691 0.0
H810 H 0.10141 0.51545 0.87862 0.0
H811 H 0.06896 0.52282 0.92257 0.0
H812 H 0.01311 0.44452 0.88987 0.0
C813 C 0.07589 0.43516 0.78675 0.0
C814 C 0.09819 0.45057 0.77049 0.0
C815 C 0.1153 0.47517 0.78523 0.0
C816 C 0.10989 0.48463 0.81541 0.0
C817 C 0.08748 0.46906 0.83067 0.0
C818 C 0.0708 0.44482 0.81672 0.0
C819 C 0.04653 0.43329 0.83688 0.0
C820 C 0.01632 0.43537 0.82148 0.0
C821 C 0.051 0.40067 0.84601 0.0
C822 C 0.05127 0.45563 0.86385 0.0
C823 C 0.07539 0.47571 0.86035 0.0
C824 C 0.08279 0.49951 0.88179 0.0
C825 C 0.06445 0.50343 0.90679 0.0
C826 C 0.03895 0.48391 0.90964 0.0
C827 C 0.03286 0.45934 0.88839 0.0
H828 H 0.7378 0.94726 0.97357 0.0
H829 H 0.72611 0.94597 0.87574 0.0
H830 H 0.67854 0.96871 0.8817 0.0
H831 H 0.66655 0.92597 0.992 0.0
H832 H 0.66514 0.9511 0.0253 0.0
H833 H 0.69966 0.93854 0.01307 0.0
H834 H 0.72 0.99474 0.011 0.0
H835 H 0.68522 0.00745 0.02282 0.0
H836 H 0.70111 0.02041 0.98819 0.0
H837 H 0.63109 0.9878 0.89804 0.0
H838 H 0.58442 0.99563 0.92333 0.0
H839 H 0.62553 0.98334 0.01076 0.0
C840 C 0.72528 0.95226 0.95353 0.0
C841 C 0.73546 0.94521 0.92419 0.0
C842 C 0.71862 0.95162 0.89835 0.0
C843 C 0.69174 0.96467 0.90154 0.0
C844 C 0.68224 0.97159 0.93077 0.0
C845 C 0.69843 0.96557 0.95635 0.0
C846 C 0.68219 0.97324 0.9851 0.0
C847 C 0.67812 0.94555 0.00501 0.0
C848 C 0.69808 0.00057 0.00283 0.0
C849 C 0.65335 0.98195 0.97165 0.0
C850 C 0.65442 0.98218 0.94029 0.0
C851 C 0.63018 0.98827 0.92258 0.0
C852 C 0.60383 0.99301 0.93715 0.0
C853 C 0.60174 0.99101 0.96898 0.0
C854 C 0.62695 0.9861 0.98651 0.0
H855 H 0.77025 0.05911 0.47036 0.0
H856 H 0.79982 0.14082 0.42509 0.0
H857 H 0.85102 0.12989 0.43499 0.0
H858 H 0.83076 0.0621 0.52762 0.0
H859 H 0.83259 0.02138 0.52572 0.0
H860 H 0.7982 0.0377 0.51888 0.0
H861 H 0.79276 0.00831 0.46655 0.0
H862 H 0.82699 0.99189 0.47326 0.0
H863 H 0.82165 0.01268 0.43952 0.0
H864 H 0.89888 0.10876 0.4469 0.0
H865 H 0.93992 0.0765 0.45622 0.0
H866 H 0.87942 0.00666 0.49001 0.0
C867 C 0.78746 0.07484 0.46269 0.0
C868 C 0.78089 0.10104 0.44724 0.0
C869 C 0.80417 0.12102 0.43766 0.0
C870 C 0.83338 0.11496 0.44308 0.0
C871 C 0.83903 0.08884 0.45814 0.0
C872 C 0.81675 0.06902 0.46772 0.0
C873 C 0.82874 0.04137 0.48134 0.0
C874 C 0.82218 0.0406 0.51541 0.0
C875 C 0.81683 0.01183 0.46412 0.0
C876 C 0.86114 0.04799 0.47648 0.0
C877 C 0.86666 0.07597 0.46396 0.0
C878 C 0.89487 0.08697 0.45697 0.0
C879 C 0.91799 0.06863 0.46243 0.0
C880 C 0.91259 0.0395 0.4741 0.0
C881 C 0.88393 0.02911 0.48144 0.0
H882 H 0.23794 0.56317 0.08951 0.0
H883 H 0.24651 0.63204 0.0225 0.0
H884 H 0.19815 0.61327 0.99987 0.0
H885 H 0.19663 0.50284 0.04279 0.0
H886 H 0.17443 0.49208 0.07444 0.0
H887 H 0.21158 0.5075 0.08102 0.0
H888 H 0.1932 0.54927 0.11783 0.0
H889 H 0.15608 0.5342 0.11118 0.0
H890 H 0.16609 0.57354 0.10451 0.0
H891 H 0.14532 0.59017 0.98919 0.0
H892 H 0.0948 0.56605 0.99217 0.0
H893 H 0.12262 0.51504 0.06818 0.0
C894 C 0.22992 0.57402 0.06972 0.0
C895 C 0.24579 0.5991 0.05781 0.0
C896 C 0.2347 0.61258 0.0318 0.0
C897 C 0.20726 0.60211 0.0189 0.0
C898 C 0.19152 0.57809 0.03223 0.0
C899 C 0.20273 0.56418 0.057 0.0
C900 C 0.18079 0.54125 0.06957 0.0
C901 C 0.1915 0.50901 0.06676 0.0
C902 C 0.17362 0.55011 0.10271 0.0
C903 C 0.15517 0.54461 0.04838 0.0
C904 C 0.16158 0.56561 0.02668 0.0
C905 C 0.14026 0.57342 0.00588 0.0
C906 C 0.11167 0.55966 0.0077 0.0
C907 C 0.10482 0.53881 0.03048 0.0
C908 C 0.1271 0.53095 0.05053 0.0
H909 H 0.27221 0.41778 0.55478 0.0
H910 H 0.23865 0.49946 0.52051 0.0
H911 H 0.28716 0.5133 0.49891 0.0
H912 H 0.34049 0.45033 0.57814 0.0
H913 H 0.35963 0.4171 0.56815 0.0
H914 H 0.32169 0.41301 0.57776 0.0
H915 H 0.30989 0.38367 0.52613 0.0
H916 H 0.34786 0.38815 0.51613 0.0
H917 H 0.32009 0.40112 0.49129 0.0
H918 H 0.34103 0.51931 0.48397 0.0
H919 H 0.39518 0.51997 0.48308 0.0
H920 H 0.39161 0.43377 0.52678 0.0
C921 C 0.27477 0.43825 0.54211 0.0
C922 C 0.25154 0.45732 0.53893 0.0
C923 C 0.25618 0.48449 0.52318 0.0
C924 C 0.28354 0.49234 0.51058 0.0
C925 C 0.30592 0.47272 0.51389 0.0
C926 C 0.30172 0.44633 0.5295 0.0
C927 C 0.32959 0.43028 0.53245 0.0
C928 C 0.33836 0.42755 0.56611 0.0
C929 C 0.32667 0.39895 0.51548 0.0
C930 C 0.35053 0.45214 0.5168 0.0
C931 C 0.33653 0.47624 0.50566 0.0
C932 C 0.3521 0.50032 0.49225 0.0
C933 C 0.38282 0.5004 0.49157 0.0
C934 C 0.39745 0.4768 0.50469 0.0
C935 C 0.38092 0.45188 0.51622 0.0
H936 H 0.90428 0.70856 0.91169 0.0
H937 H 0.94346 0.76669 0.9859 0.0
H938 H 0.96466 0.72207 0.00736 0.0
H939 H 0.8869 0.64261 0.95285 0.0
H940 H 0.8965 0.61661 0.92252 0.0
H941 H 0.88384 0.65304 0.91387 0.0
H942 H 0.93094 0.66539 0.88377 0.0
H943 H 0.94375 0.62898 0.89229 0.0
H944 H 0.96618 0.66333 0.90215 0.0
H945 H 0.98256 0.66983 0.02011 0.0
H946 H 0.9945 0.61596 0.02269 0.0
H947 H 0.94476 0.59411 0.93879 0.0
C948 C 0.91756 0.71223 0.93228 0.0
C949 C 0.92209 0.74145 0.94694 0.0
C950 C 0.93917 0.74463 0.9743 0.0
C951 C 0.95155 0.71939 0.98659 0.0
C952 C 0.94687 0.69106 0.97122 0.0
C953 C 0.93031 0.6875 0.94459 0.0
C954 C 0.92887 0.65498 0.93192 0.0
C955 C 0.89714 0.64099 0.93021 0.0
C956 C 0.9433 0.65307 0.90069 0.0
C957 C 0.94681 0.64055 0.95579 0.0
C958 C 0.9572 0.6616 0.97828 0.0
C959 C 0.9745 0.65322 0.00257 0.0
C960 C 0.98122 0.62258 0.00384 0.0
C961 C 0.97056 0.60068 0.98102 0.0
C962 C 0.9532 0.61009 0.95675 0.0
H963 H 0.39438 0.81263 0.09023 0.0
H964 H 0.45568 0.81699 0.16658 0.0
H965 H 0.47304 0.8692 0.15403 0.0
H966 H 0.44025 0.84112 0.0405 0.0
H967 H 0.41464 0.8622 0.0199 0.0
H968 H 0.40161 0.83 0.04032 0.0
H969 H 0.36688 0.8639 0.07017 0.0
H970 H 0.38038 0.8965 0.04998 0.0
H971 H 0.38166 0.89785 0.09094 0.0
H972 H 0.49187 0.91405 0.12623 0.0
H973 H 0.51227 0.94392 0.08441 0.0
H974 H 0.43863 0.91126 0.02645 0.0
C975 C 0.41088 0.82499 0.10478 0.0
C976 C 0.42378 0.81092 0.12926 0.0
C977 C 0.44534 0.82757 0.14787 0.0
C978 C 0.45518 0.85729 0.14098 0.0
C979 C 0.44283 0.87015 0.1158 0.0
C980 C 0.42087 0.85452 0.09816 0.0
C981 C 0.41463 0.8707 0.0695 0.0
C982 C 0.41803 0.84978 0.04092 0.0
C983 C 0.38407 0.88297 0.07021 0.0
C984 C 0.4383 0.8964 0.07228 0.0
C985 C 0.45363 0.89653 0.09971 0.0
C986 C 0.47944 0.91495 0.10519 0.0
C987 C 0.49083 0.93205 0.08144 0.0
C988 C 0.47644 0.93024 0.05276 0.0
C989 C 0.44917 0.91374 0.04874 0.0
H990 H 0.02836 0.25455 0.59075 0.0
H991 H 0.05947 0.27291 0.50072 0.0
H992 H 0.04417 0.21995 0.48329 0.0
H993 H 0.05613 0.18579 0.59429 0.0
H994 H 0.02682 0.16791 0.61533 0.0
H995 H 0.0341 0.20844 0.6186 0.0
H996 H 0.98043 0.21577 0.60234 0.0
H997 H 0.97296 0.17506 0.59908 0.0
H998 H 0.96568 0.19785 0.56721 0.0
H999 H 0.03238 0.16259 0.47812 0.0
H1000 H 0.02768 0.10719 0.487 0.0
H1001 H 0.00495 0.12752 0.58035 0.0
C1002 C 0.03078 0.24778 0.56704 0.0
C1003 C 0.0447 0.26787 0.54699 0.0
C1004 C 0.04865 0.25784 0.51641 0.0
C1005 C 0.03989 0.22786 0.50627 0.0
C1006 C 0.0271 0.20822 0.52696 0.0
C1007 C 0.02243 0.21793 0.55671 0.0
C1008 C 0.01218 0.19171 0.57567 0.0
C1009 C 0.03359 0.18827 0.60252 0.0
C1010 C 0.98095 0.19532 0.58672 0.0
C1011 C 0.01286 0.16559 0.55235 0.0
C1012 C 0.0209 0.17539 0.52416 0.0
C1013 C 0.02548 0.15473 0.49995 0.0
C1014 C 0.02268 0.12334 0.50508 0.0
C1015 C 0.01591 0.11326 0.53429 0.0
C1016 C 0.00996 0.13468 0.55771 0.0
H1017 H 0.58534 0.29046 0.41472 0.0
H1018 H 0.54779 0.24651 0.49261 0.0
H1019 H 0.5263 0.29453 0.50861 0.0
H1020 H 0.60261 0.36363 0.45032 0.0
H1021 H 0.593 0.38353 0.41711 0.0
H1022 H 0.60594 0.34601 0.41293 0.0
H1023 H 0.55899 0.32772 0.38155 0.0
H1024 H 0.54582 0.36515 0.38582 0.0
H1025 H 0.52364 0.33259 0.39762 0.0
H1026 H 0.50867 0.34848 0.51547 0.0
H1027 H 0.49795 0.40267 0.51295 0.0
H1028 H 0.54519 0.40804 0.4286 0.0
C1029 C 0.57231 0.29064 0.43497 0.0
C1030 C 0.56806 0.26455 0.45223 0.0
C1031 C 0.55155 0.26625 0.47909 0.0
C1032 C 0.53908 0.29335 0.48824 0.0
C1033 C 0.54325 0.31843 0.4702 0.0
C1034 C 0.55953 0.31717 0.44414 0.0
C1035 C 0.56078 0.34688 0.42839 0.0
C1036 C 0.59246 0.36083 0.42714 0.0
C1037 C 0.54645 0.34283 0.39646 0.0
C1038 C 0.54274 0.36525 0.44967 0.0
C1039 C 0.53278 0.34868 0.47374 0.0
C1040 C 0.51625 0.36158 0.4966 0.0
C1041 C 0.51017 0.39231 0.49493 0.0
C1042 C 0.52057 0.40963 0.47051 0.0
C1043 C 0.53668 0.39555 0.44752 0.0
loop_
_geom_bond_atom_site_label_1
_geom_bond_atom_site_label_2
_geom_bond_distance
_geom_bond_site_symmetry_2
_ccdc_geom_bond_type
C0 C1 1.386 . S
C0 C2 1.397 . S
C0 H24 0.931 . S
C1 C0 1.386 . S
C1 C5 1.397 . S
C2 C0 1.397 . S
C2 C3 1.384 . S
C2 H25 0.930 . S
C3 C2 1.384 . S
C3 C4 1.377 . S
C3 C6 1.481 . S
C4 C3 1.377 . S
C4 C5 1.389 . S
C4 H26 0.929 . S
C5 C1 1.397 . S
C5 C4 1.389 . S
C5 H27 0.931 . S
C6 C3 1.481 . S
C6 C7 1.387 . S
C6 C11 1.390 . S
C7 C6 1.387 . S
C7 C8 1.401 . S
C7 H28 0.930 . S
C8 C7 1.401 . S
C8 C9 1.376 . S
C8 C17 1.511 . S
C9 C8 1.376 . S
C9 C10 1.392 . S
C9 H30 0.931 . S
C10 C9 1.392 . S
C10 C11 1.361 . S
C10 C12 1.500 . S
C11 C6 1.390 . S
C11 C10 1.361 . S
C11 H29 0.931 . S
C12 C10 1.500 . S
C12 C13 1.371 . S
C12 C14 1.365 . S
C13 C12 1.371 . S
C13 C23 1.386 . S
C13 H31 0.931 . S
C14 C12 1.365 . S
C14 C15 1.409 . S
C14 H32 0.929 . S
C15 C14 1.409 . S
C15 C16 1.380 . S
C15 H33 0.930 . S
C16 C15 1.380 . S
C16 C23 1.357 . S
C17 C8 1.511 . S
C17 C18 1.341 . S
C17 C19 1.371 . S
C18 C17 1.341 . S
C18 C22 1.394 . S
C18 H34 0.930 . S
C19 C17 1.371 . S
C19 C20 1.392 . S
C19 H35 0.931 . S
C20 C19 1.392 . S
C20 C21 1.331 . S
C20 H38 0.932 . S
C21 C20 1.331 . S
C21 C22 1.336 . S
C22 C18 1.394 . S
C22 C21 1.336 . S
C22 H37 0.929 . S
C23 C13 1.386 . S
C23 C16 1.357 . S
C23 H36 0.928 . S
H24 C0 0.931 . S
H25 C2 0.930 . S
H26 C4 0.929 . S
H27 C5 0.931 . S
H28 C7 0.930 . S
H29 C11 0.931 . S
H30 C9 0.931 . S
H31 C13 0.931 . S
H32 C14 0.929 . S
H33 C15 0.930 . S
H34 C18 0.930 . S
H35 C19 0.931 . S
H36 C23 0.928 . S
H37 C22 0.929 . S
H38 C20 0.932 . S
C39 C40 1.386 . S
C39 C41 1.397 . S
C39 H63 0.931 . S
C40 C39 1.386 . S
C40 C44 1.397 . S
C41 C39 1.397 . S
C41 C42 1.384 . S
C41 H64 0.930 . S
C42 C41 1.384 . S
C42 C43 1.377 . S
C42 C45 1.481 . S
C43 C42 1.377 . S
C43 C44 1.389 . S
C43 H65 0.929 . S
C44 C40 1.397 . S
C44 C43 1.389 . S
C44 H66 0.931 . S
C45 C42 1.481 . S
C45 C46 1.387 . S
C45 C50 1.390 . S
C46 C45 1.387 . S
C46 C47 1.401 . S
C46 H67 0.930 . S
C47 C46 1.401 . S
C47 C48 1.376 . S
C47 C56 1.511 . S
C48 C47 1.376 . S
C48 C49 1.392 . S
C48 H69 0.931 . S
C49 C48 1.392 . S
C49 C50 1.361 . S
C49 C51 1.500 . S
C50 C45 1.390 . S
C50 C49 1.361 . S
C50 H68 0.931 . S
C51 C49 1.500 . S
C51 C52 1.371 . S
C51 C53 1.365 . S
C52 C51 1.371 . S
C52 C62 1.386 . S
C52 H70 0.931 . S
C53 C51 1.365 . S
C53 C54 1.409 . S
C53 H71 0.929 . S
C54 C53 1.409 . S
C54 C55 1.380 . S
C54 H72 0.930 . S
C55 C54 1.380 . S
C55 C62 1.357 . S
C56 C47 1.511 . S
C56 C57 1.341 . S
C56 C58 1.371 . S
C57 C56 1.341 . S
C57 C61 1.394 . S
C57 H73 0.930 . S
C58 C56 1.371 . S
C58 C59 1.392 . S
C58 H74 0.931 . S
C59 C58 1.392 . S
C59 C60 1.331 . S
C59 H77 0.932 . S
C60 C59 1.331 . S
C60 C61 1.336 . S
C61 C57 1.394 . S
C61 C60 1.336 . S
C61 H76 0.929 . S
C62 C52 1.386 . S
C62 C55 1.357 . S
C62 H75 0.928 . S
H63 C39 0.931 . S
H64 C41 0.930 . S
H65 C43 0.929 . S
H66 C44 0.931 . S
H67 C46 0.930 . S
H68 C50 0.931 . S
H69 C48 0.931 . S
H70 C52 0.931 . S
H71 C53 0.929 . S
H72 C54 0.930 . S
H73 C57 0.930 . S
H74 C58 0.931 . S
H75 C62 0.928 . S
H76 C61 0.929 . S
H77 C59 0.932 . S
C78 C79 1.386 . S
C78 C80 1.397 . S
C78 H102 0.931 . S
C79 C78 1.386 . S
C79 C83 1.397 . S
C80 C78 1.397 . S
C80 C81 1.384 . S
C80 H103 0.930 . S
C81 C80 1.384 . S
C81 C82 1.377 . S
C81 C84 1.481 . S
C82 C81 1.377 . S
C82 C83 1.389 . S
C82 H104 0.929 . S
C83 C79 1.397 . S
C83 C82 1.389 . S
C83 H105 0.931 . S
C84 C81 1.481 . S
C84 C85 1.387 . S
C84 C89 1.390 . S
C85 C84 1.387 . S
C85 C86 1.401 . S
C85 H106 0.930 . S
C86 C85 1.401 . S
C86 C87 1.376 . S
C86 C95 1.511 . S
C87 C86 1.376 . S
C87 C88 1.392 . S
C87 H108 0.931 . S
C88 C87 1.392 . S
C88 C89 1.361 . S
C88 C90 1.500 . S
C89 C84 1.390 . S
C89 C88 1.361 . S
C89 H107 0.931 . S
C90 C88 1.500 . S
C90 C91 1.371 . S
C90 C92 1.365 . S
C91 C90 1.371 . S
C91 C101 1.386 . S
C91 H109 0.931 . S
C92 C90 1.365 . S
C92 C93 1.409 . S
C92 H110 0.929 . S
C93 C92 1.409 . S
C93 C94 1.380 . S
C93 H111 0.930 . S
C94 C93 1.380 . S
C94 C101 1.357 . S
C95 C86 1.511 . S
C95 C96 1.341 . S
C95 C97 1.371 . S
C96 C95 1.341 . S
C96 C100 1.394 . S
C96 H112 0.930 . S
C97 C95 1.371 . S
C97 C98 1.392 . S
C97 H113 0.931 . S
C98 C97 1.392 . S
C98 C99 1.331 . S
C98 H116 0.932 . S
C99 C98 1.331 . S
C99 C100 1.336 . S
C100 C96 1.394 . S
C100 C99 1.336 . S
C100 H115 0.929 . S
C101 C91 1.386 . S
C101 C94 1.357 . S
C101 H114 0.928 . S
H102 C78 0.931 . S
H103 C80 0.930 . S
H104 C82 0.929 . S
H105 C83 0.931 . S
H106 C85 0.930 . S
H107 C89 0.931 . S
H108 C87 0.931 . S
H109 C91 0.931 . S
H110 C92 0.929 . S
H111 C93 0.930 . S
H112 C96 0.930 . S
H113 C97 0.931 . S
H114 C101 0.928 . S
H115 C100 0.929 . S
H116 C98 0.932 . S
C117 C118 1.386 . S
C117 C119 1.397 . S
C117 H141 0.931 . S
C118 C117 1.386 . S
C118 C122 1.397 . S
C119 C117 1.397 . S
C119 C120 1.384 . S
C119 H142 0.930 . S
C120 C119 1.384 . S
C120 C121 1.377 . S
C120 C123 1.481 . S
C121 C120 1.377 . S
C121 C122 1.389 . S
C121 H143 0.929 . S
C122 C118 1.397 . S
C122 C121 1.389 . S
C122 H144 0.931 . S
C123 C120 1.481 . S
C123 C124 1.387 . S
C123 C128 1.390 . S
C124 C123 1.387 . S
C124 C125 1.401 . S
C124 H145 0.930 . S
C125 C124 1.401 . S
C125 C126 1.376 . S
C125 C134 1.511 . S
C126 C125 1.376 . S
C126 C127 1.392 . S
C126 H147 0.931 . S
C127 C126 1.392 . S
C127 C128 1.361 . S
C127 C129 1.500 . S
C128 C123 1.390 . S
C128 C127 1.361 . S
C128 H146 0.931 . S
C129 C127 1.500 . S
C129 C130 1.371 . S
C129 C131 1.365 . S
C130 C129 1.371 . S
C130 C140 1.386 . S
C130 H148 0.931 . S
C131 C129 1.365 . S
C131 C132 1.409 . S
C131 H149 0.929 . S
C132 C131 1.409 . S
C132 C133 1.380 . S
C132 H150 0.930 . S
C133 C132 1.380 . S
C133 C140 1.357 . S
C134 C125 1.511 . S
C134 C135 1.341 . S
C134 C136 1.371 . S
C135 C134 1.341 . S
C135 C139 1.394 . S
C135 H151 0.930 . S
C136 C134 1.371 . S
C136 C137 1.392 . S
C136 H152 0.931 . S
C137 C136 1.392 . S
C137 C138 1.331 . S
C137 H155 0.932 . S
C138 C137 1.331 . S
C138 C139 1.336 . S
C139 C135 1.394 . S
C139 C138 1.336 . S
C139 H154 0.929 . S
C140 C130 1.386 . S
C140 C133 1.357 . S
C140 H153 0.928 . S
H141 C117 0.931 . S
H142 C119 0.930 . S
H143 C121 0.929 . S
H144 C122 0.931 . S
H145 C124 0.930 . S
H146 C128 0.931 . S
H147 C126 0.931 . S
H148 C130 0.931 . S
H149 C131 0.929 . S
H150 C132 0.930 . S
H151 C135 0.930 . S
H152 C136 0.931 . S
H153 C140 0.928 . S
H154 C139 0.929 . S
H155 C137 0.932 . S
C156 C157 1.386 . S
C156 C158 1.397 . S
C156 H180 0.931 . S
C157 C156 1.386 . S
C157 C161 1.397 . S
C158 C156 1.397 . S
C158 C159 1.384 . S
C158 H181 0.930 . S
C159 C158 1.384 . S
C159 C160 1.377 . S
C159 C162 1.481 . S
C160 C159 1.377 . S
C160 C161 1.389 . S
C160 H182 0.929 . S
C161 C157 1.397 . S
C161 C160 1.389 . S
C161 H183 0.931 . S
C162 C159 1.481 . S
C162 C163 1.387 . S
C162 C167 1.390 . S
C163 C162 1.387 . S
C163 C164 1.401 . S
C163 H184 0.930 . S
C164 C163 1.401 . S
C164 C165 1.376 . S
C164 C173 1.511 . S
C165 C164 1.376 . S
C165 C166 1.392 . S
C165 H186 0.931 . S
C166 C165 1.392 . S
C166 C167 1.361 . S
C166 C168 1.500 . S
C167 C162 1.390 . S
C167 C166 1.361 . S
C167 H185 0.931 . S
C168 C166 1.500 . S
C168 C169 1.371 . S
C168 C170 1.365 . S
C169 C168 1.371 . S
C169 C179 1.386 . S
C169 H187 0.931 . S
C170 C168 1.365 . S
C170 C171 1.409 . S
C170 H188 0.929 . S
C171 C170 1.409 . S
C171 C172 1.380 . S
C171 H189 0.930 . S
C172 C171 1.380 . S
C172 C179 1.357 . S
C173 C164 1.511 . S
C173 C174 1.341 . S
C173 C175 1.371 . S
C174 C173 1.341 . S
C174 C178 1.394 . S
C174 H190 0.930 . S
C175 C173 1.371 . S
C175 C176 1.392 . S
C175 H191 0.931 . S
C176 C175 1.392 . S
C176 C177 1.331 . S
C176 H194 0.932 . S
C177 C176 1.331 . S
C177 C178 1.336 . S
C178 C174 1.394 . S
C178 C177 1.336 . S
C178 H193 0.929 . S
C179 C169 1.386 . S
C179 C172 1.357 . S
C179 H192 0.928 . S
H180 C156 0.931 . S
H181 C158 0.930 . S
H182 C160 0.929 . S
H183 C161 0.931 . S
H184 C163 0.930 . S
H185 C167 0.931 . S
H186 C165 0.931 . S
H187 C169 0.931 . S
H188 C170 0.929 . S
H189 C171 0.930 . S
H190 C174 0.930 . S
H191 C175 0.931 . S
H192 C179 0.928 . S
H193 C178 0.929 . S
H194 C176 0.932 . S
C195 C196 1.386 . S
C195 C197 1.397 . S
C195 H219 0.931 . S
C196 C195 1.386 . S
C196 C200 1.397 . S
C197 C195 1.397 . S
C197 C198 1.384 . S
C197 H220 0.930 . S
C198 C197 1.384 . S
C198 C199 1.377 . S
C198 C201 1.481 . S
C199 C198 1.377 . S
C199 C200 1.389 . S
C199 H221 0.929 . S
C200 C196 1.397 . S
C200 C199 1.389 . S
C200 H222 0.931 . S
C201 C198 1.481 . S
C201 C202 1.387 . S
C201 C206 1.390 . S
C202 C201 1.387 . S
C202 C203 1.401 . S
C202 H223 0.930 . S
C203 C202 1.401 . S
C203 C204 1.376 . S
C203 C212 1.511 . S
C204 C203 1.376 . S
C204 C205 1.392 . S
C204 H225 0.931 . S
C205 C204 1.392 . S
C205 C206 1.361 . S
C205 C207 1.500 . S
C206 C201 1.390 . S
C206 C205 1.361 . S
C206 H224 0.931 . S
C207 C205 1.500 . S
C207 C208 1.371 . S
C207 C209 1.365 . S
C208 C207 1.371 . S
C208 C218 1.386 . S
C208 H226 0.931 . S
C209 C207 1.365 . S
C209 C210 1.409 . S
C209 H227 0.929 . S
C210 C209 1.409 . S
C210 C211 1.380 . S
C210 H228 0.930 . S
C211 C210 1.380 . S
C211 C218 1.357 . S
C212 C203 1.511 . S
C212 C213 1.341 . S
C212 C214 1.371 . S
C213 C212 1.341 . S
C213 C217 1.394 . S
C213 H229 0.930 . S
C214 C212 1.371 . S
C214 C215 1.392 . S
C214 H230 0.931 . S
C215 C214 1.392 . S
C215 C216 1.331 . S
C215 H233 0.932 . S
C216 C215 1.331 . S
C216 C217 1.336 . S
C217 C213 1.394 . S
C217 C216 1.336 . S
C217 H232 0.929 . S
C218 C208 1.386 . S
C218 C211 1.357 . S
C218 H231 0.928 . S
H219 C195 0.931 . S
H220 C197 0.930 . S
H221 C199 0.929 . S
H222 C200 0.931 . S
H223 C202 0.930 . S
H224 C206 0.931 . S
H225 C204 0.931 . S
H226 C208 0.931 . S
H227 C209 0.929 . S
H228 C210 0.930 . S
H229 C213 0.930 . S
H230 C214 0.931 . S
H231 C218 0.928 . S
H232 C217 0.929 . S
H233 C215 0.932 . S
C234 C235 1.386 . S
C234 C236 1.397 . S
C234 H258 0.931 . S
C235 C234 1.386 . S
C235 C239 1.397 . S
C236 C234 1.397 . S
C236 C237 1.384 . S
C236 H259 0.930 . S
C237 C236 1.384 . S
C237 C238 1.377 . S
C237 C240 1.481 . S
C238 C237 1.377 . S
C238 C239 1.389 . S
C238 H260 0.929 . S
C239 C235 1.397 . S
C239 C238 1.389 . S
C239 H261 0.931 . S
C240 C237 1.481 . S
C240 C241 1.387 . S
C240 C245 1.390 . S
C241 C240 1.387 . S
C241 C242 1.401 . S
C241 H262 0.930 . S
C242 C241 1.401 . S
C242 C243 1.376 . S
C242 C251 1.511 . S
C243 C242 1.376 . S
C243 C244 1.392 . S
C243 H264 0.931 . S
C244 C243 1.392 . S
C244 C245 1.361 . S
C244 C246 1.500 . S
C245 C240 1.390 . S
C245 C244 1.361 . S
C245 H263 0.931 . S
C246 C244 1.500 . S
C246 C247 1.371 . S
C246 C248 1.365 . S
C247 C246 1.371 . S
C247 C257 1.386 . S
C247 H265 0.931 . S
C248 C246 1.365 . S
C248 C249 1.409 . S
C248 H266 0.929 . S
C249 C248 1.409 . S
C249 C250 1.380 . S
C249 H267 0.930 . S
C250 C249 1.380 . S
C250 C257 1.357 . S
C251 C242 1.511 . S
C251 C252 1.341 . S
C251 C253 1.371 . S
C252 C251 1.341 . S
C252 C256 1.394 . S
C252 H268 0.930 . S
C253 C251 1.371 . S
C253 C254 1.392 . S
C253 H269 0.931 . S
C254 C253 1.392 . S
C254 C255 1.331 . S
C254 H272 0.932 . S
C255 C254 1.331 . S
C255 C256 1.336 . S
C256 C252 1.394 . S
C256 C255 1.336 . S
C256 H271 0.929 . S
C257 C247 1.386 . S
C257 C250 1.357 . S
C257 H270 0.928 . S
H258 C234 0.931 . S
H259 C236 0.930 . S
H260 C238 0.929 . S
H261 C239 0.931 . S
H262 C241 0.930 . S
H263 C245 0.931 . S
H264 C243 0.931 . S
H265 C247 0.931 . S
H266 C248 0.929 . S
H267 C249 0.930 . S
H268 C252 0.930 . S
H269 C253 0.931 . S
H270 C257 0.928 . S
H271 C256 0.929 . S
H272 C254 0.932 . S
C273 C274 1.386 . S
C273 C275 1.397 . S
C273 H297 0.931 . S
C274 C273 1.386 . S
C274 C278 1.397 . S
C275 C273 1.397 . S
C275 C276 1.384 . S
C275 H298 0.930 . S
C276 C275 1.384 . S
C276 C277 1.377 . S
C276 C279 1.481 . S
C277 C276 1.377 . S
C277 C278 1.389 . S
C277 H299 0.929 . S
C278 C274 1.397 . S
C278 C277 1.389 . S
C278 H300 0.931 . S
C279 C276 1.481 . S
C279 C280 1.387 . S
C279 C284 1.390 . S
C280 C279 1.387 . S
C280 C281 1.401 . S
C280 H301 0.930 . S
C281 C280 1.401 . S
C281 C282 1.376 . S
C281 C290 1.511 . S
C282 C281 1.376 . S
C282 C283 1.392 . S
C282 H303 0.931 . S
C283 C282 1.392 . S
C283 C284 1.361 . S
C283 C285 1.500 . S
C284 C279 1.390 . S
C284 C283 1.361 . S
C284 H302 0.931 . S
C285 C283 1.500 . S
C285 C286 1.371 . S
C285 C287 1.365 . S
C286 C285 1.371 . S
C286 C296 1.386 . S
C286 H304 0.931 . S
C287 C285 1.365 . S
C287 C288 1.409 . S
C287 H305 0.929 . S
C288 C287 1.409 . S
C288 C289 1.380 . S
C288 H306 0.930 . S
C289 C288 1.380 . S
C289 C296 1.357 . S
C290 C281 1.511 . S
C290 C291 1.341 . S
C290 C292 1.371 . S
C291 C290 1.341 . S
C291 C295 1.394 . S
C291 H307 0.930 . S
C292 C290 1.371 . S
C292 C293 1.392 . S
C292 H308 0.931 . S
C293 C292 1.392 . S
C293 C294 1.331 . S
C293 H311 0.932 . S
C294 C293 1.331 . S
C294 C295 1.336 . S
C295 C291 1.394 . S
C295 C294 1.336 . S
C295 H310 0.929 . S
C296 C286 1.386 . S
C296 C289 1.357 . S
C296 H309 0.928 . S
H297 C273 0.931 . S
H298 C275 0.930 . S
H299 C277 0.929 . S
H300 C278 0.931 . S
H301 C280 0.930 . S
H302 C284 0.931 . S
H303 C282 0.931 . S
H304 C286 0.931 . S
H305 C287 0.929 . S
H306 C288 0.930 . S
H307 C291 0.930 . S
H308 C292 0.931 . S
H309 C296 0.928 . S
H310 C295 0.929 . S
H311 C293 0.932 . S
O312 Mg313 1.990 . S
O312 C326 1.253 1_445 S
Mg313 O312 1.990 . S
Mg313 O316 2.180 . S
Mg313 O317 2.117 . S
Mg313 O331 2.030 1_545 S
O314 Mg315 2.072 1_665 S
O314 C326 1.260 . S
Mg315 O314 2.072 1_445 S
Mg315 O316 2.099 . S
Mg315 O318 2.079 . S
Mg315 O319 2.072 1_455 S
Mg315 O321 2.099 1_445 S
Mg315 O332 2.079 1_545 S
O316 Mg313 2.180 . S
O316 Mg315 2.099 . S
O316 C327 1.279 . S
O317 Mg313 2.117 . S
O317 C327 1.250 . S
O318 Mg315 2.079 . S
O318 C328 1.264 . S
O319 Mg315 2.072 1_655 S
O319 C329 1.260 . S
Mg320 O321 2.180 . S
Mg320 O322 2.030 1_565 S
Mg320 O323 1.990 1_565 S
Mg320 O324 2.117 . S
O321 Mg315 2.099 1_665 S
O321 Mg320 2.180 . S
O321 C330 1.279 . S
O322 Mg320 2.030 1_545 S
O322 C328 1.248 1_655 S
O323 Mg320 1.990 1_545 S
O323 C329 1.253 . S
O324 Mg320 2.117 . S
O324 C330 1.250 . S
C325 O331 1.248 . S
C325 O332 1.264 . S
C326 O312 1.253 1_665 S
C326 O314 1.260 . S
C327 O316 1.279 . S
C327 O317 1.250 . S
C328 O318 1.264 . S
C328 O322 1.248 1_455 S
C329 O319 1.260 . S
C329 O323 1.253 . S
C330 O321 1.279 . S
C330 O324 1.250 . S
O331 Mg313 2.030 1_565 S
O331 C325 1.248 . S
O332 Mg315 2.079 1_565 S
O332 C325 1.264 . S
O333 Mg334 1.990 . S
O333 C347 1.253 . S
Mg334 O333 1.990 . S
Mg334 O337 2.166 1_554 S
Mg334 O338 2.117 1_554 S
Mg334 O352 2.030 . S
O335 Mg336 2.072 . S
O335 C347 1.260 . S
Mg336 O335 2.072 . S
Mg336 O337 2.095 1_554 S
Mg336 O339 2.079 1_554 S
Mg336 O340 2.072 1_554 S
Mg336 O342 2.099 1_545 S
Mg336 O353 2.079 . S
O337 Mg334 2.166 1_556 S
O337 Mg336 2.095 1_556 S
O337 C348 1.293 . S
O338 Mg334 2.117 1_556 S
O338 C348 1.250 . S
O339 Mg336 2.079 1_556 S
O339 C349 1.264 1_545 S
O340 Mg336 2.072 1_556 S
O340 C350 1.260 1_545 S
Mg341 O342 2.180 1_556 S
Mg341 O343 2.030 . S
Mg341 O344 1.990 . S
Mg341 O345 2.117 1_556 S
O342 Mg336 2.099 1_565 S
O342 Mg341 2.180 1_554 S
O342 C351 1.279 . S
O343 Mg341 2.030 . S
O343 C349 1.248 . S
O344 Mg341 1.990 . S
O344 C350 1.253 . S
O345 Mg341 2.117 1_554 S
O345 C351 1.250 . S
C346 O352 1.248 . S
C346 O353 1.264 . S
C347 O333 1.253 . S
C347 O335 1.260 . S
C348 O337 1.293 . S
C348 O338 1.250 . S
C349 O339 1.264 1_565 S
C349 O343 1.248 . S
C350 O340 1.260 1_565 S
C350 O344 1.253 . S
C351 O342 1.279 . S
C351 O345 1.250 . S
O352 Mg334 2.030 . S
O352 C346 1.248 . S
O353 Mg336 2.079 . S
O353 C346 1.264 . S
O354 Mg355 1.990 . S
O354 C368 1.253 . S
Mg355 O354 1.990 . S
Mg355 O358 2.180 . S
Mg355 O359 2.117 . S
Mg355 O373 2.030 . S
O356 Mg357 2.072 . S
O356 C368 1.260 . S
Mg357 O356 2.072 . S
Mg357 O358 2.099 . S
Mg357 O360 2.079 . S
Mg357 O361 2.072 . S
Mg357 O363 2.099 . S
Mg357 O374 2.079 . S
O358 Mg355 2.180 . S
O358 Mg357 2.099 . S
O358 C369 1.279 . S
O359 Mg355 2.117 . S
O359 C369 1.250 . S
O360 Mg357 2.079 . S
O360 C370 1.264 . S
O361 Mg357 2.072 . S
O361 C371 1.260 . S
Mg362 O363 2.180 . S
Mg362 O364 2.030 . S
Mg362 O365 1.990 . S
Mg362 O366 2.117 . S
O363 Mg357 2.099 . S
O363 Mg362 2.180 . S
O363 C372 1.279 . S
O364 Mg362 2.030 . S
O364 C370 1.248 . S
O365 Mg362 1.990 . S
O365 C371 1.253 . S
O366 Mg362 2.117 . S
O366 C372 1.250 . S
C367 O373 1.248 . S
C367 O374 1.264 . S
C368 O354 1.253 . S
C368 O356 1.260 . S
C369 O358 1.279 . S
C369 O359 1.250 . S
C370 O360 1.264 . S
C370 O364 1.248 . S
C371 O361 1.260 . S
C371 O365 1.253 . S
C372 O363 1.279 . S
C372 O366 1.250 . S
O373 Mg355 2.030 . S
O373 C367 1.248 . S
O374 Mg357 2.079 . S
O374 C367 1.264 . S
O375 Mg376 1.990 . S
O375 C389 1.253 . S
Mg376 O375 1.990 . S
Mg376 O379 2.180 1_455 S
Mg376 O380 2.117 1_455 S
Mg376 O394 2.030 . S
O377 Mg378 2.072 . S
O377 C389 1.260 . S
Mg378 O377 2.072 . S
Mg378 O379 2.099 1_455 S
Mg378 O381 2.079 1_454 S
Mg378 O382 2.072 1_455 S
Mg378 O384 2.099 1_554 S
Mg378 O395 2.079 . S
O379 Mg376 2.180 1_655 S
O379 Mg378 2.099 1_655 S
O379 C390 1.279 . S
O380 Mg376 2.117 1_655 S
O380 C390 1.250 . S
O381 Mg378 2.079 1_656 S
O381 C391 1.264 . S
O382 Mg378 2.072 1_655 S
O382 C392 1.260 1_554 S
Mg383 O384 2.180 1_655 S
Mg383 O385 2.030 . S
Mg383 O386 1.990 . S
Mg383 O387 2.117 . S
O384 Mg378 2.099 1_556 S
O384 Mg383 2.180 1_455 S
O384 C393 1.279 . S
O385 Mg383 2.030 . S
O385 C391 1.248 . S
O386 Mg383 1.990 . S
O386 C392 1.253 . S
O387 Mg383 2.117 . S
O387 C393 1.250 1_655 S
C388 O394 1.248 . S
C388 O395 1.264 . S
C389 O375 1.253 . S
C389 O377 1.260 . S
C390 O379 1.279 . S
C390 O380 1.250 . S
C391 O381 1.264 . S
C391 O385 1.248 . S
C392 O382 1.260 1_556 S
C392 O386 1.253 . S
C393 O384 1.279 . S
C393 O387 1.250 1_455 S
O394 Mg376 2.030 . S
O394 C388 1.248 . S
O395 Mg378 2.079 . S
O395 C388 1.264 . S
H396 C408 0.930 . S
H397 C410 0.930 . S
H398 C411 0.930 . S
H399 C415 0.959 . S
H400 C415 0.959 1_565 S
H401 C415 0.961 1_565 S
H402 C416 0.960 1_565 S
H403 C416 0.961 1_565 S
H404 C416 0.959 . S
H405 C419 0.929 . S
H406 C420 0.931 . S
H407 C422 0.930 . S
C408 H396 0.930 . S
C408 C409 1.399 . S
C408 C413 1.399 . S
C409 C408 1.399 . S
C409 C410 1.376 . S
C410 H397 0.930 . S
C410 C409 1.376 . S
C410 C411 1.388 . S
C411 H398 0.930 . S
C411 C410 1.388 . S
C411 C412 1.390 . S
C412 C411 1.390 . S
C412 C413 1.394 . S
C412 C418 1.465 . S
C413 C408 1.399 . S
C413 C412 1.394 . S
C413 C414 1.516 . S
C414 C413 1.516 . S
C414 C415 1.502 . S
C414 C416 1.561 . S
C414 C417 1.526 . S
C415 H399 0.959 . S
C415 H400 0.959 1_545 S
C415 H401 0.961 1_545 S
C415 C414 1.502 . S
C416 H402 0.960 1_545 S
C416 H403 0.961 1_545 S
C416 H404 0.959 . S
C416 C414 1.561 . S
C417 C414 1.526 . S
C417 C418 1.396 . S
C417 C422 1.390 . S
C418 C412 1.465 . S
C418 C417 1.396 . S
C418 C419 1.399 . S
C419 H405 0.929 . S
C419 C418 1.399 . S
C419 C420 1.385 . S
C420 H406 0.931 . S
C420 C419 1.385 . S
C420 C421 1.389 . S
C421 C420 1.389 . S
C421 C422 1.387 . S
C422 H407 0.930 . S
C422 C417 1.390 . S
C422 C421 1.387 . S
H423 C435 0.930 . S
H424 C437 0.930 . S
H425 C438 0.930 1_545 S
H426 C442 0.959 . S
H427 C442 0.959 . S
H428 C442 0.961 . S
H429 C443 0.960 . S
H430 C443 0.961 . S
H431 C443 0.959 . S
H432 C446 0.929 . S
H433 C447 0.931 . S
H434 C449 0.930 . S
C435 H423 0.930 . S
C435 C436 1.399 . S
C435 C440 1.399 . S
C436 C435 1.399 . S
C436 C437 1.376 . S
C437 H424 0.930 . S
C437 C436 1.376 . S
C437 C438 1.388 . S
C438 H425 0.930 1_565 S
C438 C437 1.388 . S
C438 C439 1.390 . S
C439 C438 1.390 . S
C439 C440 1.394 . S
C439 C445 1.465 . S
C440 C435 1.399 . S
C440 C439 1.394 . S
C440 C441 1.516 . S
C441 C440 1.516 . S
C441 C442 1.502 . S
C441 C443 1.561 . S
C441 C444 1.526 . S
C442 H426 0.959 . S
C442 H427 0.959 . S
C442 H428 0.961 . S
C442 C441 1.502 . S
C443 H429 0.960 . S
C443 H430 0.961 . S
C443 H431 0.959 . S
C443 C441 1.561 . S
C444 C441 1.526 . S
C444 C445 1.396 . S
C444 C449 1.390 . S
C445 C439 1.465 . S
C445 C444 1.396 . S
C445 C446 1.399 1_565 S
C446 H432 0.929 . S
C446 C445 1.399 1_545 S
C446 C447 1.385 . S
C447 H433 0.931 . S
C447 C446 1.385 . S
C447 C448 1.389 1_545 S
C448 C447 1.389 1_565 S
C448 C449 1.387 . S
C449 H434 0.930 . S
C449 C444 1.390 . S
C449 C448 1.387 . S
H450 C462 0.930 . S
H451 C464 0.930 . S
H452 C465 0.930 . S
H453 C469 0.959 . S
H454 C469 0.959 . S
H455 C469 0.961 . S
H456 C470 0.960 . S
H457 C470 0.961 . S
H458 C470 0.959 . S
H459 C473 0.929 . S
H460 C474 0.931 . S
H461 C476 0.930 . S
C462 H450 0.930 . S
C462 C463 1.399 . S
C462 C467 1.399 . S
C463 C462 1.399 . S
C463 C464 1.376 . S
C464 H451 0.930 . S
C464 C463 1.376 . S
C464 C465 1.388 . S
C465 H452 0.930 . S
C465 C464 1.388 . S
C465 C466 1.390 . S
C466 C465 1.390 . S
C466 C467 1.394 . S
C466 C472 1.465 . S
C467 C462 1.399 . S
C467 C466 1.394 . S
C467 C468 1.516 . S
C468 C467 1.516 . S
C468 C469 1.502 . S
C468 C470 1.561 . S
C468 C471 1.526 . S
C469 H453 0.959 . S
C469 H454 0.959 . S
C469 H455 0.961 . S
C469 C468 1.502 . S
C470 H456 0.960 . S
C470 H457 0.961 . S
C470 H458 0.959 . S
C470 C468 1.561 . S
C471 C468 1.526 . S
C471 C472 1.396 . S
C471 C476 1.390 . S
C472 C466 1.465 . S
C472 C471 1.396 . S
C472 C473 1.399 . S
C473 H459 0.929 . S
C473 C472 1.399 . S
C473 C474 1.385 . S
C474 H460 0.931 . S
C474 C473 1.385 . S
C474 C475 1.389 . S
C475 C474 1.389 . S
C475 C476 1.387 . S
C476 H461 0.930 . S
C476 C471 1.390 . S
C476 C475 1.387 . S
H477 C489 0.930 . S
H478 C491 0.930 . S
H479 C492 0.930 . S
H480 C496 0.959 . S
H481 C496 0.959 . S
H482 C496 0.961 . S
H483 C497 0.960 . S
H484 C497 0.961 . S
H485 C497 0.959 . S
H486 C500 0.929 . S
H487 C501 0.931 . S
H488 C503 0.930 . S
C489 H477 0.930 . S
C489 C490 1.399 . S
C489 C494 1.399 . S
C490 C489 1.399 . S
C490 C491 1.376 . S
C491 H478 0.930 . S
C491 C490 1.376 . S
C491 C492 1.388 . S
C492 H479 0.930 . S
C492 C491 1.388 . S
C492 C493 1.390 . S
C493 C492 1.390 . S
C493 C494 1.394 . S
C493 C499 1.465 . S
C494 C489 1.399 . S
C494 C493 1.394 . S
C494 C495 1.516 . S
C495 C494 1.516 . S
C495 C496 1.502 . S
C495 C497 1.561 . S
C495 C498 1.526 . S
C496 H480 0.959 . S
C496 H481 0.959 . S
C496 H482 0.961 . S
C496 C495 1.502 . S
C497 H483 0.960 . S
C497 H484 0.961 . S
C497 H485 0.959 . S
C497 C495 1.561 . S
C498 C495 1.526 . S
C498 C499 1.396 . S
C498 C503 1.390 . S
C499 C493 1.465 . S
C499 C498 1.396 . S
C499 C500 1.399 . S
C500 H486 0.929 . S
C500 C499 1.399 . S
C500 C501 1.385 . S
C501 H487 0.931 . S
C501 C500 1.385 . S
C501 C502 1.389 . S
C502 C501 1.389 . S
C502 C503 1.387 . S
C503 H488 0.930 . S
C503 C498 1.390 . S
C503 C502 1.387 . S
H504 C516 0.930 . S
H505 C518 0.930 . S
H506 C519 0.930 . S
H507 C523 0.959 . S
H508 C523 0.959 . S
H509 C523 0.961 . S
H510 C524 0.957 1_565 S
H511 C524 0.961 1_565 S
H512 C524 0.960 . S
H513 C527 0.929 . S
H514 C528 0.931 . S
H515 C530 0.930 . S
C516 H504 0.930 . S
C516 C517 1.399 . S
C516 C521 1.399 . S
C517 C516 1.399 . S
C517 C518 1.376 . S
C518 H505 0.930 . S
C518 C517 1.376 . S
C518 C519 1.388 . S
C519 H506 0.930 . S
C519 C518 1.388 . S
C519 C520 1.390 . S
C520 C519 1.390 . S
C520 C521 1.394 . S
C520 C526 1.465 . S
C521 C516 1.399 . S
C521 C520 1.394 . S
C521 C522 1.516 . S
C522 C521 1.516 . S
C522 C523 1.502 . S
C522 C524 1.561 . S
C522 C525 1.526 . S
C523 H507 0.959 . S
C523 H508 0.959 . S
C523 H509 0.961 . S
C523 C522 1.502 . S
C524 H510 0.957 1_545 S
C524 H511 0.961 1_545 S
C524 H512 0.960 . S
C524 C522 1.561 . S
C525 C522 1.526 . S
C525 C526 1.396 . S
C525 C530 1.390 . S
C526 C520 1.465 . S
C526 C525 1.396 . S
C526 C527 1.399 . S
C527 H513 0.929 . S
C527 C526 1.399 . S
C527 C528 1.385 . S
C528 H514 0.931 . S
C528 C527 1.385 . S
C528 C529 1.389 . S
C529 C528 1.389 . S
C529 C530 1.387 . S
C530 H515 0.930 . S
C530 C525 1.390 . S
C530 C529 1.387 . S
H531 C543 0.930 . S
H532 C545 0.930 . S
H533 C546 0.930 . S
H534 C550 0.959 . S
H535 C550 0.959 . S
H536 C550 0.961 . S
H537 C551 0.960 . S
H538 C551 0.961 . S
H539 C551 0.959 . S
H540 C554 0.929 1_545 S
H541 C555 0.931 1_545 S
H542 C557 0.930 . S
C543 H531 0.930 . S
C543 C544 1.399 . S
C543 C548 1.399 . S
C544 C543 1.399 . S
C544 C545 1.376 . S
C545 H532 0.930 . S
C545 C544 1.376 . S
C545 C546 1.388 . S
C546 H533 0.930 . S
C546 C545 1.388 . S
C546 C547 1.390 . S
C547 C546 1.390 . S
C547 C548 1.394 . S
C547 C553 1.465 . S
C548 C543 1.399 . S
C548 C547 1.394 . S
C548 C549 1.516 . S
C549 C548 1.516 . S
C549 C550 1.502 . S
C549 C551 1.561 . S
C549 C552 1.526 . S
C550 H534 0.959 . S
C550 H535 0.959 . S
C550 H536 0.961 . S
C550 C549 1.502 . S
C551 H537 0.960 . S
C551 H538 0.961 . S
C551 H539 0.959 . S
C551 C549 1.561 . S
C552 C549 1.526 . S
C552 C553 1.396 . S
C552 C557 1.390 . S
C553 C547 1.465 . S
C553 C552 1.396 . S
C553 C554 1.399 . S
C554 H540 0.929 1_565 S
C554 C553 1.399 . S
C554 C555 1.385 . S
C555 H541 0.931 1_565 S
C555 C554 1.385 . S
C555 C556 1.389 . S
C556 C555 1.389 . S
C556 C557 1.387 . S
C557 H542 0.930 . S
C557 C552 1.390 . S
C557 C556 1.387 . S
H558 C570 0.930 . S
H559 C572 0.930 . S
H560 C573 0.930 . S
H561 C577 0.959 . S
H562 C577 0.959 . S
H563 C577 0.961 . S
H564 C578 0.960 . S
H565 C578 0.961 . S
H566 C578 0.959 . S
H567 C581 0.929 . S
H568 C582 0.931 . S
H569 C584 0.930 1_554 S
C570 H558 0.930 . S
C570 C571 1.399 . S
C570 C575 1.399 . S
C571 C570 1.399 . S
C571 C572 1.376 . S
C572 H559 0.930 . S
C572 C571 1.376 . S
C572 C573 1.388 . S
C573 H560 0.930 . S
C573 C572 1.388 . S
C573 C574 1.390 . S
C574 C573 1.390 . S
C574 C575 1.394 . S
C574 C580 1.465 . S
C575 C570 1.399 . S
C575 C574 1.394 . S
C575 C576 1.516 . S
C576 C575 1.516 . S
C576 C577 1.502 1_556 S
C576 C578 1.561 . S
C576 C579 1.526 . S
C577 H561 0.959 . S
C577 H562 0.959 . S
C577 H563 0.961 . S
C577 C576 1.502 1_554 S
C578 H564 0.960 . S
C578 H565 0.961 . S
C578 H566 0.959 . S
C578 C576 1.561 . S
C579 C576 1.526 . S
C579 C580 1.396 . S
C579 C584 1.390 . S
C580 C574 1.465 . S
C580 C579 1.396 . S
C580 C581 1.399 . S
C581 H567 0.929 . S
C581 C580 1.399 . S
C581 C582 1.385 . S
C582 H568 0.931 . S
C582 C581 1.385 . S
C582 C583 1.389 . S
C583 C582 1.389 . S
C583 C584 1.387 . S
C584 H569 0.930 1_556 S
C584 C579 1.390 . S
C584 C583 1.387 . S
H585 C597 0.930 . S
H586 C599 0.930 . S
H587 C600 0.930 . S
H588 C604 0.959 . S
H589 C604 0.959 . S
H590 C604 0.961 . S
H591 C605 0.960 . S
H592 C605 0.961 . S
H593 C605 0.959 . S
H594 C608 0.929 . S
H595 C609 0.931 . S
H596 C611 0.930 . S
C597 H585 0.930 . S
C597 C598 1.399 . S
C597 C602 1.399 . S
C598 C597 1.399 . S
C598 C599 1.376 . S
C599 H586 0.930 . S
C599 C598 1.376 . S
C599 C600 1.388 . S
C600 H587 0.930 . S
C600 C599 1.388 . S
C600 C601 1.390 . S
C601 C600 1.390 . S
C601 C602 1.394 . S
C601 C607 1.465 . S
C602 C597 1.399 . S
C602 C601 1.394 . S
C602 C603 1.516 . S
C603 C602 1.516 . S
C603 C604 1.502 . S
C603 C605 1.561 . S
C603 C606 1.526 . S
C604 H588 0.959 . S
C604 H589 0.959 . S
C604 H590 0.961 . S
C604 C603 1.502 . S
C605 H591 0.960 . S
C605 H592 0.961 . S
C605 H593 0.959 . S
C605 C603 1.561 . S
C606 C603 1.526 . S
C606 C607 1.396 . S
C606 C611 1.390 . S
C607 C601 1.465 . S
C607 C606 1.396 . S
C607 C608 1.399 . S
C608 H594 0.929 . S
C608 C607 1.399 . S
C608 C609 1.385 . S
C609 H595 0.931 . S
C609 C608 1.385 . S
C609 C610 1.389 . S
C610 C609 1.389 . S
C610 C611 1.387 . S
C611 H596 0.930 . S
C611 C606 1.390 . S
C611 C610 1.387 . S
H612 C624 0.930 . S
H613 C626 0.930 . S
H614 C627 0.930 . S
H615 C631 0.959 . S
H616 C631 0.959 . S
H617 C631 0.961 . S
H618 C632 0.960 . S
H619 C632 0.961 . S
H620 C632 0.959 . S
H621 C635 0.929 1_556 S
H622 C636 0.931 1_556 S
H623 C638 0.930 . S
C624 H612 0.930 . S
C624 C625 1.399 . S
C624 C629 1.399 . S
C625 C624 1.399 . S
C625 C626 1.376 . S
C626 H613 0.930 . S
C626 C625 1.376 . S
C626 C627 1.388 . S
C627 H614 0.930 . S
C627 C626 1.388 . S
C627 C628 1.390 . S
C628 C627 1.390 . S
C628 C629 1.394 . S
C628 C634 1.465 . S
C629 C624 1.399 . S
C629 C628 1.394 . S
C629 C630 1.516 . S
C630 C629 1.516 . S
C630 C631 1.502 . S
C630 C632 1.561 . S
C630 C633 1.526 . S
C631 H615 0.959 . S
C631 H616 0.959 . S
C631 H617 0.961 . S
C631 C630 1.502 . S
C632 H618 0.960 . S
C632 H619 0.961 . S
C632 H620 0.959 . S
C632 C630 1.561 . S
C633 C630 1.526 . S
C633 C634 1.396 . S
C633 C638 1.390 . S
C634 C628 1.465 . S
C634 C633 1.396 . S
C634 C635 1.399 . S
C635 H621 0.929 1_554 S
C635 C634 1.399 . S
C635 C636 1.385 . S
C636 H622 0.931 1_554 S
C636 C635 1.385 . S
C636 C637 1.389 . S
C637 C636 1.389 . S
C637 C638 1.387 . S
C638 H623 0.930 . S
C638 C633 1.390 . S
C638 C637 1.387 . S
H639 C651 0.930 . S
H640 C653 0.930 . S
H641 C654 0.930 . S
H642 C658 0.959 . S
H643 C658 0.959 . S
H644 C658 0.961 . S
H645 C659 0.960 . S
H646 C659 0.961 . S
H647 C659 0.959 . S
H648 C662 0.917 1_554 S
H649 C663 0.931 1_554 S
H650 C665 0.930 . S
C651 H639 0.930 . S
C651 C652 1.399 . S
C651 C656 1.399 . S
C652 C651 1.399 . S
C652 C653 1.376 . S
C653 H640 0.930 . S
C653 C652 1.376 . S
C653 C654 1.388 . S
C654 H641 0.930 . S
C654 C653 1.388 . S
C654 C655 1.390 . S
C655 C654 1.390 . S
C655 C656 1.394 . S
C655 C661 1.465 . S
C656 C651 1.399 . S
C656 C655 1.394 . S
C656 C657 1.516 . S
C657 C656 1.516 . S
C657 C658 1.502 . S
C657 C659 1.561 . S
C657 C660 1.526 . S
C658 H642 0.959 . S
C658 H643 0.959 . S
C658 H644 0.961 . S
C658 C657 1.502 . S
C659 H645 0.960 . S
C659 H646 0.961 . S
C659 H647 0.959 . S
C659 C657 1.561 . S
C660 C657 1.526 . S
C660 C661 1.396 . S
C660 C665 1.390 . S
C661 C655 1.465 . S
C661 C660 1.396 . S
C661 C662 1.399 . S
C662 H648 0.917 1_556 S
C662 C661 1.399 . S
C662 C663 1.385 . S
C663 H649 0.931 1_556 S
C663 C662 1.385 . S
C663 C664 1.389 . S
C664 C663 1.389 . S
C664 C665 1.387 . S
C665 H650 0.930 . S
C665 C660 1.390 . S
C665 C664 1.387 . S
H666 C678 0.930 . S
H667 C680 0.930 . S
H668 C681 0.930 . S
H669 C685 0.959 . S
H670 C685 0.959 . S
H671 C685 0.961 . S
H672 C686 0.960 . S
H673 C686 0.961 . S
H674 C686 0.959 . S
H675 C689 0.929 . S
H676 C690 0.931 . S
H677 C692 0.930 . S
C678 H666 0.930 . S
C678 C679 1.399 . S
C678 C683 1.399 . S
C679 C678 1.399 . S
C679 C680 1.376 . S
C680 H667 0.930 . S
C680 C679 1.376 . S
C680 C681 1.388 . S
C681 H668 0.930 . S
C681 C680 1.388 . S
C681 C682 1.390 . S
C682 C681 1.390 . S
C682 C683 1.394 . S
C682 C688 1.465 . S
C683 C678 1.399 . S
C683 C682 1.394 . S
C683 C684 1.516 . S
C684 C683 1.516 . S
C684 C685 1.502 1_655 S
C684 C686 1.561 . S
C684 C687 1.526 . S
C685 H669 0.959 . S
C685 H670 0.959 . S
C685 H671 0.961 . S
C685 C684 1.502 1_455 S
C686 H672 0.960 . S
C686 H673 0.961 . S
C686 H674 0.959 . S
C686 C684 1.561 . S
C687 C684 1.526 . S
C687 C688 1.396 . S
C687 C692 1.390 . S
C688 C682 1.465 . S
C688 C687 1.396 . S
C688 C689 1.399 . S
C689 H675 0.929 . S
C689 C688 1.399 . S
C689 C690 1.385 . S
C690 H676 0.931 . S
C690 C689 1.385 . S
C690 C691 1.389 . S
C691 C690 1.389 . S
C691 C692 1.387 . S
C692 H677 0.930 . S
C692 C687 1.390 . S
C692 C691 1.387 . S
H693 C705 0.930 . S
H694 C707 0.930 . S
H695 C708 0.930 . S
H696 C712 0.959 . S
H697 C712 0.959 . S
H698 C712 0.961 . S
H699 C713 0.960 . S
H700 C713 0.961 . S
H701 C713 0.959 . S
H702 C716 0.929 . S
H703 C717 0.931 . S
H704 C719 0.930 . S
C705 H693 0.930 . S
C705 C706 1.399 . S
C705 C710 1.399 . S
C706 C705 1.399 . S
C706 C707 1.376 . S
C707 H694 0.930 . S
C707 C706 1.376 . S
C707 C708 1.388 . S
C708 H695 0.930 . S
C708 C707 1.388 . S
C708 C709 1.390 . S
C709 C708 1.390 . S
C709 C710 1.394 . S
C709 C715 1.465 . S
C710 C705 1.399 . S
C710 C709 1.394 . S
C710 C711 1.516 . S
C711 C710 1.516 . S
C711 C712 1.502 . S
C711 C713 1.561 . S
C711 C714 1.526 . S
C712 H696 0.959 . S
C712 H697 0.959 . S
C712 H698 0.961 . S
C712 C711 1.502 . S
C713 H699 0.960 . S
C713 H700 0.961 . S
C713 H701 0.959 . S
C713 C711 1.561 . S
C714 C711 1.526 . S
C714 C715 1.396 . S
C714 C719 1.390 . S
C715 C709 1.465 . S
C715 C714 1.396 . S
C715 C716 1.399 . S
C716 H702 0.929 . S
C716 C715 1.399 . S
C716 C717 1.385 . S
C717 H703 0.931 . S
C717 C716 1.385 . S
C717 C718 1.389 . S
C718 C717 1.389 . S
C718 C719 1.387 . S
C719 H704 0.930 . S
C719 C714 1.390 . S
C719 C718 1.387 . S
H720 C732 0.930 . S
H721 C734 0.930 . S
H722 C735 0.930 . S
H723 C739 0.959 . S
H724 C739 0.959 . S
H725 C739 0.961 . S
H726 C740 0.960 . S
H727 C740 0.961 . S
H728 C740 0.959 1_465 S
H729 C743 0.929 . S
H730 C744 0.931 . S
H731 C746 0.930 1_545 S
C732 H720 0.930 . S
C732 C733 1.399 . S
C732 C737 1.399 . S
C733 C732 1.399 . S
C733 C734 1.376 . S
C734 H721 0.930 . S
C734 C733 1.376 . S
C734 C735 1.388 . S
C735 H722 0.930 . S
C735 C734 1.388 . S
C735 C736 1.390 . S
C736 C735 1.390 . S
C736 C737 1.394 . S
C736 C742 1.465 . S
C737 C732 1.399 . S
C737 C736 1.394 . S
C737 C738 1.516 . S
C738 C737 1.516 . S
C738 C739 1.502 1_565 S
C738 C740 1.561 1_565 S
C738 C741 1.526 . S
C739 H723 0.959 . S
C739 H724 0.959 . S
C739 H725 0.961 . S
C739 C738 1.502 1_545 S
C740 H726 0.960 . S
C740 H727 0.961 . S
C740 H728 0.959 1_645 S
C740 C738 1.561 1_545 S
C741 C738 1.526 . S
C741 C742 1.396 . S
C741 C746 1.390 . S
C742 C736 1.465 . S
C742 C741 1.396 . S
C742 C743 1.399 . S
C743 H729 0.929 . S
C743 C742 1.399 . S
C743 C744 1.385 . S
C744 H730 0.931 . S
C744 C743 1.385 . S
C744 C745 1.389 . S
C745 C744 1.389 . S
C745 C746 1.387 . S
C746 H731 0.930 1_565 S
C746 C741 1.390 . S
C746 C745 1.387 . S
H747 C759 0.930 . S
H748 C761 0.930 . S
H749 C762 0.930 . S
H750 C766 0.959 . S
H751 C766 0.960 1_565 S
H752 C766 0.961 1_565 S
H753 C767 0.960 . S
H754 C767 0.961 1_565 S
H755 C767 0.959 . S
H756 C770 0.929 . S
H757 C771 0.931 . S
H758 C773 0.930 . S
C759 H747 0.930 . S
C759 C760 1.399 . S
C759 C764 1.399 . S
C760 C759 1.399 . S
C760 C761 1.376 . S
C761 H748 0.930 . S
C761 C760 1.376 . S
C761 C762 1.388 . S
C762 H749 0.930 . S
C762 C761 1.388 . S
C762 C763 1.390 . S
C763 C762 1.390 . S
C763 C764 1.394 . S
C763 C769 1.465 . S
C764 C759 1.399 . S
C764 C763 1.394 . S
C764 C765 1.516 . S
C765 C764 1.516 . S
C765 C766 1.501 . S
C765 C767 1.561 . S
C765 C768 1.526 . S
C766 H750 0.959 . S
C766 H751 0.960 1_545 S
C766 H752 0.961 1_545 S
C766 C765 1.501 . S
C767 H753 0.960 . S
C767 H754 0.961 1_545 S
C767 H755 0.959 . S
C767 C765 1.561 . S
C768 C765 1.526 . S
C768 C769 1.396 . S
C768 C773 1.390 . S
C769 C763 1.465 . S
C769 C768 1.396 . S
C769 C770 1.399 . S
C770 H756 0.929 . S
C770 C769 1.399 . S
C770 C771 1.385 . S
C771 H757 0.931 . S
C771 C770 1.385 . S
C771 C772 1.389 . S
C772 C771 1.389 . S
C772 C773 1.387 . S
C773 H758 0.930 . S
C773 C768 1.390 . S
C773 C772 1.387 . S
H774 C786 0.930 . S
H775 C788 0.930 . S
H776 C789 0.930 . S
H777 C793 0.959 . S
H778 C793 0.959 . S
H779 C793 0.961 . S
H780 C794 0.960 . S
H781 C794 0.961 . S
H782 C794 0.959 . S
H783 C797 0.929 . S
H784 C798 0.931 . S
H785 C800 0.930 . S
C786 H774 0.930 . S
C786 C787 1.399 . S
C786 C791 1.399 . S
C787 C786 1.399 . S
C787 C788 1.376 . S
C788 H775 0.930 . S
C788 C787 1.376 . S
C788 C789 1.388 . S
C789 H776 0.930 . S
C789 C788 1.388 . S
C789 C790 1.390 . S
C790 C789 1.390 . S
C790 C791 1.394 . S
C790 C796 1.465 . S
C791 C786 1.399 . S
C791 C790 1.394 . S
C791 C792 1.516 . S
C792 C791 1.516 . S
C792 C793 1.502 . S
C792 C794 1.561 . S
C792 C795 1.526 . S
C793 H777 0.959 . S
C793 H778 0.959 . S
C793 H779 0.961 . S
C793 C792 1.502 . S
C794 H780 0.960 . S
C794 H781 0.961 . S
C794 H782 0.959 . S
C794 C792 1.561 . S
C795 C792 1.526 . S
C795 C796 1.396 . S
C795 C800 1.390 . S
C796 C790 1.465 . S
C796 C795 1.396 . S
C796 C797 1.399 . S
C797 H783 0.929 . S
C797 C796 1.399 . S
C797 C798 1.385 . S
C798 H784 0.931 . S
C798 C797 1.385 . S
C798 C799 1.389 . S
C799 C798 1.389 . S
C799 C800 1.387 . S
C800 H785 0.930 . S
C800 C795 1.390 . S
C800 C799 1.387 . S
H801 C813 0.930 . S
H802 C815 0.930 . S
H803 C816 0.930 . S
H804 C820 0.959 1_655 S
H805 C820 0.959 1_655 S
H806 C820 0.961 . S
H807 C821 0.960 . S
H808 C821 0.961 . S
H809 C821 0.959 . S
H810 C824 0.929 . S
H811 C825 0.931 . S
H812 C827 0.930 . S
C813 H801 0.930 . S
C813 C814 1.399 . S
C813 C818 1.399 . S
C814 C813 1.399 . S
C814 C815 1.376 . S
C815 H802 0.930 . S
C815 C814 1.376 . S
C815 C816 1.388 . S
C816 H803 0.930 . S
C816 C815 1.388 . S
C816 C817 1.390 . S
C817 C816 1.390 . S
C817 C818 1.394 . S
C817 C823 1.465 . S
C818 C813 1.399 . S
C818 C817 1.394 . S
C818 C819 1.516 . S
C819 C818 1.516 . S
C819 C820 1.502 . S
C819 C821 1.561 . S
C819 C822 1.526 . S
C820 H804 0.959 1_455 S
C820 H805 0.959 1_455 S
C820 H806 0.961 . S
C820 C819 1.502 . S
C821 H807 0.960 . S
C821 H808 0.961 . S
C821 H809 0.959 . S
C821 C819 1.561 . S
C822 C819 1.526 . S
C822 C823 1.396 . S
C822 C827 1.390 . S
C823 C817 1.465 . S
C823 C822 1.396 . S
C823 C824 1.399 . S
C824 H810 0.929 . S
C824 C823 1.399 . S
C824 C825 1.385 . S
C825 H811 0.931 . S
C825 C824 1.385 . S
C825 C826 1.389 . S
C826 C825 1.389 . S
C826 C827 1.387 . S
C827 H812 0.930 . S
C827 C822 1.390 . S
C827 C826 1.387 . S
H828 C840 0.930 . S
H829 C842 0.930 . S
H830 C843 0.930 . S
H831 C847 0.959 . S
H832 C847 0.959 1_545 S
H833 C847 0.961 . S
H834 C848 0.960 . S
H835 C848 0.961 . S
H836 C848 0.959 . S
H837 C851 0.929 . S
H838 C852 0.931 . S
H839 C854 0.930 1_545 S
C840 H828 0.930 . S
C840 C841 1.399 . S
C840 C845 1.399 . S
C841 C840 1.399 . S
C841 C842 1.376 . S
C842 H829 0.930 . S
C842 C841 1.376 . S
C842 C843 1.388 . S
C843 H830 0.930 . S
C843 C842 1.388 . S
C843 C844 1.390 . S
C844 C843 1.390 . S
C844 C845 1.394 . S
C844 C850 1.465 . S
C845 C840 1.399 . S
C845 C844 1.394 . S
C845 C846 1.516 . S
C846 C845 1.516 . S
C846 C847 1.502 1_556 S
C846 C848 1.561 1_565 S
C846 C849 1.526 . S
C847 H831 0.959 . S
C847 H832 0.959 1_565 S
C847 H833 0.961 . S
C847 C846 1.502 1_554 S
C848 H834 0.960 . S
C848 H835 0.961 . S
C848 H836 0.959 . S
C848 C846 1.561 1_545 S
C849 C846 1.526 . S
C849 C850 1.396 . S
C849 C854 1.390 . S
C850 C844 1.465 . S
C850 C849 1.396 . S
C850 C851 1.399 . S
C851 H837 0.929 . S
C851 C850 1.399 . S
C851 C852 1.385 . S
C852 H838 0.931 . S
C852 C851 1.385 . S
C852 C853 1.389 . S
C853 C852 1.389 . S
C853 C854 1.387 . S
C854 H839 0.930 1_565 S
C854 C849 1.390 . S
C854 C853 1.387 . S
H855 C867 0.930 . S
H856 C869 0.930 . S
H857 C870 0.930 . S
H858 C874 0.959 . S
H859 C874 0.959 . S
H860 C874 0.961 . S
H861 C875 0.960 . S
H862 C875 0.961 . S
H863 C875 0.959 . S
H864 C878 0.929 . S
H865 C879 0.931 . S
H866 C881 0.930 . S
C867 H855 0.930 . S
C867 C868 1.399 . S
C867 C872 1.399 . S
C868 C867 1.399 . S
C868 C869 1.376 . S
C869 H856 0.930 . S
C869 C868 1.376 . S
C869 C870 1.388 . S
C870 H857 0.930 . S
C870 C869 1.388 . S
C870 C871 1.390 . S
C871 C870 1.390 . S
C871 C872 1.394 . S
C871 C877 1.465 . S
C872 C867 1.399 . S
C872 C871 1.394 . S
C872 C873 1.516 . S
C873 C872 1.516 . S
C873 C874 1.502 . S
C873 C875 1.561 . S
C873 C876 1.526 . S
C874 H858 0.959 . S
C874 H859 0.959 . S
C874 H860 0.961 . S
C874 C873 1.502 . S
C875 H861 0.960 . S
C875 H862 0.961 . S
C875 H863 0.959 . S
C875 C873 1.561 . S
C876 C873 1.526 . S
C876 C877 1.396 . S
C876 C881 1.390 . S
C877 C871 1.465 . S
C877 C876 1.396 . S
C877 C878 1.399 . S
C878 H864 0.929 . S
C878 C877 1.399 . S
C878 C879 1.385 . S
C879 H865 0.931 . S
C879 C878 1.385 . S
C879 C880 1.389 . S
C880 C879 1.389 . S
C880 C881 1.387 . S
C881 H866 0.930 . S
C881 C876 1.390 . S
C881 C880 1.387 . S
H882 C894 0.930 . S
H883 C896 0.930 . S
H884 C897 0.930 . S
H885 C901 0.959 . S
H886 C901 0.959 . S
H887 C901 0.961 . S
H888 C902 0.960 . S
H889 C902 0.961 . S
H890 C902 0.959 . S
H891 C905 0.929 . S
H892 C906 0.931 1_556 S
H893 C908 0.930 . S
C894 H882 0.930 . S
C894 C895 1.399 . S
C894 C899 1.399 . S
C895 C894 1.399 . S
C895 C896 1.376 . S
C896 H883 0.930 . S
C896 C895 1.376 . S
C896 C897 1.388 . S
C897 H884 0.930 . S
C897 C896 1.388 . S
C897 C898 1.390 . S
C898 C897 1.390 . S
C898 C899 1.394 . S
C898 C904 1.465 . S
C899 C894 1.399 . S
C899 C898 1.394 . S
C899 C900 1.516 . S
C900 C899 1.516 . S
C900 C901 1.502 . S
C900 C902 1.561 . S
C900 C903 1.526 . S
C901 H885 0.959 . S
C901 H886 0.959 . S
C901 H887 0.961 . S
C901 C900 1.502 . S
C902 H888 0.960 . S
C902 H889 0.961 . S
C902 H890 0.959 . S
C902 C900 1.561 . S
C903 C900 1.526 . S
C903 C904 1.396 . S
C903 C908 1.390 . S
C904 C898 1.465 . S
C904 C903 1.396 . S
C904 C905 1.399 . S
C905 H891 0.929 . S
C905 C904 1.399 . S
C905 C906 1.385 . S
C906 H892 0.931 1_554 S
C906 C905 1.385 . S
C906 C907 1.389 . S
C907 C906 1.389 . S
C907 C908 1.387 . S
C908 H893 0.930 . S
C908 C903 1.390 . S
C908 C907 1.387 . S
H909 C921 0.930 . S
H910 C923 0.930 . S
H911 C924 0.930 . S
H912 C928 0.959 . S
H913 C928 0.959 . S
H914 C928 0.961 . S
H915 C929 0.960 . S
H916 C929 0.961 . S
H917 C929 0.959 . S
H918 C932 0.929 . S
H919 C933 0.931 . S
H920 C935 0.930 . S
C921 H909 0.930 . S
C921 C922 1.399 . S
C921 C926 1.399 . S
C922 C921 1.399 . S
C922 C923 1.376 . S
C923 H910 0.930 . S
C923 C922 1.376 . S
C923 C924 1.388 . S
C924 H911 0.930 . S
C924 C923 1.388 . S
C924 C925 1.390 . S
C925 C924 1.390 . S
C925 C926 1.394 . S
C925 C931 1.465 . S
C926 C921 1.399 . S
C926 C925 1.394 . S
C926 C927 1.516 . S
C927 C926 1.516 . S
C927 C928 1.502 . S
C927 C929 1.561 . S
C927 C930 1.526 . S
C928 H912 0.959 . S
C928 H913 0.959 . S
C928 H914 0.961 . S
C928 C927 1.502 . S
C929 H915 0.960 . S
C929 H916 0.961 . S
C929 H917 0.959 . S
C929 C927 1.561 . S
C930 C927 1.526 . S
C930 C931 1.396 . S
C930 C935 1.390 . S
C931 C925 1.465 . S
C931 C930 1.396 . S
C931 C932 1.399 . S
C932 H918 0.929 . S
C932 C931 1.399 . S
C932 C933 1.385 . S
C933 H919 0.931 . S
C933 C932 1.385 . S
C933 C934 1.389 . S
C934 C933 1.389 . S
C934 C935 1.387 . S
C935 H920 0.930 . S
C935 C930 1.390 . S
C935 C934 1.387 . S
H936 C948 0.930 . S
H937 C950 0.930 . S
H938 C951 0.930 1_554 S
H939 C955 0.959 . S
H940 C955 0.959 . S
H941 C955 0.961 . S
H942 C956 0.960 . S
H943 C956 0.961 . S
H944 C956 0.959 . S
H945 C959 0.929 . S
H946 C960 0.931 . S
H947 C962 0.930 . S
C948 H936 0.930 . S
C948 C949 1.399 . S
C948 C953 1.399 . S
C949 C948 1.399 . S
C949 C950 1.376 . S
C950 H937 0.930 . S
C950 C949 1.376 . S
C950 C951 1.388 . S
C951 H938 0.930 1_556 S
C951 C950 1.388 . S
C951 C952 1.390 . S
C952 C951 1.390 . S
C952 C953 1.394 . S
C952 C958 1.465 . S
C953 C948 1.399 . S
C953 C952 1.394 . S
C953 C954 1.516 . S
C954 C953 1.516 . S
C954 C955 1.502 . S
C954 C956 1.561 . S
C954 C957 1.526 . S
C955 H939 0.959 . S
C955 H940 0.959 . S
C955 H941 0.961 . S
C955 C954 1.502 . S
C956 H942 0.960 . S
C956 H943 0.961 . S
C956 H944 0.959 . S
C956 C954 1.561 . S
C957 C954 1.526 . S
C957 C958 1.396 . S
C957 C962 1.390 . S
C958 C952 1.465 . S
C958 C957 1.396 . S
C958 C959 1.399 1_556 S
C959 H945 0.929 . S
C959 C958 1.399 1_554 S
C959 C960 1.385 . S
C960 H946 0.931 . S
C960 C959 1.385 . S
C960 C961 1.389 1_554 S
C961 C960 1.389 1_556 S
C961 C962 1.387 . S
C962 H947 0.930 . S
C962 C957 1.390 . S
C962 C961 1.387 . S
H963 C975 0.930 . S
H964 C977 0.930 . S
H965 C978 0.930 . S
H966 C982 0.959 . S
H967 C982 0.959 . S
H968 C982 0.961 . S
H969 C983 0.960 . S
H970 C983 0.961 . S
H971 C983 0.959 . S
H972 C986 0.929 . S
H973 C987 0.931 . S
H974 C989 0.930 . S
C975 H963 0.930 . S
C975 C976 1.399 . S
C975 C980 1.399 . S
C976 C975 1.399 . S
C976 C977 1.376 . S
C977 H964 0.930 . S
C977 C976 1.376 . S
C977 C978 1.388 . S
C978 H965 0.930 . S
C978 C977 1.388 . S
C978 C979 1.390 . S
C979 C978 1.390 . S
C979 C980 1.394 . S
C979 C985 1.465 . S
C980 C975 1.399 . S
C980 C979 1.394 . S
C980 C981 1.516 . S
C981 C980 1.516 . S
C981 C982 1.502 . S
C981 C983 1.561 . S
C981 C984 1.526 . S
C982 H966 0.959 . S
C982 H967 0.959 . S
C982 H968 0.961 . S
C982 C981 1.502 . S
C983 H969 0.960 . S
C983 H970 0.961 . S
C983 H971 0.959 . S
C983 C981 1.561 . S
C984 C981 1.526 . S
C984 C985 1.396 . S
C984 C989 1.390 . S
C985 C979 1.465 . S
C985 C984 1.396 . S
C985 C986 1.399 . S
C986 H972 0.929 . S
C986 C985 1.399 . S
C986 C987 1.385 . S
C987 H973 0.931 . S
C987 C986 1.385 . S
C987 C988 1.389 . S
C988 C987 1.389 . S
C988 C989 1.387 . S
C989 H974 0.930 . S
C989 C984 1.390 . S
C989 C988 1.387 . S
H990 C1002 0.930 . S
H991 C1004 0.930 . S
H992 C1005 0.930 . S
H993 C1009 0.959 . S
H994 C1009 0.959 . S
H995 C1009 0.961 . S
H996 C1010 0.959 . S
H997 C1010 0.961 . S
H998 C1010 0.959 . S
H999 C1013 0.929 . S
H1000 C1014 0.931 . S
H1001 C1016 0.930 . S
C1002 H990 0.930 . S
C1002 C1003 1.399 . S
C1002 C1007 1.399 . S
C1003 C1002 1.399 . S
C1003 C1004 1.376 . S
C1004 H991 0.930 . S
C1004 C1003 1.376 . S
C1004 C1005 1.388 . S
C1005 H992 0.930 . S
C1005 C1004 1.388 . S
C1005 C1006 1.390 . S
C1006 C1005 1.390 . S
C1006 C1007 1.394 . S
C1006 C1012 1.465 . S
C1007 C1002 1.399 . S
C1007 C1006 1.394 . S
C1007 C1008 1.516 . S
C1008 C1007 1.516 . S
C1008 C1009 1.502 . S
C1008 C1010 1.561 1_455 S
C1008 C1011 1.526 . S
C1009 H993 0.959 . S
C1009 H994 0.959 . S
C1009 H995 0.961 . S
C1009 C1008 1.502 . S
C1010 H996 0.959 . S
C1010 H997 0.961 . S
C1010 H998 0.959 . S
C1010 C1008 1.561 1_655 S
C1011 C1008 1.526 . S
C1011 C1012 1.396 . S
C1011 C1016 1.390 . S
C1012 C1006 1.465 . S
C1012 C1011 1.396 . S
C1012 C1013 1.399 . S
C1013 H999 0.929 . S
C1013 C1012 1.399 . S
C1013 C1014 1.385 . S
C1014 H1000 0.931 . S
C1014 C1013 1.385 . S
C1014 C1015 1.389 . S
C1015 C1014 1.389 . S
C1015 C1016 1.387 . S
C1016 H1001 0.930 . S
C1016 C1011 1.390 . S
C1016 C1015 1.387 . S
H1017 C1029 0.930 . S
H1018 C1031 0.930 . S
H1019 C1032 0.930 . S
H1020 C1036 0.959 . S
H1021 C1036 0.959 . S
H1022 C1036 0.961 . S
H1023 C1037 0.960 . S
H1024 C1037 0.961 . S
H1025 C1037 0.959 . S
H1026 C1040 0.929 . S
H1027 C1041 0.931 . S
H1028 C1043 0.930 . S
C1029 H1017 0.930 . S
C1029 C1030 1.399 . S
C1029 C1034 1.399 . S
C1030 C1029 1.399 . S
C1030 C1031 1.376 . S
C1031 H1018 0.930 . S
C1031 C1030 1.376 . S
C1031 C1032 1.388 . S
C1032 H1019 0.930 . S
C1032 C1031 1.388 . S
C1032 C1033 1.390 . S
C1033 C1032 1.390 . S
C1033 C1034 1.394 . S
C1033 C1039 1.465 . S
C1034 C1029 1.399 . S
C1034 C1033 1.394 . S
C1034 C1035 1.516 . S
C1035 C1034 1.516 . S
C1035 C1036 1.502 . S
C1035 C1037 1.561 . S
C1035 C1038 1.526 . S
C1036 H1020 0.959 . S
C1036 H1021 0.959 . S
C1036 H1022 0.961 . S
C1036 C1035 1.502 . S
C1037 H1023 0.960 . S
C1037 H1024 0.961 . S
C1037 H1025 0.959 . S
C1037 C1035 1.561 . S
C1038 C1035 1.526 . S
C1038 C1039 1.396 . S
C1038 C1043 1.390 . S
C1039 C1033 1.465 . S
C1039 C1038 1.396 . S
C1039 C1040 1.399 . S
C1040 H1026 0.929 . S
C1040 C1039 1.399 . S
C1040 C1041 1.385 . S
C1041 H1027 0.931 . S
C1041 C1040 1.385 . S
C1041 C1042 1.389 . S
C1042 C1041 1.389 . S
C1042 C1043 1.387 . S
C1043 H1028 0.930 . S
C1043 C1038 1.390 . S
C1043 C1042 1.387 . S
C409 C1 1.606 . S
C421 C328 1.600 . S
C436 C40 1.507 . S
C448 C350 1.478 . S
C475 C369 1.287 . S
C463 C99 1.443 . S
C490 C118 1.800 . S
C502 C390 1.537 . S
C529 C347 1.748 . S
C517 C16 1.830 . S
C556 C325 1.636 . S
C544 C60 1.700 . S
C583 C392 1.266 . S
C571 C79 1.370 . S
C610 C371 1.407 . S
C598 C138 1.468 . S
C625 C21 1.747 . S
C637 C389 1.726 . S
C664 C348 1.287 . S
C652 C94 1.616 . S
C679 C133 1.659 . S
C691 C330 1.535 . S
C706 C55 1.512 . S
C718 C368 1.479 . S
C745 C326 1.608 . S
C733 C157 1.632 . S
C760 C196 1.313 . S
C772 C346 1.246 . S
C787 C255 1.502 . S
C799 C372 1.281 . S
C814 C289 1.735 . S
C826 C393 1.406 . S
C841 C172 1.741 . S
C853 C349 1.705 . S
C880 C329 1.725 . S
C868 C216 1.782 . S
C907 C388 1.253 . S
C895 C235 1.254 . S
C934 C367 1.498 . S
C922 C294 1.574 . S
C949 C177 1.574 . S
C961 C391 1.558 . S
C988 C351 1.280 . S
C976 C250 1.522 . S
C1015 C327 1.403 . S
C1003 C274 1.507 . S
C1030 C211 1.465 . S
C1042 C370 1.459 . S
