# Generated by pormake.
# Topology eea, (3,6)-cn, num edge types: 1
# Building blocks:
#     Node 0, Type 0, BuildingBlock: BELTOD_clean_linker_0, # of connection points: 3
#     Node 1, Type 0, BuildingBlock: BELTOD_clean_linker_0, # of connection points: 3
#     Node 2, Type 0, BuildingBlock: BELTOD_clean_linker_0, # of connection points: 3
#     Node 3, Type 0, BuildingBlock: BELTOD_clean_linker_0, # of connection points: 3
#     Node 4, Type 0, BuildingBlock: BELTOD_clean_linker_0, # of connection points: 3
#     Node 5, Type 0, BuildingBlock: BELTOD_clean_linker_0, # of connection points: 3
#     Node 6, Type 0, BuildingBlock: BELTOD_clean_linker_0, # of connection points: 3
#     Node 7, Type 0, BuildingBlock: BELTOD_clean_linker_0, # of connection points: 3
#     Node 8, Type 0, BuildingBlock: BELTOD_clean_linker_0, # of connection points: 3
#     Node 9, Type 0, BuildingBlock: BELTOD_clean_linker_0, # of connection points: 3
#     Node 10, Type 0, BuildingBlock: BELTOD_clean_linker_0, # of connection points: 3
#     Node 11, Type 0, BuildingBlock: BELTOD_clean_linker_0, # of connection points: 3
#     Node 12, Type 0, BuildingBlock: BELTOD_clean_linker_0, # of connection points: 3
#     Node 13, Type 0, BuildingBlock: BELTOD_clean_linker_0, # of connection points: 3
#     Node 14, Type 0, BuildingBlock: BELTOD_clean_linker_0, # of connection points: 3
#     Node 15, Type 0, BuildingBlock: BELTOD_clean_linker_0, # of connection points: 3
#     Node 16, Type 0, BuildingBlock: BELTOD_clean_linker_0, # of connection points: 3
#     Node 17, Type 0, BuildingBlock: BELTOD_clean_linker_0, # of connection points: 3
#     Node 18, Type 1, BuildingBlock: NUHQIS_clean_sbu_0, # of connection points: 6
#     Node 19, Type 1, BuildingBlock: NUHQIS_clean_sbu_0, # of connection points: 6
#     Node 20, Type 1, BuildingBlock: NUHQIS_clean_sbu_0, # of connection points: 6
#     Node 21, Type 1, BuildingBlock: NUHQIS_clean_sbu_0, # of connection points: 6
#     Node 22, Type 1, BuildingBlock: NUHQIS_clean_sbu_0, # of connection points: 6
#     Node 23, Type 1, BuildingBlock: NUHQIS_clean_sbu_0, # of connection points: 6
#     Node 24, Type 1, BuildingBlock: NUHQIS_clean_sbu_0, # of connection points: 6
#     Node 25, Type 1, BuildingBlock: NUHQIS_clean_sbu_0, # of connection points: 6
#     Node 26, Type 1, BuildingBlock: NUHQIS_clean_sbu_0, # of connection points: 6
#     Edge 27, Type (0, 1), BuildingBlock: OJICUG_clean_linker_0, # of connection points: 2
#     Edge 28, Type (0, 1), BuildingBlock: OJICUG_clean_linker_0, # of connection points: 2
#     Edge 29, Type (0, 1), BuildingBlock: OJICUG_clean_linker_0, # of connection points: 2
#     Edge 30, Type (0, 1), BuildingBlock: OJICUG_clean_linker_0, # of connection points: 2
#     Edge 31, Type (0, 1), BuildingBlock: OJICUG_clean_linker_0, # of connection points: 2
#     Edge 32, Type (0, 1), BuildingBlock: OJICUG_clean_linker_0, # of connection points: 2
#     Edge 33, Type (0, 1), BuildingBlock: OJICUG_clean_linker_0, # of connection points: 2
#     Edge 34, Type (0, 1), BuildingBlock: OJICUG_clean_linker_0, # of connection points: 2
#     Edge 35, Type (0, 1), BuildingBlock: OJICUG_clean_linker_0, # of connection points: 2
#     Edge 36, Type (0, 1), BuildingBlock: OJICUG_clean_linker_0, # of connection points: 2
#     Edge 37, Type (0, 1), BuildingBlock: OJICUG_clean_linker_0, # of connection points: 2
#     Edge 38, Type (0, 1), BuildingBlock: OJICUG_clean_linker_0, # of connection points: 2
#     Edge 39, Type (0, 1), BuildingBlock: OJICUG_clean_linker_0, # of connection points: 2
#     Edge 40, Type (0, 1), BuildingBlock: OJICUG_clean_linker_0, # of connection points: 2
#     Edge 41, Type (0, 1), BuildingBlock: OJICUG_clean_linker_0, # of connection points: 2
#     Edge 42, Type (0, 1), BuildingBlock: OJICUG_clean_linker_0, # of connection points: 2
#     Edge 43, Type (0, 1), BuildingBlock: OJICUG_clean_linker_0, # of connection points: 2
#     Edge 44, Type (0, 1), BuildingBlock: OJICUG_clean_linker_0, # of connection points: 2
#     Edge 45, Type (0, 1), BuildingBlock: OJICUG_clean_linker_0, # of connection points: 2
#     Edge 46, Type (0, 1), BuildingBlock: OJICUG_clean_linker_0, # of connection points: 2
#     Edge 47, Type (0, 1), BuildingBlock: OJICUG_clean_linker_0, # of connection points: 2
#     Edge 48, Type (0, 1), BuildingBlock: OJICUG_clean_linker_0, # of connection points: 2
#     Edge 49, Type (0, 1), BuildingBlock: OJICUG_clean_linker_0, # of connection points: 2
#     Edge 50, Type (0, 1), BuildingBlock: OJICUG_clean_linker_0, # of connection points: 2
#     Edge 51, Type (0, 1), BuildingBlock: OJICUG_clean_linker_0, # of connection points: 2
#     Edge 52, Type (0, 1), BuildingBlock: OJICUG_clean_linker_0, # of connection points: 2
#     Edge 53, Type (0, 1), BuildingBlock: OJICUG_clean_linker_0, # of connection points: 2
#     Edge 54, Type (0, 1), BuildingBlock: OJICUG_clean_linker_0, # of connection points: 2
#     Edge 55, Type (0, 1), BuildingBlock: OJICUG_clean_linker_0, # of connection points: 2
#     Edge 56, Type (0, 1), BuildingBlock: OJICUG_clean_linker_0, # of connection points: 2
#     Edge 57, Type (0, 1), BuildingBlock: OJICUG_clean_linker_0, # of connection points: 2
#     Edge 58, Type (0, 1), BuildingBlock: OJICUG_clean_linker_0, # of connection points: 2
#     Edge 59, Type (0, 1), BuildingBlock: OJICUG_clean_linker_0, # of connection points: 2
#     Edge 60, Type (0, 1), BuildingBlock: OJICUG_clean_linker_0, # of connection points: 2
#     Edge 61, Type (0, 1), BuildingBlock: OJICUG_clean_linker_0, # of connection points: 2
#     Edge 62, Type (0, 1), BuildingBlock: OJICUG_clean_linker_0, # of connection points: 2
#     Edge 63, Type (0, 1), BuildingBlock: OJICUG_clean_linker_0, # of connection points: 2
#     Edge 64, Type (0, 1), BuildingBlock: OJICUG_clean_linker_0, # of connection points: 2
#     Edge 65, Type (0, 1), BuildingBlock: OJICUG_clean_linker_0, # of connection points: 2
#     Edge 66, Type (0, 1), BuildingBlock: OJICUG_clean_linker_0, # of connection points: 2
#     Edge 67, Type (0, 1), BuildingBlock: OJICUG_clean_linker_0, # of connection points: 2
#     Edge 68, Type (0, 1), BuildingBlock: OJICUG_clean_linker_0, # of connection points: 2
#     Edge 69, Type (0, 1), BuildingBlock: OJICUG_clean_linker_0, # of connection points: 2
#     Edge 70, Type (0, 1), BuildingBlock: OJICUG_clean_linker_0, # of connection points: 2
#     Edge 71, Type (0, 1), BuildingBlock: OJICUG_clean_linker_0, # of connection points: 2
#     Edge 72, Type (0, 1), BuildingBlock: OJICUG_clean_linker_0, # of connection points: 2
#     Edge 73, Type (0, 1), BuildingBlock: OJICUG_clean_linker_0, # of connection points: 2
#     Edge 74, Type (0, 1), BuildingBlock: OJICUG_clean_linker_0, # of connection points: 2
#     Edge 75, Type (0, 1), BuildingBlock: OJICUG_clean_linker_0, # of connection points: 2
#     Edge 76, Type (0, 1), BuildingBlock: OJICUG_clean_linker_0, # of connection points: 2
#     Edge 77, Type (0, 1), BuildingBlock: OJICUG_clean_linker_0, # of connection points: 2
#     Edge 78, Type (0, 1), BuildingBlock: OJICUG_clean_linker_0, # of connection points: 2
#     Edge 79, Type (0, 1), BuildingBlock: OJICUG_clean_linker_0, # of connection points: 2
#     Edge 80, Type (0, 1), BuildingBlock: OJICUG_clean_linker_0, # of connection points: 2
# Relax obj value: 0.032
# Max RMSD: 0.127
# Mean RMSD: 0.096
data_MOF--net-eea--node1-NUHQIS_clean_sbu_0--node2-BELTOD_clean_linker_0--edge1-OJICUG_clean_linker_0
_symmetry_space_group_name_H-M    P1
_symmetry_Int_Tables_number       1
_symmetry_cell_setting            triclinic
loop_
_symmetry_equiv_pos_as_xyz
'x, y, z'
_cell_length_a     44.059513
_cell_length_b     44.323394
_cell_length_c     67.878315
_cell_angle_alpha  93.696087
_cell_angle_beta   93.086336
_cell_angle_gamma 119.89493
loop_
_atom_site_label
_atom_site_type_symbol
_atom_site_fract_x
_atom_site_fract_y
_atom_site_fract_z
_atom_type_partial_charge
P0 P 0.31964 0.15911 0.40883 0.0
H1 H 0.32231 0.11945 0.37361 0.0
H2 H 0.28732 0.05772 0.36068 0.0
H3 H 0.22401 0.03782 0.40999 0.0
H4 H 0.25971 0.09936 0.42305 0.0
H5 H 0.34596 0.22515 0.39127 0.0
H6 H 0.31669 0.25485 0.37762 0.0
H7 H 0.21675 0.17181 0.39207 0.0
H8 H 0.24618 0.14219 0.40562 0.0
H9 H 0.33952 0.12377 0.43683 0.0
H10 H 0.31045 0.20348 0.43945 0.0
O11 O 0.35976 0.17594 0.4012 0.0
H12 H 0.34595 0.12808 0.47305 0.0
H13 H 0.31651 0.2077 0.47571 0.0
C14 C 0.29406 0.11369 0.39948 0.0
C15 C 0.30106 0.1017 0.38168 0.0
C16 C 0.28079 0.0665 0.37421 0.0
C17 C 0.25293 0.04283 0.38435 0.0
C18 C 0.24564 0.05523 0.40202 0.0
C19 C 0.26599 0.0904 0.40948 0.0
C20 C 0.29815 0.18123 0.39916 0.0
C21 C 0.31775 0.21328 0.39145 0.0
C22 C 0.30101 0.23029 0.38373 0.0
C23 C 0.26438 0.21551 0.38367 0.0
C24 C 0.2449 0.1835 0.39161 0.0
C25 C 0.26172 0.16662 0.39941 0.0
C26 C 0.32407 0.16294 0.43549 0.0
C27 C 0.3343 0.14204 0.44523 0.0
C28 C 0.33776 0.14438 0.46591 0.0
C29 C 0.33144 0.16802 0.47722 0.0
C30 C 0.32166 0.18933 0.46738 0.0
C31 C 0.31803 0.18682 0.44665 0.0
P32 P 0.91902 0.10786 0.43996 0.0
H33 H 0.90722 0.07192 0.40034 0.0
H34 H 0.85563 0.02204 0.38184 0.0
H35 H 0.79371 0.01706 0.4301 0.0
H36 H 0.84553 0.06652 0.44865 0.0
H37 H 0.9951 0.14972 0.44361 0.0
H38 H 0.03697 0.19048 0.42284 0.0
H39 H 0.95105 0.17693 0.3823 0.0
H40 H 0.90894 0.13599 0.4034 0.0
H41 H 0.94083 0.12391 0.48249 0.0
H42 H 0.87438 0.13965 0.44047 0.0
O43 O 0.93894 0.08815 0.45013 0.0
H44 H 0.92229 0.14752 0.50964 0.0
H45 H 0.8557 0.16377 0.46777 0.0
C46 C 0.87995 0.07386 0.42554 0.0
C47 C 0.88235 0.06065 0.40674 0.0
C48 C 0.85283 0.03209 0.39619 0.0
C49 C 0.82049 0.01581 0.40444 0.0
C50 C 0.81825 0.02901 0.42336 0.0
C51 C 0.84781 0.05761 0.43388 0.0
C52 C 0.949 0.13931 0.42483 0.0
C53 C 0.9852 0.15548 0.43027 0.0
C54 C 0.00909 0.17887 0.41841 0.0
C55 C 0.99726 0.18674 0.40087 0.0
C56 C 0.96087 0.17095 0.39558 0.0
C57 C 0.93687 0.1477 0.40764 0.0
C58 C 0.90853 0.12952 0.45952 0.0
C59 C 0.92251 0.13283 0.47908 0.0
C60 C 0.91204 0.1466 0.49462 0.0
C61 C 0.88738 0.15741 0.49089 0.0
C62 C 0.87441 0.15529 0.47113 0.0
C63 C 0.88517 0.1417 0.45554 0.0
P64 P 0.85785 0.71377 0.41458 0.0
H65 H 0.78351 0.68123 0.40054 0.0
H66 H 0.74769 0.70382 0.38647 0.0
H67 H 0.83832 0.80826 0.39397 0.0
H68 H 0.87429 0.78512 0.40776 0.0
H69 H 0.87896 0.71781 0.37484 0.0
H70 H 0.93589 0.74383 0.36138 0.0
H71 H 0.98818 0.78527 0.42058 0.0
H72 H 0.93083 0.7592 0.43398 0.0
H73 H 0.81724 0.72652 0.44377 0.0
H74 H 0.89567 0.6954 0.44374 0.0
O75 O 0.83891 0.67214 0.40486 0.0
H76 H 0.80925 0.71437 0.47827 0.0
H77 H 0.88802 0.68353 0.47841 0.0
C78 C 0.83166 0.7314 0.4049 0.0
C79 C 0.79574 0.70898 0.39911 0.0
C80 C 0.7752 0.72202 0.39119 0.0
C81 C 0.79009 0.7579 0.38903 0.0
C82 C 0.82612 0.78043 0.39514 0.0
C83 C 0.84668 0.76729 0.40312 0.0
C84 C 0.90062 0.73602 0.40542 0.0
C85 C 0.90268 0.7327 0.38493 0.0
C86 C 0.93527 0.74779 0.37723 0.0
C87 C 0.96666 0.76651 0.38989 0.0
C88 C 0.9645 0.77058 0.41045 0.0
C89 C 0.93172 0.75568 0.41814 0.0
C90 C 0.85768 0.71263 0.44119 0.0
C91 C 0.83344 0.71792 0.45127 0.0
C92 C 0.82861 0.71064 0.47101 0.0
C93 C 0.84791 0.69787 0.4811 0.0
C94 C 0.87304 0.69374 0.47117 0.0
C95 C 0.87756 0.70067 0.45135 0.0
P96 P 0.13144 0.28173 0.599 0.0
H97 H 0.08373 0.30859 0.60353 0.0
H98 H 0.02676 0.28555 0.61663 0.0
H99 H 0.02395 0.18786 0.62322 0.0
H100 H 0.08154 0.21153 0.61036 0.0
H101 H 0.17496 0.29665 0.63619 0.0
H102 H 0.20837 0.27126 0.64982 0.0
H103 H 0.17019 0.19444 0.5985 0.0
H104 H 0.13726 0.22076 0.5847 0.0
H105 H 0.08416 0.27955 0.56569 0.0
H106 H 0.18744 0.29168 0.57459 0.0
O107 O 0.15253 0.32324 0.60914 0.0
H108 H 0.09387 0.29316 0.53143 0.0
H109 H 0.19691 0.30414 0.5403 0.0
C110 C 0.08708 0.26196 0.60609 0.0
C111 C 0.07073 0.28209 0.60761 0.0
C112 C 0.03799 0.26876 0.61506 0.0
C113 C 0.02067 0.23481 0.62111 0.0
C114 C 0.03673 0.21428 0.61901 0.0
C115 C 0.06959 0.2277 0.6115 0.0
C116 C 0.15421 0.26103 0.60926 0.0
C117 C 0.17378 0.27438 0.62783 0.0
C118 C 0.19268 0.2596 0.6357 0.0
C119 C 0.19211 0.23082 0.62524 0.0
C120 C 0.17168 0.21692 0.6068 0.0
C121 C 0.15272 0.23181 0.59893 0.0
C122 C 0.13474 0.28379 0.57265 0.0
C123 C 0.10851 0.28411 0.56014 0.0
C124 C 0.11413 0.29192 0.5405 0.0
C125 C 0.1463 0.29998 0.53307 0.0
C126 C 0.17203 0.29858 0.54554 0.0
C127 C 0.16642 0.29091 0.56513 0.0
P128 P 0.82366 0.90252 0.57864 0.0
H129 H 0.86608 0.95565 0.6112 0.0
H130 H 0.85917 0.0009 0.62957 0.0
H131 H 0.76085 0.96589 0.59415 0.0
H132 H 0.76755 0.92044 0.57603 0.0
H133 H 0.82838 0.84029 0.57006 0.0
H134 H 0.82339 0.79439 0.59009 0.0
H135 H 0.80174 0.84379 0.64001 0.0
H136 H 0.80641 0.88941 0.61991 0.0
H137 H 0.82811 0.92478 0.53901 0.0
H138 H 0.75281 0.84131 0.56986 0.0
O139 O 0.86475 0.92186 0.57227 0.0
H140 H 0.78718 0.90164 0.50895 0.0
H141 H 0.7119 0.81739 0.53966 0.0
C142 C 0.81762 0.93504 0.59212 0.0
C143 C 0.843 0.95768 0.60745 0.0
C144 C 0.8389 0.98327 0.61801 0.0
C145 C 0.80948 0.9868 0.61322 0.0
C146 C 0.78386 0.9638 0.598 0.0
C147 C 0.78775 0.93787 0.58764 0.0
C148 C 0.81801 0.86832 0.5935 0.0
C149 C 0.82233 0.84109 0.58528 0.0
C150 C 0.8193 0.81483 0.59669 0.0
C151 C 0.81219 0.81561 0.6166 0.0
C152 C 0.80754 0.84279 0.62476 0.0
C153 C 0.81022 0.86887 0.61324 0.0
C154 C 0.79381 0.88422 0.55644 0.0
C155 C 0.80294 0.90115 0.5392 0.0
C156 C 0.77953 0.88782 0.52202 0.0
C157 C 0.74644 0.85742 0.52185 0.0
C158 C 0.73714 0.84089 0.53933 0.0
C159 C 0.76062 0.85431 0.55653 0.0
P160 P 0.13899 0.83208 0.60636 0.0
H161 H 0.176 0.8718 0.64424 0.0
H162 H 0.20799 0.9345 0.65547 0.0
H163 H 0.18713 0.95676 0.59689 0.0
H164 H 0.15454 0.89404 0.58582 0.0
H165 H 0.07642 0.76356 0.59544 0.0
H166 H 0.01848 0.73418 0.60798 0.0
H167 H 0.04724 0.82774 0.64654 0.0
H168 H 0.10477 0.85687 0.63399 0.0
H169 H 0.19337 0.83278 0.58395 0.0
H170 H 0.09039 0.81981 0.57111 0.0
O171 O 0.15865 0.81336 0.61793 0.0
H172 H 0.20021 0.83033 0.54853 0.0
H173 H 0.09706 0.81734 0.53548 0.0
C174 C 0.1634 0.87831 0.61415 0.0
C175 C 0.17846 0.89018 0.6338 0.0
C176 C 0.1965 0.92591 0.64021 0.0
C177 C 0.20005 0.95036 0.627 0.0
C178 C 0.18503 0.93842 0.60729 0.0
C179 C 0.16645 0.90259 0.60097 0.0
C180 C 0.0948 0.81258 0.61349 0.0
C181 C 0.06998 0.77793 0.60631 0.0
C182 C 0.03692 0.76118 0.61352 0.0
C183 C 0.02835 0.77865 0.6283 0.0
C184 C 0.05319 0.81348 0.63531 0.0
C185 C 0.08609 0.83027 0.62798 0.0
C186 C 0.14107 0.82563 0.58011 0.0
C187 C 0.17197 0.8288 0.57346 0.0
C188 C 0.176 0.82778 0.55322 0.0
C189 C 0.14921 0.82373 0.53922 0.0
C190 C 0.11798 0.82008 0.54591 0.0
C191 C 0.11409 0.82137 0.56625 0.0
P192 P 0.98436 0.49777 0.73862 0.0
H193 H 0.98109 0.45738 0.70211 0.0
H194 H 0.9467 0.39477 0.69058 0.0
H195 H 0.90204 0.37413 0.74663 0.0
H196 H 0.93575 0.43661 0.75793 0.0
H197 H 0.98811 0.56438 0.74962 0.0
H198 H 0.95439 0.59078 0.73734 0.0
H199 H 0.89109 0.49898 0.69577 0.0
H200 H 0.92458 0.47276 0.70803 0.0
H201 H 0.04122 0.50197 0.76467 0.0
H202 H 0.94607 0.50537 0.77092 0.0
O203 O 0.02239 0.51692 0.72847 0.0
H204 H 0.05093 0.50455 0.8007 0.0
H205 H 0.95547 0.50777 0.80695 0.0
C206 C 0.96154 0.45155 0.731 0.0
C207 C 0.96417 0.43933 0.71197 0.0
C208 C 0.94433 0.4037 0.70535 0.0
C209 C 0.92183 0.37979 0.71777 0.0
C210 C 0.91946 0.39207 0.73687 0.0
C211 C 0.93884 0.42776 0.74335 0.0
C212 C 0.95847 0.51633 0.73007 0.0
C213 C 0.96672 0.5498 0.73802 0.0
C214 C 0.94742 0.56481 0.73101 0.0
C215 C 0.91998 0.5468 0.71567 0.0
C216 C 0.91217 0.5135 0.70754 0.0
C217 C 0.93125 0.4984 0.71467 0.0
C218 C 0.99346 0.5044 0.76519 0.0
C219 C 0.02277 0.50391 0.77384 0.0
C220 C 0.02808 0.50502 0.7944 0.0
C221 C 1.00396 0.50637 0.80666 0.0
C222 C 0.9748 0.5073 0.79793 0.0
C223 C 0.96946 0.50604 0.77734 0.0
P224 P 0.58565 0.44637 0.771 0.0
H225 H 0.57774 0.39164 0.74172 0.0
H226 H 0.52648 0.34079 0.7234 0.0
H227 H 0.45787 0.3682 0.75298 0.0
H228 H 0.50912 0.41926 0.77106 0.0
H229 H 0.64671 0.51603 0.77907 0.0
H230 H 0.68589 0.55772 0.75754 0.0
H231 H 0.61786 0.4909 0.70604 0.0
H232 H 0.57876 0.44946 0.7276 0.0
H233 H 0.58934 0.4373 0.81304 0.0
H234 H 0.55577 0.49248 0.77571 0.0
O235 O 0.61243 0.43232 0.77904 0.0
H236 H 0.57149 0.45793 0.8419 0.0
H237 H 0.53724 0.51299 0.80474 0.0
C238 C 0.54732 0.4092 0.75778 0.0
C239 C 0.55166 0.38675 0.74423 0.0
C240 C 0.52242 0.35787 0.7337 0.0
C241 C 0.48828 0.35067 0.73677 0.0
C242 C 0.48394 0.37311 0.75042 0.0
C243 C 0.51327 0.40235 0.76074 0.0
C244 C 0.60978 0.47964 0.75503 0.0
C245 C 0.63981 0.51073 0.76317 0.0
C246 C 0.66218 0.53454 0.75082 0.0
C247 C 0.65506 0.52749 0.73006 0.0
C248 C 0.62427 0.49683 0.72196 0.0
C249 C 0.60178 0.47315 0.73435 0.0
C250 C 0.57434 0.46378 0.79229 0.0
C251 C 0.5785 0.45423 0.81108 0.0
C252 C 0.56831 0.46608 0.8276 0.0
C253 C 0.55319 0.48727 0.8256 0.0
C254 C 0.54881 0.49668 0.8067 0.0
C255 C 0.55954 0.48517 0.79017 0.0
P256 P 0.52539 0.04767 0.74925 0.0
H257 H 0.4929 0.04275 0.70993 0.0
H258 H 0.45946 0.06853 0.69642 0.0
H259 H 0.47656 0.12695 0.75331 0.0
H260 H 0.51092 0.10177 0.76663 0.0
H261 H 0.55042 0.02533 0.71564 0.0
H262 H 0.60642 0.05076 0.70141 0.0
H263 H 0.65045 0.13784 0.74722 0.0
H264 H 0.59382 0.11169 0.76164 0.0
H265 H 0.47208 0.03709 0.77591 0.0
H266 H 0.57652 0.05148 0.78076 0.0
O267 O 0.50191 0.00584 0.73975 0.0
H268 H 0.4669 0.02591 0.81059 0.0
H269 H 0.57157 0.04032 0.81566 0.0
C270 C 0.50346 0.06949 0.73944 0.0
C271 C 0.48966 0.06128 0.71948 0.0
C272 C 0.47071 0.07616 0.71174 0.0
C273 C 0.46506 0.09943 0.72388 0.0
C274 C 0.48005 0.10865 0.74371 0.0
C275 C 0.49959 0.0942 0.75135 0.0
C276 C 0.56813 0.06617 0.74 0.0
C277 C 0.57216 0.04968 0.72283 0.0
C278 C 0.60419 0.06451 0.71453 0.0
C279 C 0.63302 0.09644 0.7231 0.0
C280 C 0.62893 0.11303 0.74036 0.0
C281 C 0.59662 0.09814 0.74863 0.0
C282 C 0.52524 0.04657 0.77585 0.0
C283 C 0.49445 0.0391 0.78463 0.0
C284 C 0.49144 0.03252 0.80451 0.0
C285 C 0.51889 0.0324 0.81602 0.0
C286 C 0.54989 0.04014 0.80723 0.0
C287 C 0.55294 0.04698 0.78731 0.0
P288 P 0.79776 0.60866 0.93463 0.0
H289 H 0.77452 0.58871 0.97333 0.0
H290 H 0.71762 0.56586 0.98665 0.0
H291 H 0.66863 0.55743 0.92807 0.0
H292 H 0.72594 0.58111 0.91498 0.0
H293 H 0.87289 0.63468 0.94052 0.0
H294 H 0.90746 0.60851 0.95132 0.0
H295 H 0.81171 0.50933 0.95204 0.0
H296 H 0.77725 0.53606 0.94151 0.0
H297 H 0.79495 0.6625 0.91355 0.0
H298 H 0.79977 0.56915 0.89847 0.0
O299 O 0.81893 0.64827 0.94738 0.0
H300 H 0.80078 0.67571 0.87921 0.0
H301 H 0.80456 0.58153 0.86375 0.0
C302 C 0.75449 0.58648 0.94317 0.0
C303 C 0.75141 0.58142 0.9633 0.0
C304 C 0.71876 0.5682 0.97089 0.0
C305 C 0.68841 0.55988 0.95849 0.0
C306 C 0.69149 0.56403 0.93813 0.0
C307 C 0.72425 0.57732 0.93056 0.0
C308 C 0.82252 0.58753 0.94064 0.0
C309 C 0.85935 0.60725 0.94292 0.0
C310 C 0.87911 0.59214 0.94897 0.0
C311 C 0.86241 0.55682 0.95273 0.0
C312 C 0.82542 0.53675 0.94965 0.0
C313 C 0.80566 0.55195 0.94355 0.0
C314 C 0.79758 0.61521 0.90864 0.0
C315 C 0.79686 0.64459 0.90275 0.0
C316 C 0.79993 0.65196 0.883 0.0
C317 C 0.80343 0.62986 0.86859 0.0
C318 C 0.80264 0.59954 0.87446 0.0
C319 C 0.79966 0.59226 0.8943 0.0
P320 P 0.48589 0.23485 0.91488 0.0
H321 H 0.53094 0.28897 0.94657 0.0
H322 H 0.52505 0.33437 0.96564 0.0
H323 H 0.4229 0.29633 0.93397 0.0
H324 H 0.42849 0.25075 0.91526 0.0
H325 H 0.49065 0.17292 0.90504 0.0
H326 H 0.48661 0.12659 0.9244 0.0
H327 H 0.46511 0.17402 0.97534 0.0
H328 H 0.46902 0.22012 0.95594 0.0
H329 H 0.48681 0.26289 0.8774 0.0
H330 H 0.41635 0.17173 0.90511 0.0
O331 O 0.52655 0.25413 0.90788 0.0
H332 H 0.4432 0.24403 0.84873 0.0
H333 H 0.37247 0.15265 0.8764 0.0
C334 C 0.48055 0.26705 0.92924 0.0
C335 C 0.50724 0.29037 0.94381 0.0
C336 C 0.50374 0.31602 0.95478 0.0
C337 C 0.47358 0.3188 0.95115 0.0
C338 C 0.44651 0.29484 0.93688 0.0
C339 C 0.44981 0.26889 0.92614 0.0
C340 C 0.48042 0.20001 0.92908 0.0
C341 C 0.4848 0.17315 0.92034 0.0
C342 C 0.48229 0.14664 0.93136 0.0
C343 C 0.47559 0.14681 0.95137 0.0
C344 C 0.47062 0.1735 0.96 0.0
C345 C 0.47285 0.19984 0.94889 0.0
C346 C 0.45511 0.21827 0.89309 0.0
C347 C 0.46214 0.23854 0.87716 0.0
C348 C 0.43705 0.22795 0.86092 0.0
C349 C 0.40441 0.19695 0.86041 0.0
C350 C 0.39754 0.17647 0.87635 0.0
C351 C 0.42263 0.18727 0.89269 0.0
P352 P 0.80429 0.15986 0.93354 0.0
H353 H 0.85672 0.19826 0.96751 0.0
H354 H 0.8878 0.25979 0.981 0.0
H355 H 0.82874 0.28128 0.9368 0.0
H356 H 0.79781 0.21957 0.92332 0.0
H357 H 0.77714 0.11332 0.96454 0.0
H358 H 0.72099 0.08635 0.97876 0.0
H359 H 0.68183 0.13227 0.93748 0.0
H360 H 0.73817 0.15865 0.92299 0.0
H361 H 0.8549 0.20599 0.90822 0.0
H362 H 0.75472 0.11004 0.90045 0.0
O363 O 0.82767 0.14183 0.94117 0.0
H364 H 0.85832 0.20326 0.87257 0.0
H365 H 0.75793 0.10712 0.86443 0.0
C366 C 0.82552 0.20462 0.94421 0.0
C367 C 0.85041 0.21618 0.96076 0.0
C368 C 0.86799 0.25131 0.96851 0.0
C369 C 0.86085 0.27539 0.95986 0.0
C370 C 0.83514 0.26342 0.94358 0.0
C371 C 0.81739 0.22821 0.93594 0.0
C372 C 0.76151 0.13731 0.94241 0.0
C373 C 0.75632 0.11718 0.95832 0.0
C374 C 0.7243 0.10213 0.96664 0.0
C375 C 0.69689 0.10723 0.95933 0.0
C376 C 0.70222 0.12746 0.94331 0.0
C377 C 0.73436 0.14253 0.935 0.0
C378 C 0.80402 0.15881 0.90696 0.0
C379 C 0.83317 0.18472 0.89878 0.0
C380 C 0.83511 0.18314 0.87835 0.0
C381 C 0.80821 0.15519 0.86562 0.0
C382 C 0.77905 0.12901 0.87385 0.0
C383 C 0.77704 0.13078 0.8944 0.0
P384 P 0.65521 0.83311 0.07442 0.0
H385 H 0.65098 0.79258 0.03779 0.0
H386 H 0.61607 0.73 0.02627 0.0
H387 H 0.57244 0.70969 0.08262 0.0
H388 H 0.60677 0.77218 0.09393 0.0
H389 H 0.66332 0.90222 0.08273 0.0
H390 H 0.63026 0.92914 0.07015 0.0
H391 H 0.55978 0.83334 0.03304 0.0
H392 H 0.59249 0.80656 0.04564 0.0
H393 H 0.70844 0.83249 0.10135 0.0
H394 H 0.61867 0.84613 0.106 0.0
O395 O 0.69366 0.85172 0.0647 0.0
H396 H 0.71769 0.83716 0.13757 0.0
H397 H 0.6279 0.85105 0.14218 0.0
C398 C 0.63205 0.78688 0.06683 0.0
C399 C 0.63419 0.77459 0.04772 0.0
C400 C 0.61402 0.73898 0.0411 0.0
C401 C 0.59166 0.71517 0.0536 0.0
C402 C 0.58974 0.72754 0.07279 0.0
C403 C 0.60948 0.76322 0.07927 0.0
C404 C 0.63017 0.85227 0.06539 0.0
C405 C 0.6406 0.88697 0.072 0.0
C406 C 0.62168 0.90226 0.06484 0.0
C407 C 0.59238 0.88323 0.05068 0.0
C408 C 0.58235 0.84865 0.04386 0.0
C409 C 0.60105 0.83328 0.05118 0.0
C410 C 0.66352 0.83996 0.10103 0.0
C411 C 0.69107 0.83704 0.11019 0.0
C412 C 0.69612 0.83937 0.13085 0.0
C413 C 0.67359 0.8446 0.14269 0.0
C414 C 0.646 0.84757 0.13344 0.0
C415 C 0.6408 0.8449 0.11276 0.0
P416 P 0.25481 0.77097 0.1012 0.0
H417 H 0.24814 0.73481 0.06245 0.0
H418 H 0.19862 0.68596 0.04209 0.0
H419 H 0.13027 0.67894 0.0872 0.0
H420 H 0.17933 0.7291 0.10675 0.0
H421 H 0.32502 0.83076 0.11068 0.0
H422 H 0.3654 0.87579 0.09104 0.0
H423 H 0.28395 0.83641 0.04221 0.0
H424 H 0.24323 0.79215 0.06216 0.0
H425 H 0.25061 0.75087 0.14137 0.0
H426 H 0.22671 0.81803 0.1088 0.0
O427 O 0.28004 0.75464 0.10836 0.0
H428 H 0.22664 0.76319 0.17027 0.0
H429 H 0.20178 0.83009 0.13777 0.0
C430 C 0.21739 0.73623 0.08589 0.0
C431 C 0.2223 0.72318 0.06773 0.0
C432 C 0.19396 0.69489 0.05622 0.0
C433 C 0.16025 0.67828 0.06295 0.0
C434 C 0.15555 0.69142 0.08127 0.0
C435 C 0.18382 0.72014 0.09259 0.0
C436 C 0.28141 0.8076 0.08776 0.0
C437 C 0.31563 0.83221 0.09588 0.0
C438 C 0.33867 0.8579 0.08465 0.0
C439 C 0.32791 0.85923 0.065 0.0
C440 C 0.29306 0.83555 0.05719 0.0
C441 C 0.26981 0.81023 0.06861 0.0
C442 C 0.24104 0.78407 0.12307 0.0
C443 C 0.2406 0.76869 0.14052 0.0
C444 C 0.22644 0.77543 0.157 0.0
C445 C 0.212 0.79741 0.15631 0.0
C446 C 0.21298 0.81329 0.13885 0.0
C447 C 0.22723 0.80648 0.12231 0.0
P448 P 0.19163 0.37327 0.08268 0.0
H449 H 0.19661 0.41033 0.04803 0.0
H450 H 0.16308 0.43592 0.03478 0.0
H451 H 0.10612 0.41398 0.08682 0.0
H452 H 0.14092 0.38999 0.10037 0.0
H453 H 0.22647 0.34648 0.05732 0.0
H454 H 0.28313 0.37435 0.04372 0.0
H455 H 0.31158 0.47204 0.07773 0.0
H456 H 0.2541 0.44386 0.09124 0.0
H457 H 0.13167 0.32883 0.1033 0.0
H458 H 0.2431 0.39698 0.1186 0.0
O459 O 0.168 0.33439 0.06931 0.0
H460 H 0.12469 0.31276 0.13703 0.0
H461 H 0.23665 0.37985 0.15244 0.0
C462 C 0.1717 0.39848 0.07532 0.0
C463 C 0.17758 0.41187 0.05686 0.0
C464 C 0.15794 0.42607 0.04915 0.0
C465 C 0.13143 0.42666 0.05957 0.0
C466 C 0.12646 0.41431 0.07841 0.0
C467 C 0.14635 0.40033 0.08618 0.0
C468 C 0.23593 0.39306 0.07534 0.0
C469 C 0.24486 0.37381 0.06206 0.0
C470 C 0.27726 0.38986 0.05414 0.0
C471 C 0.3017 0.42551 0.05944 0.0
C472 C 0.29332 0.44451 0.07337 0.0
C473 C 0.26056 0.42844 0.08114 0.0
C474 C 0.18785 0.36424 0.10837 0.0
C475 C 0.15473 0.34043 0.11398 0.0
C476 C 0.15084 0.33091 0.13331 0.0
C477 C 0.18014 0.34454 0.14756 0.0
C478 C 0.21339 0.36896 0.14198 0.0
C479 C 0.21719 0.37874 0.12256 0.0
P480 P 0.46754 0.95686 0.26885 0.0
H481 H 0.43988 0.97865 0.30138 0.0
H482 H 0.38304 0.95192 0.31472 0.0
H483 H 0.34411 0.86298 0.27047 0.0
H484 H 0.40139 0.89056 0.25687 0.0
H485 H 0.51662 0.97477 0.30403 0.0
H486 H 0.5502 0.94883 0.31676 0.0
H487 H 0.50236 0.86674 0.26802 0.0
H488 H 0.46898 0.89331 0.25519 0.0
H489 H 0.41674 0.95264 0.23708 0.0
H490 H 0.51979 0.96366 0.2424 0.0
O491 O 0.48961 -0.00098 0.27781 0.0
H492 H 0.42146 0.96124 0.20184 0.0
H493 H 0.52515 0.97309 0.20758 0.0
C494 C 0.42462 0.93696 0.27783 0.0
C495 C 0.41907 0.95355 0.29438 0.0
C496 C 0.38657 0.93799 0.30218 0.0
C497 C 0.35889 0.90521 0.29373 0.0
C498 C 0.36467 0.88844 0.2772 0.0
C499 C 0.39737 0.90411 0.2694 0.0
C500 C 0.49087 0.93635 0.27846 0.0
C501 C 0.51336 0.95123 0.29604 0.0
C502 C 0.53239 0.9362 0.30339 0.0
C503 C 0.5291 0.90577 0.29337 0.0
C504 C 0.50589 0.89047 0.27592 0.0
C505 C 0.4867 0.90551 0.26863 0.0
C506 C 0.46744 0.95638 0.24225 0.0
C507 C 0.44001 0.95605 0.23057 0.0
C508 C 0.44297 0.96144 0.21046 0.0
C509 C 0.47368 0.96779 0.20175 0.0
C510 C 0.50079 0.96751 0.21354 0.0
C511 C 0.49775 0.96208 0.23355 0.0
P512 P 0.15334 0.56216 0.24876 0.0
H513 H 0.20519 0.62403 0.2745 0.0
H514 H 0.201 0.66933 0.29454 0.0
H515 H 0.0888 0.61516 0.27788 0.0
H516 H 0.09339 0.57036 0.25752 0.0
H517 H 0.16662 0.50521 0.24034 0.0
H518 H 0.15792 0.45599 0.25827 0.0
H519 H 0.10983 0.48701 0.30309 0.0
H520 H 0.11931 0.53667 0.28523 0.0
H521 H 0.16037 0.59411 0.21208 0.0
H522 H 0.081 0.50472 0.23739 0.0
O523 O 0.19435 0.57972 0.24236 0.0
H524 H 0.11993 0.58026 0.18249 0.0
H525 H 0.03992 0.49104 0.20796 0.0
C526 C 0.14977 0.59443 0.26418 0.0
C527 C 0.17972 0.62197 0.27514 0.0
C528 C 0.17721 0.64763 0.28675 0.0
C529 C 0.14456 0.6459 0.2877 0.0
C530 C 0.11439 0.61753 0.27716 0.0
C531 C 0.11698 0.59192 0.26554 0.0
C532 C 0.1442 0.52484 0.26161 0.0
C533 C 0.15409 0.5013 0.25398 0.0
C534 C 0.14878 0.473 0.26418 0.0
C535 C 0.13318 0.4676 0.28214 0.0
C536 C 0.1223 0.49074 0.28944 0.0
C537 C 0.12766 0.5191 0.27919 0.0
C538 C 0.1239 0.54996 0.22664 0.0
C539 C 0.13427 0.57132 0.21117 0.0
C540 C 0.11096 0.56361 0.19438 0.0
C541 C 0.07665 0.53459 0.19289 0.0
C542 C 0.0663 0.5133 0.20855 0.0
C543 C 0.08975 0.52105 0.22535 0.0
P544 P 0.47027 0.50336 0.26986 0.0
H545 H 0.54448 0.55406 0.28018 0.0
H546 H 0.57645 0.61715 0.28976 0.0
H547 H 0.47877 0.61803 0.28311 0.0
H548 H 0.44692 0.55474 0.27377 0.0
H549 H 0.39906 0.45945 0.24882 0.0
H550 H 0.34067 0.43121 0.26068 0.0
H551 H 0.38793 0.47528 0.32059 0.0
H552 H 0.446 0.50418 0.3085 0.0
H553 H 0.49477 0.46388 0.24604 0.0
H554 H 0.44864 0.52817 0.2359 0.0
O555 O 0.49144 0.48637 0.28175 0.0
H556 H 0.50248 0.45987 0.21083 0.0
H557 H 0.45672 0.52466 0.20055 0.0
C558 C 0.49333 0.54972 0.27682 0.0
C559 C 0.52996 0.56784 0.28088 0.0
C560 C 0.54822 0.60394 0.28615 0.0
C561 C 0.53009 0.62254 0.28726 0.0
C562 C 0.49337 0.60432 0.28268 0.0
C563 C 0.47516 0.56819 0.27736 0.0
C564 C 0.42679 0.48393 0.27781 0.0
C565 C 0.39681 0.46337 0.26445 0.0
C566 C 0.36344 0.44707 0.27129 0.0
C567 C 0.35958 0.45091 0.29162 0.0
C568 C 0.3898 0.47217 0.30483 0.0
C569 C 0.42306 0.48848 0.29796 0.0
C570 C 0.47131 0.49648 0.24357 0.0
C571 C 0.48602 0.47691 0.23621 0.0
C572 C 0.49065 0.47485 0.21608 0.0
C573 C 0.48062 0.49232 0.20295 0.0
C574 C 0.46458 0.5108 0.21027 0.0
C575 C 0.46005 0.51291 0.23046 0.0
Tb576 Tb 0.48739 0.97413 0.9861 0.0
Eu577 Eu 0.51618 0.02087 0.0302 0.0
C578 C 0.52067 0.95264 0.02086 0.0
C579 C 0.4389 0.95448 0.02074 0.0
C580 C 0.47519 0.95731 0.93155 0.0
C581 C 0.47906 0.94829 0.89626 0.0
C582 C 0.47115 0.93517 0.91469 0.0
C583 C 0.48715 0.99281 0.92973 0.0
C584 C 0.49492 0.00593 0.91129 0.0
C585 C 0.4912 0.98388 0.89432 0.0
C586 C 0.46907 0.94376 0.95112 0.0
O587 O 0.46901 0.01155 0.98722 0.0
O588 O 0.51155 0.05578 0.00932 0.0
O589 O 0.56378 0.03652 0.0133 0.0
O590 O 0.53526 0.02199 0.9819 0.0
C591 C 0.48694 0.04465 0.99446 0.0
O592 O 0.51076 0.05232 0.05434 0.0
O593 O 0.55217 0.03952 0.05733 0.0
O594 O 0.511 0.96877 0.03366 0.0
O595 O 0.51905 0.95625 1.00183 0.0
O596 O 0.44926 0.94211 0.00601 0.0
O597 O 0.45739 0.98737 0.02818 0.0
C598 C 0.5643 0.038 0.99401 0.0
O599 O 0.49716 0.94941 0.96183 0.0
O600 O 0.44883 0.95047 0.96166 0.0
C601 C 0.52397 0.0393 0.08614 0.0
C602 C 0.50435 0.01336 0.12323 0.0
C603 C 0.47997 0.01491 0.1097 0.0
C604 C 0.48961 0.0276 0.09133 0.0
C605 C 0.54844 0.03821 0.09979 0.0
C606 C 0.53872 0.02525 0.11807 0.0
C607 C 0.53438 0.05153 0.06645 0.0
H608 H 0.47543 0.93045 0.88349 0.0
H609 H 0.46218 0.90777 0.91581 0.0
H610 H 0.49092 0.01048 0.94263 0.0
H611 H 0.50456 0.03351 0.91041 0.0
H612 H 0.45323 0.00572 0.11318 0.0
H613 H 0.46999 0.0279 0.08115 0.0
H614 H 0.5751 0.04714 0.09624 0.0
H615 H 0.55826 0.02488 0.12828 0.0
Tb616 Tb 0.01315 0.49223 0.98547 0.0
Eu617 Eu 0.97288 0.48242 0.02596 0.0
C618 C 0.04459 0.55144 0.02081 0.0
C619 C 0.03702 0.46832 0.02341 0.0
C620 C 0.03479 0.50152 0.93258 0.0
C621 C 0.04086 0.53401 0.90406 0.0
C622 C 0.04718 0.53345 0.92438 0.0
C623 C 0.0159 0.47008 0.92 0.0
C624 C 0.00972 0.47066 0.89965 0.0
C625 C 0.0223 0.50263 0.89145 0.0
C626 C 0.04331 0.5015 0.95397 0.0
O627 O 0.96212 0.44497 0.9783 0.0
O628 O 0.95192 0.4291 0.00976 0.0
O629 O 0.93765 0.48498 1.00178 0.0
O630 O 0.98084 0.5166 0.98202 0.0
C631 C 0.94628 0.42114 0.99047 0.0
O632 O 0.94933 0.45208 0.05053 0.0
O633 O 0.94894 0.50027 0.04767 0.0
O634 O 0.01298 0.53961 0.02647 0.0
O635 O 0.05122 0.53279 0.00783 0.0
O636 O 0.03073 0.4641 0.00393 0.0
O637 O 0.02254 0.48173 0.03476 0.0
C638 C 0.94901 0.50525 0.98745 0.0
O639 O 0.04495 0.52669 0.96585 0.0
O640 O 0.02773 0.47161 0.96145 0.0
C641 C 0.95859 0.48748 0.0798 0.0
C642 C 0.99114 0.50463 0.11887 0.0
C643 C 0.95706 0.47566 0.11425 0.0
C644 C 0.94088 0.46719 0.09483 0.0
C645 C 0.99226 0.51689 0.08445 0.0
C646 C 0.00831 0.52551 0.10384 0.0
C647 C 0.94368 0.47579 0.05905 0.0
H648 H 0.05131 0.55905 0.89815 0.0
H649 H 0.06224 0.5581 0.93365 0.0
H650 H 0.00617 0.44501 0.9258 0.0
H651 H 0.99507 0.44604 0.89031 0.0
H652 H 0.94319 0.45925 0.12558 0.0
H653 H 0.91502 0.44419 0.09142 0.0
H654 H 0.00665 0.53253 0.07297 0.0
H655 H 0.0348 0.54763 0.10688 0.0
Tb656 Tb 0.50879 0.49413 0.02779 0.0
Eu657 Eu 0.48029 0.51278 0.98671 0.0
C658 C 0.4785 0.44072 0.98954 0.0
C659 C 0.55769 0.52192 0.99327 0.0
C660 C 0.52274 0.48422 0.08086 0.0
C661 C 0.52756 0.47167 0.11475 0.0
C662 C 0.53372 0.46901 0.09491 0.0
C663 C 0.5058 0.50248 0.08682 0.0
C664 C 0.4996 0.50517 0.10668 0.0
C665 C 0.51024 0.4896 0.12086 0.0
C666 C 0.52712 0.47896 0.05989 0.0
O667 O 0.53113 0.55056 0.03075 0.0
O668 O 0.49182 0.55641 0.00992 0.0
O669 O 0.43309 0.48249 1.00362 0.0
O670 O 0.46257 0.49705 0.03472 0.0
C671 C 0.51742 0.56895 0.02433 0.0
O672 O 0.4858 0.54962 0.96538 0.0
O673 O 0.44375 0.49572 0.9599 0.0
O674 O 0.48554 0.46611 0.97852 0.0
O675 O 0.47842 0.44508 0.00882 0.0
O676 O 0.54742 0.50036 0.00714 0.0
O677 O 0.5387 0.53504 0.98653 0.0
C678 C 0.43321 0.48454 0.02306 0.0
O679 O 0.49811 0.45815 0.04867 0.0
O680 O 0.54733 0.50694 0.05152 0.0
C681 C 0.47519 0.52191 0.93314 0.0
C682 C 0.50207 0.51617 0.8971 0.0
C683 C 0.47923 0.52979 0.89806 0.0
C684 C 0.46591 0.53267 0.91599 0.0
C685 C 0.49788 0.50835 0.93221 0.0
C686 C 0.51102 0.50535 0.91442 0.0
C687 C 0.46224 0.52512 0.95226 0.0
H688 H 0.53561 0.45892 0.1252 0.0
H689 H 0.54652 0.45453 0.09049 0.0
H690 H 0.49701 0.51425 0.07608 0.0
H691 H 0.48657 0.51948 0.11092 0.0
H692 H 0.472 0.53861 0.88506 0.0
H693 H 0.44858 0.5434 0.91647 0.0
H694 H 0.50547 0.5 0.94531 0.0
H695 H 0.52789 0.49407 0.91423 0.0
Tb696 Tb 0.15274 0.29822 0.31921 0.0
Eu697 Eu 0.18155 0.35175 0.36136 0.0
C698 C 0.19641 0.28829 0.35322 0.0
C699 C 0.10916 0.27935 0.35632 0.0
C700 C 0.14252 0.27591 0.26526 0.0
C701 C 0.14908 0.26433 0.23067 0.0
C702 C 0.14141 0.25312 0.24957 0.0
C703 C 0.1519 0.31028 0.26182 0.0
C704 C 0.1593 0.32144 0.24293 0.0
C705 C 0.15791 0.29862 0.22701 0.0
C706 C 0.13471 0.26414 0.28524 0.0
O707 O 0.15239 0.34515 0.31276 0.0
O708 O 0.14667 0.36559 0.34338 0.0
O709 O 0.21886 0.38317 0.33975 0.0
O710 O 0.2083 0.33608 0.31793 0.0
C711 C 0.14377 0.3643 0.32398 0.0
O712 O 0.17006 0.37904 0.38502 0.0
O713 O 0.21942 0.37949 0.38752 0.0
O714 O 0.20973 0.32129 0.36 0.0
O715 O 0.16862 0.27214 0.34009 0.0
O716 O 0.1075 0.27853 0.33684 0.0
O717 O 0.13855 0.29964 0.36749 0.0
C718 C 0.22733 0.36943 0.32477 0.0
O719 O 0.1615 0.26886 0.29693 0.0
O720 O 0.11499 0.27338 0.29456 0.0
C721 C 0.19045 0.37362 0.41701 0.0
C722 C 0.17608 0.34863 0.45484 0.0
C723 C 0.15077 0.35164 0.44295 0.0
C724 C 0.15787 0.36403 0.42433 0.0
C725 C 0.21593 0.37101 0.42898 0.0
C726 C 0.20882 0.35862 0.44763 0.0
C727 C 0.19739 0.38537 0.39684 0.0
H728 H 0.14836 0.24613 0.21896 0.0
H729 H 0.13468 0.22664 0.25193 0.0
H730 H 0.15333 0.32852 0.27374 0.0
H731 H 0.16548 0.34782 0.24077 0.0
H732 H 0.12552 0.34481 0.44812 0.0
H733 H 0.13765 0.36591 0.41563 0.0
H734 H 0.24131 0.37823 0.42385 0.0
H735 H 0.22885 0.35638 0.45628 0.0
Tb736 Tb 0.68079 0.84181 0.32129 0.0
Eu737 Eu 0.63449 0.81712 0.35965 0.0
C738 C 0.70561 0.88965 0.36171 0.0
C739 C 0.70066 0.80664 0.35461 0.0
C740 C 0.70766 0.85794 0.26977 0.0
C741 C 0.71763 0.8853 0.23907 0.0
C742 C 0.72407 0.88782 0.25964 0.0
C743 C 0.68456 0.82535 0.259 0.0
C744 C 0.67834 0.82277 0.23836 0.0
C745 C 0.6948 0.85274 0.2282 0.0
C746 C 0.71511 0.86168 0.29148 0.0
O747 O 0.6447 0.78576 0.31487 0.0
O748 O 0.60037 0.77891 0.3337 0.0
O749 O 0.61926 0.85153 0.34414 0.0
O750 O 0.63204 0.84147 0.31299 0.0
C751 C 0.61218 0.76741 0.31945 0.0
O752 O 0.60104 0.77677 0.37789 0.0
O753 O 0.61528 0.83069 0.38581 0.0
O754 O 0.6876 0.86225 0.37118 0.0
O755 O 0.70012 0.8881 0.34239 0.0
O756 O 0.71269 0.83152 0.34266 0.0
O757 O 0.66838 0.79252 0.35961 0.0
C758 C 0.61579 0.85204 0.32487 0.0
O759 O 0.70434 0.87991 0.30158 0.0
O760 O 0.7093 0.83379 0.29978 0.0
C761 C 0.61618 0.79877 0.41181 0.0
C762 C 0.65287 0.80931 0.44927 0.0
C763 C 0.62832 0.8206 0.44676 0.0
C764 C 0.61013 0.81536 0.42817 0.0
C765 C 0.6393 0.78585 0.41453 0.0
C766 C 0.65727 0.79087 0.43309 0.0
C767 C 0.60249 0.79953 0.39169 0.0
H768 H 0.73096 0.90877 0.23162 0.0
H769 H 0.74199 0.91318 0.26768 0.0
H770 H 0.67131 0.80192 0.2665 0.0
H771 H 0.66036 0.7974 0.23037 0.0
H772 H 0.62455 0.83516 0.45887 0.0
H773 H 0.59268 0.82583 0.42633 0.0
H774 H 0.64471 0.77317 0.40215 0.0
H775 H 0.67551 0.78129 0.43461 0.0
Tb776 Tb 0.17697 0.82664 0.36205 0.0
Eu777 Eu 0.1449 0.83485 0.31873 0.0
C778 C 0.14764 0.7664 0.32739 0.0
C779 C 0.2238 0.85013 0.32601 0.0
C780 C 0.189 0.82097 0.41639 0.0
C781 C 0.16345 0.79086 0.44514 0.0
C782 C 0.17156 0.78997 0.42556 0.0
C783 C 0.19815 0.85296 0.42724 0.0
C784 C 0.19025 0.85386 0.44688 0.0
C785 C 0.17295 0.82284 0.45607 0.0
C786 C 0.19811 0.81944 0.3958 0.0
O787 O 0.1723 0.87294 0.36671 0.0
O788 O 0.17807 0.8885 0.33507 0.0
O789 O 0.10606 0.83083 0.34016 0.0
O790 O 0.12015 0.80231 0.36285 0.0
C791 C 0.18086 0.89667 0.35424 0.0
O792 O 0.15096 0.86611 0.29411 0.0
O793 O 0.10533 0.8144 0.29312 0.0
O794 O 0.12804 0.77811 0.31973 0.0
O795 O 0.17313 0.78512 0.3415 0.0
O796 O 0.22254 0.85445 0.34529 0.0
O797 O 0.19524 0.83577 0.31355 0.0
C798 C 0.09883 0.81243 0.35545 0.0
O799 O 0.17435 0.7935 0.38346 0.0
O800 O 0.21299 0.84863 0.38757 0.0
C801 C 0.13226 0.83166 0.26356 0.0
C802 C 0.1541 0.81921 0.22707 0.0
C803 C 0.14006 0.84157 0.22891 0.0
C804 C 0.12922 0.84772 0.24703 0.0
C805 C 0.14599 0.80916 0.26175 0.0
C806 C 0.15669 0.80292 0.24369 0.0
C807 C 0.12418 0.84061 0.28309 0.0
H808 H 0.15055 0.76658 0.45188 0.0
H809 H 0.16447 0.76499 0.41762 0.0
H810 H 0.21161 0.87736 0.42065 0.0
H811 H 0.19764 0.87888 0.45487 0.0
H812 H 0.1375 0.85432 0.21637 0.0
H813 H 0.11904 0.86547 0.24823 0.0
H814 H 0.14915 0.79699 0.27444 0.0
H815 H 0.16794 0.78606 0.24291 0.0
Tb816 Tb 0.81687 0.64025 0.65171 0.0
Eu817 Eu 0.84453 0.68542 0.69643 0.0
C818 C 0.849 0.61717 0.68623 0.0
C819 C 0.76724 0.62008 0.68556 0.0
C820 C 0.80405 0.62461 0.59696 0.0
C821 C 0.79231 0.61509 0.56099 0.0
C822 C 0.78568 0.6024 0.57961 0.0
C823 C 0.82887 0.65983 0.59546 0.0
C824 C 0.83581 0.67244 0.57686 0.0
C825 C 0.81771 0.65019 0.55938 0.0
C826 C 0.798 0.61082 0.61649 0.0
O827 O 0.79971 0.67864 0.65322 0.0
O828 O 0.84183 0.72187 0.67596 0.0
O829 O 0.89286 0.70219 0.68002 0.0
O830 O 0.86569 0.68754 0.64819 0.0
C831 C 0.8181 0.7116 0.66069 0.0
O832 O 0.83621 0.7132 0.7215 0.0
O833 O 0.88068 0.70487 0.72344 0.0
O834 O 0.83924 0.63303 0.69918 0.0
O835 O 0.84777 0.62136 0.66726 0.0
O836 O 0.77845 0.60775 0.6713 0.0
O837 O 0.78555 0.65294 0.69302 0.0
C838 C 0.89419 0.70363 0.66074 0.0
O839 O 0.82593 0.61573 0.62708 0.0
O840 O 0.77825 0.61793 0.62722 0.0
C841 C 0.85206 0.70087 0.75253 0.0
C842 C 0.83352 0.67514 0.78976 0.0
C843 C 0.83976 0.70871 0.78641 0.0
C844 C 0.84902 0.72145 0.768 0.0
C845 C 0.8454 0.66716 0.75571 0.0
C846 C 0.83644 0.65452 0.77416 0.0
C847 C 0.86149 0.71444 0.7331 0.0
H848 H 0.77809 0.59721 0.54782 0.0
H849 H 0.76644 0.57516 0.58044 0.0
H850 H 0.84307 0.67753 0.60868 0.0
H851 H 0.85518 0.69968 0.57616 0.0
H852 H 0.83805 0.72539 0.79815 0.0
H853 H 0.85387 0.74744 0.76584 0.0
H854 H 0.84708 0.65055 0.74392 0.0
H855 H 0.83139 0.62841 0.77615 0.0
Tb856 Tb 0.34644 0.17213 0.65599 0.0
Eu857 Eu 0.3018 0.15069 0.69544 0.0
C858 C 0.37225 0.22381 0.69561 0.0
C859 C 0.37066 0.14329 0.69126 0.0
C860 C 0.37094 0.1856 0.60404 0.0
C861 C 0.38913 0.20402 0.57177 0.0
C862 C 0.3968 0.20705 0.59226 0.0
C863 C 0.3372 0.16089 0.59516 0.0
C864 C 0.32951 0.15771 0.5746 0.0
C865 C 0.35538 0.1794 0.56271 0.0
C866 C 0.3794 0.19037 0.62558 0.0
O867 O 0.31188 0.11551 0.65128 0.0
O868 O 0.26849 0.10834 0.67108 0.0
O869 O 0.28579 0.18314 0.67836 0.0
O870 O 0.29662 0.16932 0.64752 0.0
C871 C 0.28028 0.09648 0.65701 0.0
O872 O 0.27616 0.11464 0.71758 0.0
O873 O 0.27425 0.16252 0.7176 0.0
O874 O 0.35348 0.19826 0.70615 0.0
O875 O 0.36746 0.22002 0.67612 0.0
O876 O 0.38023 0.16458 0.67728 0.0
O877 O 0.33965 0.13061 0.698 0.0
C878 C 0.28078 0.18095 0.65899 0.0
O879 O 0.36881 0.20892 0.63553 0.0
O880 O 0.37343 0.16262 0.63407 0.0
C881 C 0.28328 0.14555 0.74847 0.0
C882 C 0.31471 0.161 0.78776 0.0
C883 C 0.28343 0.12914 0.78191 0.0
C884 C 0.26778 0.1215 0.76236 0.0
C885 C 0.31421 0.1775 0.75439 0.0
C886 C 0.32969 0.18519 0.77382 0.0
C887 C 0.26925 0.13636 0.72747 0.0
H888 H 0.40973 0.22073 0.56299 0.0
H889 H 0.42295 0.2263 0.59894 0.0
H890 H 0.31683 0.14433 0.60413 0.0
H891 H 0.30321 0.13871 0.56805 0.0
H892 H 0.27131 0.11006 0.79237 0.0
H893 H 0.24409 0.09656 0.75799 0.0
H894 H 0.32699 0.19624 0.74386 0.0
H895 H 0.35416 0.20962 0.77772 0.0
Tb896 Tb 0.84042 0.15904 0.69113 0.0
Eu897 Eu 0.81105 0.17802 0.65049 0.0
C898 C 0.81146 0.10693 0.65234 0.0
C899 C 0.8895 0.18948 0.65686 0.0
C900 C 0.85145 0.14648 0.74385 0.0
C901 C 0.85069 0.12985 0.77726 0.0
C902 C 0.85918 0.12871 0.75778 0.0
C903 C 0.83528 0.16563 0.7496 0.0
C904 C 0.82683 0.16685 0.76909 0.0
C905 C 0.83425 0.14878 0.78312 0.0
C906 C 0.85808 0.14292 0.7231 0.0
O907 O 0.86208 0.21537 0.69464 0.0
O908 O 0.8225 0.22118 0.67399 0.0
O909 O 0.76412 0.14748 0.66744 0.0
O910 O 0.79393 0.16117 0.6984 0.0
C911 C 0.84814 0.23368 0.68836 0.0
O912 O 0.81469 0.21525 0.62989 0.0
O913 O 0.775 0.16057 0.62343 0.0
O914 O 0.81808 0.13263 0.64166 0.0
O915 O 0.81082 0.11051 0.6716 0.0
O916 O 0.88009 0.1677 0.67065 0.0
O917 O 0.86959 0.20177 0.65035 0.0
C918 C 0.76451 0.14928 0.68688 0.0
O919 O 0.83025 0.12173 0.71113 0.0
O920 O 0.87802 0.17181 0.71541 0.0
C921 C 0.80622 0.18966 0.5973 0.0
C922 C 0.83355 0.18603 0.56113 0.0
C923 C 0.80524 0.19235 0.56164 0.0
C924 C 0.79173 0.19425 0.57964 0.0
C925 C 0.83434 0.1833 0.59681 0.0
C926 C 0.84791 0.18158 0.57896 0.0
C927 C 0.79227 0.19073 0.61637 0.0
H928 H 0.85722 0.11608 0.78777 0.0
H929 H 0.87146 0.11364 0.75353 0.0
H930 H 0.82876 0.1792 0.73893 0.0
H931 H 0.81388 0.18137 0.77307 0.0
H932 H 0.7937 0.19598 0.54815 0.0
H933 H 0.76995 0.1991 0.57976 0.0
H934 H 0.84565 0.17931 0.61027 0.0
H935 H 0.86919 0.17596 0.5791 0.0
C936 C 0.35813 0.8728 0.03371 0.0
C937 C 0.35366 0.8843 0.05256 0.0
H938 H 0.38877 0.88587 0.0088 0.0
C939 C 0.37569 0.91944 0.06009 0.0
H940 H 0.34162 0.84572 0.02763 0.0
C941 C 0.40232 0.9424 0.04931 0.0
C942 C 0.40792 0.93068 0.03081 0.0
H943 H 0.37268 0.92905 0.07452 0.0
H944 H 0.41929 0.96912 0.05586 0.0
C945 C 0.38519 0.89572 0.02298 0.0
C946 C 0.09555 0.45672 0.06183 0.0
C947 C 0.10788 0.43824 0.05033 0.0
H948 H 0.06365 0.48068 0.06245 0.0
C949 C 0.0967 0.42996 0.02989 0.0
H950 H 0.10386 0.46394 0.07755 0.0
C951 C 0.07391 0.43985 0.0212 0.0
C952 C 0.06142 0.45808 0.03271 0.0
H953 H 0.10496 0.41515 0.02059 0.0
H954 H 0.06579 0.43279 0.00545 0.0
C955 C 0.07256 0.46645 0.05314 0.0
C956 C 0.57152 0.65276 0.05825 0.0
C957 C 0.57062 0.67746 0.04666 0.0
H958 H 0.55529 0.5989 0.0602 0.0
C959 C 0.55026 0.66601 0.02822 0.0
H960 H 0.58713 0.661 0.07249 0.0
C961 C 0.53163 0.63046 0.0213 0.0
C962 C 0.5336 0.60587 0.03256 0.0
H963 H 0.54895 0.68462 0.01913 0.0
H964 H 0.51674 0.62242 0.00684 0.0
C965 C 0.5534 0.6173 0.05119 0.0
C966 C 0.88723 0.32293 0.9881 0.0
C967 C 0.8808 0.31294 0.96757 0.0
H968 H 0.91255 0.36479 0.01139 0.0
C969 C 0.89467 0.33899 0.95453 0.0
H970 H 0.8765 0.30347 0.99849 0.0
C971 C 0.91542 0.37427 0.9619 0.0
C972 C 0.92251 0.38417 0.98246 0.0
H973 H 0.89036 0.33201 0.93862 0.0
H974 H 0.92637 0.39366 0.95148 0.0
C975 C 0.90777 0.35813 0.99546 0.0
C976 C 0.63233 0.56152 0.96033 0.0
C977 C 0.65424 0.54885 0.96698 0.0
H978 H 0.58516 0.56319 0.96333 0.0
C979 C 0.64386 0.52681 0.98233 0.0
H980 H 0.63963 0.57897 0.94878 0.0
C981 C 0.61259 0.51799 0.99089 0.0
C982 C 0.59095 0.53102 0.98434 0.0
H983 H 0.65983 0.51621 0.98769 0.0
H984 H 0.60546 0.50099 1.00267 0.0
C985 C 0.60115 0.55272 0.96886 0.0
C986 C 0.49464 0.13001 0.98213 0.0
C987 C 0.47546 0.12007 0.96335 0.0
H988 H 0.51332 0.1139 0.00677 0.0
C989 C 0.45793 0.08474 0.9556 0.0
H990 H 0.50863 0.15715 0.98837 0.0
C991 C 0.46049 0.05998 0.96613 0.0
C992 C 0.48091 0.07013 0.98455 0.0
H993 H 0.44267 0.07636 0.94124 0.0
H994 H 0.4474 0.0331 0.95948 0.0
C995 C 0.49746 0.10528 0.9926 0.0
C996 C 0.63082 0.07581 0.95637 0.0
C997 C 0.66293 0.09128 0.96838 0.0
H998 H 0.57471 0.04705 0.95498 0.0
C999 C 0.66232 0.09051 0.98907 0.0
H1000 H 0.63029 0.07562 0.94039 0.0
C1001 C 0.63036 0.07393 0.99748 0.0
C1002 C 0.59827 0.05774 0.98541 0.0
H1003 H 0.68659 0.10268 0.99878 0.0
H1004 H 0.63087 0.07339 0.01343 0.0
C1005 C 0.5989 0.05924 0.96477 0.0
C1006 C 0.87192 0.51938 0.97581 0.0
C1007 C 0.88355 0.54164 0.96065 0.0
H1008 H 0.88327 0.49054 0.99614 0.0
C1009 C 0.91633 0.55061 0.95383 0.0
H1010 H 0.84705 0.51226 0.98161 0.0
C1011 C 0.93728 0.53836 0.96228 0.0
C1012 C 0.92601 0.5168 0.97778 0.0
H1013 H 0.9259 0.56725 0.94197 0.0
H1014 H 0.96252 0.54614 0.95678 0.0
C1015 C 0.89286 0.50711 0.98426 0.0
C1016 C 0.46376 0.36939 0.95025 0.0
C1017 C 0.47141 0.34796 0.96136 0.0
H1018 H 0.46007 0.41571 0.95051 0.0
C1019 C 0.47891 0.35579 0.98202 0.0
H1020 H 0.45814 0.36398 0.93426 0.0
C1021 C 0.47961 0.38516 0.99138 0.0
C1022 C 0.47344 0.40745 0.98014 0.0
H1023 H 0.48471 0.33947 0.99088 0.0
H1024 H 0.48632 0.39112 0.00728 0.0
C1025 C 0.46501 0.39902 0.95953 0.0
C1026 C 0.13662 0.62203 0.04078 0.0
C1027 C 0.13053 0.64656 0.05135 0.0
H1028 H 0.11444 0.57314 0.02275 0.0
C1029 C 0.09574 0.63991 0.0512 0.0
H1030 H 0.16283 0.6257 0.04086 0.0
C1031 C 0.06778 0.60919 0.04113 0.0
C1032 C 0.07404 0.58474 0.0307 0.0
H1033 H 0.09001 0.65842 0.05885 0.0
H1034 H 0.04127 0.60461 0.04149 0.0
C1035 C 0.10878 0.59168 0.03045 0.0
C1036 C 0.36765 0.46411 0.06156 0.0
C1037 C 0.33537 0.44259 0.05006 0.0
H1038 H 0.42381 0.49402 0.06215 0.0
C1039 C 0.33547 0.43652 0.02946 0.0
H1040 H 0.36847 0.46917 0.07746 0.0
C1041 C 0.36708 0.45098 0.02062 0.0
C1042 C 0.39949 0.47158 0.03219 0.0
H1043 H 0.31099 0.4204 0.02015 0.0
H1044 H 0.36612 0.44528 0.00476 0.0
C1045 C 0.39936 0.47823 0.05276 0.0
C1046 C 0.56289 0.91838 0.05612 0.0
C1047 C 0.57243 0.89947 0.043 0.0
H1048 H 0.53855 0.94945 0.05947 0.0
C1049 C 0.56321 0.89657 0.02254 0.0
H1050 H 0.56928 0.92064 0.07199 0.0
C1051 C 0.54562 0.91314 0.01529 0.0
C1052 C 0.53662 0.93261 0.02841 0.0
H1053 H 0.57042 0.88226 0.01209 0.0
H1054 H 0.53957 0.91112 0.99942 0.0
C1055 C 0.54502 0.93463 0.04893 0.0
C1056 C 0.02122 0.20428 0.36791 0.0
C1057 C 0.02332 0.21186 0.38858 0.0
H1058 H 0.04694 0.2197 0.34123 0.0
C1059 C 0.05203 0.24296 0.39791 0.0
H1060 H 0.9993 0.18042 0.36035 0.0
C1061 C 0.07898 0.26509 0.38712 0.0
C1062 C 0.07806 0.25682 0.36665 0.0
H1063 H 0.05402 0.24991 0.41372 0.0
H1064 H 0.10097 0.28851 0.39503 0.0
C1065 C 0.04845 0.22665 0.35699 0.0
C1066 C 0.78048 0.79681 0.36698 0.0
C1067 C 0.76786 0.77145 0.38052 0.0
H1068 H 0.76924 0.82769 0.34803 0.0
C1069 C 0.7333 0.75838 0.38561 0.0
H1070 H 0.80686 0.80722 0.3626 0.0
C1071 C 0.71174 0.76984 0.37717 0.0
C1072 C 0.72409 0.79484 0.36343 0.0
H1073 H 0.72288 0.73933 0.39624 0.0
H1074 H 0.68527 0.75899 0.38149 0.0
C1075 C 0.75882 0.80837 0.35851 0.0
C1076 C 0.22256 0.99499 0.35629 0.0
C1077 C 0.2321 0.00525 0.37673 0.0
H1078 H 0.19854 0.95266 0.33315 0.0
C1079 C 0.22258 0.97932 0.38981 0.0
H1080 H 0.22896 0.01432 0.34586 0.0
C1081 C 0.20482 0.94395 0.38256 0.0
C1082 C 0.19631 0.93377 0.36206 0.0
H1083 H 0.22986 0.98636 0.40563 0.0
H1084 H 0.19873 0.9247 0.39302 0.0
C1085 C 0.20489 0.95963 0.34902 0.0
C1086 C 0.53605 0.67466 0.30776 0.0
C1087 C 0.54944 0.66057 0.2939 0.0
H1088 H 0.54524 0.71949 0.32665 0.0
C1089 C 0.58233 0.68269 0.28728 0.0
H1090 H 0.51089 0.65821 0.31325 0.0
C1091 C 0.6021 0.7178 0.29499 0.0
C1092 C 0.58942 0.73152 0.30953 0.0
H1093 H 0.59305 0.67272 0.27634 0.0
H1094 H 0.62774 0.73388 0.28992 0.0
C1095 C 0.55584 0.70977 0.3155 0.0
C1096 C 0.2926 0.87218 0.28949 0.0
C1097 C 0.32416 0.88911 0.30208 0.0
H1098 H 0.23643 0.84672 0.28707 0.0
C1099 C 0.32229 0.89174 0.32272 0.0
H1100 H 0.29299 0.86996 0.27353 0.0
C1101 C 0.28979 0.8786 0.33052 0.0
C1102 C 0.25829 0.86244 0.3179 0.0
H1103 H 0.34601 0.90408 0.33289 0.0
H1104 H 0.28943 0.88151 0.34647 0.0
C1105 C 0.2601 0.85903 0.29728 0.0
C1106 C 0.12137 0.40646 0.28367 0.0
C1107 C 0.13021 0.439 0.29359 0.0
H1108 H 0.11823 0.35712 0.28564 0.0
C1109 C 0.13914 0.44493 0.31425 0.0
H1110 H 0.11355 0.40076 0.26785 0.0
C1111 C 0.14144 0.41967 0.32453 0.0
C1112 C 0.1351 0.38823 0.31426 0.0
H1113 H 0.14627 0.46982 0.32231 0.0
H1114 H 0.15017 0.42563 0.34024 0.0
C1115 C 0.12391 0.38141 0.29388 0.0
C1116 C 0.31498 0.44623 0.31482 0.0
C1117 C 0.32458 0.43115 0.29925 0.0
H1118 H 0.27673 0.43876 0.33511 0.0
C1119 C 0.30123 0.39622 0.29168 0.0
H1120 H 0.33217 0.47324 0.32082 0.0
C1121 C 0.26947 0.37658 0.29975 0.0
C1122 C 0.26025 0.3913 0.31568 0.0
H1123 H 0.30793 0.38357 0.2799 0.0
H1124 H 0.25248 0.3496 0.29368 0.0
C1125 C 0.28314 0.42651 0.32295 0.0
C1126 C 0.55436 0.88869 0.32165 0.0
C1127 C 0.55003 0.89039 0.30116 0.0
H1128 H 0.57821 0.87529 0.34511 0.0
C1129 C 0.56675 0.87837 0.28838 0.0
H1130 H 0.54143 0.8972 0.33188 0.0
C1131 C 0.58792 0.86565 0.29598 0.0
C1132 C 0.5927 0.86455 0.31652 0.0
H1133 H 0.56418 0.87961 0.27253 0.0
H1134 H 0.60082 0.85705 0.28576 0.0
C1135 C 0.57539 0.87594 0.32922 0.0
C1136 C 0.12199 0.6877 0.29076 0.0
C1137 C 0.14243 0.67448 0.29893 0.0
H1138 H 0.10744 0.72702 0.29339 0.0
C1139 C 0.16235 0.69007 0.31732 0.0
H1140 H 0.10665 0.67649 0.2765 0.0
C1141 C 0.163 0.71919 0.32695 0.0
C1142 C 0.14367 0.73326 0.3184 0.0
H1143 H 0.17787 0.68007 0.32415 0.0
H1144 H 0.17931 0.73113 0.34088 0.0
C1145 C 0.12255 0.71676 0.30042 0.0
C1146 C 0.78208 0.98232 0.37312 0.0
C1147 C 0.78973 0.98424 0.39368 0.0
H1148 H 0.74942 0.95112 0.34693 0.0
C1149 C 0.76855 0.95528 0.40377 0.0
H1150 H 0.79765 0.00436 0.36498 0.0
C1151 C 0.7408 0.92478 0.39346 0.0
C1152 C 0.73362 0.9226 0.37283 0.0
H1153 H 0.77403 0.9558 0.41958 0.0
H1154 H 0.72541 0.90272 0.40164 0.0
C1155 C 0.75431 0.95185 0.36281 0.0
C1156 C 0.02798 0.77601 0.39097 0.0
C1157 C 1.00131 0.78028 0.38164 0.0
H1158 H 0.07934 0.78251 0.39003 0.0
C1159 C 0.00738 0.79619 0.36386 0.0
H1160 H 0.02406 0.76353 0.40455 0.0
C1161 C 0.03914 0.80708 0.35546 0.0
C1162 C 0.06548 0.80203 0.36456 0.0
H1163 H 0.98751 0.80019 0.3564 0.0
H1164 H 0.0428 0.81899 0.3417 0.0
C1165 C 0.05959 0.78663 0.38251 0.0
C1166 C 0.2149 0.21546 0.36339 0.0
C1167 C 0.24674 0.23385 0.37572 0.0
H1168 H 0.17403 0.21821 0.34643 0.0
C1169 C 0.26172 0.27004 0.38051 0.0
H1170 H 0.2029 0.18756 0.35933 0.0
C1171 C 0.24529 0.28752 0.37318 0.0
C1172 C 0.21351 0.26927 0.36079 0.0
H1173 H 0.28599 0.28483 0.39018 0.0
H1174 H 0.25763 0.31545 0.37727 0.0
C1175 C 0.19849 0.23303 0.35593 0.0
C1176 C 0.69747 0.58761 0.7215 0.0
C1177 C 0.68078 0.55118 0.71703 0.0
H1178 H 0.73726 0.63782 0.7149 0.0
C1179 C 0.6906 0.53757 0.70086 0.0
H1180 H 0.69014 0.5989 0.73366 0.0
C1181 C 0.71772 0.55993 0.68999 0.0
C1182 C 0.73547 0.59633 0.69507 0.0
H1183 H 0.67839 0.50957 0.69714 0.0
H1184 H 0.72559 0.54861 0.67812 0.0
C1185 C 0.72441 0.60991 0.71064 0.0
C1186 C 0.44671 0.12607 0.6975 0.0
C1187 C 0.44228 0.1127 0.71602 0.0
H1188 H 0.42787 0.14665 0.67526 0.0
C1189 C 0.41476 0.11042 0.72657 0.0
H1190 H 0.4678 0.12825 0.68909 0.0
C1191 C 0.3916 0.12045 0.71855 0.0
C1192 C 0.3958 0.13353 0.69994 0.0
H1193 H 0.41053 0.09994 0.74079 0.0
H1194 H 0.37036 0.1179 0.72695 0.0
C1195 C 0.42391 0.13669 0.68963 0.0
C1196 C 0.90202 0.31743 0.72237 0.0
C1197 C 0.90101 0.3421 0.71081 0.0
H1198 H 0.88598 0.26358 0.72428 0.0
C1199 C 0.88066 0.33064 0.69237 0.0
H1200 H 0.91761 0.3257 0.73662 0.0
C1201 C 0.86213 0.2951 0.68543 0.0
C1202 C 0.86419 0.27054 0.69666 0.0
H1203 H 0.87927 0.34923 0.68329 0.0
H1204 H 0.84723 0.28706 0.67097 0.0
C1205 C 0.88401 0.28197 0.71529 0.0
C1206 C 0.21141 0.00034 0.6514 0.0
C1207 C 0.21925 0.98817 0.63389 0.0
H1208 H 0.22416 0.04417 0.67223 0.0
C1209 C 0.24611 0.01215 0.6234 0.0
H1210 H 0.19059 0.98238 0.65965 0.0
C1211 C 0.26564 0.04757 0.63068 0.0
C1212 C 0.2582 0.05966 0.6484 0.0
H1213 H 0.25268 0.00332 0.60988 0.0
H1214 H 0.28676 0.06539 0.62254 0.0
C1215 C 0.2305 0.03575 0.6585 0.0
C1216 C 0.96125 0.2295 0.62224 0.0
C1217 C 0.9864 0.22148 0.62985 0.0
H1218 H 0.91154 0.22596 0.62468 0.0
C1219 C 0.97897 0.20185 0.64627 0.0
H1220 H 0.96564 0.24392 0.60939 0.0
C1221 C 0.9475 0.19118 0.65506 0.0
C1222 C 0.92281 0.2 0.64766 0.0
H1223 H 0.99784 0.19544 0.65266 0.0
H1224 H 0.94278 0.17645 0.66779 0.0
C1225 C 0.93004 0.21904 0.63103 0.0
C1226 C 0.82948 0.79825 0.64778 0.0
C1227 C 0.81078 0.78862 0.62886 0.0
H1228 H 0.84652 0.78139 0.67277 0.0
C1229 C 0.79233 0.75323 0.62125 0.0
H1230 H 0.84411 0.82543 0.65393 0.0
C1231 C 0.79355 0.72805 0.63201 0.0
C1232 C 0.81349 0.73778 0.65057 0.0
H1233 H 0.77739 0.74508 0.6068 0.0
H1234 H 0.77977 0.70111 0.62543 0.0
C1235 C 0.83096 0.77306 0.65851 0.0
C1236 C 0.96282 0.73941 0.62414 0.0
C1237 C 0.99393 0.76034 0.63668 0.0
H1238 H 0.90717 0.70545 0.62183 0.0
C1239 C 0.99199 0.76317 0.65729 0.0
H1240 H 0.96341 0.73698 0.6082 0.0
C1241 C 0.95964 0.74502 0.66519 0.0
C1242 C 0.92854 0.7239 0.65262 0.0
H1243 H 0.0156 0.77886 0.66735 0.0
H1244 H 0.95908 0.74742 0.68113 0.0
C1245 C 0.93053 0.72152 0.63199 0.0
C1246 C 0.23204 0.20572 0.62134 0.0
C1247 C 0.21324 0.21597 0.63357 0.0
H1248 H 0.26818 0.18673 0.61971 0.0
C1249 C 0.21588 0.21324 0.65404 0.0
H1250 H 0.23088 0.20778 0.60554 0.0
C1251 C 0.23746 0.20152 0.66217 0.0
C1252 C 0.25688 0.19203 0.65005 0.0
H1253 H 0.20129 0.22025 0.66386 0.0
H1254 H 0.23901 0.20012 0.67804 0.0
C1255 C 0.2536 0.19385 0.62949 0.0
C1256 C 0.81219 0.02216 0.64423 0.0
C1257 C 0.80655 0.01554 0.62346 0.0
H1258 H 0.81751 0.05605 0.66974 0.0
C1259 C 0.80006 0.03775 0.61238 0.0
H1260 H 0.81701 0.00521 0.65307 0.0
C1261 C 0.80064 0.06695 0.62185 0.0
C1262 C 0.80725 0.07418 0.64259 0.0
H1263 H 0.79588 0.03331 0.59634 0.0
H1264 H 0.79659 0.08422 0.61288 0.0
C1265 C 0.81226 0.05109 0.65374 0.0
C1266 C 0.45589 0.31191 0.70545 0.0
C1267 C 0.45737 0.31937 0.72602 0.0
H1268 H 0.42753 0.27611 0.67965 0.0
C1269 C 0.42982 0.29605 0.73638 0.0
H1270 H 0.4767 0.32963 0.69711 0.0
C1271 C 0.40183 0.26525 0.72645 0.0
C1272 C 0.40058 0.25746 0.70591 0.0
H1273 H 0.43047 0.30111 0.75228 0.0
H1274 H 0.38138 0.24742 0.73492 0.0
C1275 C 0.42764 0.28138 0.69546 0.0
C1276 C 0.66724 0.11087 0.69316 0.0
C1277 C 0.66699 0.11201 0.71392 0.0
H1278 H 0.69787 0.12177 0.66836 0.0
C1279 C 0.69931 0.12691 0.72572 0.0
H1280 H 0.6429 0.1001 0.68361 0.0
C1281 C 0.73095 0.13946 0.71696 0.0
C1282 C 0.73108 0.13757 0.69617 0.0
H1283 H 0.70011 0.12798 0.74174 0.0
H1284 H 0.75524 0.15015 0.72654 0.0
C1285 C 0.69884 0.12349 0.6844 0.0
C1286 C 0.88811 0.57964 0.72123 0.0
C1287 C 0.8999 0.56294 0.70802 0.0
H1288 H 0.86227 0.60923 0.72474 0.0
C1289 C 0.89296 0.56236 0.6875 0.0
H1290 H 0.89266 0.58005 0.73712 0.0
C1291 C 0.87552 0.57913 0.68034 0.0
C1292 C 0.86447 0.59657 0.69357 0.0
H1293 H 0.90193 0.54981 0.67698 0.0
H1294 H 0.87136 0.579 0.66445 0.0
C1295 C 0.87047 0.59614 0.71409 0.0
C1296 C 0.46727 -0.00122 0.17331 0.0
C1297 C 0.47869 0.97691 0.18092 0.0
H1298 H 0.46659 0.0276 0.14926 0.0
C1299 C 0.49695 0.96567 0.16888 0.0
H1300 H 0.4536 0.00841 0.18221 0.0
C1301 C 0.50473 0.97702 0.15008 0.0
C1302 C 0.49422 -0.00031 0.14274 0.0
H1303 H 0.50555 0.94828 0.17404 0.0
H1304 H 0.51911 0.96811 0.14128 0.0
C1305 C 0.47485 0.00994 0.15443 0.0
C1306 C 0.03075 0.49183 0.16624 0.0
C1307 C 0.05212 0.52649 0.17492 0.0
H1308 H 0.99476 0.45778 0.14166 0.0
C1309 C 0.05105 0.55359 0.16579 0.0
H1310 H 0.03122 0.47041 0.1728 0.0
C1311 C 0.03026 0.54636 0.14794 0.0
C1312 C 0.00995 0.51187 0.13889 0.0
H1313 H 0.06663 0.58049 0.17233 0.0
H1314 H 0.03045 0.56783 0.14107 0.0
C1315 C 0.00983 0.48458 0.14841 0.0
C1316 C 0.52078 0.49694 0.17709 0.0
C1317 C 0.48818 0.49229 0.18189 0.0
H1318 H 0.55357 0.50054 0.1542 0.0
C1319 C 0.46318 0.48776 0.16649 0.0
H1320 H 0.54089 0.50124 0.18864 0.0
C1321 C 0.47043 0.48728 0.14669 0.0
C1322 C 0.50289 0.49145 0.14189 0.0
H1323 H 0.43773 0.48385 0.16972 0.0
H1324 H 0.45029 0.48283 0.13513 0.0
C1325 C 0.52806 0.49657 0.15735 0.0
C1326 C 1.00298 0.52743 0.84175 0.0
C1327 C 0.00854 0.50549 0.8284 0.0
H1328 H 1.00278 0.54361 0.87216 0.0
C1329 C 0.01822 0.48235 0.83594 0.0
H1330 H 0.99568 0.54566 0.83639 0.0
C1331 C 0.02235 0.48123 0.85637 0.0
C1332 C 0.01703 0.50332 0.86974 0.0
H1333 H 0.02227 0.46481 0.82602 0.0
H1334 H 0.03022 0.46339 0.8617 0.0
C1335 C 0.0073 0.52645 0.86222 0.0
C1336 C 0.56308 0.51137 0.86122 0.0
C1337 C 0.54132 0.49848 0.84325 0.0
H1338 H 0.56828 0.52817 0.89204 0.0
C1339 C 0.50745 0.49422 0.84269 0.0
H1340 H 0.58953 0.51549 0.86201 0.0
C1341 C 0.49498 0.50104 0.86001 0.0
C1342 C 0.51626 0.51249 0.87821 0.0
H1343 H 0.49003 0.48411 0.82905 0.0
H1344 H 0.46819 0.49591 0.85929 0.0
C1345 C 0.5508 0.51848 0.87844 0.0
C1346 C 0.49691 0.03341 0.8495 0.0
C1347 C 0.51403 0.022 0.83663 0.0
H1348 H 0.4762 0.03035 0.87763 0.0
C1349 C 0.5247 -0.00104 0.84322 0.0
H1350 H 0.48859 0.05137 0.84499 0.0
C1351 C 0.51767 0.98696 0.86196 0.0
C1352 C 0.49992 -0.0022 0.87467 0.0
H1353 H 0.53762 0.98934 0.83366 0.0
H1354 H 0.52609 0.96907 0.86647 0.0
C1355 C 0.49005 0.02156 0.8683 0.0
C1356 C 0.18735 0.33923 0.5097 0.0
C1357 C 0.15389 0.31171 0.51286 0.0
H1358 H 0.22039 0.37268 0.48924 0.0
C1359 C 0.12781 0.29618 0.49667 0.0
H1360 H 0.2079 0.35236 0.52187 0.0
C1361 C 0.13502 0.30793 0.47787 0.0
C1362 C 0.16848 0.33556 0.47476 0.0
H1363 H 0.10189 0.27468 0.49847 0.0
H1364 H 0.11443 0.29507 0.4657 0.0
C1365 C 0.19454 0.35096 0.49094 0.0
C1366 C 0.73466 0.84277 0.485 0.0
C1367 C 0.72186 0.84324 0.50345 0.0
H1368 H 0.72312 0.83213 0.45355 0.0
C1369 C 0.68573 0.83094 0.50409 0.0
H1370 H 0.76225 0.85163 0.48402 0.0
C1371 C 0.66306 0.81919 0.48656 0.0
C1372 C 0.67607 0.81941 0.46808 0.0
H1373 H 0.67511 0.8312 0.51808 0.0
H1374 H 0.63541 0.81013 0.48748 0.0
C1375 C 0.71208 0.83109 0.46753 0.0
C1376 C 0.18662 0.8492 0.51151 0.0
C1377 C 0.15446 0.82423 0.51778 0.0
H1378 H 0.21762 0.8683 0.48718 0.0
C1379 C 0.12785 0.79948 0.5035 0.0
H1380 H 0.20748 0.86887 0.52213 0.0
C1381 C 0.13365 0.79921 0.48343 0.0
C1382 C 0.16603 0.82391 0.47722 0.0
H1383 H 0.10285 0.77985 0.50791 0.0
H1384 H 0.1128 0.77965 0.47277 0.0
C1385 C 0.1923 0.84911 0.49146 0.0
C1386 C 0.67704 0.87249 0.1767 0.0
C1387 C 0.67853 0.84641 0.1646 0.0
H1388 H 0.68097 0.89487 0.20631 0.0
C1389 C 0.68481 0.82206 0.17357 0.0
H1390 H 0.67244 0.8917 0.17019 0.0
C1391 C 0.6896 0.82381 0.19422 0.0
C1392 C 0.68855 0.85016 0.20631 0.0
H1393 H 0.68575 0.80147 0.16461 0.0
H1394 H 0.69472 0.80491 0.20072 0.0
C1395 C 0.68218 0.87445 0.19735 0.0
C1396 C 0.20098 0.83628 0.18005 0.0
C1397 C 0.19542 0.80292 0.17369 0.0
H1398 H 0.1926 0.86769 0.20199 0.0
C1399 C 0.17454 0.77475 0.1844 0.0
H1400 H 0.21712 0.85858 0.17222 0.0
C1401 C 0.16052 0.77994 0.20139 0.0
C1402 C 0.16693 0.81344 0.20814 0.0
H1403 H 0.16903 0.74855 0.17965 0.0
H1404 H 0.14468 0.75764 0.20931 0.0
C1405 C 0.18689 0.84148 0.1971 0.0
C1406 C 0.15114 0.29788 0.17069 0.0
C1407 C 0.17572 0.33273 0.16795 0.0
H1408 H 0.12578 0.2601 0.19107 0.0
C1409 C 0.1953 0.35605 0.18486 0.0
H1410 H 0.13599 0.27886 0.15809 0.0
C1411 C 0.18997 0.34497 0.20392 0.0
C1412 C 0.1648 0.31027 0.20665 0.0
H1413 H 0.21432 0.38312 0.18344 0.0
H1414 H 0.20568 0.3637 0.21652 0.0
C1415 C 0.14565 0.28689 0.1897 0.0
C1416 C 0.79281 0.65585 0.83875 0.0
C1417 C 0.80935 0.63937 0.84783 0.0
H1418 H 0.78723 0.67977 0.8134 0.0
C1419 C 0.83292 0.63361 0.83722 0.0
H1420 H 0.77398 0.66014 0.84623 0.0
C1421 C 0.84027 0.64463 0.81829 0.0
C1422 C 0.82443 0.66192 0.8095 0.0
H1423 H 0.84663 0.62154 0.84378 0.0
H1424 H 0.85919 0.64053 0.81078 0.0
C1425 C 0.80036 0.66709 0.81989 0.0
C1426 C 0.36028 0.15186 0.83396 0.0
C1427 C 0.37783 0.18634 0.84321 0.0
H1428 H 0.32651 0.11678 0.80898 0.0
C1429 C 0.37133 0.21128 0.83527 0.0
H1430 H 0.36492 0.13216 0.83976 0.0
C1431 C 0.34924 0.20247 0.81782 0.0
C1432 C 0.3333 0.16856 0.80787 0.0
H1433 H 0.38393 0.23786 0.84236 0.0
H1434 H 0.34538 0.2225 0.81179 0.0
C1435 C 0.33822 0.14305 0.8164 0.0
C1436 C 0.82501 0.18289 0.83387 0.0
C1437 C 0.81183 0.15281 0.84402 0.0
H1438 H 0.84262 0.20527 0.80681 0.0
C1439 C 0.80437 0.121 0.83367 0.0
H1440 H 0.8307 0.20773 0.84137 0.0
C1441 C 0.81106 0.11956 0.81383 0.0
C1442 C 0.82522 0.14986 0.80386 0.0
H1443 H 0.79446 0.09743 0.8411 0.0
H1444 H 0.80539 0.09472 0.80633 0.0
C1445 C 0.83157 0.18142 0.81402 0.0
C1446 C 0.35365 0.20384 0.51033 0.0
C1447 C 0.33585 0.17086 0.4992 0.0
H1448 H 0.37351 0.23235 0.53914 0.0
C1449 C 0.32328 0.14065 0.50919 0.0
H1450 H 0.36386 0.22759 0.50306 0.0
C1451 C 0.32896 0.14337 0.52984 0.0
C1452 C 0.34752 0.17637 0.54092 0.0
H1453 H 0.30913 0.11487 0.50101 0.0
H1454 H 0.3196 0.11966 0.53708 0.0
C1455 C 0.35949 0.20656 0.53096 0.0
C1456 C 0.89698 0.18997 0.5244 0.0
C1457 C 0.87396 0.16879 0.50777 0.0
H1458 H 0.90236 0.21268 0.55408 0.0
C1459 C 0.83772 0.1562 0.50813 0.0
H1460 H 0.92509 0.20063 0.52446 0.0
C1461 C 0.82464 0.16308 0.52515 0.0
C1462 C 0.84755 0.18268 0.54216 0.0
H1463 H 0.81926 0.13955 0.49563 0.0
H1464 H 0.79646 0.15158 0.52531 0.0
C1465 C 0.88394 0.19685 0.54137 0.0
C1466 C 0.86781 0.69553 0.51624 0.0
C1467 C 0.84036 0.68692 0.50143 0.0
H1468 H 0.88222 0.69092 0.54613 0.0
C1469 C 0.80542 0.66666 0.50598 0.0
H1470 H 0.89499 0.7112 0.51325 0.0
C1471 C 0.7981 0.65488 0.52474 0.0
C1472 C 0.82553 0.66338 0.53953 0.0
H1473 H 0.78365 0.65924 0.49486 0.0
H1474 H 0.7709 0.6392 0.52771 0.0
C1475 C 0.86048 0.68411 0.53511 0.0
loop_
_geom_bond_atom_site_label_1
_geom_bond_atom_site_label_2
_geom_bond_distance
_geom_bond_site_symmetry_2
_ccdc_geom_bond_type
P0 O11 1.490 . S
P0 C14 1.812 . S
P0 C20 1.803 . S
P0 C26 1.819 . S
H1 C15 0.941 . S
H2 C16 0.939 . S
H3 C18 0.940 . S
H4 C19 0.940 . S
H5 C21 0.939 . S
H6 C22 0.942 . S
H7 C24 0.940 . S
H8 C25 0.939 . S
H9 C27 0.941 . S
H10 C31 0.939 . S
O11 P0 1.490 . S
H12 C28 0.939 . S
H13 C30 0.940 . S
C14 P0 1.812 . S
C14 C15 1.389 . S
C14 C19 1.391 . S
C15 H1 0.941 . S
C15 C14 1.389 . S
C15 C16 1.397 . S
C16 H2 0.939 . S
C16 C15 1.397 . S
C16 C17 1.378 . S
C17 C16 1.378 . S
C17 C18 1.378 . S
C18 H3 0.940 . S
C18 C17 1.378 . S
C18 C19 1.396 . S
C19 H4 0.940 . S
C19 C14 1.391 . S
C19 C18 1.396 . S
C20 P0 1.803 . S
C20 C21 1.378 . S
C20 C25 1.400 . S
C21 H5 0.939 . S
C21 C20 1.378 . S
C21 C22 1.361 . S
C22 H6 0.942 . S
C22 C21 1.361 . S
C22 C23 1.369 . S
C23 C22 1.369 . S
C23 C24 1.404 . S
C24 H7 0.940 . S
C24 C23 1.404 . S
C24 C25 1.389 . S
C25 H8 0.939 . S
C25 C20 1.400 . S
C25 C24 1.389 . S
C26 P0 1.819 . S
C26 C27 1.391 . S
C26 C31 1.391 . S
C27 H9 0.941 . S
C27 C26 1.391 . S
C27 C28 1.396 . S
C28 H12 0.939 . S
C28 C27 1.396 . S
C28 C29 1.397 . S
C29 C28 1.397 . S
C29 C30 1.385 . S
C30 H13 0.940 . S
C30 C29 1.385 . S
C30 C31 1.388 . S
C31 H10 0.939 . S
C31 C26 1.391 . S
C31 C30 1.388 . S
P32 O43 1.490 . S
P32 C46 1.812 . S
P32 C52 1.803 . S
P32 C58 1.819 . S
H33 C47 0.941 . S
H34 C48 0.939 . S
H35 C50 0.940 . S
H36 C51 0.940 . S
H37 C53 0.939 . S
H38 C54 0.942 1_455 S
H39 C56 0.940 . S
H40 C57 0.939 . S
H41 C59 0.941 . S
H42 C63 0.939 . S
O43 P32 1.490 . S
H44 C60 0.939 . S
H45 C62 0.940 . S
C46 P32 1.812 . S
C46 C47 1.389 . S
C46 C51 1.391 . S
C47 H33 0.941 . S
C47 C46 1.389 . S
C47 C48 1.397 . S
C48 H34 0.939 . S
C48 C47 1.397 . S
C48 C49 1.378 . S
C49 C48 1.378 . S
C49 C50 1.378 . S
C50 H35 0.940 . S
C50 C49 1.378 . S
C50 C51 1.396 . S
C51 H36 0.940 . S
C51 C46 1.391 . S
C51 C50 1.396 . S
C52 P32 1.803 . S
C52 C53 1.378 . S
C52 C57 1.400 . S
C53 H37 0.939 . S
C53 C52 1.378 . S
C53 C54 1.361 . S
C54 H38 0.942 1_655 S
C54 C53 1.361 . S
C54 C55 1.369 . S
C55 C54 1.369 . S
C55 C56 1.404 . S
C56 H39 0.940 . S
C56 C55 1.404 . S
C56 C57 1.389 . S
C57 H40 0.939 . S
C57 C52 1.400 . S
C57 C56 1.389 . S
C58 P32 1.819 . S
C58 C59 1.391 . S
C58 C63 1.391 . S
C59 H41 0.941 . S
C59 C58 1.391 . S
C59 C60 1.396 . S
C60 H44 0.939 . S
C60 C59 1.396 . S
C60 C61 1.397 . S
C61 C60 1.397 . S
C61 C62 1.385 . S
C62 H45 0.940 . S
C62 C61 1.385 . S
C62 C63 1.388 . S
C63 H42 0.939 . S
C63 C58 1.391 . S
C63 C62 1.388 . S
P64 O75 1.490 . S
P64 C78 1.812 . S
P64 C84 1.803 . S
P64 C90 1.819 . S
H65 C79 0.941 . S
H66 C80 0.939 . S
H67 C82 0.940 . S
H68 C83 0.940 . S
H69 C85 0.939 . S
H70 C86 0.942 . S
H71 C88 0.940 . S
H72 C89 0.939 . S
H73 C91 0.941 . S
H74 C95 0.939 . S
O75 P64 1.490 . S
H76 C92 0.939 . S
H77 C94 0.940 . S
C78 P64 1.812 . S
C78 C79 1.389 . S
C78 C83 1.391 . S
C79 H65 0.941 . S
C79 C78 1.389 . S
C79 C80 1.397 . S
C80 H66 0.939 . S
C80 C79 1.397 . S
C80 C81 1.378 . S
C81 C80 1.378 . S
C81 C82 1.378 . S
C82 H67 0.940 . S
C82 C81 1.378 . S
C82 C83 1.396 . S
C83 H68 0.940 . S
C83 C78 1.391 . S
C83 C82 1.396 . S
C84 P64 1.803 . S
C84 C85 1.378 . S
C84 C89 1.400 . S
C85 H69 0.939 . S
C85 C84 1.378 . S
C85 C86 1.361 . S
C86 H70 0.942 . S
C86 C85 1.361 . S
C86 C87 1.369 . S
C87 C86 1.369 . S
C87 C88 1.404 . S
C88 H71 0.940 . S
C88 C87 1.404 . S
C88 C89 1.389 . S
C89 H72 0.939 . S
C89 C84 1.400 . S
C89 C88 1.389 . S
C90 P64 1.819 . S
C90 C91 1.391 . S
C90 C95 1.391 . S
C91 H73 0.941 . S
C91 C90 1.391 . S
C91 C92 1.396 . S
C92 H76 0.939 . S
C92 C91 1.396 . S
C92 C93 1.397 . S
C93 C92 1.397 . S
C93 C94 1.385 . S
C94 H77 0.940 . S
C94 C93 1.385 . S
C94 C95 1.388 . S
C95 H74 0.939 . S
C95 C90 1.391 . S
C95 C94 1.388 . S
P96 O107 1.490 . S
P96 C110 1.812 . S
P96 C116 1.803 . S
P96 C122 1.819 . S
H97 C111 0.941 . S
H98 C112 0.939 . S
H99 C114 0.940 . S
H100 C115 0.940 . S
H101 C117 0.939 . S
H102 C118 0.942 . S
H103 C120 0.940 . S
H104 C121 0.939 . S
H105 C123 0.941 . S
H106 C127 0.939 . S
O107 P96 1.490 . S
H108 C124 0.939 . S
H109 C126 0.940 . S
C110 P96 1.812 . S
C110 C111 1.389 . S
C110 C115 1.391 . S
C111 H97 0.941 . S
C111 C110 1.389 . S
C111 C112 1.397 . S
C112 H98 0.939 . S
C112 C111 1.397 . S
C112 C113 1.378 . S
C113 C112 1.378 . S
C113 C114 1.378 . S
C114 H99 0.940 . S
C114 C113 1.378 . S
C114 C115 1.396 . S
C115 H100 0.940 . S
C115 C110 1.391 . S
C115 C114 1.396 . S
C116 P96 1.803 . S
C116 C117 1.378 . S
C116 C121 1.400 . S
C117 H101 0.939 . S
C117 C116 1.378 . S
C117 C118 1.361 . S
C118 H102 0.942 . S
C118 C117 1.361 . S
C118 C119 1.369 . S
C119 C118 1.369 . S
C119 C120 1.404 . S
C120 H103 0.940 . S
C120 C119 1.404 . S
C120 C121 1.389 . S
C121 H104 0.939 . S
C121 C116 1.400 . S
C121 C120 1.389 . S
C122 P96 1.819 . S
C122 C123 1.391 . S
C122 C127 1.391 . S
C123 H105 0.941 . S
C123 C122 1.391 . S
C123 C124 1.396 . S
C124 H108 0.939 . S
C124 C123 1.396 . S
C124 C125 1.397 . S
C125 C124 1.397 . S
C125 C126 1.385 . S
C126 H109 0.940 . S
C126 C125 1.385 . S
C126 C127 1.388 . S
C127 H106 0.939 . S
C127 C122 1.391 . S
C127 C126 1.388 . S
P128 O139 1.490 . S
P128 C142 1.812 . S
P128 C148 1.803 . S
P128 C154 1.819 . S
H129 C143 0.941 . S
H130 C144 0.939 . S
H131 C146 0.940 . S
H132 C147 0.940 . S
H133 C149 0.939 . S
H134 C150 0.942 . S
H135 C152 0.940 . S
H136 C153 0.939 . S
H137 C155 0.941 . S
H138 C159 0.939 . S
O139 P128 1.490 . S
H140 C156 0.939 . S
H141 C158 0.940 . S
C142 P128 1.812 . S
C142 C143 1.389 . S
C142 C147 1.391 . S
C143 H129 0.941 . S
C143 C142 1.389 . S
C143 C144 1.397 . S
C144 H130 0.939 . S
C144 C143 1.397 . S
C144 C145 1.378 . S
C145 C144 1.378 . S
C145 C146 1.378 . S
C146 H131 0.940 . S
C146 C145 1.378 . S
C146 C147 1.396 . S
C147 H132 0.940 . S
C147 C142 1.391 . S
C147 C146 1.396 . S
C148 P128 1.803 . S
C148 C149 1.378 . S
C148 C153 1.400 . S
C149 H133 0.939 . S
C149 C148 1.378 . S
C149 C150 1.361 . S
C150 H134 0.942 . S
C150 C149 1.361 . S
C150 C151 1.369 . S
C151 C150 1.369 . S
C151 C152 1.404 . S
C152 H135 0.940 . S
C152 C151 1.404 . S
C152 C153 1.389 . S
C153 H136 0.939 . S
C153 C148 1.400 . S
C153 C152 1.389 . S
C154 P128 1.819 . S
C154 C155 1.391 . S
C154 C159 1.391 . S
C155 H137 0.941 . S
C155 C154 1.391 . S
C155 C156 1.396 . S
C156 H140 0.939 . S
C156 C155 1.396 . S
C156 C157 1.397 . S
C157 C156 1.397 . S
C157 C158 1.385 . S
C158 H141 0.940 . S
C158 C157 1.385 . S
C158 C159 1.388 . S
C159 H138 0.939 . S
C159 C154 1.391 . S
C159 C158 1.388 . S
P160 O171 1.490 . S
P160 C174 1.812 . S
P160 C180 1.803 . S
P160 C186 1.819 . S
H161 C175 0.941 . S
H162 C176 0.939 . S
H163 C178 0.940 . S
H164 C179 0.940 . S
H165 C181 0.939 . S
H166 C182 0.942 . S
H167 C184 0.940 . S
H168 C185 0.939 . S
H169 C187 0.941 . S
H170 C191 0.939 . S
O171 P160 1.490 . S
H172 C188 0.939 . S
H173 C190 0.940 . S
C174 P160 1.812 . S
C174 C175 1.389 . S
C174 C179 1.391 . S
C175 H161 0.941 . S
C175 C174 1.389 . S
C175 C176 1.397 . S
C176 H162 0.939 . S
C176 C175 1.397 . S
C176 C177 1.378 . S
C177 C176 1.378 . S
C177 C178 1.378 . S
C178 H163 0.940 . S
C178 C177 1.378 . S
C178 C179 1.396 . S
C179 H164 0.940 . S
C179 C174 1.391 . S
C179 C178 1.396 . S
C180 P160 1.803 . S
C180 C181 1.378 . S
C180 C185 1.400 . S
C181 H165 0.939 . S
C181 C180 1.378 . S
C181 C182 1.361 . S
C182 H166 0.942 . S
C182 C181 1.361 . S
C182 C183 1.369 . S
C183 C182 1.369 . S
C183 C184 1.404 . S
C184 H167 0.940 . S
C184 C183 1.404 . S
C184 C185 1.389 . S
C185 H168 0.939 . S
C185 C180 1.400 . S
C185 C184 1.389 . S
C186 P160 1.819 . S
C186 C187 1.391 . S
C186 C191 1.391 . S
C187 H169 0.941 . S
C187 C186 1.391 . S
C187 C188 1.396 . S
C188 H172 0.939 . S
C188 C187 1.396 . S
C188 C189 1.397 . S
C189 C188 1.397 . S
C189 C190 1.385 . S
C190 H173 0.940 . S
C190 C189 1.385 . S
C190 C191 1.388 . S
C191 H170 0.939 . S
C191 C186 1.391 . S
C191 C190 1.388 . S
P192 O203 1.490 . S
P192 C206 1.812 1_455 S
P192 C212 1.803 1_455 S
P192 C218 1.821 . S
H193 C207 0.941 1_455 S
H194 C208 0.939 . S
H195 C210 0.940 . S
H196 C211 0.940 . S
H197 C213 0.930 1_455 S
H198 C214 0.942 . S
H199 C216 0.940 . S
H200 C217 0.939 . S
H201 C219 0.941 . S
H202 C223 0.939 . S
O203 P192 1.490 . S
H204 C220 0.939 . S
H205 C222 0.940 . S
C206 P192 1.812 1_655 S
C206 C207 1.389 . S
C206 C211 1.391 . S
C207 H193 0.941 1_655 S
C207 C206 1.389 . S
C207 C208 1.397 . S
C208 H194 0.939 . S
C208 C207 1.397 . S
C208 C209 1.378 . S
C209 C208 1.378 . S
C209 C210 1.378 . S
C210 H195 0.940 . S
C210 C209 1.378 . S
C210 C211 1.396 . S
C211 H196 0.940 . S
C211 C206 1.391 . S
C211 C210 1.396 . S
C212 P192 1.803 1_655 S
C212 C213 1.379 . S
C212 C217 1.400 . S
C213 H197 0.930 1_655 S
C213 C212 1.379 . S
C213 C214 1.369 . S
C214 H198 0.942 . S
C214 C213 1.369 . S
C214 C215 1.369 . S
C215 C214 1.369 . S
C215 C216 1.404 . S
C216 H199 0.940 . S
C216 C215 1.404 . S
C216 C217 1.389 . S
C217 H200 0.939 . S
C217 C212 1.400 . S
C217 C216 1.389 . S
C218 P192 1.821 . S
C218 C219 1.401 . S
C218 C223 1.380 1_455 S
C219 H201 0.941 . S
C219 C218 1.401 . S
C219 C220 1.396 . S
C220 H204 0.939 . S
C220 C219 1.396 . S
C220 C221 1.397 1_455 S
C221 C220 1.397 1_655 S
C221 C222 1.385 . S
C222 H205 0.940 . S
C222 C221 1.385 . S
C222 C223 1.388 . S
C223 H202 0.939 . S
C223 C218 1.380 1_655 S
C223 C222 1.388 . S
P224 O235 1.490 . S
P224 C238 1.812 . S
P224 C244 1.803 . S
P224 C250 1.819 . S
H225 C239 0.941 . S
H226 C240 0.939 . S
H227 C242 0.940 . S
H228 C243 0.940 . S
H229 C245 0.939 . S
H230 C246 0.942 . S
H231 C248 0.940 . S
H232 C249 0.939 . S
H233 C251 0.941 . S
H234 C255 0.939 . S
O235 P224 1.490 . S
H236 C252 0.939 . S
H237 C254 0.940 . S
C238 P224 1.812 . S
C238 C239 1.389 . S
C238 C243 1.391 . S
C239 H225 0.941 . S
C239 C238 1.389 . S
C239 C240 1.397 . S
C240 H226 0.939 . S
C240 C239 1.397 . S
C240 C241 1.378 . S
C241 C240 1.378 . S
C241 C242 1.378 . S
C242 H227 0.940 . S
C242 C241 1.378 . S
C242 C243 1.396 . S
C243 H228 0.940 . S
C243 C238 1.391 . S
C243 C242 1.396 . S
C244 P224 1.803 . S
C244 C245 1.378 . S
C244 C249 1.400 . S
C245 H229 0.939 . S
C245 C244 1.378 . S
C245 C246 1.361 . S
C246 H230 0.942 . S
C246 C245 1.361 . S
C246 C247 1.369 . S
C247 C246 1.369 . S
C247 C248 1.404 . S
C248 H231 0.940 . S
C248 C247 1.404 . S
C248 C249 1.389 . S
C249 H232 0.939 . S
C249 C244 1.400 . S
C249 C248 1.389 . S
C250 P224 1.819 . S
C250 C251 1.391 . S
C250 C255 1.391 . S
C251 H233 0.941 . S
C251 C250 1.391 . S
C251 C252 1.396 . S
C252 H236 0.939 . S
C252 C251 1.396 . S
C252 C253 1.397 . S
C253 C252 1.397 . S
C253 C254 1.385 . S
C254 H237 0.940 . S
C254 C253 1.385 . S
C254 C255 1.388 . S
C255 H234 0.939 . S
C255 C250 1.391 . S
C255 C254 1.388 . S
P256 O267 1.490 1_545 S
P256 C270 1.812 . S
P256 C276 1.803 . S
P256 C282 1.819 . S
H257 C271 0.941 . S
H258 C272 0.939 . S
H259 C274 0.940 . S
H260 C275 0.940 . S
H261 C277 0.939 . S
H262 C278 0.942 . S
H263 C280 0.940 . S
H264 C281 0.939 . S
H265 C283 0.941 1_565 S
H266 C287 0.939 . S
O267 P256 1.490 1_565 S
H268 C284 0.939 . S
H269 C286 0.940 . S
C270 P256 1.812 . S
C270 C271 1.389 . S
C270 C275 1.391 . S
C271 H257 0.941 . S
C271 C270 1.389 . S
C271 C272 1.397 . S
C272 H258 0.939 . S
C272 C271 1.397 . S
C272 C273 1.378 . S
C273 C272 1.378 . S
C273 C274 1.378 . S
C274 H259 0.940 . S
C274 C273 1.378 . S
C274 C275 1.396 . S
C275 H260 0.940 . S
C275 C270 1.391 . S
C275 C274 1.396 . S
C276 P256 1.803 . S
C276 C277 1.378 . S
C276 C281 1.400 . S
C277 H261 0.939 . S
C277 C276 1.378 . S
C277 C278 1.361 . S
C278 H262 0.942 . S
C278 C277 1.361 . S
C278 C279 1.369 . S
C279 C278 1.369 . S
C279 C280 1.404 . S
C280 H263 0.940 . S
C280 C279 1.404 . S
C280 C281 1.389 . S
C281 H264 0.939 . S
C281 C276 1.400 . S
C281 C280 1.389 . S
C282 P256 1.819 . S
C282 C283 1.391 . S
C282 C287 1.391 . S
C283 H265 0.941 1_545 S
C283 C282 1.391 . S
C283 C284 1.396 . S
C284 H268 0.939 . S
C284 C283 1.396 . S
C284 C285 1.397 . S
C285 C284 1.397 . S
C285 C286 1.385 . S
C286 H269 0.940 . S
C286 C285 1.385 . S
C286 C287 1.388 . S
C287 H266 0.939 . S
C287 C282 1.391 . S
C287 C286 1.388 . S
P288 O299 1.490 . S
P288 C302 1.812 . S
P288 C308 1.803 . S
P288 C314 1.819 . S
H289 C303 0.941 . S
H290 C304 0.939 . S
H291 C306 0.940 . S
H292 C307 0.940 . S
H293 C309 0.939 . S
H294 C310 0.942 . S
H295 C312 0.940 . S
H296 C313 0.939 . S
H297 C315 0.941 . S
H298 C319 0.939 . S
O299 P288 1.490 . S
H300 C316 0.939 . S
H301 C318 0.940 . S
C302 P288 1.812 . S
C302 C303 1.389 . S
C302 C307 1.391 . S
C303 H289 0.941 . S
C303 C302 1.389 . S
C303 C304 1.397 . S
C304 H290 0.939 . S
C304 C303 1.397 . S
C304 C305 1.378 . S
C305 C304 1.378 . S
C305 C306 1.378 . S
C306 H291 0.940 . S
C306 C305 1.378 . S
C306 C307 1.396 . S
C307 H292 0.940 . S
C307 C302 1.391 . S
C307 C306 1.396 . S
C308 P288 1.803 . S
C308 C309 1.378 . S
C308 C313 1.400 . S
C309 H293 0.939 . S
C309 C308 1.378 . S
C309 C310 1.361 . S
C310 H294 0.942 . S
C310 C309 1.361 . S
C310 C311 1.369 . S
C311 C310 1.369 . S
C311 C312 1.404 . S
C312 H295 0.940 . S
C312 C311 1.404 . S
C312 C313 1.389 . S
C313 H296 0.939 . S
C313 C308 1.400 . S
C313 C312 1.389 . S
C314 P288 1.819 . S
C314 C315 1.391 . S
C314 C319 1.391 . S
C315 H297 0.941 . S
C315 C314 1.391 . S
C315 C316 1.396 . S
C316 H300 0.939 . S
C316 C315 1.396 . S
C316 C317 1.397 . S
C317 C316 1.397 . S
C317 C318 1.385 . S
C318 H301 0.940 . S
C318 C317 1.385 . S
C318 C319 1.388 . S
C319 H298 0.939 . S
C319 C314 1.391 . S
C319 C318 1.388 . S
P320 O331 1.490 . S
P320 C334 1.812 . S
P320 C340 1.803 . S
P320 C346 1.819 . S
H321 C335 0.941 . S
H322 C336 0.939 . S
H323 C338 0.940 . S
H324 C339 0.940 . S
H325 C341 0.939 . S
H326 C342 0.942 . S
H327 C344 0.940 . S
H328 C345 0.939 . S
H329 C347 0.941 . S
H330 C351 0.939 . S
O331 P320 1.490 . S
H332 C348 0.939 . S
H333 C350 0.940 . S
C334 P320 1.812 . S
C334 C335 1.389 . S
C334 C339 1.391 . S
C335 H321 0.941 . S
C335 C334 1.389 . S
C335 C336 1.397 . S
C336 H322 0.939 . S
C336 C335 1.397 . S
C336 C337 1.378 . S
C337 C336 1.378 . S
C337 C338 1.378 . S
C338 H323 0.940 . S
C338 C337 1.378 . S
C338 C339 1.396 . S
C339 H324 0.940 . S
C339 C334 1.391 . S
C339 C338 1.396 . S
C340 P320 1.803 . S
C340 C341 1.378 . S
C340 C345 1.400 . S
C341 H325 0.939 . S
C341 C340 1.378 . S
C341 C342 1.361 . S
C342 H326 0.942 . S
C342 C341 1.361 . S
C342 C343 1.369 . S
C343 C342 1.369 . S
C343 C344 1.404 . S
C344 H327 0.940 . S
C344 C343 1.404 . S
C344 C345 1.389 . S
C345 H328 0.939 . S
C345 C340 1.400 . S
C345 C344 1.389 . S
C346 P320 1.819 . S
C346 C347 1.391 . S
C346 C351 1.391 . S
C347 H329 0.941 . S
C347 C346 1.391 . S
C347 C348 1.396 . S
C348 H332 0.939 . S
C348 C347 1.396 . S
C348 C349 1.397 . S
C349 C348 1.397 . S
C349 C350 1.385 . S
C350 H333 0.940 . S
C350 C349 1.385 . S
C350 C351 1.388 . S
C351 H330 0.939 . S
C351 C346 1.391 . S
C351 C350 1.388 . S
P352 O363 1.490 . S
P352 C366 1.812 . S
P352 C372 1.803 . S
P352 C378 1.819 . S
H353 C367 0.941 . S
H354 C368 0.939 . S
H355 C370 0.940 . S
H356 C371 0.940 . S
H357 C373 0.939 . S
H358 C374 0.942 . S
H359 C376 0.940 . S
H360 C377 0.939 . S
H361 C379 0.941 . S
H362 C383 0.939 . S
O363 P352 1.490 . S
H364 C380 0.939 . S
H365 C382 0.940 . S
C366 P352 1.812 . S
C366 C367 1.389 . S
C366 C371 1.391 . S
C367 H353 0.941 . S
C367 C366 1.389 . S
C367 C368 1.397 . S
C368 H354 0.939 . S
C368 C367 1.397 . S
C368 C369 1.378 . S
C369 C368 1.378 . S
C369 C370 1.378 . S
C370 H355 0.940 . S
C370 C369 1.378 . S
C370 C371 1.396 . S
C371 H356 0.940 . S
C371 C366 1.391 . S
C371 C370 1.396 . S
C372 P352 1.803 . S
C372 C373 1.378 . S
C372 C377 1.400 . S
C373 H357 0.939 . S
C373 C372 1.378 . S
C373 C374 1.361 . S
C374 H358 0.942 . S
C374 C373 1.361 . S
C374 C375 1.369 . S
C375 C374 1.369 . S
C375 C376 1.404 . S
C376 H359 0.940 . S
C376 C375 1.404 . S
C376 C377 1.389 . S
C377 H360 0.939 . S
C377 C372 1.400 . S
C377 C376 1.389 . S
C378 P352 1.819 . S
C378 C379 1.391 . S
C378 C383 1.391 . S
C379 H361 0.941 . S
C379 C378 1.391 . S
C379 C380 1.396 . S
C380 H364 0.939 . S
C380 C379 1.396 . S
C380 C381 1.397 . S
C381 C380 1.397 . S
C381 C382 1.385 . S
C382 H365 0.940 . S
C382 C381 1.385 . S
C382 C383 1.388 . S
C383 H362 0.939 . S
C383 C378 1.391 . S
C383 C382 1.388 . S
P384 O395 1.490 . S
P384 C398 1.812 . S
P384 C404 1.803 . S
P384 C410 1.819 . S
H385 C399 0.941 . S
H386 C400 0.939 . S
H387 C402 0.940 . S
H388 C403 0.940 . S
H389 C405 0.939 . S
H390 C406 0.942 . S
H391 C408 0.940 . S
H392 C409 0.939 . S
H393 C411 0.941 . S
H394 C415 0.939 . S
O395 P384 1.490 . S
H396 C412 0.939 . S
H397 C414 0.940 . S
C398 P384 1.812 . S
C398 C399 1.389 . S
C398 C403 1.391 . S
C399 H385 0.941 . S
C399 C398 1.389 . S
C399 C400 1.397 . S
C400 H386 0.939 . S
C400 C399 1.397 . S
C400 C401 1.378 . S
C401 C400 1.378 . S
C401 C402 1.378 . S
C402 H387 0.940 . S
C402 C401 1.378 . S
C402 C403 1.396 . S
C403 H388 0.940 . S
C403 C398 1.391 . S
C403 C402 1.396 . S
C404 P384 1.803 . S
C404 C405 1.378 . S
C404 C409 1.400 . S
C405 H389 0.939 . S
C405 C404 1.378 . S
C405 C406 1.361 . S
C406 H390 0.942 . S
C406 C405 1.361 . S
C406 C407 1.369 . S
C407 C406 1.369 . S
C407 C408 1.404 . S
C408 H391 0.940 . S
C408 C407 1.404 . S
C408 C409 1.389 . S
C409 H392 0.939 . S
C409 C404 1.400 . S
C409 C408 1.389 . S
C410 P384 1.819 . S
C410 C411 1.391 . S
C410 C415 1.391 . S
C411 H393 0.941 . S
C411 C410 1.391 . S
C411 C412 1.396 . S
C412 H396 0.939 . S
C412 C411 1.396 . S
C412 C413 1.397 . S
C413 C412 1.397 . S
C413 C414 1.385 . S
C414 H397 0.940 . S
C414 C413 1.385 . S
C414 C415 1.388 . S
C415 H394 0.939 . S
C415 C410 1.391 . S
C415 C414 1.388 . S
P416 O427 1.490 . S
P416 C430 1.812 . S
P416 C436 1.803 . S
P416 C442 1.819 . S
H417 C431 0.941 . S
H418 C432 0.939 . S
H419 C434 0.940 . S
H420 C435 0.940 . S
H421 C437 0.939 . S
H422 C438 0.942 . S
H423 C440 0.940 . S
H424 C441 0.939 . S
H425 C443 0.941 . S
H426 C447 0.939 . S
O427 P416 1.490 . S
H428 C444 0.939 . S
H429 C446 0.940 . S
C430 P416 1.812 . S
C430 C431 1.389 . S
C430 C435 1.391 . S
C431 H417 0.941 . S
C431 C430 1.389 . S
C431 C432 1.397 . S
C432 H418 0.939 . S
C432 C431 1.397 . S
C432 C433 1.378 . S
C433 C432 1.378 . S
C433 C434 1.378 . S
C434 H419 0.940 . S
C434 C433 1.378 . S
C434 C435 1.396 . S
C435 H420 0.940 . S
C435 C430 1.391 . S
C435 C434 1.396 . S
C436 P416 1.803 . S
C436 C437 1.378 . S
C436 C441 1.400 . S
C437 H421 0.939 . S
C437 C436 1.378 . S
C437 C438 1.361 . S
C438 H422 0.942 . S
C438 C437 1.361 . S
C438 C439 1.369 . S
C439 C438 1.369 . S
C439 C440 1.404 . S
C440 H423 0.940 . S
C440 C439 1.404 . S
C440 C441 1.389 . S
C441 H424 0.939 . S
C441 C436 1.400 . S
C441 C440 1.389 . S
C442 P416 1.819 . S
C442 C443 1.391 . S
C442 C447 1.391 . S
C443 H425 0.941 . S
C443 C442 1.391 . S
C443 C444 1.396 . S
C444 H428 0.939 . S
C444 C443 1.396 . S
C444 C445 1.397 . S
C445 C444 1.397 . S
C445 C446 1.385 . S
C446 H429 0.940 . S
C446 C445 1.385 . S
C446 C447 1.388 . S
C447 H426 0.939 . S
C447 C442 1.391 . S
C447 C446 1.388 . S
P448 O459 1.490 . S
P448 C462 1.812 . S
P448 C468 1.803 . S
P448 C474 1.819 . S
H449 C463 0.941 . S
H450 C464 0.939 . S
H451 C466 0.940 . S
H452 C467 0.940 . S
H453 C469 0.939 . S
H454 C470 0.942 . S
H455 C472 0.940 . S
H456 C473 0.939 . S
H457 C475 0.941 . S
H458 C479 0.939 . S
O459 P448 1.490 . S
H460 C476 0.939 . S
H461 C478 0.940 . S
C462 P448 1.812 . S
C462 C463 1.389 . S
C462 C467 1.391 . S
C463 H449 0.941 . S
C463 C462 1.389 . S
C463 C464 1.397 . S
C464 H450 0.939 . S
C464 C463 1.397 . S
C464 C465 1.378 . S
C465 C464 1.378 . S
C465 C466 1.378 . S
C466 H451 0.940 . S
C466 C465 1.378 . S
C466 C467 1.396 . S
C467 H452 0.940 . S
C467 C462 1.391 . S
C467 C466 1.396 . S
C468 P448 1.803 . S
C468 C469 1.378 . S
C468 C473 1.400 . S
C469 H453 0.939 . S
C469 C468 1.378 . S
C469 C470 1.361 . S
C470 H454 0.942 . S
C470 C469 1.361 . S
C470 C471 1.369 . S
C471 C470 1.369 . S
C471 C472 1.404 . S
C472 H455 0.940 . S
C472 C471 1.404 . S
C472 C473 1.389 . S
C473 H456 0.939 . S
C473 C468 1.400 . S
C473 C472 1.389 . S
C474 P448 1.819 . S
C474 C475 1.391 . S
C474 C479 1.391 . S
C475 H457 0.941 . S
C475 C474 1.391 . S
C475 C476 1.396 . S
C476 H460 0.939 . S
C476 C475 1.396 . S
C476 C477 1.397 . S
C477 C476 1.397 . S
C477 C478 1.385 . S
C478 H461 0.940 . S
C478 C477 1.385 . S
C478 C479 1.388 . S
C479 H458 0.939 . S
C479 C474 1.391 . S
C479 C478 1.388 . S
P480 O491 1.490 1_565 S
P480 C494 1.812 . S
P480 C500 1.803 . S
P480 C506 1.819 . S
H481 C495 0.941 . S
H482 C496 0.939 . S
H483 C498 0.940 . S
H484 C499 0.940 . S
H485 C501 0.939 . S
H486 C502 0.942 . S
H487 C504 0.940 . S
H488 C505 0.939 . S
H489 C507 0.941 1_545 S
H490 C511 0.939 . S
O491 P480 1.490 1_545 S
H492 C508 0.973 . S
H493 C510 0.940 . S
C494 P480 1.812 . S
C494 C495 1.389 . S
C494 C499 1.391 . S
C495 H481 0.941 . S
C495 C494 1.389 . S
C495 C496 1.397 . S
C496 H482 0.939 . S
C496 C495 1.397 . S
C496 C497 1.378 . S
C497 C496 1.378 . S
C497 C498 1.378 . S
C498 H483 0.940 . S
C498 C497 1.378 . S
C498 C499 1.396 . S
C499 H484 0.940 . S
C499 C494 1.391 . S
C499 C498 1.396 . S
C500 P480 1.803 . S
C500 C501 1.378 . S
C500 C505 1.400 . S
C501 H485 0.939 . S
C501 C500 1.378 . S
C501 C502 1.361 . S
C502 H486 0.942 . S
C502 C501 1.361 . S
C502 C503 1.369 . S
C503 C502 1.369 . S
C503 C504 1.404 . S
C504 H487 0.940 . S
C504 C503 1.404 . S
C504 C505 1.389 . S
C505 H488 0.939 . S
C505 C500 1.400 . S
C505 C504 1.389 . S
C506 P480 1.819 . S
C506 C507 1.391 . S
C506 C511 1.391 . S
C507 H489 0.941 1_565 S
C507 C506 1.391 . S
C507 C508 1.396 . S
C508 H492 0.973 . S
C508 C507 1.396 . S
C508 C509 1.397 . S
C509 C508 1.397 . S
C509 C510 1.385 . S
C510 H493 0.940 . S
C510 C509 1.385 . S
C510 C511 1.388 . S
C511 H490 0.939 . S
C511 C506 1.391 . S
C511 C510 1.388 . S
P512 O523 1.490 . S
P512 C526 1.812 . S
P512 C532 1.803 . S
P512 C538 1.819 . S
H513 C527 0.941 . S
H514 C528 0.939 . S
H515 C530 0.940 . S
H516 C531 0.940 . S
H517 C533 0.939 . S
H518 C534 0.942 . S
H519 C536 0.940 . S
H520 C537 0.939 . S
H521 C539 0.941 . S
H522 C543 0.939 . S
O523 P512 1.490 . S
H524 C540 0.939 . S
H525 C542 0.940 1_655 S
C526 P512 1.812 . S
C526 C527 1.389 . S
C526 C531 1.391 . S
C527 H513 0.941 . S
C527 C526 1.389 . S
C527 C528 1.397 . S
C528 H514 0.939 . S
C528 C527 1.397 . S
C528 C529 1.378 . S
C529 C528 1.378 . S
C529 C530 1.378 . S
C530 H515 0.940 . S
C530 C529 1.378 . S
C530 C531 1.396 . S
C531 H516 0.940 . S
C531 C526 1.391 . S
C531 C530 1.396 . S
C532 P512 1.803 . S
C532 C533 1.378 . S
C532 C537 1.400 . S
C533 H517 0.939 . S
C533 C532 1.378 . S
C533 C534 1.361 . S
C534 H518 0.942 . S
C534 C533 1.361 . S
C534 C535 1.369 . S
C535 C534 1.369 . S
C535 C536 1.404 . S
C536 H519 0.940 . S
C536 C535 1.404 . S
C536 C537 1.389 . S
C537 H520 0.939 . S
C537 C532 1.400 . S
C537 C536 1.389 . S
C538 P512 1.819 . S
C538 C539 1.391 . S
C538 C543 1.391 . S
C539 H521 0.941 . S
C539 C538 1.391 . S
C539 C540 1.396 . S
C540 H524 0.939 . S
C540 C539 1.396 . S
C540 C541 1.397 . S
C541 C540 1.397 . S
C541 C542 1.385 . S
C542 H525 0.940 1_455 S
C542 C541 1.385 . S
C542 C543 1.388 . S
C543 H522 0.939 . S
C543 C538 1.391 . S
C543 C542 1.388 . S
P544 O555 1.490 . S
P544 C558 1.812 . S
P544 C564 1.803 . S
P544 C570 1.819 . S
H545 C559 0.941 . S
H546 C560 0.939 . S
H547 C562 0.940 . S
H548 C563 0.940 . S
H549 C565 0.939 . S
H550 C566 0.942 . S
H551 C568 0.940 . S
H552 C569 0.939 . S
H553 C571 0.941 . S
H554 C575 0.939 . S
O555 P544 1.490 . S
H556 C572 0.939 . S
H557 C574 0.940 . S
C558 P544 1.812 . S
C558 C559 1.389 . S
C558 C563 1.391 . S
C559 H545 0.941 . S
C559 C558 1.389 . S
C559 C560 1.397 . S
C560 H546 0.939 . S
C560 C559 1.397 . S
C560 C561 1.378 . S
C561 C560 1.378 . S
C561 C562 1.378 . S
C562 H547 0.940 . S
C562 C561 1.378 . S
C562 C563 1.396 . S
C563 H548 0.940 . S
C563 C558 1.391 . S
C563 C562 1.396 . S
C564 P544 1.803 . S
C564 C565 1.378 . S
C564 C569 1.400 . S
C565 H549 0.939 . S
C565 C564 1.378 . S
C565 C566 1.361 . S
C566 H550 0.942 . S
C566 C565 1.361 . S
C566 C567 1.369 . S
C567 C566 1.369 . S
C567 C568 1.404 . S
C568 H551 0.940 . S
C568 C567 1.404 . S
C568 C569 1.389 . S
C569 H552 0.939 . S
C569 C564 1.400 . S
C569 C568 1.389 . S
C570 P544 1.819 . S
C570 C571 1.391 . S
C570 C575 1.391 . S
C571 H553 0.941 . S
C571 C570 1.391 . S
C571 C572 1.396 . S
C572 H556 0.939 . S
C572 C571 1.396 . S
C572 C573 1.397 . S
C573 C572 1.397 . S
C573 C574 1.385 . S
C574 H557 0.940 . S
C574 C573 1.385 . S
C574 C575 1.388 . S
C575 H554 0.939 . S
C575 C570 1.391 . S
C575 C574 1.388 . S
Tb576 C586 2.825 . S
Tb576 O587 2.347 1_565 S
Tb576 O590 2.366 1_565 S
Tb576 O595 2.418 . S
Tb576 O596 2.391 . S
Tb576 O599 2.479 . S
Tb576 O600 2.471 1_565 S
Eu577 O588 2.418 . S
Eu577 O589 2.384 . S
Eu577 O592 2.479 . S
Eu577 O593 2.467 1_545 S
Eu577 O594 2.347 1_545 S
Eu577 O597 2.366 1_545 S
Eu577 C607 2.825 . S
C578 O594 1.259 . S
C578 O595 1.265 1_554 S
C579 O596 1.247 1_554 S
C579 O597 1.265 . S
C580 C582 1.380 . S
C580 C583 1.374 1_565 S
C580 C586 1.507 . S
C581 C582 1.384 . S
C581 C585 1.387 1_565 S
C581 H608 0.930 . S
C582 C580 1.380 . S
C582 C581 1.384 . S
C582 H609 0.931 . S
C583 C580 1.374 1_545 S
C583 C584 1.390 . S
C583 H610 0.930 . S
C584 C583 1.390 . S
C584 C585 1.391 . S
C584 H611 0.930 . S
C585 C581 1.387 1_545 S
C585 C584 1.391 . S
C586 Tb576 2.825 . S
C586 C580 1.507 . S
C586 O599 1.238 . S
C586 O600 1.247 1_565 S
O587 Tb576 2.347 1_545 S
O587 C591 1.270 . S
O588 Eu577 2.418 . S
O588 C591 1.236 1_554 S
O589 Eu577 2.384 . S
O589 C598 1.255 1_554 S
O590 Tb576 2.366 1_545 S
O590 C598 1.265 . S
C591 O587 1.270 . S
C591 O588 1.236 1_556 S
O592 Eu577 2.479 . S
O592 C607 1.238 . S
O593 Eu577 2.467 1_565 S
O593 C607 1.240 1_565 S
O594 Eu577 2.347 1_565 S
O594 C578 1.259 . S
O595 Tb576 2.418 . S
O595 C578 1.265 1_556 S
O596 Tb576 2.391 . S
O596 C579 1.247 1_556 S
O597 Eu577 2.366 1_565 S
O597 C579 1.265 . S
C598 O589 1.255 1_556 S
C598 O590 1.265 . S
O599 Tb576 2.479 . S
O599 C586 1.238 . S
O600 Tb576 2.471 1_545 S
O600 C586 1.247 1_545 S
C601 C604 1.380 . S
C601 C605 1.374 1_545 S
C601 C607 1.507 . S
C602 C603 1.387 1_565 S
C602 C606 1.391 . S
C603 C602 1.387 1_545 S
C603 C604 1.384 . S
C603 H612 0.930 . S
C604 C601 1.380 . S
C604 C603 1.384 . S
C604 H613 0.931 . S
C605 C601 1.374 1_565 S
C605 C606 1.390 . S
C605 H614 0.930 . S
C606 C602 1.391 . S
C606 C605 1.390 . S
C606 H615 0.930 . S
C607 Eu577 2.825 . S
C607 O592 1.238 . S
C607 O593 1.240 1_545 S
C607 C601 1.507 . S
H608 C581 0.930 . S
H609 C582 0.931 . S
H610 C583 0.930 . S
H611 C584 0.930 . S
H612 C603 0.930 . S
H613 C604 0.931 . S
H614 C605 0.930 . S
H615 C606 0.930 . S
Tb616 C626 2.825 . S
Tb616 O627 2.347 1_455 S
Tb616 O630 2.366 1_455 S
Tb616 O635 2.418 . S
Tb616 O636 2.384 1_556 S
Tb616 O639 2.479 . S
Tb616 O640 2.471 1_455 S
Eu617 O628 2.418 . S
Eu617 O629 2.384 . S
Eu617 O632 2.479 . S
Eu617 O633 2.471 1_655 S
Eu617 O634 2.347 1_655 S
Eu617 O637 2.366 1_655 S
Eu617 C647 2.825 . S
C618 O634 1.259 . S
C618 O635 1.265 1_554 S
C619 O636 1.255 . S
C619 O637 1.265 . S
C620 C622 1.380 . S
C620 C623 1.374 1_455 S
C620 C626 1.507 . S
C621 C622 1.384 . S
C621 C625 1.387 1_455 S
C621 H648 0.930 . S
C622 C620 1.380 . S
C622 C621 1.384 . S
C622 H649 0.931 . S
C623 C620 1.374 1_655 S
C623 C624 1.390 . S
C623 H650 0.930 . S
C624 C623 1.390 . S
C624 C625 1.391 . S
C624 H651 0.930 . S
C625 C621 1.387 1_655 S
C625 C624 1.391 . S
C626 Tb616 2.825 . S
C626 C620 1.507 . S
C626 O639 1.238 . S
C626 O640 1.247 1_455 S
O627 Tb616 2.347 1_655 S
O627 C631 1.259 . S
O628 Eu617 2.418 . S
O628 C631 1.265 1_554 S
O629 Eu617 2.384 . S
O629 C638 1.255 1_554 S
O630 Tb616 2.366 1_655 S
O630 C638 1.265 . S
C631 O627 1.259 . S
C631 O628 1.265 1_556 S
O632 Eu617 2.479 . S
O632 C647 1.238 . S
O633 Eu617 2.471 1_455 S
O633 C647 1.247 1_455 S
O634 Eu617 2.347 1_455 S
O634 C618 1.259 . S
O635 Tb616 2.418 . S
O635 C618 1.265 1_556 S
O636 Tb616 2.384 1_554 S
O636 C619 1.255 . S
O637 Eu617 2.366 1_455 S
O637 C619 1.265 . S
C638 O629 1.255 1_556 S
C638 O630 1.265 . S
O639 Tb616 2.479 . S
O639 C626 1.238 . S
O640 Tb616 2.471 1_655 S
O640 C626 1.247 1_655 S
C641 C644 1.377 1_455 S
C641 C645 1.378 . S
C641 C647 1.505 1_455 S
C642 C643 1.387 1_455 S
C642 C646 1.391 . S
C643 C642 1.387 1_655 S
C643 C644 1.384 . S
C643 H652 0.930 . S
C644 C641 1.377 1_655 S
C644 C643 1.384 . S
C644 H653 0.931 . S
C645 C641 1.378 . S
C645 C646 1.390 . S
C645 H654 0.930 . S
C646 C642 1.391 . S
C646 C645 1.390 . S
C646 H655 0.930 . S
C647 Eu617 2.825 . S
C647 O632 1.238 . S
C647 O633 1.247 1_655 S
C647 C641 1.505 1_655 S
H648 C621 0.930 . S
H649 C622 0.931 . S
H650 C623 0.930 . S
H651 C624 0.930 . S
H652 C643 0.930 . S
H653 C644 0.931 . S
H654 C645 0.930 . S
H655 C646 0.930 . S
Tb656 C666 2.825 . S
Tb656 O667 2.347 . S
Tb656 O670 2.366 . S
Tb656 O675 2.418 . S
Tb656 O676 2.384 . S
Tb656 O679 2.479 . S
Tb656 O680 2.471 . S
Eu657 O668 2.418 . S
Eu657 O669 2.384 1_556 S
Eu657 O672 2.479 . S
Eu657 O673 2.471 . S
Eu657 O674 2.347 . S
Eu657 O677 2.366 . S
Eu657 C687 2.825 . S
C658 O674 1.259 . S
C658 O675 1.265 1_556 S
C659 O676 1.255 1_556 S
C659 O677 1.265 . S
C660 C662 1.380 . S
C660 C663 1.374 . S
C660 C666 1.507 . S
C661 C662 1.384 . S
C661 C665 1.387 . S
C661 H688 0.930 . S
C662 C660 1.380 . S
C662 C661 1.384 . S
C662 H689 0.931 . S
C663 C660 1.374 . S
C663 C664 1.390 . S
C663 H690 0.930 . S
C664 C663 1.390 . S
C664 C665 1.391 . S
C664 H691 0.930 . S
C665 C661 1.387 . S
C665 C664 1.391 . S
C666 Tb656 2.825 . S
C666 C660 1.507 . S
C666 O679 1.238 . S
C666 O680 1.247 . S
O667 Tb656 2.347 . S
O667 C671 1.259 . S
O668 Eu657 2.418 . S
O668 C671 1.265 1_556 S
O669 Eu657 2.384 1_554 S
O669 C678 1.255 . S
O670 Tb656 2.366 . S
O670 C678 1.265 . S
C671 O667 1.259 . S
C671 O668 1.265 1_554 S
O672 Eu657 2.479 . S
O672 C687 1.238 . S
O673 Eu657 2.471 . S
O673 C687 1.247 . S
O674 Eu657 2.347 . S
O674 C658 1.259 . S
O675 Tb656 2.418 . S
O675 C658 1.265 1_554 S
O676 Tb656 2.384 . S
O676 C659 1.255 1_554 S
O677 Eu657 2.366 . S
O677 C659 1.265 . S
C678 O669 1.255 . S
C678 O670 1.265 . S
O679 Tb656 2.479 . S
O679 C666 1.238 . S
O680 Tb656 2.471 . S
O680 C666 1.247 . S
C681 C684 1.380 . S
C681 C685 1.374 . S
C681 C687 1.507 . S
C682 C683 1.387 . S
C682 C686 1.391 . S
C683 C682 1.387 . S
C683 C684 1.384 . S
C683 H692 0.930 . S
C684 C681 1.380 . S
C684 C683 1.384 . S
C684 H693 0.931 . S
C685 C681 1.374 . S
C685 C686 1.390 . S
C685 H694 0.930 . S
C686 C682 1.391 . S
C686 C685 1.390 . S
C686 H695 0.930 . S
C687 Eu657 2.825 . S
C687 O672 1.238 . S
C687 O673 1.247 . S
C687 C681 1.507 . S
H688 C661 0.930 . S
H689 C662 0.931 . S
H690 C663 0.930 . S
H691 C664 0.930 . S
H692 C683 0.930 . S
H693 C684 0.931 . S
H694 C685 0.930 . S
H695 C686 0.930 . S
Tb696 C706 2.825 . S
Tb696 O707 2.347 . S
Tb696 O710 2.366 . S
Tb696 O715 2.418 . S
Tb696 O716 2.384 . S
Tb696 O719 2.479 . S
Tb696 O720 2.471 . S
Eu697 O708 2.418 . S
Eu697 O709 2.384 . S
Eu697 O712 2.479 . S
Eu697 O713 2.471 . S
Eu697 O714 2.347 . S
Eu697 O717 2.366 . S
Eu697 C727 2.825 . S
C698 O714 1.259 . S
C698 O715 1.265 . S
C699 O716 1.255 . S
C699 O717 1.265 . S
C700 C702 1.380 . S
C700 C703 1.374 . S
C700 C706 1.507 . S
C701 C702 1.384 . S
C701 C705 1.387 . S
C701 H728 0.930 . S
C702 C700 1.380 . S
C702 C701 1.384 . S
C702 H729 0.931 . S
C703 C700 1.374 . S
C703 C704 1.390 . S
C703 H730 0.930 . S
C704 C703 1.390 . S
C704 C705 1.391 . S
C704 H731 0.930 . S
C705 C701 1.387 . S
C705 C704 1.391 . S
C706 Tb696 2.825 . S
C706 C700 1.507 . S
C706 O719 1.238 . S
C706 O720 1.247 . S
O707 Tb696 2.347 . S
O707 C711 1.259 . S
O708 Eu697 2.418 . S
O708 C711 1.265 . S
O709 Eu697 2.384 . S
O709 C718 1.255 . S
O710 Tb696 2.366 . S
O710 C718 1.265 . S
C711 O707 1.259 . S
C711 O708 1.265 . S
O712 Eu697 2.479 . S
O712 C727 1.238 . S
O713 Eu697 2.471 . S
O713 C727 1.247 . S
O714 Eu697 2.347 . S
O714 C698 1.259 . S
O715 Tb696 2.418 . S
O715 C698 1.265 . S
O716 Tb696 2.384 . S
O716 C699 1.255 . S
O717 Eu697 2.366 . S
O717 C699 1.265 . S
C718 O709 1.255 . S
C718 O710 1.265 . S
O719 Tb696 2.479 . S
O719 C706 1.238 . S
O720 Tb696 2.471 . S
O720 C706 1.247 . S
C721 C724 1.380 . S
C721 C725 1.374 . S
C721 C727 1.507 . S
C722 C723 1.387 . S
C722 C726 1.391 . S
C723 C722 1.387 . S
C723 C724 1.384 . S
C723 H732 0.930 . S
C724 C721 1.380 . S
C724 C723 1.384 . S
C724 H733 0.931 . S
C725 C721 1.374 . S
C725 C726 1.390 . S
C725 H734 0.930 . S
C726 C722 1.391 . S
C726 C725 1.390 . S
C726 H735 0.930 . S
C727 Eu697 2.825 . S
C727 O712 1.238 . S
C727 O713 1.247 . S
C727 C721 1.507 . S
H728 C701 0.930 . S
H729 C702 0.931 . S
H730 C703 0.930 . S
H731 C704 0.930 . S
H732 C723 0.930 . S
H733 C724 0.931 . S
H734 C725 0.930 . S
H735 C726 0.930 . S
Tb736 C746 2.825 . S
Tb736 O747 2.347 . S
Tb736 O750 2.366 . S
Tb736 O755 2.418 . S
Tb736 O756 2.384 . S
Tb736 O759 2.479 . S
Tb736 O760 2.471 . S
Eu737 O748 2.418 . S
Eu737 O749 2.384 . S
Eu737 O752 2.479 . S
Eu737 O753 2.471 . S
Eu737 O754 2.347 . S
Eu737 O757 2.366 . S
Eu737 C767 2.825 . S
C738 O754 1.259 . S
C738 O755 1.265 . S
C739 O756 1.255 . S
C739 O757 1.265 . S
C740 C742 1.380 . S
C740 C743 1.374 . S
C740 C746 1.507 . S
C741 C742 1.384 . S
C741 C745 1.387 . S
C741 H768 0.930 . S
C742 C740 1.380 . S
C742 C741 1.384 . S
C742 H769 0.931 . S
C743 C740 1.374 . S
C743 C744 1.390 . S
C743 H770 0.930 . S
C744 C743 1.390 . S
C744 C745 1.391 . S
C744 H771 0.930 . S
C745 C741 1.387 . S
C745 C744 1.391 . S
C746 Tb736 2.825 . S
C746 C740 1.507 . S
C746 O759 1.238 . S
C746 O760 1.247 . S
O747 Tb736 2.347 . S
O747 C751 1.259 . S
O748 Eu737 2.418 . S
O748 C751 1.265 . S
O749 Eu737 2.384 . S
O749 C758 1.255 . S
O750 Tb736 2.366 . S
O750 C758 1.265 . S
C751 O747 1.259 . S
C751 O748 1.265 . S
O752 Eu737 2.479 . S
O752 C767 1.238 . S
O753 Eu737 2.471 . S
O753 C767 1.247 . S
O754 Eu737 2.347 . S
O754 C738 1.259 . S
O755 Tb736 2.418 . S
O755 C738 1.265 . S
O756 Tb736 2.384 . S
O756 C739 1.255 . S
O757 Eu737 2.366 . S
O757 C739 1.265 . S
C758 O749 1.255 . S
C758 O750 1.265 . S
O759 Tb736 2.479 . S
O759 C746 1.238 . S
O760 Tb736 2.471 . S
O760 C746 1.247 . S
C761 C764 1.380 . S
C761 C765 1.374 . S
C761 C767 1.507 . S
C762 C763 1.387 . S
C762 C766 1.391 . S
C763 C762 1.387 . S
C763 C764 1.384 . S
C763 H772 0.930 . S
C764 C761 1.380 . S
C764 C763 1.384 . S
C764 H773 0.931 . S
C765 C761 1.374 . S
C765 C766 1.390 . S
C765 H774 0.930 . S
C766 C762 1.391 . S
C766 C765 1.390 . S
C766 H775 0.930 . S
C767 Eu737 2.825 . S
C767 O752 1.238 . S
C767 O753 1.247 . S
C767 C761 1.507 . S
H768 C741 0.930 . S
H769 C742 0.931 . S
H770 C743 0.930 . S
H771 C744 0.930 . S
H772 C763 0.930 . S
H773 C764 0.931 . S
H774 C765 0.930 . S
H775 C766 0.930 . S
Tb776 C786 2.825 . S
Tb776 O787 2.347 . S
Tb776 O790 2.366 . S
Tb776 O795 2.418 . S
Tb776 O796 2.384 . S
Tb776 O799 2.479 . S
Tb776 O800 2.471 . S
Eu777 O788 2.418 . S
Eu777 O789 2.384 . S
Eu777 O792 2.479 . S
Eu777 O793 2.471 . S
Eu777 O794 2.347 . S
Eu777 O797 2.366 . S
Eu777 C807 2.825 . S
C778 O794 1.259 . S
C778 O795 1.265 . S
C779 O796 1.255 . S
C779 O797 1.265 . S
C780 C782 1.380 . S
C780 C783 1.374 . S
C780 C786 1.507 . S
C781 C782 1.384 . S
C781 C785 1.387 . S
C781 H808 0.930 . S
C782 C780 1.380 . S
C782 C781 1.384 . S
C782 H809 0.931 . S
C783 C780 1.374 . S
C783 C784 1.390 . S
C783 H810 0.930 . S
C784 C783 1.390 . S
C784 C785 1.391 . S
C784 H811 0.930 . S
C785 C781 1.387 . S
C785 C784 1.391 . S
C786 Tb776 2.825 . S
C786 C780 1.507 . S
C786 O799 1.238 . S
C786 O800 1.247 . S
O787 Tb776 2.347 . S
O787 C791 1.259 . S
O788 Eu777 2.418 . S
O788 C791 1.265 . S
O789 Eu777 2.384 . S
O789 C798 1.255 . S
O790 Tb776 2.366 . S
O790 C798 1.265 . S
C791 O787 1.259 . S
C791 O788 1.265 . S
O792 Eu777 2.479 . S
O792 C807 1.238 . S
O793 Eu777 2.471 . S
O793 C807 1.247 . S
O794 Eu777 2.347 . S
O794 C778 1.259 . S
O795 Tb776 2.418 . S
O795 C778 1.265 . S
O796 Tb776 2.384 . S
O796 C779 1.255 . S
O797 Eu777 2.366 . S
O797 C779 1.265 . S
C798 O789 1.255 . S
C798 O790 1.265 . S
O799 Tb776 2.479 . S
O799 C786 1.238 . S
O800 Tb776 2.471 . S
O800 C786 1.247 . S
C801 C804 1.380 . S
C801 C805 1.374 . S
C801 C807 1.507 . S
C802 C803 1.387 . S
C802 C806 1.391 . S
C803 C802 1.387 . S
C803 C804 1.384 . S
C803 H812 0.930 . S
C804 C801 1.380 . S
C804 C803 1.384 . S
C804 H813 0.931 . S
C805 C801 1.374 . S
C805 C806 1.390 . S
C805 H814 0.930 . S
C806 C802 1.391 . S
C806 C805 1.390 . S
C806 H815 0.930 . S
C807 Eu777 2.825 . S
C807 O792 1.238 . S
C807 O793 1.247 . S
C807 C801 1.507 . S
H808 C781 0.930 . S
H809 C782 0.931 . S
H810 C783 0.930 . S
H811 C784 0.930 . S
H812 C803 0.930 . S
H813 C804 0.931 . S
H814 C805 0.930 . S
H815 C806 0.930 . S
Tb816 C826 2.825 . S
Tb816 O827 2.347 . S
Tb816 O830 2.366 . S
Tb816 O835 2.418 . S
Tb816 O836 2.384 . S
Tb816 O839 2.479 . S
Tb816 O840 2.471 . S
Eu817 O828 2.418 . S
Eu817 O829 2.384 . S
Eu817 O832 2.479 . S
Eu817 O833 2.471 . S
Eu817 O834 2.347 . S
Eu817 O837 2.366 . S
Eu817 C847 2.825 . S
C818 O834 1.259 . S
C818 O835 1.265 . S
C819 O836 1.255 . S
C819 O837 1.265 . S
C820 C822 1.380 . S
C820 C823 1.374 . S
C820 C826 1.507 . S
C821 C822 1.384 . S
C821 C825 1.387 . S
C821 H848 0.930 . S
C822 C820 1.380 . S
C822 C821 1.384 . S
C822 H849 0.931 . S
C823 C820 1.374 . S
C823 C824 1.390 . S
C823 H850 0.930 . S
C824 C823 1.390 . S
C824 C825 1.391 . S
C824 H851 0.930 . S
C825 C821 1.387 . S
C825 C824 1.391 . S
C826 Tb816 2.825 . S
C826 C820 1.507 . S
C826 O839 1.238 . S
C826 O840 1.247 . S
O827 Tb816 2.347 . S
O827 C831 1.259 . S
O828 Eu817 2.418 . S
O828 C831 1.265 . S
O829 Eu817 2.384 . S
O829 C838 1.255 . S
O830 Tb816 2.366 . S
O830 C838 1.265 . S
C831 O827 1.259 . S
C831 O828 1.265 . S
O832 Eu817 2.479 . S
O832 C847 1.238 . S
O833 Eu817 2.471 . S
O833 C847 1.247 . S
O834 Eu817 2.347 . S
O834 C818 1.259 . S
O835 Tb816 2.418 . S
O835 C818 1.265 . S
O836 Tb816 2.384 . S
O836 C819 1.255 . S
O837 Eu817 2.366 . S
O837 C819 1.265 . S
C838 O829 1.255 . S
C838 O830 1.265 . S
O839 Tb816 2.479 . S
O839 C826 1.238 . S
O840 Tb816 2.471 . S
O840 C826 1.247 . S
C841 C844 1.380 . S
C841 C845 1.374 . S
C841 C847 1.507 . S
C842 C843 1.387 . S
C842 C846 1.391 . S
C843 C842 1.387 . S
C843 C844 1.384 . S
C843 H852 0.930 . S
C844 C841 1.380 . S
C844 C843 1.384 . S
C844 H853 0.931 . S
C845 C841 1.374 . S
C845 C846 1.390 . S
C845 H854 0.930 . S
C846 C842 1.391 . S
C846 C845 1.390 . S
C846 H855 0.930 . S
C847 Eu817 2.825 . S
C847 O832 1.238 . S
C847 O833 1.247 . S
C847 C841 1.507 . S
H848 C821 0.930 . S
H849 C822 0.931 . S
H850 C823 0.930 . S
H851 C824 0.930 . S
H852 C843 0.930 . S
H853 C844 0.931 . S
H854 C845 0.930 . S
H855 C846 0.930 . S
Tb856 C866 2.825 . S
Tb856 O867 2.347 . S
Tb856 O870 2.366 . S
Tb856 O875 2.418 . S
Tb856 O876 2.384 . S
Tb856 O879 2.479 . S
Tb856 O880 2.471 . S
Eu857 O868 2.418 . S
Eu857 O869 2.384 . S
Eu857 O872 2.479 . S
Eu857 O873 2.471 . S
Eu857 O874 2.347 . S
Eu857 O877 2.366 . S
Eu857 C887 2.825 . S
C858 O874 1.259 . S
C858 O875 1.265 . S
C859 O876 1.255 . S
C859 O877 1.265 . S
C860 C862 1.380 . S
C860 C863 1.374 . S
C860 C866 1.507 . S
C861 C862 1.384 . S
C861 C865 1.387 . S
C861 H888 0.930 . S
C862 C860 1.380 . S
C862 C861 1.384 . S
C862 H889 0.931 . S
C863 C860 1.374 . S
C863 C864 1.390 . S
C863 H890 0.930 . S
C864 C863 1.390 . S
C864 C865 1.391 . S
C864 H891 0.930 . S
C865 C861 1.387 . S
C865 C864 1.391 . S
C866 Tb856 2.825 . S
C866 C860 1.507 . S
C866 O879 1.238 . S
C866 O880 1.247 . S
O867 Tb856 2.347 . S
O867 C871 1.259 . S
O868 Eu857 2.418 . S
O868 C871 1.265 . S
O869 Eu857 2.384 . S
O869 C878 1.255 . S
O870 Tb856 2.366 . S
O870 C878 1.265 . S
C871 O867 1.259 . S
C871 O868 1.265 . S
O872 Eu857 2.479 . S
O872 C887 1.238 . S
O873 Eu857 2.471 . S
O873 C887 1.247 . S
O874 Eu857 2.347 . S
O874 C858 1.259 . S
O875 Tb856 2.418 . S
O875 C858 1.265 . S
O876 Tb856 2.384 . S
O876 C859 1.255 . S
O877 Eu857 2.366 . S
O877 C859 1.265 . S
C878 O869 1.255 . S
C878 O870 1.265 . S
O879 Tb856 2.479 . S
O879 C866 1.238 . S
O880 Tb856 2.471 . S
O880 C866 1.247 . S
C881 C884 1.380 . S
C881 C885 1.374 . S
C881 C887 1.507 . S
C882 C883 1.387 . S
C882 C886 1.391 . S
C883 C882 1.387 . S
C883 C884 1.384 . S
C883 H892 0.930 . S
C884 C881 1.380 . S
C884 C883 1.384 . S
C884 H893 0.931 . S
C885 C881 1.374 . S
C885 C886 1.390 . S
C885 H894 0.930 . S
C886 C882 1.391 . S
C886 C885 1.390 . S
C886 H895 0.930 . S
C887 Eu857 2.825 . S
C887 O872 1.238 . S
C887 O873 1.247 . S
C887 C881 1.507 . S
H888 C861 0.930 . S
H889 C862 0.931 . S
H890 C863 0.930 . S
H891 C864 0.930 . S
H892 C883 0.930 . S
H893 C884 0.931 . S
H894 C885 0.930 . S
H895 C886 0.930 . S
Tb896 C906 2.825 . S
Tb896 O907 2.347 . S
Tb896 O910 2.366 . S
Tb896 O915 2.418 . S
Tb896 O916 2.384 . S
Tb896 O919 2.479 . S
Tb896 O920 2.471 . S
Eu897 O908 2.418 . S
Eu897 O909 2.384 . S
Eu897 O912 2.479 . S
Eu897 O913 2.471 . S
Eu897 O914 2.347 . S
Eu897 O917 2.366 . S
Eu897 C927 2.825 . S
C898 O914 1.259 . S
C898 O915 1.265 . S
C899 O916 1.255 . S
C899 O917 1.265 . S
C900 C902 1.380 . S
C900 C903 1.374 . S
C900 C906 1.507 . S
C901 C902 1.384 . S
C901 C905 1.387 . S
C901 H928 0.930 . S
C902 C900 1.380 . S
C902 C901 1.384 . S
C902 H929 0.931 . S
C903 C900 1.374 . S
C903 C904 1.390 . S
C903 H930 0.930 . S
C904 C903 1.390 . S
C904 C905 1.391 . S
C904 H931 0.930 . S
C905 C901 1.387 . S
C905 C904 1.391 . S
C906 Tb896 2.825 . S
C906 C900 1.507 . S
C906 O919 1.238 . S
C906 O920 1.247 . S
O907 Tb896 2.347 . S
O907 C911 1.259 . S
O908 Eu897 2.418 . S
O908 C911 1.265 . S
O909 Eu897 2.384 . S
O909 C918 1.255 . S
O910 Tb896 2.366 . S
O910 C918 1.265 . S
C911 O907 1.259 . S
C911 O908 1.265 . S
O912 Eu897 2.479 . S
O912 C927 1.238 . S
O913 Eu897 2.471 . S
O913 C927 1.247 . S
O914 Eu897 2.347 . S
O914 C898 1.259 . S
O915 Tb896 2.418 . S
O915 C898 1.265 . S
O916 Tb896 2.384 . S
O916 C899 1.255 . S
O917 Eu897 2.366 . S
O917 C899 1.265 . S
C918 O909 1.255 . S
C918 O910 1.265 . S
O919 Tb896 2.479 . S
O919 C906 1.238 . S
O920 Tb896 2.471 . S
O920 C906 1.247 . S
C921 C924 1.380 . S
C921 C925 1.374 . S
C921 C927 1.507 . S
C922 C923 1.387 . S
C922 C926 1.391 . S
C923 C922 1.387 . S
C923 C924 1.384 . S
C923 H932 0.930 . S
C924 C921 1.380 . S
C924 C923 1.384 . S
C924 H933 0.931 . S
C925 C921 1.374 . S
C925 C926 1.390 . S
C925 H934 0.930 . S
C926 C922 1.391 . S
C926 C925 1.390 . S
C926 H935 0.930 . S
C927 Eu897 2.825 . S
C927 O912 1.238 . S
C927 O913 1.247 . S
C927 C921 1.507 . S
H928 C901 0.930 . S
H929 C902 0.931 . S
H930 C903 0.930 . S
H931 C904 0.930 . S
H932 C923 0.930 . S
H933 C924 0.931 . S
H934 C925 0.930 . S
H935 C926 0.930 . S
C936 C937 1.387 . S
C936 H940 0.950 . S
C936 C945 1.390 . S
C937 C936 1.387 . S
C937 C939 1.387 . S
H938 C945 0.950 1_556 S
C939 C937 1.387 . S
C939 C941 1.390 . S
C939 H943 0.950 . S
H940 C936 0.950 . S
C941 C939 1.390 . S
C941 C942 1.387 . S
C941 H944 0.950 . S
C942 C941 1.387 . S
C942 C945 1.387 . S
H943 C939 0.950 . S
H944 C941 0.950 . S
C945 C936 1.390 . S
C945 H938 0.950 1_554 S
C945 C942 1.387 . S
C946 C947 1.387 . S
C946 H950 0.950 . S
C946 C955 1.390 . S
C947 C946 1.387 . S
C947 C949 1.387 . S
H948 C955 0.950 . S
C949 C947 1.387 . S
C949 C951 1.390 . S
C949 H953 0.950 . S
H950 C946 0.950 . S
C951 C949 1.390 . S
C951 C952 1.387 . S
C951 H954 0.950 . S
C952 C951 1.387 . S
C952 C955 1.387 . S
H953 C949 0.950 . S
H954 C951 0.950 . S
C955 C946 1.390 . S
C955 H948 0.950 . S
C955 C952 1.387 . S
C956 C957 1.387 . S
C956 H960 0.950 . S
C956 C965 1.390 . S
C957 C956 1.387 . S
C957 C959 1.387 . S
H958 C965 0.950 . S
C959 C957 1.387 . S
C959 C961 1.391 . S
C959 H963 0.950 1_554 S
H960 C956 0.950 . S
C961 C959 1.391 . S
C961 C962 1.435 . S
C961 H964 0.904 1_554 S
C962 C961 1.435 . S
C962 C965 1.387 . S
H963 C959 0.950 1_556 S
H964 C961 0.904 1_556 S
C965 C956 1.390 . S
C965 H958 0.950 . S
C965 C962 1.387 . S
C966 C967 1.387 . S
C966 H970 0.950 1_556 S
C966 C975 1.390 1_556 S
C967 C966 1.387 . S
C967 C969 1.387 . S
H968 C975 0.950 . S
C969 C967 1.387 . S
C969 C971 1.390 . S
C969 H973 0.950 . S
H970 C966 0.950 1_554 S
C971 C969 1.390 . S
C971 C972 1.387 . S
C971 H974 0.950 . S
C972 C971 1.387 . S
C972 C975 1.387 1_556 S
H973 C969 0.950 . S
H974 C971 0.950 . S
C975 C966 1.390 1_554 S
C975 H968 0.950 . S
C975 C972 1.387 1_554 S
C976 C977 1.387 . S
C976 H980 0.950 . S
C976 C985 1.390 . S
C977 C976 1.387 . S
C977 C979 1.387 . S
H978 C985 0.950 . S
C979 C977 1.387 . S
C979 C981 1.390 . S
C979 H983 0.950 . S
H980 C976 0.950 . S
C981 C979 1.390 . S
C981 C982 1.387 . S
C981 H984 0.945 1_556 S
C982 C981 1.387 . S
C982 C985 1.387 . S
H983 C979 0.950 . S
H984 C981 0.945 1_554 S
C985 C976 1.390 . S
C985 H978 0.950 . S
C985 C982 1.387 . S
C986 C987 1.387 . S
C986 H990 0.950 1_556 S
C986 C995 1.390 1_556 S
C987 C986 1.387 . S
C987 C989 1.387 . S
H988 C995 0.951 . S
C989 C987 1.387 . S
C989 C991 1.390 . S
C989 H993 0.950 . S
H990 C986 0.950 1_554 S
C991 C989 1.390 . S
C991 C992 1.387 . S
C991 H994 0.950 . S
C992 C991 1.387 . S
C992 C995 1.386 1_556 S
H993 C989 0.950 . S
H994 C991 0.950 . S
C995 C986 1.390 1_554 S
C995 H988 0.951 . S
C995 C992 1.386 1_554 S
C996 C997 1.387 . S
C996 H1000 0.950 . S
C996 C1005 1.390 . S
C997 C996 1.387 . S
C997 C999 1.387 . S
H998 C1005 0.950 . S
C999 C997 1.387 . S
C999 C1001 1.390 . S
C999 H1003 0.925 1_556 S
H1000 C996 0.950 . S
C1001 C999 1.390 . S
C1001 C1002 1.387 . S
C1001 H1004 0.950 1_556 S
C1002 C1001 1.387 . S
C1002 C1005 1.387 . S
H1003 C999 0.925 1_554 S
H1004 C1001 0.950 1_554 S
C1005 C996 1.390 . S
C1005 H998 0.950 . S
C1005 C1002 1.387 . S
C1006 C1007 1.387 . S
C1006 H1010 0.950 . S
C1006 C1015 1.390 . S
C1007 C1006 1.387 . S
C1007 C1009 1.387 . S
H1008 C1015 0.950 1_554 S
C1009 C1007 1.387 . S
C1009 C1011 1.390 . S
C1009 H1013 0.950 . S
H1010 C1006 0.950 . S
C1011 C1009 1.390 . S
C1011 C1012 1.387 . S
C1011 H1014 0.950 . S
C1012 C1011 1.387 . S
C1012 C1015 1.387 . S
H1013 C1009 0.950 . S
H1014 C1011 0.950 . S
C1015 C1006 1.390 . S
C1015 H1008 0.950 1_556 S
C1015 C1012 1.387 . S
C1016 C1017 1.387 . S
C1016 H1020 0.950 . S
C1016 C1025 1.390 . S
C1017 C1016 1.387 . S
C1017 C1019 1.387 1_556 S
H1018 C1025 0.950 . S
C1019 C1017 1.387 1_554 S
C1019 C1021 1.390 . S
C1019 H1023 0.950 . S
H1020 C1016 0.950 . S
C1021 C1019 1.390 . S
C1021 C1022 1.387 1_554 S
C1021 H1024 0.950 . S
C1022 C1021 1.387 1_556 S
C1022 C1025 1.387 . S
H1023 C1019 0.950 . S
H1024 C1021 0.950 . S
C1025 C1016 1.390 . S
C1025 H1018 0.950 . S
C1025 C1022 1.387 . S
C1026 C1027 1.387 . S
C1026 H1030 0.950 . S
C1026 C1035 1.390 . S
C1027 C1026 1.387 . S
C1027 C1029 1.387 . S
H1028 C1035 0.950 . S
C1029 C1027 1.387 . S
C1029 C1031 1.390 . S
C1029 H1033 0.950 . S
H1030 C1026 0.950 . S
C1031 C1029 1.390 . S
C1031 C1032 1.387 . S
C1031 H1034 0.950 . S
C1032 C1031 1.387 . S
C1032 C1035 1.387 . S
H1033 C1029 0.950 . S
H1034 C1031 0.950 . S
C1035 C1026 1.390 . S
C1035 H1028 0.950 . S
C1035 C1032 1.387 . S
C1036 C1037 1.387 . S
C1036 H1040 0.950 . S
C1036 C1045 1.390 . S
C1037 C1036 1.387 . S
C1037 C1039 1.387 . S
H1038 C1045 0.950 . S
C1039 C1037 1.387 . S
C1039 C1041 1.390 . S
C1039 H1043 0.950 . S
H1040 C1036 0.950 . S
C1041 C1039 1.390 . S
C1041 C1042 1.387 . S
C1041 H1044 0.950 . S
C1042 C1041 1.387 . S
C1042 C1045 1.387 . S
H1043 C1039 0.950 . S
H1044 C1041 0.950 . S
C1045 C1036 1.390 . S
C1045 H1038 0.950 . S
C1045 C1042 1.387 . S
C1046 C1047 1.387 . S
C1046 H1050 0.950 . S
C1046 C1055 1.390 . S
C1047 C1046 1.387 . S
C1047 C1049 1.387 . S
H1048 C1055 0.950 . S
C1049 C1047 1.387 . S
C1049 C1051 1.390 . S
C1049 H1053 0.950 1_554 S
H1050 C1046 0.950 . S
C1051 C1049 1.390 . S
C1051 C1052 1.387 . S
C1051 H1054 0.950 1_554 S
C1052 C1051 1.387 . S
C1052 C1055 1.387 . S
H1053 C1049 0.950 1_556 S
H1054 C1051 0.950 1_556 S
C1055 C1046 1.390 . S
C1055 H1048 0.950 . S
C1055 C1052 1.387 . S
C1056 C1057 1.387 1_455 S
C1056 H1060 0.950 1_455 S
C1056 C1065 1.390 . S
C1057 C1056 1.387 1_655 S
C1057 C1059 1.387 1_655 S
H1058 C1065 0.950 . S
C1059 C1057 1.387 1_455 S
C1059 C1061 1.390 . S
C1059 H1063 0.950 . S
H1060 C1056 0.950 1_655 S
C1061 C1059 1.390 . S
C1061 C1062 1.387 . S
C1061 H1064 0.950 . S
C1062 C1061 1.387 . S
C1062 C1065 1.387 . S
H1063 C1059 0.950 . S
H1064 C1061 0.950 . S
C1065 C1056 1.390 . S
C1065 H1058 0.950 . S
C1065 C1062 1.387 . S
C1066 C1067 1.387 . S
C1066 H1070 0.950 . S
C1066 C1075 1.390 . S
C1067 C1066 1.387 . S
C1067 C1069 1.387 . S
H1068 C1075 0.950 . S
C1069 C1067 1.387 . S
C1069 C1071 1.390 . S
C1069 H1073 0.950 . S
H1070 C1066 0.950 . S
C1071 C1069 1.390 . S
C1071 C1072 1.387 . S
C1071 H1074 0.950 . S
C1072 C1071 1.387 . S
C1072 C1075 1.387 . S
H1073 C1069 0.950 . S
H1074 C1071 0.950 . S
C1075 C1066 1.390 . S
C1075 H1068 0.950 . S
C1075 C1072 1.387 . S
C1076 C1077 1.398 . S
C1076 H1080 0.963 . S
C1076 C1085 1.366 1_545 S
C1077 C1076 1.398 . S
C1077 C1079 1.387 . S
H1078 C1085 0.950 . S
C1079 C1077 1.387 . S
C1079 C1081 1.390 1_545 S
C1079 H1083 0.950 . S
H1080 C1076 0.963 . S
C1081 C1079 1.390 1_565 S
C1081 C1082 1.387 . S
C1081 H1084 0.950 . S
C1082 C1081 1.387 . S
C1082 C1085 1.387 . S
H1083 C1079 0.950 . S
H1084 C1081 0.950 . S
C1085 C1076 1.366 1_565 S
C1085 H1078 0.950 . S
C1085 C1082 1.387 . S
C1086 C1087 1.387 . S
C1086 H1090 0.950 . S
C1086 C1095 1.390 . S
C1087 C1086 1.387 . S
C1087 C1089 1.387 . S
H1088 C1095 0.950 . S
C1089 C1087 1.387 . S
C1089 C1091 1.390 . S
C1089 H1093 0.950 . S
H1090 C1086 0.950 . S
C1091 C1089 1.390 . S
C1091 C1092 1.387 . S
C1091 H1094 0.950 . S
C1092 C1091 1.387 . S
C1092 C1095 1.387 . S
H1093 C1089 0.950 . S
H1094 C1091 0.950 . S
C1095 C1086 1.390 . S
C1095 H1088 0.950 . S
C1095 C1092 1.387 . S
C1096 C1097 1.387 . S
C1096 H1100 0.950 . S
C1096 C1105 1.390 . S
C1097 C1096 1.387 . S
C1097 C1099 1.387 . S
H1098 C1105 0.950 . S
C1099 C1097 1.387 . S
C1099 C1101 1.390 . S
C1099 H1103 0.950 . S
H1100 C1096 0.950 . S
C1101 C1099 1.390 . S
C1101 C1102 1.387 . S
C1101 H1104 0.950 . S
C1102 C1101 1.387 . S
C1102 C1105 1.387 . S
H1103 C1099 0.950 . S
H1104 C1101 0.950 . S
C1105 C1096 1.390 . S
C1105 H1098 0.950 . S
C1105 C1102 1.387 . S
C1106 C1107 1.387 . S
C1106 H1110 0.950 . S
C1106 C1115 1.390 . S
C1107 C1106 1.387 . S
C1107 C1109 1.387 . S
H1108 C1115 0.950 . S
C1109 C1107 1.387 . S
C1109 C1111 1.390 . S
C1109 H1113 0.950 . S
H1110 C1106 0.950 . S
C1111 C1109 1.390 . S
C1111 C1112 1.387 . S
C1111 H1114 0.950 . S
C1112 C1111 1.387 . S
C1112 C1115 1.387 . S
H1113 C1109 0.950 . S
H1114 C1111 0.950 . S
C1115 C1106 1.390 . S
C1115 H1108 0.950 . S
C1115 C1112 1.387 . S
C1116 C1117 1.387 . S
C1116 H1120 0.950 . S
C1116 C1125 1.390 . S
C1117 C1116 1.387 . S
C1117 C1119 1.387 . S
H1118 C1125 0.950 . S
C1119 C1117 1.387 . S
C1119 C1121 1.390 . S
C1119 H1123 0.950 . S
H1120 C1116 0.950 . S
C1121 C1119 1.390 . S
C1121 C1122 1.387 . S
C1121 H1124 0.950 . S
C1122 C1121 1.387 . S
C1122 C1125 1.387 . S
H1123 C1119 0.950 . S
H1124 C1121 0.950 . S
C1125 C1116 1.390 . S
C1125 H1118 0.950 . S
C1125 C1122 1.387 . S
C1126 C1127 1.387 . S
C1126 H1130 0.950 . S
C1126 C1135 1.390 . S
C1127 C1126 1.387 . S
C1127 C1129 1.387 . S
H1128 C1135 0.950 . S
C1129 C1127 1.387 . S
C1129 C1131 1.390 . S
C1129 H1133 0.950 . S
H1130 C1126 0.950 . S
C1131 C1129 1.390 . S
C1131 C1132 1.387 . S
C1131 H1134 0.950 . S
C1132 C1131 1.387 . S
C1132 C1135 1.387 . S
H1133 C1129 0.950 . S
H1134 C1131 0.950 . S
C1135 C1126 1.390 . S
C1135 H1128 0.950 . S
C1135 C1132 1.387 . S
C1136 C1137 1.387 . S
C1136 H1140 0.950 . S
C1136 C1145 1.390 . S
C1137 C1136 1.387 . S
C1137 C1139 1.387 . S
H1138 C1145 0.950 . S
C1139 C1137 1.387 . S
C1139 C1141 1.390 . S
C1139 H1143 0.950 . S
H1140 C1136 0.950 . S
C1141 C1139 1.390 . S
C1141 C1142 1.387 . S
C1141 H1144 0.950 . S
C1142 C1141 1.387 . S
C1142 C1145 1.387 . S
H1143 C1139 0.950 . S
H1144 C1141 0.950 . S
C1145 C1136 1.390 . S
C1145 H1138 0.950 . S
C1145 C1142 1.387 . S
C1146 C1147 1.387 1_565 S
C1146 H1150 0.950 1_565 S
C1146 C1155 1.390 . S
C1147 C1146 1.387 1_545 S
C1147 C1149 1.387 1_545 S
H1148 C1155 0.950 . S
C1149 C1147 1.387 1_565 S
C1149 C1151 1.390 . S
C1149 H1153 0.950 1_565 S
H1150 C1146 0.950 1_545 S
C1151 C1149 1.390 . S
C1151 C1152 1.387 . S
C1151 H1154 0.950 . S
C1152 C1151 1.387 . S
C1152 C1155 1.387 . S
H1153 C1149 0.950 1_545 S
H1154 C1151 0.950 . S
C1155 C1146 1.390 . S
C1155 H1148 0.950 . S
C1155 C1152 1.387 . S
C1156 C1157 1.387 . S
C1156 H1160 0.950 . S
C1156 C1165 1.390 . S
C1157 C1156 1.387 . S
C1157 C1159 1.387 . S
H1158 C1165 0.950 . S
C1159 C1157 1.387 . S
C1159 C1161 1.390 . S
C1159 H1163 0.950 1_455 S
H1160 C1156 0.950 . S
C1161 C1159 1.390 . S
C1161 C1162 1.387 . S
C1161 H1164 0.950 . S
C1162 C1161 1.387 . S
C1162 C1165 1.387 . S
H1163 C1159 0.950 1_655 S
H1164 C1161 0.950 . S
C1165 C1156 1.390 . S
C1165 H1158 0.950 . S
C1165 C1162 1.387 . S
C1166 C1167 1.387 . S
C1166 H1170 0.950 . S
C1166 C1175 1.390 . S
C1167 C1166 1.387 . S
C1167 C1169 1.387 . S
H1168 C1175 0.950 . S
C1169 C1167 1.387 . S
C1169 C1171 1.390 . S
C1169 H1173 0.950 . S
H1170 C1166 0.950 . S
C1171 C1169 1.390 . S
C1171 C1172 1.387 . S
C1171 H1174 0.950 . S
C1172 C1171 1.387 . S
C1172 C1175 1.387 . S
H1173 C1169 0.950 . S
H1174 C1171 0.950 . S
C1175 C1166 1.390 . S
C1175 H1168 0.950 . S
C1175 C1172 1.387 . S
C1176 C1177 1.387 . S
C1176 H1180 0.950 . S
C1176 C1185 1.390 . S
C1177 C1176 1.387 . S
C1177 C1179 1.387 . S
H1178 C1185 0.950 . S
C1179 C1177 1.387 . S
C1179 C1181 1.390 . S
C1179 H1183 0.950 . S
H1180 C1176 0.950 . S
C1181 C1179 1.390 . S
C1181 C1182 1.387 . S
C1181 H1184 0.950 . S
C1182 C1181 1.387 . S
C1182 C1185 1.387 . S
H1183 C1179 0.950 . S
H1184 C1181 0.950 . S
C1185 C1176 1.390 . S
C1185 H1178 0.950 . S
C1185 C1182 1.387 . S
C1186 C1187 1.387 . S
C1186 H1190 0.950 . S
C1186 C1195 1.390 . S
C1187 C1186 1.387 . S
C1187 C1189 1.387 . S
H1188 C1195 0.950 . S
C1189 C1187 1.387 . S
C1189 C1191 1.390 . S
C1189 H1193 0.950 . S
H1190 C1186 0.950 . S
C1191 C1189 1.390 . S
C1191 C1192 1.387 . S
C1191 H1194 0.950 . S
C1192 C1191 1.387 . S
C1192 C1195 1.387 . S
H1193 C1189 0.950 . S
H1194 C1191 0.950 . S
C1195 C1186 1.390 . S
C1195 H1188 0.950 . S
C1195 C1192 1.387 . S
C1196 C1197 1.387 . S
C1196 H1200 0.950 . S
C1196 C1205 1.390 . S
C1197 C1196 1.387 . S
C1197 C1199 1.387 . S
H1198 C1205 0.950 . S
C1199 C1197 1.387 . S
C1199 C1201 1.390 . S
C1199 H1203 0.950 . S
H1200 C1196 0.950 . S
C1201 C1199 1.390 . S
C1201 C1202 1.387 . S
C1201 H1204 0.950 . S
C1202 C1201 1.387 . S
C1202 C1205 1.387 . S
H1203 C1199 0.950 . S
H1204 C1201 0.950 . S
C1205 C1196 1.390 . S
C1205 H1198 0.950 . S
C1205 C1202 1.387 . S
C1206 C1207 1.387 1_545 S
C1206 H1210 0.950 1_545 S
C1206 C1215 1.390 . S
C1207 C1206 1.387 1_565 S
C1207 C1209 1.387 1_565 S
H1208 C1215 0.950 . S
C1209 C1207 1.387 1_545 S
C1209 C1211 1.390 . S
C1209 H1213 0.950 1_545 S
H1210 C1206 0.950 1_565 S
C1211 C1209 1.390 . S
C1211 C1212 1.387 . S
C1211 H1214 0.950 . S
C1212 C1211 1.387 . S
C1212 C1215 1.387 . S
H1213 C1209 0.950 1_565 S
H1214 C1211 0.950 . S
C1215 C1206 1.390 . S
C1215 H1208 0.950 . S
C1215 C1212 1.387 . S
C1216 C1217 1.387 . S
C1216 H1220 0.950 . S
C1216 C1225 1.390 . S
C1217 C1216 1.387 . S
C1217 C1219 1.387 . S
H1218 C1225 0.950 . S
C1219 C1217 1.387 . S
C1219 C1221 1.390 . S
C1219 H1223 0.950 . S
H1220 C1216 0.950 . S
C1221 C1219 1.390 . S
C1221 C1222 1.387 . S
C1221 H1224 0.950 . S
C1222 C1221 1.387 . S
C1222 C1225 1.387 . S
H1223 C1219 0.950 . S
H1224 C1221 0.950 . S
C1225 C1216 1.390 . S
C1225 H1218 0.950 . S
C1225 C1222 1.387 . S
C1226 C1227 1.387 . S
C1226 H1230 0.950 . S
C1226 C1235 1.390 . S
C1227 C1226 1.387 . S
C1227 C1229 1.387 . S
H1228 C1235 0.950 . S
C1229 C1227 1.387 . S
C1229 C1231 1.390 . S
C1229 H1233 0.950 . S
H1230 C1226 0.950 . S
C1231 C1229 1.390 . S
C1231 C1232 1.387 . S
C1231 H1234 0.950 . S
C1232 C1231 1.387 . S
C1232 C1235 1.387 . S
H1233 C1229 0.950 . S
H1234 C1231 0.950 . S
C1235 C1226 1.390 . S
C1235 H1228 0.950 . S
C1235 C1232 1.387 . S
C1236 C1237 1.387 1_655 S
C1236 H1240 0.950 . S
C1236 C1245 1.390 . S
C1237 C1236 1.387 1_455 S
C1237 C1239 1.387 1_455 S
H1238 C1245 0.950 . S
C1239 C1237 1.387 1_655 S
C1239 C1241 1.390 . S
C1239 H1243 0.950 1_655 S
H1240 C1236 0.950 . S
C1241 C1239 1.390 . S
C1241 C1242 1.387 . S
C1241 H1244 0.950 . S
C1242 C1241 1.387 . S
C1242 C1245 1.387 . S
H1243 C1239 0.950 1_455 S
H1244 C1241 0.950 . S
C1245 C1236 1.390 . S
C1245 H1238 0.950 . S
C1245 C1242 1.387 . S
C1246 C1247 1.387 . S
C1246 H1250 0.950 . S
C1246 C1255 1.390 . S
C1247 C1246 1.387 . S
C1247 C1249 1.387 . S
H1248 C1255 0.950 . S
C1249 C1247 1.387 . S
C1249 C1251 1.390 . S
C1249 H1253 0.950 . S
H1250 C1246 0.950 . S
C1251 C1249 1.390 . S
C1251 C1252 1.387 . S
C1251 H1254 0.950 . S
C1252 C1251 1.387 . S
C1252 C1255 1.387 . S
H1253 C1249 0.950 . S
H1254 C1251 0.950 . S
C1255 C1246 1.390 . S
C1255 H1248 0.950 . S
C1255 C1252 1.387 . S
C1256 C1257 1.387 1_545 S
C1256 H1260 0.950 1_545 S
C1256 C1265 1.390 . S
C1257 C1256 1.387 1_565 S
C1257 C1259 1.381 1_565 S
H1258 C1265 0.950 . S
C1259 C1257 1.381 1_545 S
C1259 C1261 1.402 . S
C1259 H1263 0.944 1_545 S
H1260 C1256 0.950 1_565 S
C1261 C1259 1.402 . S
C1261 C1262 1.387 . S
C1261 H1264 0.950 . S
C1262 C1261 1.387 . S
C1262 C1265 1.387 . S
H1263 C1259 0.944 1_565 S
H1264 C1261 0.950 . S
C1265 C1256 1.390 . S
C1265 H1258 0.950 . S
C1265 C1262 1.387 . S
C1266 C1267 1.387 . S
C1266 H1270 0.950 . S
C1266 C1275 1.390 . S
C1267 C1266 1.387 . S
C1267 C1269 1.387 . S
H1268 C1275 0.950 . S
C1269 C1267 1.387 . S
C1269 C1271 1.390 . S
C1269 H1273 0.950 . S
H1270 C1266 0.950 . S
C1271 C1269 1.390 . S
C1271 C1272 1.387 . S
C1271 H1274 0.950 . S
C1272 C1271 1.387 . S
C1272 C1275 1.387 . S
H1273 C1269 0.950 . S
H1274 C1271 0.950 . S
C1275 C1266 1.390 . S
C1275 H1268 0.950 . S
C1275 C1272 1.387 . S
C1276 C1277 1.387 . S
C1276 H1280 0.950 . S
C1276 C1285 1.390 . S
C1277 C1276 1.387 . S
C1277 C1279 1.387 . S
H1278 C1285 0.950 . S
C1279 C1277 1.387 . S
C1279 C1281 1.390 . S
C1279 H1283 0.950 . S
H1280 C1276 0.950 . S
C1281 C1279 1.390 . S
C1281 C1282 1.387 . S
C1281 H1284 0.950 . S
C1282 C1281 1.387 . S
C1282 C1285 1.387 . S
H1283 C1279 0.950 . S
H1284 C1281 0.950 . S
C1285 C1276 1.390 . S
C1285 H1278 0.950 . S
C1285 C1282 1.387 . S
C1286 C1287 1.387 . S
C1286 H1290 0.950 . S
C1286 C1295 1.390 . S
C1287 C1286 1.387 . S
C1287 C1289 1.387 . S
H1288 C1295 0.950 . S
C1289 C1287 1.387 . S
C1289 C1291 1.390 . S
C1289 H1293 0.950 . S
H1290 C1286 0.950 . S
C1291 C1289 1.390 . S
C1291 C1292 1.387 . S
C1291 H1294 0.950 . S
C1292 C1291 1.387 . S
C1292 C1295 1.387 . S
H1293 C1289 0.950 . S
H1294 C1291 0.950 . S
C1295 C1286 1.390 . S
C1295 H1288 0.950 . S
C1295 C1292 1.387 . S
C1296 C1297 1.396 . S
C1296 H1300 0.945 1_565 S
C1296 C1305 1.387 1_565 S
C1297 C1296 1.396 . S
C1297 C1299 1.387 . S
H1298 C1305 0.950 . S
C1299 C1297 1.387 . S
C1299 C1301 1.390 . S
C1299 H1303 0.950 . S
H1300 C1296 0.945 1_545 S
C1301 C1299 1.390 . S
C1301 C1302 1.387 . S
C1301 H1304 0.950 . S
C1302 C1301 1.387 . S
C1302 C1305 1.387 1_565 S
H1303 C1299 0.950 . S
H1304 C1301 0.950 . S
C1305 C1296 1.387 1_545 S
C1305 H1298 0.950 . S
C1305 C1302 1.387 1_545 S
C1306 C1307 1.387 1_655 S
C1306 H1310 0.950 . S
C1306 C1315 1.390 1_655 S
C1307 C1306 1.387 1_455 S
C1307 C1309 1.387 . S
H1308 C1315 0.950 1_655 S
C1309 C1307 1.387 . S
C1309 C1311 1.390 . S
C1309 H1313 0.950 . S
H1310 C1306 0.950 . S
C1311 C1309 1.390 . S
C1311 C1312 1.387 . S
C1311 H1314 0.950 . S
C1312 C1311 1.387 . S
C1312 C1315 1.387 . S
H1313 C1309 0.950 . S
H1314 C1311 0.950 . S
C1315 C1306 1.390 1_455 S
C1315 H1308 0.950 1_455 S
C1315 C1312 1.387 . S
C1316 C1317 1.387 . S
C1316 H1320 0.950 . S
C1316 C1325 1.390 . S
C1317 C1316 1.387 . S
C1317 C1319 1.387 . S
H1318 C1325 0.950 . S
C1319 C1317 1.387 . S
C1319 C1321 1.390 . S
C1319 H1323 0.950 . S
H1320 C1316 0.950 . S
C1321 C1319 1.390 . S
C1321 C1322 1.387 . S
C1321 H1324 0.950 . S
C1322 C1321 1.387 . S
C1322 C1325 1.387 . S
H1323 C1319 0.950 . S
H1324 C1321 0.950 . S
C1325 C1316 1.390 . S
C1325 H1318 0.950 . S
C1325 C1322 1.387 . S
C1326 C1327 1.387 1_455 S
C1326 H1330 0.950 . S
C1326 C1335 1.390 1_455 S
C1327 C1326 1.387 1_655 S
C1327 C1329 1.387 . S
H1328 C1335 0.950 1_455 S
C1329 C1327 1.387 . S
C1329 C1331 1.390 . S
C1329 H1333 0.950 . S
H1330 C1326 0.950 . S
C1331 C1329 1.390 . S
C1331 C1332 1.387 . S
C1331 H1334 0.950 . S
C1332 C1331 1.387 . S
C1332 C1335 1.387 . S
H1333 C1329 0.950 . S
H1334 C1331 0.950 . S
C1335 C1326 1.390 1_655 S
C1335 H1328 0.950 1_655 S
C1335 C1332 1.387 . S
C1336 C1337 1.387 . S
C1336 H1340 0.950 . S
C1336 C1345 1.390 . S
C1337 C1336 1.387 . S
C1337 C1339 1.387 . S
H1338 C1345 0.950 . S
C1339 C1337 1.387 . S
C1339 C1341 1.390 . S
C1339 H1343 0.950 . S
H1340 C1336 0.950 . S
C1341 C1339 1.390 . S
C1341 C1342 1.387 . S
C1341 H1344 0.950 . S
C1342 C1341 1.387 . S
C1342 C1345 1.387 . S
H1343 C1339 0.950 . S
H1344 C1341 0.950 . S
C1345 C1336 1.390 . S
C1345 H1338 0.950 . S
C1345 C1342 1.387 . S
C1346 C1347 1.387 . S
C1346 H1350 0.950 . S
C1346 C1355 1.390 . S
C1347 C1346 1.387 . S
C1347 C1349 1.387 . S
H1348 C1355 0.950 1_565 S
C1349 C1347 1.387 . S
C1349 C1351 1.390 . S
C1349 H1353 0.950 . S
H1350 C1346 0.950 . S
C1351 C1349 1.390 . S
C1351 C1352 1.387 . S
C1351 H1354 0.950 . S
C1352 C1351 1.387 . S
C1352 C1355 1.387 . S
H1353 C1349 0.950 . S
H1354 C1351 0.950 . S
C1355 C1346 1.390 . S
C1355 H1348 0.950 1_545 S
C1355 C1352 1.387 . S
C1356 C1357 1.387 . S
C1356 H1360 0.950 . S
C1356 C1365 1.390 . S
C1357 C1356 1.387 . S
C1357 C1359 1.387 . S
H1358 C1365 0.950 . S
C1359 C1357 1.387 . S
C1359 C1361 1.390 . S
C1359 H1363 0.950 . S
H1360 C1356 0.950 . S
C1361 C1359 1.390 . S
C1361 C1362 1.387 . S
C1361 H1364 0.950 . S
C1362 C1361 1.387 . S
C1362 C1365 1.387 . S
H1363 C1359 0.950 . S
H1364 C1361 0.950 . S
C1365 C1356 1.390 . S
C1365 H1358 0.950 . S
C1365 C1362 1.387 . S
C1366 C1367 1.387 . S
C1366 H1370 0.950 . S
C1366 C1375 1.390 . S
C1367 C1366 1.387 . S
C1367 C1369 1.387 . S
H1368 C1375 0.950 . S
C1369 C1367 1.387 . S
C1369 C1371 1.390 . S
C1369 H1373 0.950 . S
H1370 C1366 0.950 . S
C1371 C1369 1.390 . S
C1371 C1372 1.387 . S
C1371 H1374 0.950 . S
C1372 C1371 1.387 . S
C1372 C1375 1.387 . S
H1373 C1369 0.950 . S
H1374 C1371 0.950 . S
C1375 C1366 1.390 . S
C1375 H1368 0.950 . S
C1375 C1372 1.387 . S
C1376 C1377 1.387 . S
C1376 H1380 0.950 . S
C1376 C1385 1.390 . S
C1377 C1376 1.387 . S
C1377 C1379 1.387 . S
H1378 C1385 0.950 . S
C1379 C1377 1.387 . S
C1379 C1381 1.390 . S
C1379 H1383 0.950 . S
H1380 C1376 0.950 . S
C1381 C1379 1.390 . S
C1381 C1382 1.387 . S
C1381 H1384 0.950 . S
C1382 C1381 1.387 . S
C1382 C1385 1.387 . S
H1383 C1379 0.950 . S
H1384 C1381 0.950 . S
C1385 C1376 1.390 . S
C1385 H1378 0.950 . S
C1385 C1382 1.387 . S
C1386 C1387 1.387 . S
C1386 H1390 0.950 . S
C1386 C1395 1.390 . S
C1387 C1386 1.387 . S
C1387 C1389 1.387 . S
H1388 C1395 0.950 . S
C1389 C1387 1.387 . S
C1389 C1391 1.390 . S
C1389 H1393 0.950 . S
H1390 C1386 0.950 . S
C1391 C1389 1.390 . S
C1391 C1392 1.387 . S
C1391 H1394 0.950 . S
C1392 C1391 1.387 . S
C1392 C1395 1.387 . S
H1393 C1389 0.950 . S
H1394 C1391 0.950 . S
C1395 C1386 1.390 . S
C1395 H1388 0.950 . S
C1395 C1392 1.387 . S
C1396 C1397 1.387 . S
C1396 H1400 0.950 . S
C1396 C1405 1.390 . S
C1397 C1396 1.387 . S
C1397 C1399 1.387 . S
H1398 C1405 0.950 . S
C1399 C1397 1.387 . S
C1399 C1401 1.390 . S
C1399 H1403 0.950 . S
H1400 C1396 0.950 . S
C1401 C1399 1.390 . S
C1401 C1402 1.387 . S
C1401 H1404 0.950 . S
C1402 C1401 1.387 . S
C1402 C1405 1.387 . S
H1403 C1399 0.950 . S
H1404 C1401 0.950 . S
C1405 C1396 1.390 . S
C1405 H1398 0.950 . S
C1405 C1402 1.387 . S
C1406 C1407 1.387 . S
C1406 H1410 0.950 . S
C1406 C1415 1.390 . S
C1407 C1406 1.387 . S
C1407 C1409 1.387 . S
H1408 C1415 0.950 . S
C1409 C1407 1.387 . S
C1409 C1411 1.390 . S
C1409 H1413 0.950 . S
H1410 C1406 0.950 . S
C1411 C1409 1.390 . S
C1411 C1412 1.387 . S
C1411 H1414 0.950 . S
C1412 C1411 1.387 . S
C1412 C1415 1.387 . S
H1413 C1409 0.950 . S
H1414 C1411 0.950 . S
C1415 C1406 1.390 . S
C1415 H1408 0.950 . S
C1415 C1412 1.387 . S
C1416 C1417 1.387 . S
C1416 H1420 0.950 . S
C1416 C1425 1.390 . S
C1417 C1416 1.387 . S
C1417 C1419 1.387 . S
H1418 C1425 0.950 . S
C1419 C1417 1.387 . S
C1419 C1421 1.390 . S
C1419 H1423 0.950 . S
H1420 C1416 0.950 . S
C1421 C1419 1.390 . S
C1421 C1422 1.387 . S
C1421 H1424 0.950 . S
C1422 C1421 1.387 . S
C1422 C1425 1.387 . S
H1423 C1419 0.950 . S
H1424 C1421 0.950 . S
C1425 C1416 1.390 . S
C1425 H1418 0.950 . S
C1425 C1422 1.387 . S
C1426 C1427 1.387 . S
C1426 H1430 0.950 . S
C1426 C1435 1.390 . S
C1427 C1426 1.387 . S
C1427 C1429 1.387 . S
H1428 C1435 0.950 . S
C1429 C1427 1.387 . S
C1429 C1431 1.390 . S
C1429 H1433 0.950 . S
H1430 C1426 0.950 . S
C1431 C1429 1.390 . S
C1431 C1432 1.387 . S
C1431 H1434 0.950 . S
C1432 C1431 1.387 . S
C1432 C1435 1.387 . S
H1433 C1429 0.950 . S
H1434 C1431 0.950 . S
C1435 C1426 1.390 . S
C1435 H1428 0.950 . S
C1435 C1432 1.387 . S
C1436 C1437 1.387 . S
C1436 H1440 0.950 . S
C1436 C1445 1.390 . S
C1437 C1436 1.387 . S
C1437 C1439 1.387 . S
H1438 C1445 0.950 . S
C1439 C1437 1.387 . S
C1439 C1441 1.390 . S
C1439 H1443 0.950 . S
H1440 C1436 0.950 . S
C1441 C1439 1.390 . S
C1441 C1442 1.387 . S
C1441 H1444 0.950 . S
C1442 C1441 1.387 . S
C1442 C1445 1.387 . S
H1443 C1439 0.950 . S
H1444 C1441 0.950 . S
C1445 C1436 1.390 . S
C1445 H1438 0.950 . S
C1445 C1442 1.387 . S
C1446 C1447 1.387 . S
C1446 H1450 0.950 . S
C1446 C1455 1.390 . S
C1447 C1446 1.387 . S
C1447 C1449 1.387 . S
H1448 C1455 0.950 . S
C1449 C1447 1.387 . S
C1449 C1451 1.390 . S
C1449 H1453 0.950 . S
H1450 C1446 0.950 . S
C1451 C1449 1.390 . S
C1451 C1452 1.387 . S
C1451 H1454 0.950 . S
C1452 C1451 1.387 . S
C1452 C1455 1.387 . S
H1453 C1449 0.950 . S
H1454 C1451 0.950 . S
C1455 C1446 1.390 . S
C1455 H1448 0.950 . S
C1455 C1452 1.387 . S
C1456 C1457 1.387 . S
C1456 H1460 0.950 . S
C1456 C1465 1.390 . S
C1457 C1456 1.387 . S
C1457 C1459 1.387 . S
H1458 C1465 0.950 . S
C1459 C1457 1.387 . S
C1459 C1461 1.390 . S
C1459 H1463 0.950 . S
H1460 C1456 0.950 . S
C1461 C1459 1.390 . S
C1461 C1462 1.387 . S
C1461 H1464 0.950 . S
C1462 C1461 1.387 . S
C1462 C1465 1.387 . S
H1463 C1459 0.950 . S
H1464 C1461 0.950 . S
C1465 C1456 1.390 . S
C1465 H1458 0.950 . S
C1465 C1462 1.387 . S
C1466 C1467 1.387 . S
C1466 H1470 0.950 . S
C1466 C1475 1.390 . S
C1467 C1466 1.387 . S
C1467 C1469 1.387 . S
H1468 C1475 0.950 . S
C1469 C1467 1.387 . S
C1469 C1471 1.390 . S
C1469 H1473 0.950 . S
H1470 C1466 0.950 . S
C1471 C1469 1.390 . S
C1471 C1472 1.387 . S
C1471 H1474 0.950 . S
C1472 C1471 1.387 . S
C1472 C1475 1.387 . S
H1473 C1469 0.950 . S
H1474 C1471 0.950 . S
C1475 C1466 1.390 . S
C1475 H1468 0.950 . S
C1475 C1472 1.387 . S
C937 C439 1.524 . S
C942 C579 1.669 . S
C947 C465 1.796 . S
C952 C619 1.778 . S
C957 C401 1.771 . S
C962 C671 1.728 . S
C967 C369 1.614 . S
C972 C631 1.576 . S
C982 C659 1.549 . S
C977 C305 1.550 . S
C987 C343 1.325 . S
C992 C591 1.497 . S
C1002 C598 1.700 . S
C997 C375 1.727 . S
C1012 C638 1.748 . S
C1007 C311 1.766 . S
C1017 C337 1.597 . S
C1022 C658 1.730 . S
C1027 C433 1.479 . S
C1032 C618 1.577 . S
C1037 C471 1.520 . S
C1042 C678 1.515 . S
C1052 C578 1.520 . S
C1047 C407 1.543 . S
C1062 C699 1.669 . S
C1057 C55 1.525 . S
C1067 C81 1.796 . S
C1072 C739 1.778 . S
C1077 C17 1.770 . S
C1082 C791 1.728 . S
C1087 C561 1.614 . S
C1092 C751 1.575 . S
C1097 C497 1.550 . S
C1102 C779 1.549 . S
C1107 C535 1.330 . S
C1112 C711 1.487 . S
C1117 C567 1.728 . S
C1122 C718 1.701 . S
C1127 C503 1.765 . S
C1132 C758 1.748 . S
C1142 C778 1.730 . S
C1137 C529 1.597 . S
C1147 C49 1.479 . S
C1152 C738 1.575 . S
C1162 C798 1.515 . S
C1157 C87 1.520 1_455 S
C1167 C23 1.544 . S
C1172 C698 1.522 . S
C1182 C819 1.671 . S
C1177 C247 1.529 . S
C1187 C273 1.796 . S
C1192 C859 1.779 . S
C1202 C911 1.728 . S
C1197 C209 1.771 . S
C1212 C871 1.575 . S
C1207 C177 1.614 . S
C1222 C899 1.549 . S
C1217 C113 1.548 1_655 S
C1227 C151 1.324 . S
C1232 C831 1.486 . S
C1237 C183 1.728 . S
C1242 C838 1.700 . S
C1247 C119 1.765 . S
C1252 C878 1.747 . S
C1262 C898 1.731 . S
C1257 C145 1.601 . S
C1267 C241 1.478 . S
C1272 C858 1.575 . S
C1277 C279 1.521 . S
C1282 C918 1.516 . S
C1287 C215 1.543 . S
C1292 C818 1.520 . S
C1297 C509 1.412 . S
C1302 C602 1.421 . S
C1312 C642 1.755 . S
C1307 C541 1.660 . S
C1317 C573 1.560 . S
C1322 C665 1.554 . S
C1327 C221 1.821 . S
C1332 C625 1.775 . S
C1337 C253 1.465 . S
C1342 C682 1.534 . S
C1352 C585 1.420 . S
C1347 C285 1.404 . S
C1357 C125 1.411 . S
C1362 C722 1.423 . S
C1367 C157 1.664 . S
C1372 C762 1.758 . S
C1377 C189 1.560 . S
C1382 C785 1.554 . S
C1387 C413 1.820 . S
C1392 C745 1.774 . S
C1402 C802 1.532 . S
C1397 C445 1.462 . S
C1407 C477 1.403 . S
C1412 C705 1.420 . S
C1417 C317 1.413 . S
C1422 C842 1.422 . S
C1427 C349 1.660 . S
C1432 C882 1.755 . S
C1442 C905 1.553 . S
C1437 C381 1.560 . S
C1447 C29 1.820 . S
C1452 C865 1.774 . S
C1457 C61 1.465 . S
C1462 C922 1.534 . S
C1467 C93 1.402 . S
C1472 C825 1.418 . S
