# Generated by pormake.
# Topology apo, (3,6)-cn, num edge types: 1
# Building blocks:
#     Node 0, Type 0, BuildingBlock: PAMTOO_clean_linker_0, # of connection points: 3
#     Node 1, Type 0, BuildingBlock: PAMTOO_clean_linker_0, # of connection points: 3
#     Node 2, Type 0, BuildingBlock: PAMTOO_clean_linker_0, # of connection points: 3
#     Node 3, Type 0, BuildingBlock: PAMTOO_clean_linker_0, # of connection points: 3
#     Node 4, Type 0, BuildingBlock: PAMTOO_clean_linker_0, # of connection points: 3
#     Node 5, Type 0, BuildingBlock: PAMTOO_clean_linker_0, # of connection points: 3
#     Node 6, Type 0, BuildingBlock: PAMTOO_clean_linker_0, # of connection points: 3
#     Node 7, Type 0, BuildingBlock: PAMTOO_clean_linker_0, # of connection points: 3
#     Node 8, Type 1, BuildingBlock: KUMBUR_clean_sbu_1, # of connection points: 6
#     Node 9, Type 1, BuildingBlock: KUMBUR_clean_sbu_1, # of connection points: 6
#     Node 10, Type 1, BuildingBlock: KUMBUR_clean_sbu_1, # of connection points: 6
#     Node 11, Type 1, BuildingBlock: KUMBUR_clean_sbu_1, # of connection points: 6
#     Edge 12, Type (0, 1), BuildingBlock: AJUNOK_clean_linker_0, # of connection points: 2
#     Edge 13, Type (0, 1), BuildingBlock: AJUNOK_clean_linker_0, # of connection points: 2
#     Edge 14, Type (0, 1), BuildingBlock: AJUNOK_clean_linker_0, # of connection points: 2
#     Edge 15, Type (0, 1), BuildingBlock: AJUNOK_clean_linker_0, # of connection points: 2
#     Edge 16, Type (0, 1), BuildingBlock: AJUNOK_clean_linker_0, # of connection points: 2
#     Edge 17, Type (0, 1), BuildingBlock: AJUNOK_clean_linker_0, # of connection points: 2
#     Edge 18, Type (0, 1), BuildingBlock: AJUNOK_clean_linker_0, # of connection points: 2
#     Edge 19, Type (0, 1), BuildingBlock: AJUNOK_clean_linker_0, # of connection points: 2
#     Edge 20, Type (0, 1), BuildingBlock: AJUNOK_clean_linker_0, # of connection points: 2
#     Edge 21, Type (0, 1), BuildingBlock: AJUNOK_clean_linker_0, # of connection points: 2
#     Edge 22, Type (0, 1), BuildingBlock: AJUNOK_clean_linker_0, # of connection points: 2
#     Edge 23, Type (0, 1), BuildingBlock: AJUNOK_clean_linker_0, # of connection points: 2
#     Edge 24, Type (0, 1), BuildingBlock: AJUNOK_clean_linker_0, # of connection points: 2
#     Edge 25, Type (0, 1), BuildingBlock: AJUNOK_clean_linker_0, # of connection points: 2
#     Edge 26, Type (0, 1), BuildingBlock: AJUNOK_clean_linker_0, # of connection points: 2
#     Edge 27, Type (0, 1), BuildingBlock: AJUNOK_clean_linker_0, # of connection points: 2
#     Edge 28, Type (0, 1), BuildingBlock: AJUNOK_clean_linker_0, # of connection points: 2
#     Edge 29, Type (0, 1), BuildingBlock: AJUNOK_clean_linker_0, # of connection points: 2
#     Edge 30, Type (0, 1), BuildingBlock: AJUNOK_clean_linker_0, # of connection points: 2
#     Edge 31, Type (0, 1), BuildingBlock: AJUNOK_clean_linker_0, # of connection points: 2
#     Edge 32, Type (0, 1), BuildingBlock: AJUNOK_clean_linker_0, # of connection points: 2
#     Edge 33, Type (0, 1), BuildingBlock: AJUNOK_clean_linker_0, # of connection points: 2
#     Edge 34, Type (0, 1), BuildingBlock: AJUNOK_clean_linker_0, # of connection points: 2
#     Edge 35, Type (0, 1), BuildingBlock: AJUNOK_clean_linker_0, # of connection points: 2
# Relax obj value: 0.038
# Max RMSD: 0.244
# Mean RMSD: 0.173
data_MOF--net-apo--node1-KUMBUR_clean_sbu_1--node2-PAMTOO_clean_linker_0--edge1-AJUNOK_clean_linker_0
_symmetry_space_group_name_H-M    P1
_symmetry_Int_Tables_number       1
_symmetry_cell_setting            triclinic
loop_
_symmetry_equiv_pos_as_xyz
'x, y, z'
_cell_length_a     20.627296
_cell_length_b     30.717594
_cell_length_c     38.75805
_cell_angle_alpha  89.698508
_cell_angle_beta   90.08832
_cell_angle_gamma 90.556966
loop_
_atom_site_label
_atom_site_type_symbol
_atom_site_fract_x
_atom_site_fract_y
_atom_site_fract_z
_atom_type_partial_charge
H0 H 0.35502 0.47552 0.44303 0.0
H1 H 0.28999 0.40767 0.3521 0.0
H2 H 0.23864 0.35864 0.45234 0.0
H3 H 0.27658 0.29338 0.40297 0.0
C4 C 0.25432 0.30677 0.37907 0.0
O5 O 0.22653 0.34645 0.38604 0.0
H6 H 0.29372 0.3113 0.35976 0.0
C7 C 0.32851 0.44879 0.43128 0.0
C8 C 0.29802 0.41713 0.45226 0.0
C9 C 0.32626 0.44536 0.3951 0.0
C10 C 0.29228 0.41052 0.37994 0.0
C11 C 0.26062 0.37942 0.40065 0.0
C12 C 0.26358 0.38279 0.43662 0.0
H13 H 0.15551 0.05757 0.93058 0.0
H14 H 0.2467 0.18234 0.94708 0.0
H15 H 0.24954 0.1245 0.84635 0.0
H16 H 0.37359 0.1615 0.87929 0.0
C17 C 0.35319 0.19387 0.8858 0.0
O18 O 0.28639 0.19187 0.88304 0.0
H19 H 0.36665 0.20164 0.91288 0.0
C20 C 0.18279 0.08532 0.92078 0.0
C21 C 0.2009 0.0865 0.88591 0.0
C22 C 0.1994 0.11928 0.94327 0.0
C23 C 0.23382 0.15555 0.93025 0.0
C24 C 0.25196 0.15734 0.89532 0.0
C25 C 0.2352 0.12294 0.87321 0.0
H26 H 0.91899 0.07767 0.6127 0.0
H27 H 0.81331 0.12924 0.69924 0.0
H28 H 0.80552 0.19403 0.60153 0.0
H29 H 0.8203 0.25305 0.65942 0.0
C30 C 0.79669 0.23322 0.68007 0.0
O31 O 0.76925 0.19632 0.66587 0.0
H32 H 0.83493 0.22422 0.69905 0.0
C33 C 0.88699 0.10173 0.62361 0.0
C34 C 0.86276 0.13529 0.60235 0.0
C35 C 0.87009 0.09932 0.65892 0.0
C36 C 0.8285 0.13085 0.67252 0.0
C37 C 0.80612 0.16494 0.65189 0.0
C38 C 0.82277 0.16701 0.61699 0.0
H39 H 0.62281 0.44007 0.11778 0.0
H40 H 0.73908 0.32493 0.10907 0.0
H41 H 0.73481 0.39413 0.20458 0.0
H42 H 0.85943 0.3614 0.18738 0.0
C43 C 0.84579 0.33057 0.17414 0.0
O44 O 0.77927 0.32601 0.17313 0.0
H45 H 0.86515 0.33236 0.14737 0.0
C46 C 0.65595 0.41688 0.12917 0.0
C47 C 0.6753 0.42155 0.1639 0.0
C48 C 0.67899 0.38229 0.10906 0.0
C49 C 0.7216 0.35214 0.12399 0.0
C50 C 0.74069 0.35626 0.15849 0.0
C51 C 0.71813 0.39098 0.17819 0.0
H52 H 0.65233 0.56994 0.60622 0.0
H53 H 0.77006 0.68682 0.60528 0.0
H54 H 0.73919 0.61812 0.70011 0.0
H55 H 0.7334 0.70935 0.70984 0.0
C56 C 0.7624 0.72145 0.68754 0.0
O57 O 0.79196 0.68679 0.67156 0.0
H58 H 0.72896 0.73735 0.66888 0.0
C59 C 0.68252 0.5935 0.61958 0.0
C60 C 0.69277 0.58922 0.65548 0.0
C61 C 0.70959 0.62889 0.60102 0.0
C62 C 0.74741 0.65984 0.61893 0.0
C63 C 0.75711 0.65613 0.65454 0.0
C64 C 0.73045 0.62079 0.6726 0.0
H65 H 0.86916 0.97321 0.11029 0.0
H66 H 0.81681 0.89672 0.19954 0.0
H67 H 0.76116 0.85316 0.09853 0.0
H68 H 0.6596 0.84234 0.14877 0.0
C69 C 0.68816 0.83932 0.17301 0.0
O70 O 0.75333 0.8365 0.16497 0.0
H71 H 0.68059 0.86923 0.18853 0.0
C72 C 0.84571 0.94466 0.12139 0.0
C73 C 0.81609 0.91366 0.09965 0.0
C74 C 0.84673 0.93858 0.15735 0.0
C75 C 0.8169 0.90145 0.1718 0.0
C76 C 0.78567 0.87081 0.15063 0.0
C77 C 0.78601 0.87674 0.11464 0.0
H78 H 0.15886 0.95682 0.43214 0.0
H79 H 0.26137 0.83681 0.44806 0.0
H80 H 0.24202 0.8891 0.34601 0.0
H81 H 0.21621 0.79233 0.35695 0.0
C82 C 0.25916 0.78631 0.37369 0.0
O83 O 0.28773 0.82512 0.38329 0.0
H84 H 0.24225 0.76842 0.39709 0.0
C85 C 0.18562 0.92952 0.42201 0.0
C86 C 0.19848 0.92736 0.3864 0.0
C87 C 0.20725 0.89679 0.44462 0.0
C88 C 0.24177 0.86158 0.43111 0.0
C89 C 0.25315 0.8586 0.39567 0.0
C90 C 0.23146 0.89129 0.37333 0.0
H91 H 0.37748 0.5549 0.92869 0.0
H92 H 0.29035 0.61873 0.8412 0.0
H93 H 0.26177 0.66945 0.94275 0.0
H94 H 0.14855 0.67336 0.89871 0.0
C95 C 0.17206 0.67723 0.87304 0.0
O96 O 0.23834 0.68094 0.87707 0.0
H97 H 0.16015 0.64779 0.85754 0.0
C98 C 0.34728 0.5804 0.91815 0.0
C99 C 0.3198 0.61112 0.94047 0.0
C100 C 0.33585 0.58213 0.88233 0.0
C101 C 0.29983 0.61672 0.86867 0.0
C102 C 0.27396 0.64827 0.89047 0.0
C103 C 0.28384 0.64547 0.92619 0.0
Tb104 Tb 0.1001 0.13165 0.23918 0.0
C105 C 0.85264 0.05164 0.29482 0.0
N106 N 0.86602 0.09472 0.29083 0.0
C107 C 0.76388 0.10504 0.26254 0.0
C108 C 0.79555 0.03299 0.28123 0.0
C109 C 0.82157 0.12197 0.27631 0.0
C110 C 0.75124 0.06026 0.26454 0.0
C111 C 0.88341 0.98206 0.31897 0.0
C112 C 0.89625 0.02663 0.31314 0.0
C113 C 0.82817 0.96262 0.30406 0.0
C114 C 0.78428 0.98806 0.28521 0.0
Tb115 Tb 0.9624 0.11883 0.31279 0.0
N116 N 0.94875 0.04679 0.32731 0.0
C117 C 0.92491 0.95891 0.3408 0.0
C118 C 0.98522 0.0254 0.35139 0.0
C119 C 0.97507 0.98097 0.35776 0.0
H120 H 0.83146 0.15653 0.27469 0.0
H121 H 0.00548 0.96392 0.37607 0.0
H122 H 0.20913 0.05532 0.26222 0.0
H123 H 0.1397 0.30066 0.20857 0.0
H124 H 0.022 0.0425 0.36601 0.0
H125 H 0.9168 0.9246 0.346 0.0
H126 H 0.08057 0.22998 0.20819 0.0
H127 H 0.72934 0.12648 0.2503 0.0
H128 H 0.81791 0.92826 0.30784 0.0
H129 H 0.7411 0.97289 0.27456 0.0
H130 H 0.314 0.05373 0.2922 0.0
H131 H 0.70669 0.04723 0.25373 0.0
H132 H 0.24427 0.30737 0.23974 0.0
N133 N 0.20151 0.12463 0.26343 0.0
C134 C 0.23507 0.16245 0.26808 0.0
C135 C 0.29183 0.08464 0.28614 0.0
C136 C 0.29696 0.16306 0.28358 0.0
C137 C 0.23127 0.08577 0.26985 0.0
C138 C 0.32422 0.12352 0.29376 0.0
N139 N 0.15044 0.19794 0.23933 0.0
C140 C 0.12619 0.23287 0.22178 0.0
C141 C 0.24467 0.23974 0.25588 0.0
C142 C 0.20946 0.20026 0.25466 0.0
C143 C 0.21869 0.2764 0.23947 0.0
C144 C 0.15961 0.27276 0.22189 0.0
H145 H 0.37156 0.12252 0.30587 0.0
H146 H 0.37802 0.204 0.29914 0.0
H147 H 0.33217 0.27124 0.27474 0.0
O148 O 0.0767 0.14167 0.18702 0.0
O149 O 0.08378 0.18358 0.27719 0.0
O150 O 0.05667 0.14724 0.32679 0.0
O151 O 0.16757 0.11354 0.20117 0.0
O152 O 0.00525 0.16061 0.22814 0.0
O153 O 0.95505 0.17752 0.28024 0.0
O154 O 0.92135 0.11003 0.3622 0.0
O155 O 0.94488 0.09724 0.25914 0.0
O156 O 0.04218 0.0715 0.23997 0.0
O157 O 0.91852 0.17213 0.33703 0.0
O158 O 0.06042 0.09438 0.32299 0.0
O159 O 0.09824 0.07127 0.27021 0.0
C160 C 0.0848 0.18026 0.31097 0.0
C161 C 0.1229 0.0941 0.14724 0.0
C162 C 0.13073 0.07974 0.08558 0.0
C163 C 0.10296 0.03831 0.09121 0.0
C164 C 0.09583 0.05256 0.1525 0.0
C165 C 0.08591 0.0248 0.12453 0.0
C166 C 0.1405 0.10752 0.11384 0.0
C167 C 0.96581 0.18446 0.24697 0.0
C168 C 0.13007 0.12487 0.17581 0.0
C169 C 0.33076 0.2028 0.28692 0.0
C170 C 0.30478 0.24106 0.27293 0.0
C171 C 0.97865 0.06874 0.2417 0.0
C172 C 0.9349 0.17135 0.39777 0.0
C173 C 0.94111 0.17346 0.46095 0.0
C174 C 0.98736 0.20725 0.45838 0.0
C175 C 0.98063 0.20553 0.39606 0.0
C176 C 0.91522 0.15549 0.43037 0.0
C177 C 0.0067 0.22318 0.42618 0.0
C178 C 0.09472 0.06773 0.30402 0.0
C179 C 0.90933 0.15108 0.36586 0.0
H180 H 0.0949 0.01628 0.06986 0.0
H181 H 0.08194 0.04184 0.17809 0.0
H182 H 0.06467 0.99283 0.12866 0.0
H183 H 0.16042 0.13994 0.10976 0.0
H184 H 0.00781 0.2219 0.48136 0.0
H185 H 0.99675 0.21845 0.37146 0.0
H186 H 0.88049 0.12884 0.43188 0.0
H187 H 0.04214 0.24933 0.42456 0.0
Tb188 Tb 0.4616 0.3856 0.73378 0.0
C189 C 0.72384 0.44239 0.78782 0.0
N190 N 0.69581 0.40267 0.79291 0.0
C191 C 0.79495 0.36835 0.77609 0.0
C192 C 0.78738 0.44671 0.77484 0.0
C193 C 0.73214 0.36597 0.78959 0.0
C194 C 0.82223 0.40889 0.76795 0.0
C195 C 0.71844 0.52053 0.79552 0.0
C196 C 0.69028 0.47872 0.79807 0.0
C197 C 0.78039 0.52535 0.7809 0.0
C198 C 0.8148 0.48847 0.77053 0.0
Tb199 Tb 0.5904 0.40299 0.81198 0.0
N200 N 0.62986 0.47276 0.81118 0.0
C201 C 0.68387 0.55597 0.80835 0.0
C202 C 0.59764 0.50666 0.82582 0.0
C203 C 0.62367 0.54888 0.82411 0.0
H204 H 0.71339 0.33482 0.79794 0.0
H205 H 0.59727 0.57588 0.83485 0.0
H206 H 0.33002 0.42758 0.76817 0.0
H207 H 0.50866 0.2256 0.68131 0.0
H208 H 0.55125 0.50112 0.83806 0.0
H209 H 0.7038 0.58869 0.80693 0.0
H210 H 0.52915 0.3037 0.68945 0.0
H211 H 0.82266 0.33896 0.77259 0.0
H212 H 0.8027 0.55727 0.77825 0.0
H213 H 0.86329 0.49251 0.76021 0.0
H214 H 0.22307 0.40129 0.78846 0.0
H215 H 0.8712 0.41072 0.75793 0.0
H216 H 0.40914 0.1913 0.70496 0.0
N217 N 0.36106 0.36495 0.75238 0.0
C218 C 0.34451 0.32248 0.74777 0.0
C219 C 0.25698 0.37872 0.77728 0.0
C220 C 0.28417 0.30598 0.75901 0.0
C221 C 0.31775 0.39347 0.76597 0.0
C222 C 0.24031 0.3347 0.77409 0.0
N223 N 0.44611 0.31329 0.72117 0.0
C224 C 0.48739 0.28905 0.70168 0.0
C225 C 0.37414 0.2512 0.72708 0.0
C226 C 0.38909 0.29558 0.73224 0.0
C227 C 0.41874 0.22554 0.70946 0.0
C228 C 0.47511 0.24475 0.69622 0.0
H229 H 0.19336 0.32332 0.78306 0.0
H230 H 0.22384 0.24807 0.76359 0.0
H231 H 0.30256 0.20008 0.73549 0.0
O232 O 0.43411 0.3766 0.6819 0.0
O233 O 0.44012 0.36002 0.78579 0.0
O234 O 0.53845 0.34026 0.80873 0.0
O235 O 0.42132 0.43837 0.70661 0.0
O236 O 0.56085 0.36097 0.72709 0.0
O237 O 0.60161 0.3432 0.78122 0.0
O238 O 0.56167 0.41502 0.86301 0.0
O239 O 0.57529 0.45301 0.77162 0.0
O240 O 0.5572 0.41344 0.72301 0.0
O241 O 0.65291 0.38545 0.85289 0.0
O242 O 0.49021 0.42303 0.8193 0.0
O243 O 0.44993 0.44431 0.7658 0.0
C244 C 0.47582 0.33338 0.80421 0.0
C245 C 0.35273 0.42195 0.65876 0.0
C246 C 0.29895 0.42667 0.60256 0.0
C247 C 0.24093 0.43739 0.6193 0.0
C248 C 0.29421 0.43239 0.675 0.0
C249 C 0.23861 0.43995 0.65529 0.0
C250 C 0.35471 0.41893 0.62256 0.0
C251 C 0.59943 0.33812 0.74739 0.0
C252 C 0.4133 0.4161 0.67841 0.0
C253 C 0.26976 0.26153 0.75487 0.0
C254 C 0.31468 0.23418 0.73896 0.0
C255 C 0.58103 0.44799 0.73819 0.0
C256 C 0.60013 0.36667 0.9051 0.0
C257 C 0.60189 0.34991 0.96679 0.0
C258 C 0.56789 0.31096 0.9602 0.0
C259 C 0.5666 0.32752 0.89907 0.0
C260 C 0.61836 0.37757 0.939 0.0
C261 C 0.55068 0.29979 0.92649 0.0
C262 C 0.45417 0.44821 0.7997 0.0
C263 C 0.6127 0.39752 0.87663 0.0
H264 H 0.19728 0.44343 0.60452 0.0
H265 H 0.2916 0.43528 0.70276 0.0
H266 H 0.19363 0.44812 0.66794 0.0
H267 H 0.4001 0.41149 0.6099 0.0
H268 H 0.55514 0.28902 0.98115 0.0
H269 H 0.5522 0.31871 0.87326 0.0
H270 H 0.64394 0.40794 0.94385 0.0
H271 H 0.52458 0.26969 0.9216 0.0
Tb272 Tb 0.08556 0.89187 0.73812 0.0
C273 C 0.8165 0.85922 0.80293 0.0
N274 N 0.84783 0.89793 0.79873 0.0
C275 C 0.7512 0.92943 0.77541 0.0
C276 C 0.75174 0.8535 0.7922 0.0
C277 C 0.81592 0.93325 0.78594 0.0
C278 C 0.71911 0.88928 0.77826 0.0
C279 C 0.81981 0.78445 0.82268 0.0
C280 C 0.85026 0.82527 0.81773 0.0
C281 C 0.7559 0.77795 0.811 0.0
C282 C 0.72188 0.81245 0.79584 0.0
Tb283 Tb 0.9536 0.90082 0.8159 0.0
N284 N 0.91206 0.83291 0.82852 0.0
C285 C 0.85386 0.75187 0.8401 0.0
C286 C 0.94276 0.80258 0.84842 0.0
C287 C 0.9151 0.76132 0.85368 0.0
H288 H 0.84011 0.96448 0.78397 0.0
H289 H 0.94051 0.73713 0.86878 0.0
H290 H 0.18221 0.81227 0.7682 0.0
H291 H 0.14708 0.05604 0.70005 0.0
H292 H 0.98763 0.81035 0.86129 0.0
H293 H 0.83226 0.72002 0.84446 0.0
H294 H 0.08036 0.98849 0.70127 0.0
H295 H 0.72619 0.9574 0.76501 0.0
H296 H 0.7319 0.74666 0.81424 0.0
H297 H 0.67232 0.8072 0.78741 0.0
H298 H 0.28473 0.80746 0.80023 0.0
H299 H 0.66918 0.88632 0.7698 0.0
H300 H 0.25054 0.05945 0.73251 0.0
N301 N 0.18431 0.88158 0.76464 0.0
C302 C 0.22303 0.91756 0.76709 0.0
C303 C 0.26733 0.83886 0.7917 0.0
C304 C 0.28371 0.91614 0.7838 0.0
C305 C 0.20801 0.84193 0.77434 0.0
C306 C 0.30472 0.87632 0.79717 0.0
N307 N 0.14505 0.9549 0.73456 0.0
C308 C 0.12563 0.98986 0.71532 0.0
C309 C 0.24278 0.99299 0.7511 0.0
C310 C 0.20343 0.95533 0.75082 0.0
C311 C 0.22167 0.0298 0.73297 0.0
C312 C 0.16324 0.02801 0.71462 0.0
H313 H 0.35101 0.87378 0.81024 0.0
H314 H 0.36878 0.95373 0.79855 0.0
H315 H 0.33271 0.02116 0.77 0.0
O316 O 0.07172 0.89969 0.68436 0.0
O317 O 0.08231 0.94776 0.77305 0.0
O318 O 0.0559 0.91649 0.82427 0.0
O319 O 0.14511 0.85758 0.70412 0.0
O320 O 0.99579 0.92695 0.72685 0.0
O321 O 0.95962 0.95648 0.77905 0.0
O322 O 0.93262 0.89596 0.86874 0.0
O323 O 0.92376 0.87698 0.765 0.0
O324 O 0.01052 0.84052 0.74183 0.0
O325 O 0.92649 0.95765 0.84269 0.0
O326 O 0.04218 0.86269 0.8242 0.0
O327 O 0.07155 0.83435 0.77133 0.0
C328 C 0.08749 0.94605 0.80656 0.0
C329 C 0.16964 0.89559 0.65289 0.0
C330 C 0.20544 0.91143 0.59404 0.0
C331 C 0.26295 0.92976 0.60737 0.0
C332 C 0.22806 0.91333 0.66546 0.0
C333 C 0.27395 0.93077 0.64283 0.0
C334 C 0.15832 0.89499 0.61713 0.0
C335 C 0.96523 0.95704 0.74477 0.0
C336 C 0.12166 0.87619 0.67677 0.0
C337 C 0.32232 0.95406 0.78547 0.0
C338 C 0.30191 0.99242 0.76911 0.0
C339 C 0.94786 0.84457 0.74744 0.0
C340 C 0.86086 0.94604 0.89317 0.0
C341 C 0.81011 0.94536 0.95043 0.0
C342 C 0.75403 0.96333 0.93567 0.0
C343 C 0.80426 0.96381 0.87908 0.0
C344 C 0.86347 0.93692 0.92886 0.0
C345 C 0.7512 0.97233 0.90029 0.0
C346 C 0.06764 0.83178 0.80521 0.0
C347 C 0.91824 0.93673 0.87175 0.0
H348 H 0.30029 0.94231 0.59029 0.0
H349 H 0.23892 0.91307 0.69269 0.0
H350 H 0.31879 0.94435 0.6528 0.0
H351 H 0.11323 0.88143 0.60737 0.0
H352 H 0.71212 0.9701 0.9515 0.0
H353 H 0.80105 0.97129 0.85183 0.0
H354 H 0.90756 0.92386 0.93991 0.0
H355 H 0.70764 0.98605 0.88926 0.0
Tb356 Tb 0.44234 0.62351 0.23442 0.0
C357 C 0.70926 0.68341 0.28524 0.0
N358 N 0.6865 0.64172 0.28473 0.0
C359 C 0.78462 0.61807 0.25799 0.0
C360 C 0.77046 0.69423 0.27142 0.0
C361 C 0.72329 0.60896 0.27175 0.0
C362 C 0.80821 0.6609 0.25767 0.0
C363 C 0.69161 0.75901 0.29977 0.0
C364 C 0.66976 0.71539 0.2988 0.0
C365 C 0.7523 0.77013 0.28566 0.0
C366 C 0.7916 0.73783 0.2715 0.0
Tb367 Tb 0.58498 0.63089 0.30635 0.0
N368 N 0.61044 0.70358 0.31137 0.0
C369 C 0.65227 0.79 0.31539 0.0
C370 C 0.5748 0.73309 0.32937 0.0
C371 C 0.59426 0.77679 0.33087 0.0
H372 H 0.70543 0.57579 0.2721 0.0
H373 H 0.56491 0.80015 0.34444 0.0
H374 H 0.32532 0.69226 0.25356 0.0
H375 H 0.43756 0.44881 0.21612 0.0
H376 H 0.53224 0.72335 0.34358 0.0
H377 H 0.66722 0.82387 0.31665 0.0
H378 H 0.481 0.52308 0.20911 0.0
H379 H 0.81362 0.59209 0.24757 0.0
H380 H 0.76955 0.80356 0.28587 0.0
H381 H 0.83835 0.74688 0.26081 0.0
H382 H 0.21367 0.68866 0.27631 0.0
H383 H 0.85557 0.66786 0.2468 0.0
H384 H 0.32969 0.43718 0.24272 0.0
N385 N 0.3368 0.62382 0.2525 0.0
C386 C 0.30748 0.58428 0.25637 0.0
C387 C 0.23969 0.65899 0.2711 0.0
C388 C 0.24345 0.58045 0.26865 0.0
C389 C 0.30337 0.66102 0.25878 0.0
C390 C 0.20973 0.61851 0.27633 0.0
N391 N 0.40407 0.55306 0.23608 0.0
C392 C 0.43653 0.51842 0.22299 0.0
C393 C 0.3139 0.50589 0.25109 0.0
C394 C 0.34228 0.54759 0.24779 0.0
C395 C 0.34967 0.46984 0.24064 0.0
C396 C 0.41077 0.47625 0.22588 0.0
H397 H 0.16042 0.61702 0.28589 0.0
H398 H 0.16642 0.5352 0.28255 0.0
H399 H 0.22809 0.46987 0.26712 0.0
O400 O 0.45207 0.60891 0.18151 0.0
O401 O 0.4248 0.59624 0.28647 0.0
O402 O 0.52326 0.57239 0.30689 0.0
O403 O 0.38244 0.65542 0.19854 0.0
O404 O 0.53691 0.59344 0.22392 0.0
O405 O 0.5822 0.57084 0.276 0.0
O406 O 0.57637 0.63544 0.36039 0.0
O407 O 0.60132 0.6559 0.25346 0.0
O408 O 0.50397 0.68239 0.23422 0.0
O409 O 0.65543 0.6011 0.3379 0.0
O410 O 0.48956 0.65948 0.31734 0.0
O411 O 0.44687 0.68284 0.26518 0.0
C412 C 0.45961 0.57103 0.3066 0.0
C413 C 0.35524 0.61444 0.14902 0.0
C414 C 0.31808 0.59749 0.09056 0.0
C415 C 0.26114 0.57912 0.10457 0.0
C416 C 0.29801 0.59577 0.16222 0.0
C417 C 0.25145 0.57816 0.14013 0.0
C418 C 0.36501 0.61538 0.11305 0.0
C419 C 0.57327 0.56688 0.24238 0.0
C420 C 0.4042 0.63375 0.17239 0.0
C421 C 0.2154 0.53889 0.27285 0.0
C422 C 0.25058 0.50169 0.26412 0.0
C423 C 0.56745 0.68555 0.23723 0.0
C424 C 0.67447 0.63589 0.39164 0.0
C425 C 0.70558 0.64995 0.45159 0.0
C426 C 0.75472 0.67825 0.43978 0.0
C427 C 0.72439 0.66398 0.38056 0.0
C428 C 0.66564 0.62855 0.42732 0.0
C429 C 0.76416 0.68501 0.40451 0.0
C430 C 0.44989 0.6841 0.2991 0.0
C431 C 0.63023 0.61517 0.36641 0.0
H432 H 0.22343 0.5662 0.08794 0.0
H433 H 0.28861 0.59534 0.18952 0.0
H434 H 0.20729 0.56415 0.15062 0.0
H435 H 0.40894 0.62991 0.10261 0.0
H436 H 0.78622 0.69489 0.45793 0.0
H437 H 0.73279 0.66972 0.35346 0.0
H438 H 0.62722 0.60694 0.43618 0.0
H439 H 0.80241 0.7067 0.39569 0.0
C440 C 0.14245 0.95473 0.33309 0.0
C441 C 0.1786 0.96336 0.36317 0.0
C442 C 0.11854 0.98885 0.3126 0.0
C443 C 0.1296 0.03248 0.32178 0.0
H444 H 0.13034 0.92152 0.32614 0.0
H445 H 0.08809 0.98106 0.29072 0.0
S446 S 0.23182 0.07204 0.39386 0.0
N447 N 0.23216 0.01854 0.39805 0.0
N448 N 0.18587 0.08246 0.35994 0.0
C449 C 0.1689 0.04141 0.35044 0.0
C450 C 0.19372 1.00687 0.37106 0.0
C451 C 0.39237 0.55773 0.82832 0.0
C452 C 0.36029 0.54721 0.85942 0.0
C453 C 0.41944 0.52516 0.80762 0.0
C454 C 0.41562 0.4812 0.81757 0.0
H455 H 0.39867 0.59143 0.82056 0.0
H456 H 0.4464 0.53461 0.78476 0.0
S457 S 0.32917 0.43579 0.89355 0.0
N458 N 0.31985 0.48896 0.89665 0.0
N459 N 0.37262 0.42823 0.8584 0.0
C460 C 0.38118 0.47007 0.84757 0.0
C461 C 0.35306 0.50296 0.86836 0.0
C462 C 0.63186 0.56082 0.70714 0.0
C463 C 0.66351 0.55254 0.67566 0.0
C464 C 0.60549 0.52689 0.72721 0.0
C465 C 0.60978 0.4833 0.7167 0.0
H466 H 0.62691 0.59391 0.71623 0.0
H467 H 0.58072 0.53499 0.75089 0.0
S468 S 0.69079 0.44373 0.63756 0.0
N469 N 0.69979 0.49717 0.63572 0.0
N470 N 0.64973 0.43353 0.67327 0.0
C471 C 0.64138 0.4745 0.68538 0.0
C472 C 0.66836 0.50904 0.66494 0.0
C473 C 0.85259 0.01212 0.18513 0.0
C474 C 0.87984 0.97093 0.17973 0.0
C475 C 0.88432 0.04344 0.20564 0.0
C476 C 0.94476 0.03483 0.22105 0.0
H477 H 0.80651 0.02015 0.1734 0.0
H478 H 0.86198 0.0749 0.20886 0.0
S479 S 0.03624 0.93178 0.2144 0.0
N480 N 0.97002 0.92299 0.19136 0.0
N481 N 0.03022 0.98183 0.22932 0.0
C482 C 0.97233 0.99369 0.21566 0.0
C483 C 0.93966 0.96172 0.1952 0.0
C484 C 0.89313 0.02034 0.66995 0.0
C485 C 0.89458 0.06363 0.68158 0.0
C486 C 0.91462 0.98608 0.69097 0.0
C487 C 0.93783 0.9936 0.72462 0.0
H488 H 0.87472 0.01275 0.64447 0.0
H489 H 0.91296 0.95333 0.68073 0.0
S490 S 0.95565 0.10098 0.76684 0.0
N491 N 0.92461 0.11225 0.72855 0.0
N492 N 0.96291 0.04753 0.7683 0.0
C493 C 0.93937 0.03656 0.73673 0.0
C494 C 0.91837 0.07163 0.71515 0.0
C495 C 0.64968 0.50083 0.17099 0.0
C496 C 0.6513 0.45848 0.18506 0.0
C497 C 0.62619 0.53598 0.1901 0.0
C498 C 0.60439 0.53034 0.2242 0.0
H499 H 0.66661 0.50691 0.14496 0.0
H500 H 0.62474 0.56783 0.17798 0.0
S501 S 0.59447 0.42605 0.2725 0.0
N502 N 0.62558 0.41278 0.2348 0.0
N503 N 0.58395 0.47923 0.27097 0.0
C504 C 0.60639 0.48844 0.23879 0.0
C505 C 0.62916 0.45244 0.21916 0.0
C506 C 0.41996 0.4683 0.35806 0.0
C507 C 0.3598 0.47798 0.37301 0.0
C508 C 0.4525 0.49882 0.33701 0.0
C509 C 0.42536 0.53972 0.32966 0.0
H510 H 0.44207 0.43698 0.36281 0.0
H511 H 0.49874 0.49005 0.32602 0.0
S512 S 0.26947 0.58095 0.36355 0.0
N513 N 0.27493 0.5313 0.37983 0.0
N514 N 0.33541 0.58856 0.34008 0.0
C515 C 0.36515 0.54967 0.3446 0.0
C516 C 0.33254 0.51881 0.36634 0.0
C517 C 0.14803 0.05827 0.83203 0.0
C518 C 0.18118 0.04995 0.86309 0.0
C519 C 0.11967 0.02421 0.81309 0.0
C520 C 0.12283 0.98088 0.82487 0.0
H521 H 0.14138 0.09142 0.82312 0.0
H522 H 0.09287 0.03205 0.78987 0.0
S523 S 0.21458 0.94103 0.90068 0.0
N524 N 0.22386 0.99447 0.90176 0.0
N525 N 0.16878 0.93083 0.86664 0.0
C526 C 0.1592 0.97187 0.85457 0.0
C527 C 0.18889 1.00633 0.87354 0.0
C528 C 0.11823 0.10124 0.98929 0.0
C529 C 0.18128 0.11522 0.98033 0.0
C530 C 0.10206 0.0907 1.02344 0.0
C531 C 0.1481 0.09407 0.05008 0.0
H532 H 0.0814 0.09739 0.96955 0.0
H533 H 0.05328 0.07931 0.02899 0.0
S534 S 0.31946 0.12979 0.04066 0.0
N535 N 0.28973 0.13241 1.00111 0.0
N536 N 0.25894 0.11326 0.06549 0.0
C537 C 0.21064 0.10947 0.04179 0.0
C538 C 0.22729 0.11995 1.00689 0.0
C539 C 0.28052 0.45729 0.50768 0.0
C540 C 0.30155 0.41975 0.49052 0.0
C541 C 0.27984 0.45929 0.5439 0.0
C542 C 0.30125 0.42412 0.56425 0.0
H543 H 0.2631 0.48493 0.493 0.0
H544 H 0.26259 0.48863 0.5561 0.0
S545 S 0.36301 0.31902 0.53182 0.0
N546 N 0.34559 0.34702 0.49656 0.0
N547 N 0.34482 0.35092 0.56452 0.0
C548 C 0.32354 0.38675 0.54737 0.0
C549 C 0.32348 0.38452 0.51056 0.0
C550 C 0.70451 0.37343 0.04621 0.0
C551 C 0.65801 0.37687 0.0726 0.0
C552 C 0.68592 0.36617 1.01181 0.0
C553 C 0.62025 0.36125 1.00271 0.0
H554 H 0.75567 0.37618 0.05227 0.0
H555 H 0.72323 0.36316 0.99234 0.0
S556 S 0.47969 0.36822 0.06186 0.0
N557 N 0.54344 0.37572 0.08708 0.0
N558 N 0.50863 0.36142 1.02256 0.0
C559 C 0.57331 0.36512 0.02874 0.0
C560 C 0.59214 0.37315 0.06363 0.0
C561 C 0.94701 0.13969 0.55569 0.0
C562 C 0.88128 0.13909 0.56529 0.0
C563 C 0.96582 0.14928 0.52162 0.0
C564 C 0.91963 0.1582 0.49574 0.0
H565 H 0.98433 0.13459 0.57494 0.0
H566 H 0.01709 0.15066 0.51564 0.0
S567 S 0.74104 0.15715 0.50701 0.0
N568 N 0.76973 0.14522 0.54569 0.0
N569 N 0.80503 0.16368 0.4819 0.0
C570 C 0.85365 0.15573 0.5047 0.0
C571 C 0.83453 0.14616 0.53939 0.0
C572 C 0.79563 0.96104 0.04772 0.0
C573 C 0.81528 0.92073 0.06147 0.0
C574 C 0.79409 0.96861 1.01194 0.0
C575 C 0.81288 0.93638 0.98834 0.0
H576 H 0.78055 0.98686 0.06477 0.0
H577 H 0.77852 1.00016 1.00266 0.0
S578 S 0.86921 0.82543 1.01092 0.0
N579 N 0.85483 0.84834 0.04857 0.0
N580 N 0.85157 0.86246 0.9814 0.0
C581 C 0.83305 0.89602 1.00173 0.0
C582 C 0.83417 0.88819 0.03819 0.0
C583 C 0.70979 0.5977 0.54088 0.0
C584 C 0.69993 0.63342 0.56292 0.0
C585 C 0.70826 0.60263 0.50473 0.0
C586 C 0.69702 0.64347 0.48937 0.0
H587 H 0.72151 0.5661 0.5516 0.0
H588 H 0.7188 0.57478 0.48872 0.0
S589 S 0.65887 0.74571 0.53508 0.0
N590 N 0.67085 0.70986 0.5663 0.0
N591 N 0.66977 0.71914 0.49865 0.0
C592 C 0.68383 0.67882 0.51099 0.0
C593 C 0.68481 0.6738 0.54765 0.0
C594 C 0.33951 0.64247 0.99956 0.0
C595 C 0.32548 0.60614 0.97868 0.0
C596 C 0.3401 0.63907 0.03574 0.0
C597 C 0.32627 0.59926 0.05242 0.0
H598 H 0.34921 0.67396 0.98785 0.0
H599 H 0.349 0.66816 0.05076 0.0
S600 S 0.29026 0.49382 1.00987 0.0
N601 N 0.29928 0.52871 0.97767 0.0
N602 N 0.30246 0.52219 0.04538 0.0
C603 C 0.31461 0.56238 0.03188 0.0
C604 C 0.31375 0.56583 0.99513 0.0
C605 C 0.21366 0.94058 0.49882 0.0
C606 C 0.19833 0.90097 0.48252 0.0
C607 C 0.21298 0.94413 0.53483 0.0
C608 C 0.197 0.90824 0.55601 0.0
H609 H 0.22888 0.96864 0.48373 0.0
H610 H 0.22672 0.97501 0.54623 0.0
S611 S 0.14751 0.79828 0.52596 0.0
N612 N 0.16128 0.82615 0.49013 0.0
N613 N 0.16231 0.83234 0.5579 0.0
C614 C 0.17883 0.86895 0.54001 0.0
C615 C 0.17914 0.86541 0.50328 0.0
C616 C 0.17615 0.28475 0.33214 0.0
C617 C 0.20427 0.2757 0.36436 0.0
C618 C 0.13447 0.25466 0.31616 0.0
C619 C 0.12095 0.21374 0.33114 0.0
H620 H 0.1876 0.31497 0.31885 0.0
H621 H 0.11378 0.26325 0.29144 0.0
S622 S 0.1725 0.17793 0.41853 0.0
N623 N 0.20796 0.2259 0.41323 0.0
N624 N 0.13146 0.16869 0.38265 0.0
C625 C 0.14506 0.20563 0.36454 0.0
C626 C 0.18663 0.23665 0.38115 0.0
C627 C 0.34913 0.26671 0.85362 0.0
C628 C 0.38271 0.22844 0.86236 0.0
C629 C 0.37907 0.30013 0.83423 0.0
C630 C 0.44394 0.29689 0.82329 0.0
H631 H 0.29975 0.27122 0.86222 0.0
H632 H 0.35171 0.32924 0.82865 0.0
S633 S 0.55346 0.20413 0.84048 0.0
N634 N 0.48473 0.18997 0.85936 0.0
N635 N 0.54046 0.25225 0.8228 0.0
C636 C 0.47785 0.25889 0.83197 0.0
C637 C 0.44748 0.22496 0.85161 0.0
C638 C 0.71582 0.29419 0.68057 0.0
C639 C 0.74509 0.25916 0.69777 0.0
C640 C 0.66809 0.31894 0.69672 0.0
C641 C 0.64765 0.30957 0.73065 0.0
H642 H 0.73037 0.30278 0.65455 0.0
H643 H 0.64767 0.34596 0.68254 0.0
S644 S 0.70483 0.21796 0.78519 0.0
N645 N 0.74746 0.21409 0.74933 0.0
N646 N 0.65727 0.26039 0.77973 0.0
C647 C 0.67498 0.2735 0.74758 0.0
C648 C 0.72369 0.24832 0.7311 0.0
C649 C 0.90586 0.2593 0.17544 0.0
C650 C 0.87463 0.29263 0.19344 0.0
C651 C 0.93419 0.22429 0.19298 0.0
C652 C 0.93204 0.22095 0.22929 0.0
H653 H 0.90906 0.26053 0.14755 0.0
H654 H 0.9583 0.1998 0.17779 0.0
S655 S 0.85233 0.29917 0.2881 0.0
N656 N 0.84042 0.31963 0.24914 0.0
N657 N 0.89362 0.25399 0.28244 0.0
C658 C 0.89927 0.25369 0.24751 0.0
C659 C 0.87055 0.2894 0.22952 0.0
C660 C 0.8691 0.73935 0.71724 0.0
C661 C 0.81218 0.75381 0.7008 0.0
C662 C 0.91389 0.76901 0.73145 0.0
C663 C 0.90243 0.81401 0.73051 0.0
H664 H 0.8788 0.70486 0.71939 0.0
H665 H 0.95681 0.75659 0.74414 0.0
S666 S 0.76116 0.86871 0.69078 0.0
N667 N 0.74706 0.8163 0.6847 0.0
N668 N 0.83104 0.87179 0.71149 0.0
C669 C 0.84578 0.8289 0.71436 0.0
C670 C 0.80057 0.79885 0.69963 0.0
C671 C 0.6868 0.75762 0.18717 0.0
C672 C 0.66265 0.79983 0.19276 0.0
C673 C 0.65711 0.7207 0.20243 0.0
C674 C 0.60099 0.72456 0.22279 0.0
H675 H 0.72813 0.75299 0.17045 0.0
H676 H 0.67694 0.68883 0.1974 0.0
S677 S 0.52118 0.82743 0.24716 0.0
N678 N 0.58124 0.84296 0.22171 0.0
N679 N 0.52532 0.77387 0.24951 0.0
C680 C 0.57732 0.76643 0.22902 0.0
C681 C 0.60801 0.8039 0.21415 0.0
C682 C 0.33766 0.72392 0.36948 0.0
C683 C 0.30781 0.76008 0.35408 0.0
C684 C 0.38432 0.70001 0.35166 0.0
C685 C 0.40295 0.71151 0.31784 0.0
H686 H 0.32467 0.71394 0.39543 0.0
H687 H 0.40513 0.6719 0.36433 0.0
S688 S 0.34155 0.80552 0.26721 0.0
N689 N 0.30155 0.80751 0.30402 0.0
N690 N 0.38963 0.76303 0.27046 0.0
C691 C 0.37439 0.74835 0.30257 0.0
C692 C 0.32674 0.77249 0.3207 0.0
C693 C 0.12205 0.71579 0.8218 0.0
C694 C 0.14649 0.71758 0.85567 0.0
C695 C 0.09712 0.75298 0.80561 0.0
C696 C 0.0959 0.7933 0.82266 0.0
H697 H 0.1217 0.68535 0.80783 0.0
H698 H 0.07788 0.74998 0.77969 0.0
S699 S 0.15794 0.81545 0.91085 0.0
N700 N 0.17034 0.76292 0.90524 0.0
N701 N 0.12411 0.83303 0.87481 0.0
C702 C 0.12146 0.79562 0.8563 0.0
C703 C 0.14668 0.75773 0.87276 0.0
loop_
_geom_bond_atom_site_label_1
_geom_bond_atom_site_label_2
_geom_bond_distance
_geom_bond_site_symmetry_2
_ccdc_geom_bond_type
H0 C7 0.929 . S
H1 C10 0.930 . S
H2 C12 0.929 . S
H3 C4 0.969 . S
C4 H3 0.969 . S
C4 O5 1.550 . S
C4 H6 0.973 . S
O5 C4 1.550 . S
O5 C11 1.412 . S
H6 C4 0.973 . S
C7 H0 0.929 . S
C7 C8 1.400 . S
C7 C9 1.364 . S
C8 C7 1.400 . S
C8 C12 1.377 . S
C9 C7 1.364 . S
C9 C10 1.374 . S
C10 H1 0.930 . S
C10 C9 1.374 . S
C10 C11 1.383 . S
C11 O5 1.412 . S
C11 C10 1.383 . S
C11 C12 1.394 . S
C12 H2 0.929 . S
C12 C8 1.377 . S
C12 C11 1.394 . S
H13 C20 0.929 . S
H14 C23 0.930 . S
H15 C25 0.929 . S
H16 C17 0.969 . S
C17 H16 0.969 . S
C17 O18 1.550 . S
C17 H19 0.973 . S
O18 C17 1.550 . S
O18 C24 1.412 . S
H19 C17 0.973 . S
C20 H13 0.929 . S
C20 C21 1.400 . S
C20 C22 1.364 . S
C21 C20 1.400 . S
C21 C25 1.377 . S
C22 C20 1.364 . S
C22 C23 1.374 . S
C23 H14 0.930 . S
C23 C22 1.374 . S
C23 C24 1.383 . S
C24 O18 1.412 . S
C24 C23 1.383 . S
C24 C25 1.394 . S
C25 H15 0.929 . S
C25 C21 1.377 . S
C25 C24 1.394 . S
H26 C33 0.929 . S
H27 C36 0.930 . S
H28 C38 0.929 . S
H29 C30 0.969 . S
C30 H29 0.969 . S
C30 O31 1.550 . S
C30 H32 0.973 . S
O31 C30 1.550 . S
O31 C37 1.412 . S
H32 C30 0.973 . S
C33 H26 0.929 . S
C33 C34 1.400 . S
C33 C35 1.364 . S
C34 C33 1.400 . S
C34 C38 1.377 . S
C35 C33 1.364 . S
C35 C36 1.374 . S
C36 H27 0.930 . S
C36 C35 1.374 . S
C36 C37 1.383 . S
C37 O31 1.412 . S
C37 C36 1.383 . S
C37 C38 1.394 . S
C38 H28 0.929 . S
C38 C34 1.377 . S
C38 C37 1.394 . S
H39 C46 0.929 . S
H40 C49 0.930 . S
H41 C51 0.929 . S
H42 C43 0.969 . S
C43 H42 0.969 . S
C43 O44 1.550 . S
C43 H45 0.973 . S
O44 C43 1.550 . S
O44 C50 1.412 . S
H45 C43 0.973 . S
C46 H39 0.929 . S
C46 C47 1.400 . S
C46 C48 1.364 . S
C47 C46 1.400 . S
C47 C51 1.377 . S
C48 C46 1.364 . S
C48 C49 1.374 . S
C49 H40 0.930 . S
C49 C48 1.374 . S
C49 C50 1.383 . S
C50 O44 1.412 . S
C50 C49 1.383 . S
C50 C51 1.394 . S
C51 H41 0.929 . S
C51 C47 1.377 . S
C51 C50 1.394 . S
H52 C59 0.929 . S
H53 C62 0.930 . S
H54 C64 0.929 . S
H55 C56 0.969 . S
C56 H55 0.969 . S
C56 O57 1.550 . S
C56 H58 0.973 . S
O57 C56 1.550 . S
O57 C63 1.412 . S
H58 C56 0.973 . S
C59 H52 0.929 . S
C59 C60 1.400 . S
C59 C61 1.364 . S
C60 C59 1.400 . S
C60 C64 1.377 . S
C61 C59 1.364 . S
C61 C62 1.374 . S
C62 H53 0.930 . S
C62 C61 1.374 . S
C62 C63 1.383 . S
C63 O57 1.412 . S
C63 C62 1.383 . S
C63 C64 1.394 . S
C64 H54 0.929 . S
C64 C60 1.377 . S
C64 C63 1.394 . S
H65 C72 0.929 . S
H66 C75 0.930 . S
H67 C77 0.929 . S
H68 C69 0.969 . S
C69 H68 0.969 . S
C69 O70 1.550 . S
C69 H71 0.973 . S
O70 C69 1.550 . S
O70 C76 1.412 . S
H71 C69 0.973 . S
C72 H65 0.929 . S
C72 C73 1.400 . S
C72 C74 1.364 . S
C73 C72 1.400 . S
C73 C77 1.377 . S
C74 C72 1.364 . S
C74 C75 1.374 . S
C75 H66 0.930 . S
C75 C74 1.374 . S
C75 C76 1.383 . S
C76 O70 1.412 . S
C76 C75 1.383 . S
C76 C77 1.394 . S
C77 H67 0.929 . S
C77 C73 1.377 . S
C77 C76 1.394 . S
H78 C85 0.929 . S
H79 C88 0.930 . S
H80 C90 0.929 . S
H81 C82 0.969 . S
C82 H81 0.969 . S
C82 O83 1.550 . S
C82 H84 0.973 . S
O83 C82 1.550 . S
O83 C89 1.412 . S
H84 C82 0.973 . S
C85 H78 0.929 . S
C85 C86 1.400 . S
C85 C87 1.364 . S
C86 C85 1.400 . S
C86 C90 1.377 . S
C87 C85 1.364 . S
C87 C88 1.374 . S
C88 H79 0.930 . S
C88 C87 1.374 . S
C88 C89 1.383 . S
C89 O83 1.412 . S
C89 C88 1.383 . S
C89 C90 1.394 . S
C90 H80 0.929 . S
C90 C86 1.377 . S
C90 C89 1.394 . S
H91 C98 0.929 . S
H92 C101 0.930 . S
H93 C103 0.929 . S
H94 C95 0.969 . S
C95 H94 0.969 . S
C95 O96 1.550 . S
C95 H97 0.973 . S
O96 C95 1.550 . S
O96 C102 1.412 . S
H97 C95 0.973 . S
C98 H91 0.929 . S
C98 C99 1.400 . S
C98 C100 1.364 . S
C99 C98 1.400 . S
C99 C103 1.377 . S
C100 C98 1.364 . S
C100 C101 1.374 . S
C101 H92 0.930 . S
C101 C100 1.374 . S
C101 C102 1.383 . S
C102 O96 1.412 . S
C102 C101 1.383 . S
C102 C103 1.394 . S
C103 H93 0.929 . S
C103 C99 1.377 . S
C103 C102 1.394 . S
Tb104 N133 2.617 . S
Tb104 N139 2.572 . S
Tb104 O148 2.465 . S
Tb104 O149 2.387 . S
Tb104 O151 2.428 . S
Tb104 O152 2.308 . S
Tb104 O156 2.349 . S
Tb104 O159 2.393 . S
Tb104 C168 2.802 . S
C105 N106 1.379 . S
C105 C108 1.416 . S
C105 C112 1.424 . S
N106 C105 1.379 . S
N106 C109 1.334 . S
N106 Tb115 2.617 . S
C107 C109 1.390 . S
C107 C110 1.339 . S
C107 H127 0.930 . S
C108 C105 1.416 . S
C108 C110 1.416 . S
C108 C114 1.448 . S
C109 N106 1.334 . S
C109 C107 1.390 . S
C109 H120 0.930 . S
C110 C107 1.339 . S
C110 C108 1.416 . S
C110 H131 0.930 . S
C111 C112 1.413 1_565 S
C111 C113 1.427 . S
C111 C117 1.416 . S
C112 C105 1.424 . S
C112 C111 1.413 1_545 S
C112 N116 1.361 . S
C113 C111 1.427 . S
C113 C114 1.328 1_565 S
C113 H128 0.929 . S
C114 C108 1.448 . S
C114 C113 1.328 1_545 S
C114 H129 0.930 . S
Tb115 N106 2.617 . S
Tb115 N116 2.572 . S
Tb115 O150 2.349 1_655 S
Tb115 O153 2.393 . S
Tb115 O154 2.465 . S
Tb115 O155 2.387 . S
Tb115 O157 2.428 . S
Tb115 O158 2.308 1_655 S
Tb115 C179 2.802 . S
N116 C112 1.361 . S
N116 Tb115 2.572 . S
N116 C118 1.340 1_545 S
C117 C111 1.416 . S
C117 C119 1.332 . S
C117 H125 0.931 . S
C118 N116 1.340 1_565 S
C118 C119 1.407 . S
C118 H124 0.930 . S
C119 C117 1.332 . S
C119 C118 1.407 . S
C119 H121 0.929 . S
H120 C109 0.930 . S
H121 C119 0.929 . S
H122 C137 0.930 . S
H123 C144 0.929 . S
H124 C118 0.930 . S
H125 C117 0.931 . S
H126 C140 0.930 . S
H127 C107 0.930 . S
H128 C113 0.929 . S
H129 C114 0.930 . S
H130 C135 0.930 . S
H131 C110 0.930 . S
H132 C143 0.931 . S
N133 Tb104 2.617 . S
N133 C134 1.379 . S
N133 C137 1.334 . S
C134 N133 1.379 . S
C134 C136 1.416 . S
C134 C142 1.424 . S
C135 H130 0.930 . S
C135 C137 1.390 . S
C135 C138 1.339 . S
C136 C134 1.416 . S
C136 C138 1.416 . S
C136 C169 1.448 . S
C137 H122 0.930 . S
C137 N133 1.334 . S
C137 C135 1.390 . S
C138 C135 1.339 . S
C138 C136 1.416 . S
C138 H145 0.930 . S
N139 Tb104 2.572 . S
N139 C140 1.340 . S
N139 C142 1.361 . S
C140 H126 0.930 . S
C140 N139 1.340 . S
C140 C144 1.407 . S
C141 C142 1.413 . S
C141 C143 1.416 . S
C141 C170 1.427 . S
C142 C134 1.424 . S
C142 N139 1.361 . S
C142 C141 1.413 . S
C143 H132 0.931 . S
C143 C141 1.416 . S
C143 C144 1.332 . S
C144 H123 0.929 . S
C144 C140 1.407 . S
C144 C143 1.332 . S
H145 C138 0.930 . S
H146 C169 0.930 . S
H147 C170 0.929 . S
O148 Tb104 2.465 . S
O148 C168 1.264 . S
O149 Tb104 2.387 . S
O149 C160 1.264 . S
O150 Tb115 2.349 1_455 S
O150 C160 1.243 . S
O151 Tb104 2.428 . S
O151 C168 1.256 . S
O152 Tb104 2.308 . S
O152 C167 1.266 1_455 S
O153 Tb115 2.393 . S
O153 C167 1.248 . S
O154 Tb115 2.465 . S
O154 C179 1.264 . S
O155 Tb115 2.387 . S
O155 C171 1.264 . S
O156 Tb104 2.349 . S
O156 C171 1.243 1_455 S
O157 Tb115 2.428 . S
O157 C179 1.256 . S
O158 Tb115 2.308 1_455 S
O158 C178 1.266 . S
O159 Tb104 2.393 . S
O159 C178 1.248 . S
C160 O149 1.264 . S
C160 O150 1.243 . S
C161 C164 1.399 . S
C161 C166 1.383 . S
C161 C168 1.496 . S
C162 C163 1.399 . S
C162 C166 1.389 . S
C163 C162 1.399 . S
C163 C165 1.380 . S
C163 H180 0.929 . S
C164 C161 1.399 . S
C164 C165 1.392 . S
C164 H181 0.929 . S
C165 C163 1.380 . S
C165 C164 1.392 . S
C165 H182 0.929 . S
C166 C161 1.383 . S
C166 C162 1.389 . S
C166 H183 0.931 . S
C167 O152 1.266 1_655 S
C167 O153 1.248 . S
C168 Tb104 2.802 . S
C168 O148 1.264 . S
C168 O151 1.256 . S
C168 C161 1.496 . S
C169 C136 1.448 . S
C169 H146 0.930 . S
C169 C170 1.328 . S
C170 C141 1.427 . S
C170 H147 0.929 . S
C170 C169 1.328 . S
C171 O155 1.264 . S
C171 O156 1.243 1_655 S
C172 C175 1.399 . S
C172 C176 1.383 . S
C172 C179 1.496 . S
C173 C174 1.399 . S
C173 C176 1.389 . S
C174 C173 1.399 . S
C174 C177 1.380 . S
C174 H184 0.929 . S
C175 C172 1.399 . S
C175 C177 1.392 . S
C175 H185 0.929 . S
C176 C172 1.383 . S
C176 C173 1.389 . S
C176 H186 0.931 . S
C177 C174 1.380 . S
C177 C175 1.392 . S
C177 H187 0.929 . S
C178 O158 1.266 . S
C178 O159 1.248 . S
C179 Tb115 2.802 . S
C179 O154 1.264 . S
C179 O157 1.256 . S
C179 C172 1.496 . S
H180 C163 0.929 . S
H181 C164 0.929 . S
H182 C165 0.929 . S
H183 C166 0.931 . S
H184 C174 0.929 . S
H185 C175 0.929 . S
H186 C176 0.931 . S
H187 C177 0.929 . S
Tb188 N217 2.617 . S
Tb188 N223 2.572 . S
Tb188 O232 2.465 . S
Tb188 O233 2.387 . S
Tb188 O235 2.428 . S
Tb188 O236 2.308 . S
Tb188 O240 2.349 . S
Tb188 O243 2.393 . S
Tb188 C252 2.802 . S
C189 N190 1.379 . S
C189 C192 1.416 . S
C189 C196 1.424 . S
N190 C189 1.379 . S
N190 C193 1.334 . S
N190 Tb199 2.617 . S
C191 C193 1.390 . S
C191 C194 1.339 . S
C191 H211 0.930 . S
C192 C189 1.416 . S
C192 C194 1.416 . S
C192 C198 1.448 . S
C193 N190 1.334 . S
C193 C191 1.390 . S
C193 H204 0.930 . S
C194 C191 1.339 . S
C194 C192 1.416 . S
C194 H215 0.930 . S
C195 C196 1.413 . S
C195 C197 1.427 . S
C195 C201 1.416 . S
C196 C189 1.424 . S
C196 C195 1.413 . S
C196 N200 1.361 . S
C197 C195 1.427 . S
C197 C198 1.328 . S
C197 H212 0.929 . S
C198 C192 1.448 . S
C198 C197 1.328 . S
C198 H213 0.930 . S
Tb199 N190 2.617 . S
Tb199 N200 2.572 . S
Tb199 O234 2.349 . S
Tb199 O237 2.393 . S
Tb199 O238 2.465 . S
Tb199 O239 2.387 . S
Tb199 O241 2.428 . S
Tb199 O242 2.308 . S
Tb199 C263 2.802 . S
N200 C196 1.361 . S
N200 Tb199 2.572 . S
N200 C202 1.340 . S
C201 C195 1.416 . S
C201 C203 1.332 . S
C201 H209 0.931 . S
C202 N200 1.340 . S
C202 C203 1.407 . S
C202 H208 0.930 . S
C203 C201 1.332 . S
C203 C202 1.407 . S
C203 H205 0.929 . S
H204 C193 0.930 . S
H205 C203 0.929 . S
H206 C221 0.930 . S
H207 C228 0.929 . S
H208 C202 0.930 . S
H209 C201 0.931 . S
H210 C224 0.930 . S
H211 C191 0.930 . S
H212 C197 0.929 . S
H213 C198 0.930 . S
H214 C219 0.930 . S
H215 C194 0.930 . S
H216 C227 0.931 . S
N217 Tb188 2.617 . S
N217 C218 1.379 . S
N217 C221 1.334 . S
C218 N217 1.379 . S
C218 C220 1.416 . S
C218 C226 1.424 . S
C219 H214 0.930 . S
C219 C221 1.390 . S
C219 C222 1.339 . S
C220 C218 1.416 . S
C220 C222 1.416 . S
C220 C253 1.448 . S
C221 H206 0.930 . S
C221 N217 1.334 . S
C221 C219 1.390 . S
C222 C219 1.339 . S
C222 C220 1.416 . S
C222 H229 0.930 . S
N223 Tb188 2.572 . S
N223 C224 1.340 . S
N223 C226 1.361 . S
C224 H210 0.930 . S
C224 N223 1.340 . S
C224 C228 1.407 . S
C225 C226 1.413 . S
C225 C227 1.416 . S
C225 C254 1.427 . S
C226 C218 1.424 . S
C226 N223 1.361 . S
C226 C225 1.413 . S
C227 H216 0.931 . S
C227 C225 1.416 . S
C227 C228 1.332 . S
C228 H207 0.929 . S
C228 C224 1.407 . S
C228 C227 1.332 . S
H229 C222 0.930 . S
H230 C253 0.930 . S
H231 C254 0.929 . S
O232 Tb188 2.465 . S
O232 C252 1.264 . S
O233 Tb188 2.387 . S
O233 C244 1.264 . S
O234 Tb199 2.349 . S
O234 C244 1.243 . S
O235 Tb188 2.428 . S
O235 C252 1.256 . S
O236 Tb188 2.308 . S
O236 C251 1.266 . S
O237 Tb199 2.393 . S
O237 C251 1.248 . S
O238 Tb199 2.465 . S
O238 C263 1.264 . S
O239 Tb199 2.387 . S
O239 C255 1.264 . S
O240 Tb188 2.349 . S
O240 C255 1.243 . S
O241 Tb199 2.428 . S
O241 C263 1.256 . S
O242 Tb199 2.308 . S
O242 C262 1.266 . S
O243 Tb188 2.393 . S
O243 C262 1.248 . S
C244 O233 1.264 . S
C244 O234 1.243 . S
C245 C248 1.399 . S
C245 C250 1.383 . S
C245 C252 1.496 . S
C246 C247 1.399 . S
C246 C250 1.389 . S
C247 C246 1.399 . S
C247 C249 1.380 . S
C247 H264 0.929 . S
C248 C245 1.399 . S
C248 C249 1.392 . S
C248 H265 0.929 . S
C249 C247 1.380 . S
C249 C248 1.392 . S
C249 H266 0.929 . S
C250 C245 1.383 . S
C250 C246 1.389 . S
C250 H267 0.931 . S
C251 O236 1.266 . S
C251 O237 1.248 . S
C252 Tb188 2.802 . S
C252 O232 1.264 . S
C252 O235 1.256 . S
C252 C245 1.496 . S
C253 C220 1.448 . S
C253 H230 0.930 . S
C253 C254 1.328 . S
C254 C225 1.427 . S
C254 H231 0.929 . S
C254 C253 1.328 . S
C255 O239 1.264 . S
C255 O240 1.243 . S
C256 C259 1.399 . S
C256 C260 1.383 . S
C256 C263 1.496 . S
C257 C258 1.399 . S
C257 C260 1.389 . S
C258 C257 1.399 . S
C258 C261 1.380 . S
C258 H268 0.929 . S
C259 C256 1.399 . S
C259 C261 1.392 . S
C259 H269 0.929 . S
C260 C256 1.383 . S
C260 C257 1.389 . S
C260 H270 0.931 . S
C261 C258 1.380 . S
C261 C259 1.392 . S
C261 H271 0.929 . S
C262 O242 1.266 . S
C262 O243 1.248 . S
C263 Tb199 2.802 . S
C263 O238 1.264 . S
C263 O241 1.256 . S
C263 C256 1.496 . S
H264 C247 0.929 . S
H265 C248 0.929 . S
H266 C249 0.929 . S
H267 C250 0.931 . S
H268 C258 0.929 . S
H269 C259 0.929 . S
H270 C260 0.931 . S
H271 C261 0.929 . S
Tb272 N301 2.617 . S
Tb272 N307 2.572 . S
Tb272 O316 2.465 . S
Tb272 O317 2.387 . S
Tb272 O319 2.428 . S
Tb272 O320 2.308 . S
Tb272 O324 2.349 . S
Tb272 O327 2.393 . S
Tb272 C336 2.802 . S
C273 N274 1.379 . S
C273 C276 1.416 . S
C273 C280 1.424 . S
N274 C273 1.379 . S
N274 C277 1.334 . S
N274 Tb283 2.617 . S
C275 C277 1.390 . S
C275 C278 1.339 . S
C275 H295 0.930 . S
C276 C273 1.416 . S
C276 C278 1.416 . S
C276 C282 1.448 . S
C277 N274 1.334 . S
C277 C275 1.390 . S
C277 H288 0.930 . S
C278 C275 1.339 . S
C278 C276 1.416 . S
C278 H299 0.930 . S
C279 C280 1.413 . S
C279 C281 1.427 . S
C279 C285 1.416 . S
C280 C273 1.424 . S
C280 C279 1.413 . S
C280 N284 1.361 . S
C281 C279 1.427 . S
C281 C282 1.328 . S
C281 H296 0.929 . S
C282 C276 1.448 . S
C282 C281 1.328 . S
C282 H297 0.930 . S
Tb283 N274 2.617 . S
Tb283 N284 2.572 . S
Tb283 O318 2.349 1_655 S
Tb283 O321 2.393 . S
Tb283 O322 2.465 . S
Tb283 O323 2.387 . S
Tb283 O325 2.428 . S
Tb283 O326 2.308 1_655 S
Tb283 C347 2.802 . S
N284 C280 1.361 . S
N284 Tb283 2.572 . S
N284 C286 1.340 . S
C285 C279 1.416 . S
C285 C287 1.332 . S
C285 H293 0.931 . S
C286 N284 1.340 . S
C286 C287 1.407 . S
C286 H292 0.930 . S
C287 C285 1.332 . S
C287 C286 1.407 . S
C287 H289 0.929 . S
H288 C277 0.930 . S
H289 C287 0.929 . S
H290 C305 0.930 . S
H291 C312 0.929 . S
H292 C286 0.930 . S
H293 C285 0.931 . S
H294 C308 0.930 . S
H295 C275 0.930 . S
H296 C281 0.929 . S
H297 C282 0.930 . S
H298 C303 0.930 . S
H299 C278 0.930 . S
H300 C311 0.931 . S
N301 Tb272 2.617 . S
N301 C302 1.379 . S
N301 C305 1.334 . S
C302 N301 1.379 . S
C302 C304 1.416 . S
C302 C310 1.424 . S
C303 H298 0.930 . S
C303 C305 1.390 . S
C303 C306 1.339 . S
C304 C302 1.416 . S
C304 C306 1.416 . S
C304 C337 1.448 . S
C305 H290 0.930 . S
C305 N301 1.334 . S
C305 C303 1.390 . S
C306 C303 1.339 . S
C306 C304 1.416 . S
C306 H313 0.930 . S
N307 Tb272 2.572 . S
N307 C308 1.340 1_565 S
N307 C310 1.361 . S
C308 H294 0.930 . S
C308 N307 1.340 1_545 S
C308 C312 1.407 . S
C309 C310 1.413 1_545 S
C309 C311 1.416 . S
C309 C338 1.427 . S
C310 C302 1.424 . S
C310 N307 1.361 . S
C310 C309 1.413 1_565 S
C311 H300 0.931 . S
C311 C309 1.416 . S
C311 C312 1.332 . S
C312 H291 0.929 . S
C312 C308 1.407 . S
C312 C311 1.332 . S
H313 C306 0.930 . S
H314 C337 0.930 . S
H315 C338 0.929 . S
O316 Tb272 2.465 . S
O316 C336 1.264 . S
O317 Tb272 2.387 . S
O317 C328 1.264 . S
O318 Tb283 2.349 1_455 S
O318 C328 1.243 . S
O319 Tb272 2.428 . S
O319 C336 1.256 . S
O320 Tb272 2.308 . S
O320 C335 1.266 1_455 S
O321 Tb283 2.393 . S
O321 C335 1.248 . S
O322 Tb283 2.465 . S
O322 C347 1.264 . S
O323 Tb283 2.387 . S
O323 C339 1.264 . S
O324 Tb272 2.349 . S
O324 C339 1.243 1_455 S
O325 Tb283 2.428 . S
O325 C347 1.256 . S
O326 Tb283 2.308 1_455 S
O326 C346 1.266 . S
O327 Tb272 2.393 . S
O327 C346 1.248 . S
C328 O317 1.264 . S
C328 O318 1.243 . S
C329 C332 1.399 . S
C329 C334 1.383 . S
C329 C336 1.496 . S
C330 C331 1.399 . S
C330 C334 1.389 . S
C331 C330 1.399 . S
C331 C333 1.380 . S
C331 H348 0.929 . S
C332 C329 1.399 . S
C332 C333 1.392 . S
C332 H349 0.929 . S
C333 C331 1.380 . S
C333 C332 1.392 . S
C333 H350 0.929 . S
C334 C329 1.383 . S
C334 C330 1.389 . S
C334 H351 0.931 . S
C335 O320 1.266 1_655 S
C335 O321 1.248 . S
C336 Tb272 2.802 . S
C336 O316 1.264 . S
C336 O319 1.256 . S
C336 C329 1.496 . S
C337 C304 1.448 . S
C337 H314 0.930 . S
C337 C338 1.328 1_565 S
C338 C309 1.427 . S
C338 H315 0.929 . S
C338 C337 1.328 1_545 S
C339 O323 1.264 . S
C339 O324 1.243 1_655 S
C340 C343 1.399 . S
C340 C344 1.383 . S
C340 C347 1.496 . S
C341 C342 1.399 . S
C341 C344 1.389 . S
C342 C341 1.399 . S
C342 C345 1.380 . S
C342 H352 0.929 . S
C343 C340 1.399 . S
C343 C345 1.392 . S
C343 H353 0.929 . S
C344 C340 1.383 . S
C344 C341 1.389 . S
C344 H354 0.931 . S
C345 C342 1.380 . S
C345 C343 1.392 . S
C345 H355 0.929 . S
C346 O326 1.266 . S
C346 O327 1.248 . S
C347 Tb283 2.802 . S
C347 O322 1.264 . S
C347 O325 1.256 . S
C347 C340 1.496 . S
H348 C331 0.929 . S
H349 C332 0.929 . S
H350 C333 0.929 . S
H351 C334 0.931 . S
H352 C342 0.929 . S
H353 C343 0.929 . S
H354 C344 0.931 . S
H355 C345 0.929 . S
Tb356 N385 2.617 . S
Tb356 N391 2.572 . S
Tb356 O400 2.465 . S
Tb356 O401 2.387 . S
Tb356 O403 2.428 . S
Tb356 O404 2.308 . S
Tb356 O408 2.349 . S
Tb356 O411 2.393 . S
Tb356 C420 2.802 . S
C357 N358 1.379 . S
C357 C360 1.416 . S
C357 C364 1.424 . S
N358 C357 1.379 . S
N358 C361 1.334 . S
N358 Tb367 2.617 . S
C359 C361 1.390 . S
C359 C362 1.339 . S
C359 H379 0.930 . S
C360 C357 1.416 . S
C360 C362 1.416 . S
C360 C366 1.448 . S
C361 N358 1.334 . S
C361 C359 1.390 . S
C361 H372 0.930 . S
C362 C359 1.339 . S
C362 C360 1.416 . S
C362 H383 0.930 . S
C363 C364 1.413 . S
C363 C365 1.427 . S
C363 C369 1.416 . S
C364 C357 1.424 . S
C364 C363 1.413 . S
C364 N368 1.361 . S
C365 C363 1.427 . S
C365 C366 1.328 . S
C365 H380 0.929 . S
C366 C360 1.448 . S
C366 C365 1.328 . S
C366 H381 0.930 . S
Tb367 N358 2.617 . S
Tb367 N368 2.572 . S
Tb367 O402 2.349 . S
Tb367 O405 2.393 . S
Tb367 O406 2.465 . S
Tb367 O407 2.387 . S
Tb367 O409 2.428 . S
Tb367 O410 2.308 . S
Tb367 C431 2.802 . S
N368 C364 1.361 . S
N368 Tb367 2.572 . S
N368 C370 1.340 . S
C369 C363 1.416 . S
C369 C371 1.332 . S
C369 H377 0.931 . S
C370 N368 1.340 . S
C370 C371 1.407 . S
C370 H376 0.930 . S
C371 C369 1.332 . S
C371 C370 1.407 . S
C371 H373 0.929 . S
H372 C361 0.930 . S
H373 C371 0.929 . S
H374 C389 0.930 . S
H375 C396 0.929 . S
H376 C370 0.930 . S
H377 C369 0.931 . S
H378 C392 0.930 . S
H379 C359 0.930 . S
H380 C365 0.929 . S
H381 C366 0.930 . S
H382 C387 0.930 . S
H383 C362 0.930 . S
H384 C395 0.931 . S
N385 Tb356 2.617 . S
N385 C386 1.379 . S
N385 C389 1.334 . S
C386 N385 1.379 . S
C386 C388 1.416 . S
C386 C394 1.424 . S
C387 H382 0.930 . S
C387 C389 1.390 . S
C387 C390 1.339 . S
C388 C386 1.416 . S
C388 C390 1.416 . S
C388 C421 1.448 . S
C389 H374 0.930 . S
C389 N385 1.334 . S
C389 C387 1.390 . S
C390 C387 1.339 . S
C390 C388 1.416 . S
C390 H397 0.930 . S
N391 Tb356 2.572 . S
N391 C392 1.340 . S
N391 C394 1.361 . S
C392 H378 0.930 . S
C392 N391 1.340 . S
C392 C396 1.407 . S
C393 C394 1.413 . S
C393 C395 1.416 . S
C393 C422 1.427 . S
C394 C386 1.424 . S
C394 N391 1.361 . S
C394 C393 1.413 . S
C395 H384 0.931 . S
C395 C393 1.416 . S
C395 C396 1.332 . S
C396 H375 0.929 . S
C396 C392 1.407 . S
C396 C395 1.332 . S
H397 C390 0.930 . S
H398 C421 0.930 . S
H399 C422 0.929 . S
O400 Tb356 2.465 . S
O400 C420 1.264 . S
O401 Tb356 2.387 . S
O401 C412 1.264 . S
O402 Tb367 2.349 . S
O402 C412 1.243 . S
O403 Tb356 2.428 . S
O403 C420 1.256 . S
O404 Tb356 2.308 . S
O404 C419 1.266 . S
O405 Tb367 2.393 . S
O405 C419 1.248 . S
O406 Tb367 2.465 . S
O406 C431 1.264 . S
O407 Tb367 2.387 . S
O407 C423 1.264 . S
O408 Tb356 2.349 . S
O408 C423 1.243 . S
O409 Tb367 2.428 . S
O409 C431 1.256 . S
O410 Tb367 2.308 . S
O410 C430 1.266 . S
O411 Tb356 2.393 . S
O411 C430 1.248 . S
C412 O401 1.264 . S
C412 O402 1.243 . S
C413 C416 1.399 . S
C413 C418 1.383 . S
C413 C420 1.496 . S
C414 C415 1.399 . S
C414 C418 1.389 . S
C415 C414 1.399 . S
C415 C417 1.380 . S
C415 H432 0.929 . S
C416 C413 1.399 . S
C416 C417 1.392 . S
C416 H433 0.929 . S
C417 C415 1.380 . S
C417 C416 1.392 . S
C417 H434 0.929 . S
C418 C413 1.383 . S
C418 C414 1.389 . S
C418 H435 0.931 . S
C419 O404 1.266 . S
C419 O405 1.248 . S
C420 Tb356 2.802 . S
C420 O400 1.264 . S
C420 O403 1.256 . S
C420 C413 1.496 . S
C421 C388 1.448 . S
C421 H398 0.930 . S
C421 C422 1.328 . S
C422 C393 1.427 . S
C422 H399 0.929 . S
C422 C421 1.328 . S
C423 O407 1.264 . S
C423 O408 1.243 . S
C424 C427 1.399 . S
C424 C428 1.383 . S
C424 C431 1.496 . S
C425 C426 1.399 . S
C425 C428 1.389 . S
C426 C425 1.399 . S
C426 C429 1.380 . S
C426 H436 0.929 . S
C427 C424 1.399 . S
C427 C429 1.392 . S
C427 H437 0.929 . S
C428 C424 1.383 . S
C428 C425 1.389 . S
C428 H438 0.931 . S
C429 C426 1.380 . S
C429 C427 1.392 . S
C429 H439 0.929 . S
C430 O410 1.266 . S
C430 O411 1.248 . S
C431 Tb367 2.802 . S
C431 O406 1.264 . S
C431 O409 1.256 . S
C431 C424 1.496 . S
H432 C415 0.929 . S
H433 C416 0.929 . S
H434 C417 0.929 . S
H435 C418 0.931 . S
H436 C426 0.929 . S
H437 C427 0.929 . S
H438 C428 0.931 . S
H439 C429 0.929 . S
C440 C441 1.369 . S
C440 C442 1.419 . S
C440 H444 0.930 . S
C441 C440 1.369 . S
C441 C450 1.429 . S
C442 C440 1.419 . S
C442 C443 1.363 1_565 S
C442 H445 0.929 . S
C443 C442 1.363 1_545 S
C443 C449 1.428 . S
H444 C440 0.930 . S
H445 C442 0.929 . S
S446 N447 1.613 . S
S446 N448 1.610 . S
N447 S446 1.613 . S
N447 C450 1.350 1_545 S
N448 S446 1.610 . S
N448 C449 1.351 . S
C449 C443 1.428 . S
C449 N448 1.351 . S
C449 C450 1.434 1_545 S
C450 C441 1.429 . S
C450 N447 1.350 1_565 S
C450 C449 1.434 1_565 S
C451 C452 1.369 . S
C451 C453 1.419 . S
C451 H455 0.930 . S
C452 C451 1.369 . S
C452 C461 1.429 . S
C453 C451 1.419 . S
C453 C454 1.363 . S
C453 H456 0.929 . S
C454 C453 1.363 . S
C454 C460 1.428 . S
H455 C451 0.930 . S
H456 C453 0.929 . S
S457 N458 1.613 . S
S457 N459 1.610 . S
N458 S457 1.613 . S
N458 C461 1.350 . S
N459 S457 1.610 . S
N459 C460 1.351 . S
C460 C454 1.428 . S
C460 N459 1.351 . S
C460 C461 1.434 . S
C461 C452 1.429 . S
C461 N458 1.350 . S
C461 C460 1.434 . S
C462 C463 1.369 . S
C462 C464 1.419 . S
C462 H466 0.930 . S
C463 C462 1.369 . S
C463 C472 1.429 . S
C464 C462 1.419 . S
C464 C465 1.363 . S
C464 H467 0.929 . S
C465 C464 1.363 . S
C465 C471 1.428 . S
H466 C462 0.930 . S
H467 C464 0.929 . S
S468 N469 1.613 . S
S468 N470 1.610 . S
N469 S468 1.613 . S
N469 C472 1.350 . S
N470 S468 1.610 . S
N470 C471 1.351 . S
C471 C465 1.428 . S
C471 N470 1.351 . S
C471 C472 1.434 . S
C472 C463 1.429 . S
C472 N469 1.350 . S
C472 C471 1.434 . S
C473 C474 1.369 . S
C473 C475 1.419 . S
C473 H477 0.930 . S
C474 C473 1.369 . S
C474 C483 1.429 . S
C475 C473 1.419 . S
C475 C476 1.363 1_565 S
C475 H478 0.929 1_565 S
C476 C475 1.363 1_545 S
C476 C482 1.428 1_545 S
H477 C473 0.930 . S
H478 C475 0.929 1_545 S
S479 N480 1.613 1_455 S
S479 N481 1.610 . S
N480 S479 1.613 1_655 S
N480 C483 1.350 . S
N481 S479 1.610 . S
N481 C482 1.351 1_455 S
C482 C476 1.428 1_565 S
C482 N481 1.351 1_655 S
C482 C483 1.434 . S
C483 C474 1.429 . S
C483 N480 1.350 . S
C483 C482 1.434 . S
C484 C485 1.369 . S
C484 C486 1.419 1_545 S
C484 H488 0.930 . S
C485 C484 1.369 . S
C485 C494 1.429 . S
C486 C484 1.419 1_565 S
C486 C487 1.363 . S
C486 H489 0.929 . S
C487 C486 1.363 . S
C487 C493 1.428 1_565 S
H488 C484 0.930 . S
H489 C486 0.929 . S
S490 N491 1.613 1_455 S
S490 N492 1.610 1_455 S
N491 S490 1.613 1_655 S
N491 C494 1.350 . S
N492 S490 1.610 1_655 S
N492 C493 1.351 . S
C493 C487 1.428 1_545 S
C493 N492 1.351 . S
C493 C494 1.434 . S
C494 C485 1.429 . S
C494 N491 1.350 . S
C494 C493 1.434 . S
C495 C496 1.369 . S
C495 C497 1.419 . S
C495 H499 0.930 . S
C496 C495 1.369 . S
C496 C505 1.429 . S
C497 C495 1.419 . S
C497 C498 1.363 . S
C497 H500 0.929 . S
C498 C497 1.363 . S
C498 C504 1.428 . S
H499 C495 0.930 . S
H500 C497 0.929 . S
S501 N502 1.613 . S
S501 N503 1.610 . S
N502 S501 1.613 . S
N502 C505 1.350 . S
N503 S501 1.610 . S
N503 C504 1.351 . S
C504 C498 1.428 . S
C504 N503 1.351 . S
C504 C505 1.434 . S
C505 C496 1.429 . S
C505 N502 1.350 . S
C505 C504 1.434 . S
C506 C507 1.369 . S
C506 C508 1.419 . S
C506 H510 0.930 . S
C507 C506 1.369 . S
C507 C516 1.429 . S
C508 C506 1.419 . S
C508 C509 1.363 . S
C508 H511 0.929 . S
C509 C508 1.363 . S
C509 C515 1.428 . S
H510 C506 0.930 . S
H511 C508 0.929 . S
S512 N513 1.613 . S
S512 N514 1.610 . S
N513 S512 1.613 . S
N513 C516 1.350 . S
N514 S512 1.610 . S
N514 C515 1.351 . S
C515 C509 1.428 . S
C515 N514 1.351 . S
C515 C516 1.434 . S
C516 C507 1.429 . S
C516 N513 1.350 . S
C516 C515 1.434 . S
C517 C518 1.369 . S
C517 C519 1.419 . S
C517 H521 0.930 . S
C518 C517 1.369 . S
C518 C527 1.429 . S
C519 C517 1.419 . S
C519 C520 1.363 1_545 S
C519 H522 0.929 . S
C520 C519 1.363 1_565 S
C520 C526 1.427 1_565 S
H521 C517 0.930 . S
H522 C519 0.929 . S
S523 N524 1.613 . S
S523 N525 1.610 1_545 S
N524 S523 1.613 . S
N524 C527 1.350 . S
N525 S523 1.610 1_565 S
N525 C526 1.346 1_565 S
C526 C520 1.427 1_545 S
C526 N525 1.346 1_545 S
C526 C527 1.442 . S
C527 C518 1.429 . S
C527 N524 1.350 . S
C527 C526 1.442 . S
C528 C529 1.369 . S
C528 C530 1.419 1_556 S
C528 H532 0.930 . S
C529 C528 1.369 . S
C529 C538 1.429 . S
C530 C528 1.419 1_554 S
C530 C531 1.363 . S
C530 H533 0.929 . S
C531 C530 1.363 . S
C531 C537 1.428 . S
H532 C528 0.930 . S
H533 C530 0.929 . S
S534 N535 1.613 1_554 S
S534 N536 1.610 . S
N535 S534 1.613 1_556 S
N535 C538 1.350 . S
N536 S534 1.610 . S
N536 C537 1.351 . S
C537 C531 1.428 . S
C537 N536 1.351 . S
C537 C538 1.434 1_554 S
C538 C529 1.429 . S
C538 N535 1.350 . S
C538 C537 1.434 1_556 S
C539 C540 1.369 . S
C539 C541 1.419 . S
C539 H543 0.930 . S
C540 C539 1.369 . S
C540 C549 1.429 . S
C541 C539 1.419 . S
C541 C542 1.363 . S
C541 H544 0.929 . S
C542 C541 1.363 . S
C542 C548 1.428 . S
H543 C539 0.930 . S
H544 C541 0.929 . S
S545 N546 1.613 . S
S545 N547 1.610 . S
N546 S545 1.613 . S
N546 C549 1.350 . S
N547 S545 1.610 . S
N547 C548 1.351 . S
C548 C542 1.428 . S
C548 N547 1.351 . S
C548 C549 1.434 . S
C549 C540 1.429 . S
C549 N546 1.350 . S
C549 C548 1.434 . S
C550 C551 1.369 . S
C550 C552 1.419 1_554 S
C550 H554 0.930 . S
C551 C550 1.369 . S
C551 C560 1.429 . S
C552 C550 1.419 1_556 S
C552 C553 1.363 . S
C552 H555 0.929 . S
C553 C552 1.363 . S
C553 C559 1.428 . S
H554 C550 0.930 . S
H555 C552 0.929 . S
S556 N557 1.613 . S
S556 N558 1.610 1_554 S
N557 S556 1.613 . S
N557 C560 1.350 . S
N558 S556 1.610 1_556 S
N558 C559 1.351 . S
C559 C553 1.428 . S
C559 N558 1.351 . S
C559 C560 1.434 1_556 S
C560 C551 1.429 . S
C560 N557 1.350 . S
C560 C559 1.434 1_554 S
C561 C562 1.369 . S
C561 C563 1.419 . S
C561 H565 0.930 . S
C562 C561 1.369 . S
C562 C571 1.429 . S
C563 C561 1.419 . S
C563 C564 1.363 . S
C563 H566 0.929 . S
C564 C563 1.363 . S
C564 C570 1.428 . S
H565 C561 0.930 . S
H566 C563 0.929 . S
S567 N568 1.613 . S
S567 N569 1.610 . S
N568 S567 1.613 . S
N568 C571 1.350 . S
N569 S567 1.610 . S
N569 C570 1.351 . S
C570 C564 1.428 . S
C570 N569 1.351 . S
C570 C571 1.434 . S
C571 C562 1.429 . S
C571 N568 1.350 . S
C571 C570 1.434 . S
C572 C573 1.369 . S
C572 C574 1.419 1_554 S
C572 H576 0.930 . S
C573 C572 1.369 . S
C573 C582 1.429 . S
C574 C572 1.419 1_556 S
C574 C575 1.363 . S
C574 H577 0.929 . S
C575 C574 1.363 . S
C575 C581 1.428 . S
H576 C572 0.930 . S
H577 C574 0.929 . S
S578 N579 1.613 . S
S578 N580 1.611 1_554 S
N579 S578 1.613 . S
N579 C582 1.350 . S
N580 S578 1.611 1_556 S
N580 C581 1.351 . S
C581 C575 1.428 . S
C581 N580 1.351 . S
C581 C582 1.434 1_556 S
C582 C573 1.429 . S
C582 N579 1.350 . S
C582 C581 1.434 1_554 S
C583 C584 1.369 . S
C583 C585 1.419 . S
C583 H587 0.930 . S
C584 C583 1.369 . S
C584 C593 1.429 . S
C585 C583 1.419 . S
C585 C586 1.363 . S
C585 H588 0.929 . S
C586 C585 1.363 . S
C586 C592 1.428 . S
H587 C583 0.930 . S
H588 C585 0.929 . S
S589 N590 1.613 . S
S589 N591 1.610 . S
N590 S589 1.613 . S
N590 C593 1.350 . S
N591 S589 1.610 . S
N591 C592 1.351 . S
C592 C586 1.428 . S
C592 N591 1.351 . S
C592 C593 1.434 . S
C593 C584 1.429 . S
C593 N590 1.350 . S
C593 C592 1.434 . S
C594 C595 1.369 . S
C594 C596 1.419 1_556 S
C594 H598 0.930 . S
C595 C594 1.369 . S
C595 C604 1.429 . S
C596 C594 1.419 1_554 S
C596 C597 1.363 . S
C596 H599 0.929 . S
C597 C596 1.363 . S
C597 C603 1.428 . S
H598 C594 0.930 . S
H599 C596 0.929 . S
S600 N601 1.613 . S
S600 N602 1.610 1_556 S
N601 S600 1.613 . S
N601 C604 1.350 . S
N602 S600 1.610 1_554 S
N602 C603 1.351 . S
C603 C597 1.428 . S
C603 N602 1.351 . S
C603 C604 1.434 1_554 S
C604 C595 1.429 . S
C604 N601 1.350 . S
C604 C603 1.434 1_556 S
C605 C606 1.369 . S
C605 C607 1.419 . S
C605 H609 0.930 . S
C606 C605 1.369 . S
C606 C615 1.429 . S
C607 C605 1.419 . S
C607 C608 1.363 . S
C607 H610 0.929 . S
C608 C607 1.363 . S
C608 C614 1.428 . S
H609 C605 0.930 . S
H610 C607 0.929 . S
S611 N612 1.613 . S
S611 N613 1.610 . S
N612 S611 1.613 . S
N612 C615 1.350 . S
N613 S611 1.610 . S
N613 C614 1.351 . S
C614 C608 1.428 . S
C614 N613 1.351 . S
C614 C615 1.434 . S
C615 C606 1.429 . S
C615 N612 1.350 . S
C615 C614 1.434 . S
C616 C617 1.369 . S
C616 C618 1.419 . S
C616 H620 0.930 . S
C617 C616 1.369 . S
C617 C626 1.429 . S
C618 C616 1.419 . S
C618 C619 1.363 . S
C618 H621 0.929 . S
C619 C618 1.363 . S
C619 C625 1.428 . S
H620 C616 0.930 . S
H621 C618 0.929 . S
S622 N623 1.613 . S
S622 N624 1.610 . S
N623 S622 1.613 . S
N623 C626 1.350 . S
N624 S622 1.610 . S
N624 C625 1.351 . S
C625 C619 1.428 . S
C625 N624 1.351 . S
C625 C626 1.434 . S
C626 C617 1.429 . S
C626 N623 1.350 . S
C626 C625 1.434 . S
C627 C628 1.369 . S
C627 C629 1.419 . S
C627 H631 0.930 . S
C628 C627 1.369 . S
C628 C637 1.429 . S
C629 C627 1.419 . S
C629 C630 1.363 . S
C629 H632 0.929 . S
C630 C629 1.363 . S
C630 C636 1.428 . S
H631 C627 0.930 . S
H632 C629 0.929 . S
S633 N634 1.613 . S
S633 N635 1.610 . S
N634 S633 1.613 . S
N634 C637 1.350 . S
N635 S633 1.610 . S
N635 C636 1.351 . S
C636 C630 1.428 . S
C636 N635 1.351 . S
C636 C637 1.434 . S
C637 C628 1.429 . S
C637 N634 1.350 . S
C637 C636 1.434 . S
C638 C639 1.369 . S
C638 C640 1.419 . S
C638 H642 0.930 . S
C639 C638 1.369 . S
C639 C648 1.429 . S
C640 C638 1.419 . S
C640 C641 1.363 . S
C640 H643 0.929 . S
C641 C640 1.363 . S
C641 C647 1.428 . S
H642 C638 0.930 . S
H643 C640 0.929 . S
S644 N645 1.613 . S
S644 N646 1.610 . S
N645 S644 1.613 . S
N645 C648 1.350 . S
N646 S644 1.610 . S
N646 C647 1.351 . S
C647 C641 1.428 . S
C647 N646 1.351 . S
C647 C648 1.434 . S
C648 C639 1.429 . S
C648 N645 1.350 . S
C648 C647 1.434 . S
C649 C650 1.369 . S
C649 C651 1.419 . S
C649 H653 0.930 . S
C650 C649 1.369 . S
C650 C659 1.429 . S
C651 C649 1.419 . S
C651 C652 1.363 . S
C651 H654 0.929 . S
C652 C651 1.363 . S
C652 C658 1.428 . S
H653 C649 0.930 . S
H654 C651 0.929 . S
S655 N656 1.613 . S
S655 N657 1.610 . S
N656 S655 1.613 . S
N656 C659 1.350 . S
N657 S655 1.610 . S
N657 C658 1.351 . S
C658 C652 1.428 . S
C658 N657 1.351 . S
C658 C659 1.434 . S
C659 C650 1.429 . S
C659 N656 1.350 . S
C659 C658 1.434 . S
C660 C661 1.369 . S
C660 C662 1.419 . S
C660 H664 0.930 . S
C661 C660 1.369 . S
C661 C670 1.429 . S
C662 C660 1.419 . S
C662 C663 1.363 . S
C662 H665 0.929 . S
C663 C662 1.363 . S
C663 C669 1.428 . S
H664 C660 0.930 . S
H665 C662 0.929 . S
S666 N667 1.613 . S
S666 N668 1.610 . S
N667 S666 1.613 . S
N667 C670 1.350 . S
N668 S666 1.610 . S
N668 C669 1.351 . S
C669 C663 1.428 . S
C669 N668 1.351 . S
C669 C670 1.434 . S
C670 C661 1.429 . S
C670 N667 1.350 . S
C670 C669 1.434 . S
C671 C672 1.369 . S
C671 C673 1.419 . S
C671 H675 0.930 . S
C672 C671 1.369 . S
C672 C681 1.429 . S
C673 C671 1.419 . S
C673 C674 1.363 . S
C673 H676 0.929 . S
C674 C673 1.363 . S
C674 C680 1.428 . S
H675 C671 0.930 . S
H676 C673 0.929 . S
S677 N678 1.613 . S
S677 N679 1.610 . S
N678 S677 1.613 . S
N678 C681 1.350 . S
N679 S677 1.610 . S
N679 C680 1.351 . S
C680 C674 1.428 . S
C680 N679 1.351 . S
C680 C681 1.434 . S
C681 C672 1.429 . S
C681 N678 1.350 . S
C681 C680 1.434 . S
C682 C683 1.369 . S
C682 C684 1.419 . S
C682 H686 0.930 . S
C683 C682 1.369 . S
C683 C692 1.429 . S
C684 C682 1.419 . S
C684 C685 1.363 . S
C684 H687 0.929 . S
C685 C684 1.363 . S
C685 C691 1.428 . S
H686 C682 0.930 . S
H687 C684 0.929 . S
S688 N689 1.613 . S
S688 N690 1.610 . S
N689 S688 1.613 . S
N689 C692 1.350 . S
N690 S688 1.610 . S
N690 C691 1.351 . S
C691 C685 1.428 . S
C691 N690 1.351 . S
C691 C692 1.434 . S
C692 C683 1.429 . S
C692 N689 1.350 . S
C692 C691 1.434 . S
C693 C694 1.369 . S
C693 C695 1.419 . S
C693 H697 0.930 . S
C694 C693 1.369 . S
C694 C703 1.429 . S
C695 C693 1.419 . S
C695 C696 1.363 . S
C695 H698 0.929 . S
C696 C695 1.363 . S
C696 C702 1.428 . S
H697 C693 0.930 . S
H698 C695 0.929 . S
S699 N700 1.613 . S
S699 N701 1.610 . S
N700 S699 1.613 . S
N700 C703 1.350 . S
N701 S699 1.610 . S
N701 C702 1.351 . S
C702 C696 1.428 . S
C702 N701 1.351 . S
C702 C703 1.434 . S
C703 C694 1.429 . S
C703 N700 1.350 . S
C703 C702 1.434 . S
C441 C86 1.630 . S
C443 C178 1.627 . S
C454 C262 1.669 . S
C452 C100 1.686 . S
C465 C255 1.621 . S
C463 C60 1.628 . S
C474 C74 1.678 . S
C476 C171 1.680 . S
C487 C335 1.668 . S
C485 C35 1.682 . S
C498 C419 1.625 . S
C496 C47 1.631 . S
C507 C9 1.680 . S
C509 C412 1.679 . S
C518 C21 1.631 . S
C520 C328 1.622 . S
C531 C162 1.428 . S
C529 C22 1.583 . S
C542 C246 1.418 . S
C540 C8 1.580 . S
C553 C257 1.351 . S
C551 C48 1.585 . S
C564 C173 1.357 . S
C562 C34 1.581 . S
C575 C341 1.421 . S
C573 C73 1.582 . S
C584 C61 1.584 . S
C586 C425 1.434 . S
C597 C414 1.363 . S
C595 C99 1.582 . S
C606 C87 1.581 . S
C608 C330 1.355 . S
C619 C160 1.575 . S
C617 C4 1.485 . S
C630 C244 1.496 . S
C628 C17 1.480 . S
C639 C30 1.488 . S
C641 C251 1.545 . S
C652 C167 1.465 . S
C650 C43 1.475 . S
C663 C339 1.496 . S
C661 C56 1.443 . S
C672 C69 1.515 . S
C674 C423 1.576 . S
C683 C82 1.446 . S
C685 C430 1.465 . S
C694 C95 1.515 . S
C696 C346 1.545 . S
