# Generated by pormake.
# Topology zzz, (3,6)-cn, num edge types: 1
# Building blocks:
#     Node 0, Type 0, BuildingBlock: INOVEN_clean_linker_0, # of connection points: 3
#     Node 1, Type 0, BuildingBlock: INOVEN_clean_linker_0, # of connection points: 3
#     Node 2, Type 0, BuildingBlock: INOVEN_clean_linker_0, # of connection points: 3
#     Node 3, Type 0, BuildingBlock: INOVEN_clean_linker_0, # of connection points: 3
#     Node 4, Type 0, BuildingBlock: INOVEN_clean_linker_0, # of connection points: 3
#     Node 5, Type 0, BuildingBlock: INOVEN_clean_linker_0, # of connection points: 3
#     Node 6, Type 0, BuildingBlock: INOVEN_clean_linker_0, # of connection points: 3
#     Node 7, Type 0, BuildingBlock: INOVEN_clean_linker_0, # of connection points: 3
#     Node 8, Type 1, BuildingBlock: MIFKUJ_clean_sbu_0, # of connection points: 6
#     Node 9, Type 1, BuildingBlock: MIFKUJ_clean_sbu_0, # of connection points: 6
#     Node 10, Type 1, BuildingBlock: MIFKUJ_clean_sbu_0, # of connection points: 6
#     Node 11, Type 1, BuildingBlock: MIFKUJ_clean_sbu_0, # of connection points: 6
#     Edge 12, Type (0, 1), BuildingBlock: XIVTED_clean_linker_0, # of connection points: 2
#     Edge 13, Type (0, 1), BuildingBlock: XIVTED_clean_linker_0, # of connection points: 2
#     Edge 14, Type (0, 1), BuildingBlock: XIVTED_clean_linker_0, # of connection points: 2
#     Edge 15, Type (0, 1), BuildingBlock: XIVTED_clean_linker_0, # of connection points: 2
#     Edge 16, Type (0, 1), BuildingBlock: XIVTED_clean_linker_0, # of connection points: 2
#     Edge 17, Type (0, 1), BuildingBlock: XIVTED_clean_linker_0, # of connection points: 2
#     Edge 18, Type (0, 1), BuildingBlock: XIVTED_clean_linker_0, # of connection points: 2
#     Edge 19, Type (0, 1), BuildingBlock: XIVTED_clean_linker_0, # of connection points: 2
#     Edge 20, Type (0, 1), BuildingBlock: XIVTED_clean_linker_0, # of connection points: 2
#     Edge 21, Type (0, 1), BuildingBlock: XIVTED_clean_linker_0, # of connection points: 2
#     Edge 22, Type (0, 1), BuildingBlock: XIVTED_clean_linker_0, # of connection points: 2
#     Edge 23, Type (0, 1), BuildingBlock: XIVTED_clean_linker_0, # of connection points: 2
#     Edge 24, Type (0, 1), BuildingBlock: XIVTED_clean_linker_0, # of connection points: 2
#     Edge 25, Type (0, 1), BuildingBlock: XIVTED_clean_linker_0, # of connection points: 2
#     Edge 26, Type (0, 1), BuildingBlock: XIVTED_clean_linker_0, # of connection points: 2
#     Edge 27, Type (0, 1), BuildingBlock: XIVTED_clean_linker_0, # of connection points: 2
#     Edge 28, Type (0, 1), BuildingBlock: XIVTED_clean_linker_0, # of connection points: 2
#     Edge 29, Type (0, 1), BuildingBlock: XIVTED_clean_linker_0, # of connection points: 2
#     Edge 30, Type (0, 1), BuildingBlock: XIVTED_clean_linker_0, # of connection points: 2
#     Edge 31, Type (0, 1), BuildingBlock: XIVTED_clean_linker_0, # of connection points: 2
#     Edge 32, Type (0, 1), BuildingBlock: XIVTED_clean_linker_0, # of connection points: 2
#     Edge 33, Type (0, 1), BuildingBlock: XIVTED_clean_linker_0, # of connection points: 2
#     Edge 34, Type (0, 1), BuildingBlock: XIVTED_clean_linker_0, # of connection points: 2
#     Edge 35, Type (0, 1), BuildingBlock: XIVTED_clean_linker_0, # of connection points: 2
# Relax obj value: 0.121
# Max RMSD: 0.121
# Mean RMSD: 0.087
data_MOF--net-zzz--node1-MIFKUJ_clean_sbu_0--node2-INOVEN_clean_linker_0--edge1-XIVTED_clean_linker_0
_symmetry_space_group_name_H-M    P1
_symmetry_Int_Tables_number       1
_symmetry_cell_setting            triclinic
loop_
_symmetry_equiv_pos_as_xyz
'x, y, z'
_cell_length_a     50.691841
_cell_length_b     50.576714
_cell_length_c     16.177675
_cell_angle_alpha  89.602932
_cell_angle_beta   90.070417
_cell_angle_gamma 89.86677
loop_
_atom_site_label
_atom_site_type_symbol
_atom_site_fract_x
_atom_site_fract_y
_atom_site_fract_z
_atom_type_partial_charge
H0 H 0.74172 0.49664 0.23112 0.0
H1 H 0.81706 0.46726 0.14969 0.0
H2 H 0.74964 0.46144 0.99057 0.0
N3 N 0.71599 0.48567 0.087 0.0
N4 N 0.71135 0.49531 0.01714 0.0
C5 C 0.75369 0.48688 0.18501 0.0
C6 C 0.78079 0.48224 0.19963 0.0
C7 C 0.7426 0.4798 0.10815 0.0
C8 C 0.75838 0.46722 0.04889 0.0
C9 C 0.78514 0.46245 0.06324 0.0
C10 C 0.7961 0.46998 0.13881 0.0
H11 H 0.96806 0.7224 0.24362 0.0
H12 H 0.94066 0.7946 0.13038 0.0
H13 H 0.94871 0.72478 0.98452 0.0
N14 N 0.9653 0.69325 0.10504 0.0
N15 N 0.95229 0.67828 0.05968 0.0
C16 C 0.96006 0.73292 0.19065 0.0
C17 C 0.95298 0.75978 0.19715 0.0
C18 C 0.95705 0.71985 0.11471 0.0
C19 C 0.94882 0.7342 0.04452 0.0
C20 C 0.94319 0.76117 0.04984 0.0
C21 C 0.94403 0.77344 0.12686 0.0
H22 H 0.78214 0.00978 0.25652 0.0
H23 H 0.70648 0.03511 0.16384 0.0
H24 H 0.77224 0.03015 -0.00118 0.0
N25 N 0.8072 0.01291 0.10771 0.0
N26 N 0.81231 0.00182 0.04079 0.0
C27 C 0.76992 0.0169 0.2061 0.0
C28 C 0.74303 0.02283 0.21954 0.0
C29 C 0.78048 0.01935 0.12562 0.0
C30 C 0.76418 0.02814 0.06058 0.0
C31 C 0.73763 0.03408 0.07393 0.0
C32 C 0.72735 0.0316 0.15355 0.0
H33 H 0.53639 0.77271 0.26562 0.0
H34 H 0.53634 0.69331 0.17103 0.0
H35 H 0.5393 0.75868 0.0026 0.0
N36 N 0.53778 0.79662 0.11518 0.0
N37 N 0.54988 0.80575 0.05424 0.0
C38 C 0.53759 0.75921 0.21405 0.0
C39 C 0.53756 0.73167 0.22793 0.0
C40 C 0.53923 0.76909 0.13235 0.0
C41 C 0.53957 0.75131 0.06569 0.0
C42 C 0.5379 0.72417 0.07988 0.0
C43 C 0.53766 0.71451 0.16057 0.0
H44 H 0.2786 0.49622 0.98259 0.0
H45 H 0.2018 0.52577 0.04841 0.0
H46 H 0.26762 0.54108 0.20633 0.0
N47 N 0.30352 0.51415 0.12002 0.0
N48 N 0.31336 0.52812 0.17551 0.0
C49 C 0.26606 0.50739 0.02386 0.0
C50 C 0.23893 0.51046 0.00614 0.0
C51 C 0.27672 0.51862 0.09632 0.0
C52 C 0.25993 0.53281 0.14962 0.0
C53 C 0.23297 0.53529 0.13333 0.0
C54 C 0.22279 0.52439 0.06098 0.0
H55 H 0.06324 0.27813 0.95484 0.0
H56 H 0.07944 0.20011 0.05075 0.0
H57 H 0.05725 0.2618 0.21602 0.0
N58 N 0.05192 0.29978 0.10218 0.0
N59 N 0.03536 0.30383 0.15773 0.0
C60 C 0.06597 0.26477 0.0068 0.0
C61 C 0.07309 0.23817 0.99328 0.0
C62 C 0.0605 0.27347 0.08746 0.0
C63 C 0.06216 0.25547 0.15402 0.0
C64 C 0.06935 0.22917 0.141 0.0
C65 C 0.07555 0.22093 0.06117 0.0
H66 H 0.22164 -0.00018 0.94714 0.0
H67 H 0.30095 0.01147 0.0363 0.0
H68 H 0.2399 0.99237 0.20754 0.0
N69 N 0.20033 0.99139 0.1002 0.0
N70 N 0.19509 0.97666 0.16028 0.0
C71 C 0.23562 0.0008 -0.00232 0.0
C72 C 0.26245 0.00659 0.98203 0.0
C73 C 0.22728 0.99571 0.07975 0.0
C74 C 0.24593 0.99611 0.14427 0.0
C75 C 0.27216 0.00226 0.12857 0.0
C76 C 0.28021 0.00769 0.04813 0.0
H77 H 0.45602 0.21963 0.96341 0.0
H78 H 0.43065 0.29545 0.05326 0.0
H79 H 0.44014 0.23094 0.2223 0.0
N80 N 0.4579 0.1962 0.11468 0.0
N81 N 0.471 0.19381 0.17979 0.0
C82 C 0.44847 0.23179 0.01296 0.0
C83 C 0.44139 0.25844 -0.00254 0.0
C84 C 0.44772 0.22168 0.09443 0.0
C85 C 0.43981 0.23828 0.15917 0.0
C86 C 0.43421 0.26491 0.14491 0.0
C87 C 0.43367 0.27445 0.06376 0.0
Zn88 Zn 0.0126 0.03946 0.60312 0.0
Zn89 Zn 0.00528 0.95599 0.62798 0.0
C90 C 0.01612 0.08699 0.68178 0.0
O91 O 0.99266 0.08695 0.64709 0.0
C92 C 0.00795 0.91608 0.5158 0.0
O93 O 0.03035 0.915 0.55664 0.0
O94 O 0.01049 0.06123 0.49935 0.0
O95 O 0.03552 0.00732 0.57975 0.0
O96 O 0.0427 0.96481 0.59786 0.0
C97 C 0.03375 0.06908 0.48279 0.0
O98 O 0.05356 0.0595 0.52617 0.0
O99 O 0.02993 0.06593 0.67916 0.0
C100 C 0.97868 0.91904 0.71503 0.0
O101 O 0.96128 0.92993 0.66519 0.0
O102 O 1.00196 0.92838 0.71692 0.0
O103 O 0.98319 0.98798 0.65889 0.0
O104 O 0.97736 0.03104 0.65578 0.0
O105 O 0.99222 0.93526 0.52958 0.0
C106 C 0.04947 0.98682 0.56648 0.0
C107 C 0.96954 0.00821 0.67778 0.0
Zn108 Zn 0.46979 0.98851 0.59005 0.0
Zn109 Zn 0.53817 0.01194 0.63666 0.0
C110 C 0.42675 0.98548 0.69024 0.0
O111 O 0.43318 0.96114 0.67048 0.0
C112 C 0.57757 0.02747 0.5263 0.0
O113 O 0.5705 0.04987 0.56058 0.0
O114 O 0.4441 0.97624 0.50404 0.0
O115 O 0.49193 0.0141 0.52049 0.0
O116 O 0.51187 0.04033 0.60764 0.0
C117 C 0.43233 0.99721 0.47993 0.0
O118 O 0.43974 0.02006 0.51019 0.0
O119 O 0.44265 0.00402 0.67044 0.0
C120 C 0.58285 0.01024 0.72656 0.0
O121 O 0.58216 0.98763 0.68713 0.0
O122 O 0.56303 0.02562 0.72202 0.0
O123 O 0.52604 0.97679 0.68103 0.0
O124 O 0.48793 0.95821 0.64882 0.0
O125 O 0.56364 0.00701 0.54055 0.0
C126 C 0.49888 0.03716 0.54151 0.0
C127 C 0.50993 0.95768 0.68647 0.0
Zn128 Zn 0.50931 0.45401 0.57993 0.0
Zn129 Zn 0.5064 0.52691 0.62636 0.0
C130 C 0.50433 0.41413 0.69241 0.0
O131 O 0.52874 0.41313 0.66533 0.0
C132 C 0.49651 0.57022 0.52535 0.0
O133 O 0.47438 0.56746 0.5667 0.0
O134 O 0.50993 0.42434 0.49778 0.0
O135 O 0.48831 0.48154 0.51378 0.0
O136 O 0.47154 0.50911 0.60429 0.0
C137 C 0.48591 0.41875 0.4822 0.0
O138 O 0.46715 0.43288 0.5164 0.0
O139 O 0.49011 0.43395 0.67154 0.0
C140 C 0.52421 0.56738 0.71907 0.0
O141 O 0.54394 0.56119 0.67026 0.0
O142 O 0.50353 0.55315 0.718 0.0
O143 O 0.53826 0.5051 0.6561 0.0
O144 O 0.54562 0.46333 0.62402 0.0
O145 O 0.51392 0.55212 0.53153 0.0
C146 C 0.46947 0.4962 0.53761 0.0
C147 C 0.55295 0.48476 0.65749 0.0
Zn148 Zn 0.03773 0.51104 0.5706 0.0
Zn149 Zn 0.98283 0.47964 0.63567 0.0
C150 C 0.08078 0.51323 0.67735 0.0
O151 O 0.0749 0.53811 0.66212 0.0
C152 C 0.9427 0.47591 0.519 0.0
O153 O 0.94919 0.45126 0.53545 0.0
O154 O 0.06099 0.5326 0.49587 0.0
O155 O 0.02248 0.48351 0.49277 0.0
O156 O 0.00827 0.45445 0.58402 0.0
C157 C 0.08008 0.5184 0.47123 0.0
O158 O 0.08002 0.49294 0.48802 0.0
O159 O 0.06521 0.49542 0.65074 0.0
C160 C 0.93818 0.47317 0.7235 0.0
O161 O 0.93894 0.49843 0.70413 0.0
O162 O 0.95772 0.45855 0.70547 0.0
O163 O 0.99557 0.50715 0.71514 0.0
O164 O 0.01489 0.53663 0.63441 0.0
O165 O 0.95729 0.49422 0.54761 0.0
C166 C 0.01631 0.45991 0.5117 0.0
C167 C 0.00345 0.53056 0.70176 0.0
H168 H 0.1803 0.93881 0.26224 0.0
H169 H 0.05575 0.01947 0.43176 0.0
H170 H 0.15428 0.01204 0.15207 0.0
H171 H 0.0913 0.9529 0.55725 0.0
H172 H 0.08897 0.01592 0.32272 0.0
H173 H 0.14351 0.94082 0.35958 0.0
C174 C 0.16622 0.9549 0.25721 0.0
C175 C 0.17006 0.97504 0.19896 0.0
C176 C 0.0897 0.00231 0.37464 0.0
C177 C 0.12852 0.97829 0.31206 0.0
C178 C 0.07109 0.00473 0.43802 0.0
C179 C 0.07133 0.98715 0.50563 0.0
C180 C 0.10841 0.98182 0.37809 0.0
C181 C 0.09062 0.9672 0.50717 0.0
C182 C 0.14548 0.95629 0.31342 0.0
C183 C 0.15173 0.99588 0.19551 0.0
N184 N 0.10831 0.96508 0.44449 0.0
N185 N 0.13185 0.99713 0.25211 0.0
H186 H 0.50584 0.18934 0.29863 0.0
H187 H 0.47472 0.03686 0.38939 0.0
H188 H 0.45405 0.14356 0.14509 0.0
H189 H 0.51728 0.08795 0.55542 0.0
H190 H 0.47062 0.07362 0.29115 0.0
H191 H 0.51505 0.15005 0.38247 0.0
C192 C 0.49695 0.17068 0.28169 0.0
C193 C 0.47948 0.16952 0.21504 0.0
C194 C 0.48089 0.07673 0.34898 0.0
C195 C 0.48909 0.12453 0.31174 0.0
C196 C 0.4832 0.05579 0.40539 0.0
C197 C 0.49624 0.05931 0.48135 0.0
C198 C 0.49187 0.10137 0.36823 0.0
C199 C 0.50696 0.08426 0.49803 0.0
C200 C 0.50194 0.14835 0.32988 0.0
C201 C 0.46792 0.14513 0.19569 0.0
N202 N 0.50453 0.10427 0.44203 0.0
N203 N 0.47279 0.12355 0.2445 0.0
H204 H 0.34754 0.48618 0.15719 0.0
H205 H 0.42962 0.53269 0.55293 0.0
H206 H 0.33521 0.56005 0.28208 0.0
H207 H 0.45759 0.47073 0.39276 0.0
H208 H 0.39325 0.54094 0.45722 0.0
H209 H 0.38709 0.47839 0.24332 0.0
C210 C 0.35349 0.50095 0.20152 0.0
C211 C 0.3384 0.52396 0.21272 0.0
C212 C 0.40738 0.52555 0.44283 0.0
C213 C 0.38278 0.51494 0.31214 0.0
C214 C 0.42813 0.52077 0.49777 0.0
C215 C 0.4468 0.50102 0.48109 0.0
C216 C 0.40496 0.5103 0.37083 0.0
C217 C 0.4437 0.48618 0.40834 0.0
C218 C 0.3759 0.49647 0.25095 0.0
C219 C 0.3466 0.54225 0.2717 0.0
N220 N 0.42314 0.49105 0.35609 0.0
N221 N 0.36804 0.53731 0.31961 0.0
H222 H 0.99454 0.31386 0.25247 0.0
H223 H 0.04147 0.46055 0.36118 0.0
H224 H 0.06021 0.35113 0.13046 0.0
H225 H 0.9921 0.41178 0.51666 0.0
H226 H 0.04255 0.42497 0.25858 0.0
H227 H 0.98626 0.35465 0.32858 0.0
C228 C 0.00678 0.33098 0.24053 0.0
C229 C 0.02797 0.32925 0.18581 0.0
C230 C 0.03139 0.42221 0.31501 0.0
C231 C 0.01937 0.37569 0.27398 0.0
C232 C 0.03077 0.44245 0.37358 0.0
C233 C 0.0169 0.43901 0.44806 0.0
C234 C 0.01774 0.39857 0.33068 0.0
C235 C 0.00331 0.41521 0.46071 0.0
C236 C 0.00227 0.35413 0.28434 0.0
C237 C 0.04357 0.35178 0.17224 0.0
N238 N 0.0041 0.39596 0.40274 0.0
N239 N 0.03915 0.37408 0.21706 0.0
H240 H 0.85604 0.0313 0.07336 0.0
H241 H 0.93288 0.96847 0.68769 0.0
H242 H 0.82629 0.96674 0.92891 0.0
H243 H 0.95402 0.04287 0.79692 0.0
H244 H 0.89748 0.9636 0.78936 0.0
H245 H 0.89632 0.03151 0.98855 0.0
C246 C 0.85843 0.01661 0.02557 0.0
C247 C 0.8381 0.99868 0.00828 0.0
C248 C 0.90994 0.98094 0.79147 0.0
C249 C 0.88354 -0.00078 0.91008 0.0
C250 C 0.93033 0.98354 0.73388 0.0
C251 C 0.94673 0.00578 0.73469 0.0
C252 C 0.90585 0.00081 0.85051 0.0
C253 C 0.94177 0.02539 0.79387 0.0
C254 C 0.88119 0.01695 0.97644 0.0
C255 C 0.84176 0.98058 0.94431 0.0
N256 N 0.92185 0.02243 0.84952 0.0
N257 N 0.86393 0.98135 0.89727 0.0
H258 H 0.50558 0.83586 0.06655 0.0
H259 H 0.55875 0.94195 0.73879 0.0
H260 H 0.58367 0.83287 0.96273 0.0
H261 H 0.47612 0.92338 0.7648 0.0
H262 H 0.56928 0.90775 0.84097 0.0
H263 H 0.49578 0.87474 0.97946 0.0
C264 C 0.52092 0.84398 0.02747 0.0
C265 C 0.54562 0.83151 0.02198 0.0
C266 C 0.54886 0.91113 0.82419 0.0
C267 C 0.53444 0.8753 0.92172 0.0
C268 C 0.54281 0.93061 0.76575 0.0
C269 C 0.51652 0.93543 0.74277 0.0
C270 C 0.52845 0.89658 0.86111 0.0
C271 C 0.49668 0.9201 0.77996 0.0
C272 C 0.51521 0.86585 0.97698 0.0
C273 C 0.56457 0.84226 0.96892 0.0
N274 N 0.50304 0.90143 0.83773 0.0
N275 N 0.55861 0.86351 0.9206 0.0
H276 H 0.69618 0.53141 0.90806 0.0
H277 H 0.5766 0.44456 0.7454 0.0
H278 H 0.66983 0.46208 0.03915 0.0
H279 H 0.58432 0.52747 0.68665 0.0
H280 H 0.61343 0.44856 0.84355 0.0
H281 H 0.65683 0.52936 0.82011 0.0
C282 C 0.68158 0.51623 0.91965 0.0
C283 C 0.68581 0.49733 0.98172 0.0
C284 C 0.60704 0.46583 0.80896 0.0
C285 C 0.64154 0.49383 0.87898 0.0
C286 C 0.58631 0.46348 0.75212 0.0
C287 C 0.57744 0.48572 0.70758 0.0
C288 C 0.61923 0.49048 0.82023 0.0
C289 C 0.59044 0.50986 0.71986 0.0
C290 C 0.65932 0.51486 0.86909 0.0
C291 C 0.66686 0.47743 0.99312 0.0
N292 N 0.61071 0.51157 0.77463 0.0
N293 N 0.64568 0.47596 0.94129 0.0
H294 H 0.92269 0.63703 0.02103 0.0
H295 H 0.02856 0.57815 0.72372 0.0
H296 H 0.00307 0.664 0.03222 0.0
H297 H 0.967 0.52894 0.82553 0.0
H298 H 0.01863 0.61158 0.82886 0.0
H299 H 0.93736 0.59795 0.94443 0.0
C300 C 0.94353 0.6342 0.00926 0.0
C301 C 0.96173 0.65332 0.03371 0.0
C302 C 0.00753 0.59331 0.82839 0.0
C303 C 0.97854 0.60973 0.94299 0.0
C304 C 0.013 0.57438 0.76808 0.0
C305 C 0.99842 0.55085 0.76537 0.0
C306 C 0.98697 0.58888 0.88492 0.0
C307 C 0.97866 0.54684 0.82501 0.0
C308 C 0.95189 0.6121 0.9653 0.0
C309 C 0.98852 0.64934 0.01555 0.0
N310 N 0.97326 0.56582 0.88153 0.0
N311 N 0.9961 0.62819 0.96961 0.0
H312 H 0.02685 0.22164 0.24138 0.0
H313 H 0.08002 0.08262 0.41087 0.0
H314 H 0.10394 0.19017 0.18608 0.0
H315 H 0.99896 0.10777 0.43372 0.0
H316 H 0.09009 0.12365 0.33793 0.0
H317 H 0.01791 0.18268 0.32731 0.0
C318 C 0.04214 0.20682 0.24914 0.0
C319 C 0.06614 0.20899 0.20659 0.0
C320 C 0.07005 0.12018 0.35833 0.0
C321 C 0.05582 0.16421 0.30255 0.0
C322 C 0.06426 0.0967 0.39954 0.0
C323 C 0.0386 0.0918 0.42786 0.0
C324 C 0.05008 0.13903 0.34576 0.0
C325 C 0.01893 0.11069 0.41189 0.0
C326 C 0.03689 0.18445 0.29715 0.0
C327 C 0.08513 0.18909 0.21756 0.0
N328 N 0.02512 0.13362 0.37217 0.0
N329 N 0.07948 0.16742 0.26403 0.0
H330 H 0.28505 0.96159 0.23277 0.0
H331 H 0.41239 0.03825 0.39333 0.0
H332 H 0.30438 0.04234 0.17163 0.0
H333 H 0.39885 0.95569 0.44778 0.0
H334 H 0.37092 0.04016 0.31953 0.0
H335 H 0.32387 0.95952 0.32387 0.0
C336 C 0.29721 0.97901 0.2402 0.0
C337 C 0.2919 0.00212 0.19484 0.0
C338 C 0.37692 0.02153 0.34715 0.0
C339 C 0.33606 -0.00017 0.29643 0.0
C340 C 0.4007 0.02039 0.38908 0.0
C341 C 0.40899 0.99675 0.42654 0.0
C342 C 0.3612 0.99883 0.34219 0.0
C343 C 0.39316 0.97422 0.4189 0.0
C344 C 0.31939 0.97776 0.29126 0.0
C345 C 0.30811 0.02414 0.20537 0.0
N346 N 0.36983 0.97581 0.3775 0.0
N347 N 0.32959 0.02238 0.2547 0.0
H348 H 0.40297 0.30821 0.17537 0.0
H349 H 0.51507 0.37425 0.44968 0.0
H350 H 0.47123 0.26587 0.2663 0.0
H351 H 0.43892 0.4103 0.40749 0.0
H352 H 0.49937 0.33423 0.38069 0.0
H353 H 0.41463 0.34538 0.26428 0.0
C354 C 0.41999 0.30651 0.21563 0.0
C355 C 0.43621 0.28405 0.21322 0.0
C356 C 0.48611 0.35092 0.38674 0.0
C357 C 0.45009 0.32652 0.31285 0.0
C358 C 0.4952 0.37381 0.42507 0.0
C359 C 0.47829 0.39552 0.43386 0.0
C360 C 0.46009 0.34999 0.35648 0.0
C361 C 0.45257 0.3939 0.40205 0.0
C362 C 0.42676 0.32773 0.2659 0.0
C363 C 0.45805 0.28275 0.26659 0.0
N364 N 0.44427 0.37155 0.36453 0.0
N365 N 0.46461 0.3039 0.3132 0.0
H366 H 0.18937 0.56718 0.11211 0.0
H367 H 0.12976 0.50651 0.51617 0.0
H368 H 0.23456 0.52613 0.29967 0.0
H369 H 0.08494 0.5576 0.35409 0.0
H370 H 0.17028 0.52174 0.45162 0.0
H371 H 0.15348 0.57269 0.21145 0.0
C372 C 0.19198 0.55988 0.1747 0.0
C373 C 0.21467 0.54551 0.19695 0.0
C374 C 0.15171 0.53 0.43047 0.0
C375 C 0.17383 0.55167 0.31043 0.0
C376 C 0.12858 0.52114 0.46701 0.0
C377 C 0.10417 0.5304 0.43858 0.0
C378 C 0.15035 0.54762 0.36314 0.0
C379 C 0.10354 0.54979 0.37649 0.0
C380 C 0.17154 0.56312 0.23144 0.0
C381 C 0.21738 0.53713 0.27934 0.0
N382 N 0.12638 0.55735 0.33915 0.0
N383 N 0.19695 0.53984 0.33253 0.0
H384 H 0.97984 0.76291 0.92813 0.0
H385 H 0.92957 0.90203 0.75467 0.0
H386 H 0.90699 0.79905 0.00656 0.0
H387 H 0.01166 0.87961 0.76939 0.0
H388 H 0.91747 0.85948 0.8163 0.0
H389 H 0.98711 0.79999 0.8331 0.0
C390 C 0.96486 0.77815 0.92291 0.0
C391 C 0.94285 0.77812 0.97534 0.0
C392 C 0.93811 0.86391 0.80592 0.0
C393 C 0.95137 0.82066 0.86889 0.0
C394 C 0.94505 0.88816 0.7713 0.0
C395 C 0.97168 0.89441 0.75822 0.0
C396 C 0.95791 0.84564 0.82642 0.0
C397 C 0.99094 0.87571 0.77999 0.0
C398 C 0.96924 0.79946 0.86975 0.0
C399 C 0.92425 0.79852 0.96723 0.0
N400 N 0.98366 0.85206 0.81301 0.0
N401 N 0.92909 0.81922 0.91567 0.0
H402 H 0.69751 0.07048 0.06382 0.0
H403 H 0.63162 0.99019 0.69928 0.0
H404 H 0.73622 0.00887 0.92564 0.0
H405 H 0.59066 0.05039 0.83726 0.0
H406 H 0.67271 0.00315 0.76439 0.0
H407 H 0.66145 0.07038 0.96326 0.0
C408 C 0.69865 0.05733 0.01137 0.0
C409 C 0.71955 0.03925 0.00394 0.0
C410 C 0.65482 0.01368 0.78034 0.0
C411 C 0.67851 0.03892 0.88947 0.0
C412 C 0.63127 0.00611 0.74374 0.0
C413 C 0.60764 0.01881 0.76474 0.0
C414 C 0.65472 0.03386 0.83938 0.0
C415 C 0.60845 0.03983 0.82062 0.0
C416 C 0.67811 0.05728 0.95408 0.0
C417 C 0.72045 0.02306 0.93403 0.0
N418 N 0.63164 0.04648 0.85713 0.0
N419 N 0.69994 0.02296 0.88028 0.0
H420 H 0.49433 0.69497 0.05458 0.0
H421 H 0.56396 0.60351 0.72026 0.0
H422 H 0.57131 0.71108 0.95384 0.0
H423 H 0.48677 0.58815 0.82242 0.0
H424 H 0.56537 0.64514 0.79471 0.0
H425 H 0.48908 0.65878 0.95693 0.0
C426 C 0.50995 0.69099 0.01069 0.0
C427 C 0.53334 0.70562 0.01205 0.0
C428 C 0.5481 0.63272 0.80076 0.0
C429 C 0.52784 0.6641 0.90171 0.0
C430 C 0.54731 0.60883 0.75869 0.0
C431 C 0.52531 0.59216 0.76608 0.0
C432 C 0.52679 0.63996 0.85091 0.0
C433 C 0.50423 0.60026 0.81574 0.0
C434 C 0.50703 0.67034 0.95527 0.0
C435 C 0.55303 0.70004 0.95426 0.0
N436 N 0.50555 0.62357 0.85666 0.0
N437 N 0.54999 0.67939 0.90182 0.0
H438 H 0.78309 0.47529 0.89887 0.0
H439 H 0.93173 0.43191 0.83282 0.0
H440 H 0.82691 0.42776 0.07461 0.0
H441 H 0.88891 0.48905 0.68553 0.0
H442 H 0.89004 0.41891 0.89933 0.0
H443 H 0.8173 0.46769 0.79699 0.0
C444 C 0.79955 0.46265 0.91556 0.0
C445 C 0.80248 0.45275 -0.00372 0.0
C446 C 0.88979 0.43393 0.85133 0.0
C447 C 0.84228 0.44483 0.88048 0.0
C448 C 0.91348 0.44133 0.81368 0.0
C449 C 0.91362 0.46207 0.75592 0.0
C450 C 0.86635 0.44728 0.82986 0.0
C451 C 0.88962 0.47352 0.73195 0.0
C452 C 0.81926 0.45851 0.85738 0.0
C453 C 0.82435 0.43655 0.01392 0.0
N454 N 0.86699 0.46617 0.76968 0.0
N455 N 0.84378 0.43359 0.95703 0.0
H456 H 0.10953 0.20576 0.92054 0.0
H457 H 0.99127 0.1347 0.68913 0.0
H458 H 0.03274 0.2405 0.8827 0.0
H459 H 0.06591 0.097 0.74265 0.0
H460 H 0.00926 0.1766 0.73545 0.0
H461 H 0.09795 0.17039 0.82477 0.0
C462 C 0.09066 0.20659 0.88902 0.0
C463 C 0.07185 0.22578 0.91067 0.0
C464 C 0.02181 0.15924 0.73673 0.0
C465 C 0.05816 0.18501 0.80355 0.0
C466 C 0.01148 0.13519 0.71084 0.0
C467 C 0.027 0.11215 0.71304 0.0
C468 C 0.04788 0.16043 0.76563 0.0
C469 C 0.05313 0.11418 0.74094 0.0
C470 C 0.08389 0.18615 0.83547 0.0
C471 C 0.04775 0.226 0.86818 0.0
N472 N 0.0627 0.13787 0.76673 0.0
N473 N 0.04131 0.20549 0.81826 0.0
H474 H 0.28491 0.04951 0.90783 0.0
H475 H 0.38892 0.94907 0.7242 0.0
H476 H 0.27049 0.96643 0.87492 0.0
H477 H 0.40219 0.03335 0.72446 0.0
H478 H 0.34363 0.95645 0.76567 0.0
H479 H 0.32404 0.04604 0.81994 0.0
C480 C 0.28913 0.03084 0.87806 0.0
C481 C 0.27447 0.00818 0.89882 0.0
C482 C 0.35628 0.97343 0.75644 0.0
C483 C 0.31993 0.00375 0.80176 0.0
C484 C 0.38239 0.96924 0.73336 0.0
C485 C 0.39965 0.99062 0.72143 0.0
C486 C 0.34706 -0.00074 0.76895 0.0
C487 C 0.38971 0.01625 0.7338 0.0
C488 C 0.31184 0.02874 0.8294 0.0
C489 C 0.28114 0.98439 0.86018 0.0
N490 N 0.36411 0.01985 0.75754 0.0
N491 N 0.30376 0.98264 0.81538 0.0
H492 H 0.48892 0.26079 0.91982 0.0
H493 H 0.45202 0.40134 0.71966 0.0
H494 H 0.40921 0.2901 0.90339 0.0
H495 H 0.53126 0.37157 0.75195 0.0
H496 H 0.43496 0.35885 0.77131 0.0
H497 H 0.50356 0.29775 0.83353 0.0
C498 C 0.47431 0.27434 0.89489 0.0
C499 C 0.44785 0.27249 0.91925 0.0
C500 C 0.45608 0.36168 0.76692 0.0
C501 C 0.46459 0.31564 0.8238 0.0
C502 C 0.46581 0.38604 0.73843 0.0
C503 C 0.49311 0.39014 0.73206 0.0
C504 C 0.4738 0.34133 0.78897 0.0
C505 C 0.51005 0.36941 0.75595 0.0
C506 C 0.48274 0.29582 0.84701 0.0
C507 C 0.42983 0.29093 0.88616 0.0
N508 N 0.50015 0.34603 0.78323 0.0
N509 N 0.43859 0.31208 0.84171 0.0
H510 H 0.23905 0.53118 0.85098 0.0
H511 H 0.09739 0.4678 0.75918 0.0
H512 H 0.2065 0.46777 -0.00293 0.0
H513 H 0.12456 0.54376 0.67181 0.0
H514 H 0.14144 0.45971 0.8197 0.0
H515 H 0.20257 0.52652 0.75283 0.0
C516 C 0.22494 0.51536 0.86004 0.0
C517 C 0.22581 0.49976 0.93181 0.0
C518 C 0.13772 0.47801 0.78647 0.0
C519 C 0.18327 0.49515 0.82243 0.0
C520 C 0.11261 0.48265 0.75228 0.0
C521 C 0.10713 0.50672 0.71204 0.0
C522 C 0.1575 0.49737 0.77864 0.0
C523 C 0.12766 0.52518 0.70402 0.0
C524 C 0.2038 0.51303 0.80497 0.0
C525 C 0.20658 0.48001 0.94188 0.0
N526 N 0.15178 0.52015 0.73707 0.0
N527 N 0.18576 0.47861 0.88882 0.0
H528 H 0.91939 0.79106 0.28438 0.0
H529 H 0.03914 0.87614 0.46077 0.0
H530 H 1.00076 0.76675 0.27054 0.0
H531 H 0.95801 0.90214 0.46626 0.0
H532 H 0.02508 0.83442 0.40082 0.0
H533 H 0.93246 0.82884 0.36856 0.0
C534 C 0.93992 0.79319 0.30183 0.0
C535 C 0.95906 0.77582 0.27073 0.0
C536 C 0.01031 0.84922 0.41494 0.0
C537 C 0.97431 0.81949 0.36384 0.0
C538 C 0.01834 0.87316 0.44861 0.0
C539 C 0.9997 0.89268 0.4684 0.0
C540 C 0.98339 0.84464 0.40097 0.0
C541 C 0.97305 0.88773 0.45128 0.0
C542 C 0.94743 0.81497 0.34869 0.0
C543 C 0.98541 0.77957 0.29399 0.0
N544 N 0.96568 0.86413 0.41875 0.0
N545 N 0.99233 0.80128 0.33803 0.0
H546 H 0.7197 0.97773 0.27391 0.0
H547 H 0.61337 0.06689 0.50239 0.0
H548 H 0.73162 0.05943 0.33592 0.0
H549 H 0.60286 0.9831 0.46631 0.0
H550 H 0.65835 0.06311 0.45182 0.0
H551 H 0.68012 0.97705 0.36083 0.0
C552 C 0.71477 0.99511 0.30957 0.0
C553 C 0.72911 0.01859 0.29869 0.0
C554 C 0.64631 0.04548 0.45499 0.0
C555 C 0.6831 0.01847 0.39435 0.0
C556 C 0.62043 0.04766 0.48322 0.0
C557 C 0.6041 0.02532 0.48799 0.0
C558 C 0.65615 0.02078 0.43044 0.0
C559 C 0.6146 0.00092 0.46288 0.0
C560 C 0.69184 0.9949 0.35776 0.0
C561 C 0.72134 0.04084 0.3438 0.0
N562 N 0.63991 -0.00068 0.4348 0.0
N563 N 0.6986 0.04039 0.38829 0.0
H564 H 0.57523 0.70578 0.31593 0.0
H565 H 0.46309 0.6117 0.49776 0.0
H566 H 0.49272 0.72597 0.31738 0.0
H567 H 0.54477 0.58878 0.47379 0.0
H568 H 0.4745 0.65631 0.45218 0.0
H569 H 0.56581 0.66716 0.40275 0.0
C570 C 0.55532 0.70285 0.33847 0.0
C571 C 0.5347 0.71907 0.30986 0.0
C572 C 0.48996 0.64156 0.45694 0.0
C573 C 0.52352 0.67423 0.40513 0.0
C574 C 0.48343 0.61598 0.48228 0.0
C575 C 0.50296 0.59634 0.48883 0.0
C576 C 0.51627 0.6477 0.43802 0.0
C577 C 0.529 0.60317 0.46858 0.0
C578 C 0.54983 0.68045 0.38636 0.0
C579 C 0.50916 0.71406 0.33889 0.0
N580 N 0.53489 0.62826 0.44402 0.0
N581 N 0.50416 0.69172 0.3834 0.0
H582 H 0.78445 0.45497 0.34427 0.0
H583 H 0.92339 0.52242 0.4497 0.0
H584 H 0.81169 0.52552 0.22142 0.0
H585 H 0.90115 0.44232 0.51054 0.0
H586 H 0.87878 0.52981 0.39258 0.0
H587 H 0.82213 0.45743 0.43871 0.0
C588 C 0.79767 0.47173 0.33994 0.0
C589 C 0.79487 0.49019 0.27565 0.0
C590 C 0.88374 0.51071 0.41903 0.0
C591 C 0.83883 0.49243 0.38031 0.0
C592 C 0.90919 0.50646 0.45115 0.0
C593 C 0.91623 0.48156 0.48338 0.0
C594 C 0.86515 0.49007 0.42083 0.0
C595 C 0.89691 0.46168 0.48476 0.0
C596 C 0.8195 0.47286 0.3927 0.0
C597 C 0.81305 0.5111 0.27105 0.0
N598 N 0.87242 0.46636 0.454 0.0
N599 N 0.83457 0.5114 0.32156 0.0
loop_
_geom_bond_atom_site_label_1
_geom_bond_atom_site_label_2
_geom_bond_distance
_geom_bond_site_symmetry_2
_ccdc_geom_bond_type
H0 C5 0.929 . S
H1 C10 0.931 . S
H2 C8 0.930 . S
N3 N4 1.234 1_554 S
N3 C7 1.453 . S
N4 N3 1.234 1_556 S
C5 H0 0.929 . S
C5 C6 1.373 . S
C5 C7 1.368 . S
C6 C5 1.373 . S
C6 C10 1.397 . S
C7 N3 1.453 . S
C7 C5 1.368 . S
C7 C8 1.373 1_554 S
C8 H2 0.930 . S
C8 C7 1.373 1_556 S
C8 C9 1.371 . S
C9 C8 1.371 . S
C9 C10 1.383 1_556 S
C10 H1 0.931 . S
C10 C6 1.397 . S
C10 C9 1.383 1_554 S
H11 C16 0.929 . S
H12 C21 0.931 . S
H13 C19 0.930 . S
N14 N15 1.234 1_554 S
N14 C18 1.453 . S
N15 N14 1.234 1_556 S
C16 H11 0.929 . S
C16 C17 1.373 . S
C16 C18 1.368 . S
C17 C16 1.373 . S
C17 C21 1.397 . S
C18 N14 1.453 . S
C18 C16 1.368 . S
C18 C19 1.373 1_554 S
C19 H13 0.930 . S
C19 C18 1.373 1_556 S
C19 C20 1.371 . S
C20 C19 1.371 . S
C20 C21 1.383 1_556 S
C21 H12 0.931 . S
C21 C17 1.397 . S
C21 C20 1.383 1_554 S
H22 C27 0.929 . S
H23 C32 0.931 . S
H24 C30 0.930 . S
N25 N26 1.224 1_544 S
N25 C29 1.453 . S
N26 N25 1.224 1_566 S
C27 H22 0.929 . S
C27 C28 1.373 . S
C27 C29 1.368 . S
C28 C27 1.373 . S
C28 C32 1.397 1_545 S
C29 N25 1.453 . S
C29 C27 1.368 . S
C29 C30 1.373 1_554 S
C30 H24 0.930 . S
C30 C29 1.373 1_556 S
C30 C31 1.374 . S
C31 C30 1.374 . S
C31 C32 1.382 1_546 S
C32 H23 0.931 . S
C32 C28 1.397 1_565 S
C32 C31 1.382 1_564 S
H33 C38 0.929 . S
H34 C43 0.931 . S
H35 C41 0.930 . S
N36 N37 1.234 1_554 S
N36 C40 1.453 . S
N37 N36 1.234 1_556 S
C38 H33 0.929 . S
C38 C39 1.373 . S
C38 C40 1.368 . S
C39 C38 1.373 . S
C39 C43 1.397 . S
C40 N36 1.453 . S
C40 C38 1.368 . S
C40 C41 1.373 1_554 S
C41 H35 0.930 . S
C41 C40 1.373 1_556 S
C41 C42 1.371 . S
C42 C41 1.371 . S
C42 C43 1.383 1_556 S
C43 H34 0.931 . S
C43 C39 1.397 . S
C43 C42 1.383 1_554 S
H44 C49 0.929 . S
H45 C54 0.931 . S
H46 C52 0.930 . S
N47 N48 1.234 . S
N47 C51 1.453 . S
N48 N47 1.234 . S
C49 H44 0.929 . S
C49 C50 1.373 . S
C49 C51 1.368 . S
C50 C49 1.373 . S
C50 C54 1.397 . S
C51 N47 1.453 . S
C51 C49 1.368 . S
C51 C52 1.373 . S
C52 H46 0.930 . S
C52 C51 1.373 . S
C52 C53 1.371 . S
C53 C52 1.371 . S
C53 C54 1.383 . S
C54 H45 0.931 . S
C54 C50 1.397 . S
C54 C53 1.383 . S
H55 C60 0.929 . S
H56 C65 0.931 . S
H57 C63 0.930 . S
N58 N59 1.234 . S
N58 C62 1.453 . S
N59 N58 1.234 . S
C60 H55 0.929 . S
C60 C61 1.373 . S
C60 C62 1.368 . S
C61 C60 1.373 . S
C61 C65 1.397 . S
C62 N58 1.453 . S
C62 C60 1.368 . S
C62 C63 1.373 . S
C63 H57 0.930 . S
C63 C62 1.373 . S
C63 C64 1.371 . S
C64 C63 1.371 . S
C64 C65 1.383 . S
C65 H56 0.931 . S
C65 C61 1.397 . S
C65 C64 1.383 . S
H66 C71 0.929 . S
H67 C76 0.931 . S
H68 C74 0.930 . S
N69 N70 1.227 1_545 S
N69 C73 1.453 . S
N70 N69 1.227 1_565 S
C71 H66 0.929 . S
C71 C72 1.373 . S
C71 C73 1.368 . S
C72 C71 1.373 . S
C72 C76 1.397 1_545 S
C73 N69 1.453 . S
C73 C71 1.368 . S
C73 C74 1.373 . S
C74 H68 0.930 . S
C74 C73 1.373 . S
C74 C75 1.375 . S
C75 C74 1.375 . S
C75 C76 1.381 1_545 S
C76 H67 0.931 . S
C76 C72 1.397 1_565 S
C76 C75 1.381 1_565 S
H77 C82 0.929 . S
H78 C87 0.931 . S
H79 C85 0.930 . S
N80 N81 1.234 . S
N80 C84 1.453 . S
N81 N80 1.234 . S
C82 H77 0.929 . S
C82 C83 1.373 . S
C82 C84 1.368 . S
C83 C82 1.373 . S
C83 C87 1.397 . S
C84 N80 1.453 . S
C84 C82 1.368 . S
C84 C85 1.373 . S
C85 H79 0.930 . S
C85 C84 1.373 . S
C85 C86 1.371 . S
C86 C85 1.371 . S
C86 C87 1.383 . S
C87 H78 0.931 . S
C87 C83 1.397 . S
C87 C86 1.383 . S
Zn88 O94 1.969 1_455 S
Zn88 O95 1.965 . S
Zn88 O99 2.024 . S
Zn88 O104 1.969 1_455 S
Zn89 O96 1.969 . S
Zn89 O102 1.969 . S
Zn89 O103 1.965 1_455 S
Zn89 O105 2.024 1_455 S
C90 O91 1.229 . S
C90 O99 1.058 . S
O91 C90 1.229 . S
C92 O93 1.229 1_655 S
C92 O105 1.058 . S
O93 C92 1.229 1_455 S
O94 Zn88 1.969 1_655 S
O94 C97 1.267 1_655 S
O95 Zn88 1.965 . S
O95 C106 1.260 1_545 S
O96 Zn89 1.969 . S
O96 C106 1.258 . S
C97 O94 1.267 1_455 S
C97 O98 1.228 . S
O98 C97 1.228 . S
O99 Zn88 2.024 . S
O99 C90 1.058 . S
C100 O101 1.228 . S
C100 O102 1.267 1_655 S
O101 C100 1.228 . S
O102 Zn89 1.969 . S
O102 C100 1.267 1_455 S
O103 Zn89 1.965 1_655 S
O103 C107 1.260 1_565 S
O104 Zn88 1.969 1_655 S
O104 C107 1.258 . S
O105 Zn89 2.024 1_655 S
O105 C92 1.058 . S
C106 O95 1.260 1_565 S
C106 O96 1.258 . S
C107 O103 1.260 1_545 S
C107 O104 1.258 . S
Zn108 O114 1.969 . S
Zn108 O115 1.965 1_565 S
Zn108 O119 2.024 1_565 S
Zn108 O124 1.969 . S
Zn109 O116 1.969 . S
Zn109 O122 1.969 . S
Zn109 O123 1.965 1_545 S
Zn109 O125 2.024 1_545 S
C110 O111 1.229 1_545 S
C110 O119 1.058 . S
O111 C110 1.229 1_565 S
C112 O113 1.229 1_565 S
C112 O125 1.058 . S
O113 C112 1.229 1_545 S
O114 Zn108 1.969 . S
O114 C117 1.267 . S
O115 Zn108 1.965 1_545 S
O115 C126 1.260 . S
O116 Zn109 1.969 . S
O116 C126 1.258 . S
C117 O114 1.267 . S
C117 O118 1.228 1_565 S
O118 C117 1.228 1_545 S
O119 Zn108 2.024 1_545 S
O119 C110 1.058 . S
C120 O121 1.228 1_545 S
C120 O122 1.267 . S
O121 C120 1.228 1_565 S
O122 Zn109 1.969 . S
O122 C120 1.267 . S
O123 Zn109 1.965 1_565 S
O123 C127 1.260 . S
O124 Zn108 1.969 . S
O124 C127 1.258 . S
O125 Zn109 2.024 1_565 S
O125 C112 1.058 . S
C126 O115 1.260 . S
C126 O116 1.258 . S
C127 O123 1.260 . S
C127 O124 1.258 . S
Zn128 O134 1.969 . S
Zn128 O135 1.965 . S
Zn128 O139 2.024 . S
Zn128 O144 1.969 . S
Zn129 O136 1.969 . S
Zn129 O142 1.969 . S
Zn129 O143 1.965 . S
Zn129 O145 2.024 . S
C130 O131 1.229 . S
C130 O139 1.058 . S
O131 C130 1.229 . S
C132 O133 1.229 . S
C132 O145 1.058 . S
O133 C132 1.229 . S
O134 Zn128 1.969 . S
O134 C137 1.267 . S
O135 Zn128 1.965 . S
O135 C146 1.260 . S
O136 Zn129 1.969 . S
O136 C146 1.258 . S
C137 O134 1.267 . S
C137 O138 1.228 . S
O138 C137 1.228 . S
O139 Zn128 2.024 . S
O139 C130 1.058 . S
C140 O141 1.228 . S
C140 O142 1.267 . S
O141 C140 1.228 . S
O142 Zn129 1.969 . S
O142 C140 1.267 . S
O143 Zn129 1.965 . S
O143 C147 1.260 . S
O144 Zn128 1.969 . S
O144 C147 1.258 . S
O145 Zn129 2.024 . S
O145 C132 1.058 . S
C146 O135 1.260 . S
C146 O136 1.258 . S
C147 O143 1.260 . S
C147 O144 1.258 . S
Zn148 O154 1.969 . S
Zn148 O155 1.965 . S
Zn148 O159 2.024 . S
Zn148 O164 1.969 . S
Zn149 O156 1.969 . S
Zn149 O162 1.969 . S
Zn149 O163 1.965 . S
Zn149 O165 2.024 . S
C150 O151 1.229 . S
C150 O159 1.058 . S
O151 C150 1.229 . S
C152 O153 1.229 . S
C152 O165 1.058 . S
O153 C152 1.229 . S
O154 Zn148 1.969 . S
O154 C157 1.267 . S
O155 Zn148 1.965 . S
O155 C166 1.260 . S
O156 Zn149 1.969 . S
O156 C166 1.258 1_655 S
C157 O154 1.267 . S
C157 O158 1.228 . S
O158 C157 1.228 . S
O159 Zn148 2.024 . S
O159 C150 1.058 . S
C160 O161 1.228 . S
C160 O162 1.267 . S
O161 C160 1.228 . S
O162 Zn149 1.969 . S
O162 C160 1.267 . S
O163 Zn149 1.965 . S
O163 C167 1.260 1_655 S
O164 Zn148 1.969 . S
O164 C167 1.258 . S
O165 Zn149 2.024 . S
O165 C152 1.058 . S
C166 O155 1.260 . S
C166 O156 1.258 1_455 S
C167 O163 1.260 1_455 S
C167 O164 1.258 . S
H168 C174 0.930 . S
H169 C178 0.930 . S
H170 C183 0.929 . S
H171 C181 0.929 . S
H172 C176 0.929 . S
H173 C182 0.929 . S
C174 H168 0.930 . S
C174 C175 1.372 . S
C174 C182 1.378 . S
C175 C174 1.372 . S
C175 C183 1.428 1_565 S
C176 H172 0.929 . S
C176 C178 1.378 . S
C176 C180 1.341 1_545 S
C177 C180 1.463 . S
C177 C182 1.350 . S
C177 N185 1.427 1_565 S
C178 H169 0.930 . S
C178 C176 1.378 . S
C178 C179 1.367 1_545 S
C179 C178 1.367 1_565 S
C179 C181 1.433 . S
C180 C176 1.341 1_565 S
C180 C177 1.463 . S
C180 N184 1.437 . S
C181 H171 0.929 . S
C181 C179 1.433 . S
C181 N184 1.384 . S
C182 H173 0.929 . S
C182 C174 1.378 . S
C182 C177 1.350 . S
C183 H170 0.929 . S
C183 C175 1.428 1_545 S
C183 N185 1.384 . S
N184 C180 1.437 . S
N184 C181 1.384 . S
N185 C177 1.427 1_545 S
N185 C183 1.384 . S
H186 C192 0.930 . S
H187 C196 0.930 . S
H188 C201 0.929 . S
H189 C199 0.929 . S
H190 C194 0.929 . S
H191 C200 0.929 . S
C192 H186 0.930 . S
C192 C193 1.367 . S
C192 C200 1.378 . S
C193 C192 1.367 . S
C193 C201 1.433 . S
C194 H190 0.929 . S
C194 C196 1.378 . S
C194 C198 1.350 . S
C195 C198 1.463 . S
C195 C200 1.350 . S
C195 N203 1.427 . S
C196 H187 0.930 . S
C196 C194 1.378 . S
C196 C197 1.367 . S
C197 C196 1.367 . S
C197 C199 1.433 . S
C198 C194 1.350 . S
C198 C195 1.463 . S
C198 N202 1.427 . S
C199 H189 0.929 . S
C199 C197 1.433 . S
C199 N202 1.384 . S
C200 H191 0.929 . S
C200 C192 1.378 . S
C200 C195 1.350 . S
C201 H188 0.929 . S
C201 C193 1.433 . S
C201 N203 1.384 . S
N202 C198 1.427 . S
N202 C199 1.384 . S
N203 C195 1.427 . S
N203 C201 1.384 . S
H204 C210 0.930 . S
H205 C214 0.930 . S
H206 C219 0.929 . S
H207 C217 0.929 . S
H208 C212 0.929 . S
H209 C218 0.929 . S
C210 H204 0.930 . S
C210 C211 1.367 . S
C210 C218 1.378 . S
C211 C210 1.367 . S
C211 C219 1.433 . S
C212 H208 0.929 . S
C212 C214 1.378 . S
C212 C216 1.350 . S
C213 C216 1.463 . S
C213 C218 1.350 . S
C213 N221 1.427 . S
C214 H205 0.930 . S
C214 C212 1.378 . S
C214 C215 1.367 . S
C215 C214 1.367 . S
C215 C217 1.433 . S
C216 C212 1.350 . S
C216 C213 1.463 . S
C216 N220 1.427 . S
C217 H207 0.929 . S
C217 C215 1.433 . S
C217 N220 1.384 . S
C218 H209 0.929 . S
C218 C210 1.378 . S
C218 C213 1.350 . S
C219 H206 0.929 . S
C219 C211 1.433 . S
C219 N221 1.384 . S
N220 C216 1.427 . S
N220 C217 1.384 . S
N221 C213 1.427 . S
N221 C219 1.384 . S
H222 C228 0.930 . S
H223 C232 0.930 . S
H224 C237 0.929 . S
H225 C235 0.929 . S
H226 C230 0.929 . S
H227 C236 0.929 . S
C228 H222 0.930 . S
C228 C229 1.367 . S
C228 C236 1.378 . S
C229 C228 1.367 . S
C229 C237 1.433 . S
C230 H226 0.929 . S
C230 C232 1.378 . S
C230 C234 1.350 . S
C231 C234 1.463 . S
C231 C236 1.350 . S
C231 N239 1.427 . S
C232 H223 0.930 . S
C232 C230 1.378 . S
C232 C233 1.367 . S
C233 C232 1.367 . S
C233 C235 1.433 1_455 S
C234 C230 1.350 . S
C234 C231 1.463 . S
C234 N238 1.427 . S
C235 H225 0.929 . S
C235 C233 1.433 1_655 S
C235 N238 1.384 1_655 S
C236 H227 0.929 . S
C236 C228 1.378 . S
C236 C231 1.350 . S
C237 H224 0.929 . S
C237 C229 1.433 . S
C237 N239 1.384 . S
N238 C234 1.427 . S
N238 C235 1.384 1_455 S
N239 C231 1.427 . S
N239 C237 1.384 . S
H240 C246 0.930 . S
H241 C250 0.930 . S
H242 C255 0.929 . S
H243 C253 0.929 . S
H244 C248 0.929 . S
H245 C254 0.929 . S
C246 H240 0.930 . S
C246 C247 1.396 . S
C246 C254 1.378 . S
C247 C246 1.396 . S
C247 C255 1.404 1_545 S
C248 H244 0.929 . S
C248 C250 1.378 . S
C248 C252 1.339 1_565 S
C249 C252 1.463 . S
C249 C254 1.350 . S
C249 N257 1.427 1_545 S
C250 H241 0.930 . S
C250 C248 1.378 . S
C250 C251 1.367 1_565 S
C251 C250 1.367 1_545 S
C251 C253 1.433 . S
C252 C248 1.339 1_545 S
C252 C249 1.463 . S
C252 N256 1.439 . S
C253 H243 0.929 . S
C253 C251 1.433 . S
C253 N256 1.384 . S
C254 H245 0.929 . S
C254 C246 1.378 . S
C254 C249 1.350 . S
C255 H242 0.929 . S
C255 C247 1.404 1_565 S
C255 N257 1.384 . S
N256 C252 1.439 . S
N256 C253 1.384 . S
N257 C249 1.427 1_565 S
N257 C255 1.384 . S
H258 C264 0.930 . S
H259 C268 0.930 . S
H260 C273 0.929 1_554 S
H261 C271 0.929 . S
H262 C266 0.929 . S
H263 C272 0.929 . S
C264 H258 0.930 . S
C264 C265 1.367 . S
C264 C272 1.378 . S
C265 C264 1.367 . S
C265 C273 1.433 . S
C266 H262 0.929 . S
C266 C268 1.378 . S
C266 C270 1.350 . S
C267 C270 1.463 . S
C267 C272 1.350 . S
C267 N275 1.427 . S
C268 H259 0.930 . S
C268 C266 1.378 . S
C268 C269 1.367 . S
C269 C268 1.367 . S
C269 C271 1.433 . S
C270 C266 1.350 . S
C270 C267 1.463 . S
C270 N274 1.427 . S
C271 H261 0.929 . S
C271 C269 1.433 . S
C271 N274 1.384 . S
C272 H263 0.929 . S
C272 C264 1.378 . S
C272 C267 1.350 . S
C273 H260 0.929 1_556 S
C273 C265 1.433 . S
C273 N275 1.384 . S
N274 C270 1.427 . S
N274 C271 1.384 . S
N275 C267 1.427 . S
N275 C273 1.384 . S
H276 C282 0.930 . S
H277 C286 0.930 . S
H278 C291 0.929 . S
H279 C289 0.929 . S
H280 C284 0.929 . S
H281 C290 0.929 . S
C282 H276 0.930 . S
C282 C283 1.367 . S
C282 C290 1.378 . S
C283 C282 1.367 . S
C283 C291 1.433 . S
C284 H280 0.929 . S
C284 C286 1.378 . S
C284 C288 1.350 . S
C285 C288 1.463 . S
C285 C290 1.350 . S
C285 N293 1.427 . S
C286 H277 0.930 . S
C286 C284 1.378 . S
C286 C287 1.367 . S
C287 C286 1.367 . S
C287 C289 1.433 . S
C288 C284 1.350 . S
C288 C285 1.463 . S
C288 N292 1.427 . S
C289 H279 0.929 . S
C289 C287 1.433 . S
C289 N292 1.384 . S
C290 H281 0.929 . S
C290 C282 1.378 . S
C290 C285 1.350 . S
C291 H278 0.929 . S
C291 C283 1.433 . S
C291 N293 1.384 . S
N292 C288 1.427 . S
N292 C289 1.384 . S
N293 C285 1.427 . S
N293 C291 1.384 . S
H294 C300 0.930 1_554 S
H295 C304 0.930 1_455 S
H296 C309 0.929 . S
H297 C307 0.929 . S
H298 C302 0.929 . S
H299 C308 0.929 . S
C300 H294 0.930 1_556 S
C300 C301 1.367 . S
C300 C308 1.378 . S
C301 C300 1.367 . S
C301 C309 1.433 . S
C302 H298 0.929 . S
C302 C304 1.378 . S
C302 C306 1.350 . S
C303 C306 1.463 . S
C303 C308 1.350 . S
C303 N311 1.427 . S
C304 H295 0.930 1_655 S
C304 C302 1.378 . S
C304 C305 1.367 . S
C305 C304 1.367 . S
C305 C307 1.433 . S
C306 C302 1.350 . S
C306 C303 1.463 . S
C306 N310 1.427 . S
C307 H297 0.929 . S
C307 C305 1.433 . S
C307 N310 1.384 . S
C308 H299 0.929 . S
C308 C300 1.378 . S
C308 C303 1.350 . S
C309 H296 0.929 . S
C309 C301 1.433 . S
C309 N311 1.384 . S
N310 C306 1.427 . S
N310 C307 1.384 . S
N311 C303 1.427 . S
N311 C309 1.384 . S
H312 C318 0.930 . S
H313 C322 0.930 . S
H314 C327 0.929 . S
H315 C325 0.929 . S
H316 C320 0.929 . S
H317 C326 0.929 . S
C318 H312 0.930 . S
C318 C319 1.367 . S
C318 C326 1.378 . S
C319 C318 1.367 . S
C319 C327 1.433 . S
C320 H316 0.929 . S
C320 C322 1.378 . S
C320 C324 1.350 . S
C321 C324 1.463 . S
C321 C326 1.350 . S
C321 N329 1.427 . S
C322 H313 0.930 . S
C322 C320 1.378 . S
C322 C323 1.367 . S
C323 C322 1.367 . S
C323 C325 1.433 . S
C324 C320 1.350 . S
C324 C321 1.463 . S
C324 N328 1.427 . S
C325 H315 0.929 . S
C325 C323 1.433 . S
C325 N328 1.384 . S
C326 H317 0.929 . S
C326 C318 1.378 . S
C326 C321 1.350 . S
C327 H314 0.929 . S
C327 C319 1.433 . S
C327 N329 1.384 . S
N328 C324 1.427 . S
N328 C325 1.384 . S
N329 C321 1.427 . S
N329 C327 1.384 . S
H330 C336 0.930 . S
H331 C340 0.930 . S
H332 C345 0.929 . S
H333 C343 0.929 . S
H334 C338 0.929 . S
H335 C344 0.929 . S
C336 H330 0.930 . S
C336 C337 1.387 . S
C336 C344 1.378 . S
C337 C336 1.387 . S
C337 C345 1.415 1_565 S
C338 H334 0.929 . S
C338 C340 1.378 . S
C338 C342 1.350 1_545 S
C339 C342 1.463 . S
C339 C344 1.350 . S
C339 N347 1.427 1_565 S
C340 H331 0.930 . S
C340 C338 1.378 . S
C340 C341 1.367 1_545 S
C341 C340 1.367 1_565 S
C341 C343 1.433 . S
C342 C338 1.350 1_565 S
C342 C339 1.463 . S
C342 N346 1.427 . S
C343 H333 0.929 . S
C343 C341 1.433 . S
C343 N346 1.384 . S
C344 H335 0.929 . S
C344 C336 1.378 . S
C344 C339 1.350 . S
C345 H332 0.929 . S
C345 C337 1.415 1_545 S
C345 N347 1.384 . S
N346 C342 1.427 . S
N346 C343 1.384 . S
N347 C339 1.427 1_545 S
N347 C345 1.384 . S
H348 C354 0.930 . S
H349 C358 0.930 . S
H350 C363 0.929 . S
H351 C361 0.929 . S
H352 C356 0.929 . S
H353 C362 0.929 . S
C354 H348 0.930 . S
C354 C355 1.367 . S
C354 C362 1.378 . S
C355 C354 1.367 . S
C355 C363 1.433 . S
C356 H352 0.929 . S
C356 C358 1.378 . S
C356 C360 1.350 . S
C357 C360 1.463 . S
C357 C362 1.350 . S
C357 N365 1.427 . S
C358 H349 0.930 . S
C358 C356 1.378 . S
C358 C359 1.367 . S
C359 C358 1.367 . S
C359 C361 1.433 . S
C360 C356 1.350 . S
C360 C357 1.463 . S
C360 N364 1.427 . S
C361 H351 0.929 . S
C361 C359 1.433 . S
C361 N364 1.384 . S
C362 H353 0.929 . S
C362 C354 1.378 . S
C362 C357 1.350 . S
C363 H350 0.929 . S
C363 C355 1.433 . S
C363 N365 1.384 . S
N364 C360 1.427 . S
N364 C361 1.384 . S
N365 C357 1.427 . S
N365 C363 1.384 . S
H366 C372 0.930 . S
H367 C376 0.930 . S
H368 C381 0.929 . S
H369 C379 0.929 . S
H370 C374 0.929 . S
H371 C380 0.929 . S
C372 H366 0.930 . S
C372 C373 1.367 . S
C372 C380 1.378 . S
C373 C372 1.367 . S
C373 C381 1.433 . S
C374 H370 0.929 . S
C374 C376 1.378 . S
C374 C378 1.350 . S
C375 C378 1.463 . S
C375 C380 1.350 . S
C375 N383 1.427 . S
C376 H367 0.930 . S
C376 C374 1.378 . S
C376 C377 1.367 . S
C377 C376 1.367 . S
C377 C379 1.433 . S
C378 C374 1.350 . S
C378 C375 1.463 . S
C378 N382 1.427 . S
C379 H369 0.929 . S
C379 C377 1.433 . S
C379 N382 1.384 . S
C380 H371 0.929 . S
C380 C372 1.378 . S
C380 C375 1.350 . S
C381 H368 0.929 . S
C381 C373 1.433 . S
C381 N383 1.384 . S
N382 C378 1.427 . S
N382 C379 1.384 . S
N383 C375 1.427 . S
N383 C381 1.384 . S
H384 C390 0.930 . S
H385 C394 0.930 . S
H386 C399 0.929 . S
H387 C397 0.929 . S
H388 C392 0.929 . S
H389 C398 0.929 1_455 S
C390 H384 0.930 . S
C390 C391 1.367 . S
C390 C398 1.378 . S
C391 C390 1.367 . S
C391 C399 1.433 . S
C392 H388 0.929 . S
C392 C394 1.378 . S
C392 C396 1.350 . S
C393 C396 1.463 . S
C393 C398 1.350 . S
C393 N401 1.427 . S
C394 H385 0.930 . S
C394 C392 1.378 . S
C394 C395 1.367 . S
C395 C394 1.367 . S
C395 C397 1.433 1_655 S
C396 C392 1.350 . S
C396 C393 1.463 . S
C396 N400 1.427 1_655 S
C397 H387 0.929 . S
C397 C395 1.433 1_455 S
C397 N400 1.384 . S
C398 H389 0.929 1_655 S
C398 C390 1.378 . S
C398 C393 1.350 . S
C399 H386 0.929 . S
C399 C391 1.433 . S
C399 N401 1.384 . S
N400 C396 1.427 1_455 S
N400 C397 1.384 . S
N401 C393 1.427 . S
N401 C399 1.384 . S
H402 C408 0.930 . S
H403 C412 0.930 . S
H404 C417 0.929 . S
H405 C415 0.929 . S
H406 C410 0.929 . S
H407 C416 0.929 . S
C408 H402 0.930 . S
C408 C409 1.400 . S
C408 C416 1.378 . S
C409 C408 1.400 . S
C409 C417 1.403 1_545 S
C410 H406 0.929 . S
C410 C412 1.378 . S
C410 C414 1.350 1_565 S
C411 C414 1.463 . S
C411 C416 1.350 . S
C411 N419 1.427 1_545 S
C412 H403 0.930 . S
C412 C410 1.378 . S
C412 C413 1.367 1_565 S
C413 C412 1.367 1_545 S
C413 C415 1.433 . S
C414 C410 1.350 1_545 S
C414 C411 1.463 . S
C414 N418 1.427 . S
C415 H405 0.929 . S
C415 C413 1.433 . S
C415 N418 1.384 . S
C416 H407 0.929 . S
C416 C408 1.378 . S
C416 C411 1.350 . S
C417 H404 0.929 . S
C417 C409 1.403 1_565 S
C417 N419 1.384 . S
N418 C414 1.427 . S
N418 C415 1.384 . S
N419 C411 1.427 1_565 S
N419 C417 1.384 . S
H420 C426 0.930 1_554 S
H421 C430 0.930 . S
H422 C435 0.929 . S
H423 C433 0.929 . S
H424 C428 0.929 . S
H425 C434 0.929 . S
C426 H420 0.930 1_556 S
C426 C427 1.367 . S
C426 C434 1.378 . S
C427 C426 1.367 . S
C427 C435 1.433 . S
C428 H424 0.929 . S
C428 C430 1.378 . S
C428 C432 1.350 . S
C429 C432 1.463 . S
C429 C434 1.350 . S
C429 N437 1.427 . S
C430 H421 0.930 . S
C430 C428 1.378 . S
C430 C431 1.367 . S
C431 C430 1.367 . S
C431 C433 1.433 . S
C432 C428 1.350 . S
C432 C429 1.463 . S
C432 N436 1.427 . S
C433 H423 0.929 . S
C433 C431 1.433 . S
C433 N436 1.384 . S
C434 H425 0.929 . S
C434 C426 1.378 . S
C434 C429 1.350 . S
C435 H422 0.929 . S
C435 C427 1.433 . S
C435 N437 1.384 . S
N436 C432 1.427 . S
N436 C433 1.384 . S
N437 C429 1.427 . S
N437 C435 1.384 . S
H438 C444 0.930 . S
H439 C448 0.930 . S
H440 C453 0.929 1_554 S
H441 C451 0.929 . S
H442 C446 0.929 . S
H443 C452 0.929 . S
C444 H438 0.930 . S
C444 C445 1.367 . S
C444 C452 1.378 . S
C445 C444 1.367 . S
C445 C453 1.433 . S
C446 H442 0.929 . S
C446 C448 1.378 . S
C446 C450 1.350 . S
C447 C450 1.463 . S
C447 C452 1.350 . S
C447 N455 1.427 . S
C448 H439 0.930 . S
C448 C446 1.378 . S
C448 C449 1.367 . S
C449 C448 1.367 . S
C449 C451 1.433 . S
C450 C446 1.350 . S
C450 C447 1.463 . S
C450 N454 1.427 . S
C451 H441 0.929 . S
C451 C449 1.433 . S
C451 N454 1.384 . S
C452 H443 0.929 . S
C452 C444 1.378 . S
C452 C447 1.350 . S
C453 H440 0.929 1_556 S
C453 C445 1.433 . S
C453 N455 1.384 . S
N454 C450 1.427 . S
N454 C451 1.384 . S
N455 C447 1.427 . S
N455 C453 1.384 . S
H456 C462 0.930 . S
H457 C466 0.930 . S
H458 C471 0.929 . S
H459 C469 0.929 . S
H460 C464 0.929 . S
H461 C470 0.929 . S
C462 H456 0.930 . S
C462 C463 1.367 . S
C462 C470 1.378 . S
C463 C462 1.367 . S
C463 C471 1.433 1_554 S
C464 H460 0.929 . S
C464 C466 1.378 . S
C464 C468 1.350 . S
C465 C468 1.463 . S
C465 C470 1.350 1_556 S
C465 N473 1.427 . S
C466 H457 0.930 . S
C466 C464 1.378 . S
C466 C467 1.367 . S
C467 C466 1.367 . S
C467 C469 1.433 . S
C468 C464 1.350 . S
C468 C465 1.463 . S
C468 N472 1.427 . S
C469 H459 0.929 . S
C469 C467 1.433 . S
C469 N472 1.384 . S
C470 H461 0.929 . S
C470 C462 1.378 . S
C470 C465 1.350 1_554 S
C471 H458 0.929 . S
C471 C463 1.433 1_556 S
C471 N473 1.384 . S
N472 C468 1.427 . S
N472 C469 1.384 . S
N473 C465 1.427 . S
N473 C471 1.384 . S
H474 C480 0.930 . S
H475 C484 0.930 1_565 S
H476 C489 0.929 . S
H477 C487 0.929 . S
H478 C482 0.929 1_565 S
H479 C488 0.929 . S
C480 H474 0.930 . S
C480 C481 1.367 1_556 S
C480 C488 1.378 . S
C481 C480 1.367 1_554 S
C481 C489 1.433 1_545 S
C482 H478 0.929 1_545 S
C482 C484 1.378 . S
C482 C486 1.350 . S
C483 C486 1.463 . S
C483 C488 1.350 . S
C483 N491 1.427 1_546 S
C484 H475 0.930 1_545 S
C484 C482 1.378 . S
C484 C485 1.367 . S
C485 C484 1.367 . S
C485 C487 1.433 . S
C486 C482 1.350 . S
C486 C483 1.463 . S
C486 N490 1.427 . S
C487 H477 0.929 . S
C487 C485 1.433 . S
C487 N490 1.384 . S
C488 H479 0.929 . S
C488 C480 1.378 . S
C488 C483 1.350 . S
C489 H476 0.929 . S
C489 C481 1.433 1_565 S
C489 N491 1.384 . S
N490 C486 1.427 . S
N490 C487 1.384 . S
N491 C483 1.427 1_564 S
N491 C489 1.384 . S
H492 C498 0.930 . S
H493 C502 0.930 . S
H494 C507 0.929 . S
H495 C505 0.929 . S
H496 C500 0.929 . S
H497 C506 0.929 . S
C498 H492 0.930 . S
C498 C499 1.367 . S
C498 C506 1.378 . S
C499 C498 1.367 . S
C499 C507 1.433 1_554 S
C500 H496 0.929 . S
C500 C502 1.378 . S
C500 C504 1.350 . S
C501 C504 1.463 . S
C501 C506 1.350 1_556 S
C501 N509 1.427 . S
C502 H493 0.930 . S
C502 C500 1.378 . S
C502 C503 1.367 . S
C503 C502 1.367 . S
C503 C505 1.433 . S
C504 C500 1.350 . S
C504 C501 1.463 . S
C504 N508 1.427 . S
C505 H495 0.929 . S
C505 C503 1.433 . S
C505 N508 1.384 . S
C506 H497 0.929 . S
C506 C498 1.378 . S
C506 C501 1.350 1_554 S
C507 H494 0.929 . S
C507 C499 1.433 1_556 S
C507 N509 1.384 . S
N508 C504 1.427 . S
N508 C505 1.384 . S
N509 C501 1.427 . S
N509 C507 1.384 . S
H510 C516 0.930 . S
H511 C520 0.930 . S
H512 C525 0.929 . S
H513 C523 0.929 . S
H514 C518 0.929 . S
H515 C524 0.929 . S
C516 H510 0.930 . S
C516 C517 1.367 1_556 S
C516 C524 1.378 . S
C517 C516 1.367 1_554 S
C517 C525 1.433 . S
C518 H514 0.929 . S
C518 C520 1.378 . S
C518 C522 1.350 . S
C519 C522 1.463 . S
C519 C524 1.350 . S
C519 N527 1.427 . S
C520 H511 0.930 . S
C520 C518 1.378 . S
C520 C521 1.367 . S
C521 C520 1.367 . S
C521 C523 1.433 . S
C522 C518 1.350 . S
C522 C519 1.463 . S
C522 N526 1.427 . S
C523 H513 0.929 . S
C523 C521 1.433 . S
C523 N526 1.384 . S
C524 H515 0.929 . S
C524 C516 1.378 . S
C524 C519 1.350 . S
C525 H512 0.929 . S
C525 C517 1.433 . S
C525 N527 1.384 1_554 S
N526 C522 1.427 . S
N526 C523 1.384 . S
N527 C519 1.427 . S
N527 C525 1.384 1_556 S
H528 C534 0.930 . S
H529 C538 0.930 1_455 S
H530 C543 0.929 . S
H531 C541 0.929 . S
H532 C536 0.929 1_455 S
H533 C542 0.929 . S
C534 H528 0.930 . S
C534 C535 1.367 . S
C534 C542 1.378 . S
C535 C534 1.367 . S
C535 C543 1.433 . S
C536 H532 0.929 1_655 S
C536 C538 1.378 . S
C536 C540 1.350 . S
C537 C540 1.463 . S
C537 C542 1.350 . S
C537 N545 1.427 . S
C538 H529 0.930 1_655 S
C538 C536 1.378 . S
C538 C539 1.367 . S
C539 C538 1.367 . S
C539 C541 1.433 . S
C540 C536 1.350 . S
C540 C537 1.463 . S
C540 N544 1.427 . S
C541 H531 0.929 . S
C541 C539 1.433 . S
C541 N544 1.384 . S
C542 H533 0.929 . S
C542 C534 1.378 . S
C542 C537 1.350 . S
C543 H530 0.929 . S
C543 C535 1.433 . S
C543 N545 1.384 . S
N544 C540 1.427 . S
N544 C541 1.384 . S
N545 C537 1.427 . S
N545 C543 1.384 . S
H546 C552 0.930 . S
H547 C556 0.930 . S
H548 C561 0.929 . S
H549 C559 0.929 . S
H550 C554 0.929 . S
H551 C560 0.929 . S
C552 H546 0.930 . S
C552 C553 1.367 . S
C552 C560 1.378 . S
C553 C552 1.367 . S
C553 C561 1.433 1_565 S
C554 H550 0.929 . S
C554 C556 1.378 . S
C554 C558 1.350 1_545 S
C555 C558 1.463 . S
C555 C560 1.350 . S
C555 N563 1.427 1_565 S
C556 H547 0.930 . S
C556 C554 1.378 . S
C556 C557 1.367 1_545 S
C557 C556 1.367 1_565 S
C557 C559 1.433 . S
C558 C554 1.350 1_565 S
C558 C555 1.463 . S
C558 N562 1.427 . S
C559 H549 0.929 . S
C559 C557 1.433 . S
C559 N562 1.384 . S
C560 H551 0.929 . S
C560 C552 1.378 . S
C560 C555 1.350 . S
C561 H548 0.929 . S
C561 C553 1.433 1_545 S
C561 N563 1.384 . S
N562 C558 1.427 . S
N562 C559 1.384 . S
N563 C555 1.427 1_545 S
N563 C561 1.384 . S
H564 C570 0.930 . S
H565 C574 0.930 . S
H566 C579 0.929 . S
H567 C577 0.929 . S
H568 C572 0.929 . S
H569 C578 0.929 . S
C570 H564 0.930 . S
C570 C571 1.367 . S
C570 C578 1.378 . S
C571 C570 1.367 . S
C571 C579 1.433 . S
C572 H568 0.929 . S
C572 C574 1.378 . S
C572 C576 1.350 . S
C573 C576 1.463 . S
C573 C578 1.350 . S
C573 N581 1.427 . S
C574 H565 0.930 . S
C574 C572 1.378 . S
C574 C575 1.367 . S
C575 C574 1.367 . S
C575 C577 1.433 . S
C576 C572 1.350 . S
C576 C573 1.463 . S
C576 N580 1.427 . S
C577 H567 0.929 . S
C577 C575 1.433 . S
C577 N580 1.384 . S
C578 H569 0.929 . S
C578 C570 1.378 . S
C578 C573 1.350 . S
C579 H566 0.929 . S
C579 C571 1.433 . S
C579 N581 1.384 . S
N580 C576 1.427 . S
N580 C577 1.384 . S
N581 C573 1.427 . S
N581 C579 1.384 . S
H582 C588 0.930 . S
H583 C592 0.930 . S
H584 C597 0.929 . S
H585 C595 0.929 . S
H586 C590 0.929 . S
H587 C596 0.929 . S
C588 H582 0.930 . S
C588 C589 1.367 . S
C588 C596 1.378 . S
C589 C588 1.367 . S
C589 C597 1.433 . S
C590 H586 0.929 . S
C590 C592 1.378 . S
C590 C594 1.350 . S
C591 C594 1.463 . S
C591 C596 1.350 . S
C591 N599 1.427 . S
C592 H583 0.930 . S
C592 C590 1.378 . S
C592 C593 1.367 . S
C593 C592 1.367 . S
C593 C595 1.433 . S
C594 C590 1.350 . S
C594 C591 1.463 . S
C594 N598 1.427 . S
C595 H585 0.929 . S
C595 C593 1.433 . S
C595 N598 1.384 . S
C596 H587 0.929 . S
C596 C588 1.378 . S
C596 C591 1.350 . S
C597 H584 0.929 . S
C597 C589 1.433 . S
C597 N599 1.384 . S
N598 C594 1.427 . S
N598 C595 1.384 . S
N599 C591 1.427 . S
N599 C597 1.384 . S
C175 N70 1.445 . S
C179 C106 1.459 . S
C197 C126 1.544 . S
C193 N81 1.507 . S
C215 C146 1.462 . S
C211 N48 1.455 . S
C233 C166 1.546 . S
C229 N59 1.510 . S
C251 C107 1.468 . S
C247 N26 1.454 1_545 S
C265 N37 1.520 . S
C269 C127 1.551 . S
C283 N4 1.447 . S
C287 C147 1.456 . S
C301 N15 1.532 . S
C305 C167 1.551 1_655 S
C323 C97 0.868 . S
C319 C64 0.877 . S
C341 C117 0.837 . S
C337 C75 0.852 1_565 S
C359 C137 0.859 . S
C355 C86 0.865 . S
C373 C53 0.844 . S
C377 C157 0.831 . S
C391 C20 0.859 . S
C395 C100 0.850 . S
C413 C120 0.829 . S
C409 C31 0.844 . S
C431 C140 0.853 . S
C427 C42 0.859 . S
C445 C9 0.863 . S
C449 C160 0.861 . S
C463 C61 1.551 . S
C467 C90 1.489 . S
C481 C72 1.516 . S
C485 C110 1.460 . S
C503 C130 1.489 . S
C499 C83 1.545 . S
C521 C150 1.456 . S
C517 C50 1.508 . S
C535 C17 1.549 . S
C539 C92 1.495 . S
C557 C112 1.451 . S
C553 C28 1.515 1_565 S
C575 C132 1.485 . S
C571 C39 1.542 . S
C589 C6 1.511 . S
C593 C152 1.456 . S
