# Generated by pormake.
# Topology hwx, (6,3)-cn, num edge types: 1
# Building blocks:
#     Node 0, Type 0, BuildingBlock: OJICUG_clean_sbu_0, # of connection points: 6
#     Node 1, Type 0, BuildingBlock: OJICUG_clean_sbu_0, # of connection points: 6
#     Node 2, Type 0, BuildingBlock: OJICUG_clean_sbu_0, # of connection points: 6
#     Node 3, Type 0, BuildingBlock: OJICUG_clean_sbu_0, # of connection points: 6
#     Node 4, Type 1, BuildingBlock: KAKCAD_clean_linker_0, # of connection points: 3
#     Node 5, Type 1, BuildingBlock: KAKCAD_clean_linker_0, # of connection points: 3
#     Node 6, Type 1, BuildingBlock: KAKCAD_clean_linker_0, # of connection points: 3
#     Node 7, Type 1, BuildingBlock: KAKCAD_clean_linker_0, # of connection points: 3
#     Node 8, Type 1, BuildingBlock: KAKCAD_clean_linker_0, # of connection points: 3
#     Node 9, Type 1, BuildingBlock: KAKCAD_clean_linker_0, # of connection points: 3
#     Node 10, Type 1, BuildingBlock: KAKCAD_clean_linker_0, # of connection points: 3
#     Node 11, Type 1, BuildingBlock: KAKCAD_clean_linker_0, # of connection points: 3
#     Edge 12, Type (0, 1), BuildingBlock: MIFKUJ_clean_linker_0, # of connection points: 2
#     Edge 13, Type (0, 1), BuildingBlock: MIFKUJ_clean_linker_0, # of connection points: 2
#     Edge 14, Type (0, 1), BuildingBlock: MIFKUJ_clean_linker_0, # of connection points: 2
#     Edge 15, Type (0, 1), BuildingBlock: MIFKUJ_clean_linker_0, # of connection points: 2
#     Edge 16, Type (0, 1), BuildingBlock: MIFKUJ_clean_linker_0, # of connection points: 2
#     Edge 17, Type (0, 1), BuildingBlock: MIFKUJ_clean_linker_0, # of connection points: 2
#     Edge 18, Type (0, 1), BuildingBlock: MIFKUJ_clean_linker_0, # of connection points: 2
#     Edge 19, Type (0, 1), BuildingBlock: MIFKUJ_clean_linker_0, # of connection points: 2
#     Edge 20, Type (0, 1), BuildingBlock: MIFKUJ_clean_linker_0, # of connection points: 2
#     Edge 21, Type (0, 1), BuildingBlock: MIFKUJ_clean_linker_0, # of connection points: 2
#     Edge 22, Type (0, 1), BuildingBlock: MIFKUJ_clean_linker_0, # of connection points: 2
#     Edge 23, Type (0, 1), BuildingBlock: MIFKUJ_clean_linker_0, # of connection points: 2
#     Edge 24, Type (0, 1), BuildingBlock: MIFKUJ_clean_linker_0, # of connection points: 2
#     Edge 25, Type (0, 1), BuildingBlock: MIFKUJ_clean_linker_0, # of connection points: 2
#     Edge 26, Type (0, 1), BuildingBlock: MIFKUJ_clean_linker_0, # of connection points: 2
#     Edge 27, Type (0, 1), BuildingBlock: MIFKUJ_clean_linker_0, # of connection points: 2
#     Edge 28, Type (0, 1), BuildingBlock: MIFKUJ_clean_linker_0, # of connection points: 2
#     Edge 29, Type (0, 1), BuildingBlock: MIFKUJ_clean_linker_0, # of connection points: 2
#     Edge 30, Type (0, 1), BuildingBlock: MIFKUJ_clean_linker_0, # of connection points: 2
#     Edge 31, Type (0, 1), BuildingBlock: MIFKUJ_clean_linker_0, # of connection points: 2
#     Edge 32, Type (0, 1), BuildingBlock: MIFKUJ_clean_linker_0, # of connection points: 2
#     Edge 33, Type (0, 1), BuildingBlock: MIFKUJ_clean_linker_0, # of connection points: 2
#     Edge 34, Type (0, 1), BuildingBlock: MIFKUJ_clean_linker_0, # of connection points: 2
#     Edge 35, Type (0, 1), BuildingBlock: MIFKUJ_clean_linker_0, # of connection points: 2
# Relax obj value: 0.076
# Max RMSD: 0.101
# Mean RMSD: 0.093
data_MOF--net-hwx--node1-OJICUG_clean_sbu_0--node2-KAKCAD_clean_linker_0--edge1-MIFKUJ_clean_linker_0
_symmetry_space_group_name_H-M    P1
_symmetry_Int_Tables_number       1
_symmetry_cell_setting            triclinic
loop_
_symmetry_equiv_pos_as_xyz
'x, y, z'
_cell_length_a     75.665347
_cell_length_b     75.668481
_cell_length_c     34.175324
_cell_angle_alpha  89.915178
_cell_angle_beta   90.064532
_cell_angle_gamma 90.005349
loop_
_atom_site_label
_atom_site_type_symbol
_atom_site_fract_x
_atom_site_fract_y
_atom_site_fract_z
_atom_type_partial_charge
Sc0 Sc 0.21885 0.22126 0.05096 0.0
Sc1 Sc 0.19026 0.1924 0.00013 0.0
Sc2 Sc 0.2208 0.21898 0.94862 0.0
O3 O 0.20995 0.21084 -0.0001 0.0
C4 C 0.21769 0.25518 0.9953 0.0
C5 C 0.17744 0.2193 0.06636 0.0
C6 C 0.17975 0.21598 0.92667 0.0
C7 C 0.21393 0.18041 0.07259 0.0
C8 C 0.25479 0.21694 0.00402 0.0
C9 C 0.21639 0.17777 0.9339 0.0
O10 O 0.21848 0.24785 0.02873 0.0
O11 O 0.17465 0.20659 0.04281 0.0
O12 O 0.19553 0.22095 0.92022 0.0
O13 O 0.22013 0.19578 0.07857 0.0
O14 O 0.24746 0.21781 0.97061 0.0
O15 O 0.20339 0.17593 0.95719 0.0
O16 O 0.24613 0.21773 0.03574 0.0
O17 O 0.2031 0.17696 0.04511 0.0
O18 O 0.22434 0.19238 0.92887 0.0
O19 O 0.1926 0.22605 0.07168 0.0
O20 O 0.21815 0.24649 0.96351 0.0
O21 O 0.17552 0.20609 0.95529 0.0
Sc22 Sc 0.27822 0.72 0.4509 0.0
Sc23 Sc 0.30696 0.69269 0.50558 0.0
Sc24 Sc 0.27643 0.72049 0.5536 0.0
O25 O 0.28725 0.71105 0.50336 0.0
C26 C 0.2795 0.75537 0.50135 0.0
C27 C 0.31979 0.71717 0.43514 0.0
C28 C 0.31729 0.71816 0.57653 0.0
C29 C 0.28323 0.6789 0.43425 0.0
C30 C 0.24235 0.71701 0.49935 0.0
C31 C 0.28083 0.6795 0.57316 0.0
O32 O 0.27983 0.74723 0.46883 0.0
O33 O 0.32301 0.70653 0.46311 0.0
O34 O 0.30174 0.72418 0.58085 0.0
O35 O 0.27583 0.69371 0.42797 0.0
O36 O 0.24978 0.71765 0.53263 0.0
O37 O 0.29304 0.67675 0.54829 0.0
O38 O 0.2509 0.71809 0.46751 0.0
O39 O 0.29498 0.67662 0.46049 0.0
O40 O 0.27381 0.69457 0.5782 0.0
O41 O 0.30434 0.72274 0.42737 0.0
O42 O 0.27799 0.74748 0.53405 0.0
O43 O 0.32123 0.70675 0.55065 0.0
Sc44 Sc 0.7807 0.77869 0.94594 0.0
Sc45 Sc 0.8081 0.80814 0.99807 0.0
Sc46 Sc 0.77967 0.77894 0.04875 0.0
O47 O 0.78953 0.7886 0.9976 0.0
C48 C 0.74508 0.78081 0.9957 0.0
C49 C 0.78369 0.81969 0.92593 0.0
C50 C 0.78176 0.82042 0.06564 0.0
C51 C 0.82204 0.78295 0.92998 0.0
C52 C 0.7837 0.74387 0.99812 0.0
C53 C 0.8204 0.78394 0.06996 0.0
O54 O 0.75339 0.78004 0.96344 0.0
O55 O 0.79504 0.82309 0.95237 0.0
O56 O 0.77606 0.80492 0.0723 0.0
O57 O 0.80687 0.77654 0.92275 0.0
O58 O 0.78207 0.75179 0.03067 0.0
O59 O 0.82333 0.79556 0.04382 0.0
O60 O 0.78352 0.75179 0.96535 0.0
O61 O 0.82475 0.7944 0.95658 0.0
O62 O 0.80539 0.77674 0.07485 0.0
O63 O 0.77733 0.80436 0.92059 0.0
O64 O 0.7528 0.78036 0.02869 0.0
O65 O 0.79333 0.82379 0.03966 0.0
Sc66 Sc 0.71782 0.27612 0.55081 0.0
Sc67 Sc 0.69271 0.30734 0.49799 0.0
Sc68 Sc 0.7194 0.27651 0.44806 0.0
O69 O 0.70997 0.28668 0.49892 0.0
C70 C 0.75374 0.27697 0.50286 0.0
C71 C 0.71668 0.31746 0.57083 0.0
C72 C 0.71947 0.31776 0.42925 0.0
C73 C 0.6769 0.28243 0.56536 0.0
C74 C 0.71431 0.24145 0.49799 0.0
C75 C 0.67893 0.28373 0.42707 0.0
O76 O 0.74529 0.27765 0.53498 0.0
O77 O 0.70725 0.32188 0.54162 0.0
O78 O 0.72511 0.30211 0.42438 0.0
O79 O 0.69105 0.2737 0.57073 0.0
O80 O 0.71463 0.24962 0.46553 0.0
O81 O 0.67631 0.2949 0.45423 0.0
O82 O 0.71598 0.24925 0.53066 0.0
O83 O 0.67582 0.29542 0.54174 0.0
O84 O 0.69379 0.27642 0.421 0.0
O85 O 0.72073 0.30152 0.57832 0.0
O86 O 0.74613 0.27583 0.46974 0.0
O87 O 0.70765 0.32168 0.45423 0.0
C88 C 0.21486 0.54205 0.86357 0.0
C89 C 0.23145 0.54971 0.85626 0.0
C90 C 0.21171 0.5331 0.8987 0.0
C91 C 0.225 0.53198 0.92733 0.0
C92 C 0.24164 0.53944 0.91977 0.0
C93 C 0.24488 0.54812 0.88444 0.0
C94 C 0.22142 0.52351 0.96553 0.0
C95 C 0.21432 0.5064 0.96734 0.0
C96 C 0.21153 0.49809 0.00363 0.0
C97 C 0.21531 0.50738 0.03825 0.0
C98 C 0.22241 0.52449 0.03678 0.0
C99 C 0.22553 0.53243 0.00032 0.0
C100 C 0.227 0.53396 0.07326 0.0
C101 C 0.21474 0.53524 0.10396 0.0
C102 C 0.24366 0.54191 0.0774 0.0
C103 C 0.24798 0.55106 0.11153 0.0
C104 C 0.23562 0.55262 0.14197 0.0
C105 C 0.20607 0.47927 0.00528 0.0
C106 C 0.1931 0.47261 0.97976 0.0
C107 C 0.21466 0.46757 0.03099 0.0
C108 C 0.21074 0.44957 0.03049 0.0
C109 C 0.19812 0.44281 0.00428 0.0
C110 C 0.18916 0.45456 0.97928 0.0
C111 C 0.21896 0.54462 0.13792 0.0
H112 H 0.20432 0.54311 0.84222 0.0
H113 H 0.19876 0.52749 0.90398 0.0
H114 H 0.25212 0.53863 0.94133 0.0
H115 H 0.25772 0.55407 0.87965 0.0
H116 H 0.21178 0.49929 0.9404 0.0
H117 H 0.23092 0.5457 0.99902 0.0
H118 H 0.21313 0.50114 0.0664 0.0
H119 H 0.20178 0.52927 0.10138 0.0
H120 H 0.25339 0.54099 0.05425 0.0
H121 H 0.26085 0.55725 0.11379 0.0
H122 H 0.18613 0.48135 0.9599 0.0
H123 H 0.22495 0.47221 0.0505 0.0
H124 H 0.20924 0.54559 0.16106 0.0
H125 H 0.17922 0.44977 0.95907 0.0
H126 H 0.21816 0.44086 0.04958 0.0
C127 C 0.95461 0.71645 0.36534 0.0
C128 C 0.94218 0.73023 0.36697 0.0
C129 C 0.96408 0.71154 0.39889 0.0
C130 C 0.96134 0.72041 0.43453 0.0
C131 C 0.94929 0.73455 0.43559 0.0
C132 C 0.93978 0.73933 0.40231 0.0
C133 C 0.97081 0.71509 0.47082 0.0
C134 C 0.98887 0.71084 0.47016 0.0
C135 C 0.99806 0.70731 0.50512 0.0
C136 C 0.98898 0.70815 0.54098 0.0
C137 C 0.97091 0.71233 0.54217 0.0
C138 C 0.9619 0.71529 0.50682 0.0
C139 C 0.96155 0.71466 0.58012 0.0
C140 C 0.96522 0.70374 0.61256 0.0
C141 C 0.94886 0.72813 0.58417 0.0
C142 C 0.93973 0.73031 0.61919 0.0
C143 C 0.94326 0.71931 0.65129 0.0
C144 C 0.01736 0.70381 0.50434 0.0
C145 C 0.02474 0.6927 0.47576 0.0
C146 C 0.0286 0.71194 0.53168 0.0
C147 C 0.04682 0.70919 0.53024 0.0
C148 C 0.05424 0.69826 0.5014 0.0
C149 C 0.043 0.68996 0.47429 0.0
C150 C 0.95623 0.70614 0.64796 0.0
H151 H 0.95666 0.70919 0.33843 0.0
H152 H 0.97324 0.70057 0.39714 0.0
H153 H 0.94721 0.74201 0.46222 0.0
H154 H 0.93056 0.75025 0.40419 0.0
H155 H 0.99597 0.71109 0.44264 0.0
H156 H 0.94783 0.71792 0.50729 0.0
H157 H 0.99611 0.7059 0.56804 0.0
H158 H 0.97481 0.69317 0.61044 0.0
H159 H 0.94605 0.73716 0.56036 0.0
H160 H 0.93 0.74077 0.62133 0.0
H161 H 0.01639 0.6861 0.45457 0.0
H162 H 0.02337 0.72084 0.5536 0.0
H163 H 0.95912 0.6975 0.67244 0.0
H164 H 0.04832 0.68133 0.45196 0.0
H165 H 0.05514 0.71607 0.55105 0.0
C166 C 0.77544 0.45587 0.13791 0.0
C167 C 0.78409 0.43959 0.14325 0.0
C168 C 0.77814 0.4658 0.10399 0.0
C169 C 0.78941 0.45961 0.0744 0.0
C170 C 0.79839 0.44357 0.07995 0.0
C171 C 0.79587 0.43373 0.11414 0.0
C172 C 0.79077 0.4694 0.03695 0.0
C173 C 0.79293 0.48782 0.03691 0.0
C174 C 0.79205 0.49755 0.00183 0.0
C175 C 0.78908 0.48846 0.96653 0.0
C176 C 0.78739 0.47 0.96606 0.0
C177 C 0.78842 0.46053 0.0013 0.0
C178 C 0.78335 0.46067 0.92914 0.0
C179 C 0.76894 0.466 0.90604 0.0
C180 C 0.79341 0.44598 0.91759 0.0
C181 C 0.78901 0.43667 0.88365 0.0
C182 C 0.77428 0.4417 0.86119 0.0
C183 C 0.7935 0.51718 0.00223 0.0
C184 C 0.78639 0.52704 0.03331 0.0
C185 C 0.80173 0.52627 0.97126 0.0
C186 C 0.80249 0.54472 0.971 0.0
C187 C 0.79531 0.55457 0.00202 0.0
C188 C 0.78744 0.54545 0.03339 0.0
C189 C 0.76434 0.4565 0.87253 0.0
H190 H 0.76604 0.46069 0.15923 0.0
H191 H 0.77085 0.47801 0.10022 0.0
H192 H 0.80727 0.4386 0.0577 0.0
H193 H 0.80302 0.42143 0.11755 0.0
H194 H 0.79526 0.49453 0.06442 0.0
H195 H 0.78637 0.44635 0.00115 0.0
H196 H 0.78778 0.49572 0.93933 0.0
H197 H 0.76092 0.47721 0.91455 0.0
H198 H 0.8046 0.44167 0.93495 0.0
H199 H 0.79677 0.42521 0.8756 0.0
H200 H 0.77971 0.5206 0.05742 0.0
H201 H 0.80761 0.51915 0.94709 0.0
H202 H 0.75295 0.46062 0.8556 0.0
H203 H 0.78205 0.55251 0.0582 0.0
H204 H 0.80846 0.55122 0.94607 0.0
C205 C 0.04221 0.2686 0.62894 0.0
C206 C 0.0586 0.27698 0.63449 0.0
C207 C 0.03209 0.27208 0.59564 0.0
C208 C 0.03818 0.28393 0.56701 0.0
C209 C 0.05443 0.29251 0.57268 0.0
C210 C 0.0645 0.28915 0.60617 0.0
C211 C 0.02783 0.28684 0.53077 0.0
C212 C 0.00951 0.28946 0.53271 0.0
C213 C -0.00063 0.29105 0.49846 0.0
C214 C 0.00783 0.29023 0.46192 0.0
C215 C 0.02619 0.28761 0.45941 0.0
C216 C 0.03609 0.28604 0.49407 0.0
C217 C 0.03492 0.2854 0.42079 0.0
C218 C 0.0269 0.27527 0.39121 0.0
C219 C 0.05171 0.29269 0.41385 0.0
C220 C 0.06051 0.28948 0.37867 0.0
C221 C 0.05269 0.27897 0.34949 0.0
C222 C 0.97986 0.29264 0.50091 0.0
C223 C 0.97035 0.2823 0.52783 0.0
C224 C 0.97056 0.30409 0.47585 0.0
C225 C 0.95213 0.30501 0.47739 0.0
C226 C 0.94265 0.29453 0.50409 0.0
C227 C 0.95197 0.28325 0.52944 0.0
C228 C 0.03567 0.27212 0.35595 0.0
H229 H 0.03739 0.25893 0.64975 0.0
H230 H 0.01971 0.2651 0.59174 0.0
H231 H 0.05933 0.30185 0.55123 0.0
H232 H 0.07691 0.29608 0.60983 0.0
H233 H 0.00315 0.29028 0.56105 0.0
H234 H 0.05014 0.28335 0.49256 0.0
H235 H 6e-05 0.29126 0.43536 0.0
H236 H 0.01406 0.2693 0.39572 0.0
H237 H 0.05817 0.30072 0.43585 0.0
H238 H 0.07369 0.2948 0.3749 0.0
H239 H 0.97709 0.27309 0.54703 0.0
H240 H 0.97754 0.31239 0.45514 0.0
H241 H 0.02919 0.26414 0.33392 0.0
H242 H 0.94501 0.27478 0.54983 0.0
H243 H 0.94529 0.31395 0.45776 0.0
C244 C 0.70828 0.95259 0.63427 0.0
C245 C 0.71981 0.93804 0.63387 0.0
C246 C 0.70461 0.96185 0.59964 0.0
C247 C 0.71256 0.9568 0.56413 0.0
C248 C 0.72428 0.94238 0.56416 0.0
C249 C 0.72778 0.93308 0.5985 0.0
C250 C 0.70928 0.96672 0.52717 0.0
C251 C 0.70828 0.98525 0.52711 0.0
C252 C 0.70725 0.99467 0.49172 0.0
C253 C 0.70739 0.98541 0.45611 0.0
C254 C 0.70815 0.96685 0.45552 0.0
C255 C 0.70856 0.95768 0.49131 0.0
C256 C 0.70974 0.95707 0.41783 0.0
C257 C 0.70116 0.96302 0.38364 0.0
C258 C 0.72046 0.9419 0.41553 0.0
C259 C 0.72245 0.93289 0.38028 0.0
C260 C 0.71409 0.93898 0.34622 0.0
C261 C 0.70698 0.01424 0.49192 0.0
C262 C 0.69558 0.02345 0.5171 0.0
C263 C 0.71829 0.02385 0.4672 0.0
C264 C 0.71827 0.04229 0.46781 0.0
C265 C 0.70687 0.05151 0.49295 0.0
C266 C 0.69545 0.04192 0.51746 0.0
C267 C 0.70346 0.95415 0.34807 0.0
H268 H 0.70195 0.95665 0.66121 0.0
H269 H 0.69546 0.97283 0.60064 0.0
H270 H 0.73108 0.93842 0.53772 0.0
H271 H 0.73703 0.92216 0.5975 0.0
H272 H 0.70918 0.99244 0.55443 0.0
H273 H 0.70858 0.94336 0.49132 0.0
H274 H 0.70725 0.99274 0.42888 0.0
H275 H 0.69262 0.9745 0.38429 0.0
H276 H 0.72772 0.93715 0.44076 0.0
H277 H 0.73096 0.92138 0.3794 0.0
H278 H 0.68667 0.01635 0.53633 0.0
H279 H 0.72734 0.01709 0.44778 0.0
H280 H 0.69684 0.95905 0.3221 0.0
H281 H 0.68662 0.0487 0.53734 0.0
H282 H 0.72712 0.04935 0.4484 0.0
C283 C 0.54544 0.21279 0.13511 0.0
C284 C 0.55754 0.22687 0.1358 0.0
C285 C 0.53594 0.209 0.10095 0.0
C286 C 0.53828 0.21932 0.06705 0.0
C287 C 0.55012 0.23363 0.06828 0.0
C288 C 0.55967 0.2373 0.10214 0.0
C289 C 0.52825 0.21561 0.03056 0.0
C290 C 0.51021 0.21123 0.03195 0.0
C291 C 0.50031 0.20973 0.99732 0.0
C292 C 0.50864 0.21219 0.96102 0.0
C293 C 0.52662 0.21648 0.95918 0.0
C294 C 0.53638 0.21791 0.99393 0.0
C295 C 0.5349 0.22108 0.92133 0.0
C296 C 0.53335 0.20986 0.8888 0.0
C297 C 0.54422 0.23703 0.91756 0.0
C298 C 0.55191 0.24169 0.88197 0.0
C299 C 0.55059 0.23041 0.84953 0.0
C300 C 0.48091 0.20772 0.99927 0.0
C301 C 0.47313 0.19443 0.02226 0.0
C302 C 0.47004 0.21984 0.97949 0.0
C303 C 0.45174 0.21896 0.9833 0.0
C304 C 0.44394 0.20581 0.00656 0.0
C305 C 0.45473 0.19336 0.02555 0.0
C306 C 0.5413 0.21441 0.85323 0.0
H307 H 0.5436 0.20454 0.16072 0.0
H308 H 0.52695 0.19786 0.10091 0.0
H309 H 0.55187 0.2422 0.04318 0.0
H310 H 0.56862 0.24848 0.10214 0.0
H311 H 0.50359 0.21012 0.05996 0.0
H312 H 0.55032 0.22113 0.99235 0.0
H313 H 0.50094 0.21151 0.93429 0.0
H314 H 0.52621 0.19749 0.89107 0.0
H315 H 0.54543 0.24599 0.94212 0.0
H316 H 0.55917 0.254 0.87999 0.0
H317 H 0.48128 0.18496 0.03777 0.0
H318 H 0.47574 0.23033 0.96195 0.0
H319 H 0.54012 0.20551 0.82857 0.0
H320 H 0.44894 0.18315 0.04371 0.0
H321 H 0.44364 0.22862 0.9682 0.0
C322 C 0.27222 0.03816 0.36069 0.0
C323 C 0.27556 0.05641 0.35826 0.0
C324 C 0.27591 0.02881 0.395 0.0
C325 C 0.28332 0.0374 0.42761 0.0
C326 C 0.28731 0.0555 0.42464 0.0
C327 C 0.28335 0.06491 0.39057 0.0
C328 C 0.2861 0.02769 0.46507 0.0
C329 C 0.29111 0.00983 0.46502 0.0
C330 C 0.29228 0.00018 0.50009 0.0
C331 C 0.28919 0.00884 0.53578 0.0
C332 C 0.28453 0.0268 0.53656 0.0
C333 C 0.28283 0.03603 0.50106 0.0
C334 C 0.28079 0.03586 0.57419 0.0
C335 C 0.27101 0.02742 0.60379 0.0
C336 C 0.28656 0.05329 0.58027 0.0
C337 C 0.28234 0.06222 0.6147 0.0
C338 C 0.27233 0.05391 0.64408 0.0
C339 C 0.29557 0.98083 0.49916 0.0
C340 C 0.28725 0.97031 0.47069 0.0
C341 C 0.30626 0.97262 0.52753 0.0
C342 C 0.30825 0.95425 0.52791 0.0
C343 C 0.29967 0.94376 0.49981 0.0
C344 C 0.28932 0.95201 0.47095 0.0
C345 C 0.26684 0.03635 0.63837 0.0
H346 H 0.26654 0.03107 0.33623 0.0
H347 H 0.27244 0.01494 0.39621 0.0
H348 H 0.2933 0.06251 0.44886 0.0
H349 H 0.28594 0.07898 0.39012 0.0
H350 H 0.29405 0.00333 0.43756 0.0
H351 H 0.27827 0.0496 0.50147 0.0
H352 H 0.29007 0.00151 0.56297 0.0
H353 H 0.2662 0.01406 0.59989 0.0
H354 H 0.29429 0.0601 0.55825 0.0
H355 H 0.28659 0.07581 0.61781 0.0
H356 H 0.27864 0.97615 0.44889 0.0
H357 H 0.31303 0.98037 0.54954 0.0
H358 H 0.25926 0.0295 0.66057 0.0
H359 H 0.28229 0.94425 0.44934 0.0
H360 H 0.31645 0.94824 0.55027 0.0
C361 C 0.45644 0.76866 0.8733 0.0
C362 C 0.44058 0.77787 0.86644 0.0
C363 C 0.46661 0.77218 0.90653 0.0
C364 C 0.46106 0.78486 0.93385 0.0
C365 C 0.44543 0.79433 0.92675 0.0
C366 C 0.43536 0.79097 0.89328 0.0
C367 C 0.47113 0.78754 0.97056 0.0
C368 C 0.48958 0.78928 0.96979 0.0
C369 C 0.49926 0.79075 0.00472 0.0
C370 C 0.49032 0.79031 0.04069 0.0
C371 C 0.47187 0.78839 0.04194 0.0
C372 C 0.46235 0.78729 0.00672 0.0
C373 C 0.46262 0.78602 0.07979 0.0
C374 C 0.46914 0.774 0.10766 0.0
C375 C 0.44659 0.79474 0.08713 0.0
C376 C 0.43696 0.79106 0.12103 0.0
C377 C 0.44306 0.77843 0.14813 0.0
C378 C 0.51879 0.79189 0.0037 0.0
C379 C 0.52854 0.78029 0.98004 0.0
C380 C 0.52783 0.8043 0.02685 0.0
C381 C 0.54628 0.80507 0.02634 0.0
C382 C 0.55602 0.79329 0.00306 0.0
C383 C 0.54697 0.78094 0.97984 0.0
C384 C 0.45945 0.77021 0.14141 0.0
H385 H 0.46075 0.75829 0.8537 0.0
H386 H 0.4785 0.76454 0.91156 0.0
H387 H 0.44097 0.80431 0.94718 0.0
H388 H 0.42344 0.79859 0.88858 0.0
H389 H 0.49641 0.78956 0.94192 0.0
H390 H 0.44817 0.78526 0.00747 0.0
H391 H 0.49776 0.79102 0.06777 0.0
H392 H 0.48136 0.76692 0.10254 0.0
H393 H 0.44137 0.80423 0.06634 0.0
H394 H 0.42457 0.79791 0.12567 0.0
H395 H 0.52192 0.7705 0.96217 0.0
H396 H 0.5206 0.81346 0.04519 0.0
H397 H 0.46445 0.76025 0.16133 0.0
H398 H 0.55415 0.77182 0.96134 0.0
H399 H 0.55296 0.81466 0.04465 0.0
H400 H 0.14675 0.2028 0.08807 0.0
H401 H 0.12334 0.21468 0.12983 0.0
H402 H 0.15081 0.26462 0.13569 0.0
H403 H 0.17449 0.25262 0.09533 0.0
H404 H 0.14181 0.25523 0.20509 0.0
H405 H 0.11139 0.25871 0.08286 0.0
H406 H 0.09984 0.24782 0.01986 0.0
H407 H 0.06779 0.20972 0.08021 0.0
H408 H 0.07935 0.22021 0.14359 0.0
H409 H 0.07413 0.30046 0.30562 0.0
H410 H 0.0931 0.29188 0.25096 0.0
H411 H 0.07278 0.23871 0.25695 0.0
H412 H 0.05405 0.24703 0.31209 0.0
H413 H 0.07738 0.25117 0.17946 0.0
H414 H 0.10996 0.24716 0.30124 0.0
H415 H 0.12157 0.25878 0.36356 0.0
H416 H 0.14972 0.29932 0.30147 0.0
H417 H 0.13805 0.28808 0.23879 0.0
C418 C 0.14768 0.21635 0.09799 0.0
C419 C 0.16251 0.22671 0.0888 0.0
C420 C 0.13425 0.22318 0.12166 0.0
C421 C 0.13524 0.2406 0.13574 0.0
C422 C 0.14979 0.25112 0.12541 0.0
C423 C 0.16332 0.24423 0.10236 0.0
C424 C 0.12182 0.24752 0.16342 0.0
C425 C 0.12775 0.25462 0.19903 0.0
C426 C 0.10343 0.24642 0.15602 0.0
C427 C 0.09636 0.24015 0.11797 0.0
C428 C 0.10197 0.24792 0.0827 0.0
C429 C 0.09541 0.24184 0.04692 0.0
C430 C 0.08312 0.22806 0.04603 0.0
C431 C 0.07733 0.22038 0.08094 0.0
C432 C 0.08386 0.2264 0.11681 0.0
C433 C 0.07365 0.28695 0.29525 0.0
C434 C 0.0627 0.27439 0.31351 0.0
C435 C 0.08441 0.28211 0.26388 0.0
C436 C 0.08443 0.26464 0.25022 0.0
C437 C 0.07289 0.25228 0.26701 0.0
C438 C 0.06217 0.25709 0.29849 0.0
C439 C 0.09748 0.25887 0.22067 0.0
C440 C 0.09148 0.25192 0.18502 0.0
C441 C 0.11584 0.26024 0.22776 0.0
C442 C 0.12298 0.2669 0.26539 0.0
C443 C 0.11851 0.25863 0.30091 0.0
C444 C 0.12512 0.26514 0.33629 0.0
C445 C 0.13633 0.27981 0.33648 0.0
C446 C 0.14101 0.28798 0.30128 0.0
C447 C 0.13441 0.28154 0.26582 0.0
H448 H 0.14144 0.28483 0.3639 0.0
H449 H 0.07805 0.22337 0.0183 0.0
H450 H 0.29351 0.64545 0.57682 0.0
H451 H 0.28337 0.62162 0.61979 0.0
H452 H 0.24337 0.65602 0.66737 0.0
H453 H 0.25345 0.67988 0.62516 0.0
H454 H 0.26079 0.64011 0.72423 0.0
H455 H 0.23166 0.62246 0.60728 0.0
H456 H 0.22861 0.61491 0.53755 0.0
H457 H 0.26486 0.57171 0.55225 0.0
H458 H 0.2682 0.5791 0.6222 0.0
H459 H 0.21104 0.57637 0.82779 0.0
H460 H 0.21807 0.59653 0.77383 0.0
H461 H 0.26586 0.56734 0.75065 0.0
H462 H 0.259 0.54723 0.80503 0.0
H463 H 0.24409 0.57983 0.68057 0.0
H464 H 0.2724 0.59958 0.80088 0.0
H465 H 0.27226 0.60753 0.87082 0.0
H466 H 0.23383 0.64806 0.84827 0.0
H467 H 0.23353 0.64013 0.77824 0.0
C468 C 0.2825 0.64792 0.59627 0.0
C469 C 0.27441 0.66465 0.5977 0.0
C470 C 0.27666 0.63425 0.62066 0.0
C471 C 0.26258 0.63704 0.64669 0.0
C472 C 0.25431 0.6536 0.64764 0.0
C473 C 0.26012 0.66724 0.62341 0.0
C474 C 0.257 0.62305 0.67444 0.0
C475 C 0.25695 0.62701 0.71454 0.0
C476 C 0.25216 0.60589 0.66191 0.0
C477 C 0.25034 0.60145 0.61986 0.0
C478 C 0.23911 0.61145 0.59557 0.0
C479 C 0.2373 0.60717 0.55601 0.0
C480 C 0.2466 0.59288 0.54039 0.0
C481 C 0.25769 0.5828 0.56437 0.0
C482 C 0.25952 0.58701 0.604 0.0
C483 C 0.22284 0.57404 0.81064 0.0
C484 C 0.23453 0.56033 0.82056 0.0
C485 C 0.22685 0.58556 0.77996 0.0
C486 C 0.24248 0.58339 0.75848 0.0
C487 C 0.2537 0.56914 0.76689 0.0
C488 C 0.24984 0.55777 0.798 0.0
C489 C 0.24794 0.59701 0.72999 0.0
C490 C 0.24798 0.59296 0.68997 0.0
C491 C 0.25247 0.61422 0.74244 0.0
C492 C 0.2528 0.61913 0.78443 0.0
C493 C 0.2638 0.61008 0.8109 0.0
C494 C 0.26382 0.6146 0.85054 0.0
C495 C 0.25301 0.62826 0.864 0.0
C496 C 0.24218 0.63746 0.83781 0.0
C497 C 0.24209 0.63297 0.79815 0.0
H498 H 0.25304 0.63175 0.89471 0.0
H499 H 0.24518 0.58956 0.50976 0.0
H500 H 0.81748 0.76884 0.142 0.0
H501 H 0.84123 0.76082 0.18698 0.0
H502 H 0.87993 0.77889 0.10353 0.0
H503 H 0.85612 0.78729 0.0582 0.0
H504 H 0.88597 0.7433 0.14238 0.0
H505 H 0.87556 0.80457 0.17032 0.0
H506 H 0.85695 0.83061 0.18372 0.0
H507 H 0.837 0.80572 0.28765 0.0
H508 H 0.85528 0.77938 0.27452 0.0
H509 H 0.95317 0.73574 0.29149 0.0
H510 H 0.93512 0.7456 0.23584 0.0
H511 H 0.88875 0.7451 0.30929 0.0
H512 H 0.9067 0.73557 0.36476 0.0
H513 H 0.89001 0.77466 0.26949 0.0
H514 H 0.89716 0.71275 0.23965 0.0
H515 H 0.91391 0.68546 0.22632 0.0
H516 H 0.93846 0.71017 0.12709 0.0
H517 H 0.922 0.73769 0.14015 0.0
C518 C 0.83103 0.77106 0.13303 0.0
C519 C 0.83493 0.77876 0.09658 0.0
C520 C 0.84457 0.76649 0.1588 0.0
C521 C 0.86226 0.76933 0.1485 0.0
C522 C 0.86631 0.77662 0.11186 0.0
C523 C 0.85272 0.78149 0.08619 0.0
C524 C 0.87633 0.765 0.17692 0.0
C525 C 0.88719 0.75034 0.16988 0.0
C526 C 0.87754 0.77403 0.21295 0.0
C527 C 0.86669 0.78994 0.22125 0.0
C528 C 0.8671 0.80458 0.19586 0.0
C529 C 0.85663 0.81941 0.20343 0.0
C530 C 0.84577 0.8198 0.23647 0.0
C531 C 0.84541 0.80539 0.26205 0.0
C532 C 0.85584 0.79051 0.25458 0.0
C533 C 0.93909 0.73758 0.29551 0.0
C534 C 0.93133 0.73502 0.33243 0.0
C535 C 0.9288 0.74321 0.26377 0.0
C536 C 0.91057 0.74608 0.26839 0.0
C537 C 0.90281 0.74313 0.3051 0.0
C538 C 0.91307 0.73768 0.33676 0.0
C539 C 0.89946 0.75258 0.23559 0.0
C540 C 0.8891 0.76772 0.2418 0.0
C541 C 0.89861 0.74386 0.19899 0.0
C542 C 0.90853 0.72734 0.19117 0.0
C543 C 0.90625 0.71241 0.2152 0.0
C544 C 0.91567 0.69689 0.20765 0.0
C545 C 0.92729 0.6961 0.17596 0.0
C546 C 0.92948 0.71081 0.15168 0.0
C547 C 0.92011 0.72637 0.15913 0.0
H548 H 0.93456 0.68407 0.17015 0.0
H549 H 0.83767 0.83129 0.24226 0.0
H550 H 0.72845 0.31329 0.64566 0.0
H551 H 0.73873 0.33604 0.69057 0.0
H552 H 0.73072 0.37574 0.60147 0.0
H553 H 0.71975 0.35302 0.55666 0.0
H554 H 0.76523 0.35698 0.69129 0.0
H555 H 0.72037 0.41501 0.64382 0.0
H556 H 0.69101 0.41999 0.61428 0.0
H557 H 0.67303 0.37015 0.65941 0.0
H558 H 0.70221 0.36499 0.68959 0.0
H559 H 0.79425 0.43151 0.79867 0.0
H560 H 0.78519 0.41258 0.74405 0.0
H561 H 0.73301 0.40811 0.79423 0.0
H562 H 0.74185 0.42767 0.84763 0.0
H563 H 0.72953 0.41033 0.72039 0.0
H564 H 0.76665 0.37558 0.80516 0.0
H565 H 0.79379 0.3682 0.84173 0.0
H566 H 0.82328 0.36713 0.73446 0.0
H567 H 0.79634 0.37474 0.69731 0.0
C568 C 0.72885 0.32686 0.63555 0.0
C569 C 0.72317 0.33136 0.59765 0.0
C570 C 0.7348 0.33986 0.66126 0.0
C571 C 0.73537 0.35764 0.64959 0.0
C572 C 0.73008 0.36216 0.61143 0.0
C573 C 0.72385 0.34916 0.58582 0.0
C574 C 0.74138 0.37132 0.67775 0.0
C575 C 0.75744 0.36869 0.69752 0.0
C576 C 0.73117 0.38651 0.68629 0.0
C577 C 0.71353 0.38953 0.66853 0.0
C578 C 0.71013 0.40514 0.64749 0.0
C579 C 0.69353 0.40799 0.63064 0.0
C580 C 0.68018 0.39536 0.63484 0.0
C581 C 0.6834 0.37989 0.65603 0.0
C582 C 0.69997 0.37698 0.67298 0.0
C583 C 0.78083 0.42655 0.79771 0.0
C584 C 0.76874 0.43095 0.82725 0.0
C585 C 0.77567 0.41569 0.76666 0.0
C586 C 0.75849 0.40864 0.76531 0.0
C587 C 0.74632 0.41339 0.79448 0.0
C588 C 0.75137 0.42453 0.82503 0.0
C589 C 0.75324 0.39584 0.73445 0.0
C590 C 0.73739 0.39871 0.71394 0.0
C591 C 0.76333 0.38052 0.72625 0.0
C592 C 0.77953 0.37594 0.74853 0.0
C593 C 0.77895 0.3739 0.78942 0.0
C594 C 0.79429 0.36966 0.81024 0.0
C595 C 0.81026 0.36725 0.79045 0.0
C596 C 0.81091 0.36903 0.74977 0.0
C597 C 0.79561 0.37331 0.72881 0.0
H598 H 0.82212 0.36396 0.80662 0.0
H599 H 0.66734 0.39759 0.62174 0.0
H600 H 0.64349 0.28393 0.44361 0.0
H601 H 0.61924 0.27478 0.40015 0.0
H602 H 0.65684 0.26397 0.30853 0.0
H603 H 0.68105 0.27266 0.35172 0.0
H604 H 0.62567 0.28536 0.28705 0.0
H605 H 0.64343 0.23054 0.35149 0.0
H606 H 0.64905 0.21236 0.41015 0.0
H607 H 0.59534 0.21969 0.44718 0.0
H608 H 0.58946 0.23809 0.3888 0.0
H609 H 0.59282 0.23298 0.1396 0.0
H610 H 0.60988 0.24306 0.19589 0.0
H611 H 0.56329 0.24013 0.26824 0.0
H612 H 0.54604 0.22985 0.2116 0.0
H613 H 0.59388 0.22863 0.30698 0.0
H614 H 0.57474 0.27911 0.23567 0.0
H615 H 0.56933 0.29738 0.17709 0.0
H616 H 0.62508 0.2995 0.15434 0.0
H617 H 0.63082 0.281 0.21245 0.0
C618 C 0.64653 0.27968 0.41413 0.0
C619 C 0.66413 0.27896 0.401 0.0
C620 C 0.63272 0.27442 0.38949 0.0
C621 C 0.63635 0.26873 0.3513 0.0
C622 C 0.65384 0.26836 0.33795 0.0
C623 C 0.66763 0.27325 0.36269 0.0
C624 C 0.62208 0.2629 0.32487 0.0
C625 C 0.61868 0.27298 0.29132 0.0
C626 C 0.61265 0.24704 0.33132 0.0
C627 C 0.61606 0.23582 0.36607 0.0
C628 C 0.63286 0.22838 0.3723 0.0
C629 C 0.63608 0.21801 0.40543 0.0
C630 C 0.62257 0.2149 0.4324 0.0
C631 C 0.60579 0.22212 0.42625 0.0
C632 C 0.6025 0.2325 0.39313 0.0
C633 C 0.58622 0.23439 0.16755 0.0
C634 C 0.56807 0.23091 0.17118 0.0
C635 C 0.59597 0.24013 0.19966 0.0
C636 C 0.58774 0.2427 0.23597 0.0
C637 C 0.56982 0.23832 0.24036 0.0
C638 C 0.56003 0.23245 0.20809 0.0
C639 C 0.59789 0.25082 0.26833 0.0
C640 C 0.60051 0.24122 0.30304 0.0
C641 C 0.60654 0.26725 0.26312 0.0
C642 C 0.6032 0.27858 0.22834 0.0
C643 C 0.58584 0.28338 0.21805 0.0
C644 C 0.58272 0.29379 0.18493 0.0
C645 C 0.59685 0.29958 0.16198 0.0
C646 C 0.61415 0.29501 0.17215 0.0
C647 C 0.61735 0.28458 0.20522 0.0
H648 H 0.5944 0.30763 0.13634 0.0
H649 H 0.62511 0.20684 0.45796 0.0
H650 H 0.24876 0.17299 0.90111 0.0
H651 H 0.25806 0.14941 0.85729 0.0
H652 H 0.207 0.12457 0.86887 0.0
H653 H 0.19771 0.14801 0.91392 0.0
H654 H 0.23292 0.10009 0.86563 0.0
H655 H 0.21585 0.15046 0.79029 0.0
H656 H 0.21547 0.18187 0.771 0.0
H657 H 0.27093 0.17958 0.74495 0.0
H658 H 0.27169 0.14821 0.76464 0.0
H659 H 0.24049 0.05323 0.68237 0.0
H660 H 0.23121 0.07159 0.73748 0.0
H661 H 0.28275 0.09587 0.74071 0.0
H662 H 0.29233 0.07725 0.68639 0.0
H663 H 0.25507 0.11993 0.73618 0.0
H664 H 0.27127 0.06859 0.81167 0.0
H665 H 0.2704 0.03703 0.8296 0.0
H666 H 0.21476 0.0409 0.85261 0.0
H667 H 0.21525 0.07245 0.83427 0.0
C668 C 0.23953 0.16245 0.89462 0.0
C669 C 0.2224 0.16249 0.9105 0.0
C670 C 0.24486 0.14898 0.86952 0.0
C671 C 0.23308 0.13547 0.85908 0.0
C672 C 0.21626 0.13495 0.87638 0.0
C673 C 0.21096 0.14835 0.90203 0.0
C674 C 0.23813 0.12254 0.82851 0.0
C675 C 0.23755 0.1044 0.83714 0.0
C676 C 0.24428 0.12818 0.79142 0.0
C677 C 0.24385 0.14702 0.77927 0.0
C678 C 0.22799 0.15669 0.78071 0.0
C679 C 0.2277 0.17448 0.76967 0.0
C680 C 0.24318 0.18273 0.75684 0.0
C681 C 0.25896 0.17318 0.75493 0.0
C682 C 0.25932 0.15539 0.76599 0.0
C683 C 0.25 0.06217 0.69536 0.0
C684 C 0.26713 0.06385 0.67975 0.0
C685 C 0.24464 0.07269 0.72678 0.0
C686 C 0.25631 0.08507 0.74309 0.0
C687 C 0.27354 0.08643 0.72836 0.0
C688 C 0.27895 0.07585 0.69717 0.0
C689 C 0.25021 0.09753 0.77354 0.0
C690 C 0.25047 0.11562 0.7647 0.0
C691 C 0.24356 0.09179 0.81008 0.0
C692 C 0.24326 0.07284 0.8212 0.0
C693 C 0.25882 0.06268 0.82021 0.0
C694 C 0.2584 0.04479 0.83052 0.0
C695 C 0.24253 0.03695 0.84213 0.0
C696 C 0.22705 0.04699 0.84356 0.0
C697 C 0.22738 0.06487 0.83324 0.0
H698 H 0.24224 0.02311 0.85011 0.0
H699 H 0.24293 0.19651 0.74831 0.0
H700 H 0.31709 0.73313 0.36391 0.0
H701 H 0.34087 0.74232 0.32053 0.0
H702 H 0.37948 0.72415 0.40426 0.0
H703 H 0.35561 0.71467 0.44826 0.0
H704 H 0.38598 0.75919 0.36958 0.0
H705 H 0.3746 0.69936 0.33193 0.0
H706 H 0.35591 0.67393 0.31403 0.0
H707 H 0.33665 0.70213 0.21356 0.0
H708 H 0.35502 0.72785 0.23119 0.0
H709 H 0.45343 0.77028 0.22322 0.0
H710 H 0.43499 0.75894 0.27642 0.0
H711 H 0.38892 0.76323 0.20253 0.0
H712 H 0.40728 0.77372 0.14886 0.0
H713 H 0.38948 0.73228 0.23748 0.0
H714 H 0.39774 0.79284 0.27762 0.0
H715 H 0.415 0.81926 0.29557 0.0
H716 H 0.43897 0.7908 0.39059 0.0
H717 H 0.422 0.76412 0.37287 0.0
C718 C 0.33061 0.73111 0.37337 0.0
C719 C 0.33444 0.72309 0.40957 0.0
C720 C 0.34418 0.73635 0.34843 0.0
C721 C 0.36187 0.73379 0.35914 0.0
C722 C 0.36586 0.72618 0.39555 0.0
C723 C 0.35223 0.72072 0.4205 0.0
C724 C 0.37599 0.73888 0.33149 0.0
C725 C 0.38707 0.7531 0.34096 0.0
C726 C 0.37706 0.7311 0.29399 0.0
C727 C 0.36611 0.71559 0.28306 0.0
C728 C 0.36628 0.7002 0.30618 0.0
C729 C 0.35576 0.68572 0.29606 0.0
C730 C 0.34508 0.68642 0.26272 0.0
C731 C 0.34493 0.7016 0.23938 0.0
C732 C 0.35541 0.71613 0.24941 0.0
C733 C 0.43938 0.76877 0.21829 0.0
C734 C 0.43185 0.77295 0.18173 0.0
C735 C 0.42883 0.76243 0.24885 0.0
C736 C 0.41055 0.76033 0.24353 0.0
C737 C 0.40299 0.76474 0.2073 0.0
C738 C 0.4135 0.77095 0.17675 0.0
C739 C 0.39922 0.75299 0.27501 0.0
C740 C 0.38866 0.73826 0.26626 0.0
C741 C 0.39855 0.76042 0.313 0.0
C742 C 0.40877 0.77643 0.32362 0.0
C743 C 0.40681 0.79217 0.30213 0.0
C744 C 0.41652 0.8072 0.3123 0.0
C745 C 0.42812 0.80669 0.34412 0.0
C746 C 0.43 0.79116 0.3659 0.0
C747 C 0.42034 0.77608 0.35582 0.0
H748 H 0.43562 0.81835 0.35196 0.0
H749 H 0.33694 0.6752 0.25493 0.0
H750 H 0.78574 0.8556 0.93747 0.0
H751 H 0.775 0.87899 0.89349 0.0
H752 H 0.75727 0.83947 0.81156 0.0
H753 H 0.76773 0.81618 0.85502 0.0
H754 H 0.7775 0.8669 0.77785 0.0
H755 H 0.72806 0.85834 0.86648 0.0
H756 H 0.71414 0.85762 0.93168 0.0
H757 H 0.72767 0.91215 0.94931 0.0
H758 H 0.74191 0.91311 0.88438 0.0
H759 H 0.71976 0.9024 0.6432 0.0
H760 H 0.73059 0.88554 0.69923 0.0
H761 H 0.74027 0.93399 0.76208 0.0
H762 H 0.72926 0.95104 0.70577 0.0
H763 H 0.72726 0.90644 0.81027 0.0
H764 H 0.77384 0.91604 0.71886 0.0
H765 H 0.78776 0.91687 0.6537 0.0
H766 H 0.78052 0.86085 0.64206 0.0
H767 H 0.76628 0.85972 0.70691 0.0
C768 C 0.77959 0.85193 0.91003 0.0
C769 C 0.77759 0.83404 0.89973 0.0
C770 C 0.77341 0.86528 0.88509 0.0
C771 C 0.76533 0.8609 0.8494 0.0
C772 C 0.76349 0.84309 0.83898 0.0
C773 C 0.76943 0.8298 0.86396 0.0
C774 C 0.7589 0.87468 0.8222 0.0
C775 C 0.7665 0.87553 0.78488 0.0
C776 C 0.74492 0.88628 0.83195 0.0
C777 C 0.73625 0.88573 0.87081 0.0
C778 C 0.72822 0.87013 0.88441 0.0
C779 C 0.72024 0.86968 0.92128 0.0
C780 C 0.72008 0.88481 0.94469 0.0
C781 C 0.72784 0.90043 0.93119 0.0
C782 C 0.73586 0.90093 0.89435 0.0
C783 C 0.72402 0.90946 0.6691 0.0
C784 C 0.72393 0.92801 0.66999 0.0
C785 C 0.73018 0.89983 0.70108 0.0
C786 C 0.73655 0.90855 0.73444 0.0
C787 C 0.73547 0.92705 0.73649 0.0
C788 C 0.72918 0.93674 0.70441 0.0
C789 C 0.7455 0.89821 0.76549 0.0
C790 C 0.73846 0.89805 0.80346 0.0
C791 C 0.76011 0.88726 0.75651 0.0
C792 C 0.76889 0.88782 0.71767 0.0
C793 C 0.77511 0.90392 0.70231 0.0
C794 C 0.78307 0.90444 0.66543 0.0
C795 C 0.785 0.88893 0.64373 0.0
C796 C 0.77901 0.87285 0.65891 0.0
C797 C 0.77102 0.87226 0.69575 0.0
H798 H 0.79116 0.88936 0.61518 0.0
H799 H 0.7139 0.88444 0.97323 0.0
H800 H 0.82059 0.76598 0.86004 0.0
H801 H 0.84478 0.75279 0.82369 0.0
H802 H 0.88183 0.77076 0.91106 0.0
H803 H 0.8575 0.78448 0.9476 0.0
H804 H 0.89468 0.77545 0.83854 0.0
H805 H 0.8697 0.72753 0.90842 0.0
H806 H 0.84586 0.70863 0.9343 0.0
H807 H 0.83115 0.69398 0.81742 0.0
H808 H 0.85467 0.71305 0.79073 0.0
H809 H 0.95618 0.72443 0.72516 0.0
H810 H 0.93911 0.73226 0.78391 0.0
H811 H 0.89073 0.72761 0.71778 0.0
H812 H 0.90766 0.71996 0.65932 0.0
H813 H 0.88847 0.71334 0.79398 0.0
H814 H 0.90905 0.76661 0.72663 0.0
H815 H 0.93229 0.78621 0.70052 0.0
H816 H 0.95544 0.7903 0.81495 0.0
H817 H 0.93245 0.77051 0.8416 0.0
C818 C 0.83386 0.76719 0.87164 0.0
C819 C 0.8371 0.77616 0.90692 0.0
C820 C 0.84768 0.75954 0.85089 0.0
C821 C 0.86504 0.76037 0.86522 0.0
C822 C 0.86848 0.76981 0.89975 0.0
C823 C 0.8546 0.77767 0.92049 0.0
C824 C 0.87941 0.7515 0.8433 0.0
C825 C 0.89359 0.76173 0.82967 0.0
C826 C 0.87795 0.7336 0.83165 0.0
C827 C 0.86396 0.72179 0.84755 0.0
C828 C 0.86134 0.72035 0.8882 0.0
C829 C 0.84787 0.70961 0.90302 0.0
C830 C 0.83701 0.70012 0.87751 0.0
C831 C 0.8396 0.70133 0.83713 0.0
C832 C 0.85302 0.71209 0.82214 0.0
C833 C 0.94188 0.72478 0.72356 0.0
C834 C 0.93317 0.72175 0.68786 0.0
C835 C 0.93219 0.72928 0.75695 0.0
C836 C 0.91369 0.73059 0.75501 0.0
C837 C 0.90498 0.72662 0.71986 0.0
C838 C 0.91465 0.72237 0.6865 0.0
C839 C 0.90326 0.73749 0.78823 0.0
C840 C 0.88983 0.72688 0.80393 0.0
C841 C 0.90546 0.75498 0.80198 0.0
C842 C 0.9192 0.76691 0.78598 0.0
C843 C 0.91919 0.77157 0.74614 0.0
C844 C 0.9323 0.78273 0.73126 0.0
C845 C 0.94537 0.78944 0.75603 0.0
C846 C 0.94533 0.78505 0.79577 0.0
C847 C 0.93227 0.77387 0.81078 0.0
H848 H 0.9555 0.79809 0.74447 0.0
H849 H 0.82662 0.69182 0.88904 0.0
H850 H 0.7188 0.35367 0.44109 0.0
H851 H 0.73175 0.3766 0.39932 0.0
H852 H 0.74954 0.33654 0.31866 0.0
H853 H 0.73725 0.31367 0.36066 0.0
H854 H 0.7745 0.35938 0.32811 0.0
H855 H 0.71173 0.36303 0.3027 0.0
H856 H 0.68036 0.36693 0.32025 0.0
H857 H 0.69173 0.41853 0.36594 0.0
H858 H 0.72322 0.41485 0.34907 0.0
H859 H 0.78107 0.40352 0.14618 0.0
H860 H 0.77263 0.38524 0.20186 0.0
H861 H 0.76836 0.43168 0.27412 0.0
H862 H 0.77753 0.45015 0.2189 0.0
H863 H 0.7384 0.40894 0.2765 0.0
H864 H 0.80116 0.40579 0.29186 0.0
H865 H 0.8319 0.40121 0.27029 0.0
H866 H 0.81976 0.34761 0.23921 0.0
H867 H 0.78886 0.35193 0.26005 0.0
C868 C 0.72546 0.34978 0.41442 0.0
C869 C 0.72697 0.33185 0.40418 0.0
C870 C 0.73283 0.3629 0.39053 0.0
C871 C 0.74149 0.35832 0.35561 0.0
C872 C 0.74301 0.34042 0.34551 0.0
C873 C 0.73591 0.32734 0.36955 0.0
C874 C 0.74895 0.37199 0.32912 0.0
C875 C 0.76655 0.37015 0.31668 0.0
C876 C 0.73877 0.38635 0.31495 0.0
C877 C 0.71985 0.38858 0.32508 0.0
C878 C 0.70756 0.37515 0.31677 0.0
C879 C 0.68976 0.37733 0.32654 0.0
C880 C 0.68406 0.39294 0.34432 0.0
C881 C 0.69616 0.40643 0.35225 0.0
C882 C 0.71398 0.40431 0.34258 0.0
C883 C 0.77879 0.40989 0.17407 0.0
C884 C 0.78003 0.42836 0.17793 0.0
C885 C 0.77384 0.39939 0.20583 0.0
C886 C 0.76994 0.40713 0.24206 0.0
C887 C 0.77129 0.4255 0.24631 0.0
C888 C 0.77644 0.43601 0.21464 0.0
C889 C 0.7637 0.39596 0.27483 0.0
C890 C 0.74638 0.39831 0.28845 0.0
C891 C 0.77404 0.38192 0.28966 0.0
C892 C 0.79265 0.37923 0.27728 0.0
C893 C 0.805 0.39306 0.28014 0.0
C894 C 0.82247 0.39051 0.2681 0.0
C895 C 0.82777 0.37414 0.25332 0.0
C896 C 0.81563 0.36028 0.25065 0.0
C897 C 0.79815 0.36277 0.26262 0.0
H898 H 0.8413 0.37219 0.24401 0.0
H899 H 0.67028 0.3946 0.35185 0.0
H900 H 0.14388 0.21655 0.93866 0.0
H901 H 0.1212 0.22832 0.8946 0.0
H902 H 0.16142 0.24118 0.80976 0.0
H903 H 0.1841 0.22996 0.85382 0.0
H904 H 0.13953 0.26769 0.81679 0.0
H905 H 0.13359 0.20442 0.8009 0.0
H906 H 0.12867 0.17385 0.82357 0.0
H907 H 0.07774 0.1885 0.86833 0.0
H908 H 0.08245 0.21922 0.84631 0.0
H909 H 0.09452 0.27294 0.63659 0.0
H910 H 0.11285 0.26451 0.69227 0.0
H911 H 0.06658 0.2616 0.76552 0.0
H912 H 0.04808 0.27056 0.71012 0.0
H913 H 0.08849 0.23196 0.77152 0.0
H914 H 0.09358 0.29476 0.7791 0.0
H915 H 0.09881 0.32489 0.75411 0.0
H916 H 0.15188 0.3107 0.72284 0.0
H917 H 0.14689 0.2804 0.74712 0.0
C918 C 0.14786 0.22181 0.91052 0.0
C919 C 0.16579 0.22231 0.89974 0.0
C920 C 0.13489 0.22851 0.88536 0.0
C921 C 0.1396 0.23554 0.84875 0.0
C922 C 0.15748 0.23592 0.83793 0.0
C923 C 0.17043 0.22944 0.86315 0.0
C924 C 0.1261 0.24266 0.82149 0.0
C925 C 0.12844 0.25982 0.80669 0.0
C926 C 0.11131 0.23261 0.80924 0.0
C927 C 0.10846 0.21415 0.82238 0.0
C928 C 0.1214 0.20115 0.81584 0.0
C929 C 0.11864 0.18379 0.82852 0.0
C930 C 0.10292 0.17925 0.84749 0.0
C931 C 0.08991 0.19205 0.8537 0.0
C932 C 0.09262 0.20943 0.84111 0.0
C933 C 0.08823 0.27087 0.66467 0.0
C934 C 0.06981 0.2725 0.66886 0.0
C935 C 0.09873 0.26596 0.69643 0.0
C936 C 0.09106 0.26255 0.73301 0.0
C937 C 0.07272 0.26416 0.73746 0.0
C938 C 0.06218 0.26921 0.70573 0.0
C939 C 0.10227 0.25675 0.76609 0.0
C940 C 0.09946 0.23989 0.78204 0.0
C941 C 0.11672 0.26701 0.77919 0.0
C942 C 0.11981 0.28526 0.76469 0.0
C943 C 0.10632 0.29802 0.76662 0.0
C944 C 0.10925 0.31514 0.75263 0.0
C945 C 0.12566 0.3197 0.73683 0.0
C946 C 0.13918 0.30715 0.73507 0.0
C947 C 0.13631 0.29001 0.74899 0.0
H948 H 0.1279 0.33296 0.72601 0.0
H949 H 0.10081 0.16581 0.85728 0.0
H950 H 0.2538 0.67597 0.38847 0.0
H951 H 0.24579 0.65168 0.34504 0.0
H952 H 0.29272 0.62334 0.37975 0.0
H953 H 0.30088 0.64763 0.42356 0.0
H954 H 0.28793 0.62577 0.29843 0.0
H955 H 0.25442 0.60958 0.4119 0.0
H956 H 0.23343 0.61448 0.46579 0.0
H957 H 0.19198 0.62495 0.38312 0.0
H958 H 0.21284 0.62056 0.32859 0.0
H959 H 0.26537 0.55059 0.18694 0.0
H960 H 0.27339 0.56931 0.24256 0.0
H961 H 0.22397 0.59734 0.23103 0.0
H962 H 0.21571 0.57829 0.1762 0.0
H963 H 0.23115 0.59311 0.30502 0.0
H964 H 0.26358 0.61357 0.1932 0.0
H965 H 0.2837 0.61105 0.13677 0.0
H966 H 0.32588 0.59514 0.21324 0.0
H967 H 0.30593 0.59733 0.2701 0.0
C968 C 0.2624 0.66455 0.38707 0.0
C969 C 0.27802 0.66376 0.4094 0.0
C970 C 0.25774 0.65064 0.3624 0.0
C971 C 0.26861 0.6357 0.35944 0.0
C972 C 0.28414 0.63477 0.3818 0.0
C973 C 0.28875 0.64862 0.40686 0.0
C974 C 0.26411 0.62149 0.33146 0.0
C975 C 0.27569 0.61835 0.30025 0.0
C976 C 0.24786 0.61229 0.33331 0.0
C977 C 0.23525 0.61486 0.3661 0.0
C978 C 0.24088 0.61308 0.40516 0.0
C979 C 0.22898 0.61574 0.43586 0.0
C980 C 0.21137 0.61999 0.42793 0.0
C981 C 0.20563 0.62164 0.38924 0.0
C982 C 0.21748 0.61908 0.35841 0.0
C983 C 0.25621 0.56069 0.1965 0.0
C984 C 0.23998 0.5631 0.17721 0.0
C985 C 0.2608 0.5714 0.22818 0.0
C986 C 0.24943 0.58496 0.24053 0.0
C987 C 0.23296 0.58698 0.22204 0.0
C988 C 0.22825 0.57611 0.19073 0.0
C989 C 0.25491 0.59747 0.27168 0.0
C990 C 0.2435 0.60035 0.30342 0.0
C991 C 0.27117 0.60672 0.26996 0.0
C992 C 0.28321 0.60541 0.23584 0.0
C993 C 0.27711 0.6094 0.19794 0.0
C994 C 0.28849 0.60805 0.16589 0.0
C995 C 0.30604 0.60288 0.1714 0.0
C996 C 0.31227 0.5991 0.20901 0.0
C997 C 0.30093 0.6004 0.24116 0.0
H998 H 0.31484 0.60185 0.14655 0.0
H999 H 0.20217 0.62194 0.45174 0.0
H1000 H 0.35326 0.71537 0.56798 0.0
H1001 H 0.37613 0.72675 0.61194 0.0
H1002 H 0.33583 0.74681 0.6893 0.0
H1003 H 0.313 0.73602 0.64513 0.0
H1004 H 0.3605 0.77039 0.68158 0.0
H1005 H 0.3595 0.70774 0.70785 0.0
H1006 H 0.3614 0.6761 0.6911 0.0
H1007 H 0.41435 0.68356 0.64908 0.0
H1008 H 0.41267 0.71531 0.66515 0.0
H1009 H 0.40442 0.77656 0.86379 0.0
H1010 H 0.38568 0.76814 0.80885 0.0
H1011 H 0.43183 0.75944 0.73758 0.0
H1012 H 0.45079 0.76851 0.79204 0.0
H1013 H 0.40706 0.73133 0.73627 0.0
H1014 H 0.40831 0.79405 0.7181 0.0
H1015 H 0.40576 0.82522 0.7382 0.0
H1016 H 0.35132 0.81704 0.76861 0.0
H1017 H 0.35361 0.78574 0.74923 0.0
C1018 C 0.34928 0.72218 0.5944 0.0
C1019 C 0.33129 0.72475 0.60307 0.0
C1020 C 0.36237 0.72864 0.61955 0.0
C1021 C 0.35771 0.73749 0.65416 0.0
C1022 C 0.33977 0.74009 0.66272 0.0
C1023 C 0.32671 0.73385 0.63744 0.0
C1024 C 0.37138 0.74406 0.68175 0.0
C1025 C 0.37058 0.76179 0.69373 0.0
C1026 C 0.38486 0.733 0.69689 0.0
C1027 C 0.38589 0.71392 0.68726 0.0
C1028 C 0.3715 0.70265 0.69475 0.0
C1029 C 0.37254 0.6847 0.68543 0.0
C1030 C 0.38796 0.67784 0.66892 0.0
C1031 C 0.4024 0.6889 0.6618 0.0
C1032 C 0.40141 0.70687 0.67102 0.0
C1033 C 0.41065 0.77324 0.83626 0.0
C1034 C 0.42916 0.7733 0.83241 0.0
C1035 C 0.39989 0.76832 0.80494 0.0
C1036 C 0.40738 0.76327 0.76916 0.0
C1037 C 0.42582 0.76328 0.76504 0.0
C1038 C 0.43661 0.76838 0.79627 0.0
C1039 C 0.39586 0.75748 0.7366 0.0
C1040 C 0.39708 0.73994 0.72369 0.0
C1041 C 0.38264 0.76865 0.72097 0.0
C1042 C 0.38118 0.7875 0.73249 0.0
C1043 C 0.39583 0.79886 0.72937 0.0
C1044 C 0.39442 0.81656 0.74058 0.0
C1045 C 0.3784 0.8231 0.75475 0.0
C1046 C 0.36373 0.81195 0.75765 0.0
C1047 C 0.36507 0.79423 0.74651 0.0
H1048 H 0.37733 0.83681 0.76341 0.0
H1049 H 0.38875 0.66393 0.66173 0.0
H1050 H 0.78735 0.85618 0.05711 0.0
H1051 H 0.77375 0.88009 0.09487 0.0
H1052 H 0.74534 0.8417 0.16388 0.0
H1053 H 0.75852 0.81791 0.12632 0.0
H1054 H 0.72417 0.86809 0.14342 0.0
H1055 H 0.78295 0.86189 0.19793 0.0
H1056 H 0.81553 0.8615 0.19532 0.0
H1057 H 0.81574 0.91502 0.15334 0.0
H1058 H 0.78313 0.91564 0.15526 0.0
H1059 H 0.70952 0.90402 0.33144 0.0
H1060 H 0.71816 0.88785 0.27249 0.0
H1061 H 0.73476 0.93666 0.21846 0.0
H1062 H 0.72588 0.95295 0.27744 0.0
H1063 H 0.76079 0.91005 0.21989 0.0
H1064 H 0.70082 0.91687 0.18139 0.0
H1065 H 0.66837 0.91591 0.18719 0.0
H1066 H 0.67025 0.85961 0.2025 0.0
H1067 H 0.70273 0.86024 0.1977 0.0
C1068 C 0.77824 0.85284 0.0804 0.0
C1069 C 0.7741 0.8351 0.08874 0.0
C1070 C 0.77048 0.86652 0.10191 0.0
C1071 C 0.75858 0.86266 0.13226 0.0
C1072 C 0.7544 0.845 0.14045 0.0
C1073 C 0.76206 0.83138 0.11901 0.0
C1074 C 0.75061 0.87681 0.15641 0.0
C1075 C 0.73215 0.87725 0.16028 0.0
C1076 C 0.76104 0.88909 0.1774 0.0
C1077 C 0.78062 0.88874 0.17623 0.0
C1078 C 0.78995 0.87352 0.18782 0.0
C1079 C 0.80841 0.87327 0.18653 0.0
C1080 C 0.81769 0.88821 0.17403 0.0
C1081 C 0.80853 0.90345 0.16292 0.0
C1082 C 0.79006 0.90376 0.16411 0.0
C1083 C 0.71471 0.91131 0.30667 0.0
C1084 C 0.71708 0.92968 0.30883 0.0
C1085 C 0.71955 0.9021 0.27301 0.0
C1086 C 0.72701 0.91109 0.24111 0.0
C1087 C 0.72892 0.92953 0.24274 0.0
C1088 C 0.72381 0.9388 0.27626 0.0
C1089 C 0.73437 0.90088 0.20804 0.0
C1090 C 0.75274 0.90118 0.20244 0.0
C1091 C 0.72386 0.88906 0.186 0.0
C1092 C 0.70429 0.88864 0.18954 0.0
C1093 C 0.69435 0.9043 0.18649 0.0
C1094 C 0.67593 0.90381 0.18952 0.0
C1095 C 0.66726 0.88772 0.19533 0.0
C1096 C 0.67699 0.87208 0.19809 0.0
C1097 C 0.69541 0.8725 0.19521 0.0
H1098 H 0.653 0.88737 0.19759 0.0
H1099 H 0.83199 0.88799 0.17306 0.0
H1100 H 0.67065 0.25084 0.60135 0.0
H1101 H 0.64512 0.24255 0.64093 0.0
H1102 H 0.62177 0.29371 0.6202 0.0
H1103 H 0.64727 0.30214 0.58015 0.0
H1104 H 0.62362 0.28386 0.69949 0.0
H1105 H 0.60347 0.25975 0.57813 0.0
H1106 H 0.6052 0.24208 0.51767 0.0
H1107 H 0.61218 0.19483 0.58566 0.0
H1108 H 0.61077 0.21224 0.64652 0.0
H1109 H 0.54862 0.26168 0.81017 0.0
H1110 H 0.56613 0.27087 0.75352 0.0
H1111 H 0.59065 0.21939 0.74994 0.0
H1112 H 0.57276 0.21002 0.80593 0.0
H1113 H 0.58563 0.2313 0.67783 0.0
H1114 H 0.61022 0.25463 0.797 0.0
H1115 H 0.6098 0.27122 0.85904 0.0
H1116 H 0.59655 0.31877 0.79686 0.0
H1117 H 0.59665 0.30238 0.73446 0.0
C1118 C 0.66005 0.26032 0.60498 0.0
C1119 C 0.66103 0.2772 0.5878 0.0
C1120 C 0.64541 0.2555 0.62735 0.0
C1121 C 0.63153 0.26748 0.63318 0.0
C1122 C 0.63234 0.28426 0.6158 0.0
C1123 C 0.6469 0.28904 0.59295 0.0
C1124 C 0.61688 0.26283 0.65985 0.0
C1125 C 0.61503 0.27261 0.69438 0.0
C1126 C 0.60609 0.24782 0.65356 0.0
C1127 C 0.60713 0.23734 0.61693 0.0
C1128 C 0.60554 0.24562 0.5802 0.0
C1129 C 0.60644 0.23564 0.54585 0.0
C1130 C 0.6088 0.21735 0.54785 0.0
C1131 C 0.61033 0.209 0.58417 0.0
C1132 C 0.60947 0.21892 0.61861 0.0
C1133 C 0.5576 0.25228 0.7969 0.0
C1134 C 0.55951 0.23521 0.81254 0.0
C1135 C 0.5676 0.25754 0.76464 0.0
C1136 C 0.57997 0.24594 0.74803 0.0
C1137 C 0.58121 0.22857 0.76234 0.0
C1138 C 0.57101 0.22323 0.7943 0.0
C1139 C 0.59249 0.25223 0.7177 0.0
C1140 C 0.59401 0.24273 0.68263 0.0
C1141 C 0.60321 0.26735 0.72369 0.0
C1142 C 0.60324 0.27724 0.76114 0.0
C1143 C 0.60709 0.26859 0.7966 0.0
C1144 C 0.60693 0.27796 0.83182 0.0
C1145 C 0.6031 0.29603 0.83191 0.0
C1146 C 0.59948 0.30477 0.79675 0.0
C1147 C 0.59959 0.29545 0.76145 0.0
H1148 H 0.60298 0.30326 0.8592 0.0
H1149 H 0.60939 0.20963 0.52128 0.0
H1150 H 0.24215 0.18076 0.12232 0.0
H1151 H 0.25258 0.15697 0.16455 0.0
H1152 H 0.21044 0.12336 0.12359 0.0
H1153 H 0.19982 0.14717 0.08088 0.0
H1154 H 0.21435 0.12434 0.20585 0.0
H1155 H 0.25039 0.1153 0.092 0.0
H1156 H 0.27061 0.12454 0.03926 0.0
H1157 H 0.30939 0.13994 0.12444 0.0
H1158 H 0.2893 0.13104 0.17775 0.0
H1159 H 0.24629 0.0515 0.31194 0.0
H1160 H 0.23644 0.06951 0.25709 0.0
H1161 H 0.28171 0.10357 0.27164 0.0
H1162 H 0.29245 0.08479 0.32459 0.0
H1163 H 0.27524 0.10025 0.19772 0.0
H1164 H 0.23977 0.11351 0.31041 0.0
H1165 H 0.22002 0.10689 0.36589 0.0
H1166 H 0.18093 0.08656 0.28666 0.0
H1167 H 0.20056 0.09285 0.23071 0.0
C1168 C 0.23504 0.16834 0.12221 0.0
C1169 C 0.2201 0.16589 0.09825 0.0
C1170 C 0.24112 0.15472 0.14619 0.0
C1171 C 0.23238 0.13839 0.14682 0.0
C1172 C 0.21739 0.13587 0.12327 0.0
C1173 C 0.21137 0.14947 0.09891 0.0
C1174 C 0.23866 0.12423 0.17325 0.0
C1175 C 0.22753 0.11876 0.20366 0.0
C1176 C 0.25605 0.11747 0.17094 0.0
C1177 C 0.26827 0.12261 0.13889 0.0
C1178 C 0.26318 0.12077 0.09951 0.0
C1179 C 0.27463 0.12593 0.06951 0.0
C1180 C 0.29126 0.13285 0.0785 0.0
C1181 C 0.2965 0.13458 0.11752 0.0
C1182 C 0.28509 0.12946 0.14764 0.0
C1183 C 0.25445 0.06253 0.30296 0.0
C1184 C 0.27013 0.06673 0.32311 0.0
C1185 C 0.24863 0.073 0.27185 0.0
C1186 C 0.25809 0.08816 0.26084 0.0
C1187 C 0.27409 0.09201 0.2798 0.0
C1188 C 0.2801 0.08137 0.31047 0.0
C1189 C 0.25098 0.10042 0.23074 0.0
C1190 C 0.26197 0.1056 0.19968 0.0
C1191 C 0.23355 0.10721 0.23287 0.0
C1192 C 0.22171 0.10346 0.26644 0.0
C1193 C 0.22701 0.10751 0.30485 0.0
C1194 C 0.21583 0.10383 0.33637 0.0
C1195 C 0.19925 0.09626 0.32981 0.0
C1196 C 0.19379 0.09239 0.2917 0.0
C1197 C 0.20493 0.09602 0.26007 0.0
H1198 H 0.19062 0.09342 0.35426 0.0
H1199 H 0.3001 0.13685 0.05523 0.0
H1200 H 0.21605 0.27834 0.05656 0.0
H1201 H 0.20993 0.30993 0.05404 0.0
H1202 H 0.20704 0.30766 0.92809 0.0
H1203 H 0.21338 0.27598 0.93015 0.0
H1204 H 0.22587 0.33602 0.95354 0.0
H1205 H 0.16968 0.30972 0.98094 0.0
H1206 H 0.14931 0.29 0.01653 0.0
H1207 H 0.15859 0.31895 0.12252 0.0
H1208 H 0.17925 0.33869 0.08772 0.0
H1209 H 0.19416 0.42299 0.93792 0.0
H1210 H 0.19372 0.3908 0.93286 0.0
H1211 H 0.19639 0.38653 0.05862 0.0
H1212 H 0.19609 0.41873 0.06402 0.0
H1213 H 0.17552 0.36103 0.02824 0.0
H1214 H 0.23366 0.38487 0.00379 0.0
H1215 H 0.25542 0.40389 0.97043 0.0
H1216 H 0.24327 0.37904 0.86076 0.0
H1217 H 0.22125 0.36003 0.89342 0.0
C1218 C 0.21421 0.28451 0.02824 0.0
C1219 C 0.21514 0.27456 0.99354 0.0
C1220 C 0.2106 0.30257 0.0269 0.0
C1221 C 0.20772 0.31104 0.99093 0.0
C1222 C 0.20912 0.30131 0.95616 0.0
C1223 C 0.21275 0.28322 0.95743 0.0
C1224 C 0.20337 0.33009 0.98977 0.0
C1225 C 0.21466 0.34147 0.96922 0.0
C1226 C 0.18894 0.33716 0.01093 0.0
C1227 C 0.17613 0.32562 0.03175 0.0
C1228 C 0.16745 0.31184 0.01189 0.0
C1229 C 0.15585 0.30065 0.03192 0.0
C1230 C 0.15268 0.3032 0.07178 0.0
C1231 C 0.16106 0.31699 0.09165 0.0
C1232 C 0.1727 0.3282 0.07177 0.0
C1233 C 0.19416 0.41523 0.96456 0.0
C1234 C 0.19538 0.42342 0.00139 0.0
C1235 C 0.19407 0.39683 0.96159 0.0
C1236 C 0.19538 0.3863 0.99533 0.0
C1237 C 0.19548 0.39441 0.0322 0.0
C1238 C 0.19548 0.41281 0.03522 0.0
C1239 C 0.19812 0.36697 0.99223 0.0
C1240 C 0.18656 0.35555 0.01208 0.0
C1241 C 0.21237 0.35982 0.97059 0.0
C1242 C 0.22567 0.37118 0.95096 0.0
C1243 C 0.23554 0.38356 0.97251 0.0
C1244 C 0.24793 0.39432 0.95374 0.0
C1245 C 0.25069 0.39272 0.91348 0.0
C1246 C 0.2411 0.3803 0.89193 0.0
C1247 C 0.22866 0.36952 0.91055 0.0
H1248 H 0.26029 0.40106 0.899 0.0
H1249 H 0.14373 0.2945 0.08726 0.0
H1250 H 0.21963 0.71101 0.56028 0.0
H1251 H 0.18793 0.70525 0.55684 0.0
H1252 H 0.18948 0.71057 0.43122 0.0
H1253 H 0.22119 0.71649 0.43425 0.0
H1254 H 0.16191 0.72842 0.46339 0.0
H1255 H 0.18694 0.67065 0.47139 0.0
H1256 H 0.20614 0.64748 0.49917 0.0
H1257 H 0.177 0.64912 0.60681 0.0
H1258 H 0.15791 0.67266 0.58008 0.0
H1259 H 0.07468 0.69862 0.43544 0.0
H1260 H 0.10693 0.69852 0.43165 0.0
H1261 H 0.11012 0.69406 0.55731 0.0
H1262 H 0.07785 0.69359 0.56126 0.0
H1263 H 0.1356 0.67416 0.52071 0.0
H1264 H 0.11295 0.7338 0.5151 0.0
H1265 H 0.09444 0.75786 0.48871 0.0
H1266 H 0.11957 0.75264 0.37673 0.0
H1267 H 0.13807 0.72836 0.40234 0.0
C1268 C 0.21326 0.71103 0.53189 0.0
C1269 C 0.22299 0.71421 0.49753 0.0
C1270 C 0.19515 0.70762 0.52998 0.0
C1271 C 0.18644 0.70726 0.49374 0.0
C1272 C 0.19601 0.71072 0.45946 0.0
C1273 C 0.21413 0.7141 0.46129 0.0
C1274 C 0.16727 0.70355 0.49173 0.0
C1275 C 0.15618 0.71641 0.47528 0.0
C1276 C 0.15984 0.688 0.50791 0.0
C1277 C 0.17107 0.67355 0.52381 0.0
C1278 C 0.18469 0.66617 0.50109 0.0
C1279 C 0.19555 0.65295 0.51663 0.0
C1280 C 0.19278 0.64682 0.55471 0.0
C1281 C 0.17913 0.65389 0.57731 0.0
C1282 C 0.16829 0.66718 0.56198 0.0
C1283 C 0.08223 0.69721 0.4622 0.0
C1284 C 0.07372 0.6963 0.4987 0.0
C1285 C 0.10066 0.69728 0.46 0.0
C1286 C 0.11089 0.69655 0.49425 0.0
C1287 C 0.10246 0.6947 0.53055 0.0
C1288 C 0.08403 0.69461 0.53278 0.0
C1289 C 0.13028 0.69909 0.4926 0.0
C1290 C 0.14138 0.68605 0.50843 0.0
C1291 C 0.13778 0.71448 0.47587 0.0
C1292 C 0.12675 0.72914 0.46051 0.0
C1293 C 0.11443 0.73769 0.48477 0.0
C1294 C 0.10396 0.75138 0.46997 0.0
C1295 C 0.10579 0.75674 0.43104 0.0
C1296 C 0.11814 0.74845 0.40686 0.0
C1297 C 0.12863 0.73473 0.4215 0.0
H1298 H 0.09767 0.76734 0.41963 0.0
H1299 H 0.20121 0.63659 0.56669 0.0
H1300 H 0.80517 0.72457 0.95086 0.0
H1301 H 0.8097 0.69258 0.95184 0.0
H1302 H 0.77171 0.68773 0.04548 0.0
H1303 H 0.76814 0.71986 0.04633 0.0
H1304 H 0.79678 0.66682 0.06 0.0
H1305 H 0.76282 0.67821 0.94347 0.0
H1306 H 0.75627 0.69216 0.87982 0.0
H1307 H 0.80377 0.67014 0.83156 0.0
H1308 H 0.81073 0.65624 0.89508 0.0
H1309 H 0.77007 0.57752 0.02922 0.0
H1310 H 0.77088 0.60972 0.02906 0.0
H1311 H 0.82141 0.60874 0.97113 0.0
H1312 H 0.82134 0.57642 0.97312 0.0
H1313 H 0.79259 0.63201 0.9374 0.0
H1314 H 0.82469 0.61913 0.05596 0.0
H1315 H 0.8292 0.60454 0.11976 0.0
H1316 H 0.78199 0.62884 0.16391 0.0
H1317 H 0.77705 0.64336 0.10013 0.0
C1318 C 0.7978 0.71662 0.97159 0.0
C1319 C 0.7862 0.72458 0.99834 0.0
C1320 C 0.80031 0.69834 0.97199 0.0
C1321 C 0.79074 0.68763 0.99808 0.0
C1322 C 0.77925 0.69566 0.02501 0.0
C1323 C 0.77714 0.71399 0.02543 0.0
C1324 C 0.79269 0.66809 0.99755 0.0
C1325 C 0.79566 0.65926 0.03316 0.0
C1326 C 0.79165 0.65813 0.96247 0.0
C1327 C 0.78739 0.66635 0.92415 0.0
C1328 C 0.77192 0.67643 0.91935 0.0
C1329 C 0.76813 0.68432 0.88328 0.0
C1330 C 0.77962 0.68208 0.85169 0.0
C1331 C 0.79489 0.67187 0.85605 0.0
C1332 C 0.79875 0.66398 0.89207 0.0
C1333 C 0.78156 0.58404 0.01711 0.0
C1334 C 0.7957 0.57425 0.00141 0.0
C1335 C 0.7819 0.60247 0.01675 0.0
C1336 C 0.79621 0.6115 0.00018 0.0
C1337 C 0.81023 0.60191 0.98394 0.0
C1338 C 0.81008 0.58345 0.98491 0.0
C1339 C 0.79635 0.63099 -0.00026 0.0
C1340 C 0.79379 0.63972 0.96402 0.0
C1341 C 0.79743 0.64084 0.03471 0.0
C1342 C 0.80042 0.63219 0.07314 0.0
C1343 C 0.81518 0.62123 0.07915 0.0
C1344 C 0.81783 0.613 0.11533 0.0
C1345 C 0.80586 0.61573 0.14584 0.0
C1346 C 0.79124 0.62673 0.14024 0.0
C1347 C 0.78852 0.63497 0.10409 0.0
H1348 H 0.80794 0.60935 0.17384 0.0
H1349 H 0.77667 0.68821 0.82381 0.0
H1350 H 0.77527 0.27972 0.56717 0.0
H1351 H 0.80735 0.28327 0.56816 0.0
H1352 H 0.80847 0.28112 0.44206 0.0
H1353 H 0.77649 0.27729 0.44067 0.0
H1354 H 0.83436 0.26148 0.47352 0.0
H1355 H 0.81162 0.32034 0.4899 0.0
H1356 H 0.79347 0.34345 0.52099 0.0
H1357 H 0.82103 0.33563 0.62954 0.0
H1358 H 0.83918 0.31228 0.59923 0.0
H1359 H 0.92024 0.2943 0.44142 0.0
H1360 H 0.88799 0.29236 0.44232 0.0
H1361 H 0.8886 0.29271 0.56854 0.0
H1362 H 0.92087 0.29508 0.56787 0.0
H1363 H 0.86192 0.3133 0.53829 0.0
H1364 H 0.88454 0.25449 0.52206 0.0
H1365 H 0.90252 0.23117 0.49129 0.0
H1366 H 0.87499 0.23884 0.38266 0.0
H1367 H 0.857 0.26241 0.41264 0.0
C1368 C 0.78232 0.27991 0.53962 0.0
C1369 C 0.77326 0.27828 0.50382 0.0
C1370 C 0.80065 0.28204 0.54026 0.0
C1371 C 0.81023 0.28271 0.50515 0.0
C1372 C 0.8013 0.28069 0.46947 0.0
C1373 C 0.783 0.27852 0.46877 0.0
C1374 C 0.82958 0.28552 0.50549 0.0
C1375 C 0.84037 0.27293 0.48723 0.0
C1376 C 0.8374 0.30026 0.52421 0.0
C1377 C 0.82664 0.31443 0.54239 0.0
C1378 C 0.81372 0.32346 0.52048 0.0
C1379 C 0.80345 0.33661 0.53795 0.0
C1380 C 0.80606 0.34097 0.57725 0.0
C1381 C 0.819 0.33222 0.59912 0.0
C1382 C 0.8293 0.31903 0.5818 0.0
C1383 C 0.91349 0.29428 0.46935 0.0
C1384 C 0.92307 0.29473 0.50459 0.0
C1385 C 0.89509 0.29302 0.46982 0.0
C1386 C 0.88597 0.29214 0.5055 0.0
C1387 C 0.89543 0.29329 0.54071 0.0
C1388 C 0.91384 0.29451 0.54028 0.0
C1389 C 0.86664 0.28933 0.50606 0.0
C1390 C 0.85587 0.30188 0.52455 0.0
C1391 C 0.85881 0.27455 0.48756 0.0
C1392 C 0.86955 0.26034 0.46949 0.0
C1393 C 0.88242 0.25131 0.49152 0.0
C1394 C 0.89259 0.23803 0.47424 0.0
C1395 C 0.88993 0.23356 0.43502 0.0
C1396 C 0.87705 0.24234 0.41302 0.0
C1397 C 0.86686 0.25565 0.43015 0.0
H1398 H 0.89782 0.22327 0.42169 0.0
H1399 H 0.79809 0.35115 0.59073 0.0
H1400 H 0.71937 0.21854 0.55895 0.0
H1401 H 0.71732 0.18638 0.55793 0.0
H1402 H 0.70202 0.18807 0.43632 0.0
H1403 H 0.70448 0.22026 0.43675 0.0
H1404 H 0.69178 0.16374 0.5456 0.0
H1405 H 0.71872 0.1525 0.38918 0.0
H1406 H 0.73868 0.16696 0.34189 0.0
H1407 H 0.76669 0.19188 0.4362 0.0
H1408 H 0.74705 0.17739 0.48404 0.0
H1409 H 0.67856 0.07395 0.49221 0.0
H1410 H 0.67903 0.1063 0.49317 0.0
H1411 H 0.73604 0.10546 0.49725 0.0
H1412 H 0.73562 0.07317 0.49561 0.0
H1413 H 0.72569 0.12939 0.44753 0.0
H1414 H 0.71063 0.11406 0.57938 0.0
H1415 H 0.69351 0.09953 0.63169 0.0
H1416 H 0.64688 0.12756 0.59572 0.0
H1417 H 0.66368 0.14207 0.54283 0.0
C1418 C 0.71552 0.21211 0.53196 0.0
C1419 C 0.71226 0.22199 0.49781 0.0
C1420 C 0.71431 0.1937 0.53149 0.0
C1421 C 0.70974 0.1848 0.49694 0.0
C1422 C 0.70591 0.19464 0.46312 0.0
C1423 C 0.70729 0.21305 0.46345 0.0
C1424 C 0.7094 0.16521 0.49622 0.0
C1425 C 0.69915 0.15623 0.52409 0.0
C1426 C 0.71927 0.15539 0.46862 0.0
C1427 C 0.73129 0.16401 0.44013 0.0
C1428 C 0.72918 0.16102 0.39981 0.0
C1429 C 0.74043 0.16923 0.37292 0.0
C1430 C 0.75391 0.18038 0.38603 0.0
C1431 C 0.75621 0.1833 0.42607 0.0
C1432 C 0.74501 0.1751 0.45308 0.0
C1433 C 0.69117 0.0807 0.49354 0.0
C1434 C 0.70706 0.07108 0.49387 0.0
C1435 C 0.69143 0.09916 0.4941 0.0
C1436 C 0.70757 0.10831 0.49567 0.0
C1437 C 0.72344 0.09869 0.49589 0.0
C1438 C 0.72319 0.08026 0.49494 0.0
C1439 C 0.708 0.1279 0.49682 0.0
C1440 C 0.71824 0.13689 0.46894 0.0
C1441 C 0.6985 0.1377 0.5251 0.0
C1442 C 0.68837 0.12901 0.5569 0.0
C1443 C 0.69669 0.11701 0.58244 0.0
C1444 C 0.68705 0.1088 0.61222 0.0
C1445 C 0.6691 0.11258 0.61696 0.0
C1446 C 0.66077 0.12462 0.59197 0.0
C1447 C 0.67035 0.13285 0.56211 0.0
H1448 H 0.66166 0.10621 0.64004 0.0
H1449 H 0.76259 0.18673 0.36516 0.0
H1450 H 0.27554 0.21498 0.06962 0.0
H1451 H 0.30762 0.21194 0.07283 0.0
H1452 H 0.31012 0.21038 0.94679 0.0
H1453 H 0.27808 0.21368 0.94314 0.0
H1454 H 0.33034 0.18692 0.04849 0.0
H1455 H 0.34668 0.23253 0.9172 0.0
H1456 H 0.33402 0.25833 0.88292 0.0
H1457 H 0.30694 0.27376 0.9878 0.0
H1458 H 0.31962 0.24822 0.02281 0.0
H1459 H 0.4213 0.17827 0.99417 0.0
H1460 H 0.3889 0.17896 0.99724 0.0
H1461 H 0.39091 0.23345 0.03444 0.0
H1462 H 0.42313 0.23291 0.02995 0.0
H1463 H 0.36812 0.23061 0.97974 0.0
H1464 H 0.38013 0.19807 0.09731 0.0
H1465 H 0.39267 0.17406 0.13755 0.0
H1466 H 0.36328 0.13577 0.07152 0.0
H1467 H 0.35076 0.15953 0.03049 0.0
C1468 C 0.28288 0.21401 0.04253 0.0
C1469 C 0.27421 0.21477 0.00609 0.0
C1470 C 0.30121 0.21216 0.04446 0.0
C1471 C 0.31123 0.2111 0.01007 0.0
C1472 C 0.30262 0.21143 0.97369 0.0
C1473 C 0.2843 0.21331 0.97168 0.0
C1474 C 0.33074 0.21021 0.0122 0.0
C1475 C 0.33865 0.19644 0.03347 0.0
C1476 C 0.34151 0.22283 0.99316 0.0
C1477 C 0.33395 0.23835 0.97246 0.0
C1478 C 0.33806 0.24147 0.93295 0.0
C1479 C 0.33088 0.25604 0.9134 0.0
C1480 C 0.31963 0.26764 0.93313 0.0
C1481 C 0.31559 0.26473 0.9725 0.0
C1482 C 0.32276 0.25019 0.9922 0.0
C1483 C 0.41474 0.19029 0.00339 0.0
C1484 C 0.42458 0.20557 0.01162 0.0
C1485 C 0.39628 0.19068 0.00527 0.0
C1486 C 0.38746 0.20625 0.01627 0.0
C1487 C 0.3974 0.22133 0.02563 0.0
C1488 C 0.41577 0.22102 0.02313 0.0
C1489 C 0.36788 0.20726 0.01602 0.0
C1490 C 0.3599 0.22104 0.99484 0.0
C1491 C 0.35711 0.19489 0.03598 0.0
C1492 C 0.36466 0.18057 0.06056 0.0
C1493 C 0.37646 0.18452 0.09115 0.0
C1494 C 0.38354 0.17095 0.11414 0.0
C1495 C 0.37881 0.1534 0.10702 0.0
C1496 C 0.36696 0.14937 0.07696 0.0
C1497 C 0.35986 0.16288 0.05384 0.0
H1498 H 0.3843 0.14291 0.12487 0.0
H1499 H 0.31408 0.27891 0.91793 0.0
H1500 H 0.27829 0.77774 0.56419 0.0
H1501 H 0.28293 0.80963 0.56451 0.0
H1502 H 0.29019 0.80912 0.43935 0.0
H1503 H 0.28575 0.77713 0.43865 0.0
H1504 H 0.3154 0.82876 0.47628 0.0
H1505 H 0.25218 0.82393 0.47728 0.0
H1506 H 0.22325 0.81346 0.50105 0.0
H1507 H 0.23296 0.83754 0.61272 0.0
H1508 H 0.26207 0.84795 0.58978 0.0
H1509 H 0.30446 0.92075 0.43918 0.0
H1510 H 0.30275 0.88849 0.44128 0.0
H1511 H 0.29533 0.89037 0.56636 0.0
H1512 H 0.29663 0.92268 0.56433 0.0
H1513 H 0.27077 0.86994 0.53079 0.0
H1514 H 0.33373 0.87564 0.5288 0.0
H1515 H 0.36256 0.88616 0.50462 0.0
H1516 H 0.35333 0.86058 0.3944 0.0
H1517 H 0.3243 0.85012 0.41773 0.0
C1518 C 0.2808 0.78437 0.53664 0.0
C1519 C 0.28158 0.77484 0.50135 0.0
C1520 C 0.28341 0.80262 0.53691 0.0
C1521 C 0.28677 0.81173 0.50192 0.0
C1522 C 0.28761 0.8023 0.46666 0.0
C1523 C 0.28497 0.78404 0.46633 0.0
C1524 C 0.28958 0.83108 0.50223 0.0
C1525 C 0.30557 0.83781 0.48772 0.0
C1526 C 0.2769 0.84278 0.51809 0.0
C1527 C 0.25939 0.83656 0.53194 0.0
C1528 C 0.24821 0.82687 0.50702 0.0
C1529 C 0.23177 0.82097 0.52032 0.0
C1530 C 0.22629 0.82479 0.5584 0.0
C1531 C 0.23723 0.83457 0.58324 0.0
C1532 C 0.2537 0.84048 0.5701 0.0
C1533 C 0.30257 0.91427 0.46714 0.0
C1534 C 0.30063 0.92422 0.50158 0.0
C1535 C 0.30174 0.89585 0.46835 0.0
C1536 C 0.299 0.88706 0.50401 0.0
C1537 C 0.29749 0.89693 0.53857 0.0
C1538 C 0.29838 0.91536 0.5374 0.0
C1539 C 0.2966 0.86765 0.50484 0.0
C1540 C 0.28066 0.8609 0.51949 0.0
C1541 C 0.30931 0.85596 0.48905 0.0
C1542 C 0.32675 0.86224 0.4749 0.0
C1543 C 0.33777 0.87239 0.49928 0.0
C1544 C 0.35416 0.87831 0.48575 0.0
C1545 C 0.35975 0.87408 0.44796 0.0
C1546 C 0.34897 0.86387 0.42365 0.0
C1547 C 0.33255 0.85793 0.43703 0.0
H1548 H 0.37245 0.87867 0.43755 0.0
H1549 H 0.21355 0.82022 0.56864 0.0
H1550 H 0.72411 0.78854 0.9326 0.0
H1551 H 0.69226 0.79371 0.93217 0.0
H1552 H 0.69018 0.78332 0.05626 0.0
H1553 H 0.72205 0.77852 0.05718 0.0
H1554 H 0.66581 0.77316 0.94718 0.0
H1555 H 0.65774 0.80783 0.09885 0.0
H1556 H 0.67456 0.82801 0.14161 0.0
H1557 H 0.70375 0.84705 0.04249 0.0
H1558 H 0.68691 0.82724 0.99904 0.0
H1559 H 0.57843 0.76534 0.01 0.0
H1560 H 0.61069 0.76565 0.00748 0.0
H1561 H 0.61004 0.82234 0.99339 0.0
H1562 H 0.57766 0.8221 0.99667 0.0
H1563 H 0.63589 0.81314 0.04111 0.0
H1564 H 0.61673 0.79537 0.9147 0.0
H1565 H 0.59987 0.7781 0.86624 0.0
H1566 H 0.62569 0.73058 0.90445 0.0
H1567 H 0.64253 0.74753 0.95356 0.0
C1568 C 0.71689 0.78731 0.95981 0.0
C1569 C 0.72566 0.78311 0.99494 0.0
C1570 C 0.69868 0.79031 0.95952 0.0
C1571 C 0.68888 0.78915 0.99427 0.0
C1572 C 0.69754 0.78467 0.02924 0.0
C1573 C 0.71575 0.7818 0.02964 0.0
C1574 C 0.6695 0.79197 0.99375 0.0
C1575 C 0.65929 0.78195 0.96764 0.0
C1576 C 0.66101 0.8038 0.01977 0.0
C1577 C 0.67115 0.81588 0.04572 0.0
C1578 C 0.66769 0.81637 0.08614 0.0
C1579 C 0.67724 0.82774 0.11051 0.0
C1580 C 0.69026 0.83875 0.0948 0.0
C1581 C 0.69371 0.83846 0.05465 0.0
C1582 C 0.68418 0.82714 0.03014 0.0
C1583 C 0.58518 0.77786 0.00631 0.0
C1584 C 0.57558 0.79368 0.00313 0.0
C1585 C 0.60359 0.77803 0.00485 0.0
C1586 C 0.61276 0.79398 0.9995 0.0
C1587 C 0.60323 0.80988 0.99743 0.0
C1588 C 0.58477 0.80973 0.9993 0.0
C1589 C 0.63226 0.79391 0.99538 0.0
C1590 C 0.64246 0.80444 0.02056 0.0
C1591 C 0.64081 0.78297 0.96768 0.0
C1592 C 0.63079 0.77271 0.93802 0.0
C1593 C 0.61873 0.78122 0.91295 0.0
C1594 C 0.60918 0.77149 0.88534 0.0
C1595 C 0.61168 0.75325 0.88232 0.0
C1596 C 0.62376 0.74471 0.90685 0.0
C1597 C 0.63332 0.75437 0.93455 0.0
H1598 H 0.60428 0.74574 0.86093 0.0
H1599 H 0.69763 0.84754 0.11373 0.0
loop_
_geom_bond_atom_site_label_1
_geom_bond_atom_site_label_2
_geom_bond_distance
_geom_bond_site_symmetry_2
_ccdc_geom_bond_type
Sc0 O3 2.033 . S
Sc0 O10 2.105 . S
Sc0 O13 2.105 . S
Sc0 O16 2.105 . S
Sc0 O19 2.105 . S
Sc1 O3 2.025 . S
Sc1 O11 2.111 . S
Sc1 O15 2.099 1_554 S
Sc1 O17 2.111 . S
Sc1 O21 2.099 1_554 S
Sc2 O3 2.018 1_556 S
Sc2 O12 2.105 . S
Sc2 O14 2.105 . S
Sc2 O18 2.105 . S
Sc2 O20 2.105 . S
O3 Sc0 2.033 . S
O3 Sc1 2.025 . S
O3 Sc2 2.018 1_554 S
C4 O10 1.274 . S
C4 O20 1.262 1_554 S
C5 O11 1.268 . S
C5 O19 1.268 . S
C6 O12 1.268 . S
C6 O21 1.268 . S
C7 O13 1.268 . S
C7 O17 1.268 . S
C8 O14 1.258 1_554 S
C8 O16 1.278 . S
C9 O15 1.268 . S
C9 O18 1.268 . S
O10 Sc0 2.105 . S
O10 C4 1.274 . S
O11 Sc1 2.111 . S
O11 C5 1.268 . S
O12 Sc2 2.105 . S
O12 C6 1.268 . S
O13 Sc0 2.105 . S
O13 C7 1.268 . S
O14 Sc2 2.105 . S
O14 C8 1.258 1_556 S
O15 Sc1 2.099 1_556 S
O15 C9 1.268 . S
O16 Sc0 2.105 . S
O16 C8 1.278 . S
O17 Sc1 2.111 . S
O17 C7 1.268 . S
O18 Sc2 2.105 . S
O18 C9 1.268 . S
O19 Sc0 2.105 . S
O19 C5 1.268 . S
O20 Sc2 2.105 . S
O20 C4 1.262 1_556 S
O21 Sc1 2.099 1_556 S
O21 C6 1.268 . S
Sc22 O25 2.025 . S
Sc22 O32 2.105 . S
Sc22 O35 2.105 . S
Sc22 O38 2.105 . S
Sc22 O41 2.105 . S
Sc23 O25 2.025 . S
Sc23 O33 2.105 . S
Sc23 O37 2.105 . S
Sc23 O39 2.105 . S
Sc23 O43 2.105 . S
Sc24 O25 2.025 . S
Sc24 O34 2.105 . S
Sc24 O36 2.105 . S
Sc24 O40 2.105 . S
Sc24 O42 2.105 . S
O25 Sc22 2.025 . S
O25 Sc23 2.025 . S
O25 Sc24 2.025 . S
C26 O32 1.268 . S
C26 O42 1.268 . S
C27 O33 1.268 . S
C27 O41 1.268 . S
C28 O34 1.268 . S
C28 O43 1.268 . S
C29 O35 1.268 . S
C29 O39 1.268 . S
C30 O36 1.268 . S
C30 O38 1.268 . S
C31 O37 1.268 . S
C31 O40 1.268 . S
O32 Sc22 2.105 . S
O32 C26 1.268 . S
O33 Sc23 2.105 . S
O33 C27 1.268 . S
O34 Sc24 2.105 . S
O34 C28 1.268 . S
O35 Sc22 2.105 . S
O35 C29 1.268 . S
O36 Sc24 2.105 . S
O36 C30 1.268 . S
O37 Sc23 2.105 . S
O37 C31 1.268 . S
O38 Sc22 2.105 . S
O38 C30 1.268 . S
O39 Sc23 2.105 . S
O39 C29 1.268 . S
O40 Sc24 2.105 . S
O40 C31 1.268 . S
O41 Sc22 2.105 . S
O41 C27 1.268 . S
O42 Sc24 2.105 . S
O42 C26 1.268 . S
O43 Sc23 2.105 . S
O43 C28 1.268 . S
Sc44 O47 2.018 1_556 S
Sc44 O54 2.105 . S
Sc44 O57 2.105 . S
Sc44 O60 2.105 . S
Sc44 O63 2.105 . S
Sc45 O47 2.025 . S
Sc45 O55 2.099 1_554 S
Sc45 O59 2.111 . S
Sc45 O61 2.099 1_554 S
Sc45 O65 2.111 . S
Sc46 O47 2.033 . S
Sc46 O56 2.105 . S
Sc46 O58 2.105 . S
Sc46 O62 2.105 . S
Sc46 O64 2.105 . S
O47 Sc44 2.018 1_554 S
O47 Sc45 2.025 . S
O47 Sc46 2.033 . S
C48 O54 1.262 1_554 S
C48 O64 1.274 . S
C49 O55 1.268 . S
C49 O63 1.268 . S
C50 O56 1.268 . S
C50 O65 1.268 . S
C51 O57 1.268 . S
C51 O61 1.268 . S
C52 O58 1.278 . S
C52 O60 1.258 1_554 S
C53 O59 1.268 . S
C53 O62 1.268 . S
O54 Sc44 2.105 . S
O54 C48 1.262 1_556 S
O55 Sc45 2.099 1_556 S
O55 C49 1.268 . S
O56 Sc46 2.105 . S
O56 C50 1.268 . S
O57 Sc44 2.105 . S
O57 C51 1.268 . S
O58 Sc46 2.105 . S
O58 C52 1.278 . S
O59 Sc45 2.111 . S
O59 C53 1.268 . S
O60 Sc44 2.105 . S
O60 C52 1.258 1_556 S
O61 Sc45 2.099 1_556 S
O61 C51 1.268 . S
O62 Sc46 2.105 . S
O62 C53 1.268 . S
O63 Sc44 2.105 . S
O63 C49 1.268 . S
O64 Sc46 2.105 . S
O64 C48 1.274 . S
O65 Sc45 2.111 . S
O65 C50 1.268 . S
Sc66 O69 2.025 . S
Sc66 O76 2.105 . S
Sc66 O79 2.105 . S
Sc66 O82 2.105 . S
Sc66 O85 2.105 . S
Sc67 O69 2.025 . S
Sc67 O77 2.105 . S
Sc67 O81 2.105 . S
Sc67 O83 2.105 . S
Sc67 O87 2.105 . S
Sc68 O69 2.025 . S
Sc68 O78 2.105 . S
Sc68 O80 2.105 . S
Sc68 O84 2.105 . S
Sc68 O86 2.105 . S
O69 Sc66 2.025 . S
O69 Sc67 2.025 . S
O69 Sc68 2.025 . S
C70 O76 1.268 . S
C70 O86 1.268 . S
C71 O77 1.268 . S
C71 O85 1.268 . S
C72 O78 1.268 . S
C72 O87 1.268 . S
C73 O79 1.268 . S
C73 O83 1.268 . S
C74 O80 1.268 . S
C74 O82 1.268 . S
C75 O81 1.268 . S
C75 O84 1.268 . S
O76 Sc66 2.105 . S
O76 C70 1.268 . S
O77 Sc67 2.105 . S
O77 C71 1.268 . S
O78 Sc68 2.105 . S
O78 C72 1.268 . S
O79 Sc66 2.105 . S
O79 C73 1.268 . S
O80 Sc68 2.105 . S
O80 C74 1.268 . S
O81 Sc67 2.105 . S
O81 C75 1.268 . S
O82 Sc66 2.105 . S
O82 C74 1.268 . S
O83 Sc67 2.105 . S
O83 C73 1.268 . S
O84 Sc68 2.105 . S
O84 C75 1.268 . S
O85 Sc66 2.105 . S
O85 C71 1.268 . S
O86 Sc68 2.105 . S
O86 C70 1.268 . S
O87 Sc67 2.105 . S
O87 C72 1.268 . S
C88 C89 1.386 . S
C88 C90 1.397 . S
C88 H112 0.931 . S
C89 C88 1.386 . S
C89 C93 1.397 . S
C90 C88 1.397 . S
C90 C91 1.384 . S
C90 H113 0.930 . S
C91 C90 1.384 . S
C91 C92 1.377 . S
C91 C94 1.481 . S
C92 C91 1.377 . S
C92 C93 1.389 . S
C92 H114 0.929 . S
C93 C89 1.397 . S
C93 C92 1.389 . S
C93 H115 0.931 . S
C94 C91 1.481 . S
C94 C95 1.387 . S
C94 C99 1.390 1_556 S
C95 C94 1.387 . S
C95 C96 1.401 1_556 S
C95 H116 0.930 . S
C96 C95 1.401 1_554 S
C96 C97 1.376 . S
C96 C105 1.511 . S
C97 C96 1.376 . S
C97 C98 1.392 . S
C97 H118 0.931 . S
C98 C97 1.392 . S
C98 C99 1.361 . S
C98 C100 1.500 . S
C99 C94 1.390 1_554 S
C99 C98 1.361 . S
C99 H117 0.932 . S
C100 C98 1.500 . S
C100 C101 1.371 . S
C100 C102 1.365 . S
C101 C100 1.371 . S
C101 C111 1.386 . S
C101 H119 0.931 . S
C102 C100 1.365 . S
C102 C103 1.409 . S
C102 H120 0.929 . S
C103 C102 1.409 . S
C103 C104 1.380 . S
C103 H121 0.930 . S
C104 C103 1.380 . S
C104 C111 1.357 . S
C105 C96 1.511 . S
C105 C106 1.341 1_554 S
C105 C107 1.371 . S
C106 C105 1.341 1_556 S
C106 C110 1.394 . S
C106 H122 0.930 . S
C107 C105 1.371 . S
C107 C108 1.392 . S
C107 H123 0.931 . S
C108 C107 1.392 . S
C108 C109 1.351 . S
C108 H126 0.932 . S
C109 C108 1.351 . S
C109 C110 1.317 1_554 S
C110 C106 1.394 . S
C110 C109 1.317 1_556 S
C110 H125 0.929 . S
C111 C101 1.386 . S
C111 C104 1.357 . S
C111 H124 0.928 . S
H112 C88 0.931 . S
H113 C90 0.930 . S
H114 C92 0.929 . S
H115 C93 0.931 . S
H116 C95 0.930 . S
H117 C99 0.932 . S
H118 C97 0.931 . S
H119 C101 0.931 . S
H120 C102 0.929 . S
H121 C103 0.930 . S
H122 C106 0.930 . S
H123 C107 0.931 . S
H124 C111 0.928 . S
H125 C110 0.929 . S
H126 C108 0.932 . S
C127 C128 1.386 . S
C127 C129 1.397 . S
C127 H151 0.931 . S
C128 C127 1.386 . S
C128 C132 1.397 . S
C129 C127 1.397 . S
C129 C130 1.384 . S
C129 H152 0.930 . S
C130 C129 1.384 . S
C130 C131 1.377 . S
C130 C133 1.481 . S
C131 C130 1.377 . S
C131 C132 1.389 . S
C131 H153 0.929 . S
C132 C128 1.397 . S
C132 C131 1.389 . S
C132 H154 0.931 . S
C133 C130 1.481 . S
C133 C134 1.387 . S
C133 C138 1.390 . S
C134 C133 1.387 . S
C134 C135 1.435 . S
C134 H155 0.930 . S
C135 C134 1.435 . S
C135 C136 1.412 . S
C135 C144 1.446 1_655 S
C136 C135 1.412 . S
C136 C137 1.392 . S
C136 H157 0.931 . S
C137 C136 1.392 . S
C137 C138 1.361 . S
C137 C139 1.500 . S
C138 C133 1.390 . S
C138 C137 1.361 . S
C138 H156 0.931 . S
C139 C137 1.500 . S
C139 C140 1.371 . S
C139 C141 1.365 . S
C140 C139 1.371 . S
C140 C150 1.386 . S
C140 H158 0.931 . S
C141 C139 1.365 . S
C141 C142 1.409 . S
C141 H159 0.929 . S
C142 C141 1.409 . S
C142 C143 1.380 . S
C142 H160 0.930 . S
C143 C142 1.380 . S
C143 C150 1.357 . S
C144 C135 1.446 1_455 S
C144 C145 1.341 . S
C144 C146 1.371 . S
C145 C144 1.341 . S
C145 C149 1.394 . S
C145 H161 0.930 . S
C146 C144 1.371 . S
C146 C147 1.392 . S
C146 H162 0.931 . S
C147 C146 1.392 . S
C147 C148 1.331 . S
C147 H165 0.932 . S
C148 C147 1.331 . S
C148 C149 1.336 . S
C149 C145 1.394 . S
C149 C148 1.336 . S
C149 H164 0.929 . S
C150 C140 1.386 . S
C150 C143 1.357 . S
C150 H163 0.928 . S
H151 C127 0.931 . S
H152 C129 0.930 . S
H153 C131 0.929 . S
H154 C132 0.931 . S
H155 C134 0.930 . S
H156 C138 0.931 . S
H157 C136 0.931 . S
H158 C140 0.931 . S
H159 C141 0.929 . S
H160 C142 0.930 . S
H161 C145 0.930 . S
H162 C146 0.931 . S
H163 C150 0.928 . S
H164 C149 0.929 . S
H165 C147 0.932 . S
C166 C167 1.386 . S
C166 C168 1.397 . S
C166 H190 0.931 . S
C167 C166 1.386 . S
C167 C171 1.397 . S
C168 C166 1.397 . S
C168 C169 1.384 . S
C168 H191 0.930 . S
C169 C168 1.384 . S
C169 C170 1.377 . S
C169 C172 1.481 . S
C170 C169 1.377 . S
C170 C171 1.389 . S
C170 H192 0.929 . S
C171 C167 1.397 . S
C171 C170 1.389 . S
C171 H193 0.931 . S
C172 C169 1.481 . S
C172 C173 1.387 . S
C172 C177 1.384 1_554 S
C173 C172 1.387 . S
C173 C174 1.401 1_554 S
C173 H194 0.930 . S
C174 C173 1.401 1_556 S
C174 C175 1.376 . S
C174 C183 1.511 . S
C175 C174 1.376 . S
C175 C176 1.392 . S
C175 H196 0.931 . S
C176 C175 1.392 . S
C176 C177 1.367 . S
C176 C178 1.500 . S
C177 C172 1.384 1_556 S
C177 C176 1.367 . S
C177 H195 0.931 . S
C178 C176 1.500 . S
C178 C179 1.371 . S
C178 C180 1.365 . S
C179 C178 1.371 . S
C179 C189 1.386 . S
C179 H197 0.931 . S
C180 C178 1.365 . S
C180 C181 1.409 . S
C180 H198 0.929 . S
C181 C180 1.409 . S
C181 C182 1.380 . S
C181 H199 0.930 . S
C182 C181 1.380 . S
C182 C189 1.357 . S
C183 C174 1.511 . S
C183 C184 1.316 1_556 S
C183 C185 1.395 . S
C184 C183 1.316 1_554 S
C184 C188 1.394 . S
C184 H200 0.930 . S
C185 C183 1.395 . S
C185 C186 1.392 . S
C185 H201 0.931 . S
C186 C185 1.392 . S
C186 C187 1.330 . S
C186 H204 0.932 . S
C187 C186 1.330 . S
C187 C188 1.337 1_556 S
C188 C184 1.394 . S
C188 C187 1.337 1_554 S
C188 H203 0.929 . S
C189 C179 1.386 . S
C189 C182 1.357 . S
C189 H202 0.928 . S
H190 C166 0.931 . S
H191 C168 0.930 . S
H192 C170 0.929 . S
H193 C171 0.931 . S
H194 C173 0.930 . S
H195 C177 0.931 . S
H196 C175 0.931 . S
H197 C179 0.931 . S
H198 C180 0.929 . S
H199 C181 0.930 . S
H200 C184 0.930 . S
H201 C185 0.931 . S
H202 C189 0.928 . S
H203 C188 0.929 . S
H204 C186 0.932 . S
C205 C206 1.386 . S
C205 C207 1.397 . S
C205 H229 0.931 . S
C206 C205 1.386 . S
C206 C210 1.397 . S
C207 C205 1.397 . S
C207 C208 1.384 . S
C207 H230 0.930 . S
C208 C207 1.384 . S
C208 C209 1.377 . S
C208 C211 1.481 . S
C209 C208 1.377 . S
C209 C210 1.389 . S
C209 H231 0.929 . S
C210 C206 1.397 . S
C210 C209 1.389 . S
C210 H232 0.931 . S
C211 C208 1.481 . S
C211 C212 1.387 . S
C211 C216 1.390 . S
C212 C211 1.387 . S
C212 C213 1.430 . S
C212 H233 0.930 . S
C213 C212 1.430 . S
C213 C214 1.406 . S
C213 C222 1.455 1_455 S
C214 C213 1.406 . S
C214 C215 1.392 . S
C214 H235 0.931 . S
C215 C214 1.392 . S
C215 C216 1.361 . S
C215 C217 1.500 . S
C216 C211 1.390 . S
C216 C215 1.361 . S
C216 H234 0.931 . S
C217 C215 1.500 . S
C217 C218 1.371 . S
C217 C219 1.365 . S
C218 C217 1.371 . S
C218 C228 1.386 . S
C218 H236 0.931 . S
C219 C217 1.365 . S
C219 C220 1.409 . S
C219 H237 0.929 . S
C220 C219 1.409 . S
C220 C221 1.380 . S
C220 H238 0.930 . S
C221 C220 1.380 . S
C221 C228 1.357 . S
C222 C213 1.455 1_655 S
C222 C223 1.341 . S
C222 C224 1.371 . S
C223 C222 1.341 . S
C223 C227 1.394 . S
C223 H239 0.930 . S
C224 C222 1.371 . S
C224 C225 1.392 . S
C224 H240 0.931 . S
C225 C224 1.392 . S
C225 C226 1.331 . S
C225 H243 0.932 . S
C226 C225 1.331 . S
C226 C227 1.336 . S
C227 C223 1.394 . S
C227 C226 1.336 . S
C227 H242 0.929 . S
C228 C218 1.386 . S
C228 C221 1.357 . S
C228 H241 0.928 . S
H229 C205 0.931 . S
H230 C207 0.930 . S
H231 C209 0.929 . S
H232 C210 0.931 . S
H233 C212 0.930 . S
H234 C216 0.931 . S
H235 C214 0.931 . S
H236 C218 0.931 . S
H237 C219 0.929 . S
H238 C220 0.930 . S
H239 C223 0.930 . S
H240 C224 0.931 . S
H241 C228 0.928 . S
H242 C227 0.929 . S
H243 C225 0.932 . S
C244 C245 1.386 . S
C244 C246 1.397 . S
C244 H268 0.931 . S
C245 C244 1.386 . S
C245 C249 1.397 . S
C246 C244 1.397 . S
C246 C247 1.384 . S
C246 H269 0.930 . S
C247 C246 1.384 . S
C247 C248 1.377 . S
C247 C250 1.481 . S
C248 C247 1.377 . S
C248 C249 1.389 . S
C248 H270 0.929 . S
C249 C245 1.397 . S
C249 C248 1.389 . S
C249 H271 0.931 . S
C250 C247 1.481 . S
C250 C251 1.387 . S
C250 C255 1.390 . S
C251 C250 1.387 . S
C251 C252 1.435 . S
C251 H272 0.930 . S
C252 C251 1.435 . S
C252 C253 1.412 . S
C252 C261 1.446 1_565 S
C253 C252 1.412 . S
C253 C254 1.392 . S
C253 H274 0.931 . S
C254 C253 1.392 . S
C254 C255 1.361 . S
C254 C256 1.500 . S
C255 C250 1.390 . S
C255 C254 1.361 . S
C255 H273 0.931 . S
C256 C254 1.500 . S
C256 C257 1.371 . S
C256 C258 1.365 . S
C257 C256 1.371 . S
C257 C267 1.386 . S
C257 H275 0.931 . S
C258 C256 1.365 . S
C258 C259 1.409 . S
C258 H276 0.929 . S
C259 C258 1.409 . S
C259 C260 1.380 . S
C259 H277 0.930 . S
C260 C259 1.380 . S
C260 C267 1.357 . S
C261 C252 1.446 1_545 S
C261 C262 1.341 . S
C261 C263 1.371 . S
C262 C261 1.341 . S
C262 C266 1.394 . S
C262 H278 0.930 . S
C263 C261 1.371 . S
C263 C264 1.392 . S
C263 H279 0.931 . S
C264 C263 1.392 . S
C264 C265 1.331 . S
C264 H282 0.932 . S
C265 C264 1.331 . S
C265 C266 1.336 . S
C266 C262 1.394 . S
C266 C265 1.336 . S
C266 H281 0.929 . S
C267 C257 1.386 . S
C267 C260 1.357 . S
C267 H280 0.928 . S
H268 C244 0.931 . S
H269 C246 0.930 . S
H270 C248 0.929 . S
H271 C249 0.931 . S
H272 C251 0.930 . S
H273 C255 0.931 . S
H274 C253 0.931 . S
H275 C257 0.931 . S
H276 C258 0.929 . S
H277 C259 0.930 . S
H278 C262 0.930 . S
H279 C263 0.931 . S
H280 C267 0.928 . S
H281 C266 0.929 . S
H282 C264 0.932 . S
C283 C284 1.386 . S
C283 C285 1.397 . S
C283 H307 0.931 . S
C284 C283 1.386 . S
C284 C288 1.397 . S
C285 C283 1.397 . S
C285 C286 1.384 . S
C285 H308 0.930 . S
C286 C285 1.384 . S
C286 C287 1.377 . S
C286 C289 1.481 . S
C287 C286 1.377 . S
C287 C288 1.389 . S
C287 H309 0.929 . S
C288 C284 1.397 . S
C288 C287 1.389 . S
C288 H310 0.931 . S
C289 C286 1.481 . S
C289 C290 1.387 . S
C289 C294 1.384 1_554 S
C290 C289 1.387 . S
C290 C291 1.401 1_554 S
C290 H311 0.930 . S
C291 C290 1.401 1_556 S
C291 C292 1.376 . S
C291 C300 1.511 . S
C292 C291 1.376 . S
C292 C293 1.392 . S
C292 H313 0.931 . S
C293 C292 1.392 . S
C293 C294 1.367 . S
C293 C295 1.500 . S
C294 C289 1.384 1_556 S
C294 C293 1.367 . S
C294 H312 0.931 . S
C295 C293 1.500 . S
C295 C296 1.371 . S
C295 C297 1.365 . S
C296 C295 1.371 . S
C296 C306 1.386 . S
C296 H314 0.931 . S
C297 C295 1.365 . S
C297 C298 1.409 . S
C297 H315 0.929 . S
C298 C297 1.409 . S
C298 C299 1.380 . S
C298 H316 0.930 . S
C299 C298 1.380 . S
C299 C306 1.357 . S
C300 C291 1.511 . S
C300 C301 1.316 1_556 S
C300 C302 1.395 . S
C301 C300 1.316 1_554 S
C301 C305 1.394 . S
C301 H317 0.930 . S
C302 C300 1.395 . S
C302 C303 1.392 . S
C302 H318 0.931 . S
C303 C302 1.392 . S
C303 C304 1.330 . S
C303 H321 0.932 . S
C304 C303 1.330 . S
C304 C305 1.337 1_556 S
C305 C301 1.394 . S
C305 C304 1.337 1_554 S
C305 H320 0.929 . S
C306 C296 1.386 . S
C306 C299 1.357 . S
C306 H319 0.928 . S
H307 C283 0.931 . S
H308 C285 0.930 . S
H309 C287 0.929 . S
H310 C288 0.931 . S
H311 C290 0.930 . S
H312 C294 0.931 . S
H313 C292 0.931 . S
H314 C296 0.931 . S
H315 C297 0.929 . S
H316 C298 0.930 . S
H317 C301 0.930 . S
H318 C302 0.931 . S
H319 C306 0.928 . S
H320 C305 0.929 . S
H321 C303 0.932 . S
C322 C323 1.386 . S
C322 C324 1.397 . S
C322 H346 0.931 . S
C323 C322 1.386 . S
C323 C327 1.397 . S
C324 C322 1.397 . S
C324 C325 1.384 . S
C324 H347 0.930 . S
C325 C324 1.384 . S
C325 C326 1.377 . S
C325 C328 1.481 . S
C326 C325 1.377 . S
C326 C327 1.389 . S
C326 H348 0.929 . S
C327 C323 1.397 . S
C327 C326 1.389 . S
C327 H349 0.931 . S
C328 C325 1.481 . S
C328 C329 1.387 . S
C328 C333 1.390 . S
C329 C328 1.387 . S
C329 C330 1.430 . S
C329 H350 0.930 . S
C330 C329 1.430 . S
C330 C331 1.406 . S
C330 C339 1.455 1_545 S
C331 C330 1.406 . S
C331 C332 1.392 . S
C331 H352 0.931 . S
C332 C331 1.392 . S
C332 C333 1.361 . S
C332 C334 1.500 . S
C333 C328 1.390 . S
C333 C332 1.361 . S
C333 H351 0.931 . S
C334 C332 1.500 . S
C334 C335 1.371 . S
C334 C336 1.365 . S
C335 C334 1.371 . S
C335 C345 1.386 . S
C335 H353 0.931 . S
C336 C334 1.365 . S
C336 C337 1.409 . S
C336 H354 0.929 . S
C337 C336 1.409 . S
C337 C338 1.380 . S
C337 H355 0.930 . S
C338 C337 1.380 . S
C338 C345 1.357 . S
C339 C330 1.455 1_565 S
C339 C340 1.341 . S
C339 C341 1.371 . S
C340 C339 1.341 . S
C340 C344 1.394 . S
C340 H356 0.930 . S
C341 C339 1.371 . S
C341 C342 1.392 . S
C341 H357 0.931 . S
C342 C341 1.392 . S
C342 C343 1.331 . S
C342 H360 0.932 . S
C343 C342 1.331 . S
C343 C344 1.336 . S
C344 C340 1.394 . S
C344 C343 1.336 . S
C344 H359 0.929 . S
C345 C335 1.386 . S
C345 C338 1.357 . S
C345 H358 0.928 . S
H346 C322 0.931 . S
H347 C324 0.930 . S
H348 C326 0.929 . S
H349 C327 0.931 . S
H350 C329 0.930 . S
H351 C333 0.931 . S
H352 C331 0.931 . S
H353 C335 0.931 . S
H354 C336 0.929 . S
H355 C337 0.930 . S
H356 C340 0.930 . S
H357 C341 0.931 . S
H358 C345 0.928 . S
H359 C344 0.929 . S
H360 C342 0.932 . S
C361 C362 1.386 . S
C361 C363 1.397 . S
C361 H385 0.931 . S
C362 C361 1.386 . S
C362 C366 1.397 . S
C363 C361 1.397 . S
C363 C364 1.384 . S
C363 H386 0.930 . S
C364 C363 1.384 . S
C364 C365 1.377 . S
C364 C367 1.481 . S
C365 C364 1.377 . S
C365 C366 1.389 . S
C365 H387 0.929 . S
C366 C362 1.397 . S
C366 C365 1.389 . S
C366 H388 0.931 . S
C367 C364 1.481 . S
C367 C368 1.387 . S
C367 C372 1.390 1_556 S
C368 C367 1.387 . S
C368 C369 1.401 1_556 S
C368 H389 0.930 . S
C369 C368 1.401 1_554 S
C369 C370 1.376 . S
C369 C378 1.511 . S
C370 C369 1.376 . S
C370 C371 1.392 . S
C370 H391 0.931 . S
C371 C370 1.392 . S
C371 C372 1.361 . S
C371 C373 1.500 . S
C372 C367 1.390 1_554 S
C372 C371 1.361 . S
C372 H390 0.932 . S
C373 C371 1.500 . S
C373 C374 1.371 . S
C373 C375 1.365 . S
C374 C373 1.371 . S
C374 C384 1.386 . S
C374 H392 0.931 . S
C375 C373 1.365 . S
C375 C376 1.409 . S
C375 H393 0.929 . S
C376 C375 1.409 . S
C376 C377 1.380 . S
C376 H394 0.930 . S
C377 C376 1.380 . S
C377 C384 1.357 . S
C378 C369 1.511 . S
C378 C379 1.341 1_554 S
C378 C380 1.371 . S
C379 C378 1.341 1_556 S
C379 C383 1.394 . S
C379 H395 0.930 . S
C380 C378 1.371 . S
C380 C381 1.392 . S
C380 H396 0.931 . S
C381 C380 1.392 . S
C381 C382 1.351 . S
C381 H399 0.932 . S
C382 C381 1.351 . S
C382 C383 1.317 1_554 S
C383 C379 1.394 . S
C383 C382 1.317 1_556 S
C383 H398 0.929 . S
C384 C374 1.386 . S
C384 C377 1.357 . S
C384 H397 0.928 . S
H385 C361 0.931 . S
H386 C363 0.930 . S
H387 C365 0.929 . S
H388 C366 0.931 . S
H389 C368 0.930 . S
H390 C372 0.932 . S
H391 C370 0.931 . S
H392 C374 0.931 . S
H393 C375 0.929 . S
H394 C376 0.930 . S
H395 C379 0.930 . S
H396 C380 0.931 . S
H397 C384 0.928 . S
H398 C383 0.929 . S
H399 C381 0.932 . S
H400 C418 0.951 . S
H401 C420 0.951 . S
H402 C422 0.950 . S
H403 C423 0.950 . S
H404 C425 0.950 . S
H405 C428 0.950 . S
H406 C429 0.950 . S
H407 C431 0.950 . S
H408 C432 0.950 . S
H409 C433 0.951 . S
H410 C435 0.951 . S
H411 C437 0.950 . S
H412 C438 0.950 . S
H413 C440 0.950 . S
H414 C443 0.950 . S
H415 C444 0.950 . S
H416 C446 0.950 . S
H417 C447 0.950 . S
C418 H400 0.951 . S
C418 C419 1.366 . S
C418 C420 1.388 . S
C419 C418 1.366 . S
C419 C423 1.385 . S
C420 H401 0.951 . S
C420 C418 1.388 . S
C420 C421 1.366 . S
C421 C420 1.366 . S
C421 C422 1.414 . S
C421 C424 1.499 . S
C422 H402 0.950 . S
C422 C421 1.414 . S
C422 C423 1.374 . S
C423 H403 0.950 . S
C423 C419 1.385 . S
C423 C422 1.374 . S
C424 C421 1.499 . S
C424 C425 1.373 . S
C424 C426 1.389 . S
C425 H404 0.950 . S
C425 C424 1.373 . S
C425 C441 1.377 . S
C426 C424 1.389 . S
C426 C427 1.524 . S
C426 C440 1.377 . S
C427 C426 1.524 . S
C427 C428 1.397 . S
C427 C432 1.363 . S
C428 H405 0.950 . S
C428 C427 1.397 . S
C428 C429 1.334 . S
C429 H406 0.950 . S
C429 C428 1.334 . S
C429 C430 1.287 . S
C430 C429 1.287 . S
C430 C431 1.524 . S
C430 H449 0.913 . S
C431 H407 0.950 . S
C431 C430 1.524 . S
C431 C432 1.415 . S
C432 H408 0.950 . S
C432 C427 1.363 . S
C432 C431 1.415 . S
C433 H409 0.951 . S
C433 C434 1.366 . S
C433 C435 1.388 . S
C434 C433 1.366 . S
C434 C438 1.385 . S
C435 H410 0.951 . S
C435 C433 1.388 . S
C435 C436 1.366 . S
C436 C435 1.366 . S
C436 C437 1.414 . S
C436 C439 1.499 . S
C437 H411 0.950 . S
C437 C436 1.414 . S
C437 C438 1.374 . S
C438 H412 0.950 . S
C438 C434 1.385 . S
C438 C437 1.374 . S
C439 C436 1.499 . S
C439 C440 1.373 . S
C439 C441 1.389 . S
C440 H413 0.950 . S
C440 C426 1.377 . S
C440 C439 1.373 . S
C441 C425 1.377 . S
C441 C439 1.389 . S
C441 C442 1.524 . S
C442 C441 1.524 . S
C442 C443 1.397 . S
C442 C447 1.363 . S
C443 H414 0.950 . S
C443 C442 1.397 . S
C443 C444 1.334 . S
C444 H415 0.950 . S
C444 C443 1.334 . S
C444 C445 1.287 . S
C445 C444 1.287 . S
C445 C446 1.524 . S
C445 H448 0.999 . S
C446 H416 0.950 . S
C446 C445 1.524 . S
C446 C447 1.415 . S
C447 H417 0.950 . S
C447 C442 1.363 . S
C447 C446 1.415 . S
H448 C445 0.999 . S
H449 C430 0.913 . S
H450 C468 0.951 . S
H451 C470 0.951 . S
H452 C472 0.950 . S
H453 C473 0.950 . S
H454 C475 0.950 . S
H455 C478 0.950 . S
H456 C479 0.950 . S
H457 C481 0.950 . S
H458 C482 0.950 . S
H459 C483 0.951 . S
H460 C485 0.951 . S
H461 C487 0.950 . S
H462 C488 0.950 . S
H463 C490 0.950 . S
H464 C493 0.950 . S
H465 C494 0.950 . S
H466 C496 0.950 . S
H467 C497 0.950 . S
C468 H450 0.951 . S
C468 C469 1.366 . S
C468 C470 1.388 . S
C469 C468 1.366 . S
C469 C473 1.385 . S
C470 H451 0.951 . S
C470 C468 1.388 . S
C470 C471 1.366 . S
C471 C470 1.366 . S
C471 C472 1.414 . S
C471 C474 1.499 . S
C472 H452 0.950 . S
C472 C471 1.414 . S
C472 C473 1.374 . S
C473 H453 0.950 . S
C473 C469 1.385 . S
C473 C472 1.374 . S
C474 C471 1.499 . S
C474 C475 1.373 . S
C474 C476 1.389 . S
C475 H454 0.950 . S
C475 C474 1.373 . S
C475 C491 1.377 . S
C476 C474 1.389 . S
C476 C477 1.524 . S
C476 C490 1.377 . S
C477 C476 1.524 . S
C477 C478 1.397 . S
C477 C482 1.363 . S
C478 H455 0.950 . S
C478 C477 1.397 . S
C478 C479 1.334 . S
C479 H456 0.950 . S
C479 C478 1.334 . S
C479 C480 1.287 . S
C480 C479 1.287 . S
C480 C481 1.524 . S
C480 H499 0.913 . S
C481 H457 0.950 . S
C481 C480 1.524 . S
C481 C482 1.415 . S
C482 H458 0.950 . S
C482 C477 1.363 . S
C482 C481 1.415 . S
C483 H459 0.951 . S
C483 C484 1.366 . S
C483 C485 1.388 . S
C484 C483 1.366 . S
C484 C488 1.385 . S
C485 H460 0.951 . S
C485 C483 1.388 . S
C485 C486 1.366 . S
C486 C485 1.366 . S
C486 C487 1.414 . S
C486 C489 1.499 . S
C487 H461 0.950 . S
C487 C486 1.414 . S
C487 C488 1.374 . S
C488 H462 0.950 . S
C488 C484 1.385 . S
C488 C487 1.374 . S
C489 C486 1.499 . S
C489 C490 1.373 . S
C489 C491 1.389 . S
C490 H463 0.950 . S
C490 C476 1.377 . S
C490 C489 1.373 . S
C491 C475 1.377 . S
C491 C489 1.389 . S
C491 C492 1.524 . S
C492 C491 1.524 . S
C492 C493 1.397 . S
C492 C497 1.363 . S
C493 H464 0.950 . S
C493 C492 1.397 . S
C493 C494 1.334 . S
C494 H465 0.950 . S
C494 C493 1.334 . S
C494 C495 1.287 . S
C495 C494 1.287 . S
C495 C496 1.524 . S
C495 H498 0.999 . S
C496 H466 0.950 . S
C496 C495 1.524 . S
C496 C497 1.415 . S
C497 H467 0.950 . S
C497 C492 1.363 . S
C497 C496 1.415 . S
H498 C495 0.999 . S
H499 C480 0.913 . S
H500 C518 0.951 . S
H501 C520 0.951 . S
H502 C522 0.950 . S
H503 C523 0.950 . S
H504 C525 0.950 . S
H505 C528 0.950 . S
H506 C529 0.950 . S
H507 C531 0.950 . S
H508 C532 0.950 . S
H509 C533 0.951 . S
H510 C535 0.951 . S
H511 C537 0.950 . S
H512 C538 0.950 . S
H513 C540 0.950 . S
H514 C543 0.950 . S
H515 C544 0.950 . S
H516 C546 0.950 . S
H517 C547 0.950 . S
C518 H500 0.951 . S
C518 C519 1.366 . S
C518 C520 1.388 . S
C519 C518 1.366 . S
C519 C523 1.385 . S
C520 H501 0.951 . S
C520 C518 1.388 . S
C520 C521 1.366 . S
C521 C520 1.366 . S
C521 C522 1.414 . S
C521 C524 1.499 . S
C522 H502 0.950 . S
C522 C521 1.414 . S
C522 C523 1.374 . S
C523 H503 0.950 . S
C523 C519 1.385 . S
C523 C522 1.374 . S
C524 C521 1.499 . S
C524 C525 1.373 . S
C524 C526 1.389 . S
C525 H504 0.950 . S
C525 C524 1.373 . S
C525 C541 1.377 . S
C526 C524 1.389 . S
C526 C527 1.524 . S
C526 C540 1.377 . S
C527 C526 1.524 . S
C527 C528 1.397 . S
C527 C532 1.363 . S
C528 H505 0.950 . S
C528 C527 1.397 . S
C528 C529 1.334 . S
C529 H506 0.950 . S
C529 C528 1.334 . S
C529 C530 1.287 . S
C530 C529 1.287 . S
C530 C531 1.524 . S
C530 H549 0.913 . S
C531 H507 0.950 . S
C531 C530 1.524 . S
C531 C532 1.415 . S
C532 H508 0.950 . S
C532 C527 1.363 . S
C532 C531 1.415 . S
C533 H509 0.951 . S
C533 C534 1.366 . S
C533 C535 1.388 . S
C534 C533 1.366 . S
C534 C538 1.385 . S
C535 H510 0.951 . S
C535 C533 1.388 . S
C535 C536 1.366 . S
C536 C535 1.366 . S
C536 C537 1.414 . S
C536 C539 1.499 . S
C537 H511 0.950 . S
C537 C536 1.414 . S
C537 C538 1.374 . S
C538 H512 0.950 . S
C538 C534 1.385 . S
C538 C537 1.374 . S
C539 C536 1.499 . S
C539 C540 1.373 . S
C539 C541 1.389 . S
C540 H513 0.950 . S
C540 C526 1.377 . S
C540 C539 1.373 . S
C541 C525 1.377 . S
C541 C539 1.389 . S
C541 C542 1.524 . S
C542 C541 1.524 . S
C542 C543 1.397 . S
C542 C547 1.363 . S
C543 H514 0.950 . S
C543 C542 1.397 . S
C543 C544 1.334 . S
C544 H515 0.950 . S
C544 C543 1.334 . S
C544 C545 1.287 . S
C545 C544 1.287 . S
C545 C546 1.524 . S
C545 H548 0.999 . S
C546 H516 0.950 . S
C546 C545 1.524 . S
C546 C547 1.415 . S
C547 H517 0.950 . S
C547 C542 1.363 . S
C547 C546 1.415 . S
H548 C545 0.999 . S
H549 C530 0.913 . S
H550 C568 0.951 . S
H551 C570 0.951 . S
H552 C572 0.950 . S
H553 C573 0.950 . S
H554 C575 0.950 . S
H555 C578 0.950 . S
H556 C579 0.950 . S
H557 C581 0.950 . S
H558 C582 0.950 . S
H559 C583 0.951 . S
H560 C585 0.951 . S
H561 C587 0.950 . S
H562 C588 0.950 . S
H563 C590 0.950 . S
H564 C593 0.950 . S
H565 C594 0.950 . S
H566 C596 0.950 . S
H567 C597 0.950 . S
C568 H550 0.951 . S
C568 C569 1.366 . S
C568 C570 1.388 . S
C569 C568 1.366 . S
C569 C573 1.385 . S
C570 H551 0.951 . S
C570 C568 1.388 . S
C570 C571 1.366 . S
C571 C570 1.366 . S
C571 C572 1.414 . S
C571 C574 1.499 . S
C572 H552 0.950 . S
C572 C571 1.414 . S
C572 C573 1.374 . S
C573 H553 0.950 . S
C573 C569 1.385 . S
C573 C572 1.374 . S
C574 C571 1.499 . S
C574 C575 1.373 . S
C574 C576 1.389 . S
C575 H554 0.950 . S
C575 C574 1.373 . S
C575 C591 1.377 . S
C576 C574 1.389 . S
C576 C577 1.524 . S
C576 C590 1.377 . S
C577 C576 1.524 . S
C577 C578 1.397 . S
C577 C582 1.363 . S
C578 H555 0.950 . S
C578 C577 1.397 . S
C578 C579 1.334 . S
C579 H556 0.950 . S
C579 C578 1.334 . S
C579 C580 1.287 . S
C580 C579 1.287 . S
C580 C581 1.524 . S
C580 H599 0.913 . S
C581 H557 0.950 . S
C581 C580 1.524 . S
C581 C582 1.415 . S
C582 H558 0.950 . S
C582 C577 1.363 . S
C582 C581 1.415 . S
C583 H559 0.951 . S
C583 C584 1.366 . S
C583 C585 1.388 . S
C584 C583 1.366 . S
C584 C588 1.385 . S
C585 H560 0.951 . S
C585 C583 1.388 . S
C585 C586 1.366 . S
C586 C585 1.366 . S
C586 C587 1.414 . S
C586 C589 1.499 . S
C587 H561 0.950 . S
C587 C586 1.414 . S
C587 C588 1.374 . S
C588 H562 0.950 . S
C588 C584 1.385 . S
C588 C587 1.374 . S
C589 C586 1.499 . S
C589 C590 1.373 . S
C589 C591 1.389 . S
C590 H563 0.950 . S
C590 C576 1.377 . S
C590 C589 1.373 . S
C591 C575 1.377 . S
C591 C589 1.389 . S
C591 C592 1.524 . S
C592 C591 1.524 . S
C592 C593 1.397 . S
C592 C597 1.363 . S
C593 H564 0.950 . S
C593 C592 1.397 . S
C593 C594 1.334 . S
C594 H565 0.950 . S
C594 C593 1.334 . S
C594 C595 1.287 . S
C595 C594 1.287 . S
C595 C596 1.524 . S
C595 H598 0.999 . S
C596 H566 0.950 . S
C596 C595 1.524 . S
C596 C597 1.415 . S
C597 H567 0.950 . S
C597 C592 1.363 . S
C597 C596 1.415 . S
H598 C595 0.999 . S
H599 C580 0.913 . S
H600 C618 0.951 . S
H601 C620 0.951 . S
H602 C622 0.950 . S
H603 C623 0.950 . S
H604 C625 0.950 . S
H605 C628 0.950 . S
H606 C629 0.950 . S
H607 C631 0.950 . S
H608 C632 0.950 . S
H609 C633 0.951 . S
H610 C635 0.951 . S
H611 C637 0.950 . S
H612 C638 0.950 . S
H613 C640 0.950 . S
H614 C643 0.950 . S
H615 C644 0.950 . S
H616 C646 0.950 . S
H617 C647 0.950 . S
C618 H600 0.951 . S
C618 C619 1.366 . S
C618 C620 1.388 . S
C619 C618 1.366 . S
C619 C623 1.385 . S
C620 H601 0.951 . S
C620 C618 1.388 . S
C620 C621 1.366 . S
C621 C620 1.366 . S
C621 C622 1.414 . S
C621 C624 1.499 . S
C622 H602 0.950 . S
C622 C621 1.414 . S
C622 C623 1.374 . S
C623 H603 0.950 . S
C623 C619 1.385 . S
C623 C622 1.374 . S
C624 C621 1.499 . S
C624 C625 1.373 . S
C624 C626 1.389 . S
C625 H604 0.950 . S
C625 C624 1.373 . S
C625 C641 1.377 . S
C626 C624 1.389 . S
C626 C627 1.524 . S
C626 C640 1.377 . S
C627 C626 1.524 . S
C627 C628 1.397 . S
C627 C632 1.363 . S
C628 H605 0.950 . S
C628 C627 1.397 . S
C628 C629 1.334 . S
C629 H606 0.950 . S
C629 C628 1.334 . S
C629 C630 1.287 . S
C630 C629 1.287 . S
C630 C631 1.524 . S
C630 H649 0.913 . S
C631 H607 0.950 . S
C631 C630 1.524 . S
C631 C632 1.415 . S
C632 H608 0.950 . S
C632 C627 1.363 . S
C632 C631 1.415 . S
C633 H609 0.951 . S
C633 C634 1.366 . S
C633 C635 1.388 . S
C634 C633 1.366 . S
C634 C638 1.385 . S
C635 H610 0.951 . S
C635 C633 1.388 . S
C635 C636 1.366 . S
C636 C635 1.366 . S
C636 C637 1.414 . S
C636 C639 1.499 . S
C637 H611 0.950 . S
C637 C636 1.414 . S
C637 C638 1.374 . S
C638 H612 0.950 . S
C638 C634 1.385 . S
C638 C637 1.374 . S
C639 C636 1.499 . S
C639 C640 1.373 . S
C639 C641 1.389 . S
C640 H613 0.950 . S
C640 C626 1.377 . S
C640 C639 1.373 . S
C641 C625 1.377 . S
C641 C639 1.389 . S
C641 C642 1.524 . S
C642 C641 1.524 . S
C642 C643 1.397 . S
C642 C647 1.363 . S
C643 H614 0.950 . S
C643 C642 1.397 . S
C643 C644 1.334 . S
C644 H615 0.950 . S
C644 C643 1.334 . S
C644 C645 1.287 . S
C645 C644 1.287 . S
C645 C646 1.524 . S
C645 H648 0.999 . S
C646 H616 0.950 . S
C646 C645 1.524 . S
C646 C647 1.415 . S
C647 H617 0.950 . S
C647 C642 1.363 . S
C647 C646 1.415 . S
H648 C645 0.999 . S
H649 C630 0.913 . S
H650 C668 0.951 . S
H651 C670 0.951 . S
H652 C672 0.950 . S
H653 C673 0.950 . S
H654 C675 0.950 . S
H655 C678 0.950 . S
H656 C679 0.950 . S
H657 C681 0.950 . S
H658 C682 0.950 . S
H659 C683 0.951 . S
H660 C685 0.951 . S
H661 C687 0.950 . S
H662 C688 0.950 . S
H663 C690 0.950 . S
H664 C693 0.950 . S
H665 C694 0.950 . S
H666 C696 0.950 . S
H667 C697 0.950 . S
C668 H650 0.951 . S
C668 C669 1.366 . S
C668 C670 1.388 . S
C669 C668 1.366 . S
C669 C673 1.385 . S
C670 H651 0.951 . S
C670 C668 1.388 . S
C670 C671 1.366 . S
C671 C670 1.366 . S
C671 C672 1.414 . S
C671 C674 1.499 . S
C672 H652 0.950 . S
C672 C671 1.414 . S
C672 C673 1.374 . S
C673 H653 0.950 . S
C673 C669 1.385 . S
C673 C672 1.374 . S
C674 C671 1.499 . S
C674 C675 1.373 . S
C674 C676 1.389 . S
C675 H654 0.950 . S
C675 C674 1.373 . S
C675 C691 1.377 . S
C676 C674 1.389 . S
C676 C677 1.524 . S
C676 C690 1.377 . S
C677 C676 1.524 . S
C677 C678 1.397 . S
C677 C682 1.363 . S
C678 H655 0.950 . S
C678 C677 1.397 . S
C678 C679 1.334 . S
C679 H656 0.950 . S
C679 C678 1.334 . S
C679 C680 1.287 . S
C680 C679 1.287 . S
C680 C681 1.524 . S
C680 H699 0.913 . S
C681 H657 0.950 . S
C681 C680 1.524 . S
C681 C682 1.415 . S
C682 H658 0.950 . S
C682 C677 1.363 . S
C682 C681 1.415 . S
C683 H659 0.951 . S
C683 C684 1.366 . S
C683 C685 1.388 . S
C684 C683 1.366 . S
C684 C688 1.385 . S
C685 H660 0.951 . S
C685 C683 1.388 . S
C685 C686 1.366 . S
C686 C685 1.366 . S
C686 C687 1.414 . S
C686 C689 1.499 . S
C687 H661 0.950 . S
C687 C686 1.414 . S
C687 C688 1.374 . S
C688 H662 0.950 . S
C688 C684 1.385 . S
C688 C687 1.374 . S
C689 C686 1.499 . S
C689 C690 1.373 . S
C689 C691 1.389 . S
C690 H663 0.950 . S
C690 C676 1.377 . S
C690 C689 1.373 . S
C691 C675 1.377 . S
C691 C689 1.389 . S
C691 C692 1.524 . S
C692 C691 1.524 . S
C692 C693 1.397 . S
C692 C697 1.363 . S
C693 H664 0.950 . S
C693 C692 1.397 . S
C693 C694 1.334 . S
C694 H665 0.950 . S
C694 C693 1.334 . S
C694 C695 1.287 . S
C695 C694 1.287 . S
C695 C696 1.524 . S
C695 H698 0.999 . S
C696 H666 0.950 . S
C696 C695 1.524 . S
C696 C697 1.415 . S
C697 H667 0.950 . S
C697 C692 1.363 . S
C697 C696 1.415 . S
H698 C695 0.999 . S
H699 C680 0.913 . S
H700 C718 0.951 . S
H701 C720 0.951 . S
H702 C722 0.950 . S
H703 C723 0.950 . S
H704 C725 0.950 . S
H705 C728 0.950 . S
H706 C729 0.950 . S
H707 C731 0.950 . S
H708 C732 0.950 . S
H709 C733 0.951 . S
H710 C735 0.951 . S
H711 C737 0.950 . S
H712 C738 0.950 . S
H713 C740 0.950 . S
H714 C743 0.950 . S
H715 C744 0.950 . S
H716 C746 0.950 . S
H717 C747 0.950 . S
C718 H700 0.951 . S
C718 C719 1.366 . S
C718 C720 1.388 . S
C719 C718 1.366 . S
C719 C723 1.385 . S
C720 H701 0.951 . S
C720 C718 1.388 . S
C720 C721 1.366 . S
C721 C720 1.366 . S
C721 C722 1.414 . S
C721 C724 1.499 . S
C722 H702 0.950 . S
C722 C721 1.414 . S
C722 C723 1.374 . S
C723 H703 0.950 . S
C723 C719 1.385 . S
C723 C722 1.374 . S
C724 C721 1.499 . S
C724 C725 1.373 . S
C724 C726 1.389 . S
C725 H704 0.950 . S
C725 C724 1.373 . S
C725 C741 1.377 . S
C726 C724 1.389 . S
C726 C727 1.524 . S
C726 C740 1.377 . S
C727 C726 1.524 . S
C727 C728 1.397 . S
C727 C732 1.363 . S
C728 H705 0.950 . S
C728 C727 1.397 . S
C728 C729 1.334 . S
C729 H706 0.950 . S
C729 C728 1.334 . S
C729 C730 1.287 . S
C730 C729 1.287 . S
C730 C731 1.524 . S
C730 H749 0.913 . S
C731 H707 0.950 . S
C731 C730 1.524 . S
C731 C732 1.415 . S
C732 H708 0.950 . S
C732 C727 1.363 . S
C732 C731 1.415 . S
C733 H709 0.951 . S
C733 C734 1.366 . S
C733 C735 1.388 . S
C734 C733 1.366 . S
C734 C738 1.385 . S
C735 H710 0.951 . S
C735 C733 1.388 . S
C735 C736 1.366 . S
C736 C735 1.366 . S
C736 C737 1.414 . S
C736 C739 1.499 . S
C737 H711 0.950 . S
C737 C736 1.414 . S
C737 C738 1.374 . S
C738 H712 0.950 . S
C738 C734 1.385 . S
C738 C737 1.374 . S
C739 C736 1.499 . S
C739 C740 1.373 . S
C739 C741 1.389 . S
C740 H713 0.950 . S
C740 C726 1.377 . S
C740 C739 1.373 . S
C741 C725 1.377 . S
C741 C739 1.389 . S
C741 C742 1.524 . S
C742 C741 1.524 . S
C742 C743 1.397 . S
C742 C747 1.363 . S
C743 H714 0.950 . S
C743 C742 1.397 . S
C743 C744 1.334 . S
C744 H715 0.950 . S
C744 C743 1.334 . S
C744 C745 1.287 . S
C745 C744 1.287 . S
C745 C746 1.524 . S
C745 H748 0.999 . S
C746 H716 0.950 . S
C746 C745 1.524 . S
C746 C747 1.415 . S
C747 H717 0.950 . S
C747 C742 1.363 . S
C747 C746 1.415 . S
H748 C745 0.999 . S
H749 C730 0.913 . S
H750 C768 0.951 . S
H751 C770 0.951 . S
H752 C772 0.950 . S
H753 C773 0.950 . S
H754 C775 0.950 . S
H755 C778 0.950 . S
H756 C779 0.950 . S
H757 C781 0.950 . S
H758 C782 0.950 . S
H759 C783 0.951 . S
H760 C785 0.951 . S
H761 C787 0.950 . S
H762 C788 0.950 . S
H763 C790 0.950 . S
H764 C793 0.950 . S
H765 C794 0.950 . S
H766 C796 0.950 . S
H767 C797 0.950 . S
C768 H750 0.951 . S
C768 C769 1.366 . S
C768 C770 1.388 . S
C769 C768 1.366 . S
C769 C773 1.385 . S
C770 H751 0.951 . S
C770 C768 1.388 . S
C770 C771 1.366 . S
C771 C770 1.366 . S
C771 C772 1.414 . S
C771 C774 1.499 . S
C772 H752 0.950 . S
C772 C771 1.414 . S
C772 C773 1.374 . S
C773 H753 0.950 . S
C773 C769 1.385 . S
C773 C772 1.374 . S
C774 C771 1.499 . S
C774 C775 1.373 . S
C774 C776 1.389 . S
C775 H754 0.950 . S
C775 C774 1.373 . S
C775 C791 1.377 . S
C776 C774 1.389 . S
C776 C777 1.524 . S
C776 C790 1.377 . S
C777 C776 1.524 . S
C777 C778 1.397 . S
C777 C782 1.363 . S
C778 H755 0.950 . S
C778 C777 1.397 . S
C778 C779 1.334 . S
C779 H756 0.950 . S
C779 C778 1.334 . S
C779 C780 1.287 . S
C780 C779 1.287 . S
C780 C781 1.524 . S
C780 H799 0.913 . S
C781 H757 0.950 . S
C781 C780 1.524 . S
C781 C782 1.415 . S
C782 H758 0.950 . S
C782 C777 1.363 . S
C782 C781 1.415 . S
C783 H759 0.951 . S
C783 C784 1.366 . S
C783 C785 1.388 . S
C784 C783 1.366 . S
C784 C788 1.385 . S
C785 H760 0.951 . S
C785 C783 1.388 . S
C785 C786 1.366 . S
C786 C785 1.366 . S
C786 C787 1.414 . S
C786 C789 1.499 . S
C787 H761 0.950 . S
C787 C786 1.414 . S
C787 C788 1.374 . S
C788 H762 0.950 . S
C788 C784 1.385 . S
C788 C787 1.374 . S
C789 C786 1.499 . S
C789 C790 1.373 . S
C789 C791 1.389 . S
C790 H763 0.950 . S
C790 C776 1.377 . S
C790 C789 1.373 . S
C791 C775 1.377 . S
C791 C789 1.389 . S
C791 C792 1.524 . S
C792 C791 1.524 . S
C792 C793 1.397 . S
C792 C797 1.363 . S
C793 H764 0.950 . S
C793 C792 1.397 . S
C793 C794 1.334 . S
C794 H765 0.950 . S
C794 C793 1.334 . S
C794 C795 1.287 . S
C795 C794 1.287 . S
C795 C796 1.524 . S
C795 H798 0.999 . S
C796 H766 0.950 . S
C796 C795 1.524 . S
C796 C797 1.415 . S
C797 H767 0.950 . S
C797 C792 1.363 . S
C797 C796 1.415 . S
H798 C795 0.999 . S
H799 C780 0.913 . S
H800 C818 0.951 . S
H801 C820 0.951 . S
H802 C822 0.950 . S
H803 C823 0.950 . S
H804 C825 0.950 . S
H805 C828 0.950 . S
H806 C829 0.950 . S
H807 C831 0.950 . S
H808 C832 0.950 . S
H809 C833 0.951 . S
H810 C835 0.951 . S
H811 C837 0.950 . S
H812 C838 0.950 . S
H813 C840 0.950 . S
H814 C843 0.950 . S
H815 C844 0.950 . S
H816 C846 0.950 . S
H817 C847 0.950 . S
C818 H800 0.951 . S
C818 C819 1.366 . S
C818 C820 1.388 . S
C819 C818 1.366 . S
C819 C823 1.385 . S
C820 H801 0.951 . S
C820 C818 1.388 . S
C820 C821 1.366 . S
C821 C820 1.366 . S
C821 C822 1.414 . S
C821 C824 1.499 . S
C822 H802 0.950 . S
C822 C821 1.414 . S
C822 C823 1.374 . S
C823 H803 0.950 . S
C823 C819 1.385 . S
C823 C822 1.374 . S
C824 C821 1.499 . S
C824 C825 1.373 . S
C824 C826 1.389 . S
C825 H804 0.950 . S
C825 C824 1.373 . S
C825 C841 1.377 . S
C826 C824 1.389 . S
C826 C827 1.524 . S
C826 C840 1.377 . S
C827 C826 1.524 . S
C827 C828 1.397 . S
C827 C832 1.363 . S
C828 H805 0.950 . S
C828 C827 1.397 . S
C828 C829 1.334 . S
C829 H806 0.950 . S
C829 C828 1.334 . S
C829 C830 1.287 . S
C830 C829 1.287 . S
C830 C831 1.524 . S
C830 H849 0.913 . S
C831 H807 0.950 . S
C831 C830 1.524 . S
C831 C832 1.415 . S
C832 H808 0.950 . S
C832 C827 1.363 . S
C832 C831 1.415 . S
C833 H809 0.951 . S
C833 C834 1.366 . S
C833 C835 1.388 . S
C834 C833 1.366 . S
C834 C838 1.385 . S
C835 H810 0.951 . S
C835 C833 1.388 . S
C835 C836 1.366 . S
C836 C835 1.366 . S
C836 C837 1.414 . S
C836 C839 1.499 . S
C837 H811 0.950 . S
C837 C836 1.414 . S
C837 C838 1.374 . S
C838 H812 0.950 . S
C838 C834 1.385 . S
C838 C837 1.374 . S
C839 C836 1.499 . S
C839 C840 1.373 . S
C839 C841 1.389 . S
C840 H813 0.950 . S
C840 C826 1.377 . S
C840 C839 1.373 . S
C841 C825 1.377 . S
C841 C839 1.389 . S
C841 C842 1.524 . S
C842 C841 1.524 . S
C842 C843 1.397 . S
C842 C847 1.363 . S
C843 H814 0.950 . S
C843 C842 1.397 . S
C843 C844 1.334 . S
C844 H815 0.950 . S
C844 C843 1.334 . S
C844 C845 1.287 . S
C845 C844 1.287 . S
C845 C846 1.524 . S
C845 H848 0.999 . S
C846 H816 0.950 . S
C846 C845 1.524 . S
C846 C847 1.415 . S
C847 H817 0.950 . S
C847 C842 1.363 . S
C847 C846 1.415 . S
H848 C845 0.999 . S
H849 C830 0.913 . S
H850 C868 0.951 . S
H851 C870 0.951 . S
H852 C872 0.950 . S
H853 C873 0.950 . S
H854 C875 0.950 . S
H855 C878 0.950 . S
H856 C879 0.950 . S
H857 C881 0.950 . S
H858 C882 0.950 . S
H859 C883 0.951 . S
H860 C885 0.951 . S
H861 C887 0.950 . S
H862 C888 0.950 . S
H863 C890 0.950 . S
H864 C893 0.950 . S
H865 C894 0.950 . S
H866 C896 0.950 . S
H867 C897 0.950 . S
C868 H850 0.951 . S
C868 C869 1.366 . S
C868 C870 1.388 . S
C869 C868 1.366 . S
C869 C873 1.385 . S
C870 H851 0.951 . S
C870 C868 1.388 . S
C870 C871 1.366 . S
C871 C870 1.366 . S
C871 C872 1.414 . S
C871 C874 1.499 . S
C872 H852 0.950 . S
C872 C871 1.414 . S
C872 C873 1.374 . S
C873 H853 0.950 . S
C873 C869 1.385 . S
C873 C872 1.374 . S
C874 C871 1.499 . S
C874 C875 1.373 . S
C874 C876 1.389 . S
C875 H854 0.950 . S
C875 C874 1.373 . S
C875 C891 1.377 . S
C876 C874 1.389 . S
C876 C877 1.524 . S
C876 C890 1.377 . S
C877 C876 1.524 . S
C877 C878 1.397 . S
C877 C882 1.363 . S
C878 H855 0.950 . S
C878 C877 1.397 . S
C878 C879 1.334 . S
C879 H856 0.950 . S
C879 C878 1.334 . S
C879 C880 1.287 . S
C880 C879 1.287 . S
C880 C881 1.524 . S
C880 H899 0.913 . S
C881 H857 0.950 . S
C881 C880 1.524 . S
C881 C882 1.415 . S
C882 H858 0.950 . S
C882 C877 1.363 . S
C882 C881 1.415 . S
C883 H859 0.951 . S
C883 C884 1.366 . S
C883 C885 1.388 . S
C884 C883 1.366 . S
C884 C888 1.385 . S
C885 H860 0.951 . S
C885 C883 1.388 . S
C885 C886 1.366 . S
C886 C885 1.366 . S
C886 C887 1.414 . S
C886 C889 1.499 . S
C887 H861 0.950 . S
C887 C886 1.414 . S
C887 C888 1.374 . S
C888 H862 0.950 . S
C888 C884 1.385 . S
C888 C887 1.374 . S
C889 C886 1.499 . S
C889 C890 1.373 . S
C889 C891 1.389 . S
C890 H863 0.950 . S
C890 C876 1.377 . S
C890 C889 1.373 . S
C891 C875 1.377 . S
C891 C889 1.389 . S
C891 C892 1.524 . S
C892 C891 1.524 . S
C892 C893 1.397 . S
C892 C897 1.363 . S
C893 H864 0.950 . S
C893 C892 1.397 . S
C893 C894 1.334 . S
C894 H865 0.950 . S
C894 C893 1.334 . S
C894 C895 1.287 . S
C895 C894 1.287 . S
C895 C896 1.524 . S
C895 H898 0.999 . S
C896 H866 0.950 . S
C896 C895 1.524 . S
C896 C897 1.415 . S
C897 H867 0.950 . S
C897 C892 1.363 . S
C897 C896 1.415 . S
H898 C895 0.999 . S
H899 C880 0.913 . S
H900 C918 0.951 . S
H901 C920 0.951 . S
H902 C922 0.950 . S
H903 C923 0.950 . S
H904 C925 0.950 . S
H905 C928 0.950 . S
H906 C929 0.950 . S
H907 C931 0.950 . S
H908 C932 0.950 . S
H909 C933 0.951 . S
H910 C935 0.951 . S
H911 C937 0.950 . S
H912 C938 0.950 . S
H913 C940 0.950 . S
H914 C943 0.950 . S
H915 C944 0.950 . S
H916 C946 0.950 . S
H917 C947 0.950 . S
C918 H900 0.951 . S
C918 C919 1.366 . S
C918 C920 1.388 . S
C919 C918 1.366 . S
C919 C923 1.385 . S
C920 H901 0.951 . S
C920 C918 1.388 . S
C920 C921 1.366 . S
C921 C920 1.366 . S
C921 C922 1.414 . S
C921 C924 1.499 . S
C922 H902 0.950 . S
C922 C921 1.414 . S
C922 C923 1.374 . S
C923 H903 0.950 . S
C923 C919 1.385 . S
C923 C922 1.374 . S
C924 C921 1.499 . S
C924 C925 1.373 . S
C924 C926 1.389 . S
C925 H904 0.950 . S
C925 C924 1.373 . S
C925 C941 1.377 . S
C926 C924 1.389 . S
C926 C927 1.524 . S
C926 C940 1.377 . S
C927 C926 1.524 . S
C927 C928 1.397 . S
C927 C932 1.363 . S
C928 H905 0.950 . S
C928 C927 1.397 . S
C928 C929 1.334 . S
C929 H906 0.950 . S
C929 C928 1.334 . S
C929 C930 1.287 . S
C930 C929 1.287 . S
C930 C931 1.524 . S
C930 H949 0.913 . S
C931 H907 0.950 . S
C931 C930 1.524 . S
C931 C932 1.415 . S
C932 H908 0.950 . S
C932 C927 1.363 . S
C932 C931 1.415 . S
C933 H909 0.951 . S
C933 C934 1.366 . S
C933 C935 1.388 . S
C934 C933 1.366 . S
C934 C938 1.385 . S
C935 H910 0.951 . S
C935 C933 1.388 . S
C935 C936 1.366 . S
C936 C935 1.366 . S
C936 C937 1.414 . S
C936 C939 1.499 . S
C937 H911 0.950 . S
C937 C936 1.414 . S
C937 C938 1.374 . S
C938 H912 0.950 . S
C938 C934 1.385 . S
C938 C937 1.374 . S
C939 C936 1.499 . S
C939 C940 1.373 . S
C939 C941 1.389 . S
C940 H913 0.950 . S
C940 C926 1.377 . S
C940 C939 1.373 . S
C941 C925 1.377 . S
C941 C939 1.389 . S
C941 C942 1.524 . S
C942 C941 1.524 . S
C942 C943 1.397 . S
C942 C947 1.363 . S
C943 H914 0.950 . S
C943 C942 1.397 . S
C943 C944 1.334 . S
C944 H915 0.950 . S
C944 C943 1.334 . S
C944 C945 1.287 . S
C945 C944 1.287 . S
C945 C946 1.524 . S
C945 H948 0.999 . S
C946 H916 0.950 . S
C946 C945 1.524 . S
C946 C947 1.415 . S
C947 H917 0.950 . S
C947 C942 1.363 . S
C947 C946 1.415 . S
H948 C945 0.999 . S
H949 C930 0.913 . S
H950 C968 0.951 . S
H951 C970 0.951 . S
H952 C972 0.950 . S
H953 C973 0.950 . S
H954 C975 0.950 . S
H955 C978 0.950 . S
H956 C979 0.950 . S
H957 C981 0.950 . S
H958 C982 0.950 . S
H959 C983 0.951 . S
H960 C985 0.951 . S
H961 C987 0.950 . S
H962 C988 0.950 . S
H963 C990 0.950 . S
H964 C993 0.950 . S
H965 C994 0.950 . S
H966 C996 0.950 . S
H967 C997 0.950 . S
C968 H950 0.951 . S
C968 C969 1.366 . S
C968 C970 1.388 . S
C969 C968 1.366 . S
C969 C973 1.385 . S
C970 H951 0.951 . S
C970 C968 1.388 . S
C970 C971 1.366 . S
C971 C970 1.366 . S
C971 C972 1.414 . S
C971 C974 1.499 . S
C972 H952 0.950 . S
C972 C971 1.414 . S
C972 C973 1.374 . S
C973 H953 0.950 . S
C973 C969 1.385 . S
C973 C972 1.374 . S
C974 C971 1.499 . S
C974 C975 1.373 . S
C974 C976 1.389 . S
C975 H954 0.950 . S
C975 C974 1.373 . S
C975 C991 1.377 . S
C976 C974 1.389 . S
C976 C977 1.524 . S
C976 C990 1.377 . S
C977 C976 1.524 . S
C977 C978 1.397 . S
C977 C982 1.363 . S
C978 H955 0.950 . S
C978 C977 1.397 . S
C978 C979 1.334 . S
C979 H956 0.950 . S
C979 C978 1.334 . S
C979 C980 1.287 . S
C980 C979 1.287 . S
C980 C981 1.524 . S
C980 H999 0.913 . S
C981 H957 0.950 . S
C981 C980 1.524 . S
C981 C982 1.415 . S
C982 H958 0.950 . S
C982 C977 1.363 . S
C982 C981 1.415 . S
C983 H959 0.951 . S
C983 C984 1.366 . S
C983 C985 1.388 . S
C984 C983 1.366 . S
C984 C988 1.385 . S
C985 H960 0.951 . S
C985 C983 1.388 . S
C985 C986 1.366 . S
C986 C985 1.366 . S
C986 C987 1.414 . S
C986 C989 1.499 . S
C987 H961 0.950 . S
C987 C986 1.414 . S
C987 C988 1.374 . S
C988 H962 0.950 . S
C988 C984 1.385 . S
C988 C987 1.374 . S
C989 C986 1.499 . S
C989 C990 1.373 . S
C989 C991 1.389 . S
C990 H963 0.950 . S
C990 C976 1.377 . S
C990 C989 1.373 . S
C991 C975 1.377 . S
C991 C989 1.389 . S
C991 C992 1.524 . S
C992 C991 1.524 . S
C992 C993 1.397 . S
C992 C997 1.363 . S
C993 H964 0.950 . S
C993 C992 1.397 . S
C993 C994 1.334 . S
C994 H965 0.950 . S
C994 C993 1.334 . S
C994 C995 1.287 . S
C995 C994 1.287 . S
C995 C996 1.524 . S
C995 H998 0.999 . S
C996 H966 0.950 . S
C996 C995 1.524 . S
C996 C997 1.415 . S
C997 H967 0.950 . S
C997 C992 1.363 . S
C997 C996 1.415 . S
H998 C995 0.999 . S
H999 C980 0.913 . S
H1000 C1018 0.951 . S
H1001 C1020 0.951 . S
H1002 C1022 0.950 . S
H1003 C1023 0.950 . S
H1004 C1025 0.950 . S
H1005 C1028 0.950 . S
H1006 C1029 0.950 . S
H1007 C1031 0.950 . S
H1008 C1032 0.950 . S
H1009 C1033 0.951 . S
H1010 C1035 0.951 . S
H1011 C1037 0.950 . S
H1012 C1038 0.950 . S
H1013 C1040 0.950 . S
H1014 C1043 0.950 . S
H1015 C1044 0.950 . S
H1016 C1046 0.950 . S
H1017 C1047 0.950 . S
C1018 H1000 0.951 . S
C1018 C1019 1.366 . S
C1018 C1020 1.388 . S
C1019 C1018 1.366 . S
C1019 C1023 1.385 . S
C1020 H1001 0.951 . S
C1020 C1018 1.388 . S
C1020 C1021 1.366 . S
C1021 C1020 1.366 . S
C1021 C1022 1.414 . S
C1021 C1024 1.499 . S
C1022 H1002 0.950 . S
C1022 C1021 1.414 . S
C1022 C1023 1.374 . S
C1023 H1003 0.950 . S
C1023 C1019 1.385 . S
C1023 C1022 1.374 . S
C1024 C1021 1.499 . S
C1024 C1025 1.373 . S
C1024 C1026 1.389 . S
C1025 H1004 0.950 . S
C1025 C1024 1.373 . S
C1025 C1041 1.377 . S
C1026 C1024 1.389 . S
C1026 C1027 1.524 . S
C1026 C1040 1.377 . S
C1027 C1026 1.524 . S
C1027 C1028 1.397 . S
C1027 C1032 1.363 . S
C1028 H1005 0.950 . S
C1028 C1027 1.397 . S
C1028 C1029 1.334 . S
C1029 H1006 0.950 . S
C1029 C1028 1.334 . S
C1029 C1030 1.287 . S
C1030 C1029 1.287 . S
C1030 C1031 1.524 . S
C1030 H1049 0.913 . S
C1031 H1007 0.950 . S
C1031 C1030 1.524 . S
C1031 C1032 1.415 . S
C1032 H1008 0.950 . S
C1032 C1027 1.363 . S
C1032 C1031 1.415 . S
C1033 H1009 0.951 . S
C1033 C1034 1.366 . S
C1033 C1035 1.388 . S
C1034 C1033 1.366 . S
C1034 C1038 1.385 . S
C1035 H1010 0.951 . S
C1035 C1033 1.388 . S
C1035 C1036 1.366 . S
C1036 C1035 1.366 . S
C1036 C1037 1.414 . S
C1036 C1039 1.499 . S
C1037 H1011 0.950 . S
C1037 C1036 1.414 . S
C1037 C1038 1.374 . S
C1038 H1012 0.950 . S
C1038 C1034 1.385 . S
C1038 C1037 1.374 . S
C1039 C1036 1.499 . S
C1039 C1040 1.373 . S
C1039 C1041 1.389 . S
C1040 H1013 0.950 . S
C1040 C1026 1.377 . S
C1040 C1039 1.373 . S
C1041 C1025 1.377 . S
C1041 C1039 1.389 . S
C1041 C1042 1.524 . S
C1042 C1041 1.524 . S
C1042 C1043 1.397 . S
C1042 C1047 1.363 . S
C1043 H1014 0.950 . S
C1043 C1042 1.397 . S
C1043 C1044 1.334 . S
C1044 H1015 0.950 . S
C1044 C1043 1.334 . S
C1044 C1045 1.287 . S
C1045 C1044 1.287 . S
C1045 C1046 1.524 . S
C1045 H1048 0.999 . S
C1046 H1016 0.950 . S
C1046 C1045 1.524 . S
C1046 C1047 1.415 . S
C1047 H1017 0.950 . S
C1047 C1042 1.363 . S
C1047 C1046 1.415 . S
H1048 C1045 0.999 . S
H1049 C1030 0.913 . S
H1050 C1068 0.951 . S
H1051 C1070 0.951 . S
H1052 C1072 0.950 . S
H1053 C1073 0.950 . S
H1054 C1075 0.950 . S
H1055 C1078 0.950 . S
H1056 C1079 0.950 . S
H1057 C1081 0.950 . S
H1058 C1082 0.950 . S
H1059 C1083 0.951 . S
H1060 C1085 0.951 . S
H1061 C1087 0.950 . S
H1062 C1088 0.950 . S
H1063 C1090 0.950 . S
H1064 C1093 0.950 . S
H1065 C1094 0.950 . S
H1066 C1096 0.950 . S
H1067 C1097 0.950 . S
C1068 H1050 0.951 . S
C1068 C1069 1.366 . S
C1068 C1070 1.388 . S
C1069 C1068 1.366 . S
C1069 C1073 1.385 . S
C1070 H1051 0.951 . S
C1070 C1068 1.388 . S
C1070 C1071 1.366 . S
C1071 C1070 1.366 . S
C1071 C1072 1.414 . S
C1071 C1074 1.499 . S
C1072 H1052 0.950 . S
C1072 C1071 1.414 . S
C1072 C1073 1.374 . S
C1073 H1053 0.950 . S
C1073 C1069 1.385 . S
C1073 C1072 1.374 . S
C1074 C1071 1.499 . S
C1074 C1075 1.373 . S
C1074 C1076 1.389 . S
C1075 H1054 0.950 . S
C1075 C1074 1.373 . S
C1075 C1091 1.377 . S
C1076 C1074 1.389 . S
C1076 C1077 1.524 . S
C1076 C1090 1.377 . S
C1077 C1076 1.524 . S
C1077 C1078 1.397 . S
C1077 C1082 1.363 . S
C1078 H1055 0.950 . S
C1078 C1077 1.397 . S
C1078 C1079 1.334 . S
C1079 H1056 0.950 . S
C1079 C1078 1.334 . S
C1079 C1080 1.287 . S
C1080 C1079 1.287 . S
C1080 C1081 1.524 . S
C1080 H1099 0.913 . S
C1081 H1057 0.950 . S
C1081 C1080 1.524 . S
C1081 C1082 1.415 . S
C1082 H1058 0.950 . S
C1082 C1077 1.363 . S
C1082 C1081 1.415 . S
C1083 H1059 0.951 . S
C1083 C1084 1.366 . S
C1083 C1085 1.388 . S
C1084 C1083 1.366 . S
C1084 C1088 1.385 . S
C1085 H1060 0.951 . S
C1085 C1083 1.388 . S
C1085 C1086 1.366 . S
C1086 C1085 1.366 . S
C1086 C1087 1.414 . S
C1086 C1089 1.499 . S
C1087 H1061 0.950 . S
C1087 C1086 1.414 . S
C1087 C1088 1.374 . S
C1088 H1062 0.950 . S
C1088 C1084 1.385 . S
C1088 C1087 1.374 . S
C1089 C1086 1.499 . S
C1089 C1090 1.373 . S
C1089 C1091 1.389 . S
C1090 H1063 0.950 . S
C1090 C1076 1.377 . S
C1090 C1089 1.373 . S
C1091 C1075 1.377 . S
C1091 C1089 1.389 . S
C1091 C1092 1.524 . S
C1092 C1091 1.524 . S
C1092 C1093 1.397 . S
C1092 C1097 1.363 . S
C1093 H1064 0.950 . S
C1093 C1092 1.397 . S
C1093 C1094 1.334 . S
C1094 H1065 0.950 . S
C1094 C1093 1.334 . S
C1094 C1095 1.287 . S
C1095 C1094 1.287 . S
C1095 C1096 1.524 . S
C1095 H1098 0.999 . S
C1096 H1066 0.950 . S
C1096 C1095 1.524 . S
C1096 C1097 1.415 . S
C1097 H1067 0.950 . S
C1097 C1092 1.363 . S
C1097 C1096 1.415 . S
H1098 C1095 0.999 . S
H1099 C1080 0.913 . S
H1100 C1118 0.951 . S
H1101 C1120 0.951 . S
H1102 C1122 0.950 . S
H1103 C1123 0.950 . S
H1104 C1125 0.950 . S
H1105 C1128 0.950 . S
H1106 C1129 0.950 . S
H1107 C1131 0.950 . S
H1108 C1132 0.950 . S
H1109 C1133 0.951 . S
H1110 C1135 0.951 . S
H1111 C1137 0.950 . S
H1112 C1138 0.950 . S
H1113 C1140 0.950 . S
H1114 C1143 0.950 . S
H1115 C1144 0.950 . S
H1116 C1146 0.950 . S
H1117 C1147 0.950 . S
C1118 H1100 0.951 . S
C1118 C1119 1.366 . S
C1118 C1120 1.388 . S
C1119 C1118 1.366 . S
C1119 C1123 1.385 . S
C1120 H1101 0.951 . S
C1120 C1118 1.388 . S
C1120 C1121 1.366 . S
C1121 C1120 1.366 . S
C1121 C1122 1.414 . S
C1121 C1124 1.499 . S
C1122 H1102 0.950 . S
C1122 C1121 1.414 . S
C1122 C1123 1.374 . S
C1123 H1103 0.950 . S
C1123 C1119 1.385 . S
C1123 C1122 1.374 . S
C1124 C1121 1.499 . S
C1124 C1125 1.373 . S
C1124 C1126 1.389 . S
C1125 H1104 0.950 . S
C1125 C1124 1.373 . S
C1125 C1141 1.377 . S
C1126 C1124 1.389 . S
C1126 C1127 1.524 . S
C1126 C1140 1.377 . S
C1127 C1126 1.524 . S
C1127 C1128 1.397 . S
C1127 C1132 1.363 . S
C1128 H1105 0.950 . S
C1128 C1127 1.397 . S
C1128 C1129 1.334 . S
C1129 H1106 0.950 . S
C1129 C1128 1.334 . S
C1129 C1130 1.287 . S
C1130 C1129 1.287 . S
C1130 C1131 1.524 . S
C1130 H1149 0.913 . S
C1131 H1107 0.950 . S
C1131 C1130 1.524 . S
C1131 C1132 1.415 . S
C1132 H1108 0.950 . S
C1132 C1127 1.363 . S
C1132 C1131 1.415 . S
C1133 H1109 0.951 . S
C1133 C1134 1.366 . S
C1133 C1135 1.388 . S
C1134 C1133 1.366 . S
C1134 C1138 1.385 . S
C1135 H1110 0.951 . S
C1135 C1133 1.388 . S
C1135 C1136 1.366 . S
C1136 C1135 1.366 . S
C1136 C1137 1.414 . S
C1136 C1139 1.499 . S
C1137 H1111 0.950 . S
C1137 C1136 1.414 . S
C1137 C1138 1.374 . S
C1138 H1112 0.950 . S
C1138 C1134 1.385 . S
C1138 C1137 1.374 . S
C1139 C1136 1.499 . S
C1139 C1140 1.373 . S
C1139 C1141 1.389 . S
C1140 H1113 0.950 . S
C1140 C1126 1.377 . S
C1140 C1139 1.373 . S
C1141 C1125 1.377 . S
C1141 C1139 1.389 . S
C1141 C1142 1.524 . S
C1142 C1141 1.524 . S
C1142 C1143 1.397 . S
C1142 C1147 1.363 . S
C1143 H1114 0.950 . S
C1143 C1142 1.397 . S
C1143 C1144 1.334 . S
C1144 H1115 0.950 . S
C1144 C1143 1.334 . S
C1144 C1145 1.287 . S
C1145 C1144 1.287 . S
C1145 C1146 1.524 . S
C1145 H1148 0.999 . S
C1146 H1116 0.950 . S
C1146 C1145 1.524 . S
C1146 C1147 1.415 . S
C1147 H1117 0.950 . S
C1147 C1142 1.363 . S
C1147 C1146 1.415 . S
H1148 C1145 0.999 . S
H1149 C1130 0.913 . S
H1150 C1168 0.951 . S
H1151 C1170 0.951 . S
H1152 C1172 0.950 . S
H1153 C1173 0.950 . S
H1154 C1175 0.950 . S
H1155 C1178 0.950 . S
H1156 C1179 0.950 . S
H1157 C1181 0.950 . S
H1158 C1182 0.950 . S
H1159 C1183 0.951 . S
H1160 C1185 0.951 . S
H1161 C1187 0.950 . S
H1162 C1188 0.950 . S
H1163 C1190 0.950 . S
H1164 C1193 0.950 . S
H1165 C1194 0.950 . S
H1166 C1196 0.950 . S
H1167 C1197 0.950 . S
C1168 H1150 0.951 . S
C1168 C1169 1.366 . S
C1168 C1170 1.388 . S
C1169 C1168 1.366 . S
C1169 C1173 1.385 . S
C1170 H1151 0.951 . S
C1170 C1168 1.388 . S
C1170 C1171 1.366 . S
C1171 C1170 1.366 . S
C1171 C1172 1.414 . S
C1171 C1174 1.499 . S
C1172 H1152 0.950 . S
C1172 C1171 1.414 . S
C1172 C1173 1.374 . S
C1173 H1153 0.950 . S
C1173 C1169 1.385 . S
C1173 C1172 1.374 . S
C1174 C1171 1.499 . S
C1174 C1175 1.373 . S
C1174 C1176 1.389 . S
C1175 H1154 0.950 . S
C1175 C1174 1.373 . S
C1175 C1191 1.377 . S
C1176 C1174 1.389 . S
C1176 C1177 1.524 . S
C1176 C1190 1.377 . S
C1177 C1176 1.524 . S
C1177 C1178 1.397 . S
C1177 C1182 1.363 . S
C1178 H1155 0.950 . S
C1178 C1177 1.397 . S
C1178 C1179 1.334 . S
C1179 H1156 0.950 . S
C1179 C1178 1.334 . S
C1179 C1180 1.287 . S
C1180 C1179 1.287 . S
C1180 C1181 1.524 . S
C1180 H1199 0.913 . S
C1181 H1157 0.950 . S
C1181 C1180 1.524 . S
C1181 C1182 1.415 . S
C1182 H1158 0.950 . S
C1182 C1177 1.363 . S
C1182 C1181 1.415 . S
C1183 H1159 0.951 . S
C1183 C1184 1.366 . S
C1183 C1185 1.388 . S
C1184 C1183 1.366 . S
C1184 C1188 1.385 . S
C1185 H1160 0.951 . S
C1185 C1183 1.388 . S
C1185 C1186 1.366 . S
C1186 C1185 1.366 . S
C1186 C1187 1.414 . S
C1186 C1189 1.499 . S
C1187 H1161 0.950 . S
C1187 C1186 1.414 . S
C1187 C1188 1.374 . S
C1188 H1162 0.950 . S
C1188 C1184 1.385 . S
C1188 C1187 1.374 . S
C1189 C1186 1.499 . S
C1189 C1190 1.373 . S
C1189 C1191 1.389 . S
C1190 H1163 0.950 . S
C1190 C1176 1.377 . S
C1190 C1189 1.373 . S
C1191 C1175 1.377 . S
C1191 C1189 1.389 . S
C1191 C1192 1.524 . S
C1192 C1191 1.524 . S
C1192 C1193 1.397 . S
C1192 C1197 1.363 . S
C1193 H1164 0.950 . S
C1193 C1192 1.397 . S
C1193 C1194 1.334 . S
C1194 H1165 0.950 . S
C1194 C1193 1.334 . S
C1194 C1195 1.287 . S
C1195 C1194 1.287 . S
C1195 C1196 1.524 . S
C1195 H1198 0.999 . S
C1196 H1166 0.950 . S
C1196 C1195 1.524 . S
C1196 C1197 1.415 . S
C1197 H1167 0.950 . S
C1197 C1192 1.363 . S
C1197 C1196 1.415 . S
H1198 C1195 0.999 . S
H1199 C1180 0.913 . S
H1200 C1218 0.951 . S
H1201 C1220 0.951 . S
H1202 C1222 0.950 . S
H1203 C1223 0.950 . S
H1204 C1225 0.950 . S
H1205 C1228 0.950 1_556 S
H1206 C1229 0.950 1_556 S
H1207 C1231 0.950 . S
H1208 C1232 0.950 . S
H1209 C1233 0.951 . S
H1210 C1235 0.951 . S
H1211 C1237 0.950 . S
H1212 C1238 0.950 . S
H1213 C1240 0.950 . S
H1214 C1243 0.950 1_554 S
H1215 C1244 0.950 1_554 S
H1216 C1246 0.950 . S
H1217 C1247 0.950 . S
C1218 H1200 0.951 . S
C1218 C1219 1.370 . S
C1218 C1220 1.388 . S
C1219 C1218 1.370 . S
C1219 C1223 1.380 1_554 S
C1220 H1201 0.951 . S
C1220 C1218 1.388 . S
C1220 C1221 1.358 1_554 S
C1221 C1220 1.358 1_556 S
C1221 C1222 1.422 . S
C1221 C1224 1.499 . S
C1222 H1202 0.950 . S
C1222 C1221 1.422 . S
C1222 C1223 1.374 . S
C1223 H1203 0.950 . S
C1223 C1219 1.380 1_556 S
C1223 C1222 1.374 . S
C1224 C1221 1.499 . S
C1224 C1225 1.373 . S
C1224 C1226 1.389 1_556 S
C1225 H1204 0.950 . S
C1225 C1224 1.373 . S
C1225 C1241 1.377 . S
C1226 C1224 1.389 1_554 S
C1226 C1227 1.524 . S
C1226 C1240 1.377 . S
C1227 C1226 1.524 . S
C1227 C1228 1.397 . S
C1227 C1232 1.363 . S
C1228 H1205 0.950 1_554 S
C1228 C1227 1.397 . S
C1228 C1229 1.334 . S
C1229 H1206 0.950 1_554 S
C1229 C1228 1.334 . S
C1229 C1230 1.287 . S
C1230 C1229 1.287 . S
C1230 C1231 1.524 . S
C1230 H1249 0.913 . S
C1231 H1207 0.950 . S
C1231 C1230 1.524 . S
C1231 C1232 1.415 . S
C1232 H1208 0.950 . S
C1232 C1227 1.363 . S
C1232 C1231 1.415 . S
C1233 H1209 0.951 . S
C1233 C1234 1.364 1_556 S
C1233 C1235 1.388 . S
C1234 C1233 1.364 1_554 S
C1234 C1238 1.386 . S
C1235 H1210 0.951 . S
C1235 C1233 1.388 . S
C1235 C1236 1.345 1_556 S
C1236 C1235 1.345 1_554 S
C1236 C1237 1.434 . S
C1236 C1239 1.499 . S
C1237 H1211 0.950 . S
C1237 C1236 1.434 . S
C1237 C1238 1.374 . S
C1238 H1212 0.950 . S
C1238 C1234 1.386 . S
C1238 C1237 1.374 . S
C1239 C1236 1.499 . S
C1239 C1240 1.373 . S
C1239 C1241 1.389 1_554 S
C1240 H1213 0.950 . S
C1240 C1226 1.377 . S
C1240 C1239 1.373 . S
C1241 C1225 1.377 . S
C1241 C1239 1.389 1_556 S
C1241 C1242 1.524 . S
C1242 C1241 1.524 . S
C1242 C1243 1.397 . S
C1242 C1247 1.363 . S
C1243 H1214 0.950 1_556 S
C1243 C1242 1.397 . S
C1243 C1244 1.334 . S
C1244 H1215 0.950 1_556 S
C1244 C1243 1.334 . S
C1244 C1245 1.287 . S
C1245 C1244 1.287 . S
C1245 C1246 1.524 . S
C1245 H1248 0.999 . S
C1246 H1216 0.950 . S
C1246 C1245 1.524 . S
C1246 C1247 1.415 . S
C1247 H1217 0.950 . S
C1247 C1242 1.363 . S
C1247 C1246 1.415 . S
H1248 C1245 0.999 . S
H1249 C1230 0.913 . S
H1250 C1268 0.951 . S
H1251 C1270 0.951 . S
H1252 C1272 0.950 . S
H1253 C1273 0.950 . S
H1254 C1275 0.950 . S
H1255 C1278 0.950 . S
H1256 C1279 0.950 . S
H1257 C1281 0.950 . S
H1258 C1282 0.950 . S
H1259 C1283 0.951 . S
H1260 C1285 0.951 . S
H1261 C1287 0.950 . S
H1262 C1288 0.950 . S
H1263 C1290 0.950 . S
H1264 C1293 0.950 . S
H1265 C1294 0.950 . S
H1266 C1296 0.950 . S
H1267 C1297 0.950 . S
C1268 H1250 0.951 . S
C1268 C1269 1.366 . S
C1268 C1270 1.388 . S
C1269 C1268 1.366 . S
C1269 C1273 1.385 . S
C1270 H1251 0.951 . S
C1270 C1268 1.388 . S
C1270 C1271 1.366 . S
C1271 C1270 1.366 . S
C1271 C1272 1.414 . S
C1271 C1274 1.499 . S
C1272 H1252 0.950 . S
C1272 C1271 1.414 . S
C1272 C1273 1.374 . S
C1273 H1253 0.950 . S
C1273 C1269 1.385 . S
C1273 C1272 1.374 . S
C1274 C1271 1.499 . S
C1274 C1275 1.373 . S
C1274 C1276 1.389 . S
C1275 H1254 0.950 . S
C1275 C1274 1.373 . S
C1275 C1291 1.377 . S
C1276 C1274 1.389 . S
C1276 C1277 1.524 . S
C1276 C1290 1.377 . S
C1277 C1276 1.524 . S
C1277 C1278 1.397 . S
C1277 C1282 1.363 . S
C1278 H1255 0.950 . S
C1278 C1277 1.397 . S
C1278 C1279 1.334 . S
C1279 H1256 0.950 . S
C1279 C1278 1.334 . S
C1279 C1280 1.287 . S
C1280 C1279 1.287 . S
C1280 C1281 1.524 . S
C1280 H1299 0.913 . S
C1281 H1257 0.950 . S
C1281 C1280 1.524 . S
C1281 C1282 1.415 . S
C1282 H1258 0.950 . S
C1282 C1277 1.363 . S
C1282 C1281 1.415 . S
C1283 H1259 0.951 . S
C1283 C1284 1.366 . S
C1283 C1285 1.388 . S
C1284 C1283 1.366 . S
C1284 C1288 1.385 . S
C1285 H1260 0.951 . S
C1285 C1283 1.388 . S
C1285 C1286 1.366 . S
C1286 C1285 1.366 . S
C1286 C1287 1.414 . S
C1286 C1289 1.499 . S
C1287 H1261 0.950 . S
C1287 C1286 1.414 . S
C1287 C1288 1.374 . S
C1288 H1262 0.950 . S
C1288 C1284 1.385 . S
C1288 C1287 1.374 . S
C1289 C1286 1.499 . S
C1289 C1290 1.373 . S
C1289 C1291 1.389 . S
C1290 H1263 0.950 . S
C1290 C1276 1.377 . S
C1290 C1289 1.373 . S
C1291 C1275 1.377 . S
C1291 C1289 1.389 . S
C1291 C1292 1.524 . S
C1292 C1291 1.524 . S
C1292 C1293 1.397 . S
C1292 C1297 1.363 . S
C1293 H1264 0.950 . S
C1293 C1292 1.397 . S
C1293 C1294 1.334 . S
C1294 H1265 0.950 . S
C1294 C1293 1.334 . S
C1294 C1295 1.287 . S
C1295 C1294 1.287 . S
C1295 C1296 1.524 . S
C1295 H1298 0.999 . S
C1296 H1266 0.950 . S
C1296 C1295 1.524 . S
C1296 C1297 1.415 . S
C1297 H1267 0.950 . S
C1297 C1292 1.363 . S
C1297 C1296 1.415 . S
H1298 C1295 0.999 . S
H1299 C1280 0.913 . S
H1300 C1318 0.951 . S
H1301 C1320 0.951 . S
H1302 C1322 0.950 . S
H1303 C1323 0.950 . S
H1304 C1325 0.950 . S
H1305 C1328 0.950 . S
H1306 C1329 0.950 . S
H1307 C1331 0.950 . S
H1308 C1332 0.950 . S
H1309 C1333 0.951 . S
H1310 C1335 0.951 . S
H1311 C1337 0.950 . S
H1312 C1338 0.950 . S
H1313 C1340 0.950 . S
H1314 C1343 0.950 . S
H1315 C1344 0.950 . S
H1316 C1346 0.950 . S
H1317 C1347 0.950 . S
C1318 H1300 0.951 . S
C1318 C1319 1.355 1_556 S
C1318 C1320 1.388 . S
C1319 C1318 1.355 1_554 S
C1319 C1323 1.395 . S
C1320 H1301 0.951 . S
C1320 C1318 1.388 . S
C1320 C1321 1.372 . S
C1321 C1320 1.372 . S
C1321 C1322 1.408 1_556 S
C1321 C1324 1.498 1_556 S
C1322 H1302 0.950 . S
C1322 C1321 1.408 1_554 S
C1322 C1323 1.374 . S
C1323 H1303 0.950 . S
C1323 C1319 1.395 . S
C1323 C1322 1.374 . S
C1324 C1321 1.498 1_554 S
C1324 C1325 1.389 . S
C1324 C1326 1.374 1_554 S
C1325 H1304 0.950 . S
C1325 C1324 1.389 . S
C1325 C1341 1.377 . S
C1326 C1324 1.374 1_556 S
C1326 C1327 1.524 . S
C1326 C1340 1.377 . S
C1327 C1326 1.524 . S
C1327 C1328 1.397 . S
C1327 C1332 1.363 . S
C1328 H1305 0.950 . S
C1328 C1327 1.397 . S
C1328 C1329 1.334 . S
C1329 H1306 0.950 . S
C1329 C1328 1.334 . S
C1329 C1330 1.287 . S
C1330 C1329 1.287 . S
C1330 C1331 1.524 . S
C1330 H1349 0.913 . S
C1331 H1307 0.950 . S
C1331 C1330 1.524 . S
C1331 C1332 1.415 . S
C1332 H1308 0.950 . S
C1332 C1327 1.363 . S
C1332 C1331 1.415 . S
C1333 H1309 0.951 . S
C1333 C1334 1.377 . S
C1333 C1335 1.388 . S
C1334 C1333 1.377 . S
C1334 C1338 1.373 1_554 S
C1335 H1310 0.951 . S
C1335 C1333 1.388 . S
C1335 C1336 1.366 . S
C1336 C1335 1.366 . S
C1336 C1337 1.414 1_554 S
C1336 C1339 1.499 . S
C1337 H1311 0.950 . S
C1337 C1336 1.414 1_556 S
C1337 C1338 1.374 . S
C1338 H1312 0.950 . S
C1338 C1334 1.373 1_556 S
C1338 C1337 1.374 . S
C1339 C1336 1.499 . S
C1339 C1340 1.366 1_554 S
C1339 C1341 1.397 . S
C1340 H1313 0.950 . S
C1340 C1326 1.377 . S
C1340 C1339 1.366 1_556 S
C1341 C1325 1.377 . S
C1341 C1339 1.397 . S
C1341 C1342 1.524 . S
C1342 C1341 1.524 . S
C1342 C1343 1.397 . S
C1342 C1347 1.363 . S
C1343 H1314 0.950 . S
C1343 C1342 1.397 . S
C1343 C1344 1.334 . S
C1344 H1315 0.950 . S
C1344 C1343 1.334 . S
C1344 C1345 1.287 . S
C1345 C1344 1.287 . S
C1345 C1346 1.524 . S
C1345 H1348 0.999 . S
C1346 H1316 0.950 . S
C1346 C1345 1.524 . S
C1346 C1347 1.415 . S
C1347 H1317 0.950 . S
C1347 C1342 1.363 . S
C1347 C1346 1.415 . S
H1348 C1345 0.999 . S
H1349 C1330 0.913 . S
H1350 C1368 0.951 . S
H1351 C1370 0.951 . S
H1352 C1372 0.950 . S
H1353 C1373 0.950 . S
H1354 C1375 0.950 . S
H1355 C1378 0.950 . S
H1356 C1379 0.950 . S
H1357 C1381 0.950 . S
H1358 C1382 0.950 . S
H1359 C1383 0.951 . S
H1360 C1385 0.951 . S
H1361 C1387 0.950 . S
H1362 C1388 0.950 . S
H1363 C1390 0.950 . S
H1364 C1393 0.950 . S
H1365 C1394 0.950 . S
H1366 C1396 0.950 . S
H1367 C1397 0.950 . S
C1368 H1350 0.951 . S
C1368 C1369 1.366 . S
C1368 C1370 1.388 . S
C1369 C1368 1.366 . S
C1369 C1373 1.385 . S
C1370 H1351 0.951 . S
C1370 C1368 1.388 . S
C1370 C1371 1.366 . S
C1371 C1370 1.366 . S
C1371 C1372 1.414 . S
C1371 C1374 1.499 . S
C1372 H1352 0.950 . S
C1372 C1371 1.414 . S
C1372 C1373 1.374 . S
C1373 H1353 0.950 . S
C1373 C1369 1.385 . S
C1373 C1372 1.374 . S
C1374 C1371 1.499 . S
C1374 C1375 1.373 . S
C1374 C1376 1.389 . S
C1375 H1354 0.950 . S
C1375 C1374 1.373 . S
C1375 C1391 1.377 . S
C1376 C1374 1.389 . S
C1376 C1377 1.524 . S
C1376 C1390 1.377 . S
C1377 C1376 1.524 . S
C1377 C1378 1.397 . S
C1377 C1382 1.363 . S
C1378 H1355 0.950 . S
C1378 C1377 1.397 . S
C1378 C1379 1.334 . S
C1379 H1356 0.950 . S
C1379 C1378 1.334 . S
C1379 C1380 1.287 . S
C1380 C1379 1.287 . S
C1380 C1381 1.524 . S
C1380 H1399 0.913 . S
C1381 H1357 0.950 . S
C1381 C1380 1.524 . S
C1381 C1382 1.415 . S
C1382 H1358 0.950 . S
C1382 C1377 1.363 . S
C1382 C1381 1.415 . S
C1383 H1359 0.951 . S
C1383 C1384 1.366 . S
C1383 C1385 1.388 . S
C1384 C1383 1.366 . S
C1384 C1388 1.385 . S
C1385 H1360 0.951 . S
C1385 C1383 1.388 . S
C1385 C1386 1.366 . S
C1386 C1385 1.366 . S
C1386 C1387 1.414 . S
C1386 C1389 1.499 . S
C1387 H1361 0.950 . S
C1387 C1386 1.414 . S
C1387 C1388 1.374 . S
C1388 H1362 0.950 . S
C1388 C1384 1.385 . S
C1388 C1387 1.374 . S
C1389 C1386 1.499 . S
C1389 C1390 1.373 . S
C1389 C1391 1.389 . S
C1390 H1363 0.950 . S
C1390 C1376 1.377 . S
C1390 C1389 1.373 . S
C1391 C1375 1.377 . S
C1391 C1389 1.389 . S
C1391 C1392 1.524 . S
C1392 C1391 1.524 . S
C1392 C1393 1.397 . S
C1392 C1397 1.363 . S
C1393 H1364 0.950 . S
C1393 C1392 1.397 . S
C1393 C1394 1.334 . S
C1394 H1365 0.950 . S
C1394 C1393 1.334 . S
C1394 C1395 1.287 . S
C1395 C1394 1.287 . S
C1395 C1396 1.524 . S
C1395 H1398 0.999 . S
C1396 H1366 0.950 . S
C1396 C1395 1.524 . S
C1396 C1397 1.415 . S
C1397 H1367 0.950 . S
C1397 C1392 1.363 . S
C1397 C1396 1.415 . S
H1398 C1395 0.999 . S
H1399 C1380 0.913 . S
H1400 C1418 0.951 . S
H1401 C1420 0.951 . S
H1402 C1422 0.950 . S
H1403 C1423 0.950 . S
H1404 C1425 0.950 . S
H1405 C1428 0.950 . S
H1406 C1429 0.950 . S
H1407 C1431 0.950 . S
H1408 C1432 0.950 . S
H1409 C1433 0.951 . S
H1410 C1435 0.951 . S
H1411 C1437 0.950 . S
H1412 C1438 0.950 . S
H1413 C1440 0.950 . S
H1414 C1443 0.950 . S
H1415 C1444 0.950 . S
H1416 C1446 0.950 . S
H1417 C1447 0.950 . S
C1418 H1400 0.951 . S
C1418 C1419 1.366 . S
C1418 C1420 1.388 . S
C1419 C1418 1.366 . S
C1419 C1423 1.385 . S
C1420 H1401 0.951 . S
C1420 C1418 1.388 . S
C1420 C1421 1.366 . S
C1421 C1420 1.366 . S
C1421 C1422 1.414 . S
C1421 C1424 1.499 . S
C1422 H1402 0.950 . S
C1422 C1421 1.414 . S
C1422 C1423 1.374 . S
C1423 H1403 0.950 . S
C1423 C1419 1.385 . S
C1423 C1422 1.374 . S
C1424 C1421 1.499 . S
C1424 C1425 1.373 . S
C1424 C1426 1.389 . S
C1425 H1404 0.950 . S
C1425 C1424 1.373 . S
C1425 C1441 1.377 . S
C1426 C1424 1.389 . S
C1426 C1427 1.524 . S
C1426 C1440 1.377 . S
C1427 C1426 1.524 . S
C1427 C1428 1.397 . S
C1427 C1432 1.363 . S
C1428 H1405 0.950 . S
C1428 C1427 1.397 . S
C1428 C1429 1.334 . S
C1429 H1406 0.950 . S
C1429 C1428 1.334 . S
C1429 C1430 1.287 . S
C1430 C1429 1.287 . S
C1430 C1431 1.524 . S
C1430 H1449 0.913 . S
C1431 H1407 0.950 . S
C1431 C1430 1.524 . S
C1431 C1432 1.415 . S
C1432 H1408 0.950 . S
C1432 C1427 1.363 . S
C1432 C1431 1.415 . S
C1433 H1409 0.951 . S
C1433 C1434 1.366 . S
C1433 C1435 1.388 . S
C1434 C1433 1.366 . S
C1434 C1438 1.385 . S
C1435 H1410 0.951 . S
C1435 C1433 1.388 . S
C1435 C1436 1.366 . S
C1436 C1435 1.366 . S
C1436 C1437 1.414 . S
C1436 C1439 1.499 . S
C1437 H1411 0.950 . S
C1437 C1436 1.414 . S
C1437 C1438 1.374 . S
C1438 H1412 0.950 . S
C1438 C1434 1.385 . S
C1438 C1437 1.374 . S
C1439 C1436 1.499 . S
C1439 C1440 1.373 . S
C1439 C1441 1.389 . S
C1440 H1413 0.950 . S
C1440 C1426 1.377 . S
C1440 C1439 1.373 . S
C1441 C1425 1.377 . S
C1441 C1439 1.389 . S
C1441 C1442 1.524 . S
C1442 C1441 1.524 . S
C1442 C1443 1.397 . S
C1442 C1447 1.363 . S
C1443 H1414 0.950 . S
C1443 C1442 1.397 . S
C1443 C1444 1.334 . S
C1444 H1415 0.950 . S
C1444 C1443 1.334 . S
C1444 C1445 1.287 . S
C1445 C1444 1.287 . S
C1445 C1446 1.524 . S
C1445 H1448 0.999 . S
C1446 H1416 0.950 . S
C1446 C1445 1.524 . S
C1446 C1447 1.415 . S
C1447 H1417 0.950 . S
C1447 C1442 1.363 . S
C1447 C1446 1.415 . S
H1448 C1445 0.999 . S
H1449 C1430 0.913 . S
H1450 C1468 0.951 . S
H1451 C1470 0.951 . S
H1452 C1472 0.950 . S
H1453 C1473 0.950 . S
H1454 C1475 0.950 . S
H1455 C1478 0.950 . S
H1456 C1479 0.950 . S
H1457 C1481 0.950 . S
H1458 C1482 0.950 1_554 S
H1459 C1483 0.951 . S
H1460 C1485 0.951 . S
H1461 C1487 0.950 . S
H1462 C1488 0.950 . S
H1463 C1490 0.950 . S
H1464 C1493 0.950 . S
H1465 C1494 0.950 . S
H1466 C1496 0.950 . S
H1467 C1497 0.950 1_556 S
C1468 H1450 0.951 . S
C1468 C1469 1.372 . S
C1468 C1470 1.388 . S
C1469 C1468 1.372 . S
C1469 C1473 1.378 1_554 S
C1470 H1451 0.951 . S
C1470 C1468 1.388 . S
C1470 C1471 1.366 1_554 S
C1471 C1470 1.366 1_556 S
C1471 C1472 1.414 . S
C1471 C1474 1.499 . S
C1472 H1452 0.950 . S
C1472 C1471 1.414 . S
C1472 C1473 1.374 . S
C1473 H1453 0.950 . S
C1473 C1469 1.378 1_556 S
C1473 C1472 1.374 . S
C1474 C1471 1.499 . S
C1474 C1475 1.373 1_556 S
C1474 C1476 1.389 . S
C1475 H1454 0.950 . S
C1475 C1474 1.373 1_554 S
C1475 C1491 1.377 . S
C1476 C1474 1.389 . S
C1476 C1477 1.524 . S
C1476 C1490 1.377 . S
C1477 C1476 1.524 . S
C1477 C1478 1.397 . S
C1477 C1482 1.363 . S
C1478 H1455 0.950 . S
C1478 C1477 1.397 . S
C1478 C1479 1.334 . S
C1479 H1456 0.950 . S
C1479 C1478 1.334 . S
C1479 C1480 1.287 . S
C1480 C1479 1.287 . S
C1480 C1481 1.524 . S
C1480 H1499 0.913 . S
C1481 H1457 0.950 . S
C1481 C1480 1.524 . S
C1481 C1482 1.415 . S
C1482 H1458 0.950 1_556 S
C1482 C1477 1.363 . S
C1482 C1481 1.415 . S
C1483 H1459 0.951 . S
C1483 C1484 1.360 1_556 S
C1483 C1485 1.388 . S
C1484 C1483 1.360 1_554 S
C1484 C1488 1.391 . S
C1485 H1460 0.951 . S
C1485 C1483 1.388 . S
C1485 C1486 1.366 1_556 S
C1486 C1485 1.366 1_554 S
C1486 C1487 1.414 . S
C1486 C1489 1.499 . S
C1487 H1461 0.950 . S
C1487 C1486 1.414 . S
C1487 C1488 1.374 . S
C1488 H1462 0.950 . S
C1488 C1484 1.391 . S
C1488 C1487 1.374 . S
C1489 C1486 1.499 . S
C1489 C1490 1.373 1_554 S
C1489 C1491 1.389 . S
C1490 H1463 0.950 . S
C1490 C1476 1.377 . S
C1490 C1489 1.373 1_556 S
C1491 C1475 1.377 . S
C1491 C1489 1.389 . S
C1491 C1492 1.524 . S
C1492 C1491 1.524 . S
C1492 C1493 1.397 . S
C1492 C1497 1.363 . S
C1493 H1464 0.950 . S
C1493 C1492 1.397 . S
C1493 C1494 1.334 . S
C1494 H1465 0.950 . S
C1494 C1493 1.334 . S
C1494 C1495 1.287 . S
C1495 C1494 1.287 . S
C1495 C1496 1.524 . S
C1495 H1498 0.999 . S
C1496 H1466 0.950 . S
C1496 C1495 1.524 . S
C1496 C1497 1.415 . S
C1497 H1467 0.950 1_554 S
C1497 C1492 1.363 . S
C1497 C1496 1.415 . S
H1498 C1495 0.999 . S
H1499 C1480 0.913 . S
H1500 C1518 0.951 . S
H1501 C1520 0.951 . S
H1502 C1522 0.950 . S
H1503 C1523 0.950 . S
H1504 C1525 0.950 . S
H1505 C1528 0.950 . S
H1506 C1529 0.950 . S
H1507 C1531 0.950 . S
H1508 C1532 0.950 . S
H1509 C1533 0.951 . S
H1510 C1535 0.951 . S
H1511 C1537 0.950 . S
H1512 C1538 0.950 . S
H1513 C1540 0.950 . S
H1514 C1543 0.950 . S
H1515 C1544 0.950 . S
H1516 C1546 0.950 . S
H1517 C1547 0.950 . S
C1518 H1500 0.951 . S
C1518 C1519 1.366 . S
C1518 C1520 1.388 . S
C1519 C1518 1.366 . S
C1519 C1523 1.385 . S
C1520 H1501 0.951 . S
C1520 C1518 1.388 . S
C1520 C1521 1.366 . S
C1521 C1520 1.366 . S
C1521 C1522 1.414 . S
C1521 C1524 1.499 . S
C1522 H1502 0.950 . S
C1522 C1521 1.414 . S
C1522 C1523 1.374 . S
C1523 H1503 0.950 . S
C1523 C1519 1.385 . S
C1523 C1522 1.374 . S
C1524 C1521 1.499 . S
C1524 C1525 1.373 . S
C1524 C1526 1.389 . S
C1525 H1504 0.950 . S
C1525 C1524 1.373 . S
C1525 C1541 1.377 . S
C1526 C1524 1.389 . S
C1526 C1527 1.524 . S
C1526 C1540 1.377 . S
C1527 C1526 1.524 . S
C1527 C1528 1.397 . S
C1527 C1532 1.363 . S
C1528 H1505 0.950 . S
C1528 C1527 1.397 . S
C1528 C1529 1.334 . S
C1529 H1506 0.950 . S
C1529 C1528 1.334 . S
C1529 C1530 1.287 . S
C1530 C1529 1.287 . S
C1530 C1531 1.524 . S
C1530 H1549 0.913 . S
C1531 H1507 0.950 . S
C1531 C1530 1.524 . S
C1531 C1532 1.415 . S
C1532 H1508 0.950 . S
C1532 C1527 1.363 . S
C1532 C1531 1.415 . S
C1533 H1509 0.951 . S
C1533 C1534 1.366 . S
C1533 C1535 1.388 . S
C1534 C1533 1.366 . S
C1534 C1538 1.385 . S
C1535 H1510 0.951 . S
C1535 C1533 1.388 . S
C1535 C1536 1.366 . S
C1536 C1535 1.366 . S
C1536 C1537 1.414 . S
C1536 C1539 1.499 . S
C1537 H1511 0.950 . S
C1537 C1536 1.414 . S
C1537 C1538 1.374 . S
C1538 H1512 0.950 . S
C1538 C1534 1.385 . S
C1538 C1537 1.374 . S
C1539 C1536 1.499 . S
C1539 C1540 1.373 . S
C1539 C1541 1.389 . S
C1540 H1513 0.950 . S
C1540 C1526 1.377 . S
C1540 C1539 1.373 . S
C1541 C1525 1.377 . S
C1541 C1539 1.389 . S
C1541 C1542 1.524 . S
C1542 C1541 1.524 . S
C1542 C1543 1.397 . S
C1542 C1547 1.363 . S
C1543 H1514 0.950 . S
C1543 C1542 1.397 . S
C1543 C1544 1.334 . S
C1544 H1515 0.950 . S
C1544 C1543 1.334 . S
C1544 C1545 1.287 . S
C1545 C1544 1.287 . S
C1545 C1546 1.524 . S
C1545 H1548 0.999 . S
C1546 H1516 0.950 . S
C1546 C1545 1.524 . S
C1546 C1547 1.415 . S
C1547 H1517 0.950 . S
C1547 C1542 1.363 . S
C1547 C1546 1.415 . S
H1548 C1545 0.999 . S
H1549 C1530 0.913 . S
H1550 C1568 0.951 . S
H1551 C1570 0.951 . S
H1552 C1572 0.950 . S
H1553 C1573 0.950 . S
H1554 C1575 0.950 . S
H1555 C1578 0.950 . S
H1556 C1579 0.950 . S
H1557 C1581 0.950 . S
H1558 C1582 0.950 . S
H1559 C1583 0.951 . S
H1560 C1585 0.951 . S
H1561 C1587 0.950 . S
H1562 C1588 0.950 . S
H1563 C1590 0.950 . S
H1564 C1593 0.950 . S
H1565 C1594 0.950 . S
H1566 C1596 0.950 . S
H1567 C1597 0.950 . S
C1568 H1550 0.951 . S
C1568 C1569 1.366 . S
C1568 C1570 1.388 . S
C1569 C1568 1.366 . S
C1569 C1573 1.384 1_554 S
C1570 H1551 0.951 . S
C1570 C1568 1.388 . S
C1570 C1571 1.366 . S
C1571 C1570 1.366 . S
C1571 C1572 1.414 1_554 S
C1571 C1574 1.499 . S
C1572 H1552 0.950 . S
C1572 C1571 1.414 1_556 S
C1572 C1573 1.374 . S
C1573 H1553 0.950 . S
C1573 C1569 1.384 1_556 S
C1573 C1572 1.374 . S
C1574 C1571 1.499 . S
C1574 C1575 1.373 1_554 S
C1574 C1576 1.389 . S
C1575 H1554 0.950 . S
C1575 C1574 1.373 1_556 S
C1575 C1591 1.377 . S
C1576 C1574 1.389 . S
C1576 C1577 1.524 . S
C1576 C1590 1.377 . S
C1577 C1576 1.524 . S
C1577 C1578 1.397 . S
C1577 C1582 1.363 . S
C1578 H1555 0.950 . S
C1578 C1577 1.397 . S
C1578 C1579 1.334 . S
C1579 H1556 0.950 . S
C1579 C1578 1.334 . S
C1579 C1580 1.287 . S
C1580 C1579 1.287 . S
C1580 C1581 1.524 . S
C1580 H1599 0.913 . S
C1581 H1557 0.950 . S
C1581 C1580 1.524 . S
C1581 C1582 1.415 . S
C1582 H1558 0.950 . S
C1582 C1577 1.363 . S
C1582 C1581 1.415 . S
C1583 H1559 0.951 . S
C1583 C1584 1.365 1_556 S
C1583 C1585 1.388 . S
C1584 C1583 1.365 1_554 S
C1584 C1588 1.385 . S
C1585 H1560 0.951 . S
C1585 C1583 1.388 . S
C1585 C1586 1.366 . S
C1586 C1585 1.366 . S
C1586 C1587 1.414 1_556 S
C1586 C1589 1.499 . S
C1587 H1561 0.950 . S
C1587 C1586 1.414 1_554 S
C1587 C1588 1.374 . S
C1588 H1562 0.950 . S
C1588 C1584 1.385 . S
C1588 C1587 1.374 . S
C1589 C1586 1.499 . S
C1589 C1590 1.373 1_556 S
C1589 C1591 1.389 . S
C1590 H1563 0.950 . S
C1590 C1576 1.377 . S
C1590 C1589 1.373 1_554 S
C1591 C1575 1.377 . S
C1591 C1589 1.389 . S
C1591 C1592 1.524 . S
C1592 C1591 1.524 . S
C1592 C1593 1.397 . S
C1592 C1597 1.363 . S
C1593 H1564 0.950 . S
C1593 C1592 1.397 . S
C1593 C1594 1.334 . S
C1594 H1565 0.950 . S
C1594 C1593 1.334 . S
C1594 C1595 1.287 . S
C1595 C1594 1.287 . S
C1595 C1596 1.524 . S
C1595 H1598 0.999 . S
C1596 H1566 0.950 . S
C1596 C1595 1.524 . S
C1596 C1597 1.415 . S
C1597 H1567 0.950 . S
C1597 C1592 1.363 . S
C1597 C1596 1.415 . S
H1598 C1595 0.999 . S
H1599 C1580 0.913 . S
C419 C5 1.432 . S
C434 C221 1.437 . S
C469 C31 1.434 . S
C484 C89 1.442 . S
C534 C128 1.440 . S
C519 C53 1.433 . S
C569 C71 1.431 . S
C584 C182 1.437 . S
C634 C284 1.441 . S
C619 C75 1.434 . S
C684 C338 1.437 . S
C669 C9 1.432 . S
C734 C377 1.436 . S
C719 C27 1.431 . S
C784 C245 1.441 . S
C769 C49 1.433 . S
C819 C51 1.432 . S
C834 C143 1.436 . S
C869 C72 1.434 . S
C884 C167 1.439 . S
C919 C6 1.433 . S
C934 C206 1.438 . S
C984 C104 1.435 . S
C969 C29 1.430 . S
C1019 C28 1.434 . S
C1034 C362 1.438 . S
C1084 C260 1.436 . S
C1069 C50 1.432 . S
C1134 C299 1.435 . S
C1119 C73 1.430 . S
C1169 C7 1.433 . S
C1184 C323 1.438 . S
C1234 C109 1.491 . S
C1219 C4 1.485 . S
C1284 C148 1.491 . S
C1269 C30 1.485 . S
C1319 C52 1.485 . S
C1334 C187 1.485 1_554 S
C1369 C70 1.485 . S
C1384 C226 1.486 . S
C1434 C265 1.491 . S
C1419 C74 1.485 . S
C1469 C8 1.485 . S
C1484 C304 1.491 1_554 S
C1519 C26 1.485 . S
C1534 C343 1.485 . S
C1569 C48 1.485 . S
C1584 C382 1.485 . S
