# Generated by pormake.
# Topology ctn, (3,4)-cn, num edge types: 1
# Building blocks:
#     Node 0, Type 0, BuildingBlock: CUQRIR_clean_linker_1, # of connection points: 3
#     Node 1, Type 0, BuildingBlock: CUQRIR_clean_linker_1, # of connection points: 3
#     Node 2, Type 0, BuildingBlock: CUQRIR_clean_linker_1, # of connection points: 3
#     Node 3, Type 0, BuildingBlock: CUQRIR_clean_linker_1, # of connection points: 3
#     Node 4, Type 0, BuildingBlock: CUQRIR_clean_linker_1, # of connection points: 3
#     Node 5, Type 0, BuildingBlock: CUQRIR_clean_linker_1, # of connection points: 3
#     Node 6, Type 0, BuildingBlock: CUQRIR_clean_linker_1, # of connection points: 3
#     Node 7, Type 0, BuildingBlock: CUQRIR_clean_linker_1, # of connection points: 3
#     Node 8, Type 0, BuildingBlock: CUQRIR_clean_linker_1, # of connection points: 3
#     Node 9, Type 0, BuildingBlock: CUQRIR_clean_linker_1, # of connection points: 3
#     Node 10, Type 0, BuildingBlock: CUQRIR_clean_linker_1, # of connection points: 3
#     Node 11, Type 0, BuildingBlock: CUQRIR_clean_linker_1, # of connection points: 3
#     Node 12, Type 0, BuildingBlock: CUQRIR_clean_linker_1, # of connection points: 3
#     Node 13, Type 0, BuildingBlock: CUQRIR_clean_linker_1, # of connection points: 3
#     Node 14, Type 0, BuildingBlock: CUQRIR_clean_linker_1, # of connection points: 3
#     Node 15, Type 0, BuildingBlock: CUQRIR_clean_linker_1, # of connection points: 3
#     Node 16, Type 1, BuildingBlock: KUFVIS_clean_sbu_0, # of connection points: 4
#     Node 17, Type 1, BuildingBlock: KUFVIS_clean_sbu_0, # of connection points: 4
#     Node 18, Type 1, BuildingBlock: KUFVIS_clean_sbu_0, # of connection points: 4
#     Node 19, Type 1, BuildingBlock: KUFVIS_clean_sbu_0, # of connection points: 4
#     Node 20, Type 1, BuildingBlock: KUFVIS_clean_sbu_0, # of connection points: 4
#     Node 21, Type 1, BuildingBlock: KUFVIS_clean_sbu_0, # of connection points: 4
#     Node 22, Type 1, BuildingBlock: KUFVIS_clean_sbu_0, # of connection points: 4
#     Node 23, Type 1, BuildingBlock: KUFVIS_clean_sbu_0, # of connection points: 4
#     Node 24, Type 1, BuildingBlock: KUFVIS_clean_sbu_0, # of connection points: 4
#     Node 25, Type 1, BuildingBlock: KUFVIS_clean_sbu_0, # of connection points: 4
#     Node 26, Type 1, BuildingBlock: KUFVIS_clean_sbu_0, # of connection points: 4
#     Node 27, Type 1, BuildingBlock: KUFVIS_clean_sbu_0, # of connection points: 4
#     Edge 28, Type (0, 1), BuildingBlock: XIVTED_clean_linker_0, # of connection points: 2
#     Edge 29, Type (0, 1), BuildingBlock: XIVTED_clean_linker_0, # of connection points: 2
#     Edge 30, Type (0, 1), BuildingBlock: XIVTED_clean_linker_0, # of connection points: 2
#     Edge 31, Type (0, 1), BuildingBlock: XIVTED_clean_linker_0, # of connection points: 2
#     Edge 32, Type (0, 1), BuildingBlock: XIVTED_clean_linker_0, # of connection points: 2
#     Edge 33, Type (0, 1), BuildingBlock: XIVTED_clean_linker_0, # of connection points: 2
#     Edge 34, Type (0, 1), BuildingBlock: XIVTED_clean_linker_0, # of connection points: 2
#     Edge 35, Type (0, 1), BuildingBlock: XIVTED_clean_linker_0, # of connection points: 2
#     Edge 36, Type (0, 1), BuildingBlock: XIVTED_clean_linker_0, # of connection points: 2
#     Edge 37, Type (0, 1), BuildingBlock: XIVTED_clean_linker_0, # of connection points: 2
#     Edge 38, Type (0, 1), BuildingBlock: XIVTED_clean_linker_0, # of connection points: 2
#     Edge 39, Type (0, 1), BuildingBlock: XIVTED_clean_linker_0, # of connection points: 2
#     Edge 40, Type (0, 1), BuildingBlock: XIVTED_clean_linker_0, # of connection points: 2
#     Edge 41, Type (0, 1), BuildingBlock: XIVTED_clean_linker_0, # of connection points: 2
#     Edge 42, Type (0, 1), BuildingBlock: XIVTED_clean_linker_0, # of connection points: 2
#     Edge 43, Type (0, 1), BuildingBlock: XIVTED_clean_linker_0, # of connection points: 2
#     Edge 44, Type (0, 1), BuildingBlock: XIVTED_clean_linker_0, # of connection points: 2
#     Edge 45, Type (0, 1), BuildingBlock: XIVTED_clean_linker_0, # of connection points: 2
#     Edge 46, Type (0, 1), BuildingBlock: XIVTED_clean_linker_0, # of connection points: 2
#     Edge 47, Type (0, 1), BuildingBlock: XIVTED_clean_linker_0, # of connection points: 2
#     Edge 48, Type (0, 1), BuildingBlock: XIVTED_clean_linker_0, # of connection points: 2
#     Edge 49, Type (0, 1), BuildingBlock: XIVTED_clean_linker_0, # of connection points: 2
#     Edge 50, Type (0, 1), BuildingBlock: XIVTED_clean_linker_0, # of connection points: 2
#     Edge 51, Type (0, 1), BuildingBlock: XIVTED_clean_linker_0, # of connection points: 2
#     Edge 52, Type (0, 1), BuildingBlock: XIVTED_clean_linker_0, # of connection points: 2
#     Edge 53, Type (0, 1), BuildingBlock: XIVTED_clean_linker_0, # of connection points: 2
#     Edge 54, Type (0, 1), BuildingBlock: XIVTED_clean_linker_0, # of connection points: 2
#     Edge 55, Type (0, 1), BuildingBlock: XIVTED_clean_linker_0, # of connection points: 2
#     Edge 56, Type (0, 1), BuildingBlock: XIVTED_clean_linker_0, # of connection points: 2
#     Edge 57, Type (0, 1), BuildingBlock: XIVTED_clean_linker_0, # of connection points: 2
#     Edge 58, Type (0, 1), BuildingBlock: XIVTED_clean_linker_0, # of connection points: 2
#     Edge 59, Type (0, 1), BuildingBlock: XIVTED_clean_linker_0, # of connection points: 2
#     Edge 60, Type (0, 1), BuildingBlock: XIVTED_clean_linker_0, # of connection points: 2
#     Edge 61, Type (0, 1), BuildingBlock: XIVTED_clean_linker_0, # of connection points: 2
#     Edge 62, Type (0, 1), BuildingBlock: XIVTED_clean_linker_0, # of connection points: 2
#     Edge 63, Type (0, 1), BuildingBlock: XIVTED_clean_linker_0, # of connection points: 2
#     Edge 64, Type (0, 1), BuildingBlock: XIVTED_clean_linker_0, # of connection points: 2
#     Edge 65, Type (0, 1), BuildingBlock: XIVTED_clean_linker_0, # of connection points: 2
#     Edge 66, Type (0, 1), BuildingBlock: XIVTED_clean_linker_0, # of connection points: 2
#     Edge 67, Type (0, 1), BuildingBlock: XIVTED_clean_linker_0, # of connection points: 2
#     Edge 68, Type (0, 1), BuildingBlock: XIVTED_clean_linker_0, # of connection points: 2
#     Edge 69, Type (0, 1), BuildingBlock: XIVTED_clean_linker_0, # of connection points: 2
#     Edge 70, Type (0, 1), BuildingBlock: XIVTED_clean_linker_0, # of connection points: 2
#     Edge 71, Type (0, 1), BuildingBlock: XIVTED_clean_linker_0, # of connection points: 2
#     Edge 72, Type (0, 1), BuildingBlock: XIVTED_clean_linker_0, # of connection points: 2
#     Edge 73, Type (0, 1), BuildingBlock: XIVTED_clean_linker_0, # of connection points: 2
#     Edge 74, Type (0, 1), BuildingBlock: XIVTED_clean_linker_0, # of connection points: 2
#     Edge 75, Type (0, 1), BuildingBlock: XIVTED_clean_linker_0, # of connection points: 2
# Relax obj value: 0.092
# Max RMSD: 0.206
# Mean RMSD: 0.137
data_MOF--net-ctn--node1-KUFVIS_clean_sbu_0--node2-CUQRIR_clean_linker_1--edge1-XIVTED_clean_linker_0
_symmetry_space_group_name_H-M    P1
_symmetry_Int_Tables_number       1
_symmetry_cell_setting            triclinic
loop_
_symmetry_equiv_pos_as_xyz
'x, y, z'
_cell_length_a     51.400609
_cell_length_b     47.706051
_cell_length_c     49.305857
_cell_angle_alpha  97.431326
_cell_angle_beta   89.291349
_cell_angle_gamma 94.173528
loop_
_atom_site_label
_atom_site_type_symbol
_atom_site_fract_x
_atom_site_fract_y
_atom_site_fract_z
_atom_type_partial_charge
C0 C 0.04717 0.0237 0.08284 0.0
N1 N 0.05781 0.03677 0.06202 0.0
N2 N 0.02488 0.03532 0.09185 0.0
C3 C 0.05852 0.99972 0.0947 0.0
C4 C 0.02225 0.05582 0.07573 0.0
N5 N 0.04226 0.05686 0.05764 0.0
C6 C 0.99935 0.07391 0.07676 0.0
H7 H 0.04815 0.97946 0.08585 0.0
H8 H 0.05565 1.00203 0.1172 0.0
H9 H 0.07955 0.99837 0.09007 0.0
H10 H 1.00422 0.09407 0.0902 0.0
H11 H 0.98178 0.06305 0.0851 0.0
H12 H 0.99488 0.07905 0.05607 0.0
C13 C 0.30935 0.72818 0.20666 0.0
N14 N 0.31757 0.71502 0.22746 0.0
N15 N 0.32239 0.75386 0.20657 0.0
C16 C 0.28685 0.71726 0.188 0.0
C17 C 0.33866 0.75607 0.22825 0.0
N18 N 0.33562 0.73254 0.24117 0.0
C19 C 0.35863 0.78042 0.2356 0.0
H20 H 0.29408 0.70272 0.17061 0.0
H21 H 0.27789 0.73483 0.17972 0.0
H22 H 0.27163 0.70535 0.19897 0.0
H23 H 0.35028 0.79602 0.25136 0.0
H24 H 0.36402 0.79123 0.2175 0.0
H25 H 0.37645 0.77303 0.24406 0.0
C26 C 0.9827 0.51331 0.07968 0.0
N27 N 0.99864 0.49185 0.08001 0.0
N28 N 0.96339 0.50605 0.06097 0.0
C29 C 0.98559 0.54116 0.09803 0.0
C30 C 0.96823 0.47938 0.04997 0.0
N31 N 0.98956 0.47076 0.06151 0.0
C32 C 0.95148 0.46121 0.02875 0.0
H33 H 0.97531 0.53878 0.1176 0.0
H34 H 0.97697 0.55815 0.08849 0.0
H35 H 1.00626 0.54784 0.10281 0.0
H36 H 0.95877 0.46485 0.00813 0.0
H37 H 0.93088 0.46669 0.03062 0.0
H38 H 0.95239 0.43838 0.03062 0.0
C39 C 0.66493 0.80579 0.21399 0.0
N40 N 0.68763 0.81548 0.20285 0.0
N41 N 0.6614 0.81968 0.2394 0.0
C42 C 0.64771 0.78075 0.20139 0.0
C43 C 0.68274 0.83798 0.24338 0.0
N44 N 0.69878 0.83529 0.22139 0.0
C45 C 0.68775 0.85877 0.26877 0.0
H46 H 0.63599 0.77083 0.21712 0.0
H47 H 0.65952 0.7646 0.18988 0.0
H48 H 0.63415 0.78801 0.18686 0.0
H49 H 0.70005 0.84924 0.28295 0.0
H50 H 0.6692 0.864 0.27933 0.0
H51 H 0.69831 0.87855 0.26366 0.0
C52 C 0.02664 0.98719 0.50529 0.0
N53 N 0.04832 0.98755 0.52077 0.0
N54 N 0.02903 1.00748 0.48845 0.0
C55 C 1.00339 0.96619 0.50568 0.0
C56 C 0.05306 0.02027 0.49418 0.0
N57 N 0.06483 0.00828 0.51386 0.0
C58 C 0.06606 0.04266 0.47876 0.0
H59 H 1.007 0.94683 0.4915 0.0
H60 H 0.9856 0.97509 0.49883 0.0
H61 H 1.00015 0.96011 0.52651 0.0
H62 H 0.05152 0.05387 0.46865 0.0
H63 H 0.07905 0.0325 0.46285 0.0
H64 H 0.07819 0.0582 0.49284 0.0
C65 C 0.17367 0.7126 0.83981 0.0
N66 N 0.19415 0.70395 0.85283 0.0
N67 N 0.17222 0.69987 0.81368 0.0
C68 C 0.15607 0.73488 0.85206 0.0
C69 C 0.19267 0.68342 0.81103 0.0
N70 N 0.20622 0.68613 0.83473 0.0
C71 C 0.19992 0.66551 0.78508 0.0
H72 H 0.14421 0.74269 0.83639 0.0
H73 H 0.16779 0.75306 0.86335 0.0
H74 H 0.14254 0.72568 0.8668 0.0
H75 H 0.18285 0.66009 0.77136 0.0
H76 H 0.20809 0.64577 0.78973 0.0
H77 H 0.21512 0.67756 0.77423 0.0
C78 C 0.97201 0.53772 0.46507 0.0
N79 N 0.99079 0.55937 0.46607 0.0
N80 N 0.95312 0.54396 0.4838 0.0
C81 C 0.97181 0.51086 0.44534 0.0
C82 C 0.96068 0.5703 0.49583 0.0
N83 N 0.98349 0.57983 0.48496 0.0
C84 C 0.94563 0.58629 0.51841 0.0
H85 H 0.97737 0.51582 0.42457 0.0
H86 H 0.95251 0.49882 0.44448 0.0
H87 H 0.98641 0.49716 0.45196 0.0
H88 H 0.95042 0.57891 0.53806 0.0
H89 H 0.92434 0.58185 0.51507 0.0
H90 H 0.95032 0.60942 0.52006 0.0
C91 C 0.80559 0.83076 0.85545 0.0
N92 N 0.82625 0.81484 0.84984 0.0
N93 N 0.80727 0.85338 0.84143 0.0
C94 C 0.7836 0.82403 0.87453 0.0
C95 C 0.82976 0.85071 0.82701 0.0
N96 N 0.84153 0.82738 0.83225 0.0
C97 C 0.83871 0.86912 0.80556 0.0
H98 H 0.76929 0.80833 0.86331 0.0
H99 H 0.77355 0.84331 0.88223 0.0
H100 H 0.79091 0.81457 0.89211 0.0
H101 H 0.8225 0.88042 0.79846 0.0
H102 H 0.84712 0.85628 0.78765 0.0
H103 H 0.85411 0.88507 0.81442 0.0
C104 C 0.30363 0.32966 0.35199 0.0
N105 N 0.32442 0.31393 0.34644 0.0
N106 N 0.30497 0.35203 0.33762 0.0
C107 C 0.28185 0.32302 0.37134 0.0
C108 C 0.32738 0.34938 0.32306 0.0
N109 N 0.33944 0.32631 0.32853 0.0
C110 C 0.33591 0.3675 0.30123 0.0
H111 H 0.2675 0.30719 0.36036 0.0
H112 H 0.27178 0.3423 0.37899 0.0
H113 H 0.28937 0.31376 0.38895 0.0
H114 H 0.35114 0.38382 0.30976 0.0
H115 H 0.31943 0.37836 0.29404 0.0
H116 H 0.34436 0.35452 0.28343 0.0
C117 C 0.47916 0.01149 0.58009 0.0
N118 N 0.49422 0.98967 0.58231 0.0
N119 N 0.46237 1.00514 0.55878 0.0
C120 C 0.48237 0.03996 0.59736 0.0
C121 C 0.46808 0.97871 0.54784 0.0
N122 N 0.48756 0.96943 0.56193 0.0
C123 C 0.45345 0.96113 0.52456 0.0
H124 H 0.46985 0.03971 0.61582 0.0
H125 H 0.47654 0.05699 0.58584 0.0
H126 H 0.50291 0.0448 0.60409 0.0
H127 H 0.46245 0.96595 0.50497 0.0
H128 H 0.43271 0.96616 0.52465 0.0
H129 H 0.45434 0.93813 0.52559 0.0
C130 C 0.16765 0.30724 0.71278 0.0
N131 N 0.19033 0.31697 0.70163 0.0
N132 N 0.16469 0.3202 0.73865 0.0
C133 C 0.14986 0.28296 0.69961 0.0
C134 C 0.18636 0.33796 0.74292 0.0
N135 N 0.20206 0.33583 0.72063 0.0
C136 C 0.19195 0.35779 0.76883 0.0
H137 H 0.13804 0.27271 0.71505 0.0
H138 H 0.16126 0.26685 0.68745 0.0
H139 H 0.13641 0.29114 0.68556 0.0
H140 H 0.20435 0.34747 0.78232 0.0
H141 H 0.17364 0.36291 0.77992 0.0
H142 H 0.20264 0.37772 0.76428 0.0
C143 C 0.80996 0.22487 0.7036 0.0
N144 N 0.81775 0.21196 0.72476 0.0
N145 N 0.82281 0.25066 0.7037 0.0
C146 C 0.78807 0.2135 0.68429 0.0
C147 C 0.83851 0.25322 0.72587 0.0
N148 N 0.8353 0.22977 0.73891 0.0
C149 C 0.85815 0.27781 0.73357 0.0
H150 H 0.79593 0.19901 0.66722 0.0
H151 H 0.77916 0.23085 0.6756 0.0
H152 H 0.77268 0.20142 0.69486 0.0
H153 H 0.84938 0.29332 0.7491 0.0
H154 H 0.8638 0.28863 0.71555 0.0
H155 H 0.87587 0.27066 0.74245 0.0
C156 C 0.55159 0.52969 0.59017 0.0
N157 N 0.55956 0.53801 0.56594 0.0
N158 N 0.53121 0.54408 0.6005 0.0
C159 C 0.56437 0.50822 0.60439 0.0
C160 C 0.52714 0.56175 0.58184 0.0
N161 N 0.54436 0.55812 0.56077 0.0
C162 C 0.50563 0.58178 0.58397 0.0
H163 H 0.55574 0.48669 0.59677 0.0
H164 H 0.56124 0.51211 0.62683 0.0
H165 H 0.58563 0.50891 0.60005 0.0
H166 H 0.5101 0.59901 0.60096 0.0
H167 H 0.48692 0.5704 0.58892 0.0
H168 H 0.50329 0.59163 0.5651 0.0
C169 C 0.52541 0.49087 0.00751 0.0
N170 N 0.54737 0.48951 0.02219 0.0
N171 N 0.52877 0.51089 0.99042 0.0
C172 C 0.5014 0.47092 0.00803 0.0
C173 C 0.5536 0.52166 0.99516 0.0
N174 N 0.56494 0.50885 0.01448 0.0
C175 C 0.56716 0.54398 0.98003 0.0
H176 H 0.50325 0.45256 0.99201 0.0
H177 H 0.48371 0.48149 1.00361 0.0
H178 H 0.49907 0.463 0.02818 0.0
H179 H 0.55287 0.55605 0.97051 0.0
H180 H 0.5796 0.53362 0.96371 0.0
H181 H 0.57991 0.55878 0.99418 0.0
C182 C 0.67763 0.212 0.33553 0.0
N183 N 0.69802 0.20336 0.34868 0.0
N184 N 0.67628 0.19921 0.30943 0.0
C185 C 0.65991 0.23419 0.34771 0.0
C186 C 0.69671 0.18272 0.30694 0.0
N187 N 0.71018 0.18551 0.33072 0.0
C188 C 0.70376 0.16437 0.28118 0.0
H189 H 0.64635 0.22493 0.36238 0.0
H190 H 0.6481 0.24198 0.33198 0.0
H191 H 0.67154 0.2524 0.35908 0.0
H192 H 0.71912 0.17603 0.27017 0.0
H193 H 0.68667 0.15903 0.26749 0.0
H194 H 0.71165 0.14458 0.2861 0.0
C195 C 0.47481 0.03527 0.96619 0.0
N196 N 0.49335 0.05714 0.96707 0.0
N197 N 0.45552 0.04164 0.9844 0.0
C198 C 0.47513 1.00815 0.94687 0.0
C199 C 0.46262 0.06826 0.99603 0.0
N200 N 0.48552 0.07784 0.98539 0.0
C201 C 0.44688 0.08457 0.01781 0.0
H202 H 0.48012 0.0129 0.9259 0.0
H203 H 0.45621 0.9954 0.94652 0.0
H204 H 0.49038 0.99521 0.95346 0.0
H205 H 0.45099 0.07752 0.03781 0.0
H206 H 0.42571 0.08002 0.01375 0.0
H207 H 0.45154 0.10769 0.01931 0.0
Mn208 Mn 0.25105 0.89087 0.03262 0.0
Mn209 Mn 0.24374 0.89905 0.96618 0.0
C210 C 0.23047 0.85501 1.0024 0.0
C211 C 0.2743 0.87463 0.06743 0.0
C212 C 0.21141 0.92846 0.01182 0.0
O213 O 0.27865 0.9228 0.02747 0.0
O214 O 0.27285 0.9253 0.98251 0.0
C215 C 0.29373 0.87848 0.94407 0.0
N216 N 0.26716 0.87652 0.94395 0.0
C217 C 0.26598 0.83856 0.90664 0.0
C218 C 0.29332 0.84025 0.90629 0.0
C219 C 0.30725 0.86025 0.92514 0.0
C220 C 0.25357 0.85733 0.92592 0.0
H221 H 0.30453 0.89382 0.9585 0.0
C222 C 0.28478 0.93298 1.00528 0.0
O223 O 0.25758 0.89375 0.07297 0.0
O224 O 0.27835 0.86617 0.0418 0.0
N225 N 0.21654 0.87417 0.94818 0.0
C226 C 0.1903 0.87382 0.95257 0.0
C227 C 0.17359 0.85419 0.93617 0.0
C228 C 0.18401 0.83523 0.91537 0.0
C229 C 0.21107 0.83602 0.91121 0.0
C230 C 0.22675 0.85608 0.92816 0.0
H231 H 0.1822 0.88826 0.9686 0.0
O232 O 0.22543 0.85666 0.02839 0.0
O233 O 0.24643 0.87493 0.99499 0.0
O234 O 0.22169 0.91807 0.03144 0.0
O235 O 0.21832 0.92268 0.98689 0.0
C236 C 0.22312 0.81735 0.89124 0.0
C237 C 0.25055 0.81865 0.88893 0.0
H238 H 0.30383 0.82616 0.8918 0.0
H239 H 0.32836 0.86161 0.92507 0.0
H240 H 0.15274 0.85363 0.93961 0.0
H241 H 0.17107 0.81999 0.90289 0.0
H242 H 0.21149 0.80159 0.87786 0.0
H243 H 0.2596 0.8039 0.87377 0.0
Mn244 Mn 0.16108 0.52585 0.27727 0.0
Mn245 Mn 0.14485 0.59219 0.27162 0.0
C246 C 0.19034 0.55771 0.25879 0.0
C247 C 0.18046 0.49276 0.30019 0.0
C248 C 0.12377 0.54045 0.23366 0.0
O249 O 0.13103 0.5309 0.30474 0.0
O250 O 0.12237 0.57564 0.29959 0.0
C251 C 0.16087 0.62018 0.32664 0.0
N252 N 0.16266 0.61859 0.2989 0.0
C253 C 0.19322 0.65958 0.30223 0.0
C254 C 0.19158 0.66173 0.33082 0.0
C255 C 0.17537 0.64191 0.34307 0.0
C256 C 0.17819 0.63757 0.28691 0.0
H257 H 0.1485 0.60497 0.33617 0.0
C258 C 0.11842 0.55303 0.31108 0.0
O259 O 0.16286 0.48499 0.28154 0.0
O260 O 0.18565 0.51981 0.30664 0.0
N261 N 0.16561 0.61074 0.24574 0.0
C262 C 0.16651 0.60448 0.218 0.0
C263 C 0.18249 0.62175 0.20268 0.0
C264 C 0.19735 0.64529 0.216 0.0
C265 C 0.1961 0.65133 0.24456 0.0
C266 C 0.17967 0.63349 0.25874 0.0
H267 H 0.15534 0.58627 0.20767 0.0
O268 O 0.19191 0.53063 0.25239 0.0
O269 O 0.17125 0.56523 0.27495 0.0
O270 O 0.13552 0.52235 0.24493 0.0
O271 O 0.12594 0.56699 0.24206 0.0
C272 C 0.21097 0.67398 0.25954 0.0
C273 C 0.20956 0.67808 0.28836 0.0
H274 H 0.20285 0.67836 0.34357 0.0
H275 H 0.1741 0.64335 0.36512 0.0
H276 H 0.18348 0.61683 0.18066 0.0
H277 H 0.20987 0.65838 0.20413 0.0
H278 H 0.22392 0.68807 0.24913 0.0
H279 H 0.22143 0.69528 0.29967 0.0
Mn280 Mn 0.77509 0.64009 0.01895 0.0
Mn281 Mn 0.71993 0.65271 0.98717 0.0
C282 C 0.73652 0.61235 0.02447 0.0
C283 C 0.81434 0.61822 0.02066 0.0
C284 C 0.74078 0.68879 0.03873 0.0
O285 O 0.78895 0.66507 0.99003 0.0
O286 O 0.7511 0.66905 0.96877 0.0
C287 C 0.72848 0.61661 0.93474 0.0
N288 N 0.71313 0.6239 0.95688 0.0
C289 C 0.67945 0.58836 0.94027 0.0
C290 C 0.69474 0.58075 0.91711 0.0
C291 C 0.71941 0.59486 0.9144 0.0
C292 C 0.68951 0.61022 0.95986 0.0
H293 H 0.74754 0.62723 0.9327 0.0
C294 C 0.77592 0.67354 0.97105 0.0
O295 O 0.81006 0.64151 0.03619 0.0
O296 O 0.79626 0.60818 1.00312 0.0
N297 N 0.68798 0.63808 1.00215 0.0
C298 C 0.67593 0.64745 0.02606 0.0
C299 C 0.65115 0.63529 0.03205 0.0
C300 C 0.63888 0.61386 0.0133 0.0
C301 C 0.65146 0.60492 0.98863 0.0
C302 C 0.67602 0.61801 0.98366 0.0
H303 H 0.68516 0.66401 0.0405 0.0
O304 O 0.75532 0.61394 0.042 0.0
O305 O 0.74093 0.62662 1.00388 0.0
O306 O 0.7603 0.67441 0.04158 0.0
O307 O 0.72488 0.68304 0.01869 0.0
C308 C 0.64076 0.5832 0.96898 0.0
C309 C 0.65479 0.57484 0.94488 0.0
H310 H 0.68785 0.56393 0.90141 0.0
H311 H 0.73143 0.58894 0.8967 0.0
H312 H 0.64156 0.64236 0.05111 0.0
H313 H 0.6199 0.60431 0.01812 0.0
H314 H 0.62192 0.57253 0.97235 0.0
H315 H 0.6465 0.55786 0.9301 0.0
Mn316 Mn 0.87066 0.01481 0.29152 0.0
Mn317 Mn 0.88922 0.94758 0.28356 0.0
C318 C 0.84449 0.9782 0.26776 0.0
C319 C 0.84894 0.05268 0.31405 0.0
C320 C 0.91158 0.99213 0.24981 0.0
O321 O 0.89847 0.01668 0.3213 0.0
O322 O 0.90934 0.97142 0.3133 0.0
C323 C 0.86985 0.93175 0.33673 0.0
N324 N 0.87033 0.92666 0.30891 0.0
C325 C 0.84152 0.88458 0.30901 0.0
C326 C 0.84085 0.88928 0.33767 0.0
C327 C 0.85502 0.91301 0.35158 0.0
C328 C 0.8567 0.90394 0.29532 0.0
H329 H 0.88069 0.94997 0.3475 0.0
C330 C 0.91195 0.99647 0.32642 0.0
O331 O 0.86815 0.05658 0.29732 0.0
O332 O 0.84325 0.02683 0.31895 0.0
N333 N 0.87131 0.92191 0.25572 0.0
C334 C 0.87293 0.92125 0.22804 0.0
C335 C 0.85931 0.89921 0.2111 0.0
C336 C 0.84442 0.87795 0.22277 0.0
C337 C 0.84334 0.87887 0.2513 0.0
C338 C 0.85743 0.90127 0.26714 0.0
H339 H 0.88435 0.93752 0.21895 0.0
O340 O 0.84264 1.00419 0.26333 0.0
O341 O 0.86163 0.97427 0.28581 0.0
O342 O 0.89886 0.01221 0.26172 0.0
O343 O 0.90929 0.96697 0.25614 0.0
C344 C 0.82835 0.85881 0.26465 0.0
C345 C 0.82738 0.86171 0.29348 0.0
H346 H 0.82936 0.87494 0.3492 0.0
H347 H 0.85451 0.91685 0.37369 0.0
H348 H 0.86024 0.89866 0.18911 0.0
H349 H 0.83375 0.86114 0.20965 0.0
H350 H 0.81716 0.84133 0.25294 0.0
H351 H 0.81548 0.84639 0.30351 0.0
Mn352 Mn 0.27504 0.14048 0.5171 0.0
Mn353 Mn 0.2195 0.15372 0.48635 0.0
C354 C 0.23635 0.11309 0.52319 0.0
C355 C 0.31428 0.11854 0.51851 0.0
C356 C 0.24145 0.18965 0.53747 0.0
O357 O 0.28863 0.16524 0.48792 0.0
O358 O 0.25049 0.1697 0.46738 0.0
C359 C 0.2269 0.11747 0.43376 0.0
N360 N 0.21198 0.12496 0.45618 0.0
C361 C 0.17777 0.08978 0.44021 0.0
C362 C 0.19262 0.08197 0.41676 0.0
C363 C 0.21733 0.0958 0.41358 0.0
C364 C 0.18832 0.11154 0.45961 0.0
H365 H 0.246 0.12786 0.43136 0.0
C366 C 0.27537 0.17388 0.4692 0.0
O367 O 0.31012 0.14193 0.53391 0.0
O368 O 0.29604 0.10834 0.50121 0.0
N369 N 0.18771 0.13945 0.50194 0.0
C370 C 0.17613 0.14898 0.52608 0.0
C371 C 0.15137 0.13711 0.53253 0.0
C372 C 0.13864 0.11581 0.51401 0.0
C373 C 0.15073 0.10669 0.48911 0.0
C374 C 0.1753 0.1195 0.48367 0.0
H375 H 0.18573 0.16544 0.54036 0.0
O376 O 0.25537 0.11452 0.54047 0.0
O377 O 0.24059 0.12732 0.50256 0.0
O378 O 0.26082 0.17496 0.53988 0.0
O379 O 0.22513 0.1841 0.51779 0.0
C380 C 0.13954 0.08508 0.46966 0.0
C381 C 0.1531 0.07653 0.44529 0.0
H382 H 0.18534 0.06521 0.40119 0.0
H383 H 0.22901 0.08972 0.39566 0.0
H384 H 0.14215 0.14431 0.55178 0.0
H385 H 0.11967 0.10648 0.51919 0.0
H386 H 0.12069 0.07463 0.47339 0.0
H387 H 0.14445 0.05963 0.43067 0.0
Mn388 Mn 0.36979 0.51809 0.79405 0.0
Mn389 Mn 0.39122 0.4521 0.78626 0.0
C390 C 0.34544 0.48054 0.76948 0.0
C391 C 0.34626 0.55456 0.81642 0.0
C392 C 0.41249 0.49784 0.75335 0.0
O393 O 0.39694 0.52104 0.82452 0.0
O394 O 0.41022 0.47667 0.8164 0.0
C395 C 0.37179 0.43516 0.83899 0.0
N396 N 0.37279 0.43024 0.81118 0.0
C397 C 0.34538 0.38706 0.8106 0.0
C398 C 0.3442 0.39158 0.83925 0.0
C399 C 0.35741 0.41577 0.85349 0.0
C400 C 0.3601 0.40706 0.79727 0.0
H401 H 0.38187 0.45375 0.85001 0.0
C402 C 0.41141 0.50168 0.82967 0.0
O403 O 0.36555 0.55956 0.80011 0.0
O404 O 0.34142 0.52844 0.82088 0.0
N405 N 0.3746 0.42581 0.75802 0.0
C406 C 0.37654 0.42541 0.73039 0.0
C407 C 0.36382 0.40298 0.71313 0.0
C408 C 0.34948 0.38109 0.72444 0.0
C409 C 0.34806 0.38178 0.75293 0.0
C410 C 0.36127 0.40458 0.76911 0.0
H411 H 0.38752 0.44218 0.72158 0.0
O412 O 0.34268 0.50639 0.76512 0.0
O413 O 0.36245 0.4773 0.78794 0.0
O414 O 0.39879 0.51718 0.76503 0.0
O415 O 0.4109 0.47255 0.75938 0.0
C416 C 0.33355 0.36109 0.76593 0.0
C417 C 0.33216 0.36377 0.79474 0.0
H418 H 0.33303 0.37674 0.85051 0.0
H419 H 0.35648 0.41947 0.87559 0.0
H420 H 0.365 0.40261 0.69116 0.0
H421 H 0.33948 0.36398 0.71107 0.0
H422 H 0.32303 0.34329 0.75396 0.0
H423 H 0.32062 0.34795 0.80449 0.0
Mn424 Mn 0.75066 0.38923 0.53155 0.0
Mn425 Mn 0.74403 0.39942 0.46553 0.0
C426 C 0.73157 0.35351 0.50021 0.0
C427 C 0.774 0.37335 0.56648 0.0
C428 C 0.71051 0.42641 0.51139 0.0
O429 O 0.77723 0.4227 0.52764 0.0
O430 O 0.77293 0.42532 0.48246 0.0
C431 C 0.79405 0.37953 0.44288 0.0
N432 N 0.76748 0.37746 0.44278 0.0
C433 C 0.76637 0.34016 0.40487 0.0
C434 C 0.79372 0.34197 0.40449 0.0
C435 C 0.80761 0.3617 0.42362 0.0
C436 C 0.75392 0.35856 0.42446 0.0
H437 H 0.8048 0.39466 0.45754 0.0
C438 C 0.78395 0.43314 0.50569 0.0
O439 O 0.75644 0.39155 0.57191 0.0
O440 O 0.7789 0.36566 0.54085 0.0
N441 N 0.71687 0.37486 0.44708 0.0
C442 C 0.69063 0.37434 0.45153 0.0
C443 C 0.67396 0.3549 0.43489 0.0
C444 C 0.68441 0.3363 0.41381 0.0
C445 C 0.71147 0.33727 0.40958 0.0
C446 C 0.72711 0.35716 0.42675 0.0
H447 H 0.6825 0.38855 0.46773 0.0
O448 O 0.72641 0.35401 0.52609 0.0
O449 O 0.74695 0.37432 0.49358 0.0
O450 O 0.71991 0.4145 0.53048 0.0
O451 O 0.71864 0.42281 0.48671 0.0
C452 C 0.72356 0.31894 0.38934 0.0
C453 C 0.75099 0.32042 0.38695 0.0
H454 H 0.80426 0.32814 0.38977 0.0
H455 H 0.82872 0.36314 0.42353 0.0
H456 H 0.65311 0.3542 0.43835 0.0
H457 H 0.67151 0.32119 0.40115 0.0
H458 H 0.71197 0.3033 0.37579 0.0
H459 H 0.76007 0.30593 0.37157 0.0
Mn460 Mn 0.66153 0.02301 0.77586 0.0
Mn461 Mn 0.64395 0.08878 0.77013 0.0
C462 C 0.69017 0.05522 0.75707 0.0
C463 C 0.68119 0.99054 0.7993 0.0
C464 C 0.62229 0.03606 0.73374 0.0
O465 O 0.63129 0.02795 0.80339 0.0
O466 O 0.62349 0.07339 0.79997 0.0
C467 C 0.66281 0.1193 0.82315 0.0
N468 N 0.66309 0.11631 0.79531 0.0
C469 C 0.69359 0.15705 0.79513 0.0
C470 C 0.69352 0.16063 0.82381 0.0
C471 C 0.67809 0.14164 0.83787 0.0
C472 C 0.67782 0.1345 0.78157 0.0
H473 H 0.65103 0.10471 0.83405 0.0
C474 C 0.61946 0.05046 0.81092 0.0
O475 O 0.66377 0.98237 0.78057 0.0
O476 O 0.68615 0.01767 0.80548 0.0
N477 N 0.66301 0.10588 0.74217 0.0
C478 C 0.66238 0.09821 0.71458 0.0
C479 C 0.67759 0.11436 0.69755 0.0
C480 C 0.6932 0.13823 0.70904 0.0
C481 C 0.69347 0.14576 0.73749 0.0
C482 C 0.67779 0.12897 0.75342 0.0
H483 H 0.65049 0.07983 0.70565 0.0
O484 O 0.6924 0.02819 0.75105 0.0
O485 O 0.67088 0.06232 0.77308 0.0
O486 O 0.63627 0.01867 0.74332 0.0
O487 O 0.62312 0.06242 0.74288 0.0
C488 C 0.70911 0.16889 0.75068 0.0
C489 C 0.70917 0.17453 0.77949 0.0
H490 H 0.70543 0.1777 0.83524 0.0
H491 H 0.67803 0.14418 0.86 0.0
H492 H 0.67735 0.10835 0.67562 0.0
H493 H 0.70509 0.15047 0.69585 0.0
H494 H 0.72153 0.18217 0.7389 0.0
H495 H 0.72162 0.19208 0.78941 0.0
Mn496 Mn 1.00472 0.24488 0.90614 0.0
Mn497 Mn 0.9487 0.24033 0.94199 0.0
C498 C 0.96644 0.22533 0.88443 0.0
C499 C 0.03511 0.26762 0.87928 0.0
C500 C 0.9933 0.203 0.94753 0.0
O501 O 0.01164 0.27453 0.93992 0.0
O502 O 0.9722 0.27177 0.96068 0.0
C503 C 0.92728 0.29487 0.93491 0.0
N504 N 0.9249 0.266 0.93162 0.0
C505 C 0.88286 0.2652 0.91044 0.0
C506 C 0.88483 0.29491 0.91371 0.0
C507 C 0.90714 0.3098 0.926 0.0
C508 C 0.90341 0.25146 0.92004 0.0
H509 H 0.94446 0.3064 0.94419 0.0
C510 C 0.99556 0.28294 0.95884 0.0
O511 O 0.04152 0.24851 0.8939 0.0
O512 O 0.01108 0.27449 0.88102 0.0
N513 N 0.92457 0.21096 0.92511 0.0
C514 C 0.92672 0.18242 0.92138 0.0
C515 C 0.90656 0.16448 0.90821 0.0
C516 C 0.88445 0.17605 0.89897 0.0
C517 C 0.8827 0.20549 0.90298 0.0
C518 C 0.90329 0.2223 0.91646 0.0
H519 H 0.94377 0.17344 0.92822 0.0
O520 O 0.98897 0.21835 0.87459 0.0
O521 O 0.96721 0.24253 0.90715 0.0
O522 O 0.00745 0.21219 0.92881 0.0
O523 O 0.97133 0.21256 0.95459 0.0
C524 C 0.86163 0.21885 0.89354 0.0
C525 C 0.86168 0.24868 0.89732 0.0
H526 H 0.86947 0.30651 0.90659 0.0
H527 H 0.90886 0.33273 0.92846 0.0
H528 H 0.90812 0.14179 0.90505 0.0
H529 H 0.86907 0.16216 0.88857 0.0
H530 H 0.84546 0.2064 0.88299 0.0
H531 H 0.84556 0.25871 0.8896 0.0
Mn532 Mn 0.50438 0.74454 0.40918 0.0
Mn533 Mn 0.44763 0.73745 0.44345 0.0
C534 C 0.46669 0.72487 0.38635 0.0
C535 C 0.5349 0.76805 0.38307 0.0
C536 C 0.49211 0.69988 0.44801 0.0
O537 O 0.51031 0.77361 0.44329 0.0
O538 O 0.47138 0.76746 0.46436 0.0
C539 C 0.42772 0.79358 0.43979 0.0
N540 N 0.42468 0.76477 0.43468 0.0
C541 C 0.38313 0.76666 0.41325 0.0
C542 C 0.38577 0.79632 0.41841 0.0
C543 C 0.40817 0.80983 0.43173 0.0
C544 C 0.40311 0.75155 0.42206 0.0
H545 H 0.44495 0.80411 0.44986 0.0
C546 C 0.49424 0.78005 0.4628 0.0
O547 O 0.54137 0.74898 0.39771 0.0
O548 O 0.51075 0.77452 0.38447 0.0
N549 N 0.4231 0.70974 0.4246 0.0
C550 C 0.42459 0.68117 0.41904 0.0
C551 C 0.40424 0.6646 0.40471 0.0
C552 C 0.38263 0.67756 0.39618 0.0
C553 C 0.38156 0.70701 0.40205 0.0
C554 C 0.4023 0.72241 0.41664 0.0
H555 H 0.44131 0.67113 0.42523 0.0
O556 O 0.48948 0.71821 0.37702 0.0
O557 O 0.4668 0.74155 0.40935 0.0
O558 O 0.50729 0.7118 0.43172 0.0
O559 O 0.46923 0.70763 0.45382 0.0
C560 C 0.36105 0.72174 0.3934 0.0
C561 C 0.36181 0.75154 0.39903 0.0
H562 H 0.37087 0.80895 0.41197 0.0
H563 H 0.41041 0.83272 0.43566 0.0
H564 H 0.4053 0.64191 0.40009 0.0
H565 H 0.3671 0.66474 0.38488 0.0
H566 H 0.34478 0.7104 0.38203 0.0
H567 H 0.34612 0.76267 0.3919 0.0
Mn568 Mn 0.01715 0.78497 0.64797 0.0
Mn569 Mn 0.98866 0.71962 0.6535 0.0
C570 C 0.02281 0.74716 0.61381 0.0
C571 C 0.01832 0.82972 0.63263 0.0
C572 C 0.03714 0.74421 0.6849 0.0
O573 O 0.98914 0.79332 0.67794 0.0
O574 O 0.97082 0.74882 0.6775 0.0
C575 C 0.93772 0.72632 0.62862 0.0
N576 N 0.95957 0.71192 0.62928 0.0
C577 C 0.9439 0.67703 0.59237 0.0
C578 C 0.92114 0.69139 0.59139 0.0
C579 C 0.9181 0.71621 0.60952 0.0
C580 C 0.96284 0.68822 0.61172 0.0
H581 H 0.93531 0.74537 0.64258 0.0
C582 C 0.97208 0.77533 0.68636 0.0
O583 O 0.03272 0.82508 0.65278 0.0
O584 O 1.00177 0.80912 0.62293 0.0
N585 N 1.00377 0.68891 0.63153 0.0
C586 C 0.0271 0.6779 0.6348 0.0
C587 C 0.0332 0.653 0.61827 0.0
C588 C 0.01515 0.63949 0.59882 0.0
C589 C 0.99117 0.65107 0.59603 0.0
C590 C 0.9861 0.67581 0.61319 0.0
H591 H 0.04094 0.68798 0.64994 0.0
O592 O 0.03942 0.7691 0.61659 0.0
O593 O 1.00343 0.7479 0.63097 0.0
O594 O 0.03918 0.76773 0.67507 0.0
O595 O 0.01872 0.72514 0.67861 0.0
C596 C 0.9722 0.63913 0.57675 0.0
C597 C 0.94864 0.65218 0.57479 0.0
H598 H 0.90594 0.68363 0.57672 0.0
H599 H 0.90063 0.72747 0.60881 0.0
H600 H 0.05174 0.64418 0.62057 0.0
H601 H 0.01991 0.62028 0.58611 0.0
H602 H 0.97576 0.62011 0.56317 0.0
H603 H 0.9343 0.64299 0.55968 0.0
Mn604 Mn 0.51819 0.28438 0.14701 0.0
Mn605 Mn 0.48974 0.21912 0.15288 0.0
C606 C 0.52329 0.24654 0.11273 0.0
C607 C 0.51907 0.32918 0.13183 0.0
C608 C 0.53867 0.24353 0.18356 0.0
O609 O 0.49057 0.29277 0.17737 0.0
O610 O 0.47216 0.24835 0.17716 0.0
C611 C 0.43854 0.22599 0.12862 0.0
N612 N 0.46041 0.21156 0.12894 0.0
C613 C 0.4445 0.177 0.09186 0.0
C614 C 0.42173 0.19141 0.0912 0.0
C615 C 0.41879 0.21607 0.10959 0.0
C616 C 0.46358 0.18803 0.11112 0.0
H617 H 0.43621 0.2449 0.14277 0.0
C618 C 0.47356 0.27486 0.186 0.0
O619 O 0.53382 0.32445 0.15168 0.0
O620 O 0.50242 0.3086 0.12231 0.0
N621 N 0.50461 0.18844 0.13063 0.0
C622 C 0.52788 0.17723 0.13374 0.0
C623 C 0.53382 0.15237 0.11704 0.0
C624 C 0.51565 0.13909 0.0976 0.0
C625 C 0.49173 0.15085 0.09499 0.0
C626 C 0.48683 0.17555 0.11229 0.0
H627 H 0.5418 0.18711 0.14888 0.0
O628 O 0.53996 0.26843 0.1152 0.0
O629 O 0.50421 0.24739 0.13024 0.0
O630 O 0.5406 0.26702 0.17368 0.0
O631 O 0.5201 0.22455 0.17762 0.0
C632 C 0.47262 0.13908 0.0758 0.0
C633 C 0.44909 0.15224 0.07408 0.0
H634 H 0.40643 0.18379 0.07661 0.0
H635 H 0.40132 0.22736 0.10914 0.0
H636 H 0.5523 0.1434 0.11923 0.0
H637 H 0.52027 0.11989 0.08478 0.0
H638 H 0.47605 0.12008 0.06212 0.0
H639 H 0.43466 0.14317 0.05901 0.0
H640 H 0.24169 0.73013 0.86491 0.0
H641 H 0.18487 0.82159 0.99349 0.0
H642 H 0.16774 0.70686 0.90067 0.0
H643 H 0.26663 0.82589 0.97296 0.0
H644 H 0.17854 0.77753 0.96159 0.0
H645 H 0.25297 0.76186 0.90682 0.0
C646 C 0.22819 0.7311 0.88197 0.0
C647 C 0.20367 0.71624 0.87936 0.0
C648 C 0.19793 0.78795 0.9643 0.0
C649 C 0.21561 0.75363 0.92659 0.0
C650 C 0.20144 0.8131 0.98233 0.0
C651 C 0.22603 0.82779 0.9848 0.0
C652 C 0.21927 0.77751 0.94897 0.0
C653 C 0.24713 0.81567 0.97064 0.0
C654 C 0.23441 0.7495 0.90575 0.0
C655 C 0.18663 0.71852 0.90186 0.0
N656 N 0.24321 0.79149 0.95298 0.0
N657 N 0.19261 0.73747 0.9243 0.0
H658 H 0.02924 0.52349 0.45725 0.0
H659 H 0.08494 0.59414 0.32745 0.0
H660 H 1.00108 0.59877 0.432 0.0
H661 H 0.10863 0.51444 0.3479 0.0
H662 H 0.0561 0.59748 0.36707 0.0
H663 H 0.0611 0.52179 0.41966 0.0
C664 C 0.03009 0.53986 0.44391 0.0
C665 C 0.01255 0.56122 0.4475 0.0
C666 C 0.06754 0.57921 0.36291 0.0
C667 C 0.04867 0.55943 0.40441 0.0
C668 C 0.08402 0.57719 0.34015 0.0
C669 C 0.09932 0.55388 0.3341 0.0
C670 C 0.06623 0.55785 0.38005 0.0
C671 C 0.09716 0.53271 0.35154 0.0
C672 C 0.04815 0.53886 0.42244 0.0
C673 C 0.01447 0.58213 0.42995 0.0
N674 N 0.081 0.53525 0.37372 0.0
N675 N 0.03205 0.5806 0.40902 0.0
H676 H 0.85505 0.80868 0.89377 0.0
H677 H 0.76055 0.67533 0.91873 0.0
H678 H 0.80275 0.76352 0.83334 0.0
H679 H 0.82176 0.70844 0.97559 0.0
H680 H 0.77926 0.70482 0.88579 0.0
H681 H 0.84781 0.76976 0.92196 0.0
C682 C 0.84302 0.78987 0.88591 0.0
C683 C 0.82986 0.78893 0.86101 0.0
C684 C 0.78889 0.70555 0.9053 0.0
C685 C 0.82044 0.745 0.89352 0.0
C686 C 0.77812 0.68868 0.92426 0.0
C687 C 0.78943 0.68947 0.95018 0.0
C688 C 0.81101 0.72402 0.91222 0.0
C689 C 0.81235 0.70712 0.9559 0.0
C690 C 0.83855 0.76787 0.90214 0.0
C691 C 0.81364 0.76469 0.85214 0.0
N692 N 0.82216 0.72404 0.93725 0.0
N693 N 0.8091 0.74395 0.8685 0.0
H694 H 0.99844 0.04904 0.47865 0.0
H695 H 0.95057 0.96269 0.33544 0.0
H696 H 0.02463 0.96845 0.4442 0.0
H697 H 0.91775 0.04055 0.3691 0.0
H698 H 0.98012 0.96734 0.37387 0.0
H699 H 0.97087 0.04908 0.43792 0.0
C700 C 0.99839 0.0315 0.46235 0.0
C701 C 0.01359 0.00866 0.46452 0.0
C702 C 0.96657 0.98354 0.37297 0.0
C703 C 0.98247 0.00841 0.41826 0.0
C704 C 0.94957 0.98091 0.35091 0.0
C705 C 0.93135 1.00114 0.34902 0.0
C706 C 0.96552 1.00654 0.39369 0.0
C707 C 0.93141 0.02442 0.36969 0.0
C708 C 0.98273 0.03145 0.43923 0.0
C709 C 0.01303 0.98631 0.44314 0.0
N710 N 0.94812 0.02639 0.3913 0.0
N711 N 0.99773 0.98672 0.42097 0.0
H712 H 0.16847 0.31388 0.65182 0.0
H713 H 0.27193 0.20879 0.5824 0.0
H714 H 0.23644 0.29322 0.69304 0.0
H715 H 0.20059 0.22438 0.54333 0.0
H716 H 0.26234 0.24448 0.62054 0.0
H717 H 0.18315 0.28659 0.60949 0.0
C718 C 0.18677 0.30397 0.65169 0.0
C719 C 0.20129 0.30568 0.67579 0.0
C720 C 0.24888 0.24027 0.60354 0.0
C721 C 0.21813 0.27414 0.62772 0.0
C722 C 0.25433 0.21984 0.58166 0.0
C723 C 0.23695 0.21326 0.55955 0.0
C724 C 0.22583 0.25436 0.60351 0.0
C725 C 0.21455 0.22855 0.55988 0.0
C726 C 0.19511 0.28832 0.62763 0.0
C727 C 0.22487 0.29257 0.67475 0.0
N728 N 0.20956 0.24819 0.58156 0.0
N729 N 0.23244 0.27709 0.65119 0.0
H730 H 0.51711 0.58129 0.64358 0.0
H731 H 0.43802 0.46111 0.71676 0.0
H732 H 0.50796 0.49354 0.60907 0.0
H733 H 0.42883 0.55037 0.73948 0.0
H734 H 0.46746 0.47269 0.68004 0.0
H735 H 0.48814 0.57059 0.68154 0.0
C736 C 0.50887 0.55983 0.64401 0.0
C737 C 0.5148 0.53823 0.62328 0.0
C738 C 0.459 0.48975 0.69305 0.0
C739 C 0.4822 0.5257 0.66659 0.0
C740 C 0.44223 0.48317 0.71413 0.0
C741 C 0.43082 0.50478 0.73129 0.0
C742 C 0.4647 0.51818 0.68913 0.0
C743 C 0.43705 0.53299 0.72671 0.0
C744 C 0.49248 0.55369 0.66565 0.0
C745 C 0.50407 0.51064 0.6249 0.0
N746 N 0.45362 0.53888 0.70612 0.0
N747 N 0.48835 0.50513 0.6462 0.0
H748 H 0.83065 0.2421 0.64929 0.0
H749 H 0.76733 0.38384 0.62226 0.0
H750 H 0.80799 0.30425 0.71475 0.0
H751 H 0.80685 0.33043 0.56 0.0
H752 H 0.78247 0.35604 0.65673 0.0
H753 H 0.82228 0.2747 0.6163 0.0
C754 C 0.8241 0.26281 0.6566 0.0
C755 C 0.81997 0.27066 0.68457 0.0
C756 C 0.78807 0.35064 0.63556 0.0
C757 C 0.81004 0.30801 0.64719 0.0
C758 C 0.77947 0.36654 0.61587 0.0
C759 C 0.78572 0.35941 0.58814 0.0
C760 C 0.80278 0.32725 0.62743 0.0
C761 C 0.80147 0.3367 0.58109 0.0
C762 C 0.81935 0.28144 0.63787 0.0
C763 C 0.81149 0.29764 0.69326 0.0
N764 N 0.8092 0.3213 0.60051 0.0
N765 N 0.80654 0.3153 0.6746 0.0
H766 H 0.48334 0.99707 0.63606 0.0
H767 H 0.62768 0.99301 0.69145 0.0
H768 H 0.54583 0.97968 0.57887 0.0
H769 H 0.57463 0.05468 0.72479 0.0
H770 H 0.59649 0.97672 0.65403 0.0
H771 H 0.51501 1.00553 0.67347 0.0
C772 C 0.50376 0.99453 0.63153 0.0
C773 C 0.51209 0.98811 0.6044 0.0
C774 C 0.59177 0.99374 0.66964 0.0
C775 C 0.54843 0.99747 0.64706 0.0
C776 C 0.60944 1.00297 0.69101 0.0
C777 C 0.60376 0.02531 0.71123 0.0
C778 C 0.56798 1.00636 0.66906 0.0
C779 C 0.57991 0.03755 0.70958 0.0
C780 C 0.52179 0.99948 0.6528 0.0
C781 C 0.5387 0.98461 0.59956 0.0
N782 N 0.56285 0.02776 0.68907 0.0
N783 N 0.55607 0.98954 0.62072 0.0
H784 H 0.86334 0.18477 0.74438 0.0
H785 H 0.93659 0.26737 0.87509 0.0
H786 H 0.83969 0.26316 0.78741 0.0
H787 H 0.94629 0.17893 0.84975 0.0
H788 H 0.90092 0.26545 0.84274 0.0
H789 H 0.89292 0.18055 0.78243 0.0
C790 C 0.86407 0.20077 0.76211 0.0
C791 C 0.84942 0.22455 0.76271 0.0
C792 C 0.91047 0.24625 0.84441 0.0
C793 C 0.88334 0.22025 0.80588 0.0
C794 C 0.93072 0.2473 0.86311 0.0
C795 C 0.94368 0.223 0.86591 0.0
C796 C 0.90354 0.22088 0.82748 0.0
C797 C 0.93632 0.19797 0.84866 0.0
C798 C 0.88099 0.19847 0.78371 0.0
C799 C 0.85106 0.24481 0.786 0.0
N800 N 0.91674 0.19754 0.83008 0.0
N801 N 0.86794 0.2424 0.80644 0.0
H802 H 0.47334 0.9227 0.58541 0.0
H803 H 0.53268 0.82296 0.45989 0.0
H804 H 0.52281 0.95374 0.52334 0.0
H805 H 0.47021 0.79573 0.51192 0.0
H806 H 0.53758 0.86836 0.48953 0.0
H807 H 0.48067 0.8738 0.56572 0.0
C808 C 0.4866 0.91907 0.56828 0.0
C809 C 0.49784 0.94202 0.55613 0.0
C810 C 0.52307 0.85226 0.49468 0.0
C811 C 0.50569 0.88648 0.53289 0.0
C812 C 0.52035 0.82622 0.47783 0.0
C813 C 0.50079 0.80546 0.48316 0.0
C814 C 0.50625 0.85762 0.51717 0.0
C815 C 0.48537 0.81112 0.50674 0.0
C816 C 0.49052 0.89127 0.5568 0.0
C817 C 0.51421 0.93644 0.53343 0.0
N818 N 0.48827 0.83666 0.52267 0.0
N819 N 0.51745 0.90927 0.52235 0.0
H820 H 0.17452 0.30051 0.78579 0.0
H821 H 0.02578 0.29808 0.83711 0.0
H822 H 0.11238 0.32385 0.73749 0.0
H823 H 0.08751 0.26249 0.87699 0.0
H824 H 0.05727 0.31197 0.80252 0.0
H825 H 0.14295 0.2901 0.82131 0.0
C826 C 0.1541 0.30342 0.78282 0.0
C827 C 0.14587 0.31305 0.75894 0.0
C828 C 0.06389 0.30125 0.81895 0.0
C829 C 0.10955 0.30126 0.7993 0.0
C830 C 0.04599 0.29351 0.83879 0.0
C831 C 0.05404 0.27905 0.85992 0.0
C832 C 0.09 0.29464 0.82044 0.0
C833 C 0.0804 0.27349 0.86101 0.0
C834 C 0.13608 0.29747 0.80299 0.0
C835 C 0.11927 0.31635 0.75572 0.0
N836 N 0.09738 0.28123 0.84155 0.0
N837 N 0.10197 0.31052 0.77576 0.0
H838 H 0.57574 0.60277 0.54919 0.0
H839 H 0.4634 0.6558 0.46742 0.0
H840 H 0.51019 0.54672 0.51935 0.0
H841 H 0.54271 0.68953 0.45798 0.0
H842 H 0.47977 0.61711 0.48906 0.0
H843 H 0.56504 0.63569 0.5171 0.0
C844 C 0.55981 0.59689 0.53496 0.0
C845 C 0.54405 0.57191 0.53648 0.0
C846 C 0.49358 0.63286 0.48202 0.0
C847 C 0.53071 0.60996 0.50106 0.0
C848 C 0.48424 0.65508 0.46986 0.0
C849 C 0.50168 0.67601 0.46087 0.0
C850 C 0.52053 0.63188 0.4859 0.0
C851 C 0.52854 0.67383 0.46451 0.0
C852 C 0.55345 0.61579 0.51697 0.0
C853 C 0.523 0.5656 0.51834 0.0
N854 N 0.53713 0.65242 0.47707 0.0
N855 N 0.51654 0.58479 0.50185 0.0
H856 H 0.89005 0.85267 0.83019 0.0
H857 H 0.92601 0.74714 0.6974 0.0
H858 H 0.84235 0.77819 0.79841 0.0
H859 H 0.97423 0.8229 0.72573 0.0
H860 H 0.89664 0.75748 0.73568 0.0
H861 H 0.92313 0.84046 0.79502 0.0
C862 C 0.88702 0.83322 0.81629 0.0
C863 C 0.86364 0.8162 0.81732 0.0
C864 C 0.91356 0.77196 0.73364 0.0
C865 C 0.90089 0.8025 0.7765 0.0
C866 C 0.93043 0.76614 0.71161 0.0
C867 C 0.95285 0.78414 0.70819 0.0
C868 C 0.91887 0.79604 0.75278 0.0
C869 C 0.95718 0.80849 0.72736 0.0
C870 C 0.90569 0.82646 0.79601 0.0
C871 C 0.86031 0.79154 0.7986 0.0
N872 N 0.94041 0.81367 0.74889 0.0
N873 N 0.87856 0.78558 0.77882 0.0
H874 H 0.05408 0.93252 0.50454 0.0
H875 H 0.04387 0.88117 0.65217 0.0
H876 H 0.05126 0.99407 0.57614 0.0
H877 H 1.00539 0.83624 0.58047 0.0
H878 H 0.05599 0.92095 0.62603 0.0
H879 H 0.04801 0.8944 0.53346 0.0
C880 C 0.05313 0.9379 0.52653 0.0
C881 C 0.0533 0.96634 0.53806 0.0
C882 C 0.04478 0.90239 0.61619 0.0
C883 C 0.04581 0.92299 0.57129 0.0
C884 C 0.03777 0.87977 0.63106 0.0
C885 C 0.02338 0.85539 0.61857 0.0
C886 C 0.03805 0.90021 0.58843 0.0
C887 C 0.01622 0.85465 0.59108 0.0
C888 C 0.04926 0.91623 0.54297 0.0
C889 C 0.05154 0.97235 0.56662 0.0
N890 N 0.02387 0.8765 0.57691 0.0
N891 N 0.04766 0.95082 0.58235 0.0
H892 H 0.13124 0.66521 0.79433 0.0
H893 H 0.08074 0.7779 0.70325 0.0
H894 H 0.17234 0.74567 0.78708 0.0
H895 H 0.04055 0.69622 0.70949 0.0
H896 H 0.11479 0.76638 0.73327 0.0
H897 H 0.09832 0.67559 0.76199 0.0
C898 C 0.13332 0.68492 0.78555 0.0
C899 C 0.15425 0.70465 0.79303 0.0
C900 C 0.0985 0.75099 0.72806 0.0
C901 C 0.1169 0.71701 0.7566 0.0
C902 C 0.07898 0.75759 0.71096 0.0
C903 C 0.05762 0.73807 0.70382 0.0
C904 C 0.0967 0.72468 0.73814 0.0
C905 C 0.05654 0.71203 0.71443 0.0
C906 C 0.11459 0.69096 0.76728 0.0
C907 C 0.15633 0.73004 0.78152 0.0
N908 N 0.07577 0.70614 0.73102 0.0
N909 N 0.13779 0.7356 0.76393 0.0
H910 H 0.0276 0.58697 0.51466 0.0
H911 H 0.06281 0.715 0.59454 0.0
H912 H 0.97118 0.6322 0.47766 0.0
H913 H 0.98441 0.7327 0.57643 0.0
H914 H 0.06103 0.67681 0.55581 0.0
H915 H 0.04443 0.63148 0.54121 0.0
C916 C 0.01954 0.60661 0.51141 0.0
C917 C 0.99807 0.60618 0.49415 0.0
C918 C 0.0442 0.689 0.56028 0.0
C919 C 0.0166 0.65708 0.52466 0.0
C920 C 0.04529 0.71084 0.58226 0.0
C921 C 0.02327 0.72593 0.58928 0.0
C922 C 0.02104 0.68276 0.54504 0.0
C923 C 1.00139 0.72064 0.57227 0.0
C924 C 0.02904 0.63206 0.52658 0.0
C925 C 0.98782 0.63192 0.49083 0.0
N926 N 1.00071 0.6993 0.55112 0.0
N927 N 0.99671 0.65622 0.50647 0.0
H928 H 0.7133 0.87504 0.18863 0.0
H929 H 0.81633 0.94379 0.29815 0.0
H930 H 0.74037 0.83068 0.25218 0.0
H931 H 0.82475 0.96429 0.2158 0.0
H932 H 0.7834 0.90586 0.28233 0.0
H933 H 0.75117 0.91003 0.19696 0.0
C934 C 0.72779 0.8722 0.20361 0.0
C935 C 0.72397 0.85019 0.21982 0.0
C936 C 0.7926 0.91844 0.26761 0.0
C937 C 0.76615 0.89022 0.23021 0.0
C938 C 0.81139 0.93999 0.27662 0.0
C939 C 0.82401 0.95613 0.25798 0.0
C940 C 0.78589 0.91342 0.23981 0.0
C941 C 0.81589 0.95157 0.23058 0.0
C942 C 0.74913 0.8922 0.20856 0.0
C943 C 0.74283 0.84747 0.23936 0.0
N944 N 0.79734 0.93042 0.22218 0.0
N945 N 0.76282 0.86757 0.24442 0.0
H946 H 0.71481 0.14679 0.36539 0.0
H947 H 0.85477 0.10784 0.30406 0.0
H948 H 0.75708 0.19144 0.30643 0.0
H949 H 0.80475 0.05074 0.34604 0.0
H950 H 0.82345 0.14394 0.31381 0.0
H951 H 0.75169 0.1168 0.36734 0.0
C952 C 0.73218 0.15058 0.35336 0.0
C953 C 0.73311 0.17132 0.33565 0.0
C954 C 0.81944 0.12364 0.32119 0.0
C955 C 0.77503 0.13737 0.33751 0.0
C956 C 0.83739 0.10301 0.31573 0.0
C957 C 0.83228 0.07606 0.32398 0.0
C958 C 0.79613 0.11739 0.33506 0.0
C959 C 0.80943 0.07115 0.33913 0.0
C960 C 0.75307 0.13344 0.35429 0.0
C961 C 0.75577 0.17547 0.3202 0.0
N962 N 0.79208 0.09151 0.34396 0.0
N963 N 0.77578 0.15854 0.32135 0.0
H964 H 0.43911 0.02006 0.0301 0.0
H965 H 0.30001 0.96447 0.96461 0.0
H966 H 0.41662 0.02862 0.94803 0.0
H967 H 0.32368 0.94635 0.0439 0.0
H968 H 0.34132 0.9917 0.96037 0.0
H969 H 0.39614 0.99571 0.03735 0.0
C970 C 0.42507 0.01648 0.0136 0.0
C971 C 0.43126 0.02573 0.98832 0.0
C972 C 0.3375 0.98193 0.97879 0.0
C973 C 0.38226 0.99865 0.9964 0.0
C974 C 0.31378 0.96641 0.98131 0.0
C975 C 0.30832 0.95284 1.0046 0.0
C976 C 0.35612 0.98399 0.99965 0.0
C977 C 0.327 0.95641 0.02558 0.0
C978 C 0.40062 1.00277 0.01771 0.0
C979 C 0.41253 0.02122 0.96759 0.0
N980 N 0.35017 0.97148 0.02252 0.0
N981 N 0.38887 1.00799 0.97207 0.0
H982 H 0.25481 0.33977 0.32218 0.0
H983 H 0.22357 0.50318 0.33301 0.0
H984 H 0.31099 0.4091 0.34793 0.0
H985 H 0.17379 0.43472 0.29129 0.0
H986 H 0.25289 0.46863 0.34511 0.0
H987 H 0.22223 0.37384 0.31676 0.0
C988 C 0.26009 0.36224 0.32694 0.0
C989 C 0.28544 0.37182 0.33553 0.0
C990 C 0.23544 0.46114 0.33352 0.0
C991 C 0.24856 0.41088 0.32934 0.0
C992 C 0.21858 0.48085 0.32674 0.0
C993 C 0.19622 0.47186 0.31098 0.0
C994 C 0.22989 0.43217 0.3246 0.0
C995 C 0.19084 0.44263 0.30338 0.0
C996 C 0.24162 0.38166 0.32376 0.0
C997 C 0.29159 0.40107 0.3412 0.0
N998 N 0.20761 0.42386 0.31013 0.0
N999 N 0.27329 0.4196 0.33799 0.0
H1000 H 0.10617 0.99034 0.48459 0.0
H1001 H 0.20359 0.10976 0.56693 0.0
H1002 H 0.08446 0.04159 0.55837 0.0
H1003 H 0.21782 0.06979 0.48527 0.0
H1004 H 0.16391 0.07799 0.56914 0.0
H1005 H 0.15104 0.01169 0.48976 0.0
C1006 C 0.11126 1.00529 0.50251 0.0
C1007 C 0.09189 0.01389 0.52137 0.0
C1008 C 0.17579 0.07601 0.5508 0.0
C1009 C 0.14286 0.0392 0.52709 0.0
C1010 C 0.19836 0.09416 0.54953 0.0
C1011 C 0.21322 0.09313 0.52543 0.0
C1012 C 0.16847 0.05621 0.52803 0.0
C1013 C 0.20622 0.07196 0.5038 0.0
C1014 C 0.13672 0.01778 0.50528 0.0
C1015 C 0.09907 0.03405 0.54376 0.0
N1016 N 0.18422 0.05454 0.50548 0.0
N1017 N 0.12392 0.04626 0.54589 0.0
H1018 H 0.81404 0.16126 0.69328 0.0
H1019 H 0.71466 0.09213 0.79643 0.0
H1020 H 0.79454 0.20309 0.77274 0.0
H1021 H 0.71767 0.06284 0.71017 0.0
H1022 H 0.75075 0.12734 0.79084 0.0
H1023 H 0.78595 0.11953 0.70211 0.0
C1024 C 0.80422 0.16129 0.71284 0.0
C1025 C 0.80636 0.18554 0.73227 0.0
C1026 C 0.74361 0.11321 0.77311 0.0
C1027 C 0.77424 0.13818 0.74254 0.0
C1028 C 0.72292 0.09328 0.77625 0.0
C1029 C 0.71259 0.07549 0.75349 0.0
C1030 C 0.7543 0.11508 0.74704 0.0
C1031 C 0.7247 0.07679 0.72804 0.0
C1032 C 0.78812 0.13763 0.71781 0.0
C1033 C 0.79345 0.18468 0.75736 0.0
N1034 N 0.74475 0.09658 0.7254 0.0
N1035 N 0.77771 0.16147 0.76171 0.0
H1036 H 0.44972 0.01636 0.50795 0.0
H1037 H 0.34659 0.12644 0.56254 0.0
H1038 H 0.42724 0.03113 0.59277 0.0
H1039 H 0.33513 0.07528 0.48425 0.0
H1040 H 0.38309 0.09888 0.57136 0.0
H1041 H 0.41374 0.0441 0.49632 0.0
C1042 C 0.4372 0.02537 0.52408 0.0
C1043 C 0.44155 0.02156 0.5514 0.0
C1044 C 0.37267 0.09378 0.55219 0.0
C1045 C 0.40109 0.05388 0.5384 0.0
C1046 C 0.35193 0.1096 0.54703 0.0
C1047 C 0.33771 0.10313 0.52262 0.0
C1048 C 0.37973 0.07159 0.53261 0.0
C1049 C 0.34551 0.08091 0.50337 0.0
C1050 C 0.4168 0.04123 0.51745 0.0
C1051 C 0.42498 0.03406 0.57157 0.0
N1052 N 0.36612 0.06598 0.50871 0.0
N1053 N 0.40568 0.04984 0.56471 0.0
H1054 H 0.60615 0.56193 0.55086 0.0
H1055 H 0.66922 0.41798 0.54552 0.0
H1056 H 0.55828 0.48358 0.54371 0.0
H1057 H 0.70106 0.47549 0.49095 0.0
H1058 H 0.63115 0.44633 0.55318 0.0
H1059 H 0.64394 0.53526 0.53424 0.0
C1060 C 0.60343 0.5393 0.54477 0.0
C1061 C 0.57915 0.52486 0.54845 0.0
C1062 C 0.64655 0.45272 0.53958 0.0
C1063 C 0.62215 0.4943 0.53114 0.0
C1064 C 0.66832 0.43674 0.53541 0.0
C1065 C 0.6883 0.44442 0.51761 0.0
C1066 C 0.64504 0.47703 0.5265 0.0
C1067 C 0.68601 0.46883 0.50478 0.0
C1068 C 0.62497 0.52408 0.53569 0.0
C1069 C 0.57672 0.49538 0.54104 0.0
N1070 N 0.6649 0.48451 0.50972 0.0
N1071 N 0.59804 0.48099 0.53343 0.0
H1072 H 0.74516 0.23035 0.36094 0.0
H1073 H 0.68648 0.31963 0.4901 0.0
H1074 H 0.6715 0.20556 0.39639 0.0
H1075 H 0.76832 0.32593 0.47009 0.0
H1076 H 0.68094 0.27607 0.45746 0.0
H1077 H 0.75577 0.26245 0.40287 0.0
C1078 C 0.73161 0.23107 0.37796 0.0
C1079 C 0.70735 0.21568 0.37527 0.0
C1080 C 0.70017 0.28684 0.46039 0.0
C1081 C 0.71855 0.25328 0.42254 0.0
C1082 C 0.70323 0.31171 0.47884 0.0
C1083 C 0.72762 0.32681 0.48173 0.0
C1084 C 0.72175 0.27705 0.44507 0.0
C1085 C 0.74896 0.3154 0.46745 0.0
C1086 C 0.73745 0.24964 0.40173 0.0
C1087 C 0.69022 0.21758 0.39768 0.0
N1088 N 0.74549 0.29144 0.44939 0.0
N1089 N 0.69583 0.2366 0.42016 0.0
H1090 H 0.53256 0.0221 0.95898 0.0
H1091 H 0.58606 0.09137 0.82769 0.0
H1092 H 0.50277 0.09584 0.93219 0.0
H1093 H 0.61065 0.01205 0.84819 0.0
H1094 H 0.55781 0.09483 0.86766 0.0
H1095 H 0.56424 0.02022 0.92119 0.0
C1096 C 0.53302 0.03811 0.94527 0.0
C1097 C 0.51508 0.05908 0.94848 0.0
C1098 C 0.56931 0.07661 0.86347 0.0
C1099 C 0.55098 0.05708 0.90521 0.0
C1100 C 0.5855 0.07453 0.84051 0.0
C1101 C 0.60087 0.05129 0.83437 0.0
C1102 C 0.56835 0.05539 0.88072 0.0
C1103 C 0.5991 0.03025 0.85194 0.0
C1104 C 0.55097 0.03699 0.92369 0.0
C1105 C 0.51649 0.07954 0.93047 0.0
N1106 N 0.5832 0.03284 0.87434 0.0
N1107 N 0.53398 0.07791 0.90947 0.0
H1108 H 0.35353 0.30832 0.39032 0.0
H1109 H 0.25935 0.1755 0.41709 0.0
H1110 H 0.3011 0.26242 0.33043 0.0
H1111 H 0.32139 0.20847 0.47298 0.0
H1112 H 0.27779 0.20465 0.38374 0.0
H1113 H 0.34663 0.26966 0.41889 0.0
C1114 C 0.34155 0.28941 0.38266 0.0
C1115 C 0.32824 0.28818 0.35781 0.0
C1116 C 0.28766 0.20541 0.40312 0.0
C1117 C 0.31921 0.24455 0.39073 0.0
C1118 C 0.27705 0.18874 0.42232 0.0
C1119 C 0.28868 0.18959 0.44807 0.0
C1120 C 0.30994 0.22376 0.40966 0.0
C1121 C 0.31174 0.20711 0.45341 0.0
C1122 C 0.33728 0.26756 0.3991 0.0
C1123 C 0.3121 0.26381 0.34919 0.0
N1124 N 0.32139 0.22385 0.43455 0.0
N1125 N 0.30774 0.24322 0.36574 0.0
H1126 H 0.48199 0.53361 0.99076 0.0
H1127 H 0.45746 0.47793 0.83315 0.0
H1128 H 0.53953 0.49414 0.93766 0.0
H1129 H 0.40888 0.53812 0.87785 0.0
H1130 H 0.48712 0.48331 0.87186 0.0
H1131 H 0.4541 0.53526 0.95067 0.0
C1132 C 0.4887 0.52551 0.97055 0.0
C1133 C 0.51287 0.51366 0.96723 0.0
C1134 C 0.47013 0.49558 0.87324 0.0
C1135 C 0.4814 0.51523 0.92163 0.0
C1136 C 0.45312 0.49246 0.85112 0.0
C1137 C 0.43058 0.50752 0.85229 0.0
C1138 C 0.46449 0.51355 0.89709 0.0
C1139 C 0.42609 0.5262 0.87606 0.0
C1140 C 0.47293 0.5265 0.94775 0.0
C1141 C 0.52096 0.50343 0.94084 0.0
N1142 N 0.44274 0.52844 0.89771 0.0
N1143 N 0.50519 0.50423 0.91908 0.0
H1144 H 0.73447 0.79303 0.19578 0.0
H1145 H 0.70007 0.72359 0.04256 0.0
H1146 H 0.66629 0.80989 0.15258 0.0
H1147 H 0.76915 0.70747 0.08535 0.0
H1148 H 0.68974 0.75895 0.08081 0.0
H1149 H 0.75019 0.76591 0.15378 0.0
C1150 C 0.72317 0.79154 0.17721 0.0
C1151 C 0.69912 0.80363 0.17748 0.0
C1152 C 0.70728 0.74785 0.08174 0.0
C1153 C 0.71647 0.77214 0.12959 0.0
C1154 C 0.71323 0.72762 0.05984 0.0
C1155 C 0.73546 0.71224 0.06067 0.0
C1156 C 0.72358 0.7528 0.10481 0.0
C1157 C 0.75172 0.71858 0.08373 0.0
C1158 C 0.73196 0.77585 0.15332 0.0
C1159 C 0.68488 0.80069 0.15308 0.0
N1160 N 0.74536 0.73816 0.1049 0.0
N1161 N 0.69362 0.78504 0.1302 0.0
H1162 H 0.01147 0.07243 0.1348 0.0
H1163 H 0.93511 0.95403 0.21257 0.0
H1164 H 1.0023 0.98437 0.10133 0.0
H1165 H 0.92848 0.04384 0.23471 0.0
H1166 H 0.96315 0.96433 0.17418 0.0
H1167 H 0.98416 0.06204 0.17388 0.0
C1168 C 1.00355 0.05092 0.13573 0.0
C1169 C 0.00898 0.02921 0.11492 0.0
C1170 C 0.95555 0.98176 0.18746 0.0
C1171 C 0.97815 0.01699 0.1596 0.0
C1172 C 0.93961 0.97592 0.20948 0.0
C1173 C 0.92933 0.9981 0.22696 0.0
C1174 C 0.96151 0.00998 0.18297 0.0
C1175 C 0.93584 0.02603 0.22178 0.0
C1176 C 0.98808 0.04495 0.15801 0.0
C1177 C 0.99871 1.00158 0.11716 0.0
N1178 N 0.95154 0.03116 0.20031 0.0
N1179 N 0.9838 0.99621 0.13915 0.0
H1180 H 0.30841 0.80768 0.21847 0.0
H1181 H 0.30735 0.83203 0.06055 0.0
H1182 H 0.32883 0.74556 0.15193 0.0
H1183 H 0.26775 0.88469 0.12337 0.0
H1184 H 0.32219 0.80475 0.0952 0.0
H1185 H 0.29984 0.8404 0.18532 0.0
C1186 C 0.31137 0.80119 0.19685 0.0
C1187 C 0.31926 0.77405 0.18772 0.0
C1188 C 0.31042 0.8224 0.10148 0.0
C1189 C 0.30959 0.811 0.14985 0.0
C1190 C 0.30202 0.83812 0.0817 0.0
C1191 C 0.28611 0.86062 0.089 0.0
C1192 C 0.30299 0.82918 0.12891 0.0
C1193 C 0.27992 0.86747 0.11679 0.0
C1194 C 0.30638 0.8197 0.17798 0.0
C1195 C 0.32267 0.76633 0.1596 0.0
N1196 N 0.28824 0.85171 0.13574 0.0
N1197 N 0.3178 0.78468 0.14166 0.0
H1198 H 1.00181 0.46176 0.12258 0.0
H1199 H 0.11003 0.57108 0.19351 0.0
H1200 H 0.04443 0.52294 0.07913 0.0
H1201 H 0.09953 0.48732 0.21793 0.0
H1202 H 0.08284 0.55501 0.1535 0.0
H1203 H 0.03494 0.47047 0.1591 0.0
C1204 C 0.01858 0.4764 0.12045 0.0
C1205 C 0.02055 0.49172 0.09799 0.0
C1206 C 0.08662 0.54007 0.1675 0.0
C1207 C 0.05774 0.5026 0.13981 0.0
C1208 C 0.10205 0.54927 0.19049 0.0
C1209 C 0.10721 0.53053 0.2092 0.0
C1210 C 0.07557 0.51206 0.16333 0.0
C1211 C 0.09619 0.50247 0.20403 0.0
C1212 C 0.03732 0.48155 0.1413 0.0
C1213 C 0.04235 0.51082 0.09623 0.0
N1214 N 0.08062 0.49417 0.18177 0.0
N1215 N 0.05981 0.51616 0.1171 0.0
H1216 H 0.36353 0.68723 0.2457 0.0
H1217 H 0.43692 0.7672 0.37786 0.0
H1218 H 0.34095 0.76559 0.28974 0.0
H1219 H 0.44744 0.67945 0.3498 0.0
H1220 H 0.40158 0.76616 0.34531 0.0
H1221 H 0.39342 0.68228 0.28328 0.0
C1222 C 0.36459 0.70309 0.26354 0.0
C1223 C 0.35014 0.72705 0.2646 0.0
C1224 C 0.41126 0.74691 0.34638 0.0
C1225 C 0.38436 0.7219 0.30724 0.0
C1226 C 0.43134 0.74746 0.36517 0.0
C1227 C 0.44441 0.72307 0.36728 0.0
C1228 C 0.40457 0.72199 0.32871 0.0
C1229 C 0.43739 0.69852 0.34922 0.0
C1230 C 0.38169 0.70037 0.28487 0.0
C1231 C 0.35217 0.74711 0.28801 0.0
N1232 N 0.41792 0.69858 0.33061 0.0
N1233 N 0.36916 0.74427 0.3082 0.0
H1234 H 0.9796 0.42313 0.08478 0.0
H1235 H 0.032 0.32705 0.95271 0.0
H1236 H 0.02191 0.45721 0.01934 0.0
H1237 H 0.9753 0.29761 0.0098 0.0
H1238 H 0.03765 0.37257 0.98237 0.0
H1239 H 0.98753 0.37501 0.06349 0.0
C1240 C 0.99148 0.42037 0.06648 0.0
C1241 C 1.00053 0.44393 0.05395 0.0
C1242 C 0.02429 0.35595 0.98858 0.0
C1243 C 0.0089 0.3892 0.02883 0.0
C1244 C 0.02118 0.32988 0.97174 0.0
C1245 C 1.00294 0.30851 0.9786 0.0
C1246 C 0.00926 0.36058 0.01258 0.0
C1247 C 0.98935 0.31354 1.00348 0.0
C1248 C 0.99571 0.39298 0.05409 0.0
C1249 C 0.01507 0.43943 0.02974 0.0
N1250 N 0.99264 0.33903 0.01939 0.0
N1251 N 0.01858 0.41259 0.01777 0.0
H1252 H 0.60899 0.82187 0.23723 0.0
H1253 H 0.58758 0.7651 0.38239 0.0
H1254 H 0.67116 0.80227 0.28769 0.0
H1255 H 0.52534 0.79637 0.33947 0.0
H1256 H 0.61823 0.77872 0.34754 0.0
H1257 H 0.57745 0.81183 0.27348 0.0
C1258 C 0.61585 0.81536 0.25597 0.0
C1259 C 0.6425 0.81292 0.25975 0.0
C1260 C 0.59793 0.78285 0.34577 0.0
C1261 C 0.60703 0.80159 0.30106 0.0
C1262 C 0.5804 0.77512 0.36574 0.0
C1263 C 0.55386 0.77958 0.36382 0.0
C1264 C 0.58889 0.79488 0.32343 0.0
C1265 C 0.54568 0.79267 0.34177 0.0
C1266 C 0.598 0.80981 0.27665 0.0
C1267 C 0.6507 0.80455 0.28426 0.0
N1268 N 0.56311 0.79964 0.32226 0.0
N1269 N 0.63306 0.79915 0.30395 0.0
H1270 H 0.03958 0.04788 1.00227 0.0
H1271 H 0.98582 0.19637 1.00128 0.0
H1272 H 0.05074 0.11299 0.07084 0.0
H1273 H 0.02399 0.15982 0.9281 0.0
H1274 H 1.0041 0.16139 0.02648 0.0
H1275 H 0.03083 0.08449 0.97309 0.0
C1276 C 0.04129 0.07 0.01084 0.0
C1277 C 0.04612 0.07759 0.03886 0.0
C1278 C 0.0085 0.16108 1.0049 0.0
C1279 C 0.03474 0.11907 1.00632 0.0
C1280 C 0.99788 0.18084 0.99047 0.0
C1281 C 1.00338 0.18101 0.96256 0.0
C1282 C 0.02418 0.14077 0.99125 0.0
C1283 C 0.01936 0.16048 0.94965 0.0
C1284 C 0.03594 0.09079 0.99436 0.0
C1285 C 0.04729 0.10645 0.04927 0.0
N1286 N 0.02896 0.14091 0.96401 0.0
N1287 N 0.041 0.12604 0.03322 0.0
H1288 H 0.34153 0.27574 0.29712 0.0
H1289 H 0.47445 0.3244 0.22279 0.0
H1290 H 0.38729 0.35299 0.3248 0.0
H1291 H 0.42902 0.24534 0.1998 0.0
H1292 H 0.44383 0.33536 0.26091 0.0
H1293 H 0.37543 0.26294 0.26329 0.0
C1294 C 0.35917 0.28952 0.29663 0.0
C1295 C 0.36177 0.31528 0.31386 0.0
C1296 C 0.44067 0.31561 0.24747 0.0
C1297 C 0.40028 0.30157 0.27442 0.0
C1298 C 0.45803 0.30948 0.22556 0.0
C1299 C 0.45449 0.28388 0.20796 0.0
C1300 C 0.41956 0.29606 0.25174 0.0
C1301 C 0.43284 0.26527 0.2128 0.0
C1302 C 0.37837 0.28252 0.27702 0.0
C1303 C 0.3847 0.33286 0.31187 0.0
N1304 N 0.41637 0.27171 0.23407 0.0
N1305 N 0.40292 0.32589 0.29231 0.0
H1306 H 0.55008 0.43427 1.00444 0.0
H1307 H 0.54532 0.38028 0.15111 0.0
H1308 H 0.55223 0.49447 0.07736 0.0
H1309 H 0.50445 0.33648 0.08037 0.0
H1310 H 0.55661 0.42042 0.12523 0.0
H1311 H 0.54426 0.39549 0.03261 0.0
C1312 C 0.5502 0.43916 0.02651 0.0
C1313 C 0.55177 0.46745 0.03868 0.0
C1314 C 0.54506 0.40204 0.11554 0.0
C1315 C 0.5446 0.42336 0.0711 0.0
C1316 C 0.53852 0.3792 0.13028 0.0
C1317 C 0.52372 0.35503 0.11797 0.0
C1318 C 0.53738 0.40031 0.08809 0.0
C1319 C 0.51564 0.35472 0.09083 0.0
C1320 C 0.54649 0.41714 0.04255 0.0
C1321 C 0.55139 0.47286 0.06734 0.0
N1322 N 0.5228 0.37679 0.07677 0.0
N1323 N 0.54768 0.45099 0.08267 0.0
H1324 H 0.63504 0.16447 0.29094 0.0
H1325 H 0.58274 0.27698 0.2008 0.0
H1326 H 0.67619 0.24454 0.28221 0.0
H1327 H 0.54251 0.19557 0.20813 0.0
H1328 H 0.61748 0.26529 0.22986 0.0
H1329 H 0.6015 0.17475 0.25921 0.0
C1330 C 0.63702 0.18404 0.28192 0.0
C1331 C 0.65814 0.2037 0.28883 0.0
C1332 C 0.60104 0.25 0.2251 0.0
C1333 C 0.62007 0.21597 0.25314 0.0
C1334 C 0.58111 0.2567 0.20856 0.0
C1335 C 0.55953 0.2373 0.202 0.0
C1336 C 0.59943 0.22371 0.23522 0.0
C1337 C 0.55866 0.21128 0.21264 0.0
C1338 C 0.61794 0.19003 0.26401 0.0
C1339 C 0.66006 0.22895 0.27707 0.0
N1340 N 0.57828 0.20529 0.22869 0.0
N1341 N 0.64117 0.23447 0.25986 0.0
H1342 H 0.52949 0.08765 0.01541 0.0
H1343 H 0.4844 0.23502 0.07575 0.0
H1344 H 0.47189 0.12902 0.9758 0.0
H1345 H 0.56142 0.21193 0.09269 0.0
H1346 H 0.48141 0.19776 0.0367 0.0
H1347 H 0.54485 0.13366 0.04073 0.0
C1348 C 0.52076 0.10669 0.01142 0.0
C1349 C 0.49937 0.10481 0.99381 0.0
C1350 C 0.4992 0.20103 0.04859 0.0
C1351 C 0.51588 0.15698 0.02321 0.0
C1352 C 0.50077 0.22213 0.07102 0.0
C1353 C 0.52281 0.22575 0.08783 0.0
C1354 C 0.51966 0.18307 0.04323 0.0
C1355 C 0.54384 0.20919 0.08047 0.0
C1356 C 0.52933 0.13285 0.02595 0.0
C1357 C 0.4884 0.12984 0.98937 0.0
N1358 N 0.5415 0.18797 0.05909 0.0
N1359 N 0.4963 0.1548 1.0045 0.0
H1360 H 0.21609 0.37645 0.68868 0.0
H1361 H 0.3182 0.44437 0.79889 0.0
H1362 H 0.24417 0.33041 0.75044 0.0
H1363 H 0.3266 0.46664 0.71717 0.0
H1364 H 0.28634 0.40566 0.78213 0.0
H1365 H 0.25383 0.41152 0.6974 0.0
C1366 C 0.23078 0.37325 0.70331 0.0
C1367 C 0.22724 0.35076 0.71896 0.0
C1368 C 0.29535 0.41878 0.76774 0.0
C1369 C 0.26932 0.39086 0.7298 0.0
C1370 C 0.31354 0.44076 0.77729 0.0
C1371 C 0.32585 0.45769 0.7591 0.0
C1372 C 0.28881 0.41416 0.73989 0.0
C1373 C 0.31802 0.45335 0.7316 0.0
C1374 C 0.25206 0.3933 0.70848 0.0
C1375 C 0.24639 0.34759 0.73807 0.0
N1376 N 0.29998 0.43183 0.7227 0.0
N1377 N 0.2663 0.36775 0.7434 0.0
H1378 H 0.25319 0.6951 0.81167 0.0
H1379 H 0.30238 0.55042 0.84859 0.0
H1380 H 0.21143 0.64521 0.86688 0.0
H1381 H 0.34988 0.60989 0.80686 0.0
H1382 H 0.2704 0.58603 0.85886 0.0
H1383 H 0.2904 0.6659 0.81284 0.0
C1384 C 0.25223 0.67822 0.82445 0.0
C1385 C 0.2295 0.67239 0.83923 0.0
C1386 C 0.28801 0.59143 0.84782 0.0
C1387 C 0.27146 0.63839 0.84026 0.0
C1388 C 0.30631 0.5711 0.84197 0.0
C1389 C 0.32876 0.57706 0.82661 0.0
C1390 C 0.29207 0.6178 0.83801 0.0
C1391 C 0.3328 0.60424 0.81859 0.0
C1392 C 0.27333 0.6615 0.82511 0.0
C1393 C 0.22883 0.65028 0.85539 0.0
N1394 N 0.31451 0.62342 0.82408 0.0
N1395 N 0.24939 0.63375 0.8552 0.0
H1396 H 0.93833 0.52074 0.52915 0.0
H1397 H 0.79697 0.46845 0.46769 0.0
H1398 H 0.9129 0.53246 0.44889 0.0
H1399 H 0.82397 0.44428 0.54334 0.0
H1400 H 0.83784 0.49648 0.46354 0.0
H1401 H 0.89565 0.49609 0.53725 0.0
C1402 C 0.9237 0.51781 0.51323 0.0
C1403 C 0.92898 0.52802 0.48819 0.0
C1404 C 0.83486 0.48523 0.48117 0.0
C1405 C 0.88032 0.50064 0.49727 0.0
C1406 C 0.81141 0.46925 0.48364 0.0
C1407 C 0.80704 0.45371 0.5058 0.0
C1408 C 0.85434 0.48577 0.50094 0.0
C1409 C 0.82647 0.45591 0.52593 0.0
C1410 C 0.89943 0.50392 0.51782 0.0
C1411 C 0.90952 0.52433 0.46823 0.0
N1412 N 0.84941 0.47144 0.52289 0.0
N1413 N 0.88605 0.51094 0.47318 0.0
H1414 H 0.8136 0.91039 0.85206 0.0
H1415 H 0.67373 0.93261 0.79228 0.0
H1416 H 0.75721 0.84156 0.82541 0.0
H1417 H 0.72487 1.00138 0.83134 0.0
H1418 H 0.70322 0.8989 0.80574 0.0
H1419 H 0.78102 0.94423 0.84569 0.0
C1420 C 0.79422 0.90254 0.84505 0.0
C1421 C 0.7879 0.87335 0.83928 0.0
C1422 C 0.70787 0.92135 0.81164 0.0
C1423 C 0.75063 0.91158 0.83175 0.0
C1424 C 0.69099 0.94063 0.804 0.0
C1425 C 0.69687 0.96989 0.81059 0.0
C1426 C 0.731 0.93138 0.82573 0.0
C1427 C 0.71954 0.97902 0.82581 0.0
C1428 C 0.77563 0.92174 0.84147 0.0
C1429 C 0.76263 0.86398 0.83024 0.0
N1430 N 0.7359 0.95986 0.8326 0.0
N1431 N 0.74496 0.88303 0.82656 0.0
H1432 H 0.60584 0.49114 0.98431 0.0
H1433 H 0.70356 0.60895 0.06798 0.0
H1434 H 0.58519 0.53974 0.05999 0.0
H1435 H 0.71834 0.56891 0.98647 0.0
H1436 H 0.66402 0.57698 0.07005 0.0
H1437 H 0.65087 0.51192 0.98964 0.0
C1438 C 0.6112 0.50532 1.00266 0.0
C1439 C 0.59206 0.51341 0.022 0.0
C1440 C 0.67598 0.57502 0.05178 0.0
C1441 C 0.64321 0.53815 0.02791 0.0
C1442 C 0.69846 0.5933 0.05058 0.0
C1443 C 0.71342 0.59233 0.02655 0.0
C1444 C 0.66882 0.55518 0.02898 0.0
C1445 C 0.70663 0.57108 1.00493 0.0
C1446 C 0.63675 0.51751 1.00554 0.0
C1447 C 0.59961 0.53259 0.04499 0.0
N1448 N 0.68468 0.55356 0.00652 0.0
N1449 N 0.62452 0.5446 0.04718 0.0
H1450 H 0.29616 0.70624 0.27626 0.0
H1451 H 0.21777 0.56367 0.21162 0.0
H1452 H 0.3121 0.66446 0.19576 0.0
H1453 H 0.21533 0.59529 0.29739 0.0
H1454 H 0.25413 0.59884 0.20575 0.0
H1455 H 0.26883 0.66418 0.28561 0.0
C1456 C 0.2944 0.68785 0.26086 0.0
C1457 C 0.30617 0.6887 0.2352 0.0
C1458 C 0.24577 0.59798 0.22591 0.0
C1459 C 0.27439 0.64099 0.24521 0.0
C1460 C 0.22501 0.57801 0.22917 0.0
C1461 C 0.21298 0.57755 0.25475 0.0
C1462 C 0.25464 0.61729 0.2485 0.0
C1463 C 0.22346 0.59588 0.27709 0.0
C1464 C 0.27864 0.66395 0.26604 0.0
C1465 C 0.30303 0.66457 0.21569 0.0
N1466 N 0.24344 0.61529 0.27341 0.0
N1467 N 0.28711 0.64186 0.2209 0.0
H1468 H 0.93007 0.53262 0.09691 0.0
H1469 H 0.83514 0.57567 0.98579 0.0
H1470 H 0.94796 0.51651 0.01099 0.0
H1471 H 0.84633 0.62491 0.06506 0.0
H1472 H 0.87224 0.54841 0.9949 0.0
H1473 H 0.89466 0.5612 0.08624 0.0
C1474 C 0.92662 0.53528 0.07582 0.0
C1475 C 0.94212 0.52246 0.05483 0.0
C1476 C 0.86661 0.56533 0.01016 0.0
C1477 C 0.90116 0.55432 0.04236 0.0
C1478 C 0.84547 0.58085 1.005 0.0
C1479 C 0.83769 0.60267 0.02465 0.0
C1480 C 0.87958 0.57122 0.0354 0.0
C1481 C 0.85173 0.60841 0.04925 0.0
C1482 C 0.90638 0.55146 0.06972 0.0
C1483 C 0.93634 0.5259 0.02773 0.0
N1484 N 0.87176 0.59261 0.05404 0.0
N1485 N 0.91622 0.54136 0.02222 0.0
H1486 H 0.06409 1.00484 0.01358 0.0
H1487 H 0.19946 0.95985 0.06073 0.0
H1488 H 0.10606 0.05157 0.08173 0.0
H1489 H 0.17495 0.94206 0.97646 0.0
H1490 H 0.16425 0.99195 0.06961 0.0
H1491 H 0.10384 0.98121 0.99897 0.0
C1492 C 0.08206 0.01095 0.02473 0.0
C1493 C 0.08208 0.03042 0.04855 0.0
C1494 C 0.16674 0.98115 0.04914 0.0
C1495 C 0.12708 1.00248 0.03311 0.0
C1496 C 0.1867 0.96263 0.04411 0.0
C1497 C 0.19019 0.94807 0.01783 0.0
C1498 C 0.14976 0.98475 0.0279 0.0
C1499 C 0.17308 0.95276 0.99705 0.0
C1500 C 0.10461 0.99721 0.01671 0.0
C1501 C 0.10556 0.03699 0.06297 0.0
N1502 N 0.15349 0.9704 1.00259 0.0
N1503 N 0.12697 0.02262 0.05541 0.0
loop_
_geom_bond_atom_site_label_1
_geom_bond_atom_site_label_2
_geom_bond_distance
_geom_bond_site_symmetry_2
_ccdc_geom_bond_type
C0 N1 1.317 . S
C0 N2 1.387 . S
C0 C3 1.485 1_545 S
N1 C0 1.317 . S
N1 N5 1.370 . S
N2 C0 1.387 . S
N2 C4 1.343 1_455 S
C3 C0 1.485 1_565 S
C3 H7 0.960 . S
C3 H8 0.961 . S
C3 H9 0.960 . S
C4 N2 1.343 1_655 S
C4 N5 1.310 1_655 S
C4 C6 1.483 . S
N5 N1 1.370 . S
N5 C4 1.310 1_455 S
C6 C4 1.483 . S
C6 H10 0.960 . S
C6 H11 0.960 . S
C6 H12 0.959 . S
H7 C3 0.960 . S
H8 C3 0.961 . S
H9 C3 0.960 . S
H10 C6 0.960 . S
H11 C6 0.960 . S
H12 C6 0.959 . S
C13 N14 1.317 . S
C13 N15 1.348 . S
C13 C16 1.485 . S
N14 C13 1.317 . S
N14 N18 1.370 . S
N15 C13 1.348 . S
N15 C17 1.346 . S
C16 C13 1.485 . S
C16 H20 0.960 . S
C16 H21 0.961 . S
C16 H22 0.960 . S
C17 N15 1.346 . S
C17 N18 1.307 . S
C17 C19 1.486 . S
N18 N14 1.370 . S
N18 C17 1.307 . S
C19 C17 1.486 . S
C19 H23 0.960 . S
C19 H24 0.960 . S
C19 H25 0.959 . S
H20 C16 0.960 . S
H21 C16 0.961 . S
H22 C16 0.960 . S
H23 C19 0.960 . S
H24 C19 0.960 . S
H25 C19 0.959 . S
C26 N27 1.317 . S
C26 N28 1.348 . S
C26 C29 1.485 . S
N27 C26 1.317 . S
N27 N31 1.370 . S
N28 C26 1.348 . S
N28 C30 1.346 . S
C29 C26 1.485 . S
C29 H33 0.960 . S
C29 H34 0.961 . S
C29 H35 0.960 . S
C30 N28 1.346 . S
C30 N31 1.307 . S
C30 C32 1.486 . S
N31 N27 1.370 . S
N31 C30 1.307 . S
C32 C30 1.486 . S
C32 H36 0.940 1_554 S
C32 H37 0.960 . S
C32 H38 0.959 . S
H33 C29 0.960 . S
H34 C29 0.961 . S
H35 C29 0.960 . S
H36 C32 0.940 1_556 S
H37 C32 0.960 . S
H38 C32 0.959 . S
C39 N40 1.317 . S
C39 N41 1.348 . S
C39 C42 1.485 . S
N40 C39 1.317 . S
N40 N44 1.370 . S
N41 C39 1.348 . S
N41 C43 1.346 . S
C42 C39 1.485 . S
C42 H46 0.960 . S
C42 H47 0.961 . S
C42 H48 0.960 . S
C43 N41 1.346 . S
C43 N44 1.307 . S
C43 C45 1.486 . S
N44 N40 1.370 . S
N44 C43 1.307 . S
C45 C43 1.486 . S
C45 H49 0.960 . S
C45 H50 0.960 . S
C45 H51 0.959 . S
H46 C42 0.960 . S
H47 C42 0.961 . S
H48 C42 0.960 . S
H49 C45 0.960 . S
H50 C45 0.960 . S
H51 C45 0.959 . S
C52 N53 1.317 . S
C52 N54 1.348 . S
C52 C55 1.485 1_455 S
N53 C52 1.317 . S
N53 N57 1.370 . S
N54 C52 1.348 . S
N54 C56 1.346 1_565 S
C55 C52 1.485 1_655 S
C55 H59 0.960 1_655 S
C55 H60 0.961 . S
C55 H61 0.963 . S
C56 N54 1.346 1_545 S
C56 N57 1.307 1_545 S
C56 C58 1.486 . S
N57 N53 1.370 . S
N57 C56 1.307 1_565 S
C58 C56 1.486 . S
C58 H62 0.960 . S
C58 H63 0.960 . S
C58 H64 0.959 . S
H59 C55 0.960 1_455 S
H60 C55 0.961 . S
H61 C55 0.963 . S
H62 C58 0.960 . S
H63 C58 0.960 . S
H64 C58 0.959 . S
C65 N66 1.317 . S
C65 N67 1.348 . S
C65 C68 1.485 . S
N66 C65 1.317 . S
N66 N70 1.370 . S
N67 C65 1.348 . S
N67 C69 1.346 . S
C68 C65 1.485 . S
C68 H72 0.960 . S
C68 H73 0.961 . S
C68 H74 0.960 . S
C69 N67 1.346 . S
C69 N70 1.307 . S
C69 C71 1.486 . S
N70 N66 1.370 . S
N70 C69 1.307 . S
C71 C69 1.486 . S
C71 H75 0.960 . S
C71 H76 0.960 . S
C71 H77 0.959 . S
H72 C68 0.960 . S
H73 C68 0.961 . S
H74 C68 0.960 . S
H75 C71 0.960 . S
H76 C71 0.960 . S
H77 C71 0.959 . S
C78 N79 1.317 . S
C78 N80 1.348 . S
C78 C81 1.485 . S
N79 C78 1.317 . S
N79 N83 1.370 . S
N80 C78 1.348 . S
N80 C82 1.346 . S
C81 C78 1.485 . S
C81 H85 0.960 . S
C81 H86 0.961 . S
C81 H87 0.960 . S
C82 N80 1.346 . S
C82 N83 1.307 . S
C82 C84 1.486 . S
N83 N79 1.370 . S
N83 C82 1.307 . S
C84 C82 1.486 . S
C84 H88 0.960 . S
C84 H89 0.960 . S
C84 H90 0.959 . S
H85 C81 0.960 . S
H86 C81 0.961 . S
H87 C81 0.960 . S
H88 C84 0.960 . S
H89 C84 0.960 . S
H90 C84 0.959 . S
C91 N92 1.317 . S
C91 N93 1.348 . S
C91 C94 1.485 . S
N92 C91 1.317 . S
N92 N96 1.370 . S
N93 C91 1.348 . S
N93 C95 1.346 . S
C94 C91 1.485 . S
C94 H98 0.960 . S
C94 H99 0.961 . S
C94 H100 0.960 . S
C95 N93 1.346 . S
C95 N96 1.307 . S
C95 C97 1.486 . S
N96 N92 1.370 . S
N96 C95 1.307 . S
C97 C95 1.486 . S
C97 H101 0.960 . S
C97 H102 0.960 . S
C97 H103 0.959 . S
H98 C94 0.960 . S
H99 C94 0.961 . S
H100 C94 0.960 . S
H101 C97 0.960 . S
H102 C97 0.960 . S
H103 C97 0.959 . S
C104 N105 1.317 . S
C104 N106 1.348 . S
C104 C107 1.485 . S
N105 C104 1.317 . S
N105 N109 1.370 . S
N106 C104 1.348 . S
N106 C108 1.346 . S
C107 C104 1.485 . S
C107 H111 0.960 . S
C107 H112 0.961 . S
C107 H113 0.960 . S
C108 N106 1.346 . S
C108 N109 1.307 . S
C108 C110 1.486 . S
N109 N105 1.370 . S
N109 C108 1.307 . S
C110 C108 1.486 . S
C110 H114 0.960 . S
C110 H115 0.960 . S
C110 H116 0.959 . S
H111 C107 0.960 . S
H112 C107 0.961 . S
H113 C107 0.960 . S
H114 C110 0.960 . S
H115 C110 0.960 . S
H116 C110 0.959 . S
C117 N118 1.351 . S
C117 N119 1.348 . S
C117 C120 1.456 1_565 S
N118 C117 1.351 . S
N118 N122 1.370 . S
N119 C117 1.348 . S
N119 C121 1.346 . S
C120 C117 1.456 1_545 S
C120 H124 0.960 . S
C120 H125 0.961 . S
C120 H126 0.960 . S
C121 N119 1.346 . S
C121 N122 1.307 . S
C121 C123 1.486 . S
N122 N118 1.370 . S
N122 C121 1.307 . S
C123 C121 1.486 . S
C123 H127 0.960 . S
C123 H128 0.960 . S
C123 H129 0.959 . S
H124 C120 0.960 . S
H125 C120 0.961 . S
H126 C120 0.960 . S
H127 C123 0.960 . S
H128 C123 0.960 . S
H129 C123 0.959 . S
C130 N131 1.317 . S
C130 N132 1.348 . S
C130 C133 1.485 . S
N131 C130 1.317 . S
N131 N135 1.370 . S
N132 C130 1.348 . S
N132 C134 1.346 . S
C133 C130 1.485 . S
C133 H137 0.960 . S
C133 H138 0.961 . S
C133 H139 0.960 . S
C134 N132 1.346 . S
C134 N135 1.307 . S
C134 C136 1.486 . S
N135 N131 1.370 . S
N135 C134 1.307 . S
C136 C134 1.486 . S
C136 H140 0.960 . S
C136 H141 0.960 . S
C136 H142 0.959 . S
H137 C133 0.960 . S
H138 C133 0.961 . S
H139 C133 0.960 . S
H140 C136 0.960 . S
H141 C136 0.960 . S
H142 C136 0.959 . S
C143 N144 1.317 . S
C143 N145 1.348 . S
C143 C146 1.485 . S
N144 C143 1.317 . S
N144 N148 1.370 . S
N145 C143 1.348 . S
N145 C147 1.346 . S
C146 C143 1.485 . S
C146 H150 0.960 . S
C146 H151 0.961 . S
C146 H152 0.960 . S
C147 N145 1.346 . S
C147 N148 1.307 . S
C147 C149 1.486 . S
N148 N144 1.370 . S
N148 C147 1.307 . S
C149 C147 1.486 . S
C149 H153 0.960 . S
C149 H154 0.960 . S
C149 H155 0.959 . S
H150 C146 0.960 . S
H151 C146 0.961 . S
H152 C146 0.960 . S
H153 C149 0.960 . S
H154 C149 0.960 . S
H155 C149 0.959 . S
C156 N157 1.317 . S
C156 N158 1.348 . S
C156 C159 1.485 . S
N157 C156 1.317 . S
N157 N161 1.370 . S
N158 C156 1.348 . S
N158 C160 1.346 . S
C159 C156 1.485 . S
C159 H163 0.960 . S
C159 H164 0.961 . S
C159 H165 0.960 . S
C160 N158 1.346 . S
C160 N161 1.307 . S
C160 C162 1.486 . S
N161 N157 1.370 . S
N161 C160 1.307 . S
C162 C160 1.486 . S
C162 H166 0.960 . S
C162 H167 0.960 . S
C162 H168 0.959 . S
H163 C159 0.960 . S
H164 C159 0.961 . S
H165 C159 0.960 . S
H166 C162 0.960 . S
H167 C162 0.960 . S
H168 C162 0.959 . S
C169 N170 1.317 . S
C169 N171 1.348 . S
C169 C172 1.485 . S
N170 C169 1.317 . S
N170 N174 1.370 . S
N171 C169 1.348 . S
N171 C173 1.346 . S
C172 C169 1.485 . S
C172 H176 0.960 . S
C172 H177 0.961 . S
C172 H178 0.960 . S
C173 N171 1.346 . S
C173 N174 1.307 . S
C173 C175 1.486 . S
N174 N170 1.370 . S
N174 C173 1.307 . S
C175 C173 1.486 . S
C175 H179 0.960 . S
C175 H180 0.960 . S
C175 H181 0.959 . S
H176 C172 0.960 . S
H177 C172 0.961 . S
H178 C172 0.960 . S
H179 C175 0.960 . S
H180 C175 0.960 . S
H181 C175 0.959 . S
C182 N183 1.317 . S
C182 N184 1.348 . S
C182 C185 1.485 . S
N183 C182 1.317 . S
N183 N187 1.370 . S
N184 C182 1.348 . S
N184 C186 1.346 . S
C185 C182 1.485 . S
C185 H189 0.960 . S
C185 H190 0.961 . S
C185 H191 0.960 . S
C186 N184 1.346 . S
C186 N187 1.307 . S
C186 C188 1.486 . S
N187 N183 1.370 . S
N187 C186 1.307 . S
C188 C186 1.486 . S
C188 H192 0.960 . S
C188 H193 0.960 . S
C188 H194 0.959 . S
H189 C185 0.960 . S
H190 C185 0.961 . S
H191 C185 0.960 . S
H192 C188 0.960 . S
H193 C188 0.960 . S
H194 C188 0.959 . S
C195 N196 1.317 . S
C195 N197 1.348 . S
C195 C198 1.485 . S
N196 C195 1.317 . S
N196 N200 1.370 . S
N197 C195 1.348 . S
N197 C199 1.346 1_556 S
C198 C195 1.485 . S
C198 H202 0.960 . S
C198 H203 0.961 1_545 S
C198 H204 0.962 . S
C199 N197 1.346 1_554 S
C199 N200 1.307 1_554 S
C199 C201 1.486 . S
N200 N196 1.370 . S
N200 C199 1.307 1_556 S
C201 C199 1.486 . S
C201 H205 0.960 . S
C201 H206 0.960 . S
C201 H207 0.959 . S
H202 C198 0.960 . S
H203 C198 0.961 1_565 S
H204 C198 0.962 . S
H205 C201 0.960 . S
H206 C201 0.960 . S
H207 C201 0.959 . S
Mn208 O213 2.095 . S
Mn208 O223 2.162 . S
Mn208 O224 2.297 . S
Mn208 O232 2.385 . S
Mn208 O233 2.209 1_554 S
Mn208 O234 2.094 . S
Mn209 O214 2.121 . S
Mn209 N216 2.257 . S
Mn209 N225 2.282 . S
Mn209 O233 2.215 . S
Mn209 O235 2.117 . S
C210 O232 1.234 1_556 S
C210 O233 1.283 . S
C211 O223 1.281 . S
C211 O224 1.236 . S
C212 O234 1.240 . S
C212 O235 1.264 1_554 S
O213 Mn208 2.095 . S
O213 C222 1.250 . S
O214 Mn209 2.121 . S
O214 C222 1.258 1_556 S
C215 N216 1.326 . S
C215 C219 1.460 . S
C215 H221 0.929 . S
N216 Mn209 2.257 . S
N216 C215 1.326 . S
N216 C220 1.362 . S
C217 C218 1.258 . S
C217 C220 1.431 . S
C217 C237 1.449 . S
C218 C217 1.258 . S
C218 C219 1.477 . S
C218 H238 0.931 . S
C219 C215 1.460 . S
C219 C218 1.477 . S
C219 H239 0.930 . S
C220 N216 1.362 . S
C220 C217 1.431 . S
C220 C230 1.476 . S
H221 C215 0.929 . S
C222 O213 1.250 . S
C222 O214 1.258 1_554 S
O223 Mn208 2.162 . S
O223 C211 1.281 . S
O224 Mn208 2.297 . S
O224 C211 1.236 . S
N225 Mn209 2.282 . S
N225 C226 1.328 . S
N225 C230 1.318 . S
C226 N225 1.328 . S
C226 C227 1.457 . S
C226 H231 0.929 . S
C227 C226 1.457 . S
C227 C228 1.291 . S
C227 H240 0.931 . S
C228 C227 1.291 . S
C228 C229 1.373 . S
C228 H241 0.929 . S
C229 C228 1.373 . S
C229 C230 1.396 . S
C229 C236 1.403 . S
C230 C220 1.476 . S
C230 N225 1.318 . S
C230 C229 1.396 . S
H231 C226 0.929 . S
O232 Mn208 2.385 . S
O232 C210 1.234 1_554 S
O233 Mn208 2.209 1_556 S
O233 Mn209 2.215 . S
O233 C210 1.283 . S
O234 Mn208 2.094 . S
O234 C212 1.240 . S
O235 Mn209 2.117 . S
O235 C212 1.264 1_556 S
C236 C229 1.403 . S
C236 C237 1.399 . S
C236 H242 0.929 . S
C237 C217 1.449 . S
C237 C236 1.399 . S
C237 H243 0.930 . S
H238 C218 0.931 . S
H239 C219 0.930 . S
H240 C227 0.931 . S
H241 C228 0.929 . S
H242 C236 0.929 . S
H243 C237 0.930 . S
Mn244 O249 2.095 . S
Mn244 O259 2.162 . S
Mn244 O260 2.297 . S
Mn244 O268 2.385 . S
Mn244 O269 2.209 . S
Mn244 O270 2.094 . S
Mn245 O250 2.121 . S
Mn245 N252 2.257 . S
Mn245 N261 2.282 . S
Mn245 O269 2.215 . S
Mn245 O271 2.117 . S
C246 O268 1.234 . S
C246 O269 1.283 . S
C247 O259 1.281 . S
C247 O260 1.236 . S
C248 O270 1.240 . S
C248 O271 1.264 . S
O249 Mn244 2.095 . S
O249 C258 1.250 . S
O250 Mn245 2.121 . S
O250 C258 1.258 . S
C251 N252 1.326 . S
C251 C255 1.460 . S
C251 H257 0.929 . S
N252 Mn245 2.257 . S
N252 C251 1.326 . S
N252 C256 1.362 . S
C253 C254 1.258 . S
C253 C256 1.431 . S
C253 C273 1.449 . S
C254 C253 1.258 . S
C254 C255 1.477 . S
C254 H274 0.931 . S
C255 C251 1.460 . S
C255 C254 1.477 . S
C255 H275 0.930 . S
C256 N252 1.362 . S
C256 C253 1.431 . S
C256 C266 1.476 . S
H257 C251 0.929 . S
C258 O249 1.250 . S
C258 O250 1.258 . S
O259 Mn244 2.162 . S
O259 C247 1.281 . S
O260 Mn244 2.297 . S
O260 C247 1.236 . S
N261 Mn245 2.282 . S
N261 C262 1.328 . S
N261 C266 1.318 . S
C262 N261 1.328 . S
C262 C263 1.457 . S
C262 H267 0.929 . S
C263 C262 1.457 . S
C263 C264 1.291 . S
C263 H276 0.931 . S
C264 C263 1.291 . S
C264 C265 1.373 . S
C264 H277 0.929 . S
C265 C264 1.373 . S
C265 C266 1.396 . S
C265 C272 1.403 . S
C266 C256 1.476 . S
C266 N261 1.318 . S
C266 C265 1.396 . S
H267 C262 0.929 . S
O268 Mn244 2.385 . S
O268 C246 1.234 . S
O269 Mn244 2.209 . S
O269 Mn245 2.215 . S
O269 C246 1.283 . S
O270 Mn244 2.094 . S
O270 C248 1.240 . S
O271 Mn245 2.117 . S
O271 C248 1.264 . S
C272 C265 1.403 . S
C272 C273 1.399 . S
C272 H278 0.929 . S
C273 C253 1.449 . S
C273 C272 1.399 . S
C273 H279 0.930 . S
H274 C254 0.931 . S
H275 C255 0.930 . S
H276 C263 0.931 . S
H277 C264 0.929 . S
H278 C272 0.929 . S
H279 C273 0.930 . S
Mn280 O285 2.095 1_554 S
Mn280 O295 2.162 . S
Mn280 O296 2.297 1_554 S
Mn280 O304 2.385 . S
Mn280 O305 2.209 1_554 S
Mn280 O306 2.094 . S
Mn281 O286 2.121 . S
Mn281 N288 2.257 . S
Mn281 N297 2.282 1_556 S
Mn281 O305 2.215 . S
Mn281 O307 2.117 1_556 S
C282 O304 1.234 . S
C282 O305 1.283 1_554 S
C283 O295 1.281 . S
C283 O296 1.236 1_554 S
C284 O306 1.240 . S
C284 O307 1.264 . S
O285 Mn280 2.095 1_556 S
O285 C294 1.250 . S
O286 Mn281 2.121 . S
O286 C294 1.258 . S
C287 N288 1.326 . S
C287 C291 1.460 . S
C287 H293 0.929 . S
N288 Mn281 2.257 . S
N288 C287 1.326 . S
N288 C292 1.362 . S
C289 C290 1.258 . S
C289 C292 1.431 . S
C289 C309 1.449 . S
C290 C289 1.258 . S
C290 C291 1.477 . S
C290 H310 0.931 . S
C291 C287 1.460 . S
C291 C290 1.477 . S
C291 H311 0.930 . S
C292 N288 1.362 . S
C292 C289 1.431 . S
C292 C302 1.476 . S
H293 C287 0.929 . S
C294 O285 1.250 . S
C294 O286 1.258 . S
O295 Mn280 2.162 . S
O295 C283 1.281 . S
O296 Mn280 2.297 1_556 S
O296 C283 1.236 1_556 S
N297 Mn281 2.282 1_554 S
N297 C298 1.328 . S
N297 C302 1.318 1_554 S
C298 N297 1.328 . S
C298 C299 1.457 . S
C298 H303 0.929 . S
C299 C298 1.457 . S
C299 C300 1.291 . S
C299 H312 0.931 . S
C300 C299 1.291 . S
C300 C301 1.373 1_554 S
C300 H313 0.929 . S
C301 C300 1.373 1_556 S
C301 C302 1.396 . S
C301 C308 1.403 . S
C302 C292 1.476 . S
C302 N297 1.318 1_556 S
C302 C301 1.396 . S
H303 C298 0.929 . S
O304 Mn280 2.385 . S
O304 C282 1.234 . S
O305 Mn280 2.209 1_556 S
O305 Mn281 2.215 . S
O305 C282 1.283 1_556 S
O306 Mn280 2.094 . S
O306 C284 1.240 . S
O307 Mn281 2.117 1_554 S
O307 C284 1.264 . S
C308 C301 1.403 . S
C308 C309 1.399 . S
C308 H314 0.929 . S
C309 C289 1.449 . S
C309 C308 1.399 . S
C309 H315 0.930 . S
H310 C290 0.931 . S
H311 C291 0.930 . S
H312 C299 0.931 . S
H313 C300 0.929 . S
H314 C308 0.929 . S
H315 C309 0.930 . S
Mn316 O321 2.095 . S
Mn316 O331 2.162 . S
Mn316 O332 2.297 . S
Mn316 O340 2.385 1_545 S
Mn316 O341 2.209 1_545 S
Mn316 O342 2.094 . S
Mn317 O322 2.121 . S
Mn317 N324 2.257 . S
Mn317 N333 2.282 . S
Mn317 O341 2.215 . S
Mn317 O343 2.117 . S
C318 O340 1.234 . S
C318 O341 1.283 . S
C319 O331 1.281 . S
C319 O332 1.236 . S
C320 O342 1.240 . S
C320 O343 1.264 1_545 S
O321 Mn316 2.095 . S
O321 C330 1.250 . S
O322 Mn317 2.121 . S
O322 C330 1.258 1_565 S
C323 N324 1.326 . S
C323 C327 1.460 . S
C323 H329 0.929 . S
N324 Mn317 2.257 . S
N324 C323 1.326 . S
N324 C328 1.362 . S
C325 C326 1.258 . S
C325 C328 1.431 . S
C325 C345 1.449 . S
C326 C325 1.258 . S
C326 C327 1.477 . S
C326 H346 0.931 . S
C327 C323 1.460 . S
C327 C326 1.477 . S
C327 H347 0.930 . S
C328 N324 1.362 . S
C328 C325 1.431 . S
C328 C338 1.476 . S
H329 C323 0.929 . S
C330 O321 1.250 . S
C330 O322 1.258 1_545 S
O331 Mn316 2.162 . S
O331 C319 1.281 . S
O332 Mn316 2.297 . S
O332 C319 1.236 . S
N333 Mn317 2.282 . S
N333 C334 1.328 . S
N333 C338 1.318 . S
C334 N333 1.328 . S
C334 C335 1.457 . S
C334 H339 0.929 . S
C335 C334 1.457 . S
C335 C336 1.291 . S
C335 H348 0.931 . S
C336 C335 1.291 . S
C336 C337 1.373 . S
C336 H349 0.929 . S
C337 C336 1.373 . S
C337 C338 1.396 . S
C337 C344 1.403 . S
C338 C328 1.476 . S
C338 N333 1.318 . S
C338 C337 1.396 . S
H339 C334 0.929 . S
O340 Mn316 2.385 1_565 S
O340 C318 1.234 . S
O341 Mn316 2.209 1_565 S
O341 Mn317 2.215 . S
O341 C318 1.283 . S
O342 Mn316 2.094 . S
O342 C320 1.240 . S
O343 Mn317 2.117 . S
O343 C320 1.264 1_565 S
C344 C337 1.403 . S
C344 C345 1.399 . S
C344 H350 0.929 . S
C345 C325 1.449 . S
C345 C344 1.399 . S
C345 H351 0.930 . S
H346 C326 0.931 . S
H347 C327 0.930 . S
H348 C335 0.931 . S
H349 C336 0.929 . S
H350 C344 0.929 . S
H351 C345 0.930 . S
Mn352 O357 2.095 . S
Mn352 O367 2.162 . S
Mn352 O368 2.297 . S
Mn352 O376 2.385 . S
Mn352 O377 2.209 . S
Mn352 O378 2.094 . S
Mn353 O358 2.121 . S
Mn353 N360 2.257 . S
Mn353 N369 2.282 . S
Mn353 O377 2.215 . S
Mn353 O379 2.117 . S
C354 O376 1.234 . S
C354 O377 1.283 . S
C355 O367 1.281 . S
C355 O368 1.236 . S
C356 O378 1.240 . S
C356 O379 1.264 . S
O357 Mn352 2.095 . S
O357 C366 1.250 . S
O358 Mn353 2.121 . S
O358 C366 1.258 . S
C359 N360 1.326 . S
C359 C363 1.460 . S
C359 H365 0.929 . S
N360 Mn353 2.257 . S
N360 C359 1.326 . S
N360 C364 1.362 . S
C361 C362 1.258 . S
C361 C364 1.431 . S
C361 C381 1.449 . S
C362 C361 1.258 . S
C362 C363 1.477 . S
C362 H382 0.931 . S
C363 C359 1.460 . S
C363 C362 1.477 . S
C363 H383 0.930 . S
C364 N360 1.362 . S
C364 C361 1.431 . S
C364 C374 1.476 . S
H365 C359 0.929 . S
C366 O357 1.250 . S
C366 O358 1.258 . S
O367 Mn352 2.162 . S
O367 C355 1.281 . S
O368 Mn352 2.297 . S
O368 C355 1.236 . S
N369 Mn353 2.282 . S
N369 C370 1.328 . S
N369 C374 1.318 . S
C370 N369 1.328 . S
C370 C371 1.457 . S
C370 H375 0.929 . S
C371 C370 1.457 . S
C371 C372 1.291 . S
C371 H384 0.931 . S
C372 C371 1.291 . S
C372 C373 1.373 . S
C372 H385 0.929 . S
C373 C372 1.373 . S
C373 C374 1.396 . S
C373 C380 1.403 . S
C374 C364 1.476 . S
C374 N369 1.318 . S
C374 C373 1.396 . S
H375 C370 0.929 . S
O376 Mn352 2.385 . S
O376 C354 1.234 . S
O377 Mn352 2.209 . S
O377 Mn353 2.215 . S
O377 C354 1.283 . S
O378 Mn352 2.094 . S
O378 C356 1.240 . S
O379 Mn353 2.117 . S
O379 C356 1.264 . S
C380 C373 1.403 . S
C380 C381 1.399 . S
C380 H386 0.929 . S
C381 C361 1.449 . S
C381 C380 1.399 . S
C381 H387 0.930 . S
H382 C362 0.931 . S
H383 C363 0.930 . S
H384 C371 0.931 . S
H385 C372 0.929 . S
H386 C380 0.929 . S
H387 C381 0.930 . S
Mn388 O393 2.095 . S
Mn388 O403 2.162 . S
Mn388 O404 2.297 . S
Mn388 O412 2.385 . S
Mn388 O413 2.209 . S
Mn388 O414 2.094 . S
Mn389 O394 2.121 . S
Mn389 N396 2.257 . S
Mn389 N405 2.282 . S
Mn389 O413 2.215 . S
Mn389 O415 2.117 . S
C390 O412 1.234 . S
C390 O413 1.283 . S
C391 O403 1.281 . S
C391 O404 1.236 . S
C392 O414 1.240 . S
C392 O415 1.264 . S
O393 Mn388 2.095 . S
O393 C402 1.250 . S
O394 Mn389 2.121 . S
O394 C402 1.258 . S
C395 N396 1.326 . S
C395 C399 1.460 . S
C395 H401 0.929 . S
N396 Mn389 2.257 . S
N396 C395 1.326 . S
N396 C400 1.362 . S
C397 C398 1.258 . S
C397 C400 1.431 . S
C397 C417 1.449 . S
C398 C397 1.258 . S
C398 C399 1.477 . S
C398 H418 0.931 . S
C399 C395 1.460 . S
C399 C398 1.477 . S
C399 H419 0.930 . S
C400 N396 1.362 . S
C400 C397 1.431 . S
C400 C410 1.476 . S
H401 C395 0.929 . S
C402 O393 1.250 . S
C402 O394 1.258 . S
O403 Mn388 2.162 . S
O403 C391 1.281 . S
O404 Mn388 2.297 . S
O404 C391 1.236 . S
N405 Mn389 2.282 . S
N405 C406 1.328 . S
N405 C410 1.318 . S
C406 N405 1.328 . S
C406 C407 1.457 . S
C406 H411 0.929 . S
C407 C406 1.457 . S
C407 C408 1.291 . S
C407 H420 0.931 . S
C408 C407 1.291 . S
C408 C409 1.373 . S
C408 H421 0.929 . S
C409 C408 1.373 . S
C409 C410 1.396 . S
C409 C416 1.403 . S
C410 C400 1.476 . S
C410 N405 1.318 . S
C410 C409 1.396 . S
H411 C406 0.929 . S
O412 Mn388 2.385 . S
O412 C390 1.234 . S
O413 Mn388 2.209 . S
O413 Mn389 2.215 . S
O413 C390 1.283 . S
O414 Mn388 2.094 . S
O414 C392 1.240 . S
O415 Mn389 2.117 . S
O415 C392 1.264 . S
C416 C409 1.403 . S
C416 C417 1.399 . S
C416 H422 0.929 . S
C417 C397 1.449 . S
C417 C416 1.399 . S
C417 H423 0.930 . S
H418 C398 0.931 . S
H419 C399 0.930 . S
H420 C407 0.931 . S
H421 C408 0.929 . S
H422 C416 0.929 . S
H423 C417 0.930 . S
Mn424 O429 2.095 . S
Mn424 O439 2.162 . S
Mn424 O440 2.297 . S
Mn424 O448 2.385 . S
Mn424 O449 2.209 . S
Mn424 O450 2.094 . S
Mn425 O430 2.121 . S
Mn425 N432 2.257 . S
Mn425 N441 2.282 . S
Mn425 O449 2.215 . S
Mn425 O451 2.117 . S
C426 O448 1.234 . S
C426 O449 1.283 . S
C427 O439 1.281 . S
C427 O440 1.236 . S
C428 O450 1.240 . S
C428 O451 1.264 . S
O429 Mn424 2.095 . S
O429 C438 1.250 . S
O430 Mn425 2.121 . S
O430 C438 1.258 . S
C431 N432 1.326 . S
C431 C435 1.460 . S
C431 H437 0.929 . S
N432 Mn425 2.257 . S
N432 C431 1.326 . S
N432 C436 1.362 . S
C433 C434 1.258 . S
C433 C436 1.431 . S
C433 C453 1.449 . S
C434 C433 1.258 . S
C434 C435 1.477 . S
C434 H454 0.931 . S
C435 C431 1.460 . S
C435 C434 1.477 . S
C435 H455 0.930 . S
C436 N432 1.362 . S
C436 C433 1.431 . S
C436 C446 1.476 . S
H437 C431 0.929 . S
C438 O429 1.250 . S
C438 O430 1.258 . S
O439 Mn424 2.162 . S
O439 C427 1.281 . S
O440 Mn424 2.297 . S
O440 C427 1.236 . S
N441 Mn425 2.282 . S
N441 C442 1.328 . S
N441 C446 1.318 . S
C442 N441 1.328 . S
C442 C443 1.457 . S
C442 H447 0.929 . S
C443 C442 1.457 . S
C443 C444 1.291 . S
C443 H456 0.931 . S
C444 C443 1.291 . S
C444 C445 1.373 . S
C444 H457 0.929 . S
C445 C444 1.373 . S
C445 C446 1.396 . S
C445 C452 1.403 . S
C446 C436 1.476 . S
C446 N441 1.318 . S
C446 C445 1.396 . S
H447 C442 0.929 . S
O448 Mn424 2.385 . S
O448 C426 1.234 . S
O449 Mn424 2.209 . S
O449 Mn425 2.215 . S
O449 C426 1.283 . S
O450 Mn424 2.094 . S
O450 C428 1.240 . S
O451 Mn425 2.117 . S
O451 C428 1.264 . S
C452 C445 1.403 . S
C452 C453 1.399 . S
C452 H458 0.929 . S
C453 C433 1.449 . S
C453 C452 1.399 . S
C453 H459 0.930 . S
H454 C434 0.931 . S
H455 C435 0.930 . S
H456 C443 0.931 . S
H457 C444 0.929 . S
H458 C452 0.929 . S
H459 C453 0.930 . S
Mn460 O465 2.095 . S
Mn460 O475 2.162 1_545 S
Mn460 O476 2.297 . S
Mn460 O484 2.385 . S
Mn460 O485 2.209 . S
Mn460 O486 2.094 1_545 S
Mn461 O466 2.121 . S
Mn461 N468 2.257 . S
Mn461 N477 2.282 . S
Mn461 O485 2.215 . S
Mn461 O487 2.117 . S
C462 O484 1.234 . S
C462 O485 1.283 . S
C463 O475 1.281 . S
C463 O476 1.236 1_565 S
C464 O486 1.240 1_545 S
C464 O487 1.264 . S
O465 Mn460 2.095 . S
O465 C474 1.250 . S
O466 Mn461 2.121 . S
O466 C474 1.258 . S
C467 N468 1.326 . S
C467 C471 1.460 . S
C467 H473 0.929 . S
N468 Mn461 2.257 . S
N468 C467 1.326 . S
N468 C472 1.362 . S
C469 C470 1.258 . S
C469 C472 1.431 . S
C469 C489 1.449 . S
C470 C469 1.258 . S
C470 C471 1.477 . S
C470 H490 0.931 . S
C471 C467 1.460 . S
C471 C470 1.477 . S
C471 H491 0.930 . S
C472 N468 1.362 . S
C472 C469 1.431 . S
C472 C482 1.476 . S
H473 C467 0.929 . S
C474 O465 1.250 . S
C474 O466 1.258 . S
O475 Mn460 2.162 1_565 S
O475 C463 1.281 . S
O476 Mn460 2.297 . S
O476 C463 1.236 1_545 S
N477 Mn461 2.282 . S
N477 C478 1.328 . S
N477 C482 1.318 . S
C478 N477 1.328 . S
C478 C479 1.457 . S
C478 H483 0.929 . S
C479 C478 1.457 . S
C479 C480 1.291 . S
C479 H492 0.931 . S
C480 C479 1.291 . S
C480 C481 1.373 . S
C480 H493 0.929 . S
C481 C480 1.373 . S
C481 C482 1.396 . S
C481 C488 1.403 . S
C482 C472 1.476 . S
C482 N477 1.318 . S
C482 C481 1.396 . S
H483 C478 0.929 . S
O484 Mn460 2.385 . S
O484 C462 1.234 . S
O485 Mn460 2.209 . S
O485 Mn461 2.215 . S
O485 C462 1.283 . S
O486 Mn460 2.094 1_565 S
O486 C464 1.240 1_565 S
O487 Mn461 2.117 . S
O487 C464 1.264 . S
C488 C481 1.403 . S
C488 C489 1.399 . S
C488 H494 0.929 . S
C489 C469 1.449 . S
C489 C488 1.399 . S
C489 H495 0.930 . S
H490 C470 0.931 . S
H491 C471 0.930 . S
H492 C479 0.931 . S
H493 C480 0.929 . S
H494 C488 0.929 . S
H495 C489 0.930 . S
Mn496 O501 2.095 . S
Mn496 O511 2.162 . S
Mn496 O512 2.297 . S
Mn496 O520 2.385 1_455 S
Mn496 O521 2.209 1_455 S
Mn496 O522 2.094 . S
Mn497 O502 2.121 . S
Mn497 N504 2.257 . S
Mn497 N513 2.282 . S
Mn497 O521 2.215 . S
Mn497 O523 2.117 . S
C498 O520 1.234 . S
C498 O521 1.283 . S
C499 O511 1.281 . S
C499 O512 1.236 . S
C500 O522 1.240 . S
C500 O523 1.264 1_455 S
O501 Mn496 2.095 . S
O501 C510 1.225 1_455 S
O502 Mn497 2.121 . S
O502 C510 1.291 . S
C503 N504 1.326 . S
C503 C507 1.460 . S
C503 H509 0.929 . S
N504 Mn497 2.257 . S
N504 C503 1.326 . S
N504 C508 1.362 . S
C505 C506 1.258 . S
C505 C508 1.431 . S
C505 C525 1.449 . S
C506 C505 1.258 . S
C506 C507 1.477 . S
C506 H526 0.931 . S
C507 C503 1.460 . S
C507 C506 1.477 . S
C507 H527 0.930 . S
C508 N504 1.362 . S
C508 C505 1.431 . S
C508 C518 1.476 . S
H509 C503 0.929 . S
C510 O501 1.225 1_655 S
C510 O502 1.291 . S
O511 Mn496 2.162 . S
O511 C499 1.281 . S
O512 Mn496 2.297 . S
O512 C499 1.236 . S
N513 Mn497 2.282 . S
N513 C514 1.328 . S
N513 C518 1.318 . S
C514 N513 1.328 . S
C514 C515 1.457 . S
C514 H519 0.929 . S
C515 C514 1.457 . S
C515 C516 1.291 . S
C515 H528 0.931 . S
C516 C515 1.291 . S
C516 C517 1.373 . S
C516 H529 0.929 . S
C517 C516 1.373 . S
C517 C518 1.396 . S
C517 C524 1.403 . S
C518 C508 1.476 . S
C518 N513 1.318 . S
C518 C517 1.396 . S
H519 C514 0.929 . S
O520 Mn496 2.385 1_655 S
O520 C498 1.234 . S
O521 Mn496 2.209 1_655 S
O521 Mn497 2.215 . S
O521 C498 1.283 . S
O522 Mn496 2.094 . S
O522 C500 1.240 . S
O523 Mn497 2.117 . S
O523 C500 1.264 1_655 S
C524 C517 1.403 . S
C524 C525 1.399 . S
C524 H530 0.929 . S
C525 C505 1.449 . S
C525 C524 1.399 . S
C525 H531 0.930 . S
H526 C506 0.931 . S
H527 C507 0.930 . S
H528 C515 0.931 . S
H529 C516 0.929 . S
H530 C524 0.929 . S
H531 C525 0.930 . S
Mn532 O537 2.095 . S
Mn532 O547 2.162 . S
Mn532 O548 2.297 . S
Mn532 O556 2.385 . S
Mn532 O557 2.209 . S
Mn532 O558 2.094 . S
Mn533 O538 2.121 . S
Mn533 N540 2.257 . S
Mn533 N549 2.282 . S
Mn533 O557 2.215 . S
Mn533 O559 2.117 . S
C534 O556 1.234 . S
C534 O557 1.283 . S
C535 O547 1.281 . S
C535 O548 1.236 . S
C536 O558 1.240 . S
C536 O559 1.264 . S
O537 Mn532 2.095 . S
O537 C546 1.250 . S
O538 Mn533 2.121 . S
O538 C546 1.258 . S
C539 N540 1.326 . S
C539 C543 1.460 . S
C539 H545 0.929 . S
N540 Mn533 2.257 . S
N540 C539 1.326 . S
N540 C544 1.362 . S
C541 C542 1.258 . S
C541 C544 1.431 . S
C541 C561 1.449 . S
C542 C541 1.258 . S
C542 C543 1.477 . S
C542 H562 0.931 . S
C543 C539 1.460 . S
C543 C542 1.477 . S
C543 H563 0.930 . S
C544 N540 1.362 . S
C544 C541 1.431 . S
C544 C554 1.476 . S
H545 C539 0.929 . S
C546 O537 1.250 . S
C546 O538 1.258 . S
O547 Mn532 2.162 . S
O547 C535 1.281 . S
O548 Mn532 2.297 . S
O548 C535 1.236 . S
N549 Mn533 2.282 . S
N549 C550 1.328 . S
N549 C554 1.318 . S
C550 N549 1.328 . S
C550 C551 1.457 . S
C550 H555 0.929 . S
C551 C550 1.457 . S
C551 C552 1.291 . S
C551 H564 0.931 . S
C552 C551 1.291 . S
C552 C553 1.373 . S
C552 H565 0.929 . S
C553 C552 1.373 . S
C553 C554 1.396 . S
C553 C560 1.403 . S
C554 C544 1.476 . S
C554 N549 1.318 . S
C554 C553 1.396 . S
H555 C550 0.929 . S
O556 Mn532 2.385 . S
O556 C534 1.234 . S
O557 Mn532 2.209 . S
O557 Mn533 2.215 . S
O557 C534 1.283 . S
O558 Mn532 2.094 . S
O558 C536 1.240 . S
O559 Mn533 2.117 . S
O559 C536 1.264 . S
C560 C553 1.403 . S
C560 C561 1.399 . S
C560 H566 0.929 . S
C561 C541 1.449 . S
C561 C560 1.399 . S
C561 H567 0.930 . S
H562 C542 0.931 . S
H563 C543 0.930 . S
H564 C551 0.931 . S
H565 C552 0.929 . S
H566 C560 0.929 . S
H567 C561 0.930 . S
Mn568 O573 2.095 . S
Mn568 O583 2.162 . S
Mn568 O584 2.297 . S
Mn568 O592 2.385 . S
Mn568 O593 2.209 . S
Mn568 O594 2.094 . S
Mn569 O574 2.121 1_455 S
Mn569 N576 2.257 1_455 S
Mn569 N585 2.282 . S
Mn569 O593 2.215 . S
Mn569 O595 2.117 . S
C570 O592 1.234 . S
C570 O593 1.283 . S
C571 O583 1.281 . S
C571 O584 1.236 . S
C572 O594 1.240 . S
C572 O595 1.264 . S
O573 Mn568 2.095 . S
O573 C582 1.250 1_455 S
O574 Mn569 2.121 1_655 S
O574 C582 1.258 . S
C575 N576 1.326 . S
C575 C579 1.460 . S
C575 H581 0.929 . S
N576 Mn569 2.257 1_655 S
N576 C575 1.326 . S
N576 C580 1.362 . S
C577 C578 1.258 . S
C577 C580 1.431 . S
C577 C597 1.449 . S
C578 C577 1.258 . S
C578 C579 1.477 . S
C578 H598 0.931 . S
C579 C575 1.460 . S
C579 C578 1.477 . S
C579 H599 0.930 . S
C580 N576 1.362 . S
C580 C577 1.431 . S
C580 C590 1.476 . S
H581 C575 0.929 . S
C582 O573 1.250 1_655 S
C582 O574 1.258 . S
O583 Mn568 2.162 . S
O583 C571 1.281 . S
O584 Mn568 2.297 . S
O584 C571 1.236 . S
N585 Mn569 2.282 . S
N585 C586 1.328 . S
N585 C590 1.318 1_455 S
C586 N585 1.328 . S
C586 C587 1.457 . S
C586 H591 0.929 . S
C587 C586 1.457 . S
C587 C588 1.291 . S
C587 H600 0.931 . S
C588 C587 1.291 . S
C588 C589 1.393 . S
C588 H601 0.929 . S
C589 C588 1.393 . S
C589 C590 1.391 1_455 S
C589 C596 1.388 1_455 S
C590 C580 1.476 . S
C590 N585 1.318 1_655 S
C590 C589 1.391 1_655 S
H591 C586 0.929 . S
O592 Mn568 2.385 . S
O592 C570 1.234 . S
O593 Mn568 2.209 . S
O593 Mn569 2.215 . S
O593 C570 1.283 . S
O594 Mn568 2.094 . S
O594 C572 1.240 . S
O595 Mn569 2.117 . S
O595 C572 1.264 . S
C596 C589 1.388 1_655 S
C596 C597 1.399 . S
C596 H602 0.929 . S
C597 C577 1.449 . S
C597 C596 1.399 . S
C597 H603 0.930 . S
H598 C578 0.931 . S
H599 C579 0.930 . S
H600 C587 0.931 . S
H601 C588 0.929 . S
H602 C596 0.929 . S
H603 C597 0.930 . S
Mn604 O609 2.095 . S
Mn604 O619 2.162 . S
Mn604 O620 2.297 . S
Mn604 O628 2.385 . S
Mn604 O629 2.209 . S
Mn604 O630 2.094 . S
Mn605 O610 2.121 . S
Mn605 N612 2.257 . S
Mn605 N621 2.282 . S
Mn605 O629 2.215 . S
Mn605 O631 2.117 . S
C606 O628 1.234 . S
C606 O629 1.283 . S
C607 O619 1.281 . S
C607 O620 1.236 . S
C608 O630 1.240 . S
C608 O631 1.264 . S
O609 Mn604 2.095 . S
O609 C618 1.250 . S
O610 Mn605 2.121 . S
O610 C618 1.258 . S
C611 N612 1.326 . S
C611 C615 1.460 . S
C611 H617 0.929 . S
N612 Mn605 2.257 . S
N612 C611 1.326 . S
N612 C616 1.362 . S
C613 C614 1.258 . S
C613 C616 1.431 . S
C613 C633 1.449 . S
C614 C613 1.258 . S
C614 C615 1.477 . S
C614 H634 0.931 . S
C615 C611 1.460 . S
C615 C614 1.477 . S
C615 H635 0.930 . S
C616 N612 1.362 . S
C616 C613 1.431 . S
C616 C626 1.476 . S
H617 C611 0.929 . S
C618 O609 1.250 . S
C618 O610 1.258 . S
O619 Mn604 2.162 . S
O619 C607 1.281 . S
O620 Mn604 2.297 . S
O620 C607 1.236 . S
N621 Mn605 2.282 . S
N621 C622 1.328 . S
N621 C626 1.318 . S
C622 N621 1.328 . S
C622 C623 1.457 . S
C622 H627 0.929 . S
C623 C622 1.457 . S
C623 C624 1.291 . S
C623 H636 0.931 . S
C624 C623 1.291 . S
C624 C625 1.373 . S
C624 H637 0.929 . S
C625 C624 1.373 . S
C625 C626 1.396 . S
C625 C632 1.403 . S
C626 C616 1.476 . S
C626 N621 1.318 . S
C626 C625 1.396 . S
H627 C622 0.929 . S
O628 Mn604 2.385 . S
O628 C606 1.234 . S
O629 Mn604 2.209 . S
O629 Mn605 2.215 . S
O629 C606 1.283 . S
O630 Mn604 2.094 . S
O630 C608 1.240 . S
O631 Mn605 2.117 . S
O631 C608 1.264 . S
C632 C625 1.403 . S
C632 C633 1.399 . S
C632 H638 0.929 . S
C633 C613 1.449 . S
C633 C632 1.399 . S
C633 H639 0.930 . S
H634 C614 0.931 . S
H635 C615 0.930 . S
H636 C623 0.931 . S
H637 C624 0.929 . S
H638 C632 0.929 . S
H639 C633 0.930 . S
H640 C646 0.930 . S
H641 C650 0.930 . S
H642 C655 0.929 . S
H643 C653 0.929 . S
H644 C648 0.929 . S
H645 C654 0.929 . S
C646 H640 0.930 . S
C646 C647 1.367 . S
C646 C654 1.378 . S
C647 C646 1.367 . S
C647 C655 1.433 . S
C648 H644 0.929 . S
C648 C650 1.378 . S
C648 C652 1.350 . S
C649 C652 1.463 . S
C649 C654 1.350 . S
C649 N657 1.427 . S
C650 H641 0.930 . S
C650 C648 1.378 . S
C650 C651 1.367 . S
C651 C650 1.367 . S
C651 C653 1.433 . S
C652 C648 1.350 . S
C652 C649 1.463 . S
C652 N656 1.427 . S
C653 H643 0.929 . S
C653 C651 1.433 . S
C653 N656 1.384 . S
C654 H645 0.929 . S
C654 C646 1.378 . S
C654 C649 1.350 . S
C655 H642 0.929 . S
C655 C647 1.433 . S
C655 N657 1.384 . S
N656 C652 1.427 . S
N656 C653 1.384 . S
N657 C649 1.427 . S
N657 C655 1.384 . S
H658 C664 0.930 . S
H659 C668 0.930 . S
H660 C673 0.929 . S
H661 C671 0.929 . S
H662 C666 0.929 . S
H663 C672 0.929 . S
C664 H658 0.930 . S
C664 C665 1.362 . S
C664 C672 1.378 . S
C665 C664 1.362 . S
C665 C673 1.435 1_455 S
C666 H662 0.929 . S
C666 C668 1.378 . S
C666 C670 1.350 . S
C667 C670 1.463 . S
C667 C672 1.350 . S
C667 N675 1.427 . S
C668 H659 0.930 . S
C668 C666 1.378 . S
C668 C669 1.367 . S
C669 C668 1.367 . S
C669 C671 1.433 . S
C670 C666 1.350 . S
C670 C667 1.463 . S
C670 N674 1.427 . S
C671 H661 0.929 . S
C671 C669 1.433 . S
C671 N674 1.384 . S
C672 H663 0.929 . S
C672 C664 1.378 . S
C672 C667 1.350 . S
C673 H660 0.929 . S
C673 C665 1.435 1_655 S
C673 N675 1.384 1_655 S
N674 C670 1.427 . S
N674 C671 1.384 . S
N675 C667 1.427 . S
N675 C673 1.384 1_455 S
H676 C682 0.930 . S
H677 C686 0.930 . S
H678 C691 0.929 . S
H679 C689 0.929 . S
H680 C684 0.929 . S
H681 C690 0.929 . S
C682 H676 0.930 . S
C682 C683 1.367 . S
C682 C690 1.378 . S
C683 C682 1.367 . S
C683 C691 1.433 . S
C684 H680 0.929 . S
C684 C686 1.378 . S
C684 C688 1.350 . S
C685 C688 1.463 . S
C685 C690 1.350 . S
C685 N693 1.427 . S
C686 H677 0.930 . S
C686 C684 1.378 . S
C686 C687 1.367 . S
C687 C686 1.367 . S
C687 C689 1.433 . S
C688 C684 1.350 . S
C688 C685 1.463 . S
C688 N692 1.427 . S
C689 H679 0.929 . S
C689 C687 1.433 . S
C689 N692 1.384 . S
C690 H681 0.929 . S
C690 C682 1.378 . S
C690 C685 1.350 . S
C691 H678 0.929 . S
C691 C683 1.433 . S
C691 N693 1.384 . S
N692 C688 1.427 . S
N692 C689 1.384 . S
N693 C685 1.427 . S
N693 C691 1.384 . S
H694 C700 0.933 . S
H695 C704 0.930 . S
H696 C709 0.929 . S
H697 C707 0.929 . S
H698 C702 0.929 . S
H699 C708 0.929 . S
C700 H694 0.933 . S
C700 C701 1.367 1_545 S
C700 C708 1.374 1_455 S
C701 C700 1.367 1_565 S
C701 C709 1.433 1_455 S
C702 H698 0.929 . S
C702 C704 1.378 . S
C702 C706 1.350 1_565 S
C703 C706 1.463 . S
C703 C708 1.350 . S
C703 N711 1.427 1_545 S
C704 H695 0.930 . S
C704 C702 1.378 . S
C704 C705 1.367 1_565 S
C705 C704 1.367 1_545 S
C705 C707 1.433 . S
C706 C702 1.350 1_545 S
C706 C703 1.463 . S
C706 N710 1.427 . S
C707 H697 0.929 . S
C707 C705 1.433 . S
C707 N710 1.384 . S
C708 H699 0.929 . S
C708 C700 1.374 1_655 S
C708 C703 1.350 . S
C709 H696 0.929 . S
C709 C701 1.433 1_655 S
C709 N711 1.384 . S
N710 C706 1.427 . S
N710 C707 1.384 . S
N711 C703 1.427 1_565 S
N711 C709 1.384 . S
H712 C718 0.930 . S
H713 C722 0.930 . S
H714 C727 0.929 . S
H715 C725 0.929 . S
H716 C720 0.929 . S
H717 C726 0.929 . S
C718 H712 0.930 . S
C718 C719 1.367 . S
C718 C726 1.378 . S
C719 C718 1.367 . S
C719 C727 1.433 . S
C720 H716 0.929 . S
C720 C722 1.378 . S
C720 C724 1.350 . S
C721 C724 1.463 . S
C721 C726 1.350 . S
C721 N729 1.427 . S
C722 H713 0.930 . S
C722 C720 1.378 . S
C722 C723 1.367 . S
C723 C722 1.367 . S
C723 C725 1.433 . S
C724 C720 1.350 . S
C724 C721 1.463 . S
C724 N728 1.427 . S
C725 H715 0.929 . S
C725 C723 1.433 . S
C725 N728 1.384 . S
C726 H717 0.929 . S
C726 C718 1.378 . S
C726 C721 1.350 . S
C727 H714 0.929 . S
C727 C719 1.433 . S
C727 N729 1.384 . S
N728 C724 1.427 . S
N728 C725 1.384 . S
N729 C721 1.427 . S
N729 C727 1.384 . S
H730 C736 0.930 . S
H731 C740 0.930 . S
H732 C745 0.929 . S
H733 C743 0.929 . S
H734 C738 0.929 . S
H735 C744 0.929 . S
C736 H730 0.930 . S
C736 C737 1.367 . S
C736 C744 1.378 . S
C737 C736 1.367 . S
C737 C745 1.433 . S
C738 H734 0.929 . S
C738 C740 1.378 . S
C738 C742 1.350 . S
C739 C742 1.463 . S
C739 C744 1.350 . S
C739 N747 1.427 . S
C740 H731 0.930 . S
C740 C738 1.378 . S
C740 C741 1.367 . S
C741 C740 1.367 . S
C741 C743 1.433 . S
C742 C738 1.350 . S
C742 C739 1.463 . S
C742 N746 1.427 . S
C743 H733 0.929 . S
C743 C741 1.433 . S
C743 N746 1.384 . S
C744 H735 0.929 . S
C744 C736 1.378 . S
C744 C739 1.350 . S
C745 H732 0.929 . S
C745 C737 1.433 . S
C745 N747 1.384 . S
N746 C742 1.427 . S
N746 C743 1.384 . S
N747 C739 1.427 . S
N747 C745 1.384 . S
H748 C754 0.930 . S
H749 C758 0.930 . S
H750 C763 0.929 . S
H751 C761 0.929 . S
H752 C756 0.929 . S
H753 C762 0.929 . S
C754 H748 0.930 . S
C754 C755 1.367 . S
C754 C762 1.378 . S
C755 C754 1.367 . S
C755 C763 1.433 . S
C756 H752 0.929 . S
C756 C758 1.378 . S
C756 C760 1.350 . S
C757 C760 1.463 . S
C757 C762 1.350 . S
C757 N765 1.427 . S
C758 H749 0.930 . S
C758 C756 1.378 . S
C758 C759 1.367 . S
C759 C758 1.367 . S
C759 C761 1.433 . S
C760 C756 1.350 . S
C760 C757 1.463 . S
C760 N764 1.427 . S
C761 H751 0.929 . S
C761 C759 1.433 . S
C761 N764 1.384 . S
C762 H753 0.929 . S
C762 C754 1.378 . S
C762 C757 1.350 . S
C763 H750 0.929 . S
C763 C755 1.433 . S
C763 N765 1.384 . S
N764 C760 1.427 . S
N764 C761 1.384 . S
N765 C757 1.427 . S
N765 C763 1.384 . S
H766 C772 0.930 . S
H767 C776 0.930 . S
H768 C781 0.929 . S
H769 C779 0.929 . S
H770 C774 0.929 . S
H771 C780 0.929 1_545 S
C772 H766 0.930 . S
C772 C773 1.367 . S
C772 C780 1.378 . S
C773 C772 1.367 . S
C773 C781 1.433 . S
C774 H770 0.929 . S
C774 C776 1.378 . S
C774 C778 1.350 . S
C775 C778 1.463 . S
C775 C780 1.350 . S
C775 N783 1.427 . S
C776 H767 0.930 . S
C776 C774 1.378 . S
C776 C777 1.367 1_565 S
C777 C776 1.367 1_545 S
C777 C779 1.433 . S
C778 C774 1.350 . S
C778 C775 1.463 . S
C778 N782 1.427 1_565 S
C779 H769 0.929 . S
C779 C777 1.433 . S
C779 N782 1.384 . S
C780 H771 0.929 1_565 S
C780 C772 1.378 . S
C780 C775 1.350 . S
C781 H768 0.929 . S
C781 C773 1.433 . S
C781 N783 1.384 . S
N782 C778 1.427 1_545 S
N782 C779 1.384 . S
N783 C775 1.427 . S
N783 C781 1.384 . S
H784 C790 0.930 . S
H785 C794 0.930 . S
H786 C799 0.929 . S
H787 C797 0.929 . S
H788 C792 0.929 . S
H789 C798 0.929 . S
C790 H784 0.930 . S
C790 C791 1.367 . S
C790 C798 1.378 . S
C791 C790 1.367 . S
C791 C799 1.433 . S
C792 H788 0.929 . S
C792 C794 1.378 . S
C792 C796 1.350 . S
C793 C796 1.463 . S
C793 C798 1.350 . S
C793 N801 1.427 . S
C794 H785 0.930 . S
C794 C792 1.378 . S
C794 C795 1.367 . S
C795 C794 1.367 . S
C795 C797 1.433 . S
C796 C792 1.350 . S
C796 C793 1.463 . S
C796 N800 1.427 . S
C797 H787 0.929 . S
C797 C795 1.433 . S
C797 N800 1.384 . S
C798 H789 0.929 . S
C798 C790 1.378 . S
C798 C793 1.350 . S
C799 H786 0.929 . S
C799 C791 1.433 . S
C799 N801 1.384 . S
N800 C796 1.427 . S
N800 C797 1.384 . S
N801 C793 1.427 . S
N801 C799 1.384 . S
H802 C808 0.930 . S
H803 C812 0.930 . S
H804 C817 0.929 . S
H805 C815 0.929 . S
H806 C810 0.929 . S
H807 C816 0.929 . S
C808 H802 0.930 . S
C808 C809 1.367 . S
C808 C816 1.378 . S
C809 C808 1.367 . S
C809 C817 1.433 . S
C810 H806 0.929 . S
C810 C812 1.378 . S
C810 C814 1.350 . S
C811 C814 1.463 . S
C811 C816 1.350 . S
C811 N819 1.427 . S
C812 H803 0.930 . S
C812 C810 1.378 . S
C812 C813 1.367 . S
C813 C812 1.367 . S
C813 C815 1.433 . S
C814 C810 1.350 . S
C814 C811 1.463 . S
C814 N818 1.427 . S
C815 H805 0.929 . S
C815 C813 1.433 . S
C815 N818 1.384 . S
C816 H807 0.929 . S
C816 C808 1.378 . S
C816 C811 1.350 . S
C817 H804 0.929 . S
C817 C809 1.433 . S
C817 N819 1.384 . S
N818 C814 1.427 . S
N818 C815 1.384 . S
N819 C811 1.427 . S
N819 C817 1.384 . S
H820 C826 0.930 . S
H821 C830 0.930 . S
H822 C835 0.929 . S
H823 C833 0.929 . S
H824 C828 0.929 . S
H825 C834 0.929 . S
C826 H820 0.930 . S
C826 C827 1.367 . S
C826 C834 1.378 . S
C827 C826 1.367 . S
C827 C835 1.433 . S
C828 H824 0.929 . S
C828 C830 1.378 . S
C828 C832 1.350 . S
C829 C832 1.463 . S
C829 C834 1.350 . S
C829 N837 1.427 . S
C830 H821 0.930 . S
C830 C828 1.378 . S
C830 C831 1.367 . S
C831 C830 1.367 . S
C831 C833 1.433 . S
C832 C828 1.350 . S
C832 C829 1.463 . S
C832 N836 1.427 . S
C833 H823 0.929 . S
C833 C831 1.433 . S
C833 N836 1.384 . S
C834 H825 0.929 . S
C834 C826 1.378 . S
C834 C829 1.350 . S
C835 H822 0.929 . S
C835 C827 1.433 . S
C835 N837 1.384 . S
N836 C832 1.427 . S
N836 C833 1.384 . S
N837 C829 1.427 . S
N837 C835 1.384 . S
H838 C844 0.930 . S
H839 C848 0.930 . S
H840 C853 0.929 . S
H841 C851 0.929 . S
H842 C846 0.929 . S
H843 C852 0.929 . S
C844 H838 0.930 . S
C844 C845 1.367 . S
C844 C852 1.378 . S
C845 C844 1.367 . S
C845 C853 1.433 . S
C846 H842 0.929 . S
C846 C848 1.378 . S
C846 C850 1.350 . S
C847 C850 1.463 . S
C847 C852 1.350 . S
C847 N855 1.427 . S
C848 H839 0.930 . S
C848 C846 1.378 . S
C848 C849 1.367 . S
C849 C848 1.367 . S
C849 C851 1.433 . S
C850 C846 1.350 . S
C850 C847 1.463 . S
C850 N854 1.427 . S
C851 H841 0.929 . S
C851 C849 1.433 . S
C851 N854 1.384 . S
C852 H843 0.929 . S
C852 C844 1.378 . S
C852 C847 1.350 . S
C853 H840 0.929 . S
C853 C845 1.433 . S
C853 N855 1.384 . S
N854 C850 1.427 . S
N854 C851 1.384 . S
N855 C847 1.427 . S
N855 C853 1.384 . S
H856 C862 0.930 . S
H857 C866 0.930 . S
H858 C871 0.929 . S
H859 C869 0.929 . S
H860 C864 0.929 . S
H861 C870 0.929 . S
C862 H856 0.930 . S
C862 C863 1.367 . S
C862 C870 1.378 . S
C863 C862 1.367 . S
C863 C871 1.433 . S
C864 H860 0.929 . S
C864 C866 1.378 . S
C864 C868 1.350 . S
C865 C868 1.463 . S
C865 C870 1.350 . S
C865 N873 1.427 . S
C866 H857 0.930 . S
C866 C864 1.378 . S
C866 C867 1.367 . S
C867 C866 1.367 . S
C867 C869 1.433 . S
C868 C864 1.350 . S
C868 C865 1.463 . S
C868 N872 1.427 . S
C869 H859 0.929 . S
C869 C867 1.433 . S
C869 N872 1.384 . S
C870 H861 0.929 . S
C870 C862 1.378 . S
C870 C865 1.350 . S
C871 H858 0.929 . S
C871 C863 1.433 . S
C871 N873 1.384 . S
N872 C868 1.427 . S
N872 C869 1.384 . S
N873 C865 1.427 . S
N873 C871 1.384 . S
H874 C880 0.930 . S
H875 C884 0.930 . S
H876 C889 0.929 . S
H877 C887 0.929 . S
H878 C882 0.929 . S
H879 C888 0.929 . S
C880 H874 0.930 . S
C880 C881 1.367 . S
C880 C888 1.378 . S
C881 C880 1.367 . S
C881 C889 1.433 . S
C882 H878 0.929 . S
C882 C884 1.378 . S
C882 C886 1.350 . S
C883 C886 1.463 . S
C883 C888 1.350 . S
C883 N891 1.427 . S
C884 H875 0.930 . S
C884 C882 1.378 . S
C884 C885 1.367 . S
C885 C884 1.367 . S
C885 C887 1.433 . S
C886 C882 1.350 . S
C886 C883 1.463 . S
C886 N890 1.427 . S
C887 H877 0.929 . S
C887 C885 1.433 . S
C887 N890 1.384 . S
C888 H879 0.929 . S
C888 C880 1.378 . S
C888 C883 1.350 . S
C889 H876 0.929 . S
C889 C881 1.433 . S
C889 N891 1.384 . S
N890 C886 1.427 . S
N890 C887 1.384 . S
N891 C883 1.427 . S
N891 C889 1.384 . S
H892 C898 0.930 . S
H893 C902 0.930 . S
H894 C907 0.929 . S
H895 C905 0.929 . S
H896 C900 0.929 . S
H897 C906 0.929 . S
C898 H892 0.930 . S
C898 C899 1.367 . S
C898 C906 1.378 . S
C899 C898 1.367 . S
C899 C907 1.433 . S
C900 H896 0.929 . S
C900 C902 1.378 . S
C900 C904 1.350 . S
C901 C904 1.463 . S
C901 C906 1.350 . S
C901 N909 1.427 . S
C902 H893 0.930 . S
C902 C900 1.378 . S
C902 C903 1.367 . S
C903 C902 1.367 . S
C903 C905 1.433 . S
C904 C900 1.350 . S
C904 C901 1.463 . S
C904 N908 1.427 . S
C905 H895 0.929 . S
C905 C903 1.433 . S
C905 N908 1.384 . S
C906 H897 0.929 . S
C906 C898 1.378 . S
C906 C901 1.350 . S
C907 H894 0.929 . S
C907 C899 1.433 . S
C907 N909 1.384 . S
N908 C904 1.427 . S
N908 C905 1.384 . S
N909 C901 1.427 . S
N909 C907 1.384 . S
H910 C916 0.930 . S
H911 C920 0.930 . S
H912 C925 0.927 1_455 S
H913 C923 0.929 . S
H914 C918 0.929 . S
H915 C924 0.929 . S
C916 H910 0.930 . S
C916 C917 1.367 . S
C916 C924 1.378 . S
C917 C916 1.367 . S
C917 C925 1.436 . S
C918 H914 0.929 . S
C918 C920 1.378 . S
C918 C922 1.327 1_455 S
C919 C922 1.470 . S
C919 C924 1.350 . S
C919 N927 1.427 1_655 S
C920 H911 0.930 . S
C920 C918 1.378 . S
C920 C921 1.367 . S
C921 C920 1.367 . S
C921 C923 1.433 1_455 S
C922 C918 1.327 1_655 S
C922 C919 1.470 . S
C922 N926 1.445 . S
C923 H913 0.929 . S
C923 C921 1.433 1_655 S
C923 N926 1.384 . S
C924 H915 0.929 . S
C924 C916 1.378 . S
C924 C919 1.350 . S
C925 H912 0.927 1_655 S
C925 C917 1.436 . S
C925 N927 1.383 1_655 S
N926 C922 1.445 . S
N926 C923 1.384 . S
N927 C919 1.427 1_455 S
N927 C925 1.383 1_455 S
H928 C934 0.930 . S
H929 C938 0.930 . S
H930 C943 0.929 . S
H931 C941 0.929 . S
H932 C936 0.929 . S
H933 C942 0.929 . S
C934 H928 0.930 . S
C934 C935 1.367 . S
C934 C942 1.378 . S
C935 C934 1.367 . S
C935 C943 1.433 . S
C936 H932 0.929 . S
C936 C938 1.378 . S
C936 C940 1.350 . S
C937 C940 1.463 . S
C937 C942 1.350 . S
C937 N945 1.427 . S
C938 H929 0.930 . S
C938 C936 1.378 . S
C938 C939 1.367 . S
C939 C938 1.367 . S
C939 C941 1.433 . S
C940 C936 1.350 . S
C940 C937 1.463 . S
C940 N944 1.427 . S
C941 H931 0.929 . S
C941 C939 1.433 . S
C941 N944 1.384 . S
C942 H933 0.929 . S
C942 C934 1.378 . S
C942 C937 1.350 . S
C943 H930 0.929 . S
C943 C935 1.433 . S
C943 N945 1.384 . S
N944 C940 1.427 . S
N944 C941 1.384 . S
N945 C937 1.427 . S
N945 C943 1.384 . S
H946 C952 0.930 . S
H947 C956 0.930 . S
H948 C961 0.929 . S
H949 C959 0.929 . S
H950 C954 0.929 . S
H951 C960 0.929 . S
C952 H946 0.930 . S
C952 C953 1.367 . S
C952 C960 1.378 . S
C953 C952 1.367 . S
C953 C961 1.433 . S
C954 H950 0.929 . S
C954 C956 1.378 . S
C954 C958 1.350 . S
C955 C958 1.463 . S
C955 C960 1.350 . S
C955 N963 1.427 . S
C956 H947 0.930 . S
C956 C954 1.378 . S
C956 C957 1.367 . S
C957 C956 1.367 . S
C957 C959 1.433 . S
C958 C954 1.350 . S
C958 C955 1.463 . S
C958 N962 1.427 . S
C959 H949 0.929 . S
C959 C957 1.433 . S
C959 N962 1.384 . S
C960 H951 0.929 . S
C960 C952 1.378 . S
C960 C955 1.350 . S
C961 H948 0.929 . S
C961 C953 1.433 . S
C961 N963 1.384 . S
N962 C958 1.427 . S
N962 C959 1.384 . S
N963 C955 1.427 . S
N963 C961 1.384 . S
H964 C970 0.930 . S
H965 C974 0.930 . S
H966 C979 0.931 . S
H967 C977 0.929 . S
H968 C972 0.929 . S
H969 C978 0.929 . S
C970 H964 0.930 . S
C970 C971 1.367 1_554 S
C970 C978 1.378 1_545 S
C971 C970 1.367 1_556 S
C971 C979 1.435 . S
C972 H968 0.929 . S
C972 C974 1.378 . S
C972 C976 1.350 1_556 S
C973 C976 1.459 1_556 S
C973 C978 1.333 1_556 S
C973 N981 1.450 . S
C974 H965 0.930 . S
C974 C972 1.378 . S
C974 C975 1.367 1_556 S
C975 C974 1.367 1_554 S
C975 C977 1.433 . S
C976 C972 1.350 1_554 S
C976 C973 1.459 1_554 S
C976 N980 1.427 . S
C977 H967 0.929 . S
C977 C975 1.433 . S
C977 N980 1.384 . S
C978 H969 0.929 . S
C978 C970 1.378 1_565 S
C978 C973 1.333 1_554 S
C979 H966 0.931 . S
C979 C971 1.435 . S
C979 N981 1.380 1_545 S
N980 C976 1.427 . S
N980 C977 1.384 . S
N981 C973 1.450 . S
N981 C979 1.380 1_565 S
H982 C988 0.930 . S
H983 C992 0.930 . S
H984 C997 0.929 . S
H985 C995 0.929 . S
H986 C990 0.929 . S
H987 C996 0.929 . S
C988 H982 0.930 . S
C988 C989 1.367 . S
C988 C996 1.378 . S
C989 C988 1.367 . S
C989 C997 1.433 . S
C990 H986 0.929 . S
C990 C992 1.378 . S
C990 C994 1.350 . S
C991 C994 1.463 . S
C991 C996 1.350 . S
C991 N999 1.427 . S
C992 H983 0.930 . S
C992 C990 1.378 . S
C992 C993 1.367 . S
C993 C992 1.367 . S
C993 C995 1.433 . S
C994 C990 1.350 . S
C994 C991 1.463 . S
C994 N998 1.427 . S
C995 H985 0.929 . S
C995 C993 1.433 . S
C995 N998 1.384 . S
C996 H987 0.929 . S
C996 C988 1.378 . S
C996 C991 1.350 . S
C997 H984 0.929 . S
C997 C989 1.433 . S
C997 N999 1.384 . S
N998 C994 1.427 . S
N998 C995 1.384 . S
N999 C991 1.427 . S
N999 C997 1.384 . S
H1000 C1006 0.930 1_565 S
H1001 C1010 0.930 . S
H1002 C1015 0.929 . S
H1003 C1013 0.929 . S
H1004 C1008 0.929 . S
H1005 C1014 0.929 . S
C1006 H1000 0.930 1_545 S
C1006 C1007 1.367 . S
C1006 C1014 1.378 . S
C1007 C1006 1.367 . S
C1007 C1015 1.433 . S
C1008 H1004 0.929 . S
C1008 C1010 1.378 . S
C1008 C1012 1.350 . S
C1009 C1012 1.463 . S
C1009 C1014 1.350 . S
C1009 N1017 1.427 . S
C1010 H1001 0.930 . S
C1010 C1008 1.378 . S
C1010 C1011 1.367 . S
C1011 C1010 1.367 . S
C1011 C1013 1.433 . S
C1012 C1008 1.350 . S
C1012 C1009 1.463 . S
C1012 N1016 1.427 . S
C1013 H1003 0.929 . S
C1013 C1011 1.433 . S
C1013 N1016 1.384 . S
C1014 H1005 0.929 . S
C1014 C1006 1.378 . S
C1014 C1009 1.350 . S
C1015 H1002 0.929 . S
C1015 C1007 1.433 . S
C1015 N1017 1.384 . S
N1016 C1012 1.427 . S
N1016 C1013 1.384 . S
N1017 C1009 1.427 . S
N1017 C1015 1.384 . S
H1018 C1024 0.930 . S
H1019 C1028 0.930 . S
H1020 C1033 0.929 . S
H1021 C1031 0.929 . S
H1022 C1026 0.929 . S
H1023 C1032 0.929 . S
C1024 H1018 0.930 . S
C1024 C1025 1.367 . S
C1024 C1032 1.378 . S
C1025 C1024 1.367 . S
C1025 C1033 1.433 . S
C1026 H1022 0.929 . S
C1026 C1028 1.378 . S
C1026 C1030 1.350 . S
C1027 C1030 1.463 . S
C1027 C1032 1.350 . S
C1027 N1035 1.427 . S
C1028 H1019 0.930 . S
C1028 C1026 1.378 . S
C1028 C1029 1.367 . S
C1029 C1028 1.367 . S
C1029 C1031 1.433 . S
C1030 C1026 1.350 . S
C1030 C1027 1.463 . S
C1030 N1034 1.427 . S
C1031 H1021 0.929 . S
C1031 C1029 1.433 . S
C1031 N1034 1.384 . S
C1032 H1023 0.929 . S
C1032 C1024 1.378 . S
C1032 C1027 1.350 . S
C1033 H1020 0.929 . S
C1033 C1025 1.433 . S
C1033 N1035 1.384 . S
N1034 C1030 1.427 . S
N1034 C1031 1.384 . S
N1035 C1027 1.427 . S
N1035 C1033 1.384 . S
H1036 C1042 0.930 . S
H1037 C1046 0.930 . S
H1038 C1051 0.929 . S
H1039 C1049 0.929 . S
H1040 C1044 0.929 . S
H1041 C1050 0.929 . S
C1042 H1036 0.930 . S
C1042 C1043 1.367 . S
C1042 C1050 1.378 . S
C1043 C1042 1.367 . S
C1043 C1051 1.433 . S
C1044 H1040 0.929 . S
C1044 C1046 1.378 . S
C1044 C1048 1.350 . S
C1045 C1048 1.463 . S
C1045 C1050 1.350 . S
C1045 N1053 1.427 . S
C1046 H1037 0.930 . S
C1046 C1044 1.378 . S
C1046 C1047 1.367 . S
C1047 C1046 1.367 . S
C1047 C1049 1.433 . S
C1048 C1044 1.350 . S
C1048 C1045 1.463 . S
C1048 N1052 1.427 . S
C1049 H1039 0.929 . S
C1049 C1047 1.433 . S
C1049 N1052 1.384 . S
C1050 H1041 0.929 . S
C1050 C1042 1.378 . S
C1050 C1045 1.350 . S
C1051 H1038 0.929 . S
C1051 C1043 1.433 . S
C1051 N1053 1.384 . S
N1052 C1048 1.427 . S
N1052 C1049 1.384 . S
N1053 C1045 1.427 . S
N1053 C1051 1.384 . S
H1054 C1060 0.930 . S
H1055 C1064 0.930 . S
H1056 C1069 0.929 . S
H1057 C1067 0.929 . S
H1058 C1062 0.929 . S
H1059 C1068 0.929 . S
C1060 H1054 0.930 . S
C1060 C1061 1.367 . S
C1060 C1068 1.378 . S
C1061 C1060 1.367 . S
C1061 C1069 1.433 . S
C1062 H1058 0.929 . S
C1062 C1064 1.378 . S
C1062 C1066 1.350 . S
C1063 C1066 1.463 . S
C1063 C1068 1.350 . S
C1063 N1071 1.427 . S
C1064 H1055 0.930 . S
C1064 C1062 1.378 . S
C1064 C1065 1.367 . S
C1065 C1064 1.367 . S
C1065 C1067 1.433 . S
C1066 C1062 1.350 . S
C1066 C1063 1.463 . S
C1066 N1070 1.427 . S
C1067 H1057 0.929 . S
C1067 C1065 1.433 . S
C1067 N1070 1.384 . S
C1068 H1059 0.929 . S
C1068 C1060 1.378 . S
C1068 C1063 1.350 . S
C1069 H1056 0.929 . S
C1069 C1061 1.433 . S
C1069 N1071 1.384 . S
N1070 C1066 1.427 . S
N1070 C1067 1.384 . S
N1071 C1063 1.427 . S
N1071 C1069 1.384 . S
H1072 C1078 0.930 . S
H1073 C1082 0.930 . S
H1074 C1087 0.929 . S
H1075 C1085 0.929 . S
H1076 C1080 0.929 . S
H1077 C1086 0.929 . S
C1078 H1072 0.930 . S
C1078 C1079 1.367 . S
C1078 C1086 1.378 . S
C1079 C1078 1.367 . S
C1079 C1087 1.433 . S
C1080 H1076 0.929 . S
C1080 C1082 1.378 . S
C1080 C1084 1.350 . S
C1081 C1084 1.463 . S
C1081 C1086 1.350 . S
C1081 N1089 1.427 . S
C1082 H1073 0.930 . S
C1082 C1080 1.378 . S
C1082 C1083 1.367 . S
C1083 C1082 1.367 . S
C1083 C1085 1.433 . S
C1084 C1080 1.350 . S
C1084 C1081 1.463 . S
C1084 N1088 1.427 . S
C1085 H1075 0.929 . S
C1085 C1083 1.433 . S
C1085 N1088 1.384 . S
C1086 H1077 0.929 . S
C1086 C1078 1.378 . S
C1086 C1081 1.350 . S
C1087 H1074 0.929 . S
C1087 C1079 1.433 . S
C1087 N1089 1.384 . S
N1088 C1084 1.427 . S
N1088 C1085 1.384 . S
N1089 C1081 1.427 . S
N1089 C1087 1.384 . S
H1090 C1096 0.930 . S
H1091 C1100 0.930 . S
H1092 C1105 0.929 . S
H1093 C1103 0.929 1_565 S
H1094 C1098 0.929 . S
H1095 C1104 0.929 . S
C1096 H1090 0.930 . S
C1096 C1097 1.367 . S
C1096 C1104 1.378 . S
C1097 C1096 1.367 . S
C1097 C1105 1.433 . S
C1098 H1094 0.929 . S
C1098 C1100 1.378 . S
C1098 C1102 1.350 . S
C1099 C1102 1.463 . S
C1099 C1104 1.350 . S
C1099 N1107 1.427 . S
C1100 H1091 0.930 . S
C1100 C1098 1.378 . S
C1100 C1101 1.367 . S
C1101 C1100 1.367 . S
C1101 C1103 1.433 . S
C1102 C1098 1.350 . S
C1102 C1099 1.463 . S
C1102 N1106 1.427 . S
C1103 H1093 0.929 1_545 S
C1103 C1101 1.433 . S
C1103 N1106 1.384 . S
C1104 H1095 0.929 . S
C1104 C1096 1.378 . S
C1104 C1099 1.350 . S
C1105 H1092 0.929 . S
C1105 C1097 1.433 . S
C1105 N1107 1.384 . S
N1106 C1102 1.427 . S
N1106 C1103 1.384 . S
N1107 C1099 1.427 . S
N1107 C1105 1.384 . S
H1108 C1114 0.930 . S
H1109 C1118 0.930 . S
H1110 C1123 0.929 . S
H1111 C1121 0.929 . S
H1112 C1116 0.929 . S
H1113 C1122 0.929 . S
C1114 H1108 0.930 . S
C1114 C1115 1.367 . S
C1114 C1122 1.378 . S
C1115 C1114 1.367 . S
C1115 C1123 1.433 . S
C1116 H1112 0.929 . S
C1116 C1118 1.378 . S
C1116 C1120 1.350 . S
C1117 C1120 1.463 . S
C1117 C1122 1.350 . S
C1117 N1125 1.427 . S
C1118 H1109 0.930 . S
C1118 C1116 1.378 . S
C1118 C1119 1.367 . S
C1119 C1118 1.367 . S
C1119 C1121 1.433 . S
C1120 C1116 1.350 . S
C1120 C1117 1.463 . S
C1120 N1124 1.427 . S
C1121 H1111 0.929 . S
C1121 C1119 1.433 . S
C1121 N1124 1.384 . S
C1122 H1113 0.929 . S
C1122 C1114 1.378 . S
C1122 C1117 1.350 . S
C1123 H1110 0.929 . S
C1123 C1115 1.433 . S
C1123 N1125 1.384 . S
N1124 C1120 1.427 . S
N1124 C1121 1.384 . S
N1125 C1117 1.427 . S
N1125 C1123 1.384 . S
H1126 C1132 0.930 . S
H1127 C1136 0.930 . S
H1128 C1141 0.929 . S
H1129 C1139 0.929 . S
H1130 C1134 0.929 . S
H1131 C1140 0.929 . S
C1132 H1126 0.930 . S
C1132 C1133 1.367 . S
C1132 C1140 1.378 . S
C1133 C1132 1.367 . S
C1133 C1141 1.433 . S
C1134 H1130 0.929 . S
C1134 C1136 1.378 . S
C1134 C1138 1.350 . S
C1135 C1138 1.463 . S
C1135 C1140 1.350 . S
C1135 N1143 1.427 . S
C1136 H1127 0.930 . S
C1136 C1134 1.378 . S
C1136 C1137 1.367 . S
C1137 C1136 1.367 . S
C1137 C1139 1.433 . S
C1138 C1134 1.350 . S
C1138 C1135 1.463 . S
C1138 N1142 1.427 . S
C1139 H1129 0.929 . S
C1139 C1137 1.433 . S
C1139 N1142 1.384 . S
C1140 H1131 0.929 . S
C1140 C1132 1.378 . S
C1140 C1135 1.350 . S
C1141 H1128 0.929 . S
C1141 C1133 1.433 . S
C1141 N1143 1.384 . S
N1142 C1138 1.427 . S
N1142 C1139 1.384 . S
N1143 C1135 1.427 . S
N1143 C1141 1.384 . S
H1144 C1150 0.930 . S
H1145 C1154 0.930 . S
H1146 C1159 0.929 . S
H1147 C1157 0.929 . S
H1148 C1152 0.929 . S
H1149 C1158 0.929 . S
C1150 H1144 0.930 . S
C1150 C1151 1.367 . S
C1150 C1158 1.378 . S
C1151 C1150 1.367 . S
C1151 C1159 1.433 . S
C1152 H1148 0.929 . S
C1152 C1154 1.378 . S
C1152 C1156 1.350 . S
C1153 C1156 1.463 . S
C1153 C1158 1.350 . S
C1153 N1161 1.427 . S
C1154 H1145 0.930 . S
C1154 C1152 1.378 . S
C1154 C1155 1.367 . S
C1155 C1154 1.367 . S
C1155 C1157 1.433 . S
C1156 C1152 1.350 . S
C1156 C1153 1.463 . S
C1156 N1160 1.427 . S
C1157 H1147 0.929 . S
C1157 C1155 1.433 . S
C1157 N1160 1.384 . S
C1158 H1149 0.929 . S
C1158 C1150 1.378 . S
C1158 C1153 1.350 . S
C1159 H1146 0.929 . S
C1159 C1151 1.433 . S
C1159 N1161 1.384 . S
N1160 C1156 1.427 . S
N1160 C1157 1.384 . S
N1161 C1153 1.427 . S
N1161 C1159 1.384 . S
H1162 C1168 0.930 . S
H1163 C1172 0.930 . S
H1164 C1177 0.929 . S
H1165 C1175 0.929 . S
H1166 C1170 0.929 . S
H1167 C1176 0.929 . S
C1168 H1162 0.930 . S
C1168 C1169 1.367 . S
C1168 C1176 1.378 . S
C1169 C1168 1.367 . S
C1169 C1177 1.433 1_545 S
C1170 H1166 0.929 . S
C1170 C1172 1.378 . S
C1170 C1174 1.350 1_565 S
C1171 C1174 1.463 . S
C1171 C1176 1.350 . S
C1171 N1179 1.427 1_545 S
C1172 H1163 0.930 . S
C1172 C1170 1.378 . S
C1172 C1173 1.367 1_565 S
C1173 C1172 1.367 1_545 S
C1173 C1175 1.433 . S
C1174 C1170 1.350 1_545 S
C1174 C1171 1.463 . S
C1174 N1178 1.427 . S
C1175 H1165 0.929 . S
C1175 C1173 1.433 . S
C1175 N1178 1.384 . S
C1176 H1167 0.929 . S
C1176 C1168 1.378 . S
C1176 C1171 1.350 . S
C1177 H1164 0.929 . S
C1177 C1169 1.433 1_565 S
C1177 N1179 1.384 . S
N1178 C1174 1.427 . S
N1178 C1175 1.384 . S
N1179 C1171 1.427 1_565 S
N1179 C1177 1.384 . S
H1180 C1186 0.930 . S
H1181 C1190 0.930 . S
H1182 C1195 0.929 . S
H1183 C1193 0.929 . S
H1184 C1188 0.929 . S
H1185 C1194 0.929 . S
C1186 H1180 0.930 . S
C1186 C1187 1.367 . S
C1186 C1194 1.378 . S
C1187 C1186 1.367 . S
C1187 C1195 1.433 . S
C1188 H1184 0.929 . S
C1188 C1190 1.378 . S
C1188 C1192 1.350 . S
C1189 C1192 1.463 . S
C1189 C1194 1.350 . S
C1189 N1197 1.427 . S
C1190 H1181 0.930 . S
C1190 C1188 1.378 . S
C1190 C1191 1.367 . S
C1191 C1190 1.367 . S
C1191 C1193 1.433 . S
C1192 C1188 1.350 . S
C1192 C1189 1.463 . S
C1192 N1196 1.427 . S
C1193 H1183 0.929 . S
C1193 C1191 1.433 . S
C1193 N1196 1.384 . S
C1194 H1185 0.929 . S
C1194 C1186 1.378 . S
C1194 C1189 1.350 . S
C1195 H1182 0.929 . S
C1195 C1187 1.433 . S
C1195 N1197 1.384 . S
N1196 C1192 1.427 . S
N1196 C1193 1.384 . S
N1197 C1189 1.427 . S
N1197 C1195 1.384 . S
H1198 C1204 0.930 . S
H1199 C1208 0.930 . S
H1200 C1213 0.929 . S
H1201 C1211 0.929 . S
H1202 C1206 0.929 . S
H1203 C1212 0.929 . S
C1204 H1198 0.930 . S
C1204 C1205 1.367 . S
C1204 C1212 1.378 . S
C1205 C1204 1.367 . S
C1205 C1213 1.433 . S
C1206 H1202 0.929 . S
C1206 C1208 1.378 . S
C1206 C1210 1.350 . S
C1207 C1210 1.463 . S
C1207 C1212 1.350 . S
C1207 N1215 1.427 . S
C1208 H1199 0.930 . S
C1208 C1206 1.378 . S
C1208 C1209 1.367 . S
C1209 C1208 1.367 . S
C1209 C1211 1.433 . S
C1210 C1206 1.350 . S
C1210 C1207 1.463 . S
C1210 N1214 1.427 . S
C1211 H1201 0.929 . S
C1211 C1209 1.433 . S
C1211 N1214 1.384 . S
C1212 H1203 0.929 . S
C1212 C1204 1.378 . S
C1212 C1207 1.350 . S
C1213 H1200 0.929 . S
C1213 C1205 1.433 . S
C1213 N1215 1.384 . S
N1214 C1210 1.427 . S
N1214 C1211 1.384 . S
N1215 C1207 1.427 . S
N1215 C1213 1.384 . S
H1216 C1222 0.930 . S
H1217 C1226 0.930 . S
H1218 C1231 0.929 . S
H1219 C1229 0.929 . S
H1220 C1224 0.929 . S
H1221 C1230 0.929 . S
C1222 H1216 0.930 . S
C1222 C1223 1.367 . S
C1222 C1230 1.378 . S
C1223 C1222 1.367 . S
C1223 C1231 1.433 . S
C1224 H1220 0.929 . S
C1224 C1226 1.378 . S
C1224 C1228 1.350 . S
C1225 C1228 1.463 . S
C1225 C1230 1.350 . S
C1225 N1233 1.427 . S
C1226 H1217 0.930 . S
C1226 C1224 1.378 . S
C1226 C1227 1.367 . S
C1227 C1226 1.367 . S
C1227 C1229 1.433 . S
C1228 C1224 1.350 . S
C1228 C1225 1.463 . S
C1228 N1232 1.427 . S
C1229 H1219 0.929 . S
C1229 C1227 1.433 . S
C1229 N1232 1.384 . S
C1230 H1221 0.929 . S
C1230 C1222 1.378 . S
C1230 C1225 1.350 . S
C1231 H1218 0.929 . S
C1231 C1223 1.433 . S
C1231 N1233 1.384 . S
N1232 C1228 1.427 . S
N1232 C1229 1.384 . S
N1233 C1225 1.427 . S
N1233 C1231 1.384 . S
H1234 C1240 0.930 . S
H1235 C1244 0.930 . S
H1236 C1249 0.917 1_455 S
H1237 C1247 0.929 . S
H1238 C1242 0.929 . S
H1239 C1248 0.929 . S
C1240 H1234 0.930 . S
C1240 C1241 1.367 . S
C1240 C1248 1.378 . S
C1241 C1240 1.367 . S
C1241 C1249 1.453 . S
C1242 H1238 0.929 . S
C1242 C1244 1.378 . S
C1242 C1246 1.350 1_455 S
C1243 C1246 1.463 1_554 S
C1243 C1248 1.350 . S
C1243 N1251 1.427 1_654 S
C1244 H1235 0.930 . S
C1244 C1242 1.378 . S
C1244 C1245 1.367 . S
C1245 C1244 1.367 . S
C1245 C1247 1.433 1_455 S
C1246 C1242 1.350 1_655 S
C1246 C1243 1.463 1_556 S
C1246 N1250 1.427 . S
C1247 H1237 0.929 . S
C1247 C1245 1.433 1_655 S
C1247 N1250 1.384 . S
C1248 H1239 0.929 . S
C1248 C1240 1.378 . S
C1248 C1243 1.350 . S
C1249 H1236 0.917 1_655 S
C1249 C1241 1.453 . S
C1249 N1251 1.377 1_654 S
N1250 C1246 1.427 . S
N1250 C1247 1.384 . S
N1251 C1243 1.427 1_456 S
N1251 C1249 1.377 1_456 S
H1252 C1258 0.930 . S
H1253 C1262 0.930 . S
H1254 C1267 0.929 . S
H1255 C1265 0.929 . S
H1256 C1260 0.929 . S
H1257 C1266 0.929 . S
C1258 H1252 0.930 . S
C1258 C1259 1.367 . S
C1258 C1266 1.378 . S
C1259 C1258 1.367 . S
C1259 C1267 1.433 . S
C1260 H1256 0.929 . S
C1260 C1262 1.378 . S
C1260 C1264 1.350 . S
C1261 C1264 1.463 . S
C1261 C1266 1.350 . S
C1261 N1269 1.427 . S
C1262 H1253 0.930 . S
C1262 C1260 1.378 . S
C1262 C1263 1.367 . S
C1263 C1262 1.367 . S
C1263 C1265 1.433 . S
C1264 C1260 1.350 . S
C1264 C1261 1.463 . S
C1264 N1268 1.427 . S
C1265 H1255 0.929 . S
C1265 C1263 1.433 . S
C1265 N1268 1.384 . S
C1266 H1257 0.929 . S
C1266 C1258 1.378 . S
C1266 C1261 1.350 . S
C1267 H1254 0.929 . S
C1267 C1259 1.433 . S
C1267 N1269 1.384 . S
N1268 C1264 1.427 . S
N1268 C1265 1.384 . S
N1269 C1261 1.427 . S
N1269 C1267 1.384 . S
H1270 C1276 0.930 . S
H1271 C1280 0.930 . S
H1272 C1285 0.929 . S
H1273 C1283 0.929 . S
H1274 C1278 0.929 1_554 S
H1275 C1284 0.929 . S
C1276 H1270 0.930 . S
C1276 C1277 1.367 1_556 S
C1276 C1284 1.378 . S
C1277 C1276 1.367 1_554 S
C1277 C1285 1.433 . S
C1278 H1274 0.929 1_556 S
C1278 C1280 1.378 . S
C1278 C1282 1.350 . S
C1279 C1282 1.463 . S
C1279 C1284 1.350 . S
C1279 N1287 1.427 1_556 S
C1280 H1271 0.930 . S
C1280 C1278 1.378 . S
C1280 C1281 1.367 . S
C1281 C1280 1.367 . S
C1281 C1283 1.433 . S
C1282 C1278 1.350 . S
C1282 C1279 1.463 . S
C1282 N1286 1.427 . S
C1283 H1273 0.929 . S
C1283 C1281 1.433 . S
C1283 N1286 1.384 . S
C1284 H1275 0.929 . S
C1284 C1276 1.378 . S
C1284 C1279 1.350 . S
C1285 H1272 0.929 . S
C1285 C1277 1.433 . S
C1285 N1287 1.384 . S
N1286 C1282 1.427 . S
N1286 C1283 1.384 . S
N1287 C1279 1.427 1_554 S
N1287 C1285 1.384 . S
H1288 C1294 0.930 . S
H1289 C1298 0.930 . S
H1290 C1303 0.929 . S
H1291 C1301 0.929 . S
H1292 C1296 0.929 . S
H1293 C1302 0.929 . S
C1294 H1288 0.930 . S
C1294 C1295 1.367 . S
C1294 C1302 1.378 . S
C1295 C1294 1.367 . S
C1295 C1303 1.433 . S
C1296 H1292 0.929 . S
C1296 C1298 1.378 . S
C1296 C1300 1.350 . S
C1297 C1300 1.463 . S
C1297 C1302 1.350 . S
C1297 N1305 1.427 . S
C1298 H1289 0.930 . S
C1298 C1296 1.378 . S
C1298 C1299 1.367 . S
C1299 C1298 1.367 . S
C1299 C1301 1.433 . S
C1300 C1296 1.350 . S
C1300 C1297 1.463 . S
C1300 N1304 1.427 . S
C1301 H1291 0.929 . S
C1301 C1299 1.433 . S
C1301 N1304 1.384 . S
C1302 H1293 0.929 . S
C1302 C1294 1.378 . S
C1302 C1297 1.350 . S
C1303 H1290 0.929 . S
C1303 C1295 1.433 . S
C1303 N1305 1.384 . S
N1304 C1300 1.427 . S
N1304 C1301 1.384 . S
N1305 C1297 1.427 . S
N1305 C1303 1.384 . S
H1306 C1312 0.930 1_556 S
H1307 C1316 0.930 . S
H1308 C1321 0.929 . S
H1309 C1319 0.929 . S
H1310 C1314 0.929 . S
H1311 C1320 0.929 . S
C1312 H1306 0.930 1_554 S
C1312 C1313 1.367 . S
C1312 C1320 1.378 . S
C1313 C1312 1.367 . S
C1313 C1321 1.433 . S
C1314 H1310 0.929 . S
C1314 C1316 1.378 . S
C1314 C1318 1.350 . S
C1315 C1318 1.463 . S
C1315 C1320 1.350 . S
C1315 N1323 1.427 . S
C1316 H1307 0.930 . S
C1316 C1314 1.378 . S
C1316 C1317 1.367 . S
C1317 C1316 1.367 . S
C1317 C1319 1.433 . S
C1318 C1314 1.350 . S
C1318 C1315 1.463 . S
C1318 N1322 1.427 . S
C1319 H1309 0.929 . S
C1319 C1317 1.433 . S
C1319 N1322 1.384 . S
C1320 H1311 0.929 . S
C1320 C1312 1.378 . S
C1320 C1315 1.350 . S
C1321 H1308 0.929 . S
C1321 C1313 1.433 . S
C1321 N1323 1.384 . S
N1322 C1318 1.427 . S
N1322 C1319 1.384 . S
N1323 C1315 1.427 . S
N1323 C1321 1.384 . S
H1324 C1330 0.930 . S
H1325 C1334 0.930 . S
H1326 C1339 0.929 . S
H1327 C1337 0.929 . S
H1328 C1332 0.929 . S
H1329 C1338 0.929 . S
C1330 H1324 0.930 . S
C1330 C1331 1.367 . S
C1330 C1338 1.378 . S
C1331 C1330 1.367 . S
C1331 C1339 1.433 . S
C1332 H1328 0.929 . S
C1332 C1334 1.378 . S
C1332 C1336 1.350 . S
C1333 C1336 1.463 . S
C1333 C1338 1.350 . S
C1333 N1341 1.427 . S
C1334 H1325 0.930 . S
C1334 C1332 1.378 . S
C1334 C1335 1.367 . S
C1335 C1334 1.367 . S
C1335 C1337 1.433 . S
C1336 C1332 1.350 . S
C1336 C1333 1.463 . S
C1336 N1340 1.427 . S
C1337 H1327 0.929 . S
C1337 C1335 1.433 . S
C1337 N1340 1.384 . S
C1338 H1329 0.929 . S
C1338 C1330 1.378 . S
C1338 C1333 1.350 . S
C1339 H1326 0.929 . S
C1339 C1331 1.433 . S
C1339 N1341 1.384 . S
N1340 C1336 1.427 . S
N1340 C1337 1.384 . S
N1341 C1333 1.427 . S
N1341 C1339 1.384 . S
H1342 C1348 0.930 . S
H1343 C1352 0.930 . S
H1344 C1357 0.929 1_556 S
H1345 C1355 0.929 . S
H1346 C1350 0.929 . S
H1347 C1356 0.929 . S
C1348 H1342 0.930 . S
C1348 C1349 1.367 . S
C1348 C1356 1.378 . S
C1349 C1348 1.367 . S
C1349 C1357 1.433 . S
C1350 H1346 0.929 . S
C1350 C1352 1.378 . S
C1350 C1354 1.350 . S
C1351 C1354 1.463 . S
C1351 C1356 1.350 . S
C1351 N1359 1.427 . S
C1352 H1343 0.930 . S
C1352 C1350 1.378 . S
C1352 C1353 1.367 . S
C1353 C1352 1.367 . S
C1353 C1355 1.433 . S
C1354 C1350 1.350 . S
C1354 C1351 1.463 . S
C1354 N1358 1.427 . S
C1355 H1345 0.929 . S
C1355 C1353 1.433 . S
C1355 N1358 1.384 . S
C1356 H1347 0.929 . S
C1356 C1348 1.378 . S
C1356 C1351 1.350 . S
C1357 H1344 0.929 1_554 S
C1357 C1349 1.433 . S
C1357 N1359 1.384 . S
N1358 C1354 1.427 . S
N1358 C1355 1.384 . S
N1359 C1351 1.427 . S
N1359 C1357 1.384 . S
H1360 C1366 0.930 . S
H1361 C1370 0.930 . S
H1362 C1375 0.929 . S
H1363 C1373 0.929 . S
H1364 C1368 0.929 . S
H1365 C1374 0.929 . S
C1366 H1360 0.930 . S
C1366 C1367 1.367 . S
C1366 C1374 1.378 . S
C1367 C1366 1.367 . S
C1367 C1375 1.433 . S
C1368 H1364 0.929 . S
C1368 C1370 1.378 . S
C1368 C1372 1.350 . S
C1369 C1372 1.463 . S
C1369 C1374 1.350 . S
C1369 N1377 1.427 . S
C1370 H1361 0.930 . S
C1370 C1368 1.378 . S
C1370 C1371 1.367 . S
C1371 C1370 1.367 . S
C1371 C1373 1.433 . S
C1372 C1368 1.350 . S
C1372 C1369 1.463 . S
C1372 N1376 1.427 . S
C1373 H1363 0.929 . S
C1373 C1371 1.433 . S
C1373 N1376 1.384 . S
C1374 H1365 0.929 . S
C1374 C1366 1.378 . S
C1374 C1369 1.350 . S
C1375 H1362 0.929 . S
C1375 C1367 1.433 . S
C1375 N1377 1.384 . S
N1376 C1372 1.427 . S
N1376 C1373 1.384 . S
N1377 C1369 1.427 . S
N1377 C1375 1.384 . S
H1378 C1384 0.930 . S
H1379 C1388 0.930 . S
H1380 C1393 0.929 . S
H1381 C1391 0.929 . S
H1382 C1386 0.929 . S
H1383 C1392 0.929 . S
C1384 H1378 0.930 . S
C1384 C1385 1.367 . S
C1384 C1392 1.378 . S
C1385 C1384 1.367 . S
C1385 C1393 1.433 . S
C1386 H1382 0.929 . S
C1386 C1388 1.378 . S
C1386 C1390 1.350 . S
C1387 C1390 1.463 . S
C1387 C1392 1.350 . S
C1387 N1395 1.427 . S
C1388 H1379 0.930 . S
C1388 C1386 1.378 . S
C1388 C1389 1.367 . S
C1389 C1388 1.367 . S
C1389 C1391 1.433 . S
C1390 C1386 1.350 . S
C1390 C1387 1.463 . S
C1390 N1394 1.427 . S
C1391 H1381 0.929 . S
C1391 C1389 1.433 . S
C1391 N1394 1.384 . S
C1392 H1383 0.929 . S
C1392 C1384 1.378 . S
C1392 C1387 1.350 . S
C1393 H1380 0.929 . S
C1393 C1385 1.433 . S
C1393 N1395 1.384 . S
N1394 C1390 1.427 . S
N1394 C1391 1.384 . S
N1395 C1387 1.427 . S
N1395 C1393 1.384 . S
H1396 C1402 0.930 . S
H1397 C1406 0.930 . S
H1398 C1411 0.929 . S
H1399 C1409 0.929 . S
H1400 C1404 0.929 . S
H1401 C1410 0.929 . S
C1402 H1396 0.930 . S
C1402 C1403 1.367 . S
C1402 C1410 1.378 . S
C1403 C1402 1.367 . S
C1403 C1411 1.433 . S
C1404 H1400 0.929 . S
C1404 C1406 1.378 . S
C1404 C1408 1.350 . S
C1405 C1408 1.463 . S
C1405 C1410 1.350 . S
C1405 N1413 1.427 . S
C1406 H1397 0.930 . S
C1406 C1404 1.378 . S
C1406 C1407 1.367 . S
C1407 C1406 1.367 . S
C1407 C1409 1.433 . S
C1408 C1404 1.350 . S
C1408 C1405 1.463 . S
C1408 N1412 1.427 . S
C1409 H1399 0.929 . S
C1409 C1407 1.433 . S
C1409 N1412 1.384 . S
C1410 H1401 0.929 . S
C1410 C1402 1.378 . S
C1410 C1405 1.350 . S
C1411 H1398 0.929 . S
C1411 C1403 1.433 . S
C1411 N1413 1.384 . S
N1412 C1408 1.427 . S
N1412 C1409 1.384 . S
N1413 C1405 1.427 . S
N1413 C1411 1.384 . S
H1414 C1420 0.930 . S
H1415 C1424 0.930 . S
H1416 C1429 0.929 . S
H1417 C1427 0.929 . S
H1418 C1422 0.929 . S
H1419 C1428 0.929 . S
C1420 H1414 0.930 . S
C1420 C1421 1.367 . S
C1420 C1428 1.378 . S
C1421 C1420 1.367 . S
C1421 C1429 1.433 . S
C1422 H1418 0.929 . S
C1422 C1424 1.378 . S
C1422 C1426 1.350 . S
C1423 C1426 1.463 . S
C1423 C1428 1.350 . S
C1423 N1431 1.427 . S
C1424 H1415 0.930 . S
C1424 C1422 1.378 . S
C1424 C1425 1.367 . S
C1425 C1424 1.367 . S
C1425 C1427 1.433 . S
C1426 C1422 1.350 . S
C1426 C1423 1.463 . S
C1426 N1430 1.427 . S
C1427 H1417 0.929 . S
C1427 C1425 1.433 . S
C1427 N1430 1.384 . S
C1428 H1419 0.929 . S
C1428 C1420 1.378 . S
C1428 C1423 1.350 . S
C1429 H1416 0.929 . S
C1429 C1421 1.433 . S
C1429 N1431 1.384 . S
N1430 C1426 1.427 . S
N1430 C1427 1.384 . S
N1431 C1423 1.427 . S
N1431 C1429 1.384 . S
H1432 C1438 0.930 . S
H1433 C1442 0.930 . S
H1434 C1447 0.929 . S
H1435 C1445 0.929 . S
H1436 C1440 0.929 . S
H1437 C1446 0.929 . S
C1438 H1432 0.930 . S
C1438 C1439 1.367 . S
C1438 C1446 1.378 . S
C1439 C1438 1.367 . S
C1439 C1447 1.433 1_556 S
C1440 H1436 0.929 . S
C1440 C1442 1.378 . S
C1440 C1444 1.350 1_554 S
C1441 C1444 1.463 . S
C1441 C1446 1.350 . S
C1441 N1449 1.427 1_556 S
C1442 H1433 0.930 . S
C1442 C1440 1.378 . S
C1442 C1443 1.367 1_554 S
C1443 C1442 1.367 1_556 S
C1443 C1445 1.433 . S
C1444 C1440 1.350 1_556 S
C1444 C1441 1.463 . S
C1444 N1448 1.427 . S
C1445 H1435 0.929 . S
C1445 C1443 1.433 . S
C1445 N1448 1.384 . S
C1446 H1437 0.929 . S
C1446 C1438 1.378 . S
C1446 C1441 1.350 . S
C1447 H1434 0.929 . S
C1447 C1439 1.433 1_554 S
C1447 N1449 1.384 . S
N1448 C1444 1.427 . S
N1448 C1445 1.384 . S
N1449 C1441 1.427 1_554 S
N1449 C1447 1.384 . S
H1450 C1456 0.930 . S
H1451 C1460 0.930 . S
H1452 C1465 0.929 . S
H1453 C1463 0.929 . S
H1454 C1458 0.929 . S
H1455 C1464 0.929 . S
C1456 H1450 0.930 . S
C1456 C1457 1.367 . S
C1456 C1464 1.378 . S
C1457 C1456 1.367 . S
C1457 C1465 1.433 . S
C1458 H1454 0.929 . S
C1458 C1460 1.378 . S
C1458 C1462 1.350 . S
C1459 C1462 1.463 . S
C1459 C1464 1.350 . S
C1459 N1467 1.427 . S
C1460 H1451 0.930 . S
C1460 C1458 1.378 . S
C1460 C1461 1.367 . S
C1461 C1460 1.367 . S
C1461 C1463 1.433 . S
C1462 C1458 1.350 . S
C1462 C1459 1.463 . S
C1462 N1466 1.427 . S
C1463 H1453 0.929 . S
C1463 C1461 1.433 . S
C1463 N1466 1.384 . S
C1464 H1455 0.929 . S
C1464 C1456 1.378 . S
C1464 C1459 1.350 . S
C1465 H1452 0.929 . S
C1465 C1457 1.433 . S
C1465 N1467 1.384 . S
N1466 C1462 1.427 . S
N1466 C1463 1.384 . S
N1467 C1459 1.427 . S
N1467 C1465 1.384 . S
H1468 C1474 0.930 . S
H1469 C1478 0.930 . S
H1470 C1483 0.929 . S
H1471 C1481 0.929 . S
H1472 C1476 0.929 1_556 S
H1473 C1482 0.929 . S
C1474 H1468 0.930 . S
C1474 C1475 1.367 . S
C1474 C1482 1.378 . S
C1475 C1474 1.367 . S
C1475 C1483 1.433 . S
C1476 H1472 0.929 1_554 S
C1476 C1478 1.378 1_554 S
C1476 C1480 1.350 . S
C1477 C1480 1.463 . S
C1477 C1482 1.350 . S
C1477 N1485 1.427 . S
C1478 H1469 0.930 . S
C1478 C1476 1.378 1_556 S
C1478 C1479 1.367 1_556 S
C1479 C1478 1.367 1_554 S
C1479 C1481 1.433 . S
C1480 C1476 1.350 . S
C1480 C1477 1.463 . S
C1480 N1484 1.427 . S
C1481 H1471 0.929 . S
C1481 C1479 1.433 . S
C1481 N1484 1.384 . S
C1482 H1473 0.929 . S
C1482 C1474 1.378 . S
C1482 C1477 1.350 . S
C1483 H1470 0.929 . S
C1483 C1475 1.433 . S
C1483 N1485 1.384 . S
N1484 C1480 1.427 . S
N1484 C1481 1.384 . S
N1485 C1477 1.427 . S
N1485 C1483 1.384 . S
H1486 C1492 0.930 . S
H1487 C1496 0.930 . S
H1488 C1501 0.929 1_545 S
H1489 C1499 0.929 1_556 S
H1490 C1494 0.929 . S
H1491 C1500 0.929 1_556 S
C1492 H1486 0.930 . S
C1492 C1493 1.367 . S
C1492 C1500 1.378 . S
C1493 C1492 1.367 . S
C1493 C1501 1.433 . S
C1494 H1490 0.929 . S
C1494 C1496 1.378 . S
C1494 C1498 1.350 . S
C1495 C1498 1.463 . S
C1495 C1500 1.350 . S
C1495 N1503 1.427 . S
C1496 H1487 0.930 . S
C1496 C1494 1.378 . S
C1496 C1497 1.367 . S
C1497 C1496 1.367 . S
C1497 C1499 1.433 . S
C1498 C1494 1.350 . S
C1498 C1495 1.463 . S
C1498 N1502 1.427 . S
C1499 H1489 0.929 1_554 S
C1499 C1497 1.433 . S
C1499 N1502 1.384 . S
C1500 H1491 0.929 1_554 S
C1500 C1492 1.378 . S
C1500 C1495 1.350 . S
C1501 H1488 0.929 1_565 S
C1501 C1493 1.433 . S
C1501 N1503 1.384 . S
N1502 C1498 1.427 . S
N1502 C1499 1.384 . S
N1503 C1495 1.427 . S
N1503 C1501 1.384 . S
C651 C210 1.174 . S
C647 N66 1.138 . S
C669 C258 1.598 . S
C665 N79 1.649 1_455 S
C683 N92 1.761 . S
C687 C294 1.683 . S
C705 C330 1.379 . S
C701 N54 1.465 . S
C723 C356 1.399 . S
C719 N131 1.384 . S
C741 C392 1.281 . S
C737 N158 1.280 . S
C755 N145 1.545 . S
C759 C427 1.548 . S
C777 C464 1.804 . S
C773 N118 1.776 . S
C791 N148 1.857 . S
C795 C498 1.864 . S
C813 C546 1.672 . S
C809 N122 1.693 . S
C827 N132 1.162 . S
C831 C499 1.172 . S
C849 C536 1.550 . S
C845 N161 1.508 . S
C863 N96 1.844 . S
C867 C582 1.794 . S
C881 N53 1.741 . S
C885 C571 1.767 . S
C899 N67 1.118 . S
C903 C572 1.115 . S
C917 N83 1.506 . S
C921 C570 1.529 . S
C935 N44 1.312 . S
C939 C318 1.321 . S
C953 N187 1.446 . S
C957 C319 1.452 . S
C975 C222 1.277 . S
C971 N197 1.324 . S
C993 C247 1.312 . S
C989 N106 1.309 . S
C1007 N57 1.894 1_545 S
C1011 C354 1.897 . S
C1029 C462 1.392 . S
C1025 N144 1.374 . S
C1047 C355 1.439 . S
C1043 N119 1.455 1_545 S
C1065 C428 1.859 . S
C1061 N157 1.836 . S
C1083 C426 1.173 . S
C1079 N183 1.147 . S
C1097 N196 1.640 . S
C1101 C474 1.596 . S
C1115 N105 1.761 . S
C1119 C366 1.684 . S
C1137 C402 1.385 . S
C1133 N171 1.465 . S
C1151 N40 1.375 . S
C1155 C284 1.396 . S
C1173 C320 1.281 . S
C1169 N2 1.252 1_655 S
C1191 C211 1.550 . S
C1187 N15 1.541 . S
C1209 C248 1.802 . S
C1205 N27 1.783 1_455 S
C1223 N18 1.859 . S
C1227 C534 1.862 . S
C1241 N31 1.695 . S
C1245 C510 1.671 1_455 S
C1259 N41 1.166 . S
C1263 C535 1.173 . S
C1277 N5 1.514 . S
C1281 C500 1.552 . S
C1299 C618 1.791 . S
C1295 N109 1.839 . S
C1317 C607 1.768 . S
C1313 N170 1.743 1_554 S
C1335 C608 1.118 . S
C1331 N184 1.120 . S
C1349 N200 1.512 1_554 S
C1353 C606 1.531 . S
C1367 N135 1.312 . S
C1371 C390 1.321 . S
C1389 C391 1.457 . S
C1385 N70 1.437 . S
C1407 C438 1.276 . S
C1403 N80 1.324 . S
C1425 C463 1.311 . S
C1421 N93 1.311 . S
C1439 N174 1.892 . S
C1443 C282 1.898 1_556 S
C1461 C246 1.381 . S
C1457 N14 1.368 . S
C1475 N28 1.457 . S
C1479 C283 1.447 . S
C1497 C212 1.861 . S
C1493 N1 1.837 1_565 S
