# Generated by pormake.
# Topology zzz, (3,6)-cn, num edge types: 1
# Building blocks:
#     Node 0, Type 0, BuildingBlock: BELTOD_clean_linker_0, # of connection points: 3
#     Node 1, Type 0, BuildingBlock: BELTOD_clean_linker_0, # of connection points: 3
#     Node 2, Type 0, BuildingBlock: BELTOD_clean_linker_0, # of connection points: 3
#     Node 3, Type 0, BuildingBlock: BELTOD_clean_linker_0, # of connection points: 3
#     Node 4, Type 0, BuildingBlock: BELTOD_clean_linker_0, # of connection points: 3
#     Node 5, Type 0, BuildingBlock: BELTOD_clean_linker_0, # of connection points: 3
#     Node 6, Type 0, BuildingBlock: BELTOD_clean_linker_0, # of connection points: 3
#     Node 7, Type 0, BuildingBlock: BELTOD_clean_linker_0, # of connection points: 3
#     Node 8, Type 1, BuildingBlock: PAMTUU_clean_sbu_0, # of connection points: 6
#     Node 9, Type 1, BuildingBlock: PAMTUU_clean_sbu_0, # of connection points: 6
#     Node 10, Type 1, BuildingBlock: PAMTUU_clean_sbu_0, # of connection points: 6
#     Node 11, Type 1, BuildingBlock: PAMTUU_clean_sbu_0, # of connection points: 6
#     Edge 12, Type (0, 1), BuildingBlock: MIFKUJ_clean_linker_0, # of connection points: 2
#     Edge 13, Type (0, 1), BuildingBlock: MIFKUJ_clean_linker_0, # of connection points: 2
#     Edge 14, Type (0, 1), BuildingBlock: MIFKUJ_clean_linker_0, # of connection points: 2
#     Edge 15, Type (0, 1), BuildingBlock: MIFKUJ_clean_linker_0, # of connection points: 2
#     Edge 16, Type (0, 1), BuildingBlock: MIFKUJ_clean_linker_0, # of connection points: 2
#     Edge 17, Type (0, 1), BuildingBlock: MIFKUJ_clean_linker_0, # of connection points: 2
#     Edge 18, Type (0, 1), BuildingBlock: MIFKUJ_clean_linker_0, # of connection points: 2
#     Edge 19, Type (0, 1), BuildingBlock: MIFKUJ_clean_linker_0, # of connection points: 2
#     Edge 20, Type (0, 1), BuildingBlock: MIFKUJ_clean_linker_0, # of connection points: 2
#     Edge 21, Type (0, 1), BuildingBlock: MIFKUJ_clean_linker_0, # of connection points: 2
#     Edge 22, Type (0, 1), BuildingBlock: MIFKUJ_clean_linker_0, # of connection points: 2
#     Edge 23, Type (0, 1), BuildingBlock: MIFKUJ_clean_linker_0, # of connection points: 2
#     Edge 24, Type (0, 1), BuildingBlock: MIFKUJ_clean_linker_0, # of connection points: 2
#     Edge 25, Type (0, 1), BuildingBlock: MIFKUJ_clean_linker_0, # of connection points: 2
#     Edge 26, Type (0, 1), BuildingBlock: MIFKUJ_clean_linker_0, # of connection points: 2
#     Edge 27, Type (0, 1), BuildingBlock: MIFKUJ_clean_linker_0, # of connection points: 2
#     Edge 28, Type (0, 1), BuildingBlock: MIFKUJ_clean_linker_0, # of connection points: 2
#     Edge 29, Type (0, 1), BuildingBlock: MIFKUJ_clean_linker_0, # of connection points: 2
#     Edge 30, Type (0, 1), BuildingBlock: MIFKUJ_clean_linker_0, # of connection points: 2
#     Edge 31, Type (0, 1), BuildingBlock: MIFKUJ_clean_linker_0, # of connection points: 2
#     Edge 32, Type (0, 1), BuildingBlock: MIFKUJ_clean_linker_0, # of connection points: 2
#     Edge 33, Type (0, 1), BuildingBlock: MIFKUJ_clean_linker_0, # of connection points: 2
#     Edge 34, Type (0, 1), BuildingBlock: MIFKUJ_clean_linker_0, # of connection points: 2
#     Edge 35, Type (0, 1), BuildingBlock: MIFKUJ_clean_linker_0, # of connection points: 2
# Relax obj value: 0.341
# Max RMSD: 0.246
# Mean RMSD: 0.210
data_MOF--net-zzz--node1-PAMTUU_clean_sbu_0--node2-BELTOD_clean_linker_0--edge1-MIFKUJ_clean_linker_0
_symmetry_space_group_name_H-M    P1
_symmetry_Int_Tables_number       1
_symmetry_cell_setting            triclinic
loop_
_symmetry_equiv_pos_as_xyz
'x, y, z'
_cell_length_a     69.307112
_cell_length_b     72.00051
_cell_length_c     23.998968
_cell_angle_alpha  97.489976
_cell_angle_beta   89.945348
_cell_angle_gamma 90.499251
loop_
_atom_site_label
_atom_site_type_symbol
_atom_site_fract_x
_atom_site_fract_y
_atom_site_fract_z
_atom_type_partial_charge
P0 P 0.73496 0.46919 0.36851 0.0
H1 H 0.74682 0.47679 0.48605 0.0
H2 H 0.77708 0.48826 0.52783 0.0
H3 H 0.79378 0.50759 0.37134 0.0
H4 H 0.76377 0.49487 0.32874 0.0
H5 H 0.69562 0.45652 0.34644 0.0
H6 H 0.6706 0.46468 0.2833 0.0
H7 H 0.70705 0.50872 0.23437 0.0
H8 H 0.7322 0.50056 0.29882 0.0
H9 H 0.75806 0.43742 0.39032 0.0
H10 H 0.74564 0.46697 0.24953 0.0
O11 O 0.72459 0.45727 0.41592 0.0
H12 H 0.78466 0.42136 0.33792 0.0
H13 H 0.77232 0.45149 0.19778 0.0
C14 C 0.7527 0.4851 0.4042 0.0
C15 C 0.75662 0.48407 0.46104 0.0
C16 C 0.77415 0.4907 0.48512 0.0
C17 C 0.78826 0.4987 0.45305 0.0
C18 C 0.78357 0.50115 0.39728 0.0
C19 C 0.76608 0.49428 0.37304 0.0
C20 C 0.71577 0.47809 0.32835 0.0
C21 C 0.69816 0.46827 0.32336 0.0
C22 C 0.68378 0.47294 0.28703 0.0
C23 C 0.68675 0.4874 0.25381 0.0
C24 C 0.70433 0.49745 0.25925 0.0
C25 C 0.71869 0.49289 0.29643 0.0
C26 C 0.74964 0.45317 0.32355 0.0
C27 C 0.76059 0.43994 0.34738 0.0
C28 C 0.77595 0.43094 0.31766 0.0
C29 C 0.78072 0.43522 0.2638 0.0
C30 C 0.7689 0.4476 0.23877 0.0
C31 C 0.75354 0.45653 0.26847 0.0
P32 P 0.01567 0.73207 0.37204 0.0
H33 H 0.02049 0.74705 0.49 0.0
H34 H 0.0059 0.77404 0.54394 0.0
H35 H 0.96142 0.77393 0.41765 0.0
H36 H 0.97684 0.74734 0.36226 0.0
H37 H 0.0364 0.70224 0.30806 0.0
H38 H 0.02668 0.67347 0.25025 0.0
H39 H 0.96708 0.68452 0.29507 0.0
H40 H 0.97705 0.7136 0.35347 0.0
H41 H 0.04419 0.76186 0.36862 0.0
H42 H 0.99652 0.73806 0.26737 0.0
O43 O 0.03634 0.72816 0.40411 0.0
H44 H 0.04764 0.78653 0.30841 0.0
H45 H 0.9994 0.763 0.20804 0.0
C46 C 0.9998 0.74507 0.42195 0.0
C47 C 0.00716 0.75229 0.4748 0.0
C48 C 0.9987 0.76785 0.5059 0.0
C49 C 0.98263 0.77651 0.48476 0.0
C50 C 0.97404 0.76792 0.43467 0.0
C51 C 0.98265 0.75243 0.40331 0.0
C52 C 0.00751 0.70996 0.33564 0.0
C53 C 0.02126 0.69834 0.30642 0.0
C54 C 0.01567 0.68182 0.27344 0.0
C55 C 0.99611 0.67656 0.2685 0.0
C56 C 0.98226 0.6882 0.29805 0.0
C57 C 0.98794 0.7048 0.33156 0.0
C58 C 0.02044 0.74788 0.32158 0.0
C59 C 0.03472 0.76174 0.3327 0.0
C60 C 0.03647 0.77599 0.29871 0.0
C61 C 0.02373 0.77682 0.25348 0.0
C62 C 0.00965 0.76264 0.2419 0.0
C63 C 0.008 0.74834 0.27578 0.0
P64 P 0.7991 0.02152 0.38677 0.0
H65 H 0.78639 0.02115 0.50251 0.0
H66 H 0.75619 0.01176 0.54082 0.0
H67 H 0.74064 0.98203 0.37853 0.0
H68 H 0.77077 0.99263 0.33952 0.0
H69 H 0.83676 0.0361 0.36538 0.0
H70 H 0.86172 0.02682 0.29734 0.0
H71 H 0.8301 0.97584 0.24099 0.0
H72 H 0.80459 0.9856 0.30991 0.0
H73 H 0.77946 0.05738 0.41146 0.0
H74 H 0.78687 0.01476 0.26938 0.0
O75 O 0.809 0.03629 0.43856 0.0
H76 H 0.75616 0.07323 0.35796 0.0
H77 H 0.76335 0.0301 0.21645 0.0
C78 C 0.78114 0.00753 0.41795 0.0
C79 C 0.77685 0.01211 0.47524 0.0
C80 C 0.75933 0.00664 0.49739 0.0
C81 C 0.74552 0.99625 0.46299 0.0
C82 C 0.75055 0.9904 0.40638 0.0
C83 C 0.76808 0.99611 0.38407 0.0
C84 C 0.81892 0.01138 0.34402 0.0
C85 C 0.83534 0.02263 0.33974 0.0
C86 C 0.84974 0.01726 0.30044 0.0
C87 C 0.84817 0.00044 0.26362 0.0
C88 C 0.83182 0.98891 0.26848 0.0
C89 C 0.81729 0.99436 0.30834 0.0
C90 C 0.78518 0.0351 0.34402 0.0
C91 C 0.77645 0.05169 0.36831 0.0
C92 C 0.763 0.06064 0.33786 0.0
C93 C 0.75789 0.05295 0.28291 0.0
C94 C 0.76722 0.03665 0.25819 0.0
C95 C 0.78069 0.0278 0.28857 0.0
P96 P 0.52702 0.76684 0.15228 0.0
H97 H 0.50737 0.75581 0.25062 0.0
H98 H 0.51804 0.73673 0.32084 0.0
H99 H 0.57681 0.74092 0.26314 0.0
H100 H 0.56586 0.75999 0.19201 0.0
H101 H 0.51533 0.80543 0.1834 0.0
H102 H 0.52676 0.83493 0.15534 0.0
H103 H 0.57418 0.80604 0.06578 0.0
H104 H 0.56243 0.77639 0.09383 0.0
H105 H 0.53435 0.72667 0.14967 0.0
H106 H 0.52767 0.76582 0.02938 0.0
O107 O 0.50317 0.76969 0.15702 0.0
H108 H 0.53852 0.70138 0.07397 0.0
H109 H 0.53195 0.74016 0.95241 0.0
C110 C 0.53583 0.75936 0.21618 0.0
C111 C 0.52265 0.75329 0.25438 0.0
C112 C 0.52881 0.74233 0.29471 0.0
C113 C 0.54827 0.7371 0.29721 0.0
C114 C 0.56169 0.74453 0.26181 0.0
C115 C 0.55551 0.75561 0.22161 0.0
C116 C 0.53774 0.78871 0.13941 0.0
C117 C 0.52833 0.80547 0.15836 0.0
C118 C 0.535 0.82238 0.14263 0.0
C119 C 0.5513 0.82283 0.10787 0.0
C120 C 0.56141 0.8061 0.09185 0.0
C121 C 0.55474 0.78917 0.10791 0.0
C122 C 0.53136 0.74837 0.09544 0.0
C123 C 0.53426 0.73 0.10702 0.0
C124 C 0.5367 0.71544 0.06346 0.0
C125 C 0.53597 0.71881 0.00716 0.0
C126 C 0.53274 0.73717 0.99542 0.0
C127 C 0.5304 0.75184 0.03931 0.0
P128 P 0.2887 0.46934 0.12597 0.0
H129 H 0.28424 0.48025 0.01286 0.0
H130 H 0.25641 0.49187 0.96628 0.0
H131 H 0.22668 0.50109 0.12593 0.0
H132 H 0.25499 0.49083 0.17224 0.0
H133 H 0.32918 0.45945 0.13277 0.0
H134 H 0.35509 0.47049 0.19757 0.0
H135 H 0.31799 0.51373 0.27836 0.0
H136 H 0.29205 0.50294 0.21149 0.0
H137 H 0.26487 0.43586 0.09771 0.0
H138 H 0.27922 0.47369 0.24647 0.0
O139 O 0.29788 0.45462 0.07331 0.0
H140 H 0.2382 0.42314 0.14768 0.0
H141 H 0.25213 0.4623 0.29503 0.0
C142 C 0.27167 0.48427 0.09601 0.0
C143 C 0.27198 0.48539 0.03813 0.0
C144 C 0.25582 0.49176 0.0113 0.0
C145 C 0.23881 0.49687 0.04168 0.0
C146 C 0.23931 0.4973 0.10058 0.0
C147 C 0.25562 0.4913 0.12741 0.0
C148 C 0.30864 0.48044 0.16681 0.0
C149 C 0.32669 0.47166 0.1632 0.0
C150 C 0.34155 0.47797 0.20046 0.0
C151 C 0.3386 0.49295 0.24319 0.0
C152 C 0.32067 0.50211 0.24594 0.0
C153 C 0.30589 0.49603 0.20758 0.0
C154 C 0.27414 0.45573 0.16821 0.0
C155 C 0.26267 0.44106 0.14164 0.0
C156 C 0.24718 0.434 0.17012 0.0
C157 C 0.24255 0.44191 0.22527 0.0
C158 C 0.25515 0.45556 0.25301 0.0
C159 C 0.27081 0.46227 0.22488 0.0
P160 P 0.1103 0.26119 0.1839 0.0
H161 H 0.12096 0.24656 0.06828 0.0
H162 H 0.10539 0.22259 1.00157 0.0
H163 H 0.05395 0.22651 0.10392 0.0
H164 H 0.0696 0.25053 0.17055 0.0
H165 H 0.13184 0.28907 0.25621 0.0
H166 H 0.12337 0.31956 0.30644 0.0
H167 H 0.06811 0.31636 0.22256 0.0
H168 H 0.07681 0.28575 0.17171 0.0
H169 H 0.12278 0.2239 0.20075 0.0
H170 H 0.08523 0.26633 0.28363 0.0
O171 O 0.13379 0.25966 0.16865 0.0
H172 H 0.11073 0.20166 0.26155 0.0
H173 H 0.07349 0.24439 0.34525 0.0
C174 C 0.0965 0.2503 0.12463 0.0
C175 C 0.10606 0.24287 0.07529 0.0
C176 C 0.09713 0.2291 0.0371 0.0
C177 C 0.07857 0.22244 0.04805 0.0
C178 C 0.06837 0.2312 0.09479 0.0
C179 C 0.07725 0.24509 0.13262 0.0
C180 C 0.10506 0.28524 0.20976 0.0
C181 C 0.11809 0.29512 0.24743 0.0
C182 C 0.11317 0.31248 0.27652 0.0
C183 C 0.09502 0.32029 0.26878 0.0
C184 C 0.08227 0.31075 0.22903 0.0
C185 C 0.08721 0.29325 0.19997 0.0
C186 C 0.10519 0.24685 0.23824 0.0
C187 C 0.11246 0.22862 0.23335 0.0
C188 C 0.10553 0.21592 0.2681 0.0
C189 C 0.09108 0.22124 0.30805 0.0
C190 C 0.08446 0.2398 0.31444 0.0
C191 C 0.09137 0.25245 0.2796 0.0
P192 P 0.24144 0.04316 0.15767 0.0
H193 H 0.25041 0.05038 0.04271 0.0
H194 H 0.27822 0.0417 0.98281 0.0
H195 H 0.29548 0.0024 0.09465 0.0
H196 H 0.26713 0.0105 0.15247 0.0
H197 H 0.20604 0.06282 0.19072 0.0
H198 H 0.17707 0.05331 0.23663 0.0
H199 H 0.19466 0.99554 0.20424 0.0
H200 H 0.22385 0.00527 0.15668 0.0
H201 H 0.27711 0.06185 0.19817 0.0
H202 H 0.23622 0.02333 0.25746 0.0
O203 O 0.23985 0.06547 0.14616 0.0
H204 H 0.29931 0.05636 0.27332 0.0
H205 H 0.25837 0.01698 0.32903 0.0
C206 C 0.25667 0.03129 0.10267 0.0
C207 C 0.25976 0.03938 0.05325 0.0
C208 C 0.27598 0.03463 0.01945 0.0
C209 C 0.28964 0.02173 0.03446 0.0
C210 C 0.28546 0.0124 0.08128 0.0
C211 C 0.2691 0.01701 0.11465 0.0
C212 C 0.21717 0.03478 0.16957 0.0
C213 C 0.20337 0.048 0.19098 0.0
C214 C 0.18673 0.04253 0.21774 0.0
C215 C 0.18357 0.02367 0.22479 0.0
C216 C 0.19673 0.01021 0.19992 0.0
C217 C 0.21328 0.01571 0.17189 0.0
C218 C 0.25499 0.04299 0.22161 0.0
C219 C 0.2727 0.05256 0.22795 0.0
C220 C 0.28547 0.04921 0.27051 0.0
C221 C 0.2808 0.03599 0.30687 0.0
C222 C 0.26248 0.02741 0.3025 0.0
C223 C 0.24971 0.03093 0.26053 0.0
P224 P 0.43108 0.23994 0.36849 0.0
H225 H 0.40972 0.24814 0.26926 0.0
H226 H 0.41844 0.26716 0.19568 0.0
H227 H 0.47759 0.26909 0.25252 0.0
H228 H 0.46886 0.24974 0.32546 0.0
H229 H 0.4262 0.22002 0.46377 0.0
H230 H 0.4365 0.18936 0.48468 0.0
H231 H 0.46071 0.17753 0.31811 0.0
H232 H 0.45044 0.20863 0.2974 0.0
H233 H 0.41934 0.27661 0.42368 0.0
H234 H 0.46741 0.23936 0.43062 0.0
O235 O 0.40713 0.2415 0.37442 0.0
H236 H 0.43596 0.30041 0.48878 0.0
H237 H 0.48397 0.26292 0.49644 0.0
C238 C 0.43858 0.24775 0.3034 0.0
C239 C 0.42469 0.25207 0.26472 0.0
C240 C 0.4297 0.26295 0.22259 0.0
C241 C 0.44863 0.26984 0.219 0.0
C242 C 0.46284 0.26414 0.25481 0.0
C243 C 0.45787 0.25303 0.29636 0.0
C244 C 0.43772 0.2166 0.37932 0.0
C245 C 0.43365 0.21082 0.43158 0.0
C246 C 0.43959 0.19334 0.44356 0.0
C247 C 0.44955 0.18118 0.40319 0.0
C248 C 0.45303 0.18668 0.34988 0.0
C249 C 0.44724 0.2044 0.3381 0.0
C250 C 0.44195 0.2561 0.42326 0.0
C251 C 0.43324 0.27338 0.4404 0.0
C252 C 0.44276 0.28694 0.4777 0.0
C253 C 0.46127 0.28351 0.49795 0.0
C254 C 0.46978 0.26601 0.48141 0.0
C255 C 0.46023 0.25246 0.4442 0.0
Tb256 Tb 1.00075 0.01208 0.70465 0.0
Tb257 Tb 0.03259 0.99407 0.78313 0.0
C258 C 0.98941 0.00092 0.82202 0.0
C259 C 0.98299 0.04596 0.62064 0.0
C260 C 0.99736 0.07617 0.56909 0.0
C261 C 0.98344 0.06391 0.54162 0.0
C262 C 0.9764 0.04877 0.56715 0.0
C263 C 0.99609 0.05884 0.64907 0.0
C264 C 1.00323 0.07376 0.62355 0.0
C265 C 0.97882 0.02838 0.6435 0.0
O266 O 0.01212 0.03508 0.76378 0.0
O267 O 0.04122 0.02325 0.7884 0.0
O268 O 0.0461 0.99383 0.70057 0.0
O269 O 0.02875 0.01718 0.66826 0.0
O270 O 0.04629 0.99385 0.86116 0.0
O271 O 0.05293 0.97316 0.79068 0.0
O272 O 0.01224 0.97186 0.75378 0.0
O273 O 1.00227 0.98242 0.67278 0.0
O274 O 0.98391 0.00066 0.76948 0.0
O275 O 0.00773 0.00246 0.83621 0.0
C276 C 0.02951 0.0373 0.78545 0.0
O277 O 0.98997 0.01453 0.62414 0.0
O278 O 0.9771 0.02975 0.69805 0.0
C279 C 0.04368 0.006 0.66479 0.0
C280 C 0.05098 0.96297 0.87913 0.0
C281 C 0.04392 0.93325 0.94191 0.0
C282 C 0.06158 0.94311 0.94717 0.0
C283 C 0.06511 0.95784 0.91573 0.0
C284 C 0.03317 0.95347 0.87487 0.0
C285 C 0.0297 0.93866 0.90574 0.0
C286 C 0.05476 0.978 0.84467 0.0
C287 C 0.00461 0.96879 0.70343 0.0
H288 H 0.97876 0.06551 0.49947 0.0
H289 H 0.96649 0.03885 0.54425 0.0
H290 H 1.00146 0.05693 0.69019 0.0
H291 H 0.01377 0.08315 0.64584 0.0
H292 H 0.0728 0.93914 0.97459 0.0
H293 H 0.07891 0.96508 0.91957 0.0
H294 H 0.02199 0.95741 0.84729 0.0
H295 H 0.01588 0.93146 0.9015 0.0
Tb296 Tb 0.5099 0.98555 0.70194 0.0
Tb297 Tb 0.52459 0.02047 0.79261 0.0
C298 C 0.53154 0.97854 0.8102 0.0
C299 C 0.47502 0.95719 0.61776 0.0
C300 C 0.43712 0.96013 0.57914 0.0
C301 C 0.45108 0.95069 0.54387 0.0
C302 C 0.47003 0.94933 0.56307 0.0
C303 C 0.46069 0.96551 0.65394 0.0
C304 C 0.44192 0.96697 0.63479 0.0
C305 C 0.49532 0.95947 0.63472 0.0
O306 O 0.48841 0.98968 0.76924 0.0
O307 O 0.49313 0.02092 0.79659 0.0
O308 O 0.51852 0.03182 0.71532 0.0
O309 O 0.49621 0.01029 0.67709 0.0
O310 O 0.52476 0.03405 0.87563 0.0
O311 O 0.53937 0.04609 0.80933 0.0
O312 O 0.55091 0.0083 0.75385 0.0
O313 O 0.53794 0.9939 0.67098 0.0
O314 O 0.53012 0.9736 0.75581 0.0
O315 O 0.52638 0.99527 0.83367 0.0
C316 C 0.48218 0.00587 0.79397 0.0
O317 O 0.50389 0.97406 0.61865 0.0
O318 O 0.49885 0.95809 0.68738 0.0
C319 C 0.50439 0.02689 0.68012 0.0
C320 C 0.55352 0.05073 0.89838 0.0
C321 C 0.58697 0.05814 0.96377 0.0
C322 C 0.57127 0.07047 0.97061 0.0
C323 C 0.55466 0.06679 0.93798 0.0
C324 C 0.56903 0.03828 0.89173 0.0
C325 C 0.58566 0.04198 0.92413 0.0
C326 C 0.53631 0.04727 0.8632 0.0
C327 C 0.55289 0.00066 0.70123 0.0
H328 H 0.44764 0.94546 0.50061 0.0
H329 H 0.48096 0.94305 0.53444 0.0
H330 H 0.46419 0.97181 0.69618 0.0
H331 H 0.43133 0.97423 0.66269 0.0
H332 H 0.57195 0.08309 1.00056 0.0
H333 H 0.54278 0.07654 0.94336 0.0
H334 H 0.5683 0.02576 0.86133 0.0
H335 H 0.59742 0.03209 0.91858 0.0
Tb336 Tb 0.49361 0.49824 0.80407 0.0
Tb337 Tb 0.5313 0.50498 0.70456 0.0
C338 C 0.48604 0.50415 0.67217 0.0
C339 C 0.46829 0.46849 0.89572 0.0
C340 C 0.46537 0.43491 0.94399 0.0
C341 C 0.45385 0.45037 0.96376 0.0
C342 C 0.45522 0.467 0.93953 0.0
C343 C 0.48011 0.45323 0.87676 0.0
C344 C 0.47853 0.43651 0.90026 0.0
C345 C 0.4695 0.48589 0.86972 0.0
O346 O 0.50525 0.47186 0.76067 0.0
O347 O 0.52974 0.47494 0.69426 0.0
O348 O 0.54645 0.49687 0.77632 0.0
O349 O 0.5222 0.49896 0.84516 0.0
O350 O 0.5477 0.50664 0.63174 0.0
O351 O 0.55007 0.52784 0.70524 0.0
O352 O 0.51255 0.51915 0.7612 0.0
O353 O 0.4916 0.52919 0.81869 0.0
O354 O 0.47989 0.50283 0.72407 0.0
O355 O 0.50445 0.50473 0.65707 0.0
C356 C 0.51783 0.46489 0.72168 0.0
O357 O 0.46768 0.4839 0.81523 0.0
O358 O 0.48371 0.4972 0.88655 0.0
C359 C 0.5405 0.49712 0.8288 0.0
C360 C 0.5536 0.53798 0.6167 0.0
C361 C 0.55264 0.56871 0.55501 0.0
C362 C 0.56933 0.55772 0.55547 0.0
C363 C 0.56979 0.54252 0.58618 0.0
C364 C 0.53668 0.54845 0.615 0.0
C365 C 0.5362 0.56368 0.58439 0.0
C366 C 0.55487 0.52301 0.65253 0.0
C367 C 0.50513 0.5341 0.78686 0.0
H368 H 0.44354 0.44947 0.9973 0.0
H369 H 0.44604 0.47866 0.95485 0.0
H370 H 0.49056 0.45425 0.84377 0.0
H371 H 0.48777 0.42491 0.88474 0.0
H372 H 0.58236 0.56135 0.53425 0.0
H373 H 0.58299 0.53462 0.58733 0.0
H374 H 0.524 0.54508 0.63833 0.0
H375 H 0.52304 0.57168 0.5844 0.0
Tb376 Tb 0.02268 0.51621 0.69661 0.0
Tb377 Tb 0.00843 0.48665 0.7802 0.0
C378 C 1.00378 0.52973 0.81386 0.0
C379 C 0.049 0.52894 0.57839 0.0
C380 C 0.07672 0.51102 0.50423 0.0
C381 C 0.08134 0.52777 0.53895 0.0
C382 C 0.06759 0.53664 0.57575 0.0
C383 C 0.04407 0.51285 0.54116 0.0
C384 C 0.05777 0.50399 0.50459 0.0
C385 C 0.03609 0.53559 0.62567 0.0
O386 O 0.04863 0.50422 0.72882 0.0
O387 O 0.03591 0.49842 0.8124 0.0
O388 O 0.02695 0.47119 0.7172 0.0
O389 O 0.02077 0.48883 0.64716 0.0
O390 O 0.00757 0.47884 0.86124 0.0
O391 O 0.99567 0.46071 0.79072 0.0
O392 O 0.98473 0.48853 0.72107 0.0
O393 O 0.99134 0.51753 0.69536 0.0
O394 O 0.01726 0.53285 0.7774 0.0
O395 O 0.99545 0.51321 0.81312 0.0
C396 C 0.05087 0.50163 0.78152 0.0
O397 O 0.01867 0.52858 0.623 0.0
O398 O 0.04354 0.53557 0.67554 0.0
C399 C 0.02671 0.47322 0.66365 0.0
C400 C 0.9808 0.4597 0.87948 0.0
C401 C 0.95019 0.45021 0.94831 0.0
C402 C 0.95448 0.43879 0.89787 0.0
C403 C 0.9697 0.44344 0.86397 0.0
C404 C 0.97634 0.47128 0.92958 0.0
C405 C 0.96119 0.46656 0.96365 0.0
C406 C 0.99771 0.4636 0.84517 0.0
C407 C 0.97951 0.50327 0.69763 0.0
H408 H 0.09576 0.53369 0.53894 0.0
H409 H 0.07177 0.54896 0.60416 0.0
H410 H 0.02991 0.50644 0.54226 0.0
H411 H 0.05377 0.49103 0.4789 0.0
H412 H 0.94637 0.42601 0.8853 0.0
H413 H 0.973 0.43414 0.826 0.0
H414 H 0.98466 0.48387 0.94296 0.0
H415 H 0.95806 0.47574 0.00199 0.0
H416 H 0.146 0.03568 0.22959 0.0
H417 H 0.12166 0.03115 0.30061 0.0
H418 H 0.16121 0.99666 0.37931 0.0
H419 H 0.18546 0.00085 0.30763 0.0
H420 H 0.12589 0.98269 0.38341 0.0
H421 H 0.15371 0.04475 0.42725 0.0
H422 H 0.16259 0.07653 0.40783 0.0
H423 H 0.103 0.0884 0.38021 0.0
H424 H 0.09381 0.05662 0.39864 0.0
H425 H 0.07889 0.9886 0.64942 0.0
H426 H 0.102 0.99034 0.57309 0.0
H427 H 0.06385 0.0272 0.49846 0.0
H428 H 0.04103 0.026 0.57542 0.0
H429 H 0.09836 0.03972 0.49161 0.0
H430 H 0.06983 0.97887 0.44631 0.0
H431 H 0.05972 0.94713 0.46287 0.0
H432 H 0.11872 0.93288 0.48966 0.0
H433 H 0.12917 0.96464 0.47399 0.0
C434 C 0.14945 0.02696 0.26167 0.0
C435 C 0.16776 0.01871 0.26293 0.0
C436 C 0.13553 0.02445 0.30256 0.0
C437 C 0.13967 0.01393 0.34649 0.0
C438 C 0.15761 0.00493 0.34623 0.0
C439 C 0.17147 0.00726 0.30495 0.0
C440 C 0.12564 0.01284 0.39361 0.0
C441 C 0.12006 0.99518 0.40748 0.0
C442 C 0.11754 0.02907 0.42445 0.0
C443 C 0.1231 0.04824 0.41381 0.0
C444 C 0.14252 0.0541 0.41668 0.0
C445 C 0.14761 0.07213 0.40587 0.0
C446 C 0.13338 0.08447 0.39264 0.0
C447 C 0.11402 0.07884 0.39036 0.0
C448 C 0.10886 0.06082 0.40101 0.0
C449 C 0.0754 0.99709 0.61681 0.0
C450 C 0.05801 0.00711 0.61877 0.0
C451 C 0.08862 0.99798 0.5728 0.0
C452 C 0.08464 0.00867 0.52907 0.0
C453 C 0.06736 0.01882 0.53137 0.0
C454 C 0.05425 0.01809 0.57557 0.0
C455 C 0.09854 0.00956 0.48145 0.0
C456 C 0.10414 0.0272 0.46756 0.0
C457 C 0.10648 0.99331 0.45026 0.0
C458 C 0.10026 0.97419 0.45953 0.0
C459 C 0.08064 0.96901 0.45614 0.0
C460 C 0.07484 0.95101 0.4653 0.0
C461 C 0.08856 0.93801 0.47746 0.0
C462 C 0.10811 0.94297 0.48032 0.0
C463 C 0.11397 0.96097 0.47126 0.0
H464 H 0.08405 0.92408 0.48454 0.0
H465 H 0.13734 0.09842 0.38426 0.0
H466 H 0.44459 0.14582 0.34639 0.0
H467 H 0.45435 0.11605 0.37785 0.0
H468 H 0.48034 0.14663 0.52586 0.0
H469 H 0.47068 0.17614 0.4948 0.0
H470 H 0.50323 0.11781 0.47666 0.0
H471 H 0.43611 0.12836 0.53212 0.0
H472 H 0.4016 0.13284 0.5133 0.0
H473 H 0.39955 0.07979 0.40831 0.0
H474 H 0.43415 0.07512 0.42593 0.0
H475 H 0.51075 0.06448 0.69482 0.0
H476 H 0.50148 0.08718 0.63339 0.0
H477 H 0.47418 0.04331 0.52006 0.0
H478 H 0.48295 0.02038 0.58295 0.0
H479 H 0.45278 0.07418 0.53061 0.0
H480 H 0.51886 0.06121 0.48997 0.0
H481 H 0.55309 0.05669 0.51195 0.0
H482 H 0.55755 0.11399 0.58753 0.0
H483 H 0.52324 0.11877 0.56712 0.0
C484 C 0.45261 0.1461 0.38522 0.0
C485 C 0.45678 0.16321 0.41844 0.0
C486 C 0.45807 0.12914 0.40326 0.0
C487 C 0.46794 0.12915 0.4544 0.0
C488 C 0.47273 0.14629 0.48631 0.0
C489 C 0.46713 0.16313 0.4687 0.0
C490 C 0.47284 0.11149 0.47662 0.0
C491 C 0.49223 0.10823 0.48842 0.0
C492 C 0.45851 0.09869 0.49023 0.0
C493 C 0.43775 0.10152 0.4797 0.0
C494 C 0.42834 0.11774 0.50459 0.0
C495 C 0.40876 0.12029 0.49423 0.0
C496 C 0.3984 0.10664 0.45946 0.0
C497 C 0.4076 0.09038 0.43511 0.0
C498 C 0.42719 0.08777 0.44527 0.0
C499 C 0.50277 0.05958 0.65687 0.0
C500 C 0.49779 0.04057 0.64341 0.0
C501 C 0.49755 0.0726 0.62157 0.0
C502 C 0.48761 0.06689 0.57122 0.0
C503 C 0.48203 0.048 0.55839 0.0
C504 C 0.48705 0.03493 0.59431 0.0
C505 C 0.48316 0.08088 0.53271 0.0
C506 C 0.46388 0.08343 0.51767 0.0
C507 C 0.49762 0.09303 0.51587 0.0
C508 C 0.51842 0.09032 0.52716 0.0
C509 C 0.52711 0.07283 0.5115 0.0
C510 C 0.54654 0.07022 0.52372 0.0
C511 C 0.55749 0.08505 0.55113 0.0
C512 C 0.54905 0.10253 0.56627 0.0
C513 C 0.52961 0.10519 0.55434 0.0
H514 H 0.57252 0.08303 0.56068 0.0
H515 H 0.38324 0.10864 0.45152 0.0
H516 H 0.37708 0.49938 0.22714 0.0
H517 H 0.40253 0.50417 0.29838 0.0
H518 H 0.36004 0.50129 0.4286 0.0
H519 H 0.3345 0.49731 0.35746 0.0
H520 H 0.38573 0.52637 0.46492 0.0
H521 H 0.39014 0.46261 0.37039 0.0
H522 H 0.39371 0.43891 0.28699 0.0
H523 H 0.44855 0.46278 0.25062 0.0
H524 H 0.4452 0.48676 0.33333 0.0
H525 H 0.44653 0.5024 0.68219 0.0
H526 H 0.42231 0.50286 0.60868 0.0
H527 H 0.46721 0.50843 0.48735 0.0
H528 H 0.49162 0.50773 0.56044 0.0
H529 H 0.44142 0.48321 0.44451 0.0
H530 H 0.4385 0.54569 0.53835 0.0
H531 H 0.43562 0.57046 0.61909 0.0
H532 H 0.37908 0.55018 0.65471 0.0
H533 H 0.38173 0.5251 0.57462 0.0
C534 C 0.37318 0.49998 0.27105 0.0
C535 C 0.35379 0.4979 0.28667 0.0
C536 C 0.38776 0.50258 0.31181 0.0
C537 C 0.38338 0.50259 0.3691 0.0
C538 C 0.3639 0.50124 0.38484 0.0
C539 C 0.34927 0.49901 0.34413 0.0
C540 C 0.39902 0.50345 0.41245 0.0
C541 C 0.39776 0.51676 0.46068 0.0
C542 C 0.41514 0.49132 0.40656 0.0
C543 C 0.41733 0.47658 0.35773 0.0
C544 C 0.40292 0.46284 0.34448 0.0
C545 C 0.40491 0.44936 0.29733 0.0
C546 C 0.42132 0.4494 0.26344 0.0
C547 C 0.43584 0.46281 0.27685 0.0
C548 C 0.43391 0.47632 0.32386 0.0
C549 C 0.45134 0.50382 0.64 0.0
C550 C 0.47115 0.50505 0.62762 0.0
C551 C 0.43739 0.50415 0.59789 0.0
C552 C 0.44284 0.50588 0.54234 0.0
C553 C 0.46258 0.5071 0.52979 0.0
C554 C 0.47656 0.50675 0.57185 0.0
C555 C 0.42798 0.50596 0.49722 0.0
C556 C 0.42939 0.49283 0.44871 0.0
C557 C 0.41208 0.51831 0.50269 0.0
C558 C 0.41039 0.53341 0.55078 0.0
C559 C 0.42551 0.54642 0.56366 0.0
C560 C 0.42391 0.56053 0.60926 0.0
C561 C 0.4072 0.56186 0.64209 0.0
C562 C 0.39203 0.54911 0.62928 0.0
C563 C 0.39356 0.53496 0.58376 0.0
H564 H 0.40598 0.5728 0.67738 0.0
H565 H 0.4228 0.43907 0.22677 0.0
H566 H 0.07692 0.35144 0.23926 0.0
H567 H 0.06597 0.379 0.30248 0.0
H568 H 0.0882 0.35498 0.44463 0.0
H569 H 0.09908 0.32759 0.38217 0.0
H570 H 0.05042 0.36659 0.45847 0.0
H571 H 0.11131 0.39038 0.40204 0.0
H572 H 0.13647 0.40006 0.33885 0.0
H573 H 0.09739 0.43893 0.27904 0.0
H574 H 0.07185 0.4293 0.34128 0.0
H575 H 0.04399 0.44034 0.68096 0.0
H576 H 0.0558 0.41563 0.60988 0.0
H577 H 0.0372 0.44703 0.4786 0.0
H578 H 0.02565 0.47189 0.54928 0.0
H579 H 0.07145 0.43237 0.45343 0.0
H580 H 0.01102 0.40934 0.51147 0.0
H581 H 0.98637 0.40108 0.57842 0.0
H582 H 0.02485 0.36124 0.63613 0.0
H583 H 0.04985 0.36945 0.57005 0.0
C584 C 0.07951 0.35213 0.28398 0.0
C585 C 0.08893 0.33741 0.30575 0.0
C586 C 0.07339 0.3679 0.31994 0.0
C587 C 0.07637 0.36905 0.3782 0.0
C588 C 0.08582 0.3544 0.39982 0.0
C589 C 0.09212 0.33881 0.36401 0.0
C590 C 0.06875 0.38493 0.41741 0.0
C591 C 0.05521 0.38095 0.45782 0.0
C592 C 0.07453 0.40373 0.41526 0.0
C593 C 0.08952 0.40882 0.37555 0.0
C594 C 0.10793 0.4007 0.37456 0.0
C595 C 0.12229 0.40625 0.33911 0.0
C596 C 0.11847 0.41998 0.30459 0.0
C597 C 0.10028 0.4282 0.3055 0.0
C598 C 0.08584 0.42269 0.34082 0.0
C599 C 0.04236 0.44197 0.63699 0.0
C600 C 0.03374 0.45805 0.6209 0.0
C601 C 0.04909 0.42782 0.59634 0.0
C602 C 0.04713 0.42933 0.53879 0.0
C603 C 0.03884 0.44551 0.52267 0.0
C604 C 0.03218 0.4597 0.56325 0.0
C605 C 0.05355 0.41393 0.49554 0.0
C606 C 0.06666 0.41801 0.45401 0.0
C607 C 0.0474 0.39518 0.49651 0.0
C608 C 0.03237 0.39013 0.53614 0.0
C609 C 0.01428 0.39891 0.53872 0.0
C610 C 1.00024 0.39423 0.57648 0.0
C611 C 1.00406 0.38068 0.6116 0.0
C612 C 0.02192 0.37175 0.60894 0.0
C613 C 0.03603 0.3764 0.5713 0.0
H614 H 0.99317 0.37707 0.6408 0.0
H615 H 0.12966 0.42435 0.27747 0.0
H616 H 0.88737 0.0063 0.27142 0.0
H617 H 0.91093 0.00389 0.19527 0.0
H618 H 0.86706 0.98148 0.07768 0.0
H619 H 0.84305 0.98449 0.1535 0.0
H620 H 0.90565 0.96361 0.06286 0.0
H621 H 0.87562 0.02439 0.07972 0.0
H622 H 0.8648 0.05424 0.13202 0.0
H623 H 0.9232 0.06814 0.1819 0.0
H624 H 0.93433 0.0382 0.13061 0.0
H625 H 0.95277 0.98599 0.81072 0.0
H626 H 0.92916 0.98289 0.88547 0.0
H627 H 0.96932 0.00924 0.00888 0.0
H628 H 0.99308 0.012 0.93483 0.0
H629 H 0.93209 0.02441 0.01972 0.0
H630 H 0.96302 0.96549 0.0035 0.0
H631 H 0.97525 0.93516 0.95854 0.0
H632 H 0.91743 0.91698 0.91476 0.0
H633 H 0.90489 0.94745 0.95785 0.0
C634 C 0.88263 0.00082 0.22946 0.0
C635 C 0.86312 0.99591 0.21874 0.0
C636 C 0.89621 0.99934 0.18597 0.0
C637 C 0.89074 0.99271 0.13062 0.0
C638 C 0.87161 0.98664 0.12009 0.0
C639 C 0.8579 0.9883 0.16364 0.0
C640 C 0.90469 0.99356 0.08362 0.0
C641 C 0.91119 0.97688 0.05265 0.0
C642 C 0.9124 0.01087 0.07151 0.0
C643 C 0.90578 0.02898 0.10178 0.0
C644 C 0.88614 0.03374 0.10221 0.0
C645 C 0.87995 0.05069 0.13162 0.0
C646 C 0.8933 0.06306 0.16038 0.0
C647 C 0.91287 0.05853 0.15966 0.0
C648 C 0.91913 0.04158 0.13039 0.0
C649 C 0.95656 0.99113 0.85377 0.0
C650 C 0.97481 0.99929 0.86672 0.0
C651 C 0.94309 0.98926 0.89649 0.0
C652 C 0.94747 0.99578 0.95288 0.0
C653 C 0.9656 0.00409 0.96576 0.0
C654 C 0.97919 0.00563 0.92331 0.0
C655 C 0.93302 0.99445 0.99838 0.0
C656 C 0.92646 0.01108 0.02933 0.0
C657 C 0.92548 0.97707 0.01075 0.0
C658 C 0.93303 0.95893 0.98309 0.0
C659 C 0.95293 0.95518 0.98333 0.0
C660 C 0.95992 0.93793 0.95827 0.0
C661 C 0.94714 0.9242 0.93338 0.0
C662 C 0.92734 0.92768 0.9336 0.0
C663 C 0.92028 0.94496 0.95825 0.0
H664 H 0.95257 0.91082 0.91419 0.0
H665 H 0.88848 0.07617 0.18313 0.0
H666 H 0.55212 0.85878 0.16217 0.0
H667 H 0.55459 0.8877 0.1191 0.0
H668 H 0.56413 0.8554 0.95726 0.0
H669 H 0.56158 0.82647 0.99985 0.0
H670 H 0.58544 0.88829 0.97024 0.0
H671 H 0.51965 0.86826 0.99491 0.0
H672 H 0.49193 0.85883 0.04966 0.0
H673 H 0.49387 0.91204 0.15384 0.0
H674 H 0.52182 0.92166 0.10019 0.0
H675 H 0.5455 0.94348 0.77613 0.0
H676 H 0.55448 0.91973 0.83487 0.0
H677 H 0.54216 0.95816 0.98373 0.0
H678 H 0.53298 0.98204 0.92521 0.0
H679 H 0.52471 0.92464 0.9861 0.0
H680 H 0.58823 0.94617 0.95123 0.0
H681 H 0.61543 0.95521 0.89393 0.0
H682 H 0.61749 0.89931 0.8064 0.0
H683 H 0.5901 0.88999 0.8626 0.0
C684 C 0.55502 0.85786 0.11755 0.0
C685 C 0.5564 0.84032 0.08431 0.0
C686 C 0.55649 0.87438 0.09305 0.0
C687 C 0.55922 0.87367 0.03484 0.0
C688 C 0.56202 0.85626 0.00225 0.0
C689 C 0.56059 0.83972 0.02673 0.0
C690 C 0.55708 0.89075 0.00698 0.0
C691 C 0.57216 0.89623 0.97347 0.0
C692 C 0.53986 0.90128 0.01206 0.0
C693 C 0.52295 0.89559 0.044 0.0
C694 C 0.51425 0.87789 0.02977 0.0
C695 C 0.4985 0.87251 0.06056 0.0
C696 C 0.49118 0.8848 0.10531 0.0
C697 C 0.49958 0.90252 0.11924 0.0
C698 C 0.51538 0.90794 0.08867 0.0
C699 C 0.54487 0.94699 0.82137 0.0
C700 C 0.53842 0.96466 0.84593 0.0
C701 C 0.55014 0.93341 0.85492 0.0
C702 C 0.54914 0.93722 0.91371 0.0
C703 C 0.54308 0.95495 0.93844 0.0
C704 C 0.53786 0.96859 0.90489 0.0
C705 C 0.55303 0.9222 0.94892 0.0
C706 C 0.53817 0.91699 0.9836 0.0
C707 C 0.57042 0.91192 0.94459 0.0
C708 C 0.58699 0.91742 0.9109 0.0
C709 C 0.59438 0.93583 0.91948 0.0
C710 C 0.60985 0.941 0.88724 0.0
C711 C 0.61816 0.92785 0.84647 0.0
C712 C 0.61104 0.90949 0.83797 0.0
C713 C 0.59555 0.90425 0.87007 0.0
H714 H 0.63014 0.93189 0.82154 0.0
H715 H 0.47898 0.88062 0.12909 0.0
H716 H 0.69203 0.49314 0.14401 0.0
H717 H 0.66727 0.49592 0.07301 0.0
H718 H 0.62288 0.49261 0.19758 0.0
H719 H 0.64758 0.48955 0.2684 0.0
H720 H 0.61367 0.47041 0.1071 0.0
H721 H 0.63472 0.53436 0.14305 0.0
H722 H 0.65814 0.56057 0.15287 0.0
H723 H 0.6749 0.54665 0.98028 0.0
H724 H 0.65175 0.5202 0.96962 0.0
H725 H 0.53524 0.49624 0.94212 0.0
H726 H 0.55993 0.4956 0.01441 0.0
H727 H 0.60443 0.49482 0.88848 0.0
H728 H 0.5799 0.49568 0.81592 0.0
H729 H 0.61334 0.51941 0.97976 0.0
H730 H 0.59202 0.45518 0.94524 0.0
H731 H 0.56794 0.42954 0.93624 0.0
H732 H 0.55102 0.44478 0.10817 0.0
H733 H 0.57483 0.47068 0.11797 0.0
C734 C 0.67701 0.49335 0.1565 0.0
C735 C 0.67181 0.49112 0.21194 0.0
C736 C 0.66282 0.49492 0.11579 0.0
C737 C 0.6431 0.4946 0.12977 0.0
C738 C 0.63793 0.49281 0.18546 0.0
C739 C 0.65209 0.49108 0.226 0.0
C740 C 0.62785 0.49534 0.08608 0.0
C741 C 0.61347 0.48132 0.07989 0.0
C742 C 0.62771 0.50928 0.04944 0.0
C743 C 0.64163 0.52518 0.05571 0.0
C744 C 0.64351 0.5368 0.10731 0.0
C745 C 0.65671 0.55172 0.11301 0.0
C746 C 0.66803 0.55524 0.06728 0.0
C747 C 0.66614 0.54389 0.0157 0.0
C748 C 0.65296 0.52894 0.00979 0.0
C749 C 0.55026 0.49586 0.92956 0.0
C750 C 0.55547 0.49595 0.87284 0.0
C751 C 0.5644 0.49544 0.97109 0.0
C752 C 0.58409 0.49501 0.95697 0.0
C753 C 0.58935 0.49515 0.90051 0.0
C754 C 0.57524 0.49555 0.85894 0.0
C755 C 0.59922 0.49452 1.00101 0.0
C756 C 0.61356 0.50856 0.00714 0.0
C757 C 0.59927 0.48066 0.03781 0.0
C758 C 0.58509 0.46498 0.03217 0.0
C759 C 0.58308 0.45314 0.98101 0.0
C760 C 0.56949 0.43855 0.97578 0.0
C761 C 0.55792 0.43557 0.02156 0.0
C762 C 0.55997 0.44713 0.07273 0.0
C763 C 0.57352 0.46175 0.07816 0.0
H764 H 0.5474 0.42427 0.01742 0.0
H765 H 0.67825 0.5668 0.07177 0.0
H766 H 0.01349 0.64237 0.25635 0.0
H767 H 0.0085 0.61659 0.18108 0.0
H768 H 0.96076 0.64594 0.11867 0.0
H769 H 0.96623 0.67223 0.19281 0.0
H770 H 0.98165 0.59218 0.14164 0.0
H771 H 0.96289 0.63985 0.97543 0.0
H772 H 0.9667 0.67285 0.95917 0.0
H773 H 0.01793 0.67797 0.06074 0.0
H774 H 0.01455 0.64496 0.07693 0.0
H775 H 0.97229 0.53157 0.8836 0.0
H776 H 0.9648 0.5561 0.96091 0.0
H777 H 0.01612 0.58653 0.92352 0.0
H778 H 0.02327 0.5625 0.8452 0.0
H779 H 0.98878 0.61022 0.95001 0.0
H780 H 0.01395 0.55706 0.03025 0.0
H781 H 0.01421 0.52388 0.04604 0.0
H782 H 0.95746 0.52949 0.11789 0.0
H783 H 0.95678 0.56266 0.10185 0.0
C784 C 1.00181 0.64328 0.2269 0.0
C785 C 0.99051 0.65951 0.22989 0.0
C786 C 0.99885 0.62843 0.18417 0.0
C787 C 0.98449 0.62945 0.14354 0.0
C788 C 0.97214 0.64498 0.14903 0.0
C789 C 0.97518 0.65993 0.19172 0.0
C790 C 0.98392 0.61519 0.09283 0.0
C791 C 0.98297 0.59612 0.09968 0.0
C792 C 0.98596 0.62027 0.03805 0.0
C793 C 0.98831 0.64004 0.02793 0.0
C794 C 0.97498 0.64803 0.99413 0.0
C795 C 0.97707 0.66672 0.98494 0.0
C796 C 0.9925 0.67752 0.00909 0.0
C797 C 0.00594 0.66961 0.04224 0.0
C798 C 1.00394 0.65092 0.05145 0.0
C799 C 0.98188 0.54358 0.89158 0.0
C800 C 0.99844 0.54503 0.85842 0.0
C801 C 0.97761 0.55756 0.93593 0.0
C802 C 0.99005 0.57305 0.9487 0.0
C803 C 0.00627 0.57476 0.91455 0.0
C804 C 0.01038 0.56095 0.86979 0.0
C805 C 0.9868 0.58718 0.99878 0.0
C806 C 0.98702 0.60623 0.9918 0.0
C807 C 0.98466 0.58207 0.05354 0.0
C808 C 0.98523 0.56226 0.06433 0.0
C809 C 1.0015 0.55119 0.04919 0.0
C810 C 1.00172 0.53239 0.05818 0.0
C811 C 0.98583 0.52457 0.08278 0.0
C812 C 0.96973 0.53556 0.09873 0.0
C813 C 0.96943 0.55436 0.08974 0.0
H814 H 0.98601 0.51 0.08959 0.0
H815 H 0.99408 0.69199 0.00199 0.0
H816 H 0.10846 0.19346 0.35752 0.0
H817 H 0.09269 0.1689 0.40325 0.0
H818 H 0.03708 0.1924 0.37458 0.0
H819 H 0.05268 0.21688 0.32875 0.0
H820 H 0.03934 0.18229 0.47878 0.0
H821 H 0.05322 0.15414 0.28951 0.0
H822 H 0.07403 0.1449 0.2073 0.0
H823 H 0.10889 0.11224 0.30521 0.0
H824 H 0.0884 0.12149 0.38824 0.0
H825 H 0.9803 0.10304 0.51548 0.0
H826 H 0.99654 0.12803 0.47196 0.0
H827 H 0.0519 0.10672 0.51411 0.0
H828 H 0.03579 0.08191 0.55779 0.0
H829 H 0.04998 0.11559 0.4041 0.0
H830 H 0.03646 0.14303 0.59233 0.0
H831 H 0.01613 0.15196 0.67565 0.0
H832 H 0.98131 0.18589 0.58158 0.0
H833 H 1.00127 0.17689 0.49731 0.0
C834 C 0.09288 0.19339 0.36103 0.0
C835 C 0.08183 0.20711 0.3395 0.0
C836 C 0.08389 0.17936 0.38714 0.0
C837 C 0.0637 0.17871 0.39169 0.0
C838 C 0.05268 0.19267 0.37161 0.0
C839 C 0.06164 0.2067 0.34564 0.0
C840 C 0.05396 0.16326 0.41619 0.0
C841 C 0.04147 0.16772 0.462 0.0
C842 C 0.05709 0.14423 0.39506 0.0
C843 C 0.06938 0.13862 0.34516 0.0
C844 C 0.0654 0.14509 0.29359 0.0
C845 C 0.07712 0.13984 0.24684 0.0
C846 C 0.09279 0.12801 0.25106 0.0
C847 C 0.09675 0.12139 0.30202 0.0
C848 C 0.08508 0.12662 0.34891 0.0
C849 C 0.99592 0.10368 0.51502 0.0
C850 C 0.00683 0.09072 0.54026 0.0
C851 C 0.00516 0.11794 0.49048 0.0
C852 C 0.0254 0.11925 0.4903 0.0
C853 C 0.03628 0.10596 0.51399 0.0
C854 C 0.02708 0.09189 0.53913 0.0
C855 C 0.0353 0.13466 0.4663 0.0
C856 C 0.04783 0.13017 0.42072 0.0
C857 C 0.03227 0.15364 0.48776 0.0
C858 C 0.02023 0.15911 0.53831 0.0
C859 C 0.02436 0.15224 0.58923 0.0
C860 C 0.01292 0.15735 0.63667 0.0
C861 C 0.9974 0.16945 0.63388 0.0
C862 C 0.99332 0.1765 0.58364 0.0
C863 C 0.00469 0.1714 0.53602 0.0
H864 H 0.98858 0.17341 0.67068 0.0
H865 H 0.10184 0.12396 0.21481 0.0
H866 H 0.31948 0.03139 0.28679 0.0
H867 H 0.34261 0.01611 0.34127 0.0
H868 H 0.29842 0.00819 0.46305 0.0
H869 H 0.27559 0.02505 0.41149 0.0
H870 H 0.32903 0.01423 0.51557 0.0
H871 H 0.31213 0.97311 0.35619 0.0
H872 H 0.30606 0.96123 0.25673 0.0
H873 H 0.36636 0.96637 0.22019 0.0
H874 H 0.37272 0.97904 0.31892 0.0
H875 H 0.40939 0.93683 0.52623 0.0
H876 H 0.37821 0.94618 0.48986 0.0
H877 H 0.39246 0.00423 0.54409 0.0
H878 H 0.42336 0.99493 0.57963 0.0
H879 H 0.37052 0.96591 0.41051 0.0
H880 H 0.35165 0.02945 0.58556 0.0
H881 H 0.35107 0.03615 0.6888 0.0
H882 H 0.35516 0.97744 0.70188 0.0
H883 H 0.35488 0.97024 0.59875 0.0
C884 C 0.31476 0.02698 0.32607 0.0
C885 C 0.29554 0.0293 0.34431 0.0
C886 C 0.32795 0.01786 0.35663 0.0
C887 C 0.32208 0.01038 0.40516 0.0
C888 C 0.30322 0.01358 0.42525 0.0
C889 C 0.29013 0.0231 0.3954 0.0
C890 C 0.33563 0.99913 0.43449 0.0
C891 C 0.33811 0.00366 0.4927 0.0
C892 C 0.34663 0.9845 0.40506 0.0
C893 C 0.34287 0.97721 0.34511 0.0
C894 C 0.32407 0.97197 0.32685 0.0
C895 C 0.32058 0.96513 0.27052 0.0
C896 C 0.3358 0.96318 0.23208 0.0
C897 C 0.35456 0.96806 0.24991 0.0
C898 C 0.35811 0.97512 0.30606 0.0
C899 C 0.40568 0.95153 0.53041 0.0
C900 C 0.41843 0.96519 0.55656 0.0
C901 C 0.38794 0.95685 0.50996 0.0
C902 C 0.38284 0.97587 0.51547 0.0
C903 C 0.3958 0.98945 0.54092 0.0
C904 C 0.41343 0.98416 0.56112 0.0
C905 C 0.36479 0.98196 0.49082 0.0
C906 C 0.36135 0.97638 0.43351 0.0
C907 C 0.35231 0.99497 0.52165 0.0
C908 C 0.35338 0.9993 0.58399 0.0
C909 C 0.35232 0.01792 0.6103 0.0
C910 C 0.35203 0.02181 0.6689 0.0
C911 C 0.35304 0.00723 0.70185 0.0
C912 C 0.35438 0.98872 0.67628 0.0
C913 C 0.35442 0.98473 0.61768 0.0
H914 H 0.35282 0.01027 0.74721 0.0
H915 H 0.33308 0.9578 0.18852 0.0
H916 H 0.49918 0.29326 0.48793 0.0
H917 H 0.51613 0.32039 0.53757 0.0
H918 H 0.46477 0.33564 0.63395 0.0
H919 H 0.4479 0.30825 0.58553 0.0
H920 H 0.50615 0.35556 0.53035 0.0
H921 H 0.47677 0.36131 0.75997 0.0
H922 H 0.46845 0.34064 0.83077 0.0
H923 H 0.50605 0.29831 0.74994 0.0
H924 H 0.51494 0.31885 0.67928 0.0
H925 H 0.48971 0.44064 0.74616 0.0
H926 H 0.48764 0.40718 0.7178 0.0
H927 H 0.54278 0.40843 0.63466 0.0
H928 H 0.54496 0.4424 0.66284 0.0
H929 H 0.50766 0.37753 0.7349 0.0
H930 H 0.54085 0.37606 0.51587 0.0
H931 H 0.54727 0.3972 0.4447 0.0
H932 H 0.49865 0.43075 0.50384 0.0
H933 H 0.49183 0.40968 0.57483 0.0
C934 C 0.49165 0.30209 0.52081 0.0
C935 C 0.47216 0.29866 0.53269 0.0
C936 C 0.50134 0.31764 0.54892 0.0
C937 C 0.49178 0.32998 0.5897 0.0
C938 C 0.47255 0.32616 0.60326 0.0
C939 C 0.46285 0.31063 0.57509 0.0
C940 C 0.50098 0.34797 0.6131 0.0
C941 C 0.50695 0.36017 0.57519 0.0
C942 C 0.50167 0.35412 0.67155 0.0
C943 C 0.4964 0.3416 0.71391 0.0
C944 C 0.48335 0.34763 0.75737 0.0
C945 C 0.47853 0.33593 0.79751 0.0
C946 C 0.48666 0.31815 0.79471 0.0
C947 C 0.4997 0.31206 0.7519 0.0
C948 C 0.50462 0.32372 0.71173 0.0
C949 C 0.50165 0.43388 0.72279 0.0
C950 C 0.51755 0.44427 0.7069 0.0
C951 C 0.50041 0.41464 0.70656 0.0
C952 C 0.51498 0.40528 0.67388 0.0
C953 C 0.53126 0.41543 0.65941 0.0
C954 C 0.53248 0.43482 0.67548 0.0
C955 C 0.51209 0.38522 0.65206 0.0
C956 C 0.50732 0.37266 0.69018 0.0
C957 C 0.51217 0.37878 0.59381 0.0
C958 C 0.51602 0.39146 0.55107 0.0
C959 C 0.53153 0.38794 0.51357 0.0
C960 C 0.53524 0.39991 0.47329 0.0
C961 C 0.52343 0.41536 0.46992 0.0
C962 C 0.50784 0.41883 0.50665 0.0
C963 C 0.50406 0.40689 0.54694 0.0
H964 H 0.52633 0.42461 0.43874 0.0
H965 H 0.48287 0.30911 0.82573 0.0
H966 H 0.20782 0.43363 0.17122 0.0
H967 H 0.17591 0.43585 0.21302 0.0
H968 H 0.20136 0.44661 0.37817 0.0
H969 H 0.23333 0.44218 0.33729 0.0
H970 H 0.16835 0.43209 0.38898 0.0
H971 H 0.1913 0.48246 0.28824 0.0
H972 H 0.20268 0.49597 0.20464 0.0
H973 H 0.15016 0.47835 0.1178 0.0
H974 H 0.1386 0.46449 0.20077 0.0
H975 H 0.11355 0.50458 0.53666 0.0
H976 H 0.13805 0.4855 0.48396 0.0
H977 H 0.09842 0.47274 0.34549 0.0
H978 H 0.07397 0.49237 0.39728 0.0
H979 H 0.13359 0.48294 0.31152 0.0
H980 H 0.10839 0.4422 0.43479 0.0
H981 H 0.09904 0.43154 0.52455 0.0
H982 H 0.15806 0.43489 0.57874 0.0
H983 H 0.1678 0.4459 0.48989 0.0
C984 C 0.20679 0.43558 0.21658 0.0
C985 C 0.22339 0.43839 0.25067 0.0
C986 C 0.18839 0.43716 0.24044 0.0
C987 C 0.18621 0.44236 0.29852 0.0
C988 C 0.20261 0.44302 0.33306 0.0
C989 C 0.22098 0.44078 0.30942 0.0
C990 C 0.16753 0.44953 0.32272 0.0
C991 C 0.16078 0.44328 0.37231 0.0
C992 C 0.15732 0.46382 0.30009 0.0
C993 C 0.16421 0.47222 0.25035 0.0
C994 C 0.18224 0.48137 0.25118 0.0
C995 C 0.18872 0.48908 0.20393 0.0
C996 C 0.17718 0.48794 0.15585 0.0
C997 C 0.15911 0.47915 0.15501 0.0
C998 C 0.15259 0.47136 0.2021 0.0
C999 C 0.11011 0.49794 0.4947 0.0
C1000 C 0.09184 0.50009 0.47102 0.0
C1001 C 0.12403 0.48679 0.465 0.0
C1002 C 0.11992 0.47744 0.41126 0.0
C1003 C 0.1018 0.4797 0.38716 0.0
C1004 C 0.08785 0.49088 0.41684 0.0
C1005 C 0.13496 0.46612 0.37924 0.0
C1006 C 0.14093 0.47155 0.32791 0.0
C1007 C 0.14475 0.45152 0.40142 0.0
C1008 C 0.13884 0.44488 0.45521 0.0
C1009 C 0.1194 0.44073 0.46576 0.0
C1010 C 0.11401 0.43461 0.51655 0.0
C1011 C 0.12794 0.43248 0.55717 0.0
C1012 C 0.14728 0.43649 0.54715 0.0
C1013 C 0.15274 0.44266 0.49651 0.0
H1014 H 0.12373 0.42775 0.59645 0.0
H1015 H 0.18222 0.4939 0.11932 0.0
H1016 H 0.01877 0.77605 0.13976 0.0
H1017 H 0.01991 0.80246 0.08544 0.0
H1018 H 0.03245 0.83998 0.23658 0.0
H1019 H 0.0303 0.81381 0.29154 0.0
H1020 H 0.00741 0.85551 0.17408 0.0
H1021 H 0.06818 0.8239 0.14094 0.0
H1022 H 0.08917 0.7968 0.11275 0.0
H1023 H 0.06441 0.79008 0.94731 0.0
H1024 H 0.04309 0.817 0.97476 0.0
H1025 H 0.05025 0.93135 0.0533 0.0
H1026 H 0.04471 0.9044 0.10429 0.0
H1027 H 0.02436 0.87188 0.95166 0.0
H1028 H 0.02981 0.89878 0.90052 0.0
H1029 H 0.05189 0.85347 0.01127 0.0
H1030 H 0.99254 0.88642 0.04306 0.0
H1031 H 0.97213 0.91393 0.07095 0.0
H1032 H 0.99459 0.91851 0.23894 0.0
H1033 H 0.01543 0.89121 0.21177 0.0
C1034 C 0.02157 0.78994 0.16156 0.0
C1035 C 0.02465 0.79277 0.21998 0.0
C1036 C 0.02239 0.80501 0.13035 0.0
C1037 C 0.02659 0.82316 0.15679 0.0
C1038 C 0.02931 0.82609 0.21521 0.0
C1039 C 0.02832 0.81106 0.24648 0.0
C1040 C 0.02845 0.83908 0.12356 0.0
C1041 C 0.0173 0.85514 0.13889 0.0
C1042 C 0.041 0.83844 0.07676 0.0
C1043 C 0.05391 0.82234 0.06008 0.0
C1044 C 0.06712 0.81656 0.09867 0.0
C1045 C 0.07909 0.80125 0.08281 0.0
C1046 C 0.07809 0.79169 0.02832 0.0
C1047 C 0.06516 0.79747 0.98952 0.0
C1048 C 0.05314 0.81276 0.00519 0.0
C1049 C 0.04462 0.91843 0.03072 0.0
C1050 C 0.04043 0.91711 0.97307 0.0
C1051 C 0.04136 0.90312 0.05986 0.0
C1052 C 0.03404 0.88623 0.03168 0.0
C1053 C 0.02998 0.88483 0.97407 0.0
C1054 C 0.03299 0.9002 0.94506 0.0
C1055 C 0.03103 0.86989 0.06223 0.0
C1056 C 0.04196 0.85378 0.04635 0.0
C1057 C 0.01833 0.87052 0.10856 0.0
C1058 C 0.00571 0.88687 0.1252 0.0
C1059 C 0.99327 0.89339 0.08582 0.0
C1060 C 0.9816 0.90893 0.10152 0.0
C1061 C 0.9821 0.91799 0.15666 0.0
C1062 C 0.99424 0.91149 0.19623 0.0
C1063 C 0.00598 0.89598 0.1807 0.0
H1064 H 0.97304 0.93002 0.16875 0.0
H1065 H 0.08736 0.77984 0.01613 0.0
H1066 H 0.75478 0.0567 0.17104 0.0
H1067 H 0.72556 0.06338 0.12082 0.0
H1068 H 0.6947 0.07327 0.27799 0.0
H1069 H 0.72355 0.06571 0.32819 0.0
H1070 H 0.67632 0.04863 0.20689 0.0
H1071 H 0.70431 0.10899 0.19743 0.0
H1072 H 0.72968 0.13156 0.17848 0.0
H1073 H 0.72971 0.10883 0.00395 0.0
H1074 H 0.70453 0.08594 0.02196 0.0
H1075 H 0.58931 0.06984 0.07649 0.0
H1076 H 0.61851 0.07455 0.13403 0.0
H1077 H 0.65354 0.05952 0.98662 0.0
H1078 H 0.62442 0.05515 0.92862 0.0
H1079 H 0.66878 0.08959 0.05751 0.0
H1080 H 0.6438 0.02751 0.06872 0.0
H1081 H 0.61902 0.00422 0.0865 0.0
H1082 H 0.61408 0.02988 0.25771 0.0
H1083 H 0.63865 0.05352 0.24066 0.0
C1084 C 0.74183 0.06051 0.19497 0.0
C1085 C 0.74146 0.06051 0.25356 0.0
C1086 C 0.72519 0.06454 0.16626 0.0
C1087 C 0.70796 0.06889 0.1957 0.0
C1088 C 0.70785 0.06996 0.25449 0.0
C1089 C 0.72444 0.0658 0.28317 0.0
C1090 C 0.68963 0.07015 0.16482 0.0
C1091 C 0.67453 0.05793 0.17517 0.0
C1092 C 0.68752 0.08185 0.12223 0.0
C1093 C 0.70262 0.09565 0.11116 0.0
C1094 C 0.70982 0.10871 0.15508 0.0
C1095 C 0.72415 0.12158 0.14449 0.0
C1096 C 0.73132 0.12161 0.09007 0.0
C1097 C 0.72415 0.10879 0.04609 0.0
C1098 C 0.70982 0.09588 0.05645 0.0
C1099 C 0.60325 0.06782 0.05624 0.0
C1100 C 0.60461 0.06199 0.99818 0.0
C1101 C 0.61988 0.07044 0.08915 0.0
C1102 C 0.63812 0.06723 0.06453 0.0
C1103 C 0.63957 0.06206 0.00632 0.0
C1104 C 0.62294 0.05938 0.97341 0.0
C1105 C 0.65563 0.06813 0.09987 0.0
C1106 C 0.67054 0.0806 0.09003 0.0
C1107 C 0.65766 0.05662 0.14291 0.0
C1108 C 0.64288 0.04242 0.15322 0.0
C1109 C 0.6373 0.0283 0.11001 0.0
C1110 C 0.62332 0.01501 0.11998 0.0
C1111 C 0.61493 0.01561 0.17315 0.0
C1112 C 0.62056 0.02947 0.2165 0.0
C1113 C 0.63451 0.04281 0.20672 0.0
H1114 H 0.60412 0.0053 0.1808 0.0
H1115 H 0.74242 0.13158 0.08196 0.0
H1116 H 0.51341 0.71165 0.91309 0.0
H1117 H 0.5114 0.68231 0.84911 0.0
H1118 H 0.55862 0.66015 0.93631 0.0
H1119 H 0.56114 0.68963 0.99902 0.0
H1120 H 0.55918 0.6467 0.82542 0.0
H1121 H 0.51287 0.65376 0.97757 0.0
H1122 H 0.48654 0.66965 0.03375 0.0
H1123 H 0.45016 0.66437 0.88768 0.0
H1124 H 0.4764 0.64867 0.83046 0.0
H1125 H 0.53952 0.54961 0.81967 0.0
H1126 H 0.54774 0.58295 0.8327 0.0
H1127 H 0.49343 0.59502 0.75716 0.0
H1128 H 0.48466 0.56172 0.74888 0.0
H1129 H 0.49601 0.61562 0.84731 0.0
H1130 H 0.54293 0.60304 0.69832 0.0
H1131 H 0.57057 0.58742 0.64767 0.0
H1132 H 0.60659 0.60159 0.79223 0.0
H1133 H 0.57932 0.61749 0.84382 0.0
C1134 C 0.52378 0.70077 0.91742 0.0
C1135 C 0.5372 0.70279 0.96171 0.0
C1136 C 0.52254 0.68397 0.88105 0.0
C1137 C 0.53459 0.66893 0.88877 0.0
C1138 C 0.5491 0.67153 0.92979 0.0
C1139 C 0.5504 0.68832 0.96595 0.0
C1140 C 0.53055 0.64983 0.85979 0.0
C1141 C 0.54537 0.63983 0.82982 0.0
C1142 C 0.51248 0.64099 0.86522 0.0
C1143 C 0.49665 0.65027 0.89964 0.0
C1144 C 0.49929 0.65611 0.95738 0.0
C1145 C 0.48439 0.66506 0.9894 0.0
C1146 C 0.46671 0.66807 0.96426 0.0
C1147 C 0.46388 0.66207 0.90706 0.0
C1148 C 0.47876 0.65315 0.87482 0.0
C1149 C 0.52961 0.55943 0.80479 0.0
C1150 C 0.5115 0.55335 0.78352 0.0
C1151 C 0.53437 0.57849 0.81163 0.0
C1152 C 0.52134 0.59168 0.79536 0.0
C1153 C 0.50374 0.58523 0.77031 0.0
C1154 C 0.49872 0.56625 0.76537 0.0
C1155 C 0.52465 0.61214 0.81207 0.0
C1156 C 0.50969 0.62245 0.84072 0.0
C1157 C 0.54269 0.6211 0.80586 0.0
C1158 C 0.55904 0.61139 0.77497 0.0
C1159 C 0.55672 0.60275 0.71939 0.0
C1160 C 0.57231 0.59385 0.6905 0.0
C1161 C 0.59024 0.59338 0.71672 0.0
C1162 C 0.59269 0.60194 0.77193 0.0
C1163 C 0.5772 0.61098 0.80094 0.0
H1164 H 0.60226 0.58645 0.69417 0.0
H1165 H 0.45519 0.675 0.98912 0.0
H1166 H 0.81588 0.43312 0.31429 0.0
H1167 H 0.84722 0.42918 0.26823 0.0
H1168 H 0.81919 0.42079 0.10634 0.0
H1169 H 0.7877 0.42377 0.15222 0.0
H1170 H 0.85144 0.40007 0.10557 0.0
H1171 H 0.8332 0.46463 0.1686 0.0
H1172 H 0.82402 0.49094 0.23979 0.0
H1173 H 0.87663 0.48493 0.32979 0.0
H1174 H 0.88597 0.45834 0.25961 0.0
H1175 H 0.91394 0.43784 0.91729 0.0
H1176 H 0.88771 0.42984 0.97816 0.0
H1177 H 0.9246 0.44256 0.12316 0.0
H1178 H 0.95083 0.45083 0.06237 0.0
H1179 H 0.89101 0.45812 0.14305 0.0
H1180 H 0.91175 0.39682 0.07239 0.0
H1181 H 0.92131 0.37079 1.00088 0.0
H1182 H 0.86501 0.37025 0.92618 0.0
H1183 H 0.85518 0.39647 0.99675 0.0
C1184 C 0.8163 0.42973 0.269 0.0
C1185 C 0.79927 0.42902 0.23681 0.0
C1186 C 0.83427 0.42768 0.24271 0.0
C1187 C 0.83553 0.42517 0.18385 0.0
C1188 C 0.81854 0.42288 0.15183 0.0
C1189 C 0.80056 0.42475 0.17808 0.0
C1190 C 0.85427 0.42707 0.15533 0.0
C1191 C 0.8601 0.41275 0.11357 0.0
C1192 C 0.86582 0.44343 0.16698 0.0
C1193 C 0.86019 0.45939 0.20917 0.0
C1194 C 0.84274 0.46882 0.20381 0.0
C1195 C 0.83751 0.48378 0.24396 0.0
C1196 C 0.84973 0.48957 0.2893 0.0
C1197 C 0.86717 0.48039 0.29469 0.0
C1198 C 0.87244 0.46538 0.25476 0.0
C1199 C 0.91651 0.43873 0.96207 0.0
C1200 C 0.93441 0.44497 0.98511 0.0
C1201 C 0.90155 0.43408 0.99682 0.0
C1202 C 0.90428 0.43531 0.05518 0.0
C1203 C 0.92218 0.44145 0.07825 0.0
C1204 C 0.93712 0.44625 0.04354 0.0
C1205 C 0.88805 0.43126 0.09225 0.0
C1206 C 0.88264 0.44523 0.13562 0.0
C1207 C 0.87696 0.41455 0.08217 0.0
C1208 C 0.88277 0.39871 0.0397 0.0
C1209 C 0.90145 0.39124 0.04049 0.0
C1210 C 0.90691 0.37644 1.00015 0.0
C1211 C 0.89379 0.36889 0.95896 0.0
C1212 C 0.87516 0.37611 0.95811 0.0
C1213 C 0.86963 0.39093 0.99832 0.0
H1214 H 0.89805 0.35743 0.92777 0.0
H1215 H 0.84575 0.50125 0.32007 0.0
H1216 H 0.07807 0.21211 0.93352 0.0
H1217 H 0.0693 0.18124 0.88305 0.0
H1218 H 0.05462 0.1618 0.04033 0.0
H1219 H 0.06318 0.19244 0.09072 0.0
H1220 H 0.08128 0.13877 0.97075 0.0
H1221 H 0.01961 0.16964 0.95842 0.0
H1222 H 0.9985 0.19444 0.93186 0.0
H1223 H 0.01491 0.1806 0.75899 0.0
H1224 H 0.03628 0.15581 0.78458 0.0
H1225 H 0.03951 0.04977 0.89305 0.0
H1226 H 0.04759 0.08193 0.93287 0.0
H1227 H 0.04251 0.09953 0.76813 0.0
H1228 H 0.03317 0.06753 0.7294 0.0
H1229 H 0.02756 0.12457 0.83513 0.0
H1230 H 0.08795 0.09401 0.83998 0.0
H1231 H 0.11113 0.07 0.8604 0.0
H1232 H 0.1009 0.08411 0.03728 0.0
H1233 H 0.07746 0.10805 0.01791 0.0
C1234 C 0.07271 0.2013 0.95712 0.0
C1235 C 0.07118 0.20474 0.01602 0.0
C1236 C 0.06769 0.18373 0.9283 0.0
C1237 C 0.06133 0.16927 0.95804 0.0
C1238 C 0.05947 0.17279 0.01664 0.0
C1239 C 0.0642 0.19037 0.04529 0.0
C1240 C 0.05755 0.15013 0.92889 0.0
C1241 C 0.06943 0.13556 0.94144 0.0
C1242 C 0.04262 0.14618 0.88893 0.0
C1243 C 0.02972 0.16102 0.87353 0.0
C1244 C 0.01885 0.17199 0.91481 0.0
C1245 C 0.00679 0.18601 0.8999 0.0
C1246 C 0.00539 0.18912 0.84378 0.0
C1247 C 0.01601 0.17817 0.80242 0.0
C1248 C 0.02808 0.16413 0.8171 0.0
C1249 C 0.04027 0.06055 0.86553 0.0
C1250 C 0.0358 0.05632 0.80836 0.0
C1251 C 0.04501 0.07892 0.88811 0.0
C1252 C 0.0461 0.09325 0.85346 0.0
C1253 C 0.04178 0.08884 0.79595 0.0
C1254 C 0.0365 0.07057 0.77374 0.0
C1255 C 0.05114 0.11288 0.87751 0.0
C1256 C 0.03954 0.12762 0.86398 0.0
C1257 C 0.0667 0.11709 0.91554 0.0
C1258 C 0.08082 0.10272 0.92742 0.0
C1259 C 0.09055 0.09191 0.88321 0.0
C1260 C 0.10374 0.07832 0.89461 0.0
C1261 C 0.10745 0.0755 0.95009 0.0
C1262 C 0.098 0.0863 0.99432 0.0
C1263 C 0.08477 0.09989 0.98316 0.0
H1264 H 0.11768 0.06498 0.95882 0.0
H1265 H 0.99606 0.19998 0.83232 0.0
H1266 H 0.3118 0.98974 0.01313 0.0
H1267 H 0.34404 0.98671 0.97163 0.0
H1268 H 0.34329 0.04479 0.94561 0.0
H1269 H 0.31136 0.04815 0.98834 0.0
H1270 H 0.35874 0.02391 0.85537 0.0
H1271 H 0.36857 0.03196 0.05242 0.0
H1272 H 0.36427 0.02615 0.15064 0.0
H1273 H 0.38559 0.97026 0.10879 0.0
H1274 H 0.38978 0.97566 0.00992 0.0
H1275 H 0.46069 0.03738 0.82535 0.0
H1276 H 0.42796 0.03927 0.86439 0.0
H1277 H 0.42611 0.97923 0.85915 0.0
H1278 H 0.4587 0.97716 0.81901 0.0
H1279 H 0.41221 0.00087 0.96477 0.0
H1280 H 0.40244 0.99485 0.76413 0.0
H1281 H 0.40879 0.00365 0.67024 0.0
H1282 H 0.3889 0.05939 0.72429 0.0
H1283 H 0.38259 0.05094 0.81917 0.0
C1284 C 0.31845 0.00194 0.99888 0.0
C1285 C 0.30874 0.01922 0.00453 0.0
C1286 C 0.33695 0.00015 0.97488 0.0
C1287 C 0.34629 0.01556 0.95577 0.0
C1288 C 0.33644 0.03265 0.95971 0.0
C1289 C 0.31802 0.03449 0.98401 0.0
C1290 C 0.36649 0.01403 0.93328 0.0
C1291 C 0.37041 0.01901 0.87962 0.0
C1292 C 0.38188 0.00759 0.96447 0.0
C1293 C 0.37928 0.00414 0.02364 0.0
C1294 C 0.37217 0.01836 0.06401 0.0
C1295 C 0.36979 0.01516 0.1198 0.0
C1296 C 0.37462 0.99784 0.13589 0.0
C1297 C 0.38183 0.98367 0.09619 0.0
C1298 C 0.38423 0.98679 0.04026 0.0
C1299 C 0.45338 0.02456 0.83263 0.0
C1300 C 0.4624 0.00711 0.81895 0.0
C1301 C 0.43463 0.02567 0.85494 0.0
C1302 C 0.42453 0.0094 0.86483 0.0
C1303 C 0.43361 0.99199 0.85215 0.0
C1304 C 0.45224 0.99083 0.82893 0.0
C1305 C 0.40432 0.01055 0.88688 0.0
C1306 C 0.40045 0.00559 0.94049 0.0
C1307 C 0.38906 0.01732 0.85614 0.0
C1308 C 0.39224 0.02233 0.79886 0.0
C1309 C 0.39955 0.00903 0.75614 0.0
C1310 C 0.40314 0.01395 0.7027 0.0
C1311 C 0.39939 0.0321 0.69124 0.0
C1312 C 0.3919 0.04535 0.73327 0.0
C1313 C 0.38825 0.04049 0.78688 0.0
H1314 H 0.40213 0.03585 0.6497 0.0
H1315 H 0.37287 0.99548 0.17919 0.0
H1316 H 0.43959 0.27087 0.10795 0.0
H1317 H 0.44345 0.29765 0.05461 0.0
H1318 H 0.46983 0.32985 0.19906 0.0
H1319 H 0.46639 0.30319 0.25197 0.0
H1320 H 0.43555 0.34602 0.14695 0.0
H1321 H 0.49801 0.31781 0.10421 0.0
H1322 H 0.51963 0.29213 0.06703 0.0
H1323 H 0.49369 0.29024 0.90399 0.0
H1324 H 0.47169 0.31576 0.94041 0.0
H1325 H 0.46577 0.43041 0.05508 0.0
H1326 H 0.46329 0.40117 0.09627 0.0
H1327 H 0.45819 0.37015 0.93029 0.0
H1328 H 0.46148 0.39939 0.88901 0.0
H1329 H 0.47991 0.35168 0.98764 0.0
H1330 H 0.41883 0.38014 0.02386 0.0
H1331 H 0.39522 0.40448 0.05747 0.0
H1332 H 0.41487 0.40415 0.22695 0.0
H1333 H 0.43899 0.38022 0.19422 0.0
C1334 C 0.4465 0.28357 0.12785 0.0
C1335 C 0.45282 0.28492 0.18393 0.0
C1336 C 0.4487 0.29881 0.09743 0.0
C1337 C 0.45692 0.31567 0.12303 0.0
C1338 C 0.46352 0.31692 0.1786 0.0
C1339 C 0.46166 0.30164 0.20858 0.0
C1340 C 0.45757 0.33249 0.09352 0.0
C1341 C 0.44536 0.34741 0.11245 0.0
C1342 C 0.46982 0.33386 0.04716 0.0
C1343 C 0.48299 0.3185 0.02528 0.0
C1344 C 0.49674 0.31176 0.06061 0.0
C1345 C 0.50911 0.29729 0.03961 0.0
C1346 C 0.50798 0.28952 0.98322 0.0
C1347 C 0.49451 0.29626 0.94767 0.0
C1348 C 0.48209 0.31073 0.96847 0.0
C1349 C 0.46403 0.41734 0.02749 0.0
C1350 C 0.4637 0.41716 0.96892 0.0
C1351 C 0.46253 0.40062 0.05102 0.0
C1352 C 0.46013 0.3834 0.01654 0.0
C1353 C 0.45997 0.38321 0.9579 0.0
C1354 C 0.46183 0.39991 0.93431 0.0
C1355 C 0.4581 0.36562 0.04172 0.0
C1356 C 0.46996 0.35041 0.02189 0.0
C1357 C 0.44519 0.36383 0.08669 0.0
C1358 C 0.43089 0.3785 0.10643 0.0
C1359 C 0.41829 0.38542 0.06821 0.0
C1360 C 0.40481 0.39915 0.08712 0.0
C1361 C 0.40361 0.40593 0.14428 0.0
C1362 C 0.41588 0.39896 0.18265 0.0
C1363 C 0.42948 0.38533 0.16392 0.0
H1364 H 0.39314 0.41653 0.15887 0.0
H1365 H 0.51759 0.27832 0.96704 0.0
H1366 H 0.22644 0.48038 0.93746 0.0
H1367 H 0.19539 0.4836 0.89237 0.0
H1368 H 0.17702 0.52237 0.03396 0.0
H1369 H 0.20852 0.52026 0.07831 0.0
H1370 H 0.15113 0.48993 0.99826 0.0
H1371 H 0.18502 0.54023 0.92426 0.0
H1372 H 0.21185 0.55398 0.87538 0.0
H1373 H 0.20044 0.51548 0.72665 0.0
H1374 H 0.17371 0.50131 0.77494 0.0
H1375 H 0.06051 0.51199 0.89128 0.0
H1376 H 0.09249 0.51309 0.93406 0.0
H1377 H 0.11743 0.49282 0.77286 0.0
H1378 H 0.08546 0.49295 0.72933 0.0
H1379 H 0.14071 0.5163 0.81988 0.0
H1380 H 0.10857 0.46486 0.88782 0.0
H1381 H 0.08314 0.44804 0.9335 0.0
H1382 H 0.09256 0.48397 0.08861 0.0
H1383 H 0.11784 0.5012 0.04363 0.0
C1384 C 0.21615 0.49008 0.95866 0.0
C1385 C 0.22028 0.50007 0.01195 0.0
C1386 C 0.19824 0.49173 0.93282 0.0
C1387 C 0.18387 0.50318 0.95981 0.0
C1388 C 0.18789 0.51338 0.01246 0.0
C1389 C 0.20595 0.51204 0.03792 0.0
C1390 C 0.1644 0.50386 0.93398 0.0
C1391 C 0.14872 0.49595 0.95971 0.0
C1392 C 0.16147 0.51103 0.88255 0.0
C1393 C 0.17749 0.51958 0.85342 0.0
C1394 C 0.18835 0.53458 0.88131 0.0
C1395 C 0.20351 0.54247 0.85367 0.0
C1396 C 0.20788 0.53558 0.79799 0.0
C1397 C 0.19706 0.5208 0.7698 0.0
C1398 C 0.18189 0.51284 0.79727 0.0
C1399 C 0.07282 0.50777 0.86495 0.0
C1400 C 0.07044 0.50226 0.80697 0.0
C1401 C 0.09116 0.50826 0.88958 0.0
C1402 C 0.10755 0.50255 0.85729 0.0
C1403 C 0.10515 0.49725 0.79907 0.0
C1404 C 0.08684 0.49727 0.77412 0.0
C1405 C 0.12711 0.50232 0.88403 0.0
C1406 C 0.14291 0.51027 0.85847 0.0
C1407 C 0.13025 0.49473 0.93503 0.0
C1408 C 0.11494 0.48447 0.96211 0.0
C1409 C 0.1051 0.46929 0.93152 0.0
C1410 C 0.09072 0.45966 0.95732 0.0
C1411 C 0.08619 0.46498 0.01386 0.0
C1412 C 0.09605 0.4799 0.04477 0.0
C1413 C 0.1104 0.4896 0.01915 0.0
H1414 H 0.07506 0.4575 0.03376 0.0
H1415 H 0.21962 0.54172 0.77666 0.0
H1416 H 0.97121 0.80553 0.42943 0.0
H1417 H 0.9689 0.83843 0.46725 0.0
H1418 H 0.981 0.82489 0.63342 0.0
H1419 H 0.98216 0.79164 0.59649 0.0
H1420 H 0.95689 0.85424 0.63871 0.0
H1421 H 0.01733 0.8368 0.54778 0.0
H1422 H 0.03802 0.82325 0.46945 0.0
H1423 H 0.01612 0.86264 0.36593 0.0
H1424 H 0.99508 0.87626 0.44347 0.0
H1425 H 1.00416 0.93785 0.75859 0.0
H1426 H 0.99529 0.9058 0.72103 0.0
H1427 H 0.9822 0.92373 0.56076 0.0
H1428 H 0.9912 0.95591 0.59787 0.0
H1429 H 0.00466 0.89286 0.54958 0.0
H1430 H 0.94604 0.91198 0.64399 0.0
H1431 H 0.926 0.92575 0.72349 0.0
H1432 H 0.94513 0.88369 0.8218 0.0
H1433 H 0.96551 0.86979 0.74305 0.0
C1434 C 0.97264 0.80933 0.47439 0.0
C1435 C 0.97716 0.79582 0.50972 0.0
C1436 C 0.97157 0.82827 0.49585 0.0
C1437 C 0.97536 0.83419 0.55286 0.0
C1438 C 0.97826 0.82067 0.58913 0.0
C1439 C 0.9791 0.80166 0.56781 0.0
C1440 C 0.9782 0.85441 0.57339 0.0
C1441 C 0.96742 0.86266 0.61951 0.0
C1442 C 0.99174 0.8655 0.54776 0.0
C1443 C 0.0045 0.85743 0.50124 0.0
C1444 C 0.01684 0.8425 0.50819 0.0
C1445 C 0.02863 0.83481 0.46396 0.0
C1446 C 0.02837 0.84207 0.41274 0.0
C1447 C 0.0163 0.85703 0.40563 0.0
C1448 C 0.00444 0.86474 0.44971 0.0
C1449 C 0.9993 0.93505 0.71541 0.0
C1450 C 0.99842 0.94948 0.68121 0.0
C1451 C 0.99412 0.9167 0.69411 0.0
C1452 C 0.9879 0.91239 0.63824 0.0
C1453 C 0.98691 0.92676 0.60405 0.0
C1454 C 0.99202 0.94516 0.62538 0.0
C1455 C 0.98335 0.89273 0.61489 0.0
C1456 C 0.99394 0.88453 0.56839 0.0
C1457 C 0.96973 0.88172 0.64036 0.0
C1458 C 0.9574 0.88992 0.68772 0.0
C1459 C 0.94608 0.90574 0.68268 0.0
C1460 C 0.93465 0.91355 0.72757 0.0
C1461 C 0.93432 0.90561 0.77763 0.0
C1462 C 0.94541 0.88982 0.78295 0.0
C1463 C 0.95688 0.88195 0.73816 0.0
H1464 H 0.9254 0.91165 0.81218 0.0
H1465 H 0.03757 0.83615 0.37864 0.0
H1466 H 0.7344 0.99159 0.5713 0.0
H1467 H 0.70193 0.99109 0.60923 0.0
H1468 H 0.67837 0.99178 0.44322 0.0
H1469 H 0.7108 0.99414 0.40572 0.0
H1470 H 0.6587 0.01394 0.50713 0.0
H1471 H 0.67771 0.95146 0.52219 0.0
H1472 H 0.69805 0.92601 0.54824 0.0
H1473 H 0.69193 0.94738 0.72286 0.0
H1474 H 0.67175 0.97312 0.69783 0.0
H1475 H 0.56248 0.99197 0.58986 0.0
H1476 H 0.59473 0.98964 0.54793 0.0
H1477 H 0.6202 0.00346 0.71202 0.0
H1478 H 0.58799 0.00597 0.75435 0.0
H1479 H 0.63802 0.97291 0.64716 0.0
H1480 H 0.61802 0.03582 0.62483 0.0
H1481 H 0.59686 0.05961 0.59249 0.0
H1482 H 0.60351 0.03406 0.42171 0.0
H1483 H 0.62446 0.00993 0.45313 0.0
C1484 C 0.7224 0.99179 0.54259 0.0
C1485 C 0.72556 0.99308 0.48511 0.0
C1486 C 0.70366 0.99115 0.56442 0.0
C1487 C 0.68742 0.99114 0.5293 0.0
C1488 C 0.69051 0.99178 0.47161 0.0
C1489 C 0.70924 0.99283 0.44991 0.0
C1490 C 0.6673 0.99153 0.55299 0.0
C1491 C 0.65417 0.00467 0.53693 0.0
C1492 C 0.66118 0.97974 0.59281 0.0
C1493 C 0.67337 0.96433 0.60807 0.0
C1494 C 0.68083 0.95082 0.56612 0.0
C1495 C 0.69231 0.93633 0.58071 0.0
C1496 C 0.69632 0.93511 0.63715 0.0
C1497 C 0.68883 0.94836 0.67915 0.0
C1498 C 0.67735 0.96289 0.66479 0.0
C1499 C 0.57491 0.99452 0.61715 0.0
C1500 C 0.57255 0.99921 0.6756 0.0
C1501 C 0.59338 0.99323 0.59301 0.0
C1502 C 0.60996 0.99647 0.62669 0.0
C1503 C 0.60767 0.0009 0.68509 0.0
C1504 C 0.5892 0.00241 0.70922 0.0
C1505 C 0.62967 0.99524 0.60111 0.0
C1506 C 0.64266 0.98202 0.61698 0.0
C1507 C 0.63551 0.0066 0.56009 0.0
C1508 C 0.62266 0.02096 0.54142 0.0
C1509 C 0.6148 0.03515 0.58045 0.0
C1510 C 0.60287 0.04872 0.56225 0.0
C1511 C 0.59883 0.04833 0.50507 0.0
C1512 C 0.60665 0.03434 0.46598 0.0
C1513 C 0.61855 0.02072 0.48396 0.0
H1514 H 0.58972 0.05891 0.49092 0.0
H1515 H 0.70521 0.92388 0.64836 0.0
H1516 H 0.5367 0.73219 0.40383 0.0
H1517 H 0.54082 0.70417 0.45018 0.0
H1518 H 0.5761 0.67961 0.31217 0.0
H1519 H 0.57158 0.70728 0.26489 0.0
H1520 H 0.54756 0.65643 0.33337 0.0
H1521 H 0.59554 0.69291 0.44217 0.0
H1522 H 0.60886 0.72037 0.50244 0.0
H1523 H 0.56686 0.7131 0.62961 0.0
H1524 H 0.55309 0.68575 0.56976 0.0
H1525 H 0.56985 0.57452 0.45553 0.0
H1526 H 0.57212 0.60379 0.41456 0.0
H1527 H 0.53815 0.63154 0.55096 0.0
H1528 H 0.53655 0.60258 0.59348 0.0
H1529 H 0.56791 0.65298 0.52979 0.0
H1530 H 0.51872 0.61796 0.41923 0.0
H1531 H 0.50495 0.59068 0.35909 0.0
H1532 H 0.54884 0.59556 0.23528 0.0
H1533 H 0.56302 0.62273 0.29505 0.0
C1534 C 0.54558 0.72093 0.38378 0.0
C1535 C 0.55376 0.72196 0.33059 0.0
C1536 C 0.54803 0.70497 0.41048 0.0
C1537 C 0.55879 0.68979 0.38465 0.0
C1538 C 0.56774 0.69116 0.33287 0.0
C1539 C 0.56531 0.7071 0.30617 0.0
C1540 C 0.55921 0.67187 0.409 0.0
C1541 C 0.55236 0.65562 0.376 0.0
C1542 C 0.56494 0.67091 0.46511 0.0
C1543 C 0.57317 0.68737 0.50121 0.0
C1544 C 0.58903 0.69726 0.48277 0.0
C1545 C 0.59669 0.71279 0.51691 0.0
C1546 C 0.58868 0.71851 0.56976 0.0
C1547 C 0.57303 0.70867 0.58863 0.0
C1548 C 0.56531 0.69314 0.55464 0.0
C1549 C 0.56293 0.58686 0.47699 0.0
C1550 C 0.55295 0.58613 0.52774 0.0
C1551 C 0.56411 0.60356 0.45325 0.0
C1552 C 0.55514 0.61983 0.47939 0.0
C1553 C 0.54516 0.61916 0.52998 0.0
C1554 C 0.54405 0.6025 0.55387 0.0
C1555 C 0.55619 0.63759 0.45419 0.0
C1556 C 0.56326 0.6538 0.48703 0.0
C1557 C 0.5506 0.63856 0.39795 0.0
C1558 C 0.54205 0.62226 0.36188 0.0
C1559 C 0.52552 0.61313 0.37937 0.0
C1560 C 0.51763 0.5977 0.34532 0.0
C1561 C 0.52605 0.59136 0.29347 0.0
C1562 C 0.54235 0.60047 0.27549 0.0
C1563 C 0.55031 0.61589 0.30942 0.0
H1564 H 0.51991 0.57942 0.26716 0.0
H1565 H 0.59464 0.73053 0.59613 0.0
H1566 H 0.82289 0.49557 0.39612 0.0
H1567 H 0.85538 0.49902 0.43462 0.0
H1568 H 0.83187 0.51215 0.60145 0.0
H1569 H 0.79936 0.51059 0.56265 0.0
H1570 H 0.86239 0.53142 0.5977 0.0
H1571 H 0.84803 0.46588 0.53961 0.0
H1572 H 0.83814 0.4391 0.47042 0.0
H1573 H 0.8869 0.44866 0.36711 0.0
H1574 H 0.8969 0.4757 0.43521 0.0
H1575 H 0.9507 0.47668 0.69407 0.0
H1576 H 0.91869 0.47735 0.65149 0.0
H1577 H 0.93191 0.53122 0.60004 0.0
H1578 H 0.9638 0.5308 0.64314 0.0
H1579 H 0.90675 0.47821 0.54635 0.0
H1580 H 0.89098 0.55716 0.60253 0.0
H1581 H 0.89931 0.58328 0.67593 0.0
H1582 H 0.90871 0.54433 0.79411 0.0
H1583 H 0.90018 0.51803 0.72168 0.0
C1584 C 0.82452 0.49979 0.44079 0.0
C1585 C 0.80824 0.50264 0.47604 0.0
C1586 C 0.84324 0.5014 0.46303 0.0
C1587 C 0.84624 0.50526 0.52136 0.0
C1588 C 0.83008 0.50894 0.55638 0.0
C1589 C 0.81137 0.50779 0.53405 0.0
C1590 C 0.86602 0.50482 0.54631 0.0
C1591 C 0.87206 0.51978 0.58622 0.0
C1592 C 0.87873 0.48956 0.53223 0.0
C1593 C 0.87313 0.47289 0.49231 0.0
C1594 C 0.85662 0.46228 0.50207 0.0
C1595 C 0.85097 0.44709 0.463 0.0
C1596 C 0.86185 0.44223 0.41429 0.0
C1597 C 0.87847 0.45246 0.40479 0.0
C1598 C 0.88414 0.46772 0.44362 0.0
C1599 C 0.9468 0.48872 0.67391 0.0
C1600 C 0.95988 0.50373 0.67245 0.0
C1601 C 0.92849 0.48904 0.64928 0.0
C1602 C 0.92274 0.50439 0.62282 0.0
C1603 C 0.93582 0.51932 0.62086 0.0
C1604 C 0.95413 0.51903 0.64552 0.0
C1605 C 0.90305 0.50482 0.59756 0.0
C1606 C 0.89707 0.48986 0.55759 0.0
C1607 C 0.89024 0.51989 0.61237 0.0
C1608 C 0.89514 0.53563 0.65648 0.0
C1609 C 0.89476 0.55419 0.64424 0.0
C1610 C 0.89952 0.56902 0.68567 0.0
C1611 C 0.9046 0.56546 0.73959 0.0
C1612 C 0.90484 0.54707 0.75227 0.0
C1613 C 0.90007 0.53219 0.71103 0.0
H1614 H 0.9083 0.57696 0.77157 0.0
H1615 H 0.85741 0.43051 0.38398 0.0
loop_
_geom_bond_atom_site_label_1
_geom_bond_atom_site_label_2
_geom_bond_distance
_geom_bond_site_symmetry_2
_ccdc_geom_bond_type
P0 O11 1.490 . S
P0 C14 1.812 . S
P0 C20 1.803 . S
P0 C26 1.819 . S
H1 C15 0.941 . S
H2 C16 0.939 . S
H3 C18 0.940 . S
H4 C19 0.940 . S
H5 C21 0.939 . S
H6 C22 0.942 . S
H7 C24 0.940 . S
H8 C25 0.939 . S
H9 C27 0.941 . S
H10 C31 0.939 . S
O11 P0 1.490 . S
H12 C28 0.939 . S
H13 C30 0.940 . S
C14 P0 1.812 . S
C14 C15 1.389 . S
C14 C19 1.391 . S
C15 H1 0.941 . S
C15 C14 1.389 . S
C15 C16 1.397 . S
C16 H2 0.939 . S
C16 C15 1.397 . S
C16 C17 1.378 . S
C17 C16 1.378 . S
C17 C18 1.378 . S
C18 H3 0.940 . S
C18 C17 1.378 . S
C18 C19 1.396 . S
C19 H4 0.940 . S
C19 C14 1.391 . S
C19 C18 1.396 . S
C20 P0 1.803 . S
C20 C21 1.378 . S
C20 C25 1.400 . S
C21 H5 0.939 . S
C21 C20 1.378 . S
C21 C22 1.361 . S
C22 H6 0.942 . S
C22 C21 1.361 . S
C22 C23 1.369 . S
C23 C22 1.369 . S
C23 C24 1.404 . S
C24 H7 0.940 . S
C24 C23 1.404 . S
C24 C25 1.389 . S
C25 H8 0.939 . S
C25 C20 1.400 . S
C25 C24 1.389 . S
C26 P0 1.819 . S
C26 C27 1.391 . S
C26 C31 1.391 . S
C27 H9 0.941 . S
C27 C26 1.391 . S
C27 C28 1.396 . S
C28 H12 0.939 . S
C28 C27 1.396 . S
C28 C29 1.397 . S
C29 C28 1.397 . S
C29 C30 1.385 . S
C30 H13 0.940 . S
C30 C29 1.385 . S
C30 C31 1.388 . S
C31 H10 0.939 . S
C31 C26 1.391 . S
C31 C30 1.388 . S
P32 O43 1.490 1_655 S
P32 C46 1.812 . S
P32 C52 1.803 . S
P32 C58 1.819 . S
H33 C47 0.941 1_455 S
H34 C48 0.939 . S
H35 C50 0.940 . S
H36 C51 0.940 . S
H37 C53 0.939 1_455 S
H38 C54 0.942 . S
H39 C56 0.940 . S
H40 C57 0.939 . S
H41 C59 0.941 . S
H42 C63 0.939 . S
O43 P32 1.490 1_455 S
H44 C60 0.939 . S
H45 C62 0.940 . S
C46 P32 1.812 . S
C46 C47 1.389 . S
C46 C51 1.391 . S
C47 H33 0.941 1_655 S
C47 C46 1.389 . S
C47 C48 1.397 . S
C48 H34 0.939 . S
C48 C47 1.397 . S
C48 C49 1.378 . S
C49 C48 1.378 . S
C49 C50 1.378 . S
C50 H35 0.940 . S
C50 C49 1.378 . S
C50 C51 1.396 . S
C51 H36 0.940 . S
C51 C46 1.391 . S
C51 C50 1.396 . S
C52 P32 1.803 . S
C52 C53 1.378 . S
C52 C57 1.400 . S
C53 H37 0.939 1_655 S
C53 C52 1.378 . S
C53 C54 1.361 . S
C54 H38 0.942 . S
C54 C53 1.361 . S
C54 C55 1.369 . S
C55 C54 1.369 . S
C55 C56 1.404 . S
C56 H39 0.940 . S
C56 C55 1.404 . S
C56 C57 1.389 . S
C57 H40 0.939 . S
C57 C52 1.400 . S
C57 C56 1.389 . S
C58 P32 1.819 . S
C58 C59 1.391 . S
C58 C63 1.391 . S
C59 H41 0.941 . S
C59 C58 1.391 . S
C59 C60 1.396 . S
C60 H44 0.939 . S
C60 C59 1.396 . S
C60 C61 1.397 . S
C61 C60 1.397 . S
C61 C62 1.385 . S
C62 H45 0.940 . S
C62 C61 1.385 . S
C62 C63 1.388 . S
C63 H42 0.939 . S
C63 C58 1.391 . S
C63 C62 1.388 . S
P64 O75 1.490 . S
P64 C78 1.812 . S
P64 C84 1.803 . S
P64 C90 1.819 . S
H65 C79 0.941 . S
H66 C80 0.939 . S
H67 C82 0.940 . S
H68 C83 0.948 . S
H69 C85 0.939 . S
H70 C86 0.942 . S
H71 C88 0.940 . S
H72 C89 0.961 . S
H73 C91 0.941 . S
H74 C95 0.929 1_565 S
O75 P64 1.490 . S
H76 C92 0.939 . S
H77 C94 0.940 . S
C78 P64 1.812 . S
C78 C79 1.389 . S
C78 C83 1.375 1_545 S
C79 H65 0.941 . S
C79 C78 1.389 . S
C79 C80 1.397 . S
C80 H66 0.939 . S
C80 C79 1.397 . S
C80 C81 1.378 . S
C81 C80 1.378 . S
C81 C82 1.378 1_545 S
C82 H67 0.940 . S
C82 C81 1.378 1_565 S
C82 C83 1.405 . S
C83 H68 0.948 . S
C83 C78 1.375 1_565 S
C83 C82 1.405 . S
C84 P64 1.803 . S
C84 C85 1.378 . S
C84 C89 1.367 1_545 S
C85 H69 0.939 . S
C85 C84 1.378 . S
C85 C86 1.361 . S
C86 H70 0.942 . S
C86 C85 1.361 . S
C86 C87 1.369 . S
C87 C86 1.369 . S
C87 C88 1.404 1_545 S
C88 H71 0.940 . S
C88 C87 1.404 1_565 S
C88 C89 1.401 . S
C89 H72 0.961 . S
C89 C84 1.367 1_565 S
C89 C88 1.401 . S
C90 P64 1.819 . S
C90 C91 1.391 . S
C90 C95 1.391 . S
C91 H73 0.941 . S
C91 C90 1.391 . S
C91 C92 1.396 . S
C92 H76 0.939 . S
C92 C91 1.396 . S
C92 C93 1.397 . S
C93 C92 1.397 . S
C93 C94 1.385 1_545 S
C94 H77 0.940 . S
C94 C93 1.385 1_565 S
C94 C95 1.388 1_565 S
C95 H74 0.929 1_545 S
C95 C90 1.391 . S
C95 C94 1.388 1_545 S
P96 O107 1.490 . S
P96 C110 1.812 . S
P96 C116 1.803 1_554 S
P96 C122 1.819 1_554 S
H97 C111 0.941 . S
H98 C112 0.939 . S
H99 C114 0.940 . S
H100 C115 0.940 . S
H101 C117 0.939 . S
H102 C118 0.942 . S
H103 C120 0.940 1_554 S
H104 C121 0.939 . S
H105 C123 0.941 . S
H106 C127 0.939 . S
O107 P96 1.490 . S
H108 C124 0.939 . S
H109 C126 0.940 . S
C110 P96 1.812 . S
C110 C111 1.389 . S
C110 C115 1.391 . S
C111 H97 0.941 . S
C111 C110 1.389 . S
C111 C112 1.397 . S
C112 H98 0.939 . S
C112 C111 1.397 . S
C112 C113 1.378 . S
C113 C112 1.378 . S
C113 C114 1.378 . S
C114 H99 0.940 . S
C114 C113 1.378 . S
C114 C115 1.396 . S
C115 H100 0.940 . S
C115 C110 1.391 . S
C115 C114 1.396 . S
C116 P96 1.803 1_556 S
C116 C117 1.378 . S
C116 C121 1.400 1_556 S
C117 H101 0.939 . S
C117 C116 1.378 . S
C117 C118 1.361 . S
C118 H102 0.942 . S
C118 C117 1.361 . S
C118 C119 1.369 . S
C119 C118 1.369 . S
C119 C120 1.404 . S
C120 H103 0.940 1_556 S
C120 C119 1.404 . S
C120 C121 1.389 1_556 S
C121 H104 0.939 . S
C121 C116 1.400 1_554 S
C121 C120 1.389 1_554 S
C122 P96 1.819 1_556 S
C122 C123 1.391 . S
C122 C127 1.391 . S
C123 H105 0.941 . S
C123 C122 1.391 . S
C123 C124 1.396 . S
C124 H108 0.939 . S
C124 C123 1.396 . S
C124 C125 1.397 . S
C125 C124 1.397 . S
C125 C126 1.385 . S
C126 H109 0.940 . S
C126 C125 1.385 . S
C126 C127 1.388 . S
C127 H106 0.939 . S
C127 C122 1.391 . S
C127 C126 1.388 . S
P128 O139 1.490 . S
P128 C142 1.812 . S
P128 C148 1.803 . S
P128 C154 1.819 . S
H129 C143 0.941 . S
H130 C144 0.939 . S
H131 C146 0.940 . S
H132 C147 0.940 . S
H133 C149 0.939 . S
H134 C150 0.942 . S
H135 C152 0.940 . S
H136 C153 0.939 . S
H137 C155 0.941 . S
H138 C159 0.939 . S
O139 P128 1.490 . S
H140 C156 0.939 . S
H141 C158 0.940 . S
C142 P128 1.812 . S
C142 C143 1.389 . S
C142 C147 1.391 . S
C143 H129 0.941 . S
C143 C142 1.389 . S
C143 C144 1.397 1_554 S
C144 H130 0.939 . S
C144 C143 1.397 1_556 S
C144 C145 1.378 1_556 S
C145 C144 1.378 1_554 S
C145 C146 1.378 . S
C146 H131 0.940 . S
C146 C145 1.378 . S
C146 C147 1.396 . S
C147 H132 0.940 . S
C147 C142 1.391 . S
C147 C146 1.396 . S
C148 P128 1.803 . S
C148 C149 1.378 . S
C148 C153 1.400 . S
C149 H133 0.939 . S
C149 C148 1.378 . S
C149 C150 1.361 . S
C150 H134 0.942 . S
C150 C149 1.361 . S
C150 C151 1.369 . S
C151 C150 1.369 . S
C151 C152 1.404 . S
C152 H135 0.940 . S
C152 C151 1.404 . S
C152 C153 1.389 . S
C153 H136 0.939 . S
C153 C148 1.400 . S
C153 C152 1.389 . S
C154 P128 1.819 . S
C154 C155 1.391 . S
C154 C159 1.391 . S
C155 H137 0.941 . S
C155 C154 1.391 . S
C155 C156 1.396 . S
C156 H140 0.939 . S
C156 C155 1.396 . S
C156 C157 1.397 . S
C157 C156 1.397 . S
C157 C158 1.385 . S
C158 H141 0.940 . S
C158 C157 1.385 . S
C158 C159 1.388 . S
C159 H138 0.939 . S
C159 C154 1.391 . S
C159 C158 1.388 . S
P160 O171 1.490 . S
P160 C174 1.812 . S
P160 C180 1.803 . S
P160 C186 1.819 . S
H161 C175 0.941 . S
H162 C176 0.939 . S
H163 C178 0.940 . S
H164 C179 0.940 . S
H165 C181 0.939 . S
H166 C182 0.942 . S
H167 C184 0.940 . S
H168 C185 0.939 . S
H169 C187 0.941 . S
H170 C191 0.939 . S
O171 P160 1.490 . S
H172 C188 0.939 . S
H173 C190 0.940 . S
C174 P160 1.812 . S
C174 C175 1.389 . S
C174 C179 1.391 . S
C175 H161 0.941 . S
C175 C174 1.389 . S
C175 C176 1.397 . S
C176 H162 0.939 . S
C176 C175 1.397 . S
C176 C177 1.378 . S
C177 C176 1.378 . S
C177 C178 1.378 . S
C178 H163 0.940 . S
C178 C177 1.378 . S
C178 C179 1.396 . S
C179 H164 0.940 . S
C179 C174 1.391 . S
C179 C178 1.396 . S
C180 P160 1.803 . S
C180 C181 1.378 . S
C180 C185 1.400 . S
C181 H165 0.939 . S
C181 C180 1.378 . S
C181 C182 1.361 . S
C182 H166 0.942 . S
C182 C181 1.361 . S
C182 C183 1.369 . S
C183 C182 1.369 . S
C183 C184 1.404 . S
C184 H167 0.940 . S
C184 C183 1.404 . S
C184 C185 1.389 . S
C185 H168 0.939 . S
C185 C180 1.400 . S
C185 C184 1.389 . S
C186 P160 1.819 . S
C186 C187 1.391 . S
C186 C191 1.391 . S
C187 H169 0.941 . S
C187 C186 1.391 . S
C187 C188 1.396 . S
C188 H172 0.939 . S
C188 C187 1.396 . S
C188 C189 1.397 . S
C189 C188 1.397 . S
C189 C190 1.385 . S
C190 H173 0.940 . S
C190 C189 1.385 . S
C190 C191 1.388 . S
C191 H170 0.939 . S
C191 C186 1.391 . S
C191 C190 1.388 . S
P192 O203 1.490 . S
P192 C206 1.812 . S
P192 C212 1.803 . S
P192 C218 1.819 . S
H193 C207 0.941 . S
H194 C208 0.939 1_556 S
H195 C210 0.940 . S
H196 C211 0.942 . S
H197 C213 0.939 . S
H198 C214 0.942 . S
H199 C216 0.940 . S
H200 C217 0.949 . S
H201 C219 0.941 . S
H202 C223 0.934 1_565 S
O203 P192 1.490 . S
H204 C220 0.939 . S
H205 C222 0.940 . S
C206 P192 1.812 . S
C206 C207 1.389 . S
C206 C211 1.388 1_545 S
C207 H193 0.941 . S
C207 C206 1.389 . S
C207 C208 1.397 . S
C208 H194 0.939 1_554 S
C208 C207 1.397 . S
C208 C209 1.378 . S
C209 C208 1.378 . S
C209 C210 1.378 1_545 S
C210 H195 0.940 . S
C210 C209 1.378 1_565 S
C210 C211 1.397 . S
C211 H196 0.942 . S
C211 C206 1.388 1_565 S
C211 C210 1.397 . S
C212 P192 1.803 . S
C212 C213 1.378 . S
C212 C217 1.382 1_545 S
C213 H197 0.939 . S
C213 C212 1.378 . S
C213 C214 1.361 . S
C214 H198 0.942 . S
C214 C213 1.361 . S
C214 C215 1.369 . S
C215 C214 1.369 . S
C215 C216 1.404 1_545 S
C216 H199 0.940 . S
C216 C215 1.404 1_565 S
C216 C217 1.397 . S
C217 H200 0.949 . S
C217 C212 1.382 1_565 S
C217 C216 1.397 . S
C218 P192 1.819 . S
C218 C219 1.391 . S
C218 C223 1.391 . S
C219 H201 0.941 . S
C219 C218 1.391 . S
C219 C220 1.396 . S
C220 H204 0.939 . S
C220 C219 1.396 . S
C220 C221 1.397 . S
C221 C220 1.397 . S
C221 C222 1.385 1_545 S
C222 H205 0.940 . S
C222 C221 1.385 1_565 S
C222 C223 1.388 1_565 S
C223 H202 0.934 1_545 S
C223 C218 1.391 . S
C223 C222 1.388 1_545 S
P224 O235 1.490 . S
P224 C238 1.812 . S
P224 C244 1.803 . S
P224 C250 1.819 . S
H225 C239 0.941 . S
H226 C240 0.939 . S
H227 C242 0.940 . S
H228 C243 0.940 . S
H229 C245 0.939 . S
H230 C246 0.942 . S
H231 C248 0.940 . S
H232 C249 0.939 . S
H233 C251 0.941 . S
H234 C255 0.939 . S
O235 P224 1.490 . S
H236 C252 0.939 . S
H237 C254 0.940 . S
C238 P224 1.812 . S
C238 C239 1.389 . S
C238 C243 1.391 . S
C239 H225 0.941 . S
C239 C238 1.389 . S
C239 C240 1.397 . S
C240 H226 0.939 . S
C240 C239 1.397 . S
C240 C241 1.378 . S
C241 C240 1.378 . S
C241 C242 1.378 . S
C242 H227 0.940 . S
C242 C241 1.378 . S
C242 C243 1.396 . S
C243 H228 0.940 . S
C243 C238 1.391 . S
C243 C242 1.396 . S
C244 P224 1.803 . S
C244 C245 1.378 . S
C244 C249 1.400 . S
C245 H229 0.939 . S
C245 C244 1.378 . S
C245 C246 1.361 . S
C246 H230 0.942 . S
C246 C245 1.361 . S
C246 C247 1.369 . S
C247 C246 1.369 . S
C247 C248 1.404 . S
C248 H231 0.940 . S
C248 C247 1.404 . S
C248 C249 1.389 . S
C249 H232 0.939 . S
C249 C244 1.400 . S
C249 C248 1.389 . S
C250 P224 1.819 . S
C250 C251 1.391 . S
C250 C255 1.391 . S
C251 H233 0.941 . S
C251 C250 1.391 . S
C251 C252 1.396 . S
C252 H236 0.939 . S
C252 C251 1.396 . S
C252 C253 1.397 . S
C253 C252 1.397 . S
C253 C254 1.385 . S
C254 H237 0.940 . S
C254 C253 1.385 . S
C254 C255 1.388 . S
C255 H234 0.939 . S
C255 C250 1.391 . S
C255 C254 1.388 . S
Tb256 C265 2.764 1_655 S
Tb256 O266 2.317 1_655 S
Tb256 O269 2.284 1_655 S
Tb256 O273 2.326 1_545 S
Tb256 O274 2.366 . S
Tb256 O277 2.406 1_655 S
Tb256 O278 2.408 . S
Tb257 O267 2.322 1_565 S
Tb257 O268 2.349 . S
Tb257 O270 2.415 . S
Tb257 O271 2.399 . S
Tb257 O272 2.325 . S
Tb257 O275 2.303 1_455 S
Tb257 C286 2.764 . S
C258 O274 1.261 . S
C258 O275 1.257 1_545 S
C259 C262 1.358 1_455 S
C259 C263 1.332 . S
C259 C265 1.505 . S
C260 C261 1.373 1_455 S
C260 C264 1.308 . S
C261 C260 1.373 1_655 S
C261 C262 1.429 . S
C261 H288 0.932 . S
C262 C259 1.358 1_655 S
C262 C261 1.429 . S
C262 H289 0.930 . S
C263 C259 1.332 . S
C263 C264 1.394 . S
C263 H290 0.932 . S
C264 C260 1.308 . S
C264 C263 1.394 . S
C264 H291 0.929 . S
C265 Tb256 2.764 1_455 S
C265 C259 1.505 . S
C265 O277 1.271 . S
C265 O278 1.230 1_455 S
O266 Tb256 2.317 1_455 S
O266 C276 1.236 . S
O267 Tb257 2.322 1_545 S
O267 C276 1.257 . S
O268 Tb257 2.349 . S
O268 C279 1.261 . S
O269 Tb256 2.284 1_455 S
O269 C279 1.257 1_545 S
O270 Tb257 2.415 . S
O270 C286 1.239 . S
O271 Tb257 2.399 . S
O271 C286 1.263 . S
O272 Tb257 2.325 . S
O272 C287 1.233 1_455 S
O273 Tb256 2.326 1_565 S
O273 C287 1.259 . S
O274 Tb256 2.366 . S
O274 C258 1.261 . S
O275 Tb257 2.303 1_655 S
O275 C258 1.257 1_565 S
C276 O266 1.236 . S
C276 O267 1.257 . S
O277 Tb256 2.406 1_455 S
O277 C265 1.271 . S
O278 Tb256 2.408 . S
O278 C265 1.230 1_655 S
C279 O268 1.261 . S
C279 O269 1.257 1_565 S
C280 C283 1.358 . S
C280 C284 1.332 . S
C280 C286 1.504 . S
C281 C282 1.373 . S
C281 C285 1.308 . S
C282 C281 1.373 . S
C282 C283 1.429 . S
C282 H292 0.932 . S
C283 C280 1.358 . S
C283 C282 1.429 . S
C283 H293 0.930 . S
C284 C280 1.332 . S
C284 C285 1.394 . S
C284 H294 0.932 1_455 S
C285 C281 1.308 . S
C285 C284 1.394 . S
C285 H295 0.929 1_455 S
C286 Tb257 2.764 . S
C286 O270 1.239 . S
C286 O271 1.263 . S
C286 C280 1.504 . S
C287 O272 1.233 1_655 S
C287 O273 1.259 . S
H288 C261 0.932 . S
H289 C262 0.930 . S
H290 C263 0.932 . S
H291 C264 0.929 . S
H292 C282 0.932 . S
H293 C283 0.930 . S
H294 C284 0.932 1_655 S
H295 C285 0.929 1_655 S
Tb296 C305 2.764 . S
Tb296 O306 2.325 . S
Tb296 O309 2.303 1_565 S
Tb296 O313 2.322 . S
Tb296 O314 2.349 . S
Tb296 O317 2.415 1_565 S
Tb296 O318 2.399 . S
Tb297 O307 2.322 . S
Tb297 O308 2.349 . S
Tb297 O310 2.415 1_545 S
Tb297 O311 2.399 . S
Tb297 O312 2.325 . S
Tb297 O315 2.303 1_545 S
Tb297 C326 2.764 . S
C298 O314 1.261 . S
C298 O315 1.257 . S
C299 C302 1.358 . S
C299 C303 1.356 . S
C299 C305 1.504 . S
C300 C301 1.373 . S
C300 C304 1.308 . S
C301 C300 1.373 . S
C301 C302 1.429 . S
C301 H328 0.932 . S
C302 C299 1.358 . S
C302 C301 1.429 . S
C302 H329 0.930 . S
C303 C299 1.356 . S
C303 C304 1.395 . S
C303 H330 0.907 1_565 S
C304 C300 1.308 . S
C304 C303 1.395 . S
C304 H331 0.929 1_565 S
C305 Tb296 2.764 . S
C305 C299 1.504 . S
C305 O317 1.239 1_565 S
C305 O318 1.263 . S
O306 Tb296 2.325 . S
O306 C316 1.236 1_565 S
O307 Tb297 2.322 . S
O307 C316 1.257 . S
O308 Tb297 2.349 . S
O308 C319 1.261 . S
O309 Tb296 2.303 1_545 S
O309 C319 1.257 . S
O310 Tb297 2.415 1_565 S
O310 C326 1.239 1_565 S
O311 Tb297 2.399 . S
O311 C326 1.263 . S
O312 Tb297 2.325 . S
O312 C327 1.236 1_545 S
O313 Tb296 2.322 . S
O313 C327 1.257 . S
O314 Tb296 2.349 . S
O314 C298 1.261 . S
O315 Tb297 2.303 1_565 S
O315 C298 1.257 . S
C316 O306 1.236 1_545 S
C316 O307 1.257 . S
O317 Tb296 2.415 1_545 S
O317 C305 1.239 1_545 S
O318 Tb296 2.399 . S
O318 C305 1.263 . S
C319 O308 1.261 . S
C319 O309 1.257 . S
C320 C323 1.358 . S
C320 C324 1.368 . S
C320 C326 1.504 . S
C321 C322 1.373 . S
C321 C325 1.308 . S
C322 C321 1.373 . S
C322 C323 1.429 . S
C322 H332 0.932 . S
C323 C320 1.358 . S
C323 C322 1.429 . S
C323 H333 0.930 . S
C324 C320 1.368 . S
C324 C325 1.395 . S
C324 H334 0.895 1_545 S
C325 C321 1.308 . S
C325 C324 1.395 . S
C325 H335 0.929 1_545 S
C326 Tb297 2.764 . S
C326 O310 1.239 1_545 S
C326 O311 1.263 . S
C326 C320 1.504 . S
C327 O312 1.236 1_565 S
C327 O313 1.257 . S
H328 C301 0.932 . S
H329 C302 0.930 . S
H330 C303 0.907 1_545 S
H331 C304 0.929 1_545 S
H332 C322 0.932 . S
H333 C323 0.930 . S
H334 C324 0.895 1_565 S
H335 C325 0.929 1_565 S
Tb336 C345 2.764 . S
Tb336 O346 2.325 . S
Tb336 O349 2.303 . S
Tb336 O353 2.322 . S
Tb336 O354 2.349 . S
Tb336 O357 2.415 . S
Tb336 O358 2.399 . S
Tb337 O347 2.322 . S
Tb337 O348 2.349 . S
Tb337 O350 2.415 . S
Tb337 O351 2.399 . S
Tb337 O352 2.325 . S
Tb337 O355 2.303 . S
Tb337 C366 2.764 . S
C338 O354 1.261 . S
C338 O355 1.257 . S
C339 C342 1.358 . S
C339 C343 1.332 . S
C339 C345 1.504 . S
C340 C341 1.373 . S
C340 C344 1.308 . S
C341 C340 1.373 . S
C341 C342 1.429 . S
C341 H368 0.932 . S
C342 C339 1.358 . S
C342 C341 1.429 . S
C342 H369 0.930 . S
C343 C339 1.332 . S
C343 C344 1.394 . S
C343 H370 0.932 . S
C344 C340 1.308 . S
C344 C343 1.394 . S
C344 H371 0.929 . S
C345 Tb336 2.764 . S
C345 C339 1.504 . S
C345 O357 1.239 . S
C345 O358 1.263 . S
O346 Tb336 2.325 . S
O346 C356 1.236 . S
O347 Tb337 2.322 . S
O347 C356 1.257 . S
O348 Tb337 2.349 . S
O348 C359 1.261 . S
O349 Tb336 2.303 . S
O349 C359 1.257 . S
O350 Tb337 2.415 . S
O350 C366 1.239 . S
O351 Tb337 2.399 . S
O351 C366 1.263 . S
O352 Tb337 2.325 . S
O352 C367 1.236 . S
O353 Tb336 2.322 . S
O353 C367 1.257 . S
O354 Tb336 2.349 . S
O354 C338 1.261 . S
O355 Tb337 2.303 . S
O355 C338 1.257 . S
C356 O346 1.236 . S
C356 O347 1.257 . S
O357 Tb336 2.415 . S
O357 C345 1.239 . S
O358 Tb336 2.399 . S
O358 C345 1.263 . S
C359 O348 1.261 . S
C359 O349 1.257 . S
C360 C363 1.358 . S
C360 C364 1.332 . S
C360 C366 1.504 . S
C361 C362 1.373 . S
C361 C365 1.308 . S
C362 C361 1.373 . S
C362 C363 1.429 . S
C362 H372 0.932 . S
C363 C360 1.358 . S
C363 C362 1.429 . S
C363 H373 0.930 . S
C364 C360 1.332 . S
C364 C365 1.394 . S
C364 H374 0.932 . S
C365 C361 1.308 . S
C365 C364 1.394 . S
C365 H375 0.929 . S
C366 Tb337 2.764 . S
C366 O350 1.239 . S
C366 O351 1.263 . S
C366 C360 1.504 . S
C367 O352 1.236 . S
C367 O353 1.257 . S
H368 C341 0.932 . S
H369 C342 0.930 . S
H370 C343 0.932 . S
H371 C344 0.929 . S
H372 C362 0.932 . S
H373 C363 0.930 . S
H374 C364 0.932 . S
H375 C365 0.929 . S
Tb376 C385 2.764 . S
Tb376 O386 2.325 . S
Tb376 O389 2.303 . S
Tb376 O393 2.322 1_455 S
Tb376 O394 2.349 . S
Tb376 O397 2.415 . S
Tb376 O398 2.399 . S
Tb377 O387 2.363 . S
Tb377 O388 2.359 . S
Tb377 O390 2.381 1_455 S
Tb377 O391 2.368 1_455 S
Tb377 O392 2.299 1_455 S
Tb377 O395 2.310 . S
Tb377 C406 2.728 1_455 S
C378 O394 1.261 . S
C378 O395 1.257 . S
C379 C382 1.358 . S
C379 C383 1.332 . S
C379 C385 1.504 . S
C380 C381 1.373 . S
C380 C384 1.308 . S
C381 C380 1.373 . S
C381 C382 1.429 . S
C381 H408 0.932 . S
C382 C379 1.358 . S
C382 C381 1.429 . S
C382 H409 0.930 . S
C383 C379 1.332 . S
C383 C384 1.394 . S
C383 H410 0.932 . S
C384 C380 1.308 . S
C384 C383 1.394 . S
C384 H411 0.929 . S
C385 Tb376 2.764 . S
C385 C379 1.504 . S
C385 O397 1.239 . S
C385 O398 1.263 . S
O386 Tb376 2.325 . S
O386 C396 1.236 . S
O387 Tb377 2.363 . S
O387 C396 1.257 . S
O388 Tb377 2.359 . S
O388 C399 1.261 . S
O389 Tb376 2.303 . S
O389 C399 1.257 . S
O390 Tb377 2.381 1_655 S
O390 C406 1.239 . S
O391 Tb377 2.368 1_655 S
O391 C406 1.263 . S
O392 Tb377 2.299 1_655 S
O392 C407 1.236 . S
O393 Tb376 2.322 1_655 S
O393 C407 1.257 . S
O394 Tb376 2.349 . S
O394 C378 1.261 . S
O395 Tb377 2.310 . S
O395 C378 1.257 . S
C396 O386 1.236 . S
C396 O387 1.257 . S
O397 Tb376 2.415 . S
O397 C385 1.239 . S
O398 Tb376 2.399 . S
O398 C385 1.263 . S
C399 O388 1.261 . S
C399 O389 1.257 . S
C400 C403 1.358 . S
C400 C404 1.332 . S
C400 C406 1.504 . S
C401 C402 1.373 . S
C401 C405 1.308 . S
C402 C401 1.373 . S
C402 C403 1.429 . S
C402 H412 0.932 . S
C403 C400 1.358 . S
C403 C402 1.429 . S
C403 H413 0.930 . S
C404 C400 1.332 . S
C404 C405 1.394 . S
C404 H414 0.932 . S
C405 C401 1.308 . S
C405 C404 1.394 . S
C405 H415 0.929 . S
C406 Tb377 2.728 1_655 S
C406 O390 1.239 . S
C406 O391 1.263 . S
C406 C400 1.504 . S
C407 O392 1.236 . S
C407 O393 1.257 . S
H408 C381 0.932 . S
H409 C382 0.930 . S
H410 C383 0.932 . S
H411 C384 0.929 . S
H412 C402 0.932 . S
H413 C403 0.930 . S
H414 C404 0.932 . S
H415 C405 0.929 . S
H416 C434 0.951 . S
H417 C436 0.951 . S
H418 C438 0.950 . S
H419 C439 0.950 . S
H420 C441 0.950 . S
H421 C444 0.950 . S
H422 C445 0.950 . S
H423 C447 0.950 . S
H424 C448 0.950 . S
H425 C449 0.951 . S
H426 C451 0.951 . S
H427 C453 0.950 . S
H428 C454 0.950 . S
H429 C456 0.950 . S
H430 C459 0.950 . S
H431 C460 0.950 . S
H432 C462 0.950 . S
H433 C463 0.950 . S
C434 H416 0.951 . S
C434 C435 1.368 1_545 S
C434 C436 1.388 . S
C435 C434 1.368 1_565 S
C435 C439 1.382 . S
C436 H417 0.951 . S
C436 C434 1.388 . S
C436 C437 1.385 . S
C437 C436 1.385 . S
C437 C438 1.398 1_545 S
C437 C440 1.496 . S
C438 H418 0.950 . S
C438 C437 1.398 1_565 S
C438 C439 1.374 . S
C439 H419 0.950 . S
C439 C435 1.382 . S
C439 C438 1.374 . S
C440 C437 1.496 . S
C440 C441 1.358 1_545 S
C440 C442 1.402 . S
C441 H420 0.950 . S
C441 C440 1.358 1_565 S
C441 C457 1.377 . S
C442 C440 1.402 . S
C442 C443 1.524 . S
C442 C456 1.377 . S
C443 C442 1.524 . S
C443 C444 1.397 . S
C443 C448 1.363 . S
C444 H421 0.950 . S
C444 C443 1.397 . S
C444 C445 1.334 . S
C445 H422 0.950 . S
C445 C444 1.334 . S
C445 C446 1.287 . S
C446 C445 1.287 . S
C446 C447 1.524 . S
C446 H465 0.913 . S
C447 H423 0.950 . S
C447 C446 1.524 . S
C447 C448 1.415 . S
C448 H424 0.950 . S
C448 C443 1.363 . S
C448 C447 1.415 . S
C449 H425 0.951 . S
C449 C450 1.390 . S
C449 C451 1.388 . S
C450 C449 1.390 . S
C450 C454 1.356 1_565 S
C451 H426 0.951 . S
C451 C449 1.388 . S
C451 C452 1.366 . S
C452 C451 1.366 . S
C452 C453 1.414 1_565 S
C452 C455 1.499 . S
C453 H427 0.950 . S
C453 C452 1.414 1_545 S
C453 C454 1.374 . S
C454 H428 0.950 . S
C454 C450 1.356 1_545 S
C454 C453 1.374 . S
C455 C452 1.499 . S
C455 C456 1.373 1_565 S
C455 C457 1.389 . S
C456 H429 0.950 . S
C456 C442 1.377 . S
C456 C455 1.373 1_545 S
C457 C441 1.377 . S
C457 C455 1.389 . S
C457 C458 1.524 . S
C458 C457 1.524 . S
C458 C459 1.397 . S
C458 C463 1.363 . S
C459 H430 0.950 . S
C459 C458 1.397 . S
C459 C460 1.334 . S
C460 H431 0.950 . S
C460 C459 1.334 . S
C460 C461 1.287 . S
C461 C460 1.287 . S
C461 C462 1.524 . S
C461 H464 0.999 . S
C462 H432 0.950 . S
C462 C461 1.524 . S
C462 C463 1.415 . S
C463 H433 0.950 . S
C463 C458 1.363 . S
C463 C462 1.415 . S
H464 C461 0.999 . S
H465 C446 0.913 . S
H466 C484 0.951 . S
H467 C486 0.951 . S
H468 C488 0.950 . S
H469 C489 0.950 . S
H470 C491 0.950 . S
H471 C494 0.950 . S
H472 C495 0.950 . S
H473 C497 0.950 . S
H474 C498 0.950 . S
H475 C499 0.951 . S
H476 C501 0.951 . S
H477 C503 0.950 . S
H478 C504 0.950 . S
H479 C506 0.950 . S
H480 C509 0.950 . S
H481 C510 0.950 . S
H482 C512 0.950 . S
H483 C513 0.950 . S
C484 H466 0.951 . S
C484 C485 1.366 . S
C484 C486 1.388 . S
C485 C484 1.366 . S
C485 C489 1.385 . S
C486 H467 0.951 . S
C486 C484 1.388 . S
C486 C487 1.366 . S
C487 C486 1.366 . S
C487 C488 1.414 . S
C487 C490 1.499 . S
C488 H468 0.950 . S
C488 C487 1.414 . S
C488 C489 1.374 . S
C489 H469 0.950 . S
C489 C485 1.385 . S
C489 C488 1.374 . S
C490 C487 1.499 . S
C490 C491 1.373 . S
C490 C492 1.389 . S
C491 H470 0.950 . S
C491 C490 1.373 . S
C491 C507 1.377 . S
C492 C490 1.389 . S
C492 C493 1.524 . S
C492 C506 1.377 . S
C493 C492 1.524 . S
C493 C494 1.397 . S
C493 C498 1.363 . S
C494 H471 0.950 . S
C494 C493 1.397 . S
C494 C495 1.334 . S
C495 H472 0.950 . S
C495 C494 1.334 . S
C495 C496 1.287 . S
C496 C495 1.287 . S
C496 C497 1.524 . S
C496 H515 0.913 . S
C497 H473 0.950 . S
C497 C496 1.524 . S
C497 C498 1.415 . S
C498 H474 0.950 . S
C498 C493 1.363 . S
C498 C497 1.415 . S
C499 H475 0.951 . S
C499 C500 1.366 . S
C499 C501 1.388 . S
C500 C499 1.366 . S
C500 C504 1.385 . S
C501 H476 0.951 . S
C501 C499 1.388 . S
C501 C502 1.366 . S
C502 C501 1.366 . S
C502 C503 1.414 . S
C502 C505 1.499 . S
C503 H477 0.950 . S
C503 C502 1.414 . S
C503 C504 1.374 . S
C504 H478 0.950 . S
C504 C500 1.385 . S
C504 C503 1.374 . S
C505 C502 1.499 . S
C505 C506 1.373 . S
C505 C507 1.389 . S
C506 H479 0.950 . S
C506 C492 1.377 . S
C506 C505 1.373 . S
C507 C491 1.377 . S
C507 C505 1.389 . S
C507 C508 1.524 . S
C508 C507 1.524 . S
C508 C509 1.397 . S
C508 C513 1.363 . S
C509 H480 0.950 . S
C509 C508 1.397 . S
C509 C510 1.334 . S
C510 H481 0.950 . S
C510 C509 1.334 . S
C510 C511 1.287 . S
C511 C510 1.287 . S
C511 C512 1.524 . S
C511 H514 0.999 . S
C512 H482 0.950 . S
C512 C511 1.524 . S
C512 C513 1.415 . S
C513 H483 0.950 . S
C513 C508 1.363 . S
C513 C512 1.415 . S
H514 C511 0.999 . S
H515 C496 0.913 . S
H516 C534 0.951 . S
H517 C536 0.951 . S
H518 C538 0.950 . S
H519 C539 0.950 . S
H520 C541 0.950 . S
H521 C544 0.950 . S
H522 C545 0.950 . S
H523 C547 0.950 . S
H524 C548 0.950 . S
H525 C549 0.951 . S
H526 C551 0.951 . S
H527 C553 0.950 . S
H528 C554 0.950 . S
H529 C556 0.950 . S
H530 C559 0.950 . S
H531 C560 0.950 . S
H532 C562 0.950 . S
H533 C563 0.950 . S
C534 H516 0.951 . S
C534 C535 1.366 . S
C534 C536 1.388 . S
C535 C534 1.366 . S
C535 C539 1.385 . S
C536 H517 0.951 . S
C536 C534 1.388 . S
C536 C537 1.366 . S
C537 C536 1.366 . S
C537 C538 1.414 . S
C537 C540 1.499 . S
C538 H518 0.950 . S
C538 C537 1.414 . S
C538 C539 1.374 . S
C539 H519 0.950 . S
C539 C535 1.385 . S
C539 C538 1.374 . S
C540 C537 1.499 . S
C540 C541 1.373 . S
C540 C542 1.389 . S
C541 H520 0.950 . S
C541 C540 1.373 . S
C541 C557 1.377 . S
C542 C540 1.389 . S
C542 C543 1.524 . S
C542 C556 1.377 . S
C543 C542 1.524 . S
C543 C544 1.397 . S
C543 C548 1.363 . S
C544 H521 0.950 . S
C544 C543 1.397 . S
C544 C545 1.334 . S
C545 H522 0.950 . S
C545 C544 1.334 . S
C545 C546 1.287 . S
C546 C545 1.287 . S
C546 C547 1.524 . S
C546 H565 0.913 . S
C547 H523 0.950 . S
C547 C546 1.524 . S
C547 C548 1.415 . S
C548 H524 0.950 . S
C548 C543 1.363 . S
C548 C547 1.415 . S
C549 H525 0.951 . S
C549 C550 1.366 . S
C549 C551 1.388 . S
C550 C549 1.366 . S
C550 C554 1.385 . S
C551 H526 0.951 . S
C551 C549 1.388 . S
C551 C552 1.366 . S
C552 C551 1.366 . S
C552 C553 1.414 . S
C552 C555 1.499 . S
C553 H527 0.950 . S
C553 C552 1.414 . S
C553 C554 1.374 . S
C554 H528 0.950 . S
C554 C550 1.385 . S
C554 C553 1.374 . S
C555 C552 1.499 . S
C555 C556 1.373 . S
C555 C557 1.389 . S
C556 H529 0.950 . S
C556 C542 1.377 . S
C556 C555 1.373 . S
C557 C541 1.377 . S
C557 C555 1.389 . S
C557 C558 1.524 . S
C558 C557 1.524 . S
C558 C559 1.397 . S
C558 C563 1.363 . S
C559 H530 0.950 . S
C559 C558 1.397 . S
C559 C560 1.334 . S
C560 H531 0.950 . S
C560 C559 1.334 . S
C560 C561 1.287 . S
C561 C560 1.287 . S
C561 C562 1.524 . S
C561 H564 0.999 . S
C562 H532 0.950 . S
C562 C561 1.524 . S
C562 C563 1.415 . S
C563 H533 0.950 . S
C563 C558 1.363 . S
C563 C562 1.415 . S
H564 C561 0.999 . S
H565 C546 0.913 . S
H566 C584 0.951 . S
H567 C586 0.951 . S
H568 C588 0.950 . S
H569 C589 0.950 . S
H570 C591 0.950 . S
H571 C594 0.950 . S
H572 C595 0.950 . S
H573 C597 0.950 . S
H574 C598 0.950 . S
H575 C599 0.951 . S
H576 C601 0.951 . S
H577 C603 0.950 . S
H578 C604 0.950 . S
H579 C606 0.950 . S
H580 C609 0.957 . S
H581 C610 0.950 . S
H582 C612 0.950 . S
H583 C613 0.950 . S
C584 H566 0.951 . S
C584 C585 1.366 . S
C584 C586 1.388 . S
C585 C584 1.366 . S
C585 C589 1.385 . S
C586 H567 0.951 . S
C586 C584 1.388 . S
C586 C587 1.366 . S
C587 C586 1.366 . S
C587 C588 1.414 . S
C587 C590 1.499 . S
C588 H568 0.950 . S
C588 C587 1.414 . S
C588 C589 1.374 . S
C589 H569 0.950 . S
C589 C585 1.385 . S
C589 C588 1.374 . S
C590 C587 1.499 . S
C590 C591 1.373 . S
C590 C592 1.389 . S
C591 H570 0.950 . S
C591 C590 1.373 . S
C591 C607 1.377 . S
C592 C590 1.389 . S
C592 C593 1.524 . S
C592 C606 1.377 . S
C593 C592 1.524 . S
C593 C594 1.397 . S
C593 C598 1.363 . S
C594 H571 0.950 . S
C594 C593 1.397 . S
C594 C595 1.334 . S
C595 H572 0.950 . S
C595 C594 1.334 . S
C595 C596 1.287 . S
C596 C595 1.287 . S
C596 C597 1.524 . S
C596 H615 0.913 . S
C597 H573 0.950 . S
C597 C596 1.524 . S
C597 C598 1.415 . S
C598 H574 0.950 . S
C598 C593 1.363 . S
C598 C597 1.415 . S
C599 H575 0.951 . S
C599 C600 1.366 . S
C599 C601 1.388 . S
C600 C599 1.366 . S
C600 C604 1.385 . S
C601 H576 0.951 . S
C601 C599 1.388 . S
C601 C602 1.366 . S
C602 C601 1.366 . S
C602 C603 1.414 . S
C602 C605 1.499 . S
C603 H577 0.950 . S
C603 C602 1.414 . S
C603 C604 1.374 . S
C604 H578 0.950 . S
C604 C600 1.385 . S
C604 C603 1.374 . S
C605 C602 1.499 . S
C605 C606 1.373 . S
C605 C607 1.389 . S
C606 H579 0.950 . S
C606 C592 1.377 . S
C606 C605 1.373 . S
C607 C591 1.377 . S
C607 C605 1.389 . S
C607 C608 1.524 . S
C608 C607 1.524 . S
C608 C609 1.361 1_455 S
C608 C613 1.363 . S
C609 H580 0.957 . S
C609 C608 1.361 1_655 S
C609 C610 1.363 . S
C610 H581 0.950 . S
C610 C609 1.363 . S
C610 C611 1.287 . S
C611 C610 1.287 . S
C611 C612 1.524 1_655 S
C611 H614 0.999 . S
C612 H582 0.950 . S
C612 C611 1.524 1_455 S
C612 C613 1.415 . S
C613 H583 0.950 . S
C613 C608 1.363 . S
C613 C612 1.415 . S
H614 C611 0.999 . S
H615 C596 0.913 . S
H616 C634 0.951 . S
H617 C636 0.951 . S
H618 C638 0.950 . S
H619 C639 0.950 . S
H620 C641 0.950 . S
H621 C644 0.950 . S
H622 C645 0.950 . S
H623 C647 0.950 . S
H624 C648 0.950 . S
H625 C649 0.951 . S
H626 C651 0.951 . S
H627 C653 0.950 . S
H628 C654 0.950 . S
H629 C656 0.950 . S
H630 C659 0.950 . S
H631 C660 0.950 . S
H632 C662 0.950 . S
H633 C663 0.950 . S
C634 H616 0.951 . S
C634 C635 1.369 . S
C634 C636 1.388 . S
C635 C634 1.369 . S
C635 C639 1.382 1_545 S
C636 H617 0.951 . S
C636 C634 1.388 . S
C636 C637 1.366 . S
C637 C636 1.366 . S
C637 C638 1.414 1_545 S
C637 C640 1.495 . S
C638 H618 0.950 . S
C638 C637 1.414 1_565 S
C638 C639 1.374 . S
C639 H619 0.950 . S
C639 C635 1.382 1_565 S
C639 C638 1.374 . S
C640 C637 1.495 . S
C640 C641 1.336 1_545 S
C640 C642 1.431 . S
C641 H620 0.950 . S
C641 C640 1.336 1_565 S
C641 C657 1.377 . S
C642 C640 1.431 . S
C642 C643 1.524 . S
C642 C656 1.377 . S
C643 C642 1.524 . S
C643 C644 1.397 . S
C643 C648 1.363 . S
C644 H621 0.950 . S
C644 C643 1.397 . S
C644 C645 1.334 . S
C645 H622 0.950 . S
C645 C644 1.334 . S
C645 C646 1.287 . S
C646 C645 1.287 . S
C646 C647 1.524 . S
C646 H665 0.913 . S
C647 H623 0.950 . S
C647 C646 1.524 . S
C647 C648 1.415 . S
C648 H624 0.950 . S
C648 C643 1.363 . S
C648 C647 1.415 . S
C649 H625 0.951 . S
C649 C650 1.366 1_565 S
C649 C651 1.388 . S
C650 C649 1.366 1_545 S
C650 C654 1.385 . S
C651 H626 0.951 . S
C651 C649 1.388 . S
C651 C652 1.356 1_565 S
C652 C651 1.356 1_545 S
C652 C653 1.426 . S
C652 C655 1.501 1_556 S
C653 H627 0.950 . S
C653 C652 1.426 . S
C653 C654 1.374 . S
C654 H628 0.950 . S
C654 C650 1.385 . S
C654 C653 1.374 . S
C655 C652 1.501 1_554 S
C655 C656 1.403 . S
C655 C657 1.356 1_545 S
C656 H629 0.950 . S
C656 C642 1.377 . S
C656 C655 1.403 . S
C657 C641 1.377 . S
C657 C655 1.356 1_565 S
C657 C658 1.524 . S
C658 C657 1.524 . S
C658 C659 1.397 . S
C658 C663 1.363 1_554 S
C659 H630 0.950 . S
C659 C658 1.397 . S
C659 C660 1.334 1_554 S
C660 H631 0.950 . S
C660 C659 1.334 1_556 S
C660 C661 1.287 . S
C661 C660 1.287 . S
C661 C662 1.524 . S
C661 H664 0.999 . S
C662 H632 0.950 . S
C662 C661 1.524 . S
C662 C663 1.415 . S
C663 H633 0.950 . S
C663 C658 1.363 1_556 S
C663 C662 1.415 . S
H664 C661 0.999 . S
H665 C646 0.913 . S
H666 C684 0.951 . S
H667 C686 0.951 . S
H668 C688 0.950 . S
H669 C689 0.950 . S
H670 C691 0.950 . S
H671 C694 0.950 . S
H672 C695 0.950 . S
H673 C697 0.950 . S
H674 C698 0.950 . S
H675 C699 0.951 . S
H676 C701 0.951 . S
H677 C703 0.950 . S
H678 C704 0.950 . S
H679 C706 0.950 . S
H680 C709 0.950 . S
H681 C710 0.950 . S
H682 C712 0.950 . S
H683 C713 0.950 . S
C684 H666 0.951 . S
C684 C685 1.366 . S
C684 C686 1.388 . S
C685 C684 1.366 . S
C685 C689 1.385 . S
C686 H667 0.951 . S
C686 C684 1.388 . S
C686 C687 1.366 . S
C687 C686 1.366 . S
C687 C688 1.414 . S
C687 C690 1.499 . S
C688 H668 0.950 . S
C688 C687 1.414 . S
C688 C689 1.374 . S
C689 H669 0.950 . S
C689 C685 1.385 . S
C689 C688 1.374 . S
C690 C687 1.499 . S
C690 C691 1.373 . S
C690 C692 1.389 . S
C691 H670 0.950 . S
C691 C690 1.373 . S
C691 C707 1.377 . S
C692 C690 1.389 . S
C692 C693 1.524 . S
C692 C706 1.377 . S
C693 C692 1.524 . S
C693 C694 1.397 . S
C693 C698 1.363 . S
C694 H671 0.950 . S
C694 C693 1.397 . S
C694 C695 1.334 . S
C695 H672 0.950 . S
C695 C694 1.334 . S
C695 C696 1.287 . S
C696 C695 1.287 . S
C696 C697 1.524 . S
C696 H715 0.913 . S
C697 H673 0.950 . S
C697 C696 1.524 . S
C697 C698 1.415 . S
C698 H674 0.950 . S
C698 C693 1.363 . S
C698 C697 1.415 . S
C699 H675 0.951 . S
C699 C700 1.366 . S
C699 C701 1.388 . S
C700 C699 1.366 . S
C700 C704 1.385 . S
C701 H676 0.951 . S
C701 C699 1.388 . S
C701 C702 1.366 . S
C702 C701 1.366 . S
C702 C703 1.414 . S
C702 C705 1.499 . S
C703 H677 0.950 . S
C703 C702 1.414 . S
C703 C704 1.374 . S
C704 H678 0.950 . S
C704 C700 1.385 . S
C704 C703 1.374 . S
C705 C702 1.499 . S
C705 C706 1.373 . S
C705 C707 1.389 . S
C706 H679 0.950 . S
C706 C692 1.377 . S
C706 C705 1.373 . S
C707 C691 1.377 . S
C707 C705 1.389 . S
C707 C708 1.524 . S
C708 C707 1.524 . S
C708 C709 1.397 . S
C708 C713 1.363 . S
C709 H680 0.950 . S
C709 C708 1.397 . S
C709 C710 1.334 . S
C710 H681 0.950 . S
C710 C709 1.334 . S
C710 C711 1.287 . S
C711 C710 1.287 . S
C711 C712 1.524 . S
C711 H714 0.999 . S
C712 H682 0.950 . S
C712 C711 1.524 . S
C712 C713 1.415 . S
C713 H683 0.950 . S
C713 C708 1.363 . S
C713 C712 1.415 . S
H714 C711 0.999 . S
H715 C696 0.913 . S
H716 C734 0.951 . S
H717 C736 0.951 . S
H718 C738 0.950 . S
H719 C739 0.950 . S
H720 C741 0.950 . S
H721 C744 0.950 . S
H722 C745 0.950 . S
H723 C747 0.950 . S
H724 C748 0.950 . S
H725 C749 0.951 . S
H726 C751 0.951 . S
H727 C753 0.950 . S
H728 C754 0.950 . S
H729 C756 0.950 . S
H730 C759 0.950 1_556 S
H731 C760 0.950 1_556 S
H732 C762 0.950 . S
H733 C763 0.950 . S
C734 H716 0.951 . S
C734 C735 1.366 . S
C734 C736 1.388 . S
C735 C734 1.366 . S
C735 C739 1.385 . S
C736 H717 0.951 . S
C736 C734 1.388 . S
C736 C737 1.366 . S
C737 C736 1.366 . S
C737 C738 1.414 . S
C737 C740 1.499 . S
C738 H718 0.950 . S
C738 C737 1.414 . S
C738 C739 1.374 . S
C739 H719 0.950 . S
C739 C735 1.385 . S
C739 C738 1.374 . S
C740 C737 1.499 . S
C740 C741 1.373 . S
C740 C742 1.389 . S
C741 H720 0.950 . S
C741 C740 1.373 . S
C741 C757 1.377 . S
C742 C740 1.389 . S
C742 C743 1.524 . S
C742 C756 1.377 1_554 S
C743 C742 1.524 . S
C743 C744 1.397 . S
C743 C748 1.363 1_554 S
C744 H721 0.950 . S
C744 C743 1.397 . S
C744 C745 1.334 . S
C745 H722 0.950 . S
C745 C744 1.334 . S
C745 C746 1.287 . S
C746 C745 1.287 . S
C746 C747 1.524 1_554 S
C746 H765 0.913 . S
C747 H723 0.950 . S
C747 C746 1.524 1_556 S
C747 C748 1.415 . S
C748 H724 0.950 . S
C748 C743 1.363 1_556 S
C748 C747 1.415 . S
C749 H725 0.951 . S
C749 C750 1.366 . S
C749 C751 1.388 . S
C750 C749 1.366 . S
C750 C754 1.385 . S
C751 H726 0.951 . S
C751 C749 1.388 . S
C751 C752 1.366 . S
C752 C751 1.366 . S
C752 C753 1.414 . S
C752 C755 1.499 . S
C753 H727 0.950 . S
C753 C752 1.414 . S
C753 C754 1.374 . S
C754 H728 0.950 . S
C754 C750 1.385 . S
C754 C753 1.374 . S
C755 C752 1.499 . S
C755 C756 1.373 . S
C755 C757 1.389 1_556 S
C756 H729 0.950 . S
C756 C742 1.377 1_556 S
C756 C755 1.373 . S
C757 C741 1.377 . S
C757 C755 1.389 1_554 S
C757 C758 1.524 . S
C758 C757 1.524 . S
C758 C759 1.397 . S
C758 C763 1.363 . S
C759 H730 0.950 1_554 S
C759 C758 1.397 . S
C759 C760 1.334 . S
C760 H731 0.950 1_554 S
C760 C759 1.334 . S
C760 C761 1.287 . S
C761 C760 1.287 . S
C761 C762 1.524 . S
C761 H764 0.999 . S
C762 H732 0.950 . S
C762 C761 1.524 . S
C762 C763 1.415 . S
C763 H733 0.950 . S
C763 C758 1.363 . S
C763 C762 1.415 . S
H764 C761 0.999 . S
H765 C746 0.913 . S
H766 C784 0.951 . S
H767 C786 0.939 1_455 S
H768 C788 0.950 . S
H769 C789 0.950 . S
H770 C791 0.950 . S
H771 C794 0.950 . S
H772 C795 0.950 . S
H773 C797 0.950 . S
H774 C798 0.950 . S
H775 C799 0.951 . S
H776 C801 0.951 . S
H777 C803 0.950 . S
H778 C804 0.950 . S
H779 C806 0.950 1_455 S
H780 C809 0.950 . S
H781 C810 0.950 . S
H782 C812 0.950 . S
H783 C813 0.950 . S
C784 H766 0.951 . S
C784 C785 1.366 . S
C784 C786 1.388 . S
C785 C784 1.366 . S
C785 C789 1.385 . S
C786 H767 0.939 1_655 S
C786 C784 1.388 . S
C786 C787 1.366 . S
C787 C786 1.366 . S
C787 C788 1.414 . S
C787 C790 1.499 . S
C788 H768 0.950 . S
C788 C787 1.414 . S
C788 C789 1.374 . S
C789 H769 0.950 . S
C789 C785 1.385 . S
C789 C788 1.374 . S
C790 C787 1.499 . S
C790 C791 1.373 . S
C790 C792 1.389 . S
C791 H770 0.950 . S
C791 C790 1.373 . S
C791 C807 1.377 . S
C792 C790 1.389 . S
C792 C793 1.542 . S
C792 C806 1.377 1_554 S
C793 C792 1.542 . S
C793 C794 1.426 . S
C793 C798 1.319 1_655 S
C794 H771 0.950 . S
C794 C793 1.426 . S
C794 C795 1.334 . S
C795 H772 0.950 . S
C795 C794 1.334 . S
C795 C796 1.287 1_654 S
C796 C795 1.287 1_456 S
C796 C797 1.524 . S
C796 H815 0.913 . S
C797 H773 0.950 . S
C797 C796 1.524 . S
C797 C798 1.415 1_556 S
C798 H774 0.950 . S
C798 C793 1.319 1_455 S
C798 C797 1.415 1_554 S
C799 H775 0.951 . S
C799 C800 1.366 1_655 S
C799 C801 1.388 . S
C800 C799 1.366 1_455 S
C800 C804 1.385 . S
C801 H776 0.951 . S
C801 C799 1.388 . S
C801 C802 1.366 . S
C802 C801 1.366 . S
C802 C803 1.414 1_655 S
C802 C805 1.499 . S
C803 H777 0.950 . S
C803 C802 1.414 1_455 S
C803 C804 1.374 . S
C804 H778 0.950 . S
C804 C800 1.385 . S
C804 C803 1.374 . S
C805 C802 1.499 . S
C805 C806 1.373 . S
C805 C807 1.389 1_556 S
C806 H779 0.950 1_655 S
C806 C792 1.377 1_556 S
C806 C805 1.373 . S
C807 C791 1.377 . S
C807 C805 1.389 1_554 S
C807 C808 1.524 . S
C808 C807 1.524 . S
C808 C809 1.397 . S
C808 C813 1.363 . S
C809 H780 0.950 . S
C809 C808 1.397 . S
C809 C810 1.334 . S
C810 H781 0.950 . S
C810 C809 1.334 . S
C810 C811 1.287 . S
C811 C810 1.287 . S
C811 C812 1.524 . S
C811 H814 0.999 . S
C812 H782 0.950 . S
C812 C811 1.524 . S
C812 C813 1.415 . S
C813 H783 0.950 . S
C813 C808 1.363 . S
C813 C812 1.415 . S
H814 C811 0.999 . S
H815 C796 0.913 . S
H816 C834 0.951 . S
H817 C836 0.951 . S
H818 C838 0.950 . S
H819 C839 0.950 . S
H820 C841 0.950 . S
H821 C844 0.950 . S
H822 C845 0.950 . S
H823 C847 0.950 . S
H824 C848 0.950 . S
H825 C849 0.951 . S
H826 C851 0.951 . S
H827 C853 0.950 . S
H828 C854 0.950 . S
H829 C856 0.950 . S
H830 C859 0.950 . S
H831 C860 0.950 . S
H832 C862 0.950 . S
H833 C863 0.950 . S
C834 H816 0.951 . S
C834 C835 1.366 . S
C834 C836 1.388 . S
C835 C834 1.366 . S
C835 C839 1.385 . S
C836 H817 0.951 . S
C836 C834 1.388 . S
C836 C837 1.366 . S
C837 C836 1.366 . S
C837 C838 1.414 . S
C837 C840 1.499 . S
C838 H818 0.950 . S
C838 C837 1.414 . S
C838 C839 1.374 . S
C839 H819 0.950 . S
C839 C835 1.385 . S
C839 C838 1.374 . S
C840 C837 1.499 . S
C840 C841 1.373 . S
C840 C842 1.389 . S
C841 H820 0.950 . S
C841 C840 1.373 . S
C841 C857 1.377 . S
C842 C840 1.389 . S
C842 C843 1.524 . S
C842 C856 1.377 . S
C843 C842 1.524 . S
C843 C844 1.397 . S
C843 C848 1.363 . S
C844 H821 0.950 . S
C844 C843 1.397 . S
C844 C845 1.334 . S
C845 H822 0.950 . S
C845 C844 1.334 . S
C845 C846 1.287 . S
C846 C845 1.287 . S
C846 C847 1.524 . S
C846 H865 0.913 . S
C847 H823 0.950 . S
C847 C846 1.524 . S
C847 C848 1.415 . S
C848 H824 0.950 . S
C848 C843 1.363 . S
C848 C847 1.415 . S
C849 H825 0.951 . S
C849 C850 1.366 . S
C849 C851 1.388 . S
C850 C849 1.366 . S
C850 C854 1.385 1_655 S
C851 H826 0.951 . S
C851 C849 1.388 . S
C851 C852 1.366 1_655 S
C852 C851 1.366 1_455 S
C852 C853 1.414 . S
C852 C855 1.499 . S
C853 H827 0.950 . S
C853 C852 1.414 . S
C853 C854 1.374 . S
C854 H828 0.950 . S
C854 C850 1.385 1_455 S
C854 C853 1.374 . S
C855 C852 1.499 . S
C855 C856 1.373 . S
C855 C857 1.389 . S
C856 H829 0.950 . S
C856 C842 1.377 . S
C856 C855 1.373 . S
C857 C841 1.377 . S
C857 C855 1.389 . S
C857 C858 1.524 . S
C858 C857 1.524 . S
C858 C859 1.397 . S
C858 C863 1.363 1_455 S
C859 H830 0.950 . S
C859 C858 1.397 . S
C859 C860 1.334 . S
C860 H831 0.950 . S
C860 C859 1.334 . S
C860 C861 1.245 1_455 S
C861 C860 1.245 1_655 S
C861 C862 1.551 . S
C861 H864 1.026 . S
C862 H832 0.950 . S
C862 C861 1.551 . S
C862 C863 1.415 . S
C863 H833 0.950 . S
C863 C858 1.363 1_655 S
C863 C862 1.415 . S
H864 C861 1.026 . S
H865 C846 0.913 . S
H866 C884 0.951 . S
H867 C886 0.951 . S
H868 C888 0.950 . S
H869 C889 0.950 . S
H870 C891 0.950 1_545 S
H871 C894 0.950 . S
H872 C895 0.950 . S
H873 C897 0.950 . S
H874 C898 0.950 . S
H875 C899 0.951 . S
H876 C901 0.951 . S
H877 C903 0.950 . S
H878 C904 0.950 . S
H879 C906 0.950 . S
H880 C909 0.950 . S
H881 C910 0.950 . S
H882 C912 0.950 . S
H883 C913 0.950 1_565 S
C884 H866 0.951 . S
C884 C885 1.366 . S
C884 C886 1.388 . S
C885 C884 1.366 . S
C885 C889 1.385 1_545 S
C886 H867 0.951 . S
C886 C884 1.388 . S
C886 C887 1.366 1_545 S
C887 C886 1.366 1_565 S
C887 C888 1.414 . S
C887 C890 1.499 . S
C888 H868 0.950 . S
C888 C887 1.414 . S
C888 C889 1.374 . S
C889 H869 0.950 . S
C889 C885 1.385 1_565 S
C889 C888 1.374 . S
C890 C887 1.499 . S
C890 C891 1.373 . S
C890 C892 1.389 . S
C891 H870 0.950 1_565 S
C891 C890 1.373 . S
C891 C907 1.377 . S
C892 C890 1.389 . S
C892 C893 1.524 . S
C892 C906 1.377 . S
C893 C892 1.524 . S
C893 C894 1.397 . S
C893 C898 1.363 . S
C894 H871 0.950 . S
C894 C893 1.397 . S
C894 C895 1.334 . S
C895 H872 0.950 . S
C895 C894 1.334 . S
C895 C896 1.287 . S
C896 C895 1.287 . S
C896 C897 1.524 . S
C896 H915 0.913 . S
C897 H873 0.950 . S
C897 C896 1.524 . S
C897 C898 1.415 . S
C898 H874 0.950 . S
C898 C893 1.363 . S
C898 C897 1.415 . S
C899 H875 0.951 . S
C899 C900 1.366 . S
C899 C901 1.388 . S
C900 C899 1.366 . S
C900 C904 1.385 . S
C901 H876 0.951 . S
C901 C899 1.388 . S
C901 C902 1.366 . S
C902 C901 1.366 . S
C902 C903 1.414 . S
C902 C905 1.499 . S
C903 H877 0.950 . S
C903 C902 1.414 . S
C903 C904 1.374 . S
C904 H878 0.950 . S
C904 C900 1.385 . S
C904 C903 1.374 . S
C905 C902 1.499 . S
C905 C906 1.373 . S
C905 C907 1.389 . S
C906 H879 0.950 . S
C906 C892 1.377 . S
C906 C905 1.373 . S
C907 C891 1.377 . S
C907 C905 1.389 . S
C907 C908 1.524 1_565 S
C908 C907 1.524 1_545 S
C908 C909 1.397 . S
C908 C913 1.363 . S
C909 H880 0.950 . S
C909 C908 1.397 . S
C909 C910 1.334 . S
C910 H881 0.950 . S
C910 C909 1.334 . S
C910 C911 1.287 . S
C911 C910 1.287 . S
C911 C912 1.524 . S
C911 H914 0.999 . S
C912 H882 0.950 . S
C912 C911 1.524 . S
C912 C913 1.415 . S
C913 H883 0.950 1_545 S
C913 C908 1.363 . S
C913 C912 1.415 . S
H914 C911 0.999 . S
H915 C896 0.913 . S
H916 C934 0.951 . S
H917 C936 0.951 . S
H918 C938 0.950 . S
H919 C939 0.950 . S
H920 C941 0.950 . S
H921 C944 0.950 . S
H922 C945 0.950 . S
H923 C947 0.950 . S
H924 C948 0.950 . S
H925 C949 0.951 . S
H926 C951 0.951 . S
H927 C953 0.950 . S
H928 C954 0.950 . S
H929 C956 0.950 . S
H930 C959 0.950 . S
H931 C960 0.950 . S
H932 C962 0.950 . S
H933 C963 0.950 . S
C934 H916 0.951 . S
C934 C935 1.366 . S
C934 C936 1.388 . S
C935 C934 1.366 . S
C935 C939 1.385 . S
C936 H917 0.951 . S
C936 C934 1.388 . S
C936 C937 1.366 . S
C937 C936 1.366 . S
C937 C938 1.414 . S
C937 C940 1.499 . S
C938 H918 0.950 . S
C938 C937 1.414 . S
C938 C939 1.374 . S
C939 H919 0.950 . S
C939 C935 1.385 . S
C939 C938 1.374 . S
C940 C937 1.499 . S
C940 C941 1.373 . S
C940 C942 1.389 . S
C941 H920 0.950 . S
C941 C940 1.373 . S
C941 C957 1.377 . S
C942 C940 1.389 . S
C942 C943 1.524 . S
C942 C956 1.377 . S
C943 C942 1.524 . S
C943 C944 1.397 . S
C943 C948 1.363 . S
C944 H921 0.950 . S
C944 C943 1.397 . S
C944 C945 1.334 . S
C945 H922 0.950 . S
C945 C944 1.334 . S
C945 C946 1.287 . S
C946 C945 1.287 . S
C946 C947 1.524 . S
C946 H965 0.913 . S
C947 H923 0.950 . S
C947 C946 1.524 . S
C947 C948 1.415 . S
C948 H924 0.950 . S
C948 C943 1.363 . S
C948 C947 1.415 . S
C949 H925 0.951 . S
C949 C950 1.366 . S
C949 C951 1.388 . S
C950 C949 1.366 . S
C950 C954 1.385 . S
C951 H926 0.951 . S
C951 C949 1.388 . S
C951 C952 1.366 . S
C952 C951 1.366 . S
C952 C953 1.414 . S
C952 C955 1.499 . S
C953 H927 0.950 . S
C953 C952 1.414 . S
C953 C954 1.374 . S
C954 H928 0.950 . S
C954 C950 1.385 . S
C954 C953 1.374 . S
C955 C952 1.499 . S
C955 C956 1.373 . S
C955 C957 1.389 . S
C956 H929 0.950 . S
C956 C942 1.377 . S
C956 C955 1.373 . S
C957 C941 1.377 . S
C957 C955 1.389 . S
C957 C958 1.524 . S
C958 C957 1.524 . S
C958 C959 1.397 . S
C958 C963 1.363 . S
C959 H930 0.950 . S
C959 C958 1.397 . S
C959 C960 1.334 . S
C960 H931 0.950 . S
C960 C959 1.334 . S
C960 C961 1.287 . S
C961 C960 1.287 . S
C961 C962 1.524 . S
C961 H964 0.999 . S
C962 H932 0.950 . S
C962 C961 1.524 . S
C962 C963 1.415 . S
C963 H933 0.950 . S
C963 C958 1.363 . S
C963 C962 1.415 . S
H964 C961 0.999 . S
H965 C946 0.913 . S
H966 C984 0.951 . S
H967 C986 0.951 . S
H968 C988 0.950 . S
H969 C989 0.950 . S
H970 C991 0.950 . S
H971 C994 0.950 . S
H972 C995 0.950 . S
H973 C997 0.950 . S
H974 C998 0.950 . S
H975 C999 0.951 . S
H976 C1001 0.951 . S
H977 C1003 0.950 . S
H978 C1004 0.950 . S
H979 C1006 0.950 . S
H980 C1009 0.950 . S
H981 C1010 0.950 . S
H982 C1012 0.950 . S
H983 C1013 0.950 . S
C984 H966 0.951 . S
C984 C985 1.366 . S
C984 C986 1.388 . S
C985 C984 1.366 . S
C985 C989 1.385 . S
C986 H967 0.951 . S
C986 C984 1.388 . S
C986 C987 1.366 . S
C987 C986 1.366 . S
C987 C988 1.414 . S
C987 C990 1.499 . S
C988 H968 0.950 . S
C988 C987 1.414 . S
C988 C989 1.374 . S
C989 H969 0.950 . S
C989 C985 1.385 . S
C989 C988 1.374 . S
C990 C987 1.499 . S
C990 C991 1.373 . S
C990 C992 1.389 . S
C991 H970 0.950 . S
C991 C990 1.373 . S
C991 C1007 1.377 . S
C992 C990 1.389 . S
C992 C993 1.524 . S
C992 C1006 1.377 . S
C993 C992 1.524 . S
C993 C994 1.397 . S
C993 C998 1.363 . S
C994 H971 0.950 . S
C994 C993 1.397 . S
C994 C995 1.334 . S
C995 H972 0.950 . S
C995 C994 1.334 . S
C995 C996 1.287 . S
C996 C995 1.287 . S
C996 C997 1.524 . S
C996 H1015 0.913 . S
C997 H973 0.950 . S
C997 C996 1.524 . S
C997 C998 1.415 . S
C998 H974 0.950 . S
C998 C993 1.363 . S
C998 C997 1.415 . S
C999 H975 0.951 . S
C999 C1000 1.366 . S
C999 C1001 1.388 . S
C1000 C999 1.366 . S
C1000 C1004 1.385 . S
C1001 H976 0.951 . S
C1001 C999 1.388 . S
C1001 C1002 1.366 . S
C1002 C1001 1.366 . S
C1002 C1003 1.414 . S
C1002 C1005 1.499 . S
C1003 H977 0.950 . S
C1003 C1002 1.414 . S
C1003 C1004 1.374 . S
C1004 H978 0.950 . S
C1004 C1000 1.385 . S
C1004 C1003 1.374 . S
C1005 C1002 1.499 . S
C1005 C1006 1.373 . S
C1005 C1007 1.389 . S
C1006 H979 0.950 . S
C1006 C992 1.377 . S
C1006 C1005 1.373 . S
C1007 C991 1.377 . S
C1007 C1005 1.389 . S
C1007 C1008 1.524 . S
C1008 C1007 1.524 . S
C1008 C1009 1.397 . S
C1008 C1013 1.363 . S
C1009 H980 0.950 . S
C1009 C1008 1.397 . S
C1009 C1010 1.334 . S
C1010 H981 0.950 . S
C1010 C1009 1.334 . S
C1010 C1011 1.287 . S
C1011 C1010 1.287 . S
C1011 C1012 1.524 . S
C1011 H1014 0.999 . S
C1012 H982 0.950 . S
C1012 C1011 1.524 . S
C1012 C1013 1.415 . S
C1013 H983 0.950 . S
C1013 C1008 1.363 . S
C1013 C1012 1.415 . S
H1014 C1011 0.999 . S
H1015 C996 0.913 . S
H1016 C1034 0.951 . S
H1017 C1036 0.951 . S
H1018 C1038 0.950 . S
H1019 C1039 0.950 . S
H1020 C1041 0.950 . S
H1021 C1044 0.950 . S
H1022 C1045 0.950 . S
H1023 C1047 0.950 . S
H1024 C1048 0.950 1_655 S
H1025 C1049 0.951 1_554 S
H1026 C1051 0.951 . S
H1027 C1053 0.950 . S
H1028 C1054 0.950 . S
H1029 C1056 0.950 . S
H1030 C1059 0.939 1_556 S
H1031 C1060 0.950 . S
H1032 C1062 0.950 . S
H1033 C1063 0.950 . S
C1034 H1016 0.951 . S
C1034 C1035 1.366 . S
C1034 C1036 1.388 . S
C1035 C1034 1.366 . S
C1035 C1039 1.385 . S
C1036 H1017 0.951 . S
C1036 C1034 1.388 . S
C1036 C1037 1.366 . S
C1037 C1036 1.366 . S
C1037 C1038 1.414 . S
C1037 C1040 1.499 . S
C1038 H1018 0.950 . S
C1038 C1037 1.414 . S
C1038 C1039 1.374 . S
C1039 H1019 0.950 . S
C1039 C1035 1.385 . S
C1039 C1038 1.374 . S
C1040 C1037 1.499 . S
C1040 C1041 1.373 . S
C1040 C1042 1.389 . S
C1041 H1020 0.950 . S
C1041 C1040 1.373 . S
C1041 C1057 1.377 . S
C1042 C1040 1.389 . S
C1042 C1043 1.524 1_654 S
C1042 C1056 1.377 1_654 S
C1043 C1042 1.524 1_456 S
C1043 C1044 1.397 1_556 S
C1043 C1048 1.363 . S
C1044 H1021 0.950 . S
C1044 C1043 1.397 1_554 S
C1044 C1045 1.334 . S
C1045 H1022 0.950 . S
C1045 C1044 1.334 . S
C1045 C1046 1.287 1_554 S
C1046 C1045 1.287 1_556 S
C1046 C1047 1.524 . S
C1046 H1065 0.913 . S
C1047 H1023 0.950 . S
C1047 C1046 1.524 . S
C1047 C1048 1.415 . S
C1048 H1024 0.950 1_455 S
C1048 C1043 1.363 . S
C1048 C1047 1.415 . S
C1049 H1025 0.951 1_556 S
C1049 C1050 1.366 . S
C1049 C1051 1.388 1_556 S
C1050 C1049 1.366 . S
C1050 C1054 1.385 . S
C1051 H1026 0.951 . S
C1051 C1049 1.388 1_554 S
C1051 C1052 1.366 1_554 S
C1052 C1051 1.366 1_556 S
C1052 C1053 1.414 . S
C1052 C1055 1.500 1_556 S
C1053 H1027 0.950 . S
C1053 C1052 1.414 . S
C1053 C1054 1.374 . S
C1054 H1028 0.950 . S
C1054 C1050 1.385 . S
C1054 C1053 1.374 . S
C1055 C1052 1.500 1_554 S
C1055 C1056 1.374 1_554 S
C1055 C1057 1.388 1_455 S
C1056 H1029 0.950 . S
C1056 C1042 1.377 1_456 S
C1056 C1055 1.374 1_556 S
C1057 C1041 1.377 . S
C1057 C1055 1.388 1_655 S
C1057 C1058 1.524 . S
C1058 C1057 1.524 . S
C1058 C1059 1.397 . S
C1058 C1063 1.363 . S
C1059 H1030 0.939 1_554 S
C1059 C1058 1.397 . S
C1059 C1060 1.334 . S
C1060 H1031 0.950 . S
C1060 C1059 1.334 . S
C1060 C1061 1.287 . S
C1061 C1060 1.287 . S
C1061 C1062 1.524 . S
C1061 H1064 0.999 . S
C1062 H1032 0.950 . S
C1062 C1061 1.524 . S
C1062 C1063 1.415 . S
C1063 H1033 0.950 . S
C1063 C1058 1.363 . S
C1063 C1062 1.415 . S
H1064 C1061 0.999 . S
H1065 C1046 0.913 . S
H1066 C1084 0.951 . S
H1067 C1086 0.951 . S
H1068 C1088 0.950 . S
H1069 C1089 0.950 . S
H1070 C1091 0.950 . S
H1071 C1094 0.950 . S
H1072 C1095 0.950 . S
H1073 C1097 0.950 1_556 S
H1074 C1098 0.950 1_556 S
H1075 C1099 0.951 . S
H1076 C1101 0.951 . S
H1077 C1103 0.950 . S
H1078 C1104 0.950 . S
H1079 C1106 0.950 . S
H1080 C1109 0.950 . S
H1081 C1110 0.950 . S
H1082 C1112 0.950 . S
H1083 C1113 0.950 . S
C1084 H1066 0.951 . S
C1084 C1085 1.366 . S
C1084 C1086 1.388 1_565 S
C1085 C1084 1.366 . S
C1085 C1089 1.385 1_565 S
C1086 H1067 0.951 . S
C1086 C1084 1.388 1_545 S
C1086 C1087 1.366 . S
C1087 C1086 1.366 . S
C1087 C1088 1.414 . S
C1087 C1090 1.499 . S
C1088 H1068 0.950 . S
C1088 C1087 1.414 . S
C1088 C1089 1.374 . S
C1089 H1069 0.950 . S
C1089 C1085 1.385 1_545 S
C1089 C1088 1.374 . S
C1090 C1087 1.499 . S
C1090 C1091 1.373 1_545 S
C1090 C1092 1.389 . S
C1091 H1070 0.950 . S
C1091 C1090 1.373 1_565 S
C1091 C1107 1.385 . S
C1092 C1090 1.389 . S
C1092 C1093 1.524 . S
C1092 C1106 1.377 . S
C1093 C1092 1.524 . S
C1093 C1094 1.397 . S
C1093 C1098 1.363 . S
C1094 H1071 0.950 . S
C1094 C1093 1.397 . S
C1094 C1095 1.334 . S
C1095 H1072 0.950 . S
C1095 C1094 1.334 . S
C1095 C1096 1.287 . S
C1096 C1095 1.287 . S
C1096 C1097 1.524 . S
C1096 H1115 0.913 . S
C1097 H1073 0.950 1_554 S
C1097 C1096 1.524 . S
C1097 C1098 1.415 . S
C1098 H1074 0.950 1_554 S
C1098 C1093 1.363 . S
C1098 C1097 1.415 . S
C1099 H1075 0.951 . S
C1099 C1100 1.366 1_554 S
C1099 C1101 1.388 . S
C1100 C1099 1.366 1_556 S
C1100 C1104 1.385 . S
C1101 H1076 0.951 . S
C1101 C1099 1.388 . S
C1101 C1102 1.366 . S
C1102 C1101 1.366 . S
C1102 C1103 1.414 1_554 S
C1102 C1105 1.499 . S
C1103 H1077 0.950 . S
C1103 C1102 1.414 1_556 S
C1103 C1104 1.374 . S
C1104 H1078 0.950 . S
C1104 C1100 1.385 . S
C1104 C1103 1.374 . S
C1105 C1102 1.499 . S
C1105 C1106 1.373 . S
C1105 C1107 1.354 1_545 S
C1106 H1079 0.950 . S
C1106 C1092 1.377 . S
C1106 C1105 1.373 . S
C1107 C1091 1.385 . S
C1107 C1105 1.354 1_565 S
C1107 C1108 1.556 . S
C1108 C1107 1.556 . S
C1108 C1109 1.397 . S
C1108 C1113 1.363 . S
C1109 H1080 0.950 . S
C1109 C1108 1.397 . S
C1109 C1110 1.334 . S
C1110 H1081 0.950 . S
C1110 C1109 1.334 . S
C1110 C1111 1.287 . S
C1111 C1110 1.287 . S
C1111 C1112 1.524 . S
C1111 H1114 0.999 . S
C1112 H1082 0.950 . S
C1112 C1111 1.524 . S
C1112 C1113 1.415 . S
C1113 H1083 0.950 . S
C1113 C1108 1.363 . S
C1113 C1112 1.415 . S
H1114 C1111 0.999 . S
H1115 C1096 0.913 . S
H1116 C1134 0.951 . S
H1117 C1136 0.951 . S
H1118 C1138 0.950 . S
H1119 C1139 0.950 . S
H1120 C1141 0.950 . S
H1121 C1144 0.950 . S
H1122 C1145 0.950 . S
H1123 C1147 0.950 . S
H1124 C1148 0.950 . S
H1125 C1149 0.951 . S
H1126 C1151 0.951 . S
H1127 C1153 0.950 . S
H1128 C1154 0.950 . S
H1129 C1156 0.950 . S
H1130 C1159 0.950 . S
H1131 C1160 0.950 . S
H1132 C1162 0.950 . S
H1133 C1163 0.950 . S
C1134 H1116 0.951 . S
C1134 C1135 1.366 . S
C1134 C1136 1.388 . S
C1135 C1134 1.366 . S
C1135 C1139 1.385 . S
C1136 H1117 0.951 . S
C1136 C1134 1.388 . S
C1136 C1137 1.366 . S
C1137 C1136 1.366 . S
C1137 C1138 1.414 . S
C1137 C1140 1.499 . S
C1138 H1118 0.950 . S
C1138 C1137 1.414 . S
C1138 C1139 1.374 . S
C1139 H1119 0.950 . S
C1139 C1135 1.385 . S
C1139 C1138 1.374 . S
C1140 C1137 1.499 . S
C1140 C1141 1.373 . S
C1140 C1142 1.389 . S
C1141 H1120 0.950 . S
C1141 C1140 1.373 . S
C1141 C1157 1.377 . S
C1142 C1140 1.389 . S
C1142 C1143 1.524 . S
C1142 C1156 1.377 . S
C1143 C1142 1.524 . S
C1143 C1144 1.397 . S
C1143 C1148 1.363 . S
C1144 H1121 0.950 . S
C1144 C1143 1.397 . S
C1144 C1145 1.334 1_556 S
C1145 H1122 0.950 . S
C1145 C1144 1.334 1_554 S
C1145 C1146 1.287 . S
C1146 C1145 1.287 . S
C1146 C1147 1.524 . S
C1146 H1165 0.913 . S
C1147 H1123 0.950 . S
C1147 C1146 1.524 . S
C1147 C1148 1.415 1_554 S
C1148 H1124 0.950 . S
C1148 C1143 1.363 . S
C1148 C1147 1.415 1_556 S
C1149 H1125 0.951 . S
C1149 C1150 1.366 . S
C1149 C1151 1.388 . S
C1150 C1149 1.366 . S
C1150 C1154 1.385 . S
C1151 H1126 0.951 . S
C1151 C1149 1.388 . S
C1151 C1152 1.366 . S
C1152 C1151 1.366 . S
C1152 C1153 1.414 . S
C1152 C1155 1.499 . S
C1153 H1127 0.950 . S
C1153 C1152 1.414 . S
C1153 C1154 1.374 . S
C1154 H1128 0.950 . S
C1154 C1150 1.385 . S
C1154 C1153 1.374 . S
C1155 C1152 1.499 . S
C1155 C1156 1.373 . S
C1155 C1157 1.389 . S
C1156 H1129 0.950 . S
C1156 C1142 1.377 . S
C1156 C1155 1.373 . S
C1157 C1141 1.377 . S
C1157 C1155 1.389 . S
C1157 C1158 1.524 . S
C1158 C1157 1.524 . S
C1158 C1159 1.397 . S
C1158 C1163 1.363 . S
C1159 H1130 0.950 . S
C1159 C1158 1.397 . S
C1159 C1160 1.334 . S
C1160 H1131 0.950 . S
C1160 C1159 1.334 . S
C1160 C1161 1.287 . S
C1161 C1160 1.287 . S
C1161 C1162 1.524 . S
C1161 H1164 0.999 . S
C1162 H1132 0.950 . S
C1162 C1161 1.524 . S
C1162 C1163 1.415 . S
C1163 H1133 0.950 . S
C1163 C1158 1.363 . S
C1163 C1162 1.415 . S
H1164 C1161 0.999 . S
H1165 C1146 0.913 . S
H1166 C1184 0.951 . S
H1167 C1186 0.951 . S
H1168 C1188 0.950 . S
H1169 C1189 0.950 . S
H1170 C1191 0.950 . S
H1171 C1194 0.950 . S
H1172 C1195 0.950 . S
H1173 C1197 0.950 . S
H1174 C1198 0.950 . S
H1175 C1199 0.951 . S
H1176 C1201 0.951 . S
H1177 C1203 0.950 . S
H1178 C1204 0.950 1_554 S
H1179 C1206 0.950 . S
H1180 C1209 0.950 . S
H1181 C1210 0.950 . S
H1182 C1212 0.950 . S
H1183 C1213 0.950 . S
C1184 H1166 0.951 . S
C1184 C1185 1.366 . S
C1184 C1186 1.388 . S
C1185 C1184 1.366 . S
C1185 C1189 1.385 . S
C1186 H1167 0.951 . S
C1186 C1184 1.388 . S
C1186 C1187 1.366 . S
C1187 C1186 1.366 . S
C1187 C1188 1.414 . S
C1187 C1190 1.499 . S
C1188 H1168 0.950 . S
C1188 C1187 1.414 . S
C1188 C1189 1.374 . S
C1189 H1169 0.950 . S
C1189 C1185 1.385 . S
C1189 C1188 1.374 . S
C1190 C1187 1.499 . S
C1190 C1191 1.373 . S
C1190 C1192 1.389 . S
C1191 H1170 0.950 . S
C1191 C1190 1.373 . S
C1191 C1207 1.377 . S
C1192 C1190 1.389 . S
C1192 C1193 1.524 . S
C1192 C1206 1.377 . S
C1193 C1192 1.524 . S
C1193 C1194 1.397 . S
C1193 C1198 1.363 . S
C1194 H1171 0.950 . S
C1194 C1193 1.397 . S
C1194 C1195 1.334 . S
C1195 H1172 0.950 . S
C1195 C1194 1.334 . S
C1195 C1196 1.287 . S
C1196 C1195 1.287 . S
C1196 C1197 1.524 . S
C1196 H1215 0.913 . S
C1197 H1173 0.950 . S
C1197 C1196 1.524 . S
C1197 C1198 1.415 . S
C1198 H1174 0.950 . S
C1198 C1193 1.363 . S
C1198 C1197 1.415 . S
C1199 H1175 0.951 . S
C1199 C1200 1.366 . S
C1199 C1201 1.388 . S
C1200 C1199 1.366 . S
C1200 C1204 1.385 . S
C1201 H1176 0.951 . S
C1201 C1199 1.388 . S
C1201 C1202 1.366 1_556 S
C1202 C1201 1.366 1_554 S
C1202 C1203 1.414 . S
C1202 C1205 1.499 . S
C1203 H1177 0.950 . S
C1203 C1202 1.414 . S
C1203 C1204 1.374 1_554 S
C1204 H1178 0.950 1_556 S
C1204 C1200 1.385 . S
C1204 C1203 1.374 1_556 S
C1205 C1202 1.499 . S
C1205 C1206 1.373 . S
C1205 C1207 1.389 . S
C1206 H1179 0.950 . S
C1206 C1192 1.377 . S
C1206 C1205 1.373 . S
C1207 C1191 1.377 . S
C1207 C1205 1.389 . S
C1207 C1208 1.524 . S
C1208 C1207 1.524 . S
C1208 C1209 1.397 . S
C1208 C1213 1.363 1_554 S
C1209 H1180 0.950 . S
C1209 C1208 1.397 . S
C1209 C1210 1.334 . S
C1210 H1181 0.950 . S
C1210 C1209 1.334 . S
C1210 C1211 1.287 1_554 S
C1211 C1210 1.287 1_556 S
C1211 C1212 1.524 . S
C1211 H1214 0.999 . S
C1212 H1182 0.950 . S
C1212 C1211 1.524 . S
C1212 C1213 1.415 . S
C1213 H1183 0.950 . S
C1213 C1208 1.363 1_556 S
C1213 C1212 1.415 . S
H1214 C1211 0.999 . S
H1215 C1196 0.913 . S
H1216 C1234 0.951 . S
H1217 C1236 0.951 . S
H1218 C1238 0.950 . S
H1219 C1239 0.950 . S
H1220 C1241 0.950 . S
H1221 C1244 0.950 . S
H1222 C1245 0.950 1_655 S
H1223 C1247 0.950 . S
H1224 C1248 0.950 . S
H1225 C1249 0.951 . S
H1226 C1251 0.951 . S
H1227 C1253 0.950 . S
H1228 C1254 0.950 . S
H1229 C1256 0.950 . S
H1230 C1259 0.950 . S
H1231 C1260 0.950 . S
H1232 C1262 0.950 . S
H1233 C1263 0.950 . S
C1234 H1216 0.951 . S
C1234 C1235 1.384 . S
C1234 C1236 1.388 . S
C1235 C1234 1.384 . S
C1235 C1239 1.371 1_556 S
C1236 H1217 0.951 . S
C1236 C1234 1.388 . S
C1236 C1237 1.366 . S
C1237 C1236 1.366 . S
C1237 C1238 1.414 1_556 S
C1237 C1240 1.499 . S
C1238 H1218 0.950 . S
C1238 C1237 1.414 1_554 S
C1238 C1239 1.374 . S
C1239 H1219 0.950 . S
C1239 C1235 1.371 1_554 S
C1239 C1238 1.374 . S
C1240 C1237 1.499 . S
C1240 C1241 1.373 . S
C1240 C1242 1.389 . S
C1241 H1220 0.950 . S
C1241 C1240 1.373 . S
C1241 C1257 1.377 . S
C1242 C1240 1.389 . S
C1242 C1243 1.524 . S
C1242 C1256 1.377 . S
C1243 C1242 1.524 . S
C1243 C1244 1.397 . S
C1243 C1248 1.363 . S
C1244 H1221 0.950 . S
C1244 C1243 1.397 . S
C1244 C1245 1.334 . S
C1245 H1222 0.950 1_455 S
C1245 C1244 1.334 . S
C1245 C1246 1.287 . S
C1246 C1245 1.287 . S
C1246 C1247 1.524 . S
C1246 H1265 0.913 1_455 S
C1247 H1223 0.950 . S
C1247 C1246 1.524 . S
C1247 C1248 1.415 . S
C1248 H1224 0.950 . S
C1248 C1243 1.363 . S
C1248 C1247 1.415 . S
C1249 H1225 0.951 . S
C1249 C1250 1.366 . S
C1249 C1251 1.388 . S
C1250 C1249 1.366 . S
C1250 C1254 1.385 . S
C1251 H1226 0.951 . S
C1251 C1249 1.388 . S
C1251 C1252 1.366 . S
C1252 C1251 1.366 . S
C1252 C1253 1.414 . S
C1252 C1255 1.499 . S
C1253 H1227 0.950 . S
C1253 C1252 1.414 . S
C1253 C1254 1.374 . S
C1254 H1228 0.950 . S
C1254 C1250 1.385 . S
C1254 C1253 1.374 . S
C1255 C1252 1.499 . S
C1255 C1256 1.373 . S
C1255 C1257 1.389 . S
C1256 H1229 0.950 . S
C1256 C1242 1.377 . S
C1256 C1255 1.373 . S
C1257 C1241 1.377 . S
C1257 C1255 1.389 . S
C1257 C1258 1.524 . S
C1258 C1257 1.524 . S
C1258 C1259 1.397 . S
C1258 C1263 1.363 1_556 S
C1259 H1230 0.950 . S
C1259 C1258 1.397 . S
C1259 C1260 1.334 . S
C1260 H1231 0.950 . S
C1260 C1259 1.334 . S
C1260 C1261 1.287 1_556 S
C1261 C1260 1.287 1_554 S
C1261 C1262 1.524 . S
C1261 H1264 0.999 . S
C1262 H1232 0.950 . S
C1262 C1261 1.524 . S
C1262 C1263 1.415 . S
C1263 H1233 0.950 . S
C1263 C1258 1.363 1_554 S
C1263 C1262 1.415 . S
H1264 C1261 0.999 . S
H1265 C1246 0.913 1_655 S
H1266 C1284 0.951 . S
H1267 C1286 0.951 . S
H1268 C1288 0.950 . S
H1269 C1289 0.950 . S
H1270 C1291 0.950 . S
H1271 C1294 0.950 . S
H1272 C1295 0.950 . S
H1273 C1297 0.950 . S
H1274 C1298 0.950 . S
H1275 C1299 0.951 . S
H1276 C1301 0.951 . S
H1277 C1303 0.950 . S
H1278 C1304 0.950 . S
H1279 C1306 0.950 . S
H1280 C1309 0.950 . S
H1281 C1310 0.950 . S
H1282 C1312 0.950 . S
H1283 C1313 0.950 . S
C1284 H1266 0.951 . S
C1284 C1285 1.335 1_565 S
C1284 C1286 1.388 . S
C1285 C1284 1.335 1_545 S
C1285 C1289 1.418 . S
C1286 H1267 0.951 . S
C1286 C1284 1.388 . S
C1286 C1287 1.366 1_565 S
C1287 C1286 1.366 1_545 S
C1287 C1288 1.414 . S
C1287 C1290 1.499 . S
C1288 H1268 0.950 . S
C1288 C1287 1.414 . S
C1288 C1289 1.374 . S
C1289 H1269 0.950 . S
C1289 C1285 1.418 . S
C1289 C1288 1.374 . S
C1290 C1287 1.499 . S
C1290 C1291 1.373 . S
C1290 C1292 1.389 1_545 S
C1291 H1270 0.950 . S
C1291 C1290 1.373 . S
C1291 C1307 1.377 . S
C1292 C1290 1.389 1_565 S
C1292 C1293 1.524 1_556 S
C1292 C1306 1.377 . S
C1293 C1292 1.524 1_554 S
C1293 C1294 1.397 1_565 S
C1293 C1298 1.363 . S
C1294 H1271 0.950 . S
C1294 C1293 1.397 1_545 S
C1294 C1295 1.334 . S
C1295 H1272 0.950 . S
C1295 C1294 1.334 . S
C1295 C1296 1.287 1_545 S
C1296 C1295 1.287 1_565 S
C1296 C1297 1.524 . S
C1296 H1315 0.913 . S
C1297 H1273 0.950 . S
C1297 C1296 1.524 . S
C1297 C1298 1.415 . S
C1298 H1274 0.950 . S
C1298 C1293 1.363 . S
C1298 C1297 1.415 . S
C1299 H1275 0.951 . S
C1299 C1300 1.366 . S
C1299 C1301 1.388 . S
C1300 C1299 1.366 . S
C1300 C1304 1.385 1_545 S
C1301 H1276 0.951 . S
C1301 C1299 1.388 . S
C1301 C1302 1.366 . S
C1302 C1301 1.366 . S
C1302 C1303 1.414 1_545 S
C1302 C1305 1.499 . S
C1303 H1277 0.950 . S
C1303 C1302 1.414 1_565 S
C1303 C1304 1.374 . S
C1304 H1278 0.950 . S
C1304 C1300 1.385 1_565 S
C1304 C1303 1.374 . S
C1305 C1302 1.499 . S
C1305 C1306 1.373 1_545 S
C1305 C1307 1.389 . S
C1306 H1279 0.950 . S
C1306 C1292 1.377 . S
C1306 C1305 1.373 1_565 S
C1307 C1291 1.377 . S
C1307 C1305 1.389 . S
C1307 C1308 1.524 . S
C1308 C1307 1.524 . S
C1308 C1309 1.397 1_545 S
C1308 C1313 1.363 . S
C1309 H1280 0.950 . S
C1309 C1308 1.397 1_565 S
C1309 C1310 1.334 . S
C1310 H1281 0.950 . S
C1310 C1309 1.334 . S
C1310 C1311 1.287 1_565 S
C1311 C1310 1.287 1_545 S
C1311 C1312 1.524 . S
C1311 H1314 0.999 . S
C1312 H1282 0.950 . S
C1312 C1311 1.524 . S
C1312 C1313 1.415 . S
C1313 H1283 0.950 . S
C1313 C1308 1.363 . S
C1313 C1312 1.415 . S
H1314 C1311 0.999 . S
H1315 C1296 0.913 . S
H1316 C1334 0.951 . S
H1317 C1336 0.951 . S
H1318 C1338 0.950 . S
H1319 C1339 0.950 . S
H1320 C1341 0.950 . S
H1321 C1344 0.950 . S
H1322 C1345 0.950 . S
H1323 C1347 0.950 . S
H1324 C1348 0.950 . S
H1325 C1349 0.951 . S
H1326 C1351 0.951 . S
H1327 C1353 0.950 . S
H1328 C1354 0.959 . S
H1329 C1356 0.950 . S
H1330 C1359 0.950 . S
H1331 C1360 0.950 . S
H1332 C1362 0.950 . S
H1333 C1363 0.950 . S
C1334 H1316 0.951 . S
C1334 C1335 1.366 . S
C1334 C1336 1.388 . S
C1335 C1334 1.366 . S
C1335 C1339 1.385 . S
C1336 H1317 0.951 . S
C1336 C1334 1.388 . S
C1336 C1337 1.366 . S
C1337 C1336 1.366 . S
C1337 C1338 1.414 . S
C1337 C1340 1.499 . S
C1338 H1318 0.950 . S
C1338 C1337 1.414 . S
C1338 C1339 1.374 . S
C1339 H1319 0.950 . S
C1339 C1335 1.385 . S
C1339 C1338 1.374 . S
C1340 C1337 1.499 . S
C1340 C1341 1.373 . S
C1340 C1342 1.389 . S
C1341 H1320 0.950 . S
C1341 C1340 1.373 . S
C1341 C1357 1.377 . S
C1342 C1340 1.389 . S
C1342 C1343 1.524 . S
C1342 C1356 1.377 . S
C1343 C1342 1.524 . S
C1343 C1344 1.397 . S
C1343 C1348 1.363 . S
C1344 H1321 0.950 . S
C1344 C1343 1.397 . S
C1344 C1345 1.334 . S
C1345 H1322 0.950 . S
C1345 C1344 1.334 . S
C1345 C1346 1.287 . S
C1346 C1345 1.287 . S
C1346 C1347 1.524 . S
C1346 H1365 0.913 . S
C1347 H1323 0.950 . S
C1347 C1346 1.524 . S
C1347 C1348 1.415 . S
C1348 H1324 0.950 . S
C1348 C1343 1.363 . S
C1348 C1347 1.415 . S
C1349 H1325 0.951 . S
C1349 C1350 1.366 . S
C1349 C1351 1.388 . S
C1350 C1349 1.366 . S
C1350 C1354 1.382 1_554 S
C1351 H1326 0.951 . S
C1351 C1349 1.388 . S
C1351 C1352 1.366 . S
C1352 C1351 1.366 . S
C1352 C1353 1.414 . S
C1352 C1355 1.499 . S
C1353 H1327 0.950 . S
C1353 C1352 1.414 . S
C1353 C1354 1.368 1_554 S
C1354 H1328 0.959 . S
C1354 C1350 1.382 1_556 S
C1354 C1353 1.368 1_556 S
C1355 C1352 1.499 . S
C1355 C1356 1.373 . S
C1355 C1357 1.389 . S
C1356 H1329 0.950 . S
C1356 C1342 1.377 . S
C1356 C1355 1.373 . S
C1357 C1341 1.377 . S
C1357 C1355 1.389 . S
C1357 C1358 1.524 . S
C1358 C1357 1.524 . S
C1358 C1359 1.397 . S
C1358 C1363 1.363 . S
C1359 H1330 0.950 . S
C1359 C1358 1.397 . S
C1359 C1360 1.334 . S
C1360 H1331 0.950 . S
C1360 C1359 1.334 . S
C1360 C1361 1.287 . S
C1361 C1360 1.287 . S
C1361 C1362 1.524 . S
C1361 H1364 0.999 . S
C1362 H1332 0.950 . S
C1362 C1361 1.524 . S
C1362 C1363 1.415 . S
C1363 H1333 0.950 . S
C1363 C1358 1.363 . S
C1363 C1362 1.415 . S
H1364 C1361 0.999 . S
H1365 C1346 0.913 . S
H1366 C1384 0.951 . S
H1367 C1386 0.951 . S
H1368 C1388 0.950 . S
H1369 C1389 0.950 . S
H1370 C1391 0.950 . S
H1371 C1394 0.950 . S
H1372 C1395 0.950 . S
H1373 C1397 0.950 . S
H1374 C1398 0.950 . S
H1375 C1399 0.951 . S
H1376 C1401 0.951 . S
H1377 C1403 0.950 . S
H1378 C1404 0.950 . S
H1379 C1406 0.950 . S
H1380 C1409 0.950 . S
H1381 C1410 0.950 . S
H1382 C1412 0.950 . S
H1383 C1413 0.950 . S
C1384 H1366 0.951 . S
C1384 C1385 1.366 . S
C1384 C1386 1.388 . S
C1385 C1384 1.366 . S
C1385 C1389 1.385 . S
C1386 H1367 0.951 . S
C1386 C1384 1.388 . S
C1386 C1387 1.366 . S
C1387 C1386 1.366 . S
C1387 C1388 1.414 . S
C1387 C1390 1.499 . S
C1388 H1368 0.950 . S
C1388 C1387 1.414 . S
C1388 C1389 1.374 . S
C1389 H1369 0.950 . S
C1389 C1385 1.385 . S
C1389 C1388 1.374 . S
C1390 C1387 1.499 . S
C1390 C1391 1.373 . S
C1390 C1392 1.389 . S
C1391 H1370 0.950 . S
C1391 C1390 1.373 . S
C1391 C1407 1.377 . S
C1392 C1390 1.389 . S
C1392 C1393 1.524 . S
C1392 C1406 1.377 . S
C1393 C1392 1.524 . S
C1393 C1394 1.397 . S
C1393 C1398 1.363 . S
C1394 H1371 0.950 . S
C1394 C1393 1.397 . S
C1394 C1395 1.334 . S
C1395 H1372 0.950 . S
C1395 C1394 1.334 . S
C1395 C1396 1.287 . S
C1396 C1395 1.287 . S
C1396 C1397 1.524 . S
C1396 H1415 0.913 . S
C1397 H1373 0.950 . S
C1397 C1396 1.524 . S
C1397 C1398 1.415 . S
C1398 H1374 0.950 . S
C1398 C1393 1.363 . S
C1398 C1397 1.415 . S
C1399 H1375 0.951 . S
C1399 C1400 1.366 . S
C1399 C1401 1.388 . S
C1400 C1399 1.366 . S
C1400 C1404 1.385 . S
C1401 H1376 0.951 . S
C1401 C1399 1.388 . S
C1401 C1402 1.366 . S
C1402 C1401 1.366 . S
C1402 C1403 1.414 . S
C1402 C1405 1.499 . S
C1403 H1377 0.950 . S
C1403 C1402 1.414 . S
C1403 C1404 1.374 . S
C1404 H1378 0.950 . S
C1404 C1400 1.385 . S
C1404 C1403 1.374 . S
C1405 C1402 1.499 . S
C1405 C1406 1.373 . S
C1405 C1407 1.389 . S
C1406 H1379 0.950 . S
C1406 C1392 1.377 . S
C1406 C1405 1.373 . S
C1407 C1391 1.377 . S
C1407 C1405 1.389 . S
C1407 C1408 1.524 . S
C1408 C1407 1.524 . S
C1408 C1409 1.397 . S
C1408 C1413 1.363 1_556 S
C1409 H1380 0.950 . S
C1409 C1408 1.397 . S
C1409 C1410 1.334 1_556 S
C1410 H1381 0.950 . S
C1410 C1409 1.334 1_554 S
C1410 C1411 1.287 . S
C1411 C1410 1.287 . S
C1411 C1412 1.524 . S
C1411 H1414 0.999 . S
C1412 H1382 0.950 . S
C1412 C1411 1.524 . S
C1412 C1413 1.415 . S
C1413 H1383 0.950 . S
C1413 C1408 1.363 1_554 S
C1413 C1412 1.415 . S
H1414 C1411 0.999 . S
H1415 C1396 0.913 . S
H1416 C1434 0.951 . S
H1417 C1436 0.951 . S
H1418 C1438 0.950 . S
H1419 C1439 0.950 . S
H1420 C1441 0.950 . S
H1421 C1444 0.950 . S
H1422 C1445 0.950 . S
H1423 C1447 0.950 . S
H1424 C1448 0.950 . S
H1425 C1449 0.951 1_455 S
H1426 C1451 0.960 . S
H1427 C1453 0.950 . S
H1428 C1454 0.950 . S
H1429 C1456 0.950 . S
H1430 C1459 0.950 . S
H1431 C1460 0.950 . S
H1432 C1462 0.950 . S
H1433 C1463 0.950 . S
C1434 H1416 0.951 . S
C1434 C1435 1.366 . S
C1434 C1436 1.388 . S
C1435 C1434 1.366 . S
C1435 C1439 1.385 . S
C1436 H1417 0.951 . S
C1436 C1434 1.388 . S
C1436 C1437 1.366 . S
C1437 C1436 1.366 . S
C1437 C1438 1.414 . S
C1437 C1440 1.499 . S
C1438 H1418 0.950 . S
C1438 C1437 1.414 . S
C1438 C1439 1.374 . S
C1439 H1419 0.950 . S
C1439 C1435 1.385 . S
C1439 C1438 1.374 . S
C1440 C1437 1.499 . S
C1440 C1441 1.373 . S
C1440 C1442 1.389 . S
C1441 H1420 0.950 . S
C1441 C1440 1.373 . S
C1441 C1457 1.377 . S
C1442 C1440 1.389 . S
C1442 C1443 1.524 . S
C1442 C1456 1.377 . S
C1443 C1442 1.524 . S
C1443 C1444 1.397 1_655 S
C1443 C1448 1.363 . S
C1444 H1421 0.950 . S
C1444 C1443 1.397 1_455 S
C1444 C1445 1.334 . S
C1445 H1422 0.950 . S
C1445 C1444 1.334 . S
C1445 C1446 1.287 . S
C1446 C1445 1.287 . S
C1446 C1447 1.524 1_455 S
C1446 H1465 0.913 . S
C1447 H1423 0.950 . S
C1447 C1446 1.524 1_655 S
C1447 C1448 1.415 . S
C1448 H1424 0.950 . S
C1448 C1443 1.363 . S
C1448 C1447 1.415 . S
C1449 H1425 0.951 1_655 S
C1449 C1450 1.366 . S
C1449 C1451 1.388 . S
C1450 C1449 1.366 . S
C1450 C1454 1.385 . S
C1451 H1426 0.960 . S
C1451 C1449 1.388 . S
C1451 C1452 1.366 . S
C1452 C1451 1.366 . S
C1452 C1453 1.414 . S
C1452 C1455 1.499 . S
C1453 H1427 0.950 . S
C1453 C1452 1.414 . S
C1453 C1454 1.374 . S
C1454 H1428 0.950 . S
C1454 C1450 1.385 . S
C1454 C1453 1.374 . S
C1455 C1452 1.499 . S
C1455 C1456 1.373 . S
C1455 C1457 1.389 . S
C1456 H1429 0.950 . S
C1456 C1442 1.377 . S
C1456 C1455 1.373 . S
C1457 C1441 1.377 . S
C1457 C1455 1.389 . S
C1457 C1458 1.524 . S
C1458 C1457 1.524 . S
C1458 C1459 1.397 . S
C1458 C1463 1.363 . S
C1459 H1430 0.950 . S
C1459 C1458 1.397 . S
C1459 C1460 1.334 . S
C1460 H1431 0.950 . S
C1460 C1459 1.334 . S
C1460 C1461 1.287 . S
C1461 C1460 1.287 . S
C1461 C1462 1.524 . S
C1461 H1464 0.999 . S
C1462 H1432 0.950 . S
C1462 C1461 1.524 . S
C1462 C1463 1.415 . S
C1463 H1433 0.950 . S
C1463 C1458 1.363 . S
C1463 C1462 1.415 . S
H1464 C1461 0.999 . S
H1465 C1446 0.913 . S
H1466 C1484 0.951 . S
H1467 C1486 0.951 . S
H1468 C1488 0.950 . S
H1469 C1489 0.950 . S
H1470 C1491 0.950 . S
H1471 C1494 0.950 . S
H1472 C1495 0.950 . S
H1473 C1497 0.950 . S
H1474 C1498 0.950 . S
H1475 C1499 0.951 . S
H1476 C1501 0.951 . S
H1477 C1503 0.950 . S
H1478 C1504 0.951 . S
H1479 C1506 0.950 . S
H1480 C1509 0.950 . S
H1481 C1510 0.950 . S
H1482 C1512 0.950 . S
H1483 C1513 0.950 . S
C1484 H1466 0.951 . S
C1484 C1485 1.365 1_545 S
C1484 C1486 1.388 . S
C1485 C1484 1.365 1_565 S
C1485 C1489 1.388 . S
C1486 H1467 0.951 . S
C1486 C1484 1.388 . S
C1486 C1487 1.366 1_545 S
C1487 C1486 1.366 1_565 S
C1487 C1488 1.414 . S
C1487 C1490 1.499 . S
C1488 H1468 0.950 . S
C1488 C1487 1.414 . S
C1488 C1489 1.374 . S
C1489 H1469 0.950 . S
C1489 C1485 1.388 . S
C1489 C1488 1.374 . S
C1490 C1487 1.499 . S
C1490 C1491 1.373 1_565 S
C1490 C1492 1.389 . S
C1491 H1470 0.950 . S
C1491 C1490 1.373 1_545 S
C1491 C1507 1.377 . S
C1492 C1490 1.389 . S
C1492 C1493 1.524 . S
C1492 C1506 1.377 . S
C1493 C1492 1.524 . S
C1493 C1494 1.397 . S
C1493 C1498 1.363 . S
C1494 H1471 0.950 . S
C1494 C1493 1.397 . S
C1494 C1495 1.334 . S
C1495 H1472 0.950 . S
C1495 C1494 1.334 . S
C1495 C1496 1.287 . S
C1496 C1495 1.287 . S
C1496 C1497 1.524 . S
C1496 H1515 0.913 . S
C1497 H1473 0.950 . S
C1497 C1496 1.524 . S
C1497 C1498 1.415 . S
C1498 H1474 0.950 . S
C1498 C1493 1.363 . S
C1498 C1497 1.415 . S
C1499 H1475 0.951 . S
C1499 C1500 1.366 . S
C1499 C1501 1.388 . S
C1500 C1499 1.366 . S
C1500 C1504 1.382 1_565 S
C1501 H1476 0.951 . S
C1501 C1499 1.388 . S
C1501 C1502 1.366 . S
C1502 C1501 1.366 . S
C1502 C1503 1.414 1_565 S
C1502 C1505 1.499 . S
C1503 H1477 0.950 . S
C1503 C1502 1.414 1_545 S
C1503 C1504 1.375 . S
C1504 H1478 0.951 . S
C1504 C1500 1.382 1_545 S
C1504 C1503 1.375 . S
C1505 C1502 1.499 . S
C1505 C1506 1.373 . S
C1505 C1507 1.389 1_565 S
C1506 H1479 0.950 . S
C1506 C1492 1.377 . S
C1506 C1505 1.373 . S
C1507 C1491 1.377 . S
C1507 C1505 1.389 1_545 S
C1507 C1508 1.524 . S
C1508 C1507 1.524 . S
C1508 C1509 1.397 . S
C1508 C1513 1.363 . S
C1509 H1480 0.950 . S
C1509 C1508 1.397 . S
C1509 C1510 1.334 . S
C1510 H1481 0.950 . S
C1510 C1509 1.334 . S
C1510 C1511 1.287 . S
C1511 C1510 1.287 . S
C1511 C1512 1.524 . S
C1511 H1514 0.999 . S
C1512 H1482 0.950 . S
C1512 C1511 1.524 . S
C1512 C1513 1.415 . S
C1513 H1483 0.950 . S
C1513 C1508 1.363 . S
C1513 C1512 1.415 . S
H1514 C1511 0.999 . S
H1515 C1496 0.913 . S
H1516 C1534 0.951 . S
H1517 C1536 0.951 . S
H1518 C1538 0.950 . S
H1519 C1539 0.950 . S
H1520 C1541 0.950 . S
H1521 C1544 0.950 . S
H1522 C1545 0.950 . S
H1523 C1547 0.950 . S
H1524 C1548 0.950 . S
H1525 C1549 0.951 . S
H1526 C1551 0.951 . S
H1527 C1553 0.950 . S
H1528 C1554 0.950 . S
H1529 C1556 0.950 . S
H1530 C1559 0.950 . S
H1531 C1560 0.950 . S
H1532 C1562 0.950 . S
H1533 C1563 0.950 . S
C1534 H1516 0.951 . S
C1534 C1535 1.366 . S
C1534 C1536 1.388 . S
C1535 C1534 1.366 . S
C1535 C1539 1.385 . S
C1536 H1517 0.951 . S
C1536 C1534 1.388 . S
C1536 C1537 1.366 . S
C1537 C1536 1.366 . S
C1537 C1538 1.414 . S
C1537 C1540 1.499 . S
C1538 H1518 0.950 . S
C1538 C1537 1.414 . S
C1538 C1539 1.374 . S
C1539 H1519 0.950 . S
C1539 C1535 1.385 . S
C1539 C1538 1.374 . S
C1540 C1537 1.499 . S
C1540 C1541 1.373 . S
C1540 C1542 1.389 . S
C1541 H1520 0.950 . S
C1541 C1540 1.373 . S
C1541 C1557 1.377 . S
C1542 C1540 1.389 . S
C1542 C1543 1.524 . S
C1542 C1556 1.377 . S
C1543 C1542 1.524 . S
C1543 C1544 1.397 . S
C1543 C1548 1.363 . S
C1544 H1521 0.950 . S
C1544 C1543 1.397 . S
C1544 C1545 1.334 . S
C1545 H1522 0.950 . S
C1545 C1544 1.334 . S
C1545 C1546 1.287 . S
C1546 C1545 1.287 . S
C1546 C1547 1.524 . S
C1546 H1565 0.913 . S
C1547 H1523 0.950 . S
C1547 C1546 1.524 . S
C1547 C1548 1.415 . S
C1548 H1524 0.950 . S
C1548 C1543 1.363 . S
C1548 C1547 1.415 . S
C1549 H1525 0.951 . S
C1549 C1550 1.366 . S
C1549 C1551 1.388 . S
C1550 C1549 1.366 . S
C1550 C1554 1.385 . S
C1551 H1526 0.951 . S
C1551 C1549 1.388 . S
C1551 C1552 1.366 . S
C1552 C1551 1.366 . S
C1552 C1553 1.414 . S
C1552 C1555 1.499 . S
C1553 H1527 0.950 . S
C1553 C1552 1.414 . S
C1553 C1554 1.374 . S
C1554 H1528 0.950 . S
C1554 C1550 1.385 . S
C1554 C1553 1.374 . S
C1555 C1552 1.499 . S
C1555 C1556 1.373 . S
C1555 C1557 1.389 . S
C1556 H1529 0.950 . S
C1556 C1542 1.377 . S
C1556 C1555 1.373 . S
C1557 C1541 1.377 . S
C1557 C1555 1.389 . S
C1557 C1558 1.524 . S
C1558 C1557 1.524 . S
C1558 C1559 1.397 . S
C1558 C1563 1.363 . S
C1559 H1530 0.950 . S
C1559 C1558 1.397 . S
C1559 C1560 1.334 . S
C1560 H1531 0.950 . S
C1560 C1559 1.334 . S
C1560 C1561 1.287 . S
C1561 C1560 1.287 . S
C1561 C1562 1.524 . S
C1561 H1564 0.999 . S
C1562 H1532 0.950 . S
C1562 C1561 1.524 . S
C1562 C1563 1.415 . S
C1563 H1533 0.950 . S
C1563 C1558 1.363 . S
C1563 C1562 1.415 . S
H1564 C1561 0.999 . S
H1565 C1546 0.913 . S
H1566 C1584 0.951 . S
H1567 C1586 0.951 . S
H1568 C1588 0.950 . S
H1569 C1589 0.950 . S
H1570 C1591 0.950 . S
H1571 C1594 0.950 . S
H1572 C1595 0.950 . S
H1573 C1597 0.950 . S
H1574 C1598 0.950 . S
H1575 C1599 0.951 . S
H1576 C1601 0.951 . S
H1577 C1603 0.950 . S
H1578 C1604 0.950 . S
H1579 C1606 0.950 . S
H1580 C1609 0.950 . S
H1581 C1610 0.950 . S
H1582 C1612 0.950 . S
H1583 C1613 0.950 . S
C1584 H1566 0.951 . S
C1584 C1585 1.366 . S
C1584 C1586 1.388 . S
C1585 C1584 1.366 . S
C1585 C1589 1.385 . S
C1586 H1567 0.951 . S
C1586 C1584 1.388 . S
C1586 C1587 1.366 . S
C1587 C1586 1.366 . S
C1587 C1588 1.414 . S
C1587 C1590 1.499 . S
C1588 H1568 0.950 . S
C1588 C1587 1.414 . S
C1588 C1589 1.374 . S
C1589 H1569 0.950 . S
C1589 C1585 1.385 . S
C1589 C1588 1.374 . S
C1590 C1587 1.499 . S
C1590 C1591 1.373 . S
C1590 C1592 1.389 . S
C1591 H1570 0.950 . S
C1591 C1590 1.373 . S
C1591 C1607 1.377 . S
C1592 C1590 1.389 . S
C1592 C1593 1.524 . S
C1592 C1606 1.377 . S
C1593 C1592 1.524 . S
C1593 C1594 1.397 . S
C1593 C1598 1.363 . S
C1594 H1571 0.950 . S
C1594 C1593 1.397 . S
C1594 C1595 1.334 . S
C1595 H1572 0.950 . S
C1595 C1594 1.334 . S
C1595 C1596 1.287 . S
C1596 C1595 1.287 . S
C1596 C1597 1.524 . S
C1596 H1615 0.913 . S
C1597 H1573 0.950 . S
C1597 C1596 1.524 . S
C1597 C1598 1.415 . S
C1598 H1574 0.950 . S
C1598 C1593 1.363 . S
C1598 C1597 1.415 . S
C1599 H1575 0.951 . S
C1599 C1600 1.366 . S
C1599 C1601 1.388 . S
C1600 C1599 1.366 . S
C1600 C1604 1.385 . S
C1601 H1576 0.951 . S
C1601 C1599 1.388 . S
C1601 C1602 1.366 . S
C1602 C1601 1.366 . S
C1602 C1603 1.414 . S
C1602 C1605 1.499 . S
C1603 H1577 0.950 . S
C1603 C1602 1.414 . S
C1603 C1604 1.374 . S
C1604 H1578 0.950 . S
C1604 C1600 1.385 . S
C1604 C1603 1.374 . S
C1605 C1602 1.499 . S
C1605 C1606 1.373 . S
C1605 C1607 1.389 . S
C1606 H1579 0.950 . S
C1606 C1592 1.377 . S
C1606 C1605 1.373 . S
C1607 C1591 1.377 . S
C1607 C1605 1.389 . S
C1607 C1608 1.524 . S
C1608 C1607 1.524 . S
C1608 C1609 1.397 . S
C1608 C1613 1.363 . S
C1609 H1580 0.950 . S
C1609 C1608 1.397 . S
C1609 C1610 1.334 . S
C1610 H1581 0.950 . S
C1610 C1609 1.334 . S
C1610 C1611 1.287 . S
C1611 C1610 1.287 . S
C1611 C1612 1.524 . S
C1611 H1614 0.999 . S
C1612 H1582 0.950 . S
C1612 C1611 1.524 . S
C1612 C1613 1.415 . S
C1613 H1583 0.950 . S
C1613 C1608 1.363 . S
C1613 C1612 1.415 . S
H1614 C1611 0.999 . S
H1615 C1596 0.913 . S
C435 C215 1.795 1_565 S
C450 C279 1.909 . S
C500 C319 1.532 . S
C485 C247 1.529 . S
C550 C338 1.953 . S
C535 C151 1.840 . S
C600 C399 1.490 . S
C585 C183 1.445 . S
C650 C258 1.895 . S
C635 C87 1.792 . S
C685 C119 1.454 . S
C700 C298 1.538 . S
C735 C23 1.856 . S
C750 C359 1.953 . S
C785 C55 1.380 . S
C800 C378 1.489 . S
C850 C260 0.528 1_655 S
C835 C189 0.461 . S
C900 C300 0.290 . S
C885 C221 0.256 . S
C950 C356 0.481 . S
C935 C253 0.501 . S
C985 C157 0.263 . S
C1000 C380 0.264 . S
C1035 C61 0.598 . S
C1050 C281 0.535 . S
C1100 C321 0.290 . S
C1085 C93 0.450 1_565 S
C1150 C367 0.482 . S
C1135 C125 0.643 . S
C1185 C29 0.377 . S
C1200 C401 0.260 . S
C1235 C177 1.899 1_556 S
C1250 C276 2.040 . S
C1285 C209 2.373 1_556 S
C1300 C316 2.582 . S
C1350 C340 1.691 1_554 S
C1335 C241 1.655 . S
C1400 C396 2.550 . S
C1385 C145 2.328 1_556 S
C1435 C49 1.850 . S
C1450 C287 2.054 . S
C1500 C327 2.582 . S
C1485 C81 2.373 1_565 S
C1550 C361 1.691 . S
C1535 C113 1.636 . S
C1585 C17 2.370 . S
C1600 C407 2.550 . S
