# Generated by pormake.
# Topology nom, (4,4)-cn, num edge types: 1
# Building blocks:
#     Node 0, Type 0, BuildingBlock: KUFVIS_clean_linker_0, # of connection points: 4
#     Node 1, Type 0, BuildingBlock: KUFVIS_clean_linker_0, # of connection points: 4
#     Node 2, Type 0, BuildingBlock: KUFVIS_clean_linker_0, # of connection points: 4
#     Node 3, Type 0, BuildingBlock: KUFVIS_clean_linker_0, # of connection points: 4
#     Node 4, Type 0, BuildingBlock: KUFVIS_clean_linker_0, # of connection points: 4
#     Node 5, Type 0, BuildingBlock: KUFVIS_clean_linker_0, # of connection points: 4
#     Node 6, Type 1, BuildingBlock: QUQFOY_clean_sbu_1, # of connection points: 4
#     Node 7, Type 1, BuildingBlock: QUQFOY_clean_sbu_1, # of connection points: 4
#     Node 8, Type 1, BuildingBlock: QUQFOY_clean_sbu_1, # of connection points: 4
#     Node 9, Type 1, BuildingBlock: QUQFOY_clean_sbu_1, # of connection points: 4
#     Node 10, Type 1, BuildingBlock: QUQFOY_clean_sbu_1, # of connection points: 4
#     Node 11, Type 1, BuildingBlock: QUQFOY_clean_sbu_1, # of connection points: 4
#     Edge 12, Type (0, 1), BuildingBlock: UVAHIK_clean_linker_0, # of connection points: 2
#     Edge 13, Type (0, 1), BuildingBlock: UVAHIK_clean_linker_0, # of connection points: 2
#     Edge 14, Type (0, 1), BuildingBlock: UVAHIK_clean_linker_0, # of connection points: 2
#     Edge 15, Type (0, 1), BuildingBlock: UVAHIK_clean_linker_0, # of connection points: 2
#     Edge 16, Type (0, 1), BuildingBlock: UVAHIK_clean_linker_0, # of connection points: 2
#     Edge 17, Type (0, 1), BuildingBlock: UVAHIK_clean_linker_0, # of connection points: 2
#     Edge 18, Type (0, 1), BuildingBlock: UVAHIK_clean_linker_0, # of connection points: 2
#     Edge 19, Type (0, 1), BuildingBlock: UVAHIK_clean_linker_0, # of connection points: 2
#     Edge 20, Type (0, 1), BuildingBlock: UVAHIK_clean_linker_0, # of connection points: 2
#     Edge 21, Type (0, 1), BuildingBlock: UVAHIK_clean_linker_0, # of connection points: 2
#     Edge 22, Type (0, 1), BuildingBlock: UVAHIK_clean_linker_0, # of connection points: 2
#     Edge 23, Type (0, 1), BuildingBlock: UVAHIK_clean_linker_0, # of connection points: 2
#     Edge 24, Type (0, 1), BuildingBlock: UVAHIK_clean_linker_0, # of connection points: 2
#     Edge 25, Type (0, 1), BuildingBlock: UVAHIK_clean_linker_0, # of connection points: 2
#     Edge 26, Type (0, 1), BuildingBlock: UVAHIK_clean_linker_0, # of connection points: 2
#     Edge 27, Type (0, 1), BuildingBlock: UVAHIK_clean_linker_0, # of connection points: 2
#     Edge 28, Type (0, 1), BuildingBlock: UVAHIK_clean_linker_0, # of connection points: 2
#     Edge 29, Type (0, 1), BuildingBlock: UVAHIK_clean_linker_0, # of connection points: 2
#     Edge 30, Type (0, 1), BuildingBlock: UVAHIK_clean_linker_0, # of connection points: 2
#     Edge 31, Type (0, 1), BuildingBlock: UVAHIK_clean_linker_0, # of connection points: 2
#     Edge 32, Type (0, 1), BuildingBlock: UVAHIK_clean_linker_0, # of connection points: 2
#     Edge 33, Type (0, 1), BuildingBlock: UVAHIK_clean_linker_0, # of connection points: 2
#     Edge 34, Type (0, 1), BuildingBlock: UVAHIK_clean_linker_0, # of connection points: 2
#     Edge 35, Type (0, 1), BuildingBlock: UVAHIK_clean_linker_0, # of connection points: 2
# Relax obj value: 0.005
# Max RMSD: 0.092
# Mean RMSD: 0.068
data_MOF--net-nom--node1-QUQFOY_clean_sbu_1--node2-KUFVIS_clean_linker_0--edge1-UVAHIK_clean_linker_0
_symmetry_space_group_name_H-M    P1
_symmetry_Int_Tables_number       1
_symmetry_cell_setting            triclinic
loop_
_symmetry_equiv_pos_as_xyz
'x, y, z'
_cell_length_a     60.740078
_cell_length_b     60.906293
_cell_length_c     57.747782
_cell_angle_alpha  90.033335
_cell_angle_beta   89.939855
_cell_angle_gamma 120.02266
loop_
_atom_site_label
_atom_site_type_symbol
_atom_site_fract_x
_atom_site_fract_y
_atom_site_fract_z
_atom_type_partial_charge
H0 H 0.11119 0.59834 0.31888 0.0
H1 H 0.04802 0.56572 0.27232 0.0
H2 H 0.03786 0.54367 0.34474 0.0
H3 H 0.99851 0.53707 0.33861 0.0
H4 H 0.93971 0.48432 0.2938 0.0
H5 H 1.01574 0.52671 0.26789 0.0
C6 C 0.09099 0.58588 0.31596 0.0
C7 C 0.07526 0.57212 0.33441 0.0
C8 C 0.08129 0.58302 0.29359 0.0
C9 C 0.0552 0.56696 0.28969 0.0
C10 C 0.03884 0.55251 0.30808 0.0
C11 C 0.04943 0.55504 0.3304 0.0
C12 C 1.01116 0.53414 0.30397 0.0
C13 C 0.99301 0.52778 0.32193 0.0
C14 C 0.96746 0.50924 0.31844 0.0
C15 C 0.95968 0.49781 0.29674 0.0
C16 C 0.97689 0.50469 0.27841 0.0
C17 C 1.00261 0.52246 0.28211 0.0
H18 H 0.53084 0.10653 0.48342 0.0
H19 H 0.50624 0.04364 0.4373 0.0
H20 H 0.51646 0.03519 0.5105 0.0
H21 H 0.4854 0.99537 0.50464 0.0
H22 H 0.4801 0.93636 0.46076 0.0
H23 H 0.51281 1.01163 0.43378 0.0
C24 C 0.5244 0.08657 0.48072 0.0
C25 C 0.52319 0.07157 0.49948 0.0
C26 C 0.51909 0.07669 0.45832 0.0
C27 C 0.5111 0.05099 0.45473 0.0
C28 C 0.50933 0.03518 0.47352 0.0
C29 C 0.51622 0.04614 0.49585 0.0
C30 C 0.50098 1.00764 0.46992 0.0
C31 C 0.48945 0.98979 0.4881 0.0
C32 C 0.48278 0.96434 0.48498 0.0
C33 C 0.48647 0.9563 0.46343 0.0
C34 C 0.49647 0.97315 0.44485 0.0
C35 C 0.5042 0.99881 0.44822 0.0
H36 H 0.5395 0.4452 0.63046 0.0
H37 H 0.5086 0.47936 0.67453 0.0
H38 H 0.51323 0.49213 0.60029 0.0
H39 H 0.48183 0.49991 0.60661 0.0
H40 H 0.47724 0.55606 0.64752 0.0
H41 H 0.51353 0.51755 0.676 0.0
C42 C 0.53074 0.45687 0.63235 0.0
C43 C 0.5257 0.46705 0.61273 0.0
C44 C 0.52503 0.4617 0.65449 0.0
C45 C 0.5137 0.47671 0.65723 0.0
C46 C 0.50947 0.48836 0.63779 0.0
C47 C 0.51579 0.48336 0.61554 0.0
C48 C 0.49956 0.50642 0.6407 0.0
C49 C 0.48645 0.5107 0.62252 0.0
C50 C 0.47918 0.52916 0.62477 0.0
C51 C 0.48381 0.54254 0.64549 0.0
C52 C 0.49539 0.53771 0.6641 0.0
C53 C 0.50363 0.52007 0.6616 0.0
H54 H 0.11092 0.56056 0.79228 0.0
H55 H 0.05356 0.5032 0.83524 0.0
H56 H 0.03555 0.51574 0.76557 0.0
H57 H 1.00508 0.47562 0.76856 0.0
H58 H 0.94252 0.43512 0.81492 0.0
H59 H 1.0132 0.49405 0.84175 0.0
C60 C 0.09119 0.5461 0.79494 0.0
C61 C 0.07403 0.53922 0.7766 0.0
C62 C 0.08384 0.53331 0.81609 0.0
C63 C 0.0587 0.51354 0.81905 0.0
C64 C 0.04052 0.50715 0.80116 0.0
C65 C 0.04868 0.52012 0.7798 0.0
C66 C 1.01329 0.48704 0.8048 0.0
C67 C 0.99769 0.47266 0.78603 0.0
C68 C 0.9722 0.45407 0.78971 0.0
C69 C 0.96238 0.44915 0.81217 0.0
C70 C 0.97716 0.4634 0.83089 0.0
C71 C 1.00238 0.48255 0.82717 0.0
H72 H 0.52845 0.93684 -0.01494 0.0
H73 H 0.55137 0.99931 0.93874 0.0
H74 H 0.54007 1.00735 0.01179 0.0
H75 H 0.57045 0.04755 0.00588 0.0
H76 H 0.57365 0.10547 0.9618 0.0
H77 H 0.54321 0.03032 0.93507 0.0
C78 C 0.53434 0.95666 -0.01771 0.0
C79 C 0.53477 0.97142 0.00097 0.0
C80 C 0.53951 0.96648 0.95986 0.0
C81 C 0.54662 0.99196 0.95618 0.0
C82 C 0.54767 1.00756 0.9749 0.0
C83 C 0.54091 0.9966 -0.00277 0.0
C84 C 0.55508 0.03483 0.97121 0.0
C85 C 0.56613 0.05283 -0.01067 0.0
C86 C 0.57195 0.07803 -0.01385 0.0
C87 C 0.56788 0.08568 0.96456 0.0
C88 C 0.55836 0.06871 0.94602 0.0
C89 C 0.55146 0.04327 0.94947 0.0
H90 H 0.52795 0.60798 0.12079 0.0
H91 H 0.55783 0.57598 0.16895 0.0
H92 H 0.54161 0.54905 0.09807 0.0
H93 H 0.57578 0.54405 0.10401 0.0
H94 H 0.58105 0.49165 0.1498 0.0
H95 H 0.5491 0.53583 0.17492 0.0
C96 C 0.53502 0.59513 0.12446 0.0
C97 C 0.53488 0.57933 0.10688 0.0
C98 C 0.54271 0.59362 0.14693 0.0
C99 C 0.55124 0.57646 0.15165 0.0
C100 C 0.5516 0.56046 0.134 0.0
C101 C 0.54269 0.56174 0.11173 0.0
C102 C 0.56063 0.54206 0.13868 0.0
C103 C 0.57208 0.53513 0.12088 0.0
C104 C 0.5788 0.5165 0.12474 0.0
C105 C 0.57506 0.50544 0.1466 0.0
C106 C 0.56504 0.51288 0.16475 0.0
C107 C 0.5576 0.53095 0.1608 0.0
O108 O 0.61942 0.38114 0.41035 0.0
Cd109 Cd 0.62956 0.36847 0.38135 0.0
Cd110 Cd 0.67382 0.41478 0.3883 0.0
O111 O 0.65596 0.41551 0.4184 0.0
O112 O 0.60043 0.33314 0.37842 0.0
O113 O 0.63995 0.34165 0.38317 0.0
C114 C 0.61617 0.32499 0.38084 0.0
C115 C 0.71666 0.42581 0.38949 0.0
C116 C 0.63274 0.40028 0.42313 0.0
C117 C 0.64247 0.40858 0.34553 0.0
O118 O 0.66103 0.42336 0.35838 0.0
O119 O 0.6286 0.38532 0.35082 0.0
O120 O 0.70983 0.44264 0.3914 0.0
O121 O 0.699 0.4024 0.38722 0.0
O122 O 0.25958 0.61893 0.58494 0.0
Cd123 Cd 0.28022 0.6238 0.55513 0.0
Cd124 Cd 0.28363 0.67133 0.55611 0.0
O125 O 0.26341 0.65692 0.58638 0.0
O126 O 0.28715 0.59506 0.55516 0.0
O127 O 0.31765 0.63523 0.55562 0.0
C128 C 0.31109 0.6115 0.55555 0.0
C129 C 0.31545 0.71424 0.55597 0.0
C130 C 0.25475 0.63478 0.59468 0.0
C131 C 0.25556 0.63591 0.51619 0.0
O132 O 0.26324 0.6573 0.52583 0.0
O133 O 0.26094 0.61997 0.5248 0.0
O134 O 0.29167 0.70737 0.55627 0.0
O135 O 0.32138 0.69661 0.5559 0.0
O136 O 0.66304 0.25325 0.75149 0.0
Cd137 Cd 0.67729 0.27422 0.72164 0.0
Cd138 Cd 0.63169 0.2765 0.72589 0.0
O139 O 0.62864 0.25651 0.75568 0.0
O140 O 0.71229 0.27922 0.7197 0.0
O141 O 0.70491 0.31115 0.72198 0.0
C142 C 0.7211 0.30331 0.72063 0.0
C143 C 0.61718 0.30571 0.72788 0.0
C144 C 0.64293 0.24813 0.76256 0.0
C145 C 0.63817 0.24981 0.68412 0.0
O146 O 0.62448 0.25665 0.69517 0.0
O147 O 0.66015 0.25559 0.69145 0.0
O148 O 0.60181 0.28163 0.72861 0.0
O149 O 0.64118 0.31349 0.72616 0.0
O150 O 0.42832 0.65892 0.9154 0.0
Cd151 Cd 0.42258 0.67335 0.88509 0.0
Cd152 Cd 0.37754 0.62575 0.88664 0.0
O153 O 0.39289 0.62187 0.91698 0.0
O154 O 0.45285 0.70821 0.88492 0.0
O155 O 0.41359 0.70128 0.88504 0.0
C156 C 0.43772 0.71724 0.88506 0.0
C157 C 0.33464 0.61452 0.88627 0.0
C158 C 0.41443 0.63772 0.92533 0.0
C159 C 0.41343 0.63596 0.84677 0.0
O160 O 0.39286 0.62031 0.85683 0.0
O161 O 0.42725 0.65819 0.85479 0.0
O162 O 0.34148 0.59763 0.88688 0.0
O163 O 0.35232 0.63809 0.88597 0.0
O164 O 0.79072 0.38224 0.02562 0.0
Cd165 Cd 0.7707 0.37029 0.05633 0.0
Cd166 Cd 0.77369 0.41726 0.05197 0.0
O167 O 0.79187 0.41883 0.02144 0.0
O168 O 0.76228 0.33422 0.05857 0.0
O169 O 0.73291 0.34538 0.05656 0.0
C170 C 0.73857 0.3276 0.05783 0.0
C171 C 0.74242 0.42899 0.05199 0.0
C172 C 0.79757 0.40256 0.01431 0.0
C173 C 0.80013 0.40954 0.09267 0.0
O174 O 0.79535 0.42461 0.08142 0.0
O175 O 0.79109 0.3867 0.08612 0.0
O176 O 0.76622 0.44559 0.0502 0.0
O177 O 0.73622 0.40541 0.05354 0.0
O178 O 0.4298 0.78514 0.19566 0.0
Cd179 Cd 0.42128 0.76436 0.22592 0.0
Cd180 Cd 0.3759 0.76747 0.22047 0.0
O181 O 0.39389 0.78537 0.19027 0.0
O182 O 0.45132 0.75967 0.22998 0.0
O183 O 0.41248 0.72755 0.22482 0.0
C184 C 0.43639 0.73563 0.22787 0.0
C185 C 0.33183 0.73944 0.21945 0.0
C186 C 0.4163 0.79162 0.18385 0.0
C187 C 0.40926 0.79281 0.26206 0.0
O188 O 0.39003 0.78881 0.25012 0.0
O189 O 0.42296 0.78344 0.256 0.0
O190 O 0.34139 0.76359 0.21752 0.0
O191 O 0.3474 0.73095 0.22169 0.0
C192 C 0.10573 0.62017 0.26757 0.0
C193 C 0.09958 0.59575 0.27461 0.0
C194 C 0.12801 0.6352 0.25492 0.0
C195 C 0.18296 0.63494 0.22525 0.0
H196 H 0.22084 0.70263 0.25109 0.0
C197 C 0.29304 0.69614 0.22325 0.0
C198 C 0.30386 0.72241 0.21995 0.0
C199 C 0.26664 0.68057 0.22535 0.0
C200 C 0.21044 0.68395 0.24337 0.0
H201 H 0.11084 0.56726 0.27327 0.0
H202 H 0.1497 0.59329 0.25143 0.0
H203 H 0.17645 0.67565 0.26141 0.0
H204 H 0.29532 0.75274 0.21534 0.0
H205 H 0.24947 0.72564 0.21894 0.0
H206 H 0.21754 0.64311 0.20798 0.0
C207 C 0.13733 0.60091 0.25508 0.0
C208 C 0.18486 0.66845 0.2492 0.0
C209 C 0.11504 0.58592 0.26759 0.0
C210 C 0.28766 0.73261 0.21805 0.0
C211 C 0.26136 0.7171 0.2202 0.0
C212 C 0.20866 0.65043 0.21952 0.0
C213 C 0.14467 0.62613 0.24941 0.0
C214 C 0.17084 0.64358 0.24054 0.0
C215 C 0.25054 0.69097 0.22426 0.0
C216 C 0.22278 0.67499 0.22879 0.0
H217 H 0.09422 0.62821 0.27315 0.0
H218 H 0.13283 0.65437 0.25048 0.0
H219 H 0.17269 0.61602 0.218 0.0
H220 H 0.30499 0.68769 0.22476 0.0
H221 H 0.25892 0.66053 0.22866 0.0
C222 C 0.54728 0.10322 0.4264 0.0
C223 C 0.52465 0.09457 0.43899 0.0
C224 C 0.55705 0.1255 0.41331 0.0
C225 C 0.54325 0.17316 0.38835 0.0
H226 H 0.61046 0.22224 0.41053 0.0
C227 C 0.58058 0.28022 0.38369 0.0
C228 C 0.60679 0.29738 0.38179 0.0
C229 C 0.5714 0.25425 0.38591 0.0
C230 C 0.59197 0.20878 0.40362 0.0
H231 H 0.49367 0.10124 0.44684 0.0
H232 H 0.51019 0.13969 0.42328 0.0
H233 H 0.59205 0.17781 0.42107 0.0
H234 H 0.64392 0.3006 0.37991 0.0
H235 H 0.62787 0.25505 0.38308 0.0
H236 H 0.543 0.20401 0.37096 0.0
C237 C 0.52043 0.12937 0.42349 0.0
C238 C 0.58139 0.18325 0.40973 0.0
C239 C 0.51091 0.10735 0.43688 0.0
C240 C 0.62362 0.28787 0.38151 0.0
C241 C 0.61439 0.26174 0.38345 0.0
C242 C 0.55398 0.19863 0.38191 0.0
C243 C 0.54414 0.13925 0.41239 0.0
C244 C 0.55667 0.1653 0.40267 0.0
C245 C 0.58814 0.24458 0.38598 0.0
C246 C 0.57819 0.21696 0.39006 0.0
H247 H 0.5584 0.09389 0.42816 0.0
H248 H 0.5753 0.13266 0.40485 0.0
H249 H 0.52423 0.15966 0.38251 0.0
H250 H 0.56706 0.2869 0.3841 0.0
H251 H 0.55116 0.24187 0.38833 0.0
C252 C 0.43993 0.51729 0.60192 0.0
C253 C 0.46567 0.53447 0.60631 0.0
C254 C 0.42503 0.52527 0.59009 0.0
C255 C 0.42339 0.58415 0.58319 0.0
H256 H 0.36522 0.5438 0.54382 0.0
C257 C 0.35635 0.62082 0.55551 0.0
C258 C 0.33019 0.60316 0.55638 0.0
C259 C 0.37422 0.61278 0.55727 0.0
C260 C 0.38133 0.55526 0.55492 0.0
H261 H 0.49662 0.57262 0.6004 0.0
H262 H 0.47091 0.58639 0.57914 0.0
H263 H 0.39434 0.52838 0.55337 0.0
H264 H 0.3023 0.56314 0.55932 0.0
H265 H 0.33331 0.54923 0.56294 0.0
H266 H 0.41007 0.61055 0.58556 0.0
C267 C 0.46201 0.56696 0.58516 0.0
C268 C 0.39804 0.54644 0.56032 0.0
C269 C 0.4768 0.55903 0.59705 0.0
C270 C 0.32231 0.57727 0.55857 0.0
C271 C 0.34014 0.56925 0.56045 0.0
C272 C 0.40667 0.59289 0.5779 0.0
C273 C 0.4357 0.55056 0.58253 0.0
C274 C 0.41913 0.56067 0.57473 0.0
C275 C 0.36634 0.5869 0.56007 0.0
C276 C 0.38522 0.57844 0.56395 0.0
H277 H 0.43091 0.49839 0.60926 0.0
H278 H 0.40481 0.51219 0.58846 0.0
H279 H 0.43911 0.59537 0.59476 0.0
H280 H 0.36304 0.64089 0.55366 0.0
H281 H 0.39423 0.62688 0.55655 0.0
C282 C 0.94589 0.45502 0.75723 0.0
C283 C 0.95428 0.4413 0.77045 0.0
C284 C 0.92332 0.44229 0.74449 0.0
C285 C 0.87357 0.37977 0.72257 0.0
H286 H 0.82657 0.40099 0.74403 0.0
C287 C 0.7657 0.3117 0.7233 0.0
C288 C 0.74891 0.32109 0.72069 0.0
C289 C 0.79192 0.32818 0.72433 0.0
C290 C 0.83942 0.39504 0.73733 0.0
H291 H 0.94699 0.4038 0.77953 0.0
H292 H 0.90804 0.38147 0.75666 0.0
H293 H 0.87163 0.42688 0.75272 0.0
H294 H 0.74658 0.35521 0.71639 0.0
H295 H 0.79252 0.38409 0.71756 0.0
H296 H 0.84142 0.34779 0.70737 0.0
C297 C 0.91874 0.402 0.75612 0.0
C298 C 0.86532 0.40994 0.74235 0.0
C299 C 0.94105 0.41472 0.76913 0.0
C300 C 0.75901 0.34739 0.71859 0.0
C301 C 0.78537 0.36394 0.71936 0.0
C302 C 0.8477 0.36503 0.71726 0.0
C303 C 0.90902 0.41564 0.74455 0.0
C304 C 0.88256 0.4021 0.73559 0.0
C305 C 0.80218 0.35456 0.72249 0.0
C306 C 0.83013 0.37204 0.72521 0.0
H307 H 0.95557 0.47552 0.75834 0.0
H308 H 0.91632 0.45325 0.73562 0.0
H309 H 0.88648 0.37339 0.71698 0.0
H310 H 0.75857 0.29154 0.7251 0.0
H311 H 0.80407 0.32016 0.72727 0.0
C312 C 0.51292 0.94109 0.92663 0.0
C313 C 0.53447 0.94865 0.94055 0.0
C314 C 0.50313 0.91887 0.91345 0.0
C315 C 0.51564 0.86908 0.89131 0.0
H316 H 0.44614 0.82255 0.91002 0.0
C317 C 0.47419 0.76133 0.88957 0.0
C318 C 0.44807 0.74503 0.88581 0.0
C319 C 0.48424 0.78749 0.89122 0.0
C320 C 0.46532 0.8353 0.90408 0.0
H321 H 0.56377 0.94022 0.95046 0.0
H322 H 0.54725 0.90186 0.92686 0.0
H323 H 0.46566 0.86726 0.91992 0.0
H324 H 0.41207 0.74351 0.88019 0.0
H325 H 0.42971 0.7894 0.8825 0.0
H326 H 0.51549 0.83718 0.87566 0.0
C327 C 0.53782 0.91295 0.92612 0.0
C328 C 0.47653 0.861 0.9098 0.0
C329 C 0.54734 0.93491 0.93957 0.0
C330 C 0.43226 0.75557 0.88324 0.0
C331 C 0.44239 0.78188 0.88467 0.0
C332 C 0.50433 0.84344 0.88529 0.0
C333 C 0.51498 0.90409 0.91376 0.0
C334 C 0.50202 0.87801 0.90405 0.0
C335 C 0.46851 0.79819 0.88891 0.0
C336 C 0.47927 0.82603 0.89226 0.0
H337 H 0.50246 0.95119 0.92743 0.0
H338 H 0.48559 0.91253 0.90398 0.0
H339 H 0.53525 0.88182 0.88648 0.0
H340 H 0.48693 0.75386 0.89175 0.0
H341 H 0.50429 0.79922 0.89502 0.0
C342 C 0.61566 0.52555 0.09922 0.0
C343 C 0.59081 0.5087 0.10672 0.0
C344 C 0.62961 0.51643 0.08736 0.0
C345 C 0.6324 0.45769 0.08492 0.0
H346 H 0.68482 0.49345 0.03883 0.0
C347 C 0.69708 0.41914 0.05477 0.0
C348 C 0.72311 0.43705 0.053 0.0
C349 C 0.67914 0.42703 0.05711 0.0
C350 C 0.67032 0.48329 0.05179 0.0
H351 H 0.56024 0.4697 0.10625 0.0
H352 H 0.58416 0.45384 0.08492 0.0
H353 H 0.65627 0.50928 0.04942 0.0
H354 H 0.75063 0.4773 0.05167 0.0
H355 H 0.71953 0.491 0.05621 0.0
H356 H 0.64679 0.43221 0.08796 0.0
C357 C 0.5932 0.47394 0.08861 0.0
C358 C 0.65394 0.49234 0.05781 0.0
C359 C 0.5794 0.48302 0.10058 0.0
C360 C 0.73072 0.46298 0.05299 0.0
C361 C 0.71283 0.47086 0.05541 0.0
C362 C 0.64875 0.4487 0.07896 0.0
C363 C 0.61884 0.49032 0.08281 0.0
C364 C 0.63494 0.47978 0.07464 0.0
C365 C 0.68684 0.45301 0.05782 0.0
C366 C 0.66814 0.46153 0.06254 0.0
H367 H 0.62492 0.54538 0.10407 0.0
H368 H 0.64934 0.52955 0.08325 0.0
H369 H 0.61837 0.44782 0.09832 0.0
H370 H 0.69057 0.39902 0.05467 0.0
H371 H 0.65924 0.41275 0.05857 0.0
C372 C 0.44518 0.93704 0.50985 0.0
C373 C 0.47031 0.94498 0.50327 0.0
C374 C 0.4308 0.91407 0.52169 0.0
C375 C 0.42796 0.85256 0.52557 0.0
H376 H 0.37322 0.83604 0.56907 0.0
C377 C 0.36107 0.74934 0.55462 0.0
C378 C 0.33503 0.7415 0.5551 0.0
C379 C 0.3793 0.7751 0.55258 0.0
C380 C 0.38838 0.84034 0.55684 0.0
H381 H 0.50085 0.93652 0.50535 0.0
H382 H 0.47617 0.89694 0.52669 0.0
H383 H 0.40242 0.88036 0.55901 0.0
H384 H 0.30778 0.75465 0.55438 0.0
H385 H 0.33939 0.79928 0.55041 0.0
H386 H 0.4136 0.8127 0.52272 0.0
C387 C 0.46726 0.90798 0.5223 0.0
C388 C 0.40513 0.86574 0.55112 0.0
C389 C 0.4815 0.93077 0.51035 0.0
C390 C 0.32768 0.76001 0.55406 0.0
C391 C 0.34585 0.78569 0.55197 0.0
C392 C 0.41124 0.82724 0.53123 0.0
C393 C 0.44139 0.89875 0.52714 0.0
C394 C 0.42495 0.87214 0.53519 0.0
C395 C 0.37189 0.79357 0.55092 0.0
C396 C 0.391 0.82074 0.54668 0.0
H397 H 0.43608 0.94753 0.50424 0.0
H398 H 0.41092 0.9075 0.52503 0.0
H399 H 0.44264 0.85668 0.51285 0.0
H400 H 0.36737 0.73558 0.55552 0.0
H401 H 0.39921 0.78052 0.55213 0.0
C402 C 0.55785 0.46034 0.67886 0.0
C403 C 0.53201 0.45111 0.67427 0.0
C404 C 0.56547 0.44612 0.69206 0.0
C405 C 0.54296 0.37914 0.70315 0.0
H406 H 0.60508 0.4056 0.73895 0.0
C407 C 0.58111 0.31417 0.73188 0.0
C408 C 0.60719 0.32348 0.72824 0.0
C409 C 0.57101 0.33029 0.73049 0.0
C410 C 0.58773 0.39794 0.72892 0.0
H411 H 0.49372 0.4208 0.68097 0.0
H412 H 0.5069 0.396 0.70467 0.0
H413 H 0.58815 0.43335 0.72911 0.0
H414 H 0.64331 0.35726 0.72112 0.0
H415 H 0.62559 0.38544 0.7183 0.0
H416 H 0.54286 0.34404 0.70226 0.0
C417 C 0.52135 0.4141 0.69785 0.0
C418 C 0.57798 0.41381 0.72335 0.0
C419 C 0.51374 0.4284 0.6846 0.0
C420 C 0.62313 0.34951 0.72399 0.0
C421 C 0.61298 0.36567 0.72252 0.0
C422 C 0.55266 0.36331 0.70873 0.0
C423 C 0.54736 0.42226 0.70083 0.0
C424 C 0.55572 0.40473 0.70999 0.0
C425 C 0.58671 0.35614 0.72532 0.0
C426 C 0.57541 0.37261 0.72132 0.0
H427 H 0.57224 0.47765 0.6707 0.0
H428 H 0.58563 0.45294 0.69376 0.0
H429 H 0.52611 0.37157 0.69242 0.0
H430 H 0.56831 0.29427 0.73544 0.0
H431 H 0.55078 0.3224 0.73317 0.0
C432 C 0.11812 0.5654 0.84121 0.0
C433 C 0.1036 0.54007 0.834 0.0
C434 C 0.14098 0.57369 0.85302 0.0
C435 C 0.18283 0.5532 0.88141 0.0
H436 H 0.23638 0.61452 0.85308 0.0
C437 C 0.2887 0.58103 0.88427 0.0
C438 C 0.30734 0.60685 0.88536 0.0
C439 C 0.26298 0.57358 0.88219 0.0
C440 C 0.2217 0.59767 0.86157 0.0
H441 H 0.10052 0.50313 0.83474 0.0
H442 H 0.14069 0.51758 0.85528 0.0
H443 H 0.19236 0.59992 0.84331 0.0
H444 H 0.31346 0.6451 0.88593 0.0
H445 H 0.26849 0.63211 0.88257 0.0
H446 H 0.21244 0.55073 0.89925 0.0
C447 C 0.13432 0.53103 0.85209 0.0
C448 C 0.19636 0.58926 0.85597 0.0
C449 C 0.11128 0.5227 0.84038 0.0
C450 C 0.2996 0.62506 0.88496 0.0
C451 C 0.27382 0.6176 0.88294 0.0
C452 C 0.20826 0.56167 0.88707 0.0
C453 C 0.14995 0.55687 0.85764 0.0
C454 C 0.1766 0.56676 0.86558 0.0
C455 C 0.25521 0.59177 0.8812 0.0
C456 C 0.22804 0.58383 0.87695 0.0
H457 H 0.11252 0.57912 0.83646 0.0
H458 H 0.15225 0.59357 0.85752 0.0
H459 H 0.16806 0.53593 0.88928 0.0
H460 H 0.29399 0.56648 0.88454 0.0
H461 H 0.24928 0.55357 0.88057 0.0
C462 C 0.57277 0.11191 0.01083 0.0
C463 C 0.58402 0.09754 0.00439 0.0
C464 C 0.5867 0.13461 0.02297 0.0
C465 C 0.64769 0.17623 0.05364 0.0
H466 H 0.6411 0.22978 0.02397 0.0
C467 C 0.72584 0.28166 0.05747 0.0
C468 C 0.71877 0.3004 0.05752 0.0
C469 C 0.70751 0.25603 0.05545 0.0
C470 C 0.6429 0.2151 0.03285 0.0
H471 H 0.61797 0.09457 0.00678 0.0
H472 H 0.64259 0.13447 0.02791 0.0
H473 H 0.61215 0.18593 0.01365 0.0
H474 H 0.68675 0.3068 0.05644 0.0
H475 H 0.65463 0.26195 0.05323 0.0
H476 H 0.67897 0.20567 0.07241 0.0
C477 C 0.62289 0.12809 0.02387 0.0
C478 C 0.62625 0.18985 0.02692 0.0
C479 C 0.60882 0.10521 0.01183 0.0
C480 C 0.69284 0.29285 0.0563 0.0
C481 C 0.67445 0.26714 0.05435 0.0
C482 C 0.66438 0.20157 0.05963 0.0
C483 C 0.61231 0.14358 0.02868 0.0
C484 C 0.62861 0.1701 0.03699 0.0
C485 C 0.68159 0.24843 0.05351 0.0
C486 C 0.66243 0.22135 0.04902 0.0
H487 H 0.55365 0.10632 0.00523 0.0
H488 H 0.57779 0.14577 0.02687 0.0
H489 H 0.64988 0.16147 0.06187 0.0
H490 H 0.74566 0.2868 0.05838 0.0
H491 H 0.71379 0.24225 0.05455 0.0
C492 C 0.5242 0.59733 0.18455 0.0
C493 C 0.53978 0.60906 0.16523 0.0
C494 C 0.51568 0.6106 0.19828 0.0
C495 C 0.48384 0.63514 0.20933 0.0
H496 H 0.52157 0.70819 0.21622 0.0
C497 C 0.43435 0.69485 0.21658 0.0
C498 C 0.44689 0.71834 0.22798 0.0
C499 C 0.44606 0.68015 0.21425 0.0
C500 C 0.51071 0.68772 0.21493 0.0
H501 H 0.56048 0.64431 0.14631 0.0
H502 H 0.54564 0.66732 0.16985 0.0
H503 H 0.54367 0.68606 0.20474 0.0
H504 H 0.48066 0.74403 0.24732 0.0
H505 H 0.50055 0.71802 0.24424 0.0
H506 H 0.4509 0.6368 0.21982 0.0
C507 C 0.53996 0.64804 0.17472 0.0
C508 C 0.52342 0.67502 0.20799 0.0
C509 C 0.54844 0.63483 0.1611 0.0
C510 C 0.47068 0.72615 0.23814 0.0
C511 C 0.48217 0.71128 0.23621 0.0
C512 C 0.47114 0.64782 0.21655 0.0
C513 C 0.52265 0.63584 0.19294 0.0
C514 C 0.51005 0.64866 0.20436 0.0
C515 C 0.47041 0.68843 0.22362 0.0
C516 C 0.48426 0.6744 0.21881 0.0
H517 H 0.51714 0.57743 0.18803 0.0
H518 H 0.50277 0.60075 0.21244 0.0
H519 H 0.47279 0.61485 0.20658 0.0
H520 H 0.41603 0.6884 0.20849 0.0
H521 H 0.43646 0.66286 0.20419 0.0
C522 C 0.93332 0.47649 0.34316 0.0
C523 C 0.94786 0.50203 0.33661 0.0
C524 C 0.91047 0.46784 0.35513 0.0
C525 C 0.86861 0.48725 0.3852 0.0
H526 H 0.8151 0.42721 0.35523 0.0
C527 C 0.76269 0.4593 0.38925 0.0
C528 C 0.74399 0.43347 0.38903 0.0
C529 C 0.78843 0.46682 0.38715 0.0
C530 C 0.82975 0.44367 0.36419 0.0
H531 H 0.95096 0.53893 0.33859 0.0
H532 H 0.91079 0.52385 0.35946 0.0
H533 H 0.85912 0.44217 0.34517 0.0
H534 H 0.73778 0.39523 0.38741 0.0
H535 H 0.78278 0.4083 0.38414 0.0
H536 H 0.83898 0.48895 0.40387 0.0
C537 C 0.91716 0.51051 0.35564 0.0
C538 C 0.8551 0.45229 0.3584 0.0
C539 C 0.94019 0.51921 0.34376 0.0
C540 C 0.75169 0.41528 0.38745 0.0
C541 C 0.77749 0.4228 0.38547 0.0
C542 C 0.84316 0.47854 0.39108 0.0
C543 C 0.90152 0.48451 0.36054 0.0
C544 C 0.87486 0.47435 0.36861 0.0
C545 C 0.79617 0.44869 0.38488 0.0
C546 C 0.82338 0.45682 0.38039 0.0
H547 H 0.93889 0.46291 0.33775 0.0
H548 H 0.89917 0.44782 0.35909 0.0
H549 H 0.88337 0.50418 0.39352 0.0
H550 H 0.75743 0.47384 0.39043 0.0
H551 H 0.80217 0.4869 0.38646 0.0
C552 C 0.08715 0.5548 0.36835 0.0
C553 C 0.0868 0.57522 0.35751 0.0
C554 C 0.10258 0.559 0.38774 0.0
C555 C 0.1402 0.60595 0.43302 0.0
H556 H 0.18574 0.57888 0.42706 0.0
C557 C 0.2317 0.64586 0.48662 0.0
C558 C 0.23782 0.62844 0.49635 0.0
C559 C 0.2124 0.63798 0.47014 0.0
C560 C 0.17297 0.58631 0.42918 0.0
H561 H 0.1008 0.61559 0.35891 0.0
H562 H 0.1274 0.62295 0.39291 0.0
H563 H 0.15101 0.56617 0.39952 0.0
H564 H 0.2291 0.58925 0.49567 0.0
H565 H 0.1953 0.57551 0.46706 0.0
H566 H 0.16222 0.62627 0.46253 0.0
C567 C 0.1159 0.60373 0.38658 0.0
C568 C 0.15302 0.57895 0.41345 0.0
C569 C 0.10075 0.59957 0.36712 0.0
C570 C 0.22493 0.6032 0.48849 0.0
C571 C 0.20554 0.5953 0.47206 0.0
C572 C 0.16006 0.61322 0.4488 0.0
C573 C 0.11759 0.58364 0.39666 0.0
C574 C 0.13669 0.58902 0.415 0.0
C575 C 0.1987 0.61249 0.46307 0.0
C576 C 0.17695 0.60383 0.44683 0.0
H577 H 0.07669 0.53591 0.36105 0.0
H578 H 0.10338 0.54315 0.39532 0.0
H579 H 0.12774 0.61379 0.43477 0.0
H580 H 0.24135 0.66548 0.49216 0.0
H581 H 0.20802 0.65185 0.46313 0.0
C582 C 0.55286 0.0863 0.5332 0.0
C583 C 0.53097 0.08365 0.52245 0.0
C584 C 0.56353 0.10267 0.5521 0.0
C585 C 0.56563 0.15976 0.57627 0.0
H586 H 0.60079 0.14959 0.62747 0.0
C587 C 0.60342 0.22686 0.65507 0.0
C588 C 0.6274 0.23287 0.66381 0.0
C589 C 0.59193 0.2087 0.63765 0.0
C590 C 0.59124 0.15277 0.61313 0.0
H591 H 0.50195 0.09431 0.52371 0.0
H592 H 0.51988 0.12209 0.55723 0.0
H593 H 0.57855 0.11578 0.59908 0.0
H594 H 0.65843 0.22503 0.66055 0.0
H595 H 0.63833 0.1934 0.63005 0.0
H596 H 0.57818 0.19666 0.59036 0.0
C597 C 0.52936 0.11226 0.55076 0.0
C598 C 0.57848 0.1334 0.5969 0.0
C599 C 0.5189 0.09616 0.53178 0.0
C600 C 0.63995 0.22087 0.65422 0.0
C601 C 0.62836 0.20258 0.6369 0.0
C602 C 0.57825 0.17903 0.59253 0.0
C603 C 0.55234 0.1165 0.56058 0.0
C604 C 0.56545 0.13665 0.57831 0.0
C605 C 0.60409 0.19606 0.62866 0.0
C606 C 0.59118 0.17575 0.61114 0.0
H607 H 0.56262 0.07703 0.52606 0.0
H608 H 0.5813 0.10557 0.55916 0.0
H609 H 0.55637 0.1632 0.56186 0.0
H610 H 0.59321 0.23571 0.66206 0.0
H611 H 0.57314 0.20397 0.63173 0.0
C612 C 0.50758 0.57612 0.68811 0.0
C613 C 0.49638 0.54968 0.68658 0.0
C614 C 0.503 0.58718 0.70733 0.0
C615 C 0.47244 0.57329 0.76589 0.0
H616 H 0.45836 0.62665 0.74878 0.0
C617 C 0.41221 0.60136 0.82244 0.0
C618 C 0.42279 0.6274 0.82703 0.0
C619 C 0.42305 0.59301 0.80579 0.0
C620 C 0.46245 0.61193 0.75385 0.0
H621 H 0.47283 0.51409 0.70418 0.0
H622 H 0.46418 0.53317 0.73751 0.0
H623 H 0.47605 0.61043 0.72016 0.0
H624 H 0.45243 0.66511 0.81706 0.0
H625 H 0.47098 0.65043 0.78755 0.0
H626 H 0.45769 0.57423 0.79939 0.0
C627 C 0.47699 0.54557 0.72427 0.0
C628 C 0.47279 0.60273 0.73752 0.0
C629 C 0.48193 0.53456 0.70519 0.0
C630 C 0.44383 0.64493 0.81394 0.0
C631 C 0.45446 0.63656 0.79706 0.0
C632 C 0.46177 0.58229 0.78213 0.0
C633 C 0.48668 0.57195 0.72516 0.0
C634 C 0.47776 0.58314 0.74326 0.0
C635 C 0.44446 0.61051 0.79317 0.0
C636 C 0.45649 0.60154 0.77619 0.0
H637 H 0.5188 0.5881 0.67388 0.0
H638 H 0.51137 0.60759 0.70772 0.0
H639 H 0.47636 0.5585 0.77106 0.0
H640 H 0.39606 0.58734 0.83225 0.0
H641 H 0.41477 0.57283 0.80287 0.0
C642 C 0.96261 0.47853 0.86462 0.0
C643 C 0.96491 0.45914 0.85382 0.0
C644 C 0.94613 0.47299 0.88344 0.0
C645 C 0.88811 0.41853 0.90712 0.0
H646 H 0.89863 0.46387 0.95837 0.0
C647 C 0.82013 0.39017 -0.01465 0.0
C648 C 0.81451 0.4084 -0.00599 0.0
C649 C 0.8384 0.39655 0.96804 0.0
C650 C 0.89536 0.45115 0.94401 0.0
H651 H 0.95359 0.41935 0.85502 0.0
H652 H 0.92556 0.40978 0.88839 0.0
H653 H 0.93277 0.47495 0.93034 0.0
H654 H 0.82313 0.44743 -0.00931 0.0
H655 H 0.85499 0.45845 0.96037 0.0
H656 H 0.8508 0.39469 0.92084 0.0
C657 C 0.93575 0.42907 0.88199 0.0
C658 C 0.91492 0.45747 0.92799 0.0
C659 C 0.95198 0.43456 0.86308 0.0
C660 C 0.82699 0.43291 -0.01559 0.0
C661 C 0.8454 0.43933 0.9672 0.0
C662 C 0.86866 0.41217 0.92317 0.0
C663 C 0.93184 0.44799 0.89181 0.0
C664 C 0.91153 0.44119 0.90937 0.0
C665 C 0.85155 0.42131 0.95909 0.0
C666 C 0.87206 0.4284 0.94178 0.0
H667 H 0.97221 0.49756 0.85755 0.0
H668 H 0.94349 0.48799 0.8905 0.0
H669 H 0.88458 0.40584 0.89267 0.0
H670 H 0.81089 0.37114 -0.00765 0.0
H671 H 0.84284 0.38229 0.96221 0.0
C672 C 0.53894 0.94691 0.0334 0.0
C673 C 0.52679 0.95924 0.02389 0.0
C674 C 0.52833 0.93071 0.05231 0.0
C675 C 0.47828 0.9089 0.09778 0.0
H676 H 0.47944 0.84604 0.09158 0.0
C677 C 0.41536 0.82061 0.15359 0.0
C678 C 0.42774 0.80873 0.16374 0.0
C679 C 0.42747 0.83911 0.13653 0.0
C680 C 0.47912 0.86356 0.09365 0.0
H681 H 0.49483 0.96544 0.02711 0.0
H682 H 0.47589 0.93675 0.06004 0.0
H683 H 0.50175 0.87977 0.0634 0.0
H684 H 0.46218 0.80631 0.16325 0.0
H685 H 0.48318 0.8384 0.13332 0.0
H686 H 0.45517 0.89228 0.12788 0.0
C687 C 0.49384 0.93986 0.05321 0.0
C688 C 0.49203 0.88298 0.07759 0.0
C689 C 0.50465 0.95633 0.0344 0.0
C690 C 0.4521 0.81507 0.15581 0.0
C691 C 0.46413 0.83343 0.13862 0.0
C692 C 0.46521 0.88936 0.11379 0.0
C693 C 0.50512 0.9262 0.06187 0.0
C694 C 0.49187 0.90595 0.07949 0.0
C695 C 0.45212 0.84596 0.12911 0.0
C696 C 0.46554 0.86651 0.11189 0.0
H697 H 0.55608 0.94897 0.02554 0.0
H698 H 0.53788 0.92103 0.05893 0.0
H699 H 0.47795 0.9264 0.09989 0.0
H700 H 0.39658 0.81621 0.1593 0.0
H701 H 0.41763 0.8482 0.12925 0.0
C702 C 0.58171 0.51849 0.2049 0.0
C703 C 0.56452 0.50266 0.188 0.0
C704 C 0.58723 0.50799 0.22402 0.0
C705 C 0.58792 0.44945 0.23785 0.0
H706 H 0.60819 0.47927 0.29893 0.0
C707 C 0.6144 0.40301 0.31167 0.0
C708 C 0.63511 0.41907 0.32582 0.0
C709 C 0.60523 0.41311 0.29508 0.0
C710 C 0.6028 0.47089 0.28185 0.0
H711 H 0.53796 0.46383 0.17854 0.0
H712 H 0.54667 0.44542 0.21241 0.0
H713 H 0.5903 0.49666 0.27147 0.0
H714 H 0.66302 0.45837 0.33298 0.0
H715 H 0.64711 0.47593 0.30385 0.0
H716 H 0.60048 0.42378 0.24814 0.0
C717 C 0.55651 0.46586 0.21067 0.0
C718 C 0.59248 0.48079 0.26616 0.0
C719 C 0.55123 0.47635 0.19147 0.0
C720 C 0.64703 0.44544 0.32239 0.0
C721 C 0.63777 0.45554 0.30587 0.0
C722 C 0.59812 0.43952 0.25353 0.0
C723 C 0.57551 0.4815 0.22653 0.0
C724 C 0.58496 0.47021 0.24394 0.0
C725 C 0.61651 0.43949 0.29231 0.0
C726 C 0.60577 0.45018 0.27566 0.0
H727 H 0.59243 0.53884 0.20232 0.0
H728 H 0.60202 0.5206 0.23583 0.0
H729 H 0.58298 0.44122 0.22069 0.0
H730 H 0.60473 0.38262 0.31385 0.0
H731 H 0.58875 0.40026 0.28496 0.0
C732 C 0.50523 0.9461 0.41823 0.0
C733 C 0.49577 0.96272 0.42157 0.0
C734 C 0.49874 0.93097 0.39842 0.0
C735 C 0.44509 0.89918 0.35963 0.0
H736 H 0.4884 0.88091 0.32522 0.0
C737 C 0.40702 0.82672 0.28465 0.0
C738 C 0.41752 0.81094 0.28162 0.0
C739 C 0.41714 0.84623 0.30101 0.0
C740 C 0.47598 0.88555 0.33488 0.0
H741 H 0.47362 0.97788 0.4063 0.0
H742 H 0.46224 0.95137 0.37155 0.0
H743 H 0.50725 0.91553 0.35326 0.0
H744 H 0.44611 0.80248 0.29421 0.0
H745 H 0.46316 0.83592 0.3233 0.0
H746 H 0.41371 0.86876 0.34205 0.0
C747 C 0.47458 0.95001 0.38429 0.0
C748 C 0.48684 0.90553 0.35077 0.0
C749 C 0.48132 0.96537 0.404 0.0
C750 C 0.43766 0.8144 0.29601 0.0
C751 C 0.44763 0.83377 0.31253 0.0
C752 C 0.43419 0.87906 0.34394 0.0
C753 C 0.48245 0.93201 0.38176 0.0
C754 C 0.47148 0.91246 0.36337 0.0
C755 C 0.43784 0.85026 0.3149 0.0
C756 C 0.44947 0.87187 0.33147 0.0
H757 H 0.51634 0.94372 0.43161 0.0
H758 H 0.50501 0.91721 0.39697 0.0
H759 H 0.43272 0.90378 0.36946 0.0
H760 H 0.39161 0.82471 0.27376 0.0
H761 H 0.40925 0.85868 0.30217 0.0
C762 C 0.52534 0.4355 0.58497 0.0
C763 C 0.53145 0.46057 0.58958 0.0
C764 C 0.53394 0.42956 0.56488 0.0
C765 C 0.54688 0.41831 0.51795 0.0
H766 H 0.61531 0.46672 0.49813 0.0
C767 C 0.59391 0.39668 0.44148 0.0
C768 C 0.62028 0.40624 0.44214 0.0
C769 C 0.58213 0.40401 0.45806 0.0
C770 C 0.5963 0.45282 0.50361 0.0
H771 H 0.54995 0.49884 0.57596 0.0
H772 H 0.56417 0.48829 0.54014 0.0
H773 H 0.59547 0.47819 0.52873 0.0
H774 H 0.65493 0.43047 0.46102 0.0
H775 H 0.63421 0.4422 0.49083 0.0
H776 H 0.54826 0.39231 0.49411 0.0
C777 C 0.55338 0.47334 0.55252 0.0
C778 C 0.58468 0.45962 0.52088 0.0
C779 C 0.54495 0.47935 0.57287 0.0
C780 C 0.63457 0.42284 0.46007 0.0
C781 C 0.62269 0.42978 0.47699 0.0
C782 C 0.55865 0.41136 0.50103 0.0
C783 C 0.54854 0.44847 0.54858 0.0
C784 C 0.55992 0.44232 0.5285 0.0
C785 C 0.59633 0.42068 0.47606 0.0
C786 C 0.58362 0.42842 0.49374 0.0
H787 H 0.5146 0.42052 0.59736 0.0
H788 H 0.53002 0.41028 0.56273 0.0
H789 H 0.52763 0.40461 0.52301 0.0
H790 H 0.58241 0.38416 0.42766 0.0
H791 H 0.56194 0.39698 0.45638 0.0
C792 C 0.08401 0.5347 0.73574 0.0
C793 C 0.08402 0.55031 0.7536 0.0
C794 C 0.09973 0.54533 0.71644 0.0
C795 C 0.16006 0.60325 0.70215 0.0
H796 H 0.14823 0.57218 0.64144 0.0
C797 C 0.2325 0.64409 0.62651 0.0
C798 C 0.23658 0.62648 0.61425 0.0
C799 C 0.21318 0.63587 0.64309 0.0
C800 C 0.15179 0.58096 0.65838 0.0
H801 H 0.09844 0.5891 0.76457 0.0
H802 H 0.12495 0.60784 0.73033 0.0
H803 H 0.11338 0.5566 0.66934 0.0
H804 H 0.22395 0.58644 0.61025 0.0
H805 H 0.19022 0.57219 0.63912 0.0
H806 H 0.19845 0.62765 0.69105 0.0
C807 C 0.1136 0.58739 0.73151 0.0
C808 C 0.13184 0.57206 0.67436 0.0
C809 C 0.09818 0.57673 0.75095 0.0
C810 C 0.22138 0.60054 0.6194 0.0
C811 C 0.20189 0.59232 0.63576 0.0
C812 C 0.17988 0.61231 0.68608 0.0
C813 C 0.11554 0.5718 0.71458 0.0
C814 C 0.13581 0.58286 0.69658 0.0
C815 C 0.19738 0.60988 0.64752 0.0
C816 C 0.17604 0.60101 0.66417 0.0
H817 H 0.07349 0.51425 0.73761 0.0
H818 H 0.10079 0.53268 0.70389 0.0
H819 H 0.16407 0.6117 0.71923 0.0
H820 H 0.24385 0.6642 0.62295 0.0
H821 H 0.21009 0.6498 0.65191 0.0
C822 C 0.54864 0.09488 0.91919 0.0
C823 C 0.55879 0.07888 0.92269 0.0
C824 C 0.5548 0.10987 0.89931 0.0
C825 C 0.60852 0.14288 0.86086 0.0
H826 H 0.56413 0.15877 0.82542 0.0
C827 C 0.64586 0.21496 0.78568 0.0
C828 C 0.63457 0.22995 0.78207 0.0
C829 C 0.63592 0.19549 0.80207 0.0
C830 C 0.57684 0.15481 0.83537 0.0
H831 H 0.58187 0.06463 0.90761 0.0
H832 H 0.5927 0.09092 0.87276 0.0
H833 H 0.5459 0.12434 0.85368 0.0
H834 H 0.60466 0.237 0.79362 0.0
H835 H 0.58792 0.20368 0.82284 0.0
H836 H 0.63953 0.17382 0.84341 0.0
C837 C 0.58005 0.09189 0.88542 0.0
C838 C 0.56634 0.13493 0.85138 0.0
C839 C 0.57363 0.07667 0.90519 0.0
C840 C 0.61373 0.2257 0.79588 0.0
C841 C 0.60396 0.20639 0.81247 0.0
C842 C 0.61904 0.16291 0.84507 0.0
C843 C 0.57146 0.10931 0.88274 0.0
C844 C 0.5821 0.12883 0.86432 0.0
C845 C 0.61462 0.19072 0.81546 0.0
C846 C 0.60336 0.16924 0.83219 0.0
H847 H 0.53722 0.09693 0.93251 0.0
H848 H 0.54798 0.12318 0.89773 0.0
H849 H 0.62117 0.13893 0.87095 0.0
H850 H 0.66181 0.21757 0.77521 0.0
H851 H 0.64448 0.18367 0.80367 0.0
C852 C 0.50361 0.56015 0.07451 0.0
C853 C 0.52537 0.58099 0.08382 0.0
C854 C 0.49167 0.56329 0.0551 0.0
C855 C 0.50016 0.60737 0.00724 0.0
H856 H 0.42814 0.58275 0.01565 0.0
C857 C 0.44883 0.64761 0.95422 0.0
C858 C 0.42479 0.63037 0.94516 0.0
C859 C 0.46033 0.63975 0.97059 0.0
C860 C 0.44816 0.58946 0.01287 0.0
H861 H 0.55268 0.6209 0.07965 0.0
H862 H 0.53215 0.62639 0.04567 0.0
H863 H 0.45066 0.57075 0.0433 0.0
H864 H 0.3935 0.59157 0.947 0.0
H865 H 0.41367 0.57787 0.97556 0.0
H866 H 0.49782 0.62639 0.97705 0.0
C867 C 0.52422 0.60765 0.0532 0.0
C868 C 0.46103 0.58251 0.02865 0.0
C869 C 0.53594 0.60457 0.07266 0.0
C870 C 0.41202 0.60536 0.95365 0.0
C871 C 0.42357 0.59749 0.97002 0.0
C872 C 0.4873 0.61427 -0.00854 0.0
C873 C 0.50153 0.58725 0.04463 0.0
C874 C 0.48727 0.59179 0.02623 0.0
C875 C 0.4481 0.61446 0.97827 0.0
C876 C 0.46127 0.60582 -0.00564 0.0
H877 H 0.49505 0.54185 0.083 0.0
H878 H 0.47433 0.54721 0.04872 0.0
H879 H 0.52031 0.61454 0.00478 0.0
H880 H 0.45914 0.66706 0.9482 0.0
H881 H 0.47898 0.65346 0.97704 0.0
C882 C 0.95059 0.4687 0.25173 0.0
C883 C 0.96692 0.49482 0.25506 0.0
C884 C 0.93604 0.45981 0.23159 0.0
C885 C 0.90456 0.48057 0.19165 0.0
H886 H 0.88876 0.41987 0.15705 0.0
C887 C 0.83378 0.44567 0.11546 0.0
C888 C 0.81843 0.41939 0.11211 0.0
C889 C 0.85311 0.45519 0.13201 0.0
C890 C 0.8927 0.43667 0.16675 0.0
H891 H 0.98219 0.53198 0.23955 0.0
H892 H 0.9566 0.51642 0.20426 0.0
H893 H 0.92261 0.4361 0.18598 0.0
H894 H 0.8107 0.38247 0.12415 0.0
H895 H 0.8438 0.39907 0.15365 0.0
H896 H 0.87413 0.48075 0.17333 0.0
C897 C 0.95507 0.50288 0.21722 0.0
C898 C 0.91225 0.44606 0.18315 0.0
C899 C 0.96987 0.51175 0.23725 0.0
C900 C 0.82227 0.40283 0.12623 0.0
C901 C 0.84145 0.41236 0.14298 0.0
C902 C 0.88484 0.47105 0.1755 0.0
C903 C 0.93737 0.47693 0.21461 0.0
C904 C 0.91829 0.46805 0.19579 0.0
C905 C 0.85739 0.43868 0.14582 0.0
C906 C 0.87856 0.4489 0.1629 0.0
H907 H 0.948 0.45534 0.2653 0.0
H908 H 0.92248 0.43973 0.23007 0.0
H909 H 0.90846 0.49728 0.20151 0.0
H910 H 0.83149 0.45898 0.10475 0.0
H911 H 0.86518 0.47555 0.13346 0.0
loop_
_geom_bond_atom_site_label_1
_geom_bond_atom_site_label_2
_geom_bond_distance
_geom_bond_site_symmetry_2
_ccdc_geom_bond_type
H0 C6 0.930 . S
H1 C9 0.931 . S
H2 C11 0.931 . S
H3 C13 0.930 . S
H4 C15 0.930 . S
H5 C17 0.951 . S
C6 H0 0.930 . S
C6 C7 1.380 . S
C6 C8 1.394 . S
C7 C6 1.380 . S
C7 C11 1.382 . S
C8 C6 1.394 . S
C8 C9 1.400 . S
C9 H1 0.931 . S
C9 C8 1.400 . S
C9 C10 1.375 . S
C10 C9 1.375 . S
C10 C11 1.415 . S
C10 C12 1.501 1_455 S
C11 H2 0.931 . S
C11 C7 1.382 . S
C11 C10 1.415 . S
C12 C10 1.501 1_655 S
C12 C13 1.384 . S
C12 C17 1.408 . S
C13 H3 0.930 . S
C13 C12 1.384 . S
C13 C14 1.389 . S
C14 C13 1.389 . S
C14 C15 1.405 . S
C15 H4 0.930 . S
C15 C14 1.405 . S
C15 C16 1.364 . S
C16 C15 1.364 . S
C16 C17 1.400 . S
C17 H5 0.951 . S
C17 C12 1.408 . S
C17 C16 1.400 . S
H18 C24 0.930 . S
H19 C27 0.931 . S
H20 C29 0.931 . S
H21 C31 0.930 . S
H22 C33 0.930 . S
H23 C35 0.931 1_545 S
C24 H18 0.930 . S
C24 C25 1.380 . S
C24 C26 1.394 . S
C25 C24 1.380 . S
C25 C29 1.382 . S
C26 C24 1.394 . S
C26 C27 1.400 . S
C27 H19 0.931 . S
C27 C26 1.400 . S
C27 C28 1.375 . S
C28 C27 1.375 . S
C28 C29 1.415 . S
C28 C30 1.501 1_545 S
C29 H20 0.931 . S
C29 C25 1.382 . S
C29 C28 1.415 . S
C30 C28 1.501 1_565 S
C30 C31 1.384 . S
C30 C35 1.408 . S
C31 H21 0.930 . S
C31 C30 1.384 . S
C31 C32 1.389 . S
C32 C31 1.389 . S
C32 C33 1.405 . S
C33 H22 0.930 . S
C33 C32 1.405 . S
C33 C34 1.364 . S
C34 C33 1.364 . S
C34 C35 1.400 . S
C35 H23 0.931 1_565 S
C35 C30 1.408 . S
C35 C34 1.400 . S
H36 C42 0.930 . S
H37 C45 0.931 . S
H38 C47 0.931 . S
H39 C49 0.930 . S
H40 C51 0.930 . S
H41 C53 0.931 . S
C42 H36 0.930 . S
C42 C43 1.380 . S
C42 C44 1.394 . S
C43 C42 1.380 . S
C43 C47 1.382 . S
C44 C42 1.394 . S
C44 C45 1.400 . S
C45 H37 0.931 . S
C45 C44 1.400 . S
C45 C46 1.375 . S
C46 C45 1.375 . S
C46 C47 1.415 . S
C46 C48 1.501 . S
C47 H38 0.931 . S
C47 C43 1.382 . S
C47 C46 1.415 . S
C48 C46 1.501 . S
C48 C49 1.384 . S
C48 C53 1.408 . S
C49 H39 0.930 . S
C49 C48 1.384 . S
C49 C50 1.389 . S
C50 C49 1.389 . S
C50 C51 1.405 . S
C51 H40 0.930 . S
C51 C50 1.405 . S
C51 C52 1.364 . S
C52 C51 1.364 . S
C52 C53 1.400 . S
C53 H41 0.931 . S
C53 C48 1.408 . S
C53 C52 1.400 . S
H54 C60 0.930 . S
H55 C63 0.931 . S
H56 C65 0.931 . S
H57 C67 0.930 . S
H58 C69 0.930 . S
H59 C71 0.947 . S
C60 H54 0.930 . S
C60 C61 1.380 . S
C60 C62 1.394 . S
C61 C60 1.380 . S
C61 C65 1.382 . S
C62 C60 1.394 . S
C62 C63 1.400 . S
C63 H55 0.931 . S
C63 C62 1.400 . S
C63 C64 1.375 . S
C64 C63 1.375 . S
C64 C65 1.415 . S
C64 C66 1.501 1_455 S
C65 H56 0.931 . S
C65 C61 1.382 . S
C65 C64 1.415 . S
C66 C64 1.501 1_655 S
C66 C67 1.384 . S
C66 C71 1.408 . S
C67 H57 0.930 . S
C67 C66 1.384 . S
C67 C68 1.389 . S
C68 C67 1.389 . S
C68 C69 1.405 . S
C69 H58 0.930 . S
C69 C68 1.405 . S
C69 C70 1.364 . S
C70 C69 1.364 . S
C70 C71 1.400 . S
C71 H59 0.947 . S
C71 C66 1.408 . S
C71 C70 1.400 . S
H72 C78 0.930 . S
H73 C81 0.931 . S
H74 C83 0.895 1_545 S
H75 C85 0.930 . S
H76 C87 0.930 . S
H77 C89 0.931 . S
C78 H72 0.930 . S
C78 C79 1.380 . S
C78 C80 1.394 1_554 S
C79 C78 1.380 . S
C79 C83 1.382 . S
C80 C78 1.394 1_556 S
C80 C81 1.400 . S
C81 H73 0.931 . S
C81 C80 1.400 . S
C81 C82 1.375 . S
C82 C81 1.375 . S
C82 C83 1.415 1_556 S
C82 C84 1.501 1_565 S
C83 H74 0.895 1_565 S
C83 C79 1.382 . S
C83 C82 1.415 1_554 S
C84 C82 1.501 1_545 S
C84 C85 1.384 1_556 S
C84 C89 1.408 . S
C85 H75 0.930 . S
C85 C84 1.384 1_554 S
C85 C86 1.389 1_554 S
C86 C85 1.389 1_556 S
C86 C87 1.405 . S
C87 H76 0.930 . S
C87 C86 1.405 . S
C87 C88 1.364 . S
C88 C87 1.364 . S
C88 C89 1.400 . S
C89 H77 0.931 . S
C89 C84 1.408 . S
C89 C88 1.400 . S
H90 C96 0.930 . S
H91 C99 0.931 . S
H92 C101 0.931 . S
H93 C103 0.930 . S
H94 C105 0.930 . S
H95 C107 0.931 . S
C96 H90 0.930 . S
C96 C97 1.380 . S
C96 C98 1.394 . S
C97 C96 1.380 . S
C97 C101 1.382 . S
C98 C96 1.394 . S
C98 C99 1.400 . S
C99 H91 0.931 . S
C99 C98 1.400 . S
C99 C100 1.375 . S
C100 C99 1.375 . S
C100 C101 1.415 . S
C100 C102 1.501 . S
C101 H92 0.931 . S
C101 C97 1.382 . S
C101 C100 1.415 . S
C102 C100 1.501 . S
C102 C103 1.384 . S
C102 C107 1.408 . S
C103 H93 0.930 . S
C103 C102 1.384 . S
C103 C104 1.389 . S
C104 C103 1.389 . S
C104 C105 1.405 . S
C105 H94 0.930 . S
C105 C104 1.405 . S
C105 C106 1.364 . S
C106 C105 1.364 . S
C106 C107 1.400 . S
C107 H95 0.931 . S
C107 C102 1.408 . S
C107 C106 1.400 . S
O108 Cd109 2.223 . S
O108 C116 1.315 . S
Cd109 O108 2.223 . S
Cd109 O112 2.297 . S
Cd109 O113 2.439 . S
Cd109 O119 2.240 . S
Cd110 O111 2.240 . S
Cd110 O118 2.223 . S
Cd110 O120 2.297 . S
Cd110 O121 2.439 . S
O111 Cd110 2.240 . S
O111 C116 1.279 . S
O112 Cd109 2.297 . S
O112 C114 1.247 . S
O113 Cd109 2.439 . S
O113 C114 1.208 . S
C114 O112 1.247 . S
C114 O113 1.208 . S
C115 O120 1.247 . S
C115 O121 1.208 . S
C116 O108 1.315 . S
C116 O111 1.279 . S
C117 O118 1.315 . S
C117 O119 1.279 . S
O118 Cd110 2.223 . S
O118 C117 1.315 . S
O119 Cd109 2.240 . S
O119 C117 1.279 . S
O120 Cd110 2.297 . S
O120 C115 1.247 . S
O121 Cd110 2.439 . S
O121 C115 1.208 . S
O122 Cd123 2.223 . S
O122 C130 1.315 . S
Cd123 O122 2.223 . S
Cd123 O126 2.297 . S
Cd123 O127 2.439 . S
Cd123 O133 2.240 . S
Cd124 O125 2.240 . S
Cd124 O132 2.223 . S
Cd124 O134 2.297 . S
Cd124 O135 2.439 . S
O125 Cd124 2.240 . S
O125 C130 1.279 . S
O126 Cd123 2.297 . S
O126 C128 1.247 . S
O127 Cd123 2.439 . S
O127 C128 1.208 . S
C128 O126 1.247 . S
C128 O127 1.208 . S
C129 O134 1.247 . S
C129 O135 1.208 . S
C130 O122 1.315 . S
C130 O125 1.279 . S
C131 O132 1.315 . S
C131 O133 1.279 . S
O132 Cd124 2.223 . S
O132 C131 1.315 . S
O133 Cd123 2.240 . S
O133 C131 1.279 . S
O134 Cd124 2.297 . S
O134 C129 1.247 . S
O135 Cd124 2.439 . S
O135 C129 1.208 . S
O136 Cd137 2.223 . S
O136 C144 1.315 . S
Cd137 O136 2.223 . S
Cd137 O140 2.297 . S
Cd137 O141 2.439 . S
Cd137 O147 2.240 . S
Cd138 O139 2.240 . S
Cd138 O146 2.223 . S
Cd138 O148 2.297 . S
Cd138 O149 2.439 . S
O139 Cd138 2.240 . S
O139 C144 1.279 . S
O140 Cd137 2.297 . S
O140 C142 1.247 . S
O141 Cd137 2.439 . S
O141 C142 1.208 . S
C142 O140 1.247 . S
C142 O141 1.208 . S
C143 O148 1.247 . S
C143 O149 1.208 . S
C144 O136 1.315 . S
C144 O139 1.279 . S
C145 O146 1.315 . S
C145 O147 1.279 . S
O146 Cd138 2.223 . S
O146 C145 1.315 . S
O147 Cd137 2.240 . S
O147 C145 1.279 . S
O148 Cd138 2.297 . S
O148 C143 1.247 . S
O149 Cd138 2.439 . S
O149 C143 1.208 . S
O150 Cd151 2.223 . S
O150 C158 1.315 . S
Cd151 O150 2.223 . S
Cd151 O154 2.297 . S
Cd151 O155 2.439 . S
Cd151 O161 2.240 . S
Cd152 O153 2.240 . S
Cd152 O160 2.223 . S
Cd152 O162 2.297 . S
Cd152 O163 2.439 . S
O153 Cd152 2.240 . S
O153 C158 1.279 . S
O154 Cd151 2.297 . S
O154 C156 1.247 . S
O155 Cd151 2.439 . S
O155 C156 1.208 . S
C156 O154 1.247 . S
C156 O155 1.208 . S
C157 O162 1.247 . S
C157 O163 1.208 . S
C158 O150 1.315 . S
C158 O153 1.279 . S
C159 O160 1.315 . S
C159 O161 1.279 . S
O160 Cd152 2.223 . S
O160 C159 1.315 . S
O161 Cd151 2.240 . S
O161 C159 1.279 . S
O162 Cd152 2.297 . S
O162 C157 1.247 . S
O163 Cd152 2.439 . S
O163 C157 1.208 . S
O164 Cd165 2.223 . S
O164 C172 1.315 . S
Cd165 O164 2.223 . S
Cd165 O168 2.297 . S
Cd165 O169 2.439 . S
Cd165 O175 2.240 . S
Cd166 O167 2.240 . S
Cd166 O174 2.223 . S
Cd166 O176 2.297 . S
Cd166 O177 2.439 . S
O167 Cd166 2.240 . S
O167 C172 1.279 . S
O168 Cd165 2.297 . S
O168 C170 1.247 . S
O169 Cd165 2.439 . S
O169 C170 1.208 . S
C170 O168 1.247 . S
C170 O169 1.208 . S
C171 O176 1.247 . S
C171 O177 1.208 . S
C172 O164 1.315 . S
C172 O167 1.279 . S
C173 O174 1.315 . S
C173 O175 1.279 . S
O174 Cd166 2.223 . S
O174 C173 1.315 . S
O175 Cd165 2.240 . S
O175 C173 1.279 . S
O176 Cd166 2.297 . S
O176 C171 1.247 . S
O177 Cd166 2.439 . S
O177 C171 1.208 . S
O178 Cd179 2.223 . S
O178 C186 1.315 . S
Cd179 O178 2.223 . S
Cd179 O182 2.297 . S
Cd179 O183 2.439 . S
Cd179 O189 2.240 . S
Cd180 O181 2.240 . S
Cd180 O188 2.223 . S
Cd180 O190 2.297 . S
Cd180 O191 2.439 . S
O181 Cd180 2.240 . S
O181 C186 1.279 . S
O182 Cd179 2.297 . S
O182 C184 1.247 . S
O183 Cd179 2.439 . S
O183 C184 1.208 . S
C184 O182 1.247 . S
C184 O183 1.208 . S
C185 O190 1.247 . S
C185 O191 1.208 . S
C186 O178 1.315 . S
C186 O181 1.279 . S
C187 O188 1.315 . S
C187 O189 1.279 . S
O188 Cd180 2.223 . S
O188 C187 1.315 . S
O189 Cd179 2.240 . S
O189 C187 1.279 . S
O190 Cd180 2.297 . S
O190 C185 1.247 . S
O191 Cd180 2.439 . S
O191 C185 1.208 . S
C192 C193 1.349 . S
C192 C194 1.327 . S
C192 H217 0.950 . S
C193 C192 1.349 . S
C193 C209 1.349 . S
C194 C192 1.327 . S
C194 C213 1.429 . S
C194 H218 0.950 . S
C195 C212 1.574 . S
C195 C214 1.368 . S
C195 H219 0.949 . S
H196 C200 0.949 . S
C197 C198 1.349 . S
C197 C199 1.327 . S
C197 H220 0.950 . S
C198 C197 1.349 . S
C198 C210 1.349 . S
C199 C197 1.327 . S
C199 C215 1.429 . S
C199 H221 0.950 . S
C200 H196 0.949 . S
C200 C208 1.574 . S
C200 C216 1.368 . S
H201 C209 0.950 . S
H202 C207 0.950 . S
H203 C208 0.949 . S
H204 C210 0.950 . S
H205 C211 0.950 . S
H206 C212 0.949 . S
C207 H202 0.950 . S
C207 C209 1.327 . S
C207 C213 1.429 . S
C208 C200 1.574 . S
C208 H203 0.949 . S
C208 C214 1.368 . S
C209 C193 1.349 . S
C209 H201 0.950 . S
C209 C207 1.327 . S
C210 C198 1.349 . S
C210 H204 0.950 . S
C210 C211 1.327 . S
C211 H205 0.950 . S
C211 C210 1.327 . S
C211 C215 1.429 . S
C212 C195 1.574 . S
C212 H206 0.949 . S
C212 C216 1.368 . S
C213 C194 1.429 . S
C213 C207 1.429 . S
C213 C214 1.523 . S
C214 C195 1.368 . S
C214 C208 1.368 . S
C214 C213 1.523 . S
C215 C199 1.429 . S
C215 C211 1.429 . S
C215 C216 1.523 . S
C216 C200 1.368 . S
C216 C212 1.368 . S
C216 C215 1.523 . S
H217 C192 0.950 . S
H218 C194 0.950 . S
H219 C195 0.949 . S
H220 C197 0.950 . S
H221 C199 0.950 . S
C222 C223 1.349 . S
C222 C224 1.327 . S
C222 H247 0.950 . S
C223 C222 1.349 . S
C223 C239 1.349 . S
C224 C222 1.327 . S
C224 C243 1.429 . S
C224 H248 0.950 . S
C225 C242 1.574 . S
C225 C244 1.368 . S
C225 H249 0.949 . S
H226 C230 0.949 . S
C227 C228 1.349 . S
C227 C229 1.327 . S
C227 H250 0.950 . S
C228 C227 1.349 . S
C228 C240 1.349 . S
C229 C227 1.327 . S
C229 C245 1.429 . S
C229 H251 0.950 . S
C230 H226 0.949 . S
C230 C238 1.574 . S
C230 C246 1.368 . S
H231 C239 0.950 . S
H232 C237 0.950 . S
H233 C238 0.949 . S
H234 C240 0.950 . S
H235 C241 0.950 . S
H236 C242 0.949 . S
C237 H232 0.950 . S
C237 C239 1.327 . S
C237 C243 1.429 . S
C238 C230 1.574 . S
C238 H233 0.949 . S
C238 C244 1.368 . S
C239 C223 1.349 . S
C239 H231 0.950 . S
C239 C237 1.327 . S
C240 C228 1.349 . S
C240 H234 0.950 . S
C240 C241 1.327 . S
C241 H235 0.950 . S
C241 C240 1.327 . S
C241 C245 1.429 . S
C242 C225 1.574 . S
C242 H236 0.949 . S
C242 C246 1.368 . S
C243 C224 1.429 . S
C243 C237 1.429 . S
C243 C244 1.523 . S
C244 C225 1.368 . S
C244 C238 1.368 . S
C244 C243 1.523 . S
C245 C229 1.429 . S
C245 C241 1.429 . S
C245 C246 1.523 . S
C246 C230 1.368 . S
C246 C242 1.368 . S
C246 C245 1.523 . S
H247 C222 0.950 . S
H248 C224 0.950 . S
H249 C225 0.949 . S
H250 C227 0.950 . S
H251 C229 0.950 . S
C252 C253 1.349 . S
C252 C254 1.327 . S
C252 H277 0.950 . S
C253 C252 1.349 . S
C253 C269 1.349 . S
C254 C252 1.327 . S
C254 C273 1.429 . S
C254 H278 0.950 . S
C255 C272 1.574 . S
C255 C274 1.368 . S
C255 H279 0.949 . S
H256 C260 0.949 . S
C257 C258 1.349 . S
C257 C259 1.327 . S
C257 H280 0.950 . S
C258 C257 1.349 . S
C258 C270 1.349 . S
C259 C257 1.327 . S
C259 C275 1.429 . S
C259 H281 0.950 . S
C260 H256 0.949 . S
C260 C268 1.574 . S
C260 C276 1.368 . S
H261 C269 0.950 . S
H262 C267 0.950 . S
H263 C268 0.949 . S
H264 C270 0.950 . S
H265 C271 0.950 . S
H266 C272 0.949 . S
C267 H262 0.950 . S
C267 C269 1.327 . S
C267 C273 1.429 . S
C268 C260 1.574 . S
C268 H263 0.949 . S
C268 C274 1.368 . S
C269 C253 1.349 . S
C269 H261 0.950 . S
C269 C267 1.327 . S
C270 C258 1.349 . S
C270 H264 0.950 . S
C270 C271 1.327 . S
C271 H265 0.950 . S
C271 C270 1.327 . S
C271 C275 1.429 . S
C272 C255 1.574 . S
C272 H266 0.949 . S
C272 C276 1.368 . S
C273 C254 1.429 . S
C273 C267 1.429 . S
C273 C274 1.523 . S
C274 C255 1.368 . S
C274 C268 1.368 . S
C274 C273 1.523 . S
C275 C259 1.429 . S
C275 C271 1.429 . S
C275 C276 1.523 . S
C276 C260 1.368 . S
C276 C272 1.368 . S
C276 C275 1.523 . S
H277 C252 0.950 . S
H278 C254 0.950 . S
H279 C255 0.949 . S
H280 C257 0.950 . S
H281 C259 0.950 . S
C282 C283 1.349 . S
C282 C284 1.327 . S
C282 H307 0.950 . S
C283 C282 1.349 . S
C283 C299 1.349 . S
C284 C282 1.327 . S
C284 C303 1.429 . S
C284 H308 0.950 . S
C285 C302 1.574 . S
C285 C304 1.368 . S
C285 H309 0.949 . S
H286 C290 0.949 . S
C287 C288 1.349 . S
C287 C289 1.327 . S
C287 H310 0.950 . S
C288 C287 1.349 . S
C288 C300 1.349 . S
C289 C287 1.327 . S
C289 C305 1.429 . S
C289 H311 0.950 . S
C290 H286 0.949 . S
C290 C298 1.574 . S
C290 C306 1.368 . S
H291 C299 0.950 . S
H292 C297 0.950 . S
H293 C298 0.949 . S
H294 C300 0.950 . S
H295 C301 0.950 . S
H296 C302 0.949 . S
C297 H292 0.950 . S
C297 C299 1.327 . S
C297 C303 1.429 . S
C298 C290 1.574 . S
C298 H293 0.949 . S
C298 C304 1.368 . S
C299 C283 1.349 . S
C299 H291 0.950 . S
C299 C297 1.327 . S
C300 C288 1.349 . S
C300 H294 0.950 . S
C300 C301 1.327 . S
C301 H295 0.950 . S
C301 C300 1.327 . S
C301 C305 1.429 . S
C302 C285 1.574 . S
C302 H296 0.949 . S
C302 C306 1.368 . S
C303 C284 1.429 . S
C303 C297 1.429 . S
C303 C304 1.523 . S
C304 C285 1.368 . S
C304 C298 1.368 . S
C304 C303 1.523 . S
C305 C289 1.429 . S
C305 C301 1.429 . S
C305 C306 1.523 . S
C306 C290 1.368 . S
C306 C302 1.368 . S
C306 C305 1.523 . S
H307 C282 0.950 . S
H308 C284 0.950 . S
H309 C285 0.949 . S
H310 C287 0.950 . S
H311 C289 0.950 . S
C312 C313 1.349 . S
C312 C314 1.327 . S
C312 H337 0.950 1_556 S
C313 C312 1.349 . S
C313 C329 1.349 . S
C314 C312 1.327 . S
C314 C333 1.429 . S
C314 H338 0.950 . S
C315 C332 1.574 . S
C315 C334 1.368 . S
C315 H339 0.949 . S
H316 C320 0.949 . S
C317 C318 1.349 . S
C317 C319 1.327 . S
C317 H340 0.950 . S
C318 C317 1.349 . S
C318 C330 1.349 . S
C319 C317 1.327 . S
C319 C335 1.429 . S
C319 H341 0.950 . S
C320 H316 0.949 . S
C320 C328 1.574 . S
C320 C336 1.368 . S
H321 C329 0.950 . S
H322 C327 0.950 . S
H323 C328 0.949 . S
H324 C330 0.950 . S
H325 C331 0.950 . S
H326 C332 0.949 . S
C327 H322 0.950 . S
C327 C329 1.327 . S
C327 C333 1.429 . S
C328 C320 1.574 . S
C328 H323 0.949 . S
C328 C334 1.368 . S
C329 C313 1.349 . S
C329 H321 0.950 . S
C329 C327 1.327 . S
C330 C318 1.349 . S
C330 H324 0.950 . S
C330 C331 1.327 . S
C331 H325 0.950 . S
C331 C330 1.327 . S
C331 C335 1.429 . S
C332 C315 1.574 . S
C332 H326 0.949 . S
C332 C336 1.368 . S
C333 C314 1.429 . S
C333 C327 1.429 . S
C333 C334 1.523 . S
C334 C315 1.368 . S
C334 C328 1.368 . S
C334 C333 1.523 . S
C335 C319 1.429 . S
C335 C331 1.429 . S
C335 C336 1.523 . S
C336 C320 1.368 . S
C336 C332 1.368 . S
C336 C335 1.523 . S
H337 C312 0.950 1_554 S
H338 C314 0.950 . S
H339 C315 0.949 . S
H340 C317 0.950 . S
H341 C319 0.950 . S
C342 C343 1.349 . S
C342 C344 1.327 . S
C342 H367 0.950 . S
C343 C342 1.349 . S
C343 C359 1.349 . S
C344 C342 1.327 . S
C344 C363 1.429 . S
C344 H368 0.950 . S
C345 C362 1.574 . S
C345 C364 1.368 . S
C345 H369 0.949 . S
H346 C350 0.949 . S
C347 C348 1.349 . S
C347 C349 1.327 . S
C347 H370 0.950 . S
C348 C347 1.349 . S
C348 C360 1.349 . S
C349 C347 1.327 . S
C349 C365 1.429 . S
C349 H371 0.950 . S
C350 H346 0.949 . S
C350 C358 1.574 . S
C350 C366 1.368 . S
H351 C359 0.950 . S
H352 C357 0.950 . S
H353 C358 0.949 . S
H354 C360 0.950 . S
H355 C361 0.950 . S
H356 C362 0.949 . S
C357 H352 0.950 . S
C357 C359 1.327 . S
C357 C363 1.429 . S
C358 C350 1.574 . S
C358 H353 0.949 . S
C358 C364 1.368 . S
C359 C343 1.349 . S
C359 H351 0.950 . S
C359 C357 1.327 . S
C360 C348 1.349 . S
C360 H354 0.950 . S
C360 C361 1.327 . S
C361 H355 0.950 . S
C361 C360 1.327 . S
C361 C365 1.429 . S
C362 C345 1.574 . S
C362 H356 0.949 . S
C362 C366 1.368 . S
C363 C344 1.429 . S
C363 C357 1.429 . S
C363 C364 1.523 . S
C364 C345 1.368 . S
C364 C358 1.368 . S
C364 C363 1.523 . S
C365 C349 1.429 . S
C365 C361 1.429 . S
C365 C366 1.523 . S
C366 C350 1.368 . S
C366 C362 1.368 . S
C366 C365 1.523 . S
H367 C342 0.950 . S
H368 C344 0.950 . S
H369 C345 0.949 . S
H370 C347 0.950 . S
H371 C349 0.950 . S
C372 C373 1.349 . S
C372 C374 1.327 . S
C372 H397 0.950 . S
C373 C372 1.349 . S
C373 C389 1.349 . S
C374 C372 1.327 . S
C374 C393 1.429 . S
C374 H398 0.950 . S
C375 C392 1.574 . S
C375 C394 1.368 . S
C375 H399 0.949 . S
H376 C380 0.949 . S
C377 C378 1.349 . S
C377 C379 1.327 . S
C377 H400 0.950 . S
C378 C377 1.349 . S
C378 C390 1.349 . S
C379 C377 1.327 . S
C379 C395 1.429 . S
C379 H401 0.950 . S
C380 H376 0.949 . S
C380 C388 1.574 . S
C380 C396 1.368 . S
H381 C389 0.950 . S
H382 C387 0.950 . S
H383 C388 0.949 . S
H384 C390 0.950 . S
H385 C391 0.950 . S
H386 C392 0.949 . S
C387 H382 0.950 . S
C387 C389 1.327 . S
C387 C393 1.429 . S
C388 C380 1.574 . S
C388 H383 0.949 . S
C388 C394 1.368 . S
C389 C373 1.349 . S
C389 H381 0.950 . S
C389 C387 1.327 . S
C390 C378 1.349 . S
C390 H384 0.950 . S
C390 C391 1.327 . S
C391 H385 0.950 . S
C391 C390 1.327 . S
C391 C395 1.429 . S
C392 C375 1.574 . S
C392 H386 0.949 . S
C392 C396 1.368 . S
C393 C374 1.429 . S
C393 C387 1.429 . S
C393 C394 1.523 . S
C394 C375 1.368 . S
C394 C388 1.368 . S
C394 C393 1.523 . S
C395 C379 1.429 . S
C395 C391 1.429 . S
C395 C396 1.523 . S
C396 C380 1.368 . S
C396 C392 1.368 . S
C396 C395 1.523 . S
H397 C372 0.950 . S
H398 C374 0.950 . S
H399 C375 0.949 . S
H400 C377 0.950 . S
H401 C379 0.950 . S
C402 C403 1.349 . S
C402 C404 1.327 . S
C402 H427 0.950 . S
C403 C402 1.349 . S
C403 C419 1.349 . S
C404 C402 1.327 . S
C404 C423 1.429 . S
C404 H428 0.950 . S
C405 C422 1.574 . S
C405 C424 1.368 . S
C405 H429 0.949 . S
H406 C410 0.949 . S
C407 C408 1.349 . S
C407 C409 1.327 . S
C407 H430 0.950 . S
C408 C407 1.349 . S
C408 C420 1.349 . S
C409 C407 1.327 . S
C409 C425 1.429 . S
C409 H431 0.950 . S
C410 H406 0.949 . S
C410 C418 1.574 . S
C410 C426 1.368 . S
H411 C419 0.950 . S
H412 C417 0.950 . S
H413 C418 0.949 . S
H414 C420 0.950 . S
H415 C421 0.950 . S
H416 C422 0.949 . S
C417 H412 0.950 . S
C417 C419 1.327 . S
C417 C423 1.429 . S
C418 C410 1.574 . S
C418 H413 0.949 . S
C418 C424 1.368 . S
C419 C403 1.349 . S
C419 H411 0.950 . S
C419 C417 1.327 . S
C420 C408 1.349 . S
C420 H414 0.950 . S
C420 C421 1.327 . S
C421 H415 0.950 . S
C421 C420 1.327 . S
C421 C425 1.429 . S
C422 C405 1.574 . S
C422 H416 0.949 . S
C422 C426 1.368 . S
C423 C404 1.429 . S
C423 C417 1.429 . S
C423 C424 1.523 . S
C424 C405 1.368 . S
C424 C418 1.368 . S
C424 C423 1.523 . S
C425 C409 1.429 . S
C425 C421 1.429 . S
C425 C426 1.523 . S
C426 C410 1.368 . S
C426 C422 1.368 . S
C426 C425 1.523 . S
H427 C402 0.950 . S
H428 C404 0.950 . S
H429 C405 0.949 . S
H430 C407 0.950 . S
H431 C409 0.950 . S
C432 C433 1.349 . S
C432 C434 1.327 . S
C432 H457 0.950 . S
C433 C432 1.349 . S
C433 C449 1.349 . S
C434 C432 1.327 . S
C434 C453 1.429 . S
C434 H458 0.950 . S
C435 C452 1.574 . S
C435 C454 1.368 . S
C435 H459 0.949 . S
H436 C440 0.949 . S
C437 C438 1.349 . S
C437 C439 1.327 . S
C437 H460 0.950 . S
C438 C437 1.349 . S
C438 C450 1.349 . S
C439 C437 1.327 . S
C439 C455 1.429 . S
C439 H461 0.950 . S
C440 H436 0.949 . S
C440 C448 1.574 . S
C440 C456 1.368 . S
H441 C449 0.950 . S
H442 C447 0.950 . S
H443 C448 0.949 . S
H444 C450 0.950 . S
H445 C451 0.950 . S
H446 C452 0.949 . S
C447 H442 0.950 . S
C447 C449 1.327 . S
C447 C453 1.429 . S
C448 C440 1.574 . S
C448 H443 0.949 . S
C448 C454 1.368 . S
C449 C433 1.349 . S
C449 H441 0.950 . S
C449 C447 1.327 . S
C450 C438 1.349 . S
C450 H444 0.950 . S
C450 C451 1.327 . S
C451 H445 0.950 . S
C451 C450 1.327 . S
C451 C455 1.429 . S
C452 C435 1.574 . S
C452 H446 0.949 . S
C452 C456 1.368 . S
C453 C434 1.429 . S
C453 C447 1.429 . S
C453 C454 1.523 . S
C454 C435 1.368 . S
C454 C448 1.368 . S
C454 C453 1.523 . S
C455 C439 1.429 . S
C455 C451 1.429 . S
C455 C456 1.523 . S
C456 C440 1.368 . S
C456 C452 1.368 . S
C456 C455 1.523 . S
H457 C432 0.950 . S
H458 C434 0.950 . S
H459 C435 0.949 . S
H460 C437 0.950 . S
H461 C439 0.950 . S
C462 C463 1.349 1_556 S
C462 C464 1.324 1_556 S
C462 H487 0.950 . S
C463 C462 1.349 1_554 S
C463 C479 1.349 . S
C464 C462 1.324 1_554 S
C464 C483 1.439 . S
C464 H488 0.941 1_554 S
C465 C482 1.574 . S
C465 C484 1.368 . S
C465 H489 0.949 . S
H466 C470 0.949 . S
C467 C468 1.349 . S
C467 C469 1.327 . S
C467 H490 0.950 . S
C468 C467 1.349 . S
C468 C480 1.349 . S
C469 C467 1.327 . S
C469 C485 1.429 . S
C469 H491 0.950 . S
C470 H466 0.949 . S
C470 C478 1.574 . S
C470 C486 1.368 . S
H471 C479 0.950 . S
H472 C477 0.950 . S
H473 C478 0.949 1_556 S
H474 C480 0.950 . S
H475 C481 0.950 . S
H476 C482 0.949 . S
C477 H472 0.950 . S
C477 C479 1.327 . S
C477 C483 1.429 . S
C478 C470 1.574 . S
C478 H473 0.949 1_554 S
C478 C484 1.368 . S
C479 C463 1.349 . S
C479 H471 0.950 . S
C479 C477 1.327 . S
C480 C468 1.349 . S
C480 H474 0.950 . S
C480 C481 1.327 . S
C481 H475 0.950 . S
C481 C480 1.327 . S
C481 C485 1.429 . S
C482 C465 1.574 . S
C482 H476 0.949 . S
C482 C486 1.368 . S
C483 C464 1.439 . S
C483 C477 1.429 . S
C483 C484 1.523 . S
C484 C465 1.368 . S
C484 C478 1.368 . S
C484 C483 1.523 . S
C485 C469 1.429 . S
C485 C481 1.429 . S
C485 C486 1.523 . S
C486 C470 1.368 . S
C486 C482 1.368 . S
C486 C485 1.523 . S
H487 C462 0.950 . S
H488 C464 0.941 1_556 S
H489 C465 0.949 . S
H490 C467 0.950 . S
H491 C469 0.950 . S
C492 C493 1.349 . S
C492 C494 1.327 . S
C492 H517 0.950 . S
C493 C492 1.349 . S
C493 C509 1.349 . S
C494 C492 1.327 . S
C494 C513 1.429 . S
C494 H518 0.950 . S
C495 C512 1.574 . S
C495 C514 1.368 . S
C495 H519 0.949 . S
H496 C500 0.949 . S
C497 C498 1.349 . S
C497 C499 1.327 . S
C497 H520 0.950 . S
C498 C497 1.349 . S
C498 C510 1.349 . S
C499 C497 1.327 . S
C499 C515 1.429 . S
C499 H521 0.950 . S
C500 H496 0.949 . S
C500 C508 1.574 . S
C500 C516 1.368 . S
H501 C509 0.950 . S
H502 C507 0.950 . S
H503 C508 0.949 . S
H504 C510 0.950 . S
H505 C511 0.950 . S
H506 C512 0.949 . S
C507 H502 0.950 . S
C507 C509 1.327 . S
C507 C513 1.429 . S
C508 C500 1.574 . S
C508 H503 0.949 . S
C508 C514 1.368 . S
C509 C493 1.349 . S
C509 H501 0.950 . S
C509 C507 1.327 . S
C510 C498 1.349 . S
C510 H504 0.950 . S
C510 C511 1.327 . S
C511 H505 0.950 . S
C511 C510 1.327 . S
C511 C515 1.429 . S
C512 C495 1.574 . S
C512 H506 0.949 . S
C512 C516 1.368 . S
C513 C494 1.429 . S
C513 C507 1.429 . S
C513 C514 1.523 . S
C514 C495 1.368 . S
C514 C508 1.368 . S
C514 C513 1.523 . S
C515 C499 1.429 . S
C515 C511 1.429 . S
C515 C516 1.523 . S
C516 C500 1.368 . S
C516 C512 1.368 . S
C516 C515 1.523 . S
H517 C492 0.950 . S
H518 C494 0.950 . S
H519 C495 0.949 . S
H520 C497 0.950 . S
H521 C499 0.950 . S
C522 C523 1.349 . S
C522 C524 1.327 . S
C522 H547 0.950 . S
C523 C522 1.349 . S
C523 C539 1.349 . S
C524 C522 1.327 . S
C524 C543 1.429 . S
C524 H548 0.950 . S
C525 C542 1.574 . S
C525 C544 1.368 . S
C525 H549 0.949 . S
H526 C530 0.949 . S
C527 C528 1.349 . S
C527 C529 1.327 . S
C527 H550 0.950 . S
C528 C527 1.349 . S
C528 C540 1.349 . S
C529 C527 1.327 . S
C529 C545 1.429 . S
C529 H551 0.950 . S
C530 H526 0.949 . S
C530 C538 1.574 . S
C530 C546 1.368 . S
H531 C539 0.950 . S
H532 C537 0.950 . S
H533 C538 0.949 . S
H534 C540 0.950 . S
H535 C541 0.950 . S
H536 C542 0.949 . S
C537 H532 0.950 . S
C537 C539 1.327 . S
C537 C543 1.429 . S
C538 C530 1.574 . S
C538 H533 0.949 . S
C538 C544 1.368 . S
C539 C523 1.349 . S
C539 H531 0.950 . S
C539 C537 1.327 . S
C540 C528 1.349 . S
C540 H534 0.950 . S
C540 C541 1.327 . S
C541 H535 0.950 . S
C541 C540 1.327 . S
C541 C545 1.429 . S
C542 C525 1.574 . S
C542 H536 0.949 . S
C542 C546 1.368 . S
C543 C524 1.429 . S
C543 C537 1.429 . S
C543 C544 1.523 . S
C544 C525 1.368 . S
C544 C538 1.368 . S
C544 C543 1.523 . S
C545 C529 1.429 . S
C545 C541 1.429 . S
C545 C546 1.523 . S
C546 C530 1.368 . S
C546 C542 1.368 . S
C546 C545 1.523 . S
H547 C522 0.950 . S
H548 C524 0.950 . S
H549 C525 0.949 . S
H550 C527 0.950 . S
H551 C529 0.950 . S
C552 C553 1.349 . S
C552 C554 1.327 . S
C552 H577 0.950 . S
C553 C552 1.349 . S
C553 C569 1.349 . S
C554 C552 1.327 . S
C554 C573 1.429 . S
C554 H578 0.950 . S
C555 C572 1.574 . S
C555 C574 1.368 . S
C555 H579 0.949 . S
H556 C560 0.949 . S
C557 C558 1.349 . S
C557 C559 1.327 . S
C557 H580 0.950 . S
C558 C557 1.349 . S
C558 C570 1.349 . S
C559 C557 1.327 . S
C559 C575 1.429 . S
C559 H581 0.950 . S
C560 H556 0.949 . S
C560 C568 1.574 . S
C560 C576 1.368 . S
H561 C569 0.950 . S
H562 C567 0.950 . S
H563 C568 0.949 . S
H564 C570 0.950 . S
H565 C571 0.950 . S
H566 C572 0.949 . S
C567 H562 0.950 . S
C567 C569 1.327 . S
C567 C573 1.429 . S
C568 C560 1.574 . S
C568 H563 0.949 . S
C568 C574 1.368 . S
C569 C553 1.349 . S
C569 H561 0.950 . S
C569 C567 1.327 . S
C570 C558 1.349 . S
C570 H564 0.950 . S
C570 C571 1.327 . S
C571 H565 0.950 . S
C571 C570 1.327 . S
C571 C575 1.429 . S
C572 C555 1.574 . S
C572 H566 0.949 . S
C572 C576 1.368 . S
C573 C554 1.429 . S
C573 C567 1.429 . S
C573 C574 1.523 . S
C574 C555 1.368 . S
C574 C568 1.368 . S
C574 C573 1.523 . S
C575 C559 1.429 . S
C575 C571 1.429 . S
C575 C576 1.523 . S
C576 C560 1.368 . S
C576 C572 1.368 . S
C576 C575 1.523 . S
H577 C552 0.950 . S
H578 C554 0.950 . S
H579 C555 0.949 . S
H580 C557 0.950 . S
H581 C559 0.950 . S
C582 C583 1.349 . S
C582 C584 1.327 . S
C582 H607 0.950 . S
C583 C582 1.349 . S
C583 C599 1.349 . S
C584 C582 1.327 . S
C584 C603 1.429 . S
C584 H608 0.950 . S
C585 C602 1.574 . S
C585 C604 1.368 . S
C585 H609 0.949 . S
H586 C590 0.949 . S
C587 C588 1.349 . S
C587 C589 1.327 . S
C587 H610 0.950 . S
C588 C587 1.349 . S
C588 C600 1.349 . S
C589 C587 1.327 . S
C589 C605 1.429 . S
C589 H611 0.950 . S
C590 H586 0.949 . S
C590 C598 1.574 . S
C590 C606 1.368 . S
H591 C599 0.950 . S
H592 C597 0.950 . S
H593 C598 0.949 . S
H594 C600 0.950 . S
H595 C601 0.950 . S
H596 C602 0.949 . S
C597 H592 0.950 . S
C597 C599 1.327 . S
C597 C603 1.429 . S
C598 C590 1.574 . S
C598 H593 0.949 . S
C598 C604 1.368 . S
C599 C583 1.349 . S
C599 H591 0.950 . S
C599 C597 1.327 . S
C600 C588 1.349 . S
C600 H594 0.950 . S
C600 C601 1.327 . S
C601 H595 0.950 . S
C601 C600 1.327 . S
C601 C605 1.429 . S
C602 C585 1.574 . S
C602 H596 0.949 . S
C602 C606 1.368 . S
C603 C584 1.429 . S
C603 C597 1.429 . S
C603 C604 1.523 . S
C604 C585 1.368 . S
C604 C598 1.368 . S
C604 C603 1.523 . S
C605 C589 1.429 . S
C605 C601 1.429 . S
C605 C606 1.523 . S
C606 C590 1.368 . S
C606 C602 1.368 . S
C606 C605 1.523 . S
H607 C582 0.950 . S
H608 C584 0.950 . S
H609 C585 0.949 . S
H610 C587 0.950 . S
H611 C589 0.950 . S
C612 C613 1.349 . S
C612 C614 1.327 . S
C612 H637 0.950 . S
C613 C612 1.349 . S
C613 C629 1.349 . S
C614 C612 1.327 . S
C614 C633 1.429 . S
C614 H638 0.950 . S
C615 C632 1.574 . S
C615 C634 1.368 . S
C615 H639 0.949 . S
H616 C620 0.949 . S
C617 C618 1.349 . S
C617 C619 1.327 . S
C617 H640 0.950 . S
C618 C617 1.349 . S
C618 C630 1.349 . S
C619 C617 1.327 . S
C619 C635 1.429 . S
C619 H641 0.950 . S
C620 H616 0.949 . S
C620 C628 1.574 . S
C620 C636 1.368 . S
H621 C629 0.950 . S
H622 C627 0.950 . S
H623 C628 0.949 . S
H624 C630 0.950 . S
H625 C631 0.950 . S
H626 C632 0.949 . S
C627 H622 0.950 . S
C627 C629 1.327 . S
C627 C633 1.429 . S
C628 C620 1.574 . S
C628 H623 0.949 . S
C628 C634 1.368 . S
C629 C613 1.349 . S
C629 H621 0.950 . S
C629 C627 1.327 . S
C630 C618 1.349 . S
C630 H624 0.950 . S
C630 C631 1.327 . S
C631 H625 0.950 . S
C631 C630 1.327 . S
C631 C635 1.429 . S
C632 C615 1.574 . S
C632 H626 0.949 . S
C632 C636 1.368 . S
C633 C614 1.429 . S
C633 C627 1.429 . S
C633 C634 1.523 . S
C634 C615 1.368 . S
C634 C628 1.368 . S
C634 C633 1.523 . S
C635 C619 1.429 . S
C635 C631 1.429 . S
C635 C636 1.523 . S
C636 C620 1.368 . S
C636 C632 1.368 . S
C636 C635 1.523 . S
H637 C612 0.950 . S
H638 C614 0.950 . S
H639 C615 0.949 . S
H640 C617 0.950 . S
H641 C619 0.950 . S
C642 C643 1.349 . S
C642 C644 1.327 . S
C642 H667 0.950 . S
C643 C642 1.349 . S
C643 C659 1.349 . S
C644 C642 1.327 . S
C644 C663 1.429 . S
C644 H668 0.950 . S
C645 C662 1.574 . S
C645 C664 1.368 . S
C645 H669 0.949 . S
H646 C650 0.949 . S
C647 C648 1.349 . S
C647 C649 1.327 1_554 S
C647 H670 0.950 . S
C648 C647 1.349 . S
C648 C660 1.349 . S
C649 C647 1.327 1_556 S
C649 C665 1.429 . S
C649 H671 0.950 . S
C650 H646 0.949 . S
C650 C658 1.574 . S
C650 C666 1.368 . S
H651 C659 0.950 . S
H652 C657 0.950 . S
H653 C658 0.949 . S
H654 C660 0.950 . S
H655 C661 0.950 . S
H656 C662 0.949 . S
C657 H652 0.950 . S
C657 C659 1.327 . S
C657 C663 1.429 . S
C658 C650 1.574 . S
C658 H653 0.949 . S
C658 C664 1.368 . S
C659 C643 1.349 . S
C659 H651 0.950 . S
C659 C657 1.327 . S
C660 C648 1.349 . S
C660 H654 0.950 . S
C660 C661 1.327 . S
C661 H655 0.950 . S
C661 C660 1.327 . S
C661 C665 1.429 1_554 S
C662 C645 1.574 . S
C662 H656 0.949 . S
C662 C666 1.368 . S
C663 C644 1.429 . S
C663 C657 1.429 . S
C663 C664 1.523 . S
C664 C645 1.368 . S
C664 C658 1.368 . S
C664 C663 1.523 . S
C665 C649 1.429 . S
C665 C661 1.429 1_556 S
C665 C666 1.523 . S
C666 C650 1.368 . S
C666 C662 1.368 . S
C666 C665 1.523 . S
H667 C642 0.950 . S
H668 C644 0.950 . S
H669 C645 0.949 . S
H670 C647 0.950 . S
H671 C649 0.950 . S
C672 C673 1.349 . S
C672 C674 1.327 . S
C672 H697 0.950 . S
C673 C672 1.349 . S
C673 C689 1.349 . S
C674 C672 1.327 . S
C674 C693 1.429 . S
C674 H698 0.950 . S
C675 C692 1.574 . S
C675 C694 1.368 . S
C675 H699 0.949 . S
H676 C680 0.949 . S
C677 C678 1.349 . S
C677 C679 1.327 . S
C677 H700 0.950 . S
C678 C677 1.349 . S
C678 C690 1.349 . S
C679 C677 1.327 . S
C679 C695 1.429 . S
C679 H701 0.950 . S
C680 H676 0.949 . S
C680 C688 1.574 . S
C680 C696 1.368 . S
H681 C689 0.950 . S
H682 C687 0.950 . S
H683 C688 0.949 . S
H684 C690 0.950 . S
H685 C691 0.950 . S
H686 C692 0.949 . S
C687 H682 0.950 . S
C687 C689 1.327 . S
C687 C693 1.429 . S
C688 C680 1.574 . S
C688 H683 0.949 . S
C688 C694 1.368 . S
C689 C673 1.349 . S
C689 H681 0.950 . S
C689 C687 1.327 . S
C690 C678 1.349 . S
C690 H684 0.950 . S
C690 C691 1.327 . S
C691 H685 0.950 . S
C691 C690 1.327 . S
C691 C695 1.429 . S
C692 C675 1.574 . S
C692 H686 0.949 . S
C692 C696 1.368 . S
C693 C674 1.429 . S
C693 C687 1.429 . S
C693 C694 1.523 . S
C694 C675 1.368 . S
C694 C688 1.368 . S
C694 C693 1.523 . S
C695 C679 1.429 . S
C695 C691 1.429 . S
C695 C696 1.523 . S
C696 C680 1.368 . S
C696 C692 1.368 . S
C696 C695 1.523 . S
H697 C672 0.950 . S
H698 C674 0.950 . S
H699 C675 0.949 . S
H700 C677 0.950 . S
H701 C679 0.950 . S
C702 C703 1.349 . S
C702 C704 1.327 . S
C702 H727 0.950 . S
C703 C702 1.349 . S
C703 C719 1.349 . S
C704 C702 1.327 . S
C704 C723 1.429 . S
C704 H728 0.950 . S
C705 C722 1.574 . S
C705 C724 1.368 . S
C705 H729 0.949 . S
H706 C710 0.949 . S
C707 C708 1.349 . S
C707 C709 1.327 . S
C707 H730 0.950 . S
C708 C707 1.349 . S
C708 C720 1.349 . S
C709 C707 1.327 . S
C709 C725 1.429 . S
C709 H731 0.950 . S
C710 H706 0.949 . S
C710 C718 1.574 . S
C710 C726 1.368 . S
H711 C719 0.950 . S
H712 C717 0.950 . S
H713 C718 0.949 . S
H714 C720 0.950 . S
H715 C721 0.950 . S
H716 C722 0.949 . S
C717 H712 0.950 . S
C717 C719 1.327 . S
C717 C723 1.429 . S
C718 C710 1.574 . S
C718 H713 0.949 . S
C718 C724 1.368 . S
C719 C703 1.349 . S
C719 H711 0.950 . S
C719 C717 1.327 . S
C720 C708 1.349 . S
C720 H714 0.950 . S
C720 C721 1.327 . S
C721 H715 0.950 . S
C721 C720 1.327 . S
C721 C725 1.429 . S
C722 C705 1.574 . S
C722 H716 0.949 . S
C722 C726 1.368 . S
C723 C704 1.429 . S
C723 C717 1.429 . S
C723 C724 1.523 . S
C724 C705 1.368 . S
C724 C718 1.368 . S
C724 C723 1.523 . S
C725 C709 1.429 . S
C725 C721 1.429 . S
C725 C726 1.523 . S
C726 C710 1.368 . S
C726 C722 1.368 . S
C726 C725 1.523 . S
H727 C702 0.950 . S
H728 C704 0.950 . S
H729 C705 0.949 . S
H730 C707 0.950 . S
H731 C709 0.950 . S
C732 C733 1.349 . S
C732 C734 1.327 . S
C732 H757 0.950 . S
C733 C732 1.349 . S
C733 C749 1.349 . S
C734 C732 1.327 . S
C734 C753 1.429 . S
C734 H758 0.950 . S
C735 C752 1.574 . S
C735 C754 1.368 . S
C735 H759 0.949 . S
H736 C740 0.949 . S
C737 C738 1.349 . S
C737 C739 1.327 . S
C737 H760 0.950 . S
C738 C737 1.349 . S
C738 C750 1.349 . S
C739 C737 1.327 . S
C739 C755 1.429 . S
C739 H761 0.950 . S
C740 H736 0.949 . S
C740 C748 1.574 . S
C740 C756 1.368 . S
H741 C749 0.950 . S
H742 C747 0.950 . S
H743 C748 0.949 . S
H744 C750 0.950 . S
H745 C751 0.950 . S
H746 C752 0.949 . S
C747 H742 0.950 . S
C747 C749 1.327 . S
C747 C753 1.429 . S
C748 C740 1.574 . S
C748 H743 0.949 . S
C748 C754 1.368 . S
C749 C733 1.349 . S
C749 H741 0.950 . S
C749 C747 1.327 . S
C750 C738 1.349 . S
C750 H744 0.950 . S
C750 C751 1.327 . S
C751 H745 0.950 . S
C751 C750 1.327 . S
C751 C755 1.429 . S
C752 C735 1.574 . S
C752 H746 0.949 . S
C752 C756 1.368 . S
C753 C734 1.429 . S
C753 C747 1.429 . S
C753 C754 1.523 . S
C754 C735 1.368 . S
C754 C748 1.368 . S
C754 C753 1.523 . S
C755 C739 1.429 . S
C755 C751 1.429 . S
C755 C756 1.523 . S
C756 C740 1.368 . S
C756 C752 1.368 . S
C756 C755 1.523 . S
H757 C732 0.950 . S
H758 C734 0.950 . S
H759 C735 0.949 . S
H760 C737 0.950 . S
H761 C739 0.950 . S
C762 C763 1.349 . S
C762 C764 1.327 . S
C762 H787 0.950 . S
C763 C762 1.349 . S
C763 C779 1.349 . S
C764 C762 1.327 . S
C764 C783 1.429 . S
C764 H788 0.950 . S
C765 C782 1.574 . S
C765 C784 1.368 . S
C765 H789 0.949 . S
H766 C770 0.949 . S
C767 C768 1.349 . S
C767 C769 1.327 . S
C767 H790 0.950 . S
C768 C767 1.349 . S
C768 C780 1.349 . S
C769 C767 1.327 . S
C769 C785 1.429 . S
C769 H791 0.950 . S
C770 H766 0.949 . S
C770 C778 1.574 . S
C770 C786 1.368 . S
H771 C779 0.950 . S
H772 C777 0.950 . S
H773 C778 0.949 . S
H774 C780 0.950 . S
H775 C781 0.950 . S
H776 C782 0.949 . S
C777 H772 0.950 . S
C777 C779 1.327 . S
C777 C783 1.429 . S
C778 C770 1.574 . S
C778 H773 0.949 . S
C778 C784 1.368 . S
C779 C763 1.349 . S
C779 H771 0.950 . S
C779 C777 1.327 . S
C780 C768 1.349 . S
C780 H774 0.950 . S
C780 C781 1.327 . S
C781 H775 0.950 . S
C781 C780 1.327 . S
C781 C785 1.429 . S
C782 C765 1.574 . S
C782 H776 0.949 . S
C782 C786 1.368 . S
C783 C764 1.429 . S
C783 C777 1.429 . S
C783 C784 1.523 . S
C784 C765 1.368 . S
C784 C778 1.368 . S
C784 C783 1.523 . S
C785 C769 1.429 . S
C785 C781 1.429 . S
C785 C786 1.523 . S
C786 C770 1.368 . S
C786 C782 1.368 . S
C786 C785 1.523 . S
H787 C762 0.950 . S
H788 C764 0.950 . S
H789 C765 0.949 . S
H790 C767 0.950 . S
H791 C769 0.950 . S
C792 C793 1.349 . S
C792 C794 1.327 . S
C792 H817 0.950 . S
C793 C792 1.349 . S
C793 C809 1.349 . S
C794 C792 1.327 . S
C794 C813 1.429 . S
C794 H818 0.950 . S
C795 C812 1.574 . S
C795 C814 1.368 . S
C795 H819 0.949 . S
H796 C800 0.949 . S
C797 C798 1.349 . S
C797 C799 1.327 . S
C797 H820 0.950 . S
C798 C797 1.349 . S
C798 C810 1.349 . S
C799 C797 1.327 . S
C799 C815 1.429 . S
C799 H821 0.950 . S
C800 H796 0.949 . S
C800 C808 1.574 . S
C800 C816 1.368 . S
H801 C809 0.950 . S
H802 C807 0.950 . S
H803 C808 0.949 . S
H804 C810 0.950 . S
H805 C811 0.950 . S
H806 C812 0.949 . S
C807 H802 0.950 . S
C807 C809 1.327 . S
C807 C813 1.429 . S
C808 C800 1.574 . S
C808 H803 0.949 . S
C808 C814 1.368 . S
C809 C793 1.349 . S
C809 H801 0.950 . S
C809 C807 1.327 . S
C810 C798 1.349 . S
C810 H804 0.950 . S
C810 C811 1.327 . S
C811 H805 0.950 . S
C811 C810 1.327 . S
C811 C815 1.429 . S
C812 C795 1.574 . S
C812 H806 0.949 . S
C812 C816 1.368 . S
C813 C794 1.429 . S
C813 C807 1.429 . S
C813 C814 1.523 . S
C814 C795 1.368 . S
C814 C808 1.368 . S
C814 C813 1.523 . S
C815 C799 1.429 . S
C815 C811 1.429 . S
C815 C816 1.523 . S
C816 C800 1.368 . S
C816 C812 1.368 . S
C816 C815 1.523 . S
H817 C792 0.950 . S
H818 C794 0.950 . S
H819 C795 0.949 . S
H820 C797 0.950 . S
H821 C799 0.950 . S
C822 C823 1.349 . S
C822 C824 1.327 . S
C822 H847 0.950 . S
C823 C822 1.349 . S
C823 C839 1.349 . S
C824 C822 1.327 . S
C824 C843 1.429 . S
C824 H848 0.950 . S
C825 C842 1.574 . S
C825 C844 1.368 . S
C825 H849 0.949 . S
H826 C830 0.949 . S
C827 C828 1.349 . S
C827 C829 1.327 . S
C827 H850 0.950 . S
C828 C827 1.349 . S
C828 C840 1.349 . S
C829 C827 1.327 . S
C829 C845 1.429 . S
C829 H851 0.950 . S
C830 H826 0.949 . S
C830 C838 1.574 . S
C830 C846 1.368 . S
H831 C839 0.950 . S
H832 C837 0.950 . S
H833 C838 0.949 . S
H834 C840 0.950 . S
H835 C841 0.950 . S
H836 C842 0.949 . S
C837 H832 0.950 . S
C837 C839 1.327 . S
C837 C843 1.429 . S
C838 C830 1.574 . S
C838 H833 0.949 . S
C838 C844 1.368 . S
C839 C823 1.349 . S
C839 H831 0.950 . S
C839 C837 1.327 . S
C840 C828 1.349 . S
C840 H834 0.950 . S
C840 C841 1.327 . S
C841 H835 0.950 . S
C841 C840 1.327 . S
C841 C845 1.429 . S
C842 C825 1.574 . S
C842 H836 0.949 . S
C842 C846 1.368 . S
C843 C824 1.429 . S
C843 C837 1.429 . S
C843 C844 1.523 . S
C844 C825 1.368 . S
C844 C838 1.368 . S
C844 C843 1.523 . S
C845 C829 1.429 . S
C845 C841 1.429 . S
C845 C846 1.523 . S
C846 C830 1.368 . S
C846 C842 1.368 . S
C846 C845 1.523 . S
H847 C822 0.950 . S
H848 C824 0.950 . S
H849 C825 0.949 . S
H850 C827 0.950 . S
H851 C829 0.950 . S
C852 C853 1.349 . S
C852 C854 1.327 . S
C852 H877 0.950 . S
C853 C852 1.349 . S
C853 C869 1.349 . S
C854 C852 1.327 . S
C854 C873 1.429 . S
C854 H878 0.950 . S
C855 C872 1.574 . S
C855 C874 1.368 . S
C855 H879 0.949 . S
H856 C860 0.949 . S
C857 C858 1.349 . S
C857 C859 1.327 . S
C857 H880 0.950 . S
C858 C857 1.349 . S
C858 C870 1.349 . S
C859 C857 1.327 . S
C859 C875 1.429 . S
C859 H881 0.950 . S
C860 H856 0.949 . S
C860 C868 1.574 . S
C860 C876 1.368 . S
H861 C869 0.950 . S
H862 C867 0.950 . S
H863 C868 0.949 . S
H864 C870 0.950 . S
H865 C871 0.950 . S
H866 C872 0.949 . S
C867 H862 0.950 . S
C867 C869 1.327 . S
C867 C873 1.429 . S
C868 C860 1.574 . S
C868 H863 0.949 . S
C868 C874 1.368 . S
C869 C853 1.349 . S
C869 H861 0.950 . S
C869 C867 1.327 . S
C870 C858 1.349 . S
C870 H864 0.950 . S
C870 C871 1.327 . S
C871 H865 0.950 . S
C871 C870 1.327 . S
C871 C875 1.429 . S
C872 C855 1.574 . S
C872 H866 0.949 . S
C872 C876 1.368 . S
C873 C854 1.429 . S
C873 C867 1.429 . S
C873 C874 1.523 . S
C874 C855 1.368 . S
C874 C868 1.368 . S
C874 C873 1.523 . S
C875 C859 1.429 . S
C875 C871 1.429 . S
C875 C876 1.523 1_556 S
C876 C860 1.368 . S
C876 C872 1.368 . S
C876 C875 1.523 1_554 S
H877 C852 0.950 . S
H878 C854 0.950 . S
H879 C855 0.949 . S
H880 C857 0.950 . S
H881 C859 0.950 . S
C882 C883 1.349 . S
C882 C884 1.327 . S
C882 H907 0.950 . S
C883 C882 1.349 . S
C883 C899 1.349 . S
C884 C882 1.327 . S
C884 C903 1.429 . S
C884 H908 0.950 . S
C885 C902 1.574 . S
C885 C904 1.368 . S
C885 H909 0.949 . S
H886 C890 0.949 . S
C887 C888 1.349 . S
C887 C889 1.327 . S
C887 H910 0.950 . S
C888 C887 1.349 . S
C888 C900 1.349 . S
C889 C887 1.327 . S
C889 C905 1.429 . S
C889 H911 0.950 . S
C890 H886 0.949 . S
C890 C898 1.574 . S
C890 C906 1.368 . S
H891 C899 0.950 . S
H892 C897 0.950 . S
H893 C898 0.949 . S
H894 C900 0.950 . S
H895 C901 0.950 . S
H896 C902 0.949 . S
C897 H892 0.950 . S
C897 C899 1.327 . S
C897 C903 1.429 . S
C898 C890 1.574 . S
C898 H893 0.949 . S
C898 C904 1.368 . S
C899 C883 1.349 . S
C899 H891 0.950 . S
C899 C897 1.327 . S
C900 C888 1.349 . S
C900 H894 0.950 . S
C900 C901 1.327 . S
C901 H895 0.950 . S
C901 C900 1.327 . S
C901 C905 1.429 . S
C902 C885 1.574 . S
C902 H896 0.949 . S
C902 C906 1.368 . S
C903 C884 1.429 . S
C903 C897 1.429 . S
C903 C904 1.523 . S
C904 C885 1.368 . S
C904 C898 1.368 . S
C904 C903 1.523 . S
C905 C889 1.429 . S
C905 C901 1.429 . S
C905 C906 1.523 . S
C906 C890 1.368 . S
C906 C902 1.368 . S
C906 C905 1.523 . S
H907 C882 0.950 . S
H908 C884 0.950 . S
H909 C885 0.949 . S
H910 C887 0.950 . S
H911 C889 0.950 . S
C198 C185 1.490 . S
C193 C8 1.472 . S
C223 C26 1.474 . S
C228 C114 1.493 . S
C253 C50 1.480 . S
C258 C128 1.502 . S
C283 C68 1.473 . S
C288 C142 1.494 . S
C318 C156 1.491 . S
C313 C80 1.472 . S
C343 C104 1.475 . S
C348 C171 1.496 . S
C373 C32 1.480 . S
C378 C129 1.502 . S
C403 C44 1.474 . S
C408 C143 1.493 . S
C433 C62 1.472 . S
C438 C157 1.490 . S
C468 C170 1.495 . S
C463 C86 1.474 1_554 S
C498 C184 1.491 . S
C493 C98 1.473 . S
C528 C115 1.495 . S
C523 C14 1.473 . S
C553 C7 1.497 . S
C558 C131 1.536 . S
C583 C25 1.495 . S
C588 C145 1.534 . S
C618 C159 1.531 . S
C613 C52 1.496 . S
C643 C70 1.501 . S
C648 C172 1.536 . S
C678 C186 1.532 . S
C673 C79 1.493 . S
C708 C117 1.532 . S
C703 C106 1.497 . S
C738 C187 1.531 . S
C733 C34 1.496 . S
C763 C43 1.495 . S
C768 C116 1.533 . S
C798 C130 1.536 . S
C793 C61 1.497 . S
C823 C88 1.497 . S
C828 C144 1.531 . S
C853 C97 1.494 . S
C858 C158 1.532 . S
C883 C16 1.501 . S
C888 C173 1.535 . S
