# Generated by pormake.
# Topology rtl, (3,6)-cn, num edge types: 1
# Building blocks:
#     Node 0, Type 0, BuildingBlock: MIDCAF_clean_linker_0, # of connection points: 3
#     Node 1, Type 0, BuildingBlock: MIDCAF_clean_linker_0, # of connection points: 3
#     Node 2, Type 0, BuildingBlock: MIDCAF_clean_linker_0, # of connection points: 3
#     Node 3, Type 0, BuildingBlock: MIDCAF_clean_linker_0, # of connection points: 3
#     Node 4, Type 1, BuildingBlock: VOLQOD_clean_sbu_1, # of connection points: 6
#     Node 5, Type 1, BuildingBlock: VOLQOD_clean_sbu_1, # of connection points: 6
#     Edge 6, Type (0, 1), BuildingBlock: EZIPEK_clean_linker_0, # of connection points: 2
#     Edge 7, Type (0, 1), BuildingBlock: EZIPEK_clean_linker_0, # of connection points: 2
#     Edge 8, Type (0, 1), BuildingBlock: EZIPEK_clean_linker_0, # of connection points: 2
#     Edge 9, Type (0, 1), BuildingBlock: EZIPEK_clean_linker_0, # of connection points: 2
#     Edge 10, Type (0, 1), BuildingBlock: EZIPEK_clean_linker_0, # of connection points: 2
#     Edge 11, Type (0, 1), BuildingBlock: EZIPEK_clean_linker_0, # of connection points: 2
#     Edge 12, Type (0, 1), BuildingBlock: EZIPEK_clean_linker_0, # of connection points: 2
#     Edge 13, Type (0, 1), BuildingBlock: EZIPEK_clean_linker_0, # of connection points: 2
#     Edge 14, Type (0, 1), BuildingBlock: EZIPEK_clean_linker_0, # of connection points: 2
#     Edge 15, Type (0, 1), BuildingBlock: EZIPEK_clean_linker_0, # of connection points: 2
#     Edge 16, Type (0, 1), BuildingBlock: EZIPEK_clean_linker_0, # of connection points: 2
#     Edge 17, Type (0, 1), BuildingBlock: EZIPEK_clean_linker_0, # of connection points: 2
# Relax obj value: 0.080
# Max RMSD: 0.156
# Mean RMSD: 0.090
data_MOF--net-rtl--node1-VOLQOD_clean_sbu_1--node2-MIDCAF_clean_linker_0--edge1-EZIPEK_clean_linker_0
_symmetry_space_group_name_H-M    P1
_symmetry_Int_Tables_number       1
_symmetry_cell_setting            triclinic
loop_
_symmetry_equiv_pos_as_xyz
'x, y, z'
_cell_length_a     35.087228
_cell_length_b     30.241236
_cell_length_c     22.868015
_cell_angle_alpha  89.727615
_cell_angle_beta   90.38097
_cell_angle_gamma 89.927951
loop_
_atom_site_label
_atom_site_type_symbol
_atom_site_fract_x
_atom_site_fract_y
_atom_site_fract_z
_atom_type_partial_charge
C0 C 0.03479 0.78664 0.17647 0.0
C1 C 0.06045 0.7978 0.22134 0.0
C2 C 0.09805 0.78209 0.21928 0.0
C3 C 0.11037 0.75738 0.17153 0.0
H4 H 0.1892 0.66275 0.1142 0.0
H5 H 0.2508 0.6249 0.11498 0.0
H6 H 0.25204 0.62647 0.9266 0.0
H7 H 0.19041 0.66433 0.92486 0.0
H8 H 0.14083 0.75011 0.8681 0.0
H9 H 0.11897 0.79362 0.78382 0.0
H10 H 0.0056 0.79778 0.85524 0.0
H11 H 0.02753 0.75552 0.94079 0.0
H12 H 0.02743 0.75639 0.09266 0.0
H13 H 0.00559 0.79829 0.1776 0.0
H14 H 0.1182 0.79035 0.25361 0.0
H15 H 0.13997 0.74726 0.16994 0.0
N16 N 0.13254 0.70532 0.06982 0.0
N17 N 0.13285 0.70584 0.96724 0.0
N18 N 0.0844 0.74258 0.01782 0.0
C19 C 0.14872 0.69245 0.01878 0.0
C20 C 0.10055 0.73065 0.9665 0.0
C21 C 0.10026 0.73015 0.06962 0.0
C22 C 0.18483 0.6669 0.01942 0.0
C23 C 0.20229 0.65482 0.07279 0.0
C24 C 0.23746 0.63314 0.07346 0.0
C25 C 0.25573 0.62309 0.02088 0.0
C26 C 0.23816 0.634 0.96754 0.0
C27 C 0.20297 0.65569 0.96676 0.0
C28 C 0.08592 0.74974 0.91119 0.0
C29 C 0.11107 0.75952 0.86534 0.0
C30 C 0.09869 0.78448 0.81727 0.0
C31 C 0.06081 0.79921 0.81373 0.0
C32 C 0.035 0.78691 0.85751 0.0
C33 C 0.04757 0.76282 0.90623 0.0
C34 C 0.08545 0.74882 0.12454 0.0
C35 C 0.0473 0.76277 0.12808 0.0
C36 C 0.53732 0.71012 0.37839 0.0
C37 C 0.55614 0.71603 0.32519 0.0
C38 C 0.58379 0.74922 0.31982 0.0
C39 C 0.59424 0.77444 0.36847 0.0
H40 H 0.66589 0.87894 0.43343 0.0
H41 H 0.72638 0.91913 0.42724 0.0
H42 H 0.7545 0.87919 0.60353 0.0
H43 H 0.69402 0.83982 0.61078 0.0
H44 H 0.52782 0.75023 0.60649 0.0
H45 H 0.51187 0.70596 0.69273 0.0
H46 H 0.62353 0.73029 0.76524 0.0
H47 H 0.63972 0.77531 0.67953 0.0
H48 H 0.53335 0.72877 0.46788 0.0
H49 H 0.51581 0.68469 0.38299 0.0
H50 H 0.59849 0.75409 0.27879 0.0
H51 H 0.61695 0.79839 0.36385 0.0
N52 N 0.62295 0.81491 0.47499 0.0
N53 N 0.62739 0.8136 0.57751 0.0
N54 N 0.57975 0.77312 0.52982 0.0
C55 C 0.64029 0.82861 0.52511 0.0
C56 C 0.59682 0.78624 0.58013 0.0
C57 C 0.59256 0.7871 0.47707 0.0
C58 C 0.6752 0.85596 0.52248 0.0
C59 C 0.68477 0.87907 0.47109 0.0
C60 C 0.71921 0.9021 0.46746 0.0
C61 C 0.74489 0.90173 0.51477 0.0
C62 C 0.73501 0.87974 0.56658 0.0
C63 C 0.70039 0.85732 0.57058 0.0
C64 C 0.58512 0.76599 0.63608 0.0
C65 C 0.54876 0.7469 0.64127 0.0
C66 C 0.53954 0.72171 0.69042 0.0
C67 C 0.56666 0.71482 0.73475 0.0
C68 C 0.60234 0.73544 0.73121 0.0
C69 C 0.61142 0.76121 0.68238 0.0
C70 C 0.57707 0.76676 0.42307 0.0
C71 C 0.54752 0.7354 0.42683 0.0
C72 C 0.96481 0.21479 0.85523 0.0
C73 C 0.94047 0.21503 0.80651 0.0
C74 C 0.90811 0.24228 0.80606 0.0
C75 C 0.89919 0.26749 0.85522 0.0
H76 H 0.81247 0.3391 0.92783 0.0
H77 H 0.75142 0.37767 0.93421 0.0
H78 H 0.77936 0.41968 0.10917 0.0
H79 H 0.84033 0.38038 0.10386 0.0
H80 H 0.88269 0.29106 0.1738 0.0
H81 H 0.90159 0.24613 0.25856 0.0
H82 H 0.99736 0.19521 0.1629 0.0
H83 H 0.97901 0.23981 0.07801 0.0
H84 H 0.97468 0.23777 0.94207 0.0
H85 H 0.98996 0.19396 0.85601 0.0
H86 H 0.88911 0.24275 0.76853 0.0
H87 H 0.87323 0.2869 0.85461 0.0
N88 N 0.87958 0.31374 0.96224 0.0
N89 N 0.88326 0.31592 0.06477 0.0
N90 N 0.92695 0.27368 0.01191 0.0
C91 C 0.86624 0.32917 0.01401 0.0
C92 C 0.91376 0.28823 0.06399 0.0
C93 C 0.91021 0.28626 0.96088 0.0
C94 C 0.83117 0.35638 0.01554 0.0
C95 C 0.80593 0.35694 0.96748 0.0
C96 C 0.771 0.37888 0.971 0.0
C97 C 0.76091 0.40117 0.02226 0.0
C98 C 0.78668 0.40241 0.06939 0.0
C99 C 0.82141 0.37989 0.06625 0.0
C100 C 0.92902 0.26856 0.11876 0.0
C101 C 0.90832 0.27119 0.17115 0.0
C102 C 0.91898 0.24554 0.2196 0.0
C103 C 0.95058 0.21727 0.2164 0.0
C104 C 0.97281 0.21684 0.16581 0.0
C105 C 0.96217 0.24231 0.11738 0.0
C106 C 0.92245 0.26551 0.90557 0.0
C107 C 0.95592 0.23981 0.90435 0.0
C108 C 0.46853 0.289 0.68751 0.0
C109 C 0.44261 0.30134 0.73099 0.0
C110 C 0.40472 0.28682 0.72733 0.0
C111 C 0.39247 0.26188 0.67951 0.0
H112 H 0.30647 0.18044 0.61843 0.0
H113 H 0.24509 0.14222 0.61604 0.0
H114 H 0.26188 0.11011 0.43466 0.0
H115 H 0.32321 0.14863 0.43604 0.0
H116 H 0.36502 0.2478 0.37542 0.0
H117 H 0.3872 0.29075 0.29136 0.0
H118 H 0.49987 0.29677 0.36737 0.0
H119 H 0.47758 0.25508 0.4527 0.0
H120 H 0.47627 0.25747 0.60477 0.0
H121 H 0.49794 0.29974 0.68986 0.0
H122 H 0.38435 0.29602 0.76055 0.0
H123 H 0.36273 0.25252 0.67671 0.0
N124 N 0.37112 0.20763 0.57877 0.0
N125 N 0.37225 0.20544 0.47624 0.0
N126 N 0.41992 0.24349 0.52765 0.0
C127 C 0.35571 0.19342 0.5275 0.0
C128 C 0.40446 0.23032 0.47607 0.0
C129 C 0.40341 0.23235 0.57913 0.0
C130 C 0.31973 0.16784 0.52729 0.0
C131 C 0.29738 0.16497 0.57807 0.0
C132 C 0.2623 0.1432 0.5769 0.0
C133 C 0.2492 0.12354 0.52521 0.0
C134 C 0.27174 0.12516 0.47489 0.0
C135 C 0.30667 0.1473 0.47582 0.0
C136 C 0.41953 0.24844 0.42081 0.0
C137 C 0.39472 0.25743 0.3737 0.0
C138 C 0.40728 0.28207 0.32575 0.0
C139 C 0.44502 0.29726 0.32361 0.0
C140 C 0.47057 0.28554 0.36856 0.0
C141 C 0.45781 0.26178 0.41715 0.0
C142 C 0.41778 0.25191 0.63402 0.0
C143 C 0.45611 0.26492 0.63903 0.0
O144 O 0.90568 0.01304 0.50693 0.0
Zn145 Zn 0.95536 0.04637 0.51057 0.0
O146 O -0.00073 0.00633 0.51447 0.0
Zn147 Zn 0.02904 0.01751 0.58544 0.0
Zn148 Zn 0.98103 0.94522 0.51533 0.0
Zn149 Zn 0.03169 0.01612 0.44645 0.0
O150 O 0.08176 0.03924 0.5669 0.0
O151 O 0.08381 0.03734 0.46975 0.0
O152 O 0.95382 0.08563 0.5809 0.0
O153 O 0.00406 0.06444 0.63415 0.0
O154 O 0.03435 0.96233 0.63417 0.0
O155 O -0.00077 0.9125 0.5872 0.0
O156 O -0.00069 0.91216 0.44454 0.0
O157 O 0.95774 0.08576 0.44 0.0
O158 O 0.03703 0.96046 0.39959 0.0
O159 O 0.00991 0.06335 0.39381 0.0
C160 C 0.8979 0.97202 0.51023 0.0
C161 C 0.0993 0.04516 0.51903 0.0
C162 C 0.02063 0.92351 0.62988 0.0
C163 C 0.97483 0.08875 0.62621 0.0
C164 C 0.02194 0.92228 0.4033 0.0
C165 C 0.98089 0.08839 0.39761 0.0
O166 O 0.92392 0.94282 0.51453 0.0
O167 O 0.60001 0.51187 0.03393 0.0
Zn168 Zn 0.55056 0.54581 0.03178 0.0
O169 O 0.50634 0.50637 0.02879 0.0
Zn170 Zn 0.47632 0.51824 0.95815 0.0
Zn171 Zn 0.52416 0.44502 0.02796 0.0
Zn172 Zn 0.4743 0.51631 0.09713 0.0
O173 O 0.42401 0.54106 0.97717 0.0
O174 O 0.42182 0.53699 0.07424 0.0
O175 O 0.55179 0.58561 0.9614 0.0
O176 O 0.50165 0.56439 0.90833 0.0
O177 O 0.47003 0.46331 0.91005 0.0
O178 O 0.50512 0.41284 0.95665 0.0
O179 O 0.50626 0.41194 0.09932 0.0
O180 O 0.54916 0.5846 0.10246 0.0
O181 O 0.46946 0.46064 0.14491 0.0
O182 O 0.4963 0.564 0.14845 0.0
C183 C 0.6075 0.47077 0.03057 0.0
C184 C 0.4064 0.54599 0.02512 0.0
C185 C 0.4835 0.42431 0.9143 0.0
C186 C 0.53082 0.58868 0.916 0.0
C187 C 0.48417 0.42224 0.14107 0.0
C188 C 0.52586 0.58814 0.14451 0.0
O189 O 0.58125 0.44188 0.02726 0.0
C190 C 0.17923 0.12878 0.50429 0.0
C191 C 0.21089 0.10302 0.52311 0.0
C192 C 0.16967 0.03827 0.53566 0.0
C193 C 0.13774 0.06482 0.52047 0.0
N194 N 0.11046 0.13625 0.49833 0.0
N195 N 0.2367 0.03519 0.56259 0.0
C196 C 0.14206 0.11033 0.50678 0.0
C197 C 0.20624 0.05825 0.54053 0.0
N198 N 0.18483 0.17068 0.48323 0.0
N199 N 0.16509 0.99373 0.54363 0.0
H200 H 0.26417 0.04827 0.5647 0.0
H201 H 0.23452 0.00418 0.58217 0.0
H202 H 0.13859 0.97821 0.5412 0.0
H203 H 0.18762 0.9716 0.54862 0.0
H204 H 0.16372 0.18925 0.46236 0.0
H205 H 0.2114 0.18609 0.483 0.0
H206 H 0.11133 0.17055 0.49483 0.0
H207 H 0.08273 0.12386 0.4992 0.0
C208 C 0.32641 0.63033 0.0329 0.0
C209 C 0.29431 0.60307 0.02177 0.0
C210 C 0.33604 0.53883 0.00854 0.0
C211 C 0.36779 0.56541 0.024 0.0
N212 N 0.39367 0.63489 0.05712 0.0
N213 N 0.26719 0.53087 0.00627 0.0
C214 C 0.36308 0.61072 0.03817 0.0
C215 C 0.29873 0.55713 0.01142 0.0
N216 N 0.32194 0.67521 0.03626 0.0
N217 N 0.34167 0.49626 0.99056 0.0
H218 H 0.23945 0.54329 0.00755 0.0
H219 H 0.26823 0.4965 0.00498 0.0
H220 H 0.36844 0.48122 0.99025 0.0
H221 H 0.32033 0.47666 0.97243 0.0
H222 H 0.34457 0.6974 0.03769 0.0
H223 H 0.29548 0.69082 0.03304 0.0
H224 H 0.39139 0.66638 0.07494 0.0
H225 H 0.42139 0.62244 0.0586 0.0
C226 C 0.81068 0.90406 0.47201 0.0
C227 C 0.78301 0.92262 0.50969 0.0
C228 C 0.83082 0.97371 0.54885 0.0
C229 C 0.85765 0.95737 0.50798 0.0
N230 N 0.86991 0.91533 0.42057 0.0
N231 N 0.7642 0.98152 0.57412 0.0
C232 C 0.8466 0.92505 0.46644 0.0
C233 C 0.7923 0.95955 0.54501 0.0
N234 N 0.80346 0.86525 0.44361 0.0
N235 N 0.8424 1.00073 0.59331 0.0
H236 H 0.73559 0.97227 0.57178 0.0
H237 H 0.76873 0.01128 0.59585 0.0
H238 H 0.87054 0.01092 0.59897 0.0
H239 H 0.8248 0.00968 0.62781 0.0
H240 H 0.82423 0.8479 0.42077 0.0
H241 H 0.77781 0.84812 0.44726 0.0
H242 H 0.86158 0.8952 0.38592 0.0
H243 H 0.89596 0.93108 0.41383 0.0
C244 C 0.71241 0.45807 0.99162 0.0
C245 C 0.72246 0.42132 0.0273 0.0
C246 C 0.65946 0.42334 0.07255 0.0
C247 C 0.64769 0.45576 0.03116 0.0
N248 N 0.66134 0.49892 0.94452 0.0
N249 N 0.70329 0.36375 0.09459 0.0
C250 C 0.67377 0.47205 0.98898 0.0
C251 C 0.69541 0.40254 0.066 0.0
N252 N 0.73991 0.48012 0.96112 0.0
N253 N 0.63686 0.41342 0.11927 0.0
H254 H 0.72898 0.34676 0.0902 0.0
H255 H 0.68297 0.34625 0.1183 0.0
H256 H 0.6108 0.429 0.12673 0.0
H257 H 0.64577 0.39324 0.15382 0.0
H258 H 0.73486 0.50981 0.93909 0.0
H259 H 0.76859 0.47101 0.96248 0.0
H260 H 0.67833 0.50784 0.9092 0.0
H261 H 0.63306 0.50897 0.93972 0.0
C262 C 0.0396 0.87329 0.25356 0.0
C263 C 0.0489 0.82887 0.26815 0.0
C264 C 0.04326 0.84635 0.37221 0.0
C265 C 0.03007 0.8894 0.35717 0.0
N266 N 0.00625 0.93946 0.28269 0.0
N267 N 0.05188 0.77068 0.34056 0.0
C268 C 0.02545 0.90162 0.29756 0.0
C269 C 0.04836 0.8146 0.32731 0.0
N270 N 0.0458 0.88914 0.19835 0.0
N271 N 0.0528 0.83635 0.42879 0.0
H272 H 0.05516 0.74642 0.30869 0.0
H273 H 0.04788 0.75797 0.3825 0.0
H274 H 0.05098 0.85912 0.46271 0.0
H275 H 0.06615 0.80691 0.44106 0.0
H276 H 0.04312 0.92249 0.18736 0.0
H277 H 0.05736 0.87004 0.16502 0.0
H278 H -0.00103 0.94754 0.23969 0.0
H279 H 0.99388 0.96028 0.31347 0.0
C280 C 0.54484 0.69805 0.83667 0.0
C281 C 0.55874 0.6828 0.78228 0.0
C282 C 0.55762 0.6062 0.81788 0.0
C283 C 0.54088 0.62115 0.87045 0.0
N284 N 0.51453 0.67975 0.9288 0.0
N285 N 0.57563 0.62287 0.71802 0.0
C286 C 0.53356 0.66673 0.87975 0.0
C287 C 0.56439 0.63697 0.77201 0.0
N288 N 0.54286 0.74248 0.84719 0.0
N289 N 0.56823 0.56283 0.81275 0.0
H290 H 0.58291 0.64442 0.68416 0.0
H291 H 0.57567 0.58986 0.70537 0.0
H292 H 0.56339 0.53925 0.84532 0.0
H293 H 0.58435 0.55064 0.77835 0.0
H294 H 0.53703 0.75589 0.888 0.0
H295 H 0.54959 0.76632 0.81582 0.0
H296 H 0.50457 0.71175 0.93542 0.0
H297 H 0.50621 0.65774 0.96158 0.0
C298 C 0.94586 0.14029 0.25596 0.0
C299 C 0.95819 0.18462 0.26352 0.0
C300 C 0.98356 0.16631 0.36074 0.0
C301 C 0.97365 0.1214 0.35125 0.0
N302 N 0.95008 0.06388 0.288 0.0
N303 N 0.99258 0.23944 0.31869 0.0
C304 C 0.95625 0.10785 0.29821 0.0
C305 C 0.97804 0.19761 0.31481 0.0
N306 N 0.92305 0.1296 0.20936 0.0
N307 N 0.99787 0.17899 0.41386 0.0
H308 H 0.98851 0.26332 0.28616 0.0
H309 H 0.01084 0.24973 0.35197 0.0
H310 H 0.00389 0.15666 0.4476 0.0
H311 H 0.00169 0.21183 0.42598 0.0
H312 H 0.90961 0.09914 0.20479 0.0
H313 H 0.91492 0.15237 0.17721 0.0
H314 H 0.94174 0.05136 0.24757 0.0
H315 H 0.95586 0.03925 0.31891 0.0
C316 C 0.46525 0.37603 0.76387 0.0
C317 C 0.45442 0.3321 0.77821 0.0
C318 C 0.45955 0.34962 0.88241 0.0
C319 C 0.47443 0.39191 0.86781 0.0
N320 N 0.50049 0.44065 0.79415 0.0
N321 N 0.44888 0.27431 0.85075 0.0
C322 C 0.47994 0.40379 0.80836 0.0
C323 C 0.4539 0.318 0.83744 0.0
N324 N 0.46007 0.392 0.70835 0.0
N325 N 0.44894 0.34031 0.93853 0.0
H326 H 0.44521 0.25009 0.81888 0.0
H327 H 0.45205 0.2616 0.89294 0.0
H328 H 0.451 0.36316 0.97237 0.0
H329 H 0.43447 0.31158 0.95025 0.0
H330 H 0.46391 0.42517 0.69734 0.0
H331 H 0.44819 0.37333 0.67464 0.0
H332 H 0.50837 0.44828 0.75142 0.0
H333 H 0.51328 0.46096 0.82533 0.0
C334 C 0.57203 0.64571 0.27372 0.0
C335 C 0.54922 0.68443 0.27703 0.0
C336 C 0.51271 0.66133 0.19074 0.0
C337 C 0.53362 0.62114 0.19026 0.0
N338 N 0.5795 0.57178 0.23463 0.0
N339 N 0.49563 0.72782 0.24368 0.0
C340 C 0.56241 0.61247 0.23255 0.0
C341 C 0.51889 0.69192 0.23688 0.0
N342 N 0.60319 0.64103 0.30954 0.0
N343 N 0.48786 0.67076 0.14603 0.0
H344 H 0.50029 0.75177 0.27561 0.0
H345 H 0.47044 0.73261 0.2202 0.0
H346 H 0.48241 0.6489 0.11183 0.0
H347 H 0.47466 0.70132 0.1403 0.0
H348 H 0.62348 0.6162 0.30479 0.0
H349 H 0.61044 0.66385 0.34178 0.0
H350 H 0.59756 0.56148 0.26832 0.0
H351 H 0.57338 0.54671 0.20482 0.0
C352 C 0.97553 0.19437 0.71553 0.0
C353 C 0.9476 0.18397 0.75793 0.0
C354 C 0.9348 0.11315 0.70999 0.0
C355 C 0.96506 0.12183 0.67083 0.0
N356 N 0.01649 0.16832 0.63775 0.0
N357 N 0.90364 0.13199 0.80084 0.0
C358 C 0.98611 0.16181 0.674 0.0
C359 C 0.92784 0.14305 0.75643 0.0
N360 N 0.99113 0.23579 0.71425 0.0
N361 N 0.91261 0.07639 0.70257 0.0
H362 H 0.89731 0.15321 0.83526 0.0
H363 H 0.89184 0.10068 0.80608 0.0
H364 H 0.91801 0.05252 0.6709 0.0
H365 H 0.88737 0.07087 0.72511 0.0
H366 H 0.00876 0.24718 0.68102 0.0
H367 H 0.98412 0.26025 0.74436 0.0
H368 H 0.03571 0.19429 0.64218 0.0
H369 H 0.02397 0.14616 0.60492 0.0
C370 C 0.45702 0.3145 0.21752 0.0
C371 C 0.45681 0.3284 0.27666 0.0
C372 C 0.48095 0.40094 0.24691 0.0
C373 C 0.47597 0.38918 0.18736 0.0
N374 N 0.45228 0.33697 0.11608 0.0
N375 N 0.46074 0.38824 0.34628 0.0
C376 C 0.46225 0.34645 0.17252 0.0
C377 C 0.46663 0.37258 0.29107 0.0
N378 N 0.45304 0.27072 0.20437 0.0
N379 N 0.5006 0.43834 0.26154 0.0
H380 H 0.44903 0.36917 0.37972 0.0
H381 H 0.46382 0.42147 0.35717 0.0
H382 H 0.51308 0.45913 0.23061 0.0
H383 H 0.50812 0.44602 0.30448 0.0
H384 H 0.45677 0.25823 0.1624 0.0
H385 H 0.44967 0.24631 0.23631 0.0
H386 H 0.43856 0.30784 0.10405 0.0
H387 H 0.45411 0.35993 0.0821 0.0
C388 C 0.03829 0.87419 0.78053 0.0
C389 C 0.04897 0.83024 0.7664 0.0
C390 C 0.04402 0.84834 0.66212 0.0
C391 C 0.02931 0.8907 0.6765 0.0
N392 N 0.00335 0.93926 0.74991 0.0
N393 N 0.05427 0.77277 0.69409 0.0
C394 C 0.02376 0.9023 0.7359 0.0
C395 C 0.04946 0.81644 0.70723 0.0
N396 N 0.04351 0.88987 0.83598 0.0
N397 N 0.05472 0.83922 0.60609 0.0
H398 H 0.05779 0.74836 0.72608 0.0
H399 H 0.05108 0.7603 0.65195 0.0
H400 H 0.05289 0.86226 0.57217 0.0
H401 H 0.06907 0.81041 0.59456 0.0
H402 H 0.03979 0.92302 0.84683 0.0
H403 H 0.05531 0.87097 0.8698 0.0
H404 H 0.99543 0.94672 0.79259 0.0
H405 H 0.99069 0.95982 0.71859 0.0
loop_
_geom_bond_atom_site_label_1
_geom_bond_atom_site_label_2
_geom_bond_distance
_geom_bond_site_symmetry_2
_ccdc_geom_bond_type
C0 C1 1.384 . S
C0 H13 0.947 . S
C0 C35 1.382 . S
C1 C0 1.384 . S
C1 C2 1.378 . S
C2 C1 1.378 . S
C2 C3 1.378 . S
C2 H14 0.952 . S
C3 C2 1.378 . S
C3 H15 0.950 . S
C3 C34 1.383 . S
H4 C23 0.947 . S
H5 C24 0.946 . S
H6 C26 0.953 . S
H7 C27 0.945 . S
H8 C29 0.952 . S
H9 C30 0.949 . S
H10 C32 0.950 . S
H11 C33 0.948 . S
H12 C35 0.951 . S
H13 C0 0.947 . S
H14 C2 0.952 . S
H15 C3 0.950 . S
N16 C19 1.382 . S
N16 C21 1.363 . S
N17 C19 1.371 1_556 S
N17 C20 1.372 . S
N18 C20 1.361 1_554 S
N18 C21 1.377 . S
C19 N16 1.382 . S
C19 N17 1.371 1_554 S
C19 C22 1.480 . S
C20 N17 1.372 . S
C20 N18 1.361 1_556 S
C20 C28 1.457 . S
C21 N16 1.363 . S
C21 N18 1.377 . S
C21 C34 1.479 . S
C22 C19 1.480 . S
C22 C23 1.383 . S
C22 C27 1.385 1_554 S
C23 H4 0.947 . S
C23 C22 1.383 . S
C23 C24 1.388 . S
C24 H5 0.946 . S
C24 C23 1.388 . S
C24 C25 1.384 . S
C25 C24 1.384 . S
C25 C26 1.377 1_554 S
C26 H6 0.953 . S
C26 C25 1.377 1_556 S
C26 C27 1.369 . S
C27 H7 0.945 . S
C27 C22 1.385 1_556 S
C27 C26 1.369 . S
C28 C20 1.457 . S
C28 C29 1.372 . S
C28 C33 1.364 . S
C29 H8 0.952 . S
C29 C28 1.372 . S
C29 C30 1.389 . S
C30 H9 0.949 . S
C30 C29 1.389 . S
C30 C31 1.387 . S
C31 C30 1.387 . S
C31 C32 1.372 . S
C32 H10 0.950 . S
C32 C31 1.372 . S
C32 C33 1.379 . S
C33 H11 0.948 . S
C33 C28 1.364 . S
C33 C32 1.379 . S
C34 C3 1.383 . S
C34 C21 1.479 . S
C34 C35 1.398 . S
C35 C0 1.382 . S
C35 H12 0.951 . S
C35 C34 1.398 . S
C36 C37 1.384 . S
C36 H49 0.947 . S
C36 C71 1.382 . S
C37 C36 1.384 . S
C37 C38 1.378 . S
C38 C37 1.378 . S
C38 C39 1.378 . S
C38 H50 0.952 . S
C39 C38 1.378 . S
C39 H51 0.950 . S
C39 C70 1.383 . S
H40 C59 0.947 . S
H41 C60 0.946 . S
H42 C62 0.953 . S
H43 C63 0.945 . S
H44 C65 0.952 . S
H45 C66 0.949 . S
H46 C68 0.950 . S
H47 C69 0.948 . S
H48 C71 0.951 . S
H49 C36 0.947 . S
H50 C38 0.952 . S
H51 C39 0.950 . S
N52 C55 1.382 . S
N52 C57 1.363 . S
N53 C55 1.371 . S
N53 C56 1.372 . S
N54 C56 1.361 . S
N54 C57 1.377 . S
C55 N52 1.382 . S
C55 N53 1.371 . S
C55 C58 1.480 . S
C56 N53 1.372 . S
C56 N54 1.361 . S
C56 C64 1.457 . S
C57 N52 1.363 . S
C57 N54 1.377 . S
C57 C70 1.479 . S
C58 C55 1.480 . S
C58 C59 1.383 . S
C58 C63 1.385 . S
C59 H40 0.947 . S
C59 C58 1.383 . S
C59 C60 1.388 . S
C60 H41 0.946 . S
C60 C59 1.388 . S
C60 C61 1.384 . S
C61 C60 1.384 . S
C61 C62 1.377 . S
C62 H42 0.953 . S
C62 C61 1.377 . S
C62 C63 1.369 . S
C63 H43 0.945 . S
C63 C58 1.385 . S
C63 C62 1.369 . S
C64 C56 1.457 . S
C64 C65 1.372 . S
C64 C69 1.364 . S
C65 H44 0.952 . S
C65 C64 1.372 . S
C65 C66 1.389 . S
C66 H45 0.949 . S
C66 C65 1.389 . S
C66 C67 1.387 . S
C67 C66 1.387 . S
C67 C68 1.372 . S
C68 H46 0.950 . S
C68 C67 1.372 . S
C68 C69 1.379 . S
C69 H47 0.948 . S
C69 C64 1.364 . S
C69 C68 1.379 . S
C70 C39 1.383 . S
C70 C57 1.479 . S
C70 C71 1.398 . S
C71 C36 1.382 . S
C71 H48 0.951 . S
C71 C70 1.398 . S
C72 C73 1.384 . S
C72 H85 0.947 . S
C72 C107 1.382 . S
C73 C72 1.384 . S
C73 C74 1.378 . S
C74 C73 1.378 . S
C74 C75 1.378 . S
C74 H86 0.952 . S
C75 C74 1.378 . S
C75 H87 0.950 . S
C75 C106 1.383 . S
H76 C95 0.947 . S
H77 C96 0.946 . S
H78 C98 0.953 . S
H79 C99 0.945 . S
H80 C101 0.952 . S
H81 C102 0.949 . S
H82 C104 0.950 . S
H83 C105 0.948 . S
H84 C107 0.951 . S
H85 C72 0.947 . S
H86 C74 0.952 . S
H87 C75 0.950 . S
N88 C91 1.382 1_556 S
N88 C93 1.363 . S
N89 C91 1.371 . S
N89 C92 1.372 . S
N90 C92 1.361 . S
N90 C93 1.377 1_554 S
C91 N88 1.382 1_554 S
C91 N89 1.371 . S
C91 C94 1.480 . S
C92 N89 1.372 . S
C92 N90 1.361 . S
C92 C100 1.457 . S
C93 N88 1.363 . S
C93 N90 1.377 1_556 S
C93 C106 1.479 . S
C94 C91 1.480 . S
C94 C95 1.383 1_554 S
C94 C99 1.385 . S
C95 H76 0.947 . S
C95 C94 1.383 1_556 S
C95 C96 1.388 . S
C96 H77 0.946 . S
C96 C95 1.388 . S
C96 C97 1.384 1_556 S
C97 C96 1.384 1_554 S
C97 C98 1.377 . S
C98 H78 0.953 . S
C98 C97 1.377 . S
C98 C99 1.369 . S
C99 H79 0.945 . S
C99 C94 1.385 . S
C99 C98 1.369 . S
C100 C92 1.457 . S
C100 C101 1.372 . S
C100 C105 1.364 . S
C101 H80 0.952 . S
C101 C100 1.372 . S
C101 C102 1.389 . S
C102 H81 0.949 . S
C102 C101 1.389 . S
C102 C103 1.387 . S
C103 C102 1.387 . S
C103 C104 1.372 . S
C104 H82 0.950 . S
C104 C103 1.372 . S
C104 C105 1.379 . S
C105 H83 0.948 . S
C105 C100 1.364 . S
C105 C104 1.379 . S
C106 C75 1.383 . S
C106 C93 1.479 . S
C106 C107 1.398 . S
C107 C72 1.382 . S
C107 H84 0.951 . S
C107 C106 1.398 . S
C108 C109 1.384 . S
C108 H121 0.947 . S
C108 C143 1.382 . S
C109 C108 1.384 . S
C109 C110 1.378 . S
C110 C109 1.378 . S
C110 C111 1.378 . S
C110 H122 0.952 . S
C111 C110 1.378 . S
C111 H123 0.950 . S
C111 C142 1.383 . S
H112 C131 0.947 . S
H113 C132 0.946 . S
H114 C134 0.953 . S
H115 C135 0.945 . S
H116 C137 0.952 . S
H117 C138 0.949 . S
H118 C140 0.950 . S
H119 C141 0.948 . S
H120 C143 0.951 . S
H121 C108 0.947 . S
H122 C110 0.952 . S
H123 C111 0.950 . S
N124 C127 1.382 . S
N124 C129 1.363 . S
N125 C127 1.371 . S
N125 C128 1.372 . S
N126 C128 1.361 . S
N126 C129 1.377 . S
C127 N124 1.382 . S
C127 N125 1.371 . S
C127 C130 1.480 . S
C128 N125 1.372 . S
C128 N126 1.361 . S
C128 C136 1.457 . S
C129 N124 1.363 . S
C129 N126 1.377 . S
C129 C142 1.479 . S
C130 C127 1.480 . S
C130 C131 1.383 . S
C130 C135 1.385 . S
C131 H112 0.947 . S
C131 C130 1.383 . S
C131 C132 1.388 . S
C132 H113 0.946 . S
C132 C131 1.388 . S
C132 C133 1.384 . S
C133 C132 1.384 . S
C133 C134 1.377 . S
C134 H114 0.953 . S
C134 C133 1.377 . S
C134 C135 1.369 . S
C135 H115 0.945 . S
C135 C130 1.385 . S
C135 C134 1.369 . S
C136 C128 1.457 . S
C136 C137 1.372 . S
C136 C141 1.364 . S
C137 H116 0.952 . S
C137 C136 1.372 . S
C137 C138 1.389 . S
C138 H117 0.949 . S
C138 C137 1.389 . S
C138 C139 1.387 . S
C139 C138 1.387 . S
C139 C140 1.372 . S
C140 H118 0.950 . S
C140 C139 1.372 . S
C140 C141 1.379 . S
C141 H119 0.948 . S
C141 C136 1.364 . S
C141 C140 1.379 . S
C142 C111 1.383 . S
C142 C129 1.479 . S
C142 C143 1.398 . S
C143 C108 1.382 . S
C143 H120 0.951 . S
C143 C142 1.398 . S
O144 Zn145 1.953 1_565 S
O144 C160 1.225 . S
Zn145 O144 1.953 1_545 S
Zn145 O146 1.949 1_655 S
Zn145 O152 1.919 . S
Zn145 O157 1.924 . S
O146 Zn145 1.949 1_455 S
O146 Zn147 1.923 . S
O146 Zn148 1.950 1_445 S
O146 Zn149 1.945 . S
Zn147 O146 1.923 . S
Zn147 O150 1.933 . S
Zn147 O153 1.941 . S
Zn147 O154 1.965 1_545 S
Zn148 O146 1.950 1_665 S
Zn148 O155 1.938 1_655 S
Zn148 O156 1.906 1_655 S
Zn148 O166 1.953 . S
Zn149 O146 1.945 . S
Zn149 O151 1.932 . S
Zn149 O158 1.977 1_545 S
Zn149 O159 1.910 1_455 S
O150 Zn147 1.933 . S
O150 C161 1.226 . S
O151 Zn149 1.932 . S
O151 C161 1.307 . S
O152 Zn145 1.919 . S
O152 C163 1.253 . S
O153 Zn147 1.941 . S
O153 C163 1.283 1_455 S
O154 Zn147 1.965 1_565 S
O154 C162 1.303 . S
O155 Zn148 1.938 1_455 S
O155 C162 1.247 . S
O156 Zn148 1.906 1_455 S
O156 C164 1.304 . S
O157 Zn145 1.924 . S
O157 C165 1.311 . S
O158 Zn149 1.977 1_565 S
O158 C164 1.272 . S
O159 Zn149 1.910 1_655 S
O159 C165 1.231 . S
C160 O144 1.225 . S
C160 O166 1.298 . S
C161 O150 1.226 . S
C161 O151 1.307 . S
C162 O154 1.303 . S
C162 O155 1.247 . S
C163 O152 1.253 . S
C163 O153 1.283 1_655 S
C164 O156 1.304 . S
C164 O158 1.272 . S
C165 O157 1.311 . S
C165 O159 1.231 . S
O166 Zn148 1.953 . S
O166 C160 1.298 . S
O167 Zn168 1.953 . S
O167 C183 1.225 . S
Zn168 O167 1.953 . S
Zn168 O169 1.949 . S
Zn168 O175 1.919 1_554 S
Zn168 O180 1.924 . S
O169 Zn168 1.949 . S
O169 Zn170 1.923 1_554 S
O169 Zn171 1.950 . S
O169 Zn172 1.945 . S
Zn170 O169 1.923 1_556 S
Zn170 O173 1.933 . S
Zn170 O176 1.941 . S
Zn170 O177 1.965 . S
Zn171 O169 1.950 . S
Zn171 O178 1.938 1_554 S
Zn171 O179 1.906 . S
Zn171 O189 1.953 . S
Zn172 O169 1.945 . S
Zn172 O174 1.932 . S
Zn172 O181 1.977 . S
Zn172 O182 1.910 . S
O173 Zn170 1.933 . S
O173 C184 1.226 1_556 S
O174 Zn172 1.932 . S
O174 C184 1.307 . S
O175 Zn168 1.919 1_556 S
O175 C186 1.253 . S
O176 Zn170 1.941 . S
O176 C186 1.283 . S
O177 Zn170 1.965 . S
O177 C185 1.303 . S
O178 Zn171 1.938 1_556 S
O178 C185 1.247 . S
O179 Zn171 1.906 . S
O179 C187 1.304 . S
O180 Zn168 1.924 . S
O180 C188 1.311 . S
O181 Zn172 1.977 . S
O181 C187 1.272 . S
O182 Zn172 1.910 . S
O182 C188 1.231 . S
C183 O167 1.225 . S
C183 O189 1.298 . S
C184 O173 1.226 1_554 S
C184 O174 1.307 . S
C185 O177 1.303 . S
C185 O178 1.247 . S
C186 O175 1.253 . S
C186 O176 1.283 . S
C187 O179 1.304 . S
C187 O181 1.272 . S
C188 O180 1.311 . S
C188 O182 1.231 . S
O189 Zn171 1.953 . S
O189 C183 1.298 . S
C190 C191 1.363 . S
C190 C196 1.379 . S
C190 N198 1.356 . S
C191 C190 1.363 . S
C191 C197 1.363 . S
C192 C193 1.363 . S
C192 C197 1.379 . S
C192 N199 1.356 . S
C193 C192 1.363 . S
C193 C196 1.363 . S
N194 C196 1.356 . S
N194 H206 0.984 . S
N194 H207 0.985 . S
N195 C197 1.356 . S
N195 H200 0.984 . S
N195 H201 0.985 . S
C196 C190 1.379 . S
C196 C193 1.363 . S
C196 N194 1.356 . S
C197 C191 1.363 . S
C197 C192 1.379 . S
C197 N195 1.356 . S
N198 C190 1.356 . S
N198 H204 0.984 . S
N198 H205 0.984 . S
N199 C192 1.356 . S
N199 H202 0.984 . S
N199 H203 0.985 . S
H200 N195 0.984 . S
H201 N195 0.985 . S
H202 N199 0.984 . S
H203 N199 0.985 . S
H204 N198 0.984 . S
H205 N198 0.984 . S
H206 N194 0.984 . S
H207 N194 0.985 . S
C208 C209 1.363 . S
C208 C214 1.379 . S
C208 N216 1.356 . S
C209 C208 1.363 . S
C209 C215 1.363 1_554 S
C210 C211 1.363 1_556 S
C210 C215 1.379 . S
C210 N217 1.356 . S
C211 C210 1.363 1_554 S
C211 C214 1.363 . S
N212 C214 1.356 . S
N212 H224 0.984 . S
N212 H225 0.985 . S
N213 C215 1.356 . S
N213 H218 0.984 . S
N213 H219 0.985 . S
C214 C208 1.379 . S
C214 C211 1.363 . S
C214 N212 1.356 . S
C215 C209 1.363 1_556 S
C215 C210 1.379 . S
C215 N213 1.356 . S
N216 C208 1.356 . S
N216 H222 0.984 . S
N216 H223 0.984 . S
N217 C210 1.356 . S
N217 H220 0.984 . S
N217 H221 0.985 . S
H218 N213 0.984 . S
H219 N213 0.985 . S
H220 N217 0.984 . S
H221 N217 0.985 . S
H222 N216 0.984 . S
H223 N216 0.984 . S
H224 N212 0.984 . S
H225 N212 0.985 . S
C226 C227 1.363 . S
C226 C232 1.379 . S
C226 N234 1.356 . S
C227 C226 1.363 . S
C227 C233 1.363 . S
C228 C229 1.363 . S
C228 C233 1.379 . S
C228 N235 1.356 . S
C229 C228 1.363 . S
C229 C232 1.363 . S
N230 C232 1.356 . S
N230 H242 0.984 . S
N230 H243 0.985 . S
N231 C233 1.356 . S
N231 H236 0.984 . S
N231 H237 0.985 . S
C232 C226 1.379 . S
C232 C229 1.363 . S
C232 N230 1.356 . S
C233 C227 1.363 . S
C233 C228 1.379 . S
C233 N231 1.356 . S
N234 C226 1.356 . S
N234 H240 0.984 . S
N234 H241 0.984 . S
N235 C228 1.356 . S
N235 H238 0.984 . S
N235 H239 0.977 1_565 S
H236 N231 0.984 . S
H237 N231 0.985 . S
H238 N235 0.984 . S
H239 N235 0.977 1_545 S
H240 N234 0.984 . S
H241 N234 0.984 . S
H242 N230 0.984 . S
H243 N230 0.985 . S
C244 C245 1.363 1_556 S
C244 C250 1.379 . S
C244 N252 1.356 . S
C245 C244 1.363 1_554 S
C245 C251 1.363 . S
C246 C247 1.363 . S
C246 C251 1.379 . S
C246 N253 1.356 . S
C247 C246 1.363 . S
C247 C250 1.363 1_554 S
N248 C250 1.356 . S
N248 H260 0.984 . S
N248 H261 0.985 . S
N249 C251 1.356 . S
N249 H254 0.984 . S
N249 H255 0.985 . S
C250 C244 1.379 . S
C250 C247 1.363 1_556 S
C250 N248 1.356 . S
C251 C245 1.363 . S
C251 C246 1.379 . S
C251 N249 1.356 . S
N252 C244 1.356 . S
N252 H258 0.984 . S
N252 H259 0.984 . S
N253 C246 1.356 . S
N253 H256 0.984 . S
N253 H257 0.985 . S
H254 N249 0.984 . S
H255 N249 0.985 . S
H256 N253 0.984 . S
H257 N253 0.985 . S
H258 N252 0.984 . S
H259 N252 0.984 . S
H260 N248 0.984 . S
H261 N248 0.985 . S
C262 C263 1.363 . S
C262 C268 1.379 . S
C262 N270 1.356 . S
C263 C262 1.363 . S
C263 C269 1.363 . S
C264 C265 1.363 . S
C264 C269 1.379 . S
C264 N271 1.356 . S
C265 C264 1.363 . S
C265 C268 1.363 . S
N266 C268 1.356 . S
N266 H278 0.984 . S
N266 H279 0.985 . S
N267 C269 1.356 . S
N267 H272 0.984 . S
N267 H273 0.985 . S
C268 C262 1.379 . S
C268 C265 1.363 . S
C268 N266 1.356 . S
C269 C263 1.363 . S
C269 C264 1.379 . S
C269 N267 1.356 . S
N270 C262 1.356 . S
N270 H276 0.984 . S
N270 H277 0.984 . S
N271 C264 1.356 . S
N271 H274 0.984 . S
N271 H275 0.985 . S
H272 N267 0.984 . S
H273 N267 0.985 . S
H274 N271 0.984 . S
H275 N271 0.985 . S
H276 N270 0.984 . S
H277 N270 0.984 . S
H278 N266 0.984 . S
H279 N266 0.985 . S
C280 C281 1.363 . S
C280 C286 1.379 . S
C280 N288 1.356 . S
C281 C280 1.363 . S
C281 C287 1.363 . S
C282 C283 1.363 . S
C282 C287 1.379 . S
C282 N289 1.356 . S
C283 C282 1.363 . S
C283 C286 1.363 . S
N284 C286 1.356 . S
N284 H296 0.984 . S
N284 H297 0.985 . S
N285 C287 1.356 . S
N285 H290 0.984 . S
N285 H291 0.985 . S
C286 C280 1.379 . S
C286 C283 1.363 . S
C286 N284 1.356 . S
C287 C281 1.363 . S
C287 C282 1.379 . S
C287 N285 1.356 . S
N288 C280 1.356 . S
N288 H294 0.984 . S
N288 H295 0.984 . S
N289 C282 1.356 . S
N289 H292 0.984 . S
N289 H293 0.985 . S
H290 N285 0.984 . S
H291 N285 0.985 . S
H292 N289 0.984 . S
H293 N289 0.985 . S
H294 N288 0.984 . S
H295 N288 0.984 . S
H296 N284 0.984 . S
H297 N284 0.985 . S
C298 C299 1.363 . S
C298 C304 1.379 . S
C298 N306 1.356 . S
C299 C298 1.363 . S
C299 C305 1.363 . S
C300 C301 1.363 . S
C300 C305 1.379 . S
C300 N307 1.356 . S
C301 C300 1.363 . S
C301 C304 1.363 . S
N302 C304 1.356 . S
N302 H314 0.984 . S
N302 H315 0.985 . S
N303 C305 1.356 . S
N303 H308 0.984 . S
N303 H309 0.985 . S
C304 C298 1.379 . S
C304 C301 1.363 . S
C304 N302 1.356 . S
C305 C299 1.363 . S
C305 C300 1.379 . S
C305 N303 1.356 . S
N306 C298 1.356 . S
N306 H312 0.984 . S
N306 H313 0.984 . S
N307 C300 1.356 . S
N307 H310 0.984 . S
N307 H311 0.985 . S
H308 N303 0.984 . S
H309 N303 0.985 . S
H310 N307 0.984 . S
H311 N307 0.985 . S
H312 N306 0.984 . S
H313 N306 0.984 . S
H314 N302 0.984 . S
H315 N302 0.985 . S
C316 C317 1.363 . S
C316 C322 1.379 . S
C316 N324 1.356 . S
C317 C316 1.363 . S
C317 C323 1.363 . S
C318 C319 1.363 . S
C318 C323 1.379 . S
C318 N325 1.356 . S
C319 C318 1.363 . S
C319 C322 1.363 . S
N320 C322 1.356 . S
N320 H332 0.984 . S
N320 H333 0.985 . S
N321 C323 1.356 . S
N321 H326 0.984 . S
N321 H327 0.985 . S
C322 C316 1.379 . S
C322 C319 1.363 . S
C322 N320 1.356 . S
C323 C317 1.363 . S
C323 C318 1.379 . S
C323 N321 1.356 . S
N324 C316 1.356 . S
N324 H330 0.984 . S
N324 H331 0.984 . S
N325 C318 1.356 . S
N325 H328 0.984 . S
N325 H329 0.985 . S
H326 N321 0.984 . S
H327 N321 0.985 . S
H328 N325 0.984 . S
H329 N325 0.985 . S
H330 N324 0.984 . S
H331 N324 0.984 . S
H332 N320 0.984 . S
H333 N320 0.985 . S
C334 C335 1.363 . S
C334 C340 1.379 . S
C334 N342 1.356 . S
C335 C334 1.363 . S
C335 C341 1.363 . S
C336 C337 1.363 . S
C336 C341 1.379 . S
C336 N343 1.356 . S
C337 C336 1.363 . S
C337 C340 1.363 . S
N338 C340 1.356 . S
N338 H350 0.984 . S
N338 H351 0.985 . S
N339 C341 1.356 . S
N339 H344 0.984 . S
N339 H345 0.985 . S
C340 C334 1.379 . S
C340 C337 1.363 . S
C340 N338 1.356 . S
C341 C335 1.363 . S
C341 C336 1.379 . S
C341 N339 1.356 . S
N342 C334 1.356 . S
N342 H348 0.984 . S
N342 H349 0.984 . S
N343 C336 1.356 . S
N343 H346 0.984 . S
N343 H347 0.985 . S
H344 N339 0.984 . S
H345 N339 0.985 . S
H346 N343 0.984 . S
H347 N343 0.985 . S
H348 N342 0.984 . S
H349 N342 0.984 . S
H350 N338 0.984 . S
H351 N338 0.985 . S
C352 C353 1.363 . S
C352 C358 1.379 1_655 S
C352 N360 1.356 1_655 S
C353 C352 1.363 . S
C353 C359 1.363 . S
C354 C355 1.363 . S
C354 C359 1.379 . S
C354 N361 1.356 . S
C355 C354 1.363 . S
C355 C358 1.363 1_655 S
N356 C358 1.356 . S
N356 H368 0.984 . S
N356 H369 0.985 . S
N357 C359 1.356 . S
N357 H362 0.984 . S
N357 H363 0.985 . S
C358 C352 1.379 1_455 S
C358 C355 1.363 1_455 S
C358 N356 1.356 . S
C359 C353 1.363 . S
C359 C354 1.379 . S
C359 N357 1.356 . S
N360 C352 1.356 1_455 S
N360 H366 0.984 . S
N360 H367 0.984 1_455 S
N361 C354 1.356 . S
N361 H364 0.984 . S
N361 H365 0.985 . S
H362 N357 0.984 . S
H363 N357 0.985 . S
H364 N361 0.984 . S
H365 N361 0.985 . S
H366 N360 0.984 . S
H367 N360 0.984 1_655 S
H368 N356 0.984 . S
H369 N356 0.985 . S
C370 C371 1.363 . S
C370 C376 1.379 . S
C370 N378 1.356 . S
C371 C370 1.363 . S
C371 C377 1.363 . S
C372 C373 1.363 . S
C372 C377 1.379 . S
C372 N379 1.356 . S
C373 C372 1.363 . S
C373 C376 1.363 . S
N374 C376 1.356 . S
N374 H386 0.984 . S
N374 H387 0.985 . S
N375 C377 1.356 . S
N375 H380 0.984 . S
N375 H381 0.985 . S
C376 C370 1.379 . S
C376 C373 1.363 . S
C376 N374 1.356 . S
C377 C371 1.363 . S
C377 C372 1.379 . S
C377 N375 1.356 . S
N378 C370 1.356 . S
N378 H384 0.984 . S
N378 H385 0.984 . S
N379 C372 1.356 . S
N379 H382 0.984 . S
N379 H383 0.985 . S
H380 N375 0.984 . S
H381 N375 0.985 . S
H382 N379 0.984 . S
H383 N379 0.985 . S
H384 N378 0.984 . S
H385 N378 0.984 . S
H386 N374 0.984 . S
H387 N374 0.985 . S
C388 C389 1.363 . S
C388 C394 1.379 . S
C388 N396 1.356 . S
C389 C388 1.363 . S
C389 C395 1.363 . S
C390 C391 1.363 . S
C390 C395 1.379 . S
C390 N397 1.356 . S
C391 C390 1.363 . S
C391 C394 1.363 . S
N392 C394 1.356 . S
N392 H404 0.984 . S
N392 H405 0.985 . S
N393 C395 1.356 . S
N393 H398 0.984 . S
N393 H399 0.985 . S
C394 C388 1.379 . S
C394 C391 1.363 . S
C394 N392 1.356 . S
C395 C389 1.363 . S
C395 C390 1.379 . S
C395 N393 1.356 . S
N396 C388 1.356 . S
N396 H402 0.984 . S
N396 H403 0.984 . S
N397 C390 1.356 . S
N397 H400 0.984 . S
N397 H401 0.985 . S
H398 N393 0.984 . S
H399 N393 0.985 . S
H400 N397 0.984 . S
H401 N397 0.985 . S
H402 N396 0.984 . S
H403 N396 0.984 . S
H404 N392 0.984 . S
H405 N392 0.985 . S
C193 C161 1.694 . S
C191 C133 1.687 . S
C209 C25 1.615 . S
C211 C184 1.693 . S
C227 C61 1.621 . S
C229 C160 1.701 . S
C245 C97 1.689 . S
C247 C183 1.702 . S
C265 C164 1.703 . S
C263 C1 1.694 . S
C283 C186 1.684 . S
C281 C67 1.620 . S
C299 C103 1.772 . S
C301 C165 1.685 . S
C317 C109 1.657 . S
C319 C185 1.634 . S
C337 C188 1.684 . S
C335 C37 1.707 . S
C355 C163 1.684 . S
C353 C73 1.677 . S
C373 C187 1.703 . S
C371 C139 1.758 . S
C389 C31 1.603 . S
C391 C162 1.634 . S
