# Generated by pormake.
# Topology rtl, (3,6)-cn, num edge types: 1
# Building blocks:
#     Node 0, Type 0, BuildingBlock: VETTIZ_charged_linker_0, # of connection points: 3
#     Node 1, Type 0, BuildingBlock: VETTIZ_charged_linker_0, # of connection points: 3
#     Node 2, Type 0, BuildingBlock: VETTIZ_charged_linker_0, # of connection points: 3
#     Node 3, Type 0, BuildingBlock: VETTIZ_charged_linker_0, # of connection points: 3
#     Node 4, Type 1, BuildingBlock: KUMBOL_clean_sbu_1, # of connection points: 6
#     Node 5, Type 1, BuildingBlock: KUMBOL_clean_sbu_1, # of connection points: 6
#     Edge 6, Type (0, 1), BuildingBlock: XIVTED_clean_linker_0, # of connection points: 2
#     Edge 7, Type (0, 1), BuildingBlock: XIVTED_clean_linker_0, # of connection points: 2
#     Edge 8, Type (0, 1), BuildingBlock: XIVTED_clean_linker_0, # of connection points: 2
#     Edge 9, Type (0, 1), BuildingBlock: XIVTED_clean_linker_0, # of connection points: 2
#     Edge 10, Type (0, 1), BuildingBlock: XIVTED_clean_linker_0, # of connection points: 2
#     Edge 11, Type (0, 1), BuildingBlock: XIVTED_clean_linker_0, # of connection points: 2
#     Edge 12, Type (0, 1), BuildingBlock: XIVTED_clean_linker_0, # of connection points: 2
#     Edge 13, Type (0, 1), BuildingBlock: XIVTED_clean_linker_0, # of connection points: 2
#     Edge 14, Type (0, 1), BuildingBlock: XIVTED_clean_linker_0, # of connection points: 2
#     Edge 15, Type (0, 1), BuildingBlock: XIVTED_clean_linker_0, # of connection points: 2
#     Edge 16, Type (0, 1), BuildingBlock: XIVTED_clean_linker_0, # of connection points: 2
#     Edge 17, Type (0, 1), BuildingBlock: XIVTED_clean_linker_0, # of connection points: 2
# Relax obj value: 0.017
# Max RMSD: 0.097
# Mean RMSD: 0.057
data_MOF--net-rtl--node1-KUMBOL_clean_sbu_1--node2-VETTIZ_charged_linker_0--edge1-XIVTED_clean_linker_0
_symmetry_space_group_name_H-M    P1
_symmetry_Int_Tables_number       1
_symmetry_cell_setting            triclinic
loop_
_symmetry_equiv_pos_as_xyz
'x, y, z'
_cell_length_a     39.629645
_cell_length_b     40.282168
_cell_length_c     35.365472
_cell_angle_alpha  80.067182
_cell_angle_beta   99.690978
_cell_angle_gamma 90.435804
loop_
_atom_site_label
_atom_site_type_symbol
_atom_site_fract_x
_atom_site_fract_y
_atom_site_fract_z
_atom_type_partial_charge
C0 C 0.17429 0.88727 0.8892 0.0
C1 C 0.14761 0.91158 0.88082 0.0
C2 C 0.13728 0.92458 0.91173 0.0
C3 C 0.17895 0.88809 0.95834 0.0
C4 C 0.18952 0.876 0.9279 0.0
C5 C 0.21785 0.84994 0.94158 0.0
H6 H 0.32291 0.75321 0.08923 0.0
C7 C 0.19947 0.87034 0.99502 0.0
C8 C 0.22239 0.84811 0.98536 0.0
H9 H 0.31511 0.75645 0.96507 0.0
H10 H 0.27178 0.79993 0.95247 0.0
H11 H 0.31786 0.83382 0.08539 0.0
H12 H 0.2403 0.75814 0.08775 0.0
H13 H 0.23363 0.7853 0.11987 0.0
H14 H 0.27288 0.76077 0.12901 0.0
H15 H 0.31466 0.80409 0.12866 0.0
H16 H 0.29004 0.84311 0.11614 0.0
C17 C 0.24997 0.86381 0.92497 0.0
C18 C 0.20471 0.8164 0.92912 0.0
C19 C 0.17428 0.89223 0.12455 0.0
C20 C 0.18816 0.87931 0.16357 0.0
C21 C 0.21581 0.85586 0.17139 0.0
C22 C 0.22897 0.84516 0.14092 0.0
C23 C 0.21435 0.85796 0.10213 0.0
C24 C 0.18773 0.8814 0.09455 0.0
C25 C 0.17544 0.89261 0.0517 0.0
C26 C 0.19879 0.87177 0.0347 0.0
C27 C 0.22146 0.85134 0.06431 0.0
C28 C 0.18181 0.93088 0.04146 0.0
C29 C 0.13745 0.88273 0.04233 0.0
C30 C 0.31172 0.76323 0.05938 0.0
C31 C 0.32283 0.75149 0.02813 0.0
C32 C 0.30768 0.76543 0.9897 0.0
C33 C 0.28221 0.79059 0.98238 0.0
C34 C 0.27134 0.80203 0.01373 0.0
C35 C 0.28603 0.78852 0.05148 0.0
C36 C 0.27091 0.804 0.08094 0.0
C37 C 0.2448 0.82889 0.05451 0.0
C38 C 0.24522 0.82743 0.01523 0.0
C39 C 0.29973 0.82208 0.10437 0.0
C40 C 0.25364 0.77574 0.10605 0.0
H41 H 0.14348 0.9235 0.97267 0.0
H42 H 0.18321 0.87716 0.86608 0.0
H43 H 0.17691 0.8136 0.93019 0.0
H44 H 0.217 0.79385 0.94873 0.0
H45 H 0.20833 0.81539 0.89886 0.0
H46 H 0.25109 0.89169 0.92267 0.0
H47 H 0.24981 0.85793 0.89539 0.0
H48 H 0.27422 0.85426 0.94393 0.0
H49 H 0.15272 0.90987 0.11729 0.0
H50 H 0.22738 0.84581 0.20111 0.0
H51 H 0.2499 0.82719 0.14876 0.0
H52 H 0.20518 0.93816 0.06018 0.0
H53 H 0.15995 0.94609 0.04578 0.0
H54 H 0.1867 0.9386 0.01137 0.0
H55 H 0.13302 0.85775 0.05963 0.0
H56 H 0.12936 0.87987 0.01168 0.0
H57 H 0.12017 0.90147 0.04944 0.0
H58 H 0.11664 0.94319 0.90605 0.0
C59 C 0.15278 0.91296 0.95041 0.0
C60 C 0.64204 0.66457 0.731 0.0
C61 C 0.61496 0.64204 0.73439 0.0
C62 C 0.59752 0.63113 0.70076 0.0
C63 C 0.634 0.6647 0.66127 0.0
C64 C 0.6508 0.6759 0.69413 0.0
C65 C 0.67764 0.70127 0.68465 0.0
H66 H 0.75865 0.79231 0.5479 0.0
C67 C 0.6489 0.68136 0.62746 0.0
C68 C 0.67419 0.70327 0.64083 0.0
H69 H 0.77814 0.79171 0.67213 0.0
H70 H 0.73302 0.75169 0.68048 0.0
H71 H 0.75558 0.71457 0.55546 0.0
H72 H 0.67657 0.79093 0.53654 0.0
H73 H 0.66245 0.76203 0.50558 0.0
H74 H 0.7012 0.78478 0.50001 0.0
H75 H 0.74193 0.74017 0.50865 0.0
H76 H 0.72157 0.70102 0.52371 0.0
C77 C 0.71297 0.68652 0.70637 0.0
C78 C 0.66764 0.73508 0.69546 0.0
C79 C 0.61245 0.64704 0.49472 0.0
C80 C 0.62284 0.65732 0.45836 0.0
C81 C 0.64559 0.6843 0.45424 0.0
C82 C 0.65867 0.69991 0.48588 0.0
C83 C 0.64918 0.68845 0.52235 0.0
C84 C 0.62589 0.66291 0.52618 0.0
C85 C 0.61845 0.65448 0.56712 0.0
C86 C 0.64226 0.6782 0.58747 0.0
C87 C 0.66019 0.6979 0.56107 0.0
C88 C 0.6287 0.61703 0.58309 0.0
C89 C 0.58021 0.66314 0.56622 0.0
C90 C 0.75356 0.78348 0.57706 0.0
C91 C 0.77234 0.79523 0.60938 0.0
C92 C 0.764 0.78341 0.64659 0.0
C93 C 0.73791 0.75995 0.65143 0.0
C94 C 0.71992 0.74805 0.61876 0.0
C95 C 0.728 0.7599 0.58241 0.0
C96 C 0.7075 0.74374 0.55104 0.0
C97 C 0.6853 0.72048 0.57433 0.0
C98 C 0.69248 0.72309 0.614 0.0
C99 C 0.7327 0.72398 0.53342 0.0
C100 C 0.68587 0.77166 0.52142 0.0
H101 H 0.59279 0.63281 0.63994 0.0
H102 H 0.65554 0.67372 0.75632 0.0
H103 H 0.63945 0.73961 0.68808 0.0
H104 H 0.67874 0.75711 0.67914 0.0
H105 H 0.67538 0.735 0.72716 0.0
H106 H 0.71471 0.65899 0.70623 0.0
H107 H 0.71726 0.69016 0.73723 0.0
H108 H 0.73443 0.69743 0.6925 0.0
H109 H 0.5946 0.62677 0.49877 0.0
H110 H 0.65438 0.69257 0.42682 0.0
H111 H 0.67633 0.71985 0.48087 0.0
H112 H 0.65382 0.61097 0.57552 0.0
H113 H 0.60943 0.60006 0.57041 0.0
H114 H 0.63196 0.61062 0.6151 0.0
H115 H 0.57018 0.6831 0.54099 0.0
H116 H 0.57608 0.67365 0.59204 0.0
H117 H 0.56403 0.64071 0.56387 0.0
H118 H 0.5767 0.61368 0.70277 0.0
C119 C 0.60695 0.64221 0.66433 0.0
C120 C 0.8384 0.10999 0.17659 0.0
C121 C 0.86399 0.08467 0.18483 0.0
C122 C 0.87238 0.06991 0.15419 0.0
C123 C 0.83106 0.10702 0.10771 0.0
C124 C 0.82219 0.1205 0.13815 0.0
C125 C 0.79407 0.14673 0.1249 0.0
H126 H 0.68477 0.24107 0.98 0.0
C127 C 0.80979 0.12439 0.07124 0.0
C128 C 0.78783 0.14732 0.0813 0.0
H129 H 0.69791 0.24 0.1043 0.0
H130 H 0.74095 0.19662 0.11551 0.0
H131 H 0.76643 0.23712 0.97817 0.0
H132 H 0.69085 0.15963 0.9845 0.0
H133 H 0.71695 0.15205 0.95111 0.0
H134 H 0.69141 0.19039 0.94133 0.0
H135 H 0.73391 0.2329 0.93742 0.0
H136 H 0.77378 0.20923 0.9472 0.0
C137 C 0.80827 0.18057 0.13545 0.0
C138 C 0.76263 0.13381 0.14363 0.0
C139 C 0.83299 0.1031 0.9405 0.0
C140 C 0.81947 0.11731 0.90174 0.0
C141 C 0.79136 0.14016 0.89461 0.0
C142 C 0.7779 0.14967 0.92553 0.0
C143 C 0.79272 0.13635 0.9641 0.0
C144 C 0.81941 0.113 0.97102 0.0
C145 C 0.83211 0.1015 0.0138 0.0
C146 C 0.80932 0.12247 0.03143 0.0
C147 C 0.78626 0.14292 0.00221 0.0
C148 C 0.87025 0.11091 0.02268 0.0
C149 C 0.82544 0.0633 0.02396 0.0
C150 C 0.697 0.2315 0.0096 0.0
C151 C 0.68729 0.2438 0.04132 0.0
C152 C 0.70398 0.23051 0.07933 0.0
C153 C 0.72937 0.20538 0.08586 0.0
C154 C 0.73876 0.19334 0.05411 0.0
C155 C 0.72276 0.20629 0.01671 0.0
C156 C 0.73695 0.19057 0.98673 0.0
C157 C 0.76359 0.16579 0.01253 0.0
C158 C 0.76447 0.1678 0.05188 0.0
C159 C 0.7535 0.21875 0.96067 0.0
C160 C 0.70763 0.17231 0.96438 0.0
H161 H 0.86389 0.06921 0.0934 0.0
H162 H 0.83094 0.12128 0.19971 0.0
H163 H 0.76184 0.10579 0.14863 0.0
H164 H 0.73796 0.14206 0.12469 0.0
H165 H 0.76331 0.14189 0.17222 0.0
H166 H 0.83571 0.18303 0.13235 0.0
H167 H 0.80645 0.18234 0.16604 0.0
H168 H 0.79538 0.20289 0.11596 0.0
H169 H 0.85417 0.08505 0.94703 0.0
H170 H 0.78055 0.15168 0.86512 0.0
H171 H 0.75692 0.16758 0.91821 0.0
H172 H 0.87443 0.13654 0.00677 0.0
H173 H 0.88696 0.09288 0.01346 0.0
H174 H 0.87929 0.11192 0.05367 0.0
H175 H 0.80202 0.05618 0.0052 0.0
H176 H 0.82049 0.0557 0.05405 0.0
H177 H 0.8472 0.04793 0.01969 0.0
H178 H 0.89201 0.05025 0.16001 0.0
C179 C 0.85612 0.08103 0.11561 0.0
C180 C 0.36444 0.33325 0.33039 0.0
C181 C 0.38995 0.35754 0.3262 0.0
C182 C 0.40377 0.37256 0.35837 0.0
C183 C 0.36719 0.33949 0.39801 0.0
C184 C 0.35367 0.3244 0.36667 0.0
C185 C 0.32784 0.29816 0.37723 0.0
H186 H 0.23711 0.2207 0.51312 0.0
C187 C 0.35074 0.32509 0.43145 0.0
C188 C 0.32766 0.30067 0.41967 0.0
H189 H 0.23559 0.19924 0.39707 0.0
H190 H 0.27704 0.24263 0.38563 0.0
H191 H 0.31656 0.22188 0.53367 0.0
H192 H 0.24031 0.30089 0.49206 0.0
H193 H 0.27016 0.31463 0.52847 0.0
H194 H 0.2464 0.27708 0.54061 0.0
H195 H 0.29133 0.23652 0.56534 0.0
H196 H 0.33129 0.25571 0.55671 0.0
C197 C 0.34161 0.2634 0.37288 0.0
C198 C 0.29292 0.30888 0.35125 0.0
C199 C 0.38109 0.36952 0.55893 0.0
C200 C 0.36974 0.36158 0.595 0.0
C201 C 0.3453 0.33622 0.59975 0.0
C202 C 0.33216 0.31938 0.56916 0.0
C203 C 0.34356 0.32777 0.53325 0.0
C204 C 0.36775 0.35233 0.52866 0.0
C205 C 0.377 0.35771 0.48853 0.0
C206 C 0.35431 0.33233 0.46982 0.0
C207 C 0.33477 0.31501 0.49612 0.0
C208 C 0.41559 0.34872 0.49259 0.0
C209 C 0.36682 0.3945 0.46878 0.0
C210 C 0.24588 0.22474 0.48533 0.0
C211 C 0.23289 0.20608 0.45615 0.0
C212 C 0.2447 0.21331 0.42009 0.0
C213 C 0.26904 0.23838 0.41356 0.0
C214 C 0.28201 0.25635 0.44344 0.0
C215 C 0.27044 0.24912 0.47863 0.0
C216 C 0.28764 0.26948 0.50781 0.0
C217 C 0.31141 0.29038 0.48443 0.0
C218 C 0.30794 0.28297 0.44654 0.0
C219 C 0.30762 0.24486 0.54295 0.0
C220 C 0.25987 0.29161 0.51819 0.0
H221 H 0.4041 0.37627 0.41725 0.0
H222 H 0.35362 0.32105 0.30624 0.0
H223 H 0.28781 0.33628 0.34943 0.0
H224 H 0.27118 0.29597 0.36274 0.0
H225 H 0.29256 0.30408 0.32118 0.0
H226 H 0.36995 0.2615 0.38155 0.0
H227 H 0.3353 0.25929 0.34224 0.0
H228 H 0.33187 0.24226 0.39208 0.0
H229 H 0.39958 0.38905 0.55404 0.0
H230 H 0.33651 0.32911 0.62735 0.0
H231 H 0.31358 0.30046 0.57473 0.0
H232 H 0.42401 0.32867 0.5183 0.0
H233 H 0.43168 0.371 0.49636 0.0
H234 H 0.42165 0.33814 0.46762 0.0
H235 H 0.34255 0.40242 0.47691 0.0
H236 H 0.36163 0.39792 0.43667 0.0
H237 H 0.38689 0.41228 0.47787 0.0
H238 H 0.42314 0.39157 0.35576 0.0
C239 C 0.39254 0.36375 0.39408 0.0
C240 C 0.93495 0.08684 0.47322 0.0
C241 C 0.87783 0.06443 0.46219 0.0
C242 C 0.9114 0.06261 0.48364 0.0
C243 C 0.86889 0.08977 0.42936 0.0
C244 C 0.92583 0.11276 0.44082 0.0
C245 C 0.89281 0.11386 0.41872 0.0
N246 N 0.96717 0.0845 0.49426 0.0
C247 C 0.99095 0.1081 0.48582 0.0
C248 C 0.9503 0.13668 0.43145 0.0
C249 C 0.98292 0.13445 0.4542 0.0
Gd250 Gd 0.02605 0.96137 0.51786 0.0
Gd251 Gd 0.97824 0.03953 0.54665 0.0
N252 N 0.92084 0.03812 0.51544 0.0
C253 C 0.85391 0.04134 0.47504 0.0
C254 C 0.89659 0.01794 0.53016 0.0
C255 C 0.86316 0.01848 0.50965 0.0
H256 H 0.9024 0.00207 0.55831 0.0
H257 H 0.84433 0.00177 0.52103 0.0
H258 H 0.10236 0.99548 0.54731 0.0
H259 H 0.01616 0.10637 0.50343 0.0
H260 H 0.15467 0.97942 0.59494 0.0
H261 H 0.82788 0.04193 0.45942 0.0
H262 H 0.84332 0.09131 0.41239 0.0
H263 H 0.97658 0.8938 0.5235 0.0
H264 H 0.94425 0.15699 0.40678 0.0
H265 H 0.0019 0.15295 0.44731 0.0
H266 H 0.13584 0.86575 0.65345 0.0
H267 H 0.88541 0.13342 0.39352 0.0
H268 H 0.02928 0.81571 0.61055 0.0
H269 H 0.97809 0.8362 0.56181 0.0
N270 N 0.02547 0.9061 0.5516 0.0
C271 C 0.05412 0.89521 0.57768 0.0
C272 C 0.99851 0.88534 0.5455 0.0
C273 C 0.02855 0.84109 0.59411 0.0
C274 C 0.99955 0.8526 0.56673 0.0
C275 C 0.05635 0.8624 0.59982 0.0
H276 H 0.08816 0.8269 0.64435 0.0
N277 N 0.07762 0.94918 0.56207 0.0
C278 C 0.08107 0.91724 0.58286 0.0
C279 C 0.13738 0.92967 0.61486 0.0
C280 C 0.11086 0.90683 0.61023 0.0
C281 C 0.10397 0.97105 0.5654 0.0
C282 C 0.13401 0.96181 0.59211 0.0
O283 O 0.98435 0.03846 0.48415 0.0
O284 O 0.97736 0.98308 0.47946 0.0
O285 O 0.0574 0.96722 0.47239 0.0
O286 O 0.02881 0.92175 0.48392 0.0
O287 O 0.96171 0.9862 0.56822 0.0
O288 O 0.9694 0.958 0.51865 0.0
O289 O 0.02758 0.961 0.5822 0.0
O290 O 0.02375 0.01652 0.59022 0.0
O291 O 0.9504 0.04989 0.59261 0.0
O292 O 0.98509 0.08659 0.56783 0.0
O293 O 0.04729 0.01364 0.50265 0.0
O294 O 0.03501 0.04488 0.54813 0.0
C295 C 0.97334 0.01502 0.46393 0.0
C296 C 0.95482 0.96108 0.54874 0.0
C297 C 0.03615 0.94083 0.41917 0.0
C298 C 0.04918 0.93864 0.35466 0.0
C299 C 0.99108 0.951 0.36261 0.0
C300 C 0.0017 0.94795 0.40274 0.0
C301 C 0.01466 0.94654 0.33861 0.0
C302 C 0.05979 0.93593 0.39512 0.0
C303 C 0.04773 0.93894 0.4612 0.0
C304 C 0.11317 0.87413 0.63224 0.0
C305 C 0.08601 0.852 0.62705 0.0
H306 H 0.16067 0.92264 0.63559 0.0
C307 C 0.0321 0.98468 0.60377 0.0
C308 C 0.05248 0.03945 0.5212 0.0
C309 C 0.95679 0.10386 0.61681 0.0
C310 C 0.93606 0.11766 0.67358 0.0
C311 C 0.96301 0.16044 0.63206 0.0
C312 C 0.96776 0.13721 0.60834 0.0
C313 C 0.94752 0.15071 0.66465 0.0
C314 C 0.94034 0.09427 0.64929 0.0
C315 C 0.96398 0.07947 0.59222 0.0
H316 H 0.96446 0.95657 0.35009 0.0
H317 H 0.98308 0.95093 0.42103 0.0
H318 H 0.00575 0.9485 0.3076 0.0
H319 H 0.08642 0.93032 0.40784 0.0
H320 H 0.97165 0.186 0.62533 0.0
H321 H 0.98025 0.14539 0.58344 0.0
H322 H 0.94432 0.16908 0.68291 0.0
H323 H 0.9319 0.06863 0.65635 0.0
C324 C 0.60661 0.55315 0.032 0.0
C325 C 0.5924 0.6129 0.02089 0.0
C326 C 0.58456 0.57915 0.0344 0.0
C327 C 0.62159 0.61992 0.00344 0.0
C328 C 0.63632 0.56015 0.01529 0.0
C329 C 0.64349 0.59364 1.00067 0.0
N330 N 0.59849 0.52083 0.04516 0.0
C331 C 0.61959 0.49447 0.0442 0.0
C332 C 0.65782 0.53321 0.01351 0.0
C333 C 0.64951 0.50026 0.02822 0.0
Gd334 Gd 0.46848 0.48988 0.9939 0.0
Gd335 Gd 0.54803 0.51368 0.07152 0.0
N336 N 0.55627 0.57161 0.0512 0.0
C337 C 0.57122 0.63868 0.02635 0.0
C338 C 0.53782 0.5968 0.06015 0.0
C339 C 0.54426 0.63059 0.04682 0.0
H340 H 0.51878 0.5912 0.07862 0.0
H341 H 0.52889 0.6504 0.05313 0.0
H342 H 0.48516 0.40747 0.02822 0.0
H343 H 0.61309 0.469 0.05552 0.0
H344 H 0.45465 0.35769 0.05507 0.0
H345 H 0.57637 0.6649 0.01641 0.0
H346 H 0.62779 0.64568 0.99261 0.0
H347 H 0.41162 0.55433 0.9721 0.0
H348 H 0.68089 0.53758 1.00089 0.0
H349 H 0.66606 0.47933 0.02713 0.0
H350 H 0.34099 0.39982 0.0518 0.0
H351 H 0.66605 0.5995 0.98744 0.0
H352 H 0.31672 0.51737 0.00344 0.0
H353 H 0.35128 0.56454 0.97727 0.0
N354 N 0.41151 0.50238 0.99681 0.0
C355 C 0.39288 0.47596 0.01071 0.0
C356 C 0.39698 0.53381 0.98451 0.0
C357 C 0.34327 0.51283 1.00164 0.0
C358 C 0.36272 0.53956 0.98695 0.0
C359 C 0.35823 0.48052 0.0136 0.0
H360 H 0.31305 0.45585 0.03087 0.0
N361 N 0.44253 0.44099 0.0209 0.0
C362 C 0.40867 0.44427 0.02258 0.0
C363 C 0.40708 0.38507 0.04961 0.0
C364 C 0.39017 0.41646 0.03754 0.0
C365 C 0.45885 0.41028 0.03138 0.0
C366 C 0.4415 0.38195 0.0463 0.0
O367 O 0.55247 0.51587 0.00775 0.0
O368 O 0.49959 0.53518 0.97602 0.0
O369 O 0.47519 0.46254 0.94781 0.0
O370 O 0.43399 0.49951 0.93839 0.0
O371 O 0.49545 0.53713 0.06939 0.0
O372 O 0.47334 0.5433 0.00412 0.0
O373 O 0.46219 0.47777 0.05752 0.0
O374 O 0.51652 0.47046 0.09448 0.0
O375 O 0.55674 0.53239 0.12726 0.0
O376 O 0.59094 0.49435 0.11592 0.0
O377 O 0.51804 0.45962 0.00193 0.0
O378 O 0.54678 0.45912 0.06494 0.0
C379 C 0.5329 0.53413 0.97799 0.0
C380 C 0.47414 0.55187 0.03842 0.0
C381 C 0.45769 0.49136 0.8838 0.0
C382 C 0.4542 0.48454 0.81602 0.0
C383 C 0.48357 0.53232 0.83923 0.0
C384 C 0.4758 0.52108 0.87631 0.0
C385 C 0.47291 0.51418 0.8092 0.0
C386 C 0.44688 0.4732 0.85366 0.0
C387 C 0.45021 0.47877 0.92295 0.0
C388 C 0.3556 0.4209 0.04032 0.0
C389 C 0.3397 0.45282 0.02842 0.0
H390 H 0.39377 0.36308 0.06131 0.0
C391 C 0.48326 0.46633 0.09003 0.0
C392 C 0.54031 0.4463 0.03274 0.0
C393 C 0.60525 0.51139 0.17896 0.0
C394 C 0.61628 0.52627 0.24406 0.0
C395 C 0.65471 0.48734 0.22583 0.0
C396 C 0.63473 0.4904 0.18898 0.0
C397 C 0.64554 0.50499 0.25326 0.0
C398 C 0.59629 0.52966 0.20656 0.0
C399 C 0.58378 0.51292 0.14018 0.0
H400 H 0.49766 0.55528 0.83367 0.0
H401 H 0.48369 0.53551 0.89913 0.0
H402 H 0.4787 0.5237 0.7805 0.0
H403 H 0.43302 0.4501 0.85966 0.0
H404 H 0.67736 0.47112 0.23322 0.0
H405 H 0.64234 0.47611 0.16839 0.0
H406 H 0.66164 0.50231 0.28163 0.0
H407 H 0.57355 0.54581 0.19929 0.0
H408 H 0.17882 0.18652 0.40481 0.0
H409 H 0.09083 0.07758 0.56848 0.0
H410 H 0.22841 0.16401 0.52519 0.0
H411 H 0.07549 0.05553 0.45175 0.0
H412 H 0.13569 0.11689 0.55171 0.0
H413 H 0.13561 0.14469 0.41983 0.0
C414 C 0.18092 0.17275 0.43426 0.0
C415 C 0.2073 0.17936 0.46381 0.0
C416 C 0.12253 0.10336 0.52983 0.0
C417 C 0.15725 0.1322 0.48122 0.0
C418 C 0.09687 0.08109 0.53931 0.0
C419 C 0.0796 0.0632 0.5115 0.0
C420 C 0.13042 0.10835 0.49203 0.0
C421 C 0.08847 0.06863 0.47413 0.0
C422 C 0.15609 0.14901 0.44279 0.0
C423 C 0.20815 0.16079 0.50156 0.0
N424 N 0.1131 0.09098 0.46533 0.0
N425 N 0.18334 0.13843 0.50922 0.0
H426 H 0.37513 0.74741 0.98752 0.0
H427 H 0.44681 0.56592 0.10041 0.0
H428 H 0.33159 0.69385 0.08391 0.0
H429 H 0.45646 0.60633 0.98167 0.0
H430 H 0.41267 0.61637 0.10208 0.0
H431 H 0.41421 0.69978 0.993 0.0
C432 C 0.3738 0.72564 0.00992 0.0
C433 C 0.34952 0.7244 0.03478 0.0
C434 C 0.42237 0.61408 0.07576 0.0
C435 C 0.39467 0.66983 0.04152 0.0
C436 C 0.44182 0.58546 0.07483 0.0
C437 C 0.45408 0.58194 0.04073 0.0
C438 C 0.41588 0.63947 0.04262 0.0
C439 C 0.44706 0.60788 0.00836 0.0
C440 C 0.39621 0.69849 0.01308 0.0
C441 C 0.34983 0.6959 0.06408 0.0
N442 N 0.42853 0.63555 0.01015 0.0
N443 N 0.3719 0.66956 0.06649 0.0
H444 H 0.79208 0.8486 0.64739 0.0
H445 H 0.91969 0.91976 0.50316 0.0
H446 H 0.81798 0.79634 0.55892 0.0
H447 H 0.92782 0.94811 0.61655 0.0
H448 H 0.87683 0.87884 0.52012 0.0
H449 H 0.83721 0.88899 0.63454 0.0
C450 C 0.80731 0.84539 0.62552 0.0
C451 C 0.80074 0.81916 0.60386 0.0
C452 C 0.88808 0.89386 0.54142 0.0
C453 C 0.85186 0.86568 0.5886 0.0
C454 C 0.91269 0.9172 0.53181 0.0
C455 C 0.92792 0.93698 0.55876 0.0
C456 C 0.87796 0.89057 0.57802 0.0
C457 C 0.9169 0.93321 0.595 0.0
C458 C 0.83294 0.86857 0.61811 0.0
C459 C 0.82125 0.81659 0.57564 0.0
N460 N 0.89249 0.91046 0.60359 0.0
N461 N 0.84557 0.83965 0.56865 0.0
H462 H 0.63868 0.24997 0.08653 0.0
H463 H 0.55734 0.4254 0.96855 0.0
H464 H 0.67498 0.29972 0.98313 0.0
H465 H 0.56623 0.3968 0.09321 0.0
H466 H 0.59022 0.3742 0.96724 0.0
H467 H 0.60082 0.29831 0.08248 0.0
C468 C 0.63872 0.27101 0.0629 0.0
C469 C 0.66074 0.271 0.03563 0.0
C470 C 0.58481 0.3792 0.99477 0.0
C471 C 0.61667 0.32615 0.03043 0.0
C472 C 0.56601 0.40823 0.99556 0.0
C473 C 0.55923 0.41531 0.03109 0.0
C474 C 0.59612 0.35685 0.02962 0.0
C475 C 0.57115 0.3924 0.06526 0.0
C476 C 0.61697 0.29853 0.06059 0.0
C477 C 0.65855 0.29856 0.00484 0.0
N478 N 0.58885 0.36409 0.06365 0.0
N479 N 0.63703 0.32517 0.00317 0.0
H480 H 0.17801 0.84006 0.23233 0.0
H481 H 0.05816 0.97657 0.28529 0.0
H482 H 0.16313 0.9417 0.16802 0.0
H483 H 0.09573 0.88652 0.36601 0.0
H484 H 0.09594 0.96379 0.24141 0.0
H485 H 0.14823 0.85621 0.28174 0.0
C486 C 0.16895 0.86589 0.2288 0.0
C487 C 0.17288 0.88945 0.19565 0.0
C488 C 0.09616 0.94696 0.26887 0.0
C489 C 0.13807 0.90787 0.25182 0.0
C490 C 0.07449 0.95416 0.29379 0.0
C491 C 0.07374 0.93247 0.32919 0.0
C492 C 0.11691 0.91759 0.27915 0.0
C493 C 0.09568 0.90397 0.33904 0.0
C494 C 0.15176 0.87503 0.25696 0.0
C495 C 0.16007 0.92243 0.19255 0.0
N496 N 0.11613 0.89715 0.31396 0.0
N497 N 0.14299 0.93055 0.22003 0.0
H498 H 0.55076 0.6433 0.75218 0.0
H499 H 0.59375 0.52145 0.95541 0.0
H500 H 0.65493 0.61299 0.80299 0.0
H501 H 0.5064 0.58982 0.92644 0.0
H502 H 0.61621 0.55127 0.89862 0.0
H503 H 0.53268 0.61988 0.81405 0.0
C504 C 0.56982 0.63182 0.77651 0.0
C505 C 0.60435 0.62998 0.77257 0.0
C506 C 0.59228 0.55988 0.90495 0.0
C507 C 0.58386 0.60288 0.84323 0.0
C508 C 0.57954 0.54298 0.9374 0.0
C509 C 0.54809 0.55307 0.9455 0.0
C510 C 0.57305 0.58659 0.88006 0.0
C511 C 0.53053 0.58092 0.92095 0.0
C512 C 0.55955 0.61863 0.81181 0.0
C513 C 0.62809 0.61501 0.805 0.0
N514 N 0.54299 0.5964 0.88905 0.0
N515 N 0.61735 0.60163 0.83891 0.0
H516 H 0.89325 0.12508 0.23497 0.0
H517 H 0.92727 0.97962 0.42079 0.0
H518 H 0.87488 0.02069 0.22677 0.0
H519 H 0.98278 0.07238 0.41356 0.0
H520 H 0.90167 0.99587 0.35196 0.0
H521 H 0.92018 0.10795 0.30311 0.0
C522 C 0.89498 0.09853 0.24759 0.0
C523 C 0.88188 0.07421 0.22537 0.0
C524 C 0.91949 0.0126 0.3655 0.0
C525 C 0.9123 0.05452 0.30317 0.0
C526 C 0.93413 0.00336 0.40466 0.0
C527 C 0.95725 0.02466 0.42275 0.0
C528 C 0.92766 0.04361 0.34456 0.0
C529 C 0.96482 0.05538 0.40079 0.0
C530 C 0.91043 0.08878 0.28634 0.0
C531 C 0.88492 0.04014 0.24294 0.0
N532 N 0.94995 0.06403 0.36285 0.0
N533 N 0.89957 0.03127 0.281 0.0
H534 H 0.43541 0.38211 0.61699 0.0
H535 H 0.39133 0.45696 0.79894 0.0
H536 H 0.3343 0.38261 0.64717 0.0
H537 H 0.48879 0.46961 0.75978 0.0
H538 H 0.3711 0.42668 0.74559 0.0
H539 H 0.45634 0.41196 0.67065 0.0
C540 C 0.41755 0.38863 0.63472 0.0
C541 C 0.383 0.37974 0.6275 0.0
C542 C 0.39692 0.43607 0.74862 0.0
C543 C 0.40695 0.41354 0.68936 0.0
C544 C 0.40856 0.45317 0.77925 0.0
C545 C 0.44182 0.46582 0.78386 0.0
C546 C 0.41871 0.4314 0.7224 0.0
C547 C 0.46284 0.4606 0.75708 0.0
C548 C 0.42957 0.40553 0.6655 0.0
C549 C 0.36122 0.38841 0.65194 0.0
N550 N 0.45096 0.44373 0.72754 0.0
N551 N 0.37356 0.40477 0.68173 0.0
H552 H 0.6052 0.68269 0.38006 0.0
H553 H 0.61295 0.50111 0.31997 0.0
H554 H 0.61723 0.58906 0.46191 0.0
H555 H 0.60001 0.59356 0.23639 0.0
H556 H 0.60686 0.53285 0.37139 0.0
H557 H 0.59601 0.6507 0.32647 0.0
C558 C 0.60564 0.65541 0.3868 0.0
C559 C 0.61239 0.63857 0.42564 0.0
C560 C 0.60497 0.54626 0.34179 0.0
C561 C 0.60176 0.60178 0.36435 0.0
C562 C 0.6085 0.52813 0.31244 0.0
C563 C 0.60743 0.54481 0.27398 0.0
C564 C 0.60067 0.58148 0.33282 0.0
C565 C 0.60103 0.57976 0.26569 0.0
C566 C 0.60024 0.63717 0.35616 0.0
C567 C 0.61196 0.6032 0.43254 0.0
N568 N 0.59837 0.59703 0.29498 0.0
N569 N 0.60715 0.58604 0.40225 0.0
H570 H 0.78924 0.10682 0.82872 0.0
H571 H 0.96575 0.119 0.74811 0.0
H572 H 0.888 0.11231 0.90037 0.0
H573 H 0.87087 0.09649 0.67898 0.0
H574 H 0.9377 0.11273 0.80528 0.0
H575 H 0.81809 0.10004 0.77429 0.0
C576 C 0.81696 0.10642 0.83309 0.0
C577 C 0.83619 0.11028 0.8692 0.0
C578 C 0.92299 0.10868 0.77782 0.0
C579 C 0.86934 0.10244 0.8071 0.0
C580 C 0.93906 0.11217 0.74526 0.0
C581 C 0.9205 0.10826 0.70899 0.0
C582 C 0.88787 0.10183 0.77398 0.0
C583 C 0.88599 0.09953 0.70662 0.0
C584 C 0.83341 0.10233 0.80209 0.0
C585 C 0.87206 0.1091 0.87329 0.0
N586 N 0.87058 0.09706 0.73862 0.0
N587 N 0.88738 0.10559 0.8426 0.0
H588 H 0.35239 0.37602 0.25284 0.0
H589 H 0.51843 0.42778 0.15599 0.0
H590 H 0.4562 0.36281 0.31467 0.0
H591 H 0.41583 0.4601 0.09978 0.0
H592 H 0.49523 0.39702 0.21112 0.0
H593 H 0.3744 0.39935 0.19298 0.0
C594 C 0.37979 0.37757 0.25363 0.0
C595 C 0.40253 0.36777 0.28875 0.0
C596 C 0.47773 0.41066 0.18662 0.0
C597 C 0.42781 0.39449 0.22077 0.0
C598 C 0.49098 0.42833 0.15508 0.0
C599 C 0.46908 0.4466 0.12302 0.0
C600 C 0.44225 0.41114 0.18632 0.0
C601 C 0.43369 0.44608 0.12357 0.0
C602 C 0.39232 0.3911 0.21961 0.0
C603 C 0.43779 0.3705 0.28831 0.0
N604 N 0.42138 0.42872 0.15476 0.0
N605 N 0.44931 0.38369 0.25496 0.0
H606 H 0.12709 0.87222 0.82593 0.0
H607 H 0.0585 0.02595 0.65526 0.0
H608 H 0.12819 0.97575 0.84305 0.0
H609 H 0.04264 0.92116 0.64659 0.0
H610 H 0.08638 0.00871 0.72303 0.0
H611 H 0.09902 0.89035 0.75871 0.0
C612 C 0.12156 0.89883 0.81545 0.0
C613 C 0.13012 0.92253 0.84009 0.0
C614 C 0.07683 0.98954 0.7062 0.0
C615 C 0.09765 0.9435 0.76312 0.0
C616 C 0.06088 0.99934 0.66752 0.0
C617 C 0.04856 0.97495 0.64497 0.0
C618 C 0.08052 0.95511 0.72238 0.0
C619 C 0.05233 0.94086 0.66248 0.0
C620 C 0.10532 0.90915 0.77713 0.0
C621 C 0.1218 0.95662 0.82512 0.0
N622 N 0.06806 0.93198 0.70003 0.0
N623 N 0.10613 0.96612 0.78752 0.0
loop_
_geom_bond_atom_site_label_1
_geom_bond_atom_site_label_2
_geom_bond_distance
_geom_bond_site_symmetry_2
_ccdc_geom_bond_type
C0 C1 1.391 . S
C0 C4 1.391 . S
C0 H42 0.948 . S
C1 C0 1.391 . S
C1 C2 1.391 . S
C2 C1 1.391 . S
C2 H58 0.947 . S
C2 C59 1.392 . S
C3 C4 1.391 . S
C3 C7 1.397 . S
C3 C59 1.419 . S
C4 C0 1.391 . S
C4 C3 1.391 . S
C4 C5 1.399 . S
C5 C4 1.399 . S
C5 C8 1.396 . S
C5 C17 1.453 . S
C5 C18 1.684 . S
H6 C30 0.948 . S
C7 C3 1.397 . S
C7 C8 1.394 . S
C7 C26 1.723 1_556 S
C8 C5 1.396 . S
C8 C7 1.394 . S
C8 C38 1.723 1_556 S
H9 C32 0.947 . S
H10 C33 0.948 . S
H11 C39 0.982 . S
H12 C40 0.979 . S
H13 C40 0.980 . S
H14 C40 0.983 . S
H15 C39 0.979 . S
H16 C39 0.977 . S
C17 C5 1.453 . S
C17 H46 0.982 . S
C17 H47 0.979 . S
C17 H48 0.977 . S
C18 C5 1.684 . S
C18 H43 0.979 . S
C18 H44 0.980 . S
C18 H45 0.983 . S
C19 C20 1.391 . S
C19 C24 1.391 . S
C19 H49 0.948 . S
C20 C19 1.391 . S
C20 C21 1.391 . S
C21 C20 1.391 . S
C21 C22 1.392 . S
C21 H50 0.947 . S
C22 C21 1.392 . S
C22 C23 1.419 . S
C22 H51 0.948 . S
C23 C22 1.419 . S
C23 C24 1.391 . S
C23 C27 1.397 . S
C24 C19 1.391 . S
C24 C23 1.391 . S
C24 C25 1.399 . S
C25 C24 1.399 . S
C25 C26 1.396 . S
C25 C28 1.453 . S
C25 C29 1.684 . S
C26 C7 1.723 1_554 S
C26 C25 1.396 . S
C26 C27 1.394 . S
C27 C23 1.397 . S
C27 C26 1.394 . S
C27 C37 1.723 . S
C28 C25 1.453 . S
C28 H52 0.982 . S
C28 H53 0.979 . S
C28 H54 0.977 1_554 S
C29 C25 1.684 . S
C29 H55 0.979 . S
C29 H56 0.980 1_554 S
C29 H57 0.983 . S
C30 H6 0.948 . S
C30 C31 1.391 . S
C30 C35 1.391 . S
C31 C30 1.391 . S
C31 C32 1.391 1_554 S
C32 H9 0.947 . S
C32 C31 1.391 1_556 S
C32 C33 1.392 . S
C33 H10 0.948 . S
C33 C32 1.392 . S
C33 C34 1.419 1_556 S
C34 C33 1.419 1_554 S
C34 C35 1.391 . S
C34 C38 1.397 . S
C35 C30 1.391 . S
C35 C34 1.391 . S
C35 C36 1.399 . S
C36 C35 1.399 . S
C36 C37 1.396 . S
C36 C39 1.453 . S
C36 C40 1.684 . S
C37 C27 1.723 . S
C37 C36 1.396 . S
C37 C38 1.394 . S
C38 C8 1.723 1_554 S
C38 C34 1.397 . S
C38 C37 1.394 . S
C39 H11 0.982 . S
C39 H15 0.979 . S
C39 H16 0.977 . S
C39 C36 1.453 . S
C40 H12 0.979 . S
C40 H13 0.980 . S
C40 H14 0.983 . S
C40 C36 1.684 . S
H41 C59 0.948 . S
H42 C0 0.948 . S
H43 C18 0.979 . S
H44 C18 0.980 . S
H45 C18 0.983 . S
H46 C17 0.982 . S
H47 C17 0.979 . S
H48 C17 0.977 . S
H49 C19 0.948 . S
H50 C21 0.947 . S
H51 C22 0.948 . S
H52 C28 0.982 . S
H53 C28 0.979 . S
H54 C28 0.977 1_556 S
H55 C29 0.979 . S
H56 C29 0.980 1_556 S
H57 C29 0.983 . S
H58 C2 0.947 . S
C59 C2 1.392 . S
C59 C3 1.419 . S
C59 H41 0.948 . S
C60 C61 1.391 . S
C60 C64 1.391 . S
C60 H102 0.948 . S
C61 C60 1.391 . S
C61 C62 1.391 . S
C62 C61 1.391 . S
C62 H118 0.947 . S
C62 C119 1.392 . S
C63 C64 1.391 . S
C63 C67 1.397 . S
C63 C119 1.419 . S
C64 C60 1.391 . S
C64 C63 1.391 . S
C64 C65 1.399 . S
C65 C64 1.399 . S
C65 C68 1.396 . S
C65 C77 1.453 . S
C65 C78 1.684 . S
H66 C90 0.948 . S
C67 C63 1.397 . S
C67 C68 1.394 . S
C67 C86 1.723 . S
C68 C65 1.396 . S
C68 C67 1.394 . S
C68 C98 1.723 . S
H69 C92 0.947 . S
H70 C93 0.948 . S
H71 C99 0.982 . S
H72 C100 0.979 . S
H73 C100 0.980 . S
H74 C100 0.983 . S
H75 C99 0.979 . S
H76 C99 0.977 . S
C77 C65 1.453 . S
C77 H106 0.982 . S
C77 H107 0.979 . S
C77 H108 0.977 . S
C78 C65 1.684 . S
C78 H103 0.979 . S
C78 H104 0.980 . S
C78 H105 0.983 . S
C79 C80 1.391 . S
C79 C84 1.391 . S
C79 H109 0.948 . S
C80 C79 1.391 . S
C80 C81 1.391 . S
C81 C80 1.391 . S
C81 C82 1.392 . S
C81 H110 0.947 . S
C82 C81 1.392 . S
C82 C83 1.419 . S
C82 H111 0.948 . S
C83 C82 1.419 . S
C83 C84 1.391 . S
C83 C87 1.397 . S
C84 C79 1.391 . S
C84 C83 1.391 . S
C84 C85 1.399 . S
C85 C84 1.399 . S
C85 C86 1.396 . S
C85 C88 1.453 . S
C85 C89 1.684 . S
C86 C67 1.723 . S
C86 C85 1.396 . S
C86 C87 1.394 . S
C87 C83 1.397 . S
C87 C86 1.394 . S
C87 C97 1.723 . S
C88 C85 1.453 . S
C88 H112 0.982 . S
C88 H113 0.979 . S
C88 H114 0.977 . S
C89 C85 1.684 . S
C89 H115 0.979 . S
C89 H116 0.980 . S
C89 H117 0.983 . S
C90 H66 0.948 . S
C90 C91 1.391 . S
C90 C95 1.391 . S
C91 C90 1.391 . S
C91 C92 1.391 . S
C92 H69 0.947 . S
C92 C91 1.391 . S
C92 C93 1.392 . S
C93 H70 0.948 . S
C93 C92 1.392 . S
C93 C94 1.419 . S
C94 C93 1.419 . S
C94 C95 1.391 . S
C94 C98 1.397 . S
C95 C90 1.391 . S
C95 C94 1.391 . S
C95 C96 1.399 . S
C96 C95 1.399 . S
C96 C97 1.396 . S
C96 C99 1.453 . S
C96 C100 1.684 . S
C97 C87 1.723 . S
C97 C96 1.396 . S
C97 C98 1.394 . S
C98 C68 1.723 . S
C98 C94 1.397 . S
C98 C97 1.394 . S
C99 H71 0.982 . S
C99 H75 0.979 . S
C99 H76 0.977 . S
C99 C96 1.453 . S
C100 H72 0.979 . S
C100 H73 0.980 . S
C100 H74 0.983 . S
C100 C96 1.684 . S
H101 C119 0.948 . S
H102 C60 0.948 . S
H103 C78 0.979 . S
H104 C78 0.980 . S
H105 C78 0.983 . S
H106 C77 0.982 . S
H107 C77 0.979 . S
H108 C77 0.977 . S
H109 C79 0.948 . S
H110 C81 0.947 . S
H111 C82 0.948 . S
H112 C88 0.982 . S
H113 C88 0.979 . S
H114 C88 0.977 . S
H115 C89 0.979 . S
H116 C89 0.980 . S
H117 C89 0.983 . S
H118 C62 0.947 . S
C119 C62 1.392 . S
C119 C63 1.419 . S
C119 H101 0.948 . S
C120 C121 1.391 . S
C120 C124 1.391 . S
C120 H162 0.948 . S
C121 C120 1.391 . S
C121 C122 1.391 . S
C122 C121 1.391 . S
C122 H178 0.947 . S
C122 C179 1.392 . S
C123 C124 1.391 . S
C123 C127 1.397 . S
C123 C179 1.419 . S
C124 C120 1.391 . S
C124 C123 1.391 . S
C124 C125 1.399 . S
C125 C124 1.399 . S
C125 C128 1.396 . S
C125 C137 1.453 . S
C125 C138 1.684 . S
H126 C150 0.948 . S
C127 C123 1.397 . S
C127 C128 1.394 . S
C127 C146 1.723 . S
C128 C125 1.396 . S
C128 C127 1.394 . S
C128 C158 1.723 . S
H129 C152 0.947 . S
H130 C153 0.948 . S
H131 C159 0.982 . S
H132 C160 0.979 . S
H133 C160 0.980 . S
H134 C160 0.983 . S
H135 C159 0.979 . S
H136 C159 0.977 . S
C137 C125 1.453 . S
C137 H166 0.982 . S
C137 H167 0.979 . S
C137 H168 0.977 . S
C138 C125 1.684 . S
C138 H163 0.979 . S
C138 H164 0.980 . S
C138 H165 0.983 . S
C139 C140 1.391 . S
C139 C144 1.391 . S
C139 H169 0.948 . S
C140 C139 1.391 . S
C140 C141 1.391 . S
C141 C140 1.391 . S
C141 C142 1.392 . S
C141 H170 0.947 . S
C142 C141 1.392 . S
C142 C143 1.419 . S
C142 H171 0.948 . S
C143 C142 1.419 . S
C143 C144 1.391 . S
C143 C147 1.397 1_556 S
C144 C139 1.391 . S
C144 C143 1.391 . S
C144 C145 1.399 1_556 S
C145 C144 1.399 1_554 S
C145 C146 1.396 . S
C145 C148 1.453 . S
C145 C149 1.684 . S
C146 C127 1.723 . S
C146 C145 1.396 . S
C146 C147 1.394 . S
C147 C143 1.397 1_554 S
C147 C146 1.394 . S
C147 C157 1.723 . S
C148 C145 1.453 . S
C148 H172 0.982 . S
C148 H173 0.979 . S
C148 H174 0.977 . S
C149 C145 1.684 . S
C149 H175 0.979 . S
C149 H176 0.980 . S
C149 H177 0.983 . S
C150 H126 0.948 . S
C150 C151 1.391 1_556 S
C150 C155 1.391 1_556 S
C151 C150 1.391 1_554 S
C151 C152 1.391 . S
C152 H129 0.947 . S
C152 C151 1.391 . S
C152 C153 1.392 . S
C153 H130 0.948 . S
C153 C152 1.392 . S
C153 C154 1.419 . S
C154 C153 1.419 . S
C154 C155 1.391 . S
C154 C158 1.397 . S
C155 C150 1.391 1_554 S
C155 C154 1.391 . S
C155 C156 1.399 1_554 S
C156 C155 1.399 1_556 S
C156 C157 1.396 1_556 S
C156 C159 1.453 . S
C156 C160 1.684 . S
C157 C147 1.723 . S
C157 C156 1.396 1_554 S
C157 C158 1.394 . S
C158 C128 1.723 . S
C158 C154 1.397 . S
C158 C157 1.394 . S
C159 H131 0.982 . S
C159 H135 0.979 . S
C159 H136 0.977 . S
C159 C156 1.453 . S
C160 H132 0.979 . S
C160 H133 0.980 . S
C160 H134 0.983 . S
C160 C156 1.684 . S
H161 C179 0.948 . S
H162 C120 0.948 . S
H163 C138 0.979 . S
H164 C138 0.980 . S
H165 C138 0.983 . S
H166 C137 0.982 . S
H167 C137 0.979 . S
H168 C137 0.977 . S
H169 C139 0.948 . S
H170 C141 0.947 . S
H171 C142 0.948 . S
H172 C148 0.982 . S
H173 C148 0.979 . S
H174 C148 0.977 . S
H175 C149 0.979 . S
H176 C149 0.980 . S
H177 C149 0.983 . S
H178 C122 0.947 . S
C179 C122 1.392 . S
C179 C123 1.419 . S
C179 H161 0.948 . S
C180 C181 1.391 . S
C180 C184 1.391 . S
C180 H222 0.948 . S
C181 C180 1.391 . S
C181 C182 1.391 . S
C182 C181 1.391 . S
C182 H238 0.947 . S
C182 C239 1.392 . S
C183 C184 1.391 . S
C183 C187 1.397 . S
C183 C239 1.419 . S
C184 C180 1.391 . S
C184 C183 1.391 . S
C184 C185 1.399 . S
C185 C184 1.399 . S
C185 C188 1.396 . S
C185 C197 1.453 . S
C185 C198 1.684 . S
H186 C210 0.948 . S
C187 C183 1.397 . S
C187 C188 1.394 . S
C187 C206 1.723 . S
C188 C185 1.396 . S
C188 C187 1.394 . S
C188 C218 1.723 . S
H189 C212 0.947 . S
H190 C213 0.948 . S
H191 C219 0.982 . S
H192 C220 0.979 . S
H193 C220 0.980 . S
H194 C220 0.983 . S
H195 C219 0.979 . S
H196 C219 0.977 . S
C197 C185 1.453 . S
C197 H226 0.982 . S
C197 H227 0.979 . S
C197 H228 0.977 . S
C198 C185 1.684 . S
C198 H223 0.979 . S
C198 H224 0.980 . S
C198 H225 0.983 . S
C199 C200 1.391 . S
C199 C204 1.391 . S
C199 H229 0.948 . S
C200 C199 1.391 . S
C200 C201 1.391 . S
C201 C200 1.391 . S
C201 C202 1.392 . S
C201 H230 0.947 . S
C202 C201 1.392 . S
C202 C203 1.419 . S
C202 H231 0.948 . S
C203 C202 1.419 . S
C203 C204 1.391 . S
C203 C207 1.397 . S
C204 C199 1.391 . S
C204 C203 1.391 . S
C204 C205 1.399 . S
C205 C204 1.399 . S
C205 C206 1.396 . S
C205 C208 1.453 . S
C205 C209 1.684 . S
C206 C187 1.723 . S
C206 C205 1.396 . S
C206 C207 1.394 . S
C207 C203 1.397 . S
C207 C206 1.394 . S
C207 C217 1.723 . S
C208 C205 1.453 . S
C208 H232 0.982 . S
C208 H233 0.979 . S
C208 H234 0.977 . S
C209 C205 1.684 . S
C209 H235 0.979 . S
C209 H236 0.980 . S
C209 H237 0.983 . S
C210 H186 0.948 . S
C210 C211 1.391 . S
C210 C215 1.391 . S
C211 C210 1.391 . S
C211 C212 1.391 . S
C212 H189 0.947 . S
C212 C211 1.391 . S
C212 C213 1.392 . S
C213 H190 0.948 . S
C213 C212 1.392 . S
C213 C214 1.419 . S
C214 C213 1.419 . S
C214 C215 1.391 . S
C214 C218 1.397 . S
C215 C210 1.391 . S
C215 C214 1.391 . S
C215 C216 1.399 . S
C216 C215 1.399 . S
C216 C217 1.396 . S
C216 C219 1.453 . S
C216 C220 1.684 . S
C217 C207 1.723 . S
C217 C216 1.396 . S
C217 C218 1.394 . S
C218 C188 1.723 . S
C218 C214 1.397 . S
C218 C217 1.394 . S
C219 H191 0.982 . S
C219 H195 0.979 . S
C219 H196 0.977 . S
C219 C216 1.453 . S
C220 H192 0.979 . S
C220 H193 0.980 . S
C220 H194 0.983 . S
C220 C216 1.684 . S
H221 C239 0.948 . S
H222 C180 0.948 . S
H223 C198 0.979 . S
H224 C198 0.980 . S
H225 C198 0.983 . S
H226 C197 0.982 . S
H227 C197 0.979 . S
H228 C197 0.977 . S
H229 C199 0.948 . S
H230 C201 0.947 . S
H231 C202 0.948 . S
H232 C208 0.982 . S
H233 C208 0.979 . S
H234 C208 0.977 . S
H235 C209 0.979 . S
H236 C209 0.980 . S
H237 C209 0.983 . S
H238 C182 0.947 . S
C239 C182 1.392 . S
C239 C183 1.419 . S
C239 H221 0.948 . S
C240 C242 1.422 . S
C240 C244 1.415 . S
C240 N246 1.369 . S
C241 C242 1.421 . S
C241 C243 1.417 . S
C241 C253 1.422 . S
C242 C240 1.422 . S
C242 C241 1.421 . S
C242 N252 1.359 . S
C243 C241 1.417 . S
C243 C245 1.329 . S
C243 H262 0.930 . S
C244 C240 1.415 . S
C244 C245 1.437 . S
C244 C248 1.413 . S
C245 C243 1.329 . S
C245 C244 1.437 . S
C245 H267 0.929 . S
N246 C240 1.369 . S
N246 C247 1.323 1_655 S
N246 Gd251 2.622 . S
C247 N246 1.323 1_455 S
C247 C249 1.378 1_455 S
C247 H259 0.945 . S
C248 C244 1.413 . S
C248 C249 1.348 . S
C248 H264 0.931 . S
C249 C247 1.378 1_655 S
C249 C248 1.348 . S
C249 H265 0.930 1_655 S
Gd250 N270 2.622 . S
Gd250 N277 2.570 . S
Gd250 O284 2.353 1_455 S
Gd250 O285 2.468 . S
Gd250 O286 2.427 . S
Gd250 O288 2.388 1_455 S
Gd250 O289 2.386 . S
Gd250 O293 2.307 1_565 S
Gd250 C303 2.805 . S
Gd251 N246 2.622 . S
Gd251 N252 2.570 . S
Gd251 O283 2.386 . S
Gd251 O287 2.307 1_545 S
Gd251 O290 2.353 1_655 S
Gd251 O291 2.468 . S
Gd251 O292 2.427 . S
Gd251 O294 2.388 1_655 S
Gd251 C315 2.805 . S
N252 C242 1.359 . S
N252 Gd251 2.570 . S
N252 C254 1.343 . S
C253 C241 1.422 . S
C253 C255 1.321 . S
C253 H261 0.931 . S
C254 N252 1.343 . S
C254 C255 1.390 . S
C254 H256 0.931 . S
C255 C253 1.321 . S
C255 C254 1.390 . S
C255 H257 0.930 . S
H256 C254 0.931 . S
H257 C255 0.930 . S
H258 C281 0.931 . S
H259 C247 0.945 . S
H260 C282 0.930 . S
H261 C253 0.931 . S
H262 C243 0.930 . S
H263 C272 0.929 1_655 S
H264 C248 0.931 . S
H265 C249 0.930 1_455 S
H266 C304 0.930 . S
H267 C245 0.929 . S
H268 C273 0.931 . S
H269 C274 0.930 1_655 S
N270 Gd250 2.622 . S
N270 C271 1.369 . S
N270 C272 1.338 . S
C271 N270 1.369 . S
C271 C275 1.415 . S
C271 C278 1.422 . S
C272 H263 0.929 1_455 S
C272 N270 1.338 . S
C272 C274 1.378 . S
C273 H268 0.931 . S
C273 C274 1.348 . S
C273 C275 1.413 . S
C274 H269 0.930 1_455 S
C274 C272 1.378 . S
C274 C273 1.348 . S
C275 C271 1.415 . S
C275 C273 1.413 . S
C275 C305 1.437 . S
H276 C305 0.929 . S
N277 Gd250 2.570 . S
N277 C278 1.359 . S
N277 C281 1.343 . S
C278 C271 1.422 . S
C278 N277 1.359 . S
C278 C280 1.421 . S
C279 C280 1.422 . S
C279 C282 1.321 . S
C279 H306 0.931 . S
C280 C278 1.421 . S
C280 C279 1.422 . S
C280 C304 1.417 . S
C281 H258 0.931 . S
C281 N277 1.343 . S
C281 C282 1.390 . S
C282 H260 0.930 . S
C282 C279 1.321 . S
C282 C281 1.390 . S
O283 Gd251 2.386 . S
O283 C295 1.265 . S
O284 Gd250 2.353 1_655 S
O284 C295 1.242 1_565 S
O285 Gd250 2.468 . S
O285 C303 1.263 . S
O286 Gd250 2.427 . S
O286 C303 1.252 . S
O287 Gd251 2.307 1_565 S
O287 C296 1.261 . S
O288 Gd250 2.388 1_655 S
O288 C296 1.252 . S
O289 Gd250 2.386 . S
O289 C307 1.265 . S
O290 Gd251 2.353 1_455 S
O290 C307 1.242 1_545 S
O291 Gd251 2.468 . S
O291 C315 1.263 . S
O292 Gd251 2.427 . S
O292 C315 1.252 . S
O293 Gd250 2.307 1_545 S
O293 C308 1.261 . S
O294 Gd251 2.388 1_455 S
O294 C308 1.252 . S
C295 O283 1.265 . S
C295 O284 1.242 1_545 S
C296 O287 1.261 . S
C296 O288 1.252 . S
C297 C300 1.394 . S
C297 C302 1.370 . S
C297 C303 1.500 . S
C298 C301 1.383 . S
C298 C302 1.395 . S
C299 C300 1.396 . S
C299 C301 1.365 . S
C299 H316 0.929 . S
C300 C297 1.394 . S
C300 C299 1.396 . S
C300 H317 0.930 . S
C301 C298 1.383 . S
C301 C299 1.365 . S
C301 H318 0.931 . S
C302 C297 1.370 . S
C302 C298 1.395 . S
C302 H319 0.930 . S
C303 Gd250 2.805 . S
C303 O285 1.263 . S
C303 O286 1.252 . S
C303 C297 1.500 . S
C304 H266 0.930 . S
C304 C280 1.417 . S
C304 C305 1.329 . S
C305 C275 1.437 . S
C305 H276 0.929 . S
C305 C304 1.329 . S
H306 C279 0.931 . S
C307 O289 1.265 . S
C307 O290 1.242 1_565 S
C308 O293 1.261 . S
C308 O294 1.252 . S
C309 C312 1.394 . S
C309 C314 1.370 . S
C309 C315 1.500 . S
C310 C313 1.383 . S
C310 C314 1.395 . S
C311 C312 1.396 . S
C311 C313 1.365 . S
C311 H320 0.929 . S
C312 C309 1.394 . S
C312 C311 1.396 . S
C312 H321 0.930 . S
C313 C310 1.383 . S
C313 C311 1.365 . S
C313 H322 0.931 . S
C314 C309 1.370 . S
C314 C310 1.395 . S
C314 H323 0.930 . S
C315 Gd251 2.805 . S
C315 O291 1.263 . S
C315 O292 1.252 . S
C315 C309 1.500 . S
H316 C299 0.929 . S
H317 C300 0.930 . S
H318 C301 0.931 . S
H319 C302 0.930 . S
H320 C311 0.929 . S
H321 C312 0.930 . S
H322 C313 0.931 . S
H323 C314 0.930 . S
C324 C326 1.422 . S
C324 C328 1.415 . S
C324 N330 1.369 . S
C325 C326 1.421 . S
C325 C327 1.417 . S
C325 C337 1.422 . S
C326 C324 1.422 . S
C326 C325 1.421 . S
C326 N336 1.359 . S
C327 C325 1.417 . S
C327 C329 1.329 . S
C327 H346 0.930 . S
C328 C324 1.415 . S
C328 C329 1.437 . S
C328 C332 1.413 . S
C329 C327 1.329 . S
C329 C328 1.437 . S
C329 H351 0.929 . S
N330 C324 1.369 . S
N330 C331 1.338 . S
N330 Gd335 2.622 . S
C331 N330 1.338 . S
C331 C333 1.378 . S
C331 H343 0.929 . S
C332 C328 1.413 . S
C332 C333 1.348 . S
C332 H348 0.931 . S
C333 C331 1.378 . S
C333 C332 1.348 . S
C333 H349 0.930 . S
Gd334 N354 2.622 . S
Gd334 N361 2.570 1_556 S
Gd334 O368 2.353 . S
Gd334 O369 2.468 . S
Gd334 O370 2.427 . S
Gd334 O372 2.388 . S
Gd334 O373 2.386 1_556 S
Gd334 O377 2.307 1_556 S
Gd334 C387 2.805 . S
Gd335 N330 2.622 . S
Gd335 N336 2.570 . S
Gd335 O367 2.386 1_554 S
Gd335 O371 2.307 . S
Gd335 O374 2.353 . S
Gd335 O375 2.468 . S
Gd335 O376 2.427 . S
Gd335 O378 2.388 . S
Gd335 C399 2.805 . S
N336 C326 1.359 . S
N336 Gd335 2.570 . S
N336 C338 1.343 . S
C337 C325 1.422 . S
C337 C339 1.321 . S
C337 H345 0.931 . S
C338 N336 1.343 . S
C338 C339 1.390 . S
C338 H340 0.931 . S
C339 C337 1.321 . S
C339 C338 1.390 . S
C339 H341 0.930 . S
H340 C338 0.931 . S
H341 C339 0.930 . S
H342 C365 0.931 . S
H343 C331 0.929 . S
H344 C366 0.930 . S
H345 C337 0.931 . S
H346 C327 0.930 . S
H347 C356 0.929 . S
H348 C332 0.931 . S
H349 C333 0.930 . S
H350 C388 0.930 . S
H351 C329 0.929 . S
H352 C357 0.931 . S
H353 C358 0.930 . S
N354 Gd334 2.622 . S
N354 C355 1.369 1_556 S
N354 C356 1.338 . S
C355 N354 1.369 1_554 S
C355 C359 1.415 . S
C355 C362 1.422 . S
C356 H347 0.929 . S
C356 N354 1.338 . S
C356 C358 1.378 . S
C357 H352 0.931 . S
C357 C358 1.348 1_554 S
C357 C359 1.413 . S
C358 H353 0.930 . S
C358 C356 1.378 . S
C358 C357 1.348 1_556 S
C359 C355 1.415 . S
C359 C357 1.413 . S
C359 C389 1.437 . S
H360 C389 0.929 . S
N361 Gd334 2.570 1_554 S
N361 C362 1.359 . S
N361 C365 1.343 . S
C362 C355 1.422 . S
C362 N361 1.359 . S
C362 C364 1.421 . S
C363 C364 1.422 . S
C363 C366 1.321 . S
C363 H390 0.931 . S
C364 C362 1.421 . S
C364 C363 1.422 . S
C364 C388 1.417 . S
C365 H342 0.931 . S
C365 N361 1.343 . S
C365 C366 1.390 . S
C366 H344 0.930 . S
C366 C363 1.321 . S
C366 C365 1.390 . S
O367 Gd335 2.386 1_556 S
O367 C379 1.265 . S
O368 Gd334 2.353 . S
O368 C379 1.242 . S
O369 Gd334 2.468 . S
O369 C387 1.263 . S
O370 Gd334 2.427 . S
O370 C387 1.252 . S
O371 Gd335 2.307 . S
O371 C380 1.261 . S
O372 Gd334 2.388 . S
O372 C380 1.252 1_556 S
O373 Gd334 2.386 1_554 S
O373 C391 1.265 . S
O374 Gd335 2.353 . S
O374 C391 1.242 . S
O375 Gd335 2.468 . S
O375 C399 1.263 . S
O376 Gd335 2.427 . S
O376 C399 1.252 . S
O377 Gd334 2.307 1_554 S
O377 C392 1.261 . S
O378 Gd335 2.388 . S
O378 C392 1.252 . S
C379 O367 1.265 . S
C379 O368 1.242 . S
C380 O371 1.261 . S
C380 O372 1.252 1_554 S
C381 C384 1.394 . S
C381 C386 1.370 . S
C381 C387 1.500 . S
C382 C385 1.383 . S
C382 C386 1.395 . S
C383 C384 1.396 . S
C383 C385 1.365 . S
C383 H400 0.929 . S
C384 C381 1.394 . S
C384 C383 1.396 . S
C384 H401 0.930 . S
C385 C382 1.383 . S
C385 C383 1.365 . S
C385 H402 0.931 . S
C386 C381 1.370 . S
C386 C382 1.395 . S
C386 H403 0.930 . S
C387 Gd334 2.805 . S
C387 O369 1.263 . S
C387 O370 1.252 . S
C387 C381 1.500 . S
C388 H350 0.930 . S
C388 C364 1.417 . S
C388 C389 1.329 . S
C389 C359 1.437 . S
C389 H360 0.929 . S
C389 C388 1.329 . S
H390 C363 0.931 . S
C391 O373 1.265 . S
C391 O374 1.242 . S
C392 O377 1.261 . S
C392 O378 1.252 . S
C393 C396 1.394 . S
C393 C398 1.370 . S
C393 C399 1.500 . S
C394 C397 1.383 . S
C394 C398 1.395 . S
C395 C396 1.396 . S
C395 C397 1.365 . S
C395 H404 0.929 . S
C396 C393 1.394 . S
C396 C395 1.396 . S
C396 H405 0.930 . S
C397 C394 1.383 . S
C397 C395 1.365 . S
C397 H406 0.931 . S
C398 C393 1.370 . S
C398 C394 1.395 . S
C398 H407 0.930 . S
C399 Gd335 2.805 . S
C399 O375 1.263 . S
C399 O376 1.252 . S
C399 C393 1.500 . S
H400 C383 0.929 . S
H401 C384 0.930 . S
H402 C385 0.931 . S
H403 C386 0.930 . S
H404 C395 0.929 . S
H405 C396 0.930 . S
H406 C397 0.931 . S
H407 C398 0.930 . S
H408 C414 0.930 . S
H409 C418 0.930 . S
H410 C423 0.929 . S
H411 C421 0.929 . S
H412 C416 0.929 . S
H413 C422 0.929 . S
C414 H408 0.930 . S
C414 C415 1.367 . S
C414 C422 1.378 . S
C415 C414 1.367 . S
C415 C423 1.433 . S
C416 H412 0.929 . S
C416 C418 1.378 . S
C416 C420 1.350 . S
C417 C420 1.463 . S
C417 C422 1.350 . S
C417 N425 1.427 . S
C418 H409 0.930 . S
C418 C416 1.378 . S
C418 C419 1.367 . S
C419 C418 1.367 . S
C419 C421 1.433 . S
C420 C416 1.350 . S
C420 C417 1.463 . S
C420 N424 1.427 . S
C421 H411 0.929 . S
C421 C419 1.433 . S
C421 N424 1.384 . S
C422 H413 0.929 . S
C422 C414 1.378 . S
C422 C417 1.350 . S
C423 H410 0.929 . S
C423 C415 1.433 . S
C423 N425 1.384 . S
N424 C420 1.427 . S
N424 C421 1.384 . S
N425 C417 1.427 . S
N425 C423 1.384 . S
H426 C432 0.930 1_556 S
H427 C436 0.930 . S
H428 C441 0.929 . S
H429 C439 0.929 . S
H430 C434 0.929 . S
H431 C440 0.929 1_556 S
C432 H426 0.930 1_554 S
C432 C433 1.367 . S
C432 C440 1.378 . S
C433 C432 1.367 . S
C433 C441 1.433 . S
C434 H430 0.929 . S
C434 C436 1.378 . S
C434 C438 1.350 . S
C435 C438 1.463 . S
C435 C440 1.350 . S
C435 N443 1.427 . S
C436 H427 0.930 . S
C436 C434 1.378 . S
C436 C437 1.367 . S
C437 C436 1.367 . S
C437 C439 1.433 1_554 S
C438 C434 1.350 . S
C438 C435 1.463 . S
C438 N442 1.426 1_554 S
C439 H429 0.929 . S
C439 C437 1.433 1_556 S
C439 N442 1.384 . S
C440 H431 0.929 1_554 S
C440 C432 1.378 . S
C440 C435 1.350 . S
C441 H428 0.929 . S
C441 C433 1.433 . S
C441 N443 1.384 . S
N442 C438 1.426 1_556 S
N442 C439 1.384 . S
N443 C435 1.427 . S
N443 C441 1.384 . S
H444 C450 0.930 . S
H445 C454 0.930 . S
H446 C459 0.929 . S
H447 C457 0.929 . S
H448 C452 0.929 . S
H449 C458 0.929 . S
C450 H444 0.930 . S
C450 C451 1.367 . S
C450 C458 1.378 . S
C451 C450 1.367 . S
C451 C459 1.433 . S
C452 H448 0.929 . S
C452 C454 1.378 . S
C452 C456 1.350 . S
C453 C456 1.463 . S
C453 C458 1.350 . S
C453 N461 1.427 . S
C454 H445 0.930 . S
C454 C452 1.378 . S
C454 C455 1.367 . S
C455 C454 1.367 . S
C455 C457 1.433 . S
C456 C452 1.350 . S
C456 C453 1.463 . S
C456 N460 1.427 . S
C457 H447 0.929 . S
C457 C455 1.433 . S
C457 N460 1.384 . S
C458 H449 0.929 . S
C458 C450 1.378 . S
C458 C453 1.350 . S
C459 H446 0.929 . S
C459 C451 1.433 . S
C459 N461 1.384 . S
N460 C456 1.427 . S
N460 C457 1.384 . S
N461 C453 1.427 . S
N461 C459 1.384 . S
H462 C468 0.930 . S
H463 C472 0.930 . S
H464 C477 0.929 . S
H465 C475 0.929 . S
H466 C470 0.929 . S
H467 C476 0.929 . S
C468 H462 0.930 . S
C468 C469 1.367 . S
C468 C476 1.378 . S
C469 C468 1.367 . S
C469 C477 1.433 1_554 S
C470 H466 0.929 . S
C470 C472 1.378 . S
C470 C474 1.350 1_556 S
C471 C474 1.463 . S
C471 C476 1.350 . S
C471 N479 1.427 1_554 S
C472 H463 0.930 . S
C472 C470 1.378 . S
C472 C473 1.367 1_556 S
C473 C472 1.367 1_554 S
C473 C475 1.433 . S
C474 C470 1.350 1_554 S
C474 C471 1.463 . S
C474 N478 1.427 . S
C475 H465 0.929 . S
C475 C473 1.433 . S
C475 N478 1.384 . S
C476 H467 0.929 . S
C476 C468 1.378 . S
C476 C471 1.350 . S
C477 H464 0.929 . S
C477 C469 1.433 1_556 S
C477 N479 1.384 . S
N478 C474 1.427 . S
N478 C475 1.384 . S
N479 C471 1.427 1_556 S
N479 C477 1.384 . S
H480 C486 0.930 . S
H481 C490 0.930 1_545 S
H482 C495 0.929 . S
H483 C493 0.929 . S
H484 C488 0.929 . S
H485 C494 0.929 . S
C486 H480 0.930 . S
C486 C487 1.367 . S
C486 C494 1.378 . S
C487 C486 1.367 . S
C487 C495 1.433 . S
C488 H484 0.929 . S
C488 C490 1.378 . S
C488 C492 1.350 . S
C489 C492 1.463 . S
C489 C494 1.350 . S
C489 N497 1.427 . S
C490 H481 0.930 1_565 S
C490 C488 1.378 . S
C490 C491 1.367 . S
C491 C490 1.367 . S
C491 C493 1.433 . S
C492 C488 1.350 . S
C492 C489 1.463 . S
C492 N496 1.427 . S
C493 H483 0.929 . S
C493 C491 1.433 . S
C493 N496 1.384 . S
C494 H485 0.929 . S
C494 C486 1.378 . S
C494 C489 1.350 . S
C495 H482 0.929 . S
C495 C487 1.433 . S
C495 N497 1.384 . S
N496 C492 1.427 . S
N496 C493 1.384 . S
N497 C489 1.427 . S
N497 C495 1.384 . S
H498 C504 0.930 . S
H499 C508 0.930 . S
H500 C513 0.929 . S
H501 C511 0.929 . S
H502 C506 0.929 . S
H503 C512 0.929 . S
C504 H498 0.930 . S
C504 C505 1.367 . S
C504 C512 1.378 . S
C505 C504 1.367 . S
C505 C513 1.433 . S
C506 H502 0.929 . S
C506 C508 1.378 . S
C506 C510 1.350 . S
C507 C510 1.463 . S
C507 C512 1.350 . S
C507 N515 1.427 . S
C508 H499 0.930 . S
C508 C506 1.378 . S
C508 C509 1.367 . S
C509 C508 1.367 . S
C509 C511 1.433 . S
C510 C506 1.350 . S
C510 C507 1.463 . S
C510 N514 1.427 . S
C511 H501 0.929 . S
C511 C509 1.433 . S
C511 N514 1.384 . S
C512 H503 0.929 . S
C512 C504 1.378 . S
C512 C507 1.350 . S
C513 H500 0.929 . S
C513 C505 1.433 . S
C513 N515 1.384 . S
N514 C510 1.427 . S
N514 C511 1.384 . S
N515 C507 1.427 . S
N515 C513 1.384 . S
H516 C522 0.930 . S
H517 C526 0.930 1_565 S
H518 C531 0.929 . S
H519 C529 0.929 . S
H520 C524 0.929 1_565 S
H521 C530 0.929 . S
C522 H516 0.930 . S
C522 C523 1.367 . S
C522 C530 1.378 . S
C523 C522 1.367 . S
C523 C531 1.433 . S
C524 H520 0.929 1_545 S
C524 C526 1.378 . S
C524 C528 1.350 . S
C525 C528 1.463 . S
C525 C530 1.350 . S
C525 N533 1.427 . S
C526 H517 0.930 1_545 S
C526 C524 1.378 . S
C526 C527 1.367 . S
C527 C526 1.367 . S
C527 C529 1.433 . S
C528 C524 1.350 . S
C528 C525 1.463 . S
C528 N532 1.427 . S
C529 H519 0.929 . S
C529 C527 1.433 . S
C529 N532 1.384 . S
C530 H521 0.929 . S
C530 C522 1.378 . S
C530 C525 1.350 . S
C531 H518 0.929 . S
C531 C523 1.433 . S
C531 N533 1.384 . S
N532 C528 1.427 . S
N532 C529 1.384 . S
N533 C525 1.427 . S
N533 C531 1.384 . S
H534 C540 0.930 . S
H535 C544 0.930 . S
H536 C549 0.929 . S
H537 C547 0.929 . S
H538 C542 0.929 . S
H539 C548 0.929 . S
C540 H534 0.930 . S
C540 C541 1.367 . S
C540 C548 1.378 . S
C541 C540 1.367 . S
C541 C549 1.433 . S
C542 H538 0.929 . S
C542 C544 1.378 . S
C542 C546 1.350 . S
C543 C546 1.463 . S
C543 C548 1.350 . S
C543 N551 1.427 . S
C544 H535 0.930 . S
C544 C542 1.378 . S
C544 C545 1.367 . S
C545 C544 1.367 . S
C545 C547 1.433 . S
C546 C542 1.350 . S
C546 C543 1.463 . S
C546 N550 1.427 . S
C547 H537 0.929 . S
C547 C545 1.433 . S
C547 N550 1.384 . S
C548 H539 0.929 . S
C548 C540 1.378 . S
C548 C543 1.350 . S
C549 H536 0.929 . S
C549 C541 1.433 . S
C549 N551 1.384 . S
N550 C546 1.427 . S
N550 C547 1.384 . S
N551 C543 1.427 . S
N551 C549 1.384 . S
H552 C558 0.930 . S
H553 C562 0.930 . S
H554 C567 0.929 . S
H555 C565 0.929 . S
H556 C560 0.929 . S
H557 C566 0.929 . S
C558 H552 0.930 . S
C558 C559 1.367 . S
C558 C566 1.378 . S
C559 C558 1.367 . S
C559 C567 1.433 . S
C560 H556 0.929 . S
C560 C562 1.378 . S
C560 C564 1.350 . S
C561 C564 1.463 . S
C561 C566 1.350 . S
C561 N569 1.427 . S
C562 H553 0.930 . S
C562 C560 1.378 . S
C562 C563 1.367 . S
C563 C562 1.367 . S
C563 C565 1.433 . S
C564 C560 1.350 . S
C564 C561 1.463 . S
C564 N568 1.427 . S
C565 H555 0.929 . S
C565 C563 1.433 . S
C565 N568 1.384 . S
C566 H557 0.929 . S
C566 C558 1.378 . S
C566 C561 1.350 . S
C567 H554 0.929 . S
C567 C559 1.433 . S
C567 N569 1.384 . S
N568 C564 1.427 . S
N568 C565 1.384 . S
N569 C561 1.427 . S
N569 C567 1.384 . S
H570 C576 0.930 . S
H571 C580 0.930 . S
H572 C585 0.929 . S
H573 C583 0.929 . S
H574 C578 0.929 . S
H575 C584 0.929 . S
C576 H570 0.930 . S
C576 C577 1.367 . S
C576 C584 1.378 . S
C577 C576 1.367 . S
C577 C585 1.433 . S
C578 H574 0.929 . S
C578 C580 1.378 . S
C578 C582 1.350 . S
C579 C582 1.463 . S
C579 C584 1.350 . S
C579 N587 1.427 . S
C580 H571 0.930 . S
C580 C578 1.378 . S
C580 C581 1.367 . S
C581 C580 1.367 . S
C581 C583 1.433 . S
C582 C578 1.350 . S
C582 C579 1.463 . S
C582 N586 1.427 . S
C583 H573 0.929 . S
C583 C581 1.433 . S
C583 N586 1.384 . S
C584 H575 0.929 . S
C584 C576 1.378 . S
C584 C579 1.350 . S
C585 H572 0.929 . S
C585 C577 1.433 . S
C585 N587 1.384 . S
N586 C582 1.427 . S
N586 C583 1.384 . S
N587 C579 1.427 . S
N587 C585 1.384 . S
H588 C594 0.930 . S
H589 C598 0.930 . S
H590 C603 0.929 . S
H591 C601 0.929 . S
H592 C596 0.929 . S
H593 C602 0.929 . S
C594 H588 0.930 . S
C594 C595 1.367 . S
C594 C602 1.378 . S
C595 C594 1.367 . S
C595 C603 1.433 . S
C596 H592 0.929 . S
C596 C598 1.378 . S
C596 C600 1.350 . S
C597 C600 1.463 . S
C597 C602 1.350 . S
C597 N605 1.427 . S
C598 H589 0.930 . S
C598 C596 1.378 . S
C598 C599 1.367 . S
C599 C598 1.367 . S
C599 C601 1.433 . S
C600 C596 1.350 . S
C600 C597 1.463 . S
C600 N604 1.427 . S
C601 H591 0.929 . S
C601 C599 1.433 . S
C601 N604 1.384 . S
C602 H593 0.929 . S
C602 C594 1.378 . S
C602 C597 1.350 . S
C603 H590 0.929 . S
C603 C595 1.433 . S
C603 N605 1.384 . S
N604 C600 1.427 . S
N604 C601 1.384 . S
N605 C597 1.427 . S
N605 C603 1.384 . S
H606 C612 0.930 . S
H607 C616 0.930 1_545 S
H608 C621 0.929 . S
H609 C619 0.929 . S
H610 C614 0.929 1_545 S
H611 C620 0.929 . S
C612 H606 0.930 . S
C612 C613 1.367 . S
C612 C620 1.378 . S
C613 C612 1.367 . S
C613 C621 1.433 . S
C614 H610 0.929 1_565 S
C614 C616 1.378 . S
C614 C618 1.350 . S
C615 C618 1.463 . S
C615 C620 1.350 . S
C615 N623 1.427 . S
C616 H607 0.930 1_565 S
C616 C614 1.378 . S
C616 C617 1.367 . S
C617 C616 1.367 . S
C617 C619 1.433 . S
C618 C614 1.350 . S
C618 C615 1.463 . S
C618 N622 1.427 . S
C619 H609 0.929 . S
C619 C617 1.433 . S
C619 N622 1.384 . S
C620 H611 0.929 . S
C620 C612 1.378 . S
C620 C615 1.350 . S
C621 H608 0.929 . S
C621 C613 1.433 . S
C621 N623 1.384 . S
N622 C618 1.427 . S
N622 C619 1.384 . S
N623 C615 1.427 . S
N623 C621 1.384 . S
C419 C308 1.625 . S
C415 C211 1.611 . S
C433 C31 1.543 . S
C437 C380 1.621 . S
C451 C91 1.644 . S
C455 C296 1.622 . S
C469 C151 1.587 . S
C473 C392 1.621 . S
C491 C298 1.423 . S
C487 C20 1.516 . S
C509 C379 1.607 . S
C505 C61 1.566 . S
C523 C121 1.605 . S
C527 C295 1.616 . S
C541 C200 1.496 . S
C545 C382 1.386 . S
C563 C394 1.397 . S
C559 C80 1.502 . S
C581 C310 1.403 . S
C577 C140 1.547 . S
C599 C391 1.608 . S
C595 C181 1.531 . S
C613 C1 1.558 . S
C617 C307 1.615 . S
