# Generated by pormake.
# Topology pyr, (3,6)-cn, num edge types: 1
# Building blocks:
#     Node 0, Type 0, BuildingBlock: VETTIZ_charged_linker_0, # of connection points: 3
#     Node 1, Type 0, BuildingBlock: VETTIZ_charged_linker_0, # of connection points: 3
#     Node 2, Type 0, BuildingBlock: VETTIZ_charged_linker_0, # of connection points: 3
#     Node 3, Type 0, BuildingBlock: VETTIZ_charged_linker_0, # of connection points: 3
#     Node 4, Type 0, BuildingBlock: VETTIZ_charged_linker_0, # of connection points: 3
#     Node 5, Type 0, BuildingBlock: VETTIZ_charged_linker_0, # of connection points: 3
#     Node 6, Type 0, BuildingBlock: VETTIZ_charged_linker_0, # of connection points: 3
#     Node 7, Type 0, BuildingBlock: VETTIZ_charged_linker_0, # of connection points: 3
#     Node 8, Type 1, BuildingBlock: LEVNOQ01_clean_sbu_1, # of connection points: 6
#     Node 9, Type 1, BuildingBlock: LEVNOQ01_clean_sbu_1, # of connection points: 6
#     Node 10, Type 1, BuildingBlock: LEVNOQ01_clean_sbu_1, # of connection points: 6
#     Node 11, Type 1, BuildingBlock: LEVNOQ01_clean_sbu_1, # of connection points: 6
#     Edge 12, Type (0, 1), BuildingBlock: AJUNOK_clean_linker_0, # of connection points: 2
#     Edge 13, Type (0, 1), BuildingBlock: AJUNOK_clean_linker_0, # of connection points: 2
#     Edge 14, Type (0, 1), BuildingBlock: AJUNOK_clean_linker_0, # of connection points: 2
#     Edge 15, Type (0, 1), BuildingBlock: AJUNOK_clean_linker_0, # of connection points: 2
#     Edge 16, Type (0, 1), BuildingBlock: AJUNOK_clean_linker_0, # of connection points: 2
#     Edge 17, Type (0, 1), BuildingBlock: AJUNOK_clean_linker_0, # of connection points: 2
#     Edge 18, Type (0, 1), BuildingBlock: AJUNOK_clean_linker_0, # of connection points: 2
#     Edge 19, Type (0, 1), BuildingBlock: AJUNOK_clean_linker_0, # of connection points: 2
#     Edge 20, Type (0, 1), BuildingBlock: AJUNOK_clean_linker_0, # of connection points: 2
#     Edge 21, Type (0, 1), BuildingBlock: AJUNOK_clean_linker_0, # of connection points: 2
#     Edge 22, Type (0, 1), BuildingBlock: AJUNOK_clean_linker_0, # of connection points: 2
#     Edge 23, Type (0, 1), BuildingBlock: AJUNOK_clean_linker_0, # of connection points: 2
#     Edge 24, Type (0, 1), BuildingBlock: AJUNOK_clean_linker_0, # of connection points: 2
#     Edge 25, Type (0, 1), BuildingBlock: AJUNOK_clean_linker_0, # of connection points: 2
#     Edge 26, Type (0, 1), BuildingBlock: AJUNOK_clean_linker_0, # of connection points: 2
#     Edge 27, Type (0, 1), BuildingBlock: AJUNOK_clean_linker_0, # of connection points: 2
#     Edge 28, Type (0, 1), BuildingBlock: AJUNOK_clean_linker_0, # of connection points: 2
#     Edge 29, Type (0, 1), BuildingBlock: AJUNOK_clean_linker_0, # of connection points: 2
#     Edge 30, Type (0, 1), BuildingBlock: AJUNOK_clean_linker_0, # of connection points: 2
#     Edge 31, Type (0, 1), BuildingBlock: AJUNOK_clean_linker_0, # of connection points: 2
#     Edge 32, Type (0, 1), BuildingBlock: AJUNOK_clean_linker_0, # of connection points: 2
#     Edge 33, Type (0, 1), BuildingBlock: AJUNOK_clean_linker_0, # of connection points: 2
#     Edge 34, Type (0, 1), BuildingBlock: AJUNOK_clean_linker_0, # of connection points: 2
#     Edge 35, Type (0, 1), BuildingBlock: AJUNOK_clean_linker_0, # of connection points: 2
# Relax obj value: 0.035
# Max RMSD: 0.111
# Mean RMSD: 0.047
data_MOF--net-pry--node1-LEVNOQ01_clean_sbu_1--node2-VETTIZ_charged_linker_0--edge1-AJUNOK_clean_linker_0
_symmetry_space_group_name_H-M    P1
_symmetry_Int_Tables_number       1
_symmetry_cell_setting            triclinic
loop_
_symmetry_equiv_pos_as_xyz
'x, y, z'
_cell_length_a     35.679326
_cell_length_b     34.473863
_cell_length_c     34.41116
_cell_angle_alpha  92.239867
_cell_angle_beta   91.20095
_cell_angle_gamma 93.861266
loop_
_atom_site_label
_atom_site_type_symbol
_atom_site_fract_x
_atom_site_fract_y
_atom_site_fract_z
_atom_type_partial_charge
C0 C 0.12116 0.10208 0.26406 0.0
C1 C 0.09051 0.11668 0.28369 0.0
C2 C 0.0741 0.14953 0.2694 0.0
C3 C 0.11568 0.15014 0.21455 0.0
C4 C 0.13322 0.11922 0.22958 0.0
C5 C 0.16456 0.10682 0.20414 0.0
H6 H 0.26702 0.1325 0.04187 0.0
C7 C 0.13311 0.15963 0.17708 0.0
C8 C 0.16196 0.13444 0.17086 0.0
H9 H 0.28539 0.05385 0.13401 0.0
H10 H 0.22934 0.07354 0.16567 0.0
H11 H 0.24887 0.20379 0.09653 0.0
H12 H 0.17505 0.11624 0.03617 0.0
H13 H 0.15488 0.16105 0.03215 0.0
H14 H 0.20009 0.15435 0.01126 0.0
H15 H 0.2421 0.2019 0.04463 0.0
H16 H 0.21127 0.22712 0.07614 0.0
C17 C 0.20199 0.11411 0.22774 0.0
C18 C 0.15546 0.06391 0.19021 0.0
C19 C 0.08121 0.26505 0.09562 0.0
C20 C 0.09042 0.27977 0.05913 0.0
C21 C 0.1202 0.26411 0.0388 0.0
C22 C 0.14013 0.2342 0.05427 0.0
C23 C 0.13043 0.21974 0.0907 0.0
C24 C 0.10128 0.23512 0.11063 0.0
C25 C 0.09472 0.21623 0.14886 0.0
C26 C 0.12473 0.18695 0.14869 0.0
C27 C 0.14563 0.18915 0.11459 0.0
C28 C 0.10174 0.24779 0.18204 0.0
C29 C 0.05456 0.19602 0.14727 0.0
C30 C 0.25889 0.11946 0.06883 0.0
C31 C 0.28096 0.09198 0.08577 0.0
C32 C 0.26891 0.07508 0.1204 0.0
C33 C 0.2366 0.08692 0.13896 0.0
C34 C 0.21605 0.11607 0.12278 0.0
C35 C 0.227 0.13131 0.0879 0.0
C36 C 0.20238 0.16251 0.07523 0.0
C37 C 0.17539 0.16423 0.10867 0.0
C38 C 0.18342 0.13691 0.1365 0.0
C39 C 0.22722 0.20093 0.07264 0.0
C40 C 0.1821 0.1482 0.03655 0.0
H41 H 0.07213 0.19063 0.2254 0.0
H42 H 0.13439 0.07694 0.27439 0.0
H43 H 0.12501 0.05854 0.18275 0.0
H44 H 0.17015 0.05588 0.16348 0.0
H45 H 0.1625 0.04373 0.21325 0.0
H46 H 0.20147 0.14049 0.24738 0.0
H47 H 0.20723 0.08914 0.24609 0.0
H48 H 0.22642 0.12001 0.20918 0.0
H49 H 0.05922 0.27705 0.11262 0.0
H50 H 0.12798 0.27492 0.01074 0.0
H51 H 0.16247 0.22361 0.03731 0.0
H52 H 0.12371 0.27037 0.17412 0.0
H53 H 0.07578 0.26272 0.18834 0.0
H54 H 0.11263 0.23605 0.20916 0.0
H55 H 0.048 0.18205 0.118 0.0
H56 H 0.05087 0.17224 0.16767 0.0
H57 H 0.03317 0.21733 0.15316 0.0
H58 H 0.05092 0.1617 0.28438 0.0
C59 C 0.08641 0.16623 0.23504 0.0
C60 C 0.25552 0.90313 0.53511 0.0
C61 C 0.23794 0.93679 0.54681 0.0
C62 C 0.25332 0.96027 0.57838 0.0
C63 C 0.30259 0.91641 0.58696 0.0
C64 C 0.28817 0.89381 0.55532 0.0
C65 C 0.31154 0.85987 0.54653 0.0
H66 H 0.45259 0.74973 0.6002 0.0
C67 C 0.3359 0.89848 0.60238 0.0
C68 C 0.34186 0.86571 0.57843 0.0
H69 H 0.37622 0.7311 0.50117 0.0
H70 H 0.34905 0.79202 0.51661 0.0
H71 H 0.47109 0.84353 0.58932 0.0
H72 H 0.39229 0.77821 0.65897 0.0
H73 H 0.41299 0.81713 0.68816 0.0
H74 H 0.44209 0.78088 0.66851 0.0
H75 H 0.4856 0.81962 0.63197 0.0
H76 H 0.46975 0.8683 0.63485 0.0
C77 C 0.32795 0.8644 0.50548 0.0
C78 C 0.28637 0.82201 0.55108 0.0
C79 C 0.39412 0.94885 0.73207 0.0
C80 C 0.42345 0.93651 0.75522 0.0
C81 C 0.4456 0.90723 0.74064 0.0
C82 C 0.43752 0.88911 0.70392 0.0
C83 C 0.40678 0.90027 0.68175 0.0
C84 C 0.38645 0.93055 0.6954 0.0
C85 C 0.35519 0.93896 0.66772 0.0
C86 C 0.35911 0.90773 0.63594 0.0
C87 C 0.38911 0.88488 0.64445 0.0
C88 C 0.36346 0.9805 0.65279 0.0
C89 C 0.31759 0.93305 0.68922 0.0
C90 C 0.43049 0.75926 0.5815 0.0
C91 C 0.41622 0.7356 0.54967 0.0
C92 C 0.38727 0.74871 0.52612 0.0
C93 C 0.37151 0.78401 0.53521 0.0
C94 C 0.38467 0.8064 0.56835 0.0
C95 C 0.41426 0.79435 0.59039 0.0
C96 C 0.42413 0.82157 0.62491 0.0
C97 C 0.39549 0.85181 0.62006 0.0
C98 C 0.37222 0.84253 0.58705 0.0
C99 C 0.46484 0.83913 0.62045 0.0
C100 C 0.41788 0.79849 0.66227 0.0
H101 H 0.29551 0.96929 0.62236 0.0
H102 H 0.24432 0.88479 0.51074 0.0
H103 H 0.26858 0.82462 0.57711 0.0
H104 H 0.30248 0.79633 0.5557 0.0
H105 H 0.26733 0.81589 0.52529 0.0
H106 H 0.33291 0.89562 0.49878 0.0
H107 H 0.30849 0.85048 0.48262 0.0
H108 H 0.35578 0.85239 0.5028 0.0
H109 H 0.37668 0.97122 0.74294 0.0
H110 H 0.46817 0.89725 0.75843 0.0
H111 H 0.45475 0.86627 0.69476 0.0
H112 H 0.39402 0.98949 0.65453 0.0
H113 H 0.34873 0.0024 0.67013 0.0
H114 H 0.35567 0.98245 0.62164 0.0
H115 H 0.31741 0.90659 0.70675 0.0
H116 H 0.29284 0.92842 0.66949 0.0
H117 H 0.31336 0.95827 0.70936 0.0
H118 H 0.23994 0.98617 0.58799 0.0
C119 C 0.28551 0.95036 0.59839 0.0
C120 C 0.61617 0.21922 0.8786 0.0
C121 C 0.58797 0.20114 0.85376 0.0
C122 C 0.57698 0.2199 0.82017 0.0
C123 C 0.6208 0.27502 0.83792 0.0
C124 C 0.63183 0.25606 0.87042 0.0
C125 C 0.6602 0.28011 0.89555 0.0
H126 H 0.77645 0.44165 0.92083 0.0
C127 C 0.64132 0.31376 0.83923 0.0
C128 C 0.66426 0.31693 0.87299 0.0
H129 H 0.76982 0.33989 0.9903 0.0
H130 H 0.71525 0.31366 0.95274 0.0
H131 H 0.68188 0.44859 0.91177 0.0
H132 H 0.76729 0.39912 0.84249 0.0
H133 H 0.73717 0.42175 0.81081 0.0
H134 H 0.7634 0.45069 0.84812 0.0
H135 H 0.71615 0.47802 0.8866 0.0
H136 H 0.67273 0.45894 0.86301 0.0
C137 C 0.64289 0.28756 0.93592 0.0
C138 C 0.69698 0.25856 0.89659 0.0
C139 C 0.61947 0.40691 0.73219 0.0
C140 C 0.63271 0.44543 0.72633 0.0
C141 C 0.65945 0.46411 0.75268 0.0
C142 C 0.67219 0.44479 0.78505 0.0
C143 C 0.65795 0.40646 0.79103 0.0
C144 C 0.63217 0.38817 0.76466 0.0
C145 C 0.61885 0.34812 0.77627 0.0
C146 C 0.64107 0.34517 0.81389 0.0
C147 C 0.66391 0.37937 0.82244 0.0
C148 C 0.57598 0.34751 0.78308 0.0
C149 C 0.63036 0.31856 0.74438 0.0
C150 C 0.76238 0.41432 0.92866 0.0
C151 C 0.77722 0.39261 0.95833 0.0
C152 C 0.75877 0.35688 0.96739 0.0
C153 C 0.72739 0.34162 0.94529 0.0
C154 C 0.71474 0.36217 0.91357 0.0
C155 C 0.73142 0.39846 0.90644 0.0
C156 C 0.71524 0.41535 0.87058 0.0
C157 C 0.68717 0.38253 0.85654 0.0
C158 C 0.687 0.35158 0.88186 0.0
C159 C 0.69562 0.45235 0.8833 0.0
C160 C 0.74726 0.42246 0.84137 0.0
H161 H 0.58354 0.26993 0.78631 0.0
H162 H 0.62444 0.20588 0.90517 0.0
H163 H 0.70058 0.24169 0.86884 0.0
H164 H 0.7225 0.27852 0.8996 0.0
H165 H 0.69687 0.23777 0.92045 0.0
H166 H 0.61229 0.29157 0.9329 0.0
H167 H 0.64628 0.26269 0.95496 0.0
H168 H 0.65488 0.31454 0.9511 0.0
H169 H 0.59825 0.39221 0.71283 0.0
H170 H 0.66991 0.49387 0.74859 0.0
H171 H 0.69225 0.46058 0.80439 0.0
H172 H 0.56793 0.37626 0.79478 0.0
H173 H 0.55965 0.34068 0.75554 0.0
H174 H 0.5665 0.32673 0.80505 0.0
H175 H 0.65863 0.32731 0.73327 0.0
H176 H 0.63286 0.28908 0.75511 0.0
H177 H 0.61013 0.31686 0.71928 0.0
H178 H 0.55497 0.20651 0.80093 0.0
C179 C 0.59342 0.25674 0.81199 0.0
C180 C 0.96129 0.73992 0.44059 0.0
C181 C 0.95485 0.75434 0.47854 0.0
C182 C 0.92854 0.73351 0.50126 0.0
C183 C 0.91207 0.68863 0.44652 0.0
C184 C 0.9399 0.70719 0.42535 0.0
C185 C 0.94174 0.69015 0.38461 0.0
H186 H 0.86811 0.56503 0.2427 0.0
C187 C 0.89157 0.65899 0.42033 0.0
C188 C 0.90915 0.6596 0.38414 0.0
H189 H 0.97101 0.63852 0.24079 0.0
H190 H 0.95917 0.66485 0.30516 0.0
H191 H 0.88316 0.53498 0.32391 0.0
H192 H 0.81743 0.62748 0.28744 0.0
H193 H 0.79195 0.6039 0.32376 0.0
H194 H 0.80218 0.57709 0.27959 0.0
H195 H 0.83763 0.52599 0.30096 0.0
H196 H 0.84337 0.53336 0.35303 0.0
C197 C 0.98 0.67174 0.38035 0.0
C198 C 0.93499 0.72249 0.3557 0.0
C199 C 0.77034 0.58804 0.46339 0.0
C200 C 0.74406 0.56158 0.44367 0.0
C201 C 0.75125 0.54875 0.40533 0.0
C202 C 0.78348 0.56255 0.38653 0.0
C203 C 0.80898 0.58971 0.40609 0.0
C204 C 0.80256 0.60173 0.44401 0.0
C205 C 0.83289 0.63105 0.45978 0.0
C206 C 0.85824 0.63472 0.42491 0.0
C207 C 0.84379 0.61059 0.39356 0.0
C208 C 0.85292 0.6135 0.49467 0.0
C209 C 0.81439 0.66941 0.46992 0.0
C210 C 0.88795 0.587 0.25608 0.0
C211 C 0.9207 0.59948 0.23689 0.0
C212 C 0.9455 0.62858 0.25497 0.0
C213 C 0.93886 0.64335 0.29258 0.0
C214 C 0.90717 0.62873 0.31236 0.0
C215 C 0.8822 0.60131 0.29388 0.0
C216 C 0.85117 0.5875 0.31987 0.0
C217 C 0.86193 0.61072 0.35727 0.0
C218 C 0.89448 0.63504 0.35261 0.0
C219 C 0.85352 0.54313 0.32467 0.0
C220 C 0.81356 0.5992 0.30188 0.0
H221 H 0.88671 0.68689 0.50375 0.0
H222 H 0.9805 0.75543 0.42178 0.0
H223 H 0.91252 0.7409 0.36616 0.0
H224 H 0.92525 0.71103 0.32659 0.0
H225 H 0.96087 0.74177 0.35247 0.0
H226 H 0.99041 0.66162 0.40867 0.0
H227 H 0.0018 0.69301 0.36967 0.0
H228 H 0.97811 0.64538 0.36084 0.0
H229 H 0.76581 0.59805 0.49304 0.0
H230 H 0.7313 0.52866 0.3894 0.0
H231 H 0.78692 0.5519 0.35723 0.0
H232 H 0.85393 0.58144 0.49027 0.0
H233 H 0.83804 0.61908 0.52215 0.0
H234 H 0.88262 0.62458 0.49835 0.0
H235 H 0.79378 0.67578 0.44669 0.0
H236 H 0.83456 0.69506 0.47219 0.0
H237 H 0.7991 0.66737 0.49764 0.0
H238 H 0.92315 0.74377 0.53064 0.0
C239 C 0.90718 0.7007 0.48548 0.0
C240 C 0.88575 0.75709 0.94469 0.0
C241 C 0.91604 0.7361 0.93201 0.0
C242 C 0.93669 0.74934 0.90008 0.0
C243 C 0.89501 0.80144 0.89189 0.0
C244 C 0.87584 0.78959 0.92434 0.0
C245 C 0.84374 0.81452 0.93319 0.0
H246 H 0.72799 0.95106 0.8776 0.0
C247 C 0.87601 0.83446 0.87578 0.0
C248 C 0.84619 0.84258 0.9001 0.0
H249 H 0.72378 0.8838 0.98086 0.0
H250 H 0.78202 0.85631 0.96438 0.0
H251 H 0.75383 0.88438 0.81955 0.0
H252 H 0.82159 0.97359 0.88524 0.0
H253 H 0.83974 0.96913 0.83829 0.0
H254 H 0.79276 0.98447 0.84423 0.0
H255 H 0.75357 0.93501 0.80908 0.0
H256 H 0.7883 0.90485 0.78915 0.0
C257 C 0.8069 0.78796 0.93069 0.0
C258 C 0.85184 0.83569 0.97339 0.0
C259 C 0.92061 0.89068 0.74904 0.0
C260 C 0.90912 0.92109 0.72645 0.0
C261 C 0.87733 0.94056 0.73788 0.0
C262 C 0.85812 0.93071 0.77181 0.0
C263 C 0.87069 0.90095 0.79467 0.0
C264 C 0.90139 0.88144 0.78293 0.0
C265 C 0.91128 0.85096 0.81076 0.0
C266 C 0.88178 0.85555 0.84145 0.0
C267 C 0.85783 0.88475 0.83189 0.0
C268 C 0.90634 0.81082 0.7887 0.0
C269 C 0.95154 0.86173 0.82739 0.0
C270 C 0.74024 0.93107 0.89694 0.0
C271 C 0.72137 0.9194 0.93053 0.0
C272 C 0.7379 0.89311 0.95489 0.0
C273 C 0.77155 0.87694 0.94508 0.0
C274 C 0.78902 0.88693 0.91032 0.0
C275 C 0.7741 0.91448 0.88744 0.0
C276 C 0.79727 0.92173 0.85189 0.0
C277 C 0.82773 0.89323 0.85678 0.0
C278 C 0.8224 0.87265 0.89095 0.0
C279 C 0.7721 0.91126 0.8153 0.0
C280 C 0.81363 0.9645 0.85463 0.0
H281 H 0.9428 0.7898 0.85544 0.0
H282 H 0.8697 0.74797 0.96951 0.0
H283 H 0.88256 0.83998 0.9799 0.0
H284 H 0.84188 0.86542 0.9747 0.0
H285 H 0.83905 0.81881 0.99717 0.0
H286 H 0.80702 0.76714 0.90516 0.0
H287 H 0.80361 0.77071 0.95716 0.0
H288 H 0.78155 0.80405 0.92657 0.0
H289 H 0.94443 0.87458 0.74075 0.0
H290 H 0.86793 0.96415 0.72108 0.0
H291 H 0.83442 0.9469 0.77915 0.0
H292 H 0.88127 0.80932 0.76876 0.0
H293 H 0.9312 0.80549 0.77085 0.0
H294 H 0.90128 0.78638 0.80809 0.0
H295 H 0.95745 0.89385 0.82993 0.0
H296 H 0.95572 0.85184 0.85725 0.0
H297 H 0.97305 0.84973 0.80832 0.0
H298 H 0.96007 0.73365 0.88972 0.0
C299 C 0.92637 0.78178 0.88 0.0
C300 C 0.75298 0.11069 0.45881 0.0
C301 C 0.77355 0.08083 0.44271 0.0
C302 C 0.76117 0.06201 0.40725 0.0
C303 C 0.70767 0.10116 0.40489 0.0
C304 C 0.71987 0.12015 0.43949 0.0
C305 C 0.69356 0.15037 0.45235 0.0
H306 H 0.52913 0.23396 0.42434 0.0
C307 C 0.67181 0.11633 0.39283 0.0
C308 C 0.66292 0.14478 0.42072 0.0
H309 H 0.62012 0.27131 0.50539 0.0
H310 H 0.65396 0.21637 0.48459 0.0
H311 H 0.53365 0.13735 0.42528 0.0
H312 H 0.58447 0.22815 0.35692 0.0
H313 H 0.57237 0.18798 0.32531 0.0
H314 H 0.53589 0.21154 0.35061 0.0
H315 H 0.50719 0.16426 0.3919 0.0
H316 H 0.53059 0.12196 0.37576 0.0
C317 C 0.67856 0.13988 0.49271 0.0
C318 C 0.71493 0.19104 0.45164 0.0
C319 C 0.61007 0.06822 0.26423 0.0
C320 C 0.57637 0.07593 0.24523 0.0
C321 C 0.55078 0.09872 0.26485 0.0
C322 C 0.55949 0.11505 0.30229 0.0
C323 C 0.59423 0.10863 0.3202 0.0
C324 C 0.61825 0.08454 0.30159 0.0
C325 C 0.65316 0.0795 0.32546 0.0
C326 C 0.64723 0.10635 0.3605 0.0
C327 C 0.61286 0.1236 0.35726 0.0
C328 C 0.65294 0.03618 0.33638 0.0
C329 C 0.68754 0.09401 0.30189 0.0
C330 C 0.55619 0.23031 0.43806 0.0
C331 C 0.57141 0.25719 0.46713 0.0
C332 C 0.60681 0.25079 0.48395 0.0
C333 C 0.62694 0.21921 0.47117 0.0
C334 C 0.61221 0.19431 0.44042 0.0
C335 C 0.57744 0.20026 0.42424 0.0
C336 C 0.56858 0.17491 0.38813 0.0
C337 C 0.6034 0.15208 0.38579 0.0
C338 C 0.62858 0.16308 0.41695 0.0
C339 C 0.53299 0.14825 0.39528 0.0
C340 C 0.56482 0.20172 0.35328 0.0
H341 H 0.7208 0.0565 0.36144 0.0
H342 H 0.76203 0.12566 0.486 0.0
H343 H 0.73863 0.19112 0.43112 0.0
H344 H 0.69694 0.21354 0.44107 0.0
H345 H 0.72685 0.20043 0.48084 0.0
H346 H 0.66912 0.10846 0.49285 0.0
H347 H 0.70082 0.14571 0.51565 0.0
H348 H 0.65404 0.15592 0.50101 0.0
H349 H 0.63002 0.05049 0.24988 0.0
H350 H 0.52472 0.10519 0.25056 0.0
H351 H 0.53927 0.1328 0.31548 0.0
H352 H 0.62408 0.02169 0.33494 0.0
H353 H 0.67044 0.01937 0.31641 0.0
H354 H 0.6627 0.03284 0.36675 0.0
H355 H 0.68178 0.12121 0.28713 0.0
H356 H 0.71298 0.10151 0.32016 0.0
H357 H 0.69423 0.07196 0.27912 0.0
H358 H 0.77696 0.03934 0.3941 0.0
C359 C 0.7285 0.07199 0.38831 0.0
C360 C 0.40621 0.63555 0.2974 0.0
C361 C 0.39887 0.59608 0.30484 0.0
C362 C 0.37196 0.57341 0.2818 0.0
C363 C 0.36151 0.62879 0.24302 0.0
C364 C 0.3873 0.65124 0.26627 0.0
C365 C 0.3937 0.69185 0.2522 0.0
H366 H 0.36255 0.82069 0.11445 0.0
C367 C 0.34831 0.65316 0.21201 0.0
C368 C 0.3667 0.69024 0.21736 0.0
H369 H 0.44308 0.83214 0.2103 0.0
H370 H 0.41775 0.77133 0.23492 0.0
H371 H 0.29121 0.78512 0.16347 0.0
H372 H 0.37376 0.73199 0.0931 0.0
H373 H 0.32834 0.71177 0.07942 0.0
H374 H 0.33947 0.76278 0.07441 0.0
H375 H 0.28663 0.78168 0.11144 0.0
H376 H 0.26892 0.74275 0.14118 0.0
C377 C 0.38204 0.7206 0.28473 0.0
C378 C 0.43534 0.69792 0.24022 0.0
C379 C 0.25155 0.59509 0.11314 0.0
C380 C 0.22807 0.61165 0.08597 0.0
C381 C 0.23529 0.65117 0.0776 0.0
C382 C 0.26439 0.67404 0.09725 0.0
C383 C 0.286 0.65743 0.12609 0.0
C384 C 0.27924 0.61856 0.13359 0.0
C385 C 0.30117 0.60675 0.16836 0.0
C386 C 0.32252 0.64491 0.18044 0.0
C387 C 0.31428 0.67429 0.15514 0.0
C388 C 0.27299 0.59296 0.19965 0.0
C389 C 0.32783 0.57567 0.15439 0.0
C390 C 0.3737 0.81066 0.14153 0.0
C391 C 0.40438 0.83123 0.16093 0.0
C392 C 0.41912 0.81685 0.19532 0.0
C393 C 0.40468 0.78135 0.20918 0.0
C394 C 0.37576 0.75972 0.18792 0.0
C395 C 0.36016 0.77482 0.15516 0.0
C396 C 0.33092 0.74689 0.13522 0.0
C397 C 0.33286 0.71192 0.16043 0.0
C398 C 0.35897 0.71977 0.19135 0.0
C399 C 0.29236 0.76491 0.13758 0.0
C400 C 0.34347 0.73784 0.09321 0.0
H401 H 0.33359 0.57056 0.23407 0.0
H402 H 0.4275 0.65325 0.31417 0.0
H403 H 0.44699 0.66988 0.23125 0.0
H404 H 0.43891 0.716 0.21455 0.0
H405 H 0.45332 0.71115 0.26464 0.0
H406 H 0.35571 0.70931 0.29836 0.0
H407 H 0.40418 0.72486 0.30798 0.0
H408 H 0.37584 0.74925 0.27387 0.0
H409 H 0.24683 0.56488 0.12039 0.0
H410 H 0.21721 0.66505 0.05751 0.0
H411 H 0.26808 0.7041 0.09029 0.0
H412 H 0.24555 0.60614 0.1962 0.0
H413 H 0.26733 0.56085 0.1978 0.0
H414 H 0.28265 0.60208 0.22959 0.0
H415 H 0.34052 0.58354 0.12625 0.0
H416 H 0.35188 0.57297 0.17458 0.0
H417 H 0.31237 0.54673 0.14989 0.0
H418 H 0.36619 0.54283 0.28712 0.0
C419 C 0.3532 0.58955 0.25098 0.0
C420 C 0.03437 0.29164 0.58418 0.0
C421 C 0.04509 0.264 0.55608 0.0
C422 C 0.07674 0.27353 0.53351 0.0
C423 C 0.09098 0.33241 0.57328 0.0
C424 C 0.05859 0.32445 0.59364 0.0
C425 C 0.05696 0.35012 0.62986 0.0
H426 H 0.14244 0.48571 0.75562 0.0
C427 C 0.1128 0.36527 0.59385 0.0
C428 C 0.09316 0.37559 0.62718 0.0
H429 H 0.03835 0.41663 0.76882 0.0
H430 H 0.04312 0.38811 0.70415 0.0
H431 H 0.12784 0.50784 0.66866 0.0
H432 H 0.1876 0.41439 0.71424 0.0
H433 H 0.21549 0.43894 0.67998 0.0
H434 H 0.20176 0.46506 0.72283 0.0
H435 H 0.17542 0.51569 0.6866 0.0
H436 H 0.16453 0.49976 0.6367 0.0
C437 C 0.02199 0.37405 0.62641 0.0
C438 C 0.0573 0.32391 0.66567 0.0
C439 C 0.24192 0.40995 0.54665 0.0
C440 C 0.26886 0.43901 0.56049 0.0
C441 C 0.25985 0.46482 0.59108 0.0
C442 C 0.2252 0.46026 0.60932 0.0
C443 C 0.19939 0.42952 0.59685 0.0
C444 C 0.20724 0.40606 0.56494 0.0
C445 C 0.17577 0.37591 0.55489 0.0
C446 C 0.14817 0.38461 0.58654 0.0
C447 C 0.16262 0.41538 0.61165 0.0
C448 C 0.15992 0.38404 0.51399 0.0
C449 C 0.19114 0.3351 0.55839 0.0
C450 C 0.12109 0.46405 0.74448 0.0
C451 C 0.09045 0.45255 0.76725 0.0
C452 C 0.06263 0.42501 0.75186 0.0
C453 C 0.06542 0.40861 0.71434 0.0
C454 C 0.0968 0.41921 0.6922 0.0
C455 C 0.12393 0.44663 0.70719 0.0
C456 C 0.15557 0.45364 0.67951 0.0
C457 C 0.14332 0.42516 0.64599 0.0
C458 C 0.1088 0.40527 0.65364 0.0
C459 C 0.15626 0.49647 0.66728 0.0
C460 C 0.19222 0.44269 0.69999 0.0
H461 H 0.12394 0.31246 0.52448 0.0
H462 H 0.00959 0.2861 0.60126 0.0
H463 H 0.06963 0.29572 0.65877 0.0
H464 H 0.07517 0.33689 0.69009 0.0
H465 H 0.02844 0.31712 0.67613 0.0
H466 H 0.01936 0.38532 0.59668 0.0
H467 H 0.99591 0.35582 0.63191 0.0
H468 H 0.02344 0.39996 0.64644 0.0
H469 H 0.24819 0.38999 0.52294 0.0
H470 H 0.28037 0.48742 0.60205 0.0
H471 H 0.22029 0.48008 0.63318 0.0
H472 H 0.15926 0.41589 0.51011 0.0
H473 H 0.1776 0.37208 0.49082 0.0
H474 H 0.13058 0.37231 0.50907 0.0
H475 H 0.21367 0.33551 0.5813 0.0
H476 H 0.1697 0.31288 0.56748 0.0
H477 H 0.20325 0.325 0.5306 0.0
H478 H 0.08585 0.25308 0.51156 0.0
C479 C 0.09937 0.30783 0.54158 0.0
O480 O 0.02527 -0.00109 0.60284 0.0
Mg481 Mg 0.0461 0.03576 0.5598 0.0
O482 O 0.97992 0.98138 0.56098 0.0
Mg483 Mg 0.00356 0.00793 0.50296 0.0
O484 O 0.01415 0.0731 0.52999 0.0
O485 O 0.04716 0.08852 0.58544 0.0
O486 O 0.02543 0.03504 0.44384 0.0
O487 O 0.94257 0.02854 0.49347 0.0
Mg488 Mg 0.96381 0.96616 0.42923 0.0
O489 O 0.98941 0.94597 0.47692 0.0
O490 O 0.99975 -0.00088 0.39417 0.0
O491 O 0.91424 0.99062 0.44649 0.0
O492 O 0.96549 0.90711 0.42778 0.0
C493 C 0.09731 -0.00148 0.51915 0.0
C494 C 0.99407 0.98055 0.59527 0.0
C495 C 0.02616 0.09856 0.55723 0.0
C496 C 0.02137 0.02749 0.40714 0.0
C497 C 0.9134 0.01736 0.47275 0.0
C498 C 0.98132 0.91125 0.46188 0.0
O499 O 0.09947 0.02972 0.53939 0.0
O500 O 0.06496 0.98315 0.50856 0.0
O501 O 0.45678 0.08696 0.04203 0.0
Mg502 Mg 0.51132 0.08193 0.02147 0.0
O503 O 0.4392 0.02968 0.01515 0.0
Mg504 Mg 0.49885 0.00757 0.99956 0.0
O505 O 0.51823 0.06326 0.96489 0.0
O506 O 0.52198 0.12602 0.98658 0.0
O507 O 0.55878 0.98511 0.98375 0.0
O508 O 0.47389 0.99117 0.93563 0.0
Mg509 Mg 0.48665 0.93093 0.97866 0.0
O510 O 0.47899 0.95233 0.03389 0.0
O511 O 0.54135 0.92716 0.95843 0.0
O512 O 0.44331 0.93426 0.93788 0.0
O513 O 0.47532 0.88861 0.01583 0.0
C514 C 0.54602 0.0495 0.08027 0.0
C515 C 0.43097 0.06116 0.03284 0.0
C516 C 0.52421 0.10016 0.95883 0.0
C517 C 0.56709 0.95335 0.96652 0.0
C518 C 0.4514 0.96454 0.91964 0.0
C519 C 0.47226 0.916 0.04193 0.0
O520 O 0.55522 0.07952 0.0621 0.0
O521 O 0.52324 0.0234 0.06389 0.0
O522 O 0.45173 0.55666 0.56636 0.0
Mg523 Mg 0.47597 0.50385 0.57932 0.0
O524 O 0.49502 0.56866 0.52326 0.0
Mg525 Mg 0.50902 0.5041 0.51329 0.0
O526 O 0.53252 0.49835 0.57773 0.0
O527 O 0.50047 0.50926 0.63237 0.0
O528 O 0.52417 0.43614 0.50819 0.0
O529 O 0.57078 0.52639 0.50385 0.0
Mg530 Mg 0.52153 0.47337 0.45006 0.0
O531 O 0.48875 0.51878 0.44908 0.0
O532 O 0.49216 0.41975 0.45528 0.0
O533 O 0.58073 0.48055 0.46025 0.0
O534 O 0.51163 0.48988 0.39588 0.0
C535 C 0.42723 0.45815 0.53946 0.0
C536 C 0.46782 0.57971 0.54327 0.0
C537 C 0.53133 0.50214 0.61549 0.0
C538 C 0.50993 0.40938 0.48452 0.0
C539 C 0.5934 0.50856 0.48267 0.0
C540 C 0.49079 0.51506 0.41141 0.0
O541 O 0.44259 0.45168 0.5716 0.0
O542 O 0.44441 0.48165 0.51708 0.0
O543 O 0.99366 0.42598 0.05062 0.0
Mg544 Mg 0.01663 0.48355 0.0621 0.0
O545 O 0.02987 0.4476 0.00579 0.0
Mg546 Mg 0.00445 0.51195 0.00435 0.0
O547 O 0.98238 0.5272 0.0697 0.0
O548 O 0.00469 0.49239 0.1179 0.0
O549 O 0.9833 0.57447 0.99509 0.0
O550 O 0.94308 0.4798 1.00034 0.0
Mg551 Mg 0.96946 0.50636 0.94025 0.0
O552 O 0.02686 0.50457 0.93944 0.0
O553 O 0.9399 0.55684 0.95096 0.0
O554 O 0.94061 0.45184 0.9424 0.0
O555 O 0.98986 0.51299 0.88703 0.0
C556 C 0.08638 0.52779 0.04 0.0
C557 C 0.01609 0.41874 0.02414 0.0
C558 C 0.98391 0.51892 0.10632 0.0
C559 C 0.95539 0.58276 0.97398 0.0
C560 C 0.92778 0.45441 0.97607 0.0
C561 C 0.02237 0.50775 0.90202 0.0
O562 O 0.0754 0.49916 0.05984 0.0
O563 O 0.06336 0.54193 0.01663 0.0
C564 C 0.09399 0.0869 0.34979 0.0
C565 C 0.07294 0.09569 0.31648 0.0
C566 C 0.07709 0.06638 0.38035 0.0
C567 C 0.03881 0.05336 0.37806 0.0
H568 H 0.12366 0.09588 0.35216 0.0
H569 H 0.09427 0.05952 0.40515 0.0
S570 S 0.97153 0.06923 0.29734 0.0
N571 N 0.01183 0.08998 0.28352 0.0
N572 N 0.98032 0.05178 0.34031 0.0
C573 C 0.01758 0.0625 0.34513 0.0
C574 C 0.03455 0.08351 0.3145 0.0
C575 C 0.40446 0.93111 0.82364 0.0
C576 C 0.42749 0.94964 0.79648 0.0
C577 C 0.41077 0.93842 0.8636 0.0
C578 C 0.4403 0.96468 0.87787 0.0
H579 H 0.38247 0.90946 0.81394 0.0
H580 H 0.39339 0.92199 0.88347 0.0
S581 S 0.50567 0.02405 0.8178 0.0
N582 N 0.47873 0.99759 0.78573 0.0
N583 N 0.4906 0.01199 0.86107 0.0
C584 C 0.46193 0.98541 0.85073 0.0
C585 C 0.45563 0.97758 0.80991 0.0
C586 C 0.61124 0.45003 0.65724 0.0
C587 C 0.61489 0.46671 0.69525 0.0
C588 C 0.58647 0.46413 0.62986 0.0
C589 C 0.56418 0.49487 0.64001 0.0
H590 H 0.62593 0.42445 0.64942 0.0
H591 H 0.58256 0.44888 0.60178 0.0
S592 S 0.56726 0.55193 0.73375 0.0
N593 N 0.59739 0.51829 0.74008 0.0
N594 N 0.5507 0.54469 0.6887 0.0
C595 C 0.56991 0.5138 0.67677 0.0
C596 C 0.59537 0.49974 0.70443 0.0
C597 C 0.94515 0.59911 0.16877 0.0
C598 C 0.93161 0.57859 0.20082 0.0
C599 C 0.95984 0.5795 0.13649 0.0
C600 C 0.96191 0.53893 0.13575 0.0
H601 H 0.9453 0.63056 0.16915 0.0
H602 H 0.97146 0.59632 0.1131 0.0
S603 S 0.92812 0.47158 0.21095 0.0
N604 N 0.91985 0.51524 0.2287 0.0
N605 N 0.94676 0.47864 0.16811 0.0
C606 C 0.94685 0.51804 0.1667 0.0
C607 C 0.9319 0.5378 0.19927 0.0
C608 C 0.32879 0.04557 0.06319 0.0
C609 C 0.31822 0.08395 0.06957 0.0
C610 C 0.36476 0.03809 0.04971 0.0
C611 C 0.39168 0.06872 0.04301 0.0
H612 H 0.30917 0.02119 0.06882 0.0
H613 H 0.37187 0.0082 0.04562 0.0
S614 S 0.37761 0.17443 0.05447 0.0
N615 N 0.33747 0.15277 0.06755 0.0
N616 N 0.40445 0.13899 0.04224 0.0
C617 C 0.38105 0.10718 0.0486 0.0
C618 C 0.34455 0.11471 0.06191 0.0
C619 C 0.16926 0.92455 0.53102 0.0
C620 C 0.2029 0.94786 0.52776 0.0
C621 C 0.13424 0.9397 0.52377 0.0
C622 C 0.13216 0.97856 0.51335 0.0
H623 H 0.16989 0.89572 0.54237 0.0
H624 H 0.10885 0.92217 0.52988 0.0
S625 S 0.21231 0.0484 0.49332 0.0
N626 N 0.23206 0.00918 0.50746 0.0
N627 N 0.16652 0.03774 0.49424 0.0
C628 C 0.16568 0.00054 0.50611 0.0
C629 C 0.20106 0.98515 0.51325 0.0
C630 C 0.82383 0.44202 0.98979 0.0
C631 C 0.81533 0.40411 0.97403 0.0
C632 C 0.86121 0.45702 0.9947 0.0
C633 C 0.89094 0.43478 0.98311 0.0
H634 H 0.80145 0.46095 0.99588 0.0
H635 H 0.86666 0.48726 0.0042 0.0
S636 S 0.88373 0.33261 0.945 0.0
N637 N 0.83976 0.34339 0.951 0.0
N638 N 0.90994 0.37207 0.95942 0.0
C639 C 0.88292 0.39598 0.97032 0.0
C640 C 0.84503 0.38047 0.96599 0.0
C641 C 0.69595 0.50846 0.45795 0.0
C642 C 0.70821 0.54809 0.46147 0.0
C643 C 0.65933 0.49568 0.46725 0.0
C644 C 0.63357 0.52195 0.48076 0.0
H645 H 0.71433 0.48735 0.44625 0.0
H646 H 0.6507 0.46511 0.46232 0.0
S647 S 0.65272 0.62835 0.49847 0.0
N648 N 0.69253 0.61327 0.48178 0.0
N649 N 0.62374 0.58905 0.50013 0.0
C650 C 0.64622 0.56127 0.4871 0.0
C651 C 0.68356 0.5744 0.47725 0.0
C652 C 0.09025 0.34532 0.02903 0.0
C653 C 0.07008 0.31249 0.04333 0.0
C654 C 0.07208 0.37873 0.01922 0.0
C655 C 0.03308 0.38057 0.02353 0.0
H656 H 0.12058 0.3461 0.02749 0.0
H657 H 0.08907 0.40416 0.01089 0.0
S658 S 0.96653 0.30008 0.05247 0.0
N659 N 0.00819 0.28209 0.05556 0.0
N660 N 0.97432 0.34498 0.03805 0.0
C661 C 0.0123 0.34694 0.03488 0.0
C662 C 0.0307 0.31294 0.04461 0.0
C663 C 0.58638 0.13488 0.88039 0.0
C664 C 0.56673 0.16612 0.86716 0.0
C665 C 0.57014 0.109 0.90668 0.0
C666 C 0.53402 0.11401 0.92047 0.0
H667 H 0.61568 0.13285 0.87343 0.0
H668 H 0.5874 0.08795 0.9195 0.0
S669 S 0.46856 0.18623 0.88928 0.0
N670 N 0.50728 0.19663 0.86522 0.0
N671 N 0.477 0.1481 0.91486 0.0
C672 C 0.51258 0.14199 0.90389 0.0
C673 C 0.5289 0.16808 0.87699 0.0
C674 C 0.9439 0.82107 0.50442 0.0
C675 C 0.96944 0.79466 0.49044 0.0
C676 C 0.95122 0.86123 0.5013 0.0
C677 C 0.98413 0.87617 0.48406 0.0
H678 H 0.91619 0.81079 0.51341 0.0
H679 H 0.92889 0.88016 0.50776 0.0
S680 S 0.06464 0.82076 0.45412 0.0
N681 N 0.03297 0.78726 0.46809 0.0
N682 N 0.04566 0.8629 0.4605 0.0
C683 C 0.0121 0.85081 0.4754 0.0
C684 C 0.00501 0.80991 0.47911 0.0
C685 C 0.46746 0.68967 0.54072 0.0
C686 C 0.42896 0.6958 0.54351 0.0
C687 C 0.47999 0.65185 0.53858 0.0
C688 C 0.45445 0.6191 0.54022 0.0
H689 H 0.48801 0.71429 0.54081 0.0
H690 H 0.50988 0.64827 0.53737 0.0
S691 S 0.35074 0.6194 0.54534 0.0
N692 N 0.36543 0.66588 0.5459 0.0
N693 N 0.38895 0.59508 0.54251 0.0
C694 C 0.41589 0.62488 0.54187 0.0
C695 C 0.40314 0.66317 0.54335 0.0
C696 C 0.91342 0.94006 0.6564 0.0
C697 C 0.93132 0.93374 0.69229 0.0
C698 C 0.93399 0.95345 0.62449 0.0
C699 C 0.97323 0.96152 0.62737 0.0
H700 H 0.88323 0.93481 0.65303 0.0
H701 H 0.91884 0.95869 0.5978 0.0
S702 S 0.03358 0.94905 0.71481 0.0
N703 N 0.99065 0.93625 0.72858 0.0
N704 N 0.02922 0.96071 0.66896 0.0
C705 C 0.99148 0.95445 0.66291 0.0
C706 C 0.97059 0.94079 0.69522 0.0
C707 C 0.59622 0.07665 0.17627 0.0
C708 C 0.56995 0.06383 0.20367 0.0
C709 C 0.58921 0.06976 0.13631 0.0
C710 C 0.556 0.04914 0.12223 0.0
H711 H 0.62161 0.09373 0.18573 0.0
H712 H 0.60939 0.08188 0.11621 0.0
S713 S 0.47994 0.00611 0.18236 0.0
N714 N 0.51064 0.02746 0.21436 0.0
N715 N 0.4977 0.01366 0.13913 0.0
C716 C 0.53049 0.03417 0.14946 0.0
C717 C 0.53734 0.04186 0.19022 0.0
C718 C 0.44228 0.54564 0.32017 0.0
C719 C 0.42226 0.57706 0.33318 0.0
C720 C 0.4647 0.52645 0.34574 0.0
C721 C 0.4678 0.53769 0.38553 0.0
H722 H 0.44071 0.53588 0.28981 0.0
H723 H 0.47931 0.5022 0.33408 0.0
S724 S 0.42086 0.61885 0.43393 0.0
N725 N 0.40688 0.61928 0.38787 0.0
N726 N 0.44898 0.58282 0.43665 0.0
C727 C 0.448 0.56938 0.39897 0.0
C728 C 0.42531 0.58923 0.37259 0.0
C729 C 0.07358 0.5089 0.80865 0.0
C730 C 0.08514 0.47081 0.80602 0.0
C731 C 0.05704 0.52293 0.84249 0.0
C732 C 0.05227 0.49951 0.87484 0.0
H733 H 0.07407 0.52656 0.78327 0.0
H734 H 0.04503 0.55096 0.84217 0.0
S735 S 0.08342 0.39997 0.88428 0.0
N736 N 0.09479 0.41155 0.83967 0.0
N737 N 0.06453 0.43839 0.90382 0.0
C738 C 0.06747 0.46303 0.87398 0.0
C739 C 0.08364 0.44845 0.83927 0.0
C740 C 0.67302 0.96721 0.94856 0.0
C741 C 0.68211 0.92926 0.93761 0.0
C742 C 0.63586 0.97514 0.95803 0.0
C743 C 0.60656 0.94543 0.95643 0.0
H744 H 0.69485 0.99065 0.95058 0.0
H745 H 0.63009 0.00466 0.96665 0.0
S746 S 0.61657 0.84128 0.92784 0.0
N747 N 0.65927 0.86219 0.92465 0.0
N748 N 0.59009 0.87634 0.94207 0.0
C749 C 0.61569 0.90746 0.94476 0.0
C750 C 0.65324 0.8996 0.93544 0.0
C751 C 0.80973 0.02791 0.46787 0.0
C752 C 0.8077 0.06783 0.46196 0.0
C753 C 0.84416 0.01228 0.47516 0.0
C754 C 0.87775 0.03605 0.47727 0.0
H755 H 0.78484 0.00821 0.46395 0.0
H756 H 0.8448 0.98098 0.47657 0.0
S757 S 0.88696 0.14312 0.4696 0.0
N758 N 0.84151 0.13147 0.46292 0.0
N759 N 0.90658 0.10194 0.47742 0.0
C760 C 0.87577 0.07649 0.47535 0.0
C761 C 0.84055 0.09247 0.46751 0.0
C762 C 0.17226 0.56681 0.09809 0.0
C763 C 0.19316 0.58911 0.07162 0.0
C764 C 0.13862 0.54618 0.08688 0.0
C765 C 0.12372 0.54756 0.04891 0.0
H766 H 0.1814 0.56597 0.12825 0.0
H767 H 0.12347 0.5301 0.10875 0.0
S768 S 0.16781 0.59971 0.96757 0.0
N769 N 0.19738 0.60952 0.00482 0.0
N770 N 0.13269 0.57184 0.98418 0.0
C771 C 0.14414 0.56943 0.02185 0.0
C772 C 0.17911 0.59 0.03312 0.0
C773 C 0.32424 0.47408 0.5311 0.0
C774 C 0.30775 0.44004 0.54654 0.0
C775 C 0.363 0.47816 0.5248 0.0
C776 C 0.38648 0.44868 0.53474 0.0
H777 H 0.30736 0.49836 0.52565 0.0
H778 H 0.37497 0.50576 0.51514 0.0
S779 S 0.35641 0.35283 0.57296 0.0
N780 N 0.31713 0.37521 0.56852 0.0
N781 N 0.39017 0.38337 0.55783 0.0
C782 C 0.36996 0.41371 0.54803 0.0
C783 C 0.33048 0.40926 0.55368 0.0
C784 C 0.96155 0.69177 0.96092 0.0
C785 C 0.92451 0.69872 0.94954 0.0
C786 C 0.97096 0.65474 0.97213 0.0
C787 C 0.94378 0.62317 0.97154 0.0
H788 H 0.98366 0.71483 0.95992 0.0
H789 H 0.00012 0.65026 0.97883 0.0
S790 S 0.84236 0.62667 0.94681 0.0
N791 N 0.86015 0.67145 0.94087 0.0
N792 N 0.87784 0.60201 0.96133 0.0
C793 C 0.90636 0.63026 0.96206 0.0
C794 C 0.89671 0.66797 0.95122 0.0
C795 C 0.46218 0.85487 0.12858 0.0
C796 C 0.42569 0.86195 0.14034 0.0
C797 C 0.47901 0.87569 0.09881 0.0
C798 C 0.46025 0.90476 0.08056 0.0
H799 H 0.4763 0.83059 0.13972 0.0
H800 H 0.50563 0.86699 0.08798 0.0
S801 S 0.36739 0.93909 0.10561 0.0
N802 N 0.37337 0.90318 0.1351 0.0
N803 N 0.40578 0.94328 0.0796 0.0
C804 C 0.42567 0.91508 0.09492 0.0
C805 C 0.40812 0.89333 0.12477 0.0
C806 C 0.02551 0.20018 0.52057 0.0
C807 C 0.02894 0.22288 0.55569 0.0
C808 C 0.02053 0.15935 0.52061 0.0
C809 C 0.0187 0.14007 0.55579 0.0
H810 H 0.02917 0.21384 0.49297 0.0
H811 H 0.02129 0.14284 0.49323 0.0
S812 S 0.01891 0.18543 0.65526 0.0
N813 N 0.02549 0.22227 0.62647 0.0
N814 N 0.01419 0.14631 0.626 0.0
C815 C 0.01772 0.16245 0.59068 0.0
C816 C 0.02332 0.2037 0.59081 0.0
C817 C 0.53638 0.31219 0.44326 0.0
C818 C 0.55307 0.29447 0.47481 0.0
C819 C 0.52101 0.34811 0.44768 0.0
C820 C 0.52242 0.36911 0.48366 0.0
H821 H 0.53627 0.29904 0.41417 0.0
H822 H 0.50941 0.36021 0.42182 0.0
S823 S 0.5608 0.33555 0.57648 0.0
N824 N 0.56762 0.29985 0.54447 0.0
N825 N 0.54055 0.36912 0.55206 0.0
C826 C 0.53847 0.35192 0.51582 0.0
C827 C 0.55344 0.31438 0.51156 0.0
loop_
_geom_bond_atom_site_label_1
_geom_bond_atom_site_label_2
_geom_bond_distance
_geom_bond_site_symmetry_2
_ccdc_geom_bond_type
C0 C1 1.391 . S
C0 C4 1.391 . S
C0 H42 0.948 . S
C1 C0 1.391 . S
C1 C2 1.391 . S
C2 C1 1.391 . S
C2 H58 0.947 . S
C2 C59 1.392 . S
C3 C4 1.391 . S
C3 C7 1.397 . S
C3 C59 1.419 . S
C4 C0 1.391 . S
C4 C3 1.391 . S
C4 C5 1.399 . S
C5 C4 1.399 . S
C5 C8 1.396 . S
C5 C17 1.453 . S
C5 C18 1.684 . S
H6 C30 0.948 . S
C7 C3 1.397 . S
C7 C8 1.394 . S
C7 C26 1.723 . S
C8 C5 1.396 . S
C8 C7 1.394 . S
C8 C38 1.723 . S
H9 C32 0.947 . S
H10 C33 0.948 . S
H11 C39 0.982 . S
H12 C40 0.979 . S
H13 C40 0.980 . S
H14 C40 0.983 . S
H15 C39 0.979 . S
H16 C39 0.977 . S
C17 C5 1.453 . S
C17 H46 0.982 . S
C17 H47 0.979 . S
C17 H48 0.977 . S
C18 C5 1.684 . S
C18 H43 0.979 . S
C18 H44 0.980 . S
C18 H45 0.983 . S
C19 C20 1.391 . S
C19 C24 1.391 . S
C19 H49 0.948 . S
C20 C19 1.391 . S
C20 C21 1.391 . S
C21 C20 1.391 . S
C21 C22 1.392 . S
C21 H50 0.947 . S
C22 C21 1.392 . S
C22 C23 1.419 . S
C22 H51 0.948 . S
C23 C22 1.419 . S
C23 C24 1.391 . S
C23 C27 1.397 . S
C24 C19 1.391 . S
C24 C23 1.391 . S
C24 C25 1.399 . S
C25 C24 1.399 . S
C25 C26 1.396 . S
C25 C28 1.453 . S
C25 C29 1.684 . S
C26 C7 1.723 . S
C26 C25 1.396 . S
C26 C27 1.394 . S
C27 C23 1.397 . S
C27 C26 1.394 . S
C27 C37 1.723 . S
C28 C25 1.453 . S
C28 H52 0.982 . S
C28 H53 0.979 . S
C28 H54 0.977 . S
C29 C25 1.684 . S
C29 H55 0.979 . S
C29 H56 0.980 . S
C29 H57 0.983 . S
C30 H6 0.948 . S
C30 C31 1.391 . S
C30 C35 1.391 . S
C31 C30 1.391 . S
C31 C32 1.391 . S
C32 H9 0.947 . S
C32 C31 1.391 . S
C32 C33 1.392 . S
C33 H10 0.948 . S
C33 C32 1.392 . S
C33 C34 1.419 . S
C34 C33 1.419 . S
C34 C35 1.391 . S
C34 C38 1.397 . S
C35 C30 1.391 . S
C35 C34 1.391 . S
C35 C36 1.399 . S
C36 C35 1.399 . S
C36 C37 1.396 . S
C36 C39 1.453 . S
C36 C40 1.684 . S
C37 C27 1.723 . S
C37 C36 1.396 . S
C37 C38 1.394 . S
C38 C8 1.723 . S
C38 C34 1.397 . S
C38 C37 1.394 . S
C39 H11 0.982 . S
C39 H15 0.979 . S
C39 H16 0.977 . S
C39 C36 1.453 . S
C40 H12 0.979 . S
C40 H13 0.980 . S
C40 H14 0.983 . S
C40 C36 1.684 . S
H41 C59 0.948 . S
H42 C0 0.948 . S
H43 C18 0.979 . S
H44 C18 0.980 . S
H45 C18 0.983 . S
H46 C17 0.982 . S
H47 C17 0.979 . S
H48 C17 0.977 . S
H49 C19 0.948 . S
H50 C21 0.947 . S
H51 C22 0.948 . S
H52 C28 0.982 . S
H53 C28 0.979 . S
H54 C28 0.977 . S
H55 C29 0.979 . S
H56 C29 0.980 . S
H57 C29 0.983 . S
H58 C2 0.947 . S
C59 C2 1.392 . S
C59 C3 1.419 . S
C59 H41 0.948 . S
C60 C61 1.391 . S
C60 C64 1.391 . S
C60 H102 0.948 . S
C61 C60 1.391 . S
C61 C62 1.391 . S
C62 C61 1.391 . S
C62 H118 0.947 . S
C62 C119 1.392 . S
C63 C64 1.391 . S
C63 C67 1.397 . S
C63 C119 1.419 . S
C64 C60 1.391 . S
C64 C63 1.391 . S
C64 C65 1.399 . S
C65 C64 1.399 . S
C65 C68 1.396 . S
C65 C77 1.453 . S
C65 C78 1.684 . S
H66 C90 0.948 . S
C67 C63 1.397 . S
C67 C68 1.394 . S
C67 C86 1.723 . S
C68 C65 1.396 . S
C68 C67 1.394 . S
C68 C98 1.723 . S
H69 C92 0.947 . S
H70 C93 0.948 . S
H71 C99 0.982 . S
H72 C100 0.979 . S
H73 C100 0.980 . S
H74 C100 0.983 . S
H75 C99 0.979 . S
H76 C99 0.977 . S
C77 C65 1.453 . S
C77 H106 0.982 . S
C77 H107 0.979 . S
C77 H108 0.977 . S
C78 C65 1.684 . S
C78 H103 0.979 . S
C78 H104 0.980 . S
C78 H105 0.983 . S
C79 C80 1.391 . S
C79 C84 1.391 . S
C79 H109 0.948 . S
C80 C79 1.391 . S
C80 C81 1.391 . S
C81 C80 1.391 . S
C81 C82 1.392 . S
C81 H110 0.947 . S
C82 C81 1.392 . S
C82 C83 1.419 . S
C82 H111 0.948 . S
C83 C82 1.419 . S
C83 C84 1.391 . S
C83 C87 1.397 . S
C84 C79 1.391 . S
C84 C83 1.391 . S
C84 C85 1.399 . S
C85 C84 1.399 . S
C85 C86 1.396 . S
C85 C88 1.453 . S
C85 C89 1.684 . S
C86 C67 1.723 . S
C86 C85 1.396 . S
C86 C87 1.394 . S
C87 C83 1.397 . S
C87 C86 1.394 . S
C87 C97 1.723 . S
C88 C85 1.453 . S
C88 H112 0.982 . S
C88 H113 0.979 . S
C88 H114 0.977 . S
C89 C85 1.684 . S
C89 H115 0.979 . S
C89 H116 0.980 . S
C89 H117 0.983 . S
C90 H66 0.948 . S
C90 C91 1.391 . S
C90 C95 1.391 . S
C91 C90 1.391 . S
C91 C92 1.391 . S
C92 H69 0.947 . S
C92 C91 1.391 . S
C92 C93 1.392 . S
C93 H70 0.948 . S
C93 C92 1.392 . S
C93 C94 1.419 . S
C94 C93 1.419 . S
C94 C95 1.391 . S
C94 C98 1.397 . S
C95 C90 1.391 . S
C95 C94 1.391 . S
C95 C96 1.399 . S
C96 C95 1.399 . S
C96 C97 1.396 . S
C96 C99 1.453 . S
C96 C100 1.684 . S
C97 C87 1.723 . S
C97 C96 1.396 . S
C97 C98 1.394 . S
C98 C68 1.723 . S
C98 C94 1.397 . S
C98 C97 1.394 . S
C99 H71 0.982 . S
C99 H75 0.979 . S
C99 H76 0.977 . S
C99 C96 1.453 . S
C100 H72 0.979 . S
C100 H73 0.980 . S
C100 H74 0.983 . S
C100 C96 1.684 . S
H101 C119 0.948 . S
H102 C60 0.948 . S
H103 C78 0.979 . S
H104 C78 0.980 . S
H105 C78 0.983 . S
H106 C77 0.982 . S
H107 C77 0.979 . S
H108 C77 0.977 . S
H109 C79 0.948 . S
H110 C81 0.947 . S
H111 C82 0.948 . S
H112 C88 0.982 . S
H113 C88 0.979 . S
H114 C88 0.977 . S
H115 C89 0.979 . S
H116 C89 0.980 . S
H117 C89 0.983 . S
H118 C62 0.947 . S
C119 C62 1.392 . S
C119 C63 1.419 . S
C119 H101 0.948 . S
C120 C121 1.391 . S
C120 C124 1.391 . S
C120 H162 0.948 . S
C121 C120 1.391 . S
C121 C122 1.391 . S
C122 C121 1.391 . S
C122 H178 0.947 . S
C122 C179 1.392 . S
C123 C124 1.391 . S
C123 C127 1.397 . S
C123 C179 1.419 . S
C124 C120 1.391 . S
C124 C123 1.391 . S
C124 C125 1.399 . S
C125 C124 1.399 . S
C125 C128 1.396 . S
C125 C137 1.453 . S
C125 C138 1.684 . S
H126 C150 0.948 . S
C127 C123 1.397 . S
C127 C128 1.394 . S
C127 C146 1.723 . S
C128 C125 1.396 . S
C128 C127 1.394 . S
C128 C158 1.723 . S
H129 C152 0.947 . S
H130 C153 0.948 . S
H131 C159 0.982 . S
H132 C160 0.979 . S
H133 C160 0.980 . S
H134 C160 0.983 . S
H135 C159 0.979 . S
H136 C159 0.977 . S
C137 C125 1.453 . S
C137 H166 0.982 . S
C137 H167 0.979 . S
C137 H168 0.977 . S
C138 C125 1.684 . S
C138 H163 0.979 . S
C138 H164 0.980 . S
C138 H165 0.983 . S
C139 C140 1.391 . S
C139 C144 1.391 . S
C139 H169 0.948 . S
C140 C139 1.391 . S
C140 C141 1.391 . S
C141 C140 1.391 . S
C141 C142 1.392 . S
C141 H170 0.947 . S
C142 C141 1.392 . S
C142 C143 1.419 . S
C142 H171 0.948 . S
C143 C142 1.419 . S
C143 C144 1.391 . S
C143 C147 1.397 . S
C144 C139 1.391 . S
C144 C143 1.391 . S
C144 C145 1.399 . S
C145 C144 1.399 . S
C145 C146 1.396 . S
C145 C148 1.453 . S
C145 C149 1.684 . S
C146 C127 1.723 . S
C146 C145 1.396 . S
C146 C147 1.394 . S
C147 C143 1.397 . S
C147 C146 1.394 . S
C147 C157 1.723 . S
C148 C145 1.453 . S
C148 H172 0.982 . S
C148 H173 0.979 . S
C148 H174 0.977 . S
C149 C145 1.684 . S
C149 H175 0.979 . S
C149 H176 0.980 . S
C149 H177 0.983 . S
C150 H126 0.948 . S
C150 C151 1.391 . S
C150 C155 1.391 . S
C151 C150 1.391 . S
C151 C152 1.391 . S
C152 H129 0.947 . S
C152 C151 1.391 . S
C152 C153 1.392 . S
C153 H130 0.948 . S
C153 C152 1.392 . S
C153 C154 1.419 . S
C154 C153 1.419 . S
C154 C155 1.391 . S
C154 C158 1.397 . S
C155 C150 1.391 . S
C155 C154 1.391 . S
C155 C156 1.399 . S
C156 C155 1.399 . S
C156 C157 1.396 . S
C156 C159 1.453 . S
C156 C160 1.684 . S
C157 C147 1.723 . S
C157 C156 1.396 . S
C157 C158 1.394 . S
C158 C128 1.723 . S
C158 C154 1.397 . S
C158 C157 1.394 . S
C159 H131 0.982 . S
C159 H135 0.979 . S
C159 H136 0.977 . S
C159 C156 1.453 . S
C160 H132 0.979 . S
C160 H133 0.980 . S
C160 H134 0.983 . S
C160 C156 1.684 . S
H161 C179 0.948 . S
H162 C120 0.948 . S
H163 C138 0.979 . S
H164 C138 0.980 . S
H165 C138 0.983 . S
H166 C137 0.982 . S
H167 C137 0.979 . S
H168 C137 0.977 . S
H169 C139 0.948 . S
H170 C141 0.947 . S
H171 C142 0.948 . S
H172 C148 0.982 . S
H173 C148 0.979 . S
H174 C148 0.977 . S
H175 C149 0.979 . S
H176 C149 0.980 . S
H177 C149 0.983 . S
H178 C122 0.947 . S
C179 C122 1.392 . S
C179 C123 1.419 . S
C179 H161 0.948 . S
C180 C181 1.391 . S
C180 C184 1.391 . S
C180 H222 0.948 . S
C181 C180 1.391 . S
C181 C182 1.391 . S
C182 C181 1.391 . S
C182 H238 0.947 . S
C182 C239 1.392 . S
C183 C184 1.391 . S
C183 C187 1.397 . S
C183 C239 1.419 . S
C184 C180 1.391 . S
C184 C183 1.391 . S
C184 C185 1.399 . S
C185 C184 1.399 . S
C185 C188 1.396 . S
C185 C197 1.453 . S
C185 C198 1.684 . S
H186 C210 0.948 . S
C187 C183 1.397 . S
C187 C188 1.394 . S
C187 C206 1.723 . S
C188 C185 1.396 . S
C188 C187 1.394 . S
C188 C218 1.723 . S
H189 C212 0.947 . S
H190 C213 0.948 . S
H191 C219 0.982 . S
H192 C220 0.979 . S
H193 C220 0.980 . S
H194 C220 0.983 . S
H195 C219 0.979 . S
H196 C219 0.977 . S
C197 C185 1.453 . S
C197 H226 0.982 . S
C197 H227 0.979 . S
C197 H228 0.977 . S
C198 C185 1.684 . S
C198 H223 0.979 . S
C198 H224 0.980 . S
C198 H225 0.983 . S
C199 C200 1.391 . S
C199 C204 1.391 . S
C199 H229 0.948 . S
C200 C199 1.391 . S
C200 C201 1.391 . S
C201 C200 1.391 . S
C201 C202 1.392 . S
C201 H230 0.947 . S
C202 C201 1.392 . S
C202 C203 1.419 . S
C202 H231 0.948 . S
C203 C202 1.419 . S
C203 C204 1.391 . S
C203 C207 1.397 . S
C204 C199 1.391 . S
C204 C203 1.391 . S
C204 C205 1.399 . S
C205 C204 1.399 . S
C205 C206 1.396 . S
C205 C208 1.453 . S
C205 C209 1.684 . S
C206 C187 1.723 . S
C206 C205 1.396 . S
C206 C207 1.394 . S
C207 C203 1.397 . S
C207 C206 1.394 . S
C207 C217 1.723 . S
C208 C205 1.453 . S
C208 H232 0.982 . S
C208 H233 0.979 . S
C208 H234 0.977 . S
C209 C205 1.684 . S
C209 H235 0.979 . S
C209 H236 0.980 . S
C209 H237 0.983 . S
C210 H186 0.948 . S
C210 C211 1.391 . S
C210 C215 1.391 . S
C211 C210 1.391 . S
C211 C212 1.391 . S
C212 H189 0.947 . S
C212 C211 1.391 . S
C212 C213 1.392 . S
C213 H190 0.948 . S
C213 C212 1.392 . S
C213 C214 1.419 . S
C214 C213 1.419 . S
C214 C215 1.391 . S
C214 C218 1.397 . S
C215 C210 1.391 . S
C215 C214 1.391 . S
C215 C216 1.399 . S
C216 C215 1.399 . S
C216 C217 1.396 . S
C216 C219 1.453 . S
C216 C220 1.684 . S
C217 C207 1.723 . S
C217 C216 1.396 . S
C217 C218 1.394 . S
C218 C188 1.723 . S
C218 C214 1.397 . S
C218 C217 1.394 . S
C219 H191 0.982 . S
C219 H195 0.979 . S
C219 H196 0.977 . S
C219 C216 1.453 . S
C220 H192 0.979 . S
C220 H193 0.980 . S
C220 H194 0.983 . S
C220 C216 1.684 . S
H221 C239 0.948 . S
H222 C180 0.948 . S
H223 C198 0.979 . S
H224 C198 0.980 . S
H225 C198 0.983 . S
H226 C197 0.982 . S
H227 C197 0.979 . S
H228 C197 0.977 . S
H229 C199 0.948 . S
H230 C201 0.947 . S
H231 C202 0.948 . S
H232 C208 0.982 . S
H233 C208 0.979 . S
H234 C208 0.977 . S
H235 C209 0.979 . S
H236 C209 0.980 . S
H237 C209 0.983 . S
H238 C182 0.947 . S
C239 C182 1.392 . S
C239 C183 1.419 . S
C239 H221 0.948 . S
C240 C241 1.391 . S
C240 C244 1.391 . S
C240 H282 0.948 . S
C241 C240 1.391 . S
C241 C242 1.391 . S
C242 C241 1.391 . S
C242 H298 0.947 . S
C242 C299 1.392 . S
C243 C244 1.391 . S
C243 C247 1.397 . S
C243 C299 1.419 . S
C244 C240 1.391 . S
C244 C243 1.391 . S
C244 C245 1.399 . S
C245 C244 1.399 . S
C245 C248 1.396 . S
C245 C257 1.453 . S
C245 C258 1.684 . S
H246 C270 0.948 . S
C247 C243 1.397 . S
C247 C248 1.394 . S
C247 C266 1.723 . S
C248 C245 1.396 . S
C248 C247 1.394 . S
C248 C278 1.723 . S
H249 C272 0.947 . S
H250 C273 0.948 . S
H251 C279 0.982 . S
H252 C280 0.979 . S
H253 C280 0.980 . S
H254 C280 0.983 1_545 S
H255 C279 0.979 . S
H256 C279 0.977 . S
C257 C245 1.453 . S
C257 H286 0.982 . S
C257 H287 0.979 . S
C257 H288 0.977 . S
C258 C245 1.684 . S
C258 H283 0.979 . S
C258 H284 0.980 . S
C258 H285 0.983 1_556 S
C259 C260 1.391 . S
C259 C264 1.391 . S
C259 H289 0.948 . S
C260 C259 1.391 . S
C260 C261 1.391 . S
C261 C260 1.391 . S
C261 C262 1.392 . S
C261 H290 0.947 . S
C262 C261 1.392 . S
C262 C263 1.419 . S
C262 H291 0.948 . S
C263 C262 1.419 . S
C263 C264 1.391 . S
C263 C267 1.397 . S
C264 C259 1.391 . S
C264 C263 1.391 . S
C264 C265 1.399 . S
C265 C264 1.399 . S
C265 C266 1.396 . S
C265 C268 1.453 . S
C265 C269 1.684 . S
C266 C247 1.723 . S
C266 C265 1.396 . S
C266 C267 1.394 . S
C267 C263 1.397 . S
C267 C266 1.394 . S
C267 C277 1.723 . S
C268 C265 1.453 . S
C268 H292 0.982 . S
C268 H293 0.979 . S
C268 H294 0.977 . S
C269 C265 1.684 . S
C269 H295 0.979 . S
C269 H296 0.980 . S
C269 H297 0.983 . S
C270 H246 0.948 . S
C270 C271 1.391 . S
C270 C275 1.391 . S
C271 C270 1.391 . S
C271 C272 1.391 . S
C272 H249 0.947 . S
C272 C271 1.391 . S
C272 C273 1.392 . S
C273 H250 0.948 . S
C273 C272 1.392 . S
C273 C274 1.419 . S
C274 C273 1.419 . S
C274 C275 1.391 . S
C274 C278 1.397 . S
C275 C270 1.391 . S
C275 C274 1.391 . S
C275 C276 1.399 . S
C276 C275 1.399 . S
C276 C277 1.396 . S
C276 C279 1.453 . S
C276 C280 1.684 . S
C277 C267 1.723 . S
C277 C276 1.396 . S
C277 C278 1.394 . S
C278 C248 1.723 . S
C278 C274 1.397 . S
C278 C277 1.394 . S
C279 H251 0.982 . S
C279 H255 0.979 . S
C279 H256 0.977 . S
C279 C276 1.453 . S
C280 H252 0.979 . S
C280 H253 0.980 . S
C280 H254 0.983 1_565 S
C280 C276 1.684 . S
H281 C299 0.948 . S
H282 C240 0.948 . S
H283 C258 0.979 . S
H284 C258 0.980 . S
H285 C258 0.983 1_554 S
H286 C257 0.982 . S
H287 C257 0.979 . S
H288 C257 0.977 . S
H289 C259 0.948 . S
H290 C261 0.947 . S
H291 C262 0.948 . S
H292 C268 0.982 . S
H293 C268 0.979 . S
H294 C268 0.977 . S
H295 C269 0.979 . S
H296 C269 0.980 . S
H297 C269 0.983 . S
H298 C242 0.947 . S
C299 C242 1.392 . S
C299 C243 1.419 . S
C299 H281 0.948 . S
C300 C301 1.391 . S
C300 C304 1.391 . S
C300 H342 0.948 . S
C301 C300 1.391 . S
C301 C302 1.391 . S
C302 C301 1.391 . S
C302 H358 0.947 . S
C302 C359 1.392 . S
C303 C304 1.391 . S
C303 C307 1.397 . S
C303 C359 1.419 . S
C304 C300 1.391 . S
C304 C303 1.391 . S
C304 C305 1.399 . S
C305 C304 1.399 . S
C305 C308 1.396 . S
C305 C317 1.453 . S
C305 C318 1.684 . S
H306 C330 0.948 . S
C307 C303 1.397 . S
C307 C308 1.394 . S
C307 C326 1.723 . S
C308 C305 1.396 . S
C308 C307 1.394 . S
C308 C338 1.723 . S
H309 C332 0.947 . S
H310 C333 0.948 . S
H311 C339 0.982 . S
H312 C340 0.979 . S
H313 C340 0.980 . S
H314 C340 0.983 . S
H315 C339 0.979 . S
H316 C339 0.977 . S
C317 C305 1.453 . S
C317 H346 0.982 . S
C317 H347 0.979 . S
C317 H348 0.977 . S
C318 C305 1.684 . S
C318 H343 0.979 . S
C318 H344 0.980 . S
C318 H345 0.983 . S
C319 C320 1.391 . S
C319 C324 1.391 . S
C319 H349 0.948 . S
C320 C319 1.391 . S
C320 C321 1.391 . S
C321 C320 1.391 . S
C321 C322 1.392 . S
C321 H350 0.947 . S
C322 C321 1.392 . S
C322 C323 1.419 . S
C322 H351 0.948 . S
C323 C322 1.419 . S
C323 C324 1.391 . S
C323 C327 1.397 . S
C324 C319 1.391 . S
C324 C323 1.391 . S
C324 C325 1.399 . S
C325 C324 1.399 . S
C325 C326 1.396 . S
C325 C328 1.453 . S
C325 C329 1.684 . S
C326 C307 1.723 . S
C326 C325 1.396 . S
C326 C327 1.394 . S
C327 C323 1.397 . S
C327 C326 1.394 . S
C327 C337 1.723 . S
C328 C325 1.453 . S
C328 H352 0.982 . S
C328 H353 0.979 . S
C328 H354 0.977 . S
C329 C325 1.684 . S
C329 H355 0.979 . S
C329 H356 0.980 . S
C329 H357 0.983 . S
C330 H306 0.948 . S
C330 C331 1.391 . S
C330 C335 1.391 . S
C331 C330 1.391 . S
C331 C332 1.391 . S
C332 H309 0.947 . S
C332 C331 1.391 . S
C332 C333 1.392 . S
C333 H310 0.948 . S
C333 C332 1.392 . S
C333 C334 1.419 . S
C334 C333 1.419 . S
C334 C335 1.391 . S
C334 C338 1.397 . S
C335 C330 1.391 . S
C335 C334 1.391 . S
C335 C336 1.399 . S
C336 C335 1.399 . S
C336 C337 1.396 . S
C336 C339 1.453 . S
C336 C340 1.684 . S
C337 C327 1.723 . S
C337 C336 1.396 . S
C337 C338 1.394 . S
C338 C308 1.723 . S
C338 C334 1.397 . S
C338 C337 1.394 . S
C339 H311 0.982 . S
C339 H315 0.979 . S
C339 H316 0.977 . S
C339 C336 1.453 . S
C340 H312 0.979 . S
C340 H313 0.980 . S
C340 H314 0.983 . S
C340 C336 1.684 . S
H341 C359 0.948 . S
H342 C300 0.948 . S
H343 C318 0.979 . S
H344 C318 0.980 . S
H345 C318 0.983 . S
H346 C317 0.982 . S
H347 C317 0.979 . S
H348 C317 0.977 . S
H349 C319 0.948 . S
H350 C321 0.947 . S
H351 C322 0.948 . S
H352 C328 0.982 . S
H353 C328 0.979 . S
H354 C328 0.977 . S
H355 C329 0.979 . S
H356 C329 0.980 . S
H357 C329 0.983 . S
H358 C302 0.947 . S
C359 C302 1.392 . S
C359 C303 1.419 . S
C359 H341 0.948 . S
C360 C361 1.391 . S
C360 C364 1.391 . S
C360 H402 0.948 . S
C361 C360 1.391 . S
C361 C362 1.391 . S
C362 C361 1.391 . S
C362 H418 0.947 . S
C362 C419 1.392 . S
C363 C364 1.391 . S
C363 C367 1.397 . S
C363 C419 1.419 . S
C364 C360 1.391 . S
C364 C363 1.391 . S
C364 C365 1.399 . S
C365 C364 1.399 . S
C365 C368 1.396 . S
C365 C377 1.453 . S
C365 C378 1.684 . S
H366 C390 0.948 . S
C367 C363 1.397 . S
C367 C368 1.394 . S
C367 C386 1.723 . S
C368 C365 1.396 . S
C368 C367 1.394 . S
C368 C398 1.723 . S
H369 C392 0.947 . S
H370 C393 0.948 . S
H371 C399 0.982 . S
H372 C400 0.979 . S
H373 C400 0.980 . S
H374 C400 0.983 . S
H375 C399 0.979 . S
H376 C399 0.977 . S
C377 C365 1.453 . S
C377 H406 0.982 . S
C377 H407 0.979 . S
C377 H408 0.977 . S
C378 C365 1.684 . S
C378 H403 0.979 . S
C378 H404 0.980 . S
C378 H405 0.983 . S
C379 C380 1.391 . S
C379 C384 1.391 . S
C379 H409 0.948 . S
C380 C379 1.391 . S
C380 C381 1.391 . S
C381 C380 1.391 . S
C381 C382 1.392 . S
C381 H410 0.947 . S
C382 C381 1.392 . S
C382 C383 1.419 . S
C382 H411 0.948 . S
C383 C382 1.419 . S
C383 C384 1.391 . S
C383 C387 1.397 . S
C384 C379 1.391 . S
C384 C383 1.391 . S
C384 C385 1.399 . S
C385 C384 1.399 . S
C385 C386 1.396 . S
C385 C388 1.453 . S
C385 C389 1.684 . S
C386 C367 1.723 . S
C386 C385 1.396 . S
C386 C387 1.394 . S
C387 C383 1.397 . S
C387 C386 1.394 . S
C387 C397 1.723 . S
C388 C385 1.453 . S
C388 H412 0.982 . S
C388 H413 0.979 . S
C388 H414 0.977 . S
C389 C385 1.684 . S
C389 H415 0.979 . S
C389 H416 0.980 . S
C389 H417 0.983 . S
C390 H366 0.948 . S
C390 C391 1.391 . S
C390 C395 1.391 . S
C391 C390 1.391 . S
C391 C392 1.391 . S
C392 H369 0.947 . S
C392 C391 1.391 . S
C392 C393 1.392 . S
C393 H370 0.948 . S
C393 C392 1.392 . S
C393 C394 1.419 . S
C394 C393 1.419 . S
C394 C395 1.391 . S
C394 C398 1.397 . S
C395 C390 1.391 . S
C395 C394 1.391 . S
C395 C396 1.399 . S
C396 C395 1.399 . S
C396 C397 1.396 . S
C396 C399 1.453 . S
C396 C400 1.684 . S
C397 C387 1.723 . S
C397 C396 1.396 . S
C397 C398 1.394 . S
C398 C368 1.723 . S
C398 C394 1.397 . S
C398 C397 1.394 . S
C399 H371 0.982 . S
C399 H375 0.979 . S
C399 H376 0.977 . S
C399 C396 1.453 . S
C400 H372 0.979 . S
C400 H373 0.980 . S
C400 H374 0.983 . S
C400 C396 1.684 . S
H401 C419 0.948 . S
H402 C360 0.948 . S
H403 C378 0.979 . S
H404 C378 0.980 . S
H405 C378 0.983 . S
H406 C377 0.982 . S
H407 C377 0.979 . S
H408 C377 0.977 . S
H409 C379 0.948 . S
H410 C381 0.947 . S
H411 C382 0.948 . S
H412 C388 0.982 . S
H413 C388 0.979 . S
H414 C388 0.977 . S
H415 C389 0.979 . S
H416 C389 0.980 . S
H417 C389 0.983 . S
H418 C362 0.947 . S
C419 C362 1.392 . S
C419 C363 1.419 . S
C419 H401 0.948 . S
C420 C421 1.391 . S
C420 C424 1.391 . S
C420 H462 0.948 . S
C421 C420 1.391 . S
C421 C422 1.391 . S
C422 C421 1.391 . S
C422 H478 0.947 . S
C422 C479 1.392 . S
C423 C424 1.391 . S
C423 C427 1.397 . S
C423 C479 1.419 . S
C424 C420 1.391 . S
C424 C423 1.391 . S
C424 C425 1.399 . S
C425 C424 1.399 . S
C425 C428 1.396 . S
C425 C437 1.453 . S
C425 C438 1.684 . S
H426 C450 0.948 . S
C427 C423 1.397 . S
C427 C428 1.394 . S
C427 C446 1.723 . S
C428 C425 1.396 . S
C428 C427 1.394 . S
C428 C458 1.723 . S
H429 C452 0.947 . S
H430 C453 0.948 . S
H431 C459 0.982 . S
H432 C460 0.979 . S
H433 C460 0.980 . S
H434 C460 0.983 . S
H435 C459 0.979 . S
H436 C459 0.977 . S
C437 C425 1.453 . S
C437 H466 0.982 . S
C437 H467 0.991 . S
C437 H468 0.977 . S
C438 C425 1.684 . S
C438 H463 0.979 . S
C438 H464 0.980 . S
C438 H465 0.983 . S
C439 C440 1.391 . S
C439 C444 1.391 . S
C439 H469 0.948 . S
C440 C439 1.391 . S
C440 C441 1.391 . S
C441 C440 1.391 . S
C441 C442 1.392 . S
C441 H470 0.947 . S
C442 C441 1.392 . S
C442 C443 1.419 . S
C442 H471 0.948 . S
C443 C442 1.419 . S
C443 C444 1.391 . S
C443 C447 1.397 . S
C444 C439 1.391 . S
C444 C443 1.391 . S
C444 C445 1.399 . S
C445 C444 1.399 . S
C445 C446 1.396 . S
C445 C448 1.453 . S
C445 C449 1.684 . S
C446 C427 1.723 . S
C446 C445 1.396 . S
C446 C447 1.394 . S
C447 C443 1.397 . S
C447 C446 1.394 . S
C447 C457 1.723 . S
C448 C445 1.453 . S
C448 H472 0.982 . S
C448 H473 0.979 . S
C448 H474 0.977 . S
C449 C445 1.684 . S
C449 H475 0.979 . S
C449 H476 0.980 . S
C449 H477 0.983 . S
C450 H426 0.948 . S
C450 C451 1.391 . S
C450 C455 1.391 . S
C451 C450 1.391 . S
C451 C452 1.391 . S
C452 H429 0.947 . S
C452 C451 1.391 . S
C452 C453 1.392 . S
C453 H430 0.948 . S
C453 C452 1.392 . S
C453 C454 1.419 . S
C454 C453 1.419 . S
C454 C455 1.391 . S
C454 C458 1.397 . S
C455 C450 1.391 . S
C455 C454 1.391 . S
C455 C456 1.399 . S
C456 C455 1.399 . S
C456 C457 1.396 . S
C456 C459 1.453 . S
C456 C460 1.684 . S
C457 C447 1.723 . S
C457 C456 1.396 . S
C457 C458 1.394 . S
C458 C428 1.723 . S
C458 C454 1.397 . S
C458 C457 1.394 . S
C459 H431 0.982 . S
C459 H435 0.979 . S
C459 H436 0.977 . S
C459 C456 1.453 . S
C460 H432 0.979 . S
C460 H433 0.980 . S
C460 H434 0.983 . S
C460 C456 1.684 . S
H461 C479 0.948 . S
H462 C420 0.948 . S
H463 C438 0.979 . S
H464 C438 0.980 . S
H465 C438 0.983 . S
H466 C437 0.982 . S
H467 C437 0.991 . S
H468 C437 0.977 . S
H469 C439 0.948 . S
H470 C441 0.947 . S
H471 C442 0.948 . S
H472 C448 0.982 . S
H473 C448 0.979 . S
H474 C448 0.977 . S
H475 C449 0.979 . S
H476 C449 0.980 . S
H477 C449 0.983 . S
H478 C422 0.947 . S
C479 C422 1.392 . S
C479 C423 1.419 . S
C479 H461 0.948 . S
O480 Mg481 1.990 . S
O480 C494 1.253 1_445 S
Mg481 O480 1.990 . S
Mg481 O484 2.180 . S
Mg481 O485 2.117 . S
Mg481 O499 2.030 1_545 S
O482 Mg483 2.072 1_665 S
O482 C494 1.260 . S
Mg483 O482 2.072 1_445 S
Mg483 O484 2.099 . S
Mg483 O486 2.079 . S
Mg483 O487 2.072 1_455 S
Mg483 O489 2.099 1_445 S
Mg483 O500 2.079 1_545 S
O484 Mg481 2.180 . S
O484 Mg483 2.099 . S
O484 C495 1.279 . S
O485 Mg481 2.117 . S
O485 C495 1.250 . S
O486 Mg483 2.079 . S
O486 C496 1.264 . S
O487 Mg483 2.072 1_655 S
O487 C497 1.260 . S
Mg488 O489 2.180 . S
Mg488 O490 2.030 1_565 S
Mg488 O491 1.990 1_565 S
Mg488 O492 2.117 . S
O489 Mg483 2.099 1_665 S
O489 Mg488 2.180 . S
O489 C498 1.279 . S
O490 Mg488 2.030 1_545 S
O490 C496 1.248 1_655 S
O491 Mg488 1.990 1_545 S
O491 C497 1.253 . S
O492 Mg488 2.117 . S
O492 C498 1.250 . S
C493 O499 1.248 . S
C493 O500 1.264 . S
C494 O480 1.253 1_665 S
C494 O482 1.260 . S
C495 O484 1.279 . S
C495 O485 1.250 . S
C496 O486 1.264 . S
C496 O490 1.248 1_455 S
C497 O487 1.260 . S
C497 O491 1.253 . S
C498 O489 1.279 . S
C498 O492 1.250 . S
O499 Mg481 2.030 1_565 S
O499 C493 1.248 . S
O500 Mg483 2.079 1_565 S
O500 C493 1.264 . S
O501 Mg502 1.990 . S
O501 C515 1.253 . S
Mg502 O501 1.990 . S
Mg502 O505 2.161 1_554 S
Mg502 O506 2.117 1_554 S
Mg502 O520 2.030 . S
O503 Mg504 2.072 . S
O503 C515 1.260 . S
Mg504 O503 2.072 . S
Mg504 O505 2.094 1_554 S
Mg504 O507 2.079 1_544 S
Mg504 O508 2.072 1_554 S
Mg504 O510 2.099 1_545 S
Mg504 O521 2.079 . S
O505 Mg502 2.161 1_556 S
O505 Mg504 2.094 1_556 S
O505 C516 1.298 . S
O506 Mg502 2.117 1_556 S
O506 C516 1.250 . S
O507 Mg504 2.079 1_566 S
O507 C517 1.264 . S
O508 Mg504 2.072 1_556 S
O508 C518 1.260 1_545 S
Mg509 O510 2.180 1_556 S
Mg509 O511 2.030 . S
Mg509 O512 1.990 . S
Mg509 O513 2.117 1_556 S
O510 Mg504 2.099 1_565 S
O510 Mg509 2.180 1_554 S
O510 C519 1.279 . S
O511 Mg509 2.030 . S
O511 C517 1.248 . S
O512 Mg509 1.990 . S
O512 C518 1.253 . S
O513 Mg509 2.117 1_554 S
O513 C519 1.250 . S
C514 O520 1.248 . S
C514 O521 1.264 . S
C515 O501 1.253 . S
C515 O503 1.260 . S
C516 O505 1.298 . S
C516 O506 1.250 . S
C517 O507 1.264 . S
C517 O511 1.248 . S
C518 O508 1.260 1_565 S
C518 O512 1.253 . S
C519 O510 1.279 . S
C519 O513 1.250 . S
O520 Mg502 2.030 . S
O520 C514 1.248 . S
O521 Mg504 2.079 . S
O521 C514 1.264 . S
O522 Mg523 1.990 . S
O522 C536 1.253 . S
Mg523 O522 1.990 . S
Mg523 O526 2.180 . S
Mg523 O527 2.117 . S
Mg523 O541 2.030 . S
O524 Mg525 2.072 . S
O524 C536 1.260 . S
Mg525 O524 2.072 . S
Mg525 O526 2.099 . S
Mg525 O528 2.079 . S
Mg525 O529 2.072 . S
Mg525 O531 2.099 . S
Mg525 O542 2.079 . S
O526 Mg523 2.180 . S
O526 Mg525 2.099 . S
O526 C537 1.279 . S
O527 Mg523 2.117 . S
O527 C537 1.250 . S
O528 Mg525 2.079 . S
O528 C538 1.264 . S
O529 Mg525 2.072 . S
O529 C539 1.260 . S
Mg530 O531 2.180 . S
Mg530 O532 2.030 . S
Mg530 O533 1.990 . S
Mg530 O534 2.117 . S
O531 Mg525 2.099 . S
O531 Mg530 2.180 . S
O531 C540 1.279 . S
O532 Mg530 2.030 . S
O532 C538 1.248 . S
O533 Mg530 1.990 . S
O533 C539 1.253 . S
O534 Mg530 2.117 . S
O534 C540 1.250 . S
C535 O541 1.248 . S
C535 O542 1.264 . S
C536 O522 1.253 . S
C536 O524 1.260 . S
C537 O526 1.279 . S
C537 O527 1.250 . S
C538 O528 1.264 . S
C538 O532 1.248 . S
C539 O529 1.260 . S
C539 O533 1.253 . S
C540 O531 1.279 . S
C540 O534 1.250 . S
O541 Mg523 2.030 . S
O541 C535 1.248 . S
O542 Mg525 2.079 . S
O542 C535 1.264 . S
O543 Mg544 1.990 . S
O543 C557 1.253 . S
Mg544 O543 1.990 . S
Mg544 O547 2.180 1_455 S
Mg544 O548 2.117 1_455 S
Mg544 O562 2.030 . S
O545 Mg546 2.072 . S
O545 C557 1.260 . S
Mg546 O545 2.072 . S
Mg546 O547 2.099 1_455 S
Mg546 O549 2.079 1_454 S
Mg546 O550 2.072 1_455 S
Mg546 O552 2.099 1_554 S
Mg546 O563 2.079 . S
O547 Mg544 2.180 1_655 S
O547 Mg546 2.099 1_655 S
O547 C558 1.279 . S
O548 Mg544 2.117 1_655 S
O548 C558 1.250 . S
O549 Mg546 2.079 1_656 S
O549 C559 1.264 . S
O550 Mg546 2.072 1_655 S
O550 C560 1.260 1_554 S
Mg551 O552 2.180 1_655 S
Mg551 O553 2.030 . S
Mg551 O554 1.990 . S
Mg551 O555 2.117 . S
O552 Mg546 2.099 1_556 S
O552 Mg551 2.180 1_455 S
O552 C561 1.279 . S
O553 Mg551 2.030 . S
O553 C559 1.248 . S
O554 Mg551 1.990 . S
O554 C560 1.253 . S
O555 Mg551 2.117 . S
O555 C561 1.250 1_655 S
C556 O562 1.248 . S
C556 O563 1.264 . S
C557 O543 1.253 . S
C557 O545 1.260 . S
C558 O547 1.279 . S
C558 O548 1.250 . S
C559 O549 1.264 . S
C559 O553 1.248 . S
C560 O550 1.260 1_556 S
C560 O554 1.253 . S
C561 O552 1.279 . S
C561 O555 1.250 1_455 S
O562 Mg544 2.030 . S
O562 C556 1.248 . S
O563 Mg546 2.079 . S
O563 C556 1.264 . S
C564 C565 1.369 . S
C564 C566 1.419 . S
C564 H568 0.930 . S
C565 C564 1.369 . S
C565 C574 1.429 . S
C566 C564 1.419 . S
C566 C567 1.363 . S
C566 H569 0.929 . S
C567 C566 1.363 . S
C567 C573 1.428 . S
H568 C564 0.930 . S
H569 C566 0.929 . S
S570 N571 1.613 . S
S570 N572 1.610 . S
N571 S570 1.613 . S
N571 C574 1.350 1_655 S
N572 S570 1.610 . S
N572 C573 1.351 1_655 S
C573 C567 1.428 . S
C573 N572 1.351 1_455 S
C573 C574 1.434 . S
C574 C565 1.429 . S
C574 N571 1.350 1_455 S
C574 C573 1.434 . S
C575 C576 1.369 . S
C575 C577 1.419 . S
C575 H579 0.930 . S
C576 C575 1.369 . S
C576 C585 1.434 . S
C577 C575 1.419 . S
C577 C578 1.363 . S
C577 H580 0.929 . S
C578 C577 1.363 . S
C578 C584 1.428 1_565 S
H579 C575 0.930 . S
H580 C577 0.929 . S
S581 N582 1.613 . S
S581 N583 1.610 . S
N582 S581 1.613 . S
N582 C585 1.345 1_545 S
N583 S581 1.610 . S
N583 C584 1.351 . S
C584 C578 1.428 1_545 S
C584 N583 1.351 . S
C584 C585 1.433 1_545 S
C585 C576 1.434 . S
C585 N582 1.345 1_565 S
C585 C584 1.433 1_565 S
C586 C587 1.369 . S
C586 C588 1.419 . S
C586 H590 0.930 . S
C587 C586 1.369 . S
C587 C596 1.429 . S
C588 C586 1.419 . S
C588 C589 1.363 . S
C588 H591 0.929 . S
C589 C588 1.363 . S
C589 C595 1.428 . S
H590 C586 0.930 . S
H591 C588 0.929 . S
S592 N593 1.613 . S
S592 N594 1.610 . S
N593 S592 1.613 . S
N593 C596 1.350 . S
N594 S592 1.610 . S
N594 C595 1.351 . S
C595 C589 1.428 . S
C595 N594 1.351 . S
C595 C596 1.434 . S
C596 C587 1.429 . S
C596 N593 1.350 . S
C596 C595 1.434 . S
C597 C598 1.369 . S
C597 C599 1.419 . S
C597 H601 0.930 . S
C598 C597 1.369 . S
C598 C607 1.429 . S
C599 C597 1.419 . S
C599 C600 1.363 . S
C599 H602 0.929 . S
C600 C599 1.363 . S
C600 C606 1.428 . S
H601 C597 0.930 . S
H602 C599 0.929 . S
S603 N604 1.613 . S
S603 N605 1.610 . S
N604 S603 1.613 . S
N604 C607 1.350 . S
N605 S603 1.610 . S
N605 C606 1.351 . S
C606 C600 1.428 . S
C606 N605 1.351 . S
C606 C607 1.434 . S
C607 C598 1.429 . S
C607 N604 1.350 . S
C607 C606 1.434 . S
C608 C609 1.369 . S
C608 C610 1.419 . S
C608 H612 0.930 . S
C609 C608 1.369 . S
C609 C618 1.429 . S
C610 C608 1.419 . S
C610 C611 1.363 . S
C610 H613 0.929 . S
C611 C610 1.363 . S
C611 C617 1.428 . S
H612 C608 0.930 . S
H613 C610 0.929 . S
S614 N615 1.613 1_556 S
S614 N616 1.610 1_556 S
N615 S614 1.613 1_554 S
N615 C618 1.350 . S
N616 S614 1.610 1_554 S
N616 C617 1.351 . S
C617 C611 1.428 . S
C617 N616 1.351 . S
C617 C618 1.434 . S
C618 C609 1.429 . S
C618 N615 1.350 . S
C618 C617 1.434 . S
C619 C620 1.369 . S
C619 C621 1.419 . S
C619 H623 0.930 . S
C620 C619 1.369 . S
C620 C629 1.429 . S
C621 C619 1.419 . S
C621 C622 1.363 . S
C621 H624 0.929 . S
C622 C621 1.363 . S
C622 C628 1.428 . S
H623 C619 0.930 . S
H624 C621 0.929 . S
S625 N626 1.613 . S
S625 N627 1.610 . S
N626 S625 1.613 . S
N626 C629 1.350 1_545 S
N627 S625 1.610 . S
N627 C628 1.351 1_545 S
C628 C622 1.428 . S
C628 N627 1.351 1_565 S
C628 C629 1.434 . S
C629 C620 1.429 . S
C629 N626 1.350 1_565 S
C629 C628 1.434 . S
C630 C631 1.369 . S
C630 C632 1.419 . S
C630 H634 0.932 1_556 S
C631 C630 1.369 . S
C631 C640 1.429 . S
C632 C630 1.419 . S
C632 C633 1.363 . S
C632 H635 0.929 1_556 S
C633 C632 1.363 . S
C633 C639 1.428 . S
H634 C630 0.932 1_554 S
H635 C632 0.929 1_554 S
S636 N637 1.613 . S
S636 N638 1.610 . S
N637 S636 1.613 . S
N637 C640 1.350 . S
N638 S636 1.610 . S
N638 C639 1.351 . S
C639 C633 1.428 . S
C639 N638 1.351 . S
C639 C640 1.434 . S
C640 C631 1.429 . S
C640 N637 1.350 . S
C640 C639 1.434 . S
C641 C642 1.369 . S
C641 C643 1.419 . S
C641 H645 0.930 . S
C642 C641 1.369 . S
C642 C651 1.429 . S
C643 C641 1.419 . S
C643 C644 1.363 . S
C643 H646 0.929 . S
C644 C643 1.363 . S
C644 C650 1.428 . S
H645 C641 0.930 . S
H646 C643 0.929 . S
S647 N648 1.613 . S
S647 N649 1.610 . S
N648 S647 1.613 . S
N648 C651 1.350 . S
N649 S647 1.610 . S
N649 C650 1.351 . S
C650 C644 1.428 . S
C650 N649 1.351 . S
C650 C651 1.434 . S
C651 C642 1.429 . S
C651 N648 1.350 . S
C651 C650 1.434 . S
C652 C653 1.369 . S
C652 C654 1.419 . S
C652 H656 0.930 . S
C653 C652 1.369 . S
C653 C662 1.429 . S
C654 C652 1.419 . S
C654 C655 1.363 . S
C654 H657 0.929 . S
C655 C654 1.363 . S
C655 C661 1.428 . S
H656 C652 0.930 . S
H657 C654 0.929 . S
S658 N659 1.592 1_655 S
S658 N660 1.610 . S
N659 S658 1.592 1_455 S
N659 C662 1.368 . S
N660 S658 1.610 . S
N660 C661 1.351 1_655 S
C661 C655 1.428 . S
C661 N660 1.351 1_455 S
C661 C662 1.434 . S
C662 C653 1.429 . S
C662 N659 1.368 . S
C662 C661 1.434 . S
C663 C664 1.369 . S
C663 C665 1.419 . S
C663 H667 0.930 . S
C664 C663 1.369 . S
C664 C673 1.429 . S
C665 C663 1.419 . S
C665 C666 1.363 . S
C665 H668 0.929 . S
C666 C665 1.363 . S
C666 C672 1.428 . S
H667 C663 0.930 . S
H668 C665 0.929 . S
S669 N670 1.613 1_554 S
S669 N671 1.610 1_554 S
N670 S669 1.613 1_556 S
N670 C673 1.350 . S
N671 S669 1.610 1_556 S
N671 C672 1.351 . S
C672 C666 1.428 . S
C672 N671 1.351 . S
C672 C673 1.434 . S
C673 C664 1.429 . S
C673 N670 1.350 . S
C673 C672 1.434 . S
C674 C675 1.369 . S
C674 C676 1.419 . S
C674 H678 0.930 . S
C675 C674 1.369 . S
C675 C684 1.429 . S
C676 C674 1.419 . S
C676 C677 1.363 . S
C676 H679 0.929 . S
C677 C676 1.363 . S
C677 C683 1.428 . S
H678 C674 0.930 . S
H679 C676 0.929 . S
S680 N681 1.613 . S
S680 N682 1.610 . S
N681 S680 1.613 . S
N681 C684 1.350 1_455 S
N682 S680 1.610 . S
N682 C683 1.351 1_455 S
C683 C677 1.428 . S
C683 N682 1.351 1_655 S
C683 C684 1.434 . S
C684 C675 1.429 . S
C684 N681 1.350 1_655 S
C684 C683 1.434 . S
C685 C686 1.369 . S
C685 C687 1.419 . S
C685 H689 0.930 . S
C686 C685 1.369 . S
C686 C695 1.429 . S
C687 C685 1.419 . S
C687 C688 1.363 . S
C687 H690 0.929 . S
C688 C687 1.363 . S
C688 C694 1.428 . S
H689 C685 0.930 . S
H690 C687 0.929 . S
S691 N692 1.613 . S
S691 N693 1.610 . S
N692 S691 1.613 . S
N692 C695 1.350 . S
N693 S691 1.610 . S
N693 C694 1.351 . S
C694 C688 1.428 . S
C694 N693 1.351 . S
C694 C695 1.434 . S
C695 C686 1.429 . S
C695 N692 1.350 . S
C695 C694 1.434 . S
C696 C697 1.369 . S
C696 C698 1.419 . S
C696 H700 0.930 . S
C697 C696 1.369 . S
C697 C706 1.429 . S
C698 C696 1.419 . S
C698 C699 1.363 . S
C698 H701 0.929 . S
C699 C698 1.363 . S
C699 C705 1.428 . S
H700 C696 0.930 . S
H701 C698 0.929 . S
S702 N703 1.613 1_545 S
S702 N704 1.610 . S
N703 S702 1.613 1_565 S
N703 C706 1.350 1_455 S
N704 S702 1.610 . S
N704 C705 1.351 1_445 S
C705 C699 1.428 . S
C705 N704 1.351 1_665 S
C705 C706 1.434 . S
C706 C697 1.429 . S
C706 N703 1.350 1_655 S
C706 C705 1.434 . S
C707 C708 1.369 . S
C707 C709 1.419 . S
C707 H711 0.930 . S
C708 C707 1.369 . S
C708 C717 1.429 . S
C709 C707 1.419 . S
C709 C710 1.363 . S
C709 H712 0.929 . S
C710 C709 1.363 . S
C710 C716 1.428 . S
H711 C707 0.930 . S
H712 C709 0.929 . S
S713 N714 1.613 1_565 S
S713 N715 1.612 . S
N714 S713 1.613 1_545 S
N714 C717 1.350 . S
N715 S713 1.612 . S
N715 C716 1.348 1_565 S
C716 C710 1.428 . S
C716 N715 1.348 1_545 S
C716 C717 1.434 . S
C717 C708 1.429 . S
C717 N714 1.350 . S
C717 C716 1.434 . S
C718 C719 1.369 . S
C718 C720 1.419 . S
C718 H722 0.930 . S
C719 C718 1.369 . S
C719 C728 1.429 . S
C720 C718 1.419 . S
C720 C721 1.363 . S
C720 H723 0.929 . S
C721 C720 1.363 . S
C721 C727 1.428 . S
H722 C718 0.930 . S
H723 C720 0.929 . S
S724 N725 1.613 . S
S724 N726 1.610 . S
N725 S724 1.613 . S
N725 C728 1.350 . S
N726 S724 1.610 . S
N726 C727 1.351 . S
C727 C721 1.428 . S
C727 N726 1.351 . S
C727 C728 1.434 . S
C728 C719 1.429 . S
C728 N725 1.350 . S
C728 C727 1.434 . S
C729 C730 1.369 . S
C729 C731 1.419 . S
C729 H733 0.930 . S
C730 C729 1.369 . S
C730 C739 1.429 . S
C731 C729 1.419 . S
C731 C732 1.363 . S
C731 H734 0.929 . S
C732 C731 1.363 . S
C732 C738 1.428 . S
H733 C729 0.930 . S
H734 C731 0.929 . S
S735 N736 1.613 . S
S735 N737 1.610 . S
N736 S735 1.613 . S
N736 C739 1.350 . S
N737 S735 1.610 . S
N737 C738 1.351 . S
C738 C732 1.428 . S
C738 N737 1.351 . S
C738 C739 1.434 . S
C739 C730 1.429 . S
C739 N736 1.350 . S
C739 C738 1.434 . S
C740 C741 1.369 . S
C740 C742 1.419 . S
C740 H744 0.930 1_565 S
C741 C740 1.369 . S
C741 C750 1.429 . S
C742 C740 1.419 . S
C742 C743 1.363 . S
C742 H745 0.929 1_565 S
C743 C742 1.363 . S
C743 C749 1.428 . S
H744 C740 0.930 1_545 S
H745 C742 0.929 1_545 S
S746 N747 1.613 . S
S746 N748 1.610 . S
N747 S746 1.613 . S
N747 C750 1.350 . S
N748 S746 1.610 . S
N748 C749 1.351 . S
C749 C743 1.428 . S
C749 N748 1.351 . S
C749 C750 1.434 . S
C750 C741 1.429 . S
C750 N747 1.350 . S
C750 C749 1.434 . S
C751 C752 1.369 . S
C751 C753 1.419 . S
C751 H755 0.930 . S
C752 C751 1.369 . S
C752 C761 1.429 . S
C753 C751 1.419 . S
C753 C754 1.363 . S
C753 H756 0.929 . S
C754 C753 1.363 . S
C754 C760 1.428 . S
H755 C751 0.930 . S
H756 C753 0.929 . S
S757 N758 1.613 . S
S757 N759 1.610 . S
N758 S757 1.613 . S
N758 C761 1.350 . S
N759 S757 1.610 . S
N759 C760 1.351 . S
C760 C754 1.428 . S
C760 N759 1.351 . S
C760 C761 1.434 . S
C761 C752 1.429 . S
C761 N758 1.350 . S
C761 C760 1.434 . S
C762 C763 1.369 . S
C762 C764 1.419 . S
C762 H766 0.930 . S
C763 C762 1.369 . S
C763 C772 1.429 . S
C764 C762 1.419 . S
C764 C765 1.363 . S
C764 H767 0.929 . S
C765 C764 1.363 . S
C765 C771 1.428 . S
H766 C762 0.930 . S
H767 C764 0.929 . S
S768 N769 1.613 1_556 S
S768 N770 1.610 . S
N769 S768 1.613 1_554 S
N769 C772 1.350 . S
N770 S768 1.610 . S
N770 C771 1.351 1_556 S
C771 C765 1.428 . S
C771 N770 1.351 1_554 S
C771 C772 1.434 . S
C772 C763 1.429 . S
C772 N769 1.350 . S
C772 C771 1.434 . S
C773 C774 1.369 . S
C773 C775 1.419 . S
C773 H777 0.930 . S
C774 C773 1.369 . S
C774 C783 1.429 . S
C775 C773 1.419 . S
C775 C776 1.363 . S
C775 H778 0.929 . S
C776 C775 1.363 . S
C776 C782 1.428 . S
H777 C773 0.930 . S
H778 C775 0.929 . S
S779 N780 1.613 . S
S779 N781 1.610 . S
N780 S779 1.613 . S
N780 C783 1.350 . S
N781 S779 1.610 . S
N781 C782 1.351 . S
C782 C776 1.428 . S
C782 N781 1.351 . S
C782 C783 1.434 . S
C783 C774 1.429 . S
C783 N780 1.350 . S
C783 C782 1.434 . S
C784 C785 1.369 . S
C784 C786 1.419 . S
C784 H788 0.930 . S
C785 C784 1.369 . S
C785 C794 1.429 . S
C786 C784 1.419 . S
C786 C787 1.363 . S
C786 H789 0.921 1_655 S
C787 C786 1.363 . S
C787 C793 1.428 . S
H788 C784 0.930 . S
H789 C786 0.921 1_455 S
S790 N791 1.613 . S
S790 N792 1.610 . S
N791 S790 1.613 . S
N791 C794 1.350 1_554 S
N792 S790 1.610 . S
N792 C793 1.351 1_554 S
C793 C787 1.428 . S
C793 N792 1.351 1_556 S
C793 C794 1.434 . S
C794 C785 1.429 . S
C794 N791 1.350 1_556 S
C794 C793 1.434 . S
C795 C796 1.369 . S
C795 C797 1.419 . S
C795 H799 0.930 . S
C796 C795 1.369 . S
C796 C805 1.429 . S
C797 C795 1.419 . S
C797 C798 1.363 . S
C797 H800 0.929 . S
C798 C797 1.363 . S
C798 C804 1.428 . S
H799 C795 0.930 . S
H800 C797 0.929 . S
S801 N802 1.613 . S
S801 N803 1.610 . S
N802 S801 1.613 . S
N802 C805 1.350 . S
N803 S801 1.610 . S
N803 C804 1.351 . S
C804 C798 1.428 . S
C804 N803 1.351 . S
C804 C805 1.434 . S
C805 C796 1.429 . S
C805 N802 1.350 . S
C805 C804 1.434 . S
C806 C807 1.369 . S
C806 C808 1.419 . S
C806 H810 0.930 . S
C807 C806 1.369 . S
C807 C816 1.429 . S
C808 C806 1.419 . S
C808 C809 1.363 . S
C808 H811 0.929 . S
C809 C808 1.363 . S
C809 C815 1.428 . S
H810 C806 0.930 . S
H811 C808 0.929 . S
S812 N813 1.613 1_655 S
S812 N814 1.610 . S
N813 S812 1.613 1_455 S
N813 C816 1.350 . S
N814 S812 1.610 . S
N814 C815 1.351 1_655 S
C815 C809 1.428 . S
C815 N814 1.351 1_455 S
C815 C816 1.434 . S
C816 C807 1.429 . S
C816 N813 1.350 . S
C816 C815 1.434 . S
C817 C818 1.369 . S
C817 C819 1.419 . S
C817 H821 0.930 . S
C818 C817 1.369 . S
C818 C827 1.429 . S
C819 C817 1.419 . S
C819 C820 1.363 . S
C819 H822 0.929 . S
C820 C819 1.363 . S
C820 C826 1.428 . S
H821 C817 0.930 . S
H822 C819 0.929 . S
S823 N824 1.613 . S
S823 N825 1.610 . S
N824 S823 1.613 . S
N824 C827 1.350 . S
N825 S823 1.610 . S
N825 C826 1.351 . S
C826 C820 1.428 . S
C826 N825 1.351 . S
C826 C827 1.434 . S
C827 C818 1.429 . S
C827 N824 1.350 . S
C827 C826 1.434 . S
C565 C1 1.570 . S
C567 C496 1.529 . S
C576 C80 1.464 . S
C578 C518 1.473 . S
C589 C537 1.201 . S
C587 C140 1.454 . S
C598 C211 1.763 . S
C600 C558 1.441 . S
C611 C515 1.731 . S
C609 C31 1.760 . S
C622 C493 1.668 . S
C620 C61 1.633 . S
C633 C560 1.354 . S
C631 C151 1.360 . S
C644 C539 1.526 . S
C642 C200 1.503 . S
C653 C20 1.707 . S
C655 C557 1.673 . S
C666 C516 1.281 . S
C664 C121 1.585 . S
C675 C181 1.631 . S
C677 C498 1.592 . S
C686 C91 1.502 . S
C688 C536 1.559 . S
C699 C494 1.527 . S
C697 C260 1.621 . S
C708 C320 1.326 . S
C710 C514 1.344 . S
C719 C361 1.530 . S
C721 C540 1.268 . S
C730 C451 1.684 . S
C732 C561 1.378 . S
C741 C271 1.708 . S
C743 C517 1.689 . S
C754 C497 1.707 . S
C752 C301 1.686 . S
C765 C556 1.268 . S
C763 C380 1.299 . S
C776 C535 1.566 . S
C774 C440 1.555 . S
C785 C241 1.550 . S
C787 C559 1.541 . S
C798 C519 1.257 . S
C796 C391 1.557 . S
C809 C495 1.444 . S
C807 C421 1.490 . S
C818 C331 1.469 . S
C820 C538 1.496 . S
