# Generated by pormake.
# Topology pyr, (3,6)-cn, num edge types: 1
# Building blocks:
#     Node 0, Type 0, BuildingBlock: MIDCAF_clean_linker_0, # of connection points: 3
#     Node 1, Type 0, BuildingBlock: MIDCAF_clean_linker_0, # of connection points: 3
#     Node 2, Type 0, BuildingBlock: MIDCAF_clean_linker_0, # of connection points: 3
#     Node 3, Type 0, BuildingBlock: MIDCAF_clean_linker_0, # of connection points: 3
#     Node 4, Type 0, BuildingBlock: MIDCAF_clean_linker_0, # of connection points: 3
#     Node 5, Type 0, BuildingBlock: MIDCAF_clean_linker_0, # of connection points: 3
#     Node 6, Type 0, BuildingBlock: MIDCAF_clean_linker_0, # of connection points: 3
#     Node 7, Type 0, BuildingBlock: MIDCAF_clean_linker_0, # of connection points: 3
#     Node 8, Type 1, BuildingBlock: CIFDUS_clean_sbu_1, # of connection points: 6
#     Node 9, Type 1, BuildingBlock: CIFDUS_clean_sbu_1, # of connection points: 6
#     Node 10, Type 1, BuildingBlock: CIFDUS_clean_sbu_1, # of connection points: 6
#     Node 11, Type 1, BuildingBlock: CIFDUS_clean_sbu_1, # of connection points: 6
#     Edge 12, Type (0, 1), BuildingBlock: EYOCIG_clean_linker_4, # of connection points: 2
#     Edge 13, Type (0, 1), BuildingBlock: EYOCIG_clean_linker_4, # of connection points: 2
#     Edge 14, Type (0, 1), BuildingBlock: EYOCIG_clean_linker_4, # of connection points: 2
#     Edge 15, Type (0, 1), BuildingBlock: EYOCIG_clean_linker_4, # of connection points: 2
#     Edge 16, Type (0, 1), BuildingBlock: EYOCIG_clean_linker_4, # of connection points: 2
#     Edge 17, Type (0, 1), BuildingBlock: EYOCIG_clean_linker_4, # of connection points: 2
#     Edge 18, Type (0, 1), BuildingBlock: EYOCIG_clean_linker_4, # of connection points: 2
#     Edge 19, Type (0, 1), BuildingBlock: EYOCIG_clean_linker_4, # of connection points: 2
#     Edge 20, Type (0, 1), BuildingBlock: EYOCIG_clean_linker_4, # of connection points: 2
#     Edge 21, Type (0, 1), BuildingBlock: EYOCIG_clean_linker_4, # of connection points: 2
#     Edge 22, Type (0, 1), BuildingBlock: EYOCIG_clean_linker_4, # of connection points: 2
#     Edge 23, Type (0, 1), BuildingBlock: EYOCIG_clean_linker_4, # of connection points: 2
#     Edge 24, Type (0, 1), BuildingBlock: EYOCIG_clean_linker_4, # of connection points: 2
#     Edge 25, Type (0, 1), BuildingBlock: EYOCIG_clean_linker_4, # of connection points: 2
#     Edge 26, Type (0, 1), BuildingBlock: EYOCIG_clean_linker_4, # of connection points: 2
#     Edge 27, Type (0, 1), BuildingBlock: EYOCIG_clean_linker_4, # of connection points: 2
#     Edge 28, Type (0, 1), BuildingBlock: EYOCIG_clean_linker_4, # of connection points: 2
#     Edge 29, Type (0, 1), BuildingBlock: EYOCIG_clean_linker_4, # of connection points: 2
#     Edge 30, Type (0, 1), BuildingBlock: EYOCIG_clean_linker_4, # of connection points: 2
#     Edge 31, Type (0, 1), BuildingBlock: EYOCIG_clean_linker_4, # of connection points: 2
#     Edge 32, Type (0, 1), BuildingBlock: EYOCIG_clean_linker_4, # of connection points: 2
#     Edge 33, Type (0, 1), BuildingBlock: EYOCIG_clean_linker_4, # of connection points: 2
#     Edge 34, Type (0, 1), BuildingBlock: EYOCIG_clean_linker_4, # of connection points: 2
#     Edge 35, Type (0, 1), BuildingBlock: EYOCIG_clean_linker_4, # of connection points: 2
# Relax obj value: 0.036
# Max RMSD: 0.111
# Mean RMSD: 0.047
data_MOF--net-pry--node1-CIFDUS_clean_sbu_1--node2-MIDCAF_clean_linker_0--edge1-EYOCIG_clean_linker_4
_symmetry_space_group_name_H-M    P1
_symmetry_Int_Tables_number       1
_symmetry_cell_setting            triclinic
loop_
_symmetry_equiv_pos_as_xyz
'x, y, z'
_cell_length_a     37.54536
_cell_length_b     36.249268
_cell_length_c     36.234406
_cell_angle_alpha  91.950692
_cell_angle_beta   90.935884
_cell_angle_gamma 93.510484
loop_
_atom_site_label
_atom_site_type_symbol
_atom_site_fract_x
_atom_site_fract_y
_atom_site_fract_z
_atom_type_partial_charge
C0 C 0.07286 0.11693 0.24614 0.0
C1 C 0.09044 0.09044 0.26565 0.0
C2 C 0.12219 0.07751 0.25171 0.0
C3 C 0.1372 0.09227 0.21977 0.0
H4 H 0.21438 0.07728 0.14183 0.0
H5 H 0.26795 0.05234 0.11625 0.0
H6 H 0.27773 0.14199 0.04126 0.0
H7 H 0.22377 0.1674 0.06666 0.0
H8 H 0.15404 0.21694 0.05833 0.0
H9 H 0.12736 0.27057 0.03242 0.0
H10 H 0.05806 0.27743 0.12571 0.0
H11 H 0.08435 0.22383 0.15193 0.0
H12 H 0.07393 0.15282 0.20039 0.0
H13 H 0.0481 0.12704 0.25617 0.0
H14 H 0.13603 0.05681 0.26618 0.0
H15 H 0.16224 0.08237 0.21034 0.0
N16 N 0.16733 0.12455 0.15342 0.0
N17 N 0.16787 0.17011 0.10883 0.0
N18 N 0.12338 0.16773 0.15361 0.0
C19 C 0.18263 0.14034 0.12347 0.0
C20 C 0.1382 0.18397 0.12376 0.0
C21 C 0.13762 0.13796 0.16861 0.0
C22 C 0.21478 0.12471 0.10674 0.0
C23 C 0.22773 0.09185 0.11987 0.0
C24 C 0.2584 0.07738 0.10516 0.0
C25 C 0.277 0.09539 0.0771 0.0
C26 C 0.26385 0.12767 0.06308 0.0
C27 C 0.23299 0.1422 0.07772 0.0
C28 C 0.12167 0.21614 0.10746 0.0
C29 C 0.13316 0.22979 0.07344 0.0
C30 C 0.11786 0.26038 0.05848 0.0
C31 C 0.09096 0.27796 0.07727 0.0
C32 C 0.0789 0.26421 0.11082 0.0
C33 C 0.09404 0.23354 0.12577 0.0
C34 C 0.12066 0.1203 0.2011 0.0
C35 C 0.08783 0.13179 0.21426 0.0
C36 C 0.2684 0.9564 0.59748 0.0
C37 C 0.24878 0.93579 0.56972 0.0
C38 C 0.2627 0.90376 0.55449 0.0
C39 C 0.29461 0.89114 0.56846 0.0
H40 H 0.36973 0.81506 0.54996 0.0
H41 H 0.39563 0.76039 0.52291 0.0
H42 H 0.46936 0.7592 0.6153 0.0
H43 H 0.44395 0.81376 0.64279 0.0
H44 H 0.45422 0.88333 0.69411 0.0
H45 H 0.48252 0.91356 0.74952 0.0
H46 H 0.39358 0.98256 0.76119 0.0
H47 H 0.36499 0.95282 0.70604 0.0
H48 H 0.3143 0.9598 0.63368 0.0
H49 H 0.25842 0.98152 0.60929 0.0
H50 H 0.2482 0.8877 0.53272 0.0
H51 H 0.30394 0.86561 0.55687 0.0
N52 N 0.35926 0.86474 0.60016 0.0
N53 N 0.40336 0.8672 0.64682 0.0
N54 N 0.36045 0.91141 0.64659 0.0
C55 C 0.38841 0.85072 0.61576 0.0
C56 C 0.38966 0.89751 0.66242 0.0
C57 C 0.34511 0.89518 0.61533 0.0
C58 C 0.4045 0.8185 0.59871 0.0
C59 C 0.39154 0.80334 0.5645 0.0
C60 C 0.40639 0.77236 0.54887 0.0
C61 C 0.43412 0.75632 0.56734 0.0
C62 C 0.4479 0.77169 0.60083 0.0
C63 C 0.43319 0.80269 0.61649 0.0
C64 C 0.40718 0.91566 0.69566 0.0
C65 C 0.44065 0.90501 0.70837 0.0
C66 C 0.45701 0.92233 0.73984 0.0
C67 C 0.44001 0.95025 0.75895 0.0
C68 C 0.40702 0.96114 0.74636 0.0
C69 C 0.39071 0.94403 0.71493 0.0
C70 C 0.31321 0.91039 0.59801 0.0
C71 C 0.30031 0.94381 0.61153 0.0
C72 C 0.60824 0.2785 0.94252 0.0
C73 C 0.58058 0.25859 0.92272 0.0
C74 C 0.56527 0.27377 0.89172 0.0
C75 C 0.57975 0.30695 0.87837 0.0
H76 H 0.56353 0.38576 0.8017 0.0
H77 H 0.53963 0.4115 0.74548 0.0
H78 H 0.63203 0.48791 0.74154 0.0
H79 H 0.65626 0.46262 0.7972 0.0
H80 H 0.70862 0.47048 0.86345 0.0
H81 H 0.76319 0.49924 0.89287 0.0
H82 H 0.7702 0.40514 0.96174 0.0
H83 H 0.71617 0.37616 0.93296 0.0
H84 H 0.64524 0.32585 0.94407 0.0
H85 H 0.61998 0.26731 0.96693 0.0
H86 H 0.54355 0.25885 0.87647 0.0
H87 H 0.56851 0.31704 0.85319 0.0
N88 N 0.61273 0.37345 0.84966 0.0
N89 N 0.66001 0.41862 0.84954 0.0
N90 N 0.65876 0.37334 0.89404 0.0
C91 C 0.6288 0.40384 0.83473 0.0
C92 C 0.67512 0.40358 0.87913 0.0
C93 C 0.6275 0.35817 0.8795 0.0
C94 C 0.61228 0.42142 0.80328 0.0
C95 C 0.57856 0.40834 0.78912 0.0
C96 C 0.56467 0.42324 0.7573 0.0
C97 C 0.58463 0.45094 0.73933 0.0
C98 C 0.61659 0.46622 0.75509 0.0
C99 C 0.6305 0.45144 0.78674 0.0
C100 C 0.70813 0.42096 0.89591 0.0
C101 C 0.72183 0.45587 0.88482 0.0
C102 C 0.75276 0.47245 0.9016 0.0
C103 C 0.76999 0.45408 0.92937 0.0
C104 C 0.75668 0.4195 0.94036 0.0
C105 C 0.72589 0.40301 0.92384 0.0
C106 C 0.60961 0.3255 0.89611 0.0
C107 C 0.62281 0.31176 0.92921 0.0
C108 C 0.76669 0.5865 0.47128 0.0
C109 C 0.75009 0.55384 0.45605 0.0
C110 C 0.7676 0.53329 0.42916 0.0
C111 C 0.80113 0.54638 0.41673 0.0
H112 H 0.86784 0.53691 0.32897 0.0
H113 H 0.88579 0.51774 0.26706 0.0
H114 H 0.97688 0.59605 0.27531 0.0
H115 H 0.95923 0.61564 0.33733 0.0
H116 H 0.95233 0.68921 0.39149 0.0
H117 H 0.97427 0.75061 0.41523 0.0
H118 H 0.90278 0.74157 0.50668 0.0
H119 H 0.88046 0.68009 0.48313 0.0
H120 H 0.81152 0.62539 0.47101 0.0
H121 H 0.75342 0.60262 0.49207 0.0
H122 H 0.75503 0.50786 0.41712 0.0
H123 H 0.81388 0.53051 0.39539 0.0
N124 N 0.86646 0.58024 0.38662 0.0
N125 N 0.9124 0.62733 0.38809 0.0
N126 N 0.86754 0.62776 0.4323 0.0
C127 C 0.89693 0.59545 0.37221 0.0
C128 C 0.89799 0.64366 0.41837 0.0
C129 C 0.85164 0.59605 0.4167 0.0
C130 C 0.91137 0.57893 0.33775 0.0
C131 C 0.89206 0.54976 0.31803 0.0
C132 C 0.90233 0.53859 0.28258 0.0
C133 C 0.93197 0.55631 0.26626 0.0
C134 C 0.95343 0.58257 0.28719 0.0
C135 C 0.94317 0.59388 0.32263 0.0
C136 C 0.91405 0.67961 0.43488 0.0
C137 C 0.94141 0.69995 0.41686 0.0
C138 C 0.95408 0.73522 0.43047 0.0
C139 C 0.93996 0.75104 0.46254 0.0
C140 C 0.91398 0.73019 0.48172 0.0
C141 C 0.90113 0.69494 0.46805 0.0
C142 C 0.81744 0.58009 0.43122 0.0
C143 C 0.79997 0.59949 0.4591 0.0
C144 C 0.7697 0.9597 0.91055 0.0
C145 C 0.754 0.94553 0.9424 0.0
C146 C 0.77215 0.9196 0.96232 0.0
C147 C 0.80477 0.90714 0.94984 0.0
H148 H 0.87027 0.81899 0.95888 0.0
H149 H 0.89214 0.76153 0.98139 0.0
H150 H 0.97966 0.76974 0.90606 0.0
H151 H 0.9581 0.82725 0.88317 0.0
H152 H 0.95048 0.87709 0.8151 0.0
H153 H 0.97169 0.89772 0.75555 0.0
H154 H 0.90457 0.98988 0.76239 0.0
H155 H 0.88287 0.96953 0.82228 0.0
H156 H 0.8131 0.95851 0.87298 0.0
H157 H 0.7564 0.97986 0.89479 0.0
H158 H 0.76078 0.90841 0.98717 0.0
H159 H 0.81771 0.88668 0.96554 0.0
N160 N 0.86772 0.87579 0.91757 0.0
N161 N 0.91229 0.87647 0.87296 0.0
N162 N 0.86889 0.9203 0.87197 0.0
C163 C 0.89729 0.86117 0.90314 0.0
C164 C 0.89846 0.90609 0.85728 0.0
C165 C 0.85334 0.90545 0.90222 0.0
C166 C 0.9121 0.82774 0.91888 0.0
C167 C 0.89434 0.80886 0.94721 0.0
C168 C 0.90681 0.77594 0.96017 0.0
C169 C 0.93733 0.76128 0.94522 0.0
C170 C 0.95592 0.78052 0.91787 0.0
C171 C 0.94345 0.81344 0.90478 0.0
C172 C 0.91437 0.92123 0.82328 0.0
C173 C 0.94052 0.9021 0.80441 0.0
C174 C 0.95284 0.91389 0.77038 0.0
C175 C 0.93925 0.94488 0.75462 0.0
C176 C 0.91507 0.96563 0.77421 0.0
C177 C 0.90257 0.9538 0.8083 0.0
C178 C 0.82001 0.92041 0.91716 0.0
C179 C 0.80229 0.94739 0.8981 0.0
C180 C 0.61249 0.06975 0.27464 0.0
C181 C 0.58501 0.08669 0.25668 0.0
C182 C 0.57293 0.11994 0.27093 0.0
C183 C 0.58906 0.1367 0.30275 0.0
H184 H 0.57379 0.2124 0.38255 0.0
H185 H 0.54775 0.26631 0.41003 0.0
H186 H 0.63446 0.27971 0.48981 0.0
H187 H 0.66119 0.22534 0.46247 0.0
H188 H 0.71132 0.15542 0.46861 0.0
H189 H 0.76619 0.13174 0.49331 0.0
H190 H 0.77331 0.0608 0.39614 0.0
H191 H 0.7185 0.08405 0.37115 0.0
H192 H 0.65022 0.07285 0.31939 0.0
H193 H 0.62211 0.0441 0.26362 0.0
H194 H 0.55178 0.13339 0.25696 0.0
H195 H 0.57965 0.16272 0.313 0.0
N196 N 0.62137 0.1677 0.37042 0.0
N197 N 0.66525 0.16851 0.41725 0.0
N198 N 0.66403 0.12338 0.36929 0.0
C199 C 0.6362 0.18314 0.40206 0.0
C200 C 0.67932 0.13851 0.40096 0.0
C201 C 0.635 0.13781 0.35393 0.0
C202 C 0.61989 0.21484 0.42003 0.0
C203 C 0.58742 0.22653 0.40604 0.0
C204 C 0.57231 0.2572 0.42181 0.0
C205 C 0.5894 0.27665 0.45163 0.0
C206 C 0.62106 0.26466 0.46668 0.0
C207 C 0.6363 0.2338 0.45094 0.0
C208 C 0.71088 0.12225 0.41749 0.0
C209 C 0.7244 0.13465 0.45251 0.0
C210 C 0.75566 0.12102 0.46679 0.0
C211 C 0.77397 0.09505 0.44624 0.0
C212 C 0.75965 0.08114 0.41225 0.0
C213 C 0.72833 0.09458 0.39799 0.0
C214 C 0.61746 0.12025 0.3205 0.0
C215 C 0.62869 0.08642 0.3063 0.0
C216 C 0.25681 0.58032 0.12116 0.0
C217 C 0.24324 0.59407 0.08856 0.0
C218 C 0.26211 0.62228 0.07055 0.0
C219 C 0.29463 0.637 0.08503 0.0
H220 H 0.36427 0.72605 0.07746 0.0
H221 H 0.38761 0.78651 0.05802 0.0
H222 H 0.47794 0.78171 0.13228 0.0
H223 H 0.45489 0.72112 0.15216 0.0
H224 H 0.44504 0.66794 0.22215 0.0
H225 H 0.46414 0.64484 0.2816 0.0
H226 H 0.38759 0.55159 0.26782 0.0
H227 H 0.36829 0.57415 0.20858 0.0
H228 H 0.29943 0.5842 0.16119 0.0
H229 H 0.24209 0.55863 0.13544 0.0
H230 H 0.25154 0.63315 0.0454 0.0
H231 H 0.30865 0.65893 0.0705 0.0
N232 N 0.35934 0.66982 0.11829 0.0
N233 N 0.4055 0.66982 0.16262 0.0
N234 N 0.35812 0.62465 0.16291 0.0
C235 C 0.39067 0.68503 0.13268 0.0
C236 C 0.38942 0.63941 0.17769 0.0
C237 C 0.34296 0.63962 0.13324 0.0
C238 C 0.40724 0.7191 0.11714 0.0
C239 C 0.38935 0.7375 0.08941 0.0
C240 C 0.40267 0.77207 0.07815 0.0
C241 C 0.43396 0.78875 0.09442 0.0
C242 C 0.45338 0.76938 0.11989 0.0
C243 C 0.44008 0.73481 0.13129 0.0
C244 C 0.40458 0.62335 0.211 0.0
C245 C 0.43265 0.64221 0.23145 0.0
C246 C 0.44365 0.62905 0.26537 0.0
C247 C 0.42664 0.59704 0.27918 0.0
C248 C 0.40062 0.57667 0.25768 0.0
C249 C 0.38954 0.58977 0.22389 0.0
C250 C 0.30867 0.62359 0.11781 0.0
C251 C 0.28947 0.59501 0.13576 0.0
C252 C 0.08953 0.28205 0.54898 0.0
C253 C 0.05797 0.26588 0.56304 0.0
C254 C 0.03953 0.28549 0.58992 0.0
C255 C 0.05314 0.32038 0.60341 0.0
H256 H 0.04665 0.39265 0.69276 0.0
H257 H 0.03011 0.41359 0.75456 0.0
H258 H 0.10643 0.507 0.74987 0.0
H259 H 0.12346 0.48634 0.68805 0.0
H260 H 0.19252 0.47719 0.63643 0.0
H261 H 0.25145 0.49809 0.61389 0.0
H262 H 0.23737 0.42149 0.52048 0.0
H263 H 0.17883 0.40044 0.54248 0.0
H264 H 0.12796 0.32819 0.55131 0.0
H265 H 0.1042 0.26733 0.52825 0.0
H266 H 0.01507 0.27345 0.60114 0.0
H267 H 0.03859 0.33451 0.62463 0.0
N268 N 0.08697 0.38862 0.63623 0.0
N269 N 0.13244 0.43617 0.63706 0.0
N270 N 0.13165 0.38824 0.59188 0.0
C271 C 0.10213 0.42069 0.6517 0.0
C272 C 0.14727 0.42026 0.60698 0.0
C273 C 0.10146 0.37222 0.6062 0.0
C274 C 0.08732 0.43707 0.68586 0.0
C275 C 0.05955 0.41803 0.70446 0.0
C276 C 0.04989 0.43004 0.73977 0.0
C277 C 0.06783 0.46117 0.75696 0.0
C278 C 0.09278 0.48247 0.73714 0.0
C279 C 0.1026 0.47045 0.70186 0.0
C280 C 0.18111 0.43646 0.5917 0.0
C281 C 0.20172 0.46508 0.61083 0.0
C282 C 0.23542 0.47715 0.59797 0.0
C283 C 0.2489 0.46088 0.56579 0.0
C284 C 0.22756 0.43413 0.54554 0.0
C285 C 0.19408 0.422 0.55834 0.0
C286 C 0.08549 0.33633 0.59021 0.0
C287 C 0.10312 0.31692 0.56231 0.0
O288 O 0.95905 0.03532 0.50003 0.0
Mn289 Mn 0.00793 0.00954 0.5076 0.0
O290 O 0.93033 0.00752 0.4508 0.0
Mn291 Mn 0.96715 0.97845 0.4391 0.0
O292 O 0.0581 0.98495 0.51635 0.0
O293 O 0.02646 0.05727 0.53662 0.0
Mn294 Mn 0.0473 0.04198 0.57719 0.0
O295 O 0.98723 0.98629 0.55622 0.0
O296 O 0.08596 0.0162 0.56462 0.0
O297 O 0.02861 0.03253 0.45788 0.0
O298 O 1.00133 1.00047 0.41014 0.0
O299 O 0.05261 0.09159 0.58264 0.0
O300 O 0.01428 0.01704 0.60488 0.0
C301 C 0.97421 0.92907 0.46577 0.0
C302 C 0.93208 0.03111 0.47744 0.0
C303 C 0.08535 0.99182 0.53868 0.0
C304 C 0.03594 0.0902 0.55098 0.0
C305 C 0.99171 0.99288 0.59118 0.0
C306 C 0.02418 0.02496 0.42283 0.0
O307 O 0.98662 0.9614 0.48001 0.0
O308 O 0.95752 0.92922 0.43421 0.0
O309 O 0.49829 0.01738 0.95045 0.0
Mn310 Mn 0.51313 0.0202 0.00632 0.0
O311 O 0.49863 0.95785 0.93087 0.0
Mn312 Mn 0.51941 0.94217 0.97293 0.0
O313 O 0.52811 0.02483 0.06288 0.0
O314 O 0.52602 0.07636 1.00167 0.0
Mn315 Mn 0.50277 0.09602 0.03928 0.0
O316 O 0.45861 0.02692 0.01917 0.0
O317 O 0.52872 0.0855 0.07999 0.0
O318 O 0.56763 0.00989 0.99288 0.0
O319 O 0.56844 0.9495 0.97602 0.0
O320 O 0.50979 0.13387 0.00959 0.0
O321 O 0.45486 0.08416 0.0421 0.0
C322 C 0.48968 0.93138 0.01995 0.0
C323 C 0.49298 0.99136 0.92574 0.0
C324 C 0.53445 0.05211 0.08644 0.0
C325 C 0.52166 0.10872 0.98759 0.0
C326 C 0.4405 0.05301 0.03262 0.0
C327 C 0.58444 0.98095 0.98285 0.0
O328 O 0.50051 0.96484 0.01133 0.0
O329 O 0.49689 0.90491 0.99695 0.0
O330 O 0.55604 0.52716 0.50927 0.0
Mn331 Mn 0.5006 0.51286 0.50883 0.0
O332 O 0.57377 0.52742 0.45036 0.0
Mn333 Mn 0.53313 0.50248 0.4324 0.0
O334 O 0.4444 0.49782 0.5114 0.0
O335 O 0.50409 0.50602 0.56423 0.0
Mn336 Mn 0.47017 0.52959 0.58609 0.0
O337 O 0.49063 0.56795 0.51557 0.0
O338 O 0.42969 0.50161 0.57194 0.0
O339 O 0.51207 0.45765 0.49946 0.0
O340 O 0.53098 0.45266 0.44069 0.0
O341 O 0.50178 0.52134 0.62288 0.0
O342 O 0.47071 0.57785 0.57271 0.0
C343 C 0.48834 0.53105 0.42002 0.0
C344 C 0.57996 0.53239 0.48463 0.0
C345 C 0.42187 0.49364 0.53816 0.0
C346 C 0.52027 0.50817 0.59624 0.0
C347 C 0.47951 0.58886 0.54126 0.0
C348 C 0.52371 0.43907 0.47177 0.0
O349 O 0.49627 0.52172 0.4535 0.0
O350 O 0.50968 0.52135 0.39423 0.0
O351 O 0.95227 0.49457 0.00803 0.0
Mn352 Mn 0.00507 0.51471 0.01132 0.0
O353 O 0.93426 0.50193 0.95044 0.0
Mn354 Mn 0.97637 0.52515 0.93927 0.0
O355 O 0.05836 0.5353 0.0168 0.0
O356 O 0.99252 0.52161 0.06847 0.0
Mn357 Mn 0.03258 0.50172 0.08335 0.0
O358 O 0.01969 0.45938 0.01547 0.0
O359 O 0.07253 0.53099 0.07635 0.0
O360 O 0.99062 0.5706 0.00463 0.0
O361 O 0.97802 0.57532 0.94473 0.0
O362 O 0.0138 0.50925 0.12614 0.0
O363 O 0.03673 0.45273 0.07351 0.0
C364 C 0.0167 0.50002 0.91779 0.0
C365 C 0.92857 0.49169 0.98257 0.0
C366 C 0.08001 0.54089 0.04433 0.0
C367 C 0.98979 0.52258 0.10522 0.0
C368 C 0.03115 0.43968 0.04132 0.0
C369 C 0.98237 0.58982 0.97668 0.0
O370 O 0.01594 0.50467 0.95444 0.0
O371 O 0.99063 0.5091 0.89678 0.0
C372 C 0.06728 0.06872 0.3312 0.0
C373 C 0.07759 0.07879 0.30134 0.0
C374 C 0.05581 0.05718 0.36661 0.0
C375 C 0.04394 0.04525 0.39518 0.0
C376 C 0.46496 0.98146 0.82145 0.0
C377 C 0.45479 0.9664 0.79285 0.0
C378 C 0.47409 0.99505 0.85726 0.0
C379 C 0.48217 0.99935 0.88931 0.0
C380 C 0.57135 0.4672 0.6704 0.0
C381 C 0.57636 0.45899 0.70185 0.0
C382 C 0.56448 0.4764 0.63361 0.0
C383 C 0.54949 0.48765 0.60706 0.0
C384 C 0.94154 0.54737 0.19393 0.0
C385 C 0.93721 0.55146 0.22686 0.0
C386 C 0.94809 0.54347 0.15543 0.0
C387 C 0.96102 0.53716 0.12561 0.0
C388 C 0.33794 0.06859 0.0545 0.0
C389 C 0.31029 0.08139 0.06425 0.0
C390 C 0.37168 0.05538 0.04463 0.0
C391 C 0.40224 0.049 0.03735 0.0
C392 C 0.18332 0.95318 0.54973 0.0
C393 C 0.21314 0.94552 0.55904 0.0
C394 C 0.14775 0.962 0.54054 0.0
C395 C 0.11788 0.9724 0.53566 0.0
C396 C 0.82876 0.47554 0.96458 0.0
C397 C 0.80207 0.46922 0.94658 0.0
C398 C 0.86166 0.47795 0.98301 0.0
C399 C 0.89271 0.48196 0.99037 0.0
C400 C 0.68444 0.54027 0.47888 0.0
C401 C 0.71413 0.54387 0.46678 0.0
C402 C 0.64883 0.53963 0.49085 0.0
C403 C 0.61696 0.53743 0.49459 0.0
C404 C 0.06432 0.33817 0.05089 0.0
C405 C 0.07658 0.31074 0.06273 0.0
C406 C 0.05064 0.37164 0.03948 0.0
C407 C 0.04031 0.40212 0.03493 0.0
C408 C 0.56329 0.18851 0.93586 0.0
C409 C 0.5716 0.2205 0.9304 0.0
C410 C 0.55366 0.15125 0.94349 0.0
C411 C 0.54228 0.12375 0.95829 0.0
C412 C 0.96001 0.82152 0.48182 0.0
C413 C 0.95028 0.78944 0.4739 0.0
C414 C 0.96976 0.86037 0.48623 0.0
C415 C 0.97522 0.89361 0.48308 0.0
C416 C 0.45757 0.6937 0.54311 0.0
C417 C 0.44643 0.72229 0.5536 0.0
C418 C 0.4683 0.6582 0.53546 0.0
C419 C 0.47478 0.62637 0.53437 0.0
C420 C 0.95382 0.95739 0.68489 0.0
C421 C 0.94676 0.9523 0.71669 0.0
C422 C 0.96153 0.96305 0.64748 0.0
C423 C 0.97161 0.97255 0.6177 0.0
C424 C 0.56168 0.05868 0.19231 0.0
C425 C 0.57207 0.07178 0.22165 0.0
C426 C 0.5526 0.04821 0.15563 0.0
C427 C 0.54469 0.04536 0.12343 0.0
C428 C 0.43742 0.57857 0.34829 0.0
C429 C 0.43278 0.58731 0.31684 0.0
C430 C 0.445 0.56694 0.38423 0.0
C431 C 0.45961 0.55259 0.40933 0.0
C432 C 0.06198 0.47279 0.82918 0.0
C433 C 0.06485 0.46775 0.79626 0.0
C434 C 0.05733 0.47803 0.86771 0.0
C435 C 0.0455 0.48566 0.89763 0.0
C436 C 0.68939 0.96653 0.96191 0.0
C437 C 0.71878 0.95663 0.9535 0.0
C438 C 0.65406 0.9769 0.97077 0.0
C439 C 0.62301 0.98268 0.97732 0.0
C440 C 0.83793 0.0763 0.46841 0.0
C441 C 0.80877 0.08502 0.45857 0.0
C442 C 0.87258 0.06551 0.47756 0.0
C443 C 0.90135 0.05271 0.48157 0.0
C444 C 0.18104 0.57149 0.05958 0.0
C445 C 0.20924 0.58076 0.07394 0.0
C446 C 0.1466 0.56297 0.0454 0.0
C447 C 0.11581 0.55408 0.03936 0.0
C448 C 0.31599 0.4739 0.54482 0.0
C449 C 0.2856 0.46863 0.55512 0.0
C450 C 0.35252 0.47844 0.53495 0.0
C451 C 0.38438 0.48427 0.53108 0.0
C452 C 0.95766 0.69603 0.96659 0.0
C453 C 0.94849 0.72574 0.95679 0.0
C454 C 0.96763 0.66018 0.97598 0.0
C455 C 0.97518 0.62852 0.9804 0.0
C456 C 0.45139 0.859 0.08144 0.0
C457 C 0.44398 0.82697 0.08778 0.0
C458 C 0.46038 0.89553 0.07073 0.0
C459 C 0.47202 0.92091 0.05294 0.0
C460 C 0.03687 0.19684 0.54169 0.0
C461 C 0.04607 0.22828 0.55173 0.0
C462 C 0.02983 0.15829 0.53425 0.0
C463 C 0.02879 0.1249 0.53523 0.0
C464 C 0.56138 0.33844 0.47206 0.0
C465 C 0.57562 0.31059 0.46428 0.0
C466 C 0.54532 0.37217 0.47642 0.0
C467 C 0.53444 0.4026 0.47703 0.0
loop_
_geom_bond_atom_site_label_1
_geom_bond_atom_site_label_2
_geom_bond_distance
_geom_bond_site_symmetry_2
_ccdc_geom_bond_type
C0 C1 1.384 . S
C0 H13 0.947 . S
C0 C35 1.382 . S
C1 C0 1.384 . S
C1 C2 1.378 . S
C2 C1 1.378 . S
C2 C3 1.378 . S
C2 H14 0.952 . S
C3 C2 1.378 . S
C3 H15 0.950 . S
C3 C34 1.383 . S
H4 C23 0.947 . S
H5 C24 0.946 . S
H6 C26 0.953 . S
H7 C27 0.945 . S
H8 C29 0.952 . S
H9 C30 0.949 . S
H10 C32 0.950 . S
H11 C33 0.948 . S
H12 C35 0.951 . S
H13 C0 0.947 . S
H14 C2 0.952 . S
H15 C3 0.950 . S
N16 C19 1.382 . S
N16 C21 1.363 . S
N17 C19 1.371 . S
N17 C20 1.372 . S
N18 C20 1.361 . S
N18 C21 1.377 . S
C19 N16 1.382 . S
C19 N17 1.371 . S
C19 C22 1.480 . S
C20 N17 1.372 . S
C20 N18 1.361 . S
C20 C28 1.457 . S
C21 N16 1.363 . S
C21 N18 1.377 . S
C21 C34 1.479 . S
C22 C19 1.480 . S
C22 C23 1.383 . S
C22 C27 1.385 . S
C23 H4 0.947 . S
C23 C22 1.383 . S
C23 C24 1.388 . S
C24 H5 0.946 . S
C24 C23 1.388 . S
C24 C25 1.384 . S
C25 C24 1.384 . S
C25 C26 1.377 . S
C26 H6 0.953 . S
C26 C25 1.377 . S
C26 C27 1.369 . S
C27 H7 0.945 . S
C27 C22 1.385 . S
C27 C26 1.369 . S
C28 C20 1.457 . S
C28 C29 1.372 . S
C28 C33 1.364 . S
C29 H8 0.952 . S
C29 C28 1.372 . S
C29 C30 1.389 . S
C30 H9 0.949 . S
C30 C29 1.389 . S
C30 C31 1.387 . S
C31 C30 1.387 . S
C31 C32 1.372 . S
C32 H10 0.950 . S
C32 C31 1.372 . S
C32 C33 1.379 . S
C33 H11 0.948 . S
C33 C28 1.364 . S
C33 C32 1.379 . S
C34 C3 1.383 . S
C34 C21 1.479 . S
C34 C35 1.398 . S
C35 C0 1.382 . S
C35 H12 0.951 . S
C35 C34 1.398 . S
C36 C37 1.384 . S
C36 H49 0.947 . S
C36 C71 1.382 . S
C37 C36 1.384 . S
C37 C38 1.378 . S
C38 C37 1.378 . S
C38 C39 1.378 . S
C38 H50 0.952 . S
C39 C38 1.378 . S
C39 H51 0.950 . S
C39 C70 1.383 . S
H40 C59 0.947 . S
H41 C60 0.946 . S
H42 C62 0.953 . S
H43 C63 0.945 . S
H44 C65 0.952 . S
H45 C66 0.949 . S
H46 C68 0.950 . S
H47 C69 0.948 . S
H48 C71 0.951 . S
H49 C36 0.947 . S
H50 C38 0.952 . S
H51 C39 0.950 . S
N52 C55 1.382 . S
N52 C57 1.363 . S
N53 C55 1.371 . S
N53 C56 1.372 . S
N54 C56 1.361 . S
N54 C57 1.377 . S
C55 N52 1.382 . S
C55 N53 1.371 . S
C55 C58 1.480 . S
C56 N53 1.372 . S
C56 N54 1.361 . S
C56 C64 1.457 . S
C57 N52 1.363 . S
C57 N54 1.377 . S
C57 C70 1.479 . S
C58 C55 1.480 . S
C58 C59 1.383 . S
C58 C63 1.385 . S
C59 H40 0.947 . S
C59 C58 1.383 . S
C59 C60 1.388 . S
C60 H41 0.946 . S
C60 C59 1.388 . S
C60 C61 1.384 . S
C61 C60 1.384 . S
C61 C62 1.377 . S
C62 H42 0.953 . S
C62 C61 1.377 . S
C62 C63 1.369 . S
C63 H43 0.945 . S
C63 C58 1.385 . S
C63 C62 1.369 . S
C64 C56 1.457 . S
C64 C65 1.372 . S
C64 C69 1.364 . S
C65 H44 0.952 . S
C65 C64 1.372 . S
C65 C66 1.389 . S
C66 H45 0.949 . S
C66 C65 1.389 . S
C66 C67 1.387 . S
C67 C66 1.387 . S
C67 C68 1.372 . S
C68 H46 0.950 . S
C68 C67 1.372 . S
C68 C69 1.379 . S
C69 H47 0.948 . S
C69 C64 1.364 . S
C69 C68 1.379 . S
C70 C39 1.383 . S
C70 C57 1.479 . S
C70 C71 1.398 . S
C71 C36 1.382 . S
C71 H48 0.951 . S
C71 C70 1.398 . S
C72 C73 1.384 . S
C72 H85 0.947 . S
C72 C107 1.382 . S
C73 C72 1.384 . S
C73 C74 1.378 . S
C74 C73 1.378 . S
C74 C75 1.378 . S
C74 H86 0.952 . S
C75 C74 1.378 . S
C75 H87 0.950 . S
C75 C106 1.383 . S
H76 C95 0.947 . S
H77 C96 0.946 . S
H78 C98 0.953 . S
H79 C99 0.945 . S
H80 C101 0.952 . S
H81 C102 0.949 . S
H82 C104 0.950 . S
H83 C105 0.948 . S
H84 C107 0.951 . S
H85 C72 0.947 . S
H86 C74 0.952 . S
H87 C75 0.950 . S
N88 C91 1.382 . S
N88 C93 1.363 . S
N89 C91 1.371 . S
N89 C92 1.372 . S
N90 C92 1.361 . S
N90 C93 1.377 . S
C91 N88 1.382 . S
C91 N89 1.371 . S
C91 C94 1.480 . S
C92 N89 1.372 . S
C92 N90 1.361 . S
C92 C100 1.457 . S
C93 N88 1.363 . S
C93 N90 1.377 . S
C93 C106 1.479 . S
C94 C91 1.480 . S
C94 C95 1.383 . S
C94 C99 1.385 . S
C95 H76 0.947 . S
C95 C94 1.383 . S
C95 C96 1.388 . S
C96 H77 0.946 . S
C96 C95 1.388 . S
C96 C97 1.384 . S
C97 C96 1.384 . S
C97 C98 1.377 . S
C98 H78 0.953 . S
C98 C97 1.377 . S
C98 C99 1.369 . S
C99 H79 0.945 . S
C99 C94 1.385 . S
C99 C98 1.369 . S
C100 C92 1.457 . S
C100 C101 1.372 . S
C100 C105 1.364 . S
C101 H80 0.952 . S
C101 C100 1.372 . S
C101 C102 1.389 . S
C102 H81 0.949 . S
C102 C101 1.389 . S
C102 C103 1.387 . S
C103 C102 1.387 . S
C103 C104 1.372 . S
C104 H82 0.950 . S
C104 C103 1.372 . S
C104 C105 1.379 . S
C105 H83 0.948 . S
C105 C100 1.364 . S
C105 C104 1.379 . S
C106 C75 1.383 . S
C106 C93 1.479 . S
C106 C107 1.398 . S
C107 C72 1.382 . S
C107 H84 0.951 . S
C107 C106 1.398 . S
C108 C109 1.384 . S
C108 H121 0.947 . S
C108 C143 1.382 . S
C109 C108 1.384 . S
C109 C110 1.378 . S
C110 C109 1.378 . S
C110 C111 1.378 . S
C110 H122 0.952 . S
C111 C110 1.378 . S
C111 H123 0.950 . S
C111 C142 1.383 . S
H112 C131 0.947 . S
H113 C132 0.946 . S
H114 C134 0.953 . S
H115 C135 0.945 . S
H116 C137 0.952 . S
H117 C138 0.949 . S
H118 C140 0.950 . S
H119 C141 0.948 . S
H120 C143 0.951 . S
H121 C108 0.947 . S
H122 C110 0.952 . S
H123 C111 0.950 . S
N124 C127 1.382 . S
N124 C129 1.363 . S
N125 C127 1.371 . S
N125 C128 1.372 . S
N126 C128 1.361 . S
N126 C129 1.377 . S
C127 N124 1.382 . S
C127 N125 1.371 . S
C127 C130 1.480 . S
C128 N125 1.372 . S
C128 N126 1.361 . S
C128 C136 1.457 . S
C129 N124 1.363 . S
C129 N126 1.377 . S
C129 C142 1.479 . S
C130 C127 1.480 . S
C130 C131 1.383 . S
C130 C135 1.385 . S
C131 H112 0.947 . S
C131 C130 1.383 . S
C131 C132 1.388 . S
C132 H113 0.946 . S
C132 C131 1.388 . S
C132 C133 1.384 . S
C133 C132 1.384 . S
C133 C134 1.377 . S
C134 H114 0.953 . S
C134 C133 1.377 . S
C134 C135 1.369 . S
C135 H115 0.945 . S
C135 C130 1.385 . S
C135 C134 1.369 . S
C136 C128 1.457 . S
C136 C137 1.372 . S
C136 C141 1.364 . S
C137 H116 0.952 . S
C137 C136 1.372 . S
C137 C138 1.389 . S
C138 H117 0.949 . S
C138 C137 1.389 . S
C138 C139 1.387 . S
C139 C138 1.387 . S
C139 C140 1.372 . S
C140 H118 0.950 . S
C140 C139 1.372 . S
C140 C141 1.379 . S
C141 H119 0.948 . S
C141 C136 1.364 . S
C141 C140 1.379 . S
C142 C111 1.383 . S
C142 C129 1.479 . S
C142 C143 1.398 . S
C143 C108 1.382 . S
C143 H120 0.951 . S
C143 C142 1.398 . S
C144 C145 1.384 . S
C144 H157 0.947 . S
C144 C179 1.382 . S
C145 C144 1.384 . S
C145 C146 1.378 . S
C146 C145 1.378 . S
C146 C147 1.378 . S
C146 H158 0.952 . S
C147 C146 1.378 . S
C147 H159 0.950 . S
C147 C178 1.383 . S
H148 C167 0.947 . S
H149 C168 0.946 . S
H150 C170 0.953 . S
H151 C171 0.945 . S
H152 C173 0.952 . S
H153 C174 0.949 . S
H154 C176 0.950 . S
H155 C177 0.948 . S
H156 C179 0.951 . S
H157 C144 0.947 . S
H158 C146 0.952 . S
H159 C147 0.950 . S
N160 C163 1.382 . S
N160 C165 1.363 . S
N161 C163 1.371 . S
N161 C164 1.372 . S
N162 C164 1.361 . S
N162 C165 1.377 . S
C163 N160 1.382 . S
C163 N161 1.371 . S
C163 C166 1.480 . S
C164 N161 1.372 . S
C164 N162 1.361 . S
C164 C172 1.457 . S
C165 N160 1.363 . S
C165 N162 1.377 . S
C165 C178 1.479 . S
C166 C163 1.480 . S
C166 C167 1.383 . S
C166 C171 1.385 . S
C167 H148 0.947 . S
C167 C166 1.383 . S
C167 C168 1.388 . S
C168 H149 0.946 . S
C168 C167 1.388 . S
C168 C169 1.384 . S
C169 C168 1.384 . S
C169 C170 1.377 . S
C170 H150 0.953 . S
C170 C169 1.377 . S
C170 C171 1.369 . S
C171 H151 0.945 . S
C171 C166 1.385 . S
C171 C170 1.369 . S
C172 C164 1.457 . S
C172 C173 1.372 . S
C172 C177 1.364 . S
C173 H152 0.952 . S
C173 C172 1.372 . S
C173 C174 1.389 . S
C174 H153 0.949 . S
C174 C173 1.389 . S
C174 C175 1.387 . S
C175 C174 1.387 . S
C175 C176 1.372 . S
C176 H154 0.950 . S
C176 C175 1.372 . S
C176 C177 1.379 . S
C177 H155 0.948 . S
C177 C172 1.364 . S
C177 C176 1.379 . S
C178 C147 1.383 . S
C178 C165 1.479 . S
C178 C179 1.398 . S
C179 C144 1.382 . S
C179 H156 0.951 . S
C179 C178 1.398 . S
C180 C181 1.384 . S
C180 H193 0.947 . S
C180 C215 1.382 . S
C181 C180 1.384 . S
C181 C182 1.378 . S
C182 C181 1.378 . S
C182 C183 1.378 . S
C182 H194 0.952 . S
C183 C182 1.378 . S
C183 H195 0.950 . S
C183 C214 1.383 . S
H184 C203 0.947 . S
H185 C204 0.946 . S
H186 C206 0.953 . S
H187 C207 0.945 . S
H188 C209 0.952 . S
H189 C210 0.949 . S
H190 C212 0.950 . S
H191 C213 0.948 . S
H192 C215 0.951 . S
H193 C180 0.947 . S
H194 C182 0.952 . S
H195 C183 0.950 . S
N196 C199 1.382 . S
N196 C201 1.363 . S
N197 C199 1.371 . S
N197 C200 1.372 . S
N198 C200 1.361 . S
N198 C201 1.377 . S
C199 N196 1.382 . S
C199 N197 1.371 . S
C199 C202 1.480 . S
C200 N197 1.372 . S
C200 N198 1.361 . S
C200 C208 1.457 . S
C201 N196 1.363 . S
C201 N198 1.377 . S
C201 C214 1.479 . S
C202 C199 1.480 . S
C202 C203 1.383 . S
C202 C207 1.385 . S
C203 H184 0.947 . S
C203 C202 1.383 . S
C203 C204 1.388 . S
C204 H185 0.946 . S
C204 C203 1.388 . S
C204 C205 1.384 . S
C205 C204 1.384 . S
C205 C206 1.377 . S
C206 H186 0.953 . S
C206 C205 1.377 . S
C206 C207 1.369 . S
C207 H187 0.945 . S
C207 C202 1.385 . S
C207 C206 1.369 . S
C208 C200 1.457 . S
C208 C209 1.372 . S
C208 C213 1.364 . S
C209 H188 0.952 . S
C209 C208 1.372 . S
C209 C210 1.389 . S
C210 H189 0.949 . S
C210 C209 1.389 . S
C210 C211 1.387 . S
C211 C210 1.387 . S
C211 C212 1.372 . S
C212 H190 0.950 . S
C212 C211 1.372 . S
C212 C213 1.379 . S
C213 H191 0.948 . S
C213 C208 1.364 . S
C213 C212 1.379 . S
C214 C183 1.383 . S
C214 C201 1.479 . S
C214 C215 1.398 . S
C215 C180 1.382 . S
C215 H192 0.951 . S
C215 C214 1.398 . S
C216 C217 1.384 . S
C216 H229 0.947 . S
C216 C251 1.382 . S
C217 C216 1.384 . S
C217 C218 1.378 . S
C218 C217 1.378 . S
C218 C219 1.378 . S
C218 H230 0.952 . S
C219 C218 1.378 . S
C219 H231 0.950 . S
C219 C250 1.383 . S
H220 C239 0.947 . S
H221 C240 0.946 . S
H222 C242 0.953 . S
H223 C243 0.945 . S
H224 C245 0.952 . S
H225 C246 0.949 . S
H226 C248 0.950 . S
H227 C249 0.948 . S
H228 C251 0.951 . S
H229 C216 0.947 . S
H230 C218 0.952 . S
H231 C219 0.950 . S
N232 C235 1.382 . S
N232 C237 1.363 . S
N233 C235 1.371 . S
N233 C236 1.372 . S
N234 C236 1.361 . S
N234 C237 1.377 . S
C235 N232 1.382 . S
C235 N233 1.371 . S
C235 C238 1.480 . S
C236 N233 1.372 . S
C236 N234 1.361 . S
C236 C244 1.457 . S
C237 N232 1.363 . S
C237 N234 1.377 . S
C237 C250 1.479 . S
C238 C235 1.480 . S
C238 C239 1.383 . S
C238 C243 1.385 . S
C239 H220 0.947 . S
C239 C238 1.383 . S
C239 C240 1.388 . S
C240 H221 0.946 . S
C240 C239 1.388 . S
C240 C241 1.384 . S
C241 C240 1.384 . S
C241 C242 1.377 . S
C242 H222 0.953 . S
C242 C241 1.377 . S
C242 C243 1.369 . S
C243 H223 0.945 . S
C243 C238 1.385 . S
C243 C242 1.369 . S
C244 C236 1.457 . S
C244 C245 1.372 . S
C244 C249 1.364 . S
C245 H224 0.952 . S
C245 C244 1.372 . S
C245 C246 1.389 . S
C246 H225 0.949 . S
C246 C245 1.389 . S
C246 C247 1.387 . S
C247 C246 1.387 . S
C247 C248 1.372 . S
C248 H226 0.950 . S
C248 C247 1.372 . S
C248 C249 1.379 . S
C249 H227 0.948 . S
C249 C244 1.364 . S
C249 C248 1.379 . S
C250 C219 1.383 . S
C250 C237 1.479 . S
C250 C251 1.398 . S
C251 C216 1.382 . S
C251 H228 0.951 . S
C251 C250 1.398 . S
C252 C253 1.384 . S
C252 H265 0.947 . S
C252 C287 1.382 . S
C253 C252 1.384 . S
C253 C254 1.378 . S
C254 C253 1.378 . S
C254 C255 1.378 . S
C254 H266 0.952 . S
C255 C254 1.378 . S
C255 H267 0.950 . S
C255 C286 1.383 . S
H256 C275 0.947 . S
H257 C276 0.946 . S
H258 C278 0.953 . S
H259 C279 0.945 . S
H260 C281 0.952 . S
H261 C282 0.949 . S
H262 C284 0.950 . S
H263 C285 0.948 . S
H264 C287 0.951 . S
H265 C252 0.947 . S
H266 C254 0.952 . S
H267 C255 0.950 . S
N268 C271 1.382 . S
N268 C273 1.363 . S
N269 C271 1.371 . S
N269 C272 1.372 . S
N270 C272 1.361 . S
N270 C273 1.377 . S
C271 N268 1.382 . S
C271 N269 1.371 . S
C271 C274 1.480 . S
C272 N269 1.372 . S
C272 N270 1.361 . S
C272 C280 1.457 . S
C273 N268 1.363 . S
C273 N270 1.377 . S
C273 C286 1.479 . S
C274 C271 1.480 . S
C274 C275 1.383 . S
C274 C279 1.385 . S
C275 H256 0.947 . S
C275 C274 1.383 . S
C275 C276 1.388 . S
C276 H257 0.946 . S
C276 C275 1.388 . S
C276 C277 1.384 . S
C277 C276 1.384 . S
C277 C278 1.377 . S
C278 H258 0.953 . S
C278 C277 1.377 . S
C278 C279 1.369 . S
C279 H259 0.945 . S
C279 C274 1.385 . S
C279 C278 1.369 . S
C280 C272 1.457 . S
C280 C281 1.372 . S
C280 C285 1.364 . S
C281 H260 0.952 . S
C281 C280 1.372 . S
C281 C282 1.389 . S
C282 H261 0.949 . S
C282 C281 1.389 . S
C282 C283 1.387 . S
C283 C282 1.387 . S
C283 C284 1.372 . S
C284 H262 0.950 . S
C284 C283 1.372 . S
C284 C285 1.379 . S
C285 H263 0.948 . S
C285 C280 1.364 . S
C285 C284 1.379 . S
C286 C255 1.383 . S
C286 C273 1.479 . S
C286 C287 1.398 . S
C287 C252 1.382 . S
C287 H264 0.951 . S
C287 C286 1.398 . S
O288 Mn289 2.163 1_655 S
O288 C302 1.244 . S
Mn289 O288 2.163 1_455 S
Mn289 O292 2.160 1_545 S
Mn289 O293 2.221 . S
Mn289 O295 2.163 1_445 S
Mn289 O297 2.160 . S
Mn289 O307 2.221 1_445 S
O290 Mn291 2.087 1_545 S
O290 C302 1.256 . S
Mn291 O290 2.087 1_565 S
Mn291 O298 2.089 1_565 S
Mn291 O307 2.290 . S
Mn291 O308 2.251 . S
O292 Mn289 2.160 1_565 S
O292 C303 1.239 . S
O293 Mn289 2.221 . S
O293 Mn294 2.290 . S
O293 C304 1.278 . S
Mn294 O293 2.290 . S
Mn294 O296 2.089 1_545 S
Mn294 O299 2.251 . S
Mn294 O300 2.087 . S
O295 Mn289 2.163 1_665 S
O295 C305 1.244 . S
O296 Mn294 2.089 1_565 S
O296 C303 1.256 . S
O297 Mn289 2.160 . S
O297 C306 1.239 . S
O298 Mn291 2.089 1_545 S
O298 C306 1.256 1_655 S
O299 Mn294 2.251 . S
O299 C304 1.241 . S
O300 Mn294 2.087 . S
O300 C305 1.256 1_445 S
C301 O307 1.278 . S
C301 O308 1.241 . S
C302 O288 1.244 . S
C302 O290 1.256 . S
C303 O292 1.239 . S
C303 O296 1.256 . S
C304 O293 1.278 . S
C304 O299 1.241 . S
C305 O295 1.244 . S
C305 O300 1.256 1_665 S
C306 O297 1.239 . S
C306 O298 1.256 1_455 S
O307 Mn289 2.221 1_665 S
O307 Mn291 2.290 . S
O307 C301 1.278 . S
O308 Mn291 2.251 . S
O308 C301 1.241 . S
O309 Mn310 2.163 1_556 S
O309 C323 1.244 1_545 S
Mn310 O309 2.163 1_554 S
Mn310 O313 2.160 . S
Mn310 O314 2.221 1_554 S
Mn310 O316 2.163 . S
Mn310 O318 2.160 1_554 S
Mn310 O328 2.221 1_545 S
O311 Mn312 2.087 . S
O311 C323 1.256 . S
Mn312 O311 2.087 . S
Mn312 O319 2.089 . S
Mn312 O328 2.290 1_556 S
Mn312 O329 2.251 1_556 S
O313 Mn310 2.160 . S
O313 C324 1.239 . S
O314 Mn310 2.221 1_556 S
O314 Mn315 2.290 1_556 S
O314 C325 1.278 . S
Mn315 O314 2.290 1_554 S
Mn315 O317 2.089 . S
Mn315 O320 2.251 1_554 S
Mn315 O321 2.087 . S
O316 Mn310 2.163 . S
O316 C326 1.244 . S
O317 Mn315 2.089 . S
O317 C324 1.256 . S
O318 Mn310 2.160 1_556 S
O318 C327 1.239 1_545 S
O319 Mn312 2.089 . S
O319 C327 1.256 . S
O320 Mn315 2.251 1_556 S
O320 C325 1.241 . S
O321 Mn315 2.087 . S
O321 C326 1.256 . S
C322 O328 1.278 . S
C322 O329 1.241 . S
C323 O309 1.244 1_565 S
C323 O311 1.256 . S
C324 O313 1.239 . S
C324 O317 1.256 . S
C325 O314 1.278 . S
C325 O320 1.241 . S
C326 O316 1.244 . S
C326 O321 1.256 . S
C327 O318 1.239 1_565 S
C327 O319 1.256 . S
O328 Mn310 2.221 1_565 S
O328 Mn312 2.290 1_554 S
O328 C322 1.278 . S
O329 Mn312 2.251 1_554 S
O329 C322 1.241 . S
O330 Mn331 2.163 . S
O330 C344 1.244 . S
Mn331 O330 2.163 . S
Mn331 O334 2.160 . S
Mn331 O335 2.221 . S
Mn331 O337 2.163 . S
Mn331 O339 2.160 . S
Mn331 O349 2.221 . S
O332 Mn333 2.087 . S
O332 C344 1.256 . S
Mn333 O332 2.087 . S
Mn333 O340 2.089 . S
Mn333 O349 2.290 . S
Mn333 O350 2.251 . S
O334 Mn331 2.160 . S
O334 C345 1.239 . S
O335 Mn331 2.221 . S
O335 Mn336 2.290 . S
O335 C346 1.278 . S
Mn336 O335 2.290 . S
Mn336 O338 2.089 . S
Mn336 O341 2.251 . S
Mn336 O342 2.087 . S
O337 Mn331 2.163 . S
O337 C347 1.244 . S
O338 Mn336 2.089 . S
O338 C345 1.256 . S
O339 Mn331 2.160 . S
O339 C348 1.239 . S
O340 Mn333 2.089 . S
O340 C348 1.256 . S
O341 Mn336 2.251 . S
O341 C346 1.241 . S
O342 Mn336 2.087 . S
O342 C347 1.256 . S
C343 O349 1.278 . S
C343 O350 1.241 . S
C344 O330 1.244 . S
C344 O332 1.256 . S
C345 O334 1.239 . S
C345 O338 1.256 . S
C346 O335 1.278 . S
C346 O341 1.241 . S
C347 O337 1.244 . S
C347 O342 1.256 . S
C348 O339 1.239 . S
C348 O340 1.256 . S
O349 Mn331 2.221 . S
O349 Mn333 2.290 . S
O349 C343 1.278 . S
O350 Mn333 2.251 . S
O350 C343 1.241 . S
O351 Mn352 2.163 1_655 S
O351 C365 1.244 1_554 S
Mn352 O351 2.163 1_455 S
Mn352 O355 2.160 . S
Mn352 O356 2.221 1_455 S
Mn352 O358 2.163 . S
Mn352 O360 2.160 1_454 S
Mn352 O370 2.221 1_554 S
O353 Mn354 2.087 . S
O353 C365 1.256 . S
Mn354 O353 2.087 . S
Mn354 O361 2.089 . S
Mn354 O370 2.290 1_655 S
Mn354 O371 2.251 . S
O355 Mn352 2.160 . S
O355 C366 1.239 . S
O356 Mn352 2.221 1_655 S
O356 Mn357 2.290 1_655 S
O356 C367 1.278 . S
Mn357 O356 2.290 1_455 S
Mn357 O359 2.089 . S
Mn357 O362 2.251 1_455 S
Mn357 O363 2.087 . S
O358 Mn352 2.163 . S
O358 C368 1.244 . S
O359 Mn357 2.089 . S
O359 C366 1.256 . S
O360 Mn352 2.160 1_656 S
O360 C369 1.239 . S
O361 Mn354 2.089 . S
O361 C369 1.256 . S
O362 Mn357 2.251 1_655 S
O362 C367 1.241 . S
O363 Mn357 2.087 . S
O363 C368 1.256 . S
C364 O370 1.278 . S
C364 O371 1.241 1_455 S
C365 O351 1.244 1_556 S
C365 O353 1.256 . S
C366 O355 1.239 . S
C366 O359 1.256 . S
C367 O356 1.278 . S
C367 O362 1.241 . S
C368 O358 1.244 . S
C368 O363 1.256 . S
C369 O360 1.239 . S
C369 O361 1.256 . S
O370 Mn352 2.221 1_556 S
O370 Mn354 2.290 1_455 S
O370 C364 1.278 . S
O371 Mn354 2.251 . S
O371 C364 1.241 1_655 S
C372 C373 1.170 . S
C372 C374 1.380 . S
C373 C372 1.170 . S
C374 C372 1.380 . S
C374 C375 1.170 . S
C375 C374 1.170 . S
C376 C377 1.170 . S
C376 C378 1.380 . S
C377 C376 1.170 . S
C378 C376 1.380 . S
C378 C379 1.170 . S
C379 C378 1.170 . S
C380 C381 1.170 . S
C380 C382 1.380 . S
C381 C380 1.170 . S
C382 C380 1.380 . S
C382 C383 1.170 . S
C383 C382 1.170 . S
C384 C385 1.170 . S
C384 C386 1.380 . S
C385 C384 1.170 . S
C386 C384 1.380 . S
C386 C387 1.170 . S
C387 C386 1.170 . S
C388 C389 1.170 . S
C388 C390 1.380 . S
C389 C388 1.170 . S
C390 C388 1.380 . S
C390 C391 1.170 . S
C391 C390 1.170 . S
C392 C393 1.170 . S
C392 C394 1.380 . S
C393 C392 1.170 . S
C394 C392 1.380 . S
C394 C395 1.170 . S
C395 C394 1.170 . S
C396 C397 1.170 . S
C396 C398 1.380 . S
C397 C396 1.170 . S
C398 C396 1.380 . S
C398 C399 1.170 . S
C399 C398 1.170 . S
C400 C401 1.170 . S
C400 C402 1.380 . S
C401 C400 1.170 . S
C402 C400 1.380 . S
C402 C403 1.170 . S
C403 C402 1.170 . S
C404 C405 1.170 . S
C404 C406 1.380 . S
C405 C404 1.170 . S
C406 C404 1.380 . S
C406 C407 1.170 . S
C407 C406 1.170 . S
C408 C409 1.170 . S
C408 C410 1.380 . S
C409 C408 1.170 . S
C410 C408 1.380 . S
C410 C411 1.170 . S
C411 C410 1.170 . S
C412 C413 1.170 . S
C412 C414 1.380 . S
C413 C412 1.170 . S
C414 C412 1.380 . S
C414 C415 1.170 . S
C415 C414 1.170 . S
C416 C417 1.170 . S
C416 C418 1.380 . S
C417 C416 1.170 . S
C418 C416 1.380 . S
C418 C419 1.170 . S
C419 C418 1.170 . S
C420 C421 1.170 . S
C420 C422 1.380 . S
C421 C420 1.170 . S
C422 C420 1.380 . S
C422 C423 1.170 . S
C423 C422 1.170 . S
C424 C425 1.170 . S
C424 C426 1.380 . S
C425 C424 1.170 . S
C426 C424 1.380 . S
C426 C427 1.170 . S
C427 C426 1.170 . S
C428 C429 1.170 . S
C428 C430 1.380 . S
C429 C428 1.170 . S
C430 C428 1.380 . S
C430 C431 1.170 . S
C431 C430 1.170 . S
C432 C433 1.170 . S
C432 C434 1.380 . S
C433 C432 1.170 . S
C434 C432 1.380 . S
C434 C435 1.170 . S
C435 C434 1.170 . S
C436 C437 1.170 . S
C436 C438 1.380 . S
C437 C436 1.170 . S
C438 C436 1.380 . S
C438 C439 1.170 . S
C439 C438 1.170 . S
C440 C441 1.170 . S
C440 C442 1.380 . S
C441 C440 1.170 . S
C442 C440 1.380 . S
C442 C443 1.170 . S
C443 C442 1.170 . S
C444 C445 1.170 . S
C444 C446 1.380 . S
C445 C444 1.170 . S
C446 C444 1.380 . S
C446 C447 1.170 . S
C447 C446 1.170 . S
C448 C449 1.170 . S
C448 C450 1.380 . S
C449 C448 1.170 . S
C450 C448 1.380 . S
C450 C451 1.170 . S
C451 C450 1.170 . S
C452 C453 1.170 . S
C452 C454 1.380 . S
C453 C452 1.170 . S
C454 C452 1.380 . S
C454 C455 1.170 . S
C455 C454 1.170 . S
C456 C457 1.170 . S
C456 C458 1.380 . S
C457 C456 1.170 . S
C458 C456 1.380 . S
C458 C459 1.170 . S
C459 C458 1.170 . S
C460 C461 1.170 . S
C460 C462 1.380 . S
C461 C460 1.170 . S
C462 C460 1.380 . S
C462 C463 1.170 . S
C463 C462 1.170 . S
C464 C465 1.170 . S
C464 C466 1.380 . S
C465 C464 1.170 . S
C466 C464 1.380 . S
C466 C467 1.170 . S
C467 C466 1.170 . S
C373 C1 1.576 . S
C375 C306 1.564 . S
C377 C67 1.522 . S
C379 C323 1.503 . S
C383 C346 1.237 . S
C381 C97 1.432 . S
C385 C133 1.849 . S
C387 C367 1.499 . S
C391 C326 1.751 . S
C389 C25 1.769 . S
C395 C303 1.679 . S
C393 C37 1.671 . S
C399 C365 1.335 . S
C397 C103 1.403 . S
C403 C344 1.492 . S
C401 C109 1.549 . S
C405 C31 1.701 . S
C407 C368 1.692 . S
C411 C325 1.327 . S
C409 C73 1.598 . S
C413 C139 1.725 . S
C415 C301 1.585 . S
C417 C61 1.511 . S
C419 C347 1.553 . S
C423 C305 1.566 . S
C421 C175 1.655 . S
C425 C181 1.350 . S
C427 C324 1.342 . S
C429 C247 1.546 . S
C431 C343 1.308 . S
C433 C277 1.783 . S
C435 C364 1.377 . S
C437 C145 1.738 . S
C439 C327 1.700 . S
C443 C302 1.716 . S
C441 C211 1.740 . S
C447 C366 1.226 . S
C445 C217 1.297 . S
C451 C345 1.603 . S
C449 C283 1.632 . S
C453 C169 1.586 . S
C455 C369 1.562 . S
C459 C322 1.290 . S
C457 C241 1.533 . S
C463 C304 1.387 . S
C461 C253 1.518 . S
C465 C205 1.469 . S
C467 C348 1.497 . S
