# Generated by pormake.
# Topology ptr, (4,4)-cn, num edge types: 1
# Building blocks:
#     Node 0, Type 0, BuildingBlock: QUQFOY_clean_sbu_1, # of connection points: 4
#     Node 1, Type 0, BuildingBlock: QUQFOY_clean_sbu_1, # of connection points: 4
#     Node 2, Type 0, BuildingBlock: QUQFOY_clean_sbu_1, # of connection points: 4
#     Node 3, Type 0, BuildingBlock: QUQFOY_clean_sbu_1, # of connection points: 4
#     Node 4, Type 0, BuildingBlock: QUQFOY_clean_sbu_1, # of connection points: 4
#     Node 5, Type 0, BuildingBlock: QUQFOY_clean_sbu_1, # of connection points: 4
#     Node 6, Type 0, BuildingBlock: QUQFOY_clean_sbu_1, # of connection points: 4
#     Node 7, Type 0, BuildingBlock: QUQFOY_clean_sbu_1, # of connection points: 4
#     Node 8, Type 0, BuildingBlock: QUQFOY_clean_sbu_1, # of connection points: 4
#     Node 9, Type 0, BuildingBlock: QUQFOY_clean_sbu_1, # of connection points: 4
#     Node 10, Type 0, BuildingBlock: QUQFOY_clean_sbu_1, # of connection points: 4
#     Node 11, Type 0, BuildingBlock: QUQFOY_clean_sbu_1, # of connection points: 4
#     Node 12, Type 0, BuildingBlock: QUQFOY_clean_sbu_1, # of connection points: 4
#     Node 13, Type 0, BuildingBlock: QUQFOY_clean_sbu_1, # of connection points: 4
#     Node 14, Type 0, BuildingBlock: QUQFOY_clean_sbu_1, # of connection points: 4
#     Node 15, Type 0, BuildingBlock: QUQFOY_clean_sbu_1, # of connection points: 4
#     Node 16, Type 0, BuildingBlock: QUQFOY_clean_sbu_1, # of connection points: 4
#     Node 17, Type 0, BuildingBlock: QUQFOY_clean_sbu_1, # of connection points: 4
#     Node 18, Type 1, BuildingBlock: AZAVOO_clean_linker_0, # of connection points: 4
#     Node 19, Type 1, BuildingBlock: AZAVOO_clean_linker_0, # of connection points: 4
#     Node 20, Type 1, BuildingBlock: AZAVOO_clean_linker_0, # of connection points: 4
#     Node 21, Type 1, BuildingBlock: AZAVOO_clean_linker_0, # of connection points: 4
#     Node 22, Type 1, BuildingBlock: AZAVOO_clean_linker_0, # of connection points: 4
#     Node 23, Type 1, BuildingBlock: AZAVOO_clean_linker_0, # of connection points: 4
#     Node 24, Type 1, BuildingBlock: AZAVOO_clean_linker_0, # of connection points: 4
#     Node 25, Type 1, BuildingBlock: AZAVOO_clean_linker_0, # of connection points: 4
#     Node 26, Type 1, BuildingBlock: AZAVOO_clean_linker_0, # of connection points: 4
#     Node 27, Type 1, BuildingBlock: AZAVOO_clean_linker_0, # of connection points: 4
#     Node 28, Type 1, BuildingBlock: AZAVOO_clean_linker_0, # of connection points: 4
#     Node 29, Type 1, BuildingBlock: AZAVOO_clean_linker_0, # of connection points: 4
#     Node 30, Type 1, BuildingBlock: AZAVOO_clean_linker_0, # of connection points: 4
#     Node 31, Type 1, BuildingBlock: AZAVOO_clean_linker_0, # of connection points: 4
#     Node 32, Type 1, BuildingBlock: AZAVOO_clean_linker_0, # of connection points: 4
#     Node 33, Type 1, BuildingBlock: AZAVOO_clean_linker_0, # of connection points: 4
#     Node 34, Type 1, BuildingBlock: AZAVOO_clean_linker_0, # of connection points: 4
#     Node 35, Type 1, BuildingBlock: AZAVOO_clean_linker_0, # of connection points: 4
#     Edge 36, Type (0, 1), BuildingBlock: TEMPAE_clean_linker_10, # of connection points: 2
#     Edge 37, Type (0, 1), BuildingBlock: TEMPAE_clean_linker_10, # of connection points: 2
#     Edge 38, Type (0, 1), BuildingBlock: TEMPAE_clean_linker_10, # of connection points: 2
#     Edge 39, Type (0, 1), BuildingBlock: TEMPAE_clean_linker_10, # of connection points: 2
#     Edge 40, Type (0, 1), BuildingBlock: TEMPAE_clean_linker_10, # of connection points: 2
#     Edge 41, Type (0, 1), BuildingBlock: TEMPAE_clean_linker_10, # of connection points: 2
#     Edge 42, Type (0, 1), BuildingBlock: TEMPAE_clean_linker_10, # of connection points: 2
#     Edge 43, Type (0, 1), BuildingBlock: TEMPAE_clean_linker_10, # of connection points: 2
#     Edge 44, Type (0, 1), BuildingBlock: TEMPAE_clean_linker_10, # of connection points: 2
#     Edge 45, Type (0, 1), BuildingBlock: TEMPAE_clean_linker_10, # of connection points: 2
#     Edge 46, Type (0, 1), BuildingBlock: TEMPAE_clean_linker_10, # of connection points: 2
#     Edge 47, Type (0, 1), BuildingBlock: TEMPAE_clean_linker_10, # of connection points: 2
#     Edge 48, Type (0, 1), BuildingBlock: TEMPAE_clean_linker_10, # of connection points: 2
#     Edge 49, Type (0, 1), BuildingBlock: TEMPAE_clean_linker_10, # of connection points: 2
#     Edge 50, Type (0, 1), BuildingBlock: TEMPAE_clean_linker_10, # of connection points: 2
#     Edge 51, Type (0, 1), BuildingBlock: TEMPAE_clean_linker_10, # of connection points: 2
#     Edge 52, Type (0, 1), BuildingBlock: TEMPAE_clean_linker_10, # of connection points: 2
#     Edge 53, Type (0, 1), BuildingBlock: TEMPAE_clean_linker_10, # of connection points: 2
#     Edge 54, Type (0, 1), BuildingBlock: TEMPAE_clean_linker_10, # of connection points: 2
#     Edge 55, Type (0, 1), BuildingBlock: TEMPAE_clean_linker_10, # of connection points: 2
#     Edge 56, Type (0, 1), BuildingBlock: TEMPAE_clean_linker_10, # of connection points: 2
#     Edge 57, Type (0, 1), BuildingBlock: TEMPAE_clean_linker_10, # of connection points: 2
#     Edge 58, Type (0, 1), BuildingBlock: TEMPAE_clean_linker_10, # of connection points: 2
#     Edge 59, Type (0, 1), BuildingBlock: TEMPAE_clean_linker_10, # of connection points: 2
#     Edge 60, Type (0, 1), BuildingBlock: TEMPAE_clean_linker_10, # of connection points: 2
#     Edge 61, Type (0, 1), BuildingBlock: TEMPAE_clean_linker_10, # of connection points: 2
#     Edge 62, Type (0, 1), BuildingBlock: TEMPAE_clean_linker_10, # of connection points: 2
#     Edge 63, Type (0, 1), BuildingBlock: TEMPAE_clean_linker_10, # of connection points: 2
#     Edge 64, Type (0, 1), BuildingBlock: TEMPAE_clean_linker_10, # of connection points: 2
#     Edge 65, Type (0, 1), BuildingBlock: TEMPAE_clean_linker_10, # of connection points: 2
#     Edge 66, Type (0, 1), BuildingBlock: TEMPAE_clean_linker_10, # of connection points: 2
#     Edge 67, Type (0, 1), BuildingBlock: TEMPAE_clean_linker_10, # of connection points: 2
#     Edge 68, Type (0, 1), BuildingBlock: TEMPAE_clean_linker_10, # of connection points: 2
#     Edge 69, Type (0, 1), BuildingBlock: TEMPAE_clean_linker_10, # of connection points: 2
#     Edge 70, Type (0, 1), BuildingBlock: TEMPAE_clean_linker_10, # of connection points: 2
#     Edge 71, Type (0, 1), BuildingBlock: TEMPAE_clean_linker_10, # of connection points: 2
#     Edge 72, Type (0, 1), BuildingBlock: TEMPAE_clean_linker_10, # of connection points: 2
#     Edge 73, Type (0, 1), BuildingBlock: TEMPAE_clean_linker_10, # of connection points: 2
#     Edge 74, Type (0, 1), BuildingBlock: TEMPAE_clean_linker_10, # of connection points: 2
#     Edge 75, Type (0, 1), BuildingBlock: TEMPAE_clean_linker_10, # of connection points: 2
#     Edge 76, Type (0, 1), BuildingBlock: TEMPAE_clean_linker_10, # of connection points: 2
#     Edge 77, Type (0, 1), BuildingBlock: TEMPAE_clean_linker_10, # of connection points: 2
#     Edge 78, Type (0, 1), BuildingBlock: TEMPAE_clean_linker_10, # of connection points: 2
#     Edge 79, Type (0, 1), BuildingBlock: TEMPAE_clean_linker_10, # of connection points: 2
#     Edge 80, Type (0, 1), BuildingBlock: TEMPAE_clean_linker_10, # of connection points: 2
#     Edge 81, Type (0, 1), BuildingBlock: TEMPAE_clean_linker_10, # of connection points: 2
#     Edge 82, Type (0, 1), BuildingBlock: TEMPAE_clean_linker_10, # of connection points: 2
#     Edge 83, Type (0, 1), BuildingBlock: TEMPAE_clean_linker_10, # of connection points: 2
#     Edge 84, Type (0, 1), BuildingBlock: TEMPAE_clean_linker_10, # of connection points: 2
#     Edge 85, Type (0, 1), BuildingBlock: TEMPAE_clean_linker_10, # of connection points: 2
#     Edge 86, Type (0, 1), BuildingBlock: TEMPAE_clean_linker_10, # of connection points: 2
#     Edge 87, Type (0, 1), BuildingBlock: TEMPAE_clean_linker_10, # of connection points: 2
#     Edge 88, Type (0, 1), BuildingBlock: TEMPAE_clean_linker_10, # of connection points: 2
#     Edge 89, Type (0, 1), BuildingBlock: TEMPAE_clean_linker_10, # of connection points: 2
#     Edge 90, Type (0, 1), BuildingBlock: TEMPAE_clean_linker_10, # of connection points: 2
#     Edge 91, Type (0, 1), BuildingBlock: TEMPAE_clean_linker_10, # of connection points: 2
#     Edge 92, Type (0, 1), BuildingBlock: TEMPAE_clean_linker_10, # of connection points: 2
#     Edge 93, Type (0, 1), BuildingBlock: TEMPAE_clean_linker_10, # of connection points: 2
#     Edge 94, Type (0, 1), BuildingBlock: TEMPAE_clean_linker_10, # of connection points: 2
#     Edge 95, Type (0, 1), BuildingBlock: TEMPAE_clean_linker_10, # of connection points: 2
#     Edge 96, Type (0, 1), BuildingBlock: TEMPAE_clean_linker_10, # of connection points: 2
#     Edge 97, Type (0, 1), BuildingBlock: TEMPAE_clean_linker_10, # of connection points: 2
#     Edge 98, Type (0, 1), BuildingBlock: TEMPAE_clean_linker_10, # of connection points: 2
#     Edge 99, Type (0, 1), BuildingBlock: TEMPAE_clean_linker_10, # of connection points: 2
#     Edge 100, Type (0, 1), BuildingBlock: TEMPAE_clean_linker_10, # of connection points: 2
#     Edge 101, Type (0, 1), BuildingBlock: TEMPAE_clean_linker_10, # of connection points: 2
#     Edge 102, Type (0, 1), BuildingBlock: TEMPAE_clean_linker_10, # of connection points: 2
#     Edge 103, Type (0, 1), BuildingBlock: TEMPAE_clean_linker_10, # of connection points: 2
#     Edge 104, Type (0, 1), BuildingBlock: TEMPAE_clean_linker_10, # of connection points: 2
#     Edge 105, Type (0, 1), BuildingBlock: TEMPAE_clean_linker_10, # of connection points: 2
#     Edge 106, Type (0, 1), BuildingBlock: TEMPAE_clean_linker_10, # of connection points: 2
#     Edge 107, Type (0, 1), BuildingBlock: TEMPAE_clean_linker_10, # of connection points: 2
# Relax obj value: 0.049
# Max RMSD: 0.181
# Mean RMSD: 0.121
data_MOF--net-ptr--node1-QUQFOY_clean_sbu_1--node2-AZAVOO_clean_linker_0--edge1-TEMPAE_clean_linker_10
_symmetry_space_group_name_H-M    P1
_symmetry_Int_Tables_number       1
_symmetry_cell_setting            triclinic
loop_
_symmetry_equiv_pos_as_xyz
'x, y, z'
_cell_length_a     84.878929
_cell_length_b     83.227361
_cell_length_c     71.529709
_cell_angle_alpha  92.664669
_cell_angle_beta   92.170042
_cell_angle_gamma 120.03691
loop_
_atom_site_label
_atom_site_type_symbol
_atom_site_fract_x
_atom_site_fract_y
_atom_site_fract_z
_atom_type_partial_charge
O0 O 0.01625 0.39029 0.04818 0.0
Cd1 Cd 0.02589 0.38047 0.027 0.0
Cd2 Cd 0.99045 0.36234 0.01517 0.0
O3 O 0.98678 0.37233 0.04056 0.0
O4 O 0.04988 0.3847 0.0375 0.0
O5 O 0.02588 0.35664 0.03075 0.0
C6 C 0.04255 0.36688 0.03763 0.0
C7 C 0.97152 0.33131 0.00383 0.0
C8 C 0.99976 0.38467 0.05158 0.0
C9 C 0.01677 0.3918 0.99129 0.0
O10 O 1.00035 0.3811 0.99497 0.0
O11 O 0.0298 0.39275 1.00162 0.0
O12 O 0.96586 0.34308 0.00408 0.0
O13 O 0.9879 0.33699 0.01076 0.0
O14 O 0.61085 0.60882 0.08272 0.0
Cd15 Cd 0.62267 0.62733 0.06253 0.0
Cd16 Cd 0.63786 0.60655 0.05541 0.0
O17 O 0.62745 0.59528 0.08058 0.0
O18 O 0.6204 0.64945 0.06983 0.0
O19 O 0.64691 0.65041 0.06938 0.0
C20 C 0.63793 0.65885 0.07273 0.0
C21 C 0.66836 0.61953 0.04852 0.0
C22 C 0.61536 0.59738 0.08856 0.0
C23 C 0.61112 0.60519 0.02572 0.0
O24 O 0.62001 0.59768 0.03175 0.0
O25 O 0.61128 0.61845 0.03543 0.0
O26 O 0.65789 0.60175 0.04877 0.0
O27 O 0.66179 0.63 0.05349 0.0
O28 O 0.40155 0.0068 0.99515 0.0
Cd29 Cd 0.39372 0.01571 0.01854 0.0
Cd30 Cd 0.3758 0.97876 0.02277 0.0
O31 O 0.38482 0.97642 0.99666 0.0
O32 O 0.39804 0.04078 0.01279 0.0
O33 O 0.37058 0.01682 0.01605 0.0
C34 C 0.3806 0.03389 0.01208 0.0
C35 C 0.34539 0.96206 0.03022 0.0
C36 C 0.3961 0.99036 0.98825 0.0
C37 C 0.40531 0.00397 0.0527 0.0
O38 O 0.39421 0.98749 0.04587 0.0
O39 O 0.40696 0.01786 0.04435 0.0
O40 O 0.3552 0.95425 0.02898 0.0
O41 O 0.35253 0.97914 0.02601 0.0
O42 O 0.98677 0.60757 0.02221 0.0
Cd43 Cd 0.97782 0.61983 0.04144 0.0
Cd44 Cd 0.0132 0.64044 0.05164 0.0
O45 O 0.01587 0.62912 0.02627 0.0
O46 O 0.9539 0.61583 0.03096 0.0
O47 O 0.97888 0.64359 0.03502 0.0
C48 C 0.9619 0.6335 0.02908 0.0
C49 C 0.03174 0.67218 0.06068 0.0
C50 C 0.00304 0.61447 0.01744 0.0
C51 C 0.98873 0.61298 0.07848 0.0
O52 O 0.00488 0.62356 0.07382 0.0
O53 O 0.97514 0.61054 0.06802 0.0
O54 O 0.03814 0.66102 0.06039 0.0
O55 O 0.01481 0.66543 0.05507 0.0
O56 O 0.39172 0.39296 0.98152 0.0
Cd57 Cd 0.38129 0.3755 0.00308 0.0
Cd58 Cd 0.36737 0.39757 0.01041 0.0
O59 O 0.37674 0.40811 0.98493 0.0
O60 O 0.38454 0.35383 0.99625 0.0
O61 O 0.35749 0.35146 0.99736 0.0
C62 C 0.36703 0.34365 0.99392 0.0
C63 C 0.337 0.38313 0.01793 0.0
C64 C 0.38763 0.40482 0.976 0.0
C65 C 0.3947 0.39968 0.03925 0.0
O66 O 0.38633 0.40762 0.03301 0.0
O67 O 0.39333 0.38547 0.03014 0.0
O68 O 0.34652 0.40097 0.01721 0.0
O69 O 0.34449 0.37342 0.01332 0.0
O70 O 0.60289 0.99457 0.06959 0.0
Cd71 Cd 0.61327 0.98739 0.04707 0.0
Cd72 Cd 0.63135 0.02411 0.04548 0.0
O73 O 0.62298 0.02462 0.07234 0.0
O74 O 0.60911 0.96193 0.05092 0.0
O75 O 0.63652 0.98701 0.05201 0.0
C76 C 0.62656 0.96938 0.05373 0.0
C77 C 0.66163 0.03938 0.03736 0.0
C78 C 0.60961 0.01044 0.07853 0.0
C79 C 0.60302 0.00154 0.01421 0.0
O80 O 0.61237 0.0174 0.02318 0.0
O81 O 0.60285 0.98738 0.02042 0.0
O82 O 0.65321 0.04843 0.0406 0.0
O83 O 0.65316 0.02182 0.03989 0.0
O84 O 0.68206 0.72583 0.38292 0.0
Cd85 Cd 0.69243 0.71617 0.36235 0.0
Cd86 Cd 0.65734 0.6981 0.34908 0.0
O87 O 0.65283 0.70802 0.37409 0.0
O88 O 0.71617 0.72046 0.37371 0.0
O89 O 0.69243 0.69237 0.36637 0.0
C90 C 0.70894 0.70265 0.37367 0.0
C91 C 0.63884 0.667 0.33773 0.0
C92 C 0.66541 0.72022 0.38558 0.0
C93 C 0.6847 0.72754 0.32591 0.0
O94 O 0.66806 0.71681 0.32887 0.0
O95 O 0.69728 0.72855 0.33702 0.0
O96 O 0.63312 0.6787 0.33729 0.0
O97 O 0.65503 0.6728 0.34532 0.0
O98 O 0.27937 0.93762 0.41927 0.0
Cd99 Cd 0.28807 0.9555 0.39792 0.0
Cd100 Cd 0.30059 0.93238 0.38738 0.0
O101 O 0.29187 0.92052 0.41252 0.0
O102 O 0.28426 0.976 0.40769 0.0
O103 O 0.3115 0.98024 0.40237 0.0
C104 C 0.30166 0.98699 0.40831 0.0
C105 C 0.33004 0.94363 0.37767 0.0
C106 C 0.28257 0.92471 0.42314 0.0
C107 C 0.27219 0.93275 0.36129 0.0
O108 O 0.28094 0.92464 0.36574 0.0
O109 O 0.27388 0.94641 0.37172 0.0
O110 O 0.31852 0.926 0.37724 0.0
O111 O 0.32519 0.95494 0.38477 0.0
O112 O 0.0706 0.33799 0.32709 0.0
Cd113 Cd 0.0637 0.34754 0.35073 0.0
Cd114 Cd 0.04491 0.31065 0.35551 0.0
O115 O 0.05315 0.30777 0.32912 0.0
O116 O 0.06922 0.37305 0.34521 0.0
O117 O 0.04131 0.35003 0.34874 0.0
C118 C 0.05193 0.36702 0.34483 0.0
C119 C 0.01453 0.29522 0.36325 0.0
C120 C 0.0645 0.32137 0.32036 0.0
C121 C 0.07513 0.33538 0.38483 0.0
O122 O 0.06361 0.31889 0.37834 0.0
O123 O 0.07702 0.34926 0.37631 0.0
O124 O 0.02348 0.28653 0.36137 0.0
O125 O 0.02256 0.31252 0.35964 0.0
O126 O 0.65697 0.94098 0.35179 0.0
Cd127 Cd 0.64668 0.95098 0.37215 0.0
Cd128 Cd 0.68184 0.9703 0.38478 0.0
O129 O 0.68611 0.96034 0.35974 0.0
O130 O 0.62252 0.94591 0.3612 0.0
O131 O 0.6461 0.97434 0.36735 0.0
C132 C 0.62947 0.96364 0.36056 0.0
C133 C 0.70009 0.00174 0.39499 0.0
C134 C 0.67366 0.94735 0.34878 0.0
C135 C 0.65586 0.94108 0.40885 0.0
O136 O 0.67234 0.95193 0.40542 0.0
O137 O 0.64289 0.93963 0.39802 0.0
O138 O 0.70639 0.9905 0.39496 0.0
O139 O 0.68334 0.99518 0.38878 0.0
O140 O 0.0617 0.72934 0.31747 0.0
Cd141 Cd 0.05141 0.71079 0.33816 0.0
Cd142 Cd 0.03825 0.73313 0.3477 0.0
O143 O 0.04747 0.745 0.3227 0.0
O144 O 0.05503 0.68986 0.32942 0.0
O145 O 0.02776 0.68663 0.33205 0.0
C146 C 0.03755 0.67936 0.32746 0.0
C147 C 0.00818 0.72048 0.35598 0.0
C148 C 0.05798 0.74175 0.31301 0.0
C149 C 0.06575 0.73305 0.37509 0.0
O150 O 0.05748 0.74146 0.36994 0.0
O151 O 0.06403 0.71918 0.36505 0.0
O152 O 0.01912 0.73825 0.35673 0.0
O153 O 0.01407 0.70983 0.34949 0.0
O154 O 0.26673 0.32694 0.40194 0.0
Cd155 Cd 0.27666 0.31883 0.37965 0.0
Cd156 Cd 0.29355 0.35514 0.37559 0.0
O157 O 0.28584 0.35718 0.40242 0.0
O158 O 0.2735 0.2941 0.38505 0.0
O159 O 0.30049 0.31946 0.38414 0.0
C160 C 0.29105 0.30201 0.387 0.0
C161 C 0.32351 0.3718 0.36674 0.0
C162 C 0.27318 0.34327 0.40974 0.0
C163 C 0.26453 0.32988 0.34573 0.0
O164 O 0.27391 0.34629 0.35352 0.0
O165 O 0.2649 0.31643 0.35306 0.0
O166 O 0.31382 0.37967 0.36884 0.0
O167 O 0.31651 0.35469 0.37075 0.0
O168 O 0.34972 0.061 0.71497 0.0
Cd169 Cd 0.3609 0.05175 0.69513 0.0
Cd170 Cd 0.32559 0.03203 0.68059 0.0
O171 O 0.32086 0.04372 0.70446 0.0
O172 O 0.38452 0.05638 0.70715 0.0
O173 O 0.36112 0.02813 0.69945 0.0
C174 C 0.37747 0.03858 0.70712 0.0
C175 C 0.30581 0.00066 0.67081 0.0
C176 C 0.33298 0.05572 0.71648 0.0
C177 C 0.35371 0.06077 0.65704 0.0
O178 O 0.33714 0.04876 0.65892 0.0
O179 O 0.36598 0.06409 0.66985 0.0
O180 O 0.30109 0.01304 0.66904 0.0
O181 O 0.3217 0.00596 0.67889 0.0
O182 O 0.94532 0.27408 0.74972 0.0
Cd183 Cd 0.95458 0.29227 0.72878 0.0
Cd184 Cd 0.96875 0.27062 0.7183 0.0
O185 O 0.95843 0.25761 0.74268 0.0
O186 O 0.95157 0.31353 0.73771 0.0
O187 O 0.97852 0.31627 0.73392 0.0
C188 C 0.9691 0.32383 0.73894 0.0
C189 C 0.99872 0.28178 0.71025 0.0
C190 C 0.94861 0.26115 0.75321 0.0
C191 C 0.94095 0.27108 0.69118 0.0
O192 O 0.95065 0.2639 0.69532 0.0
O193 O 0.94089 0.28334 0.70241 0.0
O194 O 0.98697 0.26419 0.70915 0.0
O195 O 0.99378 0.29306 0.71722 0.0
O196 O 0.73695 0.67363 0.66089 0.0
Cd197 Cd 0.72917 0.68248 0.68439 0.0
Cd198 Cd 0.71222 0.64569 0.68929 0.0
O199 O 0.72067 0.6433 0.66291 0.0
O200 O 0.73331 0.70749 0.67863 0.0
O201 O 0.70596 0.68349 0.68217 0.0
C202 C 0.71587 0.70057 0.67817 0.0
C203 C 0.68192 0.62929 0.69716 0.0
C204 C 0.7316 0.65716 0.65418 0.0
C205 C 0.74178 0.67149 0.71862 0.0
O206 O 0.73113 0.65482 0.71201 0.0
O207 O 0.74264 0.68501 0.71016 0.0
O208 O 0.69142 0.62118 0.6953 0.0
O209 O 0.68936 0.64654 0.69346 0.0
O210 O 0.32596 0.27483 0.6829 0.0
Cd211 Cd 0.31622 0.28552 0.70317 0.0
Cd212 Cd 0.35115 0.30362 0.71584 0.0
O213 O 0.35523 0.29349 0.6908 0.0
O214 O 0.29289 0.28222 0.69172 0.0
O215 O 0.31759 0.30987 0.69871 0.0
C216 C 0.301 0.30009 0.69155 0.0
C217 C 0.36946 0.33496 0.72625 0.0
C218 C 0.34257 0.2807 0.67986 0.0
C219 C 0.32444 0.2749 0.73982 0.0
O220 O 0.34102 0.2852 0.73636 0.0
O221 O 0.31174 0.27405 0.72901 0.0
O222 O 0.37568 0.32366 0.72627 0.0
O223 O 0.3528 0.32854 0.71982 0.0
O224 O 0.72467 0.06071 0.64685 0.0
Cd225 Cd 0.71466 0.04281 0.66817 0.0
Cd226 Cd 0.70295 0.0664 0.67798 0.0
O227 O 0.71181 0.07763 0.65269 0.0
O228 O 0.71732 0.02115 0.65986 0.0
O229 O 0.69053 0.01894 0.663 0.0
C230 C 0.69979 0.01106 0.6585 0.0
C231 C 0.6733 0.05491 0.68711 0.0
C232 C 0.7215 0.07355 0.64256 0.0
C233 C 0.73055 0.06581 0.70468 0.0
O234 O 0.72262 0.07459 0.6997 0.0
O235 O 0.7281 0.05157 0.69473 0.0
O236 O 0.68465 0.07257 0.68741 0.0
O237 O 0.67852 0.0437 0.68056 0.0
O238 O 0.93272 0.66158 0.73725 0.0
Cd239 Cd 0.94149 0.65251 0.7147 0.0
Cd240 Cd 0.96042 0.68902 0.71104 0.0
O241 O 0.95278 0.69154 0.73776 0.0
O242 O 0.93611 0.62705 0.72037 0.0
O243 O 0.9641 0.65064 0.71852 0.0
C244 C 0.95348 0.63349 0.72188 0.0
C245 C 0.99065 0.70394 0.70283 0.0
C246 C 0.9398 0.67796 0.74509 0.0
C247 C 0.93091 0.66528 0.68092 0.0
O248 O 0.94122 0.68155 0.68875 0.0
O249 O 0.93002 0.65123 0.68822 0.0
O250 O 0.98209 0.71298 0.70521 0.0
O251 O 0.98229 0.68656 0.70611 0.0
H252 H 0.13683 0.34551 0.03917 0.0
H253 H 0.26706 0.30468 0.17715 0.0
H254 H 0.1478 0.34667 0.15082 0.0
H255 H 0.1239 0.35011 0.13445 0.0
H256 H 0.10349 0.29636 0.10457 0.0
H257 H 0.12727 0.29292 0.12119 0.0
H258 H 0.16828 0.3529 0.11537 0.0
H259 H 0.15698 0.35549 0.08434 0.0
H260 H 0.14767 0.30091 0.06636 0.0
H261 H 0.15869 0.29836 0.09759 0.0
H262 H 0.21008 0.35806 0.12244 0.0
H263 H 0.23412 0.36611 0.10061 0.0
H264 H 0.21526 0.30777 0.0883 0.0
H265 H 0.1915 0.29979 0.11068 0.0
H266 H 0.22508 0.35137 0.15396 0.0
H267 H 0.25328 0.35116 0.16182 0.0
H268 H 0.22191 0.29181 0.16699 0.0
H269 H 0.19383 0.29219 0.15886 0.0
H270 H 0.20642 0.34834 0.18688 0.0
H271 H 0.21887 0.34757 0.21799 0.0
H272 H 0.17655 0.29018 0.21979 0.0
H273 H 0.16427 0.29096 0.18834 0.0
H274 H 0.16895 0.34457 0.19015 0.0
H275 H 0.1503 0.34177 0.2164 0.0
H276 H 0.10849 0.28759 0.19252 0.0
H277 H 0.12743 0.29037 0.16634 0.0
O278 O 0.14192 0.3445 0.05109 0.0
O279 O 0.13882 0.31709 0.04197 0.0
O280 O 0.27166 0.33562 0.17082 0.0
O281 O 0.25614 0.30513 0.17383 0.0
C282 C 0.15671 0.32011 0.14235 0.0
C283 C 0.16894 0.32297 0.12819 0.0
C284 C 0.1857 0.32389 0.13261 0.0
C285 C 0.19029 0.32188 0.15117 0.0
C286 C 0.17852 0.31986 0.16553 0.0
C287 C 0.16166 0.31899 0.16116 0.0
C288 C 0.13932 0.31959 0.13714 0.0
C289 C 0.13769 0.3353 0.14136 0.0
C290 C 0.12411 0.33729 0.13189 0.0
C291 C 0.11204 0.32363 0.11801 0.0
C292 C 0.11277 0.30721 0.115 0.0
C293 C 0.12621 0.30515 0.12462 0.0
C294 C 0.16426 0.32543 0.10871 0.0
C295 C 0.16395 0.3416 0.10464 0.0
C296 C 0.15744 0.34302 0.08693 0.0
C297 C 0.15131 0.32836 0.0729 0.0
C298 C 0.15224 0.31243 0.07686 0.0
C299 C 0.15865 0.31098 0.09463 0.0
C300 C 0.19911 0.32837 0.11815 0.0
C301 C 0.21106 0.34702 0.11494 0.0
C302 C 0.22478 0.35158 0.10255 0.0
C303 C 0.22651 0.33754 0.09286 0.0
C304 C 0.21412 0.31881 0.09558 0.0
C305 C 0.20061 0.31426 0.10831 0.0
C306 C 0.20746 0.32176 0.15563 0.0
C307 C 0.22436 0.33831 0.15657 0.0
C308 C 0.24043 0.33816 0.16117 0.0
C309 C 0.23985 0.32145 0.16501 0.0
C310 C 0.22285 0.30491 0.16409 0.0
C311 C 0.2068 0.30507 0.15944 0.0
C312 C 0.18458 0.31965 0.18526 0.0
C313 C 0.19979 0.33561 0.194 0.0
C314 C 0.20691 0.33513 0.21172 0.0
C315 C 0.19881 0.31874 0.22118 0.0
C316 C 0.18305 0.30298 0.21279 0.0
C317 C 0.17603 0.30341 0.19489 0.0
C318 C 0.14965 0.31761 0.17639 0.0
C319 C 0.15579 0.33207 0.19059 0.0
C320 C 0.14515 0.33042 0.2056 0.0
C321 C 0.128 0.31438 0.20661 0.0
C322 C 0.12162 0.30013 0.19208 0.0
C323 C 0.1324 0.3017 0.17714 0.0
C324 C 0.14369 0.32959 0.05436 0.0
C325 C 0.25687 0.32124 0.17005 0.0
H326 H 0.64893 0.8111 0.04929 0.0
H327 H 0.71086 0.96527 0.20906 0.0
H328 H 0.65911 0.80487 0.15303 0.0
H329 H 0.65456 0.77512 0.13956 0.0
H330 H 0.71286 0.79912 0.13836 0.0
H331 H 0.71737 0.82886 0.15245 0.0
H332 H 0.65458 0.83334 0.12916 0.0
H333 H 0.64686 0.8226 0.09589 0.0
H334 H 0.70286 0.83728 0.08937 0.0
H335 H 0.71041 0.84814 0.12263 0.0
H336 H 0.6572 0.86622 0.15519 0.0
H337 H 0.64856 0.88432 0.13571 0.0
H338 H 0.69827 0.90371 0.1073 0.0
H339 H 0.70683 0.88544 0.12696 0.0
H340 H 0.6678 0.87263 0.19605 0.0
H341 H 0.66938 0.90079 0.21014 0.0
H342 H 0.71907 0.93444 0.18299 0.0
H343 H 0.71749 0.90613 0.16924 0.0
H344 H 0.67332 0.84313 0.21456 0.0
H345 H 0.67427 0.8578 0.24535 0.0
H346 H 0.72653 0.90496 0.23545 0.0
H347 H 0.72565 0.89003 0.20478 0.0
H348 H 0.66963 0.80835 0.18946 0.0
H349 H 0.67307 0.78918 0.21233 0.0
H350 H 0.72903 0.83225 0.2258 0.0
H351 H 0.72578 0.85112 0.20215 0.0
O352 O 0.6523 0.8155 0.06238 0.0
O353 O 0.68123 0.82321 0.0598 0.0
O354 O 0.68414 0.93596 0.21699 0.0
O355 O 0.70972 0.95392 0.20338 0.0
C356 C 0.69094 0.83705 0.161 0.0
C357 C 0.68766 0.84788 0.14846 0.0
C358 C 0.6881 0.8643 0.15526 0.0
C359 C 0.69243 0.87021 0.17451 0.0
C360 C 0.69611 0.85961 0.18704 0.0
C361 C 0.69512 0.84285 0.18036 0.0
C362 C 0.68856 0.8189 0.15386 0.0
C363 C 0.67091 0.80362 0.15012 0.0
C364 C 0.66834 0.78669 0.14247 0.0
C365 C 0.68338 0.7849 0.13804 0.0
C366 C 0.70109 0.80023 0.14172 0.0
C367 C 0.70367 0.81711 0.14979 0.0
C368 C 0.68305 0.84157 0.12824 0.0
C369 C 0.66516 0.83432 0.12048 0.0
C370 C 0.6608 0.82814 0.10149 0.0
C371 C 0.67425 0.82908 0.08996 0.0
C372 C 0.69218 0.83636 0.09784 0.0
C373 C 0.69653 0.84257 0.11682 0.0
C374 C 0.6827 0.87464 0.14259 0.0
C375 C 0.66622 0.87437 0.14476 0.0
C376 C 0.66136 0.88477 0.13367 0.0
C377 C 0.67283 0.89559 0.1201 0.0
C378 C 0.68913 0.89544 0.11759 0.0
C379 C 0.69405 0.88508 0.1288 0.0
C380 C 0.69261 0.88736 0.18175 0.0
C381 C 0.67899 0.88611 0.19313 0.0
C382 C 0.67992 0.90221 0.20115 0.0
C383 C 0.69441 0.91988 0.19776 0.0
C384 C 0.70777 0.92106 0.18594 0.0
C385 C 0.70687 0.90493 0.178 0.0
C386 C 0.69935 0.86559 0.20739 0.0
C387 C 0.68535 0.85623 0.21938 0.0
C388 C 0.68587 0.86468 0.23692 0.0
C389 C 0.70034 0.88264 0.24259 0.0
C390 C 0.71512 0.8912 0.23127 0.0
C391 C 0.71471 0.88265 0.21386 0.0
C392 C 0.69756 0.831 0.19381 0.0
C393 C 0.6828 0.81345 0.19691 0.0
C394 C 0.68475 0.80256 0.21004 0.0
C395 C 0.70135 0.8092 0.22069 0.0
C396 C 0.71611 0.82682 0.21771 0.0
C397 C 0.71427 0.83757 0.20424 0.0
C398 C 0.66955 0.82245 0.06981 0.0
C399 C 0.6957 0.93702 0.20663 0.0
H400 H 0.14611 0.83953 0.03428 0.0
H401 H 0.29582 0.95291 0.18686 0.0
H402 H 0.1342 0.8442 0.13046 0.0
H403 H 0.10786 0.81552 0.116 0.0
H404 H 0.1273 0.78312 0.14382 0.0
H405 H 0.15372 0.81178 0.15786 0.0
H406 H 0.16848 0.87529 0.11047 0.0
H407 H 0.15899 0.86499 0.0773 0.0
H408 H 0.16109 0.81497 0.08586 0.0
H409 H 0.17084 0.82557 0.11892 0.0
H410 H 0.2076 0.90906 0.13347 0.0
H411 H 0.23134 0.92522 0.1116 0.0
H412 H 0.23142 0.87428 0.09753 0.0
H413 H 0.20838 0.85842 0.11998 0.0
H414 H 0.20503 0.9123 0.17793 0.0
H415 H 0.23474 0.93943 0.18802 0.0
H416 H 0.26129 0.90941 0.16911 0.0
H417 H 0.23149 0.8823 0.15932 0.0
H418 H 0.17245 0.88307 0.20183 0.0
H419 H 0.18458 0.89487 0.23443 0.0
H420 H 0.22568 0.87941 0.22732 0.0
H421 H 0.21334 0.86739 0.19506 0.0
H422 H 0.13501 0.84804 0.17655 0.0
H423 H 0.11458 0.83004 0.2004 0.0
H424 H 0.15428 0.81578 0.22065 0.0
H425 H 0.17447 0.83352 0.19666 0.0
O426 O 0.15004 0.84342 0.0474 0.0
O427 O 0.15113 0.81784 0.0526 0.0
O428 O 0.26956 0.95715 0.19264 0.0
O429 O 0.28389 0.94238 0.183 0.0
C430 C 0.1635 0.84735 0.15112 0.0
C431 C 0.17562 0.85729 0.13734 0.0
C432 C 0.19292 0.87295 0.14276 0.0
C433 C 0.19799 0.87885 0.16201 0.0
C434 C 0.186 0.86885 0.17582 0.0
C435 C 0.16872 0.85308 0.1704 0.0
C436 C 0.14593 0.8301 0.14517 0.0
C437 C 0.13259 0.83089 0.13367 0.0
C438 C 0.11763 0.81453 0.12537 0.0
C439 C 0.1156 0.79711 0.12871 0.0
C440 C 0.12841 0.79634 0.14112 0.0
C441 C 0.14349 0.81269 0.14919 0.0
C442 C 0.17025 0.85114 0.11711 0.0
C443 C 0.16697 0.86216 0.10512 0.0
C444 C 0.16151 0.85621 0.0862 0.0
C445 C 0.15922 0.83912 0.07894 0.0
C446 C 0.16267 0.82818 0.091 0.0
C447 C 0.1682 0.83418 0.10989 0.0
C448 C 0.2062 0.88252 0.12836 0.0
C449 C 0.21272 0.90138 0.12565 0.0
C450 C 0.22623 0.91058 0.11317 0.0
C451 C 0.23312 0.90095 0.10285 0.0
C452 C 0.22618 0.88195 0.10516 0.0
C453 C 0.213 0.87289 0.11793 0.0
C454 C 0.21611 0.89538 0.16783 0.0
C455 C 0.21728 0.91162 0.176 0.0
C456 C 0.23427 0.92709 0.18173 0.0
C457 C 0.2504 0.92659 0.17934 0.0
C458 C 0.24915 0.91027 0.17112 0.0
C459 C 0.23215 0.89479 0.16546 0.0
C460 C 0.19214 0.87454 0.19602 0.0
C461 C 0.18391 0.88203 0.20743 0.0
C462 C 0.19085 0.88876 0.22598 0.0
C463 C 0.20622 0.88828 0.23327 0.0
C464 C 0.21403 0.88026 0.22195 0.0
C465 C 0.20698 0.87335 0.20357 0.0
C466 C 0.15631 0.84223 0.18493 0.0
C467 C 0.13926 0.84098 0.18611 0.0
C468 C 0.12761 0.83068 0.19971 0.0
C469 C 0.13287 0.82159 0.21247 0.0
C470 C 0.14996 0.82287 0.21121 0.0
C471 C 0.1615 0.83299 0.19751 0.0
C472 C 0.15323 0.83276 0.05887 0.0
C473 C 0.26848 0.94299 0.18541 0.0
H474 H 0.31286 0.16739 0.0227 0.0
H475 H 0.33097 0.06147 0.84249 0.0
H476 H 0.28997 0.17089 0.92254 0.0
H477 H 0.29443 0.2004 0.93709 0.0
H478 H 0.34962 0.22884 0.92001 0.0
H479 H 0.34529 0.19938 0.90618 0.0
H480 H 0.29234 0.13683 0.94461 0.0
H481 H 0.29588 0.14541 0.97833 0.0
H482 H 0.35052 0.19065 0.97217 0.0
H483 H 0.34688 0.18176 0.93852 0.0
H484 H 0.29356 0.10149 0.92193 0.0
H485 H 0.30145 0.08289 0.94181 0.0
H486 H 0.35603 0.1297 0.95265 0.0
H487 H 0.3484 0.1479 0.93203 0.0
H488 H 0.28515 0.09595 0.88651 0.0
H489 H 0.28563 0.0695 0.87067 0.0
H490 H 0.34364 0.10411 0.86563 0.0
H491 H 0.34295 0.1304 0.88159 0.0
H492 H 0.28106 0.11561 0.85948 0.0
H493 H 0.28046 0.10103 0.82865 0.0
H494 H 0.33665 0.14313 0.82391 0.0
H495 H 0.33729 0.15732 0.85493 0.0
H496 H 0.28142 0.1545 0.86752 0.0
H497 H 0.27894 0.17372 0.84372 0.0
H498 H 0.33719 0.21089 0.85052 0.0
H499 H 0.33971 0.1912 0.87346 0.0
O500 O 0.31178 0.16419 0.00936 0.0
O501 O 0.33975 0.18731 0.00542 0.0
O502 O 0.30093 0.05394 0.85343 0.0
O503 O 0.33055 0.07145 0.84953 0.0
C504 C 0.31526 0.1651 0.90578 0.0
C505 C 0.31693 0.15353 0.91866 0.0
C506 C 0.3163 0.13691 0.91211 0.0
C507 C 0.31334 0.13158 0.89269 0.0
C508 C 0.31117 0.14287 0.87984 0.0
C509 C 0.31235 0.15974 0.88632 0.0
C510 C 0.31714 0.1831 0.91282 0.0
C511 C 0.3029 0.18357 0.9217 0.0
C512 C 0.3055 0.20036 0.93008 0.0
C513 C 0.32231 0.21691 0.92948 0.0
C514 C 0.33641 0.21637 0.92033 0.0
C515 C 0.33391 0.19959 0.91229 0.0
C516 C 0.31928 0.15877 0.93913 0.0
C517 C 0.30507 0.14857 0.95059 0.0
C518 C 0.30712 0.15352 0.96984 0.0
C519 C 0.32346 0.16876 0.97794 0.0
C520 C 0.33773 0.17888 0.96638 0.0
C521 C 0.33567 0.17388 0.94715 0.0
C522 C 0.32045 0.12601 0.92535 0.0
C523 C 0.30725 0.10769 0.92849 0.0
C524 C 0.31171 0.09713 0.9399 0.0
C525 C 0.32932 0.10492 0.94875 0.0
C526 C 0.34232 0.12346 0.94611 0.0
C527 C 0.33797 0.13384 0.93436 0.0
C528 C 0.31405 0.11499 0.88537 0.0
C529 C 0.298 0.09766 0.88232 0.0
C530 C 0.2983 0.08263 0.87315 0.0
C531 C 0.31468 0.08472 0.8668 0.0
C532 C 0.33081 0.10203 0.8703 0.0
C533 C 0.33049 0.11703 0.87952 0.0
C534 C 0.30924 0.13745 0.85945 0.0
C535 C 0.29306 0.12198 0.85153 0.0
C536 C 0.29277 0.11362 0.83402 0.0
C537 C 0.30856 0.12087 0.82404 0.0
C538 C 0.32427 0.13733 0.83129 0.0
C539 C 0.32463 0.1455 0.84894 0.0
C540 C 0.31069 0.17177 0.87261 0.0
C541 C 0.29361 0.16687 0.86394 0.0
C542 C 0.29221 0.17779 0.85039 0.0
C543 C 0.30785 0.1939 0.84558 0.0
C544 C 0.32491 0.19875 0.85431 0.0
C545 C 0.32634 0.18761 0.86749 0.0
C546 C 0.32556 0.17404 0.99838 0.0
C547 C 0.3149 0.06906 0.85625 0.0
H548 H 0.83311 0.17693 0.02724 0.0
H549 H 0.73206 0.02419 0.8693 0.0
H550 H 0.83858 0.18458 0.92711 0.0
H551 H 0.86353 0.2134 0.94286 0.0
H552 H 0.90129 0.19428 0.9317 0.0
H553 H 0.87603 0.16501 0.91648 0.0
H554 H 0.80882 0.1556 0.9478 0.0
H555 H 0.8148 0.1656 0.98127 0.0
H556 H 0.85921 0.15417 0.98374 0.0
H557 H 0.85293 0.14398 0.95029 0.0
H558 H 0.77771 0.12419 0.92005 0.0
H559 H 0.7539 0.10808 0.94154 0.0
H560 H 0.78746 0.08991 0.96989 0.0
H561 H 0.81134 0.10615 0.94815 0.0
H562 H 0.77713 0.11697 0.88133 0.0
H563 H 0.75014 0.08793 0.86888 0.0
H564 H 0.77395 0.05681 0.89115 0.0
H565 H 0.80099 0.08601 0.90329 0.0
H566 H 0.80495 0.14555 0.86375 0.0
H567 H 0.79229 0.13352 0.83147 0.0
H568 H 0.81279 0.09546 0.83319 0.0
H569 H 0.82514 0.1073 0.86579 0.0
H570 H 0.83664 0.17704 0.87642 0.0
H571 H 0.85719 0.19557 0.85287 0.0
H572 H 0.88628 0.1656 0.85831 0.0
H573 H 0.86542 0.14688 0.88161 0.0
O574 O 0.8309 0.17279 0.01404 0.0
O575 O 0.85367 0.1668 0.01453 0.0
O576 O 0.731 0.05254 0.86279 0.0
O577 O 0.74257 0.03589 0.87409 0.0
C578 C 0.83974 0.15433 0.9136 0.0
C579 C 0.82692 0.14313 0.92627 0.0
C580 C 0.81073 0.12671 0.91949 0.0
C581 C 0.80768 0.12119 0.90012 0.0
C582 C 0.82047 0.13232 0.88747 0.0
C583 C 0.83655 0.14885 0.89419 0.0
C584 C 0.85548 0.17268 0.92069 0.0
C585 C 0.85225 0.18665 0.92793 0.0
C586 C 0.86645 0.20302 0.93697 0.0
C587 C 0.88423 0.20591 0.93862 0.0
C588 C 0.88767 0.19233 0.93058 0.0
C589 C 0.87332 0.17571 0.92181 0.0
C590 C 0.83035 0.14893 0.94667 0.0
C591 C 0.81972 0.15511 0.95564 0.0
C592 C 0.82322 0.16089 0.97474 0.0
C593 C 0.83748 0.16067 0.98519 0.0
C594 C 0.84812 0.15449 0.97611 0.0
C595 C 0.84457 0.14867 0.95702 0.0
C596 C 0.79619 0.1162 0.93239 0.0
C597 C 0.77984 0.11653 0.93074 0.0
C598 C 0.76625 0.10731 0.94304 0.0
C599 C 0.76873 0.09761 0.95738 0.0
C600 C 0.78518 0.09735 0.95907 0.0
C601 C 0.79878 0.10653 0.94663 0.0
C602 C 0.79106 0.10356 0.89304 0.0
C603 C 0.77653 0.10387 0.88339 0.0
C604 C 0.76111 0.08726 0.87636 0.0
C605 C 0.75991 0.07003 0.87897 0.0
C606 C 0.77445 0.06982 0.88885 0.0
C607 C 0.78989 0.08646 0.89583 0.0
C608 C 0.816 0.12733 0.86703 0.0
C609 C 0.80708 0.13492 0.85702 0.0
C610 C 0.79977 0.12798 0.8387 0.0
C611 C 0.80153 0.11355 0.83001 0.0
C612 C 0.81136 0.10665 0.83965 0.0
C613 C 0.81843 0.11341 0.85816 0.0
C614 C 0.8496 0.16069 0.88072 0.0
C615 C 0.84749 0.17454 0.87255 0.0
C616 C 0.85916 0.18502 0.85908 0.0
C617 C 0.87331 0.18198 0.85376 0.0
C618 C 0.87558 0.16831 0.86225 0.0
C619 C 0.8637 0.15762 0.8755 0.0
C620 C 0.84123 0.16692 0.00546 0.0
C621 C 0.7436 0.05235 0.87144 0.0
H622 H 0.8628 0.67162 0.03502 0.0
H623 H 0.72535 0.66626 0.871 0.0
H624 H 0.87973 0.70631 0.93678 0.0
H625 H 0.9035 0.70276 0.9536 0.0
H626 H 0.87246 0.64348 0.93941 0.0
H627 H 0.84856 0.64705 0.92325 0.0
H628 H 0.85563 0.70042 0.96413 0.0
H629 H 0.86194 0.69385 0.99566 0.0
H630 H 0.82396 0.63524 0.9821 0.0
H631 H 0.81795 0.64203 0.95052 0.0
H632 H 0.81889 0.69665 0.9616 0.0
H633 H 0.79524 0.68904 0.98385 0.0
H634 H 0.76016 0.63706 0.95121 0.0
H635 H 0.78384 0.64475 0.92916 0.0
H636 H 0.80456 0.7043 0.92261 0.0
H637 H 0.77685 0.70471 0.9127 0.0
H638 H 0.75858 0.65414 0.8773 0.0
H639 H 0.78621 0.65376 0.88753 0.0
H640 H 0.82516 0.71112 0.88508 0.0
H641 H 0.81435 0.71316 0.85349 0.0
H642 H 0.81056 0.66101 0.83551 0.0
H643 H 0.82096 0.65884 0.8672 0.0
H644 H 0.86487 0.71286 0.88582 0.0
H645 H 0.88488 0.71617 0.86057 0.0
H646 H 0.87194 0.65931 0.86471 0.0
H647 H 0.85161 0.65592 0.88945 0.0
O648 O 0.85991 0.67393 0.02259 0.0
O649 O 0.83981 0.64403 0.01514 0.0
O650 O 0.74617 0.69212 0.894 0.0
O651 O 0.73634 0.66633 0.87531 0.0
C652 C 0.84642 0.67839 0.92246 0.0
C653 C 0.83343 0.67562 0.93565 0.0
C654 C 0.81736 0.67576 0.93018 0.0
C655 C 0.81444 0.67907 0.91151 0.0
C656 C 0.82752 0.6821 0.89828 0.0
C657 C 0.84352 0.68165 0.90374 0.0
C658 C 0.86257 0.67697 0.92855 0.0
C659 C 0.87836 0.69266 0.93685 0.0
C660 C 0.8918 0.69059 0.94657 0.0
C661 C 0.88977 0.67285 0.94776 0.0
C662 C 0.87444 0.65733 0.93851 0.0
C663 C 0.86086 0.65935 0.92918 0.0
C664 C 0.83637 0.67169 0.9551 0.0
C665 C 0.84867 0.68619 0.96804 0.0
C666 C 0.85224 0.68238 0.98602 0.0
C667 C 0.84349 0.664 0.99139 0.0
C668 C 0.83095 0.64954 0.97841 0.0
C669 C 0.82744 0.65337 0.96041 0.0
C670 C 0.80306 0.67129 0.94371 0.0
C671 C 0.80611 0.6836 0.95932 0.0
C672 C 0.79262 0.67921 0.97203 0.0
C673 C 0.77579 0.66248 0.96926 0.0
C674 C 0.77285 0.65018 0.9536 0.0
C675 C 0.78637 0.65452 0.94101 0.0
C676 C 0.79741 0.67904 0.90573 0.0
C677 C 0.7945 0.69327 0.91279 0.0
C678 C 0.77869 0.6935 0.90707 0.0
C679 C 0.76551 0.67948 0.89416 0.0
C680 C 0.76845 0.66517 0.88722 0.0
C681 C 0.78423 0.66493 0.89301 0.0
C682 C 0.8238 0.6848 0.87849 0.0
C683 C 0.82223 0.70026 0.87425 0.0
C684 C 0.816 0.70138 0.85625 0.0
C685 C 0.81152 0.68719 0.84208 0.0
C686 C 0.81405 0.67222 0.8461 0.0
C687 C 0.82003 0.67098 0.86418 0.0
C688 C 0.85696 0.68423 0.88971 0.0
C689 C 0.86651 0.70119 0.88139 0.0
C690 C 0.87787 0.70304 0.86696 0.0
C691 C 0.88004 0.68803 0.86077 0.0
C692 C 0.87078 0.67121 0.86942 0.0
C693 C 0.85923 0.66928 0.88362 0.0
C694 C 0.84756 0.65998 0.0104 0.0
C695 C 0.74879 0.67975 0.88788 0.0
H696 H 0.80269 0.67395 0.36982 0.0
H697 H 0.94034 0.65126 0.51588 0.0
H698 H 0.81598 0.68352 0.48463 0.0
H699 H 0.79151 0.68636 0.46879 0.0
H700 H 0.77126 0.63251 0.43924 0.0
H701 H 0.79558 0.62959 0.45541 0.0
H702 H 0.83382 0.68702 0.44705 0.0
H703 H 0.82206 0.68705 0.41533 0.0
H704 H 0.81701 0.63353 0.40103 0.0
H705 H 0.82844 0.6335 0.43298 0.0
H706 H 0.8708 0.69094 0.44616 0.0
H707 H 0.89406 0.69771 0.42374 0.0
H708 H 0.89104 0.64532 0.43261 0.0
H709 H 0.86721 0.63825 0.45452 0.0
H710 H 0.89318 0.69013 0.48428 0.0
H711 H 0.92252 0.69251 0.4927 0.0
H712 H 0.89431 0.63528 0.50711 0.0
H713 H 0.86507 0.63302 0.49838 0.0
H714 H 0.87551 0.68685 0.52111 0.0
H715 H 0.8877 0.68635 0.55249 0.0
H716 H 0.84461 0.62942 0.55504 0.0
H717 H 0.83268 0.62986 0.52333 0.0
H718 H 0.83718 0.68277 0.52381 0.0
H719 H 0.81845 0.68004 0.54997 0.0
H720 H 0.77728 0.62525 0.52686 0.0
H721 H 0.79629 0.62795 0.50079 0.0
O722 O 0.80784 0.67391 0.3821 0.0
O723 O 0.80687 0.64712 0.37494 0.0
O724 O 0.94281 0.67995 0.50447 0.0
O725 O 0.92894 0.65067 0.51233 0.0
C726 C 0.82513 0.65712 0.47637 0.0
C727 C 0.83717 0.65933 0.46217 0.0
C728 C 0.85419 0.66079 0.46678 0.0
C729 C 0.85917 0.65999 0.48567 0.0
C730 C 0.84736 0.65818 0.49994 0.0
C731 C 0.83031 0.65678 0.49532 0.0
C732 C 0.80764 0.65641 0.47109 0.0
C733 C 0.80583 0.672 0.47533 0.0
C734 C 0.7919 0.67365 0.46618 0.0
C735 C 0.77968 0.65977 0.45256 0.0
C736 C 0.78065 0.64351 0.44948 0.0
C737 C 0.79442 0.64176 0.45882 0.0
C738 C 0.83186 0.6602 0.44234 0.0
C739 C 0.83023 0.67535 0.43702 0.0
C740 C 0.8235 0.67532 0.41889 0.0
C741 C 0.81849 0.66023 0.40567 0.0
C742 C 0.82069 0.64534 0.41089 0.0
C743 C 0.82731 0.64532 0.42909 0.0
C744 C 0.86724 0.66408 0.45201 0.0
C745 C 0.87483 0.68071 0.44296 0.0
C746 C 0.88813 0.68458 0.43019 0.0
C747 C 0.89436 0.67205 0.42649 0.0
C748 C 0.88654 0.65526 0.4353 0.0
C749 C 0.87296 0.65122 0.44779 0.0
C750 C 0.87701 0.66138 0.49065 0.0
C751 C 0.89338 0.67809 0.48914 0.0
C752 C 0.91011 0.67943 0.49401 0.0
C753 C 0.91076 0.66408 0.50058 0.0
C754 C 0.8943 0.64736 0.5021 0.0
C755 C 0.87758 0.64603 0.49715 0.0
C756 C 0.85333 0.65833 0.51983 0.0
C757 C 0.86866 0.67428 0.52845 0.0
C758 C 0.87562 0.67397 0.54632 0.0
C759 C 0.8672 0.65778 0.55607 0.0
C760 C 0.85133 0.64207 0.54782 0.0
C761 C 0.84451 0.64231 0.52976 0.0
C762 C 0.81821 0.6555 0.51045 0.0
C763 C 0.82414 0.67015 0.52439 0.0
C764 C 0.81345 0.66855 0.53935 0.0
C765 C 0.79647 0.65235 0.54056 0.0
C766 C 0.79027 0.63791 0.52627 0.0
C767 C 0.8011 0.63944 0.51138 0.0
C768 C 0.81076 0.65997 0.38662 0.0
C769 C 0.92849 0.66545 0.50588 0.0
H770 H 0.31915 0.15004 0.37726 0.0
H771 H 0.38034 0.29792 0.54248 0.0
H772 H 0.3234 0.13953 0.47535 0.0
H773 H 0.3182 0.11004 0.46053 0.0
H774 H 0.37415 0.12608 0.47563 0.0
H775 H 0.37952 0.15604 0.48992 0.0
H776 H 0.32149 0.1697 0.45728 0.0
H777 H 0.31535 0.16065 0.42361 0.0
H778 H 0.36984 0.16931 0.4207 0.0
H779 H 0.37588 0.17856 0.45436 0.0
H780 H 0.32373 0.19998 0.48641 0.0
H781 H 0.31595 0.21915 0.46769 0.0
H782 H 0.36544 0.23774 0.43908 0.0
H783 H 0.3732 0.21843 0.45806 0.0
H784 H 0.33388 0.20543 0.52681 0.0
H785 H 0.3366 0.23387 0.54164 0.0
H786 H 0.38722 0.26656 0.5156 0.0
H787 H 0.38447 0.23794 0.5011 0.0
H788 H 0.33759 0.17516 0.54467 0.0
H789 H 0.33916 0.18982 0.57563 0.0
H790 H 0.39293 0.23496 0.56659 0.0
H791 H 0.39145 0.21996 0.53576 0.0
H792 H 0.33156 0.14247 0.52252 0.0
H793 H 0.33332 0.12321 0.54654 0.0
H794 H 0.39195 0.15817 0.55201 0.0
H795 H 0.39006 0.17764 0.52818 0.0
O796 O 0.32191 0.15377 0.39053 0.0
O797 O 0.35002 0.15833 0.38981 0.0
O798 O 0.3526 0.26902 0.5494 0.0
O799 O 0.37876 0.28648 0.5365 0.0
C800 C 0.35517 0.16855 0.49099 0.0
C801 C 0.35288 0.18025 0.4787 0.0
C802 C 0.35391 0.19686 0.48596 0.0
C803 C 0.35812 0.20224 0.50531 0.0
C804 C 0.36106 0.19093 0.51751 0.0
C805 C 0.35931 0.17395 0.51042 0.0
C806 C 0.35189 0.15005 0.48354 0.0
C807 C 0.33458 0.13675 0.47542 0.0
C808 C 0.33163 0.11995 0.46695 0.0
C809 C 0.34584 0.11593 0.46678 0.0
C810 C 0.363 0.12891 0.47557 0.0
C811 C 0.36605 0.14594 0.48376 0.0
C812 C 0.34918 0.17494 0.45821 0.0
C813 C 0.33213 0.1698 0.44931 0.0
C814 C 0.32864 0.16456 0.43009 0.0
C815 C 0.34211 0.16428 0.41945 0.0
C816 C 0.35917 0.1694 0.42847 0.0
C817 C 0.36266 0.17468 0.44768 0.0
C818 C 0.3491 0.20794 0.4737 0.0
C819 C 0.33292 0.20822 0.47613 0.0
C820 C 0.32853 0.21922 0.46547 0.0
C821 C 0.34019 0.23011 0.45206 0.0
C822 C 0.35619 0.22946 0.44928 0.0
C823 C 0.36065 0.21849 0.4601 0.0
C824 C 0.35905 0.21964 0.513 0.0
C825 C 0.34552 0.21876 0.5243 0.0
C826 C 0.34711 0.23502 0.53274 0.0
C827 C 0.36218 0.2525 0.52987 0.0
C828 C 0.37547 0.25333 0.51815 0.0
C829 C 0.37391 0.23703 0.50978 0.0
C830 C 0.3644 0.19651 0.53795 0.0
C831 C 0.35008 0.18772 0.54974 0.0
C832 C 0.35094 0.19619 0.56737 0.0
C833 C 0.36606 0.21365 0.57334 0.0
C834 C 0.38105 0.22159 0.5622 0.0
C835 C 0.38029 0.21297 0.5447 0.0
C836 C 0.36068 0.1614 0.52362 0.0
C837 C 0.34478 0.14584 0.52876 0.0
C838 C 0.3458 0.13495 0.54251 0.0
C839 C 0.36277 0.13928 0.55112 0.0
C840 C 0.37873 0.15451 0.5455 0.0
C841 C 0.37768 0.16561 0.53196 0.0
C842 C 0.33833 0.15863 0.39905 0.0
C843 C 0.36414 0.26978 0.53919 0.0
H844 H 0.82151 0.1638 0.36656 0.0
H845 H 0.95634 0.28784 0.53831 0.0
H846 H 0.80292 0.17471 0.46231 0.0
H847 H 0.77688 0.1457 0.44788 0.0
H848 H 0.79857 0.11432 0.4738 0.0
H849 H 0.82472 0.14332 0.48773 0.0
H850 H 0.83102 0.19956 0.44176 0.0
H851 H 0.82509 0.18796 0.40868 0.0
H852 H 0.84631 0.15163 0.42074 0.0
H853 H 0.85223 0.16344 0.45378 0.0
H854 H 0.86354 0.22837 0.44967 0.0
H855 H 0.88799 0.24449 0.42852 0.0
H856 H 0.91755 0.22014 0.45344 0.0
H857 H 0.89304 0.20401 0.47432 0.0
H858 H 0.87511 0.24698 0.49023 0.0
H859 H 0.90335 0.27535 0.50164 0.0
H860 H 0.92249 0.24196 0.52807 0.0
H861 H 0.8943 0.21372 0.51636 0.0
H862 H 0.85182 0.22994 0.52671 0.0
H863 H 0.86285 0.2428 0.55926 0.0
H864 H 0.87421 0.19859 0.56852 0.0
H865 H 0.8639 0.1863 0.53593 0.0
H866 H 0.80527 0.18447 0.51145 0.0
H867 H 0.78369 0.16599 0.53441 0.0
H868 H 0.81581 0.14019 0.54644 0.0
H869 H 0.83695 0.15827 0.52323 0.0
O870 O 0.82406 0.16827 0.37967 0.0
O871 O 0.8351 0.14985 0.3866 0.0
O872 O 0.93477 0.29337 0.51943 0.0
O873 O 0.94512 0.27685 0.5335 0.0
C874 C 0.83246 0.17866 0.48301 0.0
C875 C 0.84537 0.18915 0.47014 0.0
C876 C 0.86191 0.20529 0.47656 0.0
C877 C 0.86535 0.21121 0.49585 0.0
C878 C 0.85251 0.20072 0.50878 0.0
C879 C 0.83612 0.18431 0.50238 0.0
C880 C 0.81565 0.1611 0.47613 0.0
C881 C 0.80192 0.16154 0.465 0.0
C882 C 0.78713 0.14502 0.45675 0.0
C883 C 0.78571 0.12779 0.45976 0.0
C884 C 0.79919 0.12738 0.47145 0.0
C885 C 0.8141 0.14391 0.47944 0.0
C886 C 0.84214 0.18239 0.45005 0.0
C887 C 0.83447 0.18918 0.43717 0.0
C888 C 0.83106 0.18249 0.41832 0.0
C889 C 0.83524 0.16887 0.41206 0.0
C890 C 0.84295 0.16213 0.42509 0.0
C891 C 0.84637 0.16885 0.44393 0.0
C892 C 0.87647 0.21494 0.46346 0.0
C893 C 0.87522 0.2264 0.4504 0.0
C894 C 0.88918 0.23558 0.43835 0.0
C895 C 0.90473 0.23363 0.43935 0.0
C896 C 0.90587 0.22211 0.45248 0.0
C897 C 0.89186 0.21283 0.46436 0.0
C898 C 0.88264 0.22834 0.50257 0.0
C899 C 0.88546 0.24585 0.49843 0.0
C900 C 0.90158 0.26201 0.50499 0.0
C901 C 0.91516 0.26093 0.51583 0.0
C902 C 0.9123 0.24331 0.51982 0.0
C903 C 0.8962 0.22716 0.5132 0.0
C904 C 0.85664 0.20692 0.52907 0.0
C905 C 0.85636 0.22285 0.5359 0.0
C906 C 0.86272 0.23021 0.5544 0.0
C907 C 0.86922 0.22157 0.5664 0.0
C908 C 0.86894 0.2053 0.55967 0.0
C909 C 0.86291 0.19817 0.54111 0.0
C910 C 0.82286 0.17297 0.51597 0.0
C911 C 0.80758 0.1748 0.51904 0.0
C912 C 0.79528 0.16422 0.53207 0.0
C913 C 0.79821 0.15183 0.54234 0.0
C914 C 0.81339 0.14987 0.53897 0.0
C915 C 0.82549 0.16021 0.52578 0.0
C916 C 0.8315 0.16172 0.39204 0.0
C917 C 0.93224 0.27806 0.52298 0.0
H918 H 0.98825 0.50647 0.35712 0.0
H919 H 0.01392 0.39935 0.1889 0.0
H920 H 0.96541 0.50619 0.26073 0.0
H921 H 0.96866 0.53532 0.27458 0.0
H922 H 0.01894 0.56644 0.24762 0.0
H923 H 0.01576 0.53735 0.23413 0.0
H924 H 0.96843 0.47327 0.27987 0.0
H925 H 0.97192 0.48266 0.3134 0.0
H926 H 0.02409 0.53114 0.30558 0.0
H927 H 0.02052 0.52146 0.27214 0.0
H928 H 0.96969 0.43894 0.25524 0.0
H929 H 0.97712 0.42007 0.27514 0.0
H930 H 0.03052 0.46771 0.28986 0.0
H931 H 0.0233 0.48632 0.26941 0.0
H932 H 0.96252 0.43507 0.21544 0.0
H933 H 0.96485 0.40896 0.20157 0.0
H934 H 0.02359 0.44149 0.21106 0.0
H935 H 0.02104 0.46757 0.2247 0.0
H936 H 0.95719 0.45767 0.19233 0.0
H937 H 0.9555 0.44157 0.16195 0.0
H938 H 0.01412 0.4738 0.16141 0.0
H939 H 0.0158 0.48922 0.19205 0.0
H940 H 0.9592 0.50252 0.21354 0.0
H941 H 0.95658 0.52209 0.19033 0.0
H942 H 0.01012 0.53698 0.173 0.0
H943 H 0.01278 0.51781 0.19638 0.0
O944 O 0.98719 0.50296 0.34384 0.0
O945 O 0.01386 0.52774 0.33905 0.0
O946 O 0.98234 0.39325 0.19 0.0
O947 O 0.01257 0.4093 0.19474 0.0
C948 C 0.98964 0.50203 0.2399 0.0
C949 C 0.99187 0.49106 0.2532 0.0
C950 C 0.99228 0.47487 0.2471 0.0
C951 C 0.99026 0.46957 0.22774 0.0
C952 C 0.98802 0.48047 0.21447 0.0
C953 C 0.98778 0.49674 0.22048 0.0
C954 C 0.99034 0.51964 0.2464 0.0
C955 C 0.97701 0.51932 0.25766 0.0
C956 C 0.97891 0.53594 0.26559 0.0
C957 C 0.99407 0.55315 0.26219 0.0
C958 C 0.007 0.55341 0.2503 0.0
C959 C 0.0052 0.53681 0.24257 0.0
C960 C 0.99417 0.49673 0.27358 0.0
C961 C 0.98062 0.48588 0.28545 0.0
C962 C 0.98264 0.4913 0.30458 0.0
C963 C 0.99826 0.50768 0.31217 0.0
C964 C 0.01187 0.51847 0.3002 0.0
C965 C 0.00985 0.513 0.28109 0.0
C966 C 0.99597 0.464 0.26079 0.0
C967 C 0.98296 0.44532 0.26282 0.0
C968 C 0.9872 0.43459 0.27418 0.0
C969 C 0.00438 0.44247 0.28401 0.0
C970 C 0.01712 0.46137 0.28257 0.0
C971 C 0.013 0.472 0.27093 0.0
C972 C 0.99161 0.45316 0.22103 0.0
C973 C 0.97585 0.43646 0.21461 0.0
C974 C 0.97724 0.4216 0.20668 0.0
C975 C 0.99443 0.42317 0.20512 0.0
C976 C 0.01016 0.43983 0.21199 0.0
C977 C 0.00874 0.4547 0.21987 0.0
C978 C 0.9866 0.47476 0.19424 0.0
C979 C 0.96959 0.46168 0.18533 0.0
C980 C 0.96865 0.45242 0.16813 0.0
C981 C 0.98469 0.45652 0.15947 0.0
C982 C 0.00158 0.47058 0.16777 0.0
C983 C 0.00255 0.47948 0.18516 0.0
C984 C 0.98604 0.50846 0.20641 0.0
C985 C 0.97034 0.51002 0.20471 0.0
C986 C 0.96889 0.52122 0.19152 0.0
C987 C 0.98307 0.53089 0.17974 0.0
C988 C 0.99883 0.52941 0.18164 0.0
C989 C 1.00035 0.51842 0.19493 0.0
C990 C 1.00031 0.51345 0.33247 0.0
C991 C 0.996 0.40763 0.19619 0.0
H992 H 0.51593 0.51438 0.36363 0.0
H993 H 0.39026 0.37102 0.19388 0.0
H994 H 0.50775 0.52376 0.2577 0.0
H995 H 0.53347 0.55201 0.27348 0.0
H996 H 0.56705 0.52671 0.27059 0.0
H997 H 0.54089 0.49801 0.25526 0.0
H998 H 0.49054 0.50544 0.28465 0.0
H999 H 0.49961 0.51308 0.31819 0.0
H1000 H 0.51664 0.47202 0.31773 0.0
H1001 H 0.50764 0.46463 0.28411 0.0
H1002 H 0.45888 0.47735 0.27647 0.0
H1003 H 0.43547 0.46061 0.29827 0.0
H1004 H 0.43817 0.411 0.28486 0.0
H1005 H 0.46239 0.42813 0.26368 0.0
H1006 H 0.43935 0.45698 0.2353 0.0
H1007 H 0.4098 0.43079 0.22305 0.0
H1008 H 0.43603 0.39941 0.20782 0.0
H1009 H 0.46544 0.42562 0.22031 0.0
H1010 H 0.46338 0.4786 0.20244 0.0
H1011 H 0.44993 0.46692 0.17033 0.0
H1012 H 0.48071 0.43865 0.16533 0.0
H1013 H 0.49376 0.44998 0.19772 0.0
H1014 H 0.51005 0.52007 0.21884 0.0
H1015 H 0.53199 0.53894 0.19647 0.0
H1016 H 0.54515 0.49563 0.18613 0.0
H1017 H 0.52373 0.47715 0.20907 0.0
O1018 O 0.51241 0.51112 0.35037 0.0
O1019 O 0.52081 0.48973 0.34942 0.0
O1020 O 0.38886 0.39813 0.20731 0.0
O1021 O 0.40173 0.38151 0.199 0.0
C1022 C 0.50593 0.49107 0.24856 0.0
C1023 C 0.49344 0.48011 0.26153 0.0
C1024 C 0.47654 0.4644 0.25512 0.0
C1025 C 0.47247 0.45926 0.23568 0.0
C1026 C 0.48521 0.46987 0.22269 0.0
C1027 C 0.502 0.48578 0.22912 0.0
C1028 C 0.52244 0.50882 0.25553 0.0
C1029 C 0.52068 0.52434 0.26034 0.0
C1030 C 0.53531 0.54039 0.26937 0.0
C1031 C 0.55207 0.54135 0.27337 0.0
C1032 C 0.55418 0.52619 0.26765 0.0
C1033 C 0.53935 0.5099 0.2589 0.0
C1034 C 0.49854 0.48456 0.28197 0.0
C1035 C 0.4963 0.49817 0.29181 0.0
C1036 C 0.50146 0.50248 0.31098 0.0
C1037 C 0.50888 0.49319 0.32064 0.0
C1038 C 0.51098 0.47946 0.31071 0.0
C1039 C 0.50585 0.47519 0.29153 0.0
C1040 C 0.46262 0.4541 0.26869 0.0
C1041 C 0.45481 0.46302 0.27858 0.0
C1042 C 0.44137 0.45343 0.29094 0.0
C1043 C 0.43513 0.43458 0.2933 0.0
C1044 C 0.4428 0.42555 0.28328 0.0
C1045 C 0.45658 0.4353 0.27121 0.0
C1046 C 0.45449 0.44316 0.22871 0.0
C1047 C 0.43864 0.44438 0.22943 0.0
C1048 C 0.42181 0.42943 0.22237 0.0
C1049 C 0.42056 0.413 0.21442 0.0
C1050 C 0.4365 0.41184 0.21382 0.0
C1051 C 0.45332 0.42679 0.22093 0.0
C1052 C 0.47972 0.46534 0.20231 0.0
C1053 C 0.46749 0.47019 0.19428 0.0
C1054 C 0.45974 0.46341 0.17604 0.0
C1055 C 0.46425 0.45184 0.16543 0.0
C1056 C 0.47713 0.44767 0.17319 0.0
C1057 C 0.48467 0.45422 0.19159 0.0
C1058 C 0.51521 0.49719 0.21551 0.0
C1059 C 0.51779 0.51474 0.21188 0.0
C1060 C 0.53031 0.52549 0.19914 0.0
C1061 C 0.54023 0.51871 0.18958 0.0
C1062 C 0.53758 0.50111 0.19321 0.0
C1063 C 0.52533 0.49053 0.20623 0.0
C1064 C 0.51441 0.49785 0.341 0.0
C1065 C 0.40274 0.39715 0.20673 0.0
H1066 H 0.52299 0.00763 0.37019 0.0
H1067 H 0.38299 0.97653 0.20599 0.0
H1068 H 0.53991 0.03183 0.27439 0.0
H1069 H 0.56415 0.02949 0.29161 0.0
H1070 H 0.54265 0.9738 0.26609 0.0
H1071 H 0.51822 0.97603 0.24944 0.0
H1072 H 0.50553 0.02576 0.29705 0.0
H1073 H 0.51328 0.02309 0.32964 0.0
H1074 H 0.50557 0.96864 0.31409 0.0
H1075 H 0.49758 0.97139 0.28163 0.0
H1076 H 0.46842 0.02286 0.27516 0.0
H1077 H 0.44429 0.01518 0.29683 0.0
H1078 H 0.43806 0.96074 0.30077 0.0
H1079 H 0.46155 0.96813 0.27843 0.0
H1080 H 0.46962 0.03072 0.23934 0.0
H1081 H 0.44056 0.02748 0.22785 0.0
H1082 H 0.41725 0.9678 0.22018 0.0
H1083 H 0.44645 0.97129 0.23161 0.0
H1084 H 0.49423 0.0378 0.21564 0.0
H1085 H 0.48339 0.04077 0.18441 0.0
H1086 H 0.46845 0.98404 0.16803 0.0
H1087 H 0.47899 0.98108 0.19943 0.0
H1088 H 0.53107 0.03877 0.22004 0.0
H1089 H 0.55157 0.04266 0.19507 0.0
H1090 H 0.53326 0.98393 0.19313 0.0
H1091 H 0.51243 0.98007 0.21754 0.0
O1092 O 0.51958 0.00826 0.3573 0.0
O1093 O 0.51568 0.98044 0.34851 0.0
O1094 O 0.40726 0.00897 0.21482 0.0
O1095 O 0.39461 0.97821 0.21067 0.0
C1096 C 0.51046 0.0039 0.25389 0.0
C1097 C 0.49738 0.00098 0.26708 0.0
C1098 C 0.48096 1.00039 0.26145 0.0
C1099 C 0.47784 0.00322 0.24266 0.0
C1100 C 0.49103 0.00654 0.22954 0.0
C1101 C 0.50723 0.00656 0.23504 0.0
C1102 C 0.5275 0.00425 0.26032 0.0
C1103 C 0.54081 0.01937 0.27206 0.0
C1104 C 0.55451 0.01794 0.28202 0.0
C1105 C 0.55525 0.00145 0.2802 0.0
C1106 C 0.54257 0.98677 0.26756 0.0
C1107 C 0.52871 0.9881 0.25785 0.0
C1108 C 0.50111 0.99882 0.287 0.0
C1109 C 0.50539 0.01321 0.30076 0.0
C1110 C 0.50987 0.01167 0.31934 0.0
C1111 C 0.51014 0.99569 0.32445 0.0
C1112 C 0.50556 0.98117 0.31062 0.0
C1113 C 0.50102 0.9827 0.29208 0.0
C1114 C 0.46669 0.99602 0.27505 0.0
C1115 C 0.46171 0.0092 0.28051 0.0
C1116 C 0.44801 0.00485 0.29294 0.0
C1117 C 0.43937 0.98739 0.30048 0.0
C1118 C 0.44462 0.97435 0.29528 0.0
C1119 C 0.45802 0.97855 0.28254 0.0
C1120 C 0.46009 0.00124 0.23626 0.0
C1121 C 0.45821 0.01697 0.23517 0.0
C1122 C 0.4416 0.01507 0.22861 0.0
C1123 C 0.42657 0.99737 0.22307 0.0
C1124 C 0.42853 0.98163 0.22432 0.0
C1125 C 0.44516 0.98357 0.23086 0.0
C1126 C 0.48727 0.0092 0.20981 0.0
C1127 C 0.48883 0.02611 0.20521 0.0
C1128 C 0.48259 0.02776 0.18744 0.0
C1129 C 0.47497 0.0126 0.17386 0.0
C1130 C 0.47436 0.99599 0.17819 0.0
C1131 C 0.48037 0.99427 0.19607 0.0
C1132 C 0.52058 0.00921 0.22093 0.0
C1133 C 0.53164 0.02681 0.21433 0.0
C1134 C 0.54326 0.02899 0.20006 0.0
C1135 C 0.54413 0.01363 0.19231 0.0
C1136 C 0.53313 0.99607 0.19909 0.0
C1137 C 0.52131 0.99386 0.21311 0.0
C1138 C 0.51527 0.99426 0.34412 0.0
C1139 C 0.40894 0.99528 0.21596 0.0
H1140 H 0.47074 0.01258 0.70637 0.0
H1141 H 0.61129 0.99412 0.85258 0.0
H1142 H 0.48377 0.02107 0.82075 0.0
H1143 H 0.4592 0.02348 0.80454 0.0
H1144 H 0.43992 0.96975 0.7751 0.0
H1145 H 0.46436 0.96729 0.79161 0.0
H1146 H 0.50203 0.02542 0.7835 0.0
H1147 H 0.49011 0.02551 0.75187 0.0
H1148 H 0.48565 0.97233 0.73709 0.0
H1149 H 0.49724 0.97224 0.76894 0.0
H1150 H 0.5392 0.02968 0.78192 0.0
H1151 H 0.56201 0.03617 0.759 0.0
H1152 H 0.55948 0.98409 0.76835 0.0
H1153 H 0.53613 0.97731 0.79078 0.0
H1154 H 0.56154 0.02996 0.82032 0.0
H1155 H 0.59139 0.0336 0.82894 0.0
H1156 H 0.56497 0.97639 0.84337 0.0
H1157 H 0.53523 0.97287 0.83445 0.0
H1158 H 0.54356 0.02591 0.8575 0.0
H1159 H 0.55648 0.02541 0.88848 0.0
H1160 H 0.51529 0.96758 0.89024 0.0
H1161 H 0.50257 0.96808 0.85896 0.0
H1162 H 0.50474 0.02003 0.86045 0.0
H1163 H 0.48538 0.01621 0.88632 0.0
H1164 H 0.44555 0.96136 0.86206 0.0
H1165 H 0.46519 0.96516 0.8363 0.0
O1166 O 0.47595 0.01252 0.71861 0.0
O1167 O 0.47515 0.98585 0.71123 0.0
O1168 O 0.6126 0.02225 0.84098 0.0
O1169 O 0.59967 0.99302 0.84891 0.0
C1170 C 0.49362 0.99521 0.81252 0.0
C1171 C 0.50577 0.99785 0.79831 0.0
C1172 C 0.52296 0.9997 0.80289 0.0
C1173 C 0.52809 0.99906 0.82176 0.0
C1174 C 0.51616 0.99681 0.83605 0.0
C1175 C 0.49886 0.99484 0.83145 0.0
C1176 C 0.47594 0.99407 0.80726 0.0
C1177 C 0.47379 0.00947 0.81141 0.0
C1178 C 0.45981 0.01087 0.80205 0.0
C1179 C 0.44785 0.99693 0.78832 0.0
C1180 C 0.4491 0.98081 0.78541 0.0
C1181 C 0.46293 0.97931 0.79495 0.0
C1182 C 0.50038 0.99877 0.77853 0.0
C1183 C 0.49854 0.01384 0.77338 0.0
C1184 C 0.49172 0.01385 0.75531 0.0
C1185 C 0.48682 0.99887 0.74198 0.0
C1186 C 0.48924 0.98405 0.74703 0.0
C1187 C 0.49595 0.98401 0.76517 0.0
C1188 C 0.53593 0.00299 0.78804 0.0
C1189 C 0.54326 0.01947 0.77874 0.0
C1190 C 0.5563 0.02318 0.76569 0.0
C1191 C 0.56251 0.01063 0.76194 0.0
C1192 C 0.55499 0.99403 0.77107 0.0
C1193 C 0.54168 0.99015 0.78385 0.0
C1194 C 0.54624 0.00114 0.82671 0.0
C1195 C 0.56224 0.0182 0.82522 0.0
C1196 C 0.57926 0.02025 0.83021 0.0
C1197 C 0.58056 0.00528 0.83687 0.0
C1198 C 0.56447 0.9882 0.83831 0.0
C1199 C 0.54746 0.98615 0.83324 0.0
C1200 C 0.52224 0.99698 0.85589 0.0
C1201 C 0.53723 0.01317 0.86462 0.0
C1202 C 0.54463 0.01285 0.88226 0.0
C1203 C 0.53701 0.9964 0.89163 0.0
C1204 C 0.5214 0.98045 0.88331 0.0
C1205 C 0.51412 0.98071 0.86551 0.0
C1206 C 0.48648 0.99282 0.84653 0.0
C1207 C 0.49187 0.00716 0.86073 0.0
C1208 C 0.48082 0.00494 0.87552 0.0
C1209 C 0.46401 0.98842 0.8763 0.0
C1210 C 0.45839 0.97426 0.86179 0.0
C1211 C 0.46958 0.97641 0.84709 0.0
C1212 C 0.479 0.99864 0.72299 0.0
C1213 C 0.5986 0.00743 0.84235 0.0
H1214 H 0.98918 0.46812 0.71535 0.0
H1215 H 0.02287 0.62012 0.88262 0.0
H1216 H 0.98939 0.46507 0.82983 0.0
H1217 H 0.9865 0.43617 0.81626 0.0
H1218 H 0.04042 0.46716 0.79633 0.0
H1219 H 0.04344 0.49614 0.81054 0.0
H1220 H 0.98586 0.48108 0.79575 0.0
H1221 H 0.9822 0.47112 0.76239 0.0
H1222 H 0.03533 0.51823 0.75466 0.0
H1223 H 0.0389 0.52791 0.78813 0.0
H1224 H 0.98338 0.51524 0.79844 0.0
H1225 H 0.97573 0.53354 0.77802 0.0
H1226 H 0.02889 0.58165 0.79245 0.0
H1227 H 0.03675 0.56308 0.81236 0.0
H1228 H 0.98546 0.53412 0.84141 0.0
H1229 H 0.98205 0.55992 0.85427 0.0
H1230 H 0.04045 0.59284 0.86663 0.0
H1231 H 0.04365 0.56698 0.8536 0.0
H1232 H 0.9899 0.51215 0.8735 0.0
H1233 H 0.98931 0.52707 0.90354 0.0
H1234 H 0.04819 0.55891 0.90801 0.0
H1235 H 0.04866 0.54386 0.87781 0.0
H1236 H 0.99352 0.47521 0.86258 0.0
H1237 H 0.99777 0.45636 0.88541 0.0
H1238 H 0.05598 0.49379 0.88815 0.0
H1239 H 0.05172 0.51214 0.8645 0.0
O1240 O 0.99092 0.47231 0.72849 0.0
O1241 O 0.01825 0.49682 0.72522 0.0
O1242 O 0.99392 0.59239 0.87035 0.0
O1243 O 0.02386 0.60985 0.87707 0.0
C1244 C 0.0175 0.50024 0.82806 0.0
C1245 C 0.01501 0.51096 0.81468 0.0
C1246 C 0.01455 0.52714 0.82065 0.0
C1247 C 0.01662 0.53258 0.84 0.0
C1248 C 0.01919 0.52194 0.85334 0.0
C1249 C 0.01974 0.50584 0.84742 0.0
C1250 C 0.01681 0.48265 0.82163 0.0
C1251 C 1.00086 0.46557 0.82318 0.0
C1252 C 0.99918 0.44909 0.81529 0.0
C1253 C 0.01329 0.44941 0.80535 0.0
C1254 C 0.02936 0.46653 0.80394 0.0
C1255 C 0.03114 0.48302 0.81212 0.0
C1256 C 0.0127 0.50512 0.79436 0.0
C1257 C 0.99673 0.48916 0.78685 0.0
C1258 C 0.99466 0.48354 0.76777 0.0
C1259 C 0.00849 0.49385 0.75586 0.0
C1260 C 0.02443 0.50995 0.76345 0.0
C1261 C 0.0265 0.51552 0.78254 0.0
C1262 C 0.01065 0.53779 0.80686 0.0
C1263 C 0.99355 0.52959 0.79683 0.0
C1264 C 0.98918 0.54005 0.78522 0.0
C1265 C 0.00172 0.55899 0.78372 0.0
C1266 C 0.01897 0.56709 0.79346 0.0
C1267 C 0.02346 0.55652 0.80479 0.0
C1268 C 0.01479 0.54873 0.84657 0.0
C1269 C 0.9975 0.547 0.84672 0.0
C1270 C 0.9956 0.56171 0.85415 0.0
C1271 C 0.01099 0.57842 0.86156 0.0
C1272 C 0.02833 0.58017 0.86109 0.0
C1273 C 0.0302 0.56545 0.85364 0.0
C1274 C 0.01931 0.52692 0.87354 0.0
C1275 C 0.00268 0.52186 0.88128 0.0
C1276 C 0.00236 0.53055 0.8983 0.0
C1277 C 0.0187 0.54435 0.90791 0.0
C1278 C 0.03542 0.54829 0.90089 0.0
C1279 C 0.03572 0.53965 0.88374 0.0
C1280 C 0.02234 0.49474 0.86155 0.0
C1281 C 0.00721 0.47913 0.86781 0.0
C1282 C 0.00964 0.46845 0.88085 0.0
C1283 C 0.02721 0.47358 0.88829 0.0
C1284 C 0.04233 0.48954 0.88246 0.0
C1285 C 0.03992 0.49997 0.86903 0.0
C1286 C 0.00626 0.48782 0.7356 0.0
C1287 C 0.009 0.59393 0.86988 0.0
H1288 H 0.48836 0.49585 0.70138 0.0
H1289 H 0.62552 0.61733 0.87364 0.0
H1290 H 0.47137 0.50664 0.79735 0.0
H1291 H 0.44532 0.47794 0.78244 0.0
H1292 H 0.46644 0.4458 0.80775 0.0
H1293 H 0.49262 0.4745 0.82217 0.0
H1294 H 0.49919 0.53129 0.77698 0.0
H1295 H 0.49275 0.5199 0.74383 0.0
H1296 H 0.51374 0.48314 0.75474 0.0
H1297 H 0.52016 0.49475 0.78785 0.0
H1298 H 0.53175 0.55968 0.78478 0.0
H1299 H 0.55595 0.57597 0.76341 0.0
H1300 H 0.58582 0.55153 0.78735 0.0
H1301 H 0.56152 0.53514 0.8084 0.0
H1302 H 0.54428 0.57806 0.82573 0.0
H1303 H 0.57272 0.60608 0.83743 0.0
H1304 H 0.5914 0.57172 0.8625 0.0
H1305 H 0.56303 0.54384 0.8505 0.0
H1306 H 0.52127 0.56089 0.86202 0.0
H1307 H 0.53344 0.57387 0.89432 0.0
H1308 H 0.54408 0.52904 0.9026 0.0
H1309 H 0.53276 0.51668 0.87017 0.0
H1310 H 0.47368 0.51557 0.84566 0.0
H1311 H 0.45171 0.49703 0.8683 0.0
H1312 H 0.4838 0.47144 0.88143 0.0
H1313 H 0.50526 0.48946 0.85841 0.0
O1314 O 0.49114 0.50026 0.7145 0.0
O1315 O 0.50208 0.48163 0.72084 0.0
O1316 O 0.60417 0.62352 0.8552 0.0
O1317 O 0.61425 0.60648 0.86866 0.0
C1318 C 0.50081 0.51001 0.81775 0.0
C1319 C 0.51369 0.52049 0.80485 0.0
C1320 C 0.53041 0.53639 0.81128 0.0
C1321 C 0.5341 0.54205 0.83063 0.0
C1322 C 0.52129 0.53156 0.84358 0.0
C1323 C 0.50467 0.51543 0.83717 0.0
C1324 C 0.48385 0.49263 0.81085 0.0
C1325 C 0.47024 0.49337 0.79982 0.0
C1326 C 0.45543 0.47702 0.7913 0.0
C1327 C 0.45389 0.45968 0.79396 0.0
C1328 C 0.46718 0.45896 0.80565 0.0
C1329 C 0.4821 0.47531 0.81392 0.0
C1330 C 0.51022 0.5139 0.7847 0.0
C1331 C 0.50249 0.52087 0.77212 0.0
C1332 C 0.49878 0.51429 0.75323 0.0
C1333 C 0.50274 0.5006 0.74663 0.0
C1334 C 0.51054 0.49369 0.75935 0.0
C1335 C 0.51425 0.5003 0.77824 0.0
C1336 C 0.54483 0.54614 0.79806 0.0
C1337 C 0.54343 0.5577 0.78523 0.0
C1338 C 0.55725 0.56699 0.77307 0.0
C1339 C 0.57281 0.56506 0.77374 0.0
C1340 C 0.57411 0.55346 0.78664 0.0
C1341 C 0.56023 0.54404 0.79861 0.0
C1342 C 0.55158 0.55896 0.83737 0.0
C1343 C 0.55458 0.57664 0.83368 0.0
C1344 C 0.57081 0.5926 0.84042 0.0
C1345 C 0.58431 0.59114 0.85097 0.0
C1346 C 0.58128 0.57335 0.85448 0.0
C1347 C 0.56507 0.55741 0.84768 0.0
C1348 C 0.52569 0.53756 0.86389 0.0
C1349 C 0.52586 0.55367 0.87096 0.0
C1350 C 0.53288 0.5611 0.8893 0.0
C1351 C 0.53954 0.55234 0.90091 0.0
C1352 C 0.53872 0.53585 0.89402 0.0
C1353 C 0.53208 0.52866 0.87558 0.0
C1354 C 0.4913 0.50419 0.85074 0.0
C1355 C 0.47593 0.50594 0.85344 0.0
C1356 C 0.4634 0.49534 0.86628 0.0
C1357 C 0.46621 0.48298 0.87675 0.0
C1358 C 0.48149 0.4811 0.87379 0.0
C1359 C 0.49379 0.49144 0.86074 0.0
C1360 C 0.49867 0.49355 0.72657 0.0
C1361 C 0.60148 0.60806 0.85836 0.0
H1362 H 0.64673 0.83536 0.69154 0.0
H1363 H 0.66601 0.72806 0.51377 0.0
H1364 H 0.62298 0.83696 0.59107 0.0
H1365 H 0.62671 0.86646 0.60477 0.0
H1366 H 0.68173 0.89563 0.58728 0.0
H1367 H 0.67815 0.8662 0.57435 0.0
H1368 H 0.62609 0.80368 0.6138 0.0
H1369 H 0.62971 0.8127 0.64744 0.0
H1370 H 0.68394 0.85842 0.64065 0.0
H1371 H 0.68021 0.8491 0.6071 0.0
H1372 H 0.6274 0.76844 0.5915 0.0
H1373 H 0.63557 0.74992 0.61118 0.0
H1374 H 0.69011 0.79691 0.62168 0.0
H1375 H 0.68217 0.81505 0.6013 0.0
H1376 H 0.61926 0.76244 0.556 0.0
H1377 H 0.62013 0.73595 0.54081 0.0
H1378 H 0.67814 0.77091 0.53605 0.0
H1379 H 0.67706 0.79723 0.55137 0.0
H1380 H 0.61511 0.78167 0.52854 0.0
H1381 H 0.61494 0.76673 0.49809 0.0
H1382 H 0.67102 0.80915 0.49347 0.0
H1383 H 0.67126 0.82369 0.52416 0.0
H1384 H 0.61488 0.82068 0.53631 0.0
H1385 H 0.61228 0.83973 0.51238 0.0
H1386 H 0.67056 0.87679 0.51868 0.0
H1387 H 0.6732 0.85726 0.54176 0.0
O1388 O 0.64562 0.832 0.67823 0.0
O1389 O 0.67337 0.85536 0.67397 0.0
O1390 O 0.6358 0.7204 0.52431 0.0
O1391 O 0.66543 0.73808 0.52054 0.0
C1392 C 0.64862 0.83163 0.57451 0.0
C1393 C 0.65044 0.82031 0.58762 0.0
C1394 C 0.65001 0.80372 0.58134 0.0
C1395 C 0.6472 0.79821 0.56197 0.0
C1396 C 0.64497 0.80929 0.54889 0.0
C1397 C 0.64589 0.8261 0.55509 0.0
C1398 C 0.65012 0.84953 0.58124 0.0
C1399 C 0.63572 0.84979 0.58999 0.0
C1400 C 0.63789 0.86657 0.59786 0.0
C1401 C 0.65443 0.88332 0.59686 0.0
C1402 C 0.66871 0.88299 0.58789 0.0
C1403 C 0.66665 0.86622 0.58036 0.0
C1404 C 0.65282 0.82583 0.60802 0.0
C1405 C 0.63874 0.81562 0.61963 0.0
C1406 C 0.64085 0.82082 0.63882 0.0
C1407 C 0.6571 0.83632 0.64673 0.0
C1408 C 0.67123 0.84645 0.63502 0.0
C1409 C 0.66911 0.84121 0.61584 0.0
C1410 C 0.65424 0.79304 0.59479 0.0
C1411 C 0.64112 0.77471 0.598 0.0
C1412 C 0.64576 0.7642 0.60928 0.0
C1413 C 0.66345 0.77203 0.61791 0.0
C1414 C 0.67633 0.79062 0.61531 0.0
C1415 C 0.67181 0.80097 0.6037 0.0
C1416 C 0.64813 0.78165 0.55495 0.0
C1417 C 0.63219 0.76422 0.552 0.0
C1418 C 0.63271 0.74917 0.5432 0.0
C1419 C 0.6492 0.75133 0.53714 0.0
C1420 C 0.66522 0.76876 0.54052 0.0
C1421 C 0.66467 0.78379 0.54937 0.0
C1422 C 0.64322 0.80369 0.52856 0.0
C1423 C 0.62718 0.78803 0.52068 0.0
C1424 C 0.62713 0.77946 0.5034 0.0
C1425 C 0.64302 0.78671 0.49359 0.0
C1426 C 0.65858 0.80335 0.50074 0.0
C1427 C 0.65871 0.81172 0.51818 0.0
C1428 C 0.64418 0.8379 0.54116 0.0
C1429 C 0.62705 0.83297 0.53257 0.0
C1430 C 0.62558 0.84379 0.51896 0.0
C1431 C 0.6412 0.85983 0.51399 0.0
C1432 C 0.6583 0.86469 0.52258 0.0
C1433 C 0.6598 0.85364 0.53583 0.0
C1434 C 0.65926 0.84186 0.66711 0.0
C1435 C 0.64968 0.73562 0.527 0.0
H1436 H 0.16269 0.84292 0.69804 0.0
H1437 H 0.06569 0.69174 0.53832 0.0
H1438 H 0.17119 0.85175 0.59835 0.0
H1439 H 0.19599 0.88079 0.61385 0.0
H1440 H 0.23404 0.86186 0.60344 0.0
H1441 H 0.20894 0.83243 0.58837 0.0
H1442 H 0.14065 0.82237 0.6181 0.0
H1443 H 0.14567 0.83201 0.65164 0.0
H1444 H 0.19037 0.82107 0.65556 0.0
H1445 H 0.18504 0.81123 0.62204 0.0
H1446 H 0.1103 0.79104 0.58985 0.0
H1447 H 0.08581 0.77416 0.61042 0.0
H1448 H 0.119 0.75601 0.63958 0.0
H1449 H 0.14356 0.77304 0.61877 0.0
H1450 H 0.11095 0.78448 0.55091 0.0
H1451 H 0.0842 0.75557 0.53778 0.0
H1452 H 0.10704 0.72411 0.56138 0.0
H1453 H 0.13385 0.75318 0.57418 0.0
H1454 H 0.13974 0.81363 0.53407 0.0
H1455 H 0.12748 0.80164 0.50167 0.0
H1456 H 0.14649 0.76243 0.50456 0.0
H1457 H 0.15843 0.77421 0.53728 0.0
H1458 H 0.17119 0.84517 0.5482 0.0
H1459 H 0.19213 0.86348 0.52481 0.0
H1460 H 0.21968 0.83198 0.52995 0.0
H1461 H 0.19844 0.81348 0.55309 0.0
O1462 O 0.16088 0.83894 0.68482 0.0
O1463 O 0.18381 0.8332 0.68606 0.0
O1464 O 0.06505 0.72022 0.53138 0.0
O1465 O 0.0761 0.70339 0.54338 0.0
C1466 C 0.17263 0.82161 0.58492 0.0
C1467 C 0.15949 0.81031 0.59727 0.0
C1468 C 0.14349 0.79386 0.59016 0.0
C1469 C 0.1409 0.78846 0.57077 0.0
C1470 C 0.15402 0.79969 0.55844 0.0
C1471 C 0.16994 0.81621 0.5655 0.0
C1472 C 0.18824 0.83995 0.59228 0.0
C1473 C 0.18489 0.85388 0.59933 0.0
C1474 C 0.19902 0.8704 0.60824 0.0
C1475 C 0.21686 0.87344 0.61 0.0
C1476 C 0.22039 0.85982 0.60225 0.0
C1477 C 0.20613 0.84309 0.59358 0.0
C1478 C 0.16239 0.81597 0.61769 0.0
C1479 C 0.15141 0.82191 0.62627 0.0
C1480 C 0.15436 0.82749 0.64541 0.0
C1481 C 0.16841 0.8273 0.65629 0.0
C1482 C 0.17942 0.82137 0.6476 0.0
C1483 C 0.17642 0.81575 0.62846 0.0
C1484 C 0.12865 0.78313 0.60267 0.0
C1485 C 0.11222 0.78325 0.60054 0.0
C1486 C 0.09823 0.77357 0.6123 0.0
C1487 C 0.1004 0.76362 0.62657 0.0
C1488 C 0.11695 0.76362 0.62879 0.0
C1489 C 0.13095 0.77326 0.61689 0.0
C1490 C 0.12439 0.7709 0.56332 0.0
C1491 C 0.11019 0.77133 0.55312 0.0
C1492 C 0.0949 0.7548 0.5457 0.0
C1493 C 0.0935 0.73751 0.54849 0.0
C1494 C 0.1077 0.73716 0.55893 0.0
C1495 C 0.12301 0.75373 0.56629 0.0
C1496 C 0.15003 0.79484 0.53794 0.0
C1497 C 0.14168 0.80278 0.52757 0.0
C1498 C 0.1346 0.79587 0.50918 0.0
C1499 C 0.13606 0.78113 0.5008 0.0
C1500 C 0.14534 0.77387 0.5108 0.0
C1501 C 0.15217 0.7806 0.52936 0.0
C1502 C 0.18337 0.82807 0.55234 0.0
C1503 C 0.18181 0.84231 0.54433 0.0
C1504 C 0.1937 0.85267 0.53095 0.0
C1505 C 0.2075 0.84911 0.52557 0.0
C1506 C 0.20926 0.83508 0.53395 0.0
C1507 C 0.19716 0.82453 0.54711 0.0
C1508 C 0.17155 0.83331 0.67661 0.0
C1509 C 0.07734 0.71991 0.54055 0.0
H1510 H 0.18713 0.34244 0.70572 0.0
H1511 H 0.05277 0.3152 0.54099 0.0
H1512 H 0.20867 0.36725 0.61148 0.0
H1513 H 0.23194 0.36329 0.62826 0.0
H1514 H 0.21215 0.31039 0.59658 0.0
H1515 H 0.18796 0.31374 0.58136 0.0
H1516 H 0.17377 0.36264 0.63198 0.0
H1517 H 0.17987 0.35912 0.6648 0.0
H1518 H 0.1739 0.3055 0.64874 0.0
H1519 H 0.16753 0.30907 0.61603 0.0
H1520 H 0.1382 0.36086 0.60925 0.0
H1521 H 0.11412 0.35355 0.63093 0.0
H1522 H 0.10749 0.299 0.6354 0.0
H1523 H 0.13092 0.30602 0.61308 0.0
H1524 H 0.13999 0.36856 0.57282 0.0
H1525 H 0.11109 0.36575 0.56136 0.0
H1526 H 0.08655 0.30585 0.55545 0.0
H1527 H 0.11558 0.30892 0.56683 0.0
H1528 H 0.16383 0.37417 0.54842 0.0
H1529 H 0.15299 0.37594 0.51669 0.0
H1530 H 0.13739 0.31856 0.5031 0.0
H1531 H 0.14785 0.31678 0.53498 0.0
H1532 H 0.20228 0.37575 0.55615 0.0
H1533 H 0.22211 0.37928 0.53056 0.0
H1534 H 0.19977 0.31979 0.52527 0.0
H1535 H 0.17954 0.31631 0.55021 0.0
O1536 O 0.18458 0.34349 0.69268 0.0
O1537 O 0.18157 0.3161 0.68366 0.0
O1538 O 0.07762 0.34757 0.54886 0.0
O1539 O 0.06434 0.31672 0.54563 0.0
C1540 C 0.17994 0.34113 0.58853 0.0
C1541 C 0.1669 0.33854 0.60169 0.0
C1542 C 0.15057 0.33811 0.59593 0.0
C1543 C 0.14745 0.34067 0.57705 0.0
C1544 C 0.16049 0.34346 0.56393 0.0
C1545 C 0.17664 0.34347 0.56957 0.0
C1546 C 0.19672 0.34092 0.59494 0.0
C1547 C 0.20966 0.35501 0.60789 0.0
C1548 C 0.223 0.3527 0.61746 0.0
C1549 C 0.22387 0.33637 0.61403 0.0
C1550 C 0.21168 0.32294 0.6 0.0
C1551 C 0.19809 0.32506 0.59082 0.0
C1552 C 0.17032 0.33617 0.62164 0.0
C1553 C 0.17372 0.35012 0.63561 0.0
C1554 C 0.17724 0.34808 0.65433 0.0
C1555 C 0.17743 0.33205 0.65939 0.0
C1556 C 0.1739 0.31804 0.64532 0.0
C1557 C 0.17032 0.32006 0.62663 0.0
C1558 C 0.13628 0.33394 0.60945 0.0
C1559 C 0.13141 0.34726 0.61474 0.0
C1560 C 0.11775 0.34312 0.62717 0.0
C1561 C 0.10904 0.32575 0.63487 0.0
C1562 C 0.11413 0.31256 0.62981 0.0
C1563 C 0.12748 0.31655 0.61707 0.0
C1564 C 0.12982 0.33895 0.57059 0.0
C1565 C 0.12834 0.35487 0.56902 0.0
C1566 C 0.11183 0.35321 0.5625 0.0
C1567 C 0.09651 0.33556 0.55746 0.0
C1568 C 0.09807 0.31964 0.55919 0.0
C1569 C 0.11461 0.32133 0.5657 0.0
C1570 C 0.15653 0.34533 0.54399 0.0
C1571 C 0.15827 0.36207 0.5385 0.0
C1572 C 0.15204 0.36304 0.52045 0.0
C1573 C 0.14428 0.34736 0.5075 0.0
C1574 C 0.14343 0.33088 0.51276 0.0
C1575 C 0.14939 0.32985 0.53092 0.0
C1576 C 0.18986 0.34582 0.55543 0.0
C1577 C 0.20188 0.36353 0.54962 0.0
C1578 C 0.2131 0.36552 0.53499 0.0
C1579 C 0.2126 0.34982 0.52612 0.0
C1580 C 0.20068 0.33214 0.53212 0.0
C1581 C 0.18923 0.33014 0.54645 0.0
C1582 C 0.1813 0.33 0.67928 0.0
C1583 C 0.07896 0.33373 0.55041 0.0
C1584 C 0.00919 0.40297 0.08271 0.0
C1585 C 0.9958 0.39329 0.06796 0.0
C1586 C 0.00614 0.41228 0.09775 0.0
C1587 C 0.98943 0.4122 0.09788 0.0
C1588 C 0.97573 0.40219 0.08321 0.0
C1589 C 0.97902 0.39271 0.06849 0.0
C1590 C 0.02096 0.42248 0.11333 0.0
C1591 C 0.95783 0.40199 0.08275 0.0
C1592 C 0.97742 0.42584 0.14434 0.0
C1593 C 0.98415 0.44489 0.14296 0.0
C1594 C 0.97873 0.4149 0.12963 0.0
C1595 C 0.98665 0.4232 0.11305 0.0
C1596 C 0.99285 0.44233 0.11137 0.0
C1597 C 0.99174 0.45302 0.12648 0.0
C1598 C 0.97234 0.39468 0.13214 0.0
C1599 C 1.00111 0.45161 0.09382 0.0
H1600 H 0.02214 0.40336 0.08245 0.0
H1601 H 0.96865 0.38534 0.05709 0.0
H1602 H 0.02604 0.43764 0.11352 0.0
H1603 H 0.01542 0.41788 0.12712 0.0
H1604 H 0.03268 0.42021 0.11173 0.0
H1605 H 0.94834 0.39301 0.0707 0.0
H1606 H 0.95107 0.39697 0.09593 0.0
H1607 H 0.96038 0.41636 0.08177 0.0
H1608 H 0.97184 0.41969 0.15727 0.0
H1609 H 0.99698 0.46778 0.12553 0.0
H1610 H 0.98414 0.39239 0.13203 0.0
H1611 H 0.96254 0.38571 0.12032 0.0
H1612 H 0.96571 0.39016 0.1455 0.0
H1613 H 0.01408 0.4517 0.09209 0.0
H1614 H 0.00395 0.46619 0.09419 0.0
H1615 H 0.9918 0.44368 0.0813 0.0
C1616 C 0.58917 0.58443 0.10902 0.0
C1617 C 0.60572 0.58596 0.10416 0.0
C1618 C 0.57935 0.57327 0.12322 0.0
C1619 C 0.58635 0.56359 0.13312 0.0
C1620 C 0.60319 0.56528 0.12852 0.0
C1621 C 0.6126 0.57631 0.11396 0.0
C1622 C 0.56132 0.57164 0.12745 0.0
C1623 C 0.61124 0.55543 0.13899 0.0
C1624 C 0.56621 0.54854 0.18009 0.0
C1625 C 0.55298 0.52984 0.17555 0.0
C1626 C 0.57779 0.55946 0.16665 0.0
C1627 C 0.5758 0.55159 0.14811 0.0
C1628 C 0.56267 0.5326 0.14356 0.0
C1629 C 0.55154 0.5219 0.15739 0.0
C1630 C 0.59182 0.57955 0.17217 0.0
C1631 C 0.55987 0.52376 0.1239 0.0
H1632 H 0.58365 0.59171 0.10146 0.0
H1633 H 0.62539 0.57747 0.11034 0.0
H1634 H 0.5503 0.55685 0.12556 0.0
H1635 H 0.56184 0.57651 0.14229 0.0
H1636 H 0.55766 0.57987 0.1183 0.0
H1637 H 0.62472 0.55864 0.13414 0.0
H1638 H 0.61287 0.55952 0.15424 0.0
H1639 H 0.60185 0.54016 0.13713 0.0
H1640 H 0.56746 0.55462 0.19419 0.0
H1641 H 0.54123 0.50747 0.15383 0.0
H1642 H 0.58821 0.58879 0.16474 0.0
H1643 H 0.60544 0.58261 0.16793 0.0
H1644 H 0.59281 0.58304 0.18751 0.0
H1645 H 0.55496 0.53058 0.11416 0.0
H1646 H 0.54979 0.5086 0.12289 0.0
H1647 H 0.57297 0.52582 0.11906 0.0
C1648 C 0.41073 0.99204 0.08224 0.0
C1649 C 0.41623 0.00671 0.07049 0.0
C1650 C 0.42092 0.99407 0.09899 0.0
C1651 C 0.43723 0.01108 0.10402 0.0
C1652 C 0.4429 0.02597 0.09223 0.0
C1653 C 0.43224 0.02366 0.07567 0.0
C1654 C 0.4142 0.97795 0.11131 0.0
C1655 C 0.46033 0.04423 0.097 0.0
C1656 C 0.45402 0.02 0.15554 0.0
C1657 C 0.46651 0.01364 0.15574 0.0
C1658 C 0.44475 0.01973 0.13874 0.0
C1659 C 0.44822 0.01314 0.12167 0.0
C1660 C 0.4613 0.0073 0.1217 0.0
C1661 C 0.47017 0.00746 0.13877 0.0
C1662 C 0.43071 0.02578 0.13938 0.0
C1663 C 0.46558 1.00043 0.10377 0.0
H1664 H 0.39831 0.97894 0.07843 0.0
H1665 H 0.43663 0.03502 0.06661 0.0
H1666 H 0.42442 0.97343 0.11275 0.0
H1667 H 0.41246 0.98237 0.12559 0.0
H1668 H 0.401 0.96583 0.10563 0.0
H1669 H 0.4629 0.05441 0.08634 0.0
H1670 H 0.45977 0.05044 0.11085 0.0
H1671 H 0.47206 0.04184 0.09812 0.0
H1672 H 0.45099 0.02457 0.16868 0.0
H1673 H 0.47992 0.00266 0.13887 0.0
H1674 H 0.41698 0.01373 0.1351 0.0
H1675 H 0.43357 0.03652 0.12932 0.0
H1676 H 0.43034 0.0315 0.1536 0.0
H1677 H 0.45341 0.98727 0.09799 0.0
H1678 H 0.47714 0.99786 0.10596 0.0
H1679 H 0.46898 0.01071 0.09308 0.0
C1680 C 0.40281 0.97097 0.96539 0.0
C1681 C 0.4036 0.98783 0.97062 0.0
C1682 C 0.41139 0.96924 0.94956 0.0
C1683 C 0.42078 0.98465 0.93862 0.0
C1684 C 0.42098 0.00144 0.94345 0.0
C1685 C 0.41249 0.00285 0.95939 0.0
C1686 C 0.41096 0.95114 0.94494 0.0
C1687 C 0.43062 0.01815 0.93206 0.0
C1688 C 0.46048 0.99096 0.91075 0.0
C1689 C 0.45253 0.98605 0.89232 0.0
C1690 C 0.45011 0.98982 0.926 0.0
C1691 C 0.43133 0.98377 0.92276 0.0
C1692 C 0.42309 0.97829 0.90423 0.0
C1693 C 0.43378 0.97941 0.88923 0.0
C1694 C 0.45941 0.9956 0.94553 0.0
C1695 C 0.40316 0.97192 0.90017 0.0
H1696 H 0.39601 0.95932 0.97399 0.0
H1697 H 0.41303 0.01588 0.96319 0.0
H1698 H 0.40605 0.94617 0.93006 0.0
H1699 H 0.42498 0.95338 0.94675 0.0
H1700 H 0.40207 0.94009 0.95401 0.0
H1701 H 0.42851 0.02975 0.93696 0.0
H1702 H 0.44548 0.02325 0.93299 0.0
H1703 H 0.4257 0.01421 0.91706 0.0
H1704 H 0.4749 0.99581 0.91324 0.0
H1705 H 0.42758 0.97569 0.87501 0.0
H1706 H 0.45182 0.98449 0.95507 0.0
H1707 H 0.45943 0.00826 0.95115 0.0
H1708 H 0.47374 0.99861 0.94583 0.0
H1709 H 0.39466 0.96069 0.90922 0.0
H1710 H 0.3985 0.96675 0.88526 0.0
H1711 H 0.40079 0.98367 0.90345 0.0
C1712 C 0.0068 0.40748 0.96882 0.0
C1713 C 0.02042 0.40394 0.97557 0.0
C1714 C 0.00982 0.41932 0.95441 0.0
C1715 C 0.02679 0.42761 0.9462 0.0
C1716 C 0.04057 0.42396 0.95275 0.0
C1717 C 0.0373 0.4123 0.96754 0.0
C1718 C 0.99484 0.42309 0.94811 0.0
C1719 C 0.05868 0.43225 0.94405 0.0
C1720 C 0.02324 0.44351 0.89821 0.0
C1721 C 0.02951 0.46243 0.90249 0.0
C1722 C 0.02356 0.43226 0.91207 0.0
C1723 C 0.0298 0.44004 0.93075 0.0
C1724 C 0.03679 0.45934 0.93495 0.0
C1725 C 0.03673 0.47036 0.92068 0.0
C1726 C 0.01637 0.41186 0.90692 0.0
C1727 C 0.04321 0.46812 0.95473 0.0
H1728 H 0.99377 0.40124 0.97506 0.0
H1729 H 0.04785 0.40958 0.97266 0.0
H1730 H 0.99996 0.43827 0.94948 0.0
H1731 H 0.99058 0.4183 0.93309 0.0
H1732 H 0.98265 0.41599 0.95635 0.0
H1733 H 0.06784 0.42777 0.95049 0.0
H1734 H 0.05648 0.4281 0.92879 0.0
H1735 H 0.06564 0.44766 0.94564 0.0
H1736 H 0.01777 0.43746 0.88406 0.0
H1737 H 0.04148 0.485 0.92394 0.0
H1738 H 0.00302 0.40344 0.91294 0.0
H1739 H 0.02581 0.40753 0.91287 0.0
H1740 H 0.01447 0.40858 0.89148 0.0
H1741 H 0.03138 0.46274 0.96355 0.0
H1742 H 0.04988 0.48353 0.95534 0.0
H1743 H 0.05296 0.46433 0.96096 0.0
C1744 C 0.58616 0.60179 0.00315 0.0
C1745 C 0.60037 0.59825 0.00741 0.0
C1746 C 0.57552 0.59478 0.98606 0.0
C1747 C 0.57941 0.5843 0.9728 0.0
C1748 C 0.59394 0.58097 0.9769 0.0
C1749 C 0.60412 0.58783 0.99423 0.0
C1750 C 0.55995 0.59835 0.9823 0.0
C1751 C 0.59872 0.57015 0.96298 0.0
C1752 C 0.54356 0.55062 0.9354 0.0
C1753 C 0.54863 0.56103 0.91965 0.0
C1754 C 0.55306 0.55827 0.95297 0.0
C1755 C 0.56822 0.57663 0.95467 0.0
C1756 C 0.57319 0.5873 0.93882 0.0
C1757 C 0.56322 0.57941 0.92151 0.0
C1758 C 0.54713 0.54658 0.96961 0.0
C1759 C 0.58946 0.60678 0.93999 0.0
H1760 H 0.58312 0.60973 0.01333 0.0
H1761 H 0.61516 0.58517 0.99738 0.0
H1762 H 0.56191 0.60579 0.96936 0.0
H1763 H 0.54693 0.58492 0.97993 0.0
H1764 H 0.5587 0.60673 0.99408 0.0
H1765 H 0.61081 0.56933 0.96806 0.0
H1766 H 0.587 0.55579 0.96014 0.0
H1767 H 0.60156 0.57675 0.94945 0.0
H1768 H 0.53221 0.53642 0.93392 0.0
H1769 H 0.56727 0.58736 0.90924 0.0
H1770 H 0.54508 0.55428 0.98147 0.0
H1771 H 0.55796 0.54366 0.97444 0.0
H1772 H 0.53429 0.53311 0.96625 0.0
H1773 H 0.58811 0.61559 0.9512 0.0
H1774 H 0.5911 0.61346 0.92655 0.0
H1775 H 0.60206 0.60639 0.94373 0.0
C1776 C 0.02148 0.61496 0.99067 0.0
C1777 C 0.00698 0.60495 0.0019 0.0
C1778 C 0.02474 0.60595 0.97545 0.0
C1779 C 0.01353 0.58643 0.97176 0.0
C1780 C 0.99926 0.57621 0.98347 0.0
C1781 C 0.99601 0.58563 0.99823 0.0
C1782 C 0.03982 0.61736 0.96302 0.0
C1783 C 0.98724 0.55534 0.98026 0.0
C1784 C 0.0068 0.56344 0.9228 0.0
C1785 C 0.0181 0.55569 0.92418 0.0
C1786 C 0.00565 0.57397 0.938 0.0
C1787 C 0.01596 0.5767 0.95508 0.0
C1788 C 0.02772 0.56925 0.95644 0.0
C1789 C 0.02875 0.55891 0.94089 0.0
C1790 C 0.99315 0.58189 0.93586 0.0
C1791 C 0.03881 0.57175 0.97446 0.0
H1792 H 0.02995 0.62991 0.99346 0.0
H1793 H 0.98493 0.5778 0.00704 0.0
H1794 H 0.04934 0.61191 0.96217 0.0
H1795 H 0.03394 0.61623 0.94857 0.0
H1796 H 0.0477 0.6323 0.96815 0.0
H1797 H 0.97756 0.54933 0.99139 0.0
H1798 H 0.97928 0.55176 0.96653 0.0
H1799 H 0.99574 0.54867 0.97976 0.0
H1800 H 0.99886 0.56131 0.90973 0.0
H1801 H 0.03753 0.55296 0.94193 0.0
H1802 H 1.00073 0.59706 0.93995 0.0
H1803 H 0.98192 0.5753 0.94535 0.0
H1804 H 0.98708 0.57962 0.92126 0.0
H1805 H 0.04722 0.58673 0.97917 0.0
H1806 H 0.04795 0.56586 0.97295 0.0
H1807 H 0.02953 0.56479 0.98566 0.0
C1808 C 0.39815 0.433 0.95766 0.0
C1809 C 0.39658 0.4156 0.95981 0.0
C1810 C 0.40838 0.44423 0.9436 0.0
C1811 C 0.41697 0.43775 0.9312 0.0
C1812 C 0.4147 0.41983 0.93276 0.0
C1813 C 0.40469 0.40905 0.94714 0.0
C1814 C 0.41066 0.46335 0.94256 0.0
C1815 C 0.42333 0.41224 0.91961 0.0
C1816 C 0.43457 0.46141 0.88607 0.0
C1817 C 0.45337 0.47211 0.89086 0.0
C1818 C 0.42247 0.45028 0.89909 0.0
C1819 C 0.42935 0.45014 0.91741 0.0
C1820 C 0.44829 0.46137 0.92244 0.0
C1821 C 0.46007 0.47208 0.90906 0.0
C1822 C 0.40244 0.43829 0.8931 0.0
C1823 C 0.45616 0.4619 0.9419 0.0
H1824 H 0.392 0.4382 0.96744 0.0
H1825 H 0.40342 0.39556 0.94861 0.0
H1826 H 0.42517 0.47408 0.94603 0.0
H1827 H 0.407 0.46524 0.9281 0.0
H1828 H 0.40214 0.46584 0.95238 0.0
H1829 H 0.41897 0.39747 0.92165 0.0
H1830 H 0.41976 0.41331 0.90482 0.0
H1831 H 0.4384 0.42062 0.92195 0.0
H1832 H 0.42939 0.46133 0.87195 0.0
H1833 H 0.47459 0.48051 0.91283 0.0
H1834 H 0.39418 0.44129 0.90279 0.0
H1835 H 0.39824 0.42339 0.89382 0.0
H1836 H 0.39917 0.44048 0.87858 0.0
H1837 H 0.44905 0.46551 0.95256 0.0
H1838 H 0.47101 0.47214 0.94387 0.0
H1839 H 0.454 0.44794 0.9446 0.0
C1840 C 0.58967 0.01433 0.99159 0.0
C1841 C 0.59236 0.9997 0.99651 0.0
C1842 C 0.57989 0.01302 0.97478 0.0
C1843 C 0.57277 0.99678 0.96243 0.0
C1844 C 0.57529 0.98189 0.96735 0.0
C1845 C 0.58496 0.98348 0.98439 0.0
C1846 C 0.57735 0.02914 0.97014 0.0
C1847 C 0.56808 0.96443 0.95445 0.0
C1848 C 0.53568 0.98839 0.92515 0.0
C1849 C 0.5459 0.9958 0.90964 0.0
C1850 C 0.5442 0.98839 0.9424 0.0
C1851 C 0.56333 0.99576 0.94406 0.0
C1852 C 0.57361 0.00284 0.92828 0.0
C1853 C 0.56479 0.00286 0.91131 0.0
C1854 C 0.5328 0.98091 0.95896 0.0
C1855 C 0.59399 0.0106 0.92937 0.0
H1856 H 0.59521 0.02687 1.00091 0.0
H1857 H 0.587 0.97212 0.98805 0.0
H1858 H 0.58418 0.03503 0.95721 0.0
H1859 H 0.56263 0.02426 0.96733 0.0
H1860 H 0.583 0.04042 0.98163 0.0
H1861 H 0.57076 0.95392 0.96054 0.0
H1862 H 0.55316 0.95811 0.95134 0.0
H1863 H 0.57453 0.96795 0.9409 0.0
H1864 H 0.52108 0.98299 0.9239 0.0
H1865 H 0.57268 0.00833 0.89924 0.0
H1866 H 0.53731 0.99218 0.97031 0.0
H1867 H 0.53474 0.96981 0.96469 0.0
H1868 H 0.51803 0.97516 0.95522 0.0
H1869 H 0.60079 0.02295 0.93962 0.0
H1870 H 0.59985 0.01476 0.9156 0.0
H1871 H 0.59723 1.00011 0.93442 0.0
C1872 C 0.61048 0.02806 0.10852 0.0
C1873 C 0.6013 0.01226 0.09583 0.0
C1874 C 0.6025 0.02968 0.12489 0.0
C1875 C 0.58481 0.01532 0.12846 0.0
C1876 C 0.57545 0.99944 0.11561 0.0
C1877 C 0.58385 0.99804 0.09958 0.0
C1878 C 0.61303 0.04668 0.13841 0.0
C1879 C 0.55647 0.98393 0.11871 0.0
C1880 C 0.56722 0.00787 0.17725 0.0
C1881 C 0.55588 0.01562 0.17668 0.0
C1882 C 0.5774 0.00847 0.16199 0.0
C1883 C 0.57594 0.01671 0.14561 0.0
C1884 C 0.56485 0.02496 0.14515 0.0
C1885 C 0.55505 0.02444 0.16074 0.0
C1886 C 0.58929 0.99977 0.16319 0.0
C1887 C 0.56268 0.03362 0.12787 0.0
H1888 H 0.62398 0.03907 0.10577 0.0
H1889 H 0.57657 0.98584 0.08981 0.0
H1890 H 0.60532 0.05412 0.13998 0.0
H1891 H 0.61473 0.04243 0.15248 0.0
H1892 H 0.62673 0.05648 0.13375 0.0
H1893 H 0.55089 0.97271 0.10716 0.0
H1894 H 0.5566 0.97774 0.13208 0.0
H1895 H 0.54711 0.98955 0.11991 0.0
H1896 H 0.56802 0.00121 0.18964 0.0
H1897 H 0.54617 0.0303 0.16019 0.0
H1898 H 0.60324 0.00969 0.15925 0.0
H1899 H 0.58364 0.98731 0.15312 0.0
H1900 H 0.59026 0.9955 0.17748 0.0
H1901 H 0.57623 0.04407 0.12346 0.0
H1902 H 0.55448 0.04048 0.13017 0.0
H1903 H 0.55585 0.02272 0.11611 0.0
C1904 C 0.96903 0.58645 0.09758 0.0
C1905 C 0.98591 0.60234 0.09532 0.0
C1906 C 0.96697 0.57487 0.1121 0.0
C1907 C 0.98209 0.57942 0.12477 0.0
C1908 C 0.99887 0.596 0.12318 0.0
C1909 C 1.0006 0.60719 0.10843 0.0
C1910 C 0.94888 0.55727 0.11329 0.0
C1911 C 0.01526 0.6015 0.13655 0.0
C1912 C 0.97606 0.55542 0.17018 0.0
C1913 C 0.9816 0.54254 0.16544 0.0
C1914 C 0.97576 0.5673 0.15699 0.0
C1915 C 0.98097 0.56612 0.13862 0.0
C1916 C 0.98603 0.55273 0.13364 0.0
C1917 C 0.98635 0.54117 0.14713 0.0
C1918 C 0.97043 0.58148 0.16286 0.0
C1919 C 0.99147 0.55085 0.11415 0.0
H1920 H 0.95761 0.58257 0.0875 0.0
H1921 H 0.01365 0.61955 0.1069 0.0
H1922 H 0.95036 0.54501 0.10963 0.0
H1923 H 0.94449 0.55613 0.12781 0.0
H1924 H 0.938 0.55666 0.10362 0.0
H1925 H 0.02673 0.61565 0.13452 0.0
H1926 H 0.01153 0.60111 0.15128 0.0
H1927 H 0.02006 0.59141 0.1344 0.0
H1928 H 0.97249 0.55659 0.18437 0.0
H1929 H 0.99039 0.53105 0.14335 0.0
H1930 H 0.95945 0.58031 0.15296 0.0
H1931 H 0.98231 0.59571 0.16238 0.0
H1932 H 0.96565 0.57985 0.17727 0.0
H1933 H 0.98058 0.54869 0.10353 0.0
H1934 H 0.9941 0.53909 0.11226 0.0
H1935 H 0.00401 0.56388 0.11132 0.0
C1936 C 0.41084 0.39596 0.06741 0.0
C1937 C 0.406 0.40706 0.05726 0.0
C1938 C 0.42089 0.40265 0.08488 0.0
C1939 C 0.4265 0.42098 0.09219 0.0
C1940 C 0.42207 0.4324 0.08175 0.0
C1941 C 0.41175 0.42525 0.06452 0.0
C1942 C 0.4251 0.38996 0.09573 0.0
C1943 C 0.42803 0.45212 0.0889 0.0
C1944 C 0.43564 0.43396 0.14465 0.0
C1945 C 0.45475 0.44339 0.14674 0.0
C1946 C 0.42629 0.42613 0.12707 0.0
C1947 C 0.4363 0.42804 0.11111 0.0
C1948 C 0.45562 0.43736 0.11318 0.0
C1949 C 0.46462 0.44479 0.13104 0.0
C1950 C 0.40569 0.41603 0.12554 0.0
C1951 C 0.46677 0.4399 0.09647 0.0
H1952 H 0.40639 0.38187 0.06193 0.0
H1953 H 0.40822 0.43398 0.05669 0.0
H1954 H 0.44001 0.39662 0.09913 0.0
H1955 H 0.41853 0.38752 0.10923 0.0
H1956 H 0.42026 0.3763 0.08786 0.0
H1957 H 0.42438 0.45952 0.07861 0.0
H1958 H 0.42153 0.45203 0.10209 0.0
H1959 H 0.44302 0.46008 0.0922 0.0
H1960 H 0.428 0.43264 0.15687 0.0
H1961 H 0.4794 0.45211 0.13266 0.0
H1962 H 0.40017 0.40185 0.11864 0.0
H1963 H 0.40088 0.42353 0.11667 0.0
H1964 H 0.39995 0.41482 0.13945 0.0
H1965 H 0.4625 0.42621 0.089 0.0
H1966 H 0.48162 0.44695 0.10052 0.0
H1967 H 0.46432 0.44831 0.08641 0.0
C1968 C 0.64338 0.72644 0.4024 0.0
C1969 C 0.66081 0.72851 0.40177 0.0
C1970 C 0.63927 0.73523 0.41711 0.0
C1971 C 0.65283 0.74614 0.43164 0.0
C1972 C 0.67029 0.74789 0.43132 0.0
C1973 C 0.6741 0.73916 0.41634 0.0
C1974 C 0.62055 0.73316 0.4169 0.0
C1975 C 0.68503 0.75918 0.4467 0.0
C1976 C 0.6509 0.78453 0.46054 0.0
C1977 C 0.64407 0.77596 0.47708 0.0
C1978 C 0.65324 0.77476 0.44538 0.0
C1979 C 0.64898 0.75612 0.44699 0.0
C1980 C 0.64186 0.74735 0.46361 0.0
C1981 C 0.63938 0.75735 0.47842 0.0
C1982 C 0.66066 0.78452 0.42781 0.0
C1983 C 0.63747 0.72764 0.46604 0.0
H1984 H 0.63305 0.7183 0.39117 0.0
H1985 H 0.68756 0.74074 0.41603 0.0
H1986 H 0.61411 0.72747 0.43006 0.0
H1987 H 0.62173 0.74701 0.41622 0.0
H1988 H 0.6114 0.72387 0.40481 0.0
H1989 H 0.69762 0.75849 0.4448 0.0
H1990 H 0.68859 0.77396 0.44701 0.0
H1991 H 0.68003 0.75413 0.46055 0.0
H1992 H 0.65451 0.79892 0.45954 0.0
H1993 H 0.63439 0.75083 0.49135 0.0
H1994 H 0.65149 0.77615 0.41536 0.0
H1995 H 0.67418 0.78593 0.42579 0.0
H1996 H 0.66221 0.79861 0.42835 0.0
H1997 H 0.62794 0.71812 0.45431 0.0
H1998 H 0.63128 0.72258 0.47949 0.0
H1999 H 0.65012 0.72685 0.46565 0.0
C2000 C 0.27047 0.89551 0.44011 0.0
C2001 C 0.27436 0.91396 0.43956 0.0
C2002 C 0.26062 0.88455 0.45451 0.0
C2003 C 0.25484 0.89234 0.46885 0.0
C2004 C 0.25956 0.91124 0.46885 0.0
C2005 C 0.26909 0.92175 0.45413 0.0
C2006 C 0.25567 0.86439 0.45388 0.0
C2007 C 0.254 0.92022 0.48406 0.0
C2008 C 0.2123 0.86158 0.49386 0.0
C2009 C 0.21971 0.85972 0.51091 0.0
C2010 C 0.22358 0.87172 0.47988 0.0
C2011 C 0.24279 0.88049 0.48314 0.0
C2012 C 0.25035 0.87855 0.50031 0.0
C2013 C 0.2387 0.86804 0.51393 0.0
C2014 C 0.21494 0.87319 0.46168 0.0
C2015 C 0.27073 0.88794 0.50445 0.0
H2016 H 0.27441 0.88938 0.42884 0.0
H2017 H 0.27219 0.93605 0.45389 0.0
H2018 H 0.2597 0.86118 0.46751 0.0
H2019 H 0.24065 0.85534 0.45144 0.0
H2020 H 0.26226 0.86079 0.44259 0.0
H2021 H 0.26013 0.93544 0.48296 0.0
H2022 H 0.23894 0.91376 0.48315 0.0
H2023 H 0.25815 0.91786 0.4981 0.0
H2024 H 0.19761 0.85495 0.4914 0.0
H2025 H 0.24445 0.86669 0.52715 0.0
H2026 H 0.21992 0.86855 0.44963 0.0
H2027 H 0.21893 0.88792 0.46009 0.0
H2028 H 0.19981 0.86471 0.46094 0.0
H2029 H 0.27693 0.8837 0.49328 0.0
H2030 H 0.27443 0.88455 0.51819 0.0
H2031 H 0.27683 0.90326 0.50456 0.0
C2032 C 0.08059 0.32388 0.41469 0.0
C2033 C 0.08618 0.33825 0.40256 0.0
C2034 C 0.09072 0.32626 0.43159 0.0
C2035 C 0.10705 0.34333 0.43639 0.0
C2036 C 0.11288 0.35786 0.42415 0.0
C2037 C 0.10228 0.35522 0.40745 0.0
C2038 C 0.08385 0.31052 0.4444 0.0
C2039 C 0.13035 0.37616 0.42865 0.0
C2040 C 0.12345 0.35406 0.48805 0.0
C2041 C 0.13595 0.34774 0.48902 0.0
C2042 C 0.11425 0.35311 0.47094 0.0
C2043 C 0.11784 0.3459 0.45434 0.0
C2044 C 0.13093 0.34009 0.45515 0.0
C2045 C 0.13971 0.34092 0.47252 0.0
C2046 C 0.10019 0.35917 0.47075 0.0
C2047 C 0.13536 0.3326 0.43774 0.0
H2048 H 0.06811 0.31077 0.41109 0.0
H2049 H 0.10674 0.36635 0.39811 0.0
H2050 H 0.09409 0.30609 0.44649 0.0
H2051 H 0.08187 0.31531 0.4584 0.0
H2052 H 0.07074 0.29824 0.43877 0.0
H2053 H 0.13318 0.38592 0.41749 0.0
H2054 H 0.12961 0.3829 0.44207 0.0
H2055 H 0.14199 0.3737 0.43049 0.0
H2056 H 0.12035 0.35913 0.50084 0.0
H2057 H 0.14947 0.33614 0.47324 0.0
H2058 H 0.08651 0.34703 0.46648 0.0
H2059 H 0.10321 0.36961 0.46031 0.0
H2060 H 0.09961 0.36525 0.48469 0.0
H2061 H 0.12321 0.31931 0.43219 0.0
H2062 H 0.14688 0.33008 0.44049 0.0
H2063 H 0.13888 0.3425 0.42663 0.0
C2064 C 0.08051 0.33293 0.29109 0.0
C2065 C 0.07129 0.31816 0.30253 0.0
C2066 C 0.08831 0.3308 0.27491 0.0
C2067 C 0.08707 0.3135 0.27003 0.0
C2068 C 0.07735 0.29835 0.28119 0.0
C2069 C 0.06948 0.30083 0.29726 0.0
C2070 C 0.09835 0.34726 0.2633 0.0
C2071 C 0.07581 0.27973 0.27652 0.0
C2072 C 0.09841 0.30687 0.22025 0.0
C2073 C 0.117 0.31263 0.22291 0.0
C2074 C 0.08828 0.30647 0.23553 0.0
C2075 C 0.09692 0.31179 0.2539 0.0
C2076 C 0.1155 0.31689 0.2567 0.0
C2077 C 0.12532 0.31732 0.24119 0.0
C2078 C 0.06854 0.30107 0.23192 0.0
C2079 C 0.1252 0.32246 0.27606 0.0
H2080 H 0.08184 0.34634 0.29492 0.0
H2081 H 0.06242 0.28935 0.30602 0.0
H2082 H 0.11304 0.35161 0.26386 0.0
H2083 H 0.09305 0.34334 0.24839 0.0
H2084 H 0.09706 0.35937 0.26829 0.0
H2085 H 0.06675 0.269 0.28579 0.0
H2086 H 0.07048 0.27476 0.26173 0.0
H2087 H 0.08954 0.28119 0.278 0.0
H2088 H 0.09194 0.30331 0.20614 0.0
H2089 H 0.13961 0.32148 0.24335 0.0
H2090 H 0.06697 0.31333 0.23524 0.0
H2091 H 0.05986 0.29017 0.2412 0.0
H2092 H 0.06344 0.29584 0.2171 0.0
H2093 H 0.12607 0.33555 0.28171 0.0
H2094 H 0.13924 0.32468 0.27602 0.0
H2095 H 0.1174 0.31161 0.28576 0.0
C2096 C 0.67567 0.74252 0.30161 0.0
C2097 C 0.68913 0.73954 0.30996 0.0
C2098 C 0.67947 0.75429 0.28698 0.0
C2099 C 0.69711 0.76309 0.28021 0.0
C2100 C 0.71073 0.75997 0.28835 0.0
C2101 C 0.70663 0.74836 0.30329 0.0
C2102 C 0.66461 0.75745 0.27891 0.0
C2103 C 0.72958 0.76884 0.28125 0.0
C2104 C 0.6973 0.77929 0.23147 0.0
C2105 C 0.70277 0.79806 0.23554 0.0
C2106 C 0.69659 0.768 0.24579 0.0
C2107 C 0.70106 0.7756 0.26465 0.0
C2108 C 0.7073 0.79476 0.26872 0.0
C2109 C 0.70823 0.80581 0.25407 0.0
C2110 C 0.69022 0.74775 0.2408 0.0
C2111 C 0.71189 0.80334 0.28865 0.0
H2112 H 0.66214 0.73591 0.30676 0.0
H2113 H 0.71708 0.74607 0.30963 0.0
H2114 H 0.66919 0.77252 0.28022 0.0
H2115 H 0.66169 0.75284 0.26375 0.0
H2116 H 0.65173 0.74985 0.28603 0.0
H2117 H 0.7385 0.76464 0.28875 0.0
H2118 H 0.72865 0.76492 0.26604 0.0
H2119 H 0.73613 0.78422 0.28296 0.0
H2120 H 0.69323 0.77334 0.2171 0.0
H2121 H 0.71233 0.82031 0.25723 0.0
H2122 H 0.67641 0.73896 0.24574 0.0
H2123 H 0.69945 0.74373 0.24791 0.0
H2124 H 0.6896 0.74462 0.22543 0.0
H2125 H 0.69926 0.79749 0.29631 0.0
H2126 H 0.71815 0.81872 0.28932 0.0
H2127 H 0.7214 0.79991 0.2961 0.0
C2128 C 0.25612 0.90947 0.33393 0.0
C2129 C 0.2604 0.9264 0.34355 0.0
C2130 C 0.24597 0.90363 0.31657 0.0
C2131 C 0.24005 0.91507 0.30845 0.0
C2132 C 0.24386 0.93194 0.31829 0.0
C2133 C 0.25393 0.93738 0.33578 0.0
C2134 C 0.24205 0.88546 0.30663 0.0
C2135 C 0.23786 0.94454 0.31004 0.0
C2136 C 0.23341 0.9083 0.25537 0.0
C2137 C 0.21449 0.89643 0.25246 0.0
C2138 C 0.24178 0.91513 0.2735 0.0
C2139 C 0.23098 0.90983 0.28914 0.0
C2140 C 0.21178 0.89836 0.28625 0.0
C2141 C 0.20374 0.89186 0.2679 0.0
C2142 C 0.26226 0.9275 0.27592 0.0
C2143 C 0.19983 0.89233 0.30257 0.0
H2144 H 0.26089 0.90079 0.33989 0.0
H2145 H 0.25718 0.95048 0.3431 0.0
H2146 H 0.22723 0.87656 0.30274 0.0
H2147 H 0.24918 0.8882 0.29345 0.0
H2148 H 0.24655 0.87761 0.31539 0.0
H2149 H 0.24069 0.95646 0.32002 0.0
H2150 H 0.24509 0.95008 0.2972 0.0
H2151 H 0.22304 0.93661 0.30582 0.0
H2152 H 0.24172 0.9121 0.24342 0.0
H2153 H 0.18911 0.88263 0.26567 0.0
H2154 H 0.26831 0.92015 0.2832 0.0
H2155 H 0.26595 0.94034 0.2848 0.0
H2156 H 0.2685 0.93151 0.2623 0.0
H2157 H 0.20277 0.88303 0.3108 0.0
H2158 H 0.18508 0.88478 0.29793 0.0
H2159 H 0.20285 0.90456 0.31212 0.0
C2160 C 0.66527 0.92676 0.31912 0.0
C2161 C 0.67864 0.93906 0.33292 0.0
C2162 C 0.66963 0.91818 0.30447 0.0
C2163 C 0.68776 0.92181 0.30372 0.0
C2164 C 0.70136 0.93432 0.31749 0.0
C2165 C 0.69666 0.94287 0.33187 0.0
C2166 C 0.6548 0.9051 0.28989 0.0
C2167 C 0.72081 0.93844 0.31719 0.0
C2168 C 0.69348 0.8852 0.27601 0.0
C2169 C 0.69883 0.89326 0.25893 0.0
C2170 C 0.69037 0.8946 0.29093 0.0
C2171 C 0.69239 0.91234 0.28857 0.0
C2172 C 0.69812 0.92067 0.27145 0.0
C2173 C 0.70132 0.91105 0.25686 0.0
C2174 C 0.68449 0.88537 0.30907 0.0
C2175 C 0.7002 0.93943 0.26827 0.0
H2176 H 0.65133 0.9238 0.31976 0.0
H2177 H 0.70707 0.95229 0.34251 0.0
H2178 H 0.65877 0.9098 0.27567 0.0
H2179 H 0.65296 0.89095 0.29016 0.0
H2180 H 0.64151 0.9042 0.29216 0.0
H2181 H 0.72981 0.94864 0.32883 0.0
H2182 H 0.72122 0.9254 0.31828 0.0
H2183 H 0.7264 0.94403 0.30368 0.0
H2184 H 0.69157 0.87146 0.2776 0.0
H2185 H 0.70511 0.91716 0.24352 0.0
H2186 H 0.6705 0.88247 0.31147 0.0
H2187 H 0.69364 0.89482 0.32105 0.0
H2188 H 0.6846 0.87207 0.30903 0.0
H2189 H 0.68669 0.93847 0.26843 0.0
H2190 H 0.70599 0.94454 0.25467 0.0
H2191 H 0.70917 0.94987 0.27973 0.0
C2192 C 0.06664 0.76955 0.29438 0.0
C2193 C 0.06678 0.75302 0.29702 0.0
C2194 C 0.07633 0.78108 0.28025 0.0
C2195 C 0.08627 0.77586 0.26838 0.0
C2196 C 0.08592 0.75887 0.27056 0.0
C2197 C 0.07626 0.74772 0.28486 0.0
C2198 C 0.07642 0.79912 0.27843 0.0
C2199 C 0.09617 0.75268 0.25809 0.0
C2200 C 0.10204 0.79807 0.22228 0.0
C2201 C 0.12061 0.81065 0.227 0.0
C2202 C 0.09057 0.78694 0.23569 0.0
C2203 C 0.09781 0.78852 0.2543 0.0
C2204 C 0.11643 0.80159 0.25925 0.0
C2205 C 0.1276 0.81243 0.24553 0.0
C2206 C 0.07084 0.77309 0.22982 0.0
C2207 C 0.12467 0.80386 0.27896 0.0
H2208 H 0.05939 0.7738 0.30371 0.0
H2209 H 0.07637 0.73491 0.28667 0.0
H2210 H 0.09045 0.81102 0.28171 0.0
H2211 H 0.07227 0.79999 0.26379 0.0
H2212 H 0.06715 0.80065 0.28797 0.0
H2213 H 0.09364 0.73859 0.26086 0.0
H2214 H 0.09217 0.75258 0.24312 0.0
H2215 H 0.11103 0.76267 0.26033 0.0
H2216 H 0.0966 0.79654 0.20794 0.0
H2217 H 0.14188 0.82232 0.24931 0.0
H2218 H 0.06177 0.77508 0.23924 0.0
H2219 H 0.06825 0.75874 0.23109 0.0
H2220 H 0.06706 0.77431 0.21513 0.0
H2221 H 0.11667 0.8067 0.28917 0.0
H2222 H 0.13909 0.81534 0.28078 0.0
H2223 H 0.12412 0.79075 0.28246 0.0
C2224 C 0.24607 0.30973 0.31695 0.0
C2225 C 0.25337 0.32661 0.32799 0.0
C2226 C 0.23619 0.30692 0.29971 0.0
C2227 C 0.23337 0.32125 0.29348 0.0
C2228 C 0.24026 0.33811 0.30481 0.0
C2229 C 0.25025 0.34062 0.32185 0.0
C2230 C 0.22919 0.28883 0.28793 0.0
C2231 C 0.23741 0.35367 0.29876 0.0
C2232 C 0.22613 0.32505 0.24157 0.0
C2233 C 0.20727 0.31813 0.23947 0.0
C2234 C 0.23466 0.32557 0.25894 0.0
C2235 C 0.22412 0.31916 0.27466 0.0
C2236 C 0.20499 0.31173 0.27253 0.0
C2237 C 0.19677 0.31121 0.2549 0.0
C2238 C 0.25505 0.33339 0.26054 0.0
C2239 C 0.19332 0.30489 0.28899 0.0
H2240 H 0.24843 0.29884 0.32157 0.0
H2241 H 0.25569 0.35365 0.33034 0.0
H2242 H 0.21432 0.28236 0.28436 0.0
H2243 H 0.23595 0.29156 0.27453 0.0
H2244 H 0.23174 0.27873 0.29516 0.0
H2245 H 0.24271 0.36546 0.30967 0.0
H2246 H 0.24441 0.35899 0.28576 0.0
H2247 H 0.22267 0.34841 0.29551 0.0
H2248 H 0.23423 0.33014 0.22958 0.0
H2249 H 0.1822 0.30592 0.25331 0.0
H2250 H 0.25829 0.3233 0.26671 0.0
H2251 H 0.26169 0.34627 0.27009 0.0
H2252 H 0.26109 0.33674 0.24675 0.0
H2253 H 0.19555 0.29444 0.29586 0.0
H2254 H 0.17856 0.29855 0.2848 0.0
H2255 H 0.19732 0.31667 0.2996 0.0
C2256 C 0.24797 0.33221 0.43139 0.0
C2257 C 0.26547 0.34589 0.42713 0.0
C2258 C 0.24025 0.33424 0.4477 0.0
C2259 C 0.25042 0.35016 0.46035 0.0
C2260 C 0.26813 0.36402 0.4562 0.0
C2261 C 0.27538 0.36182 0.43952 0.0
C2262 C 0.22119 0.31929 0.45138 0.0
C2263 C 0.27952 0.38102 0.46951 0.0
C2264 C 0.22287 0.36076 0.49445 0.0
C2265 C 0.2238 0.35161 0.51006 0.0
C2266 C 0.23193 0.36091 0.47835 0.0
C2267 C 0.24244 0.352 0.47801 0.0
C2268 C 0.24408 0.34349 0.4941 0.0
C2269 C 0.23457 0.34321 0.50985 0.0
C2270 C 0.22955 0.36984 0.4614 0.0
C2271 C 0.2554 0.33414 0.49447 0.0
H2272 H 0.24014 0.31994 0.42181 0.0
H2273 H 0.28894 0.3724 0.43636 0.0
H2274 H 0.22151 0.31288 0.46454 0.0
H2275 H 0.21239 0.3255 0.4533 0.0
H2276 H 0.21484 0.30814 0.43978 0.0
H2277 H 0.29302 0.39052 0.46425 0.0
H2278 H 0.27222 0.38881 0.47177 0.0
H2279 H 0.2817 0.37671 0.48338 0.0
H2280 H 0.21441 0.36711 0.49455 0.0
H2281 H 0.2354 0.33626 0.52198 0.0
H2282 H 0.22195 0.35899 0.44976 0.0
H2283 H 0.24302 0.37985 0.45647 0.0
H2284 H 0.22198 0.37726 0.46434 0.0
H2285 H 0.24901 0.3216 0.48445 0.0
H2286 H 0.25676 0.32983 0.50863 0.0
H2287 H 0.26924 0.34364 0.48996 0.0
C2288 C 0.63511 0.9215 0.43289 0.0
C2289 C 0.652 0.92932 0.42491 0.0
C2290 C 0.6315 0.91011 0.44795 0.0
C2291 C 0.64495 0.9061 0.45482 0.0
C2292 C 0.66194 0.91385 0.44668 0.0
C2293 C 0.66532 0.92551 0.43201 0.0
C2294 C 0.61339 0.90244 0.45658 0.0
C2295 C 0.67653 0.90965 0.45331 0.0
C2296 C 0.64697 0.89033 0.50332 0.0
C2297 C 0.63995 0.87122 0.49937 0.0
C2298 C 0.64756 0.90169 0.48913 0.0
C2299 C 0.64146 0.89379 0.47047 0.0
C2300 C 0.6338 0.87435 0.46656 0.0
C2301 C 0.63296 0.86325 0.48113 0.0
C2302 C 0.65544 0.92225 0.49397 0.0
C2303 C 0.62749 0.86544 0.44682 0.0
H2304 H 0.62479 0.92446 0.42751 0.0
H2305 H 0.67835 0.93134 0.4258 0.0
H2306 H 0.60602 0.88701 0.45512 0.0
H2307 H 0.61563 0.90674 0.47181 0.0
H2308 H 0.60459 0.90727 0.44997 0.0
H2309 H 0.68881 0.91637 0.44513 0.0
H2310 H 0.68076 0.91454 0.46831 0.0
H2311 H 0.67105 0.8944 0.45212 0.0
H2312 H 0.65226 0.89643 0.51749 0.0
H2313 H 0.62766 0.84847 0.47811 0.0
H2314 H 0.6464 0.92698 0.4878 0.0
H2315 H 0.66886 0.93016 0.48794 0.0
H2316 H 0.65738 0.92577 0.50937 0.0
H2317 H 0.61803 0.86945 0.44029 0.0
H2318 H 0.62053 0.85001 0.44636 0.0
H2319 H 0.63942 0.87049 0.43815 0.0
C2320 C 0.0815 0.72757 0.40236 0.0
C2321 C 0.07734 0.73953 0.39292 0.0
C2322 C 0.09172 0.73341 0.41976 0.0
C2323 C 0.09823 0.75174 0.42767 0.0
C2324 C 0.09455 0.76404 0.41789 0.0
C2325 C 0.08401 0.75773 0.40074 0.0
C2326 C 0.09508 0.71979 0.42994 0.0
C2327 C 0.1015 0.7838 0.42568 0.0
C2328 C 0.1075 0.76371 0.48022 0.0
C2329 C 0.12654 0.77248 0.48227 0.0
C2330 C 0.09807 0.7562 0.46262 0.0
C2331 C 0.10801 0.75788 0.44664 0.0
C2332 C 0.12728 0.76643 0.44874 0.0
C2333 C 0.13634 0.77349 0.46664 0.0
C2334 C 0.07752 0.74688 0.46107 0.0
C2335 C 0.13835 0.76874 0.43201 0.0
H2336 H 0.07633 0.71346 0.39641 0.0
H2337 H 0.08101 0.76711 0.39343 0.0
H2338 H 0.1099 0.72576 0.43345 0.0
H2339 H 0.08836 0.71711 0.44337 0.0
H2340 H 0.08979 0.70631 0.42154 0.0
H2341 H 0.09852 0.79196 0.41574 0.0
H2342 H 0.09509 0.78374 0.43893 0.0
H2343 H 0.11646 0.79097 0.42905 0.0
H2344 H 0.09999 0.76284 0.49244 0.0
H2345 H 0.15109 0.78034 0.46834 0.0
H2346 H 0.07147 0.73289 0.45356 0.0
H2347 H 0.07326 0.75518 0.45278 0.0
H2348 H 0.07179 0.74536 0.47502 0.0
H2349 H 0.13331 0.75513 0.42403 0.0
H2350 H 0.1531 0.77479 0.43614 0.0
H2351 H 0.13676 0.77801 0.42241 0.0
C2352 C 0.34052 0.07435 0.7473 0.0
C2353 C 0.32778 0.06398 0.73221 0.0
C2354 C 0.33618 0.08287 0.762 0.0
C2355 C 0.31872 0.08118 0.76156 0.0
C2356 C 0.30571 0.07059 0.74649 0.0
C2357 C 0.31036 0.06202 0.73203 0.0
C2358 C 0.35036 0.09383 0.77795 0.0
C2359 C 0.28701 0.06859 0.74549 0.0
C2360 C 0.30425 0.0915 0.80811 0.0
C2361 C 0.30936 0.11027 0.80723 0.0
C2362 C 0.30673 0.08167 0.79312 0.0
C2363 C 0.31432 0.0908 0.7768 0.0
C2364 C 0.31889 0.10958 0.77559 0.0
C2365 C 0.31651 0.11915 0.79091 0.0
C2366 C 0.30198 0.06179 0.79512 0.0
C2367 C 0.32684 0.11975 0.75836 0.0
H2368 H 0.35397 0.07584 0.74764 0.0
H2369 H 0.30045 0.05409 0.7204 0.0
H2370 H 0.35387 0.10861 0.77853 0.0
H2371 H 0.34482 0.08838 0.79153 0.0
H2372 H 0.36306 0.09327 0.77651 0.0
H2373 H 0.27835 0.05964 0.73299 0.0
H2374 H 0.27997 0.06252 0.75827 0.0
H2375 H 0.2883 0.0825 0.74499 0.0
H2376 H 0.29901 0.08471 0.82086 0.0
H2377 H 0.32043 0.13366 0.79024 0.0
H2378 H 0.3146 0.0609 0.79537 0.0
H2379 H 0.29297 0.05267 0.78292 0.0
H2380 H 0.29507 0.05634 0.80817 0.0
H2381 H 0.34049 0.12132 0.75681 0.0
H2382 H 0.3283 0.13379 0.75904 0.0
H2383 H 0.3181 0.11159 0.7456 0.0
C2384 C 0.93665 0.2314 0.76923 0.0
C2385 C 0.94007 0.24972 0.76914 0.0
C2386 C 0.92671 0.21986 0.78325 0.0
C2387 C 0.92035 0.22693 0.79769 0.0
C2388 C 0.92452 0.24569 0.79812 0.0
C2389 C 0.93415 0.25678 0.78377 0.0
C2390 C 0.92236 0.19988 0.78216 0.0
C2391 C 0.91832 0.25391 0.81345 0.0
C2392 C 0.87795 0.19468 0.82213 0.0
C2393 C 0.88544 0.19289 0.83917 0.0
C2394 C 0.88917 0.20524 0.80831 0.0
C2395 C 0.90839 0.21452 0.81172 0.0
C2396 C 0.91604 0.21261 0.82884 0.0
C2397 C 0.90446 0.20169 0.8423 0.0
C2398 C 0.88044 0.20666 0.79015 0.0
C2399 C 0.93644 0.22251 0.83313 0.0
H2400 H 0.94109 0.22583 0.75792 0.0
H2401 H 0.93688 0.27098 0.78389 0.0
H2402 H 0.92651 0.19658 0.79567 0.0
H2403 H 0.90741 0.19048 0.77959 0.0
H2404 H 0.92925 0.19683 0.77078 0.0
H2405 H 0.92393 0.2691 0.81262 0.0
H2406 H 0.90321 0.24692 0.8124 0.0
H2407 H 0.92255 0.25153 0.82743 0.0
H2408 H 0.86324 0.18769 0.81958 0.0
H2409 H 0.91029 0.20041 0.85552 0.0
H2410 H 0.88581 0.20257 0.77804 0.0
H2411 H 0.88392 0.22129 0.78883 0.0
H2412 H 0.86534 0.19772 0.78923 0.0
H2413 H 0.94297 0.21886 0.82186 0.0
H2414 H 0.94023 0.21901 0.84675 0.0
H2415 H 0.9421 0.23779 0.83359 0.0
C2416 C 0.76731 0.69293 0.74235 0.0
C2417 C 0.75299 0.675 0.73642 0.0
C2418 C 0.77792 0.69624 0.75921 0.0
C2419 C 0.77397 0.68132 0.77052 0.0
C2420 C 0.75951 0.66322 0.76463 0.0
C2421 C 0.74929 0.66027 0.74764 0.0
C2422 C 0.79336 0.71569 0.76493 0.0
C2423 C 0.7547 0.64696 0.77638 0.0
C2424 C 0.80886 0.68319 0.80689 0.0
C2425 C 0.803 0.68727 0.82358 0.0
C2426 C 0.79999 0.68192 0.78943 0.0
C2427 C 0.78471 0.68453 0.78868 0.0
C2428 C 0.77899 0.68904 0.80548 0.0
C2429 C 0.78825 0.69045 0.82271 0.0
C2430 C 0.80666 0.67733 0.77182 0.0
C2431 C 0.76263 0.69168 0.80534 0.0
H2432 H 0.77032 0.70439 0.73375 0.0
H2433 H 0.73821 0.64638 0.74326 0.0
H2434 H 0.79093 0.72069 0.77856 0.0
H2435 H 0.80636 0.71564 0.76691 0.0
H2436 H 0.79495 0.72569 0.75438 0.0
H2437 H 0.74299 0.63378 0.76986 0.0
H2438 H 0.76661 0.64497 0.77845 0.0
H2439 H 0.75122 0.64984 0.79046 0.0
H2440 H 0.82035 0.68087 0.80751 0.0
H2441 H 0.78352 0.69336 0.8356 0.0
H2442 H 0.80895 0.68761 0.76139 0.0
H2443 H 0.79614 0.66346 0.76537 0.0
H2444 H 0.81954 0.67716 0.77464 0.0
H2445 H 0.76424 0.70228 0.79556 0.0
H2446 H 0.76052 0.69608 0.81948 0.0
H2447 H 0.75018 0.67845 0.80024 0.0
C2448 C 0.7376 0.63738 0.63109 0.0
C2449 C 0.73879 0.65443 0.63641 0.0
C2450 C 0.74576 0.63534 0.61505 0.0
C2451 C 0.75515 0.65064 0.60398 0.0
C2452 C 0.7558 0.66764 0.60892 0.0
C2453 C 0.74772 0.66935 0.62507 0.0
C2454 C 0.74485 0.61702 0.61031 0.0
C2455 C 0.76547 0.68424 0.5974 0.0
C2456 C 0.79381 0.65559 0.57512 0.0
C2457 C 0.78546 0.65059 0.55685 0.0
C2458 C 0.78392 0.65496 0.59062 0.0
C2459 C 0.7652 0.64937 0.58783 0.0
C2460 C 0.75656 0.64384 0.56946 0.0
C2461 C 0.76677 0.64443 0.5542 0.0
C2462 C 0.79363 0.66077 0.60997 0.0
C2463 C 0.73669 0.63794 0.56586 0.0
H2464 H 0.73077 0.62579 0.63976 0.0
H2465 H 0.74858 0.68253 0.62894 0.0
H2466 H 0.73951 0.61198 0.59554 0.0
H2467 H 0.75878 0.61897 0.6117 0.0
H2468 H 0.73608 0.60614 0.6196 0.0
H2469 H 0.76377 0.69607 0.60245 0.0
H2470 H 0.78027 0.68901 0.59798 0.0
H2471 H 0.76022 0.68029 0.58248 0.0
H2472 H 0.80818 0.66006 0.57727 0.0
H2473 H 0.76027 0.64065 0.5401 0.0
H2474 H 0.78611 0.64981 0.61967 0.0
H2475 H 0.79404 0.67362 0.61564 0.0
H2476 H 0.80785 0.66348 0.60992 0.0
H2477 H 0.7282 0.62682 0.57503 0.0
H2478 H 0.73167 0.63279 0.55101 0.0
H2479 H 0.73471 0.64991 0.56935 0.0
C2480 C 0.37281 0.09013 0.64139 0.0
C2481 C 0.35822 0.07175 0.64035 0.0
C2482 C 0.37541 0.10154 0.62654 0.0
C2483 C 0.36335 0.09423 0.61017 0.0
C2484 C 0.34933 0.07532 0.60862 0.0
C2485 C 0.34681 0.06438 0.6238 0.0
C2486 C 0.39036 0.12169 0.62885 0.0
C2487 C 0.33643 0.06685 0.59126 0.0
C2488 C 0.35301 0.1257 0.58181 0.0
C2489 C 0.36363 0.12834 0.56649 0.0
C2490 C 0.35328 0.11512 0.59639 0.0
C2491 C 0.36418 0.10666 0.59544 0.0
C2492 C 0.37509 0.10944 0.58005 0.0
C2493 C 0.37482 0.12043 0.56582 0.0
C2494 C 0.3417 0.11279 0.61269 0.0
C2495 C 0.38663 0.1004 0.57838 0.0
H2496 H 0.3816 0.09592 0.65419 0.0
H2497 H 0.33561 0.05011 0.62286 0.0
H2498 H 0.39853 0.12551 0.61638 0.0
H2499 H 0.3842 0.13069 0.63002 0.0
H2500 H 0.39965 0.12475 0.64155 0.0
H2501 H 0.32763 0.05151 0.59141 0.0
H2502 H 0.32751 0.07302 0.59023 0.0
H2503 H 0.34417 0.06998 0.57849 0.0
H2504 H 0.34454 0.13202 0.58243 0.0
H2505 H 0.38298 0.12244 0.55391 0.0
H2506 H 0.35022 0.11691 0.62612 0.0
H2507 H 0.33104 0.09794 0.613 0.0
H2508 H 0.33491 0.12122 0.61188 0.0
H2509 H 0.39591 0.1041 0.59118 0.0
H2510 H 0.39492 0.10459 0.56598 0.0
H2511 H 0.3777 0.08504 0.57717 0.0
C2512 C 0.91521 0.26832 0.67012 0.0
C2513 C 0.92975 0.26502 0.67309 0.0
C2514 C 0.90423 0.26201 0.65317 0.0
C2515 C 0.9081 0.25247 0.6388 0.0
C2516 C 0.92298 0.24944 0.64161 0.0
C2517 C 0.93351 0.25561 0.65875 0.0
C2518 C 0.88834 0.26529 0.65075 0.0
C2519 C 0.92774 0.23958 0.62653 0.0
C2520 C 0.87265 0.21929 0.6009 0.0
C2521 C 0.87756 0.23014 0.58544 0.0
C2522 C 0.88186 0.22671 0.61863 0.0
C2523 C 0.89652 0.24533 0.62084 0.0
C2524 C 0.9011 0.25654 0.6054 0.0
C2525 C 0.89147 0.24882 0.58789 0.0
C2526 C 0.87638 0.2144 0.63481 0.0
C2527 C 0.91679 0.27635 0.60711 0.0
H2528 H 0.91218 0.27551 0.68117 0.0
H2529 H 0.94482 0.25314 0.66087 0.0
H2530 H 0.88969 0.27314 0.63822 0.0
H2531 H 0.87543 0.25175 0.64836 0.0
H2532 H 0.88729 0.27313 0.66318 0.0
H2533 H 0.94013 0.23891 0.6307 0.0
H2534 H 0.9162 0.22517 0.62334 0.0
H2535 H 0.93007 0.24682 0.61341 0.0
H2536 H 0.8618 0.20487 0.59902 0.0
H2537 H 0.8954 0.25717 0.57589 0.0
H2538 H 0.87451 0.22158 0.64725 0.0
H2539 H 0.88737 0.21143 0.6388 0.0
H2540 H 0.86355 0.20095 0.63127 0.0
H2541 H 0.91548 0.28429 0.61924 0.0
H2542 H 0.91762 0.28366 0.59425 0.0
H2543 H 0.9298 0.27642 0.60968 0.0
C2544 C 0.36488 0.27499 0.66306 0.0
C2545 C 0.34715 0.27206 0.66397 0.0
C2546 C 0.36915 0.26608 0.64864 0.0
C2547 C 0.35542 0.25412 0.63469 0.0
C2548 C 0.3376 0.25141 0.63531 0.0
C2549 C 0.33365 0.26031 0.65 0.0
C2550 C 0.38828 0.26922 0.6485 0.0
C2551 C 0.32266 0.23897 0.62053 0.0
C2552 C 0.36858 0.24272 0.58787 0.0
C2553 C 0.36509 0.22455 0.58976 0.0
C2554 C 0.36585 0.25267 0.60252 0.0
C2555 C 0.35959 0.24427 0.61951 0.0
C2556 C 0.35657 0.22612 0.62169 0.0
C2557 C 0.35922 0.21641 0.60672 0.0
C2558 C 0.36897 0.27186 0.59951 0.0
C2559 C 0.35011 0.2168 0.63969 0.0
H2560 H 0.37538 0.28398 0.67384 0.0
H2561 H 0.31994 0.25804 0.65055 0.0
H2562 H 0.38794 0.25578 0.64946 0.0
H2563 H 0.39419 0.27478 0.63509 0.0
H2564 H 0.39743 0.27906 0.66028 0.0
H2565 H 0.30968 0.23879 0.6227 0.0
H2566 H 0.32696 0.2437 0.6064 0.0
H2567 H 0.32007 0.22452 0.62066 0.0
H2568 H 0.37277 0.2489 0.57463 0.0
H2569 H 0.35652 0.20236 0.60816 0.0
H2570 H 0.37795 0.28193 0.6112 0.0
H2571 H 0.35576 0.27158 0.59936 0.0
H2572 H 0.37522 0.27697 0.58609 0.0
H2573 H 0.35935 0.22588 0.6518 0.0
H2574 H 0.34948 0.20314 0.63954 0.0
H2575 H 0.33632 0.21458 0.64195 0.0
C2576 C 0.73755 0.07775 0.61296 0.0
C2577 C 0.73018 0.08448 0.62635 0.0
C2578 C 0.7473 0.08859 0.59851 0.0
C2579 C 0.75 0.10675 0.59754 0.0
C2580 C 0.74212 0.11342 0.61065 0.0
C2581 C 0.73219 0.10216 0.62482 0.0
C2582 C 0.75522 0.08082 0.58464 0.0
C2583 C 0.74484 0.13276 0.61021 0.0
C2584 C 0.79271 0.14065 0.57458 0.0
C2585 C 0.78565 0.14102 0.55668 0.0
C2586 C 0.78119 0.12996 0.58814 0.0
C2587 C 0.76214 0.11914 0.58361 0.0
C2588 C 0.75489 0.11966 0.56562 0.0
C2589 C 0.76674 0.13072 0.5524 0.0
C2590 C 0.78947 0.13003 0.60724 0.0
C2591 C 0.7347 0.10814 0.56017 0.0
H2592 H 0.73594 0.06405 0.61394 0.0
H2593 H 0.72659 0.1075 0.63513 0.0
H2594 H 0.7513 0.08217 0.57007 0.0
H2595 H 0.77033 0.08889 0.58651 0.0
H2596 H 0.75061 0.06594 0.58634 0.0
H2597 H 0.73679 0.1354 0.62054 0.0
H2598 H 0.75949 0.1432 0.61337 0.0
H2599 H 0.7409 0.13496 0.59601 0.0
H2600 H 0.80731 0.14878 0.57799 0.0
H2601 H 0.76127 0.1309 0.53852 0.0
H2602 H 0.78701 0.11589 0.60955 0.0
H2603 H 0.78287 0.1338 0.61836 0.0
H2604 H 0.8044 0.13996 0.60885 0.0
H2605 H 0.73019 0.09314 0.56051 0.0
H2606 H 0.73115 0.11067 0.54592 0.0
H2607 H 0.72692 0.11127 0.57041 0.0
C2608 C 0.91822 0.67766 0.65709 0.0
C2609 C 0.92012 0.66288 0.66313 0.0
C2610 C 0.90858 0.67592 0.64003 0.0
C2611 C 0.90083 0.65905 0.62856 0.0
C2612 C 0.90245 0.64397 0.63467 0.0
C2613 C 0.91198 0.64602 0.65194 0.0
C2614 C 0.90699 0.69226 0.63412 0.0
C2615 C 0.89453 0.62584 0.62273 0.0
C2616 C 0.86488 0.65091 0.58997 0.0
C2617 C 0.87547 0.65722 0.5745 0.0
C2618 C 0.87288 0.65116 0.60764 0.0
C2619 C 0.89183 0.65762 0.60977 0.0
C2620 C 0.90245 0.66351 0.59403 0.0
C2621 C 0.89416 0.66334 0.57663 0.0
C2622 C 0.86115 0.64497 0.62413 0.0
C2623 C 0.92264 0.67026 0.59562 0.0
H2624 H 0.92432 0.69069 0.6657 0.0
H2625 H 0.91341 0.63453 0.65648 0.0
H2626 H 0.91416 0.69731 0.62115 0.0
H2627 H 0.89245 0.68792 0.63085 0.0
H2628 H 0.91288 0.70402 0.64511 0.0
H2629 H 0.89633 0.6152 0.62981 0.0
H2630 H 0.87977 0.62019 0.61922 0.0
H2631 H 0.90123 0.62828 0.6093 0.0
H2632 H 0.85044 0.64625 0.58835 0.0
H2633 H 0.9023 0.66797 0.5646 0.0
H2634 H 0.86595 0.65681 0.63486 0.0
H2635 H 0.8624 0.63386 0.63082 0.0
H2636 H 0.84653 0.63968 0.62 0.0
H2637 H 0.92983 0.68304 0.60528 0.0
H2638 H 0.92874 0.67342 0.58185 0.0
H2639 H 0.92511 0.6596 0.60165 0.0
C2640 C 0.94169 0.69795 0.7736 0.0
C2641 C 0.9324 0.68102 0.76255 0.0
C2642 C 0.93459 0.70075 0.79012 0.0
C2643 C 0.91768 0.68637 0.79555 0.0
C2644 C 0.90821 0.66932 0.78437 0.0
C2645 C 0.91572 0.66682 0.76812 0.0
C2646 C 0.94518 0.71903 0.80181 0.0
C2647 C 0.89005 0.6537 0.78951 0.0
C2648 C 0.90357 0.68302 0.84566 0.0
C2649 C 0.89115 0.68946 0.8447 0.0
C2650 C 0.91301 0.68282 0.83002 0.0
C2651 C 0.90974 0.68893 0.81291 0.0
C2652 C 0.89764 0.69599 0.81204 0.0
C2653 C 0.88857 0.69627 0.82798 0.0
C2654 C 0.926 0.67544 0.83162 0.0
C2655 C 0.89358 0.70242 0.79403 0.0
H2656 H 0.9546 0.70898 0.76944 0.0
H2657 H 0.90835 0.65372 0.75964 0.0
H2658 H 0.93685 0.72584 0.80299 0.0
H2659 H 0.94828 0.71654 0.81624 0.0
H2660 H 0.9582 0.72874 0.79579 0.0
H2661 H 0.88426 0.64143 0.77914 0.0
H2662 H 0.8916 0.64919 0.80348 0.0
H2663 H 0.88012 0.65863 0.79049 0.0
H2664 H 0.90574 0.67793 0.85863 0.0
H2665 H 0.87885 0.70109 0.82713 0.0
H2666 H 0.9393 0.68536 0.82629 0.0
H2667 H 0.92037 0.66213 0.82285 0.0
H2668 H 0.92837 0.67294 0.84631 0.0
H2669 H 0.90645 0.71269 0.7882 0.0
H2670 H 0.88494 0.70882 0.79604 0.0
H2671 H 0.88639 0.69039 0.78344 0.0
C2672 C 0.33314 0.25891 0.76318 0.0
C2673 C 0.32017 0.26314 0.75592 0.0
C2674 C 0.32941 0.24732 0.77796 0.0
C2675 C 0.31241 0.24006 0.78604 0.0
C2676 C 0.29932 0.24447 0.77899 0.0
C2677 C 0.30327 0.2558 0.76383 0.0
C2678 C 0.34364 0.2427 0.7848 0.0
C2679 C 0.28121 0.23731 0.78753 0.0
C2680 C 0.29957 0.19725 0.81271 0.0
C2681 C 0.3067 0.20529 0.8309 0.0
C2682 C 0.30058 0.20832 0.79805 0.0
C2683 C 0.30857 0.22781 0.80181 0.0
C2684 C 0.31478 0.2358 0.82043 0.0
C2685 C 0.314 0.22447 0.83471 0.0
C2686 C 0.29413 0.19929 0.77836 0.0
C2687 C 0.32303 0.25645 0.82511 0.0
H2688 H 0.34617 0.26437 0.75703 0.0
H2689 H 0.29322 0.25908 0.75832 0.0
H2690 H 0.34788 0.24767 0.79978 0.0
H2691 H 0.33782 0.22739 0.78376 0.0
H2692 H 0.35597 0.24908 0.77666 0.0
H2693 H 0.2727 0.2424 0.78076 0.0
H2694 H 0.27352 0.22188 0.78621 0.0
H2695 H 0.28347 0.24175 0.80273 0.0
H2696 H 0.29405 0.18242 0.80978 0.0
H2697 H 0.31939 0.23063 0.84885 0.0
H2698 H 0.30605 0.20395 0.76972 0.0
H2699 H 0.28497 0.20362 0.77171 0.0
H2700 H 0.2868 0.18386 0.77803 0.0
H2701 H 0.33652 0.26406 0.81915 0.0
H2702 H 0.32493 0.26006 0.84049 0.0
H2703 H 0.31426 0.26142 0.81877 0.0
C2704 C 0.74594 0.05991 0.73196 0.0
C2705 C 0.7425 0.07222 0.72225 0.0
C2706 C 0.7563 0.06567 0.74927 0.0
C2707 C 0.76368 0.08428 0.75682 0.0
C2708 C 0.76082 0.09692 0.7467 0.0
C2709 C 0.75011 0.09069 0.72966 0.0
C2710 C 0.75879 0.05171 0.7598 0.0
C2711 C 0.76872 0.11697 0.75409 0.0
C2712 C 0.77298 0.097 0.80924 0.0
C2713 C 0.79195 0.10492 0.81146 0.0
C2714 C 0.76355 0.08951 0.79165 0.0
C2715 C 0.7734 0.09034 0.77582 0.0
C2716 C 0.79256 0.09802 0.77809 0.0
C2717 C 0.80161 0.10506 0.79599 0.0
C2718 C 0.74309 0.08113 0.78993 0.0
C2719 C 0.80356 0.09942 0.76151 0.0
H2720 H 0.74003 0.04559 0.72632 0.0
H2721 H 0.74767 0.10033 0.72212 0.0
H2722 H 0.77348 0.0571 0.76352 0.0
H2723 H 0.75194 0.04947 0.77313 0.0
H2724 H 0.75306 0.03808 0.75157 0.0
H2725 H 0.76643 0.12535 0.74384 0.0
H2726 H 0.76241 0.1176 0.76719 0.0
H2727 H 0.78361 0.12344 0.75758 0.0
H2728 H 0.76554 0.09674 0.82133 0.0
H2729 H 0.8163 0.11125 0.79779 0.0
H2730 H 0.73648 0.06698 0.78267 0.0
H2731 H 0.73949 0.08974 0.78133 0.0
H2732 H 0.73734 0.08019 0.80381 0.0
H2733 H 0.79791 0.0856 0.75373 0.0
H2734 H 0.81816 0.10476 0.76578 0.0
H2735 H 0.80266 0.10889 0.75167 0.0
C2736 C 0.04353 0.33991 0.05078 0.0
C2737 C 0.0526 0.35869 0.04679 0.0
C2738 C 0.05244 0.33266 0.06149 0.0
C2739 C 0.07087 0.34444 0.06827 0.0
C2740 C 0.0803 0.36318 0.0636 0.0
C2741 C 0.07104 0.37008 0.05299 0.0
C2742 C 0.04194 0.31259 0.06613 0.0
C2743 C 0.10002 0.37615 0.07036 0.0
C2744 C 0.08986 0.33484 0.11268 0.0
C2745 C 0.10014 0.32738 0.10539 0.0
C2746 C 0.07976 0.33984 0.10072 0.0
C2747 C 0.08013 0.33754 0.08101 0.0
C2748 C 0.09021 0.32966 0.07359 0.0
C2749 C 0.10005 0.32465 0.08587 0.0
C2750 C 0.0691 0.34806 0.1092 0.0
C2751 C 0.09117 0.32719 0.0527 0.0
H2752 H 0.02927 0.33102 0.04608 0.0
H2753 H 0.0782 0.38458 0.04991 0.0
H2754 H 0.04946 0.30536 0.06221 0.0
H2755 H 0.04057 0.31194 0.08148 0.0
H2756 H 0.02809 0.30496 0.05883 0.0
H2757 H 0.10571 0.38998 0.06455 0.0
H2758 H 0.10124 0.37821 0.0859 0.0
H2759 H 0.10845 0.36997 0.06636 0.0
H2760 H 0.08986 0.3369 0.12775 0.0
H2761 H 0.10825 0.3192 0.08017 0.0
H2762 H 0.0547 0.34024 0.10337 0.0
H2763 H 0.07488 0.36267 0.10551 0.0
H2764 H 0.06933 0.3479 0.12473 0.0
H2765 H 0.07725 0.31964 0.04559 0.0
H2766 H 0.09832 0.31946 0.04918 0.0
H2767 H 0.09853 0.34103 0.04693 0.0
C2768 C 0.66455 0.68666 0.08998 0.0
C2769 C 0.6472 0.67845 0.08053 0.0
C2770 C 0.67258 0.70457 0.09916 0.0
C2771 C 0.66313 0.71457 0.09856 0.0
C2772 C 0.64599 0.70666 0.08829 0.0
C2773 C 0.63816 0.68863 0.07957 0.0
C2774 C 0.69076 0.71245 0.11017 0.0
C2775 C 0.63563 0.717 0.08701 0.0
C2776 C 0.66959 0.75046 0.13726 0.0
C2777 C 0.6803 0.76714 0.12896 0.0
C2778 C 0.66475 0.73327 0.12789 0.0
C2779 C 0.67045 0.73277 0.10962 0.0
C2780 C 0.68182 0.74965 0.10145 0.0
C2781 C 0.68675 0.76668 0.11132 0.0
C2782 C 0.65291 0.71563 0.13725 0.0
C2783 C 0.68796 0.74969 0.08191 0.0
H2784 H 0.67156 0.6788 0.09083 0.0
H2785 H 0.6248 0.6824 0.07215 0.0
H2786 H 0.7004 0.72661 0.10606 0.0
H2787 H 0.68894 0.71374 0.12534 0.0
H2788 H 0.69697 0.70356 0.10808 0.0
H2789 H 0.6232 0.70954 0.07724 0.0
H2790 H 0.63146 0.71885 0.10109 0.0
H2791 H 0.64449 0.73108 0.08221 0.0
H2792 H 0.66471 0.75089 0.15097 0.0
H2793 H 0.69491 0.77962 0.10487 0.0
H2794 H 0.65888 0.70643 0.13669 0.0
H2795 H 0.63922 0.70789 0.12965 0.0
H2796 H 0.6512 0.71846 0.15215 0.0
H2797 H 0.69404 0.74065 0.08047 0.0
H2798 H 0.69809 0.76391 0.07828 0.0
H2799 H 0.67598 0.74394 0.07159 0.0
C2800 C 0.31534 0.95938 0.0369 0.0
C2801 C 0.32721 0.95226 0.038 0.0
C2802 C 0.29892 0.95115 0.04592 0.0
C2803 C 0.2945 0.93573 0.05665 0.0
C2804 C 0.30626 0.92827 0.05745 0.0
C2805 C 0.32234 0.93649 0.04797 0.0
C2806 C 0.28653 0.95924 0.04436 0.0
C2807 C 0.30224 0.91204 0.06897 0.0
C2808 C 0.2644 0.9267 0.09749 0.0
C2809 C 0.24818 0.9108 0.09042 0.0
C2810 C 0.27944 0.93521 0.08649 0.0
C2811 C 0.27809 0.92787 0.06783 0.0
C2812 C 0.26144 0.91227 0.06038 0.0
C2813 C 0.24676 0.90378 0.07186 0.0
C2814 C 0.29702 0.95159 0.09511 0.0
C2815 C 0.2593 0.90429 0.04046 0.0
H2816 H 0.31898 0.97153 0.02918 0.0
H2817 H 0.33149 0.93097 0.04901 0.0
H2818 H 0.27237 0.94809 0.03996 0.0
H2819 H 0.28618 0.96549 0.05826 0.0
H2820 H 0.29106 0.97012 0.03416 0.0
H2821 H 0.31256 0.90762 0.0678 0.0
H2822 H 0.30193 0.9159 0.08396 0.0
H2823 H 0.28861 0.89998 0.06443 0.0
H2824 H 0.26555 0.93202 0.11191 0.0
H2825 H 0.23415 0.89155 0.06636 0.0
H2826 H 0.3016 0.96357 0.08632 0.0
H2827 H 0.30787 0.94785 0.09567 0.0
H2828 H 0.29563 0.95603 0.10954 0.0
H2829 H 0.26365 0.91546 0.03063 0.0
H2830 H 0.24501 0.89331 0.03624 0.0
H2831 H 0.26821 0.89817 0.03893 0.0
C2832 C 0.38264 0.06041 0.99528 0.0
C2833 C 0.37237 0.04483 0.00538 0.0
C2834 C 0.37473 0.06993 0.9871 0.0
C2835 C 0.35616 0.06401 0.98943 0.0
C2836 C 0.34587 0.04872 1.00022 0.0
C2837 C 0.35404 0.03915 0.00789 0.0
C2838 C 0.3861 0.08594 0.97541 0.0
C2839 C 0.32617 0.04229 0.00339 0.0
C2840 C 0.34254 0.09982 0.97823 0.0
C2841 C 0.33452 0.09353 0.95992 0.0
C2842 C 0.3488 0.08982 0.9884 0.0
C2843 C 0.34745 0.07344 0.97984 0.0
C2844 C 0.339 0.06685 0.96147 0.0
C2845 C 0.33246 0.07688 0.95182 0.0
C2846 C 0.35731 0.09706 0.0081 0.0
C2847 C 0.33763 0.04968 0.95168 0.0
H2848 H 0.39677 0.0648 0.99315 0.0
H2849 H 0.34605 0.02715 0.01573 0.0
H2850 H 0.37994 0.0827 0.96079 0.0
H2851 H 0.3863 0.09871 0.98097 0.0
H2852 H 0.40039 0.08893 0.97514 0.0
H2853 H 0.32051 0.03117 0.01333 0.0
H2854 H 0.32481 0.05417 0.00896 0.0
H2855 H 0.31781 0.03687 0.98987 0.0
H2856 H 0.34402 0.11265 0.98452 0.0
H2857 H 0.3264 0.07213 0.93759 0.0
H2858 H 0.37211 0.10193 0.00842 0.0
H2859 H 0.35118 0.08576 0.01777 0.0
H2860 H 0.35558 0.1088 0.01342 0.0
H2861 H 0.35153 0.05206 0.9497 0.0
H2862 H 0.32996 0.04594 0.93774 0.0
H2863 H 0.3308 0.03768 0.96041 0.0
C2864 C 0.94418 0.30803 0.98362 0.0
C2865 C 0.95973 0.31217 0.99507 0.0
C2866 C 0.93302 0.29024 0.97463 0.0
C2867 C 0.93729 0.27607 0.97738 0.0
C2868 C 0.9529 0.28009 0.98902 0.0
C2869 C 0.96405 0.29817 0.99762 0.0
C2870 C 0.91664 0.28662 0.96214 0.0
C2871 C 0.95771 0.26526 0.99252 0.0
C2872 C 0.89642 0.22755 0.9675 0.0
C2873 C 0.8989 0.2229 0.9492 0.0
C2874 C 0.90938 0.24437 0.97726 0.0
C2875 C 0.92502 0.25701 0.96834 0.0
C2876 C 0.92791 0.25207 0.95008 0.0
C2877 C 0.91485 0.23495 0.94077 0.0
C2878 C 0.90593 0.24893 0.99682 0.0
C2879 C 0.94428 0.26526 0.94001 0.0
H2880 H 0.94084 0.31881 0.98143 0.0
H2881 H 0.97604 0.30128 0.00646 0.0
H2882 H 0.91739 0.28131 0.94788 0.0
H2883 H 0.90396 0.27576 0.96778 0.0
H2884 H 0.91559 0.29932 0.96093 0.0
H2885 H 0.97034 0.27064 0.00187 0.0
H2886 H 0.94633 0.25355 0.99901 0.0
H2887 H 0.95962 0.25954 0.97903 0.0
H2888 H 0.88416 0.21808 0.97408 0.0
H2889 H 0.91671 0.23134 0.92659 0.0
H2890 H 0.90299 0.2605 0.99666 0.0
H2891 H 0.91824 0.25366 0.00647 0.0
H2892 H 0.89423 0.23682 0.0025 0.0
H2893 H 0.94328 0.27767 0.93693 0.0
H2894 H 0.94536 0.25871 0.92659 0.0
H2895 H 0.95701 0.2702 0.94902 0.0
C2896 C 0.6963 0.64626 0.03699 0.0
C2897 C 0.68656 0.62744 0.0408 0.0
C2898 C 0.71205 0.65322 0.02691 0.0
C2899 C 0.71825 0.6411 0.02056 0.0
C2900 C 0.70907 0.62237 0.02531 0.0
C2901 C 0.69333 0.61577 0.03533 0.0
C2902 C 0.72146 0.67329 0.02219 0.0
C2903 C 0.71532 0.60903 0.01898 0.0
C2904 C 0.74304 0.65029 0.97568 0.0
C2905 C 0.76125 0.65779 0.98253 0.0
C2906 C 0.72903 0.64514 0.98793 0.0
C2907 C 0.73326 0.64747 0.00757 0.0
C2908 C 0.75165 0.65532 0.01461 0.0
C2909 C 0.76544 0.66042 0.00201 0.0
C2910 C 0.70962 0.63697 0.97981 0.0
C2911 C 0.75671 0.65798 0.03543 0.0
H2912 H 0.69119 0.6554 0.04115 0.0
H2913 H 0.68596 0.60124 0.03827 0.0
H2914 H 0.73637 0.68009 0.02568 0.0
H2915 H 0.7194 0.67391 0.00688 0.0
H2916 H 0.71616 0.68135 0.02976 0.0
H2917 H 0.70781 0.59547 0.02532 0.0
H2918 H 0.71316 0.60642 0.00349 0.0
H2919 H 0.73012 0.61515 0.02269 0.0
H2920 H 0.73975 0.6485 0.96066 0.0
H2921 H 0.77946 0.66606 0.0074 0.0
H2922 H 0.70365 0.64524 0.98542 0.0
H2923 H 0.70118 0.62258 0.98405 0.0
H2924 H 0.70868 0.63657 0.96424 0.0
H2925 H 0.75145 0.66632 0.04249 0.0
H2926 H 0.7717 0.66503 0.03867 0.0
H2927 H 0.75027 0.64425 0.04151 0.0
C2928 C 0.96181 0.65916 0.01211 0.0
C2929 C 0.95213 0.64161 0.01924 0.0
C2930 C 0.95283 0.66603 1.00094 0.0
C2931 C 0.93368 0.6552 0.99705 0.0
C2932 C 0.92377 0.63782 0.00487 0.0
C2933 C 0.93311 0.63119 0.01575 0.0
C2934 C 0.9639 0.68454 0.99272 0.0
C2935 C 0.90331 0.62596 1.00133 0.0
C2936 C 0.90621 0.67668 0.97884 0.0
C2937 C 0.9027 0.67015 0.95986 0.0
C2938 C 0.91669 0.67235 0.99106 0.0
C2939 C 0.92403 0.66146 0.98404 0.0
C2940 C 0.92112 0.65551 0.96469 0.0
C2941 C 0.91033 0.65976 0.95288 0.0
C2942 C 0.9192 0.67871 0.01161 0.0
C2943 C 0.92894 0.64413 0.95658 0.0
H2944 H 0.97652 0.66726 0.01467 0.0
H2945 H 0.92552 0.61766 0.02129 0.0
H2946 H 0.96305 0.68238 0.9772 0.0
H2947 H 0.95828 0.69374 0.9961 0.0
H2948 H 0.97849 0.69176 0.99796 0.0
H2949 H 0.89748 0.61343 0.00948 0.0
H2950 H 0.89672 0.6342 0.00504 0.0
H2951 H 0.89976 0.62136 0.98619 0.0
H2952 H 0.90009 0.6845 0.9843 0.0
H2953 H 0.90764 0.65476 0.93819 0.0
H2954 H 0.93388 0.6861 0.01645 0.0
H2955 H 0.91217 0.66643 0.01997 0.0
H2956 H 0.91366 0.68808 0.01461 0.0
H2957 H 0.94381 0.65113 0.96043 0.0
H2958 H 0.92668 0.6419 0.94105 0.0
H2959 H 0.92251 0.63035 0.96253 0.0
C2960 C 0.36872 0.31509 0.98554 0.0
C2961 C 0.35835 0.32392 0.98652 0.0
C2962 C 0.36126 0.29699 0.97708 0.0
C2963 C 0.34304 0.28752 0.96918 0.0
C2964 C 0.33231 0.29613 0.97059 0.0
C2965 C 0.34007 0.31421 0.97935 0.0
C2966 C 0.3731 0.28822 0.9761 0.0
C2967 C 0.31288 0.28654 0.96223 0.0
C2968 C 0.33384 0.25108 0.92982 0.0
C2969 C 0.32564 0.23463 0.93909 0.0
C2970 C 0.3388 0.26828 0.93926 0.0
C2971 C 0.33571 0.2691 0.95852 0.0
C2972 C 0.32686 0.25243 0.96778 0.0
C2973 C 0.32183 0.23536 0.95792 0.0
C2974 C 0.34796 0.28568 0.92878 0.0
C2975 C 0.32347 0.25272 0.98833 0.0
H2976 H 0.38281 0.32246 0.99116 0.0
H2977 H 0.33199 0.32096 0.98 0.0
H2978 H 0.36611 0.27431 0.98177 0.0
H2979 H 0.37546 0.28616 0.96125 0.0
H2980 H 0.38655 0.29689 0.98404 0.0
H2981 H 0.30597 0.29454 0.96565 0.0
H2982 H 0.31272 0.28472 0.94674 0.0
H2983 H 0.30491 0.27246 0.96736 0.0
H2984 H 0.33662 0.25049 0.91521 0.0
H2985 H 0.31564 0.22267 0.96515 0.0
H2986 H 0.36229 0.29462 0.93455 0.0
H2987 H 0.34097 0.29383 0.93066 0.0
H2988 H 0.34799 0.28251 0.91353 0.0
H2989 H 0.33671 0.25983 0.99683 0.0
H2990 H 0.31509 0.23849 0.99304 0.0
H2991 H 0.31648 0.26072 0.99122 0.0
C2992 C 0.68799 0.06715 0.02509 0.0
C2993 C 0.67968 0.04843 0.02921 0.0
C2994 C 0.70365 0.07519 0.0149 0.0
C2995 C 0.71123 0.06428 0.00867 0.0
C2996 C 0.70349 0.04568 0.01365 0.0
C2997 C 0.6878 0.03797 0.02384 0.0
C2998 C 0.71152 0.09511 0.00999 0.0
C2999 C 0.71121 0.0336 0.00739 0.0
C3000 C 0.73581 0.07787 0.96375 0.0
C3001 C 0.75419 0.08806 0.97055 0.0
C3002 C 0.72179 0.06977 0.976 0.0
C3003 C 0.72618 0.07185 0.99559 0.0
C3004 C 0.74472 0.08168 0.00254 0.0
C3005 C 0.75851 0.08966 0.98994 0.0
C3006 C 0.70221 0.05929 0.96795 0.0
C3007 C 0.74996 0.08418 0.02332 0.0
H3008 H 0.68186 0.07537 0.02921 0.0
H3009 H 0.68153 0.02352 0.027 0.0
H3010 H 0.72643 0.10311 0.01373 0.0
H3011 H 0.70947 0.09543 0.99463 0.0
H3012 H 0.70507 0.10219 0.01725 0.0
H3013 H 0.70488 0.02016 0.01405 0.0
H3014 H 0.70883 0.03062 0.99194 0.0
H3015 H 0.72617 0.04097 0.01076 0.0
H3016 H 0.73238 0.0763 0.94877 0.0
H3017 H 0.77266 0.09764 0.99532 0.0
H3018 H 0.69485 0.06627 0.97321 0.0
H3019 H 0.6952 0.04495 0.97263 0.0
H3020 H 0.70112 0.05842 0.95237 0.0
H3021 H 0.74488 0.09265 0.03045 0.0
H3022 H 0.76497 0.09117 0.02639 0.0
H3023 H 0.74349 0.07049 0.02944 0.0
C3024 C 0.62362 0.93923 0.06229 0.0
C3025 C 0.63475 0.9583 0.06014 0.0
C3026 C 0.63075 0.92899 0.07047 0.0
C3027 C 0.64945 0.93803 0.07671 0.0
C3028 C 0.66094 0.95707 0.07377 0.0
C3029 C 0.65345 0.96698 0.0655 0.0
C3030 C 0.61805 0.90868 0.07325 0.0
C3031 C 0.68096 0.9672 0.08018 0.0
C3032 C 0.66106 0.91767 0.1178 0.0
C3033 C 0.66782 0.9072 0.10893 0.0
C3034 C 0.65542 0.92805 0.10749 0.0
C3035 C 0.65653 0.92797 0.08779 0.0
C3036 C 0.66373 0.91778 0.07878 0.0
C3037 C 0.66934 0.90753 0.08947 0.0
C3038 C 0.64797 0.93884 0.11769 0.0
C3039 C 0.66511 0.91736 0.05781 0.0
H3040 H 0.60917 0.93238 0.0581 0.0
H3041 H 0.66217 0.9817 0.06385 0.0
H3042 H 0.62381 0.90015 0.06779 0.0
H3043 H 0.61658 0.90676 0.08846 0.0
H3044 H 0.60428 0.90332 0.06616 0.0
H3045 H 0.68839 0.98142 0.07519 0.0
H3046 H 0.68252 0.96839 0.09574 0.0
H3047 H 0.68746 0.95927 0.0751 0.0
H3048 H 0.66018 0.91773 0.13288 0.0
H3049 H 0.67445 0.89938 0.08254 0.0
H3050 H 0.63355 0.93342 0.11262 0.0
H3051 H 0.65576 0.95371 0.11469 0.0
H3052 H 0.6486 0.93795 0.13312 0.0
H3053 H 0.65126 0.91065 0.05059 0.0
H3054 H 0.67195 0.90963 0.05308 0.0
H3055 H 0.6728 0.93174 0.05332 0.0
C3056 C 0.06204 0.69908 0.0725 0.0
C3057 C 0.04329 0.69177 0.06838 0.0
C3058 C 0.07298 0.71693 0.08149 0.0
C3059 C 0.06497 0.72772 0.08666 0.0
C3060 C 0.04616 0.72067 0.08205 0.0
C3061 C 0.03554 0.70278 0.07289 0.0
C3062 C 0.09302 0.724 0.08596 0.0
C3063 C 0.03714 0.73176 0.08737 0.0
C3064 C 0.09087 0.76365 0.12748 0.0
C3065 C 0.10105 0.77985 0.11822 0.0
C3066 C 0.07843 0.74676 0.11742 0.0
C3067 C 0.07627 0.74601 0.0976 0.0
C3068 C 0.08604 0.76249 0.08824 0.0
C3069 C 0.09828 0.77923 0.09868 0.0
C3070 C 0.06811 0.72955 0.12796 0.0
C3071 C 0.08425 0.76226 0.06714 0.0
H3072 H 0.06816 0.69071 0.06898 0.0
H3073 H 0.02105 0.6972 0.06981 0.0
H3074 H 0.10137 0.73777 0.08031 0.0
H3075 H 0.09605 0.72591 0.10139 0.0
H3076 H 0.09733 0.71433 0.08007 0.0
H3077 H 0.02268 0.72483 0.08175 0.0
H3078 H 0.03762 0.73368 0.10288 0.0
H3079 H 0.04462 0.74581 0.08209 0.0
H3080 H 0.09287 0.76413 0.1426 0.0
H3081 H 0.10629 0.79168 0.09144 0.0
H3082 H 0.07273 0.71953 0.12432 0.0
H3083 H 0.0533 0.72256 0.1238 0.0
H3084 H 0.07016 0.73277 0.14341 0.0
H3085 H 0.08995 0.75404 0.06073 0.0
H3086 H 0.09154 0.77649 0.06216 0.0
H3087 H 0.06967 0.75543 0.06202 0.0
C3088 C 0.3094 0.38421 0.0273 0.0
C3089 C 0.31872 0.37434 0.02551 0.0
C3090 C 0.29323 0.37706 0.03666 0.0
C3091 C 0.28641 0.35979 0.04476 0.0
C3092 C 0.29538 0.34943 0.04236 0.0
C3093 C 0.31133 0.35675 0.03261 0.0
C3094 C 0.28387 0.38837 0.03854 0.0
C3095 C 0.28873 0.3311 0.051 0.0
C3096 C 0.25972 0.35436 0.0878 0.0
C3097 C 0.2417 0.3426 0.08054 0.0
C3098 C 0.27437 0.35968 0.07638 0.0
C3099 C 0.27089 0.35342 0.0571 0.0
C3100 C 0.25268 0.34148 0.0497 0.0
C3101 C 0.23828 0.33602 0.06159 0.0
C3102 C 0.29359 0.37208 0.08495 0.0
C3103 C 0.24838 0.33482 0.02917 0.0
H3104 H 0.31497 0.39776 0.02174 0.0
H3105 H 0.31851 0.34907 0.03136 0.0
H3106 H 0.26907 0.37954 0.0345 0.0
H3107 H 0.2853 0.39366 0.05339 0.0
H3108 H 0.2897 0.40043 0.02974 0.0
H3109 H 0.29629 0.32403 0.04656 0.0
H3110 H 0.29044 0.33352 0.06652 0.0
H3111 H 0.27398 0.32163 0.04715 0.0
H3112 H 0.26234 0.35929 0.10251 0.0
H3113 H 0.22431 0.32699 0.05599 0.0
H3114 H 0.30004 0.38552 0.07834 0.0
H3115 H 0.30194 0.36549 0.08227 0.0
H3116 H 0.294 0.37498 0.10034 0.0
H3117 H 0.25323 0.34694 0.02052 0.0
H3118 H 0.23354 0.32537 0.02568 0.0
H3119 H 0.25569 0.32738 0.02518 0.0
C3120 C 0.70992 0.67565 0.38674 0.0
C3121 C 0.71895 0.69447 0.38293 0.0
C3122 C 0.71886 0.66834 0.39732 0.0
C3123 C 0.73729 0.68011 0.40412 0.0
C3124 C 0.74665 0.69893 0.3997 0.0
C3125 C 0.73736 0.70589 0.38924 0.0
C3126 C 0.70843 0.6482 0.40174 0.0
C3127 C 0.76636 0.71191 0.40649 0.0
C3128 C 0.75692 0.67034 0.44793 0.0
C3129 C 0.76731 0.66318 0.44029 0.0
C3130 C 0.7465 0.6752 0.43629 0.0
C3131 C 0.74667 0.67309 0.41653 0.0
C3132 C 0.7568 0.66544 0.40875 0.0
C3133 C 0.76695 0.66053 0.42073 0.0
C3134 C 0.73576 0.68315 0.44514 0.0
C3135 C 0.75756 0.66317 0.38779 0.0
H3136 H 0.69568 0.66674 0.38197 0.0
H3137 H 0.74447 0.72043 0.38629 0.0
H3138 H 0.71593 0.64103 0.39753 0.0
H3139 H 0.70718 0.64737 0.4171 0.0
H3140 H 0.69452 0.64062 0.39454 0.0
H3141 H 0.77196 0.72585 0.40097 0.0
H3142 H 0.76762 0.71367 0.42204 0.0
H3143 H 0.77485 0.70588 0.40219 0.0
H3144 H 0.75712 0.67232 0.46304 0.0
H3145 H 0.77522 0.6553 0.41475 0.0
H3146 H 0.72135 0.67537 0.43932 0.0
H3147 H 0.74147 0.69785 0.44178 0.0
H3148 H 0.73601 0.68268 0.46064 0.0
H3149 H 0.74358 0.65554 0.38084 0.0
H3150 H 0.76482 0.65561 0.38398 0.0
H3151 H 0.76471 0.67708 0.38213 0.0
C3152 C 0.32813 0.01969 0.41383 0.0
C3153 C 0.3099 0.00649 0.41629 0.0
C3154 C 0.33586 0.03816 0.42155 0.0
C3155 C 0.32519 0.0434 0.43221 0.0
C3156 C 0.30687 0.03003 0.43492 0.0
C3157 C 0.29943 0.01182 0.42681 0.0
C3158 C 0.35534 0.05212 0.41813 0.0
C3159 C 0.29508 0.03495 0.44639 0.0
C3160 C 0.34626 0.08607 0.46692 0.0
C3161 C 0.34256 0.09822 0.45729 0.0
C3162 C 0.34135 0.06838 0.45864 0.0
C3163 C 0.33282 0.06292 0.44022 0.0
C3164 C 0.32996 0.07558 0.43012 0.0
C3165 C 0.33472 0.09302 0.43884 0.0
C3166 C 0.3444 0.05521 0.46997 0.0
C3167 C 0.32119 0.07044 0.41036 0.0
H3168 H 0.33628 0.01566 0.40571 0.0
H3169 H 0.28539 0.00166 0.42893 0.0
H3170 H 0.35579 0.06372 0.41067 0.0
H3171 H 0.3635 0.05822 0.4317 0.0
H3172 H 0.36186 0.04581 0.40968 0.0
H3173 H 0.28133 0.02275 0.44774 0.0
H3174 H 0.30176 0.04072 0.46065 0.0
H3175 H 0.29342 0.04586 0.43978 0.0
H3176 H 0.35227 0.09009 0.48122 0.0
H3177 H 0.33207 0.10253 0.43132 0.0
H3178 H 0.35142 0.04931 0.46179 0.0
H3179 H 0.33104 0.04339 0.47321 0.0
H3180 H 0.35262 0.06211 0.48339 0.0
H3181 H 0.32802 0.0648 0.40151 0.0
H3182 H 0.32174 0.08252 0.40375 0.0
H3183 H 0.30668 0.05939 0.41052 0.0
C3184 C 0.98749 0.26696 0.37386 0.0
C3185 C 0.99631 0.28601 0.37101 0.0
C3186 C 0.97151 0.25851 0.38353 0.0
C3187 C 0.96421 0.26938 0.39067 0.0
C3188 C 0.97256 0.28842 0.38709 0.0
C3189 C 0.98847 0.2965 0.37725 0.0
C3190 C 0.96293 0.23812 0.38685 0.0
C3191 C 0.96522 0.3005 0.39447 0.0
C3192 C 0.91619 0.24374 0.40763 0.0
C3193 C 0.91984 0.24361 0.42691 0.0
C3194 C 0.93046 0.25234 0.39566 0.0
C3195 C 0.9488 0.26114 0.40318 0.0
C3196 C 0.95253 0.26146 0.42271 0.0
C3197 C 0.93802 0.25266 0.4343 0.0
C3198 C 0.92593 0.25161 0.37492 0.0
C3199 C 0.97187 0.27085 0.43135 0.0
H3200 H 0.99337 0.25872 0.36902 0.0
H3201 H 0.9952 0.31123 0.37514 0.0
H3202 H 0.96447 0.23657 0.40202 0.0
H3203 H 0.94811 0.23073 0.38267 0.0
H3204 H 0.96926 0.23125 0.37896 0.0
H3205 H 0.97217 0.31452 0.38898 0.0
H3206 H 0.95037 0.29378 0.39067 0.0
H3207 H 0.96714 0.30222 0.41001 0.0
H3208 H 0.90216 0.23665 0.40182 0.0
H3209 H 0.94092 0.25287 0.44923 0.0
H3210 H 0.93099 0.2435 0.36703 0.0
H3211 H 0.93288 0.26584 0.36999 0.0
H3212 H 0.91102 0.2451 0.37142 0.0
H3213 H 0.979 0.26385 0.42551 0.0
H3214 H 0.97244 0.27053 0.44686 0.0
H3215 H 0.97947 0.28556 0.4278 0.0
C3216 C 0.02629 0.37372 0.341 0.0
C3217 C 0.04451 0.37882 0.33865 0.0
C3218 C 0.01884 0.38408 0.33372 0.0
C3219 C 0.02976 0.39966 0.32352 0.0
C3220 C 0.04825 0.40507 0.32146 0.0
C3221 C 0.05543 0.39471 0.3292 0.0
C3222 C 0.99918 0.37813 0.33656 0.0
C3223 C 0.06029 0.42139 0.31043 0.0
C3224 C 0.00745 0.4143 0.2862 0.0
C3225 C 0.0095 0.43077 0.29479 0.0
C3226 C 0.01362 0.40382 0.29556 0.0
C3227 C 0.02172 0.40978 0.31411 0.0
C3228 C 0.02318 0.42604 0.32311 0.0
C3229 C 0.01724 0.43648 0.31325 0.0
C3230 C 0.01211 0.38677 0.28533 0.0
C3231 C 0.0314 0.43264 0.34299 0.0
H3232 H 0.0178 0.3615 0.34836 0.0
H3233 H 0.06949 0.39869 0.32723 0.0
H3234 H 0.99812 0.39012 0.34237 0.0
H3235 H 0.99107 0.37323 0.32287 0.0
H3236 H 0.99302 0.36675 0.34617 0.0
H3237 H 0.0745 0.42408 0.31054 0.0
H3238 H 0.0546 0.41871 0.29566 0.0
H3239 H 0.06063 0.43416 0.31625 0.0
H3240 H 0.00165 0.41 0.27184 0.0
H3241 H 0.0187 0.44916 0.31993 0.0
H3242 H 0.00475 0.37448 0.29358 0.0
H3243 H 0.02596 0.38887 0.28369 0.0
H3244 H 0.00488 0.38364 0.2712 0.0
H3245 H 0.02472 0.42112 0.35233 0.0
H3246 H 0.03005 0.44456 0.34853 0.0
H3247 H 0.04609 0.43701 0.34357 0.0
C3248 C 0.6122 0.64349 0.31685 0.0
C3249 C 0.62733 0.64777 0.32907 0.0
C3250 C 0.60125 0.62557 0.30805 0.0
C3251 C 0.60529 0.61141 0.31178 0.0
C3252 C 0.62051 0.61558 0.32415 0.0
C3253 C 0.63147 0.63379 0.33254 0.0
C3254 C 0.58529 0.6218 0.29478 0.0
C3255 C 0.62505 0.60077 0.32869 0.0
C3256 C 0.56409 0.56311 0.30206 0.0
C3257 C 0.56694 0.55802 0.28412 0.0
C3258 C 0.57707 0.57996 0.31175 0.0
C3259 C 0.59309 0.59218 0.30309 0.0
C3260 C 0.59636 0.58671 0.28525 0.0
C3261 C 0.58326 0.56956 0.27602 0.0
C3262 C 0.57319 0.58508 0.33087 0.0
C3263 C 0.61314 0.59943 0.27544 0.0
H3264 H 0.60901 0.65425 0.31394 0.0
H3265 H 0.64313 0.63701 0.34197 0.0
H3266 H 0.58639 0.61604 0.28089 0.0
H3267 H 0.57236 0.61123 0.30025 0.0
H3268 H 0.58448 0.63452 0.29276 0.0
H3269 H 0.6375 0.60632 0.33837 0.0
H3270 H 0.61347 0.58938 0.33527 0.0
H3271 H 0.62715 0.59459 0.31563 0.0
H3272 H 0.55146 0.55405 0.30832 0.0
H3273 H 0.58535 0.56557 0.26209 0.0
H3274 H 0.57031 0.59665 0.32993 0.0
H3275 H 0.58526 0.59001 0.34091 0.0
H3276 H 0.56129 0.57317 0.33656 0.0
H3277 H 0.61236 0.61176 0.27147 0.0
H3278 H 0.61455 0.59241 0.26255 0.0
H3279 H 0.62559 0.60457 0.28496 0.0
C3280 C 0.34999 0.93861 0.35621 0.0
C3281 C 0.34759 0.95057 0.36875 0.0
C3282 C 0.36558 0.94521 0.34599 0.0
C3283 C 0.37937 0.96419 0.34863 0.0
C3284 C 0.37738 0.9762 0.36181 0.0
C3285 C 0.36142 0.96929 0.37156 0.0
C3286 C 0.36698 0.93199 0.33186 0.0
C3287 C 0.39196 0.99641 0.36533 0.0
C3288 C 0.42524 0.97558 0.33067 0.0
C3289 C 0.42459 0.98256 0.31338 0.0
C3290 C 0.41096 0.97024 0.34265 0.0
C3291 C 0.39545 0.9715 0.33698 0.0
C3292 C 0.39486 0.97875 0.31959 0.0
C3293 C 0.40953 0.98438 0.3081 0.0
C3294 C 0.41232 0.96298 0.36124 0.0
C3295 C 0.37845 0.97997 0.31281 0.0
H3296 H 0.33932 0.92415 0.35383 0.0
H3297 H 0.35968 0.97861 0.38125 0.0
H3298 H 0.36762 0.93692 0.31761 0.0
H3299 H 0.37971 0.93167 0.335 0.0
H3300 H 0.35522 0.91758 0.33171 0.0
H3301 H 0.38903 0.00354 0.37705 0.0
H3302 H 0.40541 0.99762 0.36865 0.0
H3303 H 0.39309 0.00379 0.35249 0.0
H3304 H 0.43698 0.97433 0.33483 0.0
H3305 H 0.40896 0.98965 0.29465 0.0
H3306 H 0.40168 0.9481 0.36125 0.0
H3307 H 0.40982 0.97065 0.37277 0.0
H3308 H 0.42587 0.9643 0.36424 0.0
H3309 H 0.36623 0.96582 0.31113 0.0
H3310 H 0.38032 0.98638 0.2992 0.0
H3311 H 0.37565 0.98827 0.32333 0.0
C3312 C 0.62771 0.98968 0.34613 0.0
C3313 C 0.61898 0.97121 0.35111 0.0
C3314 C 0.61827 0.9963 0.3353 0.0
C3315 C 0.59962 0.98421 0.32948 0.0
C3316 C 0.59058 0.96579 0.33511 0.0
C3317 C 0.60038 0.9595 0.34577 0.0
C3318 C 0.6284 0.01601 0.32952 0.0
C3319 C 0.57066 0.95251 0.32941 0.0
C3320 C 0.5693 0.00278 0.31207 0.0
C3321 C 0.56809 0.99881 0.29261 0.0
C3322 C 0.57992 0.9986 0.32423 0.0
C3323 C 0.58969 0.9904 0.31675 0.0
C3324 C 0.58901 0.98698 0.29705 0.0
C3325 C 0.57812 0.99111 0.28524 0.0
C3326 C 0.58009 0.00226 0.34513 0.0
C3327 C 0.59936 0.97843 0.28848 0.0
H3328 H 0.6421 0.9988 0.35013 0.0
H3329 H 0.59349 0.94524 0.34963 0.0
H3330 H 0.62904 0.01582 0.31406 0.0
H3331 H 0.62103 0.02342 0.33337 0.0
H3332 H 0.64253 0.02399 0.33614 0.0
H3333 H 0.56536 0.93904 0.33591 0.0
H3334 H 0.56236 0.95884 0.33348 0.0
H3335 H 0.56872 0.94968 0.31394 0.0
H3336 H 0.56134 0.00848 0.31784 0.0
H3337 H 0.57728 0.98813 0.2702 0.0
H3338 H 0.59433 0.01052 0.35136 0.0
H3339 H 0.57353 0.98885 0.35181 0.0
H3340 H 0.57276 0.00981 0.34863 0.0
H3341 H 0.61396 0.98649 0.29365 0.0
H3342 H 0.59845 0.97789 0.27291 0.0
H3343 H 0.59384 0.96406 0.29281 0.0
C3344 C 0.01049 0.64936 0.31395 0.0
C3345 C 0.0292 0.65987 0.3194 0.0
C3346 C 0.00285 0.63137 0.30499 0.0
C3347 C 0.01418 0.62372 0.30153 0.0
C3348 C 0.03296 0.63409 0.30749 0.0
C3349 C 0.04023 0.65202 0.31628 0.0
C3350 C 0.98278 0.62074 0.2988 0.0
C3351 C 0.04549 0.6264 0.30422 0.0
C3352 C 0.9954 0.57187 0.29126 0.0
C3353 C 0.9971 0.57074 0.27188 0.0
C3354 C 1.00018 0.58891 0.30102 0.0
C3355 C 0.00672 0.60516 0.29113 0.0
C3356 C 0.00766 0.60392 0.27143 0.0
C3357 C 0.00291 0.58673 0.26206 0.0
C3358 C 0.99908 0.58967 0.32203 0.0
C3359 C 0.0144 0.62088 0.26034 0.0
H3360 H 0.00188 0.65534 0.31627 0.0
H3361 H 0.05468 0.66001 0.32052 0.0
H3362 H 0.98101 0.61839 0.28328 0.0
H3363 H 0.97612 0.60686 0.30454 0.0
H3364 H 0.97566 0.62823 0.30336 0.0
H3365 H 0.05959 0.63591 0.31041 0.0
H3366 H 0.04014 0.61277 0.31036 0.0
H3367 H 0.04606 0.62399 0.28893 0.0
H3368 H 0.9911 0.55959 0.29896 0.0
H3369 H 0.00403 0.58585 0.24704 0.0
H3370 H 0.99172 0.597 0.32618 0.0
H3371 H 0.01305 0.59766 0.32899 0.0
H3372 H 0.99208 0.57558 0.32735 0.0
H3373 H 0.00693 0.62832 0.26359 0.0
H3374 H 0.01277 0.61729 0.24497 0.0
H3375 H 0.02906 0.63065 0.26437 0.0
C3376 C 0.34579 0.39716 0.34823 0.0
C3377 C 0.3414 0.38162 0.35842 0.0
C3378 C 0.3617 0.40549 0.33847 0.0
C3379 C 0.37377 0.39839 0.33923 0.0
C3380 C 0.36978 0.38315 0.35009 0.0
C3381 C 0.35352 0.3748 0.35937 0.0
C3382 C 0.36526 0.4215 0.32681 0.0
C3383 C 0.38252 0.37548 0.35163 0.0
C3384 C 0.40415 0.40817 0.29853 0.0
C3385 C 0.42012 0.42431 0.30565 0.0
C3386 C 0.38909 0.39933 0.30946 0.0
C3387 C 0.3902 0.4066 0.3281 0.0
C3388 C 0.40662 0.42245 0.3356 0.0
C3389 C 0.42131 0.43125 0.32419 0.0
C3390 C 0.37174 0.3827 0.3008 0.0
C3391 C 0.40852 0.43038 0.35551 0.0
H3392 H 0.33643 0.40242 0.34729 0.0
H3393 H 0.35022 0.36282 0.36726 0.0
H3394 H 0.37871 0.43383 0.33135 0.0
H3395 H 0.36574 0.41765 0.31186 0.0
H3396 H 0.35462 0.42549 0.32784 0.0
H3397 H 0.37816 0.36453 0.36174 0.0
H3398 H 0.3831 0.36944 0.3377 0.0
H3399 H 0.39655 0.38683 0.35614 0.0
H3400 H 0.40319 0.40291 0.28412 0.0
H3401 H 0.43372 0.44368 0.32973 0.0
H3402 H 0.36065 0.38608 0.30011 0.0
H3403 H 0.36737 0.37076 0.30963 0.0
H3404 H 0.37334 0.37833 0.28641 0.0
H3405 H 0.3993 0.43615 0.35695 0.0
H3406 H 0.42269 0.44161 0.35976 0.0
H3407 H 0.40439 0.41924 0.36535 0.0
C3408 C 0.3188 0.30082 0.39817 0.0
C3409 C 0.29994 0.29161 0.39351 0.0
C3410 C 0.327 0.29149 0.40631 0.0
C3411 C 0.31606 0.27251 0.40983 0.0
C3412 C 0.29716 0.26295 0.40436 0.0
C3413 C 0.28934 0.27261 0.3963 0.0
C3414 C 0.34719 0.30215 0.4119 0.0
C3415 C 0.28503 0.2427 0.40778 0.0
C3416 C 0.33664 0.24244 0.42173 0.0
C3417 C 0.33554 0.24217 0.44124 0.0
C3418 C 0.33088 0.25272 0.4113 0.0
C3419 C 0.32393 0.263 0.42065 0.0
C3420 C 0.32345 0.26331 0.44042 0.0
C3421 C 0.32924 0.25289 0.45045 0.0
C3422 C 0.33161 0.25207 0.39025 0.0
C3423 C 0.31629 0.2742 0.45096 0.0
H3424 H 0.32711 0.31549 0.39603 0.0
H3425 H 0.27477 0.26535 0.39264 0.0
H3426 H 0.34937 0.30375 0.42742 0.0
H3427 H 0.35379 0.29438 0.40661 0.0
H3428 H 0.35408 0.31621 0.40651 0.0
H3429 H 0.27093 0.23692 0.40139 0.0
H3430 H 0.29078 0.23429 0.40199 0.0
H3431 H 0.28435 0.24113 0.4231 0.0
H3432 H 0.34142 0.23411 0.41454 0.0
H3433 H 0.32868 0.253 0.46557 0.0
H3434 H 0.33865 0.26637 0.38549 0.0
H3435 H 0.31754 0.24478 0.3835 0.0
H3436 H 0.33876 0.24472 0.38529 0.0
H3437 H 0.32363 0.28894 0.44746 0.0
H3438 H 0.31776 0.27381 0.46641 0.0
H3439 H 0.30164 0.26843 0.44667 0.0
C3440 C 0.73051 0.02874 0.40615 0.0
C3441 C 0.71167 0.0213 0.40268 0.0
C3442 C 0.74163 0.04673 0.41471 0.0
C3443 C 0.73372 0.05754 0.42016 0.0
C3444 C 0.71477 0.0503 0.41633 0.0
C3445 C 0.70396 0.03228 0.40752 0.0
C3446 C 0.76182 0.05401 0.41831 0.0
C3447 C 0.70583 0.06136 0.42205 0.0
C3448 C 0.76125 0.09437 0.45974 0.0
C3449 C 0.77087 0.11031 0.44994 0.0
C3450 C 0.74841 0.07728 0.45031 0.0
C3451 C 0.7453 0.07606 0.43056 0.0
C3452 C 0.75451 0.09227 0.42067 0.0
C3453 C 0.76714 0.10924 0.43051 0.0
C3454 C 0.7387 0.06038 0.4614 0.0
C3455 C 0.75172 0.09152 0.39961 0.0
H3456 H 0.73659 0.02039 0.40233 0.0
H3457 H 0.6894 0.02658 0.40494 0.0
H3458 H 0.7698 0.06761 0.41221 0.0
H3459 H 0.7655 0.05634 0.43364 0.0
H3460 H 0.76599 0.04427 0.41229 0.0
H3461 H 0.69115 0.05419 0.41716 0.0
H3462 H 0.70706 0.06372 0.43757 0.0
H3463 H 0.71288 0.07524 0.41632 0.0
H3464 H 0.76399 0.09523 0.47479 0.0
H3465 H 0.77469 0.12151 0.42287 0.0
H3466 H 0.74328 0.05036 0.45764 0.0
H3467 H 0.72376 0.05321 0.45787 0.0
H3468 H 0.74136 0.064 0.47678 0.0
H3469 H 0.75723 0.08323 0.39292 0.0
H3470 H 0.75862 0.10559 0.39425 0.0
H3471 H 0.73697 0.08448 0.39519 0.0
C3472 C 0.98613 0.72403 0.37547 0.0
C3473 C 0.99002 0.71263 0.36377 0.0
C3474 C 0.96986 0.71662 0.38462 0.0
C3475 C 0.95692 0.69737 0.38176 0.0
C3476 C 0.96043 0.6859 0.3694 0.0
C3477 C 0.97703 0.69363 0.3607 0.0
C3478 C 0.96681 0.72931 0.39789 0.0
C3479 C 0.94683 0.6654 0.36568 0.0
C3480 C 0.92506 0.67628 0.42081 0.0
C3481 C 0.90968 0.67704 0.41428 0.0
C3482 C 0.94036 0.68246 0.41017 0.0
C3483 C 0.94016 0.68925 0.3924 0.0
C3484 C 0.92436 0.68936 0.38544 0.0
C3485 C 0.90939 0.68345 0.39656 0.0
C3486 C 0.95702 0.68241 0.41828 0.0
C3487 C 0.92344 0.69611 0.36643 0.0
H3488 H 0.99613 0.7387 0.37803 0.0
H3489 H 0.97991 0.68474 0.35165 0.0
H3490 H 0.9538 0.7287 0.39369 0.0
H3491 H 0.96569 0.72458 0.41228 0.0
H3492 H 0.97803 0.74402 0.39829 0.0
H3493 H 0.95093 0.6587 0.3546 0.0
H3494 H 0.94543 0.65824 0.37873 0.0
H3495 H 0.93319 0.66329 0.36134 0.0
H3496 H 0.92538 0.67151 0.43459 0.0
H3497 H 0.89744 0.68391 0.39144 0.0
H3498 H 0.96865 0.6969 0.42036 0.0
H3499 H 0.96103 0.67465 0.40839 0.0
H3500 H 0.95474 0.67604 0.43195 0.0
H3501 H 0.9334 0.71122 0.36654 0.0
H3502 H 0.90965 0.69377 0.36236 0.0
H3503 H 0.92721 0.68892 0.35557 0.0
C3504 C 0.40579 0.04219 0.72336 0.0
C3505 C 0.38748 0.0306 0.71678 0.0
C3506 C 0.41504 0.03542 0.73416 0.0
C3507 C 0.40575 0.01662 0.73865 0.0
C3508 C 0.38744 0.00469 0.73159 0.0
C3509 C 0.37853 0.0118 0.72067 0.0
C3510 C 0.43465 0.04856 0.74121 0.0
C3511 C 0.37708 0.98456 0.73608 0.0
C3512 C 0.43552 0.9975 0.75622 0.0
C3513 C 0.43556 1.00017 0.77574 0.0
C3514 C 0.42545 0.00225 0.74394 0.0
C3515 C 0.41508 0.00978 0.75138 0.0
C3516 C 0.4146 0.01193 0.77109 0.0
C3517 C 0.42494 0.00721 0.78303 0.0
C3518 C 0.42655 0.99996 0.72306 0.0
C3519 C 0.4036 0.01976 0.77958 0.0
H3520 H 0.41284 0.05671 0.72035 0.0
H3521 H 0.36437 0.00277 0.71569 0.0
H3522 H 0.43567 0.05037 0.75676 0.0
H3523 H 0.44332 0.04266 0.73719 0.0
H3524 H 0.44022 0.06248 0.73562 0.0
H3525 H 0.36325 0.97686 0.72872 0.0
H3526 H 0.38474 0.97749 0.7321 0.0
H3527 H 0.37566 0.98377 0.75141 0.0
H3528 H 0.44397 0.99237 0.75051 0.0
H3529 H 0.4249 0.00922 0.79811 0.0
H3530 H 0.43401 0.01387 0.71744 0.0
H3531 H 0.41268 0.9925 0.71582 0.0
H3532 H 0.43369 0.99222 0.71952 0.0
H3533 H 0.40926 0.03442 0.77613 0.0
H3534 H 0.40365 0.01934 0.79508 0.0
H3535 H 0.38927 0.01185 0.77355 0.0
C3536 C 0.99639 0.35319 0.75321 0.0
C3537 C 0.97791 0.34343 0.74674 0.0
C3538 C 0.00428 0.37116 0.76229 0.0
C3539 C 0.99348 0.37958 0.76473 0.0
C3540 C 0.97502 0.37005 0.75755 0.0
C3541 C 0.96745 0.35208 0.74875 0.0
C3542 C 0.02397 0.38083 0.76987 0.0
C3543 C 0.96309 0.37862 0.75963 0.0
C3544 C 0.00326 0.41554 0.80477 0.0
C3545 C 0.01056 0.43201 0.79553 0.0
C3546 C 0.99854 0.39851 0.79509 0.0
C3547 C 1.001 0.3979 0.77565 0.0
C3548 C 0.00908 0.41462 0.76642 0.0
C3549 C 0.01383 0.43151 0.77651 0.0
C3550 C 0.99017 0.38104 0.80552 0.0
C3551 C 0.0118 0.41454 0.74569 0.0
H3552 H 0.00453 0.34656 0.75175 0.0
H3553 H 0.9532 0.34468 0.74367 0.0
H3554 H 0.03158 0.395 0.76485 0.0
H3555 H 0.0247 0.38247 0.78541 0.0
H3556 H 0.03086 0.373 0.76569 0.0
H3557 H 0.94937 0.36988 0.75223 0.0
H3558 H 0.96134 0.38056 0.77471 0.0
H3559 H 0.96966 0.39257 0.75403 0.0
H3560 H 1.00089 0.41594 0.81953 0.0
H3561 H 0.01931 0.44419 0.76928 0.0
H3562 H 0.99724 0.37308 0.80283 0.0
H3563 H 0.97566 0.37196 0.80038 0.0
H3564 H 0.9908 0.38411 0.8209 0.0
H3565 H 0.01875 0.40664 0.74213 0.0
H3566 H 0.01993 0.42884 0.74105 0.0
H3567 H 0.99832 0.40747 0.73764 0.0
C3568 C 0.65545 0.6005 0.70772 0.0
C3569 C 0.66376 0.61955 0.705 0.0
C3570 C 0.63954 0.59158 0.71744 0.0
C3571 C 0.63182 0.60197 0.72479 0.0
C3572 C 0.63967 0.62101 0.72135 0.0
C3573 C 0.6555 0.62956 0.71142 0.0
C3574 C 0.63148 0.5712 0.72059 0.0
C3575 C 0.6319 0.6326 0.72898 0.0
C3576 C 0.58397 0.57533 0.74198 0.0
C3577 C 0.58778 0.57521 0.76122 0.0
C3578 C 0.59813 0.58419 0.72994 0.0
C3579 C 0.61651 0.59328 0.73736 0.0
C3580 C 0.62039 0.59357 0.75685 0.0
C3581 C 0.606 0.58448 0.7685 0.0
C3582 C 0.59343 0.58345 0.70924 0.0
C3583 C 0.63979 0.60328 0.76538 0.0
H3584 H 0.66167 0.59263 0.70272 0.0
H3585 H 0.66184 0.64429 0.70942 0.0
H3586 H 0.63321 0.5696 0.73571 0.0
H3587 H 0.61663 0.56349 0.71652 0.0
H3588 H 0.63805 0.5647 0.71251 0.0
H3589 H 0.63851 0.64669 0.72363 0.0
H3590 H 0.61701 0.62556 0.72524 0.0
H3591 H 0.63386 0.63419 0.74452 0.0
H3592 H 0.56991 0.56807 0.73627 0.0
H3593 H 0.60902 0.58467 0.78341 0.0
H3594 H 0.59884 0.57574 0.70122 0.0
H3595 H 0.59997 0.59772 0.70441 0.0
H3596 H 0.57848 0.57653 0.70581 0.0
H3597 H 0.64717 0.59662 0.75936 0.0
H3598 H 0.64047 0.60285 0.78088 0.0
H3599 H 0.64708 0.61804 0.76195 0.0
C3600 C 0.71759 0.72711 0.6617 0.0
C3601 C 0.70753 0.71151 0.67185 0.0
C3602 C 0.70955 0.73672 0.65398 0.0
C3603 C 0.69108 0.73086 0.65682 0.0
C3604 C 0.68102 0.71553 0.66766 0.0
C3605 C 0.6893 0.70589 0.67486 0.0
C3606 C 0.72067 0.75276 0.64223 0.0
C3607 C 0.66144 0.70915 0.67137 0.0
C3608 C 0.67731 0.7668 0.64685 0.0
C3609 C 0.66889 0.76059 0.62869 0.0
C3610 C 0.68378 0.75674 0.65659 0.0
C3611 C 0.68222 0.74037 0.64773 0.0
C3612 C 0.67337 0.73386 0.62952 0.0
C3613 C 0.66664 0.74396 0.6203 0.0
C3614 C 0.69274 0.7639 0.67615 0.0
C3615 C 0.67175 0.71671 0.6194 0.0
H3616 H 0.73164 0.73146 0.65919 0.0
H3617 H 0.68148 0.69388 0.68275 0.0
H3618 H 0.7142 0.74959 0.62774 0.0
H3619 H 0.72104 0.76553 0.64805 0.0
H3620 H 0.73492 0.75569 0.64153 0.0
H3621 H 0.65597 0.69798 0.68125 0.0
H3622 H 0.66025 0.72104 0.67726 0.0
H3623 H 0.65279 0.70383 0.658 0.0
H3624 H 0.67894 0.77962 0.65337 0.0
H3625 H 0.66028 0.73927 0.60617 0.0
H3626 H 0.70751 0.76871 0.67606 0.0
H3627 H 0.68681 0.75257 0.68581 0.0
H3628 H 0.69118 0.77566 0.68177 0.0
H3629 H 0.68557 0.71906 0.617 0.0
H3630 H 0.66379 0.71305 0.60564 0.0
H3631 H 0.66511 0.70467 0.62812 0.0
C3632 C 0.27836 0.97705 0.65091 0.0
C3633 C 0.29356 0.98123 0.66297 0.0
C3634 C 0.26686 0.95899 0.64269 0.0
C3635 C 0.27044 0.9446 0.6468 0.0
C3636 C 0.28567 0.94865 0.65908 0.0
C3637 C 0.29716 0.96697 0.66693 0.0
C3638 C 0.25087 0.95533 0.62952 0.0
C3639 C 0.28977 0.93361 0.66399 0.0
C3640 C 0.22888 0.89635 0.638 0.0
C3641 C 0.23155 0.89075 0.62019 0.0
C3642 C 0.24192 0.91343 0.64728 0.0
C3643 C 0.25791 0.92532 0.6384 0.0
C3644 C 0.26099 0.91942 0.62069 0.0
C3645 C 0.2478 0.90211 0.61184 0.0
C3646 C 0.23824 0.91904 0.66627 0.0
C3647 C 0.27775 0.93179 0.61066 0.0
H3648 H 0.27555 0.988 0.64764 0.0
H3649 H 0.30888 0.97011 0.67623 0.0
H3650 H 0.25174 0.94933 0.61567 0.0
H3651 H 0.23792 0.94498 0.63516 0.0
H3652 H 0.25027 0.96815 0.62738 0.0
H3653 H 0.30211 0.93901 0.67379 0.0
H3654 H 0.27799 0.92241 0.67054 0.0
H3655 H 0.29184 0.9272 0.65106 0.0
H3656 H 0.2164 0.88743 0.64457 0.0
H3657 H 0.24984 0.89779 0.59804 0.0
H3658 H 0.2358 0.93087 0.66509 0.0
H3659 H 0.25027 0.9238 0.67634 0.0
H3660 H 0.22616 0.90745 0.67209 0.0
H3661 H 0.27726 0.94426 0.60666 0.0
H3662 H 0.27888 0.92455 0.59777 0.0
H3663 H 0.29024 0.93673 0.62007 0.0
C3664 C 0.01931 0.2769 0.68967 0.0
C3665 C 0.01659 0.28877 0.70201 0.0
C3666 C 0.03514 0.28363 0.67982 0.0
C3667 C 0.04883 0.30263 0.68264 0.0
C3668 C 0.04655 0.31452 0.6957 0.0
C3669 C 0.03036 0.30749 0.70509 0.0
C3670 C 0.03685 0.27052 0.66582 0.0
C3671 C 0.06102 0.33475 0.69942 0.0
C3672 C 0.09489 0.31423 0.66511 0.0
C3673 C 0.09429 0.32112 0.64775 0.0
C3674 C 0.08055 0.30893 0.67702 0.0
C3675 C 0.06504 0.3101 0.67118 0.0
C3676 C 0.06452 0.31731 0.65375 0.0
C3677 C 0.07924 0.32292 0.64234 0.0
C3678 C 0.08184 0.30172 0.69566 0.0
C3679 C 0.04811 0.31846 0.64681 0.0
H3680 H 0.00871 0.26244 0.6871 0.0
H3681 H 0.02839 0.31674 0.71463 0.0
H3682 H 0.03758 0.27544 0.65155 0.0
H3683 H 0.04964 0.27037 0.66914 0.0
H3684 H 0.02519 0.25605 0.66559 0.0
H3685 H 0.05793 0.34172 0.71117 0.0
H3686 H 0.0745 0.33606 0.70278 0.0
H3687 H 0.06216 0.34222 0.68664 0.0
H3688 H 0.10661 0.31299 0.66937 0.0
H3689 H 0.07871 0.32811 0.62884 0.0
H3690 H 0.07134 0.28677 0.6956 0.0
H3691 H 0.07907 0.30925 0.7071 0.0
H3692 H 0.09545 0.30325 0.69886 0.0
H3693 H 0.03595 0.30428 0.64499 0.0
H3694 H 0.05009 0.32495 0.63323 0.0
H3695 H 0.04515 0.32666 0.65729 0.0
C3696 C 0.29397 0.31039 0.66213 0.0
C3697 C 0.29215 0.30873 0.6814 0.0
C3698 C 0.28404 0.31653 0.65149 0.0
C3699 C 0.27204 0.32113 0.6604 0.0
C3700 C 0.27074 0.32014 0.68008 0.0
C3701 C 0.28076 0.3138 0.69036 0.0
C3702 C 0.28572 0.3172 0.63056 0.0
C3703 C 0.25826 0.3251 0.69012 0.0
C3704 C 0.25381 0.34718 0.63273 0.0
C3705 C 0.23646 0.33268 0.62586 0.0
C3706 C 0.26541 0.34374 0.64433 0.0
C3707 C 0.25972 0.32533 0.64887 0.0
C3708 C 0.2423 0.31065 0.64196 0.0
C3709 C 0.23084 0.31453 0.6308 0.0
C3710 C 0.28378 0.3598 0.65166 0.0
C3711 C 0.23577 0.29076 0.64626 0.0
H3712 H 0.30274 0.3063 0.65529 0.0
H3713 H 0.27935 0.31237 0.70529 0.0
H3714 H 0.27256 0.30664 0.62313 0.0
H3715 H 0.28876 0.331 0.62613 0.0
H3716 H 0.29657 0.31444 0.62601 0.0
H3717 H 0.26017 0.3254 0.70561 0.0
H3718 H 0.26068 0.33891 0.68636 0.0
H3719 H 0.24384 0.31476 0.68566 0.0
H3720 H 0.25843 0.36123 0.62894 0.0
H3721 H 0.21732 0.30326 0.62614 0.0
H3722 H 0.2948 0.35783 0.64618 0.0
H3723 H 0.2852 0.36023 0.66719 0.0
H3724 H 0.28582 0.3734 0.64761 0.0
H3725 H 0.24543 0.28645 0.64132 0.0
H3726 H 0.22197 0.28091 0.63955 0.0
H3727 H 0.23536 0.2896 0.66164 0.0
C3728 C 0.67233 0.98155 0.6447 0.0
C3729 C 0.69079 0.99127 0.65125 0.0
C3730 C 0.66425 0.96331 0.63626 0.0
C3731 C 0.67484 0.95456 0.63457 0.0
C3732 C 0.69328 0.96409 0.64182 0.0
C3733 C 0.70104 0.98233 0.64995 0.0
C3734 C 0.64461 0.95366 0.62856 0.0
C3735 C 0.70499 0.95519 0.64054 0.0
C3736 C 0.65388 0.90229 0.62477 0.0
C3737 C 0.65733 0.90109 0.60589 0.0
C3738 C 0.65879 0.91954 0.63415 0.0
C3739 C 0.66715 0.93589 0.62433 0.0
C3740 C 0.66974 0.93455 0.605 0.0
C3741 C 0.66492 0.91718 0.59605 0.0
C3742 C 0.65595 0.92039 0.6548 0.0
C3743 C 0.67835 0.95158 0.59394 0.0
H3744 H 0.66435 0.9884 0.64561 0.0
H3745 H 0.71527 0.9897 0.65511 0.0
H3746 H 0.64393 0.95145 0.61306 0.0
H3747 H 0.6368 0.93974 0.63408 0.0
H3748 H 0.63788 0.96181 0.63212 0.0
H3749 H 0.7187 0.96399 0.64792 0.0
H3750 H 0.69822 0.94149 0.64665 0.0
H3751 H 0.70676 0.95267 0.6256 0.0
H3752 H 0.64814 0.88987 0.63243 0.0
H3753 H 0.66743 0.91622 0.5814 0.0
H3754 H 0.64916 0.92858 0.65773 0.0
H3755 H 0.66939 0.92756 0.66293 0.0
H3756 H 0.64762 0.90633 0.6599 0.0
H3757 H 0.67146 0.9598 0.59603 0.0
H3758 H 0.67773 0.94795 0.57868 0.0
H3759 H 0.69288 0.96064 0.59904 0.0
C3760 C 0.01704 0.70239 0.69003 0.0
C3761 C 0.00884 0.71288 0.69497 0.0
C3762 C 0.03303 0.71011 0.68031 0.0
C3763 C 0.04101 0.72876 0.67542 0.0
C3764 C 0.03328 0.73967 0.68118 0.0
C3765 C 0.01731 0.73161 0.69087 0.0
C3766 C 0.04089 0.69805 0.67452 0.0
C3767 C 0.04139 0.75963 0.67633 0.0
C3768 C 0.08903 0.75475 0.65859 0.0
C3769 C 0.08539 0.75351 0.6391 0.0
C3770 C 0.07477 0.74634 0.6706 0.0
C3771 C 0.05645 0.73646 0.66294 0.0
C3772 C 0.05276 0.73468 0.64325 0.0
C3773 C 0.06725 0.74321 0.6316 0.0
C3774 C 0.07927 0.74853 0.69151 0.0
C3775 C 0.03345 0.72417 0.63447 0.0
H3776 H 0.01062 0.68792 0.69316 0.0
H3777 H 0.01114 0.73986 0.69469 0.0
H3778 H 0.03904 0.69522 0.65904 0.0
H3779 H 0.05576 0.70535 0.67844 0.0
H3780 H 0.03426 0.68453 0.68103 0.0
H3781 H 0.03465 0.76666 0.68311 0.0
H3782 H 0.05618 0.76762 0.68069 0.0
H3783 H 0.03996 0.76007 0.6609 0.0
H3784 H 0.10301 0.7628 0.6645 0.0
H3785 H 0.06436 0.74192 0.61654 0.0
H3786 H 0.07246 0.73474 0.69745 0.0
H3787 H 0.07404 0.75699 0.69836 0.0
H3788 H 0.09419 0.75539 0.69514 0.0
H3789 H 0.02626 0.70981 0.63906 0.0
H3790 H 0.03293 0.72338 0.61889 0.0
H3791 H 0.02586 0.73109 0.63921 0.0
C3792 C 0.9792 0.62703 0.72636 0.0
C3793 C 0.96095 0.6219 0.72855 0.0
C3794 C 0.98665 0.61676 0.73386 0.0
C3795 C 0.97572 0.60129 0.74417 0.0
C3796 C 0.95723 0.59591 0.74618 0.0
C3797 C 0.95002 0.60615 0.73816 0.0
C3798 C 0.00631 0.62267 0.73106 0.0
C3799 C 0.94519 0.57972 0.75736 0.0
C3800 C 0.98843 0.56463 0.75458 0.0
C3801 C 0.99633 0.5705 0.77297 0.0
C3802 C 0.98229 0.57492 0.74473 0.0
C3803 C 0.98374 0.5912 0.75366 0.0
C3804 C 0.99196 0.5973 0.77216 0.0
C3805 C 0.9983 0.58695 0.78152 0.0
C3806 C 0.97395 0.56818 0.72491 0.0
C3807 C 0.99345 0.61437 0.78233 0.0
H3808 H 0.98768 0.63915 0.71886 0.0
H3809 H 0.93595 0.60218 0.74003 0.0
H3810 H 0.0144 0.62753 0.74477 0.0
H3811 H 0.00733 0.61065 0.72525 0.0
H3812 H 0.01253 0.63406 0.72147 0.0
H3813 H 0.93101 0.57711 0.75728 0.0
H3814 H 0.94477 0.56688 0.75165 0.0
H3815 H 0.95095 0.58251 0.77212 0.0
H3816 H 0.98701 0.55196 0.74793 0.0
H3817 H 0.00422 0.59137 0.79583 0.0
H3818 H 0.98063 0.5796 0.71546 0.0
H3819 H 0.95928 0.56391 0.72439 0.0
H3820 H 0.97518 0.55616 0.71946 0.0
H3821 H 1.00083 0.62664 0.77404 0.0
H3822 H 1.00067 0.61754 0.79646 0.0
H3823 H 0.9796 0.61228 0.78393 0.0
C3824 C 0.39974 0.36181 0.73802 0.0
C3825 C 0.38095 0.35442 0.73424 0.0
C3826 C 0.41072 0.37966 0.74696 0.0
C3827 C 0.40269 0.39034 0.75247 0.0
C3828 C 0.38379 0.38316 0.74829 0.0
C3829 C 0.37315 0.3653 0.73911 0.0
C3830 C 0.43086 0.38691 0.75093 0.0
C3831 C 0.37474 0.3941 0.75407 0.0
C3832 C 0.42935 0.42624 0.79301 0.0
C3833 C 0.43919 0.44244 0.78366 0.0
C3834 C 0.41671 0.40935 0.7831 0.0
C3835 C 0.41405 0.40863 0.76334 0.0
C3836 C 0.42348 0.42511 0.75391 0.0
C3837 C 0.43589 0.44186 0.76421 0.0
C3838 C 0.40675 0.39213 0.79371 0.0
C3839 C 0.42115 0.42488 0.73286 0.0
H3840 H 0.40589 0.35354 0.73419 0.0
H3841 H 0.35861 0.35964 0.73628 0.0
H3842 H 0.43897 0.40069 0.74522 0.0
H3843 H 0.43423 0.38885 0.7663 0.0
H3844 H 0.43516 0.37732 0.74477 0.0
H3845 H 0.36016 0.38704 0.74882 0.0
H3846 H 0.37558 0.39604 0.7696 0.0
H3847 H 0.38195 0.40815 0.74874 0.0
H3848 H 0.43176 0.42673 0.80808 0.0
H3849 H 0.44362 0.45435 0.75693 0.0
H3850 H 0.41143 0.38222 0.78983 0.0
H3851 H 0.39187 0.38502 0.78986 0.0
H3852 H 0.40907 0.39537 0.80915 0.0
H3853 H 0.42684 0.41679 0.72611 0.0
H3854 H 0.42816 0.43912 0.72787 0.0
H3855 H 0.40648 0.41791 0.7281 0.0
C3856 C 0.64212 0.02889 0.69312 0.0
C3857 C 0.65549 0.04781 0.69549 0.0
C3858 C 0.62592 0.02186 0.70247 0.0
C3859 C 0.6232 0.03397 0.71477 0.0
C3860 C 0.63649 0.05315 0.71688 0.0
C3861 C 0.65236 0.05985 0.7071 0.0
C3862 C 0.6119 0.0014 0.69955 0.0
C3863 C 0.63428 0.06651 0.73005 0.0
C3864 C 0.57658 0.02135 0.73144 0.0
C3865 C 0.57743 0.01535 0.74924 0.0
C3866 C 0.59108 0.02677 0.71973 0.0
C3867 C 0.60696 0.02657 0.72618 0.0
C3868 C 0.60776 0.02026 0.74407 0.0
C3869 C 0.59291 0.01457 0.7553 0.0
C3870 C 0.58955 0.03304 0.70063 0.0
C3871 C 0.62454 0.02013 0.75163 0.0
H3872 H 0.64441 0.01951 0.68414 0.0
H3873 H 0.66265 0.07447 0.70911 0.0
H3874 H 0.61093 0.99463 0.71279 0.0
H3875 H 0.59825 0.9995 0.69575 0.0
H3876 H 0.61533 0.99416 0.68837 0.0
H3877 H 0.64563 0.08108 0.72973 0.0
H3878 H 0.62124 0.06603 0.72634 0.0
H3879 H 0.63375 0.06231 0.74462 0.0
H3880 H 0.56454 0.02182 0.72668 0.0
H3881 H 0.59367 0.01011 0.76915 0.0
H3882 H 0.59258 0.02528 0.68968 0.0
H3883 H 0.59974 0.04802 0.70013 0.0
H3884 H 0.57576 0.03099 0.69711 0.0
H3885 H 0.62792 0.01182 0.74174 0.0
H3886 H 0.62278 0.01432 0.76556 0.0
H3887 H 0.63637 0.03454 0.75297 0.0
loop_
_geom_bond_atom_site_label_1
_geom_bond_atom_site_label_2
_geom_bond_distance
_geom_bond_site_symmetry_2
_ccdc_geom_bond_type
O0 Cd1 2.223 . S
O0 C8 1.315 . S
Cd1 O0 2.223 . S
Cd1 O4 2.297 . S
Cd1 O5 2.439 . S
Cd1 O11 2.240 . S
Cd2 O3 2.240 . S
Cd2 O10 2.223 . S
Cd2 O12 2.297 1_554 S
Cd2 O13 2.439 . S
O3 Cd2 2.240 . S
O3 C8 1.279 1_655 S
O4 Cd1 2.297 . S
O4 C6 1.247 . S
O5 Cd1 2.439 . S
O5 C6 1.208 . S
C6 O4 1.247 . S
C6 O5 1.208 . S
C7 O12 1.247 . S
C7 O13 1.208 1_556 S
C8 O0 1.315 . S
C8 O3 1.279 1_455 S
C9 O10 1.341 1_556 S
C9 O11 1.255 1_656 S
O10 Cd2 2.223 . S
O10 C9 1.341 1_554 S
O11 Cd1 2.240 . S
O11 C9 1.255 1_454 S
O12 Cd2 2.297 1_556 S
O12 C7 1.247 . S
O13 Cd2 2.439 . S
O13 C7 1.208 1_554 S
O14 Cd15 2.223 . S
O14 C22 1.315 . S
Cd15 O14 2.223 . S
Cd15 O18 2.297 . S
Cd15 O19 2.439 . S
Cd15 O25 2.240 . S
Cd16 O17 2.240 . S
Cd16 O24 2.223 . S
Cd16 O26 2.297 . S
Cd16 O27 2.439 . S
O17 Cd16 2.240 . S
O17 C22 1.279 . S
O18 Cd15 2.297 . S
O18 C20 1.247 . S
O19 Cd15 2.439 . S
O19 C20 1.208 . S
C20 O18 1.247 . S
C20 O19 1.208 . S
C21 O26 1.247 . S
C21 O27 1.208 . S
C22 O14 1.315 . S
C22 O17 1.279 . S
C23 O24 1.315 . S
C23 O25 1.279 . S
O24 Cd16 2.223 . S
O24 C23 1.315 . S
O25 Cd15 2.240 . S
O25 C23 1.279 . S
O26 Cd16 2.297 . S
O26 C21 1.247 . S
O27 Cd16 2.439 . S
O27 C21 1.208 . S
O28 Cd29 2.223 . S
O28 C36 1.311 1_554 S
Cd29 O28 2.223 . S
Cd29 O32 2.297 1_554 S
Cd29 O33 2.439 . S
Cd29 O39 2.240 . S
Cd30 O31 2.240 . S
Cd30 O38 2.223 . S
Cd30 O40 2.297 . S
Cd30 O41 2.439 . S
O31 Cd30 2.240 . S
O31 C36 1.279 1_564 S
O32 Cd29 2.297 1_556 S
O32 C34 1.247 . S
O33 Cd29 2.439 . S
O33 C34 1.208 1_554 S
C34 O32 1.247 . S
C34 O33 1.208 1_556 S
C35 O40 1.247 . S
C35 O41 1.208 . S
C36 O28 1.311 1_556 S
C36 O31 1.279 1_546 S
C37 O38 1.353 . S
C37 O39 1.243 1_565 S
O38 Cd30 2.223 . S
O38 C37 1.353 . S
O39 Cd29 2.240 . S
O39 C37 1.243 1_545 S
O40 Cd30 2.297 . S
O40 C35 1.247 . S
O41 Cd30 2.439 . S
O41 C35 1.208 . S
O42 Cd43 2.223 . S
O42 C50 1.315 . S
Cd43 O42 2.223 . S
Cd43 O46 2.297 . S
Cd43 O47 2.439 . S
Cd43 O53 2.240 . S
Cd44 O45 2.240 . S
Cd44 O52 2.223 . S
Cd44 O54 2.297 . S
Cd44 O55 2.439 . S
O45 Cd44 2.240 . S
O45 C50 1.279 1_455 S
O46 Cd43 2.297 . S
O46 C48 1.247 . S
O47 Cd43 2.439 . S
O47 C48 1.208 . S
C48 O46 1.247 . S
C48 O47 1.208 . S
C49 O54 1.247 . S
C49 O55 1.208 . S
C50 O42 1.315 . S
C50 O45 1.279 1_655 S
C51 O52 1.315 . S
C51 O53 1.279 1_455 S
O52 Cd44 2.223 . S
O52 C51 1.315 . S
O53 Cd43 2.240 . S
O53 C51 1.279 1_655 S
O54 Cd44 2.297 . S
O54 C49 1.247 . S
O55 Cd44 2.439 . S
O55 C49 1.208 . S
O56 Cd57 2.229 . S
O56 C64 1.315 . S
Cd57 O56 2.229 . S
Cd57 O60 2.307 . S
Cd57 O61 2.443 . S
Cd57 O67 2.231 1_556 S
Cd58 O59 2.240 1_554 S
Cd58 O66 2.223 . S
Cd58 O68 2.297 . S
Cd58 O69 2.439 . S
O59 Cd58 2.240 1_556 S
O59 C64 1.279 . S
O60 Cd57 2.307 . S
O60 C62 1.247 . S
O61 Cd57 2.443 . S
O61 C62 1.208 . S
C62 O60 1.247 . S
C62 O61 1.208 . S
C63 O68 1.247 . S
C63 O69 1.208 . S
C64 O56 1.315 . S
C64 O59 1.279 . S
C65 O66 1.315 . S
C65 O67 1.279 . S
O66 Cd58 2.223 . S
O66 C65 1.315 . S
O67 Cd57 2.231 1_554 S
O67 C65 1.279 . S
O68 Cd58 2.297 . S
O68 C63 1.247 . S
O69 Cd58 2.439 . S
O69 C63 1.208 . S
O70 Cd71 2.223 . S
O70 C78 1.305 1_565 S
Cd71 O70 2.223 . S
Cd71 O74 2.297 . S
Cd71 O75 2.439 . S
Cd71 O81 2.240 . S
Cd72 O73 2.240 . S
Cd72 O80 2.223 . S
Cd72 O82 2.297 . S
Cd72 O83 2.439 . S
O73 Cd72 2.240 . S
O73 C78 1.279 . S
O74 Cd71 2.297 . S
O74 C76 1.247 . S
O75 Cd71 2.439 . S
O75 C76 1.208 . S
C76 O74 1.247 . S
C76 O75 1.208 . S
C77 O82 1.247 . S
C77 O83 1.208 . S
C78 O70 1.305 1_545 S
C78 O73 1.279 . S
C79 O80 1.375 . S
C79 O81 1.222 1_545 S
O80 Cd72 2.223 . S
O80 C79 1.375 . S
O81 Cd71 2.240 . S
O81 C79 1.222 1_565 S
O82 Cd72 2.297 . S
O82 C77 1.247 . S
O83 Cd72 2.439 . S
O83 C77 1.208 . S
O84 Cd85 2.223 . S
O84 C92 1.315 . S
Cd85 O84 2.223 . S
Cd85 O88 2.297 . S
Cd85 O89 2.439 . S
Cd85 O95 2.240 . S
Cd86 O87 2.240 . S
Cd86 O94 2.223 . S
Cd86 O96 2.297 . S
Cd86 O97 2.439 . S
O87 Cd86 2.240 . S
O87 C92 1.279 . S
O88 Cd85 2.297 . S
O88 C90 1.247 . S
O89 Cd85 2.439 . S
O89 C90 1.208 . S
C90 O88 1.247 . S
C90 O89 1.208 . S
C91 O96 1.247 . S
C91 O97 1.208 . S
C92 O84 1.315 . S
C92 O87 1.279 . S
C93 O94 1.315 . S
C93 O95 1.279 . S
O94 Cd86 2.223 . S
O94 C93 1.315 . S
O95 Cd85 2.240 . S
O95 C93 1.279 . S
O96 Cd86 2.297 . S
O96 C91 1.247 . S
O97 Cd86 2.439 . S
O97 C91 1.208 . S
O98 Cd99 2.223 . S
O98 C106 1.315 . S
Cd99 O98 2.223 . S
Cd99 O102 2.297 . S
Cd99 O103 2.439 . S
Cd99 O109 2.240 . S
Cd100 O101 2.240 . S
Cd100 O108 2.223 . S
Cd100 O110 2.297 . S
Cd100 O111 2.439 . S
O101 Cd100 2.240 . S
O101 C106 1.279 . S
O102 Cd99 2.297 . S
O102 C104 1.246 . S
O103 Cd99 2.439 . S
O103 C104 1.228 . S
C104 O102 1.246 . S
C104 O103 1.228 . S
C105 O110 1.247 . S
C105 O111 1.208 . S
C106 O98 1.315 . S
C106 O101 1.279 . S
C107 O108 1.315 . S
C107 O109 1.279 . S
O108 Cd100 2.223 . S
O108 C107 1.315 . S
O109 Cd99 2.240 . S
O109 C107 1.279 . S
O110 Cd100 2.297 . S
O110 C105 1.247 . S
O111 Cd100 2.439 . S
O111 C105 1.208 . S
O112 Cd113 2.223 . S
O112 C120 1.315 . S
Cd113 O112 2.223 . S
Cd113 O116 2.297 . S
Cd113 O117 2.439 . S
Cd113 O123 2.240 . S
Cd114 O115 2.240 . S
Cd114 O122 2.223 . S
Cd114 O124 2.297 . S
Cd114 O125 2.439 . S
O115 Cd114 2.240 . S
O115 C120 1.279 . S
O116 Cd113 2.297 . S
O116 C118 1.247 . S
O117 Cd113 2.439 . S
O117 C118 1.208 . S
C118 O116 1.247 . S
C118 O117 1.208 . S
C119 O124 1.247 . S
C119 O125 1.208 . S
C120 O112 1.315 . S
C120 O115 1.279 . S
C121 O122 1.315 . S
C121 O123 1.279 . S
O122 Cd114 2.223 . S
O122 C121 1.315 . S
O123 Cd113 2.240 . S
O123 C121 1.279 . S
O124 Cd114 2.297 . S
O124 C119 1.247 . S
O125 Cd114 2.439 . S
O125 C119 1.208 . S
O126 Cd127 2.223 . S
O126 C134 1.315 . S
Cd127 O126 2.223 . S
Cd127 O130 2.297 . S
Cd127 O131 2.439 . S
Cd127 O137 2.240 . S
Cd128 O129 2.240 . S
Cd128 O136 2.223 . S
Cd128 O138 2.302 . S
Cd128 O139 2.439 1_565 S
O129 Cd128 2.240 . S
O129 C134 1.279 . S
O130 Cd127 2.297 . S
O130 C132 1.247 . S
O131 Cd127 2.439 . S
O131 C132 1.208 . S
C132 O130 1.247 . S
C132 O131 1.208 . S
C133 O138 1.238 1_545 S
C133 O139 1.208 . S
C134 O126 1.315 . S
C134 O129 1.279 . S
C135 O136 1.315 . S
C135 O137 1.279 . S
O136 Cd128 2.223 . S
O136 C135 1.315 . S
O137 Cd127 2.240 . S
O137 C135 1.279 . S
O138 Cd128 2.302 . S
O138 C133 1.238 1_565 S
O139 Cd128 2.439 1_545 S
O139 C133 1.208 . S
O140 Cd141 2.223 . S
O140 C148 1.315 . S
Cd141 O140 2.223 . S
Cd141 O144 2.297 . S
Cd141 O145 2.439 . S
Cd141 O151 2.240 . S
Cd142 O143 2.240 . S
Cd142 O150 2.223 . S
Cd142 O152 2.297 . S
Cd142 O153 2.439 . S
O143 Cd142 2.240 . S
O143 C148 1.279 . S
O144 Cd141 2.297 . S
O144 C146 1.247 . S
O145 Cd141 2.439 . S
O145 C146 1.208 . S
C146 O144 1.247 . S
C146 O145 1.208 . S
C147 O152 1.247 1_655 S
C147 O153 1.208 1_655 S
C148 O140 1.315 . S
C148 O143 1.279 . S
C149 O150 1.315 . S
C149 O151 1.279 . S
O150 Cd142 2.223 . S
O150 C149 1.315 . S
O151 Cd141 2.240 . S
O151 C149 1.279 . S
O152 Cd142 2.297 . S
O152 C147 1.247 1_455 S
O153 Cd142 2.439 . S
O153 C147 1.208 1_455 S
O154 Cd155 2.223 . S
O154 C162 1.315 . S
Cd155 O154 2.223 . S
Cd155 O158 2.297 . S
Cd155 O159 2.439 . S
Cd155 O165 2.240 . S
Cd156 O157 2.240 . S
Cd156 O164 2.223 . S
Cd156 O166 2.297 . S
Cd156 O167 2.439 . S
O157 Cd156 2.240 . S
O157 C162 1.279 . S
O158 Cd155 2.297 . S
O158 C160 1.247 . S
O159 Cd155 2.439 . S
O159 C160 1.208 . S
C160 O158 1.247 . S
C160 O159 1.208 . S
C161 O166 1.247 . S
C161 O167 1.208 . S
C162 O154 1.315 . S
C162 O157 1.279 . S
C163 O164 1.315 . S
C163 O165 1.279 . S
O164 Cd156 2.223 . S
O164 C163 1.315 . S
O165 Cd155 2.240 . S
O165 C163 1.279 . S
O166 Cd156 2.297 . S
O166 C161 1.247 . S
O167 Cd156 2.439 . S
O167 C161 1.208 . S
O168 Cd169 2.223 . S
O168 C176 1.315 . S
Cd169 O168 2.223 . S
Cd169 O172 2.297 . S
Cd169 O173 2.439 . S
Cd169 O179 2.240 . S
Cd170 O171 2.240 . S
Cd170 O178 2.223 . S
Cd170 O180 2.298 . S
Cd170 O181 2.439 1_545 S
O171 Cd170 2.240 . S
O171 C176 1.279 . S
O172 Cd169 2.297 . S
O172 C174 1.247 . S
O173 Cd169 2.439 . S
O173 C174 1.208 . S
C174 O172 1.247 . S
C174 O173 1.208 . S
C175 O180 1.246 1_565 S
C175 O181 1.208 . S
C176 O168 1.315 . S
C176 O171 1.279 . S
C177 O178 1.315 . S
C177 O179 1.279 . S
O178 Cd170 2.223 . S
O178 C177 1.315 . S
O179 Cd169 2.240 . S
O179 C177 1.279 . S
O180 Cd170 2.298 . S
O180 C175 1.246 1_545 S
O181 Cd170 2.439 1_565 S
O181 C175 1.208 . S
O182 Cd183 2.223 . S
O182 C190 1.315 . S
Cd183 O182 2.223 . S
Cd183 O186 2.297 . S
Cd183 O187 2.439 . S
Cd183 O193 2.240 . S
Cd184 O185 2.240 . S
Cd184 O192 2.223 . S
Cd184 O194 2.297 . S
Cd184 O195 2.438 . S
O185 Cd184 2.240 . S
O185 C190 1.279 . S
O186 Cd183 2.297 . S
O186 C188 1.247 . S
O187 Cd183 2.439 . S
O187 C188 1.208 . S
C188 O186 1.247 . S
C188 O187 1.208 . S
C189 O194 1.247 1_455 S
C189 O195 1.209 1_455 S
C190 O182 1.315 . S
C190 O185 1.279 . S
C191 O192 1.315 . S
C191 O193 1.279 . S
O192 Cd184 2.223 . S
O192 C191 1.315 . S
O193 Cd183 2.240 . S
O193 C191 1.279 . S
O194 Cd184 2.297 . S
O194 C189 1.247 1_655 S
O195 Cd184 2.438 . S
O195 C189 1.209 1_655 S
O196 Cd197 2.223 . S
O196 C204 1.315 . S
Cd197 O196 2.223 . S
Cd197 O200 2.297 . S
Cd197 O201 2.439 . S
Cd197 O207 2.240 . S
Cd198 O199 2.240 . S
Cd198 O206 2.223 . S
Cd198 O208 2.297 . S
Cd198 O209 2.439 . S
O199 Cd198 2.240 . S
O199 C204 1.279 . S
O200 Cd197 2.297 . S
O200 C202 1.247 . S
O201 Cd197 2.439 . S
O201 C202 1.208 . S
C202 O200 1.247 . S
C202 O201 1.208 . S
C203 O208 1.247 . S
C203 O209 1.208 . S
C204 O196 1.315 . S
C204 O199 1.279 . S
C205 O206 1.315 . S
C205 O207 1.279 . S
O206 Cd198 2.223 . S
O206 C205 1.315 . S
O207 Cd197 2.240 . S
O207 C205 1.279 . S
O208 Cd198 2.297 . S
O208 C203 1.247 . S
O209 Cd198 2.439 . S
O209 C203 1.208 . S
O210 Cd211 2.223 . S
O210 C218 1.315 . S
Cd211 O210 2.223 . S
Cd211 O214 2.297 . S
Cd211 O215 2.439 . S
Cd211 O221 2.240 . S
Cd212 O213 2.240 . S
Cd212 O220 2.223 . S
Cd212 O222 2.297 . S
Cd212 O223 2.439 . S
O213 Cd212 2.240 . S
O213 C218 1.279 . S
O214 Cd211 2.297 . S
O214 C216 1.247 . S
O215 Cd211 2.439 . S
O215 C216 1.208 . S
C216 O214 1.247 . S
C216 O215 1.208 . S
C217 O222 1.247 . S
C217 O223 1.208 . S
C218 O210 1.315 . S
C218 O213 1.279 . S
C219 O220 1.315 . S
C219 O221 1.279 . S
O220 Cd212 2.223 . S
O220 C219 1.315 . S
O221 Cd211 2.240 . S
O221 C219 1.279 . S
O222 Cd212 2.297 . S
O222 C217 1.247 . S
O223 Cd212 2.439 . S
O223 C217 1.208 . S
O224 Cd225 2.223 . S
O224 C232 1.315 . S
Cd225 O224 2.223 . S
Cd225 O228 2.297 . S
Cd225 O229 2.439 . S
Cd225 O235 2.240 . S
Cd226 O227 2.240 . S
Cd226 O234 2.223 . S
Cd226 O236 2.297 . S
Cd226 O237 2.439 . S
O227 Cd226 2.240 . S
O227 C232 1.279 . S
O228 Cd225 2.297 . S
O228 C230 1.246 . S
O229 Cd225 2.439 . S
O229 C230 1.223 . S
C230 O228 1.246 . S
C230 O229 1.223 . S
C231 O236 1.247 . S
C231 O237 1.208 . S
C232 O224 1.315 . S
C232 O227 1.279 . S
C233 O234 1.315 . S
C233 O235 1.279 . S
O234 Cd226 2.223 . S
O234 C233 1.315 . S
O235 Cd225 2.240 . S
O235 C233 1.279 . S
O236 Cd226 2.297 . S
O236 C231 1.247 . S
O237 Cd226 2.439 . S
O237 C231 1.208 . S
O238 Cd239 2.223 . S
O238 C246 1.315 . S
Cd239 O238 2.223 . S
Cd239 O242 2.297 . S
Cd239 O243 2.439 . S
Cd239 O249 2.240 . S
Cd240 O241 2.240 . S
Cd240 O248 2.223 . S
Cd240 O250 2.297 . S
Cd240 O251 2.439 . S
O241 Cd240 2.240 . S
O241 C246 1.279 . S
O242 Cd239 2.297 . S
O242 C244 1.247 . S
O243 Cd239 2.439 . S
O243 C244 1.208 . S
C244 O242 1.247 . S
C244 O243 1.208 . S
C245 O250 1.247 . S
C245 O251 1.208 . S
C246 O238 1.315 . S
C246 O241 1.279 . S
C247 O248 1.315 . S
C247 O249 1.279 . S
O248 Cd240 2.223 . S
O248 C247 1.315 . S
O249 Cd239 2.240 . S
O249 C247 1.279 . S
O250 Cd240 2.297 . S
O250 C245 1.247 . S
O251 Cd240 2.439 . S
O251 C245 1.208 . S
H252 O278 0.856 . S
H253 O281 0.854 . S
H254 C289 0.930 . S
H255 C290 0.930 . S
H256 C292 0.930 . S
H257 C293 0.930 . S
H258 C295 0.931 . S
H259 C296 0.930 . S
H260 C298 0.930 . S
H261 C299 0.929 . S
H262 C301 0.930 . S
H263 C302 0.931 . S
H264 C304 0.930 . S
H265 C305 0.929 . S
H266 C307 0.931 . S
H267 C308 0.930 . S
H268 C310 0.930 . S
H269 C311 0.932 . S
H270 C313 0.930 . S
H271 C314 0.929 . S
H272 C316 0.931 . S
H273 C317 0.930 . S
H274 C319 0.929 . S
H275 C320 0.931 . S
H276 C322 0.930 . S
H277 C323 0.929 . S
O278 H252 0.856 . S
O278 C324 1.300 . S
O279 C324 1.209 . S
O280 C325 1.199 . S
O281 H253 0.854 . S
O281 C325 1.297 . S
C282 C283 1.404 . S
C282 C287 1.397 . S
C282 C288 1.492 . S
C283 C282 1.404 . S
C283 C284 1.396 . S
C283 C294 1.492 . S
C284 C283 1.396 . S
C284 C285 1.397 . S
C284 C300 1.509 . S
C285 C284 1.397 . S
C285 C286 1.412 . S
C285 C306 1.485 . S
C286 C285 1.412 . S
C286 C287 1.388 . S
C286 C312 1.490 . S
C287 C282 1.397 . S
C287 C286 1.388 . S
C287 C318 1.519 . S
C288 C282 1.492 . S
C288 C289 1.363 . S
C288 C293 1.390 . S
C289 H254 0.930 . S
C289 C288 1.363 . S
C289 C290 1.372 . S
C290 H255 0.930 . S
C290 C289 1.372 . S
C290 C291 1.383 . S
C291 C290 1.383 . S
C291 C292 1.395 . S
C292 H256 0.930 . S
C292 C291 1.395 . S
C292 C293 1.362 . S
C293 H257 0.930 . S
C293 C288 1.390 . S
C293 C292 1.362 . S
C294 C283 1.492 . S
C294 C295 1.377 . S
C294 C299 1.397 . S
C295 H258 0.931 . S
C295 C294 1.377 . S
C295 C296 1.376 . S
C296 H259 0.930 . S
C296 C295 1.376 . S
C296 C297 1.376 . S
C297 C296 1.376 . S
C297 C298 1.378 . S
C297 C324 1.486 . S
C298 H260 0.930 . S
C298 C297 1.378 . S
C298 C299 1.376 . S
C299 H261 0.929 . S
C299 C294 1.397 . S
C299 C298 1.376 . S
C300 C284 1.509 . S
C300 C301 1.391 . S
C300 C305 1.386 . S
C301 H262 0.930 . S
C301 C300 1.391 . S
C301 C302 1.375 . S
C302 H263 0.931 . S
C302 C301 1.375 . S
C302 C303 1.375 . S
C303 C302 1.375 . S
C303 C304 1.361 . S
C304 H264 0.930 . S
C304 C303 1.361 . S
C304 C305 1.399 . S
C305 H265 0.929 . S
C305 C300 1.386 . S
C305 C304 1.399 . S
C306 C285 1.485 . S
C306 C307 1.394 . S
C306 C311 1.360 . S
C307 H266 0.931 . S
C307 C306 1.394 . S
C307 C308 1.372 . S
C308 H267 0.930 . S
C308 C307 1.372 . S
C308 C309 1.397 . S
C309 C308 1.397 . S
C309 C310 1.390 . S
C309 C325 1.476 . S
C310 H268 0.930 . S
C310 C309 1.390 . S
C310 C311 1.366 . S
C311 H269 0.932 . S
C311 C306 1.360 . S
C311 C310 1.366 . S
C312 C286 1.490 . S
C312 C313 1.380 . S
C312 C317 1.386 . S
C313 H270 0.930 . S
C313 C312 1.380 . S
C313 C314 1.381 . S
C314 H271 0.929 . S
C314 C313 1.381 . S
C314 C315 1.371 . S
C315 C314 1.371 . S
C315 C316 1.380 . S
C316 H272 0.931 . S
C316 C315 1.380 . S
C316 C317 1.387 . S
C317 H273 0.930 . S
C317 C312 1.386 . S
C317 C316 1.387 . S
C318 C287 1.519 . S
C318 C319 1.377 . S
C318 C323 1.361 . S
C319 H274 0.929 . S
C319 C318 1.377 . S
C319 C320 1.386 . S
C320 H275 0.931 . S
C320 C319 1.386 . S
C320 C321 1.363 . S
C321 C320 1.363 . S
C321 C322 1.385 . S
C322 H276 0.930 . S
C322 C321 1.385 . S
C322 C323 1.396 . S
C323 H277 0.929 . S
C323 C318 1.361 . S
C323 C322 1.396 . S
C324 O278 1.300 . S
C324 O279 1.209 . S
C324 C297 1.486 . S
C325 O280 1.199 . S
C325 O281 1.297 . S
C325 C309 1.476 . S
H326 O352 0.856 . S
H327 O355 0.854 . S
H328 C363 0.930 . S
H329 C364 0.930 . S
H330 C366 0.930 . S
H331 C367 0.930 . S
H332 C369 0.931 . S
H333 C370 0.930 . S
H334 C372 0.930 . S
H335 C373 0.929 . S
H336 C375 0.930 . S
H337 C376 0.931 . S
H338 C378 0.930 . S
H339 C379 0.929 . S
H340 C381 0.931 . S
H341 C382 0.930 . S
H342 C384 0.930 . S
H343 C385 0.932 . S
H344 C387 0.930 . S
H345 C388 0.929 . S
H346 C390 0.931 . S
H347 C391 0.930 . S
H348 C393 0.929 . S
H349 C394 0.931 . S
H350 C396 0.930 . S
H351 C397 0.929 . S
O352 H326 0.856 . S
O352 C398 1.300 . S
O353 C398 1.209 . S
O354 C399 1.199 . S
O355 H327 0.854 . S
O355 C399 1.297 . S
C356 C357 1.404 . S
C356 C361 1.397 . S
C356 C362 1.492 . S
C357 C356 1.404 . S
C357 C358 1.396 . S
C357 C368 1.492 . S
C358 C357 1.396 . S
C358 C359 1.397 . S
C358 C374 1.509 . S
C359 C358 1.397 . S
C359 C360 1.412 . S
C359 C380 1.485 . S
C360 C359 1.412 . S
C360 C361 1.388 . S
C360 C386 1.490 . S
C361 C356 1.397 . S
C361 C360 1.388 . S
C361 C392 1.519 . S
C362 C356 1.492 . S
C362 C363 1.363 . S
C362 C367 1.390 . S
C363 H328 0.930 . S
C363 C362 1.363 . S
C363 C364 1.372 . S
C364 H329 0.930 . S
C364 C363 1.372 . S
C364 C365 1.383 . S
C365 C364 1.383 . S
C365 C366 1.395 . S
C366 H330 0.930 . S
C366 C365 1.395 . S
C366 C367 1.362 . S
C367 H331 0.930 . S
C367 C362 1.390 . S
C367 C366 1.362 . S
C368 C357 1.492 . S
C368 C369 1.377 . S
C368 C373 1.397 . S
C369 H332 0.931 . S
C369 C368 1.377 . S
C369 C370 1.376 . S
C370 H333 0.930 . S
C370 C369 1.376 . S
C370 C371 1.376 . S
C371 C370 1.376 . S
C371 C372 1.378 . S
C371 C398 1.486 . S
C372 H334 0.930 . S
C372 C371 1.378 . S
C372 C373 1.376 . S
C373 H335 0.929 . S
C373 C368 1.397 . S
C373 C372 1.376 . S
C374 C358 1.509 . S
C374 C375 1.391 . S
C374 C379 1.386 . S
C375 H336 0.930 . S
C375 C374 1.391 . S
C375 C376 1.375 . S
C376 H337 0.931 . S
C376 C375 1.375 . S
C376 C377 1.375 . S
C377 C376 1.375 . S
C377 C378 1.361 . S
C378 H338 0.930 . S
C378 C377 1.361 . S
C378 C379 1.399 . S
C379 H339 0.929 . S
C379 C374 1.386 . S
C379 C378 1.399 . S
C380 C359 1.485 . S
C380 C381 1.394 . S
C380 C385 1.360 . S
C381 H340 0.931 . S
C381 C380 1.394 . S
C381 C382 1.372 . S
C382 H341 0.930 . S
C382 C381 1.372 . S
C382 C383 1.397 . S
C383 C382 1.397 . S
C383 C384 1.390 . S
C383 C399 1.476 . S
C384 H342 0.930 . S
C384 C383 1.390 . S
C384 C385 1.366 . S
C385 H343 0.932 . S
C385 C380 1.360 . S
C385 C384 1.366 . S
C386 C360 1.490 . S
C386 C387 1.380 . S
C386 C391 1.386 . S
C387 H344 0.930 . S
C387 C386 1.380 . S
C387 C388 1.381 . S
C388 H345 0.929 . S
C388 C387 1.381 . S
C388 C389 1.371 . S
C389 C388 1.371 . S
C389 C390 1.380 . S
C390 H346 0.931 . S
C390 C389 1.380 . S
C390 C391 1.387 . S
C391 H347 0.930 . S
C391 C386 1.386 . S
C391 C390 1.387 . S
C392 C361 1.519 . S
C392 C393 1.377 . S
C392 C397 1.361 . S
C393 H348 0.929 . S
C393 C392 1.377 . S
C393 C394 1.386 . S
C394 H349 0.931 . S
C394 C393 1.386 . S
C394 C395 1.363 . S
C395 C394 1.363 . S
C395 C396 1.385 . S
C396 H350 0.930 . S
C396 C395 1.385 . S
C396 C397 1.396 . S
C397 H351 0.929 . S
C397 C392 1.361 . S
C397 C396 1.396 . S
C398 O352 1.300 . S
C398 O353 1.209 . S
C398 C371 1.486 . S
C399 O354 1.199 . S
C399 O355 1.297 . S
C399 C383 1.476 . S
H400 O426 0.856 . S
H401 O429 0.854 . S
H402 C437 0.930 . S
H403 C438 0.930 . S
H404 C440 0.930 . S
H405 C441 0.930 . S
H406 C443 0.931 . S
H407 C444 0.930 . S
H408 C446 0.930 . S
H409 C447 0.929 . S
H410 C449 0.930 . S
H411 C450 0.931 . S
H412 C452 0.930 . S
H413 C453 0.929 . S
H414 C455 0.931 . S
H415 C456 0.930 . S
H416 C458 0.930 . S
H417 C459 0.932 . S
H418 C461 0.930 . S
H419 C462 0.929 . S
H420 C464 0.931 . S
H421 C465 0.930 . S
H422 C467 0.929 . S
H423 C468 0.931 . S
H424 C470 0.930 . S
H425 C471 0.929 . S
O426 H400 0.856 . S
O426 C472 1.300 . S
O427 C472 1.209 . S
O428 C473 1.199 . S
O429 H401 0.854 . S
O429 C473 1.297 . S
C430 C431 1.404 . S
C430 C435 1.397 . S
C430 C436 1.492 . S
C431 C430 1.404 . S
C431 C432 1.396 . S
C431 C442 1.492 . S
C432 C431 1.396 . S
C432 C433 1.397 . S
C432 C448 1.509 . S
C433 C432 1.397 . S
C433 C434 1.412 . S
C433 C454 1.485 . S
C434 C433 1.412 . S
C434 C435 1.388 . S
C434 C460 1.490 . S
C435 C430 1.397 . S
C435 C434 1.388 . S
C435 C466 1.519 . S
C436 C430 1.492 . S
C436 C437 1.363 . S
C436 C441 1.390 . S
C437 H402 0.930 . S
C437 C436 1.363 . S
C437 C438 1.372 . S
C438 H403 0.930 . S
C438 C437 1.372 . S
C438 C439 1.383 . S
C439 C438 1.383 . S
C439 C440 1.395 . S
C440 H404 0.930 . S
C440 C439 1.395 . S
C440 C441 1.362 . S
C441 H405 0.930 . S
C441 C436 1.390 . S
C441 C440 1.362 . S
C442 C431 1.492 . S
C442 C443 1.377 . S
C442 C447 1.397 . S
C443 H406 0.931 . S
C443 C442 1.377 . S
C443 C444 1.376 . S
C444 H407 0.930 . S
C444 C443 1.376 . S
C444 C445 1.376 . S
C445 C444 1.376 . S
C445 C446 1.378 . S
C445 C472 1.486 . S
C446 H408 0.930 . S
C446 C445 1.378 . S
C446 C447 1.376 . S
C447 H409 0.929 . S
C447 C442 1.397 . S
C447 C446 1.376 . S
C448 C432 1.509 . S
C448 C449 1.391 . S
C448 C453 1.386 . S
C449 H410 0.930 . S
C449 C448 1.391 . S
C449 C450 1.375 . S
C450 H411 0.931 . S
C450 C449 1.375 . S
C450 C451 1.375 . S
C451 C450 1.375 . S
C451 C452 1.361 . S
C452 H412 0.930 . S
C452 C451 1.361 . S
C452 C453 1.399 . S
C453 H413 0.929 . S
C453 C448 1.386 . S
C453 C452 1.399 . S
C454 C433 1.485 . S
C454 C455 1.394 . S
C454 C459 1.360 . S
C455 H414 0.931 . S
C455 C454 1.394 . S
C455 C456 1.372 . S
C456 H415 0.930 . S
C456 C455 1.372 . S
C456 C457 1.397 . S
C457 C456 1.397 . S
C457 C458 1.390 . S
C457 C473 1.476 . S
C458 H416 0.930 . S
C458 C457 1.390 . S
C458 C459 1.366 . S
C459 H417 0.932 . S
C459 C454 1.360 . S
C459 C458 1.366 . S
C460 C434 1.490 . S
C460 C461 1.380 . S
C460 C465 1.386 . S
C461 H418 0.930 . S
C461 C460 1.380 . S
C461 C462 1.381 . S
C462 H419 0.929 . S
C462 C461 1.381 . S
C462 C463 1.371 . S
C463 C462 1.371 . S
C463 C464 1.380 . S
C464 H420 0.931 . S
C464 C463 1.380 . S
C464 C465 1.387 . S
C465 H421 0.930 . S
C465 C460 1.386 . S
C465 C464 1.387 . S
C466 C435 1.519 . S
C466 C467 1.377 . S
C466 C471 1.361 . S
C467 H422 0.929 . S
C467 C466 1.377 . S
C467 C468 1.386 . S
C468 H423 0.931 . S
C468 C467 1.386 . S
C468 C469 1.363 . S
C469 C468 1.363 . S
C469 C470 1.385 . S
C470 H424 0.930 . S
C470 C469 1.385 . S
C470 C471 1.396 . S
C471 H425 0.929 . S
C471 C466 1.361 . S
C471 C470 1.396 . S
C472 O426 1.300 . S
C472 O427 1.209 . S
C472 C445 1.486 . S
C473 O428 1.199 . S
C473 O429 1.297 . S
C473 C457 1.476 . S
H474 O500 0.856 . S
H475 O503 0.854 . S
H476 C511 0.930 . S
H477 C512 0.930 . S
H478 C514 0.930 . S
H479 C515 0.930 . S
H480 C517 0.931 . S
H481 C518 0.930 . S
H482 C520 0.930 . S
H483 C521 0.929 . S
H484 C523 0.930 . S
H485 C524 0.931 . S
H486 C526 0.930 . S
H487 C527 0.929 . S
H488 C529 0.931 . S
H489 C530 0.930 . S
H490 C532 0.930 . S
H491 C533 0.932 . S
H492 C535 0.930 . S
H493 C536 0.929 . S
H494 C538 0.931 . S
H495 C539 0.930 . S
H496 C541 0.929 . S
H497 C542 0.931 . S
H498 C544 0.930 . S
H499 C545 0.929 . S
O500 H474 0.856 . S
O500 C546 1.300 . S
O501 C546 1.209 . S
O502 C547 1.199 . S
O503 H475 0.854 . S
O503 C547 1.297 . S
C504 C505 1.404 . S
C504 C509 1.397 . S
C504 C510 1.492 . S
C505 C504 1.404 . S
C505 C506 1.396 . S
C505 C516 1.492 . S
C506 C505 1.396 . S
C506 C507 1.397 . S
C506 C522 1.509 . S
C507 C506 1.397 . S
C507 C508 1.412 . S
C507 C528 1.485 . S
C508 C507 1.412 . S
C508 C509 1.388 . S
C508 C534 1.490 . S
C509 C504 1.397 . S
C509 C508 1.388 . S
C509 C540 1.519 . S
C510 C504 1.492 . S
C510 C511 1.363 . S
C510 C515 1.390 . S
C511 H476 0.930 . S
C511 C510 1.363 . S
C511 C512 1.372 . S
C512 H477 0.930 . S
C512 C511 1.372 . S
C512 C513 1.383 . S
C513 C512 1.383 . S
C513 C514 1.395 . S
C514 H478 0.930 . S
C514 C513 1.395 . S
C514 C515 1.362 . S
C515 H479 0.930 . S
C515 C510 1.390 . S
C515 C514 1.362 . S
C516 C505 1.492 . S
C516 C517 1.377 . S
C516 C521 1.397 . S
C517 H480 0.931 . S
C517 C516 1.377 . S
C517 C518 1.376 . S
C518 H481 0.930 . S
C518 C517 1.376 . S
C518 C519 1.376 . S
C519 C518 1.376 . S
C519 C520 1.378 . S
C519 C546 1.486 . S
C520 H482 0.930 . S
C520 C519 1.378 . S
C520 C521 1.376 . S
C521 H483 0.929 . S
C521 C516 1.397 . S
C521 C520 1.376 . S
C522 C506 1.509 . S
C522 C523 1.391 . S
C522 C527 1.386 . S
C523 H484 0.930 . S
C523 C522 1.391 . S
C523 C524 1.375 . S
C524 H485 0.931 . S
C524 C523 1.375 . S
C524 C525 1.375 . S
C525 C524 1.375 . S
C525 C526 1.361 . S
C526 H486 0.930 . S
C526 C525 1.361 . S
C526 C527 1.399 . S
C527 H487 0.929 . S
C527 C522 1.386 . S
C527 C526 1.399 . S
C528 C507 1.485 . S
C528 C529 1.394 . S
C528 C533 1.360 . S
C529 H488 0.931 . S
C529 C528 1.394 . S
C529 C530 1.372 . S
C530 H489 0.930 . S
C530 C529 1.372 . S
C530 C531 1.397 . S
C531 C530 1.397 . S
C531 C532 1.390 . S
C531 C547 1.476 . S
C532 H490 0.930 . S
C532 C531 1.390 . S
C532 C533 1.366 . S
C533 H491 0.932 . S
C533 C528 1.360 . S
C533 C532 1.366 . S
C534 C508 1.490 . S
C534 C535 1.380 . S
C534 C539 1.386 . S
C535 H492 0.930 . S
C535 C534 1.380 . S
C535 C536 1.381 . S
C536 H493 0.929 . S
C536 C535 1.381 . S
C536 C537 1.371 . S
C537 C536 1.371 . S
C537 C538 1.380 . S
C538 H494 0.931 . S
C538 C537 1.380 . S
C538 C539 1.387 . S
C539 H495 0.930 . S
C539 C534 1.386 . S
C539 C538 1.387 . S
C540 C509 1.519 . S
C540 C541 1.377 . S
C540 C545 1.361 . S
C541 H496 0.929 . S
C541 C540 1.377 . S
C541 C542 1.386 . S
C542 H497 0.931 . S
C542 C541 1.386 . S
C542 C543 1.363 . S
C543 C542 1.363 . S
C543 C544 1.385 . S
C544 H498 0.930 . S
C544 C543 1.385 . S
C544 C545 1.396 . S
C545 H499 0.929 . S
C545 C540 1.361 . S
C545 C544 1.396 . S
C546 O500 1.300 . S
C546 O501 1.209 . S
C546 C519 1.486 . S
C547 O502 1.199 . S
C547 O503 1.297 . S
C547 C531 1.476 . S
H548 O574 0.856 1_554 S
H549 O577 0.854 . S
H550 C585 0.930 . S
H551 C586 0.930 . S
H552 C588 0.930 . S
H553 C589 0.930 . S
H554 C591 0.931 . S
H555 C592 0.930 . S
H556 C594 0.930 . S
H557 C595 0.929 . S
H558 C597 0.930 . S
H559 C598 0.931 . S
H560 C600 0.930 . S
H561 C601 0.929 . S
H562 C603 0.931 . S
H563 C604 0.930 . S
H564 C606 0.930 . S
H565 C607 0.932 . S
H566 C609 0.930 . S
H567 C610 0.929 . S
H568 C612 0.931 . S
H569 C613 0.930 . S
H570 C615 0.929 . S
H571 C616 0.931 . S
H572 C618 0.930 . S
H573 C619 0.929 . S
O574 H548 0.856 1_556 S
O574 C620 1.300 . S
O575 C620 1.209 . S
O576 C621 1.199 . S
O577 H549 0.854 . S
O577 C621 1.297 . S
C578 C579 1.404 . S
C578 C583 1.397 . S
C578 C584 1.492 . S
C579 C578 1.404 . S
C579 C580 1.396 . S
C579 C590 1.492 . S
C580 C579 1.396 . S
C580 C581 1.397 . S
C580 C596 1.509 . S
C581 C580 1.397 . S
C581 C582 1.412 . S
C581 C602 1.485 . S
C582 C581 1.412 . S
C582 C583 1.388 . S
C582 C608 1.490 . S
C583 C578 1.397 . S
C583 C582 1.388 . S
C583 C614 1.519 . S
C584 C578 1.492 . S
C584 C585 1.363 . S
C584 C589 1.390 . S
C585 H550 0.930 . S
C585 C584 1.363 . S
C585 C586 1.372 . S
C586 H551 0.930 . S
C586 C585 1.372 . S
C586 C587 1.383 . S
C587 C586 1.383 . S
C587 C588 1.395 . S
C588 H552 0.930 . S
C588 C587 1.395 . S
C588 C589 1.362 . S
C589 H553 0.930 . S
C589 C584 1.390 . S
C589 C588 1.362 . S
C590 C579 1.492 . S
C590 C591 1.377 . S
C590 C595 1.397 . S
C591 H554 0.931 . S
C591 C590 1.377 . S
C591 C592 1.376 . S
C592 H555 0.930 . S
C592 C591 1.376 . S
C592 C593 1.376 . S
C593 C592 1.376 . S
C593 C594 1.378 . S
C593 C620 1.486 . S
C594 H556 0.930 . S
C594 C593 1.378 . S
C594 C595 1.376 . S
C595 H557 0.929 . S
C595 C590 1.397 . S
C595 C594 1.376 . S
C596 C580 1.509 . S
C596 C597 1.391 . S
C596 C601 1.386 . S
C597 H558 0.930 . S
C597 C596 1.391 . S
C597 C598 1.375 . S
C598 H559 0.931 . S
C598 C597 1.375 . S
C598 C599 1.375 . S
C599 C598 1.375 . S
C599 C600 1.361 . S
C600 H560 0.930 . S
C600 C599 1.361 . S
C600 C601 1.399 . S
C601 H561 0.929 . S
C601 C596 1.386 . S
C601 C600 1.399 . S
C602 C581 1.485 . S
C602 C603 1.394 . S
C602 C607 1.360 . S
C603 H562 0.931 . S
C603 C602 1.394 . S
C603 C604 1.372 . S
C604 H563 0.930 . S
C604 C603 1.372 . S
C604 C605 1.397 . S
C605 C604 1.397 . S
C605 C606 1.390 . S
C605 C621 1.476 . S
C606 H564 0.930 . S
C606 C605 1.390 . S
C606 C607 1.366 . S
C607 H565 0.932 . S
C607 C602 1.360 . S
C607 C606 1.366 . S
C608 C582 1.490 . S
C608 C609 1.380 . S
C608 C613 1.386 . S
C609 H566 0.930 . S
C609 C608 1.380 . S
C609 C610 1.381 . S
C610 H567 0.929 . S
C610 C609 1.381 . S
C610 C611 1.371 . S
C611 C610 1.371 . S
C611 C612 1.380 . S
C612 H568 0.931 . S
C612 C611 1.380 . S
C612 C613 1.387 . S
C613 H569 0.930 . S
C613 C608 1.386 . S
C613 C612 1.387 . S
C614 C583 1.519 . S
C614 C615 1.377 . S
C614 C619 1.361 . S
C615 H570 0.929 . S
C615 C614 1.377 . S
C615 C616 1.386 . S
C616 H571 0.931 . S
C616 C615 1.386 . S
C616 C617 1.363 . S
C617 C616 1.363 . S
C617 C618 1.385 . S
C618 H572 0.930 . S
C618 C617 1.385 . S
C618 C619 1.396 . S
C619 H573 0.929 . S
C619 C614 1.361 . S
C619 C618 1.396 . S
C620 O574 1.300 . S
C620 O575 1.209 . S
C620 C593 1.486 . S
C621 O576 1.199 . S
C621 O577 1.297 . S
C621 C605 1.476 . S
H622 O648 0.856 . S
H623 O651 0.854 . S
H624 C659 0.930 . S
H625 C660 0.930 . S
H626 C662 0.930 . S
H627 C663 0.930 . S
H628 C665 0.931 . S
H629 C666 0.930 . S
H630 C668 0.930 . S
H631 C669 0.929 . S
H632 C671 0.930 . S
H633 C672 0.931 . S
H634 C674 0.930 . S
H635 C675 0.929 . S
H636 C677 0.931 . S
H637 C678 0.930 . S
H638 C680 0.930 . S
H639 C681 0.932 . S
H640 C683 0.930 . S
H641 C684 0.929 . S
H642 C686 0.931 . S
H643 C687 0.930 . S
H644 C689 0.929 . S
H645 C690 0.931 . S
H646 C692 0.930 . S
H647 C693 0.929 . S
O648 H622 0.856 . S
O648 C694 1.300 1_554 S
O649 C694 1.209 . S
O650 C695 1.199 . S
O651 H623 0.854 . S
O651 C695 1.297 . S
C652 C653 1.404 . S
C652 C657 1.397 . S
C652 C658 1.492 . S
C653 C652 1.404 . S
C653 C654 1.396 . S
C653 C664 1.492 . S
C654 C653 1.396 . S
C654 C655 1.397 . S
C654 C670 1.509 . S
C655 C654 1.397 . S
C655 C656 1.412 . S
C655 C676 1.485 . S
C656 C655 1.412 . S
C656 C657 1.388 . S
C656 C682 1.490 . S
C657 C652 1.397 . S
C657 C656 1.388 . S
C657 C688 1.519 . S
C658 C652 1.492 . S
C658 C659 1.363 . S
C658 C663 1.390 . S
C659 H624 0.930 . S
C659 C658 1.363 . S
C659 C660 1.372 . S
C660 H625 0.930 . S
C660 C659 1.372 . S
C660 C661 1.383 . S
C661 C660 1.383 . S
C661 C662 1.395 . S
C662 H626 0.930 . S
C662 C661 1.395 . S
C662 C663 1.362 . S
C663 H627 0.930 . S
C663 C658 1.390 . S
C663 C662 1.362 . S
C664 C653 1.492 . S
C664 C665 1.377 . S
C664 C669 1.397 . S
C665 H628 0.931 . S
C665 C664 1.377 . S
C665 C666 1.376 . S
C666 H629 0.930 . S
C666 C665 1.376 . S
C666 C667 1.376 . S
C667 C666 1.376 . S
C667 C668 1.378 . S
C667 C694 1.486 . S
C668 H630 0.930 . S
C668 C667 1.378 . S
C668 C669 1.376 . S
C669 H631 0.929 . S
C669 C664 1.397 . S
C669 C668 1.376 . S
C670 C654 1.509 . S
C670 C671 1.391 . S
C670 C675 1.386 . S
C671 H632 0.930 . S
C671 C670 1.391 . S
C671 C672 1.375 . S
C672 H633 0.931 . S
C672 C671 1.375 . S
C672 C673 1.375 . S
C673 C672 1.375 . S
C673 C674 1.361 . S
C674 H634 0.930 . S
C674 C673 1.361 . S
C674 C675 1.399 . S
C675 H635 0.929 . S
C675 C670 1.386 . S
C675 C674 1.399 . S
C676 C655 1.485 . S
C676 C677 1.394 . S
C676 C681 1.360 . S
C677 H636 0.931 . S
C677 C676 1.394 . S
C677 C678 1.372 . S
C678 H637 0.930 . S
C678 C677 1.372 . S
C678 C679 1.397 . S
C679 C678 1.397 . S
C679 C680 1.390 . S
C679 C695 1.476 . S
C680 H638 0.930 . S
C680 C679 1.390 . S
C680 C681 1.366 . S
C681 H639 0.932 . S
C681 C676 1.360 . S
C681 C680 1.366 . S
C682 C656 1.490 . S
C682 C683 1.380 . S
C682 C687 1.386 . S
C683 H640 0.930 . S
C683 C682 1.380 . S
C683 C684 1.381 . S
C684 H641 0.929 . S
C684 C683 1.381 . S
C684 C685 1.371 . S
C685 C684 1.371 . S
C685 C686 1.380 . S
C686 H642 0.931 . S
C686 C685 1.380 . S
C686 C687 1.387 . S
C687 H643 0.930 . S
C687 C682 1.386 . S
C687 C686 1.387 . S
C688 C657 1.519 . S
C688 C689 1.377 . S
C688 C693 1.361 . S
C689 H644 0.929 . S
C689 C688 1.377 . S
C689 C690 1.386 . S
C690 H645 0.931 . S
C690 C689 1.386 . S
C690 C691 1.363 . S
C691 C690 1.363 . S
C691 C692 1.385 . S
C692 H646 0.930 . S
C692 C691 1.385 . S
C692 C693 1.396 . S
C693 H647 0.929 . S
C693 C688 1.361 . S
C693 C692 1.396 . S
C694 O648 1.300 1_556 S
C694 O649 1.209 . S
C694 C667 1.486 . S
C695 O650 1.199 . S
C695 O651 1.297 . S
C695 C679 1.476 . S
H696 O722 0.856 . S
H697 O725 0.854 . S
H698 C733 0.930 . S
H699 C734 0.930 . S
H700 C736 0.930 . S
H701 C737 0.930 . S
H702 C739 0.931 . S
H703 C740 0.930 . S
H704 C742 0.930 . S
H705 C743 0.929 . S
H706 C745 0.930 . S
H707 C746 0.931 . S
H708 C748 0.930 . S
H709 C749 0.929 . S
H710 C751 0.931 . S
H711 C752 0.930 . S
H712 C754 0.930 . S
H713 C755 0.932 . S
H714 C757 0.930 . S
H715 C758 0.929 . S
H716 C760 0.931 . S
H717 C761 0.930 . S
H718 C763 0.929 . S
H719 C764 0.931 . S
H720 C766 0.930 . S
H721 C767 0.929 . S
O722 H696 0.856 . S
O722 C768 1.300 . S
O723 C768 1.209 . S
O724 C769 1.199 . S
O725 H697 0.854 . S
O725 C769 1.297 . S
C726 C727 1.404 . S
C726 C731 1.397 . S
C726 C732 1.492 . S
C727 C726 1.404 . S
C727 C728 1.396 . S
C727 C738 1.492 . S
C728 C727 1.396 . S
C728 C729 1.397 . S
C728 C744 1.509 . S
C729 C728 1.397 . S
C729 C730 1.412 . S
C729 C750 1.485 . S
C730 C729 1.412 . S
C730 C731 1.388 . S
C730 C756 1.490 . S
C731 C726 1.397 . S
C731 C730 1.388 . S
C731 C762 1.519 . S
C732 C726 1.492 . S
C732 C733 1.363 . S
C732 C737 1.390 . S
C733 H698 0.930 . S
C733 C732 1.363 . S
C733 C734 1.372 . S
C734 H699 0.930 . S
C734 C733 1.372 . S
C734 C735 1.383 . S
C735 C734 1.383 . S
C735 C736 1.395 . S
C736 H700 0.930 . S
C736 C735 1.395 . S
C736 C737 1.362 . S
C737 H701 0.930 . S
C737 C732 1.390 . S
C737 C736 1.362 . S
C738 C727 1.492 . S
C738 C739 1.377 . S
C738 C743 1.397 . S
C739 H702 0.931 . S
C739 C738 1.377 . S
C739 C740 1.376 . S
C740 H703 0.930 . S
C740 C739 1.376 . S
C740 C741 1.376 . S
C741 C740 1.376 . S
C741 C742 1.378 . S
C741 C768 1.486 . S
C742 H704 0.930 . S
C742 C741 1.378 . S
C742 C743 1.376 . S
C743 H705 0.929 . S
C743 C738 1.397 . S
C743 C742 1.376 . S
C744 C728 1.509 . S
C744 C745 1.391 . S
C744 C749 1.386 . S
C745 H706 0.930 . S
C745 C744 1.391 . S
C745 C746 1.375 . S
C746 H707 0.931 . S
C746 C745 1.375 . S
C746 C747 1.375 . S
C747 C746 1.375 . S
C747 C748 1.361 . S
C748 H708 0.930 . S
C748 C747 1.361 . S
C748 C749 1.399 . S
C749 H709 0.929 . S
C749 C744 1.386 . S
C749 C748 1.399 . S
C750 C729 1.485 . S
C750 C751 1.394 . S
C750 C755 1.360 . S
C751 H710 0.931 . S
C751 C750 1.394 . S
C751 C752 1.372 . S
C752 H711 0.930 . S
C752 C751 1.372 . S
C752 C753 1.397 . S
C753 C752 1.397 . S
C753 C754 1.390 . S
C753 C769 1.476 . S
C754 H712 0.930 . S
C754 C753 1.390 . S
C754 C755 1.366 . S
C755 H713 0.932 . S
C755 C750 1.360 . S
C755 C754 1.366 . S
C756 C730 1.490 . S
C756 C757 1.380 . S
C756 C761 1.386 . S
C757 H714 0.930 . S
C757 C756 1.380 . S
C757 C758 1.381 . S
C758 H715 0.929 . S
C758 C757 1.381 . S
C758 C759 1.371 . S
C759 C758 1.371 . S
C759 C760 1.380 . S
C760 H716 0.931 . S
C760 C759 1.380 . S
C760 C761 1.387 . S
C761 H717 0.930 . S
C761 C756 1.386 . S
C761 C760 1.387 . S
C762 C731 1.519 . S
C762 C763 1.377 . S
C762 C767 1.361 . S
C763 H718 0.929 . S
C763 C762 1.377 . S
C763 C764 1.386 . S
C764 H719 0.931 . S
C764 C763 1.386 . S
C764 C765 1.363 . S
C765 C764 1.363 . S
C765 C766 1.385 . S
C766 H720 0.930 . S
C766 C765 1.385 . S
C766 C767 1.396 . S
C767 H721 0.929 . S
C767 C762 1.361 . S
C767 C766 1.396 . S
C768 O722 1.300 . S
C768 O723 1.209 . S
C768 C741 1.486 . S
C769 O724 1.199 . S
C769 O725 1.297 . S
C769 C753 1.476 . S
H770 O796 0.856 . S
H771 O799 0.854 . S
H772 C807 0.930 . S
H773 C808 0.930 . S
H774 C810 0.930 . S
H775 C811 0.930 . S
H776 C813 0.931 . S
H777 C814 0.930 . S
H778 C816 0.930 . S
H779 C817 0.929 . S
H780 C819 0.930 . S
H781 C820 0.931 . S
H782 C822 0.930 . S
H783 C823 0.929 . S
H784 C825 0.931 . S
H785 C826 0.930 . S
H786 C828 0.930 . S
H787 C829 0.932 . S
H788 C831 0.930 . S
H789 C832 0.929 . S
H790 C834 0.931 . S
H791 C835 0.930 . S
H792 C837 0.929 . S
H793 C838 0.931 . S
H794 C840 0.930 . S
H795 C841 0.929 . S
O796 H770 0.856 . S
O796 C842 1.300 . S
O797 C842 1.209 . S
O798 C843 1.199 . S
O799 H771 0.854 . S
O799 C843 1.297 . S
C800 C801 1.404 . S
C800 C805 1.397 . S
C800 C806 1.492 . S
C801 C800 1.404 . S
C801 C802 1.396 . S
C801 C812 1.492 . S
C802 C801 1.396 . S
C802 C803 1.397 . S
C802 C818 1.509 . S
C803 C802 1.397 . S
C803 C804 1.412 . S
C803 C824 1.485 . S
C804 C803 1.412 . S
C804 C805 1.388 . S
C804 C830 1.490 . S
C805 C800 1.397 . S
C805 C804 1.388 . S
C805 C836 1.519 . S
C806 C800 1.492 . S
C806 C807 1.363 . S
C806 C811 1.390 . S
C807 H772 0.930 . S
C807 C806 1.363 . S
C807 C808 1.372 . S
C808 H773 0.930 . S
C808 C807 1.372 . S
C808 C809 1.383 . S
C809 C808 1.383 . S
C809 C810 1.395 . S
C810 H774 0.930 . S
C810 C809 1.395 . S
C810 C811 1.362 . S
C811 H775 0.930 . S
C811 C806 1.390 . S
C811 C810 1.362 . S
C812 C801 1.492 . S
C812 C813 1.377 . S
C812 C817 1.397 . S
C813 H776 0.931 . S
C813 C812 1.377 . S
C813 C814 1.376 . S
C814 H777 0.930 . S
C814 C813 1.376 . S
C814 C815 1.376 . S
C815 C814 1.376 . S
C815 C816 1.378 . S
C815 C842 1.486 . S
C816 H778 0.930 . S
C816 C815 1.378 . S
C816 C817 1.376 . S
C817 H779 0.929 . S
C817 C812 1.397 . S
C817 C816 1.376 . S
C818 C802 1.509 . S
C818 C819 1.391 . S
C818 C823 1.386 . S
C819 H780 0.930 . S
C819 C818 1.391 . S
C819 C820 1.375 . S
C820 H781 0.931 . S
C820 C819 1.375 . S
C820 C821 1.375 . S
C821 C820 1.375 . S
C821 C822 1.361 . S
C822 H782 0.930 . S
C822 C821 1.361 . S
C822 C823 1.399 . S
C823 H783 0.929 . S
C823 C818 1.386 . S
C823 C822 1.399 . S
C824 C803 1.485 . S
C824 C825 1.394 . S
C824 C829 1.360 . S
C825 H784 0.931 . S
C825 C824 1.394 . S
C825 C826 1.372 . S
C826 H785 0.930 . S
C826 C825 1.372 . S
C826 C827 1.397 . S
C827 C826 1.397 . S
C827 C828 1.390 . S
C827 C843 1.476 . S
C828 H786 0.930 . S
C828 C827 1.390 . S
C828 C829 1.366 . S
C829 H787 0.932 . S
C829 C824 1.360 . S
C829 C828 1.366 . S
C830 C804 1.490 . S
C830 C831 1.380 . S
C830 C835 1.386 . S
C831 H788 0.930 . S
C831 C830 1.380 . S
C831 C832 1.381 . S
C832 H789 0.929 . S
C832 C831 1.381 . S
C832 C833 1.371 . S
C833 C832 1.371 . S
C833 C834 1.380 . S
C834 H790 0.931 . S
C834 C833 1.380 . S
C834 C835 1.387 . S
C835 H791 0.930 . S
C835 C830 1.386 . S
C835 C834 1.387 . S
C836 C805 1.519 . S
C836 C837 1.377 . S
C836 C841 1.361 . S
C837 H792 0.929 . S
C837 C836 1.377 . S
C837 C838 1.386 . S
C838 H793 0.931 . S
C838 C837 1.386 . S
C838 C839 1.363 . S
C839 C838 1.363 . S
C839 C840 1.385 . S
C840 H794 0.930 . S
C840 C839 1.385 . S
C840 C841 1.396 . S
C841 H795 0.929 . S
C841 C836 1.361 . S
C841 C840 1.396 . S
C842 O796 1.300 . S
C842 O797 1.209 . S
C842 C815 1.486 . S
C843 O798 1.199 . S
C843 O799 1.297 . S
C843 C827 1.476 . S
H844 O870 0.856 . S
H845 O873 0.854 . S
H846 C881 0.930 . S
H847 C882 0.930 . S
H848 C884 0.930 . S
H849 C885 0.930 . S
H850 C887 0.931 . S
H851 C888 0.930 . S
H852 C890 0.930 . S
H853 C891 0.929 . S
H854 C893 0.930 . S
H855 C894 0.931 . S
H856 C896 0.930 . S
H857 C897 0.929 . S
H858 C899 0.931 . S
H859 C900 0.930 . S
H860 C902 0.930 . S
H861 C903 0.932 . S
H862 C905 0.930 . S
H863 C906 0.929 . S
H864 C908 0.931 . S
H865 C909 0.930 . S
H866 C911 0.929 . S
H867 C912 0.931 . S
H868 C914 0.930 . S
H869 C915 0.929 . S
O870 H844 0.856 . S
O870 C916 1.300 . S
O871 C916 1.209 . S
O872 C917 1.199 . S
O873 H845 0.854 . S
O873 C917 1.297 . S
C874 C875 1.404 . S
C874 C879 1.397 . S
C874 C880 1.492 . S
C875 C874 1.404 . S
C875 C876 1.396 . S
C875 C886 1.492 . S
C876 C875 1.396 . S
C876 C877 1.397 . S
C876 C892 1.509 . S
C877 C876 1.397 . S
C877 C878 1.412 . S
C877 C898 1.485 . S
C878 C877 1.412 . S
C878 C879 1.388 . S
C878 C904 1.490 . S
C879 C874 1.397 . S
C879 C878 1.388 . S
C879 C910 1.519 . S
C880 C874 1.492 . S
C880 C881 1.363 . S
C880 C885 1.390 . S
C881 H846 0.930 . S
C881 C880 1.363 . S
C881 C882 1.372 . S
C882 H847 0.930 . S
C882 C881 1.372 . S
C882 C883 1.383 . S
C883 C882 1.383 . S
C883 C884 1.395 . S
C884 H848 0.930 . S
C884 C883 1.395 . S
C884 C885 1.362 . S
C885 H849 0.930 . S
C885 C880 1.390 . S
C885 C884 1.362 . S
C886 C875 1.492 . S
C886 C887 1.377 . S
C886 C891 1.397 . S
C887 H850 0.931 . S
C887 C886 1.377 . S
C887 C888 1.376 . S
C888 H851 0.930 . S
C888 C887 1.376 . S
C888 C889 1.376 . S
C889 C888 1.376 . S
C889 C890 1.378 . S
C889 C916 1.486 . S
C890 H852 0.930 . S
C890 C889 1.378 . S
C890 C891 1.376 . S
C891 H853 0.929 . S
C891 C886 1.397 . S
C891 C890 1.376 . S
C892 C876 1.509 . S
C892 C893 1.391 . S
C892 C897 1.386 . S
C893 H854 0.930 . S
C893 C892 1.391 . S
C893 C894 1.375 . S
C894 H855 0.931 . S
C894 C893 1.375 . S
C894 C895 1.375 . S
C895 C894 1.375 . S
C895 C896 1.361 . S
C896 H856 0.930 . S
C896 C895 1.361 . S
C896 C897 1.399 . S
C897 H857 0.929 . S
C897 C892 1.386 . S
C897 C896 1.399 . S
C898 C877 1.485 . S
C898 C899 1.394 . S
C898 C903 1.360 . S
C899 H858 0.931 . S
C899 C898 1.394 . S
C899 C900 1.372 . S
C900 H859 0.930 . S
C900 C899 1.372 . S
C900 C901 1.397 . S
C901 C900 1.397 . S
C901 C902 1.390 . S
C901 C917 1.476 . S
C902 H860 0.930 . S
C902 C901 1.390 . S
C902 C903 1.366 . S
C903 H861 0.932 . S
C903 C898 1.360 . S
C903 C902 1.366 . S
C904 C878 1.490 . S
C904 C905 1.380 . S
C904 C909 1.386 . S
C905 H862 0.930 . S
C905 C904 1.380 . S
C905 C906 1.381 . S
C906 H863 0.929 . S
C906 C905 1.381 . S
C906 C907 1.371 . S
C907 C906 1.371 . S
C907 C908 1.380 . S
C908 H864 0.931 . S
C908 C907 1.380 . S
C908 C909 1.387 . S
C909 H865 0.930 . S
C909 C904 1.386 . S
C909 C908 1.387 . S
C910 C879 1.519 . S
C910 C911 1.377 . S
C910 C915 1.361 . S
C911 H866 0.929 . S
C911 C910 1.377 . S
C911 C912 1.386 . S
C912 H867 0.931 . S
C912 C911 1.386 . S
C912 C913 1.363 . S
C913 C912 1.363 . S
C913 C914 1.385 . S
C914 H868 0.930 . S
C914 C913 1.385 . S
C914 C915 1.396 . S
C915 H869 0.929 . S
C915 C910 1.361 . S
C915 C914 1.396 . S
C916 O870 1.300 . S
C916 O871 1.209 . S
C916 C889 1.486 . S
C917 O872 1.199 . S
C917 O873 1.297 . S
C917 C901 1.476 . S
H918 O944 0.856 . S
H919 O947 0.854 . S
H920 C955 0.930 . S
H921 C956 0.930 . S
H922 C958 0.930 . S
H923 C959 0.930 . S
H924 C961 0.931 . S
H925 C962 0.923 1_655 S
H926 C964 0.930 . S
H927 C965 0.929 . S
H928 C967 0.930 . S
H929 C968 0.929 . S
H930 C970 0.930 . S
H931 C971 0.929 . S
H932 C973 0.931 . S
H933 C974 0.930 . S
H934 C976 0.930 . S
H935 C977 0.932 . S
H936 C979 0.930 . S
H937 C980 0.929 . S
H938 C982 0.931 . S
H939 C983 0.930 . S
H940 C985 0.929 . S
H941 C986 0.931 . S
H942 C988 0.930 . S
H943 C989 0.929 . S
O944 H918 0.856 . S
O944 C990 1.300 . S
O945 C990 1.209 . S
O946 C991 1.199 1_655 S
O947 H919 0.854 . S
O947 C991 1.297 . S
C948 C949 1.404 . S
C948 C953 1.394 . S
C948 C954 1.492 . S
C949 C948 1.404 . S
C949 C950 1.396 . S
C949 C960 1.492 . S
C950 C949 1.396 . S
C950 C951 1.397 . S
C950 C966 1.509 . S
C951 C950 1.397 . S
C951 C952 1.425 . S
C951 C972 1.485 . S
C952 C951 1.425 . S
C952 C953 1.401 . S
C952 C978 1.491 1_455 S
C953 C948 1.394 . S
C953 C952 1.401 . S
C953 C984 1.495 1_455 S
C954 C948 1.492 . S
C954 C955 1.363 1_455 S
C954 C959 1.390 . S
C955 H920 0.930 . S
C955 C954 1.363 1_655 S
C955 C956 1.372 . S
C956 H921 0.930 . S
C956 C955 1.372 . S
C956 C957 1.383 . S
C957 C956 1.383 . S
C957 C958 1.395 1_655 S
C958 H922 0.930 . S
C958 C957 1.395 1_455 S
C958 C959 1.362 . S
C959 H923 0.930 . S
C959 C954 1.390 . S
C959 C958 1.362 . S
C960 C949 1.492 . S
C960 C961 1.377 1_455 S
C960 C965 1.397 . S
C961 H924 0.931 . S
C961 C960 1.377 1_655 S
C961 C962 1.377 1_655 S
C962 H925 0.923 1_455 S
C962 C961 1.377 1_455 S
C962 C963 1.382 . S
C963 C962 1.382 . S
C963 C964 1.378 . S
C963 C990 1.486 . S
C964 H926 0.930 . S
C964 C963 1.378 . S
C964 C965 1.376 . S
C965 H927 0.929 . S
C965 C960 1.397 . S
C965 C964 1.376 . S
C966 C950 1.509 . S
C966 C967 1.391 1_455 S
C966 C971 1.386 . S
C967 H928 0.930 . S
C967 C966 1.391 1_655 S
C967 C968 1.373 . S
C968 H929 0.929 . S
C968 C967 1.373 . S
C968 C969 1.379 1_655 S
C969 C968 1.379 1_455 S
C969 C970 1.361 . S
C970 H930 0.930 . S
C970 C969 1.361 . S
C970 C971 1.399 . S
C971 H931 0.929 . S
C971 C966 1.386 . S
C971 C970 1.399 . S
C972 C951 1.485 . S
C972 C973 1.394 1_455 S
C972 C977 1.360 . S
C973 H932 0.931 . S
C973 C972 1.394 1_655 S
C973 C974 1.372 . S
C974 H933 0.930 . S
C974 C973 1.372 . S
C974 C975 1.397 1_655 S
C975 C974 1.397 1_455 S
C975 C976 1.390 . S
C975 C991 1.476 . S
C976 H934 0.930 . S
C976 C975 1.390 . S
C976 C977 1.366 . S
C977 H935 0.932 . S
C977 C972 1.360 . S
C977 C976 1.366 . S
C978 C952 1.491 1_655 S
C978 C979 1.380 . S
C978 C983 1.386 1_655 S
C979 H936 0.930 . S
C979 C978 1.380 . S
C979 C980 1.381 . S
C980 H937 0.929 . S
C980 C979 1.381 . S
C980 C981 1.371 . S
C981 C980 1.371 . S
C981 C982 1.380 1_655 S
C982 H938 0.931 . S
C982 C981 1.380 1_455 S
C982 C983 1.387 . S
C983 H939 0.930 . S
C983 C978 1.386 1_455 S
C983 C982 1.387 . S
C984 C953 1.495 1_655 S
C984 C985 1.394 . S
C984 C989 1.349 1_655 S
C985 H940 0.929 . S
C985 C984 1.394 . S
C985 C986 1.386 . S
C986 H941 0.931 . S
C986 C985 1.386 . S
C986 C987 1.363 1_655 S
C987 C986 1.363 1_455 S
C987 C988 1.385 . S
C988 H942 0.930 . S
C988 C987 1.385 . S
C988 C989 1.396 . S
C989 H943 0.929 . S
C989 C984 1.349 1_455 S
C989 C988 1.396 . S
C990 O944 1.300 . S
C990 O945 1.209 . S
C990 C963 1.486 . S
C991 O946 1.199 1_455 S
C991 O947 1.297 . S
C991 C975 1.476 . S
H992 O1018 0.856 . S
H993 O1021 0.854 . S
H994 C1029 0.930 . S
H995 C1030 0.930 . S
H996 C1032 0.930 . S
H997 C1033 0.930 . S
H998 C1035 0.931 . S
H999 C1036 0.930 . S
H1000 C1038 0.930 . S
H1001 C1039 0.929 . S
H1002 C1041 0.930 . S
H1003 C1042 0.931 . S
H1004 C1044 0.930 . S
H1005 C1045 0.929 . S
H1006 C1047 0.931 . S
H1007 C1048 0.930 . S
H1008 C1050 0.930 . S
H1009 C1051 0.932 . S
H1010 C1053 0.930 . S
H1011 C1054 0.929 . S
H1012 C1056 0.931 . S
H1013 C1057 0.930 . S
H1014 C1059 0.929 . S
H1015 C1060 0.931 . S
H1016 C1062 0.930 . S
H1017 C1063 0.929 . S
O1018 H992 0.856 . S
O1018 C1064 1.300 . S
O1019 C1064 1.209 . S
O1020 C1065 1.199 . S
O1021 H993 0.854 . S
O1021 C1065 1.297 . S
C1022 C1023 1.404 . S
C1022 C1027 1.397 . S
C1022 C1028 1.492 . S
C1023 C1022 1.404 . S
C1023 C1024 1.396 . S
C1023 C1034 1.492 . S
C1024 C1023 1.396 . S
C1024 C1025 1.397 . S
C1024 C1040 1.509 . S
C1025 C1024 1.397 . S
C1025 C1026 1.412 . S
C1025 C1046 1.485 . S
C1026 C1025 1.412 . S
C1026 C1027 1.388 . S
C1026 C1052 1.490 . S
C1027 C1022 1.397 . S
C1027 C1026 1.388 . S
C1027 C1058 1.519 . S
C1028 C1022 1.492 . S
C1028 C1029 1.363 . S
C1028 C1033 1.390 . S
C1029 H994 0.930 . S
C1029 C1028 1.363 . S
C1029 C1030 1.372 . S
C1030 H995 0.930 . S
C1030 C1029 1.372 . S
C1030 C1031 1.383 . S
C1031 C1030 1.383 . S
C1031 C1032 1.395 . S
C1032 H996 0.930 . S
C1032 C1031 1.395 . S
C1032 C1033 1.362 . S
C1033 H997 0.930 . S
C1033 C1028 1.390 . S
C1033 C1032 1.362 . S
C1034 C1023 1.492 . S
C1034 C1035 1.377 . S
C1034 C1039 1.397 . S
C1035 H998 0.931 . S
C1035 C1034 1.377 . S
C1035 C1036 1.376 . S
C1036 H999 0.930 . S
C1036 C1035 1.376 . S
C1036 C1037 1.376 . S
C1037 C1036 1.376 . S
C1037 C1038 1.378 . S
C1037 C1064 1.486 . S
C1038 H1000 0.930 . S
C1038 C1037 1.378 . S
C1038 C1039 1.376 . S
C1039 H1001 0.929 . S
C1039 C1034 1.397 . S
C1039 C1038 1.376 . S
C1040 C1024 1.509 . S
C1040 C1041 1.391 . S
C1040 C1045 1.386 . S
C1041 H1002 0.930 . S
C1041 C1040 1.391 . S
C1041 C1042 1.375 . S
C1042 H1003 0.931 . S
C1042 C1041 1.375 . S
C1042 C1043 1.375 . S
C1043 C1042 1.375 . S
C1043 C1044 1.361 . S
C1044 H1004 0.930 . S
C1044 C1043 1.361 . S
C1044 C1045 1.399 . S
C1045 H1005 0.929 . S
C1045 C1040 1.386 . S
C1045 C1044 1.399 . S
C1046 C1025 1.485 . S
C1046 C1047 1.394 . S
C1046 C1051 1.360 . S
C1047 H1006 0.931 . S
C1047 C1046 1.394 . S
C1047 C1048 1.372 . S
C1048 H1007 0.930 . S
C1048 C1047 1.372 . S
C1048 C1049 1.397 . S
C1049 C1048 1.397 . S
C1049 C1050 1.390 . S
C1049 C1065 1.476 . S
C1050 H1008 0.930 . S
C1050 C1049 1.390 . S
C1050 C1051 1.366 . S
C1051 H1009 0.932 . S
C1051 C1046 1.360 . S
C1051 C1050 1.366 . S
C1052 C1026 1.490 . S
C1052 C1053 1.380 . S
C1052 C1057 1.386 . S
C1053 H1010 0.930 . S
C1053 C1052 1.380 . S
C1053 C1054 1.381 . S
C1054 H1011 0.929 . S
C1054 C1053 1.381 . S
C1054 C1055 1.371 . S
C1055 C1054 1.371 . S
C1055 C1056 1.380 . S
C1056 H1012 0.931 . S
C1056 C1055 1.380 . S
C1056 C1057 1.387 . S
C1057 H1013 0.930 . S
C1057 C1052 1.386 . S
C1057 C1056 1.387 . S
C1058 C1027 1.519 . S
C1058 C1059 1.377 . S
C1058 C1063 1.361 . S
C1059 H1014 0.929 . S
C1059 C1058 1.377 . S
C1059 C1060 1.386 . S
C1060 H1015 0.931 . S
C1060 C1059 1.386 . S
C1060 C1061 1.363 . S
C1061 C1060 1.363 . S
C1061 C1062 1.385 . S
C1062 H1016 0.930 . S
C1062 C1061 1.385 . S
C1062 C1063 1.396 . S
C1063 H1017 0.929 . S
C1063 C1058 1.361 . S
C1063 C1062 1.396 . S
C1064 O1018 1.300 . S
C1064 O1019 1.209 . S
C1064 C1037 1.486 . S
C1065 O1020 1.199 . S
C1065 O1021 1.297 . S
C1065 C1049 1.476 . S
H1066 O1092 0.856 . S
H1067 O1095 0.854 . S
H1068 C1103 0.930 . S
H1069 C1104 0.930 . S
H1070 C1106 0.930 . S
H1071 C1107 0.930 . S
H1072 C1109 0.931 . S
H1073 C1110 0.930 . S
H1074 C1112 0.930 . S
H1075 C1113 0.929 . S
H1076 C1115 0.930 . S
H1077 C1116 0.931 . S
H1078 C1118 0.930 . S
H1079 C1119 0.929 . S
H1080 C1121 0.931 . S
H1081 C1122 0.930 . S
H1082 C1124 0.930 . S
H1083 C1125 0.932 . S
H1084 C1127 0.930 . S
H1085 C1128 0.929 . S
H1086 C1130 0.931 . S
H1087 C1131 0.930 . S
H1088 C1133 0.929 . S
H1089 C1134 0.931 . S
H1090 C1136 0.930 . S
H1091 C1137 0.929 . S
O1092 H1066 0.856 . S
O1092 C1138 1.300 . S
O1093 C1138 1.209 . S
O1094 C1139 1.199 1_545 S
O1095 H1067 0.854 . S
O1095 C1139 1.297 . S
C1096 C1097 1.404 . S
C1096 C1101 1.412 . S
C1096 C1102 1.492 . S
C1097 C1096 1.404 . S
C1097 C1098 1.396 . S
C1097 C1108 1.492 . S
C1098 C1097 1.396 . S
C1098 C1099 1.397 . S
C1098 C1114 1.509 . S
C1099 C1098 1.397 . S
C1099 C1100 1.408 . S
C1099 C1120 1.485 . S
C1100 C1099 1.408 . S
C1100 C1101 1.375 . S
C1100 C1126 1.483 1_565 S
C1101 C1096 1.412 . S
C1101 C1100 1.375 . S
C1101 C1132 1.535 . S
C1102 C1096 1.492 . S
C1102 C1103 1.363 1_565 S
C1102 C1107 1.390 . S
C1103 H1068 0.930 . S
C1103 C1102 1.363 1_545 S
C1103 C1104 1.372 . S
C1104 H1069 0.930 . S
C1104 C1103 1.372 . S
C1104 C1105 1.383 . S
C1105 C1104 1.383 . S
C1105 C1106 1.395 1_545 S
C1106 H1070 0.930 . S
C1106 C1105 1.395 1_565 S
C1106 C1107 1.362 . S
C1107 H1071 0.930 . S
C1107 C1102 1.390 . S
C1107 C1106 1.362 . S
C1108 C1097 1.492 . S
C1108 C1109 1.377 1_565 S
C1108 C1113 1.397 . S
C1109 H1072 0.931 . S
C1109 C1108 1.377 1_545 S
C1109 C1110 1.376 . S
C1110 H1073 0.930 . S
C1110 C1109 1.376 . S
C1110 C1111 1.376 1_545 S
C1111 C1110 1.376 1_565 S
C1111 C1112 1.378 . S
C1111 C1138 1.486 . S
C1112 H1074 0.930 . S
C1112 C1111 1.378 . S
C1112 C1113 1.376 . S
C1113 H1075 0.929 . S
C1113 C1108 1.397 . S
C1113 C1112 1.376 . S
C1114 C1098 1.509 . S
C1114 C1115 1.391 1_565 S
C1114 C1119 1.386 . S
C1115 H1076 0.930 . S
C1115 C1114 1.391 1_545 S
C1115 C1116 1.375 . S
C1116 H1077 0.931 . S
C1116 C1115 1.375 . S
C1116 C1117 1.375 1_545 S
C1117 C1116 1.375 1_565 S
C1117 C1118 1.361 . S
C1118 H1078 0.930 . S
C1118 C1117 1.361 . S
C1118 C1119 1.399 . S
C1119 H1079 0.929 . S
C1119 C1114 1.386 . S
C1119 C1118 1.399 . S
C1120 C1099 1.485 . S
C1120 C1121 1.394 1_565 S
C1120 C1125 1.360 . S
C1121 H1080 0.931 . S
C1121 C1120 1.394 1_545 S
C1121 C1122 1.372 . S
C1122 H1081 0.930 . S
C1122 C1121 1.372 . S
C1122 C1123 1.397 1_545 S
C1123 C1122 1.397 1_565 S
C1123 C1124 1.390 . S
C1123 C1139 1.476 . S
C1124 H1082 0.930 . S
C1124 C1123 1.390 . S
C1124 C1125 1.366 . S
C1125 H1083 0.932 . S
C1125 C1120 1.360 . S
C1125 C1124 1.366 . S
C1126 C1100 1.483 1_545 S
C1126 C1127 1.380 . S
C1126 C1131 1.386 1_545 S
C1127 H1084 0.930 . S
C1127 C1126 1.380 . S
C1127 C1128 1.381 . S
C1128 H1085 0.929 . S
C1128 C1127 1.381 . S
C1128 C1129 1.371 . S
C1129 C1128 1.371 . S
C1129 C1130 1.380 1_545 S
C1130 H1086 0.931 . S
C1130 C1129 1.380 1_565 S
C1130 C1131 1.387 . S
C1131 H1087 0.930 . S
C1131 C1126 1.386 1_565 S
C1131 C1130 1.387 . S
C1132 C1101 1.535 . S
C1132 C1133 1.379 1_565 S
C1132 C1137 1.357 . S
C1133 H1088 0.929 . S
C1133 C1132 1.379 1_545 S
C1133 C1134 1.386 . S
C1134 H1089 0.931 . S
C1134 C1133 1.386 . S
C1134 C1135 1.363 1_545 S
C1135 C1134 1.363 1_565 S
C1135 C1136 1.385 . S
C1136 H1090 0.930 . S
C1136 C1135 1.385 . S
C1136 C1137 1.396 . S
C1137 H1091 0.929 . S
C1137 C1132 1.357 . S
C1137 C1136 1.396 . S
C1138 O1092 1.300 . S
C1138 O1093 1.209 . S
C1138 C1111 1.486 . S
C1139 O1094 1.199 1_565 S
C1139 O1095 1.297 . S
C1139 C1123 1.476 . S
H1140 O1166 0.856 . S
H1141 O1169 0.854 . S
H1142 C1177 0.930 . S
H1143 C1178 0.930 . S
H1144 C1180 0.930 . S
H1145 C1181 0.930 . S
H1146 C1183 0.931 . S
H1147 C1184 0.930 . S
H1148 C1186 0.930 . S
H1149 C1187 0.929 . S
H1150 C1189 0.930 . S
H1151 C1190 0.931 . S
H1152 C1192 0.930 . S
H1153 C1193 0.929 . S
H1154 C1195 0.931 . S
H1155 C1196 0.930 . S
H1156 C1198 0.930 . S
H1157 C1199 0.932 . S
H1158 C1201 0.930 . S
H1159 C1202 0.929 . S
H1160 C1204 0.931 . S
H1161 C1205 0.930 . S
H1162 C1207 0.929 . S
H1163 C1208 0.931 . S
H1164 C1210 0.930 . S
H1165 C1211 0.929 . S
O1166 H1140 0.856 . S
O1166 C1212 1.300 . S
O1167 C1212 1.209 1_565 S
O1168 C1213 1.199 1_545 S
O1169 H1141 0.854 . S
O1169 C1213 1.297 . S
C1170 C1171 1.404 . S
C1170 C1175 1.397 1_545 S
C1170 C1176 1.492 . S
C1171 C1170 1.404 . S
C1171 C1172 1.424 . S
C1171 C1182 1.492 . S
C1172 C1171 1.424 . S
C1172 C1173 1.381 1_545 S
C1172 C1188 1.503 . S
C1173 C1172 1.381 1_565 S
C1173 C1174 1.415 . S
C1173 C1194 1.498 . S
C1174 C1173 1.415 . S
C1174 C1175 1.371 . S
C1174 C1200 1.490 . S
C1175 C1170 1.397 1_565 S
C1175 C1174 1.371 . S
C1175 C1206 1.519 . S
C1176 C1170 1.492 . S
C1176 C1177 1.363 . S
C1176 C1181 1.390 1_545 S
C1177 H1142 0.930 . S
C1177 C1176 1.363 . S
C1177 C1178 1.372 . S
C1178 H1143 0.930 . S
C1178 C1177 1.372 . S
C1178 C1179 1.383 . S
C1179 C1178 1.383 . S
C1179 C1180 1.395 1_545 S
C1180 H1144 0.930 . S
C1180 C1179 1.395 1_565 S
C1180 C1181 1.362 . S
C1181 H1145 0.930 . S
C1181 C1176 1.390 1_565 S
C1181 C1180 1.362 . S
C1182 C1171 1.492 . S
C1182 C1183 1.377 . S
C1182 C1187 1.397 1_545 S
C1183 H1146 0.931 . S
C1183 C1182 1.377 . S
C1183 C1184 1.376 . S
C1184 H1147 0.930 . S
C1184 C1183 1.376 . S
C1184 C1185 1.376 . S
C1185 C1184 1.376 . S
C1185 C1186 1.378 1_545 S
C1185 C1212 1.486 . S
C1186 H1148 0.930 . S
C1186 C1185 1.378 1_565 S
C1186 C1187 1.376 . S
C1187 H1149 0.929 . S
C1187 C1182 1.397 1_565 S
C1187 C1186 1.376 . S
C1188 C1172 1.503 . S
C1188 C1189 1.405 . S
C1188 C1193 1.362 1_545 S
C1189 H1150 0.930 . S
C1189 C1188 1.405 . S
C1189 C1190 1.375 . S
C1190 H1151 0.931 . S
C1190 C1189 1.375 . S
C1190 C1191 1.381 1_545 S
C1191 C1190 1.381 1_565 S
C1191 C1192 1.358 . S
C1192 H1152 0.930 . S
C1192 C1191 1.358 . S
C1192 C1193 1.399 . S
C1193 H1153 0.929 . S
C1193 C1188 1.362 1_565 S
C1193 C1192 1.399 . S
C1194 C1173 1.498 . S
C1194 C1195 1.394 1_565 S
C1194 C1199 1.360 . S
C1195 H1154 0.931 . S
C1195 C1194 1.394 1_545 S
C1195 C1196 1.372 . S
C1196 H1155 0.930 . S
C1196 C1195 1.372 . S
C1196 C1197 1.397 1_545 S
C1197 C1196 1.397 1_565 S
C1197 C1198 1.390 . S
C1197 C1213 1.476 . S
C1198 H1156 0.930 . S
C1198 C1197 1.390 . S
C1198 C1199 1.366 . S
C1199 H1157 0.932 . S
C1199 C1194 1.360 . S
C1199 C1198 1.366 . S
C1200 C1174 1.490 . S
C1200 C1201 1.356 1_565 S
C1200 C1205 1.416 . S
C1201 H1158 0.930 . S
C1201 C1200 1.356 1_545 S
C1201 C1202 1.381 . S
C1202 H1159 0.929 . S
C1202 C1201 1.381 . S
C1202 C1203 1.424 . S
C1203 C1202 1.424 . S
C1203 C1204 1.336 1_545 S
C1204 H1160 0.931 . S
C1204 C1203 1.336 1_565 S
C1204 C1205 1.387 . S
C1205 H1161 0.930 . S
C1205 C1200 1.416 . S
C1205 C1204 1.387 . S
C1206 C1175 1.519 . S
C1206 C1207 1.377 1_565 S
C1206 C1211 1.361 . S
C1207 H1162 0.929 . S
C1207 C1206 1.377 1_545 S
C1207 C1208 1.386 . S
C1208 H1163 0.931 . S
C1208 C1207 1.386 . S
C1208 C1209 1.363 1_545 S
C1209 C1208 1.363 1_565 S
C1209 C1210 1.385 . S
C1210 H1164 0.930 . S
C1210 C1209 1.385 . S
C1210 C1211 1.396 . S
C1211 H1165 0.929 . S
C1211 C1206 1.361 . S
C1211 C1210 1.396 . S
C1212 O1166 1.300 . S
C1212 O1167 1.209 1_545 S
C1212 C1185 1.486 . S
C1213 O1168 1.199 1_565 S
C1213 O1169 1.297 . S
C1213 C1197 1.476 . S
H1214 O1240 0.856 . S
H1215 O1243 0.854 . S
H1216 C1251 0.930 . S
H1217 C1252 0.930 . S
H1218 C1254 0.930 . S
H1219 C1255 0.930 . S
H1220 C1257 0.931 . S
H1221 C1258 0.930 . S
H1222 C1260 0.930 . S
H1223 C1261 0.929 . S
H1224 C1263 0.930 . S
H1225 C1264 0.931 . S
H1226 C1266 0.930 . S
H1227 C1267 0.929 . S
H1228 C1269 0.931 . S
H1229 C1270 0.930 . S
H1230 C1272 0.930 . S
H1231 C1273 0.932 . S
H1232 C1275 0.930 . S
H1233 C1276 0.929 . S
H1234 C1278 0.931 . S
H1235 C1279 0.930 . S
H1236 C1281 0.929 . S
H1237 C1282 0.931 . S
H1238 C1284 0.930 . S
H1239 C1285 0.929 . S
O1240 H1214 0.856 . S
O1240 C1286 1.300 . S
O1241 C1286 1.209 1_455 S
O1242 C1287 1.199 1_655 S
O1243 H1215 0.854 . S
O1243 C1287 1.297 . S
C1244 C1245 1.404 . S
C1244 C1249 1.396 1_655 S
C1244 C1250 1.492 . S
C1245 C1244 1.404 . S
C1245 C1246 1.396 . S
C1245 C1256 1.492 . S
C1246 C1245 1.396 . S
C1246 C1247 1.397 1_655 S
C1246 C1262 1.509 . S
C1247 C1246 1.397 1_455 S
C1247 C1248 1.400 . S
C1247 C1268 1.485 . S
C1248 C1247 1.400 . S
C1248 C1249 1.410 . S
C1248 C1274 1.485 . S
C1249 C1244 1.396 1_455 S
C1249 C1248 1.410 . S
C1249 C1280 1.516 . S
C1250 C1244 1.492 . S
C1250 C1251 1.363 . S
C1250 C1255 1.390 1_655 S
C1251 H1216 0.930 . S
C1251 C1250 1.363 . S
C1251 C1252 1.372 . S
C1252 H1217 0.930 . S
C1252 C1251 1.372 . S
C1252 C1253 1.383 . S
C1253 C1252 1.383 . S
C1253 C1254 1.395 1_655 S
C1254 H1218 0.930 . S
C1254 C1253 1.395 1_455 S
C1254 C1255 1.362 . S
C1255 H1219 0.930 . S
C1255 C1250 1.390 1_455 S
C1255 C1254 1.362 . S
C1256 C1245 1.492 . S
C1256 C1257 1.377 . S
C1256 C1261 1.397 1_655 S
C1257 H1220 0.931 . S
C1257 C1256 1.377 . S
C1257 C1258 1.376 . S
C1258 H1221 0.930 . S
C1258 C1257 1.376 . S
C1258 C1259 1.376 . S
C1259 C1258 1.376 . S
C1259 C1260 1.378 1_655 S
C1259 C1286 1.486 . S
C1260 H1222 0.930 . S
C1260 C1259 1.378 1_455 S
C1260 C1261 1.376 . S
C1261 H1223 0.929 . S
C1261 C1256 1.397 1_455 S
C1261 C1260 1.376 . S
C1262 C1246 1.509 . S
C1262 C1263 1.391 . S
C1262 C1267 1.386 1_655 S
C1263 H1224 0.930 . S
C1263 C1262 1.391 . S
C1263 C1264 1.375 . S
C1264 H1225 0.931 . S
C1264 C1263 1.375 . S
C1264 C1265 1.375 . S
C1265 C1264 1.375 . S
C1265 C1266 1.361 1_655 S
C1266 H1226 0.930 . S
C1266 C1265 1.361 1_455 S
C1266 C1267 1.399 . S
C1267 H1227 0.929 . S
C1267 C1262 1.386 1_455 S
C1267 C1266 1.399 . S
C1268 C1247 1.485 . S
C1268 C1269 1.394 1_455 S
C1268 C1273 1.360 . S
C1269 H1228 0.931 . S
C1269 C1268 1.394 1_655 S
C1269 C1270 1.372 . S
C1270 H1229 0.930 . S
C1270 C1269 1.372 . S
C1270 C1271 1.397 1_655 S
C1271 C1270 1.397 1_455 S
C1271 C1272 1.390 . S
C1271 C1287 1.476 . S
C1272 H1230 0.930 . S
C1272 C1271 1.390 . S
C1272 C1273 1.366 . S
C1273 H1231 0.932 . S
C1273 C1268 1.360 . S
C1273 C1272 1.366 . S
C1274 C1248 1.485 . S
C1274 C1275 1.380 1_455 S
C1274 C1279 1.386 . S
C1275 H1232 0.930 . S
C1275 C1274 1.380 1_655 S
C1275 C1276 1.381 . S
C1276 H1233 0.929 . S
C1276 C1275 1.381 . S
C1276 C1277 1.351 1_655 S
C1277 C1276 1.351 1_455 S
C1277 C1278 1.411 . S
C1278 H1234 0.931 . S
C1278 C1277 1.411 . S
C1278 C1279 1.387 . S
C1279 H1235 0.930 . S
C1279 C1274 1.386 . S
C1279 C1278 1.387 . S
C1280 C1249 1.516 . S
C1280 C1281 1.377 1_455 S
C1280 C1285 1.361 . S
C1281 H1236 0.929 . S
C1281 C1280 1.377 1_655 S
C1281 C1282 1.386 . S
C1282 H1237 0.931 . S
C1282 C1281 1.386 . S
C1282 C1283 1.363 1_655 S
C1283 C1282 1.363 1_455 S
C1283 C1284 1.385 . S
C1284 H1238 0.930 . S
C1284 C1283 1.385 . S
C1284 C1285 1.396 . S
C1285 H1239 0.929 . S
C1285 C1280 1.361 . S
C1285 C1284 1.396 . S
C1286 O1240 1.300 . S
C1286 O1241 1.209 1_655 S
C1286 C1259 1.486 . S
C1287 O1242 1.199 1_455 S
C1287 O1243 1.297 . S
C1287 C1271 1.476 . S
H1288 O1314 0.856 . S
H1289 O1317 0.854 . S
H1290 C1325 0.930 . S
H1291 C1326 0.930 . S
H1292 C1328 0.930 . S
H1293 C1329 0.930 . S
H1294 C1331 0.931 . S
H1295 C1332 0.930 . S
H1296 C1334 0.930 . S
H1297 C1335 0.929 . S
H1298 C1337 0.930 . S
H1299 C1338 0.931 . S
H1300 C1340 0.930 . S
H1301 C1341 0.929 . S
H1302 C1343 0.931 . S
H1303 C1344 0.930 . S
H1304 C1346 0.930 . S
H1305 C1347 0.932 . S
H1306 C1349 0.930 . S
H1307 C1350 0.929 . S
H1308 C1352 0.931 . S
H1309 C1353 0.930 . S
H1310 C1355 0.929 . S
H1311 C1356 0.931 . S
H1312 C1358 0.930 . S
H1313 C1359 0.929 . S
O1314 H1288 0.856 . S
O1314 C1360 1.300 . S
O1315 C1360 1.209 . S
O1316 C1361 1.199 . S
O1317 H1289 0.854 . S
O1317 C1361 1.297 . S
C1318 C1319 1.404 . S
C1318 C1323 1.397 . S
C1318 C1324 1.492 . S
C1319 C1318 1.404 . S
C1319 C1320 1.396 . S
C1319 C1330 1.492 . S
C1320 C1319 1.396 . S
C1320 C1321 1.397 . S
C1320 C1336 1.509 . S
C1321 C1320 1.397 . S
C1321 C1322 1.412 . S
C1321 C1342 1.485 . S
C1322 C1321 1.412 . S
C1322 C1323 1.388 . S
C1322 C1348 1.490 . S
C1323 C1318 1.397 . S
C1323 C1322 1.388 . S
C1323 C1354 1.519 . S
C1324 C1318 1.492 . S
C1324 C1325 1.363 . S
C1324 C1329 1.390 . S
C1325 H1290 0.930 . S
C1325 C1324 1.363 . S
C1325 C1326 1.372 . S
C1326 H1291 0.930 . S
C1326 C1325 1.372 . S
C1326 C1327 1.383 . S
C1327 C1326 1.383 . S
C1327 C1328 1.395 . S
C1328 H1292 0.930 . S
C1328 C1327 1.395 . S
C1328 C1329 1.362 . S
C1329 H1293 0.930 . S
C1329 C1324 1.390 . S
C1329 C1328 1.362 . S
C1330 C1319 1.492 . S
C1330 C1331 1.377 . S
C1330 C1335 1.397 . S
C1331 H1294 0.931 . S
C1331 C1330 1.377 . S
C1331 C1332 1.376 . S
C1332 H1295 0.930 . S
C1332 C1331 1.376 . S
C1332 C1333 1.376 . S
C1333 C1332 1.376 . S
C1333 C1334 1.378 . S
C1333 C1360 1.486 . S
C1334 H1296 0.930 . S
C1334 C1333 1.378 . S
C1334 C1335 1.376 . S
C1335 H1297 0.929 . S
C1335 C1330 1.397 . S
C1335 C1334 1.376 . S
C1336 C1320 1.509 . S
C1336 C1337 1.391 . S
C1336 C1341 1.386 . S
C1337 H1298 0.930 . S
C1337 C1336 1.391 . S
C1337 C1338 1.375 . S
C1338 H1299 0.931 . S
C1338 C1337 1.375 . S
C1338 C1339 1.375 . S
C1339 C1338 1.375 . S
C1339 C1340 1.361 . S
C1340 H1300 0.930 . S
C1340 C1339 1.361 . S
C1340 C1341 1.399 . S
C1341 H1301 0.929 . S
C1341 C1336 1.386 . S
C1341 C1340 1.399 . S
C1342 C1321 1.485 . S
C1342 C1343 1.394 . S
C1342 C1347 1.360 . S
C1343 H1302 0.931 . S
C1343 C1342 1.394 . S
C1343 C1344 1.372 . S
C1344 H1303 0.930 . S
C1344 C1343 1.372 . S
C1344 C1345 1.397 . S
C1345 C1344 1.397 . S
C1345 C1346 1.390 . S
C1345 C1361 1.476 . S
C1346 H1304 0.930 . S
C1346 C1345 1.390 . S
C1346 C1347 1.366 . S
C1347 H1305 0.932 . S
C1347 C1342 1.360 . S
C1347 C1346 1.366 . S
C1348 C1322 1.490 . S
C1348 C1349 1.380 . S
C1348 C1353 1.386 . S
C1349 H1306 0.930 . S
C1349 C1348 1.380 . S
C1349 C1350 1.381 . S
C1350 H1307 0.929 . S
C1350 C1349 1.381 . S
C1350 C1351 1.371 . S
C1351 C1350 1.371 . S
C1351 C1352 1.380 . S
C1352 H1308 0.931 . S
C1352 C1351 1.380 . S
C1352 C1353 1.387 . S
C1353 H1309 0.930 . S
C1353 C1348 1.386 . S
C1353 C1352 1.387 . S
C1354 C1323 1.519 . S
C1354 C1355 1.377 . S
C1354 C1359 1.361 . S
C1355 H1310 0.929 . S
C1355 C1354 1.377 . S
C1355 C1356 1.386 . S
C1356 H1311 0.931 . S
C1356 C1355 1.386 . S
C1356 C1357 1.363 . S
C1357 C1356 1.363 . S
C1357 C1358 1.385 . S
C1358 H1312 0.930 . S
C1358 C1357 1.385 . S
C1358 C1359 1.396 . S
C1359 H1313 0.929 . S
C1359 C1354 1.361 . S
C1359 C1358 1.396 . S
C1360 O1314 1.300 . S
C1360 O1315 1.209 . S
C1360 C1333 1.486 . S
C1361 O1316 1.199 . S
C1361 O1317 1.297 . S
C1361 C1345 1.476 . S
H1362 O1388 0.856 . S
H1363 O1391 0.854 . S
H1364 C1399 0.930 . S
H1365 C1400 0.930 . S
H1366 C1402 0.930 . S
H1367 C1403 0.930 . S
H1368 C1405 0.931 . S
H1369 C1406 0.930 . S
H1370 C1408 0.930 . S
H1371 C1409 0.929 . S
H1372 C1411 0.930 . S
H1373 C1412 0.931 . S
H1374 C1414 0.930 . S
H1375 C1415 0.929 . S
H1376 C1417 0.931 . S
H1377 C1418 0.930 . S
H1378 C1420 0.930 . S
H1379 C1421 0.932 . S
H1380 C1423 0.930 . S
H1381 C1424 0.929 . S
H1382 C1426 0.931 . S
H1383 C1427 0.930 . S
H1384 C1429 0.929 . S
H1385 C1430 0.931 . S
H1386 C1432 0.930 . S
H1387 C1433 0.929 . S
O1388 H1362 0.856 . S
O1388 C1434 1.300 . S
O1389 C1434 1.209 . S
O1390 C1435 1.199 . S
O1391 H1363 0.854 . S
O1391 C1435 1.297 . S
C1392 C1393 1.404 . S
C1392 C1397 1.397 . S
C1392 C1398 1.492 . S
C1393 C1392 1.404 . S
C1393 C1394 1.396 . S
C1393 C1404 1.492 . S
C1394 C1393 1.396 . S
C1394 C1395 1.397 . S
C1394 C1410 1.509 . S
C1395 C1394 1.397 . S
C1395 C1396 1.412 . S
C1395 C1416 1.485 . S
C1396 C1395 1.412 . S
C1396 C1397 1.388 . S
C1396 C1422 1.490 . S
C1397 C1392 1.397 . S
C1397 C1396 1.388 . S
C1397 C1428 1.519 . S
C1398 C1392 1.492 . S
C1398 C1399 1.363 . S
C1398 C1403 1.390 . S
C1399 H1364 0.930 . S
C1399 C1398 1.363 . S
C1399 C1400 1.372 . S
C1400 H1365 0.930 . S
C1400 C1399 1.372 . S
C1400 C1401 1.383 . S
C1401 C1400 1.383 . S
C1401 C1402 1.395 . S
C1402 H1366 0.930 . S
C1402 C1401 1.395 . S
C1402 C1403 1.362 . S
C1403 H1367 0.930 . S
C1403 C1398 1.390 . S
C1403 C1402 1.362 . S
C1404 C1393 1.492 . S
C1404 C1405 1.377 . S
C1404 C1409 1.397 . S
C1405 H1368 0.931 . S
C1405 C1404 1.377 . S
C1405 C1406 1.376 . S
C1406 H1369 0.930 . S
C1406 C1405 1.376 . S
C1406 C1407 1.376 . S
C1407 C1406 1.376 . S
C1407 C1408 1.378 . S
C1407 C1434 1.486 . S
C1408 H1370 0.930 . S
C1408 C1407 1.378 . S
C1408 C1409 1.376 . S
C1409 H1371 0.929 . S
C1409 C1404 1.397 . S
C1409 C1408 1.376 . S
C1410 C1394 1.509 . S
C1410 C1411 1.391 . S
C1410 C1415 1.386 . S
C1411 H1372 0.930 . S
C1411 C1410 1.391 . S
C1411 C1412 1.375 . S
C1412 H1373 0.931 . S
C1412 C1411 1.375 . S
C1412 C1413 1.375 . S
C1413 C1412 1.375 . S
C1413 C1414 1.361 . S
C1414 H1374 0.930 . S
C1414 C1413 1.361 . S
C1414 C1415 1.399 . S
C1415 H1375 0.929 . S
C1415 C1410 1.386 . S
C1415 C1414 1.399 . S
C1416 C1395 1.485 . S
C1416 C1417 1.394 . S
C1416 C1421 1.360 . S
C1417 H1376 0.931 . S
C1417 C1416 1.394 . S
C1417 C1418 1.372 . S
C1418 H1377 0.930 . S
C1418 C1417 1.372 . S
C1418 C1419 1.397 . S
C1419 C1418 1.397 . S
C1419 C1420 1.390 . S
C1419 C1435 1.476 . S
C1420 H1378 0.930 . S
C1420 C1419 1.390 . S
C1420 C1421 1.366 . S
C1421 H1379 0.932 . S
C1421 C1416 1.360 . S
C1421 C1420 1.366 . S
C1422 C1396 1.490 . S
C1422 C1423 1.380 . S
C1422 C1427 1.386 . S
C1423 H1380 0.930 . S
C1423 C1422 1.380 . S
C1423 C1424 1.381 . S
C1424 H1381 0.929 . S
C1424 C1423 1.381 . S
C1424 C1425 1.371 . S
C1425 C1424 1.371 . S
C1425 C1426 1.380 . S
C1426 H1382 0.931 . S
C1426 C1425 1.380 . S
C1426 C1427 1.387 . S
C1427 H1383 0.930 . S
C1427 C1422 1.386 . S
C1427 C1426 1.387 . S
C1428 C1397 1.519 . S
C1428 C1429 1.377 . S
C1428 C1433 1.361 . S
C1429 H1384 0.929 . S
C1429 C1428 1.377 . S
C1429 C1430 1.386 . S
C1430 H1385 0.931 . S
C1430 C1429 1.386 . S
C1430 C1431 1.363 . S
C1431 C1430 1.363 . S
C1431 C1432 1.385 . S
C1432 H1386 0.930 . S
C1432 C1431 1.385 . S
C1432 C1433 1.396 . S
C1433 H1387 0.929 . S
C1433 C1428 1.361 . S
C1433 C1432 1.396 . S
C1434 O1388 1.300 . S
C1434 O1389 1.209 . S
C1434 C1407 1.486 . S
C1435 O1390 1.199 . S
C1435 O1391 1.297 . S
C1435 C1419 1.476 . S
H1436 O1462 0.856 . S
H1437 O1465 0.854 . S
H1438 C1473 0.930 . S
H1439 C1474 0.930 . S
H1440 C1476 0.930 . S
H1441 C1477 0.930 . S
H1442 C1479 0.931 . S
H1443 C1480 0.930 . S
H1444 C1482 0.930 . S
H1445 C1483 0.929 . S
H1446 C1485 0.930 . S
H1447 C1486 0.931 . S
H1448 C1488 0.930 . S
H1449 C1489 0.929 . S
H1450 C1491 0.931 . S
H1451 C1492 0.930 . S
H1452 C1494 0.930 . S
H1453 C1495 0.932 . S
H1454 C1497 0.930 . S
H1455 C1498 0.929 . S
H1456 C1500 0.931 . S
H1457 C1501 0.930 . S
H1458 C1503 0.929 . S
H1459 C1504 0.931 . S
H1460 C1506 0.930 . S
H1461 C1507 0.929 . S
O1462 H1436 0.856 . S
O1462 C1508 1.300 . S
O1463 C1508 1.209 . S
O1464 C1509 1.199 . S
O1465 H1437 0.854 . S
O1465 C1509 1.297 . S
C1466 C1467 1.404 . S
C1466 C1471 1.397 . S
C1466 C1472 1.492 . S
C1467 C1466 1.404 . S
C1467 C1468 1.396 . S
C1467 C1478 1.492 . S
C1468 C1467 1.396 . S
C1468 C1469 1.397 . S
C1468 C1484 1.509 . S
C1469 C1468 1.397 . S
C1469 C1470 1.412 . S
C1469 C1490 1.485 . S
C1470 C1469 1.412 . S
C1470 C1471 1.388 . S
C1470 C1496 1.490 . S
C1471 C1466 1.397 . S
C1471 C1470 1.388 . S
C1471 C1502 1.519 . S
C1472 C1466 1.492 . S
C1472 C1473 1.363 . S
C1472 C1477 1.390 . S
C1473 H1438 0.930 . S
C1473 C1472 1.363 . S
C1473 C1474 1.372 . S
C1474 H1439 0.930 . S
C1474 C1473 1.372 . S
C1474 C1475 1.383 . S
C1475 C1474 1.383 . S
C1475 C1476 1.395 . S
C1476 H1440 0.930 . S
C1476 C1475 1.395 . S
C1476 C1477 1.362 . S
C1477 H1441 0.930 . S
C1477 C1472 1.390 . S
C1477 C1476 1.362 . S
C1478 C1467 1.492 . S
C1478 C1479 1.377 . S
C1478 C1483 1.397 . S
C1479 H1442 0.931 . S
C1479 C1478 1.377 . S
C1479 C1480 1.376 . S
C1480 H1443 0.930 . S
C1480 C1479 1.376 . S
C1480 C1481 1.376 . S
C1481 C1480 1.376 . S
C1481 C1482 1.378 . S
C1481 C1508 1.486 . S
C1482 H1444 0.930 . S
C1482 C1481 1.378 . S
C1482 C1483 1.376 . S
C1483 H1445 0.929 . S
C1483 C1478 1.397 . S
C1483 C1482 1.376 . S
C1484 C1468 1.509 . S
C1484 C1485 1.391 . S
C1484 C1489 1.386 . S
C1485 H1446 0.930 . S
C1485 C1484 1.391 . S
C1485 C1486 1.375 . S
C1486 H1447 0.931 . S
C1486 C1485 1.375 . S
C1486 C1487 1.375 . S
C1487 C1486 1.375 . S
C1487 C1488 1.361 . S
C1488 H1448 0.930 . S
C1488 C1487 1.361 . S
C1488 C1489 1.399 . S
C1489 H1449 0.929 . S
C1489 C1484 1.386 . S
C1489 C1488 1.399 . S
C1490 C1469 1.485 . S
C1490 C1491 1.394 . S
C1490 C1495 1.360 . S
C1491 H1450 0.931 . S
C1491 C1490 1.394 . S
C1491 C1492 1.372 . S
C1492 H1451 0.930 . S
C1492 C1491 1.372 . S
C1492 C1493 1.397 . S
C1493 C1492 1.397 . S
C1493 C1494 1.390 . S
C1493 C1509 1.476 . S
C1494 H1452 0.930 . S
C1494 C1493 1.390 . S
C1494 C1495 1.366 . S
C1495 H1453 0.932 . S
C1495 C1490 1.360 . S
C1495 C1494 1.366 . S
C1496 C1470 1.490 . S
C1496 C1497 1.380 . S
C1496 C1501 1.386 . S
C1497 H1454 0.930 . S
C1497 C1496 1.380 . S
C1497 C1498 1.381 . S
C1498 H1455 0.929 . S
C1498 C1497 1.381 . S
C1498 C1499 1.371 . S
C1499 C1498 1.371 . S
C1499 C1500 1.380 . S
C1500 H1456 0.931 . S
C1500 C1499 1.380 . S
C1500 C1501 1.387 . S
C1501 H1457 0.930 . S
C1501 C1496 1.386 . S
C1501 C1500 1.387 . S
C1502 C1471 1.519 . S
C1502 C1503 1.377 . S
C1502 C1507 1.361 . S
C1503 H1458 0.929 . S
C1503 C1502 1.377 . S
C1503 C1504 1.386 . S
C1504 H1459 0.931 . S
C1504 C1503 1.386 . S
C1504 C1505 1.363 . S
C1505 C1504 1.363 . S
C1505 C1506 1.385 . S
C1506 H1460 0.930 . S
C1506 C1505 1.385 . S
C1506 C1507 1.396 . S
C1507 H1461 0.929 . S
C1507 C1502 1.361 . S
C1507 C1506 1.396 . S
C1508 O1462 1.300 . S
C1508 O1463 1.209 . S
C1508 C1481 1.486 . S
C1509 O1464 1.199 . S
C1509 O1465 1.297 . S
C1509 C1493 1.476 . S
H1510 O1536 0.856 . S
H1511 O1539 0.854 . S
H1512 C1547 0.930 . S
H1513 C1548 0.930 . S
H1514 C1550 0.930 . S
H1515 C1551 0.930 . S
H1516 C1553 0.931 . S
H1517 C1554 0.930 . S
H1518 C1556 0.930 . S
H1519 C1557 0.929 . S
H1520 C1559 0.930 . S
H1521 C1560 0.931 . S
H1522 C1562 0.930 . S
H1523 C1563 0.929 . S
H1524 C1565 0.931 . S
H1525 C1566 0.930 . S
H1526 C1568 0.930 . S
H1527 C1569 0.932 . S
H1528 C1571 0.930 . S
H1529 C1572 0.929 . S
H1530 C1574 0.931 . S
H1531 C1575 0.930 . S
H1532 C1577 0.929 . S
H1533 C1578 0.931 . S
H1534 C1580 0.930 . S
H1535 C1581 0.929 . S
O1536 H1510 0.856 . S
O1536 C1582 1.300 . S
O1537 C1582 1.209 . S
O1538 C1583 1.199 . S
O1539 H1511 0.854 . S
O1539 C1583 1.297 . S
C1540 C1541 1.404 . S
C1540 C1545 1.397 . S
C1540 C1546 1.492 . S
C1541 C1540 1.404 . S
C1541 C1542 1.396 . S
C1541 C1552 1.492 . S
C1542 C1541 1.396 . S
C1542 C1543 1.397 . S
C1542 C1558 1.509 . S
C1543 C1542 1.397 . S
C1543 C1544 1.412 . S
C1543 C1564 1.485 . S
C1544 C1543 1.412 . S
C1544 C1545 1.388 . S
C1544 C1570 1.490 . S
C1545 C1540 1.397 . S
C1545 C1544 1.388 . S
C1545 C1576 1.519 . S
C1546 C1540 1.492 . S
C1546 C1547 1.363 . S
C1546 C1551 1.390 . S
C1547 H1512 0.930 . S
C1547 C1546 1.363 . S
C1547 C1548 1.372 . S
C1548 H1513 0.930 . S
C1548 C1547 1.372 . S
C1548 C1549 1.383 . S
C1549 C1548 1.383 . S
C1549 C1550 1.395 . S
C1550 H1514 0.930 . S
C1550 C1549 1.395 . S
C1550 C1551 1.362 . S
C1551 H1515 0.930 . S
C1551 C1546 1.390 . S
C1551 C1550 1.362 . S
C1552 C1541 1.492 . S
C1552 C1553 1.377 . S
C1552 C1557 1.397 . S
C1553 H1516 0.931 . S
C1553 C1552 1.377 . S
C1553 C1554 1.376 . S
C1554 H1517 0.930 . S
C1554 C1553 1.376 . S
C1554 C1555 1.376 . S
C1555 C1554 1.376 . S
C1555 C1556 1.378 . S
C1555 C1582 1.486 . S
C1556 H1518 0.930 . S
C1556 C1555 1.378 . S
C1556 C1557 1.376 . S
C1557 H1519 0.929 . S
C1557 C1552 1.397 . S
C1557 C1556 1.376 . S
C1558 C1542 1.509 . S
C1558 C1559 1.391 . S
C1558 C1563 1.386 . S
C1559 H1520 0.930 . S
C1559 C1558 1.391 . S
C1559 C1560 1.375 . S
C1560 H1521 0.931 . S
C1560 C1559 1.375 . S
C1560 C1561 1.375 . S
C1561 C1560 1.375 . S
C1561 C1562 1.361 . S
C1562 H1522 0.930 . S
C1562 C1561 1.361 . S
C1562 C1563 1.399 . S
C1563 H1523 0.929 . S
C1563 C1558 1.386 . S
C1563 C1562 1.399 . S
C1564 C1543 1.485 . S
C1564 C1565 1.394 . S
C1564 C1569 1.360 . S
C1565 H1524 0.931 . S
C1565 C1564 1.394 . S
C1565 C1566 1.372 . S
C1566 H1525 0.930 . S
C1566 C1565 1.372 . S
C1566 C1567 1.397 . S
C1567 C1566 1.397 . S
C1567 C1568 1.390 . S
C1567 C1583 1.476 . S
C1568 H1526 0.930 . S
C1568 C1567 1.390 . S
C1568 C1569 1.366 . S
C1569 H1527 0.932 . S
C1569 C1564 1.360 . S
C1569 C1568 1.366 . S
C1570 C1544 1.490 . S
C1570 C1571 1.380 . S
C1570 C1575 1.386 . S
C1571 H1528 0.930 . S
C1571 C1570 1.380 . S
C1571 C1572 1.381 . S
C1572 H1529 0.929 . S
C1572 C1571 1.381 . S
C1572 C1573 1.371 . S
C1573 C1572 1.371 . S
C1573 C1574 1.380 . S
C1574 H1530 0.931 . S
C1574 C1573 1.380 . S
C1574 C1575 1.387 . S
C1575 H1531 0.930 . S
C1575 C1570 1.386 . S
C1575 C1574 1.387 . S
C1576 C1545 1.519 . S
C1576 C1577 1.377 . S
C1576 C1581 1.361 . S
C1577 H1532 0.929 . S
C1577 C1576 1.377 . S
C1577 C1578 1.386 . S
C1578 H1533 0.931 . S
C1578 C1577 1.386 . S
C1578 C1579 1.363 . S
C1579 C1578 1.363 . S
C1579 C1580 1.385 . S
C1580 H1534 0.930 . S
C1580 C1579 1.385 . S
C1580 C1581 1.396 . S
C1581 H1535 0.929 . S
C1581 C1576 1.361 . S
C1581 C1580 1.396 . S
C1582 O1536 1.300 . S
C1582 O1537 1.209 . S
C1582 C1555 1.486 . S
C1583 O1538 1.199 . S
C1583 O1539 1.297 . S
C1583 C1567 1.476 . S
C1584 C1585 1.374 1_455 S
C1584 C1586 1.394 . S
C1584 H1600 0.931 . S
C1585 C1584 1.374 1_655 S
C1585 C1589 1.415 . S
C1586 C1584 1.394 . S
C1586 C1587 1.369 1_455 S
C1586 C1590 1.531 . S
C1587 C1586 1.369 1_655 S
C1587 C1588 1.410 . S
C1587 C1595 1.503 . S
C1588 C1587 1.410 . S
C1588 C1589 1.392 . S
C1588 C1591 1.511 . S
C1589 C1585 1.415 . S
C1589 C1588 1.392 . S
C1589 H1601 0.929 . S
C1590 C1586 1.531 . S
C1590 H1602 0.960 . S
C1590 H1603 0.962 . S
C1590 H1604 0.960 . S
C1591 C1588 1.511 . S
C1591 H1605 0.961 . S
C1591 H1606 0.961 . S
C1591 H1607 0.961 . S
C1592 C1593 1.370 . S
C1592 C1594 1.363 . S
C1592 H1608 0.931 . S
C1593 C1592 1.370 . S
C1593 C1597 1.408 . S
C1594 C1592 1.363 . S
C1594 C1595 1.370 . S
C1594 C1598 1.524 . S
C1595 C1587 1.503 . S
C1595 C1594 1.370 . S
C1595 C1596 1.403 . S
C1596 C1595 1.403 . S
C1596 C1597 1.404 . S
C1596 C1599 1.539 . S
C1597 C1593 1.408 . S
C1597 C1596 1.404 . S
C1597 H1609 0.930 . S
C1598 C1594 1.524 . S
C1598 H1610 0.956 . S
C1598 H1611 0.961 . S
C1598 H1612 0.961 . S
C1599 C1596 1.539 . S
C1599 H1613 0.958 1_655 S
C1599 H1614 0.961 . S
C1599 H1615 0.960 . S
H1600 C1584 0.931 . S
H1601 C1589 0.929 . S
H1602 C1590 0.960 . S
H1603 C1590 0.962 . S
H1604 C1590 0.960 . S
H1605 C1591 0.961 . S
H1606 C1591 0.961 . S
H1607 C1591 0.961 . S
H1608 C1592 0.931 . S
H1609 C1597 0.930 . S
H1610 C1598 0.956 . S
H1611 C1598 0.961 . S
H1612 C1598 0.961 . S
H1613 C1599 0.958 1_455 S
H1614 C1599 0.961 . S
H1615 C1599 0.960 . S
C1616 C1617 1.391 . S
C1616 C1618 1.394 . S
C1616 H1632 0.931 . S
C1617 C1616 1.391 . S
C1617 C1621 1.376 . S
C1618 C1616 1.394 . S
C1618 C1619 1.369 . S
C1618 C1622 1.531 . S
C1619 C1618 1.369 . S
C1619 C1620 1.410 . S
C1619 C1627 1.503 . S
C1620 C1619 1.410 . S
C1620 C1621 1.392 . S
C1620 C1623 1.511 . S
C1621 C1617 1.376 . S
C1621 C1620 1.392 . S
C1621 H1633 0.929 . S
C1622 C1618 1.531 . S
C1622 H1634 0.960 . S
C1622 H1635 0.962 . S
C1622 H1636 0.960 . S
C1623 C1620 1.511 . S
C1623 H1637 0.961 . S
C1623 H1638 0.961 . S
C1623 H1639 0.961 . S
C1624 C1625 1.370 . S
C1624 C1626 1.363 . S
C1624 H1640 0.931 . S
C1625 C1624 1.370 . S
C1625 C1629 1.408 . S
C1626 C1624 1.363 . S
C1626 C1627 1.370 . S
C1626 C1630 1.524 . S
C1627 C1619 1.503 . S
C1627 C1626 1.370 . S
C1627 C1628 1.403 . S
C1628 C1627 1.403 . S
C1628 C1629 1.404 . S
C1628 C1631 1.539 . S
C1629 C1625 1.408 . S
C1629 C1628 1.404 . S
C1629 H1641 0.930 . S
C1630 C1626 1.524 . S
C1630 H1642 0.956 . S
C1630 H1643 0.961 . S
C1630 H1644 0.961 . S
C1631 C1628 1.539 . S
C1631 H1645 0.958 . S
C1631 H1646 0.961 . S
C1631 H1647 0.960 . S
H1632 C1616 0.931 . S
H1633 C1621 0.929 . S
H1634 C1622 0.960 . S
H1635 C1622 0.962 . S
H1636 C1622 0.960 . S
H1637 C1623 0.961 . S
H1638 C1623 0.961 . S
H1639 C1623 0.961 . S
H1640 C1624 0.931 . S
H1641 C1629 0.930 . S
H1642 C1630 0.956 . S
H1643 C1630 0.961 . S
H1644 C1630 0.961 . S
H1645 C1631 0.958 . S
H1646 C1631 0.961 . S
H1647 C1631 0.960 . S
C1648 C1649 1.391 1_565 S
C1648 C1650 1.394 . S
C1648 H1664 0.931 . S
C1649 C1648 1.391 1_545 S
C1649 C1653 1.376 . S
C1650 C1648 1.394 . S
C1650 C1651 1.369 1_565 S
C1650 C1654 1.531 . S
C1651 C1650 1.369 1_545 S
C1651 C1652 1.410 . S
C1651 C1659 1.503 . S
C1652 C1651 1.410 . S
C1652 C1653 1.392 . S
C1652 C1655 1.511 . S
C1653 C1649 1.376 . S
C1653 C1652 1.392 . S
C1653 H1665 0.929 . S
C1654 C1650 1.531 . S
C1654 H1666 0.960 . S
C1654 H1667 0.962 . S
C1654 H1668 0.960 . S
C1655 C1652 1.511 . S
C1655 H1669 0.961 . S
C1655 H1670 0.961 . S
C1655 H1671 0.961 . S
C1656 C1657 1.370 . S
C1656 C1658 1.363 . S
C1656 H1672 0.931 . S
C1657 C1656 1.370 . S
C1657 C1661 1.408 . S
C1658 C1656 1.363 . S
C1658 C1659 1.370 . S
C1658 C1662 1.524 . S
C1659 C1651 1.503 . S
C1659 C1658 1.370 . S
C1659 C1660 1.403 1_545 S
C1660 C1659 1.403 1_565 S
C1660 C1661 1.404 1_565 S
C1660 C1663 1.539 . S
C1661 C1657 1.408 . S
C1661 C1660 1.404 1_545 S
C1661 H1673 0.930 1_545 S
C1662 C1658 1.524 . S
C1662 H1674 0.956 . S
C1662 H1675 0.961 . S
C1662 H1676 0.961 . S
C1663 C1660 1.539 . S
C1663 H1677 0.958 . S
C1663 H1678 0.961 . S
C1663 H1679 0.960 . S
H1664 C1648 0.931 . S
H1665 C1653 0.929 . S
H1666 C1654 0.960 . S
H1667 C1654 0.962 . S
H1668 C1654 0.960 . S
H1669 C1655 0.961 . S
H1670 C1655 0.961 . S
H1671 C1655 0.961 . S
H1672 C1656 0.931 . S
H1673 C1661 0.930 1_565 S
H1674 C1662 0.956 . S
H1675 C1662 0.961 . S
H1676 C1662 0.961 . S
H1677 C1663 0.958 . S
H1678 C1663 0.961 . S
H1679 C1663 0.960 . S
C1680 C1681 1.391 . S
C1680 C1682 1.394 . S
C1680 H1696 0.931 . S
C1681 C1680 1.391 . S
C1681 C1685 1.376 . S
C1682 C1680 1.394 . S
C1682 C1683 1.369 . S
C1682 C1686 1.531 . S
C1683 C1682 1.369 . S
C1683 C1684 1.410 . S
C1683 C1691 1.503 . S
C1684 C1683 1.410 . S
C1684 C1685 1.392 . S
C1684 C1687 1.511 . S
C1685 C1681 1.376 . S
C1685 C1684 1.392 . S
C1685 H1697 0.929 . S
C1686 C1682 1.531 . S
C1686 H1698 0.960 . S
C1686 H1699 0.962 1_565 S
C1686 H1700 0.960 . S
C1687 C1684 1.511 . S
C1687 H1701 0.961 . S
C1687 H1702 0.961 . S
C1687 H1703 0.961 . S
C1688 C1689 1.370 1_545 S
C1688 C1690 1.363 . S
C1688 H1704 0.931 . S
C1689 C1688 1.370 1_565 S
C1689 C1693 1.408 . S
C1690 C1688 1.363 . S
C1690 C1691 1.370 1_545 S
C1690 C1694 1.524 . S
C1691 C1683 1.503 . S
C1691 C1690 1.370 1_565 S
C1691 C1692 1.403 . S
C1692 C1691 1.403 . S
C1692 C1693 1.404 . S
C1692 C1695 1.539 . S
C1693 C1689 1.408 . S
C1693 C1692 1.404 . S
C1693 H1705 0.930 . S
C1694 C1690 1.524 . S
C1694 H1706 0.956 . S
C1694 H1707 0.961 . S
C1694 H1708 0.961 . S
C1695 C1692 1.539 . S
C1695 H1709 0.958 . S
C1695 H1710 0.961 . S
C1695 H1711 0.960 . S
H1696 C1680 0.931 . S
H1697 C1685 0.929 . S
H1698 C1686 0.960 . S
H1699 C1686 0.962 1_545 S
H1700 C1686 0.960 . S
H1701 C1687 0.961 . S
H1702 C1687 0.961 . S
H1703 C1687 0.961 . S
H1704 C1688 0.931 . S
H1705 C1693 0.930 . S
H1706 C1694 0.956 . S
H1707 C1694 0.961 . S
H1708 C1694 0.961 . S
H1709 C1695 0.958 . S
H1710 C1695 0.961 . S
H1711 C1695 0.960 . S
C1712 C1713 1.391 1_655 S
C1712 C1714 1.396 1_655 S
C1712 H1728 0.942 . S
C1713 C1712 1.391 1_455 S
C1713 C1717 1.376 . S
C1714 C1712 1.396 1_455 S
C1714 C1715 1.374 . S
C1714 C1718 1.524 1_455 S
C1715 C1714 1.374 . S
C1715 C1716 1.410 . S
C1715 C1723 1.503 . S
C1716 C1715 1.410 . S
C1716 C1717 1.392 . S
C1716 C1719 1.511 . S
C1717 C1713 1.376 . S
C1717 C1716 1.392 . S
C1717 H1729 0.929 . S
C1718 C1714 1.524 1_655 S
C1718 H1730 0.960 . S
C1718 H1731 0.962 . S
C1718 H1732 0.960 . S
C1719 C1716 1.511 . S
C1719 H1733 0.961 . S
C1719 H1734 0.961 . S
C1719 H1735 0.961 . S
C1720 C1721 1.370 1_655 S
C1720 C1722 1.363 . S
C1720 H1736 0.931 . S
C1721 C1720 1.370 1_455 S
C1721 C1725 1.408 . S
C1722 C1720 1.363 . S
C1722 C1723 1.370 1_655 S
C1722 C1726 1.524 . S
C1723 C1715 1.503 . S
C1723 C1722 1.370 1_455 S
C1723 C1724 1.403 . S
C1724 C1723 1.403 . S
C1724 C1725 1.404 . S
C1724 C1727 1.539 . S
C1725 C1721 1.408 . S
C1725 C1724 1.404 . S
C1725 H1737 0.930 . S
C1726 C1722 1.524 . S
C1726 H1738 0.956 . S
C1726 H1739 0.961 . S
C1726 H1740 0.961 . S
C1727 C1724 1.539 . S
C1727 H1741 0.958 . S
C1727 H1742 0.961 . S
C1727 H1743 0.960 . S
H1728 C1712 0.942 . S
H1729 C1717 0.929 . S
H1730 C1718 0.960 . S
H1731 C1718 0.962 . S
H1732 C1718 0.960 . S
H1733 C1719 0.961 . S
H1734 C1719 0.961 . S
H1735 C1719 0.961 . S
H1736 C1720 0.931 . S
H1737 C1725 0.930 . S
H1738 C1726 0.956 . S
H1739 C1726 0.961 . S
H1740 C1726 0.961 . S
H1741 C1727 0.958 . S
H1742 C1727 0.961 . S
H1743 C1727 0.960 . S
C1744 C1745 1.391 . S
C1744 C1746 1.356 1_554 S
C1744 H1760 0.931 . S
C1745 C1744 1.391 . S
C1745 C1749 1.376 . S
C1746 C1744 1.356 1_556 S
C1746 C1747 1.405 . S
C1746 C1750 1.534 . S
C1747 C1746 1.405 . S
C1747 C1748 1.410 . S
C1747 C1755 1.503 . S
C1748 C1747 1.410 . S
C1748 C1749 1.392 1_556 S
C1748 C1751 1.511 . S
C1749 C1745 1.376 . S
C1749 C1748 1.392 1_554 S
C1749 H1761 0.929 . S
C1750 C1746 1.534 . S
C1750 H1762 0.960 . S
C1750 H1763 0.962 1_556 S
C1750 H1764 0.960 1_556 S
C1751 C1748 1.511 . S
C1751 H1765 0.961 . S
C1751 H1766 0.961 . S
C1751 H1767 0.961 . S
C1752 C1753 1.370 . S
C1752 C1754 1.363 . S
C1752 H1768 0.931 . S
C1753 C1752 1.370 . S
C1753 C1757 1.408 . S
C1754 C1752 1.363 . S
C1754 C1755 1.370 . S
C1754 C1758 1.524 . S
C1755 C1747 1.503 . S
C1755 C1754 1.370 . S
C1755 C1756 1.403 . S
C1756 C1755 1.403 . S
C1756 C1757 1.404 . S
C1756 C1759 1.539 . S
C1757 C1753 1.408 . S
C1757 C1756 1.404 . S
C1757 H1769 0.930 . S
C1758 C1754 1.524 . S
C1758 H1770 0.956 . S
C1758 H1771 0.961 . S
C1758 H1772 0.961 . S
C1759 C1756 1.539 . S
C1759 H1773 0.958 . S
C1759 H1774 0.961 . S
C1759 H1775 0.960 . S
H1760 C1744 0.931 . S
H1761 C1749 0.929 . S
H1762 C1750 0.960 . S
H1763 C1750 0.962 1_554 S
H1764 C1750 0.960 1_554 S
H1765 C1751 0.961 . S
H1766 C1751 0.961 . S
H1767 C1751 0.961 . S
H1768 C1752 0.931 . S
H1769 C1757 0.930 . S
H1770 C1758 0.956 . S
H1771 C1758 0.961 . S
H1772 C1758 0.961 . S
H1773 C1759 0.958 . S
H1774 C1759 0.961 . S
H1775 C1759 0.960 . S
C1776 C1777 1.391 1_656 S
C1776 C1778 1.394 . S
C1776 H1792 0.931 . S
C1777 C1776 1.391 1_454 S
C1777 C1781 1.376 . S
C1778 C1776 1.394 . S
C1778 C1779 1.369 1_655 S
C1778 C1782 1.531 . S
C1779 C1778 1.369 1_455 S
C1779 C1780 1.410 . S
C1779 C1787 1.503 . S
C1780 C1779 1.410 . S
C1780 C1781 1.392 1_556 S
C1780 C1783 1.511 1_556 S
C1781 C1777 1.376 . S
C1781 C1780 1.392 1_554 S
C1781 H1793 0.929 . S
C1782 C1778 1.531 . S
C1782 H1794 0.960 . S
C1782 H1795 0.962 . S
C1782 H1796 0.960 . S
C1783 C1780 1.511 1_554 S
C1783 H1797 0.961 . S
C1783 H1798 0.961 1_554 S
C1783 H1799 0.961 . S
C1784 C1785 1.370 1_655 S
C1784 C1786 1.363 . S
C1784 H1800 0.931 . S
C1785 C1784 1.370 1_455 S
C1785 C1789 1.408 . S
C1786 C1784 1.363 . S
C1786 C1787 1.370 1_655 S
C1786 C1790 1.524 . S
C1787 C1779 1.503 . S
C1787 C1786 1.370 1_455 S
C1787 C1788 1.403 . S
C1788 C1787 1.403 . S
C1788 C1789 1.404 . S
C1788 C1791 1.539 . S
C1789 C1785 1.408 . S
C1789 C1788 1.404 . S
C1789 H1801 0.930 . S
C1790 C1786 1.524 . S
C1790 H1802 0.956 . S
C1790 H1803 0.961 . S
C1790 H1804 0.961 . S
C1791 C1788 1.539 . S
C1791 H1805 0.958 . S
C1791 H1806 0.961 . S
C1791 H1807 0.960 . S
H1792 C1776 0.931 . S
H1793 C1781 0.929 . S
H1794 C1782 0.960 . S
H1795 C1782 0.962 . S
H1796 C1782 0.960 . S
H1797 C1783 0.961 . S
H1798 C1783 0.961 1_556 S
H1799 C1783 0.961 . S
H1800 C1784 0.931 . S
H1801 C1789 0.930 . S
H1802 C1790 0.956 . S
H1803 C1790 0.961 . S
H1804 C1790 0.961 . S
H1805 C1791 0.958 . S
H1806 C1791 0.961 . S
H1807 C1791 0.960 . S
C1808 C1809 1.391 . S
C1808 C1810 1.394 . S
C1808 H1824 0.931 . S
C1809 C1808 1.391 . S
C1809 C1813 1.376 . S
C1810 C1808 1.394 . S
C1810 C1811 1.369 . S
C1810 C1814 1.531 . S
C1811 C1810 1.369 . S
C1811 C1812 1.410 . S
C1811 C1819 1.503 . S
C1812 C1811 1.410 . S
C1812 C1813 1.392 . S
C1812 C1815 1.511 . S
C1813 C1809 1.376 . S
C1813 C1812 1.392 . S
C1813 H1825 0.929 . S
C1814 C1810 1.531 . S
C1814 H1826 0.960 . S
C1814 H1827 0.962 . S
C1814 H1828 0.960 . S
C1815 C1812 1.511 . S
C1815 H1829 0.961 . S
C1815 H1830 0.961 . S
C1815 H1831 0.961 . S
C1816 C1817 1.370 . S
C1816 C1818 1.363 . S
C1816 H1832 0.931 . S
C1817 C1816 1.370 . S
C1817 C1821 1.408 . S
C1818 C1816 1.363 . S
C1818 C1819 1.370 . S
C1818 C1822 1.524 . S
C1819 C1811 1.503 . S
C1819 C1818 1.370 . S
C1819 C1820 1.403 . S
C1820 C1819 1.403 . S
C1820 C1821 1.404 . S
C1820 C1823 1.539 . S
C1821 C1817 1.408 . S
C1821 C1820 1.404 . S
C1821 H1833 0.930 . S
C1822 C1818 1.524 . S
C1822 H1834 0.956 . S
C1822 H1835 0.961 . S
C1822 H1836 0.961 . S
C1823 C1820 1.539 . S
C1823 H1837 0.958 . S
C1823 H1838 0.961 . S
C1823 H1839 0.960 . S
H1824 C1808 0.931 . S
H1825 C1813 0.929 . S
H1826 C1814 0.960 . S
H1827 C1814 0.962 . S
H1828 C1814 0.960 . S
H1829 C1815 0.961 . S
H1830 C1815 0.961 . S
H1831 C1815 0.961 . S
H1832 C1816 0.931 . S
H1833 C1821 0.930 . S
H1834 C1822 0.956 . S
H1835 C1822 0.961 . S
H1836 C1822 0.961 . S
H1837 C1823 0.958 . S
H1838 C1823 0.961 . S
H1839 C1823 0.960 . S
C1840 C1841 1.391 . S
C1840 C1842 1.394 1_554 S
C1840 H1856 0.931 . S
C1841 C1840 1.391 . S
C1841 C1845 1.376 1_564 S
C1842 C1840 1.394 1_556 S
C1842 C1843 1.369 1_565 S
C1842 C1846 1.531 . S
C1843 C1842 1.369 1_545 S
C1843 C1844 1.410 . S
C1843 C1851 1.503 . S
C1844 C1843 1.410 . S
C1844 C1845 1.392 . S
C1844 C1847 1.511 . S
C1845 C1841 1.376 1_546 S
C1845 C1844 1.392 . S
C1845 H1857 0.929 . S
C1846 C1842 1.531 . S
C1846 H1858 0.960 1_565 S
C1846 H1859 0.962 . S
C1846 H1860 0.969 1_556 S
C1847 C1844 1.511 . S
C1847 H1861 0.961 . S
C1847 H1862 0.961 . S
C1847 H1863 0.961 . S
C1848 C1849 1.370 1_565 S
C1848 C1850 1.363 . S
C1848 H1864 0.931 . S
C1849 C1848 1.370 1_545 S
C1849 C1853 1.408 . S
C1850 C1848 1.363 . S
C1850 C1851 1.370 1_565 S
C1850 C1854 1.524 . S
C1851 C1843 1.503 . S
C1851 C1850 1.370 1_545 S
C1851 C1852 1.403 . S
C1852 C1851 1.403 . S
C1852 C1853 1.404 . S
C1852 C1855 1.539 . S
C1853 C1849 1.408 . S
C1853 C1852 1.404 . S
C1853 H1865 0.930 . S
C1854 C1850 1.524 . S
C1854 H1866 0.956 . S
C1854 H1867 0.961 . S
C1854 H1868 0.961 . S
C1855 C1852 1.539 . S
C1855 H1869 0.958 . S
C1855 H1870 0.961 . S
C1855 H1871 0.960 . S
H1856 C1840 0.931 . S
H1857 C1845 0.929 . S
H1858 C1846 0.960 1_545 S
H1859 C1846 0.962 . S
H1860 C1846 0.969 1_554 S
H1861 C1847 0.961 . S
H1862 C1847 0.961 . S
H1863 C1847 0.961 . S
H1864 C1848 0.931 . S
H1865 C1853 0.930 . S
H1866 C1854 0.956 . S
H1867 C1854 0.961 . S
H1868 C1854 0.961 . S
H1869 C1855 0.958 . S
H1870 C1855 0.961 . S
H1871 C1855 0.960 . S
C1872 C1873 1.391 . S
C1872 C1874 1.394 . S
C1872 H1888 0.931 . S
C1873 C1872 1.391 . S
C1873 C1877 1.376 . S
C1874 C1872 1.394 . S
C1874 C1875 1.369 . S
C1874 C1878 1.531 1_545 S
C1875 C1874 1.369 . S
C1875 C1876 1.410 . S
C1875 C1883 1.503 . S
C1876 C1875 1.410 . S
C1876 C1877 1.392 . S
C1876 C1879 1.511 . S
C1877 C1873 1.376 . S
C1877 C1876 1.392 . S
C1877 H1889 0.929 . S
C1878 C1874 1.531 1_565 S
C1878 H1890 0.960 1_565 S
C1878 H1891 0.962 . S
C1878 H1892 0.960 1_565 S
C1879 C1876 1.511 . S
C1879 H1893 0.961 . S
C1879 H1894 0.961 . S
C1879 H1895 0.961 . S
C1880 C1881 1.381 . S
C1880 C1882 1.363 . S
C1880 H1896 0.931 . S
C1881 C1880 1.381 . S
C1881 C1885 1.400 1_565 S
C1882 C1880 1.363 . S
C1882 C1883 1.370 1_565 S
C1882 C1886 1.524 . S
C1883 C1875 1.503 . S
C1883 C1882 1.370 1_545 S
C1883 C1884 1.403 . S
C1884 C1883 1.403 . S
C1884 C1885 1.404 . S
C1884 C1887 1.539 . S
C1885 C1881 1.400 1_545 S
C1885 C1884 1.404 . S
C1885 H1897 0.930 . S
C1886 C1882 1.524 . S
C1886 H1898 0.956 . S
C1886 H1899 0.961 . S
C1886 H1900 0.961 . S
C1887 C1884 1.539 . S
C1887 H1901 0.958 . S
C1887 H1902 0.961 . S
C1887 H1903 0.960 . S
H1888 C1872 0.931 . S
H1889 C1877 0.929 . S
H1890 C1878 0.960 1_545 S
H1891 C1878 0.962 . S
H1892 C1878 0.960 1_545 S
H1893 C1879 0.961 . S
H1894 C1879 0.961 . S
H1895 C1879 0.961 . S
H1896 C1880 0.931 . S
H1897 C1885 0.930 . S
H1898 C1886 0.956 . S
H1899 C1886 0.961 . S
H1900 C1886 0.961 . S
H1901 C1887 0.958 . S
H1902 C1887 0.961 . S
H1903 C1887 0.960 . S
C1904 C1905 1.391 . S
C1904 C1906 1.394 . S
C1904 H1920 0.931 . S
C1905 C1904 1.391 . S
C1905 C1909 1.376 1_655 S
C1906 C1904 1.394 . S
C1906 C1907 1.369 . S
C1906 C1910 1.531 . S
C1907 C1906 1.369 . S
C1907 C1908 1.410 1_655 S
C1907 C1915 1.503 . S
C1908 C1907 1.410 1_455 S
C1908 C1909 1.392 . S
C1908 C1911 1.511 . S
C1909 C1905 1.376 1_455 S
C1909 C1908 1.392 . S
C1909 H1921 0.929 . S
C1910 C1906 1.531 . S
C1910 H1922 0.960 . S
C1910 H1923 0.962 . S
C1910 H1924 0.960 . S
C1911 C1908 1.511 . S
C1911 H1925 0.961 . S
C1911 H1926 0.961 . S
C1911 H1927 0.961 . S
C1912 C1913 1.364 . S
C1912 C1914 1.363 . S
C1912 H1928 0.931 . S
C1913 C1912 1.364 . S
C1913 C1917 1.409 1_455 S
C1914 C1912 1.363 . S
C1914 C1915 1.370 1_455 S
C1914 C1918 1.524 . S
C1915 C1907 1.503 . S
C1915 C1914 1.370 1_655 S
C1915 C1916 1.403 . S
C1916 C1915 1.403 . S
C1916 C1917 1.404 . S
C1916 C1919 1.539 . S
C1917 C1913 1.409 1_655 S
C1917 C1916 1.404 . S
C1917 H1929 0.930 . S
C1918 C1914 1.524 . S
C1918 H1930 0.956 1_455 S
C1918 H1931 0.961 . S
C1918 H1932 0.961 . S
C1919 C1916 1.539 . S
C1919 H1933 0.958 . S
C1919 H1934 0.961 . S
C1919 H1935 0.960 . S
H1920 C1904 0.931 . S
H1921 C1909 0.929 . S
H1922 C1910 0.960 . S
H1923 C1910 0.962 . S
H1924 C1910 0.960 . S
H1925 C1911 0.961 . S
H1926 C1911 0.961 . S
H1927 C1911 0.961 . S
H1928 C1912 0.931 . S
H1929 C1917 0.930 . S
H1930 C1918 0.956 1_655 S
H1931 C1918 0.961 . S
H1932 C1918 0.961 . S
H1933 C1919 0.958 . S
H1934 C1919 0.961 . S
H1935 C1919 0.960 . S
C1936 C1937 1.391 . S
C1936 C1938 1.394 . S
C1936 H1952 0.931 . S
C1937 C1936 1.391 . S
C1937 C1941 1.376 . S
C1938 C1936 1.394 . S
C1938 C1939 1.369 . S
C1938 C1942 1.531 . S
C1939 C1938 1.369 . S
C1939 C1940 1.410 . S
C1939 C1947 1.503 . S
C1940 C1939 1.410 . S
C1940 C1941 1.392 . S
C1940 C1943 1.511 . S
C1941 C1937 1.376 . S
C1941 C1940 1.392 . S
C1941 H1953 0.929 . S
C1942 C1938 1.531 . S
C1942 H1954 0.960 . S
C1942 H1955 0.962 . S
C1942 H1956 0.960 . S
C1943 C1940 1.511 . S
C1943 H1957 0.961 . S
C1943 H1958 0.961 . S
C1943 H1959 0.961 . S
C1944 C1945 1.370 . S
C1944 C1946 1.363 . S
C1944 H1960 0.931 . S
C1945 C1944 1.370 . S
C1945 C1949 1.408 . S
C1946 C1944 1.363 . S
C1946 C1947 1.370 . S
C1946 C1950 1.524 . S
C1947 C1939 1.503 . S
C1947 C1946 1.370 . S
C1947 C1948 1.403 . S
C1948 C1947 1.403 . S
C1948 C1949 1.404 . S
C1948 C1951 1.539 . S
C1949 C1945 1.408 . S
C1949 C1948 1.404 . S
C1949 H1961 0.930 . S
C1950 C1946 1.524 . S
C1950 H1962 0.956 . S
C1950 H1963 0.961 . S
C1950 H1964 0.961 . S
C1951 C1948 1.539 . S
C1951 H1965 0.958 . S
C1951 H1966 0.961 . S
C1951 H1967 0.960 . S
H1952 C1936 0.931 . S
H1953 C1941 0.929 . S
H1954 C1942 0.960 . S
H1955 C1942 0.962 . S
H1956 C1942 0.960 . S
H1957 C1943 0.961 . S
H1958 C1943 0.961 . S
H1959 C1943 0.961 . S
H1960 C1944 0.931 . S
H1961 C1949 0.930 . S
H1962 C1950 0.956 . S
H1963 C1950 0.961 . S
H1964 C1950 0.961 . S
H1965 C1951 0.958 . S
H1966 C1951 0.961 . S
H1967 C1951 0.960 . S
C1968 C1969 1.391 . S
C1968 C1970 1.394 . S
C1968 H1984 0.931 . S
C1969 C1968 1.391 . S
C1969 C1973 1.376 . S
C1970 C1968 1.394 . S
C1970 C1971 1.369 . S
C1970 C1974 1.531 . S
C1971 C1970 1.369 . S
C1971 C1972 1.410 . S
C1971 C1979 1.503 . S
C1972 C1971 1.410 . S
C1972 C1973 1.392 . S
C1972 C1975 1.511 . S
C1973 C1969 1.376 . S
C1973 C1972 1.392 . S
C1973 H1985 0.929 . S
C1974 C1970 1.531 . S
C1974 H1986 0.960 . S
C1974 H1987 0.962 . S
C1974 H1988 0.960 . S
C1975 C1972 1.511 . S
C1975 H1989 0.961 . S
C1975 H1990 0.961 . S
C1975 H1991 0.961 . S
C1976 C1977 1.370 . S
C1976 C1978 1.363 . S
C1976 H1992 0.931 . S
C1977 C1976 1.370 . S
C1977 C1981 1.408 . S
C1978 C1976 1.363 . S
C1978 C1979 1.370 . S
C1978 C1982 1.524 . S
C1979 C1971 1.503 . S
C1979 C1978 1.370 . S
C1979 C1980 1.403 . S
C1980 C1979 1.403 . S
C1980 C1981 1.404 . S
C1980 C1983 1.539 . S
C1981 C1977 1.408 . S
C1981 C1980 1.404 . S
C1981 H1993 0.930 . S
C1982 C1978 1.524 . S
C1982 H1994 0.956 . S
C1982 H1995 0.961 . S
C1982 H1996 0.961 . S
C1983 C1980 1.539 . S
C1983 H1997 0.958 . S
C1983 H1998 0.961 . S
C1983 H1999 0.960 . S
H1984 C1968 0.931 . S
H1985 C1973 0.929 . S
H1986 C1974 0.960 . S
H1987 C1974 0.962 . S
H1988 C1974 0.960 . S
H1989 C1975 0.961 . S
H1990 C1975 0.961 . S
H1991 C1975 0.961 . S
H1992 C1976 0.931 . S
H1993 C1981 0.930 . S
H1994 C1982 0.956 . S
H1995 C1982 0.961 . S
H1996 C1982 0.961 . S
H1997 C1983 0.958 . S
H1998 C1983 0.961 . S
H1999 C1983 0.960 . S
C2000 C2001 1.391 . S
C2000 C2002 1.394 . S
C2000 H2016 0.931 . S
C2001 C2000 1.391 . S
C2001 C2005 1.376 . S
C2002 C2000 1.394 . S
C2002 C2003 1.369 . S
C2002 C2006 1.531 . S
C2003 C2002 1.369 . S
C2003 C2004 1.410 . S
C2003 C2011 1.503 . S
C2004 C2003 1.410 . S
C2004 C2005 1.392 . S
C2004 C2007 1.511 . S
C2005 C2001 1.376 . S
C2005 C2004 1.392 . S
C2005 H2017 0.929 . S
C2006 C2002 1.531 . S
C2006 H2018 0.960 . S
C2006 H2019 0.962 . S
C2006 H2020 0.960 . S
C2007 C2004 1.511 . S
C2007 H2021 0.961 . S
C2007 H2022 0.961 . S
C2007 H2023 0.961 . S
C2008 C2009 1.370 . S
C2008 C2010 1.363 . S
C2008 H2024 0.931 . S
C2009 C2008 1.370 . S
C2009 C2013 1.408 . S
C2010 C2008 1.363 . S
C2010 C2011 1.370 . S
C2010 C2014 1.524 . S
C2011 C2003 1.503 . S
C2011 C2010 1.370 . S
C2011 C2012 1.403 . S
C2012 C2011 1.403 . S
C2012 C2013 1.404 . S
C2012 C2015 1.539 . S
C2013 C2009 1.408 . S
C2013 C2012 1.404 . S
C2013 H2025 0.930 . S
C2014 C2010 1.524 . S
C2014 H2026 0.956 . S
C2014 H2027 0.961 . S
C2014 H2028 0.961 . S
C2015 C2012 1.539 . S
C2015 H2029 0.958 . S
C2015 H2030 0.961 . S
C2015 H2031 0.960 . S
H2016 C2000 0.931 . S
H2017 C2005 0.929 . S
H2018 C2006 0.960 . S
H2019 C2006 0.962 . S
H2020 C2006 0.960 . S
H2021 C2007 0.961 . S
H2022 C2007 0.961 . S
H2023 C2007 0.961 . S
H2024 C2008 0.931 . S
H2025 C2013 0.930 . S
H2026 C2014 0.956 . S
H2027 C2014 0.961 . S
H2028 C2014 0.961 . S
H2029 C2015 0.958 . S
H2030 C2015 0.961 . S
H2031 C2015 0.960 . S
C2032 C2033 1.391 . S
C2032 C2034 1.394 . S
C2032 H2048 0.931 . S
C2033 C2032 1.391 . S
C2033 C2037 1.376 . S
C2034 C2032 1.394 . S
C2034 C2035 1.369 . S
C2034 C2038 1.531 . S
C2035 C2034 1.369 . S
C2035 C2036 1.410 . S
C2035 C2043 1.503 . S
C2036 C2035 1.410 . S
C2036 C2037 1.392 . S
C2036 C2039 1.511 . S
C2037 C2033 1.376 . S
C2037 C2036 1.392 . S
C2037 H2049 0.929 . S
C2038 C2034 1.531 . S
C2038 H2050 0.960 . S
C2038 H2051 0.962 . S
C2038 H2052 0.960 . S
C2039 C2036 1.511 . S
C2039 H2053 0.961 . S
C2039 H2054 0.961 . S
C2039 H2055 0.961 . S
C2040 C2041 1.370 . S
C2040 C2042 1.363 . S
C2040 H2056 0.931 . S
C2041 C2040 1.370 . S
C2041 C2045 1.408 . S
C2042 C2040 1.363 . S
C2042 C2043 1.370 . S
C2042 C2046 1.524 . S
C2043 C2035 1.503 . S
C2043 C2042 1.370 . S
C2043 C2044 1.403 . S
C2044 C2043 1.403 . S
C2044 C2045 1.404 . S
C2044 C2047 1.539 . S
C2045 C2041 1.408 . S
C2045 C2044 1.404 . S
C2045 H2057 0.930 . S
C2046 C2042 1.524 . S
C2046 H2058 0.956 . S
C2046 H2059 0.961 . S
C2046 H2060 0.961 . S
C2047 C2044 1.539 . S
C2047 H2061 0.958 . S
C2047 H2062 0.961 . S
C2047 H2063 0.960 . S
H2048 C2032 0.931 . S
H2049 C2037 0.929 . S
H2050 C2038 0.960 . S
H2051 C2038 0.962 . S
H2052 C2038 0.960 . S
H2053 C2039 0.961 . S
H2054 C2039 0.961 . S
H2055 C2039 0.961 . S
H2056 C2040 0.931 . S
H2057 C2045 0.930 . S
H2058 C2046 0.956 . S
H2059 C2046 0.961 . S
H2060 C2046 0.961 . S
H2061 C2047 0.958 . S
H2062 C2047 0.961 . S
H2063 C2047 0.960 . S
C2064 C2065 1.391 . S
C2064 C2066 1.394 . S
C2064 H2080 0.931 . S
C2065 C2064 1.391 . S
C2065 C2069 1.376 . S
C2066 C2064 1.394 . S
C2066 C2067 1.369 . S
C2066 C2070 1.531 . S
C2067 C2066 1.369 . S
C2067 C2068 1.410 . S
C2067 C2075 1.503 . S
C2068 C2067 1.410 . S
C2068 C2069 1.392 . S
C2068 C2071 1.511 . S
C2069 C2065 1.376 . S
C2069 C2068 1.392 . S
C2069 H2081 0.929 . S
C2070 C2066 1.531 . S
C2070 H2082 0.960 . S
C2070 H2083 0.962 . S
C2070 H2084 0.960 . S
C2071 C2068 1.511 . S
C2071 H2085 0.961 . S
C2071 H2086 0.961 . S
C2071 H2087 0.961 . S
C2072 C2073 1.370 . S
C2072 C2074 1.363 . S
C2072 H2088 0.931 . S
C2073 C2072 1.370 . S
C2073 C2077 1.408 . S
C2074 C2072 1.363 . S
C2074 C2075 1.370 . S
C2074 C2078 1.524 . S
C2075 C2067 1.503 . S
C2075 C2074 1.370 . S
C2075 C2076 1.403 . S
C2076 C2075 1.403 . S
C2076 C2077 1.404 . S
C2076 C2079 1.539 . S
C2077 C2073 1.408 . S
C2077 C2076 1.404 . S
C2077 H2089 0.930 . S
C2078 C2074 1.524 . S
C2078 H2090 0.956 . S
C2078 H2091 0.961 . S
C2078 H2092 0.961 . S
C2079 C2076 1.539 . S
C2079 H2093 0.958 . S
C2079 H2094 0.961 . S
C2079 H2095 0.960 . S
H2080 C2064 0.931 . S
H2081 C2069 0.929 . S
H2082 C2070 0.960 . S
H2083 C2070 0.962 . S
H2084 C2070 0.960 . S
H2085 C2071 0.961 . S
H2086 C2071 0.961 . S
H2087 C2071 0.961 . S
H2088 C2072 0.931 . S
H2089 C2077 0.930 . S
H2090 C2078 0.956 . S
H2091 C2078 0.961 . S
H2092 C2078 0.961 . S
H2093 C2079 0.958 . S
H2094 C2079 0.961 . S
H2095 C2079 0.960 . S
C2096 C2097 1.391 . S
C2096 C2098 1.394 . S
C2096 H2112 0.931 . S
C2097 C2096 1.391 . S
C2097 C2101 1.376 . S
C2098 C2096 1.394 . S
C2098 C2099 1.369 . S
C2098 C2102 1.531 . S
C2099 C2098 1.369 . S
C2099 C2100 1.410 . S
C2099 C2107 1.503 . S
C2100 C2099 1.410 . S
C2100 C2101 1.392 . S
C2100 C2103 1.511 . S
C2101 C2097 1.376 . S
C2101 C2100 1.392 . S
C2101 H2113 0.929 . S
C2102 C2098 1.531 . S
C2102 H2114 0.960 . S
C2102 H2115 0.962 . S
C2102 H2116 0.960 . S
C2103 C2100 1.511 . S
C2103 H2117 0.961 . S
C2103 H2118 0.961 . S
C2103 H2119 0.961 . S
C2104 C2105 1.370 . S
C2104 C2106 1.363 . S
C2104 H2120 0.931 . S
C2105 C2104 1.370 . S
C2105 C2109 1.408 . S
C2106 C2104 1.363 . S
C2106 C2107 1.370 . S
C2106 C2110 1.524 . S
C2107 C2099 1.503 . S
C2107 C2106 1.370 . S
C2107 C2108 1.403 . S
C2108 C2107 1.403 . S
C2108 C2109 1.404 . S
C2108 C2111 1.539 . S
C2109 C2105 1.408 . S
C2109 C2108 1.404 . S
C2109 H2121 0.930 . S
C2110 C2106 1.524 . S
C2110 H2122 0.956 . S
C2110 H2123 0.961 . S
C2110 H2124 0.961 . S
C2111 C2108 1.539 . S
C2111 H2125 0.958 . S
C2111 H2126 0.961 . S
C2111 H2127 0.960 . S
H2112 C2096 0.931 . S
H2113 C2101 0.929 . S
H2114 C2102 0.960 . S
H2115 C2102 0.962 . S
H2116 C2102 0.960 . S
H2117 C2103 0.961 . S
H2118 C2103 0.961 . S
H2119 C2103 0.961 . S
H2120 C2104 0.931 . S
H2121 C2109 0.930 . S
H2122 C2110 0.956 . S
H2123 C2110 0.961 . S
H2124 C2110 0.961 . S
H2125 C2111 0.958 . S
H2126 C2111 0.961 . S
H2127 C2111 0.960 . S
C2128 C2129 1.391 . S
C2128 C2130 1.394 . S
C2128 H2144 0.931 . S
C2129 C2128 1.391 . S
C2129 C2133 1.376 . S
C2130 C2128 1.394 . S
C2130 C2131 1.369 . S
C2130 C2134 1.531 . S
C2131 C2130 1.369 . S
C2131 C2132 1.410 . S
C2131 C2139 1.503 . S
C2132 C2131 1.410 . S
C2132 C2133 1.392 . S
C2132 C2135 1.511 . S
C2133 C2129 1.376 . S
C2133 C2132 1.392 . S
C2133 H2145 0.929 . S
C2134 C2130 1.531 . S
C2134 H2146 0.960 . S
C2134 H2147 0.962 . S
C2134 H2148 0.960 . S
C2135 C2132 1.511 . S
C2135 H2149 0.961 . S
C2135 H2150 0.961 . S
C2135 H2151 0.961 . S
C2136 C2137 1.370 . S
C2136 C2138 1.363 . S
C2136 H2152 0.931 . S
C2137 C2136 1.370 . S
C2137 C2141 1.408 . S
C2138 C2136 1.363 . S
C2138 C2139 1.370 . S
C2138 C2142 1.524 . S
C2139 C2131 1.503 . S
C2139 C2138 1.370 . S
C2139 C2140 1.403 . S
C2140 C2139 1.403 . S
C2140 C2141 1.404 . S
C2140 C2143 1.539 . S
C2141 C2137 1.408 . S
C2141 C2140 1.404 . S
C2141 H2153 0.930 . S
C2142 C2138 1.524 . S
C2142 H2154 0.956 . S
C2142 H2155 0.961 . S
C2142 H2156 0.961 . S
C2143 C2140 1.539 . S
C2143 H2157 0.958 . S
C2143 H2158 0.961 . S
C2143 H2159 0.960 . S
H2144 C2128 0.931 . S
H2145 C2133 0.929 . S
H2146 C2134 0.960 . S
H2147 C2134 0.962 . S
H2148 C2134 0.960 . S
H2149 C2135 0.961 . S
H2150 C2135 0.961 . S
H2151 C2135 0.961 . S
H2152 C2136 0.931 . S
H2153 C2141 0.930 . S
H2154 C2142 0.956 . S
H2155 C2142 0.961 . S
H2156 C2142 0.961 . S
H2157 C2143 0.958 . S
H2158 C2143 0.961 . S
H2159 C2143 0.960 . S
C2160 C2161 1.391 . S
C2160 C2162 1.394 . S
C2160 H2176 0.931 . S
C2161 C2160 1.391 . S
C2161 C2165 1.376 . S
C2162 C2160 1.394 . S
C2162 C2163 1.369 . S
C2162 C2166 1.531 . S
C2163 C2162 1.369 . S
C2163 C2164 1.410 . S
C2163 C2171 1.503 . S
C2164 C2163 1.410 . S
C2164 C2165 1.392 . S
C2164 C2167 1.511 . S
C2165 C2161 1.376 . S
C2165 C2164 1.392 . S
C2165 H2177 0.929 . S
C2166 C2162 1.531 . S
C2166 H2178 0.960 . S
C2166 H2179 0.962 . S
C2166 H2180 0.960 . S
C2167 C2164 1.511 . S
C2167 H2181 0.961 . S
C2167 H2182 0.961 . S
C2167 H2183 0.961 . S
C2168 C2169 1.370 . S
C2168 C2170 1.363 . S
C2168 H2184 0.931 . S
C2169 C2168 1.370 . S
C2169 C2173 1.408 . S
C2170 C2168 1.363 . S
C2170 C2171 1.370 . S
C2170 C2174 1.524 . S
C2171 C2163 1.503 . S
C2171 C2170 1.370 . S
C2171 C2172 1.403 . S
C2172 C2171 1.403 . S
C2172 C2173 1.404 . S
C2172 C2175 1.539 . S
C2173 C2169 1.408 . S
C2173 C2172 1.404 . S
C2173 H2185 0.930 . S
C2174 C2170 1.524 . S
C2174 H2186 0.956 . S
C2174 H2187 0.961 . S
C2174 H2188 0.961 . S
C2175 C2172 1.539 . S
C2175 H2189 0.958 . S
C2175 H2190 0.961 . S
C2175 H2191 0.960 . S
H2176 C2160 0.931 . S
H2177 C2165 0.929 . S
H2178 C2166 0.960 . S
H2179 C2166 0.962 . S
H2180 C2166 0.960 . S
H2181 C2167 0.961 . S
H2182 C2167 0.961 . S
H2183 C2167 0.961 . S
H2184 C2168 0.931 . S
H2185 C2173 0.930 . S
H2186 C2174 0.956 . S
H2187 C2174 0.961 . S
H2188 C2174 0.961 . S
H2189 C2175 0.958 . S
H2190 C2175 0.961 . S
H2191 C2175 0.960 . S
C2192 C2193 1.391 . S
C2192 C2194 1.394 . S
C2192 H2208 0.931 . S
C2193 C2192 1.391 . S
C2193 C2197 1.376 . S
C2194 C2192 1.394 . S
C2194 C2195 1.369 . S
C2194 C2198 1.531 . S
C2195 C2194 1.369 . S
C2195 C2196 1.410 . S
C2195 C2203 1.503 . S
C2196 C2195 1.410 . S
C2196 C2197 1.392 . S
C2196 C2199 1.511 . S
C2197 C2193 1.376 . S
C2197 C2196 1.392 . S
C2197 H2209 0.929 . S
C2198 C2194 1.531 . S
C2198 H2210 0.960 . S
C2198 H2211 0.962 . S
C2198 H2212 0.960 . S
C2199 C2196 1.511 . S
C2199 H2213 0.961 . S
C2199 H2214 0.961 . S
C2199 H2215 0.961 . S
C2200 C2201 1.370 . S
C2200 C2202 1.363 . S
C2200 H2216 0.931 . S
C2201 C2200 1.370 . S
C2201 C2205 1.408 . S
C2202 C2200 1.363 . S
C2202 C2203 1.370 . S
C2202 C2206 1.524 . S
C2203 C2195 1.503 . S
C2203 C2202 1.370 . S
C2203 C2204 1.403 . S
C2204 C2203 1.403 . S
C2204 C2205 1.404 . S
C2204 C2207 1.539 . S
C2205 C2201 1.408 . S
C2205 C2204 1.404 . S
C2205 H2217 0.930 . S
C2206 C2202 1.524 . S
C2206 H2218 0.956 . S
C2206 H2219 0.961 . S
C2206 H2220 0.961 . S
C2207 C2204 1.539 . S
C2207 H2221 0.958 . S
C2207 H2222 0.961 . S
C2207 H2223 0.960 . S
H2208 C2192 0.931 . S
H2209 C2197 0.929 . S
H2210 C2198 0.960 . S
H2211 C2198 0.962 . S
H2212 C2198 0.960 . S
H2213 C2199 0.961 . S
H2214 C2199 0.961 . S
H2215 C2199 0.961 . S
H2216 C2200 0.931 . S
H2217 C2205 0.930 . S
H2218 C2206 0.956 . S
H2219 C2206 0.961 . S
H2220 C2206 0.961 . S
H2221 C2207 0.958 . S
H2222 C2207 0.961 . S
H2223 C2207 0.960 . S
C2224 C2225 1.391 . S
C2224 C2226 1.394 . S
C2224 H2240 0.931 . S
C2225 C2224 1.391 . S
C2225 C2229 1.376 . S
C2226 C2224 1.394 . S
C2226 C2227 1.369 . S
C2226 C2230 1.531 . S
C2227 C2226 1.369 . S
C2227 C2228 1.410 . S
C2227 C2235 1.503 . S
C2228 C2227 1.410 . S
C2228 C2229 1.392 . S
C2228 C2231 1.511 . S
C2229 C2225 1.376 . S
C2229 C2228 1.392 . S
C2229 H2241 0.929 . S
C2230 C2226 1.531 . S
C2230 H2242 0.960 . S
C2230 H2243 0.962 . S
C2230 H2244 0.960 . S
C2231 C2228 1.511 . S
C2231 H2245 0.961 . S
C2231 H2246 0.961 . S
C2231 H2247 0.961 . S
C2232 C2233 1.370 . S
C2232 C2234 1.363 . S
C2232 H2248 0.931 . S
C2233 C2232 1.370 . S
C2233 C2237 1.408 . S
C2234 C2232 1.363 . S
C2234 C2235 1.370 . S
C2234 C2238 1.524 . S
C2235 C2227 1.503 . S
C2235 C2234 1.370 . S
C2235 C2236 1.403 . S
C2236 C2235 1.403 . S
C2236 C2237 1.404 . S
C2236 C2239 1.539 . S
C2237 C2233 1.408 . S
C2237 C2236 1.404 . S
C2237 H2249 0.930 . S
C2238 C2234 1.524 . S
C2238 H2250 0.956 . S
C2238 H2251 0.961 . S
C2238 H2252 0.961 . S
C2239 C2236 1.539 . S
C2239 H2253 0.958 . S
C2239 H2254 0.961 . S
C2239 H2255 0.960 . S
H2240 C2224 0.931 . S
H2241 C2229 0.929 . S
H2242 C2230 0.960 . S
H2243 C2230 0.962 . S
H2244 C2230 0.960 . S
H2245 C2231 0.961 . S
H2246 C2231 0.961 . S
H2247 C2231 0.961 . S
H2248 C2232 0.931 . S
H2249 C2237 0.930 . S
H2250 C2238 0.956 . S
H2251 C2238 0.961 . S
H2252 C2238 0.961 . S
H2253 C2239 0.958 . S
H2254 C2239 0.961 . S
H2255 C2239 0.960 . S
C2256 C2257 1.391 . S
C2256 C2258 1.394 . S
C2256 H2272 0.931 . S
C2257 C2256 1.391 . S
C2257 C2261 1.376 . S
C2258 C2256 1.394 . S
C2258 C2259 1.369 . S
C2258 C2262 1.531 . S
C2259 C2258 1.369 . S
C2259 C2260 1.410 . S
C2259 C2267 1.503 . S
C2260 C2259 1.410 . S
C2260 C2261 1.392 . S
C2260 C2263 1.511 . S
C2261 C2257 1.376 . S
C2261 C2260 1.392 . S
C2261 H2273 0.929 . S
C2262 C2258 1.531 . S
C2262 H2274 0.960 . S
C2262 H2275 0.962 . S
C2262 H2276 0.960 . S
C2263 C2260 1.511 . S
C2263 H2277 0.961 . S
C2263 H2278 0.961 . S
C2263 H2279 0.961 . S
C2264 C2265 1.370 . S
C2264 C2266 1.363 . S
C2264 H2280 0.931 . S
C2265 C2264 1.370 . S
C2265 C2269 1.408 . S
C2266 C2264 1.363 . S
C2266 C2267 1.370 . S
C2266 C2270 1.524 . S
C2267 C2259 1.503 . S
C2267 C2266 1.370 . S
C2267 C2268 1.403 . S
C2268 C2267 1.403 . S
C2268 C2269 1.404 . S
C2268 C2271 1.539 . S
C2269 C2265 1.408 . S
C2269 C2268 1.404 . S
C2269 H2281 0.930 . S
C2270 C2266 1.524 . S
C2270 H2282 0.956 . S
C2270 H2283 0.961 . S
C2270 H2284 0.961 . S
C2271 C2268 1.539 . S
C2271 H2285 0.958 . S
C2271 H2286 0.961 . S
C2271 H2287 0.960 . S
H2272 C2256 0.931 . S
H2273 C2261 0.929 . S
H2274 C2262 0.960 . S
H2275 C2262 0.962 . S
H2276 C2262 0.960 . S
H2277 C2263 0.961 . S
H2278 C2263 0.961 . S
H2279 C2263 0.961 . S
H2280 C2264 0.931 . S
H2281 C2269 0.930 . S
H2282 C2270 0.956 . S
H2283 C2270 0.961 . S
H2284 C2270 0.961 . S
H2285 C2271 0.958 . S
H2286 C2271 0.961 . S
H2287 C2271 0.960 . S
C2288 C2289 1.391 . S
C2288 C2290 1.394 . S
C2288 H2304 0.931 . S
C2289 C2288 1.391 . S
C2289 C2293 1.376 . S
C2290 C2288 1.394 . S
C2290 C2291 1.369 . S
C2290 C2294 1.531 . S
C2291 C2290 1.369 . S
C2291 C2292 1.410 . S
C2291 C2299 1.503 . S
C2292 C2291 1.410 . S
C2292 C2293 1.392 . S
C2292 C2295 1.511 . S
C2293 C2289 1.376 . S
C2293 C2292 1.392 . S
C2293 H2305 0.929 . S
C2294 C2290 1.531 . S
C2294 H2306 0.960 . S
C2294 H2307 0.962 . S
C2294 H2308 0.960 . S
C2295 C2292 1.511 . S
C2295 H2309 0.961 . S
C2295 H2310 0.961 . S
C2295 H2311 0.961 . S
C2296 C2297 1.370 . S
C2296 C2298 1.363 . S
C2296 H2312 0.931 . S
C2297 C2296 1.370 . S
C2297 C2301 1.408 . S
C2298 C2296 1.363 . S
C2298 C2299 1.370 . S
C2298 C2302 1.524 . S
C2299 C2291 1.503 . S
C2299 C2298 1.370 . S
C2299 C2300 1.403 . S
C2300 C2299 1.403 . S
C2300 C2301 1.404 . S
C2300 C2303 1.539 . S
C2301 C2297 1.408 . S
C2301 C2300 1.404 . S
C2301 H2313 0.930 . S
C2302 C2298 1.524 . S
C2302 H2314 0.956 . S
C2302 H2315 0.961 . S
C2302 H2316 0.961 . S
C2303 C2300 1.539 . S
C2303 H2317 0.958 . S
C2303 H2318 0.961 . S
C2303 H2319 0.960 . S
H2304 C2288 0.931 . S
H2305 C2293 0.929 . S
H2306 C2294 0.960 . S
H2307 C2294 0.962 . S
H2308 C2294 0.960 . S
H2309 C2295 0.961 . S
H2310 C2295 0.961 . S
H2311 C2295 0.961 . S
H2312 C2296 0.931 . S
H2313 C2301 0.930 . S
H2314 C2302 0.956 . S
H2315 C2302 0.961 . S
H2316 C2302 0.961 . S
H2317 C2303 0.958 . S
H2318 C2303 0.961 . S
H2319 C2303 0.960 . S
C2320 C2321 1.391 . S
C2320 C2322 1.394 . S
C2320 H2336 0.931 . S
C2321 C2320 1.391 . S
C2321 C2325 1.376 . S
C2322 C2320 1.394 . S
C2322 C2323 1.369 . S
C2322 C2326 1.531 . S
C2323 C2322 1.369 . S
C2323 C2324 1.410 . S
C2323 C2331 1.503 . S
C2324 C2323 1.410 . S
C2324 C2325 1.392 . S
C2324 C2327 1.511 . S
C2325 C2321 1.376 . S
C2325 C2324 1.392 . S
C2325 H2337 0.929 . S
C2326 C2322 1.531 . S
C2326 H2338 0.960 . S
C2326 H2339 0.962 . S
C2326 H2340 0.960 . S
C2327 C2324 1.511 . S
C2327 H2341 0.961 . S
C2327 H2342 0.961 . S
C2327 H2343 0.961 . S
C2328 C2329 1.370 . S
C2328 C2330 1.363 . S
C2328 H2344 0.931 . S
C2329 C2328 1.370 . S
C2329 C2333 1.408 . S
C2330 C2328 1.363 . S
C2330 C2331 1.370 . S
C2330 C2334 1.524 . S
C2331 C2323 1.503 . S
C2331 C2330 1.370 . S
C2331 C2332 1.403 . S
C2332 C2331 1.403 . S
C2332 C2333 1.404 . S
C2332 C2335 1.539 . S
C2333 C2329 1.408 . S
C2333 C2332 1.404 . S
C2333 H2345 0.930 . S
C2334 C2330 1.524 . S
C2334 H2346 0.956 . S
C2334 H2347 0.961 . S
C2334 H2348 0.961 . S
C2335 C2332 1.539 . S
C2335 H2349 0.958 . S
C2335 H2350 0.961 . S
C2335 H2351 0.960 . S
H2336 C2320 0.931 . S
H2337 C2325 0.929 . S
H2338 C2326 0.960 . S
H2339 C2326 0.962 . S
H2340 C2326 0.960 . S
H2341 C2327 0.961 . S
H2342 C2327 0.961 . S
H2343 C2327 0.961 . S
H2344 C2328 0.931 . S
H2345 C2333 0.930 . S
H2346 C2334 0.956 . S
H2347 C2334 0.961 . S
H2348 C2334 0.961 . S
H2349 C2335 0.958 . S
H2350 C2335 0.961 . S
H2351 C2335 0.960 . S
C2352 C2353 1.391 . S
C2352 C2354 1.394 . S
C2352 H2368 0.931 . S
C2353 C2352 1.391 . S
C2353 C2357 1.376 . S
C2354 C2352 1.394 . S
C2354 C2355 1.369 . S
C2354 C2358 1.531 . S
C2355 C2354 1.369 . S
C2355 C2356 1.410 . S
C2355 C2363 1.503 . S
C2356 C2355 1.410 . S
C2356 C2357 1.392 . S
C2356 C2359 1.511 . S
C2357 C2353 1.376 . S
C2357 C2356 1.392 . S
C2357 H2369 0.929 . S
C2358 C2354 1.531 . S
C2358 H2370 0.960 . S
C2358 H2371 0.962 . S
C2358 H2372 0.960 . S
C2359 C2356 1.511 . S
C2359 H2373 0.961 . S
C2359 H2374 0.961 . S
C2359 H2375 0.961 . S
C2360 C2361 1.370 . S
C2360 C2362 1.363 . S
C2360 H2376 0.931 . S
C2361 C2360 1.370 . S
C2361 C2365 1.408 . S
C2362 C2360 1.363 . S
C2362 C2363 1.370 . S
C2362 C2366 1.524 . S
C2363 C2355 1.503 . S
C2363 C2362 1.370 . S
C2363 C2364 1.403 . S
C2364 C2363 1.403 . S
C2364 C2365 1.404 . S
C2364 C2367 1.539 . S
C2365 C2361 1.408 . S
C2365 C2364 1.404 . S
C2365 H2377 0.930 . S
C2366 C2362 1.524 . S
C2366 H2378 0.956 . S
C2366 H2379 0.961 . S
C2366 H2380 0.961 . S
C2367 C2364 1.539 . S
C2367 H2381 0.958 . S
C2367 H2382 0.961 . S
C2367 H2383 0.960 . S
H2368 C2352 0.931 . S
H2369 C2357 0.929 . S
H2370 C2358 0.960 . S
H2371 C2358 0.962 . S
H2372 C2358 0.960 . S
H2373 C2359 0.961 . S
H2374 C2359 0.961 . S
H2375 C2359 0.961 . S
H2376 C2360 0.931 . S
H2377 C2365 0.930 . S
H2378 C2366 0.956 . S
H2379 C2366 0.961 . S
H2380 C2366 0.961 . S
H2381 C2367 0.958 . S
H2382 C2367 0.961 . S
H2383 C2367 0.960 . S
C2384 C2385 1.391 . S
C2384 C2386 1.394 . S
C2384 H2400 0.931 . S
C2385 C2384 1.391 . S
C2385 C2389 1.376 . S
C2386 C2384 1.394 . S
C2386 C2387 1.369 . S
C2386 C2390 1.531 . S
C2387 C2386 1.369 . S
C2387 C2388 1.410 . S
C2387 C2395 1.503 . S
C2388 C2387 1.410 . S
C2388 C2389 1.392 . S
C2388 C2391 1.511 . S
C2389 C2385 1.376 . S
C2389 C2388 1.392 . S
C2389 H2401 0.929 . S
C2390 C2386 1.531 . S
C2390 H2402 0.960 . S
C2390 H2403 0.962 . S
C2390 H2404 0.960 . S
C2391 C2388 1.511 . S
C2391 H2405 0.961 . S
C2391 H2406 0.961 . S
C2391 H2407 0.961 . S
C2392 C2393 1.370 . S
C2392 C2394 1.363 . S
C2392 H2408 0.931 . S
C2393 C2392 1.370 . S
C2393 C2397 1.408 . S
C2394 C2392 1.363 . S
C2394 C2395 1.370 . S
C2394 C2398 1.524 . S
C2395 C2387 1.503 . S
C2395 C2394 1.370 . S
C2395 C2396 1.403 . S
C2396 C2395 1.403 . S
C2396 C2397 1.404 . S
C2396 C2399 1.539 . S
C2397 C2393 1.408 . S
C2397 C2396 1.404 . S
C2397 H2409 0.930 . S
C2398 C2394 1.524 . S
C2398 H2410 0.956 . S
C2398 H2411 0.961 . S
C2398 H2412 0.961 . S
C2399 C2396 1.539 . S
C2399 H2413 0.958 . S
C2399 H2414 0.961 . S
C2399 H2415 0.960 . S
H2400 C2384 0.931 . S
H2401 C2389 0.929 . S
H2402 C2390 0.960 . S
H2403 C2390 0.962 . S
H2404 C2390 0.960 . S
H2405 C2391 0.961 . S
H2406 C2391 0.961 . S
H2407 C2391 0.961 . S
H2408 C2392 0.931 . S
H2409 C2397 0.930 . S
H2410 C2398 0.956 . S
H2411 C2398 0.961 . S
H2412 C2398 0.961 . S
H2413 C2399 0.958 . S
H2414 C2399 0.961 . S
H2415 C2399 0.960 . S
C2416 C2417 1.391 . S
C2416 C2418 1.394 . S
C2416 H2432 0.931 . S
C2417 C2416 1.391 . S
C2417 C2421 1.376 . S
C2418 C2416 1.394 . S
C2418 C2419 1.369 . S
C2418 C2422 1.531 . S
C2419 C2418 1.369 . S
C2419 C2420 1.410 . S
C2419 C2427 1.503 . S
C2420 C2419 1.410 . S
C2420 C2421 1.392 . S
C2420 C2423 1.511 . S
C2421 C2417 1.376 . S
C2421 C2420 1.392 . S
C2421 H2433 0.929 . S
C2422 C2418 1.531 . S
C2422 H2434 0.960 . S
C2422 H2435 0.962 . S
C2422 H2436 0.960 . S
C2423 C2420 1.511 . S
C2423 H2437 0.961 . S
C2423 H2438 0.961 . S
C2423 H2439 0.961 . S
C2424 C2425 1.370 . S
C2424 C2426 1.363 . S
C2424 H2440 0.931 . S
C2425 C2424 1.370 . S
C2425 C2429 1.408 . S
C2426 C2424 1.363 . S
C2426 C2427 1.370 . S
C2426 C2430 1.524 . S
C2427 C2419 1.503 . S
C2427 C2426 1.370 . S
C2427 C2428 1.403 . S
C2428 C2427 1.403 . S
C2428 C2429 1.404 . S
C2428 C2431 1.539 . S
C2429 C2425 1.408 . S
C2429 C2428 1.404 . S
C2429 H2441 0.930 . S
C2430 C2426 1.524 . S
C2430 H2442 0.956 . S
C2430 H2443 0.961 . S
C2430 H2444 0.961 . S
C2431 C2428 1.539 . S
C2431 H2445 0.958 . S
C2431 H2446 0.961 . S
C2431 H2447 0.960 . S
H2432 C2416 0.931 . S
H2433 C2421 0.929 . S
H2434 C2422 0.960 . S
H2435 C2422 0.962 . S
H2436 C2422 0.960 . S
H2437 C2423 0.961 . S
H2438 C2423 0.961 . S
H2439 C2423 0.961 . S
H2440 C2424 0.931 . S
H2441 C2429 0.930 . S
H2442 C2430 0.956 . S
H2443 C2430 0.961 . S
H2444 C2430 0.961 . S
H2445 C2431 0.958 . S
H2446 C2431 0.961 . S
H2447 C2431 0.960 . S
C2448 C2449 1.391 . S
C2448 C2450 1.394 . S
C2448 H2464 0.931 . S
C2449 C2448 1.391 . S
C2449 C2453 1.376 . S
C2450 C2448 1.394 . S
C2450 C2451 1.369 . S
C2450 C2454 1.531 . S
C2451 C2450 1.369 . S
C2451 C2452 1.410 . S
C2451 C2459 1.503 . S
C2452 C2451 1.410 . S
C2452 C2453 1.392 . S
C2452 C2455 1.511 . S
C2453 C2449 1.376 . S
C2453 C2452 1.392 . S
C2453 H2465 0.929 . S
C2454 C2450 1.531 . S
C2454 H2466 0.960 . S
C2454 H2467 0.962 . S
C2454 H2468 0.960 . S
C2455 C2452 1.511 . S
C2455 H2469 0.961 . S
C2455 H2470 0.961 . S
C2455 H2471 0.961 . S
C2456 C2457 1.370 . S
C2456 C2458 1.363 . S
C2456 H2472 0.931 . S
C2457 C2456 1.370 . S
C2457 C2461 1.408 . S
C2458 C2456 1.363 . S
C2458 C2459 1.370 . S
C2458 C2462 1.524 . S
C2459 C2451 1.503 . S
C2459 C2458 1.370 . S
C2459 C2460 1.403 . S
C2460 C2459 1.403 . S
C2460 C2461 1.404 . S
C2460 C2463 1.539 . S
C2461 C2457 1.408 . S
C2461 C2460 1.404 . S
C2461 H2473 0.930 . S
C2462 C2458 1.524 . S
C2462 H2474 0.956 . S
C2462 H2475 0.961 . S
C2462 H2476 0.961 . S
C2463 C2460 1.539 . S
C2463 H2477 0.958 . S
C2463 H2478 0.961 . S
C2463 H2479 0.960 . S
H2464 C2448 0.931 . S
H2465 C2453 0.929 . S
H2466 C2454 0.960 . S
H2467 C2454 0.962 . S
H2468 C2454 0.960 . S
H2469 C2455 0.961 . S
H2470 C2455 0.961 . S
H2471 C2455 0.961 . S
H2472 C2456 0.931 . S
H2473 C2461 0.930 . S
H2474 C2462 0.956 . S
H2475 C2462 0.961 . S
H2476 C2462 0.961 . S
H2477 C2463 0.958 . S
H2478 C2463 0.961 . S
H2479 C2463 0.960 . S
C2480 C2481 1.391 . S
C2480 C2482 1.394 . S
C2480 H2496 0.931 . S
C2481 C2480 1.391 . S
C2481 C2485 1.376 . S
C2482 C2480 1.394 . S
C2482 C2483 1.369 . S
C2482 C2486 1.531 . S
C2483 C2482 1.369 . S
C2483 C2484 1.410 . S
C2483 C2491 1.503 . S
C2484 C2483 1.410 . S
C2484 C2485 1.392 . S
C2484 C2487 1.511 . S
C2485 C2481 1.376 . S
C2485 C2484 1.392 . S
C2485 H2497 0.929 . S
C2486 C2482 1.531 . S
C2486 H2498 0.960 . S
C2486 H2499 0.962 . S
C2486 H2500 0.960 . S
C2487 C2484 1.511 . S
C2487 H2501 0.961 . S
C2487 H2502 0.961 . S
C2487 H2503 0.961 . S
C2488 C2489 1.370 . S
C2488 C2490 1.363 . S
C2488 H2504 0.931 . S
C2489 C2488 1.370 . S
C2489 C2493 1.408 . S
C2490 C2488 1.363 . S
C2490 C2491 1.370 . S
C2490 C2494 1.524 . S
C2491 C2483 1.503 . S
C2491 C2490 1.370 . S
C2491 C2492 1.403 . S
C2492 C2491 1.403 . S
C2492 C2493 1.404 . S
C2492 C2495 1.539 . S
C2493 C2489 1.408 . S
C2493 C2492 1.404 . S
C2493 H2505 0.930 . S
C2494 C2490 1.524 . S
C2494 H2506 0.956 . S
C2494 H2507 0.961 . S
C2494 H2508 0.961 . S
C2495 C2492 1.539 . S
C2495 H2509 0.958 . S
C2495 H2510 0.961 . S
C2495 H2511 0.960 . S
H2496 C2480 0.931 . S
H2497 C2485 0.929 . S
H2498 C2486 0.960 . S
H2499 C2486 0.962 . S
H2500 C2486 0.960 . S
H2501 C2487 0.961 . S
H2502 C2487 0.961 . S
H2503 C2487 0.961 . S
H2504 C2488 0.931 . S
H2505 C2493 0.930 . S
H2506 C2494 0.956 . S
H2507 C2494 0.961 . S
H2508 C2494 0.961 . S
H2509 C2495 0.958 . S
H2510 C2495 0.961 . S
H2511 C2495 0.960 . S
C2512 C2513 1.391 . S
C2512 C2514 1.394 . S
C2512 H2528 0.931 . S
C2513 C2512 1.391 . S
C2513 C2517 1.376 . S
C2514 C2512 1.394 . S
C2514 C2515 1.369 . S
C2514 C2518 1.531 . S
C2515 C2514 1.369 . S
C2515 C2516 1.410 . S
C2515 C2523 1.503 . S
C2516 C2515 1.410 . S
C2516 C2517 1.392 . S
C2516 C2519 1.511 . S
C2517 C2513 1.376 . S
C2517 C2516 1.392 . S
C2517 H2529 0.929 . S
C2518 C2514 1.531 . S
C2518 H2530 0.960 . S
C2518 H2531 0.962 . S
C2518 H2532 0.960 . S
C2519 C2516 1.511 . S
C2519 H2533 0.961 . S
C2519 H2534 0.961 . S
C2519 H2535 0.961 . S
C2520 C2521 1.370 . S
C2520 C2522 1.363 . S
C2520 H2536 0.931 . S
C2521 C2520 1.370 . S
C2521 C2525 1.408 . S
C2522 C2520 1.363 . S
C2522 C2523 1.370 . S
C2522 C2526 1.524 . S
C2523 C2515 1.503 . S
C2523 C2522 1.370 . S
C2523 C2524 1.403 . S
C2524 C2523 1.403 . S
C2524 C2525 1.404 . S
C2524 C2527 1.539 . S
C2525 C2521 1.408 . S
C2525 C2524 1.404 . S
C2525 H2537 0.930 . S
C2526 C2522 1.524 . S
C2526 H2538 0.956 . S
C2526 H2539 0.961 . S
C2526 H2540 0.961 . S
C2527 C2524 1.539 . S
C2527 H2541 0.958 . S
C2527 H2542 0.961 . S
C2527 H2543 0.960 . S
H2528 C2512 0.931 . S
H2529 C2517 0.929 . S
H2530 C2518 0.960 . S
H2531 C2518 0.962 . S
H2532 C2518 0.960 . S
H2533 C2519 0.961 . S
H2534 C2519 0.961 . S
H2535 C2519 0.961 . S
H2536 C2520 0.931 . S
H2537 C2525 0.930 . S
H2538 C2526 0.956 . S
H2539 C2526 0.961 . S
H2540 C2526 0.961 . S
H2541 C2527 0.958 . S
H2542 C2527 0.961 . S
H2543 C2527 0.960 . S
C2544 C2545 1.391 . S
C2544 C2546 1.394 . S
C2544 H2560 0.931 . S
C2545 C2544 1.391 . S
C2545 C2549 1.376 . S
C2546 C2544 1.394 . S
C2546 C2547 1.369 . S
C2546 C2550 1.531 . S
C2547 C2546 1.369 . S
C2547 C2548 1.410 . S
C2547 C2555 1.503 . S
C2548 C2547 1.410 . S
C2548 C2549 1.392 . S
C2548 C2551 1.511 . S
C2549 C2545 1.376 . S
C2549 C2548 1.392 . S
C2549 H2561 0.929 . S
C2550 C2546 1.531 . S
C2550 H2562 0.960 . S
C2550 H2563 0.962 . S
C2550 H2564 0.960 . S
C2551 C2548 1.511 . S
C2551 H2565 0.961 . S
C2551 H2566 0.961 . S
C2551 H2567 0.961 . S
C2552 C2553 1.370 . S
C2552 C2554 1.363 . S
C2552 H2568 0.931 . S
C2553 C2552 1.370 . S
C2553 C2557 1.408 . S
C2554 C2552 1.363 . S
C2554 C2555 1.370 . S
C2554 C2558 1.524 . S
C2555 C2547 1.503 . S
C2555 C2554 1.370 . S
C2555 C2556 1.403 . S
C2556 C2555 1.403 . S
C2556 C2557 1.404 . S
C2556 C2559 1.539 . S
C2557 C2553 1.408 . S
C2557 C2556 1.404 . S
C2557 H2569 0.930 . S
C2558 C2554 1.524 . S
C2558 H2570 0.956 . S
C2558 H2571 0.961 . S
C2558 H2572 0.961 . S
C2559 C2556 1.539 . S
C2559 H2573 0.958 . S
C2559 H2574 0.961 . S
C2559 H2575 0.960 . S
H2560 C2544 0.931 . S
H2561 C2549 0.929 . S
H2562 C2550 0.960 . S
H2563 C2550 0.962 . S
H2564 C2550 0.960 . S
H2565 C2551 0.961 . S
H2566 C2551 0.961 . S
H2567 C2551 0.961 . S
H2568 C2552 0.931 . S
H2569 C2557 0.930 . S
H2570 C2558 0.956 . S
H2571 C2558 0.961 . S
H2572 C2558 0.961 . S
H2573 C2559 0.958 . S
H2574 C2559 0.961 . S
H2575 C2559 0.960 . S
C2576 C2577 1.391 . S
C2576 C2578 1.394 . S
C2576 H2592 0.931 . S
C2577 C2576 1.391 . S
C2577 C2581 1.376 . S
C2578 C2576 1.394 . S
C2578 C2579 1.369 . S
C2578 C2582 1.531 . S
C2579 C2578 1.369 . S
C2579 C2580 1.410 . S
C2579 C2587 1.503 . S
C2580 C2579 1.410 . S
C2580 C2581 1.392 . S
C2580 C2583 1.511 . S
C2581 C2577 1.376 . S
C2581 C2580 1.392 . S
C2581 H2593 0.929 . S
C2582 C2578 1.531 . S
C2582 H2594 0.960 . S
C2582 H2595 0.962 . S
C2582 H2596 0.960 . S
C2583 C2580 1.511 . S
C2583 H2597 0.961 . S
C2583 H2598 0.961 . S
C2583 H2599 0.961 . S
C2584 C2585 1.370 . S
C2584 C2586 1.363 . S
C2584 H2600 0.931 . S
C2585 C2584 1.370 . S
C2585 C2589 1.408 . S
C2586 C2584 1.363 . S
C2586 C2587 1.370 . S
C2586 C2590 1.524 . S
C2587 C2579 1.503 . S
C2587 C2586 1.370 . S
C2587 C2588 1.403 . S
C2588 C2587 1.403 . S
C2588 C2589 1.404 . S
C2588 C2591 1.539 . S
C2589 C2585 1.408 . S
C2589 C2588 1.404 . S
C2589 H2601 0.930 . S
C2590 C2586 1.524 . S
C2590 H2602 0.956 . S
C2590 H2603 0.961 . S
C2590 H2604 0.961 . S
C2591 C2588 1.539 . S
C2591 H2605 0.958 . S
C2591 H2606 0.961 . S
C2591 H2607 0.960 . S
H2592 C2576 0.931 . S
H2593 C2581 0.929 . S
H2594 C2582 0.960 . S
H2595 C2582 0.962 . S
H2596 C2582 0.960 . S
H2597 C2583 0.961 . S
H2598 C2583 0.961 . S
H2599 C2583 0.961 . S
H2600 C2584 0.931 . S
H2601 C2589 0.930 . S
H2602 C2590 0.956 . S
H2603 C2590 0.961 . S
H2604 C2590 0.961 . S
H2605 C2591 0.958 . S
H2606 C2591 0.961 . S
H2607 C2591 0.960 . S
C2608 C2609 1.391 . S
C2608 C2610 1.394 . S
C2608 H2624 0.931 . S
C2609 C2608 1.391 . S
C2609 C2613 1.376 . S
C2610 C2608 1.394 . S
C2610 C2611 1.369 . S
C2610 C2614 1.531 . S
C2611 C2610 1.369 . S
C2611 C2612 1.410 . S
C2611 C2619 1.503 . S
C2612 C2611 1.410 . S
C2612 C2613 1.392 . S
C2612 C2615 1.511 . S
C2613 C2609 1.376 . S
C2613 C2612 1.392 . S
C2613 H2625 0.929 . S
C2614 C2610 1.531 . S
C2614 H2626 0.960 . S
C2614 H2627 0.962 . S
C2614 H2628 0.960 . S
C2615 C2612 1.511 . S
C2615 H2629 0.961 . S
C2615 H2630 0.961 . S
C2615 H2631 0.961 . S
C2616 C2617 1.370 . S
C2616 C2618 1.363 . S
C2616 H2632 0.931 . S
C2617 C2616 1.370 . S
C2617 C2621 1.408 . S
C2618 C2616 1.363 . S
C2618 C2619 1.370 . S
C2618 C2622 1.524 . S
C2619 C2611 1.503 . S
C2619 C2618 1.370 . S
C2619 C2620 1.403 . S
C2620 C2619 1.403 . S
C2620 C2621 1.404 . S
C2620 C2623 1.539 . S
C2621 C2617 1.408 . S
C2621 C2620 1.404 . S
C2621 H2633 0.930 . S
C2622 C2618 1.524 . S
C2622 H2634 0.956 . S
C2622 H2635 0.961 . S
C2622 H2636 0.961 . S
C2623 C2620 1.539 . S
C2623 H2637 0.958 . S
C2623 H2638 0.961 . S
C2623 H2639 0.960 . S
H2624 C2608 0.931 . S
H2625 C2613 0.929 . S
H2626 C2614 0.960 . S
H2627 C2614 0.962 . S
H2628 C2614 0.960 . S
H2629 C2615 0.961 . S
H2630 C2615 0.961 . S
H2631 C2615 0.961 . S
H2632 C2616 0.931 . S
H2633 C2621 0.930 . S
H2634 C2622 0.956 . S
H2635 C2622 0.961 . S
H2636 C2622 0.961 . S
H2637 C2623 0.958 . S
H2638 C2623 0.961 . S
H2639 C2623 0.960 . S
C2640 C2641 1.391 . S
C2640 C2642 1.394 . S
C2640 H2656 0.931 . S
C2641 C2640 1.391 . S
C2641 C2645 1.376 . S
C2642 C2640 1.394 . S
C2642 C2643 1.369 . S
C2642 C2646 1.531 . S
C2643 C2642 1.369 . S
C2643 C2644 1.410 . S
C2643 C2651 1.503 . S
C2644 C2643 1.410 . S
C2644 C2645 1.392 . S
C2644 C2647 1.511 . S
C2645 C2641 1.376 . S
C2645 C2644 1.392 . S
C2645 H2657 0.929 . S
C2646 C2642 1.531 . S
C2646 H2658 0.960 . S
C2646 H2659 0.962 . S
C2646 H2660 0.960 . S
C2647 C2644 1.511 . S
C2647 H2661 0.961 . S
C2647 H2662 0.961 . S
C2647 H2663 0.961 . S
C2648 C2649 1.370 . S
C2648 C2650 1.363 . S
C2648 H2664 0.931 . S
C2649 C2648 1.370 . S
C2649 C2653 1.408 . S
C2650 C2648 1.363 . S
C2650 C2651 1.370 . S
C2650 C2654 1.524 . S
C2651 C2643 1.503 . S
C2651 C2650 1.370 . S
C2651 C2652 1.403 . S
C2652 C2651 1.403 . S
C2652 C2653 1.404 . S
C2652 C2655 1.539 . S
C2653 C2649 1.408 . S
C2653 C2652 1.404 . S
C2653 H2665 0.930 . S
C2654 C2650 1.524 . S
C2654 H2666 0.956 . S
C2654 H2667 0.961 . S
C2654 H2668 0.961 . S
C2655 C2652 1.539 . S
C2655 H2669 0.958 . S
C2655 H2670 0.961 . S
C2655 H2671 0.960 . S
H2656 C2640 0.931 . S
H2657 C2645 0.929 . S
H2658 C2646 0.960 . S
H2659 C2646 0.962 . S
H2660 C2646 0.960 . S
H2661 C2647 0.961 . S
H2662 C2647 0.961 . S
H2663 C2647 0.961 . S
H2664 C2648 0.931 . S
H2665 C2653 0.930 . S
H2666 C2654 0.956 . S
H2667 C2654 0.961 . S
H2668 C2654 0.961 . S
H2669 C2655 0.958 . S
H2670 C2655 0.961 . S
H2671 C2655 0.960 . S
C2672 C2673 1.391 . S
C2672 C2674 1.394 . S
C2672 H2688 0.931 . S
C2673 C2672 1.391 . S
C2673 C2677 1.376 . S
C2674 C2672 1.394 . S
C2674 C2675 1.369 . S
C2674 C2678 1.531 . S
C2675 C2674 1.369 . S
C2675 C2676 1.410 . S
C2675 C2683 1.503 . S
C2676 C2675 1.410 . S
C2676 C2677 1.392 . S
C2676 C2679 1.511 . S
C2677 C2673 1.376 . S
C2677 C2676 1.392 . S
C2677 H2689 0.929 . S
C2678 C2674 1.531 . S
C2678 H2690 0.960 . S
C2678 H2691 0.962 . S
C2678 H2692 0.960 . S
C2679 C2676 1.511 . S
C2679 H2693 0.961 . S
C2679 H2694 0.961 . S
C2679 H2695 0.961 . S
C2680 C2681 1.370 . S
C2680 C2682 1.363 . S
C2680 H2696 0.931 . S
C2681 C2680 1.370 . S
C2681 C2685 1.408 . S
C2682 C2680 1.363 . S
C2682 C2683 1.370 . S
C2682 C2686 1.524 . S
C2683 C2675 1.503 . S
C2683 C2682 1.370 . S
C2683 C2684 1.403 . S
C2684 C2683 1.403 . S
C2684 C2685 1.404 . S
C2684 C2687 1.539 . S
C2685 C2681 1.408 . S
C2685 C2684 1.404 . S
C2685 H2697 0.930 . S
C2686 C2682 1.524 . S
C2686 H2698 0.956 . S
C2686 H2699 0.961 . S
C2686 H2700 0.961 . S
C2687 C2684 1.539 . S
C2687 H2701 0.958 . S
C2687 H2702 0.961 . S
C2687 H2703 0.960 . S
H2688 C2672 0.931 . S
H2689 C2677 0.929 . S
H2690 C2678 0.960 . S
H2691 C2678 0.962 . S
H2692 C2678 0.960 . S
H2693 C2679 0.961 . S
H2694 C2679 0.961 . S
H2695 C2679 0.961 . S
H2696 C2680 0.931 . S
H2697 C2685 0.930 . S
H2698 C2686 0.956 . S
H2699 C2686 0.961 . S
H2700 C2686 0.961 . S
H2701 C2687 0.958 . S
H2702 C2687 0.961 . S
H2703 C2687 0.960 . S
C2704 C2705 1.391 . S
C2704 C2706 1.394 . S
C2704 H2720 0.931 . S
C2705 C2704 1.391 . S
C2705 C2709 1.376 . S
C2706 C2704 1.394 . S
C2706 C2707 1.369 . S
C2706 C2710 1.531 . S
C2707 C2706 1.369 . S
C2707 C2708 1.410 . S
C2707 C2715 1.503 . S
C2708 C2707 1.410 . S
C2708 C2709 1.392 . S
C2708 C2711 1.511 . S
C2709 C2705 1.376 . S
C2709 C2708 1.392 . S
C2709 H2721 0.929 . S
C2710 C2706 1.531 . S
C2710 H2722 0.960 . S
C2710 H2723 0.962 . S
C2710 H2724 0.960 . S
C2711 C2708 1.511 . S
C2711 H2725 0.961 . S
C2711 H2726 0.961 . S
C2711 H2727 0.961 . S
C2712 C2713 1.370 . S
C2712 C2714 1.363 . S
C2712 H2728 0.931 . S
C2713 C2712 1.370 . S
C2713 C2717 1.408 . S
C2714 C2712 1.363 . S
C2714 C2715 1.370 . S
C2714 C2718 1.524 . S
C2715 C2707 1.503 . S
C2715 C2714 1.370 . S
C2715 C2716 1.403 . S
C2716 C2715 1.403 . S
C2716 C2717 1.404 . S
C2716 C2719 1.539 . S
C2717 C2713 1.408 . S
C2717 C2716 1.404 . S
C2717 H2729 0.930 . S
C2718 C2714 1.524 . S
C2718 H2730 0.956 . S
C2718 H2731 0.961 . S
C2718 H2732 0.961 . S
C2719 C2716 1.539 . S
C2719 H2733 0.958 . S
C2719 H2734 0.961 . S
C2719 H2735 0.960 . S
H2720 C2704 0.931 . S
H2721 C2709 0.929 . S
H2722 C2710 0.960 . S
H2723 C2710 0.962 . S
H2724 C2710 0.960 . S
H2725 C2711 0.961 . S
H2726 C2711 0.961 . S
H2727 C2711 0.961 . S
H2728 C2712 0.931 . S
H2729 C2717 0.930 . S
H2730 C2718 0.956 . S
H2731 C2718 0.961 . S
H2732 C2718 0.961 . S
H2733 C2719 0.958 . S
H2734 C2719 0.961 . S
H2735 C2719 0.960 . S
C2736 C2737 1.391 . S
C2736 C2738 1.394 . S
C2736 H2752 0.931 . S
C2737 C2736 1.391 . S
C2737 C2741 1.376 . S
C2738 C2736 1.394 . S
C2738 C2739 1.369 . S
C2738 C2742 1.531 . S
C2739 C2738 1.369 . S
C2739 C2740 1.410 . S
C2739 C2747 1.503 . S
C2740 C2739 1.410 . S
C2740 C2741 1.392 . S
C2740 C2743 1.511 . S
C2741 C2737 1.376 . S
C2741 C2740 1.392 . S
C2741 H2753 0.929 . S
C2742 C2738 1.531 . S
C2742 H2754 0.960 . S
C2742 H2755 0.962 . S
C2742 H2756 0.960 . S
C2743 C2740 1.511 . S
C2743 H2757 0.961 . S
C2743 H2758 0.961 . S
C2743 H2759 0.961 . S
C2744 C2745 1.370 . S
C2744 C2746 1.363 . S
C2744 H2760 0.931 . S
C2745 C2744 1.370 . S
C2745 C2749 1.408 . S
C2746 C2744 1.363 . S
C2746 C2747 1.370 . S
C2746 C2750 1.524 . S
C2747 C2739 1.503 . S
C2747 C2746 1.370 . S
C2747 C2748 1.403 . S
C2748 C2747 1.403 . S
C2748 C2749 1.404 . S
C2748 C2751 1.539 . S
C2749 C2745 1.408 . S
C2749 C2748 1.404 . S
C2749 H2761 0.930 . S
C2750 C2746 1.524 . S
C2750 H2762 0.956 . S
C2750 H2763 0.961 . S
C2750 H2764 0.961 . S
C2751 C2748 1.539 . S
C2751 H2765 0.958 . S
C2751 H2766 0.961 . S
C2751 H2767 0.960 . S
H2752 C2736 0.931 . S
H2753 C2741 0.929 . S
H2754 C2742 0.960 . S
H2755 C2742 0.962 . S
H2756 C2742 0.960 . S
H2757 C2743 0.961 . S
H2758 C2743 0.961 . S
H2759 C2743 0.961 . S
H2760 C2744 0.931 . S
H2761 C2749 0.930 . S
H2762 C2750 0.956 . S
H2763 C2750 0.961 . S
H2764 C2750 0.961 . S
H2765 C2751 0.958 . S
H2766 C2751 0.961 . S
H2767 C2751 0.960 . S
C2768 C2769 1.391 . S
C2768 C2770 1.394 . S
C2768 H2784 0.931 . S
C2769 C2768 1.391 . S
C2769 C2773 1.376 . S
C2770 C2768 1.394 . S
C2770 C2771 1.369 . S
C2770 C2774 1.531 . S
C2771 C2770 1.369 . S
C2771 C2772 1.410 . S
C2771 C2779 1.503 . S
C2772 C2771 1.410 . S
C2772 C2773 1.392 . S
C2772 C2775 1.511 . S
C2773 C2769 1.376 . S
C2773 C2772 1.392 . S
C2773 H2785 0.929 . S
C2774 C2770 1.531 . S
C2774 H2786 0.960 . S
C2774 H2787 0.962 . S
C2774 H2788 0.960 . S
C2775 C2772 1.511 . S
C2775 H2789 0.961 . S
C2775 H2790 0.961 . S
C2775 H2791 0.961 . S
C2776 C2777 1.370 . S
C2776 C2778 1.363 . S
C2776 H2792 0.931 . S
C2777 C2776 1.370 . S
C2777 C2781 1.408 . S
C2778 C2776 1.363 . S
C2778 C2779 1.370 . S
C2778 C2782 1.524 . S
C2779 C2771 1.503 . S
C2779 C2778 1.370 . S
C2779 C2780 1.403 . S
C2780 C2779 1.403 . S
C2780 C2781 1.404 . S
C2780 C2783 1.539 . S
C2781 C2777 1.408 . S
C2781 C2780 1.404 . S
C2781 H2793 0.930 . S
C2782 C2778 1.524 . S
C2782 H2794 0.956 . S
C2782 H2795 0.961 . S
C2782 H2796 0.961 . S
C2783 C2780 1.539 . S
C2783 H2797 0.958 . S
C2783 H2798 0.961 . S
C2783 H2799 0.960 . S
H2784 C2768 0.931 . S
H2785 C2773 0.929 . S
H2786 C2774 0.960 . S
H2787 C2774 0.962 . S
H2788 C2774 0.960 . S
H2789 C2775 0.961 . S
H2790 C2775 0.961 . S
H2791 C2775 0.961 . S
H2792 C2776 0.931 . S
H2793 C2781 0.930 . S
H2794 C2782 0.956 . S
H2795 C2782 0.961 . S
H2796 C2782 0.961 . S
H2797 C2783 0.958 . S
H2798 C2783 0.961 . S
H2799 C2783 0.960 . S
C2800 C2801 1.391 . S
C2800 C2802 1.394 . S
C2800 H2816 0.931 . S
C2801 C2800 1.391 . S
C2801 C2805 1.376 . S
C2802 C2800 1.394 . S
C2802 C2803 1.369 . S
C2802 C2806 1.531 . S
C2803 C2802 1.369 . S
C2803 C2804 1.410 . S
C2803 C2811 1.503 . S
C2804 C2803 1.410 . S
C2804 C2805 1.392 . S
C2804 C2807 1.511 . S
C2805 C2801 1.376 . S
C2805 C2804 1.392 . S
C2805 H2817 0.929 . S
C2806 C2802 1.531 . S
C2806 H2818 0.960 . S
C2806 H2819 0.962 . S
C2806 H2820 0.960 . S
C2807 C2804 1.511 . S
C2807 H2821 0.961 . S
C2807 H2822 0.961 . S
C2807 H2823 0.961 . S
C2808 C2809 1.370 . S
C2808 C2810 1.363 . S
C2808 H2824 0.931 . S
C2809 C2808 1.370 . S
C2809 C2813 1.408 . S
C2810 C2808 1.363 . S
C2810 C2811 1.370 . S
C2810 C2814 1.524 . S
C2811 C2803 1.503 . S
C2811 C2810 1.370 . S
C2811 C2812 1.403 . S
C2812 C2811 1.403 . S
C2812 C2813 1.404 . S
C2812 C2815 1.539 . S
C2813 C2809 1.408 . S
C2813 C2812 1.404 . S
C2813 H2825 0.930 . S
C2814 C2810 1.524 . S
C2814 H2826 0.956 . S
C2814 H2827 0.961 . S
C2814 H2828 0.961 . S
C2815 C2812 1.539 . S
C2815 H2829 0.958 . S
C2815 H2830 0.961 . S
C2815 H2831 0.960 . S
H2816 C2800 0.931 . S
H2817 C2805 0.929 . S
H2818 C2806 0.960 . S
H2819 C2806 0.962 . S
H2820 C2806 0.960 . S
H2821 C2807 0.961 . S
H2822 C2807 0.961 . S
H2823 C2807 0.961 . S
H2824 C2808 0.931 . S
H2825 C2813 0.930 . S
H2826 C2814 0.956 . S
H2827 C2814 0.961 . S
H2828 C2814 0.961 . S
H2829 C2815 0.958 . S
H2830 C2815 0.961 . S
H2831 C2815 0.960 . S
C2832 C2833 1.391 . S
C2832 C2834 1.394 . S
C2832 H2848 0.931 . S
C2833 C2832 1.391 . S
C2833 C2837 1.376 . S
C2834 C2832 1.394 . S
C2834 C2835 1.369 . S
C2834 C2838 1.531 . S
C2835 C2834 1.369 . S
C2835 C2836 1.410 . S
C2835 C2843 1.503 . S
C2836 C2835 1.410 . S
C2836 C2837 1.392 . S
C2836 C2839 1.511 . S
C2837 C2833 1.376 . S
C2837 C2836 1.392 . S
C2837 H2849 0.929 1_556 S
C2838 C2834 1.531 . S
C2838 H2850 0.960 . S
C2838 H2851 0.962 . S
C2838 H2852 0.960 . S
C2839 C2836 1.511 . S
C2839 H2853 0.961 1_556 S
C2839 H2854 0.961 . S
C2839 H2855 0.961 . S
C2840 C2841 1.370 . S
C2840 C2842 1.363 . S
C2840 H2856 0.931 . S
C2841 C2840 1.370 . S
C2841 C2845 1.408 . S
C2842 C2840 1.363 . S
C2842 C2843 1.370 . S
C2842 C2846 1.524 . S
C2843 C2835 1.503 . S
C2843 C2842 1.370 . S
C2843 C2844 1.403 . S
C2844 C2843 1.403 . S
C2844 C2845 1.404 . S
C2844 C2847 1.539 . S
C2845 C2841 1.408 . S
C2845 C2844 1.404 . S
C2845 H2857 0.930 . S
C2846 C2842 1.524 . S
C2846 H2858 0.956 . S
C2846 H2859 0.961 . S
C2846 H2860 0.961 . S
C2847 C2844 1.539 . S
C2847 H2861 0.958 . S
C2847 H2862 0.961 . S
C2847 H2863 0.960 . S
H2848 C2832 0.931 . S
H2849 C2837 0.929 1_554 S
H2850 C2838 0.960 . S
H2851 C2838 0.962 . S
H2852 C2838 0.960 . S
H2853 C2839 0.961 1_554 S
H2854 C2839 0.961 . S
H2855 C2839 0.961 . S
H2856 C2840 0.931 . S
H2857 C2845 0.930 . S
H2858 C2846 0.956 . S
H2859 C2846 0.961 . S
H2860 C2846 0.961 . S
H2861 C2847 0.958 . S
H2862 C2847 0.961 . S
H2863 C2847 0.960 . S
C2864 C2865 1.391 . S
C2864 C2866 1.394 . S
C2864 H2880 0.931 . S
C2865 C2864 1.391 . S
C2865 C2869 1.376 . S
C2866 C2864 1.394 . S
C2866 C2867 1.369 . S
C2866 C2870 1.531 . S
C2867 C2866 1.369 . S
C2867 C2868 1.410 . S
C2867 C2875 1.503 . S
C2868 C2867 1.410 . S
C2868 C2869 1.392 . S
C2868 C2871 1.511 . S
C2869 C2865 1.376 . S
C2869 C2868 1.392 . S
C2869 H2881 0.929 . S
C2870 C2866 1.531 . S
C2870 H2882 0.960 . S
C2870 H2883 0.962 . S
C2870 H2884 0.960 . S
C2871 C2868 1.511 . S
C2871 H2885 0.961 . S
C2871 H2886 0.961 . S
C2871 H2887 0.961 . S
C2872 C2873 1.370 . S
C2872 C2874 1.363 . S
C2872 H2888 0.931 . S
C2873 C2872 1.370 . S
C2873 C2877 1.408 . S
C2874 C2872 1.363 . S
C2874 C2875 1.370 . S
C2874 C2878 1.524 . S
C2875 C2867 1.503 . S
C2875 C2874 1.370 . S
C2875 C2876 1.403 . S
C2876 C2875 1.403 . S
C2876 C2877 1.404 . S
C2876 C2879 1.539 . S
C2877 C2873 1.408 . S
C2877 C2876 1.404 . S
C2877 H2889 0.930 . S
C2878 C2874 1.524 . S
C2878 H2890 0.956 . S
C2878 H2891 0.961 . S
C2878 H2892 0.961 . S
C2879 C2876 1.539 . S
C2879 H2893 0.958 . S
C2879 H2894 0.961 . S
C2879 H2895 0.960 . S
H2880 C2864 0.931 . S
H2881 C2869 0.929 . S
H2882 C2870 0.960 . S
H2883 C2870 0.962 . S
H2884 C2870 0.960 . S
H2885 C2871 0.961 . S
H2886 C2871 0.961 . S
H2887 C2871 0.961 . S
H2888 C2872 0.931 . S
H2889 C2877 0.930 . S
H2890 C2878 0.956 . S
H2891 C2878 0.961 . S
H2892 C2878 0.961 . S
H2893 C2879 0.958 . S
H2894 C2879 0.961 . S
H2895 C2879 0.960 . S
C2896 C2897 1.391 . S
C2896 C2898 1.359 1_554 S
C2896 H2912 0.931 . S
C2897 C2896 1.391 . S
C2897 C2901 1.376 . S
C2898 C2896 1.359 1_556 S
C2898 C2899 1.358 1_556 S
C2898 C2902 1.580 . S
C2899 C2898 1.358 1_554 S
C2899 C2900 1.410 . S
C2899 C2907 1.503 1_554 S
C2900 C2899 1.410 . S
C2900 C2901 1.392 . S
C2900 C2903 1.511 . S
C2901 C2897 1.376 . S
C2901 C2900 1.392 . S
C2901 H2913 0.929 . S
C2902 C2898 1.580 . S
C2902 H2914 0.960 . S
C2902 H2915 0.962 . S
C2902 H2916 0.960 . S
C2903 C2900 1.511 . S
C2903 H2917 0.961 . S
C2903 H2918 0.961 . S
C2903 H2919 0.961 . S
C2904 C2905 1.370 . S
C2904 C2906 1.363 . S
C2904 H2920 0.931 . S
C2905 C2904 1.370 . S
C2905 C2909 1.408 . S
C2906 C2904 1.363 . S
C2906 C2907 1.370 . S
C2906 C2910 1.524 . S
C2907 C2899 1.503 1_556 S
C2907 C2906 1.370 . S
C2907 C2908 1.403 . S
C2908 C2907 1.403 . S
C2908 C2909 1.404 . S
C2908 C2911 1.539 1_556 S
C2909 C2905 1.408 . S
C2909 C2908 1.404 . S
C2909 H2921 0.930 . S
C2910 C2906 1.524 . S
C2910 H2922 0.956 . S
C2910 H2923 0.961 . S
C2910 H2924 0.961 . S
C2911 C2908 1.539 1_554 S
C2911 H2925 0.958 . S
C2911 H2926 0.961 . S
C2911 H2927 0.960 . S
H2912 C2896 0.931 . S
H2913 C2901 0.929 . S
H2914 C2902 0.960 . S
H2915 C2902 0.962 . S
H2916 C2902 0.960 . S
H2917 C2903 0.961 . S
H2918 C2903 0.961 . S
H2919 C2903 0.961 . S
H2920 C2904 0.931 . S
H2921 C2909 0.930 . S
H2922 C2910 0.956 . S
H2923 C2910 0.961 . S
H2924 C2910 0.961 . S
H2925 C2911 0.958 . S
H2926 C2911 0.961 . S
H2927 C2911 0.960 . S
C2928 C2929 1.391 . S
C2928 C2930 1.394 . S
C2928 H2944 0.911 1_556 S
C2929 C2928 1.391 . S
C2929 C2933 1.376 . S
C2930 C2928 1.394 . S
C2930 C2931 1.369 . S
C2930 C2934 1.531 . S
C2931 C2930 1.369 . S
C2931 C2932 1.410 . S
C2931 C2939 1.503 . S
C2932 C2931 1.410 . S
C2932 C2933 1.392 . S
C2932 C2935 1.511 . S
C2933 C2929 1.376 . S
C2933 C2932 1.392 . S
C2933 H2945 0.929 . S
C2934 C2930 1.531 . S
C2934 H2946 0.960 . S
C2934 H2947 0.962 . S
C2934 H2948 0.960 . S
C2935 C2932 1.511 . S
C2935 H2949 0.961 . S
C2935 H2950 0.961 . S
C2935 H2951 0.961 . S
C2936 C2937 1.370 . S
C2936 C2938 1.363 . S
C2936 H2952 0.931 . S
C2937 C2936 1.370 . S
C2937 C2941 1.408 . S
C2938 C2936 1.363 . S
C2938 C2939 1.370 . S
C2938 C2942 1.524 . S
C2939 C2931 1.503 . S
C2939 C2938 1.370 . S
C2939 C2940 1.403 . S
C2940 C2939 1.403 . S
C2940 C2941 1.404 . S
C2940 C2943 1.539 . S
C2941 C2937 1.408 . S
C2941 C2940 1.404 . S
C2941 H2953 0.930 . S
C2942 C2938 1.524 . S
C2942 H2954 0.956 . S
C2942 H2955 0.961 . S
C2942 H2956 0.961 . S
C2943 C2940 1.539 . S
C2943 H2957 0.958 . S
C2943 H2958 0.961 . S
C2943 H2959 0.960 . S
H2944 C2928 0.911 1_554 S
H2945 C2933 0.929 . S
H2946 C2934 0.960 . S
H2947 C2934 0.962 . S
H2948 C2934 0.960 . S
H2949 C2935 0.961 . S
H2950 C2935 0.961 . S
H2951 C2935 0.961 . S
H2952 C2936 0.931 . S
H2953 C2941 0.930 . S
H2954 C2942 0.956 . S
H2955 C2942 0.961 . S
H2956 C2942 0.961 . S
H2957 C2943 0.958 . S
H2958 C2943 0.961 . S
H2959 C2943 0.960 . S
C2960 C2961 1.391 . S
C2960 C2962 1.394 . S
C2960 H2976 0.931 . S
C2961 C2960 1.391 . S
C2961 C2965 1.376 . S
C2962 C2960 1.394 . S
C2962 C2963 1.369 . S
C2962 C2966 1.531 . S
C2963 C2962 1.369 . S
C2963 C2964 1.410 . S
C2963 C2971 1.503 . S
C2964 C2963 1.410 . S
C2964 C2965 1.392 . S
C2964 C2967 1.511 . S
C2965 C2961 1.376 . S
C2965 C2964 1.392 . S
C2965 H2977 0.929 . S
C2966 C2962 1.531 . S
C2966 H2978 0.960 . S
C2966 H2979 0.962 . S
C2966 H2980 0.960 . S
C2967 C2964 1.511 . S
C2967 H2981 0.961 . S
C2967 H2982 0.961 . S
C2967 H2983 0.961 . S
C2968 C2969 1.370 . S
C2968 C2970 1.363 . S
C2968 H2984 0.931 . S
C2969 C2968 1.370 . S
C2969 C2973 1.408 . S
C2970 C2968 1.363 . S
C2970 C2971 1.370 . S
C2970 C2974 1.524 . S
C2971 C2963 1.503 . S
C2971 C2970 1.370 . S
C2971 C2972 1.403 . S
C2972 C2971 1.403 . S
C2972 C2973 1.404 . S
C2972 C2975 1.539 . S
C2973 C2969 1.408 . S
C2973 C2972 1.404 . S
C2973 H2985 0.930 . S
C2974 C2970 1.524 . S
C2974 H2986 0.956 . S
C2974 H2987 0.961 . S
C2974 H2988 0.961 . S
C2975 C2972 1.539 . S
C2975 H2989 0.958 . S
C2975 H2990 0.961 . S
C2975 H2991 0.960 . S
H2976 C2960 0.931 . S
H2977 C2965 0.929 . S
H2978 C2966 0.960 . S
H2979 C2966 0.962 . S
H2980 C2966 0.960 . S
H2981 C2967 0.961 . S
H2982 C2967 0.961 . S
H2983 C2967 0.961 . S
H2984 C2968 0.931 . S
H2985 C2973 0.930 . S
H2986 C2974 0.956 . S
H2987 C2974 0.961 . S
H2988 C2974 0.961 . S
H2989 C2975 0.958 . S
H2990 C2975 0.961 . S
H2991 C2975 0.960 . S
C2992 C2993 1.391 1_556 S
C2992 C2994 1.394 . S
C2992 H3008 0.931 . S
C2993 C2992 1.391 1_554 S
C2993 C2997 1.376 . S
C2994 C2992 1.394 . S
C2994 C2995 1.369 . S
C2994 C2998 1.531 . S
C2995 C2994 1.369 . S
C2995 C2996 1.410 1_556 S
C2995 C3003 1.503 . S
C2996 C2995 1.410 1_554 S
C2996 C2997 1.392 . S
C2996 C2999 1.511 . S
C2997 C2993 1.376 . S
C2997 C2996 1.392 . S
C2997 H3009 0.929 . S
C2998 C2994 1.531 . S
C2998 H3010 0.960 . S
C2998 H3011 0.962 . S
C2998 H3012 0.960 . S
C2999 C2996 1.511 . S
C2999 H3013 0.961 . S
C2999 H3014 0.961 1_554 S
C2999 H3015 0.961 . S
C3000 C3001 1.370 . S
C3000 C3002 1.363 . S
C3000 H3016 0.931 . S
C3001 C3000 1.370 . S
C3001 C3005 1.408 . S
C3002 C3000 1.363 . S
C3002 C3003 1.370 . S
C3002 C3006 1.524 . S
C3003 C2995 1.503 . S
C3003 C3002 1.370 . S
C3003 C3004 1.403 . S
C3004 C3003 1.403 . S
C3004 C3005 1.404 . S
C3004 C3007 1.539 . S
C3005 C3001 1.408 . S
C3005 C3004 1.404 . S
C3005 H3017 0.930 . S
C3006 C3002 1.524 . S
C3006 H3018 0.956 . S
C3006 H3019 0.961 . S
C3006 H3020 0.961 . S
C3007 C3004 1.539 . S
C3007 H3021 0.958 . S
C3007 H3022 0.961 1_556 S
C3007 H3023 0.960 1_556 S
H3008 C2992 0.931 . S
H3009 C2997 0.929 . S
H3010 C2998 0.960 . S
H3011 C2998 0.962 . S
H3012 C2998 0.960 . S
H3013 C2999 0.961 . S
H3014 C2999 0.961 1_556 S
H3015 C2999 0.961 . S
H3016 C3000 0.931 . S
H3017 C3005 0.930 . S
H3018 C3006 0.956 . S
H3019 C3006 0.961 . S
H3020 C3006 0.961 . S
H3021 C3007 0.958 . S
H3022 C3007 0.961 1_554 S
H3023 C3007 0.960 1_554 S
C3024 C3025 1.391 . S
C3024 C3026 1.394 . S
C3024 H3040 0.931 . S
C3025 C3024 1.391 . S
C3025 C3029 1.376 . S
C3026 C3024 1.394 . S
C3026 C3027 1.369 . S
C3026 C3030 1.531 . S
C3027 C3026 1.369 . S
C3027 C3028 1.410 . S
C3027 C3035 1.503 . S
C3028 C3027 1.410 . S
C3028 C3029 1.392 . S
C3028 C3031 1.511 . S
C3029 C3025 1.376 . S
C3029 C3028 1.392 . S
C3029 H3041 0.929 . S
C3030 C3026 1.531 . S
C3030 H3042 0.960 . S
C3030 H3043 0.962 . S
C3030 H3044 0.960 . S
C3031 C3028 1.511 . S
C3031 H3045 0.961 . S
C3031 H3046 0.961 . S
C3031 H3047 0.961 . S
C3032 C3033 1.370 . S
C3032 C3034 1.363 . S
C3032 H3048 0.931 . S
C3033 C3032 1.370 . S
C3033 C3037 1.408 . S
C3034 C3032 1.363 . S
C3034 C3035 1.370 . S
C3034 C3038 1.524 . S
C3035 C3027 1.503 . S
C3035 C3034 1.370 . S
C3035 C3036 1.403 . S
C3036 C3035 1.403 . S
C3036 C3037 1.404 . S
C3036 C3039 1.539 . S
C3037 C3033 1.408 . S
C3037 C3036 1.404 . S
C3037 H3049 0.930 . S
C3038 C3034 1.524 . S
C3038 H3050 0.956 . S
C3038 H3051 0.961 . S
C3038 H3052 0.961 . S
C3039 C3036 1.539 . S
C3039 H3053 0.958 . S
C3039 H3054 0.961 . S
C3039 H3055 0.960 . S
H3040 C3024 0.931 . S
H3041 C3029 0.929 . S
H3042 C3030 0.960 . S
H3043 C3030 0.962 . S
H3044 C3030 0.960 . S
H3045 C3031 0.961 . S
H3046 C3031 0.961 . S
H3047 C3031 0.961 . S
H3048 C3032 0.931 . S
H3049 C3037 0.930 . S
H3050 C3038 0.956 . S
H3051 C3038 0.961 . S
H3052 C3038 0.961 . S
H3053 C3039 0.958 . S
H3054 C3039 0.961 . S
H3055 C3039 0.960 . S
C3056 C3057 1.391 . S
C3056 C3058 1.394 . S
C3056 H3072 0.931 . S
C3057 C3056 1.391 . S
C3057 C3061 1.376 . S
C3058 C3056 1.394 . S
C3058 C3059 1.369 . S
C3058 C3062 1.531 . S
C3059 C3058 1.369 . S
C3059 C3060 1.410 . S
C3059 C3067 1.503 . S
C3060 C3059 1.410 . S
C3060 C3061 1.392 . S
C3060 C3063 1.511 . S
C3061 C3057 1.376 . S
C3061 C3060 1.392 . S
C3061 H3073 0.929 . S
C3062 C3058 1.531 . S
C3062 H3074 0.960 . S
C3062 H3075 0.962 . S
C3062 H3076 0.960 . S
C3063 C3060 1.511 . S
C3063 H3077 0.961 . S
C3063 H3078 0.961 . S
C3063 H3079 0.961 . S
C3064 C3065 1.370 . S
C3064 C3066 1.363 . S
C3064 H3080 0.931 . S
C3065 C3064 1.370 . S
C3065 C3069 1.408 . S
C3066 C3064 1.363 . S
C3066 C3067 1.370 . S
C3066 C3070 1.524 . S
C3067 C3059 1.503 . S
C3067 C3066 1.370 . S
C3067 C3068 1.403 . S
C3068 C3067 1.403 . S
C3068 C3069 1.404 . S
C3068 C3071 1.539 . S
C3069 C3065 1.408 . S
C3069 C3068 1.404 . S
C3069 H3081 0.930 . S
C3070 C3066 1.524 . S
C3070 H3082 0.956 . S
C3070 H3083 0.961 . S
C3070 H3084 0.961 . S
C3071 C3068 1.539 . S
C3071 H3085 0.958 . S
C3071 H3086 0.961 . S
C3071 H3087 0.960 . S
H3072 C3056 0.931 . S
H3073 C3061 0.929 . S
H3074 C3062 0.960 . S
H3075 C3062 0.962 . S
H3076 C3062 0.960 . S
H3077 C3063 0.961 . S
H3078 C3063 0.961 . S
H3079 C3063 0.961 . S
H3080 C3064 0.931 . S
H3081 C3069 0.930 . S
H3082 C3070 0.956 . S
H3083 C3070 0.961 . S
H3084 C3070 0.961 . S
H3085 C3071 0.958 . S
H3086 C3071 0.961 . S
H3087 C3071 0.960 . S
C3088 C3089 1.391 . S
C3088 C3090 1.394 . S
C3088 H3104 0.931 . S
C3089 C3088 1.391 . S
C3089 C3093 1.376 . S
C3090 C3088 1.394 . S
C3090 C3091 1.369 . S
C3090 C3094 1.531 . S
C3091 C3090 1.369 . S
C3091 C3092 1.410 . S
C3091 C3099 1.503 . S
C3092 C3091 1.410 . S
C3092 C3093 1.392 . S
C3092 C3095 1.511 . S
C3093 C3089 1.376 . S
C3093 C3092 1.392 . S
C3093 H3105 0.929 . S
C3094 C3090 1.531 . S
C3094 H3106 0.960 . S
C3094 H3107 0.962 . S
C3094 H3108 0.960 . S
C3095 C3092 1.511 . S
C3095 H3109 0.961 . S
C3095 H3110 0.961 . S
C3095 H3111 0.961 . S
C3096 C3097 1.370 . S
C3096 C3098 1.363 . S
C3096 H3112 0.931 . S
C3097 C3096 1.370 . S
C3097 C3101 1.408 . S
C3098 C3096 1.363 . S
C3098 C3099 1.370 . S
C3098 C3102 1.524 . S
C3099 C3091 1.503 . S
C3099 C3098 1.370 . S
C3099 C3100 1.403 . S
C3100 C3099 1.403 . S
C3100 C3101 1.404 . S
C3100 C3103 1.539 . S
C3101 C3097 1.408 . S
C3101 C3100 1.404 . S
C3101 H3113 0.930 . S
C3102 C3098 1.524 . S
C3102 H3114 0.956 . S
C3102 H3115 0.961 . S
C3102 H3116 0.961 . S
C3103 C3100 1.539 . S
C3103 H3117 0.958 . S
C3103 H3118 0.961 . S
C3103 H3119 0.960 . S
H3104 C3088 0.931 . S
H3105 C3093 0.929 . S
H3106 C3094 0.960 . S
H3107 C3094 0.962 . S
H3108 C3094 0.960 . S
H3109 C3095 0.961 . S
H3110 C3095 0.961 . S
H3111 C3095 0.961 . S
H3112 C3096 0.931 . S
H3113 C3101 0.930 . S
H3114 C3102 0.956 . S
H3115 C3102 0.961 . S
H3116 C3102 0.961 . S
H3117 C3103 0.958 . S
H3118 C3103 0.961 . S
H3119 C3103 0.960 . S
C3120 C3121 1.391 . S
C3120 C3122 1.394 . S
C3120 H3136 0.931 . S
C3121 C3120 1.391 . S
C3121 C3125 1.376 . S
C3122 C3120 1.394 . S
C3122 C3123 1.369 . S
C3122 C3126 1.531 . S
C3123 C3122 1.369 . S
C3123 C3124 1.410 . S
C3123 C3131 1.503 . S
C3124 C3123 1.410 . S
C3124 C3125 1.392 . S
C3124 C3127 1.511 . S
C3125 C3121 1.376 . S
C3125 C3124 1.392 . S
C3125 H3137 0.929 . S
C3126 C3122 1.531 . S
C3126 H3138 0.960 . S
C3126 H3139 0.962 . S
C3126 H3140 0.960 . S
C3127 C3124 1.511 . S
C3127 H3141 0.961 . S
C3127 H3142 0.961 . S
C3127 H3143 0.961 . S
C3128 C3129 1.370 . S
C3128 C3130 1.363 . S
C3128 H3144 0.931 . S
C3129 C3128 1.370 . S
C3129 C3133 1.408 . S
C3130 C3128 1.363 . S
C3130 C3131 1.370 . S
C3130 C3134 1.524 . S
C3131 C3123 1.503 . S
C3131 C3130 1.370 . S
C3131 C3132 1.403 . S
C3132 C3131 1.403 . S
C3132 C3133 1.404 . S
C3132 C3135 1.539 . S
C3133 C3129 1.408 . S
C3133 C3132 1.404 . S
C3133 H3145 0.930 . S
C3134 C3130 1.524 . S
C3134 H3146 0.956 . S
C3134 H3147 0.961 . S
C3134 H3148 0.961 . S
C3135 C3132 1.539 . S
C3135 H3149 0.958 . S
C3135 H3150 0.961 . S
C3135 H3151 0.960 . S
H3136 C3120 0.931 . S
H3137 C3125 0.929 . S
H3138 C3126 0.960 . S
H3139 C3126 0.962 . S
H3140 C3126 0.960 . S
H3141 C3127 0.961 . S
H3142 C3127 0.961 . S
H3143 C3127 0.961 . S
H3144 C3128 0.931 . S
H3145 C3133 0.930 . S
H3146 C3134 0.956 . S
H3147 C3134 0.961 . S
H3148 C3134 0.961 . S
H3149 C3135 0.958 . S
H3150 C3135 0.961 . S
H3151 C3135 0.960 . S
C3152 C3153 1.391 . S
C3152 C3154 1.394 . S
C3152 H3168 0.931 . S
C3153 C3152 1.391 . S
C3153 C3157 1.376 . S
C3154 C3152 1.394 . S
C3154 C3155 1.369 . S
C3154 C3158 1.531 . S
C3155 C3154 1.369 . S
C3155 C3156 1.410 . S
C3155 C3163 1.503 . S
C3156 C3155 1.410 . S
C3156 C3157 1.392 . S
C3156 C3159 1.511 . S
C3157 C3153 1.376 . S
C3157 C3156 1.392 . S
C3157 H3169 0.929 . S
C3158 C3154 1.531 . S
C3158 H3170 0.960 . S
C3158 H3171 0.962 . S
C3158 H3172 0.960 . S
C3159 C3156 1.511 . S
C3159 H3173 0.961 . S
C3159 H3174 0.961 . S
C3159 H3175 0.961 . S
C3160 C3161 1.370 . S
C3160 C3162 1.363 . S
C3160 H3176 0.931 . S
C3161 C3160 1.370 . S
C3161 C3165 1.408 . S
C3162 C3160 1.363 . S
C3162 C3163 1.370 . S
C3162 C3166 1.524 . S
C3163 C3155 1.503 . S
C3163 C3162 1.370 . S
C3163 C3164 1.403 . S
C3164 C3163 1.403 . S
C3164 C3165 1.404 . S
C3164 C3167 1.539 . S
C3165 C3161 1.408 . S
C3165 C3164 1.404 . S
C3165 H3177 0.930 . S
C3166 C3162 1.524 . S
C3166 H3178 0.956 . S
C3166 H3179 0.961 . S
C3166 H3180 0.961 . S
C3167 C3164 1.539 . S
C3167 H3181 0.958 . S
C3167 H3182 0.961 . S
C3167 H3183 0.960 . S
H3168 C3152 0.931 . S
H3169 C3157 0.929 . S
H3170 C3158 0.960 . S
H3171 C3158 0.962 . S
H3172 C3158 0.960 . S
H3173 C3159 0.961 . S
H3174 C3159 0.961 . S
H3175 C3159 0.961 . S
H3176 C3160 0.931 . S
H3177 C3165 0.930 . S
H3178 C3166 0.956 . S
H3179 C3166 0.961 . S
H3180 C3166 0.961 . S
H3181 C3167 0.958 . S
H3182 C3167 0.961 . S
H3183 C3167 0.960 . S
C3184 C3185 1.391 . S
C3184 C3186 1.394 . S
C3184 H3200 0.931 . S
C3185 C3184 1.391 . S
C3185 C3189 1.376 . S
C3186 C3184 1.394 . S
C3186 C3187 1.369 . S
C3186 C3190 1.531 . S
C3187 C3186 1.369 . S
C3187 C3188 1.410 . S
C3187 C3195 1.503 . S
C3188 C3187 1.410 . S
C3188 C3189 1.392 . S
C3188 C3191 1.511 . S
C3189 C3185 1.376 . S
C3189 C3188 1.392 . S
C3189 H3201 0.954 . S
C3190 C3186 1.531 . S
C3190 H3202 0.960 . S
C3190 H3203 0.962 . S
C3190 H3204 0.960 . S
C3191 C3188 1.511 . S
C3191 H3205 0.961 . S
C3191 H3206 0.961 . S
C3191 H3207 0.961 . S
C3192 C3193 1.370 . S
C3192 C3194 1.363 . S
C3192 H3208 0.931 . S
C3193 C3192 1.370 . S
C3193 C3197 1.408 . S
C3194 C3192 1.363 . S
C3194 C3195 1.370 . S
C3194 C3198 1.524 . S
C3195 C3187 1.503 . S
C3195 C3194 1.370 . S
C3195 C3196 1.403 . S
C3196 C3195 1.403 . S
C3196 C3197 1.404 . S
C3196 C3199 1.539 . S
C3197 C3193 1.408 . S
C3197 C3196 1.404 . S
C3197 H3209 0.930 . S
C3198 C3194 1.524 . S
C3198 H3210 0.956 . S
C3198 H3211 0.961 . S
C3198 H3212 0.961 . S
C3199 C3196 1.539 . S
C3199 H3213 0.958 . S
C3199 H3214 0.961 . S
C3199 H3215 0.960 . S
H3200 C3184 0.931 . S
H3201 C3189 0.954 . S
H3202 C3190 0.960 . S
H3203 C3190 0.962 . S
H3204 C3190 0.960 . S
H3205 C3191 0.961 . S
H3206 C3191 0.961 . S
H3207 C3191 0.961 . S
H3208 C3192 0.931 . S
H3209 C3197 0.930 . S
H3210 C3198 0.956 . S
H3211 C3198 0.961 . S
H3212 C3198 0.961 . S
H3213 C3199 0.958 . S
H3214 C3199 0.961 . S
H3215 C3199 0.960 . S
C3216 C3217 1.391 . S
C3216 C3218 1.394 . S
C3216 H3232 0.931 . S
C3217 C3216 1.391 . S
C3217 C3221 1.376 . S
C3218 C3216 1.394 . S
C3218 C3219 1.369 . S
C3218 C3222 1.531 1_455 S
C3219 C3218 1.369 . S
C3219 C3220 1.410 . S
C3219 C3227 1.503 . S
C3220 C3219 1.410 . S
C3220 C3221 1.392 . S
C3220 C3223 1.511 . S
C3221 C3217 1.376 . S
C3221 C3220 1.392 . S
C3221 H3233 0.929 . S
C3222 C3218 1.531 1_655 S
C3222 H3234 0.960 . S
C3222 H3235 0.962 . S
C3222 H3236 0.960 . S
C3223 C3220 1.511 . S
C3223 H3237 0.961 . S
C3223 H3238 0.961 . S
C3223 H3239 0.961 . S
C3224 C3225 1.370 . S
C3224 C3226 1.363 . S
C3224 H3240 0.931 . S
C3225 C3224 1.370 . S
C3225 C3229 1.408 . S
C3226 C3224 1.363 . S
C3226 C3227 1.370 . S
C3226 C3230 1.524 . S
C3227 C3219 1.503 . S
C3227 C3226 1.370 . S
C3227 C3228 1.403 . S
C3228 C3227 1.403 . S
C3228 C3229 1.404 . S
C3228 C3231 1.539 . S
C3229 C3225 1.408 . S
C3229 C3228 1.404 . S
C3229 H3241 0.930 . S
C3230 C3226 1.524 . S
C3230 H3242 0.956 . S
C3230 H3243 0.961 . S
C3230 H3244 0.961 . S
C3231 C3228 1.539 . S
C3231 H3245 0.958 . S
C3231 H3246 0.961 . S
C3231 H3247 0.960 . S
H3232 C3216 0.931 . S
H3233 C3221 0.929 . S
H3234 C3222 0.960 . S
H3235 C3222 0.962 . S
H3236 C3222 0.960 . S
H3237 C3223 0.961 . S
H3238 C3223 0.961 . S
H3239 C3223 0.961 . S
H3240 C3224 0.931 . S
H3241 C3229 0.930 . S
H3242 C3230 0.956 . S
H3243 C3230 0.961 . S
H3244 C3230 0.961 . S
H3245 C3231 0.958 . S
H3246 C3231 0.961 . S
H3247 C3231 0.960 . S
C3248 C3249 1.391 . S
C3248 C3250 1.394 . S
C3248 H3264 0.931 . S
C3249 C3248 1.391 . S
C3249 C3253 1.376 . S
C3250 C3248 1.394 . S
C3250 C3251 1.369 . S
C3250 C3254 1.531 . S
C3251 C3250 1.369 . S
C3251 C3252 1.410 . S
C3251 C3259 1.503 . S
C3252 C3251 1.410 . S
C3252 C3253 1.392 . S
C3252 C3255 1.511 . S
C3253 C3249 1.376 . S
C3253 C3252 1.392 . S
C3253 H3265 0.929 . S
C3254 C3250 1.531 . S
C3254 H3266 0.960 . S
C3254 H3267 0.962 . S
C3254 H3268 0.960 . S
C3255 C3252 1.511 . S
C3255 H3269 0.961 . S
C3255 H3270 0.961 . S
C3255 H3271 0.961 . S
C3256 C3257 1.370 . S
C3256 C3258 1.363 . S
C3256 H3272 0.931 . S
C3257 C3256 1.370 . S
C3257 C3261 1.408 . S
C3258 C3256 1.363 . S
C3258 C3259 1.370 . S
C3258 C3262 1.524 . S
C3259 C3251 1.503 . S
C3259 C3258 1.370 . S
C3259 C3260 1.403 . S
C3260 C3259 1.403 . S
C3260 C3261 1.404 . S
C3260 C3263 1.539 . S
C3261 C3257 1.408 . S
C3261 C3260 1.404 . S
C3261 H3273 0.930 . S
C3262 C3258 1.524 . S
C3262 H3274 0.956 . S
C3262 H3275 0.961 . S
C3262 H3276 0.961 . S
C3263 C3260 1.539 . S
C3263 H3277 0.958 . S
C3263 H3278 0.961 . S
C3263 H3279 0.960 . S
H3264 C3248 0.931 . S
H3265 C3253 0.929 . S
H3266 C3254 0.960 . S
H3267 C3254 0.962 . S
H3268 C3254 0.960 . S
H3269 C3255 0.961 . S
H3270 C3255 0.961 . S
H3271 C3255 0.961 . S
H3272 C3256 0.931 . S
H3273 C3261 0.930 . S
H3274 C3262 0.956 . S
H3275 C3262 0.961 . S
H3276 C3262 0.961 . S
H3277 C3263 0.958 . S
H3278 C3263 0.961 . S
H3279 C3263 0.960 . S
C3280 C3281 1.391 . S
C3280 C3282 1.394 . S
C3280 H3296 0.931 . S
C3281 C3280 1.391 . S
C3281 C3285 1.376 . S
C3282 C3280 1.394 . S
C3282 C3283 1.369 . S
C3282 C3286 1.531 . S
C3283 C3282 1.369 . S
C3283 C3284 1.410 . S
C3283 C3291 1.503 . S
C3284 C3283 1.410 . S
C3284 C3285 1.392 . S
C3284 C3287 1.512 . S
C3285 C3281 1.376 . S
C3285 C3284 1.392 . S
C3285 H3297 0.929 . S
C3286 C3282 1.531 . S
C3286 H3298 0.960 . S
C3286 H3299 0.962 . S
C3286 H3300 0.960 . S
C3287 C3284 1.512 . S
C3287 H3301 0.958 . S
C3287 H3302 0.963 . S
C3287 H3303 0.958 1_565 S
C3288 C3289 1.370 . S
C3288 C3290 1.363 . S
C3288 H3304 0.931 . S
C3289 C3288 1.370 . S
C3289 C3293 1.408 . S
C3290 C3288 1.363 . S
C3290 C3291 1.370 . S
C3290 C3294 1.524 . S
C3291 C3283 1.503 . S
C3291 C3290 1.370 . S
C3291 C3292 1.403 . S
C3292 C3291 1.403 . S
C3292 C3293 1.404 . S
C3292 C3295 1.539 1_565 S
C3293 C3289 1.408 . S
C3293 C3292 1.404 . S
C3293 H3305 0.930 1_565 S
C3294 C3290 1.524 . S
C3294 H3306 0.956 . S
C3294 H3307 0.961 . S
C3294 H3308 0.961 . S
C3295 C3292 1.539 1_545 S
C3295 H3309 0.958 . S
C3295 H3310 0.961 . S
C3295 H3311 0.960 . S
H3296 C3280 0.931 . S
H3297 C3285 0.929 . S
H3298 C3286 0.960 . S
H3299 C3286 0.962 . S
H3300 C3286 0.960 . S
H3301 C3287 0.958 . S
H3302 C3287 0.963 . S
H3303 C3287 0.958 1_545 S
H3304 C3288 0.931 . S
H3305 C3293 0.930 1_545 S
H3306 C3294 0.956 . S
H3307 C3294 0.961 . S
H3308 C3294 0.961 . S
H3309 C3295 0.958 . S
H3310 C3295 0.961 . S
H3311 C3295 0.960 . S
C3312 C3313 1.391 . S
C3312 C3314 1.394 1_565 S
C3312 H3328 0.931 1_565 S
C3313 C3312 1.391 . S
C3313 C3317 1.376 . S
C3314 C3312 1.394 1_545 S
C3314 C3315 1.369 1_545 S
C3314 C3318 1.531 . S
C3315 C3314 1.369 1_565 S
C3315 C3316 1.410 . S
C3315 C3323 1.503 . S
C3316 C3315 1.410 . S
C3316 C3317 1.392 . S
C3316 C3319 1.511 . S
C3317 C3313 1.376 . S
C3317 C3316 1.392 . S
C3317 H3329 0.929 . S
C3318 C3314 1.531 . S
C3318 H3330 0.960 . S
C3318 H3331 0.962 . S
C3318 H3332 0.960 . S
C3319 C3316 1.511 . S
C3319 H3333 0.961 . S
C3319 H3334 0.961 . S
C3319 H3335 0.961 . S
C3320 C3321 1.372 . S
C3320 C3322 1.363 1_545 S
C3320 H3336 0.931 . S
C3321 C3320 1.372 . S
C3321 C3325 1.392 1_545 S
C3322 C3320 1.363 1_565 S
C3322 C3323 1.370 . S
C3322 C3326 1.527 . S
C3323 C3315 1.503 . S
C3323 C3322 1.370 . S
C3323 C3324 1.403 . S
C3324 C3323 1.403 . S
C3324 C3325 1.404 . S
C3324 C3327 1.539 . S
C3325 C3321 1.392 1_565 S
C3325 C3324 1.404 . S
C3325 H3337 0.930 . S
C3326 C3322 1.527 . S
C3326 H3338 0.945 1_565 S
C3326 H3339 0.995 . S
C3326 H3340 0.936 1_565 S
C3327 C3324 1.539 . S
C3327 H3341 0.958 . S
C3327 H3342 0.961 . S
C3327 H3343 0.960 . S
H3328 C3312 0.931 1_545 S
H3329 C3317 0.929 . S
H3330 C3318 0.960 . S
H3331 C3318 0.962 . S
H3332 C3318 0.960 . S
H3333 C3319 0.961 . S
H3334 C3319 0.961 . S
H3335 C3319 0.961 . S
H3336 C3320 0.931 . S
H3337 C3325 0.930 . S
H3338 C3326 0.945 1_545 S
H3339 C3326 0.995 . S
H3340 C3326 0.936 1_545 S
H3341 C3327 0.958 . S
H3342 C3327 0.961 . S
H3343 C3327 0.960 . S
C3344 C3345 1.391 . S
C3344 C3346 1.394 . S
C3344 H3360 0.931 . S
C3345 C3344 1.391 . S
C3345 C3349 1.376 . S
C3346 C3344 1.394 . S
C3346 C3347 1.369 . S
C3346 C3350 1.531 1_455 S
C3347 C3346 1.369 . S
C3347 C3348 1.410 . S
C3347 C3355 1.503 . S
C3348 C3347 1.410 . S
C3348 C3349 1.392 . S
C3348 C3351 1.511 . S
C3349 C3345 1.376 . S
C3349 C3348 1.392 . S
C3349 H3361 0.929 . S
C3350 C3346 1.531 1_655 S
C3350 H3362 0.960 1_655 S
C3350 H3363 0.962 . S
C3350 H3364 0.945 . S
C3351 C3348 1.511 . S
C3351 H3365 0.961 . S
C3351 H3366 0.961 . S
C3351 H3367 0.961 . S
C3352 C3353 1.404 . S
C3352 C3354 1.363 . S
C3352 H3368 0.931 . S
C3353 C3352 1.404 . S
C3353 C3357 1.385 1_655 S
C3354 C3352 1.363 . S
C3354 C3355 1.370 1_655 S
C3354 C3358 1.524 . S
C3355 C3347 1.503 . S
C3355 C3354 1.370 1_455 S
C3355 C3356 1.403 . S
C3356 C3355 1.403 . S
C3356 C3357 1.404 . S
C3356 C3359 1.539 . S
C3357 C3353 1.385 1_455 S
C3357 C3356 1.404 . S
C3357 H3369 0.930 . S
C3358 C3354 1.524 . S
C3358 H3370 0.956 . S
C3358 H3371 0.961 . S
C3358 H3372 0.961 . S
C3359 C3356 1.539 . S
C3359 H3373 0.958 . S
C3359 H3374 0.961 . S
C3359 H3375 0.960 . S
H3360 C3344 0.931 . S
H3361 C3349 0.929 . S
H3362 C3350 0.960 1_455 S
H3363 C3350 0.962 . S
H3364 C3350 0.945 . S
H3365 C3351 0.961 . S
H3366 C3351 0.961 . S
H3367 C3351 0.961 . S
H3368 C3352 0.931 . S
H3369 C3357 0.930 . S
H3370 C3358 0.956 . S
H3371 C3358 0.961 . S
H3372 C3358 0.961 . S
H3373 C3359 0.958 . S
H3374 C3359 0.961 . S
H3375 C3359 0.960 . S
C3376 C3377 1.391 . S
C3376 C3378 1.394 . S
C3376 H3392 0.931 . S
C3377 C3376 1.391 . S
C3377 C3381 1.376 . S
C3378 C3376 1.394 . S
C3378 C3379 1.369 . S
C3378 C3382 1.531 . S
C3379 C3378 1.369 . S
C3379 C3380 1.410 . S
C3379 C3387 1.503 . S
C3380 C3379 1.410 . S
C3380 C3381 1.392 . S
C3380 C3383 1.511 . S
C3381 C3377 1.376 . S
C3381 C3380 1.392 . S
C3381 H3393 0.929 . S
C3382 C3378 1.531 . S
C3382 H3394 0.960 . S
C3382 H3395 0.962 . S
C3382 H3396 0.960 . S
C3383 C3380 1.511 . S
C3383 H3397 0.961 . S
C3383 H3398 0.961 . S
C3383 H3399 0.961 . S
C3384 C3385 1.370 . S
C3384 C3386 1.363 . S
C3384 H3400 0.931 . S
C3385 C3384 1.370 . S
C3385 C3389 1.408 . S
C3386 C3384 1.363 . S
C3386 C3387 1.370 . S
C3386 C3390 1.524 . S
C3387 C3379 1.503 . S
C3387 C3386 1.370 . S
C3387 C3388 1.403 . S
C3388 C3387 1.403 . S
C3388 C3389 1.404 . S
C3388 C3391 1.539 . S
C3389 C3385 1.408 . S
C3389 C3388 1.404 . S
C3389 H3401 0.930 . S
C3390 C3386 1.524 . S
C3390 H3402 0.956 . S
C3390 H3403 0.961 . S
C3390 H3404 0.961 . S
C3391 C3388 1.539 . S
C3391 H3405 0.958 . S
C3391 H3406 0.961 . S
C3391 H3407 0.960 . S
H3392 C3376 0.931 . S
H3393 C3381 0.929 . S
H3394 C3382 0.960 . S
H3395 C3382 0.962 . S
H3396 C3382 0.960 . S
H3397 C3383 0.961 . S
H3398 C3383 0.961 . S
H3399 C3383 0.961 . S
H3400 C3384 0.931 . S
H3401 C3389 0.930 . S
H3402 C3390 0.956 . S
H3403 C3390 0.961 . S
H3404 C3390 0.961 . S
H3405 C3391 0.958 . S
H3406 C3391 0.961 . S
H3407 C3391 0.960 . S
C3408 C3409 1.391 . S
C3408 C3410 1.394 . S
C3408 H3424 0.931 . S
C3409 C3408 1.391 . S
C3409 C3413 1.376 . S
C3410 C3408 1.394 . S
C3410 C3411 1.369 . S
C3410 C3414 1.531 . S
C3411 C3410 1.369 . S
C3411 C3412 1.410 . S
C3411 C3419 1.503 . S
C3412 C3411 1.410 . S
C3412 C3413 1.392 . S
C3412 C3415 1.511 . S
C3413 C3409 1.376 . S
C3413 C3412 1.392 . S
C3413 H3425 0.929 . S
C3414 C3410 1.531 . S
C3414 H3426 0.960 . S
C3414 H3427 0.962 . S
C3414 H3428 0.960 . S
C3415 C3412 1.511 . S
C3415 H3429 0.961 . S
C3415 H3430 0.961 . S
C3415 H3431 0.961 . S
C3416 C3417 1.370 . S
C3416 C3418 1.363 . S
C3416 H3432 0.931 . S
C3417 C3416 1.370 . S
C3417 C3421 1.408 . S
C3418 C3416 1.363 . S
C3418 C3419 1.370 . S
C3418 C3422 1.524 . S
C3419 C3411 1.503 . S
C3419 C3418 1.370 . S
C3419 C3420 1.403 . S
C3420 C3419 1.403 . S
C3420 C3421 1.404 . S
C3420 C3423 1.539 . S
C3421 C3417 1.408 . S
C3421 C3420 1.404 . S
C3421 H3433 0.930 . S
C3422 C3418 1.524 . S
C3422 H3434 0.956 . S
C3422 H3435 0.961 . S
C3422 H3436 0.961 . S
C3423 C3420 1.539 . S
C3423 H3437 0.958 . S
C3423 H3438 0.961 . S
C3423 H3439 0.960 . S
H3424 C3408 0.931 . S
H3425 C3413 0.929 . S
H3426 C3414 0.960 . S
H3427 C3414 0.962 . S
H3428 C3414 0.960 . S
H3429 C3415 0.961 . S
H3430 C3415 0.961 . S
H3431 C3415 0.961 . S
H3432 C3416 0.931 . S
H3433 C3421 0.930 . S
H3434 C3422 0.956 . S
H3435 C3422 0.961 . S
H3436 C3422 0.961 . S
H3437 C3423 0.958 . S
H3438 C3423 0.961 . S
H3439 C3423 0.960 . S
C3440 C3441 1.391 . S
C3440 C3442 1.394 . S
C3440 H3456 0.931 . S
C3441 C3440 1.391 . S
C3441 C3445 1.376 . S
C3442 C3440 1.394 . S
C3442 C3443 1.369 . S
C3442 C3446 1.531 . S
C3443 C3442 1.369 . S
C3443 C3444 1.410 . S
C3443 C3451 1.503 . S
C3444 C3443 1.410 . S
C3444 C3445 1.392 . S
C3444 C3447 1.511 . S
C3445 C3441 1.376 . S
C3445 C3444 1.392 . S
C3445 H3457 0.929 . S
C3446 C3442 1.531 . S
C3446 H3458 0.960 . S
C3446 H3459 0.962 . S
C3446 H3460 0.960 . S
C3447 C3444 1.511 . S
C3447 H3461 0.961 . S
C3447 H3462 0.961 . S
C3447 H3463 0.961 . S
C3448 C3449 1.370 . S
C3448 C3450 1.363 . S
C3448 H3464 0.931 . S
C3449 C3448 1.370 . S
C3449 C3453 1.408 . S
C3450 C3448 1.363 . S
C3450 C3451 1.370 . S
C3450 C3454 1.524 . S
C3451 C3443 1.503 . S
C3451 C3450 1.370 . S
C3451 C3452 1.403 . S
C3452 C3451 1.403 . S
C3452 C3453 1.404 . S
C3452 C3455 1.539 . S
C3453 C3449 1.408 . S
C3453 C3452 1.404 . S
C3453 H3465 0.930 . S
C3454 C3450 1.524 . S
C3454 H3466 0.956 . S
C3454 H3467 0.961 . S
C3454 H3468 0.961 . S
C3455 C3452 1.539 . S
C3455 H3469 0.958 . S
C3455 H3470 0.961 . S
C3455 H3471 0.960 . S
H3456 C3440 0.931 . S
H3457 C3445 0.929 . S
H3458 C3446 0.960 . S
H3459 C3446 0.962 . S
H3460 C3446 0.960 . S
H3461 C3447 0.961 . S
H3462 C3447 0.961 . S
H3463 C3447 0.961 . S
H3464 C3448 0.931 . S
H3465 C3453 0.930 . S
H3466 C3454 0.956 . S
H3467 C3454 0.961 . S
H3468 C3454 0.961 . S
H3469 C3455 0.958 . S
H3470 C3455 0.961 . S
H3471 C3455 0.960 . S
C3472 C3473 1.391 . S
C3472 C3474 1.394 . S
C3472 H3488 0.931 . S
C3473 C3472 1.391 . S
C3473 C3477 1.376 . S
C3474 C3472 1.394 . S
C3474 C3475 1.369 . S
C3474 C3478 1.531 . S
C3475 C3474 1.369 . S
C3475 C3476 1.410 . S
C3475 C3483 1.503 . S
C3476 C3475 1.410 . S
C3476 C3477 1.392 . S
C3476 C3479 1.511 . S
C3477 C3473 1.376 . S
C3477 C3476 1.392 . S
C3477 H3489 0.929 . S
C3478 C3474 1.531 . S
C3478 H3490 0.960 . S
C3478 H3491 0.962 . S
C3478 H3492 0.960 . S
C3479 C3476 1.511 . S
C3479 H3493 0.961 . S
C3479 H3494 0.961 . S
C3479 H3495 0.961 . S
C3480 C3481 1.370 . S
C3480 C3482 1.363 . S
C3480 H3496 0.931 . S
C3481 C3480 1.370 . S
C3481 C3485 1.408 . S
C3482 C3480 1.363 . S
C3482 C3483 1.370 . S
C3482 C3486 1.524 . S
C3483 C3475 1.503 . S
C3483 C3482 1.370 . S
C3483 C3484 1.403 . S
C3484 C3483 1.403 . S
C3484 C3485 1.404 . S
C3484 C3487 1.539 . S
C3485 C3481 1.408 . S
C3485 C3484 1.404 . S
C3485 H3497 0.930 . S
C3486 C3482 1.524 . S
C3486 H3498 0.956 . S
C3486 H3499 0.961 . S
C3486 H3500 0.961 . S
C3487 C3484 1.539 . S
C3487 H3501 0.958 . S
C3487 H3502 0.961 . S
C3487 H3503 0.960 . S
H3488 C3472 0.931 . S
H3489 C3477 0.929 . S
H3490 C3478 0.960 . S
H3491 C3478 0.962 . S
H3492 C3478 0.960 . S
H3493 C3479 0.961 . S
H3494 C3479 0.961 . S
H3495 C3479 0.961 . S
H3496 C3480 0.931 . S
H3497 C3485 0.930 . S
H3498 C3486 0.956 . S
H3499 C3486 0.961 . S
H3500 C3486 0.961 . S
H3501 C3487 0.958 . S
H3502 C3487 0.961 . S
H3503 C3487 0.960 . S
C3504 C3505 1.391 . S
C3504 C3506 1.394 . S
C3504 H3520 0.931 . S
C3505 C3504 1.391 . S
C3505 C3509 1.376 . S
C3506 C3504 1.394 . S
C3506 C3507 1.369 . S
C3506 C3510 1.531 . S
C3507 C3506 1.369 . S
C3507 C3508 1.410 . S
C3507 C3515 1.503 . S
C3508 C3507 1.410 . S
C3508 C3509 1.392 . S
C3508 C3511 1.511 1_545 S
C3509 C3505 1.376 . S
C3509 C3508 1.392 . S
C3509 H3521 0.929 1_545 S
C3510 C3506 1.531 . S
C3510 H3522 0.960 . S
C3510 H3523 0.962 . S
C3510 H3524 0.960 . S
C3511 C3508 1.511 1_565 S
C3511 H3525 0.961 . S
C3511 H3526 0.961 . S
C3511 H3527 0.961 . S
C3512 C3513 1.370 . S
C3512 C3514 1.363 . S
C3512 H3528 0.936 . S
C3513 C3512 1.370 . S
C3513 C3517 1.408 . S
C3514 C3512 1.363 . S
C3514 C3515 1.370 . S
C3514 C3518 1.535 . S
C3515 C3507 1.503 . S
C3515 C3514 1.370 . S
C3515 C3516 1.403 . S
C3516 C3515 1.403 . S
C3516 C3517 1.404 . S
C3516 C3519 1.539 . S
C3517 C3513 1.408 . S
C3517 C3516 1.404 . S
C3517 H3529 0.930 . S
C3518 C3514 1.535 . S
C3518 H3530 0.979 . S
C3518 H3531 0.958 1_545 S
C3518 H3532 0.931 1_545 S
C3519 C3516 1.539 . S
C3519 H3533 0.958 . S
C3519 H3534 0.961 . S
C3519 H3535 0.960 . S
H3520 C3504 0.931 . S
H3521 C3509 0.929 1_565 S
H3522 C3510 0.960 . S
H3523 C3510 0.962 . S
H3524 C3510 0.960 . S
H3525 C3511 0.961 . S
H3526 C3511 0.961 . S
H3527 C3511 0.961 . S
H3528 C3512 0.936 . S
H3529 C3517 0.930 . S
H3530 C3518 0.979 . S
H3531 C3518 0.958 1_565 S
H3532 C3518 0.931 1_565 S
H3533 C3519 0.958 . S
H3534 C3519 0.961 . S
H3535 C3519 0.960 . S
C3536 C3537 1.391 . S
C3536 C3538 1.394 . S
C3536 H3552 0.931 . S
C3537 C3536 1.391 . S
C3537 C3541 1.376 . S
C3538 C3536 1.394 . S
C3538 C3539 1.369 . S
C3538 C3542 1.531 . S
C3539 C3538 1.369 . S
C3539 C3540 1.410 . S
C3539 C3547 1.503 . S
C3540 C3539 1.410 . S
C3540 C3541 1.392 . S
C3540 C3543 1.511 . S
C3541 C3537 1.376 . S
C3541 C3540 1.392 . S
C3541 H3553 0.929 . S
C3542 C3538 1.531 . S
C3542 H3554 0.960 . S
C3542 H3555 0.962 . S
C3542 H3556 0.960 . S
C3543 C3540 1.511 . S
C3543 H3557 0.961 . S
C3543 H3558 0.961 . S
C3543 H3559 0.956 1_655 S
C3544 C3545 1.370 . S
C3544 C3546 1.363 . S
C3544 H3560 0.931 . S
C3545 C3544 1.370 . S
C3545 C3549 1.408 1_655 S
C3546 C3544 1.363 . S
C3546 C3547 1.370 . S
C3546 C3550 1.524 . S
C3547 C3539 1.503 . S
C3547 C3546 1.370 . S
C3547 C3548 1.403 1_655 S
C3548 C3547 1.403 1_455 S
C3548 C3549 1.404 . S
C3548 C3551 1.539 . S
C3549 C3545 1.408 1_455 S
C3549 C3548 1.404 . S
C3549 H3561 0.930 . S
C3550 C3546 1.524 . S
C3550 H3562 0.956 . S
C3550 H3563 0.961 . S
C3550 H3564 0.961 . S
C3551 C3548 1.539 . S
C3551 H3565 0.958 . S
C3551 H3566 0.961 . S
C3551 H3567 0.960 . S
H3552 C3536 0.931 . S
H3553 C3541 0.929 . S
H3554 C3542 0.960 . S
H3555 C3542 0.962 . S
H3556 C3542 0.960 . S
H3557 C3543 0.961 . S
H3558 C3543 0.961 . S
H3559 C3543 0.956 1_455 S
H3560 C3544 0.931 . S
H3561 C3549 0.930 . S
H3562 C3550 0.956 . S
H3563 C3550 0.961 . S
H3564 C3550 0.961 . S
H3565 C3551 0.958 . S
H3566 C3551 0.961 . S
H3567 C3551 0.960 . S
C3568 C3569 1.391 . S
C3568 C3570 1.394 . S
C3568 H3584 0.931 . S
C3569 C3568 1.391 . S
C3569 C3573 1.376 . S
C3570 C3568 1.394 . S
C3570 C3571 1.369 . S
C3570 C3574 1.531 . S
C3571 C3570 1.369 . S
C3571 C3572 1.410 . S
C3571 C3579 1.503 . S
C3572 C3571 1.410 . S
C3572 C3573 1.392 . S
C3572 C3575 1.511 . S
C3573 C3569 1.376 . S
C3573 C3572 1.392 . S
C3573 H3585 0.929 . S
C3574 C3570 1.531 . S
C3574 H3586 0.960 . S
C3574 H3587 0.962 . S
C3574 H3588 0.960 . S
C3575 C3572 1.511 . S
C3575 H3589 0.961 . S
C3575 H3590 0.961 . S
C3575 H3591 0.961 . S
C3576 C3577 1.370 . S
C3576 C3578 1.363 . S
C3576 H3592 0.931 . S
C3577 C3576 1.370 . S
C3577 C3581 1.408 . S
C3578 C3576 1.363 . S
C3578 C3579 1.370 . S
C3578 C3582 1.524 . S
C3579 C3571 1.503 . S
C3579 C3578 1.370 . S
C3579 C3580 1.403 . S
C3580 C3579 1.403 . S
C3580 C3581 1.404 . S
C3580 C3583 1.539 . S
C3581 C3577 1.408 . S
C3581 C3580 1.404 . S
C3581 H3593 0.930 . S
C3582 C3578 1.524 . S
C3582 H3594 0.956 . S
C3582 H3595 0.961 . S
C3582 H3596 0.961 . S
C3583 C3580 1.539 . S
C3583 H3597 0.958 . S
C3583 H3598 0.961 . S
C3583 H3599 0.960 . S
H3584 C3568 0.931 . S
H3585 C3573 0.929 . S
H3586 C3574 0.960 . S
H3587 C3574 0.962 . S
H3588 C3574 0.960 . S
H3589 C3575 0.961 . S
H3590 C3575 0.961 . S
H3591 C3575 0.961 . S
H3592 C3576 0.931 . S
H3593 C3581 0.930 . S
H3594 C3582 0.956 . S
H3595 C3582 0.961 . S
H3596 C3582 0.961 . S
H3597 C3583 0.958 . S
H3598 C3583 0.961 . S
H3599 C3583 0.960 . S
C3600 C3601 1.391 . S
C3600 C3602 1.394 . S
C3600 H3616 0.931 . S
C3601 C3600 1.391 . S
C3601 C3605 1.376 . S
C3602 C3600 1.394 . S
C3602 C3603 1.369 . S
C3602 C3606 1.531 . S
C3603 C3602 1.369 . S
C3603 C3604 1.410 . S
C3603 C3611 1.503 . S
C3604 C3603 1.410 . S
C3604 C3605 1.392 . S
C3604 C3607 1.511 . S
C3605 C3601 1.376 . S
C3605 C3604 1.392 . S
C3605 H3617 0.929 . S
C3606 C3602 1.531 . S
C3606 H3618 0.960 . S
C3606 H3619 0.962 . S
C3606 H3620 0.960 . S
C3607 C3604 1.511 . S
C3607 H3621 0.961 . S
C3607 H3622 0.961 . S
C3607 H3623 0.961 . S
C3608 C3609 1.370 . S
C3608 C3610 1.363 . S
C3608 H3624 0.931 . S
C3609 C3608 1.370 . S
C3609 C3613 1.408 . S
C3610 C3608 1.363 . S
C3610 C3611 1.370 . S
C3610 C3614 1.524 . S
C3611 C3603 1.503 . S
C3611 C3610 1.370 . S
C3611 C3612 1.403 . S
C3612 C3611 1.403 . S
C3612 C3613 1.404 . S
C3612 C3615 1.539 . S
C3613 C3609 1.408 . S
C3613 C3612 1.404 . S
C3613 H3625 0.930 . S
C3614 C3610 1.524 . S
C3614 H3626 0.956 . S
C3614 H3627 0.961 . S
C3614 H3628 0.961 . S
C3615 C3612 1.539 . S
C3615 H3629 0.958 . S
C3615 H3630 0.961 . S
C3615 H3631 0.960 . S
H3616 C3600 0.931 . S
H3617 C3605 0.929 . S
H3618 C3606 0.960 . S
H3619 C3606 0.962 . S
H3620 C3606 0.960 . S
H3621 C3607 0.961 . S
H3622 C3607 0.961 . S
H3623 C3607 0.961 . S
H3624 C3608 0.931 . S
H3625 C3613 0.930 . S
H3626 C3614 0.956 . S
H3627 C3614 0.961 . S
H3628 C3614 0.961 . S
H3629 C3615 0.958 . S
H3630 C3615 0.961 . S
H3631 C3615 0.960 . S
C3632 C3633 1.391 . S
C3632 C3634 1.394 . S
C3632 H3648 0.931 . S
C3633 C3632 1.391 . S
C3633 C3637 1.376 . S
C3634 C3632 1.394 . S
C3634 C3635 1.369 . S
C3634 C3638 1.531 . S
C3635 C3634 1.369 . S
C3635 C3636 1.410 . S
C3635 C3643 1.503 . S
C3636 C3635 1.410 . S
C3636 C3637 1.392 . S
C3636 C3639 1.511 . S
C3637 C3633 1.376 . S
C3637 C3636 1.392 . S
C3637 H3649 0.929 . S
C3638 C3634 1.531 . S
C3638 H3650 0.960 . S
C3638 H3651 0.962 . S
C3638 H3652 0.960 . S
C3639 C3636 1.511 . S
C3639 H3653 0.961 . S
C3639 H3654 0.961 . S
C3639 H3655 0.961 . S
C3640 C3641 1.370 . S
C3640 C3642 1.363 . S
C3640 H3656 0.931 . S
C3641 C3640 1.370 . S
C3641 C3645 1.408 . S
C3642 C3640 1.363 . S
C3642 C3643 1.370 . S
C3642 C3646 1.524 . S
C3643 C3635 1.503 . S
C3643 C3642 1.370 . S
C3643 C3644 1.403 . S
C3644 C3643 1.403 . S
C3644 C3645 1.404 . S
C3644 C3647 1.539 . S
C3645 C3641 1.408 . S
C3645 C3644 1.404 . S
C3645 H3657 0.930 . S
C3646 C3642 1.524 . S
C3646 H3658 0.956 . S
C3646 H3659 0.961 . S
C3646 H3660 0.961 . S
C3647 C3644 1.539 . S
C3647 H3661 0.958 . S
C3647 H3662 0.961 . S
C3647 H3663 0.960 . S
H3648 C3632 0.931 . S
H3649 C3637 0.929 . S
H3650 C3638 0.960 . S
H3651 C3638 0.962 . S
H3652 C3638 0.960 . S
H3653 C3639 0.961 . S
H3654 C3639 0.961 . S
H3655 C3639 0.961 . S
H3656 C3640 0.931 . S
H3657 C3645 0.930 . S
H3658 C3646 0.956 . S
H3659 C3646 0.961 . S
H3660 C3646 0.961 . S
H3661 C3647 0.958 . S
H3662 C3647 0.961 . S
H3663 C3647 0.960 . S
C3664 C3665 1.391 . S
C3664 C3666 1.394 . S
C3664 H3680 0.931 . S
C3665 C3664 1.391 . S
C3665 C3669 1.376 . S
C3666 C3664 1.394 . S
C3666 C3667 1.369 . S
C3666 C3670 1.531 . S
C3667 C3666 1.369 . S
C3667 C3668 1.410 . S
C3667 C3675 1.503 . S
C3668 C3667 1.410 . S
C3668 C3669 1.392 . S
C3668 C3671 1.511 . S
C3669 C3665 1.376 . S
C3669 C3668 1.392 . S
C3669 H3681 0.929 . S
C3670 C3666 1.531 . S
C3670 H3682 0.960 . S
C3670 H3683 0.962 . S
C3670 H3684 0.960 . S
C3671 C3668 1.511 . S
C3671 H3685 0.961 . S
C3671 H3686 0.961 . S
C3671 H3687 0.961 . S
C3672 C3673 1.370 . S
C3672 C3674 1.363 . S
C3672 H3688 0.931 . S
C3673 C3672 1.370 . S
C3673 C3677 1.408 . S
C3674 C3672 1.363 . S
C3674 C3675 1.370 . S
C3674 C3678 1.524 . S
C3675 C3667 1.503 . S
C3675 C3674 1.370 . S
C3675 C3676 1.403 . S
C3676 C3675 1.403 . S
C3676 C3677 1.404 . S
C3676 C3679 1.539 . S
C3677 C3673 1.408 . S
C3677 C3676 1.404 . S
C3677 H3689 0.930 . S
C3678 C3674 1.524 . S
C3678 H3690 0.956 . S
C3678 H3691 0.961 . S
C3678 H3692 0.961 . S
C3679 C3676 1.539 . S
C3679 H3693 0.958 . S
C3679 H3694 0.961 . S
C3679 H3695 0.960 . S
H3680 C3664 0.931 . S
H3681 C3669 0.929 . S
H3682 C3670 0.960 . S
H3683 C3670 0.962 . S
H3684 C3670 0.960 . S
H3685 C3671 0.961 . S
H3686 C3671 0.961 . S
H3687 C3671 0.961 . S
H3688 C3672 0.931 . S
H3689 C3677 0.930 . S
H3690 C3678 0.956 . S
H3691 C3678 0.961 . S
H3692 C3678 0.961 . S
H3693 C3679 0.958 . S
H3694 C3679 0.961 . S
H3695 C3679 0.960 . S
C3696 C3697 1.391 . S
C3696 C3698 1.394 . S
C3696 H3712 0.931 . S
C3697 C3696 1.391 . S
C3697 C3701 1.376 . S
C3698 C3696 1.394 . S
C3698 C3699 1.369 . S
C3698 C3702 1.531 . S
C3699 C3698 1.369 . S
C3699 C3700 1.410 . S
C3699 C3707 1.503 . S
C3700 C3699 1.410 . S
C3700 C3701 1.392 . S
C3700 C3703 1.511 . S
C3701 C3697 1.376 . S
C3701 C3700 1.392 . S
C3701 H3713 0.929 . S
C3702 C3698 1.531 . S
C3702 H3714 0.960 . S
C3702 H3715 0.962 . S
C3702 H3716 0.960 . S
C3703 C3700 1.511 . S
C3703 H3717 0.961 . S
C3703 H3718 0.961 . S
C3703 H3719 0.961 . S
C3704 C3705 1.370 . S
C3704 C3706 1.363 . S
C3704 H3720 0.931 . S
C3705 C3704 1.370 . S
C3705 C3709 1.408 . S
C3706 C3704 1.363 . S
C3706 C3707 1.370 . S
C3706 C3710 1.524 . S
C3707 C3699 1.503 . S
C3707 C3706 1.370 . S
C3707 C3708 1.403 . S
C3708 C3707 1.403 . S
C3708 C3709 1.404 . S
C3708 C3711 1.539 . S
C3709 C3705 1.408 . S
C3709 C3708 1.404 . S
C3709 H3721 0.930 . S
C3710 C3706 1.524 . S
C3710 H3722 0.956 . S
C3710 H3723 0.961 . S
C3710 H3724 0.961 . S
C3711 C3708 1.539 . S
C3711 H3725 0.958 . S
C3711 H3726 0.961 . S
C3711 H3727 0.960 . S
H3712 C3696 0.931 . S
H3713 C3701 0.929 . S
H3714 C3702 0.960 . S
H3715 C3702 0.962 . S
H3716 C3702 0.960 . S
H3717 C3703 0.961 . S
H3718 C3703 0.961 . S
H3719 C3703 0.961 . S
H3720 C3704 0.931 . S
H3721 C3709 0.930 . S
H3722 C3710 0.956 . S
H3723 C3710 0.961 . S
H3724 C3710 0.961 . S
H3725 C3711 0.958 . S
H3726 C3711 0.961 . S
H3727 C3711 0.960 . S
C3728 C3729 1.391 . S
C3728 C3730 1.394 . S
C3728 H3744 0.931 . S
C3729 C3728 1.391 . S
C3729 C3733 1.376 . S
C3730 C3728 1.394 . S
C3730 C3731 1.369 . S
C3730 C3734 1.531 . S
C3731 C3730 1.369 . S
C3731 C3732 1.410 . S
C3731 C3739 1.503 . S
C3732 C3731 1.410 . S
C3732 C3733 1.392 . S
C3732 C3735 1.511 . S
C3733 C3729 1.376 . S
C3733 C3732 1.392 . S
C3733 H3745 0.929 . S
C3734 C3730 1.531 . S
C3734 H3746 0.960 . S
C3734 H3747 0.962 . S
C3734 H3748 0.960 . S
C3735 C3732 1.511 . S
C3735 H3749 0.961 . S
C3735 H3750 0.961 . S
C3735 H3751 0.961 . S
C3736 C3737 1.370 . S
C3736 C3738 1.363 . S
C3736 H3752 0.931 . S
C3737 C3736 1.370 . S
C3737 C3741 1.408 . S
C3738 C3736 1.363 . S
C3738 C3739 1.370 . S
C3738 C3742 1.524 . S
C3739 C3731 1.503 . S
C3739 C3738 1.370 . S
C3739 C3740 1.403 . S
C3740 C3739 1.403 . S
C3740 C3741 1.404 . S
C3740 C3743 1.539 . S
C3741 C3737 1.408 . S
C3741 C3740 1.404 . S
C3741 H3753 0.930 . S
C3742 C3738 1.524 . S
C3742 H3754 0.956 . S
C3742 H3755 0.961 . S
C3742 H3756 0.961 . S
C3743 C3740 1.539 . S
C3743 H3757 0.958 . S
C3743 H3758 0.961 . S
C3743 H3759 0.960 . S
H3744 C3728 0.931 . S
H3745 C3733 0.929 . S
H3746 C3734 0.960 . S
H3747 C3734 0.962 . S
H3748 C3734 0.960 . S
H3749 C3735 0.961 . S
H3750 C3735 0.961 . S
H3751 C3735 0.961 . S
H3752 C3736 0.931 . S
H3753 C3741 0.930 . S
H3754 C3742 0.956 . S
H3755 C3742 0.961 . S
H3756 C3742 0.961 . S
H3757 C3743 0.958 . S
H3758 C3743 0.961 . S
H3759 C3743 0.960 . S
C3760 C3761 1.391 . S
C3760 C3762 1.394 . S
C3760 H3776 0.931 . S
C3761 C3760 1.391 . S
C3761 C3765 1.376 . S
C3762 C3760 1.394 . S
C3762 C3763 1.369 . S
C3762 C3766 1.531 . S
C3763 C3762 1.369 . S
C3763 C3764 1.410 . S
C3763 C3771 1.503 . S
C3764 C3763 1.410 . S
C3764 C3765 1.392 . S
C3764 C3767 1.511 . S
C3765 C3761 1.376 . S
C3765 C3764 1.392 . S
C3765 H3777 0.929 . S
C3766 C3762 1.531 . S
C3766 H3778 0.960 . S
C3766 H3779 0.962 . S
C3766 H3780 0.960 . S
C3767 C3764 1.511 . S
C3767 H3781 0.961 . S
C3767 H3782 0.961 . S
C3767 H3783 0.961 . S
C3768 C3769 1.370 . S
C3768 C3770 1.363 . S
C3768 H3784 0.931 . S
C3769 C3768 1.370 . S
C3769 C3773 1.408 . S
C3770 C3768 1.363 . S
C3770 C3771 1.370 . S
C3770 C3774 1.524 . S
C3771 C3763 1.503 . S
C3771 C3770 1.370 . S
C3771 C3772 1.403 . S
C3772 C3771 1.403 . S
C3772 C3773 1.404 . S
C3772 C3775 1.539 . S
C3773 C3769 1.408 . S
C3773 C3772 1.404 . S
C3773 H3785 0.930 . S
C3774 C3770 1.524 . S
C3774 H3786 0.956 . S
C3774 H3787 0.961 . S
C3774 H3788 0.961 . S
C3775 C3772 1.539 . S
C3775 H3789 0.958 . S
C3775 H3790 0.961 . S
C3775 H3791 0.960 . S
H3776 C3760 0.931 . S
H3777 C3765 0.929 . S
H3778 C3766 0.960 . S
H3779 C3766 0.962 . S
H3780 C3766 0.960 . S
H3781 C3767 0.961 . S
H3782 C3767 0.961 . S
H3783 C3767 0.961 . S
H3784 C3768 0.931 . S
H3785 C3773 0.930 . S
H3786 C3774 0.956 . S
H3787 C3774 0.961 . S
H3788 C3774 0.961 . S
H3789 C3775 0.958 . S
H3790 C3775 0.961 . S
H3791 C3775 0.960 . S
C3792 C3793 1.391 . S
C3792 C3794 1.394 . S
C3792 H3808 0.931 . S
C3793 C3792 1.391 . S
C3793 C3797 1.376 . S
C3794 C3792 1.394 . S
C3794 C3795 1.369 . S
C3794 C3798 1.531 1_655 S
C3795 C3794 1.369 . S
C3795 C3796 1.410 . S
C3795 C3803 1.503 . S
C3796 C3795 1.410 . S
C3796 C3797 1.392 . S
C3796 C3799 1.511 . S
C3797 C3793 1.376 . S
C3797 C3796 1.392 . S
C3797 H3809 0.929 . S
C3798 C3794 1.531 1_455 S
C3798 H3810 0.960 . S
C3798 H3811 0.962 1_455 S
C3798 H3812 0.960 . S
C3799 C3796 1.511 . S
C3799 H3813 0.961 . S
C3799 H3814 0.961 . S
C3799 H3815 0.961 . S
C3800 C3801 1.370 . S
C3800 C3802 1.363 . S
C3800 H3816 0.931 . S
C3801 C3800 1.370 . S
C3801 C3805 1.408 1_655 S
C3802 C3800 1.363 . S
C3802 C3803 1.370 . S
C3802 C3806 1.524 . S
C3803 C3795 1.503 . S
C3803 C3802 1.370 . S
C3803 C3804 1.403 1_655 S
C3804 C3803 1.403 1_455 S
C3804 C3805 1.404 . S
C3804 C3807 1.539 . S
C3805 C3801 1.408 1_455 S
C3805 C3804 1.404 . S
C3805 H3817 0.930 . S
C3806 C3802 1.524 . S
C3806 H3818 0.956 . S
C3806 H3819 0.961 . S
C3806 H3820 0.961 . S
C3807 C3804 1.539 . S
C3807 H3821 0.958 . S
C3807 H3822 0.961 . S
C3807 H3823 0.960 . S
H3808 C3792 0.931 . S
H3809 C3797 0.929 . S
H3810 C3798 0.960 . S
H3811 C3798 0.962 1_655 S
H3812 C3798 0.960 . S
H3813 C3799 0.961 . S
H3814 C3799 0.961 . S
H3815 C3799 0.961 . S
H3816 C3800 0.931 . S
H3817 C3805 0.930 . S
H3818 C3806 0.956 . S
H3819 C3806 0.961 . S
H3820 C3806 0.961 . S
H3821 C3807 0.958 . S
H3822 C3807 0.961 . S
H3823 C3807 0.960 . S
C3824 C3825 1.391 . S
C3824 C3826 1.394 . S
C3824 H3840 0.931 . S
C3825 C3824 1.391 . S
C3825 C3829 1.376 . S
C3826 C3824 1.394 . S
C3826 C3827 1.369 . S
C3826 C3830 1.531 . S
C3827 C3826 1.369 . S
C3827 C3828 1.410 . S
C3827 C3835 1.503 . S
C3828 C3827 1.410 . S
C3828 C3829 1.392 . S
C3828 C3831 1.511 . S
C3829 C3825 1.376 . S
C3829 C3828 1.392 . S
C3829 H3841 0.929 . S
C3830 C3826 1.531 . S
C3830 H3842 0.960 . S
C3830 H3843 0.962 . S
C3830 H3844 0.960 . S
C3831 C3828 1.511 . S
C3831 H3845 0.961 . S
C3831 H3846 0.961 . S
C3831 H3847 0.961 . S
C3832 C3833 1.370 . S
C3832 C3834 1.363 . S
C3832 H3848 0.931 . S
C3833 C3832 1.370 . S
C3833 C3837 1.408 . S
C3834 C3832 1.363 . S
C3834 C3835 1.370 . S
C3834 C3838 1.524 . S
C3835 C3827 1.503 . S
C3835 C3834 1.370 . S
C3835 C3836 1.403 . S
C3836 C3835 1.403 . S
C3836 C3837 1.404 . S
C3836 C3839 1.539 . S
C3837 C3833 1.408 . S
C3837 C3836 1.404 . S
C3837 H3849 0.930 . S
C3838 C3834 1.524 . S
C3838 H3850 0.956 . S
C3838 H3851 0.961 . S
C3838 H3852 0.961 . S
C3839 C3836 1.539 . S
C3839 H3853 0.958 . S
C3839 H3854 0.961 . S
C3839 H3855 0.960 . S
H3840 C3824 0.931 . S
H3841 C3829 0.929 . S
H3842 C3830 0.960 . S
H3843 C3830 0.962 . S
H3844 C3830 0.960 . S
H3845 C3831 0.961 . S
H3846 C3831 0.961 . S
H3847 C3831 0.961 . S
H3848 C3832 0.931 . S
H3849 C3837 0.930 . S
H3850 C3838 0.956 . S
H3851 C3838 0.961 . S
H3852 C3838 0.961 . S
H3853 C3839 0.958 . S
H3854 C3839 0.961 . S
H3855 C3839 0.960 . S
C3856 C3857 1.391 . S
C3856 C3858 1.394 . S
C3856 H3872 0.931 . S
C3857 C3856 1.391 . S
C3857 C3861 1.376 . S
C3858 C3856 1.394 . S
C3858 C3859 1.369 . S
C3858 C3862 1.531 1_545 S
C3859 C3858 1.369 . S
C3859 C3860 1.410 . S
C3859 C3867 1.503 . S
C3860 C3859 1.410 . S
C3860 C3861 1.392 . S
C3860 C3863 1.511 . S
C3861 C3857 1.376 . S
C3861 C3860 1.392 . S
C3861 H3873 0.929 . S
C3862 C3858 1.531 1_565 S
C3862 H3874 0.960 . S
C3862 H3875 0.913 1_565 S
C3862 H3876 0.960 . S
C3863 C3860 1.511 . S
C3863 H3877 0.961 . S
C3863 H3878 0.961 . S
C3863 H3879 0.961 . S
C3864 C3865 1.370 . S
C3864 C3866 1.363 . S
C3864 H3880 0.931 . S
C3865 C3864 1.370 . S
C3865 C3869 1.408 1_545 S
C3866 C3864 1.363 . S
C3866 C3867 1.370 . S
C3866 C3870 1.524 . S
C3867 C3859 1.503 . S
C3867 C3866 1.370 . S
C3867 C3868 1.403 1_545 S
C3868 C3867 1.403 1_565 S
C3868 C3869 1.404 . S
C3868 C3871 1.539 . S
C3869 C3865 1.408 1_565 S
C3869 C3868 1.404 . S
C3869 H3881 0.930 . S
C3870 C3866 1.524 . S
C3870 H3882 0.956 . S
C3870 H3883 0.961 . S
C3870 H3884 0.961 . S
C3871 C3868 1.539 . S
C3871 H3885 0.958 . S
C3871 H3886 0.961 . S
C3871 H3887 0.960 . S
H3872 C3856 0.931 . S
H3873 C3861 0.929 . S
H3874 C3862 0.960 . S
H3875 C3862 0.913 1_545 S
H3876 C3862 0.960 . S
H3877 C3863 0.961 . S
H3878 C3863 0.961 . S
H3879 C3863 0.961 . S
H3880 C3864 0.931 . S
H3881 C3869 0.930 . S
H3882 C3870 0.956 . S
H3883 C3870 0.961 . S
H3884 C3870 0.961 . S
H3885 C3871 0.958 . S
H3886 C3871 0.961 . S
H3887 C3871 0.960 . S
C1585 C8 1.166 1_655 S
C1593 C981 1.156 . S
C1617 C22 1.594 . S
C1625 C1061 1.573 . S
C1657 C1129 1.384 . S
C1649 C37 1.407 1_545 S
C1681 C36 1.755 1_565 S
C1689 C1209 1.764 . S
C1713 C9 1.510 1_455 S
C1721 C1283 1.508 . S
C1745 C23 1.617 . S
C1753 C1351 1.545 . S
C1777 C50 1.131 1_455 S
C1785 C1277 1.054 . S
C1817 C1357 1.483 . S
C1809 C64 1.452 . S
C1849 C1203 1.335 . S
C1841 C79 1.322 1_565 S
C1873 C78 1.700 . S
C1881 C1135 1.723 . S
C1913 C987 1.471 . S
C1905 C51 1.435 1_655 S
C1937 C65 1.468 . S
C1945 C1055 1.449 . S
C1969 C92 1.401 . S
C1977 C1425 1.289 . S
C2001 C106 1.622 . S
C2009 C1505 1.602 . S
C2041 C1573 1.510 . S
C2033 C121 1.580 . S
C2065 C120 1.870 . S
C2073 C321 1.853 . S
C2097 C93 1.655 . S
C2105 C395 1.622 . S
C2129 C107 1.657 . S
C2137 C463 1.582 . S
C2161 C134 1.136 . S
C2169 C389 1.085 . S
C2193 C148 1.473 . S
C2201 C469 1.513 . S
C2233 C315 1.413 . S
C2225 C163 1.428 . S
C2265 C1579 1.859 . S
C2257 C162 1.801 . S
C2297 C1431 1.522 . S
C2289 C135 1.520 . S
C2329 C1499 1.503 . S
C2321 C149 1.520 . S
C2353 C176 1.302 . S
C2361 C537 1.216 . S
C2385 C190 1.640 . S
C2393 C617 1.614 . S
C2417 C205 1.597 . S
C2425 C685 1.532 . S
C2449 C204 1.971 . S
C2457 C765 1.946 . S
C2489 C839 1.623 . S
C2481 C177 1.653 . S
C2521 C907 1.604 . S
C2513 C191 1.680 . S
C2553 C833 1.194 . S
C2545 C218 1.206 . S
C2585 C913 1.510 . S
C2577 C232 1.484 . S
C2609 C247 1.383 . S
C2617 C759 1.396 . S
C2649 C691 1.781 . S
C2641 C246 1.758 . S
C2673 C219 1.496 . S
C2681 C543 1.532 . S
C2713 C611 1.462 . S
C2705 C233 1.476 . S
C2745 C291 1.911 . S
C2737 C6 1.966 . S
C2769 C20 1.458 . S
C2777 C365 1.448 . S
C2809 C451 1.470 . S
C2801 C35 1.452 . S
C2841 C525 1.184 . S
C2833 C34 1.202 . S
C2873 C587 1.591 . S
C2865 C7 1.606 . S
C2905 C673 1.530 . S
C2897 C21 1.527 . S
C2929 C48 2.103 1_556 S
C2937 C661 2.015 . S
C2961 C62 1.595 . S
C2969 C513 1.552 . S
C2993 C77 1.652 . S
C3001 C599 1.616 . S
C3025 C76 1.382 . S
C3033 C377 1.357 . S
C3065 C439 1.674 . S
C3057 C49 1.753 . S
C3089 C63 1.710 . S
C3097 C303 1.677 . S
C3129 C735 1.895 . S
C3121 C90 1.915 . S
C3153 C104 1.490 1_545 S
C3161 C809 1.542 . S
C3185 C119 1.464 1_655 S
C3193 C895 1.489 . S
C3225 C969 1.118 . S
C3217 C118 1.063 . S
C3249 C91 1.567 . S
C3257 C1031 1.561 . S
C3281 C105 1.467 . S
C3289 C1117 1.476 . S
C3313 C132 1.907 . S
C3321 C1105 1.872 . S
C3345 C146 1.467 . S
C3353 C957 1.438 . S
C3385 C1043 1.569 . S
C3377 C161 1.591 . S
C3409 C160 1.393 . S
C3417 C821 1.329 . S
C3441 C133 1.772 . S
C3449 C883 1.720 . S
C3481 C747 1.720 . S
C3473 C147 1.754 . S
C3513 C1179 1.838 . S
C3505 C174 1.830 . S
C3537 C188 1.417 . S
C3545 C1253 1.411 . S
C3569 C203 1.416 . S
C3577 C1339 1.442 . S
C3609 C1413 1.173 . S
C3601 C202 1.192 . S
C3641 C1475 1.629 . S
C3633 C175 1.624 . S
C3665 C189 1.580 . S
C3673 C1561 1.589 . S
C3697 C216 2.068 . S
C3705 C1549 1.974 . S
C3729 C230 1.662 1_565 S
C3737 C1401 1.632 . S
C3769 C1487 1.612 . S
C3761 C245 1.651 1_455 S
C3801 C1265 1.176 . S
C3793 C244 1.206 . S
C3833 C1327 1.658 . S
C3825 C217 1.713 . S
C3857 C231 1.550 . S
C3865 C1191 1.537 1_545 S
