# Generated by pormake.
# Topology ptr, (4,4)-cn, num edge types: 1
# Building blocks:
#     Node 0, Type 0, BuildingBlock: AZAVOO_clean_sbu_0, # of connection points: 4
#     Node 1, Type 0, BuildingBlock: AZAVOO_clean_sbu_0, # of connection points: 4
#     Node 2, Type 0, BuildingBlock: AZAVOO_clean_sbu_0, # of connection points: 4
#     Node 3, Type 0, BuildingBlock: AZAVOO_clean_sbu_0, # of connection points: 4
#     Node 4, Type 0, BuildingBlock: AZAVOO_clean_sbu_0, # of connection points: 4
#     Node 5, Type 0, BuildingBlock: AZAVOO_clean_sbu_0, # of connection points: 4
#     Node 6, Type 0, BuildingBlock: AZAVOO_clean_sbu_0, # of connection points: 4
#     Node 7, Type 0, BuildingBlock: AZAVOO_clean_sbu_0, # of connection points: 4
#     Node 8, Type 0, BuildingBlock: AZAVOO_clean_sbu_0, # of connection points: 4
#     Node 9, Type 0, BuildingBlock: AZAVOO_clean_sbu_0, # of connection points: 4
#     Node 10, Type 0, BuildingBlock: AZAVOO_clean_sbu_0, # of connection points: 4
#     Node 11, Type 0, BuildingBlock: AZAVOO_clean_sbu_0, # of connection points: 4
#     Node 12, Type 0, BuildingBlock: AZAVOO_clean_sbu_0, # of connection points: 4
#     Node 13, Type 0, BuildingBlock: AZAVOO_clean_sbu_0, # of connection points: 4
#     Node 14, Type 0, BuildingBlock: AZAVOO_clean_sbu_0, # of connection points: 4
#     Node 15, Type 0, BuildingBlock: AZAVOO_clean_sbu_0, # of connection points: 4
#     Node 16, Type 0, BuildingBlock: AZAVOO_clean_sbu_0, # of connection points: 4
#     Node 17, Type 0, BuildingBlock: AZAVOO_clean_sbu_0, # of connection points: 4
#     Node 18, Type 1, BuildingBlock: NAHDIM_clean_linker_0, # of connection points: 4
#     Node 19, Type 1, BuildingBlock: NAHDIM_clean_linker_0, # of connection points: 4
#     Node 20, Type 1, BuildingBlock: NAHDIM_clean_linker_0, # of connection points: 4
#     Node 21, Type 1, BuildingBlock: NAHDIM_clean_linker_0, # of connection points: 4
#     Node 22, Type 1, BuildingBlock: NAHDIM_clean_linker_0, # of connection points: 4
#     Node 23, Type 1, BuildingBlock: NAHDIM_clean_linker_0, # of connection points: 4
#     Node 24, Type 1, BuildingBlock: NAHDIM_clean_linker_0, # of connection points: 4
#     Node 25, Type 1, BuildingBlock: NAHDIM_clean_linker_0, # of connection points: 4
#     Node 26, Type 1, BuildingBlock: NAHDIM_clean_linker_0, # of connection points: 4
#     Node 27, Type 1, BuildingBlock: NAHDIM_clean_linker_0, # of connection points: 4
#     Node 28, Type 1, BuildingBlock: NAHDIM_clean_linker_0, # of connection points: 4
#     Node 29, Type 1, BuildingBlock: NAHDIM_clean_linker_0, # of connection points: 4
#     Node 30, Type 1, BuildingBlock: NAHDIM_clean_linker_0, # of connection points: 4
#     Node 31, Type 1, BuildingBlock: NAHDIM_clean_linker_0, # of connection points: 4
#     Node 32, Type 1, BuildingBlock: NAHDIM_clean_linker_0, # of connection points: 4
#     Node 33, Type 1, BuildingBlock: NAHDIM_clean_linker_0, # of connection points: 4
#     Node 34, Type 1, BuildingBlock: NAHDIM_clean_linker_0, # of connection points: 4
#     Node 35, Type 1, BuildingBlock: NAHDIM_clean_linker_0, # of connection points: 4
#     Edge 36, Type (0, 1), BuildingBlock: OJICUG_clean_linker_0, # of connection points: 2
#     Edge 37, Type (0, 1), BuildingBlock: OJICUG_clean_linker_0, # of connection points: 2
#     Edge 38, Type (0, 1), BuildingBlock: OJICUG_clean_linker_0, # of connection points: 2
#     Edge 39, Type (0, 1), BuildingBlock: OJICUG_clean_linker_0, # of connection points: 2
#     Edge 40, Type (0, 1), BuildingBlock: OJICUG_clean_linker_0, # of connection points: 2
#     Edge 41, Type (0, 1), BuildingBlock: OJICUG_clean_linker_0, # of connection points: 2
#     Edge 42, Type (0, 1), BuildingBlock: OJICUG_clean_linker_0, # of connection points: 2
#     Edge 43, Type (0, 1), BuildingBlock: OJICUG_clean_linker_0, # of connection points: 2
#     Edge 44, Type (0, 1), BuildingBlock: OJICUG_clean_linker_0, # of connection points: 2
#     Edge 45, Type (0, 1), BuildingBlock: OJICUG_clean_linker_0, # of connection points: 2
#     Edge 46, Type (0, 1), BuildingBlock: OJICUG_clean_linker_0, # of connection points: 2
#     Edge 47, Type (0, 1), BuildingBlock: OJICUG_clean_linker_0, # of connection points: 2
#     Edge 48, Type (0, 1), BuildingBlock: OJICUG_clean_linker_0, # of connection points: 2
#     Edge 49, Type (0, 1), BuildingBlock: OJICUG_clean_linker_0, # of connection points: 2
#     Edge 50, Type (0, 1), BuildingBlock: OJICUG_clean_linker_0, # of connection points: 2
#     Edge 51, Type (0, 1), BuildingBlock: OJICUG_clean_linker_0, # of connection points: 2
#     Edge 52, Type (0, 1), BuildingBlock: OJICUG_clean_linker_0, # of connection points: 2
#     Edge 53, Type (0, 1), BuildingBlock: OJICUG_clean_linker_0, # of connection points: 2
#     Edge 54, Type (0, 1), BuildingBlock: OJICUG_clean_linker_0, # of connection points: 2
#     Edge 55, Type (0, 1), BuildingBlock: OJICUG_clean_linker_0, # of connection points: 2
#     Edge 56, Type (0, 1), BuildingBlock: OJICUG_clean_linker_0, # of connection points: 2
#     Edge 57, Type (0, 1), BuildingBlock: OJICUG_clean_linker_0, # of connection points: 2
#     Edge 58, Type (0, 1), BuildingBlock: OJICUG_clean_linker_0, # of connection points: 2
#     Edge 59, Type (0, 1), BuildingBlock: OJICUG_clean_linker_0, # of connection points: 2
#     Edge 60, Type (0, 1), BuildingBlock: OJICUG_clean_linker_0, # of connection points: 2
#     Edge 61, Type (0, 1), BuildingBlock: OJICUG_clean_linker_0, # of connection points: 2
#     Edge 62, Type (0, 1), BuildingBlock: OJICUG_clean_linker_0, # of connection points: 2
#     Edge 63, Type (0, 1), BuildingBlock: OJICUG_clean_linker_0, # of connection points: 2
#     Edge 64, Type (0, 1), BuildingBlock: OJICUG_clean_linker_0, # of connection points: 2
#     Edge 65, Type (0, 1), BuildingBlock: OJICUG_clean_linker_0, # of connection points: 2
#     Edge 66, Type (0, 1), BuildingBlock: OJICUG_clean_linker_0, # of connection points: 2
#     Edge 67, Type (0, 1), BuildingBlock: OJICUG_clean_linker_0, # of connection points: 2
#     Edge 68, Type (0, 1), BuildingBlock: OJICUG_clean_linker_0, # of connection points: 2
#     Edge 69, Type (0, 1), BuildingBlock: OJICUG_clean_linker_0, # of connection points: 2
#     Edge 70, Type (0, 1), BuildingBlock: OJICUG_clean_linker_0, # of connection points: 2
#     Edge 71, Type (0, 1), BuildingBlock: OJICUG_clean_linker_0, # of connection points: 2
#     Edge 72, Type (0, 1), BuildingBlock: OJICUG_clean_linker_0, # of connection points: 2
#     Edge 73, Type (0, 1), BuildingBlock: OJICUG_clean_linker_0, # of connection points: 2
#     Edge 74, Type (0, 1), BuildingBlock: OJICUG_clean_linker_0, # of connection points: 2
#     Edge 75, Type (0, 1), BuildingBlock: OJICUG_clean_linker_0, # of connection points: 2
#     Edge 76, Type (0, 1), BuildingBlock: OJICUG_clean_linker_0, # of connection points: 2
#     Edge 77, Type (0, 1), BuildingBlock: OJICUG_clean_linker_0, # of connection points: 2
#     Edge 78, Type (0, 1), BuildingBlock: OJICUG_clean_linker_0, # of connection points: 2
#     Edge 79, Type (0, 1), BuildingBlock: OJICUG_clean_linker_0, # of connection points: 2
#     Edge 80, Type (0, 1), BuildingBlock: OJICUG_clean_linker_0, # of connection points: 2
#     Edge 81, Type (0, 1), BuildingBlock: OJICUG_clean_linker_0, # of connection points: 2
#     Edge 82, Type (0, 1), BuildingBlock: OJICUG_clean_linker_0, # of connection points: 2
#     Edge 83, Type (0, 1), BuildingBlock: OJICUG_clean_linker_0, # of connection points: 2
#     Edge 84, Type (0, 1), BuildingBlock: OJICUG_clean_linker_0, # of connection points: 2
#     Edge 85, Type (0, 1), BuildingBlock: OJICUG_clean_linker_0, # of connection points: 2
#     Edge 86, Type (0, 1), BuildingBlock: OJICUG_clean_linker_0, # of connection points: 2
#     Edge 87, Type (0, 1), BuildingBlock: OJICUG_clean_linker_0, # of connection points: 2
#     Edge 88, Type (0, 1), BuildingBlock: OJICUG_clean_linker_0, # of connection points: 2
#     Edge 89, Type (0, 1), BuildingBlock: OJICUG_clean_linker_0, # of connection points: 2
#     Edge 90, Type (0, 1), BuildingBlock: OJICUG_clean_linker_0, # of connection points: 2
#     Edge 91, Type (0, 1), BuildingBlock: OJICUG_clean_linker_0, # of connection points: 2
#     Edge 92, Type (0, 1), BuildingBlock: OJICUG_clean_linker_0, # of connection points: 2
#     Edge 93, Type (0, 1), BuildingBlock: OJICUG_clean_linker_0, # of connection points: 2
#     Edge 94, Type (0, 1), BuildingBlock: OJICUG_clean_linker_0, # of connection points: 2
#     Edge 95, Type (0, 1), BuildingBlock: OJICUG_clean_linker_0, # of connection points: 2
#     Edge 96, Type (0, 1), BuildingBlock: OJICUG_clean_linker_0, # of connection points: 2
#     Edge 97, Type (0, 1), BuildingBlock: OJICUG_clean_linker_0, # of connection points: 2
#     Edge 98, Type (0, 1), BuildingBlock: OJICUG_clean_linker_0, # of connection points: 2
#     Edge 99, Type (0, 1), BuildingBlock: OJICUG_clean_linker_0, # of connection points: 2
#     Edge 100, Type (0, 1), BuildingBlock: OJICUG_clean_linker_0, # of connection points: 2
#     Edge 101, Type (0, 1), BuildingBlock: OJICUG_clean_linker_0, # of connection points: 2
#     Edge 102, Type (0, 1), BuildingBlock: OJICUG_clean_linker_0, # of connection points: 2
#     Edge 103, Type (0, 1), BuildingBlock: OJICUG_clean_linker_0, # of connection points: 2
#     Edge 104, Type (0, 1), BuildingBlock: OJICUG_clean_linker_0, # of connection points: 2
#     Edge 105, Type (0, 1), BuildingBlock: OJICUG_clean_linker_0, # of connection points: 2
#     Edge 106, Type (0, 1), BuildingBlock: OJICUG_clean_linker_0, # of connection points: 2
#     Edge 107, Type (0, 1), BuildingBlock: OJICUG_clean_linker_0, # of connection points: 2
# Relax obj value: 0.102
# Max RMSD: 0.342
# Mean RMSD: 0.135
data_MOF--net-ptr--node1-AZAVOO_clean_sbu_0--node2-NAHDIM_clean_linker_0--edge1-OJICUG_clean_linker_0
_symmetry_space_group_name_H-M    P1
_symmetry_Int_Tables_number       1
_symmetry_cell_setting            triclinic
loop_
_symmetry_equiv_pos_as_xyz
'x, y, z'
_cell_length_a     76.740828
_cell_length_b     75.076864
_cell_length_c     62.750371
_cell_angle_alpha  91.998819
_cell_angle_beta   91.464748
_cell_angle_gamma 120.27638
loop_
_atom_site_label
_atom_site_type_symbol
_atom_site_fract_x
_atom_site_fract_y
_atom_site_fract_z
_atom_type_partial_charge
Mg0 Mg 0.01427 0.33396 0.98159 0.0
O1 O 0.00226 0.34442 0.00957 0.0
O2 O 0.97567 0.34626 0.99725 0.0
Mg3 Mg 0.97118 0.33771 0.96137 0.0
C4 C 0.98793 0.3481 0.01247 0.0
C5 C 0.0337 0.31012 0.00061 0.0
O6 O 0.02606 0.29984 0.98215 0.0
O7 O 0.98747 0.30142 0.98174 0.0
O8 O 0.96167 0.30399 0.9682 0.0
O9 O 0.03467 0.36677 0.97456 0.0
O10 O 0.0036 0.34751 0.96041 0.0
C11 C 0.96892 0.29329 0.97559 0.0
C12 C 0.01984 0.36535 0.9628 0.0
O13 O 0.03188 0.32571 0.00517 0.0
Mg14 Mg 0.68081 0.65969 0.041 0.0
O15 O 0.65299 0.65385 0.0208 0.0
O16 O 0.62846 0.64829 0.04271 0.0
Mg17 Mg 0.64034 0.64921 0.0769 0.0
C18 C 0.63509 0.65002 0.02398 0.0
C19 C 0.69927 0.66401 0.99568 0.0
O20 O 0.68634 0.6441 0.9933 0.0
O21 O 0.68678 0.69129 0.05259 0.0
O22 O 0.66311 0.68413 0.07627 0.0
O23 O 0.67012 0.62594 0.03863 0.0
O24 O 0.66242 0.64138 0.06424 0.0
C25 C 0.67862 0.69695 0.06664 0.0
C26 C 0.6602 0.62454 0.0555 0.0
O27 O 0.70039 0.67392 0.01293 0.0
Mg28 Mg 0.33637 0.00227 0.98659 0.0
O29 O 0.35432 0.00674 0.01788 0.0
O30 O 0.3866 0.0312 0.01518 0.0
Mg31 Mg 0.38917 0.04164 0.98091 0.0
C32 C 0.37232 0.01782 0.02582 0.0
C33 C 0.30448 0.97337 0.01827 0.0
O34 O 0.31793 0.9678 0.02187 0.0
O35 O 0.33775 0.03259 0.9933 0.0
O36 O 0.36993 0.05661 0.98894 0.0
O37 O 0.34302 0.97814 0.97565 0.0
O38 O 0.36239 0.01141 0.97013 0.0
C39 C 0.35181 0.05135 0.99314 0.0
C40 C 0.35961 0.99295 0.96871 0.0
O41 O 0.3073 0.98618 0.00421 0.0
Mg42 Mg 0.97605 0.65528 0.03468 0.0
O43 O 0.9925 0.64737 0.00935 0.0
O44 O 0.01763 0.64535 0.02558 0.0
Mg45 Mg 0.0172 0.65215 0.06138 0.0
C46 C 0.00737 0.64424 0.00873 0.0
C47 C 0.95868 0.67957 0.01411 0.0
O48 O 0.96212 0.6865 0.03419 0.0
O49 O 0.00203 0.68811 0.03822 0.0
O50 O 0.02701 0.68607 0.05486 0.0
O51 O 0.95565 0.6217 0.03915 0.0
O52 O 0.98457 0.64152 0.05754 0.0
C53 C 0.01996 0.69655 0.04643 0.0
C54 C 0.96911 0.62341 0.05328 0.0
O55 O 0.96179 0.66496 0.0087 0.0
Mg56 Mg 0.33039 0.35396 0.98728 0.0
O57 O 0.35725 0.36163 0.01013 0.0
O58 O 0.38376 0.36795 0.99107 0.0
Mg59 Mg 0.37372 0.36539 0.95577 0.0
C60 C 0.37559 0.36613 0.00896 0.0
C61 C 0.29225 0.32356 0.00913 0.0
O62 O 0.28747 0.31722 0.98893 0.0
O63 O 0.32719 0.32316 0.97851 0.0
O64 O 0.35321 0.33 0.95837 0.0
O65 O 0.339 0.38694 0.98764 0.0
O66 O 0.34956 0.37191 0.96451 0.0
C67 C 0.33711 0.31724 0.96729 0.0
C68 C 0.34991 0.38842 0.97161 0.0
O69 O 0.30923 0.33958 0.01411 0.0
Mg70 Mg 0.67892 0.03519 0.04219 0.0
O71 O 0.65568 0.01753 0.01461 0.0
O72 O 0.62659 0.99399 0.02756 0.0
Mg73 Mg 0.63175 0.9969 0.06402 0.0
C74 C 0.63731 0.00305 0.01188 0.0
C75 C 0.72014 0.04707 0.02475 0.0
O76 O 0.72318 0.04535 0.04509 0.0
O77 O 0.68242 0.00768 0.04724 0.0
O78 O 0.65365 0.98417 0.06075 0.0
O79 O 0.66847 0.05786 0.04386 0.0
O80 O 0.65598 0.02973 0.06235 0.0
C81 C 0.67135 0.98996 0.05442 0.0
C82 C 0.65525 0.04573 0.05682 0.0
O83 O 0.70358 0.04564 0.01849 0.0
Mg84 Mg 0.69072 0.67664 0.32266 0.0
O85 O 0.67292 0.68302 0.34784 0.0
O86 O 0.6502 0.68761 0.32953 0.0
Mg87 Mg 0.65487 0.68692 0.29365 0.0
C88 C 0.65819 0.68644 0.34716 0.0
C89 C 0.7005 0.64542 0.34485 0.0
O90 O 0.68862 0.63332 0.32888 0.0
O91 O 0.66318 0.64486 0.31368 0.0
O92 O 0.64376 0.65206 0.29272 0.0
O93 O 0.7136 0.71034 0.32287 0.0
O94 O 0.68613 0.69488 0.30154 0.0
C95 C 0.64775 0.6392 0.30112 0.0
C96 C 0.70212 0.71172 0.30833 0.0
O97 O 0.70383 0.66379 0.34725 0.0
Mg98 Mg 0.32984 0.97771 0.37246 0.0
O99 O 0.30956 0.97523 0.34339 0.0
O100 O 0.28182 0.97344 0.35626 0.0
Mg101 Mg 0.28405 0.97445 0.39256 0.0
C102 C 0.29233 0.97382 0.34064 0.0
C103 C 0.35858 0.97474 0.33985 0.0
O104 O 0.34384 0.95539 0.33844 0.0
O105 O 0.33841 0.0111 0.3794 0.0
O106 O 0.31026 0.00809 0.39237 0.0
O107 O 0.31491 0.94358 0.3717 0.0
O108 O 0.30426 0.9617 0.39005 0.0
C109 C 0.32856 0.0191 0.38719 0.0
C110 C 0.3014 0.94398 0.38329 0.0
O111 O 0.35691 0.98773 0.35186 0.0
Mg112 Mg 0.00075 0.3244 0.31655 0.0
O113 O 0.02605 0.34012 0.3429 0.0
O114 O 0.05559 0.35606 0.32709 0.0
Mg115 Mg 0.04925 0.34989 0.29104 0.0
C116 C 0.04532 0.35136 0.34381 0.0
C117 C 0.97617 0.31067 0.35714 0.0
O118 O 0.98877 0.30399 0.36065 0.0
O119 O 0.00597 0.35616 0.30978 0.0
O120 O 0.03525 0.37063 0.29365 0.0
O121 O 0.0021 0.29545 0.31712 0.0
O122 O 0.02097 0.32174 0.2974 0.0
C123 C 0.0202 0.37138 0.30087 0.0
C124 C 0.01686 0.30422 0.30452 0.0
O125 O 0.9772 0.31996 0.34029 0.0
Mg126 Mg 0.63922 0.98233 0.35468 0.0
O127 O 0.66116 0.97676 0.33551 0.0
O128 O 0.68366 0.97555 0.35773 0.0
Mg129 Mg 0.67567 0.98015 0.39167 0.0
C130 C 0.67657 0.97481 0.33888 0.0
C131 C 0.62592 0.00555 0.3239 0.0
O132 O 0.6278 0.0158 0.34204 0.0
O133 O 0.66379 0.0159 0.3614 0.0
O134 O 0.68532 0.01376 0.38442 0.0
O135 O 0.61906 0.94833 0.35752 0.0
O136 O 0.64399 0.96876 0.38075 0.0
C137 C 0.67993 0.02434 0.37341 0.0
C138 C 0.62977 0.95041 0.37472 0.0
O139 O 0.62894 0.99039 0.32392 0.0
Mg140 Mg 0.00532 0.69361 0.3224 0.0
O141 O 0.0305 0.70131 0.34753 0.0
O142 O 0.05734 0.70497 0.33079 0.0
Mg143 Mg 0.04987 0.70257 0.29458 0.0
C144 C 0.04848 0.70447 0.34792 0.0
C145 C 0.96526 0.6651 0.34191 0.0
O146 O 0.96223 0.65777 0.32199 0.0
O147 O 0.00156 0.66206 0.31631 0.0
O148 O 0.0273 0.66748 0.29629 0.0
O149 O 0.01482 0.72679 0.3202 0.0
O150 O 0.02601 0.71027 0.30013 0.0
C151 C 0.01099 0.65537 0.30529 0.0
C152 C 0.02627 0.72718 0.30517 0.0
O153 O 0.98212 0.68096 0.34769 0.0
Mg154 Mg 0.33441 0.36089 0.37198 0.0
O155 O 0.30743 0.3412 0.34851 0.0
O156 O 0.28089 0.32035 0.36707 0.0
Mg157 Mg 0.29104 0.32766 0.40257 0.0
C158 C 0.28898 0.32698 0.34935 0.0
C159 C 0.37291 0.37065 0.34993 0.0
O160 O 0.3776 0.36997 0.37005 0.0
O161 O 0.33737 0.3332 0.37811 0.0
O162 O 0.31131 0.31321 0.39767 0.0
O163 O 0.32608 0.3852 0.37415 0.0
O164 O 0.31526 0.35913 0.39542 0.0
C165 C 0.32737 0.31701 0.38835 0.0
C166 C 0.31501 0.37533 0.38971 0.0
O167 O 0.3557 0.36836 0.34501 0.0
Mg168 Mg 0.35465 0.01903 0.6624 0.0
O169 O 0.33134 0.01891 0.68476 0.0
O170 O 0.30883 0.02247 0.66483 0.0
Mg171 Mg 0.318 0.02551 0.63021 0.0
C172 C 0.31546 0.02032 0.68286 0.0
C173 C 0.37527 0.01642 0.70513 0.0
O174 O 0.37894 0.03541 0.70807 0.0
O175 O 0.33176 0.98659 0.64915 0.0
O176 O 0.31079 0.99167 0.62826 0.0
O177 O 0.37355 0.0531 0.66783 0.0
O178 O 0.34956 0.03775 0.64215 0.0
C179 C 0.31657 0.97989 0.63599 0.0
C180 C 0.36269 0.05453 0.65264 0.0
O181 O 0.36569 0.00581 0.68821 0.0
Mg182 Mg 0.00035 0.32612 0.70946 0.0
O183 O 0.9752 0.31089 0.68286 0.0
O184 O 0.94565 0.29815 0.69842 0.0
Mg185 Mg 0.9517 0.30411 0.73457 0.0
C186 C 0.95591 0.3016 0.68178 0.0
C187 C 0.03651 0.36083 0.68486 0.0
O188 O 0.03482 0.37336 0.69867 0.0
O189 O 0.99427 0.35287 0.71247 0.0
O190 O 0.9652 0.33865 0.72912 0.0
O191 O 0.99956 0.29638 0.71364 0.0
O192 O 0.9811 0.30634 0.73129 0.0
C193 C 0.97993 0.35411 0.72096 0.0
C194 C 0.98567 0.29233 0.72708 0.0
O195 O 0.02421 0.34151 0.68493 0.0
Mg196 Mg 0.65644 0.63948 0.65746 0.0
O197 O 0.68439 0.66305 0.67775 0.0
O198 O 0.70912 0.68133 0.65598 0.0
Mg199 Mg 0.69731 0.66816 0.62177 0.0
C200 C 0.70237 0.67737 0.67466 0.0
C201 C 0.62056 0.63521 0.68251 0.0
O202 O 0.61499 0.63704 0.66316 0.0
O203 O 0.65165 0.6651 0.64618 0.0
O204 O 0.67543 0.68074 0.62256 0.0
O205 O 0.66632 0.61628 0.65972 0.0
O206 O 0.67467 0.63848 0.6343 0.0
C207 C 0.66012 0.67851 0.63234 0.0
C208 C 0.67644 0.62412 0.64296 0.0
O209 O 0.63691 0.63509 0.68567 0.0
Mg210 Mg 0.3125 0.32045 0.70004 0.0
O211 O 0.33159 0.31411 0.67673 0.0
O212 O 0.35413 0.30994 0.69583 0.0
Mg213 Mg 0.34872 0.31266 0.73127 0.0
C214 C 0.34633 0.31076 0.67792 0.0
C215 C 0.29904 0.34787 0.6789 0.0
O216 O 0.30178 0.35414 0.69916 0.0
O217 O 0.3389 0.35263 0.70828 0.0
O218 O 0.36027 0.3475 0.72838 0.0
O219 O 0.2903 0.28664 0.70077 0.0
O220 O 0.3171 0.3038 0.72292 0.0
C221 C 0.35531 0.35951 0.71956 0.0
C222 C 0.30149 0.28646 0.71649 0.0
O223 O 0.3017 0.33299 0.67337 0.0
Mg224 Mg 0.6685 0.01911 0.65561 0.0
O225 O 0.69446 0.02505 0.67896 0.0
O226 O 0.71822 0.02447 0.65959 0.0
Mg227 Mg 0.70861 0.02147 0.62391 0.0
C228 C 0.71148 0.02599 0.67758 0.0
C229 C 0.63216 0.01358 0.67881 0.0
O230 O 0.63294 0.02448 0.66255 0.0
O231 O 0.66071 0.98595 0.65014 0.0
O232 O 0.68318 0.98755 0.62708 0.0
O233 O 0.68092 0.05281 0.65225 0.0
O234 O 0.68829 0.0332 0.63184 0.0
C235 C 0.66751 0.97728 0.63779 0.0
C236 C 0.69074 0.05118 0.63652 0.0
O237 O 0.6463 0.00969 0.6819 0.0
Mg238 Mg 0.00317 0.69942 0.69813 0.0
O239 O 0.97894 0.68235 0.6711 0.0
O240 O 0.94957 0.66216 0.68588 0.0
Mg241 Mg 0.95493 0.66765 0.72221 0.0
C242 C 0.9601 0.66896 0.6695 0.0
C243 C 0.04603 0.71813 0.68342 0.0
O244 O 0.04843 0.72613 0.70298 0.0
O245 O 0.00234 0.66974 0.70487 0.0
O246 O 0.97313 0.65072 0.72042 0.0
O247 O 0.99745 0.72572 0.6991 0.0
O248 O 0.98185 0.69828 0.7183 0.0
C249 C 0.98977 0.65332 0.71357 0.0
C250 C 0.98415 0.71573 0.71298 0.0
O251 O 0.02819 0.7068 0.67534 0.0
C252 C 0.24625 0.26169 0.08479 0.0
C253 C 0.23901 0.27524 0.07471 0.0
C254 C 0.22224 0.28704 0.09955 0.0
C255 C 0.22365 0.30506 0.10839 0.0
C256 C 0.20722 0.30464 0.11811 0.0
C257 C 0.18905 0.28557 0.1193 0.0
C258 C 0.18759 0.26717 0.11072 0.0
C259 C 0.20424 0.26807 0.10096 0.0
C260 C 0.20929 0.32455 0.12715 0.0
C261 C 0.16849 0.24657 0.11208 0.0
C262 C 0.04942 0.26809 0.08026 0.0
C263 C 0.06588 0.27818 0.06407 0.0
C264 C 0.09731 0.29104 0.08633 0.0
C265 C 0.09516 0.2716 0.08975 0.0
C266 C 0.10931 0.26987 0.1028 0.0
C267 C 0.12599 0.28788 0.11256 0.0
C268 C 0.12839 0.30746 0.10891 0.0
C269 C 0.11398 0.30875 0.09585 0.0
C270 C 0.10638 0.24876 0.10634 0.0
C271 C 0.1461 0.327 0.11894 0.0
C272 C 0.08659 0.28795 0.2438 0.0
C273 C 0.08568 0.26879 0.24217 0.0
C274 C 0.10166 0.26718 0.23381 0.0
C275 C 0.11895 0.28513 0.22735 0.0
C276 C 0.12021 0.30456 0.22986 0.0
C277 C 0.10385 0.30563 0.23778 0.0
C278 C 0.09988 0.24625 0.23135 0.0
C279 C 0.13862 0.32412 0.2237 0.0
C280 C 0.25222 0.27138 0.26279 0.0
C281 C 0.24477 0.28617 0.26908 0.0
C282 C 0.21011 0.27716 0.259 0.0
C283 C 0.19149 0.25957 0.25336 0.0
C284 C 0.17682 0.26079 0.24072 0.0
C285 C 0.18077 0.28022 0.234 0.0
C286 C 0.19925 0.29825 0.24049 0.0
C287 C 0.21377 0.29653 0.25293 0.0
C288 C 0.15723 0.24128 0.23425 0.0
C289 C 0.2037 0.31928 0.23412 0.0
C290 C 0.17178 0.28486 0.13005 0.0
C291 C 0.15718 0.28618 0.11755 0.0
C292 C 0.14082 0.28622 0.12678 0.0
C293 C 0.13896 0.28498 0.14913 0.0
C294 C 0.12268 0.28494 0.15894 0.0
C295 C 0.12123 0.28418 0.18097 0.0
C296 C 0.13606 0.28354 0.19407 0.0
C297 C 0.13507 0.28348 0.21654 0.0
C298 C 0.14984 0.28249 0.22909 0.0
C299 C 0.16575 0.28158 0.21977 0.0
C300 C 0.16715 0.28191 0.19733 0.0
C301 C 0.183 0.28115 0.18741 0.0
C302 C 0.1845 0.282 0.16538 0.0
C303 C 0.17014 0.28352 0.15239 0.0
C304 C 0.15377 0.28378 0.16198 0.0
C305 C 0.1523 0.28304 0.18447 0.0
C306 C 0.0429 0.28469 0.27054 0.0
C307 C 0.05451 0.27569 0.26112 0.0
O308 O 0.23868 0.28865 0.09019 0.0
O309 O 0.22397 0.27485 0.27057 0.0
O310 O 0.07114 0.29011 0.25078 0.0
O311 O 0.08376 0.2935 0.07421 0.0
H312 H 0.22363 0.26502 0.06713 0.0
H313 H 0.23569 0.25231 0.09699 0.0
H314 H 0.26155 0.27134 0.09265 0.0
H315 H 0.24672 0.25102 0.07241 0.0
H316 H 0.23768 0.31957 0.10741 0.0
H317 H 0.2032 0.2539 0.0948 0.0
H318 H 0.19705 0.32667 0.12018 0.0
H319 H 0.2241 0.33822 0.12398 0.0
H320 H 0.20766 0.32381 0.14468 0.0
H321 H 0.16984 0.23361 0.1049 0.0
H322 H 0.15573 0.24687 0.10371 0.0
H323 H 0.16475 0.24363 0.12905 0.0
H324 H 0.06839 0.2662 0.05623 0.0
H325 H 0.05383 0.26055 0.09244 0.0
H326 H 0.03502 0.25607 0.07202 0.0
H327 H 0.04687 0.27982 0.08858 0.0
H328 H 0.08246 0.25767 0.08248 0.0
H329 H 0.11559 0.32367 0.09311 0.0
H330 H 0.10549 0.2461 0.12368 0.0
H331 H 0.11959 0.24798 0.10072 0.0
H332 H 0.09247 0.23619 0.09785 0.0
H333 H 0.14616 0.34109 0.11396 0.0
H334 H 0.16045 0.32797 0.11449 0.0
H335 H 0.14563 0.32667 0.1366 0.0
H336 H 0.04527 0.26077 0.25164 0.0
H337 H 0.0724 0.25501 0.24691 0.0
H338 H 0.10443 0.32035 0.23929 0.0
H339 H 0.10186 0.24297 0.21447 0.0
H340 H 0.08508 0.23365 0.23625 0.0
H341 H 0.11207 0.24624 0.24125 0.0
H342 H 0.13855 0.33818 0.22972 0.0
H343 H 0.13909 0.32424 0.20604 0.0
H344 H 0.15261 0.32481 0.23002 0.0
H345 H 0.24901 0.2973 0.25623 0.0
H346 H 0.26884 0.28004 0.26116 0.0
H347 H 0.24489 0.26316 0.2472 0.0
H348 H 0.24847 0.25972 0.27497 0.0
H349 H 0.1887 0.24475 0.25846 0.0
H350 H 0.22783 0.31033 0.25804 0.0
H351 H 0.15498 0.23959 0.21658 0.0
H352 H 0.14442 0.24227 0.24077 0.0
H353 H 0.15682 0.22727 0.24007 0.0
H354 H 0.21803 0.33193 0.24185 0.0
H355 H 0.19114 0.32181 0.23845 0.0
H356 H 0.20481 0.32008 0.21654 0.0
H357 H 0.15863 0.28732 0.10042 0.0
H358 H 0.11092 0.28558 0.14971 0.0
H359 H 0.10835 0.2842 0.18759 0.0
H360 H 0.14898 0.28248 0.24632 0.0
H361 H 0.19453 0.28005 0.19658 0.0
H362 H 0.19712 0.2815 0.15867 0.0
H363 H 0.02763 0.27613 0.26181 0.0
H364 H 0.04766 0.29961 0.26262 0.0
H365 H 0.0468 0.2834 0.30358 0.0
C366 C 0.71242 0.9359 0.0293 0.0
C367 C 0.7034 0.93449 0.05108 0.0
C368 C 0.71627 0.92899 0.08478 0.0
C369 C 0.6975 0.91666 0.09365 0.0
C370 C 0.69565 0.904 0.11039 0.0
C371 C 0.71294 0.90384 0.11848 0.0
C372 C 0.73211 0.91753 0.11077 0.0
C373 C 0.73353 0.93008 0.09408 0.0
C374 C 0.67507 0.88997 0.11866 0.0
C375 C 0.75091 0.91798 0.11928 0.0
C376 C 0.68998 0.75188 0.06921 0.0
C377 C 0.6988 0.77449 0.07373 0.0
C378 C 0.69068 0.79718 0.09485 0.0
C379 C 0.71068 0.81379 0.09731 0.0
C380 C 0.71542 0.83156 0.11 0.0
C381 C 0.69983 0.8329 0.12011 0.0
C382 C 0.67964 0.81638 0.11734 0.0
C383 C 0.67538 0.79866 0.10484 0.0
C384 C 0.73709 0.84896 0.11251 0.0
C385 C 0.66257 0.81752 0.12745 0.0
C386 C 0.71228 0.80978 0.25589 0.0
C387 C 0.73078 0.82771 0.25257 0.0
C388 C 0.73132 0.84428 0.24228 0.0
C389 C 0.71301 0.84317 0.23572 0.0
C390 C 0.69436 0.82571 0.24024 0.0
C391 C 0.69427 0.80918 0.25015 0.0
C392 C 0.7515 0.86278 0.23798 0.0
C393 C 0.67454 0.82424 0.23401 0.0
C394 C 0.73747 0.00095 0.26422 0.0
C395 C 0.72268 0.97785 0.26574 0.0
C396 C 0.72915 0.94967 0.25735 0.0
C397 C 0.74502 0.94613 0.25349 0.0
C398 C 0.74161 0.92814 0.24213 0.0
C399 C 0.7217 0.9131 0.23495 0.0
C400 C 0.70544 0.91621 0.23955 0.0
C401 C 0.70933 0.93452 0.25065 0.0
C402 C 0.75932 0.92532 0.23763 0.0
C403 C 0.68397 0.90024 0.23261 0.0
C404 C 0.71051 0.88704 0.13206 0.0
C405 C 0.70635 0.86855 0.12148 0.0
C406 C 0.70448 0.85202 0.13268 0.0
C407 C 0.70695 0.85389 0.15519 0.0
C408 C 0.7059 0.8378 0.16691 0.0
C409 C 0.70818 0.83973 0.18908 0.0
C410 C 0.71136 0.85772 0.2004 0.0
C411 C 0.71342 0.85968 0.22296 0.0
C412 C 0.71652 0.87776 0.2337 0.0
C413 C 0.71796 0.8942 0.22249 0.0
C414 C 0.7162 0.89263 0.19989 0.0
C415 C 0.718 0.90903 0.18805 0.0
C416 C 0.71619 0.90728 0.16582 0.0
C417 C 0.71246 0.88908 0.15461 0.0
C418 C 0.71067 0.87239 0.16621 0.0
C419 C 0.71269 0.87423 0.18886 0.0
C420 C 0.7347 0.78557 0.2467 0.0
C421 C 0.72667 0.78873 0.26785 0.0
O422 O 0.71826 0.93957 0.06702 0.0
O423 O 0.73358 0.9678 0.26764 0.0
O424 O 0.71105 0.79265 0.26412 0.0
O425 O 0.68556 0.77945 0.08324 0.0
H426 H 0.69108 0.91812 0.05179 0.0
H427 H 0.71757 0.92451 0.02771 0.0
H428 H 0.72561 0.95154 0.02744 0.0
H429 H 0.70087 0.93234 0.01626 0.0
H430 H 0.68419 0.91649 0.08724 0.0
H431 H 0.74802 0.94001 0.08744 0.0
H432 H 0.66994 0.87374 0.11333 0.0
H433 H 0.66367 0.89387 0.11284 0.0
H434 H 0.67588 0.89094 0.1364 0.0
H435 H 0.76486 0.93076 0.11299 0.0
H436 H 0.75002 0.90311 0.11472 0.0
H437 H 0.75199 0.91973 0.13698 0.0
H438 H 0.70667 0.78446 0.06036 0.0
H439 H 0.68941 0.74986 0.05128 0.0
H440 H 0.67312 0.74457 0.0702 0.0
H441 H 0.70749 0.74446 0.08927 0.0
H442 H 0.72266 0.81301 0.08939 0.0
H443 H 0.66 0.78582 0.10277 0.0
H444 H 0.73863 0.86257 0.10443 0.0
H445 H 0.74772 0.84465 0.10555 0.0
H446 H 0.74151 0.85366 0.12967 0.0
H447 H 0.64758 0.80387 0.12271 0.0
H448 H 0.66263 0.8317 0.12282 0.0
H449 H 0.66474 0.81851 0.1451 0.0
H450 H 0.73914 0.80194 0.27751 0.0
H451 H 0.74489 0.8288 0.25755 0.0
H452 H 0.68005 0.79545 0.25305 0.0
H453 H 0.75225 0.86574 0.22071 0.0
H454 H 0.76436 0.86071 0.24284 0.0
H455 H 0.75321 0.87664 0.24687 0.0
H456 H 0.66153 0.81095 0.24102 0.0
H457 H 0.67217 0.82238 0.21636 0.0
H458 H 0.67484 0.83868 0.23925 0.0
H459 H 0.71315 0.97254 0.25059 0.0
H460 H 0.72913 0.00939 0.26242 0.0
H461 H 0.7467 0.0035 0.25006 0.0
H462 H 0.7478 0.00737 0.27871 0.0
H463 H 0.76022 0.95781 0.25898 0.0
H464 H 0.69688 0.93687 0.25422 0.0
H465 H 0.7593 0.92168 0.22033 0.0
H466 H 0.75792 0.9121 0.24636 0.0
H467 H 0.77402 0.93927 0.24262 0.0
H468 H 0.67287 0.9042 0.2389 0.0
H469 H 0.68033 0.8849 0.23813 0.0
H470 H 0.68229 0.89889 0.21491 0.0
H471 H 0.70464 0.86703 0.10417 0.0
H472 H 0.70337 0.82356 0.15907 0.0
H473 H 0.70731 0.82684 0.19721 0.0
H474 H 0.71807 0.87914 0.25101 0.0
H475 H 0.72086 0.92341 0.19584 0.0
H476 H 0.71767 0.92034 0.15749 0.0
H477 H 0.74657 0.78152 0.24983 0.0
H478 H 0.74154 0.79982 0.23773 0.0
H479 H 0.72229 0.77298 0.23641 0.0
C480 C 0.25261 0.94051 0.03791 0.0
C481 C 0.23353 0.93188 0.04934 0.0
C482 C 0.21361 0.90391 0.0726 0.0
C483 C 0.20157 0.91202 0.07945 0.0
C484 C 0.18645 0.90166 0.0939 0.0
C485 C 0.18329 0.88284 0.10161 0.0
C486 C 0.19553 0.87476 0.09497 0.0
C487 C 0.21058 0.88546 0.08053 0.0
C488 C 0.17361 0.91065 0.10069 0.0
C489 C 0.1925 0.8547 0.1029 0.0
C490 C 0.06513 0.79156 0.01948 0.0
C491 C 0.07023 0.78533 0.04069 0.0
C492 C 0.08095 0.80624 0.07417 0.0
C493 C 0.09332 0.79912 0.08255 0.0
C494 C 0.10869 0.81108 0.09813 0.0
C495 C 0.11175 0.83054 0.10539 0.0
C496 C 0.09832 0.83702 0.09815 0.0
C497 C 0.08288 0.8246 0.08276 0.0
C498 C 0.12237 0.80342 0.10599 0.0
C499 C 0.10105 0.85761 0.1057 0.0
C500 C 0.0858 0.82297 0.24394 0.0
C501 C 0.09711 0.81398 0.23738 0.0
C502 C 0.11474 0.82528 0.22628 0.0
C503 C 0.12094 0.84585 0.22141 0.0
C504 C 0.11004 0.85521 0.2289 0.0
C505 C 0.0927 0.84367 0.24037 0.0
C506 C 0.12647 0.81509 0.21933 0.0
C507 C 0.11634 0.87717 0.22421 0.0
C508 C 0.26877 0.97622 0.23935 0.0
C509 C 0.25474 0.96173 0.25567 0.0
C510 C 0.22998 0.92789 0.23836 0.0
C511 C 0.22425 0.90701 0.237 0.0
C512 C 0.206 0.89216 0.22645 0.0
C513 C 0.19312 0.89841 0.21709 0.0
C514 C 0.1988 0.91952 0.21832 0.0
C515 C 0.21731 0.9341 0.22863 0.0
C516 C 0.20053 0.86981 0.2252 0.0
C517 C 0.18535 0.92672 0.20862 0.0
C518 C 0.16636 0.87099 0.11556 0.0
C519 C 0.14768 0.85683 0.10567 0.0
C520 C 0.13078 0.84537 0.11756 0.0
C521 C 0.13243 0.84814 0.14006 0.0
C522 C 0.1157 0.83705 0.15253 0.0
C523 C 0.11753 0.84008 0.17468 0.0
C524 C 0.13622 0.85413 0.18521 0.0
C525 C 0.13828 0.85726 0.20773 0.0
C526 C 0.157 0.87158 0.21761 0.0
C527 C 0.17389 0.88294 0.20561 0.0
C528 C 0.17222 0.87982 0.18313 0.0
C529 C 0.18899 0.89075 0.17061 0.0
C530 C 0.18713 0.88789 0.14848 0.0
C531 C 0.16845 0.87388 0.13803 0.0
C532 C 0.15139 0.86246 0.15033 0.0
C533 C 0.15328 0.86544 0.17291 0.0
C534 C 0.03365 0.79227 0.24032 0.0
C535 C 0.05306 0.79212 0.24619 0.0
O536 O 0.22821 0.91334 0.05839 0.0
O537 O 0.24781 0.94135 0.249 0.0
O538 O 0.06795 0.81185 0.25328 0.0
O539 O 0.06754 0.79617 0.05738 0.0
H540 H 0.22063 0.93161 0.04039 0.0
H541 H 0.25585 0.92755 0.03521 0.0
H542 H 0.27231 0.96789 0.05595 0.0
H543 H 0.248 0.94038 0.02069 0.0
H544 H 0.20374 0.92631 0.07349 0.0
H545 H 0.21997 0.87937 0.07521 0.0
H546 H 0.15757 0.89978 0.09554 0.0
H547 H 0.17841 0.92579 0.09382 0.0
H548 H 0.17442 0.91268 0.11837 0.0
H549 H 0.20386 0.85096 0.09697 0.0
H550 H 0.17718 0.84193 0.0976 0.0
H551 H 0.19343 0.85552 0.12063 0.0
H552 H 0.08643 0.78976 0.04016 0.0
H553 H 0.06664 0.7826 0.00591 0.0
H554 H 0.07575 0.80824 0.01754 0.0
H555 H 0.04952 0.78893 0.01894 0.0
H556 H 0.09133 0.78448 0.07658 0.0
H557 H 0.07298 0.82976 0.07647 0.0
H558 H 0.12464 0.80567 0.12364 0.0
H559 H 0.13738 0.81251 0.09911 0.0
H560 H 0.11622 0.78682 0.10135 0.0
H561 H 0.08855 0.85979 0.09965 0.0
H562 H 0.11552 0.87023 0.10016 0.0
H563 H 0.1019 0.85902 0.12341 0.0
H564 H 0.05733 0.7872 0.23118 0.0
H565 H 0.09205 0.7981 0.24082 0.0
H566 H 0.08396 0.85049 0.24581 0.0
H567 H 0.12464 0.8122 0.20173 0.0
H568 H 0.12126 0.80012 0.22679 0.0
H569 H 0.14283 0.82543 0.2235 0.0
H570 H 0.10565 0.88183 0.23024 0.0
H571 H 0.11733 0.87902 0.20672 0.0
H572 H 0.13157 0.88782 0.23175 0.0
H573 H 0.24192 0.96456 0.25714 0.0
H574 H 0.27485 0.99259 0.24497 0.0
H575 H 0.26023 0.97346 0.22386 0.0
H576 H 0.28154 0.97356 0.23667 0.0
H577 H 0.23417 0.90236 0.24435 0.0
H578 H 0.22174 0.95024 0.2288 0.0
H579 H 0.19737 0.86376 0.20829 0.0
H580 H 0.18654 0.86049 0.23382 0.0
H581 H 0.2127 0.86762 0.23225 0.0
H582 H 0.19086 0.94325 0.21292 0.0
H583 H 0.16972 0.91729 0.21398 0.0
H584 H 0.18468 0.92459 0.19097 0.0
H585 H 0.14626 0.85473 0.08838 0.0
H586 H 0.101 0.826 0.14526 0.0
H587 H 0.10408 0.83124 0.18344 0.0
H588 H 0.15841 0.87402 0.23486 0.0
H589 H 0.20377 0.90171 0.17778 0.0
H590 H 0.20052 0.89679 0.13964 0.0
H591 H 0.02139 0.77648 0.23495 0.0
H592 H 0.03635 0.80265 0.22707 0.0
H593 H 0.02866 0.79792 0.25414 0.0
C594 C 0.33722 0.08981 0.97984 0.0
C595 C 0.33195 0.10631 0.97943 0.0
C596 C 0.30714 0.10312 0.95185 0.0
C597 C 0.2868 0.09659 0.94745 0.0
C598 C 0.28054 0.10208 0.92887 0.0
C599 C 0.29509 0.11472 0.91451 0.0
C600 C 0.3155 0.12008 0.91805 0.0
C601 C 0.32126 0.11388 0.9365 0.0
C602 C 0.25854 0.09553 0.92534 0.0
C603 C 0.33151 0.13359 0.90314 0.0
C604 C 0.3024 0.22127 0.98575 0.0
C605 C 0.30835 0.2293 0.96345 0.0
C606 C 0.28991 0.20498 0.93323 0.0
C607 C 0.30637 0.208 0.92138 0.0
C608 C 0.30465 0.1924 0.90703 0.0
C609 C 0.28599 0.17364 0.90423 0.0
C610 C 0.2689 0.17141 0.91459 0.0
C611 C 0.27108 0.18724 0.92894 0.0
C612 C 0.32309 0.19546 0.89588 0.0
C613 C 0.24868 0.15181 0.91153 0.0
C614 C 0.2723 0.18185 0.76566 0.0
C615 C 0.29132 0.18634 0.77381 0.0
C616 C 0.29348 0.17194 0.78551 0.0
C617 C 0.27615 0.15279 0.78937 0.0
C618 C 0.25708 0.14784 0.78018 0.0
C619 C 0.25544 0.16243 0.76819 0.0
C620 C 0.31417 0.17749 0.79441 0.0
C621 C 0.23835 0.12752 0.78381 0.0
C622 C 0.26929 0.00919 0.77284 0.0
C623 C 0.27678 0.02753 0.75856 0.0
C624 C 0.28815 0.06017 0.77958 0.0
C625 C 0.30513 0.07953 0.78469 0.0
C626 C 0.30331 0.0956 0.79441 0.0
C627 C 0.28397 0.09207 0.7993 0.0
C628 C 0.26672 0.07239 0.79458 0.0
C629 C 0.26898 0.05657 0.78487 0.0
C630 C 0.32204 0.11636 0.7994 0.0
C631 C 0.24593 0.0681 0.79986 0.0
C632 C 0.28986 0.12588 0.89886 0.0
C633 C 0.28889 0.14284 0.90706 0.0
C634 C 0.28535 0.1553 0.8938 0.0
C635 C 0.28261 0.15081 0.87154 0.0
C636 C 0.27903 0.16307 0.85775 0.0
C637 C 0.27712 0.15896 0.83576 0.0
C638 C 0.2788 0.14248 0.82676 0.0
C639 C 0.27779 0.13877 0.80437 0.0
C640 C 0.27925 0.1221 0.79597 0.0
C641 C 0.28184 0.10901 0.80937 0.0
C642 C 0.28311 0.1126 0.83179 0.0
C643 C 0.28592 0.09986 0.84573 0.0
C644 C 0.28782 0.10396 0.86776 0.0
C645 C 0.2871 0.121 0.87663 0.0
C646 C 0.28367 0.13368 0.8629 0.0
C647 C 0.28173 0.1295 0.84047 0.0
C648 C 0.25468 0.21207 0.77647 0.0
C649 C 0.27401 0.21474 0.76703 0.0
O650 O 0.31248 0.09945 0.97131 0.0
O651 O 0.29107 0.04549 0.7698 0.0
O652 O 0.26987 0.19648 0.75624 0.0
O653 O 0.29178 0.21858 0.9492 0.0
H654 H 0.3435 0.12171 0.97412 0.0
H655 H 0.34998 0.09486 0.96873 0.0
H656 H 0.32585 0.07669 0.96874 0.0
H657 H 0.34059 0.0866 0.01255 0.0
H658 H 0.27592 0.08787 0.95911 0.0
H659 H 0.33691 0.11821 0.93914 0.0
H660 H 0.25637 0.10859 0.93029 0.0
H661 H 0.24869 0.08214 0.93483 0.0
H662 H 0.25371 0.09142 0.90818 0.0
H663 H 0.34678 0.13673 0.9084 0.0
H664 H 0.33198 0.14856 0.90213 0.0
H665 H 0.32775 0.12602 0.88685 0.0
H666 H 0.32085 0.22654 0.95937 0.0
H667 H 0.3153 0.23017 0.99754 0.0
H668 H 0.29819 0.20477 0.9856 0.0
H669 H 0.28925 0.22243 0.9909 0.0
H670 H 0.32069 0.22229 0.92373 0.0
H671 H 0.25833 0.18532 0.93775 0.0
H672 H 0.31957 0.19219 0.87842 0.0
H673 H 0.32753 0.18443 0.90164 0.0
H674 H 0.33613 0.2114 0.89873 0.0
H675 H 0.2363 0.1537 0.91791 0.0
H676 H 0.24924 0.13933 0.91995 0.0
H677 H 0.24518 0.14683 0.89432 0.0
H678 H 0.28511 0.21852 0.78069 0.0
H679 H 0.30437 0.20131 0.77136 0.0
H680 H 0.24085 0.15912 0.76162 0.0
H681 H 0.31509 0.18061 0.81194 0.0
H682 H 0.32636 0.19142 0.78731 0.0
H683 H 0.31686 0.16442 0.79147 0.0
H684 H 0.22462 0.12609 0.77572 0.0
H685 H 0.23603 0.12592 0.80119 0.0
H686 H 0.24031 0.11459 0.77779 0.0
H687 H 0.26357 0.02884 0.75318 0.0
H688 H 0.25816 0.9947 0.76374 0.0
H689 H 0.26178 0.01154 0.78665 0.0
H690 H 0.28205 0.00752 0.77903 0.0
H691 H 0.31987 0.0821 0.78078 0.0
H692 H 0.25574 0.04147 0.7817 0.0
H693 H 0.32348 0.12044 0.81678 0.0
H694 H 0.32075 0.12843 0.79096 0.0
H695 H 0.336 0.11659 0.79462 0.0
H696 H 0.23398 0.05199 0.79515 0.0
H697 H 0.24246 0.07887 0.79158 0.0
H698 H 0.24552 0.0709 0.81729 0.0
H699 H 0.29138 0.1467 0.92414 0.0
H700 H 0.27783 0.17607 0.86383 0.0
H701 H 0.27448 0.16901 0.82592 0.0
H702 H 0.27865 0.11946 0.77879 0.0
H703 H 0.28683 0.08667 0.83975 0.0
H704 H 0.29007 0.09376 0.87778 0.0
H705 H 0.24261 0.20754 0.76376 0.0
H706 H 0.2577 0.22669 0.78491 0.0
H707 H 0.24915 0.19982 0.78816 0.0
C708 C 0.76446 0.01567 0.96105 0.0
C709 C 0.77151 0.03867 0.96375 0.0
C710 C 0.78546 0.05927 0.93276 0.0
C711 C 0.78315 0.0737 0.92152 0.0
C712 C 0.79897 0.08851 0.9101 0.0
C713 C 0.81724 0.08821 0.90924 0.0
C714 C 0.81937 0.07308 0.91994 0.0
C715 C 0.80346 0.0588 0.93174 0.0
C716 C 0.79625 0.1047 0.89936 0.0
C717 C 0.83851 0.07209 0.91906 0.0
C718 C 0.91956 0.19784 0.00238 0.0
C719 C 0.91665 0.20446 0.9804 0.0
C720 C 0.90863 0.1818 0.94804 0.0
C721 C 0.91139 0.16597 0.93968 0.0
C722 C 0.89816 0.15185 0.92353 0.0
C723 C 0.88188 0.15383 0.91541 0.0
C724 C 0.87973 0.17059 0.92287 0.0
C725 C 0.89325 0.18454 0.93899 0.0
C726 C 0.9011 0.13437 0.91568 0.0
C727 C 0.86276 0.17336 0.91425 0.0
C728 C 0.91255 0.19169 0.78149 0.0
C729 C 0.91424 0.17398 0.78304 0.0
C730 C 0.8991 0.15634 0.79221 0.0
C731 C 0.88186 0.15635 0.79964 0.0
C732 C 0.87974 0.17383 0.79726 0.0
C733 C 0.89518 0.1913 0.78825 0.0
C734 C 0.90168 0.13783 0.79436 0.0
C735 C 0.86136 0.1742 0.80466 0.0
C736 C 0.74631 0.0061 0.76123 0.0
C737 C 0.75456 0.02873 0.75647 0.0
C738 C 0.78956 0.05465 0.76743 0.0
C739 C 0.80802 0.05579 0.77198 0.0
C740 C 0.82315 0.07202 0.78514 0.0
C741 C 0.81981 0.08771 0.7936 0.0
C742 C 0.80143 0.08705 0.78842 0.0
C743 C 0.78647 0.07052 0.77535 0.0
C744 C 0.84263 0.07232 0.79018 0.0
C745 C 0.79761 0.10383 0.79672 0.0
C746 C 0.83438 0.10431 0.89796 0.0
C747 C 0.84989 0.12078 0.91032 0.0
C748 C 0.86599 0.1372 0.90089 0.0
C749 C 0.86651 0.13749 0.87839 0.0
C750 C 0.88216 0.15402 0.86832 0.0
C751 C 0.88224 0.15433 0.84615 0.0
C752 C 0.86672 0.13806 0.83322 0.0
C753 C 0.86642 0.13843 0.8107 0.0
C754 C 0.85097 0.12189 0.79831 0.0
C755 C 0.83562 0.10482 0.8078 0.0
C756 C 0.83549 0.10425 0.83031 0.0
C757 C 0.82022 0.08738 0.84042 0.0
C758 C 0.81994 0.08724 0.86258 0.0
C759 C 0.83494 0.10395 0.87547 0.0
C760 C 0.85087 0.12078 0.86565 0.0
C761 C 0.85106 0.121 0.84304 0.0
C762 C 0.9597 0.21776 0.78903 0.0
C763 C 0.9466 0.21458 0.76876 0.0
O764 O 0.76991 0.04591 0.94422 0.0
O765 O 0.77534 0.03825 0.75504 0.0
O766 O 0.92724 0.20955 0.77389 0.0
O767 O 0.92102 0.19395 0.96479 0.0
H768 H 0.78748 0.04704 0.97022 0.0
H769 H 0.77405 0.01325 0.94972 0.0
H770 H 0.74851 0.00675 0.95471 0.0
H771 H 0.76573 0.00971 0.97663 0.0
H772 H 0.76906 0.07373 0.9223 0.0
H773 H 0.80504 0.0472 0.93995 0.0
H774 H 0.80935 0.12034 0.90356 0.0
H775 H 0.78222 0.10441 0.90392 0.0
H776 H 0.79548 0.102 0.88178 0.0
H777 H 0.83675 0.05778 0.92569 0.0
H778 H 0.85087 0.08559 0.92842 0.0
H779 H 0.84313 0.07288 0.90233 0.0
H780 H 0.9005 0.20019 0.97903 0.0
H781 H 0.90871 0.18109 0.00363 0.0
H782 H 0.91669 0.20652 0.01518 0.0
H783 H 0.9351 0.20052 0.00495 0.0
H784 H 0.92357 0.16425 0.94642 0.0
H785 H 0.89163 0.19743 0.94452 0.0
H786 H 0.90125 0.13381 0.89798 0.0
H787 H 0.88825 0.11947 0.92029 0.0
H788 H 0.91537 0.1359 0.92236 0.0
H789 H 0.86381 0.18783 0.92078 0.0
H790 H 0.84805 0.16007 0.91835 0.0
H791 H 0.86291 0.17358 0.89657 0.0
H792 H 0.9459 0.20204 0.75813 0.0
H793 H 0.92739 0.17385 0.77743 0.0
H794 H 0.89392 0.20495 0.78677 0.0
H795 H 0.9011 0.13413 0.8114 0.0
H796 H 0.91617 0.1404 0.7882 0.0
H797 H 0.88903 0.12419 0.78545 0.0
H798 H 0.8612 0.18826 0.79999 0.0
H799 H 0.86107 0.17371 0.82231 0.0
H800 H 0.84739 0.16036 0.79787 0.0
H801 H 0.75059 0.03576 0.77004 0.0
H802 H 0.72967 0.9981 0.76264 0.0
H803 H 0.75328 0.00516 0.77657 0.0
H804 H 0.74984 0.99801 0.74838 0.0
H805 H 0.81037 0.04364 0.7655 0.0
H806 H 0.77255 0.07022 0.77112 0.0
H807 H 0.8453 0.07303 0.80774 0.0
H808 H 0.85544 0.08637 0.78399 0.0
H809 H 0.84255 0.05852 0.78306 0.0
H810 H 0.78293 0.1016 0.79046 0.0
H811 H 0.80993 0.11913 0.79223 0.0
H812 H 0.79766 0.10408 0.81443 0.0
H813 H 0.84934 0.1209 0.92759 0.0
H814 H 0.89441 0.16698 0.87749 0.0
H815 H 0.89461 0.16753 0.83928 0.0
H816 H 0.85087 0.12235 0.78104 0.0
H817 H 0.80821 0.07416 0.83131 0.0
H818 H 0.80776 0.0739 0.86949 0.0
H819 H 0.97538 0.22247 0.78483 0.0
H820 H 0.95368 0.20328 0.79758 0.0
H821 H 0.96013 0.22989 0.80008 0.0
C822 C 0.747 0.68674 0.96779 0.0
C823 C 0.76432 0.69809 0.95405 0.0
C824 C 0.78538 0.69171 0.92995 0.0
C825 C 0.79767 0.71248 0.92508 0.0
C826 C 0.81387 0.71836 0.91173 0.0
C827 C 0.81756 0.70313 0.90266 0.0
C828 C 0.80493 0.68216 0.90713 0.0
C829 C 0.78906 0.67677 0.92083 0.0
C830 C 0.82722 0.74091 0.90753 0.0
C831 C 0.80833 0.66549 0.89761 0.0
C832 C 0.96434 0.74168 0.94289 0.0
C833 C 0.94378 0.72558 0.95063 0.0
C834 C 0.9177 0.71498 0.92161 0.0
C835 C 0.9038 0.69809 0.90843 0.0
C836 C 0.88843 0.6987 0.8965 0.0
C837 C 0.88709 0.71681 0.89768 0.0
C838 C 0.90158 0.73431 0.9103 0.0
C839 C 0.91682 0.73327 0.9221 0.0
C840 C 0.87332 0.6798 0.88305 0.0
C841 C 0.90074 0.75396 0.91157 0.0
C842 C 0.92203 0.75471 0.76509 0.0
C843 C 0.91032 0.73373 0.76903 0.0
C844 C 0.89209 0.72622 0.77932 0.0
C845 C 0.88588 0.7402 0.78639 0.0
C846 C 0.89736 0.76127 0.78165 0.0
C847 C 0.91517 0.76818 0.77069 0.0
C848 C 0.8798 0.70348 0.78312 0.0
C849 C 0.89114 0.77661 0.78867 0.0
C850 C 0.74749 0.73206 0.7636 0.0
C851 C 0.75662 0.72309 0.74813 0.0
C852 C 0.77826 0.7135 0.76843 0.0
C853 C 0.781 0.69687 0.77237 0.0
C854 C 0.79879 0.69989 0.78269 0.0
C855 C 0.81399 0.7201 0.78978 0.0
C856 C 0.81123 0.73702 0.78612 0.0
C857 C 0.79346 0.73359 0.77533 0.0
C858 C 0.80131 0.68149 0.78606 0.0
C859 C 0.82701 0.75873 0.79375 0.0
C860 C 0.83503 0.70921 0.88908 0.0
C861 C 0.85258 0.71108 0.89853 0.0
C862 C 0.86971 0.71687 0.88685 0.0
C863 C 0.86962 0.72149 0.86522 0.0
C864 C 0.88689 0.72829 0.85328 0.0
C865 C 0.88652 0.73249 0.83189 0.0
C866 C 0.86871 0.72954 0.82148 0.0
C867 C 0.86794 0.73302 0.79953 0.0
C868 C 0.84995 0.72981 0.78973 0.0
C869 C 0.83264 0.72346 0.8013 0.0
C870 C 0.83317 0.72016 0.8233 0.0
C871 C 0.81612 0.71407 0.83549 0.0
C872 C 0.81667 0.71048 0.85703 0.0
C873 C 0.83433 0.71294 0.86724 0.0
C874 C 0.85175 0.71921 0.8553 0.0
C875 C 0.85122 0.72299 0.83335 0.0
C876 C 0.9743 0.78071 0.7711 0.0
C877 C 0.95556 0.7596 0.76539 0.0
O878 O 0.77003 0.68547 0.94345 0.0
O879 O 0.76065 0.70937 0.75827 0.0
O880 O 0.94039 0.76239 0.75671 0.0
O881 O 0.93153 0.71286 0.93352 0.0
H882 H 0.7773 0.7123 0.96201 0.0
H883 H 0.7455 0.67119 0.97001 0.0
H884 H 0.72399 0.69013 0.95332 0.0
H885 H 0.75327 0.69291 0.98456 0.0
H886 H 0.79487 0.72423 0.93176 0.0
H887 H 0.77946 0.66079 0.92459 0.0
H888 H 0.8433 0.74581 0.91126 0.0
H889 H 0.82333 0.75102 0.91712 0.0
H890 H 0.8257 0.74323 0.89037 0.0
H891 H 0.79586 0.64975 0.90068 0.0
H892 H 0.82265 0.66741 0.90462 0.0
H893 H 0.80984 0.66688 0.88011 0.0
H894 H 0.93667 0.7337 0.95845 0.0
H895 H 0.97422 0.75195 0.95654 0.0
H896 H 0.96239 0.75136 0.93118 0.0
H897 H 0.97187 0.73403 0.93505 0.0
H898 H 0.90477 0.68416 0.90793 0.0
H899 H 0.92787 0.74677 0.93163 0.0
H900 H 0.87331 0.68383 0.86619 0.0
H901 H 0.85791 0.67425 0.88869 0.0
H902 H 0.87663 0.66702 0.88361 0.0
H903 H 0.91388 0.76668 0.92094 0.0
H904 H 0.88668 0.75104 0.91915 0.0
H905 H 0.90025 0.75901 0.89525 0.0
H906 H 0.95098 0.75182 0.78078 0.0
H907 H 0.91557 0.72331 0.7642 0.0
H908 H 0.92432 0.78434 0.76733 0.0
H909 H 0.88181 0.70106 0.80014 0.0
H910 H 0.88452 0.69426 0.77315 0.0
H911 H 0.86348 0.69758 0.77963 0.0
H912 H 0.90284 0.79276 0.7858 0.0
H913 H 0.8881 0.7755 0.80593 0.0
H914 H 0.87696 0.77294 0.77971 0.0
H915 H 0.77081 0.73609 0.7424 0.0
H916 H 0.74362 0.7425 0.75522 0.0
H917 H 0.75849 0.74113 0.77703 0.0
H918 H 0.73365 0.71958 0.77038 0.0
H919 H 0.76917 0.68143 0.76707 0.0
H920 H 0.79148 0.74662 0.77266 0.0
H921 H 0.80126 0.67893 0.80338 0.0
H922 H 0.81606 0.68447 0.78031 0.0
H923 H 0.78905 0.66715 0.77768 0.0
H924 H 0.82183 0.76996 0.79138 0.0
H925 H 0.8409 0.76366 0.78487 0.0
H926 H 0.83107 0.75922 0.81096 0.0
H927 H 0.85285 0.70775 0.91519 0.0
H928 H 0.90091 0.73054 0.86038 0.0
H929 H 0.90034 0.73787 0.82359 0.0
H930 H 0.84941 0.7323 0.77285 0.0
H931 H 0.80211 0.71195 0.82851 0.0
H932 H 0.80304 0.70566 0.86556 0.0
H933 H 0.97934 0.79026 0.75696 0.0
H934 H 0.98685 0.77878 0.7775 0.0
H935 H 0.97074 0.78911 0.78355 0.0
C936 C 0.90936 0.61262 0.41833 0.0
C937 C 0.90305 0.62377 0.40259 0.0
C938 C 0.88375 0.63549 0.42384 0.0
C939 C 0.88431 0.65287 0.43337 0.0
C940 C 0.86833 0.65105 0.44524 0.0
C941 C 0.85138 0.63127 0.44765 0.0
C942 C 0.8504 0.61363 0.43757 0.0
C943 C 0.8666 0.61589 0.42574 0.0
C944 C 0.86978 0.67018 0.45573 0.0
C945 C 0.83247 0.59232 0.43983 0.0
C946 C 0.71822 0.6267 0.39139 0.0
C947 C 0.72817 0.61818 0.40507 0.0
C948 C 0.75428 0.62933 0.43366 0.0
C949 C 0.75518 0.61105 0.43275 0.0
C950 C 0.77067 0.60994 0.44388 0.0
C951 C 0.78578 0.62752 0.45594 0.0
C952 C 0.7848 0.64586 0.45712 0.0
C953 C 0.76887 0.6464 0.44618 0.0
C954 C 0.77106 0.59003 0.44245 0.0
C955 C 0.80082 0.66503 0.46951 0.0
C956 C 0.76187 0.61349 0.59283 0.0
C957 C 0.76376 0.59599 0.58925 0.0
C958 C 0.77949 0.59712 0.57733 0.0
C959 C 0.794 0.61631 0.56968 0.0
C960 C 0.79314 0.63431 0.57507 0.0
C961 C 0.77691 0.63257 0.58637 0.0
C962 C 0.78026 0.57772 0.57239 0.0
C963 C 0.80895 0.65527 0.56825 0.0
C964 C 0.94028 0.61851 0.58055 0.0
C965 C 0.92798 0.62894 0.5854 0.0
C966 C 0.89192 0.61581 0.57717 0.0
C967 C 0.87374 0.59777 0.57136 0.0
C968 C 0.85706 0.59855 0.56291 0.0
C969 C 0.85858 0.61794 0.56054 0.0
C970 C 0.87671 0.63629 0.56715 0.0
C971 C 0.89324 0.63506 0.57541 0.0
C972 C 0.83793 0.57867 0.55615 0.0
C973 C 0.87866 0.65719 0.56521 0.0
C974 C 0.83545 0.62887 0.46209 0.0
C975 C 0.81876 0.62941 0.45353 0.0
C976 C 0.80314 0.62698 0.46634 0.0
C977 C 0.80422 0.624 0.48839 0.0
C978 C 0.78864 0.62103 0.5017 0.0
C979 C 0.79012 0.61862 0.52345 0.0
C980 C 0.80728 0.61913 0.53275 0.0
C981 C 0.80928 0.61744 0.55496 0.0
C982 C 0.82622 0.61736 0.56356 0.0
C983 C 0.84138 0.61896 0.55054 0.0
C984 C 0.8399 0.62116 0.52837 0.0
C985 C 0.85503 0.6231 0.51487 0.0
C986 C 0.85359 0.62558 0.49317 0.0
C987 C 0.83691 0.62612 0.48409 0.0
C988 C 0.82131 0.62383 0.49731 0.0
C989 C 0.82283 0.62136 0.51949 0.0
C990 C 0.71616 0.5834 0.58472 0.0
C991 C 0.72721 0.59569 0.6057 0.0
O992 O 0.90021 0.63845 0.41337 0.0
O993 O 0.90769 0.6139 0.58445 0.0
O994 O 0.74576 0.6128 0.60205 0.0
O995 O 0.73994 0.63118 0.42232 0.0
H996 H 0.88882 0.61225 0.39364 0.0
H997 H 0.89725 0.60417 0.42954 0.0
H998 H 0.92333 0.62382 0.42782 0.0
H999 H 0.91211 0.60123 0.40955 0.0
H1000 H 0.89755 0.66792 0.43174 0.0
H1001 H 0.86582 0.60224 0.41843 0.0
H1002 H 0.85614 0.67102 0.45117 0.0
H1003 H 0.8834 0.68455 0.45125 0.0
H1004 H 0.87033 0.66936 0.47335 0.0
H1005 H 0.83359 0.58023 0.43028 0.0
H1006 H 0.81836 0.59199 0.43465 0.0
H1007 H 0.83127 0.58853 0.45687 0.0
H1008 H 0.71809 0.60193 0.40943 0.0
H1009 H 0.70153 0.616 0.39287 0.0
H1010 H 0.73222 0.63054 0.36226 0.0
H1011 H 0.71877 0.6399 0.40111 0.0
H1012 H 0.74389 0.59761 0.42332 0.0
H1013 H 0.76807 0.66042 0.44684 0.0
H1014 H 0.77353 0.58586 0.4586 0.0
H1015 H 0.78381 0.59214 0.43277 0.0
H1016 H 0.75684 0.57701 0.43493 0.0
H1017 H 0.79869 0.67848 0.46755 0.0
H1018 H 0.81602 0.66906 0.46421 0.0
H1019 H 0.80045 0.66206 0.48674 0.0
H1020 H 0.72949 0.58551 0.61649 0.0
H1021 H 0.75282 0.58136 0.5953 0.0
H1022 H 0.7756 0.6461 0.58974 0.0
H1023 H 0.78108 0.57555 0.55492 0.0
H1024 H 0.76691 0.56374 0.57798 0.0
H1025 H 0.79409 0.57921 0.58025 0.0
H1026 H 0.8084 0.66798 0.57724 0.0
H1027 H 0.80636 0.65643 0.551 0.0
H1028 H 0.82431 0.65745 0.57062 0.0
H1029 H 0.93105 0.6401 0.57278 0.0
H1030 H 0.95664 0.63018 0.58055 0.0
H1031 H 0.93548 0.61031 0.56454 0.0
H1032 H 0.93793 0.6071 0.59262 0.0
H1033 H 0.87281 0.583 0.57305 0.0
H1034 H 0.90706 0.64912 0.5805 0.0
H1035 H 0.83411 0.57869 0.53897 0.0
H1036 H 0.82521 0.57746 0.56528 0.0
H1037 H 0.83928 0.56484 0.55877 0.0
H1038 H 0.89331 0.66994 0.57224 0.0
H1039 H 0.86617 0.65764 0.5733 0.0
H1040 H 0.87736 0.65987 0.54811 0.0
H1041 H 0.81786 0.63164 0.43663 0.0
H1042 H 0.77515 0.62064 0.49547 0.0
H1043 H 0.77764 0.61642 0.53289 0.0
H1044 H 0.8276 0.616 0.5806 0.0
H1045 H 0.86824 0.62286 0.52094 0.0
H1046 H 0.86579 0.62713 0.48363 0.0
H1047 H 0.70047 0.57121 0.58775 0.0
H1048 H 0.72373 0.57556 0.57756 0.0
H1049 H 0.71555 0.59374 0.57285 0.0
C1050 C 0.36167 0.25645 0.36403 0.0
C1051 C 0.35619 0.25879 0.38684 0.0
C1052 C 0.37433 0.25623 0.41821 0.0
C1053 C 0.35745 0.24395 0.43007 0.0
C1054 C 0.35881 0.23256 0.44663 0.0
C1055 C 0.37751 0.23388 0.4517 0.0
C1056 C 0.3949 0.24767 0.44105 0.0
C1057 C 0.39307 0.25875 0.42444 0.0
C1058 C 0.34003 0.21826 0.45794 0.0
C1059 C 0.41517 0.24983 0.4464 0.0
C1060 C 0.37084 0.11888 0.38241 0.0
C1061 C 0.36797 0.10812 0.40341 0.0
C1062 C 0.36169 0.12989 0.4289 0.0
C1063 C 0.38164 0.14663 0.43109 0.0
C1064 C 0.38633 0.16442 0.44377 0.0
C1065 C 0.37079 0.16553 0.45429 0.0
C1066 C 0.35074 0.14866 0.45216 0.0
C1067 C 0.34654 0.13101 0.43962 0.0
C1068 C 0.40785 0.18217 0.44573 0.0
C1069 C 0.33369 0.14943 0.4628 0.0
C1070 C 0.37612 0.14162 0.59157 0.0
C1071 C 0.39492 0.15976 0.59055 0.0
C1072 C 0.39667 0.17657 0.57963 0.0
C1073 C 0.3792 0.17527 0.56983 0.0
C1074 C 0.36015 0.15717 0.5714 0.0
C1075 C 0.35897 0.14041 0.58185 0.0
C1076 C 0.41725 0.19549 0.57806 0.0
C1077 C 0.34108 0.15533 0.56167 0.0
C1078 C 0.39679 0.32975 0.59408 0.0
C1079 C 0.38317 0.30716 0.59916 0.0
C1080 C 0.39164 0.28035 0.59042 0.0
C1081 C 0.40835 0.27824 0.58645 0.0
C1082 C 0.40615 0.26068 0.57521 0.0
C1083 C 0.38663 0.24466 0.5681 0.0
C1084 C 0.36954 0.24635 0.5727 0.0
C1085 C 0.37221 0.26419 0.58386 0.0
C1086 C 0.42469 0.25932 0.57073 0.0
C1087 C 0.34849 0.22933 0.56578 0.0
C1088 C 0.37816 0.21852 0.46541 0.0
C1089 C 0.37562 0.20053 0.45506 0.0
C1090 C 0.37517 0.18474 0.46651 0.0
C1091 C 0.37752 0.1869 0.48901 0.0
C1092 C 0.37753 0.17144 0.50098 0.0
C1093 C 0.37903 0.17332 0.52316 0.0
C1094 C 0.38041 0.19065 0.53423 0.0
C1095 C 0.38099 0.19223 0.5568 0.0
C1096 C 0.38287 0.2099 0.5673 0.0
C1097 C 0.38416 0.22616 0.55585 0.0
C1098 C 0.38322 0.22468 0.53325 0.0
C1099 C 0.38423 0.24061 0.52117 0.0
C1100 C 0.38277 0.23875 0.49893 0.0
C1101 C 0.38029 0.22092 0.48795 0.0
C1102 C 0.37978 0.20493 0.49979 0.0
C1103 C 0.3812 0.20679 0.52244 0.0
C1104 C 0.37872 0.104 0.6263 0.0
C1105 C 0.3833 0.12489 0.62027 0.0
O1106 O 0.37309 0.26552 0.40051 0.0
O1107 O 0.39493 0.298 0.60089 0.0
O1108 O 0.37418 0.1247 0.60084 0.0
O1109 O 0.35619 0.11247 0.41654 0.0
H1110 H 0.34392 0.24312 0.39058 0.0
H1111 H 0.36602 0.24441 0.36309 0.0
H1112 H 0.37459 0.27115 0.35907 0.0
H1113 H 0.34849 0.25164 0.35271 0.0
H1114 H 0.34311 0.24285 0.42617 0.0
H1115 H 0.40612 0.26869 0.41556 0.0
H1116 H 0.33615 0.20202 0.45457 0.0
H1117 H 0.32687 0.21976 0.45287 0.0
H1118 H 0.34284 0.22157 0.47546 0.0
H1119 H 0.42767 0.2633 0.43902 0.0
H1120 H 0.41503 0.23563 0.44052 0.0
H1121 H 0.41818 0.2515 0.46398 0.0
H1122 H 0.38295 0.11342 0.41159 0.0
H1123 H 0.37872 0.13588 0.38551 0.0
H1124 H 0.35598 0.11376 0.37407 0.0
H1125 H 0.38015 0.11527 0.37179 0.0
H1126 H 0.39358 0.14607 0.42289 0.0
H1127 H 0.33122 0.11803 0.43782 0.0
H1128 H 0.41263 0.18701 0.46281 0.0
H1129 H 0.40883 0.19559 0.43774 0.0
H1130 H 0.41853 0.17815 0.43838 0.0
H1131 H 0.31877 0.1355 0.45849 0.0
H1132 H 0.33319 0.16332 0.45818 0.0
H1133 H 0.33632 0.15067 0.4804 0.0
H1134 H 0.3995 0.13713 0.62247 0.0
H1135 H 0.40836 0.16058 0.59753 0.0
H1136 H 0.34455 0.12627 0.58264 0.0
H1137 H 0.42026 0.19917 0.56109 0.0
H1138 H 0.42952 0.19347 0.58513 0.0
H1139 H 0.41762 0.20891 0.58653 0.0
H1140 H 0.3273 0.14207 0.56764 0.0
H1141 H 0.34074 0.15303 0.54407 0.0
H1142 H 0.34066 0.16971 0.56519 0.0
H1143 H 0.37174 0.29978 0.58559 0.0
H1144 H 0.38777 0.33748 0.59226 0.0
H1145 H 0.4042 0.3306 0.57887 0.0
H1146 H 0.40871 0.33817 0.60698 0.0
H1147 H 0.42325 0.29065 0.59187 0.0
H1148 H 0.35911 0.26532 0.58763 0.0
H1149 H 0.42538 0.25692 0.55328 0.0
H1150 H 0.42375 0.24582 0.57848 0.0
H1151 H 0.43886 0.27344 0.57666 0.0
H1152 H 0.3367 0.23256 0.57141 0.0
H1153 H 0.3457 0.21449 0.57201 0.0
H1154 H 0.34704 0.22735 0.54808 0.0
H1155 H 0.37355 0.19862 0.43778 0.0
H1156 H 0.37627 0.15767 0.49333 0.0
H1157 H 0.37891 0.16089 0.53151 0.0
H1158 H 0.38334 0.21102 0.58461 0.0
H1159 H 0.38598 0.25462 0.52878 0.0
H1160 H 0.38346 0.25137 0.49041 0.0
H1161 H 0.39376 0.10477 0.62695 0.0
H1162 H 0.37295 0.09367 0.61125 0.0
H1163 H 0.36136 0.09863 0.65314 0.0
C1164 C 0.9251 0.28009 0.37659 0.0
C1165 C 0.90571 0.27126 0.38743 0.0
C1166 C 0.88442 0.24155 0.4083 0.0
C1167 C 0.87136 0.24858 0.41458 0.0
C1168 C 0.85507 0.23668 0.42728 0.0
C1169 C 0.85184 0.21744 0.43382 0.0
C1170 C 0.86502 0.2104 0.42761 0.0
C1171 C 0.88117 0.2226 0.41493 0.0
C1172 C 0.8413 0.24461 0.43374 0.0
C1173 C 0.86201 0.18997 0.43434 0.0
C1174 C 0.72833 0.12339 0.35569 0.0
C1175 C 0.73274 0.11367 0.37464 0.0
C1176 C 0.74729 0.13511 0.40764 0.0
C1177 C 0.76241 0.13039 0.41258 0.0
C1178 C 0.77909 0.14365 0.42628 0.0
C1179 C 0.78071 0.16203 0.43523 0.0
C1180 C 0.76507 0.16639 0.43096 0.0
C1181 C 0.74839 0.15266 0.41744 0.0
C1182 C 0.79525 0.13825 0.43078 0.0
C1183 C 0.76627 0.18583 0.44018 0.0
C1184 C 0.75292 0.14558 0.57274 0.0
C1185 C 0.76533 0.13784 0.56634 0.0
C1186 C 0.78302 0.1502 0.55571 0.0
C1187 C 0.78822 0.17061 0.55131 0.0
C1188 C 0.77621 0.17873 0.55868 0.0
C1189 C 0.75878 0.16612 0.56957 0.0
C1190 C 0.79589 0.14133 0.54874 0.0
C1191 C 0.78148 0.20053 0.55451 0.0
C1192 C 0.92774 0.30349 0.58369 0.0
C1193 C 0.91479 0.28591 0.5981 0.0
C1194 C 0.89393 0.25417 0.57548 0.0
C1195 C 0.89028 0.23423 0.57067 0.0
C1196 C 0.87328 0.21986 0.55794 0.0
C1197 C 0.8596 0.22565 0.5498 0.0
C1198 C 0.8634 0.24594 0.55416 0.0
C1199 C 0.8806 0.26006 0.56677 0.0
C1200 C 0.8698 0.19842 0.55336 0.0
C1201 C 0.84913 0.25265 0.54568 0.0
C1202 C 0.83456 0.20456 0.44701 0.0
C1203 C 0.8162 0.19032 0.43645 0.0
C1204 C 0.79939 0.17725 0.44779 0.0
C1205 C 0.80081 0.17851 0.47037 0.0
C1206 C 0.78423 0.16564 0.48233 0.0
C1207 C 0.78574 0.16721 0.50454 0.0
C1208 C 0.804 0.18147 0.51566 0.0
C1209 C 0.80569 0.18319 0.53824 0.0
C1210 C 0.82404 0.19745 0.54878 0.0
C1211 C 0.84091 0.2103 0.5374 0.0
C1212 C 0.83955 0.20885 0.51481 0.0
C1213 C 0.85622 0.22151 0.50286 0.0
C1214 C 0.85463 0.22017 0.48065 0.0
C1215 C 0.83633 0.20604 0.46955 0.0
C1216 C 0.81936 0.193 0.48127 0.0
C1217 C 0.82099 0.19441 0.50393 0.0
C1218 C 0.70178 0.11283 0.56625 0.0
C1219 C 0.72107 0.11349 0.57443 0.0
O1220 O 0.90027 0.25246 0.39592 0.0
O1221 O 0.91035 0.26707 0.58852 0.0
O1222 O 0.73508 0.1335 0.58171 0.0
O1223 O 0.73156 0.12311 0.39351 0.0
H1224 H 0.89307 0.27117 0.37814 0.0
H1225 H 0.92839 0.26718 0.37378 0.0
H1226 H 0.94445 0.30707 0.39533 0.0
H1227 H 0.92093 0.28033 0.35931 0.0
H1228 H 0.87378 0.2633 0.40964 0.0
H1229 H 0.89136 0.21736 0.41004 0.0
H1230 H 0.82559 0.23352 0.42769 0.0
H1231 H 0.84594 0.25998 0.42753 0.0
H1232 H 0.84123 0.24581 0.45143 0.0
H1233 H 0.87368 0.18677 0.42828 0.0
H1234 H 0.8469 0.17731 0.42832 0.0
H1235 H 0.86246 0.18986 0.45204 0.0
H1236 H 0.74839 0.11676 0.37259 0.0
H1237 H 0.72733 0.11482 0.34047 0.0
H1238 H 0.74077 0.13963 0.35484 0.0
H1239 H 0.71409 0.12361 0.35749 0.0
H1240 H 0.76125 0.11639 0.40575 0.0
H1241 H 0.73646 0.15598 0.41382 0.0
H1242 H 0.79938 0.14029 0.44815 0.0
H1243 H 0.80901 0.14885 0.42244 0.0
H1244 H 0.7904 0.12213 0.42524 0.0
H1245 H 0.75335 0.18747 0.43446 0.0
H1246 H 0.78055 0.19956 0.43585 0.0
H1247 H 0.76642 0.18571 0.45787 0.0
H1248 H 0.72664 0.10847 0.56055 0.0
H1249 H 0.76113 0.12212 0.56956 0.0
H1250 H 0.74921 0.17199 0.57492 0.0
H1251 H 0.79515 0.13963 0.53104 0.0
H1252 H 0.79089 0.12598 0.5552 0.0
H1253 H 0.81193 0.15202 0.55404 0.0
H1254 H 0.77021 0.20429 0.56071 0.0
H1255 H 0.78245 0.20274 0.53708 0.0
H1256 H 0.79652 0.2116 0.5622 0.0
H1257 H 0.90066 0.28625 0.6006 0.0
H1258 H 0.93231 0.31868 0.59188 0.0
H1259 H 0.91898 0.30199 0.56872 0.0
H1260 H 0.94148 0.30311 0.5793 0.0
H1261 H 0.9007 0.22985 0.57722 0.0
H1262 H 0.88341 0.27557 0.5697 0.0
H1263 H 0.8677 0.19467 0.53586 0.0
H1264 H 0.85574 0.18698 0.56071 0.0
H1265 H 0.88252 0.19673 0.55966 0.0
H1266 H 0.85383 0.26876 0.55111 0.0
H1267 H 0.83366 0.24219 0.55094 0.0
H1268 H 0.84841 0.25152 0.52796 0.0
H1269 H 0.81505 0.18923 0.41913 0.0
H1270 H 0.76986 0.1543 0.47463 0.0
H1271 H 0.7724 0.15704 0.51288 0.0
H1272 H 0.82514 0.19877 0.56611 0.0
H1273 H 0.87068 0.23265 0.51055 0.0
H1274 H 0.86794 0.23037 0.47229 0.0
H1275 H 0.69024 0.09686 0.5605 0.0
H1276 H 0.70521 0.12307 0.55271 0.0
H1277 H 0.69546 0.1182 0.57901 0.0
C1278 C 0.03992 0.46043 0.33381 0.0
C1279 C 0.02729 0.45166 0.31283 0.0
C1280 C 0.02871 0.46776 0.27904 0.0
C1281 C 0.00815 0.45506 0.27276 0.0
C1282 C -0.00033 0.45982 0.25534 0.0
C1283 C 0.01205 0.47741 0.24389 0.0
C1284 C 0.03301 0.4893 0.24924 0.0
C1285 C 0.04106 0.48428 0.26678 0.0
C1286 C 0.97734 0.44663 0.24975 0.0
C1287 C 0.04673 0.50795 0.23711 0.0
C1288 C 0.9586 0.55283 0.30738 0.0
C1289 C 0.97596 0.56619 0.29315 0.0
C1290 C 0.9744 0.54841 0.25952 0.0
C1291 C 0.9947 0.55431 0.25728 0.0
C1292 C -3e-05 0.54213 0.24471 0.0
C1293 C 0.98456 0.5232 0.23485 0.0
C1294 C 0.96401 0.51731 0.23696 0.0
C1295 C 0.95925 0.53037 0.2488 0.0
C1296 C 0.02207 0.54931 0.24255 0.0
C1297 C 0.94703 0.49695 0.22741 0.0
C1298 C 0.9622 0.52566 0.0983 0.0
C1299 C 0.98279 0.53406 0.10353 0.0
C1300 C 0.98973 0.52252 0.11416 0.0
C1301 C 0.97564 0.50233 0.11998 0.0
C1302 C 0.95496 0.49343 0.11356 0.0
C1303 C 0.94852 0.50521 0.10254 0.0
C1304 C 0.01197 0.53226 0.12013 0.0
C1305 C 0.93955 0.47192 0.11935 0.0
C1306 C 0.98055 0.36507 0.11416 0.0
C1307 C 0.97972 0.37806 0.0963 0.0
C1308 C 0.99398 0.41407 0.11022 0.0
C1309 C 0.01003 0.43424 0.10871 0.0
C1310 C 0.00972 0.45117 0.11852 0.0
C1311 C 0.99281 0.44779 0.13005 0.0
C1312 C 0.97662 0.42739 0.13195 0.0
C1313 C 0.97752 0.41074 0.12233 0.0
C1314 C 0.02738 0.47266 0.11648 0.0
C1315 C 0.95823 0.42315 0.14399 0.0
C1316 C 0.00278 0.48532 0.22875 0.0
C1317 C 0.99707 0.49891 0.23729 0.0
C1318 C 0.98998 0.50879 0.22421 0.0
C1319 C 0.98845 0.50499 0.20183 0.0
C1320 C 0.98231 0.51537 0.18808 0.0
C1321 C 0.98028 0.51105 0.16614 0.0
C1322 C 0.98447 0.49627 0.15707 0.0
C1323 C 0.98216 0.49156 0.13478 0.0
C1324 C 0.98557 0.47615 0.12642 0.0
C1325 C 0.99168 0.4655 0.13971 0.0
C1326 C 0.99512 0.47078 0.1619 0.0
C1327 C 0.00236 0.46123 0.17559 0.0
C1328 C 0.00515 0.46615 0.19749 0.0
C1329 C 0.00047 0.48052 0.20653 0.0
C1330 C 0.9933 0.49045 0.19301 0.0
C1331 C 0.99105 0.48589 0.17063 0.0
C1332 C 0.93648 0.54693 0.11346 0.0
C1333 C 0.9563 0.55406 0.10236 0.0
O1334 O 0.03721 0.46499 0.29693 0.0
O1335 O 0.99505 0.39846 0.09979 0.0
O1336 O 0.95521 0.53759 0.09045 0.0
O1337 O 0.96909 0.55979 0.27207 0.0
H1338 H 0.01258 0.45078 0.31542 0.0
H1339 H 0.04191 0.47586 0.33806 0.0
H1340 H 0.05509 0.46213 0.33236 0.0
H1341 H 0.0322 0.45011 0.34693 0.0
H1342 H 0.99853 0.44173 0.28162 0.0
H1343 H 0.05696 0.49374 0.2715 0.0
H1344 H 0.96981 0.4556 0.25355 0.0
H1345 H 0.97017 0.43229 0.25865 0.0
H1346 H 0.97473 0.44238 0.23236 0.0
H1347 H 0.06292 0.51435 0.2419 0.0
H1348 H 0.04285 0.52017 0.24006 0.0
H1349 H 0.04448 0.50384 0.21969 0.0
H1350 H 0.98854 0.56343 0.29745 0.0
H1351 H 0.96397 0.55562 0.32444 0.0
H1352 H 0.95269 0.53622 0.30304 0.0
H1353 H 0.94601 0.556 0.30521 0.0
H1354 H 0.00647 0.5684 0.2654 0.0
H1355 H 0.94361 0.52606 0.25059 0.0
H1356 H 0.02494 0.54569 0.22616 0.0
H1357 H 0.02662 0.54119 0.25388 0.0
H1358 H 0.03176 0.56619 0.24632 0.0
H1359 H 0.93224 0.49306 0.23384 0.0
H1360 H 0.95 0.48423 0.23056 0.0
H1361 H 0.94587 0.49777 0.20986 0.0
H1362 H 0.96851 0.55968 0.11521 0.0
H1363 H 0.9933 0.54986 0.09984 0.0
H1364 H 0.93264 0.49891 0.09824 0.0
H1365 H 0.01456 0.53638 0.13754 0.0
H1366 H 0.02123 0.5465 0.11151 0.0
H1367 H 0.0172 0.52116 0.1166 0.0
H1368 H 0.92405 0.46726 0.11321 0.0
H1369 H 0.93956 0.47105 0.13698 0.0
H1370 H 0.94365 0.46068 0.11274 0.0
H1371 H 0.96471 0.37694 0.09618 0.0
H1372 H 0.96865 0.34861 0.11107 0.0
H1373 H 0.97789 0.37061 0.12969 0.0
H1374 H 0.99554 0.36621 0.11545 0.0
H1375 H 0.02279 0.43669 0.09958 0.0
H1376 H 0.96525 0.39525 0.12438 0.0
H1377 H 0.03265 0.48083 0.13248 0.0
H1378 H 0.02253 0.48157 0.1067 0.0
H1379 H 0.04024 0.47253 0.10887 0.0
H1380 H 0.94594 0.40675 0.14181 0.0
H1381 H 0.95232 0.43314 0.13867 0.0
H1382 H 0.96248 0.42683 0.16129 0.0
H1383 H 0.99854 0.50217 0.25445 0.0
H1384 H 0.97892 0.52691 0.19415 0.0
H1385 H 0.97522 0.51936 0.15641 0.0
H1386 H 0.98309 0.47213 0.10939 0.0
H1387 H 0.006 0.44989 0.16949 0.0
H1388 H 0.01074 0.45834 0.20732 0.0
H1389 H 0.92343 0.54027 0.10165 0.0
H1390 H 0.93702 0.56011 0.12271 0.0
H1391 H 0.93413 0.53489 0.12472 0.0
C1392 C 0.42145 0.35505 0.27501 0.0
C1393 C 0.42741 0.37658 0.28435 0.0
C1394 C 0.44227 0.40313 0.25803 0.0
C1395 C 0.43953 0.41796 0.24813 0.0
C1396 C 0.45516 0.43378 0.2374 0.0
C1397 C 0.47386 0.43447 0.23625 0.0
C1398 C 0.47665 0.41927 0.24589 0.0
C1399 C 0.46079 0.4037 0.25667 0.0
C1400 C 0.45169 0.44974 0.22726 0.0
C1401 C 0.49635 0.41945 0.24464 0.0
C1402 C 0.6041 0.58413 0.29518 0.0
C1403 C 0.59068 0.56166 0.28939 0.0
C1404 C 0.56071 0.53946 0.26595 0.0
C1405 C 0.56389 0.52256 0.26464 0.0
C1406 C 0.55106 0.50484 0.25157 0.0
C1407 C 0.53463 0.50389 0.23976 0.0
C1408 C 0.53127 0.52076 0.24126 0.0
C1409 C 0.54442 0.53835 0.25429 0.0
C1410 C 0.55501 0.48708 0.2504 0.0
C1411 C 0.51371 0.52015 0.22916 0.0
C1412 C 0.57591 0.52747 0.10662 0.0
C1413 C 0.57509 0.50853 0.10907 0.0
C1414 C 0.55876 0.49232 0.11868 0.0
C1415 C 0.54256 0.49482 0.12519 0.0
C1416 C 0.54268 0.51334 0.12132 0.0
C1417 C 0.55953 0.52952 0.11235 0.0
C1418 C 0.55899 0.47264 0.12215 0.0
C1419 C 0.52527 0.51625 0.12709 0.0
C1420 C 0.40721 0.3406 0.08991 0.0
C1421 C 0.41611 0.36373 0.08732 0.0
C1422 C 0.45079 0.39074 0.09771 0.0
C1423 C 0.46954 0.39307 0.10349 0.0
C1424 C 0.48419 0.4106 0.11559 0.0
C1425 C 0.48009 0.42642 0.12156 0.0
C1426 C 0.46142 0.42455 0.11498 0.0
C1427 C 0.44691 0.40667 0.10316 0.0
C1428 C 0.50393 0.41208 0.12225 0.0
C1429 C 0.45677 0.44137 0.12061 0.0
C1430 C 0.4904 0.4509 0.22464 0.0
C1431 C 0.50469 0.46881 0.23633 0.0
C1432 C 0.52056 0.48501 0.22637 0.0
C1433 C 0.52236 0.48329 0.2041 0.0
C1434 C 0.53843 0.49901 0.19362 0.0
C1435 C 0.53983 0.49732 0.17165 0.0
C1436 C 0.52501 0.48 0.15924 0.0
C1437 C 0.52592 0.47842 0.13679 0.0
C1438 C 0.51099 0.46094 0.125 0.0
C1439 C 0.49519 0.44472 0.13503 0.0
C1440 C 0.49409 0.44595 0.15746 0.0
C1441 C 0.47858 0.42978 0.1681 0.0
C1442 C 0.47744 0.43127 0.19012 0.0
C1443 C 0.49172 0.44903 0.20234 0.0
C1444 C 0.50769 0.46535 0.19202 0.0
C1445 C 0.50893 0.46377 0.16955 0.0
C1446 C 0.62276 0.54748 0.11482 0.0
C1447 C 0.61072 0.54654 0.0944 0.0
O1448 O 0.42656 0.38845 0.26839 0.0
O1449 O 0.43694 0.37298 0.08683 0.0
O1450 O 0.59218 0.54424 0.0992 0.0
O1451 O 0.57301 0.55708 0.27805 0.0
H1452 H 0.44297 0.38388 0.29181 0.0
H1453 H 0.43214 0.35626 0.26278 0.0
H1454 H 0.40596 0.34728 0.26737 0.0
H1455 H 0.42199 0.34543 0.28778 0.0
H1456 H 0.42511 0.41724 0.2491 0.0
H1457 H 0.46289 0.39191 0.2637 0.0
H1458 H 0.46352 0.46548 0.2333 0.0
H1459 H 0.43662 0.44764 0.23053 0.0
H1460 H 0.45288 0.44876 0.20972 0.0
H1461 H 0.49596 0.40622 0.25248 0.0
H1462 H 0.50877 0.43404 0.25243 0.0
H1463 H 0.49993 0.41894 0.22767 0.0
H1464 H 0.58804 0.55112 0.30257 0.0
H1465 H 0.60471 0.5854 0.31315 0.0
H1466 H 0.59456 0.59154 0.29319 0.0
H1467 H 0.62977 0.5923 0.27768 0.0
H1468 H 0.57631 0.52309 0.27376 0.0
H1469 H 0.54205 0.55141 0.25543 0.0
H1470 H 0.54223 0.47333 0.25706 0.0
H1471 H 0.56919 0.49074 0.25938 0.0
H1472 H 0.55597 0.48293 0.23348 0.0
H1473 H 0.51266 0.53417 0.23277 0.0
H1474 H 0.49935 0.50634 0.23319 0.0
H1475 H 0.51533 0.51883 0.21174 0.0
H1476 H 0.60835 0.53335 0.08359 0.0
H1477 H 0.58726 0.50635 0.10389 0.0
H1478 H 0.56011 0.54405 0.11002 0.0
H1479 H 0.55552 0.46814 0.13887 0.0
H1480 H 0.57377 0.47412 0.11871 0.0
H1481 H 0.54713 0.45999 0.11148 0.0
H1482 H 0.52604 0.52981 0.11961 0.0
H1483 H 0.52557 0.51868 0.14467 0.0
H1484 H 0.51064 0.50226 0.12206 0.0
H1485 H 0.4119 0.36981 0.10152 0.0
H1486 H 0.39051 0.33278 0.09075 0.0
H1487 H 0.4135 0.33816 0.10494 0.0
H1488 H 0.41095 0.33344 0.07632 0.0
H1489 H 0.47247 0.38079 0.09894 0.0
H1490 H 0.43265 0.40525 0.09809 0.0
H1491 H 0.50671 0.41506 0.13982 0.0
H1492 H 0.51649 0.42526 0.11465 0.0
H1493 H 0.5042 0.3978 0.11763 0.0
H1494 H 0.44232 0.43838 0.1128 0.0
H1495 H 0.46916 0.45648 0.11581 0.0
H1496 H 0.45577 0.44258 0.13817 0.0
H1497 H 0.50335 0.47022 0.2534 0.0
H1498 H 0.55013 0.51279 0.2023 0.0
H1499 H 0.5526 0.50988 0.1645 0.0
H1500 H 0.51176 0.45989 0.10779 0.0
H1501 H 0.46711 0.41578 0.15954 0.0
H1502 H 0.46512 0.41836 0.19742 0.0
H1503 H 0.62441 0.55988 0.12634 0.0
H1504 H 0.63804 0.55058 0.11085 0.0
H1505 H 0.6152 0.53268 0.12281 0.0
C1506 C 0.44725 0.99243 0.32054 0.0
C1507 C 0.43592 0.99812 0.30425 0.0
C1508 C 0.44842 0.9937 0.27009 0.0
C1509 C 0.46164 0.01449 0.26601 0.0
C1510 C 0.47632 0.01983 0.2508 0.0
C1511 C 0.47781 0.00409 0.23944 0.0
C1512 C 0.46437 0.98313 0.24331 0.0
C1513 C 0.44965 0.97822 0.25842 0.0
C1514 C 0.49013 0.04231 0.24668 0.0
C1515 C 0.46555 0.96597 0.23145 0.0
C1516 C 0.64125 0.05316 0.23839 0.0
C1517 C 0.61936 0.03804 0.24335 0.0
C1518 C 0.58914 0.04119 0.23835 0.0
C1519 C 0.5752 0.02003 0.23421 0.0
C1520 C 0.55518 0.01326 0.22722 0.0
C1521 C 0.54894 0.02789 0.22462 0.0
C1522 C 0.56271 0.04908 0.22964 0.0
C1523 C 0.58264 0.05543 0.23643 0.0
C1524 C 0.54076 0.99052 0.22226 0.0
C1525 C 0.55646 0.06507 0.22747 0.0
C1526 C 0.56262 0.05017 0.08952 0.0
C1527 C 0.5516 0.02887 0.09176 0.0
C1528 C 0.53397 0.02003 0.10327 0.0
C1529 C 0.52751 0.03294 0.11283 0.0
C1530 C 0.53811 0.05438 0.10956 0.0
C1531 C 0.55554 0.06274 0.09778 0.0
C1532 C 0.52287 0.9971 0.1062 0.0
C1533 C 0.53159 0.06859 0.11936 0.0
C1534 C 0.36865 0.99572 0.12603 0.0
C1535 C 0.38796 0.00534 0.11357 0.0
C1536 C 0.41577 0.99795 0.11697 0.0
C1537 C 0.4201 0.98219 0.1198 0.0
C1538 C 0.4399 0.98663 0.12462 0.0
C1539 C 0.4557 0.00747 0.12716 0.0
C1540 C 0.45162 0.0235 0.12325 0.0
C1541 C 0.43176 0.01856 0.11781 0.0
C1542 C 0.44378 0.96905 0.12765 0.0
C1543 C 0.46814 0.0459 0.12518 0.0
C1544 C 0.49323 0.0096 0.22325 0.0
C1545 C 0.5128 0.015 0.23025 0.0
C1546 C 0.52824 0.02119 0.21596 0.0
C1547 C 0.52405 0.02174 0.19398 0.0
C1548 C 0.53924 0.02791 0.17919 0.0
C1549 C 0.5351 0.02886 0.15769 0.0
C1550 C 0.51554 0.02345 0.15007 0.0
C1551 C 0.51125 0.02461 0.12826 0.0
C1552 C 0.49161 0.01892 0.12116 0.0
C1553 C 0.4761 0.01254 0.13544 0.0
C1554 C 0.48023 0.01176 0.15741 0.0
C1555 C 0.4652 0.00617 0.17236 0.0
C1556 C 0.46938 0.00537 0.19388 0.0
C1557 C 0.48879 0.01024 0.20137 0.0
C1558 C 0.50425 0.01622 0.18667 0.0
C1559 C 0.49997 0.01701 0.16467 0.0
C1560 C 0.60857 0.09019 0.09674 0.0
C1561 C 0.59864 0.06668 0.09325 0.0
O1562 O 0.434 0.98795 0.28468 0.0
O1563 O 0.39605 0.99249 0.1137 0.0
O1564 O 0.58087 0.05877 0.08081 0.0
O1565 O 0.60889 0.04861 0.24417 0.0
H1566 H 0.44459 0.01511 0.30297 0.0
H1567 H 0.46268 0.99745 0.31527 0.0
H1568 H 0.43919 0.97545 0.32221 0.0
H1569 H 0.44866 0.00028 0.33637 0.0
H1570 H 0.46032 0.02664 0.27418 0.0
H1571 H 0.43922 0.96222 0.26148 0.0
H1572 H 0.506 0.04677 0.25092 0.0
H1573 H 0.48638 0.05266 0.25605 0.0
H1574 H 0.48916 0.04477 0.22944 0.0
H1575 H 0.45478 0.95054 0.23719 0.0
H1576 H 0.48111 0.96857 0.23331 0.0
H1577 H 0.46218 0.96602 0.21415 0.0
H1578 H 0.61306 0.02601 0.22997 0.0
H1579 H 0.64999 0.04506 0.23735 0.0
H1580 H 0.64856 0.06592 0.25094 0.0
H1581 H 0.64169 0.05993 0.22281 0.0
H1582 H 0.57982 0.00874 0.23634 0.0
H1583 H 0.59341 0.07168 0.23995 0.0
H1584 H 0.53503 0.98793 0.20534 0.0
H1585 H 0.52754 0.98509 0.23238 0.0
H1586 H 0.54794 0.98107 0.22499 0.0
H1587 H 0.56857 0.08074 0.23335 0.0
H1588 H 0.54275 0.06073 0.23651 0.0
H1589 H 0.55258 0.06563 0.21043 0.0
H1590 H 0.59538 0.06034 0.10944 0.0
H1591 H 0.55729 0.01935 0.08521 0.0
H1592 H 0.56409 0.07919 0.09564 0.0
H1593 H 0.52514 0.99432 0.12304 0.0
H1594 H 0.52825 0.98888 0.09563 0.0
H1595 H 0.50639 0.99046 0.1029 0.0
H1596 H 0.54137 0.08487 0.11513 0.0
H1597 H 0.53198 0.06801 0.13702 0.0
H1598 H 0.51579 0.06334 0.11388 0.0
H1599 H 0.39815 0.02039 0.12233 0.0
H1600 H 0.36117 0.00508 0.12495 0.0
H1601 H 0.37251 0.99533 0.14313 0.0
H1602 H 0.35787 0.97962 0.11998 0.0
H1603 H 0.40779 0.9663 0.11862 0.0
H1604 H 0.42899 0.03097 0.1145 0.0
H1605 H 0.44613 0.96785 0.14494 0.0
H1606 H 0.45767 0.97194 0.11971 0.0
H1607 H 0.43091 0.95404 0.12121 0.0
H1608 H 0.46212 0.05657 0.1242 0.0
H1609 H 0.47857 0.04898 0.11207 0.0
H1610 H 0.47706 0.04939 0.14054 0.0
H1611 H 0.51615 0.01474 0.24711 0.0
H1612 H 0.55456 0.03219 0.18406 0.0
H1613 H 0.54748 0.0339 0.14714 0.0
H1614 H 0.48846 0.01986 0.10442 0.0
H1615 H 0.45 0.00239 0.16763 0.0
H1616 H 0.45718 0.00094 0.20459 0.0
H1617 H 0.60975 0.09757 0.0814 0.0
H1618 H 0.62389 0.09682 0.10458 0.0
H1619 H 0.59943 0.09401 0.10736 0.0
C1620 C 0.54568 0.94265 0.70067 0.0
C1621 C 0.55444 0.96285 0.7143 0.0
C1622 C 0.54846 0.96671 0.75137 0.0
C1623 C 0.55453 0.98774 0.75288 0.0
C1624 C 0.54698 0.99552 0.76851 0.0
C1625 C 0.53266 0.98181 0.78248 0.0
C1626 C 0.52678 0.96058 0.7811 0.0
C1627 C 0.53526 0.95347 0.7659 0.0
C1628 C 0.55399 0.01827 0.76976 0.0
C1629 C 0.51099 0.94517 0.79504 0.0
C1630 C 0.41061 0.0027 0.73112 0.0
C1631 C 0.42088 0.99428 0.74432 0.0
C1632 C 0.4516 0.00604 0.76689 0.0
C1633 C 0.44678 0.98624 0.77288 0.0
C1634 C 0.46089 0.98329 0.78456 0.0
C1635 C 0.48016 0.00046 0.79046 0.0
C1636 C 0.48484 0.02047 0.78501 0.0
C1637 C 0.47043 0.02299 0.77335 0.0
C1638 C 0.45535 0.96177 0.79033 0.0
C1639 C 0.50521 0.03911 0.79114 0.0
C1640 C 0.45262 0.99027 0.92365 0.0
C1641 C 0.45191 0.9721 0.91595 0.0
C1642 C 0.46847 0.97288 0.90619 0.0
C1643 C 0.48627 0.99219 0.90445 0.0
C1644 C 0.48761 0.01033 0.91363 0.0
C1645 C 0.47071 0.00912 0.92315 0.0
C1646 C 0.46667 0.95312 0.89703 0.0
C1647 C 0.50652 0.03108 0.91239 0.0
C1648 C 0.61296 0.96129 0.91719 0.0
C1649 C 0.60488 0.97528 0.92453 0.0
C1650 C 0.57151 0.97051 0.91477 0.0
C1651 C 0.55219 0.95547 0.90703 0.0
C1652 C 0.53872 0.96091 0.89805 0.0
C1653 C 0.54468 0.98203 0.89712 0.0
C1654 C 0.56402 0.99739 0.90555 0.0
C1655 C 0.57726 0.99148 0.91437 0.0
C1656 C 0.51819 0.94408 0.88938 0.0
C1657 C 0.57071 0.02001 0.90501 0.0
C1658 C 0.52254 0.9892 0.79724 0.0
C1659 C 0.50787 0.99295 0.78837 0.0
C1660 C 0.49579 0.99733 0.80126 0.0
C1661 C 0.49804 0.99756 0.82371 0.0
C1662 C 0.48535 0.00068 0.83714 0.0
C1663 C 0.48689 0.99962 0.85914 0.0
C1664 C 0.50143 0.99578 0.86859 0.0
C1665 C 0.50232 0.99347 0.8908 0.0
C1666 C 0.51703 0.98981 0.89974 0.0
C1667 C 0.53075 0.98793 0.88694 0.0
C1668 C 0.52983 0.98978 0.86462 0.0
C1669 C 0.54304 0.98747 0.85119 0.0
C1670 C 0.54104 0.98781 0.82913 0.0
C1671 C 0.52577 0.99049 0.81966 0.0
C1672 C 0.5131 0.99412 0.83293 0.0
C1673 C 0.51499 0.99354 0.85543 0.0
C1674 C 0.40949 0.97219 0.90376 0.0
C1675 C 0.41612 0.97485 0.92755 0.0
O1676 O 0.55462 0.95869 0.7356 0.0
O1677 O 0.58396 0.96407 0.92259 0.0
O1678 O 0.43615 0.99039 0.93098 0.0
O1679 O 0.43869 0.00941 0.75477 0.0
H1680 H 0.5442 0.96913 0.71136 0.0
H1681 H 0.53001 0.93182 0.70518 0.0
H1682 H 0.55489 0.93519 0.7031 0.0
H1683 H 0.54522 0.94558 0.68348 0.0
H1684 H 0.5651 0.99803 0.74179 0.0
H1685 H 0.53079 0.93727 0.76455 0.0
H1686 H 0.5419 0.02062 0.76281 0.0
H1687 H 0.56784 0.02733 0.76083 0.0
H1688 H 0.55705 0.0244 0.78665 0.0
H1689 H 0.50526 0.92898 0.789 0.0
H1690 H 0.49799 0.94773 0.79605 0.0
H1691 H 0.51767 0.94706 0.81143 0.0
H1692 H 0.4224 0.98176 0.73605 0.0
H1693 H 0.41107 0.99753 0.71418 0.0
H1694 H 0.42207 0.01943 0.72905 0.0
H1695 H 0.38351 0.99336 0.74618 0.0
H1696 H 0.4321 0.97302 0.76838 0.0
H1697 H 0.47397 0.03822 0.76884 0.0
H1698 H 0.45746 0.96144 0.80785 0.0
H1699 H 0.46553 0.95731 0.78257 0.0
H1700 H 0.43947 0.95013 0.78531 0.0
H1701 H 0.50629 0.05372 0.78632 0.0
H1702 H 0.5172 0.0374 0.78344 0.0
H1703 H 0.50819 0.04016 0.80868 0.0
H1704 H 0.41426 0.96008 0.933 0.0
H1705 H 0.43829 0.95728 0.91688 0.0
H1706 H 0.47127 0.02303 0.92947 0.0
H1707 H 0.46908 0.95417 0.87964 0.0
H1708 H 0.45169 0.93937 0.89949 0.0
H1709 H 0.47853 0.95086 0.9047 0.0
H1710 H 0.50598 0.04335 0.92226 0.0
H1711 H 0.50846 0.0355 0.89554 0.0
H1712 H 0.51994 0.03017 0.91774 0.0
H1713 H 0.61095 0.98835 0.91373 0.0
H1714 H 0.62975 0.96995 0.91821 0.0
H1715 H 0.60781 0.95567 0.90032 0.0
H1716 H 0.60739 0.94771 0.9272 0.0
H1717 H 0.54782 0.93934 0.90769 0.0
H1718 H 0.59195 0.00325 0.92102 0.0
H1719 H 0.51615 0.9461 0.87223 0.0
H1720 H 0.50629 0.94518 0.89798 0.0
H1721 H 0.51598 0.9284 0.89107 0.0
H1722 H 0.58617 0.0301 0.91233 0.0
H1723 H 0.56002 0.02316 0.91365 0.0
H1724 H 0.57042 0.0241 0.88822 0.0
H1725 H 0.50539 0.99182 0.77115 0.0
H1726 H 0.47378 0.00352 0.83075 0.0
H1727 H 0.47639 0.00171 0.8686 0.0
H1728 H 0.51728 0.98758 0.91671 0.0
H1729 H 0.55485 0.985 0.85757 0.0
H1730 H 0.55143 0.98566 0.81952 0.0
H1731 H 0.3932 0.9604 0.90131 0.0
H1732 H 0.41806 0.9669 0.89404 0.0
H1733 H 0.41204 0.98704 0.89778 0.0
C1734 C 0.01695 0.58657 0.69149 0.0
C1735 C 0.00814 0.58721 0.71292 0.0
C1736 C 0.01781 0.57884 0.74692 0.0
C1737 C 0.99851 0.56865 0.75521 0.0
C1738 C 0.99425 0.55512 0.77172 0.0
C1739 C 0.00966 0.55192 0.78017 0.0
C1740 C 0.02952 0.56353 0.77309 0.0
C1741 C 0.03336 0.577 0.75662 0.0
C1742 C 0.97306 0.5434 0.77936 0.0
C1743 C 0.04638 0.56072 0.78197 0.0
C1744 C 0.96567 0.42727 0.69374 0.0
C1745 C 0.97652 0.42941 0.71528 0.0
C1746 C 0.97278 0.44613 0.74795 0.0
C1747 C 0.99324 0.45715 0.75505 0.0
C1748 C 0.00017 0.47326 0.77088 0.0
C1749 C 0.9863 0.47811 0.78003 0.0
C1750 C 0.96549 0.46596 0.77408 0.0
C1751 C 0.95901 0.45008 0.75813 0.0
C1752 C 0.02242 0.48571 0.77717 0.0
C1753 C 0.95023 0.47046 0.78378 0.0
C1754 C 0.01377 0.45629 0.91122 0.0
C1755 C 0.03064 0.47296 0.90264 0.0
C1756 C 0.02926 0.48918 0.89398 0.0
C1757 C 0.01073 0.48898 0.8941 0.0
C1758 C 0.99398 0.47279 0.90361 0.0
C1759 C 0.99574 0.45662 0.91204 0.0
C1760 C 0.04749 0.50626 0.88405 0.0
C1761 C 0.97409 0.47225 0.90416 0.0
C1762 C 0.04645 0.65061 0.91829 0.0
C1763 C 0.03148 0.62928 0.92589 0.0
C1764 C 0.03412 0.59857 0.91731 0.0
C1765 C 0.0484 0.59316 0.91172 0.0
C1766 C 0.04257 0.57412 0.90101 0.0
C1767 C 0.02183 0.55996 0.89618 0.0
C1768 C 0.00719 0.56493 0.90272 0.0
C1769 C 0.01348 0.5842 0.91326 0.0
C1770 C 0.05861 0.56926 0.8946 0.0
C1771 C 0.98493 0.54998 0.89829 0.0
C1772 C 0.00435 0.53406 0.79339 0.0
C1773 C 0.99772 0.51507 0.78245 0.0
C1774 C 0.99376 0.49759 0.79323 0.0
C1775 C 0.99685 0.49905 0.81566 0.0
C1776 C 0.99399 0.48203 0.82694 0.0
C1777 C 0.99783 0.4839 0.84894 0.0
C1778 C 0.00411 0.50272 0.86056 0.0
C1779 C 0.00873 0.50497 0.88281 0.0
C1780 C 0.01392 0.52355 0.89405 0.0
C1781 C 0.01553 0.54039 0.88348 0.0
C1782 C 0.01224 0.53883 0.86101 0.0
C1783 C 0.01511 0.55588 0.84963 0.0
C1784 C 0.01253 0.55438 0.82746 0.0
C1785 C 0.00666 0.5357 0.81589 0.0
C1786 C 0.00315 0.51817 0.82705 0.0
C1787 C 0.00631 0.51985 0.84959 0.0
C1788 C 0.0301 0.42847 0.89284 0.0
C1789 C 0.02943 0.43496 0.91617 0.0
O1790 O 0.0219 0.59005 0.72931 0.0
O1791 O 0.04089 0.61764 0.92674 0.0
O1792 O 0.01411 0.43951 0.91838 0.0
O1793 O 0.96563 0.43179 0.73132 0.0
H1794 H 0.99405 0.57194 0.71352 0.0
H1795 H 0.01926 0.5731 0.69038 0.0
H1796 H 0.03176 0.60078 0.68977 0.0
H1797 H 0.00638 0.5849 0.67809 0.0
H1798 H 0.98661 0.57083 0.74853 0.0
H1799 H 0.04831 0.58532 0.75043 0.0
H1800 H 0.96581 0.527 0.77338 0.0
H1801 H 0.96363 0.54982 0.77363 0.0
H1802 H 0.9734 0.54372 0.79707 0.0
H1803 H 0.06126 0.57195 0.77588 0.0
H1804 H 0.04313 0.54484 0.77755 0.0
H1805 H 0.04735 0.56252 0.79967 0.0
H1806 H 0.99179 0.44334 0.71476 0.0
H1807 H 0.97412 0.42546 0.68053 0.0
H1808 H 0.96471 0.44135 0.69137 0.0
H1809 H 0.9501 0.41368 0.69305 0.0
H1810 H 0.00391 0.4535 0.74813 0.0
H1811 H 0.94319 0.44117 0.75289 0.0
H1812 H 0.02473 0.48656 0.7948 0.0
H1813 H 0.02866 0.50175 0.77211 0.0
H1814 H 0.03105 0.47906 0.76981 0.0
H1815 H 0.93445 0.45818 0.77934 0.0
H1816 H 0.95253 0.48535 0.77822 0.0
H1817 H 0.95243 0.47207 0.80146 0.0
H1818 H 0.0442 0.44883 0.9212 0.0
H1819 H 0.04488 0.47334 0.90221 0.0
H1820 H 0.98284 0.44386 0.91886 0.0
H1821 H 0.04415 0.50613 0.8667 0.0
H1822 H 0.06108 0.50472 0.88612 0.0
H1823 H 0.05099 0.52147 0.89128 0.0
H1824 H 0.96283 0.45923 0.91318 0.0
H1825 H 0.96786 0.4707 0.8876 0.0
H1826 H 0.97645 0.48699 0.9116 0.0
H1827 H 0.01848 0.62224 0.91393 0.0
H1828 H 0.03926 0.66024 0.91726 0.0
H1829 H 0.05132 0.64897 0.90217 0.0
H1830 H 0.06004 0.65861 0.92939 0.0
H1831 H 0.06426 0.6042 0.9153 0.0
H1832 H 0.00225 0.58788 0.9184 0.0
H1833 H 0.05661 0.56458 0.87733 0.0
H1834 H 0.05704 0.5561 0.90359 0.0
H1835 H 0.07412 0.58261 0.89791 0.0
H1836 H 0.97539 0.55539 0.90592 0.0
H1837 H 0.98086 0.53463 0.90417 0.0
H1838 H 0.98143 0.54791 0.8808 0.0
H1839 H 0.99577 0.51391 0.76516 0.0
H1840 H 0.98914 0.46719 0.81879 0.0
H1841 H 0.99572 0.47037 0.85675 0.0
H1842 H 0.01742 0.52514 0.91112 0.0
H1843 H 0.01967 0.57067 0.8577 0.0
H1844 H 0.01515 0.56802 0.81947 0.0
H1845 H 0.01525 0.41513 0.88709 0.0
H1846 H 0.04188 0.42409 0.89133 0.0
H1847 H 0.03385 0.44132 0.88226 0.0
C1848 C 0.5779 0.60794 0.71734 0.0
C1849 C 0.56194 0.60145 0.73301 0.0
C1850 C 0.54801 0.57794 0.76182 0.0
C1851 C 0.53403 0.58398 0.76738 0.0
C1852 C 0.51909 0.57285 0.78175 0.0
C1853 C 0.51817 0.5554 0.79074 0.0
C1854 C 0.53264 0.54972 0.78576 0.0
C1855 C 0.54748 0.56119 0.77141 0.0
C1856 C 0.504 0.57943 0.78698 0.0
C1857 C 0.53207 0.53122 0.79516 0.0
C1858 C 0.40777 0.45905 0.70921 0.0
C1859 C 0.40908 0.44859 0.72924 0.0
C1860 C 0.41831 0.46932 0.7627 0.0
C1861 C 0.43266 0.46491 0.77136 0.0
C1862 C 0.44783 0.47883 0.78624 0.0
C1863 C 0.44858 0.4975 0.79259 0.0
C1864 C 0.43335 0.50134 0.78488 0.0
C1865 C 0.41821 0.487 0.7702 0.0
C1866 C 0.46353 0.474 0.79452 0.0
C1867 C 0.43363 0.52102 0.79138 0.0
C1868 C 0.41437 0.49114 0.92575 0.0
C1869 C 0.42664 0.48274 0.92127 0.0
C1870 C 0.4455 0.49475 0.91255 0.0
C1871 C 0.45183 0.51536 0.90771 0.0
C1872 C 0.43993 0.52416 0.91339 0.0
C1873 C 0.42142 0.51195 0.92271 0.0
C1874 C 0.45822 0.48515 0.90766 0.0
C1875 C 0.44634 0.54619 0.90885 0.0
C1876 C 0.58884 0.65121 0.93527 0.0
C1877 C 0.57986 0.63378 0.95082 0.0
C1878 C 0.5585 0.60118 0.92951 0.0
C1879 C 0.55619 0.5819 0.92391 0.0
C1880 C 0.53876 0.5665 0.91253 0.0
C1881 C 0.5234 0.57068 0.90625 0.0
C1882 C 0.52572 0.59025 0.91157 0.0
C1883 C 0.54319 0.60527 0.92325 0.0
C1884 C 0.53676 0.54578 0.90718 0.0
C1885 C 0.50977 0.59532 0.90484 0.0
C1886 C 0.50122 0.54231 0.80416 0.0
C1887 C 0.48351 0.52661 0.79377 0.0
C1888 C 0.46657 0.51394 0.8051 0.0
C1889 C 0.46719 0.51707 0.82752 0.0
C1890 C 0.45031 0.50495 0.8394 0.0
C1891 C 0.45103 0.50836 0.86142 0.0
C1892 C 0.46886 0.52366 0.87251 0.0
C1893 C 0.46982 0.52708 0.89495 0.0
C1894 C 0.4878 0.5423 0.90544 0.0
C1895 C 0.50491 0.55459 0.89408 0.0
C1896 C 0.50415 0.55164 0.87161 0.0
C1897 C 0.52092 0.56403 0.85962 0.0
C1898 C 0.52001 0.56104 0.83752 0.0
C1899 C 0.50232 0.54549 0.82658 0.0
C1900 C 0.48521 0.53283 0.83831 0.0
C1901 C 0.4861 0.536 0.86084 0.0
C1902 C 0.3625 0.46156 0.91493 0.0
C1903 C 0.38129 0.4606 0.92173 0.0
O1904 O 0.56194 0.58762 0.74706 0.0
O1905 O 0.57576 0.61527 0.94069 0.0
O1906 O 0.39531 0.47922 0.9321 0.0
O1907 O 0.40467 0.45703 0.74686 0.0
H1908 H 0.5466 0.59663 0.72594 0.0
H1909 H 0.5695 0.6018 0.70137 0.0
H1910 H 0.58341 0.59657 0.71768 0.0
H1911 H 0.59684 0.6396 0.7251 0.0
H1912 H 0.53458 0.59724 0.76044 0.0
H1913 H 0.55845 0.55679 0.76717 0.0
H1914 H 0.48864 0.56714 0.78115 0.0
H1915 H 0.50746 0.59405 0.77964 0.0
H1916 H 0.50375 0.58153 0.80455 0.0
H1917 H 0.54485 0.52927 0.79027 0.0
H1918 H 0.51767 0.51703 0.78997 0.0
H1919 H 0.53256 0.53282 0.81286 0.0
H1920 H 0.42495 0.45189 0.73051 0.0
H1921 H 0.40998 0.45161 0.69473 0.0
H1922 H 0.41981 0.47559 0.71039 0.0
H1923 H 0.39298 0.45832 0.70746 0.0
H1924 H 0.4322 0.45074 0.76626 0.0
H1925 H 0.4068 0.49004 0.7637 0.0
H1926 H 0.46573 0.47678 0.81214 0.0
H1927 H 0.4782 0.48442 0.78754 0.0
H1928 H 0.45934 0.45777 0.79037 0.0
H1929 H 0.42048 0.52151 0.78426 0.0
H1930 H 0.44773 0.53451 0.7863 0.0
H1931 H 0.43356 0.52258 0.80903 0.0
H1932 H 0.38734 0.45795 0.90671 0.0
H1933 H 0.42126 0.46669 0.92423 0.0
H1934 H 0.41187 0.51828 0.92657 0.0
H1935 H 0.45717 0.48151 0.89022 0.0
H1936 H 0.45313 0.47063 0.91599 0.0
H1937 H 0.47435 0.49611 0.91239 0.0
H1938 H 0.43466 0.55019 0.91282 0.0
H1939 H 0.44959 0.54881 0.89173 0.0
H1940 H 0.46045 0.55681 0.91842 0.0
H1941 H 0.56571 0.63244 0.9567 0.0
H1942 H 0.59269 0.66614 0.94361 0.0
H1943 H 0.57778 0.64809 0.92189 0.0
H1944 H 0.60267 0.65264 0.92843 0.0
H1945 H 0.56809 0.57888 0.9287 0.0
H1946 H 0.54476 0.62016 0.92719 0.0
H1947 H 0.53613 0.54318 0.88959 0.0
H1948 H 0.52243 0.53328 0.91312 0.0
H1949 H 0.54955 0.5446 0.9142 0.0
H1950 H 0.5145 0.61174 0.90878 0.0
H1951 H 0.49567 0.58536 0.913 0.0
H1952 H 0.50624 0.59205 0.88738 0.0
H1953 H 0.48288 0.52426 0.77653 0.0
H1954 H 0.43628 0.49282 0.83175 0.0
H1955 H 0.43742 0.49873 0.86963 0.0
H1956 H 0.48842 0.54477 0.92265 0.0
H1957 H 0.53495 0.57623 0.86719 0.0
H1958 H 0.53337 0.57104 0.82911 0.0
H1959 H 0.35584 0.46489 0.92895 0.0
H1960 H 0.35098 0.44667 0.90674 0.0
H1961 H 0.36665 0.47401 0.90365 0.0
C1962 C 0.65032 0.7227 0.63191 0.0
C1963 C 0.64214 0.73665 0.62815 0.0
C1964 C 0.65146 0.7668 0.60708 0.0
C1965 C 0.63158 0.76262 0.60323 0.0
C1966 C 0.62738 0.77404 0.5889 0.0
C1967 C 0.64344 0.79035 0.57871 0.0
C1968 C 0.66357 0.79524 0.58334 0.0
C1969 C 0.66727 0.78323 0.59734 0.0
C1970 C 0.60575 0.76855 0.58453 0.0
C1971 C 0.68113 0.81307 0.57343 0.0
C1972 C 0.59639 0.88095 0.63802 0.0
C1973 C 0.61587 0.88808 0.62614 0.0
C1974 C 0.6157 0.87003 0.59318 0.0
C1975 C 0.63585 0.8748 0.59299 0.0
C1976 C 0.64118 0.86231 0.58098 0.0
C1977 C 0.6259 0.8443 0.56953 0.0
C1978 C 0.60551 0.8395 0.56978 0.0
C1979 C 0.60081 0.85285 0.58112 0.0
C1980 C 0.66311 0.86822 0.58084 0.0
C1981 C 0.58854 0.82002 0.55869 0.0
C1982 C 0.61276 0.85261 0.42958 0.0
C1983 C 0.63275 0.86038 0.43713 0.0
C1984 C 0.63805 0.84829 0.44921 0.0
C1985 C 0.62289 0.82821 0.45417 0.0
C1986 C 0.60282 0.82009 0.44583 0.0
C1987 C 0.59806 0.83237 0.43335 0.0
C1988 C 0.65972 0.85719 0.4572 0.0
C1989 C 0.58629 0.79873 0.45069 0.0
C1990 C 0.62608 0.69053 0.4424 0.0
C1991 C 0.63009 0.70592 0.42514 0.0
C1992 C 0.6417 0.74015 0.44298 0.0
C1993 C 0.65824 0.76017 0.4462 0.0
C1994 C 0.65632 0.77601 0.45638 0.0
C1995 C 0.63731 0.77167 0.46352 0.0
C1996 C 0.62053 0.75139 0.46063 0.0
C1997 C 0.62291 0.73579 0.45055 0.0
C1998 C 0.67457 0.79741 0.45945 0.0
C1999 C 0.60005 0.74621 0.46816 0.0
C2000 C 0.63918 0.80256 0.56356 0.0
C2001 C 0.63541 0.81763 0.57209 0.0
C2002 C 0.63098 0.82959 0.55894 0.0
C2003 C 0.63061 0.82671 0.53649 0.0
C2004 C 0.62678 0.83884 0.52273 0.0
C2005 C 0.62571 0.83537 0.50068 0.0
C2006 C 0.62885 0.81989 0.4915 0.0
C2007 C 0.62772 0.81619 0.46909 0.0
C2008 C 0.63077 0.80058 0.46054 0.0
C2009 C 0.63488 0.7884 0.47377 0.0
C2010 C 0.63619 0.79195 0.49621 0.0
C2011 C 0.64037 0.78004 0.50999 0.0
C2012 C 0.64134 0.78346 0.53204 0.0
C2013 C 0.63831 0.79901 0.54117 0.0
C2014 C 0.63409 0.8112 0.52759 0.0
C2015 C 0.63312 0.80773 0.50508 0.0
C2016 C 0.58777 0.87662 0.43742 0.0
C2017 C 0.60845 0.88217 0.42925 0.0
O2018 O 0.65594 0.75506 0.61957 0.0
O2019 O 0.64465 0.72569 0.43264 0.0
O2020 O 0.60731 0.86479 0.41937 0.0
O2021 O 0.61026 0.88184 0.60479 0.0
H2022 H 0.63414 0.73895 0.6416 0.0
H2023 H 0.66726 0.73241 0.63131 0.0
H2024 H 0.63263 0.69698 0.61068 0.0
H2025 H 0.65055 0.72153 0.64975 0.0
H2026 H 0.61924 0.75035 0.61118 0.0
H2027 H 0.68257 0.78648 0.6006 0.0
H2028 H 0.60366 0.78126 0.591 0.0
H2029 H 0.59485 0.75406 0.59191 0.0
H2030 H 0.60215 0.76673 0.56705 0.0
H2031 H 0.69592 0.81618 0.5804 0.0
H2032 H 0.68014 0.82727 0.57563 0.0
H2033 H 0.68053 0.80958 0.556 0.0
H2034 H 0.6237 0.88035 0.63306 0.0
H2035 H 0.59937 0.88249 0.65557 0.0
H2036 H 0.58559 0.86436 0.63374 0.0
H2037 H 0.58913 0.88999 0.63356 0.0
H2038 H 0.64739 0.88837 0.60212 0.0
H2039 H 0.58531 0.84944 0.58136 0.0
H2040 H 0.66718 0.86605 0.56448 0.0
H2041 H 0.6657 0.85809 0.59134 0.0
H2042 H 0.67334 0.88451 0.58674 0.0
H2043 H 0.57351 0.81663 0.56395 0.0
H2044 H 0.59038 0.80656 0.56176 0.0
H2045 H 0.58878 0.82178 0.54121 0.0
H2046 H 0.61928 0.88769 0.44344 0.0
H2047 H 0.64408 0.876 0.43378 0.0
H2048 H 0.58269 0.82656 0.42727 0.0
H2049 H 0.66099 0.86068 0.47469 0.0
H2050 H 0.67009 0.87164 0.44943 0.0
H2051 H 0.66469 0.84578 0.45427 0.0
H2052 H 0.57128 0.79508 0.44382 0.0
H2053 H 0.58539 0.7973 0.46824 0.0
H2054 H 0.58986 0.78709 0.4441 0.0
H2055 H 0.61567 0.70541 0.42094 0.0
H2056 H 0.61483 0.67461 0.4362 0.0
H2057 H 0.64022 0.69096 0.44768 0.0
H2058 H 0.61993 0.69439 0.45651 0.0
H2059 H 0.67272 0.7634 0.44053 0.0
H2060 H 0.61001 0.72031 0.44878 0.0
H2061 H 0.67703 0.8026 0.47661 0.0
H2062 H 0.67189 0.80841 0.45056 0.0
H2063 H 0.6885 0.79808 0.45383 0.0
H2064 H 0.58831 0.72988 0.46403 0.0
H2065 H 0.59525 0.75644 0.46092 0.0
H2066 H 0.60099 0.74902 0.48575 0.0
H2067 H 0.63565 0.81987 0.58931 0.0
H2068 H 0.6244 0.85107 0.52887 0.0
H2069 H 0.62238 0.845 0.49093 0.0
H2070 H 0.62974 0.79775 0.44336 0.0
H2071 H 0.64286 0.76789 0.50388 0.0
H2072 H 0.64446 0.77372 0.54186 0.0
H2073 H 0.57604 0.87037 0.42412 0.0
H2074 H 0.58839 0.89047 0.44519 0.0
H2075 H 0.58332 0.86471 0.44941 0.0
C2076 C 0.11359 0.69811 0.65608 0.0
C2077 C 0.1143 0.71717 0.64722 0.0
C2078 C 0.12486 0.73179 0.61313 0.0
C2079 C 0.12142 0.74839 0.61287 0.0
C2080 C 0.13304 0.76532 0.60054 0.0
C2081 C 0.14874 0.76577 0.58873 0.0
C2082 C 0.15232 0.74901 0.58922 0.0
C2083 C 0.13995 0.73197 0.60105 0.0
C2084 C 0.12855 0.7827 0.60021 0.0
C2085 C 0.16937 0.74916 0.57757 0.0
C2086 C 0.27781 0.92345 0.63446 0.0
C2087 C 0.26547 0.90067 0.62991 0.0
C2088 C 0.2324 0.87551 0.61298 0.0
C2089 C 0.23708 0.85989 0.6089 0.0
C2090 C 0.22323 0.8414 0.59747 0.0
C2091 C 0.20432 0.83843 0.59011 0.0
C2092 C 0.19938 0.8539 0.59469 0.0
C2093 C 0.21353 0.87226 0.60603 0.0
C2094 C 0.2289 0.82515 0.59292 0.0
C2095 C 0.17924 0.85114 0.58734 0.0
C2096 C 0.23106 0.86503 0.45103 0.0
C2097 C 0.23319 0.84802 0.45544 0.0
C2098 C 0.21889 0.83198 0.46714 0.0
C2099 C 0.20206 0.83295 0.47441 0.0
C2100 C 0.19998 0.85019 0.47013 0.0
C2101 C 0.21476 0.86621 0.45876 0.0
C2102 C 0.2218 0.81405 0.47182 0.0
C2103 C 0.18218 0.85165 0.47755 0.0
C2104 C 0.07442 0.67832 0.43248 0.0
C2105 C 0.08282 0.70144 0.4304 0.0
C2106 C 0.11609 0.72826 0.44539 0.0
C2107 C 0.13464 0.73078 0.45244 0.0
C2108 C 0.14809 0.74767 0.46611 0.0
C2109 C 0.14294 0.76262 0.47255 0.0
C2110 C 0.12429 0.76034 0.46522 0.0
C2111 C 0.11105 0.74318 0.45165 0.0
C2112 C 0.16788 0.74965 0.47351 0.0
C2113 C 0.11853 0.77619 0.47151 0.0
C2114 C 0.16178 0.78398 0.57636 0.0
C2115 C 0.17642 0.80202 0.58769 0.0
C2116 C 0.18986 0.81943 0.57709 0.0
C2117 C 0.18917 0.81873 0.55452 0.0
C2118 C 0.20315 0.83559 0.54335 0.0
C2119 C 0.20248 0.8347 0.52115 0.0
C2120 C 0.18759 0.81705 0.50926 0.0
C2121 C 0.18682 0.81601 0.48671 0.0
C2122 C 0.17188 0.79826 0.47534 0.0
C2123 C 0.15764 0.78124 0.48588 0.0
C2124 C 0.15817 0.78194 0.50847 0.0
C2125 C 0.14413 0.76512 0.51965 0.0
C2126 C 0.1451 0.76583 0.54188 0.0
C2127 C 0.16022 0.78334 0.55379 0.0
C2128 C 0.17419 0.80067 0.54285 0.0
C2129 C 0.17325 0.79992 0.52018 0.0
C2130 C 0.26879 0.89823 0.41343 0.0
C2131 C 0.25292 0.87838 0.42133 0.0
O2132 O 0.11388 0.71553 0.62515 0.0
O2133 O 0.10373 0.71149 0.43226 0.0
O2134 O 0.2448 0.8808 0.43994 0.0
O2135 O 0.24564 0.89397 0.62324 0.0
H2136 H 0.12888 0.73084 0.65337 0.0
H2137 H 0.12674 0.69702 0.6508 0.0
H2138 H 0.09951 0.68382 0.65027 0.0
H2139 H 0.11425 0.69922 0.67382 0.0
H2140 H 0.10952 0.74799 0.62213 0.0
H2141 H 0.14241 0.71898 0.60147 0.0
H2142 H 0.14081 0.79647 0.60934 0.0
H2143 H 0.114 0.77854 0.60744 0.0
H2144 H 0.12803 0.78706 0.58357 0.0
H2145 H 0.17241 0.73696 0.5828 0.0
H2146 H 0.18345 0.76439 0.58016 0.0
H2147 H 0.16539 0.74645 0.56018 0.0
H2148 H 0.26669 0.89105 0.64236 0.0
H2149 H 0.26687 0.92924 0.63593 0.0
H2150 H 0.2995 0.93331 0.61123 0.0
H2151 H 0.28195 0.92545 0.65208 0.0
H2152 H 0.25154 0.86208 0.61443 0.0
H2153 H 0.21001 0.88434 0.60934 0.0
H2154 H 0.21783 0.81049 0.59988 0.0
H2155 H 0.24427 0.82985 0.59956 0.0
H2156 H 0.22829 0.82202 0.57541 0.0
H2157 H 0.17725 0.86409 0.59327 0.0
H2158 H 0.1668 0.83646 0.59296 0.0
H2159 H 0.17792 0.8501 0.56963 0.0
H2160 H 0.25683 0.86597 0.4214 0.0
H2161 H 0.24622 0.84743 0.45021 0.0
H2162 H 0.21344 0.87957 0.45546 0.0
H2163 H 0.22061 0.81136 0.48915 0.0
H2164 H 0.23665 0.81657 0.46687 0.0
H2165 H 0.20969 0.79984 0.46316 0.0
H2166 H 0.18194 0.86525 0.47145 0.0
H2167 H 0.18275 0.85285 0.49526 0.0
H2168 H 0.16786 0.83743 0.47219 0.0
H2169 H 0.07681 0.70659 0.44375 0.0
H2170 H 0.05763 0.66985 0.43129 0.0
H2171 H 0.07935 0.67566 0.44825 0.0
H2172 H 0.07996 0.67201 0.41977 0.0
H2173 H 0.13848 0.7193 0.44732 0.0
H2174 H 0.097 0.74173 0.44566 0.0
H2175 H 0.16955 0.7513 0.49121 0.0
H2176 H 0.18057 0.76378 0.46731 0.0
H2177 H 0.16915 0.73613 0.46802 0.0
H2178 H 0.10324 0.77192 0.46498 0.0
H2179 H 0.1297 0.7914 0.46564 0.0
H2180 H 0.1189 0.77801 0.48918 0.0
H2181 H 0.17738 0.80251 0.605 0.0
H2182 H 0.21491 0.8496 0.55163 0.0
H2183 H 0.21378 0.84808 0.51344 0.0
H2184 H 0.17154 0.79754 0.45802 0.0
H2185 H 0.13229 0.75119 0.51131 0.0
H2186 H 0.13387 0.75244 0.54963 0.0
H2187 H 0.28299 0.8973 0.41423 0.0
H2188 H 0.27383 0.91011 0.42719 0.0
H2189 H 0.25587 0.90069 0.3846 0.0
C2190 C 0.12661 0.39803 0.65711 0.0
C2191 C 0.11036 0.39238 0.63922 0.0
C2192 C 0.12421 0.38021 0.61087 0.0
C2193 C 0.14021 0.39969 0.60608 0.0
C2194 C 0.15491 0.4014 0.5921 0.0
C2195 C 0.15351 0.3833 0.58267 0.0
C2196 C 0.13726 0.3637 0.5872 0.0
C2197 C 0.12275 0.36244 0.60118 0.0
C2198 C 0.17199 0.42254 0.58742 0.0
C2199 C 0.1353 0.34412 0.57732 0.0
C2200 C 0.29865 0.40434 0.60291 0.0
C2201 C 0.28029 0.3919 0.61623 0.0
C2202 C 0.24945 0.38112 0.59368 0.0
C2203 C 0.23241 0.36393 0.58398 0.0
C2204 C 0.21673 0.36571 0.57427 0.0
C2205 C 0.21824 0.38528 0.57419 0.0
C2206 C 0.23557 0.40285 0.58367 0.0
C2207 C 0.25108 0.40064 0.59324 0.0
C2208 C 0.19852 0.34666 0.56414 0.0
C2209 C 0.23769 0.42395 0.58359 0.0
C2210 C 0.24834 0.41125 0.44028 0.0
C2211 C 0.23499 0.39066 0.44464 0.0
C2212 C 0.21708 0.38522 0.4549 0.0
C2213 C 0.21286 0.40086 0.46138 0.0
C2214 C 0.22584 0.42148 0.4559 0.0
C2215 C 0.24335 0.42635 0.4451 0.0
C2216 C 0.20313 0.36293 0.45957 0.0
C2217 C 0.22165 0.43849 0.46223 0.0
C2218 C 0.07483 0.39792 0.43888 0.0
C2219 C 0.08671 0.3905 0.42568 0.0
C2220 C 0.10719 0.38052 0.44727 0.0
C2221 C 0.10987 0.36379 0.45083 0.0
C2222 C 0.12766 0.36666 0.46098 0.0
C2223 C 0.14305 0.38682 0.46793 0.0
C2224 C 0.14028 0.40381 0.46483 0.0
C2225 C 0.1223 0.40049 0.45467 0.0
C2226 C 0.13006 0.34818 0.46427 0.0
C2227 C 0.1563 0.42545 0.47239 0.0
C2228 C 0.16909 0.38495 0.56808 0.0
C2229 C 0.18606 0.38507 0.5769 0.0
C2230 C 0.2016 0.38721 0.56414 0.0
C2231 C 0.20056 0.38998 0.54208 0.0
C2232 C 0.21649 0.39349 0.52904 0.0
C2233 C 0.21522 0.39598 0.5073 0.0
C2234 C 0.19767 0.3943 0.49761 0.0
C2235 C 0.19591 0.39605 0.47537 0.0
C2236 C 0.178 0.39364 0.46622 0.0
C2237 C 0.16187 0.39001 0.47878 0.0
C2238 C 0.16362 0.38901 0.50112 0.0
C2239 C 0.14796 0.38618 0.5143 0.0
C2240 C 0.14982 0.38516 0.53627 0.0
C2241 C 0.16721 0.38641 0.54583 0.0
C2242 C 0.1831 0.38913 0.53283 0.0
C2243 C 0.18147 0.39083 0.51051 0.0
C2244 C 0.29887 0.43399 0.45079 0.0
C2245 C 0.28069 0.41336 0.44254 0.0
O2246 O 0.10994 0.37772 0.62478 0.0
O2247 O 0.08978 0.37667 0.43688 0.0
O2248 O 0.26658 0.41695 0.43242 0.0
O2249 O 0.26383 0.37805 0.60307 0.0
H2250 H 0.11354 0.40643 0.6308 0.0
H2251 H 0.14184 0.40494 0.6506 0.0
H2252 H 0.12367 0.38405 0.66551 0.0
H2253 H 0.12677 0.40954 0.66886 0.0
H2254 H 0.14141 0.41362 0.61318 0.0
H2255 H 0.11029 0.34749 0.60487 0.0
H2256 H 0.18667 0.4239 0.59217 0.0
H2257 H 0.17092 0.43514 0.59595 0.0
H2258 H 0.17194 0.42465 0.56999 0.0
H2259 H 0.12173 0.33005 0.58245 0.0
H2260 H 0.14893 0.34326 0.58182 0.0
H2261 H 0.13436 0.34428 0.55965 0.0
H2262 H 0.27682 0.40279 0.62499 0.0
H2263 H 0.31193 0.41529 0.61345 0.0
H2264 H 0.29545 0.4134 0.59147 0.0
H2265 H 0.30243 0.39393 0.5937 0.0
H2266 H 0.23135 0.34899 0.58421 0.0
H2267 H 0.26438 0.41424 0.60015 0.0
H2268 H 0.19698 0.34874 0.5469 0.0
H2269 H 0.18463 0.34438 0.5716 0.0
H2270 H 0.19954 0.33252 0.5658 0.0
H2271 H 0.2522 0.43617 0.59143 0.0
H2272 H 0.22504 0.42377 0.59197 0.0
H2273 H 0.23674 0.42794 0.56689 0.0
H2274 H 0.27433 0.40417 0.45684 0.0
H2275 H 0.23883 0.37899 0.44039 0.0
H2276 H 0.25376 0.44217 0.44138 0.0
H2277 H 0.20476 0.36089 0.47679 0.0
H2278 H 0.20657 0.35233 0.45021 0.0
H2279 H 0.18714 0.35845 0.45595 0.0
H2280 H 0.23366 0.45385 0.45749 0.0
H2281 H 0.22035 0.43919 0.47979 0.0
H2282 H 0.20703 0.43512 0.45458 0.0
H2283 H 0.10136 0.40438 0.4224 0.0
H2284 H 0.07141 0.40817 0.4295 0.0
H2285 H 0.08397 0.40683 0.45351 0.0
H2286 H 0.06047 0.3847 0.44385 0.0
H2287 H 0.09803 0.34843 0.44532 0.0
H2288 H 0.1201 0.4135 0.45281 0.0
H2289 H 0.13228 0.3469 0.48158 0.0
H2290 H 0.14371 0.35024 0.4564 0.0
H2291 H 0.11675 0.33353 0.45776 0.0
H2292 H 0.15193 0.43707 0.46865 0.0
H2293 H 0.17068 0.42963 0.46477 0.0
H2294 H 0.15917 0.42615 0.48992 0.0
H2295 H 0.1871 0.38328 0.59389 0.0
H2296 H 0.23022 0.39457 0.53554 0.0
H2297 H 0.2281 0.39894 0.49816 0.0
H2298 H 0.17662 0.39464 0.4491 0.0
H2299 H 0.13413 0.38487 0.5078 0.0
H2300 H 0.13733 0.38308 0.54563 0.0
H2301 H 0.31047 0.43143 0.45876 0.0
H2302 H 0.29397 0.44171 0.46263 0.0
H2303 H 0.30574 0.44442 0.43754 0.0
C2304 C 0.0016 0.36273 0.04973 0.0
C2305 C 0.98572 0.3552 0.03403 0.0
H2306 H 0.0123 0.37618 0.08146 0.0
C2307 C 0.96785 0.35496 0.03895 0.0
H2308 H 0.01563 0.36326 0.0464 0.0
C2309 C 0.96589 0.36212 0.05908 0.0
C2310 C 0.98182 0.36987 0.0747 0.0
H2311 H 0.95531 0.34921 0.02727 0.0
H2312 H 0.95191 0.36173 0.06237 0.0
C2313 C -0.00028 0.37013 0.06979 0.0
C2314 C 0.64469 0.58604 0.05538 0.0
C2315 C 0.64668 0.6044 0.06445 0.0
H2316 H 0.63183 0.55336 0.05777 0.0
C2317 C 0.63629 0.60353 0.08286 0.0
H2318 H 0.6526 0.58623 0.04127 0.0
C2319 C 0.62433 0.58479 0.09212 0.0
C2320 C 0.62254 0.56646 0.08327 0.0
H2321 H 0.63765 0.61736 0.09045 0.0
H2322 H 0.61675 0.58466 0.10649 0.0
C2323 C 0.6328 0.56724 0.06478 0.0
C2324 C 0.3653 0.99524 0.05646 0.0
C2325 C 0.37667 0.01472 0.048 0.0
H2326 H 0.36039 0.97683 0.08332 0.0
C2327 C 0.392 0.03104 0.06093 0.0
H2328 H 0.35365 0.98228 0.04673 0.0
C2329 C 0.39549 0.02805 0.08215 0.0
C2330 C 0.38391 0.00863 0.09071 0.0
H2331 H 0.40102 0.0462 0.05478 0.0
H2332 H 0.40723 0.04094 0.09188 0.0
C2333 C 0.3691 0.99214 0.07746 0.0
C2334 C 0.37207 0.9688 0.95944 0.0
C2335 C 0.37491 0.98882 0.95976 0.0
H2336 H 0.38293 0.94881 0.94914 0.0
C2337 C 0.39202 0.00458 0.9506 0.0
H2338 H 0.359 0.9563 0.96632 0.0
C2339 C 0.40576 0.00028 0.94086 0.0
C2340 C 0.40274 0.98018 0.94026 0.0
H2341 H 0.39455 0.02012 0.95042 0.0
H2342 H 0.41847 0.01255 0.93329 0.0
C2343 C 0.3858 0.96451 0.94972 0.0
C2344 C 0.00522 0.3822 0.9404 0.0
C2345 C 0.02157 0.38361 0.95255 0.0
H2346 H 0.99477 0.3974 0.91973 0.0
C2347 C 0.04 0.40243 0.95396 0.0
H2348 H 0.99084 0.36792 0.93888 0.0
C2349 C 0.04227 0.41921 0.94285 0.0
C2350 C 0.02609 0.41767 0.93029 0.0
H2351 H 0.05291 0.40404 0.96315 0.0
H2352 H 0.05688 0.43327 0.94364 0.0
C2353 C 0.00743 0.39907 0.92945 0.0
C2354 C 0.60281 0.64584 0.00798 0.0
C2355 C 0.62135 0.64669 0.00529 0.0
H2356 H 0.57538 0.64134 0.99297 0.0
C2357 C 0.62638 0.64366 0.98461 0.0
H2358 H 0.59849 0.64814 0.02367 0.0
C2359 C 0.61304 0.63954 0.96708 0.0
C2360 C 0.59446 0.6386 0.96978 0.0
H2361 H 0.64048 0.64409 0.98195 0.0
H2362 H 0.61715 0.63691 0.95139 0.0
C2363 C 0.58957 0.64194 0.9904 0.0
C2364 C 0.03067 0.63823 0.98613 0.0
C2365 C 0.01304 0.63943 0.98777 0.0
H2366 H 0.05034 0.63418 0.96544 0.0
C2367 C 0.00109 0.63639 0.96911 0.0
H2368 H 0.0403 0.6406 0.00013 0.0
C2369 C 0.00676 0.63249 0.94928 0.0
C2370 C 0.02446 0.63147 0.94765 0.0
H2371 H 0.98742 0.63722 0.96974 0.0
H2372 H 0.99749 0.63062 0.93512 0.0
C2373 C 0.03639 0.63444 0.96628 0.0
C2374 C 0.36143 0.42588 0.96867 0.0
C2375 C 0.36084 0.40788 0.96058 0.0
H2376 H 0.36864 0.45678 0.96282 0.0
C2377 C 0.36889 0.40802 0.94068 0.0
H2378 H 0.35541 0.42626 0.98399 0.0
C2379 C 0.37624 0.42538 0.92853 0.0
C2380 C 0.37588 0.443 0.93612 0.0
H2381 H 0.36865 0.3944 0.93401 0.0
H2382 H 0.38156 0.42476 0.91285 0.0
C2383 C 0.36896 0.44332 0.95657 0.0
C2384 C 0.60973 0.97812 0.98558 0.0
C2385 C 0.62835 0.99645 0.98978 0.0
H2386 H 0.58778 0.95696 0.96182 0.0
C2387 C 0.63864 0.00821 0.97255 0.0
H2388 H 0.60147 0.96861 0.99845 0.0
C2389 C 0.63064 0.00167 0.95162 0.0
C2390 C 0.61218 0.98324 0.94741 0.0
H2391 H 0.65301 0.02242 0.97517 0.0
H2392 H 0.63909 0.01082 0.93864 0.0
C2393 C 0.60182 0.97148 0.96461 0.0
C2394 C 0.6292 0.04021 0.08295 0.0
C2395 C 0.63982 0.05004 0.06502 0.0
H2396 H 0.60807 0.03789 0.10588 0.0
C2397 C 0.63607 0.06455 0.05556 0.0
H2398 H 0.63168 0.02887 0.09051 0.0
C2399 C 0.62235 0.06952 0.06421 0.0
C2400 C 0.61256 0.06052 0.08286 0.0
H2401 H 0.64382 0.07214 0.04153 0.0
H2402 H 0.61972 0.08069 0.05653 0.0
C2403 C 0.61575 0.04543 0.0918 0.0
C2404 C 0.97979 0.60828 0.08209 0.0
C2405 C 0.96681 0.60537 0.06442 0.0
H2406 H 0.98659 0.59445 0.1078 0.0
C2407 C 0.9511 0.58529 0.05835 0.0
H2408 H 0.99199 0.62356 0.08725 0.0
C2409 C 0.94812 0.56854 0.07008 0.0
C2410 C 0.96067 0.57161 0.08821 0.0
H2411 H 0.9409 0.58255 0.04477 0.0
H2412 H 0.93568 0.55326 0.06534 0.0
C2413 C 0.97669 0.59161 0.0939 0.0
C2414 C 0.40541 0.36762 0.02831 0.0
C2415 C 0.38723 0.36788 0.02895 0.0
H2416 H 0.42871 0.36595 0.04611 0.0
C2417 C 0.37953 0.36839 0.04893 0.0
H2418 H 0.4117 0.36707 0.01321 0.0
C2419 C 0.38942 0.36799 0.06775 0.0
C2420 C 0.40724 0.36709 0.06707 0.0
H2421 H 0.36558 0.36861 0.05004 0.0
H2422 H 0.3828 0.36774 0.08286 0.0
C2423 C 0.41521 0.36704 0.04715 0.0
C2424 C 0.63203 0.68965 0.36728 0.0
C2425 C 0.65064 0.69022 0.36736 0.0
H2426 H 0.61098 0.69391 0.3853 0.0
C2427 C 0.6623 0.69545 0.38665 0.0
H2428 H 0.62262 0.68562 0.35272 0.0
C2429 C 0.6557 0.70047 0.40531 0.0
C2430 C 0.63717 0.70007 0.40514 0.0
H2431 H 0.67677 0.69618 0.38725 0.0
H2432 H 0.66518 0.70487 0.41985 0.0
C2433 C 0.62534 0.69441 0.38595 0.0
C2434 C 0.26343 0.92574 0.40203 0.0
C2435 C 0.28299 0.92477 0.38752 0.0
H2436 H 0.23002 0.9027 0.41851 0.0
C2437 C 0.2804 0.90068 0.37742 0.0
H2438 H 0.26521 0.94042 0.40736 0.0
C2439 C 0.25863 0.87641 0.38294 0.0
C2440 C 0.2421 0.87834 0.40294 0.0
H2441 H 0.29215 0.90076 0.3682 0.0
H2442 H 0.25786 0.86193 0.37869 0.0
C2443 C 0.24103 0.90233 0.40835 0.0
C2444 C 0.04629 0.3532 0.38388 0.0
C2445 C 0.05602 0.36052 0.36476 0.0
H2446 H 0.04843 0.35659 0.41804 0.0
C2447 C 0.07588 0.37743 0.36578 0.0
H2448 H 0.03105 0.3401 0.38365 0.0
C2449 C 0.08562 0.3871 0.3854 0.0
C2450 C 0.07579 0.38006 0.4045 0.0
H2451 H 0.08382 0.38351 0.35137 0.0
H2452 H 0.10087 0.40019 0.38562 0.0
C2453 C 0.05617 0.36273 0.40356 0.0
C2454 C 0.01782 0.2675 0.29684 0.0
C2455 C 0.02949 0.29525 0.29996 0.0
H2456 H 0.02548 0.23936 0.28626 0.0
C2457 C 0.05636 0.31225 0.29835 0.0
H2458 H 0.00176 0.25783 0.29867 0.0
C2459 C 0.07246 0.30211 0.29184 0.0
C2460 C 0.0588 0.2743 0.28269 0.0
H2461 H 0.063 0.32868 0.30145 0.0
H2462 H 0.08832 0.31224 0.28929 0.0
C2463 C 0.0326 0.25577 0.29016 0.0
C2464 C 0.69498 0.73284 0.28332 0.0
C2465 C 0.70731 0.7318 0.2996 0.0
H2466 H 0.69132 0.7516 0.26073 0.0
C2467 C 0.72531 0.74989 0.30648 0.0
H2468 H 0.68112 0.7192 0.27748 0.0
C2469 C 0.73118 0.76846 0.29678 0.0
C2470 C 0.71907 0.76938 0.28017 0.0
H2471 H 0.73519 0.7496 0.31892 0.0
H2472 H 0.74548 0.78199 0.30187 0.0
C2473 C 0.70079 0.75142 0.27371 0.0
C2474 C 0.29111 0.96605 0.30117 0.0
C2475 C 0.28378 0.97198 0.31871 0.0
H2476 H 0.2875 0.95785 0.26759 0.0
C2477 C 0.26749 0.97531 0.3153 0.0
H2478 H 0.30356 0.96325 0.30329 0.0
C2479 C 0.2585 0.97247 0.29491 0.0
C2480 C 0.26547 0.96606 0.27744 0.0
H2481 H 0.26153 0.98 0.32844 0.0
H2482 H 0.24584 0.97496 0.29289 0.0
C2483 C 0.28194 0.96297 0.28075 0.0
C2484 C 0.67959 0.97191 0.29935 0.0
C2485 C 0.68733 0.97316 0.32027 0.0
H2486 H 0.68464 0.97226 0.2659 0.0
C2487 C 0.70612 0.97428 0.32314 0.0
H2488 H 0.66518 0.97102 0.2965 0.0
C2489 C 0.71724 0.97499 0.30554 0.0
C2490 C 0.7097 0.97433 0.28469 0.0
H2491 H 0.71259 0.97535 0.339 0.0
H2492 H 0.732 0.97668 0.30825 0.0
C2493 C 0.69068 0.97255 0.28178 0.0
C2494 C 0.04435 0.74354 0.27253 0.0
C2495 C 0.03688 0.7454 0.2922 0.0
H2496 H 0.05517 0.75678 0.24261 0.0
C2497 C 0.03719 0.76384 0.29783 0.0
H2498 H 0.04435 0.72954 0.26772 0.0
C2499 C 0.04358 0.77954 0.28347 0.0
C2500 C 0.04949 0.77694 0.26312 0.0
H2501 H 0.03165 0.76578 0.31293 0.0
H2502 H 0.04297 0.79329 0.28785 0.0
C2503 C 0.05047 0.7591 0.25809 0.0
C2504 C 0.25818 0.29883 0.32895 0.0
C2505 C 0.27688 0.31735 0.32907 0.0
H2506 H 0.23349 0.27438 0.31006 0.0
C2507 C 0.28433 0.3261 0.30951 0.0
H2508 H 0.25206 0.29157 0.34369 0.0
C2509 C 0.27353 0.31637 0.29028 0.0
C2510 C 0.25504 0.29769 0.29013 0.0
H2511 H 0.29867 0.34034 0.30899 0.0
H2512 H 0.27987 0.3232 0.27542 0.0
C2513 C 0.24748 0.289 0.30968 0.0
C2514 C 0.29513 0.37479 0.42083 0.0
C2515 C 0.30368 0.38324 0.40153 0.0
H2516 H 0.28127 0.37774 0.44886 0.0
C2517 C 0.30294 0.40051 0.39475 0.0
H2518 H 0.29547 0.36151 0.42651 0.0
C2519 C 0.29467 0.40972 0.40752 0.0
C2520 C 0.28713 0.40192 0.42737 0.0
H2521 H 0.30934 0.40732 0.37991 0.0
H2522 H 0.29482 0.42338 0.40227 0.0
C2523 C 0.28703 0.3841 0.43367 0.0
C2524 C 0.61069 0.91237 0.38052 0.0
C2525 C 0.62564 0.93257 0.38744 0.0
H2526 H 0.5937 0.88055 0.3882 0.0
C2527 C 0.63578 0.93582 0.40742 0.0
H2528 H 0.60259 0.90937 0.36521 0.0
C2529 C 0.63065 0.91941 0.42053 0.0
C2530 C 0.61535 0.89932 0.41391 0.0
H2531 H 0.64728 0.95117 0.41332 0.0
H2532 H 0.63831 0.92254 0.43612 0.0
C2533 C 0.60562 0.89589 0.39363 0.0
C2534 C 0.04974 0.70704 0.38796 0.0
C2535 C 0.05869 0.70617 0.36896 0.0
H2536 H 0.05047 0.70643 0.42208 0.0
C2537 C 0.07667 0.70546 0.37034 0.0
H2538 H 0.03591 0.70761 0.38756 0.0
C2539 C 0.08499 0.70478 0.39021 0.0
C2540 C 0.07568 0.70509 0.40913 0.0
H2541 H 0.08393 0.70467 0.35606 0.0
H2542 H 0.09836 0.70337 0.39074 0.0
C2543 C 0.05811 0.70646 0.40778 0.0
C2544 C 0.28628 0.01984 0.70045 0.0
C2545 C 0.30494 0.02058 0.70225 0.0
H2546 H 0.26277 0.02124 0.71668 0.0
C2547 C 0.31386 0.02259 0.72272 0.0
H2548 H 0.27891 0.01819 0.68495 0.0
C2549 C 0.30463 0.02447 0.74091 0.0
C2550 C 0.28622 0.02424 0.73903 0.0
H2551 H 0.32824 0.02325 0.72471 0.0
H2552 H 0.31206 0.0265 0.75645 0.0
C2553 C 0.277 0.02158 0.71862 0.0
C2554 C 0.96238 0.26934 0.75379 0.0
C2555 C 0.97511 0.2722 0.73696 0.0
H2556 H 0.94364 0.2491 0.77708 0.0
C2557 C 0.97816 0.25596 0.73026 0.0
H2558 H 0.95996 0.28164 0.75955 0.0
C2559 C 0.96867 0.23721 0.74026 0.0
C2560 C 0.95592 0.23436 0.75708 0.0
H2561 H 0.98799 0.25777 0.71741 0.0
H2562 H 0.97144 0.225 0.73501 0.0
C2563 C 0.95301 0.25069 0.76384 0.0
C2564 C 0.71055 0.68276 0.71411 0.0
C2565 C 0.71591 0.68944 0.69338 0.0
H2566 H 0.71925 0.68793 0.74745 0.0
C2567 C 0.73449 0.70752 0.69073 0.0
H2568 H 0.69641 0.66886 0.71674 0.0
C2569 C 0.74745 0.71858 0.70841 0.0
C2570 C 0.7422 0.71172 0.72908 0.0
H2571 H 0.73906 0.71314 0.675 0.0
H2572 H 0.76171 0.73238 0.70587 0.0
C2573 C 0.7236 0.6937 0.73173 0.0
C2574 C 0.70029 0.62584 0.61577 0.0
C2575 C 0.68989 0.61724 0.6342 0.0
H2576 H 0.72023 0.6259 0.5926 0.0
C2577 C 0.69199 0.60164 0.6436 0.0
H2578 H 0.69882 0.63765 0.60792 0.0
C2579 C 0.70417 0.59471 0.63459 0.0
C2580 C 0.71455 0.60339 0.61616 0.0
H2581 H 0.68406 0.59463 0.65775 0.0
H2582 H 0.70538 0.58251 0.64193 0.0
C2583 C 0.71251 0.61906 0.60691 0.0
C2584 C 0.34522 0.07558 0.63258 0.0
C2585 C 0.36444 0.07454 0.64886 0.0
H2586 H 0.33624 0.10086 0.61714 0.0
C2587 C 0.38508 0.09737 0.66247 0.0
H2588 H 0.33266 0.06161 0.62531 0.0
C2589 C 0.38807 0.12244 0.659 0.0
C2590 C 0.37128 0.12306 0.63748 0.0
H2591 H 0.39582 0.09603 0.67278 0.0
H2592 H 0.40135 0.13632 0.66552 0.0
C2593 C 0.34679 0.09989 0.62813 0.0
C2594 C 0.95471 0.29539 0.64199 0.0
C2595 C 0.94508 0.29602 0.66053 0.0
H2596 H 0.95258 0.2911 0.60788 0.0
C2597 C 0.92521 0.29229 0.65852 0.0
H2598 H 0.96993 0.29797 0.64301 0.0
C2599 C 0.91549 0.28883 0.63843 0.0
C2600 C 0.92531 0.28887 0.61982 0.0
H2601 H 0.91732 0.29263 0.67246 0.0
H2602 H 0.90033 0.28642 0.63744 0.0
C2603 C 0.94482 0.29157 0.62186 0.0
C2604 C 0.34539 0.30653 0.63794 0.0
C2605 C 0.35507 0.30838 0.65792 0.0
H2606 H 0.34661 0.30443 0.6039 0.0
C2607 C 0.37355 0.30867 0.65855 0.0
H2608 H 0.33116 0.30626 0.63682 0.0
C2609 C 0.3824 0.30768 0.63967 0.0
C2610 C 0.37277 0.30598 0.61971 0.0
H2611 H 0.38151 0.31022 0.67364 0.0
H2612 H 0.39697 0.30867 0.64068 0.0
C2613 C 0.35416 0.30535 0.61907 0.0
C2614 C 0.70362 0.08775 0.62718 0.0
C2615 C 0.7021 0.06853 0.62268 0.0
H2616 H 0.71101 0.11713 0.61549 0.0
C2617 C 0.70911 0.06516 0.60334 0.0
H2618 H 0.69836 0.09082 0.64195 0.0
C2619 C 0.71616 0.08013 0.58818 0.0
C2620 C 0.71654 0.09884 0.59213 0.0
H2621 H 0.70814 0.05052 0.59936 0.0
H2622 H 0.72053 0.07671 0.57298 0.0
C2623 C 0.7108 0.10279 0.61205 0.0
C2624 C 0.93273 0.64044 0.64587 0.0
C2625 C 0.95057 0.65981 0.64806 0.0
H2626 H 0.91174 0.61532 0.62462 0.0
C2627 C 0.96 0.66957 0.62956 0.0
H2628 H 0.92519 0.6324 0.65979 0.0
C2629 C 0.95207 0.65992 0.60936 0.0
C2630 C 0.93463 0.64025 0.60719 0.0
H2631 H 0.97377 0.6845 0.63069 0.0
H2632 H 0.95994 0.66753 0.59539 0.0
C2633 C 0.92498 0.63064 0.62568 0.0
C2634 C 0.97511 0.74335 0.71743 0.0
C2635 C 0.9737 0.72504 0.72417 0.0
H2636 H 0.96993 0.76835 0.72486 0.0
C2637 C 0.96423 0.71696 0.74321 0.0
H2638 H 0.98216 0.74984 0.70272 0.0
C2639 C 0.95767 0.72777 0.75605 0.0
C2640 C 0.96024 0.74675 0.75002 0.0
H2641 H 0.96285 0.70284 0.74882 0.0
H2642 H 0.95126 0.72163 0.77112 0.0
C2643 C 0.96822 0.754 0.73014 0.0
C2644 C 0.27895 0.24842 0.7206 0.0
C2645 C 0.29597 0.26738 0.72761 0.0
H2646 H 0.25881 0.2168 0.72742 0.0
C2647 C 0.30671 0.26839 0.74652 0.0
H2648 H 0.27036 0.24714 0.70609 0.0
C2649 C 0.30004 0.25113 0.75872 0.0
C2650 C 0.28258 0.23239 0.75222 0.0
H2651 H 0.31984 0.28275 0.75243 0.0
H2652 H 0.3082 0.25264 0.77365 0.0
C2653 C 0.27234 0.23106 0.73278 0.0
C2654 C 0.74086 0.02656 0.697 0.0
C2655 C 0.7234 0.02821 0.69754 0.0
H2656 H 0.76431 0.02537 0.71506 0.0
C2657 C 0.71698 0.03121 0.71747 0.0
H2658 H 0.7462 0.02415 0.68197 0.0
C2659 C 0.72748 0.03208 0.73638 0.0
C2660 C 0.74471 0.03009 0.73584 0.0
H2661 H 0.70361 0.03253 0.71854 0.0
H2662 H 0.72188 0.03388 0.7515 0.0
C2663 C 0.75131 0.02735 0.71594 0.0
C2664 C 0.05111 0.31353 0.03622 0.0
C2665 C 0.0431 0.3028 0.01632 0.0
H2666 H 0.06464 0.31424 0.06681 0.0
C2667 C 0.0434 0.28448 0.01186 0.0
H2668 H 0.05106 0.32766 0.04019 0.0
C2669 C 0.05117 0.27684 0.02709 0.0
C2670 C 0.05901 0.28744 0.04705 0.0
H2671 H 0.03727 0.27577 0.99674 0.0
H2672 H 0.05077 0.26243 0.02338 0.0
C2673 C 0.05895 0.30591 0.05144 0.0
C2674 C 0.71076 0.73703 0.0602 0.0
C2675 C 0.68837 0.71891 0.07322 0.0
H2676 H 0.73667 0.77518 0.06005 0.0
C2677 C 0.67947 0.72651 0.09621 0.0
H2678 H 0.71621 0.7317 0.04715 0.0
C2679 C 0.69194 0.75303 0.10617 0.0
C2680 C 0.71112 0.77158 0.08844 0.0
H2681 H 0.66664 0.71502 0.10428 0.0
H2682 H 0.68588 0.75801 0.11893 0.0
C2683 C 0.72432 0.76394 0.06888 0.0
C2684 C 0.27007 0.97598 0.02731 0.0
C2685 C 0.28737 0.96668 0.03196 0.0
H2686 H 0.23798 0.97325 0.04064 0.0
C2687 C 0.28571 0.95171 0.05453 0.0
H2688 H 0.27214 0.98574 0.01421 0.0
C2689 C 0.26558 0.94417 0.07255 0.0
C2690 C 0.24522 0.94916 0.06336 0.0
H2691 H 0.29697 0.94733 0.05739 0.0
H2692 H 0.26354 0.93394 0.08519 0.0
C2693 C 0.2494 0.96926 0.04436 0.0
C2694 C 0.32038 0.05934 0.00053 0.0
C2695 C 0.34664 0.06733 0.99756 0.0
H2696 H 0.29694 0.07358 0.00509 0.0
C2697 C 0.36641 0.09412 0.0005 0.0
H2698 H 0.30905 0.0431 0.99944 0.0
C2699 C 0.36034 0.11416 0.00497 0.0
C2700 C 0.3329 0.10529 0.00165 0.0
H2701 H 0.38202 0.09823 0.99932 0.0
H2702 H 0.37186 0.13029 0.00475 0.0
C2703 C 0.31274 0.07812 0.00499 0.0
C2704 C 0.96386 0.25789 0.97937 0.0
C2705 C 0.95555 0.27067 0.97669 0.0
H2706 H 0.95816 0.22707 0.98211 0.0
C2707 C 0.93442 0.26159 0.97485 0.0
H2708 H 0.98007 0.26434 0.98065 0.0
C2709 C 0.92189 0.24024 0.97596 0.0
C2710 C 0.93021 0.22751 0.97873 0.0
H2711 H 0.92754 0.27099 0.97276 0.0
H2712 H 0.90566 0.23367 0.97472 0.0
C2713 C 0.95133 0.23654 0.9802 0.0
C2714 C 0.72871 0.70268 0.98214 0.0
C2715 C 0.71283 0.67493 0.97876 0.0
H2716 H 0.75744 0.73326 0.96547 0.0
C2717 C 0.71306 0.66056 0.95517 0.0
H2718 H 0.72766 0.71082 0.99616 0.0
C2719 C 0.73049 0.67343 0.93468 0.0
C2720 C 0.75017 0.70075 0.94209 0.0
H2721 H 0.70285 0.64405 0.95341 0.0
H2722 H 0.73193 0.66479 0.92136 0.0
C2723 C 0.74664 0.71697 0.96261 0.0
C2724 C 0.95287 0.68513 0.97597 0.0
C2725 C 0.95346 0.69018 0.99786 0.0
H2726 H 0.94958 0.69243 0.94393 0.0
C2727 C 0.95028 0.70645 0.00414 0.0
H2728 H 0.95546 0.67282 0.9706 0.0
C2729 C 0.94688 0.7176 0.98888 0.0
C2730 C 0.94643 0.71268 0.967 0.0
H2731 H 0.95076 0.71083 0.02086 0.0
H2732 H 0.94482 0.73027 0.99419 0.0
C2733 C 0.94952 0.69635 0.96069 0.0
C2734 C 0.30957 0.2806 0.96937 0.0
C2735 C 0.32967 0.29485 0.965 0.0
H2736 H 0.28704 0.24886 0.97183 0.0
C2737 C 0.34257 0.28748 0.95925 0.0
H2738 H 0.29917 0.28576 0.97363 0.0
C2739 C 0.33565 0.26629 0.95856 0.0
C2740 C 0.31567 0.25212 0.96338 0.0
H2741 H 0.35813 0.29809 0.95581 0.0
H2742 H 0.34598 0.261 0.95448 0.0
C2743 C 0.3026 0.25947 0.96839 0.0
C2744 C 0.7281 0.04274 0.98721 0.0
C2745 C 0.73409 0.04694 0.00901 0.0
H2746 H 0.73489 0.03637 0.95599 0.0
C2747 C 0.75267 0.04906 0.01582 0.0
H2748 H 0.71375 0.04072 0.98147 0.0
C2749 C 0.76487 0.04672 0.00115 0.0
C2750 C 0.75875 0.04223 0.97939 0.0
H2751 H 0.75763 0.05214 0.03254 0.0
H2752 H 0.77898 0.04811 0.00683 0.0
C2753 C 0.74019 0.04019 0.9726 0.0
C2754 C 0.66646 0.95432 0.05578 0.0
C2755 C 0.67941 0.97575 0.05496 0.0
H2756 H 0.6639 0.9245 0.05494 0.0
C2757 C 0.7003 0.9836 0.0538 0.0
H2758 H 0.6503 0.94782 0.05663 0.0
C2759 C 0.70805 0.97033 0.05309 0.0
C2760 C 0.69506 0.94887 0.05319 0.0
H2761 H 0.71072 6e-05 0.05332 0.0
H2762 H 0.72419 0.97682 0.05213 0.0
C2763 C 0.67422 0.94099 0.05476 0.0
C2764 C 0.02404 0.73163 0.04447 0.0
C2765 C 0.03287 0.71922 0.04598 0.0
H2766 H 0.02888 0.76218 0.04229 0.0
C2767 C 0.05401 0.72862 0.04654 0.0
H2768 H 0.00778 0.72483 0.04423 0.0
C2769 C 0.06605 0.74997 0.04493 0.0
C2770 C 0.0572 0.76234 0.04312 0.0
H2771 H 0.06123 0.71944 0.04767 0.0
H2772 H 0.0823 0.75679 0.04493 0.0
C2773 C 0.03608 0.75299 0.04332 0.0
C2774 C 0.25986 0.29376 0.02021 0.0
C2775 C 0.27862 0.31147 0.02584 0.0
H2776 H 0.23278 0.26843 0.0312 0.0
C2777 C 0.28448 0.3171 0.04755 0.0
H2778 H 0.25497 0.28891 0.00362 0.0
C2779 C 0.2718 0.3053 0.06331 0.0
C2780 C 0.25292 0.28776 0.05767 0.0
H2781 H 0.29892 0.33054 0.05242 0.0
H2782 H 0.2767 0.30994 0.07993 0.0
C2783 C 0.24716 0.282 0.03597 0.0
C2784 C 0.70356 0.61123 0.35602 0.0
C2785 C 0.71186 0.63843 0.3578 0.0
H2786 H 0.71255 0.58524 0.3692 0.0
C2787 C 0.73565 0.65731 0.37105 0.0
H2788 H 0.68979 0.60055 0.34691 0.0
C2789 C 0.75153 0.64934 0.38428 0.0
C2790 C 0.73938 0.62087 0.38692 0.0
H2791 H 0.74068 0.67358 0.37063 0.0
H2792 H 0.76512 0.6603 0.3935 0.0
C2793 C 0.71822 0.60165 0.36873 0.0
C2794 C 0.32708 0.05137 0.39356 0.0
C2795 C 0.33863 0.04182 0.39061 0.0
H2796 H 0.32713 0.07962 0.39938 0.0
C2797 C 0.35982 0.05415 0.39123 0.0
H2798 H 0.31073 0.04235 0.39284 0.0
C2799 C 0.36924 0.07552 0.39536 0.0
C2800 C 0.35768 0.08498 0.39888 0.0
H2801 H 0.36914 0.04727 0.38889 0.0
H2802 H 0.38558 0.08468 0.39596 0.0
C2803 C 0.33648 0.07273 0.39738 0.0
C2804 C 0.94314 0.31578 0.36674 0.0
C2805 C 0.96013 0.30615 0.37181 0.0
H2806 H 0.91067 0.31292 0.37903 0.0
C2807 C 0.9577 0.29075 0.39423 0.0
H2808 H 0.94542 0.32543 0.35349 0.0
C2809 C 0.93706 0.28301 0.41158 0.0
C2810 C 0.91708 0.28832 0.40186 0.0
H2811 H 0.96852 0.28579 0.39709 0.0
H2812 H 0.9345 0.27237 0.42394 0.0
C2813 C 0.92197 0.30888 0.38316 0.0
C2814 C 0.03759 0.40907 0.29431 0.0
C2815 C 0.02061 0.39132 0.30118 0.0
H2816 H 0.05309 0.44193 0.29277 0.0
C2817 C 0.00508 0.3933 0.31033 0.0
H2818 H 0.04989 0.40817 0.28728 0.0
C2819 C 0.00692 0.41273 0.31334 0.0
C2820 C 0.02424 0.4305 0.30718 0.0
H2821 H 0.99181 0.37998 0.31586 0.0
H2822 H 0.99508 0.41396 0.32108 0.0
C2823 C 0.03945 0.42845 0.29742 0.0
C2824 C 0.63913 0.59851 0.30761 0.0
C2825 C 0.63541 0.61729 0.29411 0.0
H2826 H 0.62713 0.56025 0.30676 0.0
C2827 C 0.61999 0.61067 0.26964 0.0
H2828 H 0.64925 0.60325 0.32162 0.0
C2829 C 0.60659 0.58451 0.25847 0.0
C2830 C 0.60652 0.56513 0.27628 0.0
H2831 H 0.61909 0.62258 0.26134 0.0
H2832 H 0.59624 0.5801 0.24468 0.0
C2833 C 0.62635 0.5719 0.2978 0.0
C2834 C 0.38055 0.96613 0.31806 0.0
C2835 C 0.37769 0.98093 0.32928 0.0
H2836 H 0.40114 0.95987 0.30151 0.0
C2837 C 0.3937 0.0015 0.33137 0.0
H2838 H 0.36856 0.95013 0.31627 0.0
C2839 C 0.41228 0.00705 0.32284 0.0
C2840 C 0.41525 0.99222 0.31189 0.0
H2841 H 0.39203 0.01327 0.33998 0.0
H2842 H 0.42449 0.02292 0.32512 0.0
C2843 C 0.39918 0.97169 0.30957 0.0
C2844 C 0.6203 0.00192 0.28403 0.0
C2845 C 0.62227 0.01278 0.30351 0.0
H2846 H 0.61767 0.00136 0.24988 0.0
C2847 C 0.62195 0.03133 0.30321 0.0
H2848 H 0.62053 0.9876 0.28369 0.0
C2849 C 0.62035 0.03918 0.28386 0.0
C2850 C 0.61876 0.0285 0.26438 0.0
H2851 H 0.62353 0.04014 0.31791 0.0
H2852 H 0.62087 0.05387 0.2841 0.0
C2853 C 0.6186 0.00973 0.26468 0.0
C2854 C 0.98856 0.61962 0.31695 0.0
C2855 C 0.00229 0.63278 0.30248 0.0
H2856 H 0.96967 0.58888 0.32595 0.0
C2857 C 0.00707 0.62411 0.28505 0.0
H2858 H 0.98467 0.62586 0.33065 0.0
C2859 C 0.99811 0.6027 0.28201 0.0
C2860 C 0.98428 0.58937 0.29639 0.0
H2861 H 0.01749 0.63385 0.27352 0.0
H2862 H 0.00203 0.5966 0.26827 0.0
C2863 C 0.97984 0.59823 0.31412 0.0
C2864 C 0.38091 0.37062 0.3115 0.0
C2865 C 0.3869 0.37262 0.33321 0.0
H2866 H 0.38886 0.37 0.27913 0.0
C2867 C 0.40613 0.37573 0.33884 0.0
H2868 H 0.36611 0.36798 0.30664 0.0
C2869 C 0.41915 0.37694 0.32308 0.0
C2870 C 0.41324 0.37514 0.30138 0.0
H2871 H 0.41114 0.37718 0.35543 0.0
H2872 H 0.43387 0.37933 0.32785 0.0
C2873 C 0.3939 0.37174 0.29575 0.0
C2874 C 0.35488 0.30875 0.38449 0.0
C2875 C 0.33478 0.30226 0.38917 0.0
H2876 H 0.37742 0.30028 0.38058 0.0
C2877 C 0.3219 0.2816 0.39395 0.0
H2878 H 0.36526 0.32462 0.38095 0.0
C2879 C 0.32885 0.26758 0.39341 0.0
C2880 C 0.34884 0.27403 0.38833 0.0
H2881 H 0.30635 0.27616 0.39761 0.0
H2882 H 0.31855 0.25164 0.39675 0.0
C2883 C 0.36187 0.29484 0.38425 0.0
C2884 C 0.71363 0.05635 0.38051 0.0
C2885 C 0.69304 0.04709 0.37432 0.0
H2886 H 0.74212 0.08435 0.38501 0.0
C2887 C 0.6852 0.05976 0.36885 0.0
H2888 H 0.72013 0.04701 0.3849 0.0
C2889 C 0.69773 0.08124 0.36941 0.0
C2890 C 0.71857 0.09047 0.37466 0.0
H2891 H 0.66932 0.05309 0.36432 0.0
H2892 H 0.69108 0.0905 0.36545 0.0
C2893 C 0.72624 0.07775 0.38057 0.0
C2894 C 0.95245 0.66254 0.37864 0.0
C2895 C 0.94947 0.65465 0.35739 0.0
H2896 H 0.94016 0.65894 0.40951 0.0
C2897 C 0.93132 0.63646 0.35108 0.0
H2898 H 0.96632 0.67644 0.38402 0.0
C2899 C 0.9164 0.62645 0.36568 0.0
C2900 C 0.91927 0.63449 0.38684 0.0
H2901 H 0.92862 0.62989 0.33486 0.0
H2902 H 0.90258 0.61244 0.36041 0.0
C2903 C 0.93751 0.65254 0.39322 0.0
C2904 C 0.39657 0.02321 0.74482 0.0
C2905 C 0.38241 0.00753 0.7212 0.0
H2906 H 0.41594 0.02286 0.77803 0.0
C2907 C 0.37596 0.9809 0.71721 0.0
H2908 H 0.39948 0.03884 0.74703 0.0
C2909 C 0.3848 0.96937 0.73613 0.0
C2910 C 0.40392 0.98791 0.75663 0.0
H2911 H 0.36685 0.9718 0.70325 0.0
H2912 H 0.38258 0.9541 0.73288 0.0
C2913 C 0.40613 0.01313 0.7647 0.0
C2914 C 0.99613 0.3917 0.71326 0.0
C2915 C 0.97973 0.37373 0.72064 0.0
H2916 H 0.00797 0.42338 0.70602 0.0
C2917 C 0.96265 0.37443 0.7271 0.0
H2918 H 0.00948 0.3917 0.70811 0.0
C2919 C 0.96181 0.39249 0.72583 0.0
C2920 C 0.97815 0.41041 0.7184 0.0
H2921 H 0.94967 0.36088 0.73272 0.0
H2922 H 0.94819 0.39232 0.73032 0.0
C2923 C 0.99532 0.40985 0.71214 0.0
C2924 C 0.5868 0.63726 0.69571 0.0
C2925 C 0.6079 0.63327 0.70028 0.0
H2926 H 0.5563 0.63439 0.71349 0.0
C2927 C 0.614 0.62741 0.72614 0.0
H2928 H 0.58405 0.64144 0.68018 0.0
C2929 C 0.59808 0.6237 0.74812 0.0
C2930 C 0.57366 0.62213 0.74068 0.0
H2931 H 0.62717 0.62585 0.72843 0.0
H2932 H 0.60063 0.61855 0.76316 0.0
C2933 C 0.56997 0.6339 0.71663 0.0
C2934 C 0.62859 0.68664 0.63925 0.0
C2935 C 0.651 0.69076 0.62634 0.0
H2936 H 0.60348 0.69908 0.64016 0.0
C2937 C 0.6607 0.70715 0.60415 0.0
H2938 H 0.62269 0.67596 0.65184 0.0
C2939 C 0.64903 0.72125 0.59495 0.0
C2940 C 0.62982 0.72089 0.61274 0.0
H2941 H 0.67352 0.70838 0.59611 0.0
H2942 H 0.65557 0.73226 0.58272 0.0
C2943 C 0.61581 0.70004 0.6313 0.0
C2944 C 0.2859 0.94912 0.6081 0.0
C2945 C 0.30582 0.95798 0.62872 0.0
H2946 H 0.25993 0.91684 0.58662 0.0
C2947 C 0.31443 0.94133 0.63877 0.0
H2948 H 0.28181 0.9598 0.60175 0.0
C2949 C 0.30234 0.91458 0.62954 0.0
C2950 C 0.27851 0.90519 0.61305 0.0
H2951 H 0.327 0.94744 0.65042 0.0
H2952 H 0.3062 0.90409 0.63683 0.0
C2953 C 0.27285 0.92267 0.59779 0.0
C2954 C 0.05961 0.35505 0.66202 0.0
C2955 C 0.05413 0.36872 0.67132 0.0
H2956 H 0.08162 0.35163 0.64507 0.0
C2957 C 0.06649 0.39001 0.66887 0.0
H2958 H 0.05053 0.33857 0.66379 0.0
C2959 C 0.0842 0.3975 0.65773 0.0
C2960 C 0.08997 0.38388 0.64894 0.0
H2961 H 0.0627 0.40093 0.67591 0.0
H2962 H 0.09373 0.41401 0.6565 0.0
C2963 C 0.07745 0.36255 0.65122 0.0
C2964 C 0.29058 0.35206 0.64113 0.0
C2965 C 0.29384 0.35867 0.66285 0.0
H2966 H 0.28374 0.35735 0.60942 0.0
C2967 C 0.29256 0.37611 0.66917 0.0
H2968 H 0.29154 0.33874 0.63573 0.0
C2969 C 0.28818 0.38676 0.65413 0.0
C2970 C 0.28481 0.38012 0.63245 0.0
H2971 H 0.29511 0.3817 0.68575 0.0
H2972 H 0.28745 0.40023 0.65948 0.0
C2973 C 0.28612 0.3627 0.62608 0.0
C2974 C 0.6525 0.94478 0.6146 0.0
C2975 C 0.65599 0.95458 0.63498 0.0
H2976 H 0.63688 0.91651 0.59557 0.0
C2977 C 0.64718 0.94262 0.65248 0.0
H2978 H 0.65915 0.95373 0.60085 0.0
C2979 C 0.63477 0.92123 0.64962 0.0
C2980 C 0.63008 0.91137 0.62905 0.0
H2981 H 0.64989 0.94985 0.66841 0.0
H2982 H 0.62863 0.91249 0.66359 0.0
C2983 C 0.63956 0.92342 0.61162 0.0
C2984 C 0.06084 0.70739 0.6539 0.0
C2985 C 0.06358 0.71976 0.67246 0.0
H2986 H 0.07466 0.69676 0.63143 0.0
C2987 C 0.08321 0.73237 0.68163 0.0
H2988 H 0.0459 0.69741 0.64651 0.0
C2989 C 0.09961 0.73202 0.67296 0.0
C2990 C 0.09678 0.71916 0.65486 0.0
H2991 H 0.08585 0.74208 0.69593 0.0
H2992 H 0.11446 0.74141 0.68076 0.0
C2993 C 0.07727 0.70699 0.64526 0.0
C2994 C 0.01451 0.64099 0.71373 0.0
C2995 C 0.99447 0.63657 0.71497 0.0
H2996 H 0.03453 0.62896 0.71264 0.0
C2997 C 0.979 0.61598 0.71654 0.0
H2998 H 0.02679 0.65672 0.71271 0.0
C2999 C 0.98343 0.60005 0.71609 0.0
C3000 C 0.00342 0.60446 0.71435 0.0
H3001 H 0.96341 0.61211 0.71748 0.0
H3002 H 0.97119 0.58426 0.71683 0.0
C3003 C 0.01896 0.62512 0.71363 0.0
C3004 C 0.38933 0.39059 0.72896 0.0
C3005 C 0.36887 0.38215 0.7226 0.0
H3006 H 0.41797 0.41807 0.73585 0.0
C3007 C 0.36142 0.39556 0.71916 0.0
H3008 H 0.39551 0.38067 0.73186 0.0
C3009 C 0.3742 0.41695 0.72179 0.0
C3010 C 0.39485 0.42542 0.7273 0.0
H3011 H 0.34564 0.38954 0.71458 0.0
H3012 H 0.36793 0.42683 0.71929 0.0
C3013 C 0.4022 0.412 0.73121 0.0
C3014 C 0.59725 0.00605 0.68578 0.0
C3015 C 0.61346 0.00292 0.69063 0.0
H3016 H 0.56599 0.99584 0.68951 0.0
C3017 C 0.61077 0.98791 0.70505 0.0
H3018 H 0.59881 0.0175 0.67477 0.0
C3019 C 0.59193 0.97552 0.7135 0.0
C3020 C 0.57549 0.97801 0.7078 0.0
H3021 H 0.62295 0.9851 0.70909 0.0
H3022 H 0.58999 0.96346 0.72385 0.0
C3023 C 0.57844 0.99366 0.69421 0.0
loop_
_geom_bond_atom_site_label_1
_geom_bond_atom_site_label_2
_geom_bond_distance
_geom_bond_site_symmetry_2
_ccdc_geom_bond_type
Mg0 O1 2.028 1_556 S
Mg0 O7 1.986 1_455 S
Mg0 O9 2.114 . S
Mg0 O10 2.251 . S
Mg0 O13 2.010 1_556 S
O1 Mg0 2.028 1_554 S
O1 C4 1.250 1_455 S
O2 Mg3 2.028 1_554 S
O2 C4 1.248 . S
Mg3 O2 2.028 1_556 S
Mg3 O8 2.032 . S
Mg3 O10 2.079 1_655 S
C4 O1 1.250 1_655 S
C4 O2 1.248 . S
C5 O6 1.264 . S
C5 O13 1.249 . S
O6 C5 1.264 . S
O7 Mg0 1.986 1_655 S
O7 C11 1.246 . S
O8 Mg3 2.032 . S
O8 C11 1.259 . S
O9 Mg0 2.114 . S
O9 C12 1.252 . S
O10 Mg0 2.251 . S
O10 Mg3 2.079 1_455 S
O10 C12 1.273 . S
C11 O7 1.246 . S
C11 O8 1.259 . S
C12 O9 1.252 . S
C12 O10 1.273 . S
O13 Mg0 2.010 1_554 S
O13 C5 1.249 . S
Mg14 O15 2.028 . S
Mg14 O21 1.986 . S
Mg14 O23 2.114 . S
Mg14 O24 2.251 . S
Mg14 O27 2.010 . S
O15 Mg14 2.028 . S
O15 C18 1.250 1_554 S
O16 Mg17 2.028 . S
O16 C18 1.248 1_554 S
Mg17 O16 2.028 . S
Mg17 O22 2.032 . S
Mg17 O24 2.079 . S
C18 O15 1.250 1_556 S
C18 O16 1.248 1_556 S
C19 O20 1.264 . S
C19 O27 1.249 . S
O20 C19 1.264 . S
O21 Mg14 1.986 . S
O21 C25 1.246 . S
O22 Mg17 2.032 . S
O22 C25 1.259 . S
O23 Mg14 2.114 . S
O23 C26 1.252 . S
O24 Mg14 2.251 . S
O24 Mg17 2.079 . S
O24 C26 1.273 . S
C25 O21 1.246 . S
C25 O22 1.259 . S
C26 O23 1.252 . S
C26 O24 1.273 . S
O27 Mg14 2.010 . S
O27 C19 1.249 . S
Mg28 O29 2.013 1_566 S
Mg28 O35 1.987 1_565 S
Mg28 O37 2.119 . S
Mg28 O38 2.262 1_565 S
Mg28 O41 2.003 1_556 S
O29 Mg28 2.013 1_544 S
O29 C32 1.250 . S
O30 Mg31 2.028 1_554 S
O30 C32 1.248 . S
Mg31 O30 2.028 1_556 S
Mg31 O36 2.032 . S
Mg31 O38 2.079 . S
C32 O29 1.250 . S
C32 O30 1.248 . S
C33 O34 1.264 . S
C33 O41 1.249 . S
O34 C33 1.264 . S
O35 Mg28 1.987 1_545 S
O35 C39 1.246 . S
O36 Mg31 2.032 . S
O36 C39 1.259 . S
O37 Mg28 2.119 . S
O37 C40 1.252 . S
O38 Mg28 2.262 1_545 S
O38 Mg31 2.079 . S
O38 C40 1.273 1_545 S
C39 O35 1.246 . S
C39 O36 1.259 . S
C40 O37 1.252 . S
C40 O38 1.273 1_565 S
O41 Mg28 2.003 1_554 S
O41 C33 1.249 . S
Mg42 O43 2.028 1_654 S
Mg42 O49 1.986 1_655 S
Mg42 O51 2.114 . S
Mg42 O52 2.251 1_655 S
Mg42 O55 2.010 . S
O43 Mg42 2.028 1_456 S
O43 C46 1.250 . S
O44 Mg45 2.028 . S
O44 C46 1.248 1_554 S
Mg45 O44 2.028 . S
Mg45 O50 2.032 . S
Mg45 O52 2.079 . S
C46 O43 1.250 . S
C46 O44 1.248 1_556 S
C47 O48 1.264 . S
C47 O55 1.249 . S
O48 C47 1.264 . S
O49 Mg42 1.986 1_455 S
O49 C53 1.246 . S
O50 Mg45 2.032 . S
O50 C53 1.259 . S
O51 Mg42 2.114 . S
O51 C54 1.252 . S
O52 Mg42 2.251 1_455 S
O52 Mg45 2.079 . S
O52 C54 1.273 1_455 S
C53 O49 1.246 . S
C53 O50 1.259 . S
C54 O51 1.252 . S
C54 O52 1.273 1_655 S
O55 Mg42 2.010 . S
O55 C47 1.249 . S
Mg56 O57 2.028 1_556 S
Mg56 O63 1.986 . S
Mg56 O65 2.114 . S
Mg56 O66 2.251 . S
Mg56 O69 2.010 1_556 S
O57 Mg56 2.028 1_554 S
O57 C60 1.250 . S
O58 Mg59 2.028 1_554 S
O58 C60 1.248 . S
Mg59 O58 2.028 1_556 S
Mg59 O64 2.032 . S
Mg59 O66 2.079 . S
C60 O57 1.250 . S
C60 O58 1.248 . S
C61 O62 1.264 . S
C61 O69 1.249 . S
O62 C61 1.264 . S
O63 Mg56 1.986 . S
O63 C67 1.246 . S
O64 Mg59 2.032 . S
O64 C67 1.259 . S
O65 Mg56 2.114 . S
O65 C68 1.252 . S
O66 Mg56 2.251 . S
O66 Mg59 2.079 . S
O66 C68 1.273 . S
C67 O63 1.246 . S
C67 O64 1.259 . S
C68 O65 1.252 . S
C68 O66 1.273 . S
O69 Mg56 2.010 1_554 S
O69 C61 1.249 . S
Mg70 O71 2.028 1_554 S
Mg70 O77 1.986 1_545 S
Mg70 O79 2.114 . S
Mg70 O80 2.250 . S
Mg70 O83 2.010 . S
O71 Mg70 2.028 1_556 S
O71 C74 1.250 1_545 S
O72 Mg73 2.028 . S
O72 C74 1.248 1_554 S
Mg73 O72 2.028 . S
Mg73 O78 2.032 . S
Mg73 O80 2.070 1_565 S
C74 O71 1.250 1_565 S
C74 O72 1.248 1_556 S
C75 O76 1.264 . S
C75 O83 1.249 . S
O76 C75 1.264 . S
O77 Mg70 1.986 1_565 S
O77 C81 1.246 . S
O78 Mg73 2.032 . S
O78 C81 1.259 . S
O79 Mg70 2.114 . S
O79 C82 1.252 . S
O80 Mg70 2.250 . S
O80 Mg73 2.070 1_545 S
O80 C82 1.285 . S
C81 O77 1.246 . S
C81 O78 1.259 . S
C82 O79 1.252 . S
C82 O80 1.285 . S
O83 Mg70 2.010 . S
O83 C75 1.249 . S
Mg84 O85 2.028 . S
Mg84 O91 1.986 . S
Mg84 O93 2.114 . S
Mg84 O94 2.251 . S
Mg84 O97 2.010 . S
O85 Mg84 2.028 . S
O85 C88 1.250 . S
O86 Mg87 2.028 . S
O86 C88 1.248 . S
Mg87 O86 2.028 . S
Mg87 O92 2.032 . S
Mg87 O94 2.079 . S
C88 O85 1.250 . S
C88 O86 1.248 . S
C89 O90 1.264 . S
C89 O97 1.249 . S
O90 C89 1.264 . S
O91 Mg84 1.986 . S
O91 C95 1.246 . S
O92 Mg87 2.032 . S
O92 C95 1.259 . S
O93 Mg84 2.114 . S
O93 C96 1.252 . S
O94 Mg84 2.251 . S
O94 Mg87 2.079 . S
O94 C96 1.273 . S
C95 O91 1.246 . S
C95 O92 1.259 . S
C96 O93 1.252 . S
C96 O94 1.273 . S
O97 Mg84 2.010 . S
O97 C89 1.249 . S
Mg98 O99 2.028 . S
Mg98 O105 1.986 1_565 S
Mg98 O107 2.114 . S
Mg98 O108 2.251 . S
Mg98 O111 2.010 . S
O99 Mg98 2.028 . S
O99 C102 1.250 . S
O100 Mg101 2.028 . S
O100 C102 1.248 . S
Mg101 O100 2.028 . S
Mg101 O106 2.032 1_565 S
Mg101 O108 2.079 . S
C102 O99 1.250 . S
C102 O100 1.248 . S
C103 O104 1.264 . S
C103 O111 1.249 . S
O104 C103 1.264 . S
O105 Mg98 1.986 1_545 S
O105 C109 1.246 . S
O106 Mg101 2.032 1_545 S
O106 C109 1.259 . S
O107 Mg98 2.114 . S
O107 C110 1.252 . S
O108 Mg98 2.251 . S
O108 Mg101 2.079 . S
O108 C110 1.273 . S
C109 O105 1.246 . S
C109 O106 1.259 . S
C110 O107 1.252 . S
C110 O108 1.273 . S
O111 Mg98 2.010 . S
O111 C103 1.249 . S
Mg112 O113 2.028 . S
Mg112 O119 1.986 . S
Mg112 O121 2.114 . S
Mg112 O122 2.251 . S
Mg112 O125 2.010 1_455 S
O113 Mg112 2.028 . S
O113 C116 1.250 . S
O114 Mg115 2.028 . S
O114 C116 1.248 . S
Mg115 O114 2.028 . S
Mg115 O120 2.032 . S
Mg115 O122 2.079 . S
C116 O113 1.250 . S
C116 O114 1.248 . S
C117 O118 1.264 . S
C117 O125 1.249 . S
O118 C117 1.264 . S
O119 Mg112 1.986 . S
O119 C123 1.246 . S
O120 Mg115 2.032 . S
O120 C123 1.259 . S
O121 Mg112 2.114 . S
O121 C124 1.252 . S
O122 Mg112 2.251 . S
O122 Mg115 2.079 . S
O122 C124 1.273 . S
C123 O119 1.246 . S
C123 O120 1.259 . S
C124 O121 1.252 . S
C124 O122 1.273 . S
O125 Mg112 2.010 1_655 S
O125 C117 1.249 . S
Mg126 O127 2.028 . S
Mg126 O133 1.986 1_565 S
Mg126 O135 2.114 . S
Mg126 O136 2.251 . S
Mg126 O139 2.010 . S
O127 Mg126 2.028 . S
O127 C130 1.250 . S
O128 Mg129 2.028 . S
O128 C130 1.248 . S
Mg129 O128 2.028 . S
Mg129 O134 2.032 1_565 S
Mg129 O136 2.079 . S
C130 O127 1.250 . S
C130 O128 1.248 . S
C131 O132 1.264 . S
C131 O139 1.249 . S
O132 C131 1.264 . S
O133 Mg126 1.986 1_545 S
O133 C137 1.246 . S
O134 Mg129 2.032 1_545 S
O134 C137 1.259 . S
O135 Mg126 2.114 . S
O135 C138 1.252 . S
O136 Mg126 2.251 . S
O136 Mg129 2.079 . S
O136 C138 1.273 . S
C137 O133 1.246 . S
C137 O134 1.259 . S
C138 O135 1.252 . S
C138 O136 1.273 . S
O139 Mg126 2.010 . S
O139 C131 1.249 . S
Mg140 O141 2.028 . S
Mg140 O147 1.986 . S
Mg140 O149 2.114 . S
Mg140 O150 2.251 . S
Mg140 O153 2.010 1_455 S
O141 Mg140 2.028 . S
O141 C144 1.250 . S
O142 Mg143 2.028 . S
O142 C144 1.248 . S
Mg143 O142 2.028 . S
Mg143 O148 2.032 . S
Mg143 O150 2.079 . S
C144 O141 1.250 . S
C144 O142 1.248 . S
C145 O146 1.264 . S
C145 O153 1.249 . S
O146 C145 1.264 . S
O147 Mg140 1.986 . S
O147 C151 1.246 . S
O148 Mg143 2.032 . S
O148 C151 1.259 . S
O149 Mg140 2.114 . S
O149 C152 1.252 . S
O150 Mg140 2.251 . S
O150 Mg143 2.079 . S
O150 C152 1.273 . S
C151 O147 1.246 . S
C151 O148 1.259 . S
C152 O149 1.252 . S
C152 O150 1.273 . S
O153 Mg140 2.010 1_655 S
O153 C145 1.249 . S
Mg154 O155 2.028 . S
Mg154 O161 1.986 . S
Mg154 O163 2.114 . S
Mg154 O164 2.251 . S
Mg154 O167 2.010 . S
O155 Mg154 2.028 . S
O155 C158 1.250 . S
O156 Mg157 2.028 . S
O156 C158 1.248 . S
Mg157 O156 2.028 . S
Mg157 O162 2.032 . S
Mg157 O164 2.079 . S
C158 O155 1.250 . S
C158 O156 1.248 . S
C159 O160 1.264 . S
C159 O167 1.249 . S
O160 C159 1.264 . S
O161 Mg154 1.986 . S
O161 C165 1.246 . S
O162 Mg157 2.032 . S
O162 C165 1.259 . S
O163 Mg154 2.114 . S
O163 C166 1.252 . S
O164 Mg154 2.251 . S
O164 Mg157 2.079 . S
O164 C166 1.273 . S
C165 O161 1.246 . S
C165 O162 1.259 . S
C166 O163 1.252 . S
C166 O164 1.273 . S
O167 Mg154 2.010 . S
O167 C159 1.249 . S
Mg168 O169 2.028 . S
Mg168 O175 1.986 1_545 S
Mg168 O177 2.114 . S
Mg168 O178 2.251 . S
Mg168 O181 2.010 . S
O169 Mg168 2.028 . S
O169 C172 1.250 . S
O170 Mg171 2.028 . S
O170 C172 1.248 . S
Mg171 O170 2.028 . S
Mg171 O176 2.032 1_545 S
Mg171 O178 2.079 . S
C172 O169 1.250 . S
C172 O170 1.248 . S
C173 O174 1.264 . S
C173 O181 1.249 . S
O174 C173 1.264 . S
O175 Mg168 1.986 1_565 S
O175 C179 1.246 . S
O176 Mg171 2.032 1_565 S
O176 C179 1.259 . S
O177 Mg168 2.114 . S
O177 C180 1.252 . S
O178 Mg168 2.251 . S
O178 Mg171 2.079 . S
O178 C180 1.273 . S
C179 O175 1.246 . S
C179 O176 1.259 . S
C180 O177 1.252 . S
C180 O178 1.273 . S
O181 Mg168 2.010 . S
O181 C173 1.249 . S
Mg182 O183 2.028 . S
Mg182 O189 1.986 . S
Mg182 O191 2.114 . S
Mg182 O192 2.251 . S
Mg182 O195 2.010 1_655 S
O183 Mg182 2.028 . S
O183 C186 1.250 . S
O184 Mg185 2.028 . S
O184 C186 1.248 . S
Mg185 O184 2.028 . S
Mg185 O190 2.032 . S
Mg185 O192 2.079 . S
C186 O183 1.250 . S
C186 O184 1.248 . S
C187 O188 1.264 . S
C187 O195 1.249 . S
O188 C187 1.264 . S
O189 Mg182 1.986 . S
O189 C193 1.246 . S
O190 Mg185 2.032 . S
O190 C193 1.259 . S
O191 Mg182 2.114 . S
O191 C194 1.252 . S
O192 Mg182 2.251 . S
O192 Mg185 2.079 . S
O192 C194 1.273 . S
C193 O189 1.246 . S
C193 O190 1.259 . S
C194 O191 1.252 . S
C194 O192 1.273 . S
O195 Mg182 2.010 1_455 S
O195 C187 1.249 . S
Mg196 O197 2.028 . S
Mg196 O203 1.986 . S
Mg196 O205 2.114 . S
Mg196 O206 2.251 . S
Mg196 O209 2.010 . S
O197 Mg196 2.028 . S
O197 C200 1.250 . S
O198 Mg199 2.028 . S
O198 C200 1.248 . S
Mg199 O198 2.028 . S
Mg199 O204 2.032 . S
Mg199 O206 2.079 . S
C200 O197 1.250 . S
C200 O198 1.248 . S
C201 O202 1.264 . S
C201 O209 1.249 . S
O202 C201 1.264 . S
O203 Mg196 1.986 . S
O203 C207 1.246 . S
O204 Mg199 2.032 . S
O204 C207 1.259 . S
O205 Mg196 2.114 . S
O205 C208 1.252 . S
O206 Mg196 2.251 . S
O206 Mg199 2.079 . S
O206 C208 1.273 . S
C207 O203 1.246 . S
C207 O204 1.259 . S
C208 O205 1.252 . S
C208 O206 1.273 . S
O209 Mg196 2.010 . S
O209 C201 1.249 . S
Mg210 O211 2.028 . S
Mg210 O217 1.986 . S
Mg210 O219 2.114 . S
Mg210 O220 2.251 . S
Mg210 O223 2.010 . S
O211 Mg210 2.028 . S
O211 C214 1.250 . S
O212 Mg213 2.028 . S
O212 C214 1.248 . S
Mg213 O212 2.028 . S
Mg213 O218 2.032 . S
Mg213 O220 2.079 . S
C214 O211 1.250 . S
C214 O212 1.248 . S
C215 O216 1.264 . S
C215 O223 1.249 . S
O216 C215 1.264 . S
O217 Mg210 1.986 . S
O217 C221 1.246 . S
O218 Mg213 2.032 . S
O218 C221 1.259 . S
O219 Mg210 2.114 . S
O219 C222 1.252 . S
O220 Mg210 2.251 . S
O220 Mg213 2.079 . S
O220 C222 1.273 . S
C221 O217 1.246 . S
C221 O218 1.259 . S
C222 O219 1.252 . S
C222 O220 1.273 . S
O223 Mg210 2.010 . S
O223 C215 1.249 . S
Mg224 O225 2.028 . S
Mg224 O231 1.986 1_545 S
Mg224 O233 2.114 . S
Mg224 O234 2.251 . S
Mg224 O237 2.010 . S
O225 Mg224 2.028 . S
O225 C228 1.250 . S
O226 Mg227 2.028 . S
O226 C228 1.248 . S
Mg227 O226 2.028 . S
Mg227 O232 2.032 1_545 S
Mg227 O234 2.079 . S
C228 O225 1.250 . S
C228 O226 1.248 . S
C229 O230 1.264 . S
C229 O237 1.249 . S
O230 C229 1.264 . S
O231 Mg224 1.986 1_565 S
O231 C235 1.246 . S
O232 Mg227 2.032 1_565 S
O232 C235 1.259 . S
O233 Mg224 2.114 . S
O233 C236 1.252 . S
O234 Mg224 2.251 . S
O234 Mg227 2.079 . S
O234 C236 1.273 . S
C235 O231 1.246 . S
C235 O232 1.259 . S
C236 O233 1.252 . S
C236 O234 1.273 . S
O237 Mg224 2.010 . S
O237 C229 1.249 . S
Mg238 O239 2.028 . S
Mg238 O245 1.986 . S
Mg238 O247 2.114 . S
Mg238 O248 2.251 . S
Mg238 O251 2.010 1_655 S
O239 Mg238 2.028 . S
O239 C242 1.250 . S
O240 Mg241 2.028 . S
O240 C242 1.248 . S
Mg241 O240 2.028 . S
Mg241 O246 2.032 . S
Mg241 O248 2.079 . S
C242 O239 1.250 . S
C242 O240 1.248 . S
C243 O244 1.264 . S
C243 O251 1.249 . S
O244 C243 1.264 . S
O245 Mg238 1.986 . S
O245 C249 1.246 . S
O246 Mg241 2.032 . S
O246 C249 1.259 . S
O247 Mg238 2.114 . S
O247 C250 1.252 . S
O248 Mg238 2.251 . S
O248 Mg241 2.079 . S
O248 C250 1.273 . S
C249 O245 1.246 . S
C249 O246 1.259 . S
C250 O247 1.252 . S
C250 O248 1.273 . S
O251 Mg238 2.010 1_455 S
O251 C243 1.249 . S
C252 C253 1.560 . S
C252 H313 0.959 . S
C252 H314 0.959 . S
C252 H315 0.960 . S
C253 C252 1.560 . S
C253 O308 1.426 . S
C253 H312 0.980 . S
C254 C255 1.407 . S
C254 C259 1.418 . S
C254 O308 1.334 . S
C255 C254 1.407 . S
C255 C256 1.360 . S
C255 H316 0.929 . S
C256 C255 1.360 . S
C256 C257 1.401 . S
C256 C260 1.527 . S
C257 C256 1.401 . S
C257 C258 1.405 . S
C257 C290 1.587 . S
C258 C257 1.405 . S
C258 C259 1.332 . S
C258 C261 1.496 . S
C259 C254 1.418 . S
C259 C258 1.332 . S
C259 H317 0.929 . S
C260 C256 1.527 . S
C260 H318 0.959 . S
C260 H319 0.961 . S
C260 H320 0.961 . S
C261 C258 1.496 . S
C261 H321 0.960 . S
C261 H322 0.960 . S
C261 H323 0.961 . S
C262 C263 1.517 . S
C262 H325 0.961 . S
C262 H326 0.960 . S
C262 H327 0.959 . S
C263 C262 1.517 . S
C263 O311 1.468 . S
C263 H324 0.980 . S
C264 C265 1.349 . S
C264 C269 1.367 . S
C264 O311 1.408 . S
C265 C264 1.349 . S
C265 C266 1.407 . S
C265 H328 0.930 . S
C266 C265 1.407 . S
C266 C267 1.449 . S
C266 C270 1.535 . S
C267 C266 1.449 . S
C267 C268 1.384 . S
C267 C292 1.553 . S
C268 C267 1.384 . S
C268 C269 1.364 . S
C268 C271 1.450 . S
C269 C264 1.367 . S
C269 C268 1.364 . S
C269 H329 0.931 . S
C270 C266 1.535 . S
C270 H330 0.959 . S
C270 H331 0.961 . S
C270 H332 0.959 . S
C271 C268 1.450 . S
C271 H333 0.960 . S
C271 H334 0.960 . S
C271 H335 0.960 . S
C272 C273 1.309 . S
C272 C277 1.304 . S
C272 O310 1.435 . S
C273 C272 1.309 . S
C273 C274 1.476 . S
C273 H337 0.930 . S
C274 C273 1.476 . S
C274 C275 1.400 . S
C274 C278 1.567 . S
C275 C274 1.400 . S
C275 C276 1.373 . S
C275 C297 1.432 . S
C276 C275 1.373 . S
C276 C277 1.339 . S
C276 C279 1.530 . S
C277 C272 1.304 . S
C277 C276 1.339 . S
C277 H338 0.930 . S
C278 C274 1.567 . S
C278 H339 0.961 . S
C278 H340 0.960 . S
C278 H341 0.958 . S
C279 C276 1.530 . S
C279 H342 0.961 . S
C279 H343 0.960 . S
C279 H344 0.960 . S
C280 C281 1.530 . S
C280 H346 0.961 . S
C280 H347 0.961 . S
C280 H348 0.959 . S
C281 C280 1.530 . S
C281 O309 1.412 . S
C281 H345 0.980 . S
C282 C283 1.288 . S
C282 C287 1.377 . S
C282 O309 1.393 . S
C283 C282 1.288 . S
C283 C284 1.369 . S
C283 H349 0.932 . S
C284 C283 1.369 . S
C284 C285 1.398 . S
C284 C288 1.527 . S
C285 C284 1.398 . S
C285 C286 1.380 . S
C285 C299 1.497 . S
C286 C285 1.380 . S
C286 C287 1.383 . S
C286 C289 1.603 . S
C287 C282 1.377 . S
C287 C286 1.383 . S
C287 H350 0.929 . S
C288 C284 1.527 . S
C288 H351 0.961 . S
C288 H352 0.959 . S
C288 H353 0.959 . S
C289 C286 1.603 . S
C289 H354 0.960 . S
C289 H355 0.962 . S
C289 H356 0.961 . S
C290 C257 1.587 . S
C290 C291 1.360 . S
C290 C303 1.412 . S
C291 C290 1.360 . S
C291 C292 1.365 . S
C291 H357 0.929 . S
C292 C267 1.553 . S
C292 C291 1.365 . S
C292 C293 1.404 . S
C293 C292 1.404 . S
C293 C294 1.395 . S
C293 C304 1.451 . S
C294 C293 1.395 . S
C294 C295 1.322 . S
C294 H358 0.930 . S
C295 C294 1.322 . S
C295 C296 1.459 . S
C295 H359 0.929 . S
C296 C295 1.459 . S
C296 C297 1.445 . S
C296 C305 1.395 . S
C297 C275 1.432 . S
C297 C296 1.445 . S
C297 C298 1.370 . S
C298 C297 1.370 . S
C298 C299 1.438 . S
C298 H360 0.930 . S
C299 C285 1.497 . S
C299 C298 1.438 . S
C299 C300 1.360 . S
C300 C299 1.360 . S
C300 C301 1.401 . S
C300 C305 1.446 . S
C301 C300 1.401 . S
C301 C302 1.347 . S
C301 H361 0.929 . S
C302 C301 1.347 . S
C302 C303 1.455 . S
C302 H362 0.930 . S
C303 C290 1.412 . S
C303 C302 1.455 . S
C303 C304 1.331 . S
C304 C293 1.451 . S
C304 C303 1.331 . S
C304 C305 1.497 . S
C305 C296 1.395 . S
C305 C300 1.446 . S
C305 C304 1.497 . S
C306 C307 1.582 . S
C306 H363 0.962 . S
C306 H364 0.959 . S
C306 H365 0.958 . S
C307 C306 1.582 . S
C307 O310 1.458 . S
C307 H336 0.980 . S
O308 C253 1.426 . S
O308 C254 1.334 . S
O309 C281 1.412 . S
O309 C282 1.393 . S
O310 C272 1.435 . S
O310 C307 1.458 . S
O311 C263 1.468 . S
O311 C264 1.408 . S
H312 C253 0.980 . S
H313 C252 0.959 . S
H314 C252 0.959 . S
H315 C252 0.960 . S
H316 C255 0.929 . S
H317 C259 0.929 . S
H318 C260 0.959 . S
H319 C260 0.961 . S
H320 C260 0.961 . S
H321 C261 0.960 . S
H322 C261 0.960 . S
H323 C261 0.961 . S
H324 C263 0.980 . S
H325 C262 0.961 . S
H326 C262 0.960 . S
H327 C262 0.959 . S
H328 C265 0.930 . S
H329 C269 0.931 . S
H330 C270 0.959 . S
H331 C270 0.961 . S
H332 C270 0.959 . S
H333 C271 0.960 . S
H334 C271 0.960 . S
H335 C271 0.960 . S
H336 C307 0.980 . S
H337 C273 0.930 . S
H338 C277 0.930 . S
H339 C278 0.961 . S
H340 C278 0.960 . S
H341 C278 0.958 . S
H342 C279 0.961 . S
H343 C279 0.960 . S
H344 C279 0.960 . S
H345 C281 0.980 . S
H346 C280 0.961 . S
H347 C280 0.961 . S
H348 C280 0.959 . S
H349 C283 0.932 . S
H350 C287 0.929 . S
H351 C288 0.961 . S
H352 C288 0.959 . S
H353 C288 0.959 . S
H354 C289 0.960 . S
H355 C289 0.962 . S
H356 C289 0.961 . S
H357 C291 0.929 . S
H358 C294 0.930 . S
H359 C295 0.929 . S
H360 C298 0.930 . S
H361 C301 0.929 . S
H362 C302 0.930 . S
H363 C306 0.962 . S
H364 C306 0.959 . S
H365 C306 0.958 . S
C366 C367 1.560 . S
C366 H427 0.959 . S
C366 H428 0.959 . S
C366 H429 0.960 . S
C367 C366 1.560 . S
C367 O422 1.426 . S
C367 H426 0.980 . S
C368 C369 1.407 . S
C368 C373 1.418 . S
C368 O422 1.334 . S
C369 C368 1.407 . S
C369 C370 1.360 . S
C369 H430 0.929 . S
C370 C369 1.360 . S
C370 C371 1.401 . S
C370 C374 1.527 . S
C371 C370 1.401 . S
C371 C372 1.405 . S
C371 C404 1.587 . S
C372 C371 1.405 . S
C372 C373 1.332 . S
C372 C375 1.496 . S
C373 C368 1.418 . S
C373 C372 1.332 . S
C373 H431 0.929 . S
C374 C370 1.527 . S
C374 H432 0.959 . S
C374 H433 0.961 . S
C374 H434 0.961 . S
C375 C372 1.496 . S
C375 H435 0.960 . S
C375 H436 0.960 . S
C375 H437 0.961 . S
C376 C377 1.517 . S
C376 H439 0.961 . S
C376 H440 0.960 . S
C376 H441 0.959 . S
C377 C376 1.517 . S
C377 O425 1.468 . S
C377 H438 0.980 . S
C378 C379 1.349 . S
C378 C383 1.367 . S
C378 O425 1.408 . S
C379 C378 1.349 . S
C379 C380 1.407 . S
C379 H442 0.930 . S
C380 C379 1.407 . S
C380 C381 1.449 . S
C380 C384 1.535 . S
C381 C380 1.449 . S
C381 C382 1.384 . S
C381 C406 1.553 . S
C382 C381 1.384 . S
C382 C383 1.364 . S
C382 C385 1.450 . S
C383 C378 1.367 . S
C383 C382 1.364 . S
C383 H443 0.931 . S
C384 C380 1.535 . S
C384 H444 0.959 . S
C384 H445 0.961 . S
C384 H446 0.959 . S
C385 C382 1.450 . S
C385 H447 0.960 . S
C385 H448 0.960 . S
C385 H449 0.960 . S
C386 C387 1.309 . S
C386 C391 1.304 . S
C386 O424 1.435 . S
C387 C386 1.309 . S
C387 C388 1.476 . S
C387 H451 0.930 . S
C388 C387 1.476 . S
C388 C389 1.400 . S
C388 C392 1.567 . S
C389 C388 1.400 . S
C389 C390 1.373 . S
C389 C411 1.432 . S
C390 C389 1.373 . S
C390 C391 1.339 . S
C390 C393 1.530 . S
C391 C386 1.304 . S
C391 C390 1.339 . S
C391 H452 0.930 . S
C392 C388 1.567 . S
C392 H453 0.961 . S
C392 H454 0.960 . S
C392 H455 0.958 . S
C393 C390 1.530 . S
C393 H456 0.961 . S
C393 H457 0.960 . S
C393 H458 0.960 . S
C394 C395 1.530 . S
C394 H460 0.961 . S
C394 H461 0.961 . S
C394 H462 0.959 . S
C395 C394 1.530 . S
C395 O423 1.412 . S
C395 H459 0.980 . S
C396 C397 1.288 . S
C396 C401 1.377 . S
C396 O423 1.393 . S
C397 C396 1.288 . S
C397 C398 1.369 . S
C397 H463 0.932 . S
C398 C397 1.369 . S
C398 C399 1.398 . S
C398 C402 1.527 . S
C399 C398 1.398 . S
C399 C400 1.380 . S
C399 C413 1.497 . S
C400 C399 1.380 . S
C400 C401 1.383 . S
C400 C403 1.603 . S
C401 C396 1.377 . S
C401 C400 1.383 . S
C401 H464 0.929 . S
C402 C398 1.527 . S
C402 H465 0.961 . S
C402 H466 0.959 . S
C402 H467 0.959 . S
C403 C400 1.603 . S
C403 H468 0.960 . S
C403 H469 0.962 . S
C403 H470 0.961 . S
C404 C371 1.587 . S
C404 C405 1.360 . S
C404 C417 1.412 . S
C405 C404 1.360 . S
C405 C406 1.365 . S
C405 H471 0.929 . S
C406 C381 1.553 . S
C406 C405 1.365 . S
C406 C407 1.404 . S
C407 C406 1.404 . S
C407 C408 1.395 . S
C407 C418 1.451 . S
C408 C407 1.395 . S
C408 C409 1.322 . S
C408 H472 0.930 . S
C409 C408 1.322 . S
C409 C410 1.459 . S
C409 H473 0.929 . S
C410 C409 1.459 . S
C410 C411 1.445 . S
C410 C419 1.395 . S
C411 C389 1.432 . S
C411 C410 1.445 . S
C411 C412 1.370 . S
C412 C411 1.370 . S
C412 C413 1.438 . S
C412 H474 0.930 . S
C413 C399 1.497 . S
C413 C412 1.438 . S
C413 C414 1.360 . S
C414 C413 1.360 . S
C414 C415 1.401 . S
C414 C419 1.446 . S
C415 C414 1.401 . S
C415 C416 1.347 . S
C415 H475 0.929 . S
C416 C415 1.347 . S
C416 C417 1.455 . S
C416 H476 0.930 . S
C417 C404 1.412 . S
C417 C416 1.455 . S
C417 C418 1.331 . S
C418 C407 1.451 . S
C418 C417 1.331 . S
C418 C419 1.497 . S
C419 C410 1.395 . S
C419 C414 1.446 . S
C419 C418 1.497 . S
C420 C421 1.582 . S
C420 H477 0.962 . S
C420 H478 0.959 . S
C420 H479 0.958 . S
C421 C420 1.582 . S
C421 O424 1.458 . S
C421 H450 0.980 . S
O422 C367 1.426 . S
O422 C368 1.334 . S
O423 C395 1.412 . S
O423 C396 1.393 . S
O424 C386 1.435 . S
O424 C421 1.458 . S
O425 C377 1.468 . S
O425 C378 1.408 . S
H426 C367 0.980 . S
H427 C366 0.959 . S
H428 C366 0.959 . S
H429 C366 0.960 . S
H430 C369 0.929 . S
H431 C373 0.929 . S
H432 C374 0.959 . S
H433 C374 0.961 . S
H434 C374 0.961 . S
H435 C375 0.960 . S
H436 C375 0.960 . S
H437 C375 0.961 . S
H438 C377 0.980 . S
H439 C376 0.961 . S
H440 C376 0.960 . S
H441 C376 0.959 . S
H442 C379 0.930 . S
H443 C383 0.931 . S
H444 C384 0.959 . S
H445 C384 0.961 . S
H446 C384 0.959 . S
H447 C385 0.960 . S
H448 C385 0.960 . S
H449 C385 0.960 . S
H450 C421 0.980 . S
H451 C387 0.930 . S
H452 C391 0.930 . S
H453 C392 0.961 . S
H454 C392 0.960 . S
H455 C392 0.958 . S
H456 C393 0.961 . S
H457 C393 0.960 . S
H458 C393 0.960 . S
H459 C395 0.980 . S
H460 C394 0.961 . S
H461 C394 0.961 . S
H462 C394 0.959 . S
H463 C397 0.932 . S
H464 C401 0.929 . S
H465 C402 0.961 . S
H466 C402 0.959 . S
H467 C402 0.959 . S
H468 C403 0.960 . S
H469 C403 0.962 . S
H470 C403 0.961 . S
H471 C405 0.929 . S
H472 C408 0.930 . S
H473 C409 0.929 . S
H474 C412 0.930 . S
H475 C415 0.929 . S
H476 C416 0.930 . S
H477 C420 0.962 . S
H478 C420 0.959 . S
H479 C420 0.958 . S
C480 C481 1.560 . S
C480 H541 0.959 . S
C480 H542 0.959 . S
C480 H543 0.960 . S
C481 C480 1.560 . S
C481 O536 1.426 . S
C481 H540 0.980 . S
C482 C483 1.407 . S
C482 C487 1.418 . S
C482 O536 1.334 . S
C483 C482 1.407 . S
C483 C484 1.360 . S
C483 H544 0.929 . S
C484 C483 1.360 . S
C484 C485 1.401 . S
C484 C488 1.527 . S
C485 C484 1.401 . S
C485 C486 1.405 . S
C485 C518 1.587 . S
C486 C485 1.405 . S
C486 C487 1.332 . S
C486 C489 1.496 . S
C487 C482 1.418 . S
C487 C486 1.332 . S
C487 H545 0.929 . S
C488 C484 1.527 . S
C488 H546 0.959 . S
C488 H547 0.961 . S
C488 H548 0.961 . S
C489 C486 1.496 . S
C489 H549 0.960 . S
C489 H550 0.960 . S
C489 H551 0.961 . S
C490 C491 1.517 . S
C490 H553 0.961 . S
C490 H554 0.960 . S
C490 H555 0.959 . S
C491 C490 1.517 . S
C491 O539 1.468 . S
C491 H552 0.980 . S
C492 C493 1.349 . S
C492 C497 1.367 . S
C492 O539 1.408 . S
C493 C492 1.349 . S
C493 C494 1.407 . S
C493 H556 0.930 . S
C494 C493 1.407 . S
C494 C495 1.449 . S
C494 C498 1.535 . S
C495 C494 1.449 . S
C495 C496 1.384 . S
C495 C520 1.553 . S
C496 C495 1.384 . S
C496 C497 1.364 . S
C496 C499 1.450 . S
C497 C492 1.367 . S
C497 C496 1.364 . S
C497 H557 0.931 . S
C498 C494 1.535 . S
C498 H558 0.959 . S
C498 H559 0.961 . S
C498 H560 0.959 . S
C499 C496 1.450 . S
C499 H561 0.960 . S
C499 H562 0.960 . S
C499 H563 0.960 . S
C500 C501 1.309 . S
C500 C505 1.304 . S
C500 O538 1.435 . S
C501 C500 1.309 . S
C501 C502 1.476 . S
C501 H565 0.930 . S
C502 C501 1.476 . S
C502 C503 1.400 . S
C502 C506 1.567 . S
C503 C502 1.400 . S
C503 C504 1.373 . S
C503 C525 1.432 . S
C504 C503 1.373 . S
C504 C505 1.339 . S
C504 C507 1.530 . S
C505 C500 1.304 . S
C505 C504 1.339 . S
C505 H566 0.930 . S
C506 C502 1.567 . S
C506 H567 0.961 . S
C506 H568 0.960 . S
C506 H569 0.958 . S
C507 C504 1.530 . S
C507 H570 0.961 . S
C507 H571 0.960 . S
C507 H572 0.960 . S
C508 C509 1.530 . S
C508 H574 0.961 . S
C508 H575 0.961 . S
C508 H576 0.959 . S
C509 C508 1.530 . S
C509 O537 1.412 . S
C509 H573 0.980 . S
C510 C511 1.288 . S
C510 C515 1.377 . S
C510 O537 1.393 . S
C511 C510 1.288 . S
C511 C512 1.369 . S
C511 H577 0.932 . S
C512 C511 1.369 . S
C512 C513 1.398 . S
C512 C516 1.527 . S
C513 C512 1.398 . S
C513 C514 1.380 . S
C513 C527 1.497 . S
C514 C513 1.380 . S
C514 C515 1.383 . S
C514 C517 1.603 . S
C515 C510 1.377 . S
C515 C514 1.383 . S
C515 H578 0.929 . S
C516 C512 1.527 . S
C516 H579 0.961 . S
C516 H580 0.959 . S
C516 H581 0.959 . S
C517 C514 1.603 . S
C517 H582 0.960 . S
C517 H583 0.962 . S
C517 H584 0.961 . S
C518 C485 1.587 . S
C518 C519 1.360 . S
C518 C531 1.412 . S
C519 C518 1.360 . S
C519 C520 1.365 . S
C519 H585 0.929 . S
C520 C495 1.553 . S
C520 C519 1.365 . S
C520 C521 1.404 . S
C521 C520 1.404 . S
C521 C522 1.395 . S
C521 C532 1.451 . S
C522 C521 1.395 . S
C522 C523 1.322 . S
C522 H586 0.930 . S
C523 C522 1.322 . S
C523 C524 1.459 . S
C523 H587 0.929 . S
C524 C523 1.459 . S
C524 C525 1.445 . S
C524 C533 1.395 . S
C525 C503 1.432 . S
C525 C524 1.445 . S
C525 C526 1.370 . S
C526 C525 1.370 . S
C526 C527 1.438 . S
C526 H588 0.930 . S
C527 C513 1.497 . S
C527 C526 1.438 . S
C527 C528 1.360 . S
C528 C527 1.360 . S
C528 C529 1.401 . S
C528 C533 1.446 . S
C529 C528 1.401 . S
C529 C530 1.347 . S
C529 H589 0.929 . S
C530 C529 1.347 . S
C530 C531 1.455 . S
C530 H590 0.930 . S
C531 C518 1.412 . S
C531 C530 1.455 . S
C531 C532 1.331 . S
C532 C521 1.451 . S
C532 C531 1.331 . S
C532 C533 1.497 . S
C533 C524 1.395 . S
C533 C528 1.446 . S
C533 C532 1.497 . S
C534 C535 1.582 . S
C534 H591 0.962 . S
C534 H592 0.959 . S
C534 H593 0.958 . S
C535 C534 1.582 . S
C535 O538 1.458 . S
C535 H564 0.980 . S
O536 C481 1.426 . S
O536 C482 1.334 . S
O537 C509 1.412 . S
O537 C510 1.393 . S
O538 C500 1.435 . S
O538 C535 1.458 . S
O539 C491 1.468 . S
O539 C492 1.408 . S
H540 C481 0.980 . S
H541 C480 0.959 . S
H542 C480 0.959 . S
H543 C480 0.960 . S
H544 C483 0.929 . S
H545 C487 0.929 . S
H546 C488 0.959 . S
H547 C488 0.961 . S
H548 C488 0.961 . S
H549 C489 0.960 . S
H550 C489 0.960 . S
H551 C489 0.961 . S
H552 C491 0.980 . S
H553 C490 0.961 . S
H554 C490 0.960 . S
H555 C490 0.959 . S
H556 C493 0.930 . S
H557 C497 0.931 . S
H558 C498 0.959 . S
H559 C498 0.961 . S
H560 C498 0.959 . S
H561 C499 0.960 . S
H562 C499 0.960 . S
H563 C499 0.960 . S
H564 C535 0.980 . S
H565 C501 0.930 . S
H566 C505 0.930 . S
H567 C506 0.961 . S
H568 C506 0.960 . S
H569 C506 0.958 . S
H570 C507 0.961 . S
H571 C507 0.960 . S
H572 C507 0.960 . S
H573 C509 0.980 . S
H574 C508 0.961 . S
H575 C508 0.961 . S
H576 C508 0.959 . S
H577 C511 0.932 . S
H578 C515 0.929 . S
H579 C516 0.961 . S
H580 C516 0.959 . S
H581 C516 0.959 . S
H582 C517 0.960 . S
H583 C517 0.962 . S
H584 C517 0.961 . S
H585 C519 0.929 . S
H586 C522 0.930 . S
H587 C523 0.929 . S
H588 C526 0.930 . S
H589 C529 0.929 . S
H590 C530 0.930 . S
H591 C534 0.962 . S
H592 C534 0.959 . S
H593 C534 0.958 . S
C594 C595 1.560 . S
C594 H655 0.959 . S
C594 H656 0.959 . S
C594 H657 0.960 . S
C595 C594 1.560 . S
C595 O650 1.426 . S
C595 H654 0.980 . S
C596 C597 1.407 . S
C596 C601 1.418 . S
C596 O650 1.334 . S
C597 C596 1.407 . S
C597 C598 1.360 . S
C597 H658 0.929 . S
C598 C597 1.360 . S
C598 C599 1.401 . S
C598 C602 1.527 . S
C599 C598 1.401 . S
C599 C600 1.405 . S
C599 C632 1.587 . S
C600 C599 1.405 . S
C600 C601 1.332 . S
C600 C603 1.496 . S
C601 C596 1.418 . S
C601 C600 1.332 . S
C601 H659 0.929 . S
C602 C598 1.527 . S
C602 H660 0.959 . S
C602 H661 0.961 . S
C602 H662 0.961 . S
C603 C600 1.496 . S
C603 H663 0.960 . S
C603 H664 0.960 . S
C603 H665 0.961 . S
C604 C605 1.517 . S
C604 H667 0.961 . S
C604 H668 0.960 . S
C604 H669 0.959 . S
C605 C604 1.517 . S
C605 O653 1.468 . S
C605 H666 0.980 . S
C606 C607 1.349 . S
C606 C611 1.367 . S
C606 O653 1.408 . S
C607 C606 1.349 . S
C607 C608 1.407 . S
C607 H670 0.930 . S
C608 C607 1.407 . S
C608 C609 1.449 . S
C608 C612 1.535 . S
C609 C608 1.449 . S
C609 C610 1.384 . S
C609 C634 1.553 . S
C610 C609 1.384 . S
C610 C611 1.364 . S
C610 C613 1.450 . S
C611 C606 1.367 . S
C611 C610 1.364 . S
C611 H671 0.931 . S
C612 C608 1.535 . S
C612 H672 0.959 . S
C612 H673 0.961 . S
C612 H674 0.959 . S
C613 C610 1.450 . S
C613 H675 0.960 . S
C613 H676 0.960 . S
C613 H677 0.960 . S
C614 C615 1.309 . S
C614 C619 1.304 . S
C614 O652 1.435 . S
C615 C614 1.309 . S
C615 C616 1.476 . S
C615 H679 0.930 . S
C616 C615 1.476 . S
C616 C617 1.400 . S
C616 C620 1.567 . S
C617 C616 1.400 . S
C617 C618 1.373 . S
C617 C639 1.432 . S
C618 C617 1.373 . S
C618 C619 1.339 . S
C618 C621 1.530 . S
C619 C614 1.304 . S
C619 C618 1.339 . S
C619 H680 0.930 . S
C620 C616 1.567 . S
C620 H681 0.961 . S
C620 H682 0.960 . S
C620 H683 0.958 . S
C621 C618 1.530 . S
C621 H684 0.961 . S
C621 H685 0.960 . S
C621 H686 0.960 . S
C622 C623 1.530 . S
C622 H688 0.961 . S
C622 H689 0.961 . S
C622 H690 0.959 . S
C623 C622 1.530 . S
C623 O651 1.412 . S
C623 H687 0.980 . S
C624 C625 1.288 . S
C624 C629 1.377 . S
C624 O651 1.393 . S
C625 C624 1.288 . S
C625 C626 1.369 . S
C625 H691 0.932 . S
C626 C625 1.369 . S
C626 C627 1.398 . S
C626 C630 1.527 . S
C627 C626 1.398 . S
C627 C628 1.380 . S
C627 C641 1.497 . S
C628 C627 1.380 . S
C628 C629 1.383 . S
C628 C631 1.603 . S
C629 C624 1.377 . S
C629 C628 1.383 . S
C629 H692 0.929 . S
C630 C626 1.527 . S
C630 H693 0.961 . S
C630 H694 0.959 . S
C630 H695 0.959 . S
C631 C628 1.603 . S
C631 H696 0.960 . S
C631 H697 0.962 . S
C631 H698 0.961 . S
C632 C599 1.587 . S
C632 C633 1.360 . S
C632 C645 1.412 . S
C633 C632 1.360 . S
C633 C634 1.365 . S
C633 H699 0.929 . S
C634 C609 1.553 . S
C634 C633 1.365 . S
C634 C635 1.404 . S
C635 C634 1.404 . S
C635 C636 1.395 . S
C635 C646 1.451 . S
C636 C635 1.395 . S
C636 C637 1.322 . S
C636 H700 0.930 . S
C637 C636 1.322 . S
C637 C638 1.459 . S
C637 H701 0.929 . S
C638 C637 1.459 . S
C638 C639 1.445 . S
C638 C647 1.395 . S
C639 C617 1.432 . S
C639 C638 1.445 . S
C639 C640 1.370 . S
C640 C639 1.370 . S
C640 C641 1.438 . S
C640 H702 0.930 . S
C641 C627 1.497 . S
C641 C640 1.438 . S
C641 C642 1.360 . S
C642 C641 1.360 . S
C642 C643 1.401 . S
C642 C647 1.446 . S
C643 C642 1.401 . S
C643 C644 1.347 . S
C643 H703 0.929 . S
C644 C643 1.347 . S
C644 C645 1.455 . S
C644 H704 0.930 . S
C645 C632 1.412 . S
C645 C644 1.455 . S
C645 C646 1.331 . S
C646 C635 1.451 . S
C646 C645 1.331 . S
C646 C647 1.497 . S
C647 C638 1.395 . S
C647 C642 1.446 . S
C647 C646 1.497 . S
C648 C649 1.582 . S
C648 H705 0.962 . S
C648 H706 0.959 . S
C648 H707 0.958 . S
C649 C648 1.582 . S
C649 O652 1.458 . S
C649 H678 0.980 . S
O650 C595 1.426 . S
O650 C596 1.334 . S
O651 C623 1.412 . S
O651 C624 1.393 . S
O652 C614 1.435 . S
O652 C649 1.458 . S
O653 C605 1.468 . S
O653 C606 1.408 . S
H654 C595 0.980 . S
H655 C594 0.959 . S
H656 C594 0.959 . S
H657 C594 0.960 . S
H658 C597 0.929 . S
H659 C601 0.929 . S
H660 C602 0.959 . S
H661 C602 0.961 . S
H662 C602 0.961 . S
H663 C603 0.960 . S
H664 C603 0.960 . S
H665 C603 0.961 . S
H666 C605 0.980 . S
H667 C604 0.961 . S
H668 C604 0.960 . S
H669 C604 0.959 . S
H670 C607 0.930 . S
H671 C611 0.931 . S
H672 C612 0.959 . S
H673 C612 0.961 . S
H674 C612 0.959 . S
H675 C613 0.960 . S
H676 C613 0.960 . S
H677 C613 0.960 . S
H678 C649 0.980 . S
H679 C615 0.930 . S
H680 C619 0.930 . S
H681 C620 0.961 . S
H682 C620 0.960 . S
H683 C620 0.958 . S
H684 C621 0.961 . S
H685 C621 0.960 . S
H686 C621 0.960 . S
H687 C623 0.980 . S
H688 C622 0.961 . S
H689 C622 0.961 . S
H690 C622 0.959 . S
H691 C625 0.932 . S
H692 C629 0.929 . S
H693 C630 0.961 . S
H694 C630 0.959 . S
H695 C630 0.959 . S
H696 C631 0.960 . S
H697 C631 0.962 . S
H698 C631 0.961 . S
H699 C633 0.929 . S
H700 C636 0.930 . S
H701 C637 0.929 . S
H702 C640 0.930 . S
H703 C643 0.929 . S
H704 C644 0.930 . S
H705 C648 0.962 . S
H706 C648 0.959 . S
H707 C648 0.958 . S
C708 C709 1.560 . S
C708 H769 0.959 . S
C708 H770 0.959 . S
C708 H771 0.960 . S
C709 C708 1.560 . S
C709 O764 1.426 . S
C709 H768 0.980 . S
C710 C711 1.407 . S
C710 C715 1.418 . S
C710 O764 1.334 . S
C711 C710 1.407 . S
C711 C712 1.360 . S
C711 H772 0.929 . S
C712 C711 1.360 . S
C712 C713 1.401 . S
C712 C716 1.527 . S
C713 C712 1.401 . S
C713 C714 1.405 . S
C713 C746 1.587 . S
C714 C713 1.405 . S
C714 C715 1.332 . S
C714 C717 1.496 . S
C715 C710 1.418 . S
C715 C714 1.332 . S
C715 H773 0.929 . S
C716 C712 1.527 . S
C716 H774 0.959 . S
C716 H775 0.961 . S
C716 H776 0.961 . S
C717 C714 1.496 . S
C717 H777 0.960 . S
C717 H778 0.960 . S
C717 H779 0.961 . S
C718 C719 1.517 . S
C718 H781 0.961 . S
C718 H782 0.960 . S
C718 H783 0.959 . S
C719 C718 1.517 . S
C719 O767 1.468 . S
C719 H780 0.980 . S
C720 C721 1.349 . S
C720 C725 1.367 . S
C720 O767 1.408 . S
C721 C720 1.349 . S
C721 C722 1.407 . S
C721 H784 0.930 . S
C722 C721 1.407 . S
C722 C723 1.449 . S
C722 C726 1.535 . S
C723 C722 1.449 . S
C723 C724 1.384 . S
C723 C748 1.553 . S
C724 C723 1.384 . S
C724 C725 1.364 . S
C724 C727 1.450 . S
C725 C720 1.367 . S
C725 C724 1.364 . S
C725 H785 0.931 . S
C726 C722 1.535 . S
C726 H786 0.959 . S
C726 H787 0.961 . S
C726 H788 0.959 . S
C727 C724 1.450 . S
C727 H789 0.960 . S
C727 H790 0.960 . S
C727 H791 0.960 . S
C728 C729 1.309 . S
C728 C733 1.304 . S
C728 O766 1.435 . S
C729 C728 1.309 . S
C729 C730 1.476 . S
C729 H793 0.930 . S
C730 C729 1.476 . S
C730 C731 1.400 . S
C730 C734 1.567 . S
C731 C730 1.400 . S
C731 C732 1.373 . S
C731 C753 1.432 . S
C732 C731 1.373 . S
C732 C733 1.339 . S
C732 C735 1.530 . S
C733 C728 1.304 . S
C733 C732 1.339 . S
C733 H794 0.930 . S
C734 C730 1.567 . S
C734 H795 0.961 . S
C734 H796 0.960 . S
C734 H797 0.958 . S
C735 C732 1.530 . S
C735 H798 0.961 . S
C735 H799 0.960 . S
C735 H800 0.960 . S
C736 C737 1.530 . S
C736 H802 0.961 . S
C736 H803 0.961 . S
C736 H804 0.959 . S
C737 C736 1.530 . S
C737 O765 1.412 . S
C737 H801 0.980 . S
C738 C739 1.288 . S
C738 C743 1.377 . S
C738 O765 1.393 . S
C739 C738 1.288 . S
C739 C740 1.369 . S
C739 H805 0.932 . S
C740 C739 1.369 . S
C740 C741 1.398 . S
C740 C744 1.527 . S
C741 C740 1.398 . S
C741 C742 1.380 . S
C741 C755 1.497 . S
C742 C741 1.380 . S
C742 C743 1.383 . S
C742 C745 1.603 . S
C743 C738 1.377 . S
C743 C742 1.383 . S
C743 H806 0.929 . S
C744 C740 1.527 . S
C744 H807 0.961 . S
C744 H808 0.959 . S
C744 H809 0.959 . S
C745 C742 1.603 . S
C745 H810 0.960 . S
C745 H811 0.962 . S
C745 H812 0.961 . S
C746 C713 1.587 . S
C746 C747 1.360 . S
C746 C759 1.412 . S
C747 C746 1.360 . S
C747 C748 1.365 . S
C747 H813 0.929 . S
C748 C723 1.553 . S
C748 C747 1.365 . S
C748 C749 1.404 . S
C749 C748 1.404 . S
C749 C750 1.395 . S
C749 C760 1.451 . S
C750 C749 1.395 . S
C750 C751 1.322 . S
C750 H814 0.930 . S
C751 C750 1.322 . S
C751 C752 1.459 . S
C751 H815 0.929 . S
C752 C751 1.459 . S
C752 C753 1.445 . S
C752 C761 1.395 . S
C753 C731 1.432 . S
C753 C752 1.445 . S
C753 C754 1.370 . S
C754 C753 1.370 . S
C754 C755 1.438 . S
C754 H816 0.930 . S
C755 C741 1.497 . S
C755 C754 1.438 . S
C755 C756 1.360 . S
C756 C755 1.360 . S
C756 C757 1.401 . S
C756 C761 1.446 . S
C757 C756 1.401 . S
C757 C758 1.347 . S
C757 H817 0.929 . S
C758 C757 1.347 . S
C758 C759 1.455 . S
C758 H818 0.930 . S
C759 C746 1.412 . S
C759 C758 1.455 . S
C759 C760 1.331 . S
C760 C749 1.451 . S
C760 C759 1.331 . S
C760 C761 1.497 . S
C761 C752 1.395 . S
C761 C756 1.446 . S
C761 C760 1.497 . S
C762 C763 1.582 . S
C762 H819 0.962 . S
C762 H820 0.959 . S
C762 H821 0.958 . S
C763 C762 1.582 . S
C763 O766 1.458 . S
C763 H792 0.980 . S
O764 C709 1.426 . S
O764 C710 1.334 . S
O765 C737 1.412 . S
O765 C738 1.393 . S
O766 C728 1.435 . S
O766 C763 1.458 . S
O767 C719 1.468 . S
O767 C720 1.408 . S
H768 C709 0.980 . S
H769 C708 0.959 . S
H770 C708 0.959 . S
H771 C708 0.960 . S
H772 C711 0.929 . S
H773 C715 0.929 . S
H774 C716 0.959 . S
H775 C716 0.961 . S
H776 C716 0.961 . S
H777 C717 0.960 . S
H778 C717 0.960 . S
H779 C717 0.961 . S
H780 C719 0.980 . S
H781 C718 0.961 . S
H782 C718 0.960 . S
H783 C718 0.959 . S
H784 C721 0.930 . S
H785 C725 0.931 . S
H786 C726 0.959 . S
H787 C726 0.961 . S
H788 C726 0.959 . S
H789 C727 0.960 . S
H790 C727 0.960 . S
H791 C727 0.960 . S
H792 C763 0.980 . S
H793 C729 0.930 . S
H794 C733 0.930 . S
H795 C734 0.961 . S
H796 C734 0.960 . S
H797 C734 0.958 . S
H798 C735 0.961 . S
H799 C735 0.960 . S
H800 C735 0.960 . S
H801 C737 0.980 . S
H802 C736 0.961 . S
H803 C736 0.961 . S
H804 C736 0.959 . S
H805 C739 0.932 . S
H806 C743 0.929 . S
H807 C744 0.961 . S
H808 C744 0.959 . S
H809 C744 0.959 . S
H810 C745 0.960 . S
H811 C745 0.962 . S
H812 C745 0.961 . S
H813 C747 0.929 . S
H814 C750 0.930 . S
H815 C751 0.929 . S
H816 C754 0.930 . S
H817 C757 0.929 . S
H818 C758 0.930 . S
H819 C762 0.962 . S
H820 C762 0.959 . S
H821 C762 0.958 . S
C822 C823 1.560 . S
C822 H883 0.959 . S
C822 H884 0.959 . S
C822 H885 0.960 . S
C823 C822 1.560 . S
C823 O878 1.426 . S
C823 H882 0.980 . S
C824 C825 1.407 . S
C824 C829 1.418 . S
C824 O878 1.334 . S
C825 C824 1.407 . S
C825 C826 1.360 . S
C825 H886 0.929 . S
C826 C825 1.360 . S
C826 C827 1.401 . S
C826 C830 1.527 . S
C827 C826 1.401 . S
C827 C828 1.405 . S
C827 C860 1.587 . S
C828 C827 1.405 . S
C828 C829 1.332 . S
C828 C831 1.496 . S
C829 C824 1.418 . S
C829 C828 1.332 . S
C829 H887 0.929 . S
C830 C826 1.527 . S
C830 H888 0.959 . S
C830 H889 0.961 . S
C830 H890 0.961 . S
C831 C828 1.496 . S
C831 H891 0.960 . S
C831 H892 0.960 . S
C831 H893 0.961 . S
C832 C833 1.517 . S
C832 H895 0.961 . S
C832 H896 0.960 . S
C832 H897 0.959 . S
C833 C832 1.517 . S
C833 O881 1.468 . S
C833 H894 0.980 . S
C834 C835 1.349 . S
C834 C839 1.367 . S
C834 O881 1.408 . S
C835 C834 1.349 . S
C835 C836 1.407 . S
C835 H898 0.930 . S
C836 C835 1.407 . S
C836 C837 1.449 . S
C836 C840 1.535 . S
C837 C836 1.449 . S
C837 C838 1.384 . S
C837 C862 1.553 . S
C838 C837 1.384 . S
C838 C839 1.364 . S
C838 C841 1.450 . S
C839 C834 1.367 . S
C839 C838 1.364 . S
C839 H899 0.931 . S
C840 C836 1.535 . S
C840 H900 0.959 . S
C840 H901 0.961 . S
C840 H902 0.959 . S
C841 C838 1.450 . S
C841 H903 0.960 . S
C841 H904 0.960 . S
C841 H905 0.960 . S
C842 C843 1.309 . S
C842 C847 1.304 . S
C842 O880 1.435 . S
C843 C842 1.309 . S
C843 C844 1.476 . S
C843 H907 0.930 . S
C844 C843 1.476 . S
C844 C845 1.400 . S
C844 C848 1.567 . S
C845 C844 1.400 . S
C845 C846 1.373 . S
C845 C867 1.432 . S
C846 C845 1.373 . S
C846 C847 1.339 . S
C846 C849 1.530 . S
C847 C842 1.304 . S
C847 C846 1.339 . S
C847 H908 0.930 . S
C848 C844 1.567 . S
C848 H909 0.961 . S
C848 H910 0.960 . S
C848 H911 0.958 . S
C849 C846 1.530 . S
C849 H912 0.961 . S
C849 H913 0.960 . S
C849 H914 0.960 . S
C850 C851 1.530 . S
C850 H916 0.961 . S
C850 H917 0.961 . S
C850 H918 0.959 . S
C851 C850 1.530 . S
C851 O879 1.412 . S
C851 H915 0.980 . S
C852 C853 1.288 . S
C852 C857 1.377 . S
C852 O879 1.393 . S
C853 C852 1.288 . S
C853 C854 1.369 . S
C853 H919 0.932 . S
C854 C853 1.369 . S
C854 C855 1.398 . S
C854 C858 1.527 . S
C855 C854 1.398 . S
C855 C856 1.380 . S
C855 C869 1.497 . S
C856 C855 1.380 . S
C856 C857 1.383 . S
C856 C859 1.603 . S
C857 C852 1.377 . S
C857 C856 1.383 . S
C857 H920 0.929 . S
C858 C854 1.527 . S
C858 H921 0.961 . S
C858 H922 0.959 . S
C858 H923 0.959 . S
C859 C856 1.603 . S
C859 H924 0.960 . S
C859 H925 0.962 . S
C859 H926 0.961 . S
C860 C827 1.587 . S
C860 C861 1.360 . S
C860 C873 1.412 . S
C861 C860 1.360 . S
C861 C862 1.365 . S
C861 H927 0.929 . S
C862 C837 1.553 . S
C862 C861 1.365 . S
C862 C863 1.404 . S
C863 C862 1.404 . S
C863 C864 1.395 . S
C863 C874 1.451 . S
C864 C863 1.395 . S
C864 C865 1.322 . S
C864 H928 0.930 . S
C865 C864 1.322 . S
C865 C866 1.459 . S
C865 H929 0.929 . S
C866 C865 1.459 . S
C866 C867 1.445 . S
C866 C875 1.395 . S
C867 C845 1.432 . S
C867 C866 1.445 . S
C867 C868 1.370 . S
C868 C867 1.370 . S
C868 C869 1.438 . S
C868 H930 0.930 . S
C869 C855 1.497 . S
C869 C868 1.438 . S
C869 C870 1.360 . S
C870 C869 1.360 . S
C870 C871 1.401 . S
C870 C875 1.446 . S
C871 C870 1.401 . S
C871 C872 1.347 . S
C871 H931 0.929 . S
C872 C871 1.347 . S
C872 C873 1.455 . S
C872 H932 0.930 . S
C873 C860 1.412 . S
C873 C872 1.455 . S
C873 C874 1.331 . S
C874 C863 1.451 . S
C874 C873 1.331 . S
C874 C875 1.497 . S
C875 C866 1.395 . S
C875 C870 1.446 . S
C875 C874 1.497 . S
C876 C877 1.582 . S
C876 H933 0.962 . S
C876 H934 0.959 . S
C876 H935 0.958 . S
C877 C876 1.582 . S
C877 O880 1.458 . S
C877 H906 0.980 . S
O878 C823 1.426 . S
O878 C824 1.334 . S
O879 C851 1.412 . S
O879 C852 1.393 . S
O880 C842 1.435 . S
O880 C877 1.458 . S
O881 C833 1.468 . S
O881 C834 1.408 . S
H882 C823 0.980 . S
H883 C822 0.959 . S
H884 C822 0.959 . S
H885 C822 0.960 . S
H886 C825 0.929 . S
H887 C829 0.929 . S
H888 C830 0.959 . S
H889 C830 0.961 . S
H890 C830 0.961 . S
H891 C831 0.960 . S
H892 C831 0.960 . S
H893 C831 0.961 . S
H894 C833 0.980 . S
H895 C832 0.961 . S
H896 C832 0.960 . S
H897 C832 0.959 . S
H898 C835 0.930 . S
H899 C839 0.931 . S
H900 C840 0.959 . S
H901 C840 0.961 . S
H902 C840 0.959 . S
H903 C841 0.960 . S
H904 C841 0.960 . S
H905 C841 0.960 . S
H906 C877 0.980 . S
H907 C843 0.930 . S
H908 C847 0.930 . S
H909 C848 0.961 . S
H910 C848 0.960 . S
H911 C848 0.958 . S
H912 C849 0.961 . S
H913 C849 0.960 . S
H914 C849 0.960 . S
H915 C851 0.980 . S
H916 C850 0.961 . S
H917 C850 0.961 . S
H918 C850 0.959 . S
H919 C853 0.932 . S
H920 C857 0.929 . S
H921 C858 0.961 . S
H922 C858 0.959 . S
H923 C858 0.959 . S
H924 C859 0.960 . S
H925 C859 0.962 . S
H926 C859 0.961 . S
H927 C861 0.929 . S
H928 C864 0.930 . S
H929 C865 0.929 . S
H930 C868 0.930 . S
H931 C871 0.929 . S
H932 C872 0.930 . S
H933 C876 0.962 . S
H934 C876 0.959 . S
H935 C876 0.958 . S
C936 C937 1.560 . S
C936 H997 0.959 . S
C936 H998 0.959 . S
C936 H999 0.960 . S
C937 C936 1.560 . S
C937 O992 1.426 . S
C937 H996 0.980 . S
C938 C939 1.407 . S
C938 C943 1.418 . S
C938 O992 1.334 . S
C939 C938 1.407 . S
C939 C940 1.360 . S
C939 H1000 0.929 . S
C940 C939 1.360 . S
C940 C941 1.401 . S
C940 C944 1.527 . S
C941 C940 1.401 . S
C941 C942 1.405 . S
C941 C974 1.587 . S
C942 C941 1.405 . S
C942 C943 1.332 . S
C942 C945 1.496 . S
C943 C938 1.418 . S
C943 C942 1.332 . S
C943 H1001 0.929 . S
C944 C940 1.527 . S
C944 H1002 0.959 . S
C944 H1003 0.961 . S
C944 H1004 0.961 . S
C945 C942 1.496 . S
C945 H1005 0.960 . S
C945 H1006 0.960 . S
C945 H1007 0.961 . S
C946 C947 1.517 . S
C946 H1009 0.961 . S
C946 H1010 0.960 . S
C946 H1011 0.959 . S
C947 C946 1.517 . S
C947 O995 1.468 . S
C947 H1008 0.980 . S
C948 C949 1.349 . S
C948 C953 1.367 . S
C948 O995 1.408 . S
C949 C948 1.349 . S
C949 C950 1.407 . S
C949 H1012 0.930 . S
C950 C949 1.407 . S
C950 C951 1.449 . S
C950 C954 1.535 . S
C951 C950 1.449 . S
C951 C952 1.384 . S
C951 C976 1.553 . S
C952 C951 1.384 . S
C952 C953 1.364 . S
C952 C955 1.450 . S
C953 C948 1.367 . S
C953 C952 1.364 . S
C953 H1013 0.931 . S
C954 C950 1.535 . S
C954 H1014 0.959 . S
C954 H1015 0.961 . S
C954 H1016 0.959 . S
C955 C952 1.450 . S
C955 H1017 0.960 . S
C955 H1018 0.960 . S
C955 H1019 0.960 . S
C956 C957 1.309 . S
C956 C961 1.304 . S
C956 O994 1.435 . S
C957 C956 1.309 . S
C957 C958 1.476 . S
C957 H1021 0.930 . S
C958 C957 1.476 . S
C958 C959 1.400 . S
C958 C962 1.567 . S
C959 C958 1.400 . S
C959 C960 1.373 . S
C959 C981 1.432 . S
C960 C959 1.373 . S
C960 C961 1.339 . S
C960 C963 1.530 . S
C961 C956 1.304 . S
C961 C960 1.339 . S
C961 H1022 0.930 . S
C962 C958 1.567 . S
C962 H1023 0.961 . S
C962 H1024 0.960 . S
C962 H1025 0.958 . S
C963 C960 1.530 . S
C963 H1026 0.961 . S
C963 H1027 0.960 . S
C963 H1028 0.960 . S
C964 C965 1.530 . S
C964 H1030 0.961 . S
C964 H1031 0.961 . S
C964 H1032 0.959 . S
C965 C964 1.530 . S
C965 O993 1.412 . S
C965 H1029 0.980 . S
C966 C967 1.288 . S
C966 C971 1.377 . S
C966 O993 1.393 . S
C967 C966 1.288 . S
C967 C968 1.369 . S
C967 H1033 0.932 . S
C968 C967 1.369 . S
C968 C969 1.398 . S
C968 C972 1.527 . S
C969 C968 1.398 . S
C969 C970 1.380 . S
C969 C983 1.497 . S
C970 C969 1.380 . S
C970 C971 1.383 . S
C970 C973 1.603 . S
C971 C966 1.377 . S
C971 C970 1.383 . S
C971 H1034 0.929 . S
C972 C968 1.527 . S
C972 H1035 0.961 . S
C972 H1036 0.959 . S
C972 H1037 0.959 . S
C973 C970 1.603 . S
C973 H1038 0.960 . S
C973 H1039 0.962 . S
C973 H1040 0.961 . S
C974 C941 1.587 . S
C974 C975 1.360 . S
C974 C987 1.412 . S
C975 C974 1.360 . S
C975 C976 1.365 . S
C975 H1041 0.929 . S
C976 C951 1.553 . S
C976 C975 1.365 . S
C976 C977 1.404 . S
C977 C976 1.404 . S
C977 C978 1.395 . S
C977 C988 1.451 . S
C978 C977 1.395 . S
C978 C979 1.322 . S
C978 H1042 0.930 . S
C979 C978 1.322 . S
C979 C980 1.459 . S
C979 H1043 0.929 . S
C980 C979 1.459 . S
C980 C981 1.445 . S
C980 C989 1.395 . S
C981 C959 1.432 . S
C981 C980 1.445 . S
C981 C982 1.370 . S
C982 C981 1.370 . S
C982 C983 1.438 . S
C982 H1044 0.930 . S
C983 C969 1.497 . S
C983 C982 1.438 . S
C983 C984 1.360 . S
C984 C983 1.360 . S
C984 C985 1.401 . S
C984 C989 1.446 . S
C985 C984 1.401 . S
C985 C986 1.347 . S
C985 H1045 0.929 . S
C986 C985 1.347 . S
C986 C987 1.455 . S
C986 H1046 0.930 . S
C987 C974 1.412 . S
C987 C986 1.455 . S
C987 C988 1.331 . S
C988 C977 1.451 . S
C988 C987 1.331 . S
C988 C989 1.497 . S
C989 C980 1.395 . S
C989 C984 1.446 . S
C989 C988 1.497 . S
C990 C991 1.582 . S
C990 H1047 0.962 . S
C990 H1048 0.959 . S
C990 H1049 0.958 . S
C991 C990 1.582 . S
C991 O994 1.458 . S
C991 H1020 0.980 . S
O992 C937 1.426 . S
O992 C938 1.334 . S
O993 C965 1.412 . S
O993 C966 1.393 . S
O994 C956 1.435 . S
O994 C991 1.458 . S
O995 C947 1.468 . S
O995 C948 1.408 . S
H996 C937 0.980 . S
H997 C936 0.959 . S
H998 C936 0.959 . S
H999 C936 0.960 . S
H1000 C939 0.929 . S
H1001 C943 0.929 . S
H1002 C944 0.959 . S
H1003 C944 0.961 . S
H1004 C944 0.961 . S
H1005 C945 0.960 . S
H1006 C945 0.960 . S
H1007 C945 0.961 . S
H1008 C947 0.980 . S
H1009 C946 0.961 . S
H1010 C946 0.960 . S
H1011 C946 0.959 . S
H1012 C949 0.930 . S
H1013 C953 0.931 . S
H1014 C954 0.959 . S
H1015 C954 0.961 . S
H1016 C954 0.959 . S
H1017 C955 0.960 . S
H1018 C955 0.960 . S
H1019 C955 0.960 . S
H1020 C991 0.980 . S
H1021 C957 0.930 . S
H1022 C961 0.930 . S
H1023 C962 0.961 . S
H1024 C962 0.960 . S
H1025 C962 0.958 . S
H1026 C963 0.961 . S
H1027 C963 0.960 . S
H1028 C963 0.960 . S
H1029 C965 0.980 . S
H1030 C964 0.961 . S
H1031 C964 0.961 . S
H1032 C964 0.959 . S
H1033 C967 0.932 . S
H1034 C971 0.929 . S
H1035 C972 0.961 . S
H1036 C972 0.959 . S
H1037 C972 0.959 . S
H1038 C973 0.960 . S
H1039 C973 0.962 . S
H1040 C973 0.961 . S
H1041 C975 0.929 . S
H1042 C978 0.930 . S
H1043 C979 0.929 . S
H1044 C982 0.930 . S
H1045 C985 0.929 . S
H1046 C986 0.930 . S
H1047 C990 0.962 . S
H1048 C990 0.959 . S
H1049 C990 0.958 . S
C1050 C1051 1.560 . S
C1050 H1111 0.959 . S
C1050 H1112 0.959 . S
C1050 H1113 0.960 . S
C1051 C1050 1.560 . S
C1051 O1106 1.426 . S
C1051 H1110 0.980 . S
C1052 C1053 1.407 . S
C1052 C1057 1.418 . S
C1052 O1106 1.334 . S
C1053 C1052 1.407 . S
C1053 C1054 1.360 . S
C1053 H1114 0.929 . S
C1054 C1053 1.360 . S
C1054 C1055 1.401 . S
C1054 C1058 1.527 . S
C1055 C1054 1.401 . S
C1055 C1056 1.405 . S
C1055 C1088 1.587 . S
C1056 C1055 1.405 . S
C1056 C1057 1.332 . S
C1056 C1059 1.496 . S
C1057 C1052 1.418 . S
C1057 C1056 1.332 . S
C1057 H1115 0.929 . S
C1058 C1054 1.527 . S
C1058 H1116 0.959 . S
C1058 H1117 0.961 . S
C1058 H1118 0.961 . S
C1059 C1056 1.496 . S
C1059 H1119 0.960 . S
C1059 H1120 0.960 . S
C1059 H1121 0.961 . S
C1060 C1061 1.517 . S
C1060 H1123 0.961 . S
C1060 H1124 0.960 . S
C1060 H1125 0.959 . S
C1061 C1060 1.517 . S
C1061 O1109 1.468 . S
C1061 H1122 0.980 . S
C1062 C1063 1.349 . S
C1062 C1067 1.367 . S
C1062 O1109 1.408 . S
C1063 C1062 1.349 . S
C1063 C1064 1.407 . S
C1063 H1126 0.930 . S
C1064 C1063 1.407 . S
C1064 C1065 1.449 . S
C1064 C1068 1.535 . S
C1065 C1064 1.449 . S
C1065 C1066 1.384 . S
C1065 C1090 1.553 . S
C1066 C1065 1.384 . S
C1066 C1067 1.364 . S
C1066 C1069 1.450 . S
C1067 C1062 1.367 . S
C1067 C1066 1.364 . S
C1067 H1127 0.931 . S
C1068 C1064 1.535 . S
C1068 H1128 0.959 . S
C1068 H1129 0.961 . S
C1068 H1130 0.959 . S
C1069 C1066 1.450 . S
C1069 H1131 0.960 . S
C1069 H1132 0.960 . S
C1069 H1133 0.960 . S
C1070 C1071 1.309 . S
C1070 C1075 1.304 . S
C1070 O1108 1.435 . S
C1071 C1070 1.309 . S
C1071 C1072 1.476 . S
C1071 H1135 0.930 . S
C1072 C1071 1.476 . S
C1072 C1073 1.400 . S
C1072 C1076 1.567 . S
C1073 C1072 1.400 . S
C1073 C1074 1.373 . S
C1073 C1095 1.432 . S
C1074 C1073 1.373 . S
C1074 C1075 1.339 . S
C1074 C1077 1.530 . S
C1075 C1070 1.304 . S
C1075 C1074 1.339 . S
C1075 H1136 0.930 . S
C1076 C1072 1.567 . S
C1076 H1137 0.961 . S
C1076 H1138 0.960 . S
C1076 H1139 0.958 . S
C1077 C1074 1.530 . S
C1077 H1140 0.961 . S
C1077 H1141 0.960 . S
C1077 H1142 0.960 . S
C1078 C1079 1.530 . S
C1078 H1144 0.961 . S
C1078 H1145 0.961 . S
C1078 H1146 0.959 . S
C1079 C1078 1.530 . S
C1079 O1107 1.412 . S
C1079 H1143 0.980 . S
C1080 C1081 1.288 . S
C1080 C1085 1.377 . S
C1080 O1107 1.393 . S
C1081 C1080 1.288 . S
C1081 C1082 1.369 . S
C1081 H1147 0.932 . S
C1082 C1081 1.369 . S
C1082 C1083 1.398 . S
C1082 C1086 1.527 . S
C1083 C1082 1.398 . S
C1083 C1084 1.380 . S
C1083 C1097 1.497 . S
C1084 C1083 1.380 . S
C1084 C1085 1.383 . S
C1084 C1087 1.603 . S
C1085 C1080 1.377 . S
C1085 C1084 1.383 . S
C1085 H1148 0.929 . S
C1086 C1082 1.527 . S
C1086 H1149 0.961 . S
C1086 H1150 0.959 . S
C1086 H1151 0.959 . S
C1087 C1084 1.603 . S
C1087 H1152 0.960 . S
C1087 H1153 0.962 . S
C1087 H1154 0.961 . S
C1088 C1055 1.587 . S
C1088 C1089 1.360 . S
C1088 C1101 1.412 . S
C1089 C1088 1.360 . S
C1089 C1090 1.365 . S
C1089 H1155 0.929 . S
C1090 C1065 1.553 . S
C1090 C1089 1.365 . S
C1090 C1091 1.404 . S
C1091 C1090 1.404 . S
C1091 C1092 1.395 . S
C1091 C1102 1.451 . S
C1092 C1091 1.395 . S
C1092 C1093 1.322 . S
C1092 H1156 0.930 . S
C1093 C1092 1.322 . S
C1093 C1094 1.459 . S
C1093 H1157 0.929 . S
C1094 C1093 1.459 . S
C1094 C1095 1.445 . S
C1094 C1103 1.395 . S
C1095 C1073 1.432 . S
C1095 C1094 1.445 . S
C1095 C1096 1.370 . S
C1096 C1095 1.370 . S
C1096 C1097 1.438 . S
C1096 H1158 0.930 . S
C1097 C1083 1.497 . S
C1097 C1096 1.438 . S
C1097 C1098 1.360 . S
C1098 C1097 1.360 . S
C1098 C1099 1.401 . S
C1098 C1103 1.446 . S
C1099 C1098 1.401 . S
C1099 C1100 1.347 . S
C1099 H1159 0.929 . S
C1100 C1099 1.347 . S
C1100 C1101 1.455 . S
C1100 H1160 0.930 . S
C1101 C1088 1.412 . S
C1101 C1100 1.455 . S
C1101 C1102 1.331 . S
C1102 C1091 1.451 . S
C1102 C1101 1.331 . S
C1102 C1103 1.497 . S
C1103 C1094 1.395 . S
C1103 C1098 1.446 . S
C1103 C1102 1.497 . S
C1104 C1105 1.582 . S
C1104 H1161 0.962 . S
C1104 H1162 0.959 . S
C1104 H1163 0.958 . S
C1105 C1104 1.582 . S
C1105 O1108 1.458 . S
C1105 H1134 0.980 . S
O1106 C1051 1.426 . S
O1106 C1052 1.334 . S
O1107 C1079 1.412 . S
O1107 C1080 1.393 . S
O1108 C1070 1.435 . S
O1108 C1105 1.458 . S
O1109 C1061 1.468 . S
O1109 C1062 1.408 . S
H1110 C1051 0.980 . S
H1111 C1050 0.959 . S
H1112 C1050 0.959 . S
H1113 C1050 0.960 . S
H1114 C1053 0.929 . S
H1115 C1057 0.929 . S
H1116 C1058 0.959 . S
H1117 C1058 0.961 . S
H1118 C1058 0.961 . S
H1119 C1059 0.960 . S
H1120 C1059 0.960 . S
H1121 C1059 0.961 . S
H1122 C1061 0.980 . S
H1123 C1060 0.961 . S
H1124 C1060 0.960 . S
H1125 C1060 0.959 . S
H1126 C1063 0.930 . S
H1127 C1067 0.931 . S
H1128 C1068 0.959 . S
H1129 C1068 0.961 . S
H1130 C1068 0.959 . S
H1131 C1069 0.960 . S
H1132 C1069 0.960 . S
H1133 C1069 0.960 . S
H1134 C1105 0.980 . S
H1135 C1071 0.930 . S
H1136 C1075 0.930 . S
H1137 C1076 0.961 . S
H1138 C1076 0.960 . S
H1139 C1076 0.958 . S
H1140 C1077 0.961 . S
H1141 C1077 0.960 . S
H1142 C1077 0.960 . S
H1143 C1079 0.980 . S
H1144 C1078 0.961 . S
H1145 C1078 0.961 . S
H1146 C1078 0.959 . S
H1147 C1081 0.932 . S
H1148 C1085 0.929 . S
H1149 C1086 0.961 . S
H1150 C1086 0.959 . S
H1151 C1086 0.959 . S
H1152 C1087 0.960 . S
H1153 C1087 0.962 . S
H1154 C1087 0.961 . S
H1155 C1089 0.929 . S
H1156 C1092 0.930 . S
H1157 C1093 0.929 . S
H1158 C1096 0.930 . S
H1159 C1099 0.929 . S
H1160 C1100 0.930 . S
H1161 C1104 0.962 . S
H1162 C1104 0.959 . S
H1163 C1104 0.958 . S
C1164 C1165 1.560 . S
C1164 H1225 0.959 . S
C1164 H1226 0.959 . S
C1164 H1227 0.960 . S
C1165 C1164 1.560 . S
C1165 O1220 1.426 . S
C1165 H1224 0.980 . S
C1166 C1167 1.407 . S
C1166 C1171 1.418 . S
C1166 O1220 1.334 . S
C1167 C1166 1.407 . S
C1167 C1168 1.360 . S
C1167 H1228 0.929 . S
C1168 C1167 1.360 . S
C1168 C1169 1.401 . S
C1168 C1172 1.527 . S
C1169 C1168 1.401 . S
C1169 C1170 1.405 . S
C1169 C1202 1.587 . S
C1170 C1169 1.405 . S
C1170 C1171 1.332 . S
C1170 C1173 1.496 . S
C1171 C1166 1.418 . S
C1171 C1170 1.332 . S
C1171 H1229 0.929 . S
C1172 C1168 1.527 . S
C1172 H1230 0.959 . S
C1172 H1231 0.961 . S
C1172 H1232 0.961 . S
C1173 C1170 1.496 . S
C1173 H1233 0.960 . S
C1173 H1234 0.960 . S
C1173 H1235 0.961 . S
C1174 C1175 1.517 . S
C1174 H1237 0.961 . S
C1174 H1238 0.960 . S
C1174 H1239 0.959 . S
C1175 C1174 1.517 . S
C1175 O1223 1.468 . S
C1175 H1236 0.980 . S
C1176 C1177 1.349 . S
C1176 C1181 1.367 . S
C1176 O1223 1.408 . S
C1177 C1176 1.349 . S
C1177 C1178 1.407 . S
C1177 H1240 0.930 . S
C1178 C1177 1.407 . S
C1178 C1179 1.449 . S
C1178 C1182 1.535 . S
C1179 C1178 1.449 . S
C1179 C1180 1.384 . S
C1179 C1204 1.553 . S
C1180 C1179 1.384 . S
C1180 C1181 1.364 . S
C1180 C1183 1.450 . S
C1181 C1176 1.367 . S
C1181 C1180 1.364 . S
C1181 H1241 0.931 . S
C1182 C1178 1.535 . S
C1182 H1242 0.959 . S
C1182 H1243 0.961 . S
C1182 H1244 0.959 . S
C1183 C1180 1.450 . S
C1183 H1245 0.960 . S
C1183 H1246 0.960 . S
C1183 H1247 0.960 . S
C1184 C1185 1.309 . S
C1184 C1189 1.304 . S
C1184 O1222 1.435 . S
C1185 C1184 1.309 . S
C1185 C1186 1.476 . S
C1185 H1249 0.930 . S
C1186 C1185 1.476 . S
C1186 C1187 1.400 . S
C1186 C1190 1.567 . S
C1187 C1186 1.400 . S
C1187 C1188 1.373 . S
C1187 C1209 1.432 . S
C1188 C1187 1.373 . S
C1188 C1189 1.339 . S
C1188 C1191 1.530 . S
C1189 C1184 1.304 . S
C1189 C1188 1.339 . S
C1189 H1250 0.930 . S
C1190 C1186 1.567 . S
C1190 H1251 0.961 . S
C1190 H1252 0.960 . S
C1190 H1253 0.958 . S
C1191 C1188 1.530 . S
C1191 H1254 0.961 . S
C1191 H1255 0.960 . S
C1191 H1256 0.960 . S
C1192 C1193 1.530 . S
C1192 H1258 0.961 . S
C1192 H1259 0.961 . S
C1192 H1260 0.959 . S
C1193 C1192 1.530 . S
C1193 O1221 1.412 . S
C1193 H1257 0.980 . S
C1194 C1195 1.288 . S
C1194 C1199 1.377 . S
C1194 O1221 1.393 . S
C1195 C1194 1.288 . S
C1195 C1196 1.369 . S
C1195 H1261 0.932 . S
C1196 C1195 1.369 . S
C1196 C1197 1.398 . S
C1196 C1200 1.527 . S
C1197 C1196 1.398 . S
C1197 C1198 1.380 . S
C1197 C1211 1.497 . S
C1198 C1197 1.380 . S
C1198 C1199 1.383 . S
C1198 C1201 1.603 . S
C1199 C1194 1.377 . S
C1199 C1198 1.383 . S
C1199 H1262 0.929 . S
C1200 C1196 1.527 . S
C1200 H1263 0.961 . S
C1200 H1264 0.959 . S
C1200 H1265 0.959 . S
C1201 C1198 1.603 . S
C1201 H1266 0.960 . S
C1201 H1267 0.962 . S
C1201 H1268 0.961 . S
C1202 C1169 1.587 . S
C1202 C1203 1.360 . S
C1202 C1215 1.412 . S
C1203 C1202 1.360 . S
C1203 C1204 1.365 . S
C1203 H1269 0.929 . S
C1204 C1179 1.553 . S
C1204 C1203 1.365 . S
C1204 C1205 1.404 . S
C1205 C1204 1.404 . S
C1205 C1206 1.395 . S
C1205 C1216 1.451 . S
C1206 C1205 1.395 . S
C1206 C1207 1.322 . S
C1206 H1270 0.930 . S
C1207 C1206 1.322 . S
C1207 C1208 1.459 . S
C1207 H1271 0.929 . S
C1208 C1207 1.459 . S
C1208 C1209 1.445 . S
C1208 C1217 1.395 . S
C1209 C1187 1.432 . S
C1209 C1208 1.445 . S
C1209 C1210 1.370 . S
C1210 C1209 1.370 . S
C1210 C1211 1.438 . S
C1210 H1272 0.930 . S
C1211 C1197 1.497 . S
C1211 C1210 1.438 . S
C1211 C1212 1.360 . S
C1212 C1211 1.360 . S
C1212 C1213 1.401 . S
C1212 C1217 1.446 . S
C1213 C1212 1.401 . S
C1213 C1214 1.347 . S
C1213 H1273 0.929 . S
C1214 C1213 1.347 . S
C1214 C1215 1.455 . S
C1214 H1274 0.930 . S
C1215 C1202 1.412 . S
C1215 C1214 1.455 . S
C1215 C1216 1.331 . S
C1216 C1205 1.451 . S
C1216 C1215 1.331 . S
C1216 C1217 1.497 . S
C1217 C1208 1.395 . S
C1217 C1212 1.446 . S
C1217 C1216 1.497 . S
C1218 C1219 1.582 . S
C1218 H1275 0.962 . S
C1218 H1276 0.959 . S
C1218 H1277 0.958 . S
C1219 C1218 1.582 . S
C1219 O1222 1.458 . S
C1219 H1248 0.980 . S
O1220 C1165 1.426 . S
O1220 C1166 1.334 . S
O1221 C1193 1.412 . S
O1221 C1194 1.393 . S
O1222 C1184 1.435 . S
O1222 C1219 1.458 . S
O1223 C1175 1.468 . S
O1223 C1176 1.408 . S
H1224 C1165 0.980 . S
H1225 C1164 0.959 . S
H1226 C1164 0.959 . S
H1227 C1164 0.960 . S
H1228 C1167 0.929 . S
H1229 C1171 0.929 . S
H1230 C1172 0.959 . S
H1231 C1172 0.961 . S
H1232 C1172 0.961 . S
H1233 C1173 0.960 . S
H1234 C1173 0.960 . S
H1235 C1173 0.961 . S
H1236 C1175 0.980 . S
H1237 C1174 0.961 . S
H1238 C1174 0.960 . S
H1239 C1174 0.959 . S
H1240 C1177 0.930 . S
H1241 C1181 0.931 . S
H1242 C1182 0.959 . S
H1243 C1182 0.961 . S
H1244 C1182 0.959 . S
H1245 C1183 0.960 . S
H1246 C1183 0.960 . S
H1247 C1183 0.960 . S
H1248 C1219 0.980 . S
H1249 C1185 0.930 . S
H1250 C1189 0.930 . S
H1251 C1190 0.961 . S
H1252 C1190 0.960 . S
H1253 C1190 0.958 . S
H1254 C1191 0.961 . S
H1255 C1191 0.960 . S
H1256 C1191 0.960 . S
H1257 C1193 0.980 . S
H1258 C1192 0.961 . S
H1259 C1192 0.961 . S
H1260 C1192 0.959 . S
H1261 C1195 0.932 . S
H1262 C1199 0.929 . S
H1263 C1200 0.961 . S
H1264 C1200 0.959 . S
H1265 C1200 0.959 . S
H1266 C1201 0.960 . S
H1267 C1201 0.962 . S
H1268 C1201 0.961 . S
H1269 C1203 0.929 . S
H1270 C1206 0.930 . S
H1271 C1207 0.929 . S
H1272 C1210 0.930 . S
H1273 C1213 0.929 . S
H1274 C1214 0.930 . S
H1275 C1218 0.962 . S
H1276 C1218 0.959 . S
H1277 C1218 0.958 . S
C1278 C1279 1.560 . S
C1278 H1339 0.959 . S
C1278 H1340 0.959 . S
C1278 H1341 0.960 . S
C1279 C1278 1.560 . S
C1279 O1334 1.426 . S
C1279 H1338 0.980 . S
C1280 C1281 1.407 1_455 S
C1280 C1285 1.418 . S
C1280 O1334 1.334 . S
C1281 C1280 1.407 1_655 S
C1281 C1282 1.360 . S
C1281 H1342 0.929 . S
C1282 C1281 1.360 . S
C1282 C1283 1.401 1_655 S
C1282 C1286 1.527 . S
C1283 C1282 1.401 1_455 S
C1283 C1284 1.405 . S
C1283 C1316 1.587 1_455 S
C1284 C1283 1.405 . S
C1284 C1285 1.332 . S
C1284 C1287 1.496 . S
C1285 C1280 1.418 . S
C1285 C1284 1.332 . S
C1285 H1343 0.929 . S
C1286 C1282 1.527 . S
C1286 H1344 0.959 . S
C1286 H1345 0.961 . S
C1286 H1346 0.961 . S
C1287 C1284 1.496 . S
C1287 H1347 0.960 . S
C1287 H1348 0.960 . S
C1287 H1349 0.961 . S
C1288 C1289 1.517 . S
C1288 H1351 0.961 . S
C1288 H1352 0.960 . S
C1288 H1353 0.959 . S
C1289 C1288 1.517 . S
C1289 O1337 1.468 . S
C1289 H1350 0.980 1_655 S
C1290 C1291 1.349 . S
C1290 C1295 1.367 . S
C1290 O1337 1.408 . S
C1291 C1290 1.349 . S
C1291 C1292 1.394 1_655 S
C1291 H1354 0.930 1_655 S
C1292 C1291 1.394 1_455 S
C1292 C1293 1.438 1_455 S
C1292 C1296 1.558 . S
C1293 C1292 1.438 1_655 S
C1293 C1294 1.384 . S
C1293 C1318 1.553 . S
C1294 C1293 1.384 . S
C1294 C1295 1.364 . S
C1294 C1297 1.450 . S
C1295 C1290 1.367 . S
C1295 C1294 1.364 . S
C1295 H1355 0.931 . S
C1296 C1292 1.558 . S
C1296 H1356 0.959 . S
C1296 H1357 0.961 . S
C1296 H1358 0.959 . S
C1297 C1294 1.450 . S
C1297 H1359 0.960 . S
C1297 H1360 0.960 . S
C1297 H1361 0.960 . S
C1298 C1299 1.309 . S
C1298 C1303 1.304 . S
C1298 O1336 1.435 . S
C1299 C1298 1.309 . S
C1299 C1300 1.456 1_655 S
C1299 H1363 0.930 1_655 S
C1300 C1299 1.456 1_455 S
C1300 C1301 1.387 1_455 S
C1300 C1304 1.599 . S
C1301 C1300 1.387 1_655 S
C1301 C1302 1.373 . S
C1301 C1323 1.432 . S
C1302 C1301 1.373 . S
C1302 C1303 1.339 . S
C1302 C1305 1.530 . S
C1303 C1298 1.304 . S
C1303 C1302 1.339 . S
C1303 H1364 0.930 . S
C1304 C1300 1.599 . S
C1304 H1365 0.961 . S
C1304 H1366 0.960 . S
C1304 H1367 0.958 . S
C1305 C1302 1.530 . S
C1305 H1368 0.961 . S
C1305 H1369 0.960 . S
C1305 H1370 0.960 . S
C1306 C1307 1.575 . S
C1306 H1372 0.961 . S
C1306 H1373 0.961 . S
C1306 H1374 0.959 . S
C1307 C1306 1.575 . S
C1307 O1335 1.422 . S
C1307 H1371 0.967 1_455 S
C1308 C1309 1.288 . S
C1308 C1313 1.377 1_455 S
C1308 O1335 1.393 . S
C1309 C1308 1.288 . S
C1309 C1310 1.369 . S
C1309 H1375 0.932 . S
C1310 C1309 1.369 . S
C1310 C1311 1.398 1_455 S
C1310 C1314 1.527 . S
C1311 C1310 1.398 1_655 S
C1311 C1312 1.380 . S
C1311 C1325 1.497 . S
C1312 C1311 1.380 . S
C1312 C1313 1.383 . S
C1312 C1315 1.603 . S
C1313 C1308 1.377 1_655 S
C1313 C1312 1.383 . S
C1313 H1376 0.929 . S
C1314 C1310 1.527 . S
C1314 H1377 0.961 . S
C1314 H1378 0.959 . S
C1314 H1379 0.959 . S
C1315 C1312 1.603 . S
C1315 H1380 0.960 . S
C1315 H1381 0.962 . S
C1315 H1382 0.961 . S
C1316 C1283 1.587 1_655 S
C1316 C1317 1.360 . S
C1316 C1329 1.412 . S
C1317 C1316 1.360 . S
C1317 C1318 1.365 . S
C1317 H1383 0.929 . S
C1318 C1293 1.553 . S
C1318 C1317 1.365 . S
C1318 C1319 1.404 . S
C1319 C1318 1.404 . S
C1319 C1320 1.395 . S
C1319 C1330 1.451 . S
C1320 C1319 1.395 . S
C1320 C1321 1.322 . S
C1320 H1384 0.930 . S
C1321 C1320 1.322 . S
C1321 C1322 1.459 . S
C1321 H1385 0.929 . S
C1322 C1321 1.459 . S
C1322 C1323 1.445 . S
C1322 C1331 1.395 . S
C1323 C1301 1.432 . S
C1323 C1322 1.445 . S
C1323 C1324 1.370 . S
C1324 C1323 1.370 . S
C1324 C1325 1.438 . S
C1324 H1386 0.930 . S
C1325 C1311 1.497 . S
C1325 C1324 1.438 . S
C1325 C1326 1.360 . S
C1326 C1325 1.360 . S
C1326 C1327 1.401 . S
C1326 C1331 1.446 . S
C1327 C1326 1.401 . S
C1327 C1328 1.347 . S
C1327 H1387 0.929 . S
C1328 C1327 1.347 . S
C1328 C1329 1.455 . S
C1328 H1388 0.930 . S
C1329 C1316 1.412 . S
C1329 C1328 1.455 . S
C1329 C1330 1.331 . S
C1330 C1319 1.451 . S
C1330 C1329 1.331 . S
C1330 C1331 1.497 . S
C1331 C1322 1.395 . S
C1331 C1326 1.446 . S
C1331 C1330 1.497 . S
C1332 C1333 1.582 . S
C1332 H1389 0.962 . S
C1332 H1390 0.959 . S
C1332 H1391 0.958 . S
C1333 C1332 1.582 . S
C1333 O1336 1.458 . S
C1333 H1362 0.980 . S
O1334 C1279 1.426 . S
O1334 C1280 1.334 . S
O1335 C1307 1.422 . S
O1335 C1308 1.393 . S
O1336 C1298 1.435 . S
O1336 C1333 1.458 . S
O1337 C1289 1.468 . S
O1337 C1290 1.408 . S
H1338 C1279 0.980 . S
H1339 C1278 0.959 . S
H1340 C1278 0.959 . S
H1341 C1278 0.960 . S
H1342 C1281 0.929 . S
H1343 C1285 0.929 . S
H1344 C1286 0.959 . S
H1345 C1286 0.961 . S
H1346 C1286 0.961 . S
H1347 C1287 0.960 . S
H1348 C1287 0.960 . S
H1349 C1287 0.961 . S
H1350 C1289 0.980 1_455 S
H1351 C1288 0.961 . S
H1352 C1288 0.960 . S
H1353 C1288 0.959 . S
H1354 C1291 0.930 1_455 S
H1355 C1295 0.931 . S
H1356 C1296 0.959 . S
H1357 C1296 0.961 . S
H1358 C1296 0.959 . S
H1359 C1297 0.960 . S
H1360 C1297 0.960 . S
H1361 C1297 0.960 . S
H1362 C1333 0.980 . S
H1363 C1299 0.930 1_455 S
H1364 C1303 0.930 . S
H1365 C1304 0.961 . S
H1366 C1304 0.960 . S
H1367 C1304 0.958 . S
H1368 C1305 0.961 . S
H1369 C1305 0.960 . S
H1370 C1305 0.960 . S
H1371 C1307 0.967 1_655 S
H1372 C1306 0.961 . S
H1373 C1306 0.961 . S
H1374 C1306 0.959 . S
H1375 C1309 0.932 . S
H1376 C1313 0.929 . S
H1377 C1314 0.961 . S
H1378 C1314 0.959 . S
H1379 C1314 0.959 . S
H1380 C1315 0.960 . S
H1381 C1315 0.962 . S
H1382 C1315 0.961 . S
H1383 C1317 0.929 . S
H1384 C1320 0.930 . S
H1385 C1321 0.929 . S
H1386 C1324 0.930 . S
H1387 C1327 0.929 . S
H1388 C1328 0.930 . S
H1389 C1332 0.962 . S
H1390 C1332 0.959 . S
H1391 C1332 0.958 . S
C1392 C1393 1.560 . S
C1392 H1453 0.959 . S
C1392 H1454 0.959 . S
C1392 H1455 0.960 . S
C1393 C1392 1.560 . S
C1393 O1448 1.426 . S
C1393 H1452 0.980 . S
C1394 C1395 1.407 . S
C1394 C1399 1.418 . S
C1394 O1448 1.334 . S
C1395 C1394 1.407 . S
C1395 C1396 1.360 . S
C1395 H1456 0.929 . S
C1396 C1395 1.360 . S
C1396 C1397 1.401 . S
C1396 C1400 1.527 . S
C1397 C1396 1.401 . S
C1397 C1398 1.405 . S
C1397 C1430 1.587 . S
C1398 C1397 1.405 . S
C1398 C1399 1.332 . S
C1398 C1401 1.496 . S
C1399 C1394 1.418 . S
C1399 C1398 1.332 . S
C1399 H1457 0.929 . S
C1400 C1396 1.527 . S
C1400 H1458 0.959 . S
C1400 H1459 0.961 . S
C1400 H1460 0.961 . S
C1401 C1398 1.496 . S
C1401 H1461 0.960 . S
C1401 H1462 0.960 . S
C1401 H1463 0.961 . S
C1402 C1403 1.517 . S
C1402 H1465 0.961 . S
C1402 H1466 0.960 . S
C1402 H1467 0.959 . S
C1403 C1402 1.517 . S
C1403 O1451 1.468 . S
C1403 H1464 0.980 . S
C1404 C1405 1.349 . S
C1404 C1409 1.367 . S
C1404 O1451 1.408 . S
C1405 C1404 1.349 . S
C1405 C1406 1.407 . S
C1405 H1468 0.930 . S
C1406 C1405 1.407 . S
C1406 C1407 1.449 . S
C1406 C1410 1.535 . S
C1407 C1406 1.449 . S
C1407 C1408 1.384 . S
C1407 C1432 1.553 . S
C1408 C1407 1.384 . S
C1408 C1409 1.364 . S
C1408 C1411 1.450 . S
C1409 C1404 1.367 . S
C1409 C1408 1.364 . S
C1409 H1469 0.931 . S
C1410 C1406 1.535 . S
C1410 H1470 0.959 . S
C1410 H1471 0.961 . S
C1410 H1472 0.959 . S
C1411 C1408 1.450 . S
C1411 H1473 0.960 . S
C1411 H1474 0.960 . S
C1411 H1475 0.960 . S
C1412 C1413 1.309 . S
C1412 C1417 1.304 . S
C1412 O1450 1.435 . S
C1413 C1412 1.309 . S
C1413 C1414 1.476 . S
C1413 H1477 0.930 . S
C1414 C1413 1.476 . S
C1414 C1415 1.400 . S
C1414 C1418 1.567 . S
C1415 C1414 1.400 . S
C1415 C1416 1.373 . S
C1415 C1437 1.432 . S
C1416 C1415 1.373 . S
C1416 C1417 1.339 . S
C1416 C1419 1.530 . S
C1417 C1412 1.304 . S
C1417 C1416 1.339 . S
C1417 H1478 0.930 . S
C1418 C1414 1.567 . S
C1418 H1479 0.961 . S
C1418 H1480 0.960 . S
C1418 H1481 0.958 . S
C1419 C1416 1.530 . S
C1419 H1482 0.961 . S
C1419 H1483 0.960 . S
C1419 H1484 0.960 . S
C1420 C1421 1.530 . S
C1420 H1486 0.961 . S
C1420 H1487 0.961 . S
C1420 H1488 0.959 . S
C1421 C1420 1.530 . S
C1421 O1449 1.412 . S
C1421 H1485 0.980 . S
C1422 C1423 1.288 . S
C1422 C1427 1.377 . S
C1422 O1449 1.393 . S
C1423 C1422 1.288 . S
C1423 C1424 1.369 . S
C1423 H1489 0.932 . S
C1424 C1423 1.369 . S
C1424 C1425 1.398 . S
C1424 C1428 1.527 . S
C1425 C1424 1.398 . S
C1425 C1426 1.380 . S
C1425 C1439 1.497 . S
C1426 C1425 1.380 . S
C1426 C1427 1.383 . S
C1426 C1429 1.603 . S
C1427 C1422 1.377 . S
C1427 C1426 1.383 . S
C1427 H1490 0.929 . S
C1428 C1424 1.527 . S
C1428 H1491 0.961 . S
C1428 H1492 0.959 . S
C1428 H1493 0.959 . S
C1429 C1426 1.603 . S
C1429 H1494 0.960 . S
C1429 H1495 0.962 . S
C1429 H1496 0.961 . S
C1430 C1397 1.587 . S
C1430 C1431 1.360 . S
C1430 C1443 1.412 . S
C1431 C1430 1.360 . S
C1431 C1432 1.365 . S
C1431 H1497 0.929 . S
C1432 C1407 1.553 . S
C1432 C1431 1.365 . S
C1432 C1433 1.404 . S
C1433 C1432 1.404 . S
C1433 C1434 1.395 . S
C1433 C1444 1.451 . S
C1434 C1433 1.395 . S
C1434 C1435 1.322 . S
C1434 H1498 0.930 . S
C1435 C1434 1.322 . S
C1435 C1436 1.459 . S
C1435 H1499 0.929 . S
C1436 C1435 1.459 . S
C1436 C1437 1.445 . S
C1436 C1445 1.395 . S
C1437 C1415 1.432 . S
C1437 C1436 1.445 . S
C1437 C1438 1.370 . S
C1438 C1437 1.370 . S
C1438 C1439 1.438 . S
C1438 H1500 0.930 . S
C1439 C1425 1.497 . S
C1439 C1438 1.438 . S
C1439 C1440 1.360 . S
C1440 C1439 1.360 . S
C1440 C1441 1.401 . S
C1440 C1445 1.446 . S
C1441 C1440 1.401 . S
C1441 C1442 1.347 . S
C1441 H1501 0.929 . S
C1442 C1441 1.347 . S
C1442 C1443 1.455 . S
C1442 H1502 0.930 . S
C1443 C1430 1.412 . S
C1443 C1442 1.455 . S
C1443 C1444 1.331 . S
C1444 C1433 1.451 . S
C1444 C1443 1.331 . S
C1444 C1445 1.497 . S
C1445 C1436 1.395 . S
C1445 C1440 1.446 . S
C1445 C1444 1.497 . S
C1446 C1447 1.582 . S
C1446 H1503 0.962 . S
C1446 H1504 0.959 . S
C1446 H1505 0.958 . S
C1447 C1446 1.582 . S
C1447 O1450 1.458 . S
C1447 H1476 0.980 . S
O1448 C1393 1.426 . S
O1448 C1394 1.334 . S
O1449 C1421 1.412 . S
O1449 C1422 1.393 . S
O1450 C1412 1.435 . S
O1450 C1447 1.458 . S
O1451 C1403 1.468 . S
O1451 C1404 1.408 . S
H1452 C1393 0.980 . S
H1453 C1392 0.959 . S
H1454 C1392 0.959 . S
H1455 C1392 0.960 . S
H1456 C1395 0.929 . S
H1457 C1399 0.929 . S
H1458 C1400 0.959 . S
H1459 C1400 0.961 . S
H1460 C1400 0.961 . S
H1461 C1401 0.960 . S
H1462 C1401 0.960 . S
H1463 C1401 0.961 . S
H1464 C1403 0.980 . S
H1465 C1402 0.961 . S
H1466 C1402 0.960 . S
H1467 C1402 0.959 . S
H1468 C1405 0.930 . S
H1469 C1409 0.931 . S
H1470 C1410 0.959 . S
H1471 C1410 0.961 . S
H1472 C1410 0.959 . S
H1473 C1411 0.960 . S
H1474 C1411 0.960 . S
H1475 C1411 0.960 . S
H1476 C1447 0.980 . S
H1477 C1413 0.930 . S
H1478 C1417 0.930 . S
H1479 C1418 0.961 . S
H1480 C1418 0.960 . S
H1481 C1418 0.958 . S
H1482 C1419 0.961 . S
H1483 C1419 0.960 . S
H1484 C1419 0.960 . S
H1485 C1421 0.980 . S
H1486 C1420 0.961 . S
H1487 C1420 0.961 . S
H1488 C1420 0.959 . S
H1489 C1423 0.932 . S
H1490 C1427 0.929 . S
H1491 C1428 0.961 . S
H1492 C1428 0.959 . S
H1493 C1428 0.959 . S
H1494 C1429 0.960 . S
H1495 C1429 0.962 . S
H1496 C1429 0.961 . S
H1497 C1431 0.929 . S
H1498 C1434 0.930 . S
H1499 C1435 0.929 . S
H1500 C1438 0.930 . S
H1501 C1441 0.929 . S
H1502 C1442 0.930 . S
H1503 C1446 0.962 . S
H1504 C1446 0.959 . S
H1505 C1446 0.958 . S
C1506 C1507 1.560 . S
C1506 H1567 0.959 . S
C1506 H1568 0.959 . S
C1506 H1569 0.960 . S
C1507 C1506 1.560 . S
C1507 O1562 1.426 . S
C1507 H1566 0.980 . S
C1508 C1509 1.407 1_565 S
C1508 C1513 1.418 . S
C1508 O1562 1.334 . S
C1509 C1508 1.407 1_545 S
C1509 C1510 1.360 . S
C1509 H1570 0.929 . S
C1510 C1509 1.360 . S
C1510 C1511 1.401 1_545 S
C1510 C1514 1.527 . S
C1511 C1510 1.401 1_565 S
C1511 C1512 1.405 . S
C1511 C1544 1.587 1_565 S
C1512 C1511 1.405 . S
C1512 C1513 1.332 . S
C1512 C1515 1.496 . S
C1513 C1508 1.418 . S
C1513 C1512 1.332 . S
C1513 H1571 0.929 . S
C1514 C1510 1.527 . S
C1514 H1572 0.959 . S
C1514 H1573 0.961 . S
C1514 H1574 0.961 . S
C1515 C1512 1.496 . S
C1515 H1575 0.960 . S
C1515 H1576 0.960 . S
C1515 H1577 0.961 . S
C1516 C1517 1.517 . S
C1516 H1579 0.907 1_545 S
C1516 H1580 0.960 . S
C1516 H1581 0.959 . S
C1517 C1516 1.517 . S
C1517 O1565 1.468 . S
C1517 H1578 0.980 1_545 S
C1518 C1519 1.349 . S
C1518 C1523 1.367 . S
C1518 O1565 1.408 . S
C1519 C1518 1.349 . S
C1519 C1520 1.407 1_545 S
C1519 H1582 0.930 1_545 S
C1520 C1519 1.407 1_565 S
C1520 C1521 1.449 1_565 S
C1520 C1524 1.535 . S
C1521 C1520 1.449 1_545 S
C1521 C1522 1.384 . S
C1521 C1546 1.553 . S
C1522 C1521 1.384 . S
C1522 C1523 1.364 . S
C1522 C1525 1.450 . S
C1523 C1518 1.367 . S
C1523 C1522 1.364 . S
C1523 H1583 0.931 . S
C1524 C1520 1.535 . S
C1524 H1584 0.959 . S
C1524 H1585 0.961 . S
C1524 H1586 0.959 . S
C1525 C1522 1.450 . S
C1525 H1587 0.960 . S
C1525 H1588 0.960 . S
C1525 H1589 0.960 . S
C1526 C1527 1.309 . S
C1526 C1531 1.304 . S
C1526 O1564 1.435 . S
C1527 C1526 1.309 . S
C1527 C1528 1.481 1_545 S
C1527 H1591 0.930 1_545 S
C1528 C1527 1.481 1_565 S
C1528 C1529 1.382 1_565 S
C1528 C1532 1.580 . S
C1529 C1528 1.382 1_545 S
C1529 C1530 1.373 . S
C1529 C1551 1.432 . S
C1530 C1529 1.373 . S
C1530 C1531 1.339 . S
C1530 C1533 1.530 . S
C1531 C1526 1.304 . S
C1531 C1530 1.339 . S
C1531 H1592 0.930 . S
C1532 C1528 1.580 . S
C1532 H1593 0.961 . S
C1532 H1594 0.960 . S
C1532 H1595 0.958 . S
C1533 C1530 1.530 . S
C1533 H1596 0.961 . S
C1533 H1597 0.960 . S
C1533 H1598 0.960 . S
C1534 C1535 1.530 1_565 S
C1534 H1600 0.961 . S
C1534 H1601 0.961 . S
C1534 H1602 0.959 . S
C1535 C1534 1.530 1_545 S
C1535 O1563 1.412 1_545 S
C1535 H1599 0.980 . S
C1536 C1537 1.288 . S
C1536 C1541 1.377 1_565 S
C1536 O1563 1.393 . S
C1537 C1536 1.288 . S
C1537 C1538 1.369 . S
C1537 H1603 0.932 . S
C1538 C1537 1.369 . S
C1538 C1539 1.398 1_565 S
C1538 C1542 1.527 . S
C1539 C1538 1.398 1_545 S
C1539 C1540 1.380 . S
C1539 C1553 1.497 . S
C1540 C1539 1.380 . S
C1540 C1541 1.383 . S
C1540 C1543 1.603 . S
C1541 C1536 1.377 1_545 S
C1541 C1540 1.383 . S
C1541 H1604 0.929 . S
C1542 C1538 1.527 . S
C1542 H1605 0.961 . S
C1542 H1606 0.959 . S
C1542 H1607 0.959 . S
C1543 C1540 1.603 . S
C1543 H1608 0.960 . S
C1543 H1609 0.962 . S
C1543 H1610 0.961 . S
C1544 C1511 1.587 1_545 S
C1544 C1545 1.360 . S
C1544 C1557 1.412 . S
C1545 C1544 1.360 . S
C1545 C1546 1.365 . S
C1545 H1611 0.929 . S
C1546 C1521 1.553 . S
C1546 C1545 1.365 . S
C1546 C1547 1.404 . S
C1547 C1546 1.404 . S
C1547 C1548 1.395 . S
C1547 C1558 1.451 . S
C1548 C1547 1.395 . S
C1548 C1549 1.322 . S
C1548 H1612 0.930 . S
C1549 C1548 1.322 . S
C1549 C1550 1.459 . S
C1549 H1613 0.929 . S
C1550 C1549 1.459 . S
C1550 C1551 1.445 . S
C1550 C1559 1.395 . S
C1551 C1529 1.432 . S
C1551 C1550 1.445 . S
C1551 C1552 1.370 . S
C1552 C1551 1.370 . S
C1552 C1553 1.438 . S
C1552 H1614 0.930 . S
C1553 C1539 1.497 . S
C1553 C1552 1.438 . S
C1553 C1554 1.360 . S
C1554 C1553 1.360 . S
C1554 C1555 1.401 . S
C1554 C1559 1.446 . S
C1555 C1554 1.401 . S
C1555 C1556 1.347 . S
C1555 H1615 0.929 . S
C1556 C1555 1.347 . S
C1556 C1557 1.455 . S
C1556 H1616 0.930 . S
C1557 C1544 1.412 . S
C1557 C1556 1.455 . S
C1557 C1558 1.331 . S
C1558 C1547 1.451 . S
C1558 C1557 1.331 . S
C1558 C1559 1.497 . S
C1559 C1550 1.395 . S
C1559 C1554 1.446 . S
C1559 C1558 1.497 . S
C1560 C1561 1.582 . S
C1560 H1617 0.962 . S
C1560 H1618 0.959 . S
C1560 H1619 0.958 . S
C1561 C1560 1.582 . S
C1561 O1564 1.458 . S
C1561 H1590 0.980 . S
O1562 C1507 1.426 . S
O1562 C1508 1.334 . S
O1563 C1535 1.412 1_565 S
O1563 C1536 1.393 . S
O1564 C1526 1.435 . S
O1564 C1561 1.458 . S
O1565 C1517 1.468 . S
O1565 C1518 1.408 . S
H1566 C1507 0.980 . S
H1567 C1506 0.959 . S
H1568 C1506 0.959 . S
H1569 C1506 0.960 . S
H1570 C1509 0.929 . S
H1571 C1513 0.929 . S
H1572 C1514 0.959 . S
H1573 C1514 0.961 . S
H1574 C1514 0.961 . S
H1575 C1515 0.960 . S
H1576 C1515 0.960 . S
H1577 C1515 0.961 . S
H1578 C1517 0.980 1_565 S
H1579 C1516 0.907 1_565 S
H1580 C1516 0.960 . S
H1581 C1516 0.959 . S
H1582 C1519 0.930 1_565 S
H1583 C1523 0.931 . S
H1584 C1524 0.959 . S
H1585 C1524 0.961 . S
H1586 C1524 0.959 . S
H1587 C1525 0.960 . S
H1588 C1525 0.960 . S
H1589 C1525 0.960 . S
H1590 C1561 0.980 . S
H1591 C1527 0.930 1_565 S
H1592 C1531 0.930 . S
H1593 C1532 0.961 . S
H1594 C1532 0.960 . S
H1595 C1532 0.958 . S
H1596 C1533 0.961 . S
H1597 C1533 0.960 . S
H1598 C1533 0.960 . S
H1599 C1535 0.980 . S
H1600 C1534 0.961 . S
H1601 C1534 0.961 . S
H1602 C1534 0.959 . S
H1603 C1537 0.932 . S
H1604 C1541 0.929 . S
H1605 C1542 0.961 . S
H1606 C1542 0.959 . S
H1607 C1542 0.959 . S
H1608 C1543 0.960 . S
H1609 C1543 0.962 . S
H1610 C1543 0.961 . S
H1611 C1545 0.929 . S
H1612 C1548 0.930 . S
H1613 C1549 0.929 . S
H1614 C1552 0.930 . S
H1615 C1555 0.929 . S
H1616 C1556 0.930 . S
H1617 C1560 0.962 . S
H1618 C1560 0.959 . S
H1619 C1560 0.958 . S
C1620 C1621 1.560 . S
C1620 H1681 0.959 . S
C1620 H1682 0.959 . S
C1620 H1683 0.960 . S
C1621 C1620 1.560 . S
C1621 O1676 1.426 . S
C1621 H1680 0.980 1_565 S
C1622 C1623 1.407 1_565 S
C1622 C1627 1.418 . S
C1622 O1676 1.334 . S
C1623 C1622 1.407 1_545 S
C1623 C1624 1.360 . S
C1623 H1684 0.929 . S
C1624 C1623 1.360 . S
C1624 C1625 1.401 . S
C1624 C1628 1.527 . S
C1625 C1624 1.401 . S
C1625 C1626 1.405 1_545 S
C1625 C1658 1.587 . S
C1626 C1625 1.405 1_565 S
C1626 C1627 1.332 . S
C1626 C1629 1.496 . S
C1627 C1622 1.418 . S
C1627 C1626 1.332 . S
C1627 H1685 0.929 . S
C1628 C1624 1.527 . S
C1628 H1686 0.959 . S
C1628 H1687 0.961 . S
C1628 H1688 0.961 . S
C1629 C1626 1.496 . S
C1629 H1689 0.960 . S
C1629 H1690 0.960 . S
C1629 H1691 0.961 . S
C1630 C1631 1.517 . S
C1630 H1693 0.961 . S
C1630 H1694 0.960 . S
C1630 H1695 0.959 . S
C1631 C1630 1.517 . S
C1631 O1679 1.468 . S
C1631 H1692 0.980 . S
C1632 C1633 1.349 . S
C1632 C1637 1.367 . S
C1632 O1679 1.408 . S
C1633 C1632 1.349 . S
C1633 C1634 1.407 . S
C1633 H1696 0.913 1_545 S
C1634 C1633 1.407 . S
C1634 C1635 1.449 . S
C1634 C1638 1.535 1_545 S
C1635 C1634 1.449 . S
C1635 C1636 1.384 . S
C1635 C1660 1.553 . S
C1636 C1635 1.384 . S
C1636 C1637 1.364 . S
C1636 C1639 1.450 . S
C1637 C1632 1.367 . S
C1637 C1636 1.364 . S
C1637 H1697 0.931 . S
C1638 C1634 1.535 1_565 S
C1638 H1698 0.959 . S
C1638 H1699 0.961 . S
C1638 H1700 0.959 . S
C1639 C1636 1.450 . S
C1639 H1701 0.960 . S
C1639 H1702 0.960 . S
C1639 H1703 0.960 . S
C1640 C1641 1.309 1_545 S
C1640 C1645 1.304 . S
C1640 O1678 1.435 . S
C1641 C1640 1.309 1_565 S
C1641 C1642 1.476 . S
C1641 H1705 0.930 . S
C1642 C1641 1.476 . S
C1642 C1643 1.400 1_565 S
C1642 C1646 1.567 . S
C1643 C1642 1.400 1_545 S
C1643 C1644 1.373 . S
C1643 C1665 1.432 . S
C1644 C1643 1.373 . S
C1644 C1645 1.339 . S
C1644 C1647 1.530 . S
C1645 C1640 1.304 . S
C1645 C1644 1.339 . S
C1645 H1706 0.930 . S
C1646 C1642 1.567 . S
C1646 H1707 0.961 . S
C1646 H1708 0.960 . S
C1646 H1709 0.958 . S
C1647 C1644 1.530 . S
C1647 H1710 0.961 . S
C1647 H1711 0.960 . S
C1647 H1712 0.960 . S
C1648 C1649 1.530 . S
C1648 H1714 0.961 . S
C1648 H1715 0.961 . S
C1648 H1716 0.959 . S
C1649 C1648 1.530 . S
C1649 O1677 1.412 . S
C1649 H1713 0.979 . S
C1650 C1651 1.288 . S
C1650 C1655 1.377 1_565 S
C1650 O1677 1.393 . S
C1651 C1650 1.288 . S
C1651 C1652 1.369 . S
C1651 H1717 0.932 . S
C1652 C1651 1.369 . S
C1652 C1653 1.398 . S
C1652 C1656 1.527 . S
C1653 C1652 1.398 . S
C1653 C1654 1.380 1_565 S
C1653 C1667 1.497 1_565 S
C1654 C1653 1.380 1_545 S
C1654 C1655 1.383 . S
C1654 C1657 1.603 . S
C1655 C1650 1.377 1_545 S
C1655 C1654 1.383 . S
C1655 H1718 0.929 . S
C1656 C1652 1.527 . S
C1656 H1719 0.961 . S
C1656 H1720 0.959 . S
C1656 H1721 0.959 . S
C1657 C1654 1.603 . S
C1657 H1722 0.960 . S
C1657 H1723 0.962 . S
C1657 H1724 0.961 . S
C1658 C1625 1.587 . S
C1658 C1659 1.360 . S
C1658 C1671 1.412 . S
C1659 C1658 1.360 . S
C1659 C1660 1.365 . S
C1659 H1725 0.929 . S
C1660 C1635 1.553 . S
C1660 C1659 1.365 . S
C1660 C1661 1.404 . S
C1661 C1660 1.404 . S
C1661 C1662 1.395 . S
C1661 C1672 1.451 . S
C1662 C1661 1.395 . S
C1662 C1663 1.322 . S
C1662 H1726 0.930 . S
C1663 C1662 1.322 . S
C1663 C1664 1.459 . S
C1663 H1727 0.929 . S
C1664 C1663 1.459 . S
C1664 C1665 1.445 . S
C1664 C1673 1.395 . S
C1665 C1643 1.432 . S
C1665 C1664 1.445 . S
C1665 C1666 1.370 . S
C1666 C1665 1.370 . S
C1666 C1667 1.438 . S
C1666 H1728 0.930 . S
C1667 C1653 1.497 1_545 S
C1667 C1666 1.438 . S
C1667 C1668 1.360 . S
C1668 C1667 1.360 . S
C1668 C1669 1.401 . S
C1668 C1673 1.446 . S
C1669 C1668 1.401 . S
C1669 C1670 1.347 . S
C1669 H1729 0.929 . S
C1670 C1669 1.347 . S
C1670 C1671 1.455 . S
C1670 H1730 0.930 . S
C1671 C1658 1.412 . S
C1671 C1670 1.455 . S
C1671 C1672 1.331 . S
C1672 C1661 1.451 . S
C1672 C1671 1.331 . S
C1672 C1673 1.497 . S
C1673 C1664 1.395 . S
C1673 C1668 1.446 . S
C1673 C1672 1.497 . S
C1674 C1675 1.621 . S
C1674 H1731 0.962 . S
C1674 H1732 0.959 . S
C1674 H1733 0.958 . S
C1675 C1674 1.621 . S
C1675 O1678 1.474 . S
C1675 H1704 0.981 1_545 S
O1676 C1621 1.426 . S
O1676 C1622 1.334 . S
O1677 C1649 1.412 . S
O1677 C1650 1.393 . S
O1678 C1640 1.435 . S
O1678 C1675 1.474 . S
O1679 C1631 1.468 . S
O1679 C1632 1.408 . S
H1680 C1621 0.980 1_545 S
H1681 C1620 0.959 . S
H1682 C1620 0.959 . S
H1683 C1620 0.960 . S
H1684 C1623 0.929 . S
H1685 C1627 0.929 . S
H1686 C1628 0.959 . S
H1687 C1628 0.961 . S
H1688 C1628 0.961 . S
H1689 C1629 0.960 . S
H1690 C1629 0.960 . S
H1691 C1629 0.961 . S
H1692 C1631 0.980 . S
H1693 C1630 0.961 . S
H1694 C1630 0.960 . S
H1695 C1630 0.959 . S
H1696 C1633 0.913 1_565 S
H1697 C1637 0.931 . S
H1698 C1638 0.959 . S
H1699 C1638 0.961 . S
H1700 C1638 0.959 . S
H1701 C1639 0.960 . S
H1702 C1639 0.960 . S
H1703 C1639 0.960 . S
H1704 C1675 0.981 1_565 S
H1705 C1641 0.930 . S
H1706 C1645 0.930 . S
H1707 C1646 0.961 . S
H1708 C1646 0.960 . S
H1709 C1646 0.958 . S
H1710 C1647 0.961 . S
H1711 C1647 0.960 . S
H1712 C1647 0.960 . S
H1713 C1649 0.979 . S
H1714 C1648 0.961 . S
H1715 C1648 0.961 . S
H1716 C1648 0.959 . S
H1717 C1651 0.932 . S
H1718 C1655 0.929 . S
H1719 C1656 0.961 . S
H1720 C1656 0.959 . S
H1721 C1656 0.959 . S
H1722 C1657 0.960 . S
H1723 C1657 0.962 . S
H1724 C1657 0.961 . S
H1725 C1659 0.929 . S
H1726 C1662 0.930 . S
H1727 C1663 0.929 . S
H1728 C1666 0.930 . S
H1729 C1669 0.929 . S
H1730 C1670 0.930 . S
H1731 C1674 0.962 . S
H1732 C1674 0.959 . S
H1733 C1674 0.958 . S
C1734 C1735 1.560 . S
C1734 H1795 0.959 . S
C1734 H1796 0.959 . S
C1734 H1797 0.960 . S
C1735 C1734 1.560 . S
C1735 O1790 1.426 . S
C1735 H1794 0.980 1_455 S
C1736 C1737 1.407 1_455 S
C1736 C1741 1.418 . S
C1736 O1790 1.334 . S
C1737 C1736 1.407 1_655 S
C1737 C1738 1.360 . S
C1737 H1798 0.929 . S
C1738 C1737 1.360 . S
C1738 C1739 1.401 . S
C1738 C1742 1.527 . S
C1739 C1738 1.401 . S
C1739 C1740 1.405 1_655 S
C1739 C1772 1.587 . S
C1740 C1739 1.405 1_455 S
C1740 C1741 1.332 . S
C1740 C1743 1.496 . S
C1741 C1736 1.418 . S
C1741 C1740 1.332 . S
C1741 H1799 0.929 . S
C1742 C1738 1.527 . S
C1742 H1800 0.959 . S
C1742 H1801 0.961 . S
C1742 H1802 0.961 . S
C1743 C1740 1.496 . S
C1743 H1803 0.960 . S
C1743 H1804 0.960 . S
C1743 H1805 0.961 . S
C1744 C1745 1.517 . S
C1744 H1807 0.961 . S
C1744 H1808 0.960 . S
C1744 H1809 0.959 . S
C1745 C1744 1.517 . S
C1745 O1793 1.468 . S
C1745 H1806 0.980 . S
C1746 C1747 1.349 . S
C1746 C1751 1.367 . S
C1746 O1793 1.408 . S
C1747 C1746 1.349 . S
C1747 C1748 1.407 . S
C1747 H1810 0.899 1_655 S
C1748 C1747 1.407 . S
C1748 C1749 1.449 . S
C1748 C1752 1.535 1_655 S
C1749 C1748 1.449 . S
C1749 C1750 1.384 . S
C1749 C1774 1.553 . S
C1750 C1749 1.384 . S
C1750 C1751 1.364 . S
C1750 C1753 1.450 . S
C1751 C1746 1.367 . S
C1751 C1750 1.364 . S
C1751 H1811 0.931 . S
C1752 C1748 1.535 1_455 S
C1752 H1812 0.959 . S
C1752 H1813 0.961 . S
C1752 H1814 0.959 . S
C1753 C1750 1.450 . S
C1753 H1815 0.960 . S
C1753 H1816 0.960 . S
C1753 H1817 0.960 . S
C1754 C1755 1.309 1_655 S
C1754 C1759 1.304 . S
C1754 O1792 1.435 . S
C1755 C1754 1.309 1_455 S
C1755 C1756 1.476 . S
C1755 H1819 0.930 . S
C1756 C1755 1.476 . S
C1756 C1757 1.400 1_455 S
C1756 C1760 1.567 . S
C1757 C1756 1.400 1_655 S
C1757 C1758 1.373 . S
C1757 C1779 1.432 . S
C1758 C1757 1.373 . S
C1758 C1759 1.339 . S
C1758 C1761 1.530 . S
C1759 C1754 1.304 . S
C1759 C1758 1.339 . S
C1759 H1820 0.930 . S
C1760 C1756 1.567 . S
C1760 H1821 0.961 . S
C1760 H1822 0.960 . S
C1760 H1823 0.958 . S
C1761 C1758 1.530 . S
C1761 H1824 0.961 . S
C1761 H1825 0.960 . S
C1761 H1826 0.960 . S
C1762 C1763 1.530 . S
C1762 H1828 0.961 . S
C1762 H1829 0.961 . S
C1762 H1830 0.959 . S
C1763 C1762 1.530 . S
C1763 O1791 1.412 . S
C1763 H1827 0.977 1_455 S
C1764 C1765 1.288 . S
C1764 C1769 1.377 1_455 S
C1764 O1791 1.393 . S
C1765 C1764 1.288 . S
C1765 C1766 1.369 . S
C1765 H1831 0.932 . S
C1766 C1765 1.369 . S
C1766 C1767 1.398 . S
C1766 C1770 1.527 . S
C1767 C1766 1.398 . S
C1767 C1768 1.380 1_455 S
C1767 C1781 1.497 1_455 S
C1768 C1767 1.380 1_655 S
C1768 C1769 1.383 . S
C1768 C1771 1.603 . S
C1769 C1764 1.377 1_655 S
C1769 C1768 1.383 . S
C1769 H1832 0.929 . S
C1770 C1766 1.527 . S
C1770 H1833 0.961 . S
C1770 H1834 0.959 . S
C1770 H1835 0.959 . S
C1771 C1768 1.603 . S
C1771 H1836 0.960 . S
C1771 H1837 0.962 . S
C1771 H1838 0.961 . S
C1772 C1739 1.587 . S
C1772 C1773 1.360 . S
C1772 C1785 1.412 . S
C1773 C1772 1.360 . S
C1773 C1774 1.365 . S
C1773 H1839 0.929 . S
C1774 C1749 1.553 . S
C1774 C1773 1.365 . S
C1774 C1775 1.404 . S
C1775 C1774 1.404 . S
C1775 C1776 1.395 . S
C1775 C1786 1.451 . S
C1776 C1775 1.395 . S
C1776 C1777 1.322 . S
C1776 H1840 0.930 . S
C1777 C1776 1.322 . S
C1777 C1778 1.459 . S
C1777 H1841 0.929 . S
C1778 C1777 1.459 . S
C1778 C1779 1.445 . S
C1778 C1787 1.395 . S
C1779 C1757 1.432 . S
C1779 C1778 1.445 . S
C1779 C1780 1.370 . S
C1780 C1779 1.370 . S
C1780 C1781 1.438 . S
C1780 H1842 0.930 . S
C1781 C1767 1.497 1_655 S
C1781 C1780 1.438 . S
C1781 C1782 1.360 . S
C1782 C1781 1.360 . S
C1782 C1783 1.401 . S
C1782 C1787 1.446 . S
C1783 C1782 1.401 . S
C1783 C1784 1.347 . S
C1783 H1843 0.929 . S
C1784 C1783 1.347 . S
C1784 C1785 1.455 . S
C1784 H1844 0.930 . S
C1785 C1772 1.412 . S
C1785 C1784 1.455 . S
C1785 C1786 1.331 . S
C1786 C1775 1.451 . S
C1786 C1785 1.331 . S
C1786 C1787 1.497 . S
C1787 C1778 1.395 . S
C1787 C1782 1.446 . S
C1787 C1786 1.497 . S
C1788 C1789 1.582 1_655 S
C1788 H1845 0.956 1_655 S
C1788 H1846 0.959 . S
C1788 H1847 0.958 . S
C1789 C1788 1.582 1_455 S
C1789 O1792 1.458 1_455 S
C1789 H1818 0.980 . S
O1790 C1735 1.426 . S
O1790 C1736 1.334 . S
O1791 C1763 1.412 . S
O1791 C1764 1.393 . S
O1792 C1754 1.435 . S
O1792 C1789 1.458 1_655 S
O1793 C1745 1.468 . S
O1793 C1746 1.408 . S
H1794 C1735 0.980 1_655 S
H1795 C1734 0.959 . S
H1796 C1734 0.959 . S
H1797 C1734 0.960 . S
H1798 C1737 0.929 . S
H1799 C1741 0.929 . S
H1800 C1742 0.959 . S
H1801 C1742 0.961 . S
H1802 C1742 0.961 . S
H1803 C1743 0.960 . S
H1804 C1743 0.960 . S
H1805 C1743 0.961 . S
H1806 C1745 0.980 . S
H1807 C1744 0.961 . S
H1808 C1744 0.960 . S
H1809 C1744 0.959 . S
H1810 C1747 0.899 1_455 S
H1811 C1751 0.931 . S
H1812 C1752 0.959 . S
H1813 C1752 0.961 . S
H1814 C1752 0.959 . S
H1815 C1753 0.960 . S
H1816 C1753 0.960 . S
H1817 C1753 0.960 . S
H1818 C1789 0.980 . S
H1819 C1755 0.930 . S
H1820 C1759 0.930 . S
H1821 C1760 0.961 . S
H1822 C1760 0.960 . S
H1823 C1760 0.958 . S
H1824 C1761 0.961 . S
H1825 C1761 0.960 . S
H1826 C1761 0.960 . S
H1827 C1763 0.977 1_655 S
H1828 C1762 0.961 . S
H1829 C1762 0.961 . S
H1830 C1762 0.959 . S
H1831 C1765 0.932 . S
H1832 C1769 0.929 . S
H1833 C1770 0.961 . S
H1834 C1770 0.959 . S
H1835 C1770 0.959 . S
H1836 C1771 0.960 . S
H1837 C1771 0.962 . S
H1838 C1771 0.961 . S
H1839 C1773 0.929 . S
H1840 C1776 0.930 . S
H1841 C1777 0.929 . S
H1842 C1780 0.930 . S
H1843 C1783 0.929 . S
H1844 C1784 0.930 . S
H1845 C1788 0.956 1_455 S
H1846 C1788 0.959 . S
H1847 C1788 0.958 . S
C1848 C1849 1.560 . S
C1848 H1909 0.959 . S
C1848 H1910 0.959 . S
C1848 H1911 0.960 . S
C1849 C1848 1.560 . S
C1849 O1904 1.426 . S
C1849 H1908 0.980 . S
C1850 C1851 1.407 . S
C1850 C1855 1.418 . S
C1850 O1904 1.334 . S
C1851 C1850 1.407 . S
C1851 C1852 1.360 . S
C1851 H1912 0.929 . S
C1852 C1851 1.360 . S
C1852 C1853 1.401 . S
C1852 C1856 1.527 . S
C1853 C1852 1.401 . S
C1853 C1854 1.405 . S
C1853 C1886 1.587 . S
C1854 C1853 1.405 . S
C1854 C1855 1.332 . S
C1854 C1857 1.496 . S
C1855 C1850 1.418 . S
C1855 C1854 1.332 . S
C1855 H1913 0.929 . S
C1856 C1852 1.527 . S
C1856 H1914 0.959 . S
C1856 H1915 0.961 . S
C1856 H1916 0.961 . S
C1857 C1854 1.496 . S
C1857 H1917 0.960 . S
C1857 H1918 0.960 . S
C1857 H1919 0.961 . S
C1858 C1859 1.517 . S
C1858 H1921 0.961 . S
C1858 H1922 0.960 . S
C1858 H1923 0.959 . S
C1859 C1858 1.517 . S
C1859 O1907 1.468 . S
C1859 H1920 0.980 . S
C1860 C1861 1.349 . S
C1860 C1865 1.367 . S
C1860 O1907 1.408 . S
C1861 C1860 1.349 . S
C1861 C1862 1.407 . S
C1861 H1924 0.930 . S
C1862 C1861 1.407 . S
C1862 C1863 1.449 . S
C1862 C1866 1.535 . S
C1863 C1862 1.449 . S
C1863 C1864 1.384 . S
C1863 C1888 1.553 . S
C1864 C1863 1.384 . S
C1864 C1865 1.364 . S
C1864 C1867 1.450 . S
C1865 C1860 1.367 . S
C1865 C1864 1.364 . S
C1865 H1925 0.931 . S
C1866 C1862 1.535 . S
C1866 H1926 0.959 . S
C1866 H1927 0.961 . S
C1866 H1928 0.959 . S
C1867 C1864 1.450 . S
C1867 H1929 0.960 . S
C1867 H1930 0.960 . S
C1867 H1931 0.960 . S
C1868 C1869 1.309 . S
C1868 C1873 1.304 . S
C1868 O1906 1.435 . S
C1869 C1868 1.309 . S
C1869 C1870 1.476 . S
C1869 H1933 0.930 . S
C1870 C1869 1.476 . S
C1870 C1871 1.400 . S
C1870 C1874 1.567 . S
C1871 C1870 1.400 . S
C1871 C1872 1.373 . S
C1871 C1893 1.432 . S
C1872 C1871 1.373 . S
C1872 C1873 1.339 . S
C1872 C1875 1.530 . S
C1873 C1868 1.304 . S
C1873 C1872 1.339 . S
C1873 H1934 0.930 . S
C1874 C1870 1.567 . S
C1874 H1935 0.961 . S
C1874 H1936 0.960 . S
C1874 H1937 0.958 . S
C1875 C1872 1.530 . S
C1875 H1938 0.961 . S
C1875 H1939 0.960 . S
C1875 H1940 0.960 . S
C1876 C1877 1.530 . S
C1876 H1942 0.961 . S
C1876 H1943 0.961 . S
C1876 H1944 0.959 . S
C1877 C1876 1.530 . S
C1877 O1905 1.412 . S
C1877 H1941 0.980 . S
C1878 C1879 1.288 . S
C1878 C1883 1.377 . S
C1878 O1905 1.393 . S
C1879 C1878 1.288 . S
C1879 C1880 1.369 . S
C1879 H1945 0.932 . S
C1880 C1879 1.369 . S
C1880 C1881 1.398 . S
C1880 C1884 1.527 . S
C1881 C1880 1.398 . S
C1881 C1882 1.380 . S
C1881 C1895 1.497 . S
C1882 C1881 1.380 . S
C1882 C1883 1.383 . S
C1882 C1885 1.603 . S
C1883 C1878 1.377 . S
C1883 C1882 1.383 . S
C1883 H1946 0.929 . S
C1884 C1880 1.527 . S
C1884 H1947 0.961 . S
C1884 H1948 0.959 . S
C1884 H1949 0.959 . S
C1885 C1882 1.603 . S
C1885 H1950 0.960 . S
C1885 H1951 0.962 . S
C1885 H1952 0.961 . S
C1886 C1853 1.587 . S
C1886 C1887 1.360 . S
C1886 C1899 1.412 . S
C1887 C1886 1.360 . S
C1887 C1888 1.365 . S
C1887 H1953 0.929 . S
C1888 C1863 1.553 . S
C1888 C1887 1.365 . S
C1888 C1889 1.404 . S
C1889 C1888 1.404 . S
C1889 C1890 1.395 . S
C1889 C1900 1.451 . S
C1890 C1889 1.395 . S
C1890 C1891 1.322 . S
C1890 H1954 0.930 . S
C1891 C1890 1.322 . S
C1891 C1892 1.459 . S
C1891 H1955 0.929 . S
C1892 C1891 1.459 . S
C1892 C1893 1.445 . S
C1892 C1901 1.395 . S
C1893 C1871 1.432 . S
C1893 C1892 1.445 . S
C1893 C1894 1.370 . S
C1894 C1893 1.370 . S
C1894 C1895 1.438 . S
C1894 H1956 0.930 . S
C1895 C1881 1.497 . S
C1895 C1894 1.438 . S
C1895 C1896 1.360 . S
C1896 C1895 1.360 . S
C1896 C1897 1.401 . S
C1896 C1901 1.446 . S
C1897 C1896 1.401 . S
C1897 C1898 1.347 . S
C1897 H1957 0.929 . S
C1898 C1897 1.347 . S
C1898 C1899 1.455 . S
C1898 H1958 0.930 . S
C1899 C1886 1.412 . S
C1899 C1898 1.455 . S
C1899 C1900 1.331 . S
C1900 C1889 1.451 . S
C1900 C1899 1.331 . S
C1900 C1901 1.497 . S
C1901 C1892 1.395 . S
C1901 C1896 1.446 . S
C1901 C1900 1.497 . S
C1902 C1903 1.582 . S
C1902 H1959 0.962 . S
C1902 H1960 0.959 . S
C1902 H1961 0.958 . S
C1903 C1902 1.582 . S
C1903 O1906 1.458 . S
C1903 H1932 0.980 . S
O1904 C1849 1.426 . S
O1904 C1850 1.334 . S
O1905 C1877 1.412 . S
O1905 C1878 1.393 . S
O1906 C1868 1.435 . S
O1906 C1903 1.458 . S
O1907 C1859 1.468 . S
O1907 C1860 1.408 . S
H1908 C1849 0.980 . S
H1909 C1848 0.959 . S
H1910 C1848 0.959 . S
H1911 C1848 0.960 . S
H1912 C1851 0.929 . S
H1913 C1855 0.929 . S
H1914 C1856 0.959 . S
H1915 C1856 0.961 . S
H1916 C1856 0.961 . S
H1917 C1857 0.960 . S
H1918 C1857 0.960 . S
H1919 C1857 0.961 . S
H1920 C1859 0.980 . S
H1921 C1858 0.961 . S
H1922 C1858 0.960 . S
H1923 C1858 0.959 . S
H1924 C1861 0.930 . S
H1925 C1865 0.931 . S
H1926 C1866 0.959 . S
H1927 C1866 0.961 . S
H1928 C1866 0.959 . S
H1929 C1867 0.960 . S
H1930 C1867 0.960 . S
H1931 C1867 0.960 . S
H1932 C1903 0.980 . S
H1933 C1869 0.930 . S
H1934 C1873 0.930 . S
H1935 C1874 0.961 . S
H1936 C1874 0.960 . S
H1937 C1874 0.958 . S
H1938 C1875 0.961 . S
H1939 C1875 0.960 . S
H1940 C1875 0.960 . S
H1941 C1877 0.980 . S
H1942 C1876 0.961 . S
H1943 C1876 0.961 . S
H1944 C1876 0.959 . S
H1945 C1879 0.932 . S
H1946 C1883 0.929 . S
H1947 C1884 0.961 . S
H1948 C1884 0.959 . S
H1949 C1884 0.959 . S
H1950 C1885 0.960 . S
H1951 C1885 0.962 . S
H1952 C1885 0.961 . S
H1953 C1887 0.929 . S
H1954 C1890 0.930 . S
H1955 C1891 0.929 . S
H1956 C1894 0.930 . S
H1957 C1897 0.929 . S
H1958 C1898 0.930 . S
H1959 C1902 0.962 . S
H1960 C1902 0.959 . S
H1961 C1902 0.958 . S
C1962 C1963 1.560 . S
C1962 H2023 0.959 . S
C1962 H2024 0.959 . S
C1962 H2025 0.960 . S
C1963 C1962 1.560 . S
C1963 O2018 1.426 . S
C1963 H2022 0.980 . S
C1964 C1965 1.407 . S
C1964 C1969 1.418 . S
C1964 O2018 1.334 . S
C1965 C1964 1.407 . S
C1965 C1966 1.360 . S
C1965 H2026 0.929 . S
C1966 C1965 1.360 . S
C1966 C1967 1.401 . S
C1966 C1970 1.527 . S
C1967 C1966 1.401 . S
C1967 C1968 1.405 . S
C1967 C2000 1.587 . S
C1968 C1967 1.405 . S
C1968 C1969 1.332 . S
C1968 C1971 1.496 . S
C1969 C1964 1.418 . S
C1969 C1968 1.332 . S
C1969 H2027 0.929 . S
C1970 C1966 1.527 . S
C1970 H2028 0.959 . S
C1970 H2029 0.961 . S
C1970 H2030 0.961 . S
C1971 C1968 1.496 . S
C1971 H2031 0.960 . S
C1971 H2032 0.960 . S
C1971 H2033 0.961 . S
C1972 C1973 1.517 . S
C1972 H2035 0.961 . S
C1972 H2036 0.960 . S
C1972 H2037 0.959 . S
C1973 C1972 1.517 . S
C1973 O2021 1.468 . S
C1973 H2034 0.980 . S
C1974 C1975 1.349 . S
C1974 C1979 1.367 . S
C1974 O2021 1.408 . S
C1975 C1974 1.349 . S
C1975 C1976 1.407 . S
C1975 H2038 0.930 . S
C1976 C1975 1.407 . S
C1976 C1977 1.449 . S
C1976 C1980 1.535 . S
C1977 C1976 1.449 . S
C1977 C1978 1.384 . S
C1977 C2002 1.553 . S
C1978 C1977 1.384 . S
C1978 C1979 1.364 . S
C1978 C1981 1.450 . S
C1979 C1974 1.367 . S
C1979 C1978 1.364 . S
C1979 H2039 0.931 . S
C1980 C1976 1.535 . S
C1980 H2040 0.959 . S
C1980 H2041 0.961 . S
C1980 H2042 0.959 . S
C1981 C1978 1.450 . S
C1981 H2043 0.960 . S
C1981 H2044 0.960 . S
C1981 H2045 0.960 . S
C1982 C1983 1.309 . S
C1982 C1987 1.304 . S
C1982 O2020 1.435 . S
C1983 C1982 1.309 . S
C1983 C1984 1.476 . S
C1983 H2047 0.930 . S
C1984 C1983 1.476 . S
C1984 C1985 1.400 . S
C1984 C1988 1.567 . S
C1985 C1984 1.400 . S
C1985 C1986 1.373 . S
C1985 C2007 1.432 . S
C1986 C1985 1.373 . S
C1986 C1987 1.339 . S
C1986 C1989 1.530 . S
C1987 C1982 1.304 . S
C1987 C1986 1.339 . S
C1987 H2048 0.930 . S
C1988 C1984 1.567 . S
C1988 H2049 0.961 . S
C1988 H2050 0.960 . S
C1988 H2051 0.958 . S
C1989 C1986 1.530 . S
C1989 H2052 0.961 . S
C1989 H2053 0.960 . S
C1989 H2054 0.960 . S
C1990 C1991 1.530 . S
C1990 H2056 0.961 . S
C1990 H2057 0.961 . S
C1990 H2058 0.959 . S
C1991 C1990 1.530 . S
C1991 O2019 1.412 . S
C1991 H2055 0.980 . S
C1992 C1993 1.288 . S
C1992 C1997 1.377 . S
C1992 O2019 1.393 . S
C1993 C1992 1.288 . S
C1993 C1994 1.369 . S
C1993 H2059 0.932 . S
C1994 C1993 1.369 . S
C1994 C1995 1.398 . S
C1994 C1998 1.527 . S
C1995 C1994 1.398 . S
C1995 C1996 1.380 . S
C1995 C2009 1.497 . S
C1996 C1995 1.380 . S
C1996 C1997 1.383 . S
C1996 C1999 1.603 . S
C1997 C1992 1.377 . S
C1997 C1996 1.383 . S
C1997 H2060 0.929 . S
C1998 C1994 1.527 . S
C1998 H2061 0.961 . S
C1998 H2062 0.959 . S
C1998 H2063 0.959 . S
C1999 C1996 1.603 . S
C1999 H2064 0.960 . S
C1999 H2065 0.962 . S
C1999 H2066 0.961 . S
C2000 C1967 1.587 . S
C2000 C2001 1.360 . S
C2000 C2013 1.412 . S
C2001 C2000 1.360 . S
C2001 C2002 1.365 . S
C2001 H2067 0.929 . S
C2002 C1977 1.553 . S
C2002 C2001 1.365 . S
C2002 C2003 1.404 . S
C2003 C2002 1.404 . S
C2003 C2004 1.395 . S
C2003 C2014 1.451 . S
C2004 C2003 1.395 . S
C2004 C2005 1.322 . S
C2004 H2068 0.930 . S
C2005 C2004 1.322 . S
C2005 C2006 1.459 . S
C2005 H2069 0.929 . S
C2006 C2005 1.459 . S
C2006 C2007 1.445 . S
C2006 C2015 1.395 . S
C2007 C1985 1.432 . S
C2007 C2006 1.445 . S
C2007 C2008 1.370 . S
C2008 C2007 1.370 . S
C2008 C2009 1.438 . S
C2008 H2070 0.930 . S
C2009 C1995 1.497 . S
C2009 C2008 1.438 . S
C2009 C2010 1.360 . S
C2010 C2009 1.360 . S
C2010 C2011 1.401 . S
C2010 C2015 1.446 . S
C2011 C2010 1.401 . S
C2011 C2012 1.347 . S
C2011 H2071 0.929 . S
C2012 C2011 1.347 . S
C2012 C2013 1.455 . S
C2012 H2072 0.930 . S
C2013 C2000 1.412 . S
C2013 C2012 1.455 . S
C2013 C2014 1.331 . S
C2014 C2003 1.451 . S
C2014 C2013 1.331 . S
C2014 C2015 1.497 . S
C2015 C2006 1.395 . S
C2015 C2010 1.446 . S
C2015 C2014 1.497 . S
C2016 C2017 1.582 . S
C2016 H2073 0.962 . S
C2016 H2074 0.959 . S
C2016 H2075 0.958 . S
C2017 C2016 1.582 . S
C2017 O2020 1.458 . S
C2017 H2046 0.980 . S
O2018 C1963 1.426 . S
O2018 C1964 1.334 . S
O2019 C1991 1.412 . S
O2019 C1992 1.393 . S
O2020 C1982 1.435 . S
O2020 C2017 1.458 . S
O2021 C1973 1.468 . S
O2021 C1974 1.408 . S
H2022 C1963 0.980 . S
H2023 C1962 0.959 . S
H2024 C1962 0.959 . S
H2025 C1962 0.960 . S
H2026 C1965 0.929 . S
H2027 C1969 0.929 . S
H2028 C1970 0.959 . S
H2029 C1970 0.961 . S
H2030 C1970 0.961 . S
H2031 C1971 0.960 . S
H2032 C1971 0.960 . S
H2033 C1971 0.961 . S
H2034 C1973 0.980 . S
H2035 C1972 0.961 . S
H2036 C1972 0.960 . S
H2037 C1972 0.959 . S
H2038 C1975 0.930 . S
H2039 C1979 0.931 . S
H2040 C1980 0.959 . S
H2041 C1980 0.961 . S
H2042 C1980 0.959 . S
H2043 C1981 0.960 . S
H2044 C1981 0.960 . S
H2045 C1981 0.960 . S
H2046 C2017 0.980 . S
H2047 C1983 0.930 . S
H2048 C1987 0.930 . S
H2049 C1988 0.961 . S
H2050 C1988 0.960 . S
H2051 C1988 0.958 . S
H2052 C1989 0.961 . S
H2053 C1989 0.960 . S
H2054 C1989 0.960 . S
H2055 C1991 0.980 . S
H2056 C1990 0.961 . S
H2057 C1990 0.961 . S
H2058 C1990 0.959 . S
H2059 C1993 0.932 . S
H2060 C1997 0.929 . S
H2061 C1998 0.961 . S
H2062 C1998 0.959 . S
H2063 C1998 0.959 . S
H2064 C1999 0.960 . S
H2065 C1999 0.962 . S
H2066 C1999 0.961 . S
H2067 C2001 0.929 . S
H2068 C2004 0.930 . S
H2069 C2005 0.929 . S
H2070 C2008 0.930 . S
H2071 C2011 0.929 . S
H2072 C2012 0.930 . S
H2073 C2016 0.962 . S
H2074 C2016 0.959 . S
H2075 C2016 0.958 . S
C2076 C2077 1.560 . S
C2076 H2137 0.959 . S
C2076 H2138 0.959 . S
C2076 H2139 0.960 . S
C2077 C2076 1.560 . S
C2077 O2132 1.426 . S
C2077 H2136 0.980 . S
C2078 C2079 1.407 . S
C2078 C2083 1.418 . S
C2078 O2132 1.334 . S
C2079 C2078 1.407 . S
C2079 C2080 1.360 . S
C2079 H2140 0.929 . S
C2080 C2079 1.360 . S
C2080 C2081 1.401 . S
C2080 C2084 1.527 . S
C2081 C2080 1.401 . S
C2081 C2082 1.405 . S
C2081 C2114 1.587 . S
C2082 C2081 1.405 . S
C2082 C2083 1.332 . S
C2082 C2085 1.496 . S
C2083 C2078 1.418 . S
C2083 C2082 1.332 . S
C2083 H2141 0.929 . S
C2084 C2080 1.527 . S
C2084 H2142 0.959 . S
C2084 H2143 0.961 . S
C2084 H2144 0.961 . S
C2085 C2082 1.496 . S
C2085 H2145 0.960 . S
C2085 H2146 0.960 . S
C2085 H2147 0.961 . S
C2086 C2087 1.517 . S
C2086 H2149 0.961 . S
C2086 H2150 0.960 . S
C2086 H2151 0.959 . S
C2087 C2086 1.517 . S
C2087 O2135 1.468 . S
C2087 H2148 0.980 . S
C2088 C2089 1.349 . S
C2088 C2093 1.367 . S
C2088 O2135 1.408 . S
C2089 C2088 1.349 . S
C2089 C2090 1.407 . S
C2089 H2152 0.930 . S
C2090 C2089 1.407 . S
C2090 C2091 1.449 . S
C2090 C2094 1.535 . S
C2091 C2090 1.449 . S
C2091 C2092 1.384 . S
C2091 C2116 1.553 . S
C2092 C2091 1.384 . S
C2092 C2093 1.364 . S
C2092 C2095 1.450 . S
C2093 C2088 1.367 . S
C2093 C2092 1.364 . S
C2093 H2153 0.931 . S
C2094 C2090 1.535 . S
C2094 H2154 0.959 . S
C2094 H2155 0.961 . S
C2094 H2156 0.959 . S
C2095 C2092 1.450 . S
C2095 H2157 0.960 . S
C2095 H2158 0.960 . S
C2095 H2159 0.960 . S
C2096 C2097 1.309 . S
C2096 C2101 1.304 . S
C2096 O2134 1.435 . S
C2097 C2096 1.309 . S
C2097 C2098 1.476 . S
C2097 H2161 0.930 . S
C2098 C2097 1.476 . S
C2098 C2099 1.400 . S
C2098 C2102 1.567 . S
C2099 C2098 1.400 . S
C2099 C2100 1.373 . S
C2099 C2121 1.432 . S
C2100 C2099 1.373 . S
C2100 C2101 1.339 . S
C2100 C2103 1.530 . S
C2101 C2096 1.304 . S
C2101 C2100 1.339 . S
C2101 H2162 0.930 . S
C2102 C2098 1.567 . S
C2102 H2163 0.961 . S
C2102 H2164 0.960 . S
C2102 H2165 0.958 . S
C2103 C2100 1.530 . S
C2103 H2166 0.961 . S
C2103 H2167 0.960 . S
C2103 H2168 0.960 . S
C2104 C2105 1.530 . S
C2104 H2170 0.961 . S
C2104 H2171 0.961 . S
C2104 H2172 0.959 . S
C2105 C2104 1.530 . S
C2105 O2133 1.412 . S
C2105 H2169 0.980 . S
C2106 C2107 1.288 . S
C2106 C2111 1.377 . S
C2106 O2133 1.393 . S
C2107 C2106 1.288 . S
C2107 C2108 1.369 . S
C2107 H2173 0.932 . S
C2108 C2107 1.369 . S
C2108 C2109 1.398 . S
C2108 C2112 1.527 . S
C2109 C2108 1.398 . S
C2109 C2110 1.380 . S
C2109 C2123 1.497 . S
C2110 C2109 1.380 . S
C2110 C2111 1.383 . S
C2110 C2113 1.603 . S
C2111 C2106 1.377 . S
C2111 C2110 1.383 . S
C2111 H2174 0.929 . S
C2112 C2108 1.527 . S
C2112 H2175 0.961 . S
C2112 H2176 0.959 . S
C2112 H2177 0.959 . S
C2113 C2110 1.603 . S
C2113 H2178 0.960 . S
C2113 H2179 0.962 . S
C2113 H2180 0.961 . S
C2114 C2081 1.587 . S
C2114 C2115 1.360 . S
C2114 C2127 1.412 . S
C2115 C2114 1.360 . S
C2115 C2116 1.365 . S
C2115 H2181 0.929 . S
C2116 C2091 1.553 . S
C2116 C2115 1.365 . S
C2116 C2117 1.404 . S
C2117 C2116 1.404 . S
C2117 C2118 1.395 . S
C2117 C2128 1.451 . S
C2118 C2117 1.395 . S
C2118 C2119 1.322 . S
C2118 H2182 0.930 . S
C2119 C2118 1.322 . S
C2119 C2120 1.459 . S
C2119 H2183 0.929 . S
C2120 C2119 1.459 . S
C2120 C2121 1.445 . S
C2120 C2129 1.395 . S
C2121 C2099 1.432 . S
C2121 C2120 1.445 . S
C2121 C2122 1.370 . S
C2122 C2121 1.370 . S
C2122 C2123 1.438 . S
C2122 H2184 0.930 . S
C2123 C2109 1.497 . S
C2123 C2122 1.438 . S
C2123 C2124 1.360 . S
C2124 C2123 1.360 . S
C2124 C2125 1.401 . S
C2124 C2129 1.446 . S
C2125 C2124 1.401 . S
C2125 C2126 1.347 . S
C2125 H2185 0.929 . S
C2126 C2125 1.347 . S
C2126 C2127 1.455 . S
C2126 H2186 0.930 . S
C2127 C2114 1.412 . S
C2127 C2126 1.455 . S
C2127 C2128 1.331 . S
C2128 C2117 1.451 . S
C2128 C2127 1.331 . S
C2128 C2129 1.497 . S
C2129 C2120 1.395 . S
C2129 C2124 1.446 . S
C2129 C2128 1.497 . S
C2130 C2131 1.582 . S
C2130 H2187 0.962 . S
C2130 H2188 0.959 . S
C2130 H2189 0.958 . S
C2131 C2130 1.582 . S
C2131 O2134 1.458 . S
C2131 H2160 0.980 . S
O2132 C2077 1.426 . S
O2132 C2078 1.334 . S
O2133 C2105 1.412 . S
O2133 C2106 1.393 . S
O2134 C2096 1.435 . S
O2134 C2131 1.458 . S
O2135 C2087 1.468 . S
O2135 C2088 1.408 . S
H2136 C2077 0.980 . S
H2137 C2076 0.959 . S
H2138 C2076 0.959 . S
H2139 C2076 0.960 . S
H2140 C2079 0.929 . S
H2141 C2083 0.929 . S
H2142 C2084 0.959 . S
H2143 C2084 0.961 . S
H2144 C2084 0.961 . S
H2145 C2085 0.960 . S
H2146 C2085 0.960 . S
H2147 C2085 0.961 . S
H2148 C2087 0.980 . S
H2149 C2086 0.961 . S
H2150 C2086 0.960 . S
H2151 C2086 0.959 . S
H2152 C2089 0.930 . S
H2153 C2093 0.931 . S
H2154 C2094 0.959 . S
H2155 C2094 0.961 . S
H2156 C2094 0.959 . S
H2157 C2095 0.960 . S
H2158 C2095 0.960 . S
H2159 C2095 0.960 . S
H2160 C2131 0.980 . S
H2161 C2097 0.930 . S
H2162 C2101 0.930 . S
H2163 C2102 0.961 . S
H2164 C2102 0.960 . S
H2165 C2102 0.958 . S
H2166 C2103 0.961 . S
H2167 C2103 0.960 . S
H2168 C2103 0.960 . S
H2169 C2105 0.980 . S
H2170 C2104 0.961 . S
H2171 C2104 0.961 . S
H2172 C2104 0.959 . S
H2173 C2107 0.932 . S
H2174 C2111 0.929 . S
H2175 C2112 0.961 . S
H2176 C2112 0.959 . S
H2177 C2112 0.959 . S
H2178 C2113 0.960 . S
H2179 C2113 0.962 . S
H2180 C2113 0.961 . S
H2181 C2115 0.929 . S
H2182 C2118 0.930 . S
H2183 C2119 0.929 . S
H2184 C2122 0.930 . S
H2185 C2125 0.929 . S
H2186 C2126 0.930 . S
H2187 C2130 0.962 . S
H2188 C2130 0.959 . S
H2189 C2130 0.958 . S
C2190 C2191 1.560 . S
C2190 H2251 0.959 . S
C2190 H2252 0.959 . S
C2190 H2253 0.960 . S
C2191 C2190 1.560 . S
C2191 O2246 1.426 . S
C2191 H2250 0.980 . S
C2192 C2193 1.407 . S
C2192 C2197 1.418 . S
C2192 O2246 1.334 . S
C2193 C2192 1.407 . S
C2193 C2194 1.360 . S
C2193 H2254 0.929 . S
C2194 C2193 1.360 . S
C2194 C2195 1.401 . S
C2194 C2198 1.527 . S
C2195 C2194 1.401 . S
C2195 C2196 1.405 . S
C2195 C2228 1.587 . S
C2196 C2195 1.405 . S
C2196 C2197 1.332 . S
C2196 C2199 1.496 . S
C2197 C2192 1.418 . S
C2197 C2196 1.332 . S
C2197 H2255 0.929 . S
C2198 C2194 1.527 . S
C2198 H2256 0.959 . S
C2198 H2257 0.961 . S
C2198 H2258 0.961 . S
C2199 C2196 1.496 . S
C2199 H2259 0.960 . S
C2199 H2260 0.960 . S
C2199 H2261 0.961 . S
C2200 C2201 1.517 . S
C2200 H2263 0.961 . S
C2200 H2264 0.960 . S
C2200 H2265 0.959 . S
C2201 C2200 1.517 . S
C2201 O2249 1.468 . S
C2201 H2262 0.980 . S
C2202 C2203 1.349 . S
C2202 C2207 1.367 . S
C2202 O2249 1.408 . S
C2203 C2202 1.349 . S
C2203 C2204 1.407 . S
C2203 H2266 0.930 . S
C2204 C2203 1.407 . S
C2204 C2205 1.449 . S
C2204 C2208 1.535 . S
C2205 C2204 1.449 . S
C2205 C2206 1.384 . S
C2205 C2230 1.553 . S
C2206 C2205 1.384 . S
C2206 C2207 1.364 . S
C2206 C2209 1.450 . S
C2207 C2202 1.367 . S
C2207 C2206 1.364 . S
C2207 H2267 0.931 . S
C2208 C2204 1.535 . S
C2208 H2268 0.959 . S
C2208 H2269 0.961 . S
C2208 H2270 0.959 . S
C2209 C2206 1.450 . S
C2209 H2271 0.960 . S
C2209 H2272 0.960 . S
C2209 H2273 0.960 . S
C2210 C2211 1.309 . S
C2210 C2215 1.304 . S
C2210 O2248 1.435 . S
C2211 C2210 1.309 . S
C2211 C2212 1.476 . S
C2211 H2275 0.930 . S
C2212 C2211 1.476 . S
C2212 C2213 1.400 . S
C2212 C2216 1.567 . S
C2213 C2212 1.400 . S
C2213 C2214 1.373 . S
C2213 C2235 1.432 . S
C2214 C2213 1.373 . S
C2214 C2215 1.339 . S
C2214 C2217 1.530 . S
C2215 C2210 1.304 . S
C2215 C2214 1.339 . S
C2215 H2276 0.930 . S
C2216 C2212 1.567 . S
C2216 H2277 0.961 . S
C2216 H2278 0.960 . S
C2216 H2279 0.958 . S
C2217 C2214 1.530 . S
C2217 H2280 0.961 . S
C2217 H2281 0.960 . S
C2217 H2282 0.960 . S
C2218 C2219 1.530 . S
C2218 H2284 0.961 . S
C2218 H2285 0.961 . S
C2218 H2286 0.959 . S
C2219 C2218 1.530 . S
C2219 O2247 1.412 . S
C2219 H2283 0.980 . S
C2220 C2221 1.288 . S
C2220 C2225 1.377 . S
C2220 O2247 1.393 . S
C2221 C2220 1.288 . S
C2221 C2222 1.369 . S
C2221 H2287 0.932 . S
C2222 C2221 1.369 . S
C2222 C2223 1.398 . S
C2222 C2226 1.527 . S
C2223 C2222 1.398 . S
C2223 C2224 1.380 . S
C2223 C2237 1.497 . S
C2224 C2223 1.380 . S
C2224 C2225 1.383 . S
C2224 C2227 1.603 . S
C2225 C2220 1.377 . S
C2225 C2224 1.383 . S
C2225 H2288 0.929 . S
C2226 C2222 1.527 . S
C2226 H2289 0.961 . S
C2226 H2290 0.959 . S
C2226 H2291 0.959 . S
C2227 C2224 1.603 . S
C2227 H2292 0.960 . S
C2227 H2293 0.962 . S
C2227 H2294 0.961 . S
C2228 C2195 1.587 . S
C2228 C2229 1.360 . S
C2228 C2241 1.412 . S
C2229 C2228 1.360 . S
C2229 C2230 1.365 . S
C2229 H2295 0.929 . S
C2230 C2205 1.553 . S
C2230 C2229 1.365 . S
C2230 C2231 1.404 . S
C2231 C2230 1.404 . S
C2231 C2232 1.395 . S
C2231 C2242 1.451 . S
C2232 C2231 1.395 . S
C2232 C2233 1.322 . S
C2232 H2296 0.930 . S
C2233 C2232 1.322 . S
C2233 C2234 1.459 . S
C2233 H2297 0.929 . S
C2234 C2233 1.459 . S
C2234 C2235 1.445 . S
C2234 C2243 1.395 . S
C2235 C2213 1.432 . S
C2235 C2234 1.445 . S
C2235 C2236 1.370 . S
C2236 C2235 1.370 . S
C2236 C2237 1.438 . S
C2236 H2298 0.930 . S
C2237 C2223 1.497 . S
C2237 C2236 1.438 . S
C2237 C2238 1.360 . S
C2238 C2237 1.360 . S
C2238 C2239 1.401 . S
C2238 C2243 1.446 . S
C2239 C2238 1.401 . S
C2239 C2240 1.347 . S
C2239 H2299 0.929 . S
C2240 C2239 1.347 . S
C2240 C2241 1.455 . S
C2240 H2300 0.930 . S
C2241 C2228 1.412 . S
C2241 C2240 1.455 . S
C2241 C2242 1.331 . S
C2242 C2231 1.451 . S
C2242 C2241 1.331 . S
C2242 C2243 1.497 . S
C2243 C2234 1.395 . S
C2243 C2238 1.446 . S
C2243 C2242 1.497 . S
C2244 C2245 1.582 . S
C2244 H2301 0.962 . S
C2244 H2302 0.959 . S
C2244 H2303 0.958 . S
C2245 C2244 1.582 . S
C2245 O2248 1.458 . S
C2245 H2274 0.980 . S
O2246 C2191 1.426 . S
O2246 C2192 1.334 . S
O2247 C2219 1.412 . S
O2247 C2220 1.393 . S
O2248 C2210 1.435 . S
O2248 C2245 1.458 . S
O2249 C2201 1.468 . S
O2249 C2202 1.408 . S
H2250 C2191 0.980 . S
H2251 C2190 0.959 . S
H2252 C2190 0.959 . S
H2253 C2190 0.960 . S
H2254 C2193 0.929 . S
H2255 C2197 0.929 . S
H2256 C2198 0.959 . S
H2257 C2198 0.961 . S
H2258 C2198 0.961 . S
H2259 C2199 0.960 . S
H2260 C2199 0.960 . S
H2261 C2199 0.961 . S
H2262 C2201 0.980 . S
H2263 C2200 0.961 . S
H2264 C2200 0.960 . S
H2265 C2200 0.959 . S
H2266 C2203 0.930 . S
H2267 C2207 0.931 . S
H2268 C2208 0.959 . S
H2269 C2208 0.961 . S
H2270 C2208 0.959 . S
H2271 C2209 0.960 . S
H2272 C2209 0.960 . S
H2273 C2209 0.960 . S
H2274 C2245 0.980 . S
H2275 C2211 0.930 . S
H2276 C2215 0.930 . S
H2277 C2216 0.961 . S
H2278 C2216 0.960 . S
H2279 C2216 0.958 . S
H2280 C2217 0.961 . S
H2281 C2217 0.960 . S
H2282 C2217 0.960 . S
H2283 C2219 0.980 . S
H2284 C2218 0.961 . S
H2285 C2218 0.961 . S
H2286 C2218 0.959 . S
H2287 C2221 0.932 . S
H2288 C2225 0.929 . S
H2289 C2226 0.961 . S
H2290 C2226 0.959 . S
H2291 C2226 0.959 . S
H2292 C2227 0.960 . S
H2293 C2227 0.962 . S
H2294 C2227 0.961 . S
H2295 C2229 0.929 . S
H2296 C2232 0.930 . S
H2297 C2233 0.929 . S
H2298 C2236 0.930 . S
H2299 C2239 0.929 . S
H2300 C2240 0.930 . S
H2301 C2244 0.962 . S
H2302 C2244 0.959 . S
H2303 C2244 0.958 . S
C2304 C2305 1.387 1_455 S
C2304 H2308 0.950 . S
C2304 C2313 1.390 . S
C2305 C2304 1.387 1_655 S
C2305 C2307 1.387 . S
H2306 C2313 0.950 . S
C2307 C2305 1.387 . S
C2307 C2309 1.390 . S
C2307 H2311 0.950 . S
H2308 C2304 0.950 . S
C2309 C2307 1.390 . S
C2309 C2310 1.387 . S
C2309 H2312 0.950 . S
C2310 C2309 1.387 . S
C2310 C2313 1.387 1_655 S
H2311 C2307 0.950 . S
H2312 C2309 0.950 . S
C2313 C2304 1.390 . S
C2313 H2306 0.950 . S
C2313 C2310 1.387 1_455 S
C2314 C2315 1.387 . S
C2314 H2318 0.950 . S
C2314 C2323 1.390 . S
C2315 C2314 1.387 . S
C2315 C2317 1.387 . S
H2316 C2323 0.950 . S
C2317 C2315 1.387 . S
C2317 C2319 1.390 . S
C2317 H2321 0.950 . S
H2318 C2314 0.950 . S
C2319 C2317 1.390 . S
C2319 C2320 1.387 . S
C2319 H2322 0.950 . S
C2320 C2319 1.387 . S
C2320 C2323 1.387 . S
H2321 C2317 0.950 . S
H2322 C2319 0.950 . S
C2323 C2314 1.390 . S
C2323 H2316 0.950 . S
C2323 C2320 1.387 . S
C2324 C2325 1.387 1_565 S
C2324 H2328 0.950 . S
C2324 C2333 1.390 . S
C2325 C2324 1.387 1_545 S
C2325 C2327 1.387 . S
H2326 C2333 0.950 . S
C2327 C2325 1.387 . S
C2327 C2329 1.390 . S
C2327 H2331 0.950 . S
H2328 C2324 0.950 . S
C2329 C2327 1.390 . S
C2329 C2330 1.387 . S
C2329 H2332 0.950 . S
C2330 C2329 1.387 . S
C2330 C2333 1.387 1_545 S
H2331 C2327 0.950 . S
H2332 C2329 0.950 . S
C2333 C2324 1.390 . S
C2333 H2326 0.950 . S
C2333 C2330 1.387 1_565 S
C2334 C2335 1.387 . S
C2334 H2338 0.950 . S
C2334 C2343 1.390 . S
C2335 C2334 1.387 . S
C2335 C2337 1.387 1_565 S
H2336 C2343 0.950 . S
C2337 C2335 1.387 1_545 S
C2337 C2339 1.390 . S
C2337 H2341 0.950 . S
H2338 C2334 0.950 . S
C2339 C2337 1.390 . S
C2339 C2340 1.387 1_545 S
C2339 H2342 0.950 . S
C2340 C2339 1.387 1_565 S
C2340 C2343 1.387 . S
H2341 C2337 0.950 . S
H2342 C2339 0.950 . S
C2343 C2334 1.390 . S
C2343 H2336 0.950 . S
C2343 C2340 1.387 . S
C2344 C2345 1.387 . S
C2344 H2348 0.950 . S
C2344 C2353 1.390 . S
C2345 C2344 1.387 . S
C2345 C2347 1.387 . S
H2346 C2353 0.950 . S
C2347 C2345 1.387 . S
C2347 C2349 1.390 . S
C2347 H2351 0.950 . S
H2348 C2344 0.950 . S
C2349 C2347 1.390 . S
C2349 C2350 1.387 . S
C2349 H2352 0.950 . S
C2350 C2349 1.387 . S
C2350 C2353 1.387 . S
H2351 C2347 0.950 . S
H2352 C2349 0.950 . S
C2353 C2344 1.390 . S
C2353 H2346 0.950 . S
C2353 C2350 1.387 . S
C2354 C2355 1.387 . S
C2354 H2358 0.950 . S
C2354 C2363 1.390 . S
C2355 C2354 1.387 . S
C2355 C2357 1.387 . S
H2356 C2363 0.950 . S
C2357 C2355 1.387 . S
C2357 C2359 1.390 . S
C2357 H2361 0.950 . S
H2358 C2354 0.950 . S
C2359 C2357 1.390 . S
C2359 C2360 1.387 . S
C2359 H2362 0.950 . S
C2360 C2359 1.387 . S
C2360 C2363 1.387 . S
H2361 C2357 0.950 . S
H2362 C2359 0.950 . S
C2363 C2354 1.390 . S
C2363 H2356 0.950 . S
C2363 C2360 1.387 . S
C2364 C2365 1.387 . S
C2364 H2368 0.950 . S
C2364 C2373 1.390 . S
C2365 C2364 1.387 . S
C2365 C2367 1.387 1_455 S
H2366 C2373 0.950 . S
C2367 C2365 1.387 1_655 S
C2367 C2369 1.390 . S
C2367 H2371 0.950 . S
H2368 C2364 0.950 . S
C2369 C2367 1.390 . S
C2369 C2370 1.387 1_655 S
C2369 H2372 0.950 . S
C2370 C2369 1.387 1_455 S
C2370 C2373 1.387 . S
H2371 C2367 0.950 . S
H2372 C2369 0.950 . S
C2373 C2364 1.390 . S
C2373 H2366 0.950 . S
C2373 C2370 1.387 . S
C2374 C2375 1.387 . S
C2374 H2378 0.950 . S
C2374 C2383 1.390 . S
C2375 C2374 1.387 . S
C2375 C2377 1.387 . S
H2376 C2383 0.950 . S
C2377 C2375 1.387 . S
C2377 C2379 1.390 . S
C2377 H2381 0.950 . S
H2378 C2374 0.950 . S
C2379 C2377 1.390 . S
C2379 C2380 1.387 . S
C2379 H2382 0.950 . S
C2380 C2379 1.387 . S
C2380 C2383 1.387 . S
H2381 C2377 0.950 . S
H2382 C2379 0.950 . S
C2383 C2374 1.390 . S
C2383 H2376 0.950 . S
C2383 C2380 1.387 . S
C2384 C2385 1.387 . S
C2384 H2388 0.950 . S
C2384 C2393 1.390 . S
C2385 C2384 1.387 . S
C2385 C2387 1.387 1_565 S
H2386 C2393 0.950 . S
C2387 C2385 1.387 1_545 S
C2387 C2389 1.390 . S
C2387 H2391 0.950 . S
H2388 C2384 0.950 . S
C2389 C2387 1.390 . S
C2389 C2390 1.387 1_545 S
C2389 H2392 0.950 . S
C2390 C2389 1.387 1_565 S
C2390 C2393 1.387 . S
H2391 C2387 0.950 . S
H2392 C2389 0.950 . S
C2393 C2384 1.390 . S
C2393 H2386 0.950 . S
C2393 C2390 1.387 . S
C2394 C2395 1.387 . S
C2394 H2398 0.950 . S
C2394 C2403 1.390 . S
C2395 C2394 1.387 . S
C2395 C2397 1.387 . S
H2396 C2403 0.950 . S
C2397 C2395 1.387 . S
C2397 C2399 1.390 . S
C2397 H2401 0.950 . S
H2398 C2394 0.950 . S
C2399 C2397 1.390 . S
C2399 C2400 1.387 . S
C2399 H2402 0.950 1_545 S
C2400 C2399 1.387 . S
C2400 C2403 1.387 . S
H2401 C2397 0.950 . S
H2402 C2399 0.950 1_565 S
C2403 C2394 1.390 . S
C2403 H2396 0.950 . S
C2403 C2400 1.387 . S
C2404 C2405 1.387 . S
C2404 H2408 0.950 . S
C2404 C2413 1.390 . S
C2405 C2404 1.387 . S
C2405 C2407 1.387 . S
H2406 C2413 0.950 . S
C2407 C2405 1.387 . S
C2407 C2409 1.390 . S
C2407 H2411 0.950 . S
H2408 C2404 0.950 . S
C2409 C2407 1.390 . S
C2409 C2410 1.387 . S
C2409 H2412 0.950 . S
C2410 C2409 1.387 . S
C2410 C2413 1.387 . S
H2411 C2407 0.950 . S
H2412 C2409 0.950 . S
C2413 C2404 1.390 . S
C2413 H2406 0.950 . S
C2413 C2410 1.387 . S
C2414 C2415 1.387 . S
C2414 H2418 0.950 . S
C2414 C2423 1.390 . S
C2415 C2414 1.387 . S
C2415 C2417 1.387 . S
H2416 C2423 0.950 . S
C2417 C2415 1.387 . S
C2417 C2419 1.390 . S
C2417 H2421 0.950 . S
H2418 C2414 0.950 . S
C2419 C2417 1.390 . S
C2419 C2420 1.387 . S
C2419 H2422 0.950 . S
C2420 C2419 1.387 . S
C2420 C2423 1.387 . S
H2421 C2417 0.950 . S
H2422 C2419 0.950 . S
C2423 C2414 1.390 . S
C2423 H2416 0.950 . S
C2423 C2420 1.387 . S
C2424 C2425 1.387 . S
C2424 H2428 0.950 . S
C2424 C2433 1.390 . S
C2425 C2424 1.387 . S
C2425 C2427 1.387 . S
H2426 C2433 0.950 . S
C2427 C2425 1.387 . S
C2427 C2429 1.390 . S
C2427 H2431 0.950 . S
H2428 C2424 0.950 . S
C2429 C2427 1.390 . S
C2429 C2430 1.387 . S
C2429 H2432 0.950 . S
C2430 C2429 1.387 . S
C2430 C2433 1.387 . S
H2431 C2427 0.950 . S
H2432 C2429 0.950 . S
C2433 C2424 1.390 . S
C2433 H2426 0.950 . S
C2433 C2430 1.387 . S
C2434 C2435 1.387 . S
C2434 H2438 0.950 . S
C2434 C2443 1.390 . S
C2435 C2434 1.387 . S
C2435 C2437 1.387 . S
H2436 C2443 0.950 . S
C2437 C2435 1.387 . S
C2437 C2439 1.390 . S
C2437 H2441 0.950 . S
H2438 C2434 0.950 . S
C2439 C2437 1.390 . S
C2439 C2440 1.387 . S
C2439 H2442 0.950 . S
C2440 C2439 1.387 . S
C2440 C2443 1.387 . S
H2441 C2437 0.950 . S
H2442 C2439 0.950 . S
C2443 C2434 1.390 . S
C2443 H2436 0.950 . S
C2443 C2440 1.387 . S
C2444 C2445 1.387 . S
C2444 H2448 0.950 . S
C2444 C2453 1.390 . S
C2445 C2444 1.387 . S
C2445 C2447 1.387 . S
H2446 C2453 0.950 . S
C2447 C2445 1.387 . S
C2447 C2449 1.390 . S
C2447 H2451 0.950 . S
H2448 C2444 0.950 . S
C2449 C2447 1.390 . S
C2449 C2450 1.387 . S
C2449 H2452 0.950 . S
C2450 C2449 1.387 . S
C2450 C2453 1.387 . S
H2451 C2447 0.950 . S
H2452 C2449 0.950 . S
C2453 C2444 1.390 . S
C2453 H2446 0.950 . S
C2453 C2450 1.387 . S
C2454 C2455 1.387 . S
C2454 H2458 0.950 . S
C2454 C2463 1.390 . S
C2455 C2454 1.387 . S
C2455 C2457 1.387 . S
H2456 C2463 0.950 . S
C2457 C2455 1.387 . S
C2457 C2459 1.390 . S
C2457 H2461 0.950 . S
H2458 C2454 0.950 . S
C2459 C2457 1.390 . S
C2459 C2460 1.387 . S
C2459 H2462 0.950 . S
C2460 C2459 1.387 . S
C2460 C2463 1.387 . S
H2461 C2457 0.950 . S
H2462 C2459 0.950 . S
C2463 C2454 1.390 . S
C2463 H2456 0.950 . S
C2463 C2460 1.387 . S
C2464 C2465 1.387 . S
C2464 H2468 0.950 . S
C2464 C2473 1.390 . S
C2465 C2464 1.387 . S
C2465 C2467 1.387 . S
H2466 C2473 0.950 . S
C2467 C2465 1.387 . S
C2467 C2469 1.390 . S
C2467 H2471 0.950 . S
H2468 C2464 0.950 . S
C2469 C2467 1.390 . S
C2469 C2470 1.387 . S
C2469 H2472 0.950 . S
C2470 C2469 1.387 . S
C2470 C2473 1.387 . S
H2471 C2467 0.950 . S
H2472 C2469 0.950 . S
C2473 C2464 1.390 . S
C2473 H2466 0.950 . S
C2473 C2470 1.387 . S
C2474 C2475 1.387 . S
C2474 H2478 0.950 . S
C2474 C2483 1.390 . S
C2475 C2474 1.387 . S
C2475 C2477 1.387 . S
H2476 C2483 0.950 . S
C2477 C2475 1.387 . S
C2477 C2479 1.390 . S
C2477 H2481 0.950 . S
H2478 C2474 0.950 . S
C2479 C2477 1.390 . S
C2479 C2480 1.387 . S
C2479 H2482 0.950 . S
C2480 C2479 1.387 . S
C2480 C2483 1.387 . S
H2481 C2477 0.950 . S
H2482 C2479 0.950 . S
C2483 C2474 1.390 . S
C2483 H2476 0.950 . S
C2483 C2480 1.387 . S
C2484 C2485 1.387 . S
C2484 H2488 0.950 . S
C2484 C2493 1.390 . S
C2485 C2484 1.387 . S
C2485 C2487 1.387 . S
H2486 C2493 0.950 . S
C2487 C2485 1.387 . S
C2487 C2489 1.390 . S
C2487 H2491 0.950 . S
H2488 C2484 0.950 . S
C2489 C2487 1.390 . S
C2489 C2490 1.387 . S
C2489 H2492 0.950 . S
C2490 C2489 1.387 . S
C2490 C2493 1.387 . S
H2491 C2487 0.950 . S
H2492 C2489 0.950 . S
C2493 C2484 1.390 . S
C2493 H2486 0.950 . S
C2493 C2490 1.387 . S
C2494 C2495 1.387 . S
C2494 H2498 0.950 . S
C2494 C2503 1.390 . S
C2495 C2494 1.387 . S
C2495 C2497 1.387 . S
H2496 C2503 0.950 . S
C2497 C2495 1.387 . S
C2497 C2499 1.390 . S
C2497 H2501 0.950 . S
H2498 C2494 0.950 . S
C2499 C2497 1.390 . S
C2499 C2500 1.387 . S
C2499 H2502 0.950 . S
C2500 C2499 1.387 . S
C2500 C2503 1.387 . S
H2501 C2497 0.950 . S
H2502 C2499 0.950 . S
C2503 C2494 1.390 . S
C2503 H2496 0.950 . S
C2503 C2500 1.387 . S
C2504 C2505 1.387 . S
C2504 H2508 0.950 . S
C2504 C2513 1.390 . S
C2505 C2504 1.387 . S
C2505 C2507 1.387 . S
H2506 C2513 0.950 . S
C2507 C2505 1.387 . S
C2507 C2509 1.390 . S
C2507 H2511 0.950 . S
H2508 C2504 0.950 . S
C2509 C2507 1.390 . S
C2509 C2510 1.387 . S
C2509 H2512 0.950 . S
C2510 C2509 1.387 . S
C2510 C2513 1.387 . S
H2511 C2507 0.950 . S
H2512 C2509 0.950 . S
C2513 C2504 1.390 . S
C2513 H2506 0.950 . S
C2513 C2510 1.387 . S
C2514 C2515 1.387 . S
C2514 H2518 0.950 . S
C2514 C2523 1.390 . S
C2515 C2514 1.387 . S
C2515 C2517 1.387 . S
H2516 C2523 0.950 . S
C2517 C2515 1.387 . S
C2517 C2519 1.390 . S
C2517 H2521 0.950 . S
H2518 C2514 0.950 . S
C2519 C2517 1.390 . S
C2519 C2520 1.387 . S
C2519 H2522 0.950 . S
C2520 C2519 1.387 . S
C2520 C2523 1.387 . S
H2521 C2517 0.950 . S
H2522 C2519 0.950 . S
C2523 C2514 1.390 . S
C2523 H2516 0.950 . S
C2523 C2520 1.387 . S
C2524 C2525 1.387 . S
C2524 H2528 0.950 . S
C2524 C2533 1.390 . S
C2525 C2524 1.387 . S
C2525 C2527 1.387 . S
H2526 C2533 0.950 . S
C2527 C2525 1.387 . S
C2527 C2529 1.390 . S
C2527 H2531 0.950 . S
H2528 C2524 0.950 . S
C2529 C2527 1.390 . S
C2529 C2530 1.387 . S
C2529 H2532 0.950 . S
C2530 C2529 1.387 . S
C2530 C2533 1.387 . S
H2531 C2527 0.950 . S
H2532 C2529 0.950 . S
C2533 C2524 1.390 . S
C2533 H2526 0.950 . S
C2533 C2530 1.387 . S
C2534 C2535 1.387 . S
C2534 H2538 0.950 . S
C2534 C2543 1.390 . S
C2535 C2534 1.387 . S
C2535 C2537 1.387 . S
H2536 C2543 0.950 . S
C2537 C2535 1.387 . S
C2537 C2539 1.390 . S
C2537 H2541 0.950 . S
H2538 C2534 0.950 . S
C2539 C2537 1.390 . S
C2539 C2540 1.387 . S
C2539 H2542 0.950 . S
C2540 C2539 1.387 . S
C2540 C2543 1.387 . S
H2541 C2537 0.950 . S
H2542 C2539 0.950 . S
C2543 C2534 1.390 . S
C2543 H2536 0.950 . S
C2543 C2540 1.387 . S
C2544 C2545 1.387 . S
C2544 H2548 0.950 . S
C2544 C2553 1.390 . S
C2545 C2544 1.387 . S
C2545 C2547 1.387 . S
H2546 C2553 0.950 . S
C2547 C2545 1.387 . S
C2547 C2549 1.390 . S
C2547 H2551 0.950 . S
H2548 C2544 0.950 . S
C2549 C2547 1.390 . S
C2549 C2550 1.387 . S
C2549 H2552 0.950 . S
C2550 C2549 1.387 . S
C2550 C2553 1.387 . S
H2551 C2547 0.950 . S
H2552 C2549 0.950 . S
C2553 C2544 1.390 . S
C2553 H2546 0.950 . S
C2553 C2550 1.387 . S
C2554 C2555 1.387 . S
C2554 H2558 0.950 . S
C2554 C2563 1.390 . S
C2555 C2554 1.387 . S
C2555 C2557 1.387 . S
H2556 C2563 0.950 . S
C2557 C2555 1.387 . S
C2557 C2559 1.390 . S
C2557 H2561 0.950 . S
H2558 C2554 0.950 . S
C2559 C2557 1.390 . S
C2559 C2560 1.387 . S
C2559 H2562 0.950 . S
C2560 C2559 1.387 . S
C2560 C2563 1.387 . S
H2561 C2557 0.950 . S
H2562 C2559 0.950 . S
C2563 C2554 1.390 . S
C2563 H2556 0.950 . S
C2563 C2560 1.387 . S
C2564 C2565 1.387 . S
C2564 H2568 0.950 . S
C2564 C2573 1.390 . S
C2565 C2564 1.387 . S
C2565 C2567 1.387 . S
H2566 C2573 0.950 . S
C2567 C2565 1.387 . S
C2567 C2569 1.390 . S
C2567 H2571 0.950 . S
H2568 C2564 0.950 . S
C2569 C2567 1.390 . S
C2569 C2570 1.387 . S
C2569 H2572 0.950 . S
C2570 C2569 1.387 . S
C2570 C2573 1.387 . S
H2571 C2567 0.950 . S
H2572 C2569 0.950 . S
C2573 C2564 1.390 . S
C2573 H2566 0.950 . S
C2573 C2570 1.387 . S
C2574 C2575 1.387 . S
C2574 H2578 0.950 . S
C2574 C2583 1.390 . S
C2575 C2574 1.387 . S
C2575 C2577 1.387 . S
H2576 C2583 0.950 . S
C2577 C2575 1.387 . S
C2577 C2579 1.390 . S
C2577 H2581 0.950 . S
H2578 C2574 0.950 . S
C2579 C2577 1.390 . S
C2579 C2580 1.387 . S
C2579 H2582 0.950 . S
C2580 C2579 1.387 . S
C2580 C2583 1.387 . S
H2581 C2577 0.950 . S
H2582 C2579 0.950 . S
C2583 C2574 1.390 . S
C2583 H2576 0.950 . S
C2583 C2580 1.387 . S
C2584 C2585 1.387 . S
C2584 H2588 0.950 . S
C2584 C2593 1.390 . S
C2585 C2584 1.387 . S
C2585 C2587 1.387 . S
H2586 C2593 0.950 . S
C2587 C2585 1.387 . S
C2587 C2589 1.390 . S
C2587 H2591 0.950 . S
H2588 C2584 0.950 . S
C2589 C2587 1.390 . S
C2589 C2590 1.387 . S
C2589 H2592 0.950 . S
C2590 C2589 1.387 . S
C2590 C2593 1.387 . S
H2591 C2587 0.950 . S
H2592 C2589 0.950 . S
C2593 C2584 1.390 . S
C2593 H2586 0.950 . S
C2593 C2590 1.387 . S
C2594 C2595 1.387 . S
C2594 H2598 0.950 . S
C2594 C2603 1.390 . S
C2595 C2594 1.387 . S
C2595 C2597 1.387 . S
H2596 C2603 0.950 . S
C2597 C2595 1.387 . S
C2597 C2599 1.390 . S
C2597 H2601 0.950 . S
H2598 C2594 0.950 . S
C2599 C2597 1.390 . S
C2599 C2600 1.387 . S
C2599 H2602 0.950 . S
C2600 C2599 1.387 . S
C2600 C2603 1.387 . S
H2601 C2597 0.950 . S
H2602 C2599 0.950 . S
C2603 C2594 1.390 . S
C2603 H2596 0.950 . S
C2603 C2600 1.387 . S
C2604 C2605 1.387 . S
C2604 H2608 0.950 . S
C2604 C2613 1.390 . S
C2605 C2604 1.387 . S
C2605 C2607 1.387 . S
H2606 C2613 0.950 . S
C2607 C2605 1.387 . S
C2607 C2609 1.390 . S
C2607 H2611 0.950 . S
H2608 C2604 0.950 . S
C2609 C2607 1.390 . S
C2609 C2610 1.387 . S
C2609 H2612 0.950 . S
C2610 C2609 1.387 . S
C2610 C2613 1.387 . S
H2611 C2607 0.950 . S
H2612 C2609 0.950 . S
C2613 C2604 1.390 . S
C2613 H2606 0.950 . S
C2613 C2610 1.387 . S
C2614 C2615 1.387 . S
C2614 H2618 0.950 . S
C2614 C2623 1.390 . S
C2615 C2614 1.387 . S
C2615 C2617 1.387 . S
H2616 C2623 0.950 . S
C2617 C2615 1.387 . S
C2617 C2619 1.390 . S
C2617 H2621 0.950 . S
H2618 C2614 0.950 . S
C2619 C2617 1.390 . S
C2619 C2620 1.387 . S
C2619 H2622 0.950 . S
C2620 C2619 1.387 . S
C2620 C2623 1.387 . S
H2621 C2617 0.950 . S
H2622 C2619 0.950 . S
C2623 C2614 1.390 . S
C2623 H2616 0.950 . S
C2623 C2620 1.387 . S
C2624 C2625 1.387 . S
C2624 H2628 0.950 . S
C2624 C2633 1.390 . S
C2625 C2624 1.387 . S
C2625 C2627 1.387 . S
H2626 C2633 0.950 . S
C2627 C2625 1.387 . S
C2627 C2629 1.390 . S
C2627 H2631 0.950 . S
H2628 C2624 0.950 . S
C2629 C2627 1.390 . S
C2629 C2630 1.387 . S
C2629 H2632 0.950 . S
C2630 C2629 1.387 . S
C2630 C2633 1.387 . S
H2631 C2627 0.950 . S
H2632 C2629 0.950 . S
C2633 C2624 1.390 . S
C2633 H2626 0.950 . S
C2633 C2630 1.387 . S
C2634 C2635 1.387 . S
C2634 H2638 0.950 . S
C2634 C2643 1.390 . S
C2635 C2634 1.387 . S
C2635 C2637 1.387 . S
H2636 C2643 0.950 . S
C2637 C2635 1.387 . S
C2637 C2639 1.390 . S
C2637 H2641 0.950 . S
H2638 C2634 0.950 . S
C2639 C2637 1.390 . S
C2639 C2640 1.387 . S
C2639 H2642 0.950 . S
C2640 C2639 1.387 . S
C2640 C2643 1.387 . S
H2641 C2637 0.950 . S
H2642 C2639 0.950 . S
C2643 C2634 1.390 . S
C2643 H2636 0.950 . S
C2643 C2640 1.387 . S
C2644 C2645 1.387 . S
C2644 H2648 0.950 . S
C2644 C2653 1.390 . S
C2645 C2644 1.387 . S
C2645 C2647 1.387 . S
H2646 C2653 0.950 . S
C2647 C2645 1.387 . S
C2647 C2649 1.390 . S
C2647 H2651 0.950 . S
H2648 C2644 0.950 . S
C2649 C2647 1.390 . S
C2649 C2650 1.387 . S
C2649 H2652 0.950 . S
C2650 C2649 1.387 . S
C2650 C2653 1.387 . S
H2651 C2647 0.950 . S
H2652 C2649 0.950 . S
C2653 C2644 1.390 . S
C2653 H2646 0.950 . S
C2653 C2650 1.387 . S
C2654 C2655 1.387 . S
C2654 H2658 0.950 . S
C2654 C2663 1.390 . S
C2655 C2654 1.387 . S
C2655 C2657 1.387 . S
H2656 C2663 0.950 . S
C2657 C2655 1.387 . S
C2657 C2659 1.390 . S
C2657 H2661 0.950 . S
H2658 C2654 0.950 . S
C2659 C2657 1.390 . S
C2659 C2660 1.387 . S
C2659 H2662 0.950 . S
C2660 C2659 1.387 . S
C2660 C2663 1.387 . S
H2661 C2657 0.950 . S
H2662 C2659 0.950 . S
C2663 C2654 1.390 . S
C2663 H2656 0.950 . S
C2663 C2660 1.387 . S
C2664 C2665 1.387 . S
C2664 H2668 0.950 . S
C2664 C2673 1.390 . S
C2665 C2664 1.387 . S
C2665 C2667 1.387 . S
H2666 C2673 0.950 . S
C2667 C2665 1.387 . S
C2667 C2669 1.390 . S
C2667 H2671 0.950 . S
H2668 C2664 0.950 . S
C2669 C2667 1.390 . S
C2669 C2670 1.387 . S
C2669 H2672 0.950 . S
C2670 C2669 1.387 . S
C2670 C2673 1.387 . S
H2671 C2667 0.950 . S
H2672 C2669 0.950 . S
C2673 C2664 1.390 . S
C2673 H2666 0.950 . S
C2673 C2670 1.387 . S
C2674 C2675 1.387 . S
C2674 H2678 0.950 . S
C2674 C2683 1.390 . S
C2675 C2674 1.387 . S
C2675 C2677 1.387 . S
H2676 C2683 0.950 . S
C2677 C2675 1.387 . S
C2677 C2679 1.390 . S
C2677 H2681 0.950 . S
H2678 C2674 0.950 . S
C2679 C2677 1.390 . S
C2679 C2680 1.387 . S
C2679 H2682 0.950 . S
C2680 C2679 1.387 . S
C2680 C2683 1.387 . S
H2681 C2677 0.950 . S
H2682 C2679 0.950 . S
C2683 C2674 1.390 . S
C2683 H2676 0.950 . S
C2683 C2680 1.387 . S
C2684 C2685 1.387 . S
C2684 H2688 0.950 . S
C2684 C2693 1.390 . S
C2685 C2684 1.387 . S
C2685 C2687 1.387 . S
H2686 C2693 0.950 . S
C2687 C2685 1.387 . S
C2687 C2689 1.390 . S
C2687 H2691 0.950 . S
H2688 C2684 0.950 . S
C2689 C2687 1.390 . S
C2689 C2690 1.387 . S
C2689 H2692 0.950 . S
C2690 C2689 1.387 . S
C2690 C2693 1.387 . S
H2691 C2687 0.950 . S
H2692 C2689 0.950 . S
C2693 C2684 1.390 . S
C2693 H2686 0.950 . S
C2693 C2690 1.387 . S
C2694 C2695 1.387 . S
C2694 H2698 0.950 . S
C2694 C2703 1.390 . S
C2695 C2694 1.387 . S
C2695 C2697 1.387 . S
H2696 C2703 0.950 . S
C2697 C2695 1.387 . S
C2697 C2699 1.390 . S
C2697 H2701 0.912 1_556 S
H2698 C2694 0.950 . S
C2699 C2697 1.390 . S
C2699 C2700 1.387 . S
C2699 H2702 0.950 . S
C2700 C2699 1.387 . S
C2700 C2703 1.387 . S
H2701 C2697 0.912 1_554 S
H2702 C2699 0.950 . S
C2703 C2694 1.390 . S
C2703 H2696 0.950 . S
C2703 C2700 1.387 . S
C2704 C2705 1.387 . S
C2704 H2708 0.950 . S
C2704 C2713 1.390 . S
C2705 C2704 1.387 . S
C2705 C2707 1.387 . S
H2706 C2713 0.950 . S
C2707 C2705 1.387 . S
C2707 C2709 1.390 . S
C2707 H2711 0.950 . S
H2708 C2704 0.950 . S
C2709 C2707 1.390 . S
C2709 C2710 1.387 . S
C2709 H2712 0.950 . S
C2710 C2709 1.387 . S
C2710 C2713 1.387 . S
H2711 C2707 0.950 . S
H2712 C2709 0.950 . S
C2713 C2704 1.390 . S
C2713 H2706 0.950 . S
C2713 C2710 1.387 . S
C2714 C2715 1.387 . S
C2714 H2718 0.950 . S
C2714 C2723 1.390 . S
C2715 C2714 1.387 . S
C2715 C2717 1.387 . S
H2716 C2723 0.950 . S
C2717 C2715 1.387 . S
C2717 C2719 1.390 . S
C2717 H2721 0.950 . S
H2718 C2714 0.950 . S
C2719 C2717 1.390 . S
C2719 C2720 1.387 . S
C2719 H2722 0.950 . S
C2720 C2719 1.387 . S
C2720 C2723 1.387 . S
H2721 C2717 0.950 . S
H2722 C2719 0.950 . S
C2723 C2714 1.390 . S
C2723 H2716 0.950 . S
C2723 C2720 1.387 . S
C2724 C2725 1.387 . S
C2724 H2728 0.950 . S
C2724 C2733 1.390 . S
C2725 C2724 1.387 . S
C2725 C2727 1.387 . S
H2726 C2733 0.950 . S
C2727 C2725 1.387 . S
C2727 C2729 1.390 . S
C2727 H2731 0.950 1_556 S
H2728 C2724 0.950 . S
C2729 C2727 1.390 . S
C2729 C2730 1.387 . S
C2729 H2732 0.950 . S
C2730 C2729 1.387 . S
C2730 C2733 1.387 . S
H2731 C2727 0.950 1_554 S
H2732 C2729 0.950 . S
C2733 C2724 1.390 . S
C2733 H2726 0.950 . S
C2733 C2730 1.387 . S
C2734 C2735 1.387 . S
C2734 H2738 0.950 . S
C2734 C2743 1.390 . S
C2735 C2734 1.387 . S
C2735 C2737 1.387 . S
H2736 C2743 0.950 . S
C2737 C2735 1.387 . S
C2737 C2739 1.390 . S
C2737 H2741 0.950 . S
H2738 C2734 0.950 . S
C2739 C2737 1.390 . S
C2739 C2740 1.387 . S
C2739 H2742 0.950 . S
C2740 C2739 1.387 . S
C2740 C2743 1.387 . S
H2741 C2737 0.950 . S
H2742 C2739 0.950 . S
C2743 C2734 1.390 . S
C2743 H2736 0.950 . S
C2743 C2740 1.387 . S
C2744 C2745 1.387 . S
C2744 H2748 0.950 . S
C2744 C2753 1.390 . S
C2745 C2744 1.387 . S
C2745 C2747 1.387 . S
H2746 C2753 0.950 . S
C2747 C2745 1.387 . S
C2747 C2749 1.390 . S
C2747 H2751 0.950 . S
H2748 C2744 0.950 . S
C2749 C2747 1.390 . S
C2749 C2750 1.387 . S
C2749 H2752 0.950 . S
C2750 C2749 1.387 . S
C2750 C2753 1.387 . S
H2751 C2747 0.950 . S
H2752 C2749 0.950 . S
C2753 C2744 1.390 . S
C2753 H2746 0.950 . S
C2753 C2750 1.387 . S
C2754 C2755 1.387 . S
C2754 H2758 0.950 . S
C2754 C2763 1.390 . S
C2755 C2754 1.387 . S
C2755 C2757 1.387 . S
H2756 C2763 0.950 . S
C2757 C2755 1.387 . S
C2757 C2759 1.390 . S
C2757 H2761 0.950 . S
H2758 C2754 0.950 . S
C2759 C2757 1.390 . S
C2759 C2760 1.387 . S
C2759 H2762 0.950 . S
C2760 C2759 1.387 . S
C2760 C2763 1.387 . S
H2761 C2757 0.950 . S
H2762 C2759 0.950 . S
C2763 C2754 1.390 . S
C2763 H2756 0.950 . S
C2763 C2760 1.387 . S
C2764 C2765 1.387 . S
C2764 H2768 0.950 . S
C2764 C2773 1.390 . S
C2765 C2764 1.387 . S
C2765 C2767 1.387 . S
H2766 C2773 0.950 . S
C2767 C2765 1.387 . S
C2767 C2769 1.390 . S
C2767 H2771 0.950 . S
H2768 C2764 0.950 . S
C2769 C2767 1.390 . S
C2769 C2770 1.387 . S
C2769 H2772 0.950 . S
C2770 C2769 1.387 . S
C2770 C2773 1.387 . S
H2771 C2767 0.950 . S
H2772 C2769 0.950 . S
C2773 C2764 1.390 . S
C2773 H2766 0.950 . S
C2773 C2770 1.387 . S
C2774 C2775 1.387 . S
C2774 H2778 0.950 . S
C2774 C2783 1.390 . S
C2775 C2774 1.387 . S
C2775 C2777 1.387 . S
H2776 C2783 0.950 . S
C2777 C2775 1.387 . S
C2777 C2779 1.390 . S
C2777 H2781 0.950 . S
H2778 C2774 0.950 . S
C2779 C2777 1.390 . S
C2779 C2780 1.387 . S
C2779 H2782 0.950 . S
C2780 C2779 1.387 . S
C2780 C2783 1.387 . S
H2781 C2777 0.950 . S
H2782 C2779 0.950 . S
C2783 C2774 1.390 . S
C2783 H2776 0.950 . S
C2783 C2780 1.387 . S
C2784 C2785 1.387 . S
C2784 H2788 0.950 . S
C2784 C2793 1.390 . S
C2785 C2784 1.387 . S
C2785 C2787 1.387 . S
H2786 C2793 0.950 . S
C2787 C2785 1.387 . S
C2787 C2789 1.390 . S
C2787 H2791 0.950 . S
H2788 C2784 0.950 . S
C2789 C2787 1.390 . S
C2789 C2790 1.387 . S
C2789 H2792 0.950 . S
C2790 C2789 1.387 . S
C2790 C2793 1.387 . S
H2791 C2787 0.950 . S
H2792 C2789 0.950 . S
C2793 C2784 1.390 . S
C2793 H2786 0.950 . S
C2793 C2790 1.387 . S
C2794 C2795 1.387 . S
C2794 H2798 0.950 . S
C2794 C2803 1.390 . S
C2795 C2794 1.387 . S
C2795 C2797 1.387 . S
H2796 C2803 0.950 . S
C2797 C2795 1.387 . S
C2797 C2799 1.390 . S
C2797 H2801 0.950 . S
H2798 C2794 0.950 . S
C2799 C2797 1.390 . S
C2799 C2800 1.387 . S
C2799 H2802 0.950 . S
C2800 C2799 1.387 . S
C2800 C2803 1.387 . S
H2801 C2797 0.950 . S
H2802 C2799 0.950 . S
C2803 C2794 1.390 . S
C2803 H2796 0.950 . S
C2803 C2800 1.387 . S
C2804 C2805 1.387 . S
C2804 H2808 0.950 . S
C2804 C2813 1.390 . S
C2805 C2804 1.387 . S
C2805 C2807 1.387 . S
H2806 C2813 0.950 . S
C2807 C2805 1.387 . S
C2807 C2809 1.390 . S
C2807 H2811 0.950 . S
H2808 C2804 0.950 . S
C2809 C2807 1.390 . S
C2809 C2810 1.387 . S
C2809 H2812 0.950 . S
C2810 C2809 1.387 . S
C2810 C2813 1.387 . S
H2811 C2807 0.950 . S
H2812 C2809 0.950 . S
C2813 C2804 1.390 . S
C2813 H2806 0.950 . S
C2813 C2810 1.387 . S
C2814 C2815 1.387 . S
C2814 H2818 0.950 . S
C2814 C2823 1.390 . S
C2815 C2814 1.387 . S
C2815 C2817 1.387 . S
H2816 C2823 0.950 . S
C2817 C2815 1.387 . S
C2817 C2819 1.390 . S
C2817 H2821 0.950 . S
H2818 C2814 0.950 . S
C2819 C2817 1.390 . S
C2819 C2820 1.387 . S
C2819 H2822 0.950 . S
C2820 C2819 1.387 . S
C2820 C2823 1.387 . S
H2821 C2817 0.950 . S
H2822 C2819 0.950 . S
C2823 C2814 1.390 . S
C2823 H2816 0.950 . S
C2823 C2820 1.387 . S
C2824 C2825 1.387 . S
C2824 H2828 0.950 . S
C2824 C2833 1.390 . S
C2825 C2824 1.387 . S
C2825 C2827 1.387 . S
H2826 C2833 0.950 . S
C2827 C2825 1.387 . S
C2827 C2829 1.390 . S
C2827 H2831 0.950 . S
H2828 C2824 0.950 . S
C2829 C2827 1.390 . S
C2829 C2830 1.387 . S
C2829 H2832 0.950 . S
C2830 C2829 1.387 . S
C2830 C2833 1.387 . S
H2831 C2827 0.950 . S
H2832 C2829 0.950 . S
C2833 C2824 1.390 . S
C2833 H2826 0.950 . S
C2833 C2830 1.387 . S
C2834 C2835 1.387 . S
C2834 H2838 0.950 . S
C2834 C2843 1.390 . S
C2835 C2834 1.387 . S
C2835 C2837 1.387 1_565 S
H2836 C2843 0.950 . S
C2837 C2835 1.387 1_545 S
C2837 C2839 1.390 . S
C2837 H2841 0.950 . S
H2838 C2834 0.950 . S
C2839 C2837 1.390 . S
C2839 C2840 1.387 1_545 S
C2839 H2842 0.950 . S
C2840 C2839 1.387 1_565 S
C2840 C2843 1.387 . S
H2841 C2837 0.950 . S
H2842 C2839 0.950 . S
C2843 C2834 1.390 . S
C2843 H2836 0.950 . S
C2843 C2840 1.387 . S
C2844 C2845 1.387 . S
C2844 H2848 0.950 . S
C2844 C2853 1.390 . S
C2845 C2844 1.387 . S
C2845 C2847 1.387 1_565 S
H2846 C2853 0.950 . S
C2847 C2845 1.387 1_545 S
C2847 C2849 1.390 . S
C2847 H2851 0.950 . S
H2848 C2844 0.950 . S
C2849 C2847 1.390 . S
C2849 C2850 1.387 1_545 S
C2849 H2852 0.950 . S
C2850 C2849 1.387 1_565 S
C2850 C2853 1.387 . S
H2851 C2847 0.950 . S
H2852 C2849 0.950 . S
C2853 C2844 1.390 . S
C2853 H2846 0.950 . S
C2853 C2850 1.387 . S
C2854 C2855 1.387 . S
C2854 H2858 0.950 . S
C2854 C2863 1.396 1_455 S
C2855 C2854 1.387 . S
C2855 C2857 1.387 . S
H2856 C2863 0.950 . S
C2857 C2855 1.387 . S
C2857 C2859 1.390 . S
C2857 H2861 0.950 . S
H2858 C2854 0.950 . S
C2859 C2857 1.390 . S
C2859 C2860 1.387 . S
C2859 H2862 0.950 . S
C2860 C2859 1.387 . S
C2860 C2863 1.383 1_455 S
H2861 C2857 0.950 . S
H2862 C2859 0.950 . S
C2863 C2854 1.396 1_655 S
C2863 H2856 0.950 . S
C2863 C2860 1.383 1_655 S
C2864 C2865 1.387 . S
C2864 H2868 0.950 . S
C2864 C2873 1.390 . S
C2865 C2864 1.387 . S
C2865 C2867 1.387 . S
H2866 C2873 0.950 . S
C2867 C2865 1.387 . S
C2867 C2869 1.390 . S
C2867 H2871 0.950 . S
H2868 C2864 0.950 . S
C2869 C2867 1.390 . S
C2869 C2870 1.387 . S
C2869 H2872 0.950 . S
C2870 C2869 1.387 . S
C2870 C2873 1.387 . S
H2871 C2867 0.950 . S
H2872 C2869 0.950 . S
C2873 C2864 1.390 . S
C2873 H2866 0.950 . S
C2873 C2870 1.387 . S
C2874 C2875 1.387 . S
C2874 H2878 0.950 . S
C2874 C2883 1.390 . S
C2875 C2874 1.387 . S
C2875 C2877 1.387 . S
H2876 C2883 0.950 . S
C2877 C2875 1.387 . S
C2877 C2879 1.390 . S
C2877 H2881 0.950 . S
H2878 C2874 0.950 . S
C2879 C2877 1.390 . S
C2879 C2880 1.387 . S
C2879 H2882 0.950 . S
C2880 C2879 1.387 . S
C2880 C2883 1.387 . S
H2881 C2877 0.950 . S
H2882 C2879 0.950 . S
C2883 C2874 1.390 . S
C2883 H2876 0.950 . S
C2883 C2880 1.387 . S
C2884 C2885 1.387 . S
C2884 H2888 0.950 . S
C2884 C2893 1.390 . S
C2885 C2884 1.387 . S
C2885 C2887 1.387 . S
H2886 C2893 0.950 . S
C2887 C2885 1.387 . S
C2887 C2889 1.390 . S
C2887 H2891 0.950 . S
H2888 C2884 0.950 . S
C2889 C2887 1.390 . S
C2889 C2890 1.387 . S
C2889 H2892 0.950 . S
C2890 C2889 1.387 . S
C2890 C2893 1.387 . S
H2891 C2887 0.950 . S
H2892 C2889 0.950 . S
C2893 C2884 1.390 . S
C2893 H2886 0.950 . S
C2893 C2890 1.387 . S
C2894 C2895 1.387 . S
C2894 H2898 0.950 . S
C2894 C2903 1.390 . S
C2895 C2894 1.387 . S
C2895 C2897 1.387 . S
H2896 C2903 0.950 . S
C2897 C2895 1.387 . S
C2897 C2899 1.390 . S
C2897 H2901 0.950 . S
H2898 C2894 0.950 . S
C2899 C2897 1.390 . S
C2899 C2900 1.387 . S
C2899 H2902 0.950 . S
C2900 C2899 1.387 . S
C2900 C2903 1.387 . S
H2901 C2897 0.950 . S
H2902 C2899 0.950 . S
C2903 C2894 1.390 . S
C2903 H2896 0.950 . S
C2903 C2900 1.387 . S
C2904 C2905 1.387 . S
C2904 H2908 0.950 . S
C2904 C2913 1.390 . S
C2905 C2904 1.387 . S
C2905 C2907 1.387 1_545 S
H2906 C2913 0.950 . S
C2907 C2905 1.387 1_565 S
C2907 C2909 1.390 . S
C2907 H2911 0.950 . S
H2908 C2904 0.950 . S
C2909 C2907 1.390 . S
C2909 C2910 1.387 1_565 S
C2909 H2912 0.950 . S
C2910 C2909 1.387 1_545 S
C2910 C2913 1.387 . S
H2911 C2907 0.950 . S
H2912 C2909 0.950 . S
C2913 C2904 1.390 . S
C2913 H2906 0.950 . S
C2913 C2910 1.387 . S
C2914 C2915 1.387 . S
C2914 H2918 0.933 1_655 S
C2914 C2923 1.390 . S
C2915 C2914 1.387 . S
C2915 C2917 1.387 . S
H2916 C2923 0.950 1_455 S
C2917 C2915 1.387 . S
C2917 C2919 1.390 . S
C2917 H2921 0.950 . S
H2918 C2914 0.933 1_455 S
C2919 C2917 1.390 . S
C2919 C2920 1.387 . S
C2919 H2922 0.950 . S
C2920 C2919 1.387 . S
C2920 C2923 1.387 . S
H2921 C2917 0.950 . S
H2922 C2919 0.950 . S
C2923 C2914 1.390 . S
C2923 H2916 0.950 1_655 S
C2923 C2920 1.387 . S
C2924 C2925 1.387 . S
C2924 H2928 0.950 . S
C2924 C2933 1.390 . S
C2925 C2924 1.387 . S
C2925 C2927 1.387 . S
H2926 C2933 0.950 . S
C2927 C2925 1.387 . S
C2927 C2929 1.390 . S
C2927 H2931 0.950 . S
H2928 C2924 0.950 . S
C2929 C2927 1.390 . S
C2929 C2930 1.387 . S
C2929 H2932 0.950 . S
C2930 C2929 1.387 . S
C2930 C2933 1.387 . S
H2931 C2927 0.950 . S
H2932 C2929 0.950 . S
C2933 C2924 1.390 . S
C2933 H2926 0.950 . S
C2933 C2930 1.387 . S
C2934 C2935 1.387 . S
C2934 H2938 0.950 . S
C2934 C2943 1.390 . S
C2935 C2934 1.387 . S
C2935 C2937 1.387 . S
H2936 C2943 0.950 . S
C2937 C2935 1.387 . S
C2937 C2939 1.390 . S
C2937 H2941 0.950 . S
H2938 C2934 0.950 . S
C2939 C2937 1.390 . S
C2939 C2940 1.387 . S
C2939 H2942 0.950 . S
C2940 C2939 1.387 . S
C2940 C2943 1.387 . S
H2941 C2937 0.950 . S
H2942 C2939 0.950 . S
C2943 C2934 1.390 . S
C2943 H2936 0.950 . S
C2943 C2940 1.387 . S
C2944 C2945 1.387 . S
C2944 H2948 0.950 . S
C2944 C2953 1.390 . S
C2945 C2944 1.387 . S
C2945 C2947 1.387 . S
H2946 C2953 0.950 . S
C2947 C2945 1.387 . S
C2947 C2949 1.390 . S
C2947 H2951 0.950 . S
H2948 C2944 0.950 . S
C2949 C2947 1.390 . S
C2949 C2950 1.387 . S
C2949 H2952 0.950 . S
C2950 C2949 1.387 . S
C2950 C2953 1.387 . S
H2951 C2947 0.950 . S
H2952 C2949 0.950 . S
C2953 C2944 1.390 . S
C2953 H2946 0.950 . S
C2953 C2950 1.387 . S
C2954 C2955 1.387 . S
C2954 H2958 0.950 . S
C2954 C2963 1.390 . S
C2955 C2954 1.387 . S
C2955 C2957 1.387 . S
H2956 C2963 0.950 . S
C2957 C2955 1.387 . S
C2957 C2959 1.390 . S
C2957 H2961 0.950 . S
H2958 C2954 0.950 . S
C2959 C2957 1.390 . S
C2959 C2960 1.387 . S
C2959 H2962 0.950 . S
C2960 C2959 1.387 . S
C2960 C2963 1.387 . S
H2961 C2957 0.950 . S
H2962 C2959 0.950 . S
C2963 C2954 1.390 . S
C2963 H2956 0.950 . S
C2963 C2960 1.387 . S
C2964 C2965 1.387 . S
C2964 H2968 0.950 . S
C2964 C2973 1.390 . S
C2965 C2964 1.387 . S
C2965 C2967 1.387 . S
H2966 C2973 0.950 . S
C2967 C2965 1.387 . S
C2967 C2969 1.390 . S
C2967 H2971 0.950 . S
H2968 C2964 0.950 . S
C2969 C2967 1.390 . S
C2969 C2970 1.387 . S
C2969 H2972 0.950 . S
C2970 C2969 1.387 . S
C2970 C2973 1.387 . S
H2971 C2967 0.950 . S
H2972 C2969 0.950 . S
C2973 C2964 1.390 . S
C2973 H2966 0.950 . S
C2973 C2970 1.387 . S
C2974 C2975 1.387 . S
C2974 H2978 0.950 . S
C2974 C2983 1.390 . S
C2975 C2974 1.387 . S
C2975 C2977 1.387 . S
H2976 C2983 0.950 . S
C2977 C2975 1.387 . S
C2977 C2979 1.390 . S
C2977 H2981 0.950 . S
H2978 C2974 0.950 . S
C2979 C2977 1.390 . S
C2979 C2980 1.387 . S
C2979 H2982 0.950 . S
C2980 C2979 1.387 . S
C2980 C2983 1.387 . S
H2981 C2977 0.950 . S
H2982 C2979 0.950 . S
C2983 C2974 1.390 . S
C2983 H2976 0.950 . S
C2983 C2980 1.387 . S
C2984 C2985 1.387 . S
C2984 H2988 0.950 . S
C2984 C2993 1.390 . S
C2985 C2984 1.387 . S
C2985 C2987 1.387 . S
H2986 C2993 0.950 . S
C2987 C2985 1.387 . S
C2987 C2989 1.390 . S
C2987 H2991 0.950 . S
H2988 C2984 0.950 . S
C2989 C2987 1.390 . S
C2989 C2990 1.387 . S
C2989 H2992 0.950 . S
C2990 C2989 1.387 . S
C2990 C2993 1.387 . S
H2991 C2987 0.950 . S
H2992 C2989 0.950 . S
C2993 C2984 1.390 . S
C2993 H2986 0.950 . S
C2993 C2990 1.387 . S
C2994 C2995 1.418 . S
C2994 H2998 0.960 1_655 S
C2994 C3003 1.353 1_655 S
C2995 C2994 1.418 . S
C2995 C2997 1.387 . S
H2996 C3003 0.950 . S
C2997 C2995 1.387 . S
C2997 C2999 1.390 . S
C2997 H3001 0.950 . S
H2998 C2994 0.960 1_455 S
C2999 C2997 1.390 . S
C2999 C3000 1.387 . S
C2999 H3002 0.950 . S
C3000 C2999 1.387 . S
C3000 C3003 1.387 1_655 S
H3001 C2997 0.950 . S
H3002 C2999 0.950 . S
C3003 C2994 1.353 1_455 S
C3003 H2996 0.950 . S
C3003 C3000 1.387 1_455 S
C3004 C3005 1.387 . S
C3004 H3008 0.950 . S
C3004 C3013 1.390 . S
C3005 C3004 1.387 . S
C3005 C3007 1.387 . S
H3006 C3013 0.950 . S
C3007 C3005 1.387 . S
C3007 C3009 1.390 . S
C3007 H3011 0.950 . S
H3008 C3004 0.950 . S
C3009 C3007 1.390 . S
C3009 C3010 1.387 . S
C3009 H3012 0.950 . S
C3010 C3009 1.387 . S
C3010 C3013 1.387 . S
H3011 C3007 0.950 . S
H3012 C3009 0.950 . S
C3013 C3004 1.390 . S
C3013 H3006 0.950 . S
C3013 C3010 1.387 . S
C3014 C3015 1.387 . S
C3014 H3018 0.950 . S
C3014 C3023 1.390 . S
C3015 C3014 1.387 . S
C3015 C3017 1.387 1_545 S
H3016 C3023 0.950 . S
C3017 C3015 1.387 1_565 S
C3017 C3019 1.390 . S
C3017 H3021 0.950 . S
H3018 C3014 0.950 . S
C3019 C3017 1.390 . S
C3019 C3020 1.387 1_565 S
C3019 H3022 0.950 . S
C3020 C3019 1.387 1_545 S
C3020 C3023 1.387 . S
H3021 C3017 0.950 . S
H3022 C3019 0.950 . S
C3023 C3014 1.390 . S
C3023 H3016 0.950 . S
C3023 C3020 1.387 . S
C2305 C4 1.331 . S
C2310 C1307 1.087 1_655 S
C2315 C26 1.737 . S
C2320 C1447 0.999 . S
C2330 C1535 1.110 . S
C2325 C32 1.310 . S
C2335 C40 1.379 . S
C2340 C1675 1.042 1_565 S
C2345 C12 1.408 . S
C2350 C1789 1.128 . S
C2355 C18 1.630 . S
C2360 C1877 1.174 . S
C2365 C46 1.336 . S
C2370 C1763 1.051 . S
C2380 C1903 1.350 . S
C2375 C68 1.613 . S
C2390 C1649 1.077 . S
C2385 C74 1.334 . S
C2395 C82 1.404 . S
C2400 C1561 0.945 . S
C2410 C1333 0.998 . S
C2405 C54 1.430 . S
C2415 C60 1.515 . S
C2420 C1421 1.408 . S
C2425 C88 1.783 . S
C2430 C1991 1.276 . S
C2435 C110 1.864 . S
C2440 C2131 1.099 . S
C2450 C2219 1.247 . S
C2445 C116 1.760 . S
C2455 C124 1.692 . S
C2460 C307 1.002 . S
C2465 C96 1.753 . S
C2470 C421 1.054 . S
C2475 C102 1.749 . S
C2480 C509 1.244 . S
C2485 C130 1.542 . S
C2490 C395 1.469 . S
C2495 C152 1.729 . S
C2500 C535 1.508 . S
C2510 C281 1.548 . S
C2505 C158 1.644 . S
C2520 C2245 1.453 . S
C2515 C166 1.689 . S
C2530 C2017 1.367 . S
C2525 C138 1.601 . S
C2540 C2105 1.581 . S
C2535 C144 1.647 . S
C2545 C172 1.679 . S
C2550 C623 1.172 . S
C2555 C194 1.872 . S
C2560 C763 1.091 . S
C2565 C200 1.776 . S
C2570 C851 1.258 . S
C2575 C208 1.795 . S
C2580 C991 1.099 . S
C2590 C1105 1.031 . S
C2585 C180 1.728 . S
C2600 C1193 1.278 . S
C2595 C186 1.760 . S
C2610 C1079 1.576 . S
C2605 C214 1.658 . S
C2620 C1219 1.520 . S
C2615 C236 1.722 . S
C2625 C242 1.610 . S
C2630 C965 1.538 . S
C2640 C877 1.351 . S
C2635 C250 1.570 . S
C2645 C222 1.645 . S
C2650 C649 1.389 . S
C2660 C737 1.556 . S
C2655 C228 1.627 . S
C2670 C263 0.962 . S
C2665 C5 1.701 . S
C2675 C25 1.794 . S
C2680 C377 0.930 . S
C2690 C481 1.278 . S
C2685 C33 1.646 . S
C2700 C595 1.144 . S
C2695 C39 1.708 . S
C2710 C719 0.953 . S
C2705 C11 1.878 . S
C2720 C823 1.178 . S
C2715 C19 1.457 1_556 S
C2725 C47 1.818 1_556 S
C2730 C833 1.746 . S
C2735 C67 1.954 . S
C2740 C605 1.661 . S
C2745 C75 1.813 1_556 S
C2750 C709 1.948 . S
C2755 C81 1.874 . S
C2760 C367 1.716 . S
C2770 C491 1.723 . S
C2765 C53 2.043 . S
C2775 C61 1.570 . S
C2780 C253 1.732 . S
C2790 C947 0.932 . S
C2785 C89 1.535 . S
C2795 C109 1.850 . S
C2800 C1061 1.010 . S
C2805 C117 1.513 . S
C2810 C1165 1.296 . S
C2820 C1279 0.960 . S
C2815 C123 1.160 . S
C2825 C95 1.688 . S
C2830 C1403 0.855 . S
C2835 C103 1.126 . S
C2840 C1507 1.003 . S
C2845 C131 1.215 . S
C2850 C1517 0.909 1_565 S
C2855 C151 1.307 . S
C2860 C1289 0.945 1_455 S
C2870 C1393 1.724 . S
C2865 C159 1.563 . S
C2875 C165 1.806 . S
C2880 C1051 1.671 . S
C2885 C137 1.968 . S
C2890 C1175 1.642 . S
C2900 C937 1.770 . S
C2895 C145 1.612 . S
C2910 C1631 0.795 . S
C2905 C173 1.205 . S
C2915 C193 1.214 . S
C2920 C1745 0.805 . S
C2925 C201 1.427 . S
C2930 C1849 1.162 . S
C2940 C1963 1.140 . S
C2935 C207 1.639 . S
C2950 C2087 1.007 . S
C2945 C179 1.837 . S
C2955 C187 1.493 . S
C2960 C2191 1.252 . S
C2965 C215 1.682 . S
C2970 C2201 1.678 . S
C2975 C235 2.003 . S
C2980 C1973 1.677 . S
C2990 C2077 1.851 . S
C2985 C243 1.633 . S
C3000 C1735 1.007 1_655 S
C2995 C249 1.164 . S
C3010 C1859 1.507 . S
C3005 C221 1.844 . S
C3015 C229 1.143 . S
C3020 C1621 1.061 1_545 S
