# Generated by pormake.
# Topology zzz, (3,6)-cn, num edge types: 1
# Building blocks:
#     Node 0, Type 0, BuildingBlock: ESEHIV_clean_linker_0, # of connection points: 3
#     Node 1, Type 0, BuildingBlock: ESEHIV_clean_linker_0, # of connection points: 3
#     Node 2, Type 0, BuildingBlock: ESEHIV_clean_linker_0, # of connection points: 3
#     Node 3, Type 0, BuildingBlock: ESEHIV_clean_linker_0, # of connection points: 3
#     Node 4, Type 0, BuildingBlock: ESEHIV_clean_linker_0, # of connection points: 3
#     Node 5, Type 0, BuildingBlock: ESEHIV_clean_linker_0, # of connection points: 3
#     Node 6, Type 0, BuildingBlock: ESEHIV_clean_linker_0, # of connection points: 3
#     Node 7, Type 0, BuildingBlock: ESEHIV_clean_linker_0, # of connection points: 3
#     Node 8, Type 1, BuildingBlock: MIFKUJ_clean_sbu_0, # of connection points: 6
#     Node 9, Type 1, BuildingBlock: MIFKUJ_clean_sbu_0, # of connection points: 6
#     Node 10, Type 1, BuildingBlock: MIFKUJ_clean_sbu_0, # of connection points: 6
#     Node 11, Type 1, BuildingBlock: MIFKUJ_clean_sbu_0, # of connection points: 6
#     Edge 12, Type (0, 1), BuildingBlock: MIFKUJ_clean_linker_0, # of connection points: 2
#     Edge 13, Type (0, 1), BuildingBlock: MIFKUJ_clean_linker_0, # of connection points: 2
#     Edge 14, Type (0, 1), BuildingBlock: MIFKUJ_clean_linker_0, # of connection points: 2
#     Edge 15, Type (0, 1), BuildingBlock: MIFKUJ_clean_linker_0, # of connection points: 2
#     Edge 16, Type (0, 1), BuildingBlock: MIFKUJ_clean_linker_0, # of connection points: 2
#     Edge 17, Type (0, 1), BuildingBlock: MIFKUJ_clean_linker_0, # of connection points: 2
#     Edge 18, Type (0, 1), BuildingBlock: MIFKUJ_clean_linker_0, # of connection points: 2
#     Edge 19, Type (0, 1), BuildingBlock: MIFKUJ_clean_linker_0, # of connection points: 2
#     Edge 20, Type (0, 1), BuildingBlock: MIFKUJ_clean_linker_0, # of connection points: 2
#     Edge 21, Type (0, 1), BuildingBlock: MIFKUJ_clean_linker_0, # of connection points: 2
#     Edge 22, Type (0, 1), BuildingBlock: MIFKUJ_clean_linker_0, # of connection points: 2
#     Edge 23, Type (0, 1), BuildingBlock: MIFKUJ_clean_linker_0, # of connection points: 2
#     Edge 24, Type (0, 1), BuildingBlock: MIFKUJ_clean_linker_0, # of connection points: 2
#     Edge 25, Type (0, 1), BuildingBlock: MIFKUJ_clean_linker_0, # of connection points: 2
#     Edge 26, Type (0, 1), BuildingBlock: MIFKUJ_clean_linker_0, # of connection points: 2
#     Edge 27, Type (0, 1), BuildingBlock: MIFKUJ_clean_linker_0, # of connection points: 2
#     Edge 28, Type (0, 1), BuildingBlock: MIFKUJ_clean_linker_0, # of connection points: 2
#     Edge 29, Type (0, 1), BuildingBlock: MIFKUJ_clean_linker_0, # of connection points: 2
#     Edge 30, Type (0, 1), BuildingBlock: MIFKUJ_clean_linker_0, # of connection points: 2
#     Edge 31, Type (0, 1), BuildingBlock: MIFKUJ_clean_linker_0, # of connection points: 2
#     Edge 32, Type (0, 1), BuildingBlock: MIFKUJ_clean_linker_0, # of connection points: 2
#     Edge 33, Type (0, 1), BuildingBlock: MIFKUJ_clean_linker_0, # of connection points: 2
#     Edge 34, Type (0, 1), BuildingBlock: MIFKUJ_clean_linker_0, # of connection points: 2
#     Edge 35, Type (0, 1), BuildingBlock: MIFKUJ_clean_linker_0, # of connection points: 2
# Relax obj value: 0.312
# Max RMSD: 0.211
# Mean RMSD: 0.194
data_MOF--net-zzz--node1-MIFKUJ_clean_sbu_0--node2-ESEHIV_clean_linker_0--edge1-MIFKUJ_clean_linker_0
_symmetry_space_group_name_H-M    P1
_symmetry_Int_Tables_number       1
_symmetry_cell_setting            triclinic
loop_
_symmetry_equiv_pos_as_xyz
'x, y, z'
_cell_length_a     58.535525
_cell_length_b     58.53121
_cell_length_c     21.49526
_cell_angle_alpha  89.860839
_cell_angle_beta   89.609725
_cell_angle_gamma 90.04483
loop_
_atom_site_label
_atom_site_type_symbol
_atom_site_fract_x
_atom_site_fract_y
_atom_site_fract_z
_atom_type_partial_charge
H0 H 0.78812 0.54471 0.14147 0.0
H1 H 0.74532 0.54612 0.98038 0.0
H2 H 0.71533 0.54861 0.16431 0.0
C3 C 0.77135 0.54655 0.12085 0.0
C4 C 0.75218 0.54775 0.15995 0.0
C5 C 0.76908 0.54566 0.05621 0.0
C6 C 0.7472 0.54701 0.03045 0.0
C7 C 0.72765 0.5484 0.06884 0.0
C8 C 0.73021 0.54831 0.13406 0.0
H9 H 0.00992 0.78523 0.12021 0.0
H10 H 0.01785 0.73284 0.98277 0.0
H11 H 0.00051 0.71481 0.17234 0.0
C12 C 0.00949 0.76732 0.1075 0.0
C13 C 0.00461 0.75099 0.1533 0.0
C14 C 0.01418 0.76098 0.04612 0.0
C15 C 0.01439 0.73782 0.03051 0.0
C16 C 0.0094 0.72102 0.07544 0.0
C17 C 0.00437 0.72761 0.13733 0.0
H18 H 0.73207 0.02043 0.1259 0.0
H19 H 0.78316 0.01282 0.98356 0.0
H20 H 0.79397 0.98358 0.16537 0.0
C21 C 0.74887 0.01459 0.11144 0.0
C22 C 0.76225 0.00208 0.15332 0.0
C23 C 0.75616 0.01842 0.05025 0.0
C24 C 0.77732 0.00982 0.03091 0.0
C25 C 0.79112 0.9974 0.07209 0.0
C26 C 0.78354 0.99338 0.13357 0.0
H27 H 0.45797 0.72293 0.14473 0.0
H28 H 0.49152 0.7867 0.18274 0.0
H29 H 0.45729 0.77641 0.00797 0.0
C30 C 0.4617 0.74044 0.13136 0.0
C31 C 0.45583 0.74815 0.072 0.0
C32 C 0.47444 0.75418 0.17154 0.0
C33 C 0.48103 0.77628 0.15266 0.0
C34 C 0.47413 0.78465 0.09414 0.0
C35 C 0.46155 0.77048 0.05431 0.0
H36 H 0.23342 0.49777 0.09615 0.0
H37 H 0.29131 0.51183 0.21024 0.0
H38 H 0.301 0.48565 0.02406 0.0
C39 C 0.25175 0.49799 0.10263 0.0
C40 C 0.26601 0.49056 0.05429 0.0
C41 C 0.26074 0.5058 0.15869 0.0
C42 C 0.28442 0.50648 0.16591 0.0
C43 C 0.29926 0.49954 0.11767 0.0
C44 C 0.28991 0.49129 0.06154 0.0
H45 H 0.97736 0.22896 0.03511 0.0
H46 H 0.97284 0.28666 0.15679 0.0
H47 H 0.0028 0.2943 0.9738 0.0
C48 C 0.97972 0.24706 0.04334 0.0
C49 C 0.9901 0.26048 0.99712 0.0
C50 C 0.97361 0.25631 0.10096 0.0
C51 C 0.97735 0.27952 0.11182 0.0
C52 C 0.98769 0.29347 0.06642 0.0
C53 C 0.99445 0.28383 0.00882 0.0
H54 H 0.28479 0.02936 0.04381 0.0
H55 H 0.22798 0.03372 0.16986 0.0
H56 H 0.21703 0.03965 0.97194 0.0
C57 C 0.26666 0.03207 0.05178 0.0
C58 C 0.25216 0.03491 0.00081 0.0
C59 C 0.25803 0.03149 0.11248 0.0
C60 C 0.23467 0.03439 0.12268 0.0
C61 C 0.21978 0.03774 0.07256 0.0
C62 C 0.22847 0.03774 0.011 0.0
H63 H 0.47544 0.26474 0.04457 0.0
H64 H 0.48949 0.1973 0.97377 0.0
H65 H 0.49304 0.21122 0.17082 0.0
C66 C 0.47924 0.24684 0.05273 0.0
C67 C 0.48395 0.23954 0.11304 0.0
C68 C 0.48116 0.23188 0.00212 0.0
C69 C 0.48747 0.20888 0.01264 0.0
C70 C 0.4917 0.20125 0.07403 0.0
C71 C 0.48977 0.21679 0.12353 0.0
Zn72 Zn 0.99429 0.02441 0.54879 0.0
Zn73 Zn 0.02353 0.98294 0.60652 0.0
C74 C 0.98994 0.05826 0.63756 0.0
O75 O 0.96904 0.05237 0.6224 0.0
C76 C 0.0271 0.94282 0.53255 0.0
O77 O 0.04849 0.94626 0.54818 0.0
O78 O 0.97846 0.04681 0.49293 0.0
O79 O 0.01754 0.01063 0.49007 0.0
O80 O 0.0444 0.00445 0.55838 0.0
C81 C 0.99291 0.06199 0.47684 0.0
O82 O 0.01434 0.05948 0.49342 0.0
O83 O 0.00646 0.04656 0.6152 0.0
C84 C 0.04219 0.96716 0.72414 0.0
O85 O 0.03008 0.98375 0.74886 0.0
O86 O 0.04329 0.96539 0.66539 0.0
O87 O 0.99705 0.99428 0.66029 0.0
O88 O 0.97151 0.00349 0.58979 0.0
O89 O 0.01219 0.95755 0.54889 0.0
C90 C 0.03857 0.00927 0.50315 0.0
C91 C 0.9763 0.99704 0.64465 0.0
Zn92 Zn 0.48292 0.98374 0.55581 0.0
Zn93 Zn 0.53101 0.00745 0.61076 0.0
C94 C 0.44829 0.99046 0.64226 0.0
O95 O 0.45046 0.96818 0.63793 0.0
C96 C 0.56817 0.01006 0.52827 0.0
O97 O 0.563 0.03158 0.53854 0.0
O98 O 0.4595 0.97068 0.49839 0.0
O99 O 0.5036 1.00102 0.4967 0.0
O100 O 0.51198 0.02932 0.55888 0.0
C101 C 0.45041 0.987 0.46832 0.0
O102 O 0.45743 0.00798 0.47842 0.0
O103 O 0.46239 0.00307 0.61241 0.0
C104 C 0.56574 0.01298 0.69286 0.0
O105 O 0.5658 0.99112 0.67901 0.0
O106 O 0.55016 0.02561 0.67041 0.0
O107 O 0.51751 0.98207 0.66517 0.0
O108 O 0.49709 0.95884 0.60649 0.0
O109 O 0.55546 0.99467 0.55227 0.0
C110 C 0.50764 0.02208 0.50456 0.0
C111 C 0.50756 0.96297 0.65679 0.0
Zn112 Zn 0.51737 0.4666 0.58782 0.0
Zn113 Zn 0.49363 0.52171 0.62647 0.0
C114 C 0.51267 0.43661 0.68564 0.0
O115 O 0.5348 0.43912 0.67769 0.0
C116 C 0.481 0.55921 0.55184 0.0
O117 O 0.46157 0.5539 0.57928 0.0
O118 O 0.52611 0.44015 0.53357 0.0
O119 O 0.49995 0.48584 0.52637 0.0
O120 O 0.47231 0.49951 0.58486 0.0
C121 C 0.50752 0.43097 0.51584 0.0
O122 O 0.48804 0.43965 0.53513 0.0
O123 O 0.49932 0.44958 0.65499 0.0
C124 C 0.49047 0.55469 0.71557 0.0
O125 O 0.51107 0.55718 0.69178 0.0
O126 O 0.47822 0.53813 0.69706 0.0
O127 O 0.52445 0.51171 0.65879 0.0
O128 O 0.54434 0.48176 0.62687 0.0
O129 O 0.4985 0.54696 0.56275 0.0
C130 C 0.47931 0.49192 0.53288 0.0
C131 C 0.54235 0.49945 0.66055 0.0
Zn132 Zn 0.04081 0.49489 0.60662 0.0
Zn133 Zn 0.97209 0.49525 0.60161 0.0
C134 C 0.06309 0.48851 0.72237 0.0
O135 O 0.05479 0.50913 0.73049 0.0
C136 C 0.9277 0.49082 0.55042 0.0
O137 O 0.93166 0.46948 0.56605 0.0
O138 O 0.06777 0.50737 0.56022 0.0
O139 O 0.02615 0.47415 0.54203 0.0
O140 O 0.98834 0.47574 0.53828 0.0
C141 C 0.07901 0.52528 0.57326 0.0
O142 O 0.072 0.53873 0.61825 0.0
O143 O 0.05709 0.47728 0.67451 0.0
C144 C 0.96751 0.47966 0.72843 0.0
O145 O 0.98649 0.49118 0.73698 0.0
O146 O 0.96056 0.47646 0.67329 0.0
O147 O 0.98617 0.52353 0.63878 0.0
O148 O 0.02394 0.52206 0.64413 0.0
O149 O 0.94314 0.5057 0.55983 0.0
C150 C 0.00728 0.4681 0.518 0.0
C151 C 0.00512 0.53218 0.65507 0.0
H152 H 0.19847 0.07342 0.12789 0.0
H153 H 0.16328 0.07092 0.18977 0.0
H154 H 0.15158 0.00297 0.11968 0.0
H155 H 0.1869 0.00547 0.05796 0.0
H156 H 0.11711 0.06142 0.18353 0.0
H157 H 0.14329 0.96885 0.2438 0.0
H158 H 0.17807 0.94498 0.2437 0.0
H159 H 0.21953 0.00481 0.26831 0.0
H160 H 0.18505 0.02895 0.26879 0.0
H161 H 0.03118 0.01425 0.3786 0.0
H162 H 0.05925 0.02102 0.29638 0.0
H163 H 0.1132 0.02069 0.43217 0.0
H164 H 0.08514 0.01317 0.51482 0.0
H165 H 0.12665 0.99814 0.33538 0.0
H166 H 0.09211 0.07078 0.36648 0.0
H167 H 0.06028 0.09809 0.37715 0.0
H168 H 0.04038 0.08504 0.18867 0.0
H169 H 0.07184 0.05729 0.17722 0.0
C170 C 0.18772 0.05845 0.12327 0.0
C171 C 0.1952 0.03972 0.08778 0.0
C172 C 0.16769 0.05697 0.15893 0.0
C173 C 0.155 0.03662 0.16022 0.0
C174 C 0.16121 0.01878 0.11975 0.0
C175 C 0.18123 0.02029 0.0839 0.0
C176 C 0.13784 0.03275 0.21058 0.0
C177 C 0.11901 0.04746 0.21637 0.0
C178 C 0.14084 0.01516 0.25512 0.0
C179 C 0.16162 1.00069 0.25564 0.0
C180 C 0.15984 0.97687 0.24928 0.0
C181 C 0.17951 0.96331 0.24904 0.0
C182 C 0.20102 0.97338 0.25561 0.0
C183 C 0.2029 0.99703 0.26272 0.0
C184 C 0.18331 0.01065 0.26289 0.0
C185 C 0.04902 0.01559 0.39116 0.0
C186 C 0.05589 0.01322 0.45348 0.0
C187 C 0.06507 0.0196 0.34396 0.0
C188 C 0.08836 0.02175 0.35797 0.0
C189 C 0.09533 0.01915 0.4201 0.0
C190 C 0.07927 0.01489 0.46738 0.0
C191 C 0.10542 0.02642 0.30771 0.0
C192 C 0.12443 0.01193 0.30217 0.0
C193 C 0.10293 0.04474 0.2649 0.0
C194 C 0.08423 0.06177 0.27118 0.0
C195 C 0.08087 0.07361 0.32741 0.0
C196 C 0.06289 0.08918 0.33361 0.0
C197 C 0.04828 0.09326 0.28367 0.0
C198 C 0.05169 0.08184 0.22735 0.0
C199 C 0.0696 0.06618 0.22097 0.0
H200 H 0.03436 0.1053 0.28859 0.0
H201 H 0.21622 0.96286 0.25541 0.0
H202 H 0.5279 0.18818 0.14302 0.0
H203 H 0.5325 0.15219 0.19701 0.0
H204 H 0.47599 0.1238 0.09453 0.0
H205 H 0.47024 0.161 0.04358 0.0
H206 H 0.4689 0.11341 0.20405 0.0
H207 H 0.53485 0.10352 0.08483 0.0
H208 H 0.571 0.1123 0.03045 0.0
H209 H 0.60375 0.12437 0.20542 0.0
H210 H 0.56767 0.11623 0.26094 0.0
H211 H 0.49205 0.01289 0.38787 0.0
H212 H 0.49169 0.03814 0.29731 0.0
H213 H 0.5236 0.09127 0.40475 0.0
H214 H 0.5237 0.06617 0.4965 0.0
H215 H 0.54276 0.08181 0.27625 0.0
H216 H 0.46934 0.09508 0.3863 0.0
H217 H 0.43345 0.07966 0.43032 0.0
H218 H 0.41576 0.0521 0.25204 0.0
H219 H 0.45169 0.06717 0.20717 0.0
C220 C 0.5168 0.17409 0.13073 0.0
C221 C 0.49856 0.17748 0.08954 0.0
C222 C 0.51957 0.1533 0.16138 0.0
C223 C 0.50473 0.13491 0.15 0.0
C224 C 0.48764 0.13766 0.10463 0.0
C225 C 0.48454 0.15881 0.07474 0.0
C226 C 0.50556 0.11424 0.19111 0.0
C227 C 0.48511 0.10625 0.21841 0.0
C228 C 0.52656 0.10437 0.21014 0.0
C229 C 0.54843 0.10935 0.17712 0.0
C230 C 0.54969 0.10824 0.11178 0.0
C231 C 0.57018 0.11313 0.08072 0.0
C232 C 0.58965 0.1189 0.11445 0.0
C233 C 0.58865 0.11987 0.17934 0.0
C234 C 0.56817 0.11511 0.21066 0.0
C235 C 0.49901 0.02995 0.3925 0.0
C236 C 0.50776 0.03758 0.44975 0.0
C237 C 0.49882 0.04432 0.34051 0.0
C238 C 0.5076 0.06653 0.34435 0.0
C239 C 0.51679 0.07412 0.40089 0.0
C240 C 0.5167 0.05983 0.45334 0.0
C241 C 0.5064 0.08221 0.2901 0.0
C242 C 0.52672 0.08899 0.26054 0.0
C243 C 0.48529 0.09017 0.26704 0.0
C244 C 0.46323 0.08214 0.2935 0.0
C245 C 0.4578 0.08571 0.35654 0.0
C246 C 0.43746 0.07703 0.38164 0.0
C247 C 0.42235 0.06489 0.34402 0.0
C248 C 0.42748 0.06153 0.28112 0.0
C249 C 0.4478 0.07017 0.25581 0.0
H250 H 0.40666 0.05808 0.36359 0.0
H251 H 0.60552 0.12259 0.0903 0.0
H252 H 0.32303 0.53403 0.17129 0.0
H253 H 0.36029 0.53161 0.21827 0.0
H254 H 0.37064 0.4653 0.13479 0.0
H255 H 0.33187 0.46685 0.0923 0.0
H256 H 0.38167 0.46063 0.24313 0.0
H257 H 0.40615 0.51665 0.10271 0.0
H258 H 0.40637 0.55142 0.03772 0.0
H259 H 0.40466 0.59316 0.20166 0.0
H260 H 0.40415 0.55873 0.26762 0.0
H261 H 0.48524 0.46812 0.42519 0.0
H262 H 0.4612 0.46874 0.33258 0.0
H263 H 0.41609 0.517 0.42173 0.0
H264 H 0.43983 0.51618 0.51527 0.0
H265 H 0.43132 0.52705 0.28965 0.0
H266 H 0.40028 0.46481 0.42281 0.0
H267 H 0.40671 0.42863 0.47919 0.0
H268 H 0.42894 0.39667 0.30979 0.0
H269 H 0.42299 0.43281 0.25256 0.0
C270 C 0.33335 0.51903 0.16205 0.0
C271 C 0.32427 0.50041 0.12928 0.0
C272 C 0.35499 0.51781 0.18822 0.0
C273 C 0.36869 0.49832 0.18008 0.0
C274 C 0.36047 0.4805 0.14231 0.0
C275 C 0.33839 0.48149 0.1173 0.0
C276 C 0.38978 0.49557 0.21825 0.0
C277 C 0.39281 0.47507 0.25164 0.0
C278 C 0.40484 0.51412 0.22967 0.0
C279 C 0.40503 0.53502 0.19019 0.0
C280 C 0.40568 0.53324 0.12494 0.0
C281 C 0.40589 0.55291 0.08789 0.0
C282 C 0.40553 0.57448 0.11551 0.0
C283 C 0.405 0.57645 0.18026 0.0
C284 C 0.4048 0.55685 0.21752 0.0
C285 C 0.47018 0.47886 0.4252 0.0
C286 C 0.46435 0.49205 0.47769 0.0
C287 C 0.45654 0.47922 0.37216 0.0
C288 C 0.43699 0.49298 0.37039 0.0
C289 C 0.43123 0.50636 0.4223 0.0
C290 C 0.44468 0.50575 0.4758 0.0
C291 C 0.42192 0.49285 0.31548 0.0
C292 C 0.42029 0.51268 0.27926 0.0
C293 C 0.40887 0.47345 0.29963 0.0
C294 C 0.41134 0.45152 0.33355 0.0
C295 C 0.4066 0.45008 0.39764 0.0
C296 C 0.41019 0.4296 0.42974 0.0
C297 C 0.41832 0.41039 0.3981 0.0
C298 C 0.42272 0.41158 0.33421 0.0
C299 C 0.41921 0.43204 0.30192 0.0
H300 H 0.42118 0.39458 0.42306 0.0
H301 H 0.40562 0.58967 0.08674 0.0
H302 H 0.02896 0.31451 0.08196 0.0
H303 H 0.03569 0.34895 0.14436 0.0
H304 H 0.96295 0.35976 0.15884 0.0
H305 H 0.95634 0.32578 0.09569 0.0
H306 H 0.98391 0.3998 0.15949 0.0
H307 H 0.9918 0.3283 0.26701 0.0
H308 H 0.00768 0.28986 0.28501 0.0
H309 H 0.07464 0.31865 0.30683 0.0
H310 H 0.05919 0.35727 0.28792 0.0
H311 H 0.97024 0.45125 0.45544 0.0
H312 H 0.96991 0.42548 0.36649 0.0
H313 H 0.04352 0.42294 0.36778 0.0
H314 H 0.04404 0.44856 0.45772 0.0
H315 H 0.02565 0.38096 0.35309 0.0
H316 H 0.01387 0.45447 0.25723 0.0
H317 H 0.99485 0.49171 0.24339 0.0
H318 H 0.93143 0.45774 0.20535 0.0
H319 H 0.94999 0.4203 0.21986 0.0
C320 C 0.01452 0.32489 0.09605 0.0
C321 C 0.99214 0.31758 0.08383 0.0
C322 C 0.01832 0.34438 0.13249 0.0
C323 C 0.99979 0.35669 0.15775 0.0
C324 C 0.97754 0.35059 0.14031 0.0
C325 C 0.97376 0.33121 0.10391 0.0
C326 C 0.00317 0.37404 0.20779 0.0
C327 C 0.99303 0.39567 0.20182 0.0
C328 C 0.0151 0.36878 0.26321 0.0
C329 C 0.0244 0.34563 0.27531 0.0
C330 C 0.00994 0.32642 0.27522 0.0
C331 C 0.01886 0.3046 0.2856 0.0
C332 C 0.04217 0.30181 0.29686 0.0
C333 C 0.0566 0.32084 0.29795 0.0
C334 C 0.04778 0.3427 0.28739 0.0
C335 C 0.98642 0.44528 0.43696 0.0
C336 C 0.00719 0.45212 0.46398 0.0
C337 C 0.98619 0.43061 0.38563 0.0
C338 C 0.0067 0.42251 0.35951 0.0
C339 C 0.02746 0.42904 0.38677 0.0
C340 C 0.02772 0.44372 0.43827 0.0
C341 C 0.00637 0.40676 0.3049 0.0
C342 C 0.01695 0.38532 0.31027 0.0
C343 C 0.99443 0.41206 0.24951 0.0
C344 C 0.9833 0.43457 0.24004 0.0
C345 C 0.99584 0.45494 0.24628 0.0
C346 C 0.98514 0.47609 0.23829 0.0
C347 C 0.96193 0.47709 0.22367 0.0
C348 C 0.94939 0.45694 0.21678 0.0
C349 C 0.96 0.43576 0.22479 0.0
H350 H 0.95367 0.49347 0.21756 0.0
H351 H 0.04904 0.28491 0.3049 0.0
H352 H 0.83305 0.01449 0.09864 0.0
H353 H 0.86765 0.00974 0.03475 0.0
H354 H 0.83333 0.95876 0.92496 0.0
H355 H 0.79875 0.96364 0.98853 0.0
H356 H 0.88103 0.95035 0.93679 0.0
H357 H 0.82862 0.00994 0.87866 0.0
H358 H 0.80484 0.04391 0.89877 0.0
H359 H 0.86468 0.08235 0.94682 0.0
H360 H 0.88878 0.04842 0.92811 0.0
H361 H 0.93048 0.00582 0.63264 0.0
H362 H 0.90061 0.00186 0.7122 0.0
H363 H 0.95075 0.97846 0.84391 0.0
H364 H 0.98059 0.98203 0.76465 0.0
H365 H 0.89491 0.0227 0.82139 0.0
H366 H 0.92629 0.94003 0.94233 0.0
H367 H 0.94785 0.9052 0.91476 0.0
H368 H 0.92557 0.91105 0.72551 0.0
H369 H 0.90368 0.94569 0.75206 0.0
C370 C 0.83332 0.00155 0.06269 0.0
C371 C 0.81343 0.98928 0.04861 0.0
C372 C 0.85298 0.99895 0.02596 0.0
C373 C 0.85295 0.98407 0.97469 0.0
C374 C 0.83376 0.97025 0.96438 0.0
C375 C 0.81406 0.97299 0.00074 0.0
C376 C 0.87117 0.98558 0.92641 0.0
C377 C 0.88425 0.96619 0.91195 0.0
C378 C 0.87484 0.00605 0.89253 0.0
C379 C 0.86046 0.02659 0.90264 0.0
C380 C 0.83669 0.02559 0.89395 0.0
C381 C 0.82315 0.04483 0.90506 0.0
C382 C 0.83324 0.06526 0.9242 0.0
C383 C 0.85689 0.0665 0.93209 0.0
C384 C 0.87049 0.04727 0.92125 0.0
C385 C 0.93514 0.9997 0.6784 0.0
C386 C 0.95795 0.9942 0.6921 0.0
C387 C 0.91806 0.99754 0.72394 0.0
C388 C 0.92338 0.98971 0.78396 0.0
C389 C 0.94614 0.98424 0.79776 0.0
C390 C 0.96322 0.98639 0.75233 0.0
C391 C 0.90521 0.98759 0.83238 0.0
C392 C 0.89198 0.00689 0.84667 0.0
C393 C 0.90109 0.96688 0.86494 0.0
C394 C 0.91354 0.94558 0.84911 0.0
C395 C 0.92589 0.93379 0.89494 0.0
C396 C 0.93819 0.9141 0.87946 0.0
C397 C 0.93815 0.90599 0.81837 0.0
C398 C 0.92566 0.91741 0.77274 0.0
C399 C 0.91333 0.93708 0.78797 0.0
H400 H 0.94778 0.89087 0.80631 0.0
H401 H 0.82273 0.08015 0.93279 0.0
H402 H 0.5176 0.79991 0.07396 0.0
H403 H 0.52896 0.83342 0.01168 0.0
H404 H 0.45816 0.85275 0.99484 0.0
H405 H 0.44688 0.81935 0.05645 0.0
H406 H 0.51648 0.84008 0.89044 0.0
H407 H 0.45379 0.90919 0.98249 0.0
H408 H 0.43736 0.92132 0.08304 0.0
H409 H 0.49571 0.89442 0.17846 0.0
H410 H 0.51249 0.88215 0.07848 0.0
H411 H 0.48826 0.92024 0.65705 0.0
H412 H 0.48772 0.89235 0.74186 0.0
H413 H 0.52656 0.93847 0.85621 0.0
H414 H 0.52711 0.96653 0.77185 0.0
H415 H 0.4915 0.9203 0.921 0.0
H416 H 0.55224 0.89242 0.79379 0.0
H417 H 0.57115 0.8801 0.69669 0.0
H418 H 0.52258 0.82559 0.67778 0.0
H419 H 0.50316 0.83779 0.77433 0.0
C420 C 0.50461 0.81179 0.05862 0.0
C421 C 0.48141 0.80727 0.0703 0.0
C422 C 0.51106 0.83076 0.02261 0.0
C423 C 0.49441 0.8456 0.99866 0.0
C424 C 0.47133 0.84172 0.01338 0.0
C425 C 0.46488 0.82268 0.04864 0.0
C426 C 0.50066 0.8639 0.95357 0.0
C427 C 0.51121 0.85766 0.89731 0.0
C428 C 0.49413 0.8869 0.96289 0.0
C429 C 0.48433 0.89467 0.02301 0.0
C430 C 0.46317 0.906 0.0249 0.0
C431 C 0.45378 0.91286 0.08183 0.0
C432 C 0.4655 0.90867 0.13713 0.0
C433 C 0.48663 0.89761 0.13561 0.0
C434 C 0.49605 0.89064 0.07886 0.0
C435 C 0.4968 0.92444 0.70007 0.0
C436 C 0.50777 0.94564 0.70742 0.0
C437 C 0.49653 0.90843 0.74851 0.0
C438 C 0.50727 0.91323 0.80527 0.0
C439 C 0.51818 0.93438 0.81285 0.0
C440 C 0.51852 0.95038 0.7644 0.0
C441 C 0.50667 0.89631 0.85701 0.0
C442 C 0.49708 0.90279 0.91438 0.0
C443 C 0.51447 0.8736 0.84908 0.0
C444 C 0.52615 0.86613 0.7911 0.0
C445 C 0.54549 0.87791 0.7687 0.0
C446 C 0.55632 0.87093 0.71379 0.0
C447 C 0.54805 0.8521 0.68102 0.0
C448 C 0.52896 0.84018 0.70319 0.0
C449 C 0.51805 0.8471 0.75805 0.0
H450 H 0.55646 0.84673 0.63852 0.0
H451 H 0.45825 0.91395 0.1812 0.0
H452 H 0.69113 0.52116 0.09835 0.0
H453 H 0.65662 0.51542 0.03624 0.0
H454 H 0.67879 0.56825 0.90917 0.0
H455 H 0.71298 0.57435 0.97168 0.0
H456 H 0.63285 0.56875 0.92257 0.0
H457 H 0.69188 0.51399 0.87939 0.0
H458 H 0.71995 0.48423 0.90634 0.0
H459 H 0.66593 0.44097 0.97413 0.0
H460 H 0.63756 0.47066 0.94849 0.0
H461 H 0.58826 0.49068 0.65141 0.0
H462 H 0.618 0.50154 0.7255 0.0
H463 H 0.56665 0.53126 0.84556 0.0
H464 H 0.53729 0.52178 0.77012 0.0
H465 H 0.62718 0.49035 0.83654 0.0
H466 H 0.58694 0.57338 0.93199 0.0
H467 H 0.56076 0.60375 0.89696 0.0
H468 H 0.58158 0.59259 0.70755 0.0
H469 H 0.60808 0.56234 0.74152 0.0
C470 C 0.68827 0.53201 0.05827 0.0
C471 C 0.70482 0.54802 0.03938 0.0
C472 C 0.66866 0.5286 0.02257 0.0
C473 C 0.66537 0.54113 0.96746 0.0
C474 C 0.68102 0.55833 0.95132 0.0
C475 C 0.70059 0.56171 0.98686 0.0
C476 C 0.64706 0.53483 0.92325 0.0
C477 C 0.63149 0.55159 0.904 0.0
C478 C 0.64566 0.5126 0.89778 0.0
C479 C 0.66264 0.49463 0.91265 0.0
C480 C 0.68601 0.49819 0.90045 0.0
C481 C 0.70197 0.48134 0.91545 0.0
C482 C 0.69473 0.46074 0.94208 0.0
C483 C 0.67151 0.45694 0.95361 0.0
C484 C 0.65548 0.47378 0.93885 0.0
C485 C 0.58344 0.49973 0.69337 0.0
C486 C 0.56056 0.5057 0.70458 0.0
C487 C 0.60039 0.50585 0.73583 0.0
C488 C 0.59469 0.51765 0.79077 0.0
C489 C 0.57168 0.52288 0.80275 0.0
C490 C 0.55487 0.51735 0.75964 0.0
C491 C 0.61275 0.52423 0.83578 0.0
C492 C 0.62834 0.5075 0.85525 0.0
C493 C 0.61452 0.54668 0.86008 0.0
C494 C 0.59935 0.56548 0.83931 0.0
C495 C 0.58605 0.57753 0.88293 0.0
C496 C 0.57112 0.59469 0.86324 0.0
C497 C 0.56945 0.60005 0.80005 0.0
C498 C 0.58284 0.58838 0.75645 0.0
C499 C 0.59781 0.57122 0.7759 0.0
H500 H 0.5578 0.61326 0.78488 0.0
H501 H 0.70711 0.44771 0.95364 0.0
H502 H 0.04555 0.69607 0.03583 0.0
H503 H 0.04414 0.6616 0.97178 0.0
H504 H 0.97107 0.65837 0.99747 0.0
H505 H 0.97257 0.69282 0.06268 0.0
H506 H 0.99128 0.61477 0.98944 0.0
H507 H 0.99142 0.68537 0.87548 0.0
H508 H 0.00613 0.72366 0.84876 0.0
H509 H 0.06989 0.69427 0.79004 0.0
H510 H 0.05571 0.65581 0.81767 0.0
H511 H 0.96833 0.55189 0.71361 0.0
H512 H 0.96859 0.58236 0.79112 0.0
H513 H 0.04156 0.58901 0.76957 0.0
H514 H 0.04151 0.55845 0.69218 0.0
H515 H 0.02014 0.63088 0.77602 0.0
H516 H 0.02114 0.56102 0.89222 0.0
H517 H 0.00832 0.52281 0.92613 0.0
H518 H 0.94338 0.55051 0.98122 0.0
H519 H 0.95575 0.5889 0.94705 0.0
C520 C 0.02933 0.68744 0.02986 0.0
C521 C 0.00919 0.69693 0.05449 0.0
C522 C 0.02849 0.66789 0.99277 0.0
C523 C 0.00743 0.65767 0.97868 0.0
C524 C 0.98749 0.66599 0.00756 0.0
C525 C 0.98836 0.68557 0.04512 0.0
C526 C 0.00609 0.64011 0.9287 0.0
C527 C 0.99727 0.61838 0.94256 0.0
C528 C 0.01424 0.64469 0.86764 0.0
C529 C 0.02256 0.66772 0.84914 0.0
C530 C 0.00862 0.68708 0.85717 0.0
C531 C 0.01686 0.70881 0.84189 0.0
C532 C 0.03894 0.7114 0.81782 0.0
C533 C 0.05279 0.69224 0.80876 0.0
C534 C 0.04466 0.67046 0.82421 0.0
C535 C 0.98444 0.56001 0.72453 0.0
C536 C 0.00494 0.55264 0.69626 0.0
C537 C 0.98456 0.57734 0.76937 0.0
C538 C 0.00513 0.58781 0.7868 0.0
C539 C 0.02548 0.58115 0.75703 0.0
C540 C 0.02542 0.56365 0.71263 0.0
C541 C 0.00548 0.60542 0.83678 0.0
C542 C 0.01405 0.62725 0.82279 0.0
C543 C 0.99709 0.60091 0.89762 0.0
C544 C 0.98932 0.5778 0.91667 0.0
C545 C 0.00405 0.55893 0.911 0.0
C546 C 0.9969 0.53726 0.93047 0.0
C547 C 0.9751 0.53427 0.95608 0.0
C548 C 0.9603 0.55289 0.96165 0.0
C549 C 0.96738 0.57461 0.94227 0.0
H550 H 0.96973 0.51751 0.97175 0.0
H551 H 0.04531 0.72825 0.80611 0.0
H552 H 0.98944 0.25527 0.21944 0.0
H553 H 0.98453 0.22435 0.29459 0.0
H554 H 0.93714 0.19098 0.17181 0.0
H555 H 0.94159 0.22226 0.09656 0.0
H556 H 0.9302 0.18613 0.31694 0.0
H557 H 0.98416 0.17245 0.14332 0.0
H558 H 0.01488 0.18644 0.07338 0.0
H559 H 0.057 0.20063 0.23149 0.0
H560 H 0.02626 0.1872 0.302 0.0
H561 H 0.95379 0.0702 0.41067 0.0
H562 H 0.94399 0.10547 0.35477 0.0
H563 H 0.00633 0.13674 0.41915 0.0
H564 H 0.01647 0.10167 0.47264 0.0
H565 H 0.00289 0.14274 0.30149 0.0
H566 H 0.95266 0.15158 0.47656 0.0
H567 H 0.92224 0.14049 0.55054 0.0
H568 H 0.87398 0.13736 0.40121 0.0
H569 H 0.90423 0.14813 0.32613 0.0
C570 C 0.9772 0.2419 0.20956 0.0
C571 C 0.96612 0.24094 0.15185 0.0
C572 C 0.97443 0.22425 0.25252 0.0
C573 C 0.9606 0.20544 0.23831 0.0
C574 C 0.94777 0.20548 0.18353 0.0
C575 C 0.95052 0.22318 0.14044 0.0
C576 C 0.9634 0.1841 0.27377 0.0
C577 C 0.94591 0.17639 0.31339 0.0
C578 C 0.9841 0.17183 0.26962 0.0
C579 C 0.00289 0.17913 0.22757 0.0
C580 C 0.99992 0.17878 0.16285 0.0
C581 C 0.01731 0.18656 0.12323 0.0
C582 C 0.03785 0.19448 0.14799 0.0
C583 C 0.04106 0.19453 0.21238 0.0
C584 C 0.02367 0.18684 0.25216 0.0
C585 C 0.96527 0.08468 0.41289 0.0
C586 C 0.98599 0.08314 0.44518 0.0
C587 C 0.95961 0.10483 0.38142 0.0
C588 C 0.97441 0.12374 0.38303 0.0
C589 C 0.99474 0.12232 0.41691 0.0
C590 C 0.00053 0.10221 0.44734 0.0
C591 C 0.9698 0.14459 0.34625 0.0
C592 C 0.98704 0.15225 0.30564 0.0
C593 C 0.94899 0.15686 0.35061 0.0
C594 C 0.93077 0.15041 0.39562 0.0
C595 C 0.93561 0.14833 0.4594 0.0
C596 C 0.91839 0.14214 0.50156 0.0
C597 C 0.8962 0.13815 0.48056 0.0
C598 C 0.89119 0.14041 0.41738 0.0
C599 C 0.90836 0.14658 0.37501 0.0
H600 H 0.88289 0.13337 0.51328 0.0
H601 H 0.05129 0.20052 0.11728 0.0
H602 H 0.25367 0.99747 0.19844 0.0
H603 H 0.28345 0.98377 0.26937 0.0
H604 H 0.32718 0.03934 0.21135 0.0
H605 H 0.29758 0.05302 0.14076 0.0
H606 H 0.34392 0.9942 0.18766 0.0
H607 H 0.30954 0.03976 0.35014 0.0
H608 H 0.2798 0.05231 0.42414 0.0
H609 H 0.2774 0.9851 0.50436 0.0
H610 H 0.3069 0.97203 0.43007 0.0
H611 H 0.43904 0.01316 0.37014 0.0
H612 H 0.40365 0.01199 0.31155 0.0
H613 H 0.38198 0.95243 0.41509 0.0
H614 H 0.41778 0.95351 0.47442 0.0
H615 H 0.3505 0.98786 0.41673 0.0
H616 H 0.39193 0.94646 0.26389 0.0
H617 H 0.42424 0.93724 0.19464 0.0
H618 H 0.41553 1.00093 0.09816 0.0
H619 H 0.38333 0.01073 0.16749 0.0
C620 C 0.26935 0.00715 0.20266 0.0
C621 C 0.27354 0.02617 0.16416 0.0
C622 C 0.2863 0.99929 0.24289 0.0
C623 C 0.30747 0.01047 0.24483 0.0
C624 C 0.31093 0.03046 0.20995 0.0
C625 C 0.29411 0.03824 0.16977 0.0
C626 C 0.32718 0.99988 0.27574 0.0
C627 C 0.34547 0.99299 0.2378 0.0
C628 C 0.32855 0.9972 0.3409 0.0
C629 C 0.31006 0.00477 0.38356 0.0
C630 C 0.30235 0.02752 0.38268 0.0
C631 C 0.28563 0.03478 0.42496 0.0
C632 C 0.27661 0.01948 0.46868 0.0
C633 C 0.28431 0.9969 0.47026 0.0
C634 C 0.30101 0.98956 0.42804 0.0
C635 C 0.42697 0.9995 0.37951 0.0
C636 C 0.43101 0.98343 0.42668 0.0
C637 C 0.40683 0.99877 0.3458 0.0
C638 C 0.39034 0.982 0.35872 0.0
C639 C 0.39466 0.96537 0.40428 0.0
C640 C 0.41507 0.96593 0.43775 0.0
C641 C 0.36783 0.98382 0.32879 0.0
C642 C 0.34883 0.98874 0.36659 0.0
C643 C 0.36592 0.9852 0.26342 0.0
C644 C 0.38523 0.97936 0.22121 0.0
C645 C 0.39699 0.95858 0.22821 0.0
C646 C 0.4153 0.95325 0.18885 0.0
C647 C 0.42201 0.96851 0.14208 0.0
C648 C 0.41033 0.98912 0.13443 0.0
C649 C 0.39201 0.99455 0.1737 0.0
H650 H 0.43624 0.96437 0.11175 0.0
H651 H 0.26373 0.02515 0.50151 0.0
H652 H 0.51924 0.24631 0.1918 0.0
H653 H 0.52393 0.27762 0.26551 0.0
H654 H 0.45638 0.30215 0.22142 0.0
H655 H 0.45194 0.27113 0.14613 0.0
H656 H 0.48579 0.33533 0.21365 0.0
H657 H 0.46933 0.27744 0.36449 0.0
H658 H 0.47325 0.24041 0.41827 0.0
H659 H 0.54247 0.25685 0.46562 0.0
H660 H 0.53908 0.29387 0.41134 0.0
H661 H 0.47093 0.41474 0.45383 0.0
H662 H 0.46892 0.38116 0.38797 0.0
H663 H 0.54057 0.36822 0.41784 0.0
H664 H 0.54278 0.40211 0.48498 0.0
H665 H 0.51184 0.32943 0.4323 0.0
H666 H 0.52517 0.3899 0.28524 0.0
H667 H 0.51798 0.4275 0.23734 0.0
H668 H 0.45041 0.40615 0.18713 0.0
H669 H 0.45697 0.3686 0.236 0.0
C670 C 0.50521 0.2581 0.19904 0.0
C671 C 0.48519 0.25637 0.16374 0.0
C672 C 0.50789 0.27594 0.24114 0.0
C673 C 0.49043 0.29209 0.24931 0.0
C674 C 0.47004 0.28984 0.21579 0.0
C675 C 0.46748 0.27216 0.17304 0.0
C676 C 0.49421 0.31238 0.2887 0.0
C677 C 0.49114 0.33402 0.26177 0.0
C678 C 0.50188 0.31063 0.35083 0.0
C679 C 0.50403 0.28832 0.38319 0.0
C680 C 0.48547 0.27307 0.38584 0.0
C681 C 0.48758 0.2521 0.41653 0.0
C682 C 0.50812 0.24625 0.44517 0.0
C683 C 0.52658 0.26139 0.44331 0.0
C684 C 0.52457 0.28237 0.41262 0.0
C685 C 0.48634 0.40483 0.4465 0.0
C686 C 0.50707 0.41104 0.47444 0.0
C687 C 0.48514 0.3857 0.40859 0.0
C688 C 0.50464 0.37245 0.3977 0.0
C689 C 0.52539 0.37842 0.42569 0.0
C690 C 0.52666 0.39775 0.46361 0.0
C691 C 0.50294 0.3522 0.35752 0.0
C692 C 0.50653 0.33064 0.38413 0.0
C693 C 0.49531 0.35399 0.29544 0.0
C694 C 0.49151 0.37646 0.26485 0.0
C695 C 0.5087 0.39327 0.26446 0.0
C696 C 0.50474 0.41459 0.23712 0.0
C697 C 0.48372 0.41925 0.20944 0.0
C698 C 0.46667 0.40254 0.20872 0.0
C699 C 0.47051 0.38123 0.23622 0.0
H700 H 0.48066 0.43577 0.18839 0.0
H701 H 0.50972 0.23001 0.46894 0.0
H702 H 0.22209 0.48431 0.19863 0.0
H703 H 0.19486 0.49734 0.27738 0.0
H704 H 0.23741 0.55578 0.31511 0.0
H705 H 0.26455 0.54323 0.23448 0.0
H706 H 0.2189 0.52969 0.42436 0.0
H707 H 0.19484 0.5685 0.23853 0.0
H708 H 0.18554 0.57071 0.12694 0.0
H709 H 0.13214 0.52121 0.15283 0.0
H710 H 0.14131 0.51847 0.26442 0.0
H711 H 0.10119 0.56618 0.55756 0.0
H712 H 0.13676 0.57294 0.49848 0.0
H713 H 0.14164 0.50092 0.45931 0.0
H714 H 0.10604 0.49411 0.51595 0.0
H715 H 0.14001 0.5476 0.35674 0.0
H716 H 0.20756 0.50063 0.50658 0.0
H717 H 0.2178 0.49537 0.6167 0.0
H718 H 0.18405 0.55815 0.66355 0.0
H719 H 0.1744 0.56428 0.55343 0.0
C720 C 0.22557 0.50005 0.22322 0.0
C721 C 0.24523 0.51296 0.20971 0.0
C722 C 0.2101 0.50737 0.26835 0.0
C723 C 0.21409 0.52762 0.30119 0.0
C724 C 0.2341 0.54014 0.28986 0.0
C725 C 0.24956 0.53291 0.24409 0.0
C726 C 0.19684 0.53559 0.34637 0.0
C727 C 0.20171 0.53403 0.40997 0.0
C728 C 0.17461 0.54143 0.32685 0.0
C729 C 0.16876 0.54332 0.2599 0.0
C730 C 0.18116 0.55804 0.22039 0.0
C731 C 0.17589 0.5594 0.15715 0.0
C732 C 0.15819 0.54619 0.13287 0.0
C733 C 0.14574 0.53155 0.17178 0.0
C734 C 0.15095 0.53011 0.23505 0.0
C735 C 0.11001 0.55182 0.53671 0.0
C736 C 0.1008 0.52968 0.54073 0.0
C737 C 0.13031 0.55568 0.50349 0.0
C738 C 0.14194 0.53731 0.47604 0.0
C739 C 0.13304 0.51519 0.48132 0.0
C740 C 0.11259 0.5114 0.51305 0.0
C741 C 0.16181 0.54095 0.43495 0.0
C742 C 0.15737 0.54422 0.37159 0.0
C743 C 0.18433 0.53637 0.45489 0.0
C744 C 0.1899 0.53274 0.52158 0.0
C745 C 0.20243 0.51342 0.54022 0.0
C746 C 0.20827 0.51034 0.60267 0.0
C747 C 0.20156 0.5264 0.64711 0.0
C748 C 0.18914 0.54566 0.62912 0.0
C749 C 0.18346 0.54893 0.56664 0.0
H750 H 0.20592 0.52388 0.6955 0.0
H751 H 0.1542 0.5472 0.08385 0.0
H752 H 0.99011 0.79995 0.02767 0.0
H753 H 1.00008 0.83194 0.96037 0.0
H754 H 0.05818 0.79453 0.88953 0.0
H755 H 0.04861 0.76248 0.9591 0.0
H756 H 0.07033 0.83678 0.92213 0.0
H757 H 0.01354 0.80598 0.79182 0.0
H758 H 0.97675 0.78863 0.76272 0.0
H759 H 0.9411 0.84789 0.82939 0.0
H760 H 0.9777 0.86556 0.85928 0.0
H761 H 0.07101 0.93242 0.69194 0.0
H762 H 0.07251 0.89459 0.74078 0.0
H763 H 0.02782 0.91803 0.88743 0.0
H764 H 0.02649 0.95593 0.83987 0.0
H765 H 0.01327 0.87888 0.79656 0.0
H766 H 0.07277 0.90652 0.93697 0.0
H767 H 0.11075 0.92283 0.95848 0.0
H768 H 0.14269 0.86731 0.86095 0.0
H769 H 0.10484 0.85084 0.83809 0.0
C770 C 0.00493 0.79846 0.99747 0.0
C771 C 0.01874 0.77888 0.99901 0.0
C772 C 0.01048 0.81665 0.95851 0.0
C773 C 0.02975 0.81553 0.91947 0.0
C774 C 0.04319 0.79567 0.91921 0.0
C775 C 0.03765 0.77738 0.95854 0.0
C776 C 0.03647 0.83596 0.88305 0.0
C777 C 0.05804 0.84573 0.89345 0.0
C778 C 0.02048 0.84761 0.84553 0.0
C779 C 0.99838 0.83708 0.82782 0.0
C780 C 0.99785 0.81527 0.80055 0.0
C781 C 0.97704 0.8054 0.78379 0.0
C782 C 0.95661 0.81717 0.79414 0.0
C783 C 0.95696 0.83884 0.82119 0.0
C784 C 0.97774 0.84883 0.83784 0.0
C785 C 0.06216 0.92974 0.73579 0.0
C786 C 0.04843 0.94705 0.76179 0.0
C787 C 0.06304 0.90815 0.76347 0.0
C788 C 0.05013 0.90366 0.81716 0.0
C789 C 0.03789 0.92135 0.84587 0.0
C790 C 0.03725 0.943 0.81879 0.0
C791 C 0.04657 0.88 0.83832 0.0
C792 C 0.02564 0.86965 0.82434 0.0
C793 C 0.0633 0.8677 0.87132 0.0
C794 C 0.08598 0.87763 0.88508 0.0
C795 C 0.08788 0.89794 0.91947 0.0
C796 C 0.10939 0.90717 0.93208 0.0
C797 C 0.12912 0.89616 0.91089 0.0
C798 C 0.12739 0.87585 0.87721 0.0
C799 C 0.10592 0.86655 0.86445 0.0
H800 H 0.14576 0.90333 0.92072 0.0
H801 H 0.94051 0.80948 0.78122 0.0
H802 H 0.74573 0.00418 0.9336 0.0
H803 H 0.71482 0.01781 0.86826 0.0
H804 H 0.69973 0.07102 0.00105 0.0
H805 H 0.73067 0.05712 0.06738 0.0
H806 H 0.66292 0.04782 0.97764 0.0
H807 H 0.71781 0.08423 0.84914 0.0
H808 H 0.75349 0.08903 0.78891 0.0
H809 H 0.73375 0.03448 0.66733 0.0
H810 H 0.69824 0.02896 0.72763 0.0
H811 H 0.56762 0.05337 0.75811 0.0
H812 H 0.60052 0.06821 0.81676 0.0
H813 H 0.63999 0.00926 0.76236 0.0
H814 H 0.60759 0.99435 0.70527 0.0
H815 H 0.66291 0.05195 0.74748 0.0
H816 H 0.61529 0.00926 0.89626 0.0
H817 H 0.58022 0.00279 0.95799 0.0
H818 H 0.58736 0.06893 0.04148 0.0
H819 H 0.6222 0.07605 0.97899 0.0
C820 C 0.73634 0.01925 0.94792 0.0
C821 C 0.74051 0.02953 0.00564 0.0
C822 C 0.71868 0.02711 0.91041 0.0
C823 C 0.70505 0.04561 0.92941 0.0
C824 C 0.71004 0.05675 0.98543 0.0
C825 C 0.72766 0.04878 0.02325 0.0
C826 C 0.68386 0.05091 0.89496 0.0
C827 C 0.66295 0.04953 0.92736 0.0
C828 C 0.68382 0.05307 0.8294 0.0
C829 C 0.70528 0.05623 0.79296 0.0
C830 C 0.72113 0.07316 0.8098 0.0
C831 C 0.74135 0.076 0.77565 0.0
C832 C 0.74588 0.06208 0.72431 0.0
C833 C 0.73022 0.04527 0.70706 0.0
C834 C 0.71002 0.0423 0.74119 0.0
C835 C 0.58338 0.0437 0.75879 0.0
C836 C 0.58502 0.02263 0.72775 0.0
C837 C 0.60207 0.05217 0.79208 0.0
C838 C 0.62261 0.03982 0.79349 0.0
C839 C 0.6243 0.01908 0.76146 0.0
C840 C 0.60569 0.01049 0.72932 0.0
C841 C 0.64248 0.04746 0.82981 0.0
C842 C 0.66305 0.05133 0.79778 0.0
C843 C 0.64224 0.04749 0.89549 0.0
C844 C 0.62108 0.04337 0.93205 0.0
C845 C 0.60918 0.02258 0.92701 0.0
C846 C 0.58937 0.01878 0.96224 0.0
C847 C 0.58146 0.03553 0.00327 0.0
C848 C 0.59339 0.05608 0.00927 0.0
C849 C 0.61315 0.06002 0.9739 0.0
H850 H 0.56617 0.03253 0.03068 0.0
H851 H 0.76154 0.06432 0.69791 0.0
H852 H 0.42141 0.71659 0.08419 0.0
H853 H 0.41572 0.68294 0.0183 0.0
H854 H 0.46802 0.70755 0.89231 0.0
H855 H 0.47323 0.7412 0.9566 0.0
H856 H 0.43843 0.68555 0.829 0.0
H857 H 0.47937 0.67214 0.01998 0.0
H858 H 0.48452 0.67087 0.1338 0.0
H859 H 0.4289 0.62341 0.15081 0.0
H860 H 0.42313 0.62474 0.03707 0.0
H861 H 0.51031 0.59519 0.74457 0.0
H862 H 0.49345 0.627 0.80124 0.0
H863 H 0.4323 0.58758 0.83426 0.0
H864 H 0.44891 0.55545 0.77594 0.0
H865 H 0.45532 0.61373 0.94287 0.0
H866 H 0.42508 0.62293 0.73507 0.0
H867 H 0.42798 0.62529 0.62068 0.0
H868 H 0.47377 0.68231 0.63561 0.0
H869 H 0.47156 0.68001 0.75002 0.0
C870 C 0.43112 0.71508 0.04131 0.0
C871 C 0.44787 0.73137 0.02563 0.0
C872 C 0.42795 0.69584 0.00395 0.0
C873 C 0.44185 0.69245 0.95125 0.0
C874 C 0.45711 0.70974 0.93278 0.0
C875 C 0.46004 0.72906 0.96952 0.0
C876 C 0.44277 0.67008 0.91918 0.0
C877 C 0.44193 0.66982 0.85395 0.0
C878 C 0.44724 0.64948 0.95181 0.0
C879 C 0.45058 0.6488 0.02019 0.0
C880 C 0.4681 0.66159 0.04806 0.0
C881 C 0.47115 0.66084 0.11252 0.0
C882 C 0.45698 0.64711 0.14949 0.0
C883 C 0.43979 0.63406 0.12207 0.0
C884 C 0.4366 0.63484 0.05767 0.0
C885 C 0.49332 0.59311 0.76407 0.0
C886 C 0.48087 0.57282 0.7555 0.0
C887 C 0.48371 0.61137 0.79621 0.0
C888 C 0.46159 0.60964 0.82095 0.0
C889 C 0.44936 0.58917 0.81487 0.0
C890 C 0.45887 0.57089 0.78178 0.0
C891 C 0.45164 0.62953 0.85304 0.0
C892 C 0.45092 0.6293 0.91818 0.0
C893 C 0.44681 0.64992 0.82032 0.0
C894 C 0.44819 0.65123 0.7513 0.0
C895 C 0.43594 0.63583 0.71403 0.0
C896 C 0.43744 0.63718 0.64914 0.0
C897 C 0.45102 0.65396 0.62096 0.0
C898 C 0.46322 0.66935 0.65753 0.0
C899 C 0.46183 0.66803 0.72239 0.0
H900 H 0.45204 0.65514 0.57081 0.0
H901 H 0.45931 0.64656 0.19934 0.0
H902 H 0.81195 0.56385 0.06611 0.0
H903 H 0.84682 0.5502 0.01586 0.0
H904 H 0.80729 0.50267 0.90734 0.0
H905 H 0.77245 0.51542 0.9599 0.0
H906 H 0.84202 0.48155 0.9586 0.0
H907 H 0.83282 0.55104 0.84312 0.0
H908 H 0.82744 0.59241 0.82714 0.0
H909 H 0.89021 0.606 0.92248 0.0
H910 H 0.89581 0.56472 0.93987 0.0
H911 H 0.92685 0.45678 0.72772 0.0
H912 H 0.89413 0.46477 0.79498 0.0
H913 H 0.93626 0.50747 0.91015 0.0
H914 H 0.96919 0.49974 0.84299 0.0
H915 H 0.90115 0.53065 0.86005 0.0
H916 H 0.91095 0.4606 0.97117 0.0
H917 H 0.91645 0.4191 0.98387 0.0
H918 H 0.85274 0.40642 0.8923 0.0
H919 H 0.84698 0.44785 0.8783 0.0
C920 C 0.81067 0.55064 0.03111 0.0
C921 C 0.78946 0.54064 0.01722 0.0
C922 C 0.8306 0.54296 0.00208 0.0
C923 C 0.82967 0.52544 0.95773 0.0
C924 C 0.8084 0.51617 0.94159 0.0
C925 C 0.78846 0.5237 0.97105 0.0
C926 C 0.85099 0.51587 0.93096 0.0
C927 C 0.85482 0.49224 0.93622 0.0
C928 C 0.86799 0.52992 0.90355 0.0
C929 C 0.86459 0.55478 0.89344 0.0
C930 C 0.84536 0.56286 0.86123 0.0
C931 C 0.8423 0.58629 0.85181 0.0
C932 C 0.85843 0.60183 0.87396 0.0
C933 C 0.8777 0.59395 0.90546 0.0
C934 C 0.88083 0.57054 0.91509 0.0
C935 C 0.92941 0.4672 0.76869 0.0
C936 C 0.95051 0.47797 0.77935 0.0
C937 C 0.91067 0.47172 0.80719 0.0
C938 C 0.91281 0.48692 0.85712 0.0
C939 C 0.93438 0.49579 0.87159 0.0
C940 C 0.95318 0.49123 0.83329 0.0
C941 C 0.89214 0.49635 0.88752 0.0
C942 C 0.88841 0.51998 0.88279 0.0
C943 C 0.87522 0.48229 0.91494 0.0
C944 C 0.87863 0.45734 0.92322 0.0
C945 C 0.8982 0.44896 0.95325 0.0
C946 C 0.90134 0.42545 0.9608 0.0
C947 C 0.88498 0.41013 0.93878 0.0
C948 C 0.86541 0.4183 0.90929 0.0
C949 C 0.86218 0.4418 0.90162 0.0
H950 H 0.88744 0.39193 0.94467 0.0
H951 H 0.85603 0.61996 0.86658 0.0
H952 H 0.96266 0.25176 0.89929 0.0
H953 H 0.96716 0.21975 0.82705 0.0
H954 H 0.03506 0.20783 0.8962 0.0
H955 H 0.03048 0.23989 0.96876 0.0
H956 H 0.02783 0.19737 0.76019 0.0
H957 H 0.99603 0.18137 0.9668 0.0
H958 H 0.96855 0.18762 0.05245 0.0
H959 H 0.91278 0.17386 0.92968 0.0
H960 H 0.9399 0.16789 0.84283 0.0
H961 H 0.03034 0.07776 0.67873 0.0
H962 H 0.03479 0.11461 0.73229 0.0
H963 H 0.96186 0.12487 0.72517 0.0
H964 H 0.95729 0.08824 0.67471 0.0
H965 H 0.97464 0.13655 0.83162 0.0
H966 H 0.00159 0.15296 0.62628 0.0
H967 H 0.02558 0.148 0.53258 0.0
H968 H 0.08564 0.16276 0.63888 0.0
H969 H 0.06202 0.16743 0.73355 0.0
C970 C 0.979 0.24313 0.89653 0.0
C971 C 0.99641 0.24862 0.93862 0.0
C972 C 0.98148 0.22466 0.85576 0.0
C973 C 0.00137 0.21122 0.85659 0.0
C974 C 0.01963 0.21801 0.8944 0.0
C975 C 0.0171 0.23648 0.93546 0.0
C976 C 0.00151 0.18834 0.82618 0.0
C977 C 0.01642 0.18394 0.7761 0.0
C978 C 0.98625 0.17096 0.84591 0.0
C979 C 0.96999 0.17438 0.89827 0.0
C980 C 0.97791 0.17982 0.95799 0.0
C981 C 0.9624 0.18324 0.00679 0.0
C982 C 0.93896 0.18113 0.99663 0.0
C983 C 0.93095 0.17552 0.93753 0.0
C984 C 0.94638 0.17209 0.8885 0.0
C985 C 0.01529 0.08783 0.6892 0.0
C986 C 0.99346 0.07989 0.67264 0.0
C987 C 0.01785 0.10902 0.7193 0.0
C988 C 0.99867 0.12279 0.7325 0.0
C989 C 0.97697 0.11469 0.71608 0.0
C990 C 0.97439 0.09359 0.68696 0.0
C991 C 0.00066 0.14544 0.76434 0.0
C992 C 0.98618 0.14982 0.81531 0.0
C993 C 0.01582 0.16291 0.744 0.0
C994 C 0.03007 0.16027 0.68717 0.0
C995 C 0.01994 0.15497 0.6298 0.0
C996 C 0.03346 0.15223 0.57649 0.0
C997 C 0.05713 0.155 0.57981 0.0
C998 C 0.06731 0.16057 0.63642 0.0
C999 C 0.05386 0.16327 0.68993 0.0
H1000 H 0.06758 0.15288 0.53849 0.0
H1001 H 0.92701 0.18384 0.03455 0.0
H1002 H 0.26564 0.99659 0.94198 0.0
H1003 H 0.29701 0.99432 0.86648 0.0
H1004 H 0.29676 0.06762 0.84793 0.0
H1005 H 0.26558 0.06996 0.92502 0.0
H1006 H 0.30836 0.03372 0.7289 0.0
H1007 H 0.33005 0.05925 0.93575 0.0
H1008 H 0.32986 0.05799 0.05041 0.0
H1009 H 0.35347 0.98859 0.0462 0.0
H1010 H 0.35329 0.98927 0.93129 0.0
H1011 H 0.42734 0.03243 0.62798 0.0
H1012 H 0.39125 0.04504 0.67656 0.0
H1013 H 0.38756 0.98171 0.77916 0.0
H1014 H 0.42323 0.96922 0.73152 0.0
H1015 H 0.37771 0.01699 0.85249 0.0
H1016 H 0.35688 0.99088 0.64785 0.0
H1017 H 0.35714 0.99079 0.53319 0.0
H1018 H 0.33174 0.05958 0.5313 0.0
H1019 H 0.33183 0.06027 0.6461 0.0
C1020 C 0.27143 0.01212 0.91922 0.0
C1021 C 0.26294 0.03342 0.93848 0.0
C1022 C 0.2895 0.01082 0.87655 0.0
C1023 C 0.2993 0.0308 0.85195 0.0
C1024 C 0.28932 0.052 0.86608 0.0
C1025 C 0.27136 0.05332 0.90961 0.0
C1026 C 0.32201 0.02948 0.82084 0.0
C1027 C 0.32366 0.03053 0.75573 0.0
C1028 C 0.34185 0.02492 0.85594 0.0
C1029 C 0.34134 0.02422 0.92494 0.0
C1030 C 0.33482 0.0436 0.95923 0.0
C1031 C 0.33487 0.04302 0.02424 0.0
C1032 C 0.34161 0.02321 0.05548 0.0
C1033 C 0.3482 0.0039 0.02184 0.0
C1034 C 0.34811 0.00436 0.95679 0.0
C1035 C 0.41896 0.02142 0.66165 0.0
C1036 C 0.42818 0.99985 0.67602 0.0
C1037 C 0.39823 0.02852 0.68886 0.0
C1038 C 0.38652 0.01422 0.73111 0.0
C1039 C 0.39617 0.99305 0.7467 0.0
C1040 C 0.41663 0.98592 0.71936 0.0
C1041 C 0.36427 0.02089 0.76002 0.0
C1042 C 0.36261 0.02067 0.8252 0.0
C1043 C 0.34453 0.02611 0.7247 0.0
C1044 C 0.34474 0.02576 0.65565 0.0
C1045 C 0.35165 0.0061 0.62304 0.0
C1046 C 0.35167 0.00592 0.55798 0.0
C1047 C 0.34457 0.02522 0.52498 0.0
C1048 C 0.33734 0.04469 0.55696 0.0
C1049 C 0.33738 0.04499 0.62201 0.0
H1050 H 0.34464 0.02511 0.47466 0.0
H1051 H 0.34189 0.0229 0.10571 0.0
H1052 H 0.51465 0.23769 0.91516 0.0
H1053 H 0.5159 0.26974 0.84148 0.0
H1054 H 0.44511 0.28419 0.88052 0.0
H1055 H 0.44367 0.25194 0.95292 0.0
H1056 H 0.47737 0.29395 0.7367 0.0
H1057 H 0.45951 0.33155 0.96893 0.0
H1058 H 0.46584 0.32509 0.0813 0.0
H1059 H 0.53111 0.29496 0.04102 0.0
H1060 H 0.52525 0.3015 0.92874 0.0
H1061 H 0.47126 0.41452 0.67455 0.0
H1062 H 0.4613 0.37666 0.71655 0.0
H1063 H 0.52606 0.37394 0.81093 0.0
H1064 H 0.53577 0.4116 0.77058 0.0
H1065 H 0.49447 0.35706 0.88329 0.0
H1066 H 0.51652 0.348 0.66735 0.0
H1067 H 0.51326 0.35508 0.55454 0.0
H1068 H 0.44521 0.32768 0.55679 0.0
H1069 H 0.44792 0.32076 0.66981 0.0
C1070 C 0.49897 0.2467 0.90472 0.0
C1071 C 0.47905 0.2423 0.93954 0.0
C1072 C 0.49974 0.26516 0.86301 0.0
C1073 C 0.48064 0.27943 0.85606 0.0
C1074 C 0.45998 0.27331 0.88493 0.0
C1075 C 0.45914 0.25477 0.926 0.0
C1076 C 0.48355 0.30304 0.83203 0.0
C1077 C 0.48103 0.30783 0.76848 0.0
C1078 C 0.48842 0.32104 0.87352 0.0
C1079 C 0.49186 0.31684 0.94072 0.0
C1080 C 0.47519 0.32356 0.98422 0.0
C1081 C 0.47871 0.31992 0.04781 0.0
C1082 C 0.4989 0.30969 0.06821 0.0
C1083 C 0.51551 0.3029 0.02513 0.0
C1084 C 0.51209 0.30654 0.96158 0.0
C1085 C 0.48307 0.40606 0.70555 0.0
C1086 C 0.50431 0.41605 0.71923 0.0
C1087 C 0.4775 0.38429 0.72887 0.0
C1088 C 0.49311 0.3722 0.76604 0.0
C1089 C 0.51375 0.38279 0.78222 0.0
C1090 C 0.51928 0.40439 0.75907 0.0
C1091 C 0.48864 0.34833 0.78724 0.0
C1092 C 0.49067 0.34339 0.85093 0.0
C1093 C 0.4838 0.33025 0.74533 0.0
C1094 C 0.48232 0.3341 0.6772 0.0
C1095 C 0.5008 0.34362 0.64387 0.0
C1096 C 0.49906 0.3476 0.57988 0.0
C1097 C 0.47901 0.34191 0.54859 0.0
C1098 C 0.46071 0.33213 0.58114 0.0
C1099 C 0.46234 0.32817 0.64515 0.0
H1100 H 0.47764 0.34504 0.49913 0.0
H1101 H 0.50172 0.30706 0.11736 0.0
H1102 H 0.25668 0.51472 0.9497 0.0
H1103 H 0.2241 0.50719 0.8816 0.0
H1104 H 0.2147 0.44139 0.96874 0.0
H1105 H 0.24723 0.44895 0.03667 0.0
H1106 H 0.20563 0.47461 0.79926 0.0
H1107 H 0.15935 0.43955 0.01719 0.0
H1108 H 0.16036 0.4424 0.13175 0.0
H1109 H 0.1918 0.5085 0.11744 0.0
H1110 H 0.1909 0.50609 0.00296 0.0
H1111 H 0.09181 0.45199 0.7025 0.0
H1112 H 0.12857 0.44502 0.75298 0.0
H1113 H 0.11657 0.50225 0.87496 0.0
H1114 H 0.07977 0.50891 0.82623 0.0
H1115 H 0.13715 0.46984 0.93632 0.0
H1116 H 0.14774 0.50761 0.73816 0.0
H1117 H 0.14243 0.51024 0.62473 0.0
H1118 H 0.18015 0.448 0.59965 0.0
H1119 H 0.18543 0.44486 0.71321 0.0
C1120 C 0.24849 0.49812 0.95157 0.0
C1121 C 0.25461 0.48227 0.99765 0.0
C1122 C 0.22973 0.49391 0.91312 0.0
C1123 C 0.21674 0.4739 0.92088 0.0
C1124 C 0.2244 0.457 0.96226 0.0
C1125 C 0.24316 0.46119 1.00049 0.0
C1126 C 0.19347 0.4724 0.89393 0.0
C1127 C 0.19068 0.47329 0.82913 0.0
C1128 C 0.17387 0.47125 0.93285 0.0
C1129 C 0.17534 0.47247 0.0016 0.0
C1130 C 0.16657 0.45463 0.03857 0.0
C1131 C 0.1671 0.4562 0.10346 0.0
C1132 C 0.17618 0.47561 0.13184 0.0
C1133 C 0.18483 0.49345 0.0954 0.0
C1134 C 0.18442 0.49195 0.03052 0.0
C1135 C 0.09675 0.46272 0.74112 0.0
C1136 C 0.08294 0.48116 0.7599 0.0
C1137 C 0.11787 0.45883 0.76957 0.0
C1138 C 0.12558 0.47342 0.81687 0.0
C1139 C 0.11109 0.49083 0.83838 0.0
C1140 C 0.09001 0.49464 0.8103 0.0
C1141 C 0.1492 0.47179 0.84163 0.0
C1142 C 0.1521 0.47053 0.90621 0.0
C1143 C 0.16877 0.4733 0.80253 0.0
C1144 C 0.16673 0.47585 0.73416 0.0
C1145 C 0.1548 0.49443 0.70845 0.0
C1146 C 0.15169 0.49595 0.64417 0.0
C1147 C 0.16068 0.47912 0.60505 0.0
C1148 C 0.17304 0.46091 0.63008 0.0
C1149 C 0.17613 0.45928 0.69439 0.0
H1150 H 0.15833 0.48032 0.55529 0.0
H1151 H 0.17644 0.47685 0.18204 0.0
H1152 H 0.96545 0.76954 0.19767 0.0
H1153 H 0.96344 0.79867 0.2791 0.0
H1154 H 0.03329 0.78446 0.32828 0.0
H1155 H 0.0352 0.75519 0.24695 0.0
H1156 H 0.00711 0.79877 0.43147 0.0
H1157 H 0.02454 0.82458 0.22191 0.0
H1158 H 0.01808 0.82861 0.10911 0.0
H1159 H 0.95245 0.85874 0.14502 0.0
H1160 H 0.95864 0.85503 0.25815 0.0
H1161 H 0.05394 0.90544 0.51415 0.0
H1162 H 0.04393 0.8693 0.4655 0.0
H1163 H 0.97585 0.89421 0.4315 0.0
H1164 H 0.98575 0.93073 0.48097 0.0
H1165 H 0.99568 0.87378 0.32792 0.0
H1166 H 0.983 0.85456 0.54082 0.0
H1167 H 0.99218 0.85231 0.65252 0.0
H1168 H 0.05031 0.81021 0.6111 0.0
H1169 H 0.04167 0.81241 0.49908 0.0
C1170 C 0.97991 0.77171 0.22832 0.0
C1171 C 0.00035 0.75984 0.21678 0.0
C1172 C 0.97888 0.78862 0.27423 0.0
C1173 C 0.99836 0.7941 0.30904 0.0
C1174 C 0.01804 0.78056 0.30207 0.0
C1175 C 0.01906 0.76363 0.25604 0.0
C1176 C 0.99934 0.81578 0.34529 0.0
C1177 C 0.00465 0.81517 0.40892 0.0
C1178 C 0.99581 0.83724 0.31618 0.0
C1179 C 0.99194 0.8393 0.24833 0.0
C1180 C 0.00868 0.83193 0.20569 0.0
C1181 C 0.0051 0.83423 0.14174 0.0
C1182 C 0.98481 0.84379 0.1199 0.0
C1183 C 0.96813 0.85126 0.162 0.0
C1184 C 0.9717 0.84916 0.22603 0.0
C1185 C 0.0368 0.90335 0.49642 0.0
C1186 C 0.02066 0.92109 0.50137 0.0
C1187 C 0.03105 0.88252 0.46902 0.0
C1188 C 0.00905 0.87886 0.44557 0.0
C1189 C 0.9929 0.89659 0.44969 0.0
C1190 C 0.99858 0.91745 0.47786 0.0
C1191 C 0.00356 0.85686 0.41416 0.0
C1192 C 0.9976 0.8574 0.35109 0.0
C1193 C 0.00665 0.83543 0.44387 0.0
C1194 C 0.01177 0.8338 0.51137 0.0
C1195 C 0.99783 0.84494 0.55545 0.0
C1196 C 0.00292 0.84365 0.61885 0.0
C1197 C 0.02186 0.83119 0.63885 0.0
C1198 C 0.03566 0.81988 0.59552 0.0
C1199 C 0.03065 0.8211 0.53206 0.0
H1200 H 0.02584 0.83031 0.68789 0.0
H1201 H 0.98204 0.84549 0.07037 0.0
H1202 H 0.75161 0.9607 0.20543 0.0
H1203 H 0.72342 0.95453 0.28906 0.0
H1204 H 0.72028 0.02734 0.31969 0.0
H1205 H 0.74888 0.03328 0.23855 0.0
H1206 H 0.71181 0.00778 0.42311 0.0
H1207 H 0.68497 0.99795 0.21272 0.0
H1208 H 0.68425 0.98008 0.10896 0.0
H1209 H 0.66817 0.9152 0.19223 0.0
H1210 H 0.66912 0.93268 0.29664 0.0
H1211 H 0.59811 0.03978 0.47433 0.0
H1212 H 0.63517 0.03156 0.42759 0.0
H1213 H 0.62505 0.95959 0.46114 0.0
H1214 H 0.58755 0.96771 0.50845 0.0
H1215 H 0.64234 0.97014 0.3409 0.0
H1216 H 0.66012 0.98918 0.55441 0.0
H1217 H 0.65858 0.0135 0.64801 0.0
H1218 H 0.6893 0.06879 0.54591 0.0
H1219 H 0.69069 0.04503 0.45156 0.0
C1220 C 0.74568 0.9752 0.23228 0.0
C1221 C 0.7523 0.99747 0.2156 0.0
C1222 C 0.72931 0.97173 0.27937 0.0
C1223 C 0.71913 0.99052 0.3095 0.0
C1224 C 0.72765 0.01252 0.29712 0.0
C1225 C 0.74409 0.01594 0.25078 0.0
C1226 C 0.69793 0.98808 0.34788 0.0
C1227 C 0.69666 0.99944 0.40522 0.0
C1228 C 0.67809 0.97704 0.32503 0.0
C1229 C 0.67743 0.96653 0.26243 0.0
C1230 C 0.68143 0.97984 0.20888 0.0
C1231 C 0.68097 0.9698 0.14998 0.0
C1232 C 0.67624 0.9465 0.14402 0.0
C1233 C 0.6719 0.93323 0.19695 0.0
C1234 C 0.67241 0.94319 0.25599 0.0
C1235 C 0.60362 0.02215 0.47174 0.0
C1236 C 0.58984 0.00441 0.49548 0.0
C1237 C 0.62494 0.0175 0.44527 0.0
C1238 C 0.63311 0.99502 0.44203 0.0
C1239 C 0.61916 0.9771 0.46376 0.0
C1240 C 0.59773 0.98176 0.49059 0.0
C1241 C 0.65611 0.99054 0.41489 0.0
C1242 C 0.65766 0.97786 0.35972 0.0
C1243 C 0.67599 0.00119 0.43846 0.0
C1244 C 0.67543 0.0153 0.49578 0.0
C1245 C 0.66644 0.00656 0.55183 0.0
C1246 C 0.66558 0.02026 0.60503 0.0
C1247 C 0.67378 0.04268 0.60274 0.0
C1248 C 0.68295 0.05142 0.54752 0.0
C1249 C 0.68379 0.03784 0.49423 0.0
H1250 H 0.67307 0.05335 0.64361 0.0
H1251 H 0.67588 0.93875 0.09838 0.0
H1252 H 0.45091 0.74873 0.27959 0.0
H1253 H 0.45773 0.71836 0.35588 0.0
H1254 H 0.52154 0.70231 0.26455 0.0
H1255 H 0.51478 0.73287 0.18873 0.0
H1256 H 0.49059 0.66665 0.26566 0.0
H1257 H 0.52165 0.71958 0.41193 0.0
H1258 H 0.5228 0.75403 0.47752 0.0
H1259 H 0.46273 0.7315 0.57574 0.0
H1260 H 0.46093 0.69713 0.50995 0.0
H1261 H 0.51594 0.5727 0.47391 0.0
H1262 H 0.51854 0.60841 0.41388 0.0
H1263 H 0.45239 0.62872 0.48335 0.0
H1264 H 0.44957 0.59329 0.543 0.0
H1265 H 0.48804 0.66259 0.49602 0.0
H1266 H 0.45252 0.61443 0.34771 0.0
H1267 H 0.4464 0.58136 0.27911 0.0
H1268 H 0.50926 0.59597 0.18293 0.0
H1269 H 0.51601 0.62891 0.25188 0.0
C1270 C 0.46698 0.73957 0.27818 0.0
C1271 C 0.48255 0.74336 0.22928 0.0
C1272 C 0.4708 0.72209 0.32139 0.0
C1273 C 0.49013 0.70801 0.31577 0.0
C1274 C 0.50658 0.71303 0.26987 0.0
C1275 C 0.50286 0.73065 0.22709 0.0
C1276 C 0.49119 0.6861 0.35059 0.0
C1277 C 0.49061 0.66575 0.31608 0.0
C1278 C 0.49015 0.68501 0.41631 0.0
C1279 C 0.49103 0.70586 0.45544 0.0
C1280 C 0.50852 0.72209 0.44697 0.0
C1281 C 0.50932 0.74159 0.48432 0.0
C1282 C 0.49281 0.74499 0.53063 0.0
C1283 C 0.47548 0.72888 0.53975 0.0
C1284 C 0.47457 0.70938 0.50244 0.0
C1285 C 0.50194 0.58476 0.4762 0.0
C1286 C 0.48258 0.58017 0.5133 0.0
C1287 C 0.50343 0.6051 0.44185 0.0
C1288 C 0.48573 0.62125 0.44473 0.0
C1289 C 0.46634 0.6166 0.48122 0.0
C1290 C 0.46471 0.59624 0.51488 0.0
C1291 C 0.48754 0.64328 0.41095 0.0
C1292 C 0.48846 0.66356 0.44561 0.0
C1293 C 0.48835 0.64439 0.3453 0.0
C1294 C 0.48502 0.62387 0.3059 0.0
C1295 C 0.46529 0.61033 0.3128 0.0
C1296 C 0.46162 0.59169 0.27358 0.0
C1297 C 0.47747 0.58651 0.22685 0.0
C1298 C 0.49705 0.59995 0.21933 0.0
C1299 C 0.50082 0.61859 0.25855 0.0
H1300 H 0.47454 0.57214 0.19632 0.0
H1301 H 0.49349 0.76009 0.55956 0.0
H1302 H 0.74407 0.51074 0.23245 0.0
H1303 H 0.76652 0.5009 0.32446 0.0
H1304 H 0.79445 0.56913 0.32679 0.0
H1305 H 0.77197 0.57888 0.23527 0.0
H1306 H 0.81194 0.50143 0.30473 0.0
H1307 H 0.81882 0.58025 0.46732 0.0
H1308 H 0.79366 0.60945 0.51375 0.0
H1309 H 0.73638 0.56392 0.49989 0.0
H1310 H 0.76123 0.53431 0.45422 0.0
H1311 H 0.91335 0.53341 0.51417 0.0
H1312 H 0.87685 0.54354 0.4663 0.0
H1313 H 0.85517 0.47322 0.47843 0.0
H1314 H 0.89156 0.46291 0.52552 0.0
H1315 H 0.83169 0.5398 0.50269 0.0
H1316 H 0.82728 0.45984 0.34507 0.0
H1317 H 0.85346 0.43259 0.29389 0.0
H1318 H 0.90647 0.48334 0.29091 0.0
H1319 H 0.88051 0.51097 0.34119 0.0
C1320 C 0.75391 0.52398 0.25508 0.0
C1321 C 0.75627 0.54557 0.22729 0.0
C1322 C 0.76695 0.5183 0.30716 0.0
C1323 C 0.78234 0.5342 0.3322 0.0
C1324 C 0.78255 0.55663 0.30885 0.0
C1325 C 0.76959 0.56227 0.25671 0.0
C1326 C 0.80127 0.52636 0.37263 0.0
C1327 C 0.81585 0.50939 0.34893 0.0
C1328 C 0.80698 0.53747 0.42884 0.0
C1329 C 0.7919 0.5551 0.45687 0.0
C1330 C 0.80088 0.57641 0.47445 0.0
C1331 C 0.78666 0.59305 0.50059 0.0
C1332 C 0.76343 0.58857 0.50962 0.0
C1333 C 0.75437 0.5674 0.49266 0.0
C1334 C 0.76851 0.5507 0.46652 0.0
C1335 C 0.90079 0.52012 0.50677 0.0
C1336 C 0.90547 0.49731 0.52306 0.0
C1337 C 0.87989 0.52596 0.47984 0.0
C1338 C 0.86338 0.5091 0.46842 0.0
C1339 C 0.86777 0.48646 0.48624 0.0
C1340 C 0.88861 0.4806 0.5131 0.0
C1341 C 0.84212 0.51488 0.43469 0.0
C1342 C 0.82736 0.53155 0.45921 0.0
C1343 C 0.83634 0.50378 0.37858 0.0
C1344 C 0.85202 0.48735 0.34767 0.0
C1345 C 0.8445 0.46518 0.33335 0.0
C1346 C 0.85931 0.44968 0.30449 0.0
C1347 C 0.88164 0.4562 0.2894 0.0
C1348 C 0.8892 0.47827 0.30287 0.0
C1349 C 0.87445 0.49385 0.33163 0.0
H1350 H 0.89308 0.44416 0.26714 0.0
H1351 H 0.75245 0.60148 0.52984 0.0
loop_
_geom_bond_atom_site_label_1
_geom_bond_atom_site_label_2
_geom_bond_distance
_geom_bond_site_symmetry_2
_ccdc_geom_bond_type
H0 C3 0.931 . S
H1 C6 0.928 . S
H2 C8 0.930 . S
C3 H0 0.931 . S
C3 C4 1.413 . S
C3 C5 1.360 1_554 S
C4 C3 1.413 . S
C4 C8 1.429 . S
C5 C3 1.360 1_556 S
C5 C6 1.372 . S
C6 H1 0.928 . S
C6 C5 1.372 . S
C6 C7 1.404 1_556 S
C7 C6 1.404 1_554 S
C7 C8 1.391 . S
C8 H2 0.930 . S
C8 C4 1.429 . S
C8 C7 1.391 . S
H9 C12 0.931 . S
H10 C15 0.928 . S
H11 C17 0.930 . S
C12 H9 0.931 . S
C12 C13 1.413 . S
C12 C14 1.360 1_554 S
C13 C12 1.413 . S
C13 C17 1.429 . S
C14 C12 1.360 1_556 S
C14 C15 1.372 . S
C15 H10 0.928 . S
C15 C14 1.372 . S
C15 C16 1.404 1_556 S
C16 C15 1.404 1_554 S
C16 C17 1.391 . S
C17 H11 0.930 . S
C17 C13 1.429 . S
C17 C16 1.391 . S
H18 C21 0.931 . S
H19 C24 0.928 . S
H20 C26 0.930 . S
C21 H18 0.931 . S
C21 C22 1.413 . S
C21 C23 1.360 1_554 S
C22 C21 1.413 . S
C22 C26 1.429 . S
C23 C21 1.360 1_556 S
C23 C24 1.372 . S
C24 H19 0.928 . S
C24 C23 1.372 . S
C24 C25 1.404 1_556 S
C25 C24 1.404 1_554 S
C25 C26 1.391 . S
C26 H20 0.930 . S
C26 C22 1.429 . S
C26 C25 1.391 . S
H27 C30 0.931 . S
H28 C33 0.928 . S
H29 C35 0.930 . S
C30 H27 0.931 . S
C30 C31 1.413 . S
C30 C32 1.360 . S
C31 C30 1.413 . S
C31 C35 1.429 1_554 S
C32 C30 1.360 . S
C32 C33 1.372 . S
C33 H28 0.928 . S
C33 C32 1.372 . S
C33 C34 1.404 . S
C34 C33 1.404 . S
C34 C35 1.391 1_554 S
C35 H29 0.930 . S
C35 C31 1.429 1_556 S
C35 C34 1.391 1_556 S
H36 C39 0.931 . S
H37 C42 0.928 . S
H38 C44 0.930 . S
C39 H36 0.931 . S
C39 C40 1.413 . S
C39 C41 1.360 . S
C40 C39 1.413 . S
C40 C44 1.429 . S
C41 C39 1.360 . S
C41 C42 1.372 . S
C42 H37 0.928 . S
C42 C41 1.372 . S
C42 C43 1.404 . S
C43 C42 1.404 . S
C43 C44 1.391 . S
C44 H38 0.930 . S
C44 C40 1.429 . S
C44 C43 1.391 . S
H45 C48 0.931 . S
H46 C51 0.928 . S
H47 C53 0.930 . S
C48 H45 0.931 . S
C48 C49 1.413 . S
C48 C50 1.360 . S
C49 C48 1.413 . S
C49 C53 1.429 . S
C50 C48 1.360 . S
C50 C51 1.372 . S
C51 H46 0.928 . S
C51 C50 1.372 . S
C51 C52 1.404 . S
C52 C51 1.404 . S
C52 C53 1.391 . S
C53 H47 0.930 . S
C53 C49 1.429 . S
C53 C52 1.391 . S
H54 C57 0.931 . S
H55 C60 0.928 . S
H56 C62 0.930 . S
C57 H54 0.931 . S
C57 C58 1.413 . S
C57 C59 1.360 . S
C58 C57 1.413 . S
C58 C62 1.429 . S
C59 C57 1.360 . S
C59 C60 1.372 . S
C60 H55 0.928 . S
C60 C59 1.372 . S
C60 C61 1.404 . S
C61 C60 1.404 . S
C61 C62 1.391 . S
C62 H56 0.930 . S
C62 C58 1.429 . S
C62 C61 1.391 . S
H63 C66 0.931 . S
H64 C69 0.928 . S
H65 C71 0.930 . S
C66 H63 0.931 . S
C66 C67 1.413 . S
C66 C68 1.360 . S
C67 C66 1.413 . S
C67 C71 1.429 . S
C68 C66 1.360 . S
C68 C69 1.372 . S
C69 H64 0.928 . S
C69 C68 1.372 . S
C69 C70 1.404 . S
C70 C69 1.404 . S
C70 C71 1.391 . S
C71 H65 0.930 . S
C71 C67 1.429 . S
C71 C70 1.391 . S
Zn72 O78 1.948 1_455 S
Zn72 O79 1.987 . S
Zn72 O83 2.049 . S
Zn72 O88 1.934 1_455 S
Zn73 O80 1.969 . S
Zn73 O86 1.969 . S
Zn73 O87 1.965 1_455 S
Zn73 O89 2.024 1_455 S
C74 O75 1.229 1_455 S
C74 O83 1.058 . S
O75 C74 1.229 1_655 S
C76 O77 1.229 1_655 S
C76 O89 1.058 . S
O77 C76 1.229 1_455 S
O78 Zn72 1.948 1_655 S
O78 C81 1.267 . S
O79 Zn72 1.987 . S
O79 C90 1.260 . S
O80 Zn73 1.969 . S
O80 C90 1.258 1_565 S
C81 O78 1.267 . S
C81 O82 1.228 1_655 S
O82 C81 1.228 1_455 S
O83 Zn72 2.049 . S
O83 C74 1.058 . S
C84 O85 1.228 1_455 S
C84 O86 1.267 . S
O85 C84 1.228 1_655 S
O86 Zn73 1.969 . S
O86 C84 1.267 . S
O87 Zn73 1.965 1_655 S
O87 C91 1.260 1_565 S
O88 Zn72 1.934 1_655 S
O88 C91 1.258 . S
O89 Zn73 2.024 1_655 S
O89 C76 1.058 . S
C90 O79 1.260 . S
C90 O80 1.258 1_545 S
C91 O87 1.260 1_545 S
C91 O88 1.258 . S
Zn92 O98 1.969 1_545 S
Zn92 O99 1.965 . S
Zn92 O103 2.024 . S
Zn92 O108 1.969 1_545 S
Zn93 O100 1.969 1_565 S
Zn93 O106 1.969 1_565 S
Zn93 O107 1.965 . S
Zn93 O109 2.024 . S
C94 O95 1.229 1_545 S
C94 O103 1.058 . S
O95 C94 1.229 1_565 S
C96 O97 1.229 1_565 S
C96 O109 1.058 . S
O97 C96 1.229 1_545 S
O98 Zn92 1.969 1_565 S
O98 C101 1.267 1_565 S
O99 Zn92 1.965 . S
O99 C110 1.260 . S
O100 Zn93 1.969 1_545 S
O100 C110 1.258 . S
C101 O98 1.267 1_545 S
C101 O102 1.228 . S
O102 C101 1.228 . S
O103 Zn92 2.024 . S
O103 C94 1.058 . S
C104 O105 1.228 . S
C104 O106 1.267 1_565 S
O105 C104 1.228 . S
O106 Zn93 1.969 1_545 S
O106 C104 1.267 1_545 S
O107 Zn93 1.965 . S
O107 C111 1.260 . S
O108 Zn92 1.969 1_565 S
O108 C111 1.258 . S
O109 Zn93 2.024 . S
O109 C96 1.058 . S
C110 O99 1.260 . S
C110 O100 1.258 . S
C111 O107 1.260 . S
C111 O108 1.258 . S
Zn112 O118 1.969 . S
Zn112 O119 1.965 . S
Zn112 O123 2.024 . S
Zn112 O128 1.969 . S
Zn113 O120 1.969 . S
Zn113 O126 1.969 . S
Zn113 O127 1.965 . S
Zn113 O129 2.024 . S
C114 O115 1.229 . S
C114 O123 1.058 . S
O115 C114 1.229 . S
C116 O117 1.229 . S
C116 O129 1.058 . S
O117 C116 1.229 . S
O118 Zn112 1.969 . S
O118 C121 1.267 . S
O119 Zn112 1.965 . S
O119 C130 1.260 . S
O120 Zn113 1.969 . S
O120 C130 1.258 . S
C121 O118 1.267 . S
C121 O122 1.228 . S
O122 C121 1.228 . S
O123 Zn112 2.024 . S
O123 C114 1.058 . S
C124 O125 1.228 . S
C124 O126 1.267 . S
O125 C124 1.228 . S
O126 Zn113 1.969 . S
O126 C124 1.267 . S
O127 Zn113 1.965 . S
O127 C131 1.260 . S
O128 Zn112 1.969 . S
O128 C131 1.258 . S
O129 Zn113 2.024 . S
O129 C116 1.058 . S
C130 O119 1.260 . S
C130 O120 1.258 . S
C131 O127 1.260 . S
C131 O128 1.258 . S
Zn132 O138 1.969 . S
Zn132 O139 1.965 . S
Zn132 O143 2.024 . S
Zn132 O148 1.969 . S
Zn133 O140 1.969 . S
Zn133 O146 1.969 . S
Zn133 O147 1.965 . S
Zn133 O149 2.024 . S
C134 O135 1.229 . S
C134 O143 1.058 . S
O135 C134 1.229 . S
C136 O137 1.229 . S
C136 O149 1.058 . S
O137 C136 1.229 . S
O138 Zn132 1.969 . S
O138 C141 1.267 . S
O139 Zn132 1.965 . S
O139 C150 1.248 1_455 S
O140 Zn133 1.969 . S
O140 C150 1.275 . S
C141 O138 1.267 . S
C141 O142 1.228 . S
O142 C141 1.228 . S
O143 Zn132 2.024 . S
O143 C134 1.058 . S
C144 O145 1.228 . S
C144 O146 1.267 . S
O145 C144 1.228 . S
O146 Zn133 1.969 . S
O146 C144 1.267 . S
O147 Zn133 1.965 . S
O147 C151 1.260 1_655 S
O148 Zn132 1.969 . S
O148 C151 1.258 . S
O149 Zn133 2.024 . S
O149 C136 1.058 . S
C150 O139 1.248 1_655 S
C150 O140 1.275 . S
C151 O147 1.260 1_455 S
C151 O148 1.258 . S
H152 C170 0.951 . S
H153 C172 0.951 . S
H154 C174 0.950 . S
H155 C175 0.950 . S
H156 C177 0.950 . S
H157 C180 0.950 . S
H158 C181 0.950 . S
H159 C183 0.950 . S
H160 C184 0.950 . S
H161 C185 0.951 . S
H162 C187 0.951 . S
H163 C189 0.950 . S
H164 C190 0.950 . S
H165 C192 0.950 . S
H166 C195 0.950 . S
H167 C196 0.950 . S
H168 C198 0.950 . S
H169 C199 0.950 . S
C170 H152 0.951 . S
C170 C171 1.366 . S
C170 C172 1.388 . S
C171 C170 1.366 . S
C171 C175 1.385 . S
C172 H153 0.951 . S
C172 C170 1.388 . S
C172 C173 1.366 . S
C173 C172 1.366 . S
C173 C174 1.414 . S
C173 C176 1.499 . S
C174 H154 0.950 . S
C174 C173 1.414 . S
C174 C175 1.374 . S
C175 H155 0.950 . S
C175 C171 1.385 . S
C175 C174 1.374 . S
C176 C173 1.499 . S
C176 C177 1.373 . S
C176 C178 1.389 . S
C177 H156 0.950 . S
C177 C176 1.373 . S
C177 C193 1.377 . S
C178 C176 1.389 . S
C178 C179 1.524 . S
C178 C192 1.377 . S
C179 C178 1.524 . S
C179 C180 1.397 1_545 S
C179 C184 1.363 . S
C180 H157 0.950 . S
C180 C179 1.397 1_565 S
C180 C181 1.334 . S
C181 H158 0.950 . S
C181 C180 1.334 . S
C181 C182 1.287 . S
C182 C181 1.287 . S
C182 C183 1.524 . S
C182 H201 0.913 . S
C183 H159 0.950 . S
C183 C182 1.524 . S
C183 C184 1.415 1_565 S
C184 H160 0.950 . S
C184 C179 1.363 . S
C184 C183 1.415 1_545 S
C185 H161 0.951 . S
C185 C186 1.366 . S
C185 C187 1.388 . S
C186 C185 1.366 . S
C186 C190 1.385 . S
C187 H162 0.951 . S
C187 C185 1.388 . S
C187 C188 1.366 . S
C188 C187 1.366 . S
C188 C189 1.414 . S
C188 C191 1.499 . S
C189 H163 0.950 . S
C189 C188 1.414 . S
C189 C190 1.374 . S
C190 H164 0.950 . S
C190 C186 1.385 . S
C190 C189 1.374 . S
C191 C188 1.499 . S
C191 C192 1.373 . S
C191 C193 1.389 . S
C192 H165 0.950 . S
C192 C178 1.377 . S
C192 C191 1.373 . S
C193 C177 1.377 . S
C193 C191 1.389 . S
C193 C194 1.524 . S
C194 C193 1.524 . S
C194 C195 1.397 . S
C194 C199 1.363 . S
C195 H166 0.950 . S
C195 C194 1.397 . S
C195 C196 1.334 . S
C196 H167 0.950 . S
C196 C195 1.334 . S
C196 C197 1.287 . S
C197 C196 1.287 . S
C197 C198 1.524 . S
C197 H200 0.999 . S
C198 H168 0.950 . S
C198 C197 1.524 . S
C198 C199 1.415 . S
C199 H169 0.950 . S
C199 C194 1.363 . S
C199 C198 1.415 . S
H200 C197 0.999 . S
H201 C182 0.913 . S
H202 C220 0.951 . S
H203 C222 0.951 . S
H204 C224 0.950 . S
H205 C225 0.950 . S
H206 C227 0.950 . S
H207 C230 0.950 . S
H208 C231 0.950 . S
H209 C233 0.950 . S
H210 C234 0.950 . S
H211 C235 0.951 . S
H212 C237 0.951 . S
H213 C239 0.950 . S
H214 C240 0.950 . S
H215 C242 0.950 . S
H216 C245 0.950 . S
H217 C246 0.950 . S
H218 C248 0.950 . S
H219 C249 0.950 . S
C220 H202 0.951 . S
C220 C221 1.366 . S
C220 C222 1.388 . S
C221 C220 1.366 . S
C221 C225 1.385 . S
C222 H203 0.951 . S
C222 C220 1.388 . S
C222 C223 1.366 . S
C223 C222 1.366 . S
C223 C224 1.414 . S
C223 C226 1.499 . S
C224 H204 0.950 . S
C224 C223 1.414 . S
C224 C225 1.374 . S
C225 H205 0.950 . S
C225 C221 1.385 . S
C225 C224 1.374 . S
C226 C223 1.499 . S
C226 C227 1.373 . S
C226 C228 1.389 . S
C227 H206 0.950 . S
C227 C226 1.373 . S
C227 C243 1.377 . S
C228 C226 1.389 . S
C228 C229 1.524 . S
C228 C242 1.377 . S
C229 C228 1.524 . S
C229 C230 1.397 . S
C229 C234 1.363 . S
C230 H207 0.950 . S
C230 C229 1.397 . S
C230 C231 1.334 . S
C231 H208 0.950 . S
C231 C230 1.334 . S
C231 C232 1.287 . S
C232 C231 1.287 . S
C232 C233 1.524 . S
C232 H251 0.913 . S
C233 H209 0.950 . S
C233 C232 1.524 . S
C233 C234 1.415 . S
C234 H210 0.950 . S
C234 C229 1.363 . S
C234 C233 1.415 . S
C235 H211 0.951 . S
C235 C236 1.366 . S
C235 C237 1.388 . S
C236 C235 1.366 . S
C236 C240 1.385 . S
C237 H212 0.951 . S
C237 C235 1.388 . S
C237 C238 1.366 . S
C238 C237 1.366 . S
C238 C239 1.414 . S
C238 C241 1.499 . S
C239 H213 0.950 . S
C239 C238 1.414 . S
C239 C240 1.374 . S
C240 H214 0.950 . S
C240 C236 1.385 . S
C240 C239 1.374 . S
C241 C238 1.499 . S
C241 C242 1.373 . S
C241 C243 1.389 . S
C242 H215 0.950 . S
C242 C228 1.377 . S
C242 C241 1.373 . S
C243 C227 1.377 . S
C243 C241 1.389 . S
C243 C244 1.524 . S
C244 C243 1.524 . S
C244 C245 1.397 . S
C244 C249 1.363 . S
C245 H216 0.950 . S
C245 C244 1.397 . S
C245 C246 1.334 . S
C246 H217 0.950 . S
C246 C245 1.334 . S
C246 C247 1.287 . S
C247 C246 1.287 . S
C247 C248 1.524 . S
C247 H250 0.999 . S
C248 H218 0.950 . S
C248 C247 1.524 . S
C248 C249 1.415 . S
C249 H219 0.950 . S
C249 C244 1.363 . S
C249 C248 1.415 . S
H250 C247 0.999 . S
H251 C232 0.913 . S
H252 C270 0.951 . S
H253 C272 0.951 . S
H254 C274 0.950 . S
H255 C275 0.950 . S
H256 C277 0.950 . S
H257 C280 0.950 . S
H258 C281 0.950 . S
H259 C283 0.950 . S
H260 C284 0.950 . S
H261 C285 0.951 . S
H262 C287 0.951 . S
H263 C289 0.950 . S
H264 C290 0.950 . S
H265 C292 0.950 . S
H266 C295 0.950 . S
H267 C296 0.950 . S
H268 C298 0.950 . S
H269 C299 0.950 . S
C270 H252 0.951 . S
C270 C271 1.366 . S
C270 C272 1.388 . S
C271 C270 1.366 . S
C271 C275 1.385 . S
C272 H253 0.951 . S
C272 C270 1.388 . S
C272 C273 1.366 . S
C273 C272 1.366 . S
C273 C274 1.414 . S
C273 C276 1.499 . S
C274 H254 0.950 . S
C274 C273 1.414 . S
C274 C275 1.374 . S
C275 H255 0.950 . S
C275 C271 1.385 . S
C275 C274 1.374 . S
C276 C273 1.499 . S
C276 C277 1.373 . S
C276 C278 1.389 . S
C277 H256 0.950 . S
C277 C276 1.373 . S
C277 C293 1.377 . S
C278 C276 1.389 . S
C278 C279 1.524 . S
C278 C292 1.377 . S
C279 C278 1.524 . S
C279 C280 1.397 . S
C279 C284 1.363 . S
C280 H257 0.950 . S
C280 C279 1.397 . S
C280 C281 1.334 . S
C281 H258 0.950 . S
C281 C280 1.334 . S
C281 C282 1.287 . S
C282 C281 1.287 . S
C282 C283 1.524 . S
C282 H301 0.913 . S
C283 H259 0.950 . S
C283 C282 1.524 . S
C283 C284 1.415 . S
C284 H260 0.950 . S
C284 C279 1.363 . S
C284 C283 1.415 . S
C285 H261 0.951 . S
C285 C286 1.366 . S
C285 C287 1.388 . S
C286 C285 1.366 . S
C286 C290 1.385 . S
C287 H262 0.951 . S
C287 C285 1.388 . S
C287 C288 1.366 . S
C288 C287 1.366 . S
C288 C289 1.414 . S
C288 C291 1.499 . S
C289 H263 0.950 . S
C289 C288 1.414 . S
C289 C290 1.374 . S
C290 H264 0.950 . S
C290 C286 1.385 . S
C290 C289 1.374 . S
C291 C288 1.499 . S
C291 C292 1.373 . S
C291 C293 1.389 . S
C292 H265 0.950 . S
C292 C278 1.377 . S
C292 C291 1.373 . S
C293 C277 1.377 . S
C293 C291 1.389 . S
C293 C294 1.524 . S
C294 C293 1.524 . S
C294 C295 1.397 . S
C294 C299 1.363 . S
C295 H266 0.950 . S
C295 C294 1.397 . S
C295 C296 1.334 . S
C296 H267 0.950 . S
C296 C295 1.334 . S
C296 C297 1.287 . S
C297 C296 1.287 . S
C297 C298 1.524 . S
C297 H300 0.999 . S
C298 H268 0.950 . S
C298 C297 1.524 . S
C298 C299 1.415 . S
C299 H269 0.950 . S
C299 C294 1.363 . S
C299 C298 1.415 . S
H300 C297 0.999 . S
H301 C282 0.913 . S
H302 C320 0.951 . S
H303 C322 0.951 . S
H304 C324 0.950 . S
H305 C325 0.950 . S
H306 C327 0.950 . S
H307 C330 0.950 . S
H308 C331 0.950 . S
H309 C333 0.950 . S
H310 C334 0.950 . S
H311 C335 0.951 . S
H312 C337 0.951 . S
H313 C339 0.950 . S
H314 C340 0.950 . S
H315 C342 0.950 . S
H316 C345 0.950 . S
H317 C346 0.950 . S
H318 C348 0.950 . S
H319 C349 0.950 . S
C320 H302 0.951 . S
C320 C321 1.366 . S
C320 C322 1.388 . S
C321 C320 1.366 . S
C321 C325 1.385 1_455 S
C322 H303 0.951 . S
C322 C320 1.388 . S
C322 C323 1.366 . S
C323 C322 1.366 . S
C323 C324 1.414 1_455 S
C323 C326 1.499 . S
C324 H304 0.950 . S
C324 C323 1.414 1_655 S
C324 C325 1.374 . S
C325 H305 0.950 . S
C325 C321 1.385 1_655 S
C325 C324 1.374 . S
C326 C323 1.499 . S
C326 C327 1.373 1_455 S
C326 C328 1.389 . S
C327 H306 0.950 . S
C327 C326 1.373 1_655 S
C327 C343 1.377 . S
C328 C326 1.389 . S
C328 C329 1.524 . S
C328 C342 1.377 . S
C329 C328 1.524 . S
C329 C330 1.397 . S
C329 C334 1.363 . S
C330 H307 0.950 . S
C330 C329 1.397 . S
C330 C331 1.334 . S
C331 H308 0.950 . S
C331 C330 1.334 . S
C331 C332 1.287 . S
C332 C331 1.287 . S
C332 C333 1.524 . S
C332 H351 0.913 . S
C333 H309 0.950 . S
C333 C332 1.524 . S
C333 C334 1.415 . S
C334 H310 0.950 . S
C334 C329 1.363 . S
C334 C333 1.415 . S
C335 H311 0.951 . S
C335 C336 1.366 1_655 S
C335 C337 1.388 . S
C336 C335 1.366 1_455 S
C336 C340 1.385 . S
C337 H312 0.951 . S
C337 C335 1.388 . S
C337 C338 1.366 1_655 S
C338 C337 1.366 1_455 S
C338 C339 1.414 . S
C338 C341 1.499 . S
C339 H313 0.950 . S
C339 C338 1.414 . S
C339 C340 1.374 . S
C340 H314 0.950 . S
C340 C336 1.385 . S
C340 C339 1.374 . S
C341 C338 1.499 . S
C341 C342 1.373 . S
C341 C343 1.389 1_455 S
C342 H315 0.950 . S
C342 C328 1.377 . S
C342 C341 1.373 . S
C343 C327 1.377 . S
C343 C341 1.389 1_655 S
C343 C344 1.524 . S
C344 C343 1.524 . S
C344 C345 1.397 . S
C344 C349 1.363 . S
C345 H316 0.950 . S
C345 C344 1.397 . S
C345 C346 1.334 . S
C346 H317 0.950 . S
C346 C345 1.334 . S
C346 C347 1.287 . S
C347 C346 1.287 . S
C347 C348 1.524 . S
C347 H350 0.999 . S
C348 H318 0.950 . S
C348 C347 1.524 . S
C348 C349 1.415 . S
C349 H319 0.950 . S
C349 C344 1.363 . S
C349 C348 1.415 . S
H350 C347 0.999 . S
H351 C332 0.913 . S
H352 C370 0.951 . S
H353 C372 0.951 . S
H354 C374 0.950 . S
H355 C375 0.950 . S
H356 C377 0.950 . S
H357 C380 0.950 . S
H358 C381 0.950 . S
H359 C383 0.950 . S
H360 C384 0.950 . S
H361 C385 0.951 . S
H362 C387 0.951 . S
H363 C389 0.950 . S
H364 C390 0.950 . S
H365 C392 0.950 . S
H366 C395 0.950 . S
H367 C396 0.950 . S
H368 C398 0.950 . S
H369 C399 0.950 . S
C370 H352 0.951 . S
C370 C371 1.366 1_554 S
C370 C372 1.388 1_554 S
C371 C370 1.366 1_556 S
C371 C375 1.385 . S
C372 H353 0.951 . S
C372 C370 1.388 1_556 S
C372 C373 1.366 . S
C373 C372 1.366 . S
C373 C374 1.414 . S
C373 C376 1.499 . S
C374 H354 0.950 . S
C374 C373 1.414 . S
C374 C375 1.374 . S
C375 H355 0.950 . S
C375 C371 1.385 . S
C375 C374 1.374 . S
C376 C373 1.499 . S
C376 C377 1.373 . S
C376 C378 1.356 1_565 S
C377 H356 0.950 . S
C377 C376 1.373 . S
C377 C393 1.377 . S
C378 C376 1.356 1_545 S
C378 C379 1.553 . S
C378 C392 1.383 . S
C379 C378 1.553 . S
C379 C380 1.397 . S
C379 C384 1.363 . S
C380 H357 0.950 . S
C380 C379 1.397 . S
C380 C381 1.334 . S
C381 H358 0.950 . S
C381 C380 1.334 . S
C381 C382 1.287 . S
C382 C381 1.287 . S
C382 C383 1.524 . S
C382 H401 0.913 . S
C383 H359 0.950 . S
C383 C382 1.524 . S
C383 C384 1.415 . S
C384 H360 0.950 . S
C384 C379 1.363 . S
C384 C383 1.415 . S
C385 H361 0.951 . S
C385 C386 1.359 1_565 S
C385 C387 1.388 . S
C386 C385 1.359 1_545 S
C386 C390 1.389 . S
C387 H362 0.951 . S
C387 C385 1.388 . S
C387 C388 1.366 . S
C388 C387 1.366 . S
C388 C389 1.414 1_565 S
C388 C391 1.499 . S
C389 H363 0.950 . S
C389 C388 1.414 1_545 S
C389 C390 1.374 . S
C390 H364 0.950 . S
C390 C386 1.389 . S
C390 C389 1.374 . S
C391 C388 1.499 . S
C391 C392 1.373 1_565 S
C391 C393 1.389 . S
C392 H365 0.950 . S
C392 C378 1.383 . S
C392 C391 1.373 1_545 S
C393 C377 1.377 . S
C393 C391 1.389 . S
C393 C394 1.524 . S
C394 C393 1.524 . S
C394 C395 1.397 . S
C394 C399 1.363 . S
C395 H366 0.950 . S
C395 C394 1.397 . S
C395 C396 1.334 . S
C396 H367 0.950 . S
C396 C395 1.334 . S
C396 C397 1.287 . S
C397 C396 1.287 . S
C397 C398 1.524 . S
C397 H400 0.999 . S
C398 H368 0.950 . S
C398 C397 1.524 . S
C398 C399 1.415 . S
C399 H369 0.950 . S
C399 C394 1.363 . S
C399 C398 1.415 . S
H400 C397 0.999 . S
H401 C382 0.913 . S
H402 C420 0.951 . S
H403 C422 0.953 . S
H404 C424 0.950 . S
H405 C425 0.950 . S
H406 C427 0.950 . S
H407 C430 0.950 . S
H408 C431 0.950 . S
H409 C433 0.950 . S
H410 C434 0.950 . S
H411 C435 0.951 . S
H412 C437 0.951 . S
H413 C439 0.950 . S
H414 C440 0.950 . S
H415 C442 0.950 . S
H416 C445 0.950 . S
H417 C446 0.950 . S
H418 C448 0.950 . S
H419 C449 0.950 . S
C420 H402 0.951 . S
C420 C421 1.366 . S
C420 C422 1.388 1_554 S
C421 C420 1.366 . S
C421 C425 1.385 1_554 S
C422 H403 0.953 . S
C422 C420 1.388 1_556 S
C422 C423 1.366 . S
C423 C422 1.366 . S
C423 C424 1.414 . S
C423 C426 1.499 . S
C424 H404 0.950 . S
C424 C423 1.414 . S
C424 C425 1.374 . S
C425 H405 0.950 . S
C425 C421 1.385 1_556 S
C425 C424 1.374 . S
C426 C423 1.499 . S
C426 C427 1.373 . S
C426 C428 1.389 . S
C427 H406 0.950 . S
C427 C426 1.373 . S
C427 C443 1.377 . S
C428 C426 1.389 . S
C428 C429 1.524 . S
C428 C442 1.377 . S
C429 C428 1.524 . S
C429 C430 1.397 . S
C429 C434 1.363 . S
C430 H407 0.950 . S
C430 C429 1.397 . S
C430 C431 1.334 . S
C431 H408 0.950 . S
C431 C430 1.334 . S
C431 C432 1.287 1_556 S
C432 C431 1.287 1_554 S
C432 C433 1.524 . S
C432 H451 0.913 . S
C433 H409 0.950 . S
C433 C432 1.524 . S
C433 C434 1.415 1_554 S
C434 H410 0.950 . S
C434 C429 1.363 . S
C434 C433 1.415 1_556 S
C435 H411 0.951 . S
C435 C436 1.366 . S
C435 C437 1.388 . S
C436 C435 1.366 . S
C436 C440 1.385 . S
C437 H412 0.951 . S
C437 C435 1.388 . S
C437 C438 1.366 . S
C438 C437 1.366 . S
C438 C439 1.414 . S
C438 C441 1.499 . S
C439 H413 0.950 . S
C439 C438 1.414 . S
C439 C440 1.374 . S
C440 H414 0.950 . S
C440 C436 1.385 . S
C440 C439 1.374 . S
C441 C438 1.499 . S
C441 C442 1.373 . S
C441 C443 1.389 . S
C442 H415 0.950 . S
C442 C428 1.377 . S
C442 C441 1.373 . S
C443 C427 1.377 . S
C443 C441 1.389 . S
C443 C444 1.524 . S
C444 C443 1.524 . S
C444 C445 1.397 . S
C444 C449 1.363 . S
C445 H416 0.950 . S
C445 C444 1.397 . S
C445 C446 1.334 . S
C446 H417 0.950 . S
C446 C445 1.334 . S
C446 C447 1.287 . S
C447 C446 1.287 . S
C447 C448 1.524 . S
C447 H450 0.999 . S
C448 H418 0.950 . S
C448 C447 1.524 . S
C448 C449 1.415 . S
C449 H419 0.950 . S
C449 C444 1.363 . S
C449 C448 1.415 . S
H450 C447 0.999 . S
H451 C432 0.913 . S
H452 C470 0.951 . S
H453 C472 0.951 . S
H454 C474 0.950 . S
H455 C475 0.950 . S
H456 C477 0.950 . S
H457 C480 0.950 . S
H458 C481 0.950 . S
H459 C483 0.950 . S
H460 C484 0.950 . S
H461 C485 0.951 . S
H462 C487 0.951 . S
H463 C489 0.950 . S
H464 C490 0.950 . S
H465 C492 0.950 . S
H466 C495 0.950 . S
H467 C496 0.950 . S
H468 C498 0.950 . S
H469 C499 0.950 . S
C470 H452 0.951 . S
C470 C471 1.366 1_554 S
C470 C472 1.388 1_554 S
C471 C470 1.366 1_556 S
C471 C475 1.385 . S
C472 H453 0.951 . S
C472 C470 1.388 1_556 S
C472 C473 1.366 . S
C473 C472 1.366 . S
C473 C474 1.414 . S
C473 C476 1.499 . S
C474 H454 0.950 . S
C474 C473 1.414 . S
C474 C475 1.374 . S
C475 H455 0.950 . S
C475 C471 1.385 . S
C475 C474 1.374 . S
C476 C473 1.499 . S
C476 C477 1.373 . S
C476 C478 1.389 . S
C477 H456 0.950 . S
C477 C476 1.373 . S
C477 C493 1.377 . S
C478 C476 1.389 . S
C478 C479 1.524 . S
C478 C492 1.377 . S
C479 C478 1.524 . S
C479 C480 1.397 . S
C479 C484 1.363 . S
C480 H457 0.950 . S
C480 C479 1.397 . S
C480 C481 1.334 . S
C481 H458 0.950 . S
C481 C480 1.334 . S
C481 C482 1.287 . S
C482 C481 1.287 . S
C482 C483 1.524 . S
C482 H501 0.913 . S
C483 H459 0.950 . S
C483 C482 1.524 . S
C483 C484 1.415 . S
C484 H460 0.950 . S
C484 C479 1.363 . S
C484 C483 1.415 . S
C485 H461 0.951 . S
C485 C486 1.366 . S
C485 C487 1.388 . S
C486 C485 1.366 . S
C486 C490 1.385 . S
C487 H462 0.951 . S
C487 C485 1.388 . S
C487 C488 1.366 . S
C488 C487 1.366 . S
C488 C489 1.414 . S
C488 C491 1.499 . S
C489 H463 0.950 . S
C489 C488 1.414 . S
C489 C490 1.374 . S
C490 H464 0.950 . S
C490 C486 1.385 . S
C490 C489 1.374 . S
C491 C488 1.499 . S
C491 C492 1.373 . S
C491 C493 1.389 . S
C492 H465 0.950 . S
C492 C478 1.377 . S
C492 C491 1.373 . S
C493 C477 1.377 . S
C493 C491 1.389 . S
C493 C494 1.524 . S
C494 C493 1.524 . S
C494 C495 1.397 . S
C494 C499 1.363 . S
C495 H466 0.950 . S
C495 C494 1.397 . S
C495 C496 1.334 . S
C496 H467 0.950 . S
C496 C495 1.334 . S
C496 C497 1.287 . S
C497 C496 1.287 . S
C497 C498 1.524 . S
C497 H500 0.999 . S
C498 H468 0.950 . S
C498 C497 1.524 . S
C498 C499 1.415 . S
C499 H469 0.950 . S
C499 C494 1.363 . S
C499 C498 1.415 . S
H500 C497 0.999 . S
H501 C482 0.913 . S
H502 C520 0.951 . S
H503 C522 0.951 . S
H504 C524 0.950 . S
H505 C525 0.960 . S
H506 C527 0.950 . S
H507 C530 0.950 . S
H508 C531 0.950 . S
H509 C533 0.950 1_455 S
H510 C534 0.950 . S
H511 C535 0.951 . S
H512 C537 0.951 . S
H513 C539 0.950 . S
H514 C540 0.950 . S
H515 C542 0.950 . S
H516 C545 0.950 . S
H517 C546 0.950 . S
H518 C548 0.950 . S
H519 C549 0.950 . S
C520 H502 0.951 . S
C520 C521 1.366 1_455 S
C520 C522 1.388 . S
C521 C520 1.366 1_655 S
C521 C525 1.383 1_556 S
C522 H503 0.951 . S
C522 C520 1.388 . S
C522 C523 1.366 1_455 S
C523 C522 1.366 1_655 S
C523 C524 1.414 . S
C523 C526 1.499 . S
C524 H504 0.950 . S
C524 C523 1.414 . S
C524 C525 1.366 1_556 S
C525 H505 0.960 . S
C525 C521 1.383 1_554 S
C525 C524 1.366 1_554 S
C526 C523 1.499 . S
C526 C527 1.373 . S
C526 C528 1.389 . S
C527 H506 0.950 . S
C527 C526 1.373 . S
C527 C543 1.377 . S
C528 C526 1.389 . S
C528 C529 1.524 . S
C528 C542 1.377 . S
C529 C528 1.524 . S
C529 C530 1.397 . S
C529 C534 1.363 1_655 S
C530 H507 0.950 . S
C530 C529 1.397 . S
C530 C531 1.334 . S
C531 H508 0.950 . S
C531 C530 1.334 . S
C531 C532 1.287 . S
C532 C531 1.287 . S
C532 C533 1.524 . S
C532 H551 0.913 . S
C533 H509 0.950 1_655 S
C533 C532 1.524 . S
C533 C534 1.415 1_655 S
C534 H510 0.950 . S
C534 C529 1.363 1_455 S
C534 C533 1.415 1_455 S
C535 H511 0.951 . S
C535 C536 1.366 1_655 S
C535 C537 1.388 . S
C536 C535 1.366 1_455 S
C536 C540 1.385 . S
C537 H512 0.951 . S
C537 C535 1.388 . S
C537 C538 1.390 . S
C538 C537 1.390 . S
C538 C539 1.389 1_655 S
C538 C541 1.501 . S
C539 H513 0.950 . S
C539 C538 1.389 1_455 S
C539 C540 1.374 . S
C540 H514 0.950 . S
C540 C536 1.385 . S
C540 C539 1.374 . S
C541 C538 1.501 . S
C541 C542 1.373 . S
C541 C543 1.389 . S
C542 H515 0.950 . S
C542 C528 1.377 . S
C542 C541 1.373 . S
C543 C527 1.377 . S
C543 C541 1.389 . S
C543 C544 1.524 1_655 S
C544 C543 1.524 1_455 S
C544 C545 1.397 . S
C544 C549 1.363 1_455 S
C545 H516 0.950 . S
C545 C544 1.397 . S
C545 C546 1.334 . S
C546 H517 0.950 . S
C546 C545 1.334 . S
C546 C547 1.287 . S
C547 C546 1.287 . S
C547 C548 1.524 1_455 S
C547 H550 0.999 . S
C548 H518 0.950 . S
C548 C547 1.524 1_655 S
C548 C549 1.415 . S
C549 H519 0.950 . S
C549 C544 1.363 1_655 S
C549 C548 1.415 . S
H550 C547 0.999 . S
H551 C532 0.913 . S
H552 C570 0.951 . S
H553 C572 0.951 . S
H554 C574 0.950 . S
H555 C575 0.950 1_655 S
H556 C577 0.950 . S
H557 C580 0.950 . S
H558 C581 0.950 . S
H559 C583 0.950 . S
H560 C584 0.950 . S
H561 C585 0.951 . S
H562 C587 0.951 . S
H563 C589 0.950 . S
H564 C590 0.950 . S
H565 C592 0.950 . S
H566 C595 0.950 . S
H567 C596 0.950 . S
H568 C598 0.950 . S
H569 C599 0.950 . S
C570 H552 0.951 . S
C570 C571 1.366 . S
C570 C572 1.388 . S
C571 C570 1.366 . S
C571 C575 1.385 . S
C572 H553 0.951 . S
C572 C570 1.388 . S
C572 C573 1.366 . S
C573 C572 1.366 . S
C573 C574 1.414 1_455 S
C573 C576 1.499 . S
C574 H554 0.950 . S
C574 C573 1.414 1_655 S
C574 C575 1.374 1_655 S
C575 H555 0.950 1_455 S
C575 C571 1.385 . S
C575 C574 1.374 1_455 S
C576 C573 1.499 . S
C576 C577 1.373 1_455 S
C576 C578 1.389 . S
C577 H556 0.950 . S
C577 C576 1.373 1_655 S
C577 C593 1.377 . S
C578 C576 1.389 . S
C578 C579 1.524 . S
C578 C592 1.377 . S
C579 C578 1.524 . S
C579 C580 1.397 . S
C579 C584 1.363 . S
C580 H557 0.950 . S
C580 C579 1.397 . S
C580 C581 1.334 . S
C581 H558 0.950 . S
C581 C580 1.334 . S
C581 C582 1.287 . S
C582 C581 1.287 . S
C582 C583 1.524 . S
C582 H601 0.913 . S
C583 H559 0.950 . S
C583 C582 1.524 . S
C583 C584 1.415 . S
C584 H560 0.950 . S
C584 C579 1.363 . S
C584 C583 1.415 . S
C585 H561 0.951 . S
C585 C586 1.366 . S
C585 C587 1.388 . S
C586 C585 1.366 . S
C586 C590 1.385 1_655 S
C587 H562 0.951 . S
C587 C585 1.388 . S
C587 C588 1.366 . S
C588 C587 1.366 . S
C588 C589 1.414 1_655 S
C588 C591 1.494 1_655 S
C589 H563 0.950 . S
C589 C588 1.414 1_455 S
C589 C590 1.374 . S
C590 H564 0.950 . S
C590 C586 1.385 1_455 S
C590 C589 1.374 . S
C591 C588 1.494 1_455 S
C591 C592 1.411 . S
C591 C593 1.358 1_455 S
C592 H565 0.950 . S
C592 C578 1.377 . S
C592 C591 1.411 . S
C593 C577 1.377 . S
C593 C591 1.358 1_655 S
C593 C594 1.524 . S
C594 C593 1.524 . S
C594 C595 1.397 . S
C594 C599 1.363 . S
C595 H566 0.950 . S
C595 C594 1.397 . S
C595 C596 1.334 . S
C596 H567 0.950 . S
C596 C595 1.334 . S
C596 C597 1.287 . S
C597 C596 1.287 . S
C597 C598 1.524 . S
C597 H600 0.999 . S
C598 H568 0.950 . S
C598 C597 1.524 . S
C598 C599 1.415 . S
C599 H569 0.950 . S
C599 C594 1.363 . S
C599 C598 1.415 . S
H600 C597 0.999 . S
H601 C582 0.913 . S
H602 C620 0.951 . S
H603 C622 0.951 . S
H604 C624 0.950 . S
H605 C625 0.950 . S
H606 C627 0.950 . S
H607 C630 0.950 . S
H608 C631 0.950 . S
H609 C633 0.950 . S
H610 C634 0.950 . S
H611 C635 0.951 . S
H612 C637 0.951 . S
H613 C639 0.950 . S
H614 C640 0.950 . S
H615 C642 0.950 . S
H616 C645 0.950 . S
H617 C646 0.950 . S
H618 C648 0.950 . S
H619 C649 0.950 . S
C620 H602 0.951 . S
C620 C621 1.366 . S
C620 C622 1.388 . S
C621 C620 1.366 . S
C621 C625 1.385 . S
C622 H603 0.951 . S
C622 C620 1.388 . S
C622 C623 1.366 . S
C623 C622 1.366 . S
C623 C624 1.414 . S
C623 C626 1.499 . S
C624 H604 0.950 . S
C624 C623 1.414 . S
C624 C625 1.374 . S
C625 H605 0.950 . S
C625 C621 1.385 . S
C625 C624 1.374 . S
C626 C623 1.499 . S
C626 C627 1.373 . S
C626 C628 1.389 . S
C627 H606 0.950 . S
C627 C626 1.373 . S
C627 C643 1.377 . S
C628 C626 1.389 . S
C628 C629 1.524 . S
C628 C642 1.377 . S
C629 C628 1.524 . S
C629 C630 1.397 . S
C629 C634 1.363 . S
C630 H607 0.950 . S
C630 C629 1.397 . S
C630 C631 1.334 . S
C631 H608 0.950 . S
C631 C630 1.334 . S
C631 C632 1.287 . S
C632 C631 1.287 . S
C632 C633 1.524 . S
C632 H651 0.913 . S
C633 H609 0.950 . S
C633 C632 1.524 . S
C633 C634 1.415 . S
C634 H610 0.950 . S
C634 C629 1.363 . S
C634 C633 1.415 . S
C635 H611 0.951 . S
C635 C636 1.366 1_545 S
C635 C637 1.388 . S
C636 C635 1.366 1_565 S
C636 C640 1.385 . S
C637 H612 0.951 . S
C637 C635 1.388 . S
C637 C638 1.366 . S
C638 C637 1.366 . S
C638 C639 1.414 1_545 S
C638 C641 1.499 . S
C639 H613 0.950 . S
C639 C638 1.414 1_565 S
C639 C640 1.374 . S
C640 H614 0.950 . S
C640 C636 1.385 . S
C640 C639 1.374 . S
C641 C638 1.499 . S
C641 C642 1.373 . S
C641 C643 1.389 . S
C642 H615 0.950 . S
C642 C628 1.377 . S
C642 C641 1.373 . S
C643 C627 1.377 . S
C643 C641 1.389 . S
C643 C644 1.524 . S
C644 C643 1.524 . S
C644 C645 1.397 1_545 S
C644 C649 1.363 . S
C645 H616 0.950 . S
C645 C644 1.397 1_565 S
C645 C646 1.334 . S
C646 H617 0.950 . S
C646 C645 1.334 . S
C646 C647 1.287 . S
C647 C646 1.287 . S
C647 C648 1.524 1_565 S
C647 H650 0.999 . S
C648 H618 0.950 . S
C648 C647 1.524 1_545 S
C648 C649 1.415 . S
C649 H619 0.950 . S
C649 C644 1.363 . S
C649 C648 1.415 . S
H650 C647 0.999 . S
H651 C632 0.913 . S
H652 C670 0.951 . S
H653 C672 0.951 . S
H654 C674 0.950 . S
H655 C675 0.950 . S
H656 C677 0.950 . S
H657 C680 0.950 . S
H658 C681 0.950 . S
H659 C683 0.950 . S
H660 C684 0.950 . S
H661 C685 0.951 . S
H662 C687 0.951 . S
H663 C689 0.950 . S
H664 C690 0.950 . S
H665 C692 0.950 . S
H666 C695 0.950 . S
H667 C696 0.950 . S
H668 C698 0.950 . S
H669 C699 0.950 . S
C670 H652 0.951 . S
C670 C671 1.366 . S
C670 C672 1.388 . S
C671 C670 1.366 . S
C671 C675 1.385 . S
C672 H653 0.951 . S
C672 C670 1.388 . S
C672 C673 1.366 . S
C673 C672 1.366 . S
C673 C674 1.414 . S
C673 C676 1.499 . S
C674 H654 0.950 . S
C674 C673 1.414 . S
C674 C675 1.374 . S
C675 H655 0.950 . S
C675 C671 1.385 . S
C675 C674 1.374 . S
C676 C673 1.499 . S
C676 C677 1.373 . S
C676 C678 1.389 . S
C677 H656 0.950 . S
C677 C676 1.373 . S
C677 C693 1.377 . S
C678 C676 1.389 . S
C678 C679 1.524 . S
C678 C692 1.377 . S
C679 C678 1.524 . S
C679 C680 1.397 . S
C679 C684 1.363 . S
C680 H657 0.950 . S
C680 C679 1.397 . S
C680 C681 1.334 . S
C681 H658 0.950 . S
C681 C680 1.334 . S
C681 C682 1.287 . S
C682 C681 1.287 . S
C682 C683 1.524 . S
C682 H701 0.913 . S
C683 H659 0.950 . S
C683 C682 1.524 . S
C683 C684 1.415 . S
C684 H660 0.950 . S
C684 C679 1.363 . S
C684 C683 1.415 . S
C685 H661 0.951 . S
C685 C686 1.366 . S
C685 C687 1.388 . S
C686 C685 1.366 . S
C686 C690 1.385 . S
C687 H662 0.951 . S
C687 C685 1.388 . S
C687 C688 1.366 . S
C688 C687 1.366 . S
C688 C689 1.414 . S
C688 C691 1.499 . S
C689 H663 0.950 . S
C689 C688 1.414 . S
C689 C690 1.374 . S
C690 H664 0.950 . S
C690 C686 1.385 . S
C690 C689 1.374 . S
C691 C688 1.499 . S
C691 C692 1.373 . S
C691 C693 1.389 . S
C692 H665 0.950 . S
C692 C678 1.377 . S
C692 C691 1.373 . S
C693 C677 1.377 . S
C693 C691 1.389 . S
C693 C694 1.524 . S
C694 C693 1.524 . S
C694 C695 1.397 . S
C694 C699 1.363 . S
C695 H666 0.950 . S
C695 C694 1.397 . S
C695 C696 1.334 . S
C696 H667 0.950 . S
C696 C695 1.334 . S
C696 C697 1.287 . S
C697 C696 1.287 . S
C697 C698 1.524 . S
C697 H700 0.999 . S
C698 H668 0.950 . S
C698 C697 1.524 . S
C698 C699 1.415 . S
C699 H669 0.950 . S
C699 C694 1.363 . S
C699 C698 1.415 . S
H700 C697 0.999 . S
H701 C682 0.913 . S
H702 C720 0.951 . S
H703 C722 0.951 . S
H704 C724 0.950 . S
H705 C725 0.950 . S
H706 C727 0.950 . S
H707 C730 0.950 . S
H708 C731 0.950 . S
H709 C733 0.950 . S
H710 C734 0.950 . S
H711 C735 0.951 . S
H712 C737 0.951 . S
H713 C739 0.950 . S
H714 C740 0.950 . S
H715 C742 0.950 . S
H716 C745 0.950 . S
H717 C746 0.950 . S
H718 C748 0.950 . S
H719 C749 0.950 . S
C720 H702 0.951 . S
C720 C721 1.366 . S
C720 C722 1.388 . S
C721 C720 1.366 . S
C721 C725 1.385 . S
C722 H703 0.951 . S
C722 C720 1.388 . S
C722 C723 1.366 . S
C723 C722 1.366 . S
C723 C724 1.414 . S
C723 C726 1.499 . S
C724 H704 0.950 . S
C724 C723 1.414 . S
C724 C725 1.374 . S
C725 H705 0.950 . S
C725 C721 1.385 . S
C725 C724 1.374 . S
C726 C723 1.499 . S
C726 C727 1.373 . S
C726 C728 1.389 . S
C727 H706 0.950 . S
C727 C726 1.373 . S
C727 C743 1.377 . S
C728 C726 1.389 . S
C728 C729 1.524 . S
C728 C742 1.377 . S
C729 C728 1.524 . S
C729 C730 1.397 . S
C729 C734 1.363 . S
C730 H707 0.950 . S
C730 C729 1.397 . S
C730 C731 1.334 . S
C731 H708 0.950 . S
C731 C730 1.334 . S
C731 C732 1.287 . S
C732 C731 1.287 . S
C732 C733 1.524 . S
C732 H751 0.913 . S
C733 H709 0.950 . S
C733 C732 1.524 . S
C733 C734 1.415 . S
C734 H710 0.950 . S
C734 C729 1.363 . S
C734 C733 1.415 . S
C735 H711 0.951 . S
C735 C736 1.366 . S
C735 C737 1.388 . S
C736 C735 1.366 . S
C736 C740 1.385 . S
C737 H712 0.951 . S
C737 C735 1.388 . S
C737 C738 1.366 . S
C738 C737 1.366 . S
C738 C739 1.414 . S
C738 C741 1.499 . S
C739 H713 0.950 . S
C739 C738 1.414 . S
C739 C740 1.374 . S
C740 H714 0.950 . S
C740 C736 1.385 . S
C740 C739 1.374 . S
C741 C738 1.499 . S
C741 C742 1.373 . S
C741 C743 1.389 . S
C742 H715 0.950 . S
C742 C728 1.377 . S
C742 C741 1.373 . S
C743 C727 1.377 . S
C743 C741 1.389 . S
C743 C744 1.524 . S
C744 C743 1.524 . S
C744 C745 1.397 . S
C744 C749 1.363 . S
C745 H716 0.950 . S
C745 C744 1.397 . S
C745 C746 1.334 . S
C746 H717 0.950 . S
C746 C745 1.334 . S
C746 C747 1.287 . S
C747 C746 1.287 . S
C747 C748 1.524 . S
C747 H750 0.999 . S
C748 H718 0.950 . S
C748 C747 1.524 . S
C748 C749 1.415 . S
C749 H719 0.950 . S
C749 C744 1.363 . S
C749 C748 1.415 . S
H750 C747 0.999 . S
H751 C732 0.913 . S
H752 C770 0.944 1_554 S
H753 C772 0.951 . S
H754 C774 0.950 . S
H755 C775 0.950 . S
H756 C777 0.950 . S
H757 C780 0.950 . S
H758 C781 0.950 . S
H759 C783 0.950 1_554 S
H760 C784 0.950 . S
H761 C785 0.951 . S
H762 C787 0.951 . S
H763 C789 0.950 . S
H764 C790 0.950 . S
H765 C792 0.950 . S
H766 C795 0.950 . S
H767 C796 0.950 . S
H768 C798 0.950 . S
H769 C799 0.950 . S
C770 H752 0.944 1_556 S
C770 C771 1.369 . S
C770 C772 1.391 . S
C771 C770 1.369 . S
C771 C775 1.385 . S
C772 H753 0.951 . S
C772 C770 1.391 . S
C772 C773 1.366 . S
C773 C772 1.366 . S
C773 C774 1.414 . S
C773 C776 1.499 . S
C774 H754 0.950 . S
C774 C773 1.414 . S
C774 C775 1.374 . S
C775 H755 0.950 . S
C775 C771 1.385 . S
C775 C774 1.374 . S
C776 C773 1.499 . S
C776 C777 1.373 1_655 S
C776 C778 1.389 . S
C777 H756 0.950 . S
C777 C776 1.373 1_455 S
C777 C793 1.377 . S
C778 C776 1.389 . S
C778 C779 1.524 . S
C778 C792 1.377 . S
C779 C778 1.524 . S
C779 C780 1.397 . S
C779 C784 1.363 . S
C780 H757 0.950 . S
C780 C779 1.397 . S
C780 C781 1.334 . S
C781 H758 0.950 . S
C781 C780 1.334 . S
C781 C782 1.287 . S
C782 C781 1.287 . S
C782 C783 1.524 . S
C782 H801 0.913 1_556 S
C783 H759 0.950 1_556 S
C783 C782 1.524 . S
C783 C784 1.415 . S
C784 H760 0.950 . S
C784 C779 1.363 . S
C784 C783 1.415 . S
C785 H761 0.951 . S
C785 C786 1.366 . S
C785 C787 1.388 . S
C786 C785 1.366 . S
C786 C790 1.385 . S
C787 H762 0.951 . S
C787 C785 1.388 . S
C787 C788 1.366 . S
C788 C787 1.366 . S
C788 C789 1.414 . S
C788 C791 1.499 . S
C789 H763 0.950 . S
C789 C788 1.414 . S
C789 C790 1.374 . S
C790 H764 0.950 . S
C790 C786 1.385 . S
C790 C789 1.374 . S
C791 C788 1.499 . S
C791 C792 1.373 1_455 S
C791 C793 1.389 . S
C792 H765 0.950 . S
C792 C778 1.377 . S
C792 C791 1.373 1_655 S
C793 C777 1.377 . S
C793 C791 1.389 . S
C793 C794 1.524 . S
C794 C793 1.524 . S
C794 C795 1.397 . S
C794 C799 1.363 . S
C795 H766 0.950 . S
C795 C794 1.397 . S
C795 C796 1.334 . S
C796 H767 0.950 . S
C796 C795 1.334 . S
C796 C797 1.287 . S
C797 C796 1.287 . S
C797 C798 1.524 . S
C797 H800 0.999 . S
C798 H768 0.950 . S
C798 C797 1.524 . S
C798 C799 1.415 . S
C799 H769 0.950 . S
C799 C794 1.363 . S
C799 C798 1.415 . S
H800 C797 0.999 . S
H801 C782 0.913 1_554 S
H802 C820 0.951 . S
H803 C822 0.951 . S
H804 C824 0.950 . S
H805 C825 0.950 . S
H806 C827 0.950 . S
H807 C830 0.950 . S
H808 C831 0.950 . S
H809 C833 0.950 . S
H810 C834 0.950 . S
H811 C835 0.952 . S
H812 C837 0.951 . S
H813 C839 0.950 . S
H814 C840 0.950 . S
H815 C842 0.953 . S
H816 C845 0.950 . S
H817 C846 0.950 . S
H818 C848 0.950 . S
H819 C849 0.950 . S
C820 H802 0.951 . S
C820 C821 1.366 . S
C820 C822 1.388 . S
C821 C820 1.366 . S
C821 C825 1.385 1_556 S
C822 H803 0.951 . S
C822 C820 1.388 . S
C822 C823 1.366 . S
C823 C822 1.366 . S
C823 C824 1.414 . S
C823 C826 1.499 . S
C824 H804 0.950 . S
C824 C823 1.414 . S
C824 C825 1.374 1_556 S
C825 H805 0.950 . S
C825 C821 1.385 1_554 S
C825 C824 1.374 1_554 S
C826 C823 1.499 . S
C826 C827 1.373 . S
C826 C828 1.389 . S
C827 H806 0.950 . S
C827 C826 1.373 . S
C827 C843 1.377 . S
C828 C826 1.389 . S
C828 C829 1.524 1_565 S
C828 C842 1.376 1_565 S
C829 C828 1.524 1_545 S
C829 C830 1.397 . S
C829 C834 1.363 . S
C830 H807 0.950 . S
C830 C829 1.397 . S
C830 C831 1.334 . S
C831 H808 0.950 . S
C831 C830 1.334 . S
C831 C832 1.287 . S
C832 C831 1.287 . S
C832 C833 1.524 . S
C832 H851 0.913 . S
C833 H809 0.950 . S
C833 C832 1.524 . S
C833 C834 1.415 . S
C834 H810 0.950 . S
C834 C829 1.363 . S
C834 C833 1.415 . S
C835 H811 0.952 . S
C835 C836 1.366 1_565 S
C835 C837 1.388 . S
C836 C835 1.366 1_545 S
C836 C840 1.385 . S
C837 H812 0.951 . S
C837 C835 1.388 . S
C837 C838 1.366 . S
C838 C837 1.366 . S
C838 C839 1.414 . S
C838 C841 1.499 . S
C839 H813 0.950 . S
C839 C838 1.414 . S
C839 C840 1.374 1_565 S
C840 H814 0.950 . S
C840 C836 1.385 . S
C840 C839 1.374 1_545 S
C841 C838 1.499 . S
C841 C842 1.371 1_565 S
C841 C843 1.389 . S
C842 H815 0.953 . S
C842 C828 1.376 1_545 S
C842 C841 1.371 1_545 S
C843 C827 1.377 . S
C843 C841 1.389 . S
C843 C844 1.524 . S
C844 C843 1.524 . S
C844 C845 1.397 . S
C844 C849 1.363 . S
C845 H816 0.950 . S
C845 C844 1.397 . S
C845 C846 1.334 . S
C846 H817 0.950 . S
C846 C845 1.334 . S
C846 C847 1.287 . S
C847 C846 1.287 . S
C847 C848 1.524 . S
C847 H850 0.999 . S
C848 H818 0.950 . S
C848 C847 1.524 . S
C848 C849 1.415 . S
C849 H819 0.950 . S
C849 C844 1.363 . S
C849 C848 1.415 . S
H850 C847 0.999 . S
H851 C832 0.913 . S
H852 C870 0.951 1_554 S
H853 C872 0.951 . S
H854 C874 0.950 . S
H855 C875 0.950 . S
H856 C877 0.950 . S
H857 C880 0.950 1_556 S
H858 C881 0.950 . S
H859 C883 0.950 . S
H860 C884 0.950 1_556 S
H861 C885 0.951 . S
H862 C887 0.951 . S
H863 C889 0.950 . S
H864 C890 0.950 . S
H865 C892 0.950 . S
H866 C895 0.950 . S
H867 C896 0.950 . S
H868 C898 0.950 . S
H869 C899 0.950 . S
C870 H852 0.951 1_556 S
C870 C871 1.366 . S
C870 C872 1.388 . S
C871 C870 1.366 . S
C871 C875 1.385 . S
C872 H853 0.951 . S
C872 C870 1.388 . S
C872 C873 1.366 . S
C873 C872 1.366 . S
C873 C874 1.414 . S
C873 C876 1.499 . S
C874 H854 0.950 . S
C874 C873 1.414 . S
C874 C875 1.374 . S
C875 H855 0.950 . S
C875 C871 1.385 . S
C875 C874 1.374 . S
C876 C873 1.499 . S
C876 C877 1.373 . S
C876 C878 1.389 . S
C877 H856 0.950 . S
C877 C876 1.373 . S
C877 C893 1.377 . S
C878 C876 1.389 . S
C878 C879 1.524 . S
C878 C892 1.377 . S
C879 C878 1.524 . S
C879 C880 1.397 1_556 S
C879 C884 1.363 1_556 S
C880 H857 0.950 1_554 S
C880 C879 1.397 1_554 S
C880 C881 1.334 . S
C881 H858 0.950 . S
C881 C880 1.334 . S
C881 C882 1.287 . S
C882 C881 1.287 . S
C882 C883 1.524 . S
C882 H901 0.913 . S
C883 H859 0.950 . S
C883 C882 1.524 . S
C883 C884 1.415 . S
C884 H860 0.950 1_554 S
C884 C879 1.363 1_554 S
C884 C883 1.415 . S
C885 H861 0.951 . S
C885 C886 1.366 . S
C885 C887 1.388 . S
C886 C885 1.366 . S
C886 C890 1.385 . S
C887 H862 0.951 . S
C887 C885 1.388 . S
C887 C888 1.366 . S
C888 C887 1.366 . S
C888 C889 1.414 . S
C888 C891 1.499 . S
C889 H863 0.950 . S
C889 C888 1.414 . S
C889 C890 1.374 . S
C890 H864 0.950 . S
C890 C886 1.385 . S
C890 C889 1.374 . S
C891 C888 1.499 . S
C891 C892 1.373 . S
C891 C893 1.389 . S
C892 H865 0.950 . S
C892 C878 1.377 . S
C892 C891 1.373 . S
C893 C877 1.377 . S
C893 C891 1.389 . S
C893 C894 1.524 . S
C894 C893 1.524 . S
C894 C895 1.397 . S
C894 C899 1.363 . S
C895 H866 0.950 . S
C895 C894 1.397 . S
C895 C896 1.334 . S
C896 H867 0.950 . S
C896 C895 1.334 . S
C896 C897 1.287 . S
C897 C896 1.287 . S
C897 C898 1.524 . S
C897 H900 0.999 . S
C898 H868 0.950 . S
C898 C897 1.524 . S
C898 C899 1.415 . S
C899 H869 0.950 . S
C899 C894 1.363 . S
C899 C898 1.415 . S
H900 C897 0.999 . S
H901 C882 0.913 . S
H902 C920 0.951 1_554 S
H903 C922 0.951 . S
H904 C924 0.950 . S
H905 C925 0.950 . S
H906 C927 0.950 . S
H907 C930 0.950 . S
H908 C931 0.950 . S
H909 C933 0.950 . S
H910 C934 0.950 . S
H911 C935 0.951 . S
H912 C937 0.951 . S
H913 C939 0.950 . S
H914 C940 0.950 . S
H915 C942 0.950 . S
H916 C945 0.950 . S
H917 C946 0.950 . S
H918 C948 0.950 . S
H919 C949 0.950 . S
C920 H902 0.951 1_556 S
C920 C921 1.366 . S
C920 C922 1.388 . S
C921 C920 1.366 . S
C921 C925 1.385 . S
C922 H903 0.951 . S
C922 C920 1.388 . S
C922 C923 1.366 . S
C923 C922 1.366 . S
C923 C924 1.414 . S
C923 C926 1.499 . S
C924 H904 0.950 . S
C924 C923 1.414 . S
C924 C925 1.374 . S
C925 H905 0.950 . S
C925 C921 1.385 . S
C925 C924 1.374 . S
C926 C923 1.499 . S
C926 C927 1.373 . S
C926 C928 1.389 . S
C927 H906 0.950 . S
C927 C926 1.373 . S
C927 C943 1.377 . S
C928 C926 1.389 . S
C928 C929 1.524 . S
C928 C942 1.377 . S
C929 C928 1.524 . S
C929 C930 1.397 . S
C929 C934 1.363 . S
C930 H907 0.950 . S
C930 C929 1.397 . S
C930 C931 1.334 . S
C931 H908 0.950 . S
C931 C930 1.334 . S
C931 C932 1.287 . S
C932 C931 1.287 . S
C932 C933 1.524 . S
C932 H951 0.913 . S
C933 H909 0.950 . S
C933 C932 1.524 . S
C933 C934 1.415 . S
C934 H910 0.950 . S
C934 C929 1.363 . S
C934 C933 1.415 . S
C935 H911 0.951 . S
C935 C936 1.366 . S
C935 C937 1.388 . S
C936 C935 1.366 . S
C936 C940 1.385 . S
C937 H912 0.951 . S
C937 C935 1.388 . S
C937 C938 1.366 . S
C938 C937 1.366 . S
C938 C939 1.414 . S
C938 C941 1.499 . S
C939 H913 0.950 . S
C939 C938 1.414 . S
C939 C940 1.374 . S
C940 H914 0.950 . S
C940 C936 1.385 . S
C940 C939 1.374 . S
C941 C938 1.499 . S
C941 C942 1.373 . S
C941 C943 1.389 . S
C942 H915 0.950 . S
C942 C928 1.377 . S
C942 C941 1.373 . S
C943 C927 1.377 . S
C943 C941 1.389 . S
C943 C944 1.524 . S
C944 C943 1.524 . S
C944 C945 1.397 . S
C944 C949 1.363 . S
C945 H916 0.950 . S
C945 C944 1.397 . S
C945 C946 1.334 . S
C946 H917 0.950 . S
C946 C945 1.334 . S
C946 C947 1.287 . S
C947 C946 1.287 . S
C947 C948 1.524 . S
C947 H950 0.999 . S
C948 H918 0.950 . S
C948 C947 1.524 . S
C948 C949 1.415 . S
C949 H919 0.950 . S
C949 C944 1.363 . S
C949 C948 1.415 . S
H950 C947 0.999 . S
H951 C932 0.913 . S
H952 C970 0.951 1_655 S
H953 C972 0.951 1_655 S
H954 C974 0.950 . S
H955 C975 0.950 . S
H956 C977 0.950 . S
H957 C980 0.950 1_554 S
H958 C981 0.950 . S
H959 C983 0.950 . S
H960 C984 0.950 . S
H961 C985 0.951 . S
H962 C987 0.951 . S
H963 C989 0.950 1_655 S
H964 C990 0.950 1_655 S
H965 C992 0.950 . S
H966 C995 0.950 . S
H967 C996 0.950 . S
H968 C998 0.950 . S
H969 C999 0.950 . S
C970 H952 0.951 1_455 S
C970 C971 1.366 1_556 S
C970 C972 1.388 . S
C971 C970 1.366 1_554 S
C971 C975 1.385 . S
C972 H953 0.951 1_455 S
C972 C970 1.388 . S
C972 C973 1.366 . S
C973 C972 1.366 . S
C973 C974 1.414 1_556 S
C973 C976 1.499 . S
C974 H954 0.950 . S
C974 C973 1.414 1_554 S
C974 C975 1.374 . S
C975 H955 0.950 . S
C975 C971 1.385 . S
C975 C974 1.374 . S
C976 C973 1.499 . S
C976 C977 1.373 . S
C976 C978 1.389 1_455 S
C977 H956 0.950 . S
C977 C976 1.373 . S
C977 C993 1.377 . S
C978 C976 1.389 1_655 S
C978 C979 1.524 . S
C978 C992 1.377 . S
C979 C978 1.524 . S
C979 C980 1.397 . S
C979 C984 1.363 . S
C980 H957 0.950 1_556 S
C980 C979 1.397 . S
C980 C981 1.334 1_556 S
C981 H958 0.950 . S
C981 C980 1.334 1_554 S
C981 C982 1.287 1_554 S
C982 C981 1.287 1_556 S
C982 C983 1.524 . S
C982 H1001 0.913 . S
C983 H959 0.950 . S
C983 C982 1.524 . S
C983 C984 1.415 . S
C984 H960 0.950 . S
C984 C979 1.363 . S
C984 C983 1.415 . S
C985 H961 0.951 . S
C985 C986 1.366 . S
C985 C987 1.388 . S
C986 C985 1.366 . S
C986 C990 1.385 . S
C987 H962 0.951 . S
C987 C985 1.388 . S
C987 C988 1.366 . S
C988 C987 1.366 . S
C988 C989 1.414 . S
C988 C991 1.499 . S
C989 H963 0.950 1_455 S
C989 C988 1.414 . S
C989 C990 1.374 . S
C990 H964 0.950 1_455 S
C990 C986 1.385 . S
C990 C989 1.374 . S
C991 C988 1.499 . S
C991 C992 1.373 1_455 S
C991 C993 1.389 . S
C992 H965 0.950 . S
C992 C978 1.377 . S
C992 C991 1.373 1_655 S
C993 C977 1.377 . S
C993 C991 1.389 . S
C993 C994 1.524 . S
C994 C993 1.524 . S
C994 C995 1.397 . S
C994 C999 1.363 . S
C995 H966 0.950 . S
C995 C994 1.397 . S
C995 C996 1.334 . S
C996 H967 0.950 . S
C996 C995 1.334 . S
C996 C997 1.287 . S
C997 C996 1.287 . S
C997 C998 1.524 . S
C997 H1000 0.999 . S
C998 H968 0.950 . S
C998 C997 1.524 . S
C998 C999 1.415 . S
C999 H969 0.950 . S
C999 C994 1.363 . S
C999 C998 1.415 . S
H1000 C997 0.999 . S
H1001 C982 0.913 . S
H1002 C1020 0.951 . S
H1003 C1022 0.951 . S
H1004 C1024 0.950 . S
H1005 C1025 0.950 . S
H1006 C1027 0.950 . S
H1007 C1030 0.950 . S
H1008 C1031 0.950 . S
H1009 C1033 0.950 1_565 S
H1010 C1034 0.950 1_565 S
H1011 C1035 0.951 . S
H1012 C1037 0.951 . S
H1013 C1039 0.950 1_565 S
H1014 C1040 0.950 1_565 S
H1015 C1042 0.950 . S
H1016 C1045 0.950 . S
H1017 C1046 0.950 . S
H1018 C1048 0.950 . S
H1019 C1049 0.950 . S
C1020 H1002 0.951 . S
C1020 C1021 1.366 . S
C1020 C1022 1.388 . S
C1021 C1020 1.366 . S
C1021 C1025 1.385 1_554 S
C1022 H1003 0.951 . S
C1022 C1020 1.388 . S
C1022 C1023 1.366 1_554 S
C1023 C1022 1.366 1_556 S
C1023 C1024 1.414 . S
C1023 C1026 1.499 . S
C1024 H1004 0.950 . S
C1024 C1023 1.414 . S
C1024 C1025 1.374 . S
C1025 H1005 0.950 . S
C1025 C1021 1.385 1_556 S
C1025 C1024 1.374 . S
C1026 C1023 1.499 . S
C1026 C1027 1.373 . S
C1026 C1028 1.389 . S
C1027 H1006 0.950 . S
C1027 C1026 1.373 . S
C1027 C1043 1.377 . S
C1028 C1026 1.389 . S
C1028 C1029 1.524 1_556 S
C1028 C1042 1.377 . S
C1029 C1028 1.524 1_554 S
C1029 C1030 1.397 . S
C1029 C1034 1.363 . S
C1030 H1007 0.950 . S
C1030 C1029 1.397 . S
C1030 C1031 1.334 . S
C1031 H1008 0.950 . S
C1031 C1030 1.334 . S
C1031 C1032 1.287 . S
C1032 C1031 1.287 . S
C1032 C1033 1.524 . S
C1032 H1051 0.913 . S
C1033 H1009 0.950 1_545 S
C1033 C1032 1.524 . S
C1033 C1034 1.415 . S
C1034 H1010 0.950 1_545 S
C1034 C1029 1.363 . S
C1034 C1033 1.415 . S
C1035 H1011 0.951 . S
C1035 C1036 1.366 . S
C1035 C1037 1.388 . S
C1036 C1035 1.366 . S
C1036 C1040 1.385 . S
C1037 H1012 0.951 . S
C1037 C1035 1.388 . S
C1037 C1038 1.366 . S
C1038 C1037 1.366 . S
C1038 C1039 1.414 . S
C1038 C1041 1.499 . S
C1039 H1013 0.950 1_545 S
C1039 C1038 1.414 . S
C1039 C1040 1.374 . S
C1040 H1014 0.950 1_545 S
C1040 C1036 1.385 . S
C1040 C1039 1.374 . S
C1041 C1038 1.499 . S
C1041 C1042 1.373 . S
C1041 C1043 1.389 . S
C1042 H1015 0.950 . S
C1042 C1028 1.377 . S
C1042 C1041 1.373 . S
C1043 C1027 1.377 . S
C1043 C1041 1.389 . S
C1043 C1044 1.524 . S
C1044 C1043 1.524 . S
C1044 C1045 1.397 . S
C1044 C1049 1.363 . S
C1045 H1016 0.950 . S
C1045 C1044 1.397 . S
C1045 C1046 1.334 . S
C1046 H1017 0.950 . S
C1046 C1045 1.334 . S
C1046 C1047 1.287 . S
C1047 C1046 1.287 . S
C1047 C1048 1.524 . S
C1047 H1050 0.999 . S
C1048 H1018 0.950 . S
C1048 C1047 1.524 . S
C1048 C1049 1.415 . S
C1049 H1019 0.950 . S
C1049 C1044 1.363 . S
C1049 C1048 1.415 . S
H1050 C1047 0.999 . S
H1051 C1032 0.913 . S
H1052 C1070 0.951 . S
H1053 C1072 0.951 . S
H1054 C1074 0.950 . S
H1055 C1075 0.950 . S
H1056 C1077 0.950 . S
H1057 C1080 0.950 1_554 S
H1058 C1081 0.950 1_554 S
H1059 C1083 0.950 . S
H1060 C1084 0.950 . S
H1061 C1085 0.951 . S
H1062 C1087 0.951 . S
H1063 C1089 0.950 . S
H1064 C1090 0.950 . S
H1065 C1092 0.950 . S
H1066 C1095 0.950 . S
H1067 C1096 0.950 . S
H1068 C1098 0.950 . S
H1069 C1099 0.950 . S
C1070 H1052 0.951 . S
C1070 C1071 1.366 1_556 S
C1070 C1072 1.388 . S
C1071 C1070 1.366 1_554 S
C1071 C1075 1.385 . S
C1072 H1053 0.951 . S
C1072 C1070 1.388 . S
C1072 C1073 1.366 . S
C1073 C1072 1.366 . S
C1073 C1074 1.414 1_556 S
C1073 C1076 1.499 . S
C1074 H1054 0.950 . S
C1074 C1073 1.414 1_554 S
C1074 C1075 1.374 . S
C1075 H1055 0.950 . S
C1075 C1071 1.385 . S
C1075 C1074 1.374 . S
C1076 C1073 1.499 . S
C1076 C1077 1.373 . S
C1076 C1078 1.389 . S
C1077 H1056 0.950 . S
C1077 C1076 1.373 . S
C1077 C1093 1.377 . S
C1078 C1076 1.389 . S
C1078 C1079 1.524 . S
C1078 C1092 1.377 . S
C1079 C1078 1.524 . S
C1079 C1080 1.397 . S
C1079 C1084 1.363 . S
C1080 H1057 0.950 1_556 S
C1080 C1079 1.397 . S
C1080 C1081 1.334 . S
C1081 H1058 0.950 1_556 S
C1081 C1080 1.334 . S
C1081 C1082 1.287 . S
C1082 C1081 1.287 . S
C1082 C1083 1.524 . S
C1082 H1101 0.913 . S
C1083 H1059 0.950 . S
C1083 C1082 1.524 . S
C1083 C1084 1.415 . S
C1084 H1060 0.950 . S
C1084 C1079 1.363 . S
C1084 C1083 1.415 . S
C1085 H1061 0.951 . S
C1085 C1086 1.366 . S
C1085 C1087 1.388 . S
C1086 C1085 1.366 . S
C1086 C1090 1.385 . S
C1087 H1062 0.951 . S
C1087 C1085 1.388 . S
C1087 C1088 1.366 . S
C1088 C1087 1.366 . S
C1088 C1089 1.414 . S
C1088 C1091 1.499 . S
C1089 H1063 0.950 . S
C1089 C1088 1.414 . S
C1089 C1090 1.374 . S
C1090 H1064 0.950 . S
C1090 C1086 1.385 . S
C1090 C1089 1.374 . S
C1091 C1088 1.499 . S
C1091 C1092 1.373 . S
C1091 C1093 1.389 . S
C1092 H1065 0.950 . S
C1092 C1078 1.377 . S
C1092 C1091 1.373 . S
C1093 C1077 1.377 . S
C1093 C1091 1.389 . S
C1093 C1094 1.524 . S
C1094 C1093 1.524 . S
C1094 C1095 1.397 . S
C1094 C1099 1.363 . S
C1095 H1066 0.950 . S
C1095 C1094 1.397 . S
C1095 C1096 1.334 . S
C1096 H1067 0.950 . S
C1096 C1095 1.334 . S
C1096 C1097 1.287 . S
C1097 C1096 1.287 . S
C1097 C1098 1.524 . S
C1097 H1100 0.999 . S
C1098 H1068 0.950 . S
C1098 C1097 1.524 . S
C1098 C1099 1.415 . S
C1099 H1069 0.950 . S
C1099 C1094 1.363 . S
C1099 C1098 1.415 . S
H1100 C1097 0.999 . S
H1101 C1082 0.913 . S
H1102 C1120 0.952 . S
H1103 C1122 0.951 . S
H1104 C1124 0.950 . S
H1105 C1125 0.950 . S
H1106 C1127 0.950 . S
H1107 C1130 0.950 . S
H1108 C1131 0.950 . S
H1109 C1133 0.950 1_556 S
H1110 C1134 0.950 . S
H1111 C1135 0.951 . S
H1112 C1137 0.951 . S
H1113 C1139 0.950 . S
H1114 C1140 0.950 . S
H1115 C1142 0.950 . S
H1116 C1145 0.950 . S
H1117 C1146 0.950 . S
H1118 C1148 0.950 . S
H1119 C1149 0.950 . S
C1120 H1102 0.952 . S
C1120 C1121 1.366 1_556 S
C1120 C1122 1.388 . S
C1121 C1120 1.366 1_554 S
C1121 C1125 1.385 . S
C1122 H1103 0.951 . S
C1122 C1120 1.388 . S
C1122 C1123 1.366 . S
C1123 C1122 1.366 . S
C1123 C1124 1.414 . S
C1123 C1126 1.499 . S
C1124 H1104 0.950 . S
C1124 C1123 1.414 . S
C1124 C1125 1.374 1_556 S
C1125 H1105 0.950 . S
C1125 C1121 1.385 . S
C1125 C1124 1.374 1_554 S
C1126 C1123 1.499 . S
C1126 C1127 1.373 . S
C1126 C1128 1.389 . S
C1127 H1106 0.950 . S
C1127 C1126 1.373 . S
C1127 C1143 1.377 . S
C1128 C1126 1.389 . S
C1128 C1129 1.524 . S
C1128 C1142 1.377 . S
C1129 C1128 1.524 . S
C1129 C1130 1.397 1_556 S
C1129 C1134 1.363 . S
C1130 H1107 0.950 . S
C1130 C1129 1.397 1_554 S
C1130 C1131 1.334 . S
C1131 H1108 0.950 . S
C1131 C1130 1.334 . S
C1131 C1132 1.287 . S
C1132 C1131 1.287 . S
C1132 C1133 1.524 . S
C1132 H1151 0.913 . S
C1133 H1109 0.950 1_554 S
C1133 C1132 1.524 . S
C1133 C1134 1.415 1_554 S
C1134 H1110 0.950 . S
C1134 C1129 1.363 . S
C1134 C1133 1.415 1_556 S
C1135 H1111 0.951 . S
C1135 C1136 1.366 . S
C1135 C1137 1.388 . S
C1136 C1135 1.366 . S
C1136 C1140 1.385 . S
C1137 H1112 0.951 . S
C1137 C1135 1.388 . S
C1137 C1138 1.366 . S
C1138 C1137 1.366 . S
C1138 C1139 1.414 . S
C1138 C1141 1.499 . S
C1139 H1113 0.950 . S
C1139 C1138 1.414 . S
C1139 C1140 1.374 . S
C1140 H1114 0.950 . S
C1140 C1136 1.385 . S
C1140 C1139 1.374 . S
C1141 C1138 1.499 . S
C1141 C1142 1.373 . S
C1141 C1143 1.389 . S
C1142 H1115 0.950 . S
C1142 C1128 1.377 . S
C1142 C1141 1.373 . S
C1143 C1127 1.377 . S
C1143 C1141 1.389 . S
C1143 C1144 1.524 . S
C1144 C1143 1.524 . S
C1144 C1145 1.397 . S
C1144 C1149 1.363 . S
C1145 H1116 0.950 . S
C1145 C1144 1.397 . S
C1145 C1146 1.334 . S
C1146 H1117 0.950 . S
C1146 C1145 1.334 . S
C1146 C1147 1.287 . S
C1147 C1146 1.287 . S
C1147 C1148 1.524 . S
C1147 H1150 0.999 . S
C1148 H1118 0.950 . S
C1148 C1147 1.524 . S
C1148 C1149 1.415 . S
C1149 H1119 0.950 . S
C1149 C1144 1.363 . S
C1149 C1148 1.415 . S
H1150 C1147 0.999 . S
H1151 C1132 0.913 . S
H1152 C1170 0.951 . S
H1153 C1172 0.951 . S
H1154 C1174 0.950 . S
H1155 C1175 0.950 . S
H1156 C1177 0.950 1_455 S
H1157 C1180 0.959 . S
H1158 C1181 0.950 . S
H1159 C1183 0.950 . S
H1160 C1184 0.950 . S
H1161 C1185 0.951 . S
H1162 C1187 0.951 . S
H1163 C1189 0.950 . S
H1164 C1190 0.950 . S
H1165 C1192 0.950 . S
H1166 C1195 0.950 . S
H1167 C1196 0.950 . S
H1168 C1198 0.950 . S
H1169 C1199 0.950 . S
C1170 H1152 0.951 . S
C1170 C1171 1.366 . S
C1170 C1172 1.388 . S
C1171 C1170 1.366 . S
C1171 C1175 1.385 1_655 S
C1172 H1153 0.951 . S
C1172 C1170 1.388 . S
C1172 C1173 1.366 . S
C1173 C1172 1.366 . S
C1173 C1174 1.414 1_655 S
C1173 C1176 1.499 . S
C1174 H1154 0.950 . S
C1174 C1173 1.414 1_455 S
C1174 C1175 1.374 . S
C1175 H1155 0.950 . S
C1175 C1171 1.385 1_455 S
C1175 C1174 1.374 . S
C1176 C1173 1.499 . S
C1176 C1177 1.373 . S
C1176 C1178 1.389 . S
C1177 H1156 0.950 1_655 S
C1177 C1176 1.373 . S
C1177 C1193 1.377 . S
C1178 C1176 1.389 . S
C1178 C1179 1.524 . S
C1178 C1192 1.377 . S
C1179 C1178 1.524 . S
C1179 C1180 1.397 . S
C1179 C1184 1.363 . S
C1180 H1157 0.959 . S
C1180 C1179 1.397 . S
C1180 C1181 1.334 . S
C1181 H1158 0.950 . S
C1181 C1180 1.334 . S
C1181 C1182 1.287 . S
C1182 C1181 1.287 . S
C1182 C1183 1.524 . S
C1182 H1201 0.913 . S
C1183 H1159 0.950 . S
C1183 C1182 1.524 . S
C1183 C1184 1.415 . S
C1184 H1160 0.950 . S
C1184 C1179 1.363 . S
C1184 C1183 1.415 . S
C1185 H1161 0.951 . S
C1185 C1186 1.366 1_455 S
C1185 C1187 1.388 . S
C1186 C1185 1.366 1_655 S
C1186 C1190 1.385 . S
C1187 H1162 0.951 . S
C1187 C1185 1.388 . S
C1187 C1188 1.366 1_455 S
C1188 C1187 1.366 1_655 S
C1188 C1189 1.414 . S
C1188 C1191 1.499 . S
C1189 H1163 0.950 . S
C1189 C1188 1.414 . S
C1189 C1190 1.374 . S
C1190 H1164 0.950 . S
C1190 C1186 1.385 . S
C1190 C1189 1.374 . S
C1191 C1188 1.499 . S
C1191 C1192 1.373 . S
C1191 C1193 1.389 . S
C1192 H1165 0.950 . S
C1192 C1178 1.377 . S
C1192 C1191 1.373 . S
C1193 C1177 1.377 . S
C1193 C1191 1.389 . S
C1193 C1194 1.524 1_655 S
C1194 C1193 1.524 1_455 S
C1194 C1195 1.397 1_455 S
C1194 C1199 1.363 . S
C1195 H1166 0.950 . S
C1195 C1194 1.397 1_655 S
C1195 C1196 1.334 . S
C1196 H1167 0.950 . S
C1196 C1195 1.334 . S
C1196 C1197 1.287 1_655 S
C1197 C1196 1.287 1_455 S
C1197 C1198 1.524 . S
C1197 H1200 0.999 . S
C1198 H1168 0.950 . S
C1198 C1197 1.524 . S
C1198 C1199 1.415 . S
C1199 H1169 0.950 . S
C1199 C1194 1.363 . S
C1199 C1198 1.415 . S
H1200 C1197 0.999 . S
H1201 C1182 0.913 . S
H1202 C1220 0.951 . S
H1203 C1222 0.951 . S
H1204 C1224 0.950 . S
H1205 C1225 0.950 . S
H1206 C1227 0.950 . S
H1207 C1230 0.950 . S
H1208 C1231 0.950 . S
H1209 C1233 0.950 . S
H1210 C1234 0.950 . S
H1211 C1235 0.951 . S
H1212 C1237 0.951 . S
H1213 C1239 0.950 . S
H1214 C1240 0.950 . S
H1215 C1242 0.950 . S
H1216 C1245 0.950 . S
H1217 C1246 0.950 . S
H1218 C1248 0.950 . S
H1219 C1249 0.950 . S
C1220 H1202 0.951 . S
C1220 C1221 1.366 . S
C1220 C1222 1.388 . S
C1221 C1220 1.366 . S
C1221 C1225 1.385 . S
C1222 H1203 0.951 . S
C1222 C1220 1.388 . S
C1222 C1223 1.366 . S
C1223 C1222 1.366 . S
C1223 C1224 1.414 . S
C1223 C1226 1.499 . S
C1224 H1204 0.950 . S
C1224 C1223 1.414 . S
C1224 C1225 1.374 . S
C1225 H1205 0.950 . S
C1225 C1221 1.385 . S
C1225 C1224 1.374 . S
C1226 C1223 1.499 . S
C1226 C1227 1.373 . S
C1226 C1228 1.389 . S
C1227 H1206 0.950 . S
C1227 C1226 1.373 . S
C1227 C1243 1.377 . S
C1228 C1226 1.389 . S
C1228 C1229 1.524 . S
C1228 C1242 1.377 . S
C1229 C1228 1.524 . S
C1229 C1230 1.397 . S
C1229 C1234 1.363 . S
C1230 H1207 0.950 . S
C1230 C1229 1.397 . S
C1230 C1231 1.334 . S
C1231 H1208 0.950 . S
C1231 C1230 1.334 . S
C1231 C1232 1.287 . S
C1232 C1231 1.287 . S
C1232 C1233 1.524 . S
C1232 H1251 0.913 . S
C1233 H1209 0.950 . S
C1233 C1232 1.524 . S
C1233 C1234 1.415 . S
C1234 H1210 0.950 . S
C1234 C1229 1.363 . S
C1234 C1233 1.415 . S
C1235 H1211 0.951 . S
C1235 C1236 1.366 . S
C1235 C1237 1.388 . S
C1236 C1235 1.366 . S
C1236 C1240 1.385 . S
C1237 H1212 0.951 . S
C1237 C1235 1.388 . S
C1237 C1238 1.366 . S
C1238 C1237 1.366 . S
C1238 C1239 1.414 . S
C1238 C1241 1.499 . S
C1239 H1213 0.950 . S
C1239 C1238 1.414 . S
C1239 C1240 1.374 . S
C1240 H1214 0.950 . S
C1240 C1236 1.385 . S
C1240 C1239 1.374 . S
C1241 C1238 1.499 . S
C1241 C1242 1.373 . S
C1241 C1243 1.389 . S
C1242 H1215 0.950 . S
C1242 C1228 1.377 . S
C1242 C1241 1.373 . S
C1243 C1227 1.377 . S
C1243 C1241 1.389 . S
C1243 C1244 1.524 1_565 S
C1244 C1243 1.524 1_545 S
C1244 C1245 1.397 . S
C1244 C1249 1.363 . S
C1245 H1216 0.950 . S
C1245 C1244 1.397 . S
C1245 C1246 1.334 . S
C1246 H1217 0.950 . S
C1246 C1245 1.334 . S
C1246 C1247 1.287 . S
C1247 C1246 1.287 . S
C1247 C1248 1.524 . S
C1247 H1250 0.999 . S
C1248 H1218 0.950 . S
C1248 C1247 1.524 . S
C1248 C1249 1.415 . S
C1249 H1219 0.950 . S
C1249 C1244 1.363 . S
C1249 C1248 1.415 . S
H1250 C1247 0.999 . S
H1251 C1232 0.913 . S
H1252 C1270 0.951 . S
H1253 C1272 0.951 . S
H1254 C1274 0.950 . S
H1255 C1275 0.950 . S
H1256 C1277 0.950 . S
H1257 C1280 0.950 . S
H1258 C1281 0.950 . S
H1259 C1283 0.950 . S
H1260 C1284 0.950 . S
H1261 C1285 0.951 . S
H1262 C1287 0.951 . S
H1263 C1289 0.950 . S
H1264 C1290 0.950 . S
H1265 C1292 0.950 . S
H1266 C1295 0.950 . S
H1267 C1296 0.950 . S
H1268 C1298 0.950 . S
H1269 C1299 0.950 . S
C1270 H1252 0.951 . S
C1270 C1271 1.366 . S
C1270 C1272 1.388 . S
C1271 C1270 1.366 . S
C1271 C1275 1.385 . S
C1272 H1253 0.951 . S
C1272 C1270 1.388 . S
C1272 C1273 1.366 . S
C1273 C1272 1.366 . S
C1273 C1274 1.414 . S
C1273 C1276 1.499 . S
C1274 H1254 0.950 . S
C1274 C1273 1.414 . S
C1274 C1275 1.374 . S
C1275 H1255 0.950 . S
C1275 C1271 1.385 . S
C1275 C1274 1.374 . S
C1276 C1273 1.499 . S
C1276 C1277 1.373 . S
C1276 C1278 1.389 . S
C1277 H1256 0.950 . S
C1277 C1276 1.373 . S
C1277 C1293 1.377 . S
C1278 C1276 1.389 . S
C1278 C1279 1.524 . S
C1278 C1292 1.377 . S
C1279 C1278 1.524 . S
C1279 C1280 1.397 . S
C1279 C1284 1.363 . S
C1280 H1257 0.950 . S
C1280 C1279 1.397 . S
C1280 C1281 1.334 . S
C1281 H1258 0.950 . S
C1281 C1280 1.334 . S
C1281 C1282 1.287 . S
C1282 C1281 1.287 . S
C1282 C1283 1.524 . S
C1282 H1301 0.913 . S
C1283 H1259 0.950 . S
C1283 C1282 1.524 . S
C1283 C1284 1.415 . S
C1284 H1260 0.950 . S
C1284 C1279 1.363 . S
C1284 C1283 1.415 . S
C1285 H1261 0.951 . S
C1285 C1286 1.366 . S
C1285 C1287 1.388 . S
C1286 C1285 1.366 . S
C1286 C1290 1.385 . S
C1287 H1262 0.951 . S
C1287 C1285 1.388 . S
C1287 C1288 1.366 . S
C1288 C1287 1.366 . S
C1288 C1289 1.414 . S
C1288 C1291 1.499 . S
C1289 H1263 0.950 . S
C1289 C1288 1.414 . S
C1289 C1290 1.374 . S
C1290 H1264 0.950 . S
C1290 C1286 1.385 . S
C1290 C1289 1.374 . S
C1291 C1288 1.499 . S
C1291 C1292 1.373 . S
C1291 C1293 1.389 . S
C1292 H1265 0.950 . S
C1292 C1278 1.377 . S
C1292 C1291 1.373 . S
C1293 C1277 1.377 . S
C1293 C1291 1.389 . S
C1293 C1294 1.524 . S
C1294 C1293 1.524 . S
C1294 C1295 1.397 . S
C1294 C1299 1.363 . S
C1295 H1266 0.950 . S
C1295 C1294 1.397 . S
C1295 C1296 1.334 . S
C1296 H1267 0.950 . S
C1296 C1295 1.334 . S
C1296 C1297 1.287 . S
C1297 C1296 1.287 . S
C1297 C1298 1.524 . S
C1297 H1300 0.999 . S
C1298 H1268 0.950 . S
C1298 C1297 1.524 . S
C1298 C1299 1.415 . S
C1299 H1269 0.950 . S
C1299 C1294 1.363 . S
C1299 C1298 1.415 . S
H1300 C1297 0.999 . S
H1301 C1282 0.913 . S
H1302 C1320 0.951 . S
H1303 C1322 0.951 . S
H1304 C1324 0.950 . S
H1305 C1325 0.950 . S
H1306 C1327 0.950 . S
H1307 C1330 0.950 . S
H1308 C1331 0.950 . S
H1309 C1333 0.950 . S
H1310 C1334 0.950 . S
H1311 C1335 0.951 . S
H1312 C1337 0.951 . S
H1313 C1339 0.950 . S
H1314 C1340 0.950 . S
H1315 C1342 0.950 . S
H1316 C1345 0.950 . S
H1317 C1346 0.950 . S
H1318 C1348 0.950 . S
H1319 C1349 0.950 . S
C1320 H1302 0.951 . S
C1320 C1321 1.366 . S
C1320 C1322 1.388 . S
C1321 C1320 1.366 . S
C1321 C1325 1.385 . S
C1322 H1303 0.951 . S
C1322 C1320 1.388 . S
C1322 C1323 1.366 . S
C1323 C1322 1.366 . S
C1323 C1324 1.414 . S
C1323 C1326 1.499 . S
C1324 H1304 0.950 . S
C1324 C1323 1.414 . S
C1324 C1325 1.374 . S
C1325 H1305 0.950 . S
C1325 C1321 1.385 . S
C1325 C1324 1.374 . S
C1326 C1323 1.499 . S
C1326 C1327 1.373 . S
C1326 C1328 1.389 . S
C1327 H1306 0.950 . S
C1327 C1326 1.373 . S
C1327 C1343 1.377 . S
C1328 C1326 1.389 . S
C1328 C1329 1.524 . S
C1328 C1342 1.377 . S
C1329 C1328 1.524 . S
C1329 C1330 1.397 . S
C1329 C1334 1.363 . S
C1330 H1307 0.950 . S
C1330 C1329 1.397 . S
C1330 C1331 1.334 . S
C1331 H1308 0.950 . S
C1331 C1330 1.334 . S
C1331 C1332 1.287 . S
C1332 C1331 1.287 . S
C1332 C1333 1.524 . S
C1332 H1351 0.913 . S
C1333 H1309 0.950 . S
C1333 C1332 1.524 . S
C1333 C1334 1.415 . S
C1334 H1310 0.950 . S
C1334 C1329 1.363 . S
C1334 C1333 1.415 . S
C1335 H1311 0.951 . S
C1335 C1336 1.366 . S
C1335 C1337 1.388 . S
C1336 C1335 1.366 . S
C1336 C1340 1.385 . S
C1337 H1312 0.951 . S
C1337 C1335 1.388 . S
C1337 C1338 1.366 . S
C1338 C1337 1.366 . S
C1338 C1339 1.414 . S
C1338 C1341 1.499 . S
C1339 H1313 0.950 . S
C1339 C1338 1.414 . S
C1339 C1340 1.374 . S
C1340 H1314 0.950 . S
C1340 C1336 1.385 . S
C1340 C1339 1.374 . S
C1341 C1338 1.499 . S
C1341 C1342 1.373 . S
C1341 C1343 1.389 . S
C1342 H1315 0.950 . S
C1342 C1328 1.377 . S
C1342 C1341 1.373 . S
C1343 C1327 1.377 . S
C1343 C1341 1.389 . S
C1343 C1344 1.524 . S
C1344 C1343 1.524 . S
C1344 C1345 1.397 . S
C1344 C1349 1.363 . S
C1345 H1316 0.950 . S
C1345 C1344 1.397 . S
C1345 C1346 1.334 . S
C1346 H1317 0.950 . S
C1346 C1345 1.334 . S
C1346 C1347 1.287 . S
C1347 C1346 1.287 . S
C1347 C1348 1.524 . S
C1347 H1350 0.999 . S
C1348 H1318 0.950 . S
C1348 C1347 1.524 . S
C1348 C1349 1.415 . S
C1349 H1319 0.950 . S
C1349 C1344 1.363 . S
C1349 C1348 1.415 . S
H1350 C1347 0.999 . S
H1351 C1332 0.913 . S
C171 C61 1.395 . S
C186 C90 1.396 . S
C236 C110 1.229 . S
C221 C70 1.232 . S
C286 C130 1.380 . S
C271 C43 1.382 . S
C336 C150 1.321 1_455 S
C321 C52 1.329 . S
C386 C91 1.361 . S
C371 C25 1.359 1_556 S
C421 C34 1.344 . S
C436 C111 1.336 . S
C471 C7 1.426 1_556 S
C486 C131 1.428 . S
C521 C16 1.298 1_556 S
C536 C151 1.293 . S
C586 C81 0.549 . S
C571 C50 0.496 . S
C636 C101 0.571 1_565 S
C621 C59 0.525 . S
C686 C121 0.563 . S
C671 C67 0.508 . S
C721 C41 0.544 . S
C736 C141 0.588 . S
C771 C14 0.482 . S
C786 C84 0.546 . S
C836 C104 0.611 1_545 S
C821 C23 0.577 . S
C886 C124 0.572 . S
C871 C31 0.526 1_556 S
C921 C5 0.478 . S
C936 C144 0.539 . S
C971 C49 1.489 . S
C986 C74 1.455 . S
C1021 C58 1.474 . S
C1036 C94 1.445 . S
C1086 C114 1.463 . S
C1071 C68 1.492 . S
C1136 C134 1.561 . S
C1121 C40 1.591 . S
C1171 C13 1.502 . S
C1186 C76 1.473 . S
C1236 C96 1.457 . S
C1221 C22 1.490 . S
C1286 C116 1.376 . S
C1271 C32 1.405 . S
C1321 C4 1.501 . S
C1336 C136 1.467 . S
