# Generated by pormake.
# Topology ctn, (3,4)-cn, num edge types: 1
# Building blocks:
#     Node 0, Type 0, BuildingBlock: KAKCAD_clean_linker_0, # of connection points: 3
#     Node 1, Type 0, BuildingBlock: KAKCAD_clean_linker_0, # of connection points: 3
#     Node 2, Type 0, BuildingBlock: KAKCAD_clean_linker_0, # of connection points: 3
#     Node 3, Type 0, BuildingBlock: KAKCAD_clean_linker_0, # of connection points: 3
#     Node 4, Type 0, BuildingBlock: KAKCAD_clean_linker_0, # of connection points: 3
#     Node 5, Type 0, BuildingBlock: KAKCAD_clean_linker_0, # of connection points: 3
#     Node 6, Type 0, BuildingBlock: KAKCAD_clean_linker_0, # of connection points: 3
#     Node 7, Type 0, BuildingBlock: KAKCAD_clean_linker_0, # of connection points: 3
#     Node 8, Type 0, BuildingBlock: KAKCAD_clean_linker_0, # of connection points: 3
#     Node 9, Type 0, BuildingBlock: KAKCAD_clean_linker_0, # of connection points: 3
#     Node 10, Type 0, BuildingBlock: KAKCAD_clean_linker_0, # of connection points: 3
#     Node 11, Type 0, BuildingBlock: KAKCAD_clean_linker_0, # of connection points: 3
#     Node 12, Type 0, BuildingBlock: KAKCAD_clean_linker_0, # of connection points: 3
#     Node 13, Type 0, BuildingBlock: KAKCAD_clean_linker_0, # of connection points: 3
#     Node 14, Type 0, BuildingBlock: KAKCAD_clean_linker_0, # of connection points: 3
#     Node 15, Type 0, BuildingBlock: KAKCAD_clean_linker_0, # of connection points: 3
#     Node 16, Type 1, BuildingBlock: TATPOV_clean_sbu_0, # of connection points: 4
#     Node 17, Type 1, BuildingBlock: TATPOV_clean_sbu_0, # of connection points: 4
#     Node 18, Type 1, BuildingBlock: TATPOV_clean_sbu_0, # of connection points: 4
#     Node 19, Type 1, BuildingBlock: TATPOV_clean_sbu_0, # of connection points: 4
#     Node 20, Type 1, BuildingBlock: TATPOV_clean_sbu_0, # of connection points: 4
#     Node 21, Type 1, BuildingBlock: TATPOV_clean_sbu_0, # of connection points: 4
#     Node 22, Type 1, BuildingBlock: TATPOV_clean_sbu_0, # of connection points: 4
#     Node 23, Type 1, BuildingBlock: TATPOV_clean_sbu_0, # of connection points: 4
#     Node 24, Type 1, BuildingBlock: TATPOV_clean_sbu_0, # of connection points: 4
#     Node 25, Type 1, BuildingBlock: TATPOV_clean_sbu_0, # of connection points: 4
#     Node 26, Type 1, BuildingBlock: TATPOV_clean_sbu_0, # of connection points: 4
#     Node 27, Type 1, BuildingBlock: TATPOV_clean_sbu_0, # of connection points: 4
#     Edge 28, Type (0, 1), BuildingBlock: XUDNAN_clean_linker_2, # of connection points: 2
#     Edge 29, Type (0, 1), BuildingBlock: XUDNAN_clean_linker_2, # of connection points: 2
#     Edge 30, Type (0, 1), BuildingBlock: XUDNAN_clean_linker_2, # of connection points: 2
#     Edge 31, Type (0, 1), BuildingBlock: XUDNAN_clean_linker_2, # of connection points: 2
#     Edge 32, Type (0, 1), BuildingBlock: XUDNAN_clean_linker_2, # of connection points: 2
#     Edge 33, Type (0, 1), BuildingBlock: XUDNAN_clean_linker_2, # of connection points: 2
#     Edge 34, Type (0, 1), BuildingBlock: XUDNAN_clean_linker_2, # of connection points: 2
#     Edge 35, Type (0, 1), BuildingBlock: XUDNAN_clean_linker_2, # of connection points: 2
#     Edge 36, Type (0, 1), BuildingBlock: XUDNAN_clean_linker_2, # of connection points: 2
#     Edge 37, Type (0, 1), BuildingBlock: XUDNAN_clean_linker_2, # of connection points: 2
#     Edge 38, Type (0, 1), BuildingBlock: XUDNAN_clean_linker_2, # of connection points: 2
#     Edge 39, Type (0, 1), BuildingBlock: XUDNAN_clean_linker_2, # of connection points: 2
#     Edge 40, Type (0, 1), BuildingBlock: XUDNAN_clean_linker_2, # of connection points: 2
#     Edge 41, Type (0, 1), BuildingBlock: XUDNAN_clean_linker_2, # of connection points: 2
#     Edge 42, Type (0, 1), BuildingBlock: XUDNAN_clean_linker_2, # of connection points: 2
#     Edge 43, Type (0, 1), BuildingBlock: XUDNAN_clean_linker_2, # of connection points: 2
#     Edge 44, Type (0, 1), BuildingBlock: XUDNAN_clean_linker_2, # of connection points: 2
#     Edge 45, Type (0, 1), BuildingBlock: XUDNAN_clean_linker_2, # of connection points: 2
#     Edge 46, Type (0, 1), BuildingBlock: XUDNAN_clean_linker_2, # of connection points: 2
#     Edge 47, Type (0, 1), BuildingBlock: XUDNAN_clean_linker_2, # of connection points: 2
#     Edge 48, Type (0, 1), BuildingBlock: XUDNAN_clean_linker_2, # of connection points: 2
#     Edge 49, Type (0, 1), BuildingBlock: XUDNAN_clean_linker_2, # of connection points: 2
#     Edge 50, Type (0, 1), BuildingBlock: XUDNAN_clean_linker_2, # of connection points: 2
#     Edge 51, Type (0, 1), BuildingBlock: XUDNAN_clean_linker_2, # of connection points: 2
#     Edge 52, Type (0, 1), BuildingBlock: XUDNAN_clean_linker_2, # of connection points: 2
#     Edge 53, Type (0, 1), BuildingBlock: XUDNAN_clean_linker_2, # of connection points: 2
#     Edge 54, Type (0, 1), BuildingBlock: XUDNAN_clean_linker_2, # of connection points: 2
#     Edge 55, Type (0, 1), BuildingBlock: XUDNAN_clean_linker_2, # of connection points: 2
#     Edge 56, Type (0, 1), BuildingBlock: XUDNAN_clean_linker_2, # of connection points: 2
#     Edge 57, Type (0, 1), BuildingBlock: XUDNAN_clean_linker_2, # of connection points: 2
#     Edge 58, Type (0, 1), BuildingBlock: XUDNAN_clean_linker_2, # of connection points: 2
#     Edge 59, Type (0, 1), BuildingBlock: XUDNAN_clean_linker_2, # of connection points: 2
#     Edge 60, Type (0, 1), BuildingBlock: XUDNAN_clean_linker_2, # of connection points: 2
#     Edge 61, Type (0, 1), BuildingBlock: XUDNAN_clean_linker_2, # of connection points: 2
#     Edge 62, Type (0, 1), BuildingBlock: XUDNAN_clean_linker_2, # of connection points: 2
#     Edge 63, Type (0, 1), BuildingBlock: XUDNAN_clean_linker_2, # of connection points: 2
#     Edge 64, Type (0, 1), BuildingBlock: XUDNAN_clean_linker_2, # of connection points: 2
#     Edge 65, Type (0, 1), BuildingBlock: XUDNAN_clean_linker_2, # of connection points: 2
#     Edge 66, Type (0, 1), BuildingBlock: XUDNAN_clean_linker_2, # of connection points: 2
#     Edge 67, Type (0, 1), BuildingBlock: XUDNAN_clean_linker_2, # of connection points: 2
#     Edge 68, Type (0, 1), BuildingBlock: XUDNAN_clean_linker_2, # of connection points: 2
#     Edge 69, Type (0, 1), BuildingBlock: XUDNAN_clean_linker_2, # of connection points: 2
#     Edge 70, Type (0, 1), BuildingBlock: XUDNAN_clean_linker_2, # of connection points: 2
#     Edge 71, Type (0, 1), BuildingBlock: XUDNAN_clean_linker_2, # of connection points: 2
#     Edge 72, Type (0, 1), BuildingBlock: XUDNAN_clean_linker_2, # of connection points: 2
#     Edge 73, Type (0, 1), BuildingBlock: XUDNAN_clean_linker_2, # of connection points: 2
#     Edge 74, Type (0, 1), BuildingBlock: XUDNAN_clean_linker_2, # of connection points: 2
#     Edge 75, Type (0, 1), BuildingBlock: XUDNAN_clean_linker_2, # of connection points: 2
# Relax obj value: 0.003
# Max RMSD: 0.047
# Mean RMSD: 0.020
data_MOF--net-ctn--node1-TATPOV_clean_sbu_0--node2-KAKCAD_clean_linker_0--edge1-XUDNAN_clean_linker_2
_symmetry_space_group_name_H-M    P1
_symmetry_Int_Tables_number       1
_symmetry_cell_setting            triclinic
loop_
_symmetry_equiv_pos_as_xyz
'x, y, z'
_cell_length_a     67.399592
_cell_length_b     67.383727
_cell_length_c     67.321517
_cell_angle_alpha  91.12827
_cell_angle_beta   91.357138
_cell_angle_gamma 91.276815
loop_
_atom_site_label
_atom_site_type_symbol
_atom_site_fract_x
_atom_site_fract_y
_atom_site_fract_z
_atom_type_partial_charge
C0 C 0.03243 0.07039 0.96501 0.0
C1 C 0.0267 0.08977 0.97002 0.0
C2 C 0.03568 0.05639 0.9797 0.0
C3 C 0.03355 0.06139 0.99991 0.0
C4 C 0.02813 0.08087 0.00499 0.0
C5 C 0.02471 0.09487 0.99024 0.0
C6 C 0.03675 0.04624 0.01551 0.0
C7 C 0.0517 0.03214 0.01352 0.0
C8 C 0.05436 0.01729 0.02766 0.0
C9 C 0.04215 0.0169 0.04429 0.0
C10 C 0.02709 0.03086 0.04667 0.0
C11 C 0.02451 0.04541 0.03214 0.0
C12 C 0.01383 0.03012 0.06411 0.0
C13 C 0.00678 0.01186 0.07132 0.0
C14 C 0.008 0.04774 0.07362 0.0
C15 C 0.99553 0.04714 0.08991 0.0
C16 C 0.98861 0.02891 0.09725 0.0
C17 C 0.0693 0.00167 0.02446 0.0
C18 C 0.07065 0.99232 0.00571 0.0
C19 C 0.08195 0.99566 0.04003 0.0
C20 C 0.09555 0.98052 0.03692 0.0
C21 C 0.09654 0.9709 0.01826 0.0
C22 C 0.08404 0.97709 0.00267 0.0
C23 C 0.99433 0.01127 0.08768 0.0
H24 H 0.03446 0.06596 0.94966 0.0
H25 H 0.03958 0.04151 0.97513 0.0
H26 H 0.02658 0.08537 0.0204 0.0
H27 H 0.02017 0.10957 0.9947 0.0
H28 H 0.06147 0.03276 0.00099 0.0
H29 H 0.01249 0.05571 0.03345 0.0
H30 H 0.04422 0.00554 0.05527 0.0
H31 H 0.01073 0.998 0.06421 0.0
H32 H 0.01325 0.06206 0.06862 0.0
H33 H 0.99122 0.06106 0.09669 0.0
H34 H 0.06101 0.99647 0.99345 0.0
H35 H 0.08135 0.00269 0.05461 0.0
H36 H 0.98944 0.99695 0.093 0.0
H37 H 0.08458 0.97009 0.98807 0.0
H38 H 0.10493 0.976 0.04923 0.0
C39 C 0.33204 0.74576 0.25028 0.0
C40 C 0.34494 0.73064 0.2559 0.0
C41 C 0.31275 0.74119 0.24332 0.0
C42 C 0.30588 0.72135 0.24173 0.0
C43 C 0.31867 0.70623 0.24774 0.0
C44 C 0.33797 0.71084 0.25481 0.0
C45 C 0.28556 0.71654 0.23354 0.0
C46 C 0.27794 0.72688 0.21717 0.0
C47 C 0.25873 0.72261 0.20925 0.0
C48 C 0.24723 0.70762 0.21806 0.0
C49 C 0.2549 0.6965 0.23378 0.0
C50 C 0.27393 0.7013 0.24165 0.0
C51 C 0.24362 0.67889 0.24085 0.0
C52 C 0.22294 0.67937 0.24315 0.0
C53 C 0.25338 0.66097 0.24402 0.0
C54 C 0.24271 0.64386 0.24899 0.0
C55 C 0.22199 0.64422 0.25093 0.0
C56 C 0.25122 0.73283 0.19107 0.0
C57 C 0.25742 0.75237 0.18683 0.0
C58 C 0.23828 0.72281 0.17733 0.0
C59 C 0.23205 0.73183 0.15986 0.0
C60 C 0.23914 0.7509 0.15505 0.0
C61 C 0.25169 0.76117 0.16897 0.0
C62 C 0.21224 0.66222 0.24812 0.0
H63 H 0.33685 0.7612 0.25128 0.0
H64 H 0.3032 0.75323 0.23923 0.0
H65 H 0.31397 0.69078 0.2465 0.0
H66 H 0.34762 0.69886 0.25887 0.0
H67 H 0.28738 0.73773 0.21014 0.0
H68 H 0.27965 0.69317 0.2542 0.0
H69 H 0.23244 0.70406 0.21229 0.0
H70 H 0.21501 0.693 0.24102 0.0
H71 H 0.26922 0.65997 0.24198 0.0
H72 H 0.25065 0.63019 0.25072 0.0
H73 H 0.26696 0.76088 0.19714 0.0
H74 H 0.2333 0.70767 0.17961 0.0
H75 H 0.19634 0.66304 0.24978 0.0
H76 H 0.25767 0.7758 0.16591 0.0
H77 H 0.22191 0.72355 0.14993 0.0
C78 C 0.99192 0.47526 0.11559 0.0
C79 C 0.01193 0.4703 0.11816 0.0
C80 C 0.98266 0.47388 0.09685 0.0
C81 C 0.99319 0.46745 0.08024 0.0
C82 C 0.01349 0.46341 0.08264 0.0
C83 C 0.02281 0.4649 0.10143 0.0
C84 C 0.98251 0.46364 0.06093 0.0
C85 C 0.96825 0.47693 0.05409 0.0
C86 C 0.95655 0.47253 0.03693 0.0
C87 C 0.95946 0.45451 0.02657 0.0
C88 C 0.97417 0.44131 0.03274 0.0
C89 C 0.98563 0.44607 0.04998 0.0
C90 C 0.97746 0.42257 0.02121 0.0
C91 C 0.98247 0.40497 0.03088 0.0
C92 C 0.9757 0.42217 0.00035 0.0
C93 C 0.97879 0.4047 0.98947 0.0
C94 C 0.98408 0.38716 0.99908 0.0
C95 C 0.94139 0.48672 0.02978 0.0
C96 C 0.9306 0.49823 0.04327 0.0
C97 C 0.93771 0.48902 0.00932 0.0
C98 C 0.9237 0.50241 0.00254 0.0
C99 C 0.91322 0.51425 0.01598 0.0
C100 C 0.91682 0.51192 0.03646 0.0
C101 C 0.98586 0.38754 0.01996 0.0
H102 H 0.98323 0.47964 0.12822 0.0
H103 H 0.96698 0.47697 0.09556 0.0
H104 H 0.02205 0.45866 0.07006 0.0
H105 H 0.03824 0.46093 0.10302 0.0
H106 H 0.96644 0.49084 0.06212 0.0
H107 H 0.99683 0.43596 0.05509 0.0
H108 H 0.94994 0.45053 0.01388 0.0
H109 H 0.98366 0.40455 0.04693 0.0
H110 H 0.97212 0.43544 0.99232 0.0
H111 H 0.97688 0.40498 0.97347 0.0
H112 H 0.93271 0.49667 0.05915 0.0
H113 H 0.94584 0.48067 0.99842 0.0
H114 H 0.9901 0.37443 0.02792 0.0
H115 H 0.90922 0.52085 0.04731 0.0
H116 H 0.92108 0.50338 0.98666 0.0
C117 C 0.73758 0.72646 0.15655 0.0
C118 C 0.7579 0.72536 0.15251 0.0
C119 C 0.73081 0.74042 0.17026 0.0
C120 C 0.74417 0.75363 0.18039 0.0
C121 C 0.76452 0.75249 0.17644 0.0
C122 C 0.7713 0.73852 0.16267 0.0
C123 C 0.73675 0.76871 0.19472 0.0
C124 C 0.72126 0.76374 0.2075 0.0
C125 C 0.71306 0.77809 0.22017 0.0
C126 C 0.72083 0.79765 0.22004 0.0
C127 C 0.73672 0.80275 0.20783 0.0
C128 C 0.74463 0.78822 0.19527 0.0
C129 C 0.74478 0.82341 0.208 0.0
C130 C 0.73211 0.83929 0.20472 0.0
C131 C 0.76505 0.8274 0.21191 0.0
C132 C 0.77237 0.84702 0.21333 0.0
C133 C 0.75961 0.86306 0.21053 0.0
C134 C 0.69634 0.77262 0.23334 0.0
C135 C 0.68151 0.75876 0.22684 0.0
C136 C 0.69503 0.78115 0.25252 0.0
C137 C 0.67928 0.77607 0.26476 0.0
C138 C 0.6646 0.76214 0.25824 0.0
C139 C 0.66592 0.75349 0.23919 0.0
C140 C 0.73946 0.85885 0.20573 0.0
H141 H 0.72686 0.71641 0.1492 0.0
H142 H 0.71501 0.74104 0.17272 0.0
H143 H 0.77524 0.76231 0.18408 0.0
H144 H 0.78703 0.73825 0.15977 0.0
H145 H 0.71576 0.74852 0.20775 0.0
H146 H 0.75643 0.79237 0.18541 0.0
H147 H 0.71454 0.80903 0.22942 0.0
H148 H 0.71647 0.83656 0.20136 0.0
H149 H 0.77511 0.81535 0.21454 0.0
H150 H 0.78789 0.84956 0.21729 0.0
H151 H 0.68171 0.75216 0.21205 0.0
H152 H 0.7063 0.7916 0.25821 0.0
H153 H 0.72923 0.87068 0.20289 0.0
H154 H 0.65465 0.74296 0.23364 0.0
H155 H 0.67872 0.78285 0.27945 0.0
C156 C 0.98082 0.97121 0.40195 0.0
C157 C 0.98999 0.97698 0.38435 0.0
C158 C 0.99204 0.96833 0.41931 0.0
C159 C 0.01282 0.97081 0.41952 0.0
C160 C 0.02204 0.97655 0.40192 0.0
C161 C 0.01076 0.97969 0.38459 0.0
C162 C 0.02478 0.96712 0.43795 0.0
C163 C 0.01921 0.95178 0.45066 0.0
C164 C 0.03011 0.94828 0.4682 0.0
C165 C 0.04721 0.95987 0.47278 0.0
C166 C 0.05307 0.97541 0.46038 0.0
C167 C 0.04164 0.97898 0.44307 0.0
C168 C 0.07089 0.98813 0.46563 0.0
C169 C 0.07553 0.99344 0.48555 0.0
C170 C 0.08336 0.99518 0.45074 0.0
C171 C 0.09992 0.0073 0.45561 0.0
C172 C 0.10465 0.0125 0.47554 0.0
C173 C 0.02312 0.93283 0.48194 0.0
C174 C 0.0031 0.93199 0.4872 0.0
C175 C 0.03614 0.91876 0.48966 0.0
C176 C 0.02909 0.90376 0.50193 0.0
C177 C 0.00892 0.90266 0.50684 0.0
C178 C 0.9961 0.91717 0.49958 0.0
C179 C 0.09225 0.00535 0.49044 0.0
H180 H 0.96492 0.96865 0.40234 0.0
H181 H 0.98434 0.96425 0.4326 0.0
H182 H 0.03802 0.97838 0.40143 0.0
H183 H 0.01835 0.98438 0.37144 0.0
H184 H 0.00646 0.94228 0.44682 0.0
H185 H 0.04556 0.99137 0.43382 0.0
H186 H 0.05578 0.95688 0.48616 0.0
H187 H 0.06614 0.98857 0.49743 0.0
H188 H 0.08045 0.99123 0.43526 0.0
H189 H 0.10889 0.01275 0.44366 0.0
H190 H 0.99282 0.94289 0.48177 0.0
H191 H 0.05165 0.91905 0.48576 0.0
H192 H 0.09552 0.00878 0.50597 0.0
H193 H 0.9806 0.91712 0.50345 0.0
H194 H 0.03934 0.89273 0.50712 0.0
C195 C 0.16251 0.74108 0.73425 0.0
C196 C 0.16397 0.74238 0.71352 0.0
C197 C 0.17936 0.738 0.74615 0.0
C198 C 0.19807 0.73609 0.73762 0.0
C199 C 0.19947 0.73672 0.71685 0.0
C200 C 0.1826 0.73992 0.70492 0.0
C201 C 0.21617 0.73463 0.75048 0.0
C202 C 0.23064 0.72055 0.74636 0.0
C203 C 0.24769 0.71917 0.75869 0.0
C204 C 0.25043 0.73264 0.77485 0.0
C205 C 0.23597 0.74671 0.7794 0.0
C206 C 0.21884 0.74738 0.76711 0.0
C207 C 0.23823 0.76015 0.79732 0.0
C208 C 0.24803 0.75386 0.81469 0.0
C209 C 0.22987 0.77913 0.79754 0.0
C210 C 0.2304 0.79097 0.81483 0.0
C211 C 0.23988 0.78453 0.83232 0.0
C212 C 0.26202 0.70294 0.75547 0.0
C213 C 0.26996 0.69279 0.77178 0.0
C214 C 0.26723 0.69686 0.7362 0.0
C215 C 0.27971 0.68075 0.73333 0.0
C216 C 0.28724 0.67033 0.74965 0.0
C217 C 0.28243 0.67675 0.76891 0.0
C218 C 0.24911 0.76597 0.8318 0.0
H219 H 0.14843 0.74307 0.74137 0.0
H220 H 0.17779 0.73735 0.76211 0.0
H221 H 0.21372 0.73537 0.70988 0.0
H222 H 0.18416 0.74061 0.68897 0.0
H223 H 0.22818 0.71016 0.73401 0.0
H224 H 0.20734 0.7578 0.77049 0.0
H225 H 0.26393 0.73215 0.78383 0.0
H226 H 0.25452 0.73933 0.81537 0.0
H227 H 0.22267 0.78489 0.7844 0.0
H228 H 0.22291 0.805 0.81447 0.0
H229 H 0.26612 0.69687 0.78682 0.0
H230 H 0.26155 0.70446 0.72331 0.0
H231 H 0.25711 0.76058 0.84465 0.0
H232 H 0.28818 0.66926 0.78185 0.0
H233 H 0.28302 0.67614 0.71829 0.0
C234 C 0.98463 0.61106 0.51307 0.0
C235 C 0.98164 0.60925 0.53349 0.0
C236 C 0.97934 0.59544 0.49992 0.0
C237 C 0.97131 0.57751 0.50699 0.0
C238 C 0.96846 0.57578 0.52755 0.0
C239 C 0.97337 0.59158 0.54063 0.0
C240 C 0.96637 0.56057 0.49304 0.0
C241 C 0.97821 0.55692 0.4765 0.0
C242 C 0.97414 0.54066 0.46361 0.0
C243 C 0.95808 0.52779 0.46736 0.0
C244 C 0.94612 0.53109 0.48385 0.0
C245 C 0.95022 0.54759 0.49648 0.0
C246 C 0.93017 0.51657 0.48858 0.0
C247 C 0.9167 0.50934 0.47376 0.0
C248 C 0.929 0.5091 0.50786 0.0
C249 C 0.91513 0.49418 0.51207 0.0
C250 C 0.90199 0.48659 0.49715 0.0
C251 C 0.98738 0.53668 0.44682 0.0
C252 C 0.99295 0.55202 0.43414 0.0
C253 C 0.99516 0.51773 0.44388 0.0
C254 C 0.0086 0.51428 0.42878 0.0
C255 C 0.01438 0.52967 0.41615 0.0
C256 C 0.00621 0.54853 0.4189 0.0
C257 C 0.90262 0.49457 0.47805 0.0
H258 H 0.99073 0.62471 0.50723 0.0
H259 H 0.98137 0.59754 0.48419 0.0
H260 H 0.96272 0.56213 0.53366 0.0
H261 H 0.97101 0.5899 0.55638 0.0
H262 H 0.99116 0.56628 0.47401 0.0
H263 H 0.94071 0.55029 0.50894 0.0
H264 H 0.95513 0.51497 0.45767 0.0
H265 H 0.91723 0.51495 0.45881 0.0
H266 H 0.93929 0.51431 0.51953 0.0
H267 H 0.91486 0.48833 0.52694 0.0
H268 H 0.98699 0.56672 0.436 0.0
H269 H 0.99131 0.50572 0.45363 0.0
H270 H 0.89271 0.48888 0.46627 0.0
H271 H 0.00999 0.56062 0.40922 0.0
H272 H 0.01481 0.49966 0.42734 0.0
C273 C 0.82198 0.78383 0.88783 0.0
C274 C 0.80309 0.7746 0.88823 0.0
C275 C 0.82642 0.79753 0.87315 0.0
C276 C 0.81198 0.80243 0.85879 0.0
C277 C 0.79304 0.79334 0.85935 0.0
C278 C 0.78867 0.77951 0.87387 0.0
C279 C 0.8166 0.81687 0.84314 0.0
C280 C 0.83403 0.8153 0.83222 0.0
C281 C 0.83794 0.82832 0.81663 0.0
C282 C 0.82448 0.84348 0.81257 0.0
C283 C 0.80694 0.84502 0.82322 0.0
C284 C 0.80308 0.83169 0.83844 0.0
C285 C 0.79201 0.85979 0.81773 0.0
C286 C 0.79705 0.88008 0.81751 0.0
C287 C 0.77253 0.85354 0.81266 0.0
C288 C 0.75829 0.86733 0.80742 0.0
C289 C 0.76309 0.88778 0.80753 0.0
C290 C 0.85501 0.82493 0.80346 0.0
C291 C 0.8735 0.81904 0.8112 0.0
C292 C 0.85249 0.82646 0.78276 0.0
C293 C 0.86786 0.82179 0.77011 0.0
C294 C 0.88614 0.81533 0.77777 0.0
C295 C 0.88893 0.81433 0.79848 0.0
C296 C 0.78269 0.89397 0.81266 0.0
H297 H 0.83343 0.78018 0.89862 0.0
H298 H 0.84111 0.80441 0.8731 0.0
H299 H 0.78168 0.7967 0.84834 0.0
H300 H 0.77396 0.7727 0.8739 0.0
H301 H 0.84399 0.80325 0.8352 0.0
H302 H 0.78952 0.83294 0.84669 0.0
H303 H 0.82727 0.85369 0.80066 0.0
H304 H 0.812 0.88521 0.82148 0.0
H305 H 0.76841 0.8379 0.81248 0.0
H306 H 0.74357 0.86187 0.80307 0.0
H307 H 0.87597 0.81788 0.82709 0.0
H308 H 0.8384 0.83067 0.77623 0.0
H309 H 0.78693 0.90957 0.81325 0.0
H310 H 0.90282 0.80935 0.80483 0.0
H311 H 0.86533 0.82304 0.75424 0.0
C312 C 0.32452 0.26347 0.38514 0.0
C313 C 0.30498 0.25678 0.38832 0.0
C314 C 0.32859 0.27627 0.36955 0.0
C315 C 0.31312 0.28284 0.35715 0.0
C316 C 0.29355 0.27644 0.36064 0.0
C317 C 0.28954 0.26347 0.37599 0.0
C318 C 0.31719 0.29583 0.34016 0.0
C319 C 0.33165 0.2908 0.32637 0.0
C320 C 0.33401 0.30194 0.30914 0.0
C321 C 0.3218 0.31823 0.30582 0.0
C322 C 0.30723 0.32347 0.31945 0.0
C323 C 0.30537 0.31236 0.33679 0.0
C324 C 0.29298 0.33944 0.31485 0.0
C325 C 0.29896 0.35643 0.30453 0.0
C326 C 0.27298 0.33741 0.32014 0.0
C327 C 0.25935 0.35191 0.31526 0.0
C328 C 0.26519 0.36868 0.30454 0.0
C329 C 0.34768 0.29549 0.29349 0.0
C330 C 0.36029 0.30933 0.28445 0.0
C331 C 0.34683 0.27579 0.28625 0.0
C332 C 0.35758 0.27029 0.26961 0.0
C333 C 0.36956 0.28433 0.26007 0.0
C334 C 0.37127 0.30376 0.26796 0.0
C335 C 0.28521 0.3708 0.29932 0.0
H336 H 0.33669 0.25839 0.39438 0.0
H337 H 0.34379 0.28104 0.36718 0.0
H338 H 0.28137 0.28111 0.35117 0.0
H339 H 0.27434 0.25858 0.37819 0.0
H340 H 0.34056 0.27781 0.32868 0.0
H341 H 0.29446 0.31634 0.34765 0.0
H342 H 0.32292 0.32608 0.29198 0.0
H343 H 0.31426 0.35864 0.3004 0.0
H344 H 0.26764 0.32441 0.32775 0.0
H345 H 0.2442 0.3499 0.31994 0.0
H346 H 0.36124 0.32459 0.28982 0.0
H347 H 0.3371 0.26487 0.29284 0.0
H348 H 0.29026 0.38339 0.2909 0.0
H349 H 0.38031 0.31488 0.2608 0.0
H350 H 0.3561 0.2552 0.26384 0.0
C351 C 0.49887 0.96062 0.61171 0.0
C352 C 0.51949 0.96019 0.6092 0.0
C353 C 0.48581 0.95541 0.59594 0.0
C354 C 0.49316 0.94936 0.5775 0.0
C355 C 0.51378 0.94872 0.57505 0.0
C356 C 0.52684 0.95424 0.59072 0.0
C357 C 0.47938 0.94417 0.56066 0.0
C358 C 0.46444 0.95726 0.55516 0.0
C359 C 0.45184 0.95303 0.53862 0.0
C360 C 0.45437 0.93528 0.52767 0.0
C361 C 0.46927 0.92189 0.53299 0.0
C362 C 0.48161 0.9265 0.54966 0.0
C363 C 0.47238 0.90354 0.52073 0.0
C364 C 0.45626 0.89335 0.51114 0.0
C365 C 0.49164 0.89637 0.51803 0.0
C366 C 0.49467 0.87964 0.50597 0.0
C367 C 0.47861 0.86997 0.49602 0.0
C368 C 0.43677 0.96761 0.53225 0.0
C369 C 0.42635 0.97873 0.54636 0.0
C370 C 0.43311 0.97099 0.51197 0.0
C371 C 0.41961 0.98521 0.50595 0.0
C372 C 0.4096 0.99672 0.52003 0.0
C373 C 0.41301 0.99316 0.54032 0.0
C374 C 0.45938 0.8769 0.49872 0.0
H375 H 0.49286 0.96525 0.62581 0.0
H376 H 0.46997 0.95598 0.59818 0.0
H377 H 0.51979 0.94425 0.56091 0.0
H378 H 0.54268 0.95367 0.58847 0.0
H379 H 0.46321 0.97118 0.56333 0.0
H380 H 0.49292 0.91628 0.55431 0.0
H381 H 0.44489 0.93205 0.51476 0.0
H382 H 0.44117 0.89806 0.51316 0.0
H383 H 0.50452 0.90395 0.52474 0.0
H384 H 0.50967 0.87465 0.50388 0.0
H385 H 0.42856 0.97635 0.56211 0.0
H386 H 0.44099 0.96296 0.50064 0.0
H387 H 0.44676 0.86955 0.49121 0.0
H388 H 0.40569 0.0018 0.55161 0.0
H389 H 0.41708 0.98719 0.49018 0.0
C390 C 0.21586 0.21517 0.65869 0.0
C391 C 0.23488 0.21025 0.65239 0.0
C392 C 0.21331 0.2312 0.67177 0.0
C393 C 0.22975 0.24258 0.67912 0.0
C394 C 0.24878 0.2378 0.67256 0.0
C395 C 0.25129 0.22188 0.65924 0.0
C396 C 0.22703 0.25901 0.69391 0.0
C397 C 0.21277 0.25707 0.70872 0.0
C398 C 0.20996 0.27236 0.72275 0.0
C399 C 0.22174 0.28977 0.7221 0.0
C400 C 0.23604 0.29212 0.70737 0.0
C401 C 0.23857 0.27665 0.69336 0.0
C402 C 0.24814 0.31082 0.70648 0.0
C403 C 0.23931 0.32934 0.7092 0.0
C404 C 0.26862 0.31029 0.70299 0.0
C405 C 0.28004 0.32787 0.70252 0.0
C406 C 0.27125 0.34641 0.70547 0.0
C407 C 0.19449 0.27009 0.73791 0.0
C408 C 0.17511 0.26394 0.73215 0.0
C409 C 0.19899 0.27374 0.75817 0.0
C410 C 0.18442 0.271 0.77241 0.0
C411 C 0.16501 0.26491 0.76661 0.0
C412 C 0.16049 0.26152 0.74633 0.0
C413 C 0.2507 0.34691 0.70867 0.0
H414 H 0.2029 0.20667 0.65337 0.0
H415 H 0.19839 0.2347 0.67607 0.0
H416 H 0.26181 0.24604 0.67806 0.0
H417 H 0.26614 0.21833 0.65471 0.0
H418 H 0.20405 0.24343 0.70967 0.0
H419 H 0.24919 0.2786 0.68169 0.0
H420 H 0.21967 0.30154 0.73301 0.0
H421 H 0.22352 0.33029 0.71156 0.0
H422 H 0.27591 0.29625 0.70105 0.0
H423 H 0.29585 0.32689 0.70032 0.0
H424 H 0.17123 0.26114 0.71663 0.0
H425 H 0.21384 0.27839 0.763 0.0
H426 H 0.24336 0.36092 0.71064 0.0
H427 H 0.14569 0.25671 0.74146 0.0
H428 H 0.18826 0.27383 0.78794 0.0
C429 C 0.84517 0.23884 0.75996 0.0
C430 C 0.85329 0.22153 0.76793 0.0
C431 C 0.82654 0.23825 0.75025 0.0
C432 C 0.81565 0.22026 0.74782 0.0
C433 C 0.82398 0.20293 0.75548 0.0
C434 C 0.84228 0.20361 0.76563 0.0
C435 C 0.7958 0.21933 0.73731 0.0
C436 C 0.79135 0.23202 0.72151 0.0
C437 C 0.77301 0.23038 0.71109 0.0
C438 C 0.75925 0.21546 0.71619 0.0
C439 C 0.76333 0.20263 0.73189 0.0
C440 C 0.78134 0.20517 0.74271 0.0
C441 C 0.7492 0.18615 0.73669 0.0
C442 C 0.7285 0.18846 0.73511 0.0
C443 C 0.75645 0.16774 0.74279 0.0
C444 C 0.74344 0.15231 0.74767 0.0
C445 C 0.72285 0.15472 0.74622 0.0
C446 C 0.76831 0.24403 0.69462 0.0
C447 C 0.77234 0.26453 0.69675 0.0
C448 C 0.75949 0.23667 0.67675 0.0
C449 C 0.75485 0.24951 0.66135 0.0
C450 C 0.75885 0.27001 0.66347 0.0
C451 C 0.76759 0.2774 0.68137 0.0
C452 C 0.71545 0.17283 0.73967 0.0
H453 H 0.8532 0.25291 0.76102 0.0
H454 H 0.82066 0.252 0.74483 0.0
H455 H 0.81647 0.18863 0.75356 0.0
H456 H 0.84762 0.18997 0.77182 0.0
H457 H 0.80233 0.2428 0.7168 0.0
H458 H 0.78403 0.19605 0.7555 0.0
H459 H 0.74538 0.21379 0.70781 0.0
H460 H 0.72233 0.20244 0.73068 0.0
H461 H 0.77224 0.16513 0.74366 0.0
H462 H 0.74949 0.13836 0.75241 0.0
H463 H 0.77898 0.27066 0.71041 0.0
H464 H 0.75636 0.22093 0.67457 0.0
H465 H 0.69959 0.17503 0.73855 0.0
H466 H 0.77107 0.29309 0.68337 0.0
H467 H 0.748 0.24336 0.6478 0.0
C468 C 0.53191 0.58444 0.46733 0.0
C469 C 0.52118 0.6012 0.47283 0.0
C470 C 0.5363 0.56988 0.48123 0.0
C471 C 0.53041 0.57194 0.50111 0.0
C472 C 0.51984 0.58894 0.50657 0.0
C473 C 0.51513 0.60327 0.49256 0.0
C474 C 0.53538 0.55656 0.51611 0.0
C475 C 0.55325 0.54615 0.51504 0.0
C476 C 0.55815 0.53183 0.52914 0.0
C477 C 0.54509 0.5281 0.54464 0.0
C478 C 0.52714 0.53821 0.54607 0.0
C479 C 0.52237 0.5523 0.53166 0.0
C480 C 0.51355 0.53408 0.56277 0.0
C481 C 0.51062 0.51458 0.56938 0.0
C482 C 0.50397 0.54961 0.57269 0.0
C483 C 0.49221 0.54578 0.58913 0.0
C484 C 0.48982 0.52635 0.59609 0.0
C485 C 0.57692 0.5207 0.52772 0.0
C486 C 0.5827 0.51245 0.50946 0.0
C487 C 0.58894 0.51784 0.54473 0.0
C488 C 0.60628 0.5069 0.54353 0.0
C489 C 0.61196 0.49843 0.52533 0.0
C490 C 0.59997 0.50135 0.5083 0.0
C491 C 0.49896 0.51078 0.58584 0.0
H492 H 0.53658 0.5824 0.45215 0.0
H493 H 0.54408 0.55689 0.47625 0.0
H494 H 0.5154 0.59139 0.52175 0.0
H495 H 0.50701 0.61618 0.49724 0.0
H496 H 0.56372 0.54951 0.50355 0.0
H497 H 0.50826 0.55963 0.53236 0.0
H498 H 0.54896 0.51725 0.55566 0.0
H499 H 0.51739 0.50219 0.56185 0.0
H500 H 0.50604 0.56483 0.56814 0.0
H501 H 0.4855 0.55813 0.59679 0.0
H502 H 0.57367 0.51427 0.49613 0.0
H503 H 0.58498 0.52413 0.55898 0.0
H504 H 0.4971 0.49559 0.59055 0.0
H505 H 0.60402 0.49516 0.49403 0.0
H506 H 0.61509 0.50479 0.55696 0.0
C507 C 0.47842 0.47182 0.91359 0.0
C508 C 0.48412 0.47532 0.89397 0.0
C509 C 0.4925 0.47185 0.9291 0.0
C510 C 0.51265 0.47559 0.92549 0.0
C511 C 0.51836 0.47993 0.90606 0.0
C512 C 0.50422 0.47974 0.89042 0.0
C513 C 0.52751 0.47436 0.94204 0.0
C514 C 0.5267 0.4582 0.9549 0.0
C515 C 0.53958 0.45724 0.97159 0.0
C516 C 0.55371 0.47269 0.97494 0.0
C517 C 0.55517 0.48875 0.96195 0.0
C518 C 0.54196 0.48945 0.94548 0.0
C519 C 0.57067 0.50459 0.96566 0.0
C520 C 0.57559 0.51117 0.98515 0.0
C521 C 0.58133 0.51256 0.94987 0.0
C522 C 0.59696 0.52624 0.95355 0.0
C523 C 0.60241 0.53219 0.97313 0.0
C524 C 0.53805 0.44035 0.98565 0.0
C525 C 0.51963 0.43087 0.98896 0.0
C526 C 0.55488 0.43369 0.99613 0.0
C527 C 0.55326 0.41839 0.00978 0.0
C528 C 0.53487 0.4088 0.01296 0.0
C529 C 0.51813 0.41516 0.00211 0.0
C530 C 0.59132 0.52467 0.98885 0.0
H531 H 0.46302 0.46895 0.91701 0.0
H532 H 0.48761 0.46889 0.94399 0.0
H533 H 0.53382 0.48285 0.90288 0.0
H534 H 0.50912 0.48245 0.87549 0.0
H535 H 0.51606 0.44623 0.95164 0.0
H536 H 0.54249 0.50202 0.93571 0.0
H537 H 0.56368 0.4723 0.98775 0.0
H538 H 0.56745 0.50567 0.99766 0.0
H539 H 0.57801 0.50778 0.93467 0.0
H540 H 0.60489 0.53199 0.94103 0.0
H541 H 0.50618 0.43565 0.98157 0.0
H542 H 0.56945 0.44017 0.99382 0.0
H543 H 0.59513 0.52873 0.00413 0.0
H544 H 0.50374 0.40799 0.00358 0.0
H545 H 0.56652 0.4143 0.01795 0.0
C546 C 0.65592 0.2186 0.2323 0.0
C547 C 0.64852 0.23664 0.22547 0.0
C548 C 0.67399 0.21821 0.24293 0.0
C549 C 0.68485 0.23589 0.24714 0.0
C550 C 0.67757 0.25388 0.24009 0.0
C551 C 0.65965 0.25424 0.22928 0.0
C552 C 0.70341 0.23577 0.25942 0.0
C553 C 0.71816 0.22195 0.25556 0.0
C554 C 0.73583 0.22206 0.26707 0.0
C555 C 0.73863 0.23628 0.28254 0.0
C556 C 0.72372 0.24988 0.28706 0.0
C557 C 0.70618 0.24943 0.27529 0.0
C558 C 0.72592 0.2639 0.30454 0.0
C559 C 0.73629 0.25843 0.32189 0.0
C560 C 0.71692 0.28257 0.30438 0.0
C561 C 0.71754 0.29497 0.32129 0.0
C562 C 0.72766 0.28936 0.33875 0.0
C563 C 0.75104 0.20687 0.26342 0.0
C564 C 0.74539 0.18676 0.26096 0.0
C565 C 0.77129 0.21221 0.26299 0.0
C566 C 0.78561 0.19772 0.26045 0.0
C567 C 0.78002 0.1775 0.25849 0.0
C568 C 0.7597 0.17225 0.25861 0.0
C569 C 0.73738 0.27106 0.33861 0.0
H570 H 0.64771 0.20479 0.22944 0.0
H571 H 0.67921 0.20415 0.24829 0.0
H572 H 0.68573 0.2677 0.243 0.0
H573 H 0.65424 0.26838 0.22433 0.0
H574 H 0.71604 0.2113 0.24337 0.0
H575 H 0.69421 0.25927 0.27883 0.0
H576 H 0.75233 0.23641 0.29127 0.0
H577 H 0.74324 0.24415 0.32286 0.0
H578 H 0.70918 0.28765 0.29122 0.0
H579 H 0.70969 0.30879 0.3207 0.0
H580 H 0.72991 0.18216 0.26148 0.0
H581 H 0.77606 0.22763 0.26459 0.0
H582 H 0.74583 0.26632 0.35146 0.0
H583 H 0.7548 0.15684 0.25753 0.0
H584 H 0.80107 0.20238 0.26008 0.0
C585 C 0.46682 0.10383 0.00561 0.0
C586 C 0.46907 0.10217 0.0263 0.0
C587 C 0.46183 0.0872 0.99372 0.0
C588 C 0.45899 0.06851 0.00223 0.0
C589 C 0.46131 0.0668 0.02293 0.0
C590 C 0.46635 0.08347 0.03485 0.0
C591 C 0.45363 0.05094 0.98943 0.0
C592 C 0.46315 0.04797 0.97136 0.0
C593 C 0.45762 0.03207 0.95842 0.0
C594 C 0.44266 0.01859 0.96422 0.0
C595 C 0.43337 0.02098 0.98261 0.0
C596 C 0.43883 0.03734 0.99499 0.0
C597 C 0.41823 0.00627 0.98918 0.0
C598 C 0.40373 0.99818 0.97581 0.0
C599 C 0.41832 1.0001 0.00902 0.0
C600 C 0.40441 0.98607 0.0153 0.0
C601 C 0.39009 0.97775 0.0019 0.0
C602 C 0.46779 0.02966 0.93909 0.0
C603 C 0.47418 0.04646 0.92872 0.0
C604 C 0.47192 0.01075 0.9312 0.0
C605 C 0.48258 0.00876 0.9137 0.0
C606 C 0.48972 0.02563 0.90382 0.0
C607 C 0.48522 0.04449 0.91157 0.0
C608 C 0.38979 0.98409 0.98211 0.0
H609 H 0.46902 0.11799 0.99855 0.0
H610 H 0.45997 0.08903 0.97784 0.0
H611 H 0.45937 0.05255 0.02989 0.0
H612 H 0.46782 0.08177 0.05078 0.0
H613 H 0.4752 0.058 0.96759 0.0
H614 H 0.43123 0.03975 0.00881 0.0
H615 H 0.43833 0.00616 0.95451 0.0
H616 H 0.4031 0.00278 0.96049 0.0
H617 H 0.4294 0.00587 0.01967 0.0
H618 H 0.40492 0.98169 0.03069 0.0
H619 H 0.47088 0.0613 0.93395 0.0
H620 H 0.46739 0.99743 0.93877 0.0
H621 H 0.37906 0.97784 0.97136 0.0
H622 H 0.49061 0.05791 0.90473 0.0
H623 H 0.4853 0.99395 0.90805 0.0
Zn624 Zn 0.2717 0.83583 0.00441 0.0
Zn625 Zn 0.2433 0.86262 0.00769 0.0
O626 O 0.23713 0.84169 0.02942 0.0
O627 O 0.25946 0.81875 0.02469 0.0
O628 O 0.22013 0.88129 0.0099 0.0
O629 O 0.29167 0.85737 0.01252 0.0
O630 O 0.26857 0.88005 0.01317 0.0
C631 C 0.24459 0.82504 0.03377 0.0
C632 C 0.25018 0.8398 0.96806 0.0
O633 O 0.24095 0.85265 0.97826 0.0
O634 O 0.26424 0.83031 0.97586 0.0
C635 C 0.20318 0.87396 0.00473 0.0
O636 O 0.20199 0.85533 0.99855 0.0
C637 C 0.28673 0.87526 0.01494 0.0
Zn638 Zn 0.10508 0.4495 0.28095 0.0
Zn639 Zn 0.12196 0.4844 0.27012 0.0
O640 O 0.10722 0.49134 0.2955 0.0
O641 O 0.0944 0.463 0.30548 0.0
O642 O 0.13804 0.50942 0.26608 0.0
O643 O 0.13169 0.43609 0.28167 0.0
O644 O 0.14464 0.46495 0.27358 0.0
C645 C 0.09715 0.48155 0.30792 0.0
C646 C 0.0905 0.46503 0.24292 0.0
O647 O 0.10313 0.47925 0.2458 0.0
O648 O 0.08901 0.45127 0.25542 0.0
C649 C 0.13482 0.5254 0.25696 0.0
O650 O 0.11805 0.52745 0.24695 0.0
C651 C 0.14675 0.44683 0.27797 0.0
Zn652 Zn 0.7669 0.61295 0.95947 0.0
Zn653 Zn 0.76861 0.62598 0.99767 0.0
O654 O 0.79233 0.60708 0.99663 0.0
O655 O 0.79268 0.59905 0.96472 0.0
O656 O 0.76879 0.63767 0.02564 0.0
O657 O 0.76814 0.64116 0.95003 0.0
O658 O 0.77254 0.65111 0.98118 0.0
C659 C 0.80033 0.59825 0.98204 0.0
C660 C 0.73212 0.60215 0.98083 0.0
O661 O 0.74094 0.61235 0.99469 0.0
O662 O 0.74045 0.59946 0.96436 0.0
C663 C 0.78352 0.63757 0.03781 0.0
O664 O 0.79982 0.62869 0.03263 0.0
C665 C 0.77152 0.655 0.96274 0.0
Zn666 Zn 0.84832 0.01467 0.27413 0.0
Zn667 Zn 0.8695 0.0144 0.24083 0.0
O668 O 0.85865 0.04302 0.24352 0.0
O669 O 0.8429 0.04366 0.27187 0.0
O670 O 0.88818 0.01763 0.21785 0.0
O671 O 0.87197 0.00634 0.29048 0.0
O672 O 0.88922 0.00638 0.26314 0.0
C673 C 0.84886 0.05234 0.25658 0.0
C674 C 0.83311 0.98699 0.24306 0.0
O675 O 0.8482 0.9925 0.23325 0.0
O676 O 0.8301 0.99451 0.2601 0.0
C677 C 0.89039 0.00775 0.20178 0.0
O678 O 0.87878 0.99223 0.19764 0.0
C679 C 0.88822 0.00389 0.28182 0.0
Zn680 Zn 0.26679 0.09851 0.46391 0.0
Zn681 Zn 0.26733 0.11205 0.50173 0.0
O682 O 0.29147 0.09376 0.50226 0.0
O683 O 0.29288 0.0856 0.47041 0.0
O684 O 0.26593 0.12399 0.52942 0.0
O685 O 0.26746 0.12655 0.45397 0.0
O686 O 0.27176 0.13694 0.48499 0.0
C687 C 0.30006 0.08507 0.48795 0.0
C688 C 0.23195 0.08678 0.48417 0.0
O689 O 0.24015 0.09759 0.49792 0.0
O690 O 0.24071 0.08401 0.46795 0.0
C691 C 0.25747 0.11499 0.54344 0.0
O692 O 0.25039 0.09686 0.54019 0.0
C693 C 0.27084 0.14055 0.46649 0.0
Zn694 Zn 0.34754 0.50125 0.76923 0.0
Zn695 Zn 0.37606 0.50384 0.74271 0.0
O696 O 0.36332 0.5317 0.74209 0.0
O697 O 0.34068 0.52977 0.76503 0.0
O698 O 0.39773 0.50514 0.72229 0.0
O699 O 0.36767 0.49354 0.79004 0.0
O700 O 0.39173 0.49768 0.76878 0.0
C701 C 0.34959 0.53968 0.75203 0.0
C702 C 0.34174 0.47241 0.73811 0.0
O703 O 0.35806 0.4801 0.73233 0.0
O704 O 0.33358 0.47943 0.75337 0.0
C705 C 0.39648 0.51459 0.70613 0.0
O706 O 0.38033 0.52444 0.70208 0.0
C707 C 0.38594 0.49338 0.78612 0.0
Zn708 Zn 0.77642 0.34592 0.50351 0.0
Zn709 Zn 0.75249 0.37661 0.50841 0.0
O710 O 0.74826 0.35918 0.53338 0.0
O711 O 0.76728 0.33351 0.52837 0.0
O712 O 0.73406 0.39963 0.51297 0.0
O713 O 0.79997 0.36498 0.50492 0.0
O714 O 0.78012 0.39034 0.50801 0.0
C715 C 0.75509 0.34261 0.53902 0.0
C716 C 0.74909 0.34942 0.47087 0.0
O717 O 0.74368 0.36461 0.4808 0.0
O718 O 0.76271 0.3386 0.47758 0.0
C719 C 0.71593 0.39957 0.50724 0.0
O720 O 0.70837 0.38387 0.49767 0.0
C721 C 0.79753 0.3835 0.50678 0.0
Zn722 Zn 0.60074 0.96318 0.77489 0.0
Zn723 Zn 0.61737 0.99981 0.7692 0.0
O724 O 0.59627 0.00416 0.79028 0.0
O725 O 0.58461 0.97437 0.79733 0.0
O726 O 0.63178 0.02632 0.76893 0.0
O727 O 0.6278 0.95182 0.7808 0.0
O728 O 0.64048 0.98163 0.77588 0.0
C729 C 0.58489 0.99299 0.80024 0.0
C730 C 0.59442 0.97994 0.73505 0.0
O731 O 0.60523 0.99452 0.74155 0.0
O732 O 0.5904 0.9655 0.74623 0.0
C733 C 0.63282 0.03896 0.7552 0.0
O734 O 0.62311 0.03557 0.73828 0.0
C735 C 0.64276 0.96346 0.78003 0.0
Zn736 Zn 0.00792 0.2791 0.8544 0.0
Zn737 Zn 0.01236 0.24515 0.87439 0.0
O738 O 0.03882 0.24802 0.85963 0.0
O739 O 0.034 0.27414 0.8411 0.0
O740 O 0.01498 0.21936 0.88935 0.0
O741 O 0.00754 0.29428 0.88049 0.0
O742 O 0.00833 0.2662 0.89667 0.0
C743 C 0.04483 0.26 0.8465 0.0
C744 C 0.97725 0.25055 0.8445 0.0
O745 O 0.98774 0.23986 0.85591 0.0
O746 O 0.98214 0.26854 0.84188 0.0
C747 C 0.01162 0.20285 0.88026 0.0
O748 O 0.00696 0.20288 0.8612 0.0
C749 C 0.0072 0.28508 0.8967 0.0
Zn750 Zn 0.50703 0.78049 0.3398 0.0
Zn751 Zn 0.504 0.7444 0.35482 0.0
O752 O 0.53149 0.74411 0.34132 0.0
O753 O 0.53507 0.77511 0.33201 0.0
O754 O 0.50119 0.718 0.36871 0.0
O755 O 0.50138 0.79367 0.36603 0.0
O756 O 0.50193 0.76389 0.37884 0.0
C757 C 0.54189 0.75783 0.33347 0.0
C758 C 0.47479 0.75726 0.32192 0.0
O759 O 0.47996 0.74456 0.33478 0.0
O760 O 0.48448 0.77349 0.32071 0.0
C761 C 0.51574 0.70914 0.3767 0.0
O762 O 0.53378 0.71655 0.37489 0.0
C763 C 0.50044 0.78264 0.38098 0.0
Zn764 Zn 0.95822 0.76432 0.62146 0.0
Zn765 Zn 0.99628 0.77132 0.63244 0.0
O766 O 0.99238 0.79265 0.61136 0.0
O767 O 0.96135 0.78644 0.60175 0.0
O768 O 0.02505 0.77409 0.64117 0.0
O769 O 0.94988 0.77028 0.64935 0.0
O770 O 0.98107 0.77625 0.65839 0.0
C771 C 0.97739 0.79642 0.60026 0.0
C772 C 0.98179 0.73096 0.61369 0.0
O773 O 0.99533 0.74291 0.62048 0.0
O774 O 0.9639 0.73627 0.61302 0.0
C775 C 0.0314 0.76202 0.65401 0.0
O776 O 0.01889 0.74901 0.66133 0.0
C777 C 0.96274 0.7752 0.66265 0.0
Zn778 Zn 0.46022 0.27022 0.09895 0.0
Zn779 Zn 0.4902 0.26462 0.12547 0.0
O780 O 0.50013 0.28869 0.10977 0.0
O781 O 0.47452 0.29518 0.09016 0.0
O782 O 0.51211 0.25918 0.14541 0.0
O783 O 0.44113 0.27111 0.12153 0.0
O784 O 0.46604 0.26902 0.14313 0.0
C785 C 0.49196 0.29936 0.09661 0.0
C786 C 0.4786 0.23246 0.09404 0.0
O787 O 0.48867 0.23858 0.10927 0.0
O788 O 0.4658 0.24352 0.08614 0.0
C789 C 0.53042 0.26236 0.14227 0.0
O790 O 0.53571 0.27027 0.12547 0.0
C791 C 0.44753 0.27066 0.13935 0.0
H792 H 0.24044 0.77162 0.87106 0.0
H793 H 0.23924 0.82555 0.83663 0.0
H794 H 0.23807 0.84539 0.86765 0.0
H795 H 0.21012 0.7872 0.91129 0.0
H796 H 0.22526 0.77552 0.92992 0.0
H797 H 0.22379 0.76536 0.90497 0.0
H798 H 0.26211 0.76789 0.90269 0.0
H799 H 0.26371 0.77783 0.92769 0.0
H800 H 0.27465 0.79143 0.90776 0.0
H801 H 0.23723 0.85954 0.90302 0.0
H802 H 0.24153 0.86664 0.93924 0.0
H803 H 0.24744 0.80376 0.94958 0.0
C804 C 0.24017 0.78759 0.86981 0.0
C805 C 0.23972 0.79681 0.8511 0.0
C806 C 0.23902 0.81787 0.85058 0.0
C807 C 0.23846 0.82936 0.86819 0.0
C808 C 0.23894 0.81969 0.88628 0.0
C809 C 0.24013 0.79929 0.88717 0.0
C810 C 0.24215 0.79252 0.90839 0.0
C811 C 0.22426 0.77937 0.91396 0.0
C812 C 0.26182 0.78179 0.91183 0.0
C813 C 0.24212 0.81232 0.91933 0.0
C814 C 0.23978 0.82783 0.90641 0.0
C815 C 0.23914 0.8475 0.91325 0.0
C816 C 0.24148 0.8514 0.93379 0.0
C817 C 0.24487 0.83573 0.94702 0.0
C818 C 0.24493 0.81599 0.93968 0.0
H819 H 0.01808 0.49618 0.3926 0.0
H820 H 0.04406 0.555 0.40401 0.0
H821 H 0.06826 0.54908 0.37774 0.0
H822 H 0.06447 0.47182 0.38457 0.0
H823 H 0.05415 0.45534 0.3654 0.0
H824 H 0.03861 0.46441 0.38483 0.0
H825 H 0.01421 0.47817 0.35842 0.0
H826 H 0.02966 0.46914 0.33891 0.0
H827 H 0.0234 0.49499 0.3401 0.0
H828 H 0.08924 0.53693 0.34967 0.0
H829 H 0.10581 0.51912 0.32245 0.0
H830 H 0.06721 0.4677 0.331 0.0
C831 C 0.02897 0.50778 0.38979 0.0
C832 C 0.02905 0.52611 0.40037 0.0
C833 C 0.04341 0.54096 0.39589 0.0
C834 C 0.05734 0.53769 0.3811 0.0
C835 C 0.05684 0.51944 0.37102 0.0
C836 C 0.04309 0.5047 0.37524 0.0
C837 C 0.04574 0.48636 0.36234 0.0
C838 C 0.05107 0.46842 0.37505 0.0
C839 C 0.02715 0.48192 0.34916 0.0
C840 C 0.06311 0.4931 0.35014 0.0
C841 C 0.06925 0.51225 0.3553 0.0
C842 C 0.08465 0.52187 0.3456 0.0
C843 C 0.09395 0.51166 0.33016 0.0
C844 C 0.0879 0.49199 0.32471 0.0
C845 C 0.07236 0.48263 0.33498 0.0
H846 H 0.78511 0.73828 0.88181 0.0
H847 H 0.81118 0.77665 0.92835 0.0
H848 H 0.80406 0.75093 0.95314 0.0
H849 H 0.74564 0.71655 0.91098 0.0
H850 H 0.74772 0.69233 0.89946 0.0
H851 H 0.75384 0.71425 0.88576 0.0
H852 H 0.78876 0.70057 0.87903 0.0
H853 H 0.78274 0.67863 0.89267 0.0
H854 H 0.80442 0.69353 0.89968 0.0
H855 H 0.79468 0.72049 0.97261 0.0
H856 H 0.78567 0.6872 0.98484 0.0
H857 H 0.76634 0.66894 0.92513 0.0
C858 C 0.78904 0.74138 0.89727 0.0
C859 C 0.79856 0.75947 0.90323 0.0
C860 C 0.80393 0.76283 0.92351 0.0
C861 C 0.79983 0.74838 0.93768 0.0
C862 C 0.79044 0.73067 0.93127 0.0
C863 C 0.7852 0.72711 0.91152 0.0
C864 C 0.77622 0.70651 0.90826 0.0
C865 C 0.75457 0.70748 0.90067 0.0
C866 C 0.78879 0.69409 0.89408 0.0
C867 C 0.77741 0.69891 0.92922 0.0
C868 C 0.78544 0.7131 0.94235 0.0
C869 C 0.78831 0.70928 0.96247 0.0
C870 C 0.78312 0.69035 0.96929 0.0
C871 C 0.77533 0.67545 0.95595 0.0
C872 C 0.77225 0.67998 0.93572 0.0
H873 H 0.95273 0.99268 0.38126 0.0
H874 H 0.99957 0.96834 0.34555 0.0
H875 H 0.97912 0.97329 0.31521 0.0
H876 H 0.91258 0.96894 0.35351 0.0
H877 H 0.89627 0.98957 0.35644 0.0
H878 H 0.91511 0.98509 0.37513 0.0
H879 H 0.92913 0.02093 0.37139 0.0
H880 H 0.91034 0.02553 0.35268 0.0
H881 H 0.9362 0.02926 0.34722 0.0
H882 H 0.95311 0.98094 0.28859 0.0
H883 H 0.92348 0.98956 0.26836 0.0
H884 H 0.89339 0.00666 0.32214 0.0
C885 C 0.95872 0.98818 0.36714 0.0
C886 C 0.97786 0.98015 0.36591 0.0
C887 C 0.98512 0.97486 0.34695 0.0
C888 C 0.97355 0.97748 0.32961 0.0
C889 C 0.95469 0.98528 0.33145 0.0
C890 C 0.94731 0.99045 0.34977 0.0
C891 C 0.92641 0.99801 0.34787 0.0
C892 C 0.91173 0.9846 0.35889 0.0
C893 C 0.92548 0.01972 0.35522 0.0
C894 C 0.92312 0.99627 0.32561 0.0
C895 C 0.93962 0.98905 0.31633 0.0
C896 C 0.94009 0.98652 0.29572 0.0
C897 C 0.92321 0.99147 0.28436 0.0
C898 C 0.90607 0.99865 0.29367 0.0
C899 C 0.90615 0.00103 0.31457 0.0
H900 H 0.25656 0.20837 0.61841 0.0
H901 H 0.21886 0.17296 0.65597 0.0
H902 H 0.22222 0.14409 0.63318 0.0
H903 H 0.23692 0.18892 0.57251 0.0
H904 H 0.26032 0.18935 0.5601 0.0
H905 H 0.25608 0.20678 0.58006 0.0
H906 H 0.28756 0.19486 0.59873 0.0
H907 H 0.29189 0.17736 0.5788 0.0
H908 H 0.28994 0.16886 0.60392 0.0
H909 H 0.22882 0.11945 0.60585 0.0
H910 H 0.2369 0.10113 0.5751 0.0
H911 H 0.26985 0.15275 0.55492 0.0
C912 C 0.24926 0.19444 0.62195 0.0
C913 C 0.2375 0.19284 0.63896 0.0
C914 C 0.22785 0.17451 0.64294 0.0
C915 C 0.22977 0.15802 0.63016 0.0
C916 C 0.24134 0.16012 0.61342 0.0
C917 C 0.25088 0.17788 0.60924 0.0
C918 C 0.26155 0.17647 0.58972 0.0
C919 C 0.25321 0.19126 0.57471 0.0
C920 C 0.28407 0.17957 0.593 0.0
C921 C 0.25637 0.15521 0.5835 0.0
C922 C 0.24487 0.14599 0.59748 0.0
C923 C 0.23789 0.12648 0.59483 0.0
C924 C 0.24258 0.11618 0.57731 0.0
C925 C 0.25402 0.12546 0.56258 0.0
C926 C 0.26115 0.14518 0.56591 0.0
H927 H 0.45393 0.54165 0.60701 0.0
H928 H 0.50004 0.50199 0.62652 0.0
H929 H 0.48137 0.49493 0.65675 0.0
H930 H 0.44334 0.56207 0.65566 0.0
H931 H 0.417 0.56324 0.65072 0.0
H932 H 0.43405 0.56533 0.63063 0.0
H933 H 0.41587 0.53595 0.61201 0.0
H934 H 0.39877 0.53376 0.63204 0.0
H935 H 0.41275 0.51259 0.62429 0.0
H936 H 0.45783 0.4922 0.68495 0.0
H937 H 0.43066 0.49343 0.70883 0.0
H938 H 0.39962 0.53474 0.67109 0.0
C939 C 0.46016 0.53159 0.61772 0.0
C940 C 0.47844 0.52231 0.61433 0.0
C941 C 0.48596 0.50906 0.62862 0.0
C942 C 0.47552 0.50505 0.64592 0.0
C943 C 0.45754 0.51437 0.64875 0.0
C944 C 0.44988 0.52733 0.63505 0.0
C945 C 0.43007 0.53513 0.64159 0.0
C946 C 0.43119 0.55778 0.64485 0.0
C947 C 0.41338 0.52899 0.62659 0.0
C948 C 0.42781 0.5245 0.66109 0.0
C949 C 0.44386 0.51266 0.66496 0.0
C950 C 0.44518 0.50142 0.68207 0.0
C951 C 0.42965 0.50223 0.69556 0.0
C952 C 0.41295 0.51416 0.69187 0.0
C953 C 0.41213 0.52545 0.67437 0.0
H954 H 0.76599 0.26375 0.62407 0.0
H955 H 0.74219 0.30692 0.66522 0.0
H956 H 0.73591 0.32957 0.63734 0.0
H957 H 0.79131 0.2979 0.59461 0.0
H958 H 0.7863 0.28443 0.57158 0.0
H959 H 0.78746 0.27134 0.59459 0.0
H960 H 0.75215 0.25646 0.58733 0.0
H961 H 0.75086 0.26958 0.56429 0.0
H962 H 0.7319 0.27283 0.58242 0.0
H963 H 0.7336 0.34807 0.60458 0.0
H964 H 0.73733 0.36119 0.57068 0.0
H965 H 0.76249 0.30537 0.55181 0.0
C966 C 0.7591 0.2778 0.6272 0.0
C967 C 0.75445 0.28351 0.6468 0.0
C968 C 0.74596 0.30228 0.65032 0.0
C969 C 0.7422 0.31517 0.63456 0.0
C970 C 0.74701 0.30905 0.61539 0.0
C971 C 0.75532 0.2908 0.61172 0.0
C972 C 0.76023 0.28809 0.59007 0.0
C973 C 0.78265 0.28529 0.58758 0.0
C974 C 0.74805 0.27071 0.58046 0.0
C975 C 0.75368 0.30777 0.58212 0.0
C976 C 0.74589 0.31965 0.59682 0.0
C977 C 0.73955 0.33882 0.59294 0.0
C978 C 0.74166 0.34613 0.57364 0.0
C979 C 0.7502 0.33433 0.55858 0.0
C980 C 0.75587 0.31479 0.56293 0.0
H981 H 0.51893 0.94672 0.64716 0.0
H982 H 0.55117 0.98624 0.6087 0.0
H983 H 0.57404 0.9959 0.63676 0.0
H984 H 0.52256 0.97725 0.69143 0.0
H985 H 0.52588 0.95662 0.70772 0.0
H986 H 0.51204 0.95316 0.68466 0.0
H987 H 0.53532 0.92483 0.67434 0.0
H988 H 0.54924 0.9282 0.69736 0.0
H989 H 0.56174 0.92957 0.67404 0.0
H990 H 0.59265 0.00193 0.66954 0.0
H991 H 0.60679 0.00231 0.70383 0.0
H992 H 0.56304 0.95761 0.72003 0.0
C993 C 0.53075 0.95749 0.64471 0.0
C994 C 0.53329 0.96585 0.62587 0.0
C995 C 0.54908 0.97965 0.62306 0.0
C996 C 0.56206 0.98525 0.6389 0.0
C997 C 0.55913 0.97674 0.65734 0.0
C998 C 0.54396 0.96303 0.66025 0.0
C999 C 0.54426 0.9557 0.68133 0.0
C1000 C 0.52505 0.96101 0.69191 0.0
C1001 C 0.54786 0.93324 0.68178 0.0
C1002 C 0.56191 0.9675 0.6899 0.0
C1003 C 0.57021 0.97968 0.6759 0.0
C1004 C 0.58636 0.99235 0.68059 0.0
C1005 C 0.59425 0.9925 0.70008 0.0
C1006 C 0.58611 0.97988 0.71454 0.0
C1007 C 0.56975 0.96725 0.70927 0.0
H1008 H 0.871 0.25248 0.79019 0.0
H1009 H 0.88099 0.19191 0.76988 0.0
H1010 H 0.91255 0.19213 0.78888 0.0
H1011 H 0.92194 0.26875 0.78476 0.0
H1012 H 0.92168 0.28544 0.806 0.0
H1013 H 0.89911 0.28004 0.79189 0.0
H1014 H 0.88201 0.2688 0.82399 0.0
H1015 H 0.90459 0.27399 0.83818 0.0
H1016 H 0.89301 0.24963 0.83867 0.0
H1017 H 0.94281 0.19853 0.8111 0.0
H1018 H 0.97136 0.21222 0.83122 0.0
H1019 H 0.94345 0.26958 0.83356 0.0
C1020 C 0.87981 0.23928 0.78942 0.0
C1021 C 0.87302 0.22204 0.77867 0.0
C1022 C 0.88526 0.20513 0.77845 0.0
C1023 C 0.90339 0.20513 0.7891 0.0
C1024 C 0.90943 0.22227 0.79963 0.0
C1025 C 0.89819 0.23915 0.79955 0.0
C1026 C 0.90857 0.25601 0.81117 0.0
C1027 C 0.9131 0.27359 0.79764 0.0
C1028 C 0.89631 0.26248 0.82906 0.0
C1029 C 0.92739 0.24593 0.8178 0.0
C1030 C 0.92745 0.22636 0.8113 0.0
C1031 C 0.94302 0.21389 0.81612 0.0
C1032 C 0.9591 0.22174 0.82761 0.0
C1033 C 0.95963 0.24195 0.83377 0.0
C1034 C 0.9435 0.25411 0.82886 0.0
H1035 H 0.46938 0.86825 0.45652 0.0
H1036 H 0.49626 0.83478 0.50396 0.0
H1037 H 0.50322 0.80753 0.47994 0.0
H1038 H 0.44724 0.82661 0.42792 0.0
H1039 H 0.45293 0.83736 0.40437 0.0
H1040 H 0.44862 0.85321 0.42562 0.0
H1041 H 0.48284 0.87068 0.42119 0.0
H1042 H 0.48728 0.85488 0.39997 0.0
H1043 H 0.50487 0.85601 0.42057 0.0
H1044 H 0.50733 0.78411 0.45033 0.0
H1045 H 0.51086 0.76777 0.41734 0.0
H1046 H 0.48335 0.81803 0.38936 0.0
C1047 C 0.47644 0.85501 0.46184 0.0
C1048 C 0.48206 0.85334 0.48202 0.0
C1049 C 0.49175 0.83613 0.4885 0.0
C1050 C 0.49569 0.82063 0.47501 0.0
C1051 C 0.49006 0.82277 0.4551 0.0
C1052 C 0.48081 0.83963 0.44853 0.0
C1053 C 0.47753 0.83897 0.42623 0.0
C1054 C 0.45526 0.83903 0.42072 0.0
C1055 C 0.48881 0.85615 0.41642 0.0
C1056 C 0.48648 0.81916 0.42121 0.0
C1057 C 0.49335 0.80986 0.43806 0.0
C1058 C 0.50205 0.79129 0.43704 0.0
C1059 C 0.50396 0.78211 0.41828 0.0
C1060 C 0.49752 0.79171 0.40083 0.0
C1061 C 0.48859 0.81041 0.40243 0.0
H1062 H 0.1274 0.27927 0.76579 0.0
H1063 H 0.16757 0.24416 0.80115 0.0
H1064 H 0.14111 0.23853 0.8255 0.0
H1065 H 0.10384 0.30309 0.80711 0.0
H1066 H 0.07973 0.30299 0.79492 0.0
H1067 H 0.10181 0.30395 0.78039 0.0
H1068 H 0.08947 0.27261 0.76039 0.0
H1069 H 0.06739 0.27151 0.77491 0.0
H1070 H 0.08316 0.25031 0.77344 0.0
H1071 H 0.10947 0.23581 0.84533 0.0
H1072 H 0.07633 0.23841 0.8602 0.0
H1073 H 0.05777 0.27642 0.81221 0.0
C1074 C 0.13059 0.27035 0.77864 0.0
C1075 C 0.14946 0.26206 0.78158 0.0
C1076 C 0.15321 0.25071 0.79871 0.0
C1077 C 0.13826 0.24736 0.81253 0.0
C1078 C 0.11974 0.25565 0.8091 0.0
C1079 C 0.11596 0.26708 0.79267 0.0
C1080 C 0.09502 0.27471 0.79259 0.0
C1081 C 0.09512 0.29754 0.79384 0.0
C1082 C 0.08306 0.26681 0.77424 0.0
C1083 C 0.08753 0.2657 0.81148 0.0
C1084 C 0.1019 0.25462 0.82075 0.0
C1085 C 0.09815 0.24457 0.83825 0.0
C1086 C 0.07928 0.24607 0.84655 0.0
C1087 C 0.0645 0.2577 0.83745 0.0
C1088 C 0.06878 0.26755 0.81965 0.0
H1089 H 0.54644 0.62077 0.44811 0.0
H1090 H 0.48471 0.61623 0.46449 0.0
H1091 H 0.47625 0.64201 0.44019 0.0
H1092 H 0.54774 0.67345 0.44356 0.0
H1093 H 0.56424 0.67346 0.42288 0.0
H1094 H 0.56514 0.65375 0.44053 0.0
H1095 H 0.55945 0.6278 0.41193 0.0
H1096 H 0.55848 0.64746 0.39419 0.0
H1097 H 0.53814 0.62973 0.39543 0.0
H1098 H 0.47461 0.66844 0.41428 0.0
H1099 H 0.4802 0.69543 0.39063 0.0
H1100 H 0.54333 0.68388 0.39222 0.0
C1101 C 0.53112 0.62508 0.44638 0.0
C1102 C 0.51617 0.61645 0.45803 0.0
C1103 C 0.49635 0.62271 0.45569 0.0
C1104 C 0.49141 0.63724 0.44188 0.0
C1105 C 0.5065 0.64552 0.43065 0.0
C1106 C 0.52599 0.63979 0.43287 0.0
C1107 C 0.53955 0.65183 0.41982 0.0
C1108 C 0.55508 0.66384 0.43246 0.0
C1109 C 0.54949 0.6384 0.40443 0.0
C1110 C 0.52467 0.66528 0.40997 0.0
C1111 C 0.50566 0.66122 0.41623 0.0
C1112 C 0.48944 0.67175 0.40927 0.0
C1113 C 0.49276 0.68703 0.39578 0.0
C1114 C 0.5122 0.69183 0.38956 0.0
C1115 C 0.52829 0.68062 0.39668 0.0
H1116 H 0.88127 0.79305 0.74364 0.0
H1117 H 0.92639 0.82341 0.78069 0.0
H1118 H 0.95191 0.81416 0.75648 0.0
H1119 H 0.91186 0.75262 0.72618 0.0
H1120 H 0.90053 0.75237 0.70165 0.0
H1121 H 0.88644 0.75988 0.72282 0.0
H1122 H 0.8788 0.79326 0.70602 0.0
H1123 H 0.89283 0.78585 0.68483 0.0
H1124 H 0.89904 0.80882 0.69794 0.0
H1125 H 0.97204 0.80332 0.72656 0.0
H1126 H 0.98458 0.79239 0.6939 0.0
H1127 H 0.92557 0.76997 0.67701 0.0
C1128 C 0.89651 0.79777 0.74672 0.0
C1129 C 0.90183 0.80904 0.764 0.0
C1130 C 0.92201 0.81462 0.76761 0.0
C1131 C 0.93658 0.80948 0.75393 0.0
C1132 C 0.93071 0.79863 0.73683 0.0
C1133 C 0.91114 0.7928 0.73329 0.0
C1134 C 0.90834 0.7821 0.71347 0.0
C1135 C 0.90138 0.76046 0.7162 0.0
C1136 C 0.89391 0.79318 0.69976 0.0
C1137 C 0.92931 0.78323 0.70609 0.0
C1138 C 0.94212 0.79259 0.7198 0.0
C1139 C 0.96215 0.79584 0.7158 0.0
C1140 C 0.96914 0.78958 0.69723 0.0
C1141 C 0.95606 0.78036 0.68287 0.0
C1142 C 0.93599 0.77696 0.68761 0.0
H1143 H 0.02655 0.88514 0.5394 0.0
H1144 H 0.9734 0.88257 0.50154 0.0
H1145 H 0.95954 0.85592 0.52186 0.0
H1146 H 0.02917 0.83207 0.54608 0.0
H1147 H 0.03792 0.83434 0.57155 0.0
H1148 H 0.04363 0.85365 0.55432 0.0
H1149 H 0.02796 0.87955 0.57781 0.0
H1150 H 0.02213 0.8603 0.59507 0.0
H1151 H 0.00275 0.87575 0.58552 0.0
H1152 H 0.95117 0.82998 0.54607 0.0
H1153 H 0.94924 0.80499 0.57212 0.0
H1154 H 0.00828 0.82303 0.59388 0.0
C1155 C 0.01207 0.87888 0.53527 0.0
C1156 C 0.00098 0.88619 0.51897 0.0
C1157 C 0.98201 0.87761 0.51421 0.0
C1158 C 0.97405 0.86235 0.52558 0.0
C1159 C 0.98526 0.85566 0.5416 0.0
C1160 C 0.00391 0.8635 0.54641 0.0
C1161 C 0.01291 0.8533 0.56427 0.0
C1162 C 0.03204 0.84271 0.55872 0.0
C1163 C 0.01665 0.86811 0.5817 0.0
C1164 C 0.99637 0.83853 0.5687 0.0
C1165 C 0.98056 0.84026 0.55546 0.0
C1166 C 0.96347 0.82842 0.55651 0.0
C1167 C 0.96252 0.81428 0.57142 0.0
C1168 C 0.97862 0.81199 0.58508 0.0
C1169 C 0.99574 0.82437 0.58367 0.0
H1170 H 0.12601 0.72723 0.71647 0.0
H1171 H 0.16171 0.7684 0.68279 0.0
H1172 H 0.13179 0.7777 0.66351 0.0
H1173 H 0.09296 0.71099 0.67584 0.0
H1174 H 0.07154 0.70941 0.69131 0.0
H1175 H 0.09593 0.70551 0.70183 0.0
H1176 H 0.09033 0.73317 0.72828 0.0
H1177 H 0.06597 0.73722 0.71779 0.0
H1178 H 0.08369 0.7576 0.72035 0.0
H1179 H 0.09756 0.78361 0.64895 0.0
H1180 H 0.06199 0.78446 0.63921 0.0
H1181 H 0.04893 0.73945 0.6826 0.0
C1182 C 0.12755 0.7382 0.70503 0.0
C1183 C 0.14622 0.74707 0.70112 0.0
C1184 C 0.14762 0.7612 0.68587 0.0
C1185 C 0.13069 0.76668 0.67493 0.0
C1186 C 0.11249 0.75784 0.67937 0.0
C1187 C 0.11085 0.74379 0.69396 0.0
C1188 C 0.08956 0.73663 0.69596 0.0
C1189 C 0.08737 0.71431 0.69093 0.0
C1190 C 0.08194 0.74145 0.71683 0.0
C1191 C 0.07942 0.74897 0.68034 0.0
C1192 C 0.09288 0.76113 0.67093 0.0
C1193 C 0.0869 0.77408 0.65615 0.0
C1194 C 0.06666 0.7745 0.65077 0.0
C1195 C 0.05266 0.76201 0.66011 0.0
C1196 C 0.05923 0.74915 0.67511 0.0
H1197 H 0.95688 0.62788 0.55874 0.0
H1198 H 0.0174 0.62873 0.53844 0.0
H1199 H 0.02522 0.65811 0.5602 0.0
H1200 H 0.95127 0.67923 0.55787 0.0
H1201 H 0.93594 0.68059 0.57941 0.0
H1202 H 0.93602 0.65817 0.56448 0.0
H1203 H 0.9456 0.63813 0.59563 0.0
H1204 H 0.9456 0.66055 0.61067 0.0
H1205 H 0.96736 0.64548 0.61029 0.0
H1206 H 0.02575 0.68844 0.58271 0.0
H1207 H 0.01827 0.71911 0.60157 0.0
H1208 H 0.95685 0.69915 0.60559 0.0
C1209 C 0.97187 0.63403 0.55927 0.0
C1210 C 0.98665 0.62603 0.54724 0.0
C1211 C 0.00597 0.63471 0.54773 0.0
C1212 C 0.01054 0.65126 0.56009 0.0
C1213 C 0.99555 0.65897 0.57169 0.0
C1214 C 0.97656 0.65072 0.57126 0.0
C1215 C 0.96264 0.66297 0.58351 0.0
C1216 C 0.94546 0.6707 0.57054 0.0
C1217 C 0.95485 0.65107 0.60107 0.0
C1218 C 0.97663 0.67964 0.59056 0.0
C1219 C 0.99564 0.67687 0.58396 0.0
C1220 C 0.01095 0.6907 0.58808 0.0
C1221 C 0.00657 0.70805 0.59884 0.0
C1222 C 0.98698 0.71152 0.605 0.0
C1223 C 0.97198 0.69691 0.6011 0.0
H1224 H 0.79668 0.87971 0.20254 0.0
H1225 H 0.73936 0.89405 0.2267 0.0
H1226 H 0.75114 0.92826 0.23331 0.0
H1227 H 0.82496 0.90675 0.23914 0.0
H1228 H 0.84393 0.91508 0.2226 0.0
H1229 H 0.83038 0.8922 0.21725 0.0
H1230 H 0.82015 0.90512 0.18259 0.0
H1231 H 0.83361 0.92811 0.18789 0.0
H1232 H 0.80767 0.92842 0.18076 0.0
H1233 H 0.76933 0.95973 0.24024 0.0
H1234 H 0.79359 0.98665 0.24842 0.0
H1235 H 0.83997 0.95287 0.22085 0.0
C1236 C 0.78653 0.89004 0.20911 0.0
C1237 C 0.76688 0.88405 0.21373 0.0
C1238 C 0.75422 0.8982 0.22237 0.0
C1239 C 0.76082 0.91774 0.22632 0.0
C1240 C 0.7802 0.92306 0.22168 0.0
C1241 C 0.79295 0.90968 0.21334 0.0
C1242 C 0.81354 0.919 0.21128 0.0
C1243 C 0.82912 0.90758 0.22329 0.0
C1244 C 0.81906 0.92023 0.18932 0.0
C1245 C 0.81043 0.93952 0.22028 0.0
C1246 C 0.79097 0.94151 0.22591 0.0
C1247 C 0.78455 0.95848 0.23569 0.0
C1248 C 0.79845 0.97367 0.2403 0.0
C1249 C 0.81859 0.9719 0.23513 0.0
C1250 C 0.82458 0.95477 0.22457 0.0
H1251 H 0.77836 0.14243 0.23651 0.0
H1252 H 0.81607 0.17674 0.27832 0.0
H1253 H 0.84021 0.14986 0.27844 0.0
H1254 H 0.78461 0.09697 0.25934 0.0
H1255 H 0.78446 0.08231 0.23665 0.0
H1256 H 0.77159 0.1054 0.23749 0.0
H1257 H 0.79173 0.11789 0.2077 0.0
H1258 H 0.80475 0.09482 0.20683 0.0
H1259 H 0.81848 0.11804 0.20918 0.0
H1260 H 0.85824 0.1179 0.27738 0.0
H1261 H 0.86845 0.08285 0.27548 0.0
H1262 H 0.81915 0.06891 0.23484 0.0
C1263 C 0.79177 0.14441 0.24556 0.0
C1264 C 0.7953 0.16187 0.25728 0.0
C1265 C 0.81314 0.16378 0.26885 0.0
C1266 C 0.82695 0.14853 0.26908 0.0
C1267 C 0.82282 0.13143 0.25763 0.0
C1268 C 0.80569 0.12929 0.24604 0.0
C1269 C 0.804 0.10876 0.23643 0.0
C1270 C 0.78505 0.09772 0.24287 0.0
C1271 C 0.80479 0.10996 0.21368 0.0
C1272 C 0.82251 0.09946 0.24497 0.0
C1273 C 0.83332 0.1129 0.25694 0.0
C1274 C 0.85016 0.10737 0.26771 0.0
C1275 C 0.85589 0.08752 0.26652 0.0
C1276 C 0.84485 0.07353 0.25462 0.0
C1277 C 0.82815 0.07959 0.2435 0.0
H1278 H 0.35021 0.97283 0.99234 0.0
H1279 H 0.39849 0.94657 0.02579 0.0
H1280 H 0.37591 0.91954 0.03582 0.0
H1281 H 0.31037 0.95926 0.02648 0.0
H1282 H 0.2926 0.95389 0.00656 0.0
H1283 H 0.31199 0.97234 0.00345 0.0
H1284 H 0.32333 0.95371 0.97179 0.0
H1285 H 0.30393 0.9353 0.97475 0.0
H1286 H 0.32938 0.92784 0.97318 0.0
H1287 H 0.34954 0.8938 0.03949 0.0
H1288 H 0.3207 0.87066 0.03651 0.0
H1289 H 0.28885 0.91342 0.00136 0.0
C1290 C 0.35598 0.96146 0.00188 0.0
C1291 C 0.37611 0.96194 0.00841 0.0
C1292 C 0.38307 0.94677 0.0209 0.0
C1293 C 0.37037 0.93131 0.02665 0.0
C1294 C 0.35069 0.93124 0.01989 0.0
C1295 C 0.34346 0.94591 0.00783 0.0
C1296 C 0.32194 0.94165 0.00176 0.0
C1297 C 0.30843 0.95774 0.01006 0.0
C1298 C 0.31951 0.93949 0.97902 0.0
C1299 C 0.31841 0.92199 0.01183 0.0
C1300 C 0.33519 0.91638 0.02233 0.0
C1301 C 0.33619 0.89815 0.03162 0.0
C1302 C 0.31977 0.88511 0.02982 0.0
C1303 C 0.30252 0.8904 0.01894 0.0
C1304 C 0.30168 0.90926 0.0102 0.0
H1305 H 0.22588 0.36237 0.29373 0.0
H1306 H 0.2707 0.40926 0.30264 0.0
H1307 H 0.24577 0.43412 0.29409 0.0
H1308 H 0.19799 0.38452 0.25353 0.0
H1309 H 0.17434 0.37632 0.26272 0.0
H1310 H 0.19617 0.36205 0.26753 0.0
H1311 H 0.18997 0.36427 0.30536 0.0
H1312 H 0.16812 0.37848 0.30067 0.0
H1313 H 0.18752 0.38829 0.31721 0.0
H1314 H 0.21557 0.45401 0.28587 0.0
H1315 H 0.18214 0.46751 0.28057 0.0
H1316 H 0.15682 0.40767 0.27951 0.0
C1317 C 0.23054 0.37784 0.294 0.0
C1318 C 0.25038 0.38376 0.29883 0.0
C1319 C 0.25575 0.40422 0.29864 0.0
C1320 C 0.24166 0.4185 0.29389 0.0
C1321 C 0.22222 0.41211 0.28948 0.0
C1322 C 0.21665 0.39228 0.28961 0.0
C1323 C 0.19458 0.38935 0.28558 0.0
C1324 C 0.19054 0.37735 0.26619 0.0
C1325 C 0.18446 0.37953 0.30326 0.0
C1326 C 0.18852 0.4107 0.28348 0.0
C1327 C 0.20472 0.42358 0.28546 0.0
C1328 C 0.20278 0.44406 0.28426 0.0
C1329 C 0.18374 0.45157 0.28121 0.0
C1330 C 0.16687 0.43864 0.27969 0.0
C1331 C 0.16941 0.41793 0.28067 0.0
H1332 H 0.14093 0.01293 0.45756 0.0
H1333 H 0.10875 0.04129 0.50511 0.0
H1334 H 0.13824 0.06241 0.5135 0.0
H1335 H 0.18898 0.01354 0.4817 0.0
H1336 H 0.20201 0.01914 0.45935 0.0
H1337 H 0.17872 0.0055 0.45783 0.0
H1338 H 0.16444 0.03154 0.43387 0.0
H1339 H 0.1877 0.04523 0.43526 0.0
H1340 H 0.16501 0.05739 0.44134 0.0
H1341 H 0.17146 0.08073 0.51651 0.0
H1342 H 0.20497 0.09574 0.51275 0.0
H1343 H 0.21418 0.05669 0.4619 0.0
C1344 C 0.13992 0.02367 0.46964 0.0
C1345 C 0.12243 0.02529 0.48071 0.0
C1346 C 0.12204 0.03941 0.49662 0.0
C1347 C 0.13869 0.05159 0.50143 0.0
C1348 C 0.15561 0.04962 0.49013 0.0
C1349 C 0.15628 0.03609 0.47449 0.0
C1350 C 0.17597 0.03732 0.4642 0.0
C1351 C 0.18707 0.01771 0.46588 0.0
C1352 C 0.1731 0.04323 0.44238 0.0
C1353 C 0.18625 0.05376 0.47643 0.0
C1354 C 0.17438 0.06054 0.49145 0.0
C1355 C 0.18086 0.07557 0.50476 0.0
C1356 C 0.19991 0.08398 0.50253 0.0
C1357 C 0.21214 0.07747 0.48697 0.0
C1358 C 0.20515 0.06211 0.47386 0.0
H1359 H 0.69201 0.13755 0.72418 0.0
H1360 H 0.72357 0.13479 0.78091 0.0
H1361 H 0.7024 0.10616 0.79009 0.0
H1362 H 0.64271 0.12267 0.74175 0.0
H1363 H 0.63663 0.1079 0.71973 0.0
H1364 H 0.65307 0.12926 0.71827 0.0
H1365 H 0.67992 0.10719 0.70284 0.0
H1366 H 0.6636 0.08578 0.7043 0.0
H1367 H 0.688 0.08556 0.71584 0.0
H1368 H 0.67914 0.07727 0.79258 0.0
H1369 H 0.65586 0.04884 0.78796 0.0
H1370 H 0.63968 0.06933 0.72909 0.0
C1371 C 0.69416 0.13108 0.73866 0.0
C1372 C 0.70928 0.13836 0.75194 0.0
C1373 C 0.71204 0.12935 0.77058 0.0
C1374 C 0.70006 0.11317 0.77593 0.0
C1375 C 0.68546 0.10614 0.76242 0.0
C1376 C 0.68246 0.11473 0.74415 0.0
C1377 C 0.66656 0.10343 0.73194 0.0
C1378 C 0.64868 0.1166 0.72768 0.0
C1379 C 0.67503 0.09499 0.71259 0.0
C1380 C 0.66128 0.08704 0.74613 0.0
C1381 C 0.67223 0.08906 0.76369 0.0
C1382 C 0.67039 0.07556 0.77894 0.0
C1383 C 0.65711 0.05943 0.77614 0.0
C1384 C 0.6459 0.0568 0.75815 0.0
C1385 C 0.64795 0.07094 0.74303 0.0
H1386 H 0.37426 0.00803 0.53653 0.0
H1387 H 0.41423 0.02162 0.48867 0.0
H1388 H 0.39112 0.04656 0.47642 0.0
H1389 H 0.32931 0.01284 0.50959 0.0
H1390 H 0.31624 0.02466 0.52948 0.0
H1391 H 0.33619 0.0082 0.53509 0.0
H1392 H 0.35409 0.03601 0.55627 0.0
H1393 H 0.33414 0.05256 0.55077 0.0
H1394 H 0.35934 0.05969 0.54531 0.0
H1395 H 0.36283 0.06778 0.4676 0.0
H1396 H 0.33158 0.08587 0.46391 0.0
H1397 H 0.31086 0.06115 0.51891 0.0
C1398 C 0.37836 0.01648 0.52369 0.0
C1399 C 0.39602 0.01258 0.51344 0.0
C1400 C 0.4006 0.02388 0.49652 0.0
C1401 C 0.38766 0.03826 0.48954 0.0
C1402 C 0.37031 0.04149 0.4998 0.0
C1403 C 0.36571 0.03114 0.51664 0.0
C1404 C 0.34589 0.03739 0.52466 0.0
C1405 C 0.33103 0.01972 0.5247 0.0
C1406 C 0.34853 0.04699 0.54549 0.0
C1407 C 0.33991 0.05255 0.50942 0.0
C1408 C 0.35425 0.05459 0.4952 0.0
C1409 C 0.35163 0.06659 0.4788 0.0
C1410 C 0.33384 0.07673 0.4768 0.0
C1411 C 0.31901 0.07502 0.49124 0.0
C1412 C 0.32218 0.06299 0.5079 0.0
H1413 H 0.61677 0.46274 0.50569 0.0
H1414 H 0.64844 0.50709 0.54258 0.0
H1415 H 0.6786 0.48694 0.54154 0.0
H1416 H 0.63853 0.42041 0.52776 0.0
H1417 H 0.6397 0.40639 0.50475 0.0
H1418 H 0.6208 0.42459 0.50789 0.0
H1419 H 0.63233 0.44231 0.47622 0.0
H1420 H 0.65125 0.42414 0.47295 0.0
H1421 H 0.65795 0.45018 0.47439 0.0
H1422 H 0.70526 0.46179 0.5367 0.0
H1423 H 0.72627 0.43324 0.52895 0.0
H1424 H 0.67712 0.40512 0.49541 0.0
C1425 C 0.63011 0.46833 0.51335 0.0
C1426 C 0.63025 0.48652 0.52421 0.0
C1427 C 0.64793 0.49312 0.53433 0.0
C1428 C 0.66516 0.48183 0.53374 0.0
C1429 C 0.66449 0.46392 0.523 0.0
C1430 C 0.64742 0.45719 0.51301 0.0
C1431 C 0.6505 0.43719 0.50297 0.0
C1432 C 0.63655 0.4212 0.51135 0.0
C1433 C 0.64785 0.43855 0.48029 0.0
C1434 C 0.67195 0.43371 0.50891 0.0
C1435 C 0.67977 0.44934 0.52039 0.0
C1436 C 0.69929 0.44947 0.5277 0.0
C1437 C 0.71112 0.43317 0.52321 0.0
C1438 C 0.70338 0.41689 0.51158 0.0
C1439 C 0.68352 0.41729 0.50435 0.0
H1440 H 0.72904 0.27783 0.37788 0.0
H1441 H 0.72702 0.33042 0.34157 0.0
H1442 H 0.7275 0.35143 0.37193 0.0
H1443 H 0.70093 0.29596 0.41953 0.0
H1444 H 0.71686 0.28449 0.43765 0.0
H1445 H 0.71348 0.27344 0.41317 0.0
H1446 H 0.75156 0.27455 0.40841 0.0
H1447 H 0.75504 0.28537 0.4329 0.0
H1448 H 0.76505 0.29783 0.41177 0.0
H1449 H 0.72978 0.36695 0.40669 0.0
H1450 H 0.73801 0.37537 0.44203 0.0
H1451 H 0.742 0.31273 0.45457 0.0
C1452 C 0.7288 0.29374 0.37611 0.0
C1453 C 0.72782 0.30229 0.35708 0.0
C1454 C 0.72724 0.32329 0.35582 0.0
C1455 C 0.72759 0.33543 0.37305 0.0
C1456 C 0.72872 0.32643 0.39148 0.0
C1457 C 0.72958 0.30606 0.39306 0.0
C1458 C 0.73277 0.30006 0.4144 0.0
C1459 C 0.71494 0.28776 0.42161 0.0
C1460 C 0.75226 0.2888 0.41702 0.0
C1461 C 0.73401 0.32026 0.42458 0.0
C1462 C 0.73112 0.33531 0.41124 0.0
C1463 C 0.732 0.35527 0.41727 0.0
C1464 C 0.73655 0.35992 0.43734 0.0
C1465 C 0.74061 0.34468 0.45091 0.0
C1466 C 0.73891 0.32465 0.44447 0.0
H1467 H 0.51633 0.99621 0.89497 0.0
H1468 H 0.49185 0.05052 0.87178 0.0
H1469 H 0.51477 0.04891 0.84397 0.0
H1470 H 0.56628 0.00407 0.8815 0.0
H1471 H 0.57011 0.97864 0.87399 0.0
H1472 H 0.55229 0.98428 0.89268 0.0
H1473 H 0.5247 0.96545 0.87196 0.0
H1474 H 0.54248 0.95953 0.85332 0.0
H1475 H 0.52009 0.97211 0.84648 0.0
H1476 H 0.54163 0.04243 0.81955 0.0
H1477 H 0.56713 0.02882 0.79758 0.0
H1478 H 0.57118 0.97691 0.83445 0.0
C1479 C 0.51542 0.00764 0.88395 0.0
C1480 C 0.50237 0.02371 0.88599 0.0
C1481 C 0.50206 0.03838 0.87112 0.0
C1482 C 0.51495 0.03754 0.8551 0.0
C1483 C 0.52781 0.02173 0.85384 0.0
C1484 C 0.52783 0.00681 0.8676 0.0
C1485 C 0.54249 0.99095 0.86231 0.0
C1486 C 0.55875 0.98941 0.87859 0.0
C1487 C 0.5318 0.97082 0.85827 0.0
C1488 C 0.55079 0.99937 0.84347 0.0
C1489 C 0.54236 0.01731 0.83902 0.0
C1490 C 0.54819 0.02829 0.82274 0.0
C1491 C 0.56274 0.02052 0.81044 0.0
C1492 C 0.57098 0.0018 0.81431 0.0
C1493 C 0.56497 0.99118 0.83109 0.0
H1494 H 0.2835 0.22222 0.38395 0.0
H1495 H 0.31708 0.2583 0.42751 0.0
H1496 H 0.30982 0.23352 0.45327 0.0
H1497 H 0.24523 0.20421 0.41673 0.0
H1498 H 0.2442 0.17978 0.40532 0.0
H1499 H 0.25094 0.20101 0.39086 0.0
H1500 H 0.28371 0.18426 0.38121 0.0
H1501 H 0.27704 0.16298 0.39555 0.0
H1502 H 0.30036 0.17596 0.40053 0.0
H1503 H 0.29916 0.20429 0.47399 0.0
H1504 H 0.28866 0.17184 0.48725 0.0
H1505 H 0.26314 0.1548 0.42944 0.0
C1506 C 0.28908 0.22503 0.39898 0.0
C1507 C 0.30067 0.2422 0.40387 0.0
C1508 C 0.30816 0.24518 0.42355 0.0
C1509 C 0.30401 0.23128 0.43825 0.0
C1510 C 0.29248 0.21448 0.43293 0.0
C1511 C 0.28528 0.21125 0.41371 0.0
C1512 C 0.27435 0.19147 0.41144 0.0
C1513 C 0.25237 0.1943 0.40576 0.0
C1514 C 0.28448 0.17787 0.39629 0.0
C1515 C 0.27669 0.18391 0.43234 0.0
C1516 C 0.28692 0.19749 0.44462 0.0
C1517 C 0.2911 0.19358 0.46452 0.0
C1518 C 0.28502 0.17514 0.47193 0.0
C1519 C 0.27513 0.16078 0.45937 0.0
C1520 C 0.27069 0.16545 0.43942 0.0
H1521 H 0.4802 0.49892 0.86087 0.0
H1522 H 0.45393 0.44779 0.88952 0.0
H1523 H 0.42728 0.44611 0.86395 0.0
H1524 H 0.43562 0.52169 0.84707 0.0
H1525 H 0.4437 0.52988 0.82318 0.0
H1526 H 0.46161 0.5266 0.84305 0.0
H1527 H 0.48106 0.50248 0.82075 0.0
H1528 H 0.46324 0.50575 0.80075 0.0
H1529 H 0.46836 0.48118 0.80936 0.0
H1530 H 0.40192 0.45165 0.83782 0.0
H1531 H 0.38001 0.46282 0.81064 0.0
H1532 H 0.42317 0.50885 0.79662 0.0
C1533 C 0.46905 0.48715 0.86155 0.0
C1534 C 0.46905 0.47366 0.87744 0.0
C1535 C 0.45404 0.4586 0.87783 0.0
C1536 C 0.43891 0.4574 0.86326 0.0
C1537 C 0.43908 0.47115 0.84813 0.0
C1538 C 0.45384 0.4856 0.84694 0.0
C1539 C 0.45006 0.49881 0.82927 0.0
C1540 C 0.4476 0.52053 0.83606 0.0
C1541 C 0.46667 0.49694 0.81413 0.0
C1542 C 0.43063 0.48978 0.82107 0.0
C1543 C 0.42465 0.47384 0.83227 0.0
C1544 C 0.40658 0.46387 0.8287 0.0
C1545 C 0.39421 0.47037 0.81331 0.0
C1546 C 0.40002 0.48653 0.80148 0.0
C1547 C 0.41859 0.49621 0.80523 0.0
H1548 H 0.74032 0.71427 0.11659 0.0
H1549 H 0.79159 0.70315 0.15468 0.0
H1550 H 0.80348 0.67903 0.12981 0.0
H1551 H 0.7324 0.6635 0.09914 0.0
H1552 H 0.725 0.67054 0.0744 0.0
H1553 H 0.72057 0.68689 0.09525 0.0
H1554 H 0.7399 0.71527 0.0782 0.0
H1555 H 0.74438 0.69902 0.05731 0.0
H1556 H 0.76495 0.71128 0.07045 0.0
H1557 H 0.81003 0.65648 0.10037 0.0
H1558 H 0.81073 0.63733 0.06872 0.0
H1559 H 0.75459 0.66254 0.05053 0.0
C1560 C 0.75393 0.70661 0.11986 0.0
C1561 C 0.76502 0.71065 0.13764 0.0
C1562 C 0.78296 0.70053 0.14108 0.0
C1563 C 0.78976 0.68669 0.1271 0.0
C1564 C 0.77844 0.68307 0.10976 0.0
C1565 C 0.76089 0.69272 0.10613 0.0
C1566 C 0.75159 0.68634 0.08625 0.0
C1567 C 0.73118 0.67621 0.08893 0.0
C1568 C 0.75013 0.70403 0.07223 0.0
C1569 C 0.7667 0.67164 0.07921 0.0
C1570 C 0.78208 0.66996 0.09297 0.0
C1571 C 0.79801 0.65761 0.08953 0.0
C1572 C 0.79829 0.6468 0.0715 0.0
C1573 C 0.78269 0.64836 0.05716 0.0
C1574 C 0.76666 0.66087 0.06123 0.0
H1575 H 0.95637 0.00401 0.10409 0.0
H1576 H 0.99185 0.05253 0.13083 0.0
H1577 H 0.97041 0.05247 0.15995 0.0
H1578 H 0.90914 0.01988 0.12107 0.0
H1579 H 0.8999 0.99518 0.12592 0.0
H1580 H 0.91796 0.99896 0.10698 0.0
H1581 H 0.94125 0.97408 0.12409 0.0
H1582 H 0.92324 0.97016 0.14305 0.0
H1583 H 0.94828 0.97791 0.14991 0.0
H1584 H 0.9452 0.04753 0.186 0.0
H1585 H 0.91815 0.03754 0.20786 0.0
H1586 H 0.89917 0.99149 0.16502 0.0
C1587 C 0.95976 0.01451 0.11614 0.0
C1588 C 0.97578 0.0284 0.11501 0.0
C1589 C 0.97949 0.04201 0.13108 0.0
C1590 C 0.96746 0.04201 0.14778 0.0
C1591 C 0.95178 0.02825 0.14832 0.0
C1592 C 0.94791 0.01468 0.133 0.0
C1593 C 0.9301 0.00144 0.13744 0.0
C1594 C 0.91328 0.00403 0.12193 0.0
C1595 C 0.93608 0.97961 0.1387 0.0
C1596 C 0.92456 0.00974 0.15763 0.0
C1597 C 0.93727 0.02522 0.16356 0.0
C1598 C 0.93517 0.0354 0.18155 0.0
C1599 C 0.9197 0.0296 0.19386 0.0
C1600 C 0.90647 0.01369 0.18823 0.0
C1601 C 0.90901 0.00367 0.16981 0.0
H1602 H 0.23556 0.7905 0.14469 0.0
H1603 H 0.23337 0.73048 0.11956 0.0
H1604 H 0.22782 0.74382 0.08646 0.0
H1605 H 0.20035 0.8132 0.1086 0.0
H1606 H 0.21513 0.83576 0.10745 0.0
H1607 H 0.21495 0.82174 0.13 0.0
H1608 H 0.25328 0.81969 0.12953 0.0
H1609 H 0.25356 0.83378 0.10713 0.0
H1610 H 0.26489 0.80981 0.10772 0.0
H1611 H 0.22733 0.76275 0.05585 0.0
H1612 H 0.23412 0.78648 0.02933 0.0
H1613 H 0.23801 0.83471 0.07287 0.0
C1614 C 0.2337 0.78008 0.13232 0.0
C1615 C 0.23452 0.7593 0.1351 0.0
C1616 C 0.23208 0.74638 0.11826 0.0
C1617 C 0.22901 0.75383 0.09922 0.0
C1618 C 0.22854 0.77429 0.09704 0.0
C1619 C 0.23093 0.78729 0.11306 0.0
C1620 C 0.23232 0.80862 0.10623 0.0
C1621 C 0.21463 0.82053 0.1135 0.0
C1622 C 0.25219 0.81855 0.11305 0.0
C1623 C 0.2312 0.80543 0.08384 0.0
C1624 C 0.22856 0.78549 0.07897 0.0
C1625 C 0.22895 0.77844 0.05941 0.0
C1626 C 0.2328 0.792 0.04446 0.0
C1627 C 0.23614 0.81236 0.04911 0.0
C1628 C 0.23479 0.81929 0.06895 0.0
H1629 H 0.04835 0.48475 0.13252 0.0
H1630 H 0.99538 0.45203 0.14944 0.0
H1631 H 0.00969 0.44806 0.18306 0.0
H1632 H 0.0833 0.4559 0.15982 0.0
H1633 H 0.09916 0.47671 0.16742 0.0
H1634 H 0.08472 0.47759 0.14461 0.0
H1635 H 0.06882 0.51017 0.15672 0.0
H1636 H 0.08325 0.50941 0.17957 0.0
H1637 H 0.05659 0.51079 0.18025 0.0
H1638 H 0.02977 0.44589 0.21375 0.0
H1639 H 0.0542 0.4471 0.24137 0.0
H1640 H 0.09442 0.48238 0.20609 0.0
C1641 C 0.03981 0.47683 0.14338 0.0
C1642 C 0.02069 0.46881 0.13846 0.0
C1643 C 0.00989 0.45855 0.153 0.0
C1644 C 0.01793 0.45613 0.1721 0.0
C1645 C 0.03675 0.46417 0.17649 0.0
C1646 C 0.04755 0.47445 0.1627 0.0
C1647 C 0.06749 0.48154 0.17154 0.0
C1648 C 0.08468 0.47238 0.16017 0.0
C1649 C 0.06912 0.50433 0.17205 0.0
C1650 C 0.06621 0.47337 0.19234 0.0
C1651 C 0.04834 0.46334 0.1947 0.0
C1652 C 0.04377 0.45382 0.21218 0.0
C1653 C 0.05782 0.45453 0.22775 0.0
C1654 C 0.07622 0.46484 0.2259 0.0
C1655 C 0.08041 0.47453 0.20797 0.0
H1656 H 0.36657 0.71601 0.28754 0.0
H1657 H 0.37041 0.75655 0.23838 0.0
H1658 H 0.40461 0.76601 0.24902 0.0
H1659 H 0.39307 0.74676 0.32294 0.0
H1660 H 0.40577 0.72679 0.33487 0.0
H1661 H 0.38194 0.72218 0.32282 0.0
H1662 H 0.3969 0.69437 0.30112 0.0
H1663 H 0.42081 0.6989 0.31311 0.0
H1664 H 0.41827 0.6999 0.28644 0.0
H1665 H 0.43733 0.7724 0.2655 0.0
H1666 H 0.46705 0.77584 0.28725 0.0
H1667 H 0.44301 0.73094 0.32599 0.0
C1668 C 0.37473 0.72666 0.27888 0.0
C1669 C 0.36579 0.73561 0.26215 0.0
C1670 C 0.37685 0.74971 0.25137 0.0
C1671 C 0.39634 0.75506 0.25721 0.0
C1672 C 0.40464 0.74616 0.27384 0.0
C1673 C 0.39427 0.73225 0.28455 0.0
C1674 C 0.40653 0.72563 0.30235 0.0
C1675 C 0.39621 0.73065 0.3219 0.0
C1676 C 0.41089 0.70337 0.30065 0.0
C1677 C 0.42527 0.73822 0.30008 0.0
C1678 C 0.42381 0.74983 0.28343 0.0
C1679 C 0.43874 0.76329 0.2785 0.0
C1680 C 0.45555 0.76516 0.29101 0.0
C1681 C 0.45741 0.75364 0.30833 0.0
C1682 C 0.44214 0.73977 0.31274 0.0
H1683 H 0.00117 0.38383 0.96247 0.0
H1684 H 0.97512 0.34841 0.0088 0.0
H1685 H 0.98066 0.318 0.98885 0.0
H1686 H 0.9781 0.35666 0.92233 0.0
H1687 H 0.99898 0.3593 0.90627 0.0
H1688 H 0.9947 0.37794 0.9251 0.0
H1689 H 0.03028 0.37339 0.93952 0.0
H1690 H 0.03464 0.35465 0.92077 0.0
H1691 H 0.03797 0.34904 0.94669 0.0
H1692 H 0.98808 0.29134 0.96293 0.0
H1693 H 0.9948 0.27131 0.93266 0.0
H1694 H 0.01384 0.32482 0.903 0.0
C1695 C 0.9965 0.36974 0.96849 0.0
C1696 C 0.98775 0.36864 0.98733 0.0
C1697 C 0.9822 0.34974 0.99461 0.0
C1698 C 0.9852 0.33234 0.98333 0.0
C1699 C 0.99367 0.33406 0.96474 0.0
C1700 C 0.99913 0.35232 0.95736 0.0
C1701 C 0.00687 0.35037 0.93653 0.0
C1702 C 0.99388 0.36173 0.92169 0.0
C1703 C 0.02874 0.35727 0.93585 0.0
C1704 C 0.00467 0.32817 0.93319 0.0
C1705 C 0.99731 0.31893 0.94971 0.0
C1706 C 0.99388 0.29843 0.94993 0.0
C1707 C 0.99778 0.28717 0.93271 0.0
C1708 C 0.00477 0.29651 0.91546 0.0
C1709 C 0.00843 0.31724 0.91591 0.0
H1710 H 0.64121 0.78765 0.27881 0.0
H1711 H 0.64948 0.72508 0.26616 0.0
H1712 H 0.62033 0.71671 0.28637 0.0
H1713 H 0.62418 0.78266 0.32977 0.0
H1714 H 0.60631 0.80199 0.32712 0.0
H1715 H 0.62875 0.80278 0.3131 0.0
H1716 H 0.60788 0.80474 0.28038 0.0
H1717 H 0.58542 0.80398 0.29428 0.0
H1718 H 0.58907 0.78591 0.27468 0.0
H1719 H 0.58925 0.71543 0.30714 0.0
H1720 H 0.55797 0.72155 0.32465 0.0
H1721 H 0.57007 0.785 0.32266 0.0
C1722 C 0.63711 0.77217 0.2806 0.0
C1723 C 0.64767 0.75699 0.27107 0.0
C1724 C 0.64154 0.73693 0.27334 0.0
C1725 C 0.62509 0.73204 0.28487 0.0
C1726 C 0.61489 0.74739 0.29397 0.0
C1727 C 0.62064 0.76705 0.29187 0.0
C1728 C 0.60647 0.78086 0.302 0.0
C1729 C 0.61706 0.79277 0.31901 0.0
C1730 C 0.59663 0.79468 0.28693 0.0
C1731 C 0.59167 0.76593 0.30989 0.0
C1732 C 0.59687 0.74668 0.30538 0.0
C1733 C 0.58509 0.73046 0.31082 0.0
C1734 C 0.56738 0.73406 0.3208 0.0
C1735 C 0.56153 0.75373 0.32499 0.0
C1736 C 0.57408 0.76977 0.31968 0.0
H1737 H 0.03508 0.13022 0.97039 0.0
H1738 H 0.00846 0.08254 0.93365 0.0
H1739 H 0.00226 0.10615 0.9069 0.0
H1740 H 1.00028 0.16773 0.95524 0.0
H1741 H 0.01878 0.18748 0.95571 0.0
H1742 H 0.02148 0.16677 0.972 0.0
H1743 H 0.0562 0.16019 0.95787 0.0
H1744 H 0.05357 0.18082 0.94148 0.0
H1745 H 0.05872 0.15653 0.93146 0.0
H1746 H 0.99945 0.13455 0.88382 0.0
H1747 H 0.99891 0.16633 0.86635 0.0
H1748 H 0.02586 0.19622 0.91833 0.0
C1749 C 0.02776 0.12474 0.95682 0.0
C1750 C 0.02248 0.10437 0.95414 0.0
C1751 C 0.0131 0.09791 0.93599 0.0
C1752 C 0.00936 0.11125 0.92071 0.0
C1753 C 0.0149 0.13112 0.92379 0.0
C1754 C 0.02376 0.13791 0.94142 0.0
C1755 C 0.02805 0.16011 0.94089 0.0
C1756 C 0.01645 0.17117 0.95691 0.0
C1757 C 0.05047 0.16467 0.94305 0.0
C1758 C 0.02027 0.16467 0.92018 0.0
C1759 C 0.01283 0.14768 0.91058 0.0
C1760 C 0.00514 0.14798 0.89121 0.0
C1761 C 0.00495 0.16612 0.88139 0.0
C1762 C 0.01229 0.18381 0.89095 0.0
C1763 C 0.02004 0.183 0.91064 0.0
H1764 H 0.40817 0.29097 0.24906 0.0
H1765 H 0.35123 0.26671 0.22776 0.0
H1766 H 0.36526 0.2602 0.19479 0.0
H1767 H 0.42152 0.31526 0.20476 0.0
H1768 H 0.44745 0.30937 0.20651 0.0
H1769 H 0.43323 0.3116 0.22872 0.0
H1770 H 0.44311 0.27617 0.23878 0.0
H1771 H 0.45746 0.27387 0.21664 0.0
H1772 H 0.43834 0.25565 0.22163 0.0
H1773 H 0.38442 0.25868 0.16377 0.0
H1774 H 0.40862 0.25919 0.13691 0.0
H1775 H 0.454 0.28266 0.17838 0.0
C1776 C 0.39876 0.28416 0.23745 0.0
C1777 C 0.37866 0.27926 0.24089 0.0
C1778 C 0.36674 0.27033 0.22544 0.0
C1779 C 0.37453 0.26669 0.20667 0.0
C1780 C 0.39434 0.27185 0.20367 0.0
C1781 C 0.40641 0.28012 0.21866 0.0
C1782 C 0.42723 0.28414 0.21142 0.0
C1783 C 0.43267 0.30642 0.21294 0.0
C1784 C 0.44243 0.27171 0.22279 0.0
C1785 C 0.42483 0.27714 0.18994 0.0
C1786 C 0.40568 0.27025 0.18581 0.0
C1787 C 0.39953 0.26382 0.16684 0.0
C1788 C 0.41336 0.26427 0.15168 0.0
C1789 C 0.43319 0.27089 0.1556 0.0
C1790 C 0.43899 0.27734 0.17502 0.0
H1791 H 0.50239 0.39803 0.0351 0.0
H1792 H 0.56311 0.38141 0.02356 0.0
H1793 H 0.55985 0.3541 0.04701 0.0
H1794 H 0.50039 0.38413 0.08667 0.0
H1795 H 0.47547 0.37399 0.08405 0.0
H1796 H 0.48337 0.39402 0.06853 0.0
H1797 H 0.47346 0.373 0.03703 0.0
H1798 H 0.46539 0.353 0.05244 0.0
H1799 H 0.48359 0.34865 0.03374 0.0
H1800 H 0.54957 0.32761 0.07112 0.0
H1801 H 0.53184 0.30199 0.09027 0.0
H1802 H 0.47702 0.33371 0.08242 0.0
C1803 C 0.51507 0.3887 0.03726 0.0
C1804 C 0.5331 0.39228 0.02741 0.0
C1805 C 0.54927 0.37959 0.0312 0.0
C1806 C 0.54755 0.36387 0.04447 0.0
C1807 C 0.5295 0.36074 0.05369 0.0
C1808 C 0.51347 0.37265 0.05 0.0
C1809 C 0.49511 0.36505 0.0602 0.0
C1810 C 0.48819 0.3802 0.07579 0.0
C1811 C 0.47841 0.3596 0.04494 0.0
C1812 C 0.50324 0.3468 0.06995 0.0
C1813 C 0.52323 0.34482 0.06646 0.0
C1814 C 0.53392 0.32901 0.07394 0.0
C1815 C 0.52377 0.3146 0.08486 0.0
C1816 C 0.5031 0.3159 0.08772 0.0
C1817 C 0.49283 0.33236 0.08039 0.0
H1818 H 0.6391 0.25659 0.19151 0.0
H1819 H 0.6138 0.21835 0.2359 0.0
H1820 H 0.5808 0.22068 0.21939 0.0
H1821 H 0.59817 0.28906 0.18684 0.0
H1822 H 0.60026 0.29174 0.16038 0.0
H1823 H 0.62195 0.28671 0.17542 0.0
H1824 H 0.62866 0.25565 0.15349 0.0
H1825 H 0.60703 0.26063 0.13832 0.0
H1826 H 0.60941 0.23683 0.1498 0.0
H1827 H 0.55037 0.22842 0.19894 0.0
H1828 H 0.52494 0.23925 0.17476 0.0
H1829 H 0.57027 0.27185 0.14322 0.0
C1830 C 0.6266 0.24871 0.19774 0.0
C1831 C 0.62896 0.23729 0.21498 0.0
C1832 C 0.61232 0.22701 0.22258 0.0
C1833 C 0.59352 0.22834 0.21338 0.0
C1834 C 0.59167 0.23988 0.19651 0.0
C1835 C 0.60778 0.24974 0.18865 0.0
C1836 C 0.6018 0.26104 0.17031 0.0
C1837 C 0.60578 0.28347 0.17344 0.0
C1838 C 0.61235 0.25305 0.15189 0.0
C1839 C 0.57976 0.25615 0.16919 0.0
C1840 C 0.57421 0.244 0.18449 0.0
C1841 C 0.55456 0.23784 0.18682 0.0
C1842 C 0.54021 0.24413 0.17304 0.0
C1843 C 0.54561 0.25636 0.15706 0.0
C1844 C 0.56568 0.26242 0.1552 0.0
H1845 H 0.45318 0.13899 0.02321 0.0
H1846 H 0.49565 0.10568 0.05782 0.0
H1847 H 0.50351 0.13569 0.07856 0.0
H1848 H 0.48155 0.18506 0.02316 0.0
H1849 H 0.45994 0.20019 0.02515 0.0
H1850 H 0.45793 0.17614 0.01303 0.0
H1851 H 0.4301 0.16577 0.03693 0.0
H1852 H 0.432 0.18978 0.0491 0.0
H1853 H 0.43471 0.16762 0.06339 0.0
H1854 H 0.5065 0.16951 0.09556 0.0
H1855 H 0.50359 0.20402 0.10811 0.0
H1856 H 0.45932 0.21476 0.06187 0.0
C1857 C 0.46431 0.13804 0.03501 0.0
C1858 C 0.47387 0.12004 0.03887 0.0
C1859 C 0.48803 0.1193 0.05472 0.0
C1860 C 0.49268 0.13628 0.06648 0.0
C1861 C 0.48302 0.15382 0.06218 0.0
C1862 C 0.46909 0.15477 0.04685 0.0
C1863 C 0.46049 0.17524 0.04551 0.0
C1864 C 0.46527 0.18471 0.02553 0.0
C1865 C 0.438 0.17455 0.04895 0.0
C1866 C 0.47168 0.18569 0.06255 0.0
C1867 C 0.48467 0.17315 0.07195 0.0
C1868 C 0.4964 0.17948 0.08828 0.0
C1869 C 0.49466 0.19911 0.09529 0.0
C1870 C 0.48123 0.21212 0.08598 0.0
C1871 C 0.46975 0.20525 0.06931 0.0
H1872 H 0.26812 0.37871 0.73054 0.0
H1873 H 0.30232 0.35638 0.68141 0.0
H1874 H 0.32329 0.387 0.68304 0.0
H1875 H 0.26892 0.43055 0.71602 0.0
H1876 H 0.27096 0.43962 0.74137 0.0
H1877 H 0.25831 0.41629 0.73568 0.0
H1878 H 0.28155 0.39869 0.76065 0.0
H1879 H 0.29425 0.42193 0.76641 0.0
H1880 H 0.30806 0.40089 0.75801 0.0
H1881 H 0.34148 0.41991 0.69124 0.0
H1882 H 0.35528 0.45159 0.70558 0.0
H1883 H 0.30818 0.45206 0.74847 0.0
C1884 C 0.27976 0.38036 0.71985 0.0
C1885 C 0.2835 0.36511 0.70581 0.0
C1886 C 0.29926 0.36774 0.69244 0.0
C1887 C 0.31117 0.38515 0.69316 0.0
C1888 C 0.30708 0.39984 0.70726 0.0
C1889 C 0.29171 0.3976 0.72031 0.0
C1890 C 0.29073 0.41519 0.73452 0.0
C1891 C 0.27106 0.42605 0.73172 0.0
C1892 C 0.29384 0.40878 0.75617 0.0
C1893 C 0.30811 0.42761 0.72761 0.0
C1894 C 0.31736 0.41863 0.71182 0.0
C1895 C 0.33424 0.42713 0.70351 0.0
C1896 C 0.34196 0.44514 0.71173 0.0
C1897 C 0.33281 0.45441 0.72811 0.0
C1898 C 0.31551 0.44553 0.73587 0.0
H1899 H 0.28493 0.63548 0.76979 0.0
H1900 H 0.31691 0.66437 0.72278 0.0
H1901 H 0.33674 0.6342 0.71808 0.0
H1902 H 0.32667 0.61028 0.79101 0.0
H1903 H 0.31215 0.58844 0.79674 0.0
H1904 H 0.30066 0.6123 0.79617 0.0
H1905 H 0.2744 0.59847 0.77043 0.0
H1906 H 0.28582 0.57458 0.7709 0.0
H1907 H 0.28247 0.58705 0.74765 0.0
H1908 H 0.35317 0.60025 0.71879 0.0
H1909 H 0.36412 0.56592 0.7246 0.0
H1910 H 0.32127 0.56038 0.77144 0.0
C1911 C 0.29627 0.63562 0.75865 0.0
C1912 C 0.29941 0.65237 0.74673 0.0
C1913 C 0.31411 0.65167 0.73201 0.0
C1914 C 0.32552 0.63464 0.7293 0.0
C1915 C 0.32204 0.61843 0.74141 0.0
C1916 C 0.30773 0.61884 0.75578 0.0
C1917 C 0.30664 0.59952 0.76678 0.0
C1918 C 0.31185 0.60284 0.78899 0.0
C1919 C 0.28612 0.58931 0.76375 0.0
C1920 C 0.32256 0.5881 0.75638 0.0
C1921 C 0.33134 0.59917 0.7418 0.0
C1922 C 0.34639 0.59148 0.7302 0.0
C1923 C 0.35252 0.57198 0.73361 0.0
C1924 C 0.3436 0.5604 0.74847 0.0
C1925 C 0.32847 0.56874 0.75996 0.0
H1926 H 0.86193 0.48251 0.48882 0.0
H1927 H 0.91216 0.45204 0.51441 0.0
H1928 H 0.89059 0.42277 0.52037 0.0
H1929 H 0.82544 0.46332 0.52311 0.0
H1930 H 0.80585 0.4611 0.50444 0.0
H1931 H 0.82515 0.47984 0.50237 0.0
H1932 H 0.83309 0.46621 0.46726 0.0
H1933 H 0.81385 0.44743 0.46923 0.0
H1934 H 0.83886 0.44037 0.46401 0.0
H1935 H 0.86446 0.3963 0.52165 0.0
H1936 H 0.83451 0.37458 0.52025 0.0
H1937 H 0.8004 0.42251 0.49555 0.0
C1938 C 0.8683 0.46967 0.49572 0.0
C1939 C 0.88866 0.46948 0.50121 0.0
C1940 C 0.89654 0.4525 0.5103 0.0
C1941 C 0.88444 0.43581 0.51366 0.0
C1942 C 0.86446 0.43643 0.50805 0.0
C1943 C 0.85635 0.45294 0.49946 0.0
C1944 C 0.83435 0.44966 0.49495 0.0
C1945 C 0.82197 0.46435 0.50694 0.0
C1946 C 0.82978 0.45099 0.47253 0.0
C1947 C 0.83147 0.42862 0.50211 0.0
C1948 C 0.84909 0.42128 0.50949 0.0
C1949 C 0.85051 0.40192 0.51612 0.0
C1950 C 0.83344 0.38969 0.51519 0.0
C1951 C 0.81515 0.39693 0.50792 0.0
C1952 C 0.81414 0.41671 0.50144 0.0
H1953 H 0.72313 0.88595 0.81539 0.0
H1954 H 0.76788 0.92297 0.78773 0.0
H1955 H 0.74226 0.94712 0.77921 0.0
H1956 H 0.68545 0.89312 0.77801 0.0
H1957 H 0.66549 0.89286 0.79536 0.0
H1958 H 0.68762 0.87922 0.80053 0.0
H1959 H 0.69224 0.89805 0.83433 0.0
H1960 H 0.67015 0.91181 0.82923 0.0
H1961 H 0.69332 0.92481 0.83491 0.0
H1962 H 0.71159 0.96722 0.77353 0.0
H1963 H 0.67797 0.98062 0.76926 0.0
H1964 H 0.65315 0.92906 0.79828 0.0
C1965 C 0.72764 0.899 0.80737 0.0
C1966 C 0.74768 0.9025 0.80238 0.0
C1967 C 0.75278 0.92005 0.79216 0.0
C1968 C 0.73829 0.93383 0.78712 0.0
C1969 C 0.71872 0.9298 0.7922 0.0
C1970 C 0.71336 0.91272 0.80194 0.0
C1971 C 0.69118 0.91143 0.80493 0.0
C1972 C 0.68189 0.89307 0.79405 0.0
C1973 C 0.68645 0.91154 0.82717 0.0
C1974 C 0.68487 0.93044 0.79528 0.0
C1975 C 0.70099 0.94095 0.78823 0.0
C1976 C 0.69885 0.95909 0.77893 0.0
C1977 C 0.67971 0.9666 0.77663 0.0
C1978 C 0.66294 0.95584 0.78336 0.0
C1979 C 0.66566 0.93756 0.79286 0.0
H1980 H 0.63783 0.53275 0.95367 0.0
H1981 H 0.60723 0.56163 0.00199 0.0
H1982 H 0.63732 0.58209 0.0099 0.0
H1983 H 0.68546 0.53125 0.97711 0.0
H1984 H 0.69878 0.53659 0.95486 0.0
H1985 H 0.67488 0.52411 0.95311 0.0
H1986 H 0.66185 0.55125 0.92968 0.0
H1987 H 0.68576 0.56372 0.93122 0.0
H1988 H 0.66377 0.57696 0.93757 0.0
H1989 H 0.67137 0.59882 0.01307 0.0
H1990 H 0.70567 0.61199 0.00967 0.0
H1991 H 0.71288 0.57325 0.95817 0.0
C1992 C 0.63725 0.54358 0.96572 0.0
C1993 C 0.62008 0.54546 0.97724 0.0
C1994 C 0.62026 0.55962 0.99313 0.0
C1995 C 0.63726 0.5714 0.99769 0.0
C1996 C 0.65394 0.56899 0.98613 0.0
C1997 C 0.65397 0.55557 0.97035 0.0
C1998 C 0.67368 0.55598 0.96005 0.0
C1999 C 0.68379 0.53579 0.96137 0.0
C2000 C 0.67111 0.56237 0.93835 0.0
C2001 C 0.68477 0.57171 0.97253 0.0
C2002 C 0.67323 0.57895 0.9876 0.0
C2003 C 0.6805 0.59334 0.00124 0.0
C2004 C 0.70001 0.60067 0.99924 0.0
C2005 C 0.71192 0.59373 0.98361 0.0
C2006 C 0.70412 0.57899 0.9702 0.0
H2007 H 0.18621 0.63077 0.23454 0.0
H2008 H 0.2323 0.61578 0.27748 0.0
H2009 H 0.21481 0.58404 0.2836 0.0
H2010 H 0.14483 0.60934 0.26162 0.0
H2011 H 0.13182 0.6005 0.23936 0.0
H2012 H 0.1477 0.62233 0.23867 0.0
H2013 H 0.16741 0.60619 0.21025 0.0
H2014 H 0.15169 0.58426 0.21094 0.0
H2015 H 0.17822 0.58225 0.21385 0.0
H2016 H 0.19335 0.55366 0.2842 0.0
H2017 H 0.16839 0.52664 0.28039 0.0
H2018 H 0.13533 0.56128 0.23764 0.0
C2019 C 0.19246 0.62095 0.24546 0.0
C2020 C 0.2107 0.62574 0.25548 0.0
C2021 C 0.21852 0.61233 0.26943 0.0
C2022 C 0.20864 0.59431 0.27308 0.0
C2023 C 0.19089 0.58994 0.26275 0.0
C2024 C 0.18276 0.60289 0.24933 0.0
C2025 C 0.16359 0.59437 0.24006 0.0
C2026 C 0.14594 0.60741 0.24525 0.0
C2027 C 0.16534 0.5916 0.21744 0.0
C2028 C 0.16233 0.57454 0.25028 0.0
C2029 C 0.17827 0.57236 0.26328 0.0
C2030 C 0.18073 0.55523 0.27417 0.0
C2031 C 0.16645 0.53993 0.27183 0.0
C2032 C 0.14982 0.54181 0.25873 0.0
C2033 C 0.14779 0.5594 0.24782 0.0
H2034 H 0.87793 0.52567 0.03268 0.0
H2035 H 0.9158 0.53674 0.98249 0.0
H2036 H 0.89127 0.55963 0.969 0.0
H2037 H 0.83172 0.5272 0.00717 0.0
H2038 H 0.81918 0.54028 0.02664 0.0
H2039 H 0.83977 0.52475 0.03271 0.0
H2040 H 0.85781 0.55443 0.05095 0.0
H2041 H 0.83722 0.57005 0.04502 0.0
H2042 H 0.86195 0.57723 0.03795 0.0
H2043 H 0.86189 0.57923 0.95956 0.0
H2044 H 0.83036 0.59686 0.95612 0.0
H2045 H 0.8127 0.57613 0.01384 0.0
C2046 C 0.8813 0.53313 0.01904 0.0
C2047 C 0.89879 0.52903 0.00855 0.0
C2048 C 0.90234 0.53906 0.99059 0.0
C2049 C 0.88857 0.55229 0.98287 0.0
C2050 C 0.87145 0.55572 0.99343 0.0
C2051 C 0.86787 0.5467 0.01127 0.0
C2052 C 0.84825 0.55315 0.01962 0.0
C2053 C 0.83388 0.53528 0.02165 0.0
C2054 C 0.85151 0.56438 0.03957 0.0
C2055 C 0.84123 0.5669 0.00347 0.0
C2056 C 0.85484 0.56802 0.98846 0.0
C2057 C 0.85125 0.57873 0.97134 0.0
C2058 C 0.83328 0.5886 0.96948 0.0
C2059 C 0.81924 0.58794 0.98478 0.0
C2060 C 0.82335 0.57711 0.00209 0.0
H2061 H 0.13612 0.9681 0.02922 0.0
H2062 H 0.0871 0.93534 0.0001 0.0
H2063 H 0.10902 0.90717 0.99388 0.0
H2064 H 0.17371 0.95167 0.99609 0.0
H2065 H 0.19274 0.94995 0.01521 0.0
H2066 H 0.17314 0.96746 0.018 0.0
H2067 H 0.1642 0.95217 0.05172 0.0
H2068 H 0.18382 0.93464 0.04907 0.0
H2069 H 0.15875 0.92591 0.05291 0.0
H2070 H 0.13586 0.88266 0.99071 0.0
H2071 H 0.16636 0.86328 0.99011 0.0
H2072 H 0.19873 0.91177 0.02067 0.0
C2073 C 0.13001 0.95492 0.02169 0.0
C2074 C 0.1099 0.95392 0.01509 0.0
C2075 C 0.10249 0.93651 0.00508 0.0
C2076 C 0.1148 0.9204 0.00157 0.0
C2077 C 0.13455 0.9219 0.00808 0.0
C2078 C 0.14218 0.9387 0.01789 0.0
C2079 C 0.16411 0.93653 0.02288 0.0
C2080 C 0.17666 0.95234 0.01242 0.0
C2081 C 0.16794 0.93736 0.04549 0.0
C2082 C 0.16756 0.91591 0.01432 0.0
C2083 C 0.15024 0.90776 0.00596 0.0
C2084 C 0.14953 0.88887 0.9972 0.0
C2085 C 0.16698 0.87797 0.99695 0.0
C2086 C 0.185 0.88597 0.00531 0.0
C2087 C 0.18523 0.90525 0.0141 0.0
loop_
_geom_bond_atom_site_label_1
_geom_bond_atom_site_label_2
_geom_bond_distance
_geom_bond_site_symmetry_2
_ccdc_geom_bond_type
C0 C1 1.386 . S
C0 C2 1.397 . S
C0 H24 0.931 . S
C1 C0 1.386 . S
C1 C5 1.397 1_556 S
C2 C0 1.397 . S
C2 C3 1.384 1_556 S
C2 H25 0.930 . S
C3 C2 1.384 1_554 S
C3 C4 1.377 . S
C3 C6 1.481 . S
C4 C3 1.377 . S
C4 C5 1.389 . S
C4 H26 0.929 . S
C5 C1 1.397 1_554 S
C5 C4 1.389 . S
C5 H27 0.931 . S
C6 C3 1.481 . S
C6 C7 1.387 . S
C6 C11 1.390 . S
C7 C6 1.387 . S
C7 C8 1.401 . S
C7 H28 0.930 . S
C8 C7 1.401 . S
C8 C9 1.376 . S
C8 C17 1.511 . S
C9 C8 1.376 . S
C9 C10 1.392 . S
C9 H30 0.931 . S
C10 C9 1.392 . S
C10 C11 1.361 . S
C10 C12 1.500 . S
C11 C6 1.390 . S
C11 C10 1.361 . S
C11 H29 0.931 . S
C12 C10 1.500 . S
C12 C13 1.371 . S
C12 C14 1.365 . S
C13 C12 1.371 . S
C13 C23 1.379 1_455 S
C13 H31 0.931 . S
C14 C12 1.365 . S
C14 C15 1.409 1_455 S
C14 H32 0.929 . S
C15 C14 1.409 1_655 S
C15 C16 1.380 . S
C15 H33 0.930 . S
C16 C15 1.380 . S
C16 C23 1.362 . S
C17 C8 1.511 . S
C17 C18 1.341 . S
C17 C19 1.371 . S
C18 C17 1.341 . S
C18 C22 1.394 . S
C18 H34 0.930 . S
C19 C17 1.371 . S
C19 C20 1.392 1_545 S
C19 H35 0.931 . S
C20 C19 1.392 1_565 S
C20 C21 1.331 . S
C20 H38 0.932 . S
C21 C20 1.331 . S
C21 C22 1.336 1_565 S
C22 C18 1.394 . S
C22 C21 1.336 1_545 S
C22 H37 0.931 . S
C23 C13 1.379 1_655 S
C23 C16 1.362 . S
C23 H36 0.945 . S
H24 C0 0.931 . S
H25 C2 0.930 . S
H26 C4 0.929 . S
H27 C5 0.931 . S
H28 C7 0.930 . S
H29 C11 0.931 . S
H30 C9 0.931 . S
H31 C13 0.931 . S
H32 C14 0.929 . S
H33 C15 0.930 . S
H34 C18 0.930 . S
H35 C19 0.931 . S
H36 C23 0.945 . S
H37 C22 0.931 . S
H38 C20 0.932 . S
C39 C40 1.386 . S
C39 C41 1.397 . S
C39 H63 0.931 . S
C40 C39 1.386 . S
C40 C44 1.397 . S
C41 C39 1.397 . S
C41 C42 1.384 . S
C41 H64 0.930 . S
C42 C41 1.384 . S
C42 C43 1.377 . S
C42 C45 1.481 . S
C43 C42 1.377 . S
C43 C44 1.389 . S
C43 H65 0.929 . S
C44 C40 1.397 . S
C44 C43 1.389 . S
C44 H66 0.931 . S
C45 C42 1.481 . S
C45 C46 1.387 . S
C45 C50 1.390 . S
C46 C45 1.387 . S
C46 C47 1.401 . S
C46 H67 0.930 . S
C47 C46 1.401 . S
C47 C48 1.376 . S
C47 C56 1.511 . S
C48 C47 1.376 . S
C48 C49 1.392 . S
C48 H69 0.931 . S
C49 C48 1.392 . S
C49 C50 1.361 . S
C49 C51 1.500 . S
C50 C45 1.390 . S
C50 C49 1.361 . S
C50 H68 0.931 . S
C51 C49 1.500 . S
C51 C52 1.371 . S
C51 C53 1.365 . S
C52 C51 1.371 . S
C52 C62 1.386 . S
C52 H70 0.931 . S
C53 C51 1.365 . S
C53 C54 1.409 . S
C53 H71 0.929 . S
C54 C53 1.409 . S
C54 C55 1.380 . S
C54 H72 0.930 . S
C55 C54 1.380 . S
C55 C62 1.357 . S
C56 C47 1.511 . S
C56 C57 1.341 . S
C56 C58 1.371 . S
C57 C56 1.341 . S
C57 C61 1.394 . S
C57 H73 0.930 . S
C58 C56 1.371 . S
C58 C59 1.392 . S
C58 H74 0.931 . S
C59 C58 1.392 . S
C59 C60 1.331 . S
C59 H77 0.932 . S
C60 C59 1.331 . S
C60 C61 1.336 . S
C61 C57 1.394 . S
C61 C60 1.336 . S
C61 H76 0.929 . S
C62 C52 1.386 . S
C62 C55 1.357 . S
C62 H75 0.928 . S
H63 C39 0.931 . S
H64 C41 0.930 . S
H65 C43 0.929 . S
H66 C44 0.931 . S
H67 C46 0.930 . S
H68 C50 0.931 . S
H69 C48 0.931 . S
H70 C52 0.931 . S
H71 C53 0.929 . S
H72 C54 0.930 . S
H73 C57 0.930 . S
H74 C58 0.931 . S
H75 C62 0.928 . S
H76 C61 0.929 . S
H77 C59 0.932 . S
C78 C79 1.386 1_655 S
C78 C80 1.397 . S
C78 H102 0.931 . S
C79 C78 1.386 1_455 S
C79 C83 1.397 . S
C80 C78 1.397 . S
C80 C81 1.384 . S
C80 H103 0.930 . S
C81 C80 1.384 . S
C81 C82 1.377 . S
C81 C84 1.481 . S
C82 C81 1.377 . S
C82 C83 1.389 1_655 S
C82 H104 0.920 1_655 S
C83 C79 1.397 . S
C83 C82 1.389 1_455 S
C83 H105 0.931 . S
C84 C81 1.481 . S
C84 C85 1.387 . S
C84 C89 1.390 . S
C85 C84 1.387 . S
C85 C86 1.401 . S
C85 H106 0.930 . S
C86 C85 1.401 . S
C86 C87 1.376 . S
C86 C95 1.511 . S
C87 C86 1.376 . S
C87 C88 1.392 . S
C87 H108 0.931 . S
C88 C87 1.392 . S
C88 C89 1.361 . S
C88 C90 1.500 . S
C89 C84 1.390 . S
C89 C88 1.361 . S
C89 H107 0.931 . S
C90 C88 1.500 . S
C90 C91 1.371 . S
C90 C92 1.365 . S
C91 C90 1.371 . S
C91 C101 1.386 . S
C91 H109 0.931 . S
C92 C90 1.365 . S
C92 C93 1.409 . S
C92 H110 0.929 . S
C93 C92 1.409 . S
C93 C94 1.380 . S
C93 H111 0.930 . S
C94 C93 1.380 . S
C94 C101 1.357 . S
C95 C86 1.511 . S
C95 C96 1.341 . S
C95 C97 1.371 . S
C96 C95 1.341 . S
C96 C100 1.394 . S
C96 H112 0.930 . S
C97 C95 1.371 . S
C97 C98 1.392 . S
C97 H113 0.931 . S
C98 C97 1.392 . S
C98 C99 1.331 . S
C98 H116 0.932 . S
C99 C98 1.331 . S
C99 C100 1.336 . S
C100 C96 1.394 . S
C100 C99 1.336 . S
C100 H115 0.929 . S
C101 C91 1.386 . S
C101 C94 1.357 . S
C101 H114 0.917 1_554 S
H102 C78 0.931 . S
H103 C80 0.930 . S
H104 C82 0.920 1_455 S
H105 C83 0.931 . S
H106 C85 0.930 . S
H107 C89 0.931 . S
H108 C87 0.931 . S
H109 C91 0.931 . S
H110 C92 0.929 . S
H111 C93 0.930 . S
H112 C96 0.930 . S
H113 C97 0.931 . S
H114 C101 0.917 1_556 S
H115 C100 0.929 . S
H116 C98 0.932 . S
C117 C118 1.386 . S
C117 C119 1.397 . S
C117 H141 0.931 . S
C118 C117 1.386 . S
C118 C122 1.397 . S
C119 C117 1.397 . S
C119 C120 1.384 . S
C119 H142 0.930 . S
C120 C119 1.384 . S
C120 C121 1.377 . S
C120 C123 1.481 . S
C121 C120 1.377 . S
C121 C122 1.389 . S
C121 H143 0.929 . S
C122 C118 1.397 . S
C122 C121 1.389 . S
C122 H144 0.931 . S
C123 C120 1.481 . S
C123 C124 1.387 . S
C123 C128 1.390 . S
C124 C123 1.387 . S
C124 C125 1.401 . S
C124 H145 0.930 . S
C125 C124 1.401 . S
C125 C126 1.376 . S
C125 C134 1.511 . S
C126 C125 1.376 . S
C126 C127 1.392 . S
C126 H147 0.931 . S
C127 C126 1.392 . S
C127 C128 1.361 . S
C127 C129 1.500 . S
C128 C123 1.390 . S
C128 C127 1.361 . S
C128 H146 0.931 . S
C129 C127 1.500 . S
C129 C130 1.371 . S
C129 C131 1.365 . S
C130 C129 1.371 . S
C130 C140 1.386 . S
C130 H148 0.931 . S
C131 C129 1.365 . S
C131 C132 1.409 . S
C131 H149 0.929 . S
C132 C131 1.409 . S
C132 C133 1.380 . S
C132 H150 0.930 . S
C133 C132 1.380 . S
C133 C140 1.357 . S
C134 C125 1.511 . S
C134 C135 1.341 . S
C134 C136 1.371 . S
C135 C134 1.341 . S
C135 C139 1.394 . S
C135 H151 0.930 . S
C136 C134 1.371 . S
C136 C137 1.392 . S
C136 H152 0.931 . S
C137 C136 1.392 . S
C137 C138 1.331 . S
C137 H155 0.932 . S
C138 C137 1.331 . S
C138 C139 1.336 . S
C139 C135 1.394 . S
C139 C138 1.336 . S
C139 H154 0.929 . S
C140 C130 1.386 . S
C140 C133 1.357 . S
C140 H153 0.928 . S
H141 C117 0.931 . S
H142 C119 0.930 . S
H143 C121 0.929 . S
H144 C122 0.931 . S
H145 C124 0.930 . S
H146 C128 0.931 . S
H147 C126 0.931 . S
H148 C130 0.931 . S
H149 C131 0.929 . S
H150 C132 0.930 . S
H151 C135 0.930 . S
H152 C136 0.931 . S
H153 C140 0.928 . S
H154 C139 0.929 . S
H155 C137 0.932 . S
C156 C157 1.386 1_655 S
C156 C158 1.397 1_655 S
C156 H180 0.931 . S
C157 C156 1.386 1_455 S
C157 C161 1.397 . S
C158 C156 1.397 1_455 S
C158 C159 1.384 . S
C158 H181 0.930 . S
C159 C158 1.384 . S
C159 C160 1.377 . S
C159 C162 1.481 . S
C160 C159 1.377 . S
C160 C161 1.389 . S
C160 H182 0.929 . S
C161 C157 1.397 . S
C161 C160 1.389 . S
C161 H183 0.931 . S
C162 C159 1.481 . S
C162 C163 1.387 . S
C162 C167 1.390 . S
C163 C162 1.387 . S
C163 C164 1.401 . S
C163 H184 0.930 . S
C164 C163 1.401 . S
C164 C165 1.376 . S
C164 C173 1.511 . S
C165 C164 1.376 . S
C165 C166 1.392 . S
C165 H186 0.931 . S
C166 C165 1.392 . S
C166 C167 1.361 . S
C166 C168 1.500 . S
C167 C162 1.390 . S
C167 C166 1.361 . S
C167 H185 0.931 . S
C168 C166 1.500 . S
C168 C169 1.371 . S
C168 C170 1.365 . S
C169 C168 1.371 . S
C169 C179 1.386 . S
C169 H187 0.931 . S
C170 C168 1.365 . S
C170 C171 1.442 . S
C170 H188 0.929 . S
C171 C170 1.442 . S
C171 C172 1.373 1_565 S
C171 H189 0.907 1_565 S
C172 C171 1.373 1_545 S
C172 C179 1.357 1_545 S
C173 C164 1.511 . S
C173 C174 1.341 . S
C173 C175 1.371 . S
C174 C173 1.341 . S
C174 C178 1.394 . S
C174 H190 0.930 . S
C175 C173 1.371 . S
C175 C176 1.392 . S
C175 H191 0.931 . S
C176 C175 1.392 . S
C176 C177 1.331 . S
C176 H194 0.932 . S
C177 C176 1.331 . S
C177 C178 1.336 . S
C178 C174 1.394 . S
C178 C177 1.336 . S
C178 H193 0.929 . S
C179 C169 1.386 . S
C179 C172 1.357 1_565 S
C179 H192 0.928 . S
H180 C156 0.931 . S
H181 C158 0.930 . S
H182 C160 0.929 . S
H183 C161 0.931 . S
H184 C163 0.930 . S
H185 C167 0.931 . S
H186 C165 0.931 . S
H187 C169 0.931 . S
H188 C170 0.929 . S
H189 C171 0.907 1_545 S
H190 C174 0.930 . S
H191 C175 0.931 . S
H192 C179 0.928 . S
H193 C178 0.929 . S
H194 C176 0.932 . S
C195 C196 1.386 . S
C195 C197 1.397 . S
C195 H219 0.931 . S
C196 C195 1.386 . S
C196 C200 1.397 . S
C197 C195 1.397 . S
C197 C198 1.384 . S
C197 H220 0.930 . S
C198 C197 1.384 . S
C198 C199 1.377 . S
C198 C201 1.481 . S
C199 C198 1.377 . S
C199 C200 1.389 . S
C199 H221 0.929 . S
C200 C196 1.397 . S
C200 C199 1.389 . S
C200 H222 0.931 . S
C201 C198 1.481 . S
C201 C202 1.387 . S
C201 C206 1.390 . S
C202 C201 1.387 . S
C202 C203 1.401 . S
C202 H223 0.930 . S
C203 C202 1.401 . S
C203 C204 1.376 . S
C203 C212 1.511 . S
C204 C203 1.376 . S
C204 C205 1.392 . S
C204 H225 0.931 . S
C205 C204 1.392 . S
C205 C206 1.361 . S
C205 C207 1.500 . S
C206 C201 1.390 . S
C206 C205 1.361 . S
C206 H224 0.931 . S
C207 C205 1.500 . S
C207 C208 1.371 . S
C207 C209 1.365 . S
C208 C207 1.371 . S
C208 C218 1.386 . S
C208 H226 0.931 . S
C209 C207 1.365 . S
C209 C210 1.409 . S
C209 H227 0.929 . S
C210 C209 1.409 . S
C210 C211 1.380 . S
C210 H228 0.930 . S
C211 C210 1.380 . S
C211 C218 1.357 . S
C212 C203 1.511 . S
C212 C213 1.341 . S
C212 C214 1.371 . S
C213 C212 1.341 . S
C213 C217 1.394 . S
C213 H229 0.930 . S
C214 C212 1.371 . S
C214 C215 1.392 . S
C214 H230 0.931 . S
C215 C214 1.392 . S
C215 C216 1.331 . S
C215 H233 0.932 . S
C216 C215 1.331 . S
C216 C217 1.336 . S
C217 C213 1.394 . S
C217 C216 1.336 . S
C217 H232 0.929 . S
C218 C208 1.386 . S
C218 C211 1.357 . S
C218 H231 0.928 . S
H219 C195 0.931 . S
H220 C197 0.930 . S
H221 C199 0.929 . S
H222 C200 0.931 . S
H223 C202 0.930 . S
H224 C206 0.931 . S
H225 C204 0.931 . S
H226 C208 0.931 . S
H227 C209 0.929 . S
H228 C210 0.930 . S
H229 C213 0.930 . S
H230 C214 0.931 . S
H231 C218 0.928 . S
H232 C217 0.929 . S
H233 C215 0.932 . S
C234 C235 1.386 . S
C234 C236 1.397 . S
C234 H258 0.931 . S
C235 C234 1.386 . S
C235 C239 1.397 . S
C236 C234 1.397 . S
C236 C237 1.384 . S
C236 H259 0.930 . S
C237 C236 1.384 . S
C237 C238 1.377 . S
C237 C240 1.481 . S
C238 C237 1.377 . S
C238 C239 1.389 . S
C238 H260 0.929 . S
C239 C235 1.397 . S
C239 C238 1.389 . S
C239 H261 0.931 . S
C240 C237 1.481 . S
C240 C241 1.387 . S
C240 C245 1.390 . S
C241 C240 1.387 . S
C241 C242 1.401 . S
C241 H262 0.930 . S
C242 C241 1.401 . S
C242 C243 1.376 . S
C242 C251 1.511 . S
C243 C242 1.376 . S
C243 C244 1.392 . S
C243 H264 0.931 . S
C244 C243 1.392 . S
C244 C245 1.361 . S
C244 C246 1.500 . S
C245 C240 1.390 . S
C245 C244 1.361 . S
C245 H263 0.931 . S
C246 C244 1.500 . S
C246 C247 1.371 . S
C246 C248 1.365 . S
C247 C246 1.371 . S
C247 C257 1.386 . S
C247 H265 0.931 . S
C248 C246 1.365 . S
C248 C249 1.409 . S
C248 H266 0.929 . S
C249 C248 1.409 . S
C249 C250 1.380 . S
C249 H267 0.930 . S
C250 C249 1.380 . S
C250 C257 1.357 . S
C251 C242 1.511 . S
C251 C252 1.341 . S
C251 C253 1.371 . S
C252 C251 1.341 . S
C252 C256 1.394 1_655 S
C252 H268 0.930 . S
C253 C251 1.371 . S
C253 C254 1.392 . S
C253 H269 0.931 . S
C254 C253 1.392 . S
C254 C255 1.331 1_655 S
C254 H272 0.932 . S
C255 C254 1.331 1_455 S
C255 C256 1.336 . S
C256 C252 1.394 1_455 S
C256 C255 1.336 . S
C256 H271 0.929 . S
C257 C247 1.386 . S
C257 C250 1.357 . S
C257 H270 0.928 . S
H258 C234 0.931 . S
H259 C236 0.930 . S
H260 C238 0.929 . S
H261 C239 0.931 . S
H262 C241 0.930 . S
H263 C245 0.931 . S
H264 C243 0.931 . S
H265 C247 0.931 . S
H266 C248 0.929 . S
H267 C249 0.930 . S
H268 C252 0.930 . S
H269 C253 0.931 . S
H270 C257 0.928 . S
H271 C256 0.929 . S
H272 C254 0.932 . S
C273 C274 1.386 . S
C273 C275 1.397 . S
C273 H297 0.931 . S
C274 C273 1.386 . S
C274 C278 1.397 . S
C275 C273 1.397 . S
C275 C276 1.384 . S
C275 H298 0.930 . S
C276 C275 1.384 . S
C276 C277 1.377 . S
C276 C279 1.481 . S
C277 C276 1.377 . S
C277 C278 1.389 . S
C277 H299 0.929 . S
C278 C274 1.397 . S
C278 C277 1.389 . S
C278 H300 0.931 . S
C279 C276 1.481 . S
C279 C280 1.387 . S
C279 C284 1.390 . S
C280 C279 1.387 . S
C280 C281 1.401 . S
C280 H301 0.930 . S
C281 C280 1.401 . S
C281 C282 1.376 . S
C281 C290 1.511 . S
C282 C281 1.376 . S
C282 C283 1.392 . S
C282 H303 0.931 . S
C283 C282 1.392 . S
C283 C284 1.361 . S
C283 C285 1.500 . S
C284 C279 1.390 . S
C284 C283 1.361 . S
C284 H302 0.931 . S
C285 C283 1.500 . S
C285 C286 1.371 . S
C285 C287 1.365 . S
C286 C285 1.371 . S
C286 C296 1.386 . S
C286 H304 0.931 . S
C287 C285 1.365 . S
C287 C288 1.409 . S
C287 H305 0.929 . S
C288 C287 1.409 . S
C288 C289 1.380 . S
C288 H306 0.930 . S
C289 C288 1.380 . S
C289 C296 1.357 . S
C290 C281 1.511 . S
C290 C291 1.341 . S
C290 C292 1.371 . S
C291 C290 1.341 . S
C291 C295 1.394 . S
C291 H307 0.930 . S
C292 C290 1.371 . S
C292 C293 1.392 . S
C292 H308 0.931 . S
C293 C292 1.392 . S
C293 C294 1.331 . S
C293 H311 0.932 . S
C294 C293 1.331 . S
C294 C295 1.336 . S
C295 C291 1.394 . S
C295 C294 1.336 . S
C295 H310 0.929 . S
C296 C286 1.386 . S
C296 C289 1.357 . S
C296 H309 0.928 . S
H297 C273 0.931 . S
H298 C275 0.930 . S
H299 C277 0.929 . S
H300 C278 0.931 . S
H301 C280 0.930 . S
H302 C284 0.931 . S
H303 C282 0.931 . S
H304 C286 0.931 . S
H305 C287 0.929 . S
H306 C288 0.930 . S
H307 C291 0.930 . S
H308 C292 0.931 . S
H309 C296 0.928 . S
H310 C295 0.929 . S
H311 C293 0.932 . S
C312 C313 1.386 . S
C312 C314 1.397 . S
C312 H336 0.931 . S
C313 C312 1.386 . S
C313 C317 1.397 . S
C314 C312 1.397 . S
C314 C315 1.384 . S
C314 H337 0.930 . S
C315 C314 1.384 . S
C315 C316 1.377 . S
C315 C318 1.481 . S
C316 C315 1.377 . S
C316 C317 1.389 . S
C316 H338 0.929 . S
C317 C313 1.397 . S
C317 C316 1.389 . S
C317 H339 0.931 . S
C318 C315 1.481 . S
C318 C319 1.387 . S
C318 C323 1.390 . S
C319 C318 1.387 . S
C319 C320 1.401 . S
C319 H340 0.930 . S
C320 C319 1.401 . S
C320 C321 1.376 . S
C320 C329 1.511 . S
C321 C320 1.376 . S
C321 C322 1.392 . S
C321 H342 0.931 . S
C322 C321 1.392 . S
C322 C323 1.361 . S
C322 C324 1.500 . S
C323 C318 1.390 . S
C323 C322 1.361 . S
C323 H341 0.931 . S
C324 C322 1.500 . S
C324 C325 1.371 . S
C324 C326 1.365 . S
C325 C324 1.371 . S
C325 C335 1.386 . S
C325 H343 0.931 . S
C326 C324 1.365 . S
C326 C327 1.409 . S
C326 H344 0.929 . S
C327 C326 1.409 . S
C327 C328 1.380 . S
C327 H345 0.930 . S
C328 C327 1.380 . S
C328 C335 1.357 . S
C329 C320 1.511 . S
C329 C330 1.341 . S
C329 C331 1.371 . S
C330 C329 1.341 . S
C330 C334 1.394 . S
C330 H346 0.930 . S
C331 C329 1.371 . S
C331 C332 1.392 . S
C331 H347 0.931 . S
C332 C331 1.392 . S
C332 C333 1.331 . S
C332 H350 0.932 . S
C333 C332 1.331 . S
C333 C334 1.336 . S
C334 C330 1.394 . S
C334 C333 1.336 . S
C334 H349 0.929 . S
C335 C325 1.386 . S
C335 C328 1.357 . S
C335 H348 0.928 . S
H336 C312 0.931 . S
H337 C314 0.930 . S
H338 C316 0.929 . S
H339 C317 0.931 . S
H340 C319 0.930 . S
H341 C323 0.931 . S
H342 C321 0.931 . S
H343 C325 0.931 . S
H344 C326 0.929 . S
H345 C327 0.930 . S
H346 C330 0.930 . S
H347 C331 0.931 . S
H348 C335 0.928 . S
H349 C334 0.929 . S
H350 C332 0.932 . S
C351 C352 1.386 . S
C351 C353 1.397 . S
C351 H375 0.931 . S
C352 C351 1.386 . S
C352 C356 1.397 . S
C353 C351 1.397 . S
C353 C354 1.384 . S
C353 H376 0.930 . S
C354 C353 1.384 . S
C354 C355 1.377 . S
C354 C357 1.481 . S
C355 C354 1.377 . S
C355 C356 1.389 . S
C355 H377 0.929 . S
C356 C352 1.397 . S
C356 C355 1.389 . S
C356 H378 0.931 . S
C357 C354 1.481 . S
C357 C358 1.387 . S
C357 C362 1.390 . S
C358 C357 1.387 . S
C358 C359 1.401 . S
C358 H379 0.930 . S
C359 C358 1.401 . S
C359 C360 1.376 . S
C359 C368 1.511 . S
C360 C359 1.376 . S
C360 C361 1.392 . S
C360 H381 0.931 . S
C361 C360 1.392 . S
C361 C362 1.361 . S
C361 C363 1.500 . S
C362 C357 1.390 . S
C362 C361 1.361 . S
C362 H380 0.931 . S
C363 C361 1.500 . S
C363 C364 1.371 . S
C363 C365 1.365 . S
C364 C363 1.371 . S
C364 C374 1.386 . S
C364 H382 0.931 . S
C365 C363 1.365 . S
C365 C366 1.409 . S
C365 H383 0.929 . S
C366 C365 1.409 . S
C366 C367 1.380 . S
C366 H384 0.930 . S
C367 C366 1.380 . S
C367 C374 1.357 . S
C368 C359 1.511 . S
C368 C369 1.341 . S
C368 C370 1.371 . S
C369 C368 1.341 . S
C369 C373 1.394 1_565 S
C369 H385 0.930 . S
C370 C368 1.371 . S
C370 C371 1.392 . S
C370 H386 0.931 . S
C371 C370 1.392 . S
C371 C372 1.331 1_565 S
C371 H389 0.932 . S
C372 C371 1.331 1_545 S
C372 C373 1.336 . S
C373 C369 1.394 1_545 S
C373 C372 1.336 . S
C373 H388 0.929 . S
C374 C364 1.386 . S
C374 C367 1.357 . S
C374 H387 0.928 . S
H375 C351 0.931 . S
H376 C353 0.930 . S
H377 C355 0.929 . S
H378 C356 0.931 . S
H379 C358 0.930 . S
H380 C362 0.931 . S
H381 C360 0.931 . S
H382 C364 0.931 . S
H383 C365 0.929 . S
H384 C366 0.930 . S
H385 C369 0.930 . S
H386 C370 0.931 . S
H387 C374 0.928 . S
H388 C373 0.929 . S
H389 C371 0.932 . S
C390 C391 1.386 . S
C390 C392 1.397 . S
C390 H414 0.931 . S
C391 C390 1.386 . S
C391 C395 1.397 . S
C392 C390 1.397 . S
C392 C393 1.384 . S
C392 H415 0.930 . S
C393 C392 1.384 . S
C393 C394 1.377 . S
C393 C396 1.481 . S
C394 C393 1.377 . S
C394 C395 1.389 . S
C394 H416 0.929 . S
C395 C391 1.397 . S
C395 C394 1.389 . S
C395 H417 0.931 . S
C396 C393 1.481 . S
C396 C397 1.387 . S
C396 C401 1.390 . S
C397 C396 1.387 . S
C397 C398 1.401 . S
C397 H418 0.930 . S
C398 C397 1.401 . S
C398 C399 1.376 . S
C398 C407 1.511 . S
C399 C398 1.376 . S
C399 C400 1.392 . S
C399 H420 0.931 . S
C400 C399 1.392 . S
C400 C401 1.361 . S
C400 C402 1.500 . S
C401 C396 1.390 . S
C401 C400 1.361 . S
C401 H419 0.931 . S
C402 C400 1.500 . S
C402 C403 1.371 . S
C402 C404 1.365 . S
C403 C402 1.371 . S
C403 C413 1.386 . S
C403 H421 0.931 . S
C404 C402 1.365 . S
C404 C405 1.409 . S
C404 H422 0.929 . S
C405 C404 1.409 . S
C405 C406 1.380 . S
C405 H423 0.930 . S
C406 C405 1.380 . S
C406 C413 1.357 . S
C407 C398 1.511 . S
C407 C408 1.341 . S
C407 C409 1.371 . S
C408 C407 1.341 . S
C408 C412 1.394 . S
C408 H424 0.930 . S
C409 C407 1.371 . S
C409 C410 1.392 . S
C409 H425 0.931 . S
C410 C409 1.392 . S
C410 C411 1.331 . S
C410 H428 0.932 . S
C411 C410 1.331 . S
C411 C412 1.336 . S
C412 C408 1.394 . S
C412 C411 1.336 . S
C412 H427 0.929 . S
C413 C403 1.386 . S
C413 C406 1.357 . S
C413 H426 0.928 . S
H414 C390 0.931 . S
H415 C392 0.930 . S
H416 C394 0.929 . S
H417 C395 0.931 . S
H418 C397 0.930 . S
H419 C401 0.931 . S
H420 C399 0.931 . S
H421 C403 0.931 . S
H422 C404 0.929 . S
H423 C405 0.930 . S
H424 C408 0.930 . S
H425 C409 0.931 . S
H426 C413 0.928 . S
H427 C412 0.929 . S
H428 C410 0.932 . S
C429 C430 1.386 . S
C429 C431 1.397 . S
C429 H453 0.931 . S
C430 C429 1.386 . S
C430 C434 1.397 . S
C431 C429 1.397 . S
C431 C432 1.384 . S
C431 H454 0.930 . S
C432 C431 1.384 . S
C432 C433 1.377 . S
C432 C435 1.481 . S
C433 C432 1.377 . S
C433 C434 1.389 . S
C433 H455 0.929 . S
C434 C430 1.397 . S
C434 C433 1.389 . S
C434 H456 0.931 . S
C435 C432 1.481 . S
C435 C436 1.387 . S
C435 C440 1.390 . S
C436 C435 1.387 . S
C436 C437 1.401 . S
C436 H457 0.930 . S
C437 C436 1.401 . S
C437 C438 1.376 . S
C437 C446 1.511 . S
C438 C437 1.376 . S
C438 C439 1.392 . S
C438 H459 0.931 . S
C439 C438 1.392 . S
C439 C440 1.361 . S
C439 C441 1.500 . S
C440 C435 1.390 . S
C440 C439 1.361 . S
C440 H458 0.931 . S
C441 C439 1.500 . S
C441 C442 1.371 . S
C441 C443 1.365 . S
C442 C441 1.371 . S
C442 C452 1.386 . S
C442 H460 0.931 . S
C443 C441 1.365 . S
C443 C444 1.409 . S
C443 H461 0.929 . S
C444 C443 1.409 . S
C444 C445 1.380 . S
C444 H462 0.930 . S
C445 C444 1.380 . S
C445 C452 1.357 . S
C446 C437 1.511 . S
C446 C447 1.341 . S
C446 C448 1.371 . S
C447 C446 1.341 . S
C447 C451 1.394 . S
C447 H463 0.930 . S
C448 C446 1.371 . S
C448 C449 1.392 . S
C448 H464 0.931 . S
C449 C448 1.392 . S
C449 C450 1.331 . S
C449 H467 0.932 . S
C450 C449 1.331 . S
C450 C451 1.336 . S
C451 C447 1.394 . S
C451 C450 1.336 . S
C451 H466 0.929 . S
C452 C442 1.386 . S
C452 C445 1.357 . S
C452 H465 0.928 . S
H453 C429 0.931 . S
H454 C431 0.930 . S
H455 C433 0.929 . S
H456 C434 0.931 . S
H457 C436 0.930 . S
H458 C440 0.931 . S
H459 C438 0.931 . S
H460 C442 0.931 . S
H461 C443 0.929 . S
H462 C444 0.930 . S
H463 C447 0.930 . S
H464 C448 0.931 . S
H465 C452 0.928 . S
H466 C451 0.929 . S
H467 C449 0.932 . S
C468 C469 1.386 . S
C468 C470 1.397 . S
C468 H492 0.931 . S
C469 C468 1.386 . S
C469 C473 1.397 . S
C470 C468 1.397 . S
C470 C471 1.384 . S
C470 H493 0.930 . S
C471 C470 1.384 . S
C471 C472 1.377 . S
C471 C474 1.481 . S
C472 C471 1.377 . S
C472 C473 1.389 . S
C472 H494 0.929 . S
C473 C469 1.397 . S
C473 C472 1.389 . S
C473 H495 0.931 . S
C474 C471 1.481 . S
C474 C475 1.387 . S
C474 C479 1.390 . S
C475 C474 1.387 . S
C475 C476 1.401 . S
C475 H496 0.930 . S
C476 C475 1.401 . S
C476 C477 1.376 . S
C476 C485 1.511 . S
C477 C476 1.376 . S
C477 C478 1.392 . S
C477 H498 0.931 . S
C478 C477 1.392 . S
C478 C479 1.361 . S
C478 C480 1.500 . S
C479 C474 1.390 . S
C479 C478 1.361 . S
C479 H497 0.931 . S
C480 C478 1.500 . S
C480 C481 1.371 . S
C480 C482 1.365 . S
C481 C480 1.371 . S
C481 C491 1.386 . S
C481 H499 0.931 . S
C482 C480 1.365 . S
C482 C483 1.409 . S
C482 H500 0.929 . S
C483 C482 1.409 . S
C483 C484 1.380 . S
C483 H501 0.930 . S
C484 C483 1.380 . S
C484 C491 1.357 . S
C485 C476 1.511 . S
C485 C486 1.341 . S
C485 C487 1.371 . S
C486 C485 1.341 . S
C486 C490 1.394 . S
C486 H502 0.930 . S
C487 C485 1.371 . S
C487 C488 1.392 . S
C487 H503 0.931 . S
C488 C487 1.392 . S
C488 C489 1.331 . S
C488 H506 0.932 . S
C489 C488 1.331 . S
C489 C490 1.336 . S
C490 C486 1.394 . S
C490 C489 1.336 . S
C490 H505 0.929 . S
C491 C481 1.386 . S
C491 C484 1.357 . S
C491 H504 0.928 . S
H492 C468 0.931 . S
H493 C470 0.930 . S
H494 C472 0.929 . S
H495 C473 0.931 . S
H496 C475 0.930 . S
H497 C479 0.931 . S
H498 C477 0.931 . S
H499 C481 0.931 . S
H500 C482 0.929 . S
H501 C483 0.930 . S
H502 C486 0.930 . S
H503 C487 0.931 . S
H504 C491 0.928 . S
H505 C490 0.929 . S
H506 C488 0.932 . S
C507 C508 1.386 . S
C507 C509 1.397 . S
C507 H531 0.931 . S
C508 C507 1.386 . S
C508 C512 1.397 . S
C509 C507 1.397 . S
C509 C510 1.384 . S
C509 H532 0.930 . S
C510 C509 1.384 . S
C510 C511 1.377 . S
C510 C513 1.481 . S
C511 C510 1.377 . S
C511 C512 1.389 . S
C511 H533 0.929 . S
C512 C508 1.397 . S
C512 C511 1.389 . S
C512 H534 0.931 . S
C513 C510 1.481 . S
C513 C514 1.387 . S
C513 C518 1.390 . S
C514 C513 1.387 . S
C514 C515 1.401 . S
C514 H535 0.930 . S
C515 C514 1.401 . S
C515 C516 1.376 . S
C515 C524 1.511 . S
C516 C515 1.376 . S
C516 C517 1.392 . S
C516 H537 0.931 . S
C517 C516 1.392 . S
C517 C518 1.361 . S
C517 C519 1.500 . S
C518 C513 1.390 . S
C518 C517 1.361 . S
C518 H536 0.931 . S
C519 C517 1.500 . S
C519 C520 1.371 . S
C519 C521 1.365 . S
C520 C519 1.371 . S
C520 C530 1.386 . S
C520 H538 0.931 . S
C521 C519 1.365 . S
C521 C522 1.409 . S
C521 H539 0.929 . S
C522 C521 1.409 . S
C522 C523 1.380 . S
C522 H540 0.930 . S
C523 C522 1.380 . S
C523 C530 1.357 . S
C524 C515 1.511 . S
C524 C525 1.341 . S
C524 C526 1.371 . S
C525 C524 1.341 . S
C525 C529 1.394 . S
C525 H541 0.930 . S
C526 C524 1.371 . S
C526 C527 1.392 1_556 S
C526 H542 0.931 . S
C527 C526 1.392 1_554 S
C527 C528 1.331 . S
C527 H545 0.932 . S
C528 C527 1.331 . S
C528 C529 1.336 1_554 S
C529 C525 1.394 . S
C529 C528 1.336 1_556 S
C529 H544 0.929 . S
C530 C520 1.386 . S
C530 C523 1.357 . S
C530 H543 0.934 1_556 S
H531 C507 0.931 . S
H532 C509 0.930 . S
H533 C511 0.929 . S
H534 C512 0.931 . S
H535 C514 0.930 . S
H536 C518 0.931 . S
H537 C516 0.931 . S
H538 C520 0.931 . S
H539 C521 0.929 . S
H540 C522 0.930 . S
H541 C525 0.930 . S
H542 C526 0.931 . S
H543 C530 0.934 1_554 S
H544 C529 0.929 . S
H545 C527 0.932 . S
C546 C547 1.386 . S
C546 C548 1.397 . S
C546 H570 0.931 . S
C547 C546 1.386 . S
C547 C551 1.397 . S
C548 C546 1.397 . S
C548 C549 1.384 . S
C548 H571 0.930 . S
C549 C548 1.384 . S
C549 C550 1.377 . S
C549 C552 1.481 . S
C550 C549 1.377 . S
C550 C551 1.389 . S
C550 H572 0.929 . S
C551 C547 1.397 . S
C551 C550 1.389 . S
C551 H573 0.931 . S
C552 C549 1.481 . S
C552 C553 1.387 . S
C552 C557 1.390 . S
C553 C552 1.387 . S
C553 C554 1.401 . S
C553 H574 0.930 . S
C554 C553 1.401 . S
C554 C555 1.376 . S
C554 C563 1.511 . S
C555 C554 1.376 . S
C555 C556 1.392 . S
C555 H576 0.931 . S
C556 C555 1.392 . S
C556 C557 1.361 . S
C556 C558 1.500 . S
C557 C552 1.390 . S
C557 C556 1.361 . S
C557 H575 0.931 . S
C558 C556 1.500 . S
C558 C559 1.371 . S
C558 C560 1.365 . S
C559 C558 1.371 . S
C559 C569 1.386 . S
C559 H577 0.931 . S
C560 C558 1.365 . S
C560 C561 1.409 . S
C560 H578 0.929 . S
C561 C560 1.409 . S
C561 C562 1.380 . S
C561 H579 0.930 . S
C562 C561 1.380 . S
C562 C569 1.357 . S
C563 C554 1.511 . S
C563 C564 1.341 . S
C563 C565 1.371 . S
C564 C563 1.341 . S
C564 C568 1.394 . S
C564 H580 0.930 . S
C565 C563 1.371 . S
C565 C566 1.392 . S
C565 H581 0.931 . S
C566 C565 1.392 . S
C566 C567 1.331 . S
C566 H584 0.932 . S
C567 C566 1.331 . S
C567 C568 1.336 . S
C568 C564 1.394 . S
C568 C567 1.336 . S
C568 H583 0.929 . S
C569 C559 1.386 . S
C569 C562 1.357 . S
C569 H582 0.928 . S
H570 C546 0.931 . S
H571 C548 0.930 . S
H572 C550 0.929 . S
H573 C551 0.931 . S
H574 C553 0.930 . S
H575 C557 0.931 . S
H576 C555 0.931 . S
H577 C559 0.931 . S
H578 C560 0.929 . S
H579 C561 0.930 . S
H580 C564 0.930 . S
H581 C565 0.931 . S
H582 C569 0.928 . S
H583 C568 0.929 . S
H584 C566 0.932 . S
C585 C586 1.386 1_556 S
C585 C587 1.397 . S
C585 H609 0.931 . S
C586 C585 1.386 1_554 S
C586 C590 1.397 . S
C587 C585 1.397 . S
C587 C588 1.384 . S
C587 H610 0.930 . S
C588 C587 1.384 . S
C588 C589 1.377 . S
C588 C591 1.481 . S
C589 C588 1.377 . S
C589 C590 1.389 1_556 S
C589 H611 0.929 1_556 S
C590 C586 1.397 . S
C590 C589 1.389 1_554 S
C590 H612 0.931 . S
C591 C588 1.481 . S
C591 C592 1.387 . S
C591 C596 1.390 . S
C592 C591 1.387 . S
C592 C593 1.401 . S
C592 H613 0.930 . S
C593 C592 1.401 . S
C593 C594 1.376 . S
C593 C602 1.511 . S
C594 C593 1.376 . S
C594 C595 1.392 . S
C594 H615 0.931 . S
C595 C594 1.392 . S
C595 C596 1.361 . S
C595 C597 1.500 . S
C596 C591 1.390 . S
C596 C595 1.361 . S
C596 H614 0.931 . S
C597 C595 1.500 . S
C597 C598 1.371 . S
C597 C599 1.365 . S
C598 C597 1.371 . S
C598 C608 1.386 . S
C598 H616 0.931 . S
C599 C597 1.365 . S
C599 C600 1.409 . S
C599 H617 0.929 . S
C600 C599 1.409 . S
C600 C601 1.380 . S
C600 H618 0.930 . S
C601 C600 1.380 . S
C601 C608 1.357 . S
C602 C593 1.511 . S
C602 C603 1.341 . S
C602 C604 1.371 . S
C603 C602 1.341 . S
C603 C607 1.394 . S
C603 H619 0.930 . S
C604 C602 1.371 . S
C604 C605 1.392 . S
C604 H620 0.931 . S
C605 C604 1.392 . S
C605 C606 1.331 . S
C605 H623 0.932 . S
C606 C605 1.331 . S
C606 C607 1.336 . S
C607 C603 1.394 . S
C607 C606 1.336 . S
C607 H622 0.929 . S
C608 C598 1.386 . S
C608 C601 1.357 . S
C608 H621 0.928 1_545 S
H609 C585 0.931 . S
H610 C587 0.930 . S
H611 C589 0.929 1_554 S
H612 C590 0.931 . S
H613 C592 0.930 . S
H614 C596 0.931 . S
H615 C594 0.931 . S
H616 C598 0.931 . S
H617 C599 0.929 . S
H618 C600 0.930 . S
H619 C603 0.930 . S
H620 C604 0.931 . S
H621 C608 0.928 1_565 S
H622 C607 0.929 . S
H623 C605 0.932 . S
Zn624 O627 2.058 . S
Zn624 O629 2.031 1_554 S
Zn624 O634 2.031 1_554 S
Zn625 O626 1.962 . S
Zn625 O628 1.986 . S
Zn625 O630 1.996 . S
Zn625 O633 1.943 1_554 S
O626 Zn625 1.962 . S
O626 C631 1.254 . S
O627 Zn624 2.058 . S
O627 C631 1.269 . S
O628 Zn625 1.986 . S
O628 C635 1.262 . S
O629 Zn624 2.031 1_556 S
O629 C637 1.260 . S
O630 Zn625 1.996 . S
O630 C637 1.257 1_554 S
C631 O626 1.254 . S
C631 O627 1.269 . S
C632 O633 1.249 . S
C632 O634 1.270 . S
O633 Zn625 1.943 1_556 S
O633 C632 1.249 . S
O634 Zn624 2.031 1_556 S
O634 C632 1.270 . S
C635 O628 1.262 . S
C635 O636 1.232 . S
O636 C635 1.232 . S
C637 O629 1.260 . S
C637 O630 1.257 1_556 S
Zn638 O641 2.031 . S
Zn638 O643 2.049 . S
Zn638 O648 2.067 . S
Zn639 O640 1.962 . S
Zn639 O642 1.986 . S
Zn639 O644 1.996 . S
Zn639 O647 1.943 . S
O640 Zn639 1.962 . S
O640 C645 1.254 . S
O641 Zn638 2.031 . S
O641 C645 1.269 . S
O642 Zn639 1.986 . S
O642 C649 1.262 . S
O643 Zn638 2.049 . S
O643 C651 1.260 . S
O644 Zn639 1.996 . S
O644 C651 1.257 . S
C645 O640 1.254 . S
C645 O641 1.269 . S
C646 O647 1.249 . S
C646 O648 1.270 . S
O647 Zn639 1.943 . S
O647 C646 1.249 . S
O648 Zn638 2.067 . S
O648 C646 1.270 . S
C649 O642 1.262 . S
C649 O650 1.232 . S
O650 C649 1.232 . S
C651 O643 1.260 . S
C651 O644 1.257 . S
Zn652 O655 2.031 . S
Zn652 O657 2.049 . S
Zn652 O662 2.067 . S
Zn653 O654 1.962 . S
Zn653 O656 1.986 . S
Zn653 O658 1.996 1_554 S
Zn653 O661 1.943 . S
O654 Zn653 1.962 . S
O654 C659 1.254 . S
O655 Zn652 2.031 . S
O655 C659 1.269 1_556 S
O656 Zn653 1.986 . S
O656 C663 1.262 . S
O657 Zn652 2.049 . S
O657 C665 1.260 . S
O658 Zn653 1.996 1_556 S
O658 C665 1.257 . S
C659 O654 1.254 . S
C659 O655 1.269 1_554 S
C660 O661 1.249 1_556 S
C660 O662 1.270 . S
O661 Zn653 1.943 . S
O661 C660 1.249 1_554 S
O662 Zn652 2.067 . S
O662 C660 1.270 . S
C663 O656 1.262 . S
C663 O664 1.232 . S
O664 C663 1.232 . S
C665 O657 1.260 . S
C665 O658 1.257 . S
Zn666 O669 2.048 . S
Zn666 O671 2.037 1_545 S
Zn666 O676 2.044 1_545 S
Zn667 O668 1.962 . S
Zn667 O670 1.986 . S
Zn667 O672 1.996 . S
Zn667 O675 1.943 1_545 S
O668 Zn667 1.962 . S
O668 C673 1.254 . S
O669 Zn666 2.048 . S
O669 C673 1.269 . S
O670 Zn667 1.986 . S
O670 C677 1.262 . S
O671 Zn666 2.037 1_565 S
O671 C679 1.260 . S
O672 Zn667 1.996 . S
O672 C679 1.257 1_545 S
C673 O668 1.254 . S
C673 O669 1.269 . S
C674 O675 1.249 . S
C674 O676 1.270 . S
O675 Zn667 1.943 1_565 S
O675 C674 1.249 . S
O676 Zn666 2.044 1_565 S
O676 C674 1.270 . S
C677 O670 1.262 . S
C677 O678 1.232 . S
O678 C677 1.232 . S
C679 O671 1.260 . S
C679 O672 1.257 1_565 S
Zn680 O683 2.031 . S
Zn680 O685 2.049 . S
Zn680 O690 2.067 . S
Zn681 O682 1.962 . S
Zn681 O684 1.986 . S
Zn681 O686 1.996 . S
Zn681 O689 1.943 . S
O682 Zn681 1.962 . S
O682 C687 1.254 . S
O683 Zn680 2.031 . S
O683 C687 1.269 . S
O684 Zn681 1.986 . S
O684 C691 1.262 . S
O685 Zn680 2.049 . S
O685 C693 1.260 . S
O686 Zn681 1.996 . S
O686 C693 1.257 . S
C687 O682 1.254 . S
C687 O683 1.269 . S
C688 O689 1.249 . S
C688 O690 1.270 . S
O689 Zn681 1.943 . S
O689 C688 1.249 . S
O690 Zn680 2.067 . S
O690 C688 1.270 . S
C691 O684 1.262 . S
C691 O692 1.232 . S
O692 C691 1.232 . S
C693 O685 1.260 . S
C693 O686 1.257 . S
Zn694 O697 2.031 . S
Zn694 O699 2.049 . S
Zn694 O704 2.067 . S
Zn695 O696 1.962 . S
Zn695 O698 1.986 . S
Zn695 O700 1.996 . S
Zn695 O703 1.943 . S
O696 Zn695 1.962 . S
O696 C701 1.254 . S
O697 Zn694 2.031 . S
O697 C701 1.269 . S
O698 Zn695 1.986 . S
O698 C705 1.262 . S
O699 Zn694 2.049 . S
O699 C707 1.260 . S
O700 Zn695 1.996 . S
O700 C707 1.257 . S
C701 O696 1.254 . S
C701 O697 1.269 . S
C702 O703 1.249 . S
C702 O704 1.270 . S
O703 Zn695 1.943 . S
O703 C702 1.249 . S
O704 Zn694 2.067 . S
O704 C702 1.270 . S
C705 O698 1.262 . S
C705 O706 1.232 . S
O706 C705 1.232 . S
C707 O699 1.260 . S
C707 O700 1.257 . S
Zn708 O711 2.031 . S
Zn708 O713 2.049 . S
Zn708 O718 2.067 . S
Zn709 O710 1.962 . S
Zn709 O712 1.986 . S
Zn709 O714 1.996 . S
Zn709 O717 1.943 . S
O710 Zn709 1.962 . S
O710 C715 1.254 . S
O711 Zn708 2.031 . S
O711 C715 1.269 . S
O712 Zn709 1.986 . S
O712 C719 1.262 . S
O713 Zn708 2.049 . S
O713 C721 1.260 . S
O714 Zn709 1.996 . S
O714 C721 1.257 . S
C715 O710 1.254 . S
C715 O711 1.269 . S
C716 O717 1.249 . S
C716 O718 1.270 . S
O717 Zn709 1.943 . S
O717 C716 1.249 . S
O718 Zn708 2.067 . S
O718 C716 1.270 . S
C719 O712 1.262 . S
C719 O720 1.232 . S
O720 C719 1.232 . S
C721 O713 1.260 . S
C721 O714 1.257 . S
Zn722 O725 2.031 . S
Zn722 O727 2.049 . S
Zn722 O732 2.067 . S
Zn723 O724 1.962 . S
Zn723 O726 1.986 . S
Zn723 O728 1.996 1_545 S
Zn723 O731 1.943 . S
O724 Zn723 1.962 . S
O724 C729 1.254 . S
O725 Zn722 2.031 . S
O725 C729 1.269 1_565 S
O726 Zn723 1.986 . S
O726 C733 1.262 . S
O727 Zn722 2.049 . S
O727 C735 1.260 . S
O728 Zn723 1.996 1_565 S
O728 C735 1.257 . S
C729 O724 1.254 . S
C729 O725 1.269 1_545 S
C730 O731 1.249 1_565 S
C730 O732 1.270 . S
O731 Zn723 1.943 . S
O731 C730 1.249 1_545 S
O732 Zn722 2.067 . S
O732 C730 1.270 . S
C733 O726 1.262 . S
C733 O734 1.232 . S
O734 C733 1.232 . S
C735 O727 1.260 . S
C735 O728 1.257 . S
Zn736 O739 2.033 1_655 S
Zn736 O741 2.048 . S
Zn736 O746 2.065 . S
Zn737 O738 1.962 . S
Zn737 O740 1.986 . S
Zn737 O742 1.996 . S
Zn737 O745 1.943 1_455 S
O738 Zn737 1.962 . S
O738 C743 1.254 . S
O739 Zn736 2.033 1_455 S
O739 C743 1.269 . S
O740 Zn737 1.986 . S
O740 C747 1.262 . S
O741 Zn736 2.048 . S
O741 C749 1.260 . S
O742 Zn737 1.996 . S
O742 C749 1.257 1_455 S
C743 O738 1.254 . S
C743 O739 1.269 . S
C744 O745 1.249 . S
C744 O746 1.270 . S
O745 Zn737 1.943 1_655 S
O745 C744 1.249 . S
O746 Zn736 2.065 . S
O746 C744 1.270 . S
C747 O740 1.262 . S
C747 O748 1.232 . S
O748 C747 1.232 . S
C749 O741 1.260 . S
C749 O742 1.257 1_655 S
Zn750 O753 2.031 . S
Zn750 O755 2.049 . S
Zn750 O760 2.067 . S
Zn751 O752 1.962 . S
Zn751 O754 1.986 . S
Zn751 O756 1.996 . S
Zn751 O759 1.943 . S
O752 Zn751 1.962 . S
O752 C757 1.254 . S
O753 Zn750 2.031 . S
O753 C757 1.269 . S
O754 Zn751 1.986 . S
O754 C761 1.262 . S
O755 Zn750 2.049 . S
O755 C763 1.260 . S
O756 Zn751 1.996 . S
O756 C763 1.257 . S
C757 O752 1.254 . S
C757 O753 1.269 . S
C758 O759 1.249 . S
C758 O760 1.270 . S
O759 Zn751 1.943 . S
O759 C758 1.249 . S
O760 Zn750 2.067 . S
O760 C758 1.270 . S
C761 O754 1.262 . S
C761 O762 1.232 . S
O762 C761 1.232 . S
C763 O755 1.260 . S
C763 O756 1.257 . S
Zn764 O767 2.031 . S
Zn764 O769 2.049 . S
Zn764 O774 2.067 . S
Zn765 O766 1.962 . S
Zn765 O768 1.986 . S
Zn765 O770 1.996 1_455 S
Zn765 O773 1.943 . S
O766 Zn765 1.962 . S
O766 C771 1.254 . S
O767 Zn764 2.031 . S
O767 C771 1.269 1_655 S
O768 Zn765 1.986 . S
O768 C775 1.262 . S
O769 Zn764 2.049 . S
O769 C777 1.260 . S
O770 Zn765 1.996 1_655 S
O770 C777 1.257 . S
C771 O766 1.254 . S
C771 O767 1.269 1_455 S
C772 O773 1.249 1_655 S
C772 O774 1.270 . S
O773 Zn765 1.943 . S
O773 C772 1.249 1_455 S
O774 Zn764 2.067 . S
O774 C772 1.270 . S
C775 O768 1.262 . S
C775 O776 1.232 . S
O776 C775 1.232 . S
C777 O769 1.260 . S
C777 O770 1.257 . S
Zn778 O781 2.031 . S
Zn778 O783 2.049 . S
Zn778 O788 2.067 . S
Zn779 O780 1.962 . S
Zn779 O782 1.986 . S
Zn779 O784 1.996 . S
Zn779 O787 1.943 . S
O780 Zn779 1.962 . S
O780 C785 1.254 . S
O781 Zn778 2.031 . S
O781 C785 1.269 . S
O782 Zn779 1.986 . S
O782 C789 1.262 . S
O783 Zn778 2.049 . S
O783 C791 1.260 . S
O784 Zn779 1.996 . S
O784 C791 1.257 . S
C785 O780 1.254 . S
C785 O781 1.269 . S
C786 O787 1.249 . S
C786 O788 1.270 . S
O787 Zn779 1.943 . S
O787 C786 1.249 . S
O788 Zn778 2.067 . S
O788 C786 1.270 . S
C789 O782 1.262 . S
C789 O790 1.232 . S
O790 C789 1.232 . S
C791 O783 1.260 . S
C791 O784 1.257 . S
H792 C804 0.930 . S
H793 C806 0.930 . S
H794 C807 0.930 . S
H795 C811 0.959 . S
H796 C811 0.959 . S
H797 C811 0.961 . S
H798 C812 0.960 . S
H799 C812 0.961 . S
H800 C812 0.959 . S
H801 C815 0.929 . S
H802 C816 0.931 . S
H803 C818 0.930 . S
C804 H792 0.930 . S
C804 C805 1.399 . S
C804 C809 1.399 . S
C805 C804 1.399 . S
C805 C806 1.376 . S
C806 H793 0.930 . S
C806 C805 1.376 . S
C806 C807 1.388 . S
C807 H794 0.930 . S
C807 C806 1.388 . S
C807 C808 1.390 . S
C808 C807 1.390 . S
C808 C809 1.394 . S
C808 C814 1.465 . S
C809 C804 1.399 . S
C809 C808 1.394 . S
C809 C810 1.516 . S
C810 C809 1.516 . S
C810 C811 1.502 . S
C810 C812 1.561 . S
C810 C813 1.526 . S
C811 H795 0.959 . S
C811 H796 0.959 . S
C811 H797 0.961 . S
C811 C810 1.502 . S
C812 H798 0.960 . S
C812 H799 0.961 . S
C812 H800 0.959 . S
C812 C810 1.561 . S
C813 C810 1.526 . S
C813 C814 1.396 . S
C813 C818 1.390 . S
C814 C808 1.465 . S
C814 C813 1.396 . S
C814 C815 1.399 . S
C815 H801 0.929 . S
C815 C814 1.399 . S
C815 C816 1.385 . S
C816 H802 0.931 . S
C816 C815 1.385 . S
C816 C817 1.389 . S
C817 C816 1.389 . S
C817 C818 1.387 . S
C818 H803 0.930 . S
C818 C813 1.390 . S
C818 C817 1.387 . S
H819 C831 0.930 . S
H820 C833 0.930 . S
H821 C834 0.930 . S
H822 C838 0.959 . S
H823 C838 0.959 . S
H824 C838 0.961 . S
H825 C839 0.960 . S
H826 C839 0.961 . S
H827 C839 0.959 . S
H828 C842 0.929 . S
H829 C843 0.931 . S
H830 C845 0.930 . S
C831 H819 0.930 . S
C831 C832 1.399 . S
C831 C836 1.399 . S
C832 C831 1.399 . S
C832 C833 1.376 . S
C833 H820 0.930 . S
C833 C832 1.376 . S
C833 C834 1.388 . S
C834 H821 0.930 . S
C834 C833 1.388 . S
C834 C835 1.390 . S
C835 C834 1.390 . S
C835 C836 1.394 . S
C835 C841 1.465 . S
C836 C831 1.399 . S
C836 C835 1.394 . S
C836 C837 1.516 . S
C837 C836 1.516 . S
C837 C838 1.502 . S
C837 C839 1.561 . S
C837 C840 1.526 . S
C838 H822 0.959 . S
C838 H823 0.959 . S
C838 H824 0.961 . S
C838 C837 1.502 . S
C839 H825 0.960 . S
C839 H826 0.961 . S
C839 H827 0.959 . S
C839 C837 1.561 . S
C840 C837 1.526 . S
C840 C841 1.396 . S
C840 C845 1.390 . S
C841 C835 1.465 . S
C841 C840 1.396 . S
C841 C842 1.399 . S
C842 H828 0.929 . S
C842 C841 1.399 . S
C842 C843 1.385 . S
C843 H829 0.931 . S
C843 C842 1.385 . S
C843 C844 1.389 . S
C844 C843 1.389 . S
C844 C845 1.387 . S
C845 H830 0.930 . S
C845 C840 1.390 . S
C845 C844 1.387 . S
H846 C858 0.930 . S
H847 C860 0.930 . S
H848 C861 0.930 . S
H849 C865 0.959 . S
H850 C865 0.959 . S
H851 C865 0.961 . S
H852 C866 0.960 . S
H853 C866 0.961 . S
H854 C866 0.959 . S
H855 C869 0.929 . S
H856 C870 0.931 . S
H857 C872 0.930 . S
C858 H846 0.930 . S
C858 C859 1.399 . S
C858 C863 1.399 . S
C859 C858 1.399 . S
C859 C860 1.376 . S
C860 H847 0.930 . S
C860 C859 1.376 . S
C860 C861 1.388 . S
C861 H848 0.930 . S
C861 C860 1.388 . S
C861 C862 1.390 . S
C862 C861 1.390 . S
C862 C863 1.394 . S
C862 C868 1.465 . S
C863 C858 1.399 . S
C863 C862 1.394 . S
C863 C864 1.516 . S
C864 C863 1.516 . S
C864 C865 1.502 . S
C864 C866 1.561 . S
C864 C867 1.526 . S
C865 H849 0.959 . S
C865 H850 0.959 . S
C865 H851 0.961 . S
C865 C864 1.502 . S
C866 H852 0.960 . S
C866 H853 0.961 . S
C866 H854 0.959 . S
C866 C864 1.561 . S
C867 C864 1.526 . S
C867 C868 1.396 . S
C867 C872 1.390 . S
C868 C862 1.465 . S
C868 C867 1.396 . S
C868 C869 1.399 . S
C869 H855 0.929 . S
C869 C868 1.399 . S
C869 C870 1.385 . S
C870 H856 0.931 . S
C870 C869 1.385 . S
C870 C871 1.389 . S
C871 C870 1.389 . S
C871 C872 1.387 . S
C872 H857 0.930 . S
C872 C867 1.390 . S
C872 C871 1.387 . S
H873 C885 0.930 . S
H874 C887 0.918 1_455 S
H875 C888 0.930 . S
H876 C892 0.959 . S
H877 C892 0.959 . S
H878 C892 0.961 . S
H879 C893 0.960 . S
H880 C893 0.961 . S
H881 C893 0.959 . S
H882 C896 0.929 . S
H883 C897 0.931 . S
H884 C899 0.930 . S
C885 H873 0.930 . S
C885 C886 1.399 . S
C885 C890 1.399 . S
C886 C885 1.399 . S
C886 C887 1.383 . S
C887 H874 0.918 1_655 S
C887 C886 1.383 . S
C887 C888 1.394 . S
C888 H875 0.930 . S
C888 C887 1.394 . S
C888 C889 1.390 . S
C889 C888 1.390 . S
C889 C890 1.394 . S
C889 C895 1.465 . S
C890 C885 1.399 . S
C890 C889 1.394 . S
C890 C891 1.516 . S
C891 C890 1.516 . S
C891 C892 1.502 . S
C891 C893 1.561 1_565 S
C891 C894 1.526 . S
C892 H876 0.959 . S
C892 H877 0.959 . S
C892 H878 0.961 . S
C892 C891 1.502 . S
C893 H879 0.960 . S
C893 H880 0.961 . S
C893 H881 0.959 . S
C893 C891 1.561 1_545 S
C894 C891 1.526 . S
C894 C895 1.396 . S
C894 C899 1.390 . S
C895 C889 1.465 . S
C895 C894 1.396 . S
C895 C896 1.399 . S
C896 H882 0.929 . S
C896 C895 1.399 . S
C896 C897 1.385 . S
C897 H883 0.931 . S
C897 C896 1.385 . S
C897 C898 1.389 . S
C898 C897 1.389 . S
C898 C899 1.387 . S
C899 H884 0.930 . S
C899 C894 1.390 . S
C899 C898 1.387 . S
H900 C912 0.930 . S
H901 C914 0.930 . S
H902 C915 0.930 . S
H903 C919 0.959 . S
H904 C919 0.959 . S
H905 C919 0.961 . S
H906 C920 0.960 . S
H907 C920 0.961 . S
H908 C920 0.959 . S
H909 C923 0.929 . S
H910 C924 0.931 . S
H911 C926 0.930 . S
C912 H900 0.930 . S
C912 C913 1.399 . S
C912 C917 1.399 . S
C913 C912 1.399 . S
C913 C914 1.376 . S
C914 H901 0.930 . S
C914 C913 1.376 . S
C914 C915 1.388 . S
C915 H902 0.930 . S
C915 C914 1.388 . S
C915 C916 1.390 . S
C916 C915 1.390 . S
C916 C917 1.394 . S
C916 C922 1.465 . S
C917 C912 1.399 . S
C917 C916 1.394 . S
C917 C918 1.516 . S
C918 C917 1.516 . S
C918 C919 1.502 . S
C918 C920 1.561 . S
C918 C921 1.526 . S
C919 H903 0.959 . S
C919 H904 0.959 . S
C919 H905 0.961 . S
C919 C918 1.502 . S
C920 H906 0.960 . S
C920 H907 0.961 . S
C920 H908 0.959 . S
C920 C918 1.561 . S
C921 C918 1.526 . S
C921 C922 1.396 . S
C921 C926 1.390 . S
C922 C916 1.465 . S
C922 C921 1.396 . S
C922 C923 1.399 . S
C923 H909 0.929 . S
C923 C922 1.399 . S
C923 C924 1.385 . S
C924 H910 0.931 . S
C924 C923 1.385 . S
C924 C925 1.389 . S
C925 C924 1.389 . S
C925 C926 1.387 . S
C926 H911 0.930 . S
C926 C921 1.390 . S
C926 C925 1.387 . S
H927 C939 0.930 . S
H928 C941 0.930 . S
H929 C942 0.930 . S
H930 C946 0.959 . S
H931 C946 0.959 . S
H932 C946 0.961 . S
H933 C947 0.960 . S
H934 C947 0.961 . S
H935 C947 0.959 . S
H936 C950 0.929 . S
H937 C951 0.931 . S
H938 C953 0.930 . S
C939 H927 0.930 . S
C939 C940 1.399 . S
C939 C944 1.399 . S
C940 C939 1.399 . S
C940 C941 1.376 . S
C941 H928 0.930 . S
C941 C940 1.376 . S
C941 C942 1.388 . S
C942 H929 0.930 . S
C942 C941 1.388 . S
C942 C943 1.390 . S
C943 C942 1.390 . S
C943 C944 1.394 . S
C943 C949 1.465 . S
C944 C939 1.399 . S
C944 C943 1.394 . S
C944 C945 1.516 . S
C945 C944 1.516 . S
C945 C946 1.502 . S
C945 C947 1.561 . S
C945 C948 1.526 . S
C946 H930 0.959 . S
C946 H931 0.959 . S
C946 H932 0.961 . S
C946 C945 1.502 . S
C947 H933 0.960 . S
C947 H934 0.961 . S
C947 H935 0.959 . S
C947 C945 1.561 . S
C948 C945 1.526 . S
C948 C949 1.396 . S
C948 C953 1.390 . S
C949 C943 1.465 . S
C949 C948 1.396 . S
C949 C950 1.399 . S
C950 H936 0.929 . S
C950 C949 1.399 . S
C950 C951 1.385 . S
C951 H937 0.931 . S
C951 C950 1.385 . S
C951 C952 1.389 . S
C952 C951 1.389 . S
C952 C953 1.387 . S
C953 H938 0.930 . S
C953 C948 1.390 . S
C953 C952 1.387 . S
H954 C966 0.930 . S
H955 C968 0.930 . S
H956 C969 0.930 . S
H957 C973 0.959 . S
H958 C973 0.959 . S
H959 C973 0.961 . S
H960 C974 0.960 . S
H961 C974 0.961 . S
H962 C974 0.959 . S
H963 C977 0.929 . S
H964 C978 0.931 . S
H965 C980 0.930 . S
C966 H954 0.930 . S
C966 C967 1.399 . S
C966 C971 1.399 . S
C967 C966 1.399 . S
C967 C968 1.376 . S
C968 H955 0.930 . S
C968 C967 1.376 . S
C968 C969 1.388 . S
C969 H956 0.930 . S
C969 C968 1.388 . S
C969 C970 1.390 . S
C970 C969 1.390 . S
C970 C971 1.394 . S
C970 C976 1.465 . S
C971 C966 1.399 . S
C971 C970 1.394 . S
C971 C972 1.516 . S
C972 C971 1.516 . S
C972 C973 1.502 . S
C972 C974 1.561 . S
C972 C975 1.526 . S
C973 H957 0.959 . S
C973 H958 0.959 . S
C973 H959 0.961 . S
C973 C972 1.502 . S
C974 H960 0.960 . S
C974 H961 0.961 . S
C974 H962 0.959 . S
C974 C972 1.561 . S
C975 C972 1.526 . S
C975 C976 1.396 . S
C975 C980 1.390 . S
C976 C970 1.465 . S
C976 C975 1.396 . S
C976 C977 1.399 . S
C977 H963 0.929 . S
C977 C976 1.399 . S
C977 C978 1.385 . S
C978 H964 0.931 . S
C978 C977 1.385 . S
C978 C979 1.389 . S
C979 C978 1.389 . S
C979 C980 1.387 . S
C980 H965 0.930 . S
C980 C975 1.390 . S
C980 C979 1.387 . S
H981 C993 0.930 . S
H982 C995 0.930 . S
H983 C996 0.930 1_545 S
H984 C1000 0.959 . S
H985 C1000 0.959 . S
H986 C1000 0.961 . S
H987 C1001 0.960 . S
H988 C1001 0.961 . S
H989 C1001 0.959 . S
H990 C1004 0.929 . S
H991 C1005 0.931 . S
H992 C1007 0.930 . S
C993 H981 0.930 . S
C993 C994 1.399 . S
C993 C998 1.399 . S
C994 C993 1.399 . S
C994 C995 1.376 . S
C995 H982 0.930 . S
C995 C994 1.376 . S
C995 C996 1.388 . S
C996 H983 0.930 1_565 S
C996 C995 1.388 . S
C996 C997 1.390 . S
C997 C996 1.390 . S
C997 C998 1.394 . S
C997 C1003 1.465 . S
C998 C993 1.399 . S
C998 C997 1.394 . S
C998 C999 1.516 . S
C999 C998 1.516 . S
C999 C1000 1.502 . S
C999 C1001 1.561 . S
C999 C1002 1.526 . S
C1000 H984 0.959 . S
C1000 H985 0.959 . S
C1000 H986 0.961 . S
C1000 C999 1.502 . S
C1001 H987 0.960 . S
C1001 H988 0.961 . S
C1001 H989 0.959 . S
C1001 C999 1.561 . S
C1002 C999 1.526 . S
C1002 C1003 1.396 . S
C1002 C1007 1.390 . S
C1003 C997 1.465 . S
C1003 C1002 1.396 . S
C1003 C1004 1.399 1_565 S
C1004 H990 0.929 . S
C1004 C1003 1.399 1_545 S
C1004 C1005 1.385 . S
C1005 H991 0.931 . S
C1005 C1004 1.385 . S
C1005 C1006 1.389 1_545 S
C1006 C1005 1.389 1_565 S
C1006 C1007 1.387 . S
C1007 H992 0.930 . S
C1007 C1002 1.390 . S
C1007 C1006 1.387 . S
H1008 C1020 0.930 . S
H1009 C1022 0.930 . S
H1010 C1023 0.930 . S
H1011 C1027 0.959 . S
H1012 C1027 0.959 . S
H1013 C1027 0.961 . S
H1014 C1028 0.960 . S
H1015 C1028 0.961 . S
H1016 C1028 0.959 . S
H1017 C1031 0.929 . S
H1018 C1032 0.931 . S
H1019 C1034 0.930 . S
C1020 H1008 0.930 . S
C1020 C1021 1.399 . S
C1020 C1025 1.399 . S
C1021 C1020 1.399 . S
C1021 C1022 1.376 . S
C1022 H1009 0.930 . S
C1022 C1021 1.376 . S
C1022 C1023 1.388 . S
C1023 H1010 0.930 . S
C1023 C1022 1.388 . S
C1023 C1024 1.390 . S
C1024 C1023 1.390 . S
C1024 C1025 1.394 . S
C1024 C1030 1.465 . S
C1025 C1020 1.399 . S
C1025 C1024 1.394 . S
C1025 C1026 1.516 . S
C1026 C1025 1.516 . S
C1026 C1027 1.502 . S
C1026 C1028 1.561 . S
C1026 C1029 1.526 . S
C1027 H1011 0.959 . S
C1027 H1012 0.959 . S
C1027 H1013 0.961 . S
C1027 C1026 1.502 . S
C1028 H1014 0.960 . S
C1028 H1015 0.961 . S
C1028 H1016 0.959 . S
C1028 C1026 1.561 . S
C1029 C1026 1.526 . S
C1029 C1030 1.396 . S
C1029 C1034 1.390 . S
C1030 C1024 1.465 . S
C1030 C1029 1.396 . S
C1030 C1031 1.399 . S
C1031 H1017 0.929 . S
C1031 C1030 1.399 . S
C1031 C1032 1.385 . S
C1032 H1018 0.931 . S
C1032 C1031 1.385 . S
C1032 C1033 1.389 . S
C1033 C1032 1.389 . S
C1033 C1034 1.387 . S
C1034 H1019 0.930 . S
C1034 C1029 1.390 . S
C1034 C1033 1.387 . S
H1035 C1047 0.930 . S
H1036 C1049 0.930 . S
H1037 C1050 0.930 . S
H1038 C1054 0.959 . S
H1039 C1054 0.959 . S
H1040 C1054 0.961 . S
H1041 C1055 0.960 . S
H1042 C1055 0.961 . S
H1043 C1055 0.959 . S
H1044 C1058 0.929 . S
H1045 C1059 0.931 . S
H1046 C1061 0.930 . S
C1047 H1035 0.930 . S
C1047 C1048 1.399 . S
C1047 C1052 1.399 . S
C1048 C1047 1.399 . S
C1048 C1049 1.376 . S
C1049 H1036 0.930 . S
C1049 C1048 1.376 . S
C1049 C1050 1.388 . S
C1050 H1037 0.930 . S
C1050 C1049 1.388 . S
C1050 C1051 1.390 . S
C1051 C1050 1.390 . S
C1051 C1052 1.394 . S
C1051 C1057 1.465 . S
C1052 C1047 1.399 . S
C1052 C1051 1.394 . S
C1052 C1053 1.516 . S
C1053 C1052 1.516 . S
C1053 C1054 1.502 . S
C1053 C1055 1.561 . S
C1053 C1056 1.526 . S
C1054 H1038 0.959 . S
C1054 H1039 0.959 . S
C1054 H1040 0.961 . S
C1054 C1053 1.502 . S
C1055 H1041 0.960 . S
C1055 H1042 0.961 . S
C1055 H1043 0.959 . S
C1055 C1053 1.561 . S
C1056 C1053 1.526 . S
C1056 C1057 1.396 . S
C1056 C1061 1.390 . S
C1057 C1051 1.465 . S
C1057 C1056 1.396 . S
C1057 C1058 1.399 . S
C1058 H1044 0.929 . S
C1058 C1057 1.399 . S
C1058 C1059 1.385 . S
C1059 H1045 0.931 . S
C1059 C1058 1.385 . S
C1059 C1060 1.389 . S
C1060 C1059 1.389 . S
C1060 C1061 1.387 . S
C1061 H1046 0.930 . S
C1061 C1056 1.390 . S
C1061 C1060 1.387 . S
H1062 C1074 0.930 . S
H1063 C1076 0.930 . S
H1064 C1077 0.930 . S
H1065 C1081 0.959 . S
H1066 C1081 0.959 . S
H1067 C1081 0.961 . S
H1068 C1082 0.960 . S
H1069 C1082 0.961 . S
H1070 C1082 0.959 . S
H1071 C1085 0.929 . S
H1072 C1086 0.931 . S
H1073 C1088 0.930 . S
C1074 H1062 0.930 . S
C1074 C1075 1.399 . S
C1074 C1079 1.399 . S
C1075 C1074 1.399 . S
C1075 C1076 1.376 . S
C1076 H1063 0.930 . S
C1076 C1075 1.376 . S
C1076 C1077 1.388 . S
C1077 H1064 0.930 . S
C1077 C1076 1.388 . S
C1077 C1078 1.390 . S
C1078 C1077 1.390 . S
C1078 C1079 1.394 . S
C1078 C1084 1.465 . S
C1079 C1074 1.399 . S
C1079 C1078 1.394 . S
C1079 C1080 1.516 . S
C1080 C1079 1.516 . S
C1080 C1081 1.502 . S
C1080 C1082 1.561 . S
C1080 C1083 1.526 . S
C1081 H1065 0.959 . S
C1081 H1066 0.959 . S
C1081 H1067 0.961 . S
C1081 C1080 1.502 . S
C1082 H1068 0.960 . S
C1082 H1069 0.961 . S
C1082 H1070 0.959 . S
C1082 C1080 1.561 . S
C1083 C1080 1.526 . S
C1083 C1084 1.396 . S
C1083 C1088 1.390 . S
C1084 C1078 1.465 . S
C1084 C1083 1.396 . S
C1084 C1085 1.399 . S
C1085 H1071 0.929 . S
C1085 C1084 1.399 . S
C1085 C1086 1.385 . S
C1086 H1072 0.931 . S
C1086 C1085 1.385 . S
C1086 C1087 1.389 . S
C1087 C1086 1.389 . S
C1087 C1088 1.387 . S
C1088 H1073 0.930 . S
C1088 C1083 1.390 . S
C1088 C1087 1.387 . S
H1089 C1101 0.930 . S
H1090 C1103 0.930 . S
H1091 C1104 0.930 . S
H1092 C1108 0.959 . S
H1093 C1108 0.959 . S
H1094 C1108 0.961 . S
H1095 C1109 0.960 . S
H1096 C1109 0.961 . S
H1097 C1109 0.959 . S
H1098 C1112 0.929 . S
H1099 C1113 0.931 . S
H1100 C1115 0.930 . S
C1101 H1089 0.930 . S
C1101 C1102 1.399 . S
C1101 C1106 1.399 . S
C1102 C1101 1.399 . S
C1102 C1103 1.376 . S
C1103 H1090 0.930 . S
C1103 C1102 1.376 . S
C1103 C1104 1.388 . S
C1104 H1091 0.930 . S
C1104 C1103 1.388 . S
C1104 C1105 1.390 . S
C1105 C1104 1.390 . S
C1105 C1106 1.394 . S
C1105 C1111 1.465 . S
C1106 C1101 1.399 . S
C1106 C1105 1.394 . S
C1106 C1107 1.516 . S
C1107 C1106 1.516 . S
C1107 C1108 1.502 . S
C1107 C1109 1.561 . S
C1107 C1110 1.526 . S
C1108 H1092 0.959 . S
C1108 H1093 0.959 . S
C1108 H1094 0.961 . S
C1108 C1107 1.502 . S
C1109 H1095 0.960 . S
C1109 H1096 0.961 . S
C1109 H1097 0.959 . S
C1109 C1107 1.561 . S
C1110 C1107 1.526 . S
C1110 C1111 1.396 . S
C1110 C1115 1.390 . S
C1111 C1105 1.465 . S
C1111 C1110 1.396 . S
C1111 C1112 1.399 . S
C1112 H1098 0.929 . S
C1112 C1111 1.399 . S
C1112 C1113 1.385 . S
C1113 H1099 0.931 . S
C1113 C1112 1.385 . S
C1113 C1114 1.389 . S
C1114 C1113 1.389 . S
C1114 C1115 1.387 . S
C1115 H1100 0.930 . S
C1115 C1110 1.390 . S
C1115 C1114 1.387 . S
H1116 C1128 0.930 . S
H1117 C1130 0.930 . S
H1118 C1131 0.930 . S
H1119 C1135 0.959 . S
H1120 C1135 0.959 . S
H1121 C1135 0.961 . S
H1122 C1136 0.960 . S
H1123 C1136 0.961 . S
H1124 C1136 0.959 . S
H1125 C1139 0.929 . S
H1126 C1140 0.931 . S
H1127 C1142 0.930 . S
C1128 H1116 0.930 . S
C1128 C1129 1.399 . S
C1128 C1133 1.399 . S
C1129 C1128 1.399 . S
C1129 C1130 1.376 . S
C1130 H1117 0.930 . S
C1130 C1129 1.376 . S
C1130 C1131 1.388 . S
C1131 H1118 0.930 . S
C1131 C1130 1.388 . S
C1131 C1132 1.390 . S
C1132 C1131 1.390 . S
C1132 C1133 1.394 . S
C1132 C1138 1.465 . S
C1133 C1128 1.399 . S
C1133 C1132 1.394 . S
C1133 C1134 1.516 . S
C1134 C1133 1.516 . S
C1134 C1135 1.502 . S
C1134 C1136 1.561 . S
C1134 C1137 1.526 . S
C1135 H1119 0.959 . S
C1135 H1120 0.959 . S
C1135 H1121 0.961 . S
C1135 C1134 1.502 . S
C1136 H1122 0.960 . S
C1136 H1123 0.961 . S
C1136 H1124 0.959 . S
C1136 C1134 1.561 . S
C1137 C1134 1.526 . S
C1137 C1138 1.396 . S
C1137 C1142 1.390 . S
C1138 C1132 1.465 . S
C1138 C1137 1.396 . S
C1138 C1139 1.399 . S
C1139 H1125 0.929 . S
C1139 C1138 1.399 . S
C1139 C1140 1.385 . S
C1140 H1126 0.931 . S
C1140 C1139 1.385 . S
C1140 C1141 1.389 . S
C1141 C1140 1.389 . S
C1141 C1142 1.387 . S
C1142 H1127 0.930 . S
C1142 C1137 1.390 . S
C1142 C1141 1.387 . S
H1143 C1155 0.930 . S
H1144 C1157 0.930 . S
H1145 C1158 0.930 1_655 S
H1146 C1162 0.959 . S
H1147 C1162 0.959 . S
H1148 C1162 0.961 . S
H1149 C1163 0.960 . S
H1150 C1163 0.961 . S
H1151 C1163 0.959 . S
H1152 C1166 0.929 . S
H1153 C1167 0.931 . S
H1154 C1169 0.930 . S
C1155 H1143 0.930 . S
C1155 C1156 1.399 . S
C1155 C1160 1.399 . S
C1156 C1155 1.399 . S
C1156 C1157 1.376 . S
C1157 H1144 0.930 . S
C1157 C1156 1.376 . S
C1157 C1158 1.388 . S
C1158 H1145 0.930 1_455 S
C1158 C1157 1.388 . S
C1158 C1159 1.390 . S
C1159 C1158 1.390 . S
C1159 C1160 1.394 . S
C1159 C1165 1.465 . S
C1160 C1155 1.399 . S
C1160 C1159 1.394 . S
C1160 C1161 1.516 . S
C1161 C1160 1.516 . S
C1161 C1162 1.502 . S
C1161 C1163 1.561 . S
C1161 C1164 1.526 . S
C1162 H1146 0.959 . S
C1162 H1147 0.959 . S
C1162 H1148 0.961 . S
C1162 C1161 1.502 . S
C1163 H1149 0.960 . S
C1163 H1150 0.961 . S
C1163 H1151 0.959 . S
C1163 C1161 1.561 . S
C1164 C1161 1.526 . S
C1164 C1165 1.396 . S
C1164 C1169 1.390 . S
C1165 C1159 1.465 . S
C1165 C1164 1.396 . S
C1165 C1166 1.399 1_455 S
C1166 H1152 0.929 . S
C1166 C1165 1.399 1_655 S
C1166 C1167 1.385 . S
C1167 H1153 0.931 . S
C1167 C1166 1.385 . S
C1167 C1168 1.389 1_655 S
C1168 C1167 1.389 1_455 S
C1168 C1169 1.387 . S
C1169 H1154 0.930 . S
C1169 C1164 1.390 . S
C1169 C1168 1.387 . S
H1170 C1182 0.930 . S
H1171 C1184 0.930 . S
H1172 C1185 0.930 . S
H1173 C1189 0.959 . S
H1174 C1189 0.959 . S
H1175 C1189 0.961 . S
H1176 C1190 0.960 . S
H1177 C1190 0.961 . S
H1178 C1190 0.959 . S
H1179 C1193 0.929 . S
H1180 C1194 0.931 . S
H1181 C1196 0.930 . S
C1182 H1170 0.930 . S
C1182 C1183 1.399 . S
C1182 C1187 1.399 . S
C1183 C1182 1.399 . S
C1183 C1184 1.376 . S
C1184 H1171 0.930 . S
C1184 C1183 1.376 . S
C1184 C1185 1.388 . S
C1185 H1172 0.930 . S
C1185 C1184 1.388 . S
C1185 C1186 1.390 . S
C1186 C1185 1.390 . S
C1186 C1187 1.394 . S
C1186 C1192 1.465 . S
C1187 C1182 1.399 . S
C1187 C1186 1.394 . S
C1187 C1188 1.516 . S
C1188 C1187 1.516 . S
C1188 C1189 1.502 . S
C1188 C1190 1.561 . S
C1188 C1191 1.526 . S
C1189 H1173 0.959 . S
C1189 H1174 0.959 . S
C1189 H1175 0.961 . S
C1189 C1188 1.502 . S
C1190 H1176 0.960 . S
C1190 H1177 0.961 . S
C1190 H1178 0.959 . S
C1190 C1188 1.561 . S
C1191 C1188 1.526 . S
C1191 C1192 1.396 . S
C1191 C1196 1.390 . S
C1192 C1186 1.465 . S
C1192 C1191 1.396 . S
C1192 C1193 1.399 . S
C1193 H1179 0.929 . S
C1193 C1192 1.399 . S
C1193 C1194 1.385 . S
C1194 H1180 0.931 . S
C1194 C1193 1.385 . S
C1194 C1195 1.389 . S
C1195 C1194 1.389 . S
C1195 C1196 1.387 . S
C1196 H1181 0.930 . S
C1196 C1191 1.390 . S
C1196 C1195 1.387 . S
H1197 C1209 0.930 . S
H1198 C1211 0.930 . S
H1199 C1212 0.930 . S
H1200 C1216 0.959 . S
H1201 C1216 0.959 . S
H1202 C1216 0.961 . S
H1203 C1217 0.960 . S
H1204 C1217 0.961 . S
H1205 C1217 0.959 . S
H1206 C1220 0.929 . S
H1207 C1221 0.931 . S
H1208 C1223 0.930 . S
C1209 H1197 0.930 . S
C1209 C1210 1.399 . S
C1209 C1214 1.399 . S
C1210 C1209 1.399 . S
C1210 C1211 1.376 . S
C1211 H1198 0.930 . S
C1211 C1210 1.376 . S
C1211 C1212 1.388 . S
C1212 H1199 0.930 . S
C1212 C1211 1.388 . S
C1212 C1213 1.390 . S
C1213 C1212 1.390 . S
C1213 C1214 1.394 . S
C1213 C1219 1.465 . S
C1214 C1209 1.399 . S
C1214 C1213 1.394 . S
C1214 C1215 1.516 . S
C1215 C1214 1.516 . S
C1215 C1216 1.502 . S
C1215 C1217 1.561 1_655 S
C1215 C1218 1.526 . S
C1216 H1200 0.959 . S
C1216 H1201 0.959 . S
C1216 H1202 0.961 . S
C1216 C1215 1.502 . S
C1217 H1203 0.960 . S
C1217 H1204 0.961 . S
C1217 H1205 0.959 . S
C1217 C1215 1.561 1_455 S
C1218 C1215 1.526 . S
C1218 C1219 1.396 . S
C1218 C1223 1.390 . S
C1219 C1213 1.465 . S
C1219 C1218 1.396 . S
C1219 C1220 1.399 . S
C1220 H1206 0.929 . S
C1220 C1219 1.399 . S
C1220 C1221 1.385 . S
C1221 H1207 0.931 . S
C1221 C1220 1.385 . S
C1221 C1222 1.389 . S
C1222 C1221 1.389 . S
C1222 C1223 1.387 . S
C1223 H1208 0.930 . S
C1223 C1218 1.390 . S
C1223 C1222 1.387 . S
H1224 C1236 0.930 . S
H1225 C1238 0.930 . S
H1226 C1239 0.930 . S
H1227 C1243 0.959 . S
H1228 C1243 0.959 . S
H1229 C1243 0.961 . S
H1230 C1244 0.960 . S
H1231 C1244 0.961 . S
H1232 C1244 0.959 . S
H1233 C1247 0.929 . S
H1234 C1248 0.931 . S
H1235 C1250 0.930 . S
C1236 H1224 0.930 . S
C1236 C1237 1.399 . S
C1236 C1241 1.399 . S
C1237 C1236 1.399 . S
C1237 C1238 1.376 . S
C1238 H1225 0.930 . S
C1238 C1237 1.376 . S
C1238 C1239 1.388 . S
C1239 H1226 0.930 . S
C1239 C1238 1.388 . S
C1239 C1240 1.390 . S
C1240 C1239 1.390 . S
C1240 C1241 1.394 . S
C1240 C1246 1.465 . S
C1241 C1236 1.399 . S
C1241 C1240 1.394 . S
C1241 C1242 1.516 . S
C1242 C1241 1.516 . S
C1242 C1243 1.502 . S
C1242 C1244 1.561 . S
C1242 C1245 1.526 . S
C1243 H1227 0.959 . S
C1243 H1228 0.959 . S
C1243 H1229 0.961 . S
C1243 C1242 1.502 . S
C1244 H1230 0.960 . S
C1244 H1231 0.961 . S
C1244 H1232 0.959 . S
C1244 C1242 1.561 . S
C1245 C1242 1.526 . S
C1245 C1246 1.396 . S
C1245 C1250 1.390 . S
C1246 C1240 1.465 . S
C1246 C1245 1.396 . S
C1246 C1247 1.399 . S
C1247 H1233 0.929 . S
C1247 C1246 1.399 . S
C1247 C1248 1.385 . S
C1248 H1234 0.931 . S
C1248 C1247 1.385 . S
C1248 C1249 1.389 . S
C1249 C1248 1.389 . S
C1249 C1250 1.387 . S
C1250 H1235 0.930 . S
C1250 C1245 1.390 . S
C1250 C1249 1.387 . S
H1251 C1263 0.930 . S
H1252 C1265 0.930 . S
H1253 C1266 0.930 . S
H1254 C1270 0.959 . S
H1255 C1270 0.959 . S
H1256 C1270 0.961 . S
H1257 C1271 0.960 . S
H1258 C1271 0.961 . S
H1259 C1271 0.959 . S
H1260 C1274 0.929 . S
H1261 C1275 0.931 . S
H1262 C1277 0.930 . S
C1263 H1251 0.930 . S
C1263 C1264 1.399 . S
C1263 C1268 1.399 . S
C1264 C1263 1.399 . S
C1264 C1265 1.376 . S
C1265 H1252 0.930 . S
C1265 C1264 1.376 . S
C1265 C1266 1.388 . S
C1266 H1253 0.930 . S
C1266 C1265 1.388 . S
C1266 C1267 1.390 . S
C1267 C1266 1.390 . S
C1267 C1268 1.394 . S
C1267 C1273 1.465 . S
C1268 C1263 1.399 . S
C1268 C1267 1.394 . S
C1268 C1269 1.516 . S
C1269 C1268 1.516 . S
C1269 C1270 1.502 . S
C1269 C1271 1.561 . S
C1269 C1272 1.526 . S
C1270 H1254 0.959 . S
C1270 H1255 0.959 . S
C1270 H1256 0.961 . S
C1270 C1269 1.502 . S
C1271 H1257 0.960 . S
C1271 H1258 0.961 . S
C1271 H1259 0.959 . S
C1271 C1269 1.561 . S
C1272 C1269 1.526 . S
C1272 C1273 1.396 . S
C1272 C1277 1.390 . S
C1273 C1267 1.465 . S
C1273 C1272 1.396 . S
C1273 C1274 1.399 . S
C1274 H1260 0.929 . S
C1274 C1273 1.399 . S
C1274 C1275 1.385 . S
C1275 H1261 0.931 . S
C1275 C1274 1.385 . S
C1275 C1276 1.389 . S
C1276 C1275 1.389 . S
C1276 C1277 1.387 . S
C1277 H1262 0.930 . S
C1277 C1272 1.390 . S
C1277 C1276 1.387 . S
H1278 C1290 0.930 . S
H1279 C1292 0.930 . S
H1280 C1293 0.930 . S
H1281 C1297 0.959 . S
H1282 C1297 0.959 . S
H1283 C1297 0.961 . S
H1284 C1298 0.960 . S
H1285 C1298 0.961 . S
H1286 C1298 0.959 . S
H1287 C1301 0.929 . S
H1288 C1302 0.931 1_554 S
H1289 C1304 0.930 . S
C1290 H1278 0.930 . S
C1290 C1291 1.399 . S
C1290 C1295 1.399 . S
C1291 C1290 1.399 . S
C1291 C1292 1.376 . S
C1292 H1279 0.930 . S
C1292 C1291 1.376 . S
C1292 C1293 1.388 . S
C1293 H1280 0.930 . S
C1293 C1292 1.388 . S
C1293 C1294 1.390 . S
C1294 C1293 1.390 . S
C1294 C1295 1.394 . S
C1294 C1300 1.465 . S
C1295 C1290 1.399 . S
C1295 C1294 1.394 . S
C1295 C1296 1.516 . S
C1296 C1295 1.516 . S
C1296 C1297 1.502 . S
C1296 C1298 1.561 . S
C1296 C1299 1.526 . S
C1297 H1281 0.959 . S
C1297 H1282 0.959 . S
C1297 H1283 0.961 . S
C1297 C1296 1.502 . S
C1298 H1284 0.960 . S
C1298 H1285 0.961 . S
C1298 H1286 0.959 . S
C1298 C1296 1.561 . S
C1299 C1296 1.526 . S
C1299 C1300 1.396 . S
C1299 C1304 1.390 . S
C1300 C1294 1.465 . S
C1300 C1299 1.396 . S
C1300 C1301 1.399 . S
C1301 H1287 0.929 . S
C1301 C1300 1.399 . S
C1301 C1302 1.385 . S
C1302 H1288 0.931 1_556 S
C1302 C1301 1.385 . S
C1302 C1303 1.389 . S
C1303 C1302 1.389 . S
C1303 C1304 1.387 . S
C1304 H1289 0.930 . S
C1304 C1299 1.390 . S
C1304 C1303 1.387 . S
H1305 C1317 0.930 . S
H1306 C1319 0.930 . S
H1307 C1320 0.930 . S
H1308 C1324 0.959 . S
H1309 C1324 0.959 . S
H1310 C1324 0.961 . S
H1311 C1325 0.960 . S
H1312 C1325 0.961 . S
H1313 C1325 0.959 . S
H1314 C1328 0.929 . S
H1315 C1329 0.931 . S
H1316 C1331 0.930 . S
C1317 H1305 0.930 . S
C1317 C1318 1.399 . S
C1317 C1322 1.399 . S
C1318 C1317 1.399 . S
C1318 C1319 1.376 . S
C1319 H1306 0.930 . S
C1319 C1318 1.376 . S
C1319 C1320 1.388 . S
C1320 H1307 0.930 . S
C1320 C1319 1.388 . S
C1320 C1321 1.390 . S
C1321 C1320 1.390 . S
C1321 C1322 1.394 . S
C1321 C1327 1.465 . S
C1322 C1317 1.399 . S
C1322 C1321 1.394 . S
C1322 C1323 1.516 . S
C1323 C1322 1.516 . S
C1323 C1324 1.502 . S
C1323 C1325 1.561 . S
C1323 C1326 1.526 . S
C1324 H1308 0.959 . S
C1324 H1309 0.959 . S
C1324 H1310 0.961 . S
C1324 C1323 1.502 . S
C1325 H1311 0.960 . S
C1325 H1312 0.961 . S
C1325 H1313 0.959 . S
C1325 C1323 1.561 . S
C1326 C1323 1.526 . S
C1326 C1327 1.396 . S
C1326 C1331 1.390 . S
C1327 C1321 1.465 . S
C1327 C1326 1.396 . S
C1327 C1328 1.399 . S
C1328 H1314 0.929 . S
C1328 C1327 1.399 . S
C1328 C1329 1.385 . S
C1329 H1315 0.931 . S
C1329 C1328 1.385 . S
C1329 C1330 1.389 . S
C1330 C1329 1.389 . S
C1330 C1331 1.387 . S
C1331 H1316 0.930 . S
C1331 C1326 1.390 . S
C1331 C1330 1.387 . S
H1332 C1344 0.930 . S
H1333 C1346 0.930 . S
H1334 C1347 0.930 . S
H1335 C1351 0.959 . S
H1336 C1351 0.959 . S
H1337 C1351 0.961 . S
H1338 C1352 0.960 . S
H1339 C1352 0.961 . S
H1340 C1352 0.959 . S
H1341 C1355 0.929 . S
H1342 C1356 0.931 . S
H1343 C1358 0.930 . S
C1344 H1332 0.930 . S
C1344 C1345 1.399 . S
C1344 C1349 1.399 . S
C1345 C1344 1.399 . S
C1345 C1346 1.376 . S
C1346 H1333 0.930 . S
C1346 C1345 1.376 . S
C1346 C1347 1.388 . S
C1347 H1334 0.930 . S
C1347 C1346 1.388 . S
C1347 C1348 1.390 . S
C1348 C1347 1.390 . S
C1348 C1349 1.394 . S
C1348 C1354 1.465 . S
C1349 C1344 1.399 . S
C1349 C1348 1.394 . S
C1349 C1350 1.516 . S
C1350 C1349 1.516 . S
C1350 C1351 1.502 . S
C1350 C1352 1.561 . S
C1350 C1353 1.526 . S
C1351 H1335 0.959 . S
C1351 H1336 0.959 . S
C1351 H1337 0.961 . S
C1351 C1350 1.502 . S
C1352 H1338 0.960 . S
C1352 H1339 0.961 . S
C1352 H1340 0.959 . S
C1352 C1350 1.561 . S
C1353 C1350 1.526 . S
C1353 C1354 1.396 . S
C1353 C1358 1.390 . S
C1354 C1348 1.465 . S
C1354 C1353 1.396 . S
C1354 C1355 1.399 . S
C1355 H1341 0.929 . S
C1355 C1354 1.399 . S
C1355 C1356 1.385 . S
C1356 H1342 0.931 . S
C1356 C1355 1.385 . S
C1356 C1357 1.389 . S
C1357 C1356 1.389 . S
C1357 C1358 1.387 . S
C1358 H1343 0.930 . S
C1358 C1353 1.390 . S
C1358 C1357 1.387 . S
H1359 C1371 0.930 . S
H1360 C1373 0.930 . S
H1361 C1374 0.930 . S
H1362 C1378 0.959 . S
H1363 C1378 0.959 . S
H1364 C1378 0.961 . S
H1365 C1379 0.960 . S
H1366 C1379 0.961 . S
H1367 C1379 0.959 . S
H1368 C1382 0.929 . S
H1369 C1383 0.931 . S
H1370 C1385 0.930 . S
C1371 H1359 0.930 . S
C1371 C1372 1.399 . S
C1371 C1376 1.399 . S
C1372 C1371 1.399 . S
C1372 C1373 1.376 . S
C1373 H1360 0.930 . S
C1373 C1372 1.376 . S
C1373 C1374 1.388 . S
C1374 H1361 0.930 . S
C1374 C1373 1.388 . S
C1374 C1375 1.390 . S
C1375 C1374 1.390 . S
C1375 C1376 1.394 . S
C1375 C1381 1.465 . S
C1376 C1371 1.399 . S
C1376 C1375 1.394 . S
C1376 C1377 1.516 . S
C1377 C1376 1.516 . S
C1377 C1378 1.502 . S
C1377 C1379 1.561 . S
C1377 C1380 1.526 . S
C1378 H1362 0.959 . S
C1378 H1363 0.959 . S
C1378 H1364 0.961 . S
C1378 C1377 1.502 . S
C1379 H1365 0.960 . S
C1379 H1366 0.961 . S
C1379 H1367 0.959 . S
C1379 C1377 1.561 . S
C1380 C1377 1.526 . S
C1380 C1381 1.396 . S
C1380 C1385 1.390 . S
C1381 C1375 1.465 . S
C1381 C1380 1.396 . S
C1381 C1382 1.399 . S
C1382 H1368 0.929 . S
C1382 C1381 1.399 . S
C1382 C1383 1.385 . S
C1383 H1369 0.931 . S
C1383 C1382 1.385 . S
C1383 C1384 1.389 . S
C1384 C1383 1.389 . S
C1384 C1385 1.387 . S
C1385 H1370 0.930 . S
C1385 C1380 1.390 . S
C1385 C1384 1.387 . S
H1386 C1398 0.930 . S
H1387 C1400 0.930 . S
H1388 C1401 0.930 . S
H1389 C1405 0.959 . S
H1390 C1405 0.959 . S
H1391 C1405 0.961 . S
H1392 C1406 0.960 . S
H1393 C1406 0.961 . S
H1394 C1406 0.959 . S
H1395 C1409 0.929 . S
H1396 C1410 0.931 . S
H1397 C1412 0.930 . S
C1398 H1386 0.930 . S
C1398 C1399 1.399 . S
C1398 C1403 1.399 . S
C1399 C1398 1.399 . S
C1399 C1400 1.376 . S
C1400 H1387 0.930 . S
C1400 C1399 1.376 . S
C1400 C1401 1.388 . S
C1401 H1388 0.930 . S
C1401 C1400 1.388 . S
C1401 C1402 1.390 . S
C1402 C1401 1.390 . S
C1402 C1403 1.394 . S
C1402 C1408 1.465 . S
C1403 C1398 1.399 . S
C1403 C1402 1.394 . S
C1403 C1404 1.516 . S
C1404 C1403 1.516 . S
C1404 C1405 1.502 . S
C1404 C1406 1.561 . S
C1404 C1407 1.526 . S
C1405 H1389 0.959 . S
C1405 H1390 0.959 . S
C1405 H1391 0.961 . S
C1405 C1404 1.502 . S
C1406 H1392 0.960 . S
C1406 H1393 0.961 . S
C1406 H1394 0.959 . S
C1406 C1404 1.561 . S
C1407 C1404 1.526 . S
C1407 C1408 1.396 . S
C1407 C1412 1.390 . S
C1408 C1402 1.465 . S
C1408 C1407 1.396 . S
C1408 C1409 1.399 . S
C1409 H1395 0.929 . S
C1409 C1408 1.399 . S
C1409 C1410 1.385 . S
C1410 H1396 0.931 . S
C1410 C1409 1.385 . S
C1410 C1411 1.389 . S
C1411 C1410 1.389 . S
C1411 C1412 1.387 . S
C1412 H1397 0.930 . S
C1412 C1407 1.390 . S
C1412 C1411 1.387 . S
H1413 C1425 0.930 . S
H1414 C1427 0.930 . S
H1415 C1428 0.930 . S
H1416 C1432 0.959 . S
H1417 C1432 0.959 . S
H1418 C1432 0.961 . S
H1419 C1433 0.960 . S
H1420 C1433 0.961 . S
H1421 C1433 0.959 . S
H1422 C1436 0.929 . S
H1423 C1437 0.931 . S
H1424 C1439 0.930 . S
C1425 H1413 0.930 . S
C1425 C1426 1.399 . S
C1425 C1430 1.399 . S
C1426 C1425 1.399 . S
C1426 C1427 1.376 . S
C1427 H1414 0.930 . S
C1427 C1426 1.376 . S
C1427 C1428 1.388 . S
C1428 H1415 0.930 . S
C1428 C1427 1.388 . S
C1428 C1429 1.390 . S
C1429 C1428 1.390 . S
C1429 C1430 1.394 . S
C1429 C1435 1.465 . S
C1430 C1425 1.399 . S
C1430 C1429 1.394 . S
C1430 C1431 1.516 . S
C1431 C1430 1.516 . S
C1431 C1432 1.502 . S
C1431 C1433 1.561 . S
C1431 C1434 1.526 . S
C1432 H1416 0.959 . S
C1432 H1417 0.959 . S
C1432 H1418 0.961 . S
C1432 C1431 1.502 . S
C1433 H1419 0.960 . S
C1433 H1420 0.961 . S
C1433 H1421 0.959 . S
C1433 C1431 1.561 . S
C1434 C1431 1.526 . S
C1434 C1435 1.396 . S
C1434 C1439 1.390 . S
C1435 C1429 1.465 . S
C1435 C1434 1.396 . S
C1435 C1436 1.399 . S
C1436 H1422 0.929 . S
C1436 C1435 1.399 . S
C1436 C1437 1.385 . S
C1437 H1423 0.931 . S
C1437 C1436 1.385 . S
C1437 C1438 1.389 . S
C1438 C1437 1.389 . S
C1438 C1439 1.387 . S
C1439 H1424 0.930 . S
C1439 C1434 1.390 . S
C1439 C1438 1.387 . S
H1440 C1452 0.930 . S
H1441 C1454 0.930 . S
H1442 C1455 0.930 . S
H1443 C1459 0.959 . S
H1444 C1459 0.959 . S
H1445 C1459 0.961 . S
H1446 C1460 0.960 . S
H1447 C1460 0.961 . S
H1448 C1460 0.959 . S
H1449 C1463 0.929 . S
H1450 C1464 0.931 . S
H1451 C1466 0.930 . S
C1452 H1440 0.930 . S
C1452 C1453 1.399 . S
C1452 C1457 1.399 . S
C1453 C1452 1.399 . S
C1453 C1454 1.376 . S
C1454 H1441 0.930 . S
C1454 C1453 1.376 . S
C1454 C1455 1.388 . S
C1455 H1442 0.930 . S
C1455 C1454 1.388 . S
C1455 C1456 1.390 . S
C1456 C1455 1.390 . S
C1456 C1457 1.394 . S
C1456 C1462 1.465 . S
C1457 C1452 1.399 . S
C1457 C1456 1.394 . S
C1457 C1458 1.516 . S
C1458 C1457 1.516 . S
C1458 C1459 1.502 . S
C1458 C1460 1.561 . S
C1458 C1461 1.526 . S
C1459 H1443 0.959 . S
C1459 H1444 0.959 . S
C1459 H1445 0.961 . S
C1459 C1458 1.502 . S
C1460 H1446 0.960 . S
C1460 H1447 0.961 . S
C1460 H1448 0.959 . S
C1460 C1458 1.561 . S
C1461 C1458 1.526 . S
C1461 C1462 1.396 . S
C1461 C1466 1.390 . S
C1462 C1456 1.465 . S
C1462 C1461 1.396 . S
C1462 C1463 1.399 . S
C1463 H1449 0.929 . S
C1463 C1462 1.399 . S
C1463 C1464 1.385 . S
C1464 H1450 0.931 . S
C1464 C1463 1.385 . S
C1464 C1465 1.389 . S
C1465 C1464 1.389 . S
C1465 C1466 1.387 . S
C1466 H1451 0.930 . S
C1466 C1461 1.390 . S
C1466 C1465 1.387 . S
H1467 C1479 0.930 . S
H1468 C1481 0.930 . S
H1469 C1482 0.930 . S
H1470 C1486 0.959 1_545 S
H1471 C1486 0.959 . S
H1472 C1486 0.961 . S
H1473 C1487 0.960 . S
H1474 C1487 0.961 . S
H1475 C1487 0.959 . S
H1476 C1490 0.929 . S
H1477 C1491 0.931 . S
H1478 C1493 0.930 1_565 S
C1479 H1467 0.930 . S
C1479 C1480 1.399 . S
C1479 C1484 1.399 . S
C1480 C1479 1.399 . S
C1480 C1481 1.376 . S
C1481 H1468 0.930 . S
C1481 C1480 1.376 . S
C1481 C1482 1.388 . S
C1482 H1469 0.930 . S
C1482 C1481 1.388 . S
C1482 C1483 1.390 . S
C1483 C1482 1.390 . S
C1483 C1484 1.394 . S
C1483 C1489 1.465 . S
C1484 C1479 1.399 . S
C1484 C1483 1.394 . S
C1484 C1485 1.516 . S
C1485 C1484 1.516 . S
C1485 C1486 1.502 1_545 S
C1485 C1487 1.561 1_545 S
C1485 C1488 1.526 . S
C1486 H1470 0.959 1_565 S
C1486 H1471 0.959 . S
C1486 H1472 0.961 . S
C1486 C1485 1.502 1_565 S
C1487 H1473 0.960 . S
C1487 H1474 0.961 . S
C1487 H1475 0.959 . S
C1487 C1485 1.561 1_565 S
C1488 C1485 1.526 . S
C1488 C1489 1.396 . S
C1488 C1493 1.390 . S
C1489 C1483 1.465 . S
C1489 C1488 1.396 . S
C1489 C1490 1.399 . S
C1490 H1476 0.929 . S
C1490 C1489 1.399 . S
C1490 C1491 1.385 . S
C1491 H1477 0.931 . S
C1491 C1490 1.385 . S
C1491 C1492 1.389 . S
C1492 C1491 1.389 . S
C1492 C1493 1.387 . S
C1493 H1478 0.930 1_545 S
C1493 C1488 1.390 . S
C1493 C1492 1.387 . S
H1494 C1506 0.930 . S
H1495 C1508 0.930 . S
H1496 C1509 0.930 . S
H1497 C1513 0.959 . S
H1498 C1513 0.959 . S
H1499 C1513 0.961 . S
H1500 C1514 0.960 . S
H1501 C1514 0.961 . S
H1502 C1514 0.959 . S
H1503 C1517 0.929 . S
H1504 C1518 0.931 . S
H1505 C1520 0.930 . S
C1506 H1494 0.930 . S
C1506 C1507 1.399 . S
C1506 C1511 1.399 . S
C1507 C1506 1.399 . S
C1507 C1508 1.376 . S
C1508 H1495 0.930 . S
C1508 C1507 1.376 . S
C1508 C1509 1.388 . S
C1509 H1496 0.930 . S
C1509 C1508 1.388 . S
C1509 C1510 1.390 . S
C1510 C1509 1.390 . S
C1510 C1511 1.394 . S
C1510 C1516 1.465 . S
C1511 C1506 1.399 . S
C1511 C1510 1.394 . S
C1511 C1512 1.516 . S
C1512 C1511 1.516 . S
C1512 C1513 1.502 . S
C1512 C1514 1.561 . S
C1512 C1515 1.526 . S
C1513 H1497 0.959 . S
C1513 H1498 0.959 . S
C1513 H1499 0.961 . S
C1513 C1512 1.502 . S
C1514 H1500 0.960 . S
C1514 H1501 0.961 . S
C1514 H1502 0.959 . S
C1514 C1512 1.561 . S
C1515 C1512 1.526 . S
C1515 C1516 1.396 . S
C1515 C1520 1.390 . S
C1516 C1510 1.465 . S
C1516 C1515 1.396 . S
C1516 C1517 1.399 . S
C1517 H1503 0.929 . S
C1517 C1516 1.399 . S
C1517 C1518 1.385 . S
C1518 H1504 0.931 . S
C1518 C1517 1.385 . S
C1518 C1519 1.389 . S
C1519 C1518 1.389 . S
C1519 C1520 1.387 . S
C1520 H1505 0.930 . S
C1520 C1515 1.390 . S
C1520 C1519 1.387 . S
H1521 C1533 0.930 . S
H1522 C1535 0.930 . S
H1523 C1536 0.930 . S
H1524 C1540 0.959 . S
H1525 C1540 0.959 . S
H1526 C1540 0.961 . S
H1527 C1541 0.960 . S
H1528 C1541 0.961 . S
H1529 C1541 0.959 . S
H1530 C1544 0.929 . S
H1531 C1545 0.931 . S
H1532 C1547 0.930 . S
C1533 H1521 0.930 . S
C1533 C1534 1.399 . S
C1533 C1538 1.399 . S
C1534 C1533 1.399 . S
C1534 C1535 1.376 . S
C1535 H1522 0.930 . S
C1535 C1534 1.376 . S
C1535 C1536 1.388 . S
C1536 H1523 0.930 . S
C1536 C1535 1.388 . S
C1536 C1537 1.390 . S
C1537 C1536 1.390 . S
C1537 C1538 1.394 . S
C1537 C1543 1.465 . S
C1538 C1533 1.399 . S
C1538 C1537 1.394 . S
C1538 C1539 1.516 . S
C1539 C1538 1.516 . S
C1539 C1540 1.502 . S
C1539 C1541 1.561 . S
C1539 C1542 1.526 . S
C1540 H1524 0.959 . S
C1540 H1525 0.959 . S
C1540 H1526 0.961 . S
C1540 C1539 1.502 . S
C1541 H1527 0.960 . S
C1541 H1528 0.961 . S
C1541 H1529 0.959 . S
C1541 C1539 1.561 . S
C1542 C1539 1.526 . S
C1542 C1543 1.396 . S
C1542 C1547 1.390 . S
C1543 C1537 1.465 . S
C1543 C1542 1.396 . S
C1543 C1544 1.399 . S
C1544 H1530 0.929 . S
C1544 C1543 1.399 . S
C1544 C1545 1.385 . S
C1545 H1531 0.931 . S
C1545 C1544 1.385 . S
C1545 C1546 1.389 . S
C1546 C1545 1.389 . S
C1546 C1547 1.387 . S
C1547 H1532 0.930 . S
C1547 C1542 1.390 . S
C1547 C1546 1.387 . S
H1548 C1560 0.930 . S
H1549 C1562 0.930 . S
H1550 C1563 0.930 . S
H1551 C1567 0.959 . S
H1552 C1567 0.959 . S
H1553 C1567 0.961 . S
H1554 C1568 0.960 . S
H1555 C1568 0.961 . S
H1556 C1568 0.959 . S
H1557 C1571 0.929 . S
H1558 C1572 0.931 . S
H1559 C1574 0.930 . S
C1560 H1548 0.930 . S
C1560 C1561 1.399 . S
C1560 C1565 1.399 . S
C1561 C1560 1.399 . S
C1561 C1562 1.376 . S
C1562 H1549 0.930 . S
C1562 C1561 1.376 . S
C1562 C1563 1.388 . S
C1563 H1550 0.930 . S
C1563 C1562 1.388 . S
C1563 C1564 1.390 . S
C1564 C1563 1.390 . S
C1564 C1565 1.394 . S
C1564 C1570 1.465 . S
C1565 C1560 1.399 . S
C1565 C1564 1.394 . S
C1565 C1566 1.516 . S
C1566 C1565 1.516 . S
C1566 C1567 1.502 . S
C1566 C1568 1.561 . S
C1566 C1569 1.526 . S
C1567 H1551 0.959 . S
C1567 H1552 0.959 . S
C1567 H1553 0.961 . S
C1567 C1566 1.502 . S
C1568 H1554 0.960 . S
C1568 H1555 0.961 . S
C1568 H1556 0.959 . S
C1568 C1566 1.561 . S
C1569 C1566 1.526 . S
C1569 C1570 1.396 . S
C1569 C1574 1.390 . S
C1570 C1564 1.465 . S
C1570 C1569 1.396 . S
C1570 C1571 1.399 . S
C1571 H1557 0.929 . S
C1571 C1570 1.399 . S
C1571 C1572 1.385 . S
C1572 H1558 0.931 . S
C1572 C1571 1.385 . S
C1572 C1573 1.389 . S
C1573 C1572 1.389 . S
C1573 C1574 1.387 . S
C1574 H1559 0.930 . S
C1574 C1569 1.390 . S
C1574 C1573 1.387 . S
H1575 C1587 0.930 1_565 S
H1576 C1589 0.930 . S
H1577 C1590 0.930 . S
H1578 C1594 0.959 . S
H1579 C1594 0.959 . S
H1580 C1594 0.961 . S
H1581 C1595 0.960 . S
H1582 C1595 0.961 . S
H1583 C1595 0.959 . S
H1584 C1598 0.929 . S
H1585 C1599 0.931 . S
H1586 C1601 0.930 1_565 S
C1587 H1575 0.930 1_545 S
C1587 C1588 1.399 . S
C1587 C1592 1.399 . S
C1588 C1587 1.399 . S
C1588 C1589 1.376 . S
C1589 H1576 0.930 . S
C1589 C1588 1.376 . S
C1589 C1590 1.388 . S
C1590 H1577 0.930 . S
C1590 C1589 1.388 . S
C1590 C1591 1.390 . S
C1591 C1590 1.390 . S
C1591 C1592 1.394 . S
C1591 C1597 1.465 . S
C1592 C1587 1.399 . S
C1592 C1591 1.394 . S
C1592 C1593 1.516 1_545 S
C1593 C1592 1.516 1_565 S
C1593 C1594 1.502 . S
C1593 C1595 1.561 . S
C1593 C1596 1.526 1_565 S
C1594 H1578 0.959 . S
C1594 H1579 0.959 . S
C1594 H1580 0.961 . S
C1594 C1593 1.502 . S
C1595 H1581 0.960 . S
C1595 H1582 0.961 . S
C1595 H1583 0.959 . S
C1595 C1593 1.561 . S
C1596 C1593 1.526 1_545 S
C1596 C1597 1.396 . S
C1596 C1601 1.390 . S
C1597 C1591 1.465 . S
C1597 C1596 1.396 . S
C1597 C1598 1.399 . S
C1598 H1584 0.929 . S
C1598 C1597 1.399 . S
C1598 C1599 1.385 . S
C1599 H1585 0.931 . S
C1599 C1598 1.385 . S
C1599 C1600 1.389 . S
C1600 C1599 1.389 . S
C1600 C1601 1.387 . S
C1601 H1586 0.930 1_545 S
C1601 C1596 1.390 . S
C1601 C1600 1.387 . S
H1602 C1614 0.930 . S
H1603 C1616 0.930 . S
H1604 C1617 0.930 . S
H1605 C1621 0.959 . S
H1606 C1621 0.959 . S
H1607 C1621 0.961 . S
H1608 C1622 0.960 . S
H1609 C1622 0.961 . S
H1610 C1622 0.959 . S
H1611 C1625 0.929 . S
H1612 C1626 0.931 . S
H1613 C1628 0.930 . S
C1614 H1602 0.930 . S
C1614 C1615 1.399 . S
C1614 C1619 1.399 . S
C1615 C1614 1.399 . S
C1615 C1616 1.376 . S
C1616 H1603 0.930 . S
C1616 C1615 1.376 . S
C1616 C1617 1.388 . S
C1617 H1604 0.930 . S
C1617 C1616 1.388 . S
C1617 C1618 1.390 . S
C1618 C1617 1.390 . S
C1618 C1619 1.394 . S
C1618 C1624 1.465 . S
C1619 C1614 1.399 . S
C1619 C1618 1.394 . S
C1619 C1620 1.516 . S
C1620 C1619 1.516 . S
C1620 C1621 1.502 . S
C1620 C1622 1.561 . S
C1620 C1623 1.526 . S
C1621 H1605 0.959 . S
C1621 H1606 0.959 . S
C1621 H1607 0.961 . S
C1621 C1620 1.502 . S
C1622 H1608 0.960 . S
C1622 H1609 0.961 . S
C1622 H1610 0.959 . S
C1622 C1620 1.561 . S
C1623 C1620 1.526 . S
C1623 C1624 1.396 . S
C1623 C1628 1.390 . S
C1624 C1618 1.465 . S
C1624 C1623 1.396 . S
C1624 C1625 1.399 . S
C1625 H1611 0.929 . S
C1625 C1624 1.399 . S
C1625 C1626 1.385 . S
C1626 H1612 0.931 . S
C1626 C1625 1.385 . S
C1626 C1627 1.389 . S
C1627 C1626 1.389 . S
C1627 C1628 1.387 . S
C1628 H1613 0.930 . S
C1628 C1623 1.390 . S
C1628 C1627 1.387 . S
H1629 C1641 0.930 . S
H1630 C1643 0.930 . S
H1631 C1644 0.930 . S
H1632 C1648 0.959 . S
H1633 C1648 0.959 . S
H1634 C1648 0.961 . S
H1635 C1649 0.960 . S
H1636 C1649 0.961 . S
H1637 C1649 0.959 . S
H1638 C1652 0.929 . S
H1639 C1653 0.931 . S
H1640 C1655 0.930 . S
C1641 H1629 0.930 . S
C1641 C1642 1.399 . S
C1641 C1646 1.399 . S
C1642 C1641 1.399 . S
C1642 C1643 1.376 . S
C1643 H1630 0.930 . S
C1643 C1642 1.376 . S
C1643 C1644 1.388 . S
C1644 H1631 0.930 . S
C1644 C1643 1.388 . S
C1644 C1645 1.390 . S
C1645 C1644 1.390 . S
C1645 C1646 1.394 . S
C1645 C1651 1.465 . S
C1646 C1641 1.399 . S
C1646 C1645 1.394 . S
C1646 C1647 1.516 . S
C1647 C1646 1.516 . S
C1647 C1648 1.502 . S
C1647 C1649 1.561 . S
C1647 C1650 1.526 . S
C1648 H1632 0.959 . S
C1648 H1633 0.959 . S
C1648 H1634 0.961 . S
C1648 C1647 1.502 . S
C1649 H1635 0.960 . S
C1649 H1636 0.961 . S
C1649 H1637 0.959 . S
C1649 C1647 1.561 . S
C1650 C1647 1.526 . S
C1650 C1651 1.396 . S
C1650 C1655 1.390 . S
C1651 C1645 1.465 . S
C1651 C1650 1.396 . S
C1651 C1652 1.399 . S
C1652 H1638 0.929 . S
C1652 C1651 1.399 . S
C1652 C1653 1.385 . S
C1653 H1639 0.931 . S
C1653 C1652 1.385 . S
C1653 C1654 1.389 . S
C1654 C1653 1.389 . S
C1654 C1655 1.387 . S
C1655 H1640 0.930 . S
C1655 C1650 1.390 . S
C1655 C1654 1.387 . S
H1656 C1668 0.930 . S
H1657 C1670 0.930 . S
H1658 C1671 0.930 . S
H1659 C1675 0.959 . S
H1660 C1675 0.959 . S
H1661 C1675 0.961 . S
H1662 C1676 0.960 . S
H1663 C1676 0.961 . S
H1664 C1676 0.959 . S
H1665 C1679 0.929 . S
H1666 C1680 0.931 . S
H1667 C1682 0.930 . S
C1668 H1656 0.930 . S
C1668 C1669 1.399 . S
C1668 C1673 1.399 . S
C1669 C1668 1.399 . S
C1669 C1670 1.376 . S
C1670 H1657 0.930 . S
C1670 C1669 1.376 . S
C1670 C1671 1.388 . S
C1671 H1658 0.930 . S
C1671 C1670 1.388 . S
C1671 C1672 1.390 . S
C1672 C1671 1.390 . S
C1672 C1673 1.394 . S
C1672 C1678 1.465 . S
C1673 C1668 1.399 . S
C1673 C1672 1.394 . S
C1673 C1674 1.516 . S
C1674 C1673 1.516 . S
C1674 C1675 1.502 . S
C1674 C1676 1.561 . S
C1674 C1677 1.526 . S
C1675 H1659 0.959 . S
C1675 H1660 0.959 . S
C1675 H1661 0.961 . S
C1675 C1674 1.502 . S
C1676 H1662 0.960 . S
C1676 H1663 0.961 . S
C1676 H1664 0.959 . S
C1676 C1674 1.561 . S
C1677 C1674 1.526 . S
C1677 C1678 1.396 . S
C1677 C1682 1.390 . S
C1678 C1672 1.465 . S
C1678 C1677 1.396 . S
C1678 C1679 1.399 . S
C1679 H1665 0.929 . S
C1679 C1678 1.399 . S
C1679 C1680 1.385 . S
C1680 H1666 0.931 . S
C1680 C1679 1.385 . S
C1680 C1681 1.389 . S
C1681 C1680 1.389 . S
C1681 C1682 1.387 . S
C1682 H1667 0.930 . S
C1682 C1677 1.390 . S
C1682 C1681 1.387 . S
H1683 C1695 0.930 1_554 S
H1684 C1697 0.930 . S
H1685 C1698 0.930 . S
H1686 C1702 0.959 . S
H1687 C1702 0.959 . S
H1688 C1702 0.961 . S
H1689 C1703 0.960 . S
H1690 C1703 0.961 . S
H1691 C1703 0.959 . S
H1692 C1706 0.929 . S
H1693 C1707 0.931 . S
H1694 C1709 0.930 . S
C1695 H1683 0.930 1_556 S
C1695 C1696 1.399 . S
C1695 C1700 1.399 . S
C1696 C1695 1.399 . S
C1696 C1697 1.376 . S
C1697 H1684 0.930 . S
C1697 C1696 1.376 . S
C1697 C1698 1.388 . S
C1698 H1685 0.930 . S
C1698 C1697 1.388 . S
C1698 C1699 1.390 . S
C1699 C1698 1.390 . S
C1699 C1700 1.394 . S
C1699 C1705 1.465 . S
C1700 C1695 1.399 . S
C1700 C1699 1.394 . S
C1700 C1701 1.516 . S
C1701 C1700 1.516 . S
C1701 C1702 1.502 1_655 S
C1701 C1703 1.561 . S
C1701 C1704 1.526 . S
C1702 H1686 0.959 . S
C1702 H1687 0.959 . S
C1702 H1688 0.961 . S
C1702 C1701 1.502 1_455 S
C1703 H1689 0.960 . S
C1703 H1690 0.961 . S
C1703 H1691 0.959 . S
C1703 C1701 1.561 . S
C1704 C1701 1.526 . S
C1704 C1705 1.396 . S
C1704 C1709 1.390 . S
C1705 C1699 1.465 . S
C1705 C1704 1.396 . S
C1705 C1706 1.399 . S
C1706 H1692 0.929 . S
C1706 C1705 1.399 . S
C1706 C1707 1.385 . S
C1707 H1693 0.931 . S
C1707 C1706 1.385 . S
C1707 C1708 1.389 . S
C1708 C1707 1.389 . S
C1708 C1709 1.387 . S
C1709 H1694 0.930 . S
C1709 C1704 1.390 . S
C1709 C1708 1.387 . S
H1710 C1722 0.930 . S
H1711 C1724 0.930 . S
H1712 C1725 0.930 . S
H1713 C1729 0.959 . S
H1714 C1729 0.959 . S
H1715 C1729 0.961 . S
H1716 C1730 0.960 . S
H1717 C1730 0.961 . S
H1718 C1730 0.959 . S
H1719 C1733 0.929 . S
H1720 C1734 0.931 . S
H1721 C1736 0.930 . S
C1722 H1710 0.930 . S
C1722 C1723 1.399 . S
C1722 C1727 1.399 . S
C1723 C1722 1.399 . S
C1723 C1724 1.376 . S
C1724 H1711 0.930 . S
C1724 C1723 1.376 . S
C1724 C1725 1.388 . S
C1725 H1712 0.930 . S
C1725 C1724 1.388 . S
C1725 C1726 1.390 . S
C1726 C1725 1.390 . S
C1726 C1727 1.394 . S
C1726 C1732 1.465 . S
C1727 C1722 1.399 . S
C1727 C1726 1.394 . S
C1727 C1728 1.516 . S
C1728 C1727 1.516 . S
C1728 C1729 1.502 . S
C1728 C1730 1.561 . S
C1728 C1731 1.526 . S
C1729 H1713 0.959 . S
C1729 H1714 0.959 . S
C1729 H1715 0.961 . S
C1729 C1728 1.502 . S
C1730 H1716 0.960 . S
C1730 H1717 0.961 . S
C1730 H1718 0.959 . S
C1730 C1728 1.561 . S
C1731 C1728 1.526 . S
C1731 C1732 1.396 . S
C1731 C1736 1.390 . S
C1732 C1726 1.465 . S
C1732 C1731 1.396 . S
C1732 C1733 1.399 . S
C1733 H1719 0.929 . S
C1733 C1732 1.399 . S
C1733 C1734 1.385 . S
C1734 H1720 0.931 . S
C1734 C1733 1.385 . S
C1734 C1735 1.389 . S
C1735 C1734 1.389 . S
C1735 C1736 1.387 . S
C1736 H1721 0.930 . S
C1736 C1731 1.390 . S
C1736 C1735 1.387 . S
H1737 C1749 0.930 . S
H1738 C1751 0.930 . S
H1739 C1752 0.930 . S
H1740 C1756 0.959 1_655 S
H1741 C1756 0.959 . S
H1742 C1756 0.961 . S
H1743 C1757 0.960 . S
H1744 C1757 0.961 . S
H1745 C1757 0.959 . S
H1746 C1760 0.929 . S
H1747 C1761 0.931 . S
H1748 C1763 0.930 . S
C1749 H1737 0.930 . S
C1749 C1750 1.399 . S
C1749 C1754 1.399 . S
C1750 C1749 1.399 . S
C1750 C1751 1.376 . S
C1751 H1738 0.930 . S
C1751 C1750 1.376 . S
C1751 C1752 1.388 . S
C1752 H1739 0.930 . S
C1752 C1751 1.388 . S
C1752 C1753 1.390 . S
C1753 C1752 1.390 . S
C1753 C1754 1.394 . S
C1753 C1759 1.465 . S
C1754 C1749 1.399 . S
C1754 C1753 1.394 . S
C1754 C1755 1.516 . S
C1755 C1754 1.516 . S
C1755 C1756 1.502 . S
C1755 C1757 1.561 . S
C1755 C1758 1.526 . S
C1756 H1740 0.959 1_455 S
C1756 H1741 0.959 . S
C1756 H1742 0.961 . S
C1756 C1755 1.502 . S
C1757 H1743 0.960 . S
C1757 H1744 0.961 . S
C1757 H1745 0.959 . S
C1757 C1755 1.561 . S
C1758 C1755 1.526 . S
C1758 C1759 1.396 . S
C1758 C1763 1.390 . S
C1759 C1753 1.465 . S
C1759 C1758 1.396 . S
C1759 C1760 1.399 . S
C1760 H1746 0.929 . S
C1760 C1759 1.399 . S
C1760 C1761 1.385 . S
C1761 H1747 0.931 . S
C1761 C1760 1.385 . S
C1761 C1762 1.389 . S
C1762 C1761 1.389 . S
C1762 C1763 1.387 . S
C1763 H1748 0.930 . S
C1763 C1758 1.390 . S
C1763 C1762 1.387 . S
H1764 C1776 0.930 . S
H1765 C1778 0.930 . S
H1766 C1779 0.930 . S
H1767 C1783 0.959 . S
H1768 C1783 0.959 . S
H1769 C1783 0.961 . S
H1770 C1784 0.960 . S
H1771 C1784 0.961 . S
H1772 C1784 0.959 . S
H1773 C1787 0.929 . S
H1774 C1788 0.931 . S
H1775 C1790 0.930 . S
C1776 H1764 0.930 . S
C1776 C1777 1.399 . S
C1776 C1781 1.399 . S
C1777 C1776 1.399 . S
C1777 C1778 1.376 . S
C1778 H1765 0.930 . S
C1778 C1777 1.376 . S
C1778 C1779 1.388 . S
C1779 H1766 0.930 . S
C1779 C1778 1.388 . S
C1779 C1780 1.390 . S
C1780 C1779 1.390 . S
C1780 C1781 1.394 . S
C1780 C1786 1.465 . S
C1781 C1776 1.399 . S
C1781 C1780 1.394 . S
C1781 C1782 1.516 . S
C1782 C1781 1.516 . S
C1782 C1783 1.502 . S
C1782 C1784 1.561 . S
C1782 C1785 1.526 . S
C1783 H1767 0.959 . S
C1783 H1768 0.959 . S
C1783 H1769 0.961 . S
C1783 C1782 1.502 . S
C1784 H1770 0.960 . S
C1784 H1771 0.961 . S
C1784 H1772 0.959 . S
C1784 C1782 1.561 . S
C1785 C1782 1.526 . S
C1785 C1786 1.396 . S
C1785 C1790 1.390 . S
C1786 C1780 1.465 . S
C1786 C1785 1.396 . S
C1786 C1787 1.399 . S
C1787 H1773 0.929 . S
C1787 C1786 1.399 . S
C1787 C1788 1.385 . S
C1788 H1774 0.931 . S
C1788 C1787 1.385 . S
C1788 C1789 1.389 . S
C1789 C1788 1.389 . S
C1789 C1790 1.387 . S
C1790 H1775 0.930 . S
C1790 C1785 1.390 . S
C1790 C1789 1.387 . S
H1791 C1803 0.930 . S
H1792 C1805 0.930 1_556 S
H1793 C1806 0.930 . S
H1794 C1810 0.959 . S
H1795 C1810 0.959 . S
H1796 C1810 0.961 . S
H1797 C1811 0.960 . S
H1798 C1811 0.961 . S
H1799 C1811 0.959 . S
H1800 C1814 0.929 . S
H1801 C1815 0.931 . S
H1802 C1817 0.930 . S
C1803 H1791 0.930 . S
C1803 C1804 1.399 . S
C1803 C1808 1.399 . S
C1804 C1803 1.399 . S
C1804 C1805 1.376 . S
C1805 H1792 0.930 1_554 S
C1805 C1804 1.376 . S
C1805 C1806 1.388 . S
C1806 H1793 0.930 . S
C1806 C1805 1.388 . S
C1806 C1807 1.390 . S
C1807 C1806 1.390 . S
C1807 C1808 1.394 . S
C1807 C1813 1.465 . S
C1808 C1803 1.399 . S
C1808 C1807 1.394 . S
C1808 C1809 1.516 . S
C1809 C1808 1.516 . S
C1809 C1810 1.502 . S
C1809 C1811 1.561 . S
C1809 C1812 1.526 . S
C1810 H1794 0.959 . S
C1810 H1795 0.959 . S
C1810 H1796 0.961 . S
C1810 C1809 1.502 . S
C1811 H1797 0.960 . S
C1811 H1798 0.961 . S
C1811 H1799 0.959 . S
C1811 C1809 1.561 . S
C1812 C1809 1.526 . S
C1812 C1813 1.396 . S
C1812 C1817 1.390 . S
C1813 C1807 1.465 . S
C1813 C1812 1.396 . S
C1813 C1814 1.399 . S
C1814 H1800 0.929 . S
C1814 C1813 1.399 . S
C1814 C1815 1.385 . S
C1815 H1801 0.931 . S
C1815 C1814 1.385 . S
C1815 C1816 1.389 . S
C1816 C1815 1.389 . S
C1816 C1817 1.387 . S
C1817 H1802 0.930 . S
C1817 C1812 1.390 . S
C1817 C1816 1.387 . S
H1818 C1830 0.930 . S
H1819 C1832 0.930 . S
H1820 C1833 0.930 . S
H1821 C1837 0.959 . S
H1822 C1837 0.959 . S
H1823 C1837 0.961 . S
H1824 C1838 0.960 . S
H1825 C1838 0.961 . S
H1826 C1838 0.959 . S
H1827 C1841 0.929 . S
H1828 C1842 0.931 . S
H1829 C1844 0.930 . S
C1830 H1818 0.930 . S
C1830 C1831 1.399 . S
C1830 C1835 1.399 . S
C1831 C1830 1.399 . S
C1831 C1832 1.376 . S
C1832 H1819 0.930 . S
C1832 C1831 1.376 . S
C1832 C1833 1.388 . S
C1833 H1820 0.930 . S
C1833 C1832 1.388 . S
C1833 C1834 1.390 . S
C1834 C1833 1.390 . S
C1834 C1835 1.394 . S
C1834 C1840 1.465 . S
C1835 C1830 1.399 . S
C1835 C1834 1.394 . S
C1835 C1836 1.516 . S
C1836 C1835 1.516 . S
C1836 C1837 1.502 . S
C1836 C1838 1.561 . S
C1836 C1839 1.526 . S
C1837 H1821 0.959 . S
C1837 H1822 0.959 . S
C1837 H1823 0.961 . S
C1837 C1836 1.502 . S
C1838 H1824 0.960 . S
C1838 H1825 0.961 . S
C1838 H1826 0.959 . S
C1838 C1836 1.561 . S
C1839 C1836 1.526 . S
C1839 C1840 1.396 . S
C1839 C1844 1.390 . S
C1840 C1834 1.465 . S
C1840 C1839 1.396 . S
C1840 C1841 1.399 . S
C1841 H1827 0.929 . S
C1841 C1840 1.399 . S
C1841 C1842 1.385 . S
C1842 H1828 0.931 . S
C1842 C1841 1.385 . S
C1842 C1843 1.389 . S
C1843 C1842 1.389 . S
C1843 C1844 1.387 . S
C1844 H1829 0.930 . S
C1844 C1839 1.390 . S
C1844 C1843 1.387 . S
H1845 C1857 0.930 . S
H1846 C1859 0.930 1_556 S
H1847 C1860 0.930 . S
H1848 C1864 0.959 . S
H1849 C1864 0.959 . S
H1850 C1864 0.961 . S
H1851 C1865 0.960 . S
H1852 C1865 0.961 . S
H1853 C1865 0.959 . S
H1854 C1868 0.929 . S
H1855 C1869 0.931 . S
H1856 C1871 0.930 . S
C1857 H1845 0.930 . S
C1857 C1858 1.399 . S
C1857 C1862 1.399 . S
C1858 C1857 1.399 . S
C1858 C1859 1.376 . S
C1859 H1846 0.930 1_554 S
C1859 C1858 1.376 . S
C1859 C1860 1.388 . S
C1860 H1847 0.930 . S
C1860 C1859 1.388 . S
C1860 C1861 1.390 . S
C1861 C1860 1.390 . S
C1861 C1862 1.394 . S
C1861 C1867 1.465 . S
C1862 C1857 1.399 . S
C1862 C1861 1.394 . S
C1862 C1863 1.516 . S
C1863 C1862 1.516 . S
C1863 C1864 1.502 . S
C1863 C1865 1.561 . S
C1863 C1866 1.526 . S
C1864 H1848 0.959 . S
C1864 H1849 0.959 . S
C1864 H1850 0.961 . S
C1864 C1863 1.502 . S
C1865 H1851 0.960 . S
C1865 H1852 0.961 . S
C1865 H1853 0.959 . S
C1865 C1863 1.561 . S
C1866 C1863 1.526 . S
C1866 C1867 1.396 . S
C1866 C1871 1.390 . S
C1867 C1861 1.465 . S
C1867 C1866 1.396 . S
C1867 C1868 1.399 . S
C1868 H1854 0.929 . S
C1868 C1867 1.399 . S
C1868 C1869 1.385 . S
C1869 H1855 0.931 . S
C1869 C1868 1.385 . S
C1869 C1870 1.389 . S
C1870 C1869 1.389 . S
C1870 C1871 1.387 . S
C1871 H1856 0.930 . S
C1871 C1866 1.390 . S
C1871 C1870 1.387 . S
H1872 C1884 0.930 . S
H1873 C1886 0.930 . S
H1874 C1887 0.930 . S
H1875 C1891 0.959 . S
H1876 C1891 0.959 . S
H1877 C1891 0.961 . S
H1878 C1892 0.960 . S
H1879 C1892 0.961 . S
H1880 C1892 0.959 . S
H1881 C1895 0.929 . S
H1882 C1896 0.931 . S
H1883 C1898 0.930 . S
C1884 H1872 0.930 . S
C1884 C1885 1.399 . S
C1884 C1889 1.399 . S
C1885 C1884 1.399 . S
C1885 C1886 1.376 . S
C1886 H1873 0.930 . S
C1886 C1885 1.376 . S
C1886 C1887 1.388 . S
C1887 H1874 0.930 . S
C1887 C1886 1.388 . S
C1887 C1888 1.390 . S
C1888 C1887 1.390 . S
C1888 C1889 1.394 . S
C1888 C1894 1.465 . S
C1889 C1884 1.399 . S
C1889 C1888 1.394 . S
C1889 C1890 1.516 . S
C1890 C1889 1.516 . S
C1890 C1891 1.502 . S
C1890 C1892 1.561 . S
C1890 C1893 1.526 . S
C1891 H1875 0.959 . S
C1891 H1876 0.959 . S
C1891 H1877 0.961 . S
C1891 C1890 1.502 . S
C1892 H1878 0.960 . S
C1892 H1879 0.961 . S
C1892 H1880 0.959 . S
C1892 C1890 1.561 . S
C1893 C1890 1.526 . S
C1893 C1894 1.396 . S
C1893 C1898 1.390 . S
C1894 C1888 1.465 . S
C1894 C1893 1.396 . S
C1894 C1895 1.399 . S
C1895 H1881 0.929 . S
C1895 C1894 1.399 . S
C1895 C1896 1.385 . S
C1896 H1882 0.931 . S
C1896 C1895 1.385 . S
C1896 C1897 1.389 . S
C1897 C1896 1.389 . S
C1897 C1898 1.387 . S
C1898 H1883 0.930 . S
C1898 C1893 1.390 . S
C1898 C1897 1.387 . S
H1899 C1911 0.930 . S
H1900 C1913 0.930 . S
H1901 C1914 0.930 . S
H1902 C1918 0.959 . S
H1903 C1918 0.959 . S
H1904 C1918 0.961 . S
H1905 C1919 0.960 . S
H1906 C1919 0.961 . S
H1907 C1919 0.959 . S
H1908 C1922 0.929 . S
H1909 C1923 0.931 . S
H1910 C1925 0.930 . S
C1911 H1899 0.930 . S
C1911 C1912 1.399 . S
C1911 C1916 1.399 . S
C1912 C1911 1.399 . S
C1912 C1913 1.376 . S
C1913 H1900 0.930 . S
C1913 C1912 1.376 . S
C1913 C1914 1.388 . S
C1914 H1901 0.930 . S
C1914 C1913 1.388 . S
C1914 C1915 1.390 . S
C1915 C1914 1.390 . S
C1915 C1916 1.394 . S
C1915 C1921 1.465 . S
C1916 C1911 1.399 . S
C1916 C1915 1.394 . S
C1916 C1917 1.516 . S
C1917 C1916 1.516 . S
C1917 C1918 1.502 . S
C1917 C1919 1.561 . S
C1917 C1920 1.526 . S
C1918 H1902 0.959 . S
C1918 H1903 0.959 . S
C1918 H1904 0.961 . S
C1918 C1917 1.502 . S
C1919 H1905 0.960 . S
C1919 H1906 0.961 . S
C1919 H1907 0.959 . S
C1919 C1917 1.561 . S
C1920 C1917 1.526 . S
C1920 C1921 1.396 . S
C1920 C1925 1.390 . S
C1921 C1915 1.465 . S
C1921 C1920 1.396 . S
C1921 C1922 1.399 . S
C1922 H1908 0.929 . S
C1922 C1921 1.399 . S
C1922 C1923 1.385 . S
C1923 H1909 0.931 . S
C1923 C1922 1.385 . S
C1923 C1924 1.389 . S
C1924 C1923 1.389 . S
C1924 C1925 1.387 . S
C1925 H1910 0.930 . S
C1925 C1920 1.390 . S
C1925 C1924 1.387 . S
H1926 C1938 0.930 . S
H1927 C1940 0.930 . S
H1928 C1941 0.930 . S
H1929 C1945 0.959 . S
H1930 C1945 0.959 . S
H1931 C1945 0.961 . S
H1932 C1946 0.960 . S
H1933 C1946 0.961 . S
H1934 C1946 0.959 . S
H1935 C1949 0.929 . S
H1936 C1950 0.931 . S
H1937 C1952 0.930 . S
C1938 H1926 0.930 . S
C1938 C1939 1.399 . S
C1938 C1943 1.399 . S
C1939 C1938 1.399 . S
C1939 C1940 1.376 . S
C1940 H1927 0.930 . S
C1940 C1939 1.376 . S
C1940 C1941 1.388 . S
C1941 H1928 0.930 . S
C1941 C1940 1.388 . S
C1941 C1942 1.390 . S
C1942 C1941 1.390 . S
C1942 C1943 1.394 . S
C1942 C1948 1.465 . S
C1943 C1938 1.399 . S
C1943 C1942 1.394 . S
C1943 C1944 1.516 . S
C1944 C1943 1.516 . S
C1944 C1945 1.502 . S
C1944 C1946 1.561 . S
C1944 C1947 1.526 . S
C1945 H1929 0.959 . S
C1945 H1930 0.959 . S
C1945 H1931 0.961 . S
C1945 C1944 1.502 . S
C1946 H1932 0.960 . S
C1946 H1933 0.961 . S
C1946 H1934 0.959 . S
C1946 C1944 1.561 . S
C1947 C1944 1.526 . S
C1947 C1948 1.396 . S
C1947 C1952 1.390 . S
C1948 C1942 1.465 . S
C1948 C1947 1.396 . S
C1948 C1949 1.399 . S
C1949 H1935 0.929 . S
C1949 C1948 1.399 . S
C1949 C1950 1.385 . S
C1950 H1936 0.931 . S
C1950 C1949 1.385 . S
C1950 C1951 1.389 . S
C1951 C1950 1.389 . S
C1951 C1952 1.387 . S
C1952 H1937 0.930 . S
C1952 C1947 1.390 . S
C1952 C1951 1.387 . S
H1953 C1965 0.930 . S
H1954 C1967 0.930 . S
H1955 C1968 0.930 . S
H1956 C1972 0.959 . S
H1957 C1972 0.959 . S
H1958 C1972 0.961 . S
H1959 C1973 0.960 . S
H1960 C1973 0.961 . S
H1961 C1973 0.959 . S
H1962 C1976 0.929 . S
H1963 C1977 0.931 . S
H1964 C1979 0.930 . S
C1965 H1953 0.930 . S
C1965 C1966 1.399 . S
C1965 C1970 1.399 . S
C1966 C1965 1.399 . S
C1966 C1967 1.376 . S
C1967 H1954 0.930 . S
C1967 C1966 1.376 . S
C1967 C1968 1.388 . S
C1968 H1955 0.930 . S
C1968 C1967 1.388 . S
C1968 C1969 1.390 . S
C1969 C1968 1.390 . S
C1969 C1970 1.394 . S
C1969 C1975 1.465 . S
C1970 C1965 1.399 . S
C1970 C1969 1.394 . S
C1970 C1971 1.516 . S
C1971 C1970 1.516 . S
C1971 C1972 1.502 . S
C1971 C1973 1.561 . S
C1971 C1974 1.526 . S
C1972 H1956 0.959 . S
C1972 H1957 0.959 . S
C1972 H1958 0.961 . S
C1972 C1971 1.502 . S
C1973 H1959 0.960 . S
C1973 H1960 0.961 . S
C1973 H1961 0.959 . S
C1973 C1971 1.561 . S
C1974 C1971 1.526 . S
C1974 C1975 1.396 . S
C1974 C1979 1.390 . S
C1975 C1969 1.465 . S
C1975 C1974 1.396 . S
C1975 C1976 1.399 . S
C1976 H1962 0.929 . S
C1976 C1975 1.399 . S
C1976 C1977 1.385 . S
C1977 H1963 0.931 . S
C1977 C1976 1.385 . S
C1977 C1978 1.389 . S
C1978 C1977 1.389 . S
C1978 C1979 1.387 . S
C1979 H1964 0.930 . S
C1979 C1974 1.390 . S
C1979 C1978 1.387 . S
H1980 C1992 0.930 . S
H1981 C1994 0.930 . S
H1982 C1995 0.930 . S
H1983 C1999 0.959 . S
H1984 C1999 0.959 . S
H1985 C1999 0.961 . S
H1986 C2000 0.960 . S
H1987 C2000 0.961 . S
H1988 C2000 0.959 . S
H1989 C2003 0.921 1_554 S
H1990 C2004 0.931 . S
H1991 C2006 0.930 . S
C1992 H1980 0.930 . S
C1992 C1993 1.399 . S
C1992 C1997 1.399 . S
C1993 C1992 1.399 . S
C1993 C1994 1.376 . S
C1994 H1981 0.930 . S
C1994 C1993 1.376 . S
C1994 C1995 1.388 . S
C1995 H1982 0.930 . S
C1995 C1994 1.388 . S
C1995 C1996 1.390 . S
C1996 C1995 1.390 . S
C1996 C1997 1.394 . S
C1996 C2002 1.465 . S
C1997 C1992 1.399 . S
C1997 C1996 1.394 . S
C1997 C1998 1.516 . S
C1998 C1997 1.516 . S
C1998 C1999 1.502 . S
C1998 C2000 1.561 . S
C1998 C2001 1.526 . S
C1999 H1983 0.959 . S
C1999 H1984 0.959 . S
C1999 H1985 0.961 . S
C1999 C1998 1.502 . S
C2000 H1986 0.960 . S
C2000 H1987 0.961 . S
C2000 H1988 0.959 . S
C2000 C1998 1.561 . S
C2001 C1998 1.526 . S
C2001 C2002 1.396 . S
C2001 C2006 1.390 . S
C2002 C1996 1.465 . S
C2002 C2001 1.396 . S
C2002 C2003 1.399 . S
C2003 H1989 0.921 1_556 S
C2003 C2002 1.399 . S
C2003 C2004 1.385 1_556 S
C2004 H1990 0.931 . S
C2004 C2003 1.385 1_554 S
C2004 C2005 1.389 1_554 S
C2005 C2004 1.389 1_556 S
C2005 C2006 1.387 . S
C2006 H1991 0.930 . S
C2006 C2001 1.390 . S
C2006 C2005 1.387 . S
H2007 C2019 0.930 . S
H2008 C2021 0.930 . S
H2009 C2022 0.930 . S
H2010 C2026 0.959 . S
H2011 C2026 0.959 . S
H2012 C2026 0.961 . S
H2013 C2027 0.960 . S
H2014 C2027 0.961 . S
H2015 C2027 0.959 . S
H2016 C2030 0.929 . S
H2017 C2031 0.931 . S
H2018 C2033 0.930 . S
C2019 H2007 0.930 . S
C2019 C2020 1.399 . S
C2019 C2024 1.399 . S
C2020 C2019 1.399 . S
C2020 C2021 1.376 . S
C2021 H2008 0.930 . S
C2021 C2020 1.376 . S
C2021 C2022 1.388 . S
C2022 H2009 0.930 . S
C2022 C2021 1.388 . S
C2022 C2023 1.390 . S
C2023 C2022 1.390 . S
C2023 C2024 1.394 . S
C2023 C2029 1.465 . S
C2024 C2019 1.399 . S
C2024 C2023 1.394 . S
C2024 C2025 1.516 . S
C2025 C2024 1.516 . S
C2025 C2026 1.502 . S
C2025 C2027 1.561 . S
C2025 C2028 1.526 . S
C2026 H2010 0.959 . S
C2026 H2011 0.959 . S
C2026 H2012 0.961 . S
C2026 C2025 1.502 . S
C2027 H2013 0.960 . S
C2027 H2014 0.961 . S
C2027 H2015 0.959 . S
C2027 C2025 1.561 . S
C2028 C2025 1.526 . S
C2028 C2029 1.396 . S
C2028 C2033 1.390 . S
C2029 C2023 1.465 . S
C2029 C2028 1.396 . S
C2029 C2030 1.399 . S
C2030 H2016 0.929 . S
C2030 C2029 1.399 . S
C2030 C2031 1.385 . S
C2031 H2017 0.931 . S
C2031 C2030 1.385 . S
C2031 C2032 1.389 . S
C2032 C2031 1.389 . S
C2032 C2033 1.387 . S
C2033 H2018 0.930 . S
C2033 C2028 1.390 . S
C2033 C2032 1.387 . S
H2034 C2046 0.930 . S
H2035 C2048 0.930 . S
H2036 C2049 0.930 . S
H2037 C2053 0.959 . S
H2038 C2053 0.959 . S
H2039 C2053 0.961 . S
H2040 C2054 0.960 . S
H2041 C2054 0.961 . S
H2042 C2054 0.959 . S
H2043 C2057 0.929 1_556 S
H2044 C2058 0.931 1_556 S
H2045 C2060 0.930 . S
C2046 H2034 0.930 . S
C2046 C2047 1.399 . S
C2046 C2051 1.399 . S
C2047 C2046 1.399 . S
C2047 C2048 1.376 . S
C2048 H2035 0.930 . S
C2048 C2047 1.376 . S
C2048 C2049 1.388 . S
C2049 H2036 0.930 . S
C2049 C2048 1.388 . S
C2049 C2050 1.390 . S
C2050 C2049 1.390 . S
C2050 C2051 1.394 . S
C2050 C2056 1.465 . S
C2051 C2046 1.399 . S
C2051 C2050 1.394 . S
C2051 C2052 1.516 . S
C2052 C2051 1.516 . S
C2052 C2053 1.502 . S
C2052 C2054 1.561 . S
C2052 C2055 1.526 . S
C2053 H2037 0.959 . S
C2053 H2038 0.959 . S
C2053 H2039 0.961 . S
C2053 C2052 1.502 . S
C2054 H2040 0.960 . S
C2054 H2041 0.961 . S
C2054 H2042 0.959 . S
C2054 C2052 1.561 . S
C2055 C2052 1.526 . S
C2055 C2056 1.396 . S
C2055 C2060 1.390 . S
C2056 C2050 1.465 . S
C2056 C2055 1.396 . S
C2056 C2057 1.399 . S
C2057 H2043 0.929 1_554 S
C2057 C2056 1.399 . S
C2057 C2058 1.385 . S
C2058 H2044 0.931 1_554 S
C2058 C2057 1.385 . S
C2058 C2059 1.389 . S
C2059 C2058 1.389 . S
C2059 C2060 1.387 . S
C2060 H2045 0.930 . S
C2060 C2055 1.390 . S
C2060 C2059 1.387 . S
H2061 C2073 0.930 . S
H2062 C2075 0.930 1_556 S
H2063 C2076 0.930 . S
H2064 C2080 0.959 . S
H2065 C2080 0.959 . S
H2066 C2080 0.961 . S
H2067 C2081 0.960 . S
H2068 C2081 0.961 . S
H2069 C2081 0.959 . S
H2070 C2084 0.929 . S
H2071 C2085 0.931 . S
H2072 C2087 0.930 . S
C2073 H2061 0.930 . S
C2073 C2074 1.399 . S
C2073 C2078 1.399 . S
C2074 C2073 1.399 . S
C2074 C2075 1.376 . S
C2075 H2062 0.930 1_554 S
C2075 C2074 1.376 . S
C2075 C2076 1.388 1_554 S
C2076 H2063 0.930 . S
C2076 C2075 1.388 1_556 S
C2076 C2077 1.390 1_556 S
C2077 C2076 1.390 1_554 S
C2077 C2078 1.394 . S
C2077 C2083 1.465 . S
C2078 C2073 1.399 . S
C2078 C2077 1.394 . S
C2078 C2079 1.516 . S
C2079 C2078 1.516 . S
C2079 C2080 1.502 . S
C2079 C2081 1.561 . S
C2079 C2082 1.526 . S
C2080 H2064 0.959 . S
C2080 H2065 0.959 . S
C2080 H2066 0.961 . S
C2080 C2079 1.502 . S
C2081 H2067 0.960 . S
C2081 H2068 0.961 . S
C2081 H2069 0.959 . S
C2081 C2079 1.561 . S
C2082 C2079 1.526 . S
C2082 C2083 1.396 . S
C2082 C2087 1.390 . S
C2083 C2077 1.465 . S
C2083 C2082 1.396 . S
C2083 C2084 1.399 1_554 S
C2084 H2070 0.929 . S
C2084 C2083 1.399 1_556 S
C2084 C2085 1.385 . S
C2085 H2071 0.931 . S
C2085 C2084 1.385 . S
C2085 C2086 1.389 1_556 S
C2086 C2085 1.389 1_554 S
C2086 C2087 1.387 . S
C2087 H2072 0.930 . S
C2087 C2082 1.390 . S
C2087 C2086 1.387 . S
C817 C632 1.459 . S
C805 C211 1.501 . S
C844 C645 1.483 . S
C832 C255 1.480 . S
C859 C274 1.635 . S
C871 C665 1.582 . S
C898 C679 1.416 . S
C886 C157 1.445 1_655 S
C925 C691 1.509 . S
C913 C391 1.521 . S
C952 C705 1.426 . S
C940 C484 1.423 . S
C967 C450 1.473 . S
C979 C715 1.484 . S
C1006 C730 1.532 . S
C994 C352 1.536 . S
C1021 C430 1.509 . S
C1033 C744 1.507 . S
C1060 C763 1.395 . S
C1048 C367 1.442 . S
C1075 C411 1.504 . S
C1087 C743 1.499 . S
C1114 C761 1.426 . S
C1102 C469 1.422 . S
C1129 C294 1.643 . S
C1141 C777 1.497 . S
C1156 C177 1.478 . S
C1168 C771 1.463 . S
C1183 C196 1.511 . S
C1195 C775 1.505 . S
C1210 C235 1.537 . S
C1222 C772 1.504 . S
C1237 C133 1.515 . S
C1249 C674 1.471 . S
C1264 C567 1.481 . S
C1276 C673 1.457 . S
C1303 C637 1.313 . S
C1291 C601 1.424 1_565 S
C1330 C651 1.534 . S
C1318 C328 1.645 . S
C1345 C172 1.529 . S
C1357 C688 1.524 . S
C1384 C733 1.507 . S
C1372 C445 1.512 . S
C1411 C687 1.478 . S
C1399 C372 1.493 . S
C1438 C719 1.409 . S
C1426 C489 1.411 . S
C1465 C716 1.458 . S
C1453 C562 1.505 . S
C1480 C606 1.480 . S
C1492 C729 1.481 . S
C1507 C313 1.639 . S
C1519 C693 1.541 . S
C1546 C707 1.329 . S
C1534 C508 1.437 . S
C1561 C118 1.521 . S
C1573 C663 1.505 . S
C1600 C677 1.411 . S
C1588 C16 1.415 . S
C1627 C631 1.457 . S
C1615 C60 1.485 . S
C1654 C646 1.486 . S
C1642 C79 1.547 . S
C1669 C40 1.508 . S
C1681 C758 1.465 . S
C1696 C94 1.446 1_556 S
C1708 C749 1.338 . S
C1723 C138 1.502 . S
C1735 C757 1.506 . S
C1750 C1 1.417 . S
C1762 C747 1.409 . S
C1789 C791 1.500 . S
C1777 C333 1.642 . S
C1816 C785 1.468 . S
C1804 C528 1.484 . S
C1843 C789 1.517 . S
C1831 C547 1.511 . S
C1858 C586 1.536 . S
C1870 C786 1.508 . S
C1885 C406 1.511 . S
C1897 C702 1.503 . S
C1924 C701 1.455 . S
C1912 C216 1.480 . S
C1951 C721 1.322 . S
C1939 C250 1.422 . S
C1978 C735 1.562 . S
C1966 C289 1.650 . S
C1993 C523 1.529 . S
C2005 C660 1.513 . S
C2032 C649 1.513 . S
C2020 C55 1.513 . S
C2047 C99 1.494 . S
C2059 C659 1.482 . S
C2086 C635 1.414 . S
C2074 C21 1.414 . S
