# Generated by pormake.
# Topology pyr, (3,6)-cn, num edge types: 1
# Building blocks:
#     Node 0, Type 0, BuildingBlock: CUQRIR_clean_linker_1, # of connection points: 3
#     Node 1, Type 0, BuildingBlock: CUQRIR_clean_linker_1, # of connection points: 3
#     Node 2, Type 0, BuildingBlock: CUQRIR_clean_linker_1, # of connection points: 3
#     Node 3, Type 0, BuildingBlock: CUQRIR_clean_linker_1, # of connection points: 3
#     Node 4, Type 0, BuildingBlock: CUQRIR_clean_linker_1, # of connection points: 3
#     Node 5, Type 0, BuildingBlock: CUQRIR_clean_linker_1, # of connection points: 3
#     Node 6, Type 0, BuildingBlock: CUQRIR_clean_linker_1, # of connection points: 3
#     Node 7, Type 0, BuildingBlock: CUQRIR_clean_linker_1, # of connection points: 3
#     Node 8, Type 1, BuildingBlock: BETFAJ_clean_sbu_0, # of connection points: 6
#     Node 9, Type 1, BuildingBlock: BETFAJ_clean_sbu_0, # of connection points: 6
#     Node 10, Type 1, BuildingBlock: BETFAJ_clean_sbu_0, # of connection points: 6
#     Node 11, Type 1, BuildingBlock: BETFAJ_clean_sbu_0, # of connection points: 6
#     Edge 12, Type (0, 1), BuildingBlock: EZIPEK_clean_linker_0, # of connection points: 2
#     Edge 13, Type (0, 1), BuildingBlock: EZIPEK_clean_linker_0, # of connection points: 2
#     Edge 14, Type (0, 1), BuildingBlock: EZIPEK_clean_linker_0, # of connection points: 2
#     Edge 15, Type (0, 1), BuildingBlock: EZIPEK_clean_linker_0, # of connection points: 2
#     Edge 16, Type (0, 1), BuildingBlock: EZIPEK_clean_linker_0, # of connection points: 2
#     Edge 17, Type (0, 1), BuildingBlock: EZIPEK_clean_linker_0, # of connection points: 2
#     Edge 18, Type (0, 1), BuildingBlock: EZIPEK_clean_linker_0, # of connection points: 2
#     Edge 19, Type (0, 1), BuildingBlock: EZIPEK_clean_linker_0, # of connection points: 2
#     Edge 20, Type (0, 1), BuildingBlock: EZIPEK_clean_linker_0, # of connection points: 2
#     Edge 21, Type (0, 1), BuildingBlock: EZIPEK_clean_linker_0, # of connection points: 2
#     Edge 22, Type (0, 1), BuildingBlock: EZIPEK_clean_linker_0, # of connection points: 2
#     Edge 23, Type (0, 1), BuildingBlock: EZIPEK_clean_linker_0, # of connection points: 2
#     Edge 24, Type (0, 1), BuildingBlock: EZIPEK_clean_linker_0, # of connection points: 2
#     Edge 25, Type (0, 1), BuildingBlock: EZIPEK_clean_linker_0, # of connection points: 2
#     Edge 26, Type (0, 1), BuildingBlock: EZIPEK_clean_linker_0, # of connection points: 2
#     Edge 27, Type (0, 1), BuildingBlock: EZIPEK_clean_linker_0, # of connection points: 2
#     Edge 28, Type (0, 1), BuildingBlock: EZIPEK_clean_linker_0, # of connection points: 2
#     Edge 29, Type (0, 1), BuildingBlock: EZIPEK_clean_linker_0, # of connection points: 2
#     Edge 30, Type (0, 1), BuildingBlock: EZIPEK_clean_linker_0, # of connection points: 2
#     Edge 31, Type (0, 1), BuildingBlock: EZIPEK_clean_linker_0, # of connection points: 2
#     Edge 32, Type (0, 1), BuildingBlock: EZIPEK_clean_linker_0, # of connection points: 2
#     Edge 33, Type (0, 1), BuildingBlock: EZIPEK_clean_linker_0, # of connection points: 2
#     Edge 34, Type (0, 1), BuildingBlock: EZIPEK_clean_linker_0, # of connection points: 2
#     Edge 35, Type (0, 1), BuildingBlock: EZIPEK_clean_linker_0, # of connection points: 2
# Relax obj value: 0.306
# Max RMSD: 0.275
# Mean RMSD: 0.177
data_MOF--net-pyr--node1-BETFAJ_clean_sbu_0--node2-CUQRIR_clean_linker_1--edge1-EZIPEK_clean_linker_0
_symmetry_space_group_name_H-M    P1
_symmetry_Int_Tables_number       1
_symmetry_cell_setting            triclinic
loop_
_symmetry_equiv_pos_as_xyz
'x, y, z'
_cell_length_a     25.223467
_cell_length_b     26.967021
_cell_length_c     24.364224
_cell_angle_alpha  89.580726
_cell_angle_beta   89.65815
_cell_angle_gamma 108.93876
loop_
_atom_site_label
_atom_site_type_symbol
_atom_site_fract_x
_atom_site_fract_y
_atom_site_fract_z
_atom_type_partial_charge
C0 C 0.37402 0.42218 0.23709 0.0
N1 N 0.39531 0.38251 0.23972 0.0
N2 N 0.40365 0.45978 0.20141 0.0
C3 C 0.31885 0.42014 0.26301 0.0
C4 C 0.44597 0.44226 0.18448 0.0
N5 N 0.44072 0.39503 0.20794 0.0
C6 C 0.49145 0.47053 0.14459 0.0
H7 H 0.28461 0.40345 0.23333 0.0
H8 H 0.31883 0.45984 0.27433 0.0
H9 H 0.31022 0.39507 0.30045 0.0
H10 H 0.53176 0.48473 0.16683 0.0
H11 H 0.48278 0.50453 0.12541 0.0
H12 H 0.49629 0.44335 0.11248 0.0
C13 C 0.22168 0.93716 0.62398 0.0
N14 N 0.23849 0.98603 0.64552 0.0
N15 N 0.2521 0.9085 0.64486 0.0
C16 C 0.17415 0.91702 0.5846 0.0
C17 C 0.28726 0.94123 0.68036 0.0
N18 N 0.27825 0.98783 0.68196 0.0
C19 C 0.32795 0.92654 0.71678 0.0
H20 H 0.15673 0.8736 0.58647 0.0
H21 H 0.18956 0.929 0.54227 0.0
H22 H 0.14074 0.93427 0.59396 0.0
H23 H 0.3459 0.89963 0.69525 0.0
H24 H 0.30551 0.9061 0.75401 0.0
H25 H 0.36238 0.96186 0.72971 0.0
C26 C 0.64595 0.45723 0.88978 0.0
N27 N 0.67847 0.45166 0.93291 0.0
N28 N 0.66764 0.50463 0.86379 0.0
C29 C 0.59251 0.41625 0.87285 0.0
C30 C 0.71455 0.52829 0.8934 0.0
N31 N 0.72121 0.49723 0.93586 0.0
C32 C 0.75361 0.58265 0.88109 0.0
H33 H 0.60251 0.39034 0.84216 0.0
H34 H 0.56368 0.43467 0.85356 0.0
H35 H 0.57136 0.39187 0.90853 0.0
H36 H 0.73927 0.61137 0.90412 0.0
H37 H 0.75335 0.59202 0.83669 0.0
H38 H 0.79703 0.58694 0.89381 0.0
C39 C 0.86908 0.77657 0.38208 0.0
N40 N 0.92184 0.81042 0.36989 0.0
N41 N 0.8506 0.78487 0.43258 0.0
C42 C 0.83626 0.733 0.34532 0.0
C43 C 0.89366 0.82508 0.45173 0.0
N44 N 0.93667 0.84287 0.41432 0.0
C45 C 0.89132 0.85005 0.50655 0.0
H46 H 0.84055 0.7466 0.30193 0.0
H47 H 0.79125 0.71858 0.35715 0.0
H48 H 0.85319 0.69994 0.34868 0.0
H49 H 0.93386 0.8682 0.52351 0.0
H50 H 0.86577 0.82073 0.53656 0.0
H51 H 0.87134 0.88086 0.50131 0.0
C52 C 0.6641 0.88561 0.97425 0.0
N53 N 0.70139 0.86613 0.94978 0.0
N54 N 0.66355 0.93013 0.94828 0.0
C55 C 0.63053 0.86334 1.02518 0.0
C56 C 0.69914 0.93499 0.90528 0.0
N57 N 0.72256 0.89662 0.90655 0.0
C58 C 0.71685 0.98111 0.86636 0.0
H59 H 0.58523 0.8523 1.01588 0.0
H60 H 0.63951 0.89367 1.05753 0.0
H61 H 0.63954 0.82816 1.04069 0.0
H62 H 0.68684 1.00343 0.86737 0.0
H63 H 0.71986 0.96744 0.82397 0.0
H64 H 0.75909 1.00739 0.87782 0.0
C65 C 0.76175 0.24972 0.59917 0.0
N66 N 0.77427 0.20579 0.58346 0.0
N67 N 0.72306 0.25832 0.5653 0.0
C68 C 0.7967 0.29286 0.63572 0.0
C69 C 0.71563 0.22189 0.52615 0.0
N70 N 0.74827 0.19172 0.53551 0.0
C71 C 0.68353 0.2215 0.47392 0.0
H72 H 0.77967 0.28692 0.67817 0.0
H73 H 0.79494 0.33162 0.62213 0.0
H74 H 0.84149 0.29576 0.63475 0.0
H75 H 0.65569 0.1813 0.46515 0.0
H76 H 0.7135 0.23458 0.43907 0.0
H77 H 0.6573 0.2474 0.47637 0.0
C78 C 0.37847 0.79429 0.30754 0.0
N79 N 0.42924 0.82916 0.32209 0.0
N80 N 0.358 0.80981 0.26164 0.0
C81 C 0.34931 0.74342 0.33712 0.0
C82 C 0.39732 0.85552 0.24785 0.0
N83 N 0.44051 0.86896 0.28427 0.0
C84 C 0.39258 0.88783 0.19837 0.0
H85 H 0.36747 0.71327 0.32313 0.0
H86 H 0.3038 0.72937 0.32815 0.0
H87 H 0.35532 0.74798 0.38209 0.0
H88 H 0.37545 0.91894 0.21148 0.0
H89 H 0.36398 0.8635 0.1673 0.0
H90 H 0.43412 0.90679 0.17887 0.0
C91 C 0.14753 0.466 0.80361 0.0
N92 N 0.17944 0.46021 0.75937 0.0
N93 N 0.1661 0.51544 0.82561 0.0
C94 C 0.09834 0.42251 0.82605 0.0
C95 C 0.21146 0.53949 0.79255 0.0
N96 N 0.22051 0.50682 0.75311 0.0
C97 C 0.24764 0.59572 0.79875 0.0
H98 H 0.0613 0.41867 0.80003 0.0
H99 H 0.08833 0.43058 0.86878 0.0
H100 H 0.10706 0.38475 0.82475 0.0
H101 H 0.22576 0.61834 0.82247 0.0
H102 H 0.25993 0.61455 0.7579 0.0
H103 H 0.28652 0.59696 0.82057 0.0
Sm104 Sm 0.07616 0.17988 0.5268 0.0
Sm105 Sm 0.06667 0.1277 0.62693 0.0
C106 C 0.08723 0.23527 0.43569 0.0
C107 C 0.12323 0.2333 0.38918 0.0
C108 C 0.15134 0.2797 0.36091 0.0
C109 C 0.19894 0.2831 0.32998 0.0
C110 C 0.21917 0.24034 0.32755 0.0
C111 C 0.18845 0.19245 0.35187 0.0
C112 C 0.14039 0.1889 0.3825 0.0
C113 C 0.16998 0.15028 0.55441 0.0
C114 C 0.10965 0.25717 0.63546 0.0
C115 C 0.06535 1.06189 0.70794 0.0
C116 C 1.01767 1.0253 0.73732 0.0
C117 C 1.01734 0.97448 0.75081 0.0
C118 C 0.97016 0.93899 0.77631 0.0
C119 C 0.92348 0.95456 0.78853 0.0
C120 C 0.92358 1.00485 0.77391 0.0
C121 C 0.97013 1.03987 0.74831 0.0
C122 C 0.97315 0.15727 0.615 0.0
C123 C 1.0313 1.05346 0.51044 0.0
O124 O 0.11515 0.25358 0.48008 0.0
O125 O 0.04427 0.19326 0.44494 0.0
O126 O 0.14432 0.17287 0.58361 0.0
O127 O 0.14469 0.14106 0.5078 0.0
O128 O 0.08755 0.25199 0.58561 0.0
O129 O 0.11438 0.21392 0.65893 0.0
O130 O 0.07035 1.05075 0.65661 0.0
O131 O 0.07353 0.11167 0.71556 0.0
O132 O 0.99576 0.14043 0.57568 0.0
O133 O 0.99655 0.15345 0.66089 0.0
O134 O 0.04493 1.05534 0.56349 0.0
O135 O 1.03509 0.0983 0.48595 0.0
H136 H 0.13915 0.3144 0.3662 0.0
H137 H 0.22211 0.32021 0.31074 0.0
H138 H 0.20341 0.15911 0.34989 0.0
H139 H 0.11916 0.15268 0.40428 0.0
H140 H 0.05339 0.9624 0.74161 0.0
H141 H 0.97044 0.90016 0.78762 0.0
H142 H 0.88774 1.01727 0.78318 0.0
H143 H 0.96885 1.07841 0.73731 0.0
Sm144 Sm 0.61674 0.17621 0.1493 0.0
Sm145 Sm 0.52179 0.15404 0.0987 0.0
C146 C 0.71176 0.22118 0.20121 0.0
C147 C 0.74565 0.20346 0.24027 0.0
C148 C 0.76503 0.23444 0.2862 0.0
C149 C 0.78293 0.21338 0.33174 0.0
C150 C 0.7827 0.16106 0.33188 0.0
C151 C 0.76944 0.13196 0.28342 0.0
C152 C 0.7499 0.15276 0.23796 0.0
C153 C 0.55425 1.07629 0.19125 0.0
C154 C 0.52371 0.22329 0.19494 0.0
C155 C 0.42641 0.1181 1.04398 0.0
C156 C 0.40911 0.11087 0.98586 0.0
C157 C 0.42087 1.07261 0.95358 0.0
C158 C 0.40047 1.0633 0.90022 0.0
C159 C 0.36829 0.09214 0.87804 0.0
C160 C 0.35853 0.13199 0.90903 0.0
C161 C 0.3786 0.14111 0.96274 0.0
C162 C 0.59227 0.25341 0.05984 0.0
C163 C 0.60548 0.09659 1.05107 0.0
O164 O 0.66275 0.21944 0.22029 0.0
O165 O 0.71 0.20479 0.15078 0.0
O166 O 0.53356 0.11327 0.18086 0.0
O167 O 0.60734 0.09342 0.18103 0.0
O168 O 0.57647 0.23696 0.17993 0.0
O169 O 0.49264 0.17694 0.17987 0.0
O170 O 0.45338 0.08805 0.06361 0.0
O171 O 0.44658 0.16617 0.06117 0.0
O172 O 0.60682 0.21257 0.06645 0.0
O173 O 0.54061 0.24217 0.07545 0.0
O174 O 0.55626 0.10202 1.04602 0.0
O175 O 0.64128 0.12533 0.08626 0.0
H176 H 0.76185 0.27351 0.28868 0.0
H177 H 0.79307 0.23702 0.36837 0.0
H178 H 0.77094 0.09234 0.28176 0.0
H179 H 0.73505 0.12823 0.20255 0.0
H180 H 0.44447 1.04878 0.96992 0.0
H181 H 0.40794 1.03211 0.87689 0.0
H182 H 0.33317 0.15414 0.89263 0.0
H183 H 0.36894 0.17079 0.98674 0.0
Sm184 Sm 0.52314 0.60729 0.55367 0.0
Sm185 Sm 0.54482 0.6911 0.62203 0.0
C186 C 0.53614 0.52857 0.49622 0.0
C187 C 0.56622 0.49084 0.50724 0.0
C188 C 0.61936 0.50744 0.53182 0.0
C189 C 0.64686 0.47143 0.5443 0.0
C190 C 0.62209 0.4183 0.53163 0.0
C191 C 0.56921 0.4016 0.50671 0.0
C192 C 0.54138 0.43763 0.49473 0.0
C193 C 0.42479 0.59583 0.61409 0.0
C194 C 0.5851 0.60157 0.67726 0.0
C195 C 0.51733 0.75875 0.68332 0.0
C196 C 0.46124 0.76446 0.6839 0.0
C197 C 0.41275 0.71967 0.68525 0.0
C198 C 0.35997 0.72405 0.67506 0.0
C199 C 0.35502 0.77321 0.66349 0.0
C200 C 0.40323 0.8179 0.6632 0.0
C201 C 0.45583 0.81362 0.67354 0.0
C202 C 0.64225 0.70122 0.56163 0.0
C203 C 0.49898 0.71033 0.49709 0.0
O204 O 0.56728 0.57737 0.48945 0.0
O205 O 0.49196 0.52387 0.52649 0.0
O206 O 0.47487 0.61134 0.63232 0.0
O207 O 0.42661 0.58916 0.5613 0.0
O208 O 0.56697 0.57875 0.62942 0.0
O209 O 0.58314 0.64908 0.68539 0.0
O210 O 0.52022 0.71462 0.70293 0.0
O211 O 0.54542 0.77261 0.63746 0.0
O212 O 0.59244 0.68576 0.54344 0.0
O213 O 0.64153 0.71329 0.61329 0.0
O214 O 0.51076 0.72803 0.54761 0.0
O215 O 0.50011 0.66213 0.48738 0.0
H216 H 0.63966 0.54832 0.54142 0.0
H217 H 0.68764 0.485 0.56345 0.0
H218 H 0.54951 0.36069 0.49668 0.0
H219 H 0.50046 0.42397 0.47586 0.0
H220 H 0.41573 0.68097 0.69211 0.0
H221 H 0.32336 0.68919 0.67507 0.0
H222 H 0.40041 0.85612 0.65321 0.0
H223 H 0.49255 0.84835 0.67096 0.0
Sm224 Sm 1.03307 0.61737 0.13822 0.0
Sm225 Sm 0.04407 0.69107 0.06589 0.0
C226 C 0.06164 0.54587 0.19459 0.0
C227 C 0.11531 0.53553 0.18783 0.0
C228 C 0.1448 0.54843 0.13771 0.0
C229 C 0.19848 0.54471 0.132 0.0
C230 C 0.22351 0.52734 0.17606 0.0
C231 C 0.19409 0.51416 0.22619 0.0
C232 C 0.14041 0.51851 0.23214 0.0
C233 C 0.99328 0.69299 0.19241 0.0
C234 C 0.15332 0.7107 0.13913 0.0
C235 C 1.02408 0.76244 1.0011 0.0
C236 C 0.97072 0.76632 0.98103 0.0
C237 C 0.92487 0.72084 0.97135 0.0
C238 C 0.87069 0.72371 0.96756 0.0
C239 C 0.86223 0.77246 0.97038 0.0
C240 C 0.90877 0.81824 0.97508 0.0
C241 C 0.96253 0.81517 0.98098 0.0
C242 C 0.09212 0.62177 1.01458 0.0
C243 C 0.92251 0.59239 0.06751 0.0
O244 O 1.02794 0.53424 0.15278 0.0
O245 O 0.06602 0.59172 0.21429 0.0
O246 O 0.0357 0.70267 0.15977 0.0
O247 O 0.96999 0.64218 0.19467 0.0
O248 O 0.12797 0.6606 0.1478 0.0
O249 O 0.1279 0.73622 0.1084 0.0
O250 O 1.03083 0.76797 1.05388 0.0
O251 O 0.03929 0.72394 0.98257 0.0
O252 O 0.04664 0.60866 1.04367 0.0
O253 O 0.11512 0.67236 1.01742 0.0
O254 O 0.94925 0.64146 1.05319 0.0
O255 O 0.94658 0.57016 0.10319 0.0
H256 H 0.12679 0.56252 0.10315 0.0
H257 H 0.22046 0.55506 0.09309 0.0
H258 H 0.21276 0.50057 0.26066 0.0
H259 H 0.11887 0.50926 0.27137 0.0
H260 H 0.93035 0.68281 0.96928 0.0
H261 H 0.83541 0.68794 0.96414 0.0
H262 H 0.90292 0.85618 0.97764 0.0
H263 H 0.99717 0.85063 0.98857 0.0
C264 C 0.36729 0.31538 0.3126 0.0
C265 C 0.36315 0.33035 0.25745 0.0
C266 C 0.2787 0.25496 0.246 0.0
C267 C 0.27515 0.24931 0.30322 0.0
N268 N 0.32008 0.26161 0.39065 0.0
N269 N 0.31323 0.31641 0.17167 0.0
C270 C 0.32196 0.2744 0.33619 0.0
C271 C 0.31958 0.29945 0.22332 0.0
N272 N 0.41206 0.3436 0.34292 0.0
N273 N 0.23983 0.22006 0.21446 0.0
H274 H 0.33984 0.35142 0.15533 0.0
H275 H 0.27899 0.29831 0.14693 0.0
H276 H 0.20868 0.18824 0.23215 0.0
H277 H 0.24199 0.21986 0.17175 0.0
H278 H 0.41932 0.33466 0.38317 0.0
H279 H 0.44305 0.37619 0.32672 0.0
H280 H 0.3508 0.28005 0.41883 0.0
H281 H 0.28698 0.23094 0.40737 0.0
C282 C 0.26634 1.00487 0.77983 0.0
C283 C 0.29326 1.02238 0.7285 0.0
C284 C 0.36542 0.0932 0.77455 0.0
C285 C 0.33865 1.07475 0.82565 0.0
N286 N 0.2567 1.02253 0.87589 0.0
N287 N 0.36305 0.08587 0.67478 0.0
C288 C 0.28663 1.03385 0.82779 0.0
C289 C 0.34081 1.06804 0.72518 0.0
N290 N 0.22315 0.95854 0.78307 0.0
N291 N 0.41532 0.13323 0.77382 0.0
H292 H 0.34663 1.06633 0.63878 0.0
H293 H 0.39537 0.12094 0.66812 0.0
H294 H 0.43297 0.15319 0.80925 0.0
H295 H 0.44008 0.14584 0.73889 0.0
H296 H 0.20731 0.93952 0.81991 0.0
H297 H 0.20467 0.93761 0.74856 0.0
H298 H 0.21568 0.99703 0.87859 0.0
H299 H 0.27084 1.04211 0.91243 0.0
C300 C 0.66231 0.52077 0.76197 0.0
C301 C 0.64515 0.52629 0.81666 0.0
C302 C 0.58268 0.57294 0.77902 0.0
C303 C 0.60446 0.57291 0.72453 0.0
N304 N 0.67096 0.55046 0.66667 0.0
N305 N 0.59367 0.56329 0.87763 0.0
C306 C 0.64554 0.54728 0.71673 0.0
C307 C 0.60672 0.5541 0.82507 0.0
N308 N 0.69451 0.48948 0.75324 0.0
N309 N 0.53651 0.58814 0.7867 0.0
H310 H 0.60904 0.54867 0.91161 0.0
H311 H 0.57134 0.58845 0.88752 0.0
H312 H 0.51571 0.59938 0.75452 0.0
H313 H 0.51507 0.58417 0.82397 0.0
H314 H 0.70384 0.4785 0.71443 0.0
H315 H 0.7083 0.47115 0.78544 0.0
H316 H 0.7053 0.53802 0.65928 0.0
H317 H 0.66055 0.56957 0.63333 0.0
C318 C 0.95393 0.80642 0.27073 0.0
C319 C 0.95692 0.79402 0.3277 0.0
C320 C 0.99521 0.72308 0.29541 0.0
C321 C 0.98486 0.73086 0.23866 0.0
N322 N 0.95112 0.78087 0.17392 0.0
N323 N 0.97672 0.73502 0.39233 0.0
C324 C 0.96398 0.77336 0.22702 0.0
C325 C 0.97739 0.7512 0.33907 0.0
N326 N 0.94126 0.85059 0.25838 0.0
N327 N 1.02376 0.68937 0.308 0.0
H328 H 0.96594 0.75504 0.42473 0.0
H329 H 0.98332 0.70028 0.40401 0.0
H330 H 0.03784 0.66904 0.27806 0.0
H331 H 0.03825 0.68546 0.34719 0.0
H332 H 0.94212 0.86569 0.21885 0.0
H333 H 0.93543 0.87501 0.28911 0.0
H334 H 0.93014 0.80661 0.16204 0.0
H335 H 0.95828 0.75848 0.14174 0.0
C336 C 0.44915 0.31837 0.16084 0.0
C337 C 0.47198 0.35963 0.19742 0.0
C338 C 0.52908 0.31011 0.23723 0.0
C339 C 0.49871 0.26559 0.20591 0.0
N340 N 0.41314 0.22492 0.15475 0.0
N341 N 0.53549 0.39719 0.26989 0.0
C342 C 0.4538 0.26874 0.17256 0.0
C343 C 0.51295 0.35629 0.23535 0.0
N344 N 0.42246 0.32648 0.11498 0.0
N345 N 0.57252 0.30777 0.26919 0.0
H346 H 0.52575 0.4319 0.26671 0.0
H347 H 0.56155 0.39611 0.30251 0.0
H348 H 0.58127 0.27295 0.27581 0.0
H349 H 0.60026 0.34018 0.28829 0.0
H350 H 0.40824 0.2981 0.08479 0.0
H351 H 0.42049 0.36342 0.10487 0.0
H352 H 0.37867 0.2268 0.13244 0.0
H353 H 0.40804 0.18752 0.16997 0.0
C354 C 0.24408 1.04784 0.56772 0.0
C355 C 0.22757 1.0314 0.62262 0.0
C356 C 0.20333 0.11071 0.63553 0.0
C357 C 0.20331 0.11834 0.57784 0.0
N358 N 0.23399 0.09937 0.4888 0.0
N359 N 0.18404 1.04445 0.70654 0.0
C360 C 0.22689 0.08842 0.54365 0.0
C361 C 0.20548 1.06236 0.65612 0.0
N362 N 0.27871 1.02681 0.53993 0.0
N363 N 0.20303 0.14981 0.67045 0.0
H364 H 0.17547 1.0053 0.71759 0.0
H365 H 0.16903 1.06621 0.73402 0.0
H366 H 0.2092 0.18773 0.65618 0.0
H367 H 0.20586 0.14665 0.71292 0.0
H368 H 0.29583 1.04005 0.50143 0.0
H369 H 0.29527 0.99996 0.55799 0.0
H370 H 0.24348 1.07445 0.46074 0.0
H371 H 0.23003 0.13346 0.47149 0.0
C372 C 0.81386 0.49598 0.97281 0.0
C373 C 0.76674 0.51379 0.97654 0.0
C374 C 0.82048 0.58173 1.04261 0.0
C375 C 0.86675 0.56231 1.04044 0.0
N376 N 0.90334 0.49508 1.00851 0.0
N377 N 0.72411 0.57228 1.01779 0.0
C378 C 0.86169 0.51721 1.00771 0.0
C379 C 0.76989 0.55611 1.01267 0.0
N380 N 0.8152 0.46204 0.93202 0.0
N381 N 0.82534 0.62559 0.07266 0.0
H382 H 0.68854 0.55733 0.9938 0.0
H383 H 0.71991 0.59855 1.04718 0.0
H384 H 0.85913 0.64262 0.09842 0.0
H385 H 0.7973 0.64657 0.07083 0.0
H386 H 0.85037 0.45169 0.92198 0.0
H387 H 0.78257 0.44828 0.90441 0.0
H388 H 0.89918 0.45872 0.99148 0.0
H389 H 0.94096 0.51116 1.02913 0.0
C390 C 0.75137 0.78041 0.45231 0.0
C391 C 0.79612 0.75995 0.45997 0.0
C392 C 0.74105 0.70226 0.53436 0.0
C393 C 0.695 0.72122 0.52562 0.0
N394 N 0.65608 0.77772 0.47376 0.0
N395 N 0.83121 0.69696 0.5026 0.0
C396 C 0.7 0.75976 0.48345 0.0
C397 C 0.78996 0.71942 0.49934 0.0
N398 N 0.75933 0.82158 0.4167 0.0
N399 N 0.73857 0.66857 0.57719 0.0
H400 H 0.86722 0.70946 0.478 0.0
H401 H 0.82826 0.66388 0.52622 0.0
H402 H 0.7036 0.6546 0.60282 0.0
H403 H 0.77212 0.65698 0.58981 0.0
H404 H 0.73218 0.8433 0.41289 0.0
H405 H 0.79528 0.83582 0.39232 0.0
H406 H 0.6532 0.79974 0.43935 0.0
H407 H 0.62119 0.76957 0.49951 0.0
C408 C 0.33897 0.47262 0.13322 0.0
C409 C 0.37873 0.49453 0.17432 0.0
C410 C 0.32631 0.5535 0.19911 0.0
C411 C 0.27976 0.52111 0.16928 0.0
N412 N 0.24142 0.44801 0.10815 0.0
N413 N 0.41614 0.5609 0.24077 0.0
C414 C 0.28632 0.48098 0.13514 0.0
C415 C 0.37507 0.53806 0.20405 0.0
N416 N 0.35072 0.4416 0.09435 0.0
N417 N 0.32331 0.59805 0.22329 0.0
H418 H 0.45203 0.54973 0.24353 0.0
H419 H 0.41397 0.58903 0.26894 0.0
H420 H 0.2878 0.60973 0.22069 0.0
H421 H 0.35718 0.62533 0.24215 0.0
H422 H 0.325 0.42703 0.0609 0.0
H423 H 0.38949 0.43579 0.09237 0.0
H424 H 0.24268 0.41449 0.08796 0.0
H425 H 0.20142 0.45131 0.10966 0.0
C426 C 0.63797 0.40147 1.0194 0.0
C427 C 0.66643 0.40422 0.96838 0.0
C428 C 0.65252 0.30806 0.9786 0.0
C429 C 0.62406 0.30566 1.03006 0.0
N430 N 0.60385 0.35503 0.10487 0.0
N431 N 0.69181 0.35729 0.89491 0.0
C432 C 0.621 0.35391 1.05176 0.0
C433 C 0.67199 0.35673 0.94731 0.0
N434 N 0.62248 0.44333 1.03491 0.0
N435 N 0.66108 0.26385 0.95914 0.0
H436 H 0.705 0.39121 0.87078 0.0
H437 H 0.69141 0.32404 0.87338 0.0
H438 H 0.64463 0.22722 0.97781 0.0
H439 H 0.68737 0.26359 0.92619 0.0
H440 H 0.59576 0.44252 0.06788 0.0
H441 H 0.63143 0.47716 1.01097 0.0
H442 H 0.60605 0.38936 0.12541 0.0
H443 H 0.59332 0.32231 0.13057 0.0
C444 C 0.9449 0.93856 0.41295 0.0
C445 C 0.97173 0.89943 0.41876 0.0
C446 C 0.04359 0.96531 0.47611 0.0
C447 C 1.01171 1.00074 0.47744 0.0
N448 N 0.92743 1.01646 0.44823 0.0
N449 N 0.0468 0.87684 0.45948 0.0
C450 C 0.96174 0.98639 0.44512 0.0
C451 C 1.0217 0.91392 0.4507 0.0
N452 N 0.90054 0.92836 0.37819 0.0
N453 N 0.09623 0.98138 0.49748 0.0
H454 H 1.03327 0.84075 0.43971 0.0
H455 H 0.07873 0.88095 0.48776 0.0
H456 H 0.11354 1.0177 0.51608 0.0
H457 H 0.12451 0.96105 0.49178 0.0
H458 H 0.88205 0.95605 0.36636 0.0
H459 H 0.88512 0.89286 0.3577 0.0
H460 H 0.88746 1.00581 0.43157 0.0
H461 H 0.93657 1.05017 0.47183 0.0
C462 C 0.23391 0.82067 0.68241 0.0
C463 C 0.24787 0.85466 0.63637 0.0
C464 C 0.29644 0.79912 0.59625 0.0
C465 C 0.30067 0.77974 0.64931 0.0
N466 N 0.26426 0.76229 0.74146 0.0
N467 N 0.28702 0.87293 0.54522 0.0
C468 C 0.26481 0.78586 0.69165 0.0
C469 C 0.27554 0.84162 0.59084 0.0
N470 N 0.19477 0.82555 0.71881 0.0
N471 N 0.31546 0.77867 0.55236 0.0
H472 H 0.2727 0.90483 0.54078 0.0
H473 H 0.31276 0.86852 0.5133 0.0
H474 H 0.33063 0.74716 0.55727 0.0
H475 H 0.3111 0.78941 0.51189 0.0
H476 H 0.18079 0.80088 0.75268 0.0
H477 H 0.17291 0.8518 0.71133 0.0
H478 H 0.24362 0.76985 0.77591 0.0
H479 H 0.28586 0.73577 0.74825 0.0
C480 C 0.82494 0.9206 0.90623 0.0
C481 C 0.77388 0.89914 0.87848 0.0
C482 C 0.82408 0.89641 0.79314 0.0
C483 C 0.87512 0.92124 0.82061 0.0
N484 N 0.92656 0.94442 0.90452 0.0
N485 N 0.72233 0.85891 0.79933 0.0
C486 C 0.87629 0.92843 0.87802 0.0
C487 C 0.77274 0.88388 0.82306 0.0
N488 N 0.8223 0.93676 0.95855 0.0
N489 N 0.82523 0.88763 0.73805 0.0
H490 H 0.68449 0.85175 0.82056 0.0
H491 H 0.71775 0.84345 0.76 0.0
H492 H 0.86282 0.8948 0.71632 0.0
H493 H 0.78977 0.87392 0.71378 0.0
H494 H 0.85675 0.95671 0.98232 0.0
H495 H 0.85675 0.95671 0.98232 0.0
H496 H 0.93084 0.94752 0.94688 0.0
H497 H 0.96463 0.95045 0.88413 0.0
C498 C 0.72768 0.12186 0.46621 0.0
C499 C 0.76685 0.1659 0.49107 0.0
C500 C 0.83348 0.16711 0.4175 0.0
C501 C 0.78832 0.13714 0.38564 0.0
N502 N 0.69838 1.06912 0.38589 0.0
N503 N 0.85903 0.23214 0.48851 0.0
C504 C 0.73802 0.10791 0.41257 0.0
C505 C 0.82139 0.18801 0.46744 0.0
N506 N 0.67863 0.09473 0.49175 0.0
N507 N 0.88626 0.18079 0.39597 0.0
H508 H 0.85049 0.25187 0.52213 0.0
H509 H 0.89722 0.25199 0.46953 0.0
H510 H 0.89345 0.16738 0.35739 0.0
H511 H 0.92199 0.20063 0.41812 0.0
H512 H 0.668 0.10328 0.5312 0.0
H513 H 0.668 0.10328 0.5312 0.0
H514 H 0.65977 1.0484 0.40388 0.0
H515 H 0.70547 1.05645 0.34711 0.0
C516 C 0.4577 0.82334 0.42032 0.0
C517 C 0.46437 0.81378 0.36374 0.0
C518 C 0.50478 0.74457 0.395 0.0
C519 C 0.48769 0.74681 0.45097 0.0
N520 N 0.44148 0.78896 0.51393 0.0
N521 N 0.48852 0.75815 0.29847 0.0
C522 C 0.46315 0.78703 0.4628 0.0
C523 C 0.48685 0.77265 0.3518 0.0
N524 N 0.44417 0.86684 0.4332 0.0
N525 N 0.54088 0.7179 0.3826 0.0
H526 H 0.47694 0.77788 0.26609 0.0
H527 H 0.49737 0.72446 0.28708 0.0
H528 H 0.559 0.70073 0.41231 0.0
H529 H 0.55853 0.71879 0.34367 0.0
H530 H 0.44287 0.88011 0.47302 0.0
H531 H 0.4406 0.89291 0.40284 0.0
H532 H 0.42283 0.81646 0.52551 0.0
H533 H 0.43629 0.75968 0.54347 0.0
C534 C 0.17938 0.55566 0.92097 0.0
C535 C 0.14492 0.53764 0.87434 0.0
C536 C 0.07118 0.56599 0.92327 0.0
C537 C 0.10836 0.58945 0.96736 0.0
N538 N 0.20404 0.61482 0.99822 0.0
N539 N 0.05965 0.5335 0.82879 0.0
C540 C 0.1641 0.58642 0.96308 0.0
C541 C 0.091 0.54456 0.87531 0.0
N542 N 0.22674 0.54209 0.92606 0.0
N543 N 1.0168 0.56502 0.92611 0.0
H544 H 0.0733 0.51944 0.79349 0.0
H545 H 1.02287 0.54247 0.8234 0.0
H546 H 1.00166 0.5834 0.957 0.0
H547 H 0.98581 0.54328 0.89966 0.0
H548 H 0.25099 0.54881 0.96142 0.0
H549 H 0.23828 0.51911 0.89707 0.0
H550 H 0.24643 0.61902 0.99421 0.0
H551 H 0.19553 0.63857 1.02791 0.0
C552 C 0.59115 0.96701 0.97995 0.0
C553 C 0.64807 0.97208 0.97257 0.0
C554 C 0.67483 1.06248 1.00393 0.0
C555 C 0.61879 1.05468 1.02046 0.0
N556 N 0.52578 0.99145 1.03706 0.0
N557 N 0.74451 1.01993 0.99343 0.0
C558 C 0.57705 1.00486 1.0117 0.0
C559 C 0.69019 1.01848 0.98922 0.0
N560 N 0.55073 0.926 0.95701 0.0
N561 N 0.71308 0.11169 1.00053 0.0
H562 H 0.75641 0.9869 0.98738 0.0
H563 H 0.77589 1.05192 1.00941 0.0
H564 H 0.70237 0.1455 1.00668 0.0
H565 H 0.75345 0.11884 0.98481 0.0
H566 H 0.50845 0.92298 0.95727 0.0
H567 H 0.56049 0.89786 0.93351 0.0
H568 H 0.49648 0.954 1.03463 0.0
H569 H 0.51513 1.01444 0.06646 0.0
C570 C 0.84933 0.20304 0.65072 0.0
C571 C 0.81376 0.18155 0.60693 0.0
C572 C 0.87073 0.12563 0.58711 0.0
C573 C 0.91608 0.16222 0.61512 0.0
N574 N 0.94429 0.23332 0.68162 0.0
N575 N 0.76917 0.09543 0.57542 0.0
C576 C 0.90417 0.19994 0.64984 0.0
C577 C 0.81779 0.13405 0.58689 0.0
N578 N 0.82745 0.21544 0.69778 0.0
N579 N 0.87747 0.08316 0.56164 0.0
H580 H 0.76637 1.05712 0.56559 0.0
H581 H 0.76637 1.05712 0.56559 0.0
H582 H 0.91186 1.07058 0.56809 0.0
H583 H 0.84874 1.0606 0.53366 0.0
H584 H 0.85082 0.2265 0.73349 0.0
H585 H 0.78425 0.20752 0.70218 0.0
H586 H 0.93663 0.26343 0.70357 0.0
H587 H 0.98563 0.23375 0.68322 0.0
C588 C 0.30472 0.74452 0.19385 0.0
C589 C 0.30632 0.78381 0.23244 0.0
C590 C 0.21027 0.77931 0.20664 0.0
C591 C 0.20735 0.73787 0.16924 0.0
N592 N 0.24987 0.67583 0.13435 0.0
N593 N 0.26042 0.83538 0.28075 0.0
C594 C 0.25408 0.71897 0.16508 0.0
C595 C 0.259 0.80044 0.23999 0.0
N596 N 0.35263 0.7328 0.18365 0.0
N597 N 0.16607 0.79792 0.21123 0.0
H598 H 0.29562 0.85122 0.30519 0.0
H599 H 0.22623 0.84618 0.29313 0.0
H600 H 0.1276 0.78062 0.19253 0.0
H601 H 0.1677 0.83184 0.23218 0.0
H602 H 0.35722 0.70909 0.1517 0.0
H603 H 0.38963 0.75 0.20511 0.0
H604 H 0.27968 0.65673 0.13369 0.0
H605 H 0.21445 0.65662 0.11208 0.0
C606 C 0.32287 0.52104 0.73243 0.0
C607 C 0.2694 0.52194 0.71479 0.0
C608 C 0.31863 0.57611 0.63431 0.0
C609 C 0.3711 0.57 0.64903 0.0
N610 N 0.41637 0.52246 0.70654 0.0
N611 N 0.21687 0.54918 0.64621 0.0
C612 C 0.37122 0.53848 0.69654 0.0
C613 C 0.26765 0.54873 0.6645 0.0
N614 N 0.3286 0.5061 0.78505 0.0
N615 N 0.31785 0.6108 0.5934 0.0
H616 H 0.18028 0.53289 0.6691 0.0
H617 H 0.2105 0.56242 0.60735 0.0
H618 H 0.35376 0.63285 0.57196 0.0
H619 H 0.28295 0.62173 0.58415 0.0
H620 H 0.36737 0.50984 0.80238 0.0
H621 H 0.29529 0.49536 0.813 0.0
H622 H 0.41664 0.49581 0.73765 0.0
H623 H 0.45067 0.53039 0.68001 0.0
C624 C 0.72244 0.786 0.93055 0.0
C625 C 0.72269 0.82537 0.9685 0.0
C626 C 0.79293 0.80201 1.02146 0.0
C627 C 0.80529 0.77696 0.97459 0.0
N628 N 0.77945 0.74248 0.88367 0.0
N629 N 0.76079 0.87218 1.05154 0.0
C630 C 0.76838 0.76658 0.92933 0.0
C631 C 0.75705 0.83254 1.01572 0.0
N632 N 0.67988 0.77013 0.89382 0.0
N633 N 0.81804 0.79885 0.07024 0.0
H634 H 0.73912 0.89873 1.04675 0.0
H635 H 0.79001 0.8821 0.08304 0.0
H636 H 0.84478 0.77657 0.07482 0.0
H637 H 0.80762 0.81351 0.10676 0.0
H638 H 0.67525 0.73926 0.86679 0.0
H639 H 0.64655 0.78513 0.89469 0.0
H640 H 0.75699 0.73939 0.8474 0.0
H641 H 0.81325 0.72843 0.88078 0.0
C642 C 0.52807 0.93278 0.24632 0.0
C643 C 0.48111 0.92292 0.28193 0.0
C644 C 0.48854 1.0175 0.26756 0.0
C645 C 0.52785 1.02377 0.22341 0.0
N646 N 0.57832 0.98022 0.16673 0.0
N647 N 0.41299 0.95729 0.32161 0.0
C648 C 0.54636 0.9796 0.21239 0.0
C649 C 0.4613 0.96627 0.29198 0.0
N650 N 0.55391 0.89572 0.24326 0.0
N651 N 0.47783 1.06039 0.28768 0.0
H652 H 0.39178 0.92079 0.33918 0.0
H653 H 0.39188 0.98457 0.3249 0.0
H654 H 0.49765 0.09822 0.27279 0.0
H655 H 0.45384 1.05906 0.32297 0.0
H656 H 0.59123 0.90117 0.22174 0.0
H657 H 0.54094 0.86212 0.26792 0.0
H658 H 0.58819 0.94765 0.15337 0.0
H659 H 0.58962 1.01099 0.1384 0.0
C660 C 0.11867 0.39908 0.68857 0.0
C661 C 0.16608 0.41261 0.72396 0.0
C662 C 0.18062 0.32878 0.69558 0.0
C663 C 0.12974 0.312 0.66461 0.0
N664 N 0.04721 0.33305 0.63763 0.0
N665 N 0.23289 0.38169 0.7704 0.0
C666 C 0.09838 0.3481 0.66233 0.0
C667 C 0.19439 0.37497 0.7298 0.0
N668 N 0.09232 0.43536 0.68009 0.0
N669 N 0.21818 0.30242 0.69004 0.0
H670 H 0.24126 0.41287 0.79751 0.0
H671 H 0.25132 0.35352 0.78086 0.0
H672 H 0.21251 0.2722 0.6621 0.0
H673 H 0.25792 0.31503 0.70742 0.0
H674 H 0.06275 0.43239 0.6496 0.0
H675 H 0.10288 0.47052 0.70147 0.0
H676 H 1.01892 0.35369 0.64075 0.0
H677 H 1.03026 0.29761 0.61763 0.0
C678 C 0.65675 0.30298 0.59569 0.0
C679 C 0.70342 0.30303 0.56319 0.0
C680 C 0.69884 0.38012 0.51217 0.0
C681 C 0.65169 0.38005 0.54425 0.0
N682 N 0.59311 0.34915 0.6242 0.0
N683 N 0.77351 0.34606 0.49479 0.0
C684 C 0.63278 0.34371 0.58843 0.0
C685 C 0.72617 0.34313 0.52356 0.0
N686 N 0.63404 0.26251 0.63174 0.0
N687 N 0.71752 0.41502 0.46977 0.0
H688 H 0.79677 0.32085 0.50118 0.0
H689 H 0.79677 0.32085 0.50118 0.0
H690 H 0.698 0.44211 0.4582 0.0
H691 H 0.75197 0.41584 0.44537 0.0
H692 H 0.59627 0.25642 0.65253 0.0
H693 H 0.65179 0.23304 0.63849 0.0
H694 H 0.58131 0.32722 0.66021 0.0
H695 H 0.57502 0.3787 0.62018 0.0
loop_
_geom_bond_atom_site_label_1
_geom_bond_atom_site_label_2
_geom_bond_distance
_geom_bond_site_symmetry_2
_ccdc_geom_bond_type
C0 N1 1.317 . S
C0 N2 1.348 . S
C0 C3 1.485 . S
N1 C0 1.317 . S
N1 N5 1.370 . S
N2 C0 1.348 . S
N2 C4 1.346 . S
C3 C0 1.485 . S
C3 H7 0.960 . S
C3 H8 0.961 . S
C3 H9 0.960 . S
C4 N2 1.346 . S
C4 N5 1.307 . S
C4 C6 1.486 . S
N5 N1 1.370 . S
N5 C4 1.307 . S
C6 C4 1.486 . S
C6 H10 0.960 . S
C6 H11 0.960 . S
C6 H12 0.959 . S
H7 C3 0.960 . S
H8 C3 0.961 . S
H9 C3 0.960 . S
H10 C6 0.960 . S
H11 C6 0.960 . S
H12 C6 0.959 . S
C13 N14 1.317 . S
C13 N15 1.348 . S
C13 C16 1.485 . S
N14 C13 1.317 . S
N14 N18 1.370 . S
N15 C13 1.348 . S
N15 C17 1.346 . S
C16 C13 1.485 . S
C16 H20 0.960 . S
C16 H21 0.961 . S
C16 H22 0.960 . S
C17 N15 1.346 . S
C17 N18 1.307 . S
C17 C19 1.486 . S
N18 N14 1.370 . S
N18 C17 1.307 . S
C19 C17 1.486 . S
C19 H23 0.960 . S
C19 H24 0.960 . S
C19 H25 0.959 . S
H20 C16 0.960 . S
H21 C16 0.961 . S
H22 C16 0.960 . S
H23 C19 0.960 . S
H24 C19 0.960 . S
H25 C19 0.959 . S
C26 N27 1.317 . S
C26 N28 1.348 . S
C26 C29 1.485 . S
N27 C26 1.317 . S
N27 N31 1.370 . S
N28 C26 1.348 . S
N28 C30 1.346 . S
C29 C26 1.485 . S
C29 H33 0.960 . S
C29 H34 0.961 . S
C29 H35 0.960 . S
C30 N28 1.346 . S
C30 N31 1.307 . S
C30 C32 1.486 . S
N31 N27 1.370 . S
N31 C30 1.307 . S
C32 C30 1.486 . S
C32 H36 0.960 . S
C32 H37 0.960 . S
C32 H38 0.959 . S
H33 C29 0.960 . S
H34 C29 0.961 . S
H35 C29 0.960 . S
H36 C32 0.960 . S
H37 C32 0.960 . S
H38 C32 0.959 . S
C39 N40 1.317 . S
C39 N41 1.348 . S
C39 C42 1.485 . S
N40 C39 1.317 . S
N40 N44 1.370 . S
N41 C39 1.348 . S
N41 C43 1.346 . S
C42 C39 1.485 . S
C42 H46 0.960 . S
C42 H47 0.961 . S
C42 H48 0.960 . S
C43 N41 1.346 . S
C43 N44 1.307 . S
C43 C45 1.486 . S
N44 N40 1.370 . S
N44 C43 1.307 . S
C45 C43 1.486 . S
C45 H49 0.960 . S
C45 H50 0.960 . S
C45 H51 0.959 . S
H46 C42 0.960 . S
H47 C42 0.961 . S
H48 C42 0.960 . S
H49 C45 0.960 . S
H50 C45 0.960 . S
H51 C45 0.959 . S
C52 N53 1.317 . S
C52 N54 1.348 . S
C52 C55 1.485 . S
N53 C52 1.317 . S
N53 N57 1.370 . S
N54 C52 1.348 . S
N54 C56 1.346 . S
C55 C52 1.485 . S
C55 H59 0.960 . S
C55 H60 0.961 . S
C55 H61 0.960 . S
C56 N54 1.346 . S
C56 N57 1.307 . S
C56 C58 1.486 . S
N57 N53 1.370 . S
N57 C56 1.307 . S
C58 C56 1.486 . S
C58 H62 0.960 . S
C58 H63 0.960 . S
C58 H64 0.959 . S
H59 C55 0.960 . S
H60 C55 0.961 . S
H61 C55 0.960 . S
H62 C58 0.960 . S
H63 C58 0.960 . S
H64 C58 0.959 . S
C65 N66 1.317 . S
C65 N67 1.348 . S
C65 C68 1.485 . S
N66 C65 1.317 . S
N66 N70 1.370 . S
N67 C65 1.348 . S
N67 C69 1.346 . S
C68 C65 1.485 . S
C68 H72 0.960 . S
C68 H73 0.961 . S
C68 H74 0.960 . S
C69 N67 1.346 . S
C69 N70 1.307 . S
C69 C71 1.486 . S
N70 N66 1.370 . S
N70 C69 1.307 . S
C71 C69 1.486 . S
C71 H75 0.960 . S
C71 H76 0.960 . S
C71 H77 0.959 . S
H72 C68 0.960 . S
H73 C68 0.961 . S
H74 C68 0.960 . S
H75 C71 0.960 . S
H76 C71 0.960 . S
H77 C71 0.959 . S
C78 N79 1.317 . S
C78 N80 1.348 . S
C78 C81 1.485 . S
N79 C78 1.317 . S
N79 N83 1.370 . S
N80 C78 1.348 . S
N80 C82 1.346 . S
C81 C78 1.485 . S
C81 H85 0.960 . S
C81 H86 0.961 . S
C81 H87 0.960 . S
C82 N80 1.346 . S
C82 N83 1.307 . S
C82 C84 1.486 . S
N83 N79 1.370 . S
N83 C82 1.307 . S
C84 C82 1.486 . S
C84 H88 0.960 . S
C84 H89 0.960 . S
C84 H90 0.959 . S
H85 C81 0.960 . S
H86 C81 0.961 . S
H87 C81 0.960 . S
H88 C84 0.960 . S
H89 C84 0.960 . S
H90 C84 0.959 . S
C91 N92 1.317 . S
C91 N93 1.348 . S
C91 C94 1.485 . S
N92 C91 1.317 . S
N92 N96 1.370 . S
N93 C91 1.348 . S
N93 C95 1.346 . S
C94 C91 1.485 . S
C94 H98 0.960 . S
C94 H99 0.961 . S
C94 H100 0.960 . S
C95 N93 1.346 . S
C95 N96 1.307 . S
C95 C97 1.486 . S
N96 N92 1.370 . S
N96 C95 1.307 . S
C97 C95 1.486 . S
C97 H101 0.960 . S
C97 H102 0.960 . S
C97 H103 0.959 . S
H98 C94 0.960 . S
H99 C94 0.961 . S
H100 C94 0.960 . S
H101 C97 0.960 . S
H102 C97 0.960 . S
H103 C97 0.959 . S
Sm104 C106 2.846 . S
Sm104 O124 2.543 . S
Sm104 O125 2.450 . S
Sm104 O126 2.681 . S
Sm104 O127 2.464 . S
Sm104 O128 2.396 . S
Sm104 O132 2.386 . S
Sm104 O135 2.408 1_545 S
Sm105 C115 2.850 1_545 S
Sm105 O126 2.380 1_655 S
Sm105 O129 2.404 1_655 S
Sm105 O130 2.543 1_545 S
Sm105 O131 2.456 1_545 S
Sm105 O132 2.681 1_655 S
Sm105 O133 2.469 . S
Sm105 O134 2.397 1_545 S
C106 Sm104 2.846 . S
C106 C107 1.506 . S
C106 O124 1.261 . S
C106 O125 1.242 . S
C107 C106 1.506 . S
C107 C108 1.358 . S
C107 C112 1.382 . S
C108 C107 1.358 . S
C108 C109 1.385 . S
C108 H136 0.930 . S
C109 C108 1.385 . S
C109 C110 1.395 . S
C109 H137 0.929 . S
C110 C109 1.395 . S
C110 C111 1.335 . S
C111 C110 1.335 . S
C111 C112 1.398 . S
C111 H138 0.930 . S
C112 C107 1.382 . S
C112 C111 1.398 . S
C112 H139 0.929 . S
C113 O126 1.271 1_565 S
C113 O127 1.251 1_565 S
C114 O128 1.252 . S
C114 O129 1.272 . S
C115 Sm105 2.850 1_565 S
C115 C116 1.506 . S
C115 O130 1.261 . S
C115 O131 1.242 . S
C116 C115 1.506 . S
C116 C117 1.358 . S
C116 C121 1.382 . S
C117 C116 1.358 . S
C117 C118 1.385 . S
C117 H140 0.930 . S
C118 C117 1.385 . S
C118 C119 1.395 . S
C118 H141 0.929 . S
C119 C118 1.395 . S
C119 C120 1.335 . S
C120 C119 1.335 . S
C120 C121 1.398 . S
C120 H142 0.930 . S
C121 C116 1.382 . S
C121 C120 1.398 . S
C121 H143 0.929 . S
C122 O132 1.271 1_655 S
C122 O133 1.251 . S
C123 O134 1.252 . S
C123 O135 1.272 1_655 S
O124 Sm104 2.543 . S
O124 C106 1.261 . S
O125 Sm104 2.450 . S
O125 C106 1.242 . S
O126 Sm104 2.681 . S
O126 Sm105 2.380 1_455 S
O126 C113 1.271 1_545 S
O127 Sm104 2.464 . S
O127 C113 1.251 1_545 S
O128 Sm104 2.396 . S
O128 C114 1.252 . S
O129 Sm105 2.404 1_455 S
O129 C114 1.272 . S
O130 Sm105 2.543 1_565 S
O130 C115 1.261 . S
O131 Sm105 2.456 1_565 S
O131 C115 1.242 . S
O132 Sm104 2.386 . S
O132 Sm105 2.681 1_455 S
O132 C122 1.271 1_455 S
O133 Sm105 2.469 . S
O133 C122 1.251 . S
O134 Sm105 2.397 1_565 S
O134 C123 1.252 . S
O135 Sm104 2.408 1_565 S
O135 C123 1.272 1_455 S
H136 C108 0.930 . S
H137 C109 0.929 . S
H138 C111 0.930 . S
H139 C112 0.929 . S
H140 C117 0.930 . S
H141 C118 0.929 . S
H142 C120 0.930 . S
H143 C121 0.929 . S
Sm144 C146 2.846 . S
Sm144 O164 2.543 . S
Sm144 O165 2.450 . S
Sm144 O166 2.681 . S
Sm144 O167 2.464 1_545 S
Sm144 O168 2.396 . S
Sm144 O172 2.386 . S
Sm144 O175 2.408 . S
Sm145 C155 2.846 1_554 S
Sm145 O166 2.386 . S
Sm145 O169 2.408 . S
Sm145 O170 2.543 1_544 S
Sm145 O171 2.450 1_554 S
Sm145 O172 2.681 . S
Sm145 O173 2.464 1_554 S
Sm145 O174 2.396 1_554 S
C146 Sm144 2.846 . S
C146 C147 1.506 . S
C146 O164 1.261 . S
C146 O165 1.242 . S
C147 C146 1.506 . S
C147 C148 1.358 . S
C147 C152 1.382 . S
C148 C147 1.358 . S
C148 C149 1.385 . S
C148 H176 0.930 . S
C149 C148 1.385 . S
C149 C150 1.395 . S
C149 H177 0.929 . S
C150 C149 1.395 . S
C150 C151 1.335 . S
C151 C150 1.335 . S
C151 C152 1.398 . S
C151 H178 0.930 . S
C152 C147 1.382 . S
C152 C151 1.398 . S
C152 H179 0.929 . S
C153 O166 1.271 1_565 S
C153 O167 1.251 . S
C154 O168 1.252 . S
C154 O169 1.272 . S
C155 Sm145 2.846 1_556 S
C155 C156 1.506 1_545 S
C155 O170 1.261 1_545 S
C155 O171 1.242 . S
C156 C155 1.506 1_565 S
C156 C157 1.358 . S
C156 C161 1.382 1_565 S
C157 C156 1.358 . S
C157 C158 1.385 . S
C157 H180 0.930 . S
C158 C157 1.385 . S
C158 C159 1.395 . S
C158 H181 0.929 . S
C159 C158 1.395 . S
C159 C160 1.335 . S
C160 C159 1.335 . S
C160 C161 1.398 1_565 S
C160 H182 0.930 . S
C161 C156 1.382 1_545 S
C161 C160 1.398 1_545 S
C161 H183 0.929 . S
C162 O172 1.271 . S
C162 O173 1.251 1_554 S
C163 O174 1.252 . S
C163 O175 1.272 1_556 S
O164 Sm144 2.543 . S
O164 C146 1.261 . S
O165 Sm144 2.450 . S
O165 C146 1.242 . S
O166 Sm144 2.681 . S
O166 Sm145 2.386 . S
O166 C153 1.271 1_545 S
O167 Sm144 2.464 1_565 S
O167 C153 1.251 . S
O168 Sm144 2.396 . S
O168 C154 1.252 . S
O169 Sm145 2.408 . S
O169 C154 1.272 . S
O170 Sm145 2.543 1_566 S
O170 C155 1.261 1_565 S
O171 Sm145 2.450 1_556 S
O171 C155 1.242 . S
O172 Sm144 2.386 . S
O172 Sm145 2.681 . S
O172 C162 1.271 . S
O173 Sm145 2.464 1_556 S
O173 C162 1.251 1_556 S
O174 Sm145 2.396 1_556 S
O174 C163 1.252 . S
O175 Sm144 2.408 . S
O175 C163 1.272 1_554 S
H176 C148 0.930 . S
H177 C149 0.929 . S
H178 C151 0.930 . S
H179 C152 0.929 . S
H180 C157 0.930 . S
H181 C158 0.929 . S
H182 C160 0.930 . S
H183 C161 0.929 . S
Sm184 C186 2.846 . S
Sm184 O204 2.543 . S
Sm184 O205 2.450 . S
Sm184 O206 2.681 . S
Sm184 O207 2.464 . S
Sm184 O208 2.396 . S
Sm184 O212 2.386 . S
Sm184 O215 2.408 . S
Sm185 C195 2.846 . S
Sm185 O206 2.386 . S
Sm185 O209 2.408 . S
Sm185 O210 2.543 . S
Sm185 O211 2.450 . S
Sm185 O212 2.681 . S
Sm185 O213 2.464 . S
Sm185 O214 2.396 . S
C186 Sm184 2.846 . S
C186 C187 1.506 . S
C186 O204 1.261 . S
C186 O205 1.242 . S
C187 C186 1.506 . S
C187 C188 1.358 . S
C187 C192 1.382 . S
C188 C187 1.358 . S
C188 C189 1.385 . S
C188 H216 0.930 . S
C189 C188 1.385 . S
C189 C190 1.395 . S
C189 H217 0.929 . S
C190 C189 1.395 . S
C190 C191 1.335 . S
C191 C190 1.335 . S
C191 C192 1.398 . S
C191 H218 0.930 . S
C192 C187 1.382 . S
C192 C191 1.398 . S
C192 H219 0.929 . S
C193 O206 1.271 . S
C193 O207 1.251 . S
C194 O208 1.252 . S
C194 O209 1.272 . S
C195 Sm185 2.846 . S
C195 C196 1.506 . S
C195 O210 1.261 . S
C195 O211 1.242 . S
C196 C195 1.506 . S
C196 C197 1.358 . S
C196 C201 1.382 . S
C197 C196 1.358 . S
C197 C198 1.385 . S
C197 H220 0.930 . S
C198 C197 1.385 . S
C198 C199 1.395 . S
C198 H221 0.929 . S
C199 C198 1.395 . S
C199 C200 1.335 . S
C200 C199 1.335 . S
C200 C201 1.398 . S
C200 H222 0.930 . S
C201 C196 1.382 . S
C201 C200 1.398 . S
C201 H223 0.929 . S
C202 O212 1.271 . S
C202 O213 1.251 . S
C203 O214 1.252 . S
C203 O215 1.272 . S
O204 Sm184 2.543 . S
O204 C186 1.261 . S
O205 Sm184 2.450 . S
O205 C186 1.242 . S
O206 Sm184 2.681 . S
O206 Sm185 2.386 . S
O206 C193 1.271 . S
O207 Sm184 2.464 . S
O207 C193 1.251 . S
O208 Sm184 2.396 . S
O208 C194 1.252 . S
O209 Sm185 2.408 . S
O209 C194 1.272 . S
O210 Sm185 2.543 . S
O210 C195 1.261 . S
O211 Sm185 2.450 . S
O211 C195 1.242 . S
O212 Sm184 2.386 . S
O212 Sm185 2.681 . S
O212 C202 1.271 . S
O213 Sm185 2.464 . S
O213 C202 1.251 . S
O214 Sm185 2.396 . S
O214 C203 1.252 . S
O215 Sm184 2.408 . S
O215 C203 1.272 . S
H216 C188 0.930 . S
H217 C189 0.929 . S
H218 C191 0.930 . S
H219 C192 0.929 . S
H220 C197 0.930 . S
H221 C198 0.929 . S
H222 C200 0.930 . S
H223 C201 0.929 . S
Sm224 C226 2.846 . S
Sm224 O244 2.543 . S
Sm224 O245 2.450 . S
Sm224 O246 2.681 1_455 S
Sm224 O247 2.464 1_455 S
Sm224 O248 2.396 . S
Sm224 O252 2.386 1_554 S
Sm224 O255 2.408 1_455 S
Sm225 C235 2.846 1_455 S
Sm225 O246 2.386 1_456 S
Sm225 O249 2.408 1_556 S
Sm225 O250 2.543 1_455 S
Sm225 O251 2.450 1_455 S
Sm225 O252 2.681 . S
Sm225 O253 2.464 . S
Sm225 O254 2.396 1_455 S
C226 Sm224 2.846 . S
C226 C227 1.506 . S
C226 O244 1.261 . S
C226 O245 1.242 . S
C227 C226 1.506 . S
C227 C228 1.358 . S
C227 C232 1.382 . S
C228 C227 1.358 . S
C228 C229 1.385 . S
C228 H256 0.930 . S
C229 C228 1.385 . S
C229 C230 1.395 . S
C229 H257 0.929 . S
C230 C229 1.395 . S
C230 C231 1.335 . S
C231 C230 1.335 . S
C231 C232 1.398 . S
C231 H258 0.930 . S
C232 C227 1.382 . S
C232 C231 1.398 . S
C232 H259 0.929 . S
C233 O246 1.271 . S
C233 O247 1.251 . S
C234 O248 1.252 . S
C234 O249 1.272 . S
C235 Sm225 2.846 1_655 S
C235 C236 1.506 . S
C235 O250 1.261 . S
C235 O251 1.242 . S
C236 C235 1.506 . S
C236 C237 1.358 . S
C236 C241 1.382 . S
C237 C236 1.358 . S
C237 C238 1.385 . S
C237 H260 0.930 . S
C238 C237 1.385 . S
C238 C239 1.395 . S
C238 H261 0.929 . S
C239 C238 1.395 . S
C239 C240 1.335 . S
C240 C239 1.335 . S
C240 C241 1.398 . S
C240 H262 0.930 . S
C241 C236 1.382 . S
C241 C240 1.398 . S
C241 H263 0.929 . S
C242 O252 1.271 . S
C242 O253 1.251 . S
C243 O254 1.252 . S
C243 O255 1.272 1_556 S
O244 Sm224 2.543 . S
O244 C226 1.261 . S
O245 Sm224 2.450 . S
O245 C226 1.242 . S
O246 Sm224 2.681 1_655 S
O246 Sm225 2.386 1_654 S
O246 C233 1.271 . S
O247 Sm224 2.464 1_655 S
O247 C233 1.251 . S
O248 Sm224 2.396 . S
O248 C234 1.252 . S
O249 Sm225 2.408 1_554 S
O249 C234 1.272 . S
O250 Sm225 2.543 1_655 S
O250 C235 1.261 . S
O251 Sm225 2.450 1_655 S
O251 C235 1.242 . S
O252 Sm224 2.386 1_556 S
O252 Sm225 2.681 . S
O252 C242 1.271 . S
O253 Sm225 2.464 . S
O253 C242 1.251 . S
O254 Sm225 2.396 1_655 S
O254 C243 1.252 . S
O255 Sm224 2.408 1_655 S
O255 C243 1.272 1_554 S
H256 C228 0.930 . S
H257 C229 0.929 . S
H258 C231 0.930 . S
H259 C232 0.929 . S
H260 C237 0.930 . S
H261 C238 0.929 . S
H262 C240 0.930 . S
H263 C241 0.929 . S
C264 C265 1.363 . S
C264 C270 1.379 . S
C264 N272 1.356 . S
C265 C264 1.363 . S
C265 C271 1.363 . S
C266 C267 1.363 . S
C266 C271 1.379 . S
C266 N273 1.356 . S
C267 C266 1.363 . S
C267 C270 1.363 . S
N268 C270 1.356 . S
N268 H280 0.984 . S
N268 H281 0.985 . S
N269 C271 1.356 . S
N269 H274 0.984 . S
N269 H275 0.985 . S
C270 C264 1.379 . S
C270 C267 1.363 . S
C270 N268 1.356 . S
C271 C265 1.363 . S
C271 C266 1.379 . S
C271 N269 1.356 . S
N272 C264 1.356 . S
N272 H278 0.984 . S
N272 H279 0.984 . S
N273 C266 1.356 . S
N273 H276 0.984 . S
N273 H277 0.985 . S
H274 N269 0.984 . S
H275 N269 0.985 . S
H276 N273 0.984 . S
H277 N273 0.985 . S
H278 N272 0.984 . S
H279 N272 0.984 . S
H280 N268 0.984 . S
H281 N268 0.985 . S
C282 C283 1.363 . S
C282 C288 1.379 . S
C282 N290 1.356 . S
C283 C282 1.363 . S
C283 C289 1.363 . S
C284 C285 1.363 . S
C284 C289 1.379 . S
C284 N291 1.356 . S
C285 C284 1.363 . S
C285 C288 1.363 . S
N286 C288 1.356 . S
N286 H298 0.984 . S
N286 H299 0.985 . S
N287 C289 1.356 . S
N287 H292 0.984 . S
N287 H293 0.985 1_565 S
C288 C282 1.379 . S
C288 C285 1.363 . S
C288 N286 1.356 . S
C289 C283 1.363 . S
C289 C284 1.379 . S
C289 N287 1.356 . S
N290 C282 1.356 . S
N290 H296 0.984 . S
N290 H297 0.984 . S
N291 C284 1.356 . S
N291 H294 0.984 . S
N291 H295 0.985 1_565 S
H292 N287 0.984 . S
H293 N287 0.985 1_545 S
H294 N291 0.984 . S
H295 N291 0.985 1_545 S
H296 N290 0.984 . S
H297 N290 0.984 . S
H298 N286 0.984 . S
H299 N286 0.985 . S
C300 C301 1.363 . S
C300 C306 1.379 . S
C300 N308 1.356 . S
C301 C300 1.363 . S
C301 C307 1.363 . S
C302 C303 1.363 . S
C302 C307 1.379 . S
C302 N309 1.356 . S
C303 C302 1.363 . S
C303 C306 1.363 . S
N304 C306 1.356 . S
N304 H316 0.984 . S
N304 H317 0.985 . S
N305 C307 1.356 . S
N305 H310 0.984 . S
N305 H311 0.985 . S
C306 C300 1.379 . S
C306 C303 1.363 . S
C306 N304 1.356 . S
C307 C301 1.363 . S
C307 C302 1.379 . S
C307 N305 1.356 . S
N308 C300 1.356 . S
N308 H314 0.984 . S
N308 H315 0.984 . S
N309 C302 1.356 . S
N309 H312 0.984 . S
N309 H313 0.985 . S
H310 N305 0.984 . S
H311 N305 0.985 . S
H312 N309 0.984 . S
H313 N309 0.985 . S
H314 N308 0.984 . S
H315 N308 0.984 . S
H316 N304 0.984 . S
H317 N304 0.985 . S
C318 C319 1.363 . S
C318 C324 1.379 . S
C318 N326 1.356 . S
C319 C318 1.363 . S
C319 C325 1.363 . S
C320 C321 1.363 . S
C320 C325 1.379 . S
C320 N327 1.356 . S
C321 C320 1.363 . S
C321 C324 1.363 . S
N322 C324 1.356 . S
N322 H334 0.984 . S
N322 H335 0.985 . S
N323 C325 1.356 . S
N323 H328 0.984 . S
N323 H329 0.985 . S
C324 C318 1.379 . S
C324 C321 1.363 . S
C324 N322 1.356 . S
C325 C319 1.363 . S
C325 C320 1.379 . S
C325 N323 1.356 . S
N326 C318 1.356 . S
N326 H332 0.984 . S
N326 H333 0.984 . S
N327 C320 1.356 . S
N327 H330 0.984 . S
N327 H331 0.985 . S
H328 N323 0.984 . S
H329 N323 0.985 . S
H330 N327 0.984 . S
H331 N327 0.985 . S
H332 N326 0.984 . S
H333 N326 0.984 . S
H334 N322 0.984 . S
H335 N322 0.985 . S
C336 C337 1.363 . S
C336 C342 1.379 . S
C336 N344 1.356 . S
C337 C336 1.363 . S
C337 C343 1.363 . S
C338 C339 1.363 . S
C338 C343 1.379 . S
C338 N345 1.356 . S
C339 C338 1.363 . S
C339 C342 1.363 . S
N340 C342 1.356 . S
N340 H352 0.984 . S
N340 H353 0.985 . S
N341 C343 1.356 . S
N341 H346 0.984 . S
N341 H347 0.985 . S
C342 C336 1.379 . S
C342 C339 1.363 . S
C342 N340 1.356 . S
C343 C337 1.363 . S
C343 C338 1.379 . S
C343 N341 1.356 . S
N344 C336 1.356 . S
N344 H350 0.984 . S
N344 H351 0.984 . S
N345 C338 1.356 . S
N345 H348 0.984 . S
N345 H349 0.985 . S
H346 N341 0.984 . S
H347 N341 0.985 . S
H348 N345 0.984 . S
H349 N345 0.985 . S
H350 N344 0.984 . S
H351 N344 0.984 . S
H352 N340 0.984 . S
H353 N340 0.985 . S
C354 C355 1.363 . S
C354 C360 1.379 . S
C354 N362 1.356 . S
C355 C354 1.363 . S
C355 C361 1.363 . S
C356 C357 1.363 . S
C356 C361 1.379 . S
C356 N363 1.356 . S
C357 C356 1.363 . S
C357 C360 1.363 . S
N358 C360 1.356 1_545 S
N358 H370 0.984 . S
N358 H371 0.985 . S
N359 C361 1.356 . S
N359 H364 0.984 . S
N359 H365 0.985 . S
C360 C354 1.379 . S
C360 C357 1.363 . S
C360 N358 1.356 1_565 S
C361 C355 1.363 . S
C361 C356 1.379 . S
C361 N359 1.356 . S
N362 C354 1.356 . S
N362 H368 0.984 . S
N362 H369 0.984 . S
N363 C356 1.356 . S
N363 H366 0.984 . S
N363 H367 0.985 . S
H364 N359 0.984 . S
H365 N359 0.985 . S
H366 N363 0.984 . S
H367 N363 0.985 . S
H368 N362 0.984 . S
H369 N362 0.984 . S
H370 N358 0.984 . S
H371 N358 0.985 . S
C372 C373 1.363 . S
C372 C378 1.379 . S
C372 N380 1.356 . S
C373 C372 1.363 . S
C373 C379 1.363 . S
C374 C375 1.363 . S
C374 C379 1.379 . S
C374 N381 1.356 1_556 S
C375 C374 1.363 . S
C375 C378 1.363 . S
N376 C378 1.356 . S
N376 H388 0.984 . S
N376 H389 0.985 . S
N377 C379 1.356 . S
N377 H382 0.984 . S
N377 H383 0.985 . S
C378 C372 1.379 . S
C378 C375 1.363 . S
C378 N376 1.356 . S
C379 C373 1.363 . S
C379 C374 1.379 . S
C379 N377 1.356 . S
N380 C372 1.356 . S
N380 H386 0.984 . S
N380 H387 0.984 . S
N381 C374 1.356 1_554 S
N381 H384 0.984 . S
N381 H385 0.985 . S
H382 N377 0.984 . S
H383 N377 0.985 . S
H384 N381 0.984 . S
H385 N381 0.985 . S
H386 N380 0.984 . S
H387 N380 0.984 . S
H388 N376 0.984 . S
H389 N376 0.985 . S
C390 C391 1.363 . S
C390 C396 1.379 . S
C390 N398 1.356 . S
C391 C390 1.363 . S
C391 C397 1.363 . S
C392 C393 1.363 . S
C392 C397 1.379 . S
C392 N399 1.356 . S
C393 C392 1.363 . S
C393 C396 1.363 . S
N394 C396 1.356 . S
N394 H406 0.984 . S
N394 H407 0.985 . S
N395 C397 1.356 . S
N395 H400 0.984 . S
N395 H401 0.985 . S
C396 C390 1.379 . S
C396 C393 1.363 . S
C396 N394 1.356 . S
C397 C391 1.363 . S
C397 C392 1.379 . S
C397 N395 1.356 . S
N398 C390 1.356 . S
N398 H404 0.984 . S
N398 H405 0.984 . S
N399 C392 1.356 . S
N399 H402 0.984 . S
N399 H403 0.985 . S
H400 N395 0.984 . S
H401 N395 0.985 . S
H402 N399 0.984 . S
H403 N399 0.985 . S
H404 N398 0.984 . S
H405 N398 0.984 . S
H406 N394 0.984 . S
H407 N394 0.985 . S
C408 C409 1.363 . S
C408 C414 1.379 . S
C408 N416 1.356 . S
C409 C408 1.363 . S
C409 C415 1.363 . S
C410 C411 1.363 . S
C410 C415 1.379 . S
C410 N417 1.356 . S
C411 C410 1.363 . S
C411 C414 1.363 . S
N412 C414 1.356 . S
N412 H424 0.984 . S
N412 H425 0.985 . S
N413 C415 1.356 . S
N413 H418 0.984 . S
N413 H419 0.985 . S
C414 C408 1.379 . S
C414 C411 1.363 . S
C414 N412 1.356 . S
C415 C409 1.363 . S
C415 C410 1.379 . S
C415 N413 1.356 . S
N416 C408 1.356 . S
N416 H422 0.984 . S
N416 H423 0.984 . S
N417 C410 1.356 . S
N417 H420 0.984 . S
N417 H421 0.985 . S
H418 N413 0.984 . S
H419 N413 0.985 . S
H420 N417 0.984 . S
H421 N417 0.985 . S
H422 N416 0.984 . S
H423 N416 0.984 . S
H424 N412 0.984 . S
H425 N412 0.985 . S
C426 C427 1.363 . S
C426 C432 1.379 . S
C426 N434 1.356 . S
C427 C426 1.363 . S
C427 C433 1.363 . S
C428 C429 1.363 . S
C428 C433 1.379 . S
C428 N435 1.356 . S
C429 C428 1.363 . S
C429 C432 1.363 . S
N430 C432 1.356 1_554 S
N430 H442 0.984 . S
N430 H443 0.985 . S
N431 C433 1.356 . S
N431 H436 0.984 . S
N431 H437 0.985 . S
C432 C426 1.379 . S
C432 C429 1.363 . S
C432 N430 1.356 1_556 S
C433 C427 1.363 . S
C433 C428 1.379 . S
C433 N431 1.356 . S
N434 C426 1.356 . S
N434 H440 0.984 . S
N434 H441 0.984 . S
N435 C428 1.356 . S
N435 H438 0.984 . S
N435 H439 0.985 . S
H436 N431 0.984 . S
H437 N431 0.985 . S
H438 N435 0.984 . S
H439 N435 0.985 . S
H440 N434 0.984 . S
H441 N434 0.984 . S
H442 N430 0.984 . S
H443 N430 0.985 . S
C444 C445 1.363 . S
C444 C450 1.379 . S
C444 N452 1.356 . S
C445 C444 1.363 . S
C445 C451 1.363 . S
C446 C447 1.363 . S
C446 C451 1.379 . S
C446 N453 1.356 . S
C447 C446 1.363 . S
C447 C450 1.363 . S
N448 C450 1.356 . S
N448 H460 0.984 . S
N448 H461 0.985 . S
N449 C451 1.356 . S
N449 H454 0.984 . S
N449 H455 0.985 . S
C450 C444 1.379 . S
C450 C447 1.363 . S
C450 N448 1.356 . S
C451 C445 1.363 . S
C451 C446 1.379 . S
C451 N449 1.356 . S
N452 C444 1.356 . S
N452 H458 0.984 . S
N452 H459 0.984 . S
N453 C446 1.356 . S
N453 H456 0.984 . S
N453 H457 0.985 . S
H454 N449 0.984 . S
H455 N449 0.985 . S
H456 N453 0.984 . S
H457 N453 0.985 . S
H458 N452 0.984 . S
H459 N452 0.984 . S
H460 N448 0.984 . S
H461 N448 0.985 . S
C462 C463 1.363 . S
C462 C468 1.379 . S
C462 N470 1.356 . S
C463 C462 1.363 . S
C463 C469 1.363 . S
C464 C465 1.363 . S
C464 C469 1.379 . S
C464 N471 1.356 . S
C465 C464 1.363 . S
C465 C468 1.363 . S
N466 C468 1.356 . S
N466 H478 0.984 . S
N466 H479 0.985 . S
N467 C469 1.356 . S
N467 H472 0.984 . S
N467 H473 0.985 . S
C468 C462 1.379 . S
C468 C465 1.363 . S
C468 N466 1.356 . S
C469 C463 1.363 . S
C469 C464 1.379 . S
C469 N467 1.356 . S
N470 C462 1.356 . S
N470 H476 0.984 . S
N470 H477 0.984 . S
N471 C464 1.356 . S
N471 H474 0.984 . S
N471 H475 0.985 . S
H472 N467 0.984 . S
H473 N467 0.985 . S
H474 N471 0.984 . S
H475 N471 0.985 . S
H476 N470 0.984 . S
H477 N470 0.984 . S
H478 N466 0.984 . S
H479 N466 0.985 . S
C480 C481 1.363 . S
C480 C486 1.379 . S
C480 N488 1.356 . S
C481 C480 1.363 . S
C481 C487 1.363 . S
C482 C483 1.363 . S
C482 C487 1.379 . S
C482 N489 1.356 . S
C483 C482 1.363 . S
C483 C486 1.363 . S
N484 C486 1.356 . S
N484 H496 0.984 . S
N484 H497 0.985 . S
N485 C487 1.356 . S
N485 H490 0.984 . S
N485 H491 0.985 . S
C486 C480 1.379 . S
C486 C483 1.363 . S
C486 N484 1.356 . S
C487 C481 1.363 . S
C487 C482 1.379 . S
C487 N485 1.356 . S
N488 C480 1.356 . S
N488 H494 0.984 . S
N488 H495 0.984 . S
N489 C482 1.356 . S
N489 H492 0.984 . S
N489 H493 0.985 . S
H490 N485 0.984 . S
H491 N485 0.985 . S
H492 N489 0.984 . S
H493 N489 0.985 . S
H494 N488 0.984 . S
H495 N488 0.984 . S
H496 N484 0.984 . S
H497 N484 0.985 . S
C498 C499 1.363 . S
C498 C504 1.379 . S
C498 N506 1.356 . S
C499 C498 1.363 . S
C499 C505 1.363 . S
C500 C501 1.363 . S
C500 C505 1.379 . S
C500 N507 1.356 . S
C501 C500 1.363 . S
C501 C504 1.363 . S
N502 C504 1.356 . S
N502 H514 0.984 . S
N502 H515 0.985 . S
N503 C505 1.356 . S
N503 H508 0.984 . S
N503 H509 0.985 . S
C504 C498 1.379 . S
C504 C501 1.363 . S
C504 N502 1.356 . S
C505 C499 1.363 . S
C505 C500 1.379 . S
C505 N503 1.356 . S
N506 C498 1.356 . S
N506 H512 0.984 . S
N506 H513 0.984 . S
N507 C500 1.356 . S
N507 H510 0.984 . S
N507 H511 0.985 . S
H508 N503 0.984 . S
H509 N503 0.985 . S
H510 N507 0.984 . S
H511 N507 0.985 . S
H512 N506 0.984 . S
H513 N506 0.984 . S
H514 N502 0.984 . S
H515 N502 0.985 . S
C516 C517 1.363 . S
C516 C522 1.379 . S
C516 N524 1.356 . S
C517 C516 1.363 . S
C517 C523 1.363 . S
C518 C519 1.363 . S
C518 C523 1.379 . S
C518 N525 1.356 . S
C519 C518 1.363 . S
C519 C522 1.363 . S
N520 C522 1.356 . S
N520 H532 0.984 . S
N520 H533 0.985 . S
N521 C523 1.356 . S
N521 H526 0.984 . S
N521 H527 0.985 . S
C522 C516 1.379 . S
C522 C519 1.363 . S
C522 N520 1.356 . S
C523 C517 1.363 . S
C523 C518 1.379 . S
C523 N521 1.356 . S
N524 C516 1.356 . S
N524 H530 0.984 . S
N524 H531 0.984 . S
N525 C518 1.356 . S
N525 H528 0.984 . S
N525 H529 0.985 . S
H526 N521 0.984 . S
H527 N521 0.985 . S
H528 N525 0.984 . S
H529 N525 0.985 . S
H530 N524 0.984 . S
H531 N524 0.984 . S
H532 N520 0.984 . S
H533 N520 0.985 . S
C534 C535 1.363 . S
C534 C540 1.379 . S
C534 N542 1.356 . S
C535 C534 1.363 . S
C535 C541 1.363 . S
C536 C537 1.363 . S
C536 C541 1.379 . S
C536 N543 1.356 . S
C537 C536 1.363 . S
C537 C540 1.363 . S
N538 C540 1.356 . S
N538 H550 0.984 . S
N538 H551 0.985 . S
N539 C541 1.356 . S
N539 H544 0.984 . S
N539 H545 0.985 . S
C540 C534 1.379 . S
C540 C537 1.363 . S
C540 N538 1.356 . S
C541 C535 1.363 . S
C541 C536 1.379 . S
C541 N539 1.356 . S
N542 C534 1.356 . S
N542 H548 0.984 . S
N542 H549 0.984 . S
N543 C536 1.356 . S
N543 H546 0.984 . S
N543 H547 0.985 1_455 S
H544 N539 0.984 . S
H545 N539 0.985 . S
H546 N543 0.984 . S
H547 N543 0.985 1_655 S
H548 N542 0.984 . S
H549 N542 0.984 . S
H550 N538 0.984 . S
H551 N538 0.985 . S
C552 C553 1.363 . S
C552 C558 1.379 . S
C552 N560 1.356 . S
C553 C552 1.363 . S
C553 C559 1.363 . S
C554 C555 1.363 . S
C554 C559 1.379 . S
C554 N561 1.356 . S
C555 C554 1.363 . S
C555 C558 1.363 . S
N556 C558 1.356 . S
N556 H568 0.984 . S
N556 H569 0.985 . S
N557 C559 1.356 . S
N557 H562 0.984 . S
N557 H563 0.985 . S
C558 C552 1.379 . S
C558 C555 1.363 . S
C558 N556 1.356 . S
C559 C553 1.363 . S
C559 C554 1.379 . S
C559 N557 1.356 . S
N560 C552 1.356 . S
N560 H566 0.984 . S
N560 H567 0.984 . S
N561 C554 1.356 . S
N561 H564 0.976 1_565 S
N561 H565 0.985 . S
H562 N557 0.984 . S
H563 N557 0.985 . S
H564 N561 0.976 1_545 S
H565 N561 0.985 . S
H566 N560 0.984 . S
H567 N560 0.984 . S
H568 N556 0.984 . S
H569 N556 0.985 . S
C570 C571 1.363 . S
C570 C576 1.379 . S
C570 N578 1.356 . S
C571 C570 1.363 . S
C571 C577 1.363 . S
C572 C573 1.363 . S
C572 C577 1.379 . S
C572 N579 1.356 . S
C573 C572 1.363 . S
C573 C576 1.363 . S
N574 C576 1.356 . S
N574 H586 0.984 1_655 S
N574 H587 0.985 1_655 S
N575 C577 1.356 . S
N575 H580 0.984 . S
N575 H581 0.985 . S
C576 C570 1.379 . S
C576 C573 1.363 . S
C576 N574 1.356 . S
C577 C571 1.363 . S
C577 C572 1.379 . S
C577 N575 1.356 . S
N578 C570 1.356 . S
N578 H584 0.984 . S
N578 H585 0.984 . S
N579 C572 1.356 . S
N579 H582 0.984 . S
N579 H583 0.985 . S
H580 N575 0.984 . S
H581 N575 0.985 . S
H582 N579 0.984 . S
H583 N579 0.985 . S
H584 N578 0.984 . S
H585 N578 0.984 . S
H586 N574 0.984 1_455 S
H587 N574 0.985 1_455 S
C588 C589 1.363 . S
C588 C594 1.379 . S
C588 N596 1.356 . S
C589 C588 1.363 . S
C589 C595 1.363 . S
C590 C591 1.363 . S
C590 C595 1.379 . S
C590 N597 1.356 . S
C591 C590 1.363 . S
C591 C594 1.363 . S
N592 C594 1.356 . S
N592 H604 0.984 . S
N592 H605 0.985 . S
N593 C595 1.356 . S
N593 H598 0.984 . S
N593 H599 0.985 . S
C594 C588 1.379 . S
C594 C591 1.363 . S
C594 N592 1.356 . S
C595 C589 1.363 . S
C595 C590 1.379 . S
C595 N593 1.356 . S
N596 C588 1.356 . S
N596 H602 0.984 . S
N596 H603 0.984 . S
N597 C590 1.356 . S
N597 H600 0.984 . S
N597 H601 0.985 . S
H598 N593 0.984 . S
H599 N593 0.985 . S
H600 N597 0.984 . S
H601 N597 0.985 . S
H602 N596 0.984 . S
H603 N596 0.984 . S
H604 N592 0.984 . S
H605 N592 0.985 . S
C606 C607 1.363 . S
C606 C612 1.379 . S
C606 N614 1.356 . S
C607 C606 1.363 . S
C607 C613 1.363 . S
C608 C609 1.363 . S
C608 C613 1.379 . S
C608 N615 1.356 . S
C609 C608 1.363 . S
C609 C612 1.363 . S
N610 C612 1.356 . S
N610 H622 0.984 . S
N610 H623 0.985 . S
N611 C613 1.356 . S
N611 H616 0.984 . S
N611 H617 0.985 . S
C612 C606 1.379 . S
C612 C609 1.363 . S
C612 N610 1.356 . S
C613 C607 1.363 . S
C613 C608 1.379 . S
C613 N611 1.356 . S
N614 C606 1.356 . S
N614 H620 0.984 . S
N614 H621 0.984 . S
N615 C608 1.356 . S
N615 H618 0.984 . S
N615 H619 0.985 . S
H616 N611 0.984 . S
H617 N611 0.985 . S
H618 N615 0.984 . S
H619 N615 0.985 . S
H620 N614 0.984 . S
H621 N614 0.984 . S
H622 N610 0.984 . S
H623 N610 0.985 . S
C624 C625 1.363 . S
C624 C630 1.379 . S
C624 N632 1.356 . S
C625 C624 1.363 . S
C625 C631 1.363 . S
C626 C627 1.363 . S
C626 C631 1.379 . S
C626 N633 1.356 . S
C627 C626 1.363 . S
C627 C630 1.363 . S
N628 C630 1.356 . S
N628 H640 0.984 . S
N628 H641 0.985 . S
N629 C631 1.356 . S
N629 H634 0.984 . S
N629 H635 0.985 . S
C630 C624 1.379 . S
C630 C627 1.363 . S
C630 N628 1.356 . S
C631 C625 1.363 . S
C631 C626 1.379 . S
C631 N629 1.356 . S
N632 C624 1.356 . S
N632 H638 0.984 . S
N632 H639 0.984 . S
N633 C626 1.356 . S
N633 H636 0.984 . S
N633 H637 0.985 . S
H634 N629 0.984 . S
H635 N629 0.985 . S
H636 N633 0.984 . S
H637 N633 0.985 . S
H638 N632 0.984 . S
H639 N632 0.984 . S
H640 N628 0.984 . S
H641 N628 0.985 . S
C642 C643 1.363 . S
C642 C648 1.379 . S
C642 N650 1.356 . S
C643 C642 1.363 . S
C643 C649 1.363 . S
C644 C645 1.363 . S
C644 C649 1.379 . S
C644 N651 1.356 . S
C645 C644 1.363 . S
C645 C648 1.363 . S
N646 C648 1.356 . S
N646 H658 0.984 . S
N646 H659 0.985 . S
N647 C649 1.356 . S
N647 H652 0.984 . S
N647 H653 0.985 . S
C648 C642 1.379 . S
C648 C645 1.363 . S
C648 N646 1.356 . S
C649 C643 1.363 . S
C649 C644 1.379 . S
C649 N647 1.356 . S
N650 C642 1.356 . S
N650 H656 0.984 . S
N650 H657 0.984 . S
N651 C644 1.356 . S
N651 H654 0.984 . S
N651 H655 0.985 . S
H652 N647 0.984 . S
H653 N647 0.985 . S
H654 N651 0.984 . S
H655 N651 0.985 . S
H656 N650 0.984 . S
H657 N650 0.984 . S
H658 N646 0.984 . S
H659 N646 0.985 . S
C660 C661 1.363 . S
C660 C666 1.379 . S
C660 N668 1.356 . S
C661 C660 1.363 . S
C661 C667 1.363 . S
C662 C663 1.363 . S
C662 C667 1.379 . S
C662 N669 1.356 . S
C663 C662 1.363 . S
C663 C666 1.363 . S
N664 C666 1.356 . S
N664 H676 0.984 . S
N664 H677 0.985 . S
N665 C667 1.356 . S
N665 H670 0.984 . S
N665 H671 0.985 . S
C666 C660 1.379 . S
C666 C663 1.363 . S
C666 N664 1.356 . S
C667 C661 1.363 . S
C667 C662 1.379 . S
C667 N665 1.356 . S
N668 C660 1.356 . S
N668 H674 0.984 . S
N668 H675 0.984 . S
N669 C662 1.356 . S
N669 H672 0.984 . S
N669 H673 0.985 . S
H670 N665 0.984 . S
H671 N665 0.985 . S
H672 N669 0.984 . S
H673 N669 0.985 . S
H674 N668 0.984 . S
H675 N668 0.984 . S
H676 N664 0.984 . S
H677 N664 0.985 . S
C678 C679 1.363 . S
C678 C684 1.379 . S
C678 N686 1.356 . S
C679 C678 1.363 . S
C679 C685 1.363 . S
C680 C681 1.363 . S
C680 C685 1.379 . S
C680 N687 1.356 . S
C681 C680 1.363 . S
C681 C684 1.363 . S
N682 C684 1.356 . S
N682 H694 0.984 . S
N682 H695 0.985 . S
N683 C685 1.356 . S
N683 H688 0.984 . S
N683 H689 0.985 . S
C684 C678 1.379 . S
C684 C681 1.363 . S
C684 N682 1.356 . S
C685 C679 1.363 . S
C685 C680 1.379 . S
C685 N683 1.356 . S
N686 C678 1.356 . S
N686 H692 0.984 . S
N686 H693 0.984 . S
N687 C680 1.356 . S
N687 H690 0.984 . S
N687 H691 0.985 . S
H688 N683 0.984 . S
H689 N683 0.985 . S
H690 N687 0.984 . S
H691 N687 0.985 . S
H692 N686 0.984 . S
H693 N686 0.984 . S
H694 N682 0.984 . S
H695 N682 0.985 . S
C265 N1 0.970 . S
C267 C110 1.004 . S
C283 N18 1.119 . S
C285 C159 1.176 . S
C303 C194 2.189 . S
C301 N28 2.249 . S
C319 N40 2.675 . S
C321 C233 2.689 . S
C339 C154 2.273 . S
C337 N5 2.179 . S
C357 C113 0.583 . S
C355 N14 0.531 . S
C375 C243 2.053 . S
C373 N31 2.060 . S
C393 C202 1.591 . S
C391 N41 1.607 . S
C409 N2 1.318 . S
C411 C230 1.366 . S
C429 C162 2.472 1_556 S
C427 N27 2.552 . S
C445 N44 2.441 . S
C447 C123 2.506 . S
C463 N15 0.955 . S
C465 C199 0.961 . S
C483 C119 1.499 . S
C481 N57 1.583 . S
C499 N70 0.990 . S
C501 C150 1.075 . S
C517 N79 2.381 . S
C519 C203 2.412 . S
C535 N93 2.510 . S
C537 C242 2.493 . S
C553 N54 1.859 . S
C555 C163 2.047 1_565 S
C573 C122 1.323 . S
C571 N66 1.418 . S
C591 C234 1.591 . S
C589 N80 1.665 . S
C609 C193 1.830 . S
C607 N96 1.837 . S
C625 N53 1.536 . S
C627 C239 1.551 . S
C645 C153 2.206 . S
C643 N83 2.220 . S
C663 C114 2.670 . S
C661 N92 2.663 . S
C679 N67 1.166 . S
C681 C190 1.214 . S
