# Generated by pormake.
# Topology ssb, (4,4)-cn, num edge types: 1
# Building blocks:
#     Node 0, Type 0, BuildingBlock: GIZVER_clean_linker_0, # of connection points: 4
#     Node 1, Type 0, BuildingBlock: GIZVER_clean_linker_0, # of connection points: 4
#     Node 2, Type 0, BuildingBlock: GIZVER_clean_linker_0, # of connection points: 4
#     Node 3, Type 0, BuildingBlock: GIZVER_clean_linker_0, # of connection points: 4
#     Node 4, Type 0, BuildingBlock: GIZVER_clean_linker_0, # of connection points: 4
#     Node 5, Type 0, BuildingBlock: GIZVER_clean_linker_0, # of connection points: 4
#     Node 6, Type 0, BuildingBlock: GIZVER_clean_linker_0, # of connection points: 4
#     Node 7, Type 0, BuildingBlock: GIZVER_clean_linker_0, # of connection points: 4
#     Node 8, Type 1, BuildingBlock: KOZSID_clean_sbu_0, # of connection points: 4
#     Node 9, Type 1, BuildingBlock: KOZSID_clean_sbu_0, # of connection points: 4
#     Node 10, Type 1, BuildingBlock: KOZSID_clean_sbu_0, # of connection points: 4
#     Node 11, Type 1, BuildingBlock: KOZSID_clean_sbu_0, # of connection points: 4
#     Node 12, Type 1, BuildingBlock: KOZSID_clean_sbu_0, # of connection points: 4
#     Node 13, Type 1, BuildingBlock: KOZSID_clean_sbu_0, # of connection points: 4
#     Node 14, Type 1, BuildingBlock: KOZSID_clean_sbu_0, # of connection points: 4
#     Node 15, Type 1, BuildingBlock: KOZSID_clean_sbu_0, # of connection points: 4
#     Edge 16, Type (0, 1), None
#     Edge 17, Type (0, 1), None
#     Edge 18, Type (0, 1), None
#     Edge 19, Type (0, 1), None
#     Edge 20, Type (0, 1), None
#     Edge 21, Type (0, 1), None
#     Edge 22, Type (0, 1), None
#     Edge 23, Type (0, 1), None
#     Edge 24, Type (0, 1), None
#     Edge 25, Type (0, 1), None
#     Edge 26, Type (0, 1), None
#     Edge 27, Type (0, 1), None
#     Edge 28, Type (0, 1), None
#     Edge 29, Type (0, 1), None
#     Edge 30, Type (0, 1), None
#     Edge 31, Type (0, 1), None
#     Edge 32, Type (0, 1), None
#     Edge 33, Type (0, 1), None
#     Edge 34, Type (0, 1), None
#     Edge 35, Type (0, 1), None
#     Edge 36, Type (0, 1), None
#     Edge 37, Type (0, 1), None
#     Edge 38, Type (0, 1), None
#     Edge 39, Type (0, 1), None
#     Edge 40, Type (0, 1), None
#     Edge 41, Type (0, 1), None
#     Edge 42, Type (0, 1), None
#     Edge 43, Type (0, 1), None
#     Edge 44, Type (0, 1), None
#     Edge 45, Type (0, 1), None
#     Edge 46, Type (0, 1), None
#     Edge 47, Type (0, 1), None
# Relax obj value: 0.010
# Max RMSD: 0.068
# Mean RMSD: 0.035
data_MOF--net-ssb--node1-KOZSID_clean_sbu_0--node2-GIZVER_clean_linker_0--edge1-none
_symmetry_space_group_name_H-M    P1
_symmetry_Int_Tables_number       1
_symmetry_cell_setting            triclinic
loop_
_symmetry_equiv_pos_as_xyz
'x, y, z'
_cell_length_a     28.058713
_cell_length_b     27.741486
_cell_length_c     20.675727
_cell_angle_alpha  95.456443
_cell_angle_beta   100.24072
_cell_angle_gamma 89.857467
loop_
_atom_site_label
_atom_site_type_symbol
_atom_site_fract_x
_atom_site_fract_y
_atom_site_fract_z
_atom_type_partial_charge
H0 H 0.27369 0.14932 0.31116 0.0
H1 H 0.18512 0.26747 0.36555 0.0
H2 H 0.24073 0.16899 0.50601 0.0
H3 H 0.22655 0.19868 0.22883 0.0
H4 H 0.1936 0.24958 0.25394 0.0
H5 H 0.32262 0.2084 0.25588 0.0
H6 H 0.36393 0.33816 0.18174 0.0
H7 H 0.2192 0.32214 0.21785 0.0
C8 C 0.2599 0.17152 0.34952 0.0
C9 C 0.26028 0.15326 0.41119 0.0
C10 C 0.23663 0.21588 0.33485 0.0
C11 C 0.20907 0.23828 0.38036 0.0
C12 C 0.20791 0.21931 0.44105 0.0
C13 C 0.23994 0.18195 0.4587 0.0
C14 C 0.22921 0.23154 0.26464 0.0
C15 C 0.26855 0.26452 0.24923 0.0
C16 C 0.31479 0.24536 0.24515 0.0
C17 C 0.3487 0.27178 0.2197 0.0
C18 C 0.33752 0.3185 0.20213 0.0
C19 C 0.29035 0.33589 0.19678 0.0
C20 C 0.25615 0.3096 0.22283 0.0
H21 H 0.89379 0.24949 0.30012 0.0
H22 H 0.77451 0.15619 0.31526 0.0
H23 H 0.89063 0.18397 0.47928 0.0
H24 H 0.83659 0.22158 0.20294 0.0
H25 H 0.79853 0.17141 0.20677 0.0
H26 H 0.80594 0.3039 0.21193 0.0
H27 H 0.65261 0.31241 0.14319 0.0
H28 H 0.71138 0.18324 0.21758 0.0
C29 C 0.87478 0.22888 0.32982 0.0
C30 C 0.89784 0.22012 0.39384 0.0
C31 C 0.82893 0.20732 0.30201 0.0
C32 C 0.80738 0.17579 0.33854 0.0
C33 C 0.83032 0.16618 0.40216 0.0
C34 C 0.8735 0.19093 0.43007 0.0
C35 C 0.80826 0.20896 0.22913 0.0
C36 C 0.76371 0.24023 0.21461 0.0
C37 C 0.76957 0.28917 0.20319 0.0
C38 C 0.72949 0.31724 0.17809 0.0
C39 C 0.68393 0.29393 0.16477 0.0
C40 C 0.67605 0.24703 0.18117 0.0
C41 C 0.71644 0.21983 0.20567 0.0
H42 H 0.80296 0.74051 0.32724 0.0
H43 H 0.70352 0.83661 0.40412 0.0
H44 H 0.83912 0.89229 0.3817 0.0
H45 H 0.72812 0.71675 0.38259 0.0
H46 H 0.67824 0.75611 0.36768 0.0
H47 H 0.74523 0.65941 0.2972 0.0
H48 H 0.65595 0.65406 0.10406 0.0
H49 H 0.63958 0.76867 0.25327 0.0
C50 C 0.79498 0.77707 0.34326 0.0
C51 C 0.83104 0.81403 0.35466 0.0
C52 C 0.74778 0.78584 0.35609 0.0
C53 C 0.73721 0.83164 0.3858 0.0
C54 C 0.7713 0.86981 0.3961 0.0
C55 C 0.81538 0.86143 0.37365 0.0
C56 C 0.71174 0.74402 0.34948 0.0
C57 C 0.69796 0.71985 0.27937 0.0
C58 C 0.71951 0.67581 0.26065 0.0
C59 C 0.70483 0.65095 0.19772 0.0
C60 C 0.66802 0.67234 0.15291 0.0
C61 C 0.64335 0.71473 0.17179 0.0
C62 C 0.65932 0.73814 0.23546 0.0
H63 H 0.11795 0.75289 0.23132 0.0
H64 H 0.24428 0.84143 0.23549 0.0
H65 H 0.1892 0.82819 0.41336 0.0
H66 H 0.14996 0.75625 0.1318 0.0
H67 H 0.18888 0.80664 0.12939 0.0
H68 H 0.1848 0.67629 0.1534 0.0
H69 H 0.32891 0.65277 0.1128 0.0
H70 H 0.27733 0.79687 0.14069 0.0
C71 C 0.14841 0.77412 0.2593 0.0
C72 C 0.14856 0.79058 0.32583 0.0
C73 C 0.1859 0.78894 0.22763 0.0
C74 C 0.22028 0.82363 0.26172 0.0
C75 C 0.22048 0.83834 0.32839 0.0
C76 C 0.18883 0.81614 0.36165 0.0
C77 C 0.18516 0.77389 0.15537 0.0
C78 C 0.22608 0.73986 0.14607 0.0
C79 C 0.21886 0.68951 0.14442 0.0
C80 C 0.25559 0.65718 0.13239 0.0
C81 C 0.3004 0.67659 0.12438 0.0
C82 C 0.30926 0.72647 0.12922 0.0
C83 C 0.27152 0.75814 0.139 0.0
H84 H 0.34521 0.78065 0.75549 0.0
H85 H 0.23651 0.67819 0.77804 0.0
H86 H 0.34344 0.73267 0.94418 0.0
H87 H 0.29405 0.73636 0.66132 0.0
H88 H 0.2442 0.70058 0.67051 0.0
H89 H 0.2858 0.82699 0.66045 0.0
H90 H 0.14363 0.86234 0.562 0.0
H91 H 0.16487 0.73553 0.66663 0.0
C92 C 0.32676 0.76199 0.78789 0.0
C93 C 0.35034 0.75732 0.85262 0.0
C94 C 0.28258 0.73708 0.76215 0.0
C95 C 0.26561 0.70302 0.80104 0.0
C96 C 0.28929 0.69836 0.867 0.0
C97 C 0.32625 0.73249 0.89362 0.0
C98 C 0.26298 0.73595 0.68805 0.0
C99 C 0.22911 0.77687 0.66513 0.0
C100 C 0.24733 0.82145 0.64974 0.0
C101 C 0.21621 0.85615 0.61809 0.0
C102 C 0.16745 0.84023 0.59368 0.0
C103 C 0.14768 0.79692 0.61042 0.0
C104 C 0.17891 0.76709 0.64928 0.0
H105 H 0.35515 0.24554 0.93418 0.0
H106 H 0.24896 0.35183 0.88956 0.0
H107 H 0.39806 0.38376 0.8847 0.0
H108 H 0.27156 0.22687 0.93047 0.0
H109 H 0.23038 0.27602 0.9316 0.0
H110 H 0.28619 0.18587 0.82269 0.0
H111 H 0.17117 0.1924 0.65739 0.0
H112 H 0.17146 0.28906 0.83278 0.0
C113 C 0.34697 0.28134 0.91906 0.0
C114 C 0.38469 0.31458 0.9176 0.0
C115 C 0.29809 0.29437 0.90351 0.0
C116 C 0.2865 0.34236 0.89278 0.0
C117 C 0.3224 0.37746 0.89102 0.0
C118 C 0.37092 0.3609 0.89676 0.0
C119 C 0.25757 0.25859 0.90413 0.0
C120 C 0.23309 0.24133 0.83445 0.0
C121 C 0.25337 0.2027 0.79975 0.0
C122 C 0.23081 0.18522 0.73604 0.0
C123 C 0.18885 0.20721 0.70612 0.0
C124 C 0.1663 0.24403 0.74048 0.0
C125 C 0.18909 0.26172 0.8047 0.0
H126 H 0.67474 0.25604 0.85194 0.0
H127 H 0.78726 0.35868 0.84453 0.0
H128 H 0.72729 0.35645 0.02049 0.0
H129 H 0.69025 0.27775 0.74884 0.0
H130 H 0.7326 0.32398 0.74554 0.0
H131 H 0.71202 0.19226 0.7348 0.0
H132 H 0.83321 0.16664 0.63524 0.0
H133 H 0.82033 0.30424 0.74385 0.0
C134 C 0.70147 0.28262 0.87756 0.0
C135 C 0.69744 0.30323 0.94142 0.0
C136 C 0.73562 0.30077 0.84291 0.0
C137 C 0.76607 0.33996 0.87369 0.0
C138 C 0.76203 0.36099 0.93716 0.0
C139 C 0.73099 0.3393 0.97246 0.0
C140 C 0.72837 0.28978 0.76819 0.0
C141 C 0.76204 0.25265 0.74232 0.0
C142 C 0.74507 0.2047 0.72121 0.0
C143 C 0.7704 0.17348 0.6819 0.0
C144 C 0.81357 0.19027 0.66594 0.0
C145 C 0.83299 0.23613 0.69047 0.0
C146 C 0.80707 0.26754 0.72854 0.0
H147 H 0.77775 0.66338 0.80161 0.0
H148 H 0.6426 0.73777 0.75074 0.0
H149 H 0.68276 0.68934 0.94255 0.0
H150 H 0.74126 0.67307 0.68503 0.0
H151 H 0.69015 0.71129 0.66556 0.0
H152 H 0.81482 0.70773 0.66921 0.0
H153 H 0.83279 0.86167 0.6776 0.0
H154 H 0.70229 0.8019 0.71976 0.0
C155 C 0.74534 0.67944 0.81555 0.0
C156 C 0.73486 0.67449 0.87836 0.0
C157 C 0.71288 0.7035 0.76968 0.0
C158 C 0.66902 0.72141 0.78667 0.0
C159 C 0.65887 0.71619 0.84963 0.0
C160 C 0.6925 0.69458 0.89515 0.0
C161 C 0.72401 0.70709 0.70167 0.0
C162 C 0.757 0.74997 0.70177 0.0
C163 C 0.80265 0.74378 0.68286 0.0
C164 C 0.83053 0.78418 0.67527 0.0
C165 C 0.81324 0.83074 0.68892 0.0
C166 C 0.76671 0.83727 0.70398 0.0
C167 C 0.73922 0.79693 0.71179 0.0
C168 C 0.09423 0.29779 0.68994 0.0
C169 C 0.11032 0.3437 0.71673 0.0
C170 C 0.08089 0.37571 0.68182 0.0
C171 C 0.04861 0.34754 0.63558 0.0
N172 N 0.05569 0.29997 0.63996 0.0
Co173 Co 0.02363 0.2463 0.5769 0.0
N174 N 0.99564 0.29079 0.5095 0.0
C175 C 0.99376 0.33932 0.52068 0.0
C176 C 0.96695 0.36029 0.46864 0.0
C177 C 0.94981 0.32252 0.42243 0.0
C178 C 0.96762 0.28053 0.44849 0.0
N179 N 0.99462 0.1914 0.51367 0.0
C180 C 0.97841 0.19113 0.44803 0.0
C181 C 0.97131 0.14397 0.41835 0.0
C182 C 0.98112 0.11398 0.46785 0.0
C183 C 0.99411 0.14433 0.52463 0.0
N184 N 0.04907 0.2014 0.64396 0.0
C185 C 0.03429 0.15538 0.64532 0.0
C186 C 0.05677 0.13466 0.70029 0.0
C187 C 0.08781 0.16971 0.73539 0.0
C188 C 0.08258 0.20966 0.69931 0.0
N189 N 0.96404 0.2531 0.61666 0.0
C190 C 0.87807 0.25094 0.66912 0.0
C191 C 0.92338 0.25136 0.71066 0.0
C192 C 0.96595 0.25333 0.68354 0.0
C193 C 0.87674 0.25545 0.6024 0.0
C194 C 0.91965 0.25686 0.57767 0.0
N195 N 0.08311 0.24049 0.53796 0.0
C196 C 0.14863 0.19183 0.50954 0.0
C197 C 0.16683 0.22926 0.47886 0.0
C198 C 0.14254 0.27351 0.48103 0.0
C199 C 0.10156 0.27863 0.51188 0.0
C200 C 0.10674 0.19756 0.53663 0.0
H201 H 0.08479 0.3135 0.51382 0.0
H202 H 0.09365 0.16673 0.5564 0.0
H203 H 1.00025 0.25352 0.71668 0.0
H204 H 0.91583 0.25957 0.52638 0.0
C205 C 0.01843 0.36347 0.58011 0.0
C206 C 0.11406 0.25243 0.71434 0.0
C207 C 0.95086 0.2314 0.41987 0.0
C208 C 0.00945 0.12986 0.58782 0.0
H209 H 0.14033 0.35293 0.75664 0.0
H210 H 0.08451 0.41479 0.6871 0.0
H211 H 0.9597 0.39839 0.46529 0.0
H212 H 0.92545 0.32531 0.37614 0.0
H213 H 0.95527 0.13293 0.36752 0.0
H214 H 0.97787 0.07488 0.46316 0.0
H215 H 0.05388 0.09742 0.71091 0.0
H216 H 0.11343 0.1656 0.78024 0.0
H217 H 0.92593 0.24785 0.76288 0.0
H218 H 0.84244 0.2553 0.56856 0.0
H219 H 0.16554 0.15712 0.51169 0.0
H220 H 0.15506 0.30411 0.45948 0.0
C221 C 0.71138 0.10245 0.62296 0.0
C222 C 0.66765 0.12634 0.61845 0.0
C223 C 0.63397 0.09688 0.57672 0.0
C224 C 0.65885 0.05682 0.55764 0.0
N225 N 0.7061 0.05911 0.58521 0.0
Co226 Co 0.75623 0.01153 0.56527 0.0
N227 N 0.71355 0.98048 0.48385 0.0
C228 C 0.66622 0.98989 0.46486 0.0
C229 C 0.64576 0.9638 0.40686 0.0
C230 C 0.68203 0.93521 0.38877 0.0
C231 C 0.72267 0.94477 0.43744 0.0
N232 N 0.80641 0.96302 0.54872 0.0
C233 C 0.80519 0.9254 0.50125 0.0
C234 C 0.84368 0.89468 0.51794 0.0
C235 C 0.87 0.91315 0.57634 0.0
C236 C 0.84624 0.95394 0.59318 0.0
N237 N 0.80025 0.04381 0.64409 0.0
C238 C 0.84176 0.02635 0.676 0.0
C239 C 0.86286 0.05533 0.731 0.0
C240 C 0.83295 0.09406 0.7339 0.0
C241 C 0.79554 0.08626 0.68001 0.0
N242 N 0.73227 0.9654 0.62056 0.0
C243 C 0.74215 0.8822 0.68615 0.0
C244 C 0.75659 0.92698 0.7206 0.0
C245 C 0.74836 0.96882 0.68756 0.0
C246 C 0.71374 0.88121 0.62355 0.0
C247 C 0.70916 0.92318 0.59156 0.0
N248 N 0.77967 0.05691 0.51012 0.0
C249 C 0.84513 0.09874 0.47746 0.0
C250 C 0.81246 0.12736 0.43805 0.0
C251 C 0.76299 0.1184 0.43397 0.0
C252 C 0.74749 0.08301 0.46974 0.0
C253 C 0.82811 0.06426 0.51332 0.0
H254 H 0.70918 0.07773 0.4652 0.0
H255 H 0.85418 0.04395 0.54424 0.0
H256 H 0.75938 1.00289 0.71542 0.0
H257 H 0.69049 0.91886 0.54158 0.0
C258 C 0.64264 0.02376 0.50252 0.0
C259 C 0.75742 0.12103 0.66335 0.0
C260 C 0.76675 0.91494 0.44259 0.0
C261 C 0.86054 0.98388 0.65108 0.0
H262 H 0.66075 0.16177 0.64106 0.0
H263 H 0.59663 0.10547 0.55854 0.0
H264 H 0.60869 0.96493 0.38116 0.0
H265 H 0.67829 0.90895 0.34595 0.0
H266 H 0.8515 0.86118 0.49233 0.0
H267 H 0.90173 0.89772 0.6043 0.0
H268 H 0.89631 0.04943 0.76424 0.0
H269 H 0.83826 0.12491 0.77076 0.0
H270 H 0.777 0.92929 0.77047 0.0
H271 H 0.70058 0.84717 0.59606 0.0
H272 H 0.8838 0.10272 0.48091 0.0
H273 H 0.73619 0.13923 0.40451 0.0
C274 C 0.06141 0.82834 0.59942 0.0
C275 C 0.07049 0.86626 0.64859 0.0
C276 C 0.03745 0.90136 0.63073 0.0
C277 C 0.00913 0.88182 0.57313 0.0
N278 N 0.02156 0.83633 0.55514 0.0
Co279 Co 0.98217 0.79 0.4883 0.0
N280 N 0.94625 0.8437 0.4458 0.0
C281 C 0.95386 0.8913 0.4641 0.0
C282 C 0.9393 0.91927 0.41297 0.0
C283 C 0.9199 0.88717 0.36007 0.0
C284 C 0.92114 0.84187 0.38348 0.0
N285 N 0.94039 0.74451 0.42121 0.0
C286 C 0.90579 0.75396 0.36858 0.0
C287 C 0.88857 0.71106 0.33223 0.0
C288 C 0.90939 0.67393 0.36661 0.0
C289 C 0.93954 0.69603 0.421 0.0
N290 N 0.02126 0.73762 0.53016 0.0
C291 C 0.01083 0.68996 0.51829 0.0
C292 C 0.04877 0.6623 0.54464 0.0
C293 C 0.08523 0.69449 0.57417 0.0
C294 C 0.06761 0.74062 0.56512 0.0
N295 N 0.93542 0.78532 0.54884 0.0
C296 C 0.86804 0.77904 0.63332 0.0
C297 C 0.85307 0.77626 0.56517 0.0
C298 C 0.88702 0.7796 0.52426 0.0
C299 C 0.91757 0.78314 0.65898 0.0
C300 C 0.95077 0.78495 0.61567 0.0
N301 N 0.02915 0.79214 0.42859 0.0
C302 C 0.07811 0.74903 0.35736 0.0
C303 C 0.10437 0.79113 0.35584 0.0
C304 C 0.09043 0.83444 0.38813 0.0
C305 C 0.05306 0.83413 0.42437 0.0
C306 C 0.04085 0.7503 0.39408 0.0
H307 H 0.04485 0.86756 0.45071 0.0
H308 H 0.0233 0.71653 0.39628 0.0
H309 H 0.87307 0.77943 0.47293 0.0
H310 H 0.98874 0.7863 0.63666 0.0
C311 C 0.97922 0.90756 0.52715 0.0
C312 C 0.09326 0.7873 0.59224 0.0
C313 C 0.88545 0.80294 0.35742 0.0
C314 C 0.97194 0.67311 0.46828 0.0
H315 H 0.09922 0.86864 0.69129 0.0
H316 H 0.03615 0.93761 0.65475 0.0
H317 H 0.94208 0.95826 0.41404 0.0
H318 H 0.90072 0.89676 0.31294 0.0
H319 H 0.86352 0.7071 0.28582 0.0
H320 H 0.90402 0.63547 0.35263 0.0
H321 H 0.0513 0.62325 0.53839 0.0
H322 H 0.12075 0.68416 0.59731 0.0
H323 H 0.81489 0.77386 0.54358 0.0
H324 H 0.93044 0.7854 0.71178 0.0
H325 H 0.08772 0.71496 0.33313 0.0
H326 H 0.10935 0.86827 0.38723 0.0
C327 C 0.28139 0.93012 0.61669 0.0
C328 C 0.32216 0.91674 0.65971 0.0
C329 C 0.35963 0.94695 0.65373 0.0
C330 C 0.33989 0.97856 0.60958 0.0
N331 N 0.29231 0.97043 0.58804 0.0
Co332 Co 0.25002 0.01314 0.5306 0.0
N333 N 0.30514 0.04296 0.49839 0.0
C334 C 0.3519 0.04004 0.5269 0.0
C335 C 0.38197 0.06869 0.50048 0.0
C336 C 0.35211 0.09193 0.45332 0.0
C337 C 0.30533 0.07608 0.45322 0.0
N338 N 0.20618 0.05486 0.47403 0.0
C339 C 0.21445 0.07822 0.42241 0.0
C340 C 0.17129 0.0948 0.38802 0.0
C341 C 0.13542 0.08362 0.4214 0.0
C342 C 0.15847 0.06082 0.47405 0.0
N343 N 0.19463 0.98346 0.56107 0.0
C344 C 0.15172 0.00494 0.56255 0.0
C345 C 0.12529 0.98495 0.60316 0.0
C346 C 0.15315 0.94801 0.62781 0.0
C347 C 0.19357 0.94563 0.59789 0.0
N348 N 0.25595 0.0645 0.60553 0.0
C349 C 0.24851 0.14263 0.69955 0.0
C350 C 0.23737 0.09545 0.71139 0.0
C351 C 0.24245 0.05665 0.6643 0.0
C352 C 0.2681 0.14925 0.64394 0.0
C353 C 0.27213 0.10988 0.59848 0.0
N354 N 0.24533 0.96306 0.45689 0.0
C355 C 0.19857 0.92048 0.36058 0.0
C356 C 0.23588 0.88731 0.35718 0.0
C357 C 0.27994 0.89554 0.40014 0.0
C358 C 0.28447 0.93503 0.44829 0.0
C359 C 0.20297 0.9561 0.41297 0.0
H360 H 0.31886 0.94104 0.48072 0.0
H361 H 0.17109 0.97607 0.41938 0.0
H362 H 0.23367 0.02082 0.67475 0.0
H363 H 0.28692 0.11754 0.55682 0.0
C364 C 0.36529 0.01135 0.5797 0.0
C365 C 0.23144 0.90873 0.60902 0.0
C366 C 0.26173 0.09941 0.41861 0.0
C367 C 0.13588 0.04018 0.52003 0.0
H368 H 0.32503 0.89057 0.69536 0.0
H369 H 0.39691 0.94575 0.67859 0.0
H370 H 0.42076 0.07354 0.51535 0.0
H371 H 0.36303 0.11932 0.42472 0.0
H372 H 0.16702 0.11667 0.34676 0.0
H373 H 0.0974 0.09228 0.40974 0.0
H374 H 0.09031 0.9961 0.61386 0.0
H375 H 0.14588 0.92613 0.66522 0.0
H376 H 0.22243 0.08894 0.75466 0.0
H377 H 0.27769 0.18521 0.6336 0.0
H378 H 0.16357 0.91442 0.32873 0.0
H379 H 0.30924 0.87012 0.39942 0.0
C380 C 0.58042 0.7782 0.11633 0.0
C381 C 0.60533 0.82 0.14598 0.0
C382 C 0.57825 0.85837 0.12397 0.0
C383 C 0.53869 0.83836 0.08109 0.0
N384 N 0.53901 0.78958 0.07494 0.0
Co385 Co 0.49358 0.74667 0.00854 0.0
N386 N 0.4669 0.80154 0.95739 0.0
C387 C 0.47495 0.84892 0.97719 0.0
C388 C 0.44761 0.8786 0.93593 0.0
C389 C 0.41967 0.84799 0.88788 0.0
C390 C 0.4319 0.80133 0.9023 0.0
N391 N 0.45014 0.70239 0.94288 0.0
C392 C 0.42595 0.71103 0.88271 0.0
C393 C 0.40712 0.66822 0.84687 0.0
C394 C 0.41794 0.63204 0.88755 0.0
C395 C 0.44303 0.65463 0.94545 0.0
N396 N 0.52056 0.69146 0.05766 0.0
C397 C 0.4983 0.64815 0.05538 0.0
C398 C 0.51738 0.62196 0.10654 0.0
C399 C 0.55533 0.64969 0.14163 0.0
C400 C 0.55815 0.69047 0.10873 0.0
N401 N 0.44148 0.75546 0.06398 0.0
C402 C 0.35665 0.74394 0.11675 0.0
C403 C 0.4005 0.72395 0.14498 0.0
C404 C 0.44279 0.73196 0.11978 0.0
C405 C 0.35803 0.77606 0.0695 0.0
C406 C 0.4004 0.78132 0.04404 0.0
N407 N 0.54324 0.73848 0.95267 0.0
C408 C 0.58482 0.68677 0.8817 0.0
C409 C 0.61167 0.72626 0.8693 0.0
C410 C 0.60237 0.77229 0.89726 0.0
C411 C 0.56771 0.77768 0.93833 0.0
C412 C 0.55173 0.69347 0.92442 0.0
H413 H 0.56211 0.81348 0.95994 0.0
H414 H 0.53424 0.66181 0.93597 0.0
H415 H 0.47566 0.71729 0.14459 0.0
H416 H 0.39705 0.80449 0.00545 0.0
C417 C 0.50749 0.86351 0.03546 0.0
C418 C 0.59578 0.72819 0.12939 0.0
C419 C 0.40467 0.75808 0.86944 0.0
C420 C 0.46285 0.63196 1.00143 0.0
H421 H 0.64017 0.82299 0.17828 0.0
H422 H 0.58822 0.89636 0.13422 0.0
H423 H 0.44683 0.91777 0.94135 0.0
H424 H 0.39198 0.85853 0.84848 0.0
H425 H 0.38352 0.66459 0.79913 0.0
H426 H 0.40733 0.59422 0.87701 0.0
H427 H 0.50531 0.58694 0.11692 0.0
H428 H 0.57746 0.64209 0.18763 0.0
H429 H 0.40178 0.70088 0.18468 0.0
H430 H 0.32542 0.7937 0.04758 0.0
H431 H 0.59265 0.65025 0.86324 0.0
H432 H 0.62391 0.80333 0.89108 0.0
C433 C 0.20884 0.57544 0.0883 0.0
C434 C 0.16013 0.5828 0.08982 0.0
C435 C 0.13489 0.54806 0.0449 0.0
C436 C 0.16941 0.52099 0.01921 0.0
N437 N 0.21465 0.53613 0.04608 0.0
Co438 Co 0.27554 0.5106 0.02087 0.0
N439 N 0.24071 0.47296 0.93901 0.0
C440 C 0.19236 0.46694 0.92173 0.0
C441 C 0.17869 0.44099 0.86125 0.0
C442 C 0.22116 0.4284 0.84015 0.0
C443 C 0.25847 0.44641 0.88985 0.0
N444 N 0.3372 0.48791 0.99413 0.0
C445 C 0.34388 0.46716 0.93444 0.0
C446 C 0.39079 0.47489 0.92523 0.0
C447 C 0.4156 0.49647 0.98414 0.0
C448 C 0.38206 0.50167 0.02506 0.0
N449 N 0.31096 0.54502 0.1038 0.0
C450 C 0.35772 0.53973 0.13095 0.0
C451 C 0.36993 0.56483 0.1923 0.0
C452 C 0.32831 0.58761 0.20381 0.0
C453 C 0.29339 0.57546 0.14817 0.0
N454 N 0.27172 0.45367 0.07201 0.0
C455 C 0.27726 0.37526 0.15174 0.0
C456 C 0.29121 0.37054 0.08951 0.0
C457 C 0.28874 0.40982 0.05152 0.0
C458 C 0.25762 0.41954 0.17159 0.0
C459 C 0.25499 0.45809 0.13099 0.0
N460 N 0.27833 0.56878 0.97129 0.0
C461 C 0.32025 0.64152 0.95572 0.0
C462 C 0.2831 0.65446 0.90486 0.0
C463 C 0.24264 0.62285 0.88951 0.0
C464 C 0.24074 0.581 0.92352 0.0
C465 C 0.31758 0.59925 0.98676 0.0
H466 H 0.20838 0.55899 0.91089 0.0
H467 H 0.34767 0.59199 0.02418 0.0
H468 H 0.30274 0.40499 0.00705 0.0
H469 H 0.24117 0.49204 0.14909 0.0
C470 C 0.16123 0.48858 0.96187 0.0
C471 C 0.24968 0.60316 0.12999 0.0
C472 C 0.30956 0.43149 0.89405 0.0
C473 C 0.3904 0.52165 0.09104 0.0
H474 H 0.144 0.60957 0.12023 0.0
H475 H 0.09594 0.54451 0.03055 0.0
H476 H 0.14224 0.43181 0.83587 0.0
H477 H 0.22455 0.40558 0.79577 0.0
H478 H 0.40621 0.46358 0.88196 0.0
H479 H 0.45372 0.50618 0.99601 0.0
H480 H 0.4057 0.5698 0.22218 0.0
H481 H 0.32528 0.61424 0.24462 0.0
H482 H 0.3064 0.33703 0.07137 0.0
H483 H 0.24659 0.42518 0.2193 0.0
H484 H 0.3528 0.6628 0.97222 0.0
H485 H 0.21216 0.63029 0.852 0.0
C486 C 0.4643 0.33598 1.00025 0.0
C487 C 0.45916 0.38569 0.00587 0.0
C488 C 0.47473 0.40255 0.07024 0.0
C489 C 0.49109 0.36255 0.10044 0.0
N490 N 0.48826 0.32196 0.05814 0.0
Co491 Co 0.52022 0.25979 0.07746 0.0
N492 N 0.5567 0.28913 0.16332 0.0
C493 C 0.54667 0.33046 0.19721 0.0
C494 C 0.57616 0.33886 0.2579 0.0
C495 C 0.60685 0.30025 0.26216 0.0
C496 C 0.59398 0.27074 0.20368 0.0
N497 N 0.55312 0.19833 0.09906 0.0
C498 C 0.59745 0.19287 0.13692 0.0
C499 C 0.61129 0.145 0.1324 0.0
C500 C 0.57458 0.11998 0.08897 0.0
C501 C 0.54023 0.15387 0.06962 0.0
N502 N 0.48373 0.23073 0.99095 0.0
C503 C 0.47998 0.18291 0.97163 0.0
C504 C 0.45196 0.1729 0.91018 0.0
C505 C 0.43608 0.21701 0.8904 0.0
C506 C 0.45476 0.25182 0.94126 0.0
N507 N 0.5737 0.27532 0.03159 0.0
C508 C 0.65392 0.29353 0.97144 0.0
C509 C 0.6338 0.24708 0.9663 0.0
C510 C 0.59349 0.23904 0.99529 0.0
C511 C 0.63087 0.3313 0.00393 0.0
C512 C 0.59147 0.32142 0.03433 0.0
N513 N 0.46628 0.24341 0.12232 0.0
C514 C 0.38027 0.24346 0.12027 0.0
C515 C 0.38757 0.24791 0.1891 0.0
C516 C 0.43456 0.24285 0.22382 0.0
C517 C 0.47335 0.23839 0.18884 0.0
C518 C 0.41974 0.24286 0.08831 0.0
H519 H 0.50916 0.23449 0.21671 0.0
H520 H 0.41152 0.24594 0.03666 0.0
H521 H 0.57899 0.20286 0.98851 0.0
H522 H 0.57653 0.35095 0.06159 0.0
C523 C 0.51622 0.36376 0.16527 0.0
C524 C 0.43734 0.30265 0.94583 0.0
C525 C 0.62436 0.23244 0.18089 0.0
C526 C 0.50533 0.14907 0.0112 0.0
H527 H 0.44859 0.40812 0.96713 0.0
H528 H 0.47693 0.43988 0.09138 0.0
H529 H 0.57759 0.3708 0.29264 0.0
H530 H 0.63743 0.29596 0.30113 0.0
H531 H 0.64452 0.13 0.15692 0.0
H532 H 0.57494 0.08233 0.06972 0.0
H533 H 0.44356 0.1377 0.88318 0.0
H534 H 0.41132 0.22276 0.8454 0.0
H535 H 0.64925 0.21683 0.94047 0.0
H536 H 0.64319 0.36844 0.00614 0.0
H537 H 0.34433 0.24702 0.09153 0.0
H538 H 0.44166 0.24554 0.27727 0.0
C539 C 0.68562 0.56538 0.14245 0.0
C540 C 0.63759 0.56565 0.14961 0.0
C541 C 0.61119 0.54943 0.08922 0.0
C542 C 0.64481 0.53892 0.04956 0.0
N543 N 0.69068 0.54471 0.08249 0.0
Co544 Co 0.74952 0.51371 0.05759 0.0
N545 N 0.71013 0.47796 0.9781 0.0
C546 C 0.66425 0.48718 0.95034 0.0
C547 C 0.64802 0.45836 0.893 0.0
C548 C 0.68592 0.4289 0.8842 0.0
C549 C 0.72297 0.44145 0.93721 0.0
N550 N 0.80757 0.48142 0.03162 0.0
C551 C 0.80988 0.4396 0.99237 0.0
C552 C 0.8574 0.42649 0.99189 0.0
C553 C 0.8858 0.46146 0.03285 0.0
C554 C 0.85397 0.49389 0.05583 0.0
N555 N 0.7879 0.55157 0.13723 0.0
C556 C 0.83653 0.55622 0.14954 0.0
C557 C 0.85317 0.58989 0.2017 0.0
C558 C 0.81251 0.60861 0.22256 0.0
C559 C 0.77292 0.58517 0.18231 0.0
N560 N 0.74213 0.45953 0.1105 0.0
C561 C 0.73412 0.36938 0.16219 0.0
C562 C 0.77927 0.39275 0.16713 0.0
C563 C 0.78218 0.43813 0.14327 0.0
C564 C 0.69302 0.39664 0.13871 0.0
C565 C 0.6978 0.4396 0.11034 0.0
N566 N 0.75901 0.56644 0.0042 0.0
C567 C 0.7628 0.65119 0.99082 0.0
C568 C 0.76056 0.6406 0.92291 0.0
C569 C 0.76642 0.59258 0.89866 0.0
C570 C 0.76694 0.5561 0.94087 0.0
C571 C 0.75881 0.61375 0.02941 0.0
H572 H 0.77066 0.51939 0.92071 0.0
H573 H 0.75258 0.62396 0.07804 0.0
H574 H 0.81749 0.45447 0.14855 0.0
H575 H 0.66529 0.45529 0.08627 0.0
C576 C 0.63478 0.51498 0.98623 0.0
C577 C 0.72156 0.59941 0.18135 0.0
C578 C 0.76751 0.41437 0.95156 0.0
C579 C 0.86497 0.52949 0.10958 0.0
H580 H 0.6237 0.57841 0.19348 0.0
H581 H 0.57245 0.54376 0.07632 0.0
H582 H 0.61196 0.45665 0.8636 0.0
H583 H 0.68551 0.40001 0.84509 0.0
H584 H 0.86997 0.39509 0.96487 0.0
H585 H 0.92485 0.46168 0.04688 0.0
H586 H 0.89038 0.60083 0.22094 0.0
H587 H 0.81246 0.63735 0.26139 0.0
H588 H 0.8128 0.37652 0.18786 0.0
H589 H 0.65644 0.38529 0.13887 0.0
H590 H 0.75961 0.68812 0.01188 0.0
H591 H 0.76573 0.58268 0.84654 0.0
loop_
_geom_bond_atom_site_label_1
_geom_bond_atom_site_label_2
_geom_bond_distance
_geom_bond_site_symmetry_2
_ccdc_geom_bond_type
H0 C8 0.930 . S
H1 C11 0.930 . S
H2 C13 0.930 . S
H3 C14 0.970 . S
H4 C14 0.970 . S
H5 C16 0.930 . S
H6 C18 0.930 . S
H7 C20 0.930 . S
C8 H0 0.930 . S
C8 C9 1.382 . S
C8 C10 1.426 . S
C9 C8 1.382 . S
C9 C13 1.389 . S
C10 C8 1.426 . S
C10 C11 1.375 . S
C10 C14 1.532 . S
C11 H1 0.930 . S
C11 C10 1.375 . S
C11 C12 1.416 . S
C12 C11 1.416 . S
C12 C13 1.371 . S
C13 H2 0.930 . S
C13 C9 1.389 . S
C13 C12 1.371 . S
C14 H3 0.970 . S
C14 H4 0.970 . S
C14 C10 1.532 . S
C14 C15 1.499 . S
C15 C14 1.499 . S
C15 C16 1.370 . S
C15 C20 1.415 . S
C16 H5 0.930 . S
C16 C15 1.370 . S
C16 C17 1.407 . S
C17 C16 1.407 . S
C17 C18 1.365 . S
C18 H6 0.930 . S
C18 C17 1.365 . S
C18 C19 1.393 . S
C19 C18 1.393 . S
C19 C20 1.387 . S
C20 H7 0.930 . S
C20 C15 1.415 . S
C20 C19 1.387 . S
H21 C29 0.930 . S
H22 C32 0.930 . S
H23 C34 0.930 . S
H24 C35 0.970 . S
H25 C35 0.970 . S
H26 C37 0.930 . S
H27 C39 0.930 . S
H28 C41 0.930 . S
C29 H21 0.930 . S
C29 C30 1.382 . S
C29 C31 1.426 . S
C30 C29 1.382 . S
C30 C34 1.389 . S
C31 C29 1.426 . S
C31 C32 1.375 . S
C31 C35 1.532 . S
C32 H22 0.930 . S
C32 C31 1.375 . S
C32 C33 1.416 . S
C33 C32 1.416 . S
C33 C34 1.371 . S
C34 H23 0.930 . S
C34 C30 1.389 . S
C34 C33 1.371 . S
C35 H24 0.970 . S
C35 H25 0.970 . S
C35 C31 1.532 . S
C35 C36 1.499 . S
C36 C35 1.499 . S
C36 C37 1.370 . S
C36 C41 1.415 . S
C37 H26 0.930 . S
C37 C36 1.370 . S
C37 C38 1.407 . S
C38 C37 1.407 . S
C38 C39 1.365 . S
C39 H27 0.930 . S
C39 C38 1.365 . S
C39 C40 1.393 . S
C40 C39 1.393 . S
C40 C41 1.387 . S
C41 H28 0.930 . S
C41 C36 1.415 . S
C41 C40 1.387 . S
H42 C50 0.930 . S
H43 C53 0.930 . S
H44 C55 0.930 . S
H45 C56 0.970 . S
H46 C56 0.970 . S
H47 C58 0.930 . S
H48 C60 0.930 . S
H49 C62 0.930 . S
C50 H42 0.930 . S
C50 C51 1.382 . S
C50 C52 1.426 . S
C51 C50 1.382 . S
C51 C55 1.389 . S
C52 C50 1.426 . S
C52 C53 1.375 . S
C52 C56 1.532 . S
C53 H43 0.930 . S
C53 C52 1.375 . S
C53 C54 1.416 . S
C54 C53 1.416 . S
C54 C55 1.371 . S
C55 H44 0.930 . S
C55 C51 1.389 . S
C55 C54 1.371 . S
C56 H45 0.970 . S
C56 H46 0.970 . S
C56 C52 1.532 . S
C56 C57 1.499 . S
C57 C56 1.499 . S
C57 C58 1.370 . S
C57 C62 1.415 . S
C58 H47 0.930 . S
C58 C57 1.370 . S
C58 C59 1.407 . S
C59 C58 1.407 . S
C59 C60 1.365 . S
C60 H48 0.930 . S
C60 C59 1.365 . S
C60 C61 1.393 . S
C61 C60 1.393 . S
C61 C62 1.387 . S
C62 H49 0.930 . S
C62 C57 1.415 . S
C62 C61 1.387 . S
H63 C71 0.930 . S
H64 C74 0.930 . S
H65 C76 0.930 . S
H66 C77 0.970 . S
H67 C77 0.970 . S
H68 C79 0.930 . S
H69 C81 0.930 . S
H70 C83 0.930 . S
C71 H63 0.930 . S
C71 C72 1.382 . S
C71 C73 1.426 . S
C72 C71 1.382 . S
C72 C76 1.389 . S
C73 C71 1.426 . S
C73 C74 1.375 . S
C73 C77 1.532 . S
C74 H64 0.930 . S
C74 C73 1.375 . S
C74 C75 1.416 . S
C75 C74 1.416 . S
C75 C76 1.371 . S
C76 H65 0.930 . S
C76 C72 1.389 . S
C76 C75 1.371 . S
C77 H66 0.970 . S
C77 H67 0.970 . S
C77 C73 1.532 . S
C77 C78 1.499 . S
C78 C77 1.499 . S
C78 C79 1.370 . S
C78 C83 1.415 . S
C79 H68 0.930 . S
C79 C78 1.370 . S
C79 C80 1.407 . S
C80 C79 1.407 . S
C80 C81 1.365 . S
C81 H69 0.930 . S
C81 C80 1.365 . S
C81 C82 1.393 . S
C82 C81 1.393 . S
C82 C83 1.387 . S
C83 H70 0.930 . S
C83 C78 1.415 . S
C83 C82 1.387 . S
H84 C92 0.930 . S
H85 C95 0.930 . S
H86 C97 0.930 . S
H87 C98 0.970 . S
H88 C98 0.970 . S
H89 C100 0.930 . S
H90 C102 0.930 . S
H91 C104 0.930 . S
C92 H84 0.930 . S
C92 C93 1.382 . S
C92 C94 1.426 . S
C93 C92 1.382 . S
C93 C97 1.389 . S
C94 C92 1.426 . S
C94 C95 1.375 . S
C94 C98 1.532 . S
C95 H85 0.930 . S
C95 C94 1.375 . S
C95 C96 1.416 . S
C96 C95 1.416 . S
C96 C97 1.371 . S
C97 H86 0.930 . S
C97 C93 1.389 . S
C97 C96 1.371 . S
C98 H87 0.970 . S
C98 H88 0.970 . S
C98 C94 1.532 . S
C98 C99 1.499 . S
C99 C98 1.499 . S
C99 C100 1.370 . S
C99 C104 1.415 . S
C100 H89 0.930 . S
C100 C99 1.370 . S
C100 C101 1.407 . S
C101 C100 1.407 . S
C101 C102 1.365 . S
C102 H90 0.930 . S
C102 C101 1.365 . S
C102 C103 1.393 . S
C103 C102 1.393 . S
C103 C104 1.387 . S
C104 H91 0.930 . S
C104 C99 1.415 . S
C104 C103 1.387 . S
H105 C113 0.930 . S
H106 C116 0.930 . S
H107 C118 0.930 . S
H108 C119 0.970 . S
H109 C119 0.970 . S
H110 C121 0.930 . S
H111 C123 0.930 . S
H112 C125 0.930 . S
C113 H105 0.930 . S
C113 C114 1.382 . S
C113 C115 1.426 . S
C114 C113 1.382 . S
C114 C118 1.389 . S
C115 C113 1.426 . S
C115 C116 1.375 . S
C115 C119 1.532 . S
C116 H106 0.930 . S
C116 C115 1.375 . S
C116 C117 1.416 . S
C117 C116 1.416 . S
C117 C118 1.371 . S
C118 H107 0.930 . S
C118 C114 1.389 . S
C118 C117 1.371 . S
C119 H108 0.970 . S
C119 H109 0.970 . S
C119 C115 1.532 . S
C119 C120 1.499 . S
C120 C119 1.499 . S
C120 C121 1.370 . S
C120 C125 1.415 . S
C121 H110 0.930 . S
C121 C120 1.370 . S
C121 C122 1.407 . S
C122 C121 1.407 . S
C122 C123 1.365 . S
C123 H111 0.930 . S
C123 C122 1.365 . S
C123 C124 1.393 . S
C124 C123 1.393 . S
C124 C125 1.387 . S
C125 H112 0.930 . S
C125 C120 1.415 . S
C125 C124 1.387 . S
H126 C134 0.930 . S
H127 C137 0.930 . S
H128 C139 0.930 . S
H129 C140 0.970 . S
H130 C140 0.970 . S
H131 C142 0.930 . S
H132 C144 0.930 . S
H133 C146 0.930 . S
C134 H126 0.930 . S
C134 C135 1.382 . S
C134 C136 1.426 . S
C135 C134 1.382 . S
C135 C139 1.389 . S
C136 C134 1.426 . S
C136 C137 1.375 . S
C136 C140 1.532 . S
C137 H127 0.930 . S
C137 C136 1.375 . S
C137 C138 1.416 . S
C138 C137 1.416 . S
C138 C139 1.371 . S
C139 H128 0.930 . S
C139 C135 1.389 . S
C139 C138 1.371 . S
C140 H129 0.970 . S
C140 H130 0.970 . S
C140 C136 1.532 . S
C140 C141 1.499 . S
C141 C140 1.499 . S
C141 C142 1.370 . S
C141 C146 1.415 . S
C142 H131 0.930 . S
C142 C141 1.370 . S
C142 C143 1.407 . S
C143 C142 1.407 . S
C143 C144 1.365 . S
C144 H132 0.930 . S
C144 C143 1.365 . S
C144 C145 1.393 . S
C145 C144 1.393 . S
C145 C146 1.387 . S
C146 H133 0.930 . S
C146 C141 1.415 . S
C146 C145 1.387 . S
H147 C155 0.930 . S
H148 C158 0.930 . S
H149 C160 0.930 . S
H150 C161 0.970 . S
H151 C161 0.970 . S
H152 C163 0.930 . S
H153 C165 0.930 . S
H154 C167 0.930 . S
C155 H147 0.930 . S
C155 C156 1.382 . S
C155 C157 1.426 . S
C156 C155 1.382 . S
C156 C160 1.389 . S
C157 C155 1.426 . S
C157 C158 1.375 . S
C157 C161 1.532 . S
C158 H148 0.930 . S
C158 C157 1.375 . S
C158 C159 1.416 . S
C159 C158 1.416 . S
C159 C160 1.371 . S
C160 H149 0.930 . S
C160 C156 1.389 . S
C160 C159 1.371 . S
C161 H150 0.970 . S
C161 H151 0.970 . S
C161 C157 1.532 . S
C161 C162 1.499 . S
C162 C161 1.499 . S
C162 C163 1.370 . S
C162 C167 1.415 . S
C163 H152 0.930 . S
C163 C162 1.370 . S
C163 C164 1.407 . S
C164 C163 1.407 . S
C164 C165 1.365 . S
C165 H153 0.930 . S
C165 C164 1.365 . S
C165 C166 1.393 . S
C166 C165 1.393 . S
C166 C167 1.387 . S
C167 H154 0.930 . S
C167 C162 1.415 . S
C167 C166 1.387 . S
C168 C169 1.443 . S
C168 N172 1.376 . S
C168 C206 1.389 . S
C169 C168 1.443 . S
C169 C170 1.340 . S
C169 H209 0.951 . S
C170 C169 1.340 . S
C170 C171 1.439 . S
C170 H210 0.950 . S
C171 C170 1.439 . S
C171 N172 1.374 . S
C171 C205 1.395 . S
N172 C168 1.376 . S
N172 C171 1.374 . S
N172 Co173 2.008 . S
Co173 N172 2.008 . S
Co173 N174 1.995 1_455 S
Co173 N179 2.008 1_455 S
Co173 N184 1.995 . S
Co173 N189 2.282 1_455 S
Co173 N195 2.282 . S
N174 Co173 1.995 1_655 S
N174 C175 1.376 . S
N174 C178 1.383 . S
C175 N174 1.376 . S
C175 C176 1.446 . S
C175 C205 1.391 1_655 S
C176 C175 1.446 . S
C176 C177 1.339 . S
C176 H211 0.949 . S
C177 C176 1.339 . S
C177 C178 1.439 . S
C177 H212 0.950 . S
C178 N174 1.383 . S
C178 C177 1.439 . S
C178 C207 1.392 . S
N179 Co173 2.008 1_655 S
N179 C180 1.376 . S
N179 C183 1.374 . S
C180 N179 1.376 . S
C180 C181 1.443 . S
C180 C207 1.389 . S
C181 C180 1.443 . S
C181 C182 1.340 . S
C181 H213 0.951 . S
C182 C181 1.340 . S
C182 C183 1.439 . S
C182 H214 0.950 . S
C183 N179 1.374 . S
C183 C182 1.439 . S
C183 C208 1.395 1_655 S
N184 Co173 1.995 . S
N184 C185 1.376 . S
N184 C188 1.383 . S
C185 N184 1.376 . S
C185 C186 1.446 . S
C185 C208 1.391 . S
C186 C185 1.446 . S
C186 C187 1.339 . S
C186 H215 0.949 . S
C187 C186 1.339 . S
C187 C188 1.439 . S
C187 H216 0.950 . S
C188 N184 1.383 . S
C188 C187 1.439 . S
C188 C206 1.392 . S
N189 Co173 2.282 1_655 S
N189 C192 1.332 . S
N189 C194 1.332 . S
C190 C191 1.386 . S
C190 C193 1.388 . S
C191 C190 1.386 . S
C191 C192 1.382 . S
C191 H217 0.950 . S
C192 N189 1.332 . S
C192 C191 1.382 . S
C192 H203 0.952 . S
C193 C190 1.388 . S
C193 C194 1.382 . S
C193 H218 0.950 . S
C194 N189 1.332 . S
C194 C193 1.382 . S
C194 H204 0.948 . S
N195 Co173 2.282 . S
N195 C199 1.332 . S
N195 C200 1.332 . S
C196 C197 1.388 . S
C196 C200 1.382 . S
C196 H219 0.950 . S
C197 C196 1.388 . S
C197 C198 1.386 . S
C198 C197 1.386 . S
C198 C199 1.382 . S
C198 H220 0.950 . S
C199 N195 1.332 . S
C199 C198 1.382 . S
C199 H201 0.952 . S
C200 N195 1.332 . S
C200 C196 1.382 . S
C200 H202 0.948 . S
H201 C199 0.952 . S
H202 C200 0.948 . S
H203 C192 0.952 . S
H204 C194 0.948 . S
C205 C171 1.395 . S
C205 C175 1.391 1_455 S
C206 C168 1.389 . S
C206 C188 1.392 . S
C207 C178 1.392 . S
C207 C180 1.389 . S
C208 C183 1.395 1_455 S
C208 C185 1.391 . S
H209 C169 0.951 . S
H210 C170 0.950 . S
H211 C176 0.949 . S
H212 C177 0.950 . S
H213 C181 0.951 . S
H214 C182 0.950 . S
H215 C186 0.949 . S
H216 C187 0.950 . S
H217 C191 0.950 . S
H218 C193 0.950 . S
H219 C196 0.950 . S
H220 C198 0.950 . S
C221 C222 1.443 . S
C221 N225 1.376 . S
C221 C259 1.389 . S
C222 C221 1.443 . S
C222 C223 1.340 . S
C222 H262 0.951 . S
C223 C222 1.340 . S
C223 C224 1.439 . S
C223 H263 0.950 . S
C224 C223 1.439 . S
C224 N225 1.374 . S
C224 C258 1.395 . S
N225 C221 1.376 . S
N225 C224 1.374 . S
N225 Co226 2.008 . S
Co226 N225 2.008 . S
Co226 N227 1.995 1_545 S
Co226 N232 2.008 1_545 S
Co226 N237 1.995 . S
Co226 N242 2.282 1_545 S
Co226 N248 2.282 . S
N227 Co226 1.995 1_565 S
N227 C228 1.376 . S
N227 C231 1.383 . S
C228 N227 1.376 . S
C228 C229 1.446 . S
C228 C258 1.391 1_565 S
C229 C228 1.446 . S
C229 C230 1.339 . S
C229 H264 0.949 . S
C230 C229 1.339 . S
C230 C231 1.439 . S
C230 H265 0.950 . S
C231 N227 1.383 . S
C231 C230 1.439 . S
C231 C260 1.392 . S
N232 Co226 2.008 1_565 S
N232 C233 1.376 . S
N232 C236 1.374 . S
C233 N232 1.376 . S
C233 C234 1.443 . S
C233 C260 1.389 . S
C234 C233 1.443 . S
C234 C235 1.340 . S
C234 H266 0.951 . S
C235 C234 1.340 . S
C235 C236 1.439 . S
C235 H267 0.950 . S
C236 N232 1.374 . S
C236 C235 1.439 . S
C236 C261 1.395 1_565 S
N237 Co226 1.995 . S
N237 C238 1.376 . S
N237 C241 1.383 . S
C238 N237 1.376 . S
C238 C239 1.446 . S
C238 C261 1.391 . S
C239 C238 1.446 . S
C239 C240 1.339 . S
C239 H268 0.949 . S
C240 C239 1.339 . S
C240 C241 1.439 . S
C240 H269 0.950 . S
C241 N237 1.383 . S
C241 C240 1.439 . S
C241 C259 1.392 . S
N242 Co226 2.282 1_565 S
N242 C245 1.332 . S
N242 C247 1.332 . S
C243 C244 1.386 . S
C243 C246 1.388 . S
C244 C243 1.386 . S
C244 C245 1.382 . S
C244 H270 0.950 . S
C245 N242 1.332 . S
C245 C244 1.382 . S
C245 H256 0.952 . S
C246 C243 1.388 . S
C246 C247 1.382 . S
C246 H271 0.950 . S
C247 N242 1.332 . S
C247 C246 1.382 . S
C247 H257 0.948 . S
N248 Co226 2.282 . S
N248 C252 1.332 . S
N248 C253 1.332 . S
C249 C250 1.388 . S
C249 C253 1.382 . S
C249 H272 0.950 . S
C250 C249 1.388 . S
C250 C251 1.386 . S
C251 C250 1.386 . S
C251 C252 1.382 . S
C251 H273 0.950 . S
C252 N248 1.332 . S
C252 C251 1.382 . S
C252 H254 0.952 . S
C253 N248 1.332 . S
C253 C249 1.382 . S
C253 H255 0.948 . S
H254 C252 0.952 . S
H255 C253 0.948 . S
H256 C245 0.952 . S
H257 C247 0.948 . S
C258 C224 1.395 . S
C258 C228 1.391 1_545 S
C259 C221 1.389 . S
C259 C241 1.392 . S
C260 C231 1.392 . S
C260 C233 1.389 . S
C261 C236 1.395 1_545 S
C261 C238 1.391 . S
H262 C222 0.951 . S
H263 C223 0.950 . S
H264 C229 0.949 . S
H265 C230 0.950 . S
H266 C234 0.951 . S
H267 C235 0.950 . S
H268 C239 0.949 . S
H269 C240 0.950 . S
H270 C244 0.950 . S
H271 C246 0.950 . S
H272 C249 0.950 . S
H273 C251 0.950 . S
C274 C275 1.443 . S
C274 N278 1.376 . S
C274 C312 1.389 . S
C275 C274 1.443 . S
C275 C276 1.340 . S
C275 H315 0.951 . S
C276 C275 1.340 . S
C276 C277 1.439 . S
C276 H316 0.950 . S
C277 C276 1.439 . S
C277 N278 1.374 . S
C277 C311 1.395 . S
N278 C274 1.376 . S
N278 C277 1.374 . S
N278 Co279 2.008 . S
Co279 N278 2.008 . S
Co279 N280 1.995 1_455 S
Co279 N285 2.008 1_455 S
Co279 N290 1.995 . S
Co279 N295 2.282 1_455 S
Co279 N301 2.282 . S
N280 Co279 1.995 1_655 S
N280 C281 1.376 . S
N280 C284 1.383 . S
C281 N280 1.376 . S
C281 C282 1.446 . S
C281 C311 1.391 1_655 S
C282 C281 1.446 . S
C282 C283 1.339 . S
C282 H317 0.949 . S
C283 C282 1.339 . S
C283 C284 1.439 . S
C283 H318 0.950 . S
C284 N280 1.383 . S
C284 C283 1.439 . S
C284 C313 1.392 . S
N285 Co279 2.008 1_655 S
N285 C286 1.376 . S
N285 C289 1.374 . S
C286 N285 1.376 . S
C286 C287 1.443 . S
C286 C313 1.389 . S
C287 C286 1.443 . S
C287 C288 1.340 . S
C287 H319 0.951 . S
C288 C287 1.340 . S
C288 C289 1.439 . S
C288 H320 0.950 . S
C289 N285 1.374 . S
C289 C288 1.439 . S
C289 C314 1.395 . S
N290 Co279 1.995 . S
N290 C291 1.376 . S
N290 C294 1.383 . S
C291 N290 1.376 . S
C291 C292 1.446 . S
C291 C314 1.391 1_455 S
C292 C291 1.446 . S
C292 C293 1.339 . S
C292 H321 0.949 . S
C293 C292 1.339 . S
C293 C294 1.439 . S
C293 H322 0.950 . S
C294 N290 1.383 . S
C294 C293 1.439 . S
C294 C312 1.392 . S
N295 Co279 2.282 1_655 S
N295 C298 1.332 . S
N295 C300 1.332 . S
C296 C297 1.386 . S
C296 C299 1.388 . S
C297 C296 1.386 . S
C297 C298 1.382 . S
C297 H323 0.950 . S
C298 N295 1.332 . S
C298 C297 1.382 . S
C298 H309 0.952 . S
C299 C296 1.388 . S
C299 C300 1.382 . S
C299 H324 0.950 . S
C300 N295 1.332 . S
C300 C299 1.382 . S
C300 H310 0.948 . S
N301 Co279 2.282 . S
N301 C305 1.332 . S
N301 C306 1.332 . S
C302 C303 1.388 . S
C302 C306 1.382 . S
C302 H325 0.950 . S
C303 C302 1.388 . S
C303 C304 1.386 . S
C304 C303 1.386 . S
C304 C305 1.382 . S
C304 H326 0.950 . S
C305 N301 1.332 . S
C305 C304 1.382 . S
C305 H307 0.952 . S
C306 N301 1.332 . S
C306 C302 1.382 . S
C306 H308 0.948 . S
H307 C305 0.952 . S
H308 C306 0.948 . S
H309 C298 0.952 . S
H310 C300 0.948 . S
C311 C277 1.395 . S
C311 C281 1.391 1_455 S
C312 C274 1.389 . S
C312 C294 1.392 . S
C313 C284 1.392 . S
C313 C286 1.389 . S
C314 C289 1.395 . S
C314 C291 1.391 1_655 S
H315 C275 0.951 . S
H316 C276 0.950 . S
H317 C282 0.949 . S
H318 C283 0.950 . S
H319 C287 0.951 . S
H320 C288 0.950 . S
H321 C292 0.949 . S
H322 C293 0.950 . S
H323 C297 0.950 . S
H324 C299 0.950 . S
H325 C302 0.950 . S
H326 C304 0.950 . S
C327 C328 1.443 . S
C327 N331 1.376 . S
C327 C365 1.389 . S
C328 C327 1.443 . S
C328 C329 1.340 . S
C328 H368 0.951 . S
C329 C328 1.340 . S
C329 C330 1.439 . S
C329 H369 0.950 . S
C330 C329 1.439 . S
C330 N331 1.374 . S
C330 C364 1.379 1_565 S
N331 C327 1.376 . S
N331 C330 1.374 . S
N331 Co332 2.008 1_565 S
Co332 N331 2.008 1_545 S
Co332 N333 1.995 . S
Co332 N338 2.008 . S
Co332 N343 1.995 1_545 S
Co332 N348 2.282 . S
Co332 N354 2.282 1_545 S
N333 Co332 1.995 . S
N333 C334 1.376 . S
N333 C337 1.383 . S
C334 N333 1.376 . S
C334 C335 1.446 . S
C334 C364 1.409 . S
C335 C334 1.446 . S
C335 C336 1.339 . S
C335 H370 0.949 . S
C336 C335 1.339 . S
C336 C337 1.439 . S
C336 H371 0.950 . S
C337 N333 1.383 . S
C337 C336 1.439 . S
C337 C366 1.392 . S
N338 Co332 2.008 . S
N338 C339 1.376 . S
N338 C342 1.374 . S
C339 N338 1.376 . S
C339 C340 1.443 . S
C339 C366 1.389 . S
C340 C339 1.443 . S
C340 C341 1.340 . S
C340 H372 0.951 . S
C341 C340 1.340 . S
C341 C342 1.439 . S
C341 H373 0.950 . S
C342 N338 1.374 . S
C342 C341 1.439 . S
C342 C367 1.395 . S
N343 Co332 1.995 1_565 S
N343 C344 1.376 . S
N343 C347 1.383 . S
C344 N343 1.376 . S
C344 C345 1.446 . S
C344 C367 1.391 1_565 S
C345 C344 1.446 . S
C345 C346 1.339 . S
C345 H374 0.949 . S
C346 C345 1.339 . S
C346 C347 1.439 . S
C346 H375 0.950 . S
C347 N343 1.383 . S
C347 C346 1.439 . S
C347 C365 1.392 . S
N348 Co332 2.282 . S
N348 C351 1.332 . S
N348 C353 1.332 . S
C349 C350 1.386 . S
C349 C352 1.388 . S
C350 C349 1.386 . S
C350 C351 1.382 . S
C350 H376 0.950 . S
C351 N348 1.332 . S
C351 C350 1.382 . S
C351 H362 0.952 . S
C352 C349 1.388 . S
C352 C353 1.382 . S
C352 H377 0.950 . S
C353 N348 1.332 . S
C353 C352 1.382 . S
C353 H363 0.948 . S
N354 Co332 2.282 1_565 S
N354 C358 1.332 . S
N354 C359 1.332 . S
C355 C356 1.388 . S
C355 C359 1.382 . S
C355 H378 0.950 . S
C356 C355 1.388 . S
C356 C357 1.386 . S
C357 C356 1.386 . S
C357 C358 1.382 . S
C357 H379 0.950 . S
C358 N354 1.332 . S
C358 C357 1.382 . S
C358 H360 0.952 . S
C359 N354 1.332 . S
C359 C355 1.382 . S
C359 H361 0.948 . S
H360 C358 0.952 . S
H361 C359 0.948 . S
H362 C351 0.952 . S
H363 C353 0.948 . S
C364 C330 1.379 1_545 S
C364 C334 1.409 . S
C365 C327 1.389 . S
C365 C347 1.392 . S
C366 C337 1.392 . S
C366 C339 1.389 . S
C367 C342 1.395 . S
C367 C344 1.391 1_545 S
H368 C328 0.951 . S
H369 C329 0.950 . S
H370 C335 0.949 . S
H371 C336 0.950 . S
H372 C340 0.951 . S
H373 C341 0.950 . S
H374 C345 0.949 . S
H375 C346 0.950 . S
H376 C350 0.950 . S
H377 C352 0.950 . S
H378 C355 0.950 . S
H379 C357 0.950 . S
C380 C381 1.443 . S
C380 N384 1.376 . S
C380 C418 1.389 . S
C381 C380 1.443 . S
C381 C382 1.340 . S
C381 H421 0.951 . S
C382 C381 1.340 . S
C382 C383 1.439 . S
C382 H422 0.950 . S
C383 C382 1.439 . S
C383 N384 1.374 . S
C383 C417 1.395 . S
N384 C380 1.376 . S
N384 C383 1.374 . S
N384 Co385 2.008 . S
Co385 N384 2.008 . S
Co385 N386 1.995 1_554 S
Co385 N391 2.008 1_554 S
Co385 N396 1.995 . S
Co385 N401 2.282 . S
Co385 N407 2.282 1_554 S
N386 Co385 1.995 1_556 S
N386 C387 1.376 . S
N386 C390 1.383 . S
C387 N386 1.376 . S
C387 C388 1.446 . S
C387 C417 1.391 1_556 S
C388 C387 1.446 . S
C388 C389 1.339 . S
C388 H423 0.949 . S
C389 C388 1.339 . S
C389 C390 1.439 . S
C389 H424 0.950 . S
C390 N386 1.383 . S
C390 C389 1.439 . S
C390 C419 1.392 . S
N391 Co385 2.008 1_556 S
N391 C392 1.376 . S
N391 C395 1.374 . S
C392 N391 1.376 . S
C392 C393 1.443 . S
C392 C419 1.389 . S
C393 C392 1.443 . S
C393 C394 1.340 . S
C393 H425 0.951 . S
C394 C393 1.340 . S
C394 C395 1.439 . S
C394 H426 0.950 . S
C395 N391 1.374 . S
C395 C394 1.439 . S
C395 C420 1.395 . S
N396 Co385 1.995 . S
N396 C397 1.376 . S
N396 C400 1.383 . S
C397 N396 1.376 . S
C397 C398 1.446 . S
C397 C420 1.391 1_554 S
C398 C397 1.446 . S
C398 C399 1.339 . S
C398 H427 0.949 . S
C399 C398 1.339 . S
C399 C400 1.439 . S
C399 H428 0.950 . S
C400 N396 1.383 . S
C400 C399 1.439 . S
C400 C418 1.392 . S
N401 Co385 2.282 . S
N401 C404 1.332 . S
N401 C406 1.332 . S
C402 C403 1.386 . S
C402 C405 1.388 . S
C403 C402 1.386 . S
C403 C404 1.382 . S
C403 H429 0.950 . S
C404 N401 1.332 . S
C404 C403 1.382 . S
C404 H415 0.952 . S
C405 C402 1.388 . S
C405 C406 1.382 . S
C405 H430 0.950 . S
C406 N401 1.332 . S
C406 C405 1.382 . S
C406 H416 0.948 . S
N407 Co385 2.282 1_556 S
N407 C411 1.332 . S
N407 C412 1.332 . S
C408 C409 1.388 . S
C408 C412 1.382 . S
C408 H431 0.950 . S
C409 C408 1.388 . S
C409 C410 1.386 . S
C410 C409 1.386 . S
C410 C411 1.382 . S
C410 H432 0.950 . S
C411 N407 1.332 . S
C411 C410 1.382 . S
C411 H413 0.952 . S
C412 N407 1.332 . S
C412 C408 1.382 . S
C412 H414 0.948 . S
H413 C411 0.952 . S
H414 C412 0.948 . S
H415 C404 0.952 . S
H416 C406 0.948 . S
C417 C383 1.395 . S
C417 C387 1.391 1_554 S
C418 C380 1.389 . S
C418 C400 1.392 . S
C419 C390 1.392 . S
C419 C392 1.389 . S
C420 C395 1.395 . S
C420 C397 1.391 1_556 S
H421 C381 0.951 . S
H422 C382 0.950 . S
H423 C388 0.949 . S
H424 C389 0.950 . S
H425 C393 0.951 . S
H426 C394 0.950 . S
H427 C398 0.949 . S
H428 C399 0.950 . S
H429 C403 0.950 . S
H430 C405 0.950 . S
H431 C408 0.950 . S
H432 C410 0.950 . S
C433 C434 1.443 . S
C433 N437 1.376 . S
C433 C471 1.389 . S
C434 C433 1.443 . S
C434 C435 1.340 . S
C434 H474 0.951 . S
C435 C434 1.340 . S
C435 C436 1.439 . S
C435 H475 0.950 . S
C436 C435 1.439 . S
C436 N437 1.374 . S
C436 C470 1.395 . S
N437 C433 1.376 . S
N437 C436 1.374 . S
N437 Co438 2.008 . S
Co438 N437 2.008 . S
Co438 N439 1.995 1_554 S
Co438 N444 2.008 . S
Co438 N449 1.995 . S
Co438 N454 2.282 . S
Co438 N460 2.282 1_554 S
N439 Co438 1.995 1_556 S
N439 C440 1.376 . S
N439 C443 1.383 . S
C440 N439 1.376 . S
C440 C441 1.446 . S
C440 C470 1.391 1_556 S
C441 C440 1.446 . S
C441 C442 1.339 . S
C441 H476 0.949 . S
C442 C441 1.339 . S
C442 C443 1.439 . S
C442 H477 0.950 . S
C443 N439 1.383 . S
C443 C442 1.439 . S
C443 C472 1.392 . S
N444 Co438 2.008 . S
N444 C445 1.376 1_554 S
N444 C448 1.374 . S
C445 N444 1.376 1_556 S
C445 C446 1.443 . S
C445 C472 1.389 . S
C446 C445 1.443 . S
C446 C447 1.340 1_556 S
C446 H478 0.951 . S
C447 C446 1.340 1_554 S
C447 C448 1.439 . S
C447 H479 0.950 . S
C448 N444 1.374 . S
C448 C447 1.439 . S
C448 C473 1.395 . S
N449 Co438 1.995 . S
N449 C450 1.376 . S
N449 C453 1.383 . S
C450 N449 1.376 . S
C450 C451 1.446 . S
C450 C473 1.391 . S
C451 C450 1.446 . S
C451 C452 1.339 . S
C451 H480 0.949 . S
C452 C451 1.339 . S
C452 C453 1.439 . S
C452 H481 0.950 . S
C453 N449 1.383 . S
C453 C452 1.439 . S
C453 C471 1.392 . S
N454 Co438 2.282 . S
N454 C457 1.332 . S
N454 C459 1.332 . S
C455 C456 1.386 . S
C455 C458 1.388 . S
C456 C455 1.386 . S
C456 C457 1.382 . S
C456 H482 0.950 . S
C457 N454 1.332 . S
C457 C456 1.382 . S
C457 H468 0.952 . S
C458 C455 1.388 . S
C458 C459 1.382 . S
C458 H483 0.950 . S
C459 N454 1.332 . S
C459 C458 1.382 . S
C459 H469 0.948 . S
N460 Co438 2.282 1_556 S
N460 C464 1.332 . S
N460 C465 1.332 . S
C461 C462 1.388 . S
C461 C465 1.382 . S
C461 H484 0.950 . S
C462 C461 1.388 . S
C462 C463 1.386 . S
C463 C462 1.386 . S
C463 C464 1.382 . S
C463 H485 0.950 . S
C464 N460 1.332 . S
C464 C463 1.382 . S
C464 H466 0.952 . S
C465 N460 1.332 . S
C465 C461 1.382 . S
C465 H467 0.948 1_556 S
H466 C464 0.952 . S
H467 C465 0.948 1_554 S
H468 C457 0.952 . S
H469 C459 0.948 . S
C470 C436 1.395 . S
C470 C440 1.391 1_554 S
C471 C433 1.389 . S
C471 C453 1.392 . S
C472 C443 1.392 . S
C472 C445 1.389 . S
C473 C448 1.395 . S
C473 C450 1.391 . S
H474 C434 0.951 . S
H475 C435 0.950 . S
H476 C441 0.949 . S
H477 C442 0.950 . S
H478 C446 0.951 . S
H479 C447 0.950 . S
H480 C451 0.949 . S
H481 C452 0.950 . S
H482 C456 0.950 . S
H483 C458 0.950 . S
H484 C461 0.950 . S
H485 C463 0.950 . S
C486 C487 1.443 1_554 S
C486 N490 1.376 . S
C486 C524 1.389 1_554 S
C487 C486 1.443 1_556 S
C487 C488 1.340 1_556 S
C487 H527 0.951 . S
C488 C487 1.340 1_554 S
C488 C489 1.439 . S
C488 H528 0.950 . S
C489 C488 1.439 . S
C489 N490 1.374 . S
C489 C523 1.395 . S
N490 C486 1.376 . S
N490 C489 1.374 . S
N490 Co491 2.008 . S
Co491 N490 2.008 . S
Co491 N492 1.995 . S
Co491 N497 2.008 . S
Co491 N502 1.995 . S
Co491 N507 2.293 . S
Co491 N513 2.282 . S
N492 Co491 1.995 . S
N492 C493 1.376 . S
N492 C496 1.383 . S
C493 N492 1.376 . S
C493 C494 1.446 . S
C493 C523 1.391 . S
C494 C493 1.446 . S
C494 C495 1.339 . S
C494 H529 0.949 . S
C495 C494 1.339 . S
C495 C496 1.439 . S
C495 H530 0.950 . S
C496 N492 1.383 . S
C496 C495 1.439 . S
C496 C525 1.392 . S
N497 Co491 2.008 . S
N497 C498 1.376 . S
N497 C501 1.374 . S
C498 N497 1.376 . S
C498 C499 1.443 . S
C498 C525 1.389 . S
C499 C498 1.443 . S
C499 C500 1.340 . S
C499 H531 0.951 . S
C500 C499 1.340 . S
C500 C501 1.439 . S
C500 H532 0.950 . S
C501 N497 1.374 . S
C501 C500 1.439 . S
C501 C526 1.395 . S
N502 Co491 1.995 . S
N502 C503 1.376 . S
N502 C506 1.383 1_554 S
C503 N502 1.376 . S
C503 C504 1.446 1_554 S
C503 C526 1.391 . S
C504 C503 1.446 1_556 S
C504 C505 1.339 . S
C504 H533 0.949 . S
C505 C504 1.339 . S
C505 C506 1.439 . S
C505 H534 0.950 . S
C506 N502 1.383 1_556 S
C506 C505 1.439 . S
C506 C524 1.392 . S
N507 Co491 2.293 . S
N507 C510 1.325 1_554 S
N507 C512 1.330 . S
C508 C509 1.386 . S
C508 C511 1.388 . S
C509 C508 1.386 . S
C509 C510 1.382 . S
C509 H535 0.950 . S
C510 N507 1.325 1_556 S
C510 C509 1.382 . S
C510 H521 0.952 . S
C511 C508 1.388 . S
C511 C512 1.382 1_556 S
C511 H536 0.950 . S
C512 N507 1.330 . S
C512 C511 1.382 1_554 S
C512 H522 0.948 . S
N513 Co491 2.282 . S
N513 C517 1.332 . S
N513 C518 1.332 . S
C514 C515 1.388 . S
C514 C518 1.382 . S
C514 H537 0.950 . S
C515 C514 1.388 . S
C515 C516 1.386 . S
C516 C515 1.386 . S
C516 C517 1.382 . S
C516 H538 0.950 . S
C517 N513 1.332 . S
C517 C516 1.382 . S
C517 H519 0.952 . S
C518 N513 1.332 . S
C518 C514 1.382 . S
C518 H520 0.948 . S
H519 C517 0.952 . S
H520 C518 0.948 . S
H521 C510 0.952 . S
H522 C512 0.948 . S
C523 C489 1.395 . S
C523 C493 1.391 . S
C524 C486 1.389 1_556 S
C524 C506 1.392 . S
C525 C496 1.392 . S
C525 C498 1.389 . S
C526 C501 1.395 . S
C526 C503 1.391 . S
H527 C487 0.951 . S
H528 C488 0.950 . S
H529 C494 0.949 . S
H530 C495 0.950 . S
H531 C499 0.951 . S
H532 C500 0.950 . S
H533 C504 0.949 . S
H534 C505 0.950 . S
H535 C509 0.950 . S
H536 C511 0.950 . S
H537 C514 0.950 . S
H538 C516 0.950 . S
C539 C540 1.443 . S
C539 N543 1.376 . S
C539 C577 1.389 . S
C540 C539 1.443 . S
C540 C541 1.340 . S
C540 H580 0.951 . S
C541 C540 1.340 . S
C541 C542 1.439 . S
C541 H581 0.950 . S
C542 C541 1.439 . S
C542 N543 1.374 . S
C542 C576 1.395 1_554 S
N543 C539 1.376 . S
N543 C542 1.374 . S
N543 Co544 2.008 . S
Co544 N543 2.008 . S
Co544 N545 1.995 1_554 S
Co544 N550 2.008 . S
Co544 N555 1.995 . S
Co544 N560 2.282 . S
Co544 N566 2.282 1_554 S
N545 Co544 1.995 1_556 S
N545 C546 1.376 . S
N545 C549 1.383 . S
C546 N545 1.376 . S
C546 C547 1.446 . S
C546 C576 1.391 . S
C547 C546 1.446 . S
C547 C548 1.339 . S
C547 H582 0.949 . S
C548 C547 1.339 . S
C548 C549 1.439 . S
C548 H583 0.950 . S
C549 N545 1.383 . S
C549 C548 1.439 . S
C549 C578 1.392 . S
N550 Co544 2.008 . S
N550 C551 1.376 1_554 S
N550 C554 1.374 . S
C551 N550 1.376 1_556 S
C551 C552 1.443 . S
C551 C578 1.389 . S
C552 C551 1.443 . S
C552 C553 1.337 1_556 S
C552 H584 0.951 . S
C553 C552 1.337 1_554 S
C553 C554 1.441 . S
C553 H585 0.950 . S
C554 N550 1.374 . S
C554 C553 1.441 . S
C554 C579 1.395 . S
N555 Co544 1.995 . S
N555 C556 1.376 . S
N555 C559 1.383 . S
C556 N555 1.376 . S
C556 C557 1.446 . S
C556 C579 1.391 . S
C557 C556 1.446 . S
C557 C558 1.339 . S
C557 H586 0.949 . S
C558 C557 1.339 . S
C558 C559 1.439 . S
C558 H587 0.950 . S
C559 N555 1.383 . S
C559 C558 1.439 . S
C559 C577 1.392 . S
N560 Co544 2.282 . S
N560 C563 1.332 . S
N560 C565 1.332 . S
C561 C562 1.386 . S
C561 C564 1.388 . S
C562 C561 1.386 . S
C562 C563 1.382 . S
C562 H588 0.950 . S
C563 N560 1.332 . S
C563 C562 1.382 . S
C563 H574 0.952 . S
C564 C561 1.388 . S
C564 C565 1.382 . S
C564 H589 0.950 . S
C565 N560 1.332 . S
C565 C564 1.382 . S
C565 H575 0.948 . S
N566 Co544 2.282 1_556 S
N566 C570 1.332 . S
N566 C571 1.332 . S
C567 C568 1.388 . S
C567 C571 1.382 . S
C567 H590 0.950 . S
C568 C567 1.388 . S
C568 C569 1.386 . S
C569 C568 1.386 . S
C569 C570 1.382 . S
C569 H591 0.950 . S
C570 N566 1.332 . S
C570 C569 1.382 . S
C570 H572 0.952 . S
C571 N566 1.332 . S
C571 C567 1.382 . S
C571 H573 0.948 . S
H572 C570 0.952 . S
H573 C571 0.948 . S
H574 C563 0.952 . S
H575 C565 0.948 . S
C576 C542 1.395 1_556 S
C576 C546 1.391 . S
C577 C539 1.389 . S
C577 C559 1.392 . S
C578 C549 1.392 . S
C578 C551 1.389 . S
C579 C554 1.395 . S
C579 C556 1.391 . S
H580 C540 0.951 . S
H581 C541 0.950 . S
H582 C547 0.949 . S
H583 C548 0.950 . S
H584 C552 0.951 . S
H585 C553 0.950 . S
H586 C557 0.949 . S
H587 C558 0.950 . S
H588 C562 0.950 . S
H589 C564 0.950 . S
H590 C567 0.950 . S
H591 C569 0.950 . S
C197 C12 1.275 . S
C250 C33 0.948 . S
C313 C51 1.617 . S
C356 C75 0.988 . S
C103 C312 1.613 . S
C349 C122 1.081 . S
C190 C145 1.431 . S
C243 C166 1.015 . S
C296 C164 1.416 . S
C365 C101 2.053 . S
C206 C124 1.519 . S
C259 C143 1.849 . S
C207 C30 1.485 . S
C260 C54 1.959 . S
C303 C72 1.444 . S
C366 C9 1.862 . S
C409 C159 1.235 . S
C96 C462 1.680 . S
C114 C524 1.643 . S
C138 C578 1.698 . S
C40 C525 1.566 . S
C59 C577 1.861 . S
C82 C402 1.493 . S
C455 C19 1.637 . S
C515 C17 1.404 . S
C38 C561 1.113 . S
C61 C418 1.583 . S
C80 C471 1.328 . S
C419 C93 1.422 . S
C472 C117 1.342 . S
C135 C508 1.459 . S
C568 C156 0.995 . S
