# Generated by pormake.
# Topology nom, (4,4)-cn, num edge types: 1
# Building blocks:
#     Node 0, Type 0, BuildingBlock: GIZVER_clean_linker_0, # of connection points: 4
#     Node 1, Type 0, BuildingBlock: GIZVER_clean_linker_0, # of connection points: 4
#     Node 2, Type 0, BuildingBlock: GIZVER_clean_linker_0, # of connection points: 4
#     Node 3, Type 0, BuildingBlock: GIZVER_clean_linker_0, # of connection points: 4
#     Node 4, Type 0, BuildingBlock: GIZVER_clean_linker_0, # of connection points: 4
#     Node 5, Type 0, BuildingBlock: GIZVER_clean_linker_0, # of connection points: 4
#     Node 6, Type 1, BuildingBlock: CEKHIL_clean_sbu_0, # of connection points: 4
#     Node 7, Type 1, BuildingBlock: CEKHIL_clean_sbu_0, # of connection points: 4
#     Node 8, Type 1, BuildingBlock: CEKHIL_clean_sbu_0, # of connection points: 4
#     Node 9, Type 1, BuildingBlock: CEKHIL_clean_sbu_0, # of connection points: 4
#     Node 10, Type 1, BuildingBlock: CEKHIL_clean_sbu_0, # of connection points: 4
#     Node 11, Type 1, BuildingBlock: CEKHIL_clean_sbu_0, # of connection points: 4
#     Edge 12, Type (0, 1), BuildingBlock: XUDNAN_clean_linker_2, # of connection points: 2
#     Edge 13, Type (0, 1), BuildingBlock: XUDNAN_clean_linker_2, # of connection points: 2
#     Edge 14, Type (0, 1), BuildingBlock: XUDNAN_clean_linker_2, # of connection points: 2
#     Edge 15, Type (0, 1), BuildingBlock: XUDNAN_clean_linker_2, # of connection points: 2
#     Edge 16, Type (0, 1), BuildingBlock: XUDNAN_clean_linker_2, # of connection points: 2
#     Edge 17, Type (0, 1), BuildingBlock: XUDNAN_clean_linker_2, # of connection points: 2
#     Edge 18, Type (0, 1), BuildingBlock: XUDNAN_clean_linker_2, # of connection points: 2
#     Edge 19, Type (0, 1), BuildingBlock: XUDNAN_clean_linker_2, # of connection points: 2
#     Edge 20, Type (0, 1), BuildingBlock: XUDNAN_clean_linker_2, # of connection points: 2
#     Edge 21, Type (0, 1), BuildingBlock: XUDNAN_clean_linker_2, # of connection points: 2
#     Edge 22, Type (0, 1), BuildingBlock: XUDNAN_clean_linker_2, # of connection points: 2
#     Edge 23, Type (0, 1), BuildingBlock: XUDNAN_clean_linker_2, # of connection points: 2
#     Edge 24, Type (0, 1), BuildingBlock: XUDNAN_clean_linker_2, # of connection points: 2
#     Edge 25, Type (0, 1), BuildingBlock: XUDNAN_clean_linker_2, # of connection points: 2
#     Edge 26, Type (0, 1), BuildingBlock: XUDNAN_clean_linker_2, # of connection points: 2
#     Edge 27, Type (0, 1), BuildingBlock: XUDNAN_clean_linker_2, # of connection points: 2
#     Edge 28, Type (0, 1), BuildingBlock: XUDNAN_clean_linker_2, # of connection points: 2
#     Edge 29, Type (0, 1), BuildingBlock: XUDNAN_clean_linker_2, # of connection points: 2
#     Edge 30, Type (0, 1), BuildingBlock: XUDNAN_clean_linker_2, # of connection points: 2
#     Edge 31, Type (0, 1), BuildingBlock: XUDNAN_clean_linker_2, # of connection points: 2
#     Edge 32, Type (0, 1), BuildingBlock: XUDNAN_clean_linker_2, # of connection points: 2
#     Edge 33, Type (0, 1), BuildingBlock: XUDNAN_clean_linker_2, # of connection points: 2
#     Edge 34, Type (0, 1), BuildingBlock: XUDNAN_clean_linker_2, # of connection points: 2
#     Edge 35, Type (0, 1), BuildingBlock: XUDNAN_clean_linker_2, # of connection points: 2
# Relax obj value: 0.005
# Max RMSD: 0.071
# Mean RMSD: 0.052
data_MOF--net-nom--node1-CEKHIL_clean_sbu_0--node2-GIZVER_clean_linker_0--edge1-XUDNAN_clean_linker_2
_symmetry_space_group_name_H-M    P1
_symmetry_Int_Tables_number       1
_symmetry_cell_setting            triclinic
loop_
_symmetry_equiv_pos_as_xyz
'x, y, z'
_cell_length_a     46.864635
_cell_length_b     46.440599
_cell_length_c     46.109713
_cell_angle_alpha  90.030995
_cell_angle_beta   90.081768
_cell_angle_gamma 121.05287
loop_
_atom_site_label
_atom_site_type_symbol
_atom_site_fract_x
_atom_site_fract_y
_atom_site_fract_z
_atom_type_partial_charge
H0 H 0.96764 0.55859 0.36941 0.0
H1 H 1.00405 0.56795 0.28197 0.0
H2 H 0.90153 0.49758 0.301 0.0
H3 H 0.01744 0.60947 0.35426 0.0
H4 H 0.02948 0.61597 0.31739 0.0
H5 H 0.04498 0.59318 0.38863 0.0
H6 H 0.13902 0.60834 0.36178 0.0
H7 H 0.06714 0.59768 0.2977 0.0
C8 C 0.96356 0.55007 0.34709 0.0
C9 C 0.93133 0.52515 0.33796 0.0
C10 C 0.99019 0.56551 0.32707 0.0
C11 C 0.98427 0.55531 0.29776 0.0
C12 C 0.95213 0.53101 0.28839 0.0
C13 C 0.92632 0.51582 0.30865 0.0
C14 C 0.02216 0.59753 0.3354 0.0
C15 C 0.0516 0.5934 0.34224 0.0
C16 C 0.06095 0.59379 0.37135 0.0
C17 C 0.09227 0.59847 0.3783 0.0
C18 C 0.11401 0.60194 0.35595 0.0
C19 C 0.10574 0.60227 0.32668 0.0
C20 C 0.07381 0.59673 0.32003 0.0
H21 H 0.42894 0.95142 0.52376 0.0
H22 H 0.46283 0.99013 0.43779 0.0
H23 H 0.45157 0.89593 0.46269 0.0
H24 H 0.42584 0.99853 0.50715 0.0
H25 H 0.43165 0.00892 0.46968 0.0
H26 H 0.47728 0.02285 0.54056 0.0
H27 H 0.55224 0.12352 0.51832 0.0
H28 H 0.47745 0.06166 0.4555 0.0
C29 C 0.43868 0.94962 0.503 0.0
C30 C 0.43856 0.92003 0.49572 0.0
C31 C 0.44871 0.97581 0.48255 0.0
C32 C 0.45785 0.97163 0.45442 0.0
C33 C 0.45872 0.94267 0.44735 0.0
C34 C 0.45081 0.91815 0.4685 0.0
C35 C 0.44361 0.00493 0.48888 0.0
C36 C 0.47553 0.03751 0.49625 0.0
C37 C 0.48894 0.04268 0.52454 0.0
C38 C 0.5158 0.07429 0.53263 0.0
C39 C 0.53044 0.09987 0.51202 0.0
C40 C 0.51618 0.09652 0.48461 0.0
C41 C 0.48914 0.06476 0.47647 0.0
H42 H 0.39771 0.43753 0.6192 0.0
H43 H 0.43288 0.43552 0.70538 0.0
H44 H 0.40594 0.50808 0.68405 0.0
H45 H 0.39825 0.3883 0.63546 0.0
H46 H 0.40353 0.38363 0.67296 0.0
H47 H 0.4485 0.417 0.60263 0.0
H48 H 0.52725 0.40042 0.62743 0.0
H49 H 0.45509 0.38921 0.69081 0.0
C50 C 0.40515 0.44834 0.64069 0.0
C51 C 0.40155 0.47574 0.64861 0.0
C52 C 0.41699 0.43387 0.66096 0.0
C53 C 0.42519 0.44719 0.68929 0.0
C54 C 0.42191 0.47452 0.69722 0.0
C55 C 0.4103 0.48844 0.67689 0.0
C56 C 0.41517 0.4009 0.65422 0.0
C57 C 0.44858 0.40424 0.64782 0.0
C58 C 0.46134 0.41155 0.61933 0.0
C59 C 0.48973 0.41021 0.6121 0.0
C60 C 0.50564 0.40197 0.63329 0.0
C61 C 0.49343 0.39435 0.6616 0.0
C62 C 0.465 0.39576 0.66902 0.0
H63 H 0.96736 0.42539 0.79683 0.0
H64 H 0.99577 0.43142 0.88665 0.0
H65 H 0.90397 0.42551 0.8637 0.0
H66 H 1.00683 0.4076 0.81351 0.0
H67 H 0.01912 0.41178 0.85043 0.0
H68 H 0.03094 0.45872 0.78117 0.0
H69 H 0.13219 0.5325 0.80083 0.0
H70 H 0.07227 0.45816 0.86473 0.0
C71 C 0.96313 0.42788 0.81955 0.0
C72 C 0.93392 0.42725 0.82792 0.0
C73 C 0.98613 0.43017 0.84072 0.0
C74 C 0.97903 0.43121 0.8703 0.0
C75 C 0.94931 0.42942 0.87888 0.0
C76 C 0.9276 0.42838 0.85744 0.0
C77 C 0.0145 0.42487 0.83247 0.0
C78 C 0.04686 0.45691 0.82493 0.0
C79 C 0.05119 0.47029 0.79672 0.0
C80 C 0.08249 0.49656 0.78783 0.0
C81 C 0.10871 0.51103 0.80774 0.0
C82 C 0.10627 0.49664 0.835 0.0
C83 C 0.07474 0.47003 0.84392 0.0
H84 H 0.61213 0.07316 0.01854 0.0
H85 H 0.58507 0.03349 0.93218 0.0
H86 H 0.60064 0.13099 0.95184 0.0
H87 H 0.6187 0.02757 0.00368 0.0
H88 H 0.61477 0.01628 0.96657 0.0
H89 H 0.57077 0.99834 0.037 0.0
H90 H 0.50096 0.89649 0.01259 0.0
H91 H 0.56388 0.96759 0.94779 0.0
C92 C 0.60474 0.07523 0.99674 0.0
C93 C 0.60698 0.1054 0.9878 0.0
C94 C 0.59606 0.04878 0.97687 0.0
C95 C 0.5897 0.05289 0.94779 0.0
C96 C 0.59249 0.08307 0.93828 0.0
C97 C 0.59899 0.10799 0.9589 0.0
C98 C 0.60157 0.02026 0.98474 0.0
C99 C 0.57003 0.98711 0.9914 0.0
C100 C 0.55877 0.97936 0.02027 0.0
C101 C 0.53407 0.94649 0.02794 0.0
C102 C 0.51957 0.92185 0.00632 0.0
C103 C 0.52963 0.92884 0.97725 0.0
C104 C 0.55494 0.96183 0.9699 0.0
H105 H 0.62955 0.57398 0.12178 0.0
H106 H 0.58111 0.56694 0.20305 0.0
H107 H 0.60598 0.49298 0.18076 0.0
H108 H 0.62396 0.62001 0.138 0.0
H109 H 0.61321 0.62091 0.17474 0.0
H110 H 0.58036 0.59717 0.09967 0.0
H111 H 0.49766 0.61024 0.11765 0.0
H112 H 0.55797 0.61047 0.18768 0.0
C113 C 0.61769 0.56015 0.14139 0.0
C114 C 0.62026 0.53209 0.14905 0.0
C115 C 0.60216 0.57211 0.16029 0.0
C116 C 0.59023 0.55625 0.18732 0.0
C117 C 0.59212 0.52799 0.19485 0.0
C118 C 0.60506 0.51505 0.17484 0.0
C119 C 0.60452 0.6055 0.15459 0.0
C120 C 0.57203 0.60246 0.14489 0.0
C121 C 0.56433 0.59971 0.11506 0.0
C122 C 0.53752 0.60257 0.10491 0.0
C123 C 0.51755 0.60661 0.12513 0.0
C124 C 0.52444 0.60919 0.15484 0.0
C125 C 0.55181 0.60722 0.16479 0.0
Co126 Co 0.64161 0.38279 0.40102 0.0
O127 O 0.6799 0.38913 0.37936 0.0
O128 O 0.68167 0.4228 0.41413 0.0
C129 C 0.61971 0.32719 0.40919 0.0
O130 O 0.60969 0.3852 0.42938 0.0
Co131 Co 0.56812 0.33502 0.38336 0.0
O132 O 0.55645 0.34494 0.42203 0.0
C133 C 0.60805 0.40096 0.35407 0.0
C134 C 0.69771 0.41563 0.39533 0.0
C135 C 0.57877 0.36967 0.43657 0.0
O136 O 0.63262 0.40957 0.37165 0.0
O137 O 0.58175 0.37165 0.35388 0.0
O138 O 0.64341 0.34942 0.42566 0.0
O139 O 0.61112 0.33891 0.38773 0.0
Co140 Co 0.27644 0.63685 0.58396 0.0
O141 O 0.30409 0.62473 0.60566 0.0
O142 O 0.27074 0.59464 0.56978 0.0
C143 C 0.31664 0.6915 0.5774 0.0
O144 O 0.24544 0.64168 0.55551 0.0
Co145 Co 0.26226 0.69177 0.60593 0.0
O146 O 0.2451 0.68874 0.56614 0.0
C147 C 0.22152 0.62177 0.62757 0.0
C148 C 0.29275 0.59848 0.58906 0.0
C149 C 0.23698 0.6635 0.54982 0.0
O150 O 0.23811 0.61207 0.61227 0.0
O151 O 0.2282 0.65218 0.62858 0.0
O152 O 0.31489 0.66832 0.56038 0.0
O153 O 0.29609 0.68084 0.59881 0.0
Co154 Co 0.65787 0.27615 0.73234 0.0
O155 O 0.65242 0.30751 0.7089 0.0
O156 O 0.61494 0.27198 0.73995 0.0
C157 C 0.71069 0.31447 0.74685 0.0
O158 O 0.65492 0.24118 0.76131 0.0
Co159 Co 0.71351 0.26006 0.71882 0.0
O160 O 0.69904 0.23478 0.75561 0.0
C161 C 0.64849 0.22307 0.68795 0.0
C162 C 0.62401 0.29651 0.72167 0.0
C163 C 0.67217 0.2278 0.76847 0.0
O164 O 0.63747 0.23983 0.70132 0.0
O165 O 0.6781 0.22868 0.69109 0.0
O166 O 0.68516 0.31267 0.75964 0.0
O167 O 0.70381 0.29517 0.72458 0.0
Co168 Co 0.39701 0.64267 0.89832 0.0
O169 O 0.35721 0.63338 0.87769 0.0
O170 O 0.35789 0.60451 0.91554 0.0
C171 C 0.41981 0.69924 0.90218 0.0
O172 O 0.43282 0.64491 0.92541 0.0
Co173 Co 0.46707 0.68826 0.87057 0.0
O174 O 0.48362 0.68313 0.90857 0.0
C175 C 0.42445 0.61804 0.85055 0.0
C176 C 0.34064 0.60898 0.89586 0.0
C177 C 0.4649 0.6617 0.92751 0.0
O178 O 0.40324 0.61213 0.87089 0.0
O179 O 0.44961 0.64732 0.84551 0.0
O180 O 0.397 0.679 0.92026 0.0
O181 O 0.42558 0.68469 0.88111 0.0
Co182 Co 0.76148 0.38725 0.0817 0.0
O183 O 0.73277 0.39801 0.10312 0.0
O184 O 0.76534 0.42848 0.06703 0.0
C185 C 0.72287 0.33215 0.0744 0.0
O186 O 0.79402 0.38391 0.05415 0.0
Co187 Co 0.77763 0.33429 0.10522 0.0
O188 O 0.79845 0.3396 0.0668 0.0
C189 C 0.81577 0.40454 0.1268 0.0
C190 C 0.74327 0.42401 0.08643 0.0
C191 C 0.80535 0.36411 0.04999 0.0
O192 O 0.79902 0.41323 0.11057 0.0
O193 O 0.81008 0.37451 0.12839 0.0
O194 O 0.72412 0.35509 0.05745 0.0
O195 O 0.74271 0.3432 0.09641 0.0
Co196 Co 0.38406 0.7514 0.23062 0.0
O197 O 0.38224 0.71876 0.2034 0.0
O198 O 0.42105 0.74438 0.23701 0.0
C199 C 0.3288 0.72071 0.24177 0.0
O200 O 0.39427 0.78494 0.26354 0.0
Co201 Co 0.34255 0.78609 0.22473 0.0
O202 O 0.3591 0.8042 0.26404 0.0
C203 C 0.40614 0.81252 0.19217 0.0
C204 C 0.40851 0.72227 0.21629 0.0
C205 C 0.3833 0.80273 0.27494 0.0
O206 O 0.41156 0.79014 0.20305 0.0
O207 O 0.3798 0.81355 0.19713 0.0
O208 O 0.34981 0.71433 0.2543 0.0
O209 O 0.34141 0.74401 0.22242 0.0
H210 H 0.15941 0.59259 0.32385 0.0
H211 H 0.11537 0.64331 0.28002 0.0
H212 H 0.16577 0.67448 0.25047 0.0
H213 H 0.23669 0.66372 0.33269 0.0
H214 H 0.2608 0.64396 0.32736 0.0
H215 H 0.21886 0.61975 0.34082 0.0
H216 H 0.20286 0.57718 0.29871 0.0
H217 H 0.24496 0.60096 0.28532 0.0
H218 H 0.21059 0.59207 0.2618 0.0
H219 H 0.2233 0.7063 0.23069 0.0
H220 H 0.28322 0.73462 0.22016 0.0
H221 H 0.29261 0.66701 0.27903 0.0
C222 C 0.15998 0.60975 0.30767 0.0
C223 C 0.13292 0.61513 0.30444 0.0
C224 C 0.13501 0.6378 0.28273 0.0
C225 C 0.16386 0.65604 0.26593 0.0
C226 C 0.19062 0.65154 0.27098 0.0
C227 C 0.18889 0.62871 0.2911 0.0
C228 C 0.22236 0.63114 0.29434 0.0
C229 C 0.23543 0.64019 0.32566 0.0
C230 C 0.22005 0.59839 0.28444 0.0
C231 C 0.24347 0.65977 0.27364 0.0
C232 C 0.22443 0.67072 0.26009 0.0
C233 C 0.23835 0.69766 0.24089 0.0
C234 C 0.27254 0.71371 0.23517 0.0
C235 C 0.29274 0.70312 0.24879 0.0
C236 C 0.27787 0.67568 0.26827 0.0
H237 H 0.5385 0.16074 0.50384 0.0
H238 H 0.52058 0.10317 0.42454 0.0
H239 H 0.54339 0.1559 0.3962 0.0
H240 H 0.5229 0.22332 0.47772 0.0
H241 H 0.55653 0.25668 0.49818 0.0
H242 H 0.53593 0.2142 0.51157 0.0
H243 H 0.59251 0.21709 0.51446 0.0
H244 H 0.61343 0.25958 0.5011 0.0
H245 H 0.61832 0.2282 0.48259 0.0
H246 H 0.5684 0.2161 0.37695 0.0
H247 H 0.59649 0.2775 0.36867 0.0
H248 H 0.60471 0.29468 0.46148 0.0
C249 C 0.53976 0.15884 0.48054 0.0
C250 C 0.52811 0.12746 0.46656 0.0
C251 C 0.52912 0.12666 0.43587 0.0
C252 C 0.54224 0.15656 0.41961 0.0
C253 C 0.55453 0.18704 0.43438 0.0
C254 C 0.55363 0.18825 0.46422 0.0
C255 C 0.57001 0.22401 0.47535 0.0
C256 C 0.54484 0.22988 0.49166 0.0
C257 C 0.60037 0.23272 0.49449 0.0
C258 C 0.58041 0.24307 0.44705 0.0
C259 C 0.57075 0.22134 0.4236 0.0
C260 C 0.57634 0.23323 0.39518 0.0
C261 C 0.59224 0.26809 0.3907 0.0
C262 C 0.60307 0.29067 0.41447 0.0
C263 C 0.59719 0.27795 0.44296 0.0
H264 H 0.41743 0.54144 0.64373 0.0
H265 H 0.34795 0.4413 0.61127 0.0
H266 H 0.31461 0.46274 0.58858 0.0
H267 H 0.35643 0.55713 0.66673 0.0
H268 H 0.3795 0.6014 0.6585 0.0
H269 H 0.40133 0.57998 0.6669 0.0
H270 H 0.43315 0.59952 0.61818 0.0
H271 H 0.41175 0.62145 0.60974 0.0
H272 H 0.41012 0.59078 0.58473 0.0
H273 H 0.28559 0.49492 0.57356 0.0
H274 H 0.26435 0.53377 0.56819 0.0
H275 H 0.35014 0.6104 0.61551 0.0
C276 C 0.39548 0.52394 0.63148 0.0
C277 C 0.38543 0.4895 0.62945 0.0
C278 C 0.35665 0.46783 0.61287 0.0
C279 C 0.33733 0.47979 0.60011 0.0
C280 C 0.34699 0.51347 0.60414 0.0
C281 C 0.37556 0.53521 0.61939 0.0
C282 C 0.37899 0.56925 0.62341 0.0
C283 C 0.37906 0.57739 0.6558 0.0
C284 C 0.41036 0.59688 0.60809 0.0
C285 C 0.34762 0.5633 0.60844 0.0
C286 C 0.32967 0.5312 0.59698 0.0
C287 C 0.29959 0.5201 0.58239 0.0
C288 C 0.28767 0.54231 0.57947 0.0
C289 C 0.30542 0.57505 0.59158 0.0
C290 C 0.33581 0.58548 0.60617 0.0
H291 H 0.89748 0.37268 0.79243 0.0
H292 H 0.90788 0.46693 0.81961 0.0
H293 H 0.85311 0.4498 0.79809 0.0
H294 H 0.84946 0.36346 0.72273 0.0
H295 H 0.82393 0.31859 0.72743 0.0
H296 H 0.8664 0.34079 0.74021 0.0
H297 H 0.84571 0.31583 0.79138 0.0
H298 H 0.80318 0.29425 0.77904 0.0
H299 H 0.81559 0.32264 0.80946 0.0
H300 H 0.79334 0.41816 0.78325 0.0
H301 H 0.73544 0.37752 0.76818 0.0
H302 H 0.76376 0.30463 0.74726 0.0
C303 C 0.88893 0.39035 0.79241 0.0
C304 C 0.90714 0.42141 0.80719 0.0
C305 C 0.89455 0.44333 0.80792 0.0
C306 C 0.86336 0.43369 0.79594 0.0
C307 C 0.84513 0.40216 0.78293 0.0
C308 C 0.85775 0.38112 0.78033 0.0
C309 C 0.83191 0.34756 0.76721 0.0
C310 C 0.84362 0.3423 0.73763 0.0
C311 C 0.82363 0.31837 0.78802 0.0
C312 C 0.80254 0.35263 0.76387 0.0
C313 C 0.81072 0.38427 0.77322 0.0
C314 C 0.7869 0.39367 0.77509 0.0
C315 C 0.75403 0.37036 0.76675 0.0
C316 C 0.74532 0.33822 0.75623 0.0
C317 C 0.76997 0.32935 0.75464 0.0
H318 H 0.4657 0.87397 0.97434 0.0
H319 H 0.56252 0.91764 0.93306 0.0
H320 H 0.54262 0.86511 0.9054 0.0
H321 H 0.45871 0.79738 0.98792 0.0
H322 H 0.41425 0.77234 0.98276 0.0
H323 H 0.43318 0.81536 0.99439 0.0
H324 H 0.4068 0.82844 0.95077 0.0
H325 H 0.38738 0.78528 0.93913 0.0
H326 H 0.41363 0.81872 0.91451 0.0
H327 H 0.51394 0.80536 0.88618 0.0
H328 H 0.47979 0.74414 0.87773 0.0
H329 H 0.40451 0.73792 0.93633 0.0
C330 C 0.48276 0.87284 0.95923 0.0
C331 C 0.51587 0.90025 0.95608 0.0
C332 C 0.53692 0.89749 0.93564 0.0
C333 C 0.52589 0.86753 0.91997 0.0
C334 C 0.49378 0.84043 0.92503 0.0
C335 C 0.47251 0.8429 0.94416 0.0
C336 C 0.44071 0.80923 0.94835 0.0
C337 C 0.43649 0.79792 0.98024 0.0
C338 C 0.41033 0.8105 0.93754 0.0
C339 C 0.44763 0.78714 0.92906 0.0
C340 C 0.47806 0.80572 0.91532 0.0
C341 C 0.49002 0.79067 0.89672 0.0
C342 C 0.47045 0.75582 0.8921 0.0
C343 C 0.43955 0.73619 0.90649 0.0
C344 C 0.42807 0.75222 0.92512 0.0
H345 H 0.65889 0.50887 0.17184 0.0
H346 H 0.63127 0.53307 0.08947 0.0
H347 H 0.66432 0.5128 0.06399 0.0
H348 H 0.74068 0.52639 0.15386 0.0
H349 H 0.73583 0.49077 0.17381 0.0
H350 H 0.71379 0.51116 0.1851 0.0
H351 H 0.65775 0.45444 0.182 0.0
H352 H 0.67958 0.43382 0.17091 0.0
H353 H 0.64645 0.43073 0.14866 0.0
H354 H 0.70023 0.48738 0.04792 0.0
H355 H 0.72936 0.45555 0.043 0.0
H356 H 0.72554 0.44227 0.13615 0.0
C357 C 0.65911 0.50964 0.14839 0.0
C358 C 0.64167 0.52216 0.13277 0.0
C359 C 0.64432 0.52377 0.10209 0.0
C360 C 0.663 0.51217 0.08743 0.0
C361 C 0.67875 0.49885 0.10371 0.0
C362 C 0.67658 0.49735 0.13357 0.0
C363 C 0.6931 0.47956 0.14639 0.0
C364 C 0.7226 0.5034 0.16594 0.0
C365 C 0.66771 0.44776 0.16295 0.0
C366 C 0.70487 0.47087 0.1191 0.0
C367 C 0.69715 0.48279 0.09464 0.0
C368 C 0.7062 0.47794 0.067 0.0
C369 C 0.72287 0.45999 0.06439 0.0
C370 C 0.72956 0.44641 0.08919 0.0
C371 C 0.72061 0.45225 0.11681 0.0
H372 H 0.40109 0.85426 0.47788 0.0
H373 H 0.43756 0.91544 0.55583 0.0
H374 H 0.41027 0.86354 0.58553 0.0
H375 H 0.3233 0.78987 0.50486 0.0
H376 H 0.32468 0.75672 0.48578 0.0
H377 H 0.34574 0.79865 0.47115 0.0
H378 H 0.40109 0.7988 0.46963 0.0
H379 H 0.38023 0.75685 0.48424 0.0
H380 H 0.41649 0.79007 0.50227 0.0
H381 H 0.37715 0.80395 0.6064 0.0
H382 H 0.34403 0.74284 0.61649 0.0
H383 H 0.33536 0.72194 0.52426 0.0
C384 C 0.40417 0.8571 0.50116 0.0
C385 C 0.42213 0.88927 0.51439 0.0
C386 C 0.42395 0.89128 0.54507 0.0
C387 C 0.40866 0.86189 0.56211 0.0
C388 C 0.39187 0.83069 0.54814 0.0
C389 C 0.38981 0.82825 0.51831 0.0
C390 C 0.37106 0.79198 0.50828 0.0
C391 C 0.33932 0.78384 0.49154 0.0
C392 C 0.39357 0.78396 0.49003 0.0
C393 C 0.36276 0.77411 0.53716 0.0
C394 C 0.37454 0.79681 0.55995 0.0
C395 C 0.36824 0.78606 0.5887 0.0
C396 C 0.34943 0.75135 0.59422 0.0
C397 C 0.3377 0.7278 0.57115 0.0
C398 C 0.3447 0.7394 0.5423 0.0
H399 H 0.48032 0.33065 0.67171 0.0
H400 H 0.54804 0.43501 0.6939 0.0
H401 H 0.58689 0.41998 0.71573 0.0
H402 H 0.49901 0.29347 0.73741 0.0
H403 H 0.49569 0.25927 0.71615 0.0
H404 H 0.47087 0.27739 0.70693 0.0
H405 H 0.49463 0.28833 0.65481 0.0
H406 H 0.52004 0.27095 0.66395 0.0
H407 H 0.53909 0.31296 0.64956 0.0
H408 H 0.6225 0.39571 0.72636 0.0
H409 H 0.6499 0.36258 0.73128 0.0
H410 H 0.55855 0.27254 0.70521 0.0
C411 C 0.50253 0.34993 0.68258 0.0
C412 C 0.51077 0.38385 0.6821 0.0
C413 C 0.54085 0.40881 0.69502 0.0
C414 C 0.56316 0.40049 0.7072 0.0
C415 C 0.55493 0.36701 0.70643 0.0
C416 C 0.52499 0.34193 0.69506 0.0
C417 C 0.52344 0.30837 0.69498 0.0
C418 C 0.4956 0.28313 0.71507 0.0
C419 C 0.51905 0.29435 0.66398 0.0
C420 C 0.5576 0.31871 0.7071 0.0
C421 C 0.57533 0.35271 0.71346 0.0
C422 C 0.60855 0.36894 0.7222 0.0
C423 C 0.62397 0.34998 0.72476 0.0
C424 C 0.60619 0.31504 0.71904 0.0
C425 C 0.57244 0.29911 0.71034 0.0
H426 H 0.16784 0.51587 0.81277 0.0
H427 H 0.11712 0.50234 0.89486 0.0
H428 H 0.17137 0.5254 0.92042 0.0
H429 H 0.23201 0.50077 0.83561 0.0
H430 H 0.26314 0.53377 0.81314 0.0
H431 H 0.22002 0.51204 0.80229 0.0
H432 H 0.22204 0.56869 0.79888 0.0
H433 H 0.26514 0.59071 0.8096 0.0
H434 H 0.23552 0.59636 0.82987 0.0
H435 H 0.23356 0.55232 0.93636 0.0
H436 H 0.29533 0.58395 0.94045 0.0
H437 H 0.30319 0.58621 0.84682 0.0
C438 C 0.16773 0.51798 0.83614 0.0
C439 C 0.13787 0.50772 0.85165 0.0
C440 C 0.13942 0.50986 0.88235 0.0
C441 C 0.17022 0.52309 0.89704 0.0
C442 C 0.19925 0.53427 0.88071 0.0
C443 C 0.19802 0.53202 0.85085 0.0
C444 C 0.23243 0.54819 0.83765 0.0
C445 C 0.23716 0.52213 0.82121 0.0
C446 C 0.23917 0.57774 0.81784 0.0
C447 C 0.25363 0.56025 0.86471 0.0
C448 C 0.23424 0.5514 0.88948 0.0
C449 C 0.24879 0.55943 0.91704 0.0
C450 C 0.28385 0.57727 0.91919 0.0
C451 C 0.30389 0.58765 0.89394 0.0
C452 C 0.28844 0.57882 0.86647 0.0
H453 H 0.6465 0.172 0.9718 0.0
H454 H 0.602 0.10884 0.04764 0.0
H455 H 0.62732 0.15986 0.07844 0.0
H456 H 0.72146 0.23491 0.00315 0.0
H457 H 0.72202 0.26884 0.98368 0.0
H458 H 0.70177 0.22735 0.96807 0.0
H459 H 0.64696 0.22782 0.96277 0.0
H460 H 0.66705 0.26941 0.9782 0.0
H461 H 0.62932 0.23601 0.99416 0.0
H462 H 0.66023 0.21893 0.10097 0.0
H463 H 0.69308 0.27983 0.11248 0.0
H464 H 0.70862 0.3029 0.02077 0.0
C465 C 0.64102 0.16842 0.99474 0.0
C466 C 0.62159 0.13589 0.00702 0.0
C467 C 0.61687 0.1332 0.03751 0.0
C468 C 0.63102 0.16212 0.0552 0.0
C469 C 0.64946 0.19364 0.0421 0.0
C470 C 0.65402 0.19682 0.01247 0.0
C471 C 0.67385 0.23333 0.0033 0.0
C472 C 0.70672 0.24157 0.9887 0.0
C473 C 0.65305 0.24215 0.98344 0.0
C474 C 0.68005 0.25046 0.03247 0.0
C475 C 0.66628 0.22721 0.05469 0.0
C476 C 0.67061 0.23725 0.08368 0.0
C477 C 0.68933 0.27183 0.09002 0.0
C478 C 0.70281 0.29592 0.06748 0.0
C479 C 0.69793 0.28501 0.03838 0.0
H480 H 0.54262 0.66865 0.18238 0.0
H481 H 0.45897 0.56833 0.16669 0.0
H482 H 0.42037 0.58586 0.18402 0.0
H483 H 0.50585 0.68718 0.24845 0.0
H484 H 0.52345 0.73041 0.23773 0.0
H485 H 0.54475 0.70845 0.22901 0.0
H486 H 0.54513 0.72345 0.17491 0.0
H487 H 0.52309 0.74468 0.18326 0.0
H488 H 0.50627 0.71114 0.15694 0.0
H489 H 0.39064 0.61651 0.19331 0.0
H490 H 0.37146 0.65625 0.20236 0.0
H491 H 0.47366 0.73678 0.21542 0.0
C492 C 0.51634 0.65003 0.18417 0.0
C493 C 0.50376 0.61686 0.17396 0.0
C494 C 0.46907 0.59354 0.17516 0.0
C495 C 0.44697 0.60339 0.18471 0.0
C496 C 0.45993 0.63667 0.19325 0.0
C497 C 0.49386 0.6595 0.19386 0.0
C498 C 0.50092 0.69431 0.20211 0.0
C499 C 0.51986 0.70576 0.23105 0.0
C500 C 0.51998 0.71989 0.17785 0.0
C501 C 0.46573 0.68767 0.20511 0.0
C502 C 0.44252 0.65425 0.19968 0.0
C503 C 0.40853 0.64253 0.19836 0.0
C504 C 0.39789 0.66535 0.20324 0.0
C505 C 0.42102 0.69944 0.20984 0.0
C506 C 0.45541 0.71069 0.21091 0.0
H507 H 0.87701 0.46079 0.33934 0.0
H508 H 0.91682 0.55911 0.3788 0.0
H509 H 0.8622 0.53989 0.40157 0.0
H510 H 0.80317 0.45338 0.3178 0.0
H511 H 0.77756 0.40867 0.32342 0.0
H512 H 0.82114 0.42724 0.31548 0.0
H513 H 0.82947 0.40176 0.36239 0.0
H514 H 0.78571 0.38253 0.3703 0.0
H515 H 0.81628 0.40957 0.3967 0.0
H516 H 0.80102 0.512 0.41498 0.0
H517 H 0.73964 0.47776 0.41883 0.0
H518 H 0.73918 0.39977 0.36663 0.0
C519 C 0.87455 0.47817 0.35325 0.0
C520 C 0.90144 0.51157 0.3572 0.0
C521 C 0.89698 0.53327 0.37577 0.0
C522 C 0.86585 0.52264 0.3886 0.0
C523 C 0.83939 0.49024 0.38266 0.0
C524 C 0.84356 0.46825 0.36558 0.0
C525 C 0.81062 0.43613 0.35989 0.0
C526 C 0.80267 0.43109 0.32722 0.0
C527 C 0.81052 0.4057 0.37312 0.0
C528 C 0.78703 0.4437 0.37588 0.0
C529 C 0.80413 0.4748 0.38928 0.0
C530 C 0.78748 0.48752 0.40477 0.0
C531 C 0.75258 0.46792 0.40675 0.0
C532 C 0.73456 0.43614 0.39294 0.0
C533 C 0.75219 0.42401 0.37734 0.0
H534 H 0.12064 0.57041 0.41148 0.0
H535 H 0.09749 0.64954 0.41078 0.0
H536 H 0.13161 0.67416 0.45483 0.0
H537 H 0.12046 0.56361 0.49292 0.0
H538 H 0.15371 0.55486 0.4925 0.0
H539 H 0.12479 0.54164 0.46261 0.0
H540 H 0.17424 0.57378 0.42723 0.0
H541 H 0.20328 0.58774 0.457 0.0
H542 H 0.20309 0.61806 0.43273 0.0
H543 H 0.17348 0.69419 0.49441 0.0
H544 H 0.21406 0.70427 0.53264 0.0
H545 H 0.20882 0.61068 0.51028 0.0
C546 C 0.12194 0.59227 0.42126 0.0
C547 C 0.10605 0.60785 0.40807 0.0
C548 C 0.10879 0.63682 0.42098 0.0
C549 C 0.1284 0.65116 0.4458 0.0
C550 C 0.14462 0.63586 0.45775 0.0
C551 C 0.14093 0.60657 0.44646 0.0
C552 C 0.16151 0.59562 0.4635 0.0
C553 C 0.13876 0.56194 0.47879 0.0
C554 C 0.18704 0.59371 0.44394 0.0
C555 C 0.17845 0.62417 0.48526 0.0
C556 C 0.16824 0.64701 0.48146 0.0
C557 C 0.18117 0.67615 0.49801 0.0
C558 C 0.20443 0.68169 0.51965 0.0
C559 C 0.2146 0.65815 0.52483 0.0
C560 C 0.20157 0.62913 0.50706 0.0
H561 H 0.51543 0.12328 0.56377 0.0
H562 H 0.54416 0.04848 0.56833 0.0
H563 H 0.57645 0.07552 0.61314 0.0
H564 H 0.59141 0.18995 0.57963 0.0
H565 H 0.57765 0.21335 0.60053 0.0
H566 H 0.55083 0.18418 0.57328 0.0
H567 H 0.50424 0.15238 0.6113 0.0
H568 H 0.53065 0.18191 0.63869 0.0
H569 H 0.51321 0.13748 0.64416 0.0
H570 H 0.61342 0.11651 0.65108 0.0
H571 H 0.64908 0.16534 0.68208 0.0
H572 H 0.59662 0.21439 0.65283 0.0
C573 C 0.52737 0.11178 0.575 0.0
C574 C 0.52706 0.08357 0.56301 0.0
C575 C 0.54362 0.06962 0.57761 0.0
C576 C 0.56214 0.085 0.6029 0.0
C577 C 0.56347 0.11401 0.61323 0.0
C578 C 0.54603 0.12694 0.59998 0.0
C579 C 0.55452 0.16041 0.61315 0.0
C580 C 0.56949 0.18862 0.59029 0.0
C581 C 0.52383 0.15788 0.6277 0.0
C582 C 0.58032 0.16497 0.63539 0.0
C583 C 0.58493 0.13781 0.63516 0.0
C584 C 0.60951 0.13751 0.65185 0.0
C585 C 0.62984 0.16556 0.66919 0.0
C586 C 0.62558 0.19366 0.66989 0.0
C587 C 0.6001 0.19308 0.65306 0.0
H588 H 0.46346 0.53843 0.7152 0.0
H589 H 0.38807 0.43997 0.74567 0.0
H590 H 0.38283 0.46545 0.79112 0.0
H591 H 0.50102 0.57611 0.78813 0.0
H592 H 0.50697 0.61613 0.77728 0.0
H593 H 0.50936 0.58898 0.7507 0.0
H594 H 0.46434 0.59163 0.72011 0.0
H595 H 0.46094 0.61782 0.7469 0.0
H596 H 0.42448 0.57881 0.73618 0.0
H597 H 0.37907 0.50355 0.82911 0.0
H598 H 0.382 0.5497 0.85853 0.0
H599 H 0.45941 0.62253 0.80167 0.0
C600 C 0.4471 0.52213 0.73213 0.0
C601 C 0.42663 0.48725 0.72733 0.0
C602 C 0.40457 0.46665 0.74938 0.0
C603 C 0.4012 0.48099 0.77508 0.0
C604 C 0.42034 0.51586 0.77836 0.0
C605 C 0.44343 0.53603 0.75769 0.0
C606 C 0.45867 0.57291 0.76473 0.0
C607 C 0.49623 0.5895 0.77057 0.0
C608 C 0.45167 0.59134 0.74055 0.0
C609 C 0.43992 0.57051 0.79212 0.0
C610 C 0.418 0.53751 0.79985 0.0
C611 C 0.39664 0.52947 0.82353 0.0
C612 C 0.39827 0.55584 0.83998 0.0
C613 C 0.42105 0.58984 0.8326 0.0
C614 C 0.44193 0.59693 0.80823 0.0
H615 H 0.91522 0.45397 0.90874 0.0
H616 H 0.95464 0.38786 0.9177 0.0
H617 H 0.92444 0.3667 0.96377 0.0
H618 H 0.91283 0.47081 0.98765 0.0
H619 H 0.87411 0.46996 0.9839 0.0
H620 H 0.90315 0.48399 0.95416 0.0
H621 H 0.85666 0.43966 0.92085 0.0
H622 H 0.82765 0.42503 0.95055 0.0
H623 H 0.83523 0.39596 0.93108 0.0
H624 H 0.88404 0.34663 0.00444 0.0
H625 H 0.84083 0.33324 0.04082 0.0
H626 H 0.82596 0.41152 0.00593 0.0
C627 C 0.91816 0.43564 0.92075 0.0
C628 C 0.93756 0.42276 0.90954 0.0
C629 C 0.94062 0.39871 0.92596 0.0
C630 C 0.92322 0.38623 0.95207 0.0
C631 C 0.90298 0.39815 0.96161 0.0
C632 C 0.90077 0.42273 0.94677 0.0
C633 C 0.87546 0.4295 0.96077 0.0
C634 C 0.89241 0.46572 0.97231 0.0
C635 C 0.84708 0.42209 0.93954 0.0
C636 C 0.86318 0.40424 0.98537 0.0
C637 C 0.8795 0.38653 0.98538 0.0
C638 C 0.87148 0.3607 0.00495 0.0
C639 C 0.8466 0.35314 0.02546 0.0
C640 C 0.82986 0.37136 0.02646 0.0
C641 C 0.83831 0.39721 0.00594 0.0
H642 H 0.52517 0.89053 0.05601 0.0
H643 H 0.51829 0.97934 0.06846 0.0
H644 H 0.49159 0.95738 0.11611 0.0
H645 H 0.44711 0.83408 0.08059 0.0
H646 H 0.45762 0.80604 0.09808 0.0
H647 H 0.48219 0.83152 0.06815 0.0
H648 H 0.53551 0.85681 0.0998 0.0
H649 H 0.51112 0.83113 0.12987 0.0
H650 H 0.53673 0.87608 0.13409 0.0
H651 H 0.45778 0.92202 0.15761 0.0
H652 H 0.42061 0.8769 0.19109 0.0
H653 H 0.44829 0.80993 0.1517 0.0
C654 C 0.51868 0.90572 0.06905 0.0
C655 C 0.52368 0.93664 0.05854 0.0
C656 C 0.51501 0.95582 0.07624 0.0
C657 C 0.49977 0.94346 0.10327 0.0
C658 C 0.49379 0.91212 0.11234 0.0
C659 C 0.50332 0.89366 0.0959 0.0
C660 C 0.49098 0.85923 0.10899 0.0
C661 C 0.46812 0.83108 0.08769 0.0
C662 C 0.52034 0.85561 0.11877 0.0
C663 C 0.47172 0.86056 0.13477 0.0
C664 C 0.47412 0.89152 0.13647 0.0
C665 C 0.45626 0.89797 0.15683 0.0
C666 C 0.43504 0.87207 0.17562 0.0
C667 C 0.4317 0.83996 0.17403 0.0
C668 C 0.45089 0.8344 0.15375 0.0
H669 H 0.55634 0.46296 0.21371 0.0
H670 H 0.62146 0.56521 0.24334 0.0
H671 H 0.6306 0.54389 0.28939 0.0
H672 H 0.52139 0.42457 0.28704 0.0
H673 H 0.52129 0.38691 0.27738 0.0
H674 H 0.51474 0.41048 0.24987 0.0
H675 H 0.56362 0.41426 0.22046 0.0
H676 H 0.57117 0.3918 0.24822 0.0
H677 H 0.60424 0.43274 0.23698 0.0
H678 H 0.64111 0.51132 0.32781 0.0
H679 H 0.64455 0.46989 0.35914 0.0
H680 H 0.57248 0.3892 0.30395 0.0
C681 C 0.57122 0.48079 0.2305 0.0
C682 C 0.58786 0.51571 0.22515 0.0
C683 C 0.60787 0.53838 0.24727 0.0
C684 C 0.61354 0.52647 0.27335 0.0
C685 C 0.59864 0.49184 0.27708 0.0
C686 C 0.57714 0.46931 0.25656 0.0
C687 C 0.56645 0.43351 0.26452 0.0
C688 C 0.52873 0.41264 0.27004 0.0
C689 C 0.57701 0.41714 0.24116 0.0
C690 C 0.58599 0.43945 0.29228 0.0
C691 C 0.60447 0.4732 0.29921 0.0
C692 C 0.62618 0.48476 0.32291 0.0
C693 C 0.62827 0.4611 0.34039 0.0
C694 C 0.60864 0.42629 0.33413 0.0
C695 C 0.5875 0.41558 0.30958 0.0
H696 H 0.41486 0.93056 0.40399 0.0
H697 H 0.50447 0.92952 0.42446 0.0
H698 H 0.49672 0.89593 0.38028 0.0
H699 H 0.36872 0.84868 0.38416 0.0
H700 H 0.34587 0.85351 0.355 0.0
H701 H 0.36184 0.88346 0.38424 0.0
H702 H 0.39421 0.93241 0.34805 0.0
H703 H 0.3775 0.90276 0.3185 0.0
H704 H 0.42191 0.93034 0.32218 0.0
H705 H 0.4741 0.85487 0.3387 0.0
H706 H 0.4419 0.8147 0.29958 0.0
H707 H 0.36611 0.84159 0.30693 0.0
C708 C 0.43381 0.92487 0.3982 0.0
C709 C 0.46082 0.93342 0.41705 0.0
C710 C 0.48421 0.92398 0.40976 0.0
C711 C 0.47978 0.90464 0.38489 0.0
C712 C 0.45182 0.89496 0.36758 0.0
C713 C 0.42954 0.90529 0.3736 0.0
C714 C 0.39981 0.88873 0.35331 0.0
C715 C 0.36715 0.86733 0.3702 0.0
C716 C 0.39828 0.91513 0.33438 0.0
C717 C 0.40838 0.86684 0.33546 0.0
C718 C 0.43852 0.87087 0.34392 0.0
C719 C 0.45074 0.85196 0.33156 0.0
C720 C 0.43209 0.82895 0.3095 0.0
C721 C 0.40143 0.82491 0.30001 0.0
C722 C 0.38949 0.84408 0.31346 0.0
H723 H 0.46602 0.36317 0.56939 0.0
H724 H 0.5436 0.46518 0.58937 0.0
H725 H 0.57321 0.46715 0.54428 0.0
H726 H 0.51811 0.33662 0.54579 0.0
H727 H 0.49187 0.30957 0.51703 0.0
H728 H 0.47355 0.31782 0.54778 0.0
H729 H 0.44445 0.33946 0.51397 0.0
H730 H 0.46206 0.33055 0.48297 0.0
H731 H 0.46887 0.37213 0.48809 0.0
H732 H 0.59811 0.45504 0.5016 0.0
H733 H 0.61455 0.43194 0.46122 0.0
H734 H 0.52057 0.33729 0.46833 0.0
C735 C 0.4884 0.38638 0.56341 0.0
C736 C 0.50215 0.41447 0.58212 0.0
C737 C 0.53234 0.44391 0.57467 0.0
C738 C 0.54937 0.44509 0.54929 0.0
C739 C 0.53582 0.41654 0.53172 0.0
C740 C 0.50575 0.38788 0.53818 0.0
C741 C 0.49814 0.35972 0.51705 0.0
C742 C 0.49526 0.32914 0.53287 0.0
C743 C 0.4665 0.34989 0.49947 0.0
C744 C 0.52892 0.37676 0.49812 0.0
C745 C 0.5503 0.40952 0.50698 0.0
C746 C 0.5813 0.42964 0.49412 0.0
C747 C 0.59053 0.41614 0.47134 0.0
C748 C 0.5688 0.38281 0.46146 0.0
C749 C 0.53756 0.36296 0.47511 0.0
H750 H 0.13066 0.49572 0.75656 0.0
H751 H 0.05417 0.52143 0.75079 0.0
H752 H 0.07728 0.54915 0.70343 0.0
H753 H 0.19417 0.5709 0.73468 0.0
H754 H 0.21667 0.55551 0.71472 0.0
H755 H 0.18984 0.53115 0.74403 0.0
H756 H 0.15697 0.48017 0.7097 0.0
H757 H 0.18401 0.50424 0.68019 0.0
H758 H 0.13955 0.48515 0.67653 0.0
H759 H 0.11491 0.58293 0.66263 0.0
H760 H 0.16228 0.61837 0.63043 0.0
H761 H 0.21483 0.57079 0.66277 0.0
C762 C 0.11808 0.50617 0.74475 0.0
C763 C 0.09058 0.50641 0.75705 0.0
C764 C 0.07496 0.52067 0.74143 0.0
C765 C 0.08801 0.53649 0.71463 0.0
C766 C 0.11632 0.53732 0.70382 0.0
C767 C 0.13089 0.5221 0.71827 0.0
C768 C 0.16338 0.52999 0.70424 0.0
C769 C 0.19272 0.54795 0.72569 0.0
C770 C 0.16081 0.49797 0.69193 0.0
C771 C 0.16572 0.55327 0.68022 0.0
C772 C 0.1381 0.55681 0.68014 0.0
C773 C 0.13618 0.57971 0.66204 0.0
C774 C 0.16328 0.59983 0.64396 0.0
C775 C 0.19195 0.59696 0.64399 0.0
C776 C 0.19283 0.5728 0.66183 0.0
H777 H 0.57319 0.12266 0.909 0.0
H778 H 0.62325 0.06664 0.89656 0.0
H779 H 0.64351 0.09363 0.84935 0.0
H780 H 0.55484 0.12853 0.83019 0.0
H781 H 0.56407 0.17106 0.83473 0.0
H782 H 0.54676 0.14174 0.86441 0.0
H783 H 0.5962 0.18327 0.89685 0.0
H784 H 0.61408 0.2124 0.8672 0.0
H785 H 0.63818 0.19755 0.88531 0.0
H786 H 0.66754 0.13364 0.80895 0.0
H787 H 0.68895 0.18015 0.77422 0.0
H788 H 0.62572 0.21314 0.81216 0.0
C789 C 0.58767 0.11535 0.89606 0.0
C790 C 0.59641 0.09225 0.90683 0.0
C791 C 0.61536 0.08348 0.8889 0.0
C792 C 0.6274 0.09905 0.86202 0.0
C793 C 0.62028 0.12332 0.85313 0.0
C794 C 0.60038 0.13109 0.86928 0.0
C795 C 0.59951 0.16066 0.85613 0.0
C796 C 0.56419 0.14984 0.84574 0.0
C797 C 0.61279 0.1902 0.87766 0.0
C798 C 0.62306 0.16903 0.83071 0.0
C799 C 0.63447 0.14691 0.8294 0.0
C800 C 0.6583 0.15071 0.80937 0.0
C801 C 0.67057 0.17754 0.7899 0.0
C802 C 0.65908 0.20046 0.79037 0.0
C803 C 0.63478 0.19592 0.81103 0.0
H804 H 0.47857 0.57828 0.07476 0.0
H805 H 0.58595 0.63844 0.06454 0.0
H806 H 0.57845 0.65667 0.01645 0.0
H807 H 0.457 0.55584 0.99659 0.0
H808 H 0.42083 0.55986 -0.00075 0.0
H809 H 0.4345 0.54655 0.0303 0.0
H810 H 0.43729 0.59504 0.06038 0.0
H811 H 0.42433 0.60895 0.02935 0.0
H812 H 0.46265 0.6377 0.04776 0.0
H813 H 0.55996 0.67526 0.97349 0.0
H814 H 0.53179 0.68875 0.93567 0.0
H815 H 0.43585 0.61808 0.9739 0.0
C816 C 0.50053 0.59464 0.06211 0.0
C817 C 0.53291 0.60682 0.07353 0.0
C818 C 0.56092 0.62819 0.0562 0.0
C819 C 0.55691 0.63898 0.02891 0.0
C820 C 0.52472 0.62808 0.01915 0.0
C821 C 0.49696 0.60595 0.03497 0.0
C822 C 0.46526 0.60028 0.02064 0.0
C823 C 0.4431 0.56344 0.01112 0.0
C824 C 0.44628 0.61115 0.04073 0.0
C825 C 0.47963 0.62345 0.99471 0.0
C826 C 0.51396 0.63905 0.99425 0.0
C827 C 0.53306 0.6628 0.97334 0.0
C828 C 0.51671 0.67045 0.95202 0.0
C829 C 0.48143 0.65445 0.9516 0.0
C830 C 0.46276 0.63068 0.97342 0.0
H831 H 0.90146 0.52934 0.25802 0.0
H832 H 0.98284 0.51102 0.24955 0.0
H833 H 0.96064 0.48421 0.20176 0.0
H834 H 0.84108 0.45314 0.23463 0.0
H835 H 0.81644 0.46663 0.2155 0.0
H836 H 0.84262 0.49132 0.24511 0.0
H837 H 0.87261 0.54356 0.21181 0.0
H838 H 0.84615 0.51911 0.18204 0.0
H839 H 0.8908 0.54095 0.17823 0.0
H840 H 0.92376 0.4496 0.16103 0.0
H841 H 0.87693 0.41238 0.1288 0.0
H842 H 0.81901 0.45311 0.16321 0.0
C843 C 0.9152 0.52066 0.24561 0.0
C844 C 0.94387 0.5222 0.25734 0.0
C845 C 0.9611 0.51041 0.24073 0.0
C846 C 0.94857 0.49509 0.21365 0.0
C847 C 0.91913 0.49229 0.20345 0.0
C848 C 0.90294 0.50525 0.21874 0.0
C849 C 0.8697 0.49548 0.20498 0.0
C850 C 0.84078 0.47545 0.22632 0.0
C851 C 0.86984 0.52664 0.19358 0.0
C852 C 0.86886 0.47357 0.18028 0.0
C853 C 0.89784 0.47246 0.17958 0.0
C854 C 0.90142 0.451 0.16087 0.0
C855 C 0.87463 0.42984 0.14278 0.0
C856 C 0.84467 0.43032 0.14337 0.0
C857 C 0.84203 0.45302 0.16185 0.0
loop_
_geom_bond_atom_site_label_1
_geom_bond_atom_site_label_2
_geom_bond_distance
_geom_bond_site_symmetry_2
_ccdc_geom_bond_type
H0 C8 0.930 . S
H1 C11 0.930 . S
H2 C13 0.930 . S
H3 C14 0.970 . S
H4 C14 0.970 . S
H5 C16 0.930 . S
H6 C18 0.930 . S
H7 C20 0.930 . S
C8 H0 0.930 . S
C8 C9 1.382 . S
C8 C10 1.426 . S
C9 C8 1.382 . S
C9 C13 1.389 . S
C10 C8 1.426 . S
C10 C11 1.375 . S
C10 C14 1.532 1_655 S
C11 H1 0.930 . S
C11 C10 1.375 . S
C11 C12 1.416 . S
C12 C11 1.416 . S
C12 C13 1.371 . S
C13 H2 0.930 . S
C13 C9 1.389 . S
C13 C12 1.371 . S
C14 H3 0.970 . S
C14 H4 0.970 . S
C14 C10 1.532 1_455 S
C14 C15 1.499 . S
C15 C14 1.499 . S
C15 C16 1.370 . S
C15 C20 1.415 . S
C16 H5 0.930 . S
C16 C15 1.370 . S
C16 C17 1.407 . S
C17 C16 1.407 . S
C17 C18 1.365 . S
C18 H6 0.930 . S
C18 C17 1.365 . S
C18 C19 1.393 . S
C19 C18 1.393 . S
C19 C20 1.387 . S
C20 H7 0.930 . S
C20 C15 1.415 . S
C20 C19 1.387 . S
H21 C29 0.930 . S
H22 C32 0.930 . S
H23 C34 0.930 . S
H24 C35 0.970 . S
H25 C35 0.970 . S
H26 C37 0.930 . S
H27 C39 0.930 . S
H28 C41 0.930 . S
C29 H21 0.930 . S
C29 C30 1.382 . S
C29 C31 1.426 . S
C30 C29 1.382 . S
C30 C34 1.389 . S
C31 C29 1.426 . S
C31 C32 1.375 . S
C31 C35 1.532 1_565 S
C32 H22 0.930 . S
C32 C31 1.375 . S
C32 C33 1.416 . S
C33 C32 1.416 . S
C33 C34 1.371 . S
C34 H23 0.930 . S
C34 C30 1.389 . S
C34 C33 1.371 . S
C35 H24 0.970 . S
C35 H25 0.970 . S
C35 C31 1.532 1_545 S
C35 C36 1.499 . S
C36 C35 1.499 . S
C36 C37 1.370 . S
C36 C41 1.415 . S
C37 H26 0.930 . S
C37 C36 1.370 . S
C37 C38 1.407 . S
C38 C37 1.407 . S
C38 C39 1.365 . S
C39 H27 0.930 . S
C39 C38 1.365 . S
C39 C40 1.393 . S
C40 C39 1.393 . S
C40 C41 1.387 . S
C41 H28 0.930 . S
C41 C36 1.415 . S
C41 C40 1.387 . S
H42 C50 0.930 . S
H43 C53 0.930 . S
H44 C55 0.930 . S
H45 C56 0.970 . S
H46 C56 0.970 . S
H47 C58 0.930 . S
H48 C60 0.930 . S
H49 C62 0.930 . S
C50 H42 0.930 . S
C50 C51 1.382 . S
C50 C52 1.426 . S
C51 C50 1.382 . S
C51 C55 1.389 . S
C52 C50 1.426 . S
C52 C53 1.375 . S
C52 C56 1.532 . S
C53 H43 0.930 . S
C53 C52 1.375 . S
C53 C54 1.416 . S
C54 C53 1.416 . S
C54 C55 1.371 . S
C55 H44 0.930 . S
C55 C51 1.389 . S
C55 C54 1.371 . S
C56 H45 0.970 . S
C56 H46 0.970 . S
C56 C52 1.532 . S
C56 C57 1.499 . S
C57 C56 1.499 . S
C57 C58 1.370 . S
C57 C62 1.415 . S
C58 H47 0.930 . S
C58 C57 1.370 . S
C58 C59 1.407 . S
C59 C58 1.407 . S
C59 C60 1.365 . S
C60 H48 0.930 . S
C60 C59 1.365 . S
C60 C61 1.393 . S
C61 C60 1.393 . S
C61 C62 1.387 . S
C62 H49 0.930 . S
C62 C57 1.415 . S
C62 C61 1.387 . S
H63 C71 0.930 . S
H64 C74 0.930 . S
H65 C76 0.930 . S
H66 C77 0.968 . S
H67 C77 0.970 . S
H68 C79 0.930 . S
H69 C81 0.930 . S
H70 C83 0.930 . S
C71 H63 0.930 . S
C71 C72 1.382 . S
C71 C73 1.426 . S
C72 C71 1.382 . S
C72 C76 1.389 . S
C73 C71 1.426 . S
C73 C74 1.375 . S
C73 C77 1.532 1_655 S
C74 H64 0.930 . S
C74 C73 1.375 . S
C74 C75 1.416 . S
C75 C74 1.416 . S
C75 C76 1.371 . S
C76 H65 0.930 . S
C76 C72 1.389 . S
C76 C75 1.371 . S
C77 H66 0.968 . S
C77 H67 0.970 . S
C77 C73 1.532 1_455 S
C77 C78 1.499 . S
C78 C77 1.499 . S
C78 C79 1.370 . S
C78 C83 1.415 . S
C79 H68 0.930 . S
C79 C78 1.370 . S
C79 C80 1.407 . S
C80 C79 1.407 . S
C80 C81 1.365 . S
C81 H69 0.930 . S
C81 C80 1.365 . S
C81 C82 1.393 . S
C82 C81 1.393 . S
C82 C83 1.387 . S
C83 H70 0.930 . S
C83 C78 1.415 . S
C83 C82 1.387 . S
H84 C92 0.930 . S
H85 C95 0.930 . S
H86 C97 0.930 . S
H87 C98 0.970 1_554 S
H88 C98 0.970 1_565 S
H89 C100 0.930 . S
H90 C102 0.930 . S
H91 C104 0.930 . S
C92 H84 0.930 . S
C92 C93 1.379 1_554 S
C92 C94 1.426 1_554 S
C93 C92 1.379 1_556 S
C93 C97 1.399 . S
C94 C92 1.426 1_556 S
C94 C95 1.375 . S
C94 C98 1.532 . S
C95 H85 0.930 . S
C95 C94 1.375 . S
C95 C96 1.416 . S
C96 C95 1.416 . S
C96 C97 1.371 . S
C97 H86 0.930 . S
C97 C93 1.399 . S
C97 C96 1.371 . S
C98 H87 0.970 1_556 S
C98 H88 0.970 1_545 S
C98 C94 1.532 . S
C98 C99 1.492 1_546 S
C99 C98 1.492 1_564 S
C99 C100 1.403 . S
C99 C104 1.392 1_554 S
C100 H89 0.930 . S
C100 C99 1.403 . S
C100 C101 1.407 . S
C101 C100 1.407 . S
C101 C102 1.365 . S
C102 H90 0.930 . S
C102 C101 1.365 . S
C102 C103 1.393 1_554 S
C103 C102 1.393 1_556 S
C103 C104 1.387 . S
C104 H91 0.930 . S
C104 C99 1.392 1_556 S
C104 C103 1.387 . S
H105 C113 0.930 . S
H106 C116 0.930 . S
H107 C118 0.930 . S
H108 C119 0.970 . S
H109 C119 0.970 . S
H110 C121 0.930 . S
H111 C123 0.930 . S
H112 C125 0.930 . S
C113 H105 0.930 . S
C113 C114 1.382 . S
C113 C115 1.426 . S
C114 C113 1.382 . S
C114 C118 1.389 . S
C115 C113 1.426 . S
C115 C116 1.375 . S
C115 C119 1.532 . S
C116 H106 0.930 . S
C116 C115 1.375 . S
C116 C117 1.416 . S
C117 C116 1.416 . S
C117 C118 1.371 . S
C118 H107 0.930 . S
C118 C114 1.389 . S
C118 C117 1.371 . S
C119 H108 0.970 . S
C119 H109 0.970 . S
C119 C115 1.532 . S
C119 C120 1.499 . S
C120 C119 1.499 . S
C120 C121 1.370 . S
C120 C125 1.415 . S
C121 H110 0.930 . S
C121 C120 1.370 . S
C121 C122 1.407 . S
C122 C121 1.407 . S
C122 C123 1.365 . S
C123 H111 0.930 . S
C123 C122 1.365 . S
C123 C124 1.393 . S
C124 C123 1.393 . S
C124 C125 1.387 . S
C125 H112 0.930 . S
C125 C120 1.415 . S
C125 C124 1.387 . S
Co126 O127 2.216 . S
Co126 O128 2.091 . S
Co126 O130 2.004 . S
Co126 O136 2.021 . S
Co126 O138 2.137 . S
Co126 O139 2.244 . S
O127 Co126 2.216 . S
O127 C134 1.247 . S
O128 Co126 2.091 . S
O128 C134 1.261 . S
C129 O138 1.247 . S
C129 O139 1.272 . S
O130 Co126 2.004 . S
O130 C135 1.259 . S
Co131 O132 2.061 . S
Co131 O137 2.052 . S
Co131 O139 2.135 . S
O132 Co131 2.061 . S
O132 C135 1.235 . S
C133 O136 1.238 . S
C133 O137 1.241 . S
C134 O127 1.247 . S
C134 O128 1.261 . S
C135 O130 1.259 . S
C135 O132 1.235 . S
O136 Co126 2.021 . S
O136 C133 1.238 . S
O137 Co131 2.052 . S
O137 C133 1.241 . S
O138 Co126 2.137 . S
O138 C129 1.247 . S
O139 Co126 2.244 . S
O139 C129 1.272 . S
O139 Co131 2.135 . S
Co140 O141 2.216 . S
Co140 O142 2.091 . S
Co140 O144 2.004 . S
Co140 O150 2.021 . S
Co140 O152 2.137 . S
Co140 O153 2.244 . S
O141 Co140 2.216 . S
O141 C148 1.247 . S
O142 Co140 2.091 . S
O142 C148 1.261 . S
C143 O152 1.247 . S
C143 O153 1.272 . S
O144 Co140 2.004 . S
O144 C149 1.259 . S
Co145 O146 2.061 . S
Co145 O151 2.052 . S
Co145 O153 2.135 . S
O146 Co145 2.061 . S
O146 C149 1.235 . S
C147 O150 1.238 . S
C147 O151 1.241 . S
C148 O141 1.247 . S
C148 O142 1.261 . S
C149 O144 1.259 . S
C149 O146 1.235 . S
O150 Co140 2.021 . S
O150 C147 1.238 . S
O151 Co145 2.052 . S
O151 C147 1.241 . S
O152 Co140 2.137 . S
O152 C143 1.247 . S
O153 Co140 2.244 . S
O153 C143 1.272 . S
O153 Co145 2.135 . S
Co154 O155 2.216 . S
Co154 O156 2.091 . S
Co154 O158 2.004 . S
Co154 O164 2.021 . S
Co154 O166 2.137 . S
Co154 O167 2.244 . S
O155 Co154 2.216 . S
O155 C162 1.247 . S
O156 Co154 2.091 . S
O156 C162 1.261 . S
C157 O166 1.247 . S
C157 O167 1.272 . S
O158 Co154 2.004 . S
O158 C163 1.259 . S
Co159 O160 2.061 . S
Co159 O165 2.052 . S
Co159 O167 2.135 . S
O160 Co159 2.061 . S
O160 C163 1.235 . S
C161 O164 1.238 . S
C161 O165 1.241 . S
C162 O155 1.247 . S
C162 O156 1.261 . S
C163 O158 1.259 . S
C163 O160 1.235 . S
O164 Co154 2.021 . S
O164 C161 1.238 . S
O165 Co159 2.052 . S
O165 C161 1.241 . S
O166 Co154 2.137 . S
O166 C157 1.247 . S
O167 Co154 2.244 . S
O167 C157 1.272 . S
O167 Co159 2.135 . S
Co168 O169 2.216 . S
Co168 O170 2.091 . S
Co168 O172 2.004 . S
Co168 O178 2.021 . S
Co168 O180 2.137 . S
Co168 O181 2.244 . S
O169 Co168 2.216 . S
O169 C176 1.247 . S
O170 Co168 2.091 . S
O170 C176 1.261 . S
C171 O180 1.247 . S
C171 O181 1.272 . S
O172 Co168 2.004 . S
O172 C177 1.259 . S
Co173 O174 2.061 . S
Co173 O179 2.052 . S
Co173 O181 2.135 . S
O174 Co173 2.061 . S
O174 C177 1.235 . S
C175 O178 1.238 . S
C175 O179 1.241 . S
C176 O169 1.247 . S
C176 O170 1.261 . S
C177 O172 1.259 . S
C177 O174 1.235 . S
O178 Co168 2.021 . S
O178 C175 1.238 . S
O179 Co173 2.052 . S
O179 C175 1.241 . S
O180 Co168 2.137 . S
O180 C171 1.247 . S
O181 Co168 2.244 . S
O181 C171 1.272 . S
O181 Co173 2.135 . S
Co182 O183 2.216 . S
Co182 O184 2.091 . S
Co182 O186 2.004 . S
Co182 O192 2.021 . S
Co182 O194 2.137 . S
Co182 O195 2.244 . S
O183 Co182 2.216 . S
O183 C190 1.247 . S
O184 Co182 2.091 . S
O184 C190 1.261 . S
C185 O194 1.247 . S
C185 O195 1.272 . S
O186 Co182 2.004 . S
O186 C191 1.259 . S
Co187 O188 2.061 . S
Co187 O193 2.052 . S
Co187 O195 2.135 . S
O188 Co187 2.061 . S
O188 C191 1.235 . S
C189 O192 1.238 . S
C189 O193 1.241 . S
C190 O183 1.247 . S
C190 O184 1.261 . S
C191 O186 1.259 . S
C191 O188 1.235 . S
O192 Co182 2.021 . S
O192 C189 1.238 . S
O193 Co187 2.052 . S
O193 C189 1.241 . S
O194 Co182 2.137 . S
O194 C185 1.247 . S
O195 Co182 2.244 . S
O195 C185 1.272 . S
O195 Co187 2.135 . S
Co196 O197 2.216 . S
Co196 O198 2.091 . S
Co196 O200 2.004 . S
Co196 O206 2.021 . S
Co196 O208 2.137 . S
Co196 O209 2.244 . S
O197 Co196 2.216 . S
O197 C204 1.247 . S
O198 Co196 2.091 . S
O198 C204 1.261 . S
C199 O208 1.247 . S
C199 O209 1.272 . S
O200 Co196 2.004 . S
O200 C205 1.259 . S
Co201 O202 2.061 . S
Co201 O207 2.052 . S
Co201 O209 2.135 . S
O202 Co201 2.061 . S
O202 C205 1.235 . S
C203 O206 1.238 . S
C203 O207 1.241 . S
C204 O197 1.247 . S
C204 O198 1.261 . S
C205 O200 1.259 . S
C205 O202 1.235 . S
O206 Co196 2.021 . S
O206 C203 1.238 . S
O207 Co201 2.052 . S
O207 C203 1.241 . S
O208 Co196 2.137 . S
O208 C199 1.247 . S
O209 Co196 2.244 . S
O209 C199 1.272 . S
O209 Co201 2.135 . S
H210 C222 0.930 . S
H211 C224 0.930 . S
H212 C225 0.930 . S
H213 C229 0.959 . S
H214 C229 0.959 . S
H215 C229 0.961 . S
H216 C230 0.960 . S
H217 C230 0.961 . S
H218 C230 0.959 . S
H219 C233 0.929 . S
H220 C234 0.931 . S
H221 C236 0.930 . S
C222 H210 0.930 . S
C222 C223 1.399 . S
C222 C227 1.399 . S
C223 C222 1.399 . S
C223 C224 1.376 . S
C224 H211 0.930 . S
C224 C223 1.376 . S
C224 C225 1.388 . S
C225 H212 0.930 . S
C225 C224 1.388 . S
C225 C226 1.390 . S
C226 C225 1.390 . S
C226 C227 1.394 . S
C226 C232 1.465 . S
C227 C222 1.399 . S
C227 C226 1.394 . S
C227 C228 1.516 . S
C228 C227 1.516 . S
C228 C229 1.502 . S
C228 C230 1.561 . S
C228 C231 1.526 . S
C229 H213 0.959 . S
C229 H214 0.959 . S
C229 H215 0.961 . S
C229 C228 1.502 . S
C230 H216 0.960 . S
C230 H217 0.961 . S
C230 H218 0.959 . S
C230 C228 1.561 . S
C231 C228 1.526 . S
C231 C232 1.396 . S
C231 C236 1.390 . S
C232 C226 1.465 . S
C232 C231 1.396 . S
C232 C233 1.399 . S
C233 H219 0.929 . S
C233 C232 1.399 . S
C233 C234 1.385 . S
C234 H220 0.931 . S
C234 C233 1.385 . S
C234 C235 1.389 . S
C235 C234 1.389 . S
C235 C236 1.387 . S
C236 H221 0.930 . S
C236 C231 1.390 . S
C236 C235 1.387 . S
H237 C249 0.930 . S
H238 C251 0.930 . S
H239 C252 0.930 . S
H240 C256 0.959 . S
H241 C256 0.959 . S
H242 C256 0.961 . S
H243 C257 0.960 . S
H244 C257 0.961 . S
H245 C257 0.959 . S
H246 C260 0.929 . S
H247 C261 0.931 . S
H248 C263 0.930 . S
C249 H237 0.930 . S
C249 C250 1.399 . S
C249 C254 1.399 . S
C250 C249 1.399 . S
C250 C251 1.376 . S
C251 H238 0.930 . S
C251 C250 1.376 . S
C251 C252 1.388 . S
C252 H239 0.930 . S
C252 C251 1.388 . S
C252 C253 1.390 . S
C253 C252 1.390 . S
C253 C254 1.394 . S
C253 C259 1.465 . S
C254 C249 1.399 . S
C254 C253 1.394 . S
C254 C255 1.516 . S
C255 C254 1.516 . S
C255 C256 1.502 . S
C255 C257 1.561 . S
C255 C258 1.526 . S
C256 H240 0.959 . S
C256 H241 0.959 . S
C256 H242 0.961 . S
C256 C255 1.502 . S
C257 H243 0.960 . S
C257 H244 0.961 . S
C257 H245 0.959 . S
C257 C255 1.561 . S
C258 C255 1.526 . S
C258 C259 1.396 . S
C258 C263 1.390 . S
C259 C253 1.465 . S
C259 C258 1.396 . S
C259 C260 1.399 . S
C260 H246 0.929 . S
C260 C259 1.399 . S
C260 C261 1.385 . S
C261 H247 0.931 . S
C261 C260 1.385 . S
C261 C262 1.389 . S
C262 C261 1.389 . S
C262 C263 1.387 . S
C263 H248 0.930 . S
C263 C258 1.390 . S
C263 C262 1.387 . S
H264 C276 0.930 . S
H265 C278 0.930 . S
H266 C279 0.930 . S
H267 C283 0.959 . S
H268 C283 0.959 . S
H269 C283 0.961 . S
H270 C284 0.960 . S
H271 C284 0.961 . S
H272 C284 0.959 . S
H273 C287 0.929 . S
H274 C288 0.931 . S
H275 C290 0.930 . S
C276 H264 0.930 . S
C276 C277 1.399 . S
C276 C281 1.399 . S
C277 C276 1.399 . S
C277 C278 1.376 . S
C278 H265 0.930 . S
C278 C277 1.376 . S
C278 C279 1.388 . S
C279 H266 0.930 . S
C279 C278 1.388 . S
C279 C280 1.390 . S
C280 C279 1.390 . S
C280 C281 1.394 . S
C280 C286 1.465 . S
C281 C276 1.399 . S
C281 C280 1.394 . S
C281 C282 1.516 . S
C282 C281 1.516 . S
C282 C283 1.502 . S
C282 C284 1.561 . S
C282 C285 1.526 . S
C283 H267 0.959 . S
C283 H268 0.959 . S
C283 H269 0.961 . S
C283 C282 1.502 . S
C284 H270 0.960 . S
C284 H271 0.961 . S
C284 H272 0.959 . S
C284 C282 1.561 . S
C285 C282 1.526 . S
C285 C286 1.396 . S
C285 C290 1.390 . S
C286 C280 1.465 . S
C286 C285 1.396 . S
C286 C287 1.399 . S
C287 H273 0.929 . S
C287 C286 1.399 . S
C287 C288 1.385 . S
C288 H274 0.931 . S
C288 C287 1.385 . S
C288 C289 1.389 . S
C289 C288 1.389 . S
C289 C290 1.387 . S
C290 H275 0.930 . S
C290 C285 1.390 . S
C290 C289 1.387 . S
H291 C303 0.930 . S
H292 C305 0.930 . S
H293 C306 0.930 . S
H294 C310 0.959 . S
H295 C310 0.959 . S
H296 C310 0.961 . S
H297 C311 0.960 . S
H298 C311 0.961 . S
H299 C311 0.959 . S
H300 C314 0.929 . S
H301 C315 0.931 . S
H302 C317 0.930 . S
C303 H291 0.930 . S
C303 C304 1.399 . S
C303 C308 1.399 . S
C304 C303 1.399 . S
C304 C305 1.376 . S
C305 H292 0.930 . S
C305 C304 1.376 . S
C305 C306 1.388 . S
C306 H293 0.930 . S
C306 C305 1.388 . S
C306 C307 1.390 . S
C307 C306 1.390 . S
C307 C308 1.394 . S
C307 C313 1.465 . S
C308 C303 1.399 . S
C308 C307 1.394 . S
C308 C309 1.516 . S
C309 C308 1.516 . S
C309 C310 1.502 . S
C309 C311 1.561 . S
C309 C312 1.526 . S
C310 H294 0.959 . S
C310 H295 0.959 . S
C310 H296 0.961 . S
C310 C309 1.502 . S
C311 H297 0.960 . S
C311 H298 0.961 . S
C311 H299 0.959 . S
C311 C309 1.561 . S
C312 C309 1.526 . S
C312 C313 1.396 . S
C312 C317 1.390 . S
C313 C307 1.465 . S
C313 C312 1.396 . S
C313 C314 1.399 . S
C314 H300 0.929 . S
C314 C313 1.399 . S
C314 C315 1.385 . S
C315 H301 0.931 . S
C315 C314 1.385 . S
C315 C316 1.389 . S
C316 C315 1.389 . S
C316 C317 1.387 . S
C317 H302 0.930 . S
C317 C312 1.390 . S
C317 C316 1.387 . S
H318 C330 0.930 . S
H319 C332 0.930 1_554 S
H320 C333 0.930 1_554 S
H321 C337 0.959 . S
H322 C337 0.959 . S
H323 C337 0.961 . S
H324 C338 0.960 . S
H325 C338 0.961 . S
H326 C338 0.959 . S
H327 C341 0.929 . S
H328 C342 0.931 . S
H329 C344 0.930 . S
C330 H318 0.930 . S
C330 C331 1.399 . S
C330 C335 1.399 . S
C331 C330 1.399 . S
C331 C332 1.376 . S
C332 H319 0.930 1_556 S
C332 C331 1.376 . S
C332 C333 1.388 . S
C333 H320 0.930 1_556 S
C333 C332 1.388 . S
C333 C334 1.390 . S
C334 C333 1.390 . S
C334 C335 1.394 . S
C334 C340 1.465 . S
C335 C330 1.399 . S
C335 C334 1.394 . S
C335 C336 1.516 . S
C336 C335 1.516 . S
C336 C337 1.502 . S
C336 C338 1.561 . S
C336 C339 1.526 . S
C337 H321 0.959 . S
C337 H322 0.959 . S
C337 H323 0.961 . S
C337 C336 1.502 . S
C338 H324 0.960 . S
C338 H325 0.961 . S
C338 H326 0.959 . S
C338 C336 1.561 . S
C339 C336 1.526 . S
C339 C340 1.396 . S
C339 C344 1.390 . S
C340 C334 1.465 . S
C340 C339 1.396 . S
C340 C341 1.399 . S
C341 H327 0.929 . S
C341 C340 1.399 . S
C341 C342 1.385 . S
C342 H328 0.931 . S
C342 C341 1.385 . S
C342 C343 1.389 . S
C343 C342 1.389 . S
C343 C344 1.387 . S
C344 H329 0.930 . S
C344 C339 1.390 . S
C344 C343 1.387 . S
H345 C357 0.930 . S
H346 C359 0.930 . S
H347 C360 0.930 . S
H348 C364 0.959 . S
H349 C364 0.959 . S
H350 C364 0.961 . S
H351 C365 0.960 . S
H352 C365 0.961 . S
H353 C365 0.959 . S
H354 C368 0.929 . S
H355 C369 0.931 . S
H356 C371 0.930 . S
C357 H345 0.930 . S
C357 C358 1.399 . S
C357 C362 1.399 . S
C358 C357 1.399 . S
C358 C359 1.376 . S
C359 H346 0.930 . S
C359 C358 1.376 . S
C359 C360 1.388 . S
C360 H347 0.930 . S
C360 C359 1.388 . S
C360 C361 1.390 . S
C361 C360 1.390 . S
C361 C362 1.394 . S
C361 C367 1.465 . S
C362 C357 1.399 . S
C362 C361 1.394 . S
C362 C363 1.516 . S
C363 C362 1.516 . S
C363 C364 1.502 . S
C363 C365 1.561 . S
C363 C366 1.526 . S
C364 H348 0.959 . S
C364 H349 0.959 . S
C364 H350 0.961 . S
C364 C363 1.502 . S
C365 H351 0.960 . S
C365 H352 0.961 . S
C365 H353 0.959 . S
C365 C363 1.561 . S
C366 C363 1.526 . S
C366 C367 1.396 . S
C366 C371 1.390 . S
C367 C361 1.465 . S
C367 C366 1.396 . S
C367 C368 1.399 . S
C368 H354 0.929 . S
C368 C367 1.399 . S
C368 C369 1.385 . S
C369 H355 0.931 . S
C369 C368 1.385 . S
C369 C370 1.389 . S
C370 C369 1.389 . S
C370 C371 1.387 . S
C371 H356 0.930 . S
C371 C366 1.390 . S
C371 C370 1.387 . S
H372 C384 0.930 . S
H373 C386 0.930 . S
H374 C387 0.930 . S
H375 C391 0.959 . S
H376 C391 0.959 . S
H377 C391 0.961 . S
H378 C392 0.960 . S
H379 C392 0.961 . S
H380 C392 0.959 . S
H381 C395 0.929 . S
H382 C396 0.931 . S
H383 C398 0.930 . S
C384 H372 0.930 . S
C384 C385 1.399 . S
C384 C389 1.399 . S
C385 C384 1.399 . S
C385 C386 1.376 . S
C386 H373 0.930 . S
C386 C385 1.376 . S
C386 C387 1.388 . S
C387 H374 0.930 . S
C387 C386 1.388 . S
C387 C388 1.390 . S
C388 C387 1.390 . S
C388 C389 1.394 . S
C388 C394 1.465 . S
C389 C384 1.399 . S
C389 C388 1.394 . S
C389 C390 1.516 . S
C390 C389 1.516 . S
C390 C391 1.502 . S
C390 C392 1.561 . S
C390 C393 1.526 . S
C391 H375 0.959 . S
C391 H376 0.959 . S
C391 H377 0.961 . S
C391 C390 1.502 . S
C392 H378 0.960 . S
C392 H379 0.961 . S
C392 H380 0.959 . S
C392 C390 1.561 . S
C393 C390 1.526 . S
C393 C394 1.396 . S
C393 C398 1.390 . S
C394 C388 1.465 . S
C394 C393 1.396 . S
C394 C395 1.399 . S
C395 H381 0.929 . S
C395 C394 1.399 . S
C395 C396 1.385 . S
C396 H382 0.931 . S
C396 C395 1.385 . S
C396 C397 1.389 . S
C397 C396 1.389 . S
C397 C398 1.387 . S
C398 H383 0.930 . S
C398 C393 1.390 . S
C398 C397 1.387 . S
H399 C411 0.930 . S
H400 C413 0.930 . S
H401 C414 0.930 . S
H402 C418 0.959 . S
H403 C418 0.959 . S
H404 C418 0.961 . S
H405 C419 0.960 . S
H406 C419 0.961 . S
H407 C419 0.959 . S
H408 C422 0.929 . S
H409 C423 0.931 . S
H410 C425 0.930 . S
C411 H399 0.930 . S
C411 C412 1.399 . S
C411 C416 1.399 . S
C412 C411 1.399 . S
C412 C413 1.376 . S
C413 H400 0.930 . S
C413 C412 1.376 . S
C413 C414 1.388 . S
C414 H401 0.930 . S
C414 C413 1.388 . S
C414 C415 1.390 . S
C415 C414 1.390 . S
C415 C416 1.394 . S
C415 C421 1.465 . S
C416 C411 1.399 . S
C416 C415 1.394 . S
C416 C417 1.516 . S
C417 C416 1.516 . S
C417 C418 1.502 . S
C417 C419 1.561 . S
C417 C420 1.526 . S
C418 H402 0.959 . S
C418 H403 0.959 . S
C418 H404 0.961 . S
C418 C417 1.502 . S
C419 H405 0.960 . S
C419 H406 0.961 . S
C419 H407 0.959 . S
C419 C417 1.561 . S
C420 C417 1.526 . S
C420 C421 1.396 . S
C420 C425 1.390 . S
C421 C415 1.465 . S
C421 C420 1.396 . S
C421 C422 1.399 . S
C422 H408 0.929 . S
C422 C421 1.399 . S
C422 C423 1.385 . S
C423 H409 0.931 . S
C423 C422 1.385 . S
C423 C424 1.389 . S
C424 C423 1.389 . S
C424 C425 1.387 . S
C425 H410 0.930 . S
C425 C420 1.390 . S
C425 C424 1.387 . S
H426 C438 0.930 . S
H427 C440 0.930 . S
H428 C441 0.930 . S
H429 C445 0.959 . S
H430 C445 0.959 . S
H431 C445 0.961 . S
H432 C446 0.960 . S
H433 C446 0.961 . S
H434 C446 0.959 . S
H435 C449 0.929 . S
H436 C450 0.931 . S
H437 C452 0.930 . S
C438 H426 0.930 . S
C438 C439 1.399 . S
C438 C443 1.399 . S
C439 C438 1.399 . S
C439 C440 1.376 . S
C440 H427 0.930 . S
C440 C439 1.376 . S
C440 C441 1.388 . S
C441 H428 0.930 . S
C441 C440 1.388 . S
C441 C442 1.390 . S
C442 C441 1.390 . S
C442 C443 1.394 . S
C442 C448 1.465 . S
C443 C438 1.399 . S
C443 C442 1.394 . S
C443 C444 1.516 . S
C444 C443 1.516 . S
C444 C445 1.502 . S
C444 C446 1.561 . S
C444 C447 1.526 . S
C445 H429 0.959 . S
C445 H430 0.959 . S
C445 H431 0.961 . S
C445 C444 1.502 . S
C446 H432 0.960 . S
C446 H433 0.961 . S
C446 H434 0.959 . S
C446 C444 1.561 . S
C447 C444 1.526 . S
C447 C448 1.396 . S
C447 C452 1.390 . S
C448 C442 1.465 . S
C448 C447 1.396 . S
C448 C449 1.399 . S
C449 H435 0.929 . S
C449 C448 1.399 . S
C449 C450 1.385 . S
C450 H436 0.931 . S
C450 C449 1.385 . S
C450 C451 1.389 . S
C451 C450 1.389 . S
C451 C452 1.387 . S
C452 H437 0.930 . S
C452 C447 1.390 . S
C452 C451 1.387 . S
H453 C465 0.930 1_556 S
H454 C467 0.930 . S
H455 C468 0.930 . S
H456 C472 0.959 . S
H457 C472 0.959 . S
H458 C472 0.961 . S
H459 C473 0.960 . S
H460 C473 0.961 . S
H461 C473 0.959 1_554 S
H462 C476 0.929 . S
H463 C477 0.931 . S
H464 C479 0.930 . S
C465 H453 0.930 1_554 S
C465 C466 1.399 . S
C465 C470 1.399 . S
C466 C465 1.399 . S
C466 C467 1.376 . S
C467 H454 0.930 . S
C467 C466 1.376 . S
C467 C468 1.388 . S
C468 H455 0.930 . S
C468 C467 1.388 . S
C468 C469 1.390 . S
C469 C468 1.390 . S
C469 C470 1.394 . S
C469 C475 1.465 . S
C470 C465 1.399 . S
C470 C469 1.394 . S
C470 C471 1.532 . S
C471 C470 1.532 . S
C471 C472 1.472 1_554 S
C471 C473 1.550 1_554 S
C471 C474 1.556 . S
C472 H456 0.959 . S
C472 H457 0.959 . S
C472 H458 0.961 . S
C472 C471 1.472 1_556 S
C473 H459 0.960 . S
C473 H460 0.961 . S
C473 H461 0.959 1_556 S
C473 C471 1.550 1_556 S
C474 C471 1.556 . S
C474 C475 1.396 . S
C474 C479 1.390 . S
C475 C469 1.465 . S
C475 C474 1.396 . S
C475 C476 1.399 . S
C476 H462 0.929 . S
C476 C475 1.399 . S
C476 C477 1.385 . S
C477 H463 0.931 . S
C477 C476 1.385 . S
C477 C478 1.389 . S
C478 C477 1.389 . S
C478 C479 1.387 . S
C479 H464 0.930 . S
C479 C474 1.390 . S
C479 C478 1.387 . S
H480 C492 0.930 . S
H481 C494 0.930 . S
H482 C495 0.930 . S
H483 C499 0.959 . S
H484 C499 0.959 . S
H485 C499 0.961 . S
H486 C500 0.960 . S
H487 C500 0.961 . S
H488 C500 0.959 . S
H489 C503 0.929 . S
H490 C504 0.931 . S
H491 C506 0.930 . S
C492 H480 0.930 . S
C492 C493 1.399 . S
C492 C497 1.399 . S
C493 C492 1.399 . S
C493 C494 1.376 . S
C494 H481 0.930 . S
C494 C493 1.376 . S
C494 C495 1.388 . S
C495 H482 0.930 . S
C495 C494 1.388 . S
C495 C496 1.390 . S
C496 C495 1.390 . S
C496 C497 1.394 . S
C496 C502 1.465 . S
C497 C492 1.399 . S
C497 C496 1.394 . S
C497 C498 1.516 . S
C498 C497 1.516 . S
C498 C499 1.502 . S
C498 C500 1.561 . S
C498 C501 1.526 . S
C499 H483 0.959 . S
C499 H484 0.959 . S
C499 H485 0.961 . S
C499 C498 1.502 . S
C500 H486 0.960 . S
C500 H487 0.961 . S
C500 H488 0.959 . S
C500 C498 1.561 . S
C501 C498 1.526 . S
C501 C502 1.396 . S
C501 C506 1.390 . S
C502 C496 1.465 . S
C502 C501 1.396 . S
C502 C503 1.399 . S
C503 H489 0.929 . S
C503 C502 1.399 . S
C503 C504 1.385 . S
C504 H490 0.931 . S
C504 C503 1.385 . S
C504 C505 1.389 . S
C505 C504 1.389 . S
C505 C506 1.387 . S
C506 H491 0.930 . S
C506 C501 1.390 . S
C506 C505 1.387 . S
H507 C519 0.930 . S
H508 C521 0.930 . S
H509 C522 0.930 . S
H510 C526 0.959 . S
H511 C526 0.959 . S
H512 C526 0.961 . S
H513 C527 0.960 . S
H514 C527 0.961 . S
H515 C527 0.959 . S
H516 C530 0.929 . S
H517 C531 0.931 . S
H518 C533 0.930 . S
C519 H507 0.930 . S
C519 C520 1.399 . S
C519 C524 1.399 . S
C520 C519 1.399 . S
C520 C521 1.376 . S
C521 H508 0.930 . S
C521 C520 1.376 . S
C521 C522 1.388 . S
C522 H509 0.930 . S
C522 C521 1.388 . S
C522 C523 1.390 . S
C523 C522 1.390 . S
C523 C524 1.394 . S
C523 C529 1.465 . S
C524 C519 1.399 . S
C524 C523 1.394 . S
C524 C525 1.516 . S
C525 C524 1.516 . S
C525 C526 1.502 . S
C525 C527 1.561 . S
C525 C528 1.526 . S
C526 H510 0.959 . S
C526 H511 0.959 . S
C526 H512 0.961 . S
C526 C525 1.502 . S
C527 H513 0.960 . S
C527 H514 0.961 . S
C527 H515 0.959 . S
C527 C525 1.561 . S
C528 C525 1.526 . S
C528 C529 1.396 . S
C528 C533 1.390 . S
C529 C523 1.465 . S
C529 C528 1.396 . S
C529 C530 1.399 . S
C530 H516 0.929 . S
C530 C529 1.399 . S
C530 C531 1.385 . S
C531 H517 0.931 . S
C531 C530 1.385 . S
C531 C532 1.389 . S
C532 C531 1.389 . S
C532 C533 1.387 . S
C533 H518 0.930 . S
C533 C528 1.390 . S
C533 C532 1.387 . S
H534 C546 0.930 . S
H535 C548 0.930 . S
H536 C549 0.930 . S
H537 C553 0.959 . S
H538 C553 0.959 . S
H539 C553 0.961 . S
H540 C554 0.960 . S
H541 C554 0.961 . S
H542 C554 0.959 . S
H543 C557 0.929 . S
H544 C558 0.931 . S
H545 C560 0.930 . S
C546 H534 0.930 . S
C546 C547 1.399 . S
C546 C551 1.399 . S
C547 C546 1.399 . S
C547 C548 1.376 . S
C548 H535 0.930 . S
C548 C547 1.376 . S
C548 C549 1.388 . S
C549 H536 0.930 . S
C549 C548 1.388 . S
C549 C550 1.390 . S
C550 C549 1.390 . S
C550 C551 1.394 . S
C550 C556 1.465 . S
C551 C546 1.399 . S
C551 C550 1.394 . S
C551 C552 1.516 . S
C552 C551 1.516 . S
C552 C553 1.502 . S
C552 C554 1.561 . S
C552 C555 1.526 . S
C553 H537 0.959 . S
C553 H538 0.959 . S
C553 H539 0.961 . S
C553 C552 1.502 . S
C554 H540 0.960 . S
C554 H541 0.961 . S
C554 H542 0.959 . S
C554 C552 1.561 . S
C555 C552 1.526 . S
C555 C556 1.396 . S
C555 C560 1.390 . S
C556 C550 1.465 . S
C556 C555 1.396 . S
C556 C557 1.399 . S
C557 H543 0.929 . S
C557 C556 1.399 . S
C557 C558 1.385 . S
C558 H544 0.931 . S
C558 C557 1.385 . S
C558 C559 1.389 . S
C559 C558 1.389 . S
C559 C560 1.387 . S
C560 H545 0.930 . S
C560 C555 1.390 . S
C560 C559 1.387 . S
H561 C573 0.930 . S
H562 C575 0.930 . S
H563 C576 0.930 . S
H564 C580 0.959 . S
H565 C580 0.959 . S
H566 C580 0.961 . S
H567 C581 0.960 . S
H568 C581 0.961 . S
H569 C581 0.959 . S
H570 C584 0.929 . S
H571 C585 0.931 . S
H572 C587 0.930 . S
C573 H561 0.930 . S
C573 C574 1.399 . S
C573 C578 1.399 . S
C574 C573 1.399 . S
C574 C575 1.376 . S
C575 H562 0.930 . S
C575 C574 1.376 . S
C575 C576 1.388 . S
C576 H563 0.930 . S
C576 C575 1.388 . S
C576 C577 1.390 . S
C577 C576 1.390 . S
C577 C578 1.394 . S
C577 C583 1.465 . S
C578 C573 1.399 . S
C578 C577 1.394 . S
C578 C579 1.516 . S
C579 C578 1.516 . S
C579 C580 1.502 . S
C579 C581 1.561 . S
C579 C582 1.526 . S
C580 H564 0.959 . S
C580 H565 0.959 . S
C580 H566 0.961 . S
C580 C579 1.502 . S
C581 H567 0.960 . S
C581 H568 0.961 . S
C581 H569 0.959 . S
C581 C579 1.561 . S
C582 C579 1.526 . S
C582 C583 1.396 . S
C582 C587 1.390 . S
C583 C577 1.465 . S
C583 C582 1.396 . S
C583 C584 1.399 . S
C584 H570 0.929 . S
C584 C583 1.399 . S
C584 C585 1.385 . S
C585 H571 0.931 . S
C585 C584 1.385 . S
C585 C586 1.389 . S
C586 C585 1.389 . S
C586 C587 1.387 . S
C587 H572 0.930 . S
C587 C582 1.390 . S
C587 C586 1.387 . S
H588 C600 0.930 . S
H589 C602 0.930 . S
H590 C603 0.930 . S
H591 C607 0.959 . S
H592 C607 0.959 . S
H593 C607 0.961 . S
H594 C608 0.960 . S
H595 C608 0.961 . S
H596 C608 0.959 . S
H597 C611 0.929 . S
H598 C612 0.931 . S
H599 C614 0.930 . S
C600 H588 0.930 . S
C600 C601 1.399 . S
C600 C605 1.399 . S
C601 C600 1.399 . S
C601 C602 1.376 . S
C602 H589 0.930 . S
C602 C601 1.376 . S
C602 C603 1.388 . S
C603 H590 0.930 . S
C603 C602 1.388 . S
C603 C604 1.390 . S
C604 C603 1.390 . S
C604 C605 1.394 . S
C604 C610 1.465 . S
C605 C600 1.399 . S
C605 C604 1.394 . S
C605 C606 1.516 . S
C606 C605 1.516 . S
C606 C607 1.502 . S
C606 C608 1.561 . S
C606 C609 1.526 . S
C607 H591 0.959 . S
C607 H592 0.959 . S
C607 H593 0.961 . S
C607 C606 1.502 . S
C608 H594 0.960 . S
C608 H595 0.961 . S
C608 H596 0.959 . S
C608 C606 1.561 . S
C609 C606 1.526 . S
C609 C610 1.396 . S
C609 C614 1.390 . S
C610 C604 1.465 . S
C610 C609 1.396 . S
C610 C611 1.399 . S
C611 H597 0.929 . S
C611 C610 1.399 . S
C611 C612 1.385 . S
C612 H598 0.931 . S
C612 C611 1.385 . S
C612 C613 1.389 . S
C613 C612 1.389 . S
C613 C614 1.387 . S
C614 H599 0.930 . S
C614 C609 1.390 . S
C614 C613 1.387 . S
H615 C627 0.930 . S
H616 C629 0.930 . S
H617 C630 0.930 . S
H618 C634 0.959 . S
H619 C634 0.959 . S
H620 C634 0.961 . S
H621 C635 0.960 . S
H622 C635 0.961 . S
H623 C635 0.959 . S
H624 C638 0.929 . S
H625 C639 0.931 . S
H626 C641 0.930 1_554 S
C627 H615 0.930 . S
C627 C628 1.399 . S
C627 C632 1.399 . S
C628 C627 1.399 . S
C628 C629 1.376 . S
C629 H616 0.930 . S
C629 C628 1.376 . S
C629 C630 1.388 . S
C630 H617 0.930 . S
C630 C629 1.388 . S
C630 C631 1.390 . S
C631 C630 1.390 . S
C631 C632 1.394 . S
C631 C637 1.465 . S
C632 C627 1.399 . S
C632 C631 1.394 . S
C632 C633 1.516 . S
C633 C632 1.516 . S
C633 C634 1.502 . S
C633 C635 1.561 . S
C633 C636 1.526 . S
C634 H618 0.959 . S
C634 H619 0.959 . S
C634 H620 0.961 . S
C634 C633 1.502 . S
C635 H621 0.960 . S
C635 H622 0.961 . S
C635 H623 0.959 . S
C635 C633 1.561 . S
C636 C633 1.526 . S
C636 C637 1.396 . S
C636 C641 1.390 . S
C637 C631 1.465 . S
C637 C636 1.396 . S
C637 C638 1.399 . S
C638 H624 0.929 . S
C638 C637 1.399 . S
C638 C639 1.385 . S
C639 H625 0.931 . S
C639 C638 1.385 . S
C639 C640 1.389 1_556 S
C640 C639 1.389 1_554 S
C640 C641 1.387 1_554 S
C641 H626 0.930 1_556 S
C641 C636 1.390 . S
C641 C640 1.387 1_556 S
H642 C654 0.930 . S
H643 C656 0.930 . S
H644 C657 0.930 . S
H645 C661 0.959 . S
H646 C661 0.959 . S
H647 C661 0.961 . S
H648 C662 0.960 . S
H649 C662 0.961 . S
H650 C662 0.959 . S
H651 C665 0.929 . S
H652 C666 0.931 . S
H653 C668 0.930 . S
C654 H642 0.930 . S
C654 C655 1.399 . S
C654 C659 1.399 . S
C655 C654 1.399 . S
C655 C656 1.376 . S
C656 H643 0.930 . S
C656 C655 1.376 . S
C656 C657 1.388 . S
C657 H644 0.930 . S
C657 C656 1.388 . S
C657 C658 1.390 . S
C658 C657 1.390 . S
C658 C659 1.394 . S
C658 C664 1.465 . S
C659 C654 1.399 . S
C659 C658 1.394 . S
C659 C660 1.516 . S
C660 C659 1.516 . S
C660 C661 1.502 . S
C660 C662 1.561 . S
C660 C663 1.526 . S
C661 H645 0.959 . S
C661 H646 0.959 . S
C661 H647 0.961 . S
C661 C660 1.502 . S
C662 H648 0.960 . S
C662 H649 0.961 . S
C662 H650 0.959 . S
C662 C660 1.561 . S
C663 C660 1.526 . S
C663 C664 1.396 . S
C663 C668 1.390 . S
C664 C658 1.465 . S
C664 C663 1.396 . S
C664 C665 1.399 . S
C665 H651 0.929 . S
C665 C664 1.399 . S
C665 C666 1.385 . S
C666 H652 0.931 . S
C666 C665 1.385 . S
C666 C667 1.389 . S
C667 C666 1.389 . S
C667 C668 1.387 . S
C668 H653 0.930 . S
C668 C663 1.390 . S
C668 C667 1.387 . S
H669 C681 0.930 . S
H670 C683 0.930 . S
H671 C684 0.930 . S
H672 C688 0.959 . S
H673 C688 0.959 . S
H674 C688 0.961 . S
H675 C689 0.960 . S
H676 C689 0.961 . S
H677 C689 0.959 . S
H678 C692 0.929 . S
H679 C693 0.931 . S
H680 C695 0.930 . S
C681 H669 0.930 . S
C681 C682 1.399 . S
C681 C686 1.399 . S
C682 C681 1.399 . S
C682 C683 1.376 . S
C683 H670 0.930 . S
C683 C682 1.376 . S
C683 C684 1.388 . S
C684 H671 0.930 . S
C684 C683 1.388 . S
C684 C685 1.390 . S
C685 C684 1.390 . S
C685 C686 1.394 . S
C685 C691 1.465 . S
C686 C681 1.399 . S
C686 C685 1.394 . S
C686 C687 1.516 . S
C687 C686 1.516 . S
C687 C688 1.502 . S
C687 C689 1.561 . S
C687 C690 1.526 . S
C688 H672 0.959 . S
C688 H673 0.959 . S
C688 H674 0.961 . S
C688 C687 1.502 . S
C689 H675 0.960 . S
C689 H676 0.961 . S
C689 H677 0.959 . S
C689 C687 1.561 . S
C690 C687 1.526 . S
C690 C691 1.396 . S
C690 C695 1.390 . S
C691 C685 1.465 . S
C691 C690 1.396 . S
C691 C692 1.399 . S
C692 H678 0.929 . S
C692 C691 1.399 . S
C692 C693 1.385 . S
C693 H679 0.931 . S
C693 C692 1.385 . S
C693 C694 1.389 . S
C694 C693 1.389 . S
C694 C695 1.387 . S
C695 H680 0.930 . S
C695 C690 1.390 . S
C695 C694 1.387 . S
H696 C708 0.930 . S
H697 C710 0.930 . S
H698 C711 0.930 . S
H699 C715 0.959 . S
H700 C715 0.959 . S
H701 C715 0.961 . S
H702 C716 0.960 . S
H703 C716 0.961 . S
H704 C716 0.959 . S
H705 C719 0.929 . S
H706 C720 0.931 . S
H707 C722 0.930 . S
C708 H696 0.930 . S
C708 C709 1.399 . S
C708 C713 1.399 . S
C709 C708 1.399 . S
C709 C710 1.376 . S
C710 H697 0.930 . S
C710 C709 1.376 . S
C710 C711 1.388 . S
C711 H698 0.930 . S
C711 C710 1.388 . S
C711 C712 1.390 . S
C712 C711 1.390 . S
C712 C713 1.394 . S
C712 C718 1.465 . S
C713 C708 1.399 . S
C713 C712 1.394 . S
C713 C714 1.516 . S
C714 C713 1.516 . S
C714 C715 1.502 . S
C714 C716 1.561 . S
C714 C717 1.526 . S
C715 H699 0.959 . S
C715 H700 0.959 . S
C715 H701 0.961 . S
C715 C714 1.502 . S
C716 H702 0.960 . S
C716 H703 0.961 . S
C716 H704 0.959 . S
C716 C714 1.561 . S
C717 C714 1.526 . S
C717 C718 1.396 . S
C717 C722 1.390 . S
C718 C712 1.465 . S
C718 C717 1.396 . S
C718 C719 1.399 . S
C719 H705 0.929 . S
C719 C718 1.399 . S
C719 C720 1.385 . S
C720 H706 0.931 . S
C720 C719 1.385 . S
C720 C721 1.389 . S
C721 C720 1.389 . S
C721 C722 1.387 . S
C722 H707 0.930 . S
C722 C717 1.390 . S
C722 C721 1.387 . S
H723 C735 0.930 . S
H724 C737 0.930 . S
H725 C738 0.930 . S
H726 C742 0.959 . S
H727 C742 0.959 . S
H728 C742 0.961 . S
H729 C743 0.960 . S
H730 C743 0.961 . S
H731 C743 0.959 . S
H732 C746 0.929 . S
H733 C747 0.931 . S
H734 C749 0.930 . S
C735 H723 0.930 . S
C735 C736 1.399 . S
C735 C740 1.399 . S
C736 C735 1.399 . S
C736 C737 1.376 . S
C737 H724 0.930 . S
C737 C736 1.376 . S
C737 C738 1.388 . S
C738 H725 0.930 . S
C738 C737 1.388 . S
C738 C739 1.390 . S
C739 C738 1.390 . S
C739 C740 1.394 . S
C739 C745 1.465 . S
C740 C735 1.399 . S
C740 C739 1.394 . S
C740 C741 1.516 . S
C741 C740 1.516 . S
C741 C742 1.502 . S
C741 C743 1.561 . S
C741 C744 1.526 . S
C742 H726 0.959 . S
C742 H727 0.959 . S
C742 H728 0.961 . S
C742 C741 1.502 . S
C743 H729 0.960 . S
C743 H730 0.961 . S
C743 H731 0.959 . S
C743 C741 1.561 . S
C744 C741 1.526 . S
C744 C745 1.396 . S
C744 C749 1.390 . S
C745 C739 1.465 . S
C745 C744 1.396 . S
C745 C746 1.399 . S
C746 H732 0.929 . S
C746 C745 1.399 . S
C746 C747 1.385 . S
C747 H733 0.931 . S
C747 C746 1.385 . S
C747 C748 1.389 . S
C748 C747 1.389 . S
C748 C749 1.387 . S
C749 H734 0.930 . S
C749 C744 1.390 . S
C749 C748 1.387 . S
H750 C762 0.930 . S
H751 C764 0.930 . S
H752 C765 0.930 . S
H753 C769 0.959 . S
H754 C769 0.959 . S
H755 C769 0.961 . S
H756 C770 0.960 . S
H757 C770 0.961 . S
H758 C770 0.959 . S
H759 C773 0.929 . S
H760 C774 0.931 . S
H761 C776 0.930 . S
C762 H750 0.930 . S
C762 C763 1.399 . S
C762 C767 1.399 . S
C763 C762 1.399 . S
C763 C764 1.376 . S
C764 H751 0.930 . S
C764 C763 1.376 . S
C764 C765 1.388 . S
C765 H752 0.930 . S
C765 C764 1.388 . S
C765 C766 1.390 . S
C766 C765 1.390 . S
C766 C767 1.394 . S
C766 C772 1.465 . S
C767 C762 1.399 . S
C767 C766 1.394 . S
C767 C768 1.516 . S
C768 C767 1.516 . S
C768 C769 1.502 . S
C768 C770 1.561 . S
C768 C771 1.526 . S
C769 H753 0.959 . S
C769 H754 0.959 . S
C769 H755 0.961 . S
C769 C768 1.502 . S
C770 H756 0.960 . S
C770 H757 0.961 . S
C770 H758 0.959 . S
C770 C768 1.561 . S
C771 C768 1.526 . S
C771 C772 1.396 . S
C771 C776 1.390 . S
C772 C766 1.465 . S
C772 C771 1.396 . S
C772 C773 1.399 . S
C773 H759 0.929 . S
C773 C772 1.399 . S
C773 C774 1.385 . S
C774 H760 0.931 . S
C774 C773 1.385 . S
C774 C775 1.389 . S
C775 C774 1.389 . S
C775 C776 1.387 . S
C776 H761 0.930 . S
C776 C771 1.390 . S
C776 C775 1.387 . S
H777 C789 0.930 . S
H778 C791 0.930 . S
H779 C792 0.930 . S
H780 C796 0.959 . S
H781 C796 0.959 . S
H782 C796 0.961 . S
H783 C797 0.960 . S
H784 C797 0.961 . S
H785 C797 0.959 . S
H786 C800 0.929 . S
H787 C801 0.931 . S
H788 C803 0.930 . S
C789 H777 0.930 . S
C789 C790 1.399 . S
C789 C794 1.399 . S
C790 C789 1.399 . S
C790 C791 1.376 . S
C791 H778 0.930 . S
C791 C790 1.376 . S
C791 C792 1.388 . S
C792 H779 0.930 . S
C792 C791 1.388 . S
C792 C793 1.390 . S
C793 C792 1.390 . S
C793 C794 1.394 . S
C793 C799 1.465 . S
C794 C789 1.399 . S
C794 C793 1.394 . S
C794 C795 1.516 . S
C795 C794 1.516 . S
C795 C796 1.502 . S
C795 C797 1.561 . S
C795 C798 1.526 . S
C796 H780 0.959 . S
C796 H781 0.959 . S
C796 H782 0.961 . S
C796 C795 1.502 . S
C797 H783 0.960 . S
C797 H784 0.961 . S
C797 H785 0.959 . S
C797 C795 1.561 . S
C798 C795 1.526 . S
C798 C799 1.396 . S
C798 C803 1.390 . S
C799 C793 1.465 . S
C799 C798 1.396 . S
C799 C800 1.399 . S
C800 H786 0.929 . S
C800 C799 1.399 . S
C800 C801 1.385 . S
C801 H787 0.931 . S
C801 C800 1.385 . S
C801 C802 1.389 . S
C802 C801 1.389 . S
C802 C803 1.387 . S
C803 H788 0.930 . S
C803 C798 1.390 . S
C803 C802 1.387 . S
H804 C816 0.930 . S
H805 C818 0.930 . S
H806 C819 0.930 . S
H807 C823 0.959 . S
H808 C823 0.959 . S
H809 C823 0.961 . S
H810 C824 0.960 . S
H811 C824 0.961 . S
H812 C824 0.959 . S
H813 C827 0.929 . S
H814 C828 0.931 . S
H815 C830 0.930 . S
C816 H804 0.930 . S
C816 C817 1.399 . S
C816 C821 1.399 . S
C817 C816 1.399 . S
C817 C818 1.376 . S
C818 H805 0.930 . S
C818 C817 1.376 . S
C818 C819 1.388 . S
C819 H806 0.930 . S
C819 C818 1.388 . S
C819 C820 1.390 . S
C820 C819 1.390 . S
C820 C821 1.394 . S
C820 C826 1.465 . S
C821 C816 1.399 . S
C821 C820 1.394 . S
C821 C822 1.516 . S
C822 C821 1.516 . S
C822 C823 1.502 . S
C822 C824 1.561 . S
C822 C825 1.526 . S
C823 H807 0.959 . S
C823 H808 0.959 . S
C823 H809 0.961 . S
C823 C822 1.502 . S
C824 H810 0.960 . S
C824 H811 0.961 . S
C824 H812 0.959 . S
C824 C822 1.561 . S
C825 C822 1.526 . S
C825 C826 1.396 . S
C825 C830 1.390 1_554 S
C826 C820 1.465 . S
C826 C825 1.396 . S
C826 C827 1.399 . S
C827 H813 0.929 . S
C827 C826 1.399 . S
C827 C828 1.385 1_554 S
C828 H814 0.931 . S
C828 C827 1.385 1_556 S
C828 C829 1.389 . S
C829 C828 1.389 . S
C829 C830 1.387 . S
C830 H815 0.930 . S
C830 C825 1.390 1_556 S
C830 C829 1.387 . S
H831 C843 0.930 . S
H832 C845 0.930 . S
H833 C846 0.930 . S
H834 C850 0.959 . S
H835 C850 0.959 . S
H836 C850 0.961 . S
H837 C851 0.960 . S
H838 C851 0.961 . S
H839 C851 0.959 . S
H840 C854 0.929 . S
H841 C855 0.931 . S
H842 C857 0.930 . S
C843 H831 0.930 . S
C843 C844 1.399 . S
C843 C848 1.399 . S
C844 C843 1.399 . S
C844 C845 1.376 . S
C845 H832 0.930 . S
C845 C844 1.376 . S
C845 C846 1.388 . S
C846 H833 0.930 . S
C846 C845 1.388 . S
C846 C847 1.390 . S
C847 C846 1.390 . S
C847 C848 1.394 . S
C847 C853 1.465 . S
C848 C843 1.399 . S
C848 C847 1.394 . S
C848 C849 1.516 . S
C849 C848 1.516 . S
C849 C850 1.502 . S
C849 C851 1.561 . S
C849 C852 1.526 . S
C850 H834 0.959 . S
C850 H835 0.959 . S
C850 H836 0.961 . S
C850 C849 1.502 . S
C851 H837 0.960 . S
C851 H838 0.961 . S
C851 H839 0.959 . S
C851 C849 1.561 . S
C852 C849 1.526 . S
C852 C853 1.396 . S
C852 C857 1.390 . S
C853 C847 1.465 . S
C853 C852 1.396 . S
C853 C854 1.399 . S
C854 H840 0.929 . S
C854 C853 1.399 . S
C854 C855 1.385 . S
C855 H841 0.931 . S
C855 C854 1.385 . S
C855 C856 1.389 . S
C856 C855 1.389 . S
C856 C857 1.387 . S
C857 H842 0.930 . S
C857 C852 1.390 . S
C857 C856 1.387 . S
C235 C199 1.593 . S
C223 C19 1.458 . S
C250 C40 1.553 . S
C262 C129 1.596 . S
C277 C51 1.462 . S
C289 C148 1.617 . S
C304 C72 1.491 . S
C316 C157 1.591 . S
C343 C171 1.592 . S
C331 C103 1.463 . S
C358 C114 1.544 . S
C370 C190 1.600 . S
C385 C30 1.532 . S
C397 C143 1.591 . S
C412 C61 1.462 . S
C424 C162 1.595 . S
C439 C82 1.545 . S
C451 C176 1.579 . S
C478 C185 1.589 . S
C466 C93 1.521 1_554 S
C505 C204 1.585 . S
C493 C124 1.525 . S
C532 C134 1.597 . S
C520 C9 1.441 . S
C547 C17 1.400 . S
C559 C149 1.515 . S
C574 C38 1.461 . S
C586 C161 1.479 . S
C613 C175 1.501 . S
C601 C54 1.385 . S
C628 C75 1.376 . S
C640 C191 1.495 . S
C667 C203 1.465 . S
C655 C101 1.457 . S
C694 C133 1.505 . S
C682 C117 1.391 . S
C721 C205 1.525 . S
C709 C33 1.423 . S
C736 C59 1.480 . S
C748 C135 1.516 . S
C775 C147 1.472 . S
C763 C80 1.475 . S
C790 C96 1.385 . S
C802 C163 1.510 . S
C817 C122 1.396 . S
C829 C177 1.503 . S
C844 C12 1.483 . S
C856 C189 1.467 . S
