# Generated by pormake.
# Topology anh, (6,3)-cn, num edge types: 1
# Building blocks:
#     Node 0, Type 0, BuildingBlock: NUHQIS_clean_sbu_0, # of connection points: 6
#     Node 1, Type 0, BuildingBlock: NUHQIS_clean_sbu_0, # of connection points: 6
#     Node 2, Type 0, BuildingBlock: NUHQIS_clean_sbu_0, # of connection points: 6
#     Node 3, Type 1, BuildingBlock: BETDIP_clean_linker_0, # of connection points: 3
#     Node 4, Type 1, BuildingBlock: BETDIP_clean_linker_0, # of connection points: 3
#     Node 5, Type 1, BuildingBlock: BETDIP_clean_linker_0, # of connection points: 3
#     Node 6, Type 1, BuildingBlock: BETDIP_clean_linker_0, # of connection points: 3
#     Node 7, Type 1, BuildingBlock: BETDIP_clean_linker_0, # of connection points: 3
#     Node 8, Type 1, BuildingBlock: BETDIP_clean_linker_0, # of connection points: 3
#     Edge 9, Type (0, 1), BuildingBlock: CIFDUS_clean_linker_0, # of connection points: 2
#     Edge 10, Type (0, 1), BuildingBlock: CIFDUS_clean_linker_0, # of connection points: 2
#     Edge 11, Type (0, 1), BuildingBlock: CIFDUS_clean_linker_0, # of connection points: 2
#     Edge 12, Type (0, 1), BuildingBlock: CIFDUS_clean_linker_0, # of connection points: 2
#     Edge 13, Type (0, 1), BuildingBlock: CIFDUS_clean_linker_0, # of connection points: 2
#     Edge 14, Type (0, 1), BuildingBlock: CIFDUS_clean_linker_0, # of connection points: 2
#     Edge 15, Type (0, 1), BuildingBlock: CIFDUS_clean_linker_0, # of connection points: 2
#     Edge 16, Type (0, 1), BuildingBlock: CIFDUS_clean_linker_0, # of connection points: 2
#     Edge 17, Type (0, 1), BuildingBlock: CIFDUS_clean_linker_0, # of connection points: 2
#     Edge 18, Type (0, 1), BuildingBlock: CIFDUS_clean_linker_0, # of connection points: 2
#     Edge 19, Type (0, 1), BuildingBlock: CIFDUS_clean_linker_0, # of connection points: 2
#     Edge 20, Type (0, 1), BuildingBlock: CIFDUS_clean_linker_0, # of connection points: 2
#     Edge 21, Type (0, 1), BuildingBlock: CIFDUS_clean_linker_0, # of connection points: 2
#     Edge 22, Type (0, 1), BuildingBlock: CIFDUS_clean_linker_0, # of connection points: 2
#     Edge 23, Type (0, 1), BuildingBlock: CIFDUS_clean_linker_0, # of connection points: 2
#     Edge 24, Type (0, 1), BuildingBlock: CIFDUS_clean_linker_0, # of connection points: 2
#     Edge 25, Type (0, 1), BuildingBlock: CIFDUS_clean_linker_0, # of connection points: 2
#     Edge 26, Type (0, 1), BuildingBlock: CIFDUS_clean_linker_0, # of connection points: 2
# Relax obj value: 0.295
# Max RMSD: 0.171
# Mean RMSD: 0.127
data_MOF--net-anh--node1-NUHQIS_clean_sbu_0--node2-BETDIP_clean_linker_0--edge1-CIFDUS_clean_linker_0
_symmetry_space_group_name_H-M    P1
_symmetry_Int_Tables_number       1
_symmetry_cell_setting            triclinic
loop_
_symmetry_equiv_pos_as_xyz
'x, y, z'
_cell_length_a     26.174599
_cell_length_b     26.221385
_cell_length_c     43.68785
_cell_angle_alpha  89.73232
_cell_angle_beta   94.405474
_cell_angle_gamma 119.84577
loop_
_atom_site_label
_atom_site_type_symbol
_atom_site_fract_x
_atom_site_fract_y
_atom_site_fract_z
_atom_type_partial_charge
Tb0 Tb 0.24751 0.67814 0.17105 0.0
Eu1 Eu 0.1773 0.74749 0.14863 0.0
C2 C 0.18733 0.71603 0.21951 0.0
C3 C 1.10707 0.60968 0.16647 0.0
C4 C 0.34167 0.61016 0.1694 0.0
C5 C 0.38727 0.55017 0.16455 0.0
C6 C 0.35371 0.56691 0.1807 0.0
C7 C 0.36421 0.63738 0.14203 0.0
C8 C 0.39807 0.62085 0.12591 0.0
C9 C 0.40922 0.57652 0.13684 0.0
C10 C 0.30142 0.62276 0.18485 0.0
O11 O 0.22972 0.66333 0.12113 0.0
O12 O 0.22388 0.74485 0.10819 0.0
O13 O 0.27044 0.82054 0.16464 0.0
O14 O 0.31798 0.76708 0.1625 0.0
C15 C 0.23161 0.70103 0.10067 0.0
O16 O 1.11619 0.75681 0.11535 0.0
O17 O 1.15465 0.81612 0.15544 0.0
O18 O 1.15724 0.72585 0.19727 0.0
O19 O 0.23102 0.70669 0.21437 0.0
O20 O 1.1568 0.61797 0.1807 0.0
O21 O 1.10646 0.64925 0.14786 0.0
C22 C 0.31949 0.81781 0.16561 0.0
O23 O 0.3213 0.67751 0.19329 0.0
O24 O 0.24805 0.59862 0.17145 0.0
C25 C 1.0512 0.77013 0.14371 0.0
C26 C 0.93949 0.68453 0.1604 0.0
C27 C 0.94707 0.70256 0.12988 0.0
C28 C 1.00263 0.7451 0.1216 0.0
C29 C 1.04149 0.75803 0.17484 0.0
C30 C 0.98615 0.71527 0.18309 0.0
C31 C 1.1112 0.79292 0.1338 0.0
H32 H 0.39594 0.51648 0.17369 0.0
H33 H 0.33619 0.54529 0.2017 0.0
H34 H 0.3545 0.67038 0.13284 0.0
H35 H 0.41415 0.64154 0.10452 0.0
H36 H 0.91185 0.67958 0.11185 0.0
H37 H 1.00893 0.75357 0.09749 0.0
H38 H 1.07783 0.7771 0.19255 0.0
H39 H 0.98119 0.70292 0.20684 0.0
Tb40 Tb 0.79925 0.22256 0.50454 0.0
Eu41 Eu 0.65846 0.17654 0.4999 0.0
C42 C 0.7279 0.17709 0.56141 0.0
C43 C 0.71007 1.08446 0.50156 0.0
C44 C 0.94592 0.33877 0.50037 0.0
C45 C 0.98207 0.44016 0.51735 0.0
C46 C 0.97035 0.38323 0.52375 0.0
C47 C 0.94163 0.35446 0.46982 0.0
C48 C 0.95333 0.41122 0.46346 0.0
C49 C 0.97004 0.4534 0.48743 0.0
C50 C 0.90987 0.2767 0.50865 0.0
O51 O 0.77764 0.23489 0.45648 0.0
O52 O 0.67686 0.17418 0.45096 0.0
O53 O 0.69983 0.27309 0.48973 0.0
O54 O 0.78725 0.29738 0.51684 0.0
C55 C 0.72742 0.20591 0.43912 0.0
O56 O 0.56714 0.12537 0.48074 0.0
O57 O 0.58801 0.17925 0.5223 0.0
O58 O 0.69724 0.19952 0.54865 0.0
O59 O 0.7681 0.17485 0.54638 0.0
O60 O 0.76276 0.12763 0.49562 0.0
O61 O 0.66686 1.09469 0.50704 0.0
C62 C 0.75005 0.31298 0.50394 0.0
O63 O 0.87917 0.26937 0.53209 0.0
O64 O 0.87779 0.23894 0.48612 0.0
C65 C 0.49888 1.08905 0.51807 0.0
C66 C 0.39816 0.98477 0.5316 0.0
C67 C 0.39637 1.03733 0.52928 0.0
C68 C 0.44653 1.08924 0.5223 0.0
C69 C 0.50289 1.03862 0.52449 0.0
C70 C 0.4527 0.98665 0.5313 0.0
C71 C 0.54639 0.13885 0.50369 0.0
H72 H 0.99548 0.47212 0.5362 0.0
H73 H 0.97445 0.37253 0.54747 0.0
H74 H 0.92375 0.32171 0.4511 0.0
H75 H 0.94536 0.42097 0.44004 0.0
H76 H 0.3547 1.03684 0.52909 0.0
H77 H 0.4431 0.12815 0.5178 0.0
H78 H 0.54342 1.03808 0.52178 0.0
H79 H 0.45497 0.94656 0.5329 0.0
Tb80 Tb 0.80141 0.72264 0.83844 0.0
Eu81 Eu 0.71252 0.58573 0.81772 0.0
C82 C 0.76212 0.6249 0.88835 0.0
C83 C 0.8537 0.63707 0.83272 0.0
C84 C 0.83178 0.87041 0.8433 0.0
C85 C 0.75551 0.89073 0.85775 0.0
C86 C 0.80182 0.87993 0.86607 0.0
C87 C 0.82191 0.88275 0.81276 0.0
C88 C 0.77573 0.89354 0.80448 0.0
C89 C 0.73913 0.89268 0.82661 0.0
C90 C 0.85736 0.83173 0.84961 0.0
O91 O 0.76597 0.71789 0.79051 0.0
O92 O 0.76016 0.63189 0.7772 0.0
O93 O 0.65565 0.62966 0.81387 0.0
O94 O 0.71373 0.70465 0.8487 0.0
C95 C 0.76621 0.68245 0.76948 0.0
O96 O 0.68643 0.51125 0.78614 0.0
O97 O 0.6309 0.50301 0.82232 0.0
O98 O 0.71975 0.5868 0.86884 0.0
O99 O 0.80252 0.67748 0.88056 0.0
O100 O 0.86216 0.69067 0.82909 0.0
O101 O 0.80006 0.59123 0.83376 0.0
C102 C 0.66276 0.67222 0.83266 0.0
O103 O 0.83261 0.79339 0.8705 0.0
O104 O 0.86457 0.8071 0.82564 0.0
C105 C 0.63223 0.41809 0.80668 0.0
C106 C 0.62 0.30602 0.8137 0.0
C107 C 0.57557 0.31275 0.7971 0.0
C108 C 0.58169 0.3683 0.79367 0.0
C109 C 0.67572 0.41186 0.82438 0.0
C110 C 0.66967 0.35608 0.82785 0.0
C111 C 0.63995 0.47613 0.80018 0.0
H112 H 0.72856 0.89075 0.87537 0.0
H113 H 0.80918 0.8719 0.88992 0.0
H114 H 0.84516 0.87744 0.79467 0.0
H115 H 0.76522 0.89705 0.78036 0.0
H116 H 0.53734 0.27547 0.78534 0.0
H117 H 0.54781 0.37256 0.77994 0.0
H118 H 0.71494 0.45018 0.83474 0.0
H119 H 0.70445 0.35228 0.84088 0.0
H120 H 0.65051 0.17896 0.16521 0.0
H121 H 0.74292 0.26924 0.2515 0.0
H122 H 0.58653 1.09965 0.25079 0.0
H123 H 0.82216 0.30154 0.22513 0.0
C124 C 0.80885 0.31339 0.20333 0.0
C125 C 0.65494 0.18049 0.19009 0.0
C126 C 0.61205 0.13324 0.20621 0.0
C127 C 0.7046 0.22891 0.2062 0.0
C128 C 0.70816 0.23088 0.2387 0.0
C129 C 0.66574 0.18479 0.25504 0.0
C130 C 0.6189 0.13591 0.23846 0.0
N131 N 0.74972 0.27548 0.18978 0.0
H132 H 0.73935 0.65568 0.49715 0.0
H133 H 0.76237 0.75152 0.58173 0.0
H134 H 0.76714 0.58989 0.58349 0.0
H135 H 0.68416 0.76147 0.55095 0.0
C136 C 0.71307 0.78175 0.53266 0.0
C137 C 0.74679 0.65995 0.52197 0.0
C138 C 0.75459 0.61721 0.5385 0.0
C139 C 0.74824 0.70813 0.53756 0.0
C140 C 0.75865 0.71353 0.56984 0.0
C141 C 0.76658 0.67178 0.58674 0.0
C142 C 0.76376 0.62376 0.57072 0.0
N143 N 0.74144 0.75207 0.52085 0.0
H144 H 0.20742 0.64848 0.82945 0.0
H145 H 0.31438 0.68239 0.91554 0.0
H146 H 1.14679 0.67533 0.91352 0.0
H147 H 0.3888 0.72977 0.8806 0.0
C148 C 0.373 0.69327 0.86397 0.0
C149 C 0.21401 0.65691 0.85409 0.0
C150 C 0.16997 0.66007 0.86966 0.0
C151 C 0.2669 0.66519 0.87036 0.0
C152 C 0.27474 0.6764 0.90253 0.0
C153 C 0.23168 0.68052 0.91804 0.0
C154 C 0.17972 0.6718 0.90148 0.0
N155 N 0.31095 0.66116 0.85437 0.0
H156 H 1.0733 0.80647 0.45352 0.0
H157 H 0.97183 0.71118 0.37114 0.0
H158 H 1.14467 0.73333 0.39311 0.0
H159 H 0.87478 0.71458 0.42906 0.0
C160 C 0.91537 0.71271 0.43185 0.0
C161 C 1.06943 0.78089 0.43322 0.0
C162 C 1.11598 0.77189 0.42621 0.0
C163 C 1.01656 0.75611 0.41429 0.0
C164 C 1.01184 0.72726 0.38637 0.0
C165 C 1.05969 0.72197 0.37759 0.0
C166 C 1.10923 0.74028 0.39885 0.0
N167 N 0.96851 0.76167 0.42318 0.0
H168 H 0.45963 0.92431 0.76739 0.0
H169 H 0.48492 0.88897 0.67563 0.0
H170 H 0.59229 1.06219 0.71748 0.0
H171 H 0.37957 0.76235 0.74988 0.0
C172 C 0.42008 0.8042 0.74907 0.0
C173 C 0.48457 0.93888 0.7474 0.0
C174 C 0.52945 0.99768 0.7461 0.0
C175 C 0.46975 0.89917 0.72243 0.0
C176 C 0.49817 0.91909 0.69535 0.0
C177 C 0.54374 0.97772 0.69382 0.0
C178 C 0.55956 1.01624 0.7194 0.0
N179 N 0.42376 0.83993 0.72379 0.0
H180 H 0.55736 0.366 0.1026 0.0
H181 H 0.70444 0.40139 0.05147 0.0
H182 H 0.59766 0.4802 0.02633 0.0
H183 H 0.6629 0.33752 0.14937 0.0
C184 C 0.66278 0.36962 0.13361 0.0
C185 C 0.58285 0.38598 0.08317 0.0
C186 C 0.57153 0.42397 0.06495 0.0
C187 C 0.6324 0.38028 0.07936 0.0
C188 C 0.6666 0.40657 0.05465 0.0
C189 C 0.65402 0.44266 0.03533 0.0
C190 C 0.60677 0.45144 0.04079 0.0
N191 N 0.65034 0.35188 0.10181 0.0
H192 H 0.38162 0.46451 0.12335 0.0
H193 H 0.51262 0.64541 0.11111 0.0
H194 H 0.5718 0.61346 0.08498 0.0
H195 H 0.58982 0.53462 0.06955 0.0
H196 H 0.45987 0.35356 0.08239 0.0
H197 H 0.39663 0.38511 0.10468 0.0
C198 C 0.42317 0.49685 0.11495 0.0
C199 C 0.44315 0.55716 0.11938 0.0
C200 C 0.45703 0.47818 0.10021 0.0
C201 C 0.49636 0.59873 0.10787 0.0
C202 C 0.53025 0.5805 0.09306 0.0
C203 C 0.54698 0.50195 0.07648 0.0
C204 C 0.52935 0.44184 0.07426 0.0
C205 C 0.51139 0.52041 0.08953 0.0
C206 C 0.47438 0.4001 0.08403 0.0
C207 C 0.43834 0.4181 0.09677 0.0
H208 H 0.88152 0.46175 0.4564 0.0
H209 H 1.05175 0.56622 0.50681 0.0
H210 H 1.04688 0.65577 0.4966 0.0
H211 H 0.99537 0.70383 0.47192 0.0
H212 H 0.82842 0.60022 0.4188 0.0
H213 H 0.82903 0.50981 0.43284 0.0
C214 C 0.91786 0.50425 0.46483 0.0
C215 C 0.96761 0.5078 0.48169 0.0
C216 C 0.91479 0.55517 0.45876 0.0
C217 C 1.01335 0.56269 0.49354 0.0
C218 C 1.01052 0.61371 0.48773 0.0
C219 C 0.96005 0.6616 0.46268 0.0
C220 C 0.91342 0.65848 0.44303 0.0
C221 C 0.96184 0.61045 0.47 0.0
C222 C 0.8654 0.60338 0.43334 0.0
C223 C 0.86595 0.55194 0.44122 0.0
H224 H 0.66186 0.81464 0.78301 0.0
H225 H 0.68084 0.94509 0.84965 0.0
H226 H 0.57995 0.924 0.83394 0.0
H227 H 0.48801 0.87083 0.79958 0.0
H228 H 0.4729 0.74515 0.7312 0.0
H229 H 0.57026 0.76035 0.74998 0.0
C230 C 0.64437 0.8393 0.79374 0.0
C231 C 0.67926 0.8826 0.81682 0.0
C232 C 0.58685 0.82697 0.78462 0.0
C233 C 0.65504 0.9122 0.8315 0.0
C234 C 0.59741 0.9 0.8226 0.0
C235 C 0.50642 0.84724 0.78874 0.0
C236 C 0.47452 0.80796 0.76368 0.0
C237 C 0.56318 0.85789 0.79895 0.0
C238 C 0.49734 0.77583 0.75044 0.0
C239 C 0.55297 0.78486 0.76099 0.0
H240 H 0.82345 0.64402 0.14232 0.0
H241 H 0.94069 0.59601 0.19266 0.0
H242 H 0.86078 0.49429 0.19324 0.0
H243 H 0.76398 0.41607 0.1703 0.0
H244 H 0.64539 0.46522 0.12308 0.0
H245 H 0.71963 0.5682 0.12922 0.0
C246 C 0.83118 0.61136 0.15376 0.0
C247 C 0.88798 0.62733 0.16696 0.0
C248 C 0.78574 0.5525 0.15316 0.0
C249 C 0.89726 0.58493 0.18232 0.0
C250 C 0.85192 0.52646 0.18221 0.0
C251 C 0.75437 0.44944 0.16159 0.0
C252 C 0.70128 0.4325 0.14357 0.0
C253 C 0.79696 0.50926 0.16628 0.0
C254 C 0.68793 0.47614 0.13401 0.0
C255 C 0.73007 0.5356 0.13831 0.0
H256 H 0.3789 0.91758 0.48239 0.0
H257 H 0.29394 0.93197 0.55984 0.0
H258 H 0.19719 0.85725 0.53542 0.0
H259 H 1.13718 0.79994 0.48856 0.0
H260 H 0.22723 0.81026 0.40748 0.0
H261 H 0.32082 0.8605 0.43713 0.0
C262 C 0.33941 0.90274 0.49447 0.0
C263 C 0.34323 0.92923 0.52295 0.0
C264 C 0.28446 0.86429 0.47929 0.0
C265 C 0.29175 0.91128 0.538 0.0
C266 C 0.23662 0.86926 0.52386 0.0
C267 C 0.17706 0.81345 0.47717 0.0
C268 C 0.17362 0.79992 0.44554 0.0
C269 C 0.2323 0.84761 0.49381 0.0
C270 C 0.22664 0.81712 0.43179 0.0
C271 C 0.28108 0.84714 0.44869 0.0
H272 H 0.52384 0.19786 0.81885 0.0
H273 H 0.70982 0.28409 0.8054 0.0
H274 H 0.69983 0.19032 0.78966 0.0
H275 H 0.63484 1.08908 0.76953 0.0
H276 H 0.44681 1.0068 0.77667 0.0
H277 H 0.46111 1.09271 0.80556 0.0
C278 C 0.56235 0.19591 0.81294 0.0
C279 C 0.61712 0.24809 0.81259 0.0
C280 C 0.55574 0.1424 0.80239 0.0
C281 C 0.66705 0.2447 0.80582 0.0
C282 C 0.66126 0.19111 0.79646 0.0
C283 C 0.59712 1.08965 0.77785 0.0
C284 C 0.53979 1.04214 0.77031 0.0
C285 C 0.60526 0.14045 0.79305 0.0
C286 C 0.49148 1.04267 0.78205 0.0
C287 C 0.49952 1.09217 0.7983 0.0
H288 H 0.77903 1.03686 0.48556 0.0
H289 H 0.62054 0.99418 0.52915 0.0
H290 H 0.60751 0.89811 0.54145 0.0
H291 H 0.64249 0.82677 0.54226 0.0
H292 H 0.7979 0.86486 0.49743 0.0
H293 H 0.81043 0.96108 0.48318 0.0
C294 C 0.74134 1.00638 0.49751 0.0
C295 C 0.70091 1.0236 0.50633 0.0
C296 C 0.73353 0.94999 0.50445 0.0
C297 C 0.65235 0.98286 0.52178 0.0
C298 C 0.64488 0.9276 0.52901 0.0
C299 C 0.67887 0.85588 0.52909 0.0
C300 C 0.7192 0.83837 0.52099 0.0
C301 C 0.68538 0.91084 0.52078 0.0
C302 C 0.76597 0.87678 0.50388 0.0
C303 C 0.77324 0.93206 0.49584 0.0
H304 H 0.96549 0.70436 0.81333 0.0
H305 H 0.86099 0.55125 0.8649 0.0
H306 H 0.94793 0.54149 0.8785 0.0
H307 H 1.05574 0.58083 0.87929 0.0
H308 H 1.1602 0.73071 0.82602 0.0
H309 H 1.07172 0.73672 0.80914 0.0
C310 C 0.96163 0.66853 0.82731 0.0
C311 C 0.90642 0.62887 0.83825 0.0
C312 C 1.01203 0.66245 0.83467 0.0
C313 C 0.90248 0.58239 0.85606 0.0
C314 C 0.9524 0.57684 0.86395 0.0
C315 C 1.05881 0.61388 0.86334 0.0
C316 C 1.11465 0.65502 0.85375 0.0
C317 C 1.00762 0.61706 0.8538 0.0
C318 C 1.11785 0.69795 0.83336 0.0
C319 C 1.06724 0.70178 0.824 0.0
H320 H 0.354 0.9349 0.15418 0.0
H321 H 0.42017 0.82414 0.19156 0.0
H322 H 0.51652 0.91026 0.20504 0.0
H323 H 0.58165 1.01786 0.20925 0.0
H324 H 0.51992 0.13033 0.17004 0.0
H325 H 0.42366 1.04373 0.1539 0.0
C326 C 0.38959 0.92962 0.16513 0.0
C327 C 0.37899 0.87243 0.17196 0.0
C328 C 0.4463 0.98 0.1724 0.0
C329 C 0.42634 0.867 0.18588 0.0
C330 C 0.48182 0.9165 0.1937 0.0
C331 C 0.54755 1.02335 0.19655 0.0
C332 C 0.55843 1.08075 0.19066 0.0
C333 C 0.4923 0.97325 0.18737 0.0
C334 C 0.51333 1.08687 0.17445 0.0
C335 C 0.45792 1.0372 0.16553 0.0
H336 H 0.68162 0.36273 0.48437 0.0
H337 H 0.84844 0.40554 0.53354 0.0
H338 H 0.86716 0.5043 0.54566 0.0
H339 H 0.83257 0.57635 0.54675 0.0
H340 H 0.66734 0.53602 0.49713 0.0
H341 H 0.65225 0.43978 0.48057 0.0
C342 C 0.7223 0.3937 0.49757 0.0
C343 C 0.76288 0.37543 0.50848 0.0
C344 C 0.73312 0.45133 0.50456 0.0
C345 C 0.81568 0.41717 0.52517 0.0
C346 C 0.82658 0.47408 0.53216 0.0
C347 C 0.79362 0.54687 0.5319 0.0
C348 C 0.75095 0.56368 0.52341 0.0
C349 C 0.78506 0.49128 0.52264 0.0
C350 C 0.70111 0.52482 0.50392 0.0
C351 C 0.69222 0.46935 0.49468 0.0
H352 H 0.54151 0.60543 0.81432 0.0
H353 H 0.67223 0.76811 0.86162 0.0
H354 H 0.59582 0.78994 0.87308 0.0
H355 H 0.49139 0.76108 0.87327 0.0
H356 H 0.35763 0.59892 0.82743 0.0
H357 H 0.43468 0.5789 0.81203 0.0
C358 C 0.5533 0.6458 0.82695 0.0
C359 C 0.61338 0.68476 0.83719 0.0
C360 C 0.50815 0.6581 0.83409 0.0
C361 C 0.62703 0.73685 0.85351 0.0
C362 C 0.58306 0.74952 0.86021 0.0
C363 C 0.47894 0.72142 0.85972 0.0
C364 C 0.41852 0.68145 0.85176 0.0
C365 C 0.52345 0.71013 0.85117 0.0
C366 C 0.40356 0.63054 0.83398 0.0
C367 C 0.44782 0.61902 0.82524 0.0
H368 H 0.99738 0.53606 0.1329 0.0
H369 H 1.09039 0.56765 0.22303 0.0
H370 H 1.0072 0.48147 0.24153 0.0
H371 H 0.9104 0.39438 0.23273 0.0
H372 H 0.81262 0.35708 0.14411 0.0
H373 H 0.89432 0.44694 0.12457 0.0
C374 C 0.99911 0.52417 0.15659 0.0
C375 C 1.05116 0.55852 0.17633 0.0
C376 C 0.95028 0.47281 0.16739 0.0
C377 C 1.05198 0.54208 0.20702 0.0
C378 C 1.00413 0.49255 0.21778 0.0
C379 C 0.90666 0.4058 0.20908 0.0
C380 C 0.8553 0.36867 0.19 0.0
C381 C 0.95357 0.45712 0.19818 0.0
C382 C 0.85148 0.38459 0.15943 0.0
C383 C 0.89845 0.43609 0.14825 0.0
H384 H 0.23226 0.76715 0.05231 0.0
H385 H 0.24843 0.61525 0.07531 0.0
H386 H 0.25522 0.59812 0.02114 0.0
H387 H 0.25026 0.62296 0.96636 0.0
H388 H 0.23118 0.77333 0.94432 0.0
H389 H 0.2325 0.79468 -0.00119 0.0
C390 C 0.23761 0.73041 0.04562 0.0
C391 C 0.23927 0.69231 0.068 0.0
C392 C 0.24103 0.72054 0.01442 0.0
C393 C 0.24654 0.64515 0.05867 0.0
C394 C 0.2505 0.63531 0.02763 0.0
C395 C 0.24745 0.6609 0.97366 0.0
C396 C 0.24064 0.69657 0.9514 0.0
C397 C 0.247 0.67226 0.00519 0.0
C398 C 0.23632 0.74524 0.96106 0.0
C399 C 0.2369 0.75735 -0.0078 0.0
H400 H 0.63208 0.16994 0.39745 0.0
H401 H 0.82211 0.24995 0.40386 0.0
H402 H 0.8203 0.25151 0.34774 0.0
H403 H 0.76403 0.2269 0.29657 0.0
H404 H 0.57429 0.15046 0.29132 0.0
H405 H 0.57696 0.15022 0.34709 0.0
C406 C 0.67327 0.18782 0.38669 0.0
C407 C 0.72713 0.20942 0.40503 0.0
C408 C 0.67196 0.18884 0.35445 0.0
C409 C 0.77995 0.23295 0.39045 0.0
C410 C 0.77894 0.23375 0.35829 0.0
C411 C 0.72331 0.21079 0.30759 0.0
C412 C 0.6689 0.18788 0.28945 0.0
C413 C 0.72511 0.21145 0.34 0.0
C414 C 0.61669 0.16696 0.30441 0.0
C415 C 0.61815 0.1672 0.33643 0.0
H416 H 0.82234 0.65633 0.72882 0.0
H417 H 0.71476 0.73687 0.73616 0.0
H418 H 0.7065 0.74264 0.67994 0.0
H419 H 0.72295 0.7161 0.6286 0.0
H420 H 0.83766 0.64245 0.62287 0.0
H421 H 0.84914 0.6419 0.6785 0.0
C422 C 0.79772 0.6759 0.71811 0.0
C423 C 0.76878 0.69569 0.73648 0.0
C424 C 0.79357 0.67931 0.68602 0.0
C425 C 0.73761 0.72155 0.72244 0.0
C426 C 0.73254 0.72439 0.69031 0.0
C427 C 0.75138 0.70092 0.6394 0.0
C428 C 0.77794 0.67773 0.6211 0.0
C429 C 0.75934 0.70219 0.67179 0.0
C430 C 0.81461 0.65839 0.63596 0.0
C431 C 0.82184 0.65862 0.66793 0.0
H432 H 0.61452 1.10002 0.56822 0.0
H433 H 0.78981 0.1695 0.61313 0.0
H434 H 0.74828 1.10931 0.65773 0.0
H435 H 0.66077 1.04185 0.68492 0.0
H436 H 0.48646 0.96956 0.63801 0.0
H437 H 0.52892 1.02494 0.59269 0.0
C438 C 0.64357 1.10192 0.58782 0.0
C439 C 0.70486 0.14002 0.58797 0.0
C440 C 0.61953 1.06629 0.6127 0.0
C441 C 0.74241 0.141 0.6129 0.0
C442 C 0.71865 1.10658 0.63825 0.0
C443 C 0.63237 1.03755 0.66451 0.0
C444 C 0.5706 1.00188 0.66474 0.0
C445 C 0.65716 1.06968 0.63855 0.0
C446 C 0.53409 0.99626 0.63822 0.0
C447 C 0.5583 1.02837 0.61244 0.0
H448 H 0.74468 0.51953 0.90568 0.0
H449 H 0.77906 0.68744 0.94165 0.0
H450 H 0.75557 0.6468 -0.00729 0.0
H451 H 0.71035 0.55924 0.02447 0.0
H452 H 0.67592 0.39159 0.98799 0.0
H453 H 0.71536 0.43644 0.93973 0.0
C454 C 0.74829 0.54748 0.92494 0.0
C455 C 0.7627 0.60601 0.92008 0.0
C456 C 0.73422 0.52364 0.95391 0.0
C457 C 0.76809 0.64227 0.94504 0.0
C458 C 0.75417 0.61887 0.97408 0.0
C459 C 0.71277 0.533 0.00611 0.0
C460 C 0.68964 0.47215 0.0094 0.0
C461 C 0.73493 0.55902 0.97843 0.0
C462 C 0.69348 0.43846 0.98581 0.0
C463 C 0.7156 0.464 0.95822 0.0
H464 H 1.10727 0.74291 0.23868 0.0
H465 H 0.21767 0.67056 0.26988 0.0
H466 H 0.17797 0.65454 0.32016 0.0
H467 H 1.11561 0.66557 0.35569 0.0
H468 H 1.01467 0.74897 0.32528 0.0
H469 H 1.04321 0.7513 0.27351 0.0
C470 C 1.12287 0.72368 0.2564 0.0
C471 C 1.16614 0.70881 0.25058 0.0
C472 C 1.10021 0.71497 0.28518 0.0
C473 C 0.18528 0.68348 0.27387 0.0
C474 C 1.16212 0.67375 0.30252 0.0
C475 C 1.09999 0.6847 0.3379 0.0
C476 C 1.06398 0.70835 0.34499 0.0
C477 C 1.1201 0.69004 0.30853 0.0
C478 C 1.042 0.72999 0.32093 0.0
C479 C 1.05929 0.73249 0.29127 0.0
loop_
_geom_bond_atom_site_label_1
_geom_bond_atom_site_label_2
_geom_bond_distance
_geom_bond_site_symmetry_2
_ccdc_geom_bond_type
Tb0 C10 2.825 . S
Tb0 O11 2.347 . S
Tb0 O14 2.366 . S
Tb0 O19 2.418 . S
Tb0 O20 2.384 . S
Tb0 O23 2.479 . S
Tb0 O24 2.471 . S
Eu1 O12 2.418 . S
Eu1 O13 2.384 . S
Eu1 O16 2.479 1_455 S
Eu1 O17 2.471 1_455 S
Eu1 O18 2.347 . S
Eu1 O21 2.366 1_455 S
Eu1 C31 2.825 1_455 S
C2 O18 1.259 . S
C2 O19 1.265 . S
C3 O20 1.255 1_655 S
C3 O21 1.265 . S
C4 C6 1.380 . S
C4 C7 1.374 . S
C4 C10 1.507 . S
C5 C6 1.384 . S
C5 C9 1.387 . S
C5 H32 0.930 . S
C6 C4 1.380 . S
C6 C5 1.384 . S
C6 H33 0.931 . S
C7 C4 1.374 . S
C7 C8 1.390 . S
C7 H34 0.930 . S
C8 C7 1.390 . S
C8 C9 1.391 . S
C8 H35 0.930 . S
C9 C5 1.387 . S
C9 C8 1.391 . S
C10 Tb0 2.825 . S
C10 C4 1.507 . S
C10 O23 1.238 . S
C10 O24 1.247 . S
O11 Tb0 2.347 . S
O11 C15 1.259 . S
O12 Eu1 2.418 . S
O12 C15 1.265 . S
O13 Eu1 2.384 . S
O13 C22 1.255 . S
O14 Tb0 2.366 . S
O14 C22 1.265 . S
C15 O11 1.259 . S
C15 O12 1.265 . S
O16 Eu1 2.479 1_655 S
O16 C31 1.238 . S
O17 Eu1 2.471 1_655 S
O17 C31 1.247 . S
O18 Eu1 2.347 . S
O18 C2 1.259 . S
O19 Tb0 2.418 . S
O19 C2 1.265 . S
O20 Tb0 2.384 . S
O20 C3 1.255 1_455 S
O21 Eu1 2.366 1_655 S
O21 C3 1.265 . S
C22 O13 1.255 . S
C22 O14 1.265 . S
O23 Tb0 2.479 . S
O23 C10 1.238 . S
O24 Tb0 2.471 . S
O24 C10 1.247 . S
C25 C28 1.380 . S
C25 C29 1.374 . S
C25 C31 1.507 . S
C26 C27 1.387 . S
C26 C30 1.391 . S
C27 C26 1.387 . S
C27 C28 1.384 . S
C27 H36 0.930 . S
C28 C25 1.380 . S
C28 C27 1.384 . S
C28 H37 0.931 . S
C29 C25 1.374 . S
C29 C30 1.390 . S
C29 H38 0.930 . S
C30 C26 1.391 . S
C30 C29 1.390 . S
C30 H39 0.930 . S
C31 Eu1 2.825 1_655 S
C31 O16 1.238 . S
C31 O17 1.247 . S
C31 C25 1.507 . S
H32 C5 0.930 . S
H33 C6 0.931 . S
H34 C7 0.930 . S
H35 C8 0.930 . S
H36 C27 0.930 . S
H37 C28 0.931 . S
H38 C29 0.930 . S
H39 C30 0.930 . S
Tb40 C50 2.825 . S
Tb40 O51 2.347 . S
Tb40 O54 2.366 . S
Tb40 O59 2.418 . S
Tb40 O60 2.384 . S
Tb40 O63 2.479 . S
Tb40 O64 2.471 . S
Eu41 O52 2.418 . S
Eu41 O53 2.384 . S
Eu41 O56 2.479 1_545 S
Eu41 O57 2.471 1_545 S
Eu41 O58 2.347 . S
Eu41 O61 2.366 1_545 S
Eu41 C71 2.825 1_545 S
C42 O58 1.259 . S
C42 O59 1.265 . S
C43 O60 1.255 1_565 S
C43 O61 1.265 . S
C44 C46 1.380 . S
C44 C47 1.374 . S
C44 C50 1.507 . S
C45 C46 1.384 . S
C45 C49 1.387 . S
C45 H72 0.930 . S
C46 C44 1.380 . S
C46 C45 1.384 . S
C46 H73 0.931 . S
C47 C44 1.374 . S
C47 C48 1.390 . S
C47 H74 0.930 . S
C48 C47 1.390 . S
C48 C49 1.391 . S
C48 H75 0.930 . S
C49 C45 1.387 . S
C49 C48 1.391 . S
C50 Tb40 2.825 . S
C50 C44 1.507 . S
C50 O63 1.238 . S
C50 O64 1.247 . S
O51 Tb40 2.347 . S
O51 C55 1.259 . S
O52 Eu41 2.418 . S
O52 C55 1.265 . S
O53 Eu41 2.384 . S
O53 C62 1.255 . S
O54 Tb40 2.366 . S
O54 C62 1.265 . S
C55 O51 1.259 . S
C55 O52 1.265 . S
O56 Eu41 2.479 1_565 S
O56 C71 1.238 . S
O57 Eu41 2.471 1_565 S
O57 C71 1.247 . S
O58 Eu41 2.347 . S
O58 C42 1.259 . S
O59 Tb40 2.418 . S
O59 C42 1.265 . S
O60 Tb40 2.384 . S
O60 C43 1.255 1_545 S
O61 Eu41 2.366 1_565 S
O61 C43 1.265 . S
C62 O53 1.255 . S
C62 O54 1.265 . S
O63 Tb40 2.479 . S
O63 C50 1.238 . S
O64 Tb40 2.471 . S
O64 C50 1.247 . S
C65 C68 1.380 . S
C65 C69 1.374 . S
C65 C71 1.507 . S
C66 C67 1.387 . S
C66 C70 1.391 . S
C67 C66 1.387 . S
C67 C68 1.384 . S
C67 H76 0.930 . S
C68 C65 1.380 . S
C68 C67 1.384 . S
C68 H77 0.931 . S
C69 C65 1.374 . S
C69 C70 1.390 . S
C69 H78 0.930 . S
C70 C66 1.391 . S
C70 C69 1.390 . S
C70 H79 0.930 . S
C71 Eu41 2.825 1_565 S
C71 O56 1.238 . S
C71 O57 1.247 . S
C71 C65 1.507 . S
H72 C45 0.930 . S
H73 C46 0.931 . S
H74 C47 0.930 . S
H75 C48 0.930 . S
H76 C67 0.930 . S
H77 C68 0.931 . S
H78 C69 0.930 . S
H79 C70 0.930 . S
Tb80 C90 2.825 . S
Tb80 O91 2.347 . S
Tb80 O94 2.366 . S
Tb80 O99 2.418 . S
Tb80 O100 2.384 . S
Tb80 O103 2.479 . S
Tb80 O104 2.471 . S
Eu81 O92 2.418 . S
Eu81 O93 2.384 . S
Eu81 O96 2.479 . S
Eu81 O97 2.471 . S
Eu81 O98 2.347 . S
Eu81 O101 2.366 . S
Eu81 C111 2.825 . S
C82 O98 1.259 . S
C82 O99 1.265 . S
C83 O100 1.255 . S
C83 O101 1.265 . S
C84 C86 1.380 . S
C84 C87 1.374 . S
C84 C90 1.507 . S
C85 C86 1.384 . S
C85 C89 1.387 . S
C85 H112 0.930 . S
C86 C84 1.380 . S
C86 C85 1.384 . S
C86 H113 0.931 . S
C87 C84 1.374 . S
C87 C88 1.390 . S
C87 H114 0.930 . S
C88 C87 1.390 . S
C88 C89 1.391 . S
C88 H115 0.930 . S
C89 C85 1.387 . S
C89 C88 1.391 . S
C90 Tb80 2.825 . S
C90 C84 1.507 . S
C90 O103 1.238 . S
C90 O104 1.247 . S
O91 Tb80 2.347 . S
O91 C95 1.259 . S
O92 Eu81 2.418 . S
O92 C95 1.265 . S
O93 Eu81 2.384 . S
O93 C102 1.255 . S
O94 Tb80 2.366 . S
O94 C102 1.265 . S
C95 O91 1.259 . S
C95 O92 1.265 . S
O96 Eu81 2.479 . S
O96 C111 1.238 . S
O97 Eu81 2.471 . S
O97 C111 1.247 . S
O98 Eu81 2.347 . S
O98 C82 1.259 . S
O99 Tb80 2.418 . S
O99 C82 1.265 . S
O100 Tb80 2.384 . S
O100 C83 1.255 . S
O101 Eu81 2.366 . S
O101 C83 1.265 . S
C102 O93 1.255 . S
C102 O94 1.265 . S
O103 Tb80 2.479 . S
O103 C90 1.238 . S
O104 Tb80 2.471 . S
O104 C90 1.247 . S
C105 C108 1.380 . S
C105 C109 1.374 . S
C105 C111 1.507 . S
C106 C107 1.387 . S
C106 C110 1.391 . S
C107 C106 1.387 . S
C107 C108 1.384 . S
C107 H116 0.930 . S
C108 C105 1.380 . S
C108 C107 1.384 . S
C108 H117 0.931 . S
C109 C105 1.374 . S
C109 C110 1.390 . S
C109 H118 0.930 . S
C110 C106 1.391 . S
C110 C109 1.390 . S
C110 H119 0.930 . S
C111 Eu81 2.825 . S
C111 O96 1.238 . S
C111 O97 1.247 . S
C111 C105 1.507 . S
H112 C85 0.930 . S
H113 C86 0.931 . S
H114 C87 0.930 . S
H115 C88 0.930 . S
H116 C107 0.930 . S
H117 C108 0.931 . S
H118 C109 0.930 . S
H119 C110 0.930 . S
H120 C125 0.930 . S
H121 C128 0.930 . S
H122 C130 0.930 1_565 S
H123 C124 1.016 . S
C124 H123 1.016 . S
C124 N131 1.286 . S
C125 H120 0.930 . S
C125 C126 1.397 1_545 S
C125 C127 1.361 . S
C126 C125 1.397 1_565 S
C126 C130 1.390 1_565 S
C127 C125 1.361 . S
C127 C128 1.393 . S
C127 N131 1.413 . S
C128 H121 0.930 . S
C128 C127 1.393 . S
C128 C129 1.399 . S
C129 C128 1.399 . S
C129 C130 1.381 . S
C130 H122 0.930 1_545 S
C130 C126 1.390 1_545 S
C130 C129 1.381 . S
N131 C124 1.286 . S
N131 C127 1.413 . S
H132 C137 0.930 . S
H133 C140 0.930 . S
H134 C142 0.930 . S
H135 C136 1.016 . S
C136 H135 1.016 . S
C136 N143 1.286 . S
C137 H132 0.930 . S
C137 C138 1.397 . S
C137 C139 1.361 . S
C138 C137 1.397 . S
C138 C142 1.390 . S
C139 C137 1.361 . S
C139 C140 1.393 . S
C139 N143 1.413 . S
C140 H133 0.930 . S
C140 C139 1.393 . S
C140 C141 1.399 . S
C141 C140 1.399 . S
C141 C142 1.381 . S
C142 H134 0.930 . S
C142 C138 1.390 . S
C142 C141 1.381 . S
N143 C136 1.286 . S
N143 C139 1.413 . S
H144 C149 0.930 . S
H145 C152 0.930 . S
H146 C154 0.930 . S
H147 C148 1.016 . S
C148 H147 1.016 . S
C148 N155 1.286 . S
C149 H144 0.930 . S
C149 C150 1.397 . S
C149 C151 1.361 1_655 S
C150 C149 1.397 . S
C150 C154 1.390 . S
C151 C149 1.361 1_455 S
C151 C152 1.393 . S
C151 N155 1.413 . S
C152 H145 0.930 . S
C152 C151 1.393 . S
C152 C153 1.399 . S
C153 C152 1.399 . S
C153 C154 1.381 1_455 S
C154 H146 0.930 . S
C154 C150 1.390 . S
C154 C153 1.381 1_655 S
N155 C148 1.286 . S
N155 C151 1.413 . S
H156 C161 0.930 . S
H157 C164 0.930 . S
H158 C166 0.930 . S
H159 C160 1.016 . S
C160 H159 1.016 . S
C160 N167 1.286 . S
C161 H156 0.930 . S
C161 C162 1.397 . S
C161 C163 1.361 . S
C162 C161 1.397 . S
C162 C166 1.390 . S
C163 C161 1.361 . S
C163 C164 1.393 1_455 S
C163 N167 1.413 1_455 S
C164 H157 0.930 . S
C164 C163 1.393 1_655 S
C164 C165 1.399 1_655 S
C165 C164 1.399 1_455 S
C165 C166 1.381 . S
C166 H158 0.930 . S
C166 C162 1.390 . S
C166 C165 1.381 . S
N167 C160 1.286 . S
N167 C163 1.413 1_655 S
H168 C173 0.930 . S
H169 C176 0.930 . S
H170 C178 0.930 . S
H171 C172 1.016 . S
C172 H171 1.016 . S
C172 N179 1.286 . S
C173 H168 0.930 . S
C173 C174 1.397 . S
C173 C175 1.361 . S
C174 C173 1.397 . S
C174 C178 1.390 . S
C175 C173 1.361 . S
C175 C176 1.393 1_545 S
C175 N179 1.413 1_545 S
C176 H169 0.930 . S
C176 C175 1.393 1_565 S
C176 C177 1.399 1_565 S
C177 C176 1.399 1_545 S
C177 C178 1.381 . S
C178 H170 0.930 . S
C178 C174 1.390 . S
C178 C177 1.381 . S
N179 C172 1.286 . S
N179 C175 1.413 1_565 S
H180 C185 0.930 . S
H181 C188 0.930 . S
H182 C190 0.930 . S
H183 C184 1.016 . S
C184 H183 1.016 . S
C184 N191 1.286 . S
C185 H180 0.930 . S
C185 C186 1.397 . S
C185 C187 1.361 . S
C186 C185 1.397 . S
C186 C190 1.390 . S
C187 C185 1.361 . S
C187 C188 1.393 . S
C187 N191 1.413 . S
C188 H181 0.930 . S
C188 C187 1.393 . S
C188 C189 1.399 . S
C189 C188 1.399 . S
C189 C190 1.381 . S
C190 H182 0.930 . S
C190 C186 1.390 . S
C190 C189 1.381 . S
N191 C184 1.286 . S
N191 C187 1.413 . S
H192 C198 0.930 . S
H193 C201 0.930 . S
H194 C202 0.930 . S
H195 C203 0.930 . S
H196 C206 0.930 . S
H197 C207 0.930 . S
C198 H192 0.930 . S
C198 C199 1.355 . S
C198 C200 1.415 . S
C199 C198 1.355 . S
C199 C201 1.419 . S
C200 C198 1.415 . S
C200 C205 1.425 . S
C200 C207 1.409 . S
C201 H193 0.930 . S
C201 C199 1.419 . S
C201 C202 1.362 . S
C202 H194 0.930 . S
C202 C201 1.362 . S
C202 C205 1.409 . S
C203 H195 0.930 . S
C203 C204 1.355 . S
C203 C205 1.415 . S
C204 C203 1.355 . S
C204 C206 1.419 . S
C205 C200 1.425 . S
C205 C202 1.409 . S
C205 C203 1.415 . S
C206 H196 0.930 . S
C206 C204 1.419 . S
C206 C207 1.362 . S
C207 H197 0.930 . S
C207 C200 1.409 . S
C207 C206 1.362 . S
H208 C214 0.930 . S
H209 C217 0.930 . S
H210 C218 0.930 . S
H211 C219 0.930 . S
H212 C222 0.930 . S
H213 C223 0.930 . S
C214 H208 0.930 . S
C214 C215 1.355 . S
C214 C216 1.415 . S
C215 C214 1.355 . S
C215 C217 1.419 . S
C216 C214 1.415 . S
C216 C221 1.425 . S
C216 C223 1.409 . S
C217 H209 0.930 . S
C217 C215 1.419 . S
C217 C218 1.362 . S
C218 H210 0.930 . S
C218 C217 1.362 . S
C218 C221 1.409 . S
C219 H211 0.930 . S
C219 C220 1.355 . S
C219 C221 1.415 . S
C220 C219 1.355 . S
C220 C222 1.419 . S
C221 C216 1.425 . S
C221 C218 1.409 . S
C221 C219 1.415 . S
C222 H212 0.930 . S
C222 C220 1.419 . S
C222 C223 1.362 . S
C223 H213 0.930 . S
C223 C216 1.409 . S
C223 C222 1.362 . S
H224 C230 0.930 . S
H225 C233 0.930 . S
H226 C234 0.930 . S
H227 C235 0.930 . S
H228 C238 0.930 . S
H229 C239 0.930 . S
C230 H224 0.930 . S
C230 C231 1.355 . S
C230 C232 1.415 . S
C231 C230 1.355 . S
C231 C233 1.419 . S
C232 C230 1.415 . S
C232 C237 1.425 . S
C232 C239 1.409 . S
C233 H225 0.930 . S
C233 C231 1.419 . S
C233 C234 1.362 . S
C234 H226 0.930 . S
C234 C233 1.362 . S
C234 C237 1.409 . S
C235 H227 0.930 . S
C235 C236 1.355 . S
C235 C237 1.415 . S
C236 C235 1.355 . S
C236 C238 1.419 . S
C237 C232 1.425 . S
C237 C234 1.409 . S
C237 C235 1.415 . S
C238 H228 0.930 . S
C238 C236 1.419 . S
C238 C239 1.362 . S
C239 H229 0.930 . S
C239 C232 1.409 . S
C239 C238 1.362 . S
H240 C246 0.930 . S
H241 C249 0.930 . S
H242 C250 0.930 . S
H243 C251 0.930 . S
H244 C254 0.930 . S
H245 C255 0.930 . S
C246 H240 0.930 . S
C246 C247 1.355 . S
C246 C248 1.415 . S
C247 C246 1.355 . S
C247 C249 1.419 . S
C248 C246 1.415 . S
C248 C253 1.425 . S
C248 C255 1.409 . S
C249 H241 0.930 . S
C249 C247 1.419 . S
C249 C250 1.362 . S
C250 H242 0.930 . S
C250 C249 1.362 . S
C250 C253 1.409 . S
C251 H243 0.930 . S
C251 C252 1.355 . S
C251 C253 1.415 . S
C252 C251 1.355 . S
C252 C254 1.419 . S
C253 C248 1.425 . S
C253 C250 1.409 . S
C253 C251 1.415 . S
C254 H244 0.930 . S
C254 C252 1.419 . S
C254 C255 1.362 . S
C255 H245 0.930 . S
C255 C248 1.409 . S
C255 C254 1.362 . S
H256 C262 0.930 . S
H257 C265 0.930 . S
H258 C266 0.930 . S
H259 C267 0.930 . S
H260 C270 0.930 . S
H261 C271 0.930 . S
C262 H256 0.930 . S
C262 C263 1.355 . S
C262 C264 1.415 . S
C263 C262 1.355 . S
C263 C265 1.419 . S
C264 C262 1.415 . S
C264 C269 1.425 . S
C264 C271 1.409 . S
C265 H257 0.930 . S
C265 C263 1.419 . S
C265 C266 1.362 . S
C266 H258 0.930 . S
C266 C265 1.362 . S
C266 C269 1.409 . S
C267 H259 0.930 . S
C267 C268 1.355 . S
C267 C269 1.415 . S
C268 C267 1.355 . S
C268 C270 1.419 . S
C269 C264 1.425 . S
C269 C266 1.409 . S
C269 C267 1.415 . S
C270 H260 0.930 . S
C270 C268 1.419 . S
C270 C271 1.362 . S
C271 H261 0.930 . S
C271 C264 1.409 . S
C271 C270 1.362 . S
H272 C278 0.930 . S
H273 C281 0.930 . S
H274 C282 0.930 . S
H275 C283 0.930 . S
H276 C286 0.930 . S
H277 C287 0.930 . S
C278 H272 0.930 . S
C278 C279 1.355 . S
C278 C280 1.415 . S
C279 C278 1.355 . S
C279 C281 1.419 . S
C280 C278 1.415 . S
C280 C285 1.425 . S
C280 C287 1.409 . S
C281 H273 0.930 . S
C281 C279 1.419 . S
C281 C282 1.362 . S
C282 H274 0.930 . S
C282 C281 1.362 . S
C282 C285 1.409 . S
C283 H275 0.930 . S
C283 C284 1.355 . S
C283 C285 1.415 . S
C284 C283 1.355 . S
C284 C286 1.419 . S
C285 C280 1.425 . S
C285 C282 1.409 . S
C285 C283 1.415 . S
C286 H276 0.930 . S
C286 C284 1.419 . S
C286 C287 1.362 . S
C287 H277 0.930 . S
C287 C280 1.409 . S
C287 C286 1.362 . S
H288 C294 0.930 . S
H289 C297 0.930 . S
H290 C298 0.930 . S
H291 C299 0.930 . S
H292 C302 0.930 . S
H293 C303 0.930 . S
C294 H288 0.930 . S
C294 C295 1.355 . S
C294 C296 1.415 . S
C295 C294 1.355 . S
C295 C297 1.419 . S
C296 C294 1.415 . S
C296 C301 1.425 . S
C296 C303 1.409 . S
C297 H289 0.930 . S
C297 C295 1.419 . S
C297 C298 1.362 . S
C298 H290 0.930 . S
C298 C297 1.362 . S
C298 C301 1.409 . S
C299 H291 0.930 . S
C299 C300 1.355 . S
C299 C301 1.415 . S
C300 C299 1.355 . S
C300 C302 1.419 . S
C301 C296 1.425 . S
C301 C298 1.409 . S
C301 C299 1.415 . S
C302 H292 0.930 . S
C302 C300 1.419 . S
C302 C303 1.362 . S
C303 H293 0.930 . S
C303 C296 1.409 . S
C303 C302 1.362 . S
H304 C310 0.930 . S
H305 C313 0.930 . S
H306 C314 0.930 . S
H307 C315 0.930 . S
H308 C318 0.930 . S
H309 C319 0.930 . S
C310 H304 0.930 . S
C310 C311 1.355 . S
C310 C312 1.415 . S
C311 C310 1.355 . S
C311 C313 1.419 . S
C312 C310 1.415 . S
C312 C317 1.425 . S
C312 C319 1.409 . S
C313 H305 0.930 . S
C313 C311 1.419 . S
C313 C314 1.362 . S
C314 H306 0.930 . S
C314 C313 1.362 . S
C314 C317 1.409 . S
C315 H307 0.930 . S
C315 C316 1.355 . S
C315 C317 1.415 . S
C316 C315 1.355 . S
C316 C318 1.419 . S
C317 C312 1.425 . S
C317 C314 1.409 . S
C317 C315 1.415 . S
C318 H308 0.930 . S
C318 C316 1.419 . S
C318 C319 1.362 . S
C319 H309 0.930 . S
C319 C312 1.409 . S
C319 C318 1.362 . S
H320 C326 0.930 . S
H321 C329 0.930 . S
H322 C330 0.930 . S
H323 C331 0.930 . S
H324 C334 0.930 . S
H325 C335 0.930 . S
C326 H320 0.930 . S
C326 C327 1.355 . S
C326 C328 1.415 . S
C327 C326 1.355 . S
C327 C329 1.419 . S
C328 C326 1.415 . S
C328 C333 1.425 . S
C328 C335 1.409 . S
C329 H321 0.930 . S
C329 C327 1.419 . S
C329 C330 1.362 . S
C330 H322 0.930 . S
C330 C329 1.362 . S
C330 C333 1.409 . S
C331 H323 0.930 . S
C331 C332 1.355 . S
C331 C333 1.415 . S
C332 C331 1.355 . S
C332 C334 1.419 . S
C333 C328 1.425 . S
C333 C330 1.409 . S
C333 C331 1.415 . S
C334 H324 0.930 . S
C334 C332 1.419 . S
C334 C335 1.362 . S
C335 H325 0.930 . S
C335 C328 1.409 . S
C335 C334 1.362 . S
H336 C342 0.930 . S
H337 C345 0.930 . S
H338 C346 0.930 . S
H339 C347 0.930 . S
H340 C350 0.930 . S
H341 C351 0.930 . S
C342 H336 0.930 . S
C342 C343 1.355 . S
C342 C344 1.415 . S
C343 C342 1.355 . S
C343 C345 1.419 . S
C344 C342 1.415 . S
C344 C349 1.425 . S
C344 C351 1.409 . S
C345 H337 0.930 . S
C345 C343 1.419 . S
C345 C346 1.362 . S
C346 H338 0.930 . S
C346 C345 1.362 . S
C346 C349 1.409 . S
C347 H339 0.930 . S
C347 C348 1.355 . S
C347 C349 1.415 . S
C348 C347 1.355 . S
C348 C350 1.419 . S
C349 C344 1.425 . S
C349 C346 1.409 . S
C349 C347 1.415 . S
C350 H340 0.930 . S
C350 C348 1.419 . S
C350 C351 1.362 . S
C351 H341 0.930 . S
C351 C344 1.409 . S
C351 C350 1.362 . S
H352 C358 0.930 . S
H353 C361 0.930 . S
H354 C362 0.930 . S
H355 C363 0.930 . S
H356 C366 0.930 . S
H357 C367 0.930 . S
C358 H352 0.930 . S
C358 C359 1.355 . S
C358 C360 1.415 . S
C359 C358 1.355 . S
C359 C361 1.419 . S
C360 C358 1.415 . S
C360 C365 1.425 . S
C360 C367 1.409 . S
C361 H353 0.930 . S
C361 C359 1.419 . S
C361 C362 1.362 . S
C362 H354 0.930 . S
C362 C361 1.362 . S
C362 C365 1.409 . S
C363 H355 0.930 . S
C363 C364 1.355 . S
C363 C365 1.415 . S
C364 C363 1.355 . S
C364 C366 1.419 . S
C365 C360 1.425 . S
C365 C362 1.409 . S
C365 C363 1.415 . S
C366 H356 0.930 . S
C366 C364 1.419 . S
C366 C367 1.362 . S
C367 H357 0.930 . S
C367 C360 1.409 . S
C367 C366 1.362 . S
H368 C374 0.930 . S
H369 C377 0.930 . S
H370 C378 0.930 . S
H371 C379 0.930 . S
H372 C382 0.930 . S
H373 C383 0.930 . S
C374 H368 0.930 . S
C374 C375 1.355 . S
C374 C376 1.415 . S
C375 C374 1.355 . S
C375 C377 1.419 . S
C376 C374 1.415 . S
C376 C381 1.425 . S
C376 C383 1.409 . S
C377 H369 0.930 . S
C377 C375 1.419 . S
C377 C378 1.362 . S
C378 H370 0.930 . S
C378 C377 1.362 . S
C378 C381 1.409 . S
C379 H371 0.930 . S
C379 C380 1.355 . S
C379 C381 1.415 . S
C380 C379 1.355 . S
C380 C382 1.419 . S
C381 C376 1.425 . S
C381 C378 1.409 . S
C381 C379 1.415 . S
C382 H372 0.930 . S
C382 C380 1.419 . S
C382 C383 1.362 . S
C383 H373 0.930 . S
C383 C376 1.409 . S
C383 C382 1.362 . S
H384 C390 0.930 1_655 S
H385 C393 0.930 . S
H386 C394 0.930 . S
H387 C395 0.930 . S
H388 C398 0.930 . S
H389 C399 0.930 . S
C390 H384 0.930 1_455 S
C390 C391 1.355 . S
C390 C392 1.415 . S
C391 C390 1.355 . S
C391 C393 1.419 . S
C392 C390 1.415 . S
C392 C397 1.425 . S
C392 C399 1.409 1_455 S
C393 H385 0.930 . S
C393 C391 1.419 . S
C393 C394 1.362 . S
C394 H386 0.930 . S
C394 C393 1.362 . S
C394 C397 1.409 . S
C395 H387 0.930 . S
C395 C396 1.355 . S
C395 C397 1.415 1_556 S
C396 C395 1.355 . S
C396 C398 1.419 1_455 S
C397 C392 1.425 . S
C397 C394 1.409 . S
C397 C395 1.415 1_554 S
C398 H388 0.930 . S
C398 C396 1.419 1_655 S
C398 C399 1.362 1_556 S
C399 H389 0.930 . S
C399 C392 1.409 1_655 S
C399 C398 1.362 1_554 S
H400 C406 0.930 . S
H401 C409 0.930 . S
H402 C410 0.930 . S
H403 C411 0.930 . S
H404 C414 0.930 . S
H405 C415 0.930 . S
C406 H400 0.930 . S
C406 C407 1.355 . S
C406 C408 1.415 . S
C407 C406 1.355 . S
C407 C409 1.419 . S
C408 C406 1.415 . S
C408 C413 1.425 . S
C408 C415 1.409 . S
C409 H401 0.930 . S
C409 C407 1.419 . S
C409 C410 1.362 . S
C410 H402 0.930 . S
C410 C409 1.362 . S
C410 C413 1.409 . S
C411 H403 0.930 . S
C411 C412 1.355 . S
C411 C413 1.415 . S
C412 C411 1.355 . S
C412 C414 1.419 . S
C413 C408 1.425 . S
C413 C410 1.409 . S
C413 C411 1.415 . S
C414 H404 0.930 . S
C414 C412 1.419 . S
C414 C415 1.362 . S
C415 H405 0.930 . S
C415 C408 1.409 . S
C415 C414 1.362 . S
H416 C422 0.930 . S
H417 C425 0.930 . S
H418 C426 0.930 . S
H419 C427 0.930 . S
H420 C430 0.930 . S
H421 C431 0.930 . S
C422 H416 0.930 . S
C422 C423 1.355 . S
C422 C424 1.415 . S
C423 C422 1.355 . S
C423 C425 1.419 . S
C424 C422 1.415 . S
C424 C429 1.425 . S
C424 C431 1.409 . S
C425 H417 0.930 . S
C425 C423 1.419 . S
C425 C426 1.362 . S
C426 H418 0.930 . S
C426 C425 1.362 . S
C426 C429 1.409 . S
C427 H419 0.930 . S
C427 C428 1.355 . S
C427 C429 1.415 . S
C428 C427 1.355 . S
C428 C430 1.419 . S
C429 C424 1.425 . S
C429 C426 1.409 . S
C429 C427 1.415 . S
C430 H420 0.930 . S
C430 C428 1.419 . S
C430 C431 1.362 . S
C431 H421 0.930 . S
C431 C424 1.409 . S
C431 C430 1.362 . S
H432 C438 0.930 1_565 S
H433 C441 0.930 . S
H434 C442 0.930 . S
H435 C443 0.930 . S
H436 C446 0.930 . S
H437 C447 0.930 . S
C438 H432 0.930 1_545 S
C438 C439 1.355 . S
C438 C440 1.415 . S
C439 C438 1.355 . S
C439 C441 1.419 . S
C440 C438 1.415 . S
C440 C445 1.425 . S
C440 C447 1.409 1_545 S
C441 H433 0.930 . S
C441 C439 1.419 . S
C441 C442 1.362 . S
C442 H434 0.930 . S
C442 C441 1.362 . S
C442 C445 1.409 . S
C443 H435 0.930 . S
C443 C444 1.355 . S
C443 C445 1.415 . S
C444 C443 1.355 . S
C444 C446 1.419 1_545 S
C445 C440 1.425 . S
C445 C442 1.409 . S
C445 C443 1.415 . S
C446 H436 0.930 . S
C446 C444 1.419 1_565 S
C446 C447 1.362 . S
C447 H437 0.930 . S
C447 C440 1.409 1_565 S
C447 C446 1.362 . S
H448 C454 0.930 . S
H449 C457 0.930 . S
H450 C458 0.930 . S
H451 C459 0.930 . S
H452 C462 0.930 . S
H453 C463 0.930 . S
C454 H448 0.930 . S
C454 C455 1.355 . S
C454 C456 1.415 . S
C455 C454 1.355 . S
C455 C457 1.419 . S
C456 C454 1.415 . S
C456 C461 1.425 . S
C456 C463 1.409 . S
C457 H449 0.930 . S
C457 C455 1.419 . S
C457 C458 1.362 . S
C458 H450 0.930 . S
C458 C457 1.362 . S
C458 C461 1.409 . S
C459 H451 0.930 . S
C459 C460 1.355 . S
C459 C461 1.415 1_554 S
C460 C459 1.355 . S
C460 C462 1.419 . S
C461 C456 1.425 . S
C461 C458 1.409 . S
C461 C459 1.415 1_556 S
C462 H452 0.930 . S
C462 C460 1.419 . S
C462 C463 1.362 1_554 S
C463 H453 0.930 . S
C463 C456 1.409 . S
C463 C462 1.362 1_556 S
H464 C470 0.930 . S
H465 C473 0.930 . S
H466 C474 0.930 . S
H467 C475 0.930 . S
H468 C478 0.930 . S
H469 C479 0.930 . S
C470 H464 0.930 . S
C470 C471 1.355 . S
C470 C472 1.415 . S
C471 C470 1.355 . S
C471 C473 1.419 . S
C472 C470 1.415 . S
C472 C477 1.425 . S
C472 C479 1.409 . S
C473 H465 0.930 . S
C473 C471 1.419 . S
C473 C474 1.362 . S
C474 H466 0.930 . S
C474 C473 1.362 . S
C474 C477 1.409 . S
C475 H467 0.930 . S
C475 C476 1.355 . S
C475 C477 1.415 . S
C476 C475 1.355 . S
C476 C478 1.419 . S
C477 C472 1.425 . S
C477 C474 1.409 . S
C477 C475 1.415 . S
C478 H468 0.930 . S
C478 C476 1.419 . S
C478 C479 1.362 . S
C479 H469 0.930 . S
C479 C472 1.409 . S
C479 C478 1.362 . S
C199 C9 0.845 . S
C204 C186 0.812 . S
C215 C49 0.398 . S
C220 C160 0.432 . S
C231 C89 0.442 . S
C236 C172 0.349 . S
C247 C26 0.388 . S
C252 C184 0.256 . S
C268 C162 0.227 . S
C263 C66 0.378 . S
C284 C174 0.353 . S
C279 C106 0.601 . S
C295 C43 3.054 . S
C300 C136 2.987 . S
C311 C83 3.307 . S
C316 C150 3.282 . S
C327 C22 3.050 . S
C332 C126 2.992 . S
C348 C138 2.994 . S
C343 C62 3.051 . S
C364 C148 2.684 . S
C359 C102 2.830 . S
C375 C3 3.054 . S
C380 C124 2.959 . S
C396 C153 1.795 . S
C391 C15 1.749 . S
C407 C55 1.749 . S
C412 C129 1.770 . S
C423 C95 1.744 . S
C428 C141 1.738 . S
C444 C177 1.216 . S
C439 C42 1.174 . S
C460 C189 1.213 . S
C455 C82 1.193 . S
C471 C2 1.125 . S
C476 C165 1.178 . S
