# Generated by pormake.
# Topology zzz, (3,6)-cn, num edge types: 1
# Building blocks:
#     Node 0, Type 0, BuildingBlock: KAKCAD_clean_linker_0, # of connection points: 3
#     Node 1, Type 0, BuildingBlock: KAKCAD_clean_linker_0, # of connection points: 3
#     Node 2, Type 0, BuildingBlock: KAKCAD_clean_linker_0, # of connection points: 3
#     Node 3, Type 0, BuildingBlock: KAKCAD_clean_linker_0, # of connection points: 3
#     Node 4, Type 0, BuildingBlock: KAKCAD_clean_linker_0, # of connection points: 3
#     Node 5, Type 0, BuildingBlock: KAKCAD_clean_linker_0, # of connection points: 3
#     Node 6, Type 0, BuildingBlock: KAKCAD_clean_linker_0, # of connection points: 3
#     Node 7, Type 0, BuildingBlock: KAKCAD_clean_linker_0, # of connection points: 3
#     Node 8, Type 1, BuildingBlock: PAMTUU_clean_sbu_0, # of connection points: 6
#     Node 9, Type 1, BuildingBlock: PAMTUU_clean_sbu_0, # of connection points: 6
#     Node 10, Type 1, BuildingBlock: PAMTUU_clean_sbu_0, # of connection points: 6
#     Node 11, Type 1, BuildingBlock: PAMTUU_clean_sbu_0, # of connection points: 6
#     Edge 12, Type (0, 1), BuildingBlock: OJICUG_clean_linker_0, # of connection points: 2
#     Edge 13, Type (0, 1), BuildingBlock: OJICUG_clean_linker_0, # of connection points: 2
#     Edge 14, Type (0, 1), BuildingBlock: OJICUG_clean_linker_0, # of connection points: 2
#     Edge 15, Type (0, 1), BuildingBlock: OJICUG_clean_linker_0, # of connection points: 2
#     Edge 16, Type (0, 1), BuildingBlock: OJICUG_clean_linker_0, # of connection points: 2
#     Edge 17, Type (0, 1), BuildingBlock: OJICUG_clean_linker_0, # of connection points: 2
#     Edge 18, Type (0, 1), BuildingBlock: OJICUG_clean_linker_0, # of connection points: 2
#     Edge 19, Type (0, 1), BuildingBlock: OJICUG_clean_linker_0, # of connection points: 2
#     Edge 20, Type (0, 1), BuildingBlock: OJICUG_clean_linker_0, # of connection points: 2
#     Edge 21, Type (0, 1), BuildingBlock: OJICUG_clean_linker_0, # of connection points: 2
#     Edge 22, Type (0, 1), BuildingBlock: OJICUG_clean_linker_0, # of connection points: 2
#     Edge 23, Type (0, 1), BuildingBlock: OJICUG_clean_linker_0, # of connection points: 2
#     Edge 24, Type (0, 1), BuildingBlock: OJICUG_clean_linker_0, # of connection points: 2
#     Edge 25, Type (0, 1), BuildingBlock: OJICUG_clean_linker_0, # of connection points: 2
#     Edge 26, Type (0, 1), BuildingBlock: OJICUG_clean_linker_0, # of connection points: 2
#     Edge 27, Type (0, 1), BuildingBlock: OJICUG_clean_linker_0, # of connection points: 2
#     Edge 28, Type (0, 1), BuildingBlock: OJICUG_clean_linker_0, # of connection points: 2
#     Edge 29, Type (0, 1), BuildingBlock: OJICUG_clean_linker_0, # of connection points: 2
#     Edge 30, Type (0, 1), BuildingBlock: OJICUG_clean_linker_0, # of connection points: 2
#     Edge 31, Type (0, 1), BuildingBlock: OJICUG_clean_linker_0, # of connection points: 2
#     Edge 32, Type (0, 1), BuildingBlock: OJICUG_clean_linker_0, # of connection points: 2
#     Edge 33, Type (0, 1), BuildingBlock: OJICUG_clean_linker_0, # of connection points: 2
#     Edge 34, Type (0, 1), BuildingBlock: OJICUG_clean_linker_0, # of connection points: 2
#     Edge 35, Type (0, 1), BuildingBlock: OJICUG_clean_linker_0, # of connection points: 2
# Relax obj value: 0.417
# Max RMSD: 0.287
# Mean RMSD: 0.219
data_MOF--net-zzz--node1-PAMTUU_clean_sbu_0--node2-KAKCAD_clean_linker_0--edge1-OJICUG_clean_linker_0
_symmetry_space_group_name_H-M    P1
_symmetry_Int_Tables_number       1
_symmetry_cell_setting            triclinic
loop_
_symmetry_equiv_pos_as_xyz
'x, y, z'
_cell_length_a     44.24601
_cell_length_b     48.883147
_cell_length_c     16.522395
_cell_angle_alpha  100.91974
_cell_angle_beta   90.261265
_cell_angle_gamma 89.296505
loop_
_atom_site_label
_atom_site_type_symbol
_atom_site_fract_x
_atom_site_fract_y
_atom_site_fract_z
_atom_type_partial_charge
C0 C 0.78749 0.60063 0.21877 0.0
C1 C 0.818 0.60076 0.24266 0.0
C2 C 0.76521 0.5976 0.27574 0.0
C3 C 0.77346 0.59619 0.35753 0.0
C4 C 0.80196 0.6069 0.3849 0.0
C5 C 0.82462 0.60824 0.32721 0.0
C6 C 0.75853 0.57527 0.39984 0.0
C7 C 0.72968 0.56513 0.3755 0.0
C8 C 0.72011 0.53885 0.38776 0.0
C9 C 0.73923 0.5234 0.43265 0.0
C10 C 0.76694 0.53489 0.46606 0.0
C11 C 0.77605 0.5605 0.44889 0.0
C12 C 0.78918 0.52057 0.51308 0.0
C13 C 0.79289 0.53046 0.59819 0.0
C14 C 0.81263 0.50424 0.47063 0.0
C15 C 0.8396 0.49914 0.51126 0.0
C16 C 0.84409 0.51037 0.59566 0.0
C17 C 0.69173 0.52768 0.34372 0.0
C18 C 0.66589 0.54505 0.34753 0.0
C19 C 0.69221 0.50295 0.28394 0.0
C20 C 0.66854 0.49691 0.22587 0.0
C21 C 0.64401 0.51562 0.22568 0.0
C22 C 0.64257 0.53924 0.28923 0.0
C23 C 0.81978 0.5253 0.63897 0.0
H24 H 0.78141 0.59728 0.15407 0.0
H25 H 0.74299 0.59196 0.25134 0.0
H26 H 0.80835 0.60959 0.4492 0.0
H27 H 0.84773 0.61058 0.349 0.0
H28 H 0.71533 0.57667 0.34039 0.0
H29 H 0.79842 0.5675 0.46916 0.0
H30 H 0.73265 0.5029 0.44147 0.0
H31 H 0.7758 0.54399 0.6321 0.0
H32 H 0.81098 0.4971 0.40458 0.0
H33 H 0.8574 0.48716 0.47558 0.0
H34 H 0.66464 0.56424 0.39273 0.0
H35 H 0.71188 0.4893 0.27824 0.0
H36 H 0.82217 0.53462 0.70351 0.0
H37 H 0.62382 0.55385 0.29217 0.0
H38 H 0.67041 0.4785 0.17794 0.0
C39 C 0.10333 0.78934 0.1546 0.0
C40 C 0.12672 0.80551 0.19634 0.0
C41 C 0.08803 0.77041 0.19233 0.0
C42 C 0.09581 0.76724 0.27253 0.0
C43 C 0.12136 0.78105 0.31042 0.0
C44 C 0.13667 0.80007 0.27267 0.0
C45 C 0.07428 0.75383 0.32095 0.0
C46 C 0.05864 0.7299 0.28475 0.0
C47 C 0.03444 0.72018 0.32565 0.0
C48 C 0.02591 0.7345 0.40475 0.0
C49 C 0.04188 0.7584 0.44243 0.0
C50 C 0.06602 0.7676 0.39998 0.0
C51 C 0.03236 0.77649 0.52121 0.0
C52 C 1.00302 0.78788 0.53022 0.0
C53 C 0.05454 0.78748 0.57905 0.0
C54 C 0.04865 0.81137 0.63812 0.0
C55 C 1.02014 0.82471 0.64221 0.0
C56 C 1.01805 0.69564 0.28125 0.0
C57 C 1.00307 0.69741 0.2073 0.0
C58 C 1.02289 0.66939 0.30183 0.0
C59 C 1.01484 0.64517 0.24637 0.0
C60 C 1.00183 0.64682 0.16932 0.0
C61 C 0.99489 0.67329 0.15213 0.0
C62 C 0.99691 0.81166 0.59049 0.0
H63 H 0.09486 0.79313 0.09606 0.0
H64 H 0.06835 0.76025 0.16159 0.0
H65 H 0.12824 0.77855 0.37163 0.0
H66 H 0.15499 0.81186 0.30561 0.0
H67 H 0.06482 0.71912 0.2234 0.0
H68 H 0.077 0.78698 0.42633 0.0
H69 H 1.00677 0.72747 0.43571 0.0
H70 H 0.98545 0.77987 0.48656 0.0
H71 H 0.07734 0.77899 0.57387 0.0
H72 H 0.06735 0.82047 0.67585 0.0
H73 H 0.99937 0.71749 0.18994 0.0
H74 H 0.03492 0.66755 0.35783 0.0
H75 H 0.97437 0.82063 0.59329 0.0
H76 H 0.98436 0.67538 0.09428 0.0
H77 H 1.02075 0.62517 0.26155 0.0
C78 C 0.70533 0.88768 0.26172 0.0
C79 C 0.69976 0.89855 0.19012 0.0
C80 C 0.73301 0.89261 0.30264 0.0
C81 C 0.75485 0.9089 0.27282 0.0
C82 C 0.75185 0.91344 0.19171 0.0
C83 C 0.7244 0.90818 0.15033 0.0
C84 C 0.773 0.92899 0.33187 0.0
C85 C 0.80099 0.93831 0.30934 0.0
C86 C 0.81375 0.96313 0.35261 0.0
C87 C 0.79758 0.97884 0.42084 0.0
C88 C 0.76997 0.96862 0.44676 0.0
C89 C 0.75853 0.94369 0.40235 0.0
C90 C 0.74985 0.98358 0.514 0.0
C91 C 0.74538 0.97183 0.58451 0.0
C92 C 0.72776 0.00239 0.49524 0.0
C93 C 0.70111 0.00783 0.54231 0.0
C94 C 0.69559 0.9945 0.6095 0.0
C95 C 0.84276 0.97231 0.31933 0.0
C96 C 0.86679 0.95301 0.29991 0.0
C97 C 0.84477 -0.00217 0.29228 0.0
C98 C 0.86928 0.00315 0.24316 0.0
C99 C 0.89254 0.98311 0.21979 0.0
C100 C 0.89118 0.95828 0.2512 0.0
C101 C 0.71881 0.9773 0.63173 0.0
H102 H 0.68704 0.87917 0.29222 0.0
H103 H 0.73531 0.88767 0.36361 0.0
H104 H 0.7685 0.92527 0.16546 0.0
H105 H 0.72124 0.91612 0.09394 0.0
H106 H 0.81201 0.92706 0.25427 0.0
H107 H 0.73644 0.93716 0.4191 0.0
H108 H 0.80636 -0.0015 0.4532 0.0
H109 H 0.76134 0.95647 0.59905 0.0
H110 H 0.72991 0.0111 0.43996 0.0
H111 H 0.68423 0.02162 0.52364 0.0
H112 H 0.86595 0.93304 0.31914 0.0
H113 H 0.82657 0.01304 0.30505 0.0
H114 H 0.71564 0.96636 0.68216 0.0
H115 H 0.90816 0.94209 0.23469 0.0
H116 H 0.86956 0.02276 0.22187 0.0
C117 C 0.52781 0.72782 0.45003 0.0
C118 C 0.55623 0.71436 0.4422 0.0
C119 C 0.51911 0.74529 0.3959 0.0
C120 C 0.53863 0.74977 0.33299 0.0
C121 C 0.56816 0.73883 0.33067 0.0
C122 C 0.5769 0.72128 0.3848 0.0
C123 C 0.52545 0.7572 0.25739 0.0
C124 C 0.53461 0.78036 0.22459 0.0
C125 C 0.52366 0.78407 0.14676 0.0
C126 C 0.50401 0.76417 0.10241 0.0
C127 C 0.49523 0.74094 0.13438 0.0
C128 C 0.50556 0.73801 0.21236 0.0
C129 C 0.47954 0.71726 0.0826 0.0
C130 C 0.45757 0.70239 0.11708 0.0
C131 C 0.49073 0.70623 1.0037 0.0
C132 C 0.48271 0.67953 0.96413 0.0
C133 C 0.46323 0.66338 1.0026 0.0
C134 C 0.53257 0.80823 0.10957 0.0
C135 C 0.53063 0.83554 0.15497 0.0
C136 C 0.5402 0.80421 0.0255 0.0
C137 C 0.54412 0.82694 0.98662 0.0
C138 C 0.54053 0.85432 0.03077 0.0
C139 C 0.53449 0.85835 0.11597 0.0
C140 C 0.44948 0.67566 0.07739 0.0
H141 H 0.51121 0.72299 0.49301 0.0
H142 H 0.49605 0.75311 0.39802 0.0
H143 H 0.58346 0.74161 0.28194 0.0
H144 H 0.59918 0.71173 0.37819 0.0
H145 H 0.55053 0.79495 0.25836 0.0
H146 H 0.49996 0.71941 0.23582 0.0
H147 H 0.49573 0.76654 0.04224 0.0
H148 H 0.44826 0.71065 0.17742 0.0
H149 H 0.50787 0.71709 0.97584 0.0
H150 H 0.49395 0.67072 0.90687 0.0
H151 H 0.52459 0.83929 0.21963 0.0
H152 H 0.54242 0.78338 0.98915 0.0
H153 H 0.43391 0.66397 0.10769 0.0
H154 H 0.53134 0.87912 0.15193 0.0
H155 H 0.54946 0.82304 0.92152 0.0
C156 C 0.24827 0.39964 0.45256 0.0
C157 C 0.22065 0.38865 0.41919 0.0
C158 C 0.27123 0.4049 0.40063 0.0
C159 C 0.26694 0.39909 0.31471 0.0
C160 C 0.24332 0.38112 0.28303 0.0
C161 C 0.22021 0.37582 0.33532 0.0
C162 C 0.2797 0.41878 0.26529 0.0
C163 C 0.30711 0.43202 0.28851 0.0
C164 C 0.31339 0.45826 0.27034 0.0
C165 C 0.29275 0.4703 0.22032 0.0
C166 C 0.2667 0.45532 0.18727 0.0
C167 C 0.26059 0.42989 0.21129 0.0
C168 C 0.24339 0.46567 0.13332 0.0
C169 C 0.22669 0.4904 0.16032 0.0
C170 C 0.23317 0.44738 0.06233 0.0
C171 C 0.20609 0.45251 0.02304 0.0
C172 C 0.1883 0.4763 0.0527 0.0
C173 C 0.33957 0.47311 0.31576 0.0
C174 C 0.33433 0.49277 0.38839 0.0
C175 C 0.36883 0.46152 0.30243 0.0
C176 C 0.39169 0.4681 0.36215 0.0
C177 C 0.38588 0.48621 0.43773 0.0
C178 C 0.35713 0.49922 0.44853 0.0
C179 C 0.19956 0.49573 0.12015 0.0
H180 H 0.25073 0.40861 0.51723 0.0
H181 H 0.28969 0.41765 0.42876 0.0
H182 H 0.24042 0.3745 0.21712 0.0
H183 H 0.2003 0.3651 0.30806 0.0
H184 H 0.32236 0.42327 0.32873 0.0
H185 H 0.23912 0.42011 0.19341 0.0
H186 H 0.29695 0.49079 0.20714 0.0
H187 H 0.23351 0.50469 0.21554 0.0
H188 H 0.24535 0.42808 0.0399 0.0
H189 H 0.19864 0.43734 0.97043 0.0
H190 H 0.31187 0.50148 0.40173 0.0
H191 H 0.37338 0.44567 0.24835 0.0
H192 H 0.18654 0.51432 0.1448 0.0
H193 H 0.3518 0.51361 0.50508 0.0
H194 H 0.4133 0.45743 0.35124 0.0
C195 C 0.96573 0.19331 0.42251 0.0
C196 C 0.9821 0.16838 0.42069 0.0
C197 C 0.97827 0.21486 0.3891 0.0
C198 C 1.00725 0.2116 0.35412 0.0
C199 C 0.02429 0.18751 0.35794 0.0
C200 C 1.01183 0.1661 0.39082 0.0
C201 C 1.0184 0.23103 0.30334 0.0
C202 C 1.02078 0.25954 0.33393 0.0
C203 C 0.03289 0.27722 0.28467 0.0
C204 C 0.04222 0.26617 0.20312 0.0
C205 C 0.03888 0.23745 0.17195 0.0
C206 C 0.02715 0.22031 0.2226 0.0
C207 C 0.0474 0.22318 0.08809 0.0
C208 C 1.02372 0.21367 0.03338 0.0
C209 C 0.07498 0.20844 0.07942 0.0
C210 C 0.07708 0.18232 0.02733 0.0
C211 C 0.05161 0.17061 0.98297 0.0
C212 C 0.03553 0.30698 0.32231 0.0
C213 C 1.0091 0.32323 0.33763 0.0
C214 C 0.0625 0.31687 0.36175 0.0
C215 C 0.06253 0.34175 0.42016 0.0
C216 C 0.03549 0.35693 0.44045 0.0
C217 C 1.00911 0.34802 0.39579 0.0
C218 C 0.02572 0.1875 0.98149 0.0
H219 H 0.94284 0.19554 0.44598 0.0
H220 H 0.96476 0.2333 0.38635 0.0
H221 H 0.04685 0.18476 0.33216 0.0
H222 H 0.0252 0.14737 0.39091 0.0
H223 H 1.01393 0.2679 0.39681 0.0
H224 H 0.02478 0.19817 0.19852 0.0
H225 H 0.0516 0.27962 0.16477 0.0
H226 H 1.00205 0.22444 0.0397 0.0
H227 H 0.09348 0.21514 0.12143 0.0
H228 H 0.09769 0.17019 0.02803 0.0
H229 H 0.98796 0.31572 0.30884 0.0
H230 H 0.08296 0.30429 0.35217 0.0
H231 H 1.0057 0.17933 0.94791 0.0
H232 H 0.98805 0.35952 0.40878 0.0
H233 H 0.08321 0.34799 0.45357 0.0
C234 C 0.32934 0.08658 0.52523 0.0
C235 C 0.34929 0.09953 0.47858 0.0
C236 C 0.30029 0.07968 0.49556 0.0
C237 C 0.29117 0.08585 0.41948 0.0
C238 C 0.30819 0.10505 0.38553 0.0
C239 C 0.3375 0.11148 0.41413 0.0
C240 C 0.27346 0.06455 0.36354 0.0
C241 C 0.24732 0.05293 0.38978 0.0
C242 C 0.23546 0.028 0.34472 0.0
C243 C 0.25076 0.01425 0.27223 0.0
C244 C 0.27676 0.02647 0.2441 0.0
C245 C 0.28723 0.05157 0.28991 0.0
C246 C 0.29596 0.01387 0.17167 0.0
C247 C 0.31683 0.9924 0.17819 0.0
C248 C 0.30082 0.02956 0.10969 0.0
C249 C 0.32694 0.02561 0.06071 0.0
C250 C 0.34896 0.00555 0.07115 0.0
C251 C 0.20818 0.01663 0.37958 0.0
C252 C 0.21148 0.99713 0.4316 0.0
C253 C 0.17991 0.02999 0.37717 0.0
C254 C 0.15588 0.02469 0.42739 0.0
C255 C 0.15957 0.00625 0.48289 0.0
C256 C 0.18756 0.992 0.48248 0.0
C257 C 0.34287 0.98811 0.12799 0.0
H258 H 0.33761 0.07756 0.57628 0.0
H259 H 0.28742 0.06546 0.52448 0.0
H260 H 0.30115 0.11091 0.32819 0.0
H261 H 0.35224 0.12212 0.37836 0.0
H262 H 0.23691 0.06266 0.44758 0.0
H263 H 0.30815 0.05985 0.27101 0.0
H264 H 0.24256 0.99456 0.23847 0.0
H265 H 0.31439 0.98053 0.22683 0.0
H266 H 0.28566 0.0467 0.10421 0.0
H267 H 0.33059 0.03919 0.01701 0.0
H268 H 0.23317 0.98702 0.43647 0.0
H269 H 0.1769 0.0457 0.33945 0.0
H270 H 0.35931 0.97248 0.13791 0.0
H271 H 0.19131 0.97741 0.52342 0.0
H272 H 0.13494 0.0363 0.4261 0.0
C273 C 0.463 0.27303 0.25137 0.0
C274 C 0.48299 0.28188 0.19561 0.0
C275 C 0.47319 0.25562 0.30443 0.0
C276 C 0.5035 0.24673 0.30258 0.0
C277 C 0.52253 0.25304 0.24099 0.0
C278 C 0.51239 0.27037 0.1879 0.0
C279 C 0.51735 0.24042 0.37871 0.0
C280 C 0.51329 0.21515 0.4066 0.0
C281 C 0.52555 0.21176 0.48352 0.0
C282 C 0.54022 0.23448 0.53293 0.0
C283 C 0.54432 0.25943 0.50505 0.0
C284 C 0.53332 0.26202 0.42762 0.0
C285 C 0.55677 0.28421 0.55955 0.0
C286 C 0.54329 0.29408 0.63622 0.0
C287 C 0.57876 0.30036 0.5303 0.0
C288 C 0.58553 0.3269 0.5743 0.0
C289 C 0.57 0.33794 0.64756 0.0
C290 C 0.52345 0.18508 0.51477 0.0
C291 C 0.49697 0.16913 0.50657 0.0
C292 C 0.54788 0.17649 0.55903 0.0
C293 C 0.54544 0.15375 0.59811 0.0
C294 C 0.51879 0.13809 0.59234 0.0
C295 C 0.49469 0.14583 0.54473 0.0
C296 C 0.54967 0.32073 0.67957 0.0
H297 H 0.44004 0.28105 0.25786 0.0
H298 H 0.45824 0.25148 0.35233 0.0
H299 H 0.54617 0.24691 0.23952 0.0
H300 H 0.52851 0.27674 0.14619 0.0
H301 H 0.50114 0.19834 0.36844 0.0
H302 H 0.53557 0.28174 0.40721 0.0
H303 H 0.54821 0.233 0.59408 0.0
H304 H 0.52603 0.28211 0.65958 0.0
H305 H 0.58961 0.29297 0.47143 0.0
H306 H 0.60182 0.33925 0.54878 0.0
H307 H 0.4777 0.17512 0.47298 0.0
H308 H 0.56892 0.1878 0.56529 0.0
H309 H 0.53685 0.32847 0.73499 0.0
H310 H 0.47396 0.13407 0.53735 0.0
H311 H 0.56441 0.1491 0.63498 0.0
Tb312 Tb 0.99779 0.00112 0.78966 0.0
Tb313 Tb 0.05285 0.99114 0.91337 0.0
C314 C 0.98516 0.99281 0.9721 0.0
C315 C 0.95167 0.02898 0.63757 0.0
C316 C 0.95006 0.07147 0.54473 0.0
C317 C 0.92548 0.06779 0.59485 0.0
C318 C 0.92624 0.04656 0.64074 0.0
C319 C 0.97563 0.03183 0.58458 0.0
C320 C 0.97473 0.0528 0.53818 0.0
C321 C 0.95479 0.01065 0.69785 0.0
O322 O 1.02144 0.04059 0.81749 0.0
O323 O 0.04194 0.03549 0.94145 0.0
O324 O 0.07481 0.00386 0.8084 0.0
O325 O 0.03781 0.99431 0.7095 0.0
O326 O 0.06946 0.992 0.03349 0.0
O327 O 0.09847 0.98117 0.92793 0.0
O328 O 0.04454 0.95042 0.83721 0.0
O329 O 0.99578 0.95727 0.79659 0.0
O330 O 0.9784 0.00667 0.91348 0.0
O331 O 1.01165 0.98034 0.9732 0.0
C332 C 0.03416 0.05122 0.88823 0.0
O333 O 0.9734 0.9895 0.67935 0.0
O334 O 0.95835 0.02369 0.77358 0.0
C335 C 0.06628 -0.00062 0.73064 0.0
C336 C 0.10616 0.95697 0.0347 0.0
C337 C 0.12684 0.90775 0.08211 0.0
C338 C 0.1401 0.93344 0.11562 0.0
C339 C 0.12991 0.95793 0.09154 0.0
C340 C 0.09281 0.93144 1.00178 0.0
C341 C 0.10312 0.90703 0.02492 0.0
C342 C 0.09584 0.9822 1.00679 0.0
C343 C 1.01877 0.94075 0.80449 0.0
H344 H 0.9062 0.0819 0.60065 0.0
H345 H 0.90767 0.04475 0.68184 0.0
H346 H 0.99571 0.01879 0.58202 0.0
H347 H 0.99422 0.05543 0.50105 0.0
H348 H 0.15827 0.93454 0.16022 0.0
H349 H 0.1405 0.97754 0.11722 0.0
H350 H 0.07434 0.93045 0.95826 0.0
H351 H 0.09194 0.88768 0.99966 0.0
Tb352 Tb 0.50633 0.98521 0.7495 0.0
Tb353 Tb 0.53458 0.01858 0.91918 0.0
C354 C 0.53232 0.95195 0.87998 0.0
C355 C 0.47631 0.98614 0.55163 0.0
C356 C 0.44995 0.03065 0.49043 0.0
C357 C 0.43661 0.00419 0.47427 0.0
C358 C 0.44961 0.98208 0.50536 0.0
C359 C 0.49142 0.01169 0.5592 0.0
C360 C 0.47815 0.0339 0.52953 0.0
C361 C 0.48355 0.96789 0.61036 0.0
O362 O 0.47407 0.98188 0.84733 0.0
O363 O 0.48521 0.02396 0.92581 0.0
O364 O 0.53389 0.04848 0.83747 0.0
O365 O 0.49429 0.02915 0.7591 0.0
O366 O 0.5299 0.02858 0.04794 0.0
O367 O 0.56692 0.04463 0.98754 0.0
O368 O 0.57337 -0.00068 0.84717 0.0
O369 O 0.55166 -0.0013 0.72182 0.0
O370 O 0.52485 0.95092 0.8022 0.0
O371 O 0.5338 0.97546 0.93344 0.0
C372 C 0.46639 0.00311 0.90527 0.0
O373 O 0.51215 0.96475 0.62625 0.0
O374 O 0.46767 0.97363 0.67775 0.0
C375 C 0.51294 0.04978 0.78205 0.0
C376 C 0.57847 0.0215 0.09769 0.0
C377 C 0.6103 0.97513 0.13503 0.0
C378 C 0.62264 0.99097 0.08099 0.0
C379 C 0.60702 0.01396 0.06282 0.0
C380 C 0.56747 0.00723 0.15777 0.0
C381 C 0.58328 0.98421 0.17632 0.0
C382 C 0.55737 0.0381 0.05605 0.0
C383 C 0.57603 -0.00171 0.76743 0.0
H384 H 0.41464 0.00133 0.4448 0.0
H385 H 0.4374 0.96274 0.4999 0.0
H386 H 0.51202 0.0154 0.59507 0.0
H387 H 0.4888 0.0541 0.54231 0.0
H388 H 0.64405 0.98507 0.05071 0.0
H389 H 0.61641 0.02451 0.0168 0.0
H390 H 0.54554 0.0125 0.18565 0.0
H391 H 0.57354 0.97262 0.21934 0.0
Tb392 Tb 0.49188 0.48418 0.88545 0.0
Tb393 Tb 0.539 0.51605 0.77898 0.0
C394 C 0.47489 0.49509 0.7065 0.0
C395 C 0.45985 0.43194 0.99677 0.0
C396 C 0.46398 0.38108 0.05456 0.0
C397 C 0.43773 0.39792 0.06827 0.0
C398 C 0.43571 0.42308 0.03959 0.0
C399 C 0.48607 0.4153 0.98274 0.0
C400 C 0.48812 0.39013 0.0113 0.0
C401 C 0.45721 0.45811 0.96512 0.0
O402 O 0.51691 0.45166 0.80557 0.0
O403 O 0.55871 0.47471 0.76978 0.0
O404 O 0.55536 0.52168 0.90685 0.0
O405 O 0.53581 0.48311 0.94607 0.0
O406 O 0.56161 0.52118 0.67067 0.0
O407 O 0.56832 0.54971 0.78554 0.0
O408 O 0.50054 0.54349 0.81164 0.0
O409 O 0.48651 0.52891 0.92969 0.0
O410 O 0.46547 0.49391 0.78145 0.0
O411 O 0.50366 0.49876 0.69118 0.0
C412 C 0.54436 0.45184 0.77597 0.0
O413 O 0.45708 0.45536 0.88515 0.0
O414 O 0.47462 0.4784 0.99948 0.0
C415 C 0.55555 0.50334 0.95589 0.0
C416 C 0.57114 0.56848 0.66507 0.0
C417 C 0.56864 0.61698 0.59499 0.0
C418 C 0.59421 0.59924 0.58394 0.0
C419 C 0.59544 0.57528 0.61878 0.0
C420 C 0.54535 0.5858 0.67533 0.0
C421 C 0.54412 0.60983 0.6407 0.0
C422 C 0.57389 0.54444 0.7068 0.0
C423 C 0.4868 0.54789 0.88298 0.0
H424 H 0.41857 0.39154 0.10049 0.0
H425 H 0.4152 0.43556 0.05056 0.0
H426 H 0.50495 0.42182 0.94974 0.0
H427 H 0.50886 0.378 1.00066 0.0
H428 H 0.6136 0.60418 0.54982 0.0
H429 H 0.61563 0.56229 0.61075 0.0
H430 H 0.52635 0.58094 0.71102 0.0
H431 H 0.52388 0.62271 0.64935 0.0
Tb432 Tb 0.03355 0.51212 0.76457 0.0
Tb433 Tb 1.00038 0.47877 0.88792 0.0
C434 C 1.00421 0.54514 0.92351 0.0
C435 C 0.09389 0.5122 0.63292 0.0
C436 C 0.13173 0.46619 0.56934 0.0
C437 C 0.12011 0.48381 0.51758 0.0
C438 C 0.1009 0.50629 0.54889 0.0
C439 C 0.1076 0.49623 0.68552 0.0
C440 C 0.12574 0.47329 0.65421 0.0
C441 C 0.06672 0.52861 0.6626 0.0
O442 O 0.06423 0.5105 0.86836 0.0
O443 O 0.04868 0.46956 0.89946 0.0
O444 O 1.00364 0.44966 0.77127 0.0
O445 O 0.04614 0.46837 0.72981 0.0
O446 O 0.99661 0.47154 0.00889 0.0
O447 O 0.96812 0.4501 0.91184 0.0
O448 O 0.96346 0.49915 0.8326 0.0
O449 O 0.9874 0.50574 0.71539 0.0
O450 O 1.00995 0.54555 0.84577 0.0
O451 O 1.00472 0.52181 0.95211 0.0
C452 C 0.06961 0.48859 0.90179 0.0
O453 O 0.04173 0.51529 0.64146 0.0
O454 O 0.06668 0.54017 0.74064 0.0
C455 C 0.02677 0.44806 0.72145 0.0
C456 C 0.94442 0.47372 0.03335 0.0
C457 C 0.90243 0.51663 0.0925 0.0
C458 C 0.92708 0.51143 0.14163 0.0
C459 C 0.94784 0.49012 0.11241 0.0
C460 C 0.91834 0.47746 0.98742 0.0
C461 C 0.89777 0.49881 0.0163 0.0
C462 C 0.97096 0.45892 0.99112 0.0
C463 C 0.96236 0.50366 0.75663 0.0
H464 H 0.12507 0.47994 0.45234 0.0
H465 H 0.09029 0.51804 0.50691 0.0
H466 H 0.1024 0.5 0.75054 0.0
H467 H 0.13357 0.46046 0.6968 0.0
H468 H 0.93077 0.52427 0.20177 0.0
H469 H 0.96769 0.48776 0.14923 0.0
H470 H 0.91487 0.4653 0.92619 0.0
H471 H 0.87902 0.50216 0.97684 0.0
C472 C 0.10432 0.00298 0.52409 0.0
C473 C 0.13533 0.00349 0.54487 0.0
H474 H 0.05837 0.00101 0.56498 0.0
C475 C 0.14307 0.00242 0.62702 0.0
H476 H 0.09733 0.00364 0.46159 0.0
C477 C 0.12074 0.00113 0.68637 0.0
C478 C 0.08977 0.00062 0.66585 0.0
H479 H 0.16652 0.00322 0.64628 0.0
H480 H 0.12791 0.00054 0.74879 0.0
C481 C 0.0819 0.00137 0.58349 0.0
C482 C 0.48875 0.10791 0.67167 0.0
C483 C 0.5164 0.11445 0.63796 0.0
H484 H 0.46588 0.0821 0.74367 0.0
C485 C 0.54238 0.09896 0.65176 0.0
H486 H 0.46825 0.11937 0.66332 0.0
C487 C 0.54111 0.07862 0.70056 0.0
C488 C 0.51369 0.07246 0.73468 0.0
H489 H 0.56391 0.10241 0.62476 0.0
H490 H 0.56156 0.06719 0.71004 0.0
C491 C 0.48736 0.08682 0.71863 0.0
C492 C 0.44003 0.49077 0.49138 0.0
C493 C 0.40879 0.48974 0.50686 0.0
H494 H 0.4851 0.49339 0.54089 0.0
C495 C 0.39966 0.49074 0.58907 0.0
H496 H 0.44809 0.49026 0.42933 0.0
C497 C 0.42096 0.49242 0.65325 0.0
C498 C 0.45219 0.49331 0.63771 0.0
H499 H 0.37595 0.48953 0.60384 0.0
H500 H 0.41284 0.49292 0.71525 0.0
C501 C 0.46135 0.49265 0.55572 0.0
C502 C 0.0567 0.40035 0.52881 0.0
C503 C 0.03393 0.38021 0.51298 0.0
H504 H 0.07231 0.4376 0.60692 0.0
C505 C 1.00966 0.38192 0.56852 0.0
H506 H 0.07571 0.39963 0.48732 0.0
C507 C 1.00782 0.40348 0.63724 0.0
C508 C 0.03017 0.42397 0.65225 0.0
H509 H 0.99208 0.3664 0.55927 0.0
H510 H 0.98858 0.40425 0.67794 0.0
C511 C 0.05475 0.42208 0.59748 0.0
C512 C 0.91078 0.00078 0.0932 0.0
C513 C 0.91701 0.98707 0.15931 0.0
H514 H 0.92678 0.01326 0.98346 0.0
C515 C 0.94643 0.97588 0.16407 0.0
H516 H 0.88847 0.00933 0.08579 0.0
C517 C 0.9685 0.97785 0.10423 0.0
C518 C 0.96202 0.99118 0.03757 0.0
H519 H 0.95255 0.96552 0.21427 0.0
H520 H 0.99067 0.96878 0.11017 0.0
C521 C 0.93285 0.00283 0.03361 0.0
C522 C 0.55429 0.90377 0.02555 0.0
C523 C 0.54134 0.87847 0.98746 0.0
H524 H 0.56202 0.94647 0.02073 0.0
C525 C 0.52771 0.87689 0.90938 0.0
H526 H 0.56556 0.90565 0.08467 0.0
C527 C 0.52594 0.90036 0.87209 0.0
C528 C 0.53758 0.92595 0.91234 0.0
H529 H 0.51725 0.85782 0.87846 0.0
H530 H 0.51431 0.89874 0.81358 0.0
C531 C 0.55238 0.92718 0.98856 0.0
C532 C 0.61357 0.53458 0.11843 0.0
C533 C 0.62123 0.51198 0.15661 0.0
H534 H 0.58753 0.54956 0.02564 0.0
C535 C 0.60712 0.48629 0.12765 0.0
H536 H 0.62417 0.5546 0.13824 0.0
C537 C 0.5856 0.48348 0.06341 0.0
C538 C 0.57812 0.50612 0.02501 0.0
H539 H 0.61241 0.46845 0.1555 0.0
H540 H 0.57505 0.46346 0.04318 0.0
C541 C 0.59261 0.53164 0.05331 0.0
C542 C 1.00661 0.6218 0.02195 0.0
C543 C 0.99862 0.62131 0.10414 0.0
H544 H 1.01448 0.59834 0.90046 0.0
C545 C 0.98989 0.59586 0.12415 0.0
H546 H 1.01384 0.64093 1.00432 0.0
C547 C 0.99051 0.57135 0.06452 0.0
C548 C 0.99987 0.57167 0.98333 0.0
H549 H 0.98311 0.59476 0.18635 0.0
H550 H 0.98432 0.55201 0.08274 0.0
C551 C 1.00714 0.59731 0.96225 0.0
C552 C 0.95471 0.14682 0.52448 0.0
C553 C 0.96844 0.14416 0.44703 0.0
H554 H 0.93798 0.12545 0.61651 0.0
C555 C 0.97162 0.11764 0.39705 0.0
H556 H 0.95203 0.16709 0.56393 0.0
C557 C 0.96348 0.09395 0.42661 0.0
C558 C 0.95203 0.09638 0.50669 0.0
H559 H 0.98159 0.11517 0.33627 0.0
H560 H 0.96745 0.07365 0.38835 0.0
C561 C 0.94658 0.12303 0.55425 0.0
C562 C 0.39732 0.09149 0.55167 0.0
C563 C 0.38154 0.09104 0.47757 0.0
H564 H 0.43221 0.07248 0.61292 0.0
C565 C 0.39326 0.07504 0.40421 0.0
H566 H 0.38863 0.10342 0.60899 0.0
C567 C 0.41779 0.057 0.40669 0.0
C568 C 0.43142 0.05526 0.48216 0.0
H569 H 0.38136 0.07392 0.34624 0.0
H570 H 0.42447 0.04279 0.35091 0.0
C571 C 0.42224 0.07379 0.5538 0.0
C572 C 0.56673 0.37745 0.76915 0.0
C573 C 0.57134 0.36816 0.68414 0.0
H574 H 0.55429 0.41171 0.86481 0.0
C575 C 0.57254 0.3881 0.63269 0.0
H576 H 0.56651 0.36289 0.81106 0.0
C577 C 0.56654 0.41622 0.66435 0.0
C578 C 0.55881 0.42468 0.7474 0.0
H579 H 0.5757 0.38185 0.56683 0.0
H580 H 0.56542 0.43086 0.62267 0.0
C581 C 0.56001 0.40539 0.8002 0.0
C582 C 0.19205 0.40909 0.54821 0.0
C583 C 0.19203 0.3993 0.46248 0.0
H584 H 0.17538 0.43926 0.64795 0.0
C585 C 0.16752 0.40706 0.4165 0.0
H586 H 0.20941 0.40254 0.58702 0.0
C587 C 0.1466 0.42722 0.45278 0.0
C588 C 0.15004 0.44072 0.53529 0.0
H589 H 0.1658 0.39976 0.35066 0.0
H590 H 0.12878 0.43323 0.41438 0.0
C591 C 0.172 0.43017 0.58371 0.0
C592 C 0.13835 0.83133 0.08298 0.0
C593 C 0.13606 0.8311 0.16763 0.0
H594 H 0.1377 0.85615 0.98921 0.0
C595 C 0.13684 0.85658 0.22401 0.0
H596 H 0.13836 0.81204 0.03816 0.0
C597 C 0.13658 0.88178 0.19601 0.0
C598 C 0.13543 0.88191 0.11123 0.0
H599 H 0.13484 0.8572 0.28964 0.0
H600 H 0.13459 0.90103 0.24069 0.0
C601 C 0.13795 0.85654 0.055 0.0
C602 C 0.66024 0.91103 0.0939 0.0
C603 C 0.66918 0.90926 0.17444 0.0
H604 H 0.63406 0.93347 0.01822 0.0
C605 C 0.65316 0.92507 0.24123 0.0
H606 H 0.6718 0.89883 0.04127 0.0
C607 C 0.63187 0.94508 0.22811 0.0
C608 C 0.62619 0.9495 0.14808 0.0
H609 H 0.65947 0.92442 0.30425 0.0
H610 H 0.62212 0.9588 0.28099 0.0
C611 C 0.63894 0.93107 0.08084 0.0
C612 C 0.46227 0.62212 0.88651 0.0
C613 C 0.46163 0.63288 0.97155 0.0
H614 H 0.47056 0.58659 0.79173 0.0
C615 C 0.46444 0.61433 0.0269 0.0
H616 H 0.45958 0.63575 0.8423 0.0
C617 C 0.47043 0.58605 0.99789 0.0
C618 C 0.47398 0.57592 0.91317 0.0
H619 H 0.46435 0.62192 0.09287 0.0
H620 H 0.47442 0.57262 0.04209 0.0
C621 C 0.46854 0.59395 0.85761 0.0
C622 C 0.87139 0.58734 0.1967 0.0
C623 C 0.84008 0.58303 0.18792 0.0
H624 H 0.91584 0.56975 0.17279 0.0
C625 C 0.82996 0.55784 0.13976 0.0
H626 H 0.88002 0.6065 0.23271 0.0
C627 C 0.85027 0.5368 0.10707 0.0
C628 C 0.88137 0.5403 0.12073 0.0
H629 H 0.80614 0.55316 0.13264 0.0
H630 H 0.84134 0.51714 0.07518 0.0
C631 C 0.89186 0.56616 0.16333 0.0
C632 C 0.0614 0.12151 1.00144 0.0
C633 C 0.04996 0.13988 0.95231 0.0
H634 H 0.06529 0.07956 0.02038 0.0
C635 C 0.03416 0.12862 0.87975 0.0
H636 H 0.07308 0.12935 0.05873 0.0
C637 C 0.02942 0.09981 0.85796 0.0
C638 C 0.04014 0.08163 0.90865 0.0
H639 H 0.02505 0.14211 0.84044 0.0
H640 H 1.01683 0.09189 0.80225 0.0
C641 C 0.05655 0.09286 0.97999 0.0
C642 C 0.39201 0.97931 0.9871 0.0
C643 C 0.37898 0.00459 0.0279 0.0
H644 H 0.42921 0.95903 0.91534 0.0
C645 C 0.39514 0.02929 0.02809 0.0
H646 H 0.3803 0.9599 0.98558 0.0
C647 C 0.42343 0.02877 0.98921 0.0
C648 C 0.43627 0.00359 0.94729 0.0
H649 H 0.38607 0.04912 0.05963 0.0
H650 H 0.43513 0.04823 0.99136 0.0
C651 C 0.42005 0.97886 0.94652 0.0
C652 C 0.45943 0.32917 0.19906 0.0
C653 C 0.47494 0.30578 0.15475 0.0
H654 H 0.4443 0.37115 0.20326 0.0
C655 C 0.4853 0.30684 0.075 0.0
H656 H 0.45168 0.32945 0.26129 0.0
C657 C 0.48114 0.33095 0.04168 0.0
C658 C 0.46654 0.35466 0.08725 0.0
H659 H 0.49705 0.28915 0.03872 0.0
H660 H 0.4896 0.33107 0.98035 0.0
C661 C 0.45529 0.35324 0.16581 0.0
C662 C 0.13777 0.4571 0.99677 0.0
C663 C 0.15764 0.47982 0.01547 0.0
H664 H 0.09471 0.44199 0.94788 0.0
C665 C 0.14792 0.50556 0.99758 0.0
H666 H 0.1442 0.43701 0.01039 0.0
C667 C 0.11954 0.50833 0.96073 0.0
C668 C 0.09969 0.4856 0.94207 0.0
H669 H 0.16254 0.52348 0.01061 0.0
H670 H 0.11312 0.52842 0.94706 0.0
C671 C 0.1092 0.45999 0.96125 0.0
C672 C 0.99737 0.87323 0.66362 0.0
C673 C 1.01615 0.85354 0.69221 0.0
H674 H 0.98324 0.91592 0.67713 0.0
C675 C 0.03359 0.86269 0.7637 0.0
H676 H 0.98393 0.86746 0.60829 0.0
C677 C 0.03393 0.89087 0.8015 0.0
C678 C 1.01615 0.91054 0.77046 0.0
H679 H 0.04771 0.84826 0.78954 0.0
H680 H 0.04845 0.89729 0.8544 0.0
C681 C 0.99714 0.90126 0.70277 0.0
C682 C 0.66219 0.99626 0.73653 0.0
C683 C 0.66505 0.99665 0.65162 0.0
H684 H 0.63246 0.99657 0.83949 0.0
C685 C 0.63815 -0.00223 0.60608 0.0
H686 H 0.68214 0.99564 0.77434 0.0
C687 C 0.6096 -0.00169 0.6436 0.0
C688 C 0.60675 -0.00225 0.72821 0.0
H689 H 0.63901 -0.00245 0.54049 0.0
H690 H 0.58967 -0.001 0.60572 0.0
C691 C 0.63355 0.99688 0.77419 0.0
C692 C 0.57623 0.66601 0.44285 0.0
C693 C 0.56244 0.69065 0.4854 0.0
H694 H 0.58852 0.62354 0.44303 0.0
C695 C 0.552 0.69122 0.56605 0.0
H696 H 0.58397 0.66451 0.38006 0.0
C697 C 0.55445 0.66755 0.60209 0.0
C698 C 0.56742 0.64267 0.55848 0.0
H699 H 0.54156 0.70989 0.60103 0.0
H700 H 0.54606 0.66871 0.66414 0.0
C701 C 0.57871 0.64238 0.47889 0.0
C702 C 0.90168 0.50966 0.59394 0.0
C703 C 0.87443 0.50812 0.63688 0.0
H704 H 0.95021 0.50979 0.59712 0.0
C705 C 0.87661 0.5054 0.72024 0.0
H706 H 0.90125 0.51228 0.53033 0.0
C707 C 0.90492 0.50419 0.75896 0.0
C708 C 0.9321 0.50577 0.71592 0.0
H709 H 0.85639 0.50389 0.7557 0.0
H710 H 0.90542 0.50193 0.82288 0.0
C711 C 0.92996 0.50853 0.63272 0.0
loop_
_geom_bond_atom_site_label_1
_geom_bond_atom_site_label_2
_geom_bond_distance
_geom_bond_site_symmetry_2
_ccdc_geom_bond_type
C0 C1 1.386 . S
C0 C2 1.397 . S
C0 H24 0.931 . S
C1 C0 1.386 . S
C1 C5 1.397 . S
C2 C0 1.397 . S
C2 C3 1.384 . S
C2 H25 0.930 . S
C3 C2 1.384 . S
C3 C4 1.377 . S
C3 C6 1.481 . S
C4 C3 1.377 . S
C4 C5 1.389 . S
C4 H26 0.929 . S
C5 C1 1.397 . S
C5 C4 1.389 . S
C5 H27 0.931 . S
C6 C3 1.481 . S
C6 C7 1.387 . S
C6 C11 1.390 . S
C7 C6 1.387 . S
C7 C8 1.401 . S
C7 H28 0.930 . S
C8 C7 1.401 . S
C8 C9 1.376 . S
C8 C17 1.511 . S
C9 C8 1.376 . S
C9 C10 1.392 . S
C9 H30 0.931 . S
C10 C9 1.392 . S
C10 C11 1.361 . S
C10 C12 1.500 . S
C11 C6 1.390 . S
C11 C10 1.361 . S
C11 H29 0.931 . S
C12 C10 1.500 . S
C12 C13 1.371 . S
C12 C14 1.365 . S
C13 C12 1.371 . S
C13 C23 1.386 . S
C13 H31 0.931 . S
C14 C12 1.365 . S
C14 C15 1.409 . S
C14 H32 0.929 . S
C15 C14 1.409 . S
C15 C16 1.380 . S
C15 H33 0.930 . S
C16 C15 1.380 . S
C16 C23 1.357 . S
C17 C8 1.511 . S
C17 C18 1.341 . S
C17 C19 1.371 . S
C18 C17 1.341 . S
C18 C22 1.394 . S
C18 H34 0.930 . S
C19 C17 1.371 . S
C19 C20 1.392 . S
C19 H35 0.931 . S
C20 C19 1.392 . S
C20 C21 1.331 . S
C20 H38 0.932 . S
C21 C20 1.331 . S
C21 C22 1.336 . S
C22 C18 1.394 . S
C22 C21 1.336 . S
C22 H37 0.929 . S
C23 C13 1.386 . S
C23 C16 1.357 . S
C23 H36 0.928 . S
H24 C0 0.931 . S
H25 C2 0.930 . S
H26 C4 0.929 . S
H27 C5 0.931 . S
H28 C7 0.930 . S
H29 C11 0.931 . S
H30 C9 0.931 . S
H31 C13 0.931 . S
H32 C14 0.929 . S
H33 C15 0.930 . S
H34 C18 0.930 . S
H35 C19 0.931 . S
H36 C23 0.928 . S
H37 C22 0.929 . S
H38 C20 0.932 . S
C39 C40 1.395 . S
C39 C41 1.397 . S
C39 H63 0.931 . S
C40 C39 1.395 . S
C40 C44 1.389 1_655 S
C41 C39 1.397 . S
C41 C42 1.389 . S
C41 H64 0.930 . S
C42 C41 1.389 . S
C42 C43 1.372 1_655 S
C42 C45 1.480 . S
C43 C42 1.372 1_455 S
C43 C44 1.389 . S
C43 H65 0.929 . S
C44 C40 1.389 1_455 S
C44 C43 1.389 . S
C44 H66 0.931 . S
C45 C42 1.480 . S
C45 C46 1.389 . S
C45 C50 1.390 . S
C46 C45 1.389 . S
C46 C47 1.402 . S
C46 H67 0.930 . S
C47 C46 1.402 . S
C47 C48 1.377 . S
C47 C56 1.513 . S
C48 C47 1.377 . S
C48 C49 1.392 . S
C48 H69 0.931 . S
C49 C48 1.392 . S
C49 C50 1.361 . S
C49 C51 1.499 1_655 S
C50 C45 1.390 . S
C50 C49 1.361 . S
C50 H68 0.931 . S
C51 C49 1.499 1_455 S
C51 C52 1.361 1_455 S
C51 C53 1.376 . S
C52 C51 1.361 1_655 S
C52 C62 1.386 . S
C52 H70 0.931 . S
C53 C51 1.376 . S
C53 C54 1.409 . S
C53 H71 0.929 . S
C54 C53 1.409 . S
C54 C55 1.380 . S
C54 H72 0.930 . S
C55 C54 1.380 . S
C55 C62 1.357 1_455 S
C56 C47 1.513 . S
C56 C57 1.341 . S
C56 C58 1.371 1_655 S
C57 C56 1.341 . S
C57 C61 1.394 . S
C57 H73 0.930 . S
C58 C56 1.371 1_455 S
C58 C59 1.392 . S
C58 H74 0.931 . S
C59 C58 1.392 . S
C59 C60 1.322 1_455 S
C59 H77 0.932 . S
C60 C59 1.322 1_655 S
C60 C61 1.345 . S
C61 C57 1.394 . S
C61 C60 1.345 . S
C61 H76 0.929 . S
C62 C52 1.386 . S
C62 C55 1.357 1_655 S
C62 H75 0.928 . S
H63 C39 0.931 . S
H64 C41 0.930 . S
H65 C43 0.929 . S
H66 C44 0.931 . S
H67 C46 0.930 . S
H68 C50 0.931 . S
H69 C48 0.931 . S
H70 C52 0.931 . S
H71 C53 0.929 . S
H72 C54 0.930 . S
H73 C57 0.930 . S
H74 C58 0.931 . S
H75 C62 0.928 . S
H76 C61 0.929 . S
H77 C59 0.932 . S
C78 C79 1.394 . S
C78 C80 1.397 . S
C78 H102 0.931 . S
C79 C78 1.394 . S
C79 C83 1.391 1_565 S
C80 C78 1.397 . S
C80 C81 1.387 . S
C80 H103 0.930 . S
C81 C80 1.387 . S
C81 C82 1.373 1_565 S
C81 C84 1.477 . S
C82 C81 1.373 1_545 S
C82 C83 1.389 . S
C82 H104 0.929 . S
C83 C79 1.391 1_545 S
C83 C82 1.389 . S
C83 H105 0.931 . S
C84 C81 1.477 . S
C84 C85 1.386 . S
C84 C89 1.394 . S
C85 C84 1.386 . S
C85 C86 1.398 . S
C85 H106 0.930 . S
C86 C85 1.398 . S
C86 C87 1.383 . S
C86 C95 1.511 . S
C87 C86 1.383 . S
C87 C88 1.392 . S
C87 H108 0.931 . S
C88 C87 1.392 . S
C88 C89 1.362 . S
C88 C90 1.504 1_565 S
C89 C84 1.394 . S
C89 C88 1.362 . S
C89 H107 0.931 . S
C90 C88 1.504 1_545 S
C90 C91 1.358 1_545 S
C90 C92 1.374 . S
C91 C90 1.358 1_565 S
C91 C101 1.386 . S
C91 H109 0.931 . S
C92 C90 1.374 . S
C92 C93 1.409 . S
C92 H110 0.929 . S
C93 C92 1.409 . S
C93 C94 1.380 . S
C93 H111 0.930 . S
C94 C93 1.380 . S
C94 C101 1.357 1_545 S
C95 C86 1.511 . S
C95 C96 1.341 . S
C95 C97 1.371 1_565 S
C96 C95 1.341 . S
C96 C100 1.394 . S
C96 H112 0.930 . S
C97 C95 1.371 1_545 S
C97 C98 1.392 . S
C97 H113 0.931 . S
C98 C97 1.392 . S
C98 C99 1.328 1_545 S
C98 H116 0.932 . S
C99 C98 1.328 1_565 S
C99 C100 1.342 . S
C100 C96 1.394 . S
C100 C99 1.342 . S
C100 H115 0.929 . S
C101 C91 1.386 . S
C101 C94 1.357 1_565 S
C101 H114 0.928 . S
H102 C78 0.931 . S
H103 C80 0.930 . S
H104 C82 0.929 . S
H105 C83 0.931 . S
H106 C85 0.930 . S
H107 C89 0.931 . S
H108 C87 0.931 . S
H109 C91 0.931 . S
H110 C92 0.929 . S
H111 C93 0.930 . S
H112 C96 0.930 . S
H113 C97 0.931 . S
H114 C101 0.928 . S
H115 C100 0.929 . S
H116 C98 0.932 . S
C117 C118 1.386 . S
C117 C119 1.397 . S
C117 H141 0.931 . S
C118 C117 1.386 . S
C118 C122 1.397 . S
C119 C117 1.397 . S
C119 C120 1.384 . S
C119 H142 0.930 . S
C120 C119 1.384 . S
C120 C121 1.377 . S
C120 C123 1.481 . S
C121 C120 1.377 . S
C121 C122 1.389 . S
C121 H143 0.929 . S
C122 C118 1.397 . S
C122 C121 1.389 . S
C122 H144 0.931 . S
C123 C120 1.481 . S
C123 C124 1.387 . S
C123 C128 1.390 . S
C124 C123 1.387 . S
C124 C125 1.401 1_554 S
C124 H145 0.930 . S
C125 C124 1.401 1_556 S
C125 C126 1.376 . S
C125 C134 1.511 . S
C126 C125 1.376 . S
C126 C127 1.392 . S
C126 H147 0.931 . S
C127 C126 1.392 . S
C127 C128 1.361 1_556 S
C127 C129 1.500 . S
C128 C123 1.390 . S
C128 C127 1.361 1_554 S
C128 H146 0.931 . S
C129 C127 1.500 . S
C129 C130 1.371 . S
C129 C131 1.365 . S
C130 C129 1.371 . S
C130 C140 1.386 . S
C130 H148 0.931 . S
C131 C129 1.365 . S
C131 C132 1.409 . S
C131 H149 0.929 . S
C132 C131 1.409 . S
C132 C133 1.380 . S
C132 H150 0.930 . S
C133 C132 1.380 . S
C133 C140 1.357 . S
C134 C125 1.511 . S
C134 C135 1.341 1_556 S
C134 C136 1.371 . S
C135 C134 1.341 1_554 S
C135 C139 1.394 . S
C135 H151 0.930 . S
C136 C134 1.371 . S
C136 C137 1.392 . S
C136 H152 0.931 . S
C137 C136 1.392 . S
C137 C138 1.331 . S
C137 H155 0.932 . S
C138 C137 1.331 . S
C138 C139 1.336 1_556 S
C139 C135 1.394 . S
C139 C138 1.336 1_554 S
C139 H154 0.929 . S
C140 C130 1.386 . S
C140 C133 1.357 . S
C140 H153 0.928 . S
H141 C117 0.931 . S
H142 C119 0.930 . S
H143 C121 0.929 . S
H144 C122 0.931 . S
H145 C124 0.930 . S
H146 C128 0.931 . S
H147 C126 0.931 . S
H148 C130 0.931 . S
H149 C131 0.929 . S
H150 C132 0.930 . S
H151 C135 0.930 . S
H152 C136 0.931 . S
H153 C140 0.928 . S
H154 C139 0.929 . S
H155 C137 0.932 . S
C156 C157 1.386 . S
C156 C158 1.397 . S
C156 H180 0.931 . S
C157 C156 1.386 . S
C157 C161 1.397 . S
C158 C156 1.397 . S
C158 C159 1.384 . S
C158 H181 0.930 . S
C159 C158 1.384 . S
C159 C160 1.377 . S
C159 C162 1.481 . S
C160 C159 1.377 . S
C160 C161 1.389 . S
C160 H182 0.929 . S
C161 C157 1.397 . S
C161 C160 1.389 . S
C161 H183 0.931 . S
C162 C159 1.481 . S
C162 C163 1.387 . S
C162 C167 1.390 . S
C163 C162 1.387 . S
C163 C164 1.401 . S
C163 H184 0.930 . S
C164 C163 1.401 . S
C164 C165 1.376 . S
C164 C173 1.511 . S
C165 C164 1.376 . S
C165 C166 1.392 . S
C165 H186 0.931 . S
C166 C165 1.392 . S
C166 C167 1.361 . S
C166 C168 1.500 . S
C167 C162 1.390 . S
C167 C166 1.361 . S
C167 H185 0.931 . S
C168 C166 1.500 . S
C168 C169 1.371 1_554 S
C168 C170 1.365 1_554 S
C169 C168 1.371 1_556 S
C169 C179 1.386 . S
C169 H187 0.931 . S
C170 C168 1.365 1_556 S
C170 C171 1.409 . S
C170 H188 0.929 1_556 S
C171 C170 1.409 . S
C171 C172 1.380 . S
C171 H189 0.930 . S
C172 C171 1.380 . S
C172 C179 1.357 . S
C173 C164 1.511 . S
C173 C174 1.341 . S
C173 C175 1.371 . S
C174 C173 1.341 . S
C174 C178 1.394 . S
C174 H190 0.930 . S
C175 C173 1.371 . S
C175 C176 1.392 . S
C175 H191 0.931 . S
C176 C175 1.392 . S
C176 C177 1.331 . S
C176 H194 0.932 . S
C177 C176 1.331 . S
C177 C178 1.336 . S
C178 C174 1.394 . S
C178 C177 1.336 . S
C178 H193 0.929 . S
C179 C169 1.386 . S
C179 C172 1.357 . S
C179 H192 0.928 . S
H180 C156 0.931 . S
H181 C158 0.930 . S
H182 C160 0.929 . S
H183 C161 0.931 . S
H184 C163 0.930 . S
H185 C167 0.931 . S
H186 C165 0.931 . S
H187 C169 0.931 . S
H188 C170 0.929 1_554 S
H189 C171 0.930 . S
H190 C174 0.930 . S
H191 C175 0.931 . S
H192 C179 0.928 . S
H193 C178 0.929 . S
H194 C176 0.932 . S
C195 C196 1.389 . S
C195 C197 1.397 . S
C195 H219 0.931 . S
C196 C195 1.389 . S
C196 C200 1.394 1_655 S
C197 C195 1.397 . S
C197 C198 1.383 . S
C197 H220 0.930 . S
C198 C197 1.383 . S
C198 C199 1.378 1_655 S
C198 C201 1.481 . S
C199 C198 1.378 1_455 S
C199 C200 1.389 . S
C199 H221 0.929 . S
C200 C196 1.394 1_455 S
C200 C199 1.389 . S
C200 H222 0.931 . S
C201 C198 1.481 . S
C201 C202 1.388 . S
C201 C206 1.390 . S
C202 C201 1.388 . S
C202 C203 1.402 . S
C202 H223 0.930 . S
C203 C202 1.402 . S
C203 C204 1.376 . S
C203 C212 1.512 . S
C204 C203 1.376 . S
C204 C205 1.392 1_655 S
C204 H225 0.933 . S
C205 C204 1.392 1_455 S
C205 C206 1.361 1_455 S
C205 C207 1.499 . S
C206 C201 1.390 . S
C206 C205 1.361 1_655 S
C206 H224 0.931 . S
C207 C205 1.499 . S
C207 C208 1.357 1_455 S
C207 C209 1.380 . S
C208 C207 1.357 1_655 S
C208 C218 1.386 1_554 S
C208 H226 0.931 . S
C209 C207 1.380 . S
C209 C210 1.409 1_554 S
C209 H227 0.929 . S
C210 C209 1.409 1_556 S
C210 C211 1.384 . S
C210 H228 0.930 . S
C211 C210 1.384 . S
C211 C218 1.353 1_455 S
C212 C203 1.512 . S
C212 C213 1.341 . S
C212 C214 1.371 1_655 S
C213 C212 1.341 . S
C213 C217 1.394 . S
C213 H229 0.930 . S
C214 C212 1.371 1_455 S
C214 C215 1.392 . S
C214 H230 0.931 . S
C215 C214 1.392 . S
C215 C216 1.325 1_455 S
C215 H233 0.932 . S
C216 C215 1.325 1_655 S
C216 C217 1.343 . S
C217 C213 1.394 . S
C217 C216 1.343 . S
C217 H232 0.929 . S
C218 C208 1.386 1_556 S
C218 C211 1.353 1_655 S
C218 H231 0.928 . S
H219 C195 0.931 . S
H220 C197 0.930 . S
H221 C199 0.929 . S
H222 C200 0.931 . S
H223 C202 0.930 . S
H224 C206 0.931 . S
H225 C204 0.933 . S
H226 C208 0.931 . S
H227 C209 0.929 . S
H228 C210 0.930 . S
H229 C213 0.930 . S
H230 C214 0.931 . S
H231 C218 0.928 . S
H232 C217 0.929 . S
H233 C215 0.932 . S
C234 C235 1.389 . S
C234 C236 1.397 . S
C234 H258 0.931 . S
C235 C234 1.389 . S
C235 C239 1.394 1_565 S
C236 C234 1.397 . S
C236 C237 1.383 . S
C236 H259 0.930 . S
C237 C236 1.383 . S
C237 C238 1.378 1_565 S
C237 C240 1.484 . S
C238 C237 1.378 1_545 S
C238 C239 1.389 . S
C238 H260 0.929 . S
C239 C235 1.394 1_545 S
C239 C238 1.389 . S
C239 H261 0.931 . S
C240 C237 1.484 . S
C240 C241 1.389 . S
C240 C245 1.386 . S
C241 C240 1.389 . S
C241 C242 1.405 . S
C241 H262 0.930 . S
C242 C241 1.405 . S
C242 C243 1.379 . S
C242 C251 1.514 . S
C243 C242 1.379 . S
C243 C244 1.390 1_565 S
C243 H264 0.928 . S
C244 C243 1.390 1_545 S
C244 C245 1.361 1_545 S
C244 C246 1.492 . S
C245 C240 1.386 . S
C245 C244 1.361 1_565 S
C245 H263 0.930 . S
C246 C244 1.492 . S
C246 C247 1.361 1_544 S
C246 C248 1.383 . S
C247 C246 1.361 1_566 S
C247 C257 1.386 . S
C247 H265 0.931 . S
C248 C246 1.383 . S
C248 C249 1.409 1_554 S
C248 H266 0.929 . S
C249 C248 1.409 1_556 S
C249 C250 1.383 . S
C249 H267 0.930 . S
C250 C249 1.383 . S
C250 C257 1.353 1_545 S
C251 C242 1.514 . S
C251 C252 1.341 . S
C251 C253 1.371 1_565 S
C252 C251 1.341 . S
C252 C256 1.394 . S
C252 H268 0.930 . S
C253 C251 1.371 1_545 S
C253 C254 1.392 . S
C253 H269 0.931 . S
C254 C253 1.392 . S
C254 C255 1.321 1_545 S
C254 H272 0.932 . S
C255 C254 1.321 1_565 S
C255 C256 1.345 . S
C256 C252 1.394 . S
C256 C255 1.345 . S
C256 H271 0.929 . S
C257 C247 1.386 . S
C257 C250 1.353 1_565 S
C257 H270 0.928 . S
H258 C234 0.931 . S
H259 C236 0.930 . S
H260 C238 0.929 . S
H261 C239 0.931 . S
H262 C241 0.930 . S
H263 C245 0.930 . S
H264 C243 0.928 . S
H265 C247 0.931 . S
H266 C248 0.929 . S
H267 C249 0.930 . S
H268 C252 0.930 . S
H269 C253 0.931 . S
H270 C257 0.928 . S
H271 C256 0.929 . S
H272 C254 0.932 . S
C273 C274 1.386 . S
C273 C275 1.397 . S
C273 H297 0.931 . S
C274 C273 1.386 . S
C274 C278 1.397 . S
C275 C273 1.397 . S
C275 C276 1.384 . S
C275 H298 0.930 . S
C276 C275 1.384 . S
C276 C277 1.377 . S
C276 C279 1.481 . S
C277 C276 1.377 . S
C277 C278 1.389 . S
C277 H299 0.929 . S
C278 C274 1.397 . S
C278 C277 1.389 . S
C278 H300 0.931 . S
C279 C276 1.481 . S
C279 C280 1.387 . S
C279 C284 1.390 . S
C280 C279 1.387 . S
C280 C281 1.401 . S
C280 H301 0.930 . S
C281 C280 1.401 . S
C281 C282 1.376 . S
C281 C290 1.511 . S
C282 C281 1.376 . S
C282 C283 1.392 . S
C282 H303 0.931 . S
C283 C282 1.392 . S
C283 C284 1.361 . S
C283 C285 1.500 . S
C284 C279 1.390 . S
C284 C283 1.361 . S
C284 H302 0.931 . S
C285 C283 1.500 . S
C285 C286 1.371 . S
C285 C287 1.365 . S
C286 C285 1.371 . S
C286 C296 1.386 . S
C286 H304 0.931 . S
C287 C285 1.365 . S
C287 C288 1.409 . S
C287 H305 0.929 . S
C288 C287 1.409 . S
C288 C289 1.380 . S
C288 H306 0.930 . S
C289 C288 1.380 . S
C289 C296 1.357 . S
C290 C281 1.511 . S
C290 C291 1.341 . S
C290 C292 1.371 . S
C291 C290 1.341 . S
C291 C295 1.394 . S
C291 H307 0.930 . S
C292 C290 1.371 . S
C292 C293 1.392 . S
C292 H308 0.931 . S
C293 C292 1.392 . S
C293 C294 1.331 . S
C293 H311 0.932 . S
C294 C293 1.331 . S
C294 C295 1.336 . S
C295 C291 1.394 . S
C295 C294 1.336 . S
C295 H310 0.929 . S
C296 C286 1.386 . S
C296 C289 1.357 . S
C296 H309 0.928 . S
H297 C273 0.931 . S
H298 C275 0.930 . S
H299 C277 0.929 . S
H300 C278 0.931 . S
H301 C280 0.930 . S
H302 C284 0.931 . S
H303 C282 0.931 . S
H304 C286 0.931 . S
H305 C287 0.929 . S
H306 C288 0.930 . S
H307 C291 0.930 . S
H308 C292 0.931 . S
H309 C296 0.928 . S
H310 C295 0.929 . S
H311 C293 0.932 . S
Tb312 C321 2.764 . S
Tb312 O322 2.325 . S
Tb312 O325 2.303 1_655 S
Tb312 O329 2.322 1_545 S
Tb312 O330 2.349 . S
Tb312 O333 2.415 . S
Tb312 O334 2.399 . S
Tb313 O323 2.322 1_565 S
Tb313 O324 2.349 . S
Tb313 O326 2.415 . S
Tb313 O327 2.399 . S
Tb313 O328 2.325 . S
Tb313 O331 2.303 1_455 S
Tb313 C342 2.764 . S
C314 O330 1.261 . S
C314 O331 1.257 1_545 S
C315 C318 1.358 . S
C315 C319 1.332 . S
C315 C321 1.504 . S
C316 C317 1.373 . S
C316 C320 1.308 . S
C317 C316 1.373 . S
C317 C318 1.429 . S
C317 H344 0.932 . S
C318 C315 1.358 . S
C318 C317 1.429 . S
C318 H345 0.930 . S
C319 C315 1.332 . S
C319 C320 1.394 . S
C319 H346 0.932 1_655 S
C320 C316 1.308 . S
C320 C319 1.394 . S
C320 H347 0.929 . S
C321 Tb312 2.764 . S
C321 C315 1.504 . S
C321 O333 1.239 . S
C321 O334 1.263 . S
O322 Tb312 2.325 . S
O322 C332 1.236 1_655 S
O323 Tb313 2.322 1_545 S
O323 C332 1.257 . S
O324 Tb313 2.349 . S
O324 C335 1.261 . S
O325 Tb312 2.303 1_455 S
O325 C335 1.257 1_545 S
O326 Tb313 2.415 . S
O326 C342 1.239 . S
O327 Tb313 2.399 . S
O327 C342 1.263 . S
O328 Tb313 2.325 . S
O328 C343 1.236 1_455 S
O329 Tb312 2.322 1_565 S
O329 C343 1.257 . S
O330 Tb312 2.349 . S
O330 C314 1.261 . S
O331 Tb313 2.303 1_655 S
O331 C314 1.257 1_565 S
C332 O322 1.236 1_455 S
C332 O323 1.257 . S
O333 Tb312 2.415 . S
O333 C321 1.239 . S
O334 Tb312 2.399 . S
O334 C321 1.263 . S
C335 O324 1.261 . S
C335 O325 1.257 1_565 S
C336 C339 1.358 1_556 S
C336 C340 1.332 1_556 S
C336 C342 1.504 . S
C337 C338 1.373 . S
C337 C341 1.308 . S
C338 C337 1.373 . S
C338 C339 1.429 . S
C338 H348 0.932 . S
C339 C336 1.358 1_554 S
C339 C338 1.429 . S
C339 H349 0.930 1_554 S
C340 C336 1.332 1_554 S
C340 C341 1.394 . S
C340 H350 0.895 1_455 S
C341 C337 1.308 . S
C341 C340 1.394 . S
C341 H351 0.929 . S
C342 Tb313 2.764 . S
C342 O326 1.239 . S
C342 O327 1.263 . S
C342 C336 1.504 . S
C343 O328 1.236 1_655 S
C343 O329 1.257 . S
H344 C317 0.932 . S
H345 C318 0.930 . S
H346 C319 0.932 1_455 S
H347 C320 0.929 . S
H348 C338 0.932 . S
H349 C339 0.930 1_556 S
H350 C340 0.895 1_655 S
H351 C341 0.929 . S
Tb352 C361 2.764 . S
Tb352 O362 2.325 . S
Tb352 O365 2.303 1_565 S
Tb352 O369 2.322 . S
Tb352 O370 2.349 . S
Tb352 O373 2.415 1_565 S
Tb352 O374 2.399 . S
Tb353 O363 2.322 . S
Tb353 O364 2.349 . S
Tb353 O366 2.415 1_545 S
Tb353 O367 2.399 . S
Tb353 O368 2.325 . S
Tb353 O371 2.303 1_545 S
Tb353 C382 2.764 1_556 S
C354 O370 1.261 . S
C354 O371 1.257 . S
C355 C358 1.358 . S
C355 C359 1.307 1_565 S
C355 C361 1.504 . S
C356 C357 1.373 . S
C356 C360 1.308 . S
C357 C356 1.373 . S
C357 C358 1.429 . S
C357 H384 0.932 . S
C358 C355 1.358 . S
C358 C357 1.429 . S
C358 H385 0.930 . S
C359 C355 1.307 1_545 S
C359 C360 1.395 1_545 S
C359 H386 0.957 . S
C360 C356 1.308 . S
C360 C359 1.395 1_565 S
C360 H387 0.929 1_565 S
C361 Tb352 2.764 . S
C361 C355 1.504 . S
C361 O373 1.239 1_565 S
C361 O374 1.263 . S
O362 Tb352 2.325 . S
O362 C372 1.236 1_565 S
O363 Tb353 2.322 . S
O363 C372 1.257 . S
O364 Tb353 2.349 . S
O364 C375 1.261 . S
O365 Tb352 2.303 1_545 S
O365 C375 1.257 . S
O366 Tb353 2.415 1_565 S
O366 C382 1.239 1_566 S
O367 Tb353 2.399 . S
O367 C382 1.263 1_556 S
O368 Tb353 2.325 . S
O368 C383 1.236 1_545 S
O369 Tb352 2.322 . S
O369 C383 1.257 . S
O370 Tb352 2.349 . S
O370 C354 1.261 . S
O371 Tb353 2.303 1_565 S
O371 C354 1.257 . S
C372 O362 1.236 1_545 S
C372 O363 1.257 . S
O373 Tb352 2.415 1_545 S
O373 C361 1.239 1_545 S
O374 Tb352 2.399 . S
O374 C361 1.263 . S
C375 O364 1.261 . S
C375 O365 1.257 . S
C376 C379 1.358 . S
C376 C380 1.315 1_545 S
C376 C382 1.504 . S
C377 C378 1.373 . S
C377 C381 1.308 . S
C378 C377 1.373 . S
C378 C379 1.429 . S
C378 H388 0.932 . S
C379 C376 1.358 . S
C379 C378 1.429 . S
C379 H389 0.930 . S
C380 C376 1.315 1_565 S
C380 C381 1.395 1_565 S
C380 H390 0.949 . S
C381 C377 1.308 . S
C381 C380 1.395 1_545 S
C381 H391 0.929 1_545 S
C382 Tb353 2.764 1_554 S
C382 O366 1.239 1_544 S
C382 O367 1.263 1_554 S
C382 C376 1.504 . S
C383 O368 1.236 1_565 S
C383 O369 1.257 . S
H384 C357 0.932 . S
H385 C358 0.930 . S
H386 C359 0.957 . S
H387 C360 0.929 1_545 S
H388 C378 0.932 . S
H389 C379 0.930 . S
H390 C380 0.949 . S
H391 C381 0.929 1_565 S
Tb392 C401 2.764 1_556 S
Tb392 O402 2.325 . S
Tb392 O405 2.303 . S
Tb392 O409 2.322 . S
Tb392 O410 2.349 . S
Tb392 O413 2.415 1_556 S
Tb392 O414 2.399 . S
Tb393 O403 2.322 . S
Tb393 O404 2.349 . S
Tb393 O406 2.415 . S
Tb393 O407 2.399 . S
Tb393 O408 2.325 . S
Tb393 O411 2.303 . S
Tb393 C422 2.764 . S
C394 O410 1.261 . S
C394 O411 1.257 . S
C395 C398 1.358 . S
C395 C399 1.332 . S
C395 C401 1.504 . S
C396 C397 1.373 . S
C396 C400 1.308 . S
C397 C396 1.373 . S
C397 C398 1.429 . S
C397 H424 0.932 . S
C398 C395 1.358 . S
C398 C397 1.429 . S
C398 H425 0.930 . S
C399 C395 1.332 . S
C399 C400 1.394 . S
C399 H426 0.932 . S
C400 C396 1.308 . S
C400 C399 1.394 . S
C400 H427 0.929 . S
C401 Tb392 2.764 1_554 S
C401 C395 1.504 . S
C401 O413 1.239 . S
C401 O414 1.263 1_554 S
O402 Tb392 2.325 . S
O402 C412 1.236 . S
O403 Tb393 2.322 . S
O403 C412 1.257 . S
O404 Tb393 2.349 . S
O404 C415 1.261 . S
O405 Tb392 2.303 . S
O405 C415 1.257 . S
O406 Tb393 2.415 . S
O406 C422 1.239 . S
O407 Tb393 2.399 . S
O407 C422 1.263 . S
O408 Tb393 2.325 . S
O408 C423 1.236 . S
O409 Tb392 2.322 . S
O409 C423 1.257 . S
O410 Tb392 2.349 . S
O410 C394 1.261 . S
O411 Tb393 2.303 . S
O411 C394 1.257 . S
C412 O402 1.236 . S
C412 O403 1.257 . S
O413 Tb392 2.415 1_554 S
O413 C401 1.239 . S
O414 Tb392 2.399 . S
O414 C401 1.263 1_556 S
C415 O404 1.261 . S
C415 O405 1.257 . S
C416 C419 1.358 . S
C416 C420 1.332 . S
C416 C422 1.504 . S
C417 C418 1.373 . S
C417 C421 1.308 . S
C418 C417 1.373 . S
C418 C419 1.429 . S
C418 H428 0.932 . S
C419 C416 1.358 . S
C419 C418 1.429 . S
C419 H429 0.930 . S
C420 C416 1.332 . S
C420 C421 1.394 . S
C420 H430 0.932 . S
C421 C417 1.308 . S
C421 C420 1.394 . S
C421 H431 0.929 . S
C422 Tb393 2.764 . S
C422 O406 1.239 . S
C422 O407 1.263 . S
C422 C416 1.504 . S
C423 O408 1.236 . S
C423 O409 1.257 . S
H424 C397 0.932 . S
H425 C398 0.930 . S
H426 C399 0.932 . S
H427 C400 0.929 . S
H428 C418 0.932 . S
H429 C419 0.930 . S
H430 C420 0.932 . S
H431 C421 0.929 . S
Tb432 C441 2.764 . S
Tb432 O442 2.325 . S
Tb432 O445 2.303 . S
Tb432 O449 2.322 1_455 S
Tb432 O450 2.349 . S
Tb432 O453 2.415 . S
Tb432 O454 2.399 . S
Tb433 O443 2.322 1_655 S
Tb433 O444 2.349 . S
Tb433 O446 2.415 . S
Tb433 O447 2.399 . S
Tb433 O448 2.325 . S
Tb433 O451 2.303 . S
Tb433 C462 2.764 . S
C434 O450 1.261 . S
C434 O451 1.257 1_455 S
C435 C438 1.358 . S
C435 C439 1.332 . S
C435 C441 1.504 . S
C436 C437 1.373 . S
C436 C440 1.308 . S
C437 C436 1.373 . S
C437 C438 1.429 . S
C437 H464 0.932 . S
C438 C435 1.358 . S
C438 C437 1.429 . S
C438 H465 0.930 . S
C439 C435 1.332 . S
C439 C440 1.394 . S
C439 H466 0.932 . S
C440 C436 1.308 . S
C440 C439 1.394 . S
C440 H467 0.929 . S
C441 Tb432 2.764 . S
C441 C435 1.504 . S
C441 O453 1.239 . S
C441 O454 1.263 . S
O442 Tb432 2.325 . S
O442 C452 1.236 . S
O443 Tb433 2.322 1_455 S
O443 C452 1.257 . S
O444 Tb433 2.349 . S
O444 C455 1.261 . S
O445 Tb432 2.303 . S
O445 C455 1.257 1_455 S
O446 Tb433 2.415 . S
O446 C462 1.239 . S
O447 Tb433 2.399 . S
O447 C462 1.263 . S
O448 Tb433 2.325 . S
O448 C463 1.236 . S
O449 Tb432 2.322 1_655 S
O449 C463 1.257 . S
O450 Tb432 2.349 . S
O450 C434 1.261 . S
O451 Tb433 2.303 . S
O451 C434 1.257 1_655 S
C452 O442 1.236 . S
C452 O443 1.257 . S
O453 Tb432 2.415 . S
O453 C441 1.239 . S
O454 Tb432 2.399 . S
O454 C441 1.263 . S
C455 O444 1.261 . S
C455 O445 1.257 1_655 S
C456 C459 1.358 . S
C456 C460 1.332 . S
C456 C462 1.504 1_554 S
C457 C458 1.373 . S
C457 C461 1.308 . S
C458 C457 1.373 . S
C458 C459 1.429 . S
C458 H468 0.932 . S
C459 C456 1.358 . S
C459 C458 1.429 . S
C459 H469 0.928 1_554 S
C460 C456 1.332 . S
C460 C461 1.394 . S
C460 H470 0.932 . S
C461 C457 1.308 . S
C461 C460 1.394 . S
C461 H471 0.929 . S
C462 Tb433 2.764 . S
C462 O446 1.239 . S
C462 O447 1.263 . S
C462 C456 1.504 1_556 S
C463 O448 1.236 . S
C463 O449 1.257 . S
H464 C437 0.932 . S
H465 C438 0.930 . S
H466 C439 0.932 . S
H467 C440 0.929 . S
H468 C458 0.932 . S
H469 C459 0.928 1_556 S
H470 C460 0.932 . S
H471 C461 0.929 . S
C472 C473 1.387 1_565 S
C472 H476 0.950 . S
C472 C481 1.390 . S
C473 C472 1.387 1_545 S
C473 C475 1.387 . S
H474 C481 0.950 . S
C475 C473 1.387 . S
C475 C477 1.390 . S
C475 H479 0.950 . S
H476 C472 0.950 . S
C477 C475 1.390 . S
C477 C478 1.387 . S
C477 H480 0.950 . S
C478 C477 1.387 . S
C478 C481 1.387 1_545 S
H479 C475 0.950 . S
H480 C477 0.950 . S
C481 C472 1.390 . S
C481 H474 0.950 . S
C481 C478 1.387 1_565 S
C482 C483 1.387 . S
C482 H486 0.950 . S
C482 C491 1.390 . S
C483 C482 1.387 . S
C483 C485 1.387 . S
H484 C491 0.950 . S
C485 C483 1.387 . S
C485 C487 1.390 . S
C485 H489 0.950 . S
H486 C482 0.950 . S
C487 C485 1.390 . S
C487 C488 1.387 . S
C487 H490 0.950 . S
C488 C487 1.387 . S
C488 C491 1.387 . S
H489 C485 0.950 . S
H490 C487 0.950 . S
C491 C482 1.390 . S
C491 H484 0.950 . S
C491 C488 1.387 . S
C492 C493 1.387 . S
C492 H496 0.950 . S
C492 C501 1.390 . S
C493 C492 1.387 . S
C493 C495 1.387 . S
H494 C501 0.950 . S
C495 C493 1.387 . S
C495 C497 1.390 . S
C495 H499 0.950 . S
H496 C492 0.950 . S
C497 C495 1.390 . S
C497 C498 1.387 . S
C497 H500 0.950 . S
C498 C497 1.387 . S
C498 C501 1.387 . S
H499 C495 0.950 . S
H500 C497 0.950 . S
C501 C492 1.390 . S
C501 H494 0.950 . S
C501 C498 1.387 . S
C502 C503 1.398 . S
C502 H506 0.950 . S
C502 C511 1.390 . S
C503 C502 1.398 . S
C503 C505 1.378 1_455 S
H504 C511 0.950 . S
C505 C503 1.378 1_655 S
C505 C507 1.390 . S
C505 H509 0.950 . S
H506 C502 0.950 . S
C507 C505 1.390 . S
C507 C508 1.387 1_655 S
C507 H510 0.950 . S
C508 C507 1.387 1_455 S
C508 C511 1.387 . S
H509 C505 0.950 . S
H510 C507 0.950 . S
C511 C502 1.390 . S
C511 H504 0.950 . S
C511 C508 1.387 . S
C512 C513 1.360 1_545 S
C512 H516 0.950 . S
C512 C521 1.390 . S
C513 C512 1.360 1_565 S
C513 C515 1.409 . S
H514 C521 0.950 . S
C515 C513 1.409 . S
C515 C517 1.390 . S
C515 H519 0.950 . S
H516 C512 0.950 . S
C517 C515 1.390 . S
C517 C518 1.387 . S
C517 H520 0.950 . S
C518 C517 1.387 . S
C518 C521 1.387 1_565 S
H519 C515 0.950 . S
H520 C517 0.950 . S
C521 C512 1.390 . S
C521 H514 0.950 . S
C521 C518 1.387 1_545 S
C522 C523 1.387 . S
C522 H526 0.950 1_556 S
C522 C531 1.390 . S
C523 C522 1.387 . S
C523 C525 1.387 . S
H524 C531 0.950 . S
C525 C523 1.387 . S
C525 C527 1.390 . S
C525 H529 0.950 . S
H526 C522 0.950 1_554 S
C527 C525 1.390 . S
C527 C528 1.387 . S
C527 H530 0.950 . S
C528 C527 1.387 . S
C528 C531 1.387 . S
H529 C525 0.950 . S
H530 C527 0.950 . S
C531 C522 1.390 . S
C531 H524 0.950 . S
C531 C528 1.387 . S
C532 C533 1.387 . S
C532 H536 0.950 . S
C532 C541 1.390 . S
C533 C532 1.387 . S
C533 C535 1.387 . S
H534 C541 0.950 . S
C535 C533 1.387 . S
C535 C537 1.390 . S
C535 H539 0.950 . S
H536 C532 0.950 . S
C537 C535 1.390 . S
C537 C538 1.387 . S
C537 H540 0.950 . S
C538 C537 1.387 . S
C538 C541 1.387 . S
H539 C535 0.950 . S
H540 C537 0.950 . S
C541 C532 1.390 . S
C541 H534 0.950 . S
C541 C538 1.387 . S
C542 C543 1.365 1_455 S
C542 H546 0.950 . S
C542 C551 1.390 . S
C543 C542 1.365 1_655 S
C543 C545 1.411 . S
H544 C551 0.950 . S
C545 C543 1.411 . S
C545 C547 1.390 . S
C545 H549 0.950 . S
H546 C542 0.950 . S
C547 C545 1.390 . S
C547 C548 1.387 . S
C547 H550 0.950 . S
C548 C547 1.387 . S
C548 C551 1.387 1_655 S
H549 C545 0.950 . S
H550 C547 0.950 . S
C551 C542 1.390 . S
C551 H544 0.950 . S
C551 C548 1.387 1_455 S
C552 C553 1.387 . S
C552 H556 0.950 . S
C552 C561 1.390 . S
C553 C552 1.387 . S
C553 C555 1.387 . S
H554 C561 0.950 . S
C555 C553 1.387 . S
C555 C557 1.390 . S
C555 H559 0.950 . S
H556 C552 0.950 . S
C557 C555 1.390 . S
C557 C558 1.387 . S
C557 H560 0.950 . S
C558 C557 1.387 . S
C558 C561 1.387 . S
H559 C555 0.950 . S
H560 C557 0.950 . S
C561 C552 1.390 . S
C561 H554 0.950 . S
C561 C558 1.387 . S
C562 C563 1.394 . S
C562 H566 0.957 . S
C562 C571 1.376 1_545 S
C563 C562 1.394 . S
C563 C565 1.387 1_545 S
H564 C571 0.950 . S
C565 C563 1.387 1_565 S
C565 C567 1.390 . S
C565 H569 0.950 . S
H566 C562 0.957 . S
C567 C565 1.390 . S
C567 C568 1.387 . S
C567 H570 0.950 . S
C568 C567 1.387 . S
C568 C571 1.387 . S
H569 C565 0.950 . S
H570 C567 0.950 . S
C571 C562 1.376 1_565 S
C571 H564 0.950 . S
C571 C568 1.387 . S
C572 C573 1.387 . S
C572 H576 0.943 1_556 S
C572 C581 1.390 . S
C573 C572 1.387 . S
C573 C575 1.387 . S
H574 C581 0.950 . S
C575 C573 1.387 . S
C575 C577 1.390 . S
C575 H579 0.950 . S
H576 C572 0.943 1_554 S
C577 C575 1.390 . S
C577 C578 1.387 . S
C577 H580 0.950 . S
C578 C577 1.387 . S
C578 C581 1.387 . S
H579 C575 0.950 . S
H580 C577 0.950 . S
C581 C572 1.390 . S
C581 H574 0.950 . S
C581 C578 1.387 . S
C582 C583 1.387 . S
C582 H586 0.950 . S
C582 C591 1.390 . S
C583 C582 1.387 . S
C583 C585 1.387 . S
H584 C591 0.950 . S
C585 C583 1.387 . S
C585 C587 1.390 . S
C585 H589 0.950 . S
H586 C582 0.950 . S
C587 C585 1.390 . S
C587 C588 1.387 . S
C587 H590 0.950 . S
C588 C587 1.387 . S
C588 C591 1.387 . S
H589 C585 0.950 . S
H590 C587 0.950 . S
C591 C582 1.390 . S
C591 H584 0.950 . S
C591 C588 1.387 . S
C592 C593 1.387 . S
C592 H596 0.950 . S
C592 C601 1.390 . S
C593 C592 1.387 . S
C593 C595 1.387 . S
H594 C601 0.950 1_556 S
C595 C593 1.387 . S
C595 C597 1.390 . S
C595 H599 0.950 . S
H596 C592 0.950 . S
C597 C595 1.390 . S
C597 C598 1.387 . S
C597 H600 0.950 . S
C598 C597 1.387 . S
C598 C601 1.387 . S
H599 C595 0.950 . S
H600 C597 0.950 . S
C601 C592 1.390 . S
C601 H594 0.950 1_554 S
C601 C598 1.387 . S
C602 C603 1.388 1_545 S
C602 H606 0.950 1_545 S
C602 C611 1.389 . S
C603 C602 1.388 1_565 S
C603 C605 1.387 1_565 S
H604 C611 0.950 . S
C605 C603 1.387 1_545 S
C605 C607 1.390 . S
C605 H609 0.950 . S
H606 C602 0.950 1_565 S
C607 C605 1.390 . S
C607 C608 1.387 . S
C607 H610 0.950 . S
C608 C607 1.387 . S
C608 C611 1.387 . S
H609 C605 0.950 . S
H610 C607 0.950 . S
C611 C602 1.389 . S
C611 H604 0.950 . S
C611 C608 1.387 . S
C612 C613 1.387 . S
C612 H616 0.950 . S
C612 C621 1.390 . S
C613 C612 1.387 . S
C613 C615 1.387 . S
H614 C621 0.950 . S
C615 C613 1.387 . S
C615 C617 1.390 . S
C615 H619 0.950 . S
H616 C612 0.950 . S
C617 C615 1.390 . S
C617 C618 1.387 . S
C617 H620 0.950 . S
C618 C617 1.387 . S
C618 C621 1.387 . S
H619 C615 0.950 . S
H620 C617 0.950 . S
C621 C612 1.390 . S
C621 H614 0.950 . S
C621 C618 1.387 . S
C622 C623 1.387 . S
C622 H626 0.950 . S
C622 C631 1.390 . S
C623 C622 1.387 . S
C623 C625 1.387 . S
H624 C631 0.950 . S
C625 C623 1.387 . S
C625 C627 1.390 . S
C625 H629 0.950 . S
H626 C622 0.950 . S
C627 C625 1.390 . S
C627 C628 1.387 . S
C627 H630 0.950 . S
C628 C627 1.387 . S
C628 C631 1.387 . S
H629 C625 0.950 . S
H630 C627 0.950 . S
C631 C622 1.390 . S
C631 H624 0.950 . S
C631 C628 1.387 . S
C632 C633 1.389 . S
C632 H636 0.947 1_455 S
C632 C641 1.391 . S
C633 C632 1.389 . S
C633 C635 1.387 . S
H634 C641 0.947 1_654 S
C635 C633 1.387 . S
C635 C637 1.390 . S
C635 H639 0.950 . S
H636 C632 0.947 1_655 S
C637 C635 1.390 . S
C637 C638 1.387 . S
C637 H640 0.950 . S
C638 C637 1.387 . S
C638 C641 1.387 . S
H639 C635 0.950 . S
H640 C637 0.950 . S
C641 C632 1.391 . S
C641 H634 0.947 1_456 S
C641 C638 1.387 . S
C642 C643 1.387 1_565 S
C642 H646 0.950 . S
C642 C651 1.390 . S
C643 C642 1.387 1_545 S
C643 C645 1.387 . S
H644 C651 0.950 . S
C645 C643 1.387 . S
C645 C647 1.390 . S
C645 H649 0.950 . S
H646 C642 0.950 . S
C647 C645 1.390 . S
C647 C648 1.387 . S
C647 H650 0.950 . S
C648 C647 1.387 . S
C648 C651 1.387 1_545 S
H649 C645 0.950 . S
H650 C647 0.950 . S
C651 C642 1.390 . S
C651 H644 0.950 . S
C651 C648 1.387 1_565 S
C652 C653 1.387 . S
C652 H656 0.950 . S
C652 C661 1.390 . S
C653 C652 1.387 . S
C653 C655 1.387 . S
H654 C661 0.950 . S
C655 C653 1.387 . S
C655 C657 1.390 . S
C655 H659 0.950 . S
H656 C652 0.950 . S
C657 C655 1.390 . S
C657 C658 1.387 . S
C657 H660 0.950 . S
C658 C657 1.387 . S
C658 C661 1.387 . S
H659 C655 0.950 . S
H660 C657 0.950 . S
C661 C652 1.390 . S
C661 H654 0.950 . S
C661 C658 1.387 . S
C662 C663 1.387 . S
C662 H666 0.950 . S
C662 C671 1.390 . S
C663 C662 1.387 . S
C663 C665 1.387 . S
H664 C671 0.950 . S
C665 C663 1.387 . S
C665 C667 1.390 . S
C665 H669 0.950 . S
H666 C662 0.950 . S
C667 C665 1.390 . S
C667 C668 1.387 . S
C667 H670 0.950 . S
C668 C667 1.387 . S
C668 C671 1.387 . S
H669 C665 0.950 . S
H670 C667 0.950 . S
C671 C662 1.390 . S
C671 H664 0.950 . S
C671 C668 1.387 . S
C672 C673 1.387 . S
C672 H676 0.950 . S
C672 C681 1.390 . S
C673 C672 1.387 . S
C673 C675 1.387 1_655 S
H674 C681 0.950 . S
C675 C673 1.387 1_455 S
C675 C677 1.390 . S
C675 H679 0.950 . S
H676 C672 0.950 . S
C677 C675 1.390 . S
C677 C678 1.387 1_455 S
C677 H680 0.950 . S
C678 C677 1.387 1_655 S
C678 C681 1.387 . S
H679 C675 0.950 . S
H680 C677 0.950 . S
C681 C672 1.390 . S
C681 H674 0.950 . S
C681 C678 1.387 . S
C682 C683 1.387 1_545 S
C682 H686 0.950 . S
C682 C691 1.390 . S
C683 C682 1.387 1_565 S
C683 C685 1.387 . S
H684 C691 0.950 . S
C685 C683 1.387 . S
C685 C687 1.390 . S
C685 H689 0.950 . S
H686 C682 0.950 . S
C687 C685 1.390 . S
C687 C688 1.387 . S
C687 H690 0.950 . S
C688 C687 1.387 . S
C688 C691 1.387 1_565 S
H689 C685 0.950 . S
H690 C687 0.950 . S
C691 C682 1.390 . S
C691 H684 0.950 . S
C691 C688 1.387 1_545 S
C692 C693 1.387 . S
C692 H696 0.950 . S
C692 C701 1.390 . S
C693 C692 1.387 . S
C693 C695 1.387 . S
H694 C701 0.950 . S
C695 C693 1.387 . S
C695 C697 1.390 . S
C695 H699 0.950 . S
H696 C692 0.950 . S
C697 C695 1.390 . S
C697 C698 1.387 . S
C697 H700 0.950 . S
C698 C697 1.387 . S
C698 C701 1.387 . S
H699 C695 0.950 . S
H700 C697 0.950 . S
C701 C692 1.390 . S
C701 H694 0.950 . S
C701 C698 1.387 . S
C702 C703 1.387 . S
C702 H706 0.950 . S
C702 C711 1.390 . S
C703 C702 1.387 . S
C703 C705 1.387 . S
H704 C711 0.950 . S
C705 C703 1.387 . S
C705 C707 1.390 . S
C705 H709 0.950 . S
H706 C702 0.950 . S
C707 C705 1.390 . S
C707 C708 1.387 . S
C707 H710 0.950 . S
C708 C707 1.387 . S
C708 C711 1.387 . S
H709 C705 0.950 . S
H710 C707 0.950 . S
C711 C702 1.390 . S
C711 H704 0.950 . S
C711 C708 1.387 . S
C473 C255 2.634 1_545 S
C478 C335 2.928 1_545 S
C488 C375 1.752 . S
C483 C294 1.694 . S
C498 C394 2.988 . S
C493 C177 2.679 . S
C508 C455 2.220 1_455 S
C503 C216 1.974 1_455 S
C518 C314 2.928 1_564 S
C513 C99 2.633 . S
C523 C138 1.680 . S
C528 C354 1.756 . S
C533 C21 2.691 . S
C538 C415 2.987 1_554 S
C543 C60 1.974 . S
C548 C434 2.221 1_654 S
C558 C316 1.024 . S
C553 C196 1.082 . S
C568 C356 0.622 . S
C563 C235 0.594 1_545 S
C578 C412 1.682 . S
C573 C289 1.407 . S
C583 C157 0.782 . S
C588 C436 0.775 . S
C593 C40 1.082 1_455 S
C598 C337 1.021 . S
C608 C377 0.614 . S
C603 C79 0.581 . S
C618 C423 1.679 . S
C613 C133 1.414 . S
C623 C1 0.783 . S
C628 C457 0.780 . S
C633 C211 2.518 . S
C638 C332 2.942 . S
C643 C250 3.155 . S
C648 C372 3.603 . S
C658 C396 2.114 . S
C653 C274 2.068 . S
C668 C452 3.591 . S
C663 C172 3.145 . S
C673 C55 2.518 1_655 S
C678 C343 2.953 . S
C688 C383 3.604 . S
C683 C94 3.157 1_565 S
C698 C417 2.113 . S
C693 C118 2.068 . S
C703 C16 3.145 . S
C708 C463 3.594 . S
