# Generated by pormake.
# Topology pyr, (3,6)-cn, num edge types: 1
# Building blocks:
#     Node 0, Type 0, BuildingBlock: PAMTOO_clean_linker_0, # of connection points: 3
#     Node 1, Type 0, BuildingBlock: PAMTOO_clean_linker_0, # of connection points: 3
#     Node 2, Type 0, BuildingBlock: PAMTOO_clean_linker_0, # of connection points: 3
#     Node 3, Type 0, BuildingBlock: PAMTOO_clean_linker_0, # of connection points: 3
#     Node 4, Type 0, BuildingBlock: PAMTOO_clean_linker_0, # of connection points: 3
#     Node 5, Type 0, BuildingBlock: PAMTOO_clean_linker_0, # of connection points: 3
#     Node 6, Type 0, BuildingBlock: PAMTOO_clean_linker_0, # of connection points: 3
#     Node 7, Type 0, BuildingBlock: PAMTOO_clean_linker_0, # of connection points: 3
#     Node 8, Type 1, BuildingBlock: LEVNOQ01_clean_sbu_1, # of connection points: 6
#     Node 9, Type 1, BuildingBlock: LEVNOQ01_clean_sbu_1, # of connection points: 6
#     Node 10, Type 1, BuildingBlock: LEVNOQ01_clean_sbu_1, # of connection points: 6
#     Node 11, Type 1, BuildingBlock: LEVNOQ01_clean_sbu_1, # of connection points: 6
#     Edge 12, Type (0, 1), BuildingBlock: ZUJKAS_clean_linker_0, # of connection points: 2
#     Edge 13, Type (0, 1), BuildingBlock: ZUJKAS_clean_linker_0, # of connection points: 2
#     Edge 14, Type (0, 1), BuildingBlock: ZUJKAS_clean_linker_0, # of connection points: 2
#     Edge 15, Type (0, 1), BuildingBlock: ZUJKAS_clean_linker_0, # of connection points: 2
#     Edge 16, Type (0, 1), BuildingBlock: ZUJKAS_clean_linker_0, # of connection points: 2
#     Edge 17, Type (0, 1), BuildingBlock: ZUJKAS_clean_linker_0, # of connection points: 2
#     Edge 18, Type (0, 1), BuildingBlock: ZUJKAS_clean_linker_0, # of connection points: 2
#     Edge 19, Type (0, 1), BuildingBlock: ZUJKAS_clean_linker_0, # of connection points: 2
#     Edge 20, Type (0, 1), BuildingBlock: ZUJKAS_clean_linker_0, # of connection points: 2
#     Edge 21, Type (0, 1), BuildingBlock: ZUJKAS_clean_linker_0, # of connection points: 2
#     Edge 22, Type (0, 1), BuildingBlock: ZUJKAS_clean_linker_0, # of connection points: 2
#     Edge 23, Type (0, 1), BuildingBlock: ZUJKAS_clean_linker_0, # of connection points: 2
#     Edge 24, Type (0, 1), BuildingBlock: ZUJKAS_clean_linker_0, # of connection points: 2
#     Edge 25, Type (0, 1), BuildingBlock: ZUJKAS_clean_linker_0, # of connection points: 2
#     Edge 26, Type (0, 1), BuildingBlock: ZUJKAS_clean_linker_0, # of connection points: 2
#     Edge 27, Type (0, 1), BuildingBlock: ZUJKAS_clean_linker_0, # of connection points: 2
#     Edge 28, Type (0, 1), BuildingBlock: ZUJKAS_clean_linker_0, # of connection points: 2
#     Edge 29, Type (0, 1), BuildingBlock: ZUJKAS_clean_linker_0, # of connection points: 2
#     Edge 30, Type (0, 1), BuildingBlock: ZUJKAS_clean_linker_0, # of connection points: 2
#     Edge 31, Type (0, 1), BuildingBlock: ZUJKAS_clean_linker_0, # of connection points: 2
#     Edge 32, Type (0, 1), BuildingBlock: ZUJKAS_clean_linker_0, # of connection points: 2
#     Edge 33, Type (0, 1), BuildingBlock: ZUJKAS_clean_linker_0, # of connection points: 2
#     Edge 34, Type (0, 1), BuildingBlock: ZUJKAS_clean_linker_0, # of connection points: 2
#     Edge 35, Type (0, 1), BuildingBlock: ZUJKAS_clean_linker_0, # of connection points: 2
# Relax obj value: 0.090
# Max RMSD: 0.205
# Mean RMSD: 0.144
data_MOF--net-pry--node1-LEVNOQ01_clean_sbu_1--node2-PAMTOO_clean_linker_0--edge1-ZUJKAS_clean_linker_0
_symmetry_space_group_name_H-M    P1
_symmetry_Int_Tables_number       1
_symmetry_cell_setting            triclinic
loop_
_symmetry_equiv_pos_as_xyz
'x, y, z'
_cell_length_a     46.962115
_cell_length_b     46.634149
_cell_length_c     46.068043
_cell_angle_alpha  92.138271
_cell_angle_beta   92.382556
_cell_angle_gamma 98.241961
loop_
_atom_site_label
_atom_site_type_symbol
_atom_site_fract_x
_atom_site_fract_y
_atom_site_fract_z
_atom_type_partial_charge
H0 H 0.14531 0.18178 0.19258 0.0
H1 H 0.20927 0.12425 0.1961 0.0
H2 H 0.20394 0.17807 0.12329 0.0
H3 H 0.21377 0.11657 0.11049 0.0
C4 C 0.22814 0.114 0.12976 0.0
O5 O 0.23174 0.13935 0.14697 0.0
H6 H 0.21777 0.09574 0.1423 0.0
C7 C 0.16272 0.17261 0.18275 0.0
C8 C 0.1727 0.1827 0.15594 0.0
C9 C 0.17561 0.15149 0.19757 0.0
C10 C 0.19909 0.14063 0.18529 0.0
C11 C 0.20916 0.15016 0.15855 0.0
C12 C 0.19601 0.17111 0.14401 0.0
H13 H 0.35373 0.9265 0.67226 0.0
H14 H 0.35612 0.86984 0.59655 0.0
H15 H 0.42281 0.87536 0.66335 0.0
H16 H 0.44308 0.87083 0.6053 0.0
C17 C 0.42408 0.85729 0.59411 0.0
O18 O 0.40296 0.85035 0.61367 0.0
H19 H 0.41552 0.86983 0.57647 0.0
C20 C 0.36423 0.91109 0.66 0.0
C21 C 0.38987 0.90252 0.67147 0.0
C22 C 0.35192 0.89962 0.63282 0.0
C23 C 0.3655 0.87942 0.61719 0.0
C24 C 0.39084 0.87073 0.62836 0.0
C25 C 0.40299 0.88224 0.65528 0.0
H26 H 0.69389 0.32002 0.91007 0.0
H27 H 0.64786 0.33566 0.83097 0.0
H28 H 0.70004 0.40643 0.87823 0.0
H29 H 0.64528 0.42383 0.84241 0.0
C30 C 0.64296 0.40342 0.8287 0.0
O31 O 0.66767 0.39094 0.83168 0.0
H32 H 0.62394 0.38867 0.83578 0.0
C33 C 0.68786 0.33505 0.89431 0.0
C34 C 0.69907 0.36466 0.8976 0.0
C35 C 0.66926 0.32453 0.87048 0.0
C36 C 0.66158 0.34369 0.8499 0.0
C37 C 0.67251 0.37317 0.85309 0.0
C38 C 0.69085 0.38371 0.87695 0.0
H39 H 0.90964 0.65354 0.47769 0.0
H40 H 0.88365 0.60066 0.39985 0.0
H41 H 0.95835 0.66503 0.40064 0.0
H42 H 0.91545 0.66017 0.3494 0.0
C43 C 0.91039 0.63608 0.34755 0.0
O44 O 0.92539 0.62439 0.36951 0.0
H45 H 0.88683 0.62975 0.34962 0.0
C46 C 0.91313 0.64736 0.45536 0.0
C47 C 0.9366 0.66201 0.44125 0.0
C48 C 0.89357 0.62543 0.44065 0.0
C49 C 0.8987 0.61701 0.41197 0.0
C50 C 0.92209 0.63121 0.39779 0.0
C51 C 0.94101 0.65356 0.41236 0.0
H52 H 0.86473 0.90247 0.84824 0.0
H53 H 0.86433 0.84574 0.92016 0.0
H54 H 0.92376 0.84 0.85279 0.0
H55 H 0.89804 0.78437 0.87421 0.0
C56 C 0.89618 0.7906 0.89753 0.0
O57 O 0.90673 0.81971 0.90251 0.0
H58 H 0.8729 0.7868 0.90219 0.0
C59 C 0.87271 0.88481 0.8591 0.0
C60 C 0.89512 0.87208 0.8468 0.0
C61 C 0.86118 0.8757 0.88559 0.0
C62 C 0.87288 0.85354 0.89998 0.0
C63 C 0.89547 0.8408 0.88823 0.0
C64 C 0.90655 0.85019 0.86179 0.0
H65 H 0.71733 0.11834 0.36976 0.0
H66 H 0.64755 0.16881 0.36495 0.0
H67 H 0.71028 0.18464 0.43593 0.0
H68 H 0.65132 0.18181 0.45212 0.0
C69 C 0.64238 0.193 0.43364 0.0
O70 O 0.663 0.19916 0.41341 0.0
H71 H 0.62369 0.17821 0.42336 0.0
C72 C 0.70659 0.13558 0.37854 0.0
C73 C 0.71725 0.15056 0.4048 0.0
C74 C 0.68159 0.14203 0.3638 0.0
C75 C 0.6668 0.16339 0.37594 0.0
C76 C 0.67714 0.17843 0.402 0.0
C77 C 0.70238 0.17228 0.41613 0.0
H78 H 0.36787 0.71727 0.1068 0.0
H79 H 0.37163 0.64383 0.16034 0.0
H80 H 0.41966 0.72606 0.1869 0.0
H81 H 0.44888 0.67269 0.19756 0.0
C82 C 0.42917 0.65811 0.20321 0.0
O83 O 0.40569 0.67256 0.20048 0.0
H84 H 0.42611 0.63848 0.18831 0.0
C85 C 0.37616 0.70774 0.12591 0.0
C86 C 0.39487 0.72527 0.14612 0.0
C87 C 0.36778 0.67812 0.13052 0.0
C88 C 0.3787 0.66621 0.15548 0.0
C89 C 0.39757 0.6835 0.17537 0.0
C90 C 0.40583 0.7128 0.17065 0.0
H91 H 0.083 0.36617 0.67312 0.0
H92 H 0.15709 0.43259 0.67574 0.0
H93 H 0.13528 0.37877 0.59866 0.0
H94 H 0.19347 0.3835 0.62616 0.0
C95 C 0.19767 0.40757 0.62936 0.0
O96 O 0.17272 0.41927 0.62399 0.0
H97 H 0.20533 0.41256 0.65244 0.0
C98 C 0.10079 0.37814 0.66243 0.0
C99 C 0.10609 0.37015 0.63357 0.0
C100 C 0.11919 0.40042 0.67808 0.0
C101 C 0.14244 0.41551 0.66414 0.0
C102 C 0.14801 0.40761 0.6356 0.0
C103 C 0.12977 0.38532 0.62029 0.0
O104 O 0.04405 0.00867 0.59551 0.0
Mg105 Mg 0.06265 0.03795 0.56523 0.0
O106 O 0.00794 0.99509 0.56393 0.0
Mg107 Mg 0.0272 0.01529 0.52099 0.0
O108 O 0.03854 0.06332 0.54205 0.0
O109 O 0.06563 0.07814 0.58276 0.0
O110 O 0.04634 0.03506 0.47735 0.0
O111 O 0.98214 0.03172 0.51224 0.0
Mg112 Mg 0.99267 0.9853 0.46561 0.0
O113 O 0.01313 0.96958 0.5001 0.0
O114 O 0.02138 0.01084 0.43995 0.0
O115 O 0.95662 0.00319 0.47818 0.0
O116 O 0.9903 0.94119 0.4637 0.0
C117 C 0.0977 0.00779 0.53578 0.0
C118 C 0.01945 0.99434 0.58948 0.0
C119 C 0.04913 0.08372 0.56128 0.0
C120 C 0.04135 0.03039 0.44984 0.0
C121 C 0.95868 0.02395 0.49699 0.0
C122 C 0.00509 0.94392 0.48814 0.0
O123 O 0.10189 0.03241 0.54857 0.0
O124 O 0.07193 0.99641 0.52822 0.0
O125 O 0.52122 0.06022 0.05381 0.0
Mg126 Mg 0.56135 0.06469 0.03419 0.0
O127 O 0.50801 0.01916 0.02875 0.0
Mg128 Mg 0.55395 0.00957 0.01448 0.0
O129 O 0.56436 0.05385 0.991 0.0
O130 O 0.56418 0.09925 0.00942 0.0
O131 O 0.60015 0.99916 1.00003 0.0
O132 O 0.53214 0.99315 0.96874 0.0
Mg133 Mg 0.55622 0.93957 1.00246 0.0
O134 O 0.54262 0.96597 0.03299 0.0
O135 O 0.60098 0.95152 1.00152 0.0
O136 O 0.53203 0.94547 0.96359 0.0
O137 O 0.538 0.91875 0.03807 0.0
C138 C 0.5939 0.04277 0.07394 0.0
C139 C 0.50182 0.03951 0.04565 0.0
C140 C 0.56652 0.08167 0.98768 0.0
C141 C 0.61362 0.97704 0.99835 0.0
C142 C 0.52556 0.96907 0.95399 0.0
C143 C 0.5338 0.94397 0.04791 0.0
O144 O 0.59845 0.06602 0.06078 0.0
O145 O 0.57573 0.0219 0.06255 0.0
O146 O 0.53003 0.59101 0.56987 0.0
Mg147 Mg 0.52486 0.54983 0.58709 0.0
O148 O 0.52936 0.57463 0.52386 0.0
Mg149 Mg 0.53736 0.52546 0.52245 0.0
O150 O 0.55403 0.52715 0.56957 0.0
O151 O 0.5555 0.53912 0.61668 0.0
O152 O 0.54685 0.47622 0.52413 0.0
O153 O 0.58436 0.54069 0.51129 0.0
Mg154 Mg 0.54336 0.49437 0.47377 0.0
O155 O 0.51936 0.5273 0.47391 0.0
O156 O 0.52259 0.45444 0.48635 0.0
O157 O 0.58899 0.5055 0.47942 0.0
O158 O 0.52892 0.50202 0.4338 0.0
C159 C 0.47442 0.5105 0.55597 0.0
C160 C 0.52901 0.59533 0.54288 0.0
C161 C 0.56584 0.52602 0.59526 0.0
C162 C 0.53606 0.45271 0.5102 0.0
C163 C 0.60014 0.52737 0.49529 0.0
C164 C 0.51603 0.52162 0.44597 0.0
O165 O 0.48397 0.52404 0.57966 0.0
O166 O 0.49013 0.50969 0.53405 0.0
O167 O 0.03445 0.43323 0.08101 0.0
Mg168 Mg 0.05292 0.47681 0.08171 0.0
O169 O 0.05078 0.44356 0.03858 0.0
Mg170 Mg 0.03712 0.49182 0.03217 0.0
O171 O 0.0258 0.50727 0.07997 0.0
O172 O 0.04739 0.49439 0.12098 0.0
O173 O 0.02394 0.54084 0.02644 0.0
O174 O 0.98951 0.47022 0.02753 0.0
Mg175 Mg 0.02356 0.50807 0.98637 0.0
O176 O 0.0483 0.47572 0.98398 0.0
O177 O 0.04448 0.5509 0.9859 0.0
O178 O 0.97942 0.50214 0.9967 0.0
O179 O 0.0229 0.49022 0.94615 0.0
C180 C 0.10408 0.50572 0.05365 0.0
C181 C 0.04422 0.42479 0.05772 0.0
C182 C 0.02977 0.50915 0.10819 0.0
C183 C 0.03244 0.55958 0.0078 0.0
C184 C 0.97093 0.48219 0.01346 0.0
C185 C 0.04079 0.47424 0.95635 0.0
O186 O 0.09717 0.48772 0.07294 0.0
O187 O 0.08456 0.51336 0.03692 0.0
H188 H 0.2062 0.14042 0.24718 0.0
H189 H 0.18723 0.12149 0.29263 0.0
H190 H 0.10056 0.11936 0.25713 0.0
H191 H 0.11925 0.13781 0.21158 0.0
H192 H 0.1471 0.14505 0.33147 0.0
H193 H 0.10447 0.03551 0.28375 0.0
H194 H 0.13099 0.06024 0.26636 0.0
H195 H 0.09368 0.06501 0.26404 0.0
C196 C 0.18309 0.13575 0.24897 0.0
C197 C 0.16427 0.14057 0.2256 0.0
C198 C 0.17229 0.12513 0.27506 0.0
C199 C 0.14248 0.11876 0.27823 0.0
C200 C 0.12365 0.12385 0.25511 0.0
H201 H 0.0215 0.04449 0.3972 0.0
H202 H 0.04843 0.0676 0.35834 0.0
C203 C 0.1344 0.13462 0.22913 0.0
C204 C 0.13084 0.10645 0.30546 0.0
H205 H 0.09008 0.04693 0.33097 0.0
C206 C 0.13482 0.12351 0.33151 0.0
C207 C 0.11498 0.0783 0.30551 0.0
C208 C 0.11092 0.05853 0.27851 0.0
C209 C 0.12216 0.11367 0.35727 0.0
C210 C 0.10561 0.08574 0.35711 0.0
C211 C 0.10258 0.06839 0.3312 0.0
C212 C 0.08943 0.07455 0.38263 0.0
C213 C 0.1256 0.13376 0.384 0.0
C214 C 0.10323 0.07127 0.40985 0.0
C215 C 0.08757 0.05829 0.43258 0.0
C216 C 0.05801 0.04788 0.4282 0.0
C217 C 0.04428 0.05201 0.40126 0.0
C218 C 0.05971 0.06523 0.37892 0.0
H219 H 0.13286 0.15661 0.37866 0.0
H220 H 0.10504 0.13275 0.39525 0.0
H221 H 0.14202 0.12704 0.39931 0.0
H222 H 0.12623 0.07777 0.41321 0.0
H223 H 0.09878 0.05517 0.45298 0.0
H224 H 0.39421 0.95833 0.69492 0.0
H225 H 0.41712 0.97743 0.74191 0.0
H226 H 0.4381 0.89273 0.76014 0.0
H227 H 0.41478 0.87332 0.71383 0.0
H228 H 0.40548 0.95771 0.80059 0.0
H229 H 0.51636 0.94791 0.76892 0.0
H230 H 0.48673 0.9478 0.7426 0.0
H231 H 0.49114 0.91547 0.76133 0.0
C232 C 0.40341 0.94368 0.70906 0.0
C233 C 0.40288 0.9143 0.70037 0.0
C234 C 0.41662 0.95469 0.73583 0.0
C235 C 0.42973 0.93661 0.75425 0.0
C236 C 0.42864 0.90721 0.74597 0.0
H237 H 0.51132 0.9219 0.9168 0.0
H238 H 0.48817 0.91941 0.86845 0.0
C239 C 0.41537 0.89617 0.71939 0.0
C240 C 0.44461 0.94805 0.78226 0.0
H241 H 0.50943 0.95321 0.81991 0.0
C242 C 0.42831 0.9573 0.80475 0.0
C243 C 0.47444 0.94769 0.7875 0.0
C244 C 0.4933 0.93946 0.76375 0.0
C245 C 0.44076 0.96438 0.83291 0.0
C246 C 0.47024 0.9624 0.8385 0.0
C247 C 0.4868 0.95462 0.8156 0.0
C248 C 0.4836 0.96487 0.86843 0.0
C249 C 0.42205 0.97235 0.85688 0.0
C250 C 0.48877 0.9914 0.88462 0.0
C251 C 0.50223 0.99301 0.91258 0.0
C252 C 0.51065 0.96806 0.92474 0.0
C253 C 0.50517 0.9416 0.90833 0.0
C254 C 0.49193 0.94008 0.88056 0.0
H255 H 0.39895 0.97003 0.84961 0.0
H256 H 0.42431 0.95848 0.87567 0.0
H257 H 0.42918 0.9952 0.86452 0.0
H258 H 0.48276 0.01087 0.8755 0.0
H259 H 0.50618 0.01374 0.92453 0.0
H260 H 0.62016 0.36492 0.78503 0.0
H261 H 0.61767 0.37285 0.73261 0.0
H262 H 0.6552 0.46225 0.74957 0.0
H263 H 0.65819 0.45416 0.80174 0.0
H264 H 0.5879 0.40979 0.70547 0.0
H265 H 0.70274 0.43852 0.68389 0.0
H266 H 0.69078 0.42093 0.71645 0.0
H267 H 0.69347 0.45974 0.71437 0.0
C268 C 0.62763 0.38627 0.7774 0.0
C269 C 0.63871 0.40916 0.79721 0.0
C270 C 0.62655 0.39067 0.74758 0.0
C271 C 0.63693 0.41791 0.73721 0.0
C272 C 0.64789 0.44081 0.75707 0.0
H273 H 0.61159 0.53983 0.63286 0.0
H274 H 0.63644 0.5049 0.65784 0.0
C275 C 0.64907 0.43639 0.78683 0.0
C276 C 0.63361 0.42356 0.70601 0.0
H277 H 0.66889 0.45973 0.65208 0.0
C278 C 0.60566 0.41984 0.69328 0.0
C279 C 0.65694 0.43621 0.69012 0.0
C280 C 0.68769 0.43877 0.70185 0.0
C281 C 0.59988 0.43164 0.66654 0.0
C282 C 0.62294 0.44707 0.65198 0.0
C283 C 0.65128 0.44797 0.66328 0.0
C284 C 0.61721 0.4681 0.63006 0.0
C285 C 0.56882 0.43013 0.65583 0.0
C286 C 0.60021 0.45943 0.60459 0.0
C287 C 0.58559 0.47947 0.59054 0.0
C288 C 0.58851 0.50826 0.60149 0.0
C289 C 0.60891 0.51764 0.62417 0.0
C290 C 0.62323 0.49768 0.63836 0.0
H291 H 0.55353 0.41958 0.67132 0.0
H292 H 0.56356 0.45225 0.65231 0.0
H293 H 0.56526 0.41745 0.63482 0.0
H294 H 0.59574 0.43676 0.59754 0.0
H295 H 0.56952 0.47167 0.57358 0.0
H296 H 0.91374 0.66508 0.29714 0.0
H297 H 0.92571 0.64746 0.24902 0.0
H298 H 0.93584 0.56467 0.28383 0.0
H299 H 0.92283 0.58186 0.33159 0.0
H300 H 0.97491 0.63138 0.2341 0.0
H301 H 0.88867 0.53877 0.21059 0.0
H302 H 0.88686 0.56543 0.23966 0.0
H303 H 0.90676 0.53561 0.24509 0.0
C304 C 0.91846 0.6431 0.29441 0.0
C305 C 0.91817 0.6251 0.3182 0.0
C306 C 0.92513 0.63302 0.26694 0.0
C307 C 0.93131 0.60463 0.26271 0.0
C308 C 0.93049 0.58643 0.28637 0.0
H309 H 0.04494 0.52969 0.16312 0.0
H310 H 0.01792 0.55664 0.19555 0.0
C311 C 0.92354 0.59642 0.31377 0.0
C312 C 0.94107 0.59486 0.23428 0.0
H313 H 0.93252 0.53777 0.18455 0.0
C314 C 0.96519 0.61123 0.22293 0.0
C315 C 0.92816 0.56883 0.21935 0.0
C316 C 0.90098 0.55135 0.22916 0.0
C317 C 0.97797 0.60124 0.1983 0.0
C318 C 0.9666 0.57401 0.18499 0.0
C319 C 0.94129 0.55859 0.19498 0.0
C320 C 0.98315 0.55934 0.16393 0.0
C321 C 0.00429 0.61935 0.18741 0.0
C322 C 0.97239 0.55177 0.13534 0.0
C323 C 0.98799 0.53631 0.11649 0.0
C324 C 0.01414 0.52781 0.12635 0.0
C325 C 0.02483 0.53582 0.15488 0.0
C326 C 0.0095 0.55139 0.17343 0.0
H327 H 0.00488 0.64268 0.19362 0.0
H328 H 0.02389 0.61214 0.19726 0.0
H329 H 0.00498 0.61686 0.16338 0.0
H330 H 0.95192 0.55758 0.12778 0.0
H331 H 0.9792 0.53024 0.09465 0.0
H332 H 0.28203 0.12366 0.15851 0.0
H333 H 0.32688 0.10791 0.14289 0.0
H334 H 0.28235 0.06822 0.06451 0.0
H335 H 0.23786 0.08475 0.07962 0.0
H336 H 0.33982 0.0543 0.13255 0.0
H337 H 0.35122 0.11354 0.0306 0.0
H338 H 0.32599 0.12101 0.05736 0.0
H339 H 0.31732 0.09047 0.03188 0.0
C340 C 0.28201 0.1122 0.13763 0.0
C341 C 0.25663 0.10638 0.11978 0.0
C342 C 0.3076 0.10297 0.12881 0.0
C343 C 0.30831 0.08742 0.10213 0.0
C344 C 0.28276 0.081 0.08468 0.0
H345 H 0.44993 0.01347 0.01962 0.0
H346 H 0.40132 0.02146 0.03314 0.0
C347 C 0.25728 0.0904 0.09338 0.0
C348 C 0.33542 0.077 0.09311 0.0
H349 H 0.38299 0.07908 0.0386 0.0
C350 C 0.34922 0.05979 0.11201 0.0
C351 C 0.34776 0.08393 0.0662 0.0
C352 C 0.33499 0.10347 0.04546 0.0
C353 C 0.37488 0.04944 0.10483 0.0
C354 C 0.38729 0.0566 0.07811 0.0
C355 C 0.37329 0.07332 0.05894 0.0
C356 C 0.41618 0.04939 0.07094 0.0
C357 C 0.38856 0.03092 0.12594 0.0
C358 C 0.44057 0.06221 0.08775 0.0
C359 C 0.46811 0.05788 0.08 0.0
C360 C 0.47209 0.04053 0.05523 0.0
C361 C 0.4476 0.0268 0.03889 0.0
C362 C 0.41986 0.03146 0.04653 0.0
H363 H 0.37282 0.0209 0.14131 0.0
H364 H 0.3979 0.01346 0.11427 0.0
H365 H 0.40624 0.04465 0.13886 0.0
H366 H 0.43837 0.07641 0.10642 0.0
H367 H 0.48645 0.06875 0.09314 0.0
H368 H 0.30281 0.90462 0.66143 0.0
H369 H 0.25749 0.91749 0.64128 0.0
H370 H 0.2941 0.92695 0.55722 0.0
H371 H 0.33929 0.91377 0.57715 0.0
H372 H 0.24735 0.96651 0.6181 0.0
H373 H 0.2184 0.87685 0.53529 0.0
H374 H 0.24635 0.87642 0.56332 0.0
H375 H 0.2537 0.89629 0.53106 0.0
C376 C 0.3012 0.9095 0.63867 0.0
C377 C 0.32459 0.90811 0.62086 0.0
C378 C 0.27524 0.91665 0.62713 0.0
C379 C 0.27214 0.92257 0.59757 0.0
C380 C 0.29562 0.92158 0.57985 0.0
H381 H 0.15347 0.02889 0.52834 0.0
H382 H 0.19534 0.00534 0.54052 0.0
C383 C 0.32151 0.91424 0.59132 0.0
C384 C 0.24501 0.93158 0.58578 0.0
H385 H 0.19256 0.91746 0.53125 0.0
C386 C 0.23528 0.95559 0.59926 0.0
C387 C 0.22897 0.91711 0.56142 0.0
C388 C 0.23721 0.89005 0.54711 0.0
C389 C 0.2105 0.96605 0.58864 0.0
C390 C 0.19539 0.95261 0.56332 0.0
C391 C 0.20448 0.92801 0.55034 0.0
C392 C 0.17041 0.96439 0.55011 0.0
C393 C 0.20066 0.99137 0.60479 0.0
C394 C 0.14261 0.94839 0.54925 0.0
C395 C 0.11854 0.96169 0.54167 0.0
C396 C 0.12213 0.99115 0.53511 0.0
C397 C 0.15012 0.00621 0.53352 0.0
C398 C 0.17404 0.99286 0.54069 0.0
H399 H 0.20944 0.99373 0.62767 0.0
H400 H 0.20845 0.01166 0.59393 0.0
H401 H 0.17679 0.98892 0.60485 0.0
H402 H 0.13941 0.92628 0.55621 0.0
H403 H 0.09718 0.94967 0.54322 0.0
H404 H 0.74427 0.3377 0.91485 0.0
H405 H 0.78587 0.3577 0.94631 0.0
H406 H 0.74854 0.43574 0.96196 0.0
H407 H 0.70614 0.41555 0.9309 0.0
H408 H 0.81679 0.41459 0.92825 0.0
H409 H 0.78617 0.41322 0.04386 0.0
H410 H 0.76843 0.3871 0.01652 0.0
H411 H 0.76151 0.42389 0.01662 0.0
C412 C 0.74429 0.35867 0.92577 0.0
C413 C 0.7219 0.37507 0.92031 0.0
C414 C 0.76816 0.37009 0.94367 0.0
C415 C 0.77006 0.39802 0.95653 0.0
C416 C 0.74718 0.41395 0.95247 0.0
H417 H 0.92739 0.5122 0.99936 0.0
H418 H 0.87649 0.49285 0.99103 0.0
C419 C 0.72318 0.40252 0.9345 0.0
C420 C 0.79785 0.41195 0.96998 0.0
H421 H 0.83378 0.43431 0.03468 0.0
C422 C 0.82053 0.41893 0.95151 0.0
C423 C 0.80241 0.41752 1.00028 0.0
C424 C 0.77847 0.41002 0.02068 0.0
C425 C 0.84789 0.43123 0.96255 0.0
C426 C 0.85259 0.43682 0.99286 0.0
C427 C 0.82993 0.42993 0.01146 0.0
C428 C 0.88122 0.44996 0.00492 0.0
C429 C 0.87172 0.43802 0.94174 0.0
C430 C 0.90032 0.43244 0.01669 0.0
C431 C 0.92953 0.44345 0.02154 0.0
C432 C 0.93981 0.47197 0.01434 0.0
C433 C 0.92011 0.49 0.00472 0.0
C434 C 0.89102 0.47909 1.00014 0.0
H435 H 0.86567 0.42823 0.91959 0.0
H436 H 0.87674 0.46188 0.94008 0.0
H437 H 0.89162 0.43004 0.94988 0.0
H438 H 0.89301 0.40981 0.02031 0.0
H439 H 0.94427 0.42913 0.02902 0.0
H440 H 0.8593 0.65542 0.47298 0.0
H441 H 0.8118 0.63799 0.4901 0.0
H442 H 0.81695 0.5525 0.45355 0.0
H443 H 0.86522 0.56946 0.43739 0.0
H444 H 0.76611 0.61744 0.45357 0.0
H445 H 0.78464 0.53437 0.53248 0.0
H446 H 0.81342 0.56062 0.5206 0.0
H447 H 0.80002 0.52883 0.49805 0.0
C448 C 0.85083 0.63266 0.4694 0.0
C449 C 0.86618 0.6138 0.45389 0.0
C450 C 0.82353 0.6228 0.47902 0.0
C451 C 0.81096 0.59391 0.47337 0.0
C452 C 0.82648 0.57476 0.45866 0.0
H453 H 0.64044 0.49979 0.46933 0.0
H454 H 0.69193 0.51673 0.46704 0.0
C455 C 0.85392 0.58457 0.44912 0.0
C456 C 0.78053 0.58476 0.4801 0.0
H457 H 0.73583 0.53455 0.51522 0.0
C458 C 0.75952 0.59956 0.46737 0.0
C459 C 0.77202 0.56137 0.49803 0.0
C460 C 0.79373 0.54554 0.51331 0.0
C461 C 0.73015 0.5911 0.47138 0.0
C462 C 0.72163 0.56739 0.48882 0.0
C463 C 0.74257 0.55278 0.50191 0.0
C464 C 0.69089 0.55656 0.49227 0.0
C465 C 0.70837 0.60692 0.45616 0.0
C466 C 0.67343 0.57324 0.50762 0.0
C467 C 0.64393 0.56364 0.50902 0.0
C468 C 0.63148 0.53725 0.49495 0.0
C469 C 0.64928 0.52033 0.48018 0.0
C470 C 0.67873 0.52987 0.47896 0.0
H471 H 0.71825 0.62159 0.43971 0.0
H472 H 0.6908 0.59125 0.44524 0.0
H473 H 0.69858 0.62017 0.47245 0.0
H474 H 0.68258 0.59383 0.5182 0.0
H475 H 0.63084 0.57708 0.52069 0.0
H476 H 0.19876 0.22842 0.12558 0.0
H477 H 0.17634 0.26697 0.10313 0.0
H478 H 0.09332 0.22791 0.12981 0.0
H479 H 0.1153 0.18895 0.1517 0.0
H480 H 0.12837 0.2645 0.05913 0.0
H481 H 0.10482 0.31224 0.16621 0.0
H482 H 0.13034 0.28698 0.16247 0.0
H483 H 0.09235 0.2741 0.16048 0.0
C484 C 0.17566 0.2277 0.12634 0.0
C485 C 0.15897 0.20556 0.14082 0.0
C486 C 0.16289 0.24988 0.11354 0.0
C487 C 0.1332 0.25058 0.1151 0.0
C488 C 0.11635 0.22812 0.12874 0.0
H489 H 0.01824 0.37567 0.08085 0.0
H490 H 0.03938 0.33195 0.09078 0.0
C491 C 0.12903 0.20589 0.14141 0.0
C492 C 0.11991 0.27526 0.10346 0.0
H493 H 0.08558 0.33185 0.12453 0.0
C494 C 0.11905 0.27931 0.07338 0.0
C495 C 0.10783 0.29462 0.12206 0.0
C496 C 0.10901 0.29204 0.15464 0.0
C497 C 0.10567 0.30168 0.06134 0.0
C498 C 0.09338 0.32098 0.07996 0.0
C499 C 0.0947 0.31705 0.1101 0.0
C500 C 0.07883 0.34535 0.06913 0.0
C501 C 0.10409 0.30383 0.02875 0.0
C502 C 0.09331 0.36719 0.05255 0.0
C503 C 0.08083 0.39206 0.04622 0.0
C504 C 0.05391 0.39582 0.05687 0.0
C505 C 0.03891 0.37333 0.07217 0.0
C506 C 0.05112 0.34839 0.07806 0.0
H507 H 0.10638 0.28287 0.01746 0.0
H508 H 0.08341 0.31055 0.02109 0.0
H509 H 0.12196 0.32026 0.02235 0.0
H510 H 0.11494 0.36587 0.04591 0.0
H511 H 0.09321 0.40927 0.03496 0.0
H512 H 0.70159 0.28157 0.86222 0.0
H513 H 0.68537 0.22921 0.86152 0.0
H514 H 0.59795 0.24543 0.87156 0.0
H515 H 0.61408 0.29764 0.87061 0.0
H516 H 0.66557 0.20432 0.90583 0.0
H517 H 0.58176 0.1757 0.81859 0.0
H518 H 0.60578 0.20969 0.81981 0.0
H519 H 0.57326 0.20602 0.83979 0.0
C520 C 0.67882 0.27373 0.86345 0.0
C521 C 0.65898 0.29328 0.8666 0.0
C522 C 0.66955 0.24392 0.86293 0.0
C523 C 0.64036 0.23325 0.86606 0.0
C524 C 0.6204 0.25295 0.86811 0.0
H525 H 0.54462 0.12694 0.96562 0.0
H526 H 0.56298 0.15573 0.92558 0.0
C527 C 0.62962 0.28277 0.86798 0.0
C528 C 0.63162 0.2024 0.87253 0.0
H529 H 0.57573 0.14697 0.86264 0.0
C530 C 0.64655 0.19131 0.8956 0.0
C531 C 0.60687 0.18531 0.85918 0.0
C532 C 0.59126 0.19477 0.83275 0.0
C533 C 0.63585 0.16502 0.90756 0.0
C534 C 0.60958 0.14933 0.89601 0.0
C535 C 0.59589 0.1591 0.8714 0.0
C536 C 0.59331 0.12715 0.91328 0.0
C537 C 0.65125 0.15563 0.93424 0.0
C538 C 0.60324 0.1007 0.9185 0.0
C539 C 0.59257 0.08403 0.94141 0.0
C540 C 0.57227 0.09403 0.95932 0.0
C541 C 0.56053 0.11903 0.95224 0.0
C542 C 0.57084 0.13535 0.92925 0.0
H543 H 0.67068 0.1712 0.94133 0.0
H544 H 0.63652 0.15337 0.95252 0.0
H545 H 0.65804 0.13416 0.92959 0.0
H546 H 0.62061 0.09411 0.90631 0.0
H547 H 0.60189 0.06478 0.94657 0.0
H548 H 0.99523 0.67867 0.43972 0.0
H549 H 0.02341 0.72364 0.46071 0.0
H550 H 0.94645 0.74882 0.49567 0.0
H551 H 0.91834 0.70461 0.47471 0.0
H552 H 0.01518 0.77785 0.44675 0.0
H553 H 0.00295 0.76844 0.56448 0.0
H554 H 0.99606 0.73739 0.53919 0.0
H555 H 0.96858 0.75996 0.54537 0.0
C556 C 0.98442 0.69369 0.45217 0.0
C557 C 0.95455 0.68787 0.45576 0.0
C558 C 1.00059 0.71923 0.46432 0.0
C559 C 0.98719 0.73922 0.48045 0.0
C560 C 0.95749 0.73324 0.4843 0.0
H561 H 0.96591 0.90287 0.50806 0.0
H562 H 0.97198 0.85235 0.5141 0.0
C563 C 0.94138 0.7079 0.47217 0.0
C564 C 0.00291 0.76808 0.49016 0.0
H565 H 0.00744 0.81796 0.54689 0.0
C566 C 0.01452 0.78646 0.46887 0.0
C567 C 1.00227 0.77919 0.51909 0.0
C568 C 0.99206 0.76005 0.54336 0.0
C569 C 0.02241 0.81632 0.47497 0.0
C570 C 0.01892 0.82791 0.50325 0.0
C571 C 0.01003 0.80906 0.52523 0.0
C572 C 0.01793 0.85928 0.50828 0.0
C573 C 0.03164 0.83558 0.4504 0.0
C574 C 0.0421 0.88026 0.50491 0.0
C575 C 0.03861 0.90936 0.50172 0.0
C576 C 0.01098 0.91748 0.50192 0.0
C577 C 0.98743 0.89702 0.50817 0.0
C578 C 0.99091 0.86817 0.51156 0.0
H579 H 0.03108 0.82324 0.42924 0.0
H580 H 0.01742 0.85253 0.4482 0.0
H581 H 0.05397 0.84663 0.4552 0.0
H582 H 0.06317 0.87382 0.50258 0.0
H583 H 0.05696 0.92486 0.4965 0.0
H584 H 0.43891 0.8462 0.53832 0.0
H585 H 0.45639 0.80273 0.5183 0.0
H586 H 0.44965 0.76457 0.60202 0.0
H587 H 0.43245 0.80796 0.62213 0.0
H588 H 0.50607 0.77904 0.53839 0.0
H589 H 0.40599 0.70088 0.5445 0.0
H590 H 0.40624 0.73969 0.54585 0.0
H591 H 0.41635 0.72179 0.57777 0.0
C592 C 0.44082 0.82833 0.55229 0.0
C593 C 0.43354 0.83006 0.58153 0.0
C594 C 0.45085 0.80361 0.54088 0.0
C595 C 0.45369 0.78022 0.55852 0.0
C596 C 0.44689 0.78209 0.58785 0.0
H597 H 0.55224 0.64615 0.56989 0.0
H598 H 0.53518 0.69276 0.56572 0.0
C599 C 0.4371 0.80686 0.59932 0.0
C600 C 0.46513 0.75434 0.54687 0.0
H601 H 0.4497 0.68064 0.53932 0.0
C602 C 0.49362 0.75755 0.53807 0.0
C603 C 0.44869 0.72642 0.54602 0.0
C604 C 0.41752 0.72191 0.55376 0.0
C605 C 0.50669 0.73333 0.53019 0.0
C606 C 0.49091 0.70521 0.53141 0.0
C607 C 0.46185 0.70218 0.53843 0.0
C608 C 0.50497 0.6787 0.52948 0.0
C609 C 0.53753 0.73805 0.52138 0.0
C610 C 0.49407 0.65529 0.51011 0.0
C611 C 0.50396 0.62844 0.51241 0.0
C612 C 0.52448 0.62462 0.53447 0.0
C613 C 0.53654 0.64857 0.55257 0.0
C614 C 0.52688 0.6753 0.55012 0.0
H615 H 0.54291 0.75944 0.51157 0.0
H616 H 0.55205 0.73782 0.54098 0.0
H617 H 0.54184 0.72077 0.50561 0.0
H618 H 0.47693 0.6574 0.4942 0.0
H619 H 0.49396 0.6102 0.49854 0.0
H620 H 0.95145 0.88238 0.83108 0.0
H621 H 0.96968 0.90042 0.78509 0.0
H622 H 0.88265 0.90165 0.75199 0.0
H623 H 0.86434 0.88389 0.79789 0.0
H624 H 0.96161 0.8785 0.72936 0.0
H625 H 0.91883 0.98323 0.73731 0.0
H626 H 0.91954 0.95978 0.76752 0.0
H627 H 0.89167 0.95218 0.73915 0.0
C628 C 0.93618 0.88634 0.81396 0.0
C629 C 0.90642 0.88193 0.81838 0.0
C630 C 0.94663 0.89677 0.78767 0.0
C631 C 0.92762 0.90305 0.76517 0.0
C632 C 0.89786 0.89785 0.76923 0.0
H633 H 0.96169 0.97234 0.5919 0.0
H634 H 0.93764 0.94804 0.63277 0.0
C635 C 0.88741 0.88759 0.79553 0.0
C636 C 0.93892 0.91476 0.73746 0.0
H637 H 0.93975 0.97217 0.69309 0.0
C638 C 0.95679 0.89898 0.72148 0.0
C639 C 0.93265 0.9415 0.72698 0.0
C640 C 0.91486 0.96032 0.74374 0.0
C641 C 0.9685 0.90914 0.69549 0.0
C642 C 0.96243 0.93594 0.6852 0.0
C643 C 0.94418 0.9515 0.70083 0.0
C644 C 0.97673 0.94929 0.65965 0.0
C645 C 0.98733 0.89109 0.67919 0.0
C646 C 0.00659 0.95812 0.66119 0.0
C647 C 0.02025 0.97211 0.63813 0.0
C648 C 0.00445 0.97761 0.61278 0.0
C649 C 0.97453 0.96831 0.61099 0.0
C650 C 0.96076 0.95451 0.63436 0.0
H651 H 0.98387 0.86812 0.68547 0.0
H652 H 0.98315 0.89177 0.65534 0.0
H653 H 0.01027 0.89996 0.6843 0.0
H654 H 0.01933 0.95474 0.68058 0.0
H655 H 0.04331 0.9789 0.64036 0.0
H656 H 0.71363 0.13157 0.31751 0.0
H657 H 0.69689 0.10792 0.27037 0.0
H658 H 0.60996 0.09371 0.2992 0.0
H659 H 0.62655 0.11805 0.34621 0.0
H660 H 0.67098 0.05418 0.25429 0.0
H661 H 0.59843 0.13383 0.22498 0.0
H662 H 0.62377 0.13982 0.25583 0.0
H663 H 0.5901 0.11636 0.25825 0.0
C664 C 0.69096 0.12331 0.31384 0.0
C665 C 0.67137 0.12685 0.3355 0.0
C666 C 0.68141 0.10979 0.28687 0.0
C667 C 0.65208 0.09941 0.28098 0.0
C668 C 0.63257 0.1022 0.30289 0.0
H669 H 0.57043 0.01198 0.11899 0.0
H670 H 0.58428 0.02095 0.17102 0.0
C671 C 0.64207 0.11604 0.32978 0.0
C672 C 0.64212 0.08612 0.25176 0.0
H673 H 0.59837 0.09371 0.19217 0.0
C674 C 0.65496 0.06272 0.24081 0.0
C675 C 0.6213 0.09735 0.23402 0.0
C676 C 0.60778 0.12338 0.24369 0.0
C677 C 0.64782 0.0506 0.21258 0.0
C678 C 0.62723 0.06197 0.19497 0.0
C679 C 0.61391 0.08485 0.20601 0.0
C680 C 0.62139 0.05268 0.16396 0.0
C681 C 0.66275 0.02621 0.20128 0.0
C682 C 0.63813 0.067 0.14295 0.0
C683 C 0.63024 0.06209 0.11344 0.0
C684 C 0.60549 0.04263 0.10433 0.0
C685 C 0.58976 0.02686 0.12534 0.0
C686 C 0.59753 0.03206 0.15502 0.0
H687 H 0.67653 0.01812 0.21841 0.0
H688 H 0.64654 0.00797 0.19237 0.0
H689 H 0.67641 0.03389 0.18322 0.0
H690 H 0.65655 0.08304 0.14948 0.0
H691 H 0.64279 0.07456 0.09778 0.0
H692 H 0.38631 0.64117 0.24063 0.0
H693 H 0.39157 0.62552 0.29031 0.0
H694 H 0.48378 0.63488 0.28325 0.0
H695 H 0.47868 0.65209 0.23405 0.0
H696 H 0.40997 0.58007 0.30811 0.0
H697 H 0.48058 0.67318 0.36151 0.0
H698 H 0.4628 0.67544 0.32633 0.0
H699 H 0.49679 0.66172 0.32938 0.0
C700 C 0.40777 0.64062 0.24998 0.0
C701 C 0.43224 0.6488 0.23392 0.0
C702 C 0.41072 0.63159 0.27832 0.0
C703 C 0.43812 0.62995 0.29088 0.0
C704 C 0.46251 0.63722 0.27451 0.0
H705 H 0.50203 0.51111 0.38857 0.0
H706 H 0.47603 0.53925 0.35651 0.0
C707 C 0.4596 0.64671 0.24632 0.0
C708 C 0.44113 0.61783 0.31989 0.0
H709 H 0.48404 0.62592 0.38202 0.0
C710 C 0.42561 0.5905 0.3246 0.0
C711 C 0.46081 0.6317 0.3419 0.0
C712 C 0.47589 0.66229 0.33962 0.0
C713 C 0.43135 0.5755 0.34941 0.0
C714 C 0.45377 0.5878 0.36946 0.0
C715 C 0.46721 0.61629 0.3663 0.0
C716 C 0.46702 0.56977 0.3903 0.0
C717 C 0.4143 0.546 0.35315 0.0
C718 C 0.47122 0.57799 0.41998 0.0
C719 C 0.48656 0.56195 0.43856 0.0
C720 C 0.49813 0.53781 0.42749 0.0
C721 C 0.49343 0.52956 0.39786 0.0
C722 C 0.47822 0.54546 0.37948 0.0
H723 H 0.3919 0.54496 0.34399 0.0
H724 H 0.4244 0.52934 0.3411 0.0
H725 H 0.41358 0.54055 0.3764 0.0
H726 H 0.46305 0.59698 0.42861 0.0
H727 H 0.4899 0.5688 0.46131 0.0
H728 H 0.069 0.4023 0.70601 0.0
H729 H 0.0633 0.40891 0.7583 0.0
H730 H 0.15537 0.41779 0.77375 0.0
H731 H 0.16132 0.41062 0.72164 0.0
H732 H 0.08399 0.37393 0.80401 0.0
H733 H 0.13085 0.4908 0.81532 0.0
H734 H 0.11833 0.47328 0.78059 0.0
H735 H 0.15173 0.46654 0.79741 0.0
C736 C 0.08804 0.40559 0.72052 0.0
C737 C 0.11562 0.4061 0.70959 0.0
C738 C 0.08475 0.40942 0.75034 0.0
C739 C 0.10894 0.41402 0.76975 0.0
C740 C 0.13649 0.41467 0.75902 0.0
H741 H 0.09719 0.46588 0.95387 0.0
H742 H 0.11911 0.44531 0.91166 0.0
C743 C 0.13982 0.41075 0.72921 0.0
C744 C 0.1051 0.41784 0.80127 0.0
H745 H 0.11274 0.46888 0.85709 0.0
C746 C 0.09058 0.39457 0.81576 0.0
C747 C 0.11413 0.44466 0.81655 0.0
C748 C 0.12949 0.47039 0.80177 0.0
C749 C 0.08375 0.3978 0.84493 0.0
C750 C 0.09122 0.42511 0.85972 0.0
C751 C 0.1072 0.4479 0.84572 0.0
C752 C 0.07851 0.43202 0.88752 0.0
C753 C 0.06788 0.37218 0.85942 0.0
C754 C 0.04854 0.43071 0.8881 0.0
C755 C 0.03619 0.44253 0.91183 0.0
C756 C 0.05355 0.45578 0.9355 0.0
C757 C 0.0834 0.45538 0.93598 0.0
C758 C 0.09589 0.44382 0.91188 0.0
H759 H 0.07286 0.35141 0.8497 0.0
H760 H 0.07339 0.37305 0.88315 0.0
H761 H 0.04435 0.37229 0.8562 0.0
H762 H 0.03478 0.42231 0.86934 0.0
H763 H 0.01312 0.44275 0.91096 0.0
H764 H 0.81588 0.89511 0.85616 0.0
H765 H 0.778 0.91953 0.87592 0.0
H766 H 0.81186 0.91005 0.96291 0.0
H767 H 0.85116 0.88745 0.94326 0.0
H768 H 0.73594 0.90159 0.9084 0.0
H769 H 0.80295 0.99351 0.96919 0.0
H770 H 0.81799 0.96981 0.9441 0.0
H771 H 0.81108 0.95916 0.98063 0.0
C772 C 0.8158 0.89874 0.8795 0.0
C773 C 0.83709 0.88952 0.89798 0.0
C774 C 0.79383 0.91254 0.89082 0.0
C775 C 0.79226 0.91737 0.92096 0.0
C776 C 0.81297 0.9075 0.93955 0.0
H777 H 0.65641 0.95584 0.02766 0.0
H778 H 0.70201 0.94594 0.00844 0.0
C779 C 0.83523 0.89401 0.92823 0.0
C780 C 0.76824 0.93153 0.93273 0.0
H781 H 0.75284 0.98566 0.97931 0.0
C782 C 0.73976 0.92021 0.9236 0.0
C783 C 0.773 0.95595 0.95259 0.0
C784 C 0.80292 0.9705 0.96197 0.0
C785 C 0.71612 0.93204 0.93423 0.0
C786 C 0.72089 0.95588 0.95459 0.0
C787 C 0.74925 0.96746 0.9636 0.0
C788 C 0.69639 0.96732 0.96822 0.0
C789 C 0.68601 0.91847 0.92429 0.0
C790 C 0.67871 0.98385 0.95256 0.0
C791 C 0.65279 0.99008 0.96383 0.0
C792 C 0.64414 0.97954 0.99075 0.0
C793 C 0.66281 0.96462 0.00708 0.0
C794 C 0.68878 0.95879 0.99604 0.0
H795 H 0.68585 0.89852 0.91028 0.0
H796 H 0.67295 0.91294 0.94339 0.0
H797 H 0.67547 0.93427 0.91179 0.0
H798 H 0.68418 0.99056 0.93098 0.0
H799 H 0.63849 1.00099 0.9505 0.0
H800 H 0.76583 0.13463 0.38138 0.0
H801 H 0.80709 0.1191 0.40685 0.0
H802 H 0.77125 0.13673 0.48921 0.0
H803 H 0.72876 0.15015 0.46391 0.0
H804 H 0.84791 0.14515 0.44438 0.0
H805 H 0.78361 0.05457 0.49829 0.0
H806 H 0.76816 0.07458 0.47048 0.0
H807 H 0.77411 0.08965 0.50713 0.0
C808 C 0.76638 0.13478 0.4049 0.0
C809 C 0.74356 0.14321 0.42046 0.0
C810 C 0.79025 0.12624 0.41948 0.0
C811 C 0.79208 0.12619 0.44997 0.0
C812 C 0.77003 0.13586 0.46567 0.0
H813 H 0.95726 0.07885 0.52121 0.0
H814 H 0.91714 0.10731 0.51676 0.0
C815 C 0.74588 0.14397 0.45109 0.0
C816 C 0.81671 0.11512 0.46494 0.0
H817 H 0.83362 0.06113 0.50772 0.0
C818 C 0.84484 0.12694 0.45847 0.0
C819 C 0.81265 0.09132 0.48331 0.0
C820 C 0.78303 0.07658 0.49006 0.0
C821 C 0.86889 0.11477 0.46859 0.0
C822 C 0.86475 0.0906 0.48646 0.0
C823 C 0.83676 0.07981 0.49423 0.0
C824 C 0.88817 0.07319 0.49313 0.0
C825 C 0.89824 0.12672 0.4585 0.0
C826 C 0.88468 0.04419 0.48282 0.0
C827 C 0.90717 0.02792 0.48572 0.0
C828 C 0.93389 0.04023 0.49893 0.0
C829 C 0.93697 0.06879 0.51085 0.0
C830 C 0.91418 0.08516 0.50803 0.0
H831 H 0.89692 0.142 0.44072 0.0
H832 H 0.91129 0.13859 0.47698 0.0
H833 H 0.90971 0.1089 0.45068 0.0
H834 H 0.86483 0.03438 0.47139 0.0
H835 H 0.90387 0.00589 0.47657 0.0
H836 H 0.3651 0.62109 0.11198 0.0
H837 H 0.32336 0.58989 0.08878 0.0
H838 H 0.27798 0.66367 0.08243 0.0
H839 H 0.31894 0.69472 0.10649 0.0
H840 H 0.2511 0.61838 0.11433 0.0
H841 H 0.28209 0.57767 0.00685 0.0
H842 H 0.307 0.575 0.03703 0.0
H843 H 0.30109 0.61009 0.02546 0.0
C844 C 0.34639 0.63074 0.10519 0.0
C845 C 0.34524 0.66035 0.11135 0.0
C846 C 0.32273 0.61295 0.0916 0.0
C847 C 0.29772 0.62456 0.08375 0.0
C848 C 0.29722 0.65439 0.08815 0.0
H849 H 0.12616 0.55031 0.02028 0.0
H850 H 0.1752 0.57699 0.02408 0.0
C851 C 0.32075 0.67214 0.1018 0.0
C852 C 0.27063 0.60525 0.07545 0.0
H853 H 0.23737 0.55549 0.02407 0.0
C854 C 0.24805 0.60478 0.09449 0.0
C855 C 0.26689 0.58743 0.04968 0.0
C856 C 0.29044 0.58761 0.02839 0.0
C857 C 0.22178 0.58692 0.08852 0.0
C858 C 0.21807 0.5689 0.06293 0.0
C859 C 0.24049 0.56936 0.0437 0.0
C860 C 0.19068 0.54965 0.0563 0.0
C861 C 0.19806 0.58741 0.10961 0.0
C862 C 0.18366 0.52509 0.07258 0.0
C863 C 0.15576 0.50996 0.07063 0.0
C864 C 0.13442 0.5192 0.05236 0.0
C865 C 0.14207 0.54276 0.03466 0.0
C866 C 0.17006 0.55792 0.03667 0.0
H867 H 0.20288 0.60568 0.12607 0.0
H868 H 0.17732 0.58915 0.09781 0.0
H869 H 0.19528 0.56682 0.12121 0.0
H870 H 0.19939 0.5185 0.08787 0.0
H871 H 0.15066 0.49173 0.08435 0.0
H872 H 0.20987 0.38544 0.57615 0.0
H873 H 0.25205 0.401 0.54773 0.0
H874 H 0.27856 0.47241 0.60976 0.0
H875 H 0.23635 0.45705 0.63798 0.0
H876 H 0.28904 0.48498 0.54925 0.0
H877 H 0.32976 0.38493 0.58585 0.0
H878 H 0.2954 0.38073 0.56622 0.0
H879 H 0.29942 0.39802 0.6019 0.0
C880 C 0.22451 0.40473 0.58333 0.0
C881 C 0.22056 0.41964 0.60958 0.0
C882 C 0.24848 0.41359 0.56713 0.0
C883 C 0.26861 0.43749 0.577 0.0
C884 C 0.26329 0.45382 0.60189 0.0
H885 H 0.43932 0.49802 0.60062 0.0
H886 H 0.38859 0.47742 0.59784 0.0
C887 C 0.23935 0.44499 0.61805 0.0
C888 C 0.297 0.44349 0.56405 0.0
H889 H 0.36249 0.4198 0.56498 0.0
C890 C 0.30496 0.47045 0.55189 0.0
C891 C 0.31766 0.42444 0.56774 0.0
C892 C 0.31037 0.39545 0.58125 0.0
C893 C 0.33356 0.47956 0.5449 0.0
C894 C 0.35449 0.46125 0.55035 0.0
C895 C 0.34618 0.43359 0.5607 0.0
C896 C 0.38551 0.47245 0.55091 0.0
C897 C 0.34178 0.50948 0.53377 0.0
C898 C 0.40057 0.47601 0.52534 0.0
C899 C 0.42983 0.48772 0.52683 0.0
C900 C 0.44417 0.49618 0.55393 0.0
C901 C 0.42893 0.49196 0.57941 0.0
C902 C 0.39995 0.48013 0.57789 0.0
H903 H 0.32283 0.52092 0.53025 0.0
H904 H 0.35734 0.52264 0.54955 0.0
H905 H 0.3526 0.50791 0.51291 0.0
H906 H 0.38966 0.47004 0.50435 0.0
H907 H 0.44099 0.49075 0.50682 0.0
H908 H 0.95117 0.77828 0.89141 0.0
H909 H 0.97553 0.74277 0.9173 0.0
H910 H 0.90267 0.7248 0.97109 0.0
H911 H 0.87826 0.76001 0.9451 0.0
H912 H 0.9914 0.73652 0.9763 0.0
H913 H 0.90942 0.6448 0.93472 0.0
H914 H 0.91202 0.68038 0.9201 0.0
H915 H 0.8951 0.67334 0.9539 0.0
C916 C 0.94056 0.76695 0.90899 0.0
C917 C 0.9127 0.77166 0.916 0.0
C918 C 0.95445 0.74665 0.92376 0.0
C919 C 0.94071 0.73057 0.94576 0.0
C920 C 0.91348 0.73639 0.95378 0.0
H921 H 0.98588 0.57766 0.03365 0.0
H922 H 0.96422 0.62126 0.02291 0.0
C923 C 0.89961 0.75667 0.93904 0.0
C924 C 0.95438 0.70706 0.95954 0.0
H925 H 0.94548 0.63373 0.96785 0.0
C926 C 0.98132 0.71406 0.97451 0.0
C927 C 0.94127 0.67767 0.95731 0.0
C928 C 0.91299 0.66844 0.94044 0.0
C929 C 0.9954 0.69259 0.98732 0.0
C930 C 0.98248 0.66316 0.9847 0.0
C931 C 0.95534 0.65625 0.97013 0.0
C932 C 0.99757 0.63893 0.99481 0.0
C933 C 0.02391 0.70169 1.00373 0.0
C934 C 0.02383 0.6345 0.98315 0.0
C935 C 0.03622 0.60971 0.98929 0.0
C936 C 0.02268 0.58857 0.00723 0.0
C937 C 0.99712 0.59367 0.02013 0.0
C938 C 0.98458 0.61849 0.01378 0.0
H939 H 0.02626 0.72469 0.01183 0.0
H940 H 0.02645 0.68784 0.02249 0.0
H941 H 0.04161 0.69957 0.98892 0.0
H942 H 0.03406 0.64949 0.96802 0.0
H943 H 0.05578 0.60638 0.97879 0.0
H944 H 0.35741 0.76293 0.13252 0.0
H945 H 0.36854 0.81552 0.12793 0.0
H946 H 0.45836 0.81134 0.14805 0.0
H947 H 0.44735 0.75894 0.15293 0.0
H948 H 0.43657 0.85901 0.17687 0.0
H949 H 0.40938 0.84988 0.05744 0.0
H950 H 0.38227 0.83521 0.08139 0.0
H951 H 0.41418 0.81854 0.07785 0.0
C952 C 0.37954 0.77327 0.13577 0.0
C953 C 0.4016 0.75689 0.14275 0.0
C954 C 0.3858 0.80326 0.13334 0.0
C955 C 0.41425 0.81722 0.13756 0.0
C956 C 0.43621 0.80096 0.14496 0.0
H957 H 0.54464 0.92243 0.09973 0.0
H958 H 0.50751 0.90439 0.13211 0.0
C959 C 0.42995 0.77106 0.14758 0.0
C960 C 0.42197 0.84835 0.13228 0.0
H961 H 0.43476 0.8933 0.07638 0.0
C962 C 0.43555 0.86688 0.15504 0.0
C963 C 0.42003 0.85871 0.10394 0.0
C964 C 0.40582 0.83965 0.07863 0.0
C965 C 0.44971 0.8946 0.14961 0.0
C966 C 0.45066 0.90363 0.12069 0.0
C967 C 0.43412 0.88643 0.09861 0.0
C968 C 0.47424 0.9254 0.11128 0.0
C969 C 0.46514 0.91312 0.17457 0.0
C970 C 0.4687 0.94516 0.09014 0.0
C971 C 0.49021 0.95553 0.07146 0.0
C972 C 0.51719 0.94601 0.07385 0.0
C973 C 0.52392 0.93004 0.09767 0.0
C974 C 0.50262 0.91988 0.11638 0.0
H975 H 0.4524 0.91084 0.19435 0.0
H976 H 0.48608 0.9056 0.17976 0.0
H977 H 0.46918 0.93637 0.16937 0.0
H978 H 0.44696 0.94965 0.08578 0.0
H979 H 0.48455 0.96761 0.05298 0.0
H980 H 0.08874 0.36204 0.57567 0.0
H981 H 0.06587 0.31687 0.55034 0.0
H982 H 0.06242 0.27424 0.63182 0.0
H983 H 0.08589 0.31858 0.65705 0.0
H984 H 0.09006 0.2646 0.55071 0.0
H985 H 0.98131 0.24865 0.59406 0.0
H986 H 0.00363 0.28369 0.59494 0.0
H987 H 0.00883 0.25816 0.62236 0.0
C988 C 0.08288 0.34309 0.58822 0.0
C989 C 0.08907 0.34405 0.61846 0.0
C990 C 0.06964 0.3174 0.57373 0.0
C991 C 0.06196 0.29241 0.58929 0.0
C992 C 0.06741 0.29352 0.61951 0.0
H993 H 0.04913 0.12264 0.60601 0.0
H994 H 0.04529 0.17388 0.60391 0.0
C995 C 0.08082 0.319 0.63394 0.0
C996 C 0.05131 0.26414 0.57414 0.0
H997 H 1.00066 0.20472 0.57972 0.0
C998 C 0.07003 0.25172 0.55611 0.0
C999 C 0.02508 0.24755 0.58107 0.0
C1000 C 0.00342 0.26032 0.59894 0.0
C1001 C 0.06469 0.22215 0.54753 0.0
C1002 C 0.03983 0.20488 0.55699 0.0
C1003 C 0.01972 0.21803 0.57252 0.0
C1004 C 0.03797 0.17297 0.55719 0.0
C1005 C 0.087 0.209 0.5309 0.0
C1006 C 0.03431 0.15523 0.53157 0.0
C1007 C 0.03641 0.12555 0.53272 0.0
C1008 C 0.04254 0.1136 0.55946 0.0
C1009 C 0.04476 0.13128 0.58504 0.0
C1010 C 0.04241 0.16057 0.58391 0.0
H1011 H 0.10567 0.22533 0.52611 0.0
H1012 H 0.09499 0.19172 0.54356 0.0
H1013 H 0.0771 0.19886 0.51002 0.0
H1014 H 0.03068 0.16447 0.51075 0.0
H1015 H 0.03458 0.11234 0.51271 0.0
H1016 H 0.5888 0.21 0.42912 0.0
H1017 H 0.5736 0.25428 0.44977 0.0
H1018 H 0.65987 0.28217 0.48562 0.0
H1019 H 0.67518 0.23786 0.46478 0.0
H1020 H 0.57657 0.27344 0.50926 0.0
H1021 H 0.64061 0.35261 0.44124 0.0
H1022 H 0.63409 0.31422 0.4319 0.0
H1023 H 0.66052 0.32824 0.46009 0.0
C1024 C 0.60452 0.22569 0.44125 0.0
C1025 C 0.63317 0.22067 0.44532 0.0
C1026 C 0.59583 0.25089 0.45309 0.0
C1027 C 0.61565 0.2716 0.46903 0.0
C1028 C 0.64433 0.26667 0.47305 0.0
H1029 H 0.58828 0.4438 0.53377 0.0
H1030 H 0.60889 0.39848 0.53061 0.0
C1031 C 0.65303 0.2414 0.46125 0.0
C1032 C 0.60602 0.29807 0.48174 0.0
H1033 H 0.61326 0.3716 0.47698 0.0
C1034 C 0.58471 0.29494 0.50235 0.0
C1035 C 0.61682 0.32609 0.47284 0.0
C1036 C 0.63911 0.33065 0.45015 0.0
C1037 C 0.57356 0.31906 0.51397 0.0
C1038 C 0.58368 0.34697 0.50439 0.0
C1039 C 0.60565 0.3502 0.48446 0.0
C1040 C 0.56986 0.37272 0.51223 0.0
C1041 C 0.55093 0.3144 0.53629 0.0
C1042 C 0.54083 0.37306 0.5039 0.0
C1043 C 0.52898 0.39882 0.50594 0.0
C1044 C 0.54593 0.42477 0.51629 0.0
C1045 C 0.57445 0.42403 0.52647 0.0
C1046 C 0.58636 0.39821 0.52431 0.0
H1047 H 0.5525 0.29436 0.5482 0.0
H1048 H 0.55283 0.33309 0.55226 0.0
H1049 H 0.52927 0.31194 0.52512 0.0
H1050 H 0.52783 0.35387 0.49397 0.0
H1051 H 0.50706 0.39885 0.49761 0.0
loop_
_geom_bond_atom_site_label_1
_geom_bond_atom_site_label_2
_geom_bond_distance
_geom_bond_site_symmetry_2
_ccdc_geom_bond_type
H0 C7 0.929 . S
H1 C10 0.930 . S
H2 C12 0.929 . S
H3 C4 0.969 . S
C4 H3 0.969 . S
C4 O5 1.550 . S
C4 H6 0.973 . S
O5 C4 1.550 . S
O5 C11 1.412 . S
H6 C4 0.973 . S
C7 H0 0.929 . S
C7 C8 1.400 . S
C7 C9 1.364 . S
C8 C7 1.400 . S
C8 C12 1.377 . S
C9 C7 1.364 . S
C9 C10 1.374 . S
C10 H1 0.930 . S
C10 C9 1.374 . S
C10 C11 1.383 . S
C11 O5 1.412 . S
C11 C10 1.383 . S
C11 C12 1.394 . S
C12 H2 0.929 . S
C12 C8 1.377 . S
C12 C11 1.394 . S
H13 C20 0.929 . S
H14 C23 0.930 . S
H15 C25 0.929 . S
H16 C17 0.969 . S
C17 H16 0.969 . S
C17 O18 1.550 . S
C17 H19 0.973 . S
O18 C17 1.550 . S
O18 C24 1.412 . S
H19 C17 0.973 . S
C20 H13 0.929 . S
C20 C21 1.400 . S
C20 C22 1.364 . S
C21 C20 1.400 . S
C21 C25 1.377 . S
C22 C20 1.364 . S
C22 C23 1.374 . S
C23 H14 0.930 . S
C23 C22 1.374 . S
C23 C24 1.383 . S
C24 O18 1.412 . S
C24 C23 1.383 . S
C24 C25 1.394 . S
C25 H15 0.929 . S
C25 C21 1.377 . S
C25 C24 1.394 . S
H26 C33 0.929 . S
H27 C36 0.930 . S
H28 C38 0.929 . S
H29 C30 0.969 . S
C30 H29 0.969 . S
C30 O31 1.550 . S
C30 H32 0.973 . S
O31 C30 1.550 . S
O31 C37 1.412 . S
H32 C30 0.973 . S
C33 H26 0.929 . S
C33 C34 1.400 . S
C33 C35 1.364 . S
C34 C33 1.400 . S
C34 C38 1.377 . S
C35 C33 1.364 . S
C35 C36 1.374 . S
C36 H27 0.930 . S
C36 C35 1.374 . S
C36 C37 1.383 . S
C37 O31 1.412 . S
C37 C36 1.383 . S
C37 C38 1.394 . S
C38 H28 0.929 . S
C38 C34 1.377 . S
C38 C37 1.394 . S
H39 C46 0.929 . S
H40 C49 0.930 . S
H41 C51 0.929 . S
H42 C43 0.969 . S
C43 H42 0.969 . S
C43 O44 1.550 . S
C43 H45 0.973 . S
O44 C43 1.550 . S
O44 C50 1.412 . S
H45 C43 0.973 . S
C46 H39 0.929 . S
C46 C47 1.400 . S
C46 C48 1.364 . S
C47 C46 1.400 . S
C47 C51 1.377 . S
C48 C46 1.364 . S
C48 C49 1.374 . S
C49 H40 0.930 . S
C49 C48 1.374 . S
C49 C50 1.383 . S
C50 O44 1.412 . S
C50 C49 1.383 . S
C50 C51 1.394 . S
C51 H41 0.929 . S
C51 C47 1.377 . S
C51 C50 1.394 . S
H52 C59 0.929 . S
H53 C62 0.930 . S
H54 C64 0.929 . S
H55 C56 0.969 . S
C56 H55 0.969 . S
C56 O57 1.550 . S
C56 H58 0.973 . S
O57 C56 1.550 . S
O57 C63 1.412 . S
H58 C56 0.973 . S
C59 H52 0.929 . S
C59 C60 1.400 . S
C59 C61 1.364 . S
C60 C59 1.400 . S
C60 C64 1.377 . S
C61 C59 1.364 . S
C61 C62 1.374 . S
C62 H53 0.930 . S
C62 C61 1.374 . S
C62 C63 1.383 . S
C63 O57 1.412 . S
C63 C62 1.383 . S
C63 C64 1.394 . S
C64 H54 0.929 . S
C64 C60 1.377 . S
C64 C63 1.394 . S
H65 C72 0.929 . S
H66 C75 0.930 . S
H67 C77 0.929 . S
H68 C69 0.969 . S
C69 H68 0.969 . S
C69 O70 1.550 . S
C69 H71 0.973 . S
O70 C69 1.550 . S
O70 C76 1.412 . S
H71 C69 0.973 . S
C72 H65 0.929 . S
C72 C73 1.400 . S
C72 C74 1.364 . S
C73 C72 1.400 . S
C73 C77 1.377 . S
C74 C72 1.364 . S
C74 C75 1.374 . S
C75 H66 0.930 . S
C75 C74 1.374 . S
C75 C76 1.383 . S
C76 O70 1.412 . S
C76 C75 1.383 . S
C76 C77 1.394 . S
C77 H67 0.929 . S
C77 C73 1.377 . S
C77 C76 1.394 . S
H78 C85 0.929 . S
H79 C88 0.930 . S
H80 C90 0.929 . S
H81 C82 0.969 . S
C82 H81 0.969 . S
C82 O83 1.550 . S
C82 H84 0.973 . S
O83 C82 1.550 . S
O83 C89 1.412 . S
H84 C82 0.973 . S
C85 H78 0.929 . S
C85 C86 1.400 . S
C85 C87 1.364 . S
C86 C85 1.400 . S
C86 C90 1.377 . S
C87 C85 1.364 . S
C87 C88 1.374 . S
C88 H79 0.930 . S
C88 C87 1.374 . S
C88 C89 1.383 . S
C89 O83 1.412 . S
C89 C88 1.383 . S
C89 C90 1.394 . S
C90 H80 0.929 . S
C90 C86 1.377 . S
C90 C89 1.394 . S
H91 C98 0.929 . S
H92 C101 0.930 . S
H93 C103 0.929 . S
H94 C95 0.969 . S
C95 H94 0.969 . S
C95 O96 1.550 . S
C95 H97 0.973 . S
O96 C95 1.550 . S
O96 C102 1.412 . S
H97 C95 0.973 . S
C98 H91 0.929 . S
C98 C99 1.400 . S
C98 C100 1.364 . S
C99 C98 1.400 . S
C99 C103 1.377 . S
C100 C98 1.364 . S
C100 C101 1.374 . S
C101 H92 0.930 . S
C101 C100 1.374 . S
C101 C102 1.383 . S
C102 O96 1.412 . S
C102 C101 1.383 . S
C102 C103 1.394 . S
C103 H93 0.929 . S
C103 C99 1.377 . S
C103 C102 1.394 . S
O104 Mg105 1.990 . S
O104 C118 1.253 1_545 S
Mg105 O104 1.990 . S
Mg105 O108 2.180 . S
Mg105 O109 2.117 . S
Mg105 O123 2.030 . S
O106 Mg107 2.087 1_565 S
O106 C118 1.261 . S
Mg107 O106 2.087 1_545 S
Mg107 O108 2.099 . S
Mg107 O110 2.079 . S
Mg107 O111 2.072 1_455 S
Mg107 O113 2.109 1_545 S
Mg107 O124 2.077 1_545 S
O108 Mg105 2.180 . S
O108 Mg107 2.099 . S
O108 C119 1.279 . S
O109 Mg105 2.117 . S
O109 C119 1.250 . S
O110 Mg107 2.079 . S
O110 C120 1.264 . S
O111 Mg107 2.072 1_655 S
O111 C121 1.260 . S
Mg112 O113 2.159 1_655 S
Mg112 O114 2.030 1_665 S
Mg112 O115 1.990 1_565 S
Mg112 O116 2.117 . S
O113 Mg107 2.109 1_565 S
O113 Mg112 2.159 1_455 S
O113 C122 1.261 1_455 S
O114 Mg112 2.030 1_445 S
O114 C120 1.248 . S
O115 Mg112 1.990 1_545 S
O115 C121 1.253 . S
O116 Mg112 2.117 . S
O116 C122 1.250 . S
C117 O123 1.248 1_565 S
C117 O124 1.265 . S
C118 O104 1.253 1_565 S
C118 O106 1.261 . S
C119 O108 1.279 . S
C119 O109 1.250 . S
C120 O110 1.264 . S
C120 O114 1.248 . S
C121 O111 1.260 . S
C121 O115 1.253 . S
C122 O113 1.261 1_655 S
C122 O116 1.250 . S
O123 Mg105 2.030 . S
O123 C117 1.248 1_545 S
O124 Mg107 2.077 1_565 S
O124 C117 1.265 . S
O125 Mg126 1.990 . S
O125 C139 1.253 . S
Mg126 O125 1.990 . S
Mg126 O129 2.180 . S
Mg126 O130 2.117 1_554 S
Mg126 O144 2.030 . S
O127 Mg128 2.072 . S
O127 C139 1.260 . S
Mg128 O127 2.072 . S
Mg128 O129 2.099 . S
Mg128 O131 2.079 1_554 S
Mg128 O132 2.072 1_554 S
Mg128 O134 2.099 1_545 S
Mg128 O145 2.079 . S
O129 Mg126 2.180 . S
O129 Mg128 2.099 . S
O129 C140 1.279 1_554 S
O130 Mg126 2.117 1_556 S
O130 C140 1.250 . S
O131 Mg128 2.079 1_556 S
O131 C141 1.264 1_545 S
O132 Mg128 2.072 1_556 S
O132 C142 1.260 1_545 S
Mg133 O134 2.180 1_556 S
Mg133 O135 2.030 . S
Mg133 O136 1.990 . S
Mg133 O137 2.117 1_556 S
O134 Mg128 2.099 1_565 S
O134 Mg133 2.180 1_554 S
O134 C143 1.279 . S
O135 Mg133 2.030 . S
O135 C141 1.248 . S
O136 Mg133 1.990 . S
O136 C142 1.253 . S
O137 Mg133 2.117 1_554 S
O137 C143 1.250 . S
C138 O144 1.248 . S
C138 O145 1.264 . S
C139 O125 1.253 . S
C139 O127 1.260 . S
C140 O129 1.279 1_556 S
C140 O130 1.250 . S
C141 O131 1.264 1_565 S
C141 O135 1.248 . S
C142 O132 1.260 1_565 S
C142 O136 1.253 . S
C143 O134 1.279 . S
C143 O137 1.250 . S
O144 Mg126 2.030 . S
O144 C138 1.248 . S
O145 Mg128 2.079 . S
O145 C138 1.264 . S
O146 Mg147 1.990 . S
O146 C160 1.253 . S
Mg147 O146 1.990 . S
Mg147 O150 2.180 . S
Mg147 O151 2.117 . S
Mg147 O165 2.030 . S
O148 Mg149 2.072 . S
O148 C160 1.260 . S
Mg149 O148 2.072 . S
Mg149 O150 2.099 . S
Mg149 O152 2.079 . S
Mg149 O153 2.072 . S
Mg149 O155 2.099 . S
Mg149 O166 2.079 . S
O150 Mg147 2.180 . S
O150 Mg149 2.099 . S
O150 C161 1.279 . S
O151 Mg147 2.117 . S
O151 C161 1.250 . S
O152 Mg149 2.079 . S
O152 C162 1.264 . S
O153 Mg149 2.072 . S
O153 C163 1.260 . S
Mg154 O155 2.180 . S
Mg154 O156 2.030 . S
Mg154 O157 1.990 . S
Mg154 O158 2.117 . S
O155 Mg149 2.099 . S
O155 Mg154 2.180 . S
O155 C164 1.279 . S
O156 Mg154 2.030 . S
O156 C162 1.248 . S
O157 Mg154 1.990 . S
O157 C163 1.253 . S
O158 Mg154 2.117 . S
O158 C164 1.250 . S
C159 O165 1.248 . S
C159 O166 1.264 . S
C160 O146 1.253 . S
C160 O148 1.260 . S
C161 O150 1.279 . S
C161 O151 1.250 . S
C162 O152 1.264 . S
C162 O156 1.248 . S
C163 O153 1.260 . S
C163 O157 1.253 . S
C164 O155 1.279 . S
C164 O158 1.250 . S
O165 Mg147 2.030 . S
O165 C159 1.248 . S
O166 Mg149 2.079 . S
O166 C159 1.264 . S
O167 Mg168 1.990 . S
O167 C181 1.253 . S
Mg168 O167 1.990 . S
Mg168 O171 2.180 . S
Mg168 O172 2.117 . S
Mg168 O186 2.030 . S
O169 Mg170 2.072 . S
O169 C181 1.260 . S
Mg170 O169 2.072 . S
Mg170 O171 2.099 . S
Mg170 O173 2.079 . S
Mg170 O174 2.072 1_455 S
Mg170 O176 2.099 1_554 S
Mg170 O187 2.079 . S
O171 Mg168 2.180 . S
O171 Mg170 2.099 . S
O171 C182 1.279 . S
O172 Mg168 2.117 . S
O172 C182 1.250 . S
O173 Mg170 2.079 . S
O173 C183 1.264 1_554 S
O174 Mg170 2.072 1_655 S
O174 C184 1.260 1_554 S
Mg175 O176 2.180 . S
Mg175 O177 2.030 1_455 S
Mg175 O178 1.990 1_455 S
Mg175 O179 2.117 . S
O176 Mg170 2.099 1_556 S
O176 Mg175 2.180 . S
O176 C185 1.279 . S
O177 Mg175 2.030 1_655 S
O177 C183 1.248 1_655 S
O178 Mg175 1.990 1_655 S
O178 C184 1.253 . S
O179 Mg175 2.117 . S
O179 C185 1.250 . S
C180 O186 1.248 . S
C180 O187 1.264 . S
C181 O167 1.253 . S
C181 O169 1.260 . S
C182 O171 1.279 . S
C182 O172 1.250 . S
C183 O173 1.264 1_556 S
C183 O177 1.248 1_455 S
C184 O174 1.260 1_556 S
C184 O178 1.253 . S
C185 O176 1.279 . S
C185 O179 1.250 . S
O186 Mg168 2.030 . S
O186 C180 1.248 . S
O187 Mg170 2.079 . S
O187 C180 1.264 . S
H188 C196 0.929 . S
H189 C198 0.930 . S
H190 C200 0.930 . S
H191 C203 0.929 . S
H192 C206 0.930 . S
H193 C208 0.960 . S
H194 C208 0.960 . S
H195 C208 0.960 . S
C196 H188 0.929 . S
C196 C197 1.377 . S
C196 C198 1.384 . S
C197 C196 1.377 . S
C197 C203 1.390 . S
C198 H189 0.930 . S
C198 C196 1.384 . S
C198 C199 1.372 . S
C199 C198 1.372 . S
C199 C200 1.400 . S
C199 C204 1.490 . S
C200 H190 0.930 . S
C200 C199 1.400 . S
C200 C203 1.386 . S
H201 C217 0.930 . S
H202 C218 0.931 . S
C203 H191 0.929 . S
C203 C197 1.390 . S
C203 C200 1.386 . S
C204 C199 1.490 . S
C204 C206 1.395 . S
C204 C207 1.403 . S
H205 C211 0.930 . S
C206 H192 0.930 . S
C206 C204 1.395 . S
C206 C209 1.403 . S
C207 C204 1.403 . S
C207 C208 1.524 . S
C207 C211 1.400 . S
C208 H193 0.960 . S
C208 H194 0.960 . S
C208 H195 0.960 . S
C208 C207 1.524 . S
C209 C206 1.403 . S
C209 C210 1.392 . S
C209 C213 1.495 . S
C210 C209 1.392 . S
C210 C211 1.385 . S
C210 C212 1.478 . S
C211 H205 0.930 . S
C211 C207 1.400 . S
C211 C210 1.385 . S
C212 C210 1.478 . S
C212 C214 1.381 . S
C212 C218 1.383 . S
C213 C209 1.495 . S
C213 H219 0.959 . S
C213 H220 0.961 . S
C213 H221 0.960 . S
C214 C212 1.381 . S
C214 C215 1.394 . S
C214 H222 0.930 . S
C215 C214 1.394 . S
C215 C216 1.383 . S
C215 H223 0.929 . S
C216 C215 1.383 . S
C216 C217 1.377 . S
C217 H201 0.930 . S
C217 C216 1.377 . S
C217 C218 1.379 . S
C218 H202 0.931 . S
C218 C212 1.383 . S
C218 C217 1.379 . S
H219 C213 0.959 . S
H220 C213 0.961 . S
H221 C213 0.960 . S
H222 C214 0.930 . S
H223 C215 0.929 . S
H224 C232 0.929 . S
H225 C234 0.930 . S
H226 C236 0.930 . S
H227 C239 0.929 . S
H228 C242 0.930 . S
H229 C244 0.960 . S
H230 C244 0.960 . S
H231 C244 0.960 . S
C232 H224 0.929 . S
C232 C233 1.377 . S
C232 C234 1.384 . S
C233 C232 1.377 . S
C233 C239 1.390 . S
C234 H225 0.930 . S
C234 C232 1.384 . S
C234 C235 1.372 . S
C235 C234 1.372 . S
C235 C236 1.400 . S
C235 C240 1.490 . S
C236 H226 0.930 . S
C236 C235 1.400 . S
C236 C239 1.386 . S
H237 C253 0.930 . S
H238 C254 0.931 . S
C239 H227 0.929 . S
C239 C233 1.390 . S
C239 C236 1.386 . S
C240 C235 1.490 . S
C240 C242 1.395 . S
C240 C243 1.403 . S
H241 C247 0.930 . S
C242 H228 0.930 . S
C242 C240 1.395 . S
C242 C245 1.403 . S
C243 C240 1.403 . S
C243 C244 1.524 . S
C243 C247 1.400 . S
C244 H229 0.960 . S
C244 H230 0.960 . S
C244 H231 0.960 . S
C244 C243 1.524 . S
C245 C242 1.403 . S
C245 C246 1.392 . S
C245 C249 1.495 . S
C246 C245 1.392 . S
C246 C247 1.385 . S
C246 C248 1.478 . S
C247 H241 0.930 . S
C247 C243 1.400 . S
C247 C246 1.385 . S
C248 C246 1.478 . S
C248 C250 1.381 . S
C248 C254 1.383 . S
C249 C245 1.495 . S
C249 H255 0.959 . S
C249 H256 0.961 . S
C249 H257 0.960 . S
C250 C248 1.381 . S
C250 C251 1.394 1_565 S
C250 H258 0.930 1_565 S
C251 C250 1.394 1_545 S
C251 C252 1.383 1_545 S
C251 H259 0.929 . S
C252 C251 1.383 1_565 S
C252 C253 1.377 . S
C253 H237 0.930 . S
C253 C252 1.377 . S
C253 C254 1.379 . S
C254 H238 0.931 . S
C254 C248 1.383 . S
C254 C253 1.379 . S
H255 C249 0.959 . S
H256 C249 0.961 . S
H257 C249 0.960 . S
H258 C250 0.930 1_545 S
H259 C251 0.929 . S
H260 C268 0.929 . S
H261 C270 0.930 . S
H262 C272 0.930 . S
H263 C275 0.929 . S
H264 C278 0.930 . S
H265 C280 0.960 . S
H266 C280 0.960 . S
H267 C280 0.960 . S
C268 H260 0.929 . S
C268 C269 1.377 . S
C268 C270 1.384 . S
C269 C268 1.377 . S
C269 C275 1.390 . S
C270 H261 0.930 . S
C270 C268 1.384 . S
C270 C271 1.372 . S
C271 C270 1.372 . S
C271 C272 1.400 . S
C271 C276 1.490 . S
C272 H262 0.930 . S
C272 C271 1.400 . S
C272 C275 1.386 . S
H273 C289 0.930 . S
H274 C290 0.931 . S
C275 H263 0.929 . S
C275 C269 1.390 . S
C275 C272 1.386 . S
C276 C271 1.490 . S
C276 C278 1.395 . S
C276 C279 1.403 . S
H277 C283 0.930 . S
C278 H264 0.930 . S
C278 C276 1.395 . S
C278 C281 1.403 . S
C279 C276 1.403 . S
C279 C280 1.524 . S
C279 C283 1.400 . S
C280 H265 0.960 . S
C280 H266 0.960 . S
C280 H267 0.960 . S
C280 C279 1.524 . S
C281 C278 1.403 . S
C281 C282 1.392 . S
C281 C285 1.495 . S
C282 C281 1.392 . S
C282 C283 1.385 . S
C282 C284 1.478 . S
C283 H277 0.930 . S
C283 C279 1.400 . S
C283 C282 1.385 . S
C284 C282 1.478 . S
C284 C286 1.381 . S
C284 C290 1.383 . S
C285 C281 1.495 . S
C285 H291 0.959 . S
C285 H292 0.961 . S
C285 H293 0.960 . S
C286 C284 1.381 . S
C286 C287 1.394 . S
C286 H294 0.930 . S
C287 C286 1.394 . S
C287 C288 1.383 . S
C287 H295 0.929 . S
C288 C287 1.383 . S
C288 C289 1.377 . S
C289 H273 0.930 . S
C289 C288 1.377 . S
C289 C290 1.379 . S
C290 H274 0.931 . S
C290 C284 1.383 . S
C290 C289 1.379 . S
H291 C285 0.959 . S
H292 C285 0.961 . S
H293 C285 0.960 . S
H294 C286 0.930 . S
H295 C287 0.929 . S
H296 C304 0.929 . S
H297 C306 0.930 . S
H298 C308 0.930 . S
H299 C311 0.929 . S
H300 C314 0.930 . S
H301 C316 0.960 . S
H302 C316 0.960 . S
H303 C316 0.960 . S
C304 H296 0.929 . S
C304 C305 1.377 . S
C304 C306 1.384 . S
C305 C304 1.377 . S
C305 C311 1.390 . S
C306 H297 0.930 . S
C306 C304 1.384 . S
C306 C307 1.372 . S
C307 C306 1.372 . S
C307 C308 1.400 . S
C307 C312 1.490 . S
C308 H298 0.930 . S
C308 C307 1.400 . S
C308 C311 1.386 . S
H309 C325 0.930 . S
H310 C326 0.931 1_455 S
C311 H299 0.929 . S
C311 C305 1.390 . S
C311 C308 1.386 . S
C312 C307 1.490 . S
C312 C314 1.395 . S
C312 C315 1.403 . S
H313 C319 0.930 . S
C314 H300 0.930 . S
C314 C312 1.395 . S
C314 C317 1.403 . S
C315 C312 1.403 . S
C315 C316 1.524 . S
C315 C319 1.400 . S
C316 H301 0.960 . S
C316 H302 0.960 . S
C316 H303 0.960 . S
C316 C315 1.524 . S
C317 C314 1.403 . S
C317 C318 1.392 . S
C317 C321 1.495 . S
C318 C317 1.392 . S
C318 C319 1.385 . S
C318 C320 1.478 . S
C319 H313 0.930 . S
C319 C315 1.400 . S
C319 C318 1.385 . S
C320 C318 1.478 . S
C320 C322 1.381 . S
C320 C326 1.383 . S
C321 C317 1.495 . S
C321 H327 0.959 1_655 S
C321 H328 0.961 1_655 S
C321 H329 0.960 . S
C322 C320 1.381 . S
C322 C323 1.394 . S
C322 H330 0.930 . S
C323 C322 1.394 . S
C323 C324 1.383 . S
C323 H331 0.929 . S
C324 C323 1.383 . S
C324 C325 1.377 1_655 S
C325 H309 0.930 . S
C325 C324 1.377 1_455 S
C325 C326 1.379 1_455 S
C326 H310 0.931 1_655 S
C326 C320 1.383 . S
C326 C325 1.379 1_655 S
H327 C321 0.959 1_455 S
H328 C321 0.961 1_455 S
H329 C321 0.960 . S
H330 C322 0.930 . S
H331 C323 0.929 . S
H332 C340 0.929 . S
H333 C342 0.930 . S
H334 C344 0.930 . S
H335 C347 0.929 . S
H336 C350 0.930 . S
H337 C352 0.960 . S
H338 C352 0.960 . S
H339 C352 0.960 . S
C340 H332 0.929 . S
C340 C341 1.377 . S
C340 C342 1.384 . S
C341 C340 1.377 . S
C341 C347 1.390 . S
C342 H333 0.930 . S
C342 C340 1.384 . S
C342 C343 1.372 . S
C343 C342 1.372 . S
C343 C344 1.400 . S
C343 C348 1.490 . S
C344 H334 0.930 . S
C344 C343 1.400 . S
C344 C347 1.386 . S
H345 C361 0.930 . S
H346 C362 0.931 . S
C347 H335 0.929 . S
C347 C341 1.390 . S
C347 C344 1.386 . S
C348 C343 1.490 . S
C348 C350 1.395 . S
C348 C351 1.403 . S
H349 C355 0.930 . S
C350 H336 0.930 . S
C350 C348 1.395 . S
C350 C353 1.403 . S
C351 C348 1.403 . S
C351 C352 1.524 . S
C351 C355 1.400 . S
C352 H337 0.960 . S
C352 H338 0.960 . S
C352 H339 0.960 . S
C352 C351 1.524 . S
C353 C350 1.403 . S
C353 C354 1.392 . S
C353 C357 1.495 . S
C354 C353 1.392 . S
C354 C355 1.385 . S
C354 C356 1.478 . S
C355 H349 0.930 . S
C355 C351 1.400 . S
C355 C354 1.385 . S
C356 C354 1.478 . S
C356 C358 1.381 . S
C356 C362 1.383 . S
C357 C353 1.495 . S
C357 H363 0.959 . S
C357 H364 0.961 . S
C357 H365 0.960 . S
C358 C356 1.381 . S
C358 C359 1.394 . S
C358 H366 0.930 . S
C359 C358 1.394 . S
C359 C360 1.383 . S
C359 H367 0.929 . S
C360 C359 1.383 . S
C360 C361 1.377 . S
C361 H345 0.930 . S
C361 C360 1.377 . S
C361 C362 1.379 . S
C362 H346 0.931 . S
C362 C356 1.383 . S
C362 C361 1.379 . S
H363 C357 0.959 . S
H364 C357 0.961 . S
H365 C357 0.960 . S
H366 C358 0.930 . S
H367 C359 0.929 . S
H368 C376 0.929 . S
H369 C378 0.930 . S
H370 C380 0.930 . S
H371 C383 0.929 . S
H372 C386 0.930 . S
H373 C388 0.960 . S
H374 C388 0.960 . S
H375 C388 0.960 . S
C376 H368 0.929 . S
C376 C377 1.377 . S
C376 C378 1.384 . S
C377 C376 1.377 . S
C377 C383 1.390 . S
C378 H369 0.930 . S
C378 C376 1.384 . S
C378 C379 1.372 . S
C379 C378 1.372 . S
C379 C380 1.400 . S
C379 C384 1.490 . S
C380 H370 0.930 . S
C380 C379 1.400 . S
C380 C383 1.386 . S
H381 C397 0.930 . S
H382 C398 0.931 . S
C383 H371 0.929 . S
C383 C377 1.390 . S
C383 C380 1.386 . S
C384 C379 1.490 . S
C384 C386 1.395 . S
C384 C387 1.403 . S
H385 C391 0.930 . S
C386 H372 0.930 . S
C386 C384 1.395 . S
C386 C389 1.403 . S
C387 C384 1.403 . S
C387 C388 1.524 . S
C387 C391 1.400 . S
C388 H373 0.960 . S
C388 H374 0.960 . S
C388 H375 0.960 . S
C388 C387 1.524 . S
C389 C386 1.403 . S
C389 C390 1.392 . S
C389 C393 1.495 . S
C390 C389 1.392 . S
C390 C391 1.385 . S
C390 C392 1.478 . S
C391 H385 0.930 . S
C391 C387 1.400 . S
C391 C390 1.385 . S
C392 C390 1.478 . S
C392 C394 1.381 . S
C392 C398 1.383 . S
C393 C389 1.495 . S
C393 H399 0.959 1_565 S
C393 H400 0.961 1_565 S
C393 H401 0.960 . S
C394 C392 1.381 . S
C394 C395 1.394 . S
C394 H402 0.930 . S
C395 C394 1.394 . S
C395 C396 1.383 . S
C395 H403 0.929 . S
C396 C395 1.383 . S
C396 C397 1.377 . S
C397 H381 0.930 . S
C397 C396 1.377 . S
C397 C398 1.379 . S
C398 H382 0.931 . S
C398 C392 1.383 . S
C398 C397 1.379 . S
H399 C393 0.959 1_545 S
H400 C393 0.961 1_545 S
H401 C393 0.960 . S
H402 C394 0.930 . S
H403 C395 0.929 . S
H404 C412 0.929 . S
H405 C414 0.930 . S
H406 C416 0.930 . S
H407 C419 0.929 . S
H408 C422 0.930 . S
H409 C424 0.960 1_554 S
H410 C424 0.960 . S
H411 C424 0.960 . S
C412 H404 0.929 . S
C412 C413 1.377 . S
C412 C414 1.384 . S
C413 C412 1.377 . S
C413 C419 1.390 . S
C414 H405 0.930 . S
C414 C412 1.384 . S
C414 C415 1.372 . S
C415 C414 1.372 . S
C415 C416 1.400 . S
C415 C420 1.490 . S
C416 H406 0.930 . S
C416 C415 1.400 . S
C416 C419 1.386 . S
H417 C433 0.945 . S
H418 C434 0.931 . S
C419 H407 0.929 . S
C419 C413 1.390 . S
C419 C416 1.386 . S
C420 C415 1.490 . S
C420 C422 1.395 . S
C420 C423 1.403 . S
H421 C427 0.930 . S
C422 H408 0.930 . S
C422 C420 1.395 . S
C422 C425 1.403 . S
C423 C420 1.403 . S
C423 C424 1.524 . S
C423 C427 1.400 . S
C424 H409 0.960 1_556 S
C424 H410 0.960 . S
C424 H411 0.960 . S
C424 C423 1.524 . S
C425 C422 1.403 . S
C425 C426 1.392 . S
C425 C429 1.495 . S
C426 C425 1.392 . S
C426 C427 1.385 . S
C426 C428 1.478 . S
C427 H421 0.930 . S
C427 C423 1.400 . S
C427 C426 1.385 . S
C428 C426 1.478 . S
C428 C430 1.381 . S
C428 C434 1.383 . S
C429 C425 1.495 . S
C429 H435 0.959 . S
C429 H436 0.961 . S
C429 H437 0.960 . S
C430 C428 1.381 . S
C430 C431 1.394 . S
C430 H438 0.930 . S
C431 C430 1.394 . S
C431 C432 1.383 . S
C431 H439 0.929 . S
C432 C431 1.383 . S
C432 C433 1.375 1_556 S
C433 H417 0.945 . S
C433 C432 1.375 1_554 S
C433 C434 1.367 1_554 S
C434 H418 0.931 . S
C434 C428 1.383 . S
C434 C433 1.367 1_556 S
H435 C429 0.959 . S
H436 C429 0.961 . S
H437 C429 0.960 . S
H438 C430 0.930 . S
H439 C431 0.929 . S
H440 C448 0.929 . S
H441 C450 0.930 . S
H442 C452 0.930 . S
H443 C455 0.929 . S
H444 C458 0.930 . S
H445 C460 0.960 . S
H446 C460 0.960 . S
H447 C460 0.960 . S
C448 H440 0.929 . S
C448 C449 1.377 . S
C448 C450 1.384 . S
C449 C448 1.377 . S
C449 C455 1.390 . S
C450 H441 0.930 . S
C450 C448 1.384 . S
C450 C451 1.372 . S
C451 C450 1.372 . S
C451 C452 1.400 . S
C451 C456 1.490 . S
C452 H442 0.930 . S
C452 C451 1.400 . S
C452 C455 1.386 . S
H453 C469 0.930 . S
H454 C470 0.931 . S
C455 H443 0.929 . S
C455 C449 1.390 . S
C455 C452 1.386 . S
C456 C451 1.490 . S
C456 C458 1.395 . S
C456 C459 1.403 . S
H457 C463 0.930 . S
C458 H444 0.930 . S
C458 C456 1.395 . S
C458 C461 1.403 . S
C459 C456 1.403 . S
C459 C460 1.524 . S
C459 C463 1.400 . S
C460 H445 0.960 . S
C460 H446 0.960 . S
C460 H447 0.960 . S
C460 C459 1.524 . S
C461 C458 1.403 . S
C461 C462 1.392 . S
C461 C465 1.495 . S
C462 C461 1.392 . S
C462 C463 1.385 . S
C462 C464 1.478 . S
C463 H457 0.930 . S
C463 C459 1.400 . S
C463 C462 1.385 . S
C464 C462 1.478 . S
C464 C466 1.381 . S
C464 C470 1.383 . S
C465 C461 1.495 . S
C465 H471 0.959 . S
C465 H472 0.961 . S
C465 H473 0.960 . S
C466 C464 1.381 . S
C466 C467 1.394 . S
C466 H474 0.930 . S
C467 C466 1.394 . S
C467 C468 1.383 . S
C467 H475 0.929 . S
C468 C467 1.383 . S
C468 C469 1.377 . S
C469 H453 0.930 . S
C469 C468 1.377 . S
C469 C470 1.379 . S
C470 H454 0.931 . S
C470 C464 1.383 . S
C470 C469 1.379 . S
H471 C465 0.959 . S
H472 C465 0.961 . S
H473 C465 0.960 . S
H474 C466 0.930 . S
H475 C467 0.929 . S
H476 C484 0.929 . S
H477 C486 0.930 . S
H478 C488 0.930 . S
H479 C491 0.929 . S
H480 C494 0.930 . S
H481 C496 0.960 . S
H482 C496 0.960 . S
H483 C496 0.960 . S
C484 H476 0.929 . S
C484 C485 1.377 . S
C484 C486 1.384 . S
C485 C484 1.377 . S
C485 C491 1.390 . S
C486 H477 0.930 . S
C486 C484 1.384 . S
C486 C487 1.372 . S
C487 C486 1.372 . S
C487 C488 1.400 . S
C487 C492 1.490 . S
C488 H478 0.930 . S
C488 C487 1.400 . S
C488 C491 1.386 . S
H489 C505 0.930 . S
H490 C506 0.931 . S
C491 H479 0.929 . S
C491 C485 1.390 . S
C491 C488 1.386 . S
C492 C487 1.490 . S
C492 C494 1.395 . S
C492 C495 1.403 . S
H493 C499 0.930 . S
C494 H480 0.930 . S
C494 C492 1.395 . S
C494 C497 1.403 . S
C495 C492 1.403 . S
C495 C496 1.524 . S
C495 C499 1.400 . S
C496 H481 0.960 . S
C496 H482 0.960 . S
C496 H483 0.960 . S
C496 C495 1.524 . S
C497 C494 1.403 . S
C497 C498 1.392 . S
C497 C501 1.495 . S
C498 C497 1.392 . S
C498 C499 1.385 . S
C498 C500 1.478 . S
C499 H493 0.930 . S
C499 C495 1.400 . S
C499 C498 1.385 . S
C500 C498 1.478 . S
C500 C502 1.381 . S
C500 C506 1.383 . S
C501 C497 1.495 . S
C501 H507 0.959 . S
C501 H508 0.961 . S
C501 H509 0.960 . S
C502 C500 1.381 . S
C502 C503 1.394 . S
C502 H510 0.930 . S
C503 C502 1.394 . S
C503 C504 1.383 . S
C503 H511 0.929 . S
C504 C503 1.383 . S
C504 C505 1.377 . S
C505 H489 0.930 . S
C505 C504 1.377 . S
C505 C506 1.379 . S
C506 H490 0.931 . S
C506 C500 1.383 . S
C506 C505 1.379 . S
H507 C501 0.959 . S
H508 C501 0.961 . S
H509 C501 0.960 . S
H510 C502 0.930 . S
H511 C503 0.929 . S
H512 C520 0.929 . S
H513 C522 0.930 . S
H514 C524 0.930 . S
H515 C527 0.929 . S
H516 C530 0.930 . S
H517 C532 0.960 . S
H518 C532 0.960 . S
H519 C532 0.960 . S
C520 H512 0.929 . S
C520 C521 1.377 . S
C520 C522 1.384 . S
C521 C520 1.377 . S
C521 C527 1.390 . S
C522 H513 0.930 . S
C522 C520 1.384 . S
C522 C523 1.372 . S
C523 C522 1.372 . S
C523 C524 1.400 . S
C523 C528 1.490 . S
C524 H514 0.930 . S
C524 C523 1.400 . S
C524 C527 1.386 . S
H525 C541 0.930 . S
H526 C542 0.931 . S
C527 H515 0.929 . S
C527 C521 1.390 . S
C527 C524 1.386 . S
C528 C523 1.490 . S
C528 C530 1.395 . S
C528 C531 1.403 . S
H529 C535 0.930 . S
C530 H516 0.930 . S
C530 C528 1.395 . S
C530 C533 1.403 . S
C531 C528 1.403 . S
C531 C532 1.524 . S
C531 C535 1.400 . S
C532 H517 0.960 . S
C532 H518 0.960 . S
C532 H519 0.960 . S
C532 C531 1.524 . S
C533 C530 1.403 . S
C533 C534 1.392 . S
C533 C537 1.495 . S
C534 C533 1.392 . S
C534 C535 1.385 . S
C534 C536 1.478 . S
C535 H529 0.930 . S
C535 C531 1.400 . S
C535 C534 1.385 . S
C536 C534 1.478 . S
C536 C538 1.381 . S
C536 C542 1.383 . S
C537 C533 1.495 . S
C537 H543 0.959 . S
C537 H544 0.961 . S
C537 H545 0.960 . S
C538 C536 1.381 . S
C538 C539 1.394 . S
C538 H546 0.930 . S
C539 C538 1.394 . S
C539 C540 1.383 . S
C539 H547 0.929 . S
C540 C539 1.383 . S
C540 C541 1.377 . S
C541 H525 0.930 . S
C541 C540 1.377 . S
C541 C542 1.379 . S
C542 H526 0.931 . S
C542 C536 1.383 . S
C542 C541 1.379 . S
H543 C537 0.959 . S
H544 C537 0.961 . S
H545 C537 0.960 . S
H546 C538 0.930 . S
H547 C539 0.929 . S
H548 C556 0.929 . S
H549 C558 0.930 . S
H550 C560 0.930 . S
H551 C563 0.929 . S
H552 C566 0.930 . S
H553 C568 0.960 . S
H554 C568 0.960 . S
H555 C568 0.960 . S
C556 H548 0.929 . S
C556 C557 1.377 . S
C556 C558 1.384 . S
C557 C556 1.377 . S
C557 C563 1.390 . S
C558 H549 0.930 . S
C558 C556 1.384 . S
C558 C559 1.372 . S
C559 C558 1.372 . S
C559 C560 1.400 . S
C559 C564 1.490 . S
C560 H550 0.930 . S
C560 C559 1.400 . S
C560 C563 1.386 . S
H561 C577 0.930 . S
H562 C578 0.931 . S
C563 H551 0.929 . S
C563 C557 1.390 . S
C563 C560 1.386 . S
C564 C559 1.490 . S
C564 C566 1.395 . S
C564 C567 1.403 . S
H565 C571 0.930 . S
C566 H552 0.930 . S
C566 C564 1.395 . S
C566 C569 1.403 . S
C567 C564 1.403 . S
C567 C568 1.524 . S
C567 C571 1.400 . S
C568 H553 0.960 . S
C568 H554 0.960 . S
C568 H555 0.960 . S
C568 C567 1.524 . S
C569 C566 1.403 . S
C569 C570 1.392 . S
C569 C573 1.495 . S
C570 C569 1.392 . S
C570 C571 1.385 . S
C570 C572 1.478 . S
C571 H565 0.930 . S
C571 C567 1.400 . S
C571 C570 1.385 . S
C572 C570 1.478 . S
C572 C574 1.381 . S
C572 C578 1.383 . S
C573 C569 1.495 . S
C573 H579 0.959 . S
C573 H580 0.961 . S
C573 H581 0.960 . S
C574 C572 1.381 . S
C574 C575 1.394 1_655 S
C574 H582 0.930 1_655 S
C575 C574 1.394 1_455 S
C575 C576 1.383 1_455 S
C575 H583 0.929 . S
C576 C575 1.383 1_655 S
C576 C577 1.377 . S
C577 H561 0.930 . S
C577 C576 1.377 . S
C577 C578 1.379 . S
C578 H562 0.931 . S
C578 C572 1.383 . S
C578 C577 1.379 . S
H579 C573 0.959 . S
H580 C573 0.961 . S
H581 C573 0.960 . S
H582 C574 0.930 1_455 S
H583 C575 0.929 . S
H584 C592 0.929 . S
H585 C594 0.930 . S
H586 C596 0.930 . S
H587 C599 0.929 . S
H588 C602 0.930 . S
H589 C604 0.960 . S
H590 C604 0.960 . S
H591 C604 0.960 . S
C592 H584 0.929 . S
C592 C593 1.377 . S
C592 C594 1.384 . S
C593 C592 1.377 . S
C593 C599 1.390 . S
C594 H585 0.930 . S
C594 C592 1.384 . S
C594 C595 1.372 . S
C595 C594 1.372 . S
C595 C596 1.400 . S
C595 C600 1.490 . S
C596 H586 0.930 . S
C596 C595 1.400 . S
C596 C599 1.386 . S
H597 C613 0.930 . S
H598 C614 0.931 . S
C599 H587 0.929 . S
C599 C593 1.390 . S
C599 C596 1.386 . S
C600 C595 1.490 . S
C600 C602 1.395 . S
C600 C603 1.403 . S
H601 C607 0.930 . S
C602 H588 0.930 . S
C602 C600 1.395 . S
C602 C605 1.403 . S
C603 C600 1.403 . S
C603 C604 1.524 . S
C603 C607 1.400 . S
C604 H589 0.960 . S
C604 H590 0.960 . S
C604 H591 0.960 . S
C604 C603 1.524 . S
C605 C602 1.403 . S
C605 C606 1.392 . S
C605 C609 1.495 . S
C606 C605 1.392 . S
C606 C607 1.385 . S
C606 C608 1.478 . S
C607 H601 0.930 . S
C607 C603 1.400 . S
C607 C606 1.385 . S
C608 C606 1.478 . S
C608 C610 1.381 . S
C608 C614 1.383 . S
C609 C605 1.495 . S
C609 H615 0.959 . S
C609 H616 0.961 . S
C609 H617 0.960 . S
C610 C608 1.381 . S
C610 C611 1.394 . S
C610 H618 0.930 . S
C611 C610 1.394 . S
C611 C612 1.383 . S
C611 H619 0.929 . S
C612 C611 1.383 . S
C612 C613 1.377 . S
C613 H597 0.930 . S
C613 C612 1.377 . S
C613 C614 1.379 . S
C614 H598 0.931 . S
C614 C608 1.383 . S
C614 C613 1.379 . S
H615 C609 0.959 . S
H616 C609 0.961 . S
H617 C609 0.960 . S
H618 C610 0.930 . S
H619 C611 0.929 . S
H620 C628 0.929 . S
H621 C630 0.930 . S
H622 C632 0.930 . S
H623 C635 0.929 . S
H624 C638 0.930 . S
H625 C640 0.961 1_545 S
H626 C640 0.960 . S
H627 C640 0.960 . S
C628 H620 0.929 . S
C628 C629 1.377 . S
C628 C630 1.384 . S
C629 C628 1.377 . S
C629 C635 1.390 . S
C630 H621 0.930 . S
C630 C628 1.384 . S
C630 C631 1.372 . S
C631 C630 1.372 . S
C631 C632 1.400 . S
C631 C636 1.490 . S
C632 H622 0.930 . S
C632 C631 1.400 . S
C632 C635 1.386 . S
H633 C649 0.930 . S
H634 C650 0.931 . S
C635 H623 0.929 . S
C635 C629 1.390 . S
C635 C632 1.386 . S
C636 C631 1.490 . S
C636 C638 1.395 . S
C636 C639 1.403 . S
H637 C643 0.930 . S
C638 H624 0.930 . S
C638 C636 1.395 . S
C638 C641 1.403 . S
C639 C636 1.403 . S
C639 C640 1.524 . S
C639 C643 1.400 . S
C640 H625 0.961 1_565 S
C640 H626 0.960 . S
C640 H627 0.960 . S
C640 C639 1.524 . S
C641 C638 1.403 . S
C641 C642 1.392 . S
C641 C645 1.495 . S
C642 C641 1.392 . S
C642 C643 1.385 . S
C642 C644 1.478 . S
C643 H637 0.930 . S
C643 C639 1.400 . S
C643 C642 1.385 . S
C644 C642 1.478 . S
C644 C646 1.381 1_655 S
C644 C650 1.383 . S
C645 C641 1.495 . S
C645 H651 0.959 . S
C645 H652 0.961 . S
C645 H653 0.992 . S
C646 C644 1.381 1_455 S
C646 C647 1.394 . S
C646 H654 0.930 . S
C647 C646 1.394 . S
C647 C648 1.383 1_455 S
C647 H655 0.929 . S
C648 C647 1.383 1_655 S
C648 C649 1.377 . S
C649 H633 0.930 . S
C649 C648 1.377 . S
C649 C650 1.379 . S
C650 H634 0.931 . S
C650 C644 1.383 . S
C650 C649 1.379 . S
H651 C645 0.959 . S
H652 C645 0.961 . S
H653 C645 0.992 . S
H654 C646 0.930 . S
H655 C647 0.929 . S
H656 C664 0.929 . S
H657 C666 0.930 . S
H658 C668 0.930 . S
H659 C671 0.929 . S
H660 C674 0.930 . S
H661 C676 0.960 . S
H662 C676 0.960 . S
H663 C676 0.960 . S
C664 H656 0.929 . S
C664 C665 1.377 . S
C664 C666 1.384 . S
C665 C664 1.377 . S
C665 C671 1.390 . S
C666 H657 0.930 . S
C666 C664 1.384 . S
C666 C667 1.372 . S
C667 C666 1.372 . S
C667 C668 1.400 . S
C667 C672 1.490 . S
C668 H658 0.930 . S
C668 C667 1.400 . S
C668 C671 1.386 . S
H669 C685 0.930 . S
H670 C686 0.931 . S
C671 H659 0.929 . S
C671 C665 1.390 . S
C671 C668 1.386 . S
C672 C667 1.490 . S
C672 C674 1.395 . S
C672 C675 1.403 . S
H673 C679 0.930 . S
C674 H660 0.930 . S
C674 C672 1.395 . S
C674 C677 1.403 . S
C675 C672 1.403 . S
C675 C676 1.524 . S
C675 C679 1.400 . S
C676 H661 0.960 . S
C676 H662 0.960 . S
C676 H663 0.960 . S
C676 C675 1.524 . S
C677 C674 1.403 . S
C677 C678 1.392 . S
C677 C681 1.495 . S
C678 C677 1.392 . S
C678 C679 1.385 . S
C678 C680 1.478 . S
C679 H673 0.930 . S
C679 C675 1.400 . S
C679 C678 1.385 . S
C680 C678 1.478 . S
C680 C682 1.381 . S
C680 C686 1.383 . S
C681 C677 1.495 . S
C681 H687 0.959 . S
C681 H688 0.961 . S
C681 H689 0.960 . S
C682 C680 1.381 . S
C682 C683 1.394 . S
C682 H690 0.930 . S
C683 C682 1.394 . S
C683 C684 1.383 . S
C683 H691 0.929 . S
C684 C683 1.383 . S
C684 C685 1.377 . S
C685 H669 0.930 . S
C685 C684 1.377 . S
C685 C686 1.379 . S
C686 H670 0.931 . S
C686 C680 1.383 . S
C686 C685 1.379 . S
H687 C681 0.959 . S
H688 C681 0.961 . S
H689 C681 0.960 . S
H690 C682 0.930 . S
H691 C683 0.929 . S
H692 C700 0.929 . S
H693 C702 0.930 . S
H694 C704 0.930 . S
H695 C707 0.929 . S
H696 C710 0.930 . S
H697 C712 0.960 . S
H698 C712 0.960 . S
H699 C712 0.960 . S
C700 H692 0.929 . S
C700 C701 1.377 . S
C700 C702 1.384 . S
C701 C700 1.377 . S
C701 C707 1.390 . S
C702 H693 0.930 . S
C702 C700 1.384 . S
C702 C703 1.372 . S
C703 C702 1.372 . S
C703 C704 1.400 . S
C703 C708 1.490 . S
C704 H694 0.930 . S
C704 C703 1.400 . S
C704 C707 1.386 . S
H705 C721 0.930 . S
H706 C722 0.931 . S
C707 H695 0.929 . S
C707 C701 1.390 . S
C707 C704 1.386 . S
C708 C703 1.490 . S
C708 C710 1.395 . S
C708 C711 1.403 . S
H709 C715 0.930 . S
C710 H696 0.930 . S
C710 C708 1.395 . S
C710 C713 1.403 . S
C711 C708 1.403 . S
C711 C712 1.524 . S
C711 C715 1.400 . S
C712 H697 0.960 . S
C712 H698 0.960 . S
C712 H699 0.960 . S
C712 C711 1.524 . S
C713 C710 1.403 . S
C713 C714 1.392 . S
C713 C717 1.495 . S
C714 C713 1.392 . S
C714 C715 1.385 . S
C714 C716 1.478 . S
C715 H709 0.930 . S
C715 C711 1.400 . S
C715 C714 1.385 . S
C716 C714 1.478 . S
C716 C718 1.381 . S
C716 C722 1.383 . S
C717 C713 1.495 . S
C717 H723 0.959 . S
C717 H724 0.961 . S
C717 H725 0.960 . S
C718 C716 1.381 . S
C718 C719 1.394 . S
C718 H726 0.930 . S
C719 C718 1.394 . S
C719 C720 1.383 . S
C719 H727 0.929 . S
C720 C719 1.383 . S
C720 C721 1.377 . S
C721 H705 0.930 . S
C721 C720 1.377 . S
C721 C722 1.379 . S
C722 H706 0.931 . S
C722 C716 1.383 . S
C722 C721 1.379 . S
H723 C717 0.959 . S
H724 C717 0.961 . S
H725 C717 0.960 . S
H726 C718 0.930 . S
H727 C719 0.929 . S
H728 C736 0.929 . S
H729 C738 0.930 . S
H730 C740 0.930 . S
H731 C743 0.929 . S
H732 C746 0.930 . S
H733 C748 0.960 . S
H734 C748 0.960 . S
H735 C748 0.960 . S
C736 H728 0.929 . S
C736 C737 1.377 . S
C736 C738 1.384 . S
C737 C736 1.377 . S
C737 C743 1.390 . S
C738 H729 0.930 . S
C738 C736 1.384 . S
C738 C739 1.372 . S
C739 C738 1.372 . S
C739 C740 1.400 . S
C739 C744 1.490 . S
C740 H730 0.930 . S
C740 C739 1.400 . S
C740 C743 1.386 . S
H741 C757 0.930 . S
H742 C758 0.931 . S
C743 H731 0.929 . S
C743 C737 1.390 . S
C743 C740 1.386 . S
C744 C739 1.490 . S
C744 C746 1.395 . S
C744 C747 1.403 . S
H745 C751 0.930 . S
C746 H732 0.930 . S
C746 C744 1.395 . S
C746 C749 1.403 . S
C747 C744 1.403 . S
C747 C748 1.524 . S
C747 C751 1.400 . S
C748 H733 0.960 . S
C748 H734 0.960 . S
C748 H735 0.960 . S
C748 C747 1.524 . S
C749 C746 1.403 . S
C749 C750 1.392 . S
C749 C753 1.495 . S
C750 C749 1.392 . S
C750 C751 1.385 . S
C750 C752 1.478 . S
C751 H745 0.930 . S
C751 C747 1.400 . S
C751 C750 1.385 . S
C752 C750 1.478 . S
C752 C754 1.381 . S
C752 C758 1.383 . S
C753 C749 1.495 . S
C753 H759 0.959 . S
C753 H760 0.961 . S
C753 H761 0.960 . S
C754 C752 1.381 . S
C754 C755 1.394 . S
C754 H762 0.930 . S
C755 C754 1.394 . S
C755 C756 1.383 . S
C755 H763 0.929 . S
C756 C755 1.383 . S
C756 C757 1.377 . S
C757 H741 0.930 . S
C757 C756 1.377 . S
C757 C758 1.379 . S
C758 H742 0.931 . S
C758 C752 1.383 . S
C758 C757 1.379 . S
H759 C753 0.959 . S
H760 C753 0.961 . S
H761 C753 0.960 . S
H762 C754 0.930 . S
H763 C755 0.929 . S
H764 C772 0.929 . S
H765 C774 0.930 . S
H766 C776 0.930 . S
H767 C779 0.929 . S
H768 C782 0.930 . S
H769 C784 0.960 . S
H770 C784 0.960 . S
H771 C784 0.960 . S
C772 H764 0.929 . S
C772 C773 1.377 . S
C772 C774 1.384 . S
C773 C772 1.377 . S
C773 C779 1.390 . S
C774 H765 0.930 . S
C774 C772 1.384 . S
C774 C775 1.372 . S
C775 C774 1.372 . S
C775 C776 1.400 . S
C775 C780 1.490 . S
C776 H766 0.930 . S
C776 C775 1.400 . S
C776 C779 1.386 . S
H777 C793 0.930 1_554 S
H778 C794 0.931 . S
C779 H767 0.929 . S
C779 C773 1.390 . S
C779 C776 1.386 . S
C780 C775 1.490 . S
C780 C782 1.395 . S
C780 C783 1.403 . S
H781 C787 0.930 . S
C782 H768 0.930 . S
C782 C780 1.395 . S
C782 C785 1.403 . S
C783 C780 1.403 . S
C783 C784 1.524 . S
C783 C787 1.400 . S
C784 H769 0.960 . S
C784 H770 0.960 . S
C784 H771 0.960 . S
C784 C783 1.524 . S
C785 C782 1.403 . S
C785 C786 1.392 . S
C785 C789 1.495 . S
C786 C785 1.392 . S
C786 C787 1.385 . S
C786 C788 1.478 . S
C787 H781 0.930 . S
C787 C783 1.400 . S
C787 C786 1.385 . S
C788 C786 1.478 . S
C788 C790 1.381 . S
C788 C794 1.383 . S
C789 C785 1.495 . S
C789 H795 0.959 . S
C789 H796 0.961 . S
C789 H797 0.960 . S
C790 C788 1.381 . S
C790 C791 1.394 . S
C790 H798 0.930 . S
C791 C790 1.394 . S
C791 C792 1.383 . S
C791 H799 0.929 . S
C792 C791 1.383 . S
C792 C793 1.377 . S
C793 H777 0.930 1_556 S
C793 C792 1.377 . S
C793 C794 1.379 . S
C794 H778 0.931 . S
C794 C788 1.383 . S
C794 C793 1.379 . S
H795 C789 0.959 . S
H796 C789 0.961 . S
H797 C789 0.960 . S
H798 C790 0.930 . S
H799 C791 0.929 . S
H800 C808 0.929 . S
H801 C810 0.930 . S
H802 C812 0.930 . S
H803 C815 0.929 . S
H804 C818 0.930 . S
H805 C820 0.960 . S
H806 C820 0.960 . S
H807 C820 0.960 . S
C808 H800 0.929 . S
C808 C809 1.377 . S
C808 C810 1.384 . S
C809 C808 1.377 . S
C809 C815 1.390 . S
C810 H801 0.930 . S
C810 C808 1.384 . S
C810 C811 1.372 . S
C811 C810 1.372 . S
C811 C812 1.400 . S
C811 C816 1.490 . S
C812 H802 0.930 . S
C812 C811 1.400 . S
C812 C815 1.386 . S
H813 C829 0.930 . S
H814 C830 0.931 . S
C815 H803 0.929 . S
C815 C809 1.390 . S
C815 C812 1.386 . S
C816 C811 1.490 . S
C816 C818 1.395 . S
C816 C819 1.403 . S
H817 C823 0.930 . S
C818 H804 0.930 . S
C818 C816 1.395 . S
C818 C821 1.403 . S
C819 C816 1.403 . S
C819 C820 1.524 . S
C819 C823 1.400 . S
C820 H805 0.960 . S
C820 H806 0.960 . S
C820 H807 0.960 . S
C820 C819 1.524 . S
C821 C818 1.403 . S
C821 C822 1.392 . S
C821 C825 1.495 . S
C822 C821 1.392 . S
C822 C823 1.385 . S
C822 C824 1.478 . S
C823 H817 0.930 . S
C823 C819 1.400 . S
C823 C822 1.385 . S
C824 C822 1.478 . S
C824 C826 1.381 . S
C824 C830 1.383 . S
C825 C821 1.495 . S
C825 H831 0.959 . S
C825 H832 0.961 . S
C825 H833 0.960 . S
C826 C824 1.381 . S
C826 C827 1.394 . S
C826 H834 0.930 . S
C827 C826 1.394 . S
C827 C828 1.383 . S
C827 H835 0.929 . S
C828 C827 1.383 . S
C828 C829 1.377 . S
C829 H813 0.930 . S
C829 C828 1.377 . S
C829 C830 1.379 . S
C830 H814 0.931 . S
C830 C824 1.383 . S
C830 C829 1.379 . S
H831 C825 0.959 . S
H832 C825 0.961 . S
H833 C825 0.960 . S
H834 C826 0.930 . S
H835 C827 0.929 . S
H836 C844 0.929 . S
H837 C846 0.930 . S
H838 C848 0.930 . S
H839 C851 0.929 . S
H840 C854 0.930 . S
H841 C856 0.960 . S
H842 C856 0.960 . S
H843 C856 0.960 . S
C844 H836 0.929 . S
C844 C845 1.377 . S
C844 C846 1.384 . S
C845 C844 1.377 . S
C845 C851 1.390 . S
C846 H837 0.930 . S
C846 C844 1.384 . S
C846 C847 1.372 . S
C847 C846 1.372 . S
C847 C848 1.400 . S
C847 C852 1.490 . S
C848 H838 0.930 . S
C848 C847 1.400 . S
C848 C851 1.386 . S
H849 C865 0.930 . S
H850 C866 0.931 . S
C851 H839 0.929 . S
C851 C845 1.390 . S
C851 C848 1.386 . S
C852 C847 1.490 . S
C852 C854 1.395 . S
C852 C855 1.403 . S
H853 C859 0.930 . S
C854 H840 0.930 . S
C854 C852 1.395 . S
C854 C857 1.403 . S
C855 C852 1.403 . S
C855 C856 1.524 . S
C855 C859 1.400 . S
C856 H841 0.960 . S
C856 H842 0.960 . S
C856 H843 0.960 . S
C856 C855 1.524 . S
C857 C854 1.403 . S
C857 C858 1.392 . S
C857 C861 1.495 . S
C858 C857 1.392 . S
C858 C859 1.385 . S
C858 C860 1.478 . S
C859 H853 0.930 . S
C859 C855 1.400 . S
C859 C858 1.385 . S
C860 C858 1.478 . S
C860 C862 1.381 . S
C860 C866 1.383 . S
C861 C857 1.495 . S
C861 H867 0.959 . S
C861 H868 0.961 . S
C861 H869 0.960 . S
C862 C860 1.381 . S
C862 C863 1.394 . S
C862 H870 0.930 . S
C863 C862 1.394 . S
C863 C864 1.383 . S
C863 H871 0.929 . S
C864 C863 1.383 . S
C864 C865 1.377 . S
C865 H849 0.930 . S
C865 C864 1.377 . S
C865 C866 1.379 . S
C866 H850 0.931 . S
C866 C860 1.383 . S
C866 C865 1.379 . S
H867 C861 0.959 . S
H868 C861 0.961 . S
H869 C861 0.960 . S
H870 C862 0.930 . S
H871 C863 0.929 . S
H872 C880 0.929 . S
H873 C882 0.930 . S
H874 C884 0.930 . S
H875 C887 0.929 . S
H876 C890 0.930 . S
H877 C892 0.960 . S
H878 C892 0.960 . S
H879 C892 0.960 . S
C880 H872 0.929 . S
C880 C881 1.377 . S
C880 C882 1.384 . S
C881 C880 1.377 . S
C881 C887 1.390 . S
C882 H873 0.930 . S
C882 C880 1.384 . S
C882 C883 1.372 . S
C883 C882 1.372 . S
C883 C884 1.400 . S
C883 C888 1.490 . S
C884 H874 0.930 . S
C884 C883 1.400 . S
C884 C887 1.386 . S
H885 C901 0.930 . S
H886 C902 0.931 . S
C887 H875 0.929 . S
C887 C881 1.390 . S
C887 C884 1.386 . S
C888 C883 1.490 . S
C888 C890 1.395 . S
C888 C891 1.403 . S
H889 C895 0.930 . S
C890 H876 0.930 . S
C890 C888 1.395 . S
C890 C893 1.403 . S
C891 C888 1.403 . S
C891 C892 1.524 . S
C891 C895 1.400 . S
C892 H877 0.960 . S
C892 H878 0.960 . S
C892 H879 0.960 . S
C892 C891 1.524 . S
C893 C890 1.403 . S
C893 C894 1.392 . S
C893 C897 1.495 . S
C894 C893 1.392 . S
C894 C895 1.385 . S
C894 C896 1.478 . S
C895 H889 0.930 . S
C895 C891 1.400 . S
C895 C894 1.385 . S
C896 C894 1.478 . S
C896 C898 1.381 . S
C896 C902 1.383 . S
C897 C893 1.495 . S
C897 H903 0.959 . S
C897 H904 0.961 . S
C897 H905 0.960 . S
C898 C896 1.381 . S
C898 C899 1.394 . S
C898 H906 0.930 . S
C899 C898 1.394 . S
C899 C900 1.383 . S
C899 H907 0.929 . S
C900 C899 1.383 . S
C900 C901 1.377 . S
C901 H885 0.930 . S
C901 C900 1.377 . S
C901 C902 1.379 . S
C902 H886 0.931 . S
C902 C896 1.383 . S
C902 C901 1.379 . S
H903 C897 0.959 . S
H904 C897 0.961 . S
H905 C897 0.960 . S
H906 C898 0.930 . S
H907 C899 0.929 . S
H908 C916 0.929 . S
H909 C918 0.930 . S
H910 C920 0.930 . S
H911 C923 0.929 . S
H912 C926 0.930 . S
H913 C928 0.960 . S
H914 C928 0.960 . S
H915 C928 0.960 . S
C916 H908 0.929 . S
C916 C917 1.377 . S
C916 C918 1.384 . S
C917 C916 1.377 . S
C917 C923 1.390 . S
C918 H909 0.930 . S
C918 C916 1.384 . S
C918 C919 1.372 . S
C919 C918 1.372 . S
C919 C920 1.400 . S
C919 C924 1.490 . S
C920 H910 0.930 . S
C920 C919 1.400 . S
C920 C923 1.386 . S
H921 C937 0.927 1_554 S
H922 C938 0.931 . S
C923 H911 0.929 . S
C923 C917 1.390 . S
C923 C920 1.386 . S
C924 C919 1.490 . S
C924 C926 1.395 . S
C924 C927 1.403 . S
H925 C931 0.930 . S
C926 H912 0.930 . S
C926 C924 1.395 . S
C926 C929 1.403 . S
C927 C924 1.403 . S
C927 C928 1.524 . S
C927 C931 1.400 . S
C928 H913 0.960 . S
C928 H914 0.960 . S
C928 H915 0.960 . S
C928 C927 1.524 . S
C929 C926 1.403 . S
C929 C930 1.392 . S
C929 C933 1.495 1_656 S
C930 C929 1.392 . S
C930 C931 1.385 . S
C930 C932 1.478 . S
C931 H925 0.930 . S
C931 C927 1.400 . S
C931 C930 1.385 . S
C932 C930 1.478 . S
C932 C934 1.381 1_655 S
C932 C938 1.383 . S
C933 C929 1.495 1_454 S
C933 H939 0.959 . S
C933 H940 0.967 . S
C933 H941 0.960 . S
C934 C932 1.381 1_455 S
C934 C935 1.394 . S
C934 H942 0.930 . S
C935 C934 1.394 . S
C935 C936 1.383 . S
C935 H943 0.929 . S
C936 C935 1.383 . S
C936 C937 1.378 1_455 S
C937 H921 0.927 1_556 S
C937 C936 1.378 1_655 S
C937 C938 1.381 . S
C938 H922 0.931 . S
C938 C932 1.383 . S
C938 C937 1.381 . S
H939 C933 0.959 . S
H940 C933 0.967 . S
H941 C933 0.960 . S
H942 C934 0.930 . S
H943 C935 0.929 . S
H944 C952 0.929 . S
H945 C954 0.930 . S
H946 C956 0.930 . S
H947 C959 0.929 . S
H948 C962 0.930 . S
H949 C964 0.960 . S
H950 C964 0.960 . S
H951 C964 0.960 . S
C952 H944 0.929 . S
C952 C953 1.377 . S
C952 C954 1.384 . S
C953 C952 1.377 . S
C953 C959 1.390 . S
C954 H945 0.930 . S
C954 C952 1.384 . S
C954 C955 1.372 . S
C955 C954 1.372 . S
C955 C956 1.400 . S
C955 C960 1.490 . S
C956 H946 0.930 . S
C956 C955 1.400 . S
C956 C959 1.386 . S
H957 C973 0.930 . S
H958 C974 0.931 . S
C959 H947 0.929 . S
C959 C953 1.390 . S
C959 C956 1.386 . S
C960 C955 1.490 . S
C960 C962 1.395 . S
C960 C963 1.403 . S
H961 C967 0.930 . S
C962 H948 0.930 . S
C962 C960 1.395 . S
C962 C965 1.403 . S
C963 C960 1.403 . S
C963 C964 1.524 . S
C963 C967 1.400 . S
C964 H949 0.960 . S
C964 H950 0.960 . S
C964 H951 0.960 . S
C964 C963 1.524 . S
C965 C962 1.403 . S
C965 C966 1.392 . S
C965 C969 1.495 . S
C966 C965 1.392 . S
C966 C967 1.385 . S
C966 C968 1.478 . S
C967 H961 0.930 . S
C967 C963 1.400 . S
C967 C966 1.385 . S
C968 C966 1.478 . S
C968 C970 1.381 . S
C968 C974 1.383 . S
C969 C965 1.495 . S
C969 H975 0.959 . S
C969 H976 0.961 . S
C969 H977 0.960 . S
C970 C968 1.381 . S
C970 C971 1.394 . S
C970 H978 0.930 . S
C971 C970 1.394 . S
C971 C972 1.383 . S
C971 H979 0.929 . S
C972 C971 1.383 . S
C972 C973 1.377 . S
C973 H957 0.930 . S
C973 C972 1.377 . S
C973 C974 1.379 . S
C974 H958 0.931 . S
C974 C968 1.383 . S
C974 C973 1.379 . S
H975 C969 0.959 . S
H976 C969 0.961 . S
H977 C969 0.960 . S
H978 C970 0.930 . S
H979 C971 0.929 . S
H980 C988 0.929 . S
H981 C990 0.930 . S
H982 C992 0.930 . S
H983 C995 0.929 . S
H984 C998 0.930 . S
H985 C1000 0.960 . S
H986 C1000 0.960 . S
H987 C1000 0.960 . S
C988 H980 0.929 . S
C988 C989 1.377 . S
C988 C990 1.384 . S
C989 C988 1.377 . S
C989 C995 1.390 . S
C990 H981 0.930 . S
C990 C988 1.384 . S
C990 C991 1.372 . S
C991 C990 1.372 . S
C991 C992 1.400 . S
C991 C996 1.490 . S
C992 H982 0.930 . S
C992 C991 1.400 . S
C992 C995 1.386 . S
H993 C1009 0.930 . S
H994 C1010 0.931 . S
C995 H983 0.929 . S
C995 C989 1.390 . S
C995 C992 1.386 . S
C996 C991 1.490 . S
C996 C998 1.395 . S
C996 C999 1.403 . S
H997 C1003 0.930 . S
C998 H984 0.930 . S
C998 C996 1.395 . S
C998 C1001 1.403 . S
C999 C996 1.403 . S
C999 C1000 1.524 . S
C999 C1003 1.400 . S
C1000 H985 0.960 . S
C1000 H986 0.960 . S
C1000 H987 0.960 . S
C1000 C999 1.524 . S
C1001 C998 1.403 . S
C1001 C1002 1.392 . S
C1001 C1005 1.495 . S
C1002 C1001 1.392 . S
C1002 C1003 1.385 . S
C1002 C1004 1.478 . S
C1003 H997 0.930 . S
C1003 C999 1.400 . S
C1003 C1002 1.385 . S
C1004 C1002 1.478 . S
C1004 C1006 1.381 . S
C1004 C1010 1.383 . S
C1005 C1001 1.495 . S
C1005 H1011 0.959 . S
C1005 H1012 0.961 . S
C1005 H1013 0.960 . S
C1006 C1004 1.381 . S
C1006 C1007 1.394 . S
C1006 H1014 0.930 . S
C1007 C1006 1.394 . S
C1007 C1008 1.383 . S
C1007 H1015 0.929 . S
C1008 C1007 1.383 . S
C1008 C1009 1.377 . S
C1009 H993 0.930 . S
C1009 C1008 1.377 . S
C1009 C1010 1.379 . S
C1010 H994 0.931 . S
C1010 C1004 1.383 . S
C1010 C1009 1.379 . S
H1011 C1005 0.959 . S
H1012 C1005 0.961 . S
H1013 C1005 0.960 . S
H1014 C1006 0.930 . S
H1015 C1007 0.929 . S
H1016 C1024 0.929 . S
H1017 C1026 0.930 . S
H1018 C1028 0.930 . S
H1019 C1031 0.929 . S
H1020 C1034 0.930 . S
H1021 C1036 0.960 . S
H1022 C1036 0.960 . S
H1023 C1036 0.960 . S
C1024 H1016 0.929 . S
C1024 C1025 1.377 . S
C1024 C1026 1.384 . S
C1025 C1024 1.377 . S
C1025 C1031 1.390 . S
C1026 H1017 0.930 . S
C1026 C1024 1.384 . S
C1026 C1027 1.372 . S
C1027 C1026 1.372 . S
C1027 C1028 1.400 . S
C1027 C1032 1.490 . S
C1028 H1018 0.930 . S
C1028 C1027 1.400 . S
C1028 C1031 1.386 . S
H1029 C1045 0.930 . S
H1030 C1046 0.931 . S
C1031 H1019 0.929 . S
C1031 C1025 1.390 . S
C1031 C1028 1.386 . S
C1032 C1027 1.490 . S
C1032 C1034 1.395 . S
C1032 C1035 1.403 . S
H1033 C1039 0.930 . S
C1034 H1020 0.930 . S
C1034 C1032 1.395 . S
C1034 C1037 1.403 . S
C1035 C1032 1.403 . S
C1035 C1036 1.524 . S
C1035 C1039 1.400 . S
C1036 H1021 0.960 . S
C1036 H1022 0.960 . S
C1036 H1023 0.960 . S
C1036 C1035 1.524 . S
C1037 C1034 1.403 . S
C1037 C1038 1.392 . S
C1037 C1041 1.495 . S
C1038 C1037 1.392 . S
C1038 C1039 1.385 . S
C1038 C1040 1.478 . S
C1039 H1033 0.930 . S
C1039 C1035 1.400 . S
C1039 C1038 1.385 . S
C1040 C1038 1.478 . S
C1040 C1042 1.381 . S
C1040 C1046 1.383 . S
C1041 C1037 1.495 . S
C1041 H1047 0.959 . S
C1041 H1048 0.961 . S
C1041 H1049 0.960 . S
C1042 C1040 1.381 . S
C1042 C1043 1.394 . S
C1042 H1050 0.930 . S
C1043 C1042 1.394 . S
C1043 C1044 1.383 . S
C1043 H1051 0.929 . S
C1044 C1043 1.383 . S
C1044 C1045 1.377 . S
C1045 H1029 0.930 . S
C1045 C1044 1.377 . S
C1045 C1046 1.379 . S
C1046 H1030 0.931 . S
C1046 C1040 1.383 . S
C1046 C1045 1.379 . S
H1047 C1041 0.959 . S
H1048 C1041 0.961 . S
H1049 C1041 0.960 . S
H1050 C1042 0.930 . S
H1051 C1043 0.929 . S
C197 C9 2.079 . S
C216 C120 2.044 . S
C233 C21 1.474 . S
C252 C142 1.411 . S
C288 C161 0.918 . S
C269 C30 1.081 . S
C305 C43 1.429 . S
C324 C182 1.265 1_655 S
C360 C139 1.689 . S
C341 C4 1.703 . S
C396 C117 2.211 . S
C377 C22 2.274 . S
C432 C184 0.872 . S
C413 C34 0.962 . S
C468 C163 1.112 . S
C449 C48 1.180 . S
C485 C8 1.837 . S
C504 C181 1.786 . S
C540 C140 1.314 . S
C521 C35 1.617 . S
C557 C47 1.729 . S
C576 C122 1.493 . S
C593 C17 1.295 . S
C612 C160 1.278 . S
C648 C118 1.626 1_655 S
C629 C60 1.669 . S
C665 C74 1.611 . S
C684 C138 1.575 . S
C701 C82 0.903 . S
C720 C164 0.841 . S
C737 C100 1.955 . S
C756 C185 1.642 . S
C773 C61 2.147 . S
C792 C141 2.064 . S
C828 C121 1.758 . S
C809 C73 1.834 . S
C864 C180 1.246 . S
C845 C87 1.319 . S
C900 C159 1.048 . S
C881 C95 1.039 . S
C917 C56 1.586 . S
C936 C183 1.620 . S
C972 C143 1.361 . S
C953 C86 1.560 . S
C1008 C119 1.222 . S
C989 C99 1.400 . S
C1025 C69 1.269 . S
C1044 C162 1.308 . S
