# Generated by pormake.
# Topology ssb, (4,4)-cn, num edge types: 1
# Building blocks:
#     Node 0, Type 0, BuildingBlock: KUFVIS_clean_linker_0, # of connection points: 4
#     Node 1, Type 0, BuildingBlock: KUFVIS_clean_linker_0, # of connection points: 4
#     Node 2, Type 0, BuildingBlock: KUFVIS_clean_linker_0, # of connection points: 4
#     Node 3, Type 0, BuildingBlock: KUFVIS_clean_linker_0, # of connection points: 4
#     Node 4, Type 0, BuildingBlock: KUFVIS_clean_linker_0, # of connection points: 4
#     Node 5, Type 0, BuildingBlock: KUFVIS_clean_linker_0, # of connection points: 4
#     Node 6, Type 0, BuildingBlock: KUFVIS_clean_linker_0, # of connection points: 4
#     Node 7, Type 0, BuildingBlock: KUFVIS_clean_linker_0, # of connection points: 4
#     Node 8, Type 1, BuildingBlock: KOZSID_clean_sbu_0, # of connection points: 4
#     Node 9, Type 1, BuildingBlock: KOZSID_clean_sbu_0, # of connection points: 4
#     Node 10, Type 1, BuildingBlock: KOZSID_clean_sbu_0, # of connection points: 4
#     Node 11, Type 1, BuildingBlock: KOZSID_clean_sbu_0, # of connection points: 4
#     Node 12, Type 1, BuildingBlock: KOZSID_clean_sbu_0, # of connection points: 4
#     Node 13, Type 1, BuildingBlock: KOZSID_clean_sbu_0, # of connection points: 4
#     Node 14, Type 1, BuildingBlock: KOZSID_clean_sbu_0, # of connection points: 4
#     Node 15, Type 1, BuildingBlock: KOZSID_clean_sbu_0, # of connection points: 4
#     Edge 16, Type (0, 1), BuildingBlock: MIFKUJ_clean_linker_0, # of connection points: 2
#     Edge 17, Type (0, 1), BuildingBlock: MIFKUJ_clean_linker_0, # of connection points: 2
#     Edge 18, Type (0, 1), BuildingBlock: MIFKUJ_clean_linker_0, # of connection points: 2
#     Edge 19, Type (0, 1), BuildingBlock: MIFKUJ_clean_linker_0, # of connection points: 2
#     Edge 20, Type (0, 1), BuildingBlock: MIFKUJ_clean_linker_0, # of connection points: 2
#     Edge 21, Type (0, 1), BuildingBlock: MIFKUJ_clean_linker_0, # of connection points: 2
#     Edge 22, Type (0, 1), BuildingBlock: MIFKUJ_clean_linker_0, # of connection points: 2
#     Edge 23, Type (0, 1), BuildingBlock: MIFKUJ_clean_linker_0, # of connection points: 2
#     Edge 24, Type (0, 1), BuildingBlock: MIFKUJ_clean_linker_0, # of connection points: 2
#     Edge 25, Type (0, 1), BuildingBlock: MIFKUJ_clean_linker_0, # of connection points: 2
#     Edge 26, Type (0, 1), BuildingBlock: MIFKUJ_clean_linker_0, # of connection points: 2
#     Edge 27, Type (0, 1), BuildingBlock: MIFKUJ_clean_linker_0, # of connection points: 2
#     Edge 28, Type (0, 1), BuildingBlock: MIFKUJ_clean_linker_0, # of connection points: 2
#     Edge 29, Type (0, 1), BuildingBlock: MIFKUJ_clean_linker_0, # of connection points: 2
#     Edge 30, Type (0, 1), BuildingBlock: MIFKUJ_clean_linker_0, # of connection points: 2
#     Edge 31, Type (0, 1), BuildingBlock: MIFKUJ_clean_linker_0, # of connection points: 2
#     Edge 32, Type (0, 1), BuildingBlock: MIFKUJ_clean_linker_0, # of connection points: 2
#     Edge 33, Type (0, 1), BuildingBlock: MIFKUJ_clean_linker_0, # of connection points: 2
#     Edge 34, Type (0, 1), BuildingBlock: MIFKUJ_clean_linker_0, # of connection points: 2
#     Edge 35, Type (0, 1), BuildingBlock: MIFKUJ_clean_linker_0, # of connection points: 2
#     Edge 36, Type (0, 1), BuildingBlock: MIFKUJ_clean_linker_0, # of connection points: 2
#     Edge 37, Type (0, 1), BuildingBlock: MIFKUJ_clean_linker_0, # of connection points: 2
#     Edge 38, Type (0, 1), BuildingBlock: MIFKUJ_clean_linker_0, # of connection points: 2
#     Edge 39, Type (0, 1), BuildingBlock: MIFKUJ_clean_linker_0, # of connection points: 2
#     Edge 40, Type (0, 1), BuildingBlock: MIFKUJ_clean_linker_0, # of connection points: 2
#     Edge 41, Type (0, 1), BuildingBlock: MIFKUJ_clean_linker_0, # of connection points: 2
#     Edge 42, Type (0, 1), BuildingBlock: MIFKUJ_clean_linker_0, # of connection points: 2
#     Edge 43, Type (0, 1), BuildingBlock: MIFKUJ_clean_linker_0, # of connection points: 2
#     Edge 44, Type (0, 1), BuildingBlock: MIFKUJ_clean_linker_0, # of connection points: 2
#     Edge 45, Type (0, 1), BuildingBlock: MIFKUJ_clean_linker_0, # of connection points: 2
#     Edge 46, Type (0, 1), BuildingBlock: MIFKUJ_clean_linker_0, # of connection points: 2
#     Edge 47, Type (0, 1), BuildingBlock: MIFKUJ_clean_linker_0, # of connection points: 2
# Relax obj value: 0.002
# Max RMSD: 0.063
# Mean RMSD: 0.031
data_MOF--net-ssb--node1-KOZSID_clean_sbu_0--node2-KUFVIS_clean_linker_0--edge1-MIFKUJ_clean_linker_0
_symmetry_space_group_name_H-M    P1
_symmetry_Int_Tables_number       1
_symmetry_cell_setting            triclinic
loop_
_symmetry_equiv_pos_as_xyz
'x, y, z'
_cell_length_a     68.966763
_cell_length_b     68.778785
_cell_length_c     50.714157
_cell_angle_alpha  92.002443
_cell_angle_beta   94.022494
_cell_angle_gamma 89.998056
loop_
_atom_site_label
_atom_site_type_symbol
_atom_site_fract_x
_atom_site_fract_y
_atom_site_fract_z
_atom_type_partial_charge
H0 H 0.22836 0.21885 0.34335 0.0
H1 H 0.27105 0.21941 0.28665 0.0
H2 H 0.23304 0.26925 0.29708 0.0
H3 H 0.24139 0.27945 0.26005 0.0
H4 H 0.29149 0.28597 0.21603 0.0
H5 H 0.28933 0.23831 0.26719 0.0
C6 C 0.23537 0.22652 0.32825 0.0
C7 C 0.22883 0.24501 0.3212 0.0
C8 C 0.25077 0.21756 0.31631 0.0
C9 C 0.2596 0.2271 0.29601 0.0
C10 C 0.25352 0.24608 0.28811 0.0
C11 C 0.23794 0.25472 0.30133 0.0
C12 C 0.26368 0.25706 0.26712 0.0
C13 C 0.25554 0.27418 0.25542 0.0
C14 C 0.26582 0.28501 0.23762 0.0
C15 C 0.28383 0.27815 0.23036 0.0
C16 C 0.29199 0.26118 0.24054 0.0
C17 C 0.28209 0.25085 0.25897 0.0
H18 H 0.71718 0.28753 0.21082 0.0
H19 H 0.7726 0.27982 0.25312 0.0
H20 H 0.72372 0.24274 0.26679 0.0
H21 H 0.74639 0.2218 0.27674 0.0
H22 H 0.79403 0.21986 0.33505 0.0
H23 H 0.78266 0.27272 0.29437 0.0
C24 C 0.72636 0.27995 0.22535 0.0
C25 C 0.71872 0.2642 0.23778 0.0
C26 C 0.74572 0.28577 0.23103 0.0
C27 C 0.75748 0.27568 0.24976 0.0
C28 C 0.74998 0.25993 0.2631 0.0
C29 C 0.73031 0.25447 0.25689 0.0
C30 C 0.76265 0.24889 0.28279 0.0
C31 C 0.75829 0.22935 0.28774 0.0
C32 C 0.76933 0.21904 0.30677 0.0
C33 C 0.78547 0.22792 0.32037 0.0
C34 C 0.79049 0.24716 0.31569 0.0
C35 C 0.77903 0.25765 0.29702 0.0
H36 H 0.78538 0.79374 0.32547 0.0
H37 H 0.78053 0.7447 0.27154 0.0
H38 H 0.73157 0.78381 0.27969 0.0
H39 H 0.72188 0.77337 0.24019 0.0
H40 H 0.71402 0.72111 0.19243 0.0
H41 H 0.76056 0.72408 0.25251 0.0
C42 C 0.77676 0.78518 0.31055 0.0
C43 C 0.75777 0.79092 0.30322 0.0
C44 C 0.78455 0.76821 0.29971 0.0
C45 C 0.77354 0.75715 0.28027 0.0
C46 C 0.75427 0.76243 0.27191 0.0
C47 C 0.7464 0.77936 0.28438 0.0
C48 C 0.74286 0.75057 0.25006 0.0
C49 C 0.72645 0.75863 0.23597 0.0
C50 C 0.71604 0.74807 0.21534 0.0
C51 C 0.72204 0.72927 0.20834 0.0
C52 C 0.73827 0.72078 0.22132 0.0
C53 C 0.74851 0.73132 0.24228 0.0
H54 H 0.2172 0.78821 0.31591 0.0
H55 H 0.2697 0.77789 0.27761 0.0
H56 H 0.21977 0.73987 0.2609 0.0
H57 H 0.24202 0.71839 0.25217 0.0
H58 H 0.29055 0.71219 0.20473 0.0
H59 H 0.27757 0.76848 0.23777 0.0
C60 C 0.22526 0.77963 0.30203 0.0
C61 C 0.21654 0.76324 0.28923 0.0
C62 C 0.24428 0.78495 0.29762 0.0
C63 C 0.25476 0.77387 0.27982 0.0
C64 C 0.24634 0.75737 0.26611 0.0
C65 C 0.22699 0.75222 0.27111 0.0
C66 C 0.25817 0.74519 0.2479 0.0
C67 C 0.25396 0.72522 0.24329 0.0
C68 C 0.26548 0.71354 0.22758 0.0
C69 C 0.28175 0.7214 0.21695 0.0
C70 C 0.28631 0.74114 0.22083 0.0
C71 C 0.27421 0.75312 0.23567 0.0
H72 H 0.2863 0.72871 0.82142 0.0
H73 H 0.23414 0.7351 0.77179 0.0
H74 H 0.2837 0.77344 0.7652 0.0
H75 H 0.26474 0.79272 0.74349 0.0
H76 H 0.22011 0.791 0.68065 0.0
H77 H 0.22479 0.74364 0.73286 0.0
C78 C 0.27809 0.73625 0.80585 0.0
C79 C 0.28639 0.75226 0.79478 0.0
C80 C 0.2595 0.7297 0.79715 0.0
C81 C 0.24876 0.74003 0.77737 0.0
C82 C 0.25709 0.75615 0.76491 0.0
C83 C 0.27626 0.76179 0.77404 0.0
C84 C 0.24642 0.76652 0.74199 0.0
C85 C 0.25273 0.78492 0.73323 0.0
C86 C 0.24371 0.79344 0.7105 0.0
C87 C 0.22757 0.78416 0.69745 0.0
C88 C 0.22056 0.76653 0.70591 0.0
C89 C 0.23008 0.7577 0.72778 0.0
H90 H 0.27945 0.29351 0.85992 0.0
H91 H 0.28077 0.24641 0.80267 0.0
H92 H 0.23002 0.28338 0.80563 0.0
H93 H 0.22401 0.27401 0.76443 0.0
H94 H 0.21683 0.2192 0.7222 0.0
H95 H 0.26008 0.22476 0.78651 0.0
C96 C 0.27231 0.28484 0.84381 0.0
C97 C 0.25391 0.29036 0.83333 0.0
C98 C 0.28186 0.26871 0.83323 0.0
C99 C 0.27289 0.25834 0.81124 0.0
C100 C 0.25391 0.26318 0.80084 0.0
C101 C 0.24465 0.27936 0.81235 0.0
C102 C 0.24361 0.25118 0.77869 0.0
C103 C 0.22821 0.25893 0.76224 0.0
C104 C 0.21829 0.24739 0.74214 0.0
C105 C 0.22418 0.22813 0.73789 0.0
C106 C 0.23957 0.22025 0.75346 0.0
C107 C 0.24891 0.2316 0.77402 0.0
H108 H 0.72154 0.28902 0.83295 0.0
H109 H 0.76452 0.28737 0.77657 0.0
H110 H 0.72915 0.23627 0.78749 0.0
H111 H 0.73723 0.22565 0.74897 0.0
H112 H 0.78799 0.21927 0.70545 0.0
H113 H 0.78449 0.26773 0.75954 0.0
C114 C 0.72898 0.2809 0.81796 0.0
C115 C 0.72352 0.26164 0.81131 0.0
C116 C 0.74399 0.28993 0.80598 0.0
C117 C 0.75346 0.27966 0.78605 0.0
C118 C 0.74833 0.26002 0.77837 0.0
C119 C 0.73319 0.25129 0.7916 0.0
C120 C 0.75905 0.2486 0.75746 0.0
C121 C 0.75135 0.23105 0.7448 0.0
C122 C 0.76205 0.22002 0.72668 0.0
C123 C 0.78003 0.22716 0.72011 0.0
C124 C 0.78783 0.24446 0.73151 0.0
C125 C 0.77752 0.25494 0.75027 0.0
H126 H 0.72968 0.7223 0.83219 0.0
H127 H 0.77636 0.72893 0.782 0.0
H128 H 0.72646 0.7673 0.77584 0.0
H129 H 0.7488 0.78806 0.76488 0.0
H130 H 0.78643 0.78973 0.70147 0.0
H131 H 0.77866 0.736 0.73972 0.0
C132 C 0.73617 0.73015 0.81684 0.0
C133 C 0.72643 0.74612 0.80588 0.0
C134 C 0.75395 0.72383 0.80805 0.0
C135 C 0.76221 0.73356 0.78774 0.0
C136 C 0.75266 0.74951 0.77577 0.0
C137 C 0.73442 0.75538 0.78479 0.0
C138 C 0.76209 0.76044 0.75484 0.0
C139 C 0.75814 0.78039 0.75179 0.0
C140 C 0.76663 0.79093 0.7324 0.0
C141 C 0.77975 0.78158 0.71635 0.0
C142 C 0.7845 0.76191 0.7192 0.0
C143 C 0.77545 0.75134 0.73828 0.0
C144 C 0.03601 0.2909 0.5662 0.0
C145 C 0.04321 0.30889 0.57555 0.0
C146 C 0.03287 0.3226 0.56181 0.0
C147 C 0.02008 0.31226 0.54482 0.0
N148 N 0.0214 0.29277 0.54708 0.0
Co149 Co 0.00652 0.27238 0.52468 0.0
N150 N 0.99182 0.29261 0.5038 0.0
C151 C 0.99343 0.31214 0.50734 0.0
C152 C 0.98078 0.32235 0.49105 0.0
C153 C 0.97021 0.30853 0.47644 0.0
C154 C 0.97715 0.29061 0.48461 0.0
N155 N 0.99207 0.25199 0.50181 0.0
C156 C 0.97771 0.25384 0.48237 0.0
C157 C 0.97172 0.23588 0.47136 0.0
C158 C 0.98243 0.22218 0.48463 0.0
C159 C 0.99438 0.23249 0.50281 0.0
N160 N 0.02077 0.25215 0.54608 0.0
C161 C 0.01834 0.23264 0.54354 0.0
C162 C 0.03007 0.22245 0.56107 0.0
C163 C 0.04078 0.23626 0.57555 0.0
C164 C 0.03503 0.25414 0.56583 0.0
N165 N 0.98553 0.27256 0.54983 0.0
C166 C 0.95498 0.27264 0.58443 0.0
C167 C 0.96163 0.25531 0.57302 0.0
C168 C 0.97673 0.25559 0.55601 0.0
C169 C 0.96402 0.28996 0.57823 0.0
C170 C 0.97913 0.28959 0.5611 0.0
N171 N 0.02757 0.27216 0.49956 0.0
C172 C 0.05271 0.25482 0.47737 0.0
C173 C 0.05915 0.27194 0.4668 0.0
C174 C 0.04918 0.28913 0.4723 0.0
C175 C 0.03365 0.28895 0.48875 0.0
C176 C 0.03694 0.25521 0.49327 0.0
H177 H 0.02698 0.30261 0.49271 0.0
H178 H 0.03276 0.24159 0.50045 0.0
H179 H 0.98092 0.24186 0.54794 0.0
H180 H 0.98538 0.30328 0.5572 0.0
C181 C 0.00684 0.32043 0.52634 0.0
C182 C 0.04407 0.27249 0.57534 0.0
C183 C 0.96881 0.27214 0.4743 0.0
C184 C 0.00635 0.22429 0.52282 0.0
H185 H 0.05496 0.31184 0.59043 0.0
H186 H 0.03469 0.33823 0.56366 0.0
H187 H 0.9792 0.33798 0.49022 0.0
H188 H 0.95851 0.31135 0.46174 0.0
H189 H 0.96046 0.233 0.45575 0.0
H190 H 0.98119 0.20653 0.48197 0.0
H191 H 0.03116 0.20683 0.56258 0.0
H192 H 0.05188 0.23347 0.59111 0.0
H193 H 0.95499 0.2415 0.57675 0.0
H194 H 0.95962 0.30379 0.58676 0.0
H195 H 0.05977 0.24107 0.47328 0.0
H196 H 0.05367 0.30277 0.46457 0.0
C197 C 0.71894 0.03609 0.54991 0.0
C198 C 0.70078 0.04336 0.55523 0.0
C199 C 0.68732 0.03133 0.54217 0.0
C200 C 0.69789 0.01751 0.52945 0.0
N201 N 0.71735 0.01996 0.53348 0.0
Co202 Co 0.73784 0.00332 0.51765 0.0
N203 N 0.71788 0.98624 0.49726 0.0
C204 C 0.69835 0.98827 0.4969 0.0
C205 C 0.68824 0.97494 0.48062 0.0
C206 C 0.70211 0.96365 0.46985 0.0
C207 C 0.71999 0.97065 0.4804 0.0
N208 N 0.75835 0.9865 0.50214 0.0
C209 C 0.75675 0.9706 0.48531 0.0
C210 C 0.77486 0.96292 0.48062 0.0
C211 C 0.78833 0.97441 0.49461 0.0
C212 C 0.77779 0.98834 0.5072 0.0
N213 N 0.75782 0.02065 0.53758 0.0
C214 C 0.77737 0.0188 0.53758 0.0
C215 C 0.7875 0.03248 0.55325 0.0
C216 C 0.77365 0.0439 0.5638 0.0
C217 C 0.75573 0.03663 0.55376 0.0
N218 N 0.7377 0.98601 0.54821 0.0
C219 C 0.73786 0.96023 0.59037 0.0
C220 C 0.75491 0.96938 0.58395 0.0
C221 C 0.75454 0.98188 0.56287 0.0
C222 C 0.7206 0.9647 0.57571 0.0
C223 C 0.72082 0.97768 0.55514 0.0
N224 N 0.73799 0.02063 0.48722 0.0
C225 C 0.75565 0.04051 0.45866 0.0
C226 C 0.73832 0.04763 0.44668 0.0
C227 C 0.72083 0.04035 0.4547 0.0
C228 C 0.721 0.02707 0.4749 0.0
C229 C 0.75514 0.027 0.47848 0.0
H230 H 0.70719 0.02245 0.48042 0.0
H231 H 0.76883 0.02219 0.48678 0.0
H232 H 0.76815 0.98788 0.55881 0.0
H233 H 0.70716 0.98054 0.54497 0.0
C234 C 0.68996 1.00278 0.51235 0.0
C235 C 0.73719 0.04531 0.56053 0.0
C236 C 0.73852 0.96205 0.47355 0.0
C237 C 0.78575 0.00355 0.52346 0.0
H238 H 0.69751 0.0562 0.567 0.0
H239 H 0.67166 0.03275 0.54157 0.0
H240 H 0.67264 0.97362 0.47696 0.0
H241 H 0.69932 0.95165 0.45573 0.0
H242 H 0.77805 0.95024 0.46845 0.0
H243 H 0.80398 0.9728 0.4955 0.0
H244 H 0.8031 0.03382 0.55685 0.0
H245 H 0.7765 0.0561 0.57756 0.0
H246 H 0.76863 0.96694 0.59503 0.0
H247 H 0.70696 0.95795 0.57959 0.0
H248 H 0.76964 0.04574 0.45345 0.0
H249 H 0.70698 0.04497 0.44565 0.0
C250 C 0.02956 0.76072 0.54661 0.0
C251 C 0.03531 0.77871 0.55772 0.0
C252 C 0.02409 0.79228 0.54497 0.0
C253 C 0.01215 0.78183 0.52694 0.0
N254 N 0.01489 0.76238 0.52758 0.0
Co255 Co 1.00086 0.74184 0.50448 0.0
N256 N 0.98582 0.76194 0.48376 0.0
C257 C 0.98725 0.7815 0.48734 0.0
C258 C 0.97456 0.7916 0.47102 0.0
C259 C 0.96431 0.77772 0.45614 0.0
C260 C 0.97148 0.7598 0.46411 0.0
N261 N 0.98662 0.72128 0.48167 0.0
C262 C 0.97234 0.72295 0.46207 0.0
C263 C 0.96645 0.70489 0.4513 0.0
C264 C 0.97701 0.69131 0.46498 0.0
C265 C 0.9888 0.70179 0.48313 0.0
N266 N 0.01618 0.72177 0.5249 0.0
C267 C 0.01498 0.70222 0.52123 0.0
C268 C 0.02788 0.69222 0.53743 0.0
C269 C 0.03819 0.7062 0.55211 0.0
C270 C 0.03087 0.724 0.54401 0.0
N271 N 0.97992 0.74101 0.52976 0.0
C272 C 0.94848 0.73962 0.56271 0.0
C273 C 0.95835 0.72271 0.55553 0.0
C274 C 0.9738 0.72371 0.53908 0.0
C275 C 0.95495 0.75727 0.55365 0.0
C276 C 0.97064 0.75765 0.5376 0.0
N277 N 0.02168 0.74266 0.47914 0.0
C278 C 0.04377 0.72617 0.45071 0.0
C279 C 0.05164 0.74386 0.4437 0.0
C280 C 0.04413 0.76094 0.45479 0.0
C281 C 0.02932 0.76002 0.47224 0.0
C282 C 0.02898 0.72591 0.46825 0.0
H283 H 0.02437 0.77357 0.48005 0.0
H284 H 0.02369 0.71195 0.47273 0.0
H285 H 0.98037 0.71024 0.53389 0.0
H286 H 0.97485 0.77161 0.53163 0.0
C287 C 0.99943 0.78992 0.50774 0.0
C288 C 0.03897 0.74258 0.55417 0.0
C289 C 0.96361 0.7412 0.45331 0.0
C290 C 0.00207 0.69374 0.50173 0.0
H291 H 0.04672 0.78171 0.57309 0.0
H292 H 0.02495 0.80792 0.54791 0.0
H293 H 0.97252 0.8072 0.47063 0.0
H294 H 0.95253 0.78059 0.4416 0.0
H295 H 0.95552 0.70181 0.43532 0.0
H296 H 0.97613 0.67565 0.46214 0.0
H297 H 0.02988 0.67662 0.53805 0.0
H298 H 0.05001 0.70359 0.56673 0.0
H299 H 0.95384 0.70867 0.56198 0.0
H300 H 0.94799 0.77081 0.55906 0.0
H301 H 0.04882 0.7125 0.44247 0.0
H302 H 0.04985 0.77504 0.4504 0.0
C303 C 0.28031 0.97537 0.55362 0.0
C304 C 0.29811 0.96685 0.56051 0.0
C305 C 0.31187 0.97735 0.5491 0.0
C306 C 0.30177 0.99164 0.53591 0.0
N307 N 0.28238 0.99103 0.53831 0.0
Co308 Co 0.2624 0.00873 0.52102 0.0
N309 N 0.28272 0.02446 0.50463 0.0
C310 C 0.30218 0.02198 0.50806 0.0
C311 C 0.31264 0.03478 0.49454 0.0
C312 C 0.2991 0.04626 0.48184 0.0
C313 C 0.28101 0.03988 0.48844 0.0
N314 N 0.24233 0.0258 0.50271 0.0
C315 C 0.24425 0.04084 0.48627 0.0
C316 C 0.22628 0.04855 0.47817 0.0
C317 C 0.21258 0.03789 0.4894 0.0
C318 C 0.22284 0.02436 0.50381 0.0
N319 N 0.24213 0.99357 0.53839 0.0
C320 C 0.22279 0.99704 0.5368 0.0
C321 C 0.21242 0.98467 0.55111 0.0
C322 C 0.22593 0.97256 0.56266 0.0
C323 C 0.24386 0.97825 0.5547 0.0
N324 N 0.26449 0.02687 0.55238 0.0
C325 C 0.26737 0.05254 0.59709 0.0
C326 C 0.24962 0.04935 0.58255 0.0
C327 C 0.2485 0.0365 0.56062 0.0
C328 C 0.28366 0.04258 0.58885 0.0
C329 C 0.28194 0.03003 0.56657 0.0
N330 N 0.26037 0.99049 0.48984 0.0
C331 C 0.24154 0.96763 0.46129 0.0
C332 C 0.2582 0.96153 0.44929 0.0
C333 C 0.27578 0.97081 0.45692 0.0
C334 C 0.27654 0.98513 0.47713 0.0
C335 C 0.24291 0.98218 0.48118 0.0
H336 H 0.29047 0.99128 0.48251 0.0
H337 H 0.22971 0.98618 0.48961 0.0
H338 H 0.23451 0.03473 0.5506 0.0
H339 H 0.29495 0.02308 0.56124 0.0
C340 C 0.3101 0.00644 0.52222 0.0
C341 C 0.26197 0.96824 0.56261 0.0
C342 C 0.26268 0.04866 0.47827 0.0
C343 C 0.2147 0.01113 0.52019 0.0
H344 H 0.30087 0.9544 0.5727 0.0
H345 H 0.32742 0.97499 0.55051 0.0
H346 H 0.32825 0.03538 0.4935 0.0
H347 H 0.30225 0.05781 0.46883 0.0
H348 H 0.22331 0.06082 0.46576 0.0
H349 H 0.197 0.04002 0.48772 0.0
H350 H 0.19684 0.98425 0.55254 0.0
H351 H 0.22289 0.96071 0.57525 0.0
H352 H 0.2366 0.05699 0.58767 0.0
H353 H 0.29773 0.04434 0.59956 0.0
H354 H 0.22755 0.96101 0.45559 0.0
H355 H 0.28906 0.96649 0.44813 0.0
C356 C 0.52978 0.78662 0.04678 0.0
C357 C 0.53603 0.80506 0.05554 0.0
C358 C 0.52537 0.81798 0.04077 0.0
C359 C 0.51332 0.80674 0.02386 0.0
N360 N 0.51543 0.7874 0.0271 0.0
Co361 Co 0.50152 0.76587 0.0057 0.0
N362 N 0.48664 0.78491 0.98299 0.0
C363 C 0.48793 0.80455 0.98483 0.0
C364 C 0.47586 0.81378 0.9667 0.0
C365 C 0.46605 0.7992 0.95258 0.0
C366 C 0.47267 0.78183 0.9631 0.0
N367 N 0.48779 0.74432 0.9841 0.0
C368 C 0.47369 0.74507 0.96408 0.0
C369 C 0.46773 0.72658 0.95507 0.0
C370 C 0.47841 0.7137 0.96987 0.0
C371 C 0.49019 0.72497 0.98709 0.0
N372 N 0.51624 0.74684 0.02864 0.0
C373 C 0.51464 0.72722 0.02722 0.0
C374 C 0.52677 0.71801 0.04533 0.0
C375 C 0.5369 0.73261 0.05901 0.0
C376 C 0.53037 0.74992 0.04831 0.0
N377 N 0.48019 0.76645 0.03039 0.0
C378 C 0.44905 0.76706 0.06399 0.0
C379 C 0.45745 0.74954 0.05593 0.0
C380 C 0.47277 0.74956 0.03925 0.0
C381 C 0.45663 0.7843 0.05505 0.0
C382 C 0.47213 0.78367 0.03857 0.0
N383 N 0.52283 0.76527 0.981 0.0
C384 C 0.54752 0.74745 0.9585 0.0
C385 C 0.55399 0.76442 0.94756 0.0
C386 C 0.54442 0.7818 0.95331 0.0
C387 C 0.52913 0.78192 0.97012 0.0
C388 C 0.53195 0.74816 0.97476 0.0
H389 H 0.52279 0.79571 0.97422 0.0
H390 H 0.52763 0.73465 0.98216 0.0
H391 H 0.47824 0.73569 0.03363 0.0
H392 H 0.4773 0.79732 0.03262 0.0
C393 C 0.50046 0.81389 0.00405 0.0
C394 C 0.53851 0.76883 0.05696 0.0
C395 C 0.46491 0.76286 0.95385 0.0
C396 C 0.5026 0.71783 0.00744 0.0
H397 H 0.54739 0.8088 0.07068 0.0
H398 H 0.52658 0.83368 0.04182 0.0
H399 H 0.47424 0.82928 0.9642 0.0
H400 H 0.45511 0.80114 0.93652 0.0
H401 H 0.45651 0.72273 0.9398 0.0
H402 H 0.47732 0.69799 0.96874 0.0
H403 H 0.52842 0.70252 0.04783 0.0
H404 H 0.5481 0.73072 0.07476 0.0
H405 H 0.45199 0.73576 0.06202 0.0
H406 H 0.4508 0.79827 0.06099 0.0
H407 H 0.55435 0.7336 0.95435 0.0
H408 H 0.54903 0.79534 0.94541 0.0
C409 C 0.22633 0.5342 0.06082 0.0
C410 C 0.20991 0.54086 0.07271 0.0
C411 C 0.19426 0.53283 0.05844 0.0
C412 C 0.20196 0.52164 0.03891 0.0
N413 N 0.22162 0.52185 0.03997 0.0
Co414 Co 0.23877 0.50712 0.016 0.0
N415 N 0.21566 0.49557 0.99481 0.0
C416 C 0.19669 0.49905 0.99823 0.0
C417 C 0.18416 0.48859 0.98099 0.0
C418 C 0.19582 0.47755 0.96584 0.0
C419 C 0.21483 0.48196 0.97482 0.0
N420 N 0.2559 0.49228 0.99206 0.0
C421 C 0.25115 0.47893 0.97241 0.0
C422 C 0.26748 0.47155 0.96108 0.0
C423 C 0.28318 0.48036 0.97434 0.0
C424 C 0.27554 0.49254 0.99289 0.0
N425 N 0.2619 0.51869 0.03717 0.0
C426 C 0.28086 0.51567 0.03306 0.0
C427 C 0.29344 0.52619 0.05009 0.0
C428 C 0.28186 0.53668 0.06599 0.0
C429 C 0.26277 0.53181 0.05781 0.0
N430 N 0.23912 0.4845 0.03999 0.0
C431 C 0.23967 0.45225 0.07386 0.0
C432 C 0.2567 0.45911 0.06379 0.0
C433 C 0.25611 0.47507 0.04718 0.0
C434 C 0.22234 0.46193 0.06649 0.0
C435 C 0.22238 0.47775 0.04967 0.0
N436 N 0.23847 0.5298 0.99198 0.0
C437 C 0.25544 0.55228 0.96553 0.0
C438 C 0.23826 0.56222 0.95829 0.0
C439 C 0.22116 0.55552 0.96842 0.0
C440 C 0.22159 0.53951 0.98499 0.0
C441 C 0.25522 0.53636 0.98213 0.0
H442 H 0.20804 0.53527 0.99191 0.0
H443 H 0.26888 0.52967 0.98681 0.0
H444 H 0.26965 0.47954 0.04039 0.0
H445 H 0.20864 0.48425 0.04465 0.0
C446 C 0.19111 0.51106 0.01908 0.0
C447 C 0.24598 0.54058 0.06954 0.0
C448 C 0.23154 0.4721 0.96472 0.0
C449 C 0.28641 0.5035 0.01232 0.0
H450 H 0.20928 0.55069 0.08977 0.0
H451 H 0.17907 0.53502 0.06176 0.0
H452 H 0.16843 0.48853 0.98012 0.0
H453 H 0.19092 0.46707 0.95038 0.0
H454 H 0.26799 0.46061 0.94527 0.0
H455 H 0.29836 0.47778 0.97132 0.0
H456 H 0.30915 0.52653 0.05053 0.0
H457 H 0.28697 0.54701 0.0815 0.0
H458 H 0.27058 0.4524 0.069 0.0
H459 H 0.20866 0.45714 0.07331 0.0
H460 H 0.2692 0.5569 0.9588 0.0
H461 H 0.20735 0.56241 0.96334 0.0
C462 C 0.47657 0.25763 0.98267 0.0
C463 C 0.47029 0.27547 0.97339 0.0
C464 C 0.48146 0.28932 0.98705 0.0
C465 C 0.4939 0.27918 0.00375 0.0
N466 N 0.49151 0.25967 1.00143 0.0
Co467 Co 0.50626 0.23951 0.0223 0.0
N468 N 0.52106 0.25999 0.04468 0.0
C469 C 0.51917 0.27951 0.04296 0.0
C470 C 0.5316 0.28995 0.06028 0.0
C471 C 0.54214 0.27634 0.07391 0.0
C472 C 0.53541 0.25824 0.06419 0.0
N473 N 0.52126 0.21934 0.04284 0.0
C474 C 0.53561 0.22139 0.0625 0.0
C475 C 0.54211 0.20346 0.07127 0.0
C476 C 0.53185 0.18962 0.05627 0.0
C477 C 0.51963 0.1998 0.03937 0.0
N478 N 0.49109 0.21906 1.00032 0.0
C479 C 0.49279 0.19955 1.00208 0.0
C480 C 0.47984 0.18921 0.98529 0.0
C481 C 0.46898 0.20293 0.97229 0.0
C482 C 0.47601 0.2209 0.9819 0.0
N483 N 0.52684 0.23928 0.9964 0.0
C484 C 0.55753 0.23871 0.96205 0.0
C485 C 0.54794 0.22161 0.96765 0.0
C486 C 0.53288 0.2222 0.98483 0.0
C487 C 0.55121 0.25615 0.97349 0.0
C488 C 0.53587 0.25613 0.99019 0.0
N489 N 0.48576 0.23971 0.04816 0.0
C490 C 0.46417 0.22248 0.07504 0.0
C491 C 0.45567 0.23989 0.08346 0.0
C492 C 0.46274 0.25722 0.07404 0.0
C493 C 0.47764 0.25681 0.05664 0.0
C494 C 0.47903 0.22272 0.0576 0.0
H495 H 0.48231 0.27052 0.0502 0.0
H496 H 0.48471 0.20895 0.05184 0.0
H497 H 0.52654 0.20858 0.98867 0.0
H498 H 0.53173 0.26995 0.99797 0.0
C499 C 0.50664 0.28759 0.02349 0.0
C500 C 0.46735 0.23926 0.97379 0.0
C501 C 0.54368 0.23988 0.07335 0.0
C502 C 0.50625 0.19141 0.02035 0.0
H503 H 0.45854 0.2782 0.95869 0.0
H504 H 0.48021 0.30494 0.98562 0.0
H505 H 0.53321 0.3056 0.06223 0.0
H506 H 0.55377 0.27949 0.08886 0.0
H507 H 0.55317 0.20065 0.08687 0.0
H508 H 0.53315 0.17399 0.05754 0.0
H509 H 0.4782 0.17357 0.98321 0.0
H510 H 0.45699 0.20006 0.95774 0.0
H511 H 0.55238 0.20771 0.95937 0.0
H512 H 0.55799 0.26983 0.96945 0.0
H513 H 0.45913 0.20861 0.08143 0.0
H514 H 0.45692 0.27115 0.08022 0.0
C515 C 0.74609 0.53544 0.05344 0.0
C516 C 0.72807 0.54173 0.06087 0.0
C517 C 0.71445 0.53046 0.04675 0.0
C518 C 0.72485 0.51786 0.03171 0.0
N519 N 0.74432 0.52034 0.03537 0.0
Co520 Co 0.76464 0.50458 0.01774 0.0
N521 N 0.74451 0.48916 0.99529 0.0
C522 C 0.72507 0.49195 0.9943 0.0
C523 C 0.71483 0.47959 0.97669 0.0
C524 C 0.72852 0.46816 0.96572 0.0
C525 C 0.74642 0.47414 0.97747 0.0
N526 N 0.78493 0.48814 1.00107 0.0
C527 C 0.78309 0.47274 0.98345 0.0
C528 C 0.80105 0.46488 0.97844 0.0
C529 C 0.8147 0.47565 0.99329 0.0
C530 C 0.80437 0.48935 0.00665 0.0
N531 N 0.78477 0.52068 0.03925 0.0
C532 C 0.80427 0.51914 0.03834 0.0
C533 C 0.81451 0.53275 0.05404 0.0
C534 C 0.80076 0.54383 0.06548 0.0
C535 C 0.78282 0.53624 0.05621 0.0
N536 N 0.76411 0.48545 0.04609 0.0
C537 C 0.76424 0.45551 0.08255 0.0
C538 C 0.78115 0.46592 0.07896 0.0
C539 C 0.78077 0.4807 0.06077 0.0
C540 C 0.74706 0.4609 0.06847 0.0
C541 C 0.74728 0.47591 0.05066 0.0
N542 N 0.76529 0.52367 0.98935 0.0
C543 C 0.78338 0.54182 0.95923 0.0
C544 C 0.76697 0.55271 0.95191 0.0
C545 C 0.74955 0.54848 0.9629 0.0
C546 C 0.74896 0.53381 0.98119 0.0
C547 C 0.78227 0.52757 0.97798 0.0
H548 H 0.7352 0.53114 0.98867 0.0
H549 H 0.79546 0.52018 0.98324 0.0
H550 H 0.79426 0.48776 0.05857 0.0
H551 H 0.73372 0.47931 0.04052 0.0
C552 C 0.7168 0.505 0.012 0.0
C553 C 0.76437 0.54459 0.06373 0.0
C554 C 0.76474 0.46486 0.97127 0.0
C555 C 0.81248 0.5042 0.02344 0.0
H556 H 0.72506 0.55349 0.07474 0.0
H557 H 0.69881 0.53169 0.04688 0.0
H558 H 0.69922 0.47866 0.97277 0.0
H559 H 0.72563 0.45656 0.95099 0.0
H560 H 0.804 0.45259 0.96542 0.0
H561 H 0.83031 0.47377 0.99415 0.0
H562 H 0.83013 0.5344 0.05687 0.0
H563 H 0.80362 0.55617 0.07902 0.0
H564 H 0.79482 0.46223 0.08944 0.0
H565 H 0.73351 0.45347 0.07105 0.0
H566 H 0.7972 0.54474 0.95121 0.0
H567 H 0.73642 0.55649 0.95745 0.0
H568 H 0.19601 0.26319 0.29985 0.0
H569 H 0.16652 0.27154 0.3225 0.0
H570 H 0.19469 0.25376 0.39631 0.0
H571 H 0.22414 0.24599 0.37417 0.0
H572 H 0.15864 0.23451 0.38093 0.0
H573 H 0.1864 0.29943 0.38951 0.0
H574 H 0.1993 0.32948 0.37212 0.0
H575 H 0.14517 0.33836 0.32701 0.0
H576 H 0.13204 0.30818 0.34385 0.0
H577 H 0.09439 0.25526 0.47853 0.0
H578 H 0.12251 0.25393 0.45186 0.0
H579 H 0.09097 0.2864 0.39153 0.0
H580 H 0.06295 0.28839 0.41884 0.0
H581 H 0.12667 0.29826 0.395 0.0
H582 H 0.09771 0.23553 0.386 0.0
H583 H 0.08377 0.20488 0.40008 0.0
H584 H 0.1383 0.19059 0.44083 0.0
H585 H 0.1525 0.2213 0.42735 0.0
C586 C 0.19607 0.26161 0.32103 0.0
C587 C 0.21233 0.25366 0.33513 0.0
C588 C 0.17919 0.26627 0.33392 0.0
C589 C 0.17834 0.26304 0.36105 0.0
C590 C 0.19494 0.25618 0.37534 0.0
C591 C 0.21176 0.25173 0.36261 0.0
C592 C 0.15989 0.2652 0.37442 0.0
C593 C 0.15173 0.24847 0.38424 0.0
C594 C 0.15044 0.28328 0.37773 0.0
C595 C 0.15832 0.30143 0.36769 0.0
C596 C 0.17731 0.30768 0.37568 0.0
C597 C 0.18465 0.32476 0.36597 0.0
C598 C 0.17309 0.33579 0.3484 0.0
C599 C 0.15413 0.32979 0.34058 0.0
C600 C 0.14673 0.3127 0.35021 0.0
C601 C 0.09344 0.2621 0.45956 0.0
C602 C 0.07639 0.27175 0.45066 0.0
C603 C 0.10952 0.26128 0.44423 0.0
C604 C 0.1088 0.26963 0.41925 0.0
C605 C 0.09193 0.27974 0.41061 0.0
C606 C 0.07591 0.28086 0.42621 0.0
C607 C 0.12562 0.26758 0.40228 0.0
C608 C 0.13344 0.28425 0.39161 0.0
C609 C 0.1346 0.24933 0.39767 0.0
C610 C 0.12612 0.23082 0.40585 0.0
C611 C 0.10669 0.22593 0.39814 0.0
C612 C 0.09875 0.20853 0.40599 0.0
C613 C 0.11013 0.19582 0.42139 0.0
C614 C 0.1295 0.20046 0.42893 0.0
C615 C 0.13751 0.21786 0.42117 0.0
H616 H 0.10395 0.18236 0.42744 0.0
H617 H 0.17879 0.34901 0.34091 0.0
H618 H 0.79154 0.18625 0.31001 0.0
H619 H 0.78262 0.15507 0.32797 0.0
H620 H 0.72498 0.17684 0.33888 0.0
H621 H 0.73375 0.20794 0.32061 0.0
H622 H 0.74615 0.16236 0.38529 0.0
H623 H 0.72792 0.14327 0.29487 0.0
H624 H 0.73301 0.13872 0.24743 0.0
H625 H 0.78064 0.10015 0.26583 0.0
H626 H 0.77602 0.10471 0.31344 0.0
H627 H 0.71274 0.07789 0.43999 0.0
H628 H 0.71452 0.10482 0.41042 0.0
H629 H 0.76686 0.08075 0.38079 0.0
H630 H 0.76438 0.0529 0.40888 0.0
H631 H 0.74629 0.09652 0.34205 0.0
H632 H 0.76803 0.11706 0.43038 0.0
H633 H 0.76589 0.12177 0.47852 0.0
H634 H 0.71569 0.15799 0.46525 0.0
H635 H 0.71738 0.15329 0.41697 0.0
C636 C 0.77687 0.1842 0.31579 0.0
C637 C 0.76331 0.19941 0.31398 0.0
C638 C 0.77179 0.16643 0.32594 0.0
C639 C 0.75316 0.16373 0.33468 0.0
C640 C 0.7394 0.17868 0.33212 0.0
C641 C 0.74438 0.19635 0.32159 0.0
C642 C 0.74867 0.14601 0.34873 0.0
C643 C 0.74578 0.14797 0.37577 0.0
C644 C 0.74896 0.12728 0.33639 0.0
C645 C 0.75173 0.12448 0.30776 0.0
C646 C 0.7396 0.13396 0.28883 0.0
C647 C 0.74237 0.13135 0.26189 0.0
C648 C 0.75717 0.11919 0.25362 0.0
C649 C 0.76919 0.10958 0.27227 0.0
C650 C 0.76649 0.11216 0.29923 0.0
C651 C 0.72436 0.07796 0.42672 0.0
C652 C 0.73854 0.06324 0.4271 0.0
C653 C 0.7255 0.09356 0.41003 0.0
C654 C 0.74109 0.09507 0.39387 0.0
C655 C 0.75478 0.07999 0.39327 0.0
C656 C 0.75348 0.06419 0.40963 0.0
C657 C 0.74372 0.11283 0.37872 0.0
C658 C 0.74641 0.1109 0.35155 0.0
C659 C 0.74369 0.13163 0.39105 0.0
C660 C 0.74271 0.13465 0.42007 0.0
C661 C 0.75646 0.12593 0.43772 0.0
C662 C 0.75533 0.12861 0.46503 0.0
C663 C 0.74063 0.14013 0.47492 0.0
C664 C 0.72705 0.14905 0.45754 0.0
C665 C 0.72809 0.14639 0.4302 0.0
H666 H 0.73979 0.14217 0.49606 0.0
H667 H 0.75929 0.11718 0.23276 0.0
H668 H 0.81897 0.78748 0.29842 0.0
H669 H 0.85033 0.77897 0.32113 0.0
H670 H 0.82484 0.72683 0.34859 0.0
H671 H 0.79362 0.73497 0.32515 0.0
H672 H 0.84573 0.76003 0.38798 0.0
H673 H 0.85211 0.71411 0.31386 0.0
H674 H 0.85218 0.70532 0.2663 0.0
H675 H 0.89808 0.74643 0.25828 0.0
H676 H 0.89806 0.75568 0.30574 0.0
H677 H 0.92814 0.72629 0.46178 0.0
H678 H 0.89837 0.72692 0.4325 0.0
H679 H 0.92921 0.75679 0.37464 0.0
H680 H 0.95928 0.75488 0.40327 0.0
H681 H 0.90492 0.7336 0.34959 0.0
H682 H 0.89948 0.7808 0.42009 0.0
H683 H 0.90002 0.7929 0.46649 0.0
H684 H 0.85305 0.75442 0.4803 0.0
H685 H 0.85242 0.74187 0.43406 0.0
C686 C 0.82026 0.77398 0.30877 0.0
C687 C 0.80403 0.76177 0.30995 0.0
C688 C 0.83809 0.76916 0.32173 0.0
C689 C 0.83983 0.75227 0.33643 0.0
C690 C 0.82375 0.73985 0.33717 0.0
C691 C 0.80602 0.74444 0.32372 0.0
C692 C 0.85795 0.74855 0.35282 0.0
C693 C 0.85861 0.75392 0.37977 0.0
C694 C 0.87485 0.74134 0.34175 0.0
C695 C 0.87492 0.73575 0.31327 0.0
C696 C 0.86206 0.72144 0.30189 0.0
C697 C 0.86213 0.71633 0.27497 0.0
C698 C 0.87508 0.72536 0.25926 0.0
C699 C 0.88803 0.73947 0.27046 0.0
C700 C 0.88801 0.74464 0.29737 0.0
C701 C 0.92853 0.73274 0.44264 0.0
C702 C 0.94583 0.7408 0.43485 0.0
C703 C 0.91152 0.73327 0.426 0.0
C704 C 0.91134 0.7424 0.4016 0.0
C705 C 0.92887 0.74979 0.3934 0.0
C706 C 0.946 0.74883 0.40979 0.0
C707 C 0.89281 0.74488 0.38511 0.0
C708 C 0.89206 0.7395 0.35804 0.0
C709 C 0.87588 0.75255 0.39596 0.0
C710 C 0.87603 0.76026 0.42368 0.0
C711 C 0.88934 0.77484 0.43307 0.0
C712 C 0.88966 0.78178 0.45933 0.0
C713 C 0.87661 0.7744 0.47635 0.0
C714 C 0.86317 0.7601 0.4671 0.0
C715 C 0.86281 0.75308 0.44086 0.0
H716 H 0.87689 0.77978 0.49669 0.0
H717 H 0.87511 0.72138 0.23842 0.0
H718 H 0.24595 0.79274 0.35049 0.0
H719 H 0.25279 0.82422 0.37303 0.0
H720 H 0.26833 0.84788 0.29972 0.0
H721 H 0.26141 0.81623 0.27691 0.0
H722 H 0.29095 0.86213 0.35092 0.0
H723 H 0.22584 0.85436 0.30892 0.0
H724 H 0.19575 0.83534 0.29892 0.0
H725 H 0.18611 0.83509 0.38163 0.0
H726 H 0.21639 0.85375 0.39218 0.0
H727 H 0.27398 0.95848 0.40129 0.0
H728 H 0.27433 0.92965 0.37147 0.0
H729 H 0.24211 0.89765 0.42577 0.0
H730 H 0.24125 0.9265 0.45505 0.0
H731 H 0.22841 0.88931 0.37819 0.0
H732 H 0.29274 0.89361 0.42195 0.0
H733 H 0.32417 0.90937 0.43545 0.0
H734 H 0.3362 0.91403 0.35397 0.0
H735 H 0.3047 0.89852 0.33998 0.0
C736 C 0.25131 0.80452 0.33934 0.0
C737 C 0.25286 0.80227 0.31195 0.0
C738 C 0.25528 0.82242 0.35222 0.0
C739 C 0.26076 0.83833 0.33788 0.0
C740 C 0.2641 0.83569 0.31102 0.0
C741 C 0.26014 0.81768 0.29806 0.0
C742 C 0.26 0.85802 0.35017 0.0
C743 C 0.2773 0.86834 0.35648 0.0
C744 C 0.24216 0.86577 0.35776 0.0
C745 C 0.22346 0.85535 0.35134 0.0
C746 C 0.21735 0.85018 0.32498 0.0
C747 C 0.20027 0.83944 0.31922 0.0
C748 C 0.18904 0.83398 0.33963 0.0
C749 C 0.19482 0.83933 0.36584 0.0
C750 C 0.21194 0.84999 0.37172 0.0
C751 C 0.2669 0.94529 0.40668 0.0
C752 C 0.25755 0.94467 0.43038 0.0
C753 C 0.26717 0.92883 0.38974 0.0
C754 C 0.25848 0.9114 0.39656 0.0
C755 C 0.24886 0.91094 0.42003 0.0
C756 C 0.24834 0.92742 0.43673 0.0
C757 C 0.25948 0.89347 0.37964 0.0
C758 C 0.24212 0.88341 0.37233 0.0
C759 C 0.27732 0.88586 0.37154 0.0
C760 C 0.29628 0.89512 0.37992 0.0
C761 C 0.30203 0.89813 0.40691 0.0
C762 C 0.31986 0.907 0.41465 0.0
C763 C 0.33215 0.91276 0.39558 0.0
C764 C 0.32665 0.9096 0.36872 0.0
C765 C 0.30881 0.90077 0.36087 0.0
H766 H 0.34595 0.91961 0.40161 0.0
H767 H 0.17585 0.82562 0.33513 0.0
H768 H 0.21359 0.76043 0.65274 0.0
H769 H 0.18242 0.75278 0.62871 0.0
H770 H 0.15624 0.74582 0.70257 0.0
H771 H 0.18757 0.75352 0.72684 0.0
H772 H 0.14166 0.7192 0.66089 0.0
H773 H 0.15199 0.78762 0.67712 0.0
H774 H 0.17108 0.8179 0.67752 0.0
H775 H 0.17199 0.81338 0.59295 0.0
H776 H 0.1532 0.7828 0.59211 0.0
H777 H 0.04453 0.73583 0.60683 0.0
H778 H 0.07531 0.73725 0.63441 0.0
H779 H 0.10568 0.75197 0.56619 0.0
H780 H 0.07483 0.75089 0.53889 0.0
H781 H 0.11749 0.77455 0.60763 0.0
H782 H 0.1072 0.70588 0.59137 0.0
H783 H 0.08871 0.67519 0.59123 0.0
H784 H 0.08764 0.68006 0.67576 0.0
H785 H 0.10585 0.71098 0.67637 0.0
C786 C 0.20128 0.7569 0.66386 0.0
C787 C 0.20291 0.75784 0.69166 0.0
C788 C 0.1835 0.75251 0.65011 0.0
C789 C 0.16695 0.74909 0.66388 0.0
C790 C 0.16884 0.74847 0.6916 0.0
C791 C 0.18672 0.75283 0.70542 0.0
C792 C 0.1475 0.74832 0.64934 0.0
C793 C 0.13621 0.73136 0.64951 0.0
C794 C 0.14053 0.76413 0.63427 0.0
C795 C 0.15133 0.78283 0.63458 0.0
C796 C 0.15635 0.79302 0.65861 0.0
C797 C 0.16713 0.81025 0.65892 0.0
C798 C 0.17279 0.81756 0.63527 0.0
C799 C 0.16762 0.80769 0.61126 0.0
C800 C 0.15689 0.79041 0.61085 0.0
C801 C 0.05785 0.73931 0.59789 0.0
C802 C 0.05753 0.74315 0.57088 0.0
C803 C 0.0754 0.74005 0.61354 0.0
C804 C 0.09288 0.74448 0.60232 0.0
C805 C 0.09242 0.74849 0.57529 0.0
C806 C 0.07488 0.74782 0.5597 0.0
C807 C 0.11165 0.74527 0.61871 0.0
C808 C 0.12283 0.76234 0.619 0.0
C809 C 0.11844 0.72955 0.63418 0.0
C810 C 0.10772 0.71084 0.63389 0.0
C811 C 0.1029 0.70048 0.60992 0.0
C812 C 0.09248 0.68304 0.60975 0.0
C813 C 0.08696 0.6757 0.63347 0.0
C814 C 0.0919 0.68577 0.6574 0.0
C815 C 0.10228 0.70325 0.65767 0.0
H816 H 0.0789 0.6622 0.6333 0.0
H817 H 0.18116 0.83089 0.63555 0.0
H818 H 0.21803 0.18699 0.74607 0.0
H819 H 0.22872 0.15552 0.72828 0.0
H820 H 0.28724 0.17758 0.72778 0.0
H821 H 0.27662 0.20908 0.74571 0.0
H822 H 0.27114 0.16349 0.67856 0.0
H823 H 0.27999 0.14223 0.7671 0.0
H824 H 0.27091 0.13711 0.81249 0.0
H825 H 0.22327 0.10071 0.78227 0.0
H826 H 0.23189 0.10584 0.73665 0.0
H827 H 0.29748 0.07753 0.61227 0.0
H828 H 0.29851 0.10279 0.64725 0.0
H829 H 0.24139 0.08583 0.6677 0.0
H830 H 0.24079 0.05962 0.63403 0.0
H831 H 0.26224 0.09702 0.71085 0.0
H832 H 0.24841 0.12277 0.6243 0.0
H833 H 0.25459 0.1287 0.57793 0.0
H834 H 0.30815 0.15766 0.6035 0.0
H835 H 0.3024 0.15167 0.65003 0.0
C836 C 0.23325 0.18495 0.74268 0.0
C837 C 0.24651 0.20041 0.74707 0.0
C838 C 0.23936 0.16697 0.73271 0.0
C839 C 0.25877 0.16426 0.72682 0.0
C840 C 0.27222 0.17941 0.73236 0.0
C841 C 0.26617 0.19732 0.74264 0.0
C842 C 0.26427 0.14662 0.71166 0.0
C843 C 0.2697 0.14894 0.68585 0.0
C844 C 0.26174 0.12772 0.72097 0.0
C845 C 0.25653 0.12454 0.74841 0.0
C846 C 0.26748 0.13326 0.7701 0.0
C847 C 0.26244 0.13033 0.79589 0.0
C848 C 0.24651 0.11862 0.80026 0.0
C849 C 0.23561 0.10978 0.77886 0.0
C850 C 0.24059 0.11268 0.75302 0.0
C851 C 0.28534 0.07877 0.62465 0.0
C852 C 0.26889 0.0667 0.61998 0.0
C853 C 0.28589 0.09338 0.6445 0.0
C854 C 0.26984 0.0965 0.65967 0.0
C855 C 0.25389 0.08379 0.6561 0.0
C856 C 0.25345 0.06899 0.63654 0.0
C857 C 0.26885 0.11391 0.6776 0.0
C858 C 0.26414 0.11157 0.70381 0.0
C859 C 0.27165 0.13288 0.66853 0.0
C860 C 0.2751 0.13656 0.64059 0.0
C861 C 0.26157 0.13028 0.62001 0.0
C862 C 0.26499 0.13367 0.59371 0.0
C863 C 0.28178 0.1435 0.58777 0.0
C864 C 0.29517 0.15001 0.60813 0.0
C865 C 0.29184 0.14663 0.63446 0.0
H866 H 0.28439 0.14611 0.5674 0.0
H867 H 0.24262 0.11637 0.82024 0.0
H868 H 0.7962 0.27961 0.71121 0.0
H869 H 0.82573 0.28837 0.68976 0.0
H870 H 0.85136 0.23327 0.71037 0.0
H871 H 0.82194 0.22449 0.73162 0.0
H872 H 0.87825 0.26364 0.71574 0.0
H873 H 0.82939 0.23762 0.65121 0.0
H874 H 0.79697 0.23632 0.62741 0.0
H875 H 0.80488 0.29419 0.60078 0.0
H876 H 0.83726 0.29594 0.6248 0.0
H877 H 0.94791 0.24618 0.62196 0.0
H878 H 0.92054 0.24511 0.64984 0.0
H879 H 0.89791 0.29801 0.61644 0.0
H880 H 0.92493 0.29877 0.58765 0.0
H881 H 0.86947 0.27248 0.61895 0.0
H882 H 0.91985 0.29741 0.68004 0.0
H883 H 0.95228 0.2986 0.70382 0.0
H884 H 0.94178 0.24333 0.73708 0.0
H885 H 0.90938 0.24167 0.71319 0.0
C886 C 0.80835 0.26962 0.71169 0.0
C887 C 0.80679 0.25137 0.723 0.0
C888 C 0.82514 0.27455 0.69929 0.0
C889 C 0.84069 0.26137 0.69818 0.0
C890 C 0.83958 0.24366 0.71093 0.0
C891 C 0.82276 0.23865 0.72303 0.0
C892 C 0.8575 0.26525 0.68217 0.0
C893 C 0.87636 0.26549 0.69456 0.0
C894 C 0.85504 0.26806 0.65461 0.0
C895 C 0.83563 0.267 0.64007 0.0
C896 C 0.82414 0.25013 0.64047 0.0
C897 C 0.80579 0.2493 0.62691 0.0
C898 C 0.79884 0.26519 0.61266 0.0
C899 C 0.81026 0.28192 0.61188 0.0
C900 C 0.82861 0.28283 0.62546 0.0
C901 C 0.93709 0.25756 0.62037 0.0
C902 C 0.93869 0.27255 0.60243 0.0
C903 C 0.92151 0.25705 0.63662 0.0
C904 C 0.90722 0.27162 0.63558 0.0
C905 C 0.90878 0.28664 0.61775 0.0
C906 C 0.92436 0.28714 0.60144 0.0
C907 C 0.89034 0.27074 0.65244 0.0
C908 C 0.87143 0.27095 0.64019 0.0
C909 C 0.89278 0.26839 0.68015 0.0
C910 C 0.91223 0.26935 0.69464 0.0
C911 C 0.9245 0.28544 0.69227 0.0
C912 C 0.94288 0.28621 0.7058 0.0
C913 C 0.9491 0.27103 0.72191 0.0
C914 C 0.93694 0.25507 0.72458 0.0
C915 C 0.91856 0.25422 0.71107 0.0
H916 H 0.96333 0.27165 0.73236 0.0
H917 H 0.78463 0.26452 0.60216 0.0
H918 H 0.73066 0.80795 0.7329 0.0
H919 H 0.72166 0.84067 0.71922 0.0
H920 H 0.78167 0.85286 0.70682 0.0
H921 H 0.7909 0.8208 0.72214 0.0
H922 H 0.76569 0.88457 0.72305 0.0
H923 H 0.74807 0.83428 0.65634 0.0
H924 H 0.73121 0.80445 0.63872 0.0
H925 H 0.67605 0.83054 0.65228 0.0
H926 H 0.69264 0.86046 0.67029 0.0
H927 H 0.76698 0.93454 0.60395 0.0
H928 H 0.76767 0.9104 0.63788 0.0
H929 H 0.71012 0.92721 0.65753 0.0
H930 H 0.70963 0.95248 0.62463 0.0
H931 H 0.71856 0.88443 0.64446 0.0
H932 H 0.7394 0.93836 0.70177 0.0
H933 H 0.75899 0.96755 0.7149 0.0
H934 H 0.81124 0.93365 0.71423 0.0
H935 H 0.792 0.90431 0.70068 0.0
C936 C 0.74201 0.81781 0.72802 0.0
C937 C 0.76146 0.81161 0.72805 0.0
C938 C 0.73681 0.83645 0.71994 0.0
C939 C 0.7509 0.84904 0.71129 0.0
C940 C 0.77048 0.84337 0.71317 0.0
C941 C 0.77572 0.82491 0.72161 0.0
C942 C 0.74534 0.86729 0.69794 0.0
C943 C 0.75532 0.88454 0.70594 0.0
C944 C 0.73156 0.8674 0.67583 0.0
C945 C 0.72159 0.84947 0.66497 0.0
C946 C 0.73235 0.83359 0.65573 0.0
C947 C 0.72285 0.81668 0.64565 0.0
C948 C 0.70257 0.81558 0.64447 0.0
C949 C 0.69176 0.8314 0.65328 0.0
C950 C 0.7012 0.84833 0.66342 0.0
C951 C 0.75462 0.9336 0.61586 0.0
C952 C 0.73829 0.94567 0.61151 0.0
C953 C 0.75502 0.91965 0.63515 0.0
C954 C 0.73901 0.91719 0.65023 0.0
C955 C 0.72262 0.92901 0.64604 0.0
C956 C 0.72234 0.9433 0.62705 0.0
C957 C 0.7393 0.90139 0.6692 0.0
C958 C 0.72842 0.88459 0.66211 0.0
C959 C 0.7526 0.90156 0.69169 0.0
C960 C 0.76424 0.91915 0.70006 0.0
C961 C 0.75508 0.93715 0.70422 0.0
C962 C 0.76612 0.95372 0.71177 0.0
C963 C 0.78635 0.95246 0.71536 0.0
C964 C 0.79557 0.93461 0.71145 0.0
C965 C 0.7846 0.91799 0.70387 0.0
H966 H 0.79487 0.96531 0.72121 0.0
H967 H 0.69524 0.80248 0.63666 0.0
H968 H 0.7876 0.76565 0.66617 0.0
H969 H 0.81513 0.75709 0.64067 0.0
H970 H 0.84293 0.72939 0.70834 0.0
H971 H 0.81558 0.73886 0.7345 0.0
H972 H 0.86806 0.75164 0.6885 0.0
H973 H 0.82488 0.70311 0.65036 0.0
H974 H 0.79431 0.68921 0.62968 0.0
H975 H 0.7986 0.72525 0.56288 0.0
H976 H 0.82906 0.73957 0.58331 0.0
H977 H 0.9448 0.71961 0.60801 0.0
H978 H 0.91672 0.71889 0.63517 0.0
H979 H 0.88548 0.75705 0.5816 0.0
H980 H 0.91348 0.75789 0.55448 0.0
H981 H 0.86308 0.72513 0.59604 0.0
H982 H 0.90495 0.77547 0.63771 0.0
H983 H 0.93578 0.78848 0.65883 0.0
H984 H 0.9341 0.7468 0.71972 0.0
H985 H 0.90338 0.73336 0.69874 0.0
C986 C 0.79947 0.75755 0.67561 0.0
C987 C 0.79944 0.75311 0.70249 0.0
C988 C 0.81519 0.75247 0.66086 0.0
C989 C 0.83119 0.74243 0.67239 0.0
C990 C 0.83081 0.73713 0.69892 0.0
C991 C 0.81506 0.74236 0.7138 0.0
C992 C 0.8488 0.73893 0.65724 0.0
C993 C 0.86698 0.74541 0.66851 0.0
C994 C 0.84752 0.73112 0.63091 0.0
C995 C 0.82921 0.72252 0.61848 0.0
C996 C 0.81924 0.70818 0.63134 0.0
C997 C 0.80194 0.7002 0.61965 0.0
C998 C 0.7945 0.70637 0.595 0.0
C999 C 0.80438 0.72049 0.58197 0.0
C1000 C 0.82168 0.72852 0.59359 0.0
C1001 C 0.9319 0.72777 0.60197 0.0
C1002 C 0.9314 0.73889 0.57915 0.0
C1003 C 0.9159 0.72741 0.61756 0.0
C1004 C 0.899 0.73798 0.61049 0.0
C1005 C 0.89835 0.74879 0.58746 0.0
C1006 C 0.91441 0.74937 0.57208 0.0
C1007 C 0.88208 0.7381 0.62723 0.0
C1008 C 0.8641 0.73104 0.61621 0.0
C1009 C 0.88356 0.74516 0.65385 0.0
C1010 C 0.902 0.75326 0.66648 0.0
C1011 C 0.91125 0.76896 0.65547 0.0
C1012 C 0.92868 0.77644 0.66744 0.0
C1013 C 0.93693 0.76843 0.69055 0.0
C1014 C 0.92772 0.75296 0.70179 0.0
C1015 C 0.9103 0.74541 0.68987 0.0
H1016 H 0.95042 0.77425 0.6998 0.0
H1017 H 0.7811 0.70018 0.58598 0.0
H1018 H 0.24924 0.82997 0.73457 0.0
H1019 H 0.25503 0.8607 0.71274 0.0
H1020 H 0.25865 0.82902 0.63836 0.0
H1021 H 0.25317 0.79857 0.66007 0.0
H1022 H 0.28476 0.85729 0.6418 0.0
H1023 H 0.21625 0.85286 0.65578 0.0
H1024 H 0.18795 0.84997 0.68254 0.0
H1025 H 0.20512 0.90221 0.72685 0.0
H1026 H 0.23367 0.90532 0.70053 0.0
H1027 H 0.26469 0.92985 0.5474 0.0
H1028 H 0.26385 0.90124 0.57493 0.0
H1029 H 0.25805 0.93879 0.64388 0.0
H1030 H 0.25837 0.96735 0.61602 0.0
H1031 H 0.23487 0.90899 0.6465 0.0
H1032 H 0.30191 0.91504 0.63001 0.0
H1033 H 0.32986 0.9183 0.60271 0.0
H1034 H 0.31588 0.86325 0.56345 0.0
H1035 H 0.28764 0.8598 0.59021 0.0
C1036 C 0.25175 0.82958 0.71372 0.0
C1037 C 0.25075 0.81179 0.6991 0.0
C1038 C 0.25483 0.84718 0.70112 0.0
C1039 C 0.25698 0.84738 0.67364 0.0
C1040 C 0.257 0.82946 0.65946 0.0
C1041 C 0.25386 0.81199 0.67194 0.0
C1042 C 0.25839 0.86604 0.65918 0.0
C1043 C 0.27376 0.86851 0.64274 0.0
C1044 C 0.24435 0.88105 0.66063 0.0
C1045 C 0.2272 0.8792 0.67641 0.0
C1046 C 0.21407 0.86365 0.67136 0.0
C1047 C 0.19797 0.86198 0.68642 0.0
C1048 C 0.19477 0.87585 0.70643 0.0
C1049 C 0.20764 0.89146 0.71138 0.0
C1050 C 0.22377 0.89319 0.69639 0.0
C1051 C 0.26328 0.93193 0.56845 0.0
C1052 C 0.2617 0.95079 0.57962 0.0
C1053 C 0.2629 0.91558 0.58427 0.0
C1054 C 0.26121 0.91767 0.61178 0.0
C1055 C 0.25942 0.93661 0.62284 0.0
C1056 C 0.25968 0.95296 0.60695 0.0
C1057 C 0.26114 0.90016 0.62886 0.0
C1058 C 0.24601 0.89788 0.64574 0.0
C1059 C 0.27543 0.88534 0.62786 0.0
C1060 C 0.29256 0.88723 0.61199 0.0
C1061 C 0.30473 0.90368 0.61545 0.0
C1062 C 0.32063 0.90556 0.60007 0.0
C1063 C 0.32463 0.891 0.58133 0.0
C1064 C 0.31276 0.87451 0.57796 0.0
C1065 C 0.29681 0.87258 0.59324 0.0
H1066 H 0.33694 0.89249 0.56944 0.0
H1067 H 0.18229 0.87453 0.71806 0.0
H1068 H 0.21193 0.24435 0.68841 0.0
H1069 H 0.18241 0.25257 0.66169 0.0
H1070 H 0.15693 0.27559 0.73149 0.0
H1071 H 0.1865 0.2671 0.75848 0.0
H1072 H 0.13249 0.25038 0.70294 0.0
H1073 H 0.17015 0.30596 0.68473 0.0
H1074 H 0.19889 0.32363 0.67176 0.0
H1075 H 0.19365 0.29466 0.59521 0.0
H1076 H 0.16503 0.27659 0.60784 0.0
H1077 H 0.04817 0.28323 0.62777 0.0
H1078 H 0.0779 0.28258 0.65743 0.0
H1079 H 0.10993 0.26026 0.59282 0.0
H1080 H 0.08024 0.26127 0.56317 0.0
H1081 H 0.13048 0.28796 0.62105 0.0
H1082 H 0.09495 0.23062 0.63995 0.0
H1083 H 0.06649 0.21222 0.65232 0.0
H1084 H 0.06815 0.24368 0.7271 0.0
H1085 H 0.09647 0.2625 0.71497 0.0
C1086 C 0.20013 0.25137 0.69803 0.0
C1087 C 0.20151 0.25503 0.72557 0.0
C1088 C 0.18329 0.25616 0.68271 0.0
C1089 C 0.16744 0.26477 0.69453 0.0
C1090 C 0.16897 0.26897 0.72193 0.0
C1091 C 0.18592 0.26428 0.73729 0.0
C1092 C 0.14894 0.26819 0.67841 0.0
C1093 C 0.13196 0.25894 0.68533 0.0
C1094 C 0.14834 0.27892 0.65504 0.0
C1095 C 0.16552 0.2898 0.64732 0.0
C1096 C 0.17521 0.30324 0.6652 0.0
C1097 C 0.19147 0.31335 0.65789 0.0
C1098 C 0.19812 0.31024 0.6327 0.0
C1099 C 0.18849 0.29704 0.61473 0.0
C1100 C 0.17224 0.28688 0.62194 0.0
C1101 C 0.06162 0.27827 0.62003 0.0
C1102 C 0.06206 0.27231 0.59333 0.0
C1103 C 0.07856 0.27783 0.63692 0.0
C1104 C 0.09616 0.27122 0.62743 0.0
C1105 C 0.09657 0.26545 0.60061 0.0
C1106 C 0.07965 0.26594 0.58373 0.0
C1107 C 0.1141 0.27 0.64545 0.0
C1108 C 0.13097 0.2796 0.63884 0.0
C1109 C 0.11464 0.2595 0.66903 0.0
C1110 C 0.0977 0.24812 0.67643 0.0
C1111 C 0.08916 0.23372 0.65894 0.0
C1112 C 0.07306 0.2232 0.66592 0.0
C1113 C 0.06548 0.22682 0.69045 0.0
C1114 C 0.07402 0.24093 0.70808 0.0
C1115 C 0.09009 0.25152 0.70117 0.0
H1116 H 0.05302 0.21865 0.69583 0.0
H1117 H 0.21071 0.31808 0.62708 0.0
H1118 H 0.7263 0.21016 0.70125 0.0
H1119 H 0.71785 0.17997 0.67534 0.0
H1120 H 0.77483 0.15709 0.69657 0.0
H1121 H 0.78289 0.18655 0.72297 0.0
H1122 H 0.73169 0.1645 0.63283 0.0
H1123 H 0.77633 0.10908 0.69677 0.0
H1124 H 0.78494 0.10338 0.74389 0.0
H1125 H 0.73454 0.13523 0.76542 0.0
H1126 H 0.72547 0.14088 0.71843 0.0
H1127 H 0.75192 0.0815 0.55233 0.0
H1128 H 0.75291 0.11035 0.5821 0.0
H1129 H 0.72198 0.07887 0.63826 0.0
H1130 H 0.7223 0.04964 0.6092 0.0
H1131 H 0.74677 0.09853 0.66491 0.0
H1132 H 0.70104 0.11665 0.59536 0.0
H1133 H 0.6887 0.12173 0.54929 0.0
H1134 H 0.73387 0.1636 0.54108 0.0
H1135 H 0.74665 0.15856 0.58698 0.0
C1136 C 0.73678 0.19845 0.70093 0.0
C1137 C 0.75528 0.20084 0.71424 0.0
C1138 C 0.73204 0.18125 0.68584 0.0
C1139 C 0.74563 0.166 0.68394 0.0
C1140 C 0.76387 0.16828 0.69789 0.0
C1141 C 0.76853 0.1853 0.71294 0.0
C1142 C 0.74136 0.14806 0.66662 0.0
C1143 C 0.73488 0.15007 0.63993 0.0
C1144 C 0.74507 0.12905 0.67573 0.0
C1145 C 0.75031 0.12553 0.70405 0.0
C1146 C 0.76703 0.11478 0.71154 0.0
C1147 C 0.772 0.11158 0.73824 0.0
C1148 C 0.76032 0.11898 0.75764 0.0
C1149 C 0.74361 0.12955 0.75038 0.0
C1150 C 0.73856 0.13278 0.72372 0.0
C1151 C 0.74537 0.08078 0.57108 0.0
C1152 C 0.73698 0.06329 0.57836 0.0
C1153 C 0.74573 0.09738 0.58804 0.0
C1154 C 0.73715 0.09718 0.61247 0.0
C1155 C 0.72869 0.07965 0.61965 0.0
C1156 C 0.72873 0.06292 0.60292 0.0
C1157 C 0.73755 0.11493 0.63085 0.0
C1158 C 0.74338 0.1129 0.65777 0.0
C1159 C 0.73268 0.13385 0.62208 0.0
C1160 C 0.72488 0.13711 0.59457 0.0
C1161 C 0.7084 0.12687 0.58369 0.0
C1162 C 0.70133 0.12974 0.5576 0.0
C1163 C 0.71052 0.14295 0.54225 0.0
C1164 C 0.72677 0.15336 0.55299 0.0
C1165 C 0.73392 0.15052 0.57905 0.0
H1166 H 0.70505 0.14514 0.52205 0.0
H1167 H 0.76421 0.1165 0.7783 0.0
H1168 H 0.79826 0.24823 0.36902 0.0
H1169 H 0.82881 0.25715 0.39371 0.0
H1170 H 0.85264 0.27411 0.32151 0.0
H1171 H 0.82191 0.26495 0.29657 0.0
H1172 H 0.87675 0.24957 0.34908 0.0
H1173 H 0.84328 0.3083 0.36876 0.0
H1174 H 0.81624 0.32866 0.38297 0.0
H1175 H 0.82189 0.30412 0.45981 0.0
H1176 H 0.8488 0.28339 0.44596 0.0
H1177 H 0.96462 0.28067 0.42206 0.0
H1178 H 0.93447 0.2805 0.39312 0.0
H1179 H 0.90224 0.26278 0.4582 0.0
H1180 H 0.93238 0.26317 0.48709 0.0
H1181 H 0.88338 0.2912 0.43111 0.0
H1182 H 0.91421 0.23038 0.41027 0.0
H1183 H 0.94097 0.20944 0.39651 0.0
H1184 H 0.93983 0.23746 0.32207 0.0
H1185 H 0.91325 0.25881 0.33558 0.0
C1186 C 0.80989 0.2542 0.35848 0.0
C1187 C 0.80774 0.25588 0.33088 0.0
C1188 C 0.82734 0.25937 0.37262 0.0
C1189 C 0.84304 0.26639 0.35952 0.0
C1190 C 0.84071 0.26876 0.33204 0.0
C1191 C 0.82313 0.26369 0.31785 0.0
C1192 C 0.8622 0.26976 0.37442 0.0
C1193 C 0.87831 0.25903 0.36668 0.0
C1194 C 0.86415 0.2817 0.39778 0.0
C1195 C 0.84799 0.29419 0.40624 0.0
C1196 C 0.83867 0.30713 0.38863 0.0
C1197 C 0.82338 0.31876 0.39663 0.0
C1198 C 0.81733 0.31766 0.42226 0.0
C1199 C 0.82659 0.30495 0.43996 0.0
C1200 C 0.84189 0.29328 0.43206 0.0
C1201 C 0.95104 0.27677 0.43003 0.0
C1202 C 0.95066 0.27192 0.45664 0.0
C1203 C 0.93387 0.27662 0.41356 0.0
C1204 C 0.91608 0.27152 0.42343 0.0
C1205 C 0.91576 0.26682 0.45015 0.0
C1206 C 0.93292 0.26694 0.46659 0.0
C1207 C 0.89781 0.27082 0.40595 0.0
C1208 C 0.88188 0.28199 0.41327 0.0
C1209 C 0.89599 0.25924 0.38226 0.0
C1210 C 0.9119 0.24635 0.37406 0.0
C1211 C 0.91978 0.2322 0.39106 0.0
C1212 C 0.9349 0.22023 0.38329 0.0
C1213 C 0.94214 0.22215 0.35846 0.0
C1214 C 0.93424 0.23602 0.34132 0.0
C1215 C 0.91914 0.24805 0.34902 0.0
H1216 H 0.95384 0.21287 0.35248 0.0
H1217 H 0.80548 0.32667 0.42842 0.0
H1218 H 0.7328 0.79472 0.34278 0.0
H1219 H 0.72726 0.82405 0.37026 0.0
H1220 H 0.76214 0.85748 0.32079 0.0
H1221 H 0.76812 0.82803 0.294 0.0
H1222 H 0.77346 0.86579 0.36893 0.0
H1223 H 0.71037 0.86243 0.32316 0.0
H1224 H 0.67923 0.84729 0.30672 0.0
H1225 H 0.66507 0.8382 0.38649 0.0
H1226 H 0.69626 0.85306 0.40341 0.0
H1227 H 0.75265 0.95959 0.42437 0.0
H1228 H 0.75363 0.93101 0.39405 0.0
H1229 H 0.72581 0.89659 0.45008 0.0
H1230 H 0.72499 0.92519 0.48049 0.0
H1231 H 0.71032 0.88896 0.39897 0.0
H1232 H 0.77379 0.89279 0.44414 0.0
H1233 H 0.80454 0.90899 0.45988 0.0
H1234 H 0.81767 0.91796 0.37968 0.0
H1235 H 0.7868 0.90212 0.36345 0.0
C1236 C 0.73874 0.80848 0.33735 0.0
C1237 C 0.75054 0.80918 0.31591 0.0
C1238 C 0.73565 0.82529 0.35313 0.0
C1239 C 0.74416 0.84324 0.3477 0.0
C1240 C 0.75539 0.84396 0.32562 0.0
C1241 C 0.75862 0.82715 0.31006 0.0
C1242 C 0.74249 0.86092 0.3658 0.0
C1243 C 0.75956 0.87097 0.37506 0.0
C1244 C 0.7245 0.86762 0.37464 0.0
C1245 C 0.70575 0.85868 0.36454 0.0
C1246 C 0.70069 0.85706 0.33719 0.0
C1247 C 0.68301 0.84855 0.32779 0.0
C1248 C 0.67021 0.84174 0.34554 0.0
C1249 C 0.67502 0.84346 0.37275 0.0
C1250 C 0.69269 0.85194 0.38226 0.0
C1251 C 0.74678 0.9459 0.43018 0.0
C1252 C 0.73882 0.9446 0.45484 0.0
C1253 C 0.74734 0.92955 0.41286 0.0
C1254 C 0.73991 0.91149 0.41974 0.0
C1255 C 0.73161 0.91029 0.4442 0.0
C1256 C 0.73119 0.92662 0.46161 0.0
C1257 C 0.74123 0.8938 0.40172 0.0
C1258 C 0.72415 0.88375 0.39264 0.0
C1259 C 0.75919 0.88715 0.39288 0.0
C1260 C 0.77789 0.89643 0.40258 0.0
C1261 C 0.78316 0.89835 0.42986 0.0
C1262 C 0.80062 0.90745 0.43887 0.0
C1263 C 0.81303 0.91454 0.42079 0.0
C1264 C 0.80803 0.91248 0.39366 0.0
C1265 C 0.79055 0.90344 0.38454 0.0
H1266 H 0.82655 0.92158 0.42781 0.0
H1267 H 0.65653 0.83516 0.33822 0.0
H1268 H 0.20606 0.72995 0.31231 0.0
H1269 H 0.1763 0.72466 0.33486 0.0
H1270 H 0.15336 0.77906 0.30644 0.0
H1271 H 0.18339 0.78461 0.28482 0.0
H1272 H 0.15018 0.77863 0.35627 0.0
H1273 H 0.13403 0.73214 0.28546 0.0
H1274 H 0.13929 0.70384 0.25562 0.0
H1275 H 0.14529 0.66681 0.32212 0.0
H1276 H 0.14032 0.69495 0.35241 0.0
H1277 H 0.05668 0.77004 0.40498 0.0
H1278 H 0.08316 0.77154 0.37551 0.0
H1279 H 0.10906 0.72059 0.41035 0.0
H1280 H 0.08276 0.71909 0.44015 0.0
H1281 H 0.11017 0.71877 0.35677 0.0
H1282 H 0.12692 0.76556 0.42725 0.0
H1283 H 0.12174 0.79394 0.45697 0.0
H1284 H 0.11457 0.83059 0.39017 0.0
H1285 H 0.11942 0.80236 0.36 0.0
C1286 C 0.19436 0.74041 0.31018 0.0
C1287 C 0.19692 0.75759 0.29663 0.0
C1288 C 0.17734 0.73743 0.32314 0.0
C1289 C 0.16242 0.75144 0.3224 0.0
C1290 C 0.1646 0.76805 0.30748 0.0
C1291 C 0.18168 0.77114 0.29488 0.0
C1292 C 0.14545 0.74978 0.33902 0.0
C1293 C 0.14123 0.76564 0.35592 0.0
C1294 C 0.13405 0.73264 0.33939 0.0
C1295 C 0.13698 0.71569 0.32122 0.0
C1296 C 0.13662 0.71799 0.29374 0.0
C1297 C 0.13952 0.70198 0.27674 0.0
C1298 C 0.14267 0.68355 0.28697 0.0
C1299 C 0.14287 0.6811 0.31422 0.0
C1300 C 0.13999 0.69707 0.33131 0.0
C1301 C 0.06808 0.75922 0.40659 0.0
C1302 C 0.06756 0.74451 0.42516 0.0
C1303 C 0.08319 0.76006 0.3896 0.0
C1304 C 0.09825 0.74629 0.39083 0.0
C1305 C 0.09761 0.73136 0.40894 0.0
C1306 C 0.08249 0.7305 0.42596 0.0
C1307 C 0.11485 0.74769 0.37361 0.0
C1308 C 0.11905 0.73178 0.35682 0.0
C1309 C 0.12623 0.7648 0.37323 0.0
C1310 C 0.12332 0.7818 0.39135 0.0
C1311 C 0.12407 0.77964 0.41888 0.0
C1312 C 0.12122 0.79571 0.43581 0.0
C1313 C 0.11777 0.81405 0.42546 0.0
C1314 C 0.11721 0.81637 0.39816 0.0
C1315 C 0.12001 0.80034 0.38113 0.0
H1316 H 0.11558 0.82647 0.4386 0.0
H1317 H 0.14492 0.67117 0.27378 0.0
H1318 H 0.23705 0.18137 0.30092 0.0
H1319 H 0.24118 0.15147 0.32577 0.0
H1320 H 0.28147 0.18132 0.38221 0.0
H1321 H 0.27763 0.21102 0.35692 0.0
H1322 H 0.2927 0.14489 0.37731 0.0
H1323 H 0.23275 0.17605 0.39277 0.0
H1324 H 0.20087 0.19086 0.38115 0.0
H1325 H 0.17997 0.1364 0.34613 0.0
H1326 H 0.21187 0.12133 0.35714 0.0
H1327 H 0.2781 0.08524 0.48831 0.0
H1328 H 0.27821 0.11266 0.45846 0.0
H1329 H 0.24686 0.07777 0.39735 0.0
H1330 H 0.24726 0.05017 0.42695 0.0
H1331 H 0.23144 0.11613 0.40422 0.0
H1332 H 0.29309 0.0853 0.3923 0.0
H1333 H 0.32491 0.07199 0.40775 0.0
H1334 H 0.34239 0.1281 0.44094 0.0
H1335 H 0.31052 0.14167 0.42608 0.0
C1336 C 0.24737 0.18128 0.31804 0.0
C1337 C 0.25737 0.19841 0.3266 0.0
C1338 C 0.2495 0.16426 0.33254 0.0
C1339 C 0.26137 0.16407 0.35634 0.0
C1340 C 0.27222 0.18092 0.36403 0.0
C1341 C 0.27015 0.1979 0.34943 0.0
C1342 C 0.26146 0.14691 0.37404 0.0
C1343 C 0.27927 0.13876 0.38331 0.0
C1344 C 0.24401 0.13866 0.38207 0.0
C1345 C 0.22477 0.14761 0.37551 0.0
C1346 C 0.22141 0.16726 0.38241 0.0
C1347 C 0.20333 0.1757 0.37595 0.0
C1348 C 0.18842 0.16459 0.36285 0.0
C1349 C 0.19155 0.145 0.35623 0.0
C1350 C 0.20963 0.1365 0.36257 0.0
C1351 C 0.27137 0.0834 0.46843 0.0
C1352 C 0.26275 0.0655 0.45997 0.0
C1353 C 0.2714 0.09909 0.45137 0.0
C1354 C 0.26259 0.09736 0.42551 0.0
C1355 C 0.25373 0.07956 0.41716 0.0
C1356 C 0.25398 0.06377 0.43407 0.0
C1357 C 0.26263 0.11408 0.40721 0.0
C1358 C 0.24483 0.1222 0.39799 0.0
C1359 C 0.28007 0.12253 0.39969 0.0
C1360 C 0.29934 0.11446 0.40829 0.0
C1361 C 0.30366 0.09477 0.40307 0.0
C1362 C 0.32172 0.08718 0.4117 0.0
C1363 C 0.33565 0.09918 0.42537 0.0
C1364 C 0.33157 0.11881 0.43037 0.0
C1365 C 0.31352 0.12647 0.42184 0.0
H1366 H 0.34962 0.09328 0.43203 0.0
H1367 H 0.17443 0.17114 0.35789 0.0
H1368 H 0.71982 0.75062 0.858 0.0
H1369 H 0.68885 0.75597 0.87748 0.0
H1370 H 0.66046 0.76263 0.7999 0.0
H1371 H 0.69158 0.75662 0.77994 0.0
H1372 H 0.64987 0.79075 0.84784 0.0
H1373 H 0.6535 0.7231 0.81775 0.0
H1374 H 0.67089 0.69194 0.8135 0.0
H1375 H 0.67732 0.68869 0.89806 0.0
H1376 H 0.66028 0.72003 0.90281 0.0
H1377 H 0.55657 0.78027 0.89908 0.0
H1378 H 0.58416 0.77896 0.87115 0.0
H1379 H 0.61721 0.74694 0.93063 0.0
H1380 H 0.58936 0.74751 0.95791 0.0
H1381 H 0.62389 0.73158 0.88636 0.0
H1382 H 0.62381 0.79796 0.91885 0.0
H1383 H 0.61009 0.83055 0.92707 0.0
H1384 H 0.60018 0.83776 0.84345 0.0
H1385 H 0.61362 0.80509 0.83474 0.0
C1386 C 0.70704 0.75333 0.84499 0.0
C1387 C 0.70812 0.7528 0.81734 0.0
C1388 C 0.68937 0.75651 0.85621 0.0
C1389 C 0.67236 0.75949 0.84014 0.0
C1390 C 0.67348 0.76034 0.81263 0.0
C1391 C 0.69125 0.75696 0.80127 0.0
C1392 C 0.6534 0.75997 0.85234 0.0
C1393 C 0.64387 0.77778 0.85579 0.0
C1394 C 0.64604 0.74315 0.86347 0.0
C1395 C 0.65573 0.72399 0.86063 0.0
C1396 C 0.65873 0.7158 0.83544 0.0
C1397 C 0.66852 0.6981 0.83294 0.0
C1398 C 0.67525 0.68836 0.8555 0.0
C1399 C 0.67212 0.69626 0.8806 0.0
C1400 C 0.66237 0.71398 0.88321 0.0
C1401 C 0.56977 0.773 0.90616 0.0
C1402 C 0.57082 0.764 0.93068 0.0
C1403 C 0.5856 0.77233 0.89023 0.0
C1404 C 0.60301 0.76309 0.89881 0.0
C1405 C 0.604 0.75411 0.92337 0.0
C1406 C 0.58807 0.75445 0.93903 0.0
C1407 C 0.62018 0.76251 0.88229 0.0
C1408 C 0.62952 0.7446 0.87811 0.0
C1409 C 0.62757 0.77936 0.87098 0.0
C1410 C 0.61951 0.799 0.87616 0.0
C1411 C 0.61857 0.80644 0.90222 0.0
C1412 C 0.61086 0.82493 0.90697 0.0
C1413 C 0.60421 0.83619 0.8858 0.0
C1414 C 0.6053 0.829 0.85983 0.0
C1415 C 0.61297 0.81051 0.85497 0.0
H1416 H 0.59825 0.85051 0.88951 0.0
H1417 H 0.68285 0.67467 0.85353 0.0
H1418 H 0.27553 0.69375 0.79439 0.0
H1419 H 0.26842 0.66536 0.8198 0.0
H1420 H 0.22119 0.69637 0.85344 0.0
H1421 H 0.22841 0.72501 0.82779 0.0
H1422 H 0.24453 0.67914 0.89167 0.0
H1423 H 0.21228 0.65797 0.80923 0.0
H1424 H 0.20884 0.6511 0.76109 0.0
H1425 H 0.25566 0.61002 0.76784 0.0
H1426 H 0.25957 0.61685 0.816 0.0
H1427 H 0.21599 0.59568 0.95981 0.0
H1428 H 0.21623 0.62341 0.93098 0.0
H1429 H 0.26113 0.59601 0.88789 0.0
H1430 H 0.26043 0.56788 0.91591 0.0
H1431 H 0.23602 0.61191 0.85405 0.0
H1432 H 0.27027 0.63451 0.93487 0.0
H1433 H 0.27506 0.64155 0.9829 0.0
H1434 H 0.22597 0.68 0.97911 0.0
H1435 H 0.22072 0.67298 0.93108 0.0
C1436 C 0.26329 0.69434 0.80667 0.0
C1437 C 0.25234 0.71154 0.80875 0.0
C1438 C 0.25924 0.67808 0.82129 0.0
C1439 C 0.24416 0.67851 0.83857 0.0
C1440 C 0.23287 0.69556 0.84025 0.0
C1441 C 0.23684 0.71186 0.82536 0.0
C1442 C 0.24104 0.66153 0.85573 0.0
C1443 C 0.24226 0.6645 0.88338 0.0
C1444 C 0.23865 0.64224 0.84517 0.0
C1445 C 0.23631 0.63804 0.81622 0.0
C1446 C 0.22194 0.64758 0.80043 0.0
C1447 C 0.21989 0.64367 0.77314 0.0
C1448 C 0.23205 0.63016 0.76141 0.0
C1449 C 0.24626 0.62049 0.77696 0.0
C1450 C 0.24838 0.62436 0.80426 0.0
C1451 C 0.2258 0.59537 0.94405 0.0
C1452 C 0.23825 0.57936 0.94048 0.0
C1453 C 0.22607 0.61145 0.92766 0.0
C1454 C 0.2389 0.61212 0.90729 0.0
C1455 C 0.25112 0.59604 0.90342 0.0
C1456 C 0.25084 0.57996 0.91975 0.0
C1457 C 0.23966 0.62947 0.89004 0.0
C1458 C 0.23807 0.62657 0.86237 0.0
C1459 C 0.24186 0.64881 0.90059 0.0
C1460 C 0.24497 0.65305 0.92944 0.0
C1461 C 0.2604 0.64434 0.94432 0.0
C1462 C 0.26322 0.64835 0.97153 0.0
C1463 C 0.25079 0.66117 0.98406 0.0
C1464 C 0.23555 0.67004 0.96939 0.0
C1465 C 0.23266 0.66607 0.94217 0.0
H1466 H 0.253 0.66426 0.00513 0.0
H1467 H 0.23044 0.62716 0.74027 0.0
H1468 H 0.31488 0.25745 0.80906 0.0
H1469 H 0.34699 0.25028 0.83054 0.0
H1470 H 0.32433 0.25978 0.90705 0.0
H1471 H 0.29237 0.26671 0.88587 0.0
H1472 H 0.35768 0.2797 0.90346 0.0
H1473 H 0.33432 0.21429 0.8836 0.0
H1474 H 0.32133 0.18723 0.8544 0.0
H1475 H 0.3718 0.18934 0.80958 0.0
H1476 H 0.38497 0.21662 0.83831 0.0
H1477 H 0.43167 0.2454 0.99159 0.0
H1478 H 0.40059 0.24817 0.96533 0.0
H1479 H 0.42979 0.23697 0.8938 0.0
H1480 H 0.46087 0.23386 0.92032 0.0
H1481 H 0.39464 0.21849 0.89156 0.0
H1482 H 0.41884 0.28264 0.91223 0.0
H1483 H 0.43229 0.30947 0.94145 0.0
H1484 H 0.3805 0.31023 0.98379 0.0
H1485 H 0.36688 0.28313 0.95513 0.0
C1486 C 0.31669 0.25771 0.83045 0.0
C1487 C 0.30109 0.26284 0.84573 0.0
C1488 C 0.33506 0.25366 0.84271 0.0
C1489 C 0.33809 0.25455 0.87044 0.0
C1490 C 0.32241 0.25918 0.88565 0.0
C1491 C 0.30414 0.26318 0.87348 0.0
C1492 C 0.35766 0.25139 0.88389 0.0
C1493 C 0.36565 0.26623 0.90104 0.0
C1494 C 0.36839 0.23408 0.88012 0.0
C1495 C 0.36052 0.21764 0.86291 0.0
C1496 C 0.34257 0.2091 0.86738 0.0
C1497 C 0.33519 0.1937 0.85094 0.0
C1498 C 0.3457 0.18661 0.8301 0.0
C1499 C 0.36365 0.19487 0.8257 0.0
C1500 C 0.37109 0.21029 0.84206 0.0
C1501 C 0.43131 0.24334 0.97029 0.0
C1502 C 0.44847 0.23946 0.95783 0.0
C1503 C 0.41364 0.24498 0.95529 0.0
C1504 C 0.41289 0.24305 0.92753 0.0
C1505 C 0.43001 0.23853 0.91515 0.0
C1506 C 0.44771 0.23681 0.93021 0.0
C1507 C 0.39439 0.24663 0.91156 0.0
C1508 C 0.38668 0.23198 0.89386 0.0
C1509 C 0.38391 0.26418 0.91469 0.0
C1510 C 0.3919 0.28074 0.93165 0.0
C1511 C 0.41036 0.28845 0.92787 0.0
C1512 C 0.41801 0.30371 0.94433 0.0
C1513 C 0.40726 0.31153 0.96449 0.0
C1514 C 0.38881 0.30414 0.96818 0.0
C1515 C 0.38111 0.28883 0.95182 0.0
H1516 H 0.41322 0.32334 0.97722 0.0
H1517 H 0.33996 0.17468 0.8174 0.0
H1518 H 0.7233 0.3234 0.79986 0.0
H1519 H 0.72886 0.35455 0.82417 0.0
H1520 H 0.7818 0.3319 0.86179 0.0
H1521 H 0.77654 0.30106 0.83653 0.0
H1522 H 0.72805 0.36249 0.8728 0.0
H1523 H 0.81219 0.36778 0.88651 0.0
H1524 H 0.84079 0.35955 0.86175 0.0
H1525 H 0.80604 0.36281 0.78841 0.0
H1526 H 0.77729 0.37131 0.81271 0.0
H1527 H 0.75311 0.4279 0.98055 0.0
H1528 H 0.75165 0.39938 0.94998 0.0
H1529 H 0.77409 0.43396 0.88955 0.0
H1530 H 0.77592 0.46237 0.92048 0.0
H1531 H 0.78997 0.39923 0.88721 0.0
H1532 H 0.72513 0.42263 0.89013 0.0
H1533 H 0.69567 0.43344 0.91124 0.0
H1534 H 0.68978 0.377 0.94345 0.0
H1535 H 0.71944 0.36595 0.92293 0.0
C1536 C 0.73648 0.32538 0.81259 0.0
C1537 C 0.74972 0.30996 0.81582 0.0
C1538 C 0.73955 0.34312 0.82681 0.0
C1539 C 0.75581 0.34585 0.84497 0.0
C1540 C 0.76935 0.33055 0.8476 0.0
C1541 C 0.7664 0.31288 0.83306 0.0
C1542 C 0.75776 0.36407 0.86234 0.0
C1543 C 0.74163 0.37047 0.87582 0.0
C1544 C 0.77532 0.3749 0.86628 0.0
C1545 C 0.79255 0.36999 0.85146 0.0
C1546 C 0.81067 0.36681 0.8651 0.0
C1547 C 0.82691 0.36209 0.85114 0.0
C1548 C 0.82522 0.3606 0.82353 0.0
C1549 C 0.80731 0.3639 0.8098 0.0
C1550 C 0.79104 0.36864 0.82366 0.0
C1551 C 0.75781 0.42932 0.96077 0.0
C1552 C 0.76457 0.44731 0.95282 0.0
C1553 C 0.75691 0.41305 0.94322 0.0
C1554 C 0.76249 0.41443 0.91715 0.0
C1555 C 0.76967 0.43238 0.90945 0.0
C1556 C 0.77067 0.44865 0.92707 0.0
C1557 C 0.76036 0.39735 0.89784 0.0
C1558 C 0.77642 0.39119 0.88409 0.0
C1559 C 0.7426 0.38701 0.89307 0.0
C1560 C 0.72461 0.39352 0.90518 0.0
C1561 C 0.71763 0.41256 0.90186 0.0
C1562 C 0.70089 0.41873 0.91371 0.0
C1563 C 0.69088 0.40592 0.92872 0.0
C1564 C 0.69757 0.38691 0.93185 0.0
C1565 C 0.71434 0.38068 0.9201 0.0
H1566 H 0.67792 0.41073 0.93788 0.0
H1567 H 0.8378 0.35692 0.81276 0.0
H1568 H 0.70971 0.23253 0.20625 0.0
H1569 H 0.67829 0.22537 0.18202 0.0
H1570 H 0.65236 0.27348 0.22337 0.0
H1571 H 0.68398 0.28104 0.24703 0.0
H1572 H 0.62855 0.23423 0.21169 0.0
H1573 H 0.66442 0.28633 0.17322 0.0
H1574 H 0.69457 0.29951 0.15729 0.0
H1575 H 0.69597 0.2523 0.09977 0.0
H1576 H 0.66607 0.23858 0.11585 0.0
H1577 H 0.5459 0.25319 0.12487 0.0
H1578 H 0.5747 0.25496 0.15603 0.0
H1579 H 0.60882 0.2276 0.09694 0.0
H1580 H 0.58021 0.22697 0.06537 0.0
H1581 H 0.62889 0.25516 0.11903 0.0
H1582 H 0.59305 0.20357 0.15326 0.0
H1583 H 0.56466 0.1873 0.16972 0.0
H1584 H 0.56415 0.22937 0.23425 0.0
H1585 H 0.59239 0.24607 0.21796 0.0
C1586 C 0.69712 0.24113 0.21075 0.0
C1587 C 0.69908 0.25718 0.22859 0.0
C1588 C 0.67925 0.23708 0.1969 0.0
C1589 C 0.66306 0.2489 0.20095 0.0
C1590 C 0.66467 0.26411 0.22017 0.0
C1591 C 0.68265 0.2684 0.23365 0.0
C1592 C 0.64538 0.24703 0.18268 0.0
C1593 C 0.62845 0.23897 0.1915 0.0
C1594 C 0.64556 0.25273 0.15619 0.0
C1595 C 0.66315 0.26131 0.14594 0.0
C1596 C 0.67126 0.27867 0.15734 0.0
C1597 C 0.68829 0.28624 0.14827 0.0
C1598 C 0.6972 0.27672 0.12757 0.0
C1599 C 0.68906 0.25964 0.11583 0.0
C1600 C 0.67208 0.25195 0.12492 0.0
C1601 C 0.5596 0.24759 0.11866 0.0
C1602 C 0.56094 0.24001 0.09279 0.0
C1603 C 0.57602 0.24842 0.13651 0.0
C1604 C 0.59399 0.24114 0.12908 0.0
C1605 C 0.5952 0.23333 0.10324 0.0
C1606 C 0.57886 0.23285 0.08525 0.0
C1607 C 0.61167 0.24231 0.14784 0.0
C1608 C 0.62876 0.25031 0.13914 0.0
C1609 C 0.61167 0.23623 0.17432 0.0
C1610 C 0.59473 0.22618 0.18425 0.0
C1611 C 0.5868 0.20944 0.17086 0.0
C1612 C 0.57075 0.20012 0.18017 0.0
C1613 C 0.56258 0.20732 0.20298 0.0
C1614 C 0.57048 0.22382 0.21657 0.0
C1615 C 0.58652 0.23321 0.20732 0.0
H1616 H 0.55014 0.20009 0.21016 0.0
H1617 H 0.7104 0.2826 0.12059 0.0
H1618 H 0.71751 0.68707 0.22085 0.0
H1619 H 0.72412 0.65618 0.19776 0.0
H1620 H 0.77803 0.6797 0.17421 0.0
H1621 H 0.77171 0.71032 0.19839 0.0
H1622 H 0.72518 0.64817 0.14931 0.0
H1623 H 0.80936 0.64411 0.15722 0.0
H1624 H 0.8369 0.6532 0.18893 0.0
H1625 H 0.79992 0.64986 0.25331 0.0
H1626 H 0.77222 0.6405 0.22203 0.0
H1627 H 0.75375 0.58139 0.05029 0.0
H1628 H 0.75162 0.61047 0.07942 0.0
H1629 H 0.77159 0.57705 0.14643 0.0
H1630 H 0.7741 0.54807 0.11703 0.0
H1631 H 0.78748 0.61206 0.15171 0.0
H1632 H 0.72302 0.5879 0.13297 0.0
H1633 H 0.69449 0.57645 0.10465 0.0
H1634 H 0.68977 0.63225 0.06934 0.0
H1635 H 0.71852 0.64392 0.09711 0.0
C1636 C 0.73105 0.68539 0.21142 0.0
C1637 C 0.74424 0.70101 0.21181 0.0
C1638 C 0.73475 0.66778 0.19792 0.0
C1639 C 0.75163 0.66533 0.18407 0.0
C1640 C 0.76509 0.68084 0.18506 0.0
C1641 C 0.76151 0.6984 0.19896 0.0
C1642 C 0.75439 0.64709 0.16741 0.0
C1643 C 0.73885 0.64034 0.14997 0.0
C1644 C 0.77206 0.63646 0.16821 0.0
C1645 C 0.78868 0.64179 0.18723 0.0
C1646 C 0.80713 0.64523 0.17815 0.0
C1647 C 0.82276 0.65045 0.19605 0.0
C1648 C 0.82015 0.65217 0.22311 0.0
C1649 C 0.80191 0.64859 0.23234 0.0
C1650 C 0.78623 0.64336 0.21453 0.0
C1651 C 0.75781 0.58035 0.07122 0.0
C1652 C 0.76405 0.56251 0.08145 0.0
C1653 C 0.75652 0.59694 0.08792 0.0
C1654 C 0.76117 0.59604 0.11536 0.0
C1655 C 0.7679 0.57825 0.12544 0.0
C1656 C 0.76928 0.56167 0.10867 0.0
C1657 C 0.75837 0.61341 0.13353 0.0
C1658 C 0.77386 0.61996 0.15115 0.0
C1659 C 0.74049 0.6236 0.13345 0.0
C1660 C 0.72304 0.61673 0.11696 0.0
C1661 C 0.71598 0.59769 0.11904 0.0
C1662 C 0.69976 0.59116 0.1031 0.0
C1663 C 0.69034 0.60361 0.08517 0.0
C1664 C 0.6971 0.62262 0.08321 0.0
C1665 C 0.71335 0.6292 0.09905 0.0
H1666 H 0.67779 0.59853 0.07284 0.0
H1667 H 0.83226 0.65624 0.23692 0.0
H1668 H 0.28848 0.77133 0.18714 0.0
H1669 H 0.31631 0.77985 0.16192 0.0
H1670 H 0.35089 0.73598 0.20164 0.0
H1671 H 0.32323 0.72746 0.22666 0.0
H1672 H 0.37211 0.76921 0.19542 0.0
H1673 H 0.3296 0.72552 0.14262 0.0
H1674 H 0.29833 0.71464 0.12042 0.0
H1675 H 0.29639 0.7655 0.07354 0.0
H1676 H 0.32754 0.77683 0.09578 0.0
H1677 H 0.4446 0.74524 0.10738 0.0
H1678 H 0.41706 0.7448 0.1352 0.0
H1679 H 0.38841 0.78884 0.08825 0.0
H1680 H 0.41586 0.78915 0.06003 0.0
H1681 H 0.36358 0.75906 0.09794 0.0
H1682 H 0.40854 0.80086 0.14876 0.0
H1683 H 0.44017 0.8105 0.17106 0.0
H1684 H 0.43795 0.76198 0.22181 0.0
H1685 H 0.40642 0.75188 0.19954 0.0
C1686 C 0.30218 0.76386 0.19086 0.0
C1687 C 0.30372 0.74873 0.2088 0.0
C1688 C 0.31801 0.76861 0.17633 0.0
C1689 C 0.33566 0.75841 0.17968 0.0
C1690 C 0.33747 0.74405 0.19868 0.0
C1691 C 0.32165 0.73917 0.21293 0.0
C1692 C 0.35188 0.76168 0.1624 0.0
C1693 C 0.37027 0.76691 0.17412 0.0
C1694 C 0.34945 0.75896 0.13455 0.0
C1695 C 0.33077 0.75215 0.12109 0.0
C1696 C 0.32242 0.73447 0.12775 0.0
C1697 C 0.30474 0.72821 0.11513 0.0
C1698 C 0.29535 0.7394 0.09564 0.0
C1699 C 0.30366 0.75686 0.08868 0.0
C1700 C 0.32133 0.76322 0.10128 0.0
C1701 C 0.43242 0.7548 0.10289 0.0
C1702 C 0.43247 0.76724 0.08144 0.0
C1703 C 0.41673 0.75465 0.11897 0.0
C1704 C 0.4007 0.76692 0.11401 0.0
C1705 C 0.40063 0.77929 0.09254 0.0
C1706 C 0.41641 0.77956 0.07654 0.0
C1707 C 0.38389 0.76648 0.13097 0.0
C1708 C 0.36539 0.76167 0.11919 0.0
C1709 C 0.38626 0.76945 0.1588 0.0
C1710 C 0.40518 0.77552 0.17232 0.0
C1711 C 0.41486 0.79216 0.16454 0.0
C1712 C 0.43276 0.79772 0.1772 0.0
C1713 C 0.44108 0.78683 0.1978 0.0
C1714 C 0.43149 0.77039 0.20583 0.0
C1715 C 0.4136 0.76475 0.19321 0.0
H1716 H 0.45494 0.79116 0.20758 0.0
H1717 H 0.28166 0.73452 0.08589 0.0
H1718 H 0.28527 0.31942 0.23772 0.0
H1719 H 0.27711 0.34794 0.21205 0.0
H1720 H 0.22216 0.32179 0.1848 0.0
H1721 H 0.23066 0.2927 0.2102 0.0
H1722 H 0.2384 0.33622 0.14417 0.0
H1723 H 0.2258 0.36246 0.22944 0.0
H1724 H 0.23242 0.37017 0.27707 0.0
H1725 H 0.28213 0.40413 0.26066 0.0
H1726 H 0.27597 0.39641 0.21294 0.0
H1727 H 0.21879 0.44707 0.11758 0.0
H1728 H 0.21936 0.41936 0.14665 0.0
H1729 H 0.26218 0.39119 0.10062 0.0
H1730 H 0.26137 0.41862 0.07114 0.0
H1731 H 0.24692 0.40422 0.17891 0.0
H1732 H 0.25646 0.34188 0.1008 0.0
H1733 H 0.24719 0.33437 0.05367 0.0
H1734 H 0.19843 0.37299 0.05688 0.0
H1735 H 0.20723 0.38051 0.1041 0.0
C1736 C 0.27126 0.31984 0.22666 0.0
C1737 C 0.2586 0.30373 0.22614 0.0
C1738 C 0.26656 0.33627 0.21197 0.0
C1739 C 0.24891 0.3373 0.19643 0.0
C1740 C 0.23588 0.32148 0.19656 0.0
C1741 C 0.24062 0.30492 0.21136 0.0
C1742 C 0.2448 0.3544 0.17913 0.0
C1743 C 0.24019 0.35106 0.15188 0.0
C1744 C 0.2468 0.37395 0.18893 0.0
C1745 C 0.25048 0.37874 0.21761 0.0
C1746 C 0.23821 0.37147 0.23599 0.0
C1747 C 0.24188 0.37586 0.26301 0.0
C1748 C 0.2577 0.3876 0.27189 0.0
C1749 C 0.26988 0.39503 0.25375 0.0
C1750 C 0.26629 0.39068 0.22672 0.0
C1751 C 0.22819 0.43491 0.1134 0.0
C1752 C 0.23999 0.43522 0.0918 0.0
C1753 C 0.22861 0.41907 0.13025 0.0
C1754 C 0.24067 0.40294 0.12587 0.0
C1755 C 0.25253 0.40324 0.10439 0.0
C1756 C 0.25219 0.41911 0.08762 0.0
C1757 C 0.24109 0.38599 0.1439 0.0
C1758 C 0.24503 0.38937 0.17125 0.0
C1759 C 0.23818 0.36652 0.13425 0.0
C1760 C 0.23263 0.36189 0.10594 0.0
C1761 C 0.24371 0.3487 0.09148 0.0
C1762 C 0.23855 0.34446 0.06474 0.0
C1763 C 0.22227 0.35325 0.05227 0.0
C1764 C 0.21107 0.36625 0.06654 0.0
C1765 C 0.21616 0.37052 0.09328 0.0
H1766 H 0.21831 0.34995 0.03157 0.0
H1767 H 0.26052 0.39098 0.29281 0.0
H1768 H 0.30035 0.22622 0.2165 0.0
H1769 H 0.32949 0.21811 0.19302 0.0
H1770 H 0.35478 0.27359 0.21841 0.0
H1771 H 0.32582 0.28165 0.24174 0.0
H1772 H 0.34218 0.23746 0.15172 0.0
H1773 H 0.40408 0.2699 0.22382 0.0
H1774 H 0.41237 0.27323 0.27188 0.0
H1775 H 0.37697 0.22351 0.28447 0.0
H1776 H 0.3687 0.2197 0.23649 0.0
H1777 H 0.42318 0.26306 0.08227 0.0
H1778 H 0.39668 0.26301 0.11177 0.0
H1779 H 0.4244 0.21641 0.15481 0.0
H1780 H 0.45136 0.21684 0.12594 0.0
H1781 H 0.41067 0.24261 0.18841 0.0
H1782 H 0.38501 0.20771 0.11056 0.0
H1783 H 0.37685 0.20226 0.06275 0.0
H1784 H 0.33972 0.25237 0.06232 0.0
H1785 H 0.34786 0.25829 0.11007 0.0
C1786 C 0.31239 0.2364 0.21764 0.0
C1787 C 0.31088 0.25452 0.23101 0.0
C1788 C 0.32894 0.23185 0.20404 0.0
C1789 C 0.34438 0.24522 0.20393 0.0
C1790 C 0.34321 0.26293 0.21838 0.0
C1791 C 0.32665 0.26754 0.23171 0.0
C1792 C 0.36102 0.2415 0.18718 0.0
C1793 C 0.35715 0.23847 0.15979 0.0
C1794 C 0.3806 0.24256 0.19765 0.0
C1795 C 0.38565 0.24463 0.22655 0.0
C1796 C 0.39814 0.25963 0.23683 0.0
C1797 C 0.40282 0.26161 0.26407 0.0
C1798 C 0.39516 0.24862 0.28122 0.0
C1799 C 0.38284 0.2336 0.27117 0.0
C1800 C 0.37813 0.23154 0.24396 0.0
C1801 C 0.4238 0.25292 0.09817 0.0
C1802 C 0.43947 0.23992 0.10161 0.0
C1803 C 0.40848 0.25277 0.11488 0.0
C1804 C 0.40834 0.23952 0.13536 0.0
C1805 C 0.42408 0.22671 0.13911 0.0
C1806 C 0.43943 0.22687 0.1224 0.0
C1807 C 0.39181 0.23912 0.15286 0.0
C1808 C 0.3957 0.24144 0.18037 0.0
C1809 C 0.37225 0.23714 0.14254 0.0
C1810 C 0.36716 0.23351 0.11387 0.0
C1811 C 0.37519 0.21763 0.10024 0.0
C1812 C 0.37056 0.21445 0.07315 0.0
C1813 C 0.3578 0.22698 0.0595 0.0
C1814 C 0.34961 0.24269 0.07292 0.0
C1815 C 0.35421 0.24595 0.10001 0.0
H1816 H 0.35424 0.2245 0.03852 0.0
H1817 H 0.39879 0.25019 0.3023 0.0
H1818 H 0.7406 0.29254 0.17837 0.0
H1819 H 0.74915 0.32172 0.15595 0.0
H1820 H 0.77709 0.34557 0.22879 0.0
H1821 H 0.76787 0.31647 0.25171 0.0
H1822 H 0.75325 0.37144 0.20636 0.0
H1823 H 0.80398 0.33149 0.17669 0.0
H1824 H 0.81911 0.30208 0.15808 0.0
H1825 H 0.78479 0.30813 0.08488 0.0
H1826 H 0.76922 0.33742 0.10316 0.0
H1827 H 0.78209 0.45282 0.13228 0.0
H1828 H 0.78374 0.42424 0.15998 0.0
H1829 H 0.74934 0.39151 0.09948 0.0
H1830 H 0.74776 0.41989 0.07169 0.0
H1831 H 0.78201 0.37144 0.11939 0.0
H1832 H 0.7285 0.40868 0.15206 0.0
H1833 H 0.71329 0.43795 0.17096 0.0
H1834 H 0.75384 0.43686 0.23913 0.0
H1835 H 0.76947 0.4077 0.22043 0.0
C1836 C 0.74868 0.30393 0.18962 0.0
C1837 C 0.75341 0.30231 0.21687 0.0
C1838 C 0.75375 0.32054 0.1767 0.0
C1839 C 0.76392 0.33579 0.19062 0.0
C1840 C 0.76929 0.33394 0.21766 0.0
C1841 C 0.76415 0.31728 0.23067 0.0
C1842 C 0.76747 0.35414 0.17717 0.0
C1843 C 0.75999 0.37152 0.18766 0.0
C1844 C 0.77596 0.3542 0.15256 0.0
C1845 C 0.78535 0.33662 0.14138 0.0
C1846 C 0.79955 0.32649 0.15669 0.0
C1847 C 0.80823 0.30984 0.14618 0.0
C1848 C 0.8029 0.30323 0.12033 0.0
C1849 C 0.7889 0.31327 0.1049 0.0
C1850 C 0.78018 0.32992 0.11531 0.0
C1851 C 0.77491 0.43951 0.12492 0.0
C1852 C 0.76471 0.43859 0.09989 0.0
C1853 C 0.77581 0.42325 0.14077 0.0
C1854 C 0.76663 0.40581 0.13176 0.0
C1855 C 0.75653 0.40484 0.10675 0.0
C1856 C 0.75549 0.42111 0.09102 0.0
C1857 C 0.76737 0.38849 0.14831 0.0
C1858 C 0.77565 0.37136 0.13836 0.0
C1859 C 0.7597 0.38867 0.17345 0.0
C1860 C 0.75031 0.40617 0.18469 0.0
C1861 C 0.73429 0.41479 0.17096 0.0
C1862 C 0.72557 0.43134 0.18166 0.0
C1863 C 0.73263 0.4393 0.20619 0.0
C1864 C 0.74841 0.4307 0.2201 0.0
C1865 C 0.7572 0.41416 0.20947 0.0
H1866 H 0.72585 0.45211 0.21445 0.0
H1867 H 0.80963 0.29033 0.11223 0.0
H1868 H 0.68416 0.76514 0.23568 0.0
H1869 H 0.65351 0.77378 0.21127 0.0
H1870 H 0.67804 0.75751 0.13774 0.0
H1871 H 0.70862 0.74915 0.16195 0.0
H1872 H 0.65526 0.78953 0.13238 0.0
H1873 H 0.65094 0.7256 0.16829 0.0
H1874 H 0.65244 0.70211 0.20401 0.0
H1875 H 0.60746 0.73324 0.24187 0.0
H1876 H 0.60591 0.7571 0.20653 0.0
H1877 H 0.57541 0.76163 0.04417 0.0
H1878 H 0.60523 0.76267 0.07362 0.0
H1879 H 0.57164 0.77921 0.13947 0.0
H1880 H 0.54176 0.77798 0.10987 0.0
H1881 H 0.59766 0.75085 0.15229 0.0
H1882 H 0.59925 0.81253 0.11244 0.0
H1883 H 0.59761 0.8351 0.07564 0.0
H1884 H 0.64754 0.80785 0.04441 0.0
H1885 H 0.6493 0.78489 0.08079 0.0
C1886 C 0.68311 0.76386 0.21428 0.0
C1887 C 0.69868 0.7563 0.20071 0.0
C1888 C 0.66557 0.76865 0.20037 0.0
C1889 C 0.66338 0.766 0.17269 0.0
C1890 C 0.67935 0.75962 0.15907 0.0
C1891 C 0.69678 0.75475 0.17293 0.0
C1892 C 0.64418 0.76842 0.15789 0.0
C1893 C 0.64268 0.78104 0.13668 0.0
C1894 C 0.62763 0.75762 0.16379 0.0
C1895 C 0.62848 0.74326 0.18496 0.0
C1896 C 0.64149 0.72752 0.18435 0.0
C1897 C 0.64233 0.71413 0.2045 0.0
C1898 C 0.63009 0.71622 0.22524 0.0
C1899 C 0.61696 0.73167 0.22582 0.0
C1900 C 0.61609 0.74513 0.20574 0.0
C1901 C 0.57451 0.76556 0.06492 0.0
C1902 C 0.55649 0.76985 0.07489 0.0
C1903 C 0.59149 0.76623 0.0817 0.0
C1904 C 0.59071 0.77127 0.10872 0.0
C1905 C 0.57259 0.77537 0.1187 0.0
C1906 C 0.5556 0.77474 0.10187 0.0
C1907 C 0.6088 0.77176 0.12652 0.0
C1908 C 0.61011 0.75962 0.14826 0.0
C1909 C 0.62518 0.78296 0.12103 0.0
C1910 C 0.62432 0.79689 0.09927 0.0
C1911 C 0.60981 0.81126 0.09763 0.0
C1912 C 0.60886 0.82413 0.07685 0.0
C1913 C 0.62244 0.82289 0.05768 0.0
C1914 C 0.63702 0.80879 0.05928 0.0
C1915 C 0.63802 0.79585 0.07999 0.0
H1916 H 0.62168 0.83286 0.0416 0.0
H1917 H 0.63076 0.70583 0.24083 0.0
H1918 H 0.28476 0.68075 0.24214 0.0
H1919 H 0.27976 0.64805 0.22196 0.0
H1920 H 0.23015 0.6689 0.17445 0.0
H1921 H 0.23459 0.70126 0.19571 0.0
H1922 H 0.22421 0.63273 0.18416 0.0
H1923 H 0.27639 0.66896 0.15257 0.0
H1924 H 0.30679 0.68806 0.15654 0.0
H1925 H 0.3378 0.63892 0.18799 0.0
H1926 H 0.30749 0.61963 0.18468 0.0
H1927 H 0.23431 0.57785 0.06317 0.0
H1928 H 0.23679 0.60491 0.09612 0.0
H1929 H 0.26637 0.56751 0.15232 0.0
H1930 H 0.26321 0.54015 0.11965 0.0
H1931 H 0.28291 0.60951 0.14127 0.0
H1932 H 0.22684 0.57302 0.16648 0.0
H1933 H 0.1954 0.55652 0.15566 0.0
H1934 H 0.1706 0.60991 0.12773 0.0
H1935 H 0.20203 0.62664 0.13792 0.0
C1936 C 0.27242 0.67805 0.22807 0.0
C1937 C 0.26003 0.6933 0.22033 0.0
C1938 C 0.26965 0.65949 0.2164 0.0
C1939 C 0.2549 0.65618 0.19618 0.0
C1940 C 0.24165 0.67112 0.18994 0.0
C1941 C 0.24417 0.68957 0.20204 0.0
C1942 C 0.25458 0.63803 0.1795 0.0
C1943 C 0.23706 0.62767 0.17486 0.0
C1944 C 0.27131 0.63148 0.16708 0.0
C1945 C 0.28964 0.64292 0.16867 0.0
C1946 C 0.28968 0.66226 0.16048 0.0
C1947 C 0.30688 0.67313 0.16261 0.0
C1948 C 0.3242 0.66472 0.17256 0.0
C1949 C 0.32436 0.64542 0.18034 0.0
C1950 C 0.30717 0.63452 0.17835 0.0
C1951 C 0.24135 0.57549 0.08257 0.0
C1952 C 0.24864 0.55709 0.08904 0.0
C1953 C 0.24276 0.59086 0.10126 0.0
C1954 C 0.25172 0.58807 0.12651 0.0
C1955 C 0.25944 0.56983 0.13285 0.0
C1956 C 0.25768 0.55432 0.11429 0.0
C1957 C 0.25267 0.60428 0.14631 0.0
C1958 C 0.27024 0.61438 0.15119 0.0
C1959 C 0.23587 0.61095 0.15819 0.0
C1960 C 0.21683 0.60103 0.15276 0.0
C1961 C 0.21473 0.5812 0.15784 0.0
C1962 C 0.19691 0.57182 0.15185 0.0
C1963 C 0.18102 0.58215 0.14096 0.0
C1964 C 0.18292 0.60192 0.13615 0.0
C1965 C 0.20073 0.61136 0.14205 0.0
H1966 H 0.16724 0.57486 0.13631 0.0
H1967 H 0.33751 0.67316 0.1742 0.0
H1968 H 0.32103 0.74529 0.77361 0.0
H1969 H 0.35353 0.74956 0.79634 0.0
H1970 H 0.32775 0.77656 0.86352 0.0
H1971 H 0.29539 0.77226 0.8408 0.0
H1972 H 0.36254 0.79389 0.85421 0.0
H1973 H 0.33676 0.72957 0.86286 0.0
H1974 H 0.3229 0.69808 0.84618 0.0
H1975 H 0.37442 0.68588 0.80571 0.0
H1976 H 0.38843 0.7175 0.82175 0.0
H1977 H 0.42827 0.77425 0.96324 0.0
H1978 H 0.39951 0.77437 0.93188 0.0
H1979 H 0.43341 0.74947 0.87086 0.0
H1980 H 0.4623 0.74958 0.90228 0.0
H1981 H 0.39666 0.7318 0.873 0.0
H1982 H 0.42371 0.79557 0.86936 0.0
H1983 H 0.43706 0.82666 0.8883 0.0
H1984 H 0.38271 0.83965 0.92134 0.0
H1985 H 0.36913 0.80843 0.90304 0.0
C1986 C 0.32247 0.75267 0.79287 0.0
C1987 C 0.30589 0.75863 0.80548 0.0
C1988 C 0.34095 0.75498 0.80591 0.0
C1989 C 0.34303 0.7632 0.83174 0.0
C1990 C 0.3265 0.77024 0.8436 0.0
C1991 C 0.30806 0.76782 0.83065 0.0
C1992 C 0.36201 0.7628 0.84749 0.0
C1993 C 0.36998 0.78032 0.85838 0.0
C1994 C 0.37184 0.7451 0.85267 0.0
C1995 C 0.36354 0.726 0.84322 0.0
C1996 C 0.34506 0.72024 0.85021 0.0
C1997 C 0.33718 0.70236 0.8409 0.0
C1998 C 0.34775 0.69001 0.82483 0.0
C1999 C 0.36623 0.69549 0.8181 0.0
C2000 C 0.37415 0.71339 0.82729 0.0
C2001 C 0.42949 0.76876 0.94314 0.0
C2002 C 0.44735 0.76187 0.93505 0.0
C2003 C 0.41313 0.76887 0.92526 0.0
C2004 C 0.41438 0.76208 0.89898 0.0
C2005 C 0.43216 0.75478 0.89103 0.0
C2006 C 0.44858 0.75483 0.9089 0.0
C2007 C 0.39711 0.76287 0.87986 0.0
C2008 C 0.38942 0.7454 0.86845 0.0
C2009 C 0.38746 0.7806 0.87438 0.0
C2010 C 0.39545 0.79957 0.88499 0.0
C2011 C 0.41464 0.80498 0.88082 0.0
C2012 C 0.42225 0.82264 0.89143 0.0
C2013 C 0.41075 0.83511 0.90605 0.0
C2014 C 0.3916 0.82996 0.91002 0.0
C2015 C 0.38394 0.81229 0.89952 0.0
H2016 H 0.41667 0.84877 0.91425 0.0
H2017 H 0.34163 0.67616 0.81765 0.0
H2018 H 0.24855 0.29991 0.88485 0.0
H2019 H 0.23807 0.33133 0.903 0.0
H2020 H 0.22907 0.35259 0.82406 0.0
H2021 H 0.23947 0.32106 0.80579 0.0
H2022 H 0.25358 0.37594 0.85818 0.0
H2023 H 0.19074 0.34692 0.85745 0.0
H2024 H 0.16681 0.32167 0.8659 0.0
H2025 H 0.18096 0.32886 0.94948 0.0
H2026 H 0.2052 0.35397 0.94153 0.0
H2027 H 0.22568 0.46776 0.91127 0.0
H2028 H 0.2234 0.43704 0.88491 0.0
H2029 H 0.22943 0.40493 0.95669 0.0
H2030 H 0.23147 0.43566 0.98288 0.0
H2031 H 0.20258 0.38825 0.92102 0.0
H2032 H 0.26797 0.41283 0.92241 0.0
H2033 H 0.29317 0.43726 0.91578 0.0
H2034 H 0.27574 0.43722 0.83281 0.0
H2035 H 0.25019 0.413 0.83903 0.0
C2036 C 0.24398 0.31119 0.8714 0.0
C2037 C 0.24484 0.30817 0.84398 0.0
C2038 C 0.23792 0.32906 0.88174 0.0
C2039 C 0.23275 0.34422 0.86483 0.0
C2040 C 0.23293 0.34101 0.83737 0.0
C2041 C 0.23877 0.32303 0.82699 0.0
C2042 C 0.22908 0.36387 0.87613 0.0
C2043 C 0.24212 0.3788 0.8714 0.0
C2044 C 0.21449 0.36733 0.89395 0.0
C2045 C 0.1999 0.35225 0.89886 0.0
C2046 C 0.18887 0.34301 0.87762 0.0
C2047 C 0.17523 0.32874 0.88233 0.0
C2048 C 0.17239 0.32364 0.9082 0.0
C2049 C 0.18317 0.33283 0.92944 0.0
C2050 C 0.19685 0.3471 0.92485 0.0
C2051 C 0.22627 0.45407 0.92122 0.0
C2052 C 0.22879 0.45379 0.94886 0.0
C2053 C 0.225 0.43661 0.90628 0.0
C2054 C 0.22639 0.41874 0.91888 0.0
C2055 C 0.22825 0.41856 0.94661 0.0
C2056 C 0.22951 0.43601 0.96152 0.0
C2057 C 0.22721 0.40021 0.90326 0.0
C2058 C 0.21375 0.3855 0.90733 0.0
C2059 C 0.24158 0.39683 0.88506 0.0
C2060 C 0.25701 0.41129 0.88124 0.0
C2061 C 0.2694 0.41815 0.90278 0.0
C2062 C 0.28376 0.43194 0.8991 0.0
C2063 C 0.28601 0.43883 0.8739 0.0
C2064 C 0.27394 0.4319 0.85232 0.0
C2065 C 0.25952 0.41815 0.85592 0.0
H2066 H 0.29715 0.4495 0.87108 0.0
H2067 H 0.16181 0.31259 0.9118 0.0
H2068 H 0.69166 0.24048 0.79075 0.0
H2069 H 0.66319 0.23123 0.8141 0.0
H2070 H 0.69079 0.25489 0.88725 0.0
H2071 H 0.71937 0.2632 0.86439 0.0
H2072 H 0.67156 0.22495 0.89823 0.0
H2073 H 0.65665 0.28089 0.84583 0.0
H2074 H 0.65282 0.29913 0.80478 0.0
H2075 H 0.61027 0.25774 0.77217 0.0
H2076 H 0.61404 0.23911 0.81294 0.0
H2077 H 0.59268 0.25691 0.97145 0.0
H2078 H 0.6204 0.25601 0.94375 0.0
H2079 H 0.588 0.21894 0.88618 0.0
H2080 H 0.56021 0.21963 0.914 0.0
H2081 H 0.60797 0.25134 0.86454 0.0
H2082 H 0.62102 0.19823 0.92221 0.0
H2083 H 0.62482 0.18279 0.96541 0.0
H2084 H 0.67125 0.2223 0.99041 0.0
H2085 H 0.66754 0.23817 0.94748 0.0
C2086 C 0.6918 0.24322 0.81192 0.0
C2087 C 0.70766 0.25285 0.82562 0.0
C2088 C 0.67542 0.23816 0.82523 0.0
C2089 C 0.67453 0.2428 0.85241 0.0
C2090 C 0.69092 0.25125 0.86631 0.0
C2091 C 0.70726 0.25612 0.85314 0.0
C2092 C 0.65639 0.23998 0.8664 0.0
C2093 C 0.6577 0.23081 0.89082 0.0
C2094 C 0.63811 0.24731 0.85676 0.0
C2095 C 0.63581 0.25848 0.83227 0.0
C2096 C 0.64659 0.2756 0.82982 0.0
C2097 C 0.64441 0.28602 0.80662 0.0
C2098 C 0.63136 0.27956 0.78584 0.0
C2099 C 0.62041 0.2627 0.78825 0.0
C2100 C 0.62256 0.2522 0.8114 0.0
C2101 C 0.59142 0.24864 0.95284 0.0
C2102 C 0.57425 0.23834 0.94492 0.0
C2103 C 0.6073 0.24806 0.93709 0.0
C2104 C 0.60632 0.23733 0.91295 0.0
C2105 C 0.5891 0.22728 0.90475 0.0
C2106 C 0.57328 0.22761 0.92072 0.0
C2107 C 0.62335 0.23669 0.89642 0.0
C2108 C 0.62179 0.24523 0.87164 0.0
C2109 C 0.64149 0.22913 0.90595 0.0
C2110 C 0.64389 0.21949 0.93169 0.0
C2111 C 0.63194 0.20372 0.93699 0.0
C2112 C 0.6341 0.19488 0.96142 0.0
C2113 C 0.64824 0.20158 0.98067 0.0
C2114 C 0.6603 0.21712 0.97549 0.0
C2115 C 0.65819 0.22604 0.9511 0.0
H2116 H 0.64988 0.19472 0.99957 0.0
H2117 H 0.62969 0.28765 0.7679 0.0
H2118 H 0.76735 0.6911 0.78323 0.0
H2119 H 0.77617 0.66027 0.8039 0.0
H2120 H 0.76953 0.68712 0.88094 0.0
H2121 H 0.7612 0.71787 0.86046 0.0
H2122 H 0.79808 0.66119 0.88389 0.0
H2123 H 0.73179 0.66381 0.84765 0.0
H2124 H 0.70571 0.66796 0.81249 0.0
H2125 H 0.72786 0.6196 0.76799 0.0
H2126 H 0.75428 0.61536 0.80276 0.0
H2127 H 0.75578 0.59008 0.96055 0.0
H2128 H 0.75945 0.61765 0.93194 0.0
H2129 H 0.78466 0.57971 0.87419 0.0
H2130 H 0.78143 0.55206 0.9031 0.0
H2131 H 0.75113 0.60826 0.85686 0.0
H2132 H 0.81523 0.604 0.90145 0.0
H2133 H 0.83795 0.60108 0.94087 0.0
H2134 H 0.81598 0.65421 0.97421 0.0
H2135 H 0.79289 0.65728 0.93517 0.0
C2136 C 0.76841 0.69051 0.8046 0.0
C2137 C 0.76336 0.70671 0.82029 0.0
C2138 C 0.77329 0.67291 0.81637 0.0
C2139 C 0.77313 0.67133 0.84392 0.0
C2140 C 0.76968 0.68797 0.85966 0.0
C2141 C 0.76483 0.7055 0.84795 0.0
C2142 C 0.77434 0.65214 0.85632 0.0
C2143 C 0.7879 0.64958 0.87786 0.0
C2144 C 0.76103 0.63697 0.84848 0.0
C2145 C 0.74515 0.63943 0.8276 0.0
C2146 C 0.73119 0.65416 0.83026 0.0
C2147 C 0.71634 0.65652 0.81043 0.0
C2148 C 0.71517 0.64409 0.78798 0.0
C2149 C 0.72882 0.62925 0.78536 0.0
C2150 C 0.74374 0.62687 0.80511 0.0
C2151 C 0.76198 0.58762 0.94167 0.0
C2152 C 0.7683 0.56902 0.93392 0.0
C2153 C 0.76414 0.60334 0.92547 0.0
C2154 C 0.77239 0.60063 0.90112 0.0
C2155 C 0.77831 0.582 0.89299 0.0
C2156 C 0.7765 0.56631 0.90946 0.0
C2157 C 0.77478 0.61747 0.88438 0.0
C2158 C 0.76172 0.61963 0.86226 0.0
C2159 C 0.7882 0.63246 0.89212 0.0
C2160 C 0.80223 0.63079 0.91547 0.0
C2161 C 0.81513 0.61498 0.91729 0.0
C2162 C 0.8281 0.61331 0.93954 0.0
C2163 C 0.82839 0.62743 0.96005 0.0
C2164 C 0.81574 0.64328 0.95832 0.0
C2165 C 0.80272 0.645 0.93611 0.0
H2166 H 0.83843 0.62612 0.97727 0.0
H2167 H 0.70365 0.64592 0.77265 0.0
loop_
_geom_bond_atom_site_label_1
_geom_bond_atom_site_label_2
_geom_bond_distance
_geom_bond_site_symmetry_2
_ccdc_geom_bond_type
H0 C6 0.930 . S
H1 C9 0.931 . S
H2 C11 0.931 . S
H3 C13 0.930 . S
H4 C15 0.930 . S
H5 C17 0.931 . S
C6 H0 0.930 . S
C6 C7 1.380 . S
C6 C8 1.394 . S
C7 C6 1.380 . S
C7 C11 1.382 . S
C8 C6 1.394 . S
C8 C9 1.400 . S
C9 H1 0.931 . S
C9 C8 1.400 . S
C9 C10 1.375 . S
C10 C9 1.375 . S
C10 C11 1.415 . S
C10 C12 1.501 . S
C11 H2 0.931 . S
C11 C7 1.382 . S
C11 C10 1.415 . S
C12 C10 1.501 . S
C12 C13 1.384 . S
C12 C17 1.408 . S
C13 H3 0.930 . S
C13 C12 1.384 . S
C13 C14 1.389 . S
C14 C13 1.389 . S
C14 C15 1.405 . S
C15 H4 0.930 . S
C15 C14 1.405 . S
C15 C16 1.364 . S
C16 C15 1.364 . S
C16 C17 1.400 . S
C17 H5 0.931 . S
C17 C12 1.408 . S
C17 C16 1.400 . S
H18 C24 0.930 . S
H19 C27 0.931 . S
H20 C29 0.931 . S
H21 C31 0.930 . S
H22 C33 0.930 . S
H23 C35 0.931 . S
C24 H18 0.930 . S
C24 C25 1.380 . S
C24 C26 1.394 . S
C25 C24 1.380 . S
C25 C29 1.382 . S
C26 C24 1.394 . S
C26 C27 1.400 . S
C27 H19 0.931 . S
C27 C26 1.400 . S
C27 C28 1.375 . S
C28 C27 1.375 . S
C28 C29 1.415 . S
C28 C30 1.501 . S
C29 H20 0.931 . S
C29 C25 1.382 . S
C29 C28 1.415 . S
C30 C28 1.501 . S
C30 C31 1.384 . S
C30 C35 1.408 . S
C31 H21 0.930 . S
C31 C30 1.384 . S
C31 C32 1.389 . S
C32 C31 1.389 . S
C32 C33 1.405 . S
C33 H22 0.930 . S
C33 C32 1.405 . S
C33 C34 1.364 . S
C34 C33 1.364 . S
C34 C35 1.400 . S
C35 H23 0.931 . S
C35 C30 1.408 . S
C35 C34 1.400 . S
H36 C42 0.930 . S
H37 C45 0.931 . S
H38 C47 0.931 . S
H39 C49 0.930 . S
H40 C51 0.930 . S
H41 C53 0.931 . S
C42 H36 0.930 . S
C42 C43 1.380 . S
C42 C44 1.394 . S
C43 C42 1.380 . S
C43 C47 1.382 . S
C44 C42 1.394 . S
C44 C45 1.400 . S
C45 H37 0.931 . S
C45 C44 1.400 . S
C45 C46 1.375 . S
C46 C45 1.375 . S
C46 C47 1.415 . S
C46 C48 1.501 . S
C47 H38 0.931 . S
C47 C43 1.382 . S
C47 C46 1.415 . S
C48 C46 1.501 . S
C48 C49 1.384 . S
C48 C53 1.408 . S
C49 H39 0.930 . S
C49 C48 1.384 . S
C49 C50 1.389 . S
C50 C49 1.389 . S
C50 C51 1.405 . S
C51 H40 0.930 . S
C51 C50 1.405 . S
C51 C52 1.364 . S
C52 C51 1.364 . S
C52 C53 1.400 . S
C53 H41 0.931 . S
C53 C48 1.408 . S
C53 C52 1.400 . S
H54 C60 0.930 . S
H55 C63 0.931 . S
H56 C65 0.931 . S
H57 C67 0.930 . S
H58 C69 0.930 . S
H59 C71 0.931 . S
C60 H54 0.930 . S
C60 C61 1.380 . S
C60 C62 1.394 . S
C61 C60 1.380 . S
C61 C65 1.382 . S
C62 C60 1.394 . S
C62 C63 1.400 . S
C63 H55 0.931 . S
C63 C62 1.400 . S
C63 C64 1.375 . S
C64 C63 1.375 . S
C64 C65 1.415 . S
C64 C66 1.501 . S
C65 H56 0.931 . S
C65 C61 1.382 . S
C65 C64 1.415 . S
C66 C64 1.501 . S
C66 C67 1.384 . S
C66 C71 1.408 . S
C67 H57 0.930 . S
C67 C66 1.384 . S
C67 C68 1.389 . S
C68 C67 1.389 . S
C68 C69 1.405 . S
C69 H58 0.930 . S
C69 C68 1.405 . S
C69 C70 1.364 . S
C70 C69 1.364 . S
C70 C71 1.400 . S
C71 H59 0.931 . S
C71 C66 1.408 . S
C71 C70 1.400 . S
H72 C78 0.930 . S
H73 C81 0.931 . S
H74 C83 0.931 . S
H75 C85 0.930 . S
H76 C87 0.930 . S
H77 C89 0.931 . S
C78 H72 0.930 . S
C78 C79 1.380 . S
C78 C80 1.394 . S
C79 C78 1.380 . S
C79 C83 1.382 . S
C80 C78 1.394 . S
C80 C81 1.400 . S
C81 H73 0.931 . S
C81 C80 1.400 . S
C81 C82 1.375 . S
C82 C81 1.375 . S
C82 C83 1.415 . S
C82 C84 1.501 . S
C83 H74 0.931 . S
C83 C79 1.382 . S
C83 C82 1.415 . S
C84 C82 1.501 . S
C84 C85 1.384 . S
C84 C89 1.408 . S
C85 H75 0.930 . S
C85 C84 1.384 . S
C85 C86 1.389 . S
C86 C85 1.389 . S
C86 C87 1.405 . S
C87 H76 0.930 . S
C87 C86 1.405 . S
C87 C88 1.364 . S
C88 C87 1.364 . S
C88 C89 1.400 . S
C89 H77 0.931 . S
C89 C84 1.408 . S
C89 C88 1.400 . S
H90 C96 0.930 . S
H91 C99 0.931 . S
H92 C101 0.931 . S
H93 C103 0.930 . S
H94 C105 0.930 . S
H95 C107 0.931 . S
C96 H90 0.930 . S
C96 C97 1.380 . S
C96 C98 1.394 . S
C97 C96 1.380 . S
C97 C101 1.382 . S
C98 C96 1.394 . S
C98 C99 1.400 . S
C99 H91 0.931 . S
C99 C98 1.400 . S
C99 C100 1.375 . S
C100 C99 1.375 . S
C100 C101 1.415 . S
C100 C102 1.501 . S
C101 H92 0.931 . S
C101 C97 1.382 . S
C101 C100 1.415 . S
C102 C100 1.501 . S
C102 C103 1.384 . S
C102 C107 1.408 . S
C103 H93 0.930 . S
C103 C102 1.384 . S
C103 C104 1.389 . S
C104 C103 1.389 . S
C104 C105 1.405 . S
C105 H94 0.930 . S
C105 C104 1.405 . S
C105 C106 1.364 . S
C106 C105 1.364 . S
C106 C107 1.400 . S
C107 H95 0.931 . S
C107 C102 1.408 . S
C107 C106 1.400 . S
H108 C114 0.930 . S
H109 C117 0.931 . S
H110 C119 0.931 . S
H111 C121 0.930 . S
H112 C123 0.930 . S
H113 C125 0.931 . S
C114 H108 0.930 . S
C114 C115 1.380 . S
C114 C116 1.394 . S
C115 C114 1.380 . S
C115 C119 1.382 . S
C116 C114 1.394 . S
C116 C117 1.400 . S
C117 H109 0.931 . S
C117 C116 1.400 . S
C117 C118 1.375 . S
C118 C117 1.375 . S
C118 C119 1.415 . S
C118 C120 1.501 . S
C119 H110 0.931 . S
C119 C115 1.382 . S
C119 C118 1.415 . S
C120 C118 1.501 . S
C120 C121 1.384 . S
C120 C125 1.408 . S
C121 H111 0.930 . S
C121 C120 1.384 . S
C121 C122 1.389 . S
C122 C121 1.389 . S
C122 C123 1.405 . S
C123 H112 0.930 . S
C123 C122 1.405 . S
C123 C124 1.364 . S
C124 C123 1.364 . S
C124 C125 1.400 . S
C125 H113 0.931 . S
C125 C120 1.408 . S
C125 C124 1.400 . S
H126 C132 0.930 . S
H127 C135 0.931 . S
H128 C137 0.931 . S
H129 C139 0.930 . S
H130 C141 0.930 . S
H131 C143 0.931 . S
C132 H126 0.930 . S
C132 C133 1.380 . S
C132 C134 1.394 . S
C133 C132 1.380 . S
C133 C137 1.382 . S
C134 C132 1.394 . S
C134 C135 1.400 . S
C135 H127 0.931 . S
C135 C134 1.400 . S
C135 C136 1.375 . S
C136 C135 1.375 . S
C136 C137 1.415 . S
C136 C138 1.501 . S
C137 H128 0.931 . S
C137 C133 1.382 . S
C137 C136 1.415 . S
C138 C136 1.501 . S
C138 C139 1.384 . S
C138 C143 1.408 . S
C139 H129 0.930 . S
C139 C138 1.384 . S
C139 C140 1.389 . S
C140 C139 1.389 . S
C140 C141 1.405 . S
C141 H130 0.930 . S
C141 C140 1.405 . S
C141 C142 1.364 . S
C142 C141 1.364 . S
C142 C143 1.400 . S
C143 H131 0.931 . S
C143 C138 1.408 . S
C143 C142 1.400 . S
C144 C145 1.443 . S
C144 N148 1.376 . S
C144 C182 1.389 . S
C145 C144 1.443 . S
C145 C146 1.340 . S
C145 H185 0.951 . S
C146 C145 1.340 . S
C146 C147 1.439 . S
C146 H186 0.950 . S
C147 C146 1.439 . S
C147 N148 1.374 . S
C147 C181 1.395 . S
N148 C144 1.376 . S
N148 C147 1.374 . S
N148 Co149 2.008 . S
Co149 N148 2.008 . S
Co149 N150 1.995 1_455 S
Co149 N155 2.008 1_455 S
Co149 N160 1.995 . S
Co149 N165 2.282 1_455 S
Co149 N171 2.282 . S
N150 Co149 1.995 1_655 S
N150 C151 1.376 . S
N150 C154 1.383 . S
C151 N150 1.376 . S
C151 C152 1.446 . S
C151 C181 1.391 1_655 S
C152 C151 1.446 . S
C152 C153 1.339 . S
C152 H187 0.949 . S
C153 C152 1.339 . S
C153 C154 1.439 . S
C153 H188 0.950 . S
C154 N150 1.383 . S
C154 C153 1.439 . S
C154 C183 1.392 . S
N155 Co149 2.008 1_655 S
N155 C156 1.376 . S
N155 C159 1.374 . S
C156 N155 1.376 . S
C156 C157 1.443 . S
C156 C183 1.389 . S
C157 C156 1.443 . S
C157 C158 1.340 . S
C157 H189 0.951 . S
C158 C157 1.340 . S
C158 C159 1.439 . S
C158 H190 0.950 . S
C159 N155 1.374 . S
C159 C158 1.439 . S
C159 C184 1.425 . S
N160 Co149 1.995 . S
N160 C161 1.376 . S
N160 C164 1.383 . S
C161 N160 1.376 . S
C161 C162 1.446 . S
C161 C184 1.360 1_455 S
C162 C161 1.446 . S
C162 C163 1.339 . S
C162 H191 0.949 . S
C163 C162 1.339 . S
C163 C164 1.439 . S
C163 H192 0.950 . S
C164 N160 1.383 . S
C164 C163 1.439 . S
C164 C182 1.392 . S
N165 Co149 2.282 1_655 S
N165 C168 1.332 . S
N165 C170 1.332 . S
C166 C167 1.386 . S
C166 C169 1.388 . S
C167 C166 1.386 . S
C167 C168 1.382 . S
C167 H193 0.950 . S
C168 N165 1.332 . S
C168 C167 1.382 . S
C168 H179 0.952 . S
C169 C166 1.388 . S
C169 C170 1.382 . S
C169 H194 0.950 . S
C170 N165 1.332 . S
C170 C169 1.382 . S
C170 H180 0.948 . S
N171 Co149 2.282 . S
N171 C175 1.332 . S
N171 C176 1.332 . S
C172 C173 1.388 . S
C172 C176 1.382 . S
C172 H195 0.950 . S
C173 C172 1.388 . S
C173 C174 1.386 . S
C174 C173 1.386 . S
C174 C175 1.382 . S
C174 H196 0.950 . S
C175 N171 1.332 . S
C175 C174 1.382 . S
C175 H177 0.952 . S
C176 N171 1.332 . S
C176 C172 1.382 . S
C176 H178 0.948 . S
H177 C175 0.952 . S
H178 C176 0.948 . S
H179 C168 0.952 . S
H180 C170 0.948 . S
C181 C147 1.395 . S
C181 C151 1.391 1_455 S
C182 C144 1.389 . S
C182 C164 1.392 . S
C183 C154 1.392 . S
C183 C156 1.389 . S
C184 C159 1.425 . S
C184 C161 1.360 1_655 S
H185 C145 0.951 . S
H186 C146 0.950 . S
H187 C152 0.949 . S
H188 C153 0.950 . S
H189 C157 0.951 . S
H190 C158 0.950 . S
H191 C162 0.949 . S
H192 C163 0.950 . S
H193 C167 0.950 . S
H194 C169 0.950 . S
H195 C172 0.950 . S
H196 C174 0.950 . S
C197 C198 1.443 . S
C197 N201 1.376 . S
C197 C235 1.389 . S
C198 C197 1.443 . S
C198 C199 1.340 . S
C198 H238 0.951 . S
C199 C198 1.340 . S
C199 C200 1.439 . S
C199 H239 0.950 . S
C200 C199 1.439 . S
C200 N201 1.374 . S
C200 C234 1.395 . S
N201 C197 1.376 . S
N201 C200 1.374 . S
N201 Co202 2.008 . S
Co202 N201 2.008 . S
Co202 N203 1.995 1_545 S
Co202 N208 2.008 1_545 S
Co202 N213 1.995 . S
Co202 N218 2.282 1_545 S
Co202 N224 2.282 . S
N203 Co202 1.995 1_565 S
N203 C204 1.376 . S
N203 C207 1.383 . S
C204 N203 1.376 . S
C204 C205 1.446 . S
C204 C234 1.391 1_565 S
C205 C204 1.446 . S
C205 C206 1.339 . S
C205 H240 0.949 . S
C206 C205 1.339 . S
C206 C207 1.439 . S
C206 H241 0.950 . S
C207 N203 1.383 . S
C207 C206 1.439 . S
C207 C236 1.392 . S
N208 Co202 2.008 1_565 S
N208 C209 1.376 . S
N208 C212 1.374 . S
C209 N208 1.376 . S
C209 C210 1.443 . S
C209 C236 1.389 . S
C210 C209 1.443 . S
C210 C211 1.340 . S
C210 H242 0.951 . S
C211 C210 1.340 . S
C211 C212 1.439 . S
C211 H243 0.950 . S
C212 N208 1.374 . S
C212 C211 1.439 . S
C212 C237 1.394 . S
N213 Co202 1.995 . S
N213 C214 1.376 . S
N213 C217 1.383 . S
C214 N213 1.376 . S
C214 C215 1.446 . S
C214 C237 1.392 1_545 S
C215 C214 1.446 . S
C215 C216 1.339 . S
C215 H244 0.949 . S
C216 C215 1.339 . S
C216 C217 1.439 . S
C216 H245 0.950 . S
C217 N213 1.383 . S
C217 C216 1.439 . S
C217 C235 1.392 . S
N218 Co202 2.282 1_565 S
N218 C221 1.332 . S
N218 C223 1.332 . S
C219 C220 1.386 . S
C219 C222 1.388 . S
C220 C219 1.386 . S
C220 C221 1.382 . S
C220 H246 0.950 . S
C221 N218 1.332 . S
C221 C220 1.382 . S
C221 H232 0.952 . S
C222 C219 1.388 . S
C222 C223 1.382 . S
C222 H247 0.950 . S
C223 N218 1.332 . S
C223 C222 1.382 . S
C223 H233 0.948 . S
N224 Co202 2.282 . S
N224 C228 1.332 . S
N224 C229 1.332 . S
C225 C226 1.388 . S
C225 C229 1.382 . S
C225 H248 0.950 . S
C226 C225 1.388 . S
C226 C227 1.386 . S
C227 C226 1.386 . S
C227 C228 1.382 . S
C227 H249 0.950 . S
C228 N224 1.332 . S
C228 C227 1.382 . S
C228 H230 0.952 . S
C229 N224 1.332 . S
C229 C225 1.382 . S
C229 H231 0.948 . S
H230 C228 0.952 . S
H231 C229 0.948 . S
H232 C221 0.952 . S
H233 C223 0.948 . S
C234 C200 1.395 . S
C234 C204 1.391 1_545 S
C235 C197 1.389 . S
C235 C217 1.392 . S
C236 C207 1.392 . S
C236 C209 1.389 . S
C237 C212 1.394 . S
C237 C214 1.392 1_565 S
H238 C198 0.951 . S
H239 C199 0.950 . S
H240 C205 0.949 . S
H241 C206 0.950 . S
H242 C210 0.951 . S
H243 C211 0.950 . S
H244 C215 0.949 . S
H245 C216 0.950 . S
H246 C220 0.950 . S
H247 C222 0.950 . S
H248 C225 0.950 . S
H249 C227 0.950 . S
C250 C251 1.443 . S
C250 N254 1.376 . S
C250 C288 1.389 . S
C251 C250 1.443 . S
C251 C252 1.340 . S
C251 H291 0.951 . S
C252 C251 1.340 . S
C252 C253 1.439 . S
C252 H292 0.950 . S
C253 C252 1.439 . S
C253 N254 1.374 . S
C253 C287 1.395 . S
N254 C250 1.376 . S
N254 C253 1.374 . S
N254 Co255 2.008 . S
Co255 N254 2.008 . S
Co255 N256 1.995 1_455 S
Co255 N261 2.008 1_455 S
Co255 N266 1.995 . S
Co255 N271 2.282 1_455 S
Co255 N277 2.282 . S
N256 Co255 1.995 1_655 S
N256 C257 1.376 . S
N256 C260 1.383 . S
C257 N256 1.376 . S
C257 C258 1.446 . S
C257 C287 1.391 1_655 S
C258 C257 1.446 . S
C258 C259 1.339 . S
C258 H293 0.949 . S
C259 C258 1.339 . S
C259 C260 1.439 . S
C259 H294 0.950 . S
C260 N256 1.383 . S
C260 C259 1.439 . S
C260 C289 1.392 . S
N261 Co255 2.008 1_655 S
N261 C262 1.376 . S
N261 C265 1.374 . S
C262 N261 1.376 . S
C262 C263 1.443 . S
C262 C289 1.389 . S
C263 C262 1.443 . S
C263 C264 1.340 . S
C263 H295 0.951 . S
C264 C263 1.340 . S
C264 C265 1.439 . S
C264 H296 0.950 . S
C265 N261 1.374 . S
C265 C264 1.439 . S
C265 C290 1.395 . S
N266 Co255 1.995 . S
N266 C267 1.376 . S
N266 C270 1.383 . S
C267 N266 1.376 . S
C267 C268 1.446 . S
C267 C290 1.391 1_455 S
C268 C267 1.446 . S
C268 C269 1.339 . S
C268 H297 0.949 . S
C269 C268 1.339 . S
C269 C270 1.439 . S
C269 H298 0.950 . S
C270 N266 1.383 . S
C270 C269 1.439 . S
C270 C288 1.392 . S
N271 Co255 2.282 1_655 S
N271 C274 1.332 . S
N271 C276 1.332 . S
C272 C273 1.386 . S
C272 C275 1.388 . S
C273 C272 1.386 . S
C273 C274 1.382 . S
C273 H299 0.950 . S
C274 N271 1.332 . S
C274 C273 1.382 . S
C274 H285 0.952 . S
C275 C272 1.388 . S
C275 C276 1.382 . S
C275 H300 0.950 . S
C276 N271 1.332 . S
C276 C275 1.382 . S
C276 H286 0.948 . S
N277 Co255 2.282 . S
N277 C281 1.332 . S
N277 C282 1.332 . S
C278 C279 1.388 . S
C278 C282 1.382 . S
C278 H301 0.950 . S
C279 C278 1.388 . S
C279 C280 1.386 . S
C280 C279 1.386 . S
C280 C281 1.382 . S
C280 H302 0.950 . S
C281 N277 1.332 . S
C281 C280 1.382 . S
C281 H283 0.952 . S
C282 N277 1.332 . S
C282 C278 1.382 . S
C282 H284 0.948 . S
H283 C281 0.952 . S
H284 C282 0.948 . S
H285 C274 0.952 . S
H286 C276 0.948 . S
C287 C253 1.395 . S
C287 C257 1.391 1_455 S
C288 C250 1.389 . S
C288 C270 1.392 . S
C289 C260 1.392 . S
C289 C262 1.389 . S
C290 C265 1.395 . S
C290 C267 1.391 1_655 S
H291 C251 0.951 . S
H292 C252 0.950 . S
H293 C258 0.949 . S
H294 C259 0.950 . S
H295 C263 0.951 . S
H296 C264 0.950 . S
H297 C268 0.949 . S
H298 C269 0.950 . S
H299 C273 0.950 . S
H300 C275 0.950 . S
H301 C278 0.950 . S
H302 C280 0.950 . S
C303 C304 1.443 . S
C303 N307 1.376 . S
C303 C341 1.389 . S
C304 C303 1.443 . S
C304 C305 1.340 . S
C304 H344 0.951 . S
C305 C304 1.340 . S
C305 C306 1.439 . S
C305 H345 0.950 . S
C306 C305 1.439 . S
C306 N307 1.374 . S
C306 C340 1.426 . S
N307 C303 1.376 . S
N307 C306 1.374 . S
N307 Co308 2.008 1_565 S
Co308 N307 2.008 1_545 S
Co308 N309 1.995 . S
Co308 N314 2.008 . S
Co308 N319 1.995 1_545 S
Co308 N324 2.282 . S
Co308 N330 2.282 1_545 S
N309 Co308 1.995 . S
N309 C310 1.376 . S
N309 C313 1.383 . S
C310 N309 1.376 . S
C310 C311 1.446 . S
C310 C340 1.359 1_545 S
C311 C310 1.446 . S
C311 C312 1.339 . S
C311 H346 0.949 . S
C312 C311 1.339 . S
C312 C313 1.439 . S
C312 H347 0.950 . S
C313 N309 1.383 . S
C313 C312 1.439 . S
C313 C342 1.392 . S
N314 Co308 2.008 . S
N314 C315 1.376 . S
N314 C318 1.374 . S
C315 N314 1.376 . S
C315 C316 1.443 . S
C315 C342 1.389 . S
C316 C315 1.443 . S
C316 C317 1.340 . S
C316 H348 0.951 . S
C317 C316 1.340 . S
C317 C318 1.439 . S
C317 H349 0.950 . S
C318 N314 1.374 . S
C318 C317 1.439 . S
C318 C343 1.395 . S
N319 Co308 1.995 1_565 S
N319 C320 1.376 . S
N319 C323 1.383 . S
C320 N319 1.376 . S
C320 C321 1.446 . S
C320 C343 1.391 1_565 S
C321 C320 1.446 . S
C321 C322 1.339 . S
C321 H350 0.949 . S
C322 C321 1.339 . S
C322 C323 1.439 . S
C322 H351 0.950 . S
C323 N319 1.383 . S
C323 C322 1.439 . S
C323 C341 1.392 . S
N324 Co308 2.282 . S
N324 C327 1.332 . S
N324 C329 1.332 . S
C325 C326 1.386 . S
C325 C328 1.388 . S
C326 C325 1.386 . S
C326 C327 1.382 . S
C326 H352 0.950 . S
C327 N324 1.332 . S
C327 C326 1.382 . S
C327 H338 0.952 . S
C328 C325 1.388 . S
C328 C329 1.382 . S
C328 H353 0.950 . S
C329 N324 1.332 . S
C329 C328 1.382 . S
C329 H339 0.948 . S
N330 Co308 2.282 1_565 S
N330 C334 1.332 . S
N330 C335 1.332 . S
C331 C332 1.388 . S
C331 C335 1.382 . S
C331 H354 0.950 . S
C332 C331 1.388 . S
C332 C333 1.386 . S
C333 C332 1.386 . S
C333 C334 1.382 . S
C333 H355 0.950 . S
C334 N330 1.332 . S
C334 C333 1.382 . S
C334 H336 0.952 . S
C335 N330 1.332 . S
C335 C331 1.382 . S
C335 H337 0.948 . S
H336 C334 0.952 . S
H337 C335 0.948 . S
H338 C327 0.952 . S
H339 C329 0.948 . S
C340 C306 1.426 . S
C340 C310 1.359 1_565 S
C341 C303 1.389 . S
C341 C323 1.392 . S
C342 C313 1.392 . S
C342 C315 1.389 . S
C343 C318 1.395 . S
C343 C320 1.391 1_545 S
H344 C304 0.951 . S
H345 C305 0.950 . S
H346 C311 0.949 . S
H347 C312 0.950 . S
H348 C316 0.951 . S
H349 C317 0.950 . S
H350 C321 0.949 . S
H351 C322 0.950 . S
H352 C326 0.950 . S
H353 C328 0.950 . S
H354 C331 0.950 . S
H355 C333 0.950 . S
C356 C357 1.443 . S
C356 N360 1.376 . S
C356 C394 1.389 . S
C357 C356 1.443 . S
C357 C358 1.340 . S
C357 H397 0.951 . S
C358 C357 1.340 . S
C358 C359 1.439 . S
C358 H398 0.950 . S
C359 C358 1.439 . S
C359 N360 1.374 . S
C359 C393 1.376 1_554 S
N360 C356 1.376 . S
N360 C359 1.374 . S
N360 Co361 2.027 . S
Co361 N360 2.027 . S
Co361 N362 1.973 1_554 S
Co361 N367 1.990 1_554 S
Co361 N372 2.017 . S
Co361 N377 2.314 . S
Co361 N383 2.252 1_554 S
N362 Co361 1.973 1_556 S
N362 C363 1.376 . S
N362 C366 1.383 . S
C363 N362 1.376 . S
C363 C364 1.446 . S
C363 C393 1.408 . S
C364 C363 1.446 . S
C364 C365 1.339 . S
C364 H399 0.949 . S
C365 C364 1.339 . S
C365 C366 1.439 . S
C365 H400 0.950 . S
C366 N362 1.383 . S
C366 C365 1.439 . S
C366 C395 1.392 . S
N367 Co361 1.990 1_556 S
N367 C368 1.376 . S
N367 C371 1.374 . S
C368 N367 1.376 . S
C368 C369 1.443 . S
C368 C395 1.389 . S
C369 C368 1.443 . S
C369 C370 1.340 . S
C369 H401 0.951 . S
C370 C369 1.340 . S
C370 C371 1.439 . S
C370 H402 0.950 . S
C371 N367 1.374 . S
C371 C370 1.439 . S
C371 C396 1.395 1_556 S
N372 Co361 2.017 . S
N372 C373 1.376 . S
N372 C376 1.383 . S
C373 N372 1.376 . S
C373 C374 1.446 . S
C373 C396 1.391 . S
C374 C373 1.446 . S
C374 C375 1.339 . S
C374 H403 0.949 . S
C375 C374 1.339 . S
C375 C376 1.439 . S
C375 H404 0.950 . S
C376 N372 1.383 . S
C376 C375 1.439 . S
C376 C394 1.392 . S
N377 Co361 2.314 . S
N377 C380 1.332 . S
N377 C382 1.332 . S
C378 C379 1.386 . S
C378 C381 1.388 . S
C379 C378 1.386 . S
C379 C380 1.382 . S
C379 H405 0.950 . S
C380 N377 1.332 . S
C380 C379 1.382 . S
C380 H391 0.952 . S
C381 C378 1.388 . S
C381 C382 1.382 . S
C381 H406 0.950 . S
C382 N377 1.332 . S
C382 C381 1.382 . S
C382 H392 0.948 . S
N383 Co361 2.252 1_556 S
N383 C387 1.332 . S
N383 C388 1.332 . S
C384 C385 1.388 . S
C384 C388 1.382 . S
C384 H407 0.950 . S
C385 C384 1.388 . S
C385 C386 1.386 . S
C386 C385 1.386 . S
C386 C387 1.382 . S
C386 H408 0.950 . S
C387 N383 1.332 . S
C387 C386 1.382 . S
C387 H389 0.952 . S
C388 N383 1.332 . S
C388 C384 1.382 . S
C388 H390 0.948 . S
H389 C387 0.952 . S
H390 C388 0.948 . S
H391 C380 0.952 . S
H392 C382 0.948 . S
C393 C359 1.376 1_556 S
C393 C363 1.408 . S
C394 C356 1.389 . S
C394 C376 1.392 . S
C395 C366 1.392 . S
C395 C368 1.389 . S
C396 C371 1.395 1_554 S
C396 C373 1.391 . S
H397 C357 0.951 . S
H398 C358 0.950 . S
H399 C364 0.949 . S
H400 C365 0.950 . S
H401 C369 0.951 . S
H402 C370 0.950 . S
H403 C374 0.949 . S
H404 C375 0.950 . S
H405 C379 0.950 . S
H406 C381 0.950 . S
H407 C384 0.950 . S
H408 C386 0.950 . S
C409 C410 1.443 . S
C409 N413 1.376 . S
C409 C447 1.389 . S
C410 C409 1.443 . S
C410 C411 1.340 . S
C410 H450 0.951 . S
C411 C410 1.340 . S
C411 C412 1.439 . S
C411 H451 0.950 . S
C412 C411 1.439 . S
C412 N413 1.374 . S
C412 C446 1.395 . S
N413 C409 1.376 . S
N413 C412 1.374 . S
N413 Co414 2.008 . S
Co414 N413 2.008 . S
Co414 N415 1.995 1_554 S
Co414 N420 2.008 . S
Co414 N425 1.995 . S
Co414 N430 2.282 . S
Co414 N436 2.282 1_554 S
N415 Co414 1.995 1_556 S
N415 C416 1.376 . S
N415 C419 1.383 . S
C416 N415 1.376 . S
C416 C417 1.446 . S
C416 C446 1.391 1_556 S
C417 C416 1.446 . S
C417 C418 1.339 . S
C417 H452 0.949 . S
C418 C417 1.339 . S
C418 C419 1.439 . S
C418 H453 0.950 . S
C419 N415 1.383 . S
C419 C418 1.439 . S
C419 C448 1.392 . S
N420 Co414 2.008 . S
N420 C421 1.376 1_554 S
N420 C424 1.374 . S
C421 N420 1.376 1_556 S
C421 C422 1.443 . S
C421 C448 1.389 . S
C422 C421 1.443 . S
C422 C423 1.340 1_556 S
C422 H454 0.951 . S
C423 C422 1.340 1_554 S
C423 C424 1.439 . S
C423 H455 0.950 . S
C424 N420 1.374 . S
C424 C423 1.439 . S
C424 C449 1.395 . S
N425 Co414 1.995 . S
N425 C426 1.376 . S
N425 C429 1.383 . S
C426 N425 1.376 . S
C426 C427 1.446 . S
C426 C449 1.391 . S
C427 C426 1.446 . S
C427 C428 1.339 . S
C427 H456 0.949 . S
C428 C427 1.339 . S
C428 C429 1.439 . S
C428 H457 0.950 . S
C429 N425 1.383 . S
C429 C428 1.439 . S
C429 C447 1.392 . S
N430 Co414 2.282 . S
N430 C433 1.332 . S
N430 C435 1.332 . S
C431 C432 1.386 . S
C431 C434 1.388 . S
C432 C431 1.386 . S
C432 C433 1.382 . S
C432 H458 0.950 . S
C433 N430 1.332 . S
C433 C432 1.382 . S
C433 H444 0.952 . S
C434 C431 1.388 . S
C434 C435 1.382 . S
C434 H459 0.950 . S
C435 N430 1.332 . S
C435 C434 1.382 . S
C435 H445 0.948 . S
N436 Co414 2.282 1_556 S
N436 C440 1.332 . S
N436 C441 1.332 . S
C437 C438 1.388 . S
C437 C441 1.382 . S
C437 H460 0.950 . S
C438 C437 1.388 . S
C438 C439 1.386 . S
C439 C438 1.386 . S
C439 C440 1.382 . S
C439 H461 0.950 . S
C440 N436 1.332 . S
C440 C439 1.382 . S
C440 H442 0.952 . S
C441 N436 1.332 . S
C441 C437 1.382 . S
C441 H443 0.948 . S
H442 C440 0.952 . S
H443 C441 0.948 . S
H444 C433 0.952 . S
H445 C435 0.948 . S
C446 C412 1.395 . S
C446 C416 1.391 1_554 S
C447 C409 1.389 . S
C447 C429 1.392 . S
C448 C419 1.392 . S
C448 C421 1.389 . S
C449 C424 1.395 . S
C449 C426 1.391 . S
H450 C410 0.951 . S
H451 C411 0.950 . S
H452 C417 0.949 . S
H453 C418 0.950 . S
H454 C422 0.951 . S
H455 C423 0.950 . S
H456 C427 0.949 . S
H457 C428 0.950 . S
H458 C432 0.950 . S
H459 C434 0.950 . S
H460 C437 0.950 . S
H461 C439 0.950 . S
C462 C463 1.443 . S
C462 N466 1.376 1_556 S
C462 C500 1.389 . S
C463 C462 1.443 . S
C463 C464 1.340 1_556 S
C463 H503 0.951 . S
C464 C463 1.340 1_554 S
C464 C465 1.439 . S
C464 H504 0.950 . S
C465 C464 1.439 . S
C465 N466 1.374 . S
C465 C499 1.395 . S
N466 C462 1.376 1_554 S
N466 C465 1.374 . S
N466 Co467 2.008 . S
Co467 N466 2.008 . S
Co467 N468 1.995 . S
Co467 N473 2.008 . S
Co467 N478 1.995 . S
Co467 N483 2.282 1_554 S
Co467 N489 2.282 . S
N468 Co467 1.995 . S
N468 C469 1.376 . S
N468 C472 1.383 . S
C469 N468 1.376 . S
C469 C470 1.446 . S
C469 C499 1.391 . S
C470 C469 1.446 . S
C470 C471 1.339 . S
C470 H505 0.949 . S
C471 C470 1.339 . S
C471 C472 1.439 . S
C471 H506 0.950 . S
C472 N468 1.383 . S
C472 C471 1.439 . S
C472 C501 1.392 . S
N473 Co467 2.008 . S
N473 C474 1.376 . S
N473 C477 1.374 . S
C474 N473 1.376 . S
C474 C475 1.443 . S
C474 C501 1.389 . S
C475 C474 1.443 . S
C475 C476 1.340 . S
C475 H507 0.951 . S
C476 C475 1.340 . S
C476 C477 1.439 . S
C476 H508 0.950 . S
C477 N473 1.374 . S
C477 C476 1.439 . S
C477 C502 1.395 . S
N478 Co467 1.995 . S
N478 C479 1.376 . S
N478 C482 1.383 1_554 S
C479 N478 1.376 . S
C479 C480 1.446 1_554 S
C479 C502 1.391 . S
C480 C479 1.446 1_556 S
C480 C481 1.339 . S
C480 H509 0.949 . S
C481 C480 1.339 . S
C481 C482 1.439 . S
C481 H510 0.950 . S
C482 N478 1.383 1_556 S
C482 C481 1.439 . S
C482 C500 1.392 . S
N483 Co467 2.282 1_556 S
N483 C486 1.332 . S
N483 C488 1.332 . S
C484 C485 1.386 . S
C484 C487 1.388 . S
C485 C484 1.386 . S
C485 C486 1.382 . S
C485 H511 0.950 . S
C486 N483 1.332 . S
C486 C485 1.382 . S
C486 H497 0.952 . S
C487 C484 1.388 . S
C487 C488 1.382 . S
C487 H512 0.950 . S
C488 N483 1.332 . S
C488 C487 1.382 . S
C488 H498 0.948 1_556 S
N489 Co467 2.282 . S
N489 C493 1.332 . S
N489 C494 1.332 . S
C490 C491 1.388 . S
C490 C494 1.382 . S
C490 H513 0.950 . S
C491 C490 1.388 . S
C491 C492 1.386 . S
C492 C491 1.386 . S
C492 C493 1.382 . S
C492 H514 0.950 . S
C493 N489 1.332 . S
C493 C492 1.382 . S
C493 H495 0.952 . S
C494 N489 1.332 . S
C494 C490 1.382 . S
C494 H496 0.948 . S
H495 C493 0.952 . S
H496 C494 0.948 . S
H497 C486 0.952 . S
H498 C488 0.948 1_554 S
C499 C465 1.395 . S
C499 C469 1.391 . S
C500 C462 1.389 . S
C500 C482 1.392 . S
C501 C472 1.392 . S
C501 C474 1.389 . S
C502 C477 1.395 . S
C502 C479 1.391 . S
H503 C463 0.951 . S
H504 C464 0.950 . S
H505 C470 0.949 . S
H506 C471 0.950 . S
H507 C475 0.951 . S
H508 C476 0.950 . S
H509 C480 0.949 . S
H510 C481 0.950 . S
H511 C485 0.950 . S
H512 C487 0.950 . S
H513 C490 0.950 . S
H514 C492 0.950 . S
C515 C516 1.443 . S
C515 N519 1.376 . S
C515 C553 1.389 . S
C516 C515 1.443 . S
C516 C517 1.340 . S
C516 H556 0.951 . S
C517 C516 1.340 . S
C517 C518 1.439 . S
C517 H557 0.950 . S
C518 C517 1.439 . S
C518 N519 1.374 . S
C518 C552 1.380 1_554 S
N519 C515 1.376 . S
N519 C518 1.374 . S
N519 Co520 2.008 . S
Co520 N519 2.008 . S
Co520 N521 1.995 1_554 S
Co520 N526 2.008 1_554 S
Co520 N531 1.995 . S
Co520 N536 2.282 . S
Co520 N542 2.282 1_554 S
N521 Co520 1.995 1_556 S
N521 C522 1.376 . S
N521 C525 1.383 . S
C522 N521 1.376 . S
C522 C523 1.446 . S
C522 C552 1.405 . S
C523 C522 1.446 . S
C523 C524 1.339 . S
C523 H558 0.949 . S
C524 C523 1.339 . S
C524 C525 1.439 . S
C524 H559 0.950 . S
C525 N521 1.383 . S
C525 C524 1.439 . S
C525 C554 1.392 . S
N526 Co520 2.008 1_556 S
N526 C527 1.376 . S
N526 C530 1.374 1_556 S
C527 N526 1.376 . S
C527 C528 1.443 . S
C527 C554 1.389 . S
C528 C527 1.443 . S
C528 C529 1.340 . S
C528 H560 0.951 . S
C529 C528 1.340 . S
C529 C530 1.439 1_556 S
C529 H561 0.950 . S
C530 N526 1.374 1_554 S
C530 C529 1.439 1_554 S
C530 C555 1.395 . S
N531 Co520 1.995 . S
N531 C532 1.376 . S
N531 C535 1.383 . S
C532 N531 1.376 . S
C532 C533 1.446 . S
C532 C555 1.391 . S
C533 C532 1.446 . S
C533 C534 1.339 . S
C533 H562 0.949 . S
C534 C533 1.339 . S
C534 C535 1.439 . S
C534 H563 0.950 . S
C535 N531 1.383 . S
C535 C534 1.439 . S
C535 C553 1.392 . S
N536 Co520 2.282 . S
N536 C539 1.332 . S
N536 C541 1.332 . S
C537 C538 1.386 . S
C537 C540 1.388 . S
C538 C537 1.386 . S
C538 C539 1.382 . S
C538 H564 0.950 . S
C539 N536 1.332 . S
C539 C538 1.382 . S
C539 H550 0.952 . S
C540 C537 1.388 . S
C540 C541 1.382 . S
C540 H565 0.950 . S
C541 N536 1.332 . S
C541 C540 1.382 . S
C541 H551 0.948 . S
N542 Co520 2.282 1_556 S
N542 C546 1.332 . S
N542 C547 1.332 . S
C543 C544 1.388 . S
C543 C547 1.382 . S
C543 H566 0.950 . S
C544 C543 1.388 . S
C544 C545 1.386 . S
C545 C544 1.386 . S
C545 C546 1.382 . S
C545 H567 0.950 . S
C546 N542 1.332 . S
C546 C545 1.382 . S
C546 H548 0.952 . S
C547 N542 1.332 . S
C547 C543 1.382 . S
C547 H549 0.948 . S
H548 C546 0.952 . S
H549 C547 0.948 . S
H550 C539 0.952 . S
H551 C541 0.948 . S
C552 C518 1.380 1_556 S
C552 C522 1.405 . S
C553 C515 1.389 . S
C553 C535 1.392 . S
C554 C525 1.392 . S
C554 C527 1.389 . S
C555 C530 1.395 . S
C555 C532 1.391 . S
H556 C516 0.951 . S
H557 C517 0.950 . S
H558 C523 0.949 . S
H559 C524 0.950 . S
H560 C528 0.951 . S
H561 C529 0.950 . S
H562 C533 0.949 . S
H563 C534 0.950 . S
H564 C538 0.950 . S
H565 C540 0.950 . S
H566 C543 0.950 . S
H567 C545 0.950 . S
H568 C586 0.951 . S
H569 C588 0.951 . S
H570 C590 0.950 . S
H571 C591 0.950 . S
H572 C593 0.950 . S
H573 C596 0.950 . S
H574 C597 0.950 . S
H575 C599 0.950 . S
H576 C600 0.950 . S
H577 C601 0.951 . S
H578 C603 0.951 . S
H579 C605 0.950 . S
H580 C606 0.950 . S
H581 C608 0.950 . S
H582 C611 0.950 . S
H583 C612 0.950 . S
H584 C614 0.950 . S
H585 C615 0.950 . S
C586 H568 0.951 . S
C586 C587 1.366 . S
C586 C588 1.388 . S
C587 C586 1.366 . S
C587 C591 1.385 . S
C588 H569 0.951 . S
C588 C586 1.388 . S
C588 C589 1.366 . S
C589 C588 1.366 . S
C589 C590 1.414 . S
C589 C592 1.499 . S
C590 H570 0.950 . S
C590 C589 1.414 . S
C590 C591 1.374 . S
C591 H571 0.950 . S
C591 C587 1.385 . S
C591 C590 1.374 . S
C592 C589 1.499 . S
C592 C593 1.373 . S
C592 C594 1.389 . S
C593 H572 0.950 . S
C593 C592 1.373 . S
C593 C609 1.377 . S
C594 C592 1.389 . S
C594 C595 1.524 . S
C594 C608 1.377 . S
C595 C594 1.524 . S
C595 C596 1.397 . S
C595 C600 1.363 . S
C596 H573 0.950 . S
C596 C595 1.397 . S
C596 C597 1.334 . S
C597 H574 0.950 . S
C597 C596 1.334 . S
C597 C598 1.287 . S
C598 C597 1.287 . S
C598 C599 1.524 . S
C598 H617 0.913 . S
C599 H575 0.950 . S
C599 C598 1.524 . S
C599 C600 1.415 . S
C600 H576 0.950 . S
C600 C595 1.363 . S
C600 C599 1.415 . S
C601 H577 0.951 . S
C601 C602 1.366 . S
C601 C603 1.388 . S
C602 C601 1.366 . S
C602 C606 1.385 . S
C603 H578 0.951 . S
C603 C601 1.388 . S
C603 C604 1.366 . S
C604 C603 1.366 . S
C604 C605 1.414 . S
C604 C607 1.499 . S
C605 H579 0.950 . S
C605 C604 1.414 . S
C605 C606 1.374 . S
C606 H580 0.950 . S
C606 C602 1.385 . S
C606 C605 1.374 . S
C607 C604 1.499 . S
C607 C608 1.373 . S
C607 C609 1.389 . S
C608 H581 0.950 . S
C608 C594 1.377 . S
C608 C607 1.373 . S
C609 C593 1.377 . S
C609 C607 1.389 . S
C609 C610 1.524 . S
C610 C609 1.524 . S
C610 C611 1.397 . S
C610 C615 1.363 . S
C611 H582 0.950 . S
C611 C610 1.397 . S
C611 C612 1.334 . S
C612 H583 0.950 . S
C612 C611 1.334 . S
C612 C613 1.287 . S
C613 C612 1.287 . S
C613 C614 1.524 . S
C613 H616 0.999 . S
C614 H584 0.950 . S
C614 C613 1.524 . S
C614 C615 1.415 . S
C615 H585 0.950 . S
C615 C610 1.363 . S
C615 C614 1.415 . S
H616 C613 0.999 . S
H617 C598 0.913 . S
H618 C636 0.951 . S
H619 C638 0.951 . S
H620 C640 0.950 . S
H621 C641 0.950 . S
H622 C643 0.950 . S
H623 C646 0.950 . S
H624 C647 0.950 . S
H625 C649 0.950 . S
H626 C650 0.950 . S
H627 C651 0.951 . S
H628 C653 0.951 . S
H629 C655 0.950 . S
H630 C656 0.950 . S
H631 C658 0.950 . S
H632 C661 0.950 . S
H633 C662 0.950 . S
H634 C664 0.950 . S
H635 C665 0.950 . S
C636 H618 0.951 . S
C636 C637 1.366 . S
C636 C638 1.388 . S
C637 C636 1.366 . S
C637 C641 1.385 . S
C638 H619 0.951 . S
C638 C636 1.388 . S
C638 C639 1.366 . S
C639 C638 1.366 . S
C639 C640 1.414 . S
C639 C642 1.499 . S
C640 H620 0.950 . S
C640 C639 1.414 . S
C640 C641 1.374 . S
C641 H621 0.950 . S
C641 C637 1.385 . S
C641 C640 1.374 . S
C642 C639 1.499 . S
C642 C643 1.373 . S
C642 C644 1.389 . S
C643 H622 0.950 . S
C643 C642 1.373 . S
C643 C659 1.377 . S
C644 C642 1.389 . S
C644 C645 1.524 . S
C644 C658 1.377 . S
C645 C644 1.524 . S
C645 C646 1.397 . S
C645 C650 1.363 . S
C646 H623 0.950 . S
C646 C645 1.397 . S
C646 C647 1.334 . S
C647 H624 0.950 . S
C647 C646 1.334 . S
C647 C648 1.287 . S
C648 C647 1.287 . S
C648 C649 1.524 . S
C648 H667 0.913 . S
C649 H625 0.950 . S
C649 C648 1.524 . S
C649 C650 1.415 . S
C650 H626 0.950 . S
C650 C645 1.363 . S
C650 C649 1.415 . S
C651 H627 0.951 . S
C651 C652 1.366 . S
C651 C653 1.388 . S
C652 C651 1.366 . S
C652 C656 1.385 . S
C653 H628 0.951 . S
C653 C651 1.388 . S
C653 C654 1.366 . S
C654 C653 1.366 . S
C654 C655 1.414 . S
C654 C657 1.499 . S
C655 H629 0.950 . S
C655 C654 1.414 . S
C655 C656 1.374 . S
C656 H630 0.950 . S
C656 C652 1.385 . S
C656 C655 1.374 . S
C657 C654 1.499 . S
C657 C658 1.373 . S
C657 C659 1.389 . S
C658 H631 0.950 . S
C658 C644 1.377 . S
C658 C657 1.373 . S
C659 C643 1.377 . S
C659 C657 1.389 . S
C659 C660 1.524 . S
C660 C659 1.524 . S
C660 C661 1.397 . S
C660 C665 1.363 . S
C661 H632 0.950 . S
C661 C660 1.397 . S
C661 C662 1.334 . S
C662 H633 0.950 . S
C662 C661 1.334 . S
C662 C663 1.287 . S
C663 C662 1.287 . S
C663 C664 1.524 . S
C663 H666 0.999 . S
C664 H634 0.950 . S
C664 C663 1.524 . S
C664 C665 1.415 . S
C665 H635 0.950 . S
C665 C660 1.363 . S
C665 C664 1.415 . S
H666 C663 0.999 . S
H667 C648 0.913 . S
H668 C686 0.951 . S
H669 C688 0.951 . S
H670 C690 0.950 . S
H671 C691 0.950 . S
H672 C693 0.950 . S
H673 C696 0.950 . S
H674 C697 0.950 . S
H675 C699 0.950 . S
H676 C700 0.950 . S
H677 C701 0.951 . S
H678 C703 0.951 . S
H679 C705 0.950 . S
H680 C706 0.950 . S
H681 C708 0.950 . S
H682 C711 0.950 . S
H683 C712 0.950 . S
H684 C714 0.950 . S
H685 C715 0.950 . S
C686 H668 0.951 . S
C686 C687 1.366 . S
C686 C688 1.388 . S
C687 C686 1.366 . S
C687 C691 1.385 . S
C688 H669 0.951 . S
C688 C686 1.388 . S
C688 C689 1.366 . S
C689 C688 1.366 . S
C689 C690 1.414 . S
C689 C692 1.499 . S
C690 H670 0.950 . S
C690 C689 1.414 . S
C690 C691 1.374 . S
C691 H671 0.950 . S
C691 C687 1.385 . S
C691 C690 1.374 . S
C692 C689 1.499 . S
C692 C693 1.373 . S
C692 C694 1.389 . S
C693 H672 0.950 . S
C693 C692 1.373 . S
C693 C709 1.377 . S
C694 C692 1.389 . S
C694 C695 1.524 . S
C694 C708 1.377 . S
C695 C694 1.524 . S
C695 C696 1.397 . S
C695 C700 1.363 . S
C696 H673 0.950 . S
C696 C695 1.397 . S
C696 C697 1.334 . S
C697 H674 0.950 . S
C697 C696 1.334 . S
C697 C698 1.287 . S
C698 C697 1.287 . S
C698 C699 1.524 . S
C698 H717 0.913 . S
C699 H675 0.950 . S
C699 C698 1.524 . S
C699 C700 1.415 . S
C700 H676 0.950 . S
C700 C695 1.363 . S
C700 C699 1.415 . S
C701 H677 0.951 . S
C701 C702 1.366 . S
C701 C703 1.388 . S
C702 C701 1.366 . S
C702 C706 1.385 . S
C703 H678 0.951 . S
C703 C701 1.388 . S
C703 C704 1.366 . S
C704 C703 1.366 . S
C704 C705 1.414 . S
C704 C707 1.499 . S
C705 H679 0.950 . S
C705 C704 1.414 . S
C705 C706 1.374 . S
C706 H680 0.950 . S
C706 C702 1.385 . S
C706 C705 1.374 . S
C707 C704 1.499 . S
C707 C708 1.373 . S
C707 C709 1.389 . S
C708 H681 0.950 . S
C708 C694 1.377 . S
C708 C707 1.373 . S
C709 C693 1.377 . S
C709 C707 1.389 . S
C709 C710 1.524 . S
C710 C709 1.524 . S
C710 C711 1.397 . S
C710 C715 1.363 . S
C711 H682 0.950 . S
C711 C710 1.397 . S
C711 C712 1.334 . S
C712 H683 0.950 . S
C712 C711 1.334 . S
C712 C713 1.287 . S
C713 C712 1.287 . S
C713 C714 1.524 . S
C713 H716 0.999 . S
C714 H684 0.950 . S
C714 C713 1.524 . S
C714 C715 1.415 . S
C715 H685 0.950 . S
C715 C710 1.363 . S
C715 C714 1.415 . S
H716 C713 0.999 . S
H717 C698 0.913 . S
H718 C736 0.951 . S
H719 C738 0.951 . S
H720 C740 0.950 . S
H721 C741 0.950 . S
H722 C743 0.950 . S
H723 C746 0.950 . S
H724 C747 0.950 . S
H725 C749 0.950 . S
H726 C750 0.950 . S
H727 C751 0.951 . S
H728 C753 0.951 . S
H729 C755 0.950 . S
H730 C756 0.950 . S
H731 C758 0.950 . S
H732 C761 0.950 . S
H733 C762 0.950 . S
H734 C764 0.950 . S
H735 C765 0.950 . S
C736 H718 0.951 . S
C736 C737 1.366 . S
C736 C738 1.388 . S
C737 C736 1.366 . S
C737 C741 1.385 . S
C738 H719 0.951 . S
C738 C736 1.388 . S
C738 C739 1.366 . S
C739 C738 1.366 . S
C739 C740 1.414 . S
C739 C742 1.499 . S
C740 H720 0.950 . S
C740 C739 1.414 . S
C740 C741 1.374 . S
C741 H721 0.950 . S
C741 C737 1.385 . S
C741 C740 1.374 . S
C742 C739 1.499 . S
C742 C743 1.373 . S
C742 C744 1.389 . S
C743 H722 0.950 . S
C743 C742 1.373 . S
C743 C759 1.377 . S
C744 C742 1.389 . S
C744 C745 1.524 . S
C744 C758 1.377 . S
C745 C744 1.524 . S
C745 C746 1.397 . S
C745 C750 1.363 . S
C746 H723 0.950 . S
C746 C745 1.397 . S
C746 C747 1.334 . S
C747 H724 0.950 . S
C747 C746 1.334 . S
C747 C748 1.287 . S
C748 C747 1.287 . S
C748 C749 1.524 . S
C748 H767 0.913 . S
C749 H725 0.950 . S
C749 C748 1.524 . S
C749 C750 1.415 . S
C750 H726 0.950 . S
C750 C745 1.363 . S
C750 C749 1.415 . S
C751 H727 0.951 . S
C751 C752 1.366 . S
C751 C753 1.388 . S
C752 C751 1.366 . S
C752 C756 1.385 . S
C753 H728 0.951 . S
C753 C751 1.388 . S
C753 C754 1.366 . S
C754 C753 1.366 . S
C754 C755 1.414 . S
C754 C757 1.499 . S
C755 H729 0.950 . S
C755 C754 1.414 . S
C755 C756 1.374 . S
C756 H730 0.950 . S
C756 C752 1.385 . S
C756 C755 1.374 . S
C757 C754 1.499 . S
C757 C758 1.373 . S
C757 C759 1.389 . S
C758 H731 0.950 . S
C758 C744 1.377 . S
C758 C757 1.373 . S
C759 C743 1.377 . S
C759 C757 1.389 . S
C759 C760 1.524 . S
C760 C759 1.524 . S
C760 C761 1.397 . S
C760 C765 1.363 . S
C761 H732 0.950 . S
C761 C760 1.397 . S
C761 C762 1.334 . S
C762 H733 0.950 . S
C762 C761 1.334 . S
C762 C763 1.287 . S
C763 C762 1.287 . S
C763 C764 1.524 . S
C763 H766 0.999 . S
C764 H734 0.950 . S
C764 C763 1.524 . S
C764 C765 1.415 . S
C765 H735 0.950 . S
C765 C760 1.363 . S
C765 C764 1.415 . S
H766 C763 0.999 . S
H767 C748 0.913 . S
H768 C786 0.951 . S
H769 C788 0.951 . S
H770 C790 0.950 . S
H771 C791 0.950 . S
H772 C793 0.950 . S
H773 C796 0.950 . S
H774 C797 0.950 . S
H775 C799 0.950 . S
H776 C800 0.950 . S
H777 C801 0.951 . S
H778 C803 0.951 . S
H779 C805 0.950 . S
H780 C806 0.950 . S
H781 C808 0.950 . S
H782 C811 0.950 . S
H783 C812 0.950 . S
H784 C814 0.950 . S
H785 C815 0.950 . S
C786 H768 0.951 . S
C786 C787 1.366 . S
C786 C788 1.388 . S
C787 C786 1.366 . S
C787 C791 1.385 . S
C788 H769 0.951 . S
C788 C786 1.388 . S
C788 C789 1.366 . S
C789 C788 1.366 . S
C789 C790 1.414 . S
C789 C792 1.499 . S
C790 H770 0.950 . S
C790 C789 1.414 . S
C790 C791 1.374 . S
C791 H771 0.950 . S
C791 C787 1.385 . S
C791 C790 1.374 . S
C792 C789 1.499 . S
C792 C793 1.373 . S
C792 C794 1.389 . S
C793 H772 0.950 . S
C793 C792 1.373 . S
C793 C809 1.377 . S
C794 C792 1.389 . S
C794 C795 1.524 . S
C794 C808 1.377 . S
C795 C794 1.524 . S
C795 C796 1.397 . S
C795 C800 1.363 . S
C796 H773 0.950 . S
C796 C795 1.397 . S
C796 C797 1.334 . S
C797 H774 0.950 . S
C797 C796 1.334 . S
C797 C798 1.287 . S
C798 C797 1.287 . S
C798 C799 1.524 . S
C798 H817 0.913 . S
C799 H775 0.950 . S
C799 C798 1.524 . S
C799 C800 1.415 . S
C800 H776 0.950 . S
C800 C795 1.363 . S
C800 C799 1.415 . S
C801 H777 0.951 . S
C801 C802 1.366 . S
C801 C803 1.388 . S
C802 C801 1.366 . S
C802 C806 1.385 . S
C803 H778 0.951 . S
C803 C801 1.388 . S
C803 C804 1.366 . S
C804 C803 1.366 . S
C804 C805 1.414 . S
C804 C807 1.499 . S
C805 H779 0.950 . S
C805 C804 1.414 . S
C805 C806 1.374 . S
C806 H780 0.950 . S
C806 C802 1.385 . S
C806 C805 1.374 . S
C807 C804 1.499 . S
C807 C808 1.373 . S
C807 C809 1.389 . S
C808 H781 0.950 . S
C808 C794 1.377 . S
C808 C807 1.373 . S
C809 C793 1.377 . S
C809 C807 1.389 . S
C809 C810 1.524 . S
C810 C809 1.524 . S
C810 C811 1.397 . S
C810 C815 1.363 . S
C811 H782 0.950 . S
C811 C810 1.397 . S
C811 C812 1.334 . S
C812 H783 0.950 . S
C812 C811 1.334 . S
C812 C813 1.287 . S
C813 C812 1.287 . S
C813 C814 1.524 . S
C813 H816 0.999 . S
C814 H784 0.950 . S
C814 C813 1.524 . S
C814 C815 1.415 . S
C815 H785 0.950 . S
C815 C810 1.363 . S
C815 C814 1.415 . S
H816 C813 0.999 . S
H817 C798 0.913 . S
H818 C836 0.951 . S
H819 C838 0.951 . S
H820 C840 0.950 . S
H821 C841 0.950 . S
H822 C843 0.950 . S
H823 C846 0.950 . S
H824 C847 0.950 . S
H825 C849 0.950 . S
H826 C850 0.950 . S
H827 C851 0.951 . S
H828 C853 0.951 . S
H829 C855 0.950 . S
H830 C856 0.950 . S
H831 C858 0.950 . S
H832 C861 0.950 . S
H833 C862 0.950 . S
H834 C864 0.950 . S
H835 C865 0.950 . S
C836 H818 0.951 . S
C836 C837 1.366 . S
C836 C838 1.388 . S
C837 C836 1.366 . S
C837 C841 1.385 . S
C838 H819 0.951 . S
C838 C836 1.388 . S
C838 C839 1.366 . S
C839 C838 1.366 . S
C839 C840 1.414 . S
C839 C842 1.499 . S
C840 H820 0.950 . S
C840 C839 1.414 . S
C840 C841 1.374 . S
C841 H821 0.950 . S
C841 C837 1.385 . S
C841 C840 1.374 . S
C842 C839 1.499 . S
C842 C843 1.373 . S
C842 C844 1.389 . S
C843 H822 0.950 . S
C843 C842 1.373 . S
C843 C859 1.377 . S
C844 C842 1.389 . S
C844 C845 1.524 . S
C844 C858 1.377 . S
C845 C844 1.524 . S
C845 C846 1.397 . S
C845 C850 1.363 . S
C846 H823 0.950 . S
C846 C845 1.397 . S
C846 C847 1.334 . S
C847 H824 0.950 . S
C847 C846 1.334 . S
C847 C848 1.287 . S
C848 C847 1.287 . S
C848 C849 1.524 . S
C848 H867 0.913 . S
C849 H825 0.950 . S
C849 C848 1.524 . S
C849 C850 1.415 . S
C850 H826 0.950 . S
C850 C845 1.363 . S
C850 C849 1.415 . S
C851 H827 0.951 . S
C851 C852 1.366 . S
C851 C853 1.388 . S
C852 C851 1.366 . S
C852 C856 1.385 . S
C853 H828 0.951 . S
C853 C851 1.388 . S
C853 C854 1.366 . S
C854 C853 1.366 . S
C854 C855 1.414 . S
C854 C857 1.499 . S
C855 H829 0.950 . S
C855 C854 1.414 . S
C855 C856 1.374 . S
C856 H830 0.950 . S
C856 C852 1.385 . S
C856 C855 1.374 . S
C857 C854 1.499 . S
C857 C858 1.373 . S
C857 C859 1.389 . S
C858 H831 0.950 . S
C858 C844 1.377 . S
C858 C857 1.373 . S
C859 C843 1.377 . S
C859 C857 1.389 . S
C859 C860 1.524 . S
C860 C859 1.524 . S
C860 C861 1.397 . S
C860 C865 1.363 . S
C861 H832 0.950 . S
C861 C860 1.397 . S
C861 C862 1.334 . S
C862 H833 0.950 . S
C862 C861 1.334 . S
C862 C863 1.287 . S
C863 C862 1.287 . S
C863 C864 1.524 . S
C863 H866 0.999 . S
C864 H834 0.950 . S
C864 C863 1.524 . S
C864 C865 1.415 . S
C865 H835 0.950 . S
C865 C860 1.363 . S
C865 C864 1.415 . S
H866 C863 0.999 . S
H867 C848 0.913 . S
H868 C886 0.951 . S
H869 C888 0.951 . S
H870 C890 0.950 . S
H871 C891 0.950 . S
H872 C893 0.950 . S
H873 C896 0.950 . S
H874 C897 0.950 . S
H875 C899 0.950 . S
H876 C900 0.950 . S
H877 C901 0.951 . S
H878 C903 0.951 . S
H879 C905 0.950 . S
H880 C906 0.950 . S
H881 C908 0.950 . S
H882 C911 0.950 . S
H883 C912 0.950 . S
H884 C914 0.950 . S
H885 C915 0.950 . S
C886 H868 0.951 . S
C886 C887 1.366 . S
C886 C888 1.388 . S
C887 C886 1.366 . S
C887 C891 1.385 . S
C888 H869 0.951 . S
C888 C886 1.388 . S
C888 C889 1.366 . S
C889 C888 1.366 . S
C889 C890 1.414 . S
C889 C892 1.499 . S
C890 H870 0.950 . S
C890 C889 1.414 . S
C890 C891 1.374 . S
C891 H871 0.950 . S
C891 C887 1.385 . S
C891 C890 1.374 . S
C892 C889 1.499 . S
C892 C893 1.373 . S
C892 C894 1.389 . S
C893 H872 0.950 . S
C893 C892 1.373 . S
C893 C909 1.377 . S
C894 C892 1.389 . S
C894 C895 1.524 . S
C894 C908 1.377 . S
C895 C894 1.524 . S
C895 C896 1.397 . S
C895 C900 1.363 . S
C896 H873 0.950 . S
C896 C895 1.397 . S
C896 C897 1.334 . S
C897 H874 0.950 . S
C897 C896 1.334 . S
C897 C898 1.287 . S
C898 C897 1.287 . S
C898 C899 1.524 . S
C898 H917 0.913 . S
C899 H875 0.950 . S
C899 C898 1.524 . S
C899 C900 1.415 . S
C900 H876 0.950 . S
C900 C895 1.363 . S
C900 C899 1.415 . S
C901 H877 0.951 . S
C901 C902 1.366 . S
C901 C903 1.388 . S
C902 C901 1.366 . S
C902 C906 1.385 . S
C903 H878 0.951 . S
C903 C901 1.388 . S
C903 C904 1.366 . S
C904 C903 1.366 . S
C904 C905 1.414 . S
C904 C907 1.499 . S
C905 H879 0.950 . S
C905 C904 1.414 . S
C905 C906 1.374 . S
C906 H880 0.950 . S
C906 C902 1.385 . S
C906 C905 1.374 . S
C907 C904 1.499 . S
C907 C908 1.373 . S
C907 C909 1.389 . S
C908 H881 0.950 . S
C908 C894 1.377 . S
C908 C907 1.373 . S
C909 C893 1.377 . S
C909 C907 1.389 . S
C909 C910 1.524 . S
C910 C909 1.524 . S
C910 C911 1.397 . S
C910 C915 1.363 . S
C911 H882 0.950 . S
C911 C910 1.397 . S
C911 C912 1.334 . S
C912 H883 0.950 . S
C912 C911 1.334 . S
C912 C913 1.287 . S
C913 C912 1.287 . S
C913 C914 1.524 . S
C913 H916 0.999 . S
C914 H884 0.950 . S
C914 C913 1.524 . S
C914 C915 1.415 . S
C915 H885 0.950 . S
C915 C910 1.363 . S
C915 C914 1.415 . S
H916 C913 0.999 . S
H917 C898 0.913 . S
H918 C936 0.951 . S
H919 C938 0.951 . S
H920 C940 0.950 . S
H921 C941 0.950 . S
H922 C943 0.950 . S
H923 C946 0.950 . S
H924 C947 0.950 . S
H925 C949 0.950 . S
H926 C950 0.950 . S
H927 C951 0.951 . S
H928 C953 0.951 . S
H929 C955 0.950 . S
H930 C956 0.950 . S
H931 C958 0.950 . S
H932 C961 0.950 . S
H933 C962 0.950 . S
H934 C964 0.950 . S
H935 C965 0.950 . S
C936 H918 0.951 . S
C936 C937 1.366 . S
C936 C938 1.388 . S
C937 C936 1.366 . S
C937 C941 1.385 . S
C938 H919 0.951 . S
C938 C936 1.388 . S
C938 C939 1.366 . S
C939 C938 1.366 . S
C939 C940 1.414 . S
C939 C942 1.499 . S
C940 H920 0.950 . S
C940 C939 1.414 . S
C940 C941 1.374 . S
C941 H921 0.950 . S
C941 C937 1.385 . S
C941 C940 1.374 . S
C942 C939 1.499 . S
C942 C943 1.373 . S
C942 C944 1.389 . S
C943 H922 0.950 . S
C943 C942 1.373 . S
C943 C959 1.377 . S
C944 C942 1.389 . S
C944 C945 1.524 . S
C944 C958 1.377 . S
C945 C944 1.524 . S
C945 C946 1.397 . S
C945 C950 1.363 . S
C946 H923 0.950 . S
C946 C945 1.397 . S
C946 C947 1.334 . S
C947 H924 0.950 . S
C947 C946 1.334 . S
C947 C948 1.287 . S
C948 C947 1.287 . S
C948 C949 1.524 . S
C948 H967 0.913 . S
C949 H925 0.950 . S
C949 C948 1.524 . S
C949 C950 1.415 . S
C950 H926 0.950 . S
C950 C945 1.363 . S
C950 C949 1.415 . S
C951 H927 0.951 . S
C951 C952 1.366 . S
C951 C953 1.388 . S
C952 C951 1.366 . S
C952 C956 1.385 . S
C953 H928 0.951 . S
C953 C951 1.388 . S
C953 C954 1.366 . S
C954 C953 1.366 . S
C954 C955 1.414 . S
C954 C957 1.499 . S
C955 H929 0.950 . S
C955 C954 1.414 . S
C955 C956 1.374 . S
C956 H930 0.950 . S
C956 C952 1.385 . S
C956 C955 1.374 . S
C957 C954 1.499 . S
C957 C958 1.373 . S
C957 C959 1.389 . S
C958 H931 0.950 . S
C958 C944 1.377 . S
C958 C957 1.373 . S
C959 C943 1.377 . S
C959 C957 1.389 . S
C959 C960 1.524 . S
C960 C959 1.524 . S
C960 C961 1.397 . S
C960 C965 1.363 . S
C961 H932 0.950 . S
C961 C960 1.397 . S
C961 C962 1.334 . S
C962 H933 0.950 . S
C962 C961 1.334 . S
C962 C963 1.287 . S
C963 C962 1.287 . S
C963 C964 1.524 . S
C963 H966 0.999 . S
C964 H934 0.950 . S
C964 C963 1.524 . S
C964 C965 1.415 . S
C965 H935 0.950 . S
C965 C960 1.363 . S
C965 C964 1.415 . S
H966 C963 0.999 . S
H967 C948 0.913 . S
H968 C986 0.951 . S
H969 C988 0.951 . S
H970 C990 0.950 . S
H971 C991 0.950 . S
H972 C993 0.950 . S
H973 C996 0.950 . S
H974 C997 0.950 . S
H975 C999 0.950 . S
H976 C1000 0.950 . S
H977 C1001 0.951 . S
H978 C1003 0.951 . S
H979 C1005 0.950 . S
H980 C1006 0.950 . S
H981 C1008 0.950 . S
H982 C1011 0.950 . S
H983 C1012 0.950 . S
H984 C1014 0.950 . S
H985 C1015 0.950 . S
C986 H968 0.951 . S
C986 C987 1.366 . S
C986 C988 1.388 . S
C987 C986 1.366 . S
C987 C991 1.385 . S
C988 H969 0.951 . S
C988 C986 1.388 . S
C988 C989 1.366 . S
C989 C988 1.366 . S
C989 C990 1.414 . S
C989 C992 1.499 . S
C990 H970 0.950 . S
C990 C989 1.414 . S
C990 C991 1.374 . S
C991 H971 0.950 . S
C991 C987 1.385 . S
C991 C990 1.374 . S
C992 C989 1.499 . S
C992 C993 1.373 . S
C992 C994 1.389 . S
C993 H972 0.950 . S
C993 C992 1.373 . S
C993 C1009 1.377 . S
C994 C992 1.389 . S
C994 C995 1.524 . S
C994 C1008 1.377 . S
C995 C994 1.524 . S
C995 C996 1.397 . S
C995 C1000 1.363 . S
C996 H973 0.950 . S
C996 C995 1.397 . S
C996 C997 1.334 . S
C997 H974 0.950 . S
C997 C996 1.334 . S
C997 C998 1.287 . S
C998 C997 1.287 . S
C998 C999 1.524 . S
C998 H1017 0.913 . S
C999 H975 0.950 . S
C999 C998 1.524 . S
C999 C1000 1.415 . S
C1000 H976 0.950 . S
C1000 C995 1.363 . S
C1000 C999 1.415 . S
C1001 H977 0.951 . S
C1001 C1002 1.366 . S
C1001 C1003 1.388 . S
C1002 C1001 1.366 . S
C1002 C1006 1.385 . S
C1003 H978 0.951 . S
C1003 C1001 1.388 . S
C1003 C1004 1.366 . S
C1004 C1003 1.366 . S
C1004 C1005 1.414 . S
C1004 C1007 1.499 . S
C1005 H979 0.950 . S
C1005 C1004 1.414 . S
C1005 C1006 1.374 . S
C1006 H980 0.950 . S
C1006 C1002 1.385 . S
C1006 C1005 1.374 . S
C1007 C1004 1.499 . S
C1007 C1008 1.373 . S
C1007 C1009 1.389 . S
C1008 H981 0.950 . S
C1008 C994 1.377 . S
C1008 C1007 1.373 . S
C1009 C993 1.377 . S
C1009 C1007 1.389 . S
C1009 C1010 1.524 . S
C1010 C1009 1.524 . S
C1010 C1011 1.397 . S
C1010 C1015 1.363 . S
C1011 H982 0.950 . S
C1011 C1010 1.397 . S
C1011 C1012 1.334 . S
C1012 H983 0.950 . S
C1012 C1011 1.334 . S
C1012 C1013 1.287 . S
C1013 C1012 1.287 . S
C1013 C1014 1.524 . S
C1013 H1016 0.999 . S
C1014 H984 0.950 . S
C1014 C1013 1.524 . S
C1014 C1015 1.415 . S
C1015 H985 0.950 . S
C1015 C1010 1.363 . S
C1015 C1014 1.415 . S
H1016 C1013 0.999 . S
H1017 C998 0.913 . S
H1018 C1036 0.951 . S
H1019 C1038 0.951 . S
H1020 C1040 0.950 . S
H1021 C1041 0.950 . S
H1022 C1043 0.950 . S
H1023 C1046 0.950 . S
H1024 C1047 0.950 . S
H1025 C1049 0.950 . S
H1026 C1050 0.950 . S
H1027 C1051 0.951 . S
H1028 C1053 0.951 . S
H1029 C1055 0.950 . S
H1030 C1056 0.950 . S
H1031 C1058 0.950 . S
H1032 C1061 0.950 . S
H1033 C1062 0.950 . S
H1034 C1064 0.950 . S
H1035 C1065 0.950 . S
C1036 H1018 0.951 . S
C1036 C1037 1.366 . S
C1036 C1038 1.388 . S
C1037 C1036 1.366 . S
C1037 C1041 1.385 . S
C1038 H1019 0.951 . S
C1038 C1036 1.388 . S
C1038 C1039 1.366 . S
C1039 C1038 1.366 . S
C1039 C1040 1.414 . S
C1039 C1042 1.499 . S
C1040 H1020 0.950 . S
C1040 C1039 1.414 . S
C1040 C1041 1.374 . S
C1041 H1021 0.950 . S
C1041 C1037 1.385 . S
C1041 C1040 1.374 . S
C1042 C1039 1.499 . S
C1042 C1043 1.373 . S
C1042 C1044 1.389 . S
C1043 H1022 0.950 . S
C1043 C1042 1.373 . S
C1043 C1059 1.377 . S
C1044 C1042 1.389 . S
C1044 C1045 1.524 . S
C1044 C1058 1.377 . S
C1045 C1044 1.524 . S
C1045 C1046 1.397 . S
C1045 C1050 1.363 . S
C1046 H1023 0.950 . S
C1046 C1045 1.397 . S
C1046 C1047 1.334 . S
C1047 H1024 0.950 . S
C1047 C1046 1.334 . S
C1047 C1048 1.287 . S
C1048 C1047 1.287 . S
C1048 C1049 1.524 . S
C1048 H1067 0.913 . S
C1049 H1025 0.950 . S
C1049 C1048 1.524 . S
C1049 C1050 1.415 . S
C1050 H1026 0.950 . S
C1050 C1045 1.363 . S
C1050 C1049 1.415 . S
C1051 H1027 0.951 . S
C1051 C1052 1.366 . S
C1051 C1053 1.388 . S
C1052 C1051 1.366 . S
C1052 C1056 1.385 . S
C1053 H1028 0.951 . S
C1053 C1051 1.388 . S
C1053 C1054 1.366 . S
C1054 C1053 1.366 . S
C1054 C1055 1.414 . S
C1054 C1057 1.499 . S
C1055 H1029 0.950 . S
C1055 C1054 1.414 . S
C1055 C1056 1.374 . S
C1056 H1030 0.950 . S
C1056 C1052 1.385 . S
C1056 C1055 1.374 . S
C1057 C1054 1.499 . S
C1057 C1058 1.373 . S
C1057 C1059 1.389 . S
C1058 H1031 0.950 . S
C1058 C1044 1.377 . S
C1058 C1057 1.373 . S
C1059 C1043 1.377 . S
C1059 C1057 1.389 . S
C1059 C1060 1.524 . S
C1060 C1059 1.524 . S
C1060 C1061 1.397 . S
C1060 C1065 1.363 . S
C1061 H1032 0.950 . S
C1061 C1060 1.397 . S
C1061 C1062 1.334 . S
C1062 H1033 0.950 . S
C1062 C1061 1.334 . S
C1062 C1063 1.287 . S
C1063 C1062 1.287 . S
C1063 C1064 1.524 . S
C1063 H1066 0.999 . S
C1064 H1034 0.950 . S
C1064 C1063 1.524 . S
C1064 C1065 1.415 . S
C1065 H1035 0.950 . S
C1065 C1060 1.363 . S
C1065 C1064 1.415 . S
H1066 C1063 0.999 . S
H1067 C1048 0.913 . S
H1068 C1086 0.951 . S
H1069 C1088 0.951 . S
H1070 C1090 0.950 . S
H1071 C1091 0.950 . S
H1072 C1093 0.950 . S
H1073 C1096 0.950 . S
H1074 C1097 0.950 . S
H1075 C1099 0.950 . S
H1076 C1100 0.950 . S
H1077 C1101 0.951 . S
H1078 C1103 0.951 . S
H1079 C1105 0.950 . S
H1080 C1106 0.950 . S
H1081 C1108 0.950 . S
H1082 C1111 0.950 . S
H1083 C1112 0.950 . S
H1084 C1114 0.950 . S
H1085 C1115 0.950 . S
C1086 H1068 0.951 . S
C1086 C1087 1.366 . S
C1086 C1088 1.388 . S
C1087 C1086 1.366 . S
C1087 C1091 1.385 . S
C1088 H1069 0.951 . S
C1088 C1086 1.388 . S
C1088 C1089 1.366 . S
C1089 C1088 1.366 . S
C1089 C1090 1.414 . S
C1089 C1092 1.499 . S
C1090 H1070 0.950 . S
C1090 C1089 1.414 . S
C1090 C1091 1.374 . S
C1091 H1071 0.950 . S
C1091 C1087 1.385 . S
C1091 C1090 1.374 . S
C1092 C1089 1.499 . S
C1092 C1093 1.373 . S
C1092 C1094 1.389 . S
C1093 H1072 0.950 . S
C1093 C1092 1.373 . S
C1093 C1109 1.377 . S
C1094 C1092 1.389 . S
C1094 C1095 1.524 . S
C1094 C1108 1.377 . S
C1095 C1094 1.524 . S
C1095 C1096 1.397 . S
C1095 C1100 1.363 . S
C1096 H1073 0.950 . S
C1096 C1095 1.397 . S
C1096 C1097 1.334 . S
C1097 H1074 0.950 . S
C1097 C1096 1.334 . S
C1097 C1098 1.287 . S
C1098 C1097 1.287 . S
C1098 C1099 1.524 . S
C1098 H1117 0.913 . S
C1099 H1075 0.950 . S
C1099 C1098 1.524 . S
C1099 C1100 1.415 . S
C1100 H1076 0.950 . S
C1100 C1095 1.363 . S
C1100 C1099 1.415 . S
C1101 H1077 0.951 . S
C1101 C1102 1.366 . S
C1101 C1103 1.388 . S
C1102 C1101 1.366 . S
C1102 C1106 1.385 . S
C1103 H1078 0.951 . S
C1103 C1101 1.388 . S
C1103 C1104 1.366 . S
C1104 C1103 1.366 . S
C1104 C1105 1.414 . S
C1104 C1107 1.499 . S
C1105 H1079 0.950 . S
C1105 C1104 1.414 . S
C1105 C1106 1.374 . S
C1106 H1080 0.950 . S
C1106 C1102 1.385 . S
C1106 C1105 1.374 . S
C1107 C1104 1.499 . S
C1107 C1108 1.373 . S
C1107 C1109 1.389 . S
C1108 H1081 0.950 . S
C1108 C1094 1.377 . S
C1108 C1107 1.373 . S
C1109 C1093 1.377 . S
C1109 C1107 1.389 . S
C1109 C1110 1.524 . S
C1110 C1109 1.524 . S
C1110 C1111 1.397 . S
C1110 C1115 1.363 . S
C1111 H1082 0.950 . S
C1111 C1110 1.397 . S
C1111 C1112 1.334 . S
C1112 H1083 0.950 . S
C1112 C1111 1.334 . S
C1112 C1113 1.287 . S
C1113 C1112 1.287 . S
C1113 C1114 1.524 . S
C1113 H1116 0.999 . S
C1114 H1084 0.950 . S
C1114 C1113 1.524 . S
C1114 C1115 1.415 . S
C1115 H1085 0.950 . S
C1115 C1110 1.363 . S
C1115 C1114 1.415 . S
H1116 C1113 0.999 . S
H1117 C1098 0.913 . S
H1118 C1136 0.951 . S
H1119 C1138 0.951 . S
H1120 C1140 0.950 . S
H1121 C1141 0.950 . S
H1122 C1143 0.950 . S
H1123 C1146 0.950 . S
H1124 C1147 0.950 . S
H1125 C1149 0.950 . S
H1126 C1150 0.950 . S
H1127 C1151 0.951 . S
H1128 C1153 0.951 . S
H1129 C1155 0.950 . S
H1130 C1156 0.950 . S
H1131 C1158 0.950 . S
H1132 C1161 0.950 . S
H1133 C1162 0.950 . S
H1134 C1164 0.950 . S
H1135 C1165 0.950 . S
C1136 H1118 0.951 . S
C1136 C1137 1.366 . S
C1136 C1138 1.388 . S
C1137 C1136 1.366 . S
C1137 C1141 1.385 . S
C1138 H1119 0.951 . S
C1138 C1136 1.388 . S
C1138 C1139 1.366 . S
C1139 C1138 1.366 . S
C1139 C1140 1.414 . S
C1139 C1142 1.499 . S
C1140 H1120 0.950 . S
C1140 C1139 1.414 . S
C1140 C1141 1.374 . S
C1141 H1121 0.950 . S
C1141 C1137 1.385 . S
C1141 C1140 1.374 . S
C1142 C1139 1.499 . S
C1142 C1143 1.373 . S
C1142 C1144 1.389 . S
C1143 H1122 0.950 . S
C1143 C1142 1.373 . S
C1143 C1159 1.377 . S
C1144 C1142 1.389 . S
C1144 C1145 1.524 . S
C1144 C1158 1.377 . S
C1145 C1144 1.524 . S
C1145 C1146 1.397 . S
C1145 C1150 1.363 . S
C1146 H1123 0.950 . S
C1146 C1145 1.397 . S
C1146 C1147 1.334 . S
C1147 H1124 0.950 . S
C1147 C1146 1.334 . S
C1147 C1148 1.287 . S
C1148 C1147 1.287 . S
C1148 C1149 1.524 . S
C1148 H1167 0.913 . S
C1149 H1125 0.950 . S
C1149 C1148 1.524 . S
C1149 C1150 1.415 . S
C1150 H1126 0.950 . S
C1150 C1145 1.363 . S
C1150 C1149 1.415 . S
C1151 H1127 0.951 . S
C1151 C1152 1.366 . S
C1151 C1153 1.388 . S
C1152 C1151 1.366 . S
C1152 C1156 1.385 . S
C1153 H1128 0.951 . S
C1153 C1151 1.388 . S
C1153 C1154 1.366 . S
C1154 C1153 1.366 . S
C1154 C1155 1.414 . S
C1154 C1157 1.499 . S
C1155 H1129 0.950 . S
C1155 C1154 1.414 . S
C1155 C1156 1.374 . S
C1156 H1130 0.950 . S
C1156 C1152 1.385 . S
C1156 C1155 1.374 . S
C1157 C1154 1.499 . S
C1157 C1158 1.373 . S
C1157 C1159 1.389 . S
C1158 H1131 0.950 . S
C1158 C1144 1.377 . S
C1158 C1157 1.373 . S
C1159 C1143 1.377 . S
C1159 C1157 1.389 . S
C1159 C1160 1.524 . S
C1160 C1159 1.524 . S
C1160 C1161 1.397 . S
C1160 C1165 1.363 . S
C1161 H1132 0.950 . S
C1161 C1160 1.397 . S
C1161 C1162 1.334 . S
C1162 H1133 0.950 . S
C1162 C1161 1.334 . S
C1162 C1163 1.287 . S
C1163 C1162 1.287 . S
C1163 C1164 1.524 . S
C1163 H1166 0.999 . S
C1164 H1134 0.950 . S
C1164 C1163 1.524 . S
C1164 C1165 1.415 . S
C1165 H1135 0.950 . S
C1165 C1160 1.363 . S
C1165 C1164 1.415 . S
H1166 C1163 0.999 . S
H1167 C1148 0.913 . S
H1168 C1186 0.951 . S
H1169 C1188 0.951 . S
H1170 C1190 0.950 . S
H1171 C1191 0.950 . S
H1172 C1193 0.950 . S
H1173 C1196 0.950 . S
H1174 C1197 0.950 . S
H1175 C1199 0.950 . S
H1176 C1200 0.950 . S
H1177 C1201 0.951 . S
H1178 C1203 0.951 . S
H1179 C1205 0.950 . S
H1180 C1206 0.950 . S
H1181 C1208 0.950 . S
H1182 C1211 0.950 . S
H1183 C1212 0.950 . S
H1184 C1214 0.950 . S
H1185 C1215 0.950 . S
C1186 H1168 0.951 . S
C1186 C1187 1.366 . S
C1186 C1188 1.388 . S
C1187 C1186 1.366 . S
C1187 C1191 1.385 . S
C1188 H1169 0.951 . S
C1188 C1186 1.388 . S
C1188 C1189 1.366 . S
C1189 C1188 1.366 . S
C1189 C1190 1.414 . S
C1189 C1192 1.499 . S
C1190 H1170 0.950 . S
C1190 C1189 1.414 . S
C1190 C1191 1.374 . S
C1191 H1171 0.950 . S
C1191 C1187 1.385 . S
C1191 C1190 1.374 . S
C1192 C1189 1.499 . S
C1192 C1193 1.373 . S
C1192 C1194 1.389 . S
C1193 H1172 0.950 . S
C1193 C1192 1.373 . S
C1193 C1209 1.377 . S
C1194 C1192 1.389 . S
C1194 C1195 1.524 . S
C1194 C1208 1.377 . S
C1195 C1194 1.524 . S
C1195 C1196 1.397 . S
C1195 C1200 1.363 . S
C1196 H1173 0.950 . S
C1196 C1195 1.397 . S
C1196 C1197 1.334 . S
C1197 H1174 0.950 . S
C1197 C1196 1.334 . S
C1197 C1198 1.287 . S
C1198 C1197 1.287 . S
C1198 C1199 1.524 . S
C1198 H1217 0.913 . S
C1199 H1175 0.950 . S
C1199 C1198 1.524 . S
C1199 C1200 1.415 . S
C1200 H1176 0.950 . S
C1200 C1195 1.363 . S
C1200 C1199 1.415 . S
C1201 H1177 0.951 . S
C1201 C1202 1.366 . S
C1201 C1203 1.388 . S
C1202 C1201 1.366 . S
C1202 C1206 1.385 . S
C1203 H1178 0.951 . S
C1203 C1201 1.388 . S
C1203 C1204 1.366 . S
C1204 C1203 1.366 . S
C1204 C1205 1.414 . S
C1204 C1207 1.499 . S
C1205 H1179 0.950 . S
C1205 C1204 1.414 . S
C1205 C1206 1.374 . S
C1206 H1180 0.950 . S
C1206 C1202 1.385 . S
C1206 C1205 1.374 . S
C1207 C1204 1.499 . S
C1207 C1208 1.373 . S
C1207 C1209 1.389 . S
C1208 H1181 0.950 . S
C1208 C1194 1.377 . S
C1208 C1207 1.373 . S
C1209 C1193 1.377 . S
C1209 C1207 1.389 . S
C1209 C1210 1.524 . S
C1210 C1209 1.524 . S
C1210 C1211 1.397 . S
C1210 C1215 1.363 . S
C1211 H1182 0.950 . S
C1211 C1210 1.397 . S
C1211 C1212 1.334 . S
C1212 H1183 0.950 . S
C1212 C1211 1.334 . S
C1212 C1213 1.287 . S
C1213 C1212 1.287 . S
C1213 C1214 1.524 . S
C1213 H1216 0.999 . S
C1214 H1184 0.950 . S
C1214 C1213 1.524 . S
C1214 C1215 1.415 . S
C1215 H1185 0.950 . S
C1215 C1210 1.363 . S
C1215 C1214 1.415 . S
H1216 C1213 0.999 . S
H1217 C1198 0.913 . S
H1218 C1236 0.951 . S
H1219 C1238 0.951 . S
H1220 C1240 0.950 . S
H1221 C1241 0.950 . S
H1222 C1243 0.950 . S
H1223 C1246 0.950 . S
H1224 C1247 0.950 . S
H1225 C1249 0.950 . S
H1226 C1250 0.950 . S
H1227 C1251 0.951 . S
H1228 C1253 0.951 . S
H1229 C1255 0.950 . S
H1230 C1256 0.950 . S
H1231 C1258 0.950 . S
H1232 C1261 0.950 . S
H1233 C1262 0.950 . S
H1234 C1264 0.950 . S
H1235 C1265 0.950 . S
C1236 H1218 0.951 . S
C1236 C1237 1.366 . S
C1236 C1238 1.388 . S
C1237 C1236 1.366 . S
C1237 C1241 1.385 . S
C1238 H1219 0.951 . S
C1238 C1236 1.388 . S
C1238 C1239 1.366 . S
C1239 C1238 1.366 . S
C1239 C1240 1.414 . S
C1239 C1242 1.499 . S
C1240 H1220 0.950 . S
C1240 C1239 1.414 . S
C1240 C1241 1.374 . S
C1241 H1221 0.950 . S
C1241 C1237 1.385 . S
C1241 C1240 1.374 . S
C1242 C1239 1.499 . S
C1242 C1243 1.373 . S
C1242 C1244 1.389 . S
C1243 H1222 0.950 . S
C1243 C1242 1.373 . S
C1243 C1259 1.377 . S
C1244 C1242 1.389 . S
C1244 C1245 1.524 . S
C1244 C1258 1.377 . S
C1245 C1244 1.524 . S
C1245 C1246 1.397 . S
C1245 C1250 1.363 . S
C1246 H1223 0.950 . S
C1246 C1245 1.397 . S
C1246 C1247 1.334 . S
C1247 H1224 0.950 . S
C1247 C1246 1.334 . S
C1247 C1248 1.287 . S
C1248 C1247 1.287 . S
C1248 C1249 1.524 . S
C1248 H1267 0.913 . S
C1249 H1225 0.950 . S
C1249 C1248 1.524 . S
C1249 C1250 1.415 . S
C1250 H1226 0.950 . S
C1250 C1245 1.363 . S
C1250 C1249 1.415 . S
C1251 H1227 0.951 . S
C1251 C1252 1.366 . S
C1251 C1253 1.388 . S
C1252 C1251 1.366 . S
C1252 C1256 1.385 . S
C1253 H1228 0.951 . S
C1253 C1251 1.388 . S
C1253 C1254 1.366 . S
C1254 C1253 1.366 . S
C1254 C1255 1.414 . S
C1254 C1257 1.499 . S
C1255 H1229 0.950 . S
C1255 C1254 1.414 . S
C1255 C1256 1.374 . S
C1256 H1230 0.950 . S
C1256 C1252 1.385 . S
C1256 C1255 1.374 . S
C1257 C1254 1.499 . S
C1257 C1258 1.373 . S
C1257 C1259 1.389 . S
C1258 H1231 0.950 . S
C1258 C1244 1.377 . S
C1258 C1257 1.373 . S
C1259 C1243 1.377 . S
C1259 C1257 1.389 . S
C1259 C1260 1.524 . S
C1260 C1259 1.524 . S
C1260 C1261 1.397 . S
C1260 C1265 1.363 . S
C1261 H1232 0.950 . S
C1261 C1260 1.397 . S
C1261 C1262 1.334 . S
C1262 H1233 0.950 . S
C1262 C1261 1.334 . S
C1262 C1263 1.287 . S
C1263 C1262 1.287 . S
C1263 C1264 1.524 . S
C1263 H1266 0.999 . S
C1264 H1234 0.950 . S
C1264 C1263 1.524 . S
C1264 C1265 1.415 . S
C1265 H1235 0.950 . S
C1265 C1260 1.363 . S
C1265 C1264 1.415 . S
H1266 C1263 0.999 . S
H1267 C1248 0.913 . S
H1268 C1286 0.951 . S
H1269 C1288 0.951 . S
H1270 C1290 0.950 . S
H1271 C1291 0.950 . S
H1272 C1293 0.950 . S
H1273 C1296 0.950 . S
H1274 C1297 0.950 . S
H1275 C1299 0.950 . S
H1276 C1300 0.950 . S
H1277 C1301 0.951 . S
H1278 C1303 0.951 . S
H1279 C1305 0.950 . S
H1280 C1306 0.950 . S
H1281 C1308 0.950 . S
H1282 C1311 0.950 . S
H1283 C1312 0.950 . S
H1284 C1314 0.950 . S
H1285 C1315 0.950 . S
C1286 H1268 0.951 . S
C1286 C1287 1.366 . S
C1286 C1288 1.388 . S
C1287 C1286 1.366 . S
C1287 C1291 1.385 . S
C1288 H1269 0.951 . S
C1288 C1286 1.388 . S
C1288 C1289 1.366 . S
C1289 C1288 1.366 . S
C1289 C1290 1.414 . S
C1289 C1292 1.499 . S
C1290 H1270 0.950 . S
C1290 C1289 1.414 . S
C1290 C1291 1.374 . S
C1291 H1271 0.950 . S
C1291 C1287 1.385 . S
C1291 C1290 1.374 . S
C1292 C1289 1.499 . S
C1292 C1293 1.373 . S
C1292 C1294 1.389 . S
C1293 H1272 0.950 . S
C1293 C1292 1.373 . S
C1293 C1309 1.377 . S
C1294 C1292 1.389 . S
C1294 C1295 1.524 . S
C1294 C1308 1.377 . S
C1295 C1294 1.524 . S
C1295 C1296 1.397 . S
C1295 C1300 1.363 . S
C1296 H1273 0.950 . S
C1296 C1295 1.397 . S
C1296 C1297 1.334 . S
C1297 H1274 0.950 . S
C1297 C1296 1.334 . S
C1297 C1298 1.287 . S
C1298 C1297 1.287 . S
C1298 C1299 1.524 . S
C1298 H1317 0.913 . S
C1299 H1275 0.950 . S
C1299 C1298 1.524 . S
C1299 C1300 1.415 . S
C1300 H1276 0.950 . S
C1300 C1295 1.363 . S
C1300 C1299 1.415 . S
C1301 H1277 0.951 . S
C1301 C1302 1.366 . S
C1301 C1303 1.388 . S
C1302 C1301 1.366 . S
C1302 C1306 1.385 . S
C1303 H1278 0.951 . S
C1303 C1301 1.388 . S
C1303 C1304 1.366 . S
C1304 C1303 1.366 . S
C1304 C1305 1.414 . S
C1304 C1307 1.499 . S
C1305 H1279 0.950 . S
C1305 C1304 1.414 . S
C1305 C1306 1.374 . S
C1306 H1280 0.950 . S
C1306 C1302 1.385 . S
C1306 C1305 1.374 . S
C1307 C1304 1.499 . S
C1307 C1308 1.373 . S
C1307 C1309 1.389 . S
C1308 H1281 0.950 . S
C1308 C1294 1.377 . S
C1308 C1307 1.373 . S
C1309 C1293 1.377 . S
C1309 C1307 1.389 . S
C1309 C1310 1.524 . S
C1310 C1309 1.524 . S
C1310 C1311 1.397 . S
C1310 C1315 1.363 . S
C1311 H1282 0.950 . S
C1311 C1310 1.397 . S
C1311 C1312 1.334 . S
C1312 H1283 0.950 . S
C1312 C1311 1.334 . S
C1312 C1313 1.287 . S
C1313 C1312 1.287 . S
C1313 C1314 1.524 . S
C1313 H1316 0.999 . S
C1314 H1284 0.950 . S
C1314 C1313 1.524 . S
C1314 C1315 1.415 . S
C1315 H1285 0.950 . S
C1315 C1310 1.363 . S
C1315 C1314 1.415 . S
H1316 C1313 0.999 . S
H1317 C1298 0.913 . S
H1318 C1336 0.951 . S
H1319 C1338 0.951 . S
H1320 C1340 0.950 . S
H1321 C1341 0.950 . S
H1322 C1343 0.950 . S
H1323 C1346 0.950 . S
H1324 C1347 0.950 . S
H1325 C1349 0.950 . S
H1326 C1350 0.950 . S
H1327 C1351 0.951 . S
H1328 C1353 0.951 . S
H1329 C1355 0.950 . S
H1330 C1356 0.950 . S
H1331 C1358 0.950 . S
H1332 C1361 0.950 . S
H1333 C1362 0.950 . S
H1334 C1364 0.950 . S
H1335 C1365 0.950 . S
C1336 H1318 0.951 . S
C1336 C1337 1.366 . S
C1336 C1338 1.388 . S
C1337 C1336 1.366 . S
C1337 C1341 1.385 . S
C1338 H1319 0.951 . S
C1338 C1336 1.388 . S
C1338 C1339 1.366 . S
C1339 C1338 1.366 . S
C1339 C1340 1.414 . S
C1339 C1342 1.499 . S
C1340 H1320 0.950 . S
C1340 C1339 1.414 . S
C1340 C1341 1.374 . S
C1341 H1321 0.950 . S
C1341 C1337 1.385 . S
C1341 C1340 1.374 . S
C1342 C1339 1.499 . S
C1342 C1343 1.373 . S
C1342 C1344 1.389 . S
C1343 H1322 0.950 . S
C1343 C1342 1.373 . S
C1343 C1359 1.377 . S
C1344 C1342 1.389 . S
C1344 C1345 1.524 . S
C1344 C1358 1.377 . S
C1345 C1344 1.524 . S
C1345 C1346 1.397 . S
C1345 C1350 1.363 . S
C1346 H1323 0.950 . S
C1346 C1345 1.397 . S
C1346 C1347 1.334 . S
C1347 H1324 0.950 . S
C1347 C1346 1.334 . S
C1347 C1348 1.287 . S
C1348 C1347 1.287 . S
C1348 C1349 1.524 . S
C1348 H1367 0.913 . S
C1349 H1325 0.950 . S
C1349 C1348 1.524 . S
C1349 C1350 1.415 . S
C1350 H1326 0.950 . S
C1350 C1345 1.363 . S
C1350 C1349 1.415 . S
C1351 H1327 0.951 . S
C1351 C1352 1.366 . S
C1351 C1353 1.388 . S
C1352 C1351 1.366 . S
C1352 C1356 1.385 . S
C1353 H1328 0.951 . S
C1353 C1351 1.388 . S
C1353 C1354 1.366 . S
C1354 C1353 1.366 . S
C1354 C1355 1.414 . S
C1354 C1357 1.499 . S
C1355 H1329 0.950 . S
C1355 C1354 1.414 . S
C1355 C1356 1.374 . S
C1356 H1330 0.950 . S
C1356 C1352 1.385 . S
C1356 C1355 1.374 . S
C1357 C1354 1.499 . S
C1357 C1358 1.373 . S
C1357 C1359 1.389 . S
C1358 H1331 0.950 . S
C1358 C1344 1.377 . S
C1358 C1357 1.373 . S
C1359 C1343 1.377 . S
C1359 C1357 1.389 . S
C1359 C1360 1.524 . S
C1360 C1359 1.524 . S
C1360 C1361 1.397 . S
C1360 C1365 1.363 . S
C1361 H1332 0.950 . S
C1361 C1360 1.397 . S
C1361 C1362 1.334 . S
C1362 H1333 0.950 . S
C1362 C1361 1.334 . S
C1362 C1363 1.287 . S
C1363 C1362 1.287 . S
C1363 C1364 1.524 . S
C1363 H1366 0.999 . S
C1364 H1334 0.950 . S
C1364 C1363 1.524 . S
C1364 C1365 1.415 . S
C1365 H1335 0.950 . S
C1365 C1360 1.363 . S
C1365 C1364 1.415 . S
H1366 C1363 0.999 . S
H1367 C1348 0.913 . S
H1368 C1386 0.951 . S
H1369 C1388 0.951 . S
H1370 C1390 0.950 . S
H1371 C1391 0.950 . S
H1372 C1393 0.950 . S
H1373 C1396 0.950 . S
H1374 C1397 0.950 . S
H1375 C1399 0.950 . S
H1376 C1400 0.950 . S
H1377 C1401 0.951 . S
H1378 C1403 0.951 . S
H1379 C1405 0.950 . S
H1380 C1406 0.950 . S
H1381 C1408 0.950 . S
H1382 C1411 0.950 . S
H1383 C1412 0.950 . S
H1384 C1414 0.950 . S
H1385 C1415 0.950 . S
C1386 H1368 0.951 . S
C1386 C1387 1.366 . S
C1386 C1388 1.388 . S
C1387 C1386 1.366 . S
C1387 C1391 1.385 . S
C1388 H1369 0.951 . S
C1388 C1386 1.388 . S
C1388 C1389 1.366 . S
C1389 C1388 1.366 . S
C1389 C1390 1.414 . S
C1389 C1392 1.499 . S
C1390 H1370 0.950 . S
C1390 C1389 1.414 . S
C1390 C1391 1.374 . S
C1391 H1371 0.950 . S
C1391 C1387 1.385 . S
C1391 C1390 1.374 . S
C1392 C1389 1.499 . S
C1392 C1393 1.373 . S
C1392 C1394 1.389 . S
C1393 H1372 0.950 . S
C1393 C1392 1.373 . S
C1393 C1409 1.377 . S
C1394 C1392 1.389 . S
C1394 C1395 1.524 . S
C1394 C1408 1.377 . S
C1395 C1394 1.524 . S
C1395 C1396 1.397 . S
C1395 C1400 1.363 . S
C1396 H1373 0.950 . S
C1396 C1395 1.397 . S
C1396 C1397 1.334 . S
C1397 H1374 0.950 . S
C1397 C1396 1.334 . S
C1397 C1398 1.287 . S
C1398 C1397 1.287 . S
C1398 C1399 1.524 . S
C1398 H1417 0.913 . S
C1399 H1375 0.950 . S
C1399 C1398 1.524 . S
C1399 C1400 1.415 . S
C1400 H1376 0.950 . S
C1400 C1395 1.363 . S
C1400 C1399 1.415 . S
C1401 H1377 0.951 . S
C1401 C1402 1.366 . S
C1401 C1403 1.388 . S
C1402 C1401 1.366 . S
C1402 C1406 1.385 . S
C1403 H1378 0.951 . S
C1403 C1401 1.388 . S
C1403 C1404 1.366 . S
C1404 C1403 1.366 . S
C1404 C1405 1.414 . S
C1404 C1407 1.499 . S
C1405 H1379 0.950 . S
C1405 C1404 1.414 . S
C1405 C1406 1.374 . S
C1406 H1380 0.950 . S
C1406 C1402 1.385 . S
C1406 C1405 1.374 . S
C1407 C1404 1.499 . S
C1407 C1408 1.373 . S
C1407 C1409 1.389 . S
C1408 H1381 0.950 . S
C1408 C1394 1.377 . S
C1408 C1407 1.373 . S
C1409 C1393 1.377 . S
C1409 C1407 1.389 . S
C1409 C1410 1.524 . S
C1410 C1409 1.524 . S
C1410 C1411 1.397 . S
C1410 C1415 1.363 . S
C1411 H1382 0.950 . S
C1411 C1410 1.397 . S
C1411 C1412 1.334 . S
C1412 H1383 0.950 . S
C1412 C1411 1.334 . S
C1412 C1413 1.287 . S
C1413 C1412 1.287 . S
C1413 C1414 1.524 . S
C1413 H1416 0.999 . S
C1414 H1384 0.950 . S
C1414 C1413 1.524 . S
C1414 C1415 1.415 . S
C1415 H1385 0.950 . S
C1415 C1410 1.363 . S
C1415 C1414 1.415 . S
H1416 C1413 0.999 . S
H1417 C1398 0.913 . S
H1418 C1436 0.951 . S
H1419 C1438 0.951 . S
H1420 C1440 0.950 . S
H1421 C1441 0.950 . S
H1422 C1443 0.950 . S
H1423 C1446 0.950 . S
H1424 C1447 0.950 . S
H1425 C1449 0.950 . S
H1426 C1450 0.950 . S
H1427 C1451 0.951 . S
H1428 C1453 0.951 . S
H1429 C1455 0.950 . S
H1430 C1456 0.950 . S
H1431 C1458 0.950 . S
H1432 C1461 0.950 . S
H1433 C1462 0.950 . S
H1434 C1464 0.950 . S
H1435 C1465 0.950 . S
C1436 H1418 0.951 . S
C1436 C1437 1.366 . S
C1436 C1438 1.388 . S
C1437 C1436 1.366 . S
C1437 C1441 1.385 . S
C1438 H1419 0.951 . S
C1438 C1436 1.388 . S
C1438 C1439 1.366 . S
C1439 C1438 1.366 . S
C1439 C1440 1.414 . S
C1439 C1442 1.499 . S
C1440 H1420 0.950 . S
C1440 C1439 1.414 . S
C1440 C1441 1.374 . S
C1441 H1421 0.950 . S
C1441 C1437 1.385 . S
C1441 C1440 1.374 . S
C1442 C1439 1.499 . S
C1442 C1443 1.373 . S
C1442 C1444 1.389 . S
C1443 H1422 0.950 . S
C1443 C1442 1.373 . S
C1443 C1459 1.377 . S
C1444 C1442 1.389 . S
C1444 C1445 1.524 . S
C1444 C1458 1.377 . S
C1445 C1444 1.524 . S
C1445 C1446 1.397 . S
C1445 C1450 1.363 . S
C1446 H1423 0.950 . S
C1446 C1445 1.397 . S
C1446 C1447 1.334 . S
C1447 H1424 0.950 . S
C1447 C1446 1.334 . S
C1447 C1448 1.287 . S
C1448 C1447 1.287 . S
C1448 C1449 1.524 . S
C1448 H1467 0.913 . S
C1449 H1425 0.950 . S
C1449 C1448 1.524 . S
C1449 C1450 1.415 . S
C1450 H1426 0.950 . S
C1450 C1445 1.363 . S
C1450 C1449 1.415 . S
C1451 H1427 0.951 . S
C1451 C1452 1.366 . S
C1451 C1453 1.388 . S
C1452 C1451 1.366 . S
C1452 C1456 1.385 . S
C1453 H1428 0.951 . S
C1453 C1451 1.388 . S
C1453 C1454 1.366 . S
C1454 C1453 1.366 . S
C1454 C1455 1.414 . S
C1454 C1457 1.499 . S
C1455 H1429 0.950 . S
C1455 C1454 1.414 . S
C1455 C1456 1.374 . S
C1456 H1430 0.950 . S
C1456 C1452 1.385 . S
C1456 C1455 1.374 . S
C1457 C1454 1.499 . S
C1457 C1458 1.373 . S
C1457 C1459 1.389 . S
C1458 H1431 0.950 . S
C1458 C1444 1.377 . S
C1458 C1457 1.373 . S
C1459 C1443 1.377 . S
C1459 C1457 1.389 . S
C1459 C1460 1.524 . S
C1460 C1459 1.524 . S
C1460 C1461 1.397 . S
C1460 C1465 1.363 . S
C1461 H1432 0.950 . S
C1461 C1460 1.397 . S
C1461 C1462 1.334 . S
C1462 H1433 0.950 . S
C1462 C1461 1.334 . S
C1462 C1463 1.287 . S
C1463 C1462 1.287 . S
C1463 C1464 1.524 . S
C1463 H1466 0.999 . S
C1464 H1434 0.950 . S
C1464 C1463 1.524 . S
C1464 C1465 1.415 . S
C1465 H1435 0.950 . S
C1465 C1460 1.363 . S
C1465 C1464 1.415 . S
H1466 C1463 0.999 . S
H1467 C1448 0.913 . S
H1468 C1486 0.951 . S
H1469 C1488 0.951 . S
H1470 C1490 0.950 . S
H1471 C1491 0.950 . S
H1472 C1493 0.950 . S
H1473 C1496 0.950 . S
H1474 C1497 0.950 . S
H1475 C1499 0.950 . S
H1476 C1500 0.950 . S
H1477 C1501 0.951 . S
H1478 C1503 0.951 . S
H1479 C1505 0.950 . S
H1480 C1506 0.950 . S
H1481 C1508 0.950 . S
H1482 C1511 0.950 . S
H1483 C1512 0.950 . S
H1484 C1514 0.950 . S
H1485 C1515 0.950 . S
C1486 H1468 0.951 . S
C1486 C1487 1.366 . S
C1486 C1488 1.388 . S
C1487 C1486 1.366 . S
C1487 C1491 1.385 . S
C1488 H1469 0.951 . S
C1488 C1486 1.388 . S
C1488 C1489 1.366 . S
C1489 C1488 1.366 . S
C1489 C1490 1.414 . S
C1489 C1492 1.499 . S
C1490 H1470 0.950 . S
C1490 C1489 1.414 . S
C1490 C1491 1.374 . S
C1491 H1471 0.950 . S
C1491 C1487 1.385 . S
C1491 C1490 1.374 . S
C1492 C1489 1.499 . S
C1492 C1493 1.373 . S
C1492 C1494 1.389 . S
C1493 H1472 0.950 . S
C1493 C1492 1.373 . S
C1493 C1509 1.377 . S
C1494 C1492 1.389 . S
C1494 C1495 1.524 . S
C1494 C1508 1.377 . S
C1495 C1494 1.524 . S
C1495 C1496 1.397 . S
C1495 C1500 1.363 . S
C1496 H1473 0.950 . S
C1496 C1495 1.397 . S
C1496 C1497 1.334 . S
C1497 H1474 0.950 . S
C1497 C1496 1.334 . S
C1497 C1498 1.287 . S
C1498 C1497 1.287 . S
C1498 C1499 1.524 . S
C1498 H1517 0.913 . S
C1499 H1475 0.950 . S
C1499 C1498 1.524 . S
C1499 C1500 1.415 . S
C1500 H1476 0.950 . S
C1500 C1495 1.363 . S
C1500 C1499 1.415 . S
C1501 H1477 0.951 . S
C1501 C1502 1.366 . S
C1501 C1503 1.388 . S
C1502 C1501 1.366 . S
C1502 C1506 1.385 . S
C1503 H1478 0.951 . S
C1503 C1501 1.388 . S
C1503 C1504 1.366 . S
C1504 C1503 1.366 . S
C1504 C1505 1.414 . S
C1504 C1507 1.499 . S
C1505 H1479 0.950 . S
C1505 C1504 1.414 . S
C1505 C1506 1.374 . S
C1506 H1480 0.950 . S
C1506 C1502 1.385 . S
C1506 C1505 1.374 . S
C1507 C1504 1.499 . S
C1507 C1508 1.373 . S
C1507 C1509 1.389 . S
C1508 H1481 0.950 . S
C1508 C1494 1.377 . S
C1508 C1507 1.373 . S
C1509 C1493 1.377 . S
C1509 C1507 1.389 . S
C1509 C1510 1.524 . S
C1510 C1509 1.524 . S
C1510 C1511 1.397 . S
C1510 C1515 1.363 . S
C1511 H1482 0.950 . S
C1511 C1510 1.397 . S
C1511 C1512 1.334 . S
C1512 H1483 0.950 . S
C1512 C1511 1.334 . S
C1512 C1513 1.287 . S
C1513 C1512 1.287 . S
C1513 C1514 1.524 . S
C1513 H1516 0.999 . S
C1514 H1484 0.950 . S
C1514 C1513 1.524 . S
C1514 C1515 1.415 . S
C1515 H1485 0.950 . S
C1515 C1510 1.363 . S
C1515 C1514 1.415 . S
H1516 C1513 0.999 . S
H1517 C1498 0.913 . S
H1518 C1536 0.951 . S
H1519 C1538 0.951 . S
H1520 C1540 0.950 . S
H1521 C1541 0.950 . S
H1522 C1543 0.950 . S
H1523 C1546 0.950 . S
H1524 C1547 0.950 . S
H1525 C1549 0.950 . S
H1526 C1550 0.950 . S
H1527 C1551 0.951 . S
H1528 C1553 0.951 . S
H1529 C1555 0.950 . S
H1530 C1556 0.950 . S
H1531 C1558 0.950 . S
H1532 C1561 0.950 . S
H1533 C1562 0.950 . S
H1534 C1564 0.950 . S
H1535 C1565 0.950 . S
C1536 H1518 0.951 . S
C1536 C1537 1.366 . S
C1536 C1538 1.388 . S
C1537 C1536 1.366 . S
C1537 C1541 1.385 . S
C1538 H1519 0.951 . S
C1538 C1536 1.388 . S
C1538 C1539 1.366 . S
C1539 C1538 1.366 . S
C1539 C1540 1.414 . S
C1539 C1542 1.499 . S
C1540 H1520 0.950 . S
C1540 C1539 1.414 . S
C1540 C1541 1.374 . S
C1541 H1521 0.950 . S
C1541 C1537 1.385 . S
C1541 C1540 1.374 . S
C1542 C1539 1.499 . S
C1542 C1543 1.373 . S
C1542 C1544 1.389 . S
C1543 H1522 0.950 . S
C1543 C1542 1.373 . S
C1543 C1559 1.377 . S
C1544 C1542 1.389 . S
C1544 C1545 1.524 . S
C1544 C1558 1.377 . S
C1545 C1544 1.524 . S
C1545 C1546 1.397 . S
C1545 C1550 1.363 . S
C1546 H1523 0.950 . S
C1546 C1545 1.397 . S
C1546 C1547 1.334 . S
C1547 H1524 0.950 . S
C1547 C1546 1.334 . S
C1547 C1548 1.287 . S
C1548 C1547 1.287 . S
C1548 C1549 1.524 . S
C1548 H1567 0.913 . S
C1549 H1525 0.950 . S
C1549 C1548 1.524 . S
C1549 C1550 1.415 . S
C1550 H1526 0.950 . S
C1550 C1545 1.363 . S
C1550 C1549 1.415 . S
C1551 H1527 0.951 . S
C1551 C1552 1.366 . S
C1551 C1553 1.388 . S
C1552 C1551 1.366 . S
C1552 C1556 1.385 . S
C1553 H1528 0.951 . S
C1553 C1551 1.388 . S
C1553 C1554 1.366 . S
C1554 C1553 1.366 . S
C1554 C1555 1.414 . S
C1554 C1557 1.499 . S
C1555 H1529 0.950 . S
C1555 C1554 1.414 . S
C1555 C1556 1.374 . S
C1556 H1530 0.950 . S
C1556 C1552 1.385 . S
C1556 C1555 1.374 . S
C1557 C1554 1.499 . S
C1557 C1558 1.373 . S
C1557 C1559 1.389 . S
C1558 H1531 0.950 . S
C1558 C1544 1.377 . S
C1558 C1557 1.373 . S
C1559 C1543 1.377 . S
C1559 C1557 1.389 . S
C1559 C1560 1.524 . S
C1560 C1559 1.524 . S
C1560 C1561 1.397 . S
C1560 C1565 1.363 . S
C1561 H1532 0.950 . S
C1561 C1560 1.397 . S
C1561 C1562 1.334 . S
C1562 H1533 0.950 . S
C1562 C1561 1.334 . S
C1562 C1563 1.287 . S
C1563 C1562 1.287 . S
C1563 C1564 1.524 . S
C1563 H1566 0.999 . S
C1564 H1534 0.950 . S
C1564 C1563 1.524 . S
C1564 C1565 1.415 . S
C1565 H1535 0.950 . S
C1565 C1560 1.363 . S
C1565 C1564 1.415 . S
H1566 C1563 0.999 . S
H1567 C1548 0.913 . S
H1568 C1586 0.951 . S
H1569 C1588 0.951 . S
H1570 C1590 0.950 . S
H1571 C1591 0.950 . S
H1572 C1593 0.950 . S
H1573 C1596 0.950 . S
H1574 C1597 0.950 . S
H1575 C1599 0.950 . S
H1576 C1600 0.950 . S
H1577 C1601 0.951 . S
H1578 C1603 0.951 . S
H1579 C1605 0.950 . S
H1580 C1606 0.950 . S
H1581 C1608 0.950 . S
H1582 C1611 0.950 . S
H1583 C1612 0.950 . S
H1584 C1614 0.950 . S
H1585 C1615 0.950 . S
C1586 H1568 0.951 . S
C1586 C1587 1.366 . S
C1586 C1588 1.388 . S
C1587 C1586 1.366 . S
C1587 C1591 1.385 . S
C1588 H1569 0.951 . S
C1588 C1586 1.388 . S
C1588 C1589 1.366 . S
C1589 C1588 1.366 . S
C1589 C1590 1.414 . S
C1589 C1592 1.499 . S
C1590 H1570 0.950 . S
C1590 C1589 1.414 . S
C1590 C1591 1.374 . S
C1591 H1571 0.950 . S
C1591 C1587 1.385 . S
C1591 C1590 1.374 . S
C1592 C1589 1.499 . S
C1592 C1593 1.373 . S
C1592 C1594 1.389 . S
C1593 H1572 0.950 . S
C1593 C1592 1.373 . S
C1593 C1609 1.377 . S
C1594 C1592 1.389 . S
C1594 C1595 1.524 . S
C1594 C1608 1.377 . S
C1595 C1594 1.524 . S
C1595 C1596 1.397 . S
C1595 C1600 1.363 . S
C1596 H1573 0.950 . S
C1596 C1595 1.397 . S
C1596 C1597 1.334 . S
C1597 H1574 0.950 . S
C1597 C1596 1.334 . S
C1597 C1598 1.287 . S
C1598 C1597 1.287 . S
C1598 C1599 1.524 . S
C1598 H1617 0.913 . S
C1599 H1575 0.950 . S
C1599 C1598 1.524 . S
C1599 C1600 1.415 . S
C1600 H1576 0.950 . S
C1600 C1595 1.363 . S
C1600 C1599 1.415 . S
C1601 H1577 0.951 . S
C1601 C1602 1.366 . S
C1601 C1603 1.388 . S
C1602 C1601 1.366 . S
C1602 C1606 1.385 . S
C1603 H1578 0.951 . S
C1603 C1601 1.388 . S
C1603 C1604 1.366 . S
C1604 C1603 1.366 . S
C1604 C1605 1.414 . S
C1604 C1607 1.499 . S
C1605 H1579 0.950 . S
C1605 C1604 1.414 . S
C1605 C1606 1.374 . S
C1606 H1580 0.950 . S
C1606 C1602 1.385 . S
C1606 C1605 1.374 . S
C1607 C1604 1.499 . S
C1607 C1608 1.373 . S
C1607 C1609 1.389 . S
C1608 H1581 0.950 . S
C1608 C1594 1.377 . S
C1608 C1607 1.373 . S
C1609 C1593 1.377 . S
C1609 C1607 1.389 . S
C1609 C1610 1.524 . S
C1610 C1609 1.524 . S
C1610 C1611 1.397 . S
C1610 C1615 1.363 . S
C1611 H1582 0.950 . S
C1611 C1610 1.397 . S
C1611 C1612 1.334 . S
C1612 H1583 0.950 . S
C1612 C1611 1.334 . S
C1612 C1613 1.287 . S
C1613 C1612 1.287 . S
C1613 C1614 1.524 . S
C1613 H1616 0.999 . S
C1614 H1584 0.950 . S
C1614 C1613 1.524 . S
C1614 C1615 1.415 . S
C1615 H1585 0.950 . S
C1615 C1610 1.363 . S
C1615 C1614 1.415 . S
H1616 C1613 0.999 . S
H1617 C1598 0.913 . S
H1618 C1636 0.951 . S
H1619 C1638 0.951 . S
H1620 C1640 0.950 . S
H1621 C1641 0.950 . S
H1622 C1643 0.950 . S
H1623 C1646 0.950 . S
H1624 C1647 0.950 . S
H1625 C1649 0.950 . S
H1626 C1650 0.950 . S
H1627 C1651 0.951 . S
H1628 C1653 0.951 . S
H1629 C1655 0.950 . S
H1630 C1656 0.950 . S
H1631 C1658 0.950 . S
H1632 C1661 0.950 . S
H1633 C1662 0.950 . S
H1634 C1664 0.950 . S
H1635 C1665 0.950 . S
C1636 H1618 0.951 . S
C1636 C1637 1.366 . S
C1636 C1638 1.388 . S
C1637 C1636 1.366 . S
C1637 C1641 1.385 . S
C1638 H1619 0.951 . S
C1638 C1636 1.388 . S
C1638 C1639 1.366 . S
C1639 C1638 1.366 . S
C1639 C1640 1.414 . S
C1639 C1642 1.499 . S
C1640 H1620 0.950 . S
C1640 C1639 1.414 . S
C1640 C1641 1.374 . S
C1641 H1621 0.950 . S
C1641 C1637 1.385 . S
C1641 C1640 1.374 . S
C1642 C1639 1.499 . S
C1642 C1643 1.373 . S
C1642 C1644 1.389 . S
C1643 H1622 0.950 . S
C1643 C1642 1.373 . S
C1643 C1659 1.377 . S
C1644 C1642 1.389 . S
C1644 C1645 1.524 . S
C1644 C1658 1.377 . S
C1645 C1644 1.524 . S
C1645 C1646 1.397 . S
C1645 C1650 1.363 . S
C1646 H1623 0.950 . S
C1646 C1645 1.397 . S
C1646 C1647 1.334 . S
C1647 H1624 0.950 . S
C1647 C1646 1.334 . S
C1647 C1648 1.287 . S
C1648 C1647 1.287 . S
C1648 C1649 1.524 . S
C1648 H1667 0.913 . S
C1649 H1625 0.950 . S
C1649 C1648 1.524 . S
C1649 C1650 1.415 . S
C1650 H1626 0.950 . S
C1650 C1645 1.363 . S
C1650 C1649 1.415 . S
C1651 H1627 0.951 . S
C1651 C1652 1.366 . S
C1651 C1653 1.388 . S
C1652 C1651 1.366 . S
C1652 C1656 1.385 . S
C1653 H1628 0.951 . S
C1653 C1651 1.388 . S
C1653 C1654 1.366 . S
C1654 C1653 1.366 . S
C1654 C1655 1.414 . S
C1654 C1657 1.499 . S
C1655 H1629 0.950 . S
C1655 C1654 1.414 . S
C1655 C1656 1.374 . S
C1656 H1630 0.950 . S
C1656 C1652 1.385 . S
C1656 C1655 1.374 . S
C1657 C1654 1.499 . S
C1657 C1658 1.373 . S
C1657 C1659 1.389 . S
C1658 H1631 0.950 . S
C1658 C1644 1.377 . S
C1658 C1657 1.373 . S
C1659 C1643 1.377 . S
C1659 C1657 1.389 . S
C1659 C1660 1.524 . S
C1660 C1659 1.524 . S
C1660 C1661 1.397 . S
C1660 C1665 1.363 . S
C1661 H1632 0.950 . S
C1661 C1660 1.397 . S
C1661 C1662 1.334 . S
C1662 H1633 0.950 . S
C1662 C1661 1.334 . S
C1662 C1663 1.287 . S
C1663 C1662 1.287 . S
C1663 C1664 1.524 . S
C1663 H1666 0.999 . S
C1664 H1634 0.950 . S
C1664 C1663 1.524 . S
C1664 C1665 1.415 . S
C1665 H1635 0.950 . S
C1665 C1660 1.363 . S
C1665 C1664 1.415 . S
H1666 C1663 0.999 . S
H1667 C1648 0.913 . S
H1668 C1686 0.951 . S
H1669 C1688 0.951 . S
H1670 C1690 0.950 . S
H1671 C1691 0.950 . S
H1672 C1693 0.950 . S
H1673 C1696 0.950 . S
H1674 C1697 0.950 . S
H1675 C1699 0.950 . S
H1676 C1700 0.950 . S
H1677 C1701 0.951 . S
H1678 C1703 0.951 . S
H1679 C1705 0.950 . S
H1680 C1706 0.950 . S
H1681 C1708 0.950 . S
H1682 C1711 0.950 . S
H1683 C1712 0.950 . S
H1684 C1714 0.950 . S
H1685 C1715 0.950 . S
C1686 H1668 0.951 . S
C1686 C1687 1.366 . S
C1686 C1688 1.388 . S
C1687 C1686 1.366 . S
C1687 C1691 1.385 . S
C1688 H1669 0.951 . S
C1688 C1686 1.388 . S
C1688 C1689 1.366 . S
C1689 C1688 1.366 . S
C1689 C1690 1.414 . S
C1689 C1692 1.499 . S
C1690 H1670 0.950 . S
C1690 C1689 1.414 . S
C1690 C1691 1.374 . S
C1691 H1671 0.950 . S
C1691 C1687 1.385 . S
C1691 C1690 1.374 . S
C1692 C1689 1.499 . S
C1692 C1693 1.373 . S
C1692 C1694 1.389 . S
C1693 H1672 0.950 . S
C1693 C1692 1.373 . S
C1693 C1709 1.377 . S
C1694 C1692 1.389 . S
C1694 C1695 1.524 . S
C1694 C1708 1.377 . S
C1695 C1694 1.524 . S
C1695 C1696 1.397 . S
C1695 C1700 1.363 . S
C1696 H1673 0.950 . S
C1696 C1695 1.397 . S
C1696 C1697 1.334 . S
C1697 H1674 0.950 . S
C1697 C1696 1.334 . S
C1697 C1698 1.287 . S
C1698 C1697 1.287 . S
C1698 C1699 1.524 . S
C1698 H1717 0.913 . S
C1699 H1675 0.950 . S
C1699 C1698 1.524 . S
C1699 C1700 1.415 . S
C1700 H1676 0.950 . S
C1700 C1695 1.363 . S
C1700 C1699 1.415 . S
C1701 H1677 0.951 . S
C1701 C1702 1.366 . S
C1701 C1703 1.388 . S
C1702 C1701 1.366 . S
C1702 C1706 1.385 . S
C1703 H1678 0.951 . S
C1703 C1701 1.388 . S
C1703 C1704 1.366 . S
C1704 C1703 1.366 . S
C1704 C1705 1.414 . S
C1704 C1707 1.499 . S
C1705 H1679 0.950 . S
C1705 C1704 1.414 . S
C1705 C1706 1.374 . S
C1706 H1680 0.950 . S
C1706 C1702 1.385 . S
C1706 C1705 1.374 . S
C1707 C1704 1.499 . S
C1707 C1708 1.373 . S
C1707 C1709 1.389 . S
C1708 H1681 0.950 . S
C1708 C1694 1.377 . S
C1708 C1707 1.373 . S
C1709 C1693 1.377 . S
C1709 C1707 1.389 . S
C1709 C1710 1.524 . S
C1710 C1709 1.524 . S
C1710 C1711 1.397 . S
C1710 C1715 1.363 . S
C1711 H1682 0.950 . S
C1711 C1710 1.397 . S
C1711 C1712 1.334 . S
C1712 H1683 0.950 . S
C1712 C1711 1.334 . S
C1712 C1713 1.287 . S
C1713 C1712 1.287 . S
C1713 C1714 1.524 . S
C1713 H1716 0.999 . S
C1714 H1684 0.950 . S
C1714 C1713 1.524 . S
C1714 C1715 1.415 . S
C1715 H1685 0.950 . S
C1715 C1710 1.363 . S
C1715 C1714 1.415 . S
H1716 C1713 0.999 . S
H1717 C1698 0.913 . S
H1718 C1736 0.951 . S
H1719 C1738 0.951 . S
H1720 C1740 0.950 . S
H1721 C1741 0.950 . S
H1722 C1743 0.950 . S
H1723 C1746 0.950 . S
H1724 C1747 0.950 . S
H1725 C1749 0.950 . S
H1726 C1750 0.950 . S
H1727 C1751 0.951 . S
H1728 C1753 0.951 . S
H1729 C1755 0.950 . S
H1730 C1756 0.950 . S
H1731 C1758 0.950 . S
H1732 C1761 0.950 . S
H1733 C1762 0.950 . S
H1734 C1764 0.950 . S
H1735 C1765 0.950 . S
C1736 H1718 0.951 . S
C1736 C1737 1.366 . S
C1736 C1738 1.388 . S
C1737 C1736 1.366 . S
C1737 C1741 1.385 . S
C1738 H1719 0.951 . S
C1738 C1736 1.388 . S
C1738 C1739 1.366 . S
C1739 C1738 1.366 . S
C1739 C1740 1.414 . S
C1739 C1742 1.499 . S
C1740 H1720 0.950 . S
C1740 C1739 1.414 . S
C1740 C1741 1.374 . S
C1741 H1721 0.950 . S
C1741 C1737 1.385 . S
C1741 C1740 1.374 . S
C1742 C1739 1.499 . S
C1742 C1743 1.373 . S
C1742 C1744 1.389 . S
C1743 H1722 0.950 . S
C1743 C1742 1.373 . S
C1743 C1759 1.377 . S
C1744 C1742 1.389 . S
C1744 C1745 1.524 . S
C1744 C1758 1.377 . S
C1745 C1744 1.524 . S
C1745 C1746 1.397 . S
C1745 C1750 1.363 . S
C1746 H1723 0.950 . S
C1746 C1745 1.397 . S
C1746 C1747 1.334 . S
C1747 H1724 0.950 . S
C1747 C1746 1.334 . S
C1747 C1748 1.287 . S
C1748 C1747 1.287 . S
C1748 C1749 1.524 . S
C1748 H1767 0.913 . S
C1749 H1725 0.950 . S
C1749 C1748 1.524 . S
C1749 C1750 1.415 . S
C1750 H1726 0.950 . S
C1750 C1745 1.363 . S
C1750 C1749 1.415 . S
C1751 H1727 0.951 . S
C1751 C1752 1.366 . S
C1751 C1753 1.388 . S
C1752 C1751 1.366 . S
C1752 C1756 1.385 . S
C1753 H1728 0.951 . S
C1753 C1751 1.388 . S
C1753 C1754 1.366 . S
C1754 C1753 1.366 . S
C1754 C1755 1.414 . S
C1754 C1757 1.499 . S
C1755 H1729 0.950 . S
C1755 C1754 1.414 . S
C1755 C1756 1.374 . S
C1756 H1730 0.950 . S
C1756 C1752 1.385 . S
C1756 C1755 1.374 . S
C1757 C1754 1.499 . S
C1757 C1758 1.373 . S
C1757 C1759 1.389 . S
C1758 H1731 0.950 . S
C1758 C1744 1.377 . S
C1758 C1757 1.373 . S
C1759 C1743 1.377 . S
C1759 C1757 1.389 . S
C1759 C1760 1.524 . S
C1760 C1759 1.524 . S
C1760 C1761 1.397 . S
C1760 C1765 1.363 . S
C1761 H1732 0.950 . S
C1761 C1760 1.397 . S
C1761 C1762 1.334 . S
C1762 H1733 0.950 . S
C1762 C1761 1.334 . S
C1762 C1763 1.287 . S
C1763 C1762 1.287 . S
C1763 C1764 1.524 . S
C1763 H1766 0.999 . S
C1764 H1734 0.950 . S
C1764 C1763 1.524 . S
C1764 C1765 1.415 . S
C1765 H1735 0.950 . S
C1765 C1760 1.363 . S
C1765 C1764 1.415 . S
H1766 C1763 0.999 . S
H1767 C1748 0.913 . S
H1768 C1786 0.951 . S
H1769 C1788 0.951 . S
H1770 C1790 0.950 . S
H1771 C1791 0.950 . S
H1772 C1793 0.950 . S
H1773 C1796 0.950 . S
H1774 C1797 0.950 . S
H1775 C1799 0.950 . S
H1776 C1800 0.950 . S
H1777 C1801 0.951 . S
H1778 C1803 0.951 . S
H1779 C1805 0.950 . S
H1780 C1806 0.950 . S
H1781 C1808 0.950 . S
H1782 C1811 0.950 . S
H1783 C1812 0.950 . S
H1784 C1814 0.950 . S
H1785 C1815 0.950 . S
C1786 H1768 0.951 . S
C1786 C1787 1.366 . S
C1786 C1788 1.388 . S
C1787 C1786 1.366 . S
C1787 C1791 1.385 . S
C1788 H1769 0.951 . S
C1788 C1786 1.388 . S
C1788 C1789 1.366 . S
C1789 C1788 1.366 . S
C1789 C1790 1.414 . S
C1789 C1792 1.499 . S
C1790 H1770 0.950 . S
C1790 C1789 1.414 . S
C1790 C1791 1.374 . S
C1791 H1771 0.950 . S
C1791 C1787 1.385 . S
C1791 C1790 1.374 . S
C1792 C1789 1.499 . S
C1792 C1793 1.373 . S
C1792 C1794 1.389 . S
C1793 H1772 0.950 . S
C1793 C1792 1.373 . S
C1793 C1809 1.377 . S
C1794 C1792 1.389 . S
C1794 C1795 1.524 . S
C1794 C1808 1.377 . S
C1795 C1794 1.524 . S
C1795 C1796 1.397 . S
C1795 C1800 1.363 . S
C1796 H1773 0.950 . S
C1796 C1795 1.397 . S
C1796 C1797 1.334 . S
C1797 H1774 0.950 . S
C1797 C1796 1.334 . S
C1797 C1798 1.287 . S
C1798 C1797 1.287 . S
C1798 C1799 1.524 . S
C1798 H1817 0.913 . S
C1799 H1775 0.950 . S
C1799 C1798 1.524 . S
C1799 C1800 1.415 . S
C1800 H1776 0.950 . S
C1800 C1795 1.363 . S
C1800 C1799 1.415 . S
C1801 H1777 0.951 . S
C1801 C1802 1.366 . S
C1801 C1803 1.388 . S
C1802 C1801 1.366 . S
C1802 C1806 1.385 . S
C1803 H1778 0.951 . S
C1803 C1801 1.388 . S
C1803 C1804 1.366 . S
C1804 C1803 1.366 . S
C1804 C1805 1.414 . S
C1804 C1807 1.499 . S
C1805 H1779 0.950 . S
C1805 C1804 1.414 . S
C1805 C1806 1.374 . S
C1806 H1780 0.950 . S
C1806 C1802 1.385 . S
C1806 C1805 1.374 . S
C1807 C1804 1.499 . S
C1807 C1808 1.373 . S
C1807 C1809 1.389 . S
C1808 H1781 0.950 . S
C1808 C1794 1.377 . S
C1808 C1807 1.373 . S
C1809 C1793 1.377 . S
C1809 C1807 1.389 . S
C1809 C1810 1.524 . S
C1810 C1809 1.524 . S
C1810 C1811 1.397 . S
C1810 C1815 1.363 . S
C1811 H1782 0.950 . S
C1811 C1810 1.397 . S
C1811 C1812 1.334 . S
C1812 H1783 0.950 . S
C1812 C1811 1.334 . S
C1812 C1813 1.287 . S
C1813 C1812 1.287 . S
C1813 C1814 1.524 . S
C1813 H1816 0.999 . S
C1814 H1784 0.950 . S
C1814 C1813 1.524 . S
C1814 C1815 1.415 . S
C1815 H1785 0.950 . S
C1815 C1810 1.363 . S
C1815 C1814 1.415 . S
H1816 C1813 0.999 . S
H1817 C1798 0.913 . S
H1818 C1836 0.951 . S
H1819 C1838 0.951 . S
H1820 C1840 0.950 . S
H1821 C1841 0.950 . S
H1822 C1843 0.950 . S
H1823 C1846 0.950 . S
H1824 C1847 0.950 . S
H1825 C1849 0.950 . S
H1826 C1850 0.950 . S
H1827 C1851 0.951 . S
H1828 C1853 0.951 . S
H1829 C1855 0.950 . S
H1830 C1856 0.950 . S
H1831 C1858 0.950 . S
H1832 C1861 0.950 . S
H1833 C1862 0.950 . S
H1834 C1864 0.950 . S
H1835 C1865 0.950 . S
C1836 H1818 0.951 . S
C1836 C1837 1.366 . S
C1836 C1838 1.388 . S
C1837 C1836 1.366 . S
C1837 C1841 1.385 . S
C1838 H1819 0.951 . S
C1838 C1836 1.388 . S
C1838 C1839 1.366 . S
C1839 C1838 1.366 . S
C1839 C1840 1.414 . S
C1839 C1842 1.499 . S
C1840 H1820 0.950 . S
C1840 C1839 1.414 . S
C1840 C1841 1.374 . S
C1841 H1821 0.950 . S
C1841 C1837 1.385 . S
C1841 C1840 1.374 . S
C1842 C1839 1.499 . S
C1842 C1843 1.373 . S
C1842 C1844 1.389 . S
C1843 H1822 0.950 . S
C1843 C1842 1.373 . S
C1843 C1859 1.377 . S
C1844 C1842 1.389 . S
C1844 C1845 1.524 . S
C1844 C1858 1.377 . S
C1845 C1844 1.524 . S
C1845 C1846 1.397 . S
C1845 C1850 1.363 . S
C1846 H1823 0.950 . S
C1846 C1845 1.397 . S
C1846 C1847 1.334 . S
C1847 H1824 0.950 . S
C1847 C1846 1.334 . S
C1847 C1848 1.287 . S
C1848 C1847 1.287 . S
C1848 C1849 1.524 . S
C1848 H1867 0.913 . S
C1849 H1825 0.950 . S
C1849 C1848 1.524 . S
C1849 C1850 1.415 . S
C1850 H1826 0.950 . S
C1850 C1845 1.363 . S
C1850 C1849 1.415 . S
C1851 H1827 0.951 . S
C1851 C1852 1.366 . S
C1851 C1853 1.388 . S
C1852 C1851 1.366 . S
C1852 C1856 1.385 . S
C1853 H1828 0.951 . S
C1853 C1851 1.388 . S
C1853 C1854 1.366 . S
C1854 C1853 1.366 . S
C1854 C1855 1.414 . S
C1854 C1857 1.499 . S
C1855 H1829 0.950 . S
C1855 C1854 1.414 . S
C1855 C1856 1.374 . S
C1856 H1830 0.950 . S
C1856 C1852 1.385 . S
C1856 C1855 1.374 . S
C1857 C1854 1.499 . S
C1857 C1858 1.373 . S
C1857 C1859 1.389 . S
C1858 H1831 0.950 . S
C1858 C1844 1.377 . S
C1858 C1857 1.373 . S
C1859 C1843 1.377 . S
C1859 C1857 1.389 . S
C1859 C1860 1.524 . S
C1860 C1859 1.524 . S
C1860 C1861 1.397 . S
C1860 C1865 1.363 . S
C1861 H1832 0.950 . S
C1861 C1860 1.397 . S
C1861 C1862 1.334 . S
C1862 H1833 0.950 . S
C1862 C1861 1.334 . S
C1862 C1863 1.287 . S
C1863 C1862 1.287 . S
C1863 C1864 1.524 . S
C1863 H1866 0.999 . S
C1864 H1834 0.950 . S
C1864 C1863 1.524 . S
C1864 C1865 1.415 . S
C1865 H1835 0.950 . S
C1865 C1860 1.363 . S
C1865 C1864 1.415 . S
H1866 C1863 0.999 . S
H1867 C1848 0.913 . S
H1868 C1886 0.951 . S
H1869 C1888 0.951 . S
H1870 C1890 0.950 . S
H1871 C1891 0.950 . S
H1872 C1893 0.950 . S
H1873 C1896 0.950 . S
H1874 C1897 0.950 . S
H1875 C1899 0.950 . S
H1876 C1900 0.950 . S
H1877 C1901 0.951 . S
H1878 C1903 0.951 . S
H1879 C1905 0.950 . S
H1880 C1906 0.950 . S
H1881 C1908 0.950 . S
H1882 C1911 0.950 . S
H1883 C1912 0.950 . S
H1884 C1914 0.950 . S
H1885 C1915 0.950 . S
C1886 H1868 0.951 . S
C1886 C1887 1.366 . S
C1886 C1888 1.388 . S
C1887 C1886 1.366 . S
C1887 C1891 1.385 . S
C1888 H1869 0.951 . S
C1888 C1886 1.388 . S
C1888 C1889 1.366 . S
C1889 C1888 1.366 . S
C1889 C1890 1.414 . S
C1889 C1892 1.499 . S
C1890 H1870 0.950 . S
C1890 C1889 1.414 . S
C1890 C1891 1.374 . S
C1891 H1871 0.950 . S
C1891 C1887 1.385 . S
C1891 C1890 1.374 . S
C1892 C1889 1.499 . S
C1892 C1893 1.373 . S
C1892 C1894 1.389 . S
C1893 H1872 0.950 . S
C1893 C1892 1.373 . S
C1893 C1909 1.377 . S
C1894 C1892 1.389 . S
C1894 C1895 1.524 . S
C1894 C1908 1.377 . S
C1895 C1894 1.524 . S
C1895 C1896 1.397 . S
C1895 C1900 1.363 . S
C1896 H1873 0.950 . S
C1896 C1895 1.397 . S
C1896 C1897 1.334 . S
C1897 H1874 0.950 . S
C1897 C1896 1.334 . S
C1897 C1898 1.287 . S
C1898 C1897 1.287 . S
C1898 C1899 1.524 . S
C1898 H1917 0.913 . S
C1899 H1875 0.950 . S
C1899 C1898 1.524 . S
C1899 C1900 1.415 . S
C1900 H1876 0.950 . S
C1900 C1895 1.363 . S
C1900 C1899 1.415 . S
C1901 H1877 0.951 . S
C1901 C1902 1.366 . S
C1901 C1903 1.388 . S
C1902 C1901 1.366 . S
C1902 C1906 1.385 . S
C1903 H1878 0.951 . S
C1903 C1901 1.388 . S
C1903 C1904 1.366 . S
C1904 C1903 1.366 . S
C1904 C1905 1.414 . S
C1904 C1907 1.499 . S
C1905 H1879 0.950 . S
C1905 C1904 1.414 . S
C1905 C1906 1.374 . S
C1906 H1880 0.950 . S
C1906 C1902 1.385 . S
C1906 C1905 1.374 . S
C1907 C1904 1.499 . S
C1907 C1908 1.373 . S
C1907 C1909 1.389 . S
C1908 H1881 0.950 . S
C1908 C1894 1.377 . S
C1908 C1907 1.373 . S
C1909 C1893 1.377 . S
C1909 C1907 1.389 . S
C1909 C1910 1.524 . S
C1910 C1909 1.524 . S
C1910 C1911 1.397 . S
C1910 C1915 1.363 . S
C1911 H1882 0.950 . S
C1911 C1910 1.397 . S
C1911 C1912 1.334 . S
C1912 H1883 0.950 . S
C1912 C1911 1.334 . S
C1912 C1913 1.287 . S
C1913 C1912 1.287 . S
C1913 C1914 1.524 . S
C1913 H1916 0.999 . S
C1914 H1884 0.950 . S
C1914 C1913 1.524 . S
C1914 C1915 1.415 . S
C1915 H1885 0.950 . S
C1915 C1910 1.363 . S
C1915 C1914 1.415 . S
H1916 C1913 0.999 . S
H1917 C1898 0.913 . S
H1918 C1936 0.951 . S
H1919 C1938 0.951 . S
H1920 C1940 0.950 . S
H1921 C1941 0.950 . S
H1922 C1943 0.950 . S
H1923 C1946 0.950 . S
H1924 C1947 0.950 . S
H1925 C1949 0.950 . S
H1926 C1950 0.950 . S
H1927 C1951 0.951 . S
H1928 C1953 0.951 . S
H1929 C1955 0.950 . S
H1930 C1956 0.950 . S
H1931 C1958 0.950 . S
H1932 C1961 0.950 . S
H1933 C1962 0.950 . S
H1934 C1964 0.950 . S
H1935 C1965 0.950 . S
C1936 H1918 0.951 . S
C1936 C1937 1.366 . S
C1936 C1938 1.388 . S
C1937 C1936 1.366 . S
C1937 C1941 1.385 . S
C1938 H1919 0.951 . S
C1938 C1936 1.388 . S
C1938 C1939 1.366 . S
C1939 C1938 1.366 . S
C1939 C1940 1.414 . S
C1939 C1942 1.499 . S
C1940 H1920 0.950 . S
C1940 C1939 1.414 . S
C1940 C1941 1.374 . S
C1941 H1921 0.950 . S
C1941 C1937 1.385 . S
C1941 C1940 1.374 . S
C1942 C1939 1.499 . S
C1942 C1943 1.373 . S
C1942 C1944 1.389 . S
C1943 H1922 0.950 . S
C1943 C1942 1.373 . S
C1943 C1959 1.377 . S
C1944 C1942 1.389 . S
C1944 C1945 1.524 . S
C1944 C1958 1.377 . S
C1945 C1944 1.524 . S
C1945 C1946 1.397 . S
C1945 C1950 1.363 . S
C1946 H1923 0.950 . S
C1946 C1945 1.397 . S
C1946 C1947 1.334 . S
C1947 H1924 0.950 . S
C1947 C1946 1.334 . S
C1947 C1948 1.287 . S
C1948 C1947 1.287 . S
C1948 C1949 1.524 . S
C1948 H1967 0.913 . S
C1949 H1925 0.950 . S
C1949 C1948 1.524 . S
C1949 C1950 1.415 . S
C1950 H1926 0.950 . S
C1950 C1945 1.363 . S
C1950 C1949 1.415 . S
C1951 H1927 0.951 . S
C1951 C1952 1.366 . S
C1951 C1953 1.388 . S
C1952 C1951 1.366 . S
C1952 C1956 1.385 . S
C1953 H1928 0.951 . S
C1953 C1951 1.388 . S
C1953 C1954 1.366 . S
C1954 C1953 1.366 . S
C1954 C1955 1.414 . S
C1954 C1957 1.499 . S
C1955 H1929 0.950 . S
C1955 C1954 1.414 . S
C1955 C1956 1.374 . S
C1956 H1930 0.950 . S
C1956 C1952 1.385 . S
C1956 C1955 1.374 . S
C1957 C1954 1.499 . S
C1957 C1958 1.373 . S
C1957 C1959 1.389 . S
C1958 H1931 0.950 . S
C1958 C1944 1.377 . S
C1958 C1957 1.373 . S
C1959 C1943 1.377 . S
C1959 C1957 1.389 . S
C1959 C1960 1.524 . S
C1960 C1959 1.524 . S
C1960 C1961 1.397 . S
C1960 C1965 1.363 . S
C1961 H1932 0.950 . S
C1961 C1960 1.397 . S
C1961 C1962 1.334 . S
C1962 H1933 0.950 . S
C1962 C1961 1.334 . S
C1962 C1963 1.287 . S
C1963 C1962 1.287 . S
C1963 C1964 1.524 . S
C1963 H1966 0.999 . S
C1964 H1934 0.950 . S
C1964 C1963 1.524 . S
C1964 C1965 1.415 . S
C1965 H1935 0.950 . S
C1965 C1960 1.363 . S
C1965 C1964 1.415 . S
H1966 C1963 0.999 . S
H1967 C1948 0.913 . S
H1968 C1986 0.951 . S
H1969 C1988 0.951 . S
H1970 C1990 0.950 . S
H1971 C1991 0.950 . S
H1972 C1993 0.950 . S
H1973 C1996 0.950 . S
H1974 C1997 0.950 . S
H1975 C1999 0.950 . S
H1976 C2000 0.950 . S
H1977 C2001 0.951 . S
H1978 C2003 0.951 . S
H1979 C2005 0.950 . S
H1980 C2006 0.950 . S
H1981 C2008 0.950 . S
H1982 C2011 0.950 . S
H1983 C2012 0.950 . S
H1984 C2014 0.950 . S
H1985 C2015 0.950 . S
C1986 H1968 0.951 . S
C1986 C1987 1.366 . S
C1986 C1988 1.388 . S
C1987 C1986 1.366 . S
C1987 C1991 1.385 . S
C1988 H1969 0.951 . S
C1988 C1986 1.388 . S
C1988 C1989 1.366 . S
C1989 C1988 1.366 . S
C1989 C1990 1.414 . S
C1989 C1992 1.499 . S
C1990 H1970 0.950 . S
C1990 C1989 1.414 . S
C1990 C1991 1.374 . S
C1991 H1971 0.950 . S
C1991 C1987 1.385 . S
C1991 C1990 1.374 . S
C1992 C1989 1.499 . S
C1992 C1993 1.373 . S
C1992 C1994 1.389 . S
C1993 H1972 0.950 . S
C1993 C1992 1.373 . S
C1993 C2009 1.377 . S
C1994 C1992 1.389 . S
C1994 C1995 1.524 . S
C1994 C2008 1.377 . S
C1995 C1994 1.524 . S
C1995 C1996 1.397 . S
C1995 C2000 1.363 . S
C1996 H1973 0.950 . S
C1996 C1995 1.397 . S
C1996 C1997 1.334 . S
C1997 H1974 0.950 . S
C1997 C1996 1.334 . S
C1997 C1998 1.287 . S
C1998 C1997 1.287 . S
C1998 C1999 1.524 . S
C1998 H2017 0.913 . S
C1999 H1975 0.950 . S
C1999 C1998 1.524 . S
C1999 C2000 1.415 . S
C2000 H1976 0.950 . S
C2000 C1995 1.363 . S
C2000 C1999 1.415 . S
C2001 H1977 0.951 . S
C2001 C2002 1.366 . S
C2001 C2003 1.388 . S
C2002 C2001 1.366 . S
C2002 C2006 1.385 . S
C2003 H1978 0.951 . S
C2003 C2001 1.388 . S
C2003 C2004 1.366 . S
C2004 C2003 1.366 . S
C2004 C2005 1.414 . S
C2004 C2007 1.499 . S
C2005 H1979 0.950 . S
C2005 C2004 1.414 . S
C2005 C2006 1.374 . S
C2006 H1980 0.950 . S
C2006 C2002 1.385 . S
C2006 C2005 1.374 . S
C2007 C2004 1.499 . S
C2007 C2008 1.373 . S
C2007 C2009 1.389 . S
C2008 H1981 0.950 . S
C2008 C1994 1.377 . S
C2008 C2007 1.373 . S
C2009 C1993 1.377 . S
C2009 C2007 1.389 . S
C2009 C2010 1.524 . S
C2010 C2009 1.524 . S
C2010 C2011 1.397 . S
C2010 C2015 1.363 . S
C2011 H1982 0.950 . S
C2011 C2010 1.397 . S
C2011 C2012 1.334 . S
C2012 H1983 0.950 . S
C2012 C2011 1.334 . S
C2012 C2013 1.287 . S
C2013 C2012 1.287 . S
C2013 C2014 1.524 . S
C2013 H2016 0.999 . S
C2014 H1984 0.950 . S
C2014 C2013 1.524 . S
C2014 C2015 1.415 . S
C2015 H1985 0.950 . S
C2015 C2010 1.363 . S
C2015 C2014 1.415 . S
H2016 C2013 0.999 . S
H2017 C1998 0.913 . S
H2018 C2036 0.951 . S
H2019 C2038 0.951 . S
H2020 C2040 0.950 . S
H2021 C2041 0.950 . S
H2022 C2043 0.950 . S
H2023 C2046 0.950 . S
H2024 C2047 0.950 . S
H2025 C2049 0.950 . S
H2026 C2050 0.950 . S
H2027 C2051 0.951 . S
H2028 C2053 0.951 . S
H2029 C2055 0.950 . S
H2030 C2056 0.950 . S
H2031 C2058 0.950 . S
H2032 C2061 0.950 . S
H2033 C2062 0.950 . S
H2034 C2064 0.950 . S
H2035 C2065 0.950 . S
C2036 H2018 0.951 . S
C2036 C2037 1.366 . S
C2036 C2038 1.388 . S
C2037 C2036 1.366 . S
C2037 C2041 1.385 . S
C2038 H2019 0.951 . S
C2038 C2036 1.388 . S
C2038 C2039 1.366 . S
C2039 C2038 1.366 . S
C2039 C2040 1.414 . S
C2039 C2042 1.499 . S
C2040 H2020 0.950 . S
C2040 C2039 1.414 . S
C2040 C2041 1.374 . S
C2041 H2021 0.950 . S
C2041 C2037 1.385 . S
C2041 C2040 1.374 . S
C2042 C2039 1.499 . S
C2042 C2043 1.373 . S
C2042 C2044 1.389 . S
C2043 H2022 0.950 . S
C2043 C2042 1.373 . S
C2043 C2059 1.377 . S
C2044 C2042 1.389 . S
C2044 C2045 1.524 . S
C2044 C2058 1.377 . S
C2045 C2044 1.524 . S
C2045 C2046 1.397 . S
C2045 C2050 1.363 . S
C2046 H2023 0.950 . S
C2046 C2045 1.397 . S
C2046 C2047 1.334 . S
C2047 H2024 0.950 . S
C2047 C2046 1.334 . S
C2047 C2048 1.287 . S
C2048 C2047 1.287 . S
C2048 C2049 1.524 . S
C2048 H2067 0.913 . S
C2049 H2025 0.950 . S
C2049 C2048 1.524 . S
C2049 C2050 1.415 . S
C2050 H2026 0.950 . S
C2050 C2045 1.363 . S
C2050 C2049 1.415 . S
C2051 H2027 0.951 . S
C2051 C2052 1.366 . S
C2051 C2053 1.388 . S
C2052 C2051 1.366 . S
C2052 C2056 1.385 . S
C2053 H2028 0.951 . S
C2053 C2051 1.388 . S
C2053 C2054 1.366 . S
C2054 C2053 1.366 . S
C2054 C2055 1.414 . S
C2054 C2057 1.499 . S
C2055 H2029 0.950 . S
C2055 C2054 1.414 . S
C2055 C2056 1.374 . S
C2056 H2030 0.950 . S
C2056 C2052 1.385 . S
C2056 C2055 1.374 . S
C2057 C2054 1.499 . S
C2057 C2058 1.373 . S
C2057 C2059 1.389 . S
C2058 H2031 0.950 . S
C2058 C2044 1.377 . S
C2058 C2057 1.373 . S
C2059 C2043 1.377 . S
C2059 C2057 1.389 . S
C2059 C2060 1.524 . S
C2060 C2059 1.524 . S
C2060 C2061 1.397 . S
C2060 C2065 1.363 . S
C2061 H2032 0.950 . S
C2061 C2060 1.397 . S
C2061 C2062 1.334 . S
C2062 H2033 0.950 . S
C2062 C2061 1.334 . S
C2062 C2063 1.287 . S
C2063 C2062 1.287 . S
C2063 C2064 1.524 . S
C2063 H2066 0.999 . S
C2064 H2034 0.950 . S
C2064 C2063 1.524 . S
C2064 C2065 1.415 . S
C2065 H2035 0.950 . S
C2065 C2060 1.363 . S
C2065 C2064 1.415 . S
H2066 C2063 0.999 . S
H2067 C2048 0.913 . S
H2068 C2086 0.951 . S
H2069 C2088 0.951 . S
H2070 C2090 0.950 . S
H2071 C2091 0.950 . S
H2072 C2093 0.950 . S
H2073 C2096 0.950 . S
H2074 C2097 0.950 . S
H2075 C2099 0.950 . S
H2076 C2100 0.950 . S
H2077 C2101 0.951 . S
H2078 C2103 0.951 . S
H2079 C2105 0.950 . S
H2080 C2106 0.950 . S
H2081 C2108 0.950 . S
H2082 C2111 0.950 . S
H2083 C2112 0.950 . S
H2084 C2114 0.950 . S
H2085 C2115 0.950 . S
C2086 H2068 0.951 . S
C2086 C2087 1.366 . S
C2086 C2088 1.388 . S
C2087 C2086 1.366 . S
C2087 C2091 1.385 . S
C2088 H2069 0.951 . S
C2088 C2086 1.388 . S
C2088 C2089 1.366 . S
C2089 C2088 1.366 . S
C2089 C2090 1.414 . S
C2089 C2092 1.499 . S
C2090 H2070 0.950 . S
C2090 C2089 1.414 . S
C2090 C2091 1.374 . S
C2091 H2071 0.950 . S
C2091 C2087 1.385 . S
C2091 C2090 1.374 . S
C2092 C2089 1.499 . S
C2092 C2093 1.373 . S
C2092 C2094 1.389 . S
C2093 H2072 0.950 . S
C2093 C2092 1.373 . S
C2093 C2109 1.377 . S
C2094 C2092 1.389 . S
C2094 C2095 1.524 . S
C2094 C2108 1.377 . S
C2095 C2094 1.524 . S
C2095 C2096 1.397 . S
C2095 C2100 1.363 . S
C2096 H2073 0.950 . S
C2096 C2095 1.397 . S
C2096 C2097 1.334 . S
C2097 H2074 0.950 . S
C2097 C2096 1.334 . S
C2097 C2098 1.287 . S
C2098 C2097 1.287 . S
C2098 C2099 1.524 . S
C2098 H2117 0.913 . S
C2099 H2075 0.950 . S
C2099 C2098 1.524 . S
C2099 C2100 1.415 . S
C2100 H2076 0.950 . S
C2100 C2095 1.363 . S
C2100 C2099 1.415 . S
C2101 H2077 0.951 . S
C2101 C2102 1.366 . S
C2101 C2103 1.388 . S
C2102 C2101 1.366 . S
C2102 C2106 1.385 . S
C2103 H2078 0.951 . S
C2103 C2101 1.388 . S
C2103 C2104 1.366 . S
C2104 C2103 1.366 . S
C2104 C2105 1.414 . S
C2104 C2107 1.499 . S
C2105 H2079 0.950 . S
C2105 C2104 1.414 . S
C2105 C2106 1.374 . S
C2106 H2080 0.950 . S
C2106 C2102 1.385 . S
C2106 C2105 1.374 . S
C2107 C2104 1.499 . S
C2107 C2108 1.373 . S
C2107 C2109 1.389 . S
C2108 H2081 0.950 . S
C2108 C2094 1.377 . S
C2108 C2107 1.373 . S
C2109 C2093 1.377 . S
C2109 C2107 1.389 . S
C2109 C2110 1.524 . S
C2110 C2109 1.524 . S
C2110 C2111 1.397 . S
C2110 C2115 1.363 . S
C2111 H2082 0.950 . S
C2111 C2110 1.397 . S
C2111 C2112 1.334 . S
C2112 H2083 0.950 . S
C2112 C2111 1.334 . S
C2112 C2113 1.287 . S
C2113 C2112 1.287 . S
C2113 C2114 1.524 . S
C2113 H2116 0.999 . S
C2114 H2084 0.950 . S
C2114 C2113 1.524 . S
C2114 C2115 1.415 . S
C2115 H2085 0.950 . S
C2115 C2110 1.363 . S
C2115 C2114 1.415 . S
H2116 C2113 0.999 . S
H2117 C2098 0.913 . S
H2118 C2136 0.951 . S
H2119 C2138 0.951 . S
H2120 C2140 0.950 . S
H2121 C2141 0.950 . S
H2122 C2143 0.950 . S
H2123 C2146 0.950 . S
H2124 C2147 0.950 . S
H2125 C2149 0.950 . S
H2126 C2150 0.950 . S
H2127 C2151 0.951 . S
H2128 C2153 0.951 . S
H2129 C2155 0.950 . S
H2130 C2156 0.950 . S
H2131 C2158 0.950 . S
H2132 C2161 0.950 . S
H2133 C2162 0.950 . S
H2134 C2164 0.950 . S
H2135 C2165 0.950 . S
C2136 H2118 0.951 . S
C2136 C2137 1.366 . S
C2136 C2138 1.388 . S
C2137 C2136 1.366 . S
C2137 C2141 1.385 . S
C2138 H2119 0.951 . S
C2138 C2136 1.388 . S
C2138 C2139 1.366 . S
C2139 C2138 1.366 . S
C2139 C2140 1.414 . S
C2139 C2142 1.499 . S
C2140 H2120 0.950 . S
C2140 C2139 1.414 . S
C2140 C2141 1.374 . S
C2141 H2121 0.950 . S
C2141 C2137 1.385 . S
C2141 C2140 1.374 . S
C2142 C2139 1.499 . S
C2142 C2143 1.373 . S
C2142 C2144 1.389 . S
C2143 H2122 0.950 . S
C2143 C2142 1.373 . S
C2143 C2159 1.377 . S
C2144 C2142 1.389 . S
C2144 C2145 1.524 . S
C2144 C2158 1.377 . S
C2145 C2144 1.524 . S
C2145 C2146 1.397 . S
C2145 C2150 1.363 . S
C2146 H2123 0.950 . S
C2146 C2145 1.397 . S
C2146 C2147 1.334 . S
C2147 H2124 0.950 . S
C2147 C2146 1.334 . S
C2147 C2148 1.287 . S
C2148 C2147 1.287 . S
C2148 C2149 1.524 . S
C2148 H2167 0.913 . S
C2149 H2125 0.950 . S
C2149 C2148 1.524 . S
C2149 C2150 1.415 . S
C2150 H2126 0.950 . S
C2150 C2145 1.363 . S
C2150 C2149 1.415 . S
C2151 H2127 0.951 . S
C2151 C2152 1.366 . S
C2151 C2153 1.388 . S
C2152 C2151 1.366 . S
C2152 C2156 1.385 . S
C2153 H2128 0.951 . S
C2153 C2151 1.388 . S
C2153 C2154 1.366 . S
C2154 C2153 1.366 . S
C2154 C2155 1.414 . S
C2154 C2157 1.499 . S
C2155 H2129 0.950 . S
C2155 C2154 1.414 . S
C2155 C2156 1.374 . S
C2156 H2130 0.950 . S
C2156 C2152 1.385 . S
C2156 C2155 1.374 . S
C2157 C2154 1.499 . S
C2157 C2158 1.373 . S
C2157 C2159 1.389 . S
C2158 H2131 0.950 . S
C2158 C2144 1.377 . S
C2158 C2157 1.373 . S
C2159 C2143 1.377 . S
C2159 C2157 1.389 . S
C2159 C2160 1.524 . S
C2160 C2159 1.524 . S
C2160 C2161 1.397 . S
C2160 C2165 1.363 . S
C2161 H2132 0.950 . S
C2161 C2160 1.397 . S
C2161 C2162 1.334 . S
C2162 H2133 0.950 . S
C2162 C2161 1.334 . S
C2162 C2163 1.287 . S
C2163 C2162 1.287 . S
C2163 C2164 1.524 . S
C2163 H2166 0.999 . S
C2164 H2134 0.950 . S
C2164 C2163 1.524 . S
C2164 C2165 1.415 . S
C2165 H2135 0.950 . S
C2165 C2160 1.363 . S
C2165 C2164 1.415 . S
H2166 C2163 0.999 . S
H2167 C2148 0.913 . S
C602 C173 1.494 . S
C587 C7 1.431 . S
C652 C226 1.304 . S
C637 C32 1.258 . S
C702 C289 1.542 . S
C687 C44 1.494 . S
C752 C332 1.275 . S
C737 C62 1.229 . S
C787 C88 1.489 . S
C802 C288 1.547 . S
C852 C325 1.322 . S
C837 C106 1.274 . S
C902 C166 1.496 . S
C887 C124 1.435 . S
C952 C219 1.256 . S
C937 C140 1.211 . S
C1002 C272 1.533 . S
C987 C142 1.462 . S
C1052 C341 1.812 . S
C1037 C86 1.750 . S
C1102 C182 1.585 . S
C1087 C104 1.526 . S
C1152 C235 1.758 . S
C1137 C122 1.692 . S
C1202 C183 1.580 . S
C1187 C34 1.514 . S
C1252 C236 1.810 . S
C1237 C43 1.741 . S
C1302 C279 1.534 . S
C1287 C61 1.463 . S
C1352 C342 1.763 . S
C1337 C8 1.697 . S
C1402 C385 1.474 . S
C1387 C133 1.410 . S
C1437 C80 1.630 . S
C1452 C438 1.691 . S
C1487 C98 1.513 . S
C1502 C500 1.561 . S
C1537 C116 1.628 . S
C1552 C554 1.685 . S
C1587 C25 1.461 . S
C1602 C501 1.518 . S
C1637 C52 1.678 . S
C1652 C553 1.740 . S
C1687 C70 1.456 . S
C1702 C378 1.515 . S
C1752 C431 1.648 . S
C1737 C14 1.584 . S
C1802 C491 1.506 . S
C1787 C16 1.435 . S
C1837 C26 1.319 . S
C1852 C537 1.373 . S
C1887 C50 1.546 . S
C1902 C394 1.603 . S
C1937 C68 1.309 . S
C1952 C447 1.359 . S
C2002 C395 1.552 . S
C1987 C79 1.486 . S
C2052 C448 1.411 . S
C2037 C97 1.359 . S
C2087 C115 1.483 . S
C2102 C484 1.553 . S
C2152 C544 1.323 . S
C2137 C134 1.271 . S
