# Generated by pormake.
# Topology ptr, (4,4)-cn, num edge types: 1
# Building blocks:
#     Node 0, Type 0, BuildingBlock: AZAVOO_clean_sbu_0, # of connection points: 4
#     Node 1, Type 0, BuildingBlock: AZAVOO_clean_sbu_0, # of connection points: 4
#     Node 2, Type 0, BuildingBlock: AZAVOO_clean_sbu_0, # of connection points: 4
#     Node 3, Type 0, BuildingBlock: AZAVOO_clean_sbu_0, # of connection points: 4
#     Node 4, Type 0, BuildingBlock: AZAVOO_clean_sbu_0, # of connection points: 4
#     Node 5, Type 0, BuildingBlock: AZAVOO_clean_sbu_0, # of connection points: 4
#     Node 6, Type 0, BuildingBlock: AZAVOO_clean_sbu_0, # of connection points: 4
#     Node 7, Type 0, BuildingBlock: AZAVOO_clean_sbu_0, # of connection points: 4
#     Node 8, Type 0, BuildingBlock: AZAVOO_clean_sbu_0, # of connection points: 4
#     Node 9, Type 0, BuildingBlock: AZAVOO_clean_sbu_0, # of connection points: 4
#     Node 10, Type 0, BuildingBlock: AZAVOO_clean_sbu_0, # of connection points: 4
#     Node 11, Type 0, BuildingBlock: AZAVOO_clean_sbu_0, # of connection points: 4
#     Node 12, Type 0, BuildingBlock: AZAVOO_clean_sbu_0, # of connection points: 4
#     Node 13, Type 0, BuildingBlock: AZAVOO_clean_sbu_0, # of connection points: 4
#     Node 14, Type 0, BuildingBlock: AZAVOO_clean_sbu_0, # of connection points: 4
#     Node 15, Type 0, BuildingBlock: AZAVOO_clean_sbu_0, # of connection points: 4
#     Node 16, Type 0, BuildingBlock: AZAVOO_clean_sbu_0, # of connection points: 4
#     Node 17, Type 0, BuildingBlock: AZAVOO_clean_sbu_0, # of connection points: 4
#     Node 18, Type 1, BuildingBlock: AZAVOO_clean_linker_0, # of connection points: 4
#     Node 19, Type 1, BuildingBlock: AZAVOO_clean_linker_0, # of connection points: 4
#     Node 20, Type 1, BuildingBlock: AZAVOO_clean_linker_0, # of connection points: 4
#     Node 21, Type 1, BuildingBlock: AZAVOO_clean_linker_0, # of connection points: 4
#     Node 22, Type 1, BuildingBlock: AZAVOO_clean_linker_0, # of connection points: 4
#     Node 23, Type 1, BuildingBlock: AZAVOO_clean_linker_0, # of connection points: 4
#     Node 24, Type 1, BuildingBlock: AZAVOO_clean_linker_0, # of connection points: 4
#     Node 25, Type 1, BuildingBlock: AZAVOO_clean_linker_0, # of connection points: 4
#     Node 26, Type 1, BuildingBlock: AZAVOO_clean_linker_0, # of connection points: 4
#     Node 27, Type 1, BuildingBlock: AZAVOO_clean_linker_0, # of connection points: 4
#     Node 28, Type 1, BuildingBlock: AZAVOO_clean_linker_0, # of connection points: 4
#     Node 29, Type 1, BuildingBlock: AZAVOO_clean_linker_0, # of connection points: 4
#     Node 30, Type 1, BuildingBlock: AZAVOO_clean_linker_0, # of connection points: 4
#     Node 31, Type 1, BuildingBlock: AZAVOO_clean_linker_0, # of connection points: 4
#     Node 32, Type 1, BuildingBlock: AZAVOO_clean_linker_0, # of connection points: 4
#     Node 33, Type 1, BuildingBlock: AZAVOO_clean_linker_0, # of connection points: 4
#     Node 34, Type 1, BuildingBlock: AZAVOO_clean_linker_0, # of connection points: 4
#     Node 35, Type 1, BuildingBlock: AZAVOO_clean_linker_0, # of connection points: 4
#     Edge 36, Type (0, 1), BuildingBlock: CIFDUS_clean_linker_0, # of connection points: 2
#     Edge 37, Type (0, 1), BuildingBlock: CIFDUS_clean_linker_0, # of connection points: 2
#     Edge 38, Type (0, 1), BuildingBlock: CIFDUS_clean_linker_0, # of connection points: 2
#     Edge 39, Type (0, 1), BuildingBlock: CIFDUS_clean_linker_0, # of connection points: 2
#     Edge 40, Type (0, 1), BuildingBlock: CIFDUS_clean_linker_0, # of connection points: 2
#     Edge 41, Type (0, 1), BuildingBlock: CIFDUS_clean_linker_0, # of connection points: 2
#     Edge 42, Type (0, 1), BuildingBlock: CIFDUS_clean_linker_0, # of connection points: 2
#     Edge 43, Type (0, 1), BuildingBlock: CIFDUS_clean_linker_0, # of connection points: 2
#     Edge 44, Type (0, 1), BuildingBlock: CIFDUS_clean_linker_0, # of connection points: 2
#     Edge 45, Type (0, 1), BuildingBlock: CIFDUS_clean_linker_0, # of connection points: 2
#     Edge 46, Type (0, 1), BuildingBlock: CIFDUS_clean_linker_0, # of connection points: 2
#     Edge 47, Type (0, 1), BuildingBlock: CIFDUS_clean_linker_0, # of connection points: 2
#     Edge 48, Type (0, 1), BuildingBlock: CIFDUS_clean_linker_0, # of connection points: 2
#     Edge 49, Type (0, 1), BuildingBlock: CIFDUS_clean_linker_0, # of connection points: 2
#     Edge 50, Type (0, 1), BuildingBlock: CIFDUS_clean_linker_0, # of connection points: 2
#     Edge 51, Type (0, 1), BuildingBlock: CIFDUS_clean_linker_0, # of connection points: 2
#     Edge 52, Type (0, 1), BuildingBlock: CIFDUS_clean_linker_0, # of connection points: 2
#     Edge 53, Type (0, 1), BuildingBlock: CIFDUS_clean_linker_0, # of connection points: 2
#     Edge 54, Type (0, 1), BuildingBlock: CIFDUS_clean_linker_0, # of connection points: 2
#     Edge 55, Type (0, 1), BuildingBlock: CIFDUS_clean_linker_0, # of connection points: 2
#     Edge 56, Type (0, 1), BuildingBlock: CIFDUS_clean_linker_0, # of connection points: 2
#     Edge 57, Type (0, 1), BuildingBlock: CIFDUS_clean_linker_0, # of connection points: 2
#     Edge 58, Type (0, 1), BuildingBlock: CIFDUS_clean_linker_0, # of connection points: 2
#     Edge 59, Type (0, 1), BuildingBlock: CIFDUS_clean_linker_0, # of connection points: 2
#     Edge 60, Type (0, 1), BuildingBlock: CIFDUS_clean_linker_0, # of connection points: 2
#     Edge 61, Type (0, 1), BuildingBlock: CIFDUS_clean_linker_0, # of connection points: 2
#     Edge 62, Type (0, 1), BuildingBlock: CIFDUS_clean_linker_0, # of connection points: 2
#     Edge 63, Type (0, 1), BuildingBlock: CIFDUS_clean_linker_0, # of connection points: 2
#     Edge 64, Type (0, 1), BuildingBlock: CIFDUS_clean_linker_0, # of connection points: 2
#     Edge 65, Type (0, 1), BuildingBlock: CIFDUS_clean_linker_0, # of connection points: 2
#     Edge 66, Type (0, 1), BuildingBlock: CIFDUS_clean_linker_0, # of connection points: 2
#     Edge 67, Type (0, 1), BuildingBlock: CIFDUS_clean_linker_0, # of connection points: 2
#     Edge 68, Type (0, 1), BuildingBlock: CIFDUS_clean_linker_0, # of connection points: 2
#     Edge 69, Type (0, 1), BuildingBlock: CIFDUS_clean_linker_0, # of connection points: 2
#     Edge 70, Type (0, 1), BuildingBlock: CIFDUS_clean_linker_0, # of connection points: 2
#     Edge 71, Type (0, 1), BuildingBlock: CIFDUS_clean_linker_0, # of connection points: 2
#     Edge 72, Type (0, 1), BuildingBlock: CIFDUS_clean_linker_0, # of connection points: 2
#     Edge 73, Type (0, 1), BuildingBlock: CIFDUS_clean_linker_0, # of connection points: 2
#     Edge 74, Type (0, 1), BuildingBlock: CIFDUS_clean_linker_0, # of connection points: 2
#     Edge 75, Type (0, 1), BuildingBlock: CIFDUS_clean_linker_0, # of connection points: 2
#     Edge 76, Type (0, 1), BuildingBlock: CIFDUS_clean_linker_0, # of connection points: 2
#     Edge 77, Type (0, 1), BuildingBlock: CIFDUS_clean_linker_0, # of connection points: 2
#     Edge 78, Type (0, 1), BuildingBlock: CIFDUS_clean_linker_0, # of connection points: 2
#     Edge 79, Type (0, 1), BuildingBlock: CIFDUS_clean_linker_0, # of connection points: 2
#     Edge 80, Type (0, 1), BuildingBlock: CIFDUS_clean_linker_0, # of connection points: 2
#     Edge 81, Type (0, 1), BuildingBlock: CIFDUS_clean_linker_0, # of connection points: 2
#     Edge 82, Type (0, 1), BuildingBlock: CIFDUS_clean_linker_0, # of connection points: 2
#     Edge 83, Type (0, 1), BuildingBlock: CIFDUS_clean_linker_0, # of connection points: 2
#     Edge 84, Type (0, 1), BuildingBlock: CIFDUS_clean_linker_0, # of connection points: 2
#     Edge 85, Type (0, 1), BuildingBlock: CIFDUS_clean_linker_0, # of connection points: 2
#     Edge 86, Type (0, 1), BuildingBlock: CIFDUS_clean_linker_0, # of connection points: 2
#     Edge 87, Type (0, 1), BuildingBlock: CIFDUS_clean_linker_0, # of connection points: 2
#     Edge 88, Type (0, 1), BuildingBlock: CIFDUS_clean_linker_0, # of connection points: 2
#     Edge 89, Type (0, 1), BuildingBlock: CIFDUS_clean_linker_0, # of connection points: 2
#     Edge 90, Type (0, 1), BuildingBlock: CIFDUS_clean_linker_0, # of connection points: 2
#     Edge 91, Type (0, 1), BuildingBlock: CIFDUS_clean_linker_0, # of connection points: 2
#     Edge 92, Type (0, 1), BuildingBlock: CIFDUS_clean_linker_0, # of connection points: 2
#     Edge 93, Type (0, 1), BuildingBlock: CIFDUS_clean_linker_0, # of connection points: 2
#     Edge 94, Type (0, 1), BuildingBlock: CIFDUS_clean_linker_0, # of connection points: 2
#     Edge 95, Type (0, 1), BuildingBlock: CIFDUS_clean_linker_0, # of connection points: 2
#     Edge 96, Type (0, 1), BuildingBlock: CIFDUS_clean_linker_0, # of connection points: 2
#     Edge 97, Type (0, 1), BuildingBlock: CIFDUS_clean_linker_0, # of connection points: 2
#     Edge 98, Type (0, 1), BuildingBlock: CIFDUS_clean_linker_0, # of connection points: 2
#     Edge 99, Type (0, 1), BuildingBlock: CIFDUS_clean_linker_0, # of connection points: 2
#     Edge 100, Type (0, 1), BuildingBlock: CIFDUS_clean_linker_0, # of connection points: 2
#     Edge 101, Type (0, 1), BuildingBlock: CIFDUS_clean_linker_0, # of connection points: 2
#     Edge 102, Type (0, 1), BuildingBlock: CIFDUS_clean_linker_0, # of connection points: 2
#     Edge 103, Type (0, 1), BuildingBlock: CIFDUS_clean_linker_0, # of connection points: 2
#     Edge 104, Type (0, 1), BuildingBlock: CIFDUS_clean_linker_0, # of connection points: 2
#     Edge 105, Type (0, 1), BuildingBlock: CIFDUS_clean_linker_0, # of connection points: 2
#     Edge 106, Type (0, 1), BuildingBlock: CIFDUS_clean_linker_0, # of connection points: 2
#     Edge 107, Type (0, 1), BuildingBlock: CIFDUS_clean_linker_0, # of connection points: 2
# Relax obj value: 0.125
# Max RMSD: 0.325
# Mean RMSD: 0.192
data_MOF--net-ptr--node1-AZAVOO_clean_sbu_0--node2-AZAVOO_clean_linker_0--edge1-CIFDUS_clean_linker_0
_symmetry_space_group_name_H-M    P1
_symmetry_Int_Tables_number       1
_symmetry_cell_setting            triclinic
loop_
_symmetry_equiv_pos_as_xyz
'x, y, z'
_cell_length_a     74.314019
_cell_length_b     72.191243
_cell_length_c     59.990485
_cell_angle_alpha  93.846137
_cell_angle_beta   93.854464
_cell_angle_gamma 120.02378
loop_
_atom_site_label
_atom_site_type_symbol
_atom_site_fract_x
_atom_site_fract_y
_atom_site_fract_z
_atom_type_partial_charge
Mg0 Mg 0.00838 0.35267 0.99413 0.0
O1 O 0.99445 0.36486 0.0208 0.0
O2 O 0.96745 0.36579 0.00325 0.0
Mg3 Mg 0.96377 0.35429 0.96607 0.0
C4 C 0.97947 0.36878 0.02102 0.0
C5 C 0.03737 0.35896 0.03931 0.0
O6 O 0.03751 0.37718 0.04301 0.0
O7 O 0.98104 0.31798 0.99232 0.0
O8 O 0.95503 0.32066 0.97474 0.0
O9 O 0.02873 0.38685 0.98617 0.0
O10 O 0.99707 0.36409 0.96922 0.0
C11 C 0.962 0.30966 0.98385 0.0
C12 C 0.01321 0.38313 0.97171 0.0
O13 O 0.02713 0.34637 0.02148 0.0
Mg14 Mg 0.63806 0.63342 0.09013 0.0
O15 O 0.61409 0.62445 0.05923 0.0
O16 O 0.58487 0.62183 0.07029 0.0
Mg17 Mg 0.59054 0.63007 0.1085 0.0
C18 C 0.59542 0.62069 0.05487 0.0
C19 C 0.68116 0.65752 0.06987 0.0
O20 O 0.68596 0.67174 0.08741 0.0
O21 O 0.64513 0.66798 0.09317 0.0
O22 O 0.61592 0.66492 0.10499 0.0
O23 O 0.6249 0.59881 0.09479 0.0
O24 O 0.61376 0.61951 0.10994 0.0
C25 C 0.63436 0.67624 0.09944 0.0
C26 C 0.61176 0.60074 0.10644 0.0
O27 O 0.66316 0.64063 0.06685 0.0
Mg28 Mg 0.36235 0.97977 0.99576 0.0
O29 O 0.3826 0.98875 0.0296 0.0
O30 O 0.41081 0.02126 0.02974 0.0
Mg31 Mg 0.4089 0.03256 0.99525 0.0
C32 C 0.3998 0.00455 0.03938 0.0
C33 C 0.31695 0.9519 0.00402 0.0
O34 O 0.31557 0.96124 0.98645 0.0
O35 O 0.35218 0.00364 0.00513 0.0
O36 O 0.38023 0.03563 0.00238 0.0
O37 O 0.37947 0.96471 0.98067 0.0
O38 O 0.38834 0.99875 0.98001 0.0
C39 C 0.36109 0.02404 0.00577 0.0
C40 C 0.39209 0.98354 0.97485 0.0
O41 O 0.33469 0.95463 0.01125 0.0
Mg42 Mg 0.98777 0.64587 0.07378 0.0
O43 O 0.00298 0.63581 0.04664 0.0
O44 O 0.02699 0.63037 0.06475 0.0
Mg45 Mg 0.0272 0.63635 0.10252 0.0
C46 C 0.01718 0.63069 0.0466 0.0
C47 C 0.96741 0.67062 0.05545 0.0
O48 O 0.97129 0.67685 0.07719 0.0
O49 O 0.01697 0.67949 0.08124 0.0
O50 O 0.03959 0.67204 0.09916 0.0
O51 O 0.96414 0.61095 0.07514 0.0
O52 O 0.99481 0.62898 0.09605 0.0
C53 C 0.03498 0.68541 0.09146 0.0
C54 C 0.97792 0.61098 0.08957 0.0
O55 O 0.97276 0.65747 0.04773 0.0
Mg56 Mg 0.36234 0.38145 0.97846 0.0
O57 O 0.38404 0.38932 0.01088 0.0
O58 O 0.41385 0.39183 0.0022 0.0
Mg59 Mg 0.41177 0.38749 0.9636 0.0
C60 C 0.40226 0.39241 0.01669 0.0
C61 C 0.3293 0.38425 0.00597 0.0
O62 O 0.33955 0.40423 0.00123 0.0
O63 O 0.35619 0.3471 0.97389 0.0
O64 O 0.38573 0.35199 0.96118 0.0
O65 O 0.37558 0.41668 0.97572 0.0
O66 O 0.38795 0.39717 0.96081 0.0
C67 C 0.36709 0.33972 0.96575 0.0
C68 C 0.38947 0.41567 0.96459 0.0
O69 O 0.3349 0.37115 0.9989 0.0
Mg70 Mg 0.63749 0.02261 0.07365 0.0
O71 O 0.61212 0.00977 0.04354 0.0
O72 O 0.58306 0.98167 0.05255 0.0
Mg73 Mg 0.58962 0.97725 0.08902 0.0
C74 C 0.59313 0.99463 0.03854 0.0
C75 C 0.67913 0.04032 0.05282 0.0
O76 O 0.6825 0.03092 0.06927 0.0
O77 O 0.64156 0.99371 0.06741 0.0
O78 O 0.613 0.96695 0.07895 0.0
O79 O 0.62736 0.04508 0.08746 0.0
O80 O 0.61459 0.01147 0.09508 0.0
C81 C 0.63066 0.97419 0.07128 0.0
C82 C 0.61415 0.02908 0.09728 0.0
O83 O 0.66216 0.04065 0.05068 0.0
Mg84 Mg 0.68123 0.69396 0.33067 0.0
O85 O 0.66886 0.70572 0.35923 0.0
O86 O 0.64703 0.71536 0.3437 0.0
Mg87 Mg 0.64566 0.71023 0.3054 0.0
C88 C 0.65641 0.71301 0.36096 0.0
C89 C 0.71339 0.68561 0.35557 0.0
O90 O 0.72409 0.69887 0.34127 0.0
O91 O 0.6499 0.66238 0.32298 0.0
O92 O 0.63001 0.67359 0.30589 0.0
O93 O 0.7078 0.72761 0.32953 0.0
O94 O 0.67675 0.7136 0.30985 0.0
C95 C 0.63259 0.65853 0.31254 0.0
C96 C 0.69511 0.73002 0.31583 0.0
O97 O 0.69415 0.67967 0.35559 0.0
Mg98 Mg 0.30361 0.96565 0.42426 0.0
O99 O 0.2803 0.95687 0.3927 0.0
O100 O 0.25188 0.95679 0.40311 0.0
Mg101 Mg 0.2561 0.96317 0.44143 0.0
C102 C 0.26229 0.95476 0.38803 0.0
C103 C 0.34101 0.9647 0.40538 0.0
O104 O 0.33786 0.95241 0.42159 0.0
O105 O 0.3111 0.00037 0.42691 0.0
O106 O 0.28195 0.99782 0.43842 0.0
O107 O 0.29019 0.93111 0.42907 0.0
O108 O 0.27883 0.952 0.44325 0.0
C109 C 0.30045 0.00886 0.43295 0.0
C110 C 0.27687 0.93322 0.44023 0.0
O111 O 0.32952 0.97289 0.40229 0.0
Mg112 Mg 0.0382 0.31027 0.33279 0.0
O113 O 0.05973 0.31966 0.36587 0.0
O114 O 0.09042 0.3484 0.3615 0.0
Mg115 Mg 0.08945 0.35588 0.32515 0.0
C116 C 0.07832 0.33442 0.37359 0.0
C117 C 0.99394 0.29279 0.34755 0.0
O118 O 0.99405 0.30577 0.33317 0.0
O119 O 0.03535 0.33991 0.33982 0.0
O120 O 0.06583 0.36676 0.33187 0.0
O121 O 0.04842 0.2878 0.319 0.0
O122 O 0.06387 0.32251 0.31515 0.0
C123 C 0.04738 0.35968 0.3374 0.0
C124 C 0.06333 0.30448 0.31157 0.0
O125 O 0.00971 0.2904 0.35073 0.0
Mg126 Mg 0.64983 0.97456 0.408 0.0
O127 O 0.66446 0.96413 0.38079 0.0
O128 O 0.69194 0.96349 0.39735 0.0
Mg129 Mg 0.69542 0.97389 0.43487 0.0
C130 C 0.67974 0.96077 0.37985 0.0
C131 C 0.61123 0.96452 0.37452 0.0
O132 O 0.60399 0.94665 0.38403 0.0
O133 O 0.6764 0.00981 0.41053 0.0
O134 O 0.70287 0.00759 0.42761 0.0
O135 O 0.63045 0.94008 0.41504 0.0
O136 O 0.66184 0.96299 0.43245 0.0
C137 C 0.69545 0.0185 0.41915 0.0
C138 C 0.64597 0.94374 0.4294 0.0
O139 O 0.63001 0.97955 0.38052 0.0
Mg140 Mg 0.03604 0.71639 0.31918 0.0
O141 O 0.05712 0.72481 0.35237 0.0
O142 O 0.08674 0.72595 0.34547 0.0
Mg143 Mg 0.08492 0.71919 0.30728 0.0
C144 C 0.07504 0.72758 0.35914 0.0
C145 C 0.9899 0.69581 0.32999 0.0
O146 O 0.98646 0.68946 0.3083 0.0
O147 O 0.02829 0.68158 0.31648 0.0
O148 O 0.05815 0.68438 0.30738 0.0
O149 O 0.05089 0.75142 0.31416 0.0
O150 O 0.06196 0.72985 0.30172 0.0
C151 C 0.03906 0.67307 0.31101 0.0
C152 C 0.06432 0.7488 0.30374 0.0
O153 O 0.0086 0.7079 0.33915 0.0
Mg154 Mg 0.28943 0.35143 0.39071 0.0
O155 O 0.26244 0.33551 0.36206 0.0
O156 O 0.23357 0.31127 0.37568 0.0
Mg157 Mg 0.24237 0.31139 0.41304 0.0
C158 C 0.24303 0.32117 0.35951 0.0
C159 C 0.33086 0.36765 0.37008 0.0
O160 O 0.33585 0.36392 0.39004 0.0
O161 O 0.29217 0.32159 0.38928 0.0
O162 O 0.26415 0.2983 0.40479 0.0
O163 O 0.28135 0.37658 0.40136 0.0
O164 O 0.26835 0.34481 0.41399 0.0
C165 C 0.28112 0.30334 0.39626 0.0
C166 C 0.2689 0.36288 0.4139 0.0
O167 O 0.31266 0.36476 0.36521 0.0
Mg168 Mg 0.35979 0.03778 0.6689 0.0
O169 O 0.34615 0.04987 0.6956 0.0
O170 O 0.31939 0.05192 0.67916 0.0
Mg171 Mg 0.31713 0.04285 0.64135 0.0
C172 C 0.33136 0.05396 0.69658 0.0
C173 C 0.37989 0.01454 0.6951 0.0
O174 O 0.373 0.00158 0.67617 0.0
O175 O 0.33143 0.00369 0.66522 0.0
O176 O 0.30655 0.0078 0.64712 0.0
O177 O 0.38227 0.07163 0.66327 0.0
O178 O 0.35048 0.05194 0.64493 0.0
C179 C 0.3128 0.996 0.65578 0.0
C180 C 0.36769 0.07022 0.64894 0.0
O181 O 0.37678 0.03034 0.69698 0.0
Mg182 Mg 0.97762 0.28784 0.75572 0.0
O183 O 0.95548 0.27871 0.72322 0.0
O184 O 0.92517 0.27513 0.73183 0.0
Mg185 Mg 0.92737 0.27969 0.77031 0.0
C186 C 0.93698 0.27491 0.71746 0.0
C187 C 0.02049 0.29684 0.74075 0.0
O188 O 0.02017 0.28684 0.75836 0.0
O189 O 0.98241 0.32162 0.76041 0.0
O190 O 0.95191 0.31557 0.77125 0.0
O191 O 0.96572 0.25291 0.75846 0.0
O192 O 0.95226 0.27139 0.7734 0.0
C193 C 0.97059 0.32841 0.7672 0.0
C194 C 0.95151 0.25325 0.76958 0.0
O195 O 0.00513 0.29938 0.73524 0.0
Mg196 Mg 0.71352 0.65839 0.66963 0.0
O197 O 0.73506 0.66759 0.70247 0.0
O198 O 0.76645 0.69514 0.6982 0.0
Mg199 Mg 0.76537 0.70201 0.66138 0.0
C200 C 0.75383 0.68161 0.71031 0.0
C201 C 0.66885 0.6404 0.68263 0.0
O202 O 0.66822 0.65044 0.66537 0.0
O203 O 0.71158 0.68868 0.67567 0.0
O204 O 0.74257 0.71421 0.6672 0.0
O205 O 0.7231 0.63509 0.65623 0.0
O206 O 0.7384 0.66941 0.65095 0.0
C207 C 0.7242 0.70814 0.67253 0.0
C208 C 0.7373 0.65113 0.64729 0.0
O209 O 0.68545 0.64009 0.68841 0.0
Mg210 Mg 0.31594 0.30859 0.74024 0.0
O211 O 0.3304 0.2988 0.7124 0.0
O212 O 0.35521 0.2936 0.72864 0.0
Mg213 Mg 0.3568 0.30019 0.76668 0.0
C214 C 0.34455 0.29376 0.71114 0.0
C215 C 0.29638 0.33411 0.72072 0.0
O216 O 0.30121 0.34216 0.742 0.0
O217 O 0.34465 0.34236 0.747 0.0
O218 O 0.36835 0.33592 0.76396 0.0
O219 O 0.29295 0.27376 0.74209 0.0
O220 O 0.32383 0.29204 0.76243 0.0
C221 C 0.36297 0.3489 0.75674 0.0
C222 C 0.30685 0.2739 0.75646 0.0
O223 O 0.30048 0.31962 0.71427 0.0
Mg224 Mg 0.69681 0.04337 0.64267 0.0
O225 O 0.72182 0.05338 0.67295 0.0
O226 O 0.75147 0.05907 0.65999 0.0
Mg227 Mg 0.74548 0.05266 0.6216 0.0
C228 C 0.74103 0.05855 0.67624 0.0
C229 C 0.66054 0.04174 0.6659 0.0
O230 O 0.66415 0.0563 0.65211 0.0
O231 O 0.69291 0.01007 0.63784 0.0
O232 O 0.72244 0.01663 0.62379 0.0
O233 O 0.70661 0.07762 0.63926 0.0
O234 O 0.72011 0.05991 0.62249 0.0
C235 C 0.7046 0.00364 0.62987 0.0
C236 C 0.72009 0.07761 0.6267 0.0
O237 O 0.67147 0.03271 0.66607 0.0
Mg238 Mg 0.96196 0.69223 0.73555 0.0
O239 O 0.93963 0.68132 0.703 0.0
O240 O 0.90922 0.65276 0.70845 0.0
Mg241 Mg 0.91138 0.64682 0.74527 0.0
C242 C 0.92099 0.66633 0.69582 0.0
C243 C 0.00581 0.70995 0.71929 0.0
O244 O 0.00668 0.69779 0.73416 0.0
O245 O 0.96527 0.66281 0.72968 0.0
O246 O 0.93515 0.63606 0.73855 0.0
O247 O 0.95169 0.71484 0.74829 0.0
O248 O 0.93679 0.68051 0.75391 0.0
C249 C 0.95351 0.64316 0.73272 0.0
C250 C 0.93711 0.6985 0.75649 0.0
O251 O 0.98959 0.71159 0.71633 0.0
H252 H 0.16307 0.35045 0.00621 0.0
H253 H 0.28351 0.29343 0.17483 0.0
H254 H 0.15629 0.34621 0.12857 0.0
H255 H 0.12913 0.35178 0.11091 0.0
H256 H 0.08524 0.28329 0.10563 0.0
H257 H 0.11295 0.27787 0.1228 0.0
H258 H 0.18959 0.34957 0.09999 0.0
H259 H 0.18314 0.35626 0.06163 0.0
H260 H 0.13333 0.28986 0.04661 0.0
H261 H 0.14013 0.28334 0.08493 0.0
H262 H 0.22517 0.34878 0.12928 0.0
H263 H 0.25255 0.35903 0.10439 0.0
H264 H 0.21408 0.29855 0.0622 0.0
H265 H 0.18693 0.28818 0.08769 0.0
H266 H 0.22375 0.33817 0.17773 0.0
H267 H 0.25591 0.3387 0.19089 0.0
H268 H 0.23547 0.27999 0.14707 0.0
H269 H 0.20326 0.27951 0.13429 0.0
H270 H 0.18205 0.33133 0.19965 0.0
H271 H 0.1948 0.33125 0.23834 0.0
H272 H 0.19643 0.27368 0.21819 0.0
H273 H 0.18238 0.27297 0.17966 0.0
H274 H 0.14695 0.33158 0.17508 0.0
H275 H 0.12502 0.32555 0.20554 0.0
H276 H 0.11222 0.26006 0.20347 0.0
H277 H 0.13386 0.26611 0.17262 0.0
O278 O 0.16541 0.34743 0.02127 0.0
O279 O 0.13984 0.31319 0.01446 0.0
O280 O 0.28073 0.32381 0.19212 0.0
O281 O 0.27098 0.29368 0.16984 0.0
C282 C 0.15437 0.30843 0.13372 0.0
C283 C 0.16919 0.31191 0.11849 0.0
C284 C 0.18769 0.31189 0.12554 0.0
C285 C 0.19131 0.30807 0.14769 0.0
C286 C 0.17629 0.30403 0.16283 0.0
C287 C 0.15761 0.30382 0.15567 0.0
C288 C 0.13661 0.31164 0.12691 0.0
C289 C 0.14068 0.33246 0.124 0.0
C290 C 0.12508 0.3356 0.11397 0.0
C291 C 0.10496 0.31797 0.10671 0.0
C292 C 0.10063 0.29719 0.11073 0.0
C293 C 0.11635 0.29406 0.12075 0.0
C294 C 0.16541 0.31595 0.09516 0.0
C295 C 0.1774 0.33647 0.08832 0.0
C296 C 0.17363 0.34025 0.06644 0.0
C297 C 0.15773 0.32358 0.05104 0.0
C298 C 0.14571 0.30304 0.05802 0.0
C299 C 0.14954 0.29927 0.07989 0.0
C300 C 0.20416 0.31773 0.11029 0.0
C301 C 0.22274 0.33771 0.11474 0.0
C302 C 0.23825 0.34359 0.1004 0.0
C303 C 0.23541 0.32964 0.08127 0.0
C304 C 0.21677 0.30955 0.07691 0.0
C305 C 0.20124 0.30366 0.09133 0.0
C306 C 0.21114 0.30874 0.15515 0.0
C307 C 0.22625 0.32543 0.17103 0.0
C308 C 0.2446 0.3257 0.17849 0.0
C309 C 0.24824 0.30934 0.17006 0.0
C310 C 0.23316 0.2928 0.15393 0.0
C311 C 0.21477 0.29251 0.14655 0.0
C312 C 0.18119 0.30211 0.18677 0.0
C313 C 0.1844 0.31823 0.20369 0.0
C314 C 0.19179 0.31827 0.22572 0.0
C315 C 0.1966 0.3025 0.23106 0.0
C316 C 0.1928 0.28599 0.21436 0.0
C317 C 0.18483 0.2856 0.19243 0.0
C318 C 0.14188 0.29925 0.17158 0.0
C319 C 0.13898 0.31578 0.18081 0.0
C320 C 0.12671 0.31239 0.1984 0.0
C321 C 0.11717 0.29241 0.20707 0.0
C322 C 0.11933 0.27558 0.19709 0.0
C323 C 0.13164 0.279 0.1795 0.0
C324 C 0.15372 0.32767 0.02782 0.0
C325 C 0.26765 0.30947 0.17805 0.0
H326 H 0.68077 0.82721 0.04091 0.0
H327 H 0.74071 0.01778 0.21557 0.0
H328 H 0.67209 0.8269 0.17217 0.0
H329 H 0.66225 0.79082 0.15631 0.0
H330 H 0.72719 0.81257 0.149 0.0
H331 H 0.73698 0.84845 0.16682 0.0
H332 H 0.67529 0.85239 0.13384 0.0
H333 H 0.6712 0.83901 0.09413 0.0
H334 H 0.73837 0.86808 0.09676 0.0
H335 H 0.74218 0.88133 0.13647 0.0
H336 H 0.67582 0.89317 0.1604 0.0
H337 H 0.66488 0.9094 0.13239 0.0
H338 H 0.72544 0.93638 0.10786 0.0
H339 H 0.73652 0.9203 0.13682 0.0
H340 H 0.68525 0.9104 0.20712 0.0
H341 H 0.68808 0.94522 0.21724 0.0
H342 H 0.75076 0.97757 0.19786 0.0
H343 H 0.7478 0.94261 0.18809 0.0
H344 H 0.68009 0.87379 0.23065 0.0
H345 H 0.67713 0.8879 0.26757 0.0
H346 H 0.74293 0.93591 0.27436 0.0
H347 H 0.7458 0.92142 0.23743 0.0
H348 H 0.67522 0.83596 0.21153 0.0
H349 H 0.67051 0.81048 0.23823 0.0
H350 H 0.73719 0.84607 0.25947 0.0
H351 H 0.74177 0.87055 0.23112 0.0
O352 O 0.68274 0.83269 0.05658 0.0
O353 O 0.71735 0.848 0.0588 0.0
O354 O 0.70697 0.98638 0.22167 0.0
O355 O 0.7392 0.00378 0.2118 0.0
C356 C 0.71047 0.86235 0.17865 0.0
C357 C 0.71143 0.87563 0.16202 0.0
C358 C 0.71276 0.89548 0.16814 0.0
C359 C 0.71479 0.9029 0.19105 0.0
C360 C 0.71402 0.88973 0.20782 0.0
C361 C 0.71153 0.86928 0.20158 0.0
C362 C 0.70529 0.84006 0.17136 0.0
C363 C 0.68427 0.82366 0.16795 0.0
C364 C 0.67864 0.80315 0.15828 0.0
C365 C 0.69387 0.79875 0.15099 0.0
C366 C 0.71505 0.81526 0.15462 0.0
C367 C 0.72071 0.83575 0.16481 0.0
C368 C 0.70901 0.8678 0.13791 0.0
C369 C 0.68907 0.85585 0.12575 0.0
C370 C 0.6868 0.84823 0.10311 0.0
C371 C 0.70446 0.85247 0.09227 0.0
C372 C 0.72445 0.86453 0.10459 0.0
C373 C 0.72668 0.87213 0.12723 0.0
C374 C 0.707 0.90579 0.15075 0.0
C375 C 0.68675 0.90261 0.149 0.0
C376 C 0.68043 0.91163 0.13272 0.0
C377 C 0.69418 0.9239 0.11761 0.0
C378 C 0.71451 0.92697 0.11925 0.0
C379 C 0.72087 0.91788 0.13572 0.0
C380 C 0.71645 0.92402 0.19722 0.0
C381 C 0.69966 0.92503 0.20531 0.0
C382 C 0.70128 0.94494 0.21097 0.0
C383 C 0.71969 0.9642 0.20843 0.0
C384 C 0.73639 0.96307 0.20008 0.0
C385 C 0.73476 0.94314 0.19449 0.0
C386 C 0.71321 0.89642 0.23149 0.0
C387 C 0.69398 0.88699 0.24036 0.0
C388 C 0.69226 0.89526 0.26129 0.0
C389 C 0.70976 0.91313 0.27375 0.0
C390 C 0.72921 0.92205 0.2652 0.0
C391 C 0.73089 0.9138 0.24417 0.0
C392 C 0.70888 0.85467 0.2189 0.0
C393 C 0.68884 0.838 0.22165 0.0
C394 C 0.68617 0.82369 0.23734 0.0
C395 C 0.70347 0.8261 0.25116 0.0
C396 C 0.72353 0.84339 0.24886 0.0
C397 C 0.72621 0.85749 0.23279 0.0
C398 C 0.702 0.8443 0.06823 0.0
C399 C 0.72148 0.9854 0.21439 0.0
H400 H 0.13273 0.84244 0.02116 0.0
H401 H 0.31669 0.99754 0.18947 0.0
H402 H 0.12755 0.86222 0.13738 0.0
H403 H 0.09734 0.82687 0.12272 0.0
H404 H 0.12539 0.79601 0.15878 0.0
H405 H 0.15573 0.83114 0.17248 0.0
H406 H 0.1646 0.89461 0.10888 0.0
H407 H 0.15078 0.8778 0.0701 0.0
H408 H 0.15574 0.82288 0.08613 0.0
H409 H 0.16979 0.84001 0.12475 0.0
H410 H 0.21138 0.93132 0.12362 0.0
H411 H 0.23643 0.94019 0.09561 0.0
H412 H 0.23863 0.88251 0.105 0.0
H413 H 0.21378 0.87382 0.13275 0.0
H414 H 0.21252 0.947 0.18376 0.0
H415 H 0.24653 0.98024 0.19176 0.0
H416 H 0.27724 0.94462 0.17467 0.0
H417 H 0.2432 0.91151 0.16705 0.0
H418 H 0.17998 0.91351 0.22277 0.0
H419 H 0.19452 0.92238 0.26232 0.0
H420 H 0.24389 0.91058 0.24521 0.0
H421 H 0.2278 0.89934 0.2066 0.0
H422 H 0.13489 0.87373 0.19361 0.0
H423 H 0.11414 0.85317 0.22251 0.0
H424 H 0.16352 0.8411 0.24479 0.0
H425 H 0.18335 0.8603 0.215 0.0
O426 O 0.13833 0.84885 0.03655 0.0
O427 O 0.14112 0.82096 0.04567 0.0
O428 O 0.28649 0.00227 0.1948 0.0
O429 O 0.30304 0.98467 0.18635 0.0
C430 C 0.16399 0.87003 0.16097 0.0
C431 C 0.17615 0.87871 0.14321 0.0
C432 C 0.1966 0.89659 0.14782 0.0
C433 C 0.20455 0.90682 0.17001 0.0
C434 C 0.19277 0.89782 0.188 0.0
C435 C 0.17245 0.87934 0.18345 0.0
C436 C 0.14384 0.84926 0.15601 0.0
C437 C 0.12691 0.8478 0.14245 0.0
C438 C 0.10969 0.82762 0.1341 0.0
C439 C 0.10917 0.80866 0.13927 0.0
C440 C 0.12555 0.81031 0.15408 0.0
C441 C 0.14275 0.83039 0.16224 0.0
C442 C 0.16796 0.86842 0.11965 0.0
C443 C 0.1627 0.87897 0.10395 0.0
C444 C 0.15479 0.86931 0.08183 0.0
C445 C 0.15207 0.84895 0.07503 0.0
C446 C 0.15757 0.83853 0.09082 0.0
C447 C 0.16553 0.84824 0.1129 0.0
C448 C 0.21085 0.90197 0.13014 0.0
C449 C 0.2172 0.92059 0.11944 0.0
C450 C 0.23138 0.92556 0.10348 0.0
C451 C 0.23948 0.91205 0.09829 0.0
C452 C 0.23279 0.89328 0.10886 0.0
C453 C 0.21854 0.88826 0.12457 0.0
C454 C 0.22535 0.92689 0.17453 0.0
C455 C 0.22661 0.94643 0.1817 0.0
C456 C 0.24606 0.96538 0.18626 0.0
C457 C 0.26462 0.9651 0.18377 0.0
C458 C 0.26327 0.94544 0.17666 0.0
C459 C 0.24382 0.92651 0.17214 0.0
C460 C 0.20288 0.90593 0.21164 0.0
C461 C 0.19393 0.91285 0.22766 0.0
C462 C 0.20243 0.91812 0.25029 0.0
C463 C 0.22042 0.91712 0.25725 0.0
C464 C 0.22976 0.91103 0.24085 0.0
C465 C 0.22086 0.9051 0.21849 0.0
C466 C 0.16064 0.86855 0.20221 0.0
C467 C 0.1412 0.86669 0.20483 0.0
C468 C 0.12949 0.85513 0.2215 0.0
C469 C 0.13711 0.84538 0.23592 0.0
C470 C 0.15699 0.84806 0.23375 0.0
C471 C 0.16848 0.85925 0.21688 0.0
C472 C 0.14353 0.83868 0.05157 0.0
C473 C 0.28532 0.98517 0.18865 0.0
H474 H 0.3003 0.18793 0.03189 0.0
H475 H 0.29267 0.00374 0.88893 0.0
H476 H 0.27951 0.17051 0.91062 0.0
H477 H 0.29262 0.20918 0.91931 0.0
H478 H 0.3527 0.2232 0.89952 0.0
H479 H 0.33928 0.18487 0.89037 0.0
H480 H 0.27322 0.13357 0.94557 0.0
H481 H 0.27852 0.15251 0.98299 0.0
H482 H 0.34379 0.19452 0.97526 0.0
H483 H 0.3383 0.17529 0.93799 0.0
H484 H 0.27381 0.08908 0.93859 0.0
H485 H 0.28483 0.07514 0.96969 0.0
H486 H 0.34953 0.12175 0.96378 0.0
H487 H 0.33827 0.13595 0.93398 0.0
H488 H 0.25964 0.07352 0.87658 0.0
H489 H 0.25251 0.03641 0.87282 0.0
H490 H 0.31657 0.05919 0.89939 0.0
H491 H 0.32358 0.09619 0.9027 0.0
H492 H 0.26966 0.10878 0.83388 0.0
H493 H 0.27276 0.09458 0.7971 0.0
H494 H 0.32717 0.09355 0.82616 0.0
H495 H 0.32533 0.11006 0.86171 0.0
H496 H 0.26996 0.15044 0.85865 0.0
H497 H 0.27433 0.17563 0.83131 0.0
H498 H 0.33442 0.18308 0.8206 0.0
H499 H 0.32998 0.15799 0.8482 0.0
O500 O 0.29858 0.1806 0.0171 0.0
O501 O 0.33199 0.20181 0.01226 0.0
O502 O 0.26237 0.0074 0.87631 0.0
O503 O 0.29508 0.01826 0.89015 0.0
C504 C 0.30176 0.15178 0.89691 0.0
C505 C 0.30183 0.14174 0.91624 0.0
C506 C 0.29953 0.12111 0.91404 0.0
C507 C 0.29604 0.10995 0.89245 0.0
C508 C 0.29635 0.12014 0.87295 0.0
C509 C 0.29884 0.14097 0.87526 0.0
C510 C 0.3084 0.17498 0.89964 0.0
C511 C 0.29535 0.18205 0.90777 0.0
C512 C 0.30295 0.2041 0.91293 0.0
C513 C 0.32375 0.21934 0.91016 0.0
C514 C 0.33651 0.21203 0.90147 0.0
C515 C 0.32888 0.19011 0.89622 0.0
C516 C 0.30531 0.15323 0.93902 0.0
C517 C 0.28864 0.14687 0.95202 0.0
C518 C 0.29172 0.15772 0.97337 0.0
C519 C 0.31156 0.1751 0.98208 0.0
C520 C 0.32829 0.18127 0.96902 0.0
C521 C 0.32519 0.17037 0.94771 0.0
C522 C 0.30528 0.11341 0.93406 0.0
C523 C 0.2903 0.09643 0.94446 0.0
C524 C 0.29667 0.08848 0.96213 0.0
C525 C 0.31813 0.09723 0.96937 0.0
C526 C 0.33289 0.11483 0.95927 0.0
C527 C 0.32651 0.12288 0.94197 0.0
C528 C 0.29203 0.08753 0.89022 0.0
C529 C 0.2721 0.07045 0.88159 0.0
C530 C 0.26807 0.04928 0.87947 0.0
C531 C 0.28395 0.04482 0.88592 0.0
C532 C 0.30396 0.06202 0.89439 0.0
C533 C 0.30797 0.08318 0.89644 0.0
C534 C 0.29715 0.11032 0.85064 0.0
C535 C 0.28236 0.10567 0.83215 0.0
C536 C 0.28404 0.09727 0.81115 0.0
C537 C 0.30029 0.09286 0.80835 0.0
C538 C 0.31475 0.09717 0.82719 0.0
C539 C 0.31345 0.1062 0.84784 0.0
C540 C 0.29964 0.1524 0.85537 0.0
C541 C 0.28378 0.15705 0.8499 0.0
C542 C 0.28629 0.17139 0.83425 0.0
C543 C 0.30478 0.18143 0.82393 0.0
C544 C 0.32009 0.17572 0.82845 0.0
C545 C 0.31751 0.16127 0.84404 0.0
C546 C 0.31475 0.18668 0.0047 0.0
C547 C 0.27974 0.02235 0.8838 0.0
H548 H 0.86617 0.16766 0.04211 0.0
H549 H 0.70134 0.9845 0.8531 0.0
H550 H 0.84467 0.16739 0.90171 0.0
H551 H 0.87413 0.20185 0.91887 0.0
H552 H 0.90555 0.16938 0.94382 0.0
H553 H 0.87603 0.13476 0.92594 0.0
H554 H 0.83211 0.1518 0.94757 0.0
H555 H 0.84591 0.16384 0.98726 0.0
H556 H 0.85272 0.10802 0.99125 0.0
H557 H 0.83915 0.09632 0.95141 0.0
H558 H 0.78996 0.1179 0.93993 0.0
H559 H 0.767 0.10454 0.96931 0.0
H560 H 0.76761 0.04489 0.9613 0.0
H561 H 0.79136 0.05885 0.93218 0.0
H562 H 0.76049 0.08699 0.8983 0.0
H563 H 0.72584 0.05516 0.88745 0.0
H564 H 0.75479 0.01988 0.8628 0.0
H565 H 0.78935 0.05177 0.87396 0.0
H566 H 0.77826 0.10656 0.85854 0.0
H567 H 0.76149 0.09621 0.81982 0.0
H568 H 0.80389 0.07437 0.80242 0.0
H569 H 0.82089 0.08526 0.84133 0.0
H570 H 0.81897 0.14402 0.85725 0.0
H571 H 0.83945 0.1696 0.83172 0.0
H572 H 0.88903 0.15555 0.84495 0.0
H573 H 0.86794 0.1292 0.86979 0.0
O574 O 0.86079 0.16262 0.02642 0.0
O575 O 0.86387 0.13359 0.02763 0.0
O576 O 0.70075 0.01612 0.87066 0.0
O577 O 0.71487 0.9973 0.85769 0.0
C578 C 0.83863 0.12766 0.90554 0.0
C579 C 0.82668 0.11608 0.92237 0.0
C580 C 0.80639 0.09818 0.91636 0.0
C581 C 0.79846 0.09093 0.89348 0.0
C582 C 0.81031 0.10249 0.87656 0.0
C583 C 0.83033 0.12099 0.8826 0.0
C584 C 0.85824 0.14858 0.91245 0.0
C585 C 0.85816 0.16774 0.91028 0.0
C586 C 0.87485 0.18736 0.92042 0.0
C587 C 0.89194 0.18822 0.93307 0.0
C588 C 0.89257 0.16917 0.9342 0.0
C589 C 0.87579 0.14944 0.92397 0.0
C590 C 0.8349 0.12334 0.94656 0.0
C591 C 0.83676 0.1423 0.957 0.0
C592 C 0.84457 0.14909 0.9797 0.0
C593 C 0.85049 0.13693 0.99242 0.0
C594 C 0.84837 0.1178 0.98193 0.0
C595 C 0.84061 0.11106 0.9592 0.0
C596 C 0.79236 0.08937 0.93406 0.0
C597 C 0.78525 0.102 0.94463 0.0
C598 C 0.77198 0.09426 0.96125 0.0
C599 C 0.76537 0.0736 0.96751 0.0
C600 C 0.77259 0.06094 0.95694 0.0
C601 C 0.786 0.06879 0.94026 0.0
C602 C 0.77741 0.07159 0.88713 0.0
C603 C 0.75931 0.07231 0.89075 0.0
C604 C 0.73954 0.05413 0.88444 0.0
C605 C 0.73755 0.03495 0.87429 0.0
C606 C 0.75576 0.03436 0.87061 0.0
C607 C 0.77551 0.05254 0.87697 0.0
C608 C 0.80066 0.09649 0.85277 0.0
C609 C 0.78388 0.09948 0.84636 0.0
C610 C 0.77426 0.09346 0.82425 0.0
C611 C 0.7812 0.08426 0.80802 0.0
C612 C 0.79826 0.08156 0.81444 0.0
C613 C 0.80793 0.08767 0.83665 0.0
C614 C 0.84189 0.13461 0.86522 0.0
C615 C 0.83398 0.14599 0.85413 0.0
C616 C 0.84583 0.16079 0.83977 0.0
C617 C 0.86594 0.16473 0.83646 0.0
C618 C 0.87351 0.15272 0.84696 0.0
C619 C 0.86156 0.13776 0.86124 0.0
C620 C 0.85879 0.1442 0.01654 0.0
C621 C 0.71658 0.01561 0.86747 0.0
H622 H 0.87163 0.71243 0.0755 0.0
H623 H 0.70258 0.67688 0.88953 0.0
H624 H 0.8863 0.73218 0.96051 0.0
H625 H 0.91381 0.72693 0.97836 0.0
H626 H 0.882 0.66156 0.94563 0.0
H627 H 0.85478 0.66707 0.92781 0.0
H628 H 0.84956 0.73091 0.98762 0.0
H629 H 0.85992 0.72917 0.02668 0.0
H630 H 0.84579 0.66385 0.00875 0.0
H631 H 0.83522 0.66573 0.96983 0.0
H632 H 0.80892 0.73002 0.96305 0.0
H633 H 0.78414 0.72557 0.99016 0.0
H634 H 0.76931 0.65981 0.99317 0.0
H635 H 0.79372 0.6643 0.96575 0.0
H636 H 0.80675 0.73379 0.91082 0.0
H637 H 0.77373 0.73204 0.89886 0.0
H638 H 0.74 0.66435 0.90768 0.0
H639 H 0.77316 0.6663 0.9194 0.0
H640 H 0.83645 0.73697 0.88267 0.0
H641 H 0.82575 0.73573 0.84277 0.0
H642 H 0.79075 0.66614 0.83719 0.0
H643 H 0.8012 0.66766 0.87714 0.0
H644 H 0.87406 0.74101 0.90033 0.0
H645 H 0.89442 0.74578 0.86862 0.0
H646 H 0.86794 0.67674 0.85703 0.0
H647 H 0.84676 0.67222 0.88785 0.0
O648 O 0.8672 0.71268 0.06002 0.0
O649 O 0.85984 0.67919 0.0499 0.0
O650 O 0.73394 0.71285 0.88992 0.0
O651 O 0.71585 0.67802 0.8942 0.0
C652 C 0.84982 0.70155 0.93592 0.0
C653 C 0.83627 0.69996 0.95211 0.0
C654 C 0.81761 0.69993 0.94567 0.0
C655 C 0.81236 0.70126 0.923 0.0
C656 C 0.82592 0.70299 0.90688 0.0
C657 C 0.84479 0.70348 0.91342 0.0
C658 C 0.86865 0.70008 0.94268 0.0
C659 C 0.88565 0.71696 0.9567 0.0
C660 C 0.9012 0.71383 0.96707 0.0
C661 C 0.90002 0.69374 0.9636 0.0
C662 C 0.88357 0.6773 0.94848 0.0
C663 C 0.86802 0.68044 0.93818 0.0
C664 C 0.84174 0.69849 0.97593 0.0
C665 C 0.8486 0.7162 0.99222 0.0
C666 C 0.85456 0.71518 0.01449 0.0
C667 C 0.85377 0.6964 0.02083 0.0
C668 C 0.84665 0.67858 0.00444 0.0
C669 C 0.84063 0.67961 0.9822 0.0
C670 C 0.80308 0.69748 0.9625 0.0
C671 C 0.80029 0.71469 0.96961 0.0
C672 C 0.78626 0.71215 0.98516 0.0
C673 C 0.77476 0.69233 0.99375 0.0
C674 C 0.77774 0.67519 0.98665 0.0
C675 C 0.79178 0.67776 0.97114 0.0
C676 C 0.7923 0.70018 0.91595 0.0
C677 C 0.7922 0.7186 0.91009 0.0
C678 C 0.77333 0.71756 0.90331 0.0
C679 C 0.75421 0.69804 0.90231 0.0
C680 C 0.75442 0.67963 0.90826 0.0
C681 C 0.77332 0.68069 0.91499 0.0
C682 C 0.81953 0.70241 0.88273 0.0
C683 C 0.82646 0.7215 0.87277 0.0
C684 C 0.82043 0.72073 0.84996 0.0
C685 C 0.80735 0.70082 0.83675 0.0
C686 C 0.80055 0.68174 0.84691 0.0
C687 C 0.80657 0.68255 0.86969 0.0
C688 C 0.85921 0.70631 0.89648 0.0
C689 C 0.87292 0.72699 0.89104 0.0
C690 C 0.88452 0.72966 0.87293 0.0
C691 C 0.88274 0.71164 0.86011 0.0
C692 C 0.86938 0.69096 0.86617 0.0
C693 C 0.85755 0.68832 0.88405 0.0
C694 C 0.86041 0.69548 0.04442 0.0
C695 C 0.73411 0.69684 0.8951 0.0
H696 H 0.84453 0.68136 0.34045 0.0
H697 H 0.93762 0.60091 0.51814 0.0
H698 H 0.83533 0.68322 0.46673 0.0
H699 H 0.81342 0.69382 0.44542 0.0
H700 H 0.76596 0.62682 0.42824 0.0
H701 H 0.788 0.61636 0.45004 0.0
H702 H 0.86516 0.6801 0.43597 0.0
H703 H 0.86133 0.68689 0.39699 0.0
H704 H 0.81139 0.62072 0.38033 0.0
H705 H 0.81551 0.61415 0.41935 0.0
H706 H 0.89787 0.67534 0.46964 0.0
H707 H 0.92638 0.68583 0.44642 0.0
H708 H 0.88843 0.62708 0.40146 0.0
H709 H 0.85973 0.61669 0.42498 0.0
H710 H 0.89641 0.66441 0.51393 0.0
H711 H 0.92435 0.65832 0.52845 0.0
H712 H 0.89269 0.59533 0.48994 0.0
H713 H 0.86472 0.60153 0.47577 0.0
H714 H 0.86416 0.6719 0.53139 0.0
H715 H 0.8739 0.67366 0.57144 0.0
H716 H 0.85144 0.60532 0.56336 0.0
H717 H 0.84103 0.60362 0.52317 0.0
H718 H 0.83498 0.67781 0.50985 0.0
H719 H 0.81691 0.68273 0.54 0.0
H720 H 0.77898 0.61354 0.5389 0.0
H721 H 0.79816 0.60896 0.5094 0.0
O722 O 0.84589 0.67829 0.35572 0.0
O723 O 0.82034 0.64411 0.34803 0.0
O724 O 0.94241 0.63624 0.53216 0.0
O725 O 0.92678 0.60373 0.51266 0.0
C726 C 0.8285 0.64304 0.46859 0.0
C727 C 0.84261 0.6427 0.45415 0.0
C728 C 0.85935 0.64022 0.46269 0.0
C729 C 0.86127 0.63677 0.48539 0.0
C730 C 0.84732 0.63734 0.49992 0.0
C731 C 0.83097 0.64055 0.49151 0.0
C732 C 0.81317 0.64905 0.46002 0.0
C733 C 0.81991 0.67087 0.45898 0.0
C734 C 0.80749 0.67686 0.44659 0.0
C735 C 0.78811 0.66112 0.4349 0.0
C736 C 0.78077 0.63928 0.43716 0.0
C737 C 0.79328 0.63328 0.44962 0.0
C738 C 0.84069 0.64662 0.43037 0.0
C739 C 0.85351 0.66708 0.42381 0.0
C740 C 0.85124 0.67092 0.40157 0.0
C741 C 0.83605 0.65434 0.38553 0.0
C742 C 0.82325 0.63383 0.39224 0.0
C743 C 0.82557 0.63002 0.41448 0.0
C744 C 0.87685 0.64516 0.44912 0.0
C745 C 0.89583 0.66454 0.455 0.0
C746 C 0.9121 0.6705 0.44171 0.0
C747 C 0.9097 0.65724 0.42216 0.0
C748 C 0.89068 0.63769 0.41636 0.0
C749 C 0.87436 0.63166 0.42979 0.0
C750 C 0.87842 0.63329 0.49404 0.0
C751 C 0.89545 0.64924 0.50881 0.0
C752 C 0.91144 0.64575 0.51699 0.0
C753 C 0.91072 0.62629 0.51041 0.0
C754 C 0.89371 0.61046 0.4954 0.0
C755 C 0.87772 0.61396 0.48727 0.0
C756 C 0.85167 0.6376 0.52447 0.0
C757 C 0.86092 0.65722 0.53836 0.0
C758 C 0.86673 0.65824 0.56117 0.0
C759 C 0.8636 0.63966 0.57053 0.0
C760 C 0.85388 0.61987 0.55666 0.0
C761 C 0.848 0.61886 0.53375 0.0
C762 C 0.81767 0.64305 0.5073 0.0
C763 C 0.8225 0.66373 0.51586 0.0
C764 C 0.81211 0.66647 0.53313 0.0
C765 C 0.79639 0.64853 0.54195 0.0
C766 C 0.79121 0.62774 0.53281 0.0
C767 C 0.8019 0.62504 0.51573 0.0
C768 C 0.83356 0.65851 0.36196 0.0
C769 C 0.92762 0.62248 0.51911 0.0
H770 H 0.332 0.1632 0.36732 0.0
H771 H 0.39752 0.34953 0.54749 0.0
H772 H 0.32957 0.15941 0.49279 0.0
H773 H 0.32192 0.12372 0.47812 0.0
H774 H 0.38829 0.14629 0.48381 0.0
H775 H 0.39559 0.18182 0.5001 0.0
H776 H 0.33023 0.18988 0.46101 0.0
H777 H 0.32477 0.1769 0.42099 0.0
H778 H 0.38995 0.1951 0.42368 0.0
H779 H 0.39519 0.20816 0.46366 0.0
H780 H 0.33146 0.22784 0.49369 0.0
H781 H 0.31874 0.24335 0.46654 0.0
H782 H 0.37479 0.26443 0.4337 0.0
H783 H 0.38787 0.2494 0.46187 0.0
H784 H 0.3428 0.24216 0.53969 0.0
H785 H 0.34617 0.27694 0.55153 0.0
H786 H 0.40629 0.30939 0.52607 0.0
H787 H 0.40285 0.27447 0.51462 0.0
H788 H 0.33958 0.20522 0.56126 0.0
H789 H 0.33854 0.21989 0.59885 0.0
H790 H 0.40381 0.2685 0.60154 0.0
H791 H 0.40471 0.25375 0.56378 0.0
H792 H 0.33467 0.16425 0.53531 0.0
H793 H 0.33168 0.13856 0.56105 0.0
H794 H 0.39644 0.18117 0.58828 0.0
H795 H 0.39965 0.2059 0.56074 0.0
O796 O 0.33451 0.16849 0.38311 0.0
O797 O 0.36812 0.1781 0.38541 0.0
O798 O 0.36491 0.31809 0.55603 0.0
O799 O 0.39582 0.33554 0.54306 0.0
C800 C 0.36721 0.19481 0.50559 0.0
C801 C 0.36641 0.20779 0.48943 0.0
C802 C 0.36737 0.22732 0.4964 0.0
C803 C 0.37083 0.23473 0.51954 0.0
C804 C 0.37162 0.22174 0.53578 0.0
C805 C 0.3693 0.20148 0.52881 0.0
C806 C 0.36308 0.173 0.49779 0.0
C807 C 0.34242 0.15651 0.49119 0.0
C808 C 0.33814 0.13621 0.48242 0.0
C809 C 0.3545 0.13211 0.47937 0.0
C810 C 0.37529 0.14877 0.48609 0.0
C811 C 0.37952 0.16907 0.49536 0.0
C812 C 0.36313 0.2001 0.46512 0.0
C813 C 0.34331 0.19116 0.45286 0.0
C814 C 0.34024 0.1837 0.43004 0.0
C815 C 0.35694 0.18499 0.41912 0.0
C816 C 0.37677 0.1939 0.43156 0.0
C817 C 0.37982 0.20138 0.45437 0.0
C818 C 0.36068 0.23775 0.47993 0.0
C819 C 0.34112 0.23601 0.48079 0.0
C820 C 0.33372 0.24456 0.46498 0.0
C821 C 0.34559 0.25482 0.44769 0.0
C822 C 0.3653 0.25663 0.44683 0.0
C823 C 0.37279 0.2481 0.46286 0.0
C824 C 0.37273 0.25582 0.52662 0.0
C825 C 0.35678 0.2568 0.53691 0.0
C826 C 0.3587 0.27669 0.54355 0.0
C827 C 0.37655 0.29596 0.53982 0.0
C828 C 0.39238 0.29487 0.52926 0.0
C829 C 0.39046 0.27496 0.5227 0.0
C830 C 0.37224 0.22837 0.55989 0.0
C831 C 0.35378 0.21871 0.57019 0.0
C832 C 0.35315 0.22723 0.5915 0.0
C833 C 0.37104 0.24543 0.60294 0.0
C834 C 0.38983 0.25442 0.59308 0.0
C835 C 0.39039 0.24601 0.57161 0.0
C836 C 0.36753 0.18663 0.54565 0.0
C837 C 0.34833 0.16782 0.54651 0.0
C838 C 0.34657 0.15332 0.56166 0.0
C839 C 0.36382 0.15763 0.57692 0.0
C840 C 0.38291 0.17697 0.57652 0.0
C841 C 0.38477 0.19126 0.56093 0.0
C842 C 0.35361 0.17702 0.39489 0.0
C843 C 0.37866 0.31714 0.54682 0.0
H844 H 0.81067 0.17672 0.3509 0.0
H845 H 0.96746 0.35 0.53963 0.0
H846 H 0.79617 0.18878 0.46855 0.0
H847 H 0.77022 0.1528 0.45013 0.0
H848 H 0.80851 0.12803 0.47683 0.0
H849 H 0.83488 0.16415 0.49335 0.0
H850 H 0.82369 0.21976 0.44163 0.0
H851 H 0.8149 0.20466 0.40201 0.0
H852 H 0.85017 0.17266 0.41359 0.0
H853 H 0.85885 0.18795 0.45317 0.0
H854 H 0.86214 0.25707 0.44765 0.0
H855 H 0.88545 0.27074 0.41826 0.0
H856 H 0.92493 0.24939 0.44986 0.0
H857 H 0.90066 0.23426 0.47761 0.0
H858 H 0.8662 0.27758 0.51124 0.0
H859 H 0.89392 0.31492 0.52282 0.0
H860 H 0.93991 0.29488 0.52427 0.0
H861 H 0.91206 0.25766 0.51286 0.0
H862 H 0.84095 0.24107 0.55368 0.0
H863 H 0.8537 0.25097 0.59369 0.0
H864 H 0.90803 0.24628 0.58065 0.0
H865 H 0.89364 0.23374 0.54157 0.0
H866 H 0.80792 0.20738 0.53263 0.0
H867 H 0.78901 0.18489 0.56106 0.0
H868 H 0.82738 0.15532 0.55866 0.0
H869 H 0.84769 0.17992 0.53252 0.0
O870 O 0.8144 0.18259 0.3666 0.0
O871 O 0.83273 0.1665 0.37343 0.0
O872 O 0.93192 0.34484 0.53407 0.0
O873 O 0.95619 0.33538 0.53503 0.0
C874 C 0.83469 0.20128 0.49029 0.0
C875 C 0.84693 0.21387 0.47421 0.0
C876 C 0.86483 0.2342 0.48115 0.0
C877 C 0.87003 0.24244 0.50412 0.0
C878 C 0.85836 0.2296 0.52039 0.0
C879 C 0.84064 0.209 0.51343 0.0
C880 C 0.81724 0.17902 0.48268 0.0
C881 C 0.79872 0.17545 0.47062 0.0
C882 C 0.78391 0.15485 0.46013 0.0
C883 C 0.78729 0.13743 0.4617 0.0
C884 C 0.80551 0.14105 0.47469 0.0
C885 C 0.82044 0.16165 0.48471 0.0
C886 C 0.84191 0.20495 0.45015 0.0
C887 C 0.82953 0.20954 0.43552 0.0
C888 C 0.82453 0.20087 0.41292 0.0
C889 C 0.83183 0.18744 0.40463 0.0
C890 C 0.84429 0.18294 0.41943 0.0
C891 C 0.84929 0.19164 0.44201 0.0
C892 C 0.87992 0.24498 0.46489 0.0
C893 C 0.8759 0.25549 0.44814 0.0
C894 C 0.8893 0.26336 0.43146 0.0
C895 C 0.90704 0.26103 0.43149 0.0
C896 C 0.9112 0.25103 0.44883 0.0
C897 C 0.89758 0.24276 0.46506 0.0
C898 C 0.88713 0.26496 0.51103 0.0
C899 C 0.88228 0.28132 0.51403 0.0
C900 C 0.89814 0.30262 0.52065 0.0
C901 C 0.91916 0.3079 0.52442 0.0
C902 C 0.92392 0.2914 0.52144 0.0
C903 C 0.90803 0.27011 0.51483 0.0
C904 C 0.86632 0.23663 0.54467 0.0
C905 C 0.85539 0.24181 0.55965 0.0
C906 C 0.86297 0.24784 0.58254 0.0
C907 C 0.88202 0.24948 0.5908 0.0
C908 C 0.89306 0.2447 0.57542 0.0
C909 C 0.88507 0.23792 0.55281 0.0
C910 C 0.82897 0.19506 0.53041 0.0
C911 C 0.8123 0.19617 0.53856 0.0
C912 C 0.80134 0.18303 0.55465 0.0
C913 C 0.80629 0.16783 0.56222 0.0
C914 C 0.82317 0.16695 0.55384 0.0
C915 C 0.83464 0.18075 0.53849 0.0
C916 C 0.8264 0.17818 0.38064 0.0
C917 C 0.93607 0.3305 0.53146 0.0
H918 H 0.00566 0.52897 0.36572 0.0
H919 H 0.01022 0.36541 0.18292 0.0
H920 H 0.96405 0.50427 0.2503 0.0
H921 H 0.9754 0.54008 0.26944 0.0
H922 H 0.03275 0.56598 0.23835 0.0
H923 H 0.02196 0.53009 0.2208 0.0
H924 H 0.96791 0.47627 0.27878 0.0
H925 H 0.97784 0.49488 0.3171 0.0
H926 H 0.04204 0.53215 0.30304 0.0
H927 H 0.03187 0.5133 0.26482 0.0
H928 H 0.97405 0.44235 0.27545 0.0
H929 H 0.98839 0.42969 0.30481 0.0
H930 H 0.04549 0.45377 0.27328 0.0
H931 H 0.03148 0.46736 0.24509 0.0
H932 H 0.96168 0.41377 0.22623 0.0
H933 H 0.96318 0.38098 0.21746 0.0
H934 H 0.02112 0.41814 0.18895 0.0
H935 H 0.01957 0.4508 0.19812 0.0
H936 H 0.95259 0.42764 0.17698 0.0
H937 H 0.95362 0.40927 0.1416 0.0
H938 H 0.01515 0.46292 0.13616 0.0
H939 H 0.01416 0.48087 0.17166 0.0
H940 H 0.94637 0.4772 0.19072 0.0
H941 H 0.93863 0.49766 0.16463 0.0
H942 H 0.00435 0.53477 0.15609 0.0
H943 H 0.01161 0.51359 0.18127 0.0
O944 O 0.00211 0.52166 0.35058 0.0
O945 O 0.03487 0.54044 0.34248 0.0
O946 O 0.97955 0.35978 0.2017 0.0
O947 O 0.00926 0.37813 0.18665 0.0
C948 C 0.98867 0.4927 0.22835 0.0
C949 C 0.993 0.4827 0.24568 0.0
C950 C 0.9935 0.46369 0.24044 0.0
C951 C 0.98931 0.45438 0.21789 0.0
C952 C 0.98493 0.46432 0.20045 0.0
C953 C 0.98445 0.48343 0.20572 0.0
C954 C 0.9921 0.51462 0.23401 0.0
C955 C 0.97878 0.51784 0.24717 0.0
C956 C 0.98534 0.5383 0.25814 0.0
C957 C 0.00521 0.55581 0.25583 0.0
C958 C 0.01762 0.55274 0.24101 0.0
C959 C 0.01125 0.53231 0.23046 0.0
C960 C 0.99919 0.49343 0.26915 0.0
C961 C 0.98412 0.48836 0.28411 0.0
C962 C 0.98984 0.49905 0.30593 0.0
C963 C 0.01074 0.51502 0.31313 0.0
C964 C 0.02582 0.51994 0.29805 0.0
C965 C 0.02008 0.50919 0.27625 0.0
C966 C 0.00169 0.45556 0.2581 0.0
C967 C 0.98973 0.44504 0.27514 0.0
C968 C 0.99794 0.43778 0.29182 0.0
C969 C 0.01815 0.44076 0.29151 0.0
C970 C 0.03008 0.4516 0.27445 0.0
C971 C 0.02198 0.45906 0.25804 0.0
C972 C 0.99037 0.43457 0.21256 0.0
C973 C 0.97467 0.41476 0.21809 0.0
C974 C 0.97556 0.39608 0.21305 0.0
C975 C 0.99223 0.39693 0.20241 0.0
C976 C 0.00802 0.41689 0.19706 0.0
C977 C 0.00714 0.43556 0.20218 0.0
C978 C 0.98317 0.45573 0.17673 0.0
C979 C 0.96598 0.43569 0.16775 0.0
C980 C 0.96665 0.42519 0.14761 0.0
C981 C 0.98459 0.43456 0.13625 0.0
C982 C 0.00125 0.45518 0.14469 0.0
C983 C 0.00055 0.46565 0.16475 0.0
C984 C 0.97953 0.4939 0.18782 0.0
C985 C 0.95897 0.48945 0.18277 0.0
C986 C 0.95463 0.50131 0.16803 0.0
C987 C 0.97087 0.51801 0.1583 0.0
C988 C 0.99137 0.52184 0.1629 0.0
C989 C 0.99561 0.50983 0.17742 0.0
C990 C 0.01672 0.52651 0.33625 0.0
C991 C 0.99322 0.37712 0.19694 0.0
H992 H 0.50036 0.48824 0.38347 0.0
H993 H 0.37698 0.32058 0.1851 0.0
H994 H 0.50106 0.50211 0.26593 0.0
H995 H 0.52884 0.53742 0.28297 0.0
H996 H 0.57501 0.52227 0.26195 0.0
H997 H 0.54681 0.48612 0.24618 0.0
H998 H 0.47075 0.46962 0.28736 0.0
H999 H 0.47845 0.47874 0.32819 0.0
H1000 H 0.52862 0.46475 0.32738 0.0
H1001 H 0.52054 0.45538 0.28655 0.0
H1002 H 0.43648 0.43855 0.25145 0.0
H1003 H 0.41049 0.42305 0.27755 0.0
H1004 H 0.44348 0.3934 0.30626 0.0
H1005 H 0.47004 0.40994 0.28043 0.0
H1006 H 0.43406 0.42796 0.20174 0.0
H1007 H 0.40198 0.39509 0.18541 0.0
H1008 H 0.42587 0.35683 0.21331 0.0
H1009 H 0.45798 0.38985 0.22932 0.0
H1010 H 0.46974 0.46429 0.18324 0.0
H1011 H 0.45766 0.45348 0.14299 0.0
H1012 H 0.4706 0.40155 0.14526 0.0
H1013 H 0.48267 0.41249 0.18564 0.0
H1014 H 0.50821 0.50401 0.21447 0.0
H1015 H 0.53216 0.5283 0.19016 0.0
H1016 H 0.54771 0.48007 0.16884 0.0
H1017 H 0.52465 0.45643 0.19443 0.0
O1018 O 0.49751 0.48445 0.36734 0.0
O1019 O 0.52318 0.47714 0.36599 0.0
O1020 O 0.378 0.35424 0.17729 0.0
O1021 O 0.38952 0.33384 0.19134 0.0
C1022 C 0.50443 0.46981 0.24509 0.0
C1023 C 0.49031 0.456 0.25921 0.0
C1024 C 0.47178 0.43708 0.24973 0.0
C1025 C 0.46794 0.4312 0.22626 0.0
C1026 C 0.48233 0.44457 0.21211 0.0
C1027 C 0.5005 0.46398 0.22149 0.0
C1028 C 0.52187 0.49143 0.25499 0.0
C1029 C 0.51718 0.50627 0.26528 0.0
C1030 C 0.53313 0.52661 0.27476 0.0
C1031 C 0.55425 0.53286 0.27371 0.0
C1032 C 0.55895 0.51794 0.26332 0.0
C1033 C 0.54288 0.49736 0.25411 0.0
C1034 C 0.49491 0.46157 0.28404 0.0
C1035 C 0.48324 0.46831 0.29606 0.0
C1036 C 0.48775 0.47362 0.31937 0.0
C1037 C 0.50412 0.47242 0.33107 0.0
C1038 C 0.51587 0.4658 0.31891 0.0
C1039 C 0.51131 0.46044 0.2956 0.0
C1040 C 0.45503 0.42527 0.26403 0.0
C1041 C 0.43789 0.42843 0.26316 0.0
C1042 C 0.423 0.41946 0.27807 0.0
C1043 C 0.4248 0.40687 0.29403 0.0
C1044 C 0.44175 0.40323 0.2944 0.0
C1045 C 0.45682 0.41246 0.27956 0.0
C1046 C 0.44839 0.41125 0.21651 0.0
C1047 C 0.43238 0.41246 0.20416 0.0
C1048 C 0.41405 0.39366 0.19493 0.0
C1049 C 0.41138 0.37331 0.19801 0.0
C1050 C 0.42743 0.37222 0.21057 0.0
C1051 C 0.44577 0.39104 0.21975 0.0
C1052 C 0.47712 0.43921 0.18731 0.0
C1053 C 0.47024 0.45078 0.17497 0.0
C1054 C 0.4632 0.44448 0.15207 0.0
C1055 C 0.46308 0.42659 0.14106 0.0
C1056 C 0.47064 0.41546 0.1533 0.0
C1057 C 0.4775 0.42165 0.17631 0.0
C1058 C 0.51489 0.47857 0.20642 0.0
C1059 C 0.51698 0.49881 0.20475 0.0
C1060 C 0.53047 0.51254 0.19056 0.0
C1061 C 0.54181 0.50612 0.17739 0.0
C1062 C 0.53946 0.48567 0.17894 0.0
C1063 C 0.52618 0.47207 0.19342 0.0
C1064 C 0.5089 0.47812 0.35583 0.0
C1065 C 0.39194 0.35329 0.18823 0.0
H1066 H 0.51177 0.00266 0.39632 0.0
H1067 H 0.35298 0.98312 0.20594 0.0
H1068 H 0.5334 0.03424 0.28013 0.0
H1069 H 0.56112 0.03053 0.29989 0.0
H1070 H 0.53029 0.96385 0.27129 0.0
H1071 H 0.50225 0.96755 0.25249 0.0
H1072 H 0.49699 0.02926 0.31025 0.0
H1073 H 0.50484 0.02422 0.34891 0.0
H1074 H 0.48652 0.95828 0.32672 0.0
H1075 H 0.47849 0.96349 0.28821 0.0
H1076 H 0.45842 0.03196 0.28622 0.0
H1077 H 0.43327 0.02752 0.31277 0.0
H1078 H 0.41295 0.95977 0.31 0.0
H1079 H 0.43822 0.96444 0.28354 0.0
H1080 H 0.4556 0.03861 0.2399 0.0
H1081 H 0.42322 0.03813 0.22779 0.0
H1082 H 0.38955 0.96847 0.22089 0.0
H1083 H 0.42209 0.96923 0.23289 0.0
H1084 H 0.48235 0.04293 0.21043 0.0
H1085 H 0.47126 0.04599 0.17214 0.0
H1086 H 0.44429 0.9774 0.15515 0.0
H1087 H 0.45511 0.97452 0.19367 0.0
H1088 H 0.51917 0.04172 0.21692 0.0
H1089 H 0.53942 0.04454 0.18557 0.0
H1090 H 0.51915 0.9768 0.18415 0.0
H1091 H 0.49761 0.97392 0.21406 0.0
O1092 O 0.50843 0.00426 0.38096 0.0
O1093 O 0.49903 0.97054 0.36864 0.0
O1094 O 0.38405 0.0196 0.21455 0.0
O1095 O 0.36601 0.98378 0.21078 0.0
C1096 C 0.49698 0.00221 0.25717 0.0
C1097 C 0.48297 5e-05 0.273 0.0
C1098 C 0.46495 0.00115 0.26656 0.0
C1099 C 0.46077 0.00425 0.24428 0.0
C1100 C 0.4747 0.00643 0.22844 0.0
C1101 C 0.49286 0.00548 0.23487 0.0
C1102 C 0.51598 0.00127 0.26456 0.0
C1103 C 0.53299 0.01903 0.27763 0.0
C1104 C 0.54881 0.01684 0.28894 0.0
C1105 C 0.54788 0.99683 0.28736 0.0
C1106 C 0.53137 0.97941 0.27317 0.0
C1107 C 0.5155 0.98159 0.26203 0.0
C1108 C 0.48728 0.99678 0.29648 0.0
C1109 C 0.49461 0.01373 0.31383 0.0
C1110 C 0.49912 0.01081 0.33586 0.0
C1111 C 0.49636 0.99086 0.3409 0.0
C1112 C 0.48886 0.97386 0.32342 0.0
C1113 C 0.4843 0.97679 0.30142 0.0
C1114 C 0.45009 0.99852 0.28302 0.0
C1115 C 0.44852 0.01619 0.29139 0.0
C1116 C 0.43412 0.0136 0.30645 0.0
C1117 C 0.42113 0.99329 0.31344 0.0
C1118 C 0.42292 0.97566 0.30513 0.0
C1119 C 0.43726 0.97826 0.29 0.0
C1120 C 0.44113 0.00396 0.23716 0.0
C1121 C 0.44121 0.02328 0.23569 0.0
C1122 C 0.4227 0.02295 0.22882 0.0
C1123 C 0.40378 0.00324 0.22334 0.0
C1124 C 0.40382 0.98391 0.22495 0.0
C1125 C 0.42235 0.98428 0.23181 0.0
C1126 C 0.4695 0.00852 0.20476 0.0
C1127 C 0.47417 0.02863 0.19835 0.0
C1128 C 0.4679 0.03033 0.17646 0.0
C1129 C 0.4568 0.01191 0.1606 0.0
C1130 C 0.45254 0.99184 0.16704 0.0
C1131 C 0.45884 0.99017 0.18894 0.0
C1132 C 0.50721 0.00769 0.21797 0.0
C1133 C 0.51927 0.02756 0.20985 0.0
C1134 C 0.5309 0.02914 0.19199 0.0
C1135 C 0.53093 0.01088 0.18217 0.0
C1136 C 0.51922 0.99112 0.19089 0.0
C1137 C 0.50724 0.9895 0.20839 0.0
C1138 C 0.50132 0.98786 0.36429 0.0
C1139 C 0.38407 0.00279 0.21598 0.0
H1140 H 0.49622 0.01105 0.68019 0.0
H1141 H 0.63656 0.98585 0.86461 0.0
H1142 H 0.49796 0.02311 0.80944 0.0
H1143 H 0.46968 0.02359 0.78684 0.0
H1144 H 0.43582 0.95397 0.77606 0.0
H1145 H 0.46468 0.9538 0.79814 0.0
H1146 H 0.52856 0.02551 0.77525 0.0
H1147 H 0.51851 0.02602 0.73568 0.0
H1148 H 0.48208 0.95638 0.72719 0.0
H1149 H 0.49242 0.95616 0.76677 0.0
H1150 H 0.56847 0.03116 0.79661 0.0
H1151 H 0.59359 0.03717 0.76959 0.0
H1152 H 0.56293 0.96849 0.75034 0.0
H1153 H 0.53795 0.96264 0.77771 0.0
H1154 H 0.57862 0.03078 0.84264 0.0
H1155 H 0.61235 0.03461 0.85586 0.0
H1156 H 0.58471 0.96546 0.84402 0.0
H1157 H 0.55107 0.96191 0.83094 0.0
H1158 H 0.55154 0.02835 0.87268 0.0
H1159 H 0.56623 0.03165 0.91142 0.0
H1160 H 0.53543 0.96226 0.9078 0.0
H1161 H 0.52035 0.95919 0.86912 0.0
H1162 H 0.51242 0.01993 0.86888 0.0
H1163 H 0.49039 0.01532 0.89878 0.0
H1164 H 0.44849 0.94901 0.87075 0.0
H1165 H 0.47167 0.95347 0.84195 0.0
O1166 O 0.50017 0.01048 0.69574 0.0
O1167 O 0.4815 0.97469 0.69232 0.0
O1168 O 0.63682 0.02024 0.86546 0.0
O1169 O 0.62343 0.98481 0.85942 0.0
C1170 C 0.50275 0.98876 0.81362 0.0
C1171 C 0.51677 0.99064 0.79792 0.0
C1172 C 0.53636 0.99318 0.80528 0.0
C1173 C 0.542 0.99376 0.82828 0.0
C1174 C 0.5281 0.99193 0.84403 0.0
C1175 C 0.50835 0.98926 0.83673 0.0
C1176 C 0.48328 0.98843 0.80557 0.0
C1177 C 0.4841 0.00795 0.80284 0.0
C1178 C 0.4679 0.00817 0.78985 0.0
C1179 C 0.45051 0.98881 0.77939 0.0
C1180 C 0.44912 0.96918 0.78354 0.0
C1181 C 0.46542 0.96901 0.79644 0.0
C1182 C 0.51122 0.99081 0.77376 0.0
C1183 C 0.51852 0.01041 0.76474 0.0
C1184 C 0.51271 0.01063 0.74217 0.0
C1185 C 0.49946 0.99123 0.72827 0.0
C1186 C 0.49229 0.9716 0.73742 0.0
C1187 C 0.49817 0.97142 0.75999 0.0
C1188 C 0.5515 0.9965 0.78902 0.0
C1189 C 0.56725 0.01744 0.78657 0.0
C1190 C 0.58147 0.02083 0.77108 0.0
C1191 C 0.58015 0.00329 0.75781 0.0
C1192 C 0.5644 0.98227 0.76048 0.0
C1193 C 0.55011 0.97891 0.77595 0.0
C1194 C 0.56249 0.99608 0.8359 0.0
C1195 C 0.57993 0.01651 0.84292 0.0
C1196 C 0.59915 0.01864 0.85046 0.0
C1197 C 0.60122 0.00033 0.85102 0.0
C1198 C 0.58366 0.97988 0.84382 0.0
C1199 C 0.56444 0.97779 0.83633 0.0
C1200 C 0.53482 0.99355 0.86824 0.0
C1201 C 0.54769 0.01388 0.88043 0.0
C1202 C 0.55622 0.01572 0.90245 0.0
C1203 C 0.55216 0.99722 0.91263 0.0
C1204 C 0.5387 0.9768 0.90053 0.0
C1205 C 0.5301 0.975 0.87846 0.0
C1206 C 0.49371 0.98701 0.85335 0.0
C1207 C 0.49853 0.0044 0.8693 0.0
C1208 C 0.48576 0.00175 0.88626 0.0
C1209 C 0.46759 0.98175 0.8873 0.0
C1210 C 0.46254 0.96451 0.87082 0.0
C1211 C 0.47558 0.9671 0.85411 0.0
C1212 C 0.49313 0.99154 0.70436 0.0
C1213 C 0.62159 0.00248 0.85907 0.0
H1214 H 0.96048 0.44899 0.71153 0.0
H1215 H 0.02764 0.65993 0.8638 0.0
H1216 H 0.98081 0.47235 0.85135 0.0
H1217 H 0.97127 0.43585 0.83729 0.0
H1218 H 0.02599 0.46113 0.80161 0.0
H1219 H 0.03633 0.49764 0.81748 0.0
H1220 H 0.97013 0.48577 0.80447 0.0
H1221 H 0.96001 0.46631 0.76657 0.0
H1222 H 0.02284 0.50752 0.75026 0.0
H1223 H 0.03275 0.52672 0.7883 0.0
H1224 H 0.96913 0.53215 0.82007 0.0
H1225 H 0.95511 0.54594 0.79216 0.0
H1226 H 0.01361 0.57367 0.76302 0.0
H1227 H 0.0279 0.56076 0.79218 0.0
H1228 H 0.98089 0.55332 0.86391 0.0
H1229 H 0.98043 0.58682 0.87123 0.0
H1230 H 0.04182 0.62222 0.84911 0.0
H1231 H 0.04217 0.58858 0.84214 0.0
H1232 H 0.98417 0.52569 0.8925 0.0
H1233 H 0.98304 0.54469 0.92708 0.0
H1234 H 0.04796 0.59314 0.92639 0.0
H1235 H 0.04907 0.57356 0.89189 0.0
H1236 H 0.98844 0.49485 0.89035 0.0
H1237 H 0.99291 0.47339 0.91758 0.0
H1238 H 0.05663 0.49802 0.90324 0.0
H1239 H 0.0521 0.51984 0.87613 0.0
O1240 O 0.9648 0.45694 0.7264 0.0
O1241 O 0.99727 0.47865 0.71881 0.0
O1242 O 0.99594 0.62753 0.87246 0.0
O1243 O 0.02742 0.64645 0.86108 0.0
C1244 C 0.0124 0.50957 0.84028 0.0
C1245 C 0.00827 0.51903 0.8222 0.0
C1246 C 0.00794 0.53825 0.82641 0.0
C1247 C 0.0121 0.54834 0.84859 0.0
C1248 C 0.01584 0.53877 0.86678 0.0
C1249 C 0.01625 0.51948 0.86262 0.0
C1250 C 0.00939 0.48767 0.83567 0.0
C1251 C 0.99125 0.46998 0.84136 0.0
C1252 C 0.98556 0.44911 0.83281 0.0
C1253 C 0.99755 0.44551 0.81781 0.0
C1254 C 0.0164 0.46323 0.81316 0.0
C1255 C 0.02234 0.48413 0.82219 0.0
C1256 C 0.00213 0.50762 0.79904 0.0
C1257 C 0.98164 0.49056 0.79265 0.0
C1258 C 0.97593 0.47948 0.77101 0.0
C1259 C 0.99062 0.48536 0.75538 0.0
C1260 C 0.01114 0.50259 0.76188 0.0
C1261 C 0.01684 0.51362 0.78354 0.0
C1262 C -0.00045 0.54569 0.80824 0.0
C1263 C 0.97887 0.54117 0.8076 0.0
C1264 C 0.9708 0.5488 0.79137 0.0
C1265 C 0.98317 0.56087 0.77516 0.0
C1266 C 0.00373 0.56467 0.77537 0.0
C1267 C 0.0119 0.55724 0.79191 0.0
C1268 C 0.01168 0.56862 0.85277 0.0
C1269 C 0.99428 0.56836 0.86083 0.0
C1270 C 0.99403 0.5875 0.86491 0.0
C1271 C 0.01113 0.60722 0.86082 0.0
C1272 C 0.02843 0.60733 0.8525 0.0
C1273 C 0.02868 0.58817 0.84849 0.0
C1274 C 0.01685 0.54793 0.89 0.0
C1275 C 0.99839 0.53991 0.9003 0.0
C1276 C 0.99765 0.55105 0.91979 0.0
C1277 C 0.01534 0.57055 0.92929 0.0
C1278 C 0.03412 0.57809 0.91952 0.0
C1279 C 0.03483 0.56688 0.89993 0.0
C1280 C 0.02002 0.50912 0.88147 0.0
C1281 C 0.00358 0.49621 0.89361 0.0
C1282 C 0.00609 0.48377 0.90897 0.0
C1283 C 0.02509 0.48397 0.91242 0.0
C1284 C 0.0419 0.49772 0.90105 0.0
C1285 C 0.03932 0.51012 0.88556 0.0
C1286 C 0.98452 0.47351 0.73242 0.0
C1287 C 0.01096 0.62762 0.86516 0.0
H1288 H 0.48236 0.50676 0.68537 0.0
H1289 H 0.65462 0.66488 0.86531 0.0
H1290 H 0.47031 0.51891 0.79931 0.0
H1291 H 0.44341 0.48218 0.78405 0.0
H1292 H 0.47484 0.45735 0.82503 0.0
H1293 H 0.5024 0.49393 0.8385 0.0
H1294 H 0.50676 0.55651 0.77423 0.0
H1295 H 0.49561 0.54044 0.73496 0.0
H1296 H 0.50623 0.48892 0.75106 0.0
H1297 H 0.51758 0.5053 0.7902 0.0
H1298 H 0.55189 0.59839 0.79495 0.0
H1299 H 0.57932 0.61323 0.76969 0.0
H1300 H 0.58589 0.55714 0.77164 0.0
H1301 H 0.55898 0.54277 0.79709 0.0
H1302 H 0.55015 0.60995 0.85045 0.0
H1303 H 0.58306 0.64402 0.86096 0.0
H1304 H 0.61751 0.61148 0.84814 0.0
H1305 H 0.58451 0.57751 0.83792 0.0
H1306 H 0.5199 0.57977 0.88493 0.0
H1307 H 0.53564 0.59486 0.92391 0.0
H1308 H 0.5801 0.57359 0.91582 0.0
H1309 H 0.56466 0.55917 0.87701 0.0
H1310 H 0.47472 0.53149 0.85754 0.0
H1311 H 0.45323 0.50736 0.88394 0.0
H1312 H 0.5044 0.49817 0.90642 0.0
H1313 H 0.52545 0.52169 0.87963 0.0
O1314 O 0.48696 0.51292 0.70095 0.0
O1315 O 0.49266 0.48679 0.7101 0.0
O1316 O 0.62293 0.66763 0.86748 0.0
O1317 O 0.64138 0.65165 0.8612 0.0
C1318 C 0.50681 0.53123 0.82596 0.0
C1319 C 0.51926 0.54174 0.80894 0.0
C1320 C 0.5385 0.56116 0.81465 0.0
C1321 C 0.54489 0.57071 0.8372 0.0
C1322 C 0.53265 0.56019 0.85428 0.0
C1323 C 0.51361 0.54045 0.84871 0.0
C1324 C 0.48833 0.50916 0.82009 0.0
C1325 C 0.47119 0.50548 0.80514 0.0
C1326 C 0.45579 0.48444 0.79651 0.0
C1327 C 0.45708 0.46671 0.80299 0.0
C1328 C 0.47359 0.47055 0.81911 0.0
C1329 C 0.48918 0.49151 0.82728 0.0
C1330 C 0.51276 0.53196 0.78508 0.0
C1331 C 0.5067 0.54178 0.76921 0.0
C1332 C 0.50031 0.53255 0.74681 0.0
C1333 C 0.49994 0.51334 0.73989 0.0
C1334 C 0.50625 0.50367 0.75584 0.0
C1335 C 0.51268 0.51295 0.77821 0.0
C1336 C 0.55346 0.56952 0.79773 0.0
C1337 C 0.55915 0.58929 0.78968 0.0
C1338 C 0.57472 0.59766 0.77526 0.0
C1339 C 0.58481 0.58638 0.76886 0.0
C1340 C 0.57859 0.56632 0.77654 0.0
C1341 C 0.5631 0.558 0.79086 0.0
C1342 C 0.56497 0.59135 0.84321 0.0
C1343 C 0.56483 0.61025 0.84988 0.0
C1344 C 0.58364 0.62967 0.85588 0.0
C1345 C 0.60293 0.63049 0.85533 0.0
C1346 C 0.60296 0.61145 0.84869 0.0
C1347 C 0.58414 0.59204 0.84274 0.0
C1348 C 0.54127 0.56856 0.87817 0.0
C1349 C 0.53302 0.5784 0.89169 0.0
C1350 C 0.54198 0.58692 0.91393 0.0
C1351 C 0.55928 0.58563 0.92293 0.0
C1352 C 0.56714 0.57533 0.90932 0.0
C1353 C 0.55826 0.56695 0.88718 0.0
C1354 C 0.50166 0.52842 0.86676 0.0
C1355 C 0.48136 0.52456 0.86848 0.0
C1356 C 0.46918 0.51089 0.88363 0.0
C1357 C 0.47714 0.50084 0.89715 0.0
C1358 C 0.49782 0.50556 0.89607 0.0
C1359 C 0.50994 0.51917 0.88096 0.0
C1360 C 0.49299 0.50349 0.71612 0.0
C1361 C 0.62296 0.65107 0.86171 0.0
H1362 H 0.62144 0.83195 0.70258 0.0
H1363 H 0.66699 0.69261 0.54519 0.0
H1364 H 0.60779 0.82661 0.58582 0.0
H1365 H 0.61703 0.86343 0.59949 0.0
H1366 H 0.6742 0.88815 0.56816 0.0
H1367 H 0.6656 0.85155 0.55611 0.0
H1368 H 0.60603 0.78599 0.61294 0.0
H1369 H 0.60687 0.80011 0.65148 0.0
H1370 H 0.66711 0.85605 0.64631 0.0
H1371 H 0.6662 0.84162 0.60793 0.0
H1372 H 0.61592 0.74497 0.59322 0.0
H1373 H 0.62919 0.72972 0.62034 0.0
H1374 H 0.68388 0.79283 0.63977 0.0
H1375 H 0.67184 0.80703 0.61058 0.0
H1376 H 0.60654 0.73657 0.53949 0.0
H1377 H 0.61072 0.70521 0.5325 0.0
H1378 H 0.67573 0.7438 0.56032 0.0
H1379 H 0.67139 0.77507 0.56695 0.0
H1380 H 0.60105 0.76627 0.50547 0.0
H1381 H 0.60213 0.7514 0.46788 0.0
H1382 H 0.6681 0.77496 0.48442 0.0
H1383 H 0.66677 0.78947 0.52185 0.0
H1384 H 0.59849 0.81011 0.52959 0.0
H1385 H 0.59702 0.83256 0.50141 0.0
H1386 H 0.65901 0.84882 0.48664 0.0
H1387 H 0.66046 0.82661 0.51498 0.0
O1388 O 0.62146 0.82664 0.68734 0.0
O1389 O 0.65236 0.85513 0.68378 0.0
O1390 O 0.63147 0.68569 0.5333 0.0
O1391 O 0.66492 0.70477 0.54766 0.0
C1392 C 0.63305 0.81443 0.5657 0.0
C1393 C 0.63517 0.8041 0.58411 0.0
C1394 C 0.63708 0.78565 0.58032 0.0
C1395 C 0.63597 0.77701 0.55802 0.0
C1396 C 0.63312 0.78689 0.53959 0.0
C1397 C 0.63154 0.80553 0.54342 0.0
C1398 C 0.63603 0.83637 0.57 0.0
C1399 C 0.62215 0.84004 0.58168 0.0
C1400 C 0.62745 0.86109 0.58943 0.0
C1401 C 0.64658 0.87875 0.58532 0.0
C1402 C 0.65965 0.87494 0.57222 0.0
C1403 C 0.65455 0.854 0.56489 0.0
C1404 C 0.63593 0.81287 0.60755 0.0
C1405 C 0.61939 0.80128 0.62017 0.0
C1406 C 0.61991 0.8094 0.64217 0.0
C1407 C 0.63702 0.82925 0.65195 0.0
C1408 C 0.65366 0.84075 0.63927 0.0
C1409 C 0.65314 0.83259 0.61731 0.0
C1410 C 0.64296 0.77709 0.59967 0.0
C1411 C 0.63075 0.75545 0.60339 0.0
C1412 C 0.63828 0.74684 0.61921 0.0
C1413 C 0.6579 0.7599 0.63214 0.0
C1414 C 0.6691 0.78201 0.62968 0.0
C1415 C 0.66199 0.79034 0.61326 0.0
C1416 C 0.63862 0.75803 0.55384 0.0
C1417 C 0.62167 0.7382 0.54401 0.0
C1418 C 0.6241 0.72033 0.54007 0.0
C1419 C 0.64356 0.72199 0.54591 0.0
C1420 C 0.66053 0.74194 0.55567 0.0
C1421 C 0.65809 0.75982 0.55953 0.0
C1422 C 0.63379 0.77879 0.5164 0.0
C1423 C 0.61571 0.76826 0.50086 0.0
C1424 C 0.61639 0.75984 0.47943 0.0
C1425 C 0.63517 0.76182 0.47322 0.0
C1426 C 0.6533 0.77275 0.48879 0.0
C1427 C 0.65261 0.78116 0.51013 0.0
C1428 C 0.62954 0.81666 0.52427 0.0
C1429 C 0.61157 0.8182 0.51994 0.0
C1430 C 0.61073 0.83094 0.50381 0.0
C1431 C 0.62794 0.8425 0.49192 0.0
C1432 C 0.64558 0.84022 0.49568 0.0
C1433 C 0.64636 0.8274 0.5117 0.0
C1434 C 0.63749 0.83785 0.6753 0.0
C1435 C 0.6462 0.70302 0.54187 0.0
H1436 H 0.15963 0.84424 0.71897 0.0
H1437 H 0.0583 0.65402 0.53673 0.0
H1438 H 0.16931 0.84761 0.58985 0.0
H1439 H 0.19517 0.88401 0.60597 0.0
H1440 H 0.23829 0.86223 0.62451 0.0
H1441 H 0.21277 0.82622 0.60602 0.0
H1442 H 0.13744 0.81499 0.62255 0.0
H1443 H 0.14207 0.82868 0.66223 0.0
H1444 H 0.19204 0.81508 0.67505 0.0
H1445 H 0.1871 0.80128 0.63536 0.0
H1446 H 0.10193 0.76979 0.5904 0.0
H1447 H 0.07602 0.75229 0.61617 0.0
H1448 H 0.12068 0.7437 0.65754 0.0
H1449 H 0.14605 0.75987 0.63058 0.0
H1450 H 0.10326 0.76101 0.54341 0.0
H1451 H 0.0741 0.72519 0.52881 0.0
H1452 H 0.10469 0.69637 0.5643 0.0
H1453 H 0.13388 0.73231 0.57855 0.0
H1454 H 0.13765 0.80154 0.52576 0.0
H1455 H 0.12602 0.78959 0.48565 0.0
H1456 H 0.14237 0.74023 0.49029 0.0
H1457 H 0.15427 0.75254 0.53055 0.0
H1458 H 0.17315 0.84163 0.55038 0.0
H1459 H 0.1966 0.86434 0.52487 0.0
H1460 H 0.21858 0.81941 0.51434 0.0
H1461 H 0.19643 0.79795 0.54178 0.0
O1462 O 0.15805 0.83875 0.70337 0.0
O1463 O 0.18368 0.83152 0.70905 0.0
O1464 O 0.05459 0.684 0.52428 0.0
O1465 O 0.06965 0.66839 0.54224 0.0
C1466 C 0.17282 0.81211 0.58741 0.0
C1467 C 0.15907 0.79888 0.6021 0.0
C1468 C 0.14189 0.77839 0.59367 0.0
C1469 C 0.13863 0.77097 0.57054 0.0
C1470 C 0.15215 0.78436 0.55572 0.0
C1471 C 0.16938 0.80483 0.5642 0.0
C1472 C 0.18936 0.83444 0.59625 0.0
C1473 C 0.18458 0.85089 0.59687 0.0
C1474 C 0.19932 0.87166 0.60662 0.0
C1475 C 0.21897 0.87633 0.61698 0.0
C1476 C 0.2236 0.85959 0.61643 0.0
C1477 C 0.209 0.8389 0.60595 0.0
C1478 C 0.16194 0.80718 0.62616 0.0
C1479 C 0.14935 0.81497 0.63399 0.0
C1480 C 0.15204 0.82279 0.65664 0.0
C1481 C 0.16744 0.82299 0.67182 0.0
C1482 C 0.18005 0.81517 0.66382 0.0
C1483 C 0.1773 0.80732 0.64118 0.0
C1484 C 0.12584 0.76603 0.60856 0.0
C1485 C 0.10595 0.76366 0.60474 0.0
C1486 C 0.09128 0.75397 0.61972 0.0
C1487 C 0.09636 0.7469 0.63918 0.0
C1488 C 0.11617 0.74881 0.64268 0.0
C1489 C 0.13075 0.75818 0.62739 0.0
C1490 C 0.12078 0.74924 0.56184 0.0
C1491 C 0.1037 0.74694 0.54786 0.0
C1492 C 0.08703 0.72646 0.53963 0.0
C1493 C 0.08709 0.7079 0.54535 0.0
C1494 C 0.10416 0.71031 0.55953 0.0
C1495 C 0.12085 0.7308 0.56771 0.0
C1496 C 0.14685 0.77795 0.53103 0.0
C1497 C 0.13899 0.78834 0.51805 0.0
C1498 C 0.13217 0.78136 0.49522 0.0
C1499 C 0.13311 0.76385 0.48488 0.0
C1500 C 0.14155 0.75383 0.49778 0.0
C1501 C 0.1483 0.76078 0.52073 0.0
C1502 C 0.18364 0.81858 0.54856 0.0
C1503 C 0.18352 0.83708 0.54312 0.0
C1504 C 0.19659 0.84975 0.52801 0.0
C1505 C 0.20954 0.84375 0.51737 0.0
C1506 C 0.2092 0.82483 0.5225 0.0
C1507 C 0.19647 0.81246 0.53808 0.0
C1508 C 0.17027 0.83132 0.69587 0.0
C1509 C 0.06943 0.68609 0.53662 0.0
H1510 H 0.21894 0.38153 0.73261 0.0
H1511 H 0.03446 0.33905 0.55975 0.0
H1512 H 0.22081 0.39444 0.61519 0.0
H1513 H 0.24838 0.38968 0.63387 0.0
H1514 H 0.21349 0.32206 0.60866 0.0
H1515 H 0.18603 0.32689 0.59049 0.0
H1516 H 0.18709 0.39449 0.64674 0.0
H1517 H 0.20163 0.39515 0.68484 0.0
H1518 H 0.18461 0.32856 0.66974 0.0
H1519 H 0.16988 0.32806 0.63183 0.0
H1520 H 0.13954 0.38801 0.62816 0.0
H1521 H 0.11355 0.37909 0.65492 0.0
H1522 H 0.10448 0.31498 0.653 0.0
H1523 H 0.13031 0.32401 0.6264 0.0
H1524 H 0.13878 0.39577 0.57842 0.0
H1525 H 0.1055 0.39448 0.56947 0.0
H1526 H 0.07235 0.32564 0.5723 0.0
H1527 H 0.10578 0.32718 0.58107 0.0
H1528 H 0.16157 0.39632 0.54493 0.0
H1529 H 0.14876 0.39372 0.50543 0.0
H1530 H 0.12224 0.32467 0.49947 0.0
H1531 H 0.13472 0.32746 0.53905 0.0
H1532 H 0.20016 0.39708 0.55057 0.0
H1533 H 0.21433 0.39555 0.51531 0.0
H1534 H 0.19254 0.32798 0.51886 0.0
H1535 H 0.17692 0.3294 0.55279 0.0
O1536 O 0.21264 0.38076 0.71765 0.0
O1537 O 0.20382 0.34661 0.70892 0.0
O1538 O 0.06563 0.37542 0.56188 0.0
O1539 O 0.04783 0.34002 0.56321 0.0
C1540 C 0.18257 0.36248 0.59556 0.0
C1541 C 0.1703 0.3616 0.61297 0.0
C1542 C 0.15125 0.36115 0.60801 0.0
C1543 C 0.14483 0.36249 0.58578 0.0
C1544 C 0.15708 0.3635 0.56845 0.0
C1545 C 0.17594 0.36344 0.57328 0.0
C1546 C 0.20161 0.36111 0.60105 0.0
C1547 C 0.21957 0.37881 0.61298 0.0
C1548 C 0.23514 0.376 0.62385 0.0
C1549 C 0.23304 0.35546 0.62282 0.0
C1550 C 0.21574 0.33813 0.60949 0.0
C1551 C 0.20011 0.34091 0.59885 0.0
C1552 C 0.17757 0.36129 0.63654 0.0
C1553 C 0.18634 0.38002 0.6518 0.0
C1554 C 0.19471 0.38036 0.6735 0.0
C1555 C 0.19441 0.36194 0.68029 0.0
C1556 C 0.18518 0.34305 0.66503 0.0
C1557 C 0.17676 0.34272 0.64338 0.0
C1558 C 0.13686 0.35669 0.62549 0.0
C1559 C 0.13203 0.37213 0.63373 0.0
C1560 C 0.11716 0.36698 0.64889 0.0
C1561 C 0.10702 0.34635 0.65611 0.0
C1562 C 0.11226 0.33111 0.64808 0.0
C1563 C 0.12699 0.33623 0.63287 0.0
C1564 C 0.12462 0.36157 0.58035 0.0
C1565 C 0.1243 0.38043 0.57702 0.0
C1566 C 0.10528 0.37964 0.57195 0.0
C1567 C 0.08625 0.35994 0.57017 0.0
C1568 C 0.0867 0.34106 0.57354 0.0
C1569 C 0.10574 0.34189 0.57856 0.0
C1570 C 0.14896 0.36206 0.54476 0.0
C1571 C 0.15286 0.38066 0.53507 0.0
C1572 C 0.14568 0.37914 0.5125 0.0
C1573 C 0.13448 0.35898 0.49932 0.0
C1574 C 0.13055 0.34039 0.50923 0.0
C1575 C 0.13773 0.34194 0.53177 0.0
C1576 C 0.18794 0.36346 0.55453 0.0
C1577 C 0.19879 0.38207 0.54383 0.0
C1578 C 0.20687 0.38113 0.52367 0.0
C1579 C 0.20448 0.36159 0.51401 0.0
C1580 C 0.19431 0.34322 0.52541 0.0
C1581 C 0.18584 0.34408 0.54523 0.0
C1582 C 0.20385 0.36254 0.70313 0.0
C1583 C 0.06601 0.35901 0.56484 0.0
H1584 H 0.00746 0.38905 0.05863 0.0
H1585 H 0.94483 0.37027 0.03069 0.0
H1586 H 0.94069 0.38846 0.06399 0.0
H1587 H 0.95534 0.41111 0.10037 0.0
H1588 H 0.01815 0.43049 0.12799 0.0
H1589 H 0.02177 0.41088 0.09547 0.0
C1590 C 0.99282 0.38873 0.05993 0.0
C1591 C 0.97651 0.3783 0.04214 0.0
C1592 C 0.99064 0.39957 0.07897 0.0
C1593 C 0.95771 0.37824 0.04406 0.0
C1594 C 0.9553 0.38867 0.0631 0.0
C1595 C 0.96975 0.41089 0.09932 0.0
C1596 C 0.9865 0.4224 0.11646 0.0
C1597 C 0.97175 0.39962 0.08054 0.0
C1598 C 0.00515 0.4221 0.11481 0.0
C1599 C 0.00719 0.41076 0.09629 0.0
H1600 H 0.61487 0.56884 0.12392 0.0
H1601 H 0.57183 0.59134 0.11012 0.0
H1602 H 0.54575 0.56291 0.12948 0.0
H1603 H 0.53602 0.53307 0.15214 0.0
H1604 H 0.58021 0.51247 0.1689 0.0
H1605 H 0.60475 0.53829 0.14609 0.0
C1606 C 0.59965 0.56728 0.12493 0.0
C1607 C 0.59527 0.58221 0.11584 0.0
C1608 C 0.58497 0.55124 0.13663 0.0
C1609 C 0.57564 0.58024 0.11735 0.0
C1610 C 0.56071 0.56394 0.12835 0.0
C1611 C 0.55107 0.53431 0.15098 0.0
C1612 C 0.55626 0.52091 0.16241 0.0
C1613 C 0.56539 0.54966 0.13847 0.0
C1614 C 0.57565 0.52238 0.16014 0.0
C1615 C 0.58979 0.53728 0.14723 0.0
H1616 H 0.43763 0.03213 0.06374 0.0
H1617 H 0.37893 0.97372 0.06697 0.0
H1618 H 0.39141 0.97087 0.1045 0.0
H1619 H 0.41888 0.98489 0.1365 0.0
H1620 H 0.47781 0.04283 0.13309 0.0
H1621 H 0.46523 0.04599 0.09566 0.0
C1622 C 0.42751 0.01879 0.07264 0.0
C1623 C 0.40735 0.00318 0.06244 0.0
C1624 C 0.43481 0.01715 0.09424 0.0
C1625 C 0.39454 0.98598 0.0743 0.0
C1626 C 0.40165 0.98431 0.09581 0.0
C1627 C 0.42907 0.99808 0.12747 0.0
C1628 C 0.44928 0.01357 0.13761 0.0
C1629 C 0.42178 -0.00025 0.1059 0.0
C1630 C 0.46211 0.03079 0.12581 0.0
C1631 C 0.45496 0.03257 0.10435 0.0
H1632 H 0.40396 0.95497 0.96043 0.0
H1633 H 0.41814 0.0205 0.9577 0.0
H1634 H 0.44289 0.02574 0.93085 0.0
H1635 H 0.45844 0.01108 0.90597 0.0
H1636 H 0.44583 0.94615 0.90941 0.0
H1637 H 0.42215 0.94122 0.93768 0.0
C1638 C 0.41269 0.97048 0.95419 0.0
C1639 C 0.40911 0.98727 0.96105 0.0
C1640 C 0.42689 0.97341 0.93853 0.0
C1641 C 0.42057 0.00728 0.95281 0.0
C1642 C 0.43467 0.01029 0.9373 0.0
C1643 C 0.45091 0.99596 0.91317 0.0
C1644 C 0.45388 0.97899 0.90532 0.0
C1645 C 0.43766 0.99336 0.92974 0.0
C1646 C 0.44354 0.95938 0.91467 0.0
C1647 C 0.43011 0.95659 0.93103 0.0
H1648 H 0.04226 0.42646 0.97611 0.0
H1649 H 0.98414 0.37754 0.93804 0.0
H1650 H 0.98259 0.4044 0.91721 0.0
H1651 H 0.99749 0.4415 0.90925 0.0
H1652 H 0.0561 0.49103 0.94542 0.0
H1653 H 0.05786 0.46427 0.96727 0.0
C1654 C 0.02928 0.42173 0.96327 0.0
C1655 C 0.01314 0.40001 0.95902 0.0
C1656 C 0.02858 0.43736 0.95092 0.0
C1657 C 0.99654 0.39414 0.94213 0.0
C1658 C 0.99567 0.40949 0.93003 0.0
C1659 C 0.01054 0.44649 0.92211 0.0
C1660 C 0.02647 0.4682 0.92598 0.0
C1661 C 0.01151 0.4311 0.93433 0.0
C1662 C 0.0436 0.47436 0.94222 0.0
C1663 C 0.04458 0.45909 0.95471 0.0
H1664 H 0.61462 0.62457 0.01701 0.0
H1665 H 0.55389 0.60238 0.03956 0.0
H1666 H 0.5374 0.59023 0.00074 0.0
H1667 H 0.54007 0.58442 0.96051 0.0
H1668 H 0.601 0.60779 0.93808 0.0
H1669 H 0.61747 0.62075 0.97675 0.0
C1670 C 0.59778 0.61711 0.01347 0.0
C1671 C 0.58553 0.61427 0.03123 0.0
C1672 C 0.58838 0.61024 0.99111 0.0
C1673 C 0.56373 0.60479 0.02625 0.0
C1674 C 0.55426 0.59778 0.00404 0.0
C1675 C 0.55697 0.59263 0.96403 0.0
C1676 C 0.56922 0.59487 0.94639 0.0
C1677 C 0.56641 0.60026 0.98635 0.0
C1678 C 0.59112 0.6054 0.95134 0.0
C1679 C 0.60059 0.61295 0.97346 0.0
H1680 H 0.99256 0.61657 0.00633 0.0
H1681 H 0.05119 0.62729 0.0387 0.0
H1682 H 0.05636 0.61066 0.00488 0.0
H1683 H 0.04302 0.59063 0.96708 0.0
H1684 H 0.9841 0.57924 0.93498 0.0
H1685 H 0.98023 0.59841 0.9677 0.0
C1686 C 0.00662 0.61557 0.00587 0.0
C1687 C 0.0214 0.62309 0.02508 0.0
C1688 C 0.00933 0.60557 0.9865 0.0
C1689 C 0.03947 0.62151 0.02422 0.0
C1690 C 0.04244 0.61196 0.00488 0.0
C1691 C 0.02948 0.59258 0.96716 0.0
C1692 C 0.01377 0.5833 0.94876 0.0
C1693 C 0.02728 0.60354 0.98608 0.0
C1694 C 0.99622 0.58586 0.94915 0.0
C1695 C 0.99405 0.59693 0.96779 0.0
H1696 H 0.42019 0.41745 0.94148 0.0
H1697 H 0.39592 0.4567 0.96753 0.0
H1698 H 0.42158 0.48708 0.94966 0.0
H1699 H 0.44979 0.50175 0.92488 0.0
H1700 H 0.4733 0.46164 0.89918 0.0
H1701 H 0.44923 0.4324 0.91906 0.0
C1702 C 0.42065 0.4327 0.94363 0.0
C1703 C 0.40615 0.43477 0.95585 0.0
C1704 C 0.4353 0.44995 0.93331 0.0
C1705 C 0.40693 0.45467 0.95821 0.0
C1706 C 0.42155 0.47202 0.94794 0.0
C1707 C 0.44964 0.48661 0.92375 0.0
C1708 C 0.46333 0.48388 0.91064 0.0
C1709 C 0.43561 0.46973 0.93515 0.0
C1710 C 0.46313 0.46427 0.90942 0.0
C1711 C 0.44927 0.44748 0.92065 0.0
H1712 H 0.60961 0.01812 0.00398 0.0
H1713 H 0.55244 0.96548 0.02193 0.0
H1714 H 0.53475 0.96164 0.9847 0.0
H1715 H 0.53537 0.97348 0.94709 0.0
H1716 H 0.5928 0.02565 0.92916 0.0
H1717 H 0.61038 0.02955 0.96643 0.0
C1718 C 0.59327 0.00578 0.99981 0.0
C1719 C 0.58242 0.99214 0.01583 0.0
C1720 C 0.58317 0.00364 0.97837 0.0
C1721 C 0.56124 0.97623 0.01 0.0
C1722 C 0.55108 0.97402 0.98868 0.0
C1723 C 0.55177 0.98559 0.95129 0.0
C1724 C 0.56268 -0.00066 0.93538 0.0
C1725 C 0.56188 0.98764 0.97274 0.0
C1726 C 0.5839 0.0151 0.9412 0.0
C1727 C 0.59402 0.01726 0.96247 0.0
H1728 H 0.574 0.99889 0.09979 0.0
H1729 H 0.62186 0.06343 0.12635 0.0
H1730 H 0.59986 0.064 0.15475 0.0
H1731 H 0.56871 0.0445 0.1743 0.0
H1732 H 0.52006 0.98052 0.14606 0.0
H1733 H 0.54101 0.98118 0.11635 0.0
C1734 C 0.57952 0.0131 0.11172 0.0
C1735 C 0.59956 0.03093 0.11135 0.0
C1736 C 0.56686 0.01325 0.12791 0.0
C1737 C 0.60641 0.04953 0.1264 0.0
C1738 C 0.59392 0.04977 0.14272 0.0
C1739 C 0.56242 0.03084 0.16143 0.0
C1740 C 0.54297 0.01228 0.16286 0.0
C1741 C 0.57434 0.03148 0.14399 0.0
C1742 C 0.53526 0.99475 0.14596 0.0
C1743 C 0.54713 0.99517 0.12877 0.0
H1744 H 0.95227 0.58649 0.11862 0.0
H1745 H -0.0007 0.5916 0.07719 0.0
H1746 H -0.00029 0.56149 0.09319 0.0
H1747 H 0.98879 0.53582 0.12115 0.0
H1748 H 0.94403 0.53296 0.16518 0.0
H1749 H 0.94014 0.55949 0.14563 0.0
C1750 C 0.96225 0.58063 0.11287 0.0
C1751 C 0.97565 0.59097 0.09676 0.0
C1752 C 0.96284 0.56376 0.12267 0.0
C1753 C 0.98884 0.5837 0.08957 0.0
C1754 C 0.98911 0.56656 0.09876 0.0
C1755 C 0.97819 0.54099 0.12653 0.0
C1756 C 0.96685 0.53241 0.14476 0.0
C1757 C 0.97655 0.55683 0.11572 0.0
C1758 C 0.95281 0.53901 0.15107 0.0
C1759 C 0.9507 0.55438 0.14002 0.0
H1760 H 0.43856 0.39659 0.03656 0.0
H1761 H 0.38438 0.40045 0.05155 0.0
H1762 H 0.39838 0.41117 0.09109 0.0
H1763 H 0.42627 0.42029 0.12143 0.0
H1764 H 0.48022 0.416 0.10706 0.0
H1765 H 0.46599 0.40449 0.06733 0.0
C1766 C 0.42977 0.39971 0.04847 0.0
C1767 C 0.41047 0.39779 0.04095 0.0
C1768 C 0.43788 0.40584 0.07132 0.0
C1769 C 0.39927 0.40177 0.05674 0.0
C1770 C 0.40728 0.40797 0.07941 0.0
C1771 C 0.43495 0.41694 0.10955 0.0
C1772 C 0.45434 0.41918 0.11708 0.0
C1773 C 0.42663 0.41024 0.08685 0.0
C1774 C 0.46523 0.41435 0.10164 0.0
C1775 C 0.45713 0.40784 0.07894 0.0
H1776 H 0.63335 0.73155 0.37135 0.0
H1777 H 0.67267 0.70968 0.40184 0.0
H1778 H 0.66899 0.72222 0.43911 0.0
H1779 H 0.65536 0.74016 0.46305 0.0
H1780 H 0.6168 0.76283 0.43257 0.0
H1781 H 0.61919 0.74888 0.39532 0.0
C1782 C 0.64106 0.7294 0.38611 0.0
C1783 C 0.65334 0.71972 0.38368 0.0
C1784 C 0.639 0.73678 0.40754 0.0
C1785 C 0.66317 0.71711 0.40311 0.0
C1786 C 0.66109 0.7243 0.42447 0.0
C1787 C 0.64758 0.74218 0.44825 0.0
C1788 C 0.636 0.75264 0.45062 0.0
C1789 C 0.64921 0.73432 0.42687 0.0
C1790 C 0.62567 0.75469 0.43128 0.0
C1791 C 0.62713 0.74683 0.40995 0.0
H1792 H 0.28141 0.90376 0.46108 0.0
H1793 H 0.23637 0.92254 0.44215 0.0
H1794 H 0.21068 0.89478 0.46264 0.0
H1795 H 0.20199 0.86691 0.48778 0.0
H1796 H 0.24886 0.85155 0.51077 0.0
H1797 H 0.2726 0.87568 0.48628 0.0
C1798 C 0.26583 0.90148 0.4612 0.0
C1799 C 0.26067 0.91504 0.45022 0.0
C1800 C 0.25152 0.88612 0.47374 0.0
C1801 C 0.24064 0.91231 0.45068 0.0
C1802 C 0.226 0.89646 0.46236 0.0
C1803 C 0.21747 0.86896 0.4877 0.0
C1804 C 0.22356 0.85744 0.50134 0.0
C1805 C 0.23145 0.88363 0.47438 0.0
C1806 C 0.24351 0.8599 0.50032 0.0
C1807 C 0.25723 0.87389 0.48645 0.0
H1808 H 0.11626 0.36401 0.39623 0.0
H1809 H 0.05743 0.30784 0.40487 0.0
H1810 H 0.06961 0.31057 0.44439 0.0
H1811 H 0.0967 0.32917 0.47666 0.0
H1812 H 0.1556 0.38503 0.46791 0.0
H1813 H 0.14347 0.38229 0.42831 0.0
C1814 C 0.10607 0.3523 0.40669 0.0
C1815 C 0.08593 0.33574 0.39748 0.0
C1816 C 0.11312 0.35398 0.42944 0.0
C1817 C 0.07301 0.32076 0.41141 0.0
C1818 C 0.07994 0.32231 0.43406 0.0
C1819 C 0.10696 0.34063 0.46604 0.0
C1820 C 0.12702 0.3573 0.47526 0.0
C1821 C 0.09995 0.33887 0.44326 0.0
C1822 C 0.13999 0.37222 0.46133 0.0
C1823 C 0.13311 0.37058 0.43865 0.0
H1824 H 0.05476 0.27149 0.2804 0.0
H1825 H 0.10428 0.33409 0.31043 0.0
H1826 H 0.12607 0.33504 0.28133 0.0
H1827 H 0.12947 0.3199 0.24523 0.0
H1828 H 0.07928 0.25828 0.21368 0.0
H1829 H 0.05938 0.25492 0.24558 0.0
C1830 C 0.07053 0.28505 0.28084 0.0
C1831 C 0.07791 0.30277 0.29735 0.0
C1832 C 0.08268 0.28579 0.2636 0.0
C1833 C 0.09823 0.3204 0.29769 0.0
C1834 C 0.11065 0.32097 0.28104 0.0
C1835 C 0.11415 0.30575 0.24533 0.0
C1836 C 0.10567 0.28954 0.22699 0.0
C1837 C 0.10273 0.30412 0.26349 0.0
C1838 C 0.08609 0.271 0.2276 0.0
C1839 C 0.0747 0.26911 0.2458 0.0
H1840 H 0.67219 0.74937 0.31087 0.0
H1841 H 0.73223 0.7568 0.301 0.0
H1842 H 0.74086 0.78823 0.28102 0.0
H1843 H 0.72965 0.81105 0.26316 0.0
H1844 H 0.67049 0.80511 0.2757 0.0
H1845 H 0.66306 0.77539 0.29754 0.0
C1846 C 0.68718 0.75797 0.30443 0.0
C1847 C 0.70142 0.75066 0.30695 0.0
C1848 C 0.69206 0.77606 0.29321 0.0
C1849 C 0.72105 0.76221 0.29915 0.0
C1850 C 0.72591 0.78007 0.28764 0.0
C1851 C 0.71534 0.80367 0.27107 0.0
C1852 C 0.70045 0.81009 0.26718 0.0
C1853 C 0.71132 0.78683 0.28412 0.0
C1854 C 0.68196 0.80011 0.27762 0.0
C1855 C 0.67774 0.78318 0.29033 0.0
H1856 H 0.2637 0.92775 0.35566 0.0
H1857 H 0.24043 0.97109 0.36752 0.0
H1858 H 0.22589 0.96385 0.32796 0.0
H1859 H 0.22041 0.94564 0.28999 0.0
H1860 H 0.23992 0.89874 0.27959 0.0
H1861 H 0.25566 0.9073 0.31838 0.0
C1862 C 0.25547 0.9356 0.34951 0.0
C1863 C 0.25325 0.95003 0.3643 0.0
C1864 C 0.24662 0.93087 0.32697 0.0
C1865 C 0.24227 0.95989 0.35634 0.0
C1866 C 0.23401 0.95579 0.33376 0.0
C1867 C 0.22777 0.93698 0.29617 0.0
C1868 C 0.2292 0.92182 0.28145 0.0
C1869 C 0.23609 0.94128 0.3189 0.0
C1870 C 0.2391 0.91104 0.29005 0.0
C1871 C 0.24796 0.91573 0.31242 0.0
H1872 H 0.71143 0.95366 0.37101 0.0
H1873 H 0.65538 0.94956 0.33939 0.0
H1874 H 0.65988 0.93465 0.30389 0.0
H1875 H 0.67933 0.92217 0.28195 0.0
H1876 H 0.73526 0.92619 0.3135 0.0
H1877 H 0.73126 0.94192 0.3489 0.0
C1878 C 0.70019 0.94958 0.35637 0.0
C1879 C 0.68303 0.95269 0.35798 0.0
C1880 C 0.70283 0.94097 0.33599 0.0
C1881 C 0.66873 0.94737 0.33872 0.0
C1882 C 0.67126 0.93878 0.31839 0.0
C1883 C 0.69055 0.92634 0.29664 0.0
C1884 C 0.70748 0.92287 0.29518 0.0
C1885 C 0.68815 0.93536 0.31688 0.0
C1886 C 0.72215 0.92878 0.31419 0.0
C1887 C 0.71983 0.9377 0.33443 0.0
H1888 H 0.07137 0.78953 0.30061 0.0
H1889 H 0.09475 0.74719 0.2825 0.0
H1890 H 0.11988 0.77381 0.26126 0.0
H1891 H 0.13322 0.80745 0.24505 0.0
H1892 H 0.1106 0.85057 0.26226 0.0
H1893 H 0.0869 0.8251 0.2862 0.0
C1894 C 0.08218 0.78629 0.29229 0.0
C1895 C 0.08113 0.76635 0.29327 0.0
C1896 C 0.09651 0.80164 0.2796 0.0
C1897 C 0.09519 0.76237 0.28226 0.0
C1898 C 0.10956 0.77757 0.26992 0.0
C1899 C 0.12352 0.81162 0.25442 0.0
C1900 C 0.12377 0.83095 0.25186 0.0
C1901 C 0.11007 0.79703 0.26813 0.0
C1902 C 0.11057 0.83569 0.26371 0.0
C1903 C 0.09709 0.82118 0.2775 0.0
H1904 H 0.25681 0.32032 0.31901 0.0
H1905 H 0.2024 0.31039 0.34991 0.0
H1906 H 0.18293 0.30342 0.31279 0.0
H1907 H 0.18182 0.30127 0.27138 0.0
H1908 H 0.23542 0.30864 0.24059 0.0
H1909 H 0.2548 0.31534 0.27775 0.0
C1910 C 0.24068 0.3166 0.31756 0.0
C1911 C 0.23108 0.31606 0.33708 0.0
C1912 C 0.22947 0.3121 0.29619 0.0
C1913 C 0.21008 0.31088 0.33506 0.0
C1914 C 0.19898 0.30694 0.31387 0.0
C1915 C 0.19768 0.30416 0.27294 0.0
C1916 C 0.20729 0.30451 0.25349 0.0
C1917 C 0.20855 0.30764 0.29432 0.0
C1918 C 0.22777 0.30817 0.25548 0.0
C1919 C 0.23884 0.31211 0.27666 0.0
H1920 H 0.22976 0.33637 0.42368 0.0
H1921 H 0.28203 0.4011 0.43901 0.0
H1922 H 0.26607 0.40713 0.47107 0.0
H1923 H 0.23956 0.39211 0.49741 0.0
H1924 H 0.18634 0.32778 0.4805 0.0
H1925 H 0.20067 0.32332 0.44665 0.0
C1926 C 0.23748 0.35188 0.43387 0.0
C1927 C 0.25712 0.36816 0.42931 0.0
C1928 C 0.2283 0.35511 0.45226 0.0
C1929 C 0.26682 0.38837 0.44224 0.0
C1930 C 0.25781 0.39172 0.46069 0.0
C1931 C 0.23081 0.37727 0.48614 0.0
C1932 C 0.21218 0.36007 0.49203 0.0
C1933 C 0.23889 0.37493 0.4663 0.0
C1934 C 0.20115 0.341 0.47702 0.0
C1935 C 0.20919 0.33849 0.45745 0.0
H1936 H 0.61522 0.90136 0.42653 0.0
H1937 H 0.67649 0.94764 0.46044 0.0
H1938 H 0.67668 0.92017 0.48146 0.0
H1939 H 0.6591 0.8835 0.49161 0.0
H1940 H 0.59725 0.83708 0.45958 0.0
H1941 H 0.59752 0.86409 0.43667 0.0
C1942 C 0.62865 0.90538 0.43841 0.0
C1943 C 0.64594 0.92653 0.44159 0.0
C1944 C 0.62851 0.8895 0.45094 0.0
C1945 C 0.66312 0.93149 0.45726 0.0
C1946 C 0.66321 0.91578 0.46946 0.0
C1947 C 0.6458 0.87919 0.47936 0.0
C1948 C 0.62827 0.85831 0.47713 0.0
C1949 C 0.64598 0.8948 0.46654 0.0
C1950 C 0.61093 0.8531 0.4616 0.0
C1951 C 0.6111 0.86852 0.4485 0.0
H1952 H 0.11101 0.73234 0.38059 0.0
H1953 H 0.05623 0.73616 0.39272 0.0
H1954 H 0.06923 0.74729 0.43251 0.0
H1955 H 0.09638 0.75669 0.46382 0.0
H1956 H 0.15112 0.7529 0.45209 0.0
H1957 H 0.13778 0.74079 0.41225 0.0
C1958 C 0.10187 0.73555 0.39191 0.0
C1959 C 0.08269 0.73349 0.38353 0.0
C1960 C 0.10942 0.74195 0.41488 0.0
C1961 C 0.07104 0.73762 0.39858 0.0
C1962 C 0.07847 0.74403 0.42139 0.0
C1963 C 0.10544 0.75333 0.4525 0.0
C1964 C 0.12479 0.75585 0.46084 0.0
C1965 C 0.09769 0.74641 0.42968 0.0
C1966 C 0.13615 0.75099 0.44609 0.0
C1967 C 0.12857 0.74416 0.4233 0.0
H1968 H 0.2952 0.04803 0.71143 0.0
H1969 H 0.36175 0.07902 0.73075 0.0
H1970 H 0.3581 0.09461 0.76635 0.0
H1971 H 0.3363 0.10005 0.79142 0.0
H1972 H 0.26912 0.06565 0.77448 0.0
H1973 H 0.27287 0.05145 0.73818 0.0
C1974 C 0.30887 0.05817 0.72349 0.0
C1975 C 0.32872 0.06243 0.71847 0.0
C1976 C 0.30659 0.06669 0.7442 0.0
C1977 C 0.34628 0.07541 0.7343 0.0
C1978 C 0.34422 0.0844 0.7546 0.0
C1979 C 0.32232 0.08908 0.78016 0.0
C1980 C 0.30243 0.08404 0.78601 0.0
C1981 C 0.32446 0.08016 0.75971 0.0
C1982 C 0.28471 0.07029 0.77051 0.0
C1983 C 0.2868 0.06192 0.74975 0.0
H1984 H 0.9221 0.25076 0.79539 0.0
H1985 H 0.94467 0.21212 0.76363 0.0
H1986 H 0.91949 0.18085 0.78078 0.0
H1987 H 0.89205 0.16505 0.80622 0.0
H1988 H 0.87075 0.20472 0.83844 0.0
H1989 H 0.89423 0.23493 0.8193 0.0
C1990 C 0.92138 0.23546 0.7919 0.0
C1991 C 0.93523 0.23379 0.77821 0.0
C1992 C 0.90708 0.21772 0.80193 0.0
C1993 C 0.93416 0.21384 0.77411 0.0
C1994 C 0.9198 0.19597 0.78395 0.0
C1995 C 0.89257 0.18031 0.80902 0.0
C1996 C 0.87958 0.18256 0.82367 0.0
C1997 C 0.90637 0.19782 0.79815 0.0
C1998 C 0.88029 0.2024 0.82697 0.0
C1999 C 0.89384 0.21976 0.81616 0.0
H2000 H 0.79271 0.70821 0.73328 0.0
H2001 H 0.7308 0.65672 0.74153 0.0
H2002 H 0.74188 0.6582 0.78106 0.0
H2003 H 0.76883 0.67436 0.81353 0.0
H2004 H 0.83095 0.7253 0.80544 0.0
H2005 H 0.81996 0.72396 0.76576 0.0
C2006 C 0.78163 0.69727 0.74368 0.0
C2007 C 0.76093 0.68239 0.7343 0.0
C2008 C 0.78808 0.69818 0.76653 0.0
C2009 C 0.74684 0.66835 0.74816 0.0
C2010 C 0.75314 0.66918 0.77084 0.0
C2011 C 0.78006 0.68502 0.80306 0.0
C2012 C 0.8007 0.69992 0.81252 0.0
C2013 C 0.7737 0.68404 0.78021 0.0
C2014 C 0.81489 0.71387 0.79872 0.0
C2015 C 0.80866 0.71302 0.77597 0.0
H2016 H 0.75424 0.67598 0.6147 0.0
H2017 H 0.74754 0.61946 0.64219 0.0
H2018 H 0.76585 0.61387 0.61215 0.0
H2019 H 0.78299 0.62489 0.57758 0.0
H2020 H 0.7855 0.67927 0.54859 0.0
H2021 H 0.76971 0.68595 0.57995 0.0
C2022 C 0.75701 0.66257 0.61435 0.0
C2023 C 0.74983 0.6483 0.63078 0.0
C2024 C 0.76669 0.65904 0.5967 0.0
C2025 C 0.7531 0.63074 0.62979 0.0
C2026 C 0.76346 0.62752 0.61258 0.0
C2027 C 0.77985 0.63803 0.57793 0.0
C2028 C 0.78573 0.65169 0.56074 0.0
C2029 C 0.77011 0.64145 0.59578 0.0
C2030 C 0.7817 0.66879 0.56175 0.0
C2031 C 0.77251 0.67257 0.57964 0.0
H2032 H 0.33892 0.08163 0.63731 0.0
H2033 H 0.40366 0.10065 0.63489 0.0
H2034 H 0.40849 0.12978 0.61279 0.0
H2035 H 0.39362 0.14818 0.59217 0.0
H2036 H 0.32955 0.13112 0.59765 0.0
H2037 H 0.32508 0.10262 0.62015 0.0
C2038 C 0.35405 0.09216 0.63193 0.0
C2039 C 0.37082 0.08884 0.63737 0.0
C2040 C 0.35679 0.10907 0.61959 0.0
C2041 C 0.39052 0.10292 0.63084 0.0
C2042 C 0.39326 0.11951 0.61814 0.0
C2043 C 0.37877 0.13861 0.59862 0.0
C2044 C 0.36186 0.1417 0.59268 0.0
C2045 C 0.37642 0.12256 0.61217 0.0
C2046 C 0.34272 0.1288 0.60119 0.0
C2047 C 0.34015 0.11256 0.61429 0.0
H2048 H 0.91116 0.2854 0.69438 0.0
H2049 H 0.94397 0.25057 0.68683 0.0
H2050 H 0.92899 0.23872 0.64747 0.0
H2051 H 0.90613 0.23759 0.61572 0.0
H2052 H 0.87697 0.2764 0.62149 0.0
H2053 H 0.89037 0.28667 0.6612 0.0
C2054 C 0.91503 0.27525 0.68404 0.0
C2055 C 0.92856 0.26878 0.69344 0.0
C2056 C 0.90682 0.26898 0.66121 0.0
C2057 C 0.93367 0.25584 0.67989 0.0
C2058 C 0.92504 0.24899 0.65743 0.0
C2059 C 0.90299 0.2487 0.62532 0.0
C2060 C 0.89038 0.25606 0.61522 0.0
C2061 C 0.9116 0.25546 0.64793 0.0
C2062 C 0.88615 0.26994 0.6286 0.0
C2063 C 0.89403 0.27608 0.65137 0.0
H2064 H 0.37553 0.28588 0.70117 0.0
H2065 H 0.32077 0.28518 0.67082 0.0
H2066 H 0.32437 0.27042 0.63473 0.0
H2067 H 0.34223 0.25642 0.61207 0.0
H2068 H 0.39718 0.25752 0.64205 0.0
H2069 H 0.39439 0.2735 0.67804 0.0
C2070 C 0.36442 0.28261 0.68666 0.0
C2071 C 0.34781 0.28653 0.68882 0.0
C2072 C 0.36655 0.27409 0.66592 0.0
C2073 C 0.3337 0.28234 0.66972 0.0
C2074 C 0.33569 0.27382 0.64906 0.0
C2075 C 0.35352 0.26009 0.62655 0.0
C2076 C 0.36974 0.25559 0.62457 0.0
C2077 C 0.35188 0.26937 0.64705 0.0
C2078 C 0.38456 0.26084 0.64324 0.0
C2079 C 0.38293 0.26992 0.66379 0.0
H2080 H 0.7619 0.09545 0.62631 0.0
H2081 H 0.70948 0.10238 0.604 0.0
H2082 H 0.73158 0.13127 0.58216 0.0
H2083 H 0.76478 0.15196 0.56704 0.0
H2084 H 0.81868 0.14877 0.59349 0.0
H2085 H 0.79681 0.12056 0.61567 0.0
C2086 C 0.75548 0.10352 0.61684 0.0
C2087 C 0.73419 0.09682 0.61644 0.0
C2088 C 0.76838 0.12043 0.60481 0.0
C2089 C 0.72592 0.10745 0.60449 0.0
C2090 C 0.7385 0.12382 0.59193 0.0
C2091 C 0.7721 0.14572 0.57806 0.0
C2092 C 0.79346 0.15241 0.57795 0.0
C2093 C 0.75967 0.13017 0.59167 0.0
C2094 C 0.80219 0.14353 0.59232 0.0
C2095 C 0.78973 0.1275 0.60531 0.0
H2096 H 0.88353 0.63505 0.67341 0.0
H2097 H 0.94054 0.69319 0.66437 0.0
H2098 H 0.9278 0.68983 0.62497 0.0
H2099 H 0.90079 0.67036 0.59301 0.0
H2100 H 0.84364 0.61244 0.6017 0.0
H2101 H 0.85632 0.61558 0.64129 0.0
C2102 C 0.89318 0.64704 0.66287 0.0
C2103 C 0.91297 0.66437 0.67195 0.0
C2104 C 0.8858 0.64499 0.64014 0.0
C2105 C 0.92525 0.67968 0.65793 0.0
C2106 C 0.91799 0.67778 0.63535 0.0
C2107 C 0.891 0.65854 0.60362 0.0
C2108 C 0.87125 0.64128 0.59447 0.0
C2109 C 0.89832 0.66052 0.6263 0.0
C2110 C 0.85897 0.62581 0.60831 0.0
C2111 C 0.86616 0.62766 0.63096 0.0
H2112 H 0.94696 0.7306 0.78901 0.0
H2113 H 0.89546 0.67066 0.75593 0.0
H2114 H 0.8732 0.67071 0.78419 0.0
H2115 H 0.86965 0.68592 0.82018 0.0
H2116 H 0.92269 0.74353 0.85575 0.0
H2117 H 0.94294 0.74658 0.82446 0.0
C2118 C 0.93069 0.71787 0.78776 0.0
C2119 C 0.92271 0.70069 0.77052 0.0
C2120 C 0.91839 0.71749 0.80465 0.0
C2121 C 0.90182 0.684 0.76917 0.0
C2122 C 0.88917 0.684 0.78534 0.0
C2123 C 0.88569 0.69907 0.82121 0.0
C2124 C 0.89466 0.7143 0.84047 0.0
C2125 C 0.89752 0.70028 0.80355 0.0
C2126 C 0.91527 0.73162 0.84112 0.0
C2127 C 0.92695 0.73332 0.82327 0.0
H2128 H 0.33405 0.26956 0.78506 0.0
H2129 H 0.27229 0.23339 0.74831 0.0
H2130 H 0.26647 0.20107 0.76497 0.0
H2131 H 0.27853 0.18359 0.79139 0.0
H2132 H 0.34057 0.2203 0.82746 0.0
H2133 H 0.34689 0.25179 0.80911 0.0
C2134 C 0.31942 0.2546 0.78035 0.0
C2135 C 0.30367 0.25396 0.7654 0.0
C2136 C 0.31627 0.23612 0.78983 0.0
C2137 C 0.28471 0.23437 0.75978 0.0
C2138 C 0.28136 0.21587 0.76931 0.0
C2139 C 0.29347 0.19846 0.79507 0.0
C2140 C 0.30907 0.19958 0.81072 0.0
C2141 C 0.29696 0.21663 0.78456 0.0
C2142 C 0.32842 0.2189 0.81523 0.0
C2143 C 0.33198 0.23698 0.80491 0.0
H2144 H 0.72313 0.05306 0.71532 0.0
H2145 H 0.78287 0.07679 0.68976 0.0
H2146 H 0.80047 0.08651 0.72808 0.0
H2147 H 0.79907 0.08901 0.76891 0.0
H2148 H 0.73922 0.06422 0.79438 0.0
H2149 H 0.72162 0.05444 0.75607 0.0
C2150 C 0.74001 0.06038 0.71809 0.0
C2151 C 0.75162 0.06423 0.6996 0.0
C2152 C 0.75007 0.06584 0.74019 0.0
C2153 C 0.77348 0.07359 0.70361 0.0
C2154 C 0.7836 0.07919 0.72555 0.0
C2155 C 0.78215 0.08122 0.7661 0.0
C2156 C 0.77054 0.07752 0.78456 0.0
C2157 C 0.77206 0.07543 0.74397 0.0
C2158 C 0.74863 0.06765 0.78053 0.0
C2159 C 0.73851 0.06192 0.7586 0.0
H2160 H 0.04123 0.32328 0.03588 0.0
H2161 H 0.06112 0.38221 0.07882 0.0
H2162 H 0.08259 0.37399 0.10424 0.0
H2163 H 0.09685 0.35083 0.11352 0.0
H2164 H 0.07795 0.29267 0.06969 0.0
H2165 H 0.05461 0.2996 0.04578 0.0
C2166 C 0.05018 0.33431 0.05084 0.0
C2167 C 0.04963 0.35343 0.0553 0.0
C2168 C 0.06261 0.32957 0.06535 0.0
C2169 C 0.06129 0.36744 0.07486 0.0
C2170 C 0.07359 0.36275 0.08944 0.0
C2171 C 0.08765 0.33966 0.09873 0.0
C2172 C 0.08925 0.32125 0.09347 0.0
C2173 C 0.07456 0.34399 0.08472 0.0
C2174 C 0.07687 0.30679 0.07441 0.0
C2175 C 0.06365 0.31086 0.06056 0.0
H2176 H 0.67389 0.70478 0.11776 0.0
H2177 H 0.61655 0.70018 0.09006 0.0
H2178 H 0.63119 0.73869 0.10127 0.0
H2179 H 0.65891 0.77258 0.12178 0.0
H2180 H 0.71439 0.776 0.15412 0.0
H2181 H 0.70216 0.73924 0.1377 0.0
C2182 C 0.66482 0.71237 0.1138 0.0
C2183 C 0.64426 0.69983 0.10303 0.0
C2184 C 0.67296 0.73423 0.12127 0.0
C2185 C 0.63243 0.70963 0.09833 0.0
C2186 C 0.64076 0.73157 0.1048 0.0
C2187 C 0.6683 0.76529 0.12548 0.0
C2188 C 0.68742 0.77704 0.13952 0.0
C2189 C 0.66076 0.74386 0.11685 0.0
C2190 C 0.69966 0.76748 0.14333 0.0
C2191 C 0.69261 0.74636 0.13408 0.0
H2192 H 0.31608 0.93535 0.04359 0.0
H2193 H 0.2781 0.94681 0.99517 0.0
H2194 H 0.25063 0.93531 0.01999 0.0
H2195 H 0.23817 0.92388 0.05645 0.0
H2196 H 0.27632 0.91268 0.10476 0.0
H2197 H 0.30296 0.92225 0.07902 0.0
C2198 C 0.3017 0.93508 0.03831 0.0
C2199 C 0.29923 0.94204 0.0176 0.0
C2200 C 0.28607 0.92872 0.05277 0.0
C2201 C 0.28045 0.94156 0.01104 0.0
C2202 C 0.26475 0.93509 0.02528 0.0
C2203 C 0.25236 0.92361 0.06128 0.0
C2204 C 0.25537 0.91771 0.08244 0.0
C2205 C 0.26756 0.92904 0.04636 0.0
C2206 C 0.27365 0.91709 0.08847 0.0
C2207 C 0.28888 0.92258 0.0738 0.0
H2208 H 0.37308 0.06601 0.01816 0.0
H2209 H 0.31918 0.00415 0.99311 0.0
H2210 H 0.29944 0.02144 0.98266 0.0
H2211 H 0.30018 0.05429 0.97363 0.0
H2212 H 0.35295 0.11627 0.00087 0.0
H2213 H 0.37035 0.09864 0.01751 0.0
C2214 C 0.35683 0.05629 0.01098 0.0
C2215 C 0.34783 0.03392 0.00587 0.0
C2216 C 0.34549 0.06633 0.00495 0.0
C2217 C 0.32661 0.02145 0.99702 0.0
C2218 C 0.31531 0.03134 0.99087 0.0
C2219 C 0.31511 0.06405 0.9839 0.0
C2220 C 0.32556 0.08667 0.98509 0.0
C2221 C 0.32496 0.05383 0.99371 0.0
C2222 C 0.34489 0.09884 0.99872 0.0
C2223 C 0.35485 0.08878 0.00839 0.0
H2224 H 0.97046 0.27831 0.97103 0.0
H2225 H 0.92136 0.28884 0.99115 0.0
H2226 H 0.89543 0.251 0.9794 0.0
H2227 H 0.88621 0.21647 0.95895 0.0
H2228 H 0.93456 0.20619 0.93584 0.0
H2229 H 0.96136 0.24222 0.95344 0.0
C2230 C 0.95416 0.27209 0.97343 0.0
C2231 C 0.94774 0.2862 0.98196 0.0
C2232 C 0.9392 0.2505 0.96571 0.0
C2233 C 0.92658 0.27817 0.98464 0.0
C2234 C 0.91175 0.25661 0.97779 0.0
C2235 C 0.90263 0.22211 0.95781 0.0
C2236 C 0.90841 0.20892 0.94573 0.0
C2237 C 0.91779 0.24289 0.96749 0.0
C2238 C 0.92974 0.21613 0.94495 0.0
C2239 C 0.94504 0.23674 0.95493 0.0
H2240 H 0.72019 0.69239 0.07013 0.0
H2241 H 0.67636 0.6305 0.03301 0.0
H2242 H 0.70136 0.63595 0.00624 0.0
H2243 H 0.73558 0.65816 0.9933 0.0
H2244 H 0.77963 0.71993 0.03026 0.0
H2245 H 0.75451 0.71476 0.05699 0.0
C2246 C 0.71611 0.68008 0.05621 0.0
C2247 C 0.69644 0.66104 0.05366 0.0
C2248 C 0.73055 0.68332 0.04079 0.0
C2249 C 0.69139 0.64531 0.03543 0.0
C2250 C 0.70567 0.64839 0.02009 0.0
C2251 C 0.73975 0.67041 0.00732 0.0
C2252 C 0.75946 0.68935 0.00985 0.0
C2253 C 0.7253 0.6673 0.02263 0.0
C2254 C 0.76448 0.70528 0.02784 0.0
C2255 C 0.75018 0.70228 0.04319 0.0
H2256 H 0.95678 0.66127 0.00978 0.0
H2257 H 0.95235 0.69677 0.06795 0.0
H2258 H 0.93211 0.70779 0.04457 0.0
H2259 H 0.91414 0.70598 0.0081 0.0
H2260 H 0.91856 0.67098 0.94959 0.0
H2261 H 0.94017 0.66107 0.97262 0.0
C2262 C 0.95148 0.67151 0.01732 0.0
C2263 C 0.95604 0.67806 0.04065 0.0
C2264 C 0.93975 0.67783 0.00373 0.0
C2265 C 0.94908 0.6914 0.05008 0.0
C2266 C 0.93746 0.69773 0.03671 0.0
C2267 C 0.92016 0.69655 0.00025 0.0
C2268 C 0.91472 0.68928 0.9771 0.0
C2269 C 0.93254 0.6909 0.01358 0.0
C2270 C 0.92233 0.67664 0.96739 0.0
C2271 C 0.93474 0.67101 0.98055 0.0
H2272 H 0.37377 0.32064 0.92982 0.0
H2273 H 0.33764 0.30662 0.98609 0.0
H2274 H 0.32064 0.2679 0.97366 0.0
H2275 H 0.31665 0.23822 0.94696 0.0
H2276 H 0.35083 0.25312 0.88896 0.0
H2277 H 0.36809 0.29141 0.902 0.0
C2278 C 0.3623 0.30909 0.93948 0.0
C2279 C 0.35718 0.31636 0.95903 0.0
C2280 C 0.35222 0.28708 0.93187 0.0
C2281 C 0.34191 0.30131 0.97107 0.0
C2282 C 0.33219 0.27924 0.96394 0.0
C2283 C 0.32759 0.24983 0.93695 0.0
C2284 C 0.33259 0.2427 0.91712 0.0
C2285 C 0.33721 0.27194 0.94432 0.0
C2286 C 0.34701 0.25806 0.90454 0.0
C2287 C 0.35684 0.27999 0.91192 0.0
H2288 H 0.71332 0.03637 0.04884 0.0
H2289 H 0.67797 0.06266 0.01835 0.0
H2290 H 0.70131 0.07479 0.9891 0.0
H2291 H 0.73125 0.07739 0.97183 0.0
H2292 H 0.76694 0.05152 0.00225 0.0
H2293 H 0.74361 0.03931 0.03166 0.0
C2294 C 0.71079 0.04489 0.03589 0.0
C2295 C 0.69396 0.04866 0.03584 0.0
C2296 C 0.72416 0.05165 0.01899 0.0
C2297 C 0.69082 0.05957 0.01882 0.0
C2298 C 0.70412 0.06647 0.00205 0.0
C2299 C 0.73405 0.06925 0.98501 0.0
C2300 C 0.75085 0.06545 0.98492 0.0
C2301 C 0.72076 0.06252 0.00193 0.0
C2302 C 0.754 0.05446 0.00183 0.0
C2303 C 0.74077 0.04763 0.01873 0.0
H2304 H 0.67204 0.98759 0.07571 0.0
H2305 H 0.61085 0.93028 0.0664 0.0
H2306 H 0.62647 0.9085 0.0754 0.0
H2307 H 0.65639 0.90698 0.09271 0.0
H2308 H 0.71672 0.96512 0.10681 0.0
H2309 H 0.70279 0.9852 0.08836 0.0
C2310 C 0.66217 0.97025 0.075 0.0
C2311 C 0.64028 0.96058 0.07073 0.0
C2312 C 0.67114 0.95802 0.0813 0.0
C2313 C 0.62771 0.93811 0.06991 0.0
C2314 C 0.63663 0.92568 0.07514 0.0
C2315 C 0.66655 0.924 0.09148 0.0
C2316 C 0.6874 0.93465 0.10161 0.0
C2317 C 0.65816 0.93565 0.082 0.0
C2318 C 0.70059 0.95653 0.09925 0.0
C2319 C 0.69256 0.96808 0.0889 0.0
H2320 H 0.02903 0.71936 0.1007 0.0
H2321 H 0.07686 0.70297 0.09278 0.0
H2322 H 0.10401 0.74012 0.10543 0.0
H2323 H 0.11412 0.77638 0.12137 0.0
H2324 H 0.06681 0.79294 0.13192 0.0
H2325 H 0.0395 0.75674 0.11533 0.0
C2326 C 0.04542 0.72408 0.10137 0.0
C2327 C 0.05098 0.7085 0.09588 0.0
C2328 C 0.061 0.74541 0.10936 0.0
C2329 C 0.07223 0.7147 0.09705 0.0
C2330 C 0.08776 0.7359 0.10433 0.0
C2331 C 0.09782 0.77205 0.12021 0.0
C2332 C 0.09248 0.78719 0.12825 0.0
C2333 C 0.0823 0.75122 0.11107 0.0
C2334 C 0.07133 0.78154 0.12592 0.0
C2335 C 0.05572 0.76083 0.1165 0.0
H2336 H 0.30538 0.34438 0.0188 0.0
H2337 H 0.31351 0.40815 0.0239 0.0
H2338 H 0.28483 0.39665 0.04711 0.0
H2339 H 0.25778 0.36869 0.06633 0.0
H2340 H 0.25005 0.30515 0.06191 0.0
H2341 H 0.27806 0.31629 0.03771 0.0
C2342 C 0.30088 0.35577 0.02494 0.0
C2343 C 0.31164 0.37712 0.01966 0.0
C2344 C 0.2844 0.34908 0.03832 0.0
C2345 C 0.30554 0.39164 0.02773 0.0
C2346 C 0.28913 0.38508 0.04101 0.0
C2347 C 0.26233 0.35732 0.06019 0.0
C2348 C 0.25192 0.33616 0.06598 0.0
C2349 C 0.27855 0.36389 0.0465 0.0
C2350 C 0.25769 0.32148 0.05753 0.0
C2351 C 0.27379 0.32788 0.04382 0.0
H2352 H 0.75453 0.69822 0.36125 0.0
H2353 H 0.69587 0.65657 0.3861 0.0
H2354 H 0.71366 0.64505 0.41277 0.0
H2355 H 0.74619 0.64718 0.42933 0.0
H2356 H 0.80451 0.68919 0.40405 0.0
H2357 H 0.78654 0.70025 0.37738 0.0
C2358 C 0.74556 0.68658 0.37245 0.0
C2359 C 0.72388 0.67827 0.37163 0.0
C2360 C 0.75588 0.68016 0.38778 0.0
C2361 C 0.71258 0.66324 0.38636 0.0
C2362 C 0.72275 0.65664 0.40162 0.0
C2363 C 0.75489 0.6587 0.41791 0.0
C2364 C 0.77669 0.66754 0.41886 0.0
C2365 C 0.74442 0.66503 0.40252 0.0
C2366 C 0.7878 0.68248 0.40399 0.0
C2367 C 0.77752 0.68872 0.38862 0.0
H2368 H 0.33786 0.03786 0.45577 0.0
H2369 H 0.2842 0.03204 0.41648 0.0
H2370 H 0.29799 0.07076 0.42498 0.0
H2371 H 0.32351 0.10523 0.44625 0.0
H2372 H 0.3745 0.10997 0.4902 0.0
H2373 H 0.36402 0.07295 0.47666 0.0
C2374 C 0.32948 0.04525 0.44877 0.0
C2375 C 0.31019 0.03238 0.43544 0.0
C2376 C 0.33699 0.06726 0.45466 0.0
C2377 C 0.29913 0.04183 0.42673 0.0
C2378 C 0.30697 0.06387 0.43165 0.0
C2379 C 0.33228 0.09818 0.45308 0.0
C2380 C 0.34959 0.11038 0.46953 0.0
C2381 C 0.32557 0.07659 0.44611 0.0
C2382 C 0.36118 0.10111 0.47746 0.0
C2383 C 0.35509 0.07983 0.46987 0.0
H2384 H 0.96903 0.30798 0.36017 0.0
H2385 H 0.9805 0.25549 0.36646 0.0
H2386 H 0.95321 0.24007 0.3915 0.0
H2387 H 0.92727 0.24233 0.41257 0.0
H2388 H 0.91861 0.29706 0.4098 0.0
H2389 H 0.94317 0.31043 0.3818 0.0
C2390 C 0.96537 0.29304 0.36685 0.0
C2391 C 0.97664 0.2828 0.36147 0.0
C2392 C 0.95017 0.28468 0.38179 0.0
C2393 C 0.97202 0.26364 0.37045 0.0
C2394 C 0.95644 0.25485 0.38473 0.0
C2395 C 0.93091 0.25736 0.40615 0.0
C2396 C 0.92118 0.26873 0.41356 0.0
C2397 C 0.94567 0.26542 0.39077 0.0
C2398 C 0.92564 0.28779 0.40432 0.0
C2399 C 0.93985 0.29557 0.38843 0.0
H2400 H 0.06846 0.4033 0.33841 0.0
H2401 H 0.00617 0.34821 0.33536 0.0
H2402 H 0.99122 0.36984 0.32393 0.0
H2403 H 0.99623 0.40205 0.30765 0.0
H2404 H 0.05838 0.45753 0.31135 0.0
H2405 H 0.07294 0.43797 0.32962 0.0
C2406 C 0.0516 0.39614 0.33576 0.0
C2407 C 0.03851 0.37401 0.33705 0.0
C2408 C 0.04307 0.40859 0.32883 0.0
C2409 C 0.01667 0.36512 0.33413 0.0
C2410 C 0.00807 0.37746 0.32743 0.0
C2411 C 0.01288 0.4102 0.31311 0.0
C2412 C 0.02624 0.43101 0.30745 0.0
C2413 C 0.02117 0.39889 0.32363 0.0
C2414 C 0.04779 0.44122 0.31475 0.0
C2415 C 0.05615 0.4301 0.32531 0.0
H2416 H 0.63335 0.62134 0.31696 0.0
H2417 H 0.59301 0.64481 0.29345 0.0
H2418 H 0.56566 0.60829 0.27938 0.0
H2419 H 0.55367 0.5701 0.27197 0.0
H2420 H 0.59289 0.5457 0.29627 0.0
H2421 H 0.62035 0.58226 0.31123 0.0
C2422 C 0.6185 0.61845 0.30899 0.0
C2423 C 0.61538 0.63593 0.30623 0.0
C2424 C 0.60272 0.59729 0.30072 0.0
C2425 C 0.596 0.63179 0.29577 0.0
C2426 C 0.58029 0.61087 0.28763 0.0
C2427 C 0.56804 0.57262 0.28088 0.0
C2428 C 0.57109 0.55505 0.28299 0.0
C2429 C 0.58357 0.59356 0.28976 0.0
C2430 C 0.59015 0.55889 0.29409 0.0
C2431 C 0.60582 0.5798 0.30283 0.0
H2432 H 0.35085 0.98864 0.37027 0.0
H2433 H 0.36787 0.94922 0.40709 0.0
H2434 H 0.39429 0.95478 0.38205 0.0
H2435 H 0.41238 0.97062 0.34953 0.0
H2436 H 0.39498 0.00958 0.31247 0.0
H2437 H 0.36903 0.00461 0.33797 0.0
C2438 C 0.36036 0.98129 0.37287 0.0
C2439 C 0.35735 0.9685 0.39052 0.0
C2440 C 0.37548 0.98451 0.35841 0.0
C2441 C 0.36983 0.95912 0.39363 0.0
C2442 C 0.38495 0.96228 0.37932 0.0
C2443 C 0.4028 0.97789 0.34696 0.0
C2444 C 0.40559 0.99043 0.32914 0.0
C2445 C 0.38784 0.97486 0.36159 0.0
C2446 C 0.3933 5e-05 0.32622 0.0
C2447 C 0.37838 0.99712 0.34071 0.0
H2448 H 0.62094 0.99863 0.35038 0.0
H2449 H 0.56999 0.93624 0.36087 0.0
H2450 H 0.54633 0.94051 0.33451 0.0
H2451 H 0.53957 0.96233 0.30966 0.0
H2452 H 0.59023 0.02441 0.29812 0.0
H2453 H 0.61439 0.01996 0.32386 0.0
C2454 C 0.60468 0.98594 0.34683 0.0
C2455 C 0.5973 0.96718 0.35773 0.0
C2456 C 0.59103 0.98847 0.33154 0.0
C2457 C 0.57617 0.95088 0.35283 0.0
C2458 C 0.56257 0.95329 0.33773 0.0
C2459 C 0.55597 0.97474 0.31238 0.0
C2460 C 0.56302 0.99366 0.30184 0.0
C2461 C 0.56978 0.97205 0.3271 0.0
C2462 C 0.58428 0.00977 0.30612 0.0
C2463 C 0.59814 0.0072 0.3208 0.0
H2464 H 0.05737 0.64881 0.30848 0.0
H2465 H 0.99712 0.64435 0.30073 0.0
H2466 H 0.98084 0.60691 0.28403 0.0
H2467 H 0.98463 0.577 0.26748 0.0
H2468 H 0.04498 0.58165 0.27635 0.0
H2469 H 0.06031 0.61757 0.29641 0.0
C2470 C 0.04061 0.63956 0.30346 0.0
C2471 C 0.02855 0.64944 0.30554 0.0
C2472 C 0.03143 0.61821 0.2936 0.0
C2473 C 0.0068 0.63714 0.29929 0.0
C2474 C 0.9975 0.61577 0.28955 0.0
C2475 C 0.00105 0.58573 0.2741 0.0
C2476 C 0.01374 0.57687 0.26977 0.0
C2477 C 0.00979 0.60638 0.28595 0.0
C2478 C 0.03499 0.58839 0.27864 0.0
C2479 C 0.04376 0.60887 0.29035 0.0
H2480 H 0.37205 0.37986 0.37658 0.0
H2481 H 0.32322 0.36969 0.32546 0.0
H2482 H 0.34767 0.37958 0.29726 0.0
H2483 H 0.3828 0.39126 0.28715 0.0
H2484 H 0.4323 0.40381 0.33863 0.0
H2485 H 0.40749 0.39213 0.36648 0.0
C2486 C 0.36676 0.37981 0.35927 0.0
C2487 C 0.34586 0.3741 0.35316 0.0
C2488 C 0.38094 0.38569 0.34315 0.0
C2489 C 0.33926 0.37415 0.33066 0.0
C2490 C 0.3532 0.37972 0.31449 0.0
C2491 C 0.38826 0.39165 0.30449 0.0
C2492 C 0.40945 0.39847 0.31071 0.0
C2493 C 0.37408 0.38558 0.32057 0.0
C2494 C 0.41605 0.39834 0.33321 0.0
C2495 C 0.40191 0.39188 0.34924 0.0
H2496 H 0.32203 0.31489 0.39868 0.0
H2497 H 0.26014 0.26006 0.39914 0.0
H2498 H 0.2753 0.23871 0.41143 0.0
H2499 H 0.30577 0.23758 0.42773 0.0
H2500 H 0.36736 0.2938 0.43147 0.0
H2501 H 0.35278 0.31242 0.41118 0.0
C2502 C 0.31184 0.2981 0.40088 0.0
C2503 C 0.28998 0.28912 0.39825 0.0
C2504 C 0.32065 0.28625 0.40894 0.0
C2505 C 0.27701 0.26738 0.40126 0.0
C2506 C 0.28567 0.2552 0.40838 0.0
C2507 C 0.31603 0.25387 0.42396 0.0
C2508 C 0.33755 0.26445 0.43155 0.0
C2509 C 0.30743 0.26479 0.41325 0.0
C2510 C 0.35074 0.28528 0.42588 0.0
C2511 C 0.34238 0.29601 0.41445 0.0
H2512 H 0.73711 0.04084 0.41757 0.0
H2513 H 0.68456 0.04905 0.4278 0.0
H2514 H 0.70842 0.08732 0.44088 0.0
H2515 H 0.74436 0.11711 0.45376 0.0
H2516 H 0.79663 0.10874 0.44132 0.0
H2517 H 0.77269 0.07178 0.42511 0.0
C2518 C 0.73088 0.05112 0.42225 0.0
C2519 C 0.70917 0.04216 0.42194 0.0
C2520 C 0.74465 0.07295 0.42986 0.0
C2521 C 0.70124 0.05564 0.42781 0.0
C2522 C 0.71489 0.07746 0.43551 0.0
C2523 C 0.75058 0.10739 0.44713 0.0
C2524 C 0.77237 0.11565 0.44951 0.0
C2525 C 0.73667 0.08612 0.43728 0.0
C2526 C 0.77998 0.10267 0.44065 0.0
C2527 C 0.7663 0.08154 0.4311 0.0
H2528 H 0.99253 0.69704 0.37538 0.0
H2529 H 0.94799 0.67566 0.31591 0.0
H2530 H 0.91912 0.66116 0.33911 0.0
H2531 H 0.90663 0.65509 0.37643 0.0
H2532 H 0.95143 0.67552 0.43555 0.0
H2533 H 0.98012 0.68988 0.4123 0.0
C2534 C 0.97652 0.68932 0.36747 0.0
C2535 C 0.97242 0.68758 0.34397 0.0
C2536 C 0.96004 0.68078 0.38084 0.0
C2537 C 0.95156 0.67726 0.33399 0.0
C2538 C 0.93505 0.66894 0.34723 0.0
C2539 C 0.92266 0.6624 0.38417 0.0
C2540 C 0.92688 0.66433 0.4077 0.0
C2541 C 0.93911 0.67058 0.37068 0.0
C2542 C 0.94776 0.6741 0.41751 0.0
C2543 C 0.96418 0.68228 0.40423 0.0
H2544 H 0.39173 0.98441 0.69549 0.0
H2545 H 0.39486 0.03748 0.73684 0.0
H2546 H 0.41576 0.03329 0.76707 0.0
H2547 H 0.43427 0.01547 0.78132 0.0
H2548 H 0.43243 0.96352 0.73918 0.0
H2549 H 0.40954 0.96606 0.71007 0.0
C2550 C 0.39688 0.995 0.71114 0.0
C2551 C 0.39179 0.0113 0.71378 0.0
C2552 C 0.40906 0.99264 0.72844 0.0
C2553 C 0.39861 0.02485 0.73425 0.0
C2554 C 0.41056 0.02247 0.75159 0.0
C2555 C 0.42888 0.0047 0.76577 0.0
C2556 C 0.43508 0.98929 0.76258 0.0
C2557 C 0.41608 0.00658 0.74879 0.0
C2558 C 0.42766 0.97528 0.74238 0.0
C2559 C 0.41471 0.97687 0.72556 0.0
H2560 H 0.94903 0.3492 0.77262 0.0
H2561 H 0.01184 0.36016 0.77517 0.0
H2562 H 0.02591 0.39766 0.79055 0.0
H2563 H 0.02006 0.42634 0.80638 0.0
H2564 H 0.95712 0.41536 0.80206 0.0
H2565 H 0.94347 0.37873 0.78475 0.0
C2566 C 0.96582 0.35983 0.77631 0.0
C2567 C 0.97932 0.35181 0.77298 0.0
C2568 C 0.97379 0.38127 0.78527 0.0
C2569 C 0.00106 0.36591 0.77756 0.0
C2570 C 0.00913 0.38732 0.78652 0.0
C2571 C 0.0034 0.41607 0.80139 0.0
C2572 C 0.98965 0.42354 0.80611 0.0
C2573 C 0.99559 0.39504 0.79093 0.0
C2574 C 0.96807 0.40989 0.79945 0.0
C2575 C 0.96021 0.38896 0.78928 0.0
H2576 H 0.66623 0.62057 0.7201 0.0
H2577 H 0.63129 0.63865 0.67515 0.0
H2578 H 0.60222 0.62372 0.69796 0.0
H2579 H 0.58677 0.60561 0.73086 0.0
H2580 H 0.62215 0.58807 0.7758 0.0
H2581 H 0.65097 0.60266 0.75274 0.0
C2582 C 0.65224 0.62119 0.71521 0.0
C2583 C 0.65094 0.63069 0.69594 0.0
C2584 C 0.63566 0.61269 0.72843 0.0
C2585 C 0.6327 0.6314 0.6899 0.0
C2586 C 0.61607 0.6229 0.70296 0.0
C2587 C 0.60087 0.60514 0.73564 0.0
C2588 C 0.60231 0.5957 0.75492 0.0
C2589 C 0.61741 0.61359 0.72231 0.0
C2590 C 0.62056 0.59499 0.76084 0.0
C2591 C 0.63708 0.6034 0.74774 0.0
H2592 H 0.68491 0.70035 0.67833 0.0
H2593 H 0.74533 0.74977 0.66307 0.0
H2594 H 0.73023 0.77114 0.65132 0.0
H2595 H 0.69934 0.77288 0.63954 0.0
H2596 H 0.63881 0.72466 0.65584 0.0
H2597 H 0.65462 0.70549 0.67256 0.0
C2598 C 0.6949 0.71601 0.67292 0.0
C2599 C 0.71615 0.72316 0.6711 0.0
C2600 C 0.68606 0.72818 0.66582 0.0
C2601 C 0.72887 0.74366 0.66436 0.0
C2602 C 0.72023 0.75588 0.6575 0.0
C2603 C 0.68953 0.75864 0.64742 0.0
C2604 C 0.66774 0.75016 0.64598 0.0
C2605 C 0.69872 0.74787 0.65728 0.0
C2606 C 0.65551 0.73133 0.65602 0.0
C2607 C 0.66456 0.72041 0.66577 0.0
H2608 H 0.27103 0.97428 0.65794 0.0
H2609 H 0.32258 0.9651 0.64519 0.0
H2610 H 0.29818 0.92691 0.63256 0.0
H2611 H 0.26207 0.89727 0.62158 0.0
H2612 H 0.21076 0.90574 0.63849 0.0
H2613 H 0.23522 0.94313 0.65261 0.0
C2614 C 0.27689 0.96379 0.65275 0.0
C2615 C 0.29849 0.97244 0.6523 0.0
C2616 C 0.26282 0.94185 0.6458 0.0
C2617 C 0.30599 0.95873 0.64577 0.0
C2618 C 0.29203 0.93695 0.63838 0.0
C2619 C 0.25611 0.907 0.62879 0.0
C2620 C 0.23434 0.89855 0.62813 0.0
C2621 C 0.27036 0.92845 0.63781 0.0
C2622 C 0.22725 0.9118 0.63766 0.0
C2623 C 0.24128 0.93323 0.64608 0.0
H2624 H 0.02783 0.32207 0.70689 0.0
H2625 H 0.05385 0.29059 0.74508 0.0
H2626 H 0.08338 0.30395 0.72289 0.0
H2627 H 0.10139 0.32386 0.69212 0.0
H2628 H 0.07518 0.35499 0.65373 0.0
H2629 H 0.04634 0.34281 0.67685 0.0
C2630 C 0.03995 0.31811 0.71038 0.0
C2631 C 0.03855 0.30522 0.72753 0.0
C2632 C 0.05692 0.3259 0.69763 0.0
C2633 C 0.0545 0.30043 0.73194 0.0
C2634 C 0.0714 0.30806 0.71927 0.0
C2635 C 0.08934 0.32794 0.6888 0.0
C2636 C 0.09039 0.34026 0.6712 0.0
C2637 C 0.07269 0.32069 0.70199 0.0
C2638 C 0.07486 0.34573 0.66733 0.0
C2639 C 0.05827 0.33862 0.68043 0.0
H2640 H 0.28647 0.32284 0.67532 0.0
H2641 H 0.28236 0.36185 0.73029 0.0
H2642 H 0.26359 0.37289 0.70459 0.0
H2643 H 0.24682 0.37012 0.66694 0.0
H2644 H 0.25074 0.33121 0.61184 0.0
H2645 H 0.27112 0.32151 0.63716 0.0
C2646 C 0.28155 0.33383 0.68167 0.0
C2647 C 0.28575 0.34139 0.70475 0.0
C2648 C 0.27073 0.34014 0.66678 0.0
C2649 C 0.27933 0.35572 0.71264 0.0
C2650 C 0.26858 0.36206 0.69795 0.0
C2651 C 0.25253 0.3599 0.66036 0.0
C2652 C 0.24737 0.35149 0.63751 0.0
C2653 C 0.26406 0.35425 0.67503 0.0
C2654 C 0.25444 0.33783 0.62938 0.0
C2655 C 0.26609 0.33227 0.64385 0.0
H2656 H 0.6641 0.97163 0.61993 0.0
H2657 H 0.72721 0.98346 0.62947 0.0
H2658 H 0.71445 0.9454 0.61807 0.0
H2659 H 0.6858 0.90946 0.60333 0.0
H2660 H 0.62299 0.89803 0.59045 0.0
H2661 H 0.63513 0.93517 0.6057 0.0
C2662 C 0.675 0.96578 0.61984 0.0
C2663 C 0.69656 0.98029 0.62555 0.0
C2664 C 0.66762 0.94402 0.61255 0.0
C2665 C 0.71055 0.97259 0.62508 0.0
C2666 C 0.70327 0.95086 0.61852 0.0
C2667 C 0.67475 0.9151 0.60359 0.0
C2668 C 0.65355 0.90101 0.59542 0.0
C2669 C 0.68192 0.93657 0.61177 0.0
C2670 C 0.63938 0.90847 0.59666 0.0
C2671 C 0.64633 0.92975 0.60527 0.0
H2672 H 0.03452 0.6987 0.71015 0.0
H2673 H 0.01486 0.74416 0.69608 0.0
H2674 H 0.04187 0.76022 0.6709 0.0
H2675 H 0.0704 0.7608 0.65238 0.0
H2676 H 0.08829 0.71349 0.66397 0.0
H2677 H 0.06292 0.69901 0.69109 0.0
C2678 C 0.03628 0.71224 0.70172 0.0
C2679 C 0.02278 0.72029 0.70499 0.0
C2680 C 0.05151 0.72105 0.68687 0.0
C2681 C 0.02505 0.73767 0.69377 0.0
C2682 C 0.04048 0.74685 0.67939 0.0
C2683 C 0.0686 0.74712 0.66057 0.0
C2684 C 0.08118 0.73818 0.65597 0.0
C2685 C 0.05362 0.73851 0.67565 0.0
C2686 C 0.07899 0.72086 0.66731 0.0
C2687 C 0.06438 0.71246 0.68272 0.0
H2688 H 0.93279 0.59944 0.7305 0.0
H2689 H 0.99487 0.65529 0.73625 0.0
H2690 H 0.00999 0.6336 0.74687 0.0
H2691 H 0.00504 0.60069 0.7613 0.0
H2692 H 0.9432 0.54432 0.75448 0.0
H2693 H 0.92858 0.56442 0.73755 0.0
C2694 C 0.94965 0.60676 0.73359 0.0
C2695 C 0.96261 0.62905 0.73317 0.0
C2696 C 0.95829 0.59424 0.73994 0.0
C2697 C 0.98446 0.63821 0.73671 0.0
C2698 C 0.99316 0.62584 0.74294 0.0
C2699 C 0.98847 0.59249 0.75544 0.0
C2700 C 0.97518 0.57119 0.75985 0.0
C2701 C 0.98015 0.60408 0.74562 0.0
C2702 C 0.95372 0.56095 0.75206 0.0
C2703 C 0.94533 0.57239 0.74226 0.0
H2704 H 0.40511 0.36839 0.76445 0.0
H2705 H 0.35468 0.38187 0.7604 0.0
H2706 H 0.3794 0.4198 0.77386 0.0
H2707 H 0.41498 0.44839 0.78969 0.0
H2708 H 0.46538 0.4347 0.79154 0.0
H2709 H 0.4409 0.39752 0.77647 0.0
C2710 C 0.39953 0.37966 0.76631 0.0
C2711 C 0.37808 0.37229 0.76166 0.0
C2712 C 0.41377 0.40134 0.77405 0.0
C2713 C 0.37114 0.38714 0.76384 0.0
C2714 C 0.38525 0.4088 0.77169 0.0
C2715 C 0.4207 0.4374 0.78651 0.0
C2716 C 0.442 0.44436 0.79236 0.0
C2717 C 0.40656 0.41599 0.77728 0.0
C2718 C 0.449 0.42973 0.78804 0.0
C2719 C 0.43504 0.40846 0.77915 0.0
H2720 H 0.64715 0.01054 0.69413 0.0
H2721 H 0.63775 0.06127 0.67253 0.0
H2722 H 0.61187 0.05356 0.69877 0.0
H2723 H 0.59224 0.03283 0.72816 0.0
H2724 H 0.6014 0.98211 0.74997 0.0
H2725 H 0.62685 0.98921 0.7231 0.0
C2726 C 0.63941 0.01988 0.69513 0.0
C2727 C 0.64444 0.0365 0.68143 0.0
C2728 C 0.62448 0.01534 0.71024 0.0
C2729 C 0.6342 0.04839 0.68287 0.0
C2730 C 0.6194 0.04402 0.69789 0.0
C2731 C 0.59991 0.02342 0.72711 0.0
C2732 C 0.59507 0.00708 0.74109 0.0
C2733 C 0.61451 0.02763 0.71172 0.0
C2734 C 0.60479 0.9947 0.73926 0.0
C2735 C 0.61941 0.99883 0.724 0.0
loop_
_geom_bond_atom_site_label_1
_geom_bond_atom_site_label_2
_geom_bond_distance
_geom_bond_site_symmetry_2
_ccdc_geom_bond_type
Mg0 O1 2.028 . S
Mg0 O7 1.986 1_455 S
Mg0 O9 2.114 . S
Mg0 O10 2.251 1_554 S
Mg0 O13 2.010 . S
O1 Mg0 2.028 . S
O1 C4 1.250 1_455 S
O2 Mg3 2.028 . S
O2 C4 1.248 . S
Mg3 O2 2.028 . S
Mg3 O8 2.030 . S
Mg3 O10 2.079 1_654 S
C4 O1 1.250 1_655 S
C4 O2 1.248 . S
C5 O6 1.264 . S
C5 O13 1.249 . S
O6 C5 1.264 . S
O7 Mg0 1.986 1_655 S
O7 C11 1.246 . S
O8 Mg3 2.030 . S
O8 C11 1.265 . S
O9 Mg0 2.114 . S
O9 C12 1.252 1_554 S
O10 Mg0 2.251 1_556 S
O10 Mg3 2.079 1_456 S
O10 C12 1.273 . S
C11 O7 1.246 . S
C11 O8 1.265 . S
C12 O9 1.252 1_556 S
C12 O10 1.273 . S
O13 Mg0 2.010 . S
O13 C5 1.249 . S
Mg14 O15 2.028 . S
Mg14 O21 1.986 . S
Mg14 O23 2.114 . S
Mg14 O24 2.251 . S
Mg14 O27 2.010 . S
O15 Mg14 2.028 . S
O15 C18 1.250 . S
O16 Mg17 2.028 . S
O16 C18 1.248 . S
Mg17 O16 2.028 . S
Mg17 O22 2.032 . S
Mg17 O24 2.079 . S
C18 O15 1.250 . S
C18 O16 1.248 . S
C19 O20 1.264 . S
C19 O27 1.249 . S
O20 C19 1.264 . S
O21 Mg14 1.986 . S
O21 C25 1.246 . S
O22 Mg17 2.032 . S
O22 C25 1.259 . S
O23 Mg14 2.114 . S
O23 C26 1.252 . S
O24 Mg14 2.251 . S
O24 Mg17 2.079 . S
O24 C26 1.273 . S
C25 O21 1.246 . S
C25 O22 1.259 . S
C26 O23 1.252 . S
C26 O24 1.273 . S
O27 Mg14 2.010 . S
O27 C19 1.249 . S
Mg28 O29 2.028 1_565 S
Mg28 O35 1.986 1_565 S
Mg28 O37 2.114 . S
Mg28 O38 2.251 1_564 S
Mg28 O41 2.010 . S
O29 Mg28 2.028 1_545 S
O29 C32 1.250 . S
O30 Mg31 2.028 . S
O30 C32 1.248 . S
Mg31 O30 2.028 . S
Mg31 O36 2.032 . S
Mg31 O38 2.079 1_554 S
C32 O29 1.250 . S
C32 O30 1.248 . S
C33 O34 1.264 . S
C33 O41 1.249 . S
O34 C33 1.264 . S
O35 Mg28 1.986 1_545 S
O35 C39 1.246 . S
O36 Mg31 2.032 . S
O36 C39 1.259 . S
O37 Mg28 2.114 . S
O37 C40 1.252 1_554 S
O38 Mg28 2.251 1_546 S
O38 Mg31 2.079 1_556 S
O38 C40 1.273 1_545 S
C39 O35 1.246 . S
C39 O36 1.259 . S
C40 O37 1.252 1_556 S
C40 O38 1.273 1_565 S
O41 Mg28 2.010 . S
O41 C33 1.249 . S
Mg42 O43 2.015 1_655 S
Mg42 O49 1.986 1_655 S
Mg42 O51 2.114 . S
Mg42 O52 2.251 1_655 S
Mg42 O55 2.010 . S
O43 Mg42 2.015 1_455 S
O43 C46 1.278 . S
O44 Mg45 2.028 . S
O44 C46 1.248 . S
Mg45 O44 2.028 . S
Mg45 O50 2.032 . S
Mg45 O52 2.079 . S
C46 O43 1.278 . S
C46 O44 1.248 . S
C47 O48 1.264 . S
C47 O55 1.249 . S
O48 C47 1.264 . S
O49 Mg42 1.986 1_455 S
O49 C53 1.246 . S
O50 Mg45 2.032 . S
O50 C53 1.259 . S
O51 Mg42 2.114 . S
O51 C54 1.252 . S
O52 Mg42 2.251 1_455 S
O52 Mg45 2.079 . S
O52 C54 1.273 1_455 S
C53 O49 1.246 . S
C53 O50 1.259 . S
C54 O51 1.252 . S
C54 O52 1.273 1_655 S
O55 Mg42 2.010 . S
O55 C47 1.249 . S
Mg56 O57 2.028 1_556 S
Mg56 O63 1.986 . S
Mg56 O65 2.114 . S
Mg56 O66 2.251 . S
Mg56 O69 2.010 1_556 S
O57 Mg56 2.028 1_554 S
O57 C60 1.250 . S
O58 Mg59 2.028 1_554 S
O58 C60 1.248 . S
Mg59 O58 2.028 1_556 S
Mg59 O64 2.032 . S
Mg59 O66 2.079 . S
C60 O57 1.250 . S
C60 O58 1.248 . S
C61 O62 1.264 . S
C61 O69 1.249 . S
O62 C61 1.264 . S
O63 Mg56 1.986 . S
O63 C67 1.246 . S
O64 Mg59 2.032 . S
O64 C67 1.259 . S
O65 Mg56 2.114 . S
O65 C68 1.252 . S
O66 Mg56 2.251 . S
O66 Mg59 2.079 . S
O66 C68 1.273 . S
C67 O63 1.246 . S
C67 O64 1.259 . S
C68 O65 1.252 . S
C68 O66 1.273 . S
O69 Mg56 2.010 1_554 S
O69 C61 1.249 . S
Mg70 O71 2.028 . S
Mg70 O77 1.986 1_545 S
Mg70 O79 2.114 . S
Mg70 O80 2.251 . S
Mg70 O83 2.010 . S
O71 Mg70 2.028 . S
O71 C74 1.252 . S
O72 Mg73 2.028 . S
O72 C74 1.244 1_565 S
Mg73 O72 2.028 . S
Mg73 O78 2.032 . S
Mg73 O80 2.079 1_565 S
C74 O71 1.252 . S
C74 O72 1.244 1_545 S
C75 O76 1.264 . S
C75 O83 1.249 . S
O76 C75 1.264 . S
O77 Mg70 1.986 1_565 S
O77 C81 1.246 . S
O78 Mg73 2.032 . S
O78 C81 1.259 . S
O79 Mg70 2.114 . S
O79 C82 1.252 . S
O80 Mg70 2.251 . S
O80 Mg73 2.079 1_545 S
O80 C82 1.273 . S
C81 O77 1.246 . S
C81 O78 1.259 . S
C82 O79 1.252 . S
C82 O80 1.273 . S
O83 Mg70 2.010 . S
O83 C75 1.249 . S
Mg84 O85 2.028 . S
Mg84 O91 1.986 . S
Mg84 O93 2.114 . S
Mg84 O94 2.251 . S
Mg84 O97 2.010 . S
O85 Mg84 2.028 . S
O85 C88 1.250 . S
O86 Mg87 2.028 . S
O86 C88 1.248 . S
Mg87 O86 2.028 . S
Mg87 O92 2.032 . S
Mg87 O94 2.079 . S
C88 O85 1.250 . S
C88 O86 1.248 . S
C89 O90 1.264 . S
C89 O97 1.249 . S
O90 C89 1.264 . S
O91 Mg84 1.986 . S
O91 C95 1.246 . S
O92 Mg87 2.032 . S
O92 C95 1.259 . S
O93 Mg84 2.114 . S
O93 C96 1.252 . S
O94 Mg84 2.251 . S
O94 Mg87 2.079 . S
O94 C96 1.273 . S
C95 O91 1.246 . S
C95 O92 1.259 . S
C96 O93 1.252 . S
C96 O94 1.273 . S
O97 Mg84 2.010 . S
O97 C89 1.249 . S
Mg98 O99 2.028 . S
Mg98 O105 1.986 . S
Mg98 O107 2.114 . S
Mg98 O108 2.251 . S
Mg98 O111 2.010 . S
O99 Mg98 2.028 . S
O99 C102 1.250 . S
O100 Mg101 2.028 . S
O100 C102 1.248 . S
Mg101 O100 2.028 . S
Mg101 O106 2.032 . S
Mg101 O108 2.079 . S
C102 O99 1.250 . S
C102 O100 1.248 . S
C103 O104 1.264 . S
C103 O111 1.249 . S
O104 C103 1.264 . S
O105 Mg98 1.986 . S
O105 C109 1.246 1_565 S
O106 Mg101 2.032 . S
O106 C109 1.259 1_565 S
O107 Mg98 2.114 . S
O107 C110 1.252 . S
O108 Mg98 2.251 . S
O108 Mg101 2.079 . S
O108 C110 1.273 . S
C109 O105 1.246 1_545 S
C109 O106 1.259 1_545 S
C110 O107 1.252 . S
C110 O108 1.273 . S
O111 Mg98 2.010 . S
O111 C103 1.249 . S
Mg112 O113 2.028 . S
Mg112 O119 1.986 . S
Mg112 O121 2.114 . S
Mg112 O122 2.251 . S
Mg112 O125 2.010 . S
O113 Mg112 2.028 . S
O113 C116 1.250 . S
O114 Mg115 2.028 . S
O114 C116 1.248 . S
Mg115 O114 2.028 . S
Mg115 O120 2.032 . S
Mg115 O122 2.079 . S
C116 O113 1.250 . S
C116 O114 1.248 . S
C117 O118 1.264 . S
C117 O125 1.249 1_655 S
O118 C117 1.264 . S
O119 Mg112 1.986 . S
O119 C123 1.246 . S
O120 Mg115 2.032 . S
O120 C123 1.259 . S
O121 Mg112 2.114 . S
O121 C124 1.252 . S
O122 Mg112 2.251 . S
O122 Mg115 2.079 . S
O122 C124 1.273 . S
C123 O119 1.246 . S
C123 O120 1.259 . S
C124 O121 1.252 . S
C124 O122 1.273 . S
O125 Mg112 2.010 . S
O125 C117 1.249 1_455 S
Mg126 O127 2.028 . S
Mg126 O133 1.986 . S
Mg126 O135 2.114 . S
Mg126 O136 2.251 . S
Mg126 O139 2.010 . S
O127 Mg126 2.028 . S
O127 C130 1.250 . S
O128 Mg129 2.028 . S
O128 C130 1.248 . S
Mg129 O128 2.028 . S
Mg129 O134 2.032 . S
Mg129 O136 2.079 . S
C130 O127 1.250 . S
C130 O128 1.248 . S
C131 O132 1.264 . S
C131 O139 1.249 . S
O132 C131 1.264 . S
O133 Mg126 1.986 . S
O133 C137 1.246 1_565 S
O134 Mg129 2.032 . S
O134 C137 1.259 1_565 S
O135 Mg126 2.114 . S
O135 C138 1.252 . S
O136 Mg126 2.251 . S
O136 Mg129 2.079 . S
O136 C138 1.273 . S
C137 O133 1.246 1_545 S
C137 O134 1.259 1_545 S
C138 O135 1.252 . S
C138 O136 1.273 . S
O139 Mg126 2.010 . S
O139 C131 1.249 . S
Mg140 O141 2.028 . S
Mg140 O147 1.986 . S
Mg140 O149 2.114 . S
Mg140 O150 2.251 . S
Mg140 O153 2.010 . S
O141 Mg140 2.028 . S
O141 C144 1.250 . S
O142 Mg143 2.028 . S
O142 C144 1.248 . S
Mg143 O142 2.028 . S
Mg143 O148 2.032 . S
Mg143 O150 2.079 . S
C144 O141 1.250 . S
C144 O142 1.248 . S
C145 O146 1.264 . S
C145 O153 1.249 1_655 S
O146 C145 1.264 . S
O147 Mg140 1.986 . S
O147 C151 1.246 . S
O148 Mg143 2.032 . S
O148 C151 1.259 . S
O149 Mg140 2.114 . S
O149 C152 1.252 . S
O150 Mg140 2.251 . S
O150 Mg143 2.079 . S
O150 C152 1.273 . S
C151 O147 1.246 . S
C151 O148 1.259 . S
C152 O149 1.252 . S
C152 O150 1.273 . S
O153 Mg140 2.010 . S
O153 C145 1.249 1_455 S
Mg154 O155 2.028 . S
Mg154 O161 1.986 . S
Mg154 O163 2.114 . S
Mg154 O164 2.251 . S
Mg154 O167 2.010 . S
O155 Mg154 2.028 . S
O155 C158 1.250 . S
O156 Mg157 2.028 . S
O156 C158 1.248 . S
Mg157 O156 2.028 . S
Mg157 O162 2.032 . S
Mg157 O164 2.079 . S
C158 O155 1.250 . S
C158 O156 1.248 . S
C159 O160 1.264 . S
C159 O167 1.249 . S
O160 C159 1.264 . S
O161 Mg154 1.986 . S
O161 C165 1.246 . S
O162 Mg157 2.032 . S
O162 C165 1.259 . S
O163 Mg154 2.114 . S
O163 C166 1.252 . S
O164 Mg154 2.251 . S
O164 Mg157 2.079 . S
O164 C166 1.273 . S
C165 O161 1.246 . S
C165 O162 1.259 . S
C166 O163 1.252 . S
C166 O164 1.273 . S
O167 Mg154 2.010 . S
O167 C159 1.249 . S
Mg168 O169 2.028 . S
Mg168 O175 1.986 . S
Mg168 O177 2.114 . S
Mg168 O178 2.251 . S
Mg168 O181 2.010 . S
O169 Mg168 2.028 . S
O169 C172 1.250 . S
O170 Mg171 2.028 . S
O170 C172 1.248 . S
Mg171 O170 2.028 . S
Mg171 O176 2.032 . S
Mg171 O178 2.079 . S
C172 O169 1.250 . S
C172 O170 1.248 . S
C173 O174 1.264 . S
C173 O181 1.249 . S
O174 C173 1.264 . S
O175 Mg168 1.986 . S
O175 C179 1.246 . S
O176 Mg171 2.032 . S
O176 C179 1.259 . S
O177 Mg168 2.114 . S
O177 C180 1.252 . S
O178 Mg168 2.251 . S
O178 Mg171 2.079 . S
O178 C180 1.273 . S
C179 O175 1.246 . S
C179 O176 1.259 . S
C180 O177 1.252 . S
C180 O178 1.273 . S
O181 Mg168 2.010 . S
O181 C173 1.249 . S
Mg182 O183 2.028 . S
Mg182 O189 1.986 . S
Mg182 O191 2.114 . S
Mg182 O192 2.251 . S
Mg182 O195 2.005 . S
O183 Mg182 2.028 . S
O183 C186 1.250 . S
O184 Mg185 2.028 . S
O184 C186 1.248 . S
Mg185 O184 2.028 . S
Mg185 O190 2.032 . S
Mg185 O192 2.079 . S
C186 O183 1.250 . S
C186 O184 1.248 . S
C187 O188 1.264 . S
C187 O195 1.254 1_455 S
O188 C187 1.264 . S
O189 Mg182 1.986 . S
O189 C193 1.246 . S
O190 Mg185 2.032 . S
O190 C193 1.259 . S
O191 Mg182 2.114 . S
O191 C194 1.252 . S
O192 Mg182 2.251 . S
O192 Mg185 2.079 . S
O192 C194 1.273 . S
C193 O189 1.246 . S
C193 O190 1.259 . S
C194 O191 1.252 . S
C194 O192 1.273 . S
O195 Mg182 2.005 . S
O195 C187 1.254 1_655 S
Mg196 O197 2.028 . S
Mg196 O203 1.986 . S
Mg196 O205 2.114 . S
Mg196 O206 2.251 . S
Mg196 O209 2.010 . S
O197 Mg196 2.028 . S
O197 C200 1.250 . S
O198 Mg199 2.028 . S
O198 C200 1.248 . S
Mg199 O198 2.028 . S
Mg199 O204 2.032 . S
Mg199 O206 2.079 . S
C200 O197 1.250 . S
C200 O198 1.248 . S
C201 O202 1.264 . S
C201 O209 1.249 . S
O202 C201 1.264 . S
O203 Mg196 1.986 . S
O203 C207 1.246 . S
O204 Mg199 2.032 . S
O204 C207 1.259 . S
O205 Mg196 2.114 . S
O205 C208 1.252 . S
O206 Mg196 2.251 . S
O206 Mg199 2.079 . S
O206 C208 1.273 . S
C207 O203 1.246 . S
C207 O204 1.259 . S
C208 O205 1.252 . S
C208 O206 1.273 . S
O209 Mg196 2.010 . S
O209 C201 1.249 . S
Mg210 O211 2.028 . S
Mg210 O217 1.986 . S
Mg210 O219 2.114 . S
Mg210 O220 2.251 . S
Mg210 O223 2.010 . S
O211 Mg210 2.028 . S
O211 C214 1.250 . S
O212 Mg213 2.028 . S
O212 C214 1.248 . S
Mg213 O212 2.028 . S
Mg213 O218 2.032 . S
Mg213 O220 2.079 . S
C214 O211 1.250 . S
C214 O212 1.248 . S
C215 O216 1.264 . S
C215 O223 1.249 . S
O216 C215 1.264 . S
O217 Mg210 1.986 . S
O217 C221 1.246 . S
O218 Mg213 2.032 . S
O218 C221 1.259 . S
O219 Mg210 2.114 . S
O219 C222 1.252 . S
O220 Mg210 2.251 . S
O220 Mg213 2.079 . S
O220 C222 1.273 . S
C221 O217 1.246 . S
C221 O218 1.259 . S
C222 O219 1.252 . S
C222 O220 1.273 . S
O223 Mg210 2.010 . S
O223 C215 1.249 . S
Mg224 O225 2.028 . S
Mg224 O231 1.986 . S
Mg224 O233 2.114 . S
Mg224 O234 2.251 . S
Mg224 O237 2.010 . S
O225 Mg224 2.028 . S
O225 C228 1.250 . S
O226 Mg227 2.028 . S
O226 C228 1.248 . S
Mg227 O226 2.028 . S
Mg227 O232 2.032 . S
Mg227 O234 2.079 . S
C228 O225 1.250 . S
C228 O226 1.248 . S
C229 O230 1.264 . S
C229 O237 1.249 . S
O230 C229 1.264 . S
O231 Mg224 1.986 . S
O231 C235 1.246 . S
O232 Mg227 2.032 . S
O232 C235 1.259 . S
O233 Mg224 2.114 . S
O233 C236 1.252 . S
O234 Mg224 2.251 . S
O234 Mg227 2.079 . S
O234 C236 1.273 . S
C235 O231 1.246 . S
C235 O232 1.259 . S
C236 O233 1.252 . S
C236 O234 1.273 . S
O237 Mg224 2.010 . S
O237 C229 1.249 . S
Mg238 O239 2.028 . S
Mg238 O245 1.986 . S
Mg238 O247 2.114 . S
Mg238 O248 2.251 . S
Mg238 O251 2.010 . S
O239 Mg238 2.028 . S
O239 C242 1.250 . S
O240 Mg241 2.028 . S
O240 C242 1.248 . S
Mg241 O240 2.028 . S
Mg241 O246 2.032 . S
Mg241 O248 2.079 . S
C242 O239 1.250 . S
C242 O240 1.248 . S
C243 O244 1.264 . S
C243 O251 1.249 1_455 S
O244 C243 1.264 . S
O245 Mg238 1.986 . S
O245 C249 1.246 . S
O246 Mg241 2.032 . S
O246 C249 1.259 . S
O247 Mg238 2.114 . S
O247 C250 1.252 . S
O248 Mg238 2.251 . S
O248 Mg241 2.079 . S
O248 C250 1.273 . S
C249 O245 1.246 . S
C249 O246 1.259 . S
C250 O247 1.252 . S
C250 O248 1.273 . S
O251 Mg238 2.010 . S
O251 C243 1.249 1_655 S
H252 O278 0.856 . S
H253 O281 0.854 . S
H254 C289 0.930 . S
H255 C290 0.930 . S
H256 C292 0.930 . S
H257 C293 0.930 . S
H258 C295 0.931 . S
H259 C296 0.930 . S
H260 C298 0.930 . S
H261 C299 0.929 . S
H262 C301 0.930 . S
H263 C302 0.931 . S
H264 C304 0.930 . S
H265 C305 0.929 . S
H266 C307 0.931 . S
H267 C308 0.930 . S
H268 C310 0.930 . S
H269 C311 0.932 . S
H270 C313 0.930 . S
H271 C314 0.929 . S
H272 C316 0.931 . S
H273 C317 0.930 . S
H274 C319 0.929 . S
H275 C320 0.931 . S
H276 C322 0.930 . S
H277 C323 0.929 . S
O278 H252 0.856 . S
O278 C324 1.300 . S
O279 C324 1.209 . S
O280 C325 1.199 . S
O281 H253 0.854 . S
O281 C325 1.297 . S
C282 C283 1.404 . S
C282 C287 1.397 . S
C282 C288 1.492 . S
C283 C282 1.404 . S
C283 C284 1.396 . S
C283 C294 1.492 . S
C284 C283 1.396 . S
C284 C285 1.397 . S
C284 C300 1.509 . S
C285 C284 1.397 . S
C285 C286 1.412 . S
C285 C306 1.485 . S
C286 C285 1.412 . S
C286 C287 1.388 . S
C286 C312 1.490 . S
C287 C282 1.397 . S
C287 C286 1.388 . S
C287 C318 1.519 . S
C288 C282 1.492 . S
C288 C289 1.363 . S
C288 C293 1.390 . S
C289 H254 0.930 . S
C289 C288 1.363 . S
C289 C290 1.372 . S
C290 H255 0.930 . S
C290 C289 1.372 . S
C290 C291 1.383 . S
C291 C290 1.383 . S
C291 C292 1.395 . S
C292 H256 0.930 . S
C292 C291 1.395 . S
C292 C293 1.362 . S
C293 H257 0.930 . S
C293 C288 1.390 . S
C293 C292 1.362 . S
C294 C283 1.492 . S
C294 C295 1.377 . S
C294 C299 1.397 . S
C295 H258 0.931 . S
C295 C294 1.377 . S
C295 C296 1.376 . S
C296 H259 0.930 . S
C296 C295 1.376 . S
C296 C297 1.376 . S
C297 C296 1.376 . S
C297 C298 1.378 . S
C297 C324 1.486 . S
C298 H260 0.930 . S
C298 C297 1.378 . S
C298 C299 1.376 . S
C299 H261 0.929 . S
C299 C294 1.397 . S
C299 C298 1.376 . S
C300 C284 1.509 . S
C300 C301 1.391 . S
C300 C305 1.386 . S
C301 H262 0.930 . S
C301 C300 1.391 . S
C301 C302 1.375 . S
C302 H263 0.931 . S
C302 C301 1.375 . S
C302 C303 1.375 . S
C303 C302 1.375 . S
C303 C304 1.361 . S
C304 H264 0.930 . S
C304 C303 1.361 . S
C304 C305 1.399 . S
C305 H265 0.929 . S
C305 C300 1.386 . S
C305 C304 1.399 . S
C306 C285 1.485 . S
C306 C307 1.394 . S
C306 C311 1.360 . S
C307 H266 0.931 . S
C307 C306 1.394 . S
C307 C308 1.372 . S
C308 H267 0.930 . S
C308 C307 1.372 . S
C308 C309 1.397 . S
C309 C308 1.397 . S
C309 C310 1.390 . S
C309 C325 1.476 . S
C310 H268 0.930 . S
C310 C309 1.390 . S
C310 C311 1.366 . S
C311 H269 0.932 . S
C311 C306 1.360 . S
C311 C310 1.366 . S
C312 C286 1.490 . S
C312 C313 1.380 . S
C312 C317 1.386 . S
C313 H270 0.930 . S
C313 C312 1.380 . S
C313 C314 1.381 . S
C314 H271 0.929 . S
C314 C313 1.381 . S
C314 C315 1.371 . S
C315 C314 1.371 . S
C315 C316 1.380 . S
C316 H272 0.931 . S
C316 C315 1.380 . S
C316 C317 1.387 . S
C317 H273 0.930 . S
C317 C312 1.386 . S
C317 C316 1.387 . S
C318 C287 1.519 . S
C318 C319 1.377 . S
C318 C323 1.361 . S
C319 H274 0.929 . S
C319 C318 1.377 . S
C319 C320 1.386 . S
C320 H275 0.931 . S
C320 C319 1.386 . S
C320 C321 1.363 . S
C321 C320 1.363 . S
C321 C322 1.385 . S
C322 H276 0.930 . S
C322 C321 1.385 . S
C322 C323 1.396 . S
C323 H277 0.929 . S
C323 C318 1.361 . S
C323 C322 1.396 . S
C324 O278 1.300 . S
C324 O279 1.209 . S
C324 C297 1.486 . S
C325 O280 1.199 . S
C325 O281 1.297 . S
C325 C309 1.476 . S
H326 O352 0.856 . S
H327 O355 0.813 1_545 S
H328 C363 0.930 . S
H329 C364 0.930 . S
H330 C366 0.930 . S
H331 C367 0.930 . S
H332 C369 0.931 . S
H333 C370 0.930 . S
H334 C372 0.930 . S
H335 C373 0.929 . S
H336 C375 0.930 . S
H337 C376 0.931 . S
H338 C378 0.930 . S
H339 C379 0.929 . S
H340 C381 0.931 . S
H341 C382 0.930 . S
H342 C384 0.930 . S
H343 C385 0.932 . S
H344 C387 0.930 . S
H345 C388 0.929 . S
H346 C390 0.931 . S
H347 C391 0.930 . S
H348 C393 0.929 . S
H349 C394 0.931 . S
H350 C396 0.930 . S
H351 C397 0.929 . S
O352 H326 0.856 . S
O352 C398 1.300 . S
O353 C398 1.209 . S
O354 C399 1.199 . S
O355 H327 0.813 1_565 S
O355 C399 1.297 . S
C356 C357 1.404 . S
C356 C361 1.397 . S
C356 C362 1.492 . S
C357 C356 1.404 . S
C357 C358 1.396 . S
C357 C368 1.492 . S
C358 C357 1.396 . S
C358 C359 1.397 . S
C358 C374 1.509 . S
C359 C358 1.397 . S
C359 C360 1.412 . S
C359 C380 1.485 . S
C360 C359 1.412 . S
C360 C361 1.388 . S
C360 C386 1.490 . S
C361 C356 1.397 . S
C361 C360 1.388 . S
C361 C392 1.519 . S
C362 C356 1.492 . S
C362 C363 1.363 . S
C362 C367 1.390 . S
C363 H328 0.930 . S
C363 C362 1.363 . S
C363 C364 1.372 . S
C364 H329 0.930 . S
C364 C363 1.372 . S
C364 C365 1.383 . S
C365 C364 1.383 . S
C365 C366 1.395 . S
C366 H330 0.930 . S
C366 C365 1.395 . S
C366 C367 1.362 . S
C367 H331 0.930 . S
C367 C362 1.390 . S
C367 C366 1.362 . S
C368 C357 1.492 . S
C368 C369 1.377 . S
C368 C373 1.397 . S
C369 H332 0.931 . S
C369 C368 1.377 . S
C369 C370 1.376 . S
C370 H333 0.930 . S
C370 C369 1.376 . S
C370 C371 1.376 . S
C371 C370 1.376 . S
C371 C372 1.378 . S
C371 C398 1.486 . S
C372 H334 0.930 . S
C372 C371 1.378 . S
C372 C373 1.376 . S
C373 H335 0.929 . S
C373 C368 1.397 . S
C373 C372 1.376 . S
C374 C358 1.509 . S
C374 C375 1.391 . S
C374 C379 1.386 . S
C375 H336 0.930 . S
C375 C374 1.391 . S
C375 C376 1.375 . S
C376 H337 0.931 . S
C376 C375 1.375 . S
C376 C377 1.375 . S
C377 C376 1.375 . S
C377 C378 1.361 . S
C378 H338 0.930 . S
C378 C377 1.361 . S
C378 C379 1.399 . S
C379 H339 0.929 . S
C379 C374 1.386 . S
C379 C378 1.399 . S
C380 C359 1.485 . S
C380 C381 1.394 . S
C380 C385 1.360 . S
C381 H340 0.931 . S
C381 C380 1.394 . S
C381 C382 1.372 . S
C382 H341 0.930 . S
C382 C381 1.372 . S
C382 C383 1.397 . S
C383 C382 1.397 . S
C383 C384 1.390 . S
C383 C399 1.476 . S
C384 H342 0.930 . S
C384 C383 1.390 . S
C384 C385 1.366 . S
C385 H343 0.932 . S
C385 C380 1.360 . S
C385 C384 1.366 . S
C386 C360 1.490 . S
C386 C387 1.380 . S
C386 C391 1.386 . S
C387 H344 0.930 . S
C387 C386 1.380 . S
C387 C388 1.381 . S
C388 H345 0.929 . S
C388 C387 1.381 . S
C388 C389 1.371 . S
C389 C388 1.371 . S
C389 C390 1.380 . S
C390 H346 0.931 . S
C390 C389 1.380 . S
C390 C391 1.387 . S
C391 H347 0.930 . S
C391 C386 1.386 . S
C391 C390 1.387 . S
C392 C361 1.519 . S
C392 C393 1.377 . S
C392 C397 1.361 . S
C393 H348 0.929 . S
C393 C392 1.377 . S
C393 C394 1.386 . S
C394 H349 0.931 . S
C394 C393 1.386 . S
C394 C395 1.363 . S
C395 C394 1.363 . S
C395 C396 1.385 . S
C396 H350 0.930 . S
C396 C395 1.385 . S
C396 C397 1.396 . S
C397 H351 0.929 . S
C397 C392 1.361 . S
C397 C396 1.396 . S
C398 O352 1.300 . S
C398 O353 1.209 . S
C398 C371 1.486 . S
C399 O354 1.199 . S
C399 O355 1.297 . S
C399 C383 1.476 . S
H400 O426 0.856 . S
H401 O429 0.854 . S
H402 C437 0.930 . S
H403 C438 0.930 . S
H404 C440 0.930 . S
H405 C441 0.930 . S
H406 C443 0.931 . S
H407 C444 0.930 . S
H408 C446 0.930 . S
H409 C447 0.929 . S
H410 C449 0.930 . S
H411 C450 0.931 . S
H412 C452 0.930 . S
H413 C453 0.929 . S
H414 C455 0.931 . S
H415 C456 0.930 . S
H416 C458 0.930 . S
H417 C459 0.932 . S
H418 C461 0.930 . S
H419 C462 0.929 . S
H420 C464 0.931 . S
H421 C465 0.930 . S
H422 C467 0.929 . S
H423 C468 0.931 . S
H424 C470 0.930 . S
H425 C471 0.929 . S
O426 H400 0.856 . S
O426 C472 1.300 . S
O427 C472 1.209 . S
O428 C473 1.199 . S
O429 H401 0.854 . S
O429 C473 1.297 . S
C430 C431 1.404 . S
C430 C435 1.397 . S
C430 C436 1.492 . S
C431 C430 1.404 . S
C431 C432 1.396 . S
C431 C442 1.492 . S
C432 C431 1.396 . S
C432 C433 1.397 . S
C432 C448 1.509 . S
C433 C432 1.397 . S
C433 C434 1.412 . S
C433 C454 1.485 . S
C434 C433 1.412 . S
C434 C435 1.388 . S
C434 C460 1.490 . S
C435 C430 1.397 . S
C435 C434 1.388 . S
C435 C466 1.519 . S
C436 C430 1.492 . S
C436 C437 1.363 . S
C436 C441 1.390 . S
C437 H402 0.930 . S
C437 C436 1.363 . S
C437 C438 1.372 . S
C438 H403 0.930 . S
C438 C437 1.372 . S
C438 C439 1.383 . S
C439 C438 1.383 . S
C439 C440 1.395 . S
C440 H404 0.930 . S
C440 C439 1.395 . S
C440 C441 1.362 . S
C441 H405 0.930 . S
C441 C436 1.390 . S
C441 C440 1.362 . S
C442 C431 1.492 . S
C442 C443 1.377 . S
C442 C447 1.397 . S
C443 H406 0.931 . S
C443 C442 1.377 . S
C443 C444 1.376 . S
C444 H407 0.930 . S
C444 C443 1.376 . S
C444 C445 1.376 . S
C445 C444 1.376 . S
C445 C446 1.378 . S
C445 C472 1.486 . S
C446 H408 0.930 . S
C446 C445 1.378 . S
C446 C447 1.376 . S
C447 H409 0.929 . S
C447 C442 1.397 . S
C447 C446 1.376 . S
C448 C432 1.509 . S
C448 C449 1.391 . S
C448 C453 1.386 . S
C449 H410 0.930 . S
C449 C448 1.391 . S
C449 C450 1.375 . S
C450 H411 0.931 . S
C450 C449 1.375 . S
C450 C451 1.375 . S
C451 C450 1.375 . S
C451 C452 1.361 . S
C452 H412 0.930 . S
C452 C451 1.361 . S
C452 C453 1.399 . S
C453 H413 0.929 . S
C453 C448 1.386 . S
C453 C452 1.399 . S
C454 C433 1.485 . S
C454 C455 1.394 . S
C454 C459 1.360 . S
C455 H414 0.931 . S
C455 C454 1.394 . S
C455 C456 1.372 . S
C456 H415 0.930 . S
C456 C455 1.372 . S
C456 C457 1.397 . S
C457 C456 1.397 . S
C457 C458 1.390 . S
C457 C473 1.476 . S
C458 H416 0.930 . S
C458 C457 1.390 . S
C458 C459 1.366 . S
C459 H417 0.932 . S
C459 C454 1.360 . S
C459 C458 1.366 . S
C460 C434 1.490 . S
C460 C461 1.380 . S
C460 C465 1.386 . S
C461 H418 0.930 . S
C461 C460 1.380 . S
C461 C462 1.381 . S
C462 H419 0.929 . S
C462 C461 1.381 . S
C462 C463 1.371 . S
C463 C462 1.371 . S
C463 C464 1.380 . S
C464 H420 0.931 . S
C464 C463 1.380 . S
C464 C465 1.387 . S
C465 H421 0.930 . S
C465 C460 1.386 . S
C465 C464 1.387 . S
C466 C435 1.519 . S
C466 C467 1.377 . S
C466 C471 1.361 . S
C467 H422 0.929 . S
C467 C466 1.377 . S
C467 C468 1.386 . S
C468 H423 0.931 . S
C468 C467 1.386 . S
C468 C469 1.363 . S
C469 C468 1.363 . S
C469 C470 1.385 . S
C470 H424 0.930 . S
C470 C469 1.385 . S
C470 C471 1.396 . S
C471 H425 0.929 . S
C471 C466 1.361 . S
C471 C470 1.396 . S
C472 O426 1.300 . S
C472 O427 1.209 . S
C472 C445 1.486 . S
C473 O428 1.199 . S
C473 O429 1.297 . S
C473 C457 1.476 . S
H474 O500 0.856 . S
H475 O503 0.854 . S
H476 C511 0.930 . S
H477 C512 0.930 . S
H478 C514 0.930 . S
H479 C515 0.930 . S
H480 C517 0.931 . S
H481 C518 0.930 . S
H482 C520 0.930 . S
H483 C521 0.929 . S
H484 C523 0.930 . S
H485 C524 0.931 . S
H486 C526 0.930 . S
H487 C527 0.929 . S
H488 C529 0.931 . S
H489 C530 0.930 . S
H490 C532 0.930 . S
H491 C533 0.932 . S
H492 C535 0.930 . S
H493 C536 0.929 . S
H494 C538 0.931 . S
H495 C539 0.930 . S
H496 C541 0.929 . S
H497 C542 0.931 . S
H498 C544 0.930 . S
H499 C545 0.929 . S
O500 H474 0.856 . S
O500 C546 1.300 . S
O501 C546 1.209 . S
O502 C547 1.199 . S
O503 H475 0.854 . S
O503 C547 1.297 . S
C504 C505 1.404 . S
C504 C509 1.397 . S
C504 C510 1.492 . S
C505 C504 1.404 . S
C505 C506 1.396 . S
C505 C516 1.492 . S
C506 C505 1.396 . S
C506 C507 1.397 . S
C506 C522 1.509 . S
C507 C506 1.397 . S
C507 C508 1.412 . S
C507 C528 1.485 . S
C508 C507 1.412 . S
C508 C509 1.388 . S
C508 C534 1.490 . S
C509 C504 1.397 . S
C509 C508 1.388 . S
C509 C540 1.519 . S
C510 C504 1.492 . S
C510 C511 1.363 . S
C510 C515 1.390 . S
C511 H476 0.930 . S
C511 C510 1.363 . S
C511 C512 1.372 . S
C512 H477 0.930 . S
C512 C511 1.372 . S
C512 C513 1.383 . S
C513 C512 1.383 . S
C513 C514 1.395 . S
C514 H478 0.930 . S
C514 C513 1.395 . S
C514 C515 1.362 . S
C515 H479 0.930 . S
C515 C510 1.390 . S
C515 C514 1.362 . S
C516 C505 1.492 . S
C516 C517 1.377 . S
C516 C521 1.397 . S
C517 H480 0.931 . S
C517 C516 1.377 . S
C517 C518 1.376 . S
C518 H481 0.930 . S
C518 C517 1.376 . S
C518 C519 1.376 . S
C519 C518 1.376 . S
C519 C520 1.378 . S
C519 C546 1.486 1_556 S
C520 H482 0.930 . S
C520 C519 1.378 . S
C520 C521 1.376 . S
C521 H483 0.929 . S
C521 C516 1.397 . S
C521 C520 1.376 . S
C522 C506 1.509 . S
C522 C523 1.391 . S
C522 C527 1.386 . S
C523 H484 0.930 . S
C523 C522 1.391 . S
C523 C524 1.375 . S
C524 H485 0.931 . S
C524 C523 1.375 . S
C524 C525 1.375 . S
C525 C524 1.375 . S
C525 C526 1.361 . S
C526 H486 0.930 . S
C526 C525 1.361 . S
C526 C527 1.399 . S
C527 H487 0.929 . S
C527 C522 1.386 . S
C527 C526 1.399 . S
C528 C507 1.485 . S
C528 C529 1.394 . S
C528 C533 1.360 . S
C529 H488 0.931 . S
C529 C528 1.394 . S
C529 C530 1.372 . S
C530 H489 0.930 . S
C530 C529 1.372 . S
C530 C531 1.397 . S
C531 C530 1.397 . S
C531 C532 1.390 . S
C531 C547 1.476 . S
C532 H490 0.930 . S
C532 C531 1.390 . S
C532 C533 1.366 . S
C533 H491 0.932 . S
C533 C528 1.360 . S
C533 C532 1.366 . S
C534 C508 1.490 . S
C534 C535 1.380 . S
C534 C539 1.386 . S
C535 H492 0.930 . S
C535 C534 1.380 . S
C535 C536 1.381 . S
C536 H493 0.929 . S
C536 C535 1.381 . S
C536 C537 1.371 . S
C537 C536 1.371 . S
C537 C538 1.380 . S
C538 H494 0.931 . S
C538 C537 1.380 . S
C538 C539 1.387 . S
C539 H495 0.930 . S
C539 C534 1.386 . S
C539 C538 1.387 . S
C540 C509 1.519 . S
C540 C541 1.377 . S
C540 C545 1.361 . S
C541 H496 0.929 . S
C541 C540 1.377 . S
C541 C542 1.386 . S
C542 H497 0.931 . S
C542 C541 1.386 . S
C542 C543 1.363 . S
C543 C542 1.363 . S
C543 C544 1.385 . S
C544 H498 0.930 . S
C544 C543 1.385 . S
C544 C545 1.396 . S
C545 H499 0.929 . S
C545 C540 1.361 . S
C545 C544 1.396 . S
C546 O500 1.300 . S
C546 O501 1.209 . S
C546 C519 1.486 1_554 S
C547 O502 1.199 . S
C547 O503 1.297 . S
C547 C531 1.476 . S
H548 O574 0.856 . S
H549 O577 0.854 . S
H550 C585 0.930 . S
H551 C586 0.930 . S
H552 C588 0.930 . S
H553 C589 0.930 . S
H554 C591 0.931 . S
H555 C592 0.930 . S
H556 C594 0.930 . S
H557 C595 0.929 . S
H558 C597 0.930 . S
H559 C598 0.931 . S
H560 C600 0.930 . S
H561 C601 0.929 . S
H562 C603 0.931 . S
H563 C604 0.930 . S
H564 C606 0.930 . S
H565 C607 0.932 . S
H566 C609 0.930 . S
H567 C610 0.929 . S
H568 C612 0.931 . S
H569 C613 0.930 . S
H570 C615 0.929 . S
H571 C616 0.931 . S
H572 C618 0.930 . S
H573 C619 0.929 . S
O574 H548 0.856 . S
O574 C620 1.300 . S
O575 C620 1.209 . S
O576 C621 1.199 . S
O577 H549 0.854 . S
O577 C621 1.297 . S
C578 C579 1.404 . S
C578 C583 1.397 . S
C578 C584 1.492 . S
C579 C578 1.404 . S
C579 C580 1.396 . S
C579 C590 1.492 . S
C580 C579 1.396 . S
C580 C581 1.397 . S
C580 C596 1.509 . S
C581 C580 1.397 . S
C581 C582 1.412 . S
C581 C602 1.485 . S
C582 C581 1.412 . S
C582 C583 1.388 . S
C582 C608 1.490 . S
C583 C578 1.397 . S
C583 C582 1.388 . S
C583 C614 1.519 . S
C584 C578 1.492 . S
C584 C585 1.363 . S
C584 C589 1.390 . S
C585 H550 0.930 . S
C585 C584 1.363 . S
C585 C586 1.372 . S
C586 H551 0.930 . S
C586 C585 1.372 . S
C586 C587 1.383 . S
C587 C586 1.383 . S
C587 C588 1.395 . S
C588 H552 0.930 . S
C588 C587 1.395 . S
C588 C589 1.362 . S
C589 H553 0.930 . S
C589 C584 1.390 . S
C589 C588 1.362 . S
C590 C579 1.492 . S
C590 C591 1.377 . S
C590 C595 1.397 . S
C591 H554 0.931 . S
C591 C590 1.377 . S
C591 C592 1.376 . S
C592 H555 0.930 . S
C592 C591 1.376 . S
C592 C593 1.376 . S
C593 C592 1.376 . S
C593 C594 1.378 . S
C593 C620 1.486 1_556 S
C594 H556 0.930 . S
C594 C593 1.378 . S
C594 C595 1.376 . S
C595 H557 0.929 . S
C595 C590 1.397 . S
C595 C594 1.376 . S
C596 C580 1.509 . S
C596 C597 1.391 . S
C596 C601 1.386 . S
C597 H558 0.930 . S
C597 C596 1.391 . S
C597 C598 1.375 . S
C598 H559 0.931 . S
C598 C597 1.375 . S
C598 C599 1.375 . S
C599 C598 1.375 . S
C599 C600 1.361 . S
C600 H560 0.930 . S
C600 C599 1.361 . S
C600 C601 1.399 . S
C601 H561 0.929 . S
C601 C596 1.386 . S
C601 C600 1.399 . S
C602 C581 1.485 . S
C602 C603 1.394 . S
C602 C607 1.360 . S
C603 H562 0.931 . S
C603 C602 1.394 . S
C603 C604 1.372 . S
C604 H563 0.930 . S
C604 C603 1.372 . S
C604 C605 1.397 . S
C605 C604 1.397 . S
C605 C606 1.390 . S
C605 C621 1.476 . S
C606 H564 0.930 . S
C606 C605 1.390 . S
C606 C607 1.366 . S
C607 H565 0.932 . S
C607 C602 1.360 . S
C607 C606 1.366 . S
C608 C582 1.490 . S
C608 C609 1.380 . S
C608 C613 1.386 . S
C609 H566 0.930 . S
C609 C608 1.380 . S
C609 C610 1.381 . S
C610 H567 0.929 . S
C610 C609 1.381 . S
C610 C611 1.371 . S
C611 C610 1.371 . S
C611 C612 1.380 . S
C612 H568 0.931 . S
C612 C611 1.380 . S
C612 C613 1.387 . S
C613 H569 0.930 . S
C613 C608 1.386 . S
C613 C612 1.387 . S
C614 C583 1.519 . S
C614 C615 1.377 . S
C614 C619 1.361 . S
C615 H570 0.929 . S
C615 C614 1.377 . S
C615 C616 1.386 . S
C616 H571 0.931 . S
C616 C615 1.386 . S
C616 C617 1.363 . S
C617 C616 1.363 . S
C617 C618 1.385 . S
C618 H572 0.930 . S
C618 C617 1.385 . S
C618 C619 1.396 . S
C619 H573 0.929 . S
C619 C614 1.361 . S
C619 C618 1.396 . S
C620 O574 1.300 . S
C620 O575 1.209 . S
C620 C593 1.486 1_554 S
C621 O576 1.199 . S
C621 O577 1.297 . S
C621 C605 1.476 . S
H622 O648 0.856 . S
H623 O651 0.854 . S
H624 C659 0.930 . S
H625 C660 0.930 . S
H626 C662 0.930 . S
H627 C663 0.930 . S
H628 C665 0.931 . S
H629 C666 0.930 . S
H630 C668 0.930 . S
H631 C669 0.929 . S
H632 C671 0.930 . S
H633 C672 0.931 . S
H634 C674 0.930 . S
H635 C675 0.929 . S
H636 C677 0.931 . S
H637 C678 0.930 . S
H638 C680 0.930 . S
H639 C681 0.932 . S
H640 C683 0.930 . S
H641 C684 0.929 . S
H642 C686 0.931 . S
H643 C687 0.930 . S
H644 C689 0.929 . S
H645 C690 0.931 . S
H646 C692 0.930 . S
H647 C693 0.929 . S
O648 H622 0.856 . S
O648 C694 1.300 . S
O649 C694 1.209 . S
O650 C695 1.199 . S
O651 H623 0.854 . S
O651 C695 1.297 . S
C652 C653 1.404 . S
C652 C657 1.397 . S
C652 C658 1.492 . S
C653 C652 1.404 . S
C653 C654 1.396 . S
C653 C664 1.492 . S
C654 C653 1.396 . S
C654 C655 1.397 . S
C654 C670 1.509 . S
C655 C654 1.397 . S
C655 C656 1.412 . S
C655 C676 1.485 . S
C656 C655 1.412 . S
C656 C657 1.388 . S
C656 C682 1.490 . S
C657 C652 1.397 . S
C657 C656 1.388 . S
C657 C688 1.519 . S
C658 C652 1.492 . S
C658 C659 1.363 . S
C658 C663 1.390 . S
C659 H624 0.930 . S
C659 C658 1.363 . S
C659 C660 1.372 . S
C660 H625 0.930 . S
C660 C659 1.372 . S
C660 C661 1.383 . S
C661 C660 1.383 . S
C661 C662 1.395 . S
C662 H626 0.930 . S
C662 C661 1.395 . S
C662 C663 1.362 . S
C663 H627 0.930 . S
C663 C658 1.390 . S
C663 C662 1.362 . S
C664 C653 1.492 . S
C664 C665 1.377 . S
C664 C669 1.397 . S
C665 H628 0.931 . S
C665 C664 1.377 . S
C665 C666 1.376 1_556 S
C666 H629 0.930 . S
C666 C665 1.376 1_554 S
C666 C667 1.376 . S
C667 C666 1.376 . S
C667 C668 1.378 1_554 S
C667 C694 1.486 . S
C668 H630 0.930 . S
C668 C667 1.378 1_556 S
C668 C669 1.376 . S
C669 H631 0.929 . S
C669 C664 1.397 . S
C669 C668 1.376 . S
C670 C654 1.509 . S
C670 C671 1.391 . S
C670 C675 1.386 . S
C671 H632 0.930 . S
C671 C670 1.391 . S
C671 C672 1.375 . S
C672 H633 0.931 . S
C672 C671 1.375 . S
C672 C673 1.375 . S
C673 C672 1.375 . S
C673 C674 1.361 . S
C674 H634 0.930 . S
C674 C673 1.361 . S
C674 C675 1.399 . S
C675 H635 0.929 . S
C675 C670 1.386 . S
C675 C674 1.399 . S
C676 C655 1.485 . S
C676 C677 1.394 . S
C676 C681 1.360 . S
C677 H636 0.931 . S
C677 C676 1.394 . S
C677 C678 1.372 . S
C678 H637 0.930 . S
C678 C677 1.372 . S
C678 C679 1.397 . S
C679 C678 1.397 . S
C679 C680 1.390 . S
C679 C695 1.476 . S
C680 H638 0.930 . S
C680 C679 1.390 . S
C680 C681 1.366 . S
C681 H639 0.932 . S
C681 C676 1.360 . S
C681 C680 1.366 . S
C682 C656 1.490 . S
C682 C683 1.380 . S
C682 C687 1.386 . S
C683 H640 0.930 . S
C683 C682 1.380 . S
C683 C684 1.381 . S
C684 H641 0.929 . S
C684 C683 1.381 . S
C684 C685 1.371 . S
C685 C684 1.371 . S
C685 C686 1.380 . S
C686 H642 0.931 . S
C686 C685 1.380 . S
C686 C687 1.387 . S
C687 H643 0.930 . S
C687 C682 1.386 . S
C687 C686 1.387 . S
C688 C657 1.519 . S
C688 C689 1.377 . S
C688 C693 1.361 . S
C689 H644 0.929 . S
C689 C688 1.377 . S
C689 C690 1.386 . S
C690 H645 0.931 . S
C690 C689 1.386 . S
C690 C691 1.363 . S
C691 C690 1.363 . S
C691 C692 1.385 . S
C692 H646 0.930 . S
C692 C691 1.385 . S
C692 C693 1.396 . S
C693 H647 0.929 . S
C693 C688 1.361 . S
C693 C692 1.396 . S
C694 O648 1.300 . S
C694 O649 1.209 . S
C694 C667 1.486 . S
C695 O650 1.199 . S
C695 O651 1.297 . S
C695 C679 1.476 . S
H696 O722 0.856 . S
H697 O725 0.854 . S
H698 C733 0.930 . S
H699 C734 0.930 . S
H700 C736 0.930 . S
H701 C737 0.930 . S
H702 C739 0.931 . S
H703 C740 0.930 . S
H704 C742 0.930 . S
H705 C743 0.929 . S
H706 C745 0.930 . S
H707 C746 0.931 . S
H708 C748 0.930 . S
H709 C749 0.929 . S
H710 C751 0.931 . S
H711 C752 0.930 . S
H712 C754 0.930 . S
H713 C755 0.932 . S
H714 C757 0.930 . S
H715 C758 0.929 . S
H716 C760 0.931 . S
H717 C761 0.930 . S
H718 C763 0.929 . S
H719 C764 0.931 . S
H720 C766 0.930 . S
H721 C767 0.929 . S
O722 H696 0.856 . S
O722 C768 1.300 . S
O723 C768 1.209 . S
O724 C769 1.199 . S
O725 H697 0.854 . S
O725 C769 1.297 . S
C726 C727 1.404 . S
C726 C731 1.397 . S
C726 C732 1.492 . S
C727 C726 1.404 . S
C727 C728 1.396 . S
C727 C738 1.492 . S
C728 C727 1.396 . S
C728 C729 1.397 . S
C728 C744 1.509 . S
C729 C728 1.397 . S
C729 C730 1.412 . S
C729 C750 1.485 . S
C730 C729 1.412 . S
C730 C731 1.388 . S
C730 C756 1.490 . S
C731 C726 1.397 . S
C731 C730 1.388 . S
C731 C762 1.519 . S
C732 C726 1.492 . S
C732 C733 1.363 . S
C732 C737 1.390 . S
C733 H698 0.930 . S
C733 C732 1.363 . S
C733 C734 1.372 . S
C734 H699 0.930 . S
C734 C733 1.372 . S
C734 C735 1.383 . S
C735 C734 1.383 . S
C735 C736 1.395 . S
C736 H700 0.930 . S
C736 C735 1.395 . S
C736 C737 1.362 . S
C737 H701 0.930 . S
C737 C732 1.390 . S
C737 C736 1.362 . S
C738 C727 1.492 . S
C738 C739 1.377 . S
C738 C743 1.397 . S
C739 H702 0.931 . S
C739 C738 1.377 . S
C739 C740 1.376 . S
C740 H703 0.930 . S
C740 C739 1.376 . S
C740 C741 1.376 . S
C741 C740 1.376 . S
C741 C742 1.378 . S
C741 C768 1.486 . S
C742 H704 0.930 . S
C742 C741 1.378 . S
C742 C743 1.376 . S
C743 H705 0.929 . S
C743 C738 1.397 . S
C743 C742 1.376 . S
C744 C728 1.509 . S
C744 C745 1.391 . S
C744 C749 1.386 . S
C745 H706 0.930 . S
C745 C744 1.391 . S
C745 C746 1.375 . S
C746 H707 0.931 . S
C746 C745 1.375 . S
C746 C747 1.375 . S
C747 C746 1.375 . S
C747 C748 1.361 . S
C748 H708 0.930 . S
C748 C747 1.361 . S
C748 C749 1.399 . S
C749 H709 0.929 . S
C749 C744 1.386 . S
C749 C748 1.399 . S
C750 C729 1.485 . S
C750 C751 1.394 . S
C750 C755 1.360 . S
C751 H710 0.931 . S
C751 C750 1.394 . S
C751 C752 1.372 . S
C752 H711 0.930 . S
C752 C751 1.372 . S
C752 C753 1.397 . S
C753 C752 1.397 . S
C753 C754 1.390 . S
C753 C769 1.476 . S
C754 H712 0.930 . S
C754 C753 1.390 . S
C754 C755 1.366 . S
C755 H713 0.932 . S
C755 C750 1.360 . S
C755 C754 1.366 . S
C756 C730 1.490 . S
C756 C757 1.380 . S
C756 C761 1.386 . S
C757 H714 0.930 . S
C757 C756 1.380 . S
C757 C758 1.381 . S
C758 H715 0.929 . S
C758 C757 1.381 . S
C758 C759 1.371 . S
C759 C758 1.371 . S
C759 C760 1.380 . S
C760 H716 0.931 . S
C760 C759 1.380 . S
C760 C761 1.387 . S
C761 H717 0.930 . S
C761 C756 1.386 . S
C761 C760 1.387 . S
C762 C731 1.519 . S
C762 C763 1.377 . S
C762 C767 1.361 . S
C763 H718 0.929 . S
C763 C762 1.377 . S
C763 C764 1.386 . S
C764 H719 0.931 . S
C764 C763 1.386 . S
C764 C765 1.363 . S
C765 C764 1.363 . S
C765 C766 1.385 . S
C766 H720 0.930 . S
C766 C765 1.385 . S
C766 C767 1.396 . S
C767 H721 0.929 . S
C767 C762 1.361 . S
C767 C766 1.396 . S
C768 O722 1.300 . S
C768 O723 1.209 . S
C768 C741 1.486 . S
C769 O724 1.199 . S
C769 O725 1.297 . S
C769 C753 1.476 . S
H770 O796 0.856 . S
H771 O799 0.854 . S
H772 C807 0.930 . S
H773 C808 0.930 . S
H774 C810 0.930 . S
H775 C811 0.930 . S
H776 C813 0.931 . S
H777 C814 0.930 . S
H778 C816 0.930 . S
H779 C817 0.929 . S
H780 C819 0.930 . S
H781 C820 0.931 . S
H782 C822 0.930 . S
H783 C823 0.929 . S
H784 C825 0.931 . S
H785 C826 0.930 . S
H786 C828 0.930 . S
H787 C829 0.932 . S
H788 C831 0.930 . S
H789 C832 0.929 . S
H790 C834 0.931 . S
H791 C835 0.930 . S
H792 C837 0.929 . S
H793 C838 0.931 . S
H794 C840 0.930 . S
H795 C841 0.929 . S
O796 H770 0.856 . S
O796 C842 1.300 . S
O797 C842 1.209 . S
O798 C843 1.199 . S
O799 H771 0.854 . S
O799 C843 1.297 . S
C800 C801 1.404 . S
C800 C805 1.397 . S
C800 C806 1.492 . S
C801 C800 1.404 . S
C801 C802 1.396 . S
C801 C812 1.492 . S
C802 C801 1.396 . S
C802 C803 1.397 . S
C802 C818 1.509 . S
C803 C802 1.397 . S
C803 C804 1.412 . S
C803 C824 1.485 . S
C804 C803 1.412 . S
C804 C805 1.388 . S
C804 C830 1.490 . S
C805 C800 1.397 . S
C805 C804 1.388 . S
C805 C836 1.519 . S
C806 C800 1.492 . S
C806 C807 1.363 . S
C806 C811 1.390 . S
C807 H772 0.930 . S
C807 C806 1.363 . S
C807 C808 1.372 . S
C808 H773 0.930 . S
C808 C807 1.372 . S
C808 C809 1.383 . S
C809 C808 1.383 . S
C809 C810 1.395 . S
C810 H774 0.930 . S
C810 C809 1.395 . S
C810 C811 1.362 . S
C811 H775 0.930 . S
C811 C806 1.390 . S
C811 C810 1.362 . S
C812 C801 1.492 . S
C812 C813 1.377 . S
C812 C817 1.397 . S
C813 H776 0.931 . S
C813 C812 1.377 . S
C813 C814 1.376 . S
C814 H777 0.930 . S
C814 C813 1.376 . S
C814 C815 1.376 . S
C815 C814 1.376 . S
C815 C816 1.378 . S
C815 C842 1.486 . S
C816 H778 0.930 . S
C816 C815 1.378 . S
C816 C817 1.376 . S
C817 H779 0.929 . S
C817 C812 1.397 . S
C817 C816 1.376 . S
C818 C802 1.509 . S
C818 C819 1.391 . S
C818 C823 1.386 . S
C819 H780 0.930 . S
C819 C818 1.391 . S
C819 C820 1.375 . S
C820 H781 0.931 . S
C820 C819 1.375 . S
C820 C821 1.375 . S
C821 C820 1.375 . S
C821 C822 1.361 . S
C822 H782 0.930 . S
C822 C821 1.361 . S
C822 C823 1.399 . S
C823 H783 0.929 . S
C823 C818 1.386 . S
C823 C822 1.399 . S
C824 C803 1.485 . S
C824 C825 1.394 . S
C824 C829 1.360 . S
C825 H784 0.931 . S
C825 C824 1.394 . S
C825 C826 1.372 . S
C826 H785 0.930 . S
C826 C825 1.372 . S
C826 C827 1.397 . S
C827 C826 1.397 . S
C827 C828 1.390 . S
C827 C843 1.476 . S
C828 H786 0.930 . S
C828 C827 1.390 . S
C828 C829 1.366 . S
C829 H787 0.932 . S
C829 C824 1.360 . S
C829 C828 1.366 . S
C830 C804 1.490 . S
C830 C831 1.380 . S
C830 C835 1.386 . S
C831 H788 0.930 . S
C831 C830 1.380 . S
C831 C832 1.381 . S
C832 H789 0.929 . S
C832 C831 1.381 . S
C832 C833 1.371 . S
C833 C832 1.371 . S
C833 C834 1.380 . S
C834 H790 0.931 . S
C834 C833 1.380 . S
C834 C835 1.387 . S
C835 H791 0.930 . S
C835 C830 1.386 . S
C835 C834 1.387 . S
C836 C805 1.519 . S
C836 C837 1.377 . S
C836 C841 1.361 . S
C837 H792 0.929 . S
C837 C836 1.377 . S
C837 C838 1.386 . S
C838 H793 0.931 . S
C838 C837 1.386 . S
C838 C839 1.363 . S
C839 C838 1.363 . S
C839 C840 1.385 . S
C840 H794 0.930 . S
C840 C839 1.385 . S
C840 C841 1.396 . S
C841 H795 0.929 . S
C841 C836 1.361 . S
C841 C840 1.396 . S
C842 O796 1.300 . S
C842 O797 1.209 . S
C842 C815 1.486 . S
C843 O798 1.199 . S
C843 O799 1.297 . S
C843 C827 1.476 . S
H844 O870 0.856 . S
H845 O873 0.854 . S
H846 C881 0.930 . S
H847 C882 0.930 . S
H848 C884 0.930 . S
H849 C885 0.930 . S
H850 C887 0.931 . S
H851 C888 0.930 . S
H852 C890 0.930 . S
H853 C891 0.929 . S
H854 C893 0.930 . S
H855 C894 0.931 . S
H856 C896 0.930 . S
H857 C897 0.929 . S
H858 C899 0.931 . S
H859 C900 0.930 . S
H860 C902 0.930 . S
H861 C903 0.932 . S
H862 C905 0.930 . S
H863 C906 0.929 . S
H864 C908 0.931 . S
H865 C909 0.930 . S
H866 C911 0.929 . S
H867 C912 0.931 . S
H868 C914 0.930 . S
H869 C915 0.929 . S
O870 H844 0.856 . S
O870 C916 1.300 . S
O871 C916 1.209 . S
O872 C917 1.199 . S
O873 H845 0.854 . S
O873 C917 1.297 . S
C874 C875 1.404 . S
C874 C879 1.397 . S
C874 C880 1.492 . S
C875 C874 1.404 . S
C875 C876 1.396 . S
C875 C886 1.492 . S
C876 C875 1.396 . S
C876 C877 1.397 . S
C876 C892 1.509 . S
C877 C876 1.397 . S
C877 C878 1.412 . S
C877 C898 1.485 . S
C878 C877 1.412 . S
C878 C879 1.388 . S
C878 C904 1.490 . S
C879 C874 1.397 . S
C879 C878 1.388 . S
C879 C910 1.519 . S
C880 C874 1.492 . S
C880 C881 1.363 . S
C880 C885 1.390 . S
C881 H846 0.930 . S
C881 C880 1.363 . S
C881 C882 1.372 . S
C882 H847 0.930 . S
C882 C881 1.372 . S
C882 C883 1.383 . S
C883 C882 1.383 . S
C883 C884 1.395 . S
C884 H848 0.930 . S
C884 C883 1.395 . S
C884 C885 1.362 . S
C885 H849 0.930 . S
C885 C880 1.390 . S
C885 C884 1.362 . S
C886 C875 1.492 . S
C886 C887 1.377 . S
C886 C891 1.397 . S
C887 H850 0.931 . S
C887 C886 1.377 . S
C887 C888 1.376 . S
C888 H851 0.930 . S
C888 C887 1.376 . S
C888 C889 1.376 . S
C889 C888 1.376 . S
C889 C890 1.378 . S
C889 C916 1.486 . S
C890 H852 0.930 . S
C890 C889 1.378 . S
C890 C891 1.376 . S
C891 H853 0.929 . S
C891 C886 1.397 . S
C891 C890 1.376 . S
C892 C876 1.509 . S
C892 C893 1.391 . S
C892 C897 1.386 . S
C893 H854 0.930 . S
C893 C892 1.391 . S
C893 C894 1.375 . S
C894 H855 0.931 . S
C894 C893 1.375 . S
C894 C895 1.375 . S
C895 C894 1.375 . S
C895 C896 1.361 . S
C896 H856 0.930 . S
C896 C895 1.361 . S
C896 C897 1.399 . S
C897 H857 0.929 . S
C897 C892 1.386 . S
C897 C896 1.399 . S
C898 C877 1.485 . S
C898 C899 1.394 . S
C898 C903 1.360 . S
C899 H858 0.931 . S
C899 C898 1.394 . S
C899 C900 1.372 . S
C900 H859 0.930 . S
C900 C899 1.372 . S
C900 C901 1.397 . S
C901 C900 1.397 . S
C901 C902 1.390 . S
C901 C917 1.476 . S
C902 H860 0.930 . S
C902 C901 1.390 . S
C902 C903 1.366 . S
C903 H861 0.932 . S
C903 C898 1.360 . S
C903 C902 1.366 . S
C904 C878 1.490 . S
C904 C905 1.380 . S
C904 C909 1.386 . S
C905 H862 0.930 . S
C905 C904 1.380 . S
C905 C906 1.381 . S
C906 H863 0.929 . S
C906 C905 1.381 . S
C906 C907 1.371 . S
C907 C906 1.371 . S
C907 C908 1.380 . S
C908 H864 0.931 . S
C908 C907 1.380 . S
C908 C909 1.387 . S
C909 H865 0.930 . S
C909 C904 1.386 . S
C909 C908 1.387 . S
C910 C879 1.519 . S
C910 C911 1.377 . S
C910 C915 1.361 . S
C911 H866 0.929 . S
C911 C910 1.377 . S
C911 C912 1.386 . S
C912 H867 0.931 . S
C912 C911 1.386 . S
C912 C913 1.363 . S
C913 C912 1.363 . S
C913 C914 1.385 . S
C914 H868 0.930 . S
C914 C913 1.385 . S
C914 C915 1.396 . S
C915 H869 0.929 . S
C915 C910 1.361 . S
C915 C914 1.396 . S
C916 O870 1.300 . S
C916 O871 1.209 . S
C916 C889 1.486 . S
C917 O872 1.199 . S
C917 O873 1.297 . S
C917 C901 1.476 . S
H918 O944 0.856 . S
H919 O947 0.854 . S
H920 C955 0.930 . S
H921 C956 0.930 . S
H922 C958 0.930 . S
H923 C959 0.930 . S
H924 C961 0.931 . S
H925 C962 0.917 1_655 S
H926 C964 0.930 . S
H927 C965 0.929 . S
H928 C967 0.930 . S
H929 C968 0.932 1_655 S
H930 C970 0.930 . S
H931 C971 0.929 . S
H932 C973 0.931 . S
H933 C974 0.930 . S
H934 C976 0.930 . S
H935 C977 0.932 . S
H936 C979 0.930 . S
H937 C980 0.929 . S
H938 C982 0.931 . S
H939 C983 0.930 . S
H940 C985 0.929 . S
H941 C986 0.931 . S
H942 C988 0.930 . S
H943 C989 0.929 . S
O944 H918 0.856 . S
O944 C990 1.300 . S
O945 C990 1.209 . S
O946 C991 1.199 1_655 S
O947 H919 0.854 . S
O947 C991 1.297 . S
C948 C949 1.404 . S
C948 C953 1.393 . S
C948 C954 1.492 . S
C949 C948 1.404 . S
C949 C950 1.396 . S
C949 C960 1.492 . S
C950 C949 1.396 . S
C950 C951 1.397 . S
C950 C966 1.509 . S
C951 C950 1.397 . S
C951 C952 1.424 . S
C951 C972 1.485 . S
C952 C951 1.424 . S
C952 C953 1.402 . S
C952 C978 1.491 1_455 S
C953 C948 1.393 . S
C953 C952 1.402 . S
C953 C984 1.494 1_455 S
C954 C948 1.492 . S
C954 C955 1.363 1_455 S
C954 C959 1.390 . S
C955 H920 0.930 . S
C955 C954 1.363 1_655 S
C955 C956 1.372 . S
C956 H921 0.930 . S
C956 C955 1.372 . S
C956 C957 1.383 . S
C957 C956 1.383 . S
C957 C958 1.395 1_655 S
C958 H922 0.930 . S
C958 C957 1.395 1_455 S
C958 C959 1.362 . S
C959 H923 0.930 . S
C959 C954 1.390 . S
C959 C958 1.362 . S
C960 C949 1.492 . S
C960 C961 1.377 1_455 S
C960 C965 1.397 . S
C961 H924 0.931 . S
C961 C960 1.377 1_655 S
C961 C962 1.378 1_655 S
C962 H925 0.917 1_455 S
C962 C961 1.378 1_455 S
C962 C963 1.387 . S
C963 C962 1.387 . S
C963 C964 1.378 . S
C963 C990 1.486 . S
C964 H926 0.930 . S
C964 C963 1.378 . S
C964 C965 1.376 . S
C965 H927 0.929 . S
C965 C960 1.397 . S
C965 C964 1.376 . S
C966 C950 1.509 . S
C966 C967 1.391 1_455 S
C966 C971 1.386 . S
C967 H928 0.930 . S
C967 C966 1.391 1_655 S
C967 C968 1.377 1_655 S
C968 H929 0.932 1_455 S
C968 C967 1.377 1_455 S
C968 C969 1.372 . S
C969 C968 1.372 . S
C969 C970 1.361 . S
C970 H930 0.930 . S
C970 C969 1.361 . S
C970 C971 1.399 . S
C971 H931 0.929 . S
C971 C966 1.386 . S
C971 C970 1.399 . S
C972 C951 1.485 . S
C972 C973 1.394 1_455 S
C972 C977 1.360 . S
C973 H932 0.931 . S
C973 C972 1.394 1_655 S
C973 C974 1.372 . S
C974 H933 0.930 . S
C974 C973 1.372 . S
C974 C975 1.397 1_655 S
C975 C974 1.397 1_455 S
C975 C976 1.390 . S
C975 C991 1.476 . S
C976 H934 0.930 . S
C976 C975 1.390 . S
C976 C977 1.366 . S
C977 H935 0.932 . S
C977 C972 1.360 . S
C977 C976 1.366 . S
C978 C952 1.491 1_655 S
C978 C979 1.380 . S
C978 C983 1.386 1_655 S
C979 H936 0.930 . S
C979 C978 1.380 . S
C979 C980 1.381 . S
C980 H937 0.929 . S
C980 C979 1.381 . S
C980 C981 1.371 . S
C981 C980 1.371 . S
C981 C982 1.380 1_655 S
C982 H938 0.931 . S
C982 C981 1.380 1_455 S
C982 C983 1.387 . S
C983 H939 0.930 . S
C983 C978 1.386 1_455 S
C983 C982 1.387 . S
C984 C953 1.494 1_655 S
C984 C985 1.398 . S
C984 C989 1.347 1_655 S
C985 H940 0.929 . S
C985 C984 1.398 . S
C985 C986 1.386 . S
C986 H941 0.931 . S
C986 C985 1.386 . S
C986 C987 1.367 1_655 S
C987 C986 1.367 1_455 S
C987 C988 1.380 . S
C988 H942 0.930 . S
C988 C987 1.380 . S
C988 C989 1.396 . S
C989 H943 0.929 . S
C989 C984 1.347 1_455 S
C989 C988 1.396 . S
C990 O944 1.300 . S
C990 O945 1.209 . S
C990 C963 1.486 . S
C991 O946 1.199 1_455 S
C991 O947 1.297 . S
C991 C975 1.476 . S
H992 O1018 0.856 . S
H993 O1021 0.854 . S
H994 C1029 0.930 . S
H995 C1030 0.930 . S
H996 C1032 0.930 . S
H997 C1033 0.930 . S
H998 C1035 0.931 . S
H999 C1036 0.930 . S
H1000 C1038 0.930 . S
H1001 C1039 0.929 . S
H1002 C1041 0.930 . S
H1003 C1042 0.931 . S
H1004 C1044 0.930 . S
H1005 C1045 0.929 . S
H1006 C1047 0.931 . S
H1007 C1048 0.930 . S
H1008 C1050 0.930 . S
H1009 C1051 0.932 . S
H1010 C1053 0.930 . S
H1011 C1054 0.929 . S
H1012 C1056 0.931 . S
H1013 C1057 0.930 . S
H1014 C1059 0.929 . S
H1015 C1060 0.931 . S
H1016 C1062 0.930 . S
H1017 C1063 0.929 . S
O1018 H992 0.856 . S
O1018 C1064 1.300 . S
O1019 C1064 1.209 . S
O1020 C1065 1.199 . S
O1021 H993 0.854 . S
O1021 C1065 1.297 . S
C1022 C1023 1.404 . S
C1022 C1027 1.397 . S
C1022 C1028 1.492 . S
C1023 C1022 1.404 . S
C1023 C1024 1.396 . S
C1023 C1034 1.492 . S
C1024 C1023 1.396 . S
C1024 C1025 1.397 . S
C1024 C1040 1.509 . S
C1025 C1024 1.397 . S
C1025 C1026 1.412 . S
C1025 C1046 1.485 . S
C1026 C1025 1.412 . S
C1026 C1027 1.388 . S
C1026 C1052 1.490 . S
C1027 C1022 1.397 . S
C1027 C1026 1.388 . S
C1027 C1058 1.519 . S
C1028 C1022 1.492 . S
C1028 C1029 1.363 . S
C1028 C1033 1.390 . S
C1029 H994 0.930 . S
C1029 C1028 1.363 . S
C1029 C1030 1.372 . S
C1030 H995 0.930 . S
C1030 C1029 1.372 . S
C1030 C1031 1.383 . S
C1031 C1030 1.383 . S
C1031 C1032 1.395 . S
C1032 H996 0.930 . S
C1032 C1031 1.395 . S
C1032 C1033 1.362 . S
C1033 H997 0.930 . S
C1033 C1028 1.390 . S
C1033 C1032 1.362 . S
C1034 C1023 1.492 . S
C1034 C1035 1.377 . S
C1034 C1039 1.397 . S
C1035 H998 0.931 . S
C1035 C1034 1.377 . S
C1035 C1036 1.376 . S
C1036 H999 0.930 . S
C1036 C1035 1.376 . S
C1036 C1037 1.376 . S
C1037 C1036 1.376 . S
C1037 C1038 1.378 . S
C1037 C1064 1.486 . S
C1038 H1000 0.930 . S
C1038 C1037 1.378 . S
C1038 C1039 1.376 . S
C1039 H1001 0.929 . S
C1039 C1034 1.397 . S
C1039 C1038 1.376 . S
C1040 C1024 1.509 . S
C1040 C1041 1.391 . S
C1040 C1045 1.386 . S
C1041 H1002 0.930 . S
C1041 C1040 1.391 . S
C1041 C1042 1.375 . S
C1042 H1003 0.931 . S
C1042 C1041 1.375 . S
C1042 C1043 1.375 . S
C1043 C1042 1.375 . S
C1043 C1044 1.361 . S
C1044 H1004 0.930 . S
C1044 C1043 1.361 . S
C1044 C1045 1.399 . S
C1045 H1005 0.929 . S
C1045 C1040 1.386 . S
C1045 C1044 1.399 . S
C1046 C1025 1.485 . S
C1046 C1047 1.394 . S
C1046 C1051 1.360 . S
C1047 H1006 0.931 . S
C1047 C1046 1.394 . S
C1047 C1048 1.372 . S
C1048 H1007 0.930 . S
C1048 C1047 1.372 . S
C1048 C1049 1.397 . S
C1049 C1048 1.397 . S
C1049 C1050 1.390 . S
C1049 C1065 1.476 . S
C1050 H1008 0.930 . S
C1050 C1049 1.390 . S
C1050 C1051 1.366 . S
C1051 H1009 0.932 . S
C1051 C1046 1.360 . S
C1051 C1050 1.366 . S
C1052 C1026 1.490 . S
C1052 C1053 1.380 . S
C1052 C1057 1.386 . S
C1053 H1010 0.930 . S
C1053 C1052 1.380 . S
C1053 C1054 1.381 . S
C1054 H1011 0.929 . S
C1054 C1053 1.381 . S
C1054 C1055 1.371 . S
C1055 C1054 1.371 . S
C1055 C1056 1.380 . S
C1056 H1012 0.931 . S
C1056 C1055 1.380 . S
C1056 C1057 1.387 . S
C1057 H1013 0.930 . S
C1057 C1052 1.386 . S
C1057 C1056 1.387 . S
C1058 C1027 1.519 . S
C1058 C1059 1.377 . S
C1058 C1063 1.361 . S
C1059 H1014 0.929 . S
C1059 C1058 1.377 . S
C1059 C1060 1.386 . S
C1060 H1015 0.931 . S
C1060 C1059 1.386 . S
C1060 C1061 1.363 . S
C1061 C1060 1.363 . S
C1061 C1062 1.385 . S
C1062 H1016 0.930 . S
C1062 C1061 1.385 . S
C1062 C1063 1.396 . S
C1063 H1017 0.929 . S
C1063 C1058 1.361 . S
C1063 C1062 1.396 . S
C1064 O1018 1.300 . S
C1064 O1019 1.209 . S
C1064 C1037 1.486 . S
C1065 O1020 1.199 . S
C1065 O1021 1.297 . S
C1065 C1049 1.476 . S
H1066 O1092 0.856 . S
H1067 O1095 0.854 . S
H1068 C1103 0.930 . S
H1069 C1104 0.930 . S
H1070 C1106 0.930 . S
H1071 C1107 0.930 . S
H1072 C1109 0.931 . S
H1073 C1110 0.920 1_545 S
H1074 C1112 0.930 . S
H1075 C1113 0.929 . S
H1076 C1115 0.930 . S
H1077 C1116 0.929 . S
H1078 C1118 0.930 . S
H1079 C1119 0.929 . S
H1080 C1121 0.931 . S
H1081 C1122 0.930 . S
H1082 C1124 0.930 . S
H1083 C1125 0.932 . S
H1084 C1127 0.930 . S
H1085 C1128 0.929 . S
H1086 C1130 0.931 . S
H1087 C1131 0.930 . S
H1088 C1133 0.929 . S
H1089 C1134 0.931 . S
H1090 C1136 0.930 . S
H1091 C1137 0.929 . S
O1092 H1066 0.856 . S
O1092 C1138 1.300 . S
O1093 C1138 1.209 . S
O1094 C1139 1.199 1_545 S
O1095 H1067 0.854 . S
O1095 C1139 1.297 . S
C1096 C1097 1.404 . S
C1096 C1101 1.416 . S
C1096 C1102 1.492 . S
C1097 C1096 1.404 . S
C1097 C1098 1.396 . S
C1097 C1108 1.492 . S
C1098 C1097 1.396 . S
C1098 C1099 1.397 . S
C1098 C1114 1.509 . S
C1099 C1098 1.397 . S
C1099 C1100 1.408 . S
C1099 C1120 1.485 . S
C1100 C1099 1.408 . S
C1100 C1101 1.375 . S
C1100 C1126 1.481 1_565 S
C1101 C1096 1.416 . S
C1101 C1100 1.375 . S
C1101 C1132 1.539 1_565 S
C1102 C1096 1.492 . S
C1102 C1103 1.363 1_565 S
C1102 C1107 1.390 . S
C1103 H1068 0.930 . S
C1103 C1102 1.363 1_545 S
C1103 C1104 1.372 . S
C1104 H1069 0.930 . S
C1104 C1103 1.372 . S
C1104 C1105 1.383 . S
C1105 C1104 1.383 . S
C1105 C1106 1.395 1_545 S
C1106 H1070 0.930 . S
C1106 C1105 1.395 1_565 S
C1106 C1107 1.362 . S
C1107 H1071 0.930 . S
C1107 C1102 1.390 . S
C1107 C1106 1.362 . S
C1108 C1097 1.492 . S
C1108 C1109 1.377 1_565 S
C1108 C1113 1.397 . S
C1109 H1072 0.931 . S
C1109 C1108 1.377 1_545 S
C1109 C1110 1.370 1_545 S
C1110 H1073 0.920 1_565 S
C1110 C1109 1.370 1_565 S
C1110 C1111 1.391 . S
C1111 C1110 1.391 . S
C1111 C1112 1.378 . S
C1111 C1138 1.486 . S
C1112 H1074 0.930 . S
C1112 C1111 1.378 . S
C1112 C1113 1.376 . S
C1113 H1075 0.929 . S
C1113 C1108 1.397 . S
C1113 C1112 1.376 . S
C1114 C1098 1.509 . S
C1114 C1115 1.391 1_565 S
C1114 C1119 1.386 . S
C1115 H1076 0.930 . S
C1115 C1114 1.391 1_545 S
C1115 C1116 1.375 . S
C1116 H1077 0.929 . S
C1116 C1115 1.375 . S
C1116 C1117 1.377 1_545 S
C1117 C1116 1.377 1_565 S
C1117 C1118 1.361 . S
C1118 H1078 0.930 . S
C1118 C1117 1.361 . S
C1118 C1119 1.399 . S
C1119 H1079 0.929 . S
C1119 C1114 1.386 . S
C1119 C1118 1.399 . S
C1120 C1099 1.485 . S
C1120 C1121 1.394 1_565 S
C1120 C1125 1.360 . S
C1121 H1080 0.931 . S
C1121 C1120 1.394 1_545 S
C1121 C1122 1.372 . S
C1122 H1081 0.930 . S
C1122 C1121 1.372 . S
C1122 C1123 1.397 1_545 S
C1123 C1122 1.397 1_565 S
C1123 C1124 1.390 . S
C1123 C1139 1.476 . S
C1124 H1082 0.930 . S
C1124 C1123 1.390 . S
C1124 C1125 1.366 . S
C1125 H1083 0.932 . S
C1125 C1120 1.360 . S
C1125 C1124 1.366 . S
C1126 C1100 1.481 1_545 S
C1126 C1127 1.380 . S
C1126 C1131 1.386 1_545 S
C1127 H1084 0.930 . S
C1127 C1126 1.380 . S
C1127 C1128 1.381 . S
C1128 H1085 0.929 . S
C1128 C1127 1.381 . S
C1128 C1129 1.371 . S
C1129 C1128 1.371 . S
C1129 C1130 1.380 1_545 S
C1130 H1086 0.931 . S
C1130 C1129 1.380 1_565 S
C1130 C1131 1.387 . S
C1131 H1087 0.930 . S
C1131 C1126 1.386 1_565 S
C1131 C1130 1.387 . S
C1132 C1101 1.539 1_545 S
C1132 C1133 1.385 . S
C1132 C1137 1.347 1_545 S
C1133 H1088 0.929 . S
C1133 C1132 1.385 . S
C1133 C1134 1.386 . S
C1134 H1089 0.931 . S
C1134 C1133 1.386 . S
C1134 C1135 1.363 1_545 S
C1135 C1134 1.363 1_565 S
C1135 C1136 1.385 . S
C1136 H1090 0.930 . S
C1136 C1135 1.385 . S
C1136 C1137 1.396 . S
C1137 H1091 0.929 . S
C1137 C1132 1.347 1_565 S
C1137 C1136 1.396 . S
C1138 O1092 1.300 . S
C1138 O1093 1.209 . S
C1138 C1111 1.486 . S
C1139 O1094 1.199 1_565 S
C1139 O1095 1.297 . S
C1139 C1123 1.476 . S
H1140 O1166 0.856 . S
H1141 O1169 0.854 . S
H1142 C1177 0.930 . S
H1143 C1178 0.930 . S
H1144 C1180 0.930 . S
H1145 C1181 0.930 . S
H1146 C1183 0.931 . S
H1147 C1184 0.930 . S
H1148 C1186 0.930 . S
H1149 C1187 0.929 . S
H1150 C1189 0.930 . S
H1151 C1190 0.931 . S
H1152 C1192 0.930 . S
H1153 C1193 0.929 . S
H1154 C1195 0.931 . S
H1155 C1196 0.930 . S
H1156 C1198 0.930 . S
H1157 C1199 0.932 . S
H1158 C1201 0.930 . S
H1159 C1202 0.929 . S
H1160 C1204 0.931 . S
H1161 C1205 0.930 . S
H1162 C1207 0.929 . S
H1163 C1208 0.931 . S
H1164 C1210 0.930 . S
H1165 C1211 0.929 . S
O1166 H1140 0.856 . S
O1166 C1212 1.300 . S
O1167 C1212 1.209 1_565 S
O1168 C1213 1.199 1_545 S
O1169 H1141 0.854 . S
O1169 C1213 1.297 . S
C1170 C1171 1.404 . S
C1170 C1175 1.397 1_545 S
C1170 C1176 1.492 . S
C1171 C1170 1.404 . S
C1171 C1172 1.429 . S
C1171 C1182 1.492 . S
C1172 C1171 1.429 . S
C1172 C1173 1.382 1_545 S
C1172 C1188 1.504 . S
C1173 C1172 1.382 1_565 S
C1173 C1174 1.416 . S
C1173 C1194 1.488 . S
C1174 C1173 1.416 . S
C1174 C1175 1.379 . S
C1174 C1200 1.493 . S
C1175 C1170 1.397 1_565 S
C1175 C1174 1.379 . S
C1175 C1206 1.519 . S
C1176 C1170 1.492 . S
C1176 C1177 1.363 . S
C1176 C1181 1.390 1_545 S
C1177 H1142 0.930 . S
C1177 C1176 1.363 . S
C1177 C1178 1.372 . S
C1178 H1143 0.930 . S
C1178 C1177 1.372 . S
C1178 C1179 1.383 . S
C1179 C1178 1.383 . S
C1179 C1180 1.395 1_545 S
C1180 H1144 0.930 . S
C1180 C1179 1.395 1_565 S
C1180 C1181 1.362 . S
C1181 H1145 0.930 . S
C1181 C1176 1.390 1_565 S
C1181 C1180 1.362 . S
C1182 C1171 1.492 . S
C1182 C1183 1.377 . S
C1182 C1187 1.397 1_545 S
C1183 H1146 0.931 . S
C1183 C1182 1.377 . S
C1183 C1184 1.376 . S
C1184 H1147 0.930 . S
C1184 C1183 1.376 . S
C1184 C1185 1.376 . S
C1185 C1184 1.376 . S
C1185 C1186 1.378 1_545 S
C1185 C1212 1.486 . S
C1186 H1148 0.930 . S
C1186 C1185 1.378 1_565 S
C1186 C1187 1.376 . S
C1187 H1149 0.929 . S
C1187 C1182 1.397 1_565 S
C1187 C1186 1.376 . S
C1188 C1172 1.504 . S
C1188 C1189 1.411 . S
C1188 C1193 1.353 1_545 S
C1189 H1150 0.930 . S
C1189 C1188 1.411 . S
C1189 C1190 1.375 . S
C1190 H1151 0.931 . S
C1190 C1189 1.375 . S
C1190 C1191 1.384 . S
C1191 C1190 1.384 . S
C1191 C1192 1.357 1_545 S
C1192 H1152 0.930 . S
C1192 C1191 1.357 1_565 S
C1192 C1193 1.399 . S
C1193 H1153 0.929 . S
C1193 C1188 1.353 1_565 S
C1193 C1192 1.399 . S
C1194 C1173 1.488 . S
C1194 C1195 1.394 1_565 S
C1194 C1199 1.360 . S
C1195 H1154 0.931 . S
C1195 C1194 1.394 1_545 S
C1195 C1196 1.372 . S
C1196 H1155 0.930 . S
C1196 C1195 1.372 . S
C1196 C1197 1.397 1_545 S
C1197 C1196 1.397 1_565 S
C1197 C1198 1.390 . S
C1197 C1213 1.476 . S
C1198 H1156 0.930 . S
C1198 C1197 1.390 . S
C1198 C1199 1.366 . S
C1199 H1157 0.932 . S
C1199 C1194 1.360 . S
C1199 C1198 1.366 . S
C1200 C1174 1.493 . S
C1200 C1201 1.375 1_565 S
C1200 C1205 1.393 . S
C1201 H1158 0.930 . S
C1201 C1200 1.375 1_545 S
C1201 C1202 1.381 . S
C1202 H1159 0.929 . S
C1202 C1201 1.381 . S
C1202 C1203 1.371 . S
C1203 C1202 1.371 . S
C1203 C1204 1.380 1_545 S
C1204 H1160 0.931 . S
C1204 C1203 1.380 1_565 S
C1204 C1205 1.387 . S
C1205 H1161 0.930 . S
C1205 C1200 1.393 . S
C1205 C1204 1.387 . S
C1206 C1175 1.519 . S
C1206 C1207 1.377 1_565 S
C1206 C1211 1.361 . S
C1207 H1162 0.929 . S
C1207 C1206 1.377 1_545 S
C1207 C1208 1.386 . S
C1208 H1163 0.931 . S
C1208 C1207 1.386 . S
C1208 C1209 1.363 1_545 S
C1209 C1208 1.363 1_565 S
C1209 C1210 1.385 . S
C1210 H1164 0.930 . S
C1210 C1209 1.385 . S
C1210 C1211 1.396 . S
C1211 H1165 0.929 . S
C1211 C1206 1.361 . S
C1211 C1210 1.396 . S
C1212 O1166 1.300 . S
C1212 O1167 1.209 1_545 S
C1212 C1185 1.486 . S
C1213 O1168 1.199 1_565 S
C1213 O1169 1.297 . S
C1213 C1197 1.476 . S
H1214 O1240 0.856 . S
H1215 O1243 0.854 . S
H1216 C1251 0.930 . S
H1217 C1252 0.930 . S
H1218 C1254 0.930 . S
H1219 C1255 0.930 . S
H1220 C1257 0.931 . S
H1221 C1258 0.930 . S
H1222 C1260 0.930 . S
H1223 C1261 0.929 . S
H1224 C1263 0.930 . S
H1225 C1264 0.931 . S
H1226 C1266 0.930 . S
H1227 C1267 0.929 . S
H1228 C1269 0.931 . S
H1229 C1270 0.930 . S
H1230 C1272 0.930 . S
H1231 C1273 0.932 . S
H1232 C1275 0.930 . S
H1233 C1276 0.929 . S
H1234 C1278 0.931 . S
H1235 C1279 0.930 . S
H1236 C1281 0.929 . S
H1237 C1282 0.931 . S
H1238 C1284 0.930 . S
H1239 C1285 0.929 . S
O1240 H1214 0.856 . S
O1240 C1286 1.300 . S
O1241 C1286 1.209 1_455 S
O1242 C1287 1.199 1_655 S
O1243 H1215 0.854 . S
O1243 C1287 1.297 . S
C1244 C1245 1.404 . S
C1244 C1249 1.396 1_655 S
C1244 C1250 1.492 . S
C1245 C1244 1.404 . S
C1245 C1246 1.396 . S
C1245 C1256 1.492 . S
C1246 C1245 1.396 . S
C1246 C1247 1.397 . S
C1246 C1262 1.509 . S
C1247 C1246 1.397 . S
C1247 C1248 1.396 1_655 S
C1247 C1268 1.488 1_655 S
C1248 C1247 1.396 1_455 S
C1248 C1249 1.413 . S
C1248 C1274 1.484 . S
C1249 C1244 1.396 1_455 S
C1249 C1248 1.413 . S
C1249 C1280 1.516 . S
C1250 C1244 1.492 . S
C1250 C1251 1.363 . S
C1250 C1255 1.390 1_655 S
C1251 H1216 0.930 . S
C1251 C1250 1.363 . S
C1251 C1252 1.372 . S
C1252 H1217 0.930 . S
C1252 C1251 1.372 . S
C1252 C1253 1.383 . S
C1253 C1252 1.383 . S
C1253 C1254 1.395 1_655 S
C1254 H1218 0.930 . S
C1254 C1253 1.395 1_455 S
C1254 C1255 1.362 . S
C1255 H1219 0.930 . S
C1255 C1250 1.390 1_455 S
C1255 C1254 1.362 . S
C1256 C1245 1.492 . S
C1256 C1257 1.377 . S
C1256 C1261 1.397 1_655 S
C1257 H1220 0.931 . S
C1257 C1256 1.377 . S
C1257 C1258 1.376 . S
C1258 H1221 0.930 . S
C1258 C1257 1.376 . S
C1258 C1259 1.376 . S
C1259 C1258 1.376 . S
C1259 C1260 1.378 1_655 S
C1259 C1286 1.486 . S
C1260 H1222 0.930 . S
C1260 C1259 1.378 1_455 S
C1260 C1261 1.376 . S
C1261 H1223 0.929 . S
C1261 C1256 1.397 1_455 S
C1261 C1260 1.376 . S
C1262 C1246 1.509 . S
C1262 C1263 1.391 . S
C1262 C1267 1.386 1_655 S
C1263 H1224 0.930 . S
C1263 C1262 1.391 . S
C1263 C1264 1.375 . S
C1264 H1225 0.931 . S
C1264 C1263 1.375 . S
C1264 C1265 1.375 . S
C1265 C1264 1.375 . S
C1265 C1266 1.361 1_655 S
C1266 H1226 0.930 . S
C1266 C1265 1.361 1_455 S
C1266 C1267 1.399 . S
C1267 H1227 0.929 . S
C1267 C1262 1.386 1_455 S
C1267 C1266 1.399 . S
C1268 C1247 1.488 1_455 S
C1268 C1269 1.394 1_455 S
C1268 C1273 1.360 . S
C1269 H1228 0.931 . S
C1269 C1268 1.394 1_655 S
C1269 C1270 1.372 . S
C1270 H1229 0.930 . S
C1270 C1269 1.372 . S
C1270 C1271 1.397 1_655 S
C1271 C1270 1.397 1_455 S
C1271 C1272 1.390 . S
C1271 C1287 1.476 . S
C1272 H1230 0.930 . S
C1272 C1271 1.390 . S
C1272 C1273 1.366 . S
C1273 H1231 0.932 . S
C1273 C1268 1.360 . S
C1273 C1272 1.366 . S
C1274 C1248 1.484 . S
C1274 C1275 1.380 1_455 S
C1274 C1279 1.386 . S
C1275 H1232 0.930 . S
C1275 C1274 1.380 1_655 S
C1275 C1276 1.381 . S
C1276 H1233 0.929 . S
C1276 C1275 1.381 . S
C1276 C1277 1.371 1_655 S
C1277 C1276 1.371 1_455 S
C1277 C1278 1.380 . S
C1278 H1234 0.931 . S
C1278 C1277 1.380 . S
C1278 C1279 1.387 . S
C1279 H1235 0.930 . S
C1279 C1274 1.386 . S
C1279 C1278 1.387 . S
C1280 C1249 1.516 . S
C1280 C1281 1.377 1_455 S
C1280 C1285 1.361 . S
C1281 H1236 0.929 . S
C1281 C1280 1.377 1_655 S
C1281 C1282 1.386 . S
C1282 H1237 0.931 . S
C1282 C1281 1.386 . S
C1282 C1283 1.363 1_655 S
C1283 C1282 1.363 1_455 S
C1283 C1284 1.385 . S
C1284 H1238 0.930 . S
C1284 C1283 1.385 . S
C1284 C1285 1.396 . S
C1285 H1239 0.929 . S
C1285 C1280 1.361 . S
C1285 C1284 1.396 . S
C1286 O1240 1.300 . S
C1286 O1241 1.209 1_655 S
C1286 C1259 1.486 . S
C1287 O1242 1.199 1_455 S
C1287 O1243 1.297 . S
C1287 C1271 1.476 . S
H1288 O1314 0.856 . S
H1289 O1317 0.854 . S
H1290 C1325 0.930 . S
H1291 C1326 0.930 . S
H1292 C1328 0.930 . S
H1293 C1329 0.930 . S
H1294 C1331 0.931 . S
H1295 C1332 0.930 . S
H1296 C1334 0.930 . S
H1297 C1335 0.929 . S
H1298 C1337 0.930 . S
H1299 C1338 0.931 . S
H1300 C1340 0.930 . S
H1301 C1341 0.929 . S
H1302 C1343 0.931 . S
H1303 C1344 0.930 . S
H1304 C1346 0.930 . S
H1305 C1347 0.932 . S
H1306 C1349 0.930 . S
H1307 C1350 0.929 . S
H1308 C1352 0.931 . S
H1309 C1353 0.930 . S
H1310 C1355 0.929 . S
H1311 C1356 0.931 . S
H1312 C1358 0.930 . S
H1313 C1359 0.929 . S
O1314 H1288 0.856 . S
O1314 C1360 1.300 . S
O1315 C1360 1.209 . S
O1316 C1361 1.199 . S
O1317 H1289 0.854 . S
O1317 C1361 1.297 . S
C1318 C1319 1.404 . S
C1318 C1323 1.397 . S
C1318 C1324 1.492 . S
C1319 C1318 1.404 . S
C1319 C1320 1.396 . S
C1319 C1330 1.492 . S
C1320 C1319 1.396 . S
C1320 C1321 1.397 . S
C1320 C1336 1.509 . S
C1321 C1320 1.397 . S
C1321 C1322 1.412 . S
C1321 C1342 1.485 . S
C1322 C1321 1.412 . S
C1322 C1323 1.388 . S
C1322 C1348 1.490 . S
C1323 C1318 1.397 . S
C1323 C1322 1.388 . S
C1323 C1354 1.519 . S
C1324 C1318 1.492 . S
C1324 C1325 1.363 . S
C1324 C1329 1.390 . S
C1325 H1290 0.930 . S
C1325 C1324 1.363 . S
C1325 C1326 1.372 . S
C1326 H1291 0.930 . S
C1326 C1325 1.372 . S
C1326 C1327 1.383 . S
C1327 C1326 1.383 . S
C1327 C1328 1.395 . S
C1328 H1292 0.930 . S
C1328 C1327 1.395 . S
C1328 C1329 1.362 . S
C1329 H1293 0.930 . S
C1329 C1324 1.390 . S
C1329 C1328 1.362 . S
C1330 C1319 1.492 . S
C1330 C1331 1.377 . S
C1330 C1335 1.397 . S
C1331 H1294 0.931 . S
C1331 C1330 1.377 . S
C1331 C1332 1.376 . S
C1332 H1295 0.930 . S
C1332 C1331 1.376 . S
C1332 C1333 1.376 . S
C1333 C1332 1.376 . S
C1333 C1334 1.378 . S
C1333 C1360 1.486 . S
C1334 H1296 0.930 . S
C1334 C1333 1.378 . S
C1334 C1335 1.376 . S
C1335 H1297 0.929 . S
C1335 C1330 1.397 . S
C1335 C1334 1.376 . S
C1336 C1320 1.509 . S
C1336 C1337 1.391 . S
C1336 C1341 1.386 . S
C1337 H1298 0.930 . S
C1337 C1336 1.391 . S
C1337 C1338 1.375 . S
C1338 H1299 0.931 . S
C1338 C1337 1.375 . S
C1338 C1339 1.375 . S
C1339 C1338 1.375 . S
C1339 C1340 1.361 . S
C1340 H1300 0.930 . S
C1340 C1339 1.361 . S
C1340 C1341 1.399 . S
C1341 H1301 0.929 . S
C1341 C1336 1.386 . S
C1341 C1340 1.399 . S
C1342 C1321 1.485 . S
C1342 C1343 1.394 . S
C1342 C1347 1.360 . S
C1343 H1302 0.931 . S
C1343 C1342 1.394 . S
C1343 C1344 1.372 . S
C1344 H1303 0.930 . S
C1344 C1343 1.372 . S
C1344 C1345 1.397 . S
C1345 C1344 1.397 . S
C1345 C1346 1.390 . S
C1345 C1361 1.476 . S
C1346 H1304 0.930 . S
C1346 C1345 1.390 . S
C1346 C1347 1.366 . S
C1347 H1305 0.932 . S
C1347 C1342 1.360 . S
C1347 C1346 1.366 . S
C1348 C1322 1.490 . S
C1348 C1349 1.380 . S
C1348 C1353 1.386 . S
C1349 H1306 0.930 . S
C1349 C1348 1.380 . S
C1349 C1350 1.381 . S
C1350 H1307 0.929 . S
C1350 C1349 1.381 . S
C1350 C1351 1.371 . S
C1351 C1350 1.371 . S
C1351 C1352 1.380 . S
C1352 H1308 0.931 . S
C1352 C1351 1.380 . S
C1352 C1353 1.387 . S
C1353 H1309 0.930 . S
C1353 C1348 1.386 . S
C1353 C1352 1.387 . S
C1354 C1323 1.519 . S
C1354 C1355 1.377 . S
C1354 C1359 1.361 . S
C1355 H1310 0.929 . S
C1355 C1354 1.377 . S
C1355 C1356 1.386 . S
C1356 H1311 0.931 . S
C1356 C1355 1.386 . S
C1356 C1357 1.363 . S
C1357 C1356 1.363 . S
C1357 C1358 1.385 . S
C1358 H1312 0.930 . S
C1358 C1357 1.385 . S
C1358 C1359 1.396 . S
C1359 H1313 0.929 . S
C1359 C1354 1.361 . S
C1359 C1358 1.396 . S
C1360 O1314 1.300 . S
C1360 O1315 1.209 . S
C1360 C1333 1.486 . S
C1361 O1316 1.199 . S
C1361 O1317 1.297 . S
C1361 C1345 1.476 . S
H1362 O1388 0.856 . S
H1363 O1391 0.854 . S
H1364 C1399 0.930 . S
H1365 C1400 0.930 . S
H1366 C1402 0.930 . S
H1367 C1403 0.930 . S
H1368 C1405 0.931 . S
H1369 C1406 0.930 . S
H1370 C1408 0.930 . S
H1371 C1409 0.929 . S
H1372 C1411 0.930 . S
H1373 C1412 0.931 . S
H1374 C1414 0.930 . S
H1375 C1415 0.929 . S
H1376 C1417 0.931 . S
H1377 C1418 0.930 . S
H1378 C1420 0.930 . S
H1379 C1421 0.932 . S
H1380 C1423 0.930 . S
H1381 C1424 0.929 . S
H1382 C1426 0.931 . S
H1383 C1427 0.930 . S
H1384 C1429 0.929 . S
H1385 C1430 0.931 . S
H1386 C1432 0.930 . S
H1387 C1433 0.929 . S
O1388 H1362 0.856 . S
O1388 C1434 1.300 . S
O1389 C1434 1.209 . S
O1390 C1435 1.199 . S
O1391 H1363 0.854 . S
O1391 C1435 1.297 . S
C1392 C1393 1.404 . S
C1392 C1397 1.397 . S
C1392 C1398 1.492 . S
C1393 C1392 1.404 . S
C1393 C1394 1.396 . S
C1393 C1404 1.492 . S
C1394 C1393 1.396 . S
C1394 C1395 1.397 . S
C1394 C1410 1.509 . S
C1395 C1394 1.397 . S
C1395 C1396 1.412 . S
C1395 C1416 1.485 . S
C1396 C1395 1.412 . S
C1396 C1397 1.388 . S
C1396 C1422 1.490 . S
C1397 C1392 1.397 . S
C1397 C1396 1.388 . S
C1397 C1428 1.519 . S
C1398 C1392 1.492 . S
C1398 C1399 1.363 . S
C1398 C1403 1.390 . S
C1399 H1364 0.930 . S
C1399 C1398 1.363 . S
C1399 C1400 1.372 . S
C1400 H1365 0.930 . S
C1400 C1399 1.372 . S
C1400 C1401 1.383 . S
C1401 C1400 1.383 . S
C1401 C1402 1.395 . S
C1402 H1366 0.930 . S
C1402 C1401 1.395 . S
C1402 C1403 1.362 . S
C1403 H1367 0.930 . S
C1403 C1398 1.390 . S
C1403 C1402 1.362 . S
C1404 C1393 1.492 . S
C1404 C1405 1.377 . S
C1404 C1409 1.397 . S
C1405 H1368 0.931 . S
C1405 C1404 1.377 . S
C1405 C1406 1.376 . S
C1406 H1369 0.930 . S
C1406 C1405 1.376 . S
C1406 C1407 1.376 . S
C1407 C1406 1.376 . S
C1407 C1408 1.378 . S
C1407 C1434 1.486 . S
C1408 H1370 0.930 . S
C1408 C1407 1.378 . S
C1408 C1409 1.376 . S
C1409 H1371 0.929 . S
C1409 C1404 1.397 . S
C1409 C1408 1.376 . S
C1410 C1394 1.509 . S
C1410 C1411 1.391 . S
C1410 C1415 1.386 . S
C1411 H1372 0.930 . S
C1411 C1410 1.391 . S
C1411 C1412 1.375 . S
C1412 H1373 0.931 . S
C1412 C1411 1.375 . S
C1412 C1413 1.375 . S
C1413 C1412 1.375 . S
C1413 C1414 1.361 . S
C1414 H1374 0.930 . S
C1414 C1413 1.361 . S
C1414 C1415 1.399 . S
C1415 H1375 0.929 . S
C1415 C1410 1.386 . S
C1415 C1414 1.399 . S
C1416 C1395 1.485 . S
C1416 C1417 1.394 . S
C1416 C1421 1.360 . S
C1417 H1376 0.931 . S
C1417 C1416 1.394 . S
C1417 C1418 1.372 . S
C1418 H1377 0.930 . S
C1418 C1417 1.372 . S
C1418 C1419 1.397 . S
C1419 C1418 1.397 . S
C1419 C1420 1.390 . S
C1419 C1435 1.476 . S
C1420 H1378 0.930 . S
C1420 C1419 1.390 . S
C1420 C1421 1.366 . S
C1421 H1379 0.932 . S
C1421 C1416 1.360 . S
C1421 C1420 1.366 . S
C1422 C1396 1.490 . S
C1422 C1423 1.380 . S
C1422 C1427 1.386 . S
C1423 H1380 0.930 . S
C1423 C1422 1.380 . S
C1423 C1424 1.381 . S
C1424 H1381 0.929 . S
C1424 C1423 1.381 . S
C1424 C1425 1.371 . S
C1425 C1424 1.371 . S
C1425 C1426 1.380 . S
C1426 H1382 0.931 . S
C1426 C1425 1.380 . S
C1426 C1427 1.387 . S
C1427 H1383 0.930 . S
C1427 C1422 1.386 . S
C1427 C1426 1.387 . S
C1428 C1397 1.519 . S
C1428 C1429 1.377 . S
C1428 C1433 1.361 . S
C1429 H1384 0.929 . S
C1429 C1428 1.377 . S
C1429 C1430 1.386 . S
C1430 H1385 0.931 . S
C1430 C1429 1.386 . S
C1430 C1431 1.363 . S
C1431 C1430 1.363 . S
C1431 C1432 1.385 . S
C1432 H1386 0.930 . S
C1432 C1431 1.385 . S
C1432 C1433 1.396 . S
C1433 H1387 0.929 . S
C1433 C1428 1.361 . S
C1433 C1432 1.396 . S
C1434 O1388 1.300 . S
C1434 O1389 1.209 . S
C1434 C1407 1.486 . S
C1435 O1390 1.199 . S
C1435 O1391 1.297 . S
C1435 C1419 1.476 . S
H1436 O1462 0.856 . S
H1437 O1465 0.854 . S
H1438 C1473 0.930 . S
H1439 C1474 0.930 . S
H1440 C1476 0.930 . S
H1441 C1477 0.930 . S
H1442 C1479 0.931 . S
H1443 C1480 0.930 . S
H1444 C1482 0.930 . S
H1445 C1483 0.929 . S
H1446 C1485 0.930 . S
H1447 C1486 0.931 . S
H1448 C1488 0.930 . S
H1449 C1489 0.929 . S
H1450 C1491 0.931 . S
H1451 C1492 0.930 . S
H1452 C1494 0.930 . S
H1453 C1495 0.932 . S
H1454 C1497 0.930 . S
H1455 C1498 0.929 . S
H1456 C1500 0.931 . S
H1457 C1501 0.930 . S
H1458 C1503 0.929 . S
H1459 C1504 0.931 . S
H1460 C1506 0.930 . S
H1461 C1507 0.929 . S
O1462 H1436 0.856 . S
O1462 C1508 1.300 . S
O1463 C1508 1.209 . S
O1464 C1509 1.199 . S
O1465 H1437 0.854 . S
O1465 C1509 1.297 . S
C1466 C1467 1.404 . S
C1466 C1471 1.397 . S
C1466 C1472 1.492 . S
C1467 C1466 1.404 . S
C1467 C1468 1.396 . S
C1467 C1478 1.492 . S
C1468 C1467 1.396 . S
C1468 C1469 1.397 . S
C1468 C1484 1.509 . S
C1469 C1468 1.397 . S
C1469 C1470 1.412 . S
C1469 C1490 1.485 . S
C1470 C1469 1.412 . S
C1470 C1471 1.388 . S
C1470 C1496 1.490 . S
C1471 C1466 1.397 . S
C1471 C1470 1.388 . S
C1471 C1502 1.519 . S
C1472 C1466 1.492 . S
C1472 C1473 1.363 . S
C1472 C1477 1.390 . S
C1473 H1438 0.930 . S
C1473 C1472 1.363 . S
C1473 C1474 1.372 . S
C1474 H1439 0.930 . S
C1474 C1473 1.372 . S
C1474 C1475 1.383 . S
C1475 C1474 1.383 . S
C1475 C1476 1.395 . S
C1476 H1440 0.930 . S
C1476 C1475 1.395 . S
C1476 C1477 1.362 . S
C1477 H1441 0.930 . S
C1477 C1472 1.390 . S
C1477 C1476 1.362 . S
C1478 C1467 1.492 . S
C1478 C1479 1.377 . S
C1478 C1483 1.397 . S
C1479 H1442 0.931 . S
C1479 C1478 1.377 . S
C1479 C1480 1.376 . S
C1480 H1443 0.930 . S
C1480 C1479 1.376 . S
C1480 C1481 1.376 . S
C1481 C1480 1.376 . S
C1481 C1482 1.378 . S
C1481 C1508 1.486 . S
C1482 H1444 0.930 . S
C1482 C1481 1.378 . S
C1482 C1483 1.376 . S
C1483 H1445 0.929 . S
C1483 C1478 1.397 . S
C1483 C1482 1.376 . S
C1484 C1468 1.509 . S
C1484 C1485 1.391 . S
C1484 C1489 1.386 . S
C1485 H1446 0.930 . S
C1485 C1484 1.391 . S
C1485 C1486 1.375 . S
C1486 H1447 0.931 . S
C1486 C1485 1.375 . S
C1486 C1487 1.375 . S
C1487 C1486 1.375 . S
C1487 C1488 1.361 . S
C1488 H1448 0.930 . S
C1488 C1487 1.361 . S
C1488 C1489 1.399 . S
C1489 H1449 0.929 . S
C1489 C1484 1.386 . S
C1489 C1488 1.399 . S
C1490 C1469 1.485 . S
C1490 C1491 1.394 . S
C1490 C1495 1.360 . S
C1491 H1450 0.931 . S
C1491 C1490 1.394 . S
C1491 C1492 1.372 . S
C1492 H1451 0.930 . S
C1492 C1491 1.372 . S
C1492 C1493 1.397 . S
C1493 C1492 1.397 . S
C1493 C1494 1.390 . S
C1493 C1509 1.476 . S
C1494 H1452 0.930 . S
C1494 C1493 1.390 . S
C1494 C1495 1.366 . S
C1495 H1453 0.932 . S
C1495 C1490 1.360 . S
C1495 C1494 1.366 . S
C1496 C1470 1.490 . S
C1496 C1497 1.380 . S
C1496 C1501 1.386 . S
C1497 H1454 0.930 . S
C1497 C1496 1.380 . S
C1497 C1498 1.381 . S
C1498 H1455 0.929 . S
C1498 C1497 1.381 . S
C1498 C1499 1.371 . S
C1499 C1498 1.371 . S
C1499 C1500 1.380 . S
C1500 H1456 0.931 . S
C1500 C1499 1.380 . S
C1500 C1501 1.387 . S
C1501 H1457 0.930 . S
C1501 C1496 1.386 . S
C1501 C1500 1.387 . S
C1502 C1471 1.519 . S
C1502 C1503 1.377 . S
C1502 C1507 1.361 . S
C1503 H1458 0.929 . S
C1503 C1502 1.377 . S
C1503 C1504 1.386 . S
C1504 H1459 0.931 . S
C1504 C1503 1.386 . S
C1504 C1505 1.363 . S
C1505 C1504 1.363 . S
C1505 C1506 1.385 . S
C1506 H1460 0.930 . S
C1506 C1505 1.385 . S
C1506 C1507 1.396 . S
C1507 H1461 0.929 . S
C1507 C1502 1.361 . S
C1507 C1506 1.396 . S
C1508 O1462 1.300 . S
C1508 O1463 1.209 . S
C1508 C1481 1.486 . S
C1509 O1464 1.199 . S
C1509 O1465 1.297 . S
C1509 C1493 1.476 . S
H1510 O1536 0.856 . S
H1511 O1539 0.854 . S
H1512 C1547 0.930 . S
H1513 C1548 0.930 . S
H1514 C1550 0.930 . S
H1515 C1551 0.930 . S
H1516 C1553 0.931 . S
H1517 C1554 0.930 . S
H1518 C1556 0.930 . S
H1519 C1557 0.929 . S
H1520 C1559 0.930 . S
H1521 C1560 0.931 . S
H1522 C1562 0.930 . S
H1523 C1563 0.929 . S
H1524 C1565 0.931 . S
H1525 C1566 0.930 . S
H1526 C1568 0.930 . S
H1527 C1569 0.932 . S
H1528 C1571 0.930 . S
H1529 C1572 0.929 . S
H1530 C1574 0.931 . S
H1531 C1575 0.930 . S
H1532 C1577 0.929 . S
H1533 C1578 0.931 . S
H1534 C1580 0.930 . S
H1535 C1581 0.929 . S
O1536 H1510 0.856 . S
O1536 C1582 1.300 . S
O1537 C1582 1.209 . S
O1538 C1583 1.199 . S
O1539 H1511 0.854 . S
O1539 C1583 1.297 . S
C1540 C1541 1.404 . S
C1540 C1545 1.397 . S
C1540 C1546 1.492 . S
C1541 C1540 1.404 . S
C1541 C1542 1.396 . S
C1541 C1552 1.492 . S
C1542 C1541 1.396 . S
C1542 C1543 1.397 . S
C1542 C1558 1.509 . S
C1543 C1542 1.397 . S
C1543 C1544 1.412 . S
C1543 C1564 1.485 . S
C1544 C1543 1.412 . S
C1544 C1545 1.388 . S
C1544 C1570 1.490 . S
C1545 C1540 1.397 . S
C1545 C1544 1.388 . S
C1545 C1576 1.519 . S
C1546 C1540 1.492 . S
C1546 C1547 1.363 . S
C1546 C1551 1.390 . S
C1547 H1512 0.930 . S
C1547 C1546 1.363 . S
C1547 C1548 1.372 . S
C1548 H1513 0.930 . S
C1548 C1547 1.372 . S
C1548 C1549 1.383 . S
C1549 C1548 1.383 . S
C1549 C1550 1.395 . S
C1550 H1514 0.930 . S
C1550 C1549 1.395 . S
C1550 C1551 1.362 . S
C1551 H1515 0.930 . S
C1551 C1546 1.390 . S
C1551 C1550 1.362 . S
C1552 C1541 1.492 . S
C1552 C1553 1.377 . S
C1552 C1557 1.397 . S
C1553 H1516 0.931 . S
C1553 C1552 1.377 . S
C1553 C1554 1.376 . S
C1554 H1517 0.930 . S
C1554 C1553 1.376 . S
C1554 C1555 1.376 . S
C1555 C1554 1.376 . S
C1555 C1556 1.378 . S
C1555 C1582 1.486 . S
C1556 H1518 0.930 . S
C1556 C1555 1.378 . S
C1556 C1557 1.376 . S
C1557 H1519 0.929 . S
C1557 C1552 1.397 . S
C1557 C1556 1.376 . S
C1558 C1542 1.509 . S
C1558 C1559 1.391 . S
C1558 C1563 1.386 . S
C1559 H1520 0.930 . S
C1559 C1558 1.391 . S
C1559 C1560 1.375 . S
C1560 H1521 0.931 . S
C1560 C1559 1.375 . S
C1560 C1561 1.375 . S
C1561 C1560 1.375 . S
C1561 C1562 1.361 . S
C1562 H1522 0.930 . S
C1562 C1561 1.361 . S
C1562 C1563 1.399 . S
C1563 H1523 0.929 . S
C1563 C1558 1.386 . S
C1563 C1562 1.399 . S
C1564 C1543 1.485 . S
C1564 C1565 1.394 . S
C1564 C1569 1.360 . S
C1565 H1524 0.931 . S
C1565 C1564 1.394 . S
C1565 C1566 1.372 . S
C1566 H1525 0.930 . S
C1566 C1565 1.372 . S
C1566 C1567 1.397 . S
C1567 C1566 1.397 . S
C1567 C1568 1.390 . S
C1567 C1583 1.476 . S
C1568 H1526 0.930 . S
C1568 C1567 1.390 . S
C1568 C1569 1.366 . S
C1569 H1527 0.932 . S
C1569 C1564 1.360 . S
C1569 C1568 1.366 . S
C1570 C1544 1.490 . S
C1570 C1571 1.380 . S
C1570 C1575 1.386 . S
C1571 H1528 0.930 . S
C1571 C1570 1.380 . S
C1571 C1572 1.381 . S
C1572 H1529 0.929 . S
C1572 C1571 1.381 . S
C1572 C1573 1.371 . S
C1573 C1572 1.371 . S
C1573 C1574 1.380 . S
C1574 H1530 0.931 . S
C1574 C1573 1.380 . S
C1574 C1575 1.387 . S
C1575 H1531 0.930 . S
C1575 C1570 1.386 . S
C1575 C1574 1.387 . S
C1576 C1545 1.519 . S
C1576 C1577 1.377 . S
C1576 C1581 1.361 . S
C1577 H1532 0.929 . S
C1577 C1576 1.377 . S
C1577 C1578 1.386 . S
C1578 H1533 0.931 . S
C1578 C1577 1.386 . S
C1578 C1579 1.363 . S
C1579 C1578 1.363 . S
C1579 C1580 1.385 . S
C1580 H1534 0.930 . S
C1580 C1579 1.385 . S
C1580 C1581 1.396 . S
C1581 H1535 0.929 . S
C1581 C1576 1.361 . S
C1581 C1580 1.396 . S
C1582 O1536 1.300 . S
C1582 O1537 1.209 . S
C1582 C1555 1.486 . S
C1583 O1538 1.199 . S
C1583 O1539 1.297 . S
C1583 C1567 1.476 . S
H1584 C1590 0.899 1_455 S
H1585 C1593 0.930 . S
H1586 C1594 0.930 . S
H1587 C1595 0.930 . S
H1588 C1598 0.930 . S
H1589 C1599 0.909 1_455 S
C1590 H1584 0.899 1_655 S
C1590 C1591 1.357 . S
C1590 C1592 1.445 . S
C1591 C1590 1.357 . S
C1591 C1593 1.419 . S
C1592 C1590 1.445 . S
C1592 C1597 1.425 . S
C1592 C1599 1.410 . S
C1593 H1585 0.930 . S
C1593 C1591 1.419 . S
C1593 C1594 1.362 . S
C1594 H1586 0.930 . S
C1594 C1593 1.362 . S
C1594 C1597 1.409 . S
C1595 H1587 0.930 . S
C1595 C1596 1.355 . S
C1595 C1597 1.415 . S
C1596 C1595 1.355 . S
C1596 C1598 1.419 . S
C1597 C1592 1.425 . S
C1597 C1594 1.409 . S
C1597 C1595 1.415 . S
C1598 H1588 0.930 . S
C1598 C1596 1.419 . S
C1598 C1599 1.383 . S
C1599 H1589 0.909 1_655 S
C1599 C1592 1.410 . S
C1599 C1598 1.383 . S
H1600 C1606 0.930 . S
H1601 C1609 0.930 . S
H1602 C1610 0.930 . S
H1603 C1611 0.930 . S
H1604 C1614 0.930 . S
H1605 C1615 0.930 . S
C1606 H1600 0.930 . S
C1606 C1607 1.355 . S
C1606 C1608 1.415 . S
C1607 C1606 1.355 . S
C1607 C1609 1.419 . S
C1608 C1606 1.415 . S
C1608 C1613 1.425 . S
C1608 C1615 1.409 . S
C1609 H1601 0.930 . S
C1609 C1607 1.419 . S
C1609 C1610 1.362 . S
C1610 H1602 0.930 . S
C1610 C1609 1.362 . S
C1610 C1613 1.409 . S
C1611 H1603 0.930 . S
C1611 C1612 1.355 . S
C1611 C1613 1.415 . S
C1612 C1611 1.355 . S
C1612 C1614 1.419 . S
C1613 C1608 1.425 . S
C1613 C1610 1.409 . S
C1613 C1611 1.415 . S
C1614 H1604 0.930 . S
C1614 C1612 1.419 . S
C1614 C1615 1.362 . S
C1615 H1605 0.930 . S
C1615 C1608 1.409 . S
C1615 C1614 1.362 . S
H1616 C1622 0.930 . S
H1617 C1625 0.930 . S
H1618 C1626 0.930 . S
H1619 C1627 0.930 . S
H1620 C1630 0.930 . S
H1621 C1631 0.930 . S
C1622 H1616 0.930 . S
C1622 C1623 1.355 . S
C1622 C1624 1.415 . S
C1623 C1622 1.355 . S
C1623 C1625 1.419 . S
C1624 C1622 1.415 . S
C1624 C1629 1.425 . S
C1624 C1631 1.409 . S
C1625 H1617 0.930 . S
C1625 C1623 1.419 . S
C1625 C1626 1.362 . S
C1626 H1618 0.930 . S
C1626 C1625 1.362 . S
C1626 C1629 1.409 . S
C1627 H1619 0.930 . S
C1627 C1628 1.355 . S
C1627 C1629 1.415 . S
C1628 C1627 1.355 . S
C1628 C1630 1.419 . S
C1629 C1624 1.425 . S
C1629 C1626 1.409 . S
C1629 C1627 1.415 . S
C1630 H1620 0.930 . S
C1630 C1628 1.419 . S
C1630 C1631 1.362 . S
C1631 H1621 0.930 . S
C1631 C1624 1.409 . S
C1631 C1630 1.362 . S
H1632 C1638 0.930 . S
H1633 C1641 0.930 . S
H1634 C1642 0.930 . S
H1635 C1643 0.930 . S
H1636 C1646 0.930 . S
H1637 C1647 0.930 . S
C1638 H1632 0.930 . S
C1638 C1639 1.355 . S
C1638 C1640 1.415 . S
C1639 C1638 1.355 . S
C1639 C1641 1.419 . S
C1640 C1638 1.415 . S
C1640 C1645 1.425 . S
C1640 C1647 1.409 . S
C1641 H1633 0.930 . S
C1641 C1639 1.419 . S
C1641 C1642 1.362 . S
C1642 H1634 0.930 . S
C1642 C1641 1.362 . S
C1642 C1645 1.409 . S
C1643 H1635 0.930 . S
C1643 C1644 1.355 . S
C1643 C1645 1.415 . S
C1644 C1643 1.355 . S
C1644 C1646 1.419 . S
C1645 C1640 1.425 . S
C1645 C1642 1.409 . S
C1645 C1643 1.415 . S
C1646 H1636 0.930 . S
C1646 C1644 1.419 . S
C1646 C1647 1.362 . S
C1647 H1637 0.930 . S
C1647 C1640 1.409 . S
C1647 C1646 1.362 . S
H1648 C1654 0.930 . S
H1649 C1657 0.931 1_655 S
H1650 C1658 0.930 1_655 S
H1651 C1659 0.928 . S
H1652 C1662 0.930 . S
H1653 C1663 0.930 . S
C1654 H1648 0.930 . S
C1654 C1655 1.355 . S
C1654 C1656 1.415 . S
C1655 C1654 1.355 . S
C1655 C1657 1.419 . S
C1656 C1654 1.415 . S
C1656 C1661 1.425 . S
C1656 C1663 1.409 . S
C1657 H1649 0.931 1_455 S
C1657 C1655 1.419 . S
C1657 C1658 1.362 . S
C1658 H1650 0.930 1_455 S
C1658 C1657 1.362 . S
C1658 C1661 1.409 . S
C1659 H1651 0.928 . S
C1659 C1660 1.355 . S
C1659 C1661 1.415 . S
C1660 C1659 1.355 . S
C1660 C1662 1.419 . S
C1661 C1656 1.425 . S
C1661 C1658 1.409 . S
C1661 C1659 1.415 . S
C1662 H1652 0.930 . S
C1662 C1660 1.419 . S
C1662 C1663 1.362 . S
C1663 H1653 0.930 . S
C1663 C1656 1.409 . S
C1663 C1662 1.362 . S
H1664 C1670 0.930 . S
H1665 C1673 0.930 . S
H1666 C1674 0.930 . S
H1667 C1675 0.930 . S
H1668 C1678 0.930 . S
H1669 C1679 0.930 . S
C1670 H1664 0.930 . S
C1670 C1671 1.355 1_556 S
C1670 C1672 1.415 . S
C1671 C1670 1.355 1_554 S
C1671 C1673 1.419 . S
C1672 C1670 1.415 . S
C1672 C1677 1.425 . S
C1672 C1679 1.409 . S
C1673 H1665 0.930 . S
C1673 C1671 1.419 . S
C1673 C1674 1.362 . S
C1674 H1666 0.930 . S
C1674 C1673 1.362 . S
C1674 C1677 1.409 1_554 S
C1675 H1667 0.930 . S
C1675 C1676 1.355 . S
C1675 C1677 1.415 . S
C1676 C1675 1.355 . S
C1676 C1678 1.419 . S
C1677 C1672 1.425 . S
C1677 C1674 1.409 1_556 S
C1677 C1675 1.415 . S
C1678 H1668 0.930 . S
C1678 C1676 1.419 . S
C1678 C1679 1.362 . S
C1679 H1669 0.930 . S
C1679 C1672 1.409 . S
C1679 C1678 1.362 . S
H1680 C1686 0.930 . S
H1681 C1689 0.930 . S
H1682 C1690 0.930 . S
H1683 C1691 0.930 . S
H1684 C1694 0.930 1_655 S
H1685 C1695 0.930 . S
C1686 H1680 0.930 . S
C1686 C1687 1.355 1_556 S
C1686 C1688 1.415 . S
C1687 C1686 1.355 1_554 S
C1687 C1689 1.419 . S
C1688 C1686 1.415 . S
C1688 C1693 1.425 . S
C1688 C1695 1.409 . S
C1689 H1681 0.930 . S
C1689 C1687 1.419 . S
C1689 C1690 1.362 . S
C1690 H1682 0.930 . S
C1690 C1689 1.362 . S
C1690 C1693 1.409 1_554 S
C1691 H1683 0.930 . S
C1691 C1692 1.355 . S
C1691 C1693 1.415 . S
C1692 C1691 1.355 . S
C1692 C1694 1.419 . S
C1693 C1688 1.425 . S
C1693 C1690 1.409 1_556 S
C1693 C1691 1.415 . S
C1694 H1684 0.930 1_455 S
C1694 C1692 1.419 . S
C1694 C1695 1.362 . S
C1695 H1685 0.930 . S
C1695 C1688 1.409 . S
C1695 C1694 1.362 . S
H1696 C1702 0.930 . S
H1697 C1705 0.930 . S
H1698 C1706 0.930 . S
H1699 C1707 0.930 . S
H1700 C1710 0.930 . S
H1701 C1711 0.930 . S
C1702 H1696 0.930 . S
C1702 C1703 1.355 . S
C1702 C1704 1.415 . S
C1703 C1702 1.355 . S
C1703 C1705 1.419 . S
C1704 C1702 1.415 . S
C1704 C1709 1.425 . S
C1704 C1711 1.409 . S
C1705 H1697 0.930 . S
C1705 C1703 1.419 . S
C1705 C1706 1.362 . S
C1706 H1698 0.930 . S
C1706 C1705 1.362 . S
C1706 C1709 1.409 . S
C1707 H1699 0.930 . S
C1707 C1708 1.355 . S
C1707 C1709 1.415 . S
C1708 C1707 1.355 . S
C1708 C1710 1.419 . S
C1709 C1704 1.425 . S
C1709 C1706 1.409 . S
C1709 C1707 1.415 . S
C1710 H1700 0.930 . S
C1710 C1708 1.419 . S
C1710 C1711 1.362 . S
C1711 H1701 0.930 . S
C1711 C1704 1.409 . S
C1711 C1710 1.362 . S
H1712 C1718 0.930 . S
H1713 C1721 0.921 1_554 S
H1714 C1722 0.930 . S
H1715 C1723 0.930 . S
H1716 C1726 0.930 . S
H1717 C1727 0.930 . S
C1718 H1712 0.930 . S
C1718 C1719 1.355 1_546 S
C1718 C1720 1.415 . S
C1719 C1718 1.355 1_564 S
C1719 C1721 1.417 1_554 S
C1720 C1718 1.415 . S
C1720 C1725 1.425 1_545 S
C1720 C1727 1.409 . S
C1721 H1713 0.921 1_556 S
C1721 C1719 1.417 1_556 S
C1721 C1722 1.373 . S
C1722 H1714 0.930 . S
C1722 C1721 1.373 . S
C1722 C1725 1.409 . S
C1723 H1715 0.930 . S
C1723 C1724 1.355 1_565 S
C1723 C1725 1.415 . S
C1724 C1723 1.355 1_545 S
C1724 C1726 1.419 . S
C1725 C1720 1.425 1_565 S
C1725 C1722 1.409 . S
C1725 C1723 1.415 . S
C1726 H1716 0.930 . S
C1726 C1724 1.419 . S
C1726 C1727 1.362 . S
C1727 H1717 0.930 . S
C1727 C1720 1.409 . S
C1727 C1726 1.362 . S
H1728 C1734 0.930 . S
H1729 C1737 0.930 . S
H1730 C1738 0.930 . S
H1731 C1739 0.930 . S
H1732 C1742 0.930 . S
H1733 C1743 0.930 . S
C1734 H1728 0.930 . S
C1734 C1735 1.355 . S
C1734 C1736 1.415 . S
C1735 C1734 1.355 . S
C1735 C1737 1.419 . S
C1736 C1734 1.415 . S
C1736 C1741 1.425 . S
C1736 C1743 1.409 . S
C1737 H1729 0.930 . S
C1737 C1735 1.419 . S
C1737 C1738 1.362 . S
C1738 H1730 0.930 . S
C1738 C1737 1.362 . S
C1738 C1741 1.409 . S
C1739 H1731 0.930 . S
C1739 C1740 1.355 . S
C1739 C1741 1.415 . S
C1740 C1739 1.355 . S
C1740 C1742 1.419 . S
C1741 C1736 1.425 . S
C1741 C1738 1.409 . S
C1741 C1739 1.415 . S
C1742 H1732 0.930 . S
C1742 C1740 1.419 . S
C1742 C1743 1.362 . S
C1743 H1733 0.930 . S
C1743 C1736 1.409 . S
C1743 C1742 1.362 . S
H1744 C1750 0.930 . S
H1745 C1753 0.930 . S
H1746 C1754 0.930 . S
H1747 C1755 0.930 . S
H1748 C1758 0.930 . S
H1749 C1759 0.930 . S
C1750 H1744 0.930 . S
C1750 C1751 1.355 . S
C1750 C1752 1.415 . S
C1751 C1750 1.355 . S
C1751 C1753 1.419 1_655 S
C1752 C1750 1.415 . S
C1752 C1757 1.425 1_655 S
C1752 C1759 1.409 . S
C1753 H1745 0.930 . S
C1753 C1751 1.419 1_455 S
C1753 C1754 1.362 . S
C1754 H1746 0.930 . S
C1754 C1753 1.362 . S
C1754 C1757 1.409 . S
C1755 H1747 0.930 . S
C1755 C1756 1.355 1_455 S
C1755 C1757 1.415 . S
C1756 C1755 1.355 1_655 S
C1756 C1758 1.419 . S
C1757 C1752 1.425 1_455 S
C1757 C1754 1.409 . S
C1757 C1755 1.415 . S
C1758 H1748 0.930 . S
C1758 C1756 1.419 . S
C1758 C1759 1.362 . S
C1759 H1749 0.930 . S
C1759 C1752 1.409 . S
C1759 C1758 1.362 . S
H1760 C1766 0.930 . S
H1761 C1769 0.930 . S
H1762 C1770 0.930 . S
H1763 C1771 0.930 . S
H1764 C1774 0.930 . S
H1765 C1775 0.930 . S
C1766 H1760 0.930 . S
C1766 C1767 1.355 . S
C1766 C1768 1.415 . S
C1767 C1766 1.355 . S
C1767 C1769 1.419 . S
C1768 C1766 1.415 . S
C1768 C1773 1.425 . S
C1768 C1775 1.409 . S
C1769 H1761 0.930 . S
C1769 C1767 1.419 . S
C1769 C1770 1.362 . S
C1770 H1762 0.930 . S
C1770 C1769 1.362 . S
C1770 C1773 1.409 . S
C1771 H1763 0.930 . S
C1771 C1772 1.355 . S
C1771 C1773 1.415 . S
C1772 C1771 1.355 . S
C1772 C1774 1.419 . S
C1773 C1768 1.425 . S
C1773 C1770 1.409 . S
C1773 C1771 1.415 . S
C1774 H1764 0.930 . S
C1774 C1772 1.419 . S
C1774 C1775 1.362 . S
C1775 H1765 0.930 . S
C1775 C1768 1.409 . S
C1775 C1774 1.362 . S
H1776 C1782 0.930 . S
H1777 C1785 0.930 . S
H1778 C1786 0.930 . S
H1779 C1787 0.930 . S
H1780 C1790 0.930 . S
H1781 C1791 0.930 . S
C1782 H1776 0.930 . S
C1782 C1783 1.355 . S
C1782 C1784 1.415 . S
C1783 C1782 1.355 . S
C1783 C1785 1.419 . S
C1784 C1782 1.415 . S
C1784 C1789 1.425 . S
C1784 C1791 1.409 . S
C1785 H1777 0.930 . S
C1785 C1783 1.419 . S
C1785 C1786 1.362 . S
C1786 H1778 0.930 . S
C1786 C1785 1.362 . S
C1786 C1789 1.409 . S
C1787 H1779 0.930 . S
C1787 C1788 1.355 . S
C1787 C1789 1.415 . S
C1788 C1787 1.355 . S
C1788 C1790 1.419 . S
C1789 C1784 1.425 . S
C1789 C1786 1.409 . S
C1789 C1787 1.415 . S
C1790 H1780 0.930 . S
C1790 C1788 1.419 . S
C1790 C1791 1.362 . S
C1791 H1781 0.930 . S
C1791 C1784 1.409 . S
C1791 C1790 1.362 . S
H1792 C1798 0.930 . S
H1793 C1801 0.930 . S
H1794 C1802 0.930 . S
H1795 C1803 0.930 . S
H1796 C1806 0.930 . S
H1797 C1807 0.930 . S
C1798 H1792 0.930 . S
C1798 C1799 1.355 . S
C1798 C1800 1.415 . S
C1799 C1798 1.355 . S
C1799 C1801 1.419 . S
C1800 C1798 1.415 . S
C1800 C1805 1.425 . S
C1800 C1807 1.409 . S
C1801 H1793 0.930 . S
C1801 C1799 1.419 . S
C1801 C1802 1.362 . S
C1802 H1794 0.930 . S
C1802 C1801 1.362 . S
C1802 C1805 1.409 . S
C1803 H1795 0.930 . S
C1803 C1804 1.355 . S
C1803 C1805 1.415 . S
C1804 C1803 1.355 . S
C1804 C1806 1.419 . S
C1805 C1800 1.425 . S
C1805 C1802 1.409 . S
C1805 C1803 1.415 . S
C1806 H1796 0.930 . S
C1806 C1804 1.419 . S
C1806 C1807 1.362 . S
C1807 H1797 0.930 . S
C1807 C1800 1.409 . S
C1807 C1806 1.362 . S
H1808 C1814 0.930 . S
H1809 C1817 0.930 . S
H1810 C1818 0.930 . S
H1811 C1819 0.930 . S
H1812 C1822 0.930 . S
H1813 C1823 0.930 . S
C1814 H1808 0.930 . S
C1814 C1815 1.355 . S
C1814 C1816 1.415 . S
C1815 C1814 1.355 . S
C1815 C1817 1.419 . S
C1816 C1814 1.415 . S
C1816 C1821 1.425 . S
C1816 C1823 1.409 . S
C1817 H1809 0.930 . S
C1817 C1815 1.419 . S
C1817 C1818 1.362 . S
C1818 H1810 0.930 . S
C1818 C1817 1.362 . S
C1818 C1821 1.409 . S
C1819 H1811 0.930 . S
C1819 C1820 1.355 . S
C1819 C1821 1.415 . S
C1820 C1819 1.355 . S
C1820 C1822 1.419 . S
C1821 C1816 1.425 . S
C1821 C1818 1.409 . S
C1821 C1819 1.415 . S
C1822 H1812 0.930 . S
C1822 C1820 1.419 . S
C1822 C1823 1.362 . S
C1823 H1813 0.930 . S
C1823 C1816 1.409 . S
C1823 C1822 1.362 . S
H1824 C1830 0.930 . S
H1825 C1833 0.930 . S
H1826 C1834 0.930 . S
H1827 C1835 0.930 . S
H1828 C1838 0.930 . S
H1829 C1839 0.930 . S
C1830 H1824 0.930 . S
C1830 C1831 1.355 . S
C1830 C1832 1.415 . S
C1831 C1830 1.355 . S
C1831 C1833 1.419 . S
C1832 C1830 1.415 . S
C1832 C1837 1.425 . S
C1832 C1839 1.409 . S
C1833 H1825 0.930 . S
C1833 C1831 1.419 . S
C1833 C1834 1.362 . S
C1834 H1826 0.930 . S
C1834 C1833 1.362 . S
C1834 C1837 1.409 . S
C1835 H1827 0.930 . S
C1835 C1836 1.355 . S
C1835 C1837 1.415 . S
C1836 C1835 1.355 . S
C1836 C1838 1.419 . S
C1837 C1832 1.425 . S
C1837 C1834 1.409 . S
C1837 C1835 1.415 . S
C1838 H1828 0.930 . S
C1838 C1836 1.419 . S
C1838 C1839 1.362 . S
C1839 H1829 0.930 . S
C1839 C1832 1.409 . S
C1839 C1838 1.362 . S
H1840 C1846 0.930 . S
H1841 C1849 0.930 . S
H1842 C1850 0.930 . S
H1843 C1851 0.930 . S
H1844 C1854 0.930 . S
H1845 C1855 0.930 . S
C1846 H1840 0.930 . S
C1846 C1847 1.355 . S
C1846 C1848 1.415 . S
C1847 C1846 1.355 . S
C1847 C1849 1.419 . S
C1848 C1846 1.415 . S
C1848 C1853 1.425 . S
C1848 C1855 1.409 . S
C1849 H1841 0.930 . S
C1849 C1847 1.419 . S
C1849 C1850 1.362 . S
C1850 H1842 0.930 . S
C1850 C1849 1.362 . S
C1850 C1853 1.409 . S
C1851 H1843 0.930 . S
C1851 C1852 1.355 . S
C1851 C1853 1.415 . S
C1852 C1851 1.355 . S
C1852 C1854 1.419 . S
C1853 C1848 1.425 . S
C1853 C1850 1.409 . S
C1853 C1851 1.415 . S
C1854 H1844 0.930 . S
C1854 C1852 1.419 . S
C1854 C1855 1.362 . S
C1855 H1845 0.930 . S
C1855 C1848 1.409 . S
C1855 C1854 1.362 . S
H1856 C1862 0.930 . S
H1857 C1865 0.930 . S
H1858 C1866 0.930 . S
H1859 C1867 0.930 . S
H1860 C1870 0.930 . S
H1861 C1871 0.930 . S
C1862 H1856 0.930 . S
C1862 C1863 1.355 . S
C1862 C1864 1.415 . S
C1863 C1862 1.355 . S
C1863 C1865 1.419 . S
C1864 C1862 1.415 . S
C1864 C1869 1.425 . S
C1864 C1871 1.409 . S
C1865 H1857 0.930 . S
C1865 C1863 1.419 . S
C1865 C1866 1.362 . S
C1866 H1858 0.930 . S
C1866 C1865 1.362 . S
C1866 C1869 1.409 . S
C1867 H1859 0.930 . S
C1867 C1868 1.355 . S
C1867 C1869 1.415 . S
C1868 C1867 1.355 . S
C1868 C1870 1.419 . S
C1869 C1864 1.425 . S
C1869 C1866 1.409 . S
C1869 C1867 1.415 . S
C1870 H1860 0.930 . S
C1870 C1868 1.419 . S
C1870 C1871 1.362 . S
C1871 H1861 0.930 . S
C1871 C1864 1.409 . S
C1871 C1870 1.362 . S
H1872 C1878 0.930 . S
H1873 C1881 0.930 . S
H1874 C1882 0.930 . S
H1875 C1883 0.930 . S
H1876 C1886 0.930 . S
H1877 C1887 0.930 . S
C1878 H1872 0.930 . S
C1878 C1879 1.355 . S
C1878 C1880 1.415 . S
C1879 C1878 1.355 . S
C1879 C1881 1.419 . S
C1880 C1878 1.415 . S
C1880 C1885 1.425 . S
C1880 C1887 1.409 . S
C1881 H1873 0.930 . S
C1881 C1879 1.419 . S
C1881 C1882 1.362 . S
C1882 H1874 0.930 . S
C1882 C1881 1.362 . S
C1882 C1885 1.409 . S
C1883 H1875 0.930 . S
C1883 C1884 1.355 . S
C1883 C1885 1.415 . S
C1884 C1883 1.355 . S
C1884 C1886 1.419 . S
C1885 C1880 1.425 . S
C1885 C1882 1.409 . S
C1885 C1883 1.415 . S
C1886 H1876 0.930 . S
C1886 C1884 1.419 . S
C1886 C1887 1.362 . S
C1887 H1877 0.930 . S
C1887 C1880 1.409 . S
C1887 C1886 1.362 . S
H1888 C1894 0.930 . S
H1889 C1897 0.930 . S
H1890 C1898 0.930 . S
H1891 C1899 0.930 . S
H1892 C1902 0.930 . S
H1893 C1903 0.930 . S
C1894 H1888 0.930 . S
C1894 C1895 1.355 . S
C1894 C1896 1.415 . S
C1895 C1894 1.355 . S
C1895 C1897 1.419 . S
C1896 C1894 1.415 . S
C1896 C1901 1.425 . S
C1896 C1903 1.409 . S
C1897 H1889 0.930 . S
C1897 C1895 1.419 . S
C1897 C1898 1.362 . S
C1898 H1890 0.930 . S
C1898 C1897 1.362 . S
C1898 C1901 1.409 . S
C1899 H1891 0.930 . S
C1899 C1900 1.355 . S
C1899 C1901 1.415 . S
C1900 C1899 1.355 . S
C1900 C1902 1.419 . S
C1901 C1896 1.425 . S
C1901 C1898 1.409 . S
C1901 C1899 1.415 . S
C1902 H1892 0.930 . S
C1902 C1900 1.419 . S
C1902 C1903 1.362 . S
C1903 H1893 0.930 . S
C1903 C1896 1.409 . S
C1903 C1902 1.362 . S
H1904 C1910 0.930 . S
H1905 C1913 0.930 . S
H1906 C1914 0.930 . S
H1907 C1915 0.930 . S
H1908 C1918 0.930 . S
H1909 C1919 0.930 . S
C1910 H1904 0.930 . S
C1910 C1911 1.355 . S
C1910 C1912 1.415 . S
C1911 C1910 1.355 . S
C1911 C1913 1.419 . S
C1912 C1910 1.415 . S
C1912 C1917 1.425 . S
C1912 C1919 1.409 . S
C1913 H1905 0.930 . S
C1913 C1911 1.419 . S
C1913 C1914 1.362 . S
C1914 H1906 0.930 . S
C1914 C1913 1.362 . S
C1914 C1917 1.409 . S
C1915 H1907 0.930 . S
C1915 C1916 1.355 . S
C1915 C1917 1.415 . S
C1916 C1915 1.355 . S
C1916 C1918 1.419 . S
C1917 C1912 1.425 . S
C1917 C1914 1.409 . S
C1917 C1915 1.415 . S
C1918 H1908 0.930 . S
C1918 C1916 1.419 . S
C1918 C1919 1.362 . S
C1919 H1909 0.930 . S
C1919 C1912 1.409 . S
C1919 C1918 1.362 . S
H1920 C1926 0.930 . S
H1921 C1929 0.930 . S
H1922 C1930 0.930 . S
H1923 C1931 0.930 . S
H1924 C1934 0.930 . S
H1925 C1935 0.930 . S
C1926 H1920 0.930 . S
C1926 C1927 1.355 . S
C1926 C1928 1.415 . S
C1927 C1926 1.355 . S
C1927 C1929 1.419 . S
C1928 C1926 1.415 . S
C1928 C1933 1.425 . S
C1928 C1935 1.409 . S
C1929 H1921 0.930 . S
C1929 C1927 1.419 . S
C1929 C1930 1.362 . S
C1930 H1922 0.930 . S
C1930 C1929 1.362 . S
C1930 C1933 1.409 . S
C1931 H1923 0.930 . S
C1931 C1932 1.355 . S
C1931 C1933 1.415 . S
C1932 C1931 1.355 . S
C1932 C1934 1.419 . S
C1933 C1928 1.425 . S
C1933 C1930 1.409 . S
C1933 C1931 1.415 . S
C1934 H1924 0.930 . S
C1934 C1932 1.419 . S
C1934 C1935 1.362 . S
C1935 H1925 0.930 . S
C1935 C1928 1.409 . S
C1935 C1934 1.362 . S
H1936 C1942 0.930 . S
H1937 C1945 0.930 . S
H1938 C1946 0.930 . S
H1939 C1947 0.930 . S
H1940 C1950 0.930 . S
H1941 C1951 0.930 . S
C1942 H1936 0.930 . S
C1942 C1943 1.355 . S
C1942 C1944 1.415 . S
C1943 C1942 1.355 . S
C1943 C1945 1.419 . S
C1944 C1942 1.415 . S
C1944 C1949 1.425 . S
C1944 C1951 1.409 . S
C1945 H1937 0.930 . S
C1945 C1943 1.419 . S
C1945 C1946 1.362 . S
C1946 H1938 0.930 . S
C1946 C1945 1.362 . S
C1946 C1949 1.409 . S
C1947 H1939 0.930 . S
C1947 C1948 1.355 . S
C1947 C1949 1.415 . S
C1948 C1947 1.355 . S
C1948 C1950 1.419 . S
C1949 C1944 1.425 . S
C1949 C1946 1.409 . S
C1949 C1947 1.415 . S
C1950 H1940 0.930 . S
C1950 C1948 1.419 . S
C1950 C1951 1.362 . S
C1951 H1941 0.930 . S
C1951 C1944 1.409 . S
C1951 C1950 1.362 . S
H1952 C1958 0.930 . S
H1953 C1961 0.930 . S
H1954 C1962 0.930 . S
H1955 C1963 0.930 . S
H1956 C1966 0.930 . S
H1957 C1967 0.930 . S
C1958 H1952 0.930 . S
C1958 C1959 1.355 . S
C1958 C1960 1.415 . S
C1959 C1958 1.355 . S
C1959 C1961 1.419 . S
C1960 C1958 1.415 . S
C1960 C1965 1.425 . S
C1960 C1967 1.409 . S
C1961 H1953 0.930 . S
C1961 C1959 1.419 . S
C1961 C1962 1.362 . S
C1962 H1954 0.930 . S
C1962 C1961 1.362 . S
C1962 C1965 1.409 . S
C1963 H1955 0.930 . S
C1963 C1964 1.355 . S
C1963 C1965 1.415 . S
C1964 C1963 1.355 . S
C1964 C1966 1.419 . S
C1965 C1960 1.425 . S
C1965 C1962 1.409 . S
C1965 C1963 1.415 . S
C1966 H1956 0.930 . S
C1966 C1964 1.419 . S
C1966 C1967 1.362 . S
C1967 H1957 0.930 . S
C1967 C1960 1.409 . S
C1967 C1966 1.362 . S
H1968 C1974 0.930 . S
H1969 C1977 0.930 . S
H1970 C1978 0.930 . S
H1971 C1979 0.930 . S
H1972 C1982 0.930 . S
H1973 C1983 0.930 . S
C1974 H1968 0.930 . S
C1974 C1975 1.355 . S
C1974 C1976 1.415 . S
C1975 C1974 1.355 . S
C1975 C1977 1.419 . S
C1976 C1974 1.415 . S
C1976 C1981 1.425 . S
C1976 C1983 1.409 . S
C1977 H1969 0.930 . S
C1977 C1975 1.419 . S
C1977 C1978 1.362 . S
C1978 H1970 0.930 . S
C1978 C1977 1.362 . S
C1978 C1981 1.409 . S
C1979 H1971 0.930 . S
C1979 C1980 1.355 . S
C1979 C1981 1.415 . S
C1980 C1979 1.355 . S
C1980 C1982 1.419 . S
C1981 C1976 1.425 . S
C1981 C1978 1.409 . S
C1981 C1979 1.415 . S
C1982 H1972 0.930 . S
C1982 C1980 1.419 . S
C1982 C1983 1.362 . S
C1983 H1973 0.930 . S
C1983 C1976 1.409 . S
C1983 C1982 1.362 . S
H1984 C1990 0.930 . S
H1985 C1993 0.930 . S
H1986 C1994 0.930 . S
H1987 C1995 0.930 . S
H1988 C1998 0.930 . S
H1989 C1999 0.930 . S
C1990 H1984 0.930 . S
C1990 C1991 1.355 . S
C1990 C1992 1.415 . S
C1991 C1990 1.355 . S
C1991 C1993 1.419 . S
C1992 C1990 1.415 . S
C1992 C1997 1.425 . S
C1992 C1999 1.409 . S
C1993 H1985 0.930 . S
C1993 C1991 1.419 . S
C1993 C1994 1.362 . S
C1994 H1986 0.930 . S
C1994 C1993 1.362 . S
C1994 C1997 1.409 . S
C1995 H1987 0.930 . S
C1995 C1996 1.355 . S
C1995 C1997 1.415 . S
C1996 C1995 1.355 . S
C1996 C1998 1.419 . S
C1997 C1992 1.425 . S
C1997 C1994 1.409 . S
C1997 C1995 1.415 . S
C1998 H1988 0.930 . S
C1998 C1996 1.419 . S
C1998 C1999 1.362 . S
C1999 H1989 0.930 . S
C1999 C1992 1.409 . S
C1999 C1998 1.362 . S
H2000 C2006 0.930 . S
H2001 C2009 0.930 . S
H2002 C2010 0.930 . S
H2003 C2011 0.930 . S
H2004 C2014 0.930 . S
H2005 C2015 0.930 . S
C2006 H2000 0.930 . S
C2006 C2007 1.355 . S
C2006 C2008 1.415 . S
C2007 C2006 1.355 . S
C2007 C2009 1.419 . S
C2008 C2006 1.415 . S
C2008 C2013 1.425 . S
C2008 C2015 1.409 . S
C2009 H2001 0.930 . S
C2009 C2007 1.419 . S
C2009 C2010 1.362 . S
C2010 H2002 0.930 . S
C2010 C2009 1.362 . S
C2010 C2013 1.409 . S
C2011 H2003 0.930 . S
C2011 C2012 1.355 . S
C2011 C2013 1.415 . S
C2012 C2011 1.355 . S
C2012 C2014 1.419 . S
C2013 C2008 1.425 . S
C2013 C2010 1.409 . S
C2013 C2011 1.415 . S
C2014 H2004 0.930 . S
C2014 C2012 1.419 . S
C2014 C2015 1.362 . S
C2015 H2005 0.930 . S
C2015 C2008 1.409 . S
C2015 C2014 1.362 . S
H2016 C2022 0.930 . S
H2017 C2025 0.930 . S
H2018 C2026 0.930 . S
H2019 C2027 0.930 . S
H2020 C2030 0.930 . S
H2021 C2031 0.930 . S
C2022 H2016 0.930 . S
C2022 C2023 1.355 . S
C2022 C2024 1.415 . S
C2023 C2022 1.355 . S
C2023 C2025 1.419 . S
C2024 C2022 1.415 . S
C2024 C2029 1.425 . S
C2024 C2031 1.409 . S
C2025 H2017 0.930 . S
C2025 C2023 1.419 . S
C2025 C2026 1.362 . S
C2026 H2018 0.930 . S
C2026 C2025 1.362 . S
C2026 C2029 1.409 . S
C2027 H2019 0.930 . S
C2027 C2028 1.355 . S
C2027 C2029 1.415 . S
C2028 C2027 1.355 . S
C2028 C2030 1.419 . S
C2029 C2024 1.425 . S
C2029 C2026 1.409 . S
C2029 C2027 1.415 . S
C2030 H2020 0.930 . S
C2030 C2028 1.419 . S
C2030 C2031 1.362 . S
C2031 H2021 0.930 . S
C2031 C2024 1.409 . S
C2031 C2030 1.362 . S
H2032 C2038 0.930 . S
H2033 C2041 0.930 . S
H2034 C2042 0.930 . S
H2035 C2043 0.930 . S
H2036 C2046 0.930 . S
H2037 C2047 0.930 . S
C2038 H2032 0.930 . S
C2038 C2039 1.355 . S
C2038 C2040 1.415 . S
C2039 C2038 1.355 . S
C2039 C2041 1.419 . S
C2040 C2038 1.415 . S
C2040 C2045 1.425 . S
C2040 C2047 1.409 . S
C2041 H2033 0.930 . S
C2041 C2039 1.419 . S
C2041 C2042 1.362 . S
C2042 H2034 0.930 . S
C2042 C2041 1.362 . S
C2042 C2045 1.409 . S
C2043 H2035 0.930 . S
C2043 C2044 1.355 . S
C2043 C2045 1.415 . S
C2044 C2043 1.355 . S
C2044 C2046 1.419 . S
C2045 C2040 1.425 . S
C2045 C2042 1.409 . S
C2045 C2043 1.415 . S
C2046 H2036 0.930 . S
C2046 C2044 1.419 . S
C2046 C2047 1.362 . S
C2047 H2037 0.930 . S
C2047 C2040 1.409 . S
C2047 C2046 1.362 . S
H2048 C2054 0.930 . S
H2049 C2057 0.930 . S
H2050 C2058 0.930 . S
H2051 C2059 0.930 . S
H2052 C2062 0.930 . S
H2053 C2063 0.930 . S
C2054 H2048 0.930 . S
C2054 C2055 1.355 . S
C2054 C2056 1.415 . S
C2055 C2054 1.355 . S
C2055 C2057 1.419 . S
C2056 C2054 1.415 . S
C2056 C2061 1.425 . S
C2056 C2063 1.409 . S
C2057 H2049 0.930 . S
C2057 C2055 1.419 . S
C2057 C2058 1.362 . S
C2058 H2050 0.930 . S
C2058 C2057 1.362 . S
C2058 C2061 1.409 . S
C2059 H2051 0.930 . S
C2059 C2060 1.355 . S
C2059 C2061 1.415 . S
C2060 C2059 1.355 . S
C2060 C2062 1.419 . S
C2061 C2056 1.425 . S
C2061 C2058 1.409 . S
C2061 C2059 1.415 . S
C2062 H2052 0.930 . S
C2062 C2060 1.419 . S
C2062 C2063 1.362 . S
C2063 H2053 0.930 . S
C2063 C2056 1.409 . S
C2063 C2062 1.362 . S
H2064 C2070 0.930 . S
H2065 C2073 0.930 . S
H2066 C2074 0.930 . S
H2067 C2075 0.930 . S
H2068 C2078 0.930 . S
H2069 C2079 0.930 . S
C2070 H2064 0.930 . S
C2070 C2071 1.355 . S
C2070 C2072 1.415 . S
C2071 C2070 1.355 . S
C2071 C2073 1.419 . S
C2072 C2070 1.415 . S
C2072 C2077 1.425 . S
C2072 C2079 1.409 . S
C2073 H2065 0.930 . S
C2073 C2071 1.419 . S
C2073 C2074 1.362 . S
C2074 H2066 0.930 . S
C2074 C2073 1.362 . S
C2074 C2077 1.409 . S
C2075 H2067 0.930 . S
C2075 C2076 1.355 . S
C2075 C2077 1.415 . S
C2076 C2075 1.355 . S
C2076 C2078 1.419 . S
C2077 C2072 1.425 . S
C2077 C2074 1.409 . S
C2077 C2075 1.415 . S
C2078 H2068 0.930 . S
C2078 C2076 1.419 . S
C2078 C2079 1.362 . S
C2079 H2069 0.930 . S
C2079 C2072 1.409 . S
C2079 C2078 1.362 . S
H2080 C2086 0.930 . S
H2081 C2089 0.930 . S
H2082 C2090 0.930 . S
H2083 C2091 0.930 . S
H2084 C2094 0.930 . S
H2085 C2095 0.930 . S
C2086 H2080 0.930 . S
C2086 C2087 1.355 . S
C2086 C2088 1.415 . S
C2087 C2086 1.355 . S
C2087 C2089 1.419 . S
C2088 C2086 1.415 . S
C2088 C2093 1.425 . S
C2088 C2095 1.409 . S
C2089 H2081 0.930 . S
C2089 C2087 1.419 . S
C2089 C2090 1.362 . S
C2090 H2082 0.930 . S
C2090 C2089 1.362 . S
C2090 C2093 1.409 . S
C2091 H2083 0.930 . S
C2091 C2092 1.355 . S
C2091 C2093 1.415 . S
C2092 C2091 1.355 . S
C2092 C2094 1.419 . S
C2093 C2088 1.425 . S
C2093 C2090 1.409 . S
C2093 C2091 1.415 . S
C2094 H2084 0.930 . S
C2094 C2092 1.419 . S
C2094 C2095 1.362 . S
C2095 H2085 0.930 . S
C2095 C2088 1.409 . S
C2095 C2094 1.362 . S
H2096 C2102 0.930 . S
H2097 C2105 0.930 . S
H2098 C2106 0.930 . S
H2099 C2107 0.930 . S
H2100 C2110 0.930 . S
H2101 C2111 0.930 . S
C2102 H2096 0.930 . S
C2102 C2103 1.355 . S
C2102 C2104 1.415 . S
C2103 C2102 1.355 . S
C2103 C2105 1.419 . S
C2104 C2102 1.415 . S
C2104 C2109 1.425 . S
C2104 C2111 1.409 . S
C2105 H2097 0.930 . S
C2105 C2103 1.419 . S
C2105 C2106 1.362 . S
C2106 H2098 0.930 . S
C2106 C2105 1.362 . S
C2106 C2109 1.409 . S
C2107 H2099 0.930 . S
C2107 C2108 1.355 . S
C2107 C2109 1.415 . S
C2108 C2107 1.355 . S
C2108 C2110 1.419 . S
C2109 C2104 1.425 . S
C2109 C2106 1.409 . S
C2109 C2107 1.415 . S
C2110 H2100 0.930 . S
C2110 C2108 1.419 . S
C2110 C2111 1.362 . S
C2111 H2101 0.930 . S
C2111 C2104 1.409 . S
C2111 C2110 1.362 . S
H2112 C2118 0.930 . S
H2113 C2121 0.930 . S
H2114 C2122 0.930 . S
H2115 C2123 0.930 . S
H2116 C2126 0.930 . S
H2117 C2127 0.930 . S
C2118 H2112 0.930 . S
C2118 C2119 1.355 . S
C2118 C2120 1.415 . S
C2119 C2118 1.355 . S
C2119 C2121 1.419 . S
C2120 C2118 1.415 . S
C2120 C2125 1.425 . S
C2120 C2127 1.409 . S
C2121 H2113 0.930 . S
C2121 C2119 1.419 . S
C2121 C2122 1.362 . S
C2122 H2114 0.930 . S
C2122 C2121 1.362 . S
C2122 C2125 1.409 . S
C2123 H2115 0.930 . S
C2123 C2124 1.355 . S
C2123 C2125 1.415 . S
C2124 C2123 1.355 . S
C2124 C2126 1.419 . S
C2125 C2120 1.425 . S
C2125 C2122 1.409 . S
C2125 C2123 1.415 . S
C2126 H2116 0.930 . S
C2126 C2124 1.419 . S
C2126 C2127 1.362 . S
C2127 H2117 0.930 . S
C2127 C2120 1.409 . S
C2127 C2126 1.362 . S
H2128 C2134 0.930 . S
H2129 C2137 0.930 . S
H2130 C2138 0.930 . S
H2131 C2139 0.930 . S
H2132 C2142 0.930 . S
H2133 C2143 0.930 . S
C2134 H2128 0.930 . S
C2134 C2135 1.355 . S
C2134 C2136 1.415 . S
C2135 C2134 1.355 . S
C2135 C2137 1.419 . S
C2136 C2134 1.415 . S
C2136 C2141 1.425 . S
C2136 C2143 1.409 . S
C2137 H2129 0.930 . S
C2137 C2135 1.419 . S
C2137 C2138 1.362 . S
C2138 H2130 0.930 . S
C2138 C2137 1.362 . S
C2138 C2141 1.409 . S
C2139 H2131 0.930 . S
C2139 C2140 1.355 . S
C2139 C2141 1.415 . S
C2140 C2139 1.355 . S
C2140 C2142 1.419 . S
C2141 C2136 1.425 . S
C2141 C2138 1.409 . S
C2141 C2139 1.415 . S
C2142 H2132 0.930 . S
C2142 C2140 1.419 . S
C2142 C2143 1.362 . S
C2143 H2133 0.930 . S
C2143 C2136 1.409 . S
C2143 C2142 1.362 . S
H2144 C2150 0.930 . S
H2145 C2153 0.930 . S
H2146 C2154 0.930 . S
H2147 C2155 0.930 . S
H2148 C2158 0.930 . S
H2149 C2159 0.930 . S
C2150 H2144 0.930 . S
C2150 C2151 1.355 . S
C2150 C2152 1.415 . S
C2151 C2150 1.355 . S
C2151 C2153 1.419 . S
C2152 C2150 1.415 . S
C2152 C2157 1.425 . S
C2152 C2159 1.409 . S
C2153 H2145 0.930 . S
C2153 C2151 1.419 . S
C2153 C2154 1.362 . S
C2154 H2146 0.930 . S
C2154 C2153 1.362 . S
C2154 C2157 1.409 . S
C2155 H2147 0.930 . S
C2155 C2156 1.355 . S
C2155 C2157 1.415 . S
C2156 C2155 1.355 . S
C2156 C2158 1.419 . S
C2157 C2152 1.425 . S
C2157 C2154 1.409 . S
C2157 C2155 1.415 . S
C2158 H2148 0.930 . S
C2158 C2156 1.419 . S
C2158 C2159 1.362 . S
C2159 H2149 0.930 . S
C2159 C2152 1.409 . S
C2159 C2158 1.362 . S
H2160 C2166 0.930 . S
H2161 C2169 0.930 . S
H2162 C2170 0.930 . S
H2163 C2171 0.930 . S
H2164 C2174 0.930 . S
H2165 C2175 0.930 . S
C2166 H2160 0.930 . S
C2166 C2167 1.355 . S
C2166 C2168 1.415 . S
C2167 C2166 1.355 . S
C2167 C2169 1.419 . S
C2168 C2166 1.415 . S
C2168 C2173 1.425 . S
C2168 C2175 1.409 . S
C2169 H2161 0.930 . S
C2169 C2167 1.419 . S
C2169 C2170 1.362 . S
C2170 H2162 0.930 . S
C2170 C2169 1.362 . S
C2170 C2173 1.409 . S
C2171 H2163 0.930 . S
C2171 C2172 1.355 . S
C2171 C2173 1.415 . S
C2172 C2171 1.355 . S
C2172 C2174 1.419 . S
C2173 C2168 1.425 . S
C2173 C2170 1.409 . S
C2173 C2171 1.415 . S
C2174 H2164 0.930 . S
C2174 C2172 1.419 . S
C2174 C2175 1.362 . S
C2175 H2165 0.930 . S
C2175 C2168 1.409 . S
C2175 C2174 1.362 . S
H2176 C2182 0.930 . S
H2177 C2185 0.930 . S
H2178 C2186 0.930 . S
H2179 C2187 0.930 . S
H2180 C2190 0.930 . S
H2181 C2191 0.930 . S
C2182 H2176 0.930 . S
C2182 C2183 1.355 . S
C2182 C2184 1.415 . S
C2183 C2182 1.355 . S
C2183 C2185 1.419 . S
C2184 C2182 1.415 . S
C2184 C2189 1.425 . S
C2184 C2191 1.409 . S
C2185 H2177 0.930 . S
C2185 C2183 1.419 . S
C2185 C2186 1.362 . S
C2186 H2178 0.930 . S
C2186 C2185 1.362 . S
C2186 C2189 1.409 . S
C2187 H2179 0.930 . S
C2187 C2188 1.355 . S
C2187 C2189 1.415 . S
C2188 C2187 1.355 . S
C2188 C2190 1.419 . S
C2189 C2184 1.425 . S
C2189 C2186 1.409 . S
C2189 C2187 1.415 . S
C2190 H2180 0.930 . S
C2190 C2188 1.419 . S
C2190 C2191 1.362 . S
C2191 H2181 0.930 . S
C2191 C2184 1.409 . S
C2191 C2190 1.362 . S
H2192 C2198 0.930 . S
H2193 C2201 0.930 . S
H2194 C2202 0.930 . S
H2195 C2203 0.930 . S
H2196 C2206 0.930 . S
H2197 C2207 0.930 . S
C2198 H2192 0.930 . S
C2198 C2199 1.355 . S
C2198 C2200 1.415 . S
C2199 C2198 1.355 . S
C2199 C2201 1.419 . S
C2200 C2198 1.415 . S
C2200 C2205 1.425 . S
C2200 C2207 1.409 . S
C2201 H2193 0.930 . S
C2201 C2199 1.419 . S
C2201 C2202 1.362 . S
C2202 H2194 0.930 . S
C2202 C2201 1.362 . S
C2202 C2205 1.409 . S
C2203 H2195 0.930 . S
C2203 C2204 1.355 . S
C2203 C2205 1.415 . S
C2204 C2203 1.355 . S
C2204 C2206 1.419 . S
C2205 C2200 1.425 . S
C2205 C2202 1.409 . S
C2205 C2203 1.415 . S
C2206 H2196 0.930 . S
C2206 C2204 1.419 . S
C2206 C2207 1.362 . S
C2207 H2197 0.930 . S
C2207 C2200 1.409 . S
C2207 C2206 1.362 . S
H2208 C2214 0.930 . S
H2209 C2217 0.934 . S
H2210 C2218 0.930 . S
H2211 C2219 0.930 . S
H2212 C2222 0.930 . S
H2213 C2223 0.930 . S
C2214 H2208 0.930 . S
C2214 C2215 1.355 . S
C2214 C2216 1.415 1_554 S
C2215 C2214 1.355 . S
C2215 C2217 1.419 1_554 S
C2216 C2214 1.415 1_556 S
C2216 C2221 1.425 . S
C2216 C2223 1.409 . S
C2217 H2209 0.934 . S
C2217 C2215 1.419 1_556 S
C2217 C2218 1.362 . S
C2218 H2210 0.930 . S
C2218 C2217 1.362 . S
C2218 C2221 1.409 . S
C2219 H2211 0.930 . S
C2219 C2220 1.355 . S
C2219 C2221 1.415 . S
C2220 C2219 1.355 . S
C2220 C2222 1.419 . S
C2221 C2216 1.425 . S
C2221 C2218 1.409 . S
C2221 C2219 1.415 . S
C2222 H2212 0.930 . S
C2222 C2220 1.419 . S
C2222 C2223 1.362 . S
C2223 H2213 0.930 . S
C2223 C2216 1.409 . S
C2223 C2222 1.362 . S
H2224 C2230 0.930 . S
H2225 C2233 0.927 1_554 S
H2226 C2234 0.930 . S
H2227 C2235 0.930 . S
H2228 C2238 0.930 . S
H2229 C2239 0.930 . S
C2230 H2224 0.930 . S
C2230 C2231 1.355 . S
C2230 C2232 1.415 . S
C2231 C2230 1.355 . S
C2231 C2233 1.421 . S
C2232 C2230 1.415 . S
C2232 C2237 1.425 . S
C2232 C2239 1.409 . S
C2233 H2225 0.927 1_556 S
C2233 C2231 1.421 . S
C2233 C2234 1.363 . S
C2234 H2226 0.930 . S
C2234 C2233 1.363 . S
C2234 C2237 1.409 . S
C2235 H2227 0.930 . S
C2235 C2236 1.355 . S
C2235 C2237 1.415 . S
C2236 C2235 1.355 . S
C2236 C2238 1.419 . S
C2237 C2232 1.425 . S
C2237 C2234 1.409 . S
C2237 C2235 1.415 . S
C2238 H2228 0.930 . S
C2238 C2236 1.419 . S
C2238 C2239 1.362 . S
C2239 H2229 0.930 . S
C2239 C2232 1.409 . S
C2239 C2238 1.362 . S
H2240 C2246 0.930 . S
H2241 C2249 0.930 . S
H2242 C2250 0.930 1_556 S
H2243 C2251 0.930 . S
H2244 C2254 0.930 . S
H2245 C2255 0.930 . S
C2246 H2240 0.930 . S
C2246 C2247 1.355 . S
C2246 C2248 1.415 . S
C2247 C2246 1.355 . S
C2247 C2249 1.419 . S
C2248 C2246 1.415 . S
C2248 C2253 1.425 . S
C2248 C2255 1.409 . S
C2249 H2241 0.930 . S
C2249 C2247 1.419 . S
C2249 C2250 1.362 . S
C2250 H2242 0.930 1_554 S
C2250 C2249 1.362 . S
C2250 C2253 1.409 . S
C2251 H2243 0.930 . S
C2251 C2252 1.355 . S
C2251 C2253 1.415 1_556 S
C2252 C2251 1.355 . S
C2252 C2254 1.419 1_556 S
C2253 C2248 1.425 . S
C2253 C2250 1.409 . S
C2253 C2251 1.415 1_554 S
C2254 H2244 0.930 . S
C2254 C2252 1.419 1_554 S
C2254 C2255 1.362 . S
C2255 H2245 0.930 . S
C2255 C2248 1.409 . S
C2255 C2254 1.362 . S
H2256 C2262 0.930 . S
H2257 C2265 0.930 . S
H2258 C2266 0.930 . S
H2259 C2267 0.930 . S
H2260 C2270 0.930 . S
H2261 C2271 0.930 . S
C2262 H2256 0.930 . S
C2262 C2263 1.355 1_556 S
C2262 C2264 1.415 . S
C2263 C2262 1.355 1_554 S
C2263 C2265 1.419 . S
C2264 C2262 1.415 . S
C2264 C2269 1.425 . S
C2264 C2271 1.409 . S
C2265 H2257 0.930 . S
C2265 C2263 1.419 . S
C2265 C2266 1.362 . S
C2266 H2258 0.930 . S
C2266 C2265 1.362 . S
C2266 C2269 1.409 1_554 S
C2267 H2259 0.930 . S
C2267 C2268 1.355 . S
C2267 C2269 1.415 . S
C2268 C2267 1.355 . S
C2268 C2270 1.419 . S
C2269 C2264 1.425 . S
C2269 C2266 1.409 1_556 S
C2269 C2267 1.415 . S
C2270 H2260 0.930 . S
C2270 C2268 1.419 . S
C2270 C2271 1.362 . S
C2271 H2261 0.930 . S
C2271 C2264 1.409 . S
C2271 C2270 1.362 . S
H2272 C2278 0.930 . S
H2273 C2281 0.930 . S
H2274 C2282 0.930 . S
H2275 C2283 0.930 . S
H2276 C2286 0.930 . S
H2277 C2287 0.930 . S
C2278 H2272 0.930 . S
C2278 C2279 1.355 . S
C2278 C2280 1.415 . S
C2279 C2278 1.355 . S
C2279 C2281 1.419 . S
C2280 C2278 1.415 . S
C2280 C2285 1.425 . S
C2280 C2287 1.409 . S
C2281 H2273 0.930 . S
C2281 C2279 1.419 . S
C2281 C2282 1.362 . S
C2282 H2274 0.930 . S
C2282 C2281 1.362 . S
C2282 C2285 1.409 . S
C2283 H2275 0.930 . S
C2283 C2284 1.355 . S
C2283 C2285 1.415 . S
C2284 C2283 1.355 . S
C2284 C2286 1.419 . S
C2285 C2280 1.425 . S
C2285 C2282 1.409 . S
C2285 C2283 1.415 . S
C2286 H2276 0.930 . S
C2286 C2284 1.419 . S
C2286 C2287 1.362 . S
C2287 H2277 0.930 . S
C2287 C2280 1.409 . S
C2287 C2286 1.362 . S
H2288 C2294 0.930 . S
H2289 C2297 0.930 . S
H2290 C2298 0.930 . S
H2291 C2299 0.930 . S
H2292 C2302 0.930 . S
H2293 C2303 0.930 . S
C2294 H2288 0.930 . S
C2294 C2295 1.355 . S
C2294 C2296 1.415 . S
C2295 C2294 1.355 . S
C2295 C2297 1.419 1_554 S
C2296 C2294 1.415 . S
C2296 C2301 1.425 1_554 S
C2296 C2303 1.409 . S
C2297 H2289 0.930 . S
C2297 C2295 1.419 1_556 S
C2297 C2298 1.362 . S
C2298 H2290 0.930 . S
C2298 C2297 1.362 . S
C2298 C2301 1.409 . S
C2299 H2291 0.930 . S
C2299 C2300 1.355 . S
C2299 C2301 1.415 . S
C2300 C2299 1.355 . S
C2300 C2302 1.419 1_556 S
C2301 C2296 1.425 1_556 S
C2301 C2298 1.409 . S
C2301 C2299 1.415 . S
C2302 H2292 0.930 . S
C2302 C2300 1.419 1_554 S
C2302 C2303 1.362 . S
C2303 H2293 0.930 . S
C2303 C2296 1.409 . S
C2303 C2302 1.362 . S
H2304 C2310 0.930 . S
H2305 C2313 0.930 . S
H2306 C2314 0.930 . S
H2307 C2315 0.930 . S
H2308 C2318 0.930 . S
H2309 C2319 0.930 . S
C2310 H2304 0.930 . S
C2310 C2311 1.355 . S
C2310 C2312 1.415 . S
C2311 C2310 1.355 . S
C2311 C2313 1.419 . S
C2312 C2310 1.415 . S
C2312 C2317 1.425 . S
C2312 C2319 1.409 . S
C2313 H2305 0.930 . S
C2313 C2311 1.419 . S
C2313 C2314 1.362 . S
C2314 H2306 0.930 . S
C2314 C2313 1.362 . S
C2314 C2317 1.409 . S
C2315 H2307 0.930 . S
C2315 C2316 1.355 . S
C2315 C2317 1.415 . S
C2316 C2315 1.355 . S
C2316 C2318 1.419 . S
C2317 C2312 1.425 . S
C2317 C2314 1.409 . S
C2317 C2315 1.415 . S
C2318 H2308 0.930 . S
C2318 C2316 1.419 . S
C2318 C2319 1.362 . S
C2319 H2309 0.930 . S
C2319 C2312 1.409 . S
C2319 C2318 1.362 . S
H2320 C2326 0.930 . S
H2321 C2329 0.930 . S
H2322 C2330 0.930 . S
H2323 C2331 0.930 . S
H2324 C2334 0.930 . S
H2325 C2335 0.930 . S
C2326 H2320 0.930 . S
C2326 C2327 1.355 . S
C2326 C2328 1.415 . S
C2327 C2326 1.355 . S
C2327 C2329 1.419 . S
C2328 C2326 1.415 . S
C2328 C2333 1.425 . S
C2328 C2335 1.409 . S
C2329 H2321 0.930 . S
C2329 C2327 1.419 . S
C2329 C2330 1.362 . S
C2330 H2322 0.930 . S
C2330 C2329 1.362 . S
C2330 C2333 1.409 . S
C2331 H2323 0.930 . S
C2331 C2332 1.355 . S
C2331 C2333 1.415 . S
C2332 C2331 1.355 . S
C2332 C2334 1.419 . S
C2333 C2328 1.425 . S
C2333 C2330 1.409 . S
C2333 C2331 1.415 . S
C2334 H2324 0.930 . S
C2334 C2332 1.419 . S
C2334 C2335 1.362 . S
C2335 H2325 0.930 . S
C2335 C2328 1.409 . S
C2335 C2334 1.362 . S
H2336 C2342 0.930 . S
H2337 C2345 0.930 . S
H2338 C2346 0.930 . S
H2339 C2347 0.930 . S
H2340 C2350 0.930 . S
H2341 C2351 0.930 . S
C2342 H2336 0.930 . S
C2342 C2343 1.355 . S
C2342 C2344 1.415 . S
C2343 C2342 1.355 . S
C2343 C2345 1.419 . S
C2344 C2342 1.415 . S
C2344 C2349 1.425 . S
C2344 C2351 1.409 . S
C2345 H2337 0.930 . S
C2345 C2343 1.419 . S
C2345 C2346 1.362 . S
C2346 H2338 0.930 . S
C2346 C2345 1.362 . S
C2346 C2349 1.409 . S
C2347 H2339 0.930 . S
C2347 C2348 1.355 . S
C2347 C2349 1.415 . S
C2348 C2347 1.355 . S
C2348 C2350 1.419 . S
C2349 C2344 1.425 . S
C2349 C2346 1.409 . S
C2349 C2347 1.415 . S
C2350 H2340 0.930 . S
C2350 C2348 1.419 . S
C2350 C2351 1.362 . S
C2351 H2341 0.930 . S
C2351 C2344 1.409 . S
C2351 C2350 1.362 . S
H2352 C2358 0.930 . S
H2353 C2361 0.930 . S
H2354 C2362 0.930 . S
H2355 C2363 0.930 . S
H2356 C2366 0.930 . S
H2357 C2367 0.930 . S
C2358 H2352 0.930 . S
C2358 C2359 1.355 . S
C2358 C2360 1.415 . S
C2359 C2358 1.355 . S
C2359 C2361 1.419 . S
C2360 C2358 1.415 . S
C2360 C2365 1.425 . S
C2360 C2367 1.409 . S
C2361 H2353 0.930 . S
C2361 C2359 1.419 . S
C2361 C2362 1.362 . S
C2362 H2354 0.930 . S
C2362 C2361 1.362 . S
C2362 C2365 1.409 . S
C2363 H2355 0.930 . S
C2363 C2364 1.355 . S
C2363 C2365 1.415 . S
C2364 C2363 1.355 . S
C2364 C2366 1.419 . S
C2365 C2360 1.425 . S
C2365 C2362 1.409 . S
C2365 C2363 1.415 . S
C2366 H2356 0.930 . S
C2366 C2364 1.419 . S
C2366 C2367 1.362 . S
C2367 H2357 0.930 . S
C2367 C2360 1.409 . S
C2367 C2366 1.362 . S
H2368 C2374 0.930 . S
H2369 C2377 0.930 . S
H2370 C2378 0.930 . S
H2371 C2379 0.930 . S
H2372 C2382 0.930 . S
H2373 C2383 0.930 . S
C2374 H2368 0.930 . S
C2374 C2375 1.355 . S
C2374 C2376 1.415 . S
C2375 C2374 1.355 . S
C2375 C2377 1.419 . S
C2376 C2374 1.415 . S
C2376 C2381 1.425 . S
C2376 C2383 1.409 . S
C2377 H2369 0.930 . S
C2377 C2375 1.419 . S
C2377 C2378 1.362 . S
C2378 H2370 0.930 . S
C2378 C2377 1.362 . S
C2378 C2381 1.409 . S
C2379 H2371 0.930 . S
C2379 C2380 1.355 . S
C2379 C2381 1.415 . S
C2380 C2379 1.355 . S
C2380 C2382 1.419 . S
C2381 C2376 1.425 . S
C2381 C2378 1.409 . S
C2381 C2379 1.415 . S
C2382 H2372 0.930 . S
C2382 C2380 1.419 . S
C2382 C2383 1.362 . S
C2383 H2373 0.930 . S
C2383 C2376 1.409 . S
C2383 C2382 1.362 . S
H2384 C2390 0.930 . S
H2385 C2393 0.930 . S
H2386 C2394 0.930 . S
H2387 C2395 0.930 . S
H2388 C2398 0.930 . S
H2389 C2399 0.930 . S
C2390 H2384 0.930 . S
C2390 C2391 1.355 . S
C2390 C2392 1.415 . S
C2391 C2390 1.355 . S
C2391 C2393 1.419 . S
C2392 C2390 1.415 . S
C2392 C2397 1.425 . S
C2392 C2399 1.409 . S
C2393 H2385 0.930 . S
C2393 C2391 1.419 . S
C2393 C2394 1.362 . S
C2394 H2386 0.930 . S
C2394 C2393 1.362 . S
C2394 C2397 1.409 . S
C2395 H2387 0.930 . S
C2395 C2396 1.355 . S
C2395 C2397 1.415 . S
C2396 C2395 1.355 . S
C2396 C2398 1.419 . S
C2397 C2392 1.425 . S
C2397 C2394 1.409 . S
C2397 C2395 1.415 . S
C2398 H2388 0.930 . S
C2398 C2396 1.419 . S
C2398 C2399 1.362 . S
C2399 H2389 0.930 . S
C2399 C2392 1.409 . S
C2399 C2398 1.362 . S
H2400 C2406 0.930 . S
H2401 C2409 0.930 . S
H2402 C2410 0.930 1_655 S
H2403 C2411 0.930 1_655 S
H2404 C2414 0.930 . S
H2405 C2415 0.930 . S
C2406 H2400 0.930 . S
C2406 C2407 1.355 . S
C2406 C2408 1.415 . S
C2407 C2406 1.355 . S
C2407 C2409 1.419 . S
C2408 C2406 1.415 . S
C2408 C2413 1.425 . S
C2408 C2415 1.409 . S
C2409 H2401 0.930 . S
C2409 C2407 1.419 . S
C2409 C2410 1.362 . S
C2410 H2402 0.930 1_455 S
C2410 C2409 1.362 . S
C2410 C2413 1.409 . S
C2411 H2403 0.930 1_455 S
C2411 C2412 1.355 . S
C2411 C2413 1.415 . S
C2412 C2411 1.355 . S
C2412 C2414 1.419 . S
C2413 C2408 1.425 . S
C2413 C2410 1.409 . S
C2413 C2411 1.415 . S
C2414 H2404 0.930 . S
C2414 C2412 1.419 . S
C2414 C2415 1.362 . S
C2415 H2405 0.930 . S
C2415 C2408 1.409 . S
C2415 C2414 1.362 . S
H2416 C2422 0.930 . S
H2417 C2425 0.930 . S
H2418 C2426 0.930 . S
H2419 C2427 0.930 . S
H2420 C2430 0.930 . S
H2421 C2431 0.930 . S
C2422 H2416 0.930 . S
C2422 C2423 1.355 . S
C2422 C2424 1.415 . S
C2423 C2422 1.355 . S
C2423 C2425 1.419 . S
C2424 C2422 1.415 . S
C2424 C2429 1.425 . S
C2424 C2431 1.409 . S
C2425 H2417 0.930 . S
C2425 C2423 1.419 . S
C2425 C2426 1.362 . S
C2426 H2418 0.930 . S
C2426 C2425 1.362 . S
C2426 C2429 1.409 . S
C2427 H2419 0.930 . S
C2427 C2428 1.355 . S
C2427 C2429 1.415 . S
C2428 C2427 1.355 . S
C2428 C2430 1.419 . S
C2429 C2424 1.425 . S
C2429 C2426 1.409 . S
C2429 C2427 1.415 . S
C2430 H2420 0.930 . S
C2430 C2428 1.419 . S
C2430 C2431 1.362 . S
C2431 H2421 0.930 . S
C2431 C2424 1.409 . S
C2431 C2430 1.362 . S
H2432 C2438 0.930 . S
H2433 C2441 0.930 . S
H2434 C2442 0.930 . S
H2435 C2443 0.930 . S
H2436 C2446 0.930 1_545 S
H2437 C2447 0.930 1_545 S
C2438 H2432 0.930 . S
C2438 C2439 1.355 . S
C2438 C2440 1.415 . S
C2439 C2438 1.355 . S
C2439 C2441 1.419 . S
C2440 C2438 1.415 . S
C2440 C2445 1.425 . S
C2440 C2447 1.409 . S
C2441 H2433 0.930 . S
C2441 C2439 1.419 . S
C2441 C2442 1.362 . S
C2442 H2434 0.930 . S
C2442 C2441 1.362 . S
C2442 C2445 1.409 . S
C2443 H2435 0.930 . S
C2443 C2444 1.355 . S
C2443 C2445 1.415 . S
C2444 C2443 1.355 . S
C2444 C2446 1.419 . S
C2445 C2440 1.425 . S
C2445 C2442 1.409 . S
C2445 C2443 1.415 . S
C2446 H2436 0.930 1_565 S
C2446 C2444 1.419 . S
C2446 C2447 1.362 . S
C2447 H2437 0.930 1_565 S
C2447 C2440 1.409 . S
C2447 C2446 1.362 . S
H2448 C2454 0.930 . S
H2449 C2457 0.930 . S
H2450 C2458 0.930 . S
H2451 C2459 0.930 . S
H2452 C2462 0.930 . S
H2453 C2463 0.930 . S
C2454 H2448 0.930 . S
C2454 C2455 1.355 . S
C2454 C2456 1.415 . S
C2455 C2454 1.355 . S
C2455 C2457 1.419 . S
C2456 C2454 1.415 . S
C2456 C2461 1.425 . S
C2456 C2463 1.409 1_565 S
C2457 H2449 0.930 . S
C2457 C2455 1.419 . S
C2457 C2458 1.362 . S
C2458 H2450 0.930 . S
C2458 C2457 1.362 . S
C2458 C2461 1.409 . S
C2459 H2451 0.930 . S
C2459 C2460 1.369 . S
C2459 C2461 1.415 . S
C2460 C2459 1.369 . S
C2460 C2462 1.420 1_565 S
C2461 C2456 1.425 . S
C2461 C2458 1.409 . S
C2461 C2459 1.415 . S
C2462 H2452 0.930 . S
C2462 C2460 1.420 1_545 S
C2462 C2463 1.362 . S
C2463 H2453 0.930 . S
C2463 C2456 1.409 1_545 S
C2463 C2462 1.362 . S
H2464 C2470 0.930 . S
H2465 C2473 0.930 . S
H2466 C2474 0.930 . S
H2467 C2475 0.956 . S
H2468 C2478 0.930 . S
H2469 C2479 0.930 . S
C2470 H2464 0.930 . S
C2470 C2471 1.355 . S
C2470 C2472 1.415 . S
C2471 C2470 1.355 . S
C2471 C2473 1.419 . S
C2472 C2470 1.415 . S
C2472 C2477 1.425 . S
C2472 C2479 1.409 . S
C2473 H2465 0.930 . S
C2473 C2471 1.419 . S
C2473 C2474 1.362 . S
C2474 H2466 0.930 . S
C2474 C2473 1.362 . S
C2474 C2477 1.409 . S
C2475 H2467 0.956 . S
C2475 C2476 1.322 1_655 S
C2475 C2477 1.412 1_655 S
C2476 C2475 1.322 1_455 S
C2476 C2478 1.432 . S
C2477 C2472 1.425 . S
C2477 C2474 1.409 . S
C2477 C2475 1.412 1_455 S
C2478 H2468 0.930 . S
C2478 C2476 1.432 . S
C2478 C2479 1.362 . S
C2479 H2469 0.930 . S
C2479 C2472 1.409 . S
C2479 C2478 1.362 . S
H2480 C2486 0.930 . S
H2481 C2489 0.930 . S
H2482 C2490 0.930 . S
H2483 C2491 0.930 . S
H2484 C2494 0.930 . S
H2485 C2495 0.930 . S
C2486 H2480 0.930 . S
C2486 C2487 1.355 . S
C2486 C2488 1.415 . S
C2487 C2486 1.355 . S
C2487 C2489 1.419 . S
C2488 C2486 1.415 . S
C2488 C2493 1.425 . S
C2488 C2495 1.409 . S
C2489 H2481 0.930 . S
C2489 C2487 1.419 . S
C2489 C2490 1.362 . S
C2490 H2482 0.930 . S
C2490 C2489 1.362 . S
C2490 C2493 1.409 . S
C2491 H2483 0.930 . S
C2491 C2492 1.355 . S
C2491 C2493 1.415 . S
C2492 C2491 1.355 . S
C2492 C2494 1.419 . S
C2493 C2488 1.425 . S
C2493 C2490 1.409 . S
C2493 C2491 1.415 . S
C2494 H2484 0.930 . S
C2494 C2492 1.419 . S
C2494 C2495 1.362 . S
C2495 H2485 0.930 . S
C2495 C2488 1.409 . S
C2495 C2494 1.362 . S
H2496 C2502 0.930 . S
H2497 C2505 0.930 . S
H2498 C2506 0.930 . S
H2499 C2507 0.930 . S
H2500 C2510 0.930 . S
H2501 C2511 0.930 . S
C2502 H2496 0.930 . S
C2502 C2503 1.355 . S
C2502 C2504 1.415 . S
C2503 C2502 1.355 . S
C2503 C2505 1.419 . S
C2504 C2502 1.415 . S
C2504 C2509 1.425 . S
C2504 C2511 1.409 . S
C2505 H2497 0.930 . S
C2505 C2503 1.419 . S
C2505 C2506 1.362 . S
C2506 H2498 0.930 . S
C2506 C2505 1.362 . S
C2506 C2509 1.409 . S
C2507 H2499 0.930 . S
C2507 C2508 1.355 . S
C2507 C2509 1.415 . S
C2508 C2507 1.355 . S
C2508 C2510 1.419 . S
C2509 C2504 1.425 . S
C2509 C2506 1.409 . S
C2509 C2507 1.415 . S
C2510 H2500 0.930 . S
C2510 C2508 1.419 . S
C2510 C2511 1.362 . S
C2511 H2501 0.930 . S
C2511 C2504 1.409 . S
C2511 C2510 1.362 . S
H2512 C2518 0.930 . S
H2513 C2521 0.930 . S
H2514 C2522 0.930 . S
H2515 C2523 0.930 . S
H2516 C2526 0.930 . S
H2517 C2527 0.930 . S
C2518 H2512 0.930 . S
C2518 C2519 1.355 . S
C2518 C2520 1.415 . S
C2519 C2518 1.355 . S
C2519 C2521 1.419 . S
C2520 C2518 1.415 . S
C2520 C2525 1.425 . S
C2520 C2527 1.409 . S
C2521 H2513 0.930 . S
C2521 C2519 1.419 . S
C2521 C2522 1.362 . S
C2522 H2514 0.930 . S
C2522 C2521 1.362 . S
C2522 C2525 1.409 . S
C2523 H2515 0.930 . S
C2523 C2524 1.355 . S
C2523 C2525 1.415 . S
C2524 C2523 1.355 . S
C2524 C2526 1.419 . S
C2525 C2520 1.425 . S
C2525 C2522 1.409 . S
C2525 C2523 1.415 . S
C2526 H2516 0.930 . S
C2526 C2524 1.419 . S
C2526 C2527 1.362 . S
C2527 H2517 0.930 . S
C2527 C2520 1.409 . S
C2527 C2526 1.362 . S
H2528 C2534 0.930 . S
H2529 C2537 0.930 . S
H2530 C2538 0.930 . S
H2531 C2539 0.930 . S
H2532 C2542 0.930 . S
H2533 C2543 0.930 . S
C2534 H2528 0.930 . S
C2534 C2535 1.355 . S
C2534 C2536 1.415 . S
C2535 C2534 1.355 . S
C2535 C2537 1.419 . S
C2536 C2534 1.415 . S
C2536 C2541 1.425 . S
C2536 C2543 1.409 . S
C2537 H2529 0.930 . S
C2537 C2535 1.419 . S
C2537 C2538 1.362 . S
C2538 H2530 0.930 . S
C2538 C2537 1.362 . S
C2538 C2541 1.409 . S
C2539 H2531 0.930 . S
C2539 C2540 1.355 . S
C2539 C2541 1.415 . S
C2540 C2539 1.355 . S
C2540 C2542 1.419 . S
C2541 C2536 1.425 . S
C2541 C2538 1.409 . S
C2541 C2539 1.415 . S
C2542 H2532 0.930 . S
C2542 C2540 1.419 . S
C2542 C2543 1.362 . S
C2543 H2533 0.930 . S
C2543 C2536 1.409 . S
C2543 C2542 1.362 . S
H2544 C2550 0.930 . S
H2545 C2553 0.930 . S
H2546 C2554 0.930 . S
H2547 C2555 0.930 . S
H2548 C2558 0.930 1_565 S
H2549 C2559 0.959 . S
C2550 H2544 0.930 . S
C2550 C2551 1.355 . S
C2550 C2552 1.415 . S
C2551 C2550 1.355 . S
C2551 C2553 1.419 . S
C2552 C2550 1.415 . S
C2552 C2557 1.425 . S
C2552 C2559 1.409 . S
C2553 H2545 0.930 . S
C2553 C2551 1.419 . S
C2553 C2554 1.362 . S
C2554 H2546 0.930 . S
C2554 C2553 1.362 . S
C2554 C2557 1.409 . S
C2555 H2547 0.930 . S
C2555 C2556 1.355 . S
C2555 C2557 1.415 . S
C2556 C2555 1.355 . S
C2556 C2558 1.419 . S
C2557 C2552 1.425 . S
C2557 C2554 1.409 . S
C2557 C2555 1.415 . S
C2558 H2548 0.930 1_545 S
C2558 C2556 1.419 . S
C2558 C2559 1.362 . S
C2559 H2549 0.959 . S
C2559 C2552 1.409 . S
C2559 C2558 1.362 . S
H2560 C2566 0.930 . S
H2561 C2569 0.930 . S
H2562 C2570 0.930 1_455 S
H2563 C2571 0.930 1_455 S
H2564 C2574 0.930 . S
H2565 C2575 0.930 . S
C2566 H2560 0.930 . S
C2566 C2567 1.355 . S
C2566 C2568 1.415 . S
C2567 C2566 1.355 . S
C2567 C2569 1.419 . S
C2568 C2566 1.415 . S
C2568 C2573 1.425 . S
C2568 C2575 1.409 . S
C2569 H2561 0.930 . S
C2569 C2567 1.419 . S
C2569 C2570 1.362 . S
C2570 H2562 0.930 1_655 S
C2570 C2569 1.362 . S
C2570 C2573 1.409 . S
C2571 H2563 0.930 1_655 S
C2571 C2572 1.355 . S
C2571 C2573 1.415 . S
C2572 C2571 1.355 . S
C2572 C2574 1.419 . S
C2573 C2568 1.425 . S
C2573 C2570 1.409 . S
C2573 C2571 1.415 . S
C2574 H2564 0.930 . S
C2574 C2572 1.419 . S
C2574 C2575 1.362 . S
C2575 H2565 0.930 . S
C2575 C2568 1.409 . S
C2575 C2574 1.362 . S
H2576 C2582 0.930 . S
H2577 C2585 0.930 . S
H2578 C2586 0.930 . S
H2579 C2587 0.930 . S
H2580 C2590 0.930 . S
H2581 C2591 0.930 . S
C2582 H2576 0.930 . S
C2582 C2583 1.355 . S
C2582 C2584 1.415 . S
C2583 C2582 1.355 . S
C2583 C2585 1.419 . S
C2584 C2582 1.415 . S
C2584 C2589 1.425 . S
C2584 C2591 1.409 . S
C2585 H2577 0.930 . S
C2585 C2583 1.419 . S
C2585 C2586 1.362 . S
C2586 H2578 0.930 . S
C2586 C2585 1.362 . S
C2586 C2589 1.409 . S
C2587 H2579 0.930 . S
C2587 C2588 1.355 . S
C2587 C2589 1.415 . S
C2588 C2587 1.355 . S
C2588 C2590 1.419 . S
C2589 C2584 1.425 . S
C2589 C2586 1.409 . S
C2589 C2587 1.415 . S
C2590 H2580 0.930 . S
C2590 C2588 1.419 . S
C2590 C2591 1.362 . S
C2591 H2581 0.930 . S
C2591 C2584 1.409 . S
C2591 C2590 1.362 . S
H2592 C2598 0.930 . S
H2593 C2601 0.930 . S
H2594 C2602 0.930 . S
H2595 C2603 0.930 . S
H2596 C2606 0.930 . S
H2597 C2607 0.930 . S
C2598 H2592 0.930 . S
C2598 C2599 1.355 . S
C2598 C2600 1.415 . S
C2599 C2598 1.355 . S
C2599 C2601 1.419 . S
C2600 C2598 1.415 . S
C2600 C2605 1.425 . S
C2600 C2607 1.409 . S
C2601 H2593 0.930 . S
C2601 C2599 1.419 . S
C2601 C2602 1.362 . S
C2602 H2594 0.930 . S
C2602 C2601 1.362 . S
C2602 C2605 1.409 . S
C2603 H2595 0.930 . S
C2603 C2604 1.355 . S
C2603 C2605 1.415 . S
C2604 C2603 1.355 . S
C2604 C2606 1.419 . S
C2605 C2600 1.425 . S
C2605 C2602 1.409 . S
C2605 C2603 1.415 . S
C2606 H2596 0.930 . S
C2606 C2604 1.419 . S
C2606 C2607 1.362 . S
C2607 H2597 0.930 . S
C2607 C2600 1.409 . S
C2607 C2606 1.362 . S
H2608 C2614 0.930 . S
H2609 C2617 0.930 . S
H2610 C2618 0.930 . S
H2611 C2619 0.930 . S
H2612 C2622 0.930 . S
H2613 C2623 0.930 . S
C2614 H2608 0.930 . S
C2614 C2615 1.355 . S
C2614 C2616 1.415 . S
C2615 C2614 1.355 . S
C2615 C2617 1.419 . S
C2616 C2614 1.415 . S
C2616 C2621 1.425 . S
C2616 C2623 1.409 . S
C2617 H2609 0.930 . S
C2617 C2615 1.419 . S
C2617 C2618 1.362 . S
C2618 H2610 0.930 . S
C2618 C2617 1.362 . S
C2618 C2621 1.409 . S
C2619 H2611 0.930 . S
C2619 C2620 1.355 . S
C2619 C2621 1.415 . S
C2620 C2619 1.355 . S
C2620 C2622 1.419 . S
C2621 C2616 1.425 . S
C2621 C2618 1.409 . S
C2621 C2619 1.415 . S
C2622 H2612 0.930 . S
C2622 C2620 1.419 . S
C2622 C2623 1.362 . S
C2623 H2613 0.930 . S
C2623 C2616 1.409 . S
C2623 C2622 1.362 . S
H2624 C2630 0.930 . S
H2625 C2633 0.930 . S
H2626 C2634 0.930 . S
H2627 C2635 0.930 . S
H2628 C2638 0.930 . S
H2629 C2639 0.930 . S
C2630 H2624 0.930 . S
C2630 C2631 1.355 . S
C2630 C2632 1.415 . S
C2631 C2630 1.355 . S
C2631 C2633 1.419 . S
C2632 C2630 1.415 . S
C2632 C2637 1.425 . S
C2632 C2639 1.409 . S
C2633 H2625 0.930 . S
C2633 C2631 1.419 . S
C2633 C2634 1.362 . S
C2634 H2626 0.930 . S
C2634 C2633 1.362 . S
C2634 C2637 1.409 . S
C2635 H2627 0.930 . S
C2635 C2636 1.355 . S
C2635 C2637 1.415 . S
C2636 C2635 1.355 . S
C2636 C2638 1.419 . S
C2637 C2632 1.425 . S
C2637 C2634 1.409 . S
C2637 C2635 1.415 . S
C2638 H2628 0.930 . S
C2638 C2636 1.419 . S
C2638 C2639 1.362 . S
C2639 H2629 0.930 . S
C2639 C2632 1.409 . S
C2639 C2638 1.362 . S
H2640 C2646 0.930 . S
H2641 C2649 0.930 . S
H2642 C2650 0.930 . S
H2643 C2651 0.930 . S
H2644 C2654 0.930 . S
H2645 C2655 0.930 . S
C2646 H2640 0.930 . S
C2646 C2647 1.355 . S
C2646 C2648 1.415 . S
C2647 C2646 1.355 . S
C2647 C2649 1.419 . S
C2648 C2646 1.415 . S
C2648 C2653 1.425 . S
C2648 C2655 1.409 . S
C2649 H2641 0.930 . S
C2649 C2647 1.419 . S
C2649 C2650 1.362 . S
C2650 H2642 0.930 . S
C2650 C2649 1.362 . S
C2650 C2653 1.409 . S
C2651 H2643 0.930 . S
C2651 C2652 1.355 . S
C2651 C2653 1.415 . S
C2652 C2651 1.355 . S
C2652 C2654 1.419 . S
C2653 C2648 1.425 . S
C2653 C2650 1.409 . S
C2653 C2651 1.415 . S
C2654 H2644 0.930 . S
C2654 C2652 1.419 . S
C2654 C2655 1.362 . S
C2655 H2645 0.930 . S
C2655 C2648 1.409 . S
C2655 C2654 1.362 . S
H2656 C2662 0.930 . S
H2657 C2665 0.930 . S
H2658 C2666 0.930 . S
H2659 C2667 0.930 . S
H2660 C2670 0.930 . S
H2661 C2671 0.930 . S
C2662 H2656 0.930 . S
C2662 C2663 1.355 . S
C2662 C2664 1.415 . S
C2663 C2662 1.355 . S
C2663 C2665 1.419 . S
C2664 C2662 1.415 . S
C2664 C2669 1.425 . S
C2664 C2671 1.409 . S
C2665 H2657 0.930 . S
C2665 C2663 1.419 . S
C2665 C2666 1.362 . S
C2666 H2658 0.930 . S
C2666 C2665 1.362 . S
C2666 C2669 1.409 . S
C2667 H2659 0.930 . S
C2667 C2668 1.355 . S
C2667 C2669 1.415 . S
C2668 C2667 1.355 . S
C2668 C2670 1.419 . S
C2669 C2664 1.425 . S
C2669 C2666 1.409 . S
C2669 C2667 1.415 . S
C2670 H2660 0.930 . S
C2670 C2668 1.419 . S
C2670 C2671 1.362 . S
C2671 H2661 0.930 . S
C2671 C2664 1.409 . S
C2671 C2670 1.362 . S
H2672 C2678 0.930 . S
H2673 C2681 0.930 . S
H2674 C2682 0.930 . S
H2675 C2683 0.930 . S
H2676 C2686 0.930 . S
H2677 C2687 0.930 . S
C2678 H2672 0.930 . S
C2678 C2679 1.355 . S
C2678 C2680 1.415 . S
C2679 C2678 1.355 . S
C2679 C2681 1.419 . S
C2680 C2678 1.415 . S
C2680 C2685 1.425 . S
C2680 C2687 1.409 . S
C2681 H2673 0.930 . S
C2681 C2679 1.419 . S
C2681 C2682 1.362 . S
C2682 H2674 0.930 . S
C2682 C2681 1.362 . S
C2682 C2685 1.409 . S
C2683 H2675 0.930 . S
C2683 C2684 1.355 . S
C2683 C2685 1.415 . S
C2684 C2683 1.355 . S
C2684 C2686 1.419 . S
C2685 C2680 1.425 . S
C2685 C2682 1.409 . S
C2685 C2683 1.415 . S
C2686 H2676 0.930 . S
C2686 C2684 1.419 . S
C2686 C2687 1.362 . S
C2687 H2677 0.930 . S
C2687 C2680 1.409 . S
C2687 C2686 1.362 . S
H2688 C2694 0.930 . S
H2689 C2697 0.930 . S
H2690 C2698 0.930 1_455 S
H2691 C2699 0.932 . S
H2692 C2702 0.930 . S
H2693 C2703 0.930 . S
C2694 H2688 0.930 . S
C2694 C2695 1.355 . S
C2694 C2696 1.415 . S
C2695 C2694 1.355 . S
C2695 C2697 1.419 . S
C2696 C2694 1.415 . S
C2696 C2701 1.425 . S
C2696 C2703 1.409 . S
C2697 H2689 0.930 . S
C2697 C2695 1.419 . S
C2697 C2698 1.362 . S
C2698 H2690 0.930 1_655 S
C2698 C2697 1.362 . S
C2698 C2701 1.409 . S
C2699 H2691 0.932 . S
C2699 C2700 1.355 1_455 S
C2699 C2701 1.412 1_455 S
C2700 C2699 1.355 1_655 S
C2700 C2702 1.419 . S
C2701 C2696 1.425 . S
C2701 C2698 1.409 . S
C2701 C2699 1.412 1_655 S
C2702 H2692 0.930 . S
C2702 C2700 1.419 . S
C2702 C2703 1.362 . S
C2703 H2693 0.930 . S
C2703 C2696 1.409 . S
C2703 C2702 1.362 . S
H2704 C2710 0.930 . S
H2705 C2713 0.930 . S
H2706 C2714 0.930 . S
H2707 C2715 0.930 . S
H2708 C2718 0.930 . S
H2709 C2719 0.930 . S
C2710 H2704 0.930 . S
C2710 C2711 1.355 . S
C2710 C2712 1.415 . S
C2711 C2710 1.355 . S
C2711 C2713 1.419 . S
C2712 C2710 1.415 . S
C2712 C2717 1.425 . S
C2712 C2719 1.409 . S
C2713 H2705 0.930 . S
C2713 C2711 1.419 . S
C2713 C2714 1.362 . S
C2714 H2706 0.930 . S
C2714 C2713 1.362 . S
C2714 C2717 1.409 . S
C2715 H2707 0.930 . S
C2715 C2716 1.355 . S
C2715 C2717 1.415 . S
C2716 C2715 1.355 . S
C2716 C2718 1.419 . S
C2717 C2712 1.425 . S
C2717 C2714 1.409 . S
C2717 C2715 1.415 . S
C2718 H2708 0.930 . S
C2718 C2716 1.419 . S
C2718 C2719 1.362 . S
C2719 H2709 0.930 . S
C2719 C2712 1.409 . S
C2719 C2718 1.362 . S
H2720 C2726 0.930 . S
H2721 C2729 0.930 . S
H2722 C2730 0.930 . S
H2723 C2731 0.930 . S
H2724 C2734 0.930 . S
H2725 C2735 0.930 . S
C2726 H2720 0.930 . S
C2726 C2727 1.355 . S
C2726 C2728 1.415 . S
C2727 C2726 1.355 . S
C2727 C2729 1.419 . S
C2728 C2726 1.415 . S
C2728 C2733 1.425 . S
C2728 C2735 1.409 1_545 S
C2729 H2721 0.930 . S
C2729 C2727 1.419 . S
C2729 C2730 1.362 . S
C2730 H2722 0.930 . S
C2730 C2729 1.362 . S
C2730 C2733 1.409 . S
C2731 H2723 0.930 . S
C2731 C2732 1.355 . S
C2731 C2733 1.415 . S
C2732 C2731 1.355 . S
C2732 C2734 1.419 1_545 S
C2733 C2728 1.425 . S
C2733 C2730 1.409 . S
C2733 C2731 1.415 . S
C2734 H2724 0.930 . S
C2734 C2732 1.419 1_565 S
C2734 C2735 1.362 . S
C2735 H2725 0.930 . S
C2735 C2728 1.409 1_565 S
C2735 C2734 1.362 . S
C1591 C4 1.194 . S
C1596 C981 1.152 . S
C1607 C26 1.595 . S
C1612 C1061 1.587 . S
C1628 C1129 1.306 . S
C1623 C32 1.317 . S
C1639 C40 1.603 . S
C1644 C1209 1.624 . S
C1655 C12 1.452 . S
C1660 C1283 1.490 . S
C1671 C18 1.524 . S
C1676 C1351 1.451 . S
C1687 C46 1.112 . S
C1692 C1277 1.091 . S
C1708 C1357 1.454 . S
C1703 C68 1.453 . S
C1724 C1203 1.290 . S
C1719 C74 1.299 1_565 S
C1735 C82 1.624 . S
C1740 C1135 1.661 1_545 S
C1756 C987 1.486 1_655 S
C1751 C54 1.449 . S
C1767 C60 1.394 . S
C1772 C1055 1.391 . S
C1783 C88 1.455 . S
C1788 C1425 1.387 . S
C1799 C110 1.640 . S
C1804 C1505 1.585 . S
C1820 C1573 1.585 . S
C1815 C116 1.641 . S
C1831 C124 1.734 . S
C1836 C321 1.731 . S
C1847 C96 1.636 . S
C1852 C395 1.562 . S
C1863 C102 1.552 . S
C1868 C463 1.466 . S
C1879 C130 1.161 . S
C1884 C389 1.162 . S
C1895 C152 1.521 . S
C1900 C469 1.520 . S
C1916 C315 1.408 . S
C1911 C158 1.415 . S
C1932 C1579 1.690 . S
C1927 C166 1.694 . S
C1948 C1431 1.450 . S
C1943 C138 1.448 . S
C1964 C1499 1.440 . S
C1959 C144 1.443 . S
C1975 C172 1.357 . S
C1980 C537 1.307 . S
C1991 C194 1.679 . S
C1996 C617 1.602 . S
C2007 C200 1.638 . S
C2012 C685 1.562 . S
C2023 C208 1.809 . S
C2028 C765 1.747 . S
C2044 C839 1.560 . S
C2039 C180 1.621 . S
C2060 C907 1.576 . S
C2055 C186 1.619 . S
C2076 C833 1.307 . S
C2071 C214 1.306 . S
C2092 C913 1.478 . S
C2087 C236 1.498 . S
C2103 C242 1.388 . S
C2108 C759 1.384 . S
C2124 C691 1.624 . S
C2119 C250 1.592 . S
C2135 C222 1.511 . S
C2140 C543 1.507 . S
C2156 C611 1.378 . S
C2151 C228 1.387 . S
C2172 C291 1.929 . S
C2167 C5 1.820 . S
C2183 C25 1.429 . S
C2188 C365 1.425 . S
C2204 C451 1.536 . S
C2199 C33 1.286 . S
C2220 C525 1.151 . S
C2215 C39 1.191 . S
C2236 C587 1.553 . S
C2231 C11 1.558 1_556 S
C2252 C673 1.536 . S
C2247 C19 1.374 . S
C2263 C47 1.923 . S
C2268 C661 2.080 . S
C2279 C67 1.667 . S
C2284 C513 1.514 . S
C2295 C75 1.656 . S
C2300 C599 1.824 . S
C2311 C81 1.557 . S
C2316 C377 1.456 . S
C2332 C439 1.712 . S
C2327 C53 1.827 . S
C2343 C61 1.464 . S
C2348 C303 1.712 . S
C2364 C735 1.831 . S
C2359 C89 1.672 . S
C2375 C109 1.523 . S
C2380 C809 1.520 . S
C2391 C117 1.354 . S
C2396 C895 1.555 . S
C2412 C969 1.023 . S
C2407 C123 1.060 . S
C2423 C95 1.417 . S
C2428 C1031 1.399 . S
C2439 C103 1.216 . S
C2444 C1117 1.341 . S
C2455 C131 1.565 . S
C2460 C1105 1.721 1_565 S
C2471 C151 1.371 . S
C2476 C957 1.314 1_455 S
C2492 C1043 1.684 . S
C2487 C159 1.484 . S
C2503 C165 1.535 . S
C2508 C821 1.384 . S
C2519 C137 1.786 . S
C2524 C883 1.637 . S
C2540 C747 1.733 . S
C2535 C145 1.482 . S
C2556 C1179 1.662 . S
C2551 C173 1.615 . S
C2567 C193 1.198 . S
C2572 C1253 1.181 . S
C2583 C201 1.155 . S
C2588 C1339 1.414 . S
C2604 C1413 1.209 . S
C2599 C207 1.205 . S
C2620 C1475 1.529 . S
C2615 C179 1.569 1_565 S
C2631 C187 1.316 . S
C2636 C1561 1.563 . S
C2647 C215 1.856 . S
C2652 C1549 1.987 . S
C2663 C235 1.763 1_565 S
C2668 C1401 1.680 . S
C2684 C1487 1.757 . S
C2679 C243 1.532 . S
C2700 C1265 1.070 . S
C2695 C249 1.141 . S
C2716 C1327 1.535 . S
C2711 C221 1.673 . S
C2727 C229 1.252 . S
C2732 C1191 1.468 . S
