# Generated by pormake.
# Topology zzz, (3,6)-cn, num edge types: 1
# Building blocks:
#     Node 0, Type 0, BuildingBlock: QEWDON_clean_linker_0, # of connection points: 3
#     Node 1, Type 0, BuildingBlock: QEWDON_clean_linker_0, # of connection points: 3
#     Node 2, Type 0, BuildingBlock: QEWDON_clean_linker_0, # of connection points: 3
#     Node 3, Type 0, BuildingBlock: QEWDON_clean_linker_0, # of connection points: 3
#     Node 4, Type 0, BuildingBlock: QEWDON_clean_linker_0, # of connection points: 3
#     Node 5, Type 0, BuildingBlock: QEWDON_clean_linker_0, # of connection points: 3
#     Node 6, Type 0, BuildingBlock: QEWDON_clean_linker_0, # of connection points: 3
#     Node 7, Type 0, BuildingBlock: QEWDON_clean_linker_0, # of connection points: 3
#     Node 8, Type 1, BuildingBlock: FUNLAD_clean_sbu_0, # of connection points: 6
#     Node 9, Type 1, BuildingBlock: FUNLAD_clean_sbu_0, # of connection points: 6
#     Node 10, Type 1, BuildingBlock: FUNLAD_clean_sbu_0, # of connection points: 6
#     Node 11, Type 1, BuildingBlock: FUNLAD_clean_sbu_0, # of connection points: 6
#     Edge 12, Type (0, 1), BuildingBlock: OJICUG_clean_linker_0, # of connection points: 2
#     Edge 13, Type (0, 1), BuildingBlock: OJICUG_clean_linker_0, # of connection points: 2
#     Edge 14, Type (0, 1), BuildingBlock: OJICUG_clean_linker_0, # of connection points: 2
#     Edge 15, Type (0, 1), BuildingBlock: OJICUG_clean_linker_0, # of connection points: 2
#     Edge 16, Type (0, 1), BuildingBlock: OJICUG_clean_linker_0, # of connection points: 2
#     Edge 17, Type (0, 1), BuildingBlock: OJICUG_clean_linker_0, # of connection points: 2
#     Edge 18, Type (0, 1), BuildingBlock: OJICUG_clean_linker_0, # of connection points: 2
#     Edge 19, Type (0, 1), BuildingBlock: OJICUG_clean_linker_0, # of connection points: 2
#     Edge 20, Type (0, 1), BuildingBlock: OJICUG_clean_linker_0, # of connection points: 2
#     Edge 21, Type (0, 1), BuildingBlock: OJICUG_clean_linker_0, # of connection points: 2
#     Edge 22, Type (0, 1), BuildingBlock: OJICUG_clean_linker_0, # of connection points: 2
#     Edge 23, Type (0, 1), BuildingBlock: OJICUG_clean_linker_0, # of connection points: 2
#     Edge 24, Type (0, 1), BuildingBlock: OJICUG_clean_linker_0, # of connection points: 2
#     Edge 25, Type (0, 1), BuildingBlock: OJICUG_clean_linker_0, # of connection points: 2
#     Edge 26, Type (0, 1), BuildingBlock: OJICUG_clean_linker_0, # of connection points: 2
#     Edge 27, Type (0, 1), BuildingBlock: OJICUG_clean_linker_0, # of connection points: 2
#     Edge 28, Type (0, 1), BuildingBlock: OJICUG_clean_linker_0, # of connection points: 2
#     Edge 29, Type (0, 1), BuildingBlock: OJICUG_clean_linker_0, # of connection points: 2
#     Edge 30, Type (0, 1), BuildingBlock: OJICUG_clean_linker_0, # of connection points: 2
#     Edge 31, Type (0, 1), BuildingBlock: OJICUG_clean_linker_0, # of connection points: 2
#     Edge 32, Type (0, 1), BuildingBlock: OJICUG_clean_linker_0, # of connection points: 2
#     Edge 33, Type (0, 1), BuildingBlock: OJICUG_clean_linker_0, # of connection points: 2
#     Edge 34, Type (0, 1), BuildingBlock: OJICUG_clean_linker_0, # of connection points: 2
#     Edge 35, Type (0, 1), BuildingBlock: OJICUG_clean_linker_0, # of connection points: 2
# Relax obj value: 0.077
# Max RMSD: 0.173
# Mean RMSD: 0.066
data_MOF--net-zzz--node1-FUNLAD_clean_sbu_0--node2-QEWDON_clean_linker_0--edge1-OJICUG_clean_linker_0
_symmetry_space_group_name_H-M    P1
_symmetry_Int_Tables_number       1
_symmetry_cell_setting            triclinic
loop_
_symmetry_equiv_pos_as_xyz
'x, y, z'
_cell_length_a     40.194112
_cell_length_b     46.152222
_cell_length_c     13.287558
_cell_angle_alpha  83.217616
_cell_angle_beta   82.568009
_cell_angle_gamma 87.365126
loop_
_atom_site_label
_atom_site_type_symbol
_atom_site_fract_x
_atom_site_fract_y
_atom_site_fract_z
_atom_type_partial_charge
H0 H 0.8398 0.52496 0.15514 0.0
C1 C 0.8499 0.52316 0.22746 0.0
C2 C 0.88113 0.50879 0.23503 0.0
C3 C 0.83347 0.53772 0.30824 0.0
H4 H 0.91987 0.49771 0.33127 0.0
C5 C 0.89495 0.50745 0.32656 0.0
C6 C 0.87947 0.52212 0.40722 0.0
C7 C 0.84873 0.5373 0.39829 0.0
C8 C 0.80265 0.55594 0.29207 0.0
H9 H 0.83725 0.54908 0.46035 0.0
C10 C 0.77923 0.5469 0.23283 0.0
C11 C 0.75266 0.56562 0.20454 0.0
C12 C 0.79796 0.58363 0.32715 0.0
H13 H 0.81573 0.59159 0.37126 0.0
C14 C 0.77099 0.60199 0.30163 0.0
H15 H 0.78223 0.52556 0.20579 0.0
C16 C 0.74866 0.59324 0.23967 0.0
H17 H 0.72816 0.60797 0.21967 0.0
H18 H 0.76777 0.62334 0.32827 0.0
H19 H 1.01803 0.81967 0.02671 0.0
C20 C 1.0112 0.82643 0.1022 0.0
C21 C 0.02558 0.85143 0.12826 0.0
C22 C 0.98575 0.81176 0.16999 0.0
H23 H 0.02477 0.88031 0.24512 0.0
C24 C 1.01538 0.8604 0.22479 0.0
C25 C 0.98986 0.84657 0.29168 0.0
C26 C 0.97523 0.8221 0.26532 0.0
C27 C 0.96693 0.78839 0.13603 0.0
H28 H 0.95497 0.81187 0.31718 0.0
C29 C 0.98353 0.76581 0.08399 0.0
C30 C 0.96496 0.74444 0.04993 0.0
C31 C 0.93164 0.7893 0.15312 0.0
H32 H 0.91809 0.80667 0.19076 0.0
C33 C 0.91327 0.76819 0.12005 0.0
H34 H 1.0107 0.76493 0.06987 0.0
C35 C 0.9297 0.74592 0.06905 0.0
H36 H 0.91473 0.72958 0.04566 0.0
H37 H 0.88612 0.76913 0.13391 0.0
H38 H 0.74868 1.00326 0.05689 0.0
C39 C 0.7348 1.00752 0.12941 0.0
C40 C 0.70163 0.01907 0.13257 0.0
C41 C 0.74916 0.99998 0.22114 0.0
H42 H 0.6572 0.03103 0.22858 0.0
C43 C 0.68322 0.02334 0.22634 0.0
C44 C 0.69611 0.01478 0.31785 0.0
C45 C 0.72914 1.0033 0.3155 0.0
C46 C 0.78356 0.98594 0.22078 0.0
H47 H 0.73902 0.99673 0.38713 0.0
C48 C 0.81174 0.99677 0.15332 0.0
C49 C 0.8442 0.98393 0.1612 0.0
C50 C 0.78832 0.96146 0.29187 0.0
H51 H 0.76732 0.95209 0.34276 0.0
C52 C 0.82009 0.94856 0.29837 0.0
H53 H 0.80869 0.01559 0.09792 0.0
C54 C 0.84781 0.9598 0.23441 0.0
H55 H 0.87223 0.94934 0.2414 0.0
H56 H 0.82327 0.92978 0.3537 0.0
H57 H 0.53709 0.69608 0.02998 0.0
C58 C 0.53675 0.68484 0.10648 0.0
C59 C 0.52081 0.65791 0.13162 0.0
C60 C 0.55478 0.69597 0.17697 0.0
H61 H 0.51084 0.62174 0.24806 0.0
C62 C 0.52175 0.64307 0.22936 0.0
C63 C 0.5399 0.65348 0.2998 0.0
C64 C 0.55655 0.67986 0.27345 0.0
C65 C 0.57541 0.7222 0.14519 0.0
H66 H 0.57114 0.68764 0.32738 0.0
C67 C 0.56188 0.74851 0.09881 0.0
C68 C 0.58253 0.77265 0.06592 0.0
C69 C 0.60959 0.72047 0.15864 0.0
H70 H 0.62073 0.70048 0.19288 0.0
C71 C 0.63 0.74423 0.12603 0.0
H72 H 0.53555 0.75017 0.08822 0.0
C73 C 0.61667 0.77008 0.07981 0.0
H74 H 0.63301 0.78833 0.05623 0.0
H75 H 0.65631 0.74258 0.13651 0.0
H76 H 0.23474 0.55057 0.3278 0.0
C77 C 0.22433 0.54236 0.26589 0.0
C78 C 0.1896 0.53978 0.27377 0.0
C79 C 0.24519 0.53488 0.17838 0.0
H80 H 0.14831 0.52758 0.20212 0.0
C81 C 0.17534 0.52973 0.19507 0.0
C82 C 0.19531 0.52224 0.10768 0.0
C83 C 0.23026 0.52498 0.09835 0.0
C84 C 0.2822 0.53798 0.17142 0.0
H85 H 0.24551 0.51911 0.02999 0.0
C86 C 0.29847 0.53327 0.26021 0.0
C87 C 0.33264 0.53895 0.25654 0.0
C88 C 0.30125 0.54714 0.07755 0.0
H89 H 0.28964 0.55143 0.00799 0.0
C90 C 0.33551 0.55184 0.07288 0.0
H91 H 0.28443 0.52581 0.33308 0.0
C92 C 0.3511 0.54803 0.16168 0.0
H93 H 0.37764 0.55212 0.1561 0.0
H94 H 0.34994 0.55895 0.0003 0.0
H95 H 1.00828 0.21136 0.53012 0.0
C96 C 0.0263 0.204 0.46971 0.0
C97 C 0.03676 0.1746 0.47439 0.0
C98 C 0.03666 0.22321 0.38209 0.0
H99 H 0.06601 0.14177 0.39961 0.0
C100 C 0.05911 0.16487 0.39529 0.0
C101 C 0.06874 0.18317 0.30567 0.0
C102 C 0.05729 0.21257 0.29914 0.0
C103 C 1.02039 0.25253 0.36983 0.0
H104 H 0.06302 0.22671 0.22843 0.0
C105 C 0.02792 0.27484 0.42645 0.0
C106 C 1.01059 0.3022 0.41736 0.0
C107 C 0.99542 0.2575 0.30477 0.0
H108 H 0.98914 0.24047 0.26149 0.0
C109 C 0.97762 0.28409 0.29746 0.0
H110 H 0.0476 0.27098 0.47542 0.0
C111 C 0.98488 0.30616 0.35363 0.0
H112 H 0.97009 0.32634 0.34724 0.0
H113 H 0.95793 0.28757 0.24851 0.0
H114 H 0.32513 1.0047 0.55323 0.0
C115 C 0.3385 1.01159 0.47869 0.0
C116 C 0.37157 0.02117 0.47077 0.0
C117 C 0.32367 1.00919 0.38944 0.0
H118 H 0.41528 0.0353 0.36965 0.0
C119 C 0.38933 0.02903 0.37479 0.0
C120 C 0.37594 0.02555 0.28566 0.0
C121 C 0.34303 0.01566 0.29284 0.0
C122 C 0.2901 0.99597 0.39606 0.0
H123 H 0.33286 1.01232 0.22357 0.0
C124 C 0.26108 1.00634 0.45585 0.0
C125 C 0.22953 0.99364 0.45622 0.0
C126 C 0.28729 0.97232 0.34043 0.0
H127 H 0.30907 0.96359 0.29554 0.0
C128 C 0.25661 0.95932 0.34292 0.0
H129 H 0.26282 0.02467 0.49865 0.0
C130 C 0.22805 0.96984 0.39986 0.0
H131 H 0.20463 0.95908 0.4003 0.0
H132 H 0.25492 0.94098 0.30024 0.0
H133 H 0.56651 0.34125 0.50107 0.0
C134 C 0.5555 0.35332 0.43783 0.0
C135 C 0.54891 0.38344 0.4374 0.0
C136 C 0.54972 0.33925 0.35344 0.0
H137 H 0.53043 0.42258 0.35584 0.0
C138 C 0.53507 0.39922 0.3557 0.0
C139 C 0.52895 0.38574 0.27151 0.0
C140 C 0.53664 0.35575 0.27001 0.0
C141 C 0.56055 0.30819 0.34734 0.0
H142 H 0.53289 0.34539 0.20342 0.0
C143 C 0.55155 0.28616 0.42842 0.0
C144 C 0.56279 0.25702 0.42054 0.0
C145 C 0.58088 0.30061 0.25943 0.0
H146 H 0.58849 0.31709 0.19664 0.0
C147 C 0.59217 0.27182 0.25225 0.0
H148 H 0.53564 0.29155 0.49635 0.0
C149 C 0.58323 0.25015 0.33221 0.0
H150 H 0.59198 0.22785 0.32477 0.0
H151 H 0.6079 0.26628 0.18433 0.0
C152 C 0.05376 0.95883 0.89619 0.0
N153 N 1.00999 0.98 0.63295 0.0
C154 C 0.03308 0.95959 0.60004 0.0
C155 C 0.02342 0.93613 0.55525 0.0
C156 C 0.98952 0.93318 0.5446 0.0
C157 C 0.96639 0.95548 0.57266 0.0
C158 C 0.97723 0.97885 0.61745 0.0
Zn159 Zn 0.02517 1.00453 0.73692 0.0
C160 C 0.97184 1.00808 0.91315 0.0
N161 N 0.06149 0.04581 0.96977 0.0
C162 C 0.09427 0.05005 0.97912 0.0
C163 C 0.03682 0.06442 0.00653 0.0
C164 C 0.04455 0.08895 0.04905 0.0
C165 C 0.07812 0.09512 0.05312 0.0
C166 C 0.1032 0.07469 0.02139 0.0
Zn167 Zn 0.04693 0.02037 0.86592 0.0
O168 O 0.03956 0.96469 0.81601 0.0
C169 C 0.10007 0.01585 0.68837 0.0
O170 O 0.0615 0.97967 0.94293 0.0
H171 H 1.01105 0.06188 -0.00426 0.0
H172 H 0.05879 0.96016 0.61499 0.0
H173 H 0.11375 0.03549 0.94805 0.0
O174 O 0.07453 1.00799 0.65211 0.0
O175 O 0.09629 0.02293 0.77894 0.0
H176 H 0.95909 0.995 0.64521 0.0
O177 O 0.03229 0.06046 0.78666 0.0
O178 O 1.01079 0.04472 0.66033 0.0
O179 O 0.99691 0.01611 0.95147 0.0
O180 O 0.97633 1.00172 0.82192 0.0
C181 C 1.01812 0.06582 0.70624 0.0
H182 H 0.04234 0.92 0.53158 0.0
H183 H 0.94006 0.95421 0.56442 0.0
H184 H 0.02424 0.1035 0.07563 0.0
H185 H 0.12942 0.07843 0.02454 0.0
C186 C 0.48197 0.01592 0.69853 0.0
N187 N 0.53497 0.08885 0.74438 0.0
C188 C 0.52889 0.0971 0.64643 0.0
C189 C 0.52946 0.12639 0.60611 0.0
C190 C 0.53697 0.14772 0.66598 0.0
C191 C 0.54321 0.13878 0.76694 0.0
C192 C 0.54182 0.10907 0.80511 0.0
Zn193 Zn 0.53592 0.0443 0.78981 0.0
C194 C 0.48778 0.02545 0.9678 0.0
N195 N 0.53819 0.95066 0.85698 0.0
C196 C 0.54096 0.93178 0.7847 0.0
C197 C 0.53772 0.94061 0.95772 0.0
C198 C 0.5406 0.91068 -0.01105 0.0
C199 C 0.54443 0.89072 0.91592 0.0
C200 C 0.54431 0.90164 0.81255 0.0
Zn201 Zn 0.53674 0.9953 0.81587 0.0
O202 O 0.49456 0.03987 0.71011 0.0
C203 C 0.58464 0.01463 0.63718 0.0
O204 O 0.4962 0.99196 0.73006 0.0
H205 H 0.53586 0.9559 0.01407 0.0
H206 H 0.52436 0.08083 0.59802 0.0
H207 H 0.54121 0.94013 0.70506 0.0
O208 O 0.57149 0.03892 0.66032 0.0
O209 O 0.57367 0.9911 0.68764 0.0
H210 H 0.54684 0.10215 0.88249 0.0
O211 O 0.57739 0.9995 0.90034 0.0
O212 O 0.57726 0.0474 0.87153 0.0
O213 O 0.49964 1.00088 0.94272 0.0
O214 O 0.5003 0.04886 0.92043 0.0
C215 C 0.59077 0.02355 0.90722 0.0
H216 H 0.52527 0.13215 0.52722 0.0
H217 H 0.54923 0.15455 0.81554 0.0
H218 H 0.5411 0.90334 0.06924 0.0
H219 H 0.54704 0.88703 0.75372 0.0
C220 C 0.55285 0.47318 0.68723 0.0
N221 N 0.4596 0.51688 0.72056 0.0
C222 C 0.46635 0.51281 0.61993 0.0
C223 C 0.44118 0.51552 0.55719 0.0
C224 C 0.40847 0.52281 0.59705 0.0
C225 C 0.40133 0.52599 0.7016 0.0
C226 C 0.42765 0.52297 0.7628 0.0
Zn227 Zn 0.50278 0.51867 0.78771 0.0
C228 C 0.51348 0.47679 0.94998 0.0
N229 N 0.60157 0.52357 0.85678 0.0
C230 C 0.63167 0.52989 0.8005 0.0
C231 C 0.59801 0.52148 0.96069 0.0
C232 C 0.62508 0.52561 0.01208 0.0
C233 C 0.65616 0.53274 0.95649 0.0
C234 C 0.65949 0.53486 0.84928 0.0
Zn235 Zn 0.55777 0.52072 0.79515 0.0
O236 O 0.52299 0.4826 0.71054 0.0
C237 C 0.54629 0.56235 0.63143 0.0
O238 O 0.57729 0.48694 0.70811 0.0
H239 H 0.57375 0.51766 0.0045 0.0
H240 H 0.49178 0.50911 0.58562 0.0
H241 H 0.63388 0.53189 0.718 0.0
O242 O 0.51858 0.55029 0.66348 0.0
O243 O 0.57224 0.55345 0.67272 0.0
H244 H 0.42283 0.52672 0.84228 0.0
O245 O 0.53793 0.55507 0.87948 0.0
O246 O 0.48387 0.55409 0.86869 0.0
O247 O 0.54207 0.48712 0.91556 0.0
O248 O 0.48736 0.48769 0.91326 0.0
C249 C 0.50848 0.56608 0.89668 0.0
H250 H 0.44751 0.51317 0.47666 0.0
H251 H 0.3762 0.53193 0.73418 0.0
H252 H 0.62134 0.52445 0.09468 0.0
H253 H 0.68316 0.54052 0.80404 0.0
C254 C 0.08573 0.53625 0.60378 0.0
N255 N 0.04553 0.45327 0.70849 0.0
C256 C 0.05506 0.45216 0.60676 0.0
C257 C 0.05363 0.42638 0.56304 0.0
C258 C 0.04065 0.40128 0.62243 0.0
C259 C 0.03221 0.40245 0.72817 0.0
C260 C 0.03504 0.42874 0.76987 0.0
Zn261 Zn 0.04107 0.49484 0.75726 0.0
C262 C 0.0912 0.50991 0.87277 0.0
N263 N 0.02949 0.58475 0.80897 0.0
C264 C 0.02411 0.60803 0.73941 0.0
C265 C 0.02991 0.58818 0.90914 0.0
C266 C 0.02374 0.61564 0.94336 0.0
C267 C 1.01709 0.63999 0.87396 0.0
C268 C 1.01791 0.63594 0.77032 0.0
Zn269 Zn 0.03496 0.54321 0.76622 0.0
O270 O 0.07854 0.51015 0.63832 0.0
C271 C 0.98519 0.52767 0.64916 0.0
O272 O 0.06886 0.55736 0.63981 0.0
H273 H 0.03416 0.56941 0.96335 0.0
H274 H 0.06228 0.47156 0.55683 0.0
H275 H 0.02396 0.60487 0.6601 0.0
O276 O 1.00185 0.50388 0.6657 0.0
O277 O 0.99415 0.55066 0.68085 0.0
H278 H 0.02724 0.42977 0.85036 0.0
O279 O 1.0003 0.5288 0.8912 0.0
O280 O 1.00401 0.48157 0.87935 0.0
O281 O 0.0765 0.53442 0.85002 0.0
O282 O 0.07987 0.48656 0.84978 0.0
C283 C 0.99003 0.5032 0.92068 0.0
H284 H 0.06151 0.4266 0.48191 0.0
H285 H 0.02196 0.38378 0.7775 0.0
H286 H 0.02289 0.61749 0.02413 0.0
H287 H 1.01336 0.65408 0.71374 0.0
C288 C 0.19527 1.00957 0.61617 0.0
C289 C 0.19755 1.00446 0.51308 0.0
H290 H 0.16269 0.01725 0.75296 0.0
C291 C 0.16785 1.00652 0.46649 0.0
H292 H 0.21757 1.00808 0.65456 0.0
C293 C 0.13659 1.01139 0.5226 0.0
C294 C 0.13393 0.01472 0.62712 0.0
H295 H 0.16863 1.00332 0.38673 0.0
H296 H 0.11433 1.0117 0.48437 0.0
C297 C 0.16377 0.01468 0.67262 0.0
C298 C 0.5753 0.22091 0.56745 0.0
C299 C 0.5526 0.23294 0.50077 0.0
H300 H 0.58782 0.1846 0.67383 0.0
C301 C 0.52286 0.21848 0.49798 0.0
H302 H 0.59867 0.2315 0.56931 0.0
C303 C 0.5168 0.19156 0.55659 0.0
C304 C 0.54034 0.17861 0.61936 0.0
H305 H 0.50529 0.22717 0.44587 0.0
H306 H 0.49433 0.18024 0.5495 0.0
C307 C 0.56907 0.1941 0.62704 0.0
C308 C 0.34325 0.51205 0.42649 0.0
C309 C 0.34883 0.53623 0.3518 0.0
H310 H 0.35768 0.48901 0.56538 0.0
C311 C 0.37066 0.55773 0.36752 0.0
H312 H 0.32666 0.49508 0.4163 0.0
C313 C 0.38794 0.55435 0.45286 0.0
C314 C 0.38367 0.52951 0.5245 0.0
H315 H 0.37498 0.57687 0.31254 0.0
H316 H 0.40597 0.57047 0.46045 0.0
C317 C 0.36069 0.50865 0.51212 0.0
C318 C 0.02928 0.32266 0.56986 0.0
C319 C 1.01935 0.32702 0.4711 0.0
H320 H 0.04421 0.34238 0.69496 0.0
C321 C 1.01712 0.35577 0.42335 0.0
H322 H 0.03104 0.30088 0.60962 0.0
C323 C 0.02363 0.37942 0.47311 0.0
C324 C 0.03367 0.3753 0.57157 0.0
H325 H 1.0103 0.36021 0.3467 0.0
H326 H 1.02026 0.40109 0.43399 0.0
C327 C 0.0364 0.34653 0.61946 0.0
C328 C 0.87821 0.99508 -0.01142 0.0
C329 C 0.87501 0.99486 0.09519 0.0
H330 H 0.91132 0.99906 0.8475 0.0
C331 C 0.90331 1.00112 0.14029 0.0
H332 H 0.85701 0.98998 0.95186 0.0
C333 C 0.93434 1.00642 0.08093 0.0
C334 C 0.93809 1.00519 0.97482 0.0
H335 H 0.90164 1.00099 0.22238 0.0
H336 H 0.95568 1.01045 0.11888 0.0
C337 C 0.90945 1.0 0.92911 0.0
C338 C 0.58611 0.8151 0.92908 0.0
C339 C 0.56913 0.801 0.01952 0.0
H340 H 0.59151 0.85426 0.82532 0.0
C341 C 0.54185 0.81569 0.07082 0.0
H342 H 0.6072 0.80426 0.88788 0.0
C343 C 0.53301 0.84452 0.03545 0.0
C344 C 0.55095 0.85907 0.94723 0.0
H345 H 0.52847 0.80543 0.14104 0.0
H346 H 0.5126 0.85567 0.07842 0.0
C347 C 0.57701 0.8437 0.89301 0.0
C348 C 0.72194 0.57508 0.05064 0.0
C349 C 0.72955 0.55646 0.13679 0.0
H350 H 0.69318 0.58174 0.92408 0.0
C351 C 0.7149 0.52902 0.15809 0.0
H352 H 0.73325 0.59621 0.03192 0.0
C353 C 0.69208 0.52081 0.0967 0.0
C354 C 0.68384 0.5397 0.01202 0.0
H355 H 0.72033 0.51427 0.22404 0.0
H356 H 0.68028 0.49992 0.1166 0.0
C357 C 0.69944 0.56668 -0.01171 0.0
C358 C 1.00888 0.70393 0.03382 0.0
C359 C 0.98164 0.72004 -0.00347 0.0
H360 H 0.0418 0.66621 0.02371 0.0
C361 C 0.96841 0.7111 0.91262 0.0
H362 H 1.01958 0.71019 0.09849 0.0
C363 C 0.98081 0.68582 0.87056 0.0
C364 C 1.0069 0.66878 0.91102 0.0
H365 H 0.94773 0.72327 0.88111 0.0
H366 H 0.96885 0.67898 0.80918 0.0
C367 C 1.02133 0.67854 -0.00835 0.0
C368 C 1.00204 0.13119 0.51905 0.0
C369 C 1.02142 0.15206 0.55168 0.0
H370 H 0.98594 0.08706 0.54226 0.0
C371 C 0.03395 0.14622 0.64557 0.0
H372 H 0.99245 0.13532 0.44594 0.0
C373 C 0.03016 0.11865 0.70094 0.0
C374 C 1.01433 0.09649 0.66182 0.0
H375 H 0.04932 0.16189 0.67116 0.0
H376 H 0.04212 0.11406 0.76987 0.0
C377 C 0.99868 0.10349 0.57339 0.0
C378 C 0.40614 0.99201 0.5895 0.0
C379 C 0.39121 0.01911 0.55766 0.0
H380 H 0.44711 0.96963 0.65758 0.0
C381 C 0.40429 0.04471 0.5816 0.0
H382 H 0.39701 0.97204 0.56907 0.0
C383 C 0.43329 0.04347 0.62955 0.0
C384 C 0.44989 0.01654 0.6544 0.0
H385 H 0.3937 0.06585 0.55535 0.0
H386 H 0.44346 0.0638 0.64305 0.0
C387 C 0.43525 0.99072 0.63777 0.0
C388 C 0.583 0.41952 0.49984 0.0
C389 C 0.55665 0.3998 0.5195 0.0
H390 H 0.60291 0.4585 0.53961 0.0
C391 C 0.53255 0.40173 0.60446 0.0
H392 H 0.60146 0.41861 0.43311 0.0
C393 C 0.53297 0.42471 0.66352 0.0
C394 C 0.55762 0.44597 0.63878 0.0
H395 H 0.51175 0.38706 0.61964 0.0
H396 H 0.51279 0.42685 0.72498 0.0
C397 C 0.58371 0.44238 0.56001 0.0
C398 C 0.1405 0.56458 0.36488 0.0
C399 C 0.16771 0.5444 0.36777 0.0
H400 H 0.09278 0.5781 0.44015 0.0
C401 C 0.16965 0.52416 0.45401 0.0
H402 H 0.13858 0.58011 0.29787 0.0
C403 C 0.14325 0.52242 0.53294 0.0
C404 C 0.11499 0.54129 0.52722 0.0
H405 H 0.19026 0.50821 0.45664 0.0
H406 H 0.14433 0.50557 0.59669 0.0
C407 C 0.11437 0.5633 0.44529 0.0
C408 C 0.03248 0.87973 0.95542 0.0
C409 C 0.04425 0.87271 0.05049 0.0
H410 H 0.02683 0.91244 0.83129 0.0
C411 C 0.06686 0.89168 0.08035 0.0
H412 H 1.01531 0.86579 0.92885 0.0
C413 C 0.07215 0.91938 0.02666 0.0
C414 C 0.05626 0.92788 0.93955 0.0
H415 H 0.07749 0.88642 0.15139 0.0
H416 H 0.08671 0.9347 0.05711 0.0
C417 C 0.03869 0.90693 0.90008 0.0
C418 C 0.66561 0.04852 0.01785 0.0
C419 C 0.68217 0.02175 0.04483 0.0
H420 H 0.62337 0.07011 0.95467 0.0
C421 C 0.67061 0.99613 0.01594 0.0
H422 H 0.67362 0.06848 0.04164 0.0
C423 C 0.64126 0.99687 0.9694 0.0
C424 C 0.62308 0.02332 0.95001 0.0
H425 H 0.6824 0.97517 0.03817 0.0
H426 H 0.63213 0.9765 0.95239 0.0
C427 C 0.63641 0.04933 0.97038 0.0
C428 C 0.53295 0.63786 0.96511 0.0
C429 C 0.51019 0.64138 0.05242 0.0
H430 H 0.54991 0.61089 0.84768 0.0
C431 C 0.48232 0.62312 0.07522 0.0
H432 H 0.55474 0.65132 0.94555 0.0
C433 C 0.47967 0.59959 0.01912 0.0
C434 C 0.50497 0.59413 0.94013 0.0
H435 H 0.46423 0.6255 0.14186 0.0
H436 H 0.45964 0.58441 0.04296 0.0
C437 C 0.53045 0.61438 0.90999 0.0
C438 C 0.92639 0.47811 0.1451 0.0
C439 C 0.90343 0.50216 0.14239 0.0
H440 H 0.97253 0.45938 0.07561 0.0
C441 C 0.90686 0.52367 0.05822 0.0
H442 H 0.92415 0.46114 0.20906 0.0
C443 C 0.93439 0.5228 -0.01599 0.0
C444 C 0.95898 0.50034 -0.00831 0.0
H445 H 0.88999 0.54263 0.05391 0.0
H446 H 0.93727 0.5406 0.92284 0.0
C447 C 0.95404 0.47712 0.06949 0.0
C448 C 0.06519 0.17114 0.1302 0.0
C449 C 0.08307 0.16867 0.2149 0.0
H450 H 0.05032 0.14965 0.01003 0.0
C451 C 0.10682 0.14543 0.22623 0.0
H452 H 0.04691 0.18881 0.11859 0.0
C453 C 0.10786 0.12233 0.16634 0.0
C454 C 0.08575 0.1226 0.09271 0.0
H455 H 0.12137 0.14324 0.29007 0.0
H456 H 0.12332 0.1031 0.18505 0.0
C457 C 0.06665 0.14832 0.0693 0.0
C458 C 0.41821 0.05285 0.15886 0.0
C459 C 0.39948 0.02759 0.18966 0.0
H460 H 0.46089 0.07204 0.0651 0.0
C461 C 0.40911 1.00216 0.14372 0.0
H462 H 0.41163 0.07257 0.19475 0.0
C463 C 0.43785 1.00155 0.07216 0.0
C464 C 0.45741 0.02647 0.04409 0.0
H465 H 0.39562 0.98223 0.16784 0.0
H466 H 0.445 0.98135 0.0399 0.0
C467 C 0.44669 0.05239 0.08604 0.0
C468 C 0.54087 0.40573 0.08895 0.0
C469 C 0.51931 0.40455 0.18093 0.0
H470 H 0.5558 0.42998 0.94404 0.0
C471 C 0.49263 0.42535 0.19112 0.0
H472 H 0.56183 0.39025 0.07957 0.0
C473 C 0.48894 0.44804 0.11291 0.0
C474 C 0.51239 0.45052 0.02485 0.0
H475 H 0.47579 0.42493 0.26184 0.0
H476 H 0.4693 0.46464 0.12422 0.0
C477 C 0.53763 0.42866 0.01209 0.0
C478 C 0.17067 0.53611 0.94843 0.0
C479 C 0.17768 0.51416 0.02545 0.0
H480 H 0.13713 0.55201 0.84076 0.0
C481 C 0.15893 0.48865 0.04223 0.0
H482 H 0.18437 0.55617 0.93591 0.0
C483 C 0.13174 0.48622 -0.01193 0.0
C484 C 0.12265 0.5096 0.91862 0.0
H485 H 0.16356 0.47177 0.10318 0.0
H486 H 0.11645 0.46712 0.00597 0.0
C487 C 0.14321 0.53395 0.89589 0.0
C488 C 0.99354 0.85705 0.4674 0.0
C489 C 0.97661 0.86152 0.38096 0.0
H490 H 1.01007 0.8764 0.58995 0.0
C491 C 0.9572 0.88734 0.36388 0.0
H492 H 1.00901 0.83748 0.48107 0.0
C493 C 0.95866 0.91008 0.42384 0.0
C494 C 0.9794 0.90708 0.50191 0.0
H495 H 0.94444 0.89137 0.2963 0.0
H496 H 0.94642 0.93087 0.40218 0.0
C497 C 0.99469 0.87961 0.52808 0.0
C498 C 0.6548 0.04118 0.43316 0.0
C499 C 0.67246 0.01513 0.41295 0.0
H500 H 0.61308 0.06137 0.51772 0.0
C501 C 0.66178 0.98878 0.4693 0.0
H502 H 0.66219 0.06169 0.38935 0.0
C503 C 0.63308 0.98841 0.54183 0.0
C504 C 0.61462 0.01441 0.55917 0.0
H505 H 0.67451 0.96832 0.45324 0.0
H506 H 0.62509 0.96773 0.58305 0.0
C507 C 0.62631 0.04085 0.50546 0.0
C508 C 0.57424 0.62283 0.42038 0.0
C509 C 0.54293 0.63465 0.39655 0.0
H510 H 0.60017 0.59019 0.51373 0.0
C511 C 0.51359 0.62415 0.45531 0.0
H512 H 0.59721 0.63037 0.37493 0.0
C513 C 0.5152 0.60111 0.53214 0.0
C514 C 0.54624 0.58796 0.55289 0.0
H515 H 0.48919 0.63287 0.43828 0.0
H516 H 0.49179 0.59319 0.57382 0.0
C517 C 0.57591 0.59964 0.49859 0.0
C518 C 0.91264 0.49918 0.54117 0.0
C519 C 0.89919 0.52469 0.4916 0.0
H520 H 0.95064 0.48021 0.62832 0.0
C521 C 0.91169 0.55185 0.50356 0.0
H522 H 0.9035 0.47801 0.53224 0.0
C523 C 0.9391 0.55321 0.55797 0.0
C524 C 0.95439 0.52737 0.59988 0.0
H525 H 0.902 0.57176 0.46438 0.0
H526 H 0.94937 0.57424 0.56252 0.0
C527 C 0.94002 0.50048 0.59442 0.0
loop_
_geom_bond_atom_site_label_1
_geom_bond_atom_site_label_2
_geom_bond_distance
_geom_bond_site_symmetry_2
_ccdc_geom_bond_type
H0 C1 0.949 . S
C1 H0 0.949 . S
C1 C2 1.395 . S
C1 C3 1.391 . S
C2 C1 1.395 . S
C2 C5 1.390 . S
C3 C1 1.391 . S
C3 C7 1.387 . S
C3 C8 1.491 . S
H4 C5 0.950 . S
C5 C2 1.390 . S
C5 H4 0.950 . S
C5 C6 1.378 . S
C6 C5 1.378 . S
C6 C7 1.409 . S
C7 C3 1.387 . S
C7 C6 1.409 . S
C7 H9 0.951 . S
C8 C3 1.491 . S
C8 C10 1.382 . S
C8 C12 1.404 . S
H9 C7 0.951 . S
C10 C8 1.382 . S
C10 C11 1.390 . S
C10 H15 0.949 . S
C11 C10 1.390 . S
C11 C16 1.399 . S
C12 C8 1.404 . S
C12 H13 0.950 . S
C12 C14 1.375 . S
H13 C12 0.950 . S
C14 C12 1.375 . S
C14 C16 1.382 . S
C14 H18 0.950 . S
H15 C10 0.949 . S
C16 C11 1.399 . S
C16 C14 1.382 . S
C16 H17 0.952 . S
H17 C16 0.952 . S
H18 C14 0.950 . S
H19 C20 0.949 . S
C20 H19 0.949 . S
C20 C21 1.395 . S
C20 C22 1.391 1_556 S
C21 C20 1.395 . S
C21 C24 1.391 1_656 S
C22 C20 1.391 1_554 S
C22 C26 1.387 . S
C22 C27 1.491 . S
H23 C24 0.949 . S
C24 C21 1.391 1_454 S
C24 H23 0.949 . S
C24 C25 1.378 1_455 S
C25 C24 1.378 1_655 S
C25 C26 1.409 . S
C26 C22 1.387 . S
C26 C25 1.409 . S
C26 H28 0.951 . S
C27 C22 1.491 . S
C27 C29 1.382 1_554 S
C27 C31 1.404 . S
H28 C26 0.951 . S
C29 C27 1.382 1_556 S
C29 C30 1.390 . S
C29 H34 0.949 1_655 S
C30 C29 1.390 . S
C30 C35 1.399 1_556 S
C31 C27 1.404 . S
C31 H32 0.950 . S
C31 C33 1.375 . S
H32 C31 0.950 . S
C33 C31 1.375 . S
C33 C35 1.382 . S
C33 H37 0.950 . S
H34 C29 0.949 1_455 S
C35 C30 1.399 1_554 S
C35 C33 1.382 . S
C35 H36 0.952 . S
H36 C35 0.952 . S
H37 C33 0.950 . S
H38 C39 0.949 . S
C39 H38 0.949 . S
C39 C40 1.395 . S
C39 C41 1.391 . S
C40 C39 1.395 . S
C40 C43 1.390 . S
C41 C39 1.391 . S
C41 C45 1.387 . S
C41 C46 1.491 . S
H42 C43 0.950 . S
C43 C40 1.390 . S
C43 H42 0.950 . S
C43 C44 1.378 . S
C44 C43 1.378 . S
C44 C45 1.409 . S
C45 C41 1.387 . S
C45 C44 1.409 . S
C45 H47 0.951 . S
C46 C41 1.491 . S
C46 C48 1.382 . S
C46 C50 1.404 . S
H47 C45 0.951 . S
C48 C46 1.382 . S
C48 C49 1.390 . S
C48 H53 0.949 1_565 S
C49 C48 1.390 . S
C49 C54 1.399 . S
C50 C46 1.404 . S
C50 H51 0.950 . S
C50 C52 1.375 . S
H51 C50 0.950 . S
C52 C50 1.375 . S
C52 C54 1.382 . S
C52 H56 0.950 . S
H53 C48 0.949 1_545 S
C54 C49 1.399 . S
C54 C52 1.382 . S
C54 H55 0.952 . S
H55 C54 0.952 . S
H56 C52 0.950 . S
H57 C58 0.949 . S
C58 H57 0.949 . S
C58 C59 1.395 . S
C58 C60 1.391 . S
C59 C58 1.395 . S
C59 C62 1.390 . S
C60 C58 1.391 . S
C60 C64 1.387 . S
C60 C65 1.491 . S
H61 C62 0.950 . S
C62 C59 1.390 . S
C62 H61 0.950 . S
C62 C63 1.378 . S
C63 C62 1.378 . S
C63 C64 1.409 . S
C64 C60 1.387 . S
C64 C63 1.409 . S
C64 H66 0.951 . S
C65 C60 1.491 . S
C65 C67 1.382 . S
C65 C69 1.404 . S
H66 C64 0.951 . S
C67 C65 1.382 . S
C67 C68 1.390 . S
C67 H72 0.949 . S
C68 C67 1.390 . S
C68 C73 1.399 . S
C69 C65 1.404 . S
C69 H70 0.950 . S
C69 C71 1.375 . S
H70 C69 0.950 . S
C71 C69 1.375 . S
C71 C73 1.382 . S
C71 H75 0.950 . S
H72 C67 0.949 . S
C73 C68 1.399 . S
C73 C71 1.382 . S
C73 H74 0.952 . S
H74 C73 0.952 . S
H75 C71 0.950 . S
H76 C77 0.949 . S
C77 H76 0.949 . S
C77 C78 1.395 . S
C77 C79 1.391 . S
C78 C77 1.395 . S
C78 C81 1.390 . S
C79 C77 1.391 . S
C79 C83 1.387 . S
C79 C84 1.491 . S
H80 C81 0.950 . S
C81 C78 1.390 . S
C81 H80 0.950 . S
C81 C82 1.378 . S
C82 C81 1.378 . S
C82 C83 1.409 . S
C83 C79 1.387 . S
C83 C82 1.409 . S
C83 H85 0.951 . S
C84 C79 1.491 . S
C84 C86 1.382 . S
C84 C88 1.404 . S
H85 C83 0.951 . S
C86 C84 1.382 . S
C86 C87 1.390 . S
C86 H91 0.949 . S
C87 C86 1.390 . S
C87 C92 1.399 . S
C88 C84 1.404 . S
C88 H89 0.950 . S
C88 C90 1.375 . S
H89 C88 0.950 . S
C90 C88 1.375 . S
C90 C92 1.382 . S
C90 H94 0.950 . S
H91 C86 0.949 . S
C92 C87 1.399 . S
C92 C90 1.382 . S
C92 H93 0.952 . S
H93 C92 0.952 . S
H94 C90 0.950 . S
H95 C96 0.949 . S
C96 H95 0.949 . S
C96 C97 1.395 . S
C96 C98 1.391 . S
C97 C96 1.395 . S
C97 C100 1.390 . S
C98 C96 1.391 . S
C98 C102 1.387 . S
C98 C103 1.491 . S
H99 C100 0.950 . S
C100 C97 1.390 . S
C100 H99 0.950 . S
C100 C101 1.378 . S
C101 C100 1.378 . S
C101 C102 1.409 . S
C102 C98 1.387 . S
C102 C101 1.409 . S
C102 H104 0.951 . S
C103 C98 1.491 . S
C103 C105 1.382 . S
C103 C107 1.404 1_455 S
H104 C102 0.951 . S
C105 C103 1.382 . S
C105 C106 1.390 . S
C105 H110 0.949 . S
C106 C105 1.390 . S
C106 C111 1.399 1_455 S
C107 C103 1.404 1_655 S
C107 H108 0.950 . S
C107 C109 1.375 . S
H108 C107 0.950 . S
C109 C107 1.375 . S
C109 C111 1.382 . S
C109 H113 0.950 . S
H110 C105 0.949 . S
C111 C106 1.399 1_655 S
C111 C109 1.382 . S
C111 H112 0.952 . S
H112 C111 0.952 . S
H113 C109 0.950 . S
H114 C115 0.949 . S
C115 H114 0.949 . S
C115 C116 1.395 . S
C115 C117 1.391 . S
C116 C115 1.395 . S
C116 C119 1.390 . S
C117 C115 1.391 . S
C117 C121 1.387 . S
C117 C122 1.491 . S
H118 C119 0.950 . S
C119 C116 1.390 . S
C119 H118 0.950 . S
C119 C120 1.378 . S
C120 C119 1.378 . S
C120 C121 1.409 . S
C121 C117 1.387 . S
C121 C120 1.409 . S
C121 H123 0.951 . S
C122 C117 1.491 . S
C122 C124 1.382 . S
C122 C126 1.404 1_545 S
H123 C121 0.951 . S
C124 C122 1.382 . S
C124 C125 1.390 . S
C124 H129 0.949 . S
C125 C124 1.390 . S
C125 C130 1.399 1_545 S
C126 C122 1.404 1_565 S
C126 H127 0.950 . S
C126 C128 1.375 . S
H127 C126 0.950 . S
C128 C126 1.375 . S
C128 C130 1.382 . S
C128 H132 0.950 . S
H129 C124 0.949 . S
C130 C125 1.399 1_565 S
C130 C128 1.382 . S
C130 H131 0.952 . S
H131 C130 0.952 . S
H132 C128 0.950 . S
H133 C134 0.949 . S
C134 H133 0.949 . S
C134 C135 1.395 . S
C134 C136 1.391 . S
C135 C134 1.395 . S
C135 C138 1.390 . S
C136 C134 1.391 . S
C136 C140 1.387 . S
C136 C141 1.491 . S
H137 C138 0.950 . S
C138 C135 1.390 . S
C138 H137 0.950 . S
C138 C139 1.378 . S
C139 C138 1.378 . S
C139 C140 1.409 . S
C140 C136 1.387 . S
C140 C139 1.409 . S
C140 H142 0.951 . S
C141 C136 1.491 . S
C141 C143 1.382 . S
C141 C145 1.404 . S
H142 C140 0.951 . S
C143 C141 1.382 . S
C143 C144 1.390 . S
C143 H148 0.949 . S
C144 C143 1.390 . S
C144 C149 1.399 . S
C145 C141 1.404 . S
C145 H146 0.950 . S
C145 C147 1.375 . S
H146 C145 0.950 . S
C147 C145 1.375 . S
C147 C149 1.382 . S
C147 H151 0.950 . S
H148 C143 0.949 . S
C149 C144 1.399 . S
C149 C147 1.382 . S
C149 H150 0.952 . S
H150 C149 0.952 . S
H151 C147 0.950 . S
C152 O168 1.251 . S
C152 O170 1.254 . S
N153 C154 1.333 . S
N153 C158 1.307 1_455 S
N153 Zn159 2.020 . S
C154 N153 1.333 . S
C154 C155 1.379 . S
C154 H172 0.952 . S
C155 C154 1.379 . S
C155 C156 1.390 1_455 S
C155 H182 0.949 . S
C156 C155 1.390 1_655 S
C156 C157 1.357 . S
C157 C156 1.357 . S
C157 C158 1.370 . S
C157 H183 0.950 . S
C158 N153 1.307 1_655 S
C158 C157 1.370 . S
C158 H176 0.948 1_565 S
Zn159 N153 2.020 . S
Zn159 O168 2.039 . S
Zn159 O174 2.034 . S
Zn159 O178 2.025 1_565 S
Zn159 O180 2.024 1_455 S
C160 O179 1.246 . S
C160 O180 1.249 1_545 S
N161 C162 1.307 . S
N161 C163 1.333 . S
N161 Zn167 2.020 1_554 S
C162 N161 1.307 . S
C162 C166 1.370 . S
C162 H173 0.948 . S
C163 N161 1.333 . S
C163 C164 1.379 . S
C163 H171 0.952 1_554 S
C164 C163 1.379 . S
C164 C165 1.390 . S
C164 H184 0.949 . S
C165 C164 1.390 . S
C165 C166 1.357 . S
C166 C162 1.370 . S
C166 C165 1.357 . S
C166 H185 0.950 . S
Zn167 N161 2.020 1_556 S
Zn167 O170 2.025 1_545 S
Zn167 O175 2.024 . S
Zn167 O177 2.039 . S
Zn167 O179 2.034 1_455 S
O168 C152 1.251 . S
O168 Zn159 2.039 . S
C169 O174 1.246 1_545 S
C169 O175 1.249 . S
O170 C152 1.254 . S
O170 Zn167 2.025 1_565 S
H171 C163 0.952 1_556 S
H172 C154 0.952 . S
H173 C162 0.948 . S
O174 Zn159 2.034 . S
O174 C169 1.246 1_565 S
O175 Zn167 2.024 . S
O175 C169 1.249 . S
H176 C158 0.948 1_545 S
O177 Zn167 2.039 . S
O177 C181 1.251 . S
O178 Zn159 2.025 1_545 S
O178 C181 1.254 . S
O179 C160 1.246 . S
O179 Zn167 2.034 1_655 S
O180 Zn159 2.024 1_655 S
O180 C160 1.249 1_565 S
C181 O177 1.251 . S
C181 O178 1.254 . S
H182 C155 0.949 . S
H183 C157 0.950 . S
H184 C164 0.949 . S
H185 C166 0.950 . S
C186 O202 1.251 . S
C186 O204 1.254 1_545 S
N187 C188 1.333 . S
N187 C192 1.307 . S
N187 Zn193 2.020 . S
C188 N187 1.333 . S
C188 C189 1.379 . S
C188 H206 0.952 . S
C189 C188 1.379 . S
C189 C190 1.390 . S
C189 H216 0.949 . S
C190 C189 1.390 . S
C190 C191 1.357 . S
C191 C190 1.357 . S
C191 C192 1.370 . S
C191 H217 0.950 . S
C192 N187 1.307 . S
C192 C191 1.370 . S
C192 H210 0.948 . S
Zn193 N187 2.020 . S
Zn193 O202 2.039 . S
Zn193 O208 2.034 . S
Zn193 O212 2.025 . S
Zn193 O214 2.024 . S
C194 O213 1.246 1_545 S
C194 O214 1.249 . S
N195 C196 1.307 . S
N195 C197 1.333 . S
N195 Zn201 2.020 . S
C196 N195 1.307 . S
C196 C200 1.370 . S
C196 H207 0.948 . S
C197 N195 1.333 . S
C197 C198 1.379 . S
C197 H205 0.952 . S
C198 C197 1.379 . S
C198 C199 1.390 . S
C198 H218 0.949 1_556 S
C199 C198 1.390 . S
C199 C200 1.357 . S
C200 C196 1.370 . S
C200 C199 1.357 . S
C200 H219 0.950 . S
Zn201 N195 2.020 . S
Zn201 O204 2.025 . S
Zn201 O209 2.024 . S
Zn201 O211 2.039 . S
Zn201 O213 2.034 . S
O202 C186 1.251 . S
O202 Zn193 2.039 . S
C203 O208 1.246 1_565 S
C203 O209 1.249 . S
O204 C186 1.254 1_565 S
O204 Zn201 2.025 . S
H205 C197 0.952 . S
H206 C188 0.952 . S
H207 C196 0.948 . S
O208 Zn193 2.034 . S
O208 C203 1.246 1_545 S
O209 Zn201 2.024 . S
O209 C203 1.249 . S
H210 C192 0.948 . S
O211 Zn201 2.039 . S
O211 C215 1.251 1_565 S
O212 Zn193 2.025 . S
O212 C215 1.254 . S
O213 C194 1.246 1_565 S
O213 Zn201 2.034 . S
O214 Zn193 2.024 . S
O214 C194 1.249 . S
C215 O211 1.251 1_545 S
C215 O212 1.254 . S
H216 C189 0.949 . S
H217 C191 0.950 . S
H218 C198 0.949 1_554 S
H219 C200 0.950 . S
C220 O236 1.251 . S
C220 O238 1.254 . S
N221 C222 1.333 . S
N221 C226 1.307 . S
N221 Zn227 2.020 . S
C222 N221 1.333 . S
C222 C223 1.379 . S
C222 H240 0.952 . S
C223 C222 1.379 . S
C223 C224 1.390 . S
C223 H250 0.949 . S
C224 C223 1.390 . S
C224 C225 1.357 . S
C225 C224 1.357 . S
C225 C226 1.370 . S
C225 H251 0.950 . S
C226 N221 1.307 . S
C226 C225 1.370 . S
C226 H244 0.948 . S
Zn227 N221 2.020 . S
Zn227 O236 2.039 . S
Zn227 O242 2.034 . S
Zn227 O246 2.025 . S
Zn227 O248 2.024 . S
C228 O247 1.246 . S
C228 O248 1.249 . S
N229 C230 1.307 . S
N229 C231 1.333 . S
N229 Zn235 2.020 . S
C230 N229 1.307 . S
C230 C234 1.370 . S
C230 H241 0.948 . S
C231 N229 1.333 . S
C231 C232 1.379 . S
C231 H239 0.952 . S
C232 C231 1.379 . S
C232 C233 1.390 . S
C232 H252 0.949 1_556 S
C233 C232 1.390 . S
C233 C234 1.357 . S
C234 C230 1.370 . S
C234 C233 1.357 . S
C234 H253 0.950 . S
Zn235 N229 2.020 . S
Zn235 O238 2.025 . S
Zn235 O243 2.024 . S
Zn235 O245 2.039 . S
Zn235 O247 2.034 . S
O236 C220 1.251 . S
O236 Zn227 2.039 . S
C237 O242 1.246 . S
C237 O243 1.249 . S
O238 C220 1.254 . S
O238 Zn235 2.025 . S
H239 C231 0.952 . S
H240 C222 0.952 . S
H241 C230 0.948 . S
O242 Zn227 2.034 . S
O242 C237 1.246 . S
O243 Zn235 2.024 . S
O243 C237 1.249 . S
H244 C226 0.948 . S
O245 Zn235 2.039 . S
O245 C249 1.251 . S
O246 Zn227 2.025 . S
O246 C249 1.254 . S
O247 C228 1.246 . S
O247 Zn235 2.034 . S
O248 Zn227 2.024 . S
O248 C228 1.249 . S
C249 O245 1.251 . S
C249 O246 1.254 . S
H250 C223 0.949 . S
H251 C225 0.950 . S
H252 C232 0.949 1_554 S
H253 C234 0.950 . S
C254 O270 1.251 . S
C254 O272 1.254 . S
N255 C256 1.333 . S
N255 C260 1.297 1_455 S
N255 Zn261 2.020 . S
C256 N255 1.333 . S
C256 C257 1.379 . S
C256 H274 0.952 . S
C257 C256 1.379 . S
C257 C258 1.390 . S
C257 H284 0.949 . S
C258 C257 1.390 . S
C258 C259 1.348 1_455 S
C259 C258 1.348 1_655 S
C259 C260 1.370 . S
C259 H285 0.961 . S
C260 N255 1.297 1_655 S
C260 C259 1.370 . S
C260 H278 0.958 . S
Zn261 N255 2.020 . S
Zn261 O270 2.039 . S
Zn261 O276 2.034 1_455 S
Zn261 O280 2.025 1_455 S
Zn261 O282 2.024 . S
C262 O281 1.246 . S
C262 O282 1.249 . S
N263 C264 1.307 . S
N263 C265 1.333 . S
N263 Zn269 2.020 . S
C264 N263 1.307 . S
C264 C268 1.370 . S
C264 H275 0.948 . S
C265 N263 1.333 . S
C265 C266 1.379 . S
C265 H273 0.952 1_455 S
C266 C265 1.379 . S
C266 C267 1.399 . S
C266 H286 0.941 1_455 S
C267 C266 1.399 . S
C267 C268 1.357 . S
C268 C264 1.370 . S
C268 C267 1.357 . S
C268 H287 0.950 . S
Zn269 N263 2.020 . S
Zn269 O272 2.025 . S
Zn269 O277 2.024 1_455 S
Zn269 O279 2.039 1_455 S
Zn269 O281 2.034 . S
O270 C254 1.251 . S
O270 Zn261 2.039 . S
C271 O276 1.246 . S
C271 O277 1.249 . S
O272 C254 1.254 . S
O272 Zn269 2.025 . S
H273 C265 0.952 1_655 S
H274 C256 0.952 . S
H275 C264 0.948 . S
O276 Zn261 2.034 1_655 S
O276 C271 1.246 . S
O277 Zn269 2.024 1_655 S
O277 C271 1.249 . S
H278 C260 0.958 . S
O279 Zn269 2.039 1_655 S
O279 C283 1.251 . S
O280 Zn261 2.025 1_655 S
O280 C283 1.254 . S
O281 C262 1.246 . S
O281 Zn269 2.034 . S
O282 Zn261 2.024 . S
O282 C262 1.249 . S
C283 O279 1.251 . S
C283 O280 1.254 . S
H284 C257 0.949 . S
H285 C259 0.961 . S
H286 C266 0.941 1_655 S
H287 C268 0.950 . S
C288 C289 1.387 1_565 S
C288 H292 0.950 . S
C288 C297 1.390 . S
C289 C288 1.387 1_545 S
C289 C291 1.387 . S
H290 C297 0.950 . S
C291 C289 1.387 . S
C291 C293 1.390 . S
C291 H295 0.950 . S
H292 C288 0.950 . S
C293 C291 1.390 . S
C293 C294 1.387 . S
C293 H296 0.950 . S
C294 C293 1.387 . S
C294 C297 1.387 1_545 S
H295 C291 0.950 . S
H296 C293 0.950 . S
C297 C288 1.390 . S
C297 H290 0.950 . S
C297 C294 1.387 1_565 S
C298 C299 1.387 . S
C298 H302 0.950 . S
C298 C307 1.390 . S
C299 C298 1.387 . S
C299 C301 1.387 . S
H300 C307 0.950 . S
C301 C299 1.387 . S
C301 C303 1.390 . S
C301 H305 0.950 . S
H302 C298 0.950 . S
C303 C301 1.390 . S
C303 C304 1.387 . S
C303 H306 0.950 . S
C304 C303 1.387 . S
C304 C307 1.387 . S
H305 C301 0.950 . S
H306 C303 0.950 . S
C307 C298 1.390 . S
C307 H300 0.950 . S
C307 C304 1.387 . S
C308 C309 1.387 . S
C308 H312 0.950 . S
C308 C317 1.390 . S
C309 C308 1.387 . S
C309 C311 1.387 . S
H310 C317 0.950 . S
C311 C309 1.387 . S
C311 C313 1.390 . S
C311 H315 0.950 . S
H312 C308 0.950 . S
C313 C311 1.390 . S
C313 C314 1.387 . S
C313 H316 0.950 . S
C314 C313 1.387 . S
C314 C317 1.387 . S
H315 C311 0.950 . S
H316 C313 0.950 . S
C317 C308 1.390 . S
C317 H310 0.950 . S
C317 C314 1.387 . S
C318 C319 1.387 . S
C318 H322 0.950 . S
C318 C327 1.390 . S
C319 C318 1.387 . S
C319 C321 1.387 . S
H320 C327 0.950 . S
C321 C319 1.387 . S
C321 C323 1.392 . S
C321 H325 0.950 1_455 S
H322 C318 0.950 . S
C323 C321 1.392 . S
C323 C324 1.401 . S
C323 H326 0.935 1_455 S
C324 C323 1.401 . S
C324 C327 1.387 . S
H325 C321 0.950 1_655 S
H326 C323 0.935 1_655 S
C327 C318 1.390 . S
C327 H320 0.950 . S
C327 C324 1.387 . S
C328 C329 1.387 . S
C328 H332 0.950 . S
C328 C337 1.390 . S
C329 C328 1.387 . S
C329 C331 1.387 1_565 S
H330 C337 0.950 . S
C331 C329 1.387 1_545 S
C331 C333 1.390 . S
C331 H335 0.950 . S
H332 C328 0.950 . S
C333 C331 1.390 . S
C333 C334 1.387 . S
C333 H336 0.950 . S
C334 C333 1.387 . S
C334 C337 1.387 1_545 S
H335 C331 0.950 . S
H336 C333 0.950 . S
C337 C328 1.390 . S
C337 H330 0.950 . S
C337 C334 1.387 1_565 S
C338 C339 1.387 1_556 S
C338 H342 0.950 1_556 S
C338 C347 1.390 . S
C339 C338 1.387 1_554 S
C339 C341 1.387 . S
H340 C347 0.950 . S
C341 C339 1.387 . S
C341 C343 1.390 1_554 S
C341 H345 0.950 . S
H342 C338 0.950 1_554 S
C343 C341 1.390 1_556 S
C343 C344 1.387 . S
C343 H346 0.950 . S
C344 C343 1.387 . S
C344 C347 1.387 . S
H345 C341 0.950 . S
H346 C343 0.950 . S
C347 C338 1.390 . S
C347 H340 0.950 . S
C347 C344 1.387 . S
C348 C349 1.387 . S
C348 H352 0.950 . S
C348 C357 1.390 1_554 S
C349 C348 1.387 . S
C349 C351 1.387 . S
H350 C357 0.950 . S
C351 C349 1.387 . S
C351 C353 1.390 1_554 S
C351 H355 0.950 . S
H352 C348 0.950 . S
C353 C351 1.390 1_556 S
C353 C354 1.387 . S
C353 H356 0.950 . S
C354 C353 1.387 . S
C354 C357 1.387 . S
H355 C351 0.950 . S
H356 C353 0.950 . S
C357 C348 1.390 1_556 S
C357 H350 0.950 . S
C357 C354 1.387 . S
C358 C359 1.407 . S
C358 H362 0.950 1_556 S
C358 C367 1.390 . S
C359 C358 1.407 . S
C359 C361 1.371 1_455 S
H360 C367 0.950 . S
C361 C359 1.371 1_655 S
C361 C363 1.390 . S
C361 H365 0.950 . S
H362 C358 0.950 1_554 S
C363 C361 1.390 . S
C363 C364 1.387 1_655 S
C363 H366 0.950 . S
C364 C363 1.387 1_455 S
C364 C367 1.387 . S
H365 C361 0.950 . S
H366 C363 0.950 . S
C367 C358 1.390 . S
C367 H360 0.950 . S
C367 C364 1.387 . S
C368 C369 1.387 . S
C368 H372 0.950 . S
C368 C377 1.390 . S
C369 C368 1.387 . S
C369 C371 1.387 . S
H370 C377 0.943 1_655 S
C371 C369 1.387 . S
C371 C373 1.390 . S
C371 H375 0.950 . S
H372 C368 0.950 . S
C373 C371 1.390 . S
C373 C374 1.387 . S
C373 H376 0.950 . S
C374 C373 1.387 . S
C374 C377 1.387 . S
H375 C371 0.950 . S
H376 C373 0.950 . S
C377 C368 1.390 . S
C377 H370 0.943 1_455 S
C377 C374 1.387 . S
C378 C379 1.387 1_565 S
C378 H382 0.950 . S
C378 C387 1.390 . S
C379 C378 1.387 1_545 S
C379 C381 1.387 . S
H380 C387 0.950 . S
C381 C379 1.387 . S
C381 C383 1.390 . S
C381 H385 0.950 . S
H382 C378 0.950 . S
C383 C381 1.390 . S
C383 C384 1.387 . S
C383 H386 0.950 . S
C384 C383 1.387 . S
C384 C387 1.387 1_545 S
H385 C381 0.950 . S
H386 C383 0.950 . S
C387 C378 1.390 . S
C387 H380 0.950 . S
C387 C384 1.387 1_565 S
C388 C389 1.387 . S
C388 H392 0.950 . S
C388 C397 1.390 . S
C389 C388 1.387 . S
C389 C391 1.387 . S
H390 C397 0.950 . S
C391 C389 1.387 . S
C391 C393 1.390 . S
C391 H395 0.950 . S
H392 C388 0.950 . S
C393 C391 1.390 . S
C393 C394 1.387 . S
C393 H396 0.950 . S
C394 C393 1.387 . S
C394 C397 1.387 . S
H395 C391 0.950 . S
H396 C393 0.950 . S
C397 C388 1.390 . S
C397 H390 0.950 . S
C397 C394 1.387 . S
C398 C399 1.387 . S
C398 H402 0.950 . S
C398 C407 1.390 . S
C399 C398 1.387 . S
C399 C401 1.387 . S
H400 C407 0.950 . S
C401 C399 1.387 . S
C401 C403 1.390 . S
C401 H405 0.950 . S
H402 C398 0.950 . S
C403 C401 1.390 . S
C403 C404 1.387 . S
C403 H406 0.950 . S
C404 C403 1.387 . S
C404 C407 1.387 . S
H405 C401 0.950 . S
H406 C403 0.950 . S
C407 C398 1.390 . S
C407 H400 0.950 . S
C407 C404 1.387 . S
C408 C409 1.387 1_554 S
C408 H412 0.950 . S
C408 C417 1.390 1_655 S
C409 C408 1.387 1_556 S
C409 C411 1.387 1_655 S
H410 C417 0.950 . S
C411 C409 1.387 1_455 S
C411 C413 1.390 . S
C411 H415 0.950 . S
H412 C408 0.950 . S
C413 C411 1.390 . S
C413 C414 1.387 . S
C413 H416 0.950 . S
C414 C413 1.387 . S
C414 C417 1.387 1_556 S
H415 C411 0.950 . S
H416 C413 0.950 . S
C417 C408 1.390 1_455 S
C417 H410 0.950 . S
C417 C414 1.387 1_554 S
C418 C419 1.387 1_545 S
C418 H422 0.950 . S
C418 C427 1.390 1_554 S
C419 C418 1.387 1_565 S
C419 C421 1.387 1_554 S
H420 C427 0.950 . S
C421 C419 1.387 1_556 S
C421 C423 1.390 . S
C421 H425 0.950 1_556 S
H422 C418 0.950 . S
C423 C421 1.390 . S
C423 C424 1.387 1_565 S
C423 H426 0.950 . S
C424 C423 1.387 1_545 S
C424 C427 1.387 . S
H425 C421 0.950 1_554 S
H426 C423 0.950 . S
C427 C418 1.390 1_556 S
C427 H420 0.950 . S
C427 C424 1.387 . S
C428 C429 1.387 1_556 S
C428 H432 0.950 . S
C428 C437 1.390 . S
C429 C428 1.387 1_554 S
C429 C431 1.387 . S
H430 C437 0.950 . S
C431 C429 1.387 . S
C431 C433 1.390 . S
C431 H435 0.950 . S
H432 C428 0.950 . S
C433 C431 1.390 . S
C433 C434 1.387 1_554 S
C433 H436 0.950 . S
C434 C433 1.387 1_556 S
C434 C437 1.387 . S
H435 C431 0.950 . S
H436 C433 0.950 . S
C437 C428 1.390 . S
C437 H430 0.950 . S
C437 C434 1.387 . S
C438 C439 1.387 . S
C438 H442 0.950 . S
C438 C447 1.390 . S
C439 C438 1.387 . S
C439 C441 1.387 . S
H440 C447 0.950 . S
C441 C439 1.387 . S
C441 C443 1.390 1_554 S
C441 H445 0.950 . S
H442 C438 0.950 . S
C443 C441 1.390 1_556 S
C443 C444 1.387 . S
C443 H446 0.950 . S
C444 C443 1.387 . S
C444 C447 1.387 1_556 S
H445 C441 0.950 . S
H446 C443 0.950 . S
C447 C438 1.390 . S
C447 H440 0.950 . S
C447 C444 1.387 1_554 S
C448 C449 1.394 . S
C448 H452 0.944 1_455 S
C448 C457 1.392 . S
C449 C448 1.394 . S
C449 C451 1.387 . S
H450 C457 0.918 1_655 S
C451 C449 1.387 . S
C451 C453 1.390 . S
C451 H455 0.950 . S
H452 C448 0.944 1_655 S
C453 C451 1.390 . S
C453 C454 1.387 . S
C453 H456 0.950 . S
C454 C453 1.387 . S
C454 C457 1.417 . S
H455 C451 0.950 . S
H456 C453 0.950 . S
C457 C448 1.392 . S
C457 H450 0.918 1_455 S
C457 C454 1.417 . S
C458 C459 1.387 . S
C458 H462 0.950 . S
C458 C467 1.390 . S
C459 C458 1.387 . S
C459 C461 1.387 1_545 S
H460 C467 0.950 . S
C461 C459 1.387 1_565 S
C461 C463 1.390 . S
C461 H465 0.950 . S
H462 C458 0.950 . S
C463 C461 1.390 . S
C463 C464 1.387 1_565 S
C463 H466 0.950 . S
C464 C463 1.387 1_545 S
C464 C467 1.387 . S
H465 C461 0.950 . S
H466 C463 0.950 . S
C467 C458 1.390 . S
C467 H460 0.950 . S
C467 C464 1.387 . S
C468 C469 1.387 . S
C468 H472 0.950 . S
C468 C477 1.390 . S
C469 C468 1.387 . S
C469 C471 1.387 . S
H470 C477 0.950 1_556 S
C471 C469 1.387 . S
C471 C473 1.390 . S
C471 H475 0.950 . S
H472 C468 0.950 . S
C473 C471 1.390 . S
C473 C474 1.387 . S
C473 H476 0.950 . S
C474 C473 1.387 . S
C474 C477 1.387 . S
H475 C471 0.950 . S
H476 C473 0.950 . S
C477 C468 1.390 . S
C477 H470 0.950 1_554 S
C477 C474 1.387 . S
C478 C479 1.387 . S
C478 H482 0.950 . S
C478 C487 1.390 . S
C479 C478 1.387 . S
C479 C481 1.387 . S
H480 C487 0.950 1_556 S
C481 C479 1.387 . S
C481 C483 1.390 . S
C481 H485 0.950 . S
H482 C478 0.950 . S
C483 C481 1.390 . S
C483 C484 1.387 . S
C483 H486 0.950 . S
C484 C483 1.387 . S
C484 C487 1.387 . S
H485 C481 0.950 . S
H486 C483 0.950 . S
C487 C478 1.390 . S
C487 H480 0.950 1_554 S
C487 C484 1.387 . S
C488 C489 1.387 1_455 S
C488 H492 0.950 . S
C488 C497 1.390 . S
C489 C488 1.387 1_655 S
C489 C491 1.387 . S
H490 C497 0.950 . S
C491 C489 1.387 . S
C491 C493 1.390 . S
C491 H495 0.950 . S
H492 C488 0.950 . S
C493 C491 1.390 . S
C493 C494 1.387 . S
C493 H496 0.950 . S
C494 C493 1.387 . S
C494 C497 1.387 1_655 S
H495 C491 0.950 . S
H496 C493 0.950 . S
C497 C488 1.390 . S
C497 H490 0.950 . S
C497 C494 1.387 1_455 S
C498 C499 1.387 1_545 S
C498 H502 0.950 . S
C498 C507 1.390 . S
C499 C498 1.387 1_565 S
C499 C501 1.387 . S
H500 C507 0.950 . S
C501 C499 1.387 . S
C501 C503 1.390 . S
C501 H505 0.950 . S
H502 C498 0.950 . S
C503 C501 1.390 . S
C503 C504 1.387 . S
C503 H506 0.950 . S
C504 C503 1.387 . S
C504 C507 1.387 1_565 S
H505 C501 0.950 . S
H506 C503 0.950 . S
C507 C498 1.390 . S
C507 H500 0.950 . S
C507 C504 1.387 1_545 S
C508 C509 1.387 . S
C508 H512 0.950 . S
C508 C517 1.390 . S
C509 C508 1.387 . S
C509 C511 1.387 . S
H510 C517 0.950 . S
C511 C509 1.387 . S
C511 C513 1.390 . S
C511 H515 0.950 . S
H512 C508 0.950 . S
C513 C511 1.390 . S
C513 C514 1.387 . S
C513 H516 0.950 . S
C514 C513 1.387 . S
C514 C517 1.387 . S
H515 C511 0.950 . S
H516 C513 0.950 . S
C517 C508 1.390 . S
C517 H510 0.950 . S
C517 C514 1.387 . S
C518 C519 1.387 . S
C518 H522 0.950 . S
C518 C527 1.390 . S
C519 C518 1.387 . S
C519 C521 1.387 . S
H520 C527 0.950 . S
C521 C519 1.387 . S
C521 C523 1.390 . S
C521 H525 0.950 . S
H522 C518 0.950 . S
C523 C521 1.390 . S
C523 C524 1.387 . S
C523 H526 0.950 . S
C524 C523 1.387 . S
C524 C527 1.387 . S
H525 C521 0.950 . S
H526 C523 0.950 . S
C527 C518 1.390 . S
C527 H520 0.950 . S
C527 C524 1.387 . S
C289 C125 1.763 . S
C294 C169 1.894 . S
C304 C190 1.537 . S
C299 C144 1.442 . S
C314 C224 1.465 . S
C309 C87 1.447 . S
C324 C258 1.533 . S
C319 C106 1.408 . S
C334 C160 1.894 . S
C329 C49 1.812 1_556 S
C339 C68 1.444 . S
C344 C199 1.537 . S
C349 C11 1.499 . S
C354 C233 1.467 . S
C359 C30 1.459 1_455 S
C364 C267 1.533 . S
C374 C181 0.936 . S
C369 C97 0.865 . S
C384 C186 1.391 . S
C379 C116 1.334 . S
C394 C220 1.274 . S
C389 C135 1.240 . S
C399 C78 0.721 . S
C404 C254 0.717 . S
C409 C21 0.865 . S
C414 C152 0.936 . S
C424 C215 1.391 . S
C419 C40 1.332 . S
C434 C249 1.275 . S
C429 C59 1.241 . S
C439 C2 0.718 . S
C444 C283 0.719 . S
C449 C101 1.349 . S
C454 C165 1.377 . S
C459 C120 1.723 . S
C464 C194 1.757 1_554 S
C474 C228 1.558 1_554 S
C469 C139 1.541 . S
C484 C262 1.654 1_554 S
C479 C82 1.617 . S
C489 C25 1.353 . S
C494 C156 1.380 . S
C504 C203 1.757 . S
C499 C44 1.725 . S
C514 C237 1.557 . S
C509 C63 1.538 . S
C519 C6 1.620 . S
C524 C271 1.654 . S
