# Generated by pormake.
# Topology apo, (3,6)-cn, num edge types: 1
# Building blocks:
#     Node 0, Type 0, BuildingBlock: BELTOD_clean_linker_0, # of connection points: 3
#     Node 1, Type 0, BuildingBlock: BELTOD_clean_linker_0, # of connection points: 3
#     Node 2, Type 0, BuildingBlock: BELTOD_clean_linker_0, # of connection points: 3
#     Node 3, Type 0, BuildingBlock: BELTOD_clean_linker_0, # of connection points: 3
#     Node 4, Type 0, BuildingBlock: BELTOD_clean_linker_0, # of connection points: 3
#     Node 5, Type 0, BuildingBlock: BELTOD_clean_linker_0, # of connection points: 3
#     Node 6, Type 0, BuildingBlock: BELTOD_clean_linker_0, # of connection points: 3
#     Node 7, Type 0, BuildingBlock: BELTOD_clean_linker_0, # of connection points: 3
#     Node 8, Type 1, BuildingBlock: MIDCAF_clean_sbu_0, # of connection points: 6
#     Node 9, Type 1, BuildingBlock: MIDCAF_clean_sbu_0, # of connection points: 6
#     Node 10, Type 1, BuildingBlock: MIDCAF_clean_sbu_0, # of connection points: 6
#     Node 11, Type 1, BuildingBlock: MIDCAF_clean_sbu_0, # of connection points: 6
#     Edge 12, Type (0, 1), BuildingBlock: EZIPEK_clean_linker_0, # of connection points: 2
#     Edge 13, Type (0, 1), BuildingBlock: EZIPEK_clean_linker_0, # of connection points: 2
#     Edge 14, Type (0, 1), BuildingBlock: EZIPEK_clean_linker_0, # of connection points: 2
#     Edge 15, Type (0, 1), BuildingBlock: EZIPEK_clean_linker_0, # of connection points: 2
#     Edge 16, Type (0, 1), BuildingBlock: EZIPEK_clean_linker_0, # of connection points: 2
#     Edge 17, Type (0, 1), BuildingBlock: EZIPEK_clean_linker_0, # of connection points: 2
#     Edge 18, Type (0, 1), BuildingBlock: EZIPEK_clean_linker_0, # of connection points: 2
#     Edge 19, Type (0, 1), BuildingBlock: EZIPEK_clean_linker_0, # of connection points: 2
#     Edge 20, Type (0, 1), BuildingBlock: EZIPEK_clean_linker_0, # of connection points: 2
#     Edge 21, Type (0, 1), BuildingBlock: EZIPEK_clean_linker_0, # of connection points: 2
#     Edge 22, Type (0, 1), BuildingBlock: EZIPEK_clean_linker_0, # of connection points: 2
#     Edge 23, Type (0, 1), BuildingBlock: EZIPEK_clean_linker_0, # of connection points: 2
#     Edge 24, Type (0, 1), BuildingBlock: EZIPEK_clean_linker_0, # of connection points: 2
#     Edge 25, Type (0, 1), BuildingBlock: EZIPEK_clean_linker_0, # of connection points: 2
#     Edge 26, Type (0, 1), BuildingBlock: EZIPEK_clean_linker_0, # of connection points: 2
#     Edge 27, Type (0, 1), BuildingBlock: EZIPEK_clean_linker_0, # of connection points: 2
#     Edge 28, Type (0, 1), BuildingBlock: EZIPEK_clean_linker_0, # of connection points: 2
#     Edge 29, Type (0, 1), BuildingBlock: EZIPEK_clean_linker_0, # of connection points: 2
#     Edge 30, Type (0, 1), BuildingBlock: EZIPEK_clean_linker_0, # of connection points: 2
#     Edge 31, Type (0, 1), BuildingBlock: EZIPEK_clean_linker_0, # of connection points: 2
#     Edge 32, Type (0, 1), BuildingBlock: EZIPEK_clean_linker_0, # of connection points: 2
#     Edge 33, Type (0, 1), BuildingBlock: EZIPEK_clean_linker_0, # of connection points: 2
#     Edge 34, Type (0, 1), BuildingBlock: EZIPEK_clean_linker_0, # of connection points: 2
#     Edge 35, Type (0, 1), BuildingBlock: EZIPEK_clean_linker_0, # of connection points: 2
# Relax obj value: 0.077
# Max RMSD: 0.096
# Mean RMSD: 0.084
data_MOF--net-apo--node1-MIDCAF_clean_sbu_0--node2-BELTOD_clean_linker_0--edge1-EZIPEK_clean_linker_0
_symmetry_space_group_name_H-M    P1
_symmetry_Int_Tables_number       1
_symmetry_cell_setting            triclinic
loop_
_symmetry_equiv_pos_as_xyz
'x, y, z'
_cell_length_a     30.300554
_cell_length_b     35.861027
_cell_length_c     31.569948
_cell_angle_alpha  89.64265
_cell_angle_beta   89.932519
_cell_angle_gamma 90.151893
loop_
_atom_site_label
_atom_site_type_symbol
_atom_site_fract_x
_atom_site_fract_y
_atom_site_fract_z
_atom_type_partial_charge
P0 P 0.39126 0.28053 0.35539 0.0
H1 H 0.46116 0.28714 0.41733 0.0
H2 H 0.4617 0.29421 0.49445 0.0
H3 H 0.31959 0.28779 0.49668 0.0
H4 H 0.31888 0.28225 0.41911 0.0
H5 H 0.33427 0.31123 0.28759 0.0
H6 H 0.26322 0.29044 0.25858 0.0
H7 H 0.26268 0.19728 0.34562 0.0
H8 H 0.33409 0.21743 0.37394 0.0
H9 H 0.44735 0.30157 0.28322 0.0
H10 H 0.3717 0.35711 0.37988 0.0
O11 O 0.42853 0.24845 0.34219 0.0
H12 H 0.47087 0.36252 0.25459 0.0
H13 H 0.39542 0.41776 0.3515 0.0
C14 C 0.39013 0.28349 0.41247 0.0
C15 C 0.43009 0.28705 0.43434 0.0
C16 C 0.43039 0.29109 0.47829 0.0
C17 C 0.39068 0.2916 0.50125 0.0
C18 C 0.35055 0.2875 0.47951 0.0
C19 C 0.35025 0.28409 0.43527 0.0
C20 C 0.33896 0.26627 0.33368 0.0
C21 C 0.31894 0.28639 0.30057 0.0
C22 C 0.2785 0.27453 0.28386 0.0
C23 C 0.25756 0.24266 0.3004 0.0
C24 C 0.2782 0.22215 0.33274 0.0
C25 C 0.31875 0.23371 0.349 0.0
C26 C 0.40859 0.32493 0.33422 0.0
C27 C 0.4361 0.3268 0.29844 0.0
C28 C 0.44946 0.36142 0.28207 0.0
C29 C 0.43529 0.39444 0.30136 0.0
C30 C 0.40702 0.39248 0.33655 0.0
C31 C 0.3936 0.35796 0.35276 0.0
P32 P 0.21796 0.14626 0.91586 0.0
H33 H 0.14364 0.16102 0.85833 0.0
H34 H 0.09037 0.1192 0.82349 0.0
H35 H 0.14728 0.02529 0.8894 0.0
H36 H 0.20036 0.0667 0.92389 0.0
H37 H 0.22808 0.14099 0.82422 0.0
H38 H 0.26603 0.1805 0.77224 0.0
H39 H 0.29407 0.26073 0.86979 0.0
H40 H 0.25468 0.22176 0.9218 0.0
H41 H 0.26059 0.16776 0.99523 0.0
H42 H 0.12908 0.16884 0.94295 0.0
O43 O 0.26106 0.11962 0.92869 0.0
H44 H 0.23 0.17991 0.06596 0.0
H45 H 0.09874 0.18038 0.01346 0.0
C46 C 0.17651 0.1167 0.89287 0.0
C47 C 0.14453 0.13142 0.86527 0.0
C48 C 0.11421 0.10776 0.84552 0.0
C49 C 0.11541 0.06932 0.85376 0.0
C50 C 0.14626 0.05493 0.88257 0.0
C51 C 0.1765 0.0785 0.90215 0.0
C52 C 0.23745 0.17897 0.87673 0.0
C53 C 0.24075 0.16776 0.83425 0.0
C54 C 0.2626 0.19011 0.80454 0.0
C55 C 0.2828 0.22333 0.81733 0.0
C56 C 0.2784 0.23516 0.85945 0.0
C57 C 0.25593 0.21303 0.88906 0.0
C58 C 0.19701 0.16642 0.96403 0.0
C59 C 0.22534 0.17161 0.99869 0.0
C60 C 0.208 0.17868 0.03899 0.0
C61 C 0.16213 0.18048 0.04487 0.0
C62 C 0.13422 0.17888 0.00949 0.0
C63 C 0.15157 0.1721 0.96925 0.0
P64 P 0.88695 0.21279 0.65431 0.0
H65 H 0.95689 0.20632 0.5924 0.0
H66 H 0.95764 0.19998 0.51523 0.0
H67 H 0.8156 0.20678 0.51288 0.0
H68 H 0.81466 0.21154 0.59058 0.0
H69 H 0.83098 0.1851 0.72464 0.0
H70 H 0.76114 0.20778 0.75451 0.0
H71 H 0.76066 0.29806 0.66366 0.0
H72 H 0.83074 0.27595 0.63433 0.0
H73 H 0.95388 0.1883 0.71573 0.0
H74 H 0.85376 0.13798 0.63742 0.0
O75 O 0.92549 0.24384 0.66776 0.0
H76 H 0.97686 0.12612 0.74034 0.0
H77 H 0.87678 0.07589 0.66208 0.0
C78 C 0.88588 0.21017 0.59723 0.0
C79 C 0.92587 0.20663 0.57537 0.0
C80 C 0.92629 0.20298 0.53139 0.0
C81 C 0.88668 0.20284 0.50836 0.0
C82 C 0.8465 0.20678 0.5301 0.0
C83 C 0.84606 0.20977 0.5744 0.0
C84 C 0.83535 0.22827 0.67637 0.0
C85 C 0.81581 0.20964 0.71094 0.0
C86 C 0.77615 0.22263 0.72819 0.0
C87 C 0.75561 0.25427 0.71087 0.0
C88 C 0.77587 0.2734 0.67715 0.0
C89 C 0.81562 0.26067 0.66028 0.0
C90 C 0.90248 0.1676 0.67436 0.0
C91 C 0.9368 0.16396 0.70392 0.0
C92 C 0.9499 0.1286 0.71802 0.0
C93 C 0.92864 0.09661 0.70274 0.0
C94 C 0.8936 0.10035 0.67402 0.0
C95 C 0.88056 0.13565 0.65995 0.0
P96 P 0.71627 0.33866 0.09508 0.0
H97 H 0.69983 0.36146 0.18322 0.0
H98 H 0.65116 0.40841 0.21382 0.0
H99 H 0.59931 0.43309 0.08974 0.0
H100 H 0.6465 0.38522 0.05919 0.0
H101 H 0.79999 0.3006 0.09906 0.0
H102 H 0.83296 0.25909 0.15176 0.0
H103 H 0.71031 0.25641 0.22128 0.0
H104 H 0.67624 0.29638 0.1667 0.0
H105 H 0.75874 0.32906 0.01258 0.0
H106 H 0.63125 0.30728 0.06855 0.0
O107 O 0.75893 0.36673 0.08439 0.0
H108 H 0.72726 0.32045 0.94177 0.0
H109 H 0.59955 0.2996 0.9976 0.0
C110 C 0.67527 0.36816 0.1191 0.0
C111 C 0.67637 0.37535 0.16278 0.0
C112 C 0.64882 0.40237 0.18031 0.0
C113 C 0.62143 0.42383 0.15402 0.0
C114 C 0.61969 0.41629 0.11056 0.0
C115 C 0.64663 0.38885 0.09319 0.0
C116 C 0.73622 0.30256 0.1298 0.0
C117 C 0.77984 0.29061 0.12515 0.0
C118 C 0.79868 0.26708 0.15529 0.0
C119 C 0.77424 0.2552 0.19068 0.0
C120 C 0.72973 0.26552 0.1943 0.0
C121 C 0.71047 0.2884 0.16331 0.0
C122 C 0.69687 0.32008 0.04559 0.0
C123 C 0.72428 0.32144 0.00974 0.0
C124 C 0.70645 0.31635 0.96934 0.0
C125 C 0.66098 0.31019 0.96458 0.0
C126 C 0.63467 0.30464 1.00073 0.0
C127 C 0.65269 0.30914 0.04114 0.0
P128 P 0.69558 0.66211 0.60249 0.0
H129 H 0.74251 0.68042 0.52393 0.0
H130 H 0.71545 0.68765 0.45105 0.0
H131 H 0.58173 0.6911 0.4976 0.0
H132 H 0.60857 0.68463 0.57023 0.0
H133 H 0.69462 0.66053 0.69509 0.0
H134 H 0.73353 0.69852 0.74717 0.0
H135 H 0.77626 0.77311 0.64761 0.0
H136 H 0.73614 0.73576 0.59539 0.0
H137 H 0.68337 0.582 0.59619 0.0
H138 H 0.61488 0.67473 0.65253 0.0
O139 O 0.74055 0.6366 0.59332 0.0
H140 H 0.62876 0.53906 0.62608 0.0
H141 H 0.55947 0.6313 0.6823 0.0
C142 C 0.67744 0.68082 0.55237 0.0
C143 C 0.70748 0.68404 0.51863 0.0
C144 C 0.69215 0.6883 0.47708 0.0
C145 C 0.64661 0.68917 0.46909 0.0
C146 C 0.61698 0.69017 0.50324 0.0
C147 C 0.63235 0.68626 0.54471 0.0
C148 C 0.7115 0.69587 0.64136 0.0
C149 C 0.71039 0.68606 0.68454 0.0
C150 C 0.73281 0.70754 0.71437 0.0
C151 C 0.75778 0.73837 0.70106 0.0
C152 C 0.75689 0.74942 0.65833 0.0
C153 C 0.73394 0.72822 0.6286 0.0
C154 C 0.65372 0.63135 0.62308 0.0
C155 C 0.65665 0.59313 0.61502 0.0
C156 C 0.62546 0.56868 0.63191 0.0
C157 C 0.59061 0.58213 0.65668 0.0
C158 C 0.58647 0.62056 0.6635 0.0
C159 C 0.61799 0.64514 0.64666 0.0
P160 P 0.88015 0.78576 0.15811 0.0
H161 H 0.95892 0.80842 0.20599 0.0
H162 H 0.98663 0.86987 0.22787 0.0
H163 H 0.87121 0.92181 0.17409 0.0
H164 H 0.8435 0.86048 0.1521 0.0
H165 H 0.81704 0.72775 0.13709 0.0
H166 H 0.74634 0.7086 0.16816 0.0
H167 H 0.75974 0.79304 0.26397 0.0
H168 H 0.83049 0.81261 0.2326 0.0
H169 H 0.94744 0.78557 0.09288 0.0
H170 H 0.80584 0.79702 0.09828 0.0
O171 O 0.91695 0.75283 0.17012 0.0
H172 H 0.94539 0.79537 0.01607 0.0
H173 H 0.80368 0.8053 0.02091 0.0
C174 C 0.89915 0.83005 0.17744 0.0
C175 C 0.93936 0.83295 0.19924 0.0
C176 C 0.95517 0.86788 0.21176 0.0
C177 C 0.93086 0.90014 0.20252 0.0
C178 C 0.89025 0.89709 0.18152 0.0
C179 C 0.87453 0.86224 0.16898 0.0
C180 C 0.82828 0.77235 0.18163 0.0
C181 C 0.80467 0.7424 0.16453 0.0
C182 C 0.76453 0.73138 0.18234 0.0
C183 C 0.74773 0.74977 0.21796 0.0
C184 C 0.77206 0.77888 0.23618 0.0
C185 C 0.81222 0.7901 0.21808 0.0
C186 C 0.8768 0.7897 0.10122 0.0
C187 C 0.91585 0.78949 0.07747 0.0
C188 C 0.91468 0.79512 0.0337 0.0
C189 C 0.8744 0.80112 0.01284 0.0
C190 C 0.83507 0.80071 0.03644 0.0
C191 C 0.83635 0.79573 0.08052 0.0
P192 P 0.20082 0.83638 0.41072 0.0
H193 H 0.23959 0.8077 0.48944 0.0
H194 H 0.20785 0.79821 0.56053 0.0
H195 H 0.07794 0.81913 0.51029 0.0
H196 H 0.10892 0.82701 0.43967 0.0
H197 H 0.20768 0.83683 0.31832 0.0
H198 H 0.24766 0.79667 0.26933 0.0
H199 H 0.27967 0.72223 0.37245 0.0
H200 H 0.23829 0.76179 0.42157 0.0
H201 H 0.19184 0.91702 0.41387 0.0
H202 H 0.12425 0.82476 0.35508 0.0
O203 O 0.24572 0.86077 0.4238 0.0
H204 H 0.13889 0.9603 0.38237 0.0
H205 H 0.07052 0.86851 0.32377 0.0
C206 C 0.17683 0.81888 0.45929 0.0
C207 C 0.20415 0.80915 0.49351 0.0
C208 C 0.18615 0.80391 0.53404 0.0
C209 C 0.14073 0.80907 0.54075 0.0
C210 C 0.11316 0.81569 0.50587 0.0
C211 C 0.13101 0.82024 0.46541 0.0
C212 C 0.21893 0.80181 0.37358 0.0
C213 C 0.2214 0.81102 0.33028 0.0
C214 C 0.24448 0.78828 0.30222 0.0
C215 C 0.26666 0.75673 0.31742 0.0
C216 C 0.26252 0.74649 0.36025 0.0
C217 C 0.23885 0.76898 0.38822 0.0
C218 C 0.16248 0.86786 0.386 0.0
C219 C 0.1659 0.9061 0.39388 0.0
C220 C 0.13565 0.93074 0.37608 0.0
C221 C 0.10125 0.91744 0.35061 0.0
C222 C 0.09719 0.87911 0.34312 0.0
C223 C 0.1278 0.85437 0.36078 0.0
P224 P 0.37302 0.70837 0.86027 0.0
H225 H 0.43763 0.68816 0.79476 0.0
H226 H 0.46579 0.62757 0.77057 0.0
H227 H 0.37836 0.57126 0.85795 0.0
H228 H 0.35092 0.63162 0.88278 0.0
H229 H 0.32535 0.77835 0.85537 0.0
H230 H 0.25004 0.79421 0.83312 0.0
H231 H 0.22718 0.67978 0.79821 0.0
H232 H 0.30227 0.66376 0.82037 0.0
H233 H 0.44259 0.69637 0.92141 0.0
H234 H 0.3019 0.71474 0.92483 0.0
O235 O 0.40851 0.74176 0.8458 0.0
H236 H 0.44357 0.69126 0.99882 0.0
H237 H 0.30315 0.71014 1.00262 0.0
C238 C 0.39241 0.66427 0.84075 0.0
C239 C 0.42447 0.66279 0.80866 0.0
C240 C 0.44043 0.62836 0.79476 0.0
C241 C 0.42384 0.59514 0.81235 0.0
C242 C 0.39126 0.59669 0.84389 0.0
C243 C 0.37576 0.63103 0.85809 0.0
C244 C 0.31957 0.71999 0.83927 0.0
C245 C 0.30446 0.7568 0.8422 0.0
C246 C 0.26167 0.76587 0.82947 0.0
C247 C 0.23349 0.73818 0.81372 0.0
C248 C 0.24881 0.7015 0.80986 0.0
C249 C 0.29162 0.69242 0.82271 0.0
C250 C 0.37234 0.70611 0.91734 0.0
C251 C 0.41199 0.69953 0.9388 0.0
C252 C 0.41254 0.6966 0.98288 0.0
C253 C 0.37342 0.7002 0.0063 0.0
C254 C 0.33362 0.7072 0.98499 0.0
C255 C 0.33304 0.70989 0.94065 0.0
Zn256 Zn 0.04053 0.12939 0.345 0.0
Zn257 Zn 0.96177 0.12707 0.1918 0.0
Zn258 Zn -0.00049 0.13206 0.26931 0.0
C259 C 0.04506 0.16029 0.18186 0.0
C260 C 0.9689 0.05522 0.221 0.0
O261 O 0.95551 0.16066 0.31515 0.0
O262 O 0.99116 0.15241 0.37585 0.0
C263 C 0.09307 0.17175 0.28976 0.0
O264 O 0.04548 0.15726 0.22257 0.0
O265 O 0.01222 0.14933 0.16074 0.0
O266 O 0.95386 0.07219 0.18905 0.0
O267 O 0.98688 0.07339 0.25159 0.0
O268 O 0.09081 0.16144 0.32799 0.0
O269 O 0.06282 0.16262 0.26308 0.0
O270 O 0.01104 0.07413 0.28863 0.0
O271 O 0.04871 0.07461 0.34872 0.0
C272 C 0.03119 0.05687 0.31873 0.0
O273 O 0.93642 0.16195 0.27446 0.0
O274 O 0.91102 0.15792 0.20876 0.0
C275 C 0.95822 0.16452 0.35565 0.0
C276 C 0.90686 0.1692 0.24636 0.0
Zn277 Zn 0.54091 0.3692 0.66645 0.0
Zn278 Zn 0.45859 0.36949 0.81873 0.0
Zn279 Zn 0.49854 0.36524 0.74151 0.0
C280 C 0.46342 0.44124 0.78929 0.0
C281 C 0.40937 0.3223 0.76425 0.0
O282 O 0.56273 0.33655 0.74835 0.0
O283 O 0.59196 0.33839 0.68392 0.0
C284 C 0.52725 0.44145 0.69225 0.0
O285 O 0.48326 0.42356 0.7594 0.0
O286 O 0.44736 0.42389 0.8206 0.0
O287 O 0.41119 0.3348 0.80151 0.0
O288 O 0.43849 0.33148 0.73636 0.0
O289 O 0.54675 0.42423 0.663 0.0
O290 O 0.50726 0.4236 0.72212 0.0
O291 O 0.45609 0.33561 0.69524 0.0
O292 O 0.49248 0.34506 0.63508 0.0
C293 C 0.45951 0.33211 0.65476 0.0
O294 O 0.5444 0.34121 0.78839 0.0
O295 O 0.51052 0.34985 0.84985 0.0
C296 C 0.59373 0.32811 0.72217 0.0
C297 C 0.54356 0.33876 0.8291 0.0
Zn298 Zn 0.02591 0.86639 0.84105 0.0
Zn299 Zn 0.94898 0.8713 0.69721 0.0
Zn300 Zn 0.99063 0.86161 0.77037 0.0
C301 C 0.96012 0.94122 0.72556 0.0
C302 C 0.89656 0.82584 0.74908 0.0
O303 O 0.04824 0.82229 0.7654 0.0
O304 O 0.06345 0.82246 0.83352 0.0
C305 C 0.03629 0.935 0.81348 0.0
O306 O 0.98195 0.92169 0.75288 0.0
O307 O 0.93848 0.92556 0.6966 0.0
O308 O 0.89977 0.83753 0.71144 0.0
O309 O 0.92622 0.83374 0.77678 0.0
O310 O 0.05352 0.91594 0.84267 0.0
O311 O 0.0105 0.91956 0.78626 0.0
O312 O 0.94347 0.83757 0.81773 0.0
O313 O 0.97366 0.85841 0.87678 0.0
C314 C 0.9425 0.84189 0.85826 0.0
O315 O 0.0332 0.83417 0.72365 0.0
O316 O -0.00032 0.85221 0.66446 0.0
C317 C 0.06882 0.80812 0.79749 0.0
C318 C 0.03164 0.83652 0.68286 0.0
Zn319 Zn 0.5366 0.63995 0.16637 0.0
Zn320 Zn 0.45704 0.61728 0.31544 0.0
Zn321 Zn 0.49636 0.63053 0.24012 0.0
C322 C 0.53806 0.6531 0.33025 0.0
C323 C 0.4678 0.54873 0.27811 0.0
O324 O 0.44929 0.65884 0.19635 0.0
O325 O 0.48487 0.658 0.13498 0.0
C326 C 0.58441 0.68026 0.22517 0.0
O327 O 0.53853 0.65516 0.28952 0.0
O328 O 0.50722 0.63634 0.34947 0.0
O329 O 0.44897 0.56272 0.3099 0.0
O330 O 0.48768 0.56966 0.25073 0.0
O331 O 0.5811 0.67642 0.18562 0.0
O332 O 0.55676 0.66421 0.25045 0.0
O333 O 0.51586 0.57548 0.21693 0.0
O334 O 0.55602 0.58763 0.15982 0.0
C335 C 0.54076 0.56455 0.18641 0.0
O336 O 0.43221 0.65884 0.23759 0.0
O337 O 0.40692 0.65077 0.303 0.0
C338 C 0.45072 0.66537 0.15616 0.0
C339 C 0.40306 0.66482 0.26645 0.0
C340 C 0.08116 0.9631 0.29456 0.0
C341 C 0.06982 0.94476 0.33281 0.0
C342 C 0.01727 0.99406 0.3495 0.0
C343 C 0.03672 0.01613 0.31719 0.0
N344 N 0.08485 0.02186 0.25643 0.0
N345 N 0.02362 0.93917 0.39448 0.0
C346 C 0.06702 0.00038 0.28806 0.0
C347 C 0.03589 0.95875 0.35911 0.0
N348 N 0.10651 0.94509 0.26537 0.0
N349 N 0.98147 0.00728 0.37097 0.0
H350 H 0.0356 0.91248 0.401 0.0
H351 H 0.00283 0.9496 0.41782 0.0
H352 H 0.9674 0.03313 0.36391 0.0
H353 H 0.96349 0.99158 0.39284 0.0
H354 H 0.11305 0.95558 0.23519 0.0
H355 H 0.11753 0.91784 0.27011 0.0
H356 H 0.11083 0.01332 0.23725 0.0
H357 H 0.0751 0.04923 0.25044 0.0
C358 C 0.42349 0.5394 0.76466 0.0
C359 C 0.44179 0.55834 0.79985 0.0
C360 C 0.48484 0.50294 0.81869 0.0
C361 C 0.46072 0.48237 0.78831 0.0
N362 N 0.40836 0.47997 0.73101 0.0
N363 N 0.49134 0.55982 0.85946 0.0
C364 C 0.43106 0.50045 0.76022 0.0
C365 C 0.47346 0.54072 0.82625 0.0
N366 N 0.39866 0.55869 0.73585 0.0
N367 N 0.51903 0.48631 0.83976 0.0
H368 H 0.48558 0.58812 0.86448 0.0
H369 H 0.51034 0.54746 0.8831 0.0
H370 H 0.52816 0.45866 0.8346 0.0
H371 H 0.5408 0.50053 0.8594 0.0
H372 H 0.38785 0.5476 0.70729 0.0
H373 H 0.39165 0.58699 0.73895 0.0
H374 H 0.38263 0.49043 0.71271 0.0
H375 H 0.41383 0.45159 0.72631 0.0
C376 C 0.57199 0.53757 0.71433 0.0
C377 C 0.5598 0.55471 0.67565 0.0
C378 C 0.5096 0.50313 0.66052 0.0
C379 C 0.53028 0.48241 0.69315 0.0
N380 N 0.57884 0.47964 0.75365 0.0
N381 N 0.51315 0.55744 0.61425 0.0
C382 C 0.5598 0.49987 0.72172 0.0
C383 C 0.52645 0.53897 0.64996 0.0
N384 N 0.59639 0.55711 0.74301 0.0
N385 N 0.47445 0.48808 0.63957 0.0
H386 H 0.52391 0.58444 0.60712 0.0
H387 H 0.49268 0.54587 0.59135 0.0
H388 H 0.46171 0.46183 0.64738 0.0
H389 H 0.45571 0.5026 0.61737 0.0
H390 H 0.60341 0.54742 0.7734 0.0
H391 H 0.606 0.5847 0.7376 0.0
H392 H 0.60444 0.48956 0.77245 0.0
H393 H 0.57042 0.45202 0.76027 0.0
C394 C 0.97714 0.95587 0.18358 0.0
C395 C 0.94847 0.93764 0.21266 0.0
C396 C 0.93896 0.99563 0.25215 0.0
C397 C 0.96662 0.01406 0.22231 0.0
N398 N 0.02222 0.01027 0.168 0.0
N399 N 0.91202 0.93666 0.2804 0.0
C400 C 0.98905 0.99362 0.19069 0.0
C401 C 0.93278 0.95642 0.24902 0.0
N402 N 0.99131 0.93765 0.14819 0.0
N403 N 0.91657 0.0158 0.2818 0.0
H404 H 0.90677 0.90794 0.2786 0.0
H405 H 0.90368 0.94793 0.30964 0.0
H406 H 0.92037 0.04452 0.2853 0.0
H407 H 0.89214 0.00457 0.3013 0.0
H408 H 0.00779 0.9508 0.12327 0.0
H409 H 0.98431 0.90964 0.14247 0.0
H410 H 0.04281 0.99591 0.14737 0.0
H411 H 0.032 0.03783 0.173 0.0
C412 C 0.91903 0.039 0.74711 0.0
C413 C 0.94332 0.05878 0.71577 0.0
C414 C 0.98847 0.0034 0.70261 0.0
C415 C 0.95919 0.98228 0.72821 0.0
N416 N 0.89772 0.97878 0.77644 0.0
N417 N 0.00141 0.06083 0.6635 0.0
C418 C 0.92518 -0.00014 0.75153 0.0
C419 C 0.97872 0.04145 0.69398 0.0
N420 N 0.8903 0.05782 0.77259 0.0
N421 N 0.02548 0.98689 0.68663 0.0
H422 H 0.99587 0.08898 0.65699 0.0
H423 H 0.02405 0.04867 0.64301 0.0
H424 H 0.03299 0.95891 0.69229 0.0
H425 H 0.05055 0.00144 0.67112 0.0
H426 H 0.87438 0.04588 0.79858 0.0
H427 H 0.88509 0.08649 0.76979 0.0
H428 H 0.86908 0.9889 0.79043 0.0
H429 H 0.90272 0.95035 0.78182 0.0
C430 C 0.62591 0.48948 0.18016 0.0
C431 C 0.59972 0.45783 0.17029 0.0
C432 C 0.53245 0.49522 0.17658 0.0
C433 C 0.55893 0.52651 0.18671 0.0
N434 N 0.62824 0.55041 0.21243 0.0
N435 N 0.52846 0.42787 0.16975 0.0
C436 C 0.60485 0.52255 0.19331 0.0
C437 C 0.55296 0.45981 0.17208 0.0
N438 N 0.67065 0.48895 0.17435 0.0
N439 N 0.48834 0.49968 0.16933 0.0
H440 H 0.54285 0.40163 0.16651 0.0
H441 H 0.49451 0.42705 0.17492 0.0
H442 H 0.47242 0.52522 0.17294 0.0
H443 H 0.46808 0.47865 0.15761 0.0
H444 H 0.69035 0.51272 0.1765 0.0
H445 H 0.68784 0.46573 0.1636 0.0
H446 H 0.66105 0.54752 0.22171 0.0
H447 H 0.61351 0.5749 0.22312 0.0
C448 C 0.49041 0.44692 0.2968 0.0
C449 C 0.44905 0.43154 0.28487 0.0
C450 C 0.42494 0.49221 0.25766 0.0
C451 C 0.465 0.508 0.27226 0.0
N452 N 0.54042 0.50004 0.29395 0.0
N453 N 0.3825 0.43602 0.2437 0.0
C454 C 0.49943 0.48508 0.28768 0.0
C455 C 0.41815 0.45313 0.26171 0.0
N456 N 0.51984 0.42565 0.31904 0.0
N457 N 0.39292 0.51492 0.24133 0.0
H458 H 0.37702 0.40735 0.2462 0.0
H459 H 0.3605 0.4494 0.22344 0.0
H460 H 0.39808 0.54331 0.2357 0.0
H461 H 0.36093 0.50611 0.23471 0.0
H462 H 0.5483 0.43626 0.33298 0.0
H463 H 0.51468 0.39742 0.32552 0.0
H464 H 0.56817 0.48425 0.30132 0.0
H465 H 0.5475 0.52808 0.288 0.0
C466 C 0.04484 0.03312 0.85074 0.0
C467 C 0.08569 0.04301 0.83183 0.0
C468 C 0.0843 0.98696 0.78827 0.0
C469 C 0.04648 0.97505 0.81096 0.0
N470 N 0.98255 0.99018 0.85231 0.0
N471 N 0.13708 0.03674 0.77428 0.0
C472 C 0.02376 -0.00043 0.83816 0.0
C473 C 0.10274 0.02246 0.79735 0.0
N474 N 0.02794 0.0546 0.88243 0.0
N475 N 0.10378 0.96337 0.76006 0.0
H476 H 0.15094 0.06276 0.78078 0.0
H477 H 0.14944 0.02455 0.74692 0.0
H478 H 0.0897 0.93783 0.7518 0.0
H479 H 0.13413 0.9684 0.74566 0.0
H480 H 0.00093 0.04691 0.90093 0.0
H481 H 0.0421 0.07997 0.89113 0.0
H482 H 0.96249 0.00794 0.86971 0.0
H483 H 0.96694 0.96549 0.84326 0.0
C484 C 0.12302 0.2097 0.10659 0.0
C485 C 0.14242 0.17779 0.08794 0.0
C486 C 0.11152 0.13825 0.14428 0.0
C487 C 0.08583 0.16882 0.15798 0.0
N488 N 0.06848 0.23402 0.15598 0.0
N489 N 0.15569 0.11137 0.08835 0.0
C490 C 0.09261 0.2049 0.14074 0.0
C491 C 0.13778 0.14207 0.10724 0.0
N492 N 0.13357 0.2443 0.09125 0.0
N493 N 0.10961 0.10524 0.16615 0.0
H494 H 0.17565 0.11279 0.06149 0.0
H495 H 0.14881 0.08407 0.09764 0.0
H496 H 0.08939 0.1013 0.19258 0.0
H497 H 0.13068 0.0829 0.16066 0.0
H498 H 0.12312 0.26907 0.10493 0.0
H499 H 0.15578 0.24819 0.0663 0.0
H500 H 0.06799 0.26048 0.1423 0.0
H501 H 0.04777 0.23115 0.18227 0.0
C502 C 0.3819 0.33209 0.56593 0.0
C503 C 0.39246 0.29695 0.548 0.0
C504 C 0.43124 0.27873 0.61292 0.0
C505 C 0.42449 0.31505 0.62878 0.0
N506 N 0.38134 0.37084 0.62899 0.0
N507 N 0.41354 0.233 0.55896 0.0
C508 C 0.39498 0.33961 0.60829 0.0
C509 C 0.41225 0.26881 0.57336 0.0
N510 N 0.36275 0.3592 0.5416 0.0
N511 N 0.45833 0.25487 0.63441 0.0
H512 H 0.39957 0.22537 0.53005 0.0
H513 H 0.42474 0.21056 0.577 0.0
H514 H 0.47139 0.26154 0.664 0.0
H515 H 0.46899 0.22943 0.6225 0.0
H516 H 0.35897 0.38667 0.55143 0.0
H517 H 0.35272 0.35487 0.51047 0.0
H518 H 0.35728 0.38885 0.61732 0.0
H519 H 0.39132 0.3765 0.65996 0.0
C520 C 0.62163 0.28542 0.90038 0.0
C521 C 0.63941 0.31615 0.92286 0.0
C522 C 0.60806 0.35921 0.87049 0.0
C523 C 0.58369 0.32931 0.85322 0.0
N524 N 0.56818 0.26382 0.84836 0.0
N525 N 0.64752 0.3829 0.93111 0.0
C526 C 0.59132 0.29218 0.8667 0.0
C527 C 0.6329 0.35322 0.90791 0.0
N528 N 0.63377 0.25002 0.91148 0.0
N529 N 0.60656 0.39351 0.85141 0.0
H530 H 0.66538 0.38016 0.95914 0.0
H531 H 0.63903 0.41043 0.92446 0.0
H532 H 0.58799 0.39866 0.82417 0.0
H533 H 0.62689 0.41569 0.85991 0.0
H534 H 0.62477 0.22639 0.89456 0.0
H535 H 0.65587 0.24459 0.93608 0.0
H536 H 0.5683 0.23644 0.85945 0.0
H537 H 0.54754 0.2682 0.82235 0.0
C538 C 0.90937 0.2268 0.43706 0.0
C539 C 0.88874 0.19836 0.46148 0.0
C540 C 0.89218 0.15668 0.40035 0.0
C541 C 0.9226 0.18136 0.38104 0.0
N542 N 0.95774 0.24134 0.37775 0.0
N543 N 0.85799 0.13623 0.46596 0.0
C544 C 0.92944 0.21738 0.39784 0.0
C545 C 0.87813 0.16359 0.4426 0.0
N546 N 0.91055 0.2624 0.45212 0.0
N547 N 0.8786 0.12588 0.37871 0.0
H548 H 0.84718 0.14018 0.49693 0.0
H549 H 0.85406 0.10895 0.45549 0.0
H550 H 0.88927 0.12068 0.34783 0.0
H551 H 0.854 0.10785 0.3895 0.0
H552 H 0.92235 0.28506 0.43467 0.0
H553 H 0.89584 0.26965 0.48083 0.0
H554 H 0.9684 0.26646 0.39059 0.0
H555 H 0.97196 0.235 0.34854 0.0
C556 C 0.8693 0.84549 0.95061 0.0
C557 C 0.87487 0.80859 0.96637 0.0
C558 C 0.90819 0.78965 0.89913 0.0
C559 C 0.90651 0.82722 0.88526 0.0
N560 N 0.87211 0.88706 0.88941 0.0
N561 N 0.88501 0.74351 0.95139 0.0
C562 C 0.88178 0.85365 0.90813 0.0
C563 C 0.88903 0.77987 0.93885 0.0
N564 N 0.85565 0.87324 0.97698 0.0
N565 N 0.93118 0.76417 0.876 0.0
H566 H 0.87095 0.73601 0.98044 0.0
H567 H 0.89168 0.72102 0.93171 0.0
H568 H 0.94473 0.77068 0.84649 0.0
H569 H 0.93835 0.73734 0.88668 0.0
H570 H 0.85595 0.90136 0.96857 0.0
H571 H 0.84628 0.86851 0.00831 0.0
H572 H 0.85144 0.90687 0.90291 0.0
H573 H 0.88165 0.89306 0.85827 0.0
C574 C 0.6091 0.71163 0.40271 0.0
C575 C 0.6291 0.6822 0.42593 0.0
C576 C 0.60342 0.63725 0.37329 0.0
C577 C 0.57642 0.66528 0.35542 0.0
N578 N 0.55537 0.72958 0.34903 0.0
N579 N 0.64505 0.61647 0.43421 0.0
C580 C 0.58046 0.70286 0.36835 0.0
C581 C 0.62713 0.64493 0.41091 0.0
N582 N 0.61739 0.7477 0.41396 0.0
N583 N 0.6057 0.6031 0.35438 0.0
H584 H 0.66295 0.62058 0.46196 0.0
H585 H 0.63976 0.5884 0.42768 0.0
H586 H 0.5881 0.59677 0.32692 0.0
H587 H 0.62804 0.58249 0.36328 0.0
H588 H 0.60653 0.77076 0.39679 0.0
H589 H 0.63829 0.75448 0.43904 0.0
H590 H 0.55295 0.75694 0.35951 0.0
H591 H 0.53571 0.72384 0.32271 0.0
C592 C 0.36693 0.66137 0.07269 0.0
C593 C 0.37558 0.69642 0.05319 0.0
C594 C 0.41614 0.717 0.11581 0.0
C595 C 0.4127 0.68041 0.13246 0.0
N596 N 0.37311 0.62263 0.1361 0.0
N597 N 0.39475 0.76108 0.06067 0.0
C598 C 0.38337 0.65444 0.1142 0.0
C599 C 0.39521 0.72562 0.07668 0.0
N600 N 0.34601 0.63403 0.05037 0.0
N601 N 0.44209 0.7424 0.13614 0.0
H602 H 0.37944 0.76757 0.03195 0.0
H603 H 0.40611 0.78427 0.07707 0.0
H604 H 0.45643 0.73652 0.16549 0.0
H605 H 0.45029 0.76849 0.12383 0.0
H606 H 0.34301 0.60657 0.06083 0.0
H607 H 0.33283 0.63861 0.02029 0.0
H608 H 0.34975 0.60327 0.12613 0.0
H609 H 0.38548 0.61754 0.16645 0.0
C610 C 0.12957 0.84168 0.61057 0.0
C611 C 0.12145 0.81041 0.58411 0.0
C612 C 0.06007 0.79099 0.6298 0.0
C613 C 0.06757 0.82268 0.65547 0.0
N614 N 0.11636 0.87163 0.67817 0.0
N615 N 0.08799 0.7501 0.57495 0.0
C616 C 0.10502 0.84558 0.64868 0.0
C617 C 0.08966 0.78323 0.59603 0.0
N618 N 0.15801 0.8692 0.59777 0.0
N619 N 0.02393 0.769 0.63714 0.0
H620 H 0.10976 0.74376 0.55039 0.0
H621 H 0.06806 0.7278 0.58417 0.0
H622 H 0.00324 0.77275 0.66323 0.0
H623 H 0.01349 0.74811 0.61666 0.0
H624 H 0.16111 0.89464 0.61322 0.0
H625 H 0.17623 0.86807 0.56982 0.0
H626 H 0.14567 0.88683 0.67701 0.0
H627 H 0.09845 0.87544 0.70603 0.0
C628 C 0.21071 0.19635 0.26214 0.0
C629 C 0.21368 0.23025 0.28486 0.0
C630 C 0.13313 0.23192 0.29075 0.0
C631 C 0.13152 0.19452 0.277 0.0
N632 N 0.16766 0.14059 0.24838 0.0
N633 N 0.17783 0.28118 0.32079 0.0
C634 C 0.16985 0.17683 0.2613 0.0
C635 C 0.17481 0.24885 0.29827 0.0
N636 N 0.24719 0.18279 0.24204 0.0
N637 N 0.09463 0.25073 0.29742 0.0
H638 H 0.2077 0.29458 0.32686 0.0
H639 H 0.15102 0.29362 0.3357 0.0
H640 H 0.06383 0.23851 0.292 0.0
H641 H 0.09322 0.27909 0.30418 0.0
H642 H 0.24649 0.15981 0.22206 0.0
H643 H 0.27743 0.19681 0.24231 0.0
H644 H 0.19524 0.12464 0.24102 0.0
H645 H 0.138 0.12583 0.24722 0.0
C646 C 0.35647 0.23187 0.78224 0.0
C647 C 0.31237 0.24421 0.7882 0.0
C648 C 0.33071 0.30486 0.75699 0.0
C649 C 0.37546 0.29388 0.75582 0.0
N650 N 0.42894 0.24481 0.75244 0.0
N651 N 0.25436 0.28715 0.77041 0.0
C652 C 0.38739 0.25632 0.76274 0.0
C653 C 0.29836 0.27897 0.77148 0.0
N654 N 0.3696 0.19817 0.79828 0.0
N655 N 0.32009 0.34074 0.74654 0.0
H656 H 0.23035 0.2683 0.78092 0.0
H657 H 0.24142 0.31105 0.75638 0.0
H658 H 0.34353 0.35923 0.73411 0.0
H659 H 0.28896 0.35231 0.75077 0.0
H660 H 0.40236 0.18959 0.79951 0.0
H661 H 0.348 0.1793 0.81267 0.0
H662 H 0.43896 0.21707 0.75339 0.0
H663 H 0.45223 0.26285 0.7391 0.0
C664 C 0.71061 0.30175 0.7493 0.0
C665 C 0.71234 0.26764 0.72683 0.0
C666 C 0.63174 0.26723 0.72173 0.0
C667 C 0.63137 0.30472 0.7352 0.0
N668 N 0.66854 0.35761 0.7651 0.0
N669 N 0.67472 0.2168 0.6922 0.0
C670 C 0.67014 0.32172 0.75095 0.0
C671 C 0.67282 0.24951 0.71413 0.0
N672 N 0.74785 0.31498 0.76845 0.0
N673 N 0.5926 0.24908 0.71551 0.0
H674 H 0.70413 0.20276 0.68626 0.0
H675 H 0.64747 0.20459 0.67775 0.0
H676 H 0.56223 0.26188 0.72107 0.0
H677 H 0.59022 0.22072 0.70898 0.0
H678 H 0.7483 0.33821 0.78805 0.0
H679 H 0.77774 0.3006 0.7676 0.0
H680 H 0.69632 0.37331 0.7727 0.0
H681 H 0.63894 0.37223 0.76767 0.0
C682 C 0.8324 0.25142 0.2459 0.0
C683 C 0.79739 0.2336 0.22413 0.0
C684 C 0.82606 0.17312 0.24645 0.0
C685 C 0.86664 0.19059 0.2561 0.0
N686 N 0.90788 0.24636 0.27085 0.0
N687 N 0.75751 0.17733 0.20728 0.0
C688 C 0.86919 0.22985 0.25912 0.0
C689 C 0.79233 0.19436 0.22669 0.0
N690 N 0.83086 0.28904 0.25207 0.0
N691 N 0.82128 0.13587 0.25433 0.0
H692 H 0.73199 0.19219 0.19297 0.0
H693 H 0.75481 0.14857 0.20383 0.0
H694 H 0.84647 0.12035 0.2685 0.0
H695 H 0.79163 0.12151 0.25063 0.0
H696 H 0.85385 0.30359 0.27008 0.0
H697 H 0.80393 0.30499 0.2422 0.0
H698 H 0.91365 0.27496 0.26897 0.0
H699 H 0.93497 0.23095 0.28114 0.0
C700 C 0.78074 0.79209 0.74613 0.0
C701 C 0.78994 0.75621 0.7299 0.0
C702 C 0.86699 0.76199 0.75209 0.0
C703 C 0.85974 0.80037 0.7587 0.0
N704 N 0.81061 0.85161 0.76962 0.0
N705 N 0.84055 0.70504 0.71986 0.0
C706 C 0.81651 0.81507 0.75912 0.0
C707 C 0.83244 0.74007 0.73485 0.0
N708 N 0.73804 0.80409 0.74799 0.0
N709 N 0.9076 0.74725 0.76044 0.0
H710 H 0.81601 0.68786 0.70751 0.0
H711 H 0.87189 0.69342 0.71776 0.0
H712 H 0.93363 0.76346 0.77173 0.0
H713 H 0.91451 0.71885 0.75972 0.0
H714 H 0.72839 0.8292 0.76141 0.0
H715 H 0.71165 0.78731 0.73858 0.0
H716 H 0.78082 0.86575 0.76679 0.0
H717 H 0.83659 0.86798 0.78091 0.0
C718 C 0.70096 0.70332 0.25653 0.0
C719 C 0.70419 0.73803 0.23507 0.0
C720 C 0.62377 0.74054 0.22945 0.0
C721 C 0.6219 0.70247 0.24111 0.0
N722 N 0.6573 0.64748 0.26888 0.0
N723 N 0.66902 0.79151 0.20315 0.0
C724 C 0.65989 0.68407 0.25684 0.0
C725 C 0.66557 0.75772 0.22313 0.0
N726 N 0.73747 0.68868 0.27566 0.0
N727 N 0.58534 0.7597 0.22359 0.0
H728 H 0.69908 0.80521 0.19874 0.0
H729 H 0.64246 0.8052 0.18918 0.0
H730 H 0.55455 0.74717 0.22836 0.0
H731 H 0.58395 0.78833 0.2181 0.0
H732 H 0.7368 0.66489 0.29472 0.0
H733 H 0.76784 0.70252 0.27553 0.0
H734 H 0.68466 0.63109 0.27589 0.0
H735 H 0.62752 0.63294 0.27012 0.0
C736 C 0.34162 0.7518 0.28412 0.0
C737 C 0.29861 0.73673 0.29022 0.0
C738 C 0.32258 0.67679 0.26181 0.0
C739 C 0.36619 0.69089 0.25968 0.0
N740 N 0.41497 0.74362 0.25458 0.0
N741 N 0.24481 0.68945 0.27434 0.0
C742 C 0.37469 0.72926 0.26544 0.0
C743 C 0.28792 0.70068 0.27517 0.0
N744 N 0.35176 0.78646 0.2992 0.0
N745 N 0.31517 0.64004 0.25308 0.0
H746 H 0.21909 0.70674 0.28402 0.0
H747 H 0.23414 0.66447 0.26121 0.0
H748 H 0.34003 0.62286 0.24122 0.0
H749 H 0.28527 0.62644 0.25831 0.0
H750 H 0.38373 0.79709 0.30043 0.0
H751 H 0.3286 0.80403 0.31304 0.0
H752 H 0.42219 0.77201 0.25442 0.0
H753 H 0.44 0.72726 0.24182 0.0
C754 C 0.1728 0.75946 0.76497 0.0
C755 C 0.18654 0.74704 0.80562 0.0
C756 C 0.11207 0.75741 0.833 0.0
C757 C 0.10174 0.77696 0.79515 0.0
N758 N 0.10981 0.77212 0.72031 0.0
N759 N 0.16878 0.73086 0.87804 0.0
C760 C 0.12848 0.77125 0.7593 0.0
C761 C 0.1557 0.74422 0.83939 0.0
N762 N 0.2022 0.76097 0.7322 0.0
N763 N 0.07927 0.75023 0.86167 0.0
H764 H 0.20012 0.71989 0.88354 0.0
H765 H 0.14944 0.7323 0.90524 0.0
H766 H 0.0465 0.75751 0.85564 0.0
H767 H 0.08329 0.73369 0.88859 0.0
H768 H 0.19497 0.77363 0.70322 0.0
H769 H 0.23457 0.75141 0.73493 0.0
H770 H 0.12677 0.76539 0.69268 0.0
H771 H 0.07558 0.77279 0.71745 0.0
loop_
_geom_bond_atom_site_label_1
_geom_bond_atom_site_label_2
_geom_bond_distance
_geom_bond_site_symmetry_2
_ccdc_geom_bond_type
P0 O11 1.490 . S
P0 C14 1.812 . S
P0 C20 1.803 . S
P0 C26 1.819 . S
H1 C15 0.941 . S
H2 C16 0.939 . S
H3 C18 0.940 . S
H4 C19 0.940 . S
H5 C21 0.939 . S
H6 C22 0.942 . S
H7 C24 0.940 . S
H8 C25 0.939 . S
H9 C27 0.941 . S
H10 C31 0.939 . S
O11 P0 1.490 . S
H12 C28 0.939 . S
H13 C30 0.940 . S
C14 P0 1.812 . S
C14 C15 1.389 . S
C14 C19 1.391 . S
C15 H1 0.941 . S
C15 C14 1.389 . S
C15 C16 1.397 . S
C16 H2 0.939 . S
C16 C15 1.397 . S
C16 C17 1.378 . S
C17 C16 1.378 . S
C17 C18 1.378 . S
C18 H3 0.940 . S
C18 C17 1.378 . S
C18 C19 1.396 . S
C19 H4 0.940 . S
C19 C14 1.391 . S
C19 C18 1.396 . S
C20 P0 1.803 . S
C20 C21 1.378 . S
C20 C25 1.400 . S
C21 H5 0.939 . S
C21 C20 1.378 . S
C21 C22 1.361 . S
C22 H6 0.942 . S
C22 C21 1.361 . S
C22 C23 1.369 . S
C23 C22 1.369 . S
C23 C24 1.404 . S
C24 H7 0.940 . S
C24 C23 1.404 . S
C24 C25 1.389 . S
C25 H8 0.939 . S
C25 C20 1.400 . S
C25 C24 1.389 . S
C26 P0 1.819 . S
C26 C27 1.391 . S
C26 C31 1.391 . S
C27 H9 0.941 . S
C27 C26 1.391 . S
C27 C28 1.396 . S
C28 H12 0.939 . S
C28 C27 1.396 . S
C28 C29 1.397 . S
C29 C28 1.397 . S
C29 C30 1.385 . S
C30 H13 0.940 . S
C30 C29 1.385 . S
C30 C31 1.388 . S
C31 H10 0.939 . S
C31 C26 1.391 . S
C31 C30 1.388 . S
P32 O43 1.490 . S
P32 C46 1.812 . S
P32 C52 1.803 . S
P32 C58 1.819 . S
H33 C47 0.941 . S
H34 C48 0.939 . S
H35 C50 0.940 . S
H36 C51 0.940 . S
H37 C53 0.939 . S
H38 C54 0.942 . S
H39 C56 0.940 . S
H40 C57 0.939 . S
H41 C59 0.941 . S
H42 C63 0.939 . S
O43 P32 1.490 . S
H44 C60 0.939 . S
H45 C62 0.940 . S
C46 P32 1.812 . S
C46 C47 1.389 . S
C46 C51 1.391 . S
C47 H33 0.941 . S
C47 C46 1.389 . S
C47 C48 1.397 . S
C48 H34 0.939 . S
C48 C47 1.397 . S
C48 C49 1.378 . S
C49 C48 1.378 . S
C49 C50 1.378 . S
C50 H35 0.940 . S
C50 C49 1.378 . S
C50 C51 1.396 . S
C51 H36 0.940 . S
C51 C46 1.391 . S
C51 C50 1.396 . S
C52 P32 1.803 . S
C52 C53 1.378 . S
C52 C57 1.400 . S
C53 H37 0.939 . S
C53 C52 1.378 . S
C53 C54 1.361 . S
C54 H38 0.942 . S
C54 C53 1.361 . S
C54 C55 1.369 . S
C55 C54 1.369 . S
C55 C56 1.404 . S
C56 H39 0.940 . S
C56 C55 1.404 . S
C56 C57 1.389 . S
C57 H40 0.939 . S
C57 C52 1.400 . S
C57 C56 1.389 . S
C58 P32 1.819 . S
C58 C59 1.391 . S
C58 C63 1.391 . S
C59 H41 0.941 . S
C59 C58 1.391 . S
C59 C60 1.396 1_556 S
C60 H44 0.939 . S
C60 C59 1.396 1_554 S
C60 C61 1.397 . S
C61 C60 1.397 . S
C61 C62 1.385 1_554 S
C62 H45 0.940 . S
C62 C61 1.385 1_556 S
C62 C63 1.388 . S
C63 H42 0.939 . S
C63 C58 1.391 . S
C63 C62 1.388 . S
P64 O75 1.490 . S
P64 C78 1.812 . S
P64 C84 1.803 . S
P64 C90 1.819 . S
H65 C79 0.941 . S
H66 C80 0.939 . S
H67 C82 0.940 . S
H68 C83 0.940 . S
H69 C85 0.939 . S
H70 C86 0.942 . S
H71 C88 0.940 . S
H72 C89 0.939 . S
H73 C91 0.941 . S
H74 C95 0.939 . S
O75 P64 1.490 . S
H76 C92 0.939 . S
H77 C94 0.940 . S
C78 P64 1.812 . S
C78 C79 1.389 . S
C78 C83 1.391 . S
C79 H65 0.941 . S
C79 C78 1.389 . S
C79 C80 1.397 . S
C80 H66 0.939 . S
C80 C79 1.397 . S
C80 C81 1.378 . S
C81 C80 1.378 . S
C81 C82 1.378 . S
C82 H67 0.940 . S
C82 C81 1.378 . S
C82 C83 1.396 . S
C83 H68 0.940 . S
C83 C78 1.391 . S
C83 C82 1.396 . S
C84 P64 1.803 . S
C84 C85 1.378 . S
C84 C89 1.400 . S
C85 H69 0.939 . S
C85 C84 1.378 . S
C85 C86 1.361 . S
C86 H70 0.942 . S
C86 C85 1.361 . S
C86 C87 1.369 . S
C87 C86 1.369 . S
C87 C88 1.404 . S
C88 H71 0.940 . S
C88 C87 1.404 . S
C88 C89 1.389 . S
C89 H72 0.939 . S
C89 C84 1.400 . S
C89 C88 1.389 . S
C90 P64 1.819 . S
C90 C91 1.391 . S
C90 C95 1.391 . S
C91 H73 0.941 . S
C91 C90 1.391 . S
C91 C92 1.396 . S
C92 H76 0.939 . S
C92 C91 1.396 . S
C92 C93 1.397 . S
C93 C92 1.397 . S
C93 C94 1.385 . S
C94 H77 0.940 . S
C94 C93 1.385 . S
C94 C95 1.388 . S
C95 H74 0.939 . S
C95 C90 1.391 . S
C95 C94 1.388 . S
P96 O107 1.490 . S
P96 C110 1.812 . S
P96 C116 1.803 . S
P96 C122 1.819 . S
H97 C111 0.941 . S
H98 C112 0.939 . S
H99 C114 0.940 . S
H100 C115 0.940 . S
H101 C117 0.939 . S
H102 C118 0.942 . S
H103 C120 0.940 . S
H104 C121 0.939 . S
H105 C123 0.941 . S
H106 C127 0.939 . S
O107 P96 1.490 . S
H108 C124 0.939 . S
H109 C126 0.940 . S
C110 P96 1.812 . S
C110 C111 1.389 . S
C110 C115 1.391 . S
C111 H97 0.941 . S
C111 C110 1.389 . S
C111 C112 1.397 . S
C112 H98 0.939 . S
C112 C111 1.397 . S
C112 C113 1.378 . S
C113 C112 1.378 . S
C113 C114 1.378 . S
C114 H99 0.940 . S
C114 C113 1.378 . S
C114 C115 1.396 . S
C115 H100 0.940 . S
C115 C110 1.391 . S
C115 C114 1.396 . S
C116 P96 1.803 . S
C116 C117 1.378 . S
C116 C121 1.400 . S
C117 H101 0.939 . S
C117 C116 1.378 . S
C117 C118 1.361 . S
C118 H102 0.942 . S
C118 C117 1.361 . S
C118 C119 1.369 . S
C119 C118 1.369 . S
C119 C120 1.404 . S
C120 H103 0.940 . S
C120 C119 1.404 . S
C120 C121 1.389 . S
C121 H104 0.939 . S
C121 C116 1.400 . S
C121 C120 1.389 . S
C122 P96 1.819 . S
C122 C123 1.391 . S
C122 C127 1.391 . S
C123 H105 0.941 . S
C123 C122 1.391 . S
C123 C124 1.396 1_554 S
C124 H108 0.939 . S
C124 C123 1.396 1_556 S
C124 C125 1.397 . S
C125 C124 1.397 . S
C125 C126 1.385 1_556 S
C126 H109 0.940 . S
C126 C125 1.385 1_554 S
C126 C127 1.388 . S
C127 H106 0.939 . S
C127 C122 1.391 . S
C127 C126 1.388 . S
P128 O139 1.490 . S
P128 C142 1.812 . S
P128 C148 1.803 . S
P128 C154 1.819 . S
H129 C143 0.941 . S
H130 C144 0.939 . S
H131 C146 0.940 . S
H132 C147 0.940 . S
H133 C149 0.939 . S
H134 C150 0.942 . S
H135 C152 0.940 . S
H136 C153 0.939 . S
H137 C155 0.941 . S
H138 C159 0.939 . S
O139 P128 1.490 . S
H140 C156 0.939 . S
H141 C158 0.940 . S
C142 P128 1.812 . S
C142 C143 1.389 . S
C142 C147 1.391 . S
C143 H129 0.941 . S
C143 C142 1.389 . S
C143 C144 1.397 . S
C144 H130 0.939 . S
C144 C143 1.397 . S
C144 C145 1.378 . S
C145 C144 1.378 . S
C145 C146 1.378 . S
C146 H131 0.940 . S
C146 C145 1.378 . S
C146 C147 1.396 . S
C147 H132 0.940 . S
C147 C142 1.391 . S
C147 C146 1.396 . S
C148 P128 1.803 . S
C148 C149 1.378 . S
C148 C153 1.400 . S
C149 H133 0.939 . S
C149 C148 1.378 . S
C149 C150 1.361 . S
C150 H134 0.942 . S
C150 C149 1.361 . S
C150 C151 1.369 . S
C151 C150 1.369 . S
C151 C152 1.404 . S
C152 H135 0.940 . S
C152 C151 1.404 . S
C152 C153 1.389 . S
C153 H136 0.939 . S
C153 C148 1.400 . S
C153 C152 1.389 . S
C154 P128 1.819 . S
C154 C155 1.391 . S
C154 C159 1.391 . S
C155 H137 0.941 . S
C155 C154 1.391 . S
C155 C156 1.396 . S
C156 H140 0.939 . S
C156 C155 1.396 . S
C156 C157 1.397 . S
C157 C156 1.397 . S
C157 C158 1.385 . S
C158 H141 0.940 . S
C158 C157 1.385 . S
C158 C159 1.388 . S
C159 H138 0.939 . S
C159 C154 1.391 . S
C159 C158 1.388 . S
P160 O171 1.490 . S
P160 C174 1.812 . S
P160 C180 1.803 . S
P160 C186 1.819 . S
H161 C175 0.941 . S
H162 C176 0.939 . S
H163 C178 0.940 . S
H164 C179 0.940 . S
H165 C181 0.939 . S
H166 C182 0.942 . S
H167 C184 0.940 . S
H168 C185 0.939 . S
H169 C187 0.941 . S
H170 C191 0.939 . S
O171 P160 1.490 . S
H172 C188 0.939 . S
H173 C190 0.940 1_556 S
C174 P160 1.812 . S
C174 C175 1.389 . S
C174 C179 1.391 . S
C175 H161 0.941 . S
C175 C174 1.389 . S
C175 C176 1.397 . S
C176 H162 0.939 . S
C176 C175 1.397 . S
C176 C177 1.378 . S
C177 C176 1.378 . S
C177 C178 1.378 . S
C178 H163 0.940 . S
C178 C177 1.378 . S
C178 C179 1.396 . S
C179 H164 0.940 . S
C179 C174 1.391 . S
C179 C178 1.396 . S
C180 P160 1.803 . S
C180 C181 1.378 . S
C180 C185 1.400 . S
C181 H165 0.939 . S
C181 C180 1.378 . S
C181 C182 1.361 . S
C182 H166 0.942 . S
C182 C181 1.361 . S
C182 C183 1.369 . S
C183 C182 1.369 . S
C183 C184 1.404 . S
C184 H167 0.940 . S
C184 C183 1.404 . S
C184 C185 1.389 . S
C185 H168 0.939 . S
C185 C180 1.400 . S
C185 C184 1.389 . S
C186 P160 1.819 . S
C186 C187 1.391 . S
C186 C191 1.391 . S
C187 H169 0.941 . S
C187 C186 1.391 . S
C187 C188 1.396 . S
C188 H172 0.939 . S
C188 C187 1.396 . S
C188 C189 1.397 1_554 S
C189 C188 1.397 1_556 S
C189 C190 1.385 1_556 S
C190 H173 0.940 1_554 S
C190 C189 1.385 1_554 S
C190 C191 1.388 . S
C191 H170 0.939 . S
C191 C186 1.391 . S
C191 C190 1.388 . S
P192 O203 1.490 . S
P192 C206 1.812 . S
P192 C212 1.803 . S
P192 C218 1.819 . S
H193 C207 0.941 . S
H194 C208 0.939 . S
H195 C210 0.940 . S
H196 C211 0.940 . S
H197 C213 0.939 . S
H198 C214 0.942 . S
H199 C216 0.940 . S
H200 C217 0.939 . S
H201 C219 0.941 . S
H202 C223 0.939 . S
O203 P192 1.490 . S
H204 C220 0.939 . S
H205 C222 0.940 . S
C206 P192 1.812 . S
C206 C207 1.389 . S
C206 C211 1.391 . S
C207 H193 0.941 . S
C207 C206 1.389 . S
C207 C208 1.397 . S
C208 H194 0.939 . S
C208 C207 1.397 . S
C208 C209 1.378 . S
C209 C208 1.378 . S
C209 C210 1.378 . S
C210 H195 0.940 . S
C210 C209 1.378 . S
C210 C211 1.396 . S
C211 H196 0.940 . S
C211 C206 1.391 . S
C211 C210 1.396 . S
C212 P192 1.803 . S
C212 C213 1.378 . S
C212 C217 1.400 . S
C213 H197 0.939 . S
C213 C212 1.378 . S
C213 C214 1.361 . S
C214 H198 0.942 . S
C214 C213 1.361 . S
C214 C215 1.369 . S
C215 C214 1.369 . S
C215 C216 1.404 . S
C216 H199 0.940 . S
C216 C215 1.404 . S
C216 C217 1.389 . S
C217 H200 0.939 . S
C217 C212 1.400 . S
C217 C216 1.389 . S
C218 P192 1.819 . S
C218 C219 1.391 . S
C218 C223 1.391 . S
C219 H201 0.941 . S
C219 C218 1.391 . S
C219 C220 1.396 . S
C220 H204 0.939 . S
C220 C219 1.396 . S
C220 C221 1.397 . S
C221 C220 1.397 . S
C221 C222 1.385 . S
C222 H205 0.940 . S
C222 C221 1.385 . S
C222 C223 1.388 . S
C223 H202 0.939 . S
C223 C218 1.391 . S
C223 C222 1.388 . S
P224 O235 1.490 . S
P224 C238 1.812 . S
P224 C244 1.803 . S
P224 C250 1.819 . S
H225 C239 0.941 . S
H226 C240 0.939 . S
H227 C242 0.940 . S
H228 C243 0.940 . S
H229 C245 0.939 . S
H230 C246 0.942 . S
H231 C248 0.940 . S
H232 C249 0.939 . S
H233 C251 0.941 . S
H234 C255 0.939 . S
O235 P224 1.490 . S
H236 C252 0.939 . S
H237 C254 0.940 1_554 S
C238 P224 1.812 . S
C238 C239 1.389 . S
C238 C243 1.391 . S
C239 H225 0.941 . S
C239 C238 1.389 . S
C239 C240 1.397 . S
C240 H226 0.939 . S
C240 C239 1.397 . S
C240 C241 1.378 . S
C241 C240 1.378 . S
C241 C242 1.378 . S
C242 H227 0.940 . S
C242 C241 1.378 . S
C242 C243 1.396 . S
C243 H228 0.940 . S
C243 C238 1.391 . S
C243 C242 1.396 . S
C244 P224 1.803 . S
C244 C245 1.378 . S
C244 C249 1.400 . S
C245 H229 0.939 . S
C245 C244 1.378 . S
C245 C246 1.361 . S
C246 H230 0.942 . S
C246 C245 1.361 . S
C246 C247 1.369 . S
C247 C246 1.369 . S
C247 C248 1.404 . S
C248 H231 0.940 . S
C248 C247 1.404 . S
C248 C249 1.389 . S
C249 H232 0.939 . S
C249 C244 1.400 . S
C249 C248 1.389 . S
C250 P224 1.819 . S
C250 C251 1.391 . S
C250 C255 1.391 . S
C251 H233 0.941 . S
C251 C250 1.391 . S
C251 C252 1.396 . S
C252 H236 0.939 . S
C252 C251 1.396 . S
C252 C253 1.397 1_556 S
C253 C252 1.397 1_554 S
C253 C254 1.385 1_554 S
C254 H237 0.940 1_556 S
C254 C253 1.385 1_556 S
C254 C255 1.388 . S
C255 H234 0.939 . S
C255 C250 1.391 . S
C255 C254 1.388 . S
Zn256 O262 1.920 . S
Zn256 O268 1.898 . S
Zn256 O271 1.905 . S
Zn257 O265 1.905 1_655 S
Zn257 O266 1.898 . S
Zn257 O274 1.920 . S
Zn258 O261 2.080 1_455 S
Zn258 O264 2.114 . S
Zn258 O267 2.120 1_455 S
Zn258 O269 2.120 . S
Zn258 O270 2.114 . S
Zn258 O273 2.080 1_455 S
C259 O264 1.166 . S
C259 O265 1.182 . S
C260 O266 1.167 . S
C260 O267 1.299 . S
O261 Zn258 2.080 1_655 S
O261 C275 1.305 . S
O262 Zn256 1.920 . S
O262 C275 1.234 1_455 S
C263 O268 1.167 . S
C263 O269 1.299 . S
O264 Zn258 2.114 . S
O264 C259 1.166 . S
O265 Zn257 1.905 1_455 S
O265 C259 1.182 . S
O266 Zn257 1.898 . S
O266 C260 1.167 . S
O267 Zn258 2.120 1_655 S
O267 C260 1.299 . S
O268 Zn256 1.898 . S
O268 C263 1.167 . S
O269 Zn258 2.120 . S
O269 C263 1.299 . S
O270 Zn258 2.114 . S
O270 C272 1.166 . S
O271 Zn256 1.905 . S
O271 C272 1.182 . S
C272 O270 1.166 . S
C272 O271 1.182 . S
O273 Zn258 2.080 1_655 S
O273 C276 1.305 . S
O274 Zn257 1.920 . S
O274 C276 1.234 . S
C275 O261 1.305 . S
C275 O262 1.234 1_655 S
C276 O273 1.305 . S
C276 O274 1.234 . S
Zn277 O283 1.920 . S
Zn277 O289 1.898 . S
Zn277 O292 1.905 . S
Zn278 O286 1.905 . S
Zn278 O287 1.898 . S
Zn278 O295 1.920 . S
Zn279 O282 2.080 . S
Zn279 O285 2.114 . S
Zn279 O288 2.120 . S
Zn279 O290 2.120 . S
Zn279 O291 2.114 . S
Zn279 O294 2.080 . S
C280 O285 1.166 . S
C280 O286 1.182 . S
C281 O287 1.167 . S
C281 O288 1.299 . S
O282 Zn279 2.080 . S
O282 C296 1.305 . S
O283 Zn277 1.920 . S
O283 C296 1.234 . S
C284 O289 1.167 . S
C284 O290 1.299 . S
O285 Zn279 2.114 . S
O285 C280 1.166 . S
O286 Zn278 1.905 . S
O286 C280 1.182 . S
O287 Zn278 1.898 . S
O287 C281 1.167 . S
O288 Zn279 2.120 . S
O288 C281 1.299 . S
O289 Zn277 1.898 . S
O289 C284 1.167 . S
O290 Zn279 2.120 . S
O290 C284 1.299 . S
O291 Zn279 2.114 . S
O291 C293 1.166 . S
O292 Zn277 1.905 . S
O292 C293 1.182 . S
C293 O291 1.166 . S
C293 O292 1.182 . S
O294 Zn279 2.080 . S
O294 C297 1.305 . S
O295 Zn278 1.920 . S
O295 C297 1.234 . S
C296 O282 1.305 . S
C296 O283 1.234 . S
C297 O294 1.305 . S
C297 O295 1.234 . S
Zn298 O304 1.920 . S
Zn298 O310 1.898 . S
Zn298 O313 1.905 1_455 S
Zn299 O307 1.905 . S
Zn299 O308 1.898 . S
Zn299 O316 1.920 1_655 S
Zn300 O303 2.096 . S
Zn300 O306 2.097 1_455 S
Zn300 O309 2.105 1_455 S
Zn300 O311 2.138 . S
Zn300 O312 2.101 1_455 S
Zn300 O315 2.093 . S
C301 O306 1.166 . S
C301 O307 1.182 . S
C302 O308 1.167 . S
C302 O309 1.299 . S
O303 Zn300 2.096 . S
O303 C317 1.305 . S
O304 Zn298 1.920 . S
O304 C317 1.234 . S
C305 O310 1.167 . S
C305 O311 1.299 . S
O306 Zn300 2.097 1_655 S
O306 C301 1.166 . S
O307 Zn299 1.905 . S
O307 C301 1.182 . S
O308 Zn299 1.898 . S
O308 C302 1.167 . S
O309 Zn300 2.105 1_655 S
O309 C302 1.299 . S
O310 Zn298 1.898 . S
O310 C305 1.167 . S
O311 Zn300 2.138 . S
O311 C305 1.299 . S
O312 Zn300 2.101 1_655 S
O312 C314 1.166 . S
O313 Zn298 1.905 1_655 S
O313 C314 1.182 . S
C314 O312 1.166 . S
C314 O313 1.182 . S
O315 Zn300 2.093 . S
O315 C318 1.305 . S
O316 Zn299 1.920 1_455 S
O316 C318 1.234 . S
C317 O303 1.305 . S
C317 O304 1.234 . S
C318 O315 1.305 . S
C318 O316 1.234 . S
Zn319 O325 1.920 . S
Zn319 O331 1.898 . S
Zn319 O334 1.905 . S
Zn320 O328 1.905 . S
Zn320 O329 1.898 . S
Zn320 O337 1.920 . S
Zn321 O324 2.080 . S
Zn321 O327 2.114 . S
Zn321 O330 2.120 . S
Zn321 O332 2.120 . S
Zn321 O333 2.114 . S
Zn321 O336 2.080 . S
C322 O327 1.166 . S
C322 O328 1.182 . S
C323 O329 1.167 . S
C323 O330 1.299 . S
O324 Zn321 2.080 . S
O324 C338 1.305 . S
O325 Zn319 1.920 . S
O325 C338 1.234 . S
C326 O331 1.167 . S
C326 O332 1.299 . S
O327 Zn321 2.114 . S
O327 C322 1.166 . S
O328 Zn320 1.905 . S
O328 C322 1.182 . S
O329 Zn320 1.898 . S
O329 C323 1.167 . S
O330 Zn321 2.120 . S
O330 C323 1.299 . S
O331 Zn319 1.898 . S
O331 C326 1.167 . S
O332 Zn321 2.120 . S
O332 C326 1.299 . S
O333 Zn321 2.114 . S
O333 C335 1.166 . S
O334 Zn319 1.905 . S
O334 C335 1.182 . S
C335 O333 1.166 . S
C335 O334 1.182 . S
O336 Zn321 2.080 . S
O336 C339 1.305 . S
O337 Zn320 1.920 . S
O337 C339 1.234 . S
C338 O324 1.305 . S
C338 O325 1.234 . S
C339 O336 1.305 . S
C339 O337 1.234 . S
C340 C341 1.363 . S
C340 C346 1.379 1_565 S
C340 N348 1.356 . S
C341 C340 1.363 . S
C341 C347 1.363 . S
C342 C343 1.363 . S
C342 C347 1.379 1_545 S
C342 N349 1.356 . S
C343 C342 1.363 . S
C343 C346 1.363 . S
N344 C346 1.356 . S
N344 H356 0.984 . S
N344 H357 0.985 . S
N345 C347 1.356 . S
N345 H350 0.984 . S
N345 H351 0.985 . S
C346 C340 1.379 1_545 S
C346 C343 1.363 . S
C346 N344 1.356 . S
C347 C341 1.363 . S
C347 C342 1.379 1_565 S
C347 N345 1.356 . S
N348 C340 1.356 . S
N348 H354 0.984 . S
N348 H355 0.984 . S
N349 C342 1.356 . S
N349 H352 0.984 . S
N349 H353 0.985 . S
H350 N345 0.984 . S
H351 N345 0.985 . S
H352 N349 0.984 . S
H353 N349 0.985 . S
H354 N348 0.984 . S
H355 N348 0.984 . S
H356 N344 0.984 . S
H357 N344 0.985 . S
C358 C359 1.363 . S
C358 C364 1.379 . S
C358 N366 1.356 . S
C359 C358 1.363 . S
C359 C365 1.363 . S
C360 C361 1.363 . S
C360 C365 1.379 . S
C360 N367 1.356 . S
C361 C360 1.363 . S
C361 C364 1.363 . S
N362 C364 1.356 . S
N362 H374 0.984 . S
N362 H375 0.985 . S
N363 C365 1.356 . S
N363 H368 0.984 . S
N363 H369 0.985 . S
C364 C358 1.379 . S
C364 C361 1.363 . S
C364 N362 1.356 . S
C365 C359 1.363 . S
C365 C360 1.379 . S
C365 N363 1.356 . S
N366 C358 1.356 . S
N366 H372 0.984 . S
N366 H373 0.984 . S
N367 C360 1.356 . S
N367 H370 0.984 . S
N367 H371 0.985 . S
H368 N363 0.984 . S
H369 N363 0.985 . S
H370 N367 0.984 . S
H371 N367 0.985 . S
H372 N366 0.984 . S
H373 N366 0.984 . S
H374 N362 0.984 . S
H375 N362 0.985 . S
C376 C377 1.363 . S
C376 C382 1.379 . S
C376 N384 1.356 . S
C377 C376 1.363 . S
C377 C383 1.363 . S
C378 C379 1.363 . S
C378 C383 1.379 . S
C378 N385 1.356 . S
C379 C378 1.363 . S
C379 C382 1.363 . S
N380 C382 1.356 . S
N380 H392 0.984 . S
N380 H393 0.985 . S
N381 C383 1.356 . S
N381 H386 0.984 . S
N381 H387 0.985 . S
C382 C376 1.379 . S
C382 C379 1.363 . S
C382 N380 1.356 . S
C383 C377 1.363 . S
C383 C378 1.379 . S
C383 N381 1.356 . S
N384 C376 1.356 . S
N384 H390 0.984 . S
N384 H391 0.984 . S
N385 C378 1.356 . S
N385 H388 0.984 . S
N385 H389 0.985 . S
H386 N381 0.984 . S
H387 N381 0.985 . S
H388 N385 0.984 . S
H389 N385 0.985 . S
H390 N384 0.984 . S
H391 N384 0.984 . S
H392 N380 0.984 . S
H393 N380 0.985 . S
C394 C395 1.363 . S
C394 C400 1.379 1_565 S
C394 N402 1.356 . S
C395 C394 1.363 . S
C395 C401 1.363 . S
C396 C397 1.363 . S
C396 C401 1.379 1_545 S
C396 N403 1.356 . S
C397 C396 1.363 . S
C397 C400 1.363 . S
N398 C400 1.356 . S
N398 H410 0.984 . S
N398 H411 0.985 . S
N399 C401 1.356 . S
N399 H404 0.984 . S
N399 H405 0.985 . S
C400 C394 1.379 1_545 S
C400 C397 1.363 . S
C400 N398 1.356 . S
C401 C395 1.363 . S
C401 C396 1.379 1_565 S
C401 N399 1.356 . S
N402 C394 1.356 . S
N402 H408 0.984 . S
N402 H409 0.984 . S
N403 C396 1.356 . S
N403 H406 0.984 . S
N403 H407 0.985 . S
H404 N399 0.984 . S
H405 N399 0.985 . S
H406 N403 0.984 . S
H407 N403 0.985 . S
H408 N402 0.984 . S
H409 N402 0.984 . S
H410 N398 0.984 . S
H411 N398 0.985 . S
C412 C413 1.363 . S
C412 C418 1.379 1_545 S
C412 N420 1.356 . S
C413 C412 1.363 . S
C413 C419 1.361 1_545 S
C414 C415 1.363 . S
C414 C419 1.381 . S
C414 N421 1.356 . S
C415 C414 1.363 . S
C415 C418 1.363 . S
N416 C418 1.356 . S
N416 H428 0.984 . S
N416 H429 0.985 . S
N417 C419 1.355 1_545 S
N417 H422 0.984 . S
N417 H423 0.985 . S
C418 C412 1.379 1_565 S
C418 C415 1.363 . S
C418 N416 1.356 . S
C419 C413 1.361 1_565 S
C419 C414 1.381 . S
C419 N417 1.355 1_565 S
N420 C412 1.356 . S
N420 H426 0.984 . S
N420 H427 0.984 . S
N421 C414 1.356 . S
N421 H424 0.984 . S
N421 H425 0.985 . S
H422 N417 0.984 . S
H423 N417 0.985 . S
H424 N421 0.984 . S
H425 N421 0.985 . S
H426 N420 0.984 . S
H427 N420 0.984 . S
H428 N416 0.984 . S
H429 N416 0.985 . S
C430 C431 1.363 . S
C430 C436 1.379 . S
C430 N438 1.356 . S
C431 C430 1.363 . S
C431 C437 1.363 . S
C432 C433 1.363 . S
C432 C437 1.379 . S
C432 N439 1.356 . S
C433 C432 1.363 . S
C433 C436 1.363 . S
N434 C436 1.356 . S
N434 H446 0.984 . S
N434 H447 0.985 . S
N435 C437 1.356 . S
N435 H440 0.984 . S
N435 H441 0.985 . S
C436 C430 1.379 . S
C436 C433 1.363 . S
C436 N434 1.356 . S
C437 C431 1.363 . S
C437 C432 1.379 . S
C437 N435 1.356 . S
N438 C430 1.356 . S
N438 H444 0.984 . S
N438 H445 0.984 . S
N439 C432 1.356 . S
N439 H442 0.984 . S
N439 H443 0.985 . S
H440 N435 0.984 . S
H441 N435 0.985 . S
H442 N439 0.984 . S
H443 N439 0.985 . S
H444 N438 0.984 . S
H445 N438 0.984 . S
H446 N434 0.984 . S
H447 N434 0.985 . S
C448 C449 1.363 . S
C448 C454 1.379 . S
C448 N456 1.356 . S
C449 C448 1.363 . S
C449 C455 1.363 . S
C450 C451 1.363 . S
C450 C455 1.379 . S
C450 N457 1.356 . S
C451 C450 1.363 . S
C451 C454 1.363 . S
N452 C454 1.356 . S
N452 H464 0.984 . S
N452 H465 0.985 . S
N453 C455 1.356 . S
N453 H458 0.984 . S
N453 H459 0.985 . S
C454 C448 1.379 . S
C454 C451 1.363 . S
C454 N452 1.356 . S
C455 C449 1.363 . S
C455 C450 1.379 . S
C455 N453 1.356 . S
N456 C448 1.356 . S
N456 H462 0.984 . S
N456 H463 0.984 . S
N457 C450 1.356 . S
N457 H460 0.984 . S
N457 H461 0.985 . S
H458 N453 0.984 . S
H459 N453 0.985 . S
H460 N457 0.984 . S
H461 N457 0.985 . S
H462 N456 0.984 . S
H463 N456 0.984 . S
H464 N452 0.984 . S
H465 N452 0.985 . S
C466 C467 1.363 . S
C466 C472 1.379 1_545 S
C466 N474 1.356 . S
C467 C466 1.363 . S
C467 C473 1.363 1_545 S
C468 C469 1.363 . S
C468 C473 1.379 . S
C468 N475 1.356 . S
C469 C468 1.363 . S
C469 C472 1.363 . S
N470 C472 1.356 . S
N470 H482 0.984 . S
N470 H483 0.985 . S
N471 C473 1.356 1_545 S
N471 H476 0.984 . S
N471 H477 0.985 1_545 S
C472 C466 1.379 1_565 S
C472 C469 1.363 . S
C472 N470 1.356 . S
C473 C467 1.363 1_565 S
C473 C468 1.379 . S
C473 N471 1.356 1_565 S
N474 C466 1.356 . S
N474 H480 0.984 . S
N474 H481 0.984 . S
N475 C468 1.356 . S
N475 H478 0.984 . S
N475 H479 0.985 . S
H476 N471 0.984 . S
H477 N471 0.985 1_565 S
H478 N475 0.984 . S
H479 N475 0.985 . S
H480 N474 0.984 . S
H481 N474 0.984 . S
H482 N470 0.984 . S
H483 N470 0.985 . S
C484 C485 1.363 . S
C484 C490 1.379 . S
C484 N492 1.356 . S
C485 C484 1.363 . S
C485 C491 1.363 . S
C486 C487 1.363 . S
C486 C491 1.379 . S
C486 N493 1.356 . S
C487 C486 1.363 . S
C487 C490 1.363 . S
N488 C490 1.356 . S
N488 H500 0.984 . S
N488 H501 0.985 . S
N489 C491 1.356 . S
N489 H494 0.984 . S
N489 H495 0.985 . S
C490 C484 1.379 . S
C490 C487 1.363 . S
C490 N488 1.356 . S
C491 C485 1.363 . S
C491 C486 1.379 . S
C491 N489 1.356 . S
N492 C484 1.356 . S
N492 H498 0.984 . S
N492 H499 0.984 . S
N493 C486 1.356 . S
N493 H496 0.984 . S
N493 H497 0.985 . S
H494 N489 0.984 . S
H495 N489 0.985 . S
H496 N493 0.984 . S
H497 N493 0.985 . S
H498 N492 0.984 . S
H499 N492 0.984 . S
H500 N488 0.984 . S
H501 N488 0.985 . S
C502 C503 1.363 . S
C502 C508 1.379 . S
C502 N510 1.356 . S
C503 C502 1.363 . S
C503 C509 1.363 . S
C504 C505 1.363 . S
C504 C509 1.379 . S
C504 N511 1.356 . S
C505 C504 1.363 . S
C505 C508 1.363 . S
N506 C508 1.356 . S
N506 H518 0.984 . S
N506 H519 0.985 . S
N507 C509 1.356 . S
N507 H512 0.984 . S
N507 H513 0.985 . S
C508 C502 1.379 . S
C508 C505 1.363 . S
C508 N506 1.356 . S
C509 C503 1.363 . S
C509 C504 1.379 . S
C509 N507 1.356 . S
N510 C502 1.356 . S
N510 H516 0.984 . S
N510 H517 0.984 . S
N511 C504 1.356 . S
N511 H514 0.984 . S
N511 H515 0.985 . S
H512 N507 0.984 . S
H513 N507 0.985 . S
H514 N511 0.984 . S
H515 N511 0.985 . S
H516 N510 0.984 . S
H517 N510 0.984 . S
H518 N506 0.984 . S
H519 N506 0.985 . S
C520 C521 1.363 . S
C520 C526 1.379 . S
C520 N528 1.356 . S
C521 C520 1.363 . S
C521 C527 1.363 . S
C522 C523 1.363 . S
C522 C527 1.379 . S
C522 N529 1.356 . S
C523 C522 1.363 . S
C523 C526 1.363 . S
N524 C526 1.356 . S
N524 H536 0.984 . S
N524 H537 0.985 . S
N525 C527 1.356 . S
N525 H530 0.973 1_556 S
N525 H531 0.985 . S
C526 C520 1.379 . S
C526 C523 1.363 . S
C526 N524 1.356 . S
C527 C521 1.363 . S
C527 C522 1.379 . S
C527 N525 1.356 . S
N528 C520 1.356 . S
N528 H534 0.984 . S
N528 H535 0.984 . S
N529 C522 1.356 . S
N529 H532 0.984 . S
N529 H533 0.985 . S
H530 N525 0.973 1_554 S
H531 N525 0.985 . S
H532 N529 0.984 . S
H533 N529 0.985 . S
H534 N528 0.984 . S
H535 N528 0.984 . S
H536 N524 0.984 . S
H537 N524 0.985 . S
C538 C539 1.363 . S
C538 C544 1.379 . S
C538 N546 1.356 . S
C539 C538 1.363 . S
C539 C545 1.363 . S
C540 C541 1.363 . S
C540 C545 1.379 . S
C540 N547 1.375 . S
C541 C540 1.363 . S
C541 C544 1.363 . S
N542 C544 1.356 . S
N542 H554 0.984 . S
N542 H555 0.985 . S
N543 C545 1.356 . S
N543 H548 0.984 . S
N543 H549 0.985 . S
C544 C538 1.379 . S
C544 C541 1.363 . S
C544 N542 1.356 . S
C545 C539 1.363 . S
C545 C540 1.379 . S
C545 N543 1.356 . S
N546 C538 1.356 . S
N546 H552 0.984 . S
N546 H553 0.984 . S
N547 C540 1.375 . S
N547 H550 0.982 1_655 S
N547 H551 0.969 1_655 S
H548 N543 0.984 . S
H549 N543 0.985 . S
H550 N547 0.982 1_455 S
H551 N547 0.969 1_455 S
H552 N546 0.984 . S
H553 N546 0.984 . S
H554 N542 0.984 . S
H555 N542 0.985 . S
C556 C557 1.363 . S
C556 C562 1.379 . S
C556 N564 1.356 . S
C557 C556 1.363 . S
C557 C563 1.363 . S
C558 C559 1.363 . S
C558 C563 1.379 . S
C558 N565 1.356 . S
C559 C558 1.363 . S
C559 C562 1.363 . S
N560 C562 1.356 . S
N560 H572 0.984 . S
N560 H573 0.985 . S
N561 C563 1.356 . S
N561 H566 0.984 . S
N561 H567 0.985 . S
C562 C556 1.379 . S
C562 C559 1.363 . S
C562 N560 1.356 . S
C563 C557 1.363 . S
C563 C558 1.379 . S
C563 N561 1.356 . S
N564 C556 1.356 . S
N564 H570 0.984 . S
N564 H571 0.984 . S
N565 C558 1.356 . S
N565 H568 0.984 . S
N565 H569 0.985 . S
H566 N561 0.984 . S
H567 N561 0.985 . S
H568 N565 0.984 . S
H569 N565 0.985 . S
H570 N564 0.984 . S
H571 N564 0.984 . S
H572 N560 0.984 . S
H573 N560 0.985 . S
C574 C575 1.363 . S
C574 C580 1.379 . S
C574 N582 1.356 . S
C575 C574 1.363 . S
C575 C581 1.363 . S
C576 C577 1.363 . S
C576 C581 1.379 . S
C576 N583 1.356 . S
C577 C576 1.363 . S
C577 C580 1.363 . S
N578 C580 1.356 . S
N578 H590 0.984 . S
N578 H591 0.985 . S
N579 C581 1.356 . S
N579 H584 0.984 . S
N579 H585 0.985 . S
C580 C574 1.379 . S
C580 C577 1.363 . S
C580 N578 1.356 . S
C581 C575 1.363 . S
C581 C576 1.379 . S
C581 N579 1.356 . S
N582 C574 1.356 . S
N582 H588 0.984 . S
N582 H589 0.984 . S
N583 C576 1.356 . S
N583 H586 0.984 . S
N583 H587 0.985 . S
H584 N579 0.984 . S
H585 N579 0.985 . S
H586 N583 0.984 . S
H587 N583 0.985 . S
H588 N582 0.984 . S
H589 N582 0.984 . S
H590 N578 0.984 . S
H591 N578 0.985 . S
C592 C593 1.363 . S
C592 C598 1.379 . S
C592 N600 1.356 . S
C593 C592 1.363 . S
C593 C599 1.363 . S
C594 C595 1.363 . S
C594 C599 1.379 . S
C594 N601 1.356 . S
C595 C594 1.363 . S
C595 C598 1.363 . S
N596 C598 1.356 . S
N596 H608 0.984 . S
N596 H609 0.985 . S
N597 C599 1.356 . S
N597 H602 0.984 . S
N597 H603 0.985 . S
C598 C592 1.379 . S
C598 C595 1.363 . S
C598 N596 1.356 . S
C599 C593 1.363 . S
C599 C594 1.379 . S
C599 N597 1.356 . S
N600 C592 1.356 . S
N600 H606 0.984 . S
N600 H607 0.984 . S
N601 C594 1.356 . S
N601 H604 0.984 . S
N601 H605 0.985 . S
H602 N597 0.984 . S
H603 N597 0.985 . S
H604 N601 0.984 . S
H605 N601 0.985 . S
H606 N600 0.984 . S
H607 N600 0.984 . S
H608 N596 0.984 . S
H609 N596 0.985 . S
C610 C611 1.363 . S
C610 C616 1.379 . S
C610 N618 1.356 . S
C611 C610 1.363 . S
C611 C617 1.363 . S
C612 C613 1.363 . S
C612 C617 1.379 . S
C612 N619 1.356 . S
C613 C612 1.363 . S
C613 C616 1.363 . S
N614 C616 1.356 . S
N614 H626 0.984 . S
N614 H627 0.985 . S
N615 C617 1.356 . S
N615 H620 0.984 . S
N615 H621 0.985 . S
C616 C610 1.379 . S
C616 C613 1.363 . S
C616 N614 1.356 . S
C617 C611 1.363 . S
C617 C612 1.379 . S
C617 N615 1.356 . S
N618 C610 1.356 . S
N618 H624 0.984 . S
N618 H625 0.984 . S
N619 C612 1.356 . S
N619 H622 0.984 . S
N619 H623 0.985 . S
H620 N615 0.984 . S
H621 N615 0.985 . S
H622 N619 0.984 . S
H623 N619 0.985 . S
H624 N618 0.984 . S
H625 N618 0.984 . S
H626 N614 0.984 . S
H627 N614 0.985 . S
C628 C629 1.363 . S
C628 C634 1.379 . S
C628 N636 1.356 . S
C629 C628 1.363 . S
C629 C635 1.363 . S
C630 C631 1.363 . S
C630 C635 1.379 . S
C630 N637 1.356 . S
C631 C630 1.363 . S
C631 C634 1.363 . S
N632 C634 1.356 . S
N632 H644 0.984 . S
N632 H645 0.985 . S
N633 C635 1.356 . S
N633 H638 0.984 . S
N633 H639 0.985 . S
C634 C628 1.379 . S
C634 C631 1.363 . S
C634 N632 1.356 . S
C635 C629 1.363 . S
C635 C630 1.379 . S
C635 N633 1.356 . S
N636 C628 1.356 . S
N636 H642 0.984 . S
N636 H643 0.984 . S
N637 C630 1.356 . S
N637 H640 0.984 . S
N637 H641 0.985 . S
H638 N633 0.984 . S
H639 N633 0.985 . S
H640 N637 0.984 . S
H641 N637 0.985 . S
H642 N636 0.984 . S
H643 N636 0.984 . S
H644 N632 0.984 . S
H645 N632 0.985 . S
C646 C647 1.363 . S
C646 C652 1.379 . S
C646 N654 1.356 . S
C647 C646 1.363 . S
C647 C653 1.363 . S
C648 C649 1.363 . S
C648 C653 1.379 . S
C648 N655 1.356 . S
C649 C648 1.363 . S
C649 C652 1.363 . S
N650 C652 1.356 . S
N650 H662 0.984 . S
N650 H663 0.985 . S
N651 C653 1.356 . S
N651 H656 0.984 . S
N651 H657 0.985 . S
C652 C646 1.379 . S
C652 C649 1.363 . S
C652 N650 1.356 . S
C653 C647 1.363 . S
C653 C648 1.379 . S
C653 N651 1.356 . S
N654 C646 1.356 . S
N654 H660 0.984 . S
N654 H661 0.984 . S
N655 C648 1.356 . S
N655 H658 0.984 . S
N655 H659 0.985 . S
H656 N651 0.984 . S
H657 N651 0.985 . S
H658 N655 0.984 . S
H659 N655 0.985 . S
H660 N654 0.984 . S
H661 N654 0.984 . S
H662 N650 0.984 . S
H663 N650 0.985 . S
C664 C665 1.363 . S
C664 C670 1.379 . S
C664 N672 1.356 . S
C665 C664 1.363 . S
C665 C671 1.363 . S
C666 C667 1.363 . S
C666 C671 1.379 . S
C666 N673 1.356 . S
C667 C666 1.363 . S
C667 C670 1.363 . S
N668 C670 1.356 . S
N668 H680 0.984 . S
N668 H681 0.985 . S
N669 C671 1.356 . S
N669 H674 0.984 . S
N669 H675 0.985 . S
C670 C664 1.379 . S
C670 C667 1.363 . S
C670 N668 1.356 . S
C671 C665 1.363 . S
C671 C666 1.379 . S
C671 N669 1.356 . S
N672 C664 1.356 . S
N672 H678 0.984 . S
N672 H679 0.984 . S
N673 C666 1.356 . S
N673 H676 0.984 . S
N673 H677 0.985 . S
H674 N669 0.984 . S
H675 N669 0.985 . S
H676 N673 0.984 . S
H677 N673 0.985 . S
H678 N672 0.984 . S
H679 N672 0.984 . S
H680 N668 0.984 . S
H681 N668 0.985 . S
C682 C683 1.363 . S
C682 C688 1.379 . S
C682 N690 1.356 . S
C683 C682 1.363 . S
C683 C689 1.363 . S
C684 C685 1.363 . S
C684 C689 1.379 . S
C684 N691 1.356 . S
C685 C684 1.363 . S
C685 C688 1.363 . S
N686 C688 1.356 . S
N686 H698 0.984 . S
N686 H699 0.985 . S
N687 C689 1.356 . S
N687 H692 0.984 . S
N687 H693 0.985 . S
C688 C682 1.379 . S
C688 C685 1.363 . S
C688 N686 1.356 . S
C689 C683 1.363 . S
C689 C684 1.379 . S
C689 N687 1.356 . S
N690 C682 1.356 . S
N690 H696 0.984 . S
N690 H697 0.984 . S
N691 C684 1.356 . S
N691 H694 0.984 . S
N691 H695 0.985 . S
H692 N687 0.984 . S
H693 N687 0.985 . S
H694 N691 0.984 . S
H695 N691 0.985 . S
H696 N690 0.984 . S
H697 N690 0.984 . S
H698 N686 0.984 . S
H699 N686 0.985 . S
C700 C701 1.363 . S
C700 C706 1.379 . S
C700 N708 1.356 . S
C701 C700 1.363 . S
C701 C707 1.363 . S
C702 C703 1.363 . S
C702 C707 1.379 . S
C702 N709 1.356 . S
C703 C702 1.363 . S
C703 C706 1.363 . S
N704 C706 1.356 . S
N704 H716 0.984 . S
N704 H717 0.985 . S
N705 C707 1.356 . S
N705 H710 0.984 . S
N705 H711 0.985 . S
C706 C700 1.379 . S
C706 C703 1.363 . S
C706 N704 1.356 . S
C707 C701 1.363 . S
C707 C702 1.379 . S
C707 N705 1.356 . S
N708 C700 1.356 . S
N708 H714 0.984 . S
N708 H715 0.984 . S
N709 C702 1.356 . S
N709 H712 0.984 . S
N709 H713 0.985 . S
H710 N705 0.984 . S
H711 N705 0.985 . S
H712 N709 0.984 . S
H713 N709 0.985 . S
H714 N708 0.984 . S
H715 N708 0.984 . S
H716 N704 0.984 . S
H717 N704 0.985 . S
C718 C719 1.363 . S
C718 C724 1.379 . S
C718 N726 1.356 . S
C719 C718 1.363 . S
C719 C725 1.363 . S
C720 C721 1.363 . S
C720 C725 1.379 . S
C720 N727 1.356 . S
C721 C720 1.363 . S
C721 C724 1.363 . S
N722 C724 1.356 . S
N722 H734 0.984 . S
N722 H735 0.985 . S
N723 C725 1.356 . S
N723 H728 0.984 . S
N723 H729 0.985 . S
C724 C718 1.379 . S
C724 C721 1.363 . S
C724 N722 1.356 . S
C725 C719 1.363 . S
C725 C720 1.379 . S
C725 N723 1.356 . S
N726 C718 1.356 . S
N726 H732 0.984 . S
N726 H733 0.984 . S
N727 C720 1.356 . S
N727 H730 0.984 . S
N727 H731 0.985 . S
H728 N723 0.984 . S
H729 N723 0.985 . S
H730 N727 0.984 . S
H731 N727 0.985 . S
H732 N726 0.984 . S
H733 N726 0.984 . S
H734 N722 0.984 . S
H735 N722 0.985 . S
C736 C737 1.363 . S
C736 C742 1.379 . S
C736 N744 1.356 . S
C737 C736 1.363 . S
C737 C743 1.363 . S
C738 C739 1.363 . S
C738 C743 1.379 . S
C738 N745 1.356 . S
C739 C738 1.363 . S
C739 C742 1.363 . S
N740 C742 1.356 . S
N740 H752 0.984 . S
N740 H753 0.985 . S
N741 C743 1.356 . S
N741 H746 0.984 . S
N741 H747 0.985 . S
C742 C736 1.379 . S
C742 C739 1.363 . S
C742 N740 1.356 . S
C743 C737 1.363 . S
C743 C738 1.379 . S
C743 N741 1.356 . S
N744 C736 1.356 . S
N744 H750 0.984 . S
N744 H751 0.984 . S
N745 C738 1.356 . S
N745 H748 0.984 . S
N745 H749 0.985 . S
H746 N741 0.984 . S
H747 N741 0.985 . S
H748 N745 0.984 . S
H749 N745 0.985 . S
H750 N744 0.984 . S
H751 N744 0.984 . S
H752 N740 0.984 . S
H753 N740 0.985 . S
C754 C755 1.363 . S
C754 C760 1.379 . S
C754 N762 1.356 . S
C755 C754 1.363 . S
C755 C761 1.363 . S
C756 C757 1.363 . S
C756 C761 1.379 . S
C756 N763 1.356 . S
C757 C756 1.363 . S
C757 C760 1.363 . S
N758 C760 1.356 . S
N758 H770 0.984 . S
N758 H771 0.985 . S
N759 C761 1.356 . S
N759 H764 0.984 . S
N759 H765 0.985 . S
C760 C754 1.379 . S
C760 C757 1.363 . S
C760 N758 1.356 . S
C761 C755 1.363 . S
C761 C756 1.379 . S
C761 N759 1.356 . S
N762 C754 1.356 . S
N762 H768 0.984 . S
N762 H769 0.984 . S
N763 C756 1.356 . S
N763 H766 0.984 . S
N763 H767 0.985 . S
H764 N759 0.984 . S
H765 N759 0.985 . S
H766 N763 0.984 . S
H767 N763 0.985 . S
H768 N762 0.984 . S
H769 N762 0.984 . S
H770 N758 0.984 . S
H771 N758 0.985 . S
C341 C221 1.423 . S
C343 C272 1.456 . S
C361 C280 1.417 . S
C359 C241 1.451 . S
C379 C284 1.443 . S
C377 C157 1.413 . S
C395 C177 1.445 . S
C397 C260 1.402 . S
C415 C301 1.456 . S
C413 C93 1.486 . S
C433 C335 1.417 . S
C431 C113 1.412 . S
C449 C29 1.481 . S
C451 C323 1.443 . S
C467 C49 1.401 . S
C469 C305 1.402 . S
C487 C259 1.320 . S
C485 C61 1.428 . S
C505 C293 1.315 . S
C503 C17 1.475 . S
C523 C297 1.322 . S
C521 C125 1.435 . S
C541 C275 1.314 . S
C539 C81 1.473 . S
C559 C314 1.320 . S
C557 C189 1.458 . S
C575 C145 1.435 . S
C577 C322 1.315 . S
C595 C338 1.322 . S
C593 C253 1.457 . S
C611 C209 1.439 . S
C613 C318 1.314 . S
C631 C263 1.315 . S
C629 C23 1.508 . S
C649 C281 1.310 . S
C647 C55 1.468 . S
C665 C87 1.495 . S
C667 C296 1.315 . S
C685 C276 1.311 . S
C683 C119 1.462 . S
C703 C302 1.315 . S
C701 C151 1.469 . S
C719 C183 1.500 . S
C721 C326 1.310 . S
C737 C215 1.462 . S
C739 C339 1.315 . S
C755 C247 1.488 . S
C757 C317 1.311 . S
