# Generated by pormake.
# Topology tsx, (6,3)-cn, num edge types: 1
# Building blocks:
#     Node 0, Type 0, BuildingBlock: FUNLAD_clean_sbu_0, # of connection points: 6
#     Node 1, Type 0, BuildingBlock: FUNLAD_clean_sbu_0, # of connection points: 6
#     Node 2, Type 1, BuildingBlock: KAKCAD_clean_linker_0, # of connection points: 3
#     Node 3, Type 1, BuildingBlock: KAKCAD_clean_linker_0, # of connection points: 3
#     Node 4, Type 1, BuildingBlock: KAKCAD_clean_linker_0, # of connection points: 3
#     Node 5, Type 1, BuildingBlock: KAKCAD_clean_linker_0, # of connection points: 3
#     Edge 6, Type (0, 1), BuildingBlock: ZUJKAS_clean_linker_0, # of connection points: 2
#     Edge 7, Type (0, 1), BuildingBlock: ZUJKAS_clean_linker_0, # of connection points: 2
#     Edge 8, Type (0, 1), BuildingBlock: ZUJKAS_clean_linker_0, # of connection points: 2
#     Edge 9, Type (0, 1), BuildingBlock: ZUJKAS_clean_linker_0, # of connection points: 2
#     Edge 10, Type (0, 1), BuildingBlock: ZUJKAS_clean_linker_0, # of connection points: 2
#     Edge 11, Type (0, 1), BuildingBlock: ZUJKAS_clean_linker_0, # of connection points: 2
#     Edge 12, Type (0, 1), BuildingBlock: ZUJKAS_clean_linker_0, # of connection points: 2
#     Edge 13, Type (0, 1), BuildingBlock: ZUJKAS_clean_linker_0, # of connection points: 2
#     Edge 14, Type (0, 1), BuildingBlock: ZUJKAS_clean_linker_0, # of connection points: 2
#     Edge 15, Type (0, 1), BuildingBlock: ZUJKAS_clean_linker_0, # of connection points: 2
#     Edge 16, Type (0, 1), BuildingBlock: ZUJKAS_clean_linker_0, # of connection points: 2
#     Edge 17, Type (0, 1), BuildingBlock: ZUJKAS_clean_linker_0, # of connection points: 2
# Relax obj value: 0.165
# Max RMSD: 0.156
# Mean RMSD: 0.095
data_MOF--net-tsx--node1-FUNLAD_clean_sbu_0--node2-KAKCAD_clean_linker_0--edge1-ZUJKAS_clean_linker_0
_symmetry_space_group_name_H-M    P1
_symmetry_Int_Tables_number       1
_symmetry_cell_setting            triclinic
loop_
_symmetry_equiv_pos_as_xyz
'x, y, z'
_cell_length_a     29.10981
_cell_length_b     32.297151
_cell_length_c     60.482358
_cell_angle_alpha  91.243413
_cell_angle_beta   92.016574
_cell_angle_gamma 89.895636
loop_
_atom_site_label
_atom_site_type_symbol
_atom_site_fract_x
_atom_site_fract_y
_atom_site_fract_z
_atom_type_partial_charge
C0 C 0.93877 0.95568 0.00588 0.0
N1 N 0.00965 0.0186 0.05784 0.0
C2 C 0.9695 0.01825 0.06869 0.0
C3 C 0.9698 0.01568 0.09171 0.0
C4 C 0.01183 0.01337 0.10377 0.0
C5 C 0.05281 0.01469 0.09218 0.0
C6 C 0.05091 0.01729 0.06911 0.0
Zn7 Zn 0.00692 0.01799 0.02391 0.0
C8 C 0.07137 0.95708 0.00506 0.0
N9 N -0.00125 0.01434 0.95305 0.0
C10 C 0.95757 0.01231 0.94171 0.0
C11 C 0.03896 0.01436 0.94224 0.0
C12 C 0.03881 0.01184 0.91916 0.0
C13 C -0.00313 0.00925 0.90699 0.0
C14 C 0.95583 0.00978 0.91858 0.0
Zn15 Zn 0.0014 0.01597 0.98699 0.0
O16 O 0.95552 0.97174 0.02376 0.0
C17 C 0.93608 0.07619 0.00613 0.0
O18 O 0.95225 0.96824 0.98745 0.0
H19 H 0.07135 0.01609 0.95153 0.0
H20 H 0.93704 0.01934 0.05946 0.0
H21 H 0.926 0.01221 0.95062 0.0
O22 O 0.95583 0.0643 0.02396 0.0
O23 O 0.94832 0.06083 0.9877 0.0
H24 H 0.08244 0.01744 0.06017 0.0
O25 O 0.05092 0.06357 0.98701 0.0
O26 O 0.05851 0.06404 0.02327 0.0
O27 O 0.05404 0.97085 0.98709 0.0
O28 O 0.05766 0.97144 0.02339 0.0
C29 C 0.07015 0.07785 0.00475 0.0
H30 H 0.93738 0.01544 0.09996 0.0
H31 H 0.08598 0.0126 0.10076 0.0
H32 H 0.07126 0.0122 0.91095 0.0
H33 H 0.92273 0.00744 0.9099 0.0
C34 C 0.44138 0.46301 0.50685 0.0
N35 N 0.51703 0.5244 0.55776 0.0
C36 C 0.47719 0.52675 0.56883 0.0
C37 C 0.4779 0.52543 0.59189 0.0
C38 C 0.51999 0.52141 0.60372 0.0
C39 C 0.56066 0.51963 0.5919 0.0
C40 C 0.55839 0.5213 0.56881 0.0
Zn41 Zn 0.5136 0.52255 0.52389 0.0
C42 C 0.57436 0.45806 0.50535 0.0
N43 N 0.50408 0.51664 0.45316 0.0
C44 C 0.46287 0.51679 0.44181 0.0
C45 C 0.54425 0.51362 0.4424 0.0
C46 C 0.54401 0.51014 0.41937 0.0
C47 C 0.50203 0.50972 0.40719 0.0
C48 C 0.46105 0.51342 0.4187 0.0
Zn49 Zn 0.50716 0.51952 0.48704 0.0
O50 O 0.46065 0.47782 0.52447 0.0
C51 C 0.44541 0.58331 0.50572 0.0
O52 O 0.45404 0.47528 0.48821 0.0
H53 H 0.57666 0.51367 0.4517 0.0
H54 H 0.44464 0.52887 0.55974 0.0
H55 H 0.43133 0.5191 0.45069 0.0
O56 O 0.464 0.57058 0.52365 0.0
O57 O 0.45757 0.56756 0.48737 0.0
H58 H 0.58966 0.51952 0.55969 0.0
O59 O 0.5607 0.56361 0.48636 0.0
O60 O 0.56693 0.56697 0.52264 0.0
O61 O 0.55636 0.47123 0.48739 0.0
O62 O 0.56271 0.47428 0.52363 0.0
C63 C 0.58028 0.57834 0.50391 0.0
H64 H 0.44568 0.52638 0.60031 0.0
H65 H 0.59387 0.51696 0.6004 0.0
H66 H 0.57646 0.50805 0.41119 0.0
H67 H 0.42792 0.51289 0.40998 0.0
C68 C 0.98425 0.93456 0.35027 0.0
C69 C 0.99435 0.97184 0.33985 0.0
C70 C 0.97718 0.93408 0.37305 0.0
C71 C 0.9798 0.97089 0.38586 0.0
C72 C 0.99046 0.00802 0.37547 0.0
C73 C -0.00239 0.00849 0.35277 0.0
C74 C 0.97093 0.971 0.40995 0.0
C75 C 0.98965 0.94028 0.42367 0.0
C76 C 0.98301 0.94156 0.44665 0.0
C77 C 0.95693 0.97394 0.45578 0.0
C78 C 0.93833 0.00504 0.4423 0.0
C79 C 0.94498 0.00297 0.41942 0.0
C80 C 0.91352 0.04078 0.45203 0.0
C81 C 0.88077 0.03519 0.46824 0.0
C82 C 0.9222 0.08096 0.44479 0.0
C83 C 0.89761 0.11465 0.45297 0.0
C84 C 0.86377 0.10901 0.46861 0.0
C85 C 0.00644 0.9109 0.46118 0.0
C86 C 0.01033 0.86932 0.45422 0.0
C87 C 0.02819 0.92363 0.48132 0.0
C88 C 0.0555 0.89605 0.49348 0.0
C89 C 0.06239 0.8553 0.48558 0.0
C90 C 0.03814 0.8419 0.46619 0.0
C91 C 0.85609 0.06905 0.47647 0.0
H92 H 0.98192 0.90572 0.34083 0.0
H93 H 0.96885 0.90501 0.38055 0.0
H94 H 0.99339 0.03684 0.3849 0.0
H95 H 0.00483 0.03781 0.34527 0.0
H96 H 0.01121 0.91645 0.41657 0.0
H97 H 0.92969 0.02639 0.40889 0.0
H98 H 0.95203 0.97553 0.47345 0.0
H99 H 0.87331 0.00454 0.47408 0.0
H100 H 0.94806 0.0864 0.43274 0.0
H101 H 0.90501 0.14521 0.44698 0.0
H102 H 0.99326 0.8583 0.43902 0.0
H103 H 0.02599 0.95544 0.48722 0.0
H104 H 0.83003 0.06377 0.48844 0.0
H105 H 0.04267 0.81091 0.45944 0.0
H106 H 0.07267 0.90719 0.50862 0.0
C107 C 0.00952 0.02657 0.65742 0.0
C108 C 0.01538 0.98982 0.66925 0.0
C109 C 0.01472 0.02673 0.63455 0.0
C110 C 0.02595 0.99016 0.6229 0.0
C111 C 0.03143 0.9533 0.63467 0.0
C112 C 0.0263 0.95315 0.65759 0.0
C113 C 0.03215 0.99072 0.59858 0.0
C114 C 0.05534 0.02374 0.58916 0.0
C115 C 0.06033 0.02529 0.56618 0.0
C116 C 0.04181 0.99348 0.55248 0.0
C117 C 0.01844 0.96033 0.56157 0.0
C118 C 0.01411 0.9589 0.58463 0.0
C119 C 0.99587 0.92857 0.54693 0.0
C120 C 0.96676 0.94054 0.52918 0.0
C121 C 0.00082 0.88633 0.55147 0.0
C122 C 0.97533 0.85672 0.53919 0.0
C123 C 0.94401 0.8689 0.52233 0.0
C124 C 0.08471 0.06038 0.55654 0.0
C125 C 0.07467 0.10125 0.56316 0.0
C126 C 0.11881 0.0532 0.54104 0.0
C127 C 0.1434 0.08627 0.53282 0.0
C128 C 0.13389 0.12711 0.53974 0.0
C129 C 0.09888 0.13433 0.55475 0.0
C130 C 0.9409 0.91097 0.51704 0.0
H131 H 0.00158 0.05545 0.66589 0.0
H132 H 0.00967 0.05555 0.62597 0.0
H133 H 0.04036 0.92465 0.62621 0.0
H134 H 0.03061 0.92423 0.66616 0.0
H135 H 0.07033 0.048 0.59975 0.0
H136 H 0.99495 0.93389 0.59162 0.0
H137 H 0.04502 0.9948 0.5347 0.0
H138 H 0.96239 0.97293 0.5253 0.0
H139 H 0.02344 0.87635 0.56494 0.0
H140 H 0.9782 0.82454 0.54375 0.0
H141 H 0.04821 0.10761 0.57493 0.0
H142 H 0.12727 0.02194 0.53573 0.0
H143 H 0.91738 0.92114 0.50397 0.0
H144 H 0.09114 0.16549 0.5605 0.0
H145 H 0.17007 0.07992 0.52117 0.0
C146 C 0.49415 0.44645 0.85006 0.0
C147 C 0.50183 0.48444 0.83988 0.0
C148 C 0.48807 0.445 0.87289 0.0
C149 C 0.48966 0.4815 0.886 0.0
C150 C 0.49868 0.51927 0.87585 0.0
C151 C 0.50458 0.52072 0.85309 0.0
C152 C 0.48083 0.48069 0.91006 0.0
C153 C 0.49957 0.44951 0.92349 0.0
C154 C 0.49216 0.44964 0.94639 0.0
C155 C 0.46555 0.48133 0.95576 0.0
C156 C 0.44694 0.51284 0.9426 0.0
C157 C 0.45422 0.51194 0.91978 0.0
C158 C 0.42084 0.54746 0.95261 0.0
C159 C 0.38792 0.54017 0.96853 0.0
C160 C 0.42826 0.58819 0.94588 0.0
C161 C 0.40212 0.62074 0.95421 0.0
C162 C 0.3681 0.61332 0.96951 0.0
C163 C 0.51452 0.41805 0.96064 0.0
C164 C 0.51757 0.37669 0.95322 0.0
C165 C 0.53528 0.42951 0.98121 0.0
C166 C 0.56043 0.40069 0.99355 0.0
C167 C 0.56603 0.35994 0.98543 0.0
C168 C 0.54319 0.34801 0.96541 0.0
C169 C 0.36178 0.57288 0.97694 0.0
H170 H 0.4915 0.418 0.84029 0.0
H171 H 0.48086 0.41547 0.88017 0.0
H172 H 0.50121 0.54784 0.88553 0.0
H173 H 0.51138 0.55035 0.84581 0.0
H174 H 0.52145 0.42608 0.91624 0.0
H175 H 0.43865 0.53556 0.90948 0.0
H176 H 0.45998 0.4819 0.97339 0.0
H177 H 0.38136 0.50906 0.97396 0.0
H178 H 0.45419 0.5949 0.93406 0.0
H179 H 0.40827 0.65175 0.94852 0.0
H180 H 0.50128 0.36672 0.93763 0.0
H181 H 0.5337 0.46117 0.98742 0.0
H182 H 0.33554 0.56633 0.98863 0.0
H183 H 0.54702 0.31709 0.95845 0.0
H184 H 0.57674 0.41076 0.00911 0.0
C185 C 0.51993 0.51562 0.15806 0.0
C186 C 0.52143 0.47868 0.16993 0.0
C187 C 0.52582 0.51505 0.13524 0.0
C188 C 0.53338 0.47753 0.1237 0.0
C189 C 0.53458 0.44051 0.13552 0.0
C190 C 0.52877 0.4411 0.1584 0.0
C191 C 0.53984 0.47723 0.09942 0.0
C192 C 0.56652 0.50791 0.08997 0.0
C193 C 0.57078 0.50955 0.06693 0.0
C194 C 0.54893 0.4793 0.0533 0.0
C195 C 0.5225 0.44808 0.06242 0.0
C196 C 0.51816 0.44728 0.08551 0.0
C197 C 0.49721 0.41767 0.04786 0.0
C198 C 0.47367 0.43044 0.02848 0.0
C199 C 0.49425 0.37608 0.05392 0.0
C200 C 0.46618 0.34846 0.04166 0.0
C201 C 0.44069 0.36167 0.0229 0.0
C202 C 0.59674 0.54375 0.05716 0.0
C203 C 0.59344 0.58421 0.06597 0.0
C204 C 0.62473 0.53644 0.03899 0.0
C205 C 0.64933 0.56884 0.03006 0.0
C206 C 0.6466 0.60917 0.03916 0.0
C207 C 0.61824 0.61643 0.05718 0.0
C208 C 0.44602 0.40266 0.01603 0.0
H209 H 0.51487 0.54516 0.16645 0.0
H210 H 0.52408 0.54406 0.12659 0.0
H211 H 0.54059 0.41113 0.12714 0.0
H212 H 0.52969 0.41205 0.16702 0.0
H213 H 0.5843 0.53049 0.10065 0.0
H214 H 0.49629 0.42432 0.09262 0.0
H215 H 0.55178 0.48045 0.03551 0.0
H216 H 0.47517 0.46231 0.02334 0.0
H217 H 0.5126 0.36513 0.06855 0.0
H218 H 0.46268 0.31733 0.04766 0.0
H219 H 0.57155 0.59111 0.07969 0.0
H220 H 0.62824 0.50558 0.03189 0.0
H221 H 0.4277 0.4137 1.00142 0.0
H222 H 0.61583 0.64693 0.06485 0.0
H223 H 0.6705 0.56224 0.01604 0.0
H224 H 0.12785 0.10633 0.0383 0.0
H225 H 0.18949 0.15714 0.03601 0.0
H226 H 0.15604 0.17208 0.96658 0.0
H227 H 0.0951 0.12046 0.96857 0.0
H228 H 0.24765 0.16504 0.97427 0.0
H229 H 0.17628 0.28118 0.0323 0.0
H230 H 0.18251 0.23133 0.04456 0.0
H231 H 0.14306 0.23787 0.02128 0.0
C232 C 0.13339 0.12062 0.02258 0.0
C233 C 0.10643 0.10958 0.00365 0.0
C234 C 0.16849 0.14979 0.02131 0.0
C235 C 0.17677 0.16892 1.00121 0.0
C236 C 0.15005 0.15783 0.98227 0.0
H237 H 0.35538 0.38375 0.00666 0.0
H238 H 0.29178 0.33804 0.99592 0.0
C239 C 0.11519 0.1284 0.98347 0.0
C240 C 0.21403 0.19981 0.99989 0.0
H241 H 0.25551 0.28902 0.02406 0.0
C242 C 0.24918 0.19245 0.98496 0.0
C243 C 0.21543 0.23597 0.01348 0.0
C244 C 0.17703 0.24733 0.02863 0.0
C245 C 0.28673 0.21947 0.98394 0.0
C246 C 0.28963 0.25415 0.99861 0.0
C247 C 0.25354 0.26227 0.01291 0.0
C248 C 0.33054 0.28144 1.00045 0.0
C249 C 0.32271 0.21061 0.96711 0.0
C250 C 0.3741 0.26489 0.00568 0.0
C251 C 0.41104 0.29105 0.01131 0.0
C252 C 0.40483 0.33426 0.01236 0.0
C253 C 0.36178 0.35073 0.00583 0.0
C254 C 0.3251 0.32457 0.99988 0.0
H255 H 0.3079 0.19312 0.95253 0.0
H256 H 0.33836 0.23959 0.96133 0.0
H257 H 0.35025 0.19124 0.97472 0.0
H258 H 0.37906 0.23174 0.00663 0.0
H259 H 0.44391 0.27731 0.01584 0.0
H260 H 0.11156 0.91738 0.04029 0.0
H261 H 0.16325 0.85755 0.03913 0.0
H262 H 0.15951 0.86031 0.96784 0.0
H263 H 0.10759 0.91971 0.96875 0.0
H264 H 0.13925 0.78198 0.98621 0.0
H265 H 0.30043 0.85161 0.02275 0.0
H266 H 0.24894 0.85925 0.03793 0.0
H267 H 0.25396 0.88274 0.01152 0.0
C268 C 0.12215 0.90553 0.02437 0.0
C269 C 0.10541 0.92319 0.0046 0.0
C270 C 0.15179 0.87148 0.02377 0.0
C271 C 0.16531 0.85483 0.00342 0.0
C272 C 0.14941 0.87287 0.9837 0.0
H273 H 0.32569 0.6702 0.94345 0.0
H274 H 0.27528 0.72673 0.95472 0.0
C275 C 0.11981 0.90681 0.98427 0.0
C276 C 0.19401 0.81721 0.00237 0.0
H277 H 0.30284 0.78092 0.01223 0.0
C278 C 0.17491 0.78161 0.99207 0.0
C279 C 0.24031 0.81687 0.01025 0.0
C280 C 0.26245 0.85466 0.02113 0.0
C281 C 0.20138 0.74595 0.98877 0.0
C282 C 0.24816 0.7462 0.99576 0.0
C283 C 0.26684 0.78107 0.00695 0.0
C284 C 0.27911 0.71214 0.98947 0.0
C285 C 0.17949 0.70853 0.97738 0.0
C286 C 0.29832 0.68576 0.00542 0.0
C287 C 0.32726 0.65334 0.99902 0.0
C288 C 0.33773 0.64746 0.97665 0.0
C289 C 0.31865 0.67432 0.96083 0.0
C290 C 0.28962 0.70637 0.9672 0.0
H291 H 0.1414 0.70949 0.97802 0.0
H292 H 0.18879 0.70765 0.95974 0.0
H293 H 0.19214 0.67952 0.98505 0.0
H294 H 0.29061 0.69005 0.02271 0.0
H295 H 0.3418 0.6332 0.01153 0.0
H296 H 0.9121 0.90199 0.97236 0.0
H297 H 0.86065 0.84257 0.97452 0.0
H298 H 0.83761 0.87362 0.043 0.0
H299 H 0.89017 0.93219 0.04118 0.0
H300 H 0.85798 0.79387 0.0376 0.0
H301 H 0.72261 0.83681 0.97541 0.0
H302 H 0.77925 0.83551 0.96463 0.0
H303 H 0.76569 0.873 0.98586 0.0
C304 C 0.89566 0.89639 0.98781 0.0
C305 C 0.90516 0.92168 0.00662 0.0
C306 C 0.86605 0.86258 0.98897 0.0
C307 C 0.84479 0.85403 0.00882 0.0
C308 C 0.85361 0.87974 0.02749 0.0
H309 H 0.62144 0.69025 0.03395 0.0
H310 H 0.6707 0.74806 0.02488 0.0
C311 C 0.88362 0.91318 0.02643 0.0
C312 C 0.81555 0.81691 0.01068 0.0
H313 H 0.71909 0.76866 0.98936 0.0
C314 C 0.82755 0.78838 0.02707 0.0
C315 C 0.77574 0.81002 0.99701 0.0
C316 C 0.75974 0.84064 0.97988 0.0
C317 C 0.80064 0.75331 0.03037 0.0
C318 C 0.76145 0.74583 0.01635 0.0
C319 C 0.74952 0.77422 0.99986 0.0
C320 C 0.73084 0.71012 0.01958 0.0
C321 C 0.81364 0.72547 0.04934 0.0
C322 C 0.74791 0.66948 0.01888 0.0
C323 C 0.72013 0.63642 0.02455 0.0
C324 C 0.67453 0.6434 0.03066 0.0
C325 C 0.65674 0.68391 0.0299 0.0
C326 C 0.6847 0.71695 0.02449 0.0
H327 H 0.83695 0.74129 0.06176 0.0
H328 H 0.78269 0.71489 0.05782 0.0
H329 H 0.83188 0.6978 0.04287 0.0
H330 H 0.78315 0.66346 0.0146 0.0
H331 H 0.73502 0.60569 0.02499 0.0
H332 H 0.87989 0.10184 0.97195 0.0
H333 H 0.81649 0.15136 0.97368 0.0
H334 H 0.84376 0.16946 0.04378 0.0
H335 H 0.90663 0.11928 0.04234 0.0
H336 H 0.75165 0.16 0.03339 0.0
H337 H 0.82887 0.27629 0.97991 0.0
H338 H 0.82504 0.22588 0.96693 0.0
H339 H 0.86144 0.23373 0.99133 0.0
C340 C 0.87258 0.1165 0.98772 0.0
C341 C 0.89849 0.10688 0.00697 0.0
C342 C 0.83645 0.14489 0.98866 0.0
C343 C 0.82598 0.16454 0.0088 0.0
C344 C 0.85147 0.15474 0.02808 0.0
H345 H 0.64921 0.38002 0.00522 0.0
H346 H 0.71071 0.33298 0.01622 0.0
C347 C 0.88744 0.12616 0.02718 0.0
C348 C 0.78814 0.19507 0.00971 0.0
H349 H 0.7492 0.2845 0.98681 0.0
C350 C 0.75121 0.18749 0.02339 0.0
C351 C 0.78815 0.23125 0.99699 0.0
C352 C 0.82822 0.24256 0.98314 0.0
C353 C 0.7134 0.21449 0.02407 0.0
C354 C 0.71226 0.24942 0.01036 0.0
C355 C 0.74994 0.2576 0.99725 0.0
C356 C 0.67185 0.27721 0.0084 0.0
C357 C 0.67528 0.2054 0.03951 0.0
C358 C 0.62881 0.26149 1.00124 0.0
C359 C 0.59299 0.28841 0.9954 0.0
C360 C 0.59992 0.33154 0.99613 0.0
C361 C 0.64224 0.34709 0.00463 0.0
C362 C 0.67774 0.32018 0.01076 0.0
H363 H 0.68802 0.18697 0.05377 0.0
H364 H 0.65939 0.23434 0.0459 0.0
H365 H 0.6483 0.18692 0.03043 0.0
H366 H 0.6236 0.22847 0.99894 0.0
H367 H 0.56058 0.27537 0.98932 0.0
H368 H 0.62734 0.59691 0.46715 0.0
H369 H 0.69432 0.64196 0.46494 0.0
H370 H 0.68798 0.67072 0.53475 0.0
H371 H 0.62188 0.62471 0.53726 0.0
H372 H 0.70519 0.72263 0.47261 0.0
H373 H 0.82048 0.63766 0.53032 0.0
H374 H 0.76662 0.6164 0.51971 0.0
H375 H 0.76795 0.65202 0.54308 0.0
C376 C 0.64024 0.61279 0.48206 0.0
C377 C 0.61948 0.60707 0.50243 0.0
C378 C 0.67857 0.63847 0.48075 0.0
C379 C 0.6968 0.659 0.49976 0.0
C380 C 0.67537 0.65421 0.52 0.0
H381 H 0.8518 0.87888 0.51677 0.0
H382 H 0.79487 0.82607 0.50676 0.0
C383 C 0.63734 0.62818 0.52137 0.0
C384 C 0.7374 0.68637 0.49835 0.0
H385 H 0.84218 0.7077 0.52293 0.0
C386 C 0.73543 0.71904 0.4834 0.0
C387 C 0.77742 0.68106 0.51196 0.0
C388 C 0.78351 0.64459 0.52698 0.0
C389 C 0.77131 0.74789 0.48259 0.0
C390 C 0.80955 0.74458 0.49755 0.0
C391 C 0.81264 0.71058 0.51162 0.0
C392 C 0.84463 0.77771 0.5004 0.0
C393 C 0.76764 0.7817 0.4658 0.0
C394 C 0.89176 0.76821 0.50026 0.0
C395 C 0.92455 0.79842 0.50626 0.0
C396 C 0.91066 0.83859 0.51247 0.0
C397 C 0.8636 0.84844 0.51164 0.0
C398 C 0.83095 0.81823 0.50585 0.0
H399 H 0.74718 0.77127 0.45085 0.0
H400 H 0.74968 0.80876 0.47312 0.0
H401 H 0.80202 0.79179 0.46064 0.0
H402 H 0.9031 0.73709 0.4962 0.0
H403 H 0.96064 0.7901 0.50667 0.0
H404 H 0.61115 0.4156 0.54046 0.0
H405 H 0.66532 0.35742 0.53927 0.0
H406 H 0.66723 0.36482 0.46822 0.0
H407 H 0.61328 0.42275 0.46917 0.0
H408 H 0.651 0.27982 0.51431 0.0
H409 H 0.8051 0.36567 0.48946 0.0
H410 H 0.75655 0.39089 0.50184 0.0
H411 H 0.754 0.3762 0.47299 0.0
C412 C 0.62336 0.405 0.5246 0.0
C413 C 0.608 0.42379 0.5049 0.0
C414 C 0.6542 0.37179 0.52397 0.0
C415 C 0.67056 0.35731 0.5037 0.0
C416 C 0.65546 0.37607 0.48405 0.0
H417 H 0.82511 0.16866 0.44289 0.0
H418 H 0.77991 0.22838 0.45458 0.0
C419 C 0.62447 0.40901 0.48463 0.0
C420 C 0.70204 0.32148 0.50274 0.0
H421 H 0.80704 0.29206 0.48467 0.0
C422 C 0.68544 0.2824 0.5082 0.0
C423 C 0.74687 0.32525 0.49482 0.0
C424 C 0.76696 0.36681 0.48962 0.0
C425 C 0.71165 0.24648 0.50468 0.0
C426 C 0.75576 0.2501 0.49585 0.0
C427 C 0.7731 0.28944 0.49136 0.0
C428 C 0.78295 0.21342 0.4893 0.0
C429 C 0.69105 0.20485 0.50932 0.0
C430 C 0.79966 0.18524 0.505 0.0
C431 C 0.82564 0.15095 0.49835 0.0
C432 C 0.83558 0.14468 0.47593 0.0
C433 C 0.81864 0.17301 0.46032 0.0
C434 C 0.79268 0.20705 0.46695 0.0
H435 H 0.65365 0.20701 0.51225 0.0
H436 H 0.69634 0.18276 0.49531 0.0
H437 H 0.70835 0.192 0.52431 0.0
H438 H 0.79308 0.19003 0.52238 0.0
H439 H 0.83865 0.12983 0.51075 0.0
H440 H 0.41724 0.42088 0.54323 0.0
H441 H 0.36055 0.36564 0.5451 0.0
H442 H 0.32653 0.3782 0.47556 0.0
H443 H 0.38434 0.43278 0.47338 0.0
H444 H 0.26904 0.36523 0.53699 0.0
H445 H 0.35364 0.25572 0.47913 0.0
H446 H 0.38159 0.30199 0.49001 0.0
H447 H 0.33963 0.30507 0.46756 0.0
C448 C 0.39774 0.41192 0.52831 0.0
C449 C 0.40553 0.43094 0.50811 0.0
C450 C 0.36531 0.38037 0.52942 0.0
C451 C 0.33989 0.36734 0.5104 0.0
C452 C 0.34659 0.38707 0.49032 0.0
H453 H 0.10408 0.20175 0.52426 0.0
H454 H 0.15133 0.26106 0.51468 0.0
C455 C 0.37943 0.4184 0.48913 0.0
C456 C 0.30652 0.33303 0.51182 0.0
H457 H 0.28238 0.23496 0.49271 0.0
C458 C 0.27179 0.33679 0.52725 0.0
C459 C 0.31054 0.29584 0.49922 0.0
C460 C 0.34858 0.2891 0.48319 0.0
C461 C 0.24147 0.30409 0.53078 0.0
C462 C 0.24519 0.26705 0.51803 0.0
C463 C 0.27938 0.26355 0.5023 0.0
C464 C 0.21621 0.23046 0.52192 0.0
C465 C 0.20711 0.30897 0.54879 0.0
C466 C 0.23704 0.19308 0.52818 0.0
C467 C 0.2102 0.15909 0.5333 0.0
C468 C 0.16203 0.16196 0.53235 0.0
C469 C 0.14117 0.19898 0.52541 0.0
C470 C 0.16808 0.23285 0.52003 0.0
H471 H 0.21641 0.33479 0.56053 0.0
H472 H 0.17278 0.31588 0.54119 0.0
H473 H 0.20443 0.28008 0.55829 0.0
H474 H 0.27413 0.19056 0.5297 0.0
H475 H 0.22715 0.13104 0.53877 0.0
H476 H 0.39001 0.60914 0.4713 0.0
H477 H 0.32591 0.65789 0.47277 0.0
H478 H 0.35262 0.67716 0.54284 0.0
H479 H 0.41619 0.6276 0.54164 0.0
H480 H 0.26173 0.66543 0.53308 0.0
H481 H 0.33148 0.78265 0.47793 0.0
H482 H 0.32937 0.73204 0.46514 0.0
H483 H 0.36629 0.74139 0.48924 0.0
C484 C 0.38257 0.62403 0.48699 0.0
C485 C 0.40838 0.61469 0.50633 0.0
C486 C 0.34601 0.65202 0.48779 0.0
C487 C 0.33498 0.67167 0.50785 0.0
C488 C 0.36071 0.66248 0.52717 0.0
H489 H 0.14616 0.87951 0.50331 0.0
H490 H 0.21105 0.83565 0.51358 0.0
C491 C 0.3971 0.63425 0.52643 0.0
C492 C 0.29574 0.7009 0.50871 0.0
H493 H 0.25128 0.78748 0.48481 0.0
C494 C 0.25959 0.69241 0.52272 0.0
C495 C 0.29339 0.73647 0.4955 0.0
C496 C 0.33244 0.74896 0.48129 0.0
C497 C 0.22038 0.71778 0.52326 0.0
C498 C 0.21686 0.75194 0.50905 0.0
C499 C 0.25374 0.76112 0.49561 0.0
C500 C 0.17491 0.77795 0.50705 0.0
C501 C 0.18333 0.70781 0.53913 0.0
C502 C 0.13231 0.76016 0.50077 0.0
C503 C 0.09455 0.78527 0.49538 0.0
C504 C 0.09895 0.82868 0.49567 0.0
C505 C 0.14105 0.84631 0.50313 0.0
C506 C 0.17852 0.82121 0.50881 0.0
H507 H 0.19755 0.69071 0.55358 0.0
H508 H 0.16607 0.73632 0.54524 0.0
H509 H 0.15715 0.68772 0.53054 0.0
H510 H 0.12878 0.72689 0.49892 0.0
H511 H 0.06249 0.7706 0.49008 0.0
H512 H 0.95594 0.96515 0.12797 0.0
H513 H 0.95654 0.95798 0.16812 0.0
H514 H 0.07143 0.04189 0.17507 0.0
H515 H 0.07017 0.05032 0.13492 0.0
H516 H 0.02746 0.92982 0.19656 0.0
H517 H 0.9785 0.09198 0.2175 0.0
H518 H 0.97226 0.07035 0.18979 0.0
H519 H 0.02774 0.08681 0.20056 0.0
C520 C 0.98096 0.98256 0.13803 0.0
C521 C 0.01274 0.00864 0.12821 0.0
C522 C 0.98149 0.97814 0.16097 0.0
C523 C 0.01361 -0.00018 0.1746 0.0
C524 C 0.04583 0.02542 0.16488 0.0
H525 H 0.05818 0.01543 0.3176 0.0
H526 H 0.06502 0.02052 0.27756 0.0
C527 C 0.04536 0.02986 0.14191 0.0
C528 C 0.01349 -0.00478 0.19894 0.0
H529 H -0.00203 0.04869 0.24744 0.0
C530 C 0.02098 0.95578 0.2077 0.0
C531 C 0.00508 0.02916 0.21343 0.0
C532 C 0.99503 0.07193 0.2049 0.0
C533 C 0.02067 0.94941 0.2306 0.0
C534 C 0.01187 0.98328 0.24506 0.0
C535 C 0.00479 0.02279 0.23631 0.0
C536 C 0.00901 0.97841 0.26931 0.0
C537 C 0.03044 0.90662 0.23913 0.0
C538 C 0.97516 0.9531 0.27797 0.0
C539 C 0.97103 0.95024 0.30085 0.0
C540 C 0.00046 0.97292 0.31554 0.0
C541 C 0.03461 -0.00206 0.30677 0.0
C542 C 0.03872 0.00075 0.28389 0.0
H543 H 0.04852 0.88707 0.22683 0.0
H544 H 0.05165 0.90812 0.25475 0.0
H545 H -0.00253 0.89124 0.24256 0.0
H546 H 0.9512 0.9363 0.26701 0.0
H547 H 0.94387 0.93125 0.30702 0.0
H548 H 0.93846 0.04746 0.87722 0.0
H549 H 0.93807 0.04186 0.83677 0.0
H550 H 0.05406 0.95881 0.84067 0.0
H551 H 0.05384 0.96317 0.88105 0.0
H552 H 0.0088 0.06268 0.80904 0.0
H553 H 0.96387 0.89634 0.79878 0.0
H554 H 0.95649 0.92499 0.82438 0.0
H555 H 0.01237 0.90618 0.8173 0.0
C556 C 0.96345 0.02751 0.86948 0.0
C557 C -0.00388 0.0057 0.8824 0.0
C558 C 0.96335 0.02455 0.84637 0.0
C559 C 0.99562 -0.00053 0.83572 0.0
C560 C 0.02831 0.97774 0.84854 0.0
H561 H 0.06917 0.94977 0.70018 0.0
H562 H 0.06291 0.95222 0.74044 0.0
C563 C 0.02848 0.9807 0.87163 0.0
C564 C -0.00372 -0.00274 0.81121 0.0
H565 H 0.98886 0.93016 0.76677 0.0
C566 C 0.00409 0.03378 0.79976 0.0
C567 C 0.99026 0.95947 0.79917 0.0
C568 C 0.97985 0.91955 0.81049 0.0
C569 C 0.00712 0.03341 0.77664 0.0
C570 C 0.00139 -0.00441 0.76462 0.0
C571 C 0.99331 0.95909 0.77604 0.0
C572 C 0.00408 0.99324 0.74018 0.0
C573 C 0.01767 0.07332 0.76533 0.0
C574 C 0.97251 0.01483 0.72666 0.0
C575 C 0.97586 0.01336 0.70366 0.0
C576 C 0.01073 0.99006 0.69369 0.0
C577 C 0.04167 0.9677 0.70728 0.0
C578 C 0.03829 0.96922 0.7303 0.0
H579 H 0.03218 0.09706 0.77716 0.0
H580 H 0.04236 0.06798 0.75197 0.0
H581 H 0.98548 0.08595 0.75775 0.0
H582 H 0.9452 0.0328 0.73392 0.0
H583 H 0.95094 0.0303 0.69366 0.0
H584 H 0.57147 0.46828 0.62913 0.0
H585 H 0.57016 0.46013 0.66927 0.0
H586 H 0.47013 0.55835 0.6737 0.0
H587 H 0.47108 0.56656 0.63362 0.0
H588 H 0.58952 0.5153 0.70392 0.0
H589 H 0.40785 0.46418 0.70466 0.0
H590 H 0.43925 0.46665 0.67952 0.0
H591 H 0.41504 0.51289 0.6915 0.0
C592 C 0.54949 0.48839 0.63869 0.0
C593 C 0.52111 0.51788 0.62818 0.0
C594 C 0.54864 0.48356 0.66159 0.0
C595 C 0.51936 0.50804 0.6744 0.0
C596 C 0.49205 0.53836 0.66406 0.0
H597 H 0.46199 0.54078 0.81221 0.0
H598 H 0.46851 0.54504 0.77213 0.0
C599 C 0.49271 0.54307 0.64116 0.0
C600 C 0.51746 0.50206 0.69859 0.0
H601 H 0.44399 0.48087 0.73966 0.0
C602 C 0.55782 0.50743 0.71174 0.0
C603 C 0.47607 0.49158 0.70871 0.0
C604 C 0.43218 0.48307 0.69536 0.0
C605 C 0.55755 0.50389 0.73484 0.0
C606 C 0.51595 0.49434 0.74496 0.0
C607 C 0.47578 0.48836 0.73181 0.0
C608 C 0.51298 0.49162 0.76927 0.0
C609 C 0.6014 0.51153 0.74834 0.0
C610 C 0.53553 0.4599 0.78087 0.0
C611 C 0.5319 0.45738 0.80382 0.0
C612 C 0.50574 0.48663 0.81551 0.0
C613 C 0.48299 0.51818 0.80374 0.0
C614 C 0.48645 0.52053 0.78084 0.0
H615 H 0.62827 0.52611 0.7385 0.0
H616 H 0.59479 0.53178 0.76297 0.0
H617 H 0.61496 0.48159 0.75444 0.0
H618 H 0.55568 0.43697 0.77216 0.0
H619 H 0.54996 0.43284 0.81244 0.0
H620 H 0.55464 0.45813 0.38206 0.0
H621 H 0.55558 0.45224 0.34174 0.0
H622 H 0.44851 0.54426 0.33637 0.0
H623 H 0.4475 0.5506 0.37681 0.0
H624 H 0.43448 0.47399 0.3081 0.0
H625 H 0.6098 0.53881 0.30135 0.0
H626 H 0.60661 0.49626 0.31986 0.0
H627 H 0.57763 0.54402 0.32624 0.0
C628 C 0.53156 0.47743 0.37233 0.0
C629 C 0.50132 0.50516 0.38266 0.0
C630 C 0.53213 0.47398 0.34928 0.0
C631 C 0.50269 0.49834 0.33609 0.0
C632 C 0.47165 0.52532 0.34629 0.0
H633 H 0.46084 0.52486 0.19388 0.0
H634 H 0.45489 0.52896 0.2341 0.0
C635 C 0.47101 0.52878 0.36938 0.0
C636 C 0.50435 0.49551 0.31164 0.0
H637 H 0.57546 0.50882 0.26866 0.0
C638 C 0.46518 0.48179 0.29943 0.0
C639 C 0.54449 0.50574 0.30042 0.0
C640 C 0.58692 0.5224 0.31259 0.0
C641 C 0.46542 0.47712 0.27629 0.0
C642 C 0.50568 0.48707 0.2651 0.0
C643 C 0.54473 0.50101 0.27731 0.0
C644 C 0.5081 0.48355 0.24069 0.0
C645 C 0.42297 0.46067 0.26407 0.0
C646 C 0.54053 0.4572 0.23106 0.0
C647 C 0.54437 0.4551 0.20809 0.0
C648 C 0.51606 0.4796 0.1943 0.0
C649 C 0.48343 0.50584 0.20403 0.0
C650 C 0.4796 0.50788 0.227 0.0
H651 H 0.39973 0.44467 0.27529 0.0
H652 H 0.40372 0.48686 0.2566 0.0
H653 H 0.43224 0.43875 0.25054 0.0
H654 H 0.5631 0.43841 0.24136 0.0
H655 H 0.57027 0.43502 0.20117 0.0
loop_
_geom_bond_atom_site_label_1
_geom_bond_atom_site_label_2
_geom_bond_distance
_geom_bond_site_symmetry_2
_ccdc_geom_bond_type
C0 O16 1.251 . S
C0 O18 1.254 1_554 S
N1 C2 1.333 1_445 S
N1 C6 1.307 . S
N1 Zn7 2.020 . S
C2 N1 1.333 1_665 S
C2 C3 1.379 . S
C2 H20 0.952 . S
C3 C2 1.379 . S
C3 C4 1.390 1_665 S
C3 H30 0.949 . S
C4 C3 1.390 1_445 S
C4 C5 1.357 . S
C5 C4 1.357 . S
C5 C6 1.370 . S
C5 H31 0.950 . S
C6 N1 1.307 . S
C6 C5 1.370 . S
C6 H24 0.948 . S
Zn7 N1 2.020 . S
Zn7 O16 2.039 1_445 S
Zn7 O22 2.034 1_455 S
Zn7 O26 2.025 . S
Zn7 O28 2.024 1_545 S
C8 O27 1.246 1_554 S
C8 O28 1.249 . S
N9 C10 1.307 1_445 S
N9 C11 1.333 . S
N9 Zn15 2.020 . S
C10 N9 1.307 1_665 S
C10 C14 1.370 . S
C10 H21 0.948 . S
C11 N9 1.333 . S
C11 C12 1.379 . S
C11 H19 0.952 . S
C12 C11 1.379 . S
C12 C13 1.390 . S
C12 H32 0.949 . S
C13 C12 1.390 . S
C13 C14 1.357 1_445 S
C14 C10 1.370 . S
C14 C13 1.357 1_665 S
C14 H33 0.950 . S
Zn15 N9 2.020 . S
Zn15 O18 2.025 1_445 S
Zn15 O23 2.024 1_455 S
Zn15 O25 2.039 . S
Zn15 O27 2.034 1_545 S
O16 C0 1.251 . S
O16 Zn7 2.039 1_665 S
C17 O22 1.246 . S
C17 O23 1.249 1_554 S
O18 C0 1.254 1_556 S
O18 Zn15 2.025 1_665 S
H19 C11 0.952 . S
H20 C2 0.952 . S
H21 C10 0.948 . S
O22 Zn7 2.034 1_655 S
O22 C17 1.246 . S
O23 Zn15 2.024 1_655 S
O23 C17 1.249 1_556 S
H24 C6 0.948 . S
O25 Zn15 2.039 . S
O25 C29 1.251 1_556 S
O26 Zn7 2.025 . S
O26 C29 1.254 . S
O27 C8 1.246 1_556 S
O27 Zn15 2.034 1_565 S
O28 Zn7 2.024 1_565 S
O28 C8 1.249 . S
C29 O25 1.251 1_554 S
C29 O26 1.254 . S
H30 C3 0.949 . S
H31 C5 0.950 . S
H32 C12 0.949 . S
H33 C14 0.950 . S
C34 O50 1.251 . S
C34 O52 1.254 . S
N35 C36 1.333 . S
N35 C40 1.307 . S
N35 Zn41 2.020 . S
C36 N35 1.333 . S
C36 C37 1.379 . S
C36 H54 0.952 . S
C37 C36 1.379 . S
C37 C38 1.390 . S
C37 H64 0.949 . S
C38 C37 1.390 . S
C38 C39 1.357 . S
C39 C38 1.357 . S
C39 C40 1.370 . S
C39 H65 0.950 . S
C40 N35 1.307 . S
C40 C39 1.370 . S
C40 H58 0.948 . S
Zn41 N35 2.020 . S
Zn41 O50 2.039 . S
Zn41 O56 2.034 . S
Zn41 O60 2.025 . S
Zn41 O62 2.024 . S
C42 O61 1.246 . S
C42 O62 1.249 . S
N43 C44 1.307 . S
N43 C45 1.333 . S
N43 Zn49 2.020 . S
C44 N43 1.307 . S
C44 C48 1.370 . S
C44 H55 0.948 . S
C45 N43 1.333 . S
C45 C46 1.379 . S
C45 H53 0.952 . S
C46 C45 1.379 . S
C46 C47 1.390 . S
C46 H66 0.949 . S
C47 C46 1.390 . S
C47 C48 1.357 . S
C48 C44 1.370 . S
C48 C47 1.357 . S
C48 H67 0.950 . S
Zn49 N43 2.020 . S
Zn49 O52 2.025 . S
Zn49 O57 2.024 . S
Zn49 O59 2.039 . S
Zn49 O61 2.034 . S
O50 C34 1.251 . S
O50 Zn41 2.039 . S
C51 O56 1.246 . S
C51 O57 1.249 . S
O52 C34 1.254 . S
O52 Zn49 2.025 . S
H53 C45 0.952 . S
H54 C36 0.952 . S
H55 C44 0.948 . S
O56 Zn41 2.034 . S
O56 C51 1.246 . S
O57 Zn49 2.024 . S
O57 C51 1.249 . S
H58 C40 0.948 . S
O59 Zn49 2.039 . S
O59 C63 1.251 . S
O60 Zn41 2.025 . S
O60 C63 1.254 . S
O61 C42 1.246 . S
O61 Zn49 2.034 . S
O62 Zn41 2.024 . S
O62 C42 1.249 . S
C63 O59 1.251 . S
C63 O60 1.254 . S
H64 C37 0.949 . S
H65 C39 0.950 . S
H66 C46 0.949 . S
H67 C48 0.950 . S
C68 C69 1.362 1_565 S
C68 C70 1.397 . S
C68 H92 0.931 . S
C69 C68 1.362 1_545 S
C69 C73 1.420 1_655 S
C70 C68 1.397 . S
C70 C71 1.403 1_655 S
C70 H93 0.930 . S
C71 C70 1.403 1_455 S
C71 C72 1.358 1_565 S
C71 C74 1.481 . S
C72 C71 1.358 1_545 S
C72 C73 1.389 . S
C72 H94 0.929 . S
C73 C69 1.420 1_455 S
C73 C72 1.389 . S
C73 H95 0.931 . S
C74 C71 1.481 . S
C74 C75 1.388 . S
C74 C79 1.389 1_465 S
C75 C74 1.388 . S
C75 C76 1.401 . S
C75 H96 0.930 . S
C76 C75 1.401 . S
C76 C77 1.371 1_455 S
C76 C85 1.511 . S
C77 C76 1.371 1_655 S
C77 C78 1.397 1_565 S
C77 H98 0.932 . S
C78 C77 1.397 1_545 S
C78 C79 1.361 . S
C78 C80 1.500 . S
C79 C74 1.389 1_645 S
C79 C78 1.361 . S
C79 H97 0.931 . S
C80 C78 1.500 . S
C80 C81 1.371 . S
C80 C82 1.365 . S
C81 C80 1.371 . S
C81 C91 1.386 . S
C81 H99 0.931 . S
C82 C80 1.365 . S
C82 C83 1.409 . S
C82 H100 0.929 . S
C83 C82 1.409 . S
C83 C84 1.380 . S
C83 H101 0.930 . S
C84 C83 1.380 . S
C84 C91 1.357 . S
C85 C76 1.511 . S
C85 C86 1.341 . S
C85 C87 1.371 . S
C86 C85 1.341 . S
C86 C90 1.394 . S
C86 H102 0.930 . S
C87 C85 1.371 . S
C87 C88 1.392 . S
C87 H103 0.931 . S
C88 C87 1.392 . S
C88 C89 1.331 . S
C88 H106 0.932 . S
C89 C88 1.331 . S
C89 C90 1.336 . S
C90 C86 1.394 . S
C90 C89 1.336 . S
C90 H105 0.929 . S
C91 C81 1.386 . S
C91 C84 1.357 . S
C91 H104 0.928 . S
H92 C68 0.931 . S
H93 C70 0.930 . S
H94 C72 0.929 . S
H95 C73 0.931 . S
H96 C75 0.930 . S
H97 C79 0.931 . S
H98 C77 0.932 . S
H99 C81 0.931 . S
H100 C82 0.929 . S
H101 C83 0.930 . S
H102 C86 0.930 . S
H103 C87 0.931 . S
H104 C91 0.928 . S
H105 C90 0.929 . S
H106 C88 0.932 . S
C107 C108 1.386 . S
C107 C109 1.397 . S
C107 H131 0.931 . S
C108 C107 1.386 . S
C108 C112 1.397 1_545 S
C109 C107 1.397 . S
C109 C110 1.384 . S
C109 H132 0.930 . S
C110 C109 1.384 . S
C110 C111 1.377 1_545 S
C110 C113 1.481 . S
C111 C110 1.377 1_565 S
C111 C112 1.389 . S
C111 H133 0.929 . S
C112 C108 1.397 1_565 S
C112 C111 1.389 . S
C112 H134 0.931 . S
C113 C110 1.481 . S
C113 C114 1.387 . S
C113 C118 1.390 1_445 S
C114 C113 1.387 . S
C114 C115 1.401 . S
C114 H135 0.930 . S
C115 C114 1.401 . S
C115 C116 1.376 . S
C115 C124 1.511 . S
C116 C115 1.376 . S
C116 C117 1.392 1_445 S
C116 H137 0.931 . S
C117 C116 1.392 1_665 S
C117 C118 1.361 . S
C117 C119 1.500 . S
C118 C113 1.390 1_665 S
C118 C117 1.361 . S
C118 H136 0.931 . S
C119 C117 1.500 . S
C119 C120 1.371 . S
C119 C121 1.365 . S
C120 C119 1.371 . S
C120 C130 1.386 . S
C120 H138 0.931 . S
C121 C119 1.365 . S
C121 C122 1.409 . S
C121 H139 0.929 . S
C122 C121 1.409 . S
C122 C123 1.380 . S
C122 H140 0.930 . S
C123 C122 1.380 . S
C123 C130 1.357 . S
C124 C115 1.511 . S
C124 C125 1.341 . S
C124 C126 1.371 . S
C125 C124 1.341 . S
C125 C129 1.394 . S
C125 H141 0.930 . S
C126 C124 1.371 . S
C126 C127 1.392 . S
C126 H142 0.931 . S
C127 C126 1.392 . S
C127 C128 1.331 . S
C127 H145 0.932 . S
C128 C127 1.331 . S
C128 C129 1.336 . S
C129 C125 1.394 . S
C129 C128 1.336 . S
C129 H144 0.929 . S
C130 C120 1.386 . S
C130 C123 1.357 . S
C130 H143 0.928 . S
H131 C107 0.931 . S
H132 C109 0.930 . S
H133 C111 0.929 . S
H134 C112 0.931 . S
H135 C114 0.930 . S
H136 C118 0.931 . S
H137 C116 0.931 . S
H138 C120 0.931 . S
H139 C121 0.929 . S
H140 C122 0.930 . S
H141 C125 0.930 . S
H142 C126 0.931 . S
H143 C130 0.928 . S
H144 C129 0.929 . S
H145 C127 0.932 . S
C146 C147 1.386 . S
C146 C148 1.397 . S
C146 H170 0.931 . S
C147 C146 1.386 . S
C147 C151 1.397 . S
C148 C146 1.397 . S
C148 C149 1.384 . S
C148 H171 0.930 . S
C149 C148 1.384 . S
C149 C150 1.377 . S
C149 C152 1.481 . S
C150 C149 1.377 . S
C150 C151 1.389 . S
C150 H172 0.929 . S
C151 C147 1.397 . S
C151 C150 1.389 . S
C151 H173 0.931 . S
C152 C149 1.481 . S
C152 C153 1.387 . S
C152 C157 1.390 . S
C153 C152 1.387 . S
C153 C154 1.401 . S
C153 H174 0.930 . S
C154 C153 1.401 . S
C154 C155 1.376 . S
C154 C163 1.511 . S
C155 C154 1.376 . S
C155 C156 1.392 . S
C155 H176 0.931 . S
C156 C155 1.392 . S
C156 C157 1.361 . S
C156 C158 1.500 . S
C157 C152 1.390 . S
C157 C156 1.361 . S
C157 H175 0.931 . S
C158 C156 1.500 . S
C158 C159 1.371 . S
C158 C160 1.365 . S
C159 C158 1.371 . S
C159 C169 1.386 . S
C159 H177 0.931 . S
C160 C158 1.365 . S
C160 C161 1.409 . S
C160 H178 0.929 . S
C161 C160 1.409 . S
C161 C162 1.380 . S
C161 H179 0.930 . S
C162 C161 1.380 . S
C162 C169 1.357 . S
C163 C154 1.511 . S
C163 C164 1.341 . S
C163 C165 1.371 . S
C164 C163 1.341 . S
C164 C168 1.394 . S
C164 H180 0.930 . S
C165 C163 1.371 . S
C165 C166 1.392 . S
C165 H181 0.931 . S
C166 C165 1.392 . S
C166 C167 1.331 . S
C166 H184 0.932 1_556 S
C167 C166 1.331 . S
C167 C168 1.336 . S
C168 C164 1.394 . S
C168 C167 1.336 . S
C168 H183 0.929 . S
C169 C159 1.386 . S
C169 C162 1.357 . S
C169 H182 0.928 1_556 S
H170 C146 0.931 . S
H171 C148 0.930 . S
H172 C150 0.929 . S
H173 C151 0.931 . S
H174 C153 0.930 . S
H175 C157 0.931 . S
H176 C155 0.931 . S
H177 C159 0.931 . S
H178 C160 0.929 . S
H179 C161 0.930 . S
H180 C164 0.930 . S
H181 C165 0.931 . S
H182 C169 0.928 1_554 S
H183 C168 0.929 . S
H184 C166 0.932 1_554 S
C185 C186 1.386 . S
C185 C187 1.397 . S
C185 H209 0.931 . S
C186 C185 1.386 . S
C186 C190 1.397 . S
C187 C185 1.397 . S
C187 C188 1.384 . S
C187 H210 0.930 . S
C188 C187 1.384 . S
C188 C189 1.377 . S
C188 C191 1.481 . S
C189 C188 1.377 . S
C189 C190 1.389 . S
C189 H211 0.929 . S
C190 C186 1.397 . S
C190 C189 1.389 . S
C190 H212 0.931 . S
C191 C188 1.481 . S
C191 C192 1.387 . S
C191 C196 1.390 . S
C192 C191 1.387 . S
C192 C193 1.401 . S
C192 H213 0.930 . S
C193 C192 1.401 . S
C193 C194 1.376 . S
C193 C202 1.511 . S
C194 C193 1.376 . S
C194 C195 1.392 . S
C194 H215 0.931 . S
C195 C194 1.392 . S
C195 C196 1.361 . S
C195 C197 1.500 . S
C196 C191 1.390 . S
C196 C195 1.361 . S
C196 H214 0.931 . S
C197 C195 1.500 . S
C197 C198 1.371 . S
C197 C199 1.365 . S
C198 C197 1.371 . S
C198 C208 1.386 . S
C198 H216 0.931 . S
C199 C197 1.365 . S
C199 C200 1.409 . S
C199 H217 0.929 . S
C200 C199 1.409 . S
C200 C201 1.380 . S
C200 H218 0.930 . S
C201 C200 1.380 . S
C201 C208 1.357 . S
C202 C193 1.511 . S
C202 C203 1.341 . S
C202 C204 1.371 . S
C203 C202 1.341 . S
C203 C207 1.394 . S
C203 H219 0.930 . S
C204 C202 1.371 . S
C204 C205 1.392 . S
C204 H220 0.931 . S
C205 C204 1.392 . S
C205 C206 1.331 . S
C205 H223 0.932 . S
C206 C205 1.331 . S
C206 C207 1.336 . S
C207 C203 1.394 . S
C207 C206 1.336 . S
C207 H222 0.929 . S
C208 C198 1.386 . S
C208 C201 1.357 . S
C208 H221 0.928 . S
H209 C185 0.931 . S
H210 C187 0.930 . S
H211 C189 0.929 . S
H212 C190 0.931 . S
H213 C192 0.930 . S
H214 C196 0.931 . S
H215 C194 0.931 . S
H216 C198 0.931 . S
H217 C199 0.929 . S
H218 C200 0.930 . S
H219 C203 0.930 . S
H220 C204 0.931 . S
H221 C208 0.928 . S
H222 C207 0.929 . S
H223 C205 0.932 . S
H224 C232 0.929 . S
H225 C234 0.930 . S
H226 C236 0.930 . S
H227 C239 0.929 . S
H228 C242 0.941 . S
H229 C244 0.960 . S
H230 C244 0.960 . S
H231 C244 0.960 . S
C232 H224 0.929 . S
C232 C233 1.377 . S
C232 C234 1.384 . S
C233 C232 1.377 . S
C233 C239 1.390 1_554 S
C234 H225 0.930 . S
C234 C232 1.384 . S
C234 C235 1.372 . S
C235 C234 1.372 . S
C235 C236 1.400 1_554 S
C235 C240 1.490 . S
C236 H226 0.930 . S
C236 C235 1.400 1_556 S
C236 C239 1.386 . S
H237 C253 0.913 1_556 S
H238 C254 0.931 . S
C239 H227 0.929 . S
C239 C233 1.390 1_556 S
C239 C236 1.386 . S
C240 C235 1.490 . S
C240 C242 1.395 . S
C240 C243 1.403 . S
H241 C247 0.930 . S
C242 H228 0.941 . S
C242 C240 1.395 . S
C242 C245 1.403 . S
C243 C240 1.403 . S
C243 C244 1.524 . S
C243 C247 1.400 . S
C244 H229 0.960 . S
C244 H230 0.960 . S
C244 H231 0.960 . S
C244 C243 1.524 . S
C245 C242 1.403 . S
C245 C246 1.392 . S
C245 C249 1.493 1_554 S
C246 C245 1.392 . S
C246 C247 1.385 . S
C246 C248 1.478 . S
C247 H241 0.930 . S
C247 C243 1.400 . S
C247 C246 1.385 . S
C248 C246 1.478 . S
C248 C250 1.381 . S
C248 C254 1.383 1_554 S
C249 C245 1.493 1_556 S
C249 H255 0.961 . S
C249 H256 0.968 . S
C249 H257 0.953 1_556 S
C250 C248 1.381 . S
C250 C251 1.394 . S
C250 H258 0.930 . S
C251 C250 1.394 . S
C251 C252 1.383 . S
C251 H259 0.929 . S
C252 C251 1.383 . S
C252 C253 1.395 . S
C253 H237 0.913 1_554 S
C253 C252 1.395 . S
C253 C254 1.378 1_554 S
C254 H238 0.931 . S
C254 C248 1.383 1_556 S
C254 C253 1.378 1_556 S
H255 C249 0.961 . S
H256 C249 0.968 . S
H257 C249 0.953 1_554 S
H258 C250 0.930 . S
H259 C251 0.929 . S
H260 C268 0.929 . S
H261 C270 0.930 . S
H262 C272 0.930 . S
H263 C275 0.929 . S
H264 C278 0.930 . S
H265 C280 0.960 . S
H266 C280 0.960 . S
H267 C280 0.960 1_556 S
C268 H260 0.929 . S
C268 C269 1.377 . S
C268 C270 1.384 . S
C269 C268 1.377 . S
C269 C275 1.390 1_554 S
C270 H261 0.930 . S
C270 C268 1.384 . S
C270 C271 1.349 1_554 S
C271 C270 1.349 1_556 S
C271 C272 1.421 . S
C271 C276 1.493 . S
C272 H262 0.930 . S
C272 C271 1.421 . S
C272 C275 1.386 . S
H273 C289 0.930 . S
H274 C290 0.931 . S
C275 H263 0.929 . S
C275 C269 1.390 1_556 S
C275 C272 1.386 . S
C276 C271 1.493 . S
C276 C278 1.395 . S
C276 C279 1.401 1_556 S
H277 C283 0.933 . S
C278 H264 0.930 . S
C278 C276 1.395 . S
C278 C281 1.403 . S
C279 C276 1.401 1_554 S
C279 C280 1.529 . S
C279 C283 1.397 1_554 S
C280 H265 0.960 . S
C280 H266 0.960 . S
C280 H267 0.960 1_554 S
C280 C279 1.529 . S
C281 C278 1.403 . S
C281 C282 1.392 . S
C281 C285 1.495 . S
C282 C281 1.392 . S
C282 C283 1.385 . S
C282 C284 1.478 . S
C283 H277 0.933 . S
C283 C279 1.397 1_556 S
C283 C282 1.385 . S
C284 C282 1.478 . S
C284 C286 1.381 1_556 S
C284 C290 1.383 . S
C285 C281 1.495 . S
C285 H291 0.959 . S
C285 H292 0.961 . S
C285 H293 0.960 . S
C286 C284 1.381 1_554 S
C286 C287 1.394 . S
C286 H294 0.930 . S
C287 C286 1.394 . S
C287 C288 1.383 1_554 S
C287 H295 0.929 . S
C288 C287 1.383 1_556 S
C288 C289 1.377 . S
C289 H273 0.930 . S
C289 C288 1.377 . S
C289 C290 1.379 . S
C290 H274 0.931 . S
C290 C284 1.383 . S
C290 C289 1.379 . S
H291 C285 0.959 . S
H292 C285 0.961 . S
H293 C285 0.960 . S
H294 C286 0.930 . S
H295 C287 0.929 . S
H296 C304 0.929 . S
H297 C306 0.930 . S
H298 C308 0.930 . S
H299 C311 0.929 . S
H300 C314 0.930 . S
H301 C316 0.960 . S
H302 C316 0.960 . S
H303 C316 0.960 . S
C304 H296 0.929 . S
C304 C305 1.377 1_556 S
C304 C306 1.384 . S
C305 C304 1.377 1_554 S
C305 C311 1.390 . S
C306 H297 0.930 . S
C306 C304 1.384 . S
C306 C307 1.372 1_556 S
C307 C306 1.372 1_554 S
C307 C308 1.400 . S
C307 C312 1.490 . S
C308 H298 0.930 . S
C308 C307 1.400 . S
C308 C311 1.386 . S
H309 C325 0.930 . S
H310 C326 0.931 . S
C311 H299 0.929 . S
C311 C305 1.390 . S
C311 C308 1.386 . S
C312 C307 1.490 . S
C312 C314 1.395 . S
C312 C315 1.402 . S
H313 C319 0.930 1_556 S
C314 H300 0.930 . S
C314 C312 1.395 . S
C314 C317 1.403 . S
C315 C312 1.402 . S
C315 C316 1.524 1_554 S
C315 C319 1.400 . S
C316 H301 0.960 . S
C316 H302 0.960 . S
C316 H303 0.960 . S
C316 C315 1.524 1_556 S
C317 C314 1.403 . S
C317 C318 1.392 . S
C317 C321 1.495 . S
C318 C317 1.392 . S
C318 C319 1.385 . S
C318 C320 1.478 . S
C319 H313 0.930 1_554 S
C319 C315 1.400 . S
C319 C318 1.385 . S
C320 C318 1.478 . S
C320 C322 1.381 . S
C320 C326 1.383 . S
C321 C317 1.495 . S
C321 H327 0.959 . S
C321 H328 0.961 . S
C321 H329 0.960 . S
C322 C320 1.381 . S
C322 C323 1.394 . S
C322 H330 0.943 . S
C323 C322 1.394 . S
C323 C324 1.383 . S
C323 H331 0.929 . S
C324 C323 1.383 . S
C324 C325 1.377 . S
C325 H309 0.930 . S
C325 C324 1.377 . S
C325 C326 1.379 . S
C326 H310 0.931 . S
C326 C320 1.383 . S
C326 C325 1.379 . S
H327 C321 0.959 . S
H328 C321 0.961 . S
H329 C321 0.960 . S
H330 C322 0.943 . S
H331 C323 0.929 . S
H332 C340 0.929 . S
H333 C342 0.930 . S
H334 C344 0.930 . S
H335 C347 0.929 . S
H336 C350 0.930 . S
H337 C352 0.960 . S
H338 C352 0.960 . S
H339 C352 0.960 1_554 S
C340 H332 0.929 . S
C340 C341 1.377 1_556 S
C340 C342 1.384 . S
C341 C340 1.377 1_554 S
C341 C347 1.390 . S
C342 H333 0.930 . S
C342 C340 1.384 . S
C342 C343 1.372 . S
C343 C342 1.372 . S
C343 C344 1.400 1_556 S
C343 C348 1.490 . S
C344 H334 0.930 . S
C344 C343 1.400 1_554 S
C344 C347 1.386 . S
H345 C361 0.930 . S
H346 C362 0.931 . S
C347 H335 0.929 . S
C347 C341 1.390 . S
C347 C344 1.386 . S
C348 C343 1.490 . S
C348 C350 1.395 . S
C348 C351 1.403 . S
H349 C355 0.930 . S
C350 H336 0.930 . S
C350 C348 1.395 . S
C350 C353 1.403 . S
C351 C348 1.403 . S
C351 C352 1.524 . S
C351 C355 1.400 . S
C352 H337 0.960 . S
C352 H338 0.960 . S
C352 H339 0.960 1_556 S
C352 C351 1.524 . S
C353 C350 1.403 . S
C353 C354 1.392 . S
C353 C357 1.495 . S
C354 C353 1.392 . S
C354 C355 1.385 . S
C354 C356 1.478 . S
C355 H349 0.930 . S
C355 C351 1.400 . S
C355 C354 1.385 . S
C356 C354 1.478 . S
C356 C358 1.381 . S
C356 C362 1.383 1_556 S
C357 C353 1.495 . S
C357 H363 0.959 . S
C357 H364 0.961 1_556 S
C357 H365 0.960 . S
C358 C356 1.381 . S
C358 C359 1.394 . S
C358 H366 0.930 . S
C359 C358 1.394 . S
C359 C360 1.383 . S
C359 H367 0.929 . S
C360 C359 1.383 . S
C360 C361 1.377 1_556 S
C361 H345 0.930 . S
C361 C360 1.377 1_554 S
C361 C362 1.379 . S
C362 H346 0.931 . S
C362 C356 1.383 1_554 S
C362 C361 1.379 . S
H363 C357 0.959 . S
H364 C357 0.961 1_554 S
H365 C357 0.960 . S
H366 C358 0.930 . S
H367 C359 0.929 . S
H368 C376 0.929 . S
H369 C378 0.930 . S
H370 C380 0.930 . S
H371 C383 0.929 . S
H372 C386 0.930 . S
H373 C388 0.960 . S
H374 C388 0.960 . S
H375 C388 0.960 . S
C376 H368 0.929 . S
C376 C377 1.377 . S
C376 C378 1.384 . S
C377 C376 1.377 . S
C377 C383 1.390 . S
C378 H369 0.930 . S
C378 C376 1.384 . S
C378 C379 1.372 . S
C379 C378 1.372 . S
C379 C380 1.400 . S
C379 C384 1.490 . S
C380 H370 0.930 . S
C380 C379 1.400 . S
C380 C383 1.386 . S
H381 C397 0.930 . S
H382 C398 0.931 . S
C383 H371 0.929 . S
C383 C377 1.390 . S
C383 C380 1.386 . S
C384 C379 1.490 . S
C384 C386 1.395 . S
C384 C387 1.403 . S
H385 C391 0.930 . S
C386 H372 0.930 . S
C386 C384 1.395 . S
C386 C389 1.403 . S
C387 C384 1.403 . S
C387 C388 1.524 . S
C387 C391 1.400 . S
C388 H373 0.960 . S
C388 H374 0.960 . S
C388 H375 0.960 . S
C388 C387 1.524 . S
C389 C386 1.403 . S
C389 C390 1.392 . S
C389 C393 1.495 . S
C390 C389 1.392 . S
C390 C391 1.385 . S
C390 C392 1.478 . S
C391 H385 0.930 . S
C391 C387 1.400 . S
C391 C390 1.385 . S
C392 C390 1.478 . S
C392 C394 1.381 . S
C392 C398 1.383 . S
C393 C389 1.495 . S
C393 H399 0.959 . S
C393 H400 0.961 . S
C393 H401 0.960 . S
C394 C392 1.381 . S
C394 C395 1.394 . S
C394 H402 0.930 . S
C395 C394 1.394 . S
C395 C396 1.383 . S
C395 H403 0.929 . S
C396 C395 1.383 . S
C396 C397 1.377 . S
C397 H381 0.930 . S
C397 C396 1.377 . S
C397 C398 1.379 . S
C398 H382 0.931 . S
C398 C392 1.383 . S
C398 C397 1.379 . S
H399 C393 0.959 . S
H400 C393 0.961 . S
H401 C393 0.960 . S
H402 C394 0.930 . S
H403 C395 0.929 . S
H404 C412 0.929 . S
H405 C414 0.930 . S
H406 C416 0.930 . S
H407 C419 0.929 . S
H408 C422 0.930 . S
H409 C424 0.960 . S
H410 C424 0.960 . S
H411 C424 0.960 . S
C412 H404 0.929 . S
C412 C413 1.377 . S
C412 C414 1.384 . S
C413 C412 1.377 . S
C413 C419 1.390 . S
C414 H405 0.930 . S
C414 C412 1.384 . S
C414 C415 1.372 . S
C415 C414 1.372 . S
C415 C416 1.400 . S
C415 C420 1.490 . S
C416 H406 0.930 . S
C416 C415 1.400 . S
C416 C419 1.386 . S
H417 C433 0.930 . S
H418 C434 0.931 . S
C419 H407 0.929 . S
C419 C413 1.390 . S
C419 C416 1.386 . S
C420 C415 1.490 . S
C420 C422 1.395 . S
C420 C423 1.403 . S
H421 C427 0.930 . S
C422 H408 0.930 . S
C422 C420 1.395 . S
C422 C425 1.403 . S
C423 C420 1.403 . S
C423 C424 1.524 . S
C423 C427 1.400 . S
C424 H409 0.960 . S
C424 H410 0.960 . S
C424 H411 0.960 . S
C424 C423 1.524 . S
C425 C422 1.403 . S
C425 C426 1.392 . S
C425 C429 1.495 . S
C426 C425 1.392 . S
C426 C427 1.385 . S
C426 C428 1.478 . S
C427 H421 0.930 . S
C427 C423 1.400 . S
C427 C426 1.385 . S
C428 C426 1.478 . S
C428 C430 1.381 . S
C428 C434 1.383 . S
C429 C425 1.495 . S
C429 H435 0.959 . S
C429 H436 0.961 . S
C429 H437 0.960 . S
C430 C428 1.381 . S
C430 C431 1.394 . S
C430 H438 0.930 . S
C431 C430 1.394 . S
C431 C432 1.383 . S
C431 H439 0.929 . S
C432 C431 1.383 . S
C432 C433 1.377 . S
C433 H417 0.930 . S
C433 C432 1.377 . S
C433 C434 1.379 . S
C434 H418 0.931 . S
C434 C428 1.383 . S
C434 C433 1.379 . S
H435 C429 0.959 . S
H436 C429 0.961 . S
H437 C429 0.960 . S
H438 C430 0.930 . S
H439 C431 0.929 . S
H440 C448 0.929 . S
H441 C450 0.930 . S
H442 C452 0.930 . S
H443 C455 0.929 . S
H444 C458 0.930 . S
H445 C460 0.960 . S
H446 C460 0.960 . S
H447 C460 0.960 . S
C448 H440 0.929 . S
C448 C449 1.377 . S
C448 C450 1.384 . S
C449 C448 1.377 . S
C449 C455 1.390 . S
C450 H441 0.930 . S
C450 C448 1.384 . S
C450 C451 1.372 . S
C451 C450 1.372 . S
C451 C452 1.400 . S
C451 C456 1.490 . S
C452 H442 0.930 . S
C452 C451 1.400 . S
C452 C455 1.386 . S
H453 C469 0.930 . S
H454 C470 0.931 . S
C455 H443 0.929 . S
C455 C449 1.390 . S
C455 C452 1.386 . S
C456 C451 1.490 . S
C456 C458 1.395 . S
C456 C459 1.403 . S
H457 C463 0.930 . S
C458 H444 0.930 . S
C458 C456 1.395 . S
C458 C461 1.403 . S
C459 C456 1.403 . S
C459 C460 1.524 . S
C459 C463 1.400 . S
C460 H445 0.960 . S
C460 H446 0.960 . S
C460 H447 0.960 . S
C460 C459 1.524 . S
C461 C458 1.403 . S
C461 C462 1.392 . S
C461 C465 1.495 . S
C462 C461 1.392 . S
C462 C463 1.385 . S
C462 C464 1.478 . S
C463 H457 0.930 . S
C463 C459 1.400 . S
C463 C462 1.385 . S
C464 C462 1.478 . S
C464 C466 1.381 . S
C464 C470 1.383 . S
C465 C461 1.495 . S
C465 H471 0.959 . S
C465 H472 0.961 . S
C465 H473 0.960 . S
C466 C464 1.381 . S
C466 C467 1.394 . S
C466 H474 0.930 . S
C467 C466 1.394 . S
C467 C468 1.383 . S
C467 H475 0.929 . S
C468 C467 1.383 . S
C468 C469 1.377 . S
C469 H453 0.930 . S
C469 C468 1.377 . S
C469 C470 1.379 . S
C470 H454 0.931 . S
C470 C464 1.383 . S
C470 C469 1.379 . S
H471 C465 0.959 . S
H472 C465 0.961 . S
H473 C465 0.960 . S
H474 C466 0.930 . S
H475 C467 0.929 . S
H476 C484 0.929 . S
H477 C486 0.930 . S
H478 C488 0.930 . S
H479 C491 0.929 . S
H480 C494 0.930 . S
H481 C496 0.960 . S
H482 C496 0.960 . S
H483 C496 0.960 . S
C484 H476 0.929 . S
C484 C485 1.377 . S
C484 C486 1.384 . S
C485 C484 1.377 . S
C485 C491 1.390 . S
C486 H477 0.930 . S
C486 C484 1.384 . S
C486 C487 1.372 . S
C487 C486 1.372 . S
C487 C488 1.400 . S
C487 C492 1.490 . S
C488 H478 0.930 . S
C488 C487 1.400 . S
C488 C491 1.386 . S
H489 C505 0.930 . S
H490 C506 0.931 . S
C491 H479 0.929 . S
C491 C485 1.390 . S
C491 C488 1.386 . S
C492 C487 1.490 . S
C492 C494 1.395 . S
C492 C495 1.403 . S
H493 C499 0.930 . S
C494 H480 0.930 . S
C494 C492 1.395 . S
C494 C497 1.403 . S
C495 C492 1.403 . S
C495 C496 1.524 . S
C495 C499 1.400 . S
C496 H481 0.960 . S
C496 H482 0.960 . S
C496 H483 0.960 . S
C496 C495 1.524 . S
C497 C494 1.403 . S
C497 C498 1.392 . S
C497 C501 1.495 . S
C498 C497 1.392 . S
C498 C499 1.385 . S
C498 C500 1.478 . S
C499 H493 0.930 . S
C499 C495 1.400 . S
C499 C498 1.385 . S
C500 C498 1.478 . S
C500 C502 1.381 . S
C500 C506 1.383 . S
C501 C497 1.495 . S
C501 H507 0.959 . S
C501 H508 0.961 . S
C501 H509 0.960 . S
C502 C500 1.381 . S
C502 C503 1.394 . S
C502 H510 0.930 . S
C503 C502 1.394 . S
C503 C504 1.383 . S
C503 H511 0.929 . S
C504 C503 1.383 . S
C504 C505 1.377 . S
C505 H489 0.930 . S
C505 C504 1.377 . S
C505 C506 1.379 . S
C506 H490 0.931 . S
C506 C500 1.383 . S
C506 C505 1.379 . S
H507 C501 0.959 . S
H508 C501 0.961 . S
H509 C501 0.960 . S
H510 C502 0.930 . S
H511 C503 0.929 . S
H512 C520 0.929 . S
H513 C522 0.930 . S
H514 C524 0.930 . S
H515 C527 0.929 . S
H516 C530 0.930 . S
H517 C532 0.960 . S
H518 C532 0.960 . S
H519 C532 0.960 . S
C520 H512 0.929 . S
C520 C521 1.377 1_665 S
C520 C522 1.384 . S
C521 C520 1.377 1_445 S
C521 C527 1.390 . S
C522 H513 0.930 . S
C522 C520 1.384 . S
C522 C523 1.372 1_665 S
C523 C522 1.372 1_445 S
C523 C524 1.400 . S
C523 C528 1.490 . S
C524 H514 0.930 . S
C524 C523 1.400 . S
C524 C527 1.386 . S
H525 C541 0.930 . S
H526 C542 0.931 . S
C527 H515 0.929 . S
C527 C521 1.390 . S
C527 C524 1.386 . S
C528 C523 1.490 . S
C528 C530 1.395 1_545 S
C528 C531 1.403 1_455 S
H529 C535 0.930 . S
C530 H516 0.930 . S
C530 C528 1.395 1_565 S
C530 C533 1.403 . S
C531 C528 1.403 1_655 S
C531 C532 1.524 . S
C531 C535 1.400 . S
C532 H517 0.960 . S
C532 H518 0.960 . S
C532 H519 0.960 . S
C532 C531 1.524 . S
C533 C530 1.403 . S
C533 C534 1.392 . S
C533 C537 1.495 . S
C534 C533 1.392 . S
C534 C535 1.385 1_465 S
C534 C536 1.478 . S
C535 H529 0.930 . S
C535 C531 1.400 . S
C535 C534 1.385 1_645 S
C536 C534 1.478 . S
C536 C538 1.381 1_455 S
C536 C542 1.383 1_565 S
C537 C533 1.495 . S
C537 H543 0.959 . S
C537 H544 0.961 . S
C537 H545 0.960 . S
C538 C536 1.381 1_655 S
C538 C539 1.394 . S
C538 H546 0.930 . S
C539 C538 1.394 . S
C539 C540 1.393 1_655 S
C539 H547 0.929 . S
C540 C539 1.393 1_455 S
C540 C541 1.369 1_565 S
C541 H525 0.930 . S
C541 C540 1.369 1_545 S
C541 C542 1.379 . S
C542 H526 0.931 . S
C542 C536 1.383 1_545 S
C542 C541 1.379 . S
H543 C537 0.959 . S
H544 C537 0.961 . S
H545 C537 0.960 . S
H546 C538 0.930 . S
H547 C539 0.929 . S
H548 C556 0.929 . S
H549 C558 0.930 . S
H550 C560 0.934 . S
H551 C563 0.933 . S
H552 C566 0.930 1_655 S
H553 C568 0.960 . S
H554 C568 0.960 . S
H555 C568 0.960 . S
C556 H548 0.929 . S
C556 C557 1.377 1_655 S
C556 C558 1.384 . S
C557 C556 1.377 1_455 S
C557 C563 1.387 1_545 S
C558 H549 0.930 . S
C558 C556 1.384 . S
C558 C559 1.372 1_655 S
C559 C558 1.372 1_455 S
C559 C560 1.396 1_545 S
C559 C564 1.490 . S
C560 H550 0.934 . S
C560 C559 1.396 1_565 S
C560 C563 1.386 . S
H561 C577 0.930 . S
H562 C578 0.931 . S
C563 H551 0.933 . S
C563 C557 1.387 1_565 S
C563 C560 1.386 . S
C564 C559 1.490 . S
C564 C566 1.395 . S
C564 C567 1.403 1_545 S
H565 C571 0.930 . S
C566 H552 0.930 1_455 S
C566 C564 1.395 . S
C566 C569 1.403 . S
C567 C564 1.403 1_565 S
C567 C568 1.524 . S
C567 C571 1.400 . S
C568 H553 0.960 . S
C568 H554 0.960 . S
C568 H555 0.960 . S
C568 C567 1.524 . S
C569 C566 1.403 . S
C569 C570 1.392 . S
C569 C573 1.495 1_455 S
C570 C569 1.392 . S
C570 C571 1.385 1_545 S
C570 C572 1.478 . S
C571 H565 0.930 . S
C571 C567 1.400 . S
C571 C570 1.385 1_565 S
C572 C570 1.478 . S
C572 C574 1.381 1_455 S
C572 C578 1.383 . S
C573 C569 1.495 1_655 S
C573 H579 0.959 . S
C573 H580 0.961 1_655 S
C573 H581 0.960 . S
C574 C572 1.381 1_655 S
C574 C575 1.394 . S
C574 H582 0.930 . S
C575 C574 1.394 . S
C575 C576 1.383 1_655 S
C575 H583 0.929 . S
C576 C575 1.383 1_455 S
C576 C577 1.377 . S
C577 H561 0.930 . S
C577 C576 1.377 . S
C577 C578 1.379 . S
C578 H562 0.931 . S
C578 C572 1.383 . S
C578 C577 1.379 . S
H579 C573 0.959 . S
H580 C573 0.961 1_455 S
H581 C573 0.960 . S
H582 C574 0.930 . S
H583 C575 0.929 . S
H584 C592 0.929 . S
H585 C594 0.930 . S
H586 C596 0.930 . S
H587 C599 0.929 . S
H588 C602 0.930 . S
H589 C604 0.960 . S
H590 C604 0.960 . S
H591 C604 0.960 . S
C592 H584 0.929 . S
C592 C593 1.377 . S
C592 C594 1.384 . S
C593 C592 1.377 . S
C593 C599 1.390 . S
C594 H585 0.930 . S
C594 C592 1.384 . S
C594 C595 1.372 . S
C595 C594 1.372 . S
C595 C596 1.400 . S
C595 C600 1.490 . S
C596 H586 0.930 . S
C596 C595 1.400 . S
C596 C599 1.386 . S
H597 C613 0.930 . S
H598 C614 0.931 . S
C599 H587 0.929 . S
C599 C593 1.390 . S
C599 C596 1.386 . S
C600 C595 1.490 . S
C600 C602 1.395 . S
C600 C603 1.403 . S
H601 C607 0.930 . S
C602 H588 0.930 . S
C602 C600 1.395 . S
C602 C605 1.403 . S
C603 C600 1.403 . S
C603 C604 1.524 . S
C603 C607 1.400 . S
C604 H589 0.960 . S
C604 H590 0.960 . S
C604 H591 0.960 . S
C604 C603 1.524 . S
C605 C602 1.403 . S
C605 C606 1.392 . S
C605 C609 1.495 . S
C606 C605 1.392 . S
C606 C607 1.385 . S
C606 C608 1.478 . S
C607 H601 0.930 . S
C607 C603 1.400 . S
C607 C606 1.385 . S
C608 C606 1.478 . S
C608 C610 1.381 . S
C608 C614 1.383 . S
C609 C605 1.495 . S
C609 H615 0.959 . S
C609 H616 0.961 . S
C609 H617 0.960 . S
C610 C608 1.381 . S
C610 C611 1.394 . S
C610 H618 0.930 . S
C611 C610 1.394 . S
C611 C612 1.383 . S
C611 H619 0.929 . S
C612 C611 1.383 . S
C612 C613 1.377 . S
C613 H597 0.930 . S
C613 C612 1.377 . S
C613 C614 1.379 . S
C614 H598 0.931 . S
C614 C608 1.383 . S
C614 C613 1.379 . S
H615 C609 0.959 . S
H616 C609 0.961 . S
H617 C609 0.960 . S
H618 C610 0.930 . S
H619 C611 0.929 . S
H620 C628 0.929 . S
H621 C630 0.930 . S
H622 C632 0.930 . S
H623 C635 0.929 . S
H624 C638 0.930 . S
H625 C640 0.960 . S
H626 C640 0.960 . S
H627 C640 0.960 . S
C628 H620 0.929 . S
C628 C629 1.377 . S
C628 C630 1.384 . S
C629 C628 1.377 . S
C629 C635 1.390 . S
C630 H621 0.930 . S
C630 C628 1.384 . S
C630 C631 1.372 . S
C631 C630 1.372 . S
C631 C632 1.400 . S
C631 C636 1.490 . S
C632 H622 0.930 . S
C632 C631 1.400 . S
C632 C635 1.386 . S
H633 C649 0.930 . S
H634 C650 0.931 . S
C635 H623 0.929 . S
C635 C629 1.390 . S
C635 C632 1.386 . S
C636 C631 1.490 . S
C636 C638 1.395 . S
C636 C639 1.403 . S
H637 C643 0.930 . S
C638 H624 0.930 . S
C638 C636 1.395 . S
C638 C641 1.403 . S
C639 C636 1.403 . S
C639 C640 1.524 . S
C639 C643 1.400 . S
C640 H625 0.960 . S
C640 H626 0.960 . S
C640 H627 0.960 . S
C640 C639 1.524 . S
C641 C638 1.403 . S
C641 C642 1.392 . S
C641 C645 1.495 . S
C642 C641 1.392 . S
C642 C643 1.385 . S
C642 C644 1.478 . S
C643 H637 0.930 . S
C643 C639 1.400 . S
C643 C642 1.385 . S
C644 C642 1.478 . S
C644 C646 1.381 . S
C644 C650 1.383 . S
C645 C641 1.495 . S
C645 H651 0.959 . S
C645 H652 0.961 . S
C645 H653 0.960 . S
C646 C644 1.381 . S
C646 C647 1.394 . S
C646 H654 0.930 . S
C647 C646 1.394 . S
C647 C648 1.383 . S
C647 H655 0.929 . S
C648 C647 1.383 . S
C648 C649 1.377 . S
C649 H633 0.930 . S
C649 C648 1.377 . S
C649 C650 1.379 . S
C650 H634 0.931 . S
C650 C644 1.383 . S
C650 C649 1.379 . S
H651 C645 0.959 . S
H652 C645 0.961 . S
H653 C645 0.960 . S
H654 C646 0.930 . S
H655 C647 0.929 . S
C252 C201 1.383 . S
C233 C29 1.410 . S
C269 C8 1.400 . S
C288 C162 1.363 . S
C305 C0 1.395 . S
C324 C206 1.354 . S
C341 C17 1.405 . S
C360 C167 1.379 . S
C377 C63 1.411 . S
C396 C123 1.397 . S
C413 C42 1.399 . S
C432 C84 1.372 . S
C468 C128 1.344 . S
C449 C34 1.394 . S
C504 C89 1.397 . S
C485 C51 1.404 . S
C521 C4 1.481 . S
C540 C69 1.476 1_465 S
C557 C13 1.477 . S
C576 C108 1.476 . S
C612 C147 1.478 . S
C593 C38 1.481 . S
C629 C47 1.478 . S
C648 C186 1.476 . S
