# Generated by pormake.
# Topology pyr, (3,6)-cn, num edge types: 1
# Building blocks:
#     Node 0, Type 0, BuildingBlock: BETDAH_clean_linker_0, # of connection points: 3
#     Node 1, Type 0, BuildingBlock: BETDAH_clean_linker_0, # of connection points: 3
#     Node 2, Type 0, BuildingBlock: BETDAH_clean_linker_0, # of connection points: 3
#     Node 3, Type 0, BuildingBlock: BETDAH_clean_linker_0, # of connection points: 3
#     Node 4, Type 0, BuildingBlock: BETDAH_clean_linker_0, # of connection points: 3
#     Node 5, Type 0, BuildingBlock: BETDAH_clean_linker_0, # of connection points: 3
#     Node 6, Type 0, BuildingBlock: BETDAH_clean_linker_0, # of connection points: 3
#     Node 7, Type 0, BuildingBlock: BETDAH_clean_linker_0, # of connection points: 3
#     Node 8, Type 1, BuildingBlock: FUNLAD_clean_sbu_0, # of connection points: 6
#     Node 9, Type 1, BuildingBlock: FUNLAD_clean_sbu_0, # of connection points: 6
#     Node 10, Type 1, BuildingBlock: FUNLAD_clean_sbu_0, # of connection points: 6
#     Node 11, Type 1, BuildingBlock: FUNLAD_clean_sbu_0, # of connection points: 6
#     Edge 12, Type (0, 1), BuildingBlock: TEMPAE_clean_linker_10, # of connection points: 2
#     Edge 13, Type (0, 1), BuildingBlock: TEMPAE_clean_linker_10, # of connection points: 2
#     Edge 14, Type (0, 1), BuildingBlock: TEMPAE_clean_linker_10, # of connection points: 2
#     Edge 15, Type (0, 1), BuildingBlock: TEMPAE_clean_linker_10, # of connection points: 2
#     Edge 16, Type (0, 1), BuildingBlock: TEMPAE_clean_linker_10, # of connection points: 2
#     Edge 17, Type (0, 1), BuildingBlock: TEMPAE_clean_linker_10, # of connection points: 2
#     Edge 18, Type (0, 1), BuildingBlock: TEMPAE_clean_linker_10, # of connection points: 2
#     Edge 19, Type (0, 1), BuildingBlock: TEMPAE_clean_linker_10, # of connection points: 2
#     Edge 20, Type (0, 1), BuildingBlock: TEMPAE_clean_linker_10, # of connection points: 2
#     Edge 21, Type (0, 1), BuildingBlock: TEMPAE_clean_linker_10, # of connection points: 2
#     Edge 22, Type (0, 1), BuildingBlock: TEMPAE_clean_linker_10, # of connection points: 2
#     Edge 23, Type (0, 1), BuildingBlock: TEMPAE_clean_linker_10, # of connection points: 2
#     Edge 24, Type (0, 1), BuildingBlock: TEMPAE_clean_linker_10, # of connection points: 2
#     Edge 25, Type (0, 1), BuildingBlock: TEMPAE_clean_linker_10, # of connection points: 2
#     Edge 26, Type (0, 1), BuildingBlock: TEMPAE_clean_linker_10, # of connection points: 2
#     Edge 27, Type (0, 1), BuildingBlock: TEMPAE_clean_linker_10, # of connection points: 2
#     Edge 28, Type (0, 1), BuildingBlock: TEMPAE_clean_linker_10, # of connection points: 2
#     Edge 29, Type (0, 1), BuildingBlock: TEMPAE_clean_linker_10, # of connection points: 2
#     Edge 30, Type (0, 1), BuildingBlock: TEMPAE_clean_linker_10, # of connection points: 2
#     Edge 31, Type (0, 1), BuildingBlock: TEMPAE_clean_linker_10, # of connection points: 2
#     Edge 32, Type (0, 1), BuildingBlock: TEMPAE_clean_linker_10, # of connection points: 2
#     Edge 33, Type (0, 1), BuildingBlock: TEMPAE_clean_linker_10, # of connection points: 2
#     Edge 34, Type (0, 1), BuildingBlock: TEMPAE_clean_linker_10, # of connection points: 2
#     Edge 35, Type (0, 1), BuildingBlock: TEMPAE_clean_linker_10, # of connection points: 2
# Relax obj value: 0.200
# Max RMSD: 0.208
# Mean RMSD: 0.131
data_MOF--net-pry--node1-FUNLAD_clean_sbu_0--node2-BETDAH_clean_linker_0--edge1-TEMPAE_clean_linker_10
_symmetry_space_group_name_H-M    P1
_symmetry_Int_Tables_number       1
_symmetry_cell_setting            triclinic
loop_
_symmetry_equiv_pos_as_xyz
'x, y, z'
_cell_length_a     34.362544
_cell_length_b     37.201823
_cell_length_c     39.160732
_cell_angle_alpha  90.136146
_cell_angle_beta   90.460635
_cell_angle_gamma 88.486054
loop_
_atom_site_label
_atom_site_type_symbol
_atom_site_fract_x
_atom_site_fract_y
_atom_site_fract_z
_atom_type_partial_charge
H0 H 0.20212 0.15796 0.23891 0.0
H1 H 0.18782 0.24279 0.16442 0.0
H2 H 0.10963 0.23738 0.24908 0.0
C3 C 0.18675 0.18195 0.22989 0.0
C4 C 0.15388 0.19508 0.24776 0.0
C5 C 0.19939 0.19887 0.19979 0.0
C6 C 0.17836 0.22943 0.18733 0.0
C7 C 0.14586 0.24323 0.20533 0.0
C8 C 0.13424 0.22602 0.23525 0.0
N9 N 0.12403 0.27469 0.19541 0.0
C10 C 0.12714 0.29546 0.16597 0.0
H11 H 0.44915 0.87799 0.77448 0.0
H12 H 0.38312 0.97772 0.76632 0.0
H13 H 0.38129 0.90241 0.68358 0.0
C14 C 0.42988 0.89599 0.76015 0.0
C15 C 0.41693 0.88596 0.72703 0.0
C16 C 0.41672 0.92869 0.77514 0.0
C17 C 0.3923 0.95185 0.75589 0.0
C18 C 0.37912 0.94245 0.72338 0.0
C19 C 0.39095 0.90931 0.70912 0.0
N20 N 0.35561 0.96812 0.7054 0.0
C21 C 0.32818 0.96069 0.68024 0.0
H22 H 0.66628 0.46217 0.02897 0.0
H23 H 0.63779 0.57507 1.01727 0.0
H24 H 0.54701 0.49873 1.01945 0.0
C25 C 0.64501 0.48395 1.02592 0.0
C26 C 0.60532 0.47596 1.02422 0.0
C27 C 0.65751 0.5195 1.02283 0.0
C28 C 0.62926 0.54753 1.02086 0.0
C29 C 0.58957 0.54 1.0205 0.0
C30 C 0.57771 0.50429 1.02186 0.0
N31 N 0.562 0.56782 1.0132 0.0
C32 C 0.54386 0.56751 0.9815 0.0
H33 H 0.88782 0.67626 0.51593 0.0
H34 H 0.9628 0.63394 0.43799 0.0
H35 H 0.87576 0.56705 0.48074 0.0
C36 C 0.89682 0.65385 0.49987 0.0
C37 C 0.87732 0.62117 0.50146 0.0
C38 C 0.92695 0.65871 0.47659 0.0
C39 C 0.93972 0.62994 0.45619 0.0
C40 C 0.92158 0.5966 0.45822 0.0
C41 C 0.89076 0.59229 0.48097 0.0
N42 N 0.93185 0.56794 0.43583 0.0
C43 C 0.94654 0.57422 0.40353 0.0
H44 H 0.94679 0.8782 0.81981 0.0
H45 H 0.87243 0.90071 0.90631 0.0
H46 H 0.87555 0.97516 0.8233 0.0
C47 C 0.9259 0.89555 0.83287 0.0
C48 C 0.91216 0.92759 0.81686 0.0
C49 C 0.91142 0.88526 0.86521 0.0
C50 C 0.88336 0.9078 0.88141 0.0
C51 C 0.87072 0.94025 0.86619 0.0
C52 C 0.88538 0.94981 0.83444 0.0
N53 N 0.84445 0.96506 0.88215 0.0
C54 C 0.81875 0.95802 0.90845 0.0
H55 H 0.7027 0.1579 0.35714 0.0
H56 H 0.68824 0.24224 0.43224 0.0
H57 H 0.60932 0.23655 0.34699 0.0
C58 C 0.68718 0.18173 0.36626 0.0
C59 C 0.65406 0.19468 0.34828 0.0
C60 C 0.6999 0.19862 0.39656 0.0
C61 C 0.67871 0.22893 0.40913 0.0
C62 C 0.64592 0.24251 0.39102 0.0
C63 C 0.63419 0.22536 0.36089 0.0
N64 N 0.62381 0.27362 0.40115 0.0
C65 C 0.62754 0.29433 0.43067 0.0
H66 H 0.38517 0.67722 0.08081 0.0
H67 H 0.37477 0.56765 0.11486 0.0
H68 H 0.46353 0.63423 0.15678 0.0
C69 C 0.39486 0.65467 0.09645 0.0
C70 C 0.42598 0.65934 0.11919 0.0
C71 C 0.37534 0.62199 0.09482 0.0
C72 C 0.3897 0.59292 0.11467 0.0
C73 C 0.42149 0.59705 0.13687 0.0
C74 C 0.43966 0.6304 0.139 0.0
N75 N 0.43278 0.56819 0.15867 0.0
C76 C 0.44814 0.57423 0.19102 0.0
H77 H 0.16942 0.46118 0.56669 0.0
H78 H 0.14123 0.57413 0.57867 0.0
H79 H 0.05052 0.49762 0.57803 0.0
C80 C 0.14826 0.48296 0.57008 0.0
C81 C 0.10867 0.47493 0.57241 0.0
C82 C 0.16083 0.51854 0.57293 0.0
C83 C 0.13262 0.54655 0.5753 0.0
C84 C 0.09297 0.53897 0.57638 0.0
C85 C 0.08112 0.50323 0.57523 0.0
N86 N 0.06563 0.56688 0.58378 0.0
C87 C 0.04676 0.566 0.61487 0.0
C88 C 0.04957 0.08792 0.46705 0.0
N89 N 0.03433 0.1393 0.56141 0.0
C90 C 0.07069 0.15188 0.55671 0.0
C91 C 0.07841 0.18782 0.56304 0.0
C92 C 0.04825 0.2114 0.57359 0.0
C93 C 1.01156 0.19727 0.58028 0.0
C94 C 1.00523 0.16084 0.57409 0.0
Zn95 Zn 0.02299 0.08992 0.54148 0.0
C96 C 0.94484 0.09032 0.50633 0.0
N97 N 1.00228 0.98931 0.49478 0.0
C98 C 0.03068 0.97125 0.47716 0.0
C99 C 0.96844 0.97345 0.50303 0.0
C100 C 0.96321 0.93732 0.49555 0.0
C101 C 0.99297 0.91748 0.47924 0.0
C102 C 0.02648 0.93502 0.46887 0.0
Zn103 Zn 1.01259 0.03829 0.51524 0.0
O104 O 0.04773 0.10726 0.49388 0.0
C105 C 0.09028 0.03828 0.55045 0.0
O106 O 0.03636 0.05633 0.46807 0.0
H107 H 0.94629 0.98835 0.517 0.0
H108 H 0.09335 0.13455 0.54622 0.0
H109 H 0.05743 0.98443 0.47107 0.0
O110 O 0.0782 0.06973 0.55843 0.0
O111 O 0.06894 1.01897 0.53159 0.0
H112 H 0.9765 0.15032 0.57757 0.0
O113 O 0.98999 1.02024 0.56304 0.0
O114 O 0.9988 0.07159 0.58908 0.0
O115 O 0.95571 0.05822 0.49906 0.0
O116 O 0.96738 0.10954 0.52414 0.0
C117 C 0.98818 0.03902 0.59021 0.0
H118 H 0.1074 0.19734 0.55834 0.0
H119 H 0.98741 0.21447 0.58833 0.0
H120 H 0.93676 0.92463 0.50353 0.0
H121 H 0.05002 0.9204 0.45631 0.0
C122 C 0.58751 0.03908 0.04361 0.0
N123 N 0.53119 0.14027 0.03416 0.0
C124 C 0.56766 0.15288 0.03872 0.0
C125 C 0.57516 0.18886 0.03264 0.0
C126 C 0.54468 0.21246 1.0225 0.0
C127 C 0.50782 0.19831 1.01596 0.0
C128 C 0.50172 0.16185 1.02188 0.0
Zn129 Zn 0.52043 0.09075 0.05365 0.0
C130 C 0.48469 0.04018 1.00468 0.0
N131 N 0.50087 0.98982 0.09944 0.0
C132 C 0.52977 0.97179 0.11679 0.0
C133 C 0.46684 0.97393 0.09136 0.0
C134 C 0.46181 0.93781 0.09883 0.0
C135 C 0.492 0.91801 0.11492 0.0
C136 C 0.52581 0.93558 0.12503 0.0
Zn137 Zn 0.51057 0.03894 0.07938 0.0
O138 O 0.57534 0.07066 0.03614 0.0
C139 C 0.54861 0.08821 0.12777 0.0
O140 O 0.56661 1.01971 0.06242 0.0
H141 H 0.44429 0.98881 0.0776 0.0
H142 H 0.59062 0.13551 0.04889 0.0
H143 H 0.55667 0.985 0.12274 0.0
O144 O 0.5462 0.10776 0.10117 0.0
O145 O 0.53542 0.05662 0.12648 0.0
H146 H 0.47291 0.15131 1.01849 0.0
O147 O 0.45399 0.05875 0.0961 0.0
O148 O 0.46507 0.11024 0.07152 0.0
O149 O 0.48689 1.02124 0.03167 0.0
O150 O 0.49531 0.07274 1.0061 0.0
C151 C 0.44294 0.09092 0.08925 0.0
H152 H 0.60426 0.19838 0.0372 0.0
H153 H 0.48343 0.21552 1.00823 0.0
H154 H 0.43511 0.92513 0.09106 0.0
H155 H 0.5497 0.92101 0.13741 0.0
C156 C 0.54482 0.51647 0.55989 0.0
N157 N 0.53808 0.5599 0.65899 0.0
C158 C 0.51919 0.53139 0.67204 0.0
C159 C 0.51945 0.52524 0.70722 0.0
C160 C 0.53963 0.5485 0.72892 0.0
C161 C 0.56043 0.57659 0.71453 0.0
C162 C 0.55912 0.58192 0.67936 0.0
Zn163 Zn 0.52974 0.57458 0.60945 0.0
C164 C 0.60176 0.60176 0.57751 0.0
N165 N 0.51021 0.60949 0.50706 0.0
C166 C 0.49023 0.58484 0.48868 0.0
C167 C 0.52673 0.63801 0.49156 0.0
C168 C 0.52467 0.64161 0.45592 0.0
C169 C 0.50599 0.61525 0.43654 0.0
C170 C 0.48785 0.58719 0.45336 0.0
Zn171 Zn 0.51931 0.59622 0.55726 0.0
O172 O 0.54496 0.52136 0.59206 0.0
C173 C 0.44741 0.56778 0.58733 0.0
O174 O 0.53485 0.54265 0.54062 0.0
H175 H 0.54279 0.65709 0.50663 0.0
H176 H 0.50262 0.51426 0.65534 0.0
H177 H 0.47753 0.56218 0.50122 0.0
O178 O 0.46968 0.56126 0.61274 0.0
O179 O 0.46089 0.58238 0.56092 0.0
H180 H 0.57344 0.60472 0.66852 0.0
O181 O 0.50433 0.65008 0.57539 0.0
O182 O 0.51463 0.62757 0.62646 0.0
O183 O 0.57781 0.60906 0.55351 0.0
O184 O 0.58962 0.58807 0.60506 0.0
C185 C 0.50482 0.65425 0.60777 0.0
H186 H 0.50332 0.50312 0.71742 0.0
H187 H 0.57593 0.59539 0.73045 0.0
H188 H 0.53892 0.66365 0.44358 0.0
H189 H 0.47283 0.56662 0.43917 0.0
C190 C 1.00052 0.65484 0.98725 0.0
N191 N 1.00638 0.61074 0.08829 0.0
C192 C 0.02275 0.63938 0.10408 0.0
C193 C 0.02068 0.64307 0.1397 0.0
C194 C 1.00213 0.61669 0.15877 0.0
C195 C 0.98409 0.58852 0.14164 0.0
C196 C 0.98649 0.58609 0.10636 0.0
Zn197 Zn 0.01562 0.59717 0.03824 0.0
C198 C 0.94376 0.56801 1.00731 0.0
N199 N 0.0344 0.56007 0.93685 0.0
C200 C 0.05549 0.58203 0.91686 0.0
C201 C 0.01586 0.53132 0.92349 0.0
C202 C 0.01664 0.52477 0.88836 0.0
C203 C 0.03701 0.54788 0.86703 0.0
C204 C 0.05733 0.5763 0.88176 0.0
Zn205 Zn 0.02585 0.57512 0.98622 0.0
O206 O 1.00017 0.65091 1.01965 0.0
C207 C 0.09785 0.60302 1.019 0.0
O208 O 1.01038 0.628 0.96877 0.0
H209 H 0.99921 0.51426 0.9399 0.0
H210 H 0.03875 0.65847 0.08928 0.0
H211 H 0.06953 0.60503 0.92792 0.0
O212 O 0.07402 0.61043 0.04276 0.0
O213 O 0.08561 0.589 0.99141 0.0
H214 H 0.97393 0.56331 0.09361 0.0
O215 O 0.04149 0.522 1.00407 0.0
O216 O 0.03165 0.54373 0.05533 0.0
O217 O 0.9659 0.56139 0.98212 0.0
O218 O 0.95731 0.58289 0.0338 0.0
C219 C 0.04164 0.51739 0.03626 0.0
H220 H 0.03487 0.66518 0.15229 0.0
H221 H 0.96919 0.56792 0.15559 0.0
H222 H 1.00084 0.50242 0.87788 0.0
H223 H 0.07293 0.59501 0.86613 0.0
C224 C 0.16604 0.16252 0.30387 0.0
C225 C 0.13978 0.17693 0.27947 0.0
C226 C 0.15284 0.1468 0.33429 0.0
C227 C 0.11235 0.14557 0.34081 0.0
C228 C 0.08572 0.1596 0.31613 0.0
C229 C 0.09967 0.1748 0.28585 0.0
C230 C 0.18229 0.13196 0.35972 0.0
C231 C 0.04234 0.15899 0.32189 0.0
C232 C 0.07257 0.08006 0.40637 0.0
C233 C 0.06658 0.10232 0.43499 0.0
C234 C 0.08812 0.09354 0.37588 0.0
C235 C 0.09768 0.13031 0.37365 0.0
C236 C 0.09194 0.15284 0.40253 0.0
C237 C 0.07668 0.13859 0.43278 0.0
C238 C 0.09404 0.06845 0.34592 0.0
C239 C 0.10133 0.19223 0.40134 0.0
H240 H 0.19704 0.16423 0.29959 0.0
H241 H 0.07893 0.18503 0.26704 0.0
H242 H 0.18004 0.14719 0.38404 0.0
H243 H 0.17614 0.10349 0.36551 0.0
H244 H 0.21261 0.13345 0.35028 0.0
H245 H 0.02541 0.17082 0.3002 0.0
H246 H 0.03313 0.13094 0.32571 0.0
H247 H 0.03484 0.17423 0.34543 0.0
H248 H 0.06509 0.05198 0.40775 0.0
H249 H 0.07221 0.15611 0.45463 0.0
H250 H 0.12478 0.06883 0.33748 0.0
H251 H 0.07565 0.07766 0.32407 0.0
H252 H 0.08666 0.04032 0.3521 0.0
H253 H 0.13226 0.19542 0.39433 0.0
H254 H 0.09604 0.206 0.42614 0.0
H255 H 0.0833 0.20589 0.38137 0.0
C256 C 0.39826 0.9542 0.83232 0.0
C257 C 0.42727 0.93971 0.8108 0.0
C258 C 0.40744 0.96943 0.86418 0.0
C259 C 0.44673 0.9702 0.87525 0.0
C260 C 0.4761 0.9543 0.85432 0.0
C261 C 0.46603 0.93919 0.82238 0.0
C262 C 0.37505 0.98564 0.88557 0.0
C263 C 0.5183 0.95422 0.86522 0.0
C264 C 0.47283 0.0424 0.9409 0.0
C265 C 0.47323 0.02302 0.97163 0.0
C266 C 0.46466 0.02551 0.90942 0.0
C267 C 0.45683 0.98825 0.90843 0.0
C268 C 0.45705 0.96861 0.93938 0.0
C269 C 0.46511 0.98616 0.97045 0.0
C270 C 0.46442 0.0476 0.87714 0.0
C271 C 0.44886 0.92894 0.9397 0.0
H272 H 0.36815 0.95428 0.82384 0.0
H273 H 0.48864 0.92827 0.80592 0.0
H274 H 0.37546 0.97338 0.91136 0.0
H275 H 0.37947 1.01488 0.88895 0.0
H276 H 0.34589 0.98187 0.87386 0.0
H277 H 0.53739 0.93919 0.84707 0.0
H278 H 0.52829 0.98229 0.86708 0.0
H279 H 0.52181 0.94203 0.89093 0.0
H280 H 0.47925 0.07076 0.94136 0.0
H281 H 0.46552 0.97072 0.99389 0.0
H282 H 0.4353 0.04687 0.86475 0.0
H283 H 0.48575 0.03598 0.85879 0.0
H284 H 0.47162 0.0761 0.88204 0.0
H285 H 0.41923 0.92439 0.92938 0.0
H286 H 0.45095 0.91729 0.96577 0.0
H287 H 0.46973 0.91419 0.92295 0.0
C288 C 0.52629 0.59227 0.9253 0.0
C289 C 0.53279 0.56255 0.94645 0.0
C290 C 0.52305 0.5878 0.88982 0.0
C291 C 0.5269 0.55282 0.87558 0.0
C292 C 0.53145 0.52259 0.89728 0.0
C293 C 0.53443 0.5279 0.93263 0.0
C294 C 0.51795 0.62064 0.86749 0.0
C295 C 0.53573 0.48494 0.88309 0.0
C296 C 0.50046 0.54194 0.78193 0.0
C297 C 0.53684 0.54549 0.76648 0.0
C298 C 0.49678 0.54337 0.81757 0.0
C299 C 0.5303 0.54834 0.83807 0.0
C300 C 0.56729 0.55053 0.82263 0.0
C301 C 0.57008 0.54915 0.78699 0.0
C302 C 0.45691 0.54095 0.83319 0.0
C303 C 0.6038 0.55541 0.8437 0.0
H304 H 0.52552 0.61906 0.93633 0.0
H305 H 0.53995 0.50505 0.94931 0.0
H306 H 0.54504 0.62474 0.85292 0.0
H307 H 0.49412 0.61682 0.84866 0.0
H308 H 0.51137 0.64533 0.88261 0.0
H309 H 0.5345 0.46421 0.90341 0.0
H310 H 0.51257 0.47985 0.86393 0.0
H311 H 0.5641 0.48184 0.86992 0.0
H312 H 0.47464 0.53953 0.76609 0.0
H313 H 0.59826 0.55153 0.77506 0.0
H314 H 0.44874 0.56698 0.84541 0.0
H315 H 0.45714 0.52015 0.85344 0.0
H316 H 0.43424 0.53441 0.81393 0.0
H317 H 0.60193 0.58149 0.85748 0.0
H318 H 0.63046 0.55492 0.82783 0.0
H319 H 0.60673 0.53391 0.8632 0.0
C320 C 0.93424 0.57457 0.34195 0.0
C321 C 0.95841 0.58295 0.36947 0.0
C322 C 0.94446 0.58367 0.30855 0.0
C323 C 0.97973 0.60155 0.3028 0.0
C324 C 1.00403 0.61042 0.33081 0.0
C325 C 0.99297 0.601 0.36402 0.0
C326 C 0.91774 0.57373 0.2794 0.0
C327 C 0.0418 0.6294 0.32564 0.0
C328 C 0.01736 0.58589 0.21351 0.0
C329 C 1.00282 0.61652 0.19647 0.0
C330 C 1.01227 0.58178 0.24869 0.0
C331 C 0.99183 0.60888 0.26719 0.0
C332 C 0.97926 0.64095 0.25046 0.0
C333 C 0.98505 0.64447 0.21512 0.0
C334 C 0.0265 0.54735 0.26556 0.0
C335 C 0.9574 0.67044 0.26935 0.0
H336 H 0.90729 0.56089 0.34657 0.0
H337 H 1.01129 0.6077 0.38567 0.0
H338 H 0.90955 0.59801 0.26431 0.0
H339 H 0.93306 0.55464 0.26197 0.0
H340 H 0.89072 0.56113 0.28837 0.0
H341 H 0.05645 0.63583 0.35021 0.0
H342 H 0.06185 0.61224 0.31017 0.0
H343 H 0.03643 0.65472 0.31125 0.0
H344 H 0.03137 0.56442 0.19895 0.0
H345 H 0.97372 0.66806 0.20179 0.0
H346 H 1.00119 0.53109 0.27263 0.0
H347 H 0.04277 0.55328 0.2894 0.0
H348 H 0.04563 0.5309 0.24854 0.0
H349 H 0.92789 0.66122 0.27574 0.0
H350 H 0.95427 0.69541 0.25395 0.0
H351 H 0.97238 0.67679 0.29374 0.0
C352 C 0.26903 0.17628 0.2006 0.0
C353 C 0.23487 0.18441 0.18194 0.0
C354 C 0.30237 0.16139 0.18469 0.0
C355 C 0.30157 0.15374 0.14922 0.0
C356 C 0.26715 0.16197 0.13019 0.0
C357 C 0.2344 0.1775 0.14669 0.0
C358 C 0.33852 0.15388 0.20593 0.0
C359 C 0.26472 0.15382 0.09248 0.0
C360 C 0.39895 0.14399 0.10307 0.0
C361 C 0.40577 0.10656 0.10307 0.0
C362 C 0.36516 0.1596 0.11765 0.0
C363 C 0.33685 0.13734 0.13217 0.0
C364 C 0.34308 0.09948 0.1315 0.0
C365 C 0.37754 0.0846 0.1173 0.0
C366 C 0.36024 0.20004 0.11827 0.0
C367 C 0.31349 0.07465 0.14615 0.0
H368 H 0.26977 0.18185 0.22778 0.0
H369 H 0.20803 0.18339 0.13216 0.0
H370 H 0.34619 0.12474 0.20523 0.0
H371 H 0.36345 0.16831 0.19515 0.0
H372 H 0.33481 0.1622 0.233 0.0
H373 H 0.23588 0.16156 0.08134 0.0
H374 H 0.28754 0.16834 0.07866 0.0
H375 H 0.2702 0.12465 0.08809 0.0
H376 H 0.42058 0.16131 0.09236 0.0
H377 H 0.38236 0.05568 0.11735 0.0
H378 H 0.35884 0.20964 0.14509 0.0
H379 H 0.33245 0.20837 0.10564 0.0
H380 H 0.38446 0.2136 0.10533 0.0
H381 H 0.31075 0.07942 0.17401 0.0
H382 H 0.32146 0.04586 0.14191 0.0
H383 H 0.28446 0.08036 0.13446 0.0
C384 C 0.25832 0.95539 0.6685 0.0
C385 C 0.29576 0.96154 0.65652 0.0
C386 C 0.22536 0.96396 0.64835 0.0
C387 C 0.23017 0.9792 0.61555 0.0
C388 C 0.26821 0.98332 0.60262 0.0
C389 C 0.30065 0.97461 0.62342 0.0
C390 C 0.18542 0.95908 0.66316 0.0
C391 C 0.27467 0.99919 0.56776 0.0
C392 C 0.14023 0.98817 0.5581 0.0
C393 C 0.12761 0.02369 0.56483 0.0
C394 C 0.17406 0.97346 0.57374 0.0
C395 C 0.19569 0.99471 0.59675 0.0
C396 C 0.18359 0.03081 0.60297 0.0
C397 C 0.14984 0.04484 0.58692 0.0
C398 C 0.18613 0.93496 0.56629 0.0
C399 C 0.20576 0.05446 0.6273 0.0
H400 H 0.25472 0.94571 0.69437 0.0
H401 H 0.32976 0.97975 0.61445 0.0
H402 H 0.17174 0.98581 0.66862 0.0
H403 H 0.16636 0.9453 0.64456 0.0
H404 H 0.18655 0.9433 0.68721 0.0
H405 H 0.30548 0.99606 0.55963 0.0
H406 H 0.25578 0.98634 0.54842 0.0
H407 H 0.26672 0.02829 0.56821 0.0
H408 H 0.1233 0.9716 0.54105 0.0
H409 H 0.14045 0.07231 0.59229 0.0
H410 H 0.18398 0.91867 0.58986 0.0
H411 H 0.21696 0.93339 0.55809 0.0
H412 H 0.16774 0.92277 0.54612 0.0
H413 H 0.20557 0.04275 0.65333 0.0
H414 H 0.19319 0.08226 0.62857 0.0
H415 H 0.2366 0.05584 0.61937 0.0
C416 C 0.7243 0.50191 1.00184 0.0
C417 C 0.69977 0.52674 1.01898 0.0
C418 C 0.7642 0.50774 0.99844 0.0
C419 C 0.77986 0.53988 1.01121 0.0
C420 C 0.75524 0.5657 0.02742 0.0
C421 C 0.71565 0.55857 0.03162 0.0
C422 C 0.7897 0.47914 0.98176 0.0
C423 C 0.77081 0.60071 0.04067 0.0
C424 C 0.88657 0.54275 0.03563 0.0
C425 C 0.90262 0.55839 1.00667 0.0
C426 C 0.84682 0.5356 0.03696 0.0
C427 C 0.82237 0.54566 1.00914 0.0
C428 C 0.83853 0.56142 0.97972 0.0
C429 C 0.87878 0.56703 0.97859 0.0
C430 C 0.83099 0.51754 0.06824 0.0
C431 C 0.81316 0.57347 0.95003 0.0
H432 H 0.71241 0.47778 0.99086 0.0
H433 H 0.69728 0.57785 0.04516 0.0
H434 H 0.80433 0.49034 0.95917 0.0
H435 H 0.81287 0.46996 0.99989 0.0
H436 H 0.773 0.45543 0.9735 0.0
H437 H 0.74728 0.61928 0.04985 0.0
H438 H 0.79146 0.59535 0.06208 0.0
H439 H 0.78711 0.61435 1.0203 0.0
H440 H 0.90526 0.53601 0.05726 0.0
H441 H 0.89135 0.57957 0.95643 0.0
H442 H 0.81479 0.49332 0.06068 0.0
H443 H 0.8102 0.53605 0.08144 0.0
H444 H 0.85435 0.50937 0.08663 0.0
H445 H 0.79669 0.55053 0.9398 0.0
H446 H 0.8303 0.58506 0.929 0.0
H447 H 0.79148 0.59403 0.95884 0.0
C448 C 0.82869 0.58615 0.53508 0.0
C449 C 0.84039 0.61886 0.52113 0.0
C450 C 0.79146 0.58284 0.54914 0.0
C451 C 0.76578 0.6132 0.55017 0.0
C452 C 0.77845 0.64685 0.53863 0.0
C453 C 0.81513 0.64912 0.52366 0.0
C454 C 0.77872 0.54632 0.56067 0.0
C455 C 0.75223 0.68008 0.53987 0.0
C456 C 0.65764 0.60171 0.53802 0.0
C457 C 0.64375 0.60525 0.57142 0.0
C458 C 0.69742 0.60296 0.53112 0.0
C459 C 0.72399 0.60897 0.5582 0.0
C460 C 0.71021 0.61278 0.59206 0.0
C461 C 0.67013 0.6103 0.59838 0.0
C462 C 0.71095 0.598 0.49473 0.0
C463 C 0.73764 0.62025 0.62136 0.0
H464 H 0.84809 0.56275 0.53405 0.0
H465 H 0.82295 0.67446 0.51242 0.0
H466 H 0.76446 0.54818 0.58594 0.0
H467 H 0.75696 0.536 0.54225 0.0
H468 H 0.80346 0.52656 0.56232 0.0
H469 H 0.76853 0.70502 0.53544 0.0
H470 H 0.72929 0.67822 0.51989 0.0
H471 H 0.7375 0.68232 0.56492 0.0
H472 H 0.63737 0.59715 0.51718 0.0
H473 H 0.65935 0.61294 0.62423 0.0
H474 H 0.73385 0.57646 0.49345 0.0
H475 H 0.72392 0.62314 0.48549 0.0
H476 H 0.68681 0.59094 0.47711 0.0
H477 H 0.76119 0.59932 0.62253 0.0
H478 H 0.7225 0.6212 0.64631 0.0
H479 H 0.75168 0.64639 0.61722 0.0
C480 C 0.14534 0.35106 0.13572 0.0
C481 C 0.11981 0.32274 0.13997 0.0
C482 C 0.13455 0.38134 0.11577 0.0
C483 C 0.0971 0.38353 0.10018 0.0
C484 C 0.07197 0.35411 0.10338 0.0
C485 C 0.08365 0.32413 0.12323 0.0
C486 C 0.16246 0.4118 0.11287 0.0
C487 C 0.03176 0.35518 0.08754 0.0
C488 C 0.05033 0.47687 0.08716 0.0
C489 C 0.05479 0.48249 0.05195 0.0
C490 C 0.06387 0.44493 0.10296 0.0
C491 C 0.08279 0.41771 0.0833 0.0
C492 C 0.08736 0.42312 0.04773 0.0
C493 C 0.07318 0.4553 0.03247 0.0
C494 C 0.0579 0.44036 0.14086 0.0
C495 C 0.10757 0.39503 1.02583 0.0
H496 H 0.17308 0.35026 0.14914 0.0
H497 H 0.06361 0.30248 0.12703 0.0
H498 H 0.16524 0.42008 0.08582 0.0
H499 H 0.15099 0.43546 0.12727 0.0
H500 H 0.19183 0.40442 0.1231 0.0
H501 H 0.01714 0.32902 0.08976 0.0
H502 H 1.01352 0.37614 0.10039 0.0
H503 H 0.03325 0.3625 0.06015 0.0
H504 H 0.03618 0.49756 0.10255 0.0
H505 H 0.07706 0.45938 1.00533 0.0
H506 H 0.08644 0.43646 0.15396 0.0
H507 H 0.04084 0.41599 0.14565 0.0
H508 H 0.04242 0.46388 0.15251 0.0
H509 H 0.13763 0.38984 0.03551 0.0
H510 H 0.10901 0.40327 0.99863 0.0
H511 H 0.09208 0.3693 0.02733 0.0
C512 C 0.56019 0.42659 0.0397 0.0
C513 C 0.59318 0.43798 1.0223 0.0
C514 C 0.54913 0.39055 0.03834 0.0
C515 C 0.57184 0.36535 1.01941 0.0
C516 C 0.60459 0.37684 1.00116 0.0
C517 C 0.61467 0.41303 1.00262 0.0
C518 C 0.51378 0.37926 0.05785 0.0
C519 C 0.62967 0.35072 0.98085 0.0
C520 C 0.57384 0.26787 0.04681 0.0
C521 C 0.55084 0.25183 1.02152 0.0
C522 C 0.58052 0.3048 0.04653 0.0
C523 C 0.56325 0.32648 1.02065 0.0
C524 C 0.53922 0.31077 0.99548 0.0
C525 C 0.53343 0.27353 0.99611 0.0
C526 C 0.60652 0.32052 0.07373 0.0
C527 C 0.52006 0.33322 0.96769 0.0
H528 H 0.54349 0.44569 0.05499 0.0
H529 H 0.63956 0.4218 0.98832 0.0
H530 H 0.49397 0.36415 0.0409 0.0
H531 H 0.52288 0.36099 0.07896 0.0
H532 H 0.49737 0.40261 0.06885 0.0
H533 H 0.6532 0.36428 0.96696 0.0
H534 H 0.64318 0.33035 0.99823 0.0
H535 H 0.6116 0.33612 0.96208 0.0
H536 H 0.58651 0.25153 0.06713 0.0
H537 H 0.51573 0.26135 0.97643 0.0
H538 H 0.59048 0.34198 0.08794 0.0
H539 H 0.63191 0.33305 0.06166 0.0
H540 H 0.6174 0.29997 0.09226 0.0
H541 H 0.50285 0.3558 0.97911 0.0
H542 H 0.50054 0.31725 0.95117 0.0
H543 H 0.54263 0.34518 0.95147 0.0
C544 C 0.91536 0.72334 0.46406 0.0
C545 C 0.9418 0.69507 0.47128 0.0
C546 C 0.92781 0.75867 0.46146 0.0
C547 C 0.96766 0.76587 0.46662 0.0
C548 C 0.99484 0.73716 0.47228 0.0
C549 C 0.98154 0.70185 0.47435 0.0
C550 C 0.89796 0.78848 0.45496 0.0
C551 C 0.0375 0.74392 0.47802 0.0
C552 C 0.99576 0.86089 0.44447 0.0
C553 C 0.99016 0.87813 0.47595 0.0
C554 C 0.9903 0.82375 0.44117 0.0
C555 C 0.97951 0.80371 0.47014 0.0
C556 C 0.97589 0.82084 0.50231 0.0
C557 C 0.98107 0.85789 0.50476 0.0
C558 C 0.99418 0.80636 0.40647 0.0
C559 C 0.96483 0.80034 0.5339 0.0
H560 H 0.88468 0.71781 0.46106 0.0
H561 H 1.00189 0.67979 0.47975 0.0
H562 H 0.89475 0.80534 0.47823 0.0
H563 H 0.90764 0.80615 0.43407 0.0
H564 H 0.86897 0.77797 0.44805 0.0
H565 H 0.05542 0.71862 0.4776 0.0
H566 H 0.04846 0.76239 0.45831 0.0
H567 H 0.04155 0.75711 0.50319 0.0
H568 H 1.00296 0.87667 0.42226 0.0
H569 H 0.97755 0.87122 0.52924 0.0
H570 H 0.96498 0.79891 0.39694 0.0
H571 H 1.01223 0.78125 0.40814 0.0
H572 H 1.00734 0.82454 0.38756 0.0
H573 H 0.93453 0.79106 0.53118 0.0
H574 H 0.96673 0.817 0.55741 0.0
H575 H 0.98404 0.77613 0.53709 0.0
C576 C 0.47026 0.84191 0.70935 0.0
C577 C 0.43052 0.85154 0.71055 0.0
C578 C 0.48345 0.81077 0.6918 0.0
C579 C 0.45625 0.7882 0.6755 0.0
C580 C 0.41604 0.79754 0.67715 0.0
C581 C 0.40375 0.82911 0.69434 0.0
C582 C 0.52657 0.80219 0.69041 0.0
C583 C 0.38586 0.77401 0.66094 0.0
C584 C 0.48869 0.72117 0.60595 0.0
C585 C 0.49297 0.68902 0.62447 0.0
C586 C 0.47743 0.75374 0.62223 0.0
C587 C 0.4696 0.75418 0.6578 0.0
C588 C 0.47372 0.72175 0.67649 0.0
C589 C 0.48557 0.68984 0.65976 0.0
C590 C 0.47393 0.78773 0.60138 0.0
C591 C 0.46509 0.72058 0.71423 0.0
H592 H 0.49118 0.85928 0.72142 0.0
H593 H 0.37297 0.83618 0.69534 0.0
H594 H 0.53304 0.77579 0.70258 0.0
H595 H 0.536 0.80006 0.66342 0.0
H596 H 0.54406 0.8229 0.70347 0.0
H597 H 0.35576 0.7849 0.66456 0.0
H598 H 0.39133 0.77127 0.63317 0.0
H599 H 0.38797 0.74663 0.67208 0.0
H600 H 0.49441 0.72095 0.57878 0.0
H601 H 0.4885 0.66524 0.67444 0.0
H602 H 0.49271 0.8086 0.61257 0.0
H603 H 0.44352 0.79847 0.60201 0.0
H604 H 0.48233 0.78329 0.57433 0.0
H605 H 0.484 0.73938 0.72827 0.0
H606 H 0.46963 0.69323 0.72513 0.0
H607 H 0.43449 0.72949 0.71874 0.0
C608 C 0.8965 0.95272 0.75865 0.0
C609 C 0.92451 0.93885 0.78184 0.0
C610 C 0.90712 0.96802 0.72736 0.0
C611 C 0.94691 0.96943 0.71847 0.0
C612 C 0.97536 0.95417 0.74108 0.0
C613 C 0.96385 0.93905 0.77244 0.0
C614 C 0.87564 0.98355 0.70418 0.0
C615 C 0.01806 0.9547 0.73254 0.0
C616 C 0.9693 0.98478 0.62408 0.0
C617 C 0.97658 1.02181 0.62303 0.0
C618 C 0.96043 0.96737 0.65488 0.0
C619 C 0.95841 0.9873 0.68572 0.0
C620 C 0.96558 0.02471 0.68488 0.0
C621 C 0.97467 0.04144 0.65369 0.0
C622 C 0.95311 0.92752 0.65436 0.0
C623 C 0.96342 0.04716 0.71698 0.0
H624 H 0.86596 0.95221 0.76532 0.0
H625 H 0.98574 0.92862 0.79014 0.0
H626 H 0.87985 1.01279 0.70078 0.0
H627 H 0.8775 0.97089 0.67855 0.0
H628 H 0.84599 0.97962 0.71438 0.0
H629 H 0.03641 0.94017 0.75179 0.0
H630 H 0.02318 0.94231 0.70712 0.0
H631 H 0.02758 0.98292 0.73112 0.0
H632 H 0.97089 0.96911 0.60074 0.0
H633 H 0.98039 0.06995 0.65336 0.0
H634 H 0.92303 0.92257 0.6629 0.0
H635 H 0.97322 0.91337 0.67244 0.0
H636 H 0.95702 0.91557 0.62855 0.0
H637 H 0.93372 0.04625 0.72779 0.0
H638 H 0.97051 0.07569 0.71233 0.0
H639 H 0.9839 0.03597 0.73652 0.0
C640 C 0.59983 0.1739 0.30979 0.0
C641 C 0.63994 0.17657 0.31637 0.0
C642 C 0.58582 0.15874 0.27928 0.0
C643 C 0.61244 0.1453 0.25463 0.0
C644 C 0.65296 0.14706 0.26136 0.0
C645 C 0.6662 0.16276 0.292 0.0
C646 C 0.54241 0.15754 0.27325 0.0
C647 C 0.68236 0.13283 0.23594 0.0
C648 C 0.57285 0.07993 0.18822 0.0
C649 C 0.5661 0.10243 0.15991 0.0
C650 C 0.58868 0.0933 0.21889 0.0
C651 C 0.5977 0.13017 0.22158 0.0
C652 C 0.59127 0.15292 0.193 0.0
C653 C 0.57577 0.13879 0.16256 0.0
C654 C 0.59539 0.06799 0.24856 0.0
C655 C 0.6001 0.19243 0.19474 0.0
H656 H 0.57915 0.1837 0.3286 0.0
H657 H 0.6972 0.16491 0.29648 0.0
H658 H 0.5344 0.17289 0.24985 0.0
H659 H 0.53364 0.12938 0.26902 0.0
H660 H 0.52552 0.16892 0.29499 0.0
H661 H 0.71274 0.13463 0.24559 0.0
H662 H 0.67659 0.10434 0.22974 0.0
H663 H 0.67963 0.14827 0.2118 0.0
H664 H 0.56571 0.05178 0.18647 0.0
H665 H 0.57069 0.15647 0.14093 0.0
H666 H 0.57705 0.07668 0.27041 0.0
H667 H 0.62619 0.06879 0.25721 0.0
H668 H 0.58849 0.0398 0.24196 0.0
H669 H 0.58204 0.2057 0.21473 0.0
H670 H 0.59438 0.20636 0.17007 0.0
H671 H 0.63103 0.19596 0.20203 0.0
C672 C 0.49545 0.60011 0.23107 0.0
C673 C 0.46049 0.58266 0.22522 0.0
C674 C 0.50696 0.60925 0.26443 0.0
C675 C 0.48269 0.60072 0.29218 0.0
C676 C 0.44702 0.58344 0.28602 0.0
C677 C 0.43636 0.57461 0.25249 0.0
C678 C 0.54515 0.62758 0.27004 0.0
C679 C 0.42032 0.57389 0.31489 0.0
C680 C 0.52044 0.58431 0.38176 0.0
C681 C 0.50651 0.61511 0.39884 0.0
C682 C 0.51517 0.58036 0.34649 0.0
C683 C 0.49516 0.60781 0.32794 0.0
C684 C 0.48325 0.64003 0.34473 0.0
C685 C 0.48922 0.64337 0.38015 0.0
C686 C 0.5287 0.54576 0.32957 0.0
C687 C 0.46187 0.66989 0.32578 0.0
H688 H 0.51373 0.60657 0.2096 0.0
H689 H 0.40911 0.56139 0.24756 0.0
H690 H 0.54036 0.65297 0.28449 0.0
H691 H 0.56496 0.6101 0.28563 0.0
H692 H 0.55979 0.63377 0.24563 0.0
H693 H 0.39299 0.56173 0.30561 0.0
H694 H 0.43541 0.55454 0.33234 0.0
H695 H 0.41267 0.59826 0.33005 0.0
H696 H 0.53412 0.5626 0.39634 0.0
H697 H 0.47838 0.66711 0.3935 0.0
H698 H 0.54493 0.55147 0.3059 0.0
H699 H 0.50305 0.5299 0.32218 0.0
H700 H 0.54766 0.52902 0.34667 0.0
H701 H 0.47685 0.67601 0.30157 0.0
H702 H 0.45932 0.69488 0.34128 0.0
H703 H 0.43213 0.66118 0.31905 0.0
C704 C 0.02751 0.5905 0.67059 0.0
C705 C 0.03481 0.56086 0.64949 0.0
C706 C 0.02342 0.58596 0.70592 0.0
C707 C 0.0272 0.55098 0.72007 0.0
C708 C 0.03252 0.52081 0.69835 0.0
C709 C 0.03636 0.52619 0.66315 0.0
C710 C 0.01754 0.61875 0.72827 0.0
C711 C 0.03674 0.48316 0.71245 0.0
C712 C 0.06862 0.54796 0.80988 0.0
C713 C 0.03499 0.54432 0.82942 0.0
C714 C 0.06654 0.54903 0.77417 0.0
C715 C 0.02989 0.54653 0.75766 0.0
C716 C 0.99601 0.54146 0.77717 0.0
C717 C 0.99898 0.54036 0.81291 0.0
C718 C 0.10342 0.55404 0.75419 0.0
C719 C 0.9565 0.53866 0.76039 0.0
H720 H 0.0268 0.6173 0.65971 0.0
H721 H 0.0425 0.5034 0.64653 0.0
H722 H 0.99333 0.61474 0.74632 0.0
H723 H 0.04425 0.62304 0.7437 0.0
H724 H 1.01108 0.64341 0.71309 0.0
H725 H 0.03595 0.46244 0.69199 0.0
H726 H 0.06489 0.48017 0.72637 0.0
H727 H 1.01328 0.47796 0.73095 0.0
H728 H 0.09652 0.55063 0.82263 0.0
H729 H 0.97287 0.53793 0.828 0.0
H730 H 0.10169 0.5801 0.74046 0.0
H731 H 0.10684 0.53253 0.7347 0.0
H732 H 0.12977 0.55369 0.77083 0.0
H733 H 0.94825 0.56465 0.74814 0.0
H734 H 0.93357 0.53182 0.77894 0.0
H735 H 0.95737 0.51793 0.73998 0.0
C736 C 0.74937 0.95394 0.92203 0.0
C737 C 0.78751 0.95975 0.93301 0.0
C738 C 0.71752 0.96329 0.94287 0.0
C739 C 0.72413 0.97897 0.97538 0.0
C740 C 0.76289 0.98287 0.98727 0.0
C741 C 0.79419 0.97339 0.96579 0.0
C742 C 0.67679 0.95864 0.92911 0.0
C743 C 0.7713 0.99918 1.02178 0.0
C744 C 0.64549 0.04522 1.00584 0.0
C745 C 0.62424 0.02433 0.02852 0.0
C746 C 0.6784 0.03094 0.98901 0.0
C747 C 0.6907 0.99484 0.99504 0.0
C748 C 0.67011 0.97388 1.01866 0.0
C749 C 0.63709 0.98882 0.03506 0.0
C750 C 0.6994 0.0543 0.96403 0.0
C751 C 0.6824 0.9354 1.02599 0.0
H752 H 0.74434 0.94385 0.8964 0.0
H753 H 0.8238 0.97833 0.97399 0.0
H754 H 0.6586 0.9451 0.94821 0.0
H755 H 0.66305 0.98543 0.92398 0.0
H756 H 0.67653 0.94273 0.90506 0.0
H757 H 0.80251 0.99602 0.02908 0.0
H758 H 0.76344 0.02829 1.02131 0.0
H759 H 0.75339 0.98665 0.04173 0.0
H760 H 0.63592 0.07266 1.00057 0.0
H761 H 0.62094 0.97242 0.05254 0.0
H762 H 0.69775 0.0424 0.93806 0.0
H763 H 0.73066 0.05556 0.97111 0.0
H764 H 0.68694 0.08214 0.96302 0.0
H765 H 0.67895 0.91891 1.00257 0.0
H766 H 0.66502 0.92348 0.04669 0.0
H767 H 0.71364 0.9338 0.03337 0.0
C768 C 0.76966 0.17675 0.396 0.0
C769 C 0.73559 0.18435 0.4145 0.0
C770 C 0.80317 0.16182 0.41193 0.0
C771 C 0.80261 0.15362 0.44724 0.0
C772 C 0.76832 0.16139 0.46613 0.0
C773 C 0.73538 0.17696 0.44961 0.0
C774 C 0.8392 0.15476 0.39088 0.0
C775 C 0.76622 0.15267 0.50367 0.0
C776 C 0.87902 0.08421 0.4782 0.0
C777 C 0.90738 0.10605 0.49288 0.0
C778 C 0.84433 0.09921 0.46419 0.0
C779 C 0.83802 0.13706 0.46424 0.0
C780 C 0.8664 0.15918 0.47931 0.0
C781 C 0.90045 0.14344 0.49364 0.0
C782 C 0.81464 0.07456 0.4489 0.0
C783 C 0.86132 0.19962 0.47947 0.0
H784 H 0.77015 0.18271 0.36892 0.0
H785 H 0.70905 0.18246 0.46399 0.0
H786 H 0.86416 0.16906 0.40218 0.0
H787 H 0.84695 0.12563 0.39107 0.0
H788 H 0.83528 0.16354 0.36395 0.0
H789 H 0.73748 0.16026 0.51474 0.0
H790 H 0.77169 0.12343 0.50758 0.0
H791 H 0.78918 0.16694 0.51793 0.0
H792 H 0.88396 0.05532 0.47758 0.0
H793 H 0.92219 0.16065 0.50474 0.0
H794 H 0.81166 0.07971 0.4211 0.0
H795 H 0.78571 0.08006 0.46047 0.0
H796 H 0.82269 0.04572 0.45272 0.0
H797 H 0.85977 0.20969 0.45283 0.0
H798 H 0.88555 0.21303 0.49296 0.0
H799 H 0.83355 0.20763 0.49195 0.0
C800 C 0.31229 0.65006 0.07387 0.0
C801 C 0.33765 0.61979 0.07573 0.0
C802 C 0.27517 0.64796 0.05919 0.0
C803 C 0.26216 0.61444 0.04728 0.0
C804 C 0.28782 0.58404 0.04778 0.0
C805 C 0.32548 0.5872 0.06153 0.0
C806 C 0.24897 0.68123 0.0585 0.0
C807 C 0.2747 0.54765 0.03589 0.0
C808 C 0.15413 0.60297 0.05885 0.0
C809 C 0.13986 0.6067 1.0254 0.0
C810 C 0.19401 0.60419 0.06595 0.0
C811 C 0.22025 0.61041 0.03906 0.0
C812 C 0.20604 0.6145 1.00519 0.0
C813 C 0.1659 0.61199 0.99864 0.0
C814 C 0.208 0.5989 0.10233 0.0
C815 C 0.2331 0.62225 0.97611 0.0
H816 H 0.32047 0.67529 0.08535 0.0
H817 H 0.3449 0.5638 0.06206 0.0
H818 H 0.23378 0.68381 0.03348 0.0
H819 H 0.22639 0.67912 0.07843 0.0
H820 H 0.26538 0.70609 0.06333 0.0
H821 H 0.29928 0.52772 0.03426 0.0
H822 H 0.253 0.5374 0.05406 0.0
H823 H 0.26024 0.54971 1.01053 0.0
H824 H 0.1341 0.59821 0.07952 0.0
H825 H 0.1548 0.61478 0.97276 0.0
H826 H 0.22118 0.62392 0.11192 0.0
H827 H 0.23086 0.57729 0.10345 0.0
H828 H 0.18408 0.59174 0.11977 0.0
H829 H 0.24744 0.64821 0.98076 0.0
H830 H 0.21759 0.62371 0.95112 0.0
H831 H 0.25645 0.60116 0.97461 0.0
C832 C 0.21852 0.55776 0.56343 0.0
C833 C 0.20321 0.52586 0.57614 0.0
C834 C 0.2582 0.56508 0.56726 0.0
C835 C 0.28346 0.53937 0.58311 0.0
C836 C 0.2684 0.5071 0.59582 0.0
C837 C 0.22844 0.5011 0.59284 0.0
C838 C 0.27313 0.60023 0.55411 0.0
C839 C 0.29459 0.4786 0.61209 0.0
C840 C 0.38966 0.54294 0.55857 0.0
C841 C 0.4062 0.55839 0.58769 0.0
C842 C 0.3499 0.5357 0.55716 0.0
C843 C 0.32595 0.5455 0.58509 0.0
C844 C 0.34259 0.56118 0.61463 0.0
C845 C 0.38285 0.56685 0.61583 0.0
C846 C 0.33355 0.51772 0.52574 0.0
C847 C 0.31774 0.57297 0.64445 0.0
H848 H 0.19963 0.57698 0.5502 0.0
H849 H 0.21705 0.47691 0.60386 0.0
H850 H 0.28974 0.614 0.5745 0.0
H851 H 0.29336 0.59505 0.53263 0.0
H852 H 0.24923 0.61861 0.54508 0.0
H853 H 0.27836 0.45462 0.62004 0.0
H854 H 0.31753 0.46987 0.59384 0.0
H855 H 0.30949 0.48974 0.63483 0.0
H856 H 0.40798 0.53632 0.53689 0.0
H857 H 0.39579 0.57923 0.63814 0.0
H858 H 0.31223 0.5361 0.51282 0.0
H859 H 0.31781 0.49328 0.53311 0.0
H860 H 0.35656 0.5099 0.50719 0.0
H861 H 0.2955 0.5932 0.63578 0.0
H862 H 0.33519 0.58488 0.66542 0.0
H863 H 0.30193 0.54981 0.65472 0.0
C864 C 0.96523 0.84242 0.88534 0.0
C865 C 0.92535 0.85126 0.8825 0.0
C866 C 0.97855 0.81153 0.90331 0.0
C867 C 0.9514 0.78837 0.91841 0.0
C868 C 0.91109 0.79694 0.91518 0.0
C869 C 0.89864 0.82825 0.89757 0.0
C870 C 0.02176 0.80379 0.90635 0.0
C871 C 0.88096 0.77282 0.93009 0.0
C872 C 0.98224 0.69034 0.93472 0.0
C873 C 0.98858 0.68953 0.97027 0.0
C874 C 0.97032 0.72211 0.91772 0.0
C875 C 0.96495 0.75448 0.93642 0.0
C876 C 0.9717 0.75407 0.97227 0.0
C877 C 0.98312 0.72163 0.98878 0.0
C878 C 0.96296 0.72087 0.87967 0.0
C879 C 0.96682 0.78795 0.99321 0.0
H880 H 0.98612 0.86018 0.87416 0.0
H881 H 0.86776 0.83461 0.8953 0.0
H882 H 0.03034 0.80173 0.93367 0.0
H883 H 0.02923 0.77756 0.89421 0.0
H884 H 0.03917 0.82491 0.89415 0.0
H885 H 0.85078 0.78321 0.92548 0.0
H886 H 0.88394 0.74552 0.91878 0.0
H887 H 0.8857 0.77003 0.95802 0.0
H888 H 0.98611 0.66581 0.92 0.0
H889 H 0.98799 0.72148 1.01616 0.0
H890 H 0.98186 0.74009 0.8665 0.0
H891 H 0.93234 0.72919 0.87402 0.0
H892 H 0.96849 0.69363 0.86876 0.0
H893 H 0.98546 0.80921 0.98288 0.0
H894 H 0.97446 0.78361 1.02053 0.0
H895 H 0.93623 0.79813 0.99149 0.0
C896 C 0.41506 0.72392 0.13247 0.0
C897 C 0.44112 0.69565 0.12451 0.0
C898 C 0.42762 0.75927 0.13481 0.0
C899 C 0.46717 0.76647 0.12865 0.0
C900 C 0.49407 0.73776 0.1223 0.0
C901 C 0.48069 0.70244 0.12049 0.0
C902 C 0.39809 0.78907 0.14205 0.0
C903 C 0.53641 0.74452 0.11552 0.0
C904 C 0.47865 0.85823 0.08991 0.0
C905 C 0.48919 0.87868 0.11841 0.0
C906 C 0.47354 0.8212 0.09262 0.0
C907 C 0.47878 0.80431 0.12472 0.0
C908 C 0.49101 0.82456 0.15335 0.0
C909 C 0.49631 0.86167 0.1498 0.0
C910 C 0.46089 0.80048 0.06139 0.0
C911 C 0.49666 0.8074 0.18798 0.0
H912 H 0.38455 0.71839 0.13618 0.0
H913 H 0.50076 0.68039 0.11451 0.0
H914 H 0.40884 0.80689 0.16263 0.0
H915 H 0.39364 0.80579 0.11885 0.0
H916 H 0.3695 0.77857 0.14975 0.0
H917 H 0.55437 0.71924 0.11561 0.0
H918 H 0.53919 0.75749 0.09019 0.0
H919 H 0.5483 0.76318 0.13486 0.0
H920 H 0.47397 0.87136 0.06547 0.0
H921 H 0.50462 0.87759 0.17177 0.0
H922 H 0.43079 0.79114 0.06492 0.0
H923 H 0.47999 0.77629 0.05775 0.0
H924 H 0.46151 0.81699 0.0378 0.0
H925 H 0.46797 0.79999 0.19825 0.0
H926 H 0.51075 0.82573 0.2065 0.0
H927 H 0.51464 0.7823 0.18592 0.0
C928 C 0.06305 0.42551 0.55739 0.0
C929 C 0.09663 0.43694 0.57439 0.0
C930 C 0.05209 0.38946 0.55877 0.0
C931 C 0.07549 0.36428 0.5773 0.0
C932 C 0.10886 0.37582 0.59517 0.0
C933 C 0.11884 0.41202 0.5937 0.0
C934 C 0.01609 0.37812 0.53966 0.0
C935 C 0.13468 0.34973 0.61506 0.0
C936 C 0.03792 0.27239 0.60052 0.0
C937 C 0.05448 0.25076 0.57478 0.0
C938 C 0.04376 0.30962 0.60133 0.0
C939 C 0.06694 0.3254 0.57598 0.0
C940 C 0.08335 0.30379 0.54978 0.0
C941 C 0.07666 0.26686 0.54935 0.0
C942 C 0.02553 0.332 0.62947 0.0
C943 C 0.10842 0.31959 0.52237 0.0
H944 H 0.04579 0.44458 0.54239 0.0
H945 H 0.14423 0.42083 0.60768 0.0
H946 H 0.0245 0.35988 0.51835 0.0
H947 H 0.99691 0.36296 0.55678 0.0
H948 H 0.99926 0.40145 0.52897 0.0
H949 H 0.15862 0.36333 0.62876 0.0
H950 H 0.11727 0.33505 0.63396 0.0
H951 H 0.14767 0.32942 0.59742 0.0
H952 H 0.02085 0.26015 0.6203 0.0
H953 H 0.08867 0.25057 0.5288 0.0
H954 H 1.00785 0.35454 0.61838 0.0
H955 H 0.04864 0.344 0.64544 0.0
H956 H 1.00665 0.31596 0.64618 0.0
H957 H 0.09188 0.34103 0.50845 0.0
H958 H 0.11873 0.29907 0.50362 0.0
H959 H 0.13419 0.33214 0.53421 0.0
C960 C 0.58522 0.32274 0.47383 0.0
C961 C 0.62095 0.32142 0.4569 0.0
C962 C 0.574 0.3527 0.49381 0.0
C963 C 0.59919 0.38214 0.49693 0.0
C964 C 0.6363 0.37996 0.48124 0.0
C965 C 0.64662 0.3497 0.46116 0.0
C966 C 0.53415 0.35379 0.50978 0.0
C967 C 0.66423 0.41046 0.48409 0.0
C968 C 0.55252 0.47541 0.50933 0.0
C969 C 0.55763 0.48142 0.54448 0.0
C970 C 0.56581 0.44333 0.49374 0.0
C971 C 0.58512 0.4164 0.51359 0.0
C972 C 0.59034 0.42219 0.54913 0.0
C973 C 0.57639 0.45451 0.56417 0.0
C974 C 0.55916 0.43831 0.45587 0.0
C975 C 0.61101 0.39438 0.57119 0.0
H976 H 0.5651 0.30107 0.47002 0.0
H977 H 0.67401 0.3489 0.44759 0.0
H978 H 0.53618 0.36146 0.53711 0.0
H979 H 0.51553 0.37451 0.49682 0.0
H980 H 0.51962 0.32753 0.50778 0.0
H981 H 0.69345 0.40299 0.47396 0.0
H982 H 0.65253 0.43397 0.46954 0.0
H983 H 0.66742 0.41901 0.51111 0.0
H984 H 0.53806 0.49592 0.49381 0.0
H985 H 0.58076 0.45892 0.59128 0.0
H986 H 0.5421 0.41384 0.45123 0.0
H987 H 0.58747 0.43436 0.44279 0.0
H988 H 0.54338 0.46166 0.44408 0.0
H989 H 0.59561 0.36858 0.56979 0.0
H990 H 0.61286 0.40289 0.59835 0.0
H991 H 0.64093 0.3892 0.56158 0.0
loop_
_geom_bond_atom_site_label_1
_geom_bond_atom_site_label_2
_geom_bond_distance
_geom_bond_site_symmetry_2
_ccdc_geom_bond_type
H0 C3 0.929 . S
H1 C6 0.929 . S
H2 C8 0.930 . S
C3 H0 0.929 . S
C3 C4 1.398 . S
C3 C5 1.396 . S
C4 C3 1.398 . S
C4 C8 1.407 . S
C5 C3 1.396 . S
C5 C6 1.394 . S
C6 H1 0.929 . S
C6 C5 1.394 . S
C6 C7 1.382 . S
C7 C6 1.382 . S
C7 C8 1.392 . S
C7 N9 1.420 . S
C8 H2 0.930 . S
C8 C4 1.407 . S
C8 C7 1.392 . S
N9 C7 1.420 . S
N9 C10 1.244 . S
C10 N9 1.244 . S
H11 C14 0.929 . S
H12 C17 0.929 . S
H13 C19 0.930 . S
C14 H11 0.929 . S
C14 C15 1.398 . S
C14 C16 1.396 . S
C15 C14 1.398 . S
C15 C19 1.407 . S
C16 C14 1.396 . S
C16 C17 1.394 . S
C17 H12 0.929 . S
C17 C16 1.394 . S
C17 C18 1.382 . S
C18 C17 1.382 . S
C18 C19 1.392 . S
C18 N20 1.420 . S
C19 H13 0.930 . S
C19 C15 1.407 . S
C19 C18 1.392 . S
N20 C18 1.420 . S
N20 C21 1.244 . S
C21 N20 1.244 . S
H22 C25 0.929 . S
H23 C28 0.929 . S
H24 C30 0.930 . S
C25 H22 0.929 . S
C25 C26 1.398 . S
C25 C27 1.396 . S
C26 C25 1.398 . S
C26 C30 1.407 . S
C27 C25 1.396 . S
C27 C28 1.394 . S
C28 H23 0.929 . S
C28 C27 1.394 . S
C28 C29 1.382 . S
C29 C28 1.382 . S
C29 C30 1.392 . S
C29 N31 1.420 . S
C30 H24 0.930 . S
C30 C26 1.407 . S
C30 C29 1.392 . S
N31 C29 1.420 . S
N31 C32 1.244 . S
C32 N31 1.244 . S
H33 C36 0.929 . S
H34 C39 0.929 . S
H35 C41 0.930 . S
C36 H33 0.929 . S
C36 C37 1.398 . S
C36 C38 1.396 . S
C37 C36 1.398 . S
C37 C41 1.407 . S
C38 C36 1.396 . S
C38 C39 1.394 . S
C39 H34 0.929 . S
C39 C38 1.394 . S
C39 C40 1.382 . S
C40 C39 1.382 . S
C40 C41 1.392 . S
C40 N42 1.420 . S
C41 H35 0.930 . S
C41 C37 1.407 . S
C41 C40 1.392 . S
N42 C40 1.420 . S
N42 C43 1.244 . S
C43 N42 1.244 . S
H44 C47 0.929 . S
H45 C50 0.929 . S
H46 C52 0.930 . S
C47 H44 0.929 . S
C47 C48 1.398 . S
C47 C49 1.396 . S
C48 C47 1.398 . S
C48 C52 1.407 . S
C49 C47 1.396 . S
C49 C50 1.394 . S
C50 H45 0.929 . S
C50 C49 1.394 . S
C50 C51 1.382 . S
C51 C50 1.382 . S
C51 C52 1.392 . S
C51 N53 1.420 . S
C52 H46 0.930 . S
C52 C48 1.407 . S
C52 C51 1.392 . S
N53 C51 1.420 . S
N53 C54 1.244 . S
C54 N53 1.244 . S
H55 C58 0.929 . S
H56 C61 0.929 . S
H57 C63 0.930 . S
C58 H55 0.929 . S
C58 C59 1.398 . S
C58 C60 1.396 . S
C59 C58 1.398 . S
C59 C63 1.407 . S
C60 C58 1.396 . S
C60 C61 1.394 . S
C61 H56 0.929 . S
C61 C60 1.394 . S
C61 C62 1.382 . S
C62 C61 1.382 . S
C62 C63 1.392 . S
C62 N64 1.420 . S
C63 H57 0.930 . S
C63 C59 1.407 . S
C63 C62 1.392 . S
N64 C62 1.420 . S
N64 C65 1.244 . S
C65 N64 1.244 . S
H66 C69 0.929 . S
H67 C72 0.929 . S
H68 C74 0.930 . S
C69 H66 0.929 . S
C69 C70 1.398 . S
C69 C71 1.396 . S
C70 C69 1.398 . S
C70 C74 1.407 . S
C71 C69 1.396 . S
C71 C72 1.394 . S
C72 H67 0.929 . S
C72 C71 1.394 . S
C72 C73 1.382 . S
C73 C72 1.382 . S
C73 C74 1.392 . S
C73 N75 1.420 . S
C74 H68 0.930 . S
C74 C70 1.407 . S
C74 C73 1.392 . S
N75 C73 1.420 . S
N75 C76 1.244 . S
C76 N75 1.244 . S
H77 C80 0.929 . S
H78 C83 0.929 . S
H79 C85 0.930 . S
C80 H77 0.929 . S
C80 C81 1.398 . S
C80 C82 1.396 . S
C81 C80 1.398 . S
C81 C85 1.407 . S
C82 C80 1.396 . S
C82 C83 1.394 . S
C83 H78 0.929 . S
C83 C82 1.394 . S
C83 C84 1.382 . S
C84 C83 1.382 . S
C84 C85 1.392 . S
C84 N86 1.420 . S
C85 H79 0.930 . S
C85 C81 1.407 . S
C85 C84 1.392 . S
N86 C84 1.420 . S
N86 C87 1.244 . S
C87 N86 1.244 . S
C88 O104 1.251 . S
C88 O106 1.254 . S
N89 C90 1.333 . S
N89 C94 1.307 . S
N89 Zn95 2.020 . S
C90 N89 1.333 . S
C90 C91 1.379 . S
C90 H108 0.952 . S
C91 C90 1.379 . S
C91 C92 1.390 . S
C91 H118 0.949 . S
C92 C91 1.390 . S
C92 C93 1.357 . S
C93 C92 1.357 . S
C93 C94 1.370 . S
C93 H119 0.950 . S
C94 N89 1.307 . S
C94 C93 1.370 . S
C94 H112 0.948 1_455 S
Zn95 N89 2.020 . S
Zn95 O104 2.039 . S
Zn95 O110 2.034 . S
Zn95 O114 2.025 1_455 S
Zn95 O116 2.024 1_455 S
C96 O115 1.246 . S
C96 O116 1.249 . S
N97 C98 1.307 . S
N97 C99 1.333 . S
N97 Zn103 2.020 1_565 S
C98 N97 1.307 . S
C98 C102 1.370 . S
C98 H109 0.948 1_655 S
C99 N97 1.333 . S
C99 C100 1.379 . S
C99 H107 0.952 . S
C100 C99 1.379 . S
C100 C101 1.390 . S
C100 H120 0.949 . S
C101 C100 1.390 . S
C101 C102 1.357 . S
C102 C98 1.370 . S
C102 C101 1.357 . S
C102 H121 0.950 . S
Zn103 N97 2.020 1_545 S
Zn103 O106 2.025 1_655 S
Zn103 O111 2.024 1_645 S
Zn103 O113 2.037 1_545 S
Zn103 O115 2.034 . S
O104 C88 1.251 . S
O104 Zn95 2.039 . S
C105 O110 1.246 . S
C105 O111 1.249 1_545 S
O106 C88 1.254 . S
O106 Zn103 2.025 1_455 S
H107 C99 0.952 . S
H108 C90 0.952 . S
H109 C98 0.948 1_455 S
O110 Zn95 2.034 . S
O110 C105 1.246 . S
O111 Zn103 2.024 1_465 S
O111 C105 1.249 1_565 S
H112 C94 0.948 1_655 S
O113 Zn103 2.037 1_565 S
O113 C117 1.231 1_565 S
O114 Zn95 2.025 1_655 S
O114 C117 1.254 . S
O115 C96 1.246 . S
O115 Zn103 2.034 . S
O116 Zn95 2.024 1_655 S
O116 C96 1.249 . S
C117 O113 1.231 1_545 S
C117 O114 1.254 . S
H118 C91 0.949 . S
H119 C93 0.950 . S
H120 C100 0.949 . S
H121 C102 0.950 . S
C122 O138 1.251 . S
C122 O140 1.232 1_545 S
N123 C124 1.333 . S
N123 C128 1.307 1_554 S
N123 Zn129 2.020 . S
C124 N123 1.333 . S
C124 C125 1.379 1_554 S
C124 H142 0.952 . S
C125 C124 1.379 1_556 S
C125 C126 1.390 . S
C125 H152 0.949 . S
C126 C125 1.390 . S
C126 C127 1.357 . S
C127 C126 1.357 . S
C127 C128 1.370 . S
C127 H153 0.950 . S
C128 N123 1.307 1_556 S
C128 C127 1.370 . S
C128 H146 0.948 . S
Zn129 N123 2.020 . S
Zn129 O138 2.039 . S
Zn129 O144 2.034 . S
Zn129 O148 2.025 . S
Zn129 O150 2.024 1_554 S
C130 O149 1.246 . S
C130 O150 1.249 . S
N131 C132 1.307 . S
N131 C133 1.333 . S
N131 Zn137 2.020 1_565 S
C132 N131 1.307 . S
C132 C136 1.370 . S
C132 H143 0.948 . S
C133 N131 1.333 . S
C133 C134 1.379 . S
C133 H141 0.952 . S
C134 C133 1.379 . S
C134 C135 1.390 . S
C134 H154 0.949 . S
C135 C134 1.390 . S
C135 C136 1.357 . S
C136 C132 1.370 . S
C136 C135 1.357 . S
C136 H155 0.950 . S
Zn137 N131 2.020 1_545 S
Zn137 O140 2.019 1_545 S
Zn137 O145 2.024 . S
Zn137 O147 2.039 . S
Zn137 O149 2.034 1_554 S
O138 C122 1.251 . S
O138 Zn129 2.039 . S
C139 O144 1.246 . S
C139 O145 1.249 . S
O140 C122 1.232 1_565 S
O140 Zn137 2.019 1_565 S
H141 C133 0.952 . S
H142 C124 0.952 . S
H143 C132 0.948 . S
O144 Zn129 2.034 . S
O144 C139 1.246 . S
O145 Zn137 2.024 . S
O145 C139 1.249 . S
H146 C128 0.948 . S
O147 Zn137 2.039 . S
O147 C151 1.251 . S
O148 Zn129 2.025 . S
O148 C151 1.254 . S
O149 C130 1.246 . S
O149 Zn137 2.034 1_556 S
O150 Zn129 2.024 1_556 S
O150 C130 1.249 . S
C151 O147 1.251 . S
C151 O148 1.254 . S
H152 C125 0.949 . S
H153 C127 0.950 . S
H154 C134 0.949 . S
H155 C136 0.950 . S
C156 O172 1.251 . S
C156 O174 1.254 . S
N157 C158 1.333 . S
N157 C162 1.307 . S
N157 Zn163 2.020 . S
C158 N157 1.333 . S
C158 C159 1.379 . S
C158 H176 0.952 . S
C159 C158 1.379 . S
C159 C160 1.390 . S
C159 H186 0.949 . S
C160 C159 1.390 . S
C160 C161 1.357 . S
C161 C160 1.357 . S
C161 C162 1.370 . S
C161 H187 0.950 . S
C162 N157 1.307 . S
C162 C161 1.370 . S
C162 H180 0.948 . S
Zn163 N157 2.020 . S
Zn163 O172 2.039 . S
Zn163 O178 2.034 . S
Zn163 O182 2.025 . S
Zn163 O184 2.024 . S
C164 O183 1.246 . S
C164 O184 1.249 . S
N165 C166 1.307 . S
N165 C167 1.333 . S
N165 Zn171 2.020 . S
C166 N165 1.307 . S
C166 C170 1.370 . S
C166 H177 0.948 . S
C167 N165 1.333 . S
C167 C168 1.379 . S
C167 H175 0.952 . S
C168 C167 1.379 . S
C168 C169 1.390 . S
C168 H188 0.949 . S
C169 C168 1.390 . S
C169 C170 1.357 . S
C170 C166 1.370 . S
C170 C169 1.357 . S
C170 H189 0.950 . S
Zn171 N165 2.020 . S
Zn171 O174 2.025 . S
Zn171 O179 2.024 . S
Zn171 O181 2.039 . S
Zn171 O183 2.034 . S
O172 C156 1.251 . S
O172 Zn163 2.039 . S
C173 O178 1.246 . S
C173 O179 1.249 . S
O174 C156 1.254 . S
O174 Zn171 2.025 . S
H175 C167 0.952 . S
H176 C158 0.952 . S
H177 C166 0.948 . S
O178 Zn163 2.034 . S
O178 C173 1.246 . S
O179 Zn171 2.024 . S
O179 C173 1.249 . S
H180 C162 0.948 . S
O181 Zn171 2.039 . S
O181 C185 1.251 . S
O182 Zn163 2.025 . S
O182 C185 1.254 . S
O183 C164 1.246 . S
O183 Zn171 2.034 . S
O184 Zn163 2.024 . S
O184 C164 1.249 . S
C185 O181 1.251 . S
C185 O182 1.254 . S
H186 C159 0.949 . S
H187 C161 0.950 . S
H188 C168 0.949 . S
H189 C170 0.950 . S
C190 O206 1.251 1_556 S
C190 O208 1.254 1_655 S
N191 C192 1.333 . S
N191 C196 1.307 . S
N191 Zn197 2.020 . S
C192 N191 1.333 . S
C192 C193 1.379 . S
C192 H210 0.952 . S
C193 C192 1.379 . S
C193 C194 1.390 . S
C193 H220 0.949 . S
C194 C193 1.390 . S
C194 C195 1.357 . S
C195 C194 1.357 . S
C195 C196 1.370 . S
C195 H221 0.950 . S
C196 N191 1.307 . S
C196 C195 1.370 . S
C196 H214 0.948 . S
Zn197 N191 2.020 . S
Zn197 O206 2.039 . S
Zn197 O212 2.034 1_655 S
Zn197 O216 2.025 1_655 S
Zn197 O218 2.024 . S
C198 O217 1.246 . S
C198 O218 1.249 1_556 S
N199 C200 1.307 . S
N199 C201 1.333 . S
N199 Zn205 2.020 . S
C200 N199 1.307 . S
C200 C204 1.370 . S
C200 H211 0.948 . S
C201 N199 1.333 . S
C201 C202 1.379 . S
C201 H209 0.952 . S
C202 C201 1.379 . S
C202 C203 1.390 . S
C202 H222 0.949 . S
C203 C202 1.390 . S
C203 C204 1.357 . S
C204 C200 1.370 . S
C204 C203 1.357 . S
C204 H223 0.950 . S
Zn205 N199 2.020 . S
Zn205 O208 2.025 . S
Zn205 O213 2.024 . S
Zn205 O215 2.039 . S
Zn205 O217 2.034 1_455 S
O206 C190 1.251 1_554 S
O206 Zn197 2.039 . S
C207 O212 1.246 . S
C207 O213 1.249 1_554 S
O208 C190 1.254 1_455 S
O208 Zn205 2.025 . S
H209 C201 0.952 . S
H210 C192 0.952 . S
H211 C200 0.948 . S
O212 Zn197 2.034 1_455 S
O212 C207 1.246 . S
O213 Zn205 2.024 . S
O213 C207 1.249 1_556 S
H214 C196 0.948 . S
O215 Zn205 2.039 . S
O215 C219 1.251 1_556 S
O216 Zn197 2.025 1_455 S
O216 C219 1.254 . S
O217 C198 1.246 . S
O217 Zn205 2.034 1_655 S
O218 Zn197 2.024 . S
O218 C198 1.249 1_554 S
C219 O215 1.251 1_554 S
C219 O216 1.254 . S
H220 C193 0.949 . S
H221 C195 0.950 . S
H222 C202 0.949 . S
H223 C204 0.950 . S
C224 C225 1.391 . S
C224 C226 1.394 . S
C224 H240 0.931 . S
C225 C224 1.391 . S
C225 C229 1.376 . S
C226 C224 1.394 . S
C226 C227 1.369 . S
C226 C230 1.531 . S
C227 C226 1.369 . S
C227 C228 1.410 . S
C227 C235 1.503 . S
C228 C227 1.410 . S
C228 C229 1.392 . S
C228 C231 1.511 . S
C229 C225 1.376 . S
C229 C228 1.392 . S
C229 H241 0.929 . S
C230 C226 1.531 . S
C230 H242 0.960 . S
C230 H243 0.962 . S
C230 H244 0.960 . S
C231 C228 1.511 . S
C231 H245 0.961 1_455 S
C231 H246 0.961 . S
C231 H247 0.961 . S
C232 C233 1.370 . S
C232 C234 1.363 . S
C232 H248 0.931 . S
C233 C232 1.370 . S
C233 C237 1.408 . S
C234 C232 1.363 . S
C234 C235 1.370 . S
C234 C238 1.524 . S
C235 C227 1.503 . S
C235 C234 1.370 . S
C235 C236 1.403 . S
C236 C235 1.403 . S
C236 C237 1.404 . S
C236 C239 1.539 . S
C237 C233 1.408 . S
C237 C236 1.404 . S
C237 H249 0.930 . S
C238 C234 1.524 . S
C238 H250 0.956 . S
C238 H251 0.961 . S
C238 H252 0.961 . S
C239 C236 1.539 . S
C239 H253 0.958 . S
C239 H254 0.961 . S
C239 H255 0.960 . S
H240 C224 0.931 . S
H241 C229 0.929 . S
H242 C230 0.960 . S
H243 C230 0.962 . S
H244 C230 0.960 . S
H245 C231 0.961 1_655 S
H246 C231 0.961 . S
H247 C231 0.961 . S
H248 C232 0.931 . S
H249 C237 0.930 . S
H250 C238 0.956 . S
H251 C238 0.961 . S
H252 C238 0.961 . S
H253 C239 0.958 . S
H254 C239 0.961 . S
H255 C239 0.960 . S
C256 C257 1.391 . S
C256 C258 1.394 . S
C256 H272 0.931 . S
C257 C256 1.391 . S
C257 C261 1.376 . S
C258 C256 1.394 . S
C258 C259 1.369 . S
C258 C262 1.531 . S
C259 C258 1.369 . S
C259 C260 1.410 . S
C259 C267 1.503 . S
C260 C259 1.410 . S
C260 C261 1.392 . S
C260 C263 1.511 . S
C261 C257 1.376 . S
C261 C260 1.392 . S
C261 H273 0.929 . S
C262 C258 1.531 . S
C262 H274 0.960 . S
C262 H275 0.962 . S
C262 H276 0.960 . S
C263 C260 1.511 . S
C263 H277 0.961 1_565 S
C263 H278 0.961 1_565 S
C263 H279 0.961 . S
C264 C265 1.370 . S
C264 C266 1.363 . S
C264 H280 0.931 . S
C265 C264 1.370 . S
C265 C269 1.408 1_545 S
C266 C264 1.363 . S
C266 C267 1.370 1_545 S
C266 C270 1.524 . S
C267 C259 1.503 . S
C267 C266 1.370 1_565 S
C267 C268 1.403 . S
C268 C267 1.403 . S
C268 C269 1.404 . S
C268 C271 1.539 . S
C269 C265 1.408 1_565 S
C269 C268 1.404 . S
C269 H281 0.930 . S
C270 C266 1.524 . S
C270 H282 0.956 . S
C270 H283 0.961 . S
C270 H284 0.961 . S
C271 C268 1.539 . S
C271 H285 0.958 . S
C271 H286 0.961 . S
C271 H287 0.960 . S
H272 C256 0.931 . S
H273 C261 0.929 . S
H274 C262 0.960 . S
H275 C262 0.962 . S
H276 C262 0.960 . S
H277 C263 0.961 1_545 S
H278 C263 0.961 1_545 S
H279 C263 0.961 . S
H280 C264 0.931 . S
H281 C269 0.930 . S
H282 C270 0.956 . S
H283 C270 0.961 . S
H284 C270 0.961 . S
H285 C271 0.958 . S
H286 C271 0.961 . S
H287 C271 0.960 . S
C288 C289 1.391 . S
C288 C290 1.394 . S
C288 H304 0.931 . S
C289 C288 1.391 . S
C289 C293 1.376 . S
C290 C288 1.394 . S
C290 C291 1.369 . S
C290 C294 1.531 . S
C291 C290 1.369 . S
C291 C292 1.410 . S
C291 C299 1.503 . S
C292 C291 1.410 . S
C292 C293 1.392 . S
C292 C295 1.511 . S
C293 C289 1.376 . S
C293 C292 1.392 . S
C293 H305 0.929 . S
C294 C290 1.531 . S
C294 H306 0.960 . S
C294 H307 0.962 . S
C294 H308 0.960 . S
C295 C292 1.511 . S
C295 H309 0.961 . S
C295 H310 0.961 . S
C295 H311 0.961 . S
C296 C297 1.370 . S
C296 C298 1.363 . S
C296 H312 0.931 . S
C297 C296 1.370 . S
C297 C301 1.408 . S
C298 C296 1.363 . S
C298 C299 1.370 . S
C298 C302 1.524 . S
C299 C291 1.503 . S
C299 C298 1.370 . S
C299 C300 1.403 . S
C300 C299 1.403 . S
C300 C301 1.404 . S
C300 C303 1.539 . S
C301 C297 1.408 . S
C301 C300 1.404 . S
C301 H313 0.930 . S
C302 C298 1.524 . S
C302 H314 0.956 . S
C302 H315 0.961 . S
C302 H316 0.961 . S
C303 C300 1.539 . S
C303 H317 0.958 . S
C303 H318 0.961 . S
C303 H319 0.960 . S
H304 C288 0.931 . S
H305 C293 0.929 . S
H306 C294 0.960 . S
H307 C294 0.962 . S
H308 C294 0.960 . S
H309 C295 0.961 . S
H310 C295 0.961 . S
H311 C295 0.961 . S
H312 C296 0.931 . S
H313 C301 0.930 . S
H314 C302 0.956 . S
H315 C302 0.961 . S
H316 C302 0.961 . S
H317 C303 0.958 . S
H318 C303 0.961 . S
H319 C303 0.960 . S
C320 C321 1.391 . S
C320 C322 1.394 . S
C320 H336 0.931 . S
C321 C320 1.391 . S
C321 C325 1.376 . S
C322 C320 1.394 . S
C322 C323 1.369 . S
C322 C326 1.531 . S
C323 C322 1.369 . S
C323 C324 1.410 . S
C323 C331 1.503 . S
C324 C323 1.410 . S
C324 C325 1.392 . S
C324 C327 1.511 . S
C325 C321 1.376 . S
C325 C324 1.392 . S
C325 H337 0.929 . S
C326 C322 1.531 . S
C326 H338 0.960 . S
C326 H339 0.962 . S
C326 H340 0.960 . S
C327 C324 1.511 . S
C327 H341 0.961 . S
C327 H342 0.961 . S
C327 H343 0.961 . S
C328 C329 1.370 . S
C328 C330 1.363 . S
C328 H344 0.931 . S
C329 C328 1.370 . S
C329 C333 1.408 . S
C330 C328 1.363 . S
C330 C331 1.370 . S
C330 C334 1.524 . S
C331 C323 1.503 . S
C331 C330 1.370 . S
C331 C332 1.403 . S
C332 C331 1.403 . S
C332 C333 1.404 . S
C332 C335 1.539 . S
C333 C329 1.408 . S
C333 C332 1.404 . S
C333 H345 0.930 . S
C334 C330 1.524 . S
C334 H346 0.956 . S
C334 H347 0.961 . S
C334 H348 0.961 . S
C335 C332 1.539 . S
C335 H349 0.958 . S
C335 H350 0.961 . S
C335 H351 0.960 . S
H336 C320 0.931 . S
H337 C325 0.929 . S
H338 C326 0.960 . S
H339 C326 0.962 . S
H340 C326 0.960 . S
H341 C327 0.961 . S
H342 C327 0.961 . S
H343 C327 0.961 . S
H344 C328 0.931 . S
H345 C333 0.930 . S
H346 C334 0.956 . S
H347 C334 0.961 . S
H348 C334 0.961 . S
H349 C335 0.958 . S
H350 C335 0.961 . S
H351 C335 0.960 . S
C352 C353 1.391 . S
C352 C354 1.394 . S
C352 H368 0.931 . S
C353 C352 1.391 . S
C353 C357 1.376 . S
C354 C352 1.394 . S
C354 C355 1.369 . S
C354 C358 1.531 . S
C355 C354 1.369 . S
C355 C356 1.410 . S
C355 C363 1.503 . S
C356 C355 1.410 . S
C356 C357 1.392 . S
C356 C359 1.511 . S
C357 C353 1.376 . S
C357 C356 1.392 . S
C357 H369 0.929 . S
C358 C354 1.531 . S
C358 H370 0.960 . S
C358 H371 0.962 . S
C358 H372 0.960 . S
C359 C356 1.511 . S
C359 H373 0.961 . S
C359 H374 0.961 . S
C359 H375 0.961 . S
C360 C361 1.370 . S
C360 C362 1.363 . S
C360 H376 0.931 . S
C361 C360 1.370 . S
C361 C365 1.408 . S
C362 C360 1.363 . S
C362 C363 1.370 . S
C362 C366 1.524 . S
C363 C355 1.503 . S
C363 C362 1.370 . S
C363 C364 1.403 . S
C364 C363 1.403 . S
C364 C365 1.404 . S
C364 C367 1.539 . S
C365 C361 1.408 . S
C365 C364 1.404 . S
C365 H377 0.930 . S
C366 C362 1.524 . S
C366 H378 0.956 . S
C366 H379 0.961 . S
C366 H380 0.961 . S
C367 C364 1.539 . S
C367 H381 0.958 . S
C367 H382 0.961 . S
C367 H383 0.960 . S
H368 C352 0.931 . S
H369 C357 0.929 . S
H370 C358 0.960 . S
H371 C358 0.962 . S
H372 C358 0.960 . S
H373 C359 0.961 . S
H374 C359 0.961 . S
H375 C359 0.961 . S
H376 C360 0.931 . S
H377 C365 0.930 . S
H378 C366 0.956 . S
H379 C366 0.961 . S
H380 C366 0.961 . S
H381 C367 0.958 . S
H382 C367 0.961 . S
H383 C367 0.960 . S
C384 C385 1.391 . S
C384 C386 1.394 . S
C384 H400 0.931 . S
C385 C384 1.391 . S
C385 C389 1.376 . S
C386 C384 1.394 . S
C386 C387 1.369 . S
C386 C390 1.531 . S
C387 C386 1.369 . S
C387 C388 1.410 . S
C387 C395 1.508 . S
C388 C387 1.410 . S
C388 C389 1.392 . S
C388 C391 1.511 1_565 S
C389 C385 1.376 . S
C389 C388 1.392 . S
C389 H401 0.929 . S
C390 C386 1.531 . S
C390 H402 0.960 1_565 S
C390 H403 0.962 . S
C390 H404 0.960 . S
C391 C388 1.511 1_545 S
C391 H405 0.961 1_545 S
C391 H406 0.956 1_545 S
C391 H407 0.961 . S
C392 C393 1.370 1_565 S
C392 C394 1.363 . S
C392 H408 0.931 . S
C393 C392 1.370 1_545 S
C393 C397 1.408 . S
C394 C392 1.363 . S
C394 C395 1.385 . S
C394 C398 1.524 . S
C395 C387 1.508 . S
C395 C394 1.385 . S
C395 C396 1.383 1_565 S
C396 C395 1.383 1_545 S
C396 C397 1.404 . S
C396 C399 1.539 . S
C397 C393 1.408 . S
C397 C396 1.404 . S
C397 H409 0.930 . S
C398 C394 1.524 . S
C398 H410 0.956 . S
C398 H411 0.961 . S
C398 H412 0.961 . S
C399 C396 1.539 . S
C399 H413 0.958 . S
C399 H414 0.961 . S
C399 H415 0.960 . S
H400 C384 0.931 . S
H401 C389 0.929 . S
H402 C390 0.960 1_545 S
H403 C390 0.962 . S
H404 C390 0.960 . S
H405 C391 0.961 1_565 S
H406 C391 0.956 1_565 S
H407 C391 0.961 . S
H408 C392 0.931 . S
H409 C397 0.930 . S
H410 C398 0.956 . S
H411 C398 0.961 . S
H412 C398 0.961 . S
H413 C399 0.958 . S
H414 C399 0.961 . S
H415 C399 0.960 . S
C416 C417 1.391 . S
C416 C418 1.394 . S
C416 H432 0.931 . S
C417 C416 1.391 . S
C417 C421 1.376 . S
C418 C416 1.394 . S
C418 C419 1.369 . S
C418 C422 1.531 . S
C419 C418 1.369 . S
C419 C420 1.410 . S
C419 C427 1.503 . S
C420 C419 1.410 . S
C420 C421 1.392 . S
C420 C423 1.511 . S
C421 C417 1.376 . S
C421 C420 1.392 . S
C421 H433 0.929 . S
C422 C418 1.531 . S
C422 H434 0.960 . S
C422 H435 0.962 1_556 S
C422 H436 0.960 . S
C423 C420 1.511 . S
C423 H437 0.961 . S
C423 H438 0.961 . S
C423 H439 0.961 . S
C424 C425 1.370 1_554 S
C424 C426 1.363 1_554 S
C424 H440 0.931 . S
C425 C424 1.370 1_556 S
C425 C429 1.408 . S
C426 C424 1.363 1_556 S
C426 C427 1.370 . S
C426 C430 1.524 1_556 S
C427 C419 1.503 . S
C427 C426 1.370 . S
C427 C428 1.403 . S
C428 C427 1.403 . S
C428 C429 1.404 . S
C428 C431 1.539 . S
C429 C425 1.408 . S
C429 C428 1.404 . S
C429 H441 0.930 . S
C430 C426 1.524 1_554 S
C430 H442 0.956 . S
C430 H443 0.961 . S
C430 H444 0.961 . S
C431 C428 1.539 . S
C431 H445 0.958 . S
C431 H446 0.961 . S
C431 H447 0.960 . S
H432 C416 0.931 . S
H433 C421 0.929 . S
H434 C422 0.960 . S
H435 C422 0.962 1_554 S
H436 C422 0.960 . S
H437 C423 0.961 . S
H438 C423 0.961 . S
H439 C423 0.961 . S
H440 C424 0.931 . S
H441 C429 0.930 . S
H442 C430 0.956 . S
H443 C430 0.961 . S
H444 C430 0.961 . S
H445 C431 0.958 . S
H446 C431 0.961 . S
H447 C431 0.960 . S
C448 C449 1.391 . S
C448 C450 1.394 . S
C448 H464 0.931 . S
C449 C448 1.391 . S
C449 C453 1.376 . S
C450 C448 1.394 . S
C450 C451 1.369 . S
C450 C454 1.531 . S
C451 C450 1.369 . S
C451 C452 1.410 . S
C451 C459 1.503 . S
C452 C451 1.410 . S
C452 C453 1.392 . S
C452 C455 1.511 . S
C453 C449 1.376 . S
C453 C452 1.392 . S
C453 H465 0.929 . S
C454 C450 1.531 . S
C454 H466 0.960 . S
C454 H467 0.962 . S
C454 H468 0.960 . S
C455 C452 1.511 . S
C455 H469 0.961 . S
C455 H470 0.961 . S
C455 H471 0.961 . S
C456 C457 1.370 . S
C456 C458 1.363 . S
C456 H472 0.931 . S
C457 C456 1.370 . S
C457 C461 1.408 . S
C458 C456 1.363 . S
C458 C459 1.370 . S
C458 C462 1.524 . S
C459 C451 1.503 . S
C459 C458 1.370 . S
C459 C460 1.403 . S
C460 C459 1.403 . S
C460 C461 1.404 . S
C460 C463 1.539 . S
C461 C457 1.408 . S
C461 C460 1.404 . S
C461 H473 0.930 . S
C462 C458 1.524 . S
C462 H474 0.956 . S
C462 H475 0.961 . S
C462 H476 0.961 . S
C463 C460 1.539 . S
C463 H477 0.958 . S
C463 H478 0.961 . S
C463 H479 0.960 . S
H464 C448 0.931 . S
H465 C453 0.929 . S
H466 C454 0.960 . S
H467 C454 0.962 . S
H468 C454 0.960 . S
H469 C455 0.961 . S
H470 C455 0.961 . S
H471 C455 0.961 . S
H472 C456 0.931 . S
H473 C461 0.930 . S
H474 C462 0.956 . S
H475 C462 0.961 . S
H476 C462 0.961 . S
H477 C463 0.958 . S
H478 C463 0.961 . S
H479 C463 0.960 . S
C480 C481 1.391 . S
C480 C482 1.394 . S
C480 H496 0.931 . S
C481 C480 1.391 . S
C481 C485 1.376 . S
C482 C480 1.394 . S
C482 C483 1.369 . S
C482 C486 1.531 . S
C483 C482 1.369 . S
C483 C484 1.410 . S
C483 C491 1.503 . S
C484 C483 1.410 . S
C484 C485 1.392 . S
C484 C487 1.511 . S
C485 C481 1.376 . S
C485 C484 1.392 . S
C485 H497 0.929 . S
C486 C482 1.531 . S
C486 H498 0.960 . S
C486 H499 0.962 . S
C486 H500 0.960 . S
C487 C484 1.511 . S
C487 H501 0.961 . S
C487 H502 0.961 . S
C487 H503 0.961 1_455 S
C488 C489 1.370 . S
C488 C490 1.363 . S
C488 H504 0.931 . S
C489 C488 1.370 . S
C489 C493 1.408 . S
C490 C488 1.363 . S
C490 C491 1.370 . S
C490 C494 1.524 . S
C491 C483 1.503 . S
C491 C490 1.370 . S
C491 C492 1.403 . S
C492 C491 1.403 . S
C492 C493 1.404 . S
C492 C495 1.539 1_455 S
C493 C489 1.408 . S
C493 C492 1.404 . S
C493 H505 0.930 1_455 S
C494 C490 1.524 . S
C494 H506 0.956 . S
C494 H507 0.961 . S
C494 H508 0.961 . S
C495 C492 1.539 1_655 S
C495 H509 0.958 . S
C495 H510 0.961 . S
C495 H511 0.960 . S
H496 C480 0.931 . S
H497 C485 0.929 . S
H498 C486 0.960 . S
H499 C486 0.962 . S
H500 C486 0.960 . S
H501 C487 0.961 . S
H502 C487 0.961 . S
H503 C487 0.961 1_655 S
H504 C488 0.931 . S
H505 C493 0.930 1_655 S
H506 C494 0.956 . S
H507 C494 0.961 . S
H508 C494 0.961 . S
H509 C495 0.958 . S
H510 C495 0.961 . S
H511 C495 0.960 . S
C512 C513 1.391 . S
C512 C514 1.394 . S
C512 H528 0.931 . S
C513 C512 1.391 . S
C513 C517 1.376 . S
C514 C512 1.394 . S
C514 C515 1.369 . S
C514 C518 1.531 . S
C515 C514 1.369 . S
C515 C516 1.410 . S
C515 C523 1.503 . S
C516 C515 1.410 . S
C516 C517 1.392 . S
C516 C519 1.511 . S
C517 C513 1.376 . S
C517 C516 1.392 . S
C517 H529 0.929 . S
C518 C514 1.531 . S
C518 H530 0.960 . S
C518 H531 0.962 . S
C518 H532 0.960 . S
C519 C516 1.511 . S
C519 H533 0.961 . S
C519 H534 0.961 . S
C519 H535 0.961 . S
C520 C521 1.370 1_554 S
C520 C522 1.363 1_554 S
C520 H536 0.931 . S
C521 C520 1.370 1_556 S
C521 C525 1.408 . S
C522 C520 1.363 1_556 S
C522 C523 1.370 . S
C522 C526 1.524 1_556 S
C523 C515 1.503 . S
C523 C522 1.370 . S
C523 C524 1.403 . S
C524 C523 1.403 . S
C524 C525 1.404 . S
C524 C527 1.539 . S
C525 C521 1.408 . S
C525 C524 1.404 . S
C525 H537 0.930 . S
C526 C522 1.524 1_554 S
C526 H538 0.956 . S
C526 H539 0.961 . S
C526 H540 0.961 . S
C527 C524 1.539 . S
C527 H541 0.958 . S
C527 H542 0.961 . S
C527 H543 0.960 . S
H528 C512 0.931 . S
H529 C517 0.929 . S
H530 C518 0.960 . S
H531 C518 0.962 . S
H532 C518 0.960 . S
H533 C519 0.961 . S
H534 C519 0.961 . S
H535 C519 0.961 . S
H536 C520 0.931 . S
H537 C525 0.930 . S
H538 C526 0.956 . S
H539 C526 0.961 . S
H540 C526 0.961 . S
H541 C527 0.958 . S
H542 C527 0.961 . S
H543 C527 0.960 . S
C544 C545 1.391 . S
C544 C546 1.394 . S
C544 H560 0.931 . S
C545 C544 1.391 . S
C545 C549 1.376 . S
C546 C544 1.394 . S
C546 C547 1.369 . S
C546 C550 1.531 . S
C547 C546 1.369 . S
C547 C548 1.410 . S
C547 C555 1.503 . S
C548 C547 1.410 . S
C548 C549 1.392 . S
C548 C551 1.511 . S
C549 C545 1.376 . S
C549 C548 1.392 . S
C549 H561 0.929 . S
C550 C546 1.531 . S
C550 H562 0.960 . S
C550 H563 0.962 . S
C550 H564 0.960 . S
C551 C548 1.511 . S
C551 H565 0.961 . S
C551 H566 0.961 . S
C551 H567 0.961 . S
C552 C553 1.370 . S
C552 C554 1.363 . S
C552 H568 0.931 . S
C553 C552 1.370 . S
C553 C557 1.408 . S
C554 C552 1.363 . S
C554 C555 1.370 . S
C554 C558 1.524 . S
C555 C547 1.503 . S
C555 C554 1.370 . S
C555 C556 1.403 . S
C556 C555 1.403 . S
C556 C557 1.404 . S
C556 C559 1.539 . S
C557 C553 1.408 . S
C557 C556 1.404 . S
C557 H569 0.930 . S
C558 C554 1.524 . S
C558 H570 0.956 . S
C558 H571 0.961 . S
C558 H572 0.961 . S
C559 C556 1.539 . S
C559 H573 0.958 . S
C559 H574 0.961 . S
C559 H575 0.960 . S
H560 C544 0.931 . S
H561 C549 0.929 . S
H562 C550 0.960 . S
H563 C550 0.962 . S
H564 C550 0.960 . S
H565 C551 0.961 . S
H566 C551 0.961 . S
H567 C551 0.961 . S
H568 C552 0.931 . S
H569 C557 0.930 . S
H570 C558 0.956 . S
H571 C558 0.961 . S
H572 C558 0.961 . S
H573 C559 0.958 . S
H574 C559 0.961 . S
H575 C559 0.960 . S
C576 C577 1.391 . S
C576 C578 1.394 . S
C576 H592 0.931 . S
C577 C576 1.391 . S
C577 C581 1.376 . S
C578 C576 1.394 . S
C578 C579 1.369 . S
C578 C582 1.531 . S
C579 C578 1.369 . S
C579 C580 1.410 . S
C579 C587 1.503 . S
C580 C579 1.410 . S
C580 C581 1.392 . S
C580 C583 1.511 . S
C581 C577 1.376 . S
C581 C580 1.392 . S
C581 H593 0.929 . S
C582 C578 1.531 . S
C582 H594 0.960 . S
C582 H595 0.962 . S
C582 H596 0.960 . S
C583 C580 1.511 . S
C583 H597 0.961 . S
C583 H598 0.961 . S
C583 H599 0.961 . S
C584 C585 1.370 . S
C584 C586 1.363 . S
C584 H600 0.931 . S
C585 C584 1.370 . S
C585 C589 1.408 . S
C586 C584 1.363 . S
C586 C587 1.370 . S
C586 C590 1.524 . S
C587 C579 1.503 . S
C587 C586 1.370 . S
C587 C588 1.403 . S
C588 C587 1.403 . S
C588 C589 1.404 . S
C588 C591 1.539 . S
C589 C585 1.408 . S
C589 C588 1.404 . S
C589 H601 0.930 . S
C590 C586 1.524 . S
C590 H602 0.956 . S
C590 H603 0.961 . S
C590 H604 0.961 . S
C591 C588 1.539 . S
C591 H605 0.958 . S
C591 H606 0.961 . S
C591 H607 0.960 . S
H592 C576 0.931 . S
H593 C581 0.929 . S
H594 C582 0.960 . S
H595 C582 0.962 . S
H596 C582 0.960 . S
H597 C583 0.961 . S
H598 C583 0.961 . S
H599 C583 0.961 . S
H600 C584 0.931 . S
H601 C589 0.930 . S
H602 C590 0.956 . S
H603 C590 0.961 . S
H604 C590 0.961 . S
H605 C591 0.958 . S
H606 C591 0.961 . S
H607 C591 0.960 . S
C608 C609 1.391 . S
C608 C610 1.394 . S
C608 H624 0.931 . S
C609 C608 1.391 . S
C609 C613 1.376 . S
C610 C608 1.394 . S
C610 C611 1.369 . S
C610 C614 1.531 1_565 S
C611 C610 1.369 . S
C611 C612 1.410 . S
C611 C619 1.503 . S
C612 C611 1.410 . S
C612 C613 1.392 . S
C612 C615 1.511 1_655 S
C613 C609 1.376 . S
C613 C612 1.392 . S
C613 H625 0.929 . S
C614 C610 1.531 1_545 S
C614 H626 0.960 . S
C614 H627 0.969 . S
C614 H628 0.960 . S
C615 C612 1.511 1_455 S
C615 H629 0.961 . S
C615 H630 0.961 . S
C615 H631 0.961 . S
C616 C617 1.370 1_565 S
C616 C618 1.363 . S
C616 H632 0.931 . S
C617 C616 1.370 1_545 S
C617 C621 1.408 . S
C618 C616 1.363 . S
C618 C619 1.370 . S
C618 C622 1.524 . S
C619 C611 1.503 . S
C619 C618 1.370 . S
C619 C620 1.403 1_565 S
C620 C619 1.403 1_545 S
C620 C621 1.404 . S
C620 C623 1.539 . S
C621 C617 1.408 . S
C621 C620 1.404 . S
C621 H633 0.935 . S
C622 C618 1.524 . S
C622 H634 0.956 . S
C622 H635 0.961 . S
C622 H636 0.961 . S
C623 C620 1.539 . S
C623 H637 0.958 . S
C623 H638 0.961 1_655 S
C623 H639 0.960 1_655 S
H624 C608 0.931 . S
H625 C613 0.929 . S
H626 C614 0.960 . S
H627 C614 0.969 . S
H628 C614 0.960 . S
H629 C615 0.961 . S
H630 C615 0.961 . S
H631 C615 0.961 . S
H632 C616 0.931 . S
H633 C621 0.935 . S
H634 C622 0.956 . S
H635 C622 0.961 . S
H636 C622 0.961 . S
H637 C623 0.958 . S
H638 C623 0.961 1_455 S
H639 C623 0.960 1_455 S
C640 C641 1.391 . S
C640 C642 1.394 . S
C640 H656 0.931 . S
C641 C640 1.391 . S
C641 C645 1.376 . S
C642 C640 1.394 . S
C642 C643 1.369 . S
C642 C646 1.531 . S
C643 C642 1.369 . S
C643 C644 1.410 . S
C643 C651 1.503 . S
C644 C643 1.410 . S
C644 C645 1.392 . S
C644 C647 1.511 . S
C645 C641 1.376 . S
C645 C644 1.392 . S
C645 H657 0.929 . S
C646 C642 1.531 . S
C646 H658 0.960 . S
C646 H659 0.962 . S
C646 H660 0.960 . S
C647 C644 1.511 . S
C647 H661 0.961 . S
C647 H662 0.961 . S
C647 H663 0.961 . S
C648 C649 1.370 . S
C648 C650 1.363 . S
C648 H664 0.931 . S
C649 C648 1.370 . S
C649 C653 1.408 . S
C650 C648 1.363 . S
C650 C651 1.370 . S
C650 C654 1.524 . S
C651 C643 1.503 . S
C651 C650 1.370 . S
C651 C652 1.403 . S
C652 C651 1.403 . S
C652 C653 1.404 . S
C652 C655 1.539 . S
C653 C649 1.408 . S
C653 C652 1.404 . S
C653 H665 0.930 . S
C654 C650 1.524 . S
C654 H666 0.956 . S
C654 H667 0.961 . S
C654 H668 0.961 . S
C655 C652 1.539 . S
C655 H669 0.958 . S
C655 H670 0.961 . S
C655 H671 0.960 . S
H656 C640 0.931 . S
H657 C645 0.929 . S
H658 C646 0.960 . S
H659 C646 0.962 . S
H660 C646 0.960 . S
H661 C647 0.961 . S
H662 C647 0.961 . S
H663 C647 0.961 . S
H664 C648 0.931 . S
H665 C653 0.930 . S
H666 C654 0.956 . S
H667 C654 0.961 . S
H668 C654 0.961 . S
H669 C655 0.958 . S
H670 C655 0.961 . S
H671 C655 0.960 . S
C672 C673 1.391 . S
C672 C674 1.394 . S
C672 H688 0.931 . S
C673 C672 1.391 . S
C673 C677 1.376 . S
C674 C672 1.394 . S
C674 C675 1.369 . S
C674 C678 1.531 . S
C675 C674 1.369 . S
C675 C676 1.410 . S
C675 C683 1.503 . S
C676 C675 1.410 . S
C676 C677 1.392 . S
C676 C679 1.511 . S
C677 C673 1.376 . S
C677 C676 1.392 . S
C677 H689 0.929 . S
C678 C674 1.531 . S
C678 H690 0.960 . S
C678 H691 0.962 . S
C678 H692 0.960 . S
C679 C676 1.511 . S
C679 H693 0.961 . S
C679 H694 0.961 . S
C679 H695 0.961 . S
C680 C681 1.370 . S
C680 C682 1.363 . S
C680 H696 0.931 . S
C681 C680 1.370 . S
C681 C685 1.408 . S
C682 C680 1.363 . S
C682 C683 1.370 . S
C682 C686 1.524 . S
C683 C675 1.503 . S
C683 C682 1.370 . S
C683 C684 1.403 . S
C684 C683 1.403 . S
C684 C685 1.404 . S
C684 C687 1.539 . S
C685 C681 1.408 . S
C685 C684 1.404 . S
C685 H697 0.930 . S
C686 C682 1.524 . S
C686 H698 0.956 . S
C686 H699 0.961 . S
C686 H700 0.961 . S
C687 C684 1.539 . S
C687 H701 0.958 . S
C687 H702 0.961 . S
C687 H703 0.960 . S
H688 C672 0.931 . S
H689 C677 0.929 . S
H690 C678 0.960 . S
H691 C678 0.962 . S
H692 C678 0.960 . S
H693 C679 0.961 . S
H694 C679 0.961 . S
H695 C679 0.961 . S
H696 C680 0.931 . S
H697 C685 0.930 . S
H698 C686 0.956 . S
H699 C686 0.961 . S
H700 C686 0.961 . S
H701 C687 0.958 . S
H702 C687 0.961 . S
H703 C687 0.960 . S
C704 C705 1.391 . S
C704 C706 1.394 . S
C704 H720 0.931 . S
C705 C704 1.391 . S
C705 C709 1.376 . S
C706 C704 1.394 . S
C706 C707 1.369 . S
C706 C710 1.531 . S
C707 C706 1.369 . S
C707 C708 1.410 . S
C707 C715 1.503 . S
C708 C707 1.410 . S
C708 C709 1.392 . S
C708 C711 1.511 . S
C709 C705 1.376 . S
C709 C708 1.392 . S
C709 H721 0.929 . S
C710 C706 1.531 . S
C710 H722 0.960 . S
C710 H723 0.962 . S
C710 H724 0.960 . S
C711 C708 1.511 . S
C711 H725 0.961 . S
C711 H726 0.961 . S
C711 H727 0.961 . S
C712 C713 1.370 . S
C712 C714 1.363 . S
C712 H728 0.931 . S
C713 C712 1.370 . S
C713 C717 1.408 . S
C714 C712 1.363 . S
C714 C715 1.370 . S
C714 C718 1.524 . S
C715 C707 1.503 . S
C715 C714 1.370 . S
C715 C716 1.403 . S
C716 C715 1.403 . S
C716 C717 1.404 . S
C716 C719 1.539 . S
C717 C713 1.408 . S
C717 C716 1.404 . S
C717 H729 0.930 . S
C718 C714 1.524 . S
C718 H730 0.956 . S
C718 H731 0.961 . S
C718 H732 0.961 . S
C719 C716 1.539 . S
C719 H733 0.958 . S
C719 H734 0.961 1_455 S
C719 H735 0.960 . S
H720 C704 0.931 . S
H721 C709 0.929 . S
H722 C710 0.960 . S
H723 C710 0.962 . S
H724 C710 0.960 . S
H725 C711 0.961 . S
H726 C711 0.961 . S
H727 C711 0.961 . S
H728 C712 0.931 . S
H729 C717 0.930 . S
H730 C718 0.956 . S
H731 C718 0.961 . S
H732 C718 0.961 . S
H733 C719 0.958 . S
H734 C719 0.961 1_655 S
H735 C719 0.960 . S
C736 C737 1.391 . S
C736 C738 1.394 . S
C736 H752 0.931 . S
C737 C736 1.391 . S
C737 C741 1.376 . S
C738 C736 1.394 . S
C738 C739 1.369 . S
C738 C742 1.531 . S
C739 C738 1.369 . S
C739 C740 1.410 . S
C739 C747 1.503 . S
C740 C739 1.410 . S
C740 C741 1.392 . S
C740 C743 1.511 1_556 S
C741 C737 1.376 . S
C741 C740 1.392 . S
C741 H753 0.929 . S
C742 C738 1.531 . S
C742 H754 0.960 . S
C742 H755 0.962 . S
C742 H756 0.960 . S
C743 C740 1.511 1_554 S
C743 H757 0.961 . S
C743 H758 0.961 . S
C743 H759 0.961 . S
C744 C745 1.370 . S
C744 C746 1.363 . S
C744 H760 0.931 . S
C745 C744 1.370 . S
C745 C749 1.408 1_545 S
C746 C744 1.363 . S
C746 C747 1.370 1_545 S
C746 C750 1.524 . S
C747 C739 1.503 . S
C747 C746 1.370 1_565 S
C747 C748 1.403 . S
C748 C747 1.403 . S
C748 C749 1.404 . S
C748 C751 1.539 . S
C749 C745 1.408 1_565 S
C749 C748 1.404 . S
C749 H761 0.930 1_556 S
C750 C746 1.524 . S
C750 H762 0.956 . S
C750 H763 0.961 . S
C750 H764 0.961 . S
C751 C748 1.539 . S
C751 H765 0.958 . S
C751 H766 0.961 1_556 S
C751 H767 0.960 . S
H752 C736 0.931 . S
H753 C741 0.929 . S
H754 C742 0.960 . S
H755 C742 0.962 . S
H756 C742 0.960 . S
H757 C743 0.961 . S
H758 C743 0.961 . S
H759 C743 0.961 . S
H760 C744 0.931 . S
H761 C749 0.930 1_554 S
H762 C750 0.956 . S
H763 C750 0.961 . S
H764 C750 0.961 . S
H765 C751 0.958 . S
H766 C751 0.961 1_554 S
H767 C751 0.960 . S
C768 C769 1.391 . S
C768 C770 1.394 . S
C768 H784 0.931 . S
C769 C768 1.391 . S
C769 C773 1.376 . S
C770 C768 1.394 . S
C770 C771 1.369 . S
C770 C774 1.531 . S
C771 C770 1.369 . S
C771 C772 1.410 . S
C771 C779 1.503 . S
C772 C771 1.410 . S
C772 C773 1.392 . S
C772 C775 1.511 . S
C773 C769 1.376 . S
C773 C772 1.392 . S
C773 H785 0.929 . S
C774 C770 1.531 . S
C774 H786 0.960 . S
C774 H787 0.962 . S
C774 H788 0.960 . S
C775 C772 1.511 . S
C775 H789 0.961 . S
C775 H790 0.961 . S
C775 H791 0.961 . S
C776 C777 1.370 . S
C776 C778 1.363 . S
C776 H792 0.931 . S
C777 C776 1.370 . S
C777 C781 1.408 . S
C778 C776 1.363 . S
C778 C779 1.370 . S
C778 C782 1.524 . S
C779 C771 1.503 . S
C779 C778 1.370 . S
C779 C780 1.403 . S
C780 C779 1.403 . S
C780 C781 1.404 . S
C780 C783 1.539 . S
C781 C777 1.408 . S
C781 C780 1.404 . S
C781 H793 0.930 . S
C782 C778 1.524 . S
C782 H794 0.956 . S
C782 H795 0.961 . S
C782 H796 0.961 . S
C783 C780 1.539 . S
C783 H797 0.958 . S
C783 H798 0.961 . S
C783 H799 0.960 . S
H784 C768 0.931 . S
H785 C773 0.929 . S
H786 C774 0.960 . S
H787 C774 0.962 . S
H788 C774 0.960 . S
H789 C775 0.961 . S
H790 C775 0.961 . S
H791 C775 0.961 . S
H792 C776 0.931 . S
H793 C781 0.930 . S
H794 C782 0.956 . S
H795 C782 0.961 . S
H796 C782 0.961 . S
H797 C783 0.958 . S
H798 C783 0.961 . S
H799 C783 0.960 . S
C800 C801 1.391 . S
C800 C802 1.394 . S
C800 H816 0.931 . S
C801 C800 1.391 . S
C801 C805 1.376 . S
C802 C800 1.394 . S
C802 C803 1.369 . S
C802 C806 1.531 . S
C803 C802 1.369 . S
C803 C804 1.410 . S
C803 C811 1.503 . S
C804 C803 1.410 . S
C804 C805 1.392 . S
C804 C807 1.511 . S
C805 C801 1.376 . S
C805 C804 1.392 . S
C805 H817 0.929 . S
C806 C802 1.531 . S
C806 H818 0.960 . S
C806 H819 0.962 . S
C806 H820 0.960 . S
C807 C804 1.511 . S
C807 H821 0.961 . S
C807 H822 0.961 . S
C807 H823 0.961 . S
C808 C809 1.370 . S
C808 C810 1.363 . S
C808 H824 0.931 . S
C809 C808 1.370 . S
C809 C813 1.408 . S
C810 C808 1.363 . S
C810 C811 1.370 . S
C810 C814 1.524 . S
C811 C803 1.503 . S
C811 C810 1.370 . S
C811 C812 1.403 . S
C812 C811 1.403 . S
C812 C813 1.404 . S
C812 C815 1.539 . S
C813 C809 1.408 . S
C813 C812 1.404 . S
C813 H825 0.930 . S
C814 C810 1.524 . S
C814 H826 0.956 . S
C814 H827 0.961 . S
C814 H828 0.961 . S
C815 C812 1.539 . S
C815 H829 0.958 . S
C815 H830 0.961 . S
C815 H831 0.960 . S
H816 C800 0.931 . S
H817 C805 0.929 . S
H818 C806 0.960 . S
H819 C806 0.962 . S
H820 C806 0.960 . S
H821 C807 0.961 . S
H822 C807 0.961 . S
H823 C807 0.961 . S
H824 C808 0.931 . S
H825 C813 0.930 . S
H826 C814 0.956 . S
H827 C814 0.961 . S
H828 C814 0.961 . S
H829 C815 0.958 . S
H830 C815 0.961 . S
H831 C815 0.960 . S
C832 C833 1.391 . S
C832 C834 1.394 . S
C832 H848 0.931 . S
C833 C832 1.391 . S
C833 C837 1.376 . S
C834 C832 1.394 . S
C834 C835 1.369 . S
C834 C838 1.531 . S
C835 C834 1.369 . S
C835 C836 1.410 . S
C835 C843 1.503 . S
C836 C835 1.410 . S
C836 C837 1.392 . S
C836 C839 1.511 . S
C837 C833 1.376 . S
C837 C836 1.392 . S
C837 H849 0.929 . S
C838 C834 1.531 . S
C838 H850 0.960 . S
C838 H851 0.962 . S
C838 H852 0.960 . S
C839 C836 1.511 . S
C839 H853 0.961 . S
C839 H854 0.961 . S
C839 H855 0.961 . S
C840 C841 1.370 . S
C840 C842 1.363 . S
C840 H856 0.931 . S
C841 C840 1.370 . S
C841 C845 1.408 . S
C842 C840 1.363 . S
C842 C843 1.370 . S
C842 C846 1.524 . S
C843 C835 1.503 . S
C843 C842 1.370 . S
C843 C844 1.403 . S
C844 C843 1.403 . S
C844 C845 1.404 . S
C844 C847 1.539 . S
C845 C841 1.408 . S
C845 C844 1.404 . S
C845 H857 0.930 . S
C846 C842 1.524 . S
C846 H858 0.956 . S
C846 H859 0.961 . S
C846 H860 0.961 . S
C847 C844 1.539 . S
C847 H861 0.958 . S
C847 H862 0.961 . S
C847 H863 0.960 . S
H848 C832 0.931 . S
H849 C837 0.929 . S
H850 C838 0.960 . S
H851 C838 0.962 . S
H852 C838 0.960 . S
H853 C839 0.961 . S
H854 C839 0.961 . S
H855 C839 0.961 . S
H856 C840 0.931 . S
H857 C845 0.930 . S
H858 C846 0.956 . S
H859 C846 0.961 . S
H860 C846 0.961 . S
H861 C847 0.958 . S
H862 C847 0.961 . S
H863 C847 0.960 . S
C864 C865 1.391 . S
C864 C866 1.394 . S
C864 H880 0.931 . S
C865 C864 1.391 . S
C865 C869 1.376 . S
C866 C864 1.394 . S
C866 C867 1.369 . S
C866 C870 1.531 . S
C867 C866 1.369 . S
C867 C868 1.410 . S
C867 C875 1.503 . S
C868 C867 1.410 . S
C868 C869 1.392 . S
C868 C871 1.511 . S
C869 C865 1.376 . S
C869 C868 1.392 . S
C869 H881 0.929 . S
C870 C866 1.531 . S
C870 H882 0.960 . S
C870 H883 0.962 1_556 S
C870 H884 0.960 . S
C871 C868 1.511 . S
C871 H885 0.961 . S
C871 H886 0.961 . S
C871 H887 0.961 . S
C872 C873 1.370 . S
C872 C874 1.363 . S
C872 H888 0.931 1_655 S
C873 C872 1.370 . S
C873 C877 1.408 . S
C874 C872 1.363 . S
C874 C875 1.370 . S
C874 C878 1.524 1_655 S
C875 C867 1.503 . S
C875 C874 1.370 . S
C875 C876 1.403 . S
C876 C875 1.403 . S
C876 C877 1.404 . S
C876 C879 1.539 . S
C877 C873 1.408 . S
C877 C876 1.404 . S
C877 H889 0.930 . S
C878 C874 1.524 1_455 S
C878 H890 0.956 . S
C878 H891 0.961 . S
C878 H892 0.961 . S
C879 C876 1.539 . S
C879 H893 0.958 . S
C879 H894 0.961 . S
C879 H895 0.960 . S
H880 C864 0.931 . S
H881 C869 0.929 . S
H882 C870 0.960 . S
H883 C870 0.962 1_554 S
H884 C870 0.960 . S
H885 C871 0.961 . S
H886 C871 0.961 . S
H887 C871 0.961 . S
H888 C872 0.931 1_455 S
H889 C877 0.930 . S
H890 C878 0.956 . S
H891 C878 0.961 . S
H892 C878 0.961 . S
H893 C879 0.958 . S
H894 C879 0.961 . S
H895 C879 0.960 . S
C896 C897 1.391 . S
C896 C898 1.394 . S
C896 H912 0.931 . S
C897 C896 1.391 . S
C897 C901 1.376 . S
C898 C896 1.394 . S
C898 C899 1.369 . S
C898 C902 1.531 . S
C899 C898 1.369 . S
C899 C900 1.410 . S
C899 C907 1.503 . S
C900 C899 1.410 . S
C900 C901 1.392 . S
C900 C903 1.511 . S
C901 C897 1.376 . S
C901 C900 1.392 . S
C901 H913 0.929 . S
C902 C898 1.531 . S
C902 H914 0.960 . S
C902 H915 0.962 . S
C902 H916 0.960 . S
C903 C900 1.511 . S
C903 H917 0.961 . S
C903 H918 0.961 . S
C903 H919 0.961 . S
C904 C905 1.370 . S
C904 C906 1.363 . S
C904 H920 0.931 . S
C905 C904 1.370 . S
C905 C909 1.408 . S
C906 C904 1.363 . S
C906 C907 1.370 . S
C906 C910 1.524 . S
C907 C899 1.503 . S
C907 C906 1.370 . S
C907 C908 1.403 . S
C908 C907 1.403 . S
C908 C909 1.404 . S
C908 C911 1.539 . S
C909 C905 1.408 . S
C909 C908 1.404 . S
C909 H921 0.930 . S
C910 C906 1.524 . S
C910 H922 0.956 . S
C910 H923 0.961 . S
C910 H924 0.961 . S
C911 C908 1.539 . S
C911 H925 0.958 . S
C911 H926 0.961 . S
C911 H927 0.960 . S
H912 C896 0.931 . S
H913 C901 0.929 . S
H914 C902 0.960 . S
H915 C902 0.962 . S
H916 C902 0.960 . S
H917 C903 0.961 . S
H918 C903 0.961 . S
H919 C903 0.961 . S
H920 C904 0.931 . S
H921 C909 0.930 . S
H922 C910 0.956 . S
H923 C910 0.961 . S
H924 C910 0.961 . S
H925 C911 0.958 . S
H926 C911 0.961 . S
H927 C911 0.960 . S
C928 C929 1.391 . S
C928 C930 1.394 . S
C928 H944 0.931 . S
C929 C928 1.391 . S
C929 C933 1.376 . S
C930 C928 1.394 . S
C930 C931 1.369 . S
C930 C934 1.531 . S
C931 C930 1.369 . S
C931 C932 1.410 . S
C931 C939 1.503 . S
C932 C931 1.410 . S
C932 C933 1.392 . S
C932 C935 1.511 . S
C933 C929 1.376 . S
C933 C932 1.392 . S
C933 H945 0.929 . S
C934 C930 1.531 . S
C934 H946 0.960 . S
C934 H947 0.962 . S
C934 H948 0.960 . S
C935 C932 1.511 . S
C935 H949 0.961 . S
C935 H950 0.961 . S
C935 H951 0.961 . S
C936 C937 1.370 . S
C936 C938 1.363 . S
C936 H952 0.931 . S
C937 C936 1.370 . S
C937 C941 1.408 . S
C938 C936 1.363 . S
C938 C939 1.370 . S
C938 C942 1.524 . S
C939 C931 1.503 . S
C939 C938 1.370 . S
C939 C940 1.403 . S
C940 C939 1.403 . S
C940 C941 1.404 . S
C940 C943 1.539 . S
C941 C937 1.408 . S
C941 C940 1.404 . S
C941 H953 0.930 . S
C942 C938 1.524 . S
C942 H954 0.956 . S
C942 H955 0.961 . S
C942 H956 0.961 . S
C943 C940 1.539 . S
C943 H957 0.958 . S
C943 H958 0.961 . S
C943 H959 0.960 . S
H944 C928 0.931 . S
H945 C933 0.929 . S
H946 C934 0.960 . S
H947 C934 0.962 . S
H948 C934 0.960 . S
H949 C935 0.961 . S
H950 C935 0.961 . S
H951 C935 0.961 . S
H952 C936 0.931 . S
H953 C941 0.930 . S
H954 C942 0.956 . S
H955 C942 0.961 . S
H956 C942 0.961 . S
H957 C943 0.958 . S
H958 C943 0.961 . S
H959 C943 0.960 . S
C960 C961 1.391 . S
C960 C962 1.394 . S
C960 H976 0.931 . S
C961 C960 1.391 . S
C961 C965 1.376 . S
C962 C960 1.394 . S
C962 C963 1.369 . S
C962 C966 1.531 . S
C963 C962 1.369 . S
C963 C964 1.410 . S
C963 C971 1.503 . S
C964 C963 1.410 . S
C964 C965 1.392 . S
C964 C967 1.511 . S
C965 C961 1.376 . S
C965 C964 1.392 . S
C965 H977 0.929 . S
C966 C962 1.531 . S
C966 H978 0.960 . S
C966 H979 0.962 . S
C966 H980 0.960 . S
C967 C964 1.511 . S
C967 H981 0.961 . S
C967 H982 0.961 . S
C967 H983 0.961 . S
C968 C969 1.370 . S
C968 C970 1.363 . S
C968 H984 0.931 . S
C969 C968 1.370 . S
C969 C973 1.408 . S
C970 C968 1.363 . S
C970 C971 1.370 . S
C970 C974 1.524 . S
C971 C963 1.503 . S
C971 C970 1.370 . S
C971 C972 1.403 . S
C972 C971 1.403 . S
C972 C973 1.404 . S
C972 C975 1.539 . S
C973 C969 1.408 . S
C973 C972 1.404 . S
C973 H985 0.930 . S
C974 C970 1.524 . S
C974 H986 0.956 . S
C974 H987 0.961 . S
C974 H988 0.961 . S
C975 C972 1.539 . S
C975 H989 0.958 . S
C975 H990 0.961 . S
C975 H991 0.960 . S
H976 C960 0.931 . S
H977 C965 0.929 . S
H978 C966 0.960 . S
H979 C966 0.962 . S
H980 C966 0.960 . S
H981 C967 0.961 . S
H982 C967 0.961 . S
H983 C967 0.961 . S
H984 C968 0.931 . S
H985 C973 0.930 . S
H986 C974 0.956 . S
H987 C974 0.961 . S
H988 C974 0.961 . S
H989 C975 0.958 . S
H990 C975 0.961 . S
H991 C975 0.960 . S
C225 C4 2.505 . S
C233 C88 2.521 . S
C257 C16 2.600 . S
C265 C130 2.619 . S
C297 C160 0.633 . S
C289 C32 0.641 . S
C321 C43 0.847 . S
C329 C194 0.915 . S
C361 C151 2.270 . S
C353 C5 2.258 . S
C393 C105 1.661 . S
C385 C21 1.652 . S
C425 C198 1.136 . S
C417 C27 1.092 . S
C457 C164 1.172 . S
C449 C37 1.175 . S
C481 C10 2.209 . S
C489 C219 2.221 . S
C521 C126 1.193 . S
C513 C26 1.140 . S
C545 C38 0.941 . S
C553 C101 0.930 . S
C577 C15 2.337 . S
C585 C185 2.358 . S
C617 C117 2.637 . S
C609 C48 2.629 . S
C641 C59 2.377 . S
C649 C139 2.408 . S
C673 C76 0.835 . S
C681 C169 0.885 . S
C705 C87 0.785 . S
C713 C203 0.731 . S
C737 C54 1.671 . S
C745 C122 1.709 1_556 S
C777 C96 2.224 . S
C769 C60 2.193 . S
C809 C207 1.089 . S
C801 C71 1.046 . S
C841 C173 1.166 . S
C833 C82 1.142 . S
C865 C49 2.480 . S
C873 C190 2.493 . S
C905 C135 0.894 . S
C897 C70 0.856 . S
C937 C92 1.152 . S
C929 C81 1.153 . S
C961 C65 2.151 . S
C969 C156 2.163 . S
