# Generated by pormake.
# Topology zzz, (3,6)-cn, num edge types: 1
# Building blocks:
#     Node 0, Type 0, BuildingBlock: PAMTOO_clean_linker_0, # of connection points: 3
#     Node 1, Type 0, BuildingBlock: PAMTOO_clean_linker_0, # of connection points: 3
#     Node 2, Type 0, BuildingBlock: PAMTOO_clean_linker_0, # of connection points: 3
#     Node 3, Type 0, BuildingBlock: PAMTOO_clean_linker_0, # of connection points: 3
#     Node 4, Type 0, BuildingBlock: PAMTOO_clean_linker_0, # of connection points: 3
#     Node 5, Type 0, BuildingBlock: PAMTOO_clean_linker_0, # of connection points: 3
#     Node 6, Type 0, BuildingBlock: PAMTOO_clean_linker_0, # of connection points: 3
#     Node 7, Type 0, BuildingBlock: PAMTOO_clean_linker_0, # of connection points: 3
#     Node 8, Type 1, BuildingBlock: PAMTUU_clean_sbu_0, # of connection points: 6
#     Node 9, Type 1, BuildingBlock: PAMTUU_clean_sbu_0, # of connection points: 6
#     Node 10, Type 1, BuildingBlock: PAMTUU_clean_sbu_0, # of connection points: 6
#     Node 11, Type 1, BuildingBlock: PAMTUU_clean_sbu_0, # of connection points: 6
#     Edge 12, Type (0, 1), BuildingBlock: MIFKUJ_clean_linker_0, # of connection points: 2
#     Edge 13, Type (0, 1), BuildingBlock: MIFKUJ_clean_linker_0, # of connection points: 2
#     Edge 14, Type (0, 1), BuildingBlock: MIFKUJ_clean_linker_0, # of connection points: 2
#     Edge 15, Type (0, 1), BuildingBlock: MIFKUJ_clean_linker_0, # of connection points: 2
#     Edge 16, Type (0, 1), BuildingBlock: MIFKUJ_clean_linker_0, # of connection points: 2
#     Edge 17, Type (0, 1), BuildingBlock: MIFKUJ_clean_linker_0, # of connection points: 2
#     Edge 18, Type (0, 1), BuildingBlock: MIFKUJ_clean_linker_0, # of connection points: 2
#     Edge 19, Type (0, 1), BuildingBlock: MIFKUJ_clean_linker_0, # of connection points: 2
#     Edge 20, Type (0, 1), BuildingBlock: MIFKUJ_clean_linker_0, # of connection points: 2
#     Edge 21, Type (0, 1), BuildingBlock: MIFKUJ_clean_linker_0, # of connection points: 2
#     Edge 22, Type (0, 1), BuildingBlock: MIFKUJ_clean_linker_0, # of connection points: 2
#     Edge 23, Type (0, 1), BuildingBlock: MIFKUJ_clean_linker_0, # of connection points: 2
#     Edge 24, Type (0, 1), BuildingBlock: MIFKUJ_clean_linker_0, # of connection points: 2
#     Edge 25, Type (0, 1), BuildingBlock: MIFKUJ_clean_linker_0, # of connection points: 2
#     Edge 26, Type (0, 1), BuildingBlock: MIFKUJ_clean_linker_0, # of connection points: 2
#     Edge 27, Type (0, 1), BuildingBlock: MIFKUJ_clean_linker_0, # of connection points: 2
#     Edge 28, Type (0, 1), BuildingBlock: MIFKUJ_clean_linker_0, # of connection points: 2
#     Edge 29, Type (0, 1), BuildingBlock: MIFKUJ_clean_linker_0, # of connection points: 2
#     Edge 30, Type (0, 1), BuildingBlock: MIFKUJ_clean_linker_0, # of connection points: 2
#     Edge 31, Type (0, 1), BuildingBlock: MIFKUJ_clean_linker_0, # of connection points: 2
#     Edge 32, Type (0, 1), BuildingBlock: MIFKUJ_clean_linker_0, # of connection points: 2
#     Edge 33, Type (0, 1), BuildingBlock: MIFKUJ_clean_linker_0, # of connection points: 2
#     Edge 34, Type (0, 1), BuildingBlock: MIFKUJ_clean_linker_0, # of connection points: 2
#     Edge 35, Type (0, 1), BuildingBlock: MIFKUJ_clean_linker_0, # of connection points: 2
# Relax obj value: 0.183
# Max RMSD: 0.204
# Mean RMSD: 0.120
data_MOF--net-zzz--node1-PAMTUU_clean_sbu_0--node2-PAMTOO_clean_linker_0--edge1-MIFKUJ_clean_linker_0
_symmetry_space_group_name_H-M    P1
_symmetry_Int_Tables_number       1
_symmetry_cell_setting            triclinic
loop_
_symmetry_equiv_pos_as_xyz
'x, y, z'
_cell_length_a     67.072795
_cell_length_b     70.222521
_cell_length_c     19.788858
_cell_angle_alpha  99.08461
_cell_angle_beta   90.097569
_cell_angle_gamma 91.574201
loop_
_atom_site_label
_atom_site_type_symbol
_atom_site_fract_x
_atom_site_fract_y
_atom_site_fract_z
_atom_type_partial_charge
H0 H 0.81673 0.52051 0.31107 0.0
H1 H 0.75483 0.51822 0.25099 0.0
H2 H 0.77233 0.49669 0.43317 0.0
H3 H 0.72617 0.47668 0.3517 0.0
C4 C 0.73228 0.48527 0.31354 0.0
O5 O 0.74165 0.50185 0.34903 0.0
H6 H 0.74337 0.47609 0.28284 0.0
C7 C 0.80122 0.51726 0.32093 0.0
C8 C 0.79656 0.50914 0.37977 0.0
C9 C 0.78643 0.52025 0.27327 0.0
C10 C 0.76652 0.51555 0.2859 0.0
C11 C 0.76131 0.50664 0.34169 0.0
C12 C 0.77637 0.50329 0.38906 0.0
H13 H 1.00208 0.78962 0.32043 0.0
H14 H 0.99847 0.73011 0.22673 0.0
H15 H 1.00221 0.74496 0.44619 0.0
H16 H 0.01968 0.70297 0.39553 0.0
C17 C 0.01709 0.70605 0.34287 0.0
O18 O 0.99986 0.71638 0.34246 0.0
H19 H 0.03039 0.71453 0.32933 0.0
C20 C 1.0013 0.77443 0.3252 0.0
C21 C 1.00239 0.76904 0.39022 0.0
C22 C 0.99982 0.76058 0.26611 0.0
C23 C 0.99935 0.74096 0.27214 0.0
C24 C 1.00008 0.73534 0.3371 0.0
C25 C 1.00139 0.74938 0.39625 0.0
H26 H 0.7292 0.01267 0.31126 0.0
H27 H 0.78768 0.00886 0.22175 0.0
H28 H 0.77758 0.99076 0.4171 0.0
H29 H 0.80342 0.97154 0.24945 0.0
C30 C 0.81431 0.98049 0.28435 0.0
O31 O 0.80508 0.99635 0.3214 0.0
H32 H 0.8194 0.97111 0.32085 0.0
C33 C 0.74469 0.00872 0.31328 0.0
C34 C 0.75147 0.0013 0.37065 0.0
C35 C 0.75744 0.01119 0.25883 0.0
C36 C 0.77762 0.00686 0.26299 0.0
C37 C 0.78507 0.99943 0.31913 0.0
C38 C 0.77189 0.99635 0.37313 0.0
H39 H 0.53162 0.71065 0.18962 0.0
H40 H 0.53202 0.75505 0.063 0.0
H41 H 0.54523 0.76946 0.27896 0.0
H42 H 0.5243 0.80194 0.22774 0.0
C43 C 0.5258 0.79653 0.17213 0.0
O44 O 0.54103 0.78347 0.16268 0.0
H45 H 0.51134 0.78926 0.15422 0.0
C46 C 0.53337 0.72578 0.18448 0.0
C47 C 0.5384 0.73929 0.24196 0.0
C48 C 0.5313 0.73122 0.12004 0.0
C49 C 0.53354 0.75073 0.1129 0.0
C50 C 0.53834 0.76467 0.17037 0.0
C51 C 0.54107 0.75886 0.23496 0.0
H52 H 0.22647 0.51618 0.29428 0.0
H53 H 0.28568 0.51675 0.37833 0.0
H54 H 0.27466 0.49205 0.16778 0.0
H55 H 0.31526 0.4741 0.24583 0.0
C56 C 0.31121 0.48473 0.29112 0.0
O57 O 0.30251 0.50034 0.26811 0.0
H58 H 0.30026 0.4771 0.32047 0.0
C59 C 0.24203 0.51249 0.28815 0.0
C60 C 0.24856 0.50333 0.2241 0.0
C61 C 0.25517 0.51732 0.34398 0.0
C62 C 0.2754 0.5132 0.33557 0.0
C63 C 0.28259 0.50394 0.27298 0.0
C64 C 0.26916 0.49909 0.21652 0.0
H65 H 0.03575 0.20505 0.21427 0.0
H66 H 0.03513 0.26405 0.31384 0.0
H67 H 0.06413 0.24951 0.11905 0.0
H68 H 0.08361 0.28749 0.20453 0.0
C69 C 0.07286 0.28599 0.24617 0.0
O70 O 0.05524 0.27779 0.21752 0.0
H71 H 0.07982 0.27666 0.27978 0.0
C72 C 0.03957 0.22019 0.21461 0.0
C73 C 0.05059 0.22562 0.16059 0.0
C74 C 0.03379 0.23389 0.2697 0.0
C75 C 0.03927 0.25335 0.27096 0.0
C76 C 0.05015 0.25899 0.21644 0.0
C77 C 0.0557 0.24513 0.16092 0.0
H78 H 0.32061 0.99242 0.27988 0.0
H79 H 0.26146 0.99771 0.36028 0.0
H80 H 0.27294 0.00834 0.15472 0.0
H81 H 0.23511 0.97987 0.24355 0.0
C82 C 0.22951 0.99468 0.2439 0.0
O83 O 0.24514 0.00834 0.25429 0.0
H84 H 0.22312 0.99476 0.19211 0.0
C85 C 0.30511 0.9957 0.27264 0.0
C86 C 0.29882 1.00026 0.20951 0.0
C87 C 0.29177 0.99444 0.32611 0.0
C88 C 0.27176 0.99864 0.3187 0.0
C89 C 0.26477 0.0038 0.25768 0.0
C90 C 0.27833 0.00461 0.20241 0.0
H91 H 0.52867 0.29079 0.43275 0.0
H92 H 0.53665 0.24198 0.5351 0.0
H93 H 0.51228 0.23381 0.33018 0.0
H94 H 0.49552 0.20418 0.40979 0.0
C95 C 0.50605 0.20733 0.45383 0.0
O96 O 0.52317 0.21621 0.43315 0.0
H97 H 0.49843 0.21719 0.49481 0.0
C98 C 0.52761 0.2753 0.43211 0.0
C99 C 0.51953 0.26339 0.37467 0.0
C100 C 0.53381 0.2678 0.48972 0.0
C101 C 0.5322 0.24787 0.49015 0.0
C102 C 0.52462 0.23551 0.43232 0.0
C103 C 0.51843 0.24328 0.37422 0.0
Tb104 Tb 1.00917 0.00387 0.7153 0.0
Tb105 Tb 0.03651 0.98993 0.83343 0.0
C106 C 0.9901 0.99608 0.85478 0.0
C107 C 0.9903 0.03594 0.60323 0.0
C108 C 0.99315 0.07384 0.57279 0.0
C109 C 0.97442 0.06448 0.57597 0.0
C110 C 0.97303 0.04568 0.59105 0.0
C111 C 1.00903 0.04509 0.59904 0.0
C112 C 1.01044 0.06378 0.58348 0.0
C113 C 0.98862 0.01729 0.62795 0.0
O114 O 0.01702 0.02957 0.78782 0.0
O115 O 0.04488 0.02028 0.84062 0.0
O116 O 0.05508 0.98774 0.74117 0.0
O117 O 0.03994 0.00949 0.68488 0.0
O118 O 0.04405 0.98881 0.93611 0.0
O119 O 0.05962 0.97204 0.8532 0.0
O120 O 0.01717 0.9657 0.79173 0.0
O121 O 0.0124 0.97293 0.6845 0.0
O122 O 0.98794 0.99401 0.78776 0.0
O123 O 1.00803 0.9983 0.8829 0.0
C124 C 0.03324 0.03374 0.82513 0.0
O125 O 1.00311 0.00541 0.61205 0.0
O126 O 0.98377 0.01848 0.69209 0.0
C127 C 0.05538 0.99897 0.69376 0.0
C128 C 0.05128 0.95656 0.94478 0.0
C129 C 0.0431 0.91889 0.97168 0.0
C130 C 0.06248 0.92716 0.98102 0.0
C131 C 0.06654 0.94583 0.96731 0.0
C132 C 0.03183 0.9486 0.93743 0.0
C133 C 0.02779 0.92994 0.95052 0.0
C134 C 0.05602 0.97456 0.91848 0.0
C135 C 0.01264 0.96039 0.72709 0.0
H136 H 0.96079 0.07185 0.56886 0.0
H137 H 0.95844 0.03897 0.59522 0.0
H138 H 0.02259 0.03797 0.60921 0.0
H139 H 0.02512 0.07038 0.58021 0.0
H140 H 0.07455 0.91913 0.99806 0.0
H141 H 0.08169 0.95165 0.97222 0.0
H142 H 0.01988 0.95653 0.91897 0.0
H143 H 0.01279 0.92395 0.9416 0.0
Tb144 Tb 0.51611 0.98296 0.71694 0.0
Tb145 Tb 0.53277 0.01215 0.84765 0.0
C146 C 0.52906 0.96773 0.84923 0.0
C147 C 0.48315 0.94698 0.62027 0.0
C148 C 0.44464 0.93016 0.62075 0.0
C149 C 0.45461 0.93104 0.5586 0.0
C150 C 0.47371 0.93945 0.55843 0.0
C151 C 0.47391 0.9449 0.68242 0.0
C152 C 0.45481 0.9365 0.68268 0.0
C153 C 0.50117 0.95926 0.62048 0.0
O154 O 0.48925 0.99311 0.7748 0.0
O155 O 0.50264 0.00515 0.88072 0.0
O156 O 0.51521 0.02817 0.78445 0.0
O157 O 0.5224 0.0105 0.68208 0.0
O158 O 0.54703 0.01843 0.94372 0.0
O159 O 0.53812 0.04118 0.89011 0.0
O160 O 0.5568 0.0106 0.77184 0.0
O161 O 0.54876 0.98147 0.70732 0.0
O162 O 0.51509 0.96718 0.80267 0.0
O163 O 0.54076 0.98315 0.86447 0.0
C164 C 0.48708 0.99937 0.841 0.0
O165 O 0.49787 0.97771 0.62947 0.0
O166 O 0.51581 0.95522 0.6588 0.0
C167 C 0.5178 0.02705 0.71842 0.0
C168 C 0.56969 0.04438 0.93937 0.0
C169 C 0.60855 0.0598 0.92917 0.0
C170 C 0.59386 0.07087 0.96642 0.0
C171 C 0.57449 0.06324 0.97101 0.0
C172 C 0.58426 0.03346 0.90148 0.0
C173 C 0.60343 0.0411 0.89611 0.0
C174 C 0.54913 0.03668 0.93892 0.0
C175 C 0.56178 0.99568 0.72675 0.0
H176 H 0.4471 0.92661 0.50994 0.0
H177 H 0.4806 0.94109 0.51011 0.0
H178 H 0.48099 0.95073 0.73079 0.0
H179 H 0.44759 0.93594 0.73127 0.0
H180 H 0.59743 0.08531 0.99253 0.0
H181 H 0.56329 0.07203 0.99917 0.0
H182 H 0.58088 0.01891 0.87615 0.0
H183 H 0.61445 0.03204 0.86816 0.0
Tb184 Tb 0.51053 0.49064 0.85887 0.0
Tb185 Tb 0.53781 0.50635 0.73945 0.0
C186 C 0.49082 0.49853 0.72086 0.0
C187 C 0.49271 0.45684 0.97254 0.0
C188 C 0.49493 0.42058 0.01773 0.0
C189 C 0.47847 0.43246 0.03444 0.0
C190 C 0.47739 0.45038 0.0121 0.0
C191 C 0.50914 0.44509 0.95539 0.0
C192 C 0.51027 0.42718 0.97786 0.0
C193 C 0.49107 0.47542 0.94709 0.0
O194 O 0.51655 0.46627 0.78076 0.0
O195 O 0.54543 0.47611 0.73274 0.0
O196 O 0.55668 0.50891 0.83181 0.0
O197 O 0.54151 0.48599 0.88587 0.0
O198 O 0.54513 0.50803 0.63679 0.0
O199 O 0.56101 0.52539 0.72027 0.0
O200 O 0.51897 0.52959 0.78239 0.0
O201 O 0.51352 0.52191 0.88931 0.0
O202 O 0.48895 0.49991 0.78788 0.0
O203 O 0.50859 0.49742 0.6919 0.0
C204 C 0.53294 0.46241 0.7458 0.0
O205 O 0.50582 0.48786 0.96207 0.0
O206 O 0.48571 0.47415 0.88327 0.0
C207 C 0.557 0.49732 0.87805 0.0
C208 C 0.55631 0.53983 0.6224 0.0
C209 C 0.55402 0.57527 0.57068 0.0
C210 C 0.57241 0.56865 0.59092 0.0
C211 C 0.57352 0.55119 0.61622 0.0
C212 C 0.53787 0.54621 0.60232 0.0
C213 C 0.53675 0.56367 0.57636 0.0
C214 C 0.55799 0.52224 0.65448 0.0
C215 C 0.51427 0.53455 0.84679 0.0
H216 H 0.4662 0.4278 0.06394 0.0
H217 H 0.46449 0.45912 0.02523 0.0
H218 H 0.52107 0.44975 0.92443 0.0
H219 H 0.52328 0.41862 0.96458 0.0
H220 H 0.58603 0.57718 0.58929 0.0
H221 H 0.58787 0.54674 0.63242 0.0
H222 H 0.5243 0.53783 0.60728 0.0
H223 H 0.52232 0.56796 0.56054 0.0
Tb224 Tb 0.03616 0.5119 0.71437 0.0
Tb225 Tb 0.01843 0.48578 0.82365 0.0
C226 C 0.01945 0.5309 0.85682 0.0
C227 C 0.0687 0.54791 0.65091 0.0
C228 C 0.10507 0.56898 0.67513 0.0
C229 C 0.09222 0.56682 0.72978 0.0
C230 C 0.07424 0.55623 0.71779 0.0
C231 C 0.08073 0.5511 0.59606 0.0
C232 C 0.09875 0.56147 0.60792 0.0
C233 C 0.05231 0.53354 0.6387 0.0
O234 O 0.06029 0.5106 0.78979 0.0
O235 O 0.05051 0.4846 0.84073 0.0
O236 O 0.02887 0.46442 0.74143 0.0
O237 O 0.03801 0.48277 0.65915 0.0
O238 O 0.01399 0.47989 0.92364 0.0
O239 O 0.99928 0.46257 0.83706 0.0
O240 O 0.99278 0.4971 0.77413 0.0
O241 O 1.00635 0.50298 0.67333 0.0
O242 O 0.02108 0.53182 0.79148 0.0
O243 O 0.02159 0.5147 0.88051 0.0
C244 C 0.06415 0.49754 0.8291 0.0
O245 O 0.05758 0.51593 0.64065 0.0
O246 O 0.03588 0.53759 0.67224 0.0
C247 C 0.03521 0.46606 0.67992 0.0
C248 C 0.97943 0.47363 0.92967 0.0
C249 C 0.93976 0.48567 0.93945 0.0
C250 C 0.94396 0.4659 0.92996 0.0
C251 C 0.9637 0.45992 0.92489 0.0
C252 C 0.97522 0.49336 0.94324 0.0
C253 C 0.95562 0.4993 0.94794 0.0
C254 C 0.99915 0.46794 0.90315 0.0
C255 C 0.99061 0.49994 0.7103 0.0
H256 H 0.09643 0.57256 0.78202 0.0
H257 H 0.06517 0.55375 0.76098 0.0
H258 H 0.07679 0.54455 0.54427 0.0
H259 H 0.10828 0.56235 0.5644 0.0
H260 H 0.93202 0.45507 0.92445 0.0
H261 H 0.96662 0.44467 0.91304 0.0
H262 H 0.98701 0.50429 0.94545 0.0
H263 H 0.95293 0.51462 0.95446 0.0
H264 H 0.22649 0.98229 0.36962 0.0
H265 H 0.19803 0.98434 0.44803 0.0
H266 H 0.16622 0.01674 0.31676 0.0
H267 H 0.19489 0.01503 0.23924 0.0
H268 H 0.15794 0.03076 0.4441 0.0
H269 H 0.15741 0.96648 0.31799 0.0
H270 H 0.1713 0.93477 0.27426 0.0
H271 H 0.17991 0.92414 0.47998 0.0
H272 H 0.1663 0.95591 0.52496 0.0
H273 H 0.06063 0.01709 0.58034 0.0
H274 H 0.08996 0.01743 0.50703 0.0
H275 H 0.1211 0.98285 0.63246 0.0
H276 H 0.09161 0.98196 0.70452 0.0
H277 H 0.12984 0.97006 0.50787 0.0
H278 H 0.12987 0.03413 0.63419 0.0
H279 H 0.11603 0.06574 0.67792 0.0
H280 H 0.10864 0.07706 0.47246 0.0
H281 H 0.12207 0.04523 0.42735 0.0
C282 C 0.21356 0.99014 0.3581 0.0
C283 C 0.21302 0.99841 0.29775 0.0
C284 C 0.19711 0.99112 0.40267 0.0
C285 C 0.17949 1.0003 0.38814 0.0
C286 C 0.17938 0.00942 0.32958 0.0
C287 C 0.19587 0.00848 0.28511 0.0
C288 C 0.16113 1.00003 0.4327 0.0
C289 C 0.15171 0.01742 0.4572 0.0
C290 C 0.15292 0.98277 0.45172 0.0
C291 C 0.16103 0.96365 0.42482 0.0
C292 C 0.1624 0.95743 0.3539 0.0
C293 C 0.1702 0.93944 0.32889 0.0
C294 C 0.17653 0.92747 0.37431 0.0
C295 C 0.17503 0.93344 0.44486 0.0
C296 C 0.16726 0.95143 0.47014 0.0
C297 C 0.07371 0.00957 0.5926 0.0
C298 C 0.07355 0.99955 0.64903 0.0
C299 C 0.09067 0.00987 0.55056 0.0
C300 C 0.10821 1.00043 0.56404 0.0
C301 C 0.10798 0.99031 0.62019 0.0
C302 C 0.09099 0.98987 0.66185 0.0
C303 C 0.12664 0.00084 0.51968 0.0
C304 C 0.13607 0.98344 0.495 0.0
C305 C 0.13486 0.01809 0.50053 0.0
C306 C 0.1268 0.03722 0.52741 0.0
C307 C 0.12515 0.04329 0.59831 0.0
C308 C 0.1174 0.06128 0.62335 0.0
C309 C 0.11145 0.07345 0.57803 0.0
C310 C 0.11323 0.06762 0.50751 0.0
C311 C 0.12091 0.0496 0.48217 0.0
H312 H 0.1055 0.0874 0.59746 0.0
H313 H 0.18257 0.91355 0.35485 0.0
H314 H 0.51633 0.17272 0.37852 0.0
H315 H 0.52057 0.14164 0.41827 0.0
H316 H 0.50988 0.16877 0.62575 0.0
H317 H 0.50614 0.19983 0.58618 0.0
H318 H 0.53819 0.14358 0.62585 0.0
H319 H 0.47288 0.14205 0.52315 0.0
H320 H 0.44861 0.14418 0.43105 0.0
H321 H 0.47672 0.0977 0.30218 0.0
H322 H 0.50133 0.09545 0.39327 0.0
H323 H 0.50928 0.06346 0.78102 0.0
H324 H 0.50915 0.09308 0.73125 0.0
H325 H 0.52371 0.06108 0.5341 0.0
H326 H 0.5237 0.03116 0.58363 0.0
H327 H 0.49544 0.08767 0.52292 0.0
H328 H 0.55934 0.08778 0.63047 0.0
H329 H 0.58241 0.08505 0.72542 0.0
H330 H 0.55629 0.13403 0.84719 0.0
H331 H 0.53283 0.13687 0.75336 0.0
C332 C 0.51513 0.17202 0.43266 0.0
C333 C 0.51071 0.18863 0.47913 0.0
C334 C 0.5174 0.15424 0.45537 0.0
C335 C 0.51514 0.15266 0.52502 0.0
C336 C 0.5116 0.16948 0.57178 0.0
C337 C 0.50943 0.18725 0.54912 0.0
C338 C 0.51585 0.13352 0.5492 0.0
C339 C 0.5287 0.13143 0.60363 0.0
C340 C 0.50384 0.1174 0.51951 0.0
C341 C 0.48907 0.11873 0.46472 0.0
C342 C 0.47398 0.13238 0.47497 0.0
C343 C 0.46015 0.1336 0.42299 0.0
C344 C 0.46116 0.12113 0.36073 0.0
C345 C 0.47598 0.10738 0.35038 0.0
C346 C 0.48986 0.10612 0.40217 0.0
C347 C 0.51236 0.06261 0.72695 0.0
C348 C 0.51657 0.04484 0.68646 0.0
C349 C 0.51238 0.07965 0.69858 0.0
C350 C 0.51674 0.07945 0.62905 0.0
C351 C 0.5204 0.06167 0.58793 0.0
C352 C 0.5204 0.04455 0.61636 0.0
C353 C 0.51759 0.09785 0.59991 0.0
C354 C 0.50505 0.09978 0.54466 0.0
C355 C 0.52984 0.11384 0.62898 0.0
C356 C 0.54422 0.11244 0.68502 0.0
C357 C 0.55844 0.09791 0.67763 0.0
C358 C 0.57159 0.09634 0.73125 0.0
C359 C 0.57079 0.10933 0.79236 0.0
C360 C 0.55688 0.12397 0.79985 0.0
C361 C 0.54367 0.12558 0.74643 0.0
H362 H 0.58096 0.10807 0.83386 0.0
H363 H 0.45044 0.12208 0.32056 0.0
H364 H 0.35041 0.48865 0.25087 0.0
H365 H 0.38069 0.49292 0.32217 0.0
H366 H 0.34456 0.49717 0.50365 0.0
H367 H 0.31429 0.4933 0.4322 0.0
H368 H 0.37534 0.52114 0.53001 0.0
H369 H 0.36883 0.4543 0.43118 0.0
H370 H 0.36532 0.42655 0.33813 0.0
H371 H 0.42067 0.44295 0.25174 0.0
H372 H 0.42438 0.47095 0.34384 0.0
H373 H 0.45131 0.50036 0.76017 0.0
H374 H 0.42151 0.4998 0.68826 0.0
H375 H 0.45841 0.49595 0.5088 0.0
H376 H 0.48826 0.49622 0.58038 0.0
H377 H 0.42749 0.47224 0.48071 0.0
H378 H 0.43441 0.53871 0.58174 0.0
H379 H 0.43804 0.56613 0.67593 0.0
H380 H 0.38201 0.55028 0.75909 0.0
H381 H 0.37818 0.52258 0.66589 0.0
C382 C 0.34892 0.49082 0.30602 0.0
C383 C 0.32985 0.49047 0.3356 0.0
C384 C 0.36631 0.49305 0.347 0.0
C385 C 0.36521 0.49489 0.41895 0.0
C386 C 0.34608 0.49563 0.4486 0.0
C387 C 0.32869 0.49345 0.40759 0.0
C388 C 0.38383 0.49549 0.46295 0.0
C389 C 0.38659 0.51028 0.51947 0.0
C390 C 0.39897 0.48165 0.44939 0.0
C391 C 0.39677 0.46483 0.39398 0.0
C392 C 0.38018 0.45207 0.39205 0.0
C393 C 0.37816 0.43628 0.33953 0.0
C394 C 0.39273 0.43302 0.28895 0.0
C395 C 0.40938 0.44551 0.29089 0.0
C396 C 0.41145 0.46134 0.34325 0.0
C397 C 0.45317 0.49944 0.70543 0.0
C398 C 0.47242 0.49839 0.67665 0.0
C399 C 0.436 0.49923 0.66407 0.0
C400 C 0.43743 0.49809 0.59246 0.0
C401 C 0.45664 0.49687 0.5636 0.0
C402 C 0.47383 0.49708 0.60492 0.0
C403 C 0.41903 0.4979 0.54772 0.0
C404 C 0.41629 0.48315 0.49113 0.0
C405 C 0.40391 0.51177 0.5613 0.0
C406 C 0.40611 0.52846 0.61719 0.0
C407 C 0.42293 0.54098 0.62039 0.0
C408 C 0.42501 0.55659 0.67356 0.0
C409 C 0.41029 0.55991 0.72356 0.0
C410 C 0.39342 0.54767 0.72038 0.0
C411 C 0.39128 0.53202 0.66736 0.0
H412 H 0.41193 0.572 0.76469 0.0
H413 H 0.39115 0.42079 0.24835 0.0
H414 H 0.08058 0.32206 0.2134 0.0
H415 H 0.07396 0.35343 0.28251 0.0
H416 H 0.04897 0.32454 0.44115 0.0
H417 H 0.05564 0.29318 0.37209 0.0
H418 H 0.02596 0.35433 0.41422 0.0
H419 H 0.09523 0.34396 0.45897 0.0
H420 H 0.13019 0.33723 0.4276 0.0
H421 H 0.13382 0.38795 0.33167 0.0
H422 H 0.09877 0.39484 0.36168 0.0
H423 H 0.02725 0.42881 0.69824 0.0
H424 H 0.03341 0.39933 0.61897 0.0
H425 H 0.05818 0.43291 0.47318 0.0
H426 H 0.05217 0.46264 0.55248 0.0
H427 H 0.081 0.40189 0.4868 0.0
H428 H 0.01286 0.41353 0.44602 0.0
H429 H 0.97802 0.42087 0.47646 0.0
H430 H 0.97191 0.36839 0.56131 0.0
H431 H 1.00691 0.3609 0.5325 0.0
C432 C 0.07374 0.32247 0.26314 0.0
C433 C 0.06883 0.30529 0.28805 0.0
C434 C 0.06998 0.34035 0.30253 0.0
C435 C 0.06116 0.34131 0.36727 0.0
C436 C 0.05583 0.32412 0.39142 0.0
C437 C 0.05968 0.30626 0.35219 0.0
C438 C 0.05758 0.36021 0.41015 0.0
C439 C 0.03802 0.36464 0.43073 0.0
C440 C 0.07324 0.3739 0.42987 0.0
C441 C 0.09431 0.3698 0.4119 0.0
C442 C 0.10343 0.35359 0.43067 0.0
C443 C 0.12327 0.34976 0.41324 0.0
C444 C 0.1342 0.36212 0.37748 0.0
C445 C 0.12533 0.37837 0.35925 0.0
C446 C 0.10548 0.38225 0.3765 0.0
C447 C 0.03403 0.43001 0.64941 0.0
C448 C 0.03916 0.44815 0.63176 0.0
C449 C 0.03746 0.4131 0.604 0.0
C450 C 0.04606 0.41393 0.5399 0.0
C451 C 0.05148 0.43196 0.52235 0.0
C452 C 0.04797 0.44893 0.56769 0.0
C453 C 0.04942 0.3959 0.49163 0.0
C454 C 0.06892 0.39163 0.46998 0.0
C455 C 0.03369 0.3824 0.47056 0.0
C456 C 0.01258 0.38675 0.48765 0.0
C457 C 1.00415 0.40363 0.47169 0.0
C458 C 0.98435 0.4078 0.48857 0.0
C459 C 0.97275 0.39512 0.5209 0.0
C460 C 0.98093 0.37821 0.53631 0.0
C461 C 1.00075 0.37399 0.51969 0.0
H462 H 0.95741 0.39838 0.5339 0.0
H463 H 0.14956 0.35914 0.36405 0.0
H464 H 0.85362 0.98788 0.32524 0.0
H465 H 0.88295 0.99213 0.25447 0.0
H466 H 0.84487 0.98967 0.07739 0.0
H467 H 0.81559 0.9852 0.1482 0.0
H468 H 0.87547 0.96741 0.044 0.0
H469 H 0.8698 0.03252 0.15801 0.0
H470 H 0.86723 0.05857 0.2567 0.0
H471 H 0.92375 0.04365 0.33292 0.0
H472 H 0.92653 0.01733 0.23511 0.0
H473 H 0.95034 0.9935 0.81697 0.0
H474 H 0.92095 0.99264 0.88957 0.0
H475 H 0.9589 0.9963 0.06739 0.0
H476 H 0.98838 0.99755 0.99508 0.0
H477 H 0.92834 0.0182 0.10054 0.0
H478 H 0.93399 0.95296 0.98944 0.0
H479 H 0.93693 0.92665 0.89176 0.0
H480 H 0.8808 0.94132 0.81189 0.0
H481 H 0.87766 0.96791 0.90864 0.0
C482 C 0.85148 0.98861 0.27146 0.0
C483 C 0.83218 0.98617 0.2426 0.0
C484 C 0.86832 0.99104 0.23073 0.0
C485 C 0.86641 0.99129 0.15985 0.0
C486 C 0.84701 0.98946 0.13152 0.0
C487 C 0.83018 0.98705 0.17227 0.0
C488 C 0.88453 0.99266 0.11493 0.0
C489 C 0.88683 0.97874 0.05604 0.0
C490 C 0.89991 0.00702 0.13073 0.0
C491 C 0.89827 0.02283 0.18958 0.0
C492 C 0.88161 0.03469 0.1961 0.0
C493 C 0.88013 0.04953 0.25183 0.0
C494 C 0.89529 0.05273 0.30114 0.0
C495 C 0.912 0.04114 0.29473 0.0
C496 C 0.91354 0.02627 0.23913 0.0
C497 C 0.95252 0.9941 0.87151 0.0
C498 C 0.97196 0.99552 0.89959 0.0
C499 C 0.93557 0.99351 0.91327 0.0
C500 C 0.93741 0.99411 0.98461 0.0
C501 C 0.95681 0.99578 0.01284 0.0
C502 C 0.97378 0.99643 0.97111 0.0
C503 C 0.91923 0.99299 0.0295 0.0
C504 C 0.91695 0.00691 0.08842 0.0
C505 C 0.9039 0.97857 0.01396 0.0
C506 C 0.90569 0.96254 0.95593 0.0
C507 C 0.92234 0.95066 0.95079 0.0
C508 C 0.92404 0.93569 0.89563 0.0
C509 C 0.90909 0.93235 0.84556 0.0
C510 C 0.89238 0.94395 0.85066 0.0
C511 C 0.89063 0.95896 0.90567 0.0
H512 H 0.91043 0.92075 0.80288 0.0
H513 H 0.89412 0.06423 0.34424 0.0
H514 H 0.55283 0.82678 0.20541 0.0
H515 H 0.55719 0.8558 0.15133 0.0
H516 H 0.51195 0.83372 1.00196 0.0
H517 H 0.50799 0.8046 0.05492 0.0
H518 H 0.54063 0.8503 0.94115 0.0
H519 H 0.50282 0.86872 0.14727 0.0
H520 H 0.49647 0.87285 0.27139 0.0
H521 H 0.54896 0.90941 0.30951 0.0
H522 H 0.55577 0.90529 0.1856 0.0
H523 H 0.50754 0.93373 0.8257 0.0
H524 H 0.51074 0.90534 0.88075 0.0
H525 H 0.5586 0.9337 0.00724 0.0
H526 H 0.55536 0.96255 0.95234 0.0
H527 H 0.5327 0.91468 0.08155 0.0
H528 H 0.56855 0.8985 0.87322 0.0
H529 H 0.57398 0.89484 0.7487 0.0
H530 H 0.52454 0.85427 0.7143 0.0
H531 H 0.51863 0.85789 0.83861 0.0
C532 C 0.54402 0.82809 0.16054 0.0
C533 C 0.52995 0.81351 0.13478 0.0
C534 C 0.54638 0.84474 0.12994 0.0
C535 C 0.53461 0.84726 0.07315 0.0
C536 C 0.52116 0.83228 0.04579 0.0
C537 C 0.51888 0.81562 0.07615 0.0
C538 C 0.53589 0.86554 0.04283 0.0
C539 C 0.53872 0.86434 0.97193 0.0
C540 C 0.53398 0.88405 0.08282 0.0
C541 C 0.52993 0.88651 0.15727 0.0
C542 C 0.51309 0.87751 0.18218 0.0
C543 C 0.5094 0.87987 0.25247 0.0
C544 C 0.52234 0.89133 0.29832 0.0
C545 C 0.53898 0.9005 0.27395 0.0
C546 C 0.54275 0.89816 0.2037 0.0
C547 C 0.51881 0.93405 0.86515 0.0
C548 C 0.53126 0.95053 0.88421 0.0
C549 C 0.52068 0.91767 0.89648 0.0
C550 C 0.53512 0.91715 0.94758 0.0
C551 C 0.5474 0.93366 0.96773 0.0
C552 C 0.54556 0.95015 0.93616 0.0
C553 C 0.53706 0.89936 0.97983 0.0
C554 C 0.53483 0.90065 0.05097 0.0
C555 C 0.53945 0.88092 0.94007 0.0
C556 C 0.54306 0.87858 0.86526 0.0
C557 C 0.55875 0.88889 0.83909 0.0
C558 C 0.56193 0.88681 0.76854 0.0
C559 C 0.54959 0.87436 0.72361 0.0
C560 C 0.53408 0.86392 0.74916 0.0
C561 C 0.53083 0.86596 0.81968 0.0
H562 H 0.55207 0.87278 0.669 0.0
H563 H 0.51944 0.89315 0.35272 0.0
H564 H 0.71129 0.51927 0.30485 0.0
H565 H 0.68254 0.52295 0.23102 0.0
H566 H 0.68479 0.46273 0.14425 0.0
H567 H 0.71369 0.45926 0.21616 0.0
H568 H 0.67656 0.48055 0.04589 0.0
H569 H 0.64934 0.48318 0.27264 0.0
H570 H 0.64599 0.49596 0.39546 0.0
H571 H 0.63121 0.55133 0.34646 0.0
H572 H 0.6347 0.53892 0.22336 0.0
H573 H 0.56093 0.48119 0.99571 0.0
H574 H 0.59053 0.48082 0.06837 0.0
H575 H 0.62429 0.51229 0.93508 0.0
H576 H 0.59468 0.51293 0.86262 0.0
H577 H 0.61421 0.50945 0.14326 0.0
H578 H 0.67279 0.4954 0.92854 0.0
H579 H 0.67483 0.47969 0.80813 0.0
H580 H 0.62487 0.44238 0.83758 0.0
H581 H 0.62273 0.45765 0.9583 0.0
C582 C 0.70581 0.50688 0.26949 0.0
C583 C 0.71511 0.48898 0.26603 0.0
C584 C 0.68915 0.50893 0.22744 0.0
C585 C 0.68104 0.49307 0.18169 0.0
C586 C 0.69053 0.47531 0.1782 0.0
C587 C 0.70715 0.47332 0.21964 0.0
C588 C 0.6627 0.49461 0.13794 0.0
C589 C 0.66304 0.48703 0.06755 0.0
C590 C 0.64464 0.50274 0.16503 0.0
C591 C 0.64248 0.51018 0.23891 0.0
C592 C 0.6455 0.49811 0.28812 0.0
C593 C 0.64356 0.50528 0.35776 0.0
C594 C 0.63844 0.52446 0.37876 0.0
C595 C 0.6352 0.53649 0.33013 0.0
C596 C 0.63715 0.52939 0.26043 0.0
C597 C 0.57462 0.48807 0.98166 0.0
C598 C 0.57523 0.49706 0.92271 0.0
C599 C 0.5916 0.48793 0.02372 0.0
C600 C 0.60989 0.49645 0.00767 0.0
C601 C 0.61053 0.50547 0.94888 0.0
C602 C 0.59348 0.50586 0.90732 0.0
C603 C 0.62826 0.4956 0.05153 0.0
C604 C 0.62786 0.50322 0.12173 0.0
C605 C 0.64618 0.48725 0.02457 0.0
C606 C 0.64746 0.47785 0.95221 0.0
C607 C 0.66228 0.48381 0.90933 0.0
C608 C 0.66345 0.47498 0.84103 0.0
C609 C 0.64994 0.4601 0.81515 0.0
C610 C 0.63527 0.45396 0.85759 0.0
C611 C 0.63406 0.46272 0.92592 0.0
H612 H 0.65086 0.45329 0.76226 0.0
H613 H 0.63695 0.52999 0.43269 0.0
H614 H 0.0196 0.70162 0.20347 0.0
H615 H 0.0169 0.67168 0.12084 0.0
H616 H 1.00766 0.63921 0.28643 0.0
H617 H 1.01013 0.66919 0.36907 0.0
H618 H 0.03617 0.62357 0.19377 0.0
H619 H 0.96927 0.64611 0.18868 0.0
H620 H 0.94354 0.6698 0.17692 0.0
H621 H 0.96279 0.6726 0.9718 0.0
H622 H 0.98884 0.64912 0.98268 0.0
H623 H 0.01165 0.5342 0.9938 0.0
H624 H 1.00771 0.56378 0.07536 0.0
H625 H 0.01471 0.59754 0.91239 0.0
H626 H 0.01839 0.56799 0.83005 0.0
H627 H 0.98643 0.61239 0.00459 0.0
H628 H 0.05285 0.59042 0.00707 0.0
H629 H 0.07781 0.56582 0.01351 0.0
H630 H 0.06132 0.56317 0.22153 0.0
H631 H 0.03532 0.58702 0.2149 0.0
C632 C 0.01683 0.68809 0.22198 0.0
C633 C 0.01515 0.68764 0.29243 0.0
C634 C 0.01528 0.67103 0.17489 0.0
C635 C 0.01199 0.65323 0.19752 0.0
C636 C 1.01022 0.65278 0.26794 0.0
C637 C 0.01161 0.66987 0.315 0.0
C638 C 0.01095 0.63504 0.1478 0.0
C639 C 0.02509 0.62098 0.1531 0.0
C640 C 0.99686 0.63195 0.09355 0.0
C641 C 0.98114 0.64599 0.08675 0.0
C642 C 0.96813 0.6519 0.14126 0.0
C643 C 0.95347 0.66526 0.13472 0.0
C644 C 0.95157 0.67274 0.07371 0.0
C645 C 0.96429 0.66681 0.01905 0.0
C646 C 0.979 0.65346 0.02536 0.0
C647 C 0.01218 0.54789 0.97504 0.0
C648 C 0.0156 0.54872 0.90544 0.0
C649 C 1.00989 0.56478 0.02179 0.0
C650 C 0.01118 0.58287 1.0001 0.0
C651 C 0.01367 0.58373 0.93023 0.0
C652 C 0.01588 0.56682 0.88331 0.0
C653 C 0.01155 0.60087 0.05092 0.0
C654 C 0.9974 0.61492 0.04559 0.0
C655 C 0.02577 0.60408 0.10483 0.0
C656 C 0.04195 0.59035 0.11019 0.0
C657 C 0.0544 0.58449 0.05405 0.0
C658 C 0.06875 0.57065 0.05772 0.0
C659 C 0.07128 0.56299 0.11807 0.0
C660 C 0.05935 0.56911 0.17479 0.0
C661 C 0.04471 0.58272 0.17096 0.0
H662 H 0.08246 0.55232 0.12086 0.0
H663 H 0.9402 0.68309 0.06875 0.0
H664 H 0.04675 0.23647 0.40092 0.0
H665 H 0.03581 0.21508 0.48117 0.0
H666 H 0.98728 0.19317 0.345 0.0
H667 H 0.99823 0.21444 0.26484 0.0
H668 H 0.97876 0.19242 0.48735 0.0
H669 H 0.02743 0.17185 0.31273 0.0
H670 H 0.05836 0.17622 0.249 0.0
H671 H 0.09257 0.17949 0.43436 0.0
H672 H 0.06171 0.17546 0.49926 0.0
H673 H 0.9707 0.09094 0.48428 0.0
H674 H 0.97431 0.12381 0.45907 0.0
H675 H 0.02305 0.13527 0.60341 0.0
H676 H 0.01916 0.10264 0.63075 0.0
H677 H 0.03198 0.14421 0.47467 0.0
H678 H 0.98086 0.15692 0.64262 0.0
H679 H 0.94861 0.15157 0.69717 0.0
H680 H 0.91761 0.16137 0.51632 0.0
H681 H 0.94969 0.16649 0.46024 0.0
C682 C 0.03316 0.22781 0.39001 0.0
C683 C 0.02334 0.22695 0.32694 0.0
C684 C 0.02698 0.21555 0.4356 0.0
C685 C 0.01091 0.2024 0.41841 0.0
C686 C 0.99966 0.20326 0.35927 0.0
C687 C 1.00592 0.21538 0.31352 0.0
C688 C 1.00847 0.18532 0.45308 0.0
C689 C 0.99037 0.18188 0.48498 0.0
C690 C 0.02366 0.17162 0.44972 0.0
C691 C 0.04228 0.17361 0.41087 0.0
C692 C 0.04154 0.17365 0.33987 0.0
C693 C 0.05904 0.17605 0.30356 0.0
C694 C 0.07742 0.1782 0.33766 0.0
C695 C 0.07832 0.17787 0.40807 0.0
C696 C 0.06083 0.17553 0.44464 0.0
C697 C 0.98193 0.10054 0.51176 0.0
C698 C 0.99473 0.09406 0.55922 0.0
C699 C 0.98397 0.11933 0.49722 0.0
C700 C 0.99887 0.13198 0.52972 0.0
C701 C 0.01147 0.1257 0.57781 0.0
C702 C 1.00933 0.10699 0.59285 0.0
C703 C 1.00224 0.15121 0.50942 0.0
C704 C 0.02052 0.15495 0.47915 0.0
C705 C 0.98706 0.16495 0.51342 0.0
C706 C 0.96771 0.16195 0.54704 0.0
C707 C 0.96718 0.15778 0.61426 0.0
C708 C 0.94892 0.15482 0.6455 0.0
C709 C 0.93107 0.15609 0.61019 0.0
C710 C 0.93145 0.16038 0.5436 0.0
C711 C 0.94967 0.16334 0.51209 0.0
H712 H 0.91695 0.15379 0.63447 0.0
H713 H 0.09097 0.18007 0.3095 0.0
H714 H 0.32178 0.00908 0.41242 0.0
H715 H 0.34033 0.9912 0.48721 0.0
H716 H 0.29732 0.94395 0.44655 0.0
H717 H 0.2785 0.96201 0.37235 0.0
H718 H 0.31695 0.94975 0.58479 0.0
H719 H 0.33262 0.9383 0.34138 0.0
H720 H 0.34021 0.94834 0.23011 0.0
H721 H 0.38942 0.98382 0.32095 0.0
H722 H 0.38228 0.97369 0.43259 0.0
H723 H 0.42331 0.90191 0.53699 0.0
H724 H 0.38791 0.90314 0.50912 0.0
H725 H 0.38133 0.95064 0.67382 0.0
H726 H 0.41654 0.94969 0.70138 0.0
H727 H 0.38127 0.93665 0.46526 0.0
H728 H 0.32934 0.95698 0.70377 0.0
H729 H 0.32047 0.9451 0.81018 0.0
H730 H 0.3438 0.8897 0.73133 0.0
H731 H 0.352 0.90097 0.62273 0.0
C732 C 0.31586 0.99525 0.42194 0.0
C733 C 0.2989 0.98677 0.38658 0.0
C734 C 0.32642 0.98505 0.46445 0.0
C735 C 0.3203 0.96618 0.47122 0.0
C736 C 0.3022 0.95851 0.44186 0.0
C737 C 0.29148 0.96882 0.39968 0.0
C738 C 0.33465 0.95354 0.4973 0.0
C739 C 0.33106 0.94675 0.55915 0.0
C740 C 0.35261 0.94912 0.46195 0.0
C741 C 0.35687 0.95531 0.39515 0.0
C742 C 0.34499 0.94831 0.33758 0.0
C743 C 0.34924 0.954 0.27447 0.0
C744 C 0.36521 0.96683 0.26855 0.0
C745 C 0.37704 0.9739 0.32564 0.0
C746 C 0.37298 0.9681 0.38872 0.0
C747 C 0.41414 0.91212 0.56889 0.0
C748 C 0.42283 0.92605 0.62002 0.0
C749 C 0.39388 0.91268 0.55334 0.0
C750 C 0.38208 0.92715 0.5888 0.0
C751 C 0.3901 0.93927 0.64606 0.0
C752 C 0.41036 0.93873 0.66163 0.0
C753 C 0.36418 0.9333 0.55519 0.0
C754 C 0.36711 0.93911 0.49124 0.0
C755 C 0.34573 0.93669 0.58902 0.0
C756 C 0.34145 0.92992 0.65503 0.0
C757 C 0.33255 0.94223 0.70884 0.0
C758 C 0.32762 0.93558 0.76971 0.0
C759 C 0.33171 0.91668 0.77789 0.0
C760 C 0.34072 0.90438 0.72507 0.0
C761 C 0.34549 0.91089 0.66372 0.0
H762 H 0.32777 0.91151 0.82491 0.0
H763 H 0.36851 0.97122 0.21972 0.0
H764 H 0.57026 0.28537 0.5122 0.0
H765 H 0.57585 0.31779 0.57751 0.0
H766 H 0.51649 0.31577 0.65947 0.0
H767 H 0.51104 0.28327 0.59535 0.0
H768 H 0.52843 0.34242 0.55267 0.0
H769 H 0.54332 0.32461 0.77244 0.0
H770 H 0.56187 0.30867 0.85448 0.0
H771 H 0.61558 0.33926 0.81229 0.0
H772 H 0.59737 0.35525 0.72942 0.0
H773 H 0.50605 0.4325 0.73271 0.0
H774 H 0.51201 0.39831 0.70061 0.0
H775 H 0.57452 0.41084 0.6735 0.0
H776 H 0.56865 0.44559 0.70596 0.0
H777 H 0.56552 0.37916 0.75063 0.0
H778 H 0.54982 0.39883 0.53692 0.0
H779 H 0.5309 0.41514 0.45688 0.0
H780 H 0.47872 0.38063 0.48608 0.0
H781 H 0.49724 0.36432 0.56719 0.0
C782 C 0.55895 0.29136 0.54781 0.0
C783 C 0.54032 0.28182 0.54965 0.0
C784 C 0.5621 0.30992 0.5847 0.0
C785 C 0.54657 0.31913 0.62317 0.0
C786 C 0.52873 0.30878 0.63068 0.0
C787 C 0.52567 0.29017 0.59451 0.0
C788 C 0.54695 0.34042 0.64007 0.0
C789 C 0.53639 0.35046 0.59632 0.0
C790 C 0.55798 0.35081 0.69542 0.0
C791 C 0.56905 0.34088 0.74389 0.0
C792 C 0.55915 0.32772 0.77986 0.0
C793 C 0.56958 0.31874 0.82676 0.0
C794 C 0.58991 0.32286 0.83829 0.0
C795 C 0.59984 0.33603 0.80313 0.0
C796 C 0.58947 0.34506 0.75625 0.0
C797 C 0.52111 0.42811 0.71973 0.0
C798 C 0.53688 0.44181 0.72156 0.0
C799 C 0.52447 0.40851 0.7014 0.0
C800 C 0.54367 0.40206 0.68455 0.0
C801 C 0.55958 0.41559 0.68644 0.0
C802 C 0.55618 0.43539 0.7043 0.0
C803 C 0.54659 0.3811 0.66401 0.0
C804 C 0.55777 0.37112 0.70654 0.0
C805 C 0.53614 0.37064 0.60729 0.0
C806 C 0.5249 0.38045 0.55861 0.0
C807 C 0.53426 0.39484 0.52678 0.0
C808 C 0.52361 0.40406 0.48112 0.0
C809 C 0.50361 0.39895 0.46651 0.0
C810 C 0.49422 0.38458 0.49748 0.0
C811 C 0.50479 0.37533 0.54326 0.0
H812 H 0.4954 0.4061 0.4311 0.0
H813 H 0.59795 0.31593 0.87471 0.0
H814 H 0.27185 0.54738 0.43441 0.0
H815 H 0.25749 0.56338 0.54192 0.0
H816 H 0.20635 0.52425 0.50994 0.0
H817 H 0.22098 0.50776 0.40576 0.0
H818 H 0.22642 0.58332 0.56389 0.0
H819 H 0.18486 0.51453 0.64194 0.0
H820 H 0.19355 0.48147 0.65504 0.0
H821 H 0.25561 0.49832 0.67048 0.0
H822 H 0.24731 0.53161 0.65871 0.0
H823 H 0.12794 0.58977 0.59621 0.0
H824 H 0.16383 0.59049 0.59212 0.0
H825 H 0.16624 0.56779 0.78249 0.0
H826 H 0.1301 0.56473 0.78209 0.0
H827 H 0.18553 0.54638 0.70947 0.0
H828 H 0.19483 0.61182 0.74716 0.0
H829 H 0.1898 0.64653 0.74948 0.0
H830 H 0.19831 0.63977 0.53215 0.0
H831 H 0.20304 0.60498 0.52806 0.0
C832 C 0.25777 0.54194 0.45143 0.0
C833 C 0.24745 0.5264 0.41133 0.0
C834 C 0.24956 0.55115 0.51265 0.0
C835 C 0.23098 0.54487 0.53484 0.0
C836 C 0.22095 0.5291 0.49529 0.0
C837 C 0.22916 0.51987 0.43481 0.0
C838 C 0.22067 0.55564 0.59478 0.0
C839 C 0.21762 0.57541 0.59667 0.0
C840 C 0.21045 0.54574 0.64174 0.0
C841 C 0.21543 0.52567 0.64962 0.0
C842 C 0.20035 0.51129 0.64892 0.0
C843 C 0.20522 0.49247 0.65588 0.0
C844 C 0.22511 0.4878 0.66361 0.0
C845 C 0.2402 0.50195 0.66442 0.0
C846 C 0.23542 0.52081 0.65753 0.0
C847 C 0.13605 0.58514 0.63783 0.0
C848 C 0.12603 0.57633 0.68752 0.0
C849 C 0.15682 0.58603 0.63649 0.0
C850 C 0.16811 0.57897 0.68672 0.0
C851 C 0.15801 0.57301 0.74235 0.0
C852 C 0.13718 0.57144 0.74237 0.0
C853 C 0.1892 0.57353 0.67172 0.0
C854 C 0.19461 0.55473 0.67897 0.0
C855 C 0.20219 0.58467 0.63601 0.0
C856 C 0.1994 0.60569 0.63745 0.0
C857 C 0.19556 0.61769 0.69974 0.0
C858 C 0.19275 0.63741 0.70137 0.0
C859 C 0.19377 0.64535 0.64103 0.0
C860 C 0.1976 0.6336 0.57891 0.0
C861 C 0.20042 0.61387 0.57696 0.0
H862 H 0.19158 0.66062 0.64239 0.0
H863 H 0.22885 0.47321 0.66894 0.0
H864 H 0.97454 0.78499 0.21933 0.0
H865 H 0.98182 0.80449 0.13053 0.0
H866 H 0.03452 0.77177 0.07516 0.0
H867 H 0.02729 0.75233 0.16539 0.0
H868 H 0.04383 0.80841 0.11335 0.0
H869 H 0.99763 0.7751 0.95436 0.0
H870 H 0.96602 0.75876 0.91189 0.0
H871 H 0.93515 0.81169 0.96626 0.0
H872 H 0.96649 0.82832 0.01006 0.0
H873 H 0.0665 0.88738 0.93684 0.0
H874 H 0.05922 0.85412 0.95318 0.0
H875 H 1.00294 0.87124 0.04541 0.0
H876 H 1.01007 0.90448 0.02946 0.0
H877 H 0.99926 0.8369 0.95829 0.0
H878 H 0.04339 0.86658 0.14338 0.0
H879 H 0.07449 0.88309 0.19062 0.0
H880 H 0.1086 0.83628 0.0887 0.0
H881 H 0.07769 0.81962 0.04017 0.0
C882 C 0.98718 0.78143 0.18613 0.0
C883 C 1.00043 0.76729 0.19913 0.0
C884 C 0.99132 0.79253 0.13512 0.0
C885 C 1.00876 0.78964 0.09608 0.0
C886 C 0.02098 0.77423 0.10461 0.0
C887 C 0.01678 0.76305 0.15574 0.0
C888 C 0.01595 0.80497 0.05763 0.0
C889 C 0.03434 0.81423 0.07757 0.0
C890 C 1.00343 0.81285 0.01211 0.0
C891 C 0.98447 0.80296 0.98571 0.0
C892 C 0.98409 0.78325 0.95771 0.0
C893 C 0.96621 0.77393 0.93332 0.0
C894 C 0.94859 0.78418 0.9364 0.0
C895 C 0.94881 0.80378 0.96382 0.0
C896 C 0.96665 0.81317 0.98831 0.0
C897 C 0.05259 0.8841 0.96081 0.0
C898 C 0.03888 0.89865 0.98195 0.0
C899 C 0.04841 0.86505 0.96967 0.0
C900 C 0.03055 0.86022 1.00056 0.0
C901 C 0.01672 0.87462 0.0208 0.0
C902 C 0.02085 0.89363 0.01177 0.0
C903 C 0.02667 0.84051 0.01622 0.0
C904 C 1.00896 0.83059 0.99214 0.0
C905 C 0.03973 0.832 0.05821 0.0
C906 C 0.05828 0.84199 0.08745 0.0
C907 C 0.05754 0.8599 0.13062 0.0
C908 C 0.07512 0.86926 0.1577 0.0
C909 C 0.09352 0.86077 0.14247 0.0
C910 C 0.09435 0.84286 0.1003 0.0
C911 C 0.07681 0.83345 0.07301 0.0
H912 H 0.10711 0.86804 0.1635 0.0
H913 H 0.93476 0.77694 0.9175 0.0
H914 H 0.77493 0.03675 0.18279 0.0
H915 H 0.76025 0.04937 0.08599 0.0
H916 H 0.70691 0.01456 0.10242 0.0
H917 H 0.72194 0.00099 0.19484 0.0
H918 H 0.71315 0.01553 0.97597 0.0
H919 H 0.7142 0.06434 0.18572 0.0
H920 H 0.7317 0.08645 0.2776 0.0
H921 H 0.76317 0.11341 0.12742 0.0
H922 H 0.74594 0.09131 0.03471 0.0
H923 H 0.62919 0.07655 0.04191 0.0
H924 H 0.66494 0.07588 0.0575 0.0
H925 H 0.67226 0.05632 0.84117 0.0
H926 H 0.63605 0.05673 0.82536 0.0
H927 H 0.70077 0.08566 0.02274 0.0
H928 H 0.70392 0.01534 0.83223 0.0
H929 H 0.68179 0.9914 0.76152 0.0
H930 H 0.63441 0.0044 0.90554 0.0
H931 H 0.65637 0.02816 0.97744 0.0
C932 C 0.76026 0.03147 0.16458 0.0
C933 C 0.74943 0.01813 0.19741 0.0
C934 C 0.75185 0.0388 0.10956 0.0
C935 C 0.73237 0.03314 0.08742 0.0
C936 C 0.72198 0.01918 0.11828 0.0
C937 C 0.73046 0.01165 0.17214 0.0
C938 C 0.7216 0.0427 0.03707 0.0
C939 C 0.71078 0.03095 0.98494 0.0
C940 C 0.7187 0.06284 0.04804 0.0
C941 C 0.72903 0.07606 0.10352 0.0
C942 C 0.72494 0.07493 0.17244 0.0
C943 C 0.73479 0.08745 0.22459 0.0
C944 C 0.74859 0.10128 0.20835 0.0
C945 C 0.75252 0.10265 0.13991 0.0
C946 C 0.74273 0.09013 0.08756 0.0
C947 C 0.6384 0.07299 0.99702 0.0
C948 C 0.6298 0.06615 0.93282 0.0
C949 C 0.65896 0.07263 0.00594 0.0
C950 C 0.67124 0.06546 0.95081 0.0
C951 C 0.663 0.06152 0.88464 0.0
C952 C 0.64232 0.0617 0.87575 0.0
C953 C 0.69096 0.05818 0.96663 0.0
C954 C 0.70382 0.0704 0.01104 0.0
C955 C 0.69499 0.03823 0.95144 0.0
C956 C 0.68157 0.02404 0.90868 0.0
C957 C 0.68871 0.01325 0.84821 0.0
C958 C 0.67624 0.99964 0.80819 0.0
C959 C 0.6566 0.99663 0.8284 0.0
C960 C 0.64953 0.00695 0.8894 0.0
C961 C 0.662 0.02046 0.92985 0.0
H962 H 0.64693 0.98618 0.79709 0.0
H963 H 0.7562 0.11097 0.2488 0.0
H964 H 0.49639 0.71948 0.05344 0.0
H965 H 0.48953 0.6872 0.98808 0.0
H966 H 0.55196 0.6745 0.99955 0.0
H967 H 0.55878 0.70684 0.0617 0.0
H968 H 0.53831 0.65555 0.88884 0.0
H969 H 0.51653 0.66368 0.1244 0.0
H970 H 0.49754 0.67937 0.22361 0.0
H971 H 0.44271 0.6645 0.11285 0.0
H972 H 0.46155 0.64908 0.01267 0.0
H973 H 0.51566 0.55443 0.97819 0.0
H974 H 0.51464 0.58957 0.01239 0.0
H975 H 0.50315 0.59618 0.80293 0.0
H976 H 0.50443 0.5614 0.76842 0.0
H977 H 0.489 0.61835 0.00636 0.0
H978 H 0.53124 0.63318 0.76381 0.0
H979 H 0.5567 0.61878 0.68297 0.0
H980 H 0.57727 0.5853 0.83153 0.0
H981 H 0.55267 0.6003 0.91444 0.0
C982 C 0.5087 0.71008 0.03868 0.0
C983 C 0.52812 0.7156 0.06161 0.0
C984 C 0.50476 0.69153 0.00251 0.0
C985 C 0.52013 0.67818 0.99052 0.0
C986 C 0.53981 0.68444 0.00805 0.0
C987 C 0.54375 0.70298 0.04321 0.0
C988 C 0.51579 0.65727 0.96687 0.0
C989 C 0.5273 0.64751 0.91388 0.0
C990 C 0.50186 0.64654 1.00082 0.0
C991 C 0.49046 0.65554 0.06097 0.0
C992 C 0.50046 0.66396 0.12121 0.0
C993 C 0.48973 0.67276 0.17755 0.0
C994 C 0.46892 0.67299 0.17445 0.0
C995 C 0.45883 0.66436 0.11509 0.0
C996 C 0.46954 0.6556 0.05852 0.0
C997 C 0.51255 0.56337 0.93978 0.0
C998 C 0.51043 0.55517 0.87056 0.0
C999 C 0.51196 0.58343 0.95932 0.0
C1000 C 0.50919 0.5955 0.90994 0.0
C1001 C 0.50569 0.58718 0.84166 0.0
C1002 C 0.50642 0.56726 0.8221 0.0
C1003 C 0.51151 0.61678 0.9284 0.0
C1004 C 0.49965 0.62651 0.98029 0.0
C1005 C 0.52567 0.62741 0.89533 0.0
C1006 C 0.54007 0.61784 0.84509 0.0
C1007 C 0.54131 0.62286 0.77926 0.0
C1008 C 0.55556 0.61457 0.73309 0.0
C1009 C 0.5685 0.60103 0.75191 0.0
C1010 C 0.56721 0.59576 0.81697 0.0
C1011 C 0.55316 0.60421 0.86366 0.0
H1012 H 0.57963 0.59474 0.71636 0.0
H1013 H 0.46061 0.6798 0.21811 0.0
H1014 H 0.76935 0.50795 0.14701 0.0
H1015 H 0.78467 0.50942 0.03706 0.0
H1016 H 0.83238 0.54574 0.13681 0.0
H1017 H 0.81637 0.54565 0.24708 0.0
H1018 H 0.82961 0.54837 0.99728 0.0
H1019 H 0.83347 0.49801 0.14759 0.0
H1020 H 0.81665 0.47454 0.21059 0.0
H1021 H 0.78807 0.44701 0.02481 0.0
H1022 H 0.80455 0.47056 0.96104 0.0
H1023 H 0.92355 0.51615 0.02126 0.0
H1024 H 0.88939 0.52676 0.02135 0.0
H1025 H 0.87447 0.4806 0.85658 0.0
H1026 H 0.9091 0.47017 0.8545 0.0
H1027 H 0.85153 0.48066 0.97086 0.0
H1028 H 0.86898 0.52459 0.82639 0.0
H1029 H 0.89031 0.54849 0.7802 0.0
H1030 H 0.88204 0.58932 0.96278 0.0
H1031 H 0.86154 0.5654 0.01197 0.0
C1032 C 0.78247 0.51721 0.14578 0.0
C1033 C 0.79212 0.52602 0.20657 0.0
C1034 C 0.79121 0.51803 0.08236 0.0
C1035 C 0.80999 0.52707 0.07919 0.0
C1036 C 0.818 0.53841 0.13826 0.0
C1037 C 0.80905 0.53798 0.2016 0.0
C1038 C 0.82378 0.52012 0.02307 0.0
C1039 C 0.83429 0.53353 0.99009 0.0
C1040 C 0.82944 0.50059 0.01236 0.0
C1041 C 0.82005 0.48606 0.04983 0.0
C1042 C 0.8236 0.48692 0.12031 0.0
C1043 C 0.8141 0.47366 0.15614 0.0
C1044 C 0.80128 0.45931 0.12173 0.0
C1045 C 0.79798 0.45816 0.05139 0.0
C1046 C 0.80737 0.47146 0.01538 0.0
C1047 C 0.91319 0.50851 0.9838 0.0
C1048 C 0.919 0.49223 0.93827 0.0
C1049 C 0.89368 0.51469 0.98355 0.0
C1050 C 0.87953 0.50467 0.93804 0.0
C1051 C 0.88529 0.48863 0.89144 0.0
C1052 C 0.90495 0.48253 0.89118 0.0
C1053 C 0.85831 0.50918 0.94873 0.0
C1054 C 0.8463 0.49526 0.97361 0.0
C1055 C 0.85168 0.5283 0.95286 0.0
C1056 C 0.86358 0.5431 0.92296 0.0
C1057 C 0.87178 0.5386 0.85707 0.0
C1058 C 0.88378 0.55217 0.83034 0.0
C1059 C 0.88739 0.57046 0.86825 0.0
C1060 C 0.87914 0.57517 0.9333 0.0
C1061 C 0.86735 0.56158 0.96075 0.0
H1062 H 0.89663 0.58095 0.84731 0.0
H1063 H 0.79391 0.44906 0.14954 0.0
H1064 H 0.03279 0.21589 0.0366 0.0
H1065 H 0.03423 0.1842 0.96415 0.0
H1066 H 0.08122 0.16831 0.09171 0.0
H1067 H 0.07969 0.19994 0.1642 0.0
H1068 H 0.08405 0.15166 0.94804 0.0
H1069 H 0.03781 0.15885 0.13655 0.0
H1070 H 0.01065 0.175 0.20511 0.0
H1071 H 0.97136 0.16377 0.0311 0.0
H1072 H 0.99842 0.14791 0.96096 0.0
H1073 H 0.06475 0.04927 0.90702 0.0
H1074 H 0.07161 0.0834 0.95179 0.0
H1075 H 0.01969 0.09892 0.84601 0.0
H1076 H 0.01266 0.06507 0.80152 0.0
H1077 H 0.02036 0.11621 0.97685 0.0
H1078 H 0.066 0.10803 0.78909 0.0
H1079 H 0.09344 0.09366 0.71793 0.0
H1080 H 0.13385 0.10687 0.88853 0.0
H1081 H 0.10651 0.12118 0.9611 0.0
C1082 C 0.04407 0.20596 0.04689 0.0
C1083 C 0.0563 0.21028 0.1051 0.0
C1084 C 0.04479 0.18784 0.00599 0.0
C1085 C 0.05768 0.17389 0.02318 0.0
C1086 C 0.07126 0.17892 0.07746 0.0
C1087 C 0.07045 0.19697 0.11858 0.0
C1088 C 0.05476 0.15339 0.99224 0.0
C1089 C 0.07022 0.14381 0.95466 0.0
C1090 C 0.03663 0.14327 1.00071 0.0
C1091 C 0.0202 0.15237 0.04329 0.0
C1092 C 0.02342 0.15994 0.11275 0.0
C1093 C 1.00805 0.16904 0.15192 0.0
C1094 C 0.98932 0.17044 0.12247 0.0
C1095 C 0.98589 0.16269 0.05381 0.0
C1096 C 1.00124 0.15365 0.01431 0.0
C1097 C 0.05484 0.05995 0.89306 0.0
C1098 C 0.03807 0.05436 0.85105 0.0
C1099 C 0.05884 0.07947 0.91841 0.0
C1100 C 0.04619 0.09372 0.90204 0.0
C1101 C 0.02962 0.08818 0.8595 0.0
C1102 C 0.02563 0.06875 0.8341 0.0
C1103 C 0.04959 0.11436 0.9315 0.0
C1104 C 0.0342 0.12398 0.96966 0.0
C1105 C 0.0678 0.12445 0.9236 0.0
C1106 C 0.08416 0.11548 0.88068 0.0
C1107 C 0.08068 0.10768 0.81166 0.0
C1108 C 0.09625 0.09959 0.77099 0.0
C1109 C 0.1154 0.0993 0.79867 0.0
C1110 C 0.11901 0.10708 0.86717 0.0
C1111 C 0.10348 0.1152 0.90808 0.0
H1112 H 0.12748 0.09312 0.76705 0.0
H1113 H 0.97744 0.1775 0.1529 0.0
H1114 H 0.30807 0.02664 0.12092 0.0
H1115 H 0.33744 0.02672 0.04595 0.0
H1116 H 0.35552 0.97323 0.10529 0.0
H1117 H 0.32558 0.97214 0.17258 0.0
H1118 H 0.37444 0.03035 0.064 0.0
H1119 H 0.38861 0.94834 1.00217 0.0
H1120 H 0.36907 0.91777 0.99106 0.0
H1121 H 0.31724 0.94627 0.93461 0.0
H1122 H 0.33672 0.97681 0.94143 0.0
H1123 H 0.47584 0.01304 0.97372 0.0
H1124 H 0.4425 0.01365 0.02366 0.0
H1125 H 0.41768 0.98767 0.82867 0.0
H1126 H 0.4511 0.9867 0.77867 0.0
H1127 H 0.39999 0.97162 0.92205 0.0
H1128 H 0.41224 0.03729 0.89872 0.0
H1129 H 0.4308 0.06846 0.91157 0.0
H1130 H 0.42782 0.07316 0.13029 0.0
H1131 H 0.40946 0.04187 0.11876 0.0
C1132 C 0.31795 0.01456 0.11576 0.0
C1133 C 0.31432 0.99941 0.15353 0.0
C1134 C 0.33504 0.01474 0.07361 0.0
C1135 C 0.34906 0.99985 0.06835 0.0
C1136 C 0.34508 0.9847 0.10559 0.0
C1137 C 0.32788 0.98422 0.14542 0.0
C1138 C 0.36811 1.00029 0.02669 0.0
C1139 C 0.37985 0.01745 0.03282 0.0
C1140 C 0.37554 0.98365 0.98443 0.0
C1141 C 0.36412 0.96496 0.97303 0.0
C1142 C 0.37315 0.94803 0.98599 0.0
C1143 C 0.36208 0.93069 0.98038 0.0
C1144 C 0.34192 0.9301 0.96225 0.0
C1145 C 0.33288 0.94676 0.94845 0.0
C1146 C 0.34397 0.96405 0.95256 0.0
C1147 C 0.46334 0.00749 0.94113 0.0
C1148 C 0.46642 0.99994 0.87165 0.0
C1149 C 0.44409 0.00797 0.96987 0.0
C1150 C 0.42716 0.00102 0.9302 0.0
C1151 C 0.43024 0.99325 0.86095 0.0
C1152 C 0.4495 0.99277 0.83213 0.0
C1153 C 0.40644 0.00148 0.96121 0.0
C1154 C 0.39443 0.98451 0.95287 0.0
C1155 C 0.39865 0.0183 1.00064 0.0
C1156 C 0.40961 0.03716 0.00785 0.0
C1157 C 0.41565 0.04491 0.94956 0.0
C1158 C 0.42612 0.0626 0.95661 0.0
C1159 C 0.43052 0.07276 0.0217 0.0
C1160 C 0.42441 0.06526 0.0799 0.0
C1161 C 0.41395 0.04756 0.07314 0.0
H1162 H 0.43863 0.08646 0.02705 0.0
H1163 H 0.33331 0.91672 0.95883 0.0
H1164 H 0.49236 0.29136 0.38546 0.0
H1165 H 0.48591 0.31315 0.30468 0.0
H1166 H 0.52291 0.27946 0.15524 0.0
H1167 H 0.53019 0.25793 0.23862 0.0
H1168 H 0.53328 0.31497 0.16023 0.0
H1169 H 0.47011 0.28366 0.13314 0.0
H1170 H 0.4385 0.26896 0.16578 0.0
H1171 H 0.42103 0.32372 0.27444 0.0
H1172 H 0.45266 0.33873 0.24334 0.0
H1173 H 0.50936 0.38647 0.94938 0.0
H1174 H 0.5114 0.35546 0.99042 0.0
H1175 H 0.48492 0.38019 0.18148 0.0
H1176 H 0.48315 0.41126 0.1416 0.0
H1177 H 0.46819 0.34457 0.13056 0.0
H1178 H 0.53546 0.37332 0.16673 0.0
H1179 H 0.56677 0.38687 0.12641 0.0
H1180 H 0.57535 0.33432 0.98728 0.0
H1181 H 0.54395 0.32057 0.02617 0.0
C1182 C 0.49871 0.28827 0.33471 0.0
C1183 C 0.51176 0.27292 0.31834 0.0
C1184 C 0.49492 0.30073 0.28814 0.0
C1185 C 0.5037 0.29798 0.22304 0.0
C1186 C 0.51589 0.28194 0.20499 0.0
C1187 C 0.51987 0.26948 0.25225 0.0
C1188 C 0.5016 0.31302 0.17779 0.0
C1189 C 0.51894 0.32107 0.15236 0.0
C1190 C 0.48297 0.32123 0.16726 0.0
C1191 C 0.46384 0.31231 0.18608 0.0
C1192 C 0.45959 0.29256 0.16436 0.0
C1193 C 0.44165 0.28417 0.18255 0.0
C1194 C 0.42777 0.29539 0.22221 0.0
C1195 C 0.43179 0.31505 0.24368 0.0
C1196 C 0.44971 0.32351 0.22566 0.0
C1197 C 0.50414 0.3854 1.00043 0.0
C1198 C 0.4961 0.4015 0.0421 0.0
C1199 C 0.50524 0.36759 0.0237 0.0
C1200 C 0.49839 0.36546 0.08922 0.0
C1201 C 0.4902 0.38141 0.13058 0.0
C1202 C 0.48914 0.3992 0.10751 0.0
C1203 C 0.49987 0.34679 0.11574 0.0
C1204 C 0.48242 0.33813 0.13744 0.0
C1205 C 0.5183 0.3378 0.12151 0.0
C1206 C 0.53728 0.346 0.09887 0.0
C1207 C 0.54397 0.36471 0.12724 0.0
C1208 C 0.56173 0.37242 0.10467 0.0
C1209 C 0.57301 0.36149 0.05413 0.0
C1210 C 0.56658 0.34279 0.02626 0.0
C1211 C 0.54882 0.33503 0.0486 0.0
H1212 H 0.58675 0.36748 0.03669 0.0
H1213 H 0.41389 0.28887 0.23625 0.0
H1214 H 0.21395 0.48224 0.22747 0.0
H1215 H 0.1852 0.48019 0.15068 0.0
H1216 H 0.21812 0.51272 0.01835 0.0
H1217 H 0.24705 0.51504 0.09667 0.0
H1218 H 0.18207 0.52694 0.03729 0.0
H1219 H 0.20457 0.4631 0.97062 0.0
H1220 H 0.2161 0.43103 0.98621 0.0
H1221 H 0.16076 0.41945 0.08279 0.0
H1222 H 0.149 0.45156 0.06862 0.0
H1223 H 0.09895 0.51717 0.80245 0.0
H1224 H 0.13173 0.517 0.85687 0.0
H1225 H 0.10806 0.47903 0.99028 0.0
H1226 H 0.07561 0.47844 0.93373 0.0
H1227 H 0.14194 0.46719 0.95917 0.0
H1228 H 0.12234 0.53311 0.0438 0.0
H1229 H 0.11225 0.56625 0.03662 0.0
H1230 H 0.16208 0.57379 0.90705 0.0
H1231 H 0.17276 0.5408 0.91443 0.0
C1232 C 0.21531 0.48854 0.18107 0.0
C1233 C 0.23305 0.49858 0.1681 0.0
C1234 C 0.19874 0.48737 0.13685 0.0
C1235 C 0.19921 0.49615 0.07759 0.0
C1236 C 0.21715 0.50574 0.06331 0.0
C1237 C 0.23387 0.50685 0.10773 0.0
C1238 C 0.18064 0.49615 0.03359 0.0
C1239 C 0.17353 0.51377 0.01921 0.0
C1240 C 0.16897 0.47917 0.01051 0.0
C1241 C 0.17596 0.45981 0.01901 0.0
C1242 C 0.19491 0.45377 0.99563 0.0
C1243 C 0.20148 0.43557 0.00413 0.0
C1244 C 0.18919 0.42322 0.03559 0.0
C1245 C 0.17028 0.42903 0.05847 0.0
C1246 C 0.16364 0.44723 0.05013 0.0
C1247 C 0.10068 0.50877 0.84344 0.0
C1248 C 0.08438 0.49779 0.86321 0.0
C1249 C 0.11956 0.50884 0.87537 0.0
C1250 C 0.12275 0.49828 0.9294 0.0
C1251 C 0.10641 0.48734 0.94902 0.0
C1252 C 0.08765 0.48703 0.91647 0.0
C1253 C 0.14298 0.49808 0.96443 0.0
C1254 C 0.15047 0.48037 0.97694 0.0
C1255 C 0.15499 0.51499 0.98585 0.0
C1256 C 0.14816 0.53443 0.97887 0.0
C1257 C 0.131 0.54176 0.0131 0.0
C1258 C 0.12518 0.56051 0.00901 0.0
C1259 C 0.13627 0.57197 0.9703 0.0
C1260 C 0.15337 0.5648 0.93626 0.0
C1261 C 0.15939 0.54613 0.94071 0.0
H1262 H 0.13172 0.58648 0.96724 0.0
H1263 H 0.1943 0.40914 0.04213 0.0
H1264 H 0.97862 0.77698 0.50315 0.0
H1265 H 0.97913 0.8072 0.58536 0.0
H1266 H 0.03224 0.8264 0.48996 0.0
H1267 H 0.03199 0.79625 0.40971 0.0
H1268 H 0.0337 0.84007 0.62064 0.0
H1269 H 0.98516 0.83654 0.43785 0.0
H1270 H 0.95599 0.82272 0.36927 0.0
H1271 H 0.91914 0.83216 0.54807 0.0
H1272 H 0.94821 0.8458 0.61792 0.0
H1273 H 0.01589 0.94072 0.597 0.0
H1274 H 0.01202 0.90574 0.56046 0.0
H1275 H 0.99495 0.89859 0.76502 0.0
H1276 H 0.99945 0.93337 0.80263 0.0
H1277 H 0.97323 0.87795 0.59922 0.0
H1278 H 0.02676 0.8826 0.78058 0.0
H1279 H 0.05704 0.89996 0.83108 0.0
H1280 H 0.08585 0.89022 0.63566 0.0
H1281 H 0.05538 0.87352 0.58331 0.0
C1282 C 0.99076 0.78741 0.50165 0.0
C1283 C 1.00516 0.78446 0.44996 0.0
C1284 C 0.99096 0.80471 0.54809 0.0
C1285 C 1.00549 0.81926 0.54289 0.0
C1286 C 0.02084 0.81548 0.495 0.0
C1287 C 0.02067 0.79827 0.449 0.0
C1288 C 1.00367 0.83917 0.58076 0.0
C1289 C 0.02032 0.84819 0.61686 0.0
C1290 C 0.98636 0.85 0.57513 0.0
C1291 C 0.96888 0.84194 0.53321 0.0
C1292 C 0.97086 0.83554 0.46259 0.0
C1293 C 0.95435 0.82775 0.4235 0.0
C1294 C 0.93573 0.82651 0.45434 0.0
C1295 C 0.93358 0.83309 0.52431 0.0
C1296 C 0.95007 0.84084 0.56367 0.0
C1297 C 0.0111 0.93172 0.63397 0.0
C1298 C 1.00813 0.93974 0.70271 0.0
C1299 C 1.00891 0.91179 0.61308 0.0
C1300 C 1.00342 0.89968 0.66034 0.0
C1301 C 0.99942 0.90773 0.72812 0.0
C1302 C 1.002 0.92758 0.74939 0.0
C1303 C 1.00309 0.87853 0.63933 0.0
C1304 C 0.9862 0.86948 0.60542 0.0
C1305 C 0.02025 0.86774 0.64589 0.0
C1306 C 0.03876 0.87703 0.67797 0.0
C1307 C 0.03948 0.88432 0.74829 0.0
C1308 C 0.05668 0.89402 0.77728 0.0
C1309 C 0.07337 0.89613 0.73673 0.0
C1310 C 0.0729 0.88857 0.66702 0.0
C1311 C 0.05566 0.87906 0.63762 0.0
H1312 H 0.08668 0.90363 0.75933 0.0
H1313 H 0.92296 0.82048 0.42399 0.0
H1314 H 0.73419 0.03019 0.45744 0.0
H1315 H 0.70392 0.02822 0.52546 0.0
H1316 H 0.70255 0.9663 0.47088 0.0
H1317 H 0.73292 0.96837 0.40235 0.0
H1318 H 0.66657 0.97991 0.45092 0.0
H1319 H 0.71362 0.99115 0.63664 0.0
H1320 H 0.74079 0.00821 0.70766 0.0
H1321 H 0.70518 0.05849 0.75185 0.0
H1322 H 0.67795 0.04191 0.67977 0.0
H1323 H 0.58102 0.96513 0.65107 0.0
H1324 H 0.61438 0.9648 0.60117 0.0
H1325 H 0.62265 0.02538 0.67994 0.0
H1326 H 0.58976 0.02546 0.73288 0.0
H1327 H 0.65587 0.01169 0.68945 0.0
H1328 H 0.61129 0.00395 0.49857 0.0
H1329 H 0.58367 0.98945 0.42356 0.0
H1330 H 0.61387 0.9357 0.3861 0.0
H1331 H 0.64158 0.94983 0.4616 0.0
C1332 C 0.72786 0.01609 0.46201 0.0
C1333 C 0.73643 0.9994 0.42587 0.0
C1334 C 0.71038 0.01496 0.50076 0.0
C1335 C 0.7007 0.99708 0.50441 0.0
C1336 C 0.70956 0.98032 0.46966 0.0
C1337 C 0.72717 0.98146 0.43115 0.0
C1338 C 0.6808 0.99604 0.54034 0.0
C1339 C 0.66441 0.98655 0.50362 0.0
C1340 C 0.67741 0.00533 0.60842 0.0
C1341 C 0.69384 0.01536 0.65172 0.0
C1342 C 0.71167 0.00594 0.66065 0.0
C1343 C 0.72709 0.01553 0.70117 0.0
C1344 C 0.72479 0.03449 0.73372 0.0
C1345 C 0.70701 0.04386 0.72615 0.0
C1346 C 0.69158 0.03437 0.68542 0.0
C1347 C 0.58991 0.97841 0.6578 0.0
C1348 C 0.58238 0.99535 0.6958 0.0
C1349 C 0.6091 0.97827 0.62854 0.0
C1350 C 0.62129 0.9952 0.63444 0.0
C1351 C 0.61386 0.01204 0.67359 0.0
C1352 C 0.59483 0.0121 0.7039 0.0
C1353 C 0.64161 0.99542 0.60027 0.0
C1354 C 0.65806 0.00485 0.63706 0.0
C1355 C 0.64501 0.98643 0.53177 0.0
C1356 C 0.6284 0.97789 0.48633 0.0
C1357 C 0.61197 0.989 0.4747 0.0
C1358 C 0.59631 0.98085 0.43205 0.0
C1359 C 0.59699 0.96165 0.40025 0.0
C1360 C 0.61336 0.95057 0.41088 0.0
C1361 C 0.62905 0.95864 0.45355 0.0
H1362 H 0.58485 0.95536 0.36725 0.0
H1363 H 0.73671 0.04186 0.76531 0.0
H1364 H 0.57382 0.73103 0.29539 0.0
H1365 H 0.57841 0.70654 0.36938 0.0
H1366 H 0.51488 0.70345 0.40062 0.0
H1367 H 0.51034 0.72793 0.32677 0.0
H1368 H 0.53796 0.69699 0.51699 0.0
H1369 H 0.53506 0.67698 0.2692 0.0
H1370 H 0.54762 0.67819 0.15286 0.0
H1371 H 0.60425 0.65805 0.20785 0.0
H1372 H 0.59244 0.65756 0.32554 0.0
H1373 H 0.52341 0.60128 0.58445 0.0
H1374 H 0.52207 0.63208 0.5428 0.0
H1375 H 0.58142 0.62417 0.46142 0.0
H1376 H 0.58224 0.59275 0.49762 0.0
H1377 H 0.56202 0.63762 0.37459 0.0
H1378 H 0.56929 0.65801 0.61446 0.0
H1379 H 0.56253 0.66108 0.73811 0.0
H1380 H 0.50411 0.68165 0.70611 0.0
H1381 H 0.51053 0.67872 0.58219 0.0
C1382 C 0.56099 0.72591 0.32123 0.0
C1383 C 0.54177 0.73161 0.30644 0.0
C1384 C 0.56358 0.71172 0.36274 0.0
C1385 C 0.54694 0.7029 0.38963 0.0
C1386 C 0.52793 0.71003 0.38056 0.0
C1387 C 0.52535 0.72416 0.33888 0.0
C1388 C 0.5489 0.68462 0.41821 0.0
C1389 C 0.54308 0.68394 0.48588 0.0
C1390 C 0.55615 0.66772 0.37816 0.0
C1391 C 0.56292 0.66744 0.30656 0.0
C1392 C 0.55024 0.67295 0.25675 0.0
C1393 C 0.55722 0.67351 0.19053 0.0
C1394 C 0.57664 0.66813 0.1729 0.0
C1395 C 0.5892 0.66223 0.22156 0.0
C1396 C 0.58241 0.66188 0.28813 0.0
C1397 C 0.53608 0.60584 0.55661 0.0
C1398 C 0.55297 0.59427 0.54493 0.0
C1399 C 0.53545 0.62378 0.53396 0.0
C1400 C 0.5518 0.63084 0.49991 0.0
C1401 C 0.56859 0.61927 0.48779 0.0
C1402 C 0.56912 0.60125 0.50946 0.0
C1403 C 0.55119 0.64981 0.47422 0.0
C1404 C 0.55705 0.65061 0.40647 0.0
C1405 C 0.54457 0.66694 0.51493 0.0
C1406 C 0.54033 0.66798 0.58895 0.0
C1407 C 0.55494 0.66303 0.63369 0.0
C1408 C 0.55121 0.66485 0.70387 0.0
C1409 C 0.53291 0.67157 0.72994 0.0
C1410 C 0.51829 0.67647 0.68585 0.0
C1411 C 0.52198 0.67478 0.61567 0.0
H1412 H 0.53005 0.67296 0.78428 0.0
H1413 H 0.58196 0.66855 0.12153 0.0
H1414 H 0.81075 0.47619 0.4228 0.0
H1415 H 0.8419 0.47312 0.4863 0.0
H1416 H 0.85252 0.53457 0.50714 0.0
H1417 H 0.82167 0.53758 0.44411 0.0
H1418 H 0.87998 0.48012 0.45632 0.0
H1419 H 0.87854 0.55199 0.64356 0.0
H1420 H 0.85461 0.57239 0.71444 0.0
H1421 H 0.81611 0.52287 0.72143 0.0
H1422 H 0.83982 0.5022 0.6507 0.0
H1423 H 0.97933 0.50409 0.57879 0.0
H1424 H 0.94566 0.50432 0.53086 0.0
H1425 H 0.92063 0.4965 0.72537 0.0
H1426 H 0.95426 0.49644 0.77374 0.0
H1427 H 0.89887 0.52128 0.67553 0.0
H1428 H 0.92155 0.45896 0.58335 0.0
H1429 H 0.94415 0.43496 0.52298 0.0
H1430 H 0.938 0.45978 0.33939 0.0
H1431 H 0.9155 0.48408 0.39895 0.0
C1432 C 0.81947 0.48909 0.44255 0.0
C1433 C 0.81342 0.50718 0.42896 0.0
C1434 C 0.83748 0.48732 0.47833 0.0
C1435 C 0.84983 0.50361 0.50255 0.0
C1436 C 0.8434 0.52172 0.49056 0.0
C1437 C 0.82562 0.52344 0.4543 0.0
C1438 C 0.86982 0.50181 0.53707 0.0
C1439 C 0.88403 0.48916 0.50423 0.0
C1440 C 0.87539 0.5132 0.60051 0.0
C1441 C 0.86088 0.52561 0.64154 0.0
C1442 C 0.86493 0.54548 0.66008 0.0
C1443 C 0.8514 0.55709 0.70015 0.0
C1444 C 0.83383 0.54894 0.7223 0.0
C1445 C 0.8297 0.52918 0.70412 0.0
C1446 C 0.84314 0.51753 0.66385 0.0
C1447 C 0.96671 0.50241 0.6116 0.0
C1448 C 0.96982 0.50021 0.68047 0.0
C1449 C 0.9473 0.50243 0.58382 0.0
C1450 C 0.93021 0.50019 0.62371 0.0
C1451 C 0.93329 0.49824 0.6928 0.0
C1452 C 0.9527 0.49816 0.72055 0.0
C1453 C 0.90929 0.50001 0.59372 0.0
C1454 C 0.89489 0.51228 0.62744 0.0
C1455 C 0.90343 0.48797 0.53177 0.0
C1456 C 0.91699 0.47345 0.49579 0.0
C1457 C 0.92514 0.45939 0.53025 0.0
C1458 C 0.93791 0.44571 0.49614 0.0
C1459 C 0.94255 0.44587 0.42742 0.0
C1460 C 0.9344 0.45969 0.39264 0.0
C1461 C 0.92162 0.4734 0.42652 0.0
H1462 H 0.95242 0.43526 0.40104 0.0
H1463 H 0.82344 0.55793 0.75365 0.0
loop_
_geom_bond_atom_site_label_1
_geom_bond_atom_site_label_2
_geom_bond_distance
_geom_bond_site_symmetry_2
_ccdc_geom_bond_type
H0 C7 0.929 . S
H1 C10 0.930 . S
H2 C12 0.929 . S
H3 C4 0.969 . S
C4 H3 0.969 . S
C4 O5 1.550 . S
C4 H6 0.973 . S
O5 C4 1.550 . S
O5 C11 1.412 . S
H6 C4 0.973 . S
C7 H0 0.929 . S
C7 C8 1.400 . S
C7 C9 1.364 . S
C8 C7 1.400 . S
C8 C12 1.377 . S
C9 C7 1.364 . S
C9 C10 1.374 . S
C10 H1 0.930 . S
C10 C9 1.374 . S
C10 C11 1.383 . S
C11 O5 1.412 . S
C11 C10 1.383 . S
C11 C12 1.394 . S
C12 H2 0.929 . S
C12 C8 1.377 . S
C12 C11 1.394 . S
H13 C20 0.929 . S
H14 C23 0.930 . S
H15 C25 0.929 . S
H16 C17 0.969 1_455 S
C17 H16 0.969 1_655 S
C17 O18 1.550 . S
C17 H19 0.973 . S
O18 C17 1.550 . S
O18 C24 1.412 . S
H19 C17 0.973 . S
C20 H13 0.929 . S
C20 C21 1.400 . S
C20 C22 1.364 . S
C21 C20 1.400 . S
C21 C25 1.377 . S
C22 C20 1.364 . S
C22 C23 1.374 . S
C23 H14 0.930 . S
C23 C22 1.374 . S
C23 C24 1.383 . S
C24 O18 1.412 . S
C24 C23 1.383 . S
C24 C25 1.394 . S
C25 H15 0.929 . S
C25 C21 1.377 . S
C25 C24 1.394 . S
H26 C33 0.929 . S
H27 C36 0.935 . S
H28 C38 0.926 1_565 S
H29 C30 0.969 . S
C30 H29 0.969 . S
C30 O31 1.550 1_545 S
C30 H32 0.973 1_545 S
O31 C30 1.550 1_565 S
O31 C37 1.405 1_565 S
H32 C30 0.973 1_565 S
C33 H26 0.929 . S
C33 C34 1.400 1_565 S
C33 C35 1.365 1_565 S
C34 C33 1.400 1_545 S
C34 C38 1.377 . S
C35 C33 1.365 1_545 S
C35 C36 1.374 1_545 S
C36 H27 0.935 . S
C36 C35 1.374 1_565 S
C36 C37 1.387 1_565 S
C37 O31 1.405 1_545 S
C37 C36 1.387 1_545 S
C37 C38 1.390 . S
C38 H28 0.926 1_545 S
C38 C34 1.377 . S
C38 C37 1.390 . S
H39 C46 0.929 . S
H40 C49 0.930 . S
H41 C51 0.929 . S
H42 C43 0.969 . S
C43 H42 0.969 . S
C43 O44 1.550 1_556 S
C43 H45 0.973 . S
O44 C43 1.550 1_554 S
O44 C50 1.412 . S
H45 C43 0.973 . S
C46 H39 0.929 . S
C46 C47 1.400 . S
C46 C48 1.364 1_554 S
C47 C46 1.400 . S
C47 C51 1.377 . S
C48 C46 1.364 1_556 S
C48 C49 1.374 . S
C49 H40 0.930 . S
C49 C48 1.374 . S
C49 C50 1.383 1_556 S
C50 O44 1.412 . S
C50 C49 1.383 1_554 S
C50 C51 1.394 . S
C51 H41 0.929 . S
C51 C47 1.377 . S
C51 C50 1.394 . S
H52 C59 0.929 . S
H53 C62 0.930 . S
H54 C64 0.929 . S
H55 C56 0.969 . S
C56 H55 0.969 . S
C56 O57 1.550 . S
C56 H58 0.973 . S
O57 C56 1.550 . S
O57 C63 1.412 . S
H58 C56 0.973 . S
C59 H52 0.929 . S
C59 C60 1.400 . S
C59 C61 1.364 . S
C60 C59 1.400 . S
C60 C64 1.377 . S
C61 C59 1.364 . S
C61 C62 1.374 . S
C62 H53 0.930 . S
C62 C61 1.374 . S
C62 C63 1.383 . S
C63 O57 1.412 . S
C63 C62 1.383 . S
C63 C64 1.394 . S
C64 H54 0.929 . S
C64 C60 1.377 . S
C64 C63 1.394 . S
H65 C72 0.929 . S
H66 C75 0.930 . S
H67 C77 0.929 . S
H68 C69 0.969 . S
C69 H68 0.969 . S
C69 O70 1.550 . S
C69 H71 0.973 . S
O70 C69 1.550 . S
O70 C76 1.412 . S
H71 C69 0.973 . S
C72 H65 0.929 . S
C72 C73 1.400 . S
C72 C74 1.364 . S
C73 C72 1.400 . S
C73 C77 1.377 . S
C74 C72 1.364 . S
C74 C75 1.374 . S
C75 H66 0.930 . S
C75 C74 1.374 . S
C75 C76 1.383 . S
C76 O70 1.412 . S
C76 C75 1.383 . S
C76 C77 1.394 . S
C77 H67 0.929 . S
C77 C73 1.377 . S
C77 C76 1.394 . S
H78 C85 0.929 1_565 S
H79 C88 0.924 . S
H80 C90 0.931 1_565 S
H81 C82 0.969 . S
C82 H81 0.969 . S
C82 O83 1.550 1_545 S
C82 H84 0.973 1_545 S
O83 C82 1.550 1_565 S
O83 C89 1.403 1_565 S
H84 C82 0.973 1_565 S
C85 H78 0.929 1_545 S
C85 C86 1.397 . S
C85 C87 1.364 . S
C86 C85 1.397 . S
C86 C90 1.377 . S
C87 C85 1.364 . S
C87 C88 1.374 1_545 S
C88 H79 0.924 . S
C88 C87 1.374 1_565 S
C88 C89 1.377 1_565 S
C89 O83 1.403 1_545 S
C89 C88 1.377 1_545 S
C89 C90 1.398 . S
C90 H80 0.931 1_545 S
C90 C86 1.377 . S
C90 C89 1.398 . S
H91 C98 0.929 . S
H92 C101 0.930 . S
H93 C103 0.929 . S
H94 C95 0.969 . S
C95 H94 0.969 . S
C95 O96 1.550 . S
C95 H97 0.973 . S
O96 C95 1.550 . S
O96 C102 1.412 . S
H97 C95 0.973 . S
C98 H91 0.929 . S
C98 C99 1.400 . S
C98 C100 1.364 . S
C99 C98 1.400 . S
C99 C103 1.377 . S
C100 C98 1.364 . S
C100 C101 1.374 . S
C101 H92 0.930 . S
C101 C100 1.374 . S
C101 C102 1.383 . S
C102 O96 1.412 . S
C102 C101 1.383 . S
C102 C103 1.394 . S
C103 H93 0.929 . S
C103 C99 1.377 . S
C103 C102 1.394 . S
Tb104 C113 2.764 . S
Tb104 O114 2.325 . S
Tb104 O117 2.303 . S
Tb104 O121 2.322 1_445 S
Tb104 O122 2.349 1_455 S
Tb104 O125 2.415 . S
Tb104 O126 2.399 1_455 S
Tb105 O115 2.322 1_565 S
Tb105 O116 2.349 . S
Tb105 O118 2.415 . S
Tb105 O119 2.399 . S
Tb105 O120 2.325 . S
Tb105 O123 2.303 1_455 S
Tb105 C134 2.764 . S
C106 O122 1.261 . S
C106 O123 1.257 1_545 S
C107 C110 1.373 . S
C107 C111 1.318 1_655 S
C107 C113 1.503 1_655 S
C108 C109 1.373 . S
C108 C112 1.308 1_655 S
C109 C108 1.373 . S
C109 C110 1.429 . S
C109 H136 0.932 . S
C110 C107 1.373 . S
C110 C109 1.429 . S
C110 H137 0.930 . S
C111 C107 1.318 1_455 S
C111 C112 1.394 . S
C111 H138 0.932 . S
C112 C108 1.308 1_455 S
C112 C111 1.394 . S
C112 H139 0.929 . S
C113 Tb104 2.764 . S
C113 C107 1.503 1_455 S
C113 O125 1.239 . S
C113 O126 1.262 1_455 S
O114 Tb104 2.325 . S
O114 C124 1.236 . S
O115 Tb105 2.322 1_545 S
O115 C124 1.257 . S
O116 Tb105 2.349 . S
O116 C127 1.261 . S
O117 Tb104 2.303 . S
O117 C127 1.257 1_545 S
O118 Tb105 2.415 . S
O118 C134 1.239 . S
O119 Tb105 2.399 . S
O119 C134 1.263 . S
O120 Tb105 2.325 . S
O120 C135 1.236 . S
O121 Tb104 2.322 1_665 S
O121 C135 1.257 1_655 S
O122 Tb104 2.349 1_655 S
O122 C106 1.261 . S
O123 Tb105 2.303 1_655 S
O123 C106 1.257 1_565 S
C124 O114 1.236 . S
C124 O115 1.257 . S
O125 Tb104 2.415 . S
O125 C113 1.239 . S
O126 Tb104 2.399 1_655 S
O126 C113 1.262 1_655 S
C127 O116 1.261 . S
C127 O117 1.257 1_565 S
C128 C131 1.358 . S
C128 C132 1.332 . S
C128 C134 1.504 . S
C129 C130 1.378 . S
C129 C133 1.313 . S
C130 C129 1.378 . S
C130 C131 1.429 . S
C130 H140 0.932 . S
C131 C128 1.358 . S
C131 C130 1.429 . S
C131 H141 0.930 . S
C132 C128 1.332 . S
C132 C133 1.394 . S
C132 H142 0.932 . S
C133 C129 1.313 . S
C133 C132 1.394 . S
C133 H143 0.929 . S
C134 Tb105 2.764 . S
C134 O118 1.239 . S
C134 O119 1.263 . S
C134 C128 1.504 . S
C135 O120 1.236 . S
C135 O121 1.257 1_455 S
H136 C109 0.932 . S
H137 C110 0.930 . S
H138 C111 0.932 . S
H139 C112 0.929 . S
H140 C130 0.932 . S
H141 C131 0.930 . S
H142 C132 0.932 . S
H143 C133 0.929 . S
Tb144 C153 2.764 . S
Tb144 O154 2.325 . S
Tb144 O157 2.303 1_565 S
Tb144 O161 2.322 . S
Tb144 O162 2.349 . S
Tb144 O165 2.415 1_565 S
Tb144 O166 2.399 . S
Tb145 O155 2.322 . S
Tb145 O156 2.349 . S
Tb145 O158 2.415 1_545 S
Tb145 O159 2.399 . S
Tb145 O160 2.325 . S
Tb145 O163 2.303 1_545 S
Tb145 C174 2.764 . S
C146 O162 1.261 . S
C146 O163 1.257 . S
C147 C150 1.358 . S
C147 C151 1.332 1_565 S
C147 C153 1.504 . S
C148 C149 1.373 . S
C148 C152 1.308 1_565 S
C149 C148 1.373 . S
C149 C150 1.429 . S
C149 H176 0.932 . S
C150 C147 1.358 . S
C150 C149 1.429 . S
C150 H177 0.930 . S
C151 C147 1.332 1_545 S
C151 C152 1.394 . S
C151 H178 0.932 . S
C152 C148 1.308 1_545 S
C152 C151 1.394 . S
C152 H179 0.929 . S
C153 Tb144 2.764 . S
C153 C147 1.504 . S
C153 O165 1.239 1_565 S
C153 O166 1.263 . S
O154 Tb144 2.325 . S
O154 C164 1.236 1_565 S
O155 Tb145 2.322 . S
O155 C164 1.257 . S
O156 Tb145 2.349 . S
O156 C167 1.261 . S
O157 Tb144 2.303 1_545 S
O157 C167 1.257 . S
O158 Tb145 2.415 1_565 S
O158 C174 1.239 1_565 S
O159 Tb145 2.399 . S
O159 C174 1.263 . S
O160 Tb145 2.325 . S
O160 C175 1.236 1_545 S
O161 Tb144 2.322 . S
O161 C175 1.257 . S
O162 Tb144 2.349 . S
O162 C146 1.261 . S
O163 Tb145 2.303 1_565 S
O163 C146 1.257 . S
C164 O154 1.236 1_545 S
C164 O155 1.257 . S
O165 Tb144 2.415 1_545 S
O165 C153 1.239 1_545 S
O166 Tb144 2.399 . S
O166 C153 1.263 . S
C167 O156 1.261 . S
C167 O157 1.257 . S
C168 C171 1.358 1_556 S
C168 C172 1.332 1_545 S
C168 C174 1.504 . S
C169 C170 1.373 . S
C169 C173 1.308 1_545 S
C170 C169 1.373 . S
C170 C171 1.429 . S
C170 H180 0.932 . S
C171 C168 1.358 1_554 S
C171 C170 1.429 . S
C171 H181 0.930 . S
C172 C168 1.332 1_565 S
C172 C173 1.394 1_556 S
C172 H182 0.932 . S
C173 C169 1.308 1_565 S
C173 C172 1.394 1_554 S
C173 H183 0.929 1_554 S
C174 Tb145 2.764 . S
C174 O158 1.239 1_545 S
C174 O159 1.263 . S
C174 C168 1.504 . S
C175 O160 1.236 1_565 S
C175 O161 1.257 . S
H176 C149 0.932 . S
H177 C150 0.930 . S
H178 C151 0.932 . S
H179 C152 0.929 . S
H180 C170 0.932 . S
H181 C171 0.930 . S
H182 C172 0.932 . S
H183 C173 0.929 1_556 S
Tb184 C193 2.764 . S
Tb184 O194 2.325 . S
Tb184 O197 2.303 . S
Tb184 O201 2.322 . S
Tb184 O202 2.349 . S
Tb184 O205 2.415 . S
Tb184 O206 2.399 . S
Tb185 O195 2.322 . S
Tb185 O196 2.349 . S
Tb185 O198 2.415 . S
Tb185 O199 2.399 . S
Tb185 O200 2.325 . S
Tb185 O203 2.303 . S
Tb185 C214 2.764 . S
C186 O202 1.261 . S
C186 O203 1.257 . S
C187 C190 1.358 1_556 S
C187 C191 1.332 1_556 S
C187 C193 1.504 . S
C188 C189 1.373 . S
C188 C192 1.308 . S
C189 C188 1.373 . S
C189 C190 1.429 . S
C189 H216 0.932 . S
C190 C187 1.358 1_554 S
C190 C189 1.429 . S
C190 H217 0.930 1_554 S
C191 C187 1.332 1_554 S
C191 C192 1.394 . S
C191 H218 0.932 1_554 S
C192 C188 1.308 . S
C192 C191 1.394 . S
C192 H219 0.929 . S
C193 Tb184 2.764 . S
C193 C187 1.504 . S
C193 O205 1.239 . S
C193 O206 1.263 . S
O194 Tb184 2.325 . S
O194 C204 1.236 . S
O195 Tb185 2.322 . S
O195 C204 1.257 . S
O196 Tb185 2.349 . S
O196 C207 1.261 . S
O197 Tb184 2.303 . S
O197 C207 1.257 . S
O198 Tb185 2.415 . S
O198 C214 1.239 . S
O199 Tb185 2.399 . S
O199 C214 1.263 . S
O200 Tb185 2.325 . S
O200 C215 1.236 . S
O201 Tb184 2.322 . S
O201 C215 1.257 . S
O202 Tb184 2.349 . S
O202 C186 1.261 . S
O203 Tb185 2.303 . S
O203 C186 1.257 . S
C204 O194 1.236 . S
C204 O195 1.257 . S
O205 Tb184 2.415 . S
O205 C193 1.239 . S
O206 Tb184 2.399 . S
O206 C193 1.263 . S
C207 O196 1.261 . S
C207 O197 1.257 . S
C208 C211 1.358 . S
C208 C212 1.332 . S
C208 C214 1.504 . S
C209 C210 1.373 . S
C209 C213 1.308 . S
C210 C209 1.373 . S
C210 C211 1.429 . S
C210 H220 0.932 . S
C211 C208 1.358 . S
C211 C210 1.429 . S
C211 H221 0.930 . S
C212 C208 1.332 . S
C212 C213 1.394 . S
C212 H222 0.932 . S
C213 C209 1.308 . S
C213 C212 1.394 . S
C213 H223 0.929 . S
C214 Tb185 2.764 . S
C214 O198 1.239 . S
C214 O199 1.263 . S
C214 C208 1.504 . S
C215 O200 1.236 . S
C215 O201 1.257 . S
H216 C189 0.932 . S
H217 C190 0.930 1_556 S
H218 C191 0.932 1_556 S
H219 C192 0.929 . S
H220 C210 0.932 . S
H221 C211 0.930 . S
H222 C212 0.932 . S
H223 C213 0.929 . S
Tb224 C233 2.764 . S
Tb224 O234 2.325 . S
Tb224 O237 2.303 . S
Tb224 O241 2.322 1_455 S
Tb224 O242 2.349 . S
Tb224 O245 2.415 . S
Tb224 O246 2.399 . S
Tb225 O235 2.322 . S
Tb225 O236 2.349 . S
Tb225 O238 2.415 1_455 S
Tb225 O239 2.399 1_455 S
Tb225 O240 2.325 1_455 S
Tb225 O243 2.303 . S
Tb225 C254 2.764 1_455 S
C226 O242 1.261 . S
C226 O243 1.257 . S
C227 C230 1.358 . S
C227 C231 1.332 . S
C227 C233 1.504 . S
C228 C229 1.373 . S
C228 C232 1.308 . S
C229 C228 1.373 . S
C229 C230 1.429 . S
C229 H256 0.932 . S
C230 C227 1.358 . S
C230 C229 1.429 . S
C230 H257 0.930 . S
C231 C227 1.332 . S
C231 C232 1.394 . S
C231 H258 0.932 . S
C232 C228 1.308 . S
C232 C231 1.394 . S
C232 H259 0.929 . S
C233 Tb224 2.764 . S
C233 C227 1.504 . S
C233 O245 1.239 . S
C233 O246 1.263 . S
O234 Tb224 2.325 . S
O234 C244 1.236 . S
O235 Tb225 2.322 . S
O235 C244 1.257 . S
O236 Tb225 2.349 . S
O236 C247 1.261 . S
O237 Tb224 2.303 . S
O237 C247 1.257 . S
O238 Tb225 2.415 1_655 S
O238 C254 1.239 . S
O239 Tb225 2.399 1_655 S
O239 C254 1.263 . S
O240 Tb225 2.325 1_655 S
O240 C255 1.236 . S
O241 Tb224 2.322 1_655 S
O241 C255 1.257 . S
O242 Tb224 2.349 . S
O242 C226 1.261 . S
O243 Tb225 2.303 . S
O243 C226 1.257 . S
C244 O234 1.236 . S
C244 O235 1.257 . S
O245 Tb224 2.415 . S
O245 C233 1.239 . S
O246 Tb224 2.399 . S
O246 C233 1.263 . S
C247 O236 1.261 . S
C247 O237 1.257 . S
C248 C251 1.358 . S
C248 C252 1.332 . S
C248 C254 1.504 . S
C249 C250 1.373 . S
C249 C253 1.308 . S
C250 C249 1.373 . S
C250 C251 1.429 1_554 S
C250 H260 0.932 . S
C251 C248 1.358 . S
C251 C250 1.429 1_556 S
C251 H261 0.930 . S
C252 C248 1.332 . S
C252 C253 1.394 1_556 S
C252 H262 0.932 . S
C253 C249 1.308 . S
C253 C252 1.394 1_554 S
C253 H263 0.929 . S
C254 Tb225 2.764 1_655 S
C254 O238 1.239 . S
C254 O239 1.263 . S
C254 C248 1.504 . S
C255 O240 1.236 . S
C255 O241 1.257 . S
H256 C229 0.932 . S
H257 C230 0.930 . S
H258 C231 0.932 . S
H259 C232 0.929 . S
H260 C250 0.932 . S
H261 C251 0.930 . S
H262 C252 0.932 . S
H263 C253 0.929 . S
H264 C282 0.951 . S
H265 C284 0.951 . S
H266 C286 0.950 . S
H267 C287 0.950 . S
H268 C289 0.950 . S
H269 C292 0.950 . S
H270 C293 0.950 . S
H271 C295 0.950 . S
H272 C296 0.950 . S
H273 C297 0.951 . S
H274 C299 0.951 . S
H275 C301 0.950 . S
H276 C302 0.950 . S
H277 C304 0.950 . S
H278 C307 0.950 . S
H279 C308 0.950 . S
H280 C310 0.950 . S
H281 C311 0.950 . S
C282 H264 0.951 . S
C282 C283 1.361 1_565 S
C282 C284 1.388 . S
C283 C282 1.361 1_545 S
C283 C287 1.389 . S
C284 H265 0.951 . S
C284 C282 1.388 . S
C284 C285 1.373 . S
C285 C284 1.373 . S
C285 C286 1.404 1_565 S
C285 C288 1.500 . S
C286 H266 0.950 . S
C286 C285 1.404 1_545 S
C286 C287 1.374 . S
C287 H267 0.950 . S
C287 C283 1.389 . S
C287 C286 1.374 . S
C288 C285 1.500 . S
C288 C289 1.373 1_565 S
C288 C290 1.390 . S
C289 H268 0.950 . S
C289 C288 1.373 1_545 S
C289 C305 1.377 . S
C290 C288 1.390 . S
C290 C291 1.524 . S
C290 C304 1.377 . S
C291 C290 1.524 . S
C291 C292 1.397 . S
C291 C296 1.363 . S
C292 H269 0.950 . S
C292 C291 1.397 . S
C292 C293 1.334 . S
C293 H270 0.950 . S
C293 C292 1.334 . S
C293 C294 1.287 . S
C294 C293 1.287 . S
C294 C295 1.524 . S
C294 H313 0.913 . S
C295 H271 0.950 . S
C295 C294 1.524 . S
C295 C296 1.415 . S
C296 H272 0.950 . S
C296 C291 1.363 . S
C296 C295 1.415 . S
C297 H273 0.951 . S
C297 C298 1.366 . S
C297 C299 1.388 . S
C298 C297 1.366 . S
C298 C302 1.385 1_545 S
C299 H274 0.951 . S
C299 C297 1.388 . S
C299 C300 1.366 . S
C300 C299 1.366 . S
C300 C301 1.414 1_545 S
C300 C303 1.499 . S
C301 H275 0.950 . S
C301 C300 1.414 1_565 S
C301 C302 1.374 . S
C302 H276 0.950 . S
C302 C298 1.385 1_565 S
C302 C301 1.374 . S
C303 C300 1.499 . S
C303 C304 1.373 1_545 S
C303 C305 1.389 . S
C304 H277 0.950 . S
C304 C290 1.377 . S
C304 C303 1.373 1_565 S
C305 C289 1.377 . S
C305 C303 1.389 . S
C305 C306 1.524 . S
C306 C305 1.524 . S
C306 C307 1.397 . S
C306 C311 1.363 . S
C307 H278 0.950 . S
C307 C306 1.397 . S
C307 C308 1.334 . S
C308 H279 0.950 . S
C308 C307 1.334 . S
C308 C309 1.287 . S
C309 C308 1.287 . S
C309 C310 1.524 . S
C309 H312 0.999 . S
C310 H280 0.950 . S
C310 C309 1.524 . S
C310 C311 1.415 . S
C311 H281 0.950 . S
C311 C306 1.363 . S
C311 C310 1.415 . S
H312 C309 0.999 . S
H313 C294 0.913 . S
H314 C332 0.951 . S
H315 C334 0.951 . S
H316 C336 0.950 . S
H317 C337 0.950 . S
H318 C339 0.950 . S
H319 C342 0.950 . S
H320 C343 0.950 . S
H321 C345 0.950 . S
H322 C346 0.950 . S
H323 C347 0.951 . S
H324 C349 0.951 . S
H325 C351 0.950 . S
H326 C352 0.950 . S
H327 C354 0.950 . S
H328 C357 0.950 . S
H329 C358 0.950 . S
H330 C360 0.950 . S
H331 C361 0.950 . S
C332 H314 0.951 . S
C332 C333 1.366 . S
C332 C334 1.388 . S
C333 C332 1.366 . S
C333 C337 1.385 . S
C334 H315 0.951 . S
C334 C332 1.388 . S
C334 C335 1.366 . S
C335 C334 1.366 . S
C335 C336 1.414 . S
C335 C338 1.499 . S
C336 H316 0.950 . S
C336 C335 1.414 . S
C336 C337 1.374 . S
C337 H317 0.950 . S
C337 C333 1.385 . S
C337 C336 1.374 . S
C338 C335 1.499 . S
C338 C339 1.373 . S
C338 C340 1.389 . S
C339 H318 0.950 . S
C339 C338 1.373 . S
C339 C355 1.377 . S
C340 C338 1.389 . S
C340 C341 1.524 . S
C340 C354 1.377 . S
C341 C340 1.524 . S
C341 C342 1.397 . S
C341 C346 1.363 . S
C342 H319 0.950 . S
C342 C341 1.397 . S
C342 C343 1.334 . S
C343 H320 0.950 . S
C343 C342 1.334 . S
C343 C344 1.287 . S
C344 C343 1.287 . S
C344 C345 1.524 . S
C344 H363 0.913 . S
C345 H321 0.950 . S
C345 C344 1.524 . S
C345 C346 1.415 . S
C346 H322 0.950 . S
C346 C341 1.363 . S
C346 C345 1.415 . S
C347 H323 0.951 . S
C347 C348 1.366 . S
C347 C349 1.388 . S
C348 C347 1.366 . S
C348 C352 1.385 . S
C349 H324 0.951 . S
C349 C347 1.388 . S
C349 C350 1.366 . S
C350 C349 1.366 . S
C350 C351 1.414 . S
C350 C353 1.499 . S
C351 H325 0.950 . S
C351 C350 1.414 . S
C351 C352 1.374 . S
C352 H326 0.950 . S
C352 C348 1.385 . S
C352 C351 1.374 . S
C353 C350 1.499 . S
C353 C354 1.373 . S
C353 C355 1.389 . S
C354 H327 0.950 . S
C354 C340 1.377 . S
C354 C353 1.373 . S
C355 C339 1.377 . S
C355 C353 1.389 . S
C355 C356 1.524 . S
C356 C355 1.524 . S
C356 C357 1.397 . S
C356 C361 1.363 . S
C357 H328 0.950 . S
C357 C356 1.397 . S
C357 C358 1.334 . S
C358 H329 0.950 . S
C358 C357 1.334 . S
C358 C359 1.287 . S
C359 C358 1.287 . S
C359 C360 1.524 . S
C359 H362 0.999 1_556 S
C360 H330 0.950 . S
C360 C359 1.524 . S
C360 C361 1.415 . S
C361 H331 0.950 . S
C361 C356 1.363 . S
C361 C360 1.415 . S
H362 C359 0.999 1_554 S
H363 C344 0.913 . S
H364 C382 0.951 . S
H365 C384 0.951 . S
H366 C386 0.950 . S
H367 C387 0.950 . S
H368 C389 0.950 . S
H369 C392 0.950 . S
H370 C393 0.950 . S
H371 C395 0.950 . S
H372 C396 0.950 . S
H373 C397 0.951 . S
H374 C399 0.951 . S
H375 C401 0.950 . S
H376 C402 0.950 . S
H377 C404 0.950 . S
H378 C407 0.950 . S
H379 C408 0.950 . S
H380 C410 0.950 . S
H381 C411 0.950 . S
C382 H364 0.951 . S
C382 C383 1.366 . S
C382 C384 1.388 . S
C383 C382 1.366 . S
C383 C387 1.385 . S
C384 H365 0.951 . S
C384 C382 1.388 . S
C384 C385 1.366 . S
C385 C384 1.366 . S
C385 C386 1.414 . S
C385 C388 1.499 . S
C386 H366 0.950 . S
C386 C385 1.414 . S
C386 C387 1.374 . S
C387 H367 0.950 . S
C387 C383 1.385 . S
C387 C386 1.374 . S
C388 C385 1.499 . S
C388 C389 1.373 . S
C388 C390 1.389 . S
C389 H368 0.950 . S
C389 C388 1.373 . S
C389 C405 1.377 . S
C390 C388 1.389 . S
C390 C391 1.524 . S
C390 C404 1.377 . S
C391 C390 1.524 . S
C391 C392 1.397 . S
C391 C396 1.363 . S
C392 H369 0.950 . S
C392 C391 1.397 . S
C392 C393 1.334 . S
C393 H370 0.950 . S
C393 C392 1.334 . S
C393 C394 1.287 . S
C394 C393 1.287 . S
C394 C395 1.524 . S
C394 H413 0.913 . S
C395 H371 0.950 . S
C395 C394 1.524 . S
C395 C396 1.415 . S
C396 H372 0.950 . S
C396 C391 1.363 . S
C396 C395 1.415 . S
C397 H373 0.951 . S
C397 C398 1.366 . S
C397 C399 1.388 . S
C398 C397 1.366 . S
C398 C402 1.385 . S
C399 H374 0.951 . S
C399 C397 1.388 . S
C399 C400 1.366 . S
C400 C399 1.366 . S
C400 C401 1.414 . S
C400 C403 1.499 . S
C401 H375 0.950 . S
C401 C400 1.414 . S
C401 C402 1.374 . S
C402 H376 0.950 . S
C402 C398 1.385 . S
C402 C401 1.374 . S
C403 C400 1.499 . S
C403 C404 1.373 . S
C403 C405 1.389 . S
C404 H377 0.950 . S
C404 C390 1.377 . S
C404 C403 1.373 . S
C405 C389 1.377 . S
C405 C403 1.389 . S
C405 C406 1.524 . S
C406 C405 1.524 . S
C406 C407 1.397 . S
C406 C411 1.363 . S
C407 H378 0.950 . S
C407 C406 1.397 . S
C407 C408 1.334 . S
C408 H379 0.950 . S
C408 C407 1.334 . S
C408 C409 1.287 . S
C409 C408 1.287 . S
C409 C410 1.524 . S
C409 H412 0.999 . S
C410 H380 0.950 . S
C410 C409 1.524 . S
C410 C411 1.415 . S
C411 H381 0.950 . S
C411 C406 1.363 . S
C411 C410 1.415 . S
H412 C409 0.999 . S
H413 C394 0.913 . S
H414 C432 0.951 . S
H415 C434 0.951 . S
H416 C436 0.950 . S
H417 C437 0.950 . S
H418 C439 0.950 . S
H419 C442 0.950 . S
H420 C443 0.950 . S
H421 C445 0.950 . S
H422 C446 0.950 . S
H423 C447 0.951 . S
H424 C449 0.951 . S
H425 C451 0.950 . S
H426 C452 0.950 . S
H427 C454 0.950 . S
H428 C457 0.950 . S
H429 C458 0.950 . S
H430 C460 0.950 . S
H431 C461 0.950 . S
C432 H414 0.951 . S
C432 C433 1.366 . S
C432 C434 1.388 . S
C433 C432 1.366 . S
C433 C437 1.385 . S
C434 H415 0.951 . S
C434 C432 1.388 . S
C434 C435 1.366 . S
C435 C434 1.366 . S
C435 C436 1.414 . S
C435 C438 1.499 . S
C436 H416 0.950 . S
C436 C435 1.414 . S
C436 C437 1.374 . S
C437 H417 0.950 . S
C437 C433 1.385 . S
C437 C436 1.374 . S
C438 C435 1.499 . S
C438 C439 1.373 . S
C438 C440 1.389 . S
C439 H418 0.950 . S
C439 C438 1.373 . S
C439 C455 1.377 . S
C440 C438 1.389 . S
C440 C441 1.524 . S
C440 C454 1.377 . S
C441 C440 1.524 . S
C441 C442 1.397 . S
C441 C446 1.363 . S
C442 H419 0.950 . S
C442 C441 1.397 . S
C442 C443 1.334 . S
C443 H420 0.950 . S
C443 C442 1.334 . S
C443 C444 1.287 . S
C444 C443 1.287 . S
C444 C445 1.524 . S
C444 H463 0.913 . S
C445 H421 0.950 . S
C445 C444 1.524 . S
C445 C446 1.415 . S
C446 H422 0.950 . S
C446 C441 1.363 . S
C446 C445 1.415 . S
C447 H423 0.951 . S
C447 C448 1.366 . S
C447 C449 1.388 . S
C448 C447 1.366 . S
C448 C452 1.385 . S
C449 H424 0.951 . S
C449 C447 1.388 . S
C449 C450 1.366 . S
C450 C449 1.366 . S
C450 C451 1.414 . S
C450 C453 1.499 . S
C451 H425 0.950 . S
C451 C450 1.414 . S
C451 C452 1.374 . S
C452 H426 0.950 . S
C452 C448 1.385 . S
C452 C451 1.374 . S
C453 C450 1.499 . S
C453 C454 1.373 . S
C453 C455 1.389 . S
C454 H427 0.950 . S
C454 C440 1.377 . S
C454 C453 1.373 . S
C455 C439 1.377 . S
C455 C453 1.389 . S
C455 C456 1.524 1_455 S
C456 C455 1.524 1_655 S
C456 C457 1.397 . S
C456 C461 1.363 . S
C457 H428 0.950 . S
C457 C456 1.397 . S
C457 C458 1.334 . S
C458 H429 0.950 . S
C458 C457 1.334 . S
C458 C459 1.287 . S
C459 C458 1.287 . S
C459 C460 1.524 . S
C459 H462 0.999 . S
C460 H430 0.950 . S
C460 C459 1.524 . S
C460 C461 1.415 . S
C461 H431 0.950 . S
C461 C456 1.363 . S
C461 C460 1.415 . S
H462 C459 0.999 . S
H463 C444 0.913 . S
H464 C482 0.951 . S
H465 C484 0.951 . S
H466 C486 0.950 . S
H467 C487 0.950 . S
H468 C489 0.950 . S
H469 C492 0.950 . S
H470 C493 0.950 . S
H471 C495 0.950 . S
H472 C496 0.923 1_565 S
H473 C497 0.951 . S
H474 C499 0.951 . S
H475 C501 0.950 . S
H476 C502 0.950 . S
H477 C504 0.950 . S
H478 C507 0.950 . S
H479 C508 0.950 . S
H480 C510 0.950 . S
H481 C511 0.982 . S
C482 H464 0.951 . S
C482 C483 1.364 . S
C482 C484 1.388 . S
C483 C482 1.364 . S
C483 C487 1.386 1_565 S
C484 H465 0.951 . S
C484 C482 1.388 . S
C484 C485 1.347 1_565 S
C485 C484 1.347 1_545 S
C485 C486 1.429 . S
C485 C488 1.497 . S
C486 H466 0.950 . S
C486 C485 1.429 . S
C486 C487 1.374 . S
C487 H467 0.950 . S
C487 C483 1.386 1_545 S
C487 C486 1.374 . S
C488 C485 1.497 . S
C488 C489 1.365 1_545 S
C488 C490 1.401 . S
C489 H468 0.950 . S
C489 C488 1.365 1_565 S
C489 C505 1.377 . S
C490 C488 1.401 . S
C490 C491 1.524 . S
C490 C504 1.377 . S
C491 C490 1.524 . S
C491 C492 1.397 . S
C491 C496 1.363 . S
C492 H469 0.950 . S
C492 C491 1.397 . S
C492 C493 1.334 . S
C493 H470 0.950 . S
C493 C492 1.334 . S
C493 C494 1.287 . S
C494 C493 1.287 . S
C494 C495 1.524 . S
C494 H513 0.913 . S
C495 H471 0.950 . S
C495 C494 1.524 . S
C495 C496 1.415 . S
C496 H472 0.923 1_545 S
C496 C491 1.363 . S
C496 C495 1.415 . S
C497 H473 0.951 . S
C497 C498 1.366 1_545 S
C497 C499 1.388 . S
C498 C497 1.366 1_565 S
C498 C502 1.385 . S
C499 H474 0.951 . S
C499 C497 1.388 . S
C499 C500 1.366 1_545 S
C500 C499 1.366 1_565 S
C500 C501 1.414 1_556 S
C500 C503 1.499 1_556 S
C501 H475 0.950 . S
C501 C500 1.414 1_554 S
C501 C502 1.374 1_554 S
C502 H476 0.950 . S
C502 C498 1.385 . S
C502 C501 1.374 1_556 S
C503 C500 1.499 1_554 S
C503 C504 1.373 1_565 S
C503 C505 1.389 . S
C504 H477 0.950 . S
C504 C490 1.377 . S
C504 C503 1.373 1_545 S
C505 C489 1.377 . S
C505 C503 1.389 . S
C505 C506 1.524 1_554 S
C506 C505 1.524 1_556 S
C506 C507 1.397 . S
C506 C511 1.363 . S
C507 H478 0.950 . S
C507 C506 1.397 . S
C507 C508 1.334 . S
C508 H479 0.950 . S
C508 C507 1.334 . S
C508 C509 1.287 . S
C509 C508 1.287 . S
C509 C510 1.524 . S
C509 H512 0.999 . S
C510 H480 0.950 . S
C510 C509 1.524 . S
C510 C511 1.415 . S
C511 H481 0.982 . S
C511 C506 1.363 . S
C511 C510 1.415 . S
H512 C509 0.999 . S
H513 C494 0.913 . S
H514 C532 0.951 . S
H515 C534 0.951 . S
H516 C536 0.950 . S
H517 C537 0.950 . S
H518 C539 0.950 . S
H519 C542 0.950 . S
H520 C543 0.950 . S
H521 C545 0.950 . S
H522 C546 0.950 . S
H523 C547 0.951 . S
H524 C549 0.951 . S
H525 C551 0.950 . S
H526 C552 0.950 . S
H527 C554 0.950 . S
H528 C557 0.950 . S
H529 C558 0.950 . S
H530 C560 0.950 . S
H531 C561 0.950 . S
C532 H514 0.951 . S
C532 C533 1.366 . S
C532 C534 1.388 . S
C533 C532 1.366 . S
C533 C537 1.385 . S
C534 H515 0.951 . S
C534 C532 1.388 . S
C534 C535 1.366 . S
C535 C534 1.366 . S
C535 C536 1.414 . S
C535 C538 1.499 . S
C536 H516 0.950 . S
C536 C535 1.414 . S
C536 C537 1.374 . S
C537 H517 0.950 . S
C537 C533 1.385 . S
C537 C536 1.374 . S
C538 C535 1.499 . S
C538 C539 1.373 . S
C538 C540 1.389 . S
C539 H518 0.950 . S
C539 C538 1.373 . S
C539 C555 1.377 . S
C540 C538 1.389 . S
C540 C541 1.524 1_556 S
C540 C554 1.377 . S
C541 C540 1.524 1_554 S
C541 C542 1.397 . S
C541 C546 1.363 . S
C542 H519 0.950 . S
C542 C541 1.397 . S
C542 C543 1.334 . S
C543 H520 0.950 . S
C543 C542 1.334 . S
C543 C544 1.287 . S
C544 C543 1.287 . S
C544 C545 1.524 . S
C544 H563 0.913 . S
C545 H521 0.950 . S
C545 C544 1.524 . S
C545 C546 1.415 . S
C546 H522 0.950 . S
C546 C541 1.363 . S
C546 C545 1.415 . S
C547 H523 0.951 . S
C547 C548 1.366 . S
C547 C549 1.388 . S
C548 C547 1.366 . S
C548 C552 1.385 . S
C549 H524 0.951 . S
C549 C547 1.388 . S
C549 C550 1.366 . S
C550 C549 1.366 . S
C550 C551 1.414 . S
C550 C553 1.499 . S
C551 H525 0.950 . S
C551 C550 1.414 . S
C551 C552 1.374 . S
C552 H526 0.950 . S
C552 C548 1.385 . S
C552 C551 1.374 . S
C553 C550 1.499 . S
C553 C554 1.373 . S
C553 C555 1.389 . S
C554 H527 0.950 . S
C554 C540 1.377 . S
C554 C553 1.373 . S
C555 C539 1.377 . S
C555 C553 1.389 . S
C555 C556 1.524 . S
C556 C555 1.524 . S
C556 C557 1.397 . S
C556 C561 1.363 . S
C557 H528 0.950 . S
C557 C556 1.397 . S
C557 C558 1.334 . S
C558 H529 0.950 . S
C558 C557 1.334 . S
C558 C559 1.287 . S
C559 C558 1.287 . S
C559 C560 1.524 . S
C559 H562 0.999 . S
C560 H530 0.950 . S
C560 C559 1.524 . S
C560 C561 1.415 . S
C561 H531 0.950 . S
C561 C556 1.363 . S
C561 C560 1.415 . S
H562 C559 0.999 . S
H563 C544 0.913 . S
H564 C582 0.951 . S
H565 C584 0.951 . S
H566 C586 0.950 . S
H567 C587 0.950 . S
H568 C589 0.950 . S
H569 C592 0.950 . S
H570 C593 0.950 . S
H571 C595 0.950 . S
H572 C596 0.950 . S
H573 C597 0.951 . S
H574 C599 0.951 . S
H575 C601 0.950 . S
H576 C602 0.950 . S
H577 C604 0.950 . S
H578 C607 0.950 . S
H579 C608 0.950 . S
H580 C610 0.950 . S
H581 C611 0.950 1_554 S
C582 H564 0.951 . S
C582 C583 1.366 . S
C582 C584 1.388 . S
C583 C582 1.366 . S
C583 C587 1.385 . S
C584 H565 0.951 . S
C584 C582 1.388 . S
C584 C585 1.366 . S
C585 C584 1.366 . S
C585 C586 1.414 . S
C585 C588 1.499 . S
C586 H566 0.950 . S
C586 C585 1.414 . S
C586 C587 1.374 . S
C587 H567 0.950 . S
C587 C583 1.385 . S
C587 C586 1.374 . S
C588 C585 1.499 . S
C588 C589 1.373 . S
C588 C590 1.389 . S
C589 H568 0.950 . S
C589 C588 1.373 . S
C589 C605 1.377 . S
C590 C588 1.389 . S
C590 C591 1.524 . S
C590 C604 1.377 . S
C591 C590 1.524 . S
C591 C592 1.397 . S
C591 C596 1.363 . S
C592 H569 0.950 . S
C592 C591 1.397 . S
C592 C593 1.334 . S
C593 H570 0.950 . S
C593 C592 1.334 . S
C593 C594 1.287 . S
C594 C593 1.287 . S
C594 C595 1.524 . S
C594 H613 0.913 . S
C595 H571 0.950 . S
C595 C594 1.524 . S
C595 C596 1.415 . S
C596 H572 0.950 . S
C596 C591 1.363 . S
C596 C595 1.415 . S
C597 H573 0.951 . S
C597 C598 1.366 . S
C597 C599 1.388 . S
C598 C597 1.366 . S
C598 C602 1.385 . S
C599 H574 0.951 . S
C599 C597 1.388 . S
C599 C600 1.366 . S
C600 C599 1.366 . S
C600 C601 1.414 . S
C600 C603 1.499 1_556 S
C601 H575 0.950 . S
C601 C600 1.414 . S
C601 C602 1.374 . S
C602 H576 0.950 . S
C602 C598 1.385 . S
C602 C601 1.374 . S
C603 C600 1.499 1_554 S
C603 C604 1.373 . S
C603 C605 1.389 . S
C604 H577 0.950 . S
C604 C590 1.377 . S
C604 C603 1.373 . S
C605 C589 1.377 . S
C605 C603 1.389 . S
C605 C606 1.524 1_554 S
C606 C605 1.524 1_556 S
C606 C607 1.397 . S
C606 C611 1.363 . S
C607 H578 0.950 . S
C607 C606 1.397 . S
C607 C608 1.334 . S
C608 H579 0.950 . S
C608 C607 1.334 . S
C608 C609 1.287 . S
C609 C608 1.287 . S
C609 C610 1.524 . S
C609 H612 0.999 . S
C610 H580 0.950 . S
C610 C609 1.524 . S
C610 C611 1.415 . S
C611 H581 0.950 1_556 S
C611 C606 1.363 . S
C611 C610 1.415 . S
H612 C609 0.999 . S
H613 C594 0.913 . S
H614 C632 0.951 . S
H615 C634 0.951 . S
H616 C636 0.950 . S
H617 C637 0.950 . S
H618 C639 0.950 . S
H619 C642 0.950 . S
H620 C643 0.950 . S
H621 C645 0.950 . S
H622 C646 0.950 . S
H623 C647 0.951 . S
H624 C649 0.951 1_554 S
H625 C651 0.950 . S
H626 C652 0.950 . S
H627 C654 0.950 1_556 S
H628 C657 0.950 . S
H629 C658 0.950 . S
H630 C660 0.950 . S
H631 C661 0.950 . S
C632 H614 0.951 . S
C632 C633 1.366 . S
C632 C634 1.388 . S
C633 C632 1.366 . S
C633 C637 1.385 . S
C634 H615 0.951 . S
C634 C632 1.388 . S
C634 C635 1.366 . S
C635 C634 1.366 . S
C635 C636 1.414 . S
C635 C638 1.499 . S
C636 H616 0.950 . S
C636 C635 1.414 . S
C636 C637 1.374 . S
C637 H617 0.950 . S
C637 C633 1.385 . S
C637 C636 1.374 . S
C638 C635 1.499 . S
C638 C639 1.373 1_655 S
C638 C640 1.389 . S
C639 H618 0.950 . S
C639 C638 1.373 1_455 S
C639 C655 1.377 . S
C640 C638 1.389 . S
C640 C641 1.524 . S
C640 C654 1.377 . S
C641 C640 1.524 . S
C641 C642 1.397 . S
C641 C646 1.363 1_554 S
C642 H619 0.950 . S
C642 C641 1.397 . S
C642 C643 1.334 . S
C643 H620 0.950 . S
C643 C642 1.334 . S
C643 C644 1.287 . S
C644 C643 1.287 . S
C644 C645 1.524 1_554 S
C644 H663 0.913 . S
C645 H621 0.950 . S
C645 C644 1.524 1_556 S
C645 C646 1.415 . S
C646 H622 0.950 . S
C646 C641 1.363 1_556 S
C646 C645 1.415 . S
C647 H623 0.951 . S
C647 C648 1.366 . S
C647 C649 1.388 . S
C648 C647 1.366 . S
C648 C652 1.385 . S
C649 H624 0.951 1_556 S
C649 C647 1.388 . S
C649 C650 1.366 . S
C650 C649 1.366 . S
C650 C651 1.414 . S
C650 C653 1.499 1_556 S
C651 H625 0.950 . S
C651 C650 1.414 . S
C651 C652 1.374 . S
C652 H626 0.950 . S
C652 C648 1.385 . S
C652 C651 1.374 . S
C653 C650 1.499 1_554 S
C653 C654 1.373 1_455 S
C653 C655 1.389 . S
C654 H627 0.950 1_554 S
C654 C640 1.377 . S
C654 C653 1.373 1_655 S
C655 C639 1.377 . S
C655 C653 1.389 . S
C655 C656 1.524 . S
C656 C655 1.524 . S
C656 C657 1.397 . S
C656 C661 1.363 . S
C657 H628 0.950 . S
C657 C656 1.397 . S
C657 C658 1.334 . S
C658 H629 0.950 . S
C658 C657 1.334 . S
C658 C659 1.287 . S
C659 C658 1.287 . S
C659 C660 1.524 . S
C659 H662 0.999 . S
C660 H630 0.950 . S
C660 C659 1.524 . S
C660 C661 1.415 . S
C661 H631 0.950 . S
C661 C656 1.363 . S
C661 C660 1.415 . S
H662 C659 0.999 . S
H663 C644 0.913 . S
H664 C682 0.951 . S
H665 C684 0.951 . S
H666 C686 0.950 . S
H667 C687 0.950 . S
H668 C689 0.950 1_655 S
H669 C692 0.950 . S
H670 C693 0.950 . S
H671 C695 0.950 . S
H672 C696 0.950 . S
H673 C697 0.951 . S
H674 C699 0.951 . S
H675 C701 0.950 . S
H676 C702 0.950 . S
H677 C704 0.950 . S
H678 C707 0.950 . S
H679 C708 0.950 . S
H680 C710 0.950 . S
H681 C711 0.950 . S
C682 H664 0.951 . S
C682 C683 1.366 . S
C682 C684 1.388 . S
C683 C682 1.366 . S
C683 C687 1.385 . S
C684 H665 0.951 . S
C684 C682 1.388 . S
C684 C685 1.366 . S
C685 C684 1.366 . S
C685 C686 1.414 . S
C685 C688 1.499 . S
C686 H666 0.950 . S
C686 C685 1.414 . S
C686 C687 1.374 . S
C687 H667 0.950 . S
C687 C683 1.385 . S
C687 C686 1.374 . S
C688 C685 1.499 . S
C688 C689 1.373 . S
C688 C690 1.389 . S
C689 H668 0.950 1_455 S
C689 C688 1.373 . S
C689 C705 1.388 . S
C690 C688 1.389 . S
C690 C691 1.524 . S
C690 C704 1.377 . S
C691 C690 1.524 . S
C691 C692 1.397 . S
C691 C696 1.363 . S
C692 H669 0.950 . S
C692 C691 1.397 . S
C692 C693 1.334 . S
C693 H670 0.950 . S
C693 C692 1.334 . S
C693 C694 1.287 . S
C694 C693 1.287 . S
C694 C695 1.524 . S
C694 H713 0.913 . S
C695 H671 0.950 . S
C695 C694 1.524 . S
C695 C696 1.415 . S
C696 H672 0.950 . S
C696 C691 1.363 . S
C696 C695 1.415 . S
C697 H673 0.951 . S
C697 C698 1.366 . S
C697 C699 1.388 . S
C698 C697 1.366 . S
C698 C702 1.385 1_655 S
C699 H674 0.951 . S
C699 C697 1.388 . S
C699 C700 1.366 1_655 S
C700 C699 1.366 1_455 S
C700 C701 1.414 . S
C700 C703 1.499 . S
C701 H675 0.950 . S
C701 C700 1.414 . S
C701 C702 1.374 . S
C702 H676 0.950 . S
C702 C698 1.385 1_455 S
C702 C701 1.374 . S
C703 C700 1.499 . S
C703 C704 1.373 . S
C703 C705 1.418 . S
C704 H677 0.950 . S
C704 C690 1.377 . S
C704 C703 1.373 . S
C705 C689 1.388 . S
C705 C703 1.418 . S
C705 C706 1.487 1_455 S
C706 C705 1.487 1_655 S
C706 C707 1.397 . S
C706 C711 1.363 . S
C707 H678 0.950 . S
C707 C706 1.397 . S
C707 C708 1.334 . S
C708 H679 0.950 . S
C708 C707 1.334 . S
C708 C709 1.287 . S
C709 C708 1.287 . S
C709 C710 1.524 . S
C709 H712 0.999 . S
C710 H680 0.950 . S
C710 C709 1.524 . S
C710 C711 1.415 . S
C711 H681 0.950 . S
C711 C706 1.363 . S
C711 C710 1.415 . S
H712 C709 0.999 . S
H713 C694 0.913 . S
H714 C732 0.951 . S
H715 C734 0.951 . S
H716 C736 0.950 . S
H717 C737 0.950 . S
H718 C739 0.950 . S
H719 C742 0.950 . S
H720 C743 0.950 . S
H721 C745 0.950 . S
H722 C746 0.950 . S
H723 C747 0.951 . S
H724 C749 0.951 . S
H725 C751 0.950 . S
H726 C752 0.993 . S
H727 C754 0.950 . S
H728 C757 0.950 . S
H729 C758 0.950 . S
H730 C760 0.950 . S
H731 C761 0.950 . S
C732 H714 0.951 . S
C732 C733 1.366 . S
C732 C734 1.388 . S
C733 C732 1.366 . S
C733 C737 1.385 1_545 S
C734 H715 0.951 . S
C734 C732 1.388 . S
C734 C735 1.366 1_545 S
C735 C734 1.366 1_565 S
C735 C736 1.414 . S
C735 C738 1.499 . S
C736 H716 0.950 . S
C736 C735 1.414 . S
C736 C737 1.374 . S
C737 H717 0.950 . S
C737 C733 1.385 1_565 S
C737 C736 1.374 . S
C738 C735 1.499 . S
C738 C739 1.373 . S
C738 C740 1.389 1_565 S
C739 H718 0.950 . S
C739 C738 1.373 . S
C739 C755 1.377 . S
C740 C738 1.389 1_545 S
C740 C741 1.524 . S
C740 C754 1.377 . S
C741 C740 1.524 . S
C741 C742 1.397 . S
C741 C746 1.363 . S
C742 H719 0.950 . S
C742 C741 1.397 . S
C742 C743 1.334 . S
C743 H720 0.950 . S
C743 C742 1.334 . S
C743 C744 1.287 . S
C744 C743 1.287 . S
C744 C745 1.524 . S
C744 H763 0.913 . S
C745 H721 0.950 . S
C745 C744 1.524 . S
C745 C746 1.415 . S
C746 H722 0.950 . S
C746 C741 1.363 . S
C746 C745 1.415 . S
C747 H723 0.951 . S
C747 C748 1.366 . S
C747 C749 1.388 . S
C748 C747 1.366 . S
C748 C752 1.329 1_565 S
C749 H724 0.951 . S
C749 C747 1.388 . S
C749 C750 1.366 . S
C750 C749 1.366 . S
C750 C751 1.414 1_565 S
C750 C753 1.499 . S
C751 H725 0.950 . S
C751 C750 1.414 1_545 S
C751 C752 1.389 . S
C752 H726 0.993 . S
C752 C748 1.329 1_545 S
C752 C751 1.389 . S
C753 C750 1.499 . S
C753 C754 1.373 1_565 S
C753 C755 1.389 . S
C754 H727 0.950 . S
C754 C740 1.377 . S
C754 C753 1.373 1_545 S
C755 C739 1.377 . S
C755 C753 1.389 . S
C755 C756 1.524 . S
C756 C755 1.524 . S
C756 C757 1.397 . S
C756 C761 1.363 . S
C757 H728 0.950 . S
C757 C756 1.397 . S
C757 C758 1.334 . S
C758 H729 0.950 . S
C758 C757 1.334 . S
C758 C759 1.287 . S
C759 C758 1.287 . S
C759 C760 1.524 . S
C759 H762 0.999 . S
C760 H730 0.950 . S
C760 C759 1.524 . S
C760 C761 1.415 . S
C761 H731 0.950 . S
C761 C756 1.363 . S
C761 C760 1.415 . S
H762 C759 0.999 . S
H763 C744 0.913 . S
H764 C782 0.951 . S
H765 C784 0.951 . S
H766 C786 0.950 . S
H767 C787 0.950 . S
H768 C789 0.950 . S
H769 C792 0.950 . S
H770 C793 0.950 . S
H771 C795 0.950 . S
H772 C796 0.950 . S
H773 C797 0.951 . S
H774 C799 0.951 . S
H775 C801 0.950 . S
H776 C802 0.950 . S
H777 C804 0.950 . S
H778 C807 0.950 . S
H779 C808 0.950 . S
H780 C810 0.950 . S
H781 C811 0.950 . S
C782 H764 0.951 . S
C782 C783 1.366 . S
C782 C784 1.388 . S
C783 C782 1.366 . S
C783 C787 1.385 . S
C784 H765 0.951 . S
C784 C782 1.388 . S
C784 C785 1.366 . S
C785 C784 1.366 . S
C785 C786 1.414 . S
C785 C788 1.499 . S
C786 H766 0.950 . S
C786 C785 1.414 . S
C786 C787 1.374 . S
C787 H767 0.950 . S
C787 C783 1.385 . S
C787 C786 1.374 . S
C788 C785 1.499 . S
C788 C789 1.373 . S
C788 C790 1.389 . S
C789 H768 0.950 . S
C789 C788 1.373 . S
C789 C805 1.377 . S
C790 C788 1.389 . S
C790 C791 1.524 . S
C790 C804 1.377 . S
C791 C790 1.524 . S
C791 C792 1.397 . S
C791 C796 1.363 . S
C792 H769 0.950 . S
C792 C791 1.397 . S
C792 C793 1.334 . S
C793 H770 0.950 . S
C793 C792 1.334 . S
C793 C794 1.287 . S
C794 C793 1.287 . S
C794 C795 1.524 . S
C794 H813 0.913 . S
C795 H771 0.950 . S
C795 C794 1.524 . S
C795 C796 1.415 . S
C796 H772 0.950 . S
C796 C791 1.363 . S
C796 C795 1.415 . S
C797 H773 0.951 . S
C797 C798 1.366 . S
C797 C799 1.388 . S
C798 C797 1.366 . S
C798 C802 1.385 . S
C799 H774 0.951 . S
C799 C797 1.388 . S
C799 C800 1.366 . S
C800 C799 1.366 . S
C800 C801 1.414 . S
C800 C803 1.499 . S
C801 H775 0.950 . S
C801 C800 1.414 . S
C801 C802 1.374 . S
C802 H776 0.950 . S
C802 C798 1.385 . S
C802 C801 1.374 . S
C803 C800 1.499 . S
C803 C804 1.373 . S
C803 C805 1.389 . S
C804 H777 0.950 . S
C804 C790 1.377 . S
C804 C803 1.373 . S
C805 C789 1.377 . S
C805 C803 1.389 . S
C805 C806 1.524 . S
C806 C805 1.524 . S
C806 C807 1.397 . S
C806 C811 1.363 . S
C807 H778 0.950 . S
C807 C806 1.397 . S
C807 C808 1.334 . S
C808 H779 0.950 . S
C808 C807 1.334 . S
C808 C809 1.287 . S
C809 C808 1.287 . S
C809 C810 1.524 . S
C809 H812 0.999 . S
C810 H780 0.950 . S
C810 C809 1.524 . S
C810 C811 1.415 . S
C811 H781 0.950 . S
C811 C806 1.363 . S
C811 C810 1.415 . S
H812 C809 0.999 . S
H813 C794 0.913 . S
H814 C832 0.951 . S
H815 C834 0.951 . S
H816 C836 0.950 . S
H817 C837 0.950 . S
H818 C839 0.950 . S
H819 C842 0.950 . S
H820 C843 0.950 . S
H821 C845 0.950 . S
H822 C846 0.950 . S
H823 C847 0.951 . S
H824 C849 0.951 . S
H825 C851 0.950 . S
H826 C852 0.950 . S
H827 C854 0.950 . S
H828 C857 0.950 . S
H829 C858 0.950 . S
H830 C860 0.950 . S
H831 C861 0.950 . S
C832 H814 0.951 . S
C832 C833 1.366 . S
C832 C834 1.388 . S
C833 C832 1.366 . S
C833 C837 1.385 . S
C834 H815 0.951 . S
C834 C832 1.388 . S
C834 C835 1.366 . S
C835 C834 1.366 . S
C835 C836 1.414 . S
C835 C838 1.499 . S
C836 H816 0.950 . S
C836 C835 1.414 . S
C836 C837 1.374 . S
C837 H817 0.950 . S
C837 C833 1.385 . S
C837 C836 1.374 . S
C838 C835 1.499 . S
C838 C839 1.373 . S
C838 C840 1.389 . S
C839 H818 0.950 . S
C839 C838 1.373 . S
C839 C855 1.377 . S
C840 C838 1.389 . S
C840 C841 1.524 . S
C840 C854 1.377 . S
C841 C840 1.524 . S
C841 C842 1.397 . S
C841 C846 1.363 . S
C842 H819 0.950 . S
C842 C841 1.397 . S
C842 C843 1.334 . S
C843 H820 0.950 . S
C843 C842 1.334 . S
C843 C844 1.287 . S
C844 C843 1.287 . S
C844 C845 1.524 . S
C844 H863 0.913 . S
C845 H821 0.950 . S
C845 C844 1.524 . S
C845 C846 1.415 . S
C846 H822 0.950 . S
C846 C841 1.363 . S
C846 C845 1.415 . S
C847 H823 0.951 . S
C847 C848 1.366 . S
C847 C849 1.388 . S
C848 C847 1.366 . S
C848 C852 1.385 . S
C849 H824 0.951 . S
C849 C847 1.388 . S
C849 C850 1.366 . S
C850 C849 1.366 . S
C850 C851 1.414 . S
C850 C853 1.499 . S
C851 H825 0.950 . S
C851 C850 1.414 . S
C851 C852 1.374 . S
C852 H826 0.950 . S
C852 C848 1.385 . S
C852 C851 1.374 . S
C853 C850 1.499 . S
C853 C854 1.373 . S
C853 C855 1.389 . S
C854 H827 0.950 . S
C854 C840 1.377 . S
C854 C853 1.373 . S
C855 C839 1.377 . S
C855 C853 1.389 . S
C855 C856 1.524 . S
C856 C855 1.524 . S
C856 C857 1.397 . S
C856 C861 1.363 . S
C857 H828 0.950 . S
C857 C856 1.397 . S
C857 C858 1.334 . S
C858 H829 0.950 . S
C858 C857 1.334 . S
C858 C859 1.287 . S
C859 C858 1.287 . S
C859 C860 1.524 . S
C859 H862 0.999 . S
C860 H830 0.950 . S
C860 C859 1.524 . S
C860 C861 1.415 . S
C861 H831 0.950 . S
C861 C856 1.363 . S
C861 C860 1.415 . S
H862 C859 0.999 . S
H863 C844 0.913 . S
H864 C882 0.951 . S
H865 C884 0.951 . S
H866 C886 0.950 . S
H867 C887 0.950 . S
H868 C889 0.950 . S
H869 C892 0.950 . S
H870 C893 0.950 . S
H871 C895 0.950 . S
H872 C896 0.950 . S
H873 C897 0.951 . S
H874 C899 0.951 . S
H875 C901 0.950 . S
H876 C902 0.950 . S
H877 C904 0.950 . S
H878 C907 0.950 . S
H879 C908 0.950 . S
H880 C910 0.950 . S
H881 C911 0.950 . S
C882 H864 0.951 . S
C882 C883 1.366 . S
C882 C884 1.388 . S
C883 C882 1.366 . S
C883 C887 1.385 1_655 S
C884 H865 0.951 . S
C884 C882 1.388 . S
C884 C885 1.350 1_655 S
C885 C884 1.350 1_455 S
C885 C886 1.425 . S
C885 C888 1.505 . S
C886 H866 0.950 . S
C886 C885 1.425 . S
C886 C887 1.374 . S
C887 H867 0.950 . S
C887 C883 1.385 1_455 S
C887 C886 1.374 . S
C888 C885 1.505 . S
C888 C889 1.373 . S
C888 C890 1.389 1_455 S
C889 H868 0.950 . S
C889 C888 1.373 . S
C889 C905 1.377 . S
C890 C888 1.389 1_655 S
C890 C891 1.524 . S
C890 C904 1.377 . S
C891 C890 1.524 . S
C891 C892 1.397 . S
C891 C896 1.363 . S
C892 H869 0.950 . S
C892 C891 1.397 . S
C892 C893 1.334 . S
C893 H870 0.950 . S
C893 C892 1.334 . S
C893 C894 1.287 . S
C894 C893 1.287 . S
C894 C895 1.524 . S
C894 H913 0.913 . S
C895 H871 0.950 . S
C895 C894 1.524 . S
C895 C896 1.415 . S
C896 H872 0.950 . S
C896 C891 1.363 . S
C896 C895 1.415 . S
C897 H873 0.951 . S
C897 C898 1.366 1_556 S
C897 C899 1.388 1_556 S
C898 C897 1.366 1_554 S
C898 C902 1.385 . S
C899 H874 0.951 . S
C899 C897 1.388 1_554 S
C899 C900 1.366 . S
C900 C899 1.366 . S
C900 C901 1.414 . S
C900 C903 1.499 . S
C901 H875 0.950 . S
C901 C900 1.414 . S
C901 C902 1.374 . S
C902 H876 0.950 . S
C902 C898 1.385 . S
C902 C901 1.374 . S
C903 C900 1.499 . S
C903 C904 1.373 1_455 S
C903 C905 1.389 . S
C904 H877 0.950 . S
C904 C890 1.377 . S
C904 C903 1.373 1_655 S
C905 C889 1.377 . S
C905 C903 1.389 . S
C905 C906 1.524 . S
C906 C905 1.524 . S
C906 C907 1.397 . S
C906 C911 1.363 . S
C907 H878 0.950 . S
C907 C906 1.397 . S
C907 C908 1.334 . S
C908 H879 0.950 . S
C908 C907 1.334 . S
C908 C909 1.287 . S
C909 C908 1.287 . S
C909 C910 1.524 . S
C909 H912 0.999 . S
C910 H880 0.950 . S
C910 C909 1.524 . S
C910 C911 1.415 . S
C911 H881 0.950 . S
C911 C906 1.363 . S
C911 C910 1.415 . S
H912 C909 0.999 . S
H913 C894 0.913 . S
H914 C932 0.951 . S
H915 C934 0.951 . S
H916 C936 0.957 . S
H917 C937 0.950 . S
H918 C939 0.950 . S
H919 C942 0.950 . S
H920 C943 0.950 . S
H921 C945 0.950 . S
H922 C946 0.950 . S
H923 C947 0.951 . S
H924 C949 0.951 . S
H925 C951 0.950 . S
H926 C952 0.950 1_556 S
H927 C954 0.950 . S
H928 C957 0.950 . S
H929 C958 0.950 . S
H930 C960 0.950 . S
H931 C961 0.950 . S
C932 H914 0.951 . S
C932 C933 1.350 1_545 S
C932 C934 1.388 . S
C933 C932 1.350 1_565 S
C933 C937 1.389 . S
C934 H915 0.951 . S
C934 C932 1.388 . S
C934 C935 1.366 . S
C935 C934 1.366 . S
C935 C936 1.414 . S
C935 C938 1.499 . S
C936 H916 0.957 . S
C936 C935 1.414 . S
C936 C937 1.374 1_545 S
C937 H917 0.950 . S
C937 C933 1.389 . S
C937 C936 1.374 1_565 S
C938 C935 1.499 . S
C938 C939 1.373 1_545 S
C938 C940 1.389 . S
C939 H918 0.950 . S
C939 C938 1.373 1_565 S
C939 C955 1.377 . S
C940 C938 1.389 . S
C940 C941 1.524 . S
C940 C954 1.377 . S
C941 C940 1.524 . S
C941 C942 1.397 . S
C941 C946 1.363 . S
C942 H919 0.950 . S
C942 C941 1.397 . S
C942 C943 1.334 . S
C943 H920 0.950 . S
C943 C942 1.334 . S
C943 C944 1.287 . S
C944 C943 1.287 . S
C944 C945 1.524 . S
C944 H963 0.913 . S
C945 H921 0.950 . S
C945 C944 1.524 . S
C945 C946 1.415 . S
C946 H922 0.950 . S
C946 C941 1.363 . S
C946 C945 1.415 . S
C947 H923 0.951 . S
C947 C948 1.366 . S
C947 C949 1.388 . S
C948 C947 1.366 . S
C948 C952 1.385 . S
C949 H924 0.951 . S
C949 C947 1.388 . S
C949 C950 1.366 . S
C950 C949 1.366 . S
C950 C951 1.414 . S
C950 C953 1.499 . S
C951 H925 0.950 . S
C951 C950 1.414 . S
C951 C952 1.374 . S
C952 H926 0.950 1_554 S
C952 C948 1.385 . S
C952 C951 1.374 . S
C953 C950 1.499 . S
C953 C954 1.373 . S
C953 C955 1.389 1_545 S
C954 H927 0.950 . S
C954 C940 1.377 . S
C954 C953 1.373 . S
C955 C939 1.377 . S
C955 C953 1.389 1_565 S
C955 C956 1.524 . S
C956 C955 1.524 . S
C956 C957 1.397 . S
C956 C961 1.363 . S
C957 H928 0.950 . S
C957 C956 1.397 . S
C957 C958 1.334 . S
C958 H929 0.950 . S
C958 C957 1.334 . S
C958 C959 1.287 . S
C959 C958 1.287 . S
C959 C960 1.524 . S
C959 H962 0.999 . S
C960 H930 0.950 . S
C960 C959 1.524 . S
C960 C961 1.415 . S
C961 H931 0.950 . S
C961 C956 1.363 . S
C961 C960 1.415 . S
H962 C959 0.999 . S
H963 C944 0.913 . S
H964 C982 0.951 . S
H965 C984 0.951 . S
H966 C986 0.950 . S
H967 C987 0.950 1_554 S
H968 C989 0.950 . S
H969 C992 0.950 . S
H970 C993 0.950 . S
H971 C995 0.950 . S
H972 C996 0.950 . S
H973 C997 0.951 . S
H974 C999 0.951 . S
H975 C1001 0.950 . S
H976 C1002 0.950 . S
H977 C1004 0.950 . S
H978 C1007 0.950 . S
H979 C1008 0.950 . S
H980 C1010 0.950 . S
H981 C1011 0.950 . S
C982 H964 0.951 . S
C982 C983 1.366 . S
C982 C984 1.388 . S
C983 C982 1.366 . S
C983 C987 1.385 . S
C984 H965 0.951 . S
C984 C982 1.388 . S
C984 C985 1.366 . S
C985 C984 1.366 . S
C985 C986 1.414 . S
C985 C988 1.499 . S
C986 H966 0.950 . S
C986 C985 1.414 . S
C986 C987 1.374 . S
C987 H967 0.950 1_556 S
C987 C983 1.385 . S
C987 C986 1.374 . S
C988 C985 1.499 . S
C988 C989 1.373 . S
C988 C990 1.389 . S
C989 H968 0.950 . S
C989 C988 1.373 . S
C989 C1005 1.377 . S
C990 C988 1.389 . S
C990 C991 1.524 . S
C990 C1004 1.377 . S
C991 C990 1.524 . S
C991 C992 1.397 . S
C991 C996 1.363 . S
C992 H969 0.950 . S
C992 C991 1.397 . S
C992 C993 1.334 . S
C993 H970 0.950 . S
C993 C992 1.334 . S
C993 C994 1.287 . S
C994 C993 1.287 . S
C994 C995 1.524 . S
C994 H1013 0.913 . S
C995 H971 0.950 . S
C995 C994 1.524 . S
C995 C996 1.415 . S
C996 H972 0.950 . S
C996 C991 1.363 . S
C996 C995 1.415 . S
C997 H973 0.951 . S
C997 C998 1.366 . S
C997 C999 1.388 . S
C998 C997 1.366 . S
C998 C1002 1.385 . S
C999 H974 0.951 . S
C999 C997 1.388 . S
C999 C1000 1.366 . S
C1000 C999 1.366 . S
C1000 C1001 1.414 . S
C1000 C1003 1.499 . S
C1001 H975 0.950 . S
C1001 C1000 1.414 . S
C1001 C1002 1.374 . S
C1002 H976 0.950 . S
C1002 C998 1.385 . S
C1002 C1001 1.374 . S
C1003 C1000 1.499 . S
C1003 C1004 1.373 . S
C1003 C1005 1.389 . S
C1004 H977 0.950 . S
C1004 C990 1.377 . S
C1004 C1003 1.373 . S
C1005 C989 1.377 . S
C1005 C1003 1.389 . S
C1005 C1006 1.524 . S
C1006 C1005 1.524 . S
C1006 C1007 1.397 . S
C1006 C1011 1.363 . S
C1007 H978 0.950 . S
C1007 C1006 1.397 . S
C1007 C1008 1.334 . S
C1008 H979 0.950 . S
C1008 C1007 1.334 . S
C1008 C1009 1.287 . S
C1009 C1008 1.287 . S
C1009 C1010 1.524 . S
C1009 H1012 0.999 . S
C1010 H980 0.950 . S
C1010 C1009 1.524 . S
C1010 C1011 1.415 . S
C1011 H981 0.950 . S
C1011 C1006 1.363 . S
C1011 C1010 1.415 . S
H1012 C1009 0.999 . S
H1013 C994 0.913 . S
H1014 C1032 0.951 . S
H1015 C1034 0.951 . S
H1016 C1036 0.950 . S
H1017 C1037 0.950 . S
H1018 C1039 0.950 . S
H1019 C1042 0.950 . S
H1020 C1043 0.950 . S
H1021 C1045 0.950 . S
H1022 C1046 0.950 . S
H1023 C1047 0.951 . S
H1024 C1049 0.951 . S
H1025 C1051 0.950 . S
H1026 C1052 0.950 . S
H1027 C1054 0.950 . S
H1028 C1057 0.950 . S
H1029 C1058 0.950 . S
H1030 C1060 0.950 . S
H1031 C1061 0.950 . S
C1032 H1014 0.951 . S
C1032 C1033 1.366 . S
C1032 C1034 1.388 . S
C1033 C1032 1.366 . S
C1033 C1037 1.385 . S
C1034 H1015 0.951 . S
C1034 C1032 1.388 . S
C1034 C1035 1.366 . S
C1035 C1034 1.366 . S
C1035 C1036 1.414 . S
C1035 C1038 1.499 . S
C1036 H1016 0.950 . S
C1036 C1035 1.414 . S
C1036 C1037 1.374 . S
C1037 H1017 0.950 . S
C1037 C1033 1.385 . S
C1037 C1036 1.374 . S
C1038 C1035 1.499 . S
C1038 C1039 1.373 . S
C1038 C1040 1.389 . S
C1039 H1018 0.950 . S
C1039 C1038 1.373 . S
C1039 C1055 1.377 . S
C1040 C1038 1.389 . S
C1040 C1041 1.524 . S
C1040 C1054 1.377 . S
C1041 C1040 1.524 . S
C1041 C1042 1.397 . S
C1041 C1046 1.363 . S
C1042 H1019 0.950 . S
C1042 C1041 1.397 . S
C1042 C1043 1.334 . S
C1043 H1020 0.950 . S
C1043 C1042 1.334 . S
C1043 C1044 1.287 . S
C1044 C1043 1.287 . S
C1044 C1045 1.524 . S
C1044 H1063 0.913 . S
C1045 H1021 0.950 . S
C1045 C1044 1.524 . S
C1045 C1046 1.415 . S
C1046 H1022 0.950 . S
C1046 C1041 1.363 . S
C1046 C1045 1.415 . S
C1047 H1023 0.951 . S
C1047 C1048 1.366 . S
C1047 C1049 1.388 . S
C1048 C1047 1.366 . S
C1048 C1052 1.385 1_554 S
C1049 H1024 0.951 . S
C1049 C1047 1.388 . S
C1049 C1050 1.366 . S
C1050 C1049 1.366 . S
C1050 C1051 1.414 . S
C1050 C1053 1.499 . S
C1051 H1025 0.950 . S
C1051 C1050 1.414 . S
C1051 C1052 1.374 1_554 S
C1052 H1026 0.950 . S
C1052 C1048 1.385 1_556 S
C1052 C1051 1.374 1_556 S
C1053 C1050 1.499 . S
C1053 C1054 1.373 . S
C1053 C1055 1.389 . S
C1054 H1027 0.950 . S
C1054 C1040 1.377 . S
C1054 C1053 1.373 . S
C1055 C1039 1.377 . S
C1055 C1053 1.389 . S
C1055 C1056 1.524 . S
C1056 C1055 1.524 . S
C1056 C1057 1.397 . S
C1056 C1061 1.363 . S
C1057 H1028 0.950 . S
C1057 C1056 1.397 . S
C1057 C1058 1.334 . S
C1058 H1029 0.950 . S
C1058 C1057 1.334 . S
C1058 C1059 1.287 . S
C1059 C1058 1.287 . S
C1059 C1060 1.524 . S
C1059 H1062 0.999 . S
C1060 H1030 0.950 . S
C1060 C1059 1.524 . S
C1060 C1061 1.415 . S
C1061 H1031 0.950 . S
C1061 C1056 1.363 . S
C1061 C1060 1.415 . S
H1062 C1059 0.999 . S
H1063 C1044 0.913 . S
H1064 C1082 0.951 . S
H1065 C1084 0.951 . S
H1066 C1086 0.950 . S
H1067 C1087 0.950 . S
H1068 C1089 0.950 . S
H1069 C1092 0.950 . S
H1070 C1093 0.950 . S
H1071 C1095 0.950 . S
H1072 C1096 0.950 1_556 S
H1073 C1097 0.951 . S
H1074 C1099 0.951 . S
H1075 C1101 0.950 . S
H1076 C1102 0.950 . S
H1077 C1104 0.950 . S
H1078 C1107 0.950 . S
H1079 C1108 0.950 . S
H1080 C1110 0.950 . S
H1081 C1111 0.950 . S
C1082 H1064 0.951 . S
C1082 C1083 1.366 . S
C1082 C1084 1.388 . S
C1083 C1082 1.366 . S
C1083 C1087 1.385 . S
C1084 H1065 0.951 . S
C1084 C1082 1.388 . S
C1084 C1085 1.366 . S
C1085 C1084 1.366 . S
C1085 C1086 1.414 . S
C1085 C1088 1.499 . S
C1086 H1066 0.950 . S
C1086 C1085 1.414 . S
C1086 C1087 1.374 . S
C1087 H1067 0.950 . S
C1087 C1083 1.385 . S
C1087 C1086 1.374 . S
C1088 C1085 1.499 . S
C1088 C1089 1.373 1_554 S
C1088 C1090 1.389 . S
C1089 H1068 0.950 . S
C1089 C1088 1.373 1_556 S
C1089 C1105 1.377 . S
C1090 C1088 1.389 . S
C1090 C1091 1.519 1_455 S
C1090 C1104 1.377 1_554 S
C1091 C1090 1.519 1_655 S
C1091 C1092 1.396 1_655 S
C1091 C1096 1.369 . S
C1092 H1069 0.950 . S
C1092 C1091 1.396 1_455 S
C1092 C1093 1.334 1_455 S
C1093 H1070 0.950 . S
C1093 C1092 1.334 1_655 S
C1093 C1094 1.287 . S
C1094 C1093 1.287 . S
C1094 C1095 1.524 . S
C1094 H1113 0.913 . S
C1095 H1071 0.950 . S
C1095 C1094 1.524 . S
C1095 C1096 1.415 . S
C1096 H1072 0.950 1_554 S
C1096 C1091 1.369 . S
C1096 C1095 1.415 . S
C1097 H1073 0.951 . S
C1097 C1098 1.366 . S
C1097 C1099 1.388 . S
C1098 C1097 1.366 . S
C1098 C1102 1.385 . S
C1099 H1074 0.951 . S
C1099 C1097 1.388 . S
C1099 C1100 1.366 . S
C1100 C1099 1.366 . S
C1100 C1101 1.414 . S
C1100 C1103 1.499 . S
C1101 H1075 0.950 . S
C1101 C1100 1.414 . S
C1101 C1102 1.374 . S
C1102 H1076 0.950 . S
C1102 C1098 1.385 . S
C1102 C1101 1.374 . S
C1103 C1100 1.499 . S
C1103 C1104 1.373 . S
C1103 C1105 1.389 . S
C1104 H1077 0.950 . S
C1104 C1090 1.377 1_556 S
C1104 C1103 1.373 . S
C1105 C1089 1.377 . S
C1105 C1103 1.389 . S
C1105 C1106 1.524 . S
C1106 C1105 1.524 . S
C1106 C1107 1.397 . S
C1106 C1111 1.363 . S
C1107 H1078 0.950 . S
C1107 C1106 1.397 . S
C1107 C1108 1.334 . S
C1108 H1079 0.950 . S
C1108 C1107 1.334 . S
C1108 C1109 1.287 . S
C1109 C1108 1.287 . S
C1109 C1110 1.524 . S
C1109 H1112 0.999 . S
C1110 H1080 0.950 . S
C1110 C1109 1.524 . S
C1110 C1111 1.415 . S
C1111 H1081 0.950 . S
C1111 C1106 1.363 . S
C1111 C1110 1.415 . S
H1112 C1109 0.999 . S
H1113 C1094 0.913 . S
H1114 C1132 0.951 . S
H1115 C1134 0.951 . S
H1116 C1136 0.950 . S
H1117 C1137 0.950 . S
H1118 C1139 0.950 . S
H1119 C1142 0.950 . S
H1120 C1143 0.950 . S
H1121 C1145 0.950 . S
H1122 C1146 0.950 . S
H1123 C1147 0.964 . S
H1124 C1149 0.961 1_554 S
H1125 C1151 0.950 . S
H1126 C1152 0.950 . S
H1127 C1154 0.950 . S
H1128 C1157 0.950 1_556 S
H1129 C1158 0.950 . S
H1130 C1160 0.950 . S
H1131 C1161 0.950 . S
C1132 H1114 0.951 . S
C1132 C1133 1.378 1_556 S
C1132 C1134 1.388 . S
C1133 C1132 1.378 1_554 S
C1133 C1137 1.375 1_545 S
C1134 H1115 0.951 . S
C1134 C1132 1.388 . S
C1134 C1135 1.376 1_556 S
C1135 C1134 1.376 1_554 S
C1135 C1136 1.404 1_545 S
C1135 C1138 1.501 1_554 S
C1136 H1116 0.950 . S
C1136 C1135 1.404 1_565 S
C1136 C1137 1.374 . S
C1137 H1117 0.950 . S
C1137 C1133 1.375 1_565 S
C1137 C1136 1.374 . S
C1138 C1135 1.501 1_556 S
C1138 C1139 1.373 1_556 S
C1138 C1140 1.389 1_545 S
C1139 H1118 0.950 . S
C1139 C1138 1.373 1_554 S
C1139 C1155 1.377 . S
C1140 C1138 1.389 1_565 S
C1140 C1141 1.524 . S
C1140 C1154 1.377 . S
C1141 C1140 1.524 . S
C1141 C1142 1.397 . S
C1141 C1146 1.363 . S
C1142 H1119 0.950 . S
C1142 C1141 1.397 . S
C1142 C1143 1.334 . S
C1143 H1120 0.950 . S
C1143 C1142 1.334 . S
C1143 C1144 1.287 . S
C1144 C1143 1.287 . S
C1144 C1145 1.524 . S
C1144 H1163 0.913 . S
C1145 H1121 0.950 . S
C1145 C1144 1.524 . S
C1145 C1146 1.415 . S
C1146 H1122 0.950 . S
C1146 C1141 1.363 . S
C1146 C1145 1.415 . S
C1147 H1123 0.964 . S
C1147 C1148 1.366 . S
C1147 C1149 1.388 . S
C1148 C1147 1.366 . S
C1148 C1152 1.385 . S
C1149 H1124 0.961 1_556 S
C1149 C1147 1.388 . S
C1149 C1150 1.366 . S
C1150 C1149 1.366 . S
C1150 C1151 1.414 . S
C1150 C1153 1.499 . S
C1151 H1125 0.950 . S
C1151 C1150 1.414 . S
C1151 C1152 1.374 . S
C1152 H1126 0.950 . S
C1152 C1148 1.385 . S
C1152 C1151 1.374 . S
C1153 C1150 1.499 . S
C1153 C1154 1.373 1_545 S
C1153 C1155 1.389 1_556 S
C1154 H1127 0.950 . S
C1154 C1140 1.377 . S
C1154 C1153 1.373 1_565 S
C1155 C1139 1.377 . S
C1155 C1153 1.389 1_554 S
C1155 C1156 1.524 . S
C1156 C1155 1.524 . S
C1156 C1157 1.397 . S
C1156 C1161 1.363 . S
C1157 H1128 0.950 1_554 S
C1157 C1156 1.397 . S
C1157 C1158 1.334 . S
C1158 H1129 0.950 . S
C1158 C1157 1.334 . S
C1158 C1159 1.287 . S
C1159 C1158 1.287 . S
C1159 C1160 1.524 . S
C1159 H1162 0.999 . S
C1160 H1130 0.950 . S
C1160 C1159 1.524 . S
C1160 C1161 1.415 . S
C1161 H1131 0.950 . S
C1161 C1156 1.363 . S
C1161 C1160 1.415 . S
H1162 C1159 0.999 . S
H1163 C1144 0.913 . S
H1164 C1182 0.951 . S
H1165 C1184 0.951 . S
H1166 C1186 0.950 . S
H1167 C1187 0.950 . S
H1168 C1189 0.950 . S
H1169 C1192 0.950 . S
H1170 C1193 0.950 . S
H1171 C1195 0.950 . S
H1172 C1196 0.950 . S
H1173 C1197 0.951 . S
H1174 C1199 0.951 . S
H1175 C1201 0.950 . S
H1176 C1202 0.950 . S
H1177 C1204 0.950 . S
H1178 C1207 0.950 . S
H1179 C1208 0.950 . S
H1180 C1210 0.950 . S
H1181 C1211 0.950 . S
C1182 H1164 0.951 . S
C1182 C1183 1.366 . S
C1182 C1184 1.388 . S
C1183 C1182 1.366 . S
C1183 C1187 1.385 . S
C1184 H1165 0.951 . S
C1184 C1182 1.388 . S
C1184 C1185 1.366 . S
C1185 C1184 1.366 . S
C1185 C1186 1.414 . S
C1185 C1188 1.499 . S
C1186 H1166 0.950 . S
C1186 C1185 1.414 . S
C1186 C1187 1.374 . S
C1187 H1167 0.950 . S
C1187 C1183 1.385 . S
C1187 C1186 1.374 . S
C1188 C1185 1.499 . S
C1188 C1189 1.373 . S
C1188 C1190 1.389 . S
C1189 H1168 0.950 . S
C1189 C1188 1.373 . S
C1189 C1205 1.377 . S
C1190 C1188 1.389 . S
C1190 C1191 1.524 . S
C1190 C1204 1.377 . S
C1191 C1190 1.524 . S
C1191 C1192 1.397 . S
C1191 C1196 1.363 . S
C1192 H1169 0.950 . S
C1192 C1191 1.397 . S
C1192 C1193 1.334 . S
C1193 H1170 0.950 . S
C1193 C1192 1.334 . S
C1193 C1194 1.287 . S
C1194 C1193 1.287 . S
C1194 C1195 1.524 . S
C1194 H1213 0.913 . S
C1195 H1171 0.950 . S
C1195 C1194 1.524 . S
C1195 C1196 1.415 . S
C1196 H1172 0.950 . S
C1196 C1191 1.363 . S
C1196 C1195 1.415 . S
C1197 H1173 0.951 . S
C1197 C1198 1.366 . S
C1197 C1199 1.388 . S
C1198 C1197 1.366 . S
C1198 C1202 1.385 . S
C1199 H1174 0.951 . S
C1199 C1197 1.388 . S
C1199 C1200 1.366 . S
C1200 C1199 1.366 . S
C1200 C1201 1.414 . S
C1200 C1203 1.499 . S
C1201 H1175 0.950 . S
C1201 C1200 1.414 . S
C1201 C1202 1.374 . S
C1202 H1176 0.950 . S
C1202 C1198 1.385 . S
C1202 C1201 1.374 . S
C1203 C1200 1.499 . S
C1203 C1204 1.373 . S
C1203 C1205 1.389 . S
C1204 H1177 0.950 . S
C1204 C1190 1.377 . S
C1204 C1203 1.373 . S
C1205 C1189 1.377 . S
C1205 C1203 1.389 . S
C1205 C1206 1.524 . S
C1206 C1205 1.524 . S
C1206 C1207 1.397 . S
C1206 C1211 1.363 . S
C1207 H1178 0.950 . S
C1207 C1206 1.397 . S
C1207 C1208 1.334 . S
C1208 H1179 0.950 . S
C1208 C1207 1.334 . S
C1208 C1209 1.287 . S
C1209 C1208 1.287 . S
C1209 C1210 1.524 . S
C1209 H1212 0.999 . S
C1210 H1180 0.950 . S
C1210 C1209 1.524 . S
C1210 C1211 1.415 . S
C1211 H1181 0.950 . S
C1211 C1206 1.363 . S
C1211 C1210 1.415 . S
H1212 C1209 0.999 . S
H1213 C1194 0.913 . S
H1214 C1232 0.951 . S
H1215 C1234 0.951 . S
H1216 C1236 0.950 . S
H1217 C1237 0.950 . S
H1218 C1239 0.950 . S
H1219 C1242 0.950 . S
H1220 C1243 0.950 . S
H1221 C1245 0.950 . S
H1222 C1246 0.950 . S
H1223 C1247 0.951 . S
H1224 C1249 0.951 . S
H1225 C1251 0.950 . S
H1226 C1252 0.950 . S
H1227 C1254 0.950 . S
H1228 C1257 0.950 . S
H1229 C1258 0.950 . S
H1230 C1260 0.950 . S
H1231 C1261 0.950 . S
C1232 H1214 0.951 . S
C1232 C1233 1.366 . S
C1232 C1234 1.388 . S
C1233 C1232 1.366 . S
C1233 C1237 1.385 1_554 S
C1234 H1215 0.951 . S
C1234 C1232 1.388 . S
C1234 C1235 1.366 1_554 S
C1235 C1234 1.366 1_556 S
C1235 C1236 1.414 . S
C1235 C1238 1.499 . S
C1236 H1216 0.950 . S
C1236 C1235 1.414 . S
C1236 C1237 1.374 . S
C1237 H1217 0.950 . S
C1237 C1233 1.385 1_556 S
C1237 C1236 1.374 . S
C1238 C1235 1.499 . S
C1238 C1239 1.373 . S
C1238 C1240 1.389 . S
C1239 H1218 0.950 . S
C1239 C1238 1.373 . S
C1239 C1255 1.377 . S
C1240 C1238 1.389 . S
C1240 C1241 1.524 . S
C1240 C1254 1.377 . S
C1241 C1240 1.524 . S
C1241 C1242 1.397 . S
C1241 C1246 1.363 1_556 S
C1242 H1219 0.950 . S
C1242 C1241 1.397 . S
C1242 C1243 1.334 . S
C1243 H1220 0.950 . S
C1243 C1242 1.334 . S
C1243 C1244 1.287 1_556 S
C1244 C1243 1.287 1_554 S
C1244 C1245 1.524 . S
C1244 H1263 0.913 . S
C1245 H1221 0.950 . S
C1245 C1244 1.524 . S
C1245 C1246 1.415 . S
C1246 H1222 0.950 . S
C1246 C1241 1.363 1_554 S
C1246 C1245 1.415 . S
C1247 H1223 0.951 . S
C1247 C1248 1.366 . S
C1247 C1249 1.388 . S
C1248 C1247 1.366 . S
C1248 C1252 1.385 . S
C1249 H1224 0.951 . S
C1249 C1247 1.388 . S
C1249 C1250 1.366 . S
C1250 C1249 1.366 . S
C1250 C1251 1.414 . S
C1250 C1253 1.499 . S
C1251 H1225 0.950 . S
C1251 C1250 1.414 . S
C1251 C1252 1.374 . S
C1252 H1226 0.950 . S
C1252 C1248 1.385 . S
C1252 C1251 1.374 . S
C1253 C1250 1.499 . S
C1253 C1254 1.373 . S
C1253 C1255 1.389 . S
C1254 H1227 0.950 . S
C1254 C1240 1.377 . S
C1254 C1253 1.373 . S
C1255 C1239 1.377 . S
C1255 C1253 1.389 . S
C1255 C1256 1.524 . S
C1256 C1255 1.524 . S
C1256 C1257 1.397 . S
C1256 C1261 1.363 . S
C1257 H1228 0.950 . S
C1257 C1256 1.397 . S
C1257 C1258 1.334 . S
C1258 H1229 0.950 . S
C1258 C1257 1.334 . S
C1258 C1259 1.287 . S
C1259 C1258 1.287 . S
C1259 C1260 1.524 . S
C1259 H1262 0.999 . S
C1260 H1230 0.950 . S
C1260 C1259 1.524 . S
C1260 C1261 1.415 . S
C1261 H1231 0.950 . S
C1261 C1256 1.363 . S
C1261 C1260 1.415 . S
H1262 C1259 0.999 . S
H1263 C1244 0.913 . S
H1264 C1282 0.951 . S
H1265 C1284 0.951 . S
H1266 C1286 0.950 . S
H1267 C1287 0.950 . S
H1268 C1289 0.950 . S
H1269 C1292 0.950 . S
H1270 C1293 0.950 . S
H1271 C1295 0.950 . S
H1272 C1296 0.950 . S
H1273 C1297 0.951 . S
H1274 C1299 0.951 . S
H1275 C1301 0.950 . S
H1276 C1302 0.950 . S
H1277 C1304 0.950 . S
H1278 C1307 0.950 . S
H1279 C1308 0.950 . S
H1280 C1310 0.950 . S
H1281 C1311 0.950 . S
C1282 H1264 0.951 . S
C1282 C1283 1.366 . S
C1282 C1284 1.388 . S
C1283 C1282 1.366 . S
C1283 C1287 1.385 . S
C1284 H1265 0.951 . S
C1284 C1282 1.388 . S
C1284 C1285 1.366 . S
C1285 C1284 1.366 . S
C1285 C1286 1.414 . S
C1285 C1288 1.499 . S
C1286 H1266 0.950 . S
C1286 C1285 1.414 . S
C1286 C1287 1.374 . S
C1287 H1267 0.950 . S
C1287 C1283 1.385 . S
C1287 C1286 1.374 . S
C1288 C1285 1.499 . S
C1288 C1289 1.373 1_655 S
C1288 C1290 1.389 . S
C1289 H1268 0.950 . S
C1289 C1288 1.373 1_455 S
C1289 C1305 1.377 . S
C1290 C1288 1.389 . S
C1290 C1291 1.524 . S
C1290 C1304 1.377 . S
C1291 C1290 1.524 . S
C1291 C1292 1.397 . S
C1291 C1296 1.363 . S
C1292 H1269 0.950 . S
C1292 C1291 1.397 . S
C1292 C1293 1.334 . S
C1293 H1270 0.950 . S
C1293 C1292 1.334 . S
C1293 C1294 1.287 . S
C1294 C1293 1.287 . S
C1294 C1295 1.524 . S
C1294 H1313 0.913 . S
C1295 H1271 0.950 . S
C1295 C1294 1.524 . S
C1295 C1296 1.415 . S
C1296 H1272 0.950 . S
C1296 C1291 1.363 . S
C1296 C1295 1.415 . S
C1297 H1273 0.951 . S
C1297 C1298 1.366 . S
C1297 C1299 1.388 . S
C1298 C1297 1.366 . S
C1298 C1302 1.384 1_455 S
C1299 H1274 0.951 . S
C1299 C1297 1.388 . S
C1299 C1300 1.359 1_455 S
C1300 C1299 1.359 1_655 S
C1300 C1301 1.423 . S
C1300 C1303 1.501 . S
C1301 H1275 0.950 . S
C1301 C1300 1.423 . S
C1301 C1302 1.374 . S
C1302 H1276 0.950 . S
C1302 C1298 1.384 1_655 S
C1302 C1301 1.374 . S
C1303 C1300 1.501 . S
C1303 C1304 1.373 . S
C1303 C1305 1.389 1_655 S
C1304 H1277 0.950 . S
C1304 C1290 1.377 . S
C1304 C1303 1.373 . S
C1305 C1289 1.377 . S
C1305 C1303 1.389 1_455 S
C1305 C1306 1.524 . S
C1306 C1305 1.524 . S
C1306 C1307 1.397 . S
C1306 C1311 1.363 . S
C1307 H1278 0.950 . S
C1307 C1306 1.397 . S
C1307 C1308 1.334 . S
C1308 H1279 0.950 . S
C1308 C1307 1.334 . S
C1308 C1309 1.287 . S
C1309 C1308 1.287 . S
C1309 C1310 1.524 . S
C1309 H1312 0.999 . S
C1310 H1280 0.950 . S
C1310 C1309 1.524 . S
C1310 C1311 1.415 . S
C1311 H1281 0.950 . S
C1311 C1306 1.363 . S
C1311 C1310 1.415 . S
H1312 C1309 0.999 . S
H1313 C1294 0.913 . S
H1314 C1332 0.951 . S
H1315 C1334 0.951 . S
H1316 C1336 0.950 . S
H1317 C1337 0.950 . S
H1318 C1339 0.950 . S
H1319 C1342 0.950 . S
H1320 C1343 0.950 . S
H1321 C1345 0.950 . S
H1322 C1346 0.950 1_545 S
H1323 C1347 0.951 . S
H1324 C1349 0.951 . S
H1325 C1351 0.950 . S
H1326 C1352 0.950 . S
H1327 C1354 0.950 . S
H1328 C1357 0.950 . S
H1329 C1358 0.950 . S
H1330 C1360 0.950 . S
H1331 C1361 0.950 1_565 S
C1332 H1314 0.951 . S
C1332 C1333 1.359 1_545 S
C1332 C1334 1.388 . S
C1333 C1332 1.359 1_565 S
C1333 C1337 1.394 . S
C1334 H1315 0.951 . S
C1334 C1332 1.388 . S
C1334 C1335 1.366 1_545 S
C1335 C1334 1.366 1_565 S
C1335 C1336 1.414 . S
C1335 C1338 1.499 . S
C1336 H1316 0.950 . S
C1336 C1335 1.414 . S
C1336 C1337 1.374 . S
C1337 H1317 0.950 . S
C1337 C1333 1.394 . S
C1337 C1336 1.374 . S
C1338 C1335 1.499 . S
C1338 C1339 1.373 1_565 S
C1338 C1340 1.389 . S
C1339 H1318 0.950 . S
C1339 C1338 1.373 1_545 S
C1339 C1355 1.377 . S
C1340 C1338 1.389 . S
C1340 C1341 1.524 . S
C1340 C1354 1.377 . S
C1341 C1340 1.524 . S
C1341 C1342 1.397 . S
C1341 C1346 1.363 . S
C1342 H1319 0.950 . S
C1342 C1341 1.397 . S
C1342 C1343 1.334 . S
C1343 H1320 0.950 . S
C1343 C1342 1.334 . S
C1343 C1344 1.287 . S
C1344 C1343 1.287 . S
C1344 C1345 1.524 . S
C1344 H1363 0.913 . S
C1345 H1321 0.950 . S
C1345 C1344 1.524 . S
C1345 C1346 1.415 . S
C1346 H1322 0.950 1_565 S
C1346 C1341 1.363 . S
C1346 C1345 1.415 . S
C1347 H1323 0.951 . S
C1347 C1348 1.366 . S
C1347 C1349 1.388 . S
C1348 C1347 1.366 . S
C1348 C1352 1.385 1_565 S
C1349 H1324 0.951 . S
C1349 C1347 1.388 . S
C1349 C1350 1.366 . S
C1350 C1349 1.366 . S
C1350 C1351 1.414 1_565 S
C1350 C1353 1.499 . S
C1351 H1325 0.950 . S
C1351 C1350 1.414 1_545 S
C1351 C1352 1.374 . S
C1352 H1326 0.950 . S
C1352 C1348 1.385 1_545 S
C1352 C1351 1.374 . S
C1353 C1350 1.499 . S
C1353 C1354 1.373 . S
C1353 C1355 1.389 1_565 S
C1354 H1327 0.950 . S
C1354 C1340 1.377 . S
C1354 C1353 1.373 . S
C1355 C1339 1.377 . S
C1355 C1353 1.389 1_545 S
C1355 C1356 1.524 . S
C1356 C1355 1.524 . S
C1356 C1357 1.397 . S
C1356 C1361 1.363 . S
C1357 H1328 0.950 . S
C1357 C1356 1.397 . S
C1357 C1358 1.334 . S
C1358 H1329 0.950 . S
C1358 C1357 1.334 . S
C1358 C1359 1.287 . S
C1359 C1358 1.287 . S
C1359 C1360 1.524 . S
C1359 H1362 0.999 . S
C1360 H1330 0.950 . S
C1360 C1359 1.524 . S
C1360 C1361 1.415 . S
C1361 H1331 0.950 1_545 S
C1361 C1356 1.363 . S
C1361 C1360 1.415 . S
H1362 C1359 0.999 . S
H1363 C1344 0.913 . S
H1364 C1382 0.951 . S
H1365 C1384 0.951 . S
H1366 C1386 0.950 . S
H1367 C1387 0.950 . S
H1368 C1389 0.950 . S
H1369 C1392 0.950 . S
H1370 C1393 0.950 . S
H1371 C1395 0.950 . S
H1372 C1396 0.950 . S
H1373 C1397 0.951 . S
H1374 C1399 0.951 . S
H1375 C1401 0.950 . S
H1376 C1402 0.950 . S
H1377 C1404 0.950 . S
H1378 C1407 0.950 . S
H1379 C1408 0.950 . S
H1380 C1410 0.950 . S
H1381 C1411 0.950 . S
C1382 H1364 0.951 . S
C1382 C1383 1.366 . S
C1382 C1384 1.388 . S
C1383 C1382 1.366 . S
C1383 C1387 1.385 . S
C1384 H1365 0.951 . S
C1384 C1382 1.388 . S
C1384 C1385 1.366 . S
C1385 C1384 1.366 . S
C1385 C1386 1.414 . S
C1385 C1388 1.499 . S
C1386 H1366 0.950 . S
C1386 C1385 1.414 . S
C1386 C1387 1.374 . S
C1387 H1367 0.950 . S
C1387 C1383 1.385 . S
C1387 C1386 1.374 . S
C1388 C1385 1.499 . S
C1388 C1389 1.373 . S
C1388 C1390 1.389 . S
C1389 H1368 0.950 . S
C1389 C1388 1.373 . S
C1389 C1405 1.377 . S
C1390 C1388 1.389 . S
C1390 C1391 1.524 . S
C1390 C1404 1.377 . S
C1391 C1390 1.524 . S
C1391 C1392 1.397 . S
C1391 C1396 1.363 . S
C1392 H1369 0.950 . S
C1392 C1391 1.397 . S
C1392 C1393 1.334 . S
C1393 H1370 0.950 . S
C1393 C1392 1.334 . S
C1393 C1394 1.287 . S
C1394 C1393 1.287 . S
C1394 C1395 1.524 . S
C1394 H1413 0.913 1_554 S
C1395 H1371 0.950 . S
C1395 C1394 1.524 . S
C1395 C1396 1.415 . S
C1396 H1372 0.950 . S
C1396 C1391 1.363 . S
C1396 C1395 1.415 . S
C1397 H1373 0.951 . S
C1397 C1398 1.366 . S
C1397 C1399 1.388 . S
C1398 C1397 1.366 . S
C1398 C1402 1.385 . S
C1399 H1374 0.951 . S
C1399 C1397 1.388 . S
C1399 C1400 1.366 . S
C1400 C1399 1.366 . S
C1400 C1401 1.414 . S
C1400 C1403 1.499 . S
C1401 H1375 0.950 . S
C1401 C1400 1.414 . S
C1401 C1402 1.374 . S
C1402 H1376 0.950 . S
C1402 C1398 1.385 . S
C1402 C1401 1.374 . S
C1403 C1400 1.499 . S
C1403 C1404 1.373 . S
C1403 C1405 1.389 . S
C1404 H1377 0.950 . S
C1404 C1390 1.377 . S
C1404 C1403 1.373 . S
C1405 C1389 1.377 . S
C1405 C1403 1.389 . S
C1405 C1406 1.524 . S
C1406 C1405 1.524 . S
C1406 C1407 1.397 . S
C1406 C1411 1.363 . S
C1407 H1378 0.950 . S
C1407 C1406 1.397 . S
C1407 C1408 1.334 . S
C1408 H1379 0.950 . S
C1408 C1407 1.334 . S
C1408 C1409 1.287 . S
C1409 C1408 1.287 . S
C1409 C1410 1.524 . S
C1409 H1412 0.999 . S
C1410 H1380 0.950 . S
C1410 C1409 1.524 . S
C1410 C1411 1.415 . S
C1411 H1381 0.950 . S
C1411 C1406 1.363 . S
C1411 C1410 1.415 . S
H1412 C1409 0.999 . S
H1413 C1394 0.913 1_556 S
H1414 C1432 0.951 . S
H1415 C1434 0.951 . S
H1416 C1436 0.950 . S
H1417 C1437 0.950 . S
H1418 C1439 0.950 . S
H1419 C1442 0.950 . S
H1420 C1443 0.950 . S
H1421 C1445 0.950 . S
H1422 C1446 0.950 . S
H1423 C1447 0.951 . S
H1424 C1449 0.951 . S
H1425 C1451 0.950 . S
H1426 C1452 0.950 . S
H1427 C1454 0.950 . S
H1428 C1457 0.950 . S
H1429 C1458 0.950 . S
H1430 C1460 0.950 . S
H1431 C1461 0.950 . S
C1432 H1414 0.951 . S
C1432 C1433 1.366 . S
C1432 C1434 1.388 . S
C1433 C1432 1.366 . S
C1433 C1437 1.385 . S
C1434 H1415 0.951 . S
C1434 C1432 1.388 . S
C1434 C1435 1.366 . S
C1435 C1434 1.366 . S
C1435 C1436 1.414 . S
C1435 C1438 1.499 . S
C1436 H1416 0.950 . S
C1436 C1435 1.414 . S
C1436 C1437 1.374 . S
C1437 H1417 0.950 . S
C1437 C1433 1.385 . S
C1437 C1436 1.374 . S
C1438 C1435 1.499 . S
C1438 C1439 1.373 . S
C1438 C1440 1.389 . S
C1439 H1418 0.950 . S
C1439 C1438 1.373 . S
C1439 C1455 1.377 . S
C1440 C1438 1.389 . S
C1440 C1441 1.524 . S
C1440 C1454 1.377 . S
C1441 C1440 1.524 . S
C1441 C1442 1.397 . S
C1441 C1446 1.363 . S
C1442 H1419 0.950 . S
C1442 C1441 1.397 . S
C1442 C1443 1.334 . S
C1443 H1420 0.950 . S
C1443 C1442 1.334 . S
C1443 C1444 1.287 . S
C1444 C1443 1.287 . S
C1444 C1445 1.524 . S
C1444 H1463 0.913 . S
C1445 H1421 0.950 . S
C1445 C1444 1.524 . S
C1445 C1446 1.415 . S
C1446 H1422 0.950 . S
C1446 C1441 1.363 . S
C1446 C1445 1.415 . S
C1447 H1423 0.951 . S
C1447 C1448 1.366 . S
C1447 C1449 1.388 . S
C1448 C1447 1.366 . S
C1448 C1452 1.385 . S
C1449 H1424 0.951 . S
C1449 C1447 1.388 . S
C1449 C1450 1.366 . S
C1450 C1449 1.366 . S
C1450 C1451 1.414 . S
C1450 C1453 1.499 . S
C1451 H1425 0.950 . S
C1451 C1450 1.414 . S
C1451 C1452 1.374 . S
C1452 H1426 0.950 . S
C1452 C1448 1.385 . S
C1452 C1451 1.374 . S
C1453 C1450 1.499 . S
C1453 C1454 1.373 . S
C1453 C1455 1.389 . S
C1454 H1427 0.950 . S
C1454 C1440 1.377 . S
C1454 C1453 1.373 . S
C1455 C1439 1.377 . S
C1455 C1453 1.389 . S
C1455 C1456 1.524 . S
C1456 C1455 1.524 . S
C1456 C1457 1.397 . S
C1456 C1461 1.363 . S
C1457 H1428 0.950 . S
C1457 C1456 1.397 . S
C1457 C1458 1.334 . S
C1458 H1429 0.950 . S
C1458 C1457 1.334 . S
C1458 C1459 1.287 . S
C1459 C1458 1.287 . S
C1459 C1460 1.524 . S
C1459 H1462 0.999 . S
C1460 H1430 0.950 . S
C1460 C1459 1.524 . S
C1460 C1461 1.415 . S
C1461 H1431 0.950 . S
C1461 C1456 1.363 . S
C1461 C1460 1.415 . S
H1462 C1459 0.999 . S
H1463 C1444 0.913 . S
C283 C82 1.631 . S
C298 C127 1.845 1_545 S
C348 C167 1.670 . S
C333 C95 1.625 . S
C398 C186 1.854 . S
C383 C56 1.649 . S
C448 C247 1.344 . S
C433 C69 1.219 . S
C498 C106 1.845 1_565 S
C483 C30 1.630 1_565 S
C533 C43 1.598 . S
C548 C146 1.677 . S
C583 C4 1.635 . S
C598 C207 1.855 . S
C633 C17 1.198 . S
C648 C226 1.344 . S
C698 C108 0.650 . S
C683 C74 0.648 . S
C748 C148 0.237 . S
C733 C87 0.308 . S
C798 C204 0.638 . S
C783 C100 0.671 . S
C833 C61 0.320 . S
C848 C228 0.277 . S
C883 C22 0.652 . S
C898 C129 0.645 1_554 S
C948 C169 0.239 . S
C933 C35 0.310 1_565 S
C998 C215 0.638 . S
C983 C48 0.673 . S
C1033 C9 0.328 . S
C1048 C249 0.281 . S
C1083 C73 1.403 . S
C1098 C124 1.502 . S
C1133 C86 2.032 . S
C1148 C164 2.195 . S
C1198 C188 1.449 . S
C1183 C99 1.428 . S
C1248 C244 2.190 . S
C1233 C60 2.031 . S
C1283 C21 1.402 . S
C1298 C135 1.517 . S
C1348 C175 2.195 . S
C1333 C34 2.030 1_565 S
C1398 C209 1.449 . S
C1383 C47 1.429 . S
C1433 C8 2.032 . S
C1448 C255 2.191 . S
