# Generated by pormake.
# Topology ctn, (3,4)-cn, num edge types: 1
# Building blocks:
#     Node 0, Type 0, BuildingBlock: PAMTOO_clean_linker_0, # of connection points: 3
#     Node 1, Type 0, BuildingBlock: PAMTOO_clean_linker_0, # of connection points: 3
#     Node 2, Type 0, BuildingBlock: PAMTOO_clean_linker_0, # of connection points: 3
#     Node 3, Type 0, BuildingBlock: PAMTOO_clean_linker_0, # of connection points: 3
#     Node 4, Type 0, BuildingBlock: PAMTOO_clean_linker_0, # of connection points: 3
#     Node 5, Type 0, BuildingBlock: PAMTOO_clean_linker_0, # of connection points: 3
#     Node 6, Type 0, BuildingBlock: PAMTOO_clean_linker_0, # of connection points: 3
#     Node 7, Type 0, BuildingBlock: PAMTOO_clean_linker_0, # of connection points: 3
#     Node 8, Type 0, BuildingBlock: PAMTOO_clean_linker_0, # of connection points: 3
#     Node 9, Type 0, BuildingBlock: PAMTOO_clean_linker_0, # of connection points: 3
#     Node 10, Type 0, BuildingBlock: PAMTOO_clean_linker_0, # of connection points: 3
#     Node 11, Type 0, BuildingBlock: PAMTOO_clean_linker_0, # of connection points: 3
#     Node 12, Type 0, BuildingBlock: PAMTOO_clean_linker_0, # of connection points: 3
#     Node 13, Type 0, BuildingBlock: PAMTOO_clean_linker_0, # of connection points: 3
#     Node 14, Type 0, BuildingBlock: PAMTOO_clean_linker_0, # of connection points: 3
#     Node 15, Type 0, BuildingBlock: PAMTOO_clean_linker_0, # of connection points: 3
#     Node 16, Type 1, BuildingBlock: UXUYUI_clean_sbu_0, # of connection points: 4
#     Node 17, Type 1, BuildingBlock: UXUYUI_clean_sbu_0, # of connection points: 4
#     Node 18, Type 1, BuildingBlock: UXUYUI_clean_sbu_0, # of connection points: 4
#     Node 19, Type 1, BuildingBlock: UXUYUI_clean_sbu_0, # of connection points: 4
#     Node 20, Type 1, BuildingBlock: UXUYUI_clean_sbu_0, # of connection points: 4
#     Node 21, Type 1, BuildingBlock: UXUYUI_clean_sbu_0, # of connection points: 4
#     Node 22, Type 1, BuildingBlock: UXUYUI_clean_sbu_0, # of connection points: 4
#     Node 23, Type 1, BuildingBlock: UXUYUI_clean_sbu_0, # of connection points: 4
#     Node 24, Type 1, BuildingBlock: UXUYUI_clean_sbu_0, # of connection points: 4
#     Node 25, Type 1, BuildingBlock: UXUYUI_clean_sbu_0, # of connection points: 4
#     Node 26, Type 1, BuildingBlock: UXUYUI_clean_sbu_0, # of connection points: 4
#     Node 27, Type 1, BuildingBlock: UXUYUI_clean_sbu_0, # of connection points: 4
#     Edge 28, Type (0, 1), BuildingBlock: EZIPEK_clean_linker_0, # of connection points: 2
#     Edge 29, Type (0, 1), BuildingBlock: EZIPEK_clean_linker_0, # of connection points: 2
#     Edge 30, Type (0, 1), BuildingBlock: EZIPEK_clean_linker_0, # of connection points: 2
#     Edge 31, Type (0, 1), BuildingBlock: EZIPEK_clean_linker_0, # of connection points: 2
#     Edge 32, Type (0, 1), BuildingBlock: EZIPEK_clean_linker_0, # of connection points: 2
#     Edge 33, Type (0, 1), BuildingBlock: EZIPEK_clean_linker_0, # of connection points: 2
#     Edge 34, Type (0, 1), BuildingBlock: EZIPEK_clean_linker_0, # of connection points: 2
#     Edge 35, Type (0, 1), BuildingBlock: EZIPEK_clean_linker_0, # of connection points: 2
#     Edge 36, Type (0, 1), BuildingBlock: EZIPEK_clean_linker_0, # of connection points: 2
#     Edge 37, Type (0, 1), BuildingBlock: EZIPEK_clean_linker_0, # of connection points: 2
#     Edge 38, Type (0, 1), BuildingBlock: EZIPEK_clean_linker_0, # of connection points: 2
#     Edge 39, Type (0, 1), BuildingBlock: EZIPEK_clean_linker_0, # of connection points: 2
#     Edge 40, Type (0, 1), BuildingBlock: EZIPEK_clean_linker_0, # of connection points: 2
#     Edge 41, Type (0, 1), BuildingBlock: EZIPEK_clean_linker_0, # of connection points: 2
#     Edge 42, Type (0, 1), BuildingBlock: EZIPEK_clean_linker_0, # of connection points: 2
#     Edge 43, Type (0, 1), BuildingBlock: EZIPEK_clean_linker_0, # of connection points: 2
#     Edge 44, Type (0, 1), BuildingBlock: EZIPEK_clean_linker_0, # of connection points: 2
#     Edge 45, Type (0, 1), BuildingBlock: EZIPEK_clean_linker_0, # of connection points: 2
#     Edge 46, Type (0, 1), BuildingBlock: EZIPEK_clean_linker_0, # of connection points: 2
#     Edge 47, Type (0, 1), BuildingBlock: EZIPEK_clean_linker_0, # of connection points: 2
#     Edge 48, Type (0, 1), BuildingBlock: EZIPEK_clean_linker_0, # of connection points: 2
#     Edge 49, Type (0, 1), BuildingBlock: EZIPEK_clean_linker_0, # of connection points: 2
#     Edge 50, Type (0, 1), BuildingBlock: EZIPEK_clean_linker_0, # of connection points: 2
#     Edge 51, Type (0, 1), BuildingBlock: EZIPEK_clean_linker_0, # of connection points: 2
#     Edge 52, Type (0, 1), BuildingBlock: EZIPEK_clean_linker_0, # of connection points: 2
#     Edge 53, Type (0, 1), BuildingBlock: EZIPEK_clean_linker_0, # of connection points: 2
#     Edge 54, Type (0, 1), BuildingBlock: EZIPEK_clean_linker_0, # of connection points: 2
#     Edge 55, Type (0, 1), BuildingBlock: EZIPEK_clean_linker_0, # of connection points: 2
#     Edge 56, Type (0, 1), BuildingBlock: EZIPEK_clean_linker_0, # of connection points: 2
#     Edge 57, Type (0, 1), BuildingBlock: EZIPEK_clean_linker_0, # of connection points: 2
#     Edge 58, Type (0, 1), BuildingBlock: EZIPEK_clean_linker_0, # of connection points: 2
#     Edge 59, Type (0, 1), BuildingBlock: EZIPEK_clean_linker_0, # of connection points: 2
#     Edge 60, Type (0, 1), BuildingBlock: EZIPEK_clean_linker_0, # of connection points: 2
#     Edge 61, Type (0, 1), BuildingBlock: EZIPEK_clean_linker_0, # of connection points: 2
#     Edge 62, Type (0, 1), BuildingBlock: EZIPEK_clean_linker_0, # of connection points: 2
#     Edge 63, Type (0, 1), BuildingBlock: EZIPEK_clean_linker_0, # of connection points: 2
#     Edge 64, Type (0, 1), BuildingBlock: EZIPEK_clean_linker_0, # of connection points: 2
#     Edge 65, Type (0, 1), BuildingBlock: EZIPEK_clean_linker_0, # of connection points: 2
#     Edge 66, Type (0, 1), BuildingBlock: EZIPEK_clean_linker_0, # of connection points: 2
#     Edge 67, Type (0, 1), BuildingBlock: EZIPEK_clean_linker_0, # of connection points: 2
#     Edge 68, Type (0, 1), BuildingBlock: EZIPEK_clean_linker_0, # of connection points: 2
#     Edge 69, Type (0, 1), BuildingBlock: EZIPEK_clean_linker_0, # of connection points: 2
#     Edge 70, Type (0, 1), BuildingBlock: EZIPEK_clean_linker_0, # of connection points: 2
#     Edge 71, Type (0, 1), BuildingBlock: EZIPEK_clean_linker_0, # of connection points: 2
#     Edge 72, Type (0, 1), BuildingBlock: EZIPEK_clean_linker_0, # of connection points: 2
#     Edge 73, Type (0, 1), BuildingBlock: EZIPEK_clean_linker_0, # of connection points: 2
#     Edge 74, Type (0, 1), BuildingBlock: EZIPEK_clean_linker_0, # of connection points: 2
#     Edge 75, Type (0, 1), BuildingBlock: EZIPEK_clean_linker_0, # of connection points: 2
# Relax obj value: 0.066
# Max RMSD: 0.181
# Mean RMSD: 0.115
data_MOF--net-ctn--node1-UXUYUI_clean_sbu_0--node2-PAMTOO_clean_linker_0--edge1-EZIPEK_clean_linker_0
_symmetry_space_group_name_H-M    P1
_symmetry_Int_Tables_number       1
_symmetry_cell_setting            triclinic
loop_
_symmetry_equiv_pos_as_xyz
'x, y, z'
_cell_length_a     51.46658
_cell_length_b     51.796189
_cell_length_c     52.815797
_cell_angle_alpha  85.337365
_cell_angle_beta   92.341506
_cell_angle_gamma 97.190367
loop_
_atom_site_label
_atom_site_type_symbol
_atom_site_fract_x
_atom_site_fract_y
_atom_site_fract_z
_atom_type_partial_charge
H0 H 0.01369 0.09692 0.07725 0.0
H1 H 0.05418 0.0317 0.10453 0.0
H2 H 0.07679 0.07617 0.03497 0.0
H3 H 0.06818 0.01494 0.03809 0.0
C4 C 0.08091 0.01294 0.05547 0.0
O5 O 0.08612 0.03639 0.06647 0.0
H6 H 0.069 0.99847 0.06833 0.0
C7 C 0.02861 0.08431 0.07499 0.0
C8 C 0.04488 0.08904 0.05403 0.0
C9 C 0.03184 0.06367 0.09329 0.0
C10 C 0.05141 0.0476 0.09042 0.0
C11 C 0.06733 0.05189 0.0692 0.0
C12 C 0.06413 0.07265 0.0511 0.0
H13 H 0.32077 0.69016 0.2907 0.0
H14 H 0.27926 0.70931 0.22052 0.0
H15 H 0.34689 0.75989 0.24391 0.0
H16 H 0.30185 0.78639 0.22863 0.0
C17 C 0.29284 0.77395 0.2136 0.0
O18 O 0.30781 0.7541 0.21056 0.0
H19 H 0.27334 0.76441 0.21977 0.0
C20 C 0.3186 0.70297 0.27367 0.0
C21 C 0.33667 0.72545 0.26919 0.0
C22 C 0.2981 0.69669 0.25594 0.0
C23 C 0.29525 0.71362 0.23412 0.0
C24 C 0.31239 0.73666 0.23019 0.0
C25 C 0.33345 0.7422 0.24731 0.0
H26 H 0.98004 0.52227 0.11477 0.0
H27 H 0.9516 0.48765 0.04586 0.0
H28 H 0.01494 0.45776 0.0897 0.0
H29 H 0.019 0.46685 0.03142 0.0
C30 C 0.99885 0.45746 0.02708 0.0
O31 O 0.98454 0.45261 0.04888 0.0
H32 H 0.99024 0.47215 0.01387 0.0
C33 C 0.98105 0.50797 0.10107 0.0
C34 C 0.99955 0.49012 0.10475 0.0
C35 C 0.96367 0.50719 0.07984 0.0
C36 C 0.965 0.4885 0.06223 0.0
C37 C 0.98363 0.47085 0.06566 0.0
C38 C 1.00079 0.47164 0.08694 0.0
H39 H 0.719 0.84676 0.27812 0.0
H40 H 0.69935 0.76817 0.25647 0.0
H41 H 0.7656 0.81655 0.2241 0.0
H42 H 0.7154 0.78026 0.1933 0.0
C43 C 0.72342 0.76323 0.20353 0.0
O44 O 0.73792 0.77037 0.22499 0.0
H45 H 0.70567 0.74989 0.2093 0.0
C46 C 0.72275 0.83106 0.26691 0.0
C47 C 0.74435 0.83441 0.25108 0.0
C48 C 0.70635 0.80727 0.26881 0.0
C49 C 0.71173 0.78673 0.25485 0.0
C50 C 0.73278 0.79024 0.23836 0.0
C51 C 0.74899 0.8141 0.23641 0.0
H52 H 0.10778 0.96442 0.53917 0.0
H53 H 0.03102 0.95072 0.50332 0.0
H54 H 0.08371 0.01809 0.47877 0.0
H55 H 0.03488 0.95861 0.44892 0.0
C56 C 0.03838 0.98028 0.44652 0.0
O57 O 0.03836 0.99068 0.46977 0.0
H58 H 0.05815 0.98443 0.4383 0.0
C59 C 0.0931 0.97014 0.52523 0.0
C60 C 0.09829 0.99345 0.50977 0.0
C61 C 0.06872 0.95461 0.52327 0.0
C62 C 0.04988 0.96244 0.50517 0.0
C63 C 0.05566 0.98473 0.48861 0.0
C64 C 0.07964 1.00046 0.4912 0.0
H65 H 0.19835 0.78224 0.82597 0.0
H66 H 0.21805 0.71799 0.78608 0.0
H67 H 0.25666 0.73579 0.85647 0.0
H68 H 0.29177 0.7176 0.82351 0.0
C69 C 0.27759 0.70779 0.80985 0.0
O70 O 0.2527 0.70476 0.81936 0.0
H71 H 0.27881 0.72144 0.79244 0.0
C72 C 0.21043 0.76732 0.82292 0.0
C73 C 0.22824 0.76132 0.84274 0.0
C74 C 0.20818 0.75392 0.80038 0.0
C75 C 0.2214 0.73144 0.80078 0.0
C76 C 0.23906 0.72528 0.82055 0.0
C77 C 0.24274 0.74044 0.84135 0.0
H78 H 0.94665 0.56725 0.53644 0.0
H79 H 0.96677 0.52775 0.47281 0.0
H80 H 0.02229 0.58732 0.50301 0.0
H81 H 0.01504 0.51389 0.47307 0.0
C82 C 0.02818 0.53256 0.47006 0.0
O83 O 0.01373 0.55343 0.46813 0.0
H84 H 0.04103 0.5331 0.48744 0.0
C85 C 0.9606 0.56443 0.52237 0.0
C86 C 0.98509 0.57986 0.52163 0.0
C87 C 0.95403 0.54544 0.50493 0.0
C88 C 0.9719 0.54221 0.48645 0.0
C89 C 0.99664 0.55694 0.48599 0.0
C90 C 1.00328 0.57566 0.50366 0.0
H91 H 0.77112 0.81475 0.86284 0.0
H92 H 0.83579 0.77765 0.8402 0.0
H93 H 0.80527 0.83671 0.78981 0.0
H94 H 0.82008 0.78728 0.76592 0.0
C95 C 0.83714 0.78458 0.77899 0.0
O96 O 0.8406 0.80394 0.79576 0.0
H97 H 0.83153 0.76521 0.7893 0.0
C98 C 0.78538 0.81251 0.84889 0.0
C99 C 0.7861 0.82806 0.82577 0.0
C100 C 0.80324 0.79422 0.85408 0.0
C101 C 0.8219 0.79161 0.83615 0.0
C102 C 0.82244 0.80663 0.81287 0.0
C103 C 0.80455 0.82485 0.80769 0.0
H104 H 0.26881 0.3135 0.36481 0.0
H105 H 0.32953 0.27301 0.33878 0.0
H106 H 0.29844 0.33246 0.28948 0.0
H107 H 0.31298 0.28485 0.26384 0.0
C108 C 0.32964 0.28104 0.27708 0.0
O109 O 0.33361 0.29968 0.29455 0.0
H110 H 0.32329 0.26146 0.28663 0.0
C111 C 0.28178 0.31028 0.35002 0.0
C112 C 0.28135 0.32521 0.32655 0.0
C113 C 0.29882 0.29106 0.35435 0.0
C114 C 0.31598 0.28739 0.33536 0.0
C115 C 0.31587 0.3023 0.31206 0.0
C116 C 0.29834 0.3209 0.30753 0.0
H117 H 0.48025 0.02154 0.61545 0.0
H118 H 0.45309 0.98969 0.54479 0.0
H119 H 0.51596 0.95861 0.58815 0.0
H120 H 0.45208 0.93713 0.53595 0.0
C121 C 0.47181 0.93319 0.54344 0.0
O122 O 0.48762 0.95647 0.54589 0.0
H123 H 0.46793 0.9226 0.56231 0.0
C124 C 0.48137 1.00776 0.60126 0.0
C125 C 0.49988 0.98986 0.60453 0.0
C126 C 0.46408 1.00767 0.57989 0.0
C127 C 0.46603 0.98985 0.56151 0.0
C128 C 0.48481 0.97237 0.56441 0.0
C129 C 0.50149 0.97221 0.586 0.0
H130 H 0.2228 0.33557 0.79394 0.0
H131 H 0.19673 0.26702 0.7559 0.0
H132 H 0.2711 0.30927 0.7386 0.0
H133 H 0.2362 0.2928 0.6956 0.0
C134 C 0.23052 0.27241 0.70351 0.0
O135 O 0.23857 0.26928 0.72869 0.0
H136 H 0.20878 0.26985 0.70182 0.0
C137 C 0.22756 0.32135 0.78161 0.0
C138 C 0.25236 0.32343 0.77037 0.0
C139 C 0.20784 0.30091 0.77695 0.0
C140 C 0.21171 0.28311 0.75935 0.0
C141 C 0.23478 0.28638 0.74581 0.0
C142 C 0.2545 0.30675 0.75073 0.0
H143 H 0.82337 0.1864 0.78687 0.0
H144 H 0.7741 0.20574 0.72203 0.0
H145 H 0.83888 0.2608 0.74392 0.0
H146 H 0.8051 0.23082 0.68012 0.0
C147 C 0.81018 0.25062 0.68696 0.0
O148 O 0.80025 0.25166 0.71069 0.0
H149 H 0.83195 0.25324 0.68806 0.0
C150 C 0.81855 0.20001 0.7712 0.0
C151 C 0.83376 0.22443 0.76742 0.0
C152 C 0.79688 0.1933 0.75501 0.0
C153 C 0.79073 0.21085 0.73467 0.0
C154 C 0.80606 0.23501 0.73054 0.0
C155 C 0.8273 0.24193 0.74707 0.0
H156 H 0.50802 0.59556 0.57442 0.0
H157 H 0.54465 0.52763 0.60092 0.0
H158 H 0.57199 0.5739 0.53388 0.0
H159 H 0.56027 0.51232 0.53518 0.0
C160 C 0.57281 0.50957 0.55258 0.0
O161 O 0.57836 0.53254 0.56435 0.0
H162 H 0.56054 0.49493 0.56497 0.0
C163 C 0.52253 0.58247 0.57226 0.0
C164 C 0.53977 0.58733 0.55201 0.0
C165 C 0.52427 0.56103 0.58999 0.0
C166 C 0.54312 0.54418 0.58725 0.0
C167 C 0.56009 0.54868 0.56685 0.0
C168 C 0.55853 0.5703 0.54938 0.0
H169 H 0.60713 0.46752 0.03859 0.0
H170 H 0.54057 0.44397 0.99002 0.0
H171 H 0.59124 0.51434 0.96981 0.0
H172 H 0.53404 0.51768 0.96329 0.0
C173 C 0.52785 0.49797 0.95661 0.0
O174 O 0.54904 0.4841 0.95653 0.0
H175 H 0.51356 0.48866 0.97084 0.0
C176 C 0.59512 0.47096 0.0216 0.0
C177 C 0.60185 0.49301 1.00483 0.0
C178 C 0.57308 0.45317 0.01628 0.0
C179 C 0.55762 0.45762 0.99424 0.0
C180 C 0.56405 0.47979 0.97766 0.0
C181 C 0.58621 0.49736 0.98286 0.0
H182 H 0.68987 0.27628 0.32419 0.0
H183 H 0.71212 0.21306 0.28507 0.0
H184 H 0.75916 0.24106 0.34854 0.0
H185 H 0.7889 0.22696 0.3034 0.0
C186 C 0.7743 0.21062 0.29774 0.0
O187 O 0.75369 0.20676 0.31408 0.0
H188 H 0.76754 0.21738 0.27833 0.0
C189 C 0.7032 0.26204 0.32201 0.0
C190 C 0.72505 0.26072 0.33867 0.0
C191 C 0.69857 0.24501 0.3025 0.0
C192 C 0.71572 0.22642 0.29993 0.0
C193 C 0.7376 0.2251 0.3164 0.0
C194 C 0.74231 0.24229 0.3357 0.0
H195 H 0.44781 0.07234 0.03287 0.0
H196 H 0.47399 0.02494 0.97818 0.0
H197 H 0.52595 0.08946 1.00446 0.0
H198 H 0.53036 0.08337 0.94913 0.0
C199 C 0.52275 0.06233 0.9491 0.0
O200 O 0.52065 0.05141 0.97379 0.0
H201 H 0.50312 0.06235 0.93947 0.0
C202 C 0.46297 0.06804 0.02075 0.0
C203 C 0.48746 0.08346 0.02058 0.0
C204 C 0.4581 0.04691 1.00551 0.0
C205 C 0.47768 0.04134 0.98985 0.0
C206 C 0.50201 0.05682 0.98922 0.0
C207 C 0.507 0.07769 1.00478 0.0
Li208 Li 0.28497 0.91784 0.01166 0.0
Li209 Li 0.2652 0.88232 0.03968 0.0
Li210 Li 0.25736 0.88213 0.99386 0.0
Li211 Li 0.23788 0.91215 0.0177 0.0
C212 C 0.31468 0.87633 0.02461 0.0
N213 N 0.3622 0.86759 0.04787 0.0
C214 C 0.32568 0.89204 0.04355 0.0
C215 C 0.32785 0.85617 0.0175 0.0
C216 C 0.34972 0.88733 0.05507 0.0
C217 C 0.35186 0.85206 0.02949 0.0
C218 C 0.25537 0.92514 0.06527 0.0
C219 C 0.22317 0.9136 0.09752 0.0
N220 N 0.23251 0.93548 0.1092 0.0
C221 C 0.26464 0.9475 0.07759 0.0
C222 C 0.23446 0.90802 0.0753 0.0
C223 C 0.25283 0.95239 0.09979 0.0
C224 C 0.31493 0.96664 0.01653 0.0
N225 N 0.31519 0.94301 1.0071 0.0
C226 C 0.35968 0.9544 0.99505 0.0
C227 C 0.33682 0.93678 0.99611 0.0
C228 C 0.36009 0.97859 1.00522 0.0
C229 C 0.33736 0.98491 0.01575 0.0
H230 H 0.29745 0.97105 0.02512 0.0
H231 H 0.33656 0.91786 0.98878 0.0
C232 C 0.262 0.83567 0.07247 0.0
N233 N 0.271 0.86157 0.07053 0.0
C234 C 0.26588 0.8205 0.09516 0.0
C235 C 0.28835 0.85893 0.1132 0.0
C236 C 0.28421 0.87326 0.09022 0.0
C237 C 0.27899 0.83233 0.11583 0.0
H238 H 0.25169 0.82687 0.05646 0.0
H239 H 0.29141 0.8938 0.08819 0.0
C240 C 0.26753 0.92821 0.96233 0.0
N241 N 0.28998 0.94432 0.91616 0.0
C242 C 0.25858 0.94881 0.9471 0.0
C243 C 0.28792 0.9158 0.9541 0.0
C244 C 0.27018 0.95667 0.92381 0.0
C245 C 0.299 0.92423 0.9307 0.0
C246 C 0.20788 0.86403 0.01015 0.0
C247 C 0.19748 0.87801 0.98919 0.0
C248 C 0.19436 0.84035 0.01957 0.0
C249 C 0.17365 0.86805 0.97802 0.0
C250 C 0.17057 0.83105 1.00787 0.0
N251 N 0.1608 0.84497 0.98751 0.0
C252 C 0.26044 0.83619 0.96936 0.0
C253 C 0.23915 0.86797 0.94443 0.0
C254 C 0.25668 0.81928 0.94985 0.0
N255 N 0.25179 0.86004 0.96629 0.0
C256 C 0.23506 0.85174 0.92441 0.0
C257 C 0.24392 0.82714 0.92709 0.0
H258 H 0.27025 0.83033 0.98702 0.0
H259 H 0.23221 0.88691 0.94251 0.0
C260 C 0.21235 0.95718 0.01611 0.0
N261 N 0.20875 0.93092 0.02179 0.0
C262 C 0.19278 0.97242 0.02089 0.0
C263 C 0.16595 0.93324 0.03679 0.0
C264 C 0.18615 0.91881 0.03204 0.0
C265 C 0.16928 0.96039 0.03138 0.0
H266 H 0.23072 0.96633 1.00844 0.0
H267 H 0.18401 0.89806 0.03717 0.0
O268 O 0.2911 0.88043 0.01306 0.0
O269 O 0.26645 0.92044 0.04323 0.0
O270 O 0.25635 0.92045 0.9852 0.0
O271 O 0.23142 0.87308 0.02119 0.0
H272 H 0.31582 0.90777 0.04928 0.0
H273 H 0.3196 0.84383 1.00286 0.0
H274 H 0.35845 0.89936 0.06973 0.0
H275 H 0.36226 0.83652 0.02418 0.0
H276 H 0.20696 0.90054 0.10545 0.0
H277 H 0.28077 0.96098 0.07007 0.0
H278 H 0.22695 0.89064 0.06604 0.0
H279 H 0.2598 0.96964 0.10951 0.0
H280 H 0.37701 0.94906 0.98682 0.0
H281 H 0.33719 1.00348 0.02375 0.0
H282 H 0.25846 0.79994 0.09672 0.0
H283 H 0.29859 0.86852 0.12885 0.0
H284 H 0.24282 0.95863 0.95324 0.0
H285 H 0.29509 0.89979 0.96556 0.0
H286 H 0.26344 0.9726 0.91183 0.0
H287 H 0.31477 0.91478 0.92409 0.0
H288 H 0.20767 0.89636 0.9816 0.0
H289 H 0.20221 0.82926 0.03573 0.0
H290 H 0.16539 0.87866 0.96178 0.0
H291 H 0.15989 0.81274 0.01496 0.0
H292 H 0.26372 0.80036 0.95239 0.0
H293 H 0.22512 0.85827 0.90703 0.0
H294 H 0.19601 0.99339 0.01676 0.0
H295 H 0.14814 0.92345 0.04517 0.0
Li296 Li 0.13316 0.50324 0.30989 0.0
Li297 Li 0.16222 0.47623 0.29229 0.0
Li298 Li 0.16647 0.52521 0.28154 0.0
Li299 Li 0.12983 0.49597 0.26313 0.0
C300 C 0.17487 0.50728 0.34052 0.0
N301 N 0.17921 0.51178 0.39238 0.0
C302 C 0.16553 0.48632 0.35743 0.0
C303 C 0.18693 0.53035 0.35006 0.0
C304 C 0.16774 0.48902 0.38355 0.0
C305 C 0.18883 0.53229 0.37632 0.0
C306 C 0.11787 0.44337 0.29438 0.0
C307 C 0.10646 0.40339 0.2738 0.0
N308 N 0.10845 0.3895 0.29663 0.0
C309 C 0.11952 0.42869 0.31768 0.0
C310 C 0.1111 0.43063 0.27228 0.0
C311 C 0.11481 0.40149 0.3184 0.0
C312 C 0.09651 0.48916 0.34958 0.0
N313 N 0.11401 0.50851 0.33903 0.0
C314 C 0.10515 0.53733 0.3699 0.0
C315 C 0.11876 0.53213 0.34894 0.0
C316 C 0.087 0.51776 0.3812 0.0
C317 C 0.08288 0.49332 0.37098 0.0
H318 H 0.09314 0.47053 0.34139 0.0
H319 H 0.13334 0.54688 0.34069 0.0
C320 C 0.19962 0.44751 0.31897 0.0
N321 N 0.18185 0.44686 0.29916 0.0
C322 C 0.21505 0.42724 0.32425 0.0
C323 C 0.19409 0.40606 0.28836 0.0
C324 C 0.17869 0.42652 0.28407 0.0
C325 C 0.2126 0.40637 0.30863 0.0
H326 H 0.20221 0.46398 0.33047 0.0
H327 H 0.16456 0.42636 0.26838 0.0
C328 C 0.12531 0.55318 0.26914 0.0
N329 N 0.11949 0.6024 0.2467 0.0
C330 C 0.12435 0.55769 0.24268 0.0
C331 C 0.1227 0.5737 0.28414 0.0
C332 C 0.12154 0.58268 0.2317 0.0
C333 C 0.11997 0.59844 0.27247 0.0
C334 C 0.17467 0.49604 0.23379 0.0
C335 C 0.17254 0.51775 0.21663 0.0
C336 C 0.18341 0.47384 0.22532 0.0
C337 C 0.1786 0.51668 0.19123 0.0
C338 C 0.1893 0.47351 0.19977 0.0
N339 N 0.18674 0.49475 0.18337 0.0
C340 C 0.20857 0.55882 0.25799 0.0
C341 C 0.18864 0.57607 0.29148 0.0
C342 C 0.22577 0.58179 0.25428 0.0
N343 N 0.1902 0.55652 0.27611 0.0
C344 C 0.20604 0.59902 0.28903 0.0
C345 C 0.22475 0.60214 0.27008 0.0
H346 H 0.21014 0.54276 0.2466 0.0
H347 H 0.17409 0.57367 0.30595 0.0
C348 C 0.08266 0.50194 0.23567 0.0
N349 N 0.1057 0.49185 0.23433 0.0
C350 C 0.06469 0.50143 0.21507 0.0
C351 C 0.094 0.47933 0.19229 0.0
C352 C 0.11139 0.48023 0.21334 0.0
C353 C 0.0705 0.49027 0.19301 0.0
H354 H 0.07848 0.5109 0.25261 0.0
H355 H 0.12937 0.47164 0.21283 0.0
O356 O 0.17209 0.50522 0.31482 0.0
O357 O 0.1228 0.47003 0.2932 0.0
O358 O 0.12832 0.52882 0.28029 0.0
O359 O 0.16845 0.49651 0.25873 0.0
H360 H 0.15644 0.46825 0.35041 0.0
H361 H 0.19483 0.54658 0.33739 0.0
H362 H 0.16031 0.47303 0.3968 0.0
H363 H 0.19797 0.55011 0.38393 0.0
H364 H 0.10136 0.3933 0.25681 0.0
H365 H 0.12439 0.43813 0.33504 0.0
H366 H 0.10968 0.44158 0.25411 0.0
H367 H 0.11618 0.3899 0.33629 0.0
H368 H 0.10885 0.55637 0.37734 0.0
H369 H 0.069 0.47779 0.37927 0.0
H370 H 0.2292 0.42811 0.34 0.0
H371 H 0.19175 0.39028 0.2759 0.0
H372 H 0.12555 0.54208 0.23063 0.0
H373 H 0.1229 0.57069 0.30458 0.0
H374 H 0.12091 0.58637 0.21124 0.0
H375 H 0.11819 0.6145 0.28392 0.0
H376 H 0.16671 0.53541 0.22289 0.0
H377 H 0.18567 0.45702 0.23828 0.0
H378 H 0.17695 0.53335 0.17778 0.0
H379 H 0.19594 0.45638 0.19298 0.0
H380 H 0.24011 0.58349 0.23959 0.0
H381 H 0.20484 0.61425 0.30168 0.0
H382 H 0.04663 0.50994 0.21619 0.0
H383 H 0.09888 0.47036 0.17557 0.0
Li384 Li 0.76931 0.6259 0.03375 0.0
Li385 Li 0.78802 0.65843 0.06217 0.0
Li386 Li 0.79758 0.66313 0.01611 0.0
Li387 Li 0.81674 0.63013 0.04435 0.0
C388 C 0.73781 0.66096 0.0245 0.0
N389 N 0.68579 0.65405 1.00827 0.0
C390 C 0.71805 0.65424 0.04209 0.0
C391 C 0.73101 0.66449 0.99865 0.0
C392 C 0.6919 0.65073 0.03352 0.0
C393 C 0.70464 0.66085 0.99083 0.0
C394 C 0.79652 0.6132 0.09143 0.0
C395 C 0.82711 0.62159 0.12649 0.0
N396 N 0.81667 0.59897 0.1391 0.0
C397 C 0.7861 0.59004 0.10472 0.0
C398 C 0.8172 0.62912 0.10237 0.0
C399 C 0.79655 0.58319 0.12881 0.0
C400 C 0.73104 0.5947 1.00476 0.0
N401 N 0.73901 0.6012 0.02853 0.0
C402 C 0.70305 0.57289 0.04662 0.0
C403 C 0.72557 0.59068 0.04933 0.0
C404 C 0.69445 0.56599 0.02228 0.0
C405 C 0.70864 0.57704 1.00118 0.0
H406 H 0.74194 0.60323 0.98856 0.0
H407 H 0.73226 0.5963 0.068 0.0
C408 C 0.79721 0.69811 0.09702 0.0
N409 N 0.78105 0.67652 0.0909 0.0
C410 C 0.79113 0.71252 0.11679 0.0
C411 C 0.75194 0.68217 0.12363 0.0
C412 C 0.75915 0.66798 0.10421 0.0
C413 C 0.76785 0.70496 0.12987 0.0
H414 H 0.81459 0.70435 0.08631 0.0
H415 H 0.74707 0.65033 0.09949 0.0
C416 C 0.80351 0.62254 0.98606 0.0
N417 N 0.81359 0.617 0.93586 0.0
C418 C 0.82598 0.61203 0.9799 0.0
C419 C 0.78613 0.63009 0.96662 0.0
C420 C 0.83074 0.60942 0.95444 0.0
C421 C 0.79158 0.62719 0.94139 0.0
C422 C 0.84672 0.67971 0.03675 0.0
C423 C 0.859 0.66718 0.01899 0.0
C424 C 0.8588 0.70341 0.04496 0.0
C425 C 0.8832 0.67846 0.00978 0.0
C426 C 0.88303 0.71408 0.03532 0.0
N427 N 0.89463 0.70148 0.01808 0.0
C428 C 0.78831 0.70908 0.98727 0.0
C429 C 0.81928 0.68683 0.96857 0.0
C430 C 0.78881 0.72753 0.96643 0.0
N431 N 0.80281 0.6888 0.98768 0.0
C432 C 0.82027 0.70478 0.94726 0.0
C433 C 0.80456 0.72511 0.94596 0.0
H434 H 0.77575 0.71052 1.00289 0.0
H435 H 0.83118 0.671 0.96948 0.0
C436 C 0.84111 0.58458 0.04569 0.0
N437 N 0.84521 0.60974 0.05198 0.0
C438 C 0.86058 0.56815 0.05063 0.0
C439 C 0.88804 0.60361 0.06903 0.0
C440 C 0.868 0.6194 0.06372 0.0
C441 C 0.88438 0.57771 0.06233 0.0
H442 H 0.82266 0.57732 0.03671 0.0
H443 H 0.87062 0.6393 0.06904 0.0
O444 O 0.76363 0.66356 0.03248 0.0
O445 O 0.7866 0.61998 0.06773 0.0
O446 O 0.79861 0.62529 0.01096 0.0
O447 O 0.8229 0.66905 0.04591 0.0
H448 H 0.72283 0.65129 0.0621 0.0
H449 H 0.74588 0.66991 0.98471 0.0
H450 H 0.67647 0.64524 0.04693 0.0
H451 H 0.69916 0.66339 0.97087 0.0
H452 H 0.84313 0.63371 0.13517 0.0
H453 H 0.77014 0.57745 0.09647 0.0
H454 H 0.82562 0.64706 0.09237 0.0
H455 H 0.78868 0.56531 0.13931 0.0
H456 H 0.69242 0.56464 0.06325 0.0
H457 H 0.70243 0.57202 0.98216 0.0
H458 H 0.80401 0.72981 0.12134 0.0
H459 H 0.73404 0.67558 0.13357 0.0
H460 H 0.83969 0.606 0.99459 0.0
H461 H 0.76887 0.63858 0.97088 0.0
H462 H 0.84808 0.60137 0.94945 0.0
H463 H 0.77836 0.63317 0.92619 0.0
H464 H 0.84998 0.64893 0.0124 0.0
H465 H 0.8496 0.71353 0.05858 0.0
H466 H 0.89288 0.6689 0.99604 0.0
H467 H 0.8926 0.73239 0.04153 0.0
H468 H 0.77659 0.74314 0.96598 0.0
H469 H 0.83278 0.70258 0.93177 0.0
H470 H 0.85715 0.5482 0.04537 0.0
H471 H 0.90616 0.61146 0.07826 0.0
Li472 Li 0.87849 0.05188 0.27622 0.0
Li473 Li 0.90828 0.02441 0.29616 0.0
Li474 Li 0.90869 0.03558 0.24859 0.0
Li475 Li 0.87242 1.0057 0.27022 0.0
C476 C 0.9236 0.08503 0.27714 0.0
N477 N 0.93604 0.13845 0.27782 0.0
C478 C 0.91896 0.09756 0.29869 0.0
C479 C 0.93469 0.09966 0.25598 0.0
C480 C 0.92532 0.12459 0.29864 0.0
C481 C 0.94084 0.12665 0.2567 0.0
C482 C 0.87186 0.0182 0.32801 0.0
C483 C 0.87733 0.98929 0.36552 0.0
N484 N 0.87756 0.00972 0.3802 0.0
C485 C 0.87219 0.03891 0.34349 0.0
C486 C 0.87442 0.99317 0.33913 0.0
C487 C 0.87504 0.03421 0.36982 0.0
C488 C 0.83808 0.07643 0.29505 0.0
N489 N 0.85899 0.08089 0.27965 0.0
C490 C 0.85087 0.12519 0.26997 0.0
C491 C 0.86512 0.10454 0.26663 0.0
C492 C 0.8298 0.12121 0.28639 0.0
C493 C 0.82316 0.09645 0.29877 0.0
H494 H 0.83294 0.05724 0.30443 0.0
H495 H 0.88101 0.10741 0.25358 0.0
C496 C 0.93693 0.03665 0.34192 0.0
N497 N 0.93142 0.01824 0.32487 0.0
C498 C 0.95349 0.0323 0.36303 0.0
C499 C 0.95892 0.99031 0.34844 0.0
C500 C 0.94217 0.99545 0.32765 0.0
C501 C 0.96467 0.00891 0.36634 0.0
H502 H 0.92832 0.05465 0.33929 0.0
H503 H 0.93783 0.98127 0.31371 0.0
C504 C 0.84982 0.04709 0.23418 0.0
N505 N 0.80818 0.07338 0.21716 0.0
C506 C 0.82457 0.03821 0.24241 0.0
C507 C 0.8539 0.06927 0.21722 0.0
C508 C 0.80378 0.0518 0.2336 0.0
C509 C 0.83258 0.0823 0.20885 0.0
C510 C 0.9087 0.97635 0.26061 0.0
C511 C 0.91317 0.97263 0.2353 0.0
C512 C 0.90197 0.9547 0.27769 0.0
C513 C 0.91067 0.94729 0.22747 0.0
C514 C 0.89966 0.92967 0.26911 0.0
N515 N 0.904 0.92652 0.24439 0.0
C516 C 0.9565 0.04052 0.22427 0.0
C517 C 0.92009 0.04576 0.1961 0.0
C518 C 0.97348 0.04394 0.20399 0.0
N519 N 0.9304 0.04152 0.21998 0.0
C520 C 0.9364 0.04946 0.17526 0.0
C521 C 0.9634 0.04849 0.17919 0.0
H522 H 0.96404 0.03691 0.24348 0.0
H523 H 0.89921 0.04602 0.19323 0.0
C524 C 0.8452 0.96629 0.24161 0.0
N525 N 0.84755 0.97578 0.26499 0.0
C526 C 0.8283 0.9436 0.23752 0.0
C527 C 0.81574 0.94152 0.28133 0.0
C528 C 0.8329 0.9642 0.28459 0.0
C529 C 0.81357 0.93092 0.25764 0.0
H530 H 0.85679 0.97614 0.22625 0.0
H531 H 0.83465 0.97245 0.30279 0.0
O532 O 0.91764 0.05857 0.27678 0.0
O533 O 0.86975 0.02252 0.30211 0.0
O534 O 0.87052 0.03456 0.24328 0.0
O535 O 0.91062 1.00106 0.26854 0.0
H536 H 0.90992 0.08669 0.31503 0.0
H537 H 0.93845 0.09033 0.23915 0.0
H538 H 0.92159 0.13457 0.31509 0.0
H539 H 0.94937 0.13821 0.24045 0.0
H540 H 0.87953 0.97006 0.37434 0.0
H541 H 0.87074 0.05851 0.3353 0.0
H542 H 0.87464 0.97698 0.32749 0.0
H543 H 0.87546 0.05009 0.38199 0.0
H544 H 0.85613 0.14403 0.25983 0.0
H545 H 0.80673 0.09276 0.31128 0.0
H546 H 0.9576 0.047 0.37658 0.0
H547 H 0.96736 0.97209 0.35053 0.0
H548 H 0.82113 0.02121 0.25572 0.0
H549 H 0.87339 0.07662 0.21097 0.0
H550 H 0.78415 0.04525 0.23992 0.0
H551 H 0.83547 0.09961 0.19588 0.0
H552 H 0.91829 0.98909 0.22176 0.0
H553 H 0.89822 0.95717 0.29728 0.0
H554 H 0.91396 0.94414 0.20792 0.0
H555 H 0.89433 0.91277 0.2821 0.0
H556 H 0.99424 0.04303 0.20756 0.0
H557 H 0.92809 0.05285 0.15629 0.0
H558 H 0.82697 0.93585 0.21901 0.0
H559 H 0.80447 0.93217 0.29716 0.0
Li560 Li 0.28574 0.15876 0.56408 0.0
Li561 Li 0.26634 0.1262 0.53636 0.0
Li562 Li 0.31463 0.12922 0.54891 0.0
Li563 Li 0.29464 0.16415 0.51983 0.0
C564 C 0.27696 0.116 0.5947 0.0
N565 N 0.26327 0.11038 0.64501 0.0
C566 C 0.25083 0.11579 0.60101 0.0
C567 C 0.29611 0.11313 0.61388 0.0
C568 C 0.24432 0.11301 0.6266 0.0
C569 C 0.28879 0.11033 0.63924 0.0
C570 C 0.24989 0.18254 0.5211 0.0
C571 C 0.22651 0.19773 0.48335 0.0
N572 N 0.2302 0.22236 0.49109 0.0
C573 C 0.25342 0.20805 0.52866 0.0
C574 C 0.23633 0.17737 0.49823 0.0
C575 C 0.24332 0.22788 0.51324 0.0
C576 C 0.29415 0.17867 0.61418 0.0
N577 N 0.27756 0.17602 0.59353 0.0
C578 C 0.24697 0.19941 0.61233 0.0
C579 C 0.25388 0.18522 0.59281 0.0
C580 C 0.26439 0.20368 0.63305 0.0
C581 C 0.28799 0.19268 0.63422 0.0
H582 H 0.31222 0.17007 0.61513 0.0
H583 H 0.24036 0.18174 0.57693 0.0
C584 C 0.239 0.07543 0.53346 0.0
N585 N 0.23632 0.10134 0.53095 0.0
C586 C 0.2173 0.05684 0.52986 0.0
C587 C 0.19041 0.0919 0.52175 0.0
C588 C 0.21259 0.10979 0.52555 0.0
C589 C 0.19272 0.06512 0.52388 0.0
H590 H 0.258 0.06924 0.53833 0.0
H591 H 0.2108 0.13039 0.52452 0.0
C592 C 0.33372 0.18475 0.56565 0.0
N593 N 0.35916 0.21793 0.59972 0.0
C594 C 0.32747 0.21022 0.56601 0.0
C595 C 0.35288 0.17616 0.58274 0.0
C596 C 0.34051 0.22668 0.58338 0.0
C597 C 0.36557 0.19325 0.59975 0.0
C598 C 0.28866 0.10709 0.49891 0.0
C599 C 0.3004 0.08406 0.50114 0.0
C600 C 0.26782 0.10957 0.48141 0.0
C601 C 0.29076 0.06372 0.48618 0.0
C602 C 0.2587 0.08877 0.46684 0.0
N603 N 0.27025 0.06645 0.46953 0.0
C604 C 0.33705 0.08315 0.5635 0.0
C605 C 0.36842 0.11932 0.55213 0.0
C606 C 0.35676 0.06685 0.5676 0.0
N607 N 0.34313 0.1088 0.55571 0.0
C608 C 0.38884 0.10394 0.55697 0.0
C609 C 0.38308 0.07724 0.56449 0.0
H610 H 0.31676 0.07523 0.56598 0.0
H611 H 0.37274 0.13967 0.54552 0.0
C612 C 0.30367 0.21445 0.49246 0.0
N613 N 0.30043 0.18826 0.49013 0.0
C614 C 0.30424 0.23202 0.47091 0.0
C615 C 0.30004 0.19548 0.44476 0.0
C616 C 0.29918 0.1786 0.46684 0.0
C617 C 0.30205 0.2225 0.44673 0.0
H618 H 0.30482 0.2218 0.51103 0.0
H619 H 0.29696 0.15779 0.46535 0.0
O620 O 0.28383 0.1196 0.56985 0.0
O621 O 0.2599 0.16284 0.53584 0.0
O622 O 0.32126 0.16834 0.54868 0.0
O623 O 0.29741 0.127 0.51386 0.0
H624 H 0.23582 0.1181 0.58631 0.0
H625 H 0.31644 0.11338 0.60923 0.0
H626 H 0.22421 0.11303 0.63181 0.0
H627 H 0.30341 0.10825 0.65432 0.0
H628 H 0.21602 0.19395 0.46561 0.0
H629 H 0.26429 0.21266 0.54598 0.0
H630 H 0.23347 0.15788 0.49191 0.0
H631 H 0.24607 0.2477 0.51882 0.0
H632 H 0.22835 0.20721 0.61117 0.0
H633 H 0.3016 0.1952 0.65027 0.0
H634 H 0.21958 0.03626 0.53189 0.0
H635 H 0.17159 0.09881 0.51747 0.0
H636 H 0.31235 0.21709 0.55342 0.0
H637 H 0.35759 0.15639 0.58329 0.0
H638 H 0.33571 0.24636 0.58394 0.0
H639 H 0.38035 0.1868 0.61311 0.0
H640 H 0.31678 0.08188 0.51424 0.0
H641 H 0.25854 0.12724 0.47933 0.0
H642 H 0.2996 0.04574 0.48783 0.0
H643 H 0.24239 0.09036 0.45346 0.0
H644 H 0.35155 0.04634 0.57324 0.0
H645 H 0.40891 0.11264 0.55437 0.0
H646 H 0.30589 0.25278 0.47306 0.0
H647 H 0.29847 0.18754 0.42633 0.0
Li648 Li 0.40907 0.5243 0.79345 0.0
Li649 Li 0.37377 0.54911 0.77266 0.0
Li650 Li 0.37113 0.50159 0.76945 0.0
Li651 Li 0.40266 0.53099 0.74699 0.0
C652 C 0.35102 0.52638 0.81426 0.0
N653 N 0.31007 0.54079 0.83998 0.0
C654 C 0.35584 0.54506 0.83211 0.0
C655 C 0.32536 0.51509 0.80944 0.0
C656 C 0.33488 0.55205 0.84494 0.0
C657 C 0.30493 0.52263 0.82266 0.0
C658 C 0.42909 0.57572 0.75876 0.0
C659 C 0.43771 0.61433 0.73019 0.0
N660 N 0.46341 0.61059 0.73021 0.0
C661 C 0.45559 0.57233 0.75862 0.0
C662 C 0.42004 0.59692 0.7445 0.0
C663 C 0.47262 0.59014 0.74401 0.0
C664 C 0.45807 0.51719 0.81754 0.0
N665 N 0.43279 0.52041 0.82166 0.0
C666 C 0.44048 0.51567 0.86664 0.0
C667 C 0.42374 0.51957 0.84558 0.0
C668 C 0.46664 0.51241 0.86292 0.0
C669 C 0.47549 0.51314 0.83808 0.0
H670 H 0.46456 0.51729 0.79832 0.0
H671 H 0.40343 0.52151 0.84832 0.0
C672 C 0.32773 0.57429 0.7724 0.0
N673 N 0.35398 0.57699 0.7777 0.0
C674 C 0.31284 0.59401 0.77735 0.0
C675 C 0.35233 0.61902 0.79278 0.0
C676 C 0.3664 0.59872 0.78779 0.0
C677 C 0.32524 0.61671 0.78758 0.0
H678 H 0.31834 0.55665 0.76465 0.0
H679 H 0.38721 0.60014 0.79223 0.0
C680 C 0.40987 0.47281 0.76764 0.0
N681 N 0.40874 0.41928 0.76856 0.0
C682 C 0.40296 0.45996 0.74564 0.0
C683 C 0.41652 0.4585 0.79004 0.0
C684 C 0.4024 0.43286 0.74651 0.0
C685 C 0.41578 0.43144 0.79012 0.0
C686 C 0.35955 0.5352 0.71769 0.0
C687 C 0.36219 0.51707 0.70005 0.0
C688 C 0.35255 0.55976 0.7093 0.0
C689 C 0.35816 0.52397 0.67419 0.0
C690 C 0.34861 0.56588 0.68328 0.0
N691 N 0.35151 0.54803 0.66641 0.0
C692 C 0.33261 0.4623 0.75044 0.0
C693 C 0.35066 0.45301 0.79174 0.0
C694 C 0.31748 0.43785 0.7515 0.0
N695 N 0.34892 0.46922 0.77033 0.0
C696 C 0.33625 0.42833 0.79345 0.0
C697 C 0.31948 0.42055 0.77315 0.0
H698 H 0.33146 0.47567 0.73374 0.0
H699 H 0.36358 0.45919 0.80736 0.0
C700 C 0.44173 0.52055 0.71474 0.0
N701 N 0.42297 0.53657 0.71666 0.0
C702 C 0.45813 0.52398 0.694 0.0
C703 C 0.43569 0.56033 0.67741 0.0
C704 C 0.41983 0.55631 0.69856 0.0
C705 C 0.45511 0.54407 0.67512 0.0
H706 H 0.44427 0.50532 0.72954 0.0
H707 H 0.40536 0.56928 0.70068 0.0
O708 O 0.37121 0.51974 0.80106 0.0
O709 O 0.41202 0.55823 0.77257 0.0
O710 O 0.40976 0.49922 0.76733 0.0
O711 O 0.36335 0.52882 0.74308 0.0
H712 H 0.3755 0.5544 0.83569 0.0
H713 H 0.3212 0.50086 0.79547 0.0
H714 H 0.33832 0.56653 0.85873 0.0
H715 H 0.28497 0.5141 0.81907 0.0
H716 H 0.43096 0.63073 0.71894 0.0
H717 H 0.46287 0.55598 0.76945 0.0
H718 H 0.39953 0.59966 0.74415 0.0
H719 H 0.49316 0.58766 0.74358 0.0
H720 H 0.43307 0.51491 0.88562 0.0
H721 H 0.49553 0.51039 0.83468 0.0
H722 H 0.29191 0.5916 0.77334 0.0
H723 H 0.36239 0.63622 0.80088 0.0
H724 H 0.39786 0.47078 0.72814 0.0
H725 H 0.42182 0.46813 0.80727 0.0
H726 H 0.39686 0.42263 0.72969 0.0
H727 H 0.42069 0.42008 0.80736 0.0
H728 H 0.36753 0.49797 0.70623 0.0
H729 H 0.35045 0.57404 0.72268 0.0
H730 H 0.36034 0.51021 0.6603 0.0
H731 H 0.34333 0.58486 0.6765 0.0
H732 H 0.30462 0.43236 0.73557 0.0
H733 H 0.33814 0.41539 0.81042 0.0
H734 H 0.47313 0.51125 0.69276 0.0
H735 H 0.43312 0.57616 0.66319 0.0
Li736 Li 0.77933 0.41771 0.50803 0.0
Li737 Li 0.75913 0.3789 0.5348 0.0
Li738 Li 0.75203 0.38416 0.48834 0.0
Li739 Li 0.73155 0.41172 0.5131 0.0
C740 C 0.81152 0.38269 0.50784 0.0
N741 N 0.86561 0.38989 0.50827 0.0
C742 C 0.82581 0.38075 0.53085 0.0
C743 C 0.8247 0.38817 0.48505 0.0
C744 C 0.85317 0.38448 0.53066 0.0
C745 C 0.85207 0.3918 0.48568 0.0
C746 C 0.75166 0.43462 0.55392 0.0
C747 C 0.72323 0.44569 0.58551 0.0
N748 N 0.73237 0.47135 0.58074 0.0
C749 C 0.76071 0.46111 0.54927 0.0
C750 C 0.73267 0.42684 0.5721 0.0
C751 C 0.75073 0.47937 0.56305 0.0
C752 C 0.81859 0.45492 0.48444 0.0
N753 N 0.81017 0.44236 0.50678 0.0
C754 C 0.8467 0.46381 0.52948 0.0
C755 C 0.82364 0.4465 0.52908 0.0
C756 C 0.856 0.47674 0.50667 0.0
C757 C 0.84172 0.47224 0.48393 0.0
H758 H 0.80751 0.45133 0.46701 0.0
H759 H 0.81649 0.43618 0.54654 0.0
C760 C 0.77125 0.33169 0.56012 0.0
N761 N 0.76515 0.35588 0.56381 0.0
C762 C 0.77742 0.31478 0.58086 0.0
C763 C 0.77097 0.34802 0.60881 0.0
C764 C 0.76505 0.36432 0.58753 0.0
C765 C 0.7774 0.32303 0.60548 0.0
H766 H 0.77187 0.32575 0.54101 0.0
H767 H 0.76092 0.38388 0.58993 0.0
C768 C 0.74501 0.4258 0.45686 0.0
N769 N 0.73194 0.43175 0.40565 0.0
C770 C 0.72017 0.43205 0.4489 0.0
C771 C 0.76327 0.42275 0.43879 0.0
C772 C 0.71394 0.43497 0.42291 0.0
C773 C 0.75625 0.42575 0.41298 0.0
C774 C 0.70871 0.35488 0.5037 0.0
C775 C 0.68655 0.36178 0.48986 0.0
C776 C 0.71422 0.32905 0.50517 0.0
C777 C 0.67032 0.34268 0.47757 0.0
C778 C 0.69753 0.31054 0.49256 0.0
N779 N 0.67611 0.31768 0.47913 0.0
C780 C 0.76492 0.34582 0.45732 0.0
C781 C 0.72714 0.36489 0.44225 0.0
C782 C 0.76214 0.32916 0.43759 0.0
N783 N 0.74756 0.36328 0.45932 0.0
C784 C 0.72372 0.34873 0.42215 0.0
C785 C 0.74132 0.33057 0.41981 0.0
H786 H 0.78072 0.34453 0.47131 0.0
H787 H 0.7132 0.37841 0.44441 0.0
C788 C 0.70483 0.4562 0.51218 0.0
N789 N 0.70232 0.42995 0.51796 0.0
C790 C 0.68475 0.47061 0.51739 0.0
C791 C 0.65949 0.43058 0.53362 0.0
C792 C 0.68026 0.417 0.5285 0.0
C793 C 0.66176 0.45773 0.52823 0.0
H794 H 0.72272 0.46599 0.50403 0.0
H795 H 0.67899 0.3962 0.53335 0.0
O796 O 0.78474 0.37987 0.50766 0.0
O797 O 0.76081 0.41648 0.54027 0.0
O798 O 0.75149 0.423 0.48222 0.0
O799 O 0.72505 0.37338 0.51556 0.0
H800 H 0.81591 0.37675 0.54868 0.0
H801 H 0.8139 0.38982 0.4671 0.0
H802 H 0.8645 0.38318 0.54832 0.0
H803 H 0.86255 0.39619 0.4682 0.0
H804 H 0.70852 0.43993 0.59961 0.0
H805 H 0.77505 0.46756 0.53497 0.0
H806 H 0.72495 0.40649 0.5755 0.0
H807 H 0.75751 0.49994 0.5596 0.0
H808 H 0.85736 0.46687 0.54731 0.0
H809 H 0.84849 0.48193 0.46603 0.0
H810 H 0.78248 0.29563 0.57774 0.0
H811 H 0.77097 0.35494 0.62762 0.0
H812 H 0.70579 0.43444 0.46263 0.0
H813 H 0.78249 0.41769 0.44461 0.0
H814 H 0.69475 0.4397 0.41648 0.0
H815 H 0.7701 0.42323 0.39879 0.0
H816 H 0.68218 0.38175 0.48825 0.0
H817 H 0.73133 0.32342 0.51571 0.0
H818 H 0.6532 0.34777 0.46665 0.0
H819 H 0.70164 0.29051 0.49339 0.0
H820 H 0.77593 0.31517 0.43631 0.0
H821 H 0.70732 0.35007 0.4088 0.0
H822 H 0.68715 0.49157 0.5132 0.0
H823 H 0.64206 0.42013 0.54216 0.0
Li824 Li 0.66411 0.97595 0.79109 0.0
Li825 Li 0.63334 1.00051 0.80981 0.0
Li826 Li 0.6301 0.99339 0.76221 0.0
Li827 Li 0.66643 0.02149 0.78075 0.0
C828 C 0.62387 0.94133 0.79821 0.0
N829 N 0.62514 0.8885 0.80941 0.0
C830 C 0.62548 0.93122 0.82349 0.0
C831 C 0.62273 0.92462 0.77861 0.0
C832 C 0.62613 0.90443 0.82876 0.0
C833 C 0.62344 0.89794 0.78468 0.0
C834 C 0.67938 0.02057 0.83308 0.0
C835 C 0.67688 0.06168 0.85073 0.0
N836 N 0.69391 0.0551 0.86984 0.0
C837 C 0.69691 0.01425 0.85286 0.0
C838 C 0.66933 0.04449 0.83197 0.0
C839 C 0.704 0.03196 0.87127 0.0
C840 C 0.6928 0.94099 0.82172 0.0
N841 N 0.68433 0.94726 0.79753 0.0
C842 C 0.70649 0.91405 0.78198 0.0
C843 C 0.69069 0.93418 0.77778 0.0
C844 C 0.71577 0.90746 0.8067 0.0
C845 C 0.70862 0.92098 0.82678 0.0
H846 H 0.68741 0.95168 0.83706 0.0
H847 H 0.68373 0.93963 0.75873 0.0
C848 C 0.59062 0.01646 0.83292 0.0
N849 N 0.61306 1.00545 0.8381 0.0
C850 C 0.57632 0.02347 0.85263 0.0
C851 C 0.60779 1.00654 0.88279 0.0
C852 C 0.62161 0.99997 0.86244 0.0
C853 C 0.58515 0.01889 0.87785 0.0
H854 H 0.58418 0.02038 0.81339 0.0
H855 H 0.63946 0.99108 0.86604 0.0
C856 C 0.68835 1.0056 0.7427 0.0
N857 N 0.72997 0.03155 0.71582 0.0
C858 C 0.6838 0.02226 0.72125 0.0
C859 C 0.71402 1.00197 0.75039 0.0
C860 C 0.70512 0.03525 0.70795 0.0
C861 C 0.73481 0.0153 0.73656 0.0
C862 C 0.62016 0.04801 0.76902 0.0
C863 C 0.61756 0.05212 0.74258 0.0
C864 C 0.61317 0.06669 0.78433 0.0
C865 C 0.60822 0.07488 0.73191 0.0
C866 C 0.60396 0.08923 0.77292 0.0
N867 N 0.60169 0.09283 0.74717 0.0
C868 C 0.58066 0.99258 0.7373 0.0
C869 C 0.61423 0.98319 0.71124 0.0
C870 C 0.56274 0.99202 0.71668 0.0
N871 N 0.6059 0.98851 0.73415 0.0
C872 C 0.59693 0.9824 0.6901 0.0
C873 C 0.57097 0.98716 0.69272 0.0
H874 H 0.57469 0.99704 0.7557 0.0
H875 H 0.63445 0.9802 0.70926 0.0
C876 C 0.71523 0.0526 0.78632 0.0
N877 N 0.6911 0.05261 0.77471 0.0
C878 C 0.73387 0.07461 0.78359 0.0
C879 C 0.70285 0.09614 0.75652 0.0
C880 C 0.68487 0.0737 0.75968 0.0
C881 C 0.72753 0.09672 0.76874 0.0
H882 H 0.71999 0.03547 0.79778 0.0
H883 H 0.66607 0.07327 0.75002 0.0
O884 O 0.62432 0.96759 0.79264 0.0
O885 O 0.67213 1.00326 0.81506 0.0
O886 O 0.66781 0.99345 0.75653 0.0
O887 O 0.6286 0.02546 0.77989 0.0
H888 H 0.62656 0.944 0.83884 0.0
H889 H 0.62167 0.93224 0.75894 0.0
H890 H 0.62756 0.89633 0.84823 0.0
H891 H 0.62276 0.88477 0.76972 0.0
H892 H 0.66923 0.08025 0.85007 0.0
H893 H 0.70492 0.99582 0.85399 0.0
H894 H 0.65595 0.04977 0.81675 0.0
H895 H 0.71752 0.0273 0.8867 0.0
H896 H 0.71173 0.90398 0.7661 0.0
H897 H 0.71551 0.91632 0.84606 0.0
H898 H 0.55879 0.03278 0.84825 0.0
H899 H 0.61495 1.00258 0.90211 0.0
H900 H 0.66404 0.02535 0.71511 0.0
H901 H 0.71787 0.9893 0.76709 0.0
H902 H 0.70191 0.04836 0.69141 0.0
H903 H 0.7548 0.01284 0.74239 0.0
H904 H 0.62314 0.03817 0.73034 0.0
H905 H 0.61473 0.06384 0.80482 0.0
H906 H 0.60626 0.07833 0.71148 0.0
H907 H 0.59854 0.10384 0.78456 0.0
H908 H 0.54284 0.99583 0.71924 0.0
H909 H 0.60382 0.97862 0.6718 0.0
H910 H 0.75289 0.07452 0.79313 0.0
H911 H 0.69755 0.11291 0.74475 0.0
Li912 Li 0.04281 0.27695 0.89008 0.0
Li913 Li 0.01646 0.29769 0.92087 0.0
Li914 Li 0.02205 0.24971 0.92456 0.0
Li915 Li 0.99582 0.26682 0.89111 0.0
C916 C 0.07499 0.29083 0.929 0.0
N917 N 0.12691 0.31237 0.93107 0.0
C918 C 0.08164 0.3165 0.93553 0.0
C919 C 0.09481 0.27606 0.92371 0.0
C920 C 0.10798 0.32703 0.93645 0.0
C921 C 0.12092 0.28732 0.92478 0.0
C922 C 1.00622 0.31098 0.86084 0.0
C923 C 0.97968 0.3398 0.83643 0.0
N924 N 0.98381 0.32801 0.8151 0.0
C925 C 0.01035 0.29924 0.83868 0.0
C926 C 0.99086 0.33148 0.85975 0.0
C927 C 0.99878 0.30809 0.81574 0.0
C928 C 0.08798 0.3065 0.86725 0.0
N929 N 0.07177 0.28359 0.86769 0.0
C930 C 0.09681 0.26792 0.8363 0.0
C931 C 0.07533 0.26481 0.85204 0.0
C932 C 0.11441 0.29082 0.83635 0.0
C933 C 0.10971 0.31049 0.8517 0.0
H934 H 0.08429 0.32148 0.87928 0.0
H935 H 0.06154 0.2473 0.85182 0.0
C936 C 1.00689 0.32184 0.96451 0.0
N937 N 0.01356 0.32704 0.93979 0.0
C938 C 1.00386 0.34216 0.97955 0.0
C939 C 0.01526 0.37294 0.94364 0.0
C940 C 0.01785 0.35197 0.92917 0.0
C941 C 1.00803 0.36803 0.96908 0.0
H942 H 1.00367 0.30181 0.97243 0.0
H943 H 0.02334 0.35554 0.90953 0.0
C944 C 0.02552 0.21669 0.89247 0.0
N945 N 0.03279 0.16483 0.90298 0.0
C946 C 1.00397 0.19767 0.89647 0.0
C947 C 0.05079 0.20926 0.89397 0.0
C948 C 1.00805 0.17159 0.90173 0.0
C949 C 0.05404 0.18297 0.89925 0.0
C950 C 0.96306 0.26489 0.92796 0.0
C951 C 0.94789 0.24114 0.92397 0.0
C952 C 0.95067 0.28685 0.93135 0.0
C953 C 0.92059 0.2398 0.92325 0.0
C954 C 0.92332 0.28468 0.93059 0.0
N955 N 0.90897 0.26141 0.92655 0.0
C956 C 0.05069 0.21498 0.95559 0.0
C957 C 1.00465 0.20703 0.95986 0.0
C958 C 0.05424 0.19351 0.97255 0.0
N959 N 0.02618 0.22111 0.94932 0.0
C960 C 1.0073 0.18543 0.97699 0.0
C961 C 0.03233 0.17847 0.98331 0.0
H962 H 0.06748 0.22651 0.94711 0.0
H963 H 0.98543 0.21241 0.95482 0.0
C964 C 0.96385 0.23933 0.85478 0.0
N965 N 0.96549 0.26037 0.86884 0.0
C966 C 0.94232 0.23365 0.83837 0.0
C967 C 0.92507 0.27217 0.85009 0.0
C968 C 0.94674 0.27686 0.86662 0.0
C969 C 0.92264 0.25018 0.83593 0.0
H970 H 0.97938 0.22705 0.85609 0.0
H971 H 0.94866 0.29375 0.87758 0.0
O972 O 0.04926 0.28025 0.92786 0.0
O973 O 0.01674 0.30207 0.88358 0.0
O974 O 0.02194 0.24246 0.88789 0.0
O975 O 0.98986 0.26672 0.92835 0.0
H976 H 0.06665 0.3282 0.93983 0.0
H977 H 0.0901 0.25633 0.91825 0.0
H978 H 0.11338 0.34689 0.94141 0.0
H979 H 0.1364 0.2762 0.92047 0.0
H980 H 0.96762 0.35555 0.83531 0.0
H981 H 0.022 0.28319 0.83926 0.0
H982 H 0.98734 0.34062 0.8768 0.0
H983 H 1.00162 0.29906 0.79846 0.0
H984 H 0.09982 0.25255 0.82439 0.0
H985 H 0.12293 0.32847 0.85195 0.0
H986 H 0.99833 0.33779 0.99915 0.0
H987 H 0.01869 0.39275 0.93509 0.0
H988 H 0.9843 0.20297 0.89586 0.0
H989 H 0.06779 0.22364 0.89158 0.0
H990 H 0.99154 0.15672 0.90497 0.0
H991 H 0.07349 0.17702 0.90056 0.0
H992 H 0.95704 0.22402 0.92099 0.0
H993 H 0.96197 0.30547 0.93417 0.0
H994 H 0.90864 0.22159 0.91994 0.0
H995 H 0.9135 0.30154 0.93307 0.0
H996 H 0.07382 0.18861 0.97718 0.0
H997 H 0.99004 0.17421 0.98515 0.0
H998 H 0.94113 0.21668 0.82747 0.0
H999 H 0.91031 0.28543 0.84843 0.0
Li1000 Li 0.54671 0.77947 0.38942 0.0
Li1001 Li 0.52138 0.79781 0.42157 0.0
Li1002 Li 0.52805 0.75166 0.42398 0.0
Li1003 Li 0.4996 0.76842 0.39114 0.0
C1004 C 0.58153 0.78937 0.42436 0.0
N1005 N 0.63446 0.80427 0.41754 0.0
C1006 C 0.59178 0.81571 0.42391 0.0
C1007 C 0.59822 0.77067 0.42097 0.0
C1008 C 0.6186 0.82283 0.42059 0.0
C1009 C 0.6249 0.77858 0.41762 0.0
C1010 C 0.50674 0.8131 0.3629 0.0
C1011 C 0.46923 0.83119 0.34317 0.0
N1012 N 0.47911 0.82967 0.31991 0.0
C1013 C 0.51657 0.81181 0.3388 0.0
C1014 C 0.48297 0.82302 0.36513 0.0
C1015 C 0.5023 0.82028 0.31731 0.0
C1016 C 0.58261 0.76548 0.35539 0.0
N1017 N 0.57523 0.78609 0.3665 0.0
C1018 C 0.60911 0.81507 0.34576 0.0
C1019 C 0.58767 0.81067 0.36166 0.0
C1020 C 0.61731 0.79401 0.33445 0.0
C1021 C 0.60373 0.76903 0.33917 0.0
H1022 H 0.57214 0.74625 0.35915 0.0
H1023 H 0.58109 0.82681 0.37035 0.0
C1024 C 0.53509 0.83547 0.45845 0.0
N1025 N 0.51615 0.82575 0.44183 0.0
C1026 C 0.53007 0.8543 0.47453 0.0
C1027 C 0.48577 0.85185 0.45708 0.0
C1028 C 0.49179 0.83346 0.44099 0.0
C1029 C 0.50505 0.86245 0.47413 0.0
H1030 H 0.5538 0.82803 0.45988 0.0
H1031 H 0.47677 0.82467 0.42838 0.0
C1032 C 0.52405 0.71831 0.38953 0.0
N1033 N 0.5195 0.66444 0.39586 0.0
C1034 C 0.49949 0.70357 0.38733 0.0
C1035 C 0.54631 0.70561 0.39482 0.0
C1036 C 0.49761 0.67636 0.39059 0.0
C1037 C 0.54359 0.67838 0.39803 0.0
C1038 C 0.48835 0.76499 0.45303 0.0
C1039 C 0.50798 0.76909 0.47191 0.0
C1040 C 0.46221 0.7593 0.45994 0.0
C1041 C 0.50109 0.76751 0.49734 0.0
C1042 C 0.45612 0.75787 0.48559 0.0
N1043 N 0.47552 0.76198 0.5036 0.0
C1044 C 0.55432 0.71861 0.46014 0.0
C1045 C 0.50931 0.70479 0.45189 0.0
C1046 C 0.55627 0.69667 0.47698 0.0
N1047 N 0.5312 0.72204 0.44769 0.0
C1048 C 0.51028 0.68277 0.46883 0.0
C1049 C 0.53405 0.67849 0.48143 0.0
H1050 H 0.57122 0.73294 0.45715 0.0
H1051 H 0.49107 0.70818 0.44202 0.0
C1052 C 0.47224 0.75714 0.34547 0.0
N1053 N 0.46886 0.7611 0.37021 0.0
C1054 C 0.45058 0.7518 0.32914 0.0
C1055 C 0.4223 0.75369 0.36424 0.0
C1056 C 0.44455 0.75956 0.3798 0.0
C1057 C 0.42526 0.74985 0.33855 0.0
H1058 H 0.49182 0.75815 0.33847 0.0
H1059 H 0.44247 0.76276 0.39954 0.0
O1060 O 0.55521 0.782 0.42716 0.0
O1061 O 0.5201 0.80431 0.38415 0.0
O1062 O 0.52624 0.74501 0.38706 0.0
O1063 O 0.49449 0.76672 0.4279 0.0
H1064 H 0.57915 0.83065 0.42535 0.0
H1065 H 0.59063 0.75033 0.42031 0.0
H1066 H 0.62674 0.84315 0.42013 0.0
H1067 H 0.63797 0.7643 0.41488 0.0
H1068 H 0.45068 0.83867 0.34461 0.0
H1069 H 0.53483 0.80405 0.33666 0.0
H1070 H 0.47498 0.82399 0.38358 0.0
H1071 H 0.5096 0.81926 0.29854 0.0
H1072 H 0.61917 0.83461 0.34229 0.0
H1073 H 0.60957 0.75245 0.33057 0.0
H1074 H 0.5453 0.86189 0.48767 0.0
H1075 H 0.46619 0.85753 0.45649 0.0
H1076 H 0.482 0.71297 0.38349 0.0
H1077 H 0.56545 0.71665 0.39685 0.0
H1078 H 0.47871 0.66473 0.38907 0.0
H1079 H 0.56063 0.66832 0.40235 0.0
H1080 H 0.52832 0.7735 0.46707 0.0
H1081 H 0.44676 0.75604 0.44563 0.0
H1082 H 0.51608 0.77069 0.5121 0.0
H1083 H 0.43596 0.7535 0.49118 0.0
H1084 H 0.57483 0.69398 0.48663 0.0
H1085 H 0.49275 0.66917 0.47202 0.0
H1086 H 0.45351 0.74886 0.30943 0.0
H1087 H 0.403 0.75223 0.37207 0.0
Li1088 Li 0.02857 0.78137 0.64045 0.0
Li1089 Li 0.99876 0.75601 0.67307 0.0
Li1090 Li 0.04551 0.75359 0.67573 0.0
Li1091 Li 0.01881 0.73182 0.64412 0.0
C1092 C 0.03647 0.79671 0.698 0.0
N1093 N 0.05697 0.81924 0.74125 0.0
C1094 C 0.03015 0.78469 0.72198 0.0
C1095 C 0.05304 0.82025 0.69597 0.0
C1096 C 0.04076 0.79638 0.74364 0.0
C1097 C 0.06325 0.83132 0.71808 0.0
C1098 C 0.96895 0.76427 0.63313 0.0
C1099 C 0.92261 0.75128 0.63814 0.0
N1100 N 0.91797 0.77626 0.63155 0.0
C1101 C 0.96365 0.78974 0.62615 0.0
C1102 C 0.9482 0.74482 0.63893 0.0
C1103 C 0.93779 0.79543 0.62553 0.0
C1104 C 0.04858 0.81246 0.59735 0.0
N1105 N 0.03505 0.81266 0.61889 0.0
C1106 C 0.03081 0.85797 0.60993 0.0
C1107 C 0.02631 0.83483 0.6255 0.0
C1108 C 0.04556 0.85857 0.58804 0.0
C1109 C 0.0547 0.83546 0.58194 0.0
H1110 H 0.05492 0.79446 0.59231 0.0
H1111 H 0.01555 0.83441 0.64274 0.0
C1112 C 0.95359 0.74029 0.70394 0.0
N1113 N 0.96907 0.76069 0.69233 0.0
C1114 C 0.93224 0.74477 0.71783 0.0
C1115 C 0.94361 0.79114 0.70818 0.0
C1116 C 0.96446 0.78576 0.69417 0.0
C1117 C 0.92717 0.77048 0.72012 0.0
H1118 H 0.95783 0.72059 0.70255 0.0
H1119 H 0.97713 0.80162 0.68481 0.0
C1120 C 0.07955 0.75347 0.63972 0.0
N1121 N 0.13315 0.75177 0.64273 0.0
C1122 C 0.08974 0.731 0.65009 0.0
C1123 C 0.09676 0.77512 0.63092 0.0
C1124 C 0.11684 0.73051 0.65148 0.0
C1125 C 0.12375 0.77385 0.63256 0.0
C1126 C 0.0129 0.69794 0.6818 0.0
C1127 C 0.03381 0.68323 0.68678 0.0
C1128 C 0.98808 0.68525 0.67578 0.0
C1129 C 0.02958 0.65619 0.68541 0.0
C1130 C 0.98465 0.6582 0.67453 0.0
N1131 N 1.0053 0.64434 0.67933 0.0
C1132 C 0.07678 0.73673 0.71926 0.0
C1133 C 0.09479 0.77484 0.69507 0.0
C1134 C 0.09906 0.73783 0.73545 0.0
N1135 N 0.07536 0.75473 0.69914 0.0
C1136 C 0.11734 0.77665 0.71066 0.0
C1137 C 0.1197 0.75784 0.73092 0.0
H1138 H 0.06063 0.7216 0.72283 0.0
H1139 H 0.0928 0.78951 0.67961 0.0
C1140 C 0.99029 0.69897 0.60928 0.0
N1141 N 0.01328 0.70267 0.62293 0.0
C1142 C 0.98556 0.67861 0.59322 0.0
C1143 C 0.02838 0.6663 0.60517 0.0
C1144 C 0.03221 0.68679 0.62113 0.0
C1145 C 1.00483 0.66212 0.59097 0.0
H1146 H 0.97569 0.71199 0.61061 0.0
H1147 H 0.05035 0.69001 0.63193 0.0
O1148 O 0.02695 0.78516 0.67659 0.0
O1149 O 0.9943 0.75855 0.63476 0.0
O1150 O 0.05299 0.75442 0.63859 0.0
O1151 O 0.01678 0.72457 0.68234 0.0
H1152 H 0.01747 0.76636 0.72383 0.0
H1153 H 0.0582 0.8297 0.6775 0.0
H1154 H 0.03619 0.78723 0.76233 0.0
H1155 H 0.07623 0.84946 0.71683 0.0
H1156 H 0.90644 0.73646 0.64286 0.0
H1157 H 0.97928 0.80499 0.62129 0.0
H1158 H 0.95178 0.72502 0.64438 0.0
H1159 H 0.93348 0.81511 0.62031 0.0
H1160 H 0.02328 0.87536 0.61514 0.0
H1161 H 0.06613 0.83516 0.56522 0.0
H1162 H 0.91999 0.72841 0.72698 0.0
H1163 H 0.94033 0.81119 0.70972 0.0
H1164 H 0.07696 0.71436 0.65768 0.0
H1165 H 0.08954 0.79296 0.62346 0.0
H1166 H 0.12491 0.7133 0.65969 0.0
H1167 H 0.13723 0.79052 0.62593 0.0
H1168 H 0.05319 0.6925 0.69139 0.0
H1169 H 0.9717 0.69618 0.67167 0.0
H1170 H 0.04564 0.64465 0.68908 0.0
H1171 H 0.96558 0.64823 0.66965 0.0
H1172 H 0.10027 0.72322 0.75119 0.0
H1173 H 0.13287 0.7925 0.70691 0.0
H1174 H 0.96722 0.67595 0.5824 0.0
H1175 H 0.04367 0.65394 0.60377 0.0
Li1176 Li 0.52248 0.2862 0.13847 0.0
Li1177 Li 0.49283 0.26397 0.16833 0.0
Li1178 Li 0.54087 0.25831 0.17266 0.0
Li1179 Li 0.51095 0.23955 0.13804 0.0
C1180 C 0.53417 0.3156 0.17706 0.0
N1181 N 0.55591 0.36702 0.17915 0.0
C1182 C 0.51912 0.33588 0.17009 0.0
C1183 C 0.56025 0.32154 0.18531 0.0
C1184 C 0.53049 0.36172 0.17118 0.0
C1185 C 0.57088 0.34764 0.18622 0.0
C1186 C 0.46198 0.27142 0.13056 0.0
C1187 C 0.41589 0.25532 0.13115 0.0
N1188 N 0.41016 0.28007 0.13263 0.0
C1189 C 0.45558 0.2967 0.13204 0.0
C1190 C 0.44194 0.25054 0.13015 0.0
C1191 C 0.4293 0.30067 0.1331 0.0
C1192 C 0.556 0.33102 0.11916 0.0
N1193 N 0.53191 0.31714 0.11645 0.0
C1194 C 0.52105 0.3463 0.08124 0.0
C1195 C 0.51466 0.32409 0.09767 0.0
C1196 C 0.54554 0.36113 0.08404 0.0
C1197 C 0.56323 0.3533 0.10311 0.0
H1198 H 0.56972 0.32468 0.13365 0.0
H1199 H 0.49605 0.31224 0.09523 0.0
C1200 C 0.46281 0.28906 0.20033 0.0
N1201 N 0.46328 0.26661 0.18875 0.0
C1202 C 0.44172 0.29222 0.21511 0.0
C1203 C 0.42191 0.24902 0.20601 0.0
C1204 C 0.44357 0.24657 0.19164 0.0
C1205 C 0.42095 0.27208 0.21794 0.0
H1206 H 0.47885 0.30451 0.19819 0.0
H1207 H 0.4445 0.22878 0.18257 0.0
C1208 C 0.55988 0.26696 0.11443 0.0
N1209 N 0.58601 0.28484 0.07056 0.0
C1210 C 0.54686 0.26541 0.09075 0.0
C1211 C 0.5862 0.27754 0.11581 0.0
C1212 C 0.56041 0.27458 0.06879 0.0
C1213 C 0.59907 0.28648 0.0934 0.0
C1214 C 0.50732 0.20466 0.17705 0.0
C1215 C 0.52872 0.1918 0.18559 0.0
C1216 C 0.48408 0.19017 0.16911 0.0
C1217 C 0.52657 0.16462 0.18582 0.0
C1218 C 0.48275 0.16303 0.16955 0.0
N1219 N 0.50385 0.15093 0.17783 0.0
C1220 C 0.56605 0.25778 0.22069 0.0
C1221 C 0.59225 0.24706 0.18805 0.0
C1222 C 0.58666 0.256 0.23852 0.0
N1223 N 0.56931 0.25361 0.19599 0.0
C1224 C 0.61339 0.24501 0.20528 0.0
C1225 C 0.61067 0.24973 0.23076 0.0
H1226 H 0.54755 0.26298 0.22638 0.0
H1227 H 0.59417 0.24362 0.16833 0.0
C1228 C 0.4861 0.20788 0.09977 0.0
N1229 N 0.50678 0.21096 0.11659 0.0
C1230 C 0.48325 0.18711 0.08417 0.0
C1231 C 0.52369 0.17372 0.10255 0.0
C1232 C 0.52563 0.19462 0.11798 0.0
C1233 C 0.50218 0.16973 0.08555 0.0
H1234 H 0.472 0.22171 0.09818 0.0
H1235 H 0.54223 0.19789 0.13105 0.0
O1236 O 0.52348 0.29012 0.17584 0.0
O1237 O 0.48769 0.2671 0.13024 0.0
O1238 O 0.54667 0.25894 0.13618 0.0
O1239 O 0.50925 0.23131 0.17613 0.0
H1240 H 0.49896 0.33176 0.16364 0.0
H1241 H 0.57234 0.30624 0.19062 0.0
H1242 H 0.51911 0.37757 0.16563 0.0
H1243 H 0.59106 0.35248 0.19243 0.0
H1244 H 0.40024 0.23931 0.13103 0.0
H1245 H 0.47072 0.3131 0.1326 0.0
H1246 H 0.44639 0.23075 0.12979 0.0
H1247 H 0.42414 0.32012 0.13438 0.0
H1248 H 0.50716 0.35177 0.06642 0.0
H1249 H 0.5824 0.36427 0.10549 0.0
H1250 H 0.44157 0.31019 0.22424 0.0
H1251 H 0.40617 0.23309 0.20797 0.0
H1252 H 0.52638 0.25762 0.08938 0.0
H1253 H 0.59646 0.27921 0.134 0.0
H1254 H 0.55054 0.27366 0.05035 0.0
H1255 H 0.6194 0.29485 0.09417 0.0
H1256 H 0.54685 0.20267 0.19181 0.0
H1257 H 0.46745 0.1998 0.16215 0.0
H1258 H 0.54301 0.15443 0.19228 0.0
H1259 H 0.46499 0.15161 0.1632 0.0
H1260 H 0.58404 0.25973 0.25808 0.0
H1261 H 0.63171 0.24005 0.19881 0.0
H1262 H 0.4666 0.18473 0.07099 0.0
H1263 H 0.53876 0.16078 0.10387 0.0
C1264 C 0.21553 0.77287 0.88553 0.0
C1265 C 0.23245 0.7778 0.86468 0.0
C1266 C 0.25827 0.8134 0.88592 0.0
C1267 C 0.24016 0.80981 0.90582 0.0
N1268 N 0.19989 0.78852 0.92355 0.0
N1269 N 0.2678 0.80456 0.84307 0.0
C1270 C 0.21832 0.79015 0.90537 0.0
C1271 C 0.25328 0.79856 0.86434 0.0
N1272 N 0.19719 0.75133 0.88657 0.0
N1273 N 0.28058 0.83057 0.88797 0.0
H1274 H 0.26511 0.79382 0.82709 0.0
H1275 H 0.28122 0.82126 0.84042 0.0
H1276 H 0.28467 0.84214 0.90326 0.0
H1277 H 0.296 0.83201 0.87558 0.0
H1278 H 0.18613 0.74497 0.90244 0.0
H1279 H 0.19429 0.73859 0.87211 0.0
H1280 H 0.18205 0.77663 0.92281 0.0
H1281 H 0.20157 0.8005 0.93864 0.0
C1282 C 0.07088 0.53816 0.44602 0.0
C1283 C 0.04319 0.53203 0.44582 0.0
C1284 C 0.04424 0.52222 0.40109 0.0
C1285 C 0.07191 0.52311 0.40332 0.0
N1286 N 0.11135 0.52802 0.42981 0.0
N1287 N 1.00314 0.51768 0.42256 0.0
C1288 C 0.08521 0.53004 0.42631 0.0
C1289 C 0.02974 0.52397 0.42313 0.0
N1290 N 0.08351 0.55264 0.46434 0.0
N1291 N 0.03188 0.52085 0.37774 0.0
H1292 H 0.99134 0.52043 0.4374 0.0
H1293 H 0.99288 0.50838 0.40777 0.0
H1294 H 0.04187 0.52037 0.36103 0.0
H1295 H 0.01211 0.52292 0.37455 0.0
H1296 H 0.10349 0.55922 0.46405 0.0
H1297 H 0.0736 0.56112 0.47771 0.0
H1298 H 0.12131 0.53046 0.4472 0.0
H1299 H 0.12247 0.52131 0.41621 0.0
C1300 C 0.78625 0.75291 0.8795 0.0
C1301 C 0.80239 0.77727 0.87821 0.0
C1302 C 0.82076 0.76705 0.92097 0.0
C1303 C 0.80372 0.74325 0.92272 0.0
N1304 N 0.7677 0.71485 0.90562 0.0
N1305 N 0.83218 0.80952 0.89847 0.0
C1306 C 0.7857 0.73658 0.90253 0.0
C1307 C 0.81882 0.78493 0.89922 0.0
N1308 N 0.77205 0.74509 0.85841 0.0
N1309 N 0.83923 0.77217 0.93985 0.0
H1310 H 0.83153 0.82292 0.88267 0.0
H1311 H 0.84234 0.81741 0.91403 0.0
H1312 H 0.84075 0.75982 0.95632 0.0
H1313 H 0.85417 0.78769 0.93857 0.0
H1314 H 0.76236 0.72636 0.85702 0.0
H1315 H 0.77125 0.75688 0.84148 0.0
H1316 H 0.75211 0.71043 0.8929 0.0
H1317 H 0.76719 0.70198 0.9219 0.0
C1318 C 0.99131 0.9787 0.42873 0.0
C1319 C 0.01768 0.99087 0.42857 0.0
C1320 C 1.00847 0.01665 0.38902 0.0
C1321 C 0.98246 1.00384 0.38854 0.0
N1322 N 0.94706 0.97758 0.41042 0.0
N1323 N 0.04755 0.02855 0.41463 0.0
C1324 C 0.97323 0.98631 0.4092 0.0
C1325 C 0.02509 0.01214 0.41062 0.0
N1326 N 0.98365 0.95974 0.4474 0.0
N1327 N 0.01768 0.03235 0.36844 0.0
H1328 H 0.05933 0.02682 0.43108 0.0
H1329 H 0.05276 0.04567 0.40328 0.0
H1330 H 1.00613 0.03627 0.35224 0.0
H1331 H 0.03734 0.03977 0.36661 0.0
H1332 H 0.966 0.94755 0.44677 0.0
H1333 H 0.99527 0.95575 0.46353 0.0
H1334 H 0.93848 0.96679 0.42605 0.0
H1335 H 0.93337 0.98284 0.39644 0.0
C1336 C 0.22915 0.22688 0.68751 0.0
C1337 C 0.24186 0.25287 0.68833 0.0
C1338 C 0.27093 0.24561 0.65467 0.0
C1339 C 0.25787 0.21995 0.6533 0.0
N1340 N 0.22907 0.18387 0.67203 0.0
N1341 N 0.2813 0.28243 0.68023 0.0
C1342 C 0.23829 0.20987 0.67085 0.0
C1343 C 0.2648 0.26084 0.67427 0.0
N1344 N 0.20825 0.2185 0.70252 0.0
N1345 N 0.28846 0.25588 0.63666 0.0
H1346 H 0.27845 0.29309 0.69558 0.0
H1347 H 0.29944 0.2878 0.67203 0.0
H1348 H 0.29359 0.24542 0.62195 0.0
H1349 H 0.29625 0.27548 0.63507 0.0
H1350 H 0.19584 0.20131 0.70032 0.0
H1351 H 0.20281 0.22908 0.71698 0.0
H1352 H 0.2167 0.17457 0.68596 0.0
H1353 H 0.2355 0.17096 0.66019 0.0
C1354 C 0.51402 0.56872 0.63459 0.0
C1355 C 0.50656 0.55656 0.61183 0.0
C1356 C 0.46605 0.53506 0.63104 0.0
C1357 C 0.47276 0.54846 0.65324 0.0
N1358 N 0.50121 0.5802 0.67557 0.0
N1359 N 0.4746 0.53072 0.58678 0.0
C1360 C 0.49624 0.56592 0.65485 0.0
C1361 C 0.48231 0.5404 0.60961 0.0
N1362 N 0.53838 0.58245 0.63699 0.0
N1363 N 0.44438 0.51685 0.6307 0.0
H1364 H 0.48633 0.53364 0.5709 0.0
H1365 H 0.45597 0.52127 0.58294 0.0
H1366 H 0.43153 0.5131 0.6457 0.0
H1367 H 0.43992 0.50425 0.61634 0.0
H1368 H 0.54626 0.58935 0.65397 0.0
H1369 H 0.55163 0.58554 0.6223 0.0
H1370 H 0.51635 0.59542 0.67676 0.0
H1371 H 0.48909 0.57803 0.69114 0.0
C1372 C 0.81505 0.29544 0.66291 0.0
C1373 C 0.79962 0.27109 0.66837 0.0
C1374 C 0.76664 0.28388 0.63628 0.0
C1375 C 0.78456 0.30564 0.62778 0.0
N1376 N 0.82707 0.33095 0.63131 0.0
N1377 N 0.75906 0.24299 0.66227 0.0
C1378 C 0.80906 0.3112 0.64072 0.0
C1379 C 0.77479 0.26563 0.65574 0.0
N1380 N 0.83479 0.30403 0.67942 0.0
N1381 N 0.74158 0.28121 0.62631 0.0
H1382 H 0.76269 0.23064 0.67825 0.0
H1383 H 0.74265 0.23601 0.65153 0.0
H1384 H 0.735 0.29426 0.6121 0.0
H1385 H 0.72667 0.26739 0.63336 0.0
H1386 H 0.84516 0.32265 0.67744 0.0
H1387 H 0.83861 0.2939 0.69679 0.0
H1388 H 0.8463 0.33395 0.63841 0.0
H1389 H 0.82355 0.34293 0.61501 0.0
C1390 C 0.53914 0.00948 0.62951 0.0
C1391 C 0.51776 0.98953 0.62742 0.0
C1392 C 0.53247 0.96696 0.66712 0.0
C1393 C 0.55259 0.98794 0.67022 0.0
N1394 N 0.57238 0.03136 0.65689 0.0
N1395 N 0.49125 0.95165 0.64615 0.0
C1396 C 0.55517 0.00985 0.65211 0.0
C1397 C 0.51362 0.96891 0.64679 0.0
N1398 N 0.54468 0.02758 0.60954 0.0
N1399 N 0.53187 0.94481 0.68316 0.0
H1400 H 0.47698 0.9525 0.63159 0.0
H1401 H 0.48572 0.93791 0.66105 0.0
H1402 H 0.54527 0.94272 0.69832 0.0
H1403 H 0.51949 0.92774 0.68025 0.0
H1404 H 0.56166 0.04082 0.60878 0.0
H1405 H 0.53335 0.02803 0.5927 0.0
H1406 H 0.57311 0.049 0.64582 0.0
H1407 H 0.58449 0.03238 0.67321 0.0
C1408 C 0.85232 0.2343 0.81093 0.0
C1409 C 0.85648 0.23169 0.78489 0.0
C1410 C 0.90343 0.24522 0.79179 0.0
C1411 C 0.89969 0.2445 0.81832 0.0
N1412 N 0.87106 0.23359 0.85374 0.0
N1413 N 0.88675 0.22979 0.75152 0.0
C1414 C 0.87424 0.23774 0.8281 0.0
C1415 C 0.88227 0.23583 0.77555 0.0
N1416 N 0.82749 0.23437 0.81915 0.0
N1417 N 0.92697 0.25562 0.78197 0.0
H1418 H 0.8719 0.22221 0.73921 0.0
H1419 H 0.90548 0.2299 0.74471 0.0
H1420 H 0.94278 0.26328 0.79318 0.0
H1421 H 0.92993 0.25903 0.76253 0.0
H1422 H 0.82355 0.23883 0.83738 0.0
H1423 H 0.81094 0.23255 0.80706 0.0
H1424 H 0.85329 0.22595 0.86174 0.0
H1425 H 0.88665 0.2354 0.86698 0.0
C1426 C 0.49571 0.89456 0.53513 0.0
C1427 C 0.48395 0.91684 0.52542 0.0
C1428 C 0.49227 0.90646 0.48205 0.0
C1429 C 0.4988 0.88166 0.49185 0.0
N1430 N 0.50288 0.85054 0.52801 0.0
N1431 N 0.47177 0.9448 0.48906 0.0
C1432 C 0.49957 0.87529 0.51849 0.0
C1433 C 0.48256 0.92311 0.49867 0.0
N1434 N 0.50417 0.89217 0.55997 0.0
N1435 N 0.4963 0.9145 0.45706 0.0
H1436 H 0.4665 0.95879 0.50033 0.0
H1437 H 0.46696 0.94838 0.46986 0.0
H1438 H 0.50392 0.90307 0.44449 0.0
H1439 H 0.49453 0.93337 0.44935 0.0
H1440 H 0.51472 0.87721 0.56735 0.0
H1441 H 0.50384 0.90689 0.57225 0.0
H1442 H 0.50092 0.84433 0.54719 0.0
H1443 H 0.50493 0.83551 0.51653 0.0
C1444 C 0.16073 0.30789 0.7812 0.0
C1445 C 0.18349 0.29766 0.79169 0.0
C1446 C 0.16157 0.28491 0.832 0.0
C1447 C 0.13829 0.29364 0.821 0.0
N1448 N 0.11422 0.31053 0.78457 0.0
N1449 N 0.20489 0.27325 0.82544 0.0
C1450 C 0.13744 0.3043 0.7954 0.0
C1451 C 0.18371 0.28528 0.81667 0.0
N1452 N 0.16169 0.3217 0.75799 0.0
N1453 N 0.16265 0.27678 0.85729 0.0
H1454 H 0.22161 0.2734 0.81489 0.0
H1455 H 0.20522 0.26141 0.84231 0.0
H1456 H 0.1466 0.27545 0.86897 0.0
H1457 H 0.17984 0.27307 0.86721 0.0
H1458 H 0.14682 0.33218 0.75044 0.0
H1459 H 0.17823 0.32418 0.74685 0.0
H1460 H 0.11148 0.31562 0.76526 0.0
H1461 H 0.09701 0.30901 0.79466 0.0
C1462 C 0.54472 0.63603 0.54241 0.0
C1463 C 0.53849 0.61066 0.53381 0.0
C1464 C 0.5323 0.62983 0.49032 0.0
C1465 C 0.53559 0.6551 0.49947 0.0
N1466 N 0.5398 0.68193 0.53506 0.0
N1467 N 0.52152 0.58338 0.50047 0.0
C1468 C 0.54036 0.65813 0.52578 0.0
C1469 C 0.53092 0.60753 0.50798 0.0
N1470 N 0.55568 0.6391 0.56616 0.0
N1471 N 0.53137 0.62713 0.46475 0.0
H1472 H 0.51977 0.56661 0.51292 0.0
H1473 H 0.51317 0.58037 0.48249 0.0
H1474 H 0.53275 0.64301 0.45119 0.0
H1475 H 0.53174 0.6093 0.45705 0.0
H1476 H 0.56309 0.65721 0.57242 0.0
H1477 H 0.55973 0.62344 0.57876 0.0
H1478 H 0.54041 0.68464 0.55442 0.0
H1479 H 0.53617 0.69853 0.52358 0.0
C1480 C 0.88344 0.77183 0.77658 0.0
C1481 C 0.86227 0.78406 0.76477 0.0
C1482 C 0.88382 0.78758 0.72386 0.0
C1483 C 0.90514 0.7758 0.73563 0.0
N1484 N 0.92855 0.76327 0.77425 0.0
N1485 N 0.84826 0.81267 0.7298 0.0
C1486 C 0.90592 0.76982 0.76234 0.0
C1487 C 0.86427 0.79479 0.73921 0.0
N1488 N 0.88209 0.76191 0.80134 0.0
N1489 N 0.88163 0.79106 0.69797 0.0
H1490 H 0.83519 0.82013 0.74101 0.0
H1491 H 0.85041 0.82261 0.7119 0.0
H1492 H 0.89521 0.78554 0.68596 0.0
H1493 H 0.86505 0.79709 0.68842 0.0
H1494 H 0.89502 0.7496 0.80978 0.0
H1495 H 0.86739 0.76504 0.81329 0.0
H1496 H 0.93131 0.7614 0.79392 0.0
H1497 H 0.94557 0.76214 0.76455 0.0
C1498 C 0.05453 0.90605 0.52906 0.0
C1499 C 0.06294 0.93 0.53995 0.0
C1500 C 0.0637 0.9063 0.582 0.0
C1501 C 0.05143 0.88327 0.57151 0.0
N1502 N 0.02888 0.86385 0.53529 0.0
N1503 N 0.0688 0.95342 0.578 0.0
C1504 C 0.04497 0.88388 0.54507 0.0
C1505 C 0.06558 0.93032 0.56681 0.0
N1506 N 0.05658 0.90404 0.5036 0.0
N1507 N 0.07453 0.90524 0.60605 0.0
H1508 H 0.06869 0.97145 0.56771 0.0
H1509 H 0.06854 0.9544 0.59763 0.0
H1510 H 0.075 0.88783 0.61735 0.0
H1511 H 0.08565 0.92123 0.61356 0.0
H1512 H 0.05273 0.88632 0.49531 0.0
H1513 H 0.06496 0.91935 0.49134 0.0
H1514 H 0.02191 0.86462 0.51647 0.0
H1515 H 0.02013 0.84791 0.54655 0.0
C1516 C 0.18867 0.74793 0.75527 0.0
C1517 C 0.19023 0.76125 0.77785 0.0
C1518 C 0.14858 0.77758 0.76557 0.0
C1519 C 0.14414 0.75918 0.74692 0.0
N1520 N 0.16085 0.72773 0.7225 0.0
N1521 N 0.18251 0.80422 0.78749 0.0
C1522 C 0.16451 0.74469 0.74119 0.0
C1523 C 0.17324 0.7807 0.77866 0.0
N1524 N 0.21108 0.74218 0.74525 0.0
N1525 N 0.12934 0.79202 0.77098 0.0
H1526 H 0.2024 0.80899 0.79194 0.0
H1527 H 0.17162 0.81996 0.78647 0.0
H1528 H 0.11101 0.79052 0.76165 0.0
H1529 H 0.13113 0.80396 0.78609 0.0
H1530 H 0.21161 0.73466 0.72759 0.0
H1531 H 0.22951 0.74834 0.7532 0.0
H1532 H 0.17413 0.71473 0.71953 0.0
H1533 H 0.14381 0.72549 0.71109 0.0
C1534 C 0.99478 0.59436 0.56579 0.0
C1535 C 0.99126 0.60091 0.53935 0.0
C1536 C 1.00004 0.64744 0.54659 0.0
C1537 C 1.0006 0.64094 0.57323 0.0
N1538 N 0.99443 0.60835 0.60848 0.0
N1539 N 0.98587 0.63369 0.50498 0.0
C1540 C 0.9969 0.6144 0.58294 0.0
C1541 C 0.99265 0.62747 0.52983 0.0
N1542 N 0.99683 0.56908 0.57443 0.0
N1543 N 1.00734 0.67258 0.53726 0.0
H1544 H 0.98003 0.6197 0.4921 0.0
H1545 H 0.98372 0.65264 0.49771 0.0
H1546 H 0.01314 0.68774 0.5489 0.0
H1547 H 1.01001 0.67796 0.51801 0.0
H1548 H 1.00211 0.5635 0.59314 0.0
H1549 H 0.99559 0.55393 0.56241 0.0
H1550 H 0.98889 0.58949 0.61641 0.0
H1551 H 0.99568 0.62246 0.62163 0.0
C1552 C 0.75564 0.8822 0.23835 0.0
C1553 C 0.76287 0.85885 0.25107 0.0
C1554 C 0.80493 0.88219 0.26455 0.0
C1555 C 0.79647 0.90602 0.2543 0.0
N1556 N 0.76281 0.92953 0.23385 0.0
N1557 N 0.79265 0.83695 0.27927 0.0
C1558 C 0.77159 0.90626 0.24173 0.0
C1559 C 0.78711 0.85889 0.2649 0.0
N1560 N 0.73382 0.88123 0.22264 0.0
N1561 N 0.83022 0.88177 0.27343 0.0
H1562 H 0.78019 0.81942 0.28001 0.0
H1563 H 0.80856 0.83666 0.29206 0.0
H1564 H 0.8438 0.89849 0.27358 0.0
H1565 H 0.8384 0.86463 0.27858 0.0
H1566 H 0.72892 0.89706 0.21078 0.0
H1567 H 0.72168 0.86393 0.21985 0.0
H1568 H 0.74374 0.93119 0.22715 0.0
H1569 H 0.77406 0.94752 0.23575 0.0
C1570 C 0.77768 0.16757 0.27874 0.0
C1571 C 0.78664 0.18543 0.29718 0.0
C1572 C 0.82117 0.1582 0.31159 0.0
C1573 C 0.81457 0.14294 0.29056 0.0
N1574 N 0.78772 0.13349 0.2532 0.0
N1575 N 0.81376 0.19551 0.33431 0.0
C1576 C 0.79309 0.14768 0.27393 0.0
C1577 C 0.8074 0.17995 0.31469 0.0
N1578 N 0.7538 0.16883 0.26667 0.0
N1579 N 0.8404 0.15154 0.32868 0.0
H1580 H 0.80204 0.20922 0.33926 0.0
H1581 H 0.8305 0.19499 0.34594 0.0
H1582 H 0.85137 0.13629 0.32649 0.0
H1583 H 0.84503 0.16019 0.34563 0.0
H1584 H 0.74509 0.15487 0.25484 0.0
H1585 H 0.7412 0.18209 0.27074 0.0
H1586 H 0.77445 0.13817 0.23864 0.0
H1587 H 0.79789 0.11806 0.24954 0.0
C1588 C 0.41303 0.03455 0.98693 0.0
C1589 C 0.43246 0.0302 1.00611 0.0
C1590 C 0.40321 0.99394 0.02619 0.0
C1591 C 0.38472 0.99684 1.00579 0.0
N1592 N 0.37259 0.01777 0.96538 0.0
N1593 N 0.44777 1.00439 0.04243 0.0
C1594 C 0.38975 0.01662 0.98578 0.0
C1595 C 0.42799 0.00956 0.02539 0.0
N1596 N 0.41664 0.05616 0.97018 0.0
N1597 N 0.39683 0.97656 0.04655 0.0
H1598 H 0.46598 0.01575 0.0428 0.0
H1599 H 0.44688 0.98785 0.05509 0.0
H1600 H 0.37912 0.96434 0.04753 0.0
H1601 H 0.40816 0.97552 0.0633 0.0
H1602 H 0.40215 0.06204 0.95746 0.0
H1603 H 0.43361 0.06949 0.97027 0.0
H1604 H 0.37644 0.02975 0.94883 0.0
H1605 H 0.35503 1.00539 0.96422 0.0
C1606 C 0.23596 0.33915 0.32161 0.0
C1607 C 0.26358 0.34592 0.32207 0.0
C1608 C 0.25755 0.39166 0.31051 0.0
C1609 C 0.23007 0.38539 0.31303 0.0
N1610 N 0.19355 0.35377 0.32587 0.0
N1611 N 0.30055 0.37958 0.32239 0.0
C1612 C 0.21936 0.35927 0.31996 0.0
C1613 C 0.27436 0.37248 0.31807 0.0
N1614 N 0.22552 0.31354 0.32181 0.0
N1615 N 0.2676 0.41564 0.3 0.0
H1616 H 0.31347 0.36626 0.32865 0.0
H1617 H 0.30895 0.39897 0.32227 0.0
H1618 H 0.25592 0.43002 0.29349 0.0
H1619 H 0.2872 0.42028 0.29536 0.0
H1620 H 0.20559 0.30764 0.31891 0.0
H1621 H 0.237 0.29827 0.32239 0.0
H1622 H 0.18537 0.33555 0.33356 0.0
H1623 H 0.18085 0.36801 0.32539 0.0
C1624 C 0.12594 0.0262 0.53511 0.0
C1625 C 0.12296 0.01112 0.51367 0.0
C1626 C 0.1653 0.0323 0.49819 0.0
C1627 C 0.16913 0.04583 0.52063 0.0
N1628 N 0.15567 0.05196 0.56272 0.0
N1629 N 0.14134 0.99638 0.47697 0.0
C1630 C 0.15019 0.04167 0.53978 0.0
C1631 C 0.14312 0.01317 0.49581 0.0
N1632 N 0.10525 0.02655 0.55047 0.0
N1633 N 0.18234 0.0384 0.4788 0.0
H1634 H 0.12534 0.98219 0.47463 0.0
H1635 H 0.15661 0.99502 0.46499 0.0
H1636 H 0.19886 0.0522 0.47989 0.0
H1637 H 0.17906 0.03132 0.46091 0.0
H1638 H 0.10534 0.03934 0.56471 0.0
H1639 H 0.08704 0.0157 0.54757 0.0
H1640 H 0.14383 0.04729 0.57837 0.0
H1641 H 0.17328 0.06334 0.56689 0.0
C1642 C 0.76065 0.16525 0.77812 0.0
C1643 C 0.78017 0.16796 0.75955 0.0
C1644 C 0.76516 0.12389 0.74686 0.0
C1645 C 0.74648 0.12076 0.76624 0.0
N1646 N 0.72897 0.13623 0.80305 0.0
N1647 N 0.80414 0.14896 0.72906 0.0
C1648 C 0.74502 0.1408 0.78273 0.0
C1649 C 0.78335 0.14697 0.74473 0.0
N1650 N 0.75644 0.18636 0.79069 0.0
N1651 N 0.76499 0.1051 0.73008 0.0
H1652 H 0.81767 0.16569 0.72687 0.0
H1653 H 0.80922 0.13345 0.71975 0.0
H1654 H 0.75245 0.08762 0.73152 0.0
H1655 H 0.77601 0.10744 0.71378 0.0
H1656 H 0.74061 0.18655 0.80229 0.0
H1657 H 0.76774 0.20449 0.78811 0.0
H1658 H 0.7291 0.14891 0.81738 0.0
H1659 H 0.71684 0.11873 0.80672 0.0
C1660 C 0.44352 0.04362 0.55427 0.0
C1661 C 0.44397 0.02628 0.57651 0.0
C1662 C 0.4074 0.04574 0.59261 0.0
C1663 C 0.40444 0.06008 0.56879 0.0
N1664 N 0.41654 0.0676 0.52478 0.0
N1665 N 0.42213 1.0071 0.61446 0.0
C1666 C 0.42165 0.05764 0.54897 0.0
C1667 C 0.42474 0.02629 0.59508 0.0
N1668 N 0.46433 0.0474 0.53857 0.0
N1669 N 0.39438 0.05121 0.61317 0.0
H1670 H 0.43358 0.99177 0.6164 0.0
H1671 H 0.40676 1.00489 0.62701 0.0
H1672 H 0.38235 0.06605 0.61247 0.0
H1673 H 0.39778 0.04295 0.63148 0.0
H1674 H 0.46592 0.06163 0.52339 0.0
H1675 H 0.48124 0.03839 0.54234 0.0
H1676 H 0.42717 0.06412 0.5093 0.0
H1677 H 0.40003 0.07686 0.5197 0.0
C1678 C 0.61219 0.48577 0.56665 0.0
C1679 C 0.59819 0.49916 0.54697 0.0
C1680 C 0.62626 0.48596 0.51521 0.0
C1681 C 0.64043 0.47277 0.53475 0.0
N1682 N 0.65151 0.46604 0.5794 0.0
N1683 N 0.5994 0.52061 0.50457 0.0
C1684 C 0.63474 0.47439 0.56062 0.0
C1685 C 0.60753 0.50197 0.52185 0.0
N1686 N 0.60392 0.48375 0.59108 0.0
N1687 N 0.62992 0.48251 0.49029 0.0
H1688 H 0.58739 0.53419 0.50925 0.0
H1689 H 0.60731 0.5248 0.48664 0.0
H1690 H 0.64308 0.47053 0.48456 0.0
H1691 H 0.6181 0.48957 0.47548 0.0
H1692 H 0.61095 0.4712 0.60543 0.0
H1693 H 0.58923 0.49385 0.59696 0.0
H1694 H 0.65005 0.46917 0.59848 0.0
H1695 H 0.66847 0.4581 0.57567 0.0
C1696 C 0.71905 0.27038 0.38375 0.0
C1697 C 0.7296 0.2785 0.35957 0.0
C1698 C 0.74945 0.31997 0.37543 0.0
C1699 C 0.73748 0.31254 0.39909 0.0
N1700 N 0.70865 0.28234 0.42536 0.0
N1701 N 0.75238 0.31164 0.33108 0.0
C1702 C 0.72167 0.28816 0.40315 0.0
C1703 C 0.74416 0.30349 0.35505 0.0
N1704 N 0.70695 0.24546 0.38827 0.0
N1705 N 0.76631 0.34256 0.37269 0.0
H1706 H 0.74962 0.29978 0.31591 0.0
H1707 H 0.76046 0.33063 0.32571 0.0
H1708 H 0.77002 0.35547 0.38694 0.0
H1709 H 0.77797 0.3478 0.35701 0.0
H1710 H 0.70145 0.23724 0.40618 0.0
H1711 H 0.70387 0.23219 0.37429 0.0
H1712 H 0.69445 0.26636 0.42848 0.0
H1713 H 0.71077 0.29448 0.44031 0.0
C1714 C 0.52973 0.02525 0.9217 0.0
C1715 C 0.54031 0.04773 0.93426 0.0
C1716 C 0.58144 0.04935 0.91202 0.0
C1717 C 0.57068 0.02744 0.8989 0.0
N1718 N 0.53767 0.99049 0.89579 0.0
N1719 N 0.57936 0.07382 0.94888 0.0
C1720 C 0.54572 0.01413 0.90516 0.0
C1721 C 0.56721 0.05744 0.93184 0.0
N1722 N 0.50432 0.01475 0.92525 0.0
N1723 N 0.6047 0.0632 0.90485 0.0
H1724 H 0.56996 0.07892 0.96454 0.0
H1725 H 0.59948 0.0797 0.9493 0.0
H1726 H 0.61578 0.05805 0.89038 0.0
H1727 H 0.61192 0.08103 0.91184 0.0
H1728 H 0.49429 1.00092 0.91402 0.0
H1729 H 0.49282 0.02038 0.9391 0.0
H1730 H 0.5209 0.97841 0.90151 0.0
H1731 H 0.54904 0.98178 0.88381 0.0
C1732 C 0.27733 0.25554 0.38481 0.0
C1733 C 0.29895 0.27458 0.37881 0.0
C1734 C 0.32337 0.25828 0.41639 0.0
C1735 C 0.30095 0.24075 0.42352 0.0
N1736 N 0.25475 0.22674 0.41746 0.0
N1737 N 0.34039 0.29775 0.39158 0.0
C1738 C 0.27735 0.24058 0.40859 0.0
C1739 C 0.32135 0.27705 0.39544 0.0
N1740 N 0.25724 0.25092 0.36738 0.0
N1741 N 0.34686 0.25635 0.429 0.0
H1742 H 0.33937 0.31211 0.37665 0.0
H1743 H 0.35585 0.30205 0.40451 0.0
H1744 H 0.34923 0.24262 0.44423 0.0
H1745 H 0.36445 0.26672 0.42293 0.0
H1746 H 0.24242 0.23534 0.36965 0.0
H1747 H 0.2566 0.26116 0.34958 0.0
H1748 H 0.23643 0.22812 0.40867 0.0
H1749 H 0.25387 0.21578 0.43493 0.0
C1750 C 0.52116 0.52233 0.9135 0.0
C1751 C 0.51493 0.49971 0.9302 0.0
C1752 C 0.48168 0.48267 0.899 0.0
C1753 C 0.48446 0.50746 0.88516 0.0
N1754 N 0.50558 0.55177 0.87996 0.0
N1755 N 0.49151 0.45649 0.9376 0.0
C1756 C 0.504 0.52749 0.89247 0.0
C1757 C 0.49597 0.47919 0.92246 0.0
N1758 N 0.54394 0.53839 0.91717 0.0
N1759 N 0.46597 0.4623 0.88926 0.0
H1760 H 0.50353 0.45186 0.95325 0.0
H1761 H 0.47557 0.44237 0.93505 0.0
H1762 H 0.45538 0.4642 0.87208 0.0
H1763 H 0.46495 0.44308 0.89697 0.0
H1764 H 0.55054 0.55391 0.90431 0.0
H1765 H 0.55786 0.5343 0.93136 0.0
H1766 H 0.51747 0.56789 0.88634 0.0
H1767 H 0.49347 0.55636 0.86436 0.0
C1768 C 0.74421 0.72322 0.19284 0.0
C1769 C 0.73957 0.74951 0.18644 0.0
C1770 C 0.75477 0.74707 0.1435 0.0
C1771 C 0.75979 0.72093 0.14982 0.0
N1772 N 0.7665 0.68697 0.18256 0.0
N1773 N 0.75132 0.78887 0.15953 0.0
C1774 C 0.75671 0.70984 0.17517 0.0
C1775 C 0.74836 0.76226 0.163 0.0
N1776 N 0.73631 0.71081 0.21557 0.0
N1777 N 0.75473 0.7571 0.11876 0.0
H1778 H 0.7489 0.80073 0.17409 0.0
H1779 H 0.75958 0.79907 0.14338 0.0
H1780 H 0.75818 0.7464 0.10362 0.0
H1781 H 0.7486 0.77518 0.11309 0.0
H1782 H 0.73597 0.69078 0.21979 0.0
H1783 H 0.72891 0.72027 0.22987 0.0
H1784 H 0.76716 0.67919 0.20135 0.0
H1785 H 0.77641 0.67707 0.1703 0.0
C1786 C 0.01761 0.07757 0.13451 0.0
C1787 C 0.01482 0.05925 0.11571 0.0
C1788 C 0.9803 0.03244 0.14004 0.0
C1789 C 0.98116 0.05216 0.15733 0.0
N1790 N 0.99752 0.09552 0.16875 0.0
N1791 N 0.99073 0.02141 0.09822 0.0
C1792 C 0.99898 0.07531 0.15395 0.0
C1793 C 0.99541 0.03723 0.11783 0.0
N1794 N 0.03852 0.09667 0.13423 0.0
N1795 N 0.96568 0.00883 0.14526 0.0
H1796 H 1.00128 0.02432 0.08157 0.0
H1797 H 0.97493 1.00679 0.0975 0.0
H1798 H 0.95446 1.00452 0.16141 0.0
H1799 H 0.96649 0.99276 0.1348 0.0
H1800 H 0.04309 0.10889 0.14891 0.0
H1801 H 0.05275 0.09876 0.12046 0.0
H1802 H 1.00807 0.1139 0.16535 0.0
H1803 H 0.98402 0.0947 0.18308 0.0
C1804 C 0.26616 0.80169 0.18285 0.0
C1805 C 0.29008 0.79113 0.18898 0.0
C1806 C 0.30725 0.80914 0.14766 0.0
C1807 C 0.28251 0.81734 0.14066 0.0
N1808 N 0.23766 0.82022 0.15042 0.0
N1809 N 0.33652 0.7956 0.18187 0.0
C1810 C 0.26175 0.81329 0.15794 0.0
C1811 C 0.31162 0.7979 0.1727 0.0
N1812 N 0.24868 0.80277 0.20145 0.0
N1813 N 0.32634 0.81137 0.13008 0.0
H1814 H 0.34076 0.79005 0.20085 0.0
H1815 H 0.35323 0.80239 0.17169 0.0
H1816 H 0.32393 0.8197 0.1116 0.0
H1817 H 0.34369 0.80299 0.13306 0.0
H1818 H 0.23203 0.81232 0.19882 0.0
H1819 H 0.25235 0.79715 0.22053 0.0
H1820 H 0.22083 0.81468 0.1608 0.0
H1821 H 0.23396 0.83001 0.13285 0.0
C1822 C 0.04078 0.50838 0.12758 0.0
C1823 C 0.01751 0.4905 0.12755 0.0
C1824 C 0.02982 0.47135 0.16973 0.0
C1825 C 0.05215 0.49039 0.1705 0.0
N1826 N 0.07713 0.52942 0.15215 0.0
N1827 N 0.98761 0.45759 0.14969 0.0
C1828 C 0.05715 0.50959 0.14995 0.0
C1829 C 0.01138 0.47271 0.14896 0.0
N1830 N 0.04757 0.52368 0.10596 0.0
N1831 N 0.02666 0.45153 0.18851 0.0
H1832 H 0.97377 0.45781 0.1347 0.0
H1833 H 0.9807 0.44633 0.16581 0.0
H1834 H 0.03956 0.45013 0.20418 0.0
H1835 H 0.01245 0.43542 0.18769 0.0
H1836 H 0.06567 0.53495 0.10375 0.0
H1837 H 0.03582 0.52368 0.08939 0.0
H1838 H 0.08005 0.54562 0.13911 0.0
H1839 H 0.08974 0.53077 0.16809 0.0
C1840 C 0.36085 0.75438 0.30086 0.0
C1841 C 0.35902 0.73149 0.28747 0.0
C1842 C 0.39827 0.71889 0.31068 0.0
C1843 C 0.40199 0.74334 0.32151 0.0
N1844 N 0.38938 0.78655 0.32298 0.0
N1845 N 0.37925 0.69472 0.27578 0.0
C1846 C 0.38397 0.76173 0.31554 0.0
C1847 C 0.37863 0.71446 0.29132 0.0
N1848 N 0.34021 0.76868 0.30021 0.0
N1849 N 0.41295 0.69959 0.3194 0.0
H1850 H 0.36585 0.69144 0.26071 0.0
H1851 H 0.39463 0.68337 0.27617 0.0
H1852 H 0.42709 0.70182 0.33404 0.0
H1853 H 0.40924 0.68057 0.31391 0.0
H1854 H 0.33951 0.78404 0.31164 0.0
H1855 H 0.32269 0.76361 0.29016 0.0
H1856 H 0.37823 0.80147 0.31688 0.0
H1857 H 0.40639 0.79293 0.33324 0.0
C1858 C 0.02074 0.41731 0.01945 0.0
C1859 C 0.99948 0.4322 0.01426 0.0
C1860 C 0.98181 0.4026 0.98179 0.0
C1861 C 1.00477 0.38986 0.98493 0.0
N1862 N 0.04744 0.38658 1.00464 0.0
N1863 N 0.95572 0.43407 0.99665 0.0
C1864 C 0.0245 0.39749 1.00333 0.0
C1865 C 0.97879 0.42343 0.99713 0.0
N1866 N 0.03648 0.42111 0.04064 0.0
N1867 N 0.9632 0.39506 0.96372 0.0
H1868 H 0.95226 0.44826 0.00857 0.0
H1869 H 0.93899 0.42738 0.98625 0.0
H1870 H 0.964 0.37895 0.95327 0.0
H1871 H 0.94752 0.40526 0.95808 0.0
H1872 H 0.05068 0.40918 0.04682 0.0
H1873 H 0.03334 0.43419 0.05386 0.0
H1874 H 0.06383 0.39352 0.01543 0.0
H1875 H 0.05097 0.37191 0.99327 0.0
C1876 C 0.68732 0.79742 0.3121 0.0
C1877 C 0.68354 0.80389 0.28567 0.0
C1878 C 0.63675 0.80591 0.29158 0.0
C1879 C 0.64024 0.79797 0.31773 0.0
N1880 N 0.66776 0.78393 0.35291 0.0
N1881 N 0.65492 0.8122 0.24946 0.0
C1882 C 0.66526 0.79313 0.32801 0.0
C1883 C 0.6583 0.80757 0.27519 0.0
N1884 N 0.71211 0.79582 0.32198 0.0
N1885 N 0.61289 0.8123 0.28257 0.0
H1886 H 0.67039 0.81469 0.23698 0.0
H1887 H 0.63672 0.81212 0.24012 0.0
H1888 H 0.59643 0.81036 0.29378 0.0
H1889 H 0.60958 0.82102 0.26448 0.0
H1890 H 0.71678 0.79419 0.34135 0.0
H1891 H 0.72857 0.79762 0.31078 0.0
H1892 H 0.68461 0.77709 0.36099 0.0
H1893 H 0.65233 0.7817 0.36542 0.0
C1894 C 0.03039 0.10804 0.0112 0.0
C1895 C 0.04221 0.11184 0.03558 0.0
C1896 C 0.04549 0.15928 0.02641 0.0
C1897 C 0.03567 0.15548 1.00132 0.0
N1898 N 0.02277 0.12654 0.96827 0.0
N1899 N 0.06531 0.1406 0.06493 0.0
C1900 C 0.02923 0.12991 0.99325 0.0
C1901 C 0.05099 0.13735 0.04278 0.0
N1902 N 0.01951 0.08366 1.00551 0.0
N1903 N 0.04874 0.18378 0.03486 0.0
H1904 H 0.06985 0.12501 0.07738 0.0
H1905 H 0.07465 0.15857 0.06991 0.0
H1906 H 0.04493 0.20035 0.02343 0.0
H1907 H 0.05305 0.18744 0.05377 0.0
H1908 H 1.00808 0.08008 0.98915 0.0
H1909 H 0.0201 0.06715 0.01812 0.0
H1910 H 0.02068 0.10845 0.96065 0.0
H1911 H 0.02157 0.14209 0.95461 0.0
C1912 C 0.37449 0.26551 0.27336 0.0
C1913 C 0.35479 0.28065 0.26292 0.0
C1914 C 0.37952 0.29151 0.22389 0.0
C1915 C 0.39836 0.27521 0.23364 0.0
N1916 N 0.4143 0.24626 0.26709 0.0
N1917 N 0.34426 0.31587 0.23296 0.0
C1918 C 0.39606 0.26219 0.25831 0.0
C1919 C 0.35895 0.29596 0.23953 0.0
N1920 N 0.37338 0.25569 0.2982 0.0
N1921 N 0.38062 0.30186 0.19924 0.0
H1922 H 0.33025 0.32106 0.24467 0.0
H1923 H 0.34808 0.32931 0.21741 0.0
H1924 H 0.39539 0.29913 0.18712 0.0
H1925 H 0.36571 0.31125 0.19007 0.0
H1926 H 0.38808 0.24647 0.30787 0.0
H1927 H 0.35874 0.25876 0.31023 0.0
H1928 H 0.41231 0.23351 0.28334 0.0
H1929 H 0.43124 0.24477 0.25741 0.0
C1930 C 0.55027 0.43115 0.05478 0.0
C1931 C 0.56624 0.42964 0.0338 0.0
C1932 C 0.56735 0.38286 0.04491 0.0
C1933 C 0.55279 0.38476 0.06678 0.0
N1934 N 0.53334 0.41087 0.09481 0.0
N1935 N 0.59304 0.40548 0.01046 0.0
C1936 C 0.54506 0.40898 0.07236 0.0
C1937 C 0.57566 0.40587 0.0293 0.0
N1938 N 0.5396 0.45363 0.0575 0.0
N1939 N 0.57261 0.35894 0.03875 0.0
H1940 H 0.5991 0.42182 0.99829 0.0
H1941 H 0.60294 0.38958 1.00796 0.0
H1942 H 0.56734 0.34174 0.05003 0.0
H1943 H 0.58055 0.35575 0.02162 0.0
H1944 H 0.52545 0.45514 0.07064 0.0
H1945 H 0.54355 0.47047 0.04536 0.0
H1946 H 0.52983 0.42848 0.10139 0.0
H1947 H 0.52877 0.39493 0.10793 0.0
C1948 C 0.65376 0.22716 0.2866 0.0
C1949 C 0.67575 0.24661 0.28452 0.0
C1950 C 0.65394 0.26937 0.24873 0.0
C1951 C 0.63311 0.24861 0.24928 0.0
N1952 N 0.61473 0.20587 0.26613 0.0
N1953 N 0.6988 0.2841 0.26146 0.0
C1954 C 0.63343 0.22696 0.26753 0.0
C1955 C 0.6764 0.26717 0.265 0.0
N1956 N 0.65199 0.20933 0.30721 0.0
N1957 N 0.6519 0.29152 0.23321 0.0
H1958 H 0.71561 0.28324 0.27306 0.0
H1959 H 0.70149 0.29766 0.24583 0.0
H1960 H 0.63581 0.29383 0.22095 0.0
H1961 H 0.66507 0.30845 0.23399 0.0
H1962 H 0.63523 0.19642 0.31124 0.0
H1963 H 0.66651 0.20889 0.32156 0.0
H1964 H 0.6155 0.18833 0.27711 0.0
H1965 H 0.59947 0.20506 0.25248 0.0
C1966 C 0.49343 0.10047 0.06402 0.0
C1967 C 0.49253 0.1056 0.03719 0.0
C1968 C 0.50185 0.15255 0.04227 0.0
C1969 C 0.49952 0.14755 0.06897 0.0
N1970 N 0.48876 0.11691 0.10503 0.0
N1971 N 0.49149 0.13673 1.00069 0.0
C1972 C 0.49417 0.12152 0.07982 0.0
C1973 C 0.4956 0.13172 0.02626 0.0
N1974 N 0.49433 0.07553 0.07441 0.0
N1975 N 0.51077 0.17708 0.03226 0.0
H1976 H 0.48654 0.12206 0.98832 0.0
H1977 H 0.49065 0.15544 0.99208 0.0
H1978 H 0.51588 0.19278 0.0434 0.0
H1979 H 0.51545 0.1813 0.01325 0.0
H1980 H 0.49771 0.07097 0.09374 0.0
H1981 H 0.49422 0.05964 0.06346 0.0
H1982 H 0.48195 0.09852 0.11336 0.0
H1983 H 0.48878 0.13179 0.11721 0.0
C1984 C 0.27146 0.36219 0.79566 0.0
C1985 C 0.27448 0.34452 0.77716 0.0
C1986 C 0.31237 0.37398 0.76135 0.0
C1987 C 0.30433 0.39414 0.7748 0.0
N1988 N 0.27565 0.40724 0.8053 0.0
N1989 N 0.31093 0.32729 0.76042 0.0
C1990 C 0.28383 0.38817 0.79229 0.0
C1991 C 0.29873 0.34836 0.7647 0.0
N1992 N 0.26066 0.35315 0.81832 0.0
N1993 N 0.33305 0.3791 0.74555 0.0
H1994 H 0.30361 0.30848 0.76748 0.0
H1995 H 0.32977 0.32878 0.75349 0.0
H1996 H 0.34458 0.39716 0.74369 0.0
H1997 H 0.33772 0.36572 0.73326 0.0
H1998 H 0.26018 0.36485 0.83342 0.0
H1999 H 0.25571 0.33319 0.82297 0.0
H2000 H 0.25918 0.40389 0.81654 0.0
H2001 H 0.2839 0.42671 0.80318 0.0
C2002 C 0.29568 0.6652 0.82493 0.0
C2003 C 0.28554 0.68138 0.80479 0.0
C2004 C 0.29914 0.65367 0.77356 0.0
C2005 C 0.30991 0.63787 0.79351 0.0
N2006 N 0.31234 0.62417 0.83815 0.0
N2007 N 0.26803 0.68424 0.76168 0.0
C2008 C 0.30632 0.64231 0.81924 0.0
C2009 C 0.2842 0.67347 0.77962 0.0
N2010 N 0.29544 0.67186 0.84943 0.0
N2011 N 0.30409 0.65058 0.74883 0.0
H2012 H 0.25543 0.69749 0.76587 0.0
H2013 H 0.26468 0.67761 0.74359 0.0
H2014 H 0.31514 0.63646 0.74351 0.0
H2015 H 0.29914 0.66349 0.73375 0.0
H2016 H 0.30577 0.66312 0.86444 0.0
H2017 H 0.28546 0.68677 0.85478 0.0
H2018 H 0.30784 0.62481 0.8571 0.0
H2019 H 0.31982 0.60707 0.83456 0.0
C2020 C 0.90488 0.5384 0.49908 0.0
C2021 C 0.92867 0.5282 0.50629 0.0
C2022 C 0.90506 0.48407 0.51157 0.0
C2023 C 0.88101 0.49454 0.50658 0.0
N2024 N 0.85745 0.53211 0.50017 0.0
N2025 N 0.95087 0.49233 0.52437 0.0
C2026 C 0.88074 0.52187 0.50164 0.0
C2027 C 0.9286 0.5013 0.514 0.0
N2028 N 0.9054 0.56358 0.48892 0.0
N2029 N 0.90556 0.45766 0.51306 0.0
H2030 H 0.96845 0.50442 0.52679 0.0
H2031 H 0.95128 0.47348 0.53277 0.0
H2032 H 0.88877 0.44436 0.51107 0.0
H2033 H 0.92282 0.44902 0.51392 0.0
H2034 H 0.88896 0.57122 0.48076 0.0
H2035 H 0.92269 0.57628 0.48668 0.0
H2036 H 0.85614 0.55206 0.49931 0.0
H2037 H 0.83938 0.52064 0.50209 0.0
C2038 C 0.77764 0.87502 0.82273 0.0
C2039 C 0.76798 0.84833 0.8208 0.0
C2040 C 0.7236 0.8602 0.81168 0.0
C2041 C 0.73372 0.88701 0.81147 0.0
N2042 N 0.77091 0.92026 0.81263 0.0
N2043 N 0.73274 0.81552 0.80992 0.0
C2044 C 0.76092 0.89451 0.81584 0.0
C2045 C 0.74119 0.84091 0.8143 0.0
N2046 N 0.80258 0.88169 0.83198 0.0
N2047 N 0.6971 0.85319 0.81012 0.0
H2048 H 0.74501 0.80086 0.81184 0.0
H2049 H 0.71418 0.80933 0.80247 0.0
H2050 H 0.68367 0.86677 0.808 0.0
H2051 H 0.6883 0.834 0.81294 0.0
H2052 H 0.8098 0.90049 0.83654 0.0
H2053 H 0.81546 0.86801 0.83719 0.0
H2054 H 0.7909 0.92671 0.81273 0.0
H2055 H 0.7593 0.93514 0.8077 0.0
C2056 C 0.65078 0.50413 1.0066 0.0
C2057 C 0.62559 0.51148 0.01006 0.0
C2058 C 0.64547 0.55508 0.02035 0.0
C2059 C 0.67068 0.54704 0.01877 0.0
N2060 N 0.69762 0.51277 0.01488 0.0
N2061 N 0.59881 0.54206 0.02445 0.0
C2062 C 0.67342 0.5212 0.01321 0.0
C2063 C 0.62288 0.53645 0.01816 0.0
N2064 N 0.65308 0.48126 0.99612 0.0
N2065 N 0.6431 0.5807 0.02308 0.0
H2066 H 0.58182 0.52889 0.0231 0.0
H2067 H 0.59597 0.55885 0.03304 0.0
H2068 H 0.6592 0.59488 0.02493 0.0
H2069 H 0.62528 0.58834 0.0215 0.0
H2070 H 0.67081 0.4762 0.99051 0.0
H2071 H 0.63697 0.46821 0.99101 0.0
H2072 H 0.70056 0.49337 0.01377 0.0
H2073 H 0.71468 0.52476 0.01959 0.0
C2074 C 0.25213 0.67417 0.26173 0.0
C2075 C 0.27935 0.67248 0.26027 0.0
C2076 C 0.27092 0.62511 0.26936 0.0
C2077 C 0.24353 0.62647 0.26704 0.0
N2078 N 0.20829 0.65234 0.25536 0.0
N2079 N 0.31382 0.64534 0.25691 0.0
C2080 C 0.23414 0.65103 0.26163 0.0
C2081 C 0.28856 0.64765 0.26247 0.0
N2082 N 0.24344 0.6977 0.26409 0.0
N2083 N 0.28018 0.6026 0.27897 0.0
H2084 H 0.32706 0.6612 0.25054 0.0
H2085 H 0.3207 0.62737 0.25596 0.0
H2086 H 0.26794 0.58593 0.28527 0.0
H2087 H 0.29998 0.60145 0.28322 0.0
H2088 H 0.224 0.69955 0.2676 0.0
H2089 H 0.25605 0.715 0.26526 0.0
H2090 H 0.20105 0.66968 0.2489 0.0
H2091 H 0.1946 0.63583 0.25402 0.0
C2092 C 0.92115 0.52221 0.09096 0.0
C2093 C 0.94384 0.5259 0.07604 0.0
C2094 C 0.92717 0.56306 0.05155 0.0
C2095 C 0.90536 0.56044 0.06756 0.0
N2096 N 0.88368 0.54064 0.10519 0.0
N2097 N 0.97091 0.55235 0.04523 0.0
C2098 C 0.90297 0.5409 0.08808 0.0
C2099 C 0.94756 0.54708 0.05721 0.0
N2100 N 0.9165 0.50034 0.10723 0.0
N2101 N 0.92796 0.58019 0.0304 0.0
H2102 H 0.98625 0.54103 0.04884 0.0
H2103 H 0.97594 0.56911 0.03334 0.0
H2104 H 0.91355 0.59241 0.02575 0.0
H2105 H 0.94176 0.58091 0.01641 0.0
H2106 H 0.89895 0.49502 0.1165 0.0
H2107 H 0.92941 0.48628 0.10998 0.0
H2108 H 0.88256 0.52872 0.12205 0.0
H2109 H 0.86996 0.55395 0.10362 0.0
C2110 C 0.11567 1.00538 0.02478 0.0
C2111 C 0.10647 1.00281 0.04995 0.0
C2112 C 0.14312 0.97818 0.06367 0.0
C2113 C 0.14856 0.97621 0.0378 0.0
N2114 N 0.13813 0.98582 0.99332 0.0
N2115 N 0.11271 0.9883 0.09421 0.0
C2116 C 0.13444 0.98937 0.01822 0.0
C2117 C 0.1207 0.98979 0.06971 0.0
N2118 N 0.10729 0.02377 1.00737 0.0
N2119 N 0.15995 0.96982 0.08241 0.0
H2120 H 0.09818 0.99866 0.1 0.0
H2121 H 0.11986 0.97604 0.10874 0.0
H2122 H 0.17681 0.96169 0.07865 0.0
H2123 H 0.15864 0.97307 0.10148 0.0
H2124 H 0.11507 0.02785 0.98938 0.0
H2125 H 0.09514 0.03726 0.01198 0.0
H2126 H 0.12628 0.99276 0.97846 0.0
H2127 H 0.15142 0.97396 0.98764 0.0
loop_
_geom_bond_atom_site_label_1
_geom_bond_atom_site_label_2
_geom_bond_distance
_geom_bond_site_symmetry_2
_ccdc_geom_bond_type
H0 C7 0.929 . S
H1 C10 0.930 . S
H2 C12 0.929 1_556 S
H3 C4 0.969 . S
C4 H3 0.969 . S
C4 O5 1.550 1_565 S
C4 H6 0.973 . S
O5 C4 1.550 1_545 S
O5 C11 1.412 . S
H6 C4 0.973 . S
C7 H0 0.929 . S
C7 C8 1.400 1_655 S
C7 C9 1.364 1_655 S
C8 C7 1.400 1_455 S
C8 C12 1.377 . S
C9 C7 1.364 1_455 S
C9 C10 1.374 . S
C10 H1 0.930 . S
C10 C9 1.374 . S
C10 C11 1.383 . S
C11 O5 1.412 . S
C11 C10 1.383 . S
C11 C12 1.394 . S
C12 H2 0.929 1_554 S
C12 C8 1.377 . S
C12 C11 1.394 . S
H13 C20 0.929 . S
H14 C23 0.930 . S
H15 C25 0.929 . S
H16 C17 0.969 . S
C17 H16 0.969 . S
C17 O18 1.550 . S
C17 H19 0.973 . S
O18 C17 1.550 . S
O18 C24 1.412 . S
H19 C17 0.973 . S
C20 H13 0.929 . S
C20 C21 1.400 . S
C20 C22 1.364 . S
C21 C20 1.400 . S
C21 C25 1.377 . S
C22 C20 1.364 . S
C22 C23 1.374 . S
C23 H14 0.930 . S
C23 C22 1.374 . S
C23 C24 1.383 . S
C24 O18 1.412 . S
C24 C23 1.383 . S
C24 C25 1.394 . S
C25 H15 0.929 . S
C25 C21 1.377 . S
C25 C24 1.394 . S
H26 C33 0.929 . S
H27 C36 0.930 . S
H28 C38 0.929 . S
H29 C30 0.969 . S
C30 H29 0.969 . S
C30 O31 1.550 . S
C30 H32 0.973 . S
O31 C30 1.550 . S
O31 C37 1.412 . S
H32 C30 0.973 . S
C33 H26 0.929 . S
C33 C34 1.400 . S
C33 C35 1.364 . S
C34 C33 1.400 . S
C34 C38 1.377 1_655 S
C35 C33 1.364 . S
C35 C36 1.374 . S
C36 H27 0.930 . S
C36 C35 1.374 . S
C36 C37 1.383 . S
C37 O31 1.412 . S
C37 C36 1.383 . S
C37 C38 1.394 1_655 S
C38 H28 0.929 . S
C38 C34 1.377 1_455 S
C38 C37 1.394 1_455 S
H39 C46 0.929 . S
H40 C49 0.930 . S
H41 C51 0.929 . S
H42 C43 0.969 . S
C43 H42 0.969 . S
C43 O44 1.550 . S
C43 H45 0.973 . S
O44 C43 1.550 . S
O44 C50 1.412 . S
H45 C43 0.973 . S
C46 H39 0.929 . S
C46 C47 1.400 . S
C46 C48 1.364 . S
C47 C46 1.400 . S
C47 C51 1.377 . S
C48 C46 1.364 . S
C48 C49 1.374 . S
C49 H40 0.930 . S
C49 C48 1.374 . S
C49 C50 1.383 . S
C50 O44 1.412 . S
C50 C49 1.383 . S
C50 C51 1.394 . S
C51 H41 0.929 . S
C51 C47 1.377 . S
C51 C50 1.394 . S
H52 C59 0.929 . S
H53 C62 0.930 . S
H54 C64 0.929 . S
H55 C56 0.944 1_655 S
C56 H55 0.944 1_455 S
C56 O57 1.589 . S
C56 H58 0.971 1_455 S
O57 C56 1.589 . S
O57 C63 1.412 . S
H58 C56 0.971 1_655 S
C59 H52 0.929 . S
C59 C60 1.400 . S
C59 C61 1.364 . S
C60 C59 1.400 . S
C60 C64 1.377 1_565 S
C61 C59 1.364 . S
C61 C62 1.374 . S
C62 H53 0.930 . S
C62 C61 1.374 . S
C62 C63 1.383 . S
C63 O57 1.412 . S
C63 C62 1.383 . S
C63 C64 1.394 1_565 S
C64 H54 0.929 . S
C64 C60 1.377 1_545 S
C64 C63 1.394 1_545 S
H65 C72 0.929 . S
H66 C75 0.930 . S
H67 C77 0.929 . S
H68 C69 0.969 . S
C69 H68 0.969 . S
C69 O70 1.550 . S
C69 H71 0.973 . S
O70 C69 1.550 . S
O70 C76 1.412 . S
H71 C69 0.973 . S
C72 H65 0.929 . S
C72 C73 1.400 . S
C72 C74 1.364 . S
C73 C72 1.400 . S
C73 C77 1.377 . S
C74 C72 1.364 . S
C74 C75 1.374 . S
C75 H66 0.930 . S
C75 C74 1.374 . S
C75 C76 1.383 . S
C76 O70 1.412 . S
C76 C75 1.383 . S
C76 C77 1.394 . S
C77 H67 0.929 . S
C77 C73 1.377 . S
C77 C76 1.394 . S
H78 C85 0.929 . S
H79 C88 0.930 . S
H80 C90 0.929 . S
H81 C82 0.969 . S
C82 H81 0.969 . S
C82 O83 1.550 . S
C82 H84 0.973 . S
O83 C82 1.550 . S
O83 C89 1.396 1_455 S
H84 C82 0.973 . S
C85 H78 0.929 . S
C85 C86 1.400 . S
C85 C87 1.364 . S
C86 C85 1.400 . S
C86 C90 1.377 1_655 S
C87 C85 1.364 . S
C87 C88 1.374 . S
C88 H79 0.930 . S
C88 C87 1.374 . S
C88 C89 1.396 . S
C89 O83 1.396 1_655 S
C89 C88 1.396 . S
C89 C90 1.395 1_655 S
C90 H80 0.929 . S
C90 C86 1.377 1_455 S
C90 C89 1.395 1_455 S
H91 C98 0.929 . S
H92 C101 0.930 . S
H93 C103 0.929 . S
H94 C95 0.969 . S
C95 H94 0.969 . S
C95 O96 1.550 . S
C95 H97 0.973 . S
O96 C95 1.550 . S
O96 C102 1.412 . S
H97 C95 0.973 . S
C98 H91 0.929 . S
C98 C99 1.400 . S
C98 C100 1.364 . S
C99 C98 1.400 . S
C99 C103 1.377 . S
C100 C98 1.364 . S
C100 C101 1.374 . S
C101 H92 0.930 . S
C101 C100 1.374 . S
C101 C102 1.383 . S
C102 O96 1.412 . S
C102 C101 1.383 . S
C102 C103 1.394 . S
C103 H93 0.929 . S
C103 C99 1.377 . S
C103 C102 1.394 . S
H104 C111 0.929 . S
H105 C114 0.930 . S
H106 C116 0.929 . S
H107 C108 0.969 . S
C108 H107 0.969 . S
C108 O109 1.550 . S
C108 H110 0.973 . S
O109 C108 1.550 . S
O109 C115 1.412 . S
H110 C108 0.973 . S
C111 H104 0.929 . S
C111 C112 1.400 . S
C111 C113 1.364 . S
C112 C111 1.400 . S
C112 C116 1.377 . S
C113 C111 1.364 . S
C113 C114 1.374 . S
C114 H105 0.930 . S
C114 C113 1.374 . S
C114 C115 1.383 . S
C115 O109 1.412 . S
C115 C114 1.383 . S
C115 C116 1.394 . S
C116 H106 0.929 . S
C116 C112 1.377 . S
C116 C115 1.394 . S
H117 C124 0.929 . S
H118 C127 0.930 . S
H119 C129 0.929 . S
H120 C121 0.969 . S
C121 H120 0.969 . S
C121 O122 1.550 . S
C121 H123 0.973 . S
O122 C121 1.550 . S
O122 C128 1.412 . S
H123 C121 0.973 . S
C124 H117 0.929 . S
C124 C125 1.400 . S
C124 C126 1.364 . S
C125 C124 1.400 . S
C125 C129 1.377 . S
C126 C124 1.364 . S
C126 C127 1.374 . S
C127 H118 0.930 . S
C127 C126 1.374 . S
C127 C128 1.383 . S
C128 O122 1.412 . S
C128 C127 1.383 . S
C128 C129 1.394 . S
C129 H119 0.929 . S
C129 C125 1.377 . S
C129 C128 1.394 . S
H130 C137 0.929 . S
H131 C140 0.930 . S
H132 C142 0.929 . S
H133 C134 0.969 . S
C134 H133 0.969 . S
C134 O135 1.550 . S
C134 H136 0.973 . S
O135 C134 1.550 . S
O135 C141 1.412 . S
H136 C134 0.973 . S
C137 H130 0.929 . S
C137 C138 1.400 . S
C137 C139 1.364 . S
C138 C137 1.400 . S
C138 C142 1.377 . S
C139 C137 1.364 . S
C139 C140 1.374 . S
C140 H131 0.930 . S
C140 C139 1.374 . S
C140 C141 1.383 . S
C141 O135 1.412 . S
C141 C140 1.383 . S
C141 C142 1.394 . S
C142 H132 0.929 . S
C142 C138 1.377 . S
C142 C141 1.394 . S
H143 C150 0.929 . S
H144 C153 0.930 . S
H145 C155 0.929 . S
H146 C147 0.969 . S
C147 H146 0.969 . S
C147 O148 1.550 . S
C147 H149 0.973 . S
O148 C147 1.550 . S
O148 C154 1.412 . S
H149 C147 0.973 . S
C150 H143 0.929 . S
C150 C151 1.400 . S
C150 C152 1.364 . S
C151 C150 1.400 . S
C151 C155 1.377 . S
C152 C150 1.364 . S
C152 C153 1.374 . S
C153 H144 0.930 . S
C153 C152 1.374 . S
C153 C154 1.383 . S
C154 O148 1.412 . S
C154 C153 1.383 . S
C154 C155 1.394 . S
C155 H145 0.929 . S
C155 C151 1.377 . S
C155 C154 1.394 . S
H156 C163 0.929 . S
H157 C166 0.930 . S
H158 C168 0.929 . S
H159 C160 0.969 . S
C160 H159 0.969 . S
C160 O161 1.550 . S
C160 H162 0.973 . S
O161 C160 1.550 . S
O161 C167 1.412 . S
H162 C160 0.973 . S
C163 H156 0.929 . S
C163 C164 1.400 . S
C163 C165 1.364 . S
C164 C163 1.400 . S
C164 C168 1.377 . S
C165 C163 1.364 . S
C165 C166 1.374 . S
C166 H157 0.930 . S
C166 C165 1.374 . S
C166 C167 1.383 . S
C167 O161 1.412 . S
C167 C166 1.383 . S
C167 C168 1.394 . S
C168 H158 0.929 . S
C168 C164 1.377 . S
C168 C167 1.394 . S
H169 C176 0.929 . S
H170 C179 0.930 . S
H171 C181 0.929 . S
H172 C173 0.969 . S
C173 H172 0.969 . S
C173 O174 1.550 . S
C173 H175 0.973 . S
O174 C173 1.550 . S
O174 C180 1.412 . S
H175 C173 0.973 . S
C176 H169 0.929 . S
C176 C177 1.400 1_554 S
C176 C178 1.356 1_554 S
C177 C176 1.400 1_556 S
C177 C181 1.377 . S
C178 C176 1.356 1_556 S
C178 C179 1.398 . S
C179 H170 0.930 . S
C179 C178 1.398 . S
C179 C180 1.383 . S
C180 O174 1.412 . S
C180 C179 1.383 . S
C180 C181 1.394 . S
C181 H171 0.929 . S
C181 C177 1.377 . S
C181 C180 1.394 . S
H182 C189 0.929 . S
H183 C192 0.930 . S
H184 C194 0.929 . S
H185 C186 0.969 . S
C186 H185 0.969 . S
C186 O187 1.550 . S
C186 H188 0.973 . S
O187 C186 1.550 . S
O187 C193 1.412 . S
H188 C186 0.973 . S
C189 H182 0.929 . S
C189 C190 1.400 . S
C189 C191 1.364 . S
C190 C189 1.400 . S
C190 C194 1.377 . S
C191 C189 1.364 . S
C191 C192 1.374 . S
C192 H183 0.930 . S
C192 C191 1.374 . S
C192 C193 1.383 . S
C193 O187 1.412 . S
C193 C192 1.383 . S
C193 C194 1.394 . S
C194 H184 0.929 . S
C194 C190 1.377 . S
C194 C193 1.394 . S
H195 C202 0.929 . S
H196 C205 0.930 . S
H197 C207 0.929 . S
H198 C199 0.969 . S
C199 H198 0.969 . S
C199 O200 1.550 . S
C199 H201 0.973 . S
O200 C199 1.550 . S
O200 C206 1.412 . S
H201 C199 0.973 . S
C202 H195 0.929 . S
C202 C203 1.400 . S
C202 C204 1.364 . S
C203 C202 1.400 . S
C203 C207 1.377 . S
C204 C202 1.364 . S
C204 C205 1.374 1_554 S
C205 H196 0.930 . S
C205 C204 1.374 1_556 S
C205 C206 1.383 . S
C206 O200 1.412 . S
C206 C205 1.383 . S
C206 C207 1.394 1_556 S
C207 H197 0.929 . S
C207 C203 1.377 . S
C207 C206 1.394 1_554 S
Li208 N225 1.990 . S
Li208 O268 1.956 . S
Li208 O269 1.970 1_556 S
Li208 O270 1.961 . S
Li209 N233 1.990 . S
Li209 O268 1.974 1_554 S
Li209 O269 1.956 . S
Li209 O271 1.961 . S
Li210 N255 1.990 . S
Li210 O268 1.958 . S
Li210 O270 1.956 . S
Li210 O271 1.970 1_556 S
Li211 N261 1.990 . S
Li211 O269 1.961 . S
Li211 O270 1.970 1_554 S
Li211 O271 1.956 . S
C212 C214 1.348 1_556 S
C212 C215 1.356 . S
C212 O268 1.324 . S
N213 C216 1.314 1_556 S
N213 C217 1.279 . S
C214 C212 1.348 1_554 S
C214 C216 1.353 . S
C214 H272 0.929 . S
C215 C212 1.356 . S
C215 C217 1.358 . S
C215 H273 0.930 . S
C216 N213 1.314 1_554 S
C216 C214 1.353 . S
C216 H274 0.930 . S
C217 N213 1.279 . S
C217 C215 1.358 . S
C217 H275 0.930 . S
C218 C221 1.348 . S
C218 C222 1.356 . S
C218 O269 1.325 . S
C219 N220 1.279 . S
C219 C222 1.358 . S
C219 H276 0.930 . S
N220 C219 1.279 . S
N220 C223 1.314 . S
C221 C218 1.348 . S
C221 C223 1.353 . S
C221 H277 0.929 . S
C222 C218 1.356 . S
C222 C219 1.358 . S
C222 H278 0.930 . S
C223 N220 1.314 . S
C223 C221 1.353 . S
C223 H279 0.930 . S
C224 N225 1.314 . S
C224 C229 1.353 . S
C224 H230 0.930 . S
N225 Li208 1.990 . S
N225 C224 1.314 . S
N225 C227 1.279 . S
C226 C227 1.358 . S
C226 C228 1.356 . S
C226 H280 0.929 . S
C227 N225 1.279 . S
C227 C226 1.358 . S
C227 H231 0.930 1_556 S
C228 C226 1.356 . S
C228 C229 1.348 . S
C229 C224 1.353 . S
C229 C228 1.348 . S
C229 H281 0.929 1_565 S
H230 C224 0.930 . S
H231 C227 0.930 1_554 S
C232 N233 1.314 . S
C232 C234 1.353 . S
C232 H238 0.930 . S
N233 Li209 1.990 . S
N233 C232 1.314 . S
N233 C236 1.279 . S
C234 C232 1.353 . S
C234 C237 1.348 . S
C234 H282 0.929 . S
C235 C236 1.358 . S
C235 C237 1.356 . S
C235 H283 0.930 . S
C236 N233 1.279 . S
C236 C235 1.358 . S
C236 H239 0.930 . S
C237 C234 1.348 . S
C237 C235 1.356 . S
H238 C232 0.930 . S
H239 C236 0.930 . S
C240 C242 1.348 . S
C240 C243 1.356 . S
C240 O270 1.325 . S
N241 C244 1.314 . S
N241 C245 1.279 . S
C242 C240 1.348 . S
C242 C244 1.353 . S
C242 H284 0.929 . S
C243 C240 1.356 . S
C243 C245 1.358 . S
C243 H285 0.930 . S
C244 N241 1.314 . S
C244 C242 1.353 . S
C244 H286 0.930 . S
C245 N241 1.279 . S
C245 C243 1.358 . S
C245 H287 0.930 . S
C246 C247 1.348 1_554 S
C246 C248 1.356 . S
C246 O271 1.325 . S
C247 C246 1.348 1_556 S
C247 C249 1.353 . S
C247 H288 0.929 . S
C248 C246 1.356 . S
C248 C250 1.358 . S
C248 H289 0.930 . S
C249 C247 1.353 . S
C249 N251 1.314 1_556 S
C249 H290 0.930 . S
C250 C248 1.358 . S
C250 N251 1.279 . S
C250 H291 0.930 . S
N251 C249 1.314 1_554 S
N251 C250 1.279 . S
C252 C254 1.353 . S
C252 N255 1.314 . S
C252 H258 0.930 . S
C253 N255 1.279 . S
C253 C256 1.358 . S
C253 H259 0.930 . S
C254 C252 1.353 . S
C254 C257 1.348 . S
C254 H292 0.929 . S
N255 Li210 1.990 . S
N255 C252 1.314 . S
N255 C253 1.279 . S
C256 C253 1.358 . S
C256 C257 1.356 . S
C256 H293 0.930 . S
C257 C254 1.348 . S
C257 C256 1.356 . S
H258 C252 0.930 . S
H259 C253 0.930 . S
C260 N261 1.314 . S
C260 C262 1.353 . S
C260 H266 0.930 . S
N261 Li211 1.990 . S
N261 C260 1.314 . S
N261 C264 1.279 . S
C262 C260 1.353 . S
C262 C265 1.348 . S
C262 H294 0.929 . S
C263 C264 1.358 . S
C263 C265 1.356 . S
C263 H295 0.930 . S
C264 N261 1.279 . S
C264 C263 1.358 . S
C264 H267 0.921 1_554 S
C265 C262 1.348 . S
C265 C263 1.356 . S
H266 C260 0.930 . S
H267 C264 0.921 1_556 S
O268 Li208 1.956 . S
O268 Li209 1.974 1_556 S
O268 Li210 1.958 . S
O268 C212 1.324 . S
O269 Li208 1.970 1_554 S
O269 Li209 1.956 . S
O269 Li211 1.961 . S
O269 C218 1.325 . S
O270 Li208 1.961 . S
O270 Li210 1.956 . S
O270 Li211 1.970 1_556 S
O270 C240 1.325 . S
O271 Li209 1.961 . S
O271 Li210 1.970 1_554 S
O271 Li211 1.956 . S
O271 C246 1.325 . S
H272 C214 0.929 . S
H273 C215 0.930 . S
H274 C216 0.930 . S
H275 C217 0.930 . S
H276 C219 0.930 . S
H277 C221 0.929 . S
H278 C222 0.930 . S
H279 C223 0.930 . S
H280 C226 0.929 . S
H281 C229 0.929 1_545 S
H282 C234 0.929 . S
H283 C235 0.930 . S
H284 C242 0.929 . S
H285 C243 0.930 . S
H286 C244 0.930 . S
H287 C245 0.930 . S
H288 C247 0.929 . S
H289 C248 0.930 . S
H290 C249 0.930 . S
H291 C250 0.930 . S
H292 C254 0.929 . S
H293 C256 0.930 . S
H294 C262 0.929 . S
H295 C263 0.930 . S
Li296 N313 1.990 . S
Li296 O356 1.956 . S
Li296 O357 1.970 . S
Li296 O358 1.961 . S
Li297 N321 1.990 . S
Li297 O356 1.970 . S
Li297 O357 1.956 . S
Li297 O359 1.961 . S
Li298 N343 1.990 . S
Li298 O356 1.961 . S
Li298 O358 1.956 . S
Li298 O359 1.970 . S
Li299 N349 1.990 . S
Li299 O357 1.961 . S
Li299 O358 1.970 . S
Li299 O359 1.956 . S
C300 C302 1.348 . S
C300 C303 1.356 . S
C300 O356 1.325 . S
N301 C304 1.314 . S
N301 C305 1.279 . S
C302 C300 1.348 . S
C302 C304 1.353 . S
C302 H360 0.929 . S
C303 C300 1.356 . S
C303 C305 1.358 . S
C303 H361 0.930 . S
C304 N301 1.314 . S
C304 C302 1.353 . S
C304 H362 0.930 . S
C305 N301 1.279 . S
C305 C303 1.358 . S
C305 H363 0.930 . S
C306 C309 1.348 . S
C306 C310 1.356 . S
C306 O357 1.325 . S
C307 N308 1.279 . S
C307 C310 1.358 . S
C307 H364 0.930 . S
N308 C307 1.279 . S
N308 C311 1.314 . S
C309 C306 1.348 . S
C309 C311 1.353 . S
C309 H365 0.929 . S
C310 C306 1.356 . S
C310 C307 1.358 . S
C310 H366 0.930 . S
C311 N308 1.314 . S
C311 C309 1.353 . S
C311 H367 0.930 . S
C312 N313 1.314 . S
C312 C317 1.353 . S
C312 H318 0.930 . S
N313 Li296 1.990 . S
N313 C312 1.314 . S
N313 C315 1.279 . S
C314 C315 1.358 . S
C314 C316 1.356 . S
C314 H368 0.930 . S
C315 N313 1.279 . S
C315 C314 1.358 . S
C315 H319 0.930 . S
C316 C314 1.356 . S
C316 C317 1.348 . S
C317 C312 1.353 . S
C317 C316 1.348 . S
C317 H369 0.929 . S
H318 C312 0.930 . S
H319 C315 0.930 . S
C320 N321 1.314 . S
C320 C322 1.353 . S
C320 H326 0.930 . S
N321 Li297 1.990 . S
N321 C320 1.314 . S
N321 C324 1.279 . S
C322 C320 1.353 . S
C322 C325 1.348 . S
C322 H370 0.929 . S
C323 C324 1.358 . S
C323 C325 1.356 . S
C323 H371 0.930 . S
C324 N321 1.279 . S
C324 C323 1.358 . S
C324 H327 0.930 . S
C325 C322 1.348 . S
C325 C323 1.356 . S
H326 C320 0.930 . S
H327 C324 0.930 . S
C328 C330 1.348 . S
C328 C331 1.356 . S
C328 O358 1.325 . S
N329 C332 1.314 . S
N329 C333 1.279 . S
C330 C328 1.348 . S
C330 C332 1.353 . S
C330 H372 0.929 . S
C331 C328 1.356 . S
C331 C333 1.358 . S
C331 H373 0.930 . S
C332 N329 1.314 . S
C332 C330 1.353 . S
C332 H374 0.930 . S
C333 N329 1.279 . S
C333 C331 1.358 . S
C333 H375 0.930 . S
C334 C335 1.348 . S
C334 C336 1.356 . S
C334 O359 1.325 . S
C335 C334 1.348 . S
C335 C337 1.353 . S
C335 H376 0.929 . S
C336 C334 1.356 . S
C336 C338 1.358 . S
C336 H377 0.930 . S
C337 C335 1.353 . S
C337 N339 1.314 . S
C337 H378 0.930 . S
C338 C336 1.358 . S
C338 N339 1.279 . S
C338 H379 0.930 . S
N339 C337 1.314 . S
N339 C338 1.279 . S
C340 C342 1.353 . S
C340 N343 1.314 . S
C340 H346 0.930 . S
C341 N343 1.279 . S
C341 C344 1.358 . S
C341 H347 0.930 . S
C342 C340 1.353 . S
C342 C345 1.348 . S
C342 H380 0.929 . S
N343 Li298 1.990 . S
N343 C340 1.314 . S
N343 C341 1.279 . S
C344 C341 1.358 . S
C344 C345 1.356 . S
C344 H381 0.930 . S
C345 C342 1.348 . S
C345 C344 1.356 . S
H346 C340 0.930 . S
H347 C341 0.930 . S
C348 N349 1.314 . S
C348 C350 1.353 . S
C348 H354 0.930 . S
N349 Li299 1.990 . S
N349 C348 1.314 . S
N349 C352 1.279 . S
C350 C348 1.353 . S
C350 C353 1.348 . S
C350 H382 0.929 . S
C351 C352 1.358 . S
C351 C353 1.356 . S
C351 H383 0.930 . S
C352 N349 1.279 . S
C352 C351 1.358 . S
C352 H355 0.930 . S
C353 C350 1.348 . S
C353 C351 1.356 . S
H354 C348 0.930 . S
H355 C352 0.930 . S
O356 Li296 1.956 . S
O356 Li297 1.970 . S
O356 Li298 1.961 . S
O356 C300 1.325 . S
O357 Li296 1.970 . S
O357 Li297 1.956 . S
O357 Li299 1.961 . S
O357 C306 1.325 . S
O358 Li296 1.961 . S
O358 Li298 1.956 . S
O358 Li299 1.970 . S
O358 C328 1.325 . S
O359 Li297 1.961 . S
O359 Li298 1.970 . S
O359 Li299 1.956 . S
O359 C334 1.325 . S
H360 C302 0.929 . S
H361 C303 0.930 . S
H362 C304 0.930 . S
H363 C305 0.930 . S
H364 C307 0.930 . S
H365 C309 0.929 . S
H366 C310 0.930 . S
H367 C311 0.930 . S
H368 C314 0.930 . S
H369 C317 0.929 . S
H370 C322 0.929 . S
H371 C323 0.930 . S
H372 C330 0.929 . S
H373 C331 0.930 . S
H374 C332 0.930 . S
H375 C333 0.930 . S
H376 C335 0.929 . S
H377 C336 0.930 . S
H378 C337 0.930 . S
H379 C338 0.930 . S
H380 C342 0.929 . S
H381 C344 0.930 . S
H382 C350 0.929 . S
H383 C351 0.930 . S
Li384 N401 1.990 . S
Li384 O444 1.956 . S
Li384 O445 1.970 . S
Li384 O446 1.961 . S
Li385 N409 1.990 . S
Li385 O444 1.970 . S
Li385 O445 1.956 . S
Li385 O447 1.961 . S
Li386 N431 1.990 1_554 S
Li386 O444 1.961 . S
Li386 O446 1.956 . S
Li386 O447 1.970 . S
Li387 N437 1.990 . S
Li387 O445 1.961 . S
Li387 O446 1.970 . S
Li387 O447 1.956 . S
C388 C390 1.348 . S
C388 C391 1.356 . S
C388 O444 1.325 . S
N389 C392 1.314 . S
N389 C393 1.279 . S
C390 C388 1.348 . S
C390 C392 1.353 . S
C390 H448 0.929 . S
C391 C388 1.356 . S
C391 C393 1.358 . S
C391 H449 0.930 1_554 S
C392 N389 1.314 . S
C392 C390 1.353 . S
C392 H450 0.930 . S
C393 N389 1.279 . S
C393 C391 1.358 . S
C393 H451 0.930 1_554 S
C394 C397 1.348 . S
C394 C398 1.356 . S
C394 O445 1.325 . S
C395 N396 1.279 . S
C395 C398 1.358 . S
C395 H452 0.930 . S
N396 C395 1.279 . S
N396 C399 1.314 . S
C397 C394 1.348 . S
C397 C399 1.353 . S
C397 H453 0.929 . S
C398 C394 1.356 . S
C398 C395 1.358 . S
C398 H454 0.930 . S
C399 N396 1.314 . S
C399 C397 1.353 . S
C399 H455 0.930 . S
C400 N401 1.314 . S
C400 C405 1.353 . S
C400 H406 0.930 . S
N401 Li384 1.990 . S
N401 C400 1.314 . S
N401 C403 1.279 . S
C402 C403 1.358 . S
C402 C404 1.356 . S
C402 H456 0.930 . S
C403 N401 1.279 . S
C403 C402 1.358 . S
C403 H407 0.930 . S
C404 C402 1.356 . S
C404 C405 1.348 . S
C405 C400 1.353 . S
C405 C404 1.348 . S
C405 H457 0.929 . S
H406 C400 0.930 . S
H407 C403 0.930 . S
C408 N409 1.314 . S
C408 C410 1.353 . S
C408 H414 0.930 . S
N409 Li385 1.990 . S
N409 C408 1.314 . S
N409 C412 1.279 . S
C410 C408 1.353 . S
C410 C413 1.348 . S
C410 H458 0.929 . S
C411 C412 1.358 . S
C411 C413 1.356 . S
C411 H459 0.930 . S
C412 N409 1.279 . S
C412 C411 1.358 . S
C412 H415 0.930 . S
C413 C410 1.348 . S
C413 C411 1.356 . S
H414 C408 0.930 . S
H415 C412 0.930 . S
C416 C418 1.348 . S
C416 C419 1.356 . S
C416 O446 1.325 1_556 S
N417 C420 1.314 . S
N417 C421 1.279 . S
C418 C416 1.348 . S
C418 C420 1.353 . S
C418 H460 0.929 1_556 S
C419 C416 1.356 . S
C419 C421 1.358 . S
C419 H461 0.930 . S
C420 N417 1.314 . S
C420 C418 1.353 . S
C420 H462 0.930 . S
C421 N417 1.279 . S
C421 C419 1.358 . S
C421 H463 0.930 . S
C422 C423 1.348 . S
C422 C424 1.356 . S
C422 O447 1.325 . S
C423 C422 1.348 . S
C423 C425 1.353 . S
C423 H464 0.929 . S
C424 C422 1.356 . S
C424 C426 1.358 . S
C424 H465 0.930 . S
C425 C423 1.353 . S
C425 N427 1.314 . S
C425 H466 0.930 . S
C426 C424 1.358 . S
C426 N427 1.279 . S
C426 H467 0.930 . S
N427 C425 1.314 . S
N427 C426 1.279 . S
C428 C430 1.353 . S
C428 N431 1.314 . S
C428 H434 0.930 1_556 S
C429 N431 1.279 . S
C429 C432 1.358 . S
C429 H435 0.930 . S
C430 C428 1.353 . S
C430 C433 1.348 . S
C430 H468 0.929 . S
N431 Li386 1.990 1_556 S
N431 C428 1.314 . S
N431 C429 1.279 . S
C432 C429 1.358 . S
C432 C433 1.356 . S
C432 H469 0.930 . S
C433 C430 1.348 . S
C433 C432 1.356 . S
H434 C428 0.930 1_554 S
H435 C429 0.930 . S
C436 N437 1.314 . S
C436 C438 1.353 . S
C436 H442 0.930 . S
N437 Li387 1.990 . S
N437 C436 1.314 . S
N437 C440 1.279 . S
C438 C436 1.353 . S
C438 C441 1.348 . S
C438 H470 0.929 . S
C439 C440 1.358 . S
C439 C441 1.356 . S
C439 H471 0.930 . S
C440 N437 1.279 . S
C440 C439 1.358 . S
C440 H443 0.930 . S
C441 C438 1.348 . S
C441 C439 1.356 . S
H442 C436 0.930 . S
H443 C440 0.930 . S
O444 Li384 1.956 . S
O444 Li385 1.970 . S
O444 Li386 1.961 . S
O444 C388 1.325 . S
O445 Li384 1.970 . S
O445 Li385 1.956 . S
O445 Li387 1.961 . S
O445 C394 1.325 . S
O446 Li384 1.961 . S
O446 Li386 1.956 . S
O446 Li387 1.970 . S
O446 C416 1.325 1_554 S
O447 Li385 1.961 . S
O447 Li386 1.970 . S
O447 Li387 1.956 . S
O447 C422 1.325 . S
H448 C390 0.929 . S
H449 C391 0.930 1_556 S
H450 C392 0.930 . S
H451 C393 0.930 1_556 S
H452 C395 0.930 . S
H453 C397 0.929 . S
H454 C398 0.930 . S
H455 C399 0.930 . S
H456 C402 0.930 . S
H457 C405 0.929 . S
H458 C410 0.929 . S
H459 C411 0.930 . S
H460 C418 0.929 1_554 S
H461 C419 0.930 . S
H462 C420 0.930 . S
H463 C421 0.930 . S
H464 C423 0.929 . S
H465 C424 0.930 . S
H466 C425 0.930 . S
H467 C426 0.930 . S
H468 C430 0.929 . S
H469 C432 0.930 . S
H470 C438 0.929 . S
H471 C439 0.930 . S
Li472 N489 1.990 . S
Li472 O532 1.956 . S
Li472 O533 1.970 . S
Li472 O534 1.961 . S
Li473 N497 1.990 . S
Li473 O532 1.970 . S
Li473 O533 1.956 . S
Li473 O535 1.961 1_545 S
Li474 N519 1.990 . S
Li474 O532 1.961 . S
Li474 O534 1.956 . S
Li474 O535 1.970 1_545 S
Li475 N525 1.990 . S
Li475 O533 1.961 1_565 S
Li475 O534 1.970 1_565 S
Li475 O535 1.956 . S
C476 C478 1.348 . S
C476 C479 1.356 . S
C476 O532 1.325 . S
N477 C480 1.314 . S
N477 C481 1.279 . S
C478 C476 1.348 . S
C478 C480 1.353 . S
C478 H536 0.929 . S
C479 C476 1.356 . S
C479 C481 1.358 . S
C479 H537 0.930 . S
C480 N477 1.314 . S
C480 C478 1.353 . S
C480 H538 0.930 . S
C481 N477 1.279 . S
C481 C479 1.358 . S
C481 H539 0.930 . S
C482 C485 1.348 . S
C482 C486 1.356 1_545 S
C482 O533 1.325 . S
C483 N484 1.279 1_565 S
C483 C486 1.358 . S
C483 H540 0.930 . S
N484 C483 1.279 1_545 S
N484 C487 1.314 . S
C485 C482 1.348 . S
C485 C487 1.353 . S
C485 H541 0.929 . S
C486 C482 1.356 1_565 S
C486 C483 1.358 . S
C486 H542 0.930 . S
C487 N484 1.314 . S
C487 C485 1.353 . S
C487 H543 0.930 . S
C488 N489 1.314 . S
C488 C493 1.353 . S
C488 H494 0.930 . S
N489 Li472 1.990 . S
N489 C488 1.314 . S
N489 C491 1.279 . S
C490 C491 1.358 . S
C490 C492 1.356 . S
C490 H544 0.930 . S
C491 N489 1.279 . S
C491 C490 1.358 . S
C491 H495 0.930 . S
C492 C490 1.356 . S
C492 C493 1.348 . S
C493 C488 1.353 . S
C493 C492 1.348 . S
C493 H545 0.929 . S
H494 C488 0.930 . S
H495 C491 0.930 . S
C496 N497 1.314 . S
C496 C498 1.353 . S
C496 H502 0.930 . S
N497 Li473 1.990 . S
N497 C496 1.314 . S
N497 C500 1.279 . S
C498 C496 1.353 . S
C498 C501 1.348 . S
C498 H546 0.929 1_545 S
C499 C500 1.358 . S
C499 C501 1.356 . S
C499 H547 0.930 . S
C500 N497 1.279 . S
C500 C499 1.358 . S
C500 H503 0.930 . S
C501 C498 1.348 . S
C501 C499 1.356 . S
H502 C496 0.930 . S
H503 C500 0.930 . S
C504 C506 1.348 . S
C504 C507 1.356 . S
C504 O534 1.325 . S
N505 C508 1.314 . S
N505 C509 1.279 . S
C506 C504 1.348 . S
C506 C508 1.353 . S
C506 H548 0.929 1_545 S
C507 C504 1.356 . S
C507 C509 1.358 . S
C507 H549 0.930 . S
C508 N505 1.314 . S
C508 C506 1.353 . S
C508 H550 0.930 1_545 S
C509 N505 1.279 . S
C509 C507 1.358 . S
C509 H551 0.930 . S
C510 C511 1.348 . S
C510 C512 1.356 . S
C510 O535 1.325 . S
C511 C510 1.348 . S
C511 C513 1.353 . S
C511 H552 0.929 . S
C512 C510 1.356 . S
C512 C514 1.358 . S
C512 H553 0.930 . S
C513 C511 1.353 . S
C513 N515 1.314 . S
C513 H554 0.930 . S
C514 C512 1.358 . S
C514 N515 1.279 . S
C514 H555 0.930 . S
N515 C513 1.314 . S
N515 C514 1.279 . S
C516 C518 1.353 . S
C516 N519 1.314 . S
C516 H522 0.930 . S
C517 N519 1.279 . S
C517 C520 1.358 . S
C517 H523 0.930 . S
C518 C516 1.353 . S
C518 C521 1.348 . S
C518 H556 0.929 . S
N519 Li474 1.990 . S
N519 C516 1.314 . S
N519 C517 1.279 . S
C520 C517 1.358 . S
C520 C521 1.356 . S
C520 H557 0.930 . S
C521 C518 1.348 . S
C521 C520 1.356 . S
H522 C516 0.930 . S
H523 C517 0.930 . S
C524 N525 1.314 . S
C524 C526 1.353 . S
C524 H530 0.930 . S
N525 Li475 1.990 . S
N525 C524 1.314 . S
N525 C528 1.279 . S
C526 C524 1.353 . S
C526 C529 1.348 . S
C526 H558 0.929 . S
C527 C528 1.358 . S
C527 C529 1.356 . S
C527 H559 0.930 . S
C528 N525 1.279 . S
C528 C527 1.358 . S
C528 H531 0.930 . S
C529 C526 1.348 . S
C529 C527 1.356 . S
H530 C524 0.930 . S
H531 C528 0.930 . S
O532 Li472 1.956 . S
O532 Li473 1.970 . S
O532 Li474 1.961 . S
O532 C476 1.325 . S
O533 Li472 1.970 . S
O533 Li473 1.956 . S
O533 Li475 1.961 1_545 S
O533 C482 1.325 . S
O534 Li472 1.961 . S
O534 Li474 1.956 . S
O534 Li475 1.970 1_545 S
O534 C504 1.325 . S
O535 Li473 1.961 1_565 S
O535 Li474 1.970 1_565 S
O535 Li475 1.956 . S
O535 C510 1.325 . S
H536 C478 0.929 . S
H537 C479 0.930 . S
H538 C480 0.930 . S
H539 C481 0.930 . S
H540 C483 0.930 . S
H541 C485 0.929 . S
H542 C486 0.930 . S
H543 C487 0.930 . S
H544 C490 0.930 . S
H545 C493 0.929 . S
H546 C498 0.929 1_565 S
H547 C499 0.930 . S
H548 C506 0.929 1_565 S
H549 C507 0.930 . S
H550 C508 0.930 1_565 S
H551 C509 0.930 . S
H552 C511 0.929 . S
H553 C512 0.930 . S
H554 C513 0.930 . S
H555 C514 0.930 . S
H556 C518 0.929 . S
H557 C520 0.930 . S
H558 C526 0.929 . S
H559 C527 0.930 . S
Li560 N577 1.990 . S
Li560 O620 1.956 . S
Li560 O621 1.970 . S
Li560 O622 1.961 . S
Li561 N585 1.990 . S
Li561 O620 1.970 . S
Li561 O621 1.956 . S
Li561 O623 1.961 . S
Li562 N607 1.990 . S
Li562 O620 1.961 . S
Li562 O622 1.956 . S
Li562 O623 1.970 . S
Li563 N613 1.990 . S
Li563 O621 1.961 . S
Li563 O622 1.970 . S
Li563 O623 1.956 . S
C564 C566 1.348 . S
C564 C567 1.356 . S
C564 O620 1.325 . S
N565 C568 1.314 . S
N565 C569 1.279 . S
C566 C564 1.348 . S
C566 C568 1.353 . S
C566 H624 0.929 . S
C567 C564 1.356 . S
C567 C569 1.358 . S
C567 H625 0.930 . S
C568 N565 1.314 . S
C568 C566 1.353 . S
C568 H626 0.930 . S
C569 N565 1.279 . S
C569 C567 1.358 . S
C569 H627 0.930 . S
C570 C573 1.348 . S
C570 C574 1.356 . S
C570 O621 1.325 . S
C571 N572 1.279 . S
C571 C574 1.358 . S
C571 H628 0.930 . S
N572 C571 1.279 . S
N572 C575 1.314 . S
C573 C570 1.348 . S
C573 C575 1.353 . S
C573 H629 0.929 . S
C574 C570 1.356 . S
C574 C571 1.358 . S
C574 H630 0.930 . S
C575 N572 1.314 . S
C575 C573 1.353 . S
C575 H631 0.930 . S
C576 N577 1.314 . S
C576 C581 1.353 . S
C576 H582 0.930 . S
N577 Li560 1.990 . S
N577 C576 1.314 . S
N577 C579 1.279 . S
C578 C579 1.358 . S
C578 C580 1.356 . S
C578 H632 0.930 . S
C579 N577 1.279 . S
C579 C578 1.358 . S
C579 H583 0.930 . S
C580 C578 1.356 . S
C580 C581 1.348 . S
C581 C576 1.353 . S
C581 C580 1.348 . S
C581 H633 0.929 . S
H582 C576 0.930 . S
H583 C579 0.930 . S
C584 N585 1.314 . S
C584 C586 1.353 . S
C584 H590 0.930 . S
N585 Li561 1.990 . S
N585 C584 1.314 . S
N585 C588 1.279 . S
C586 C584 1.353 . S
C586 C589 1.348 . S
C586 H634 0.929 . S
C587 C588 1.358 . S
C587 C589 1.356 . S
C587 H635 0.930 . S
C588 N585 1.279 . S
C588 C587 1.358 . S
C588 H591 0.930 . S
C589 C586 1.348 . S
C589 C587 1.356 . S
H590 C584 0.930 . S
H591 C588 0.930 . S
C592 C594 1.348 . S
C592 C595 1.356 . S
C592 O622 1.325 . S
N593 C596 1.314 . S
N593 C597 1.279 . S
C594 C592 1.348 . S
C594 C596 1.353 . S
C594 H636 0.929 . S
C595 C592 1.356 . S
C595 C597 1.358 . S
C595 H637 0.930 . S
C596 N593 1.314 . S
C596 C594 1.353 . S
C596 H638 0.930 . S
C597 N593 1.279 . S
C597 C595 1.358 . S
C597 H639 0.930 . S
C598 C599 1.348 . S
C598 C600 1.356 . S
C598 O623 1.325 . S
C599 C598 1.348 . S
C599 C601 1.353 . S
C599 H640 0.929 . S
C600 C598 1.356 . S
C600 C602 1.358 . S
C600 H641 0.930 . S
C601 C599 1.353 . S
C601 N603 1.314 . S
C601 H642 0.930 . S
C602 C600 1.358 . S
C602 N603 1.279 . S
C602 H643 0.930 . S
N603 C601 1.314 . S
N603 C602 1.279 . S
C604 C606 1.353 . S
C604 N607 1.314 . S
C604 H610 0.930 . S
C605 N607 1.279 . S
C605 C608 1.358 . S
C605 H611 0.930 . S
C606 C604 1.353 . S
C606 C609 1.348 . S
C606 H644 0.929 . S
N607 Li562 1.990 . S
N607 C604 1.314 . S
N607 C605 1.279 . S
C608 C605 1.358 . S
C608 C609 1.356 . S
C608 H645 0.930 . S
C609 C606 1.348 . S
C609 C608 1.356 . S
H610 C604 0.930 . S
H611 C605 0.930 . S
C612 N613 1.314 . S
C612 C614 1.353 . S
C612 H618 0.930 . S
N613 Li563 1.990 . S
N613 C612 1.314 . S
N613 C616 1.279 . S
C614 C612 1.353 . S
C614 C617 1.348 . S
C614 H646 0.929 . S
C615 C616 1.358 . S
C615 C617 1.356 . S
C615 H647 0.930 . S
C616 N613 1.279 . S
C616 C615 1.358 . S
C616 H619 0.930 . S
C617 C614 1.348 . S
C617 C615 1.356 . S
H618 C612 0.930 . S
H619 C616 0.930 . S
O620 Li560 1.956 . S
O620 Li561 1.970 . S
O620 Li562 1.961 . S
O620 C564 1.325 . S
O621 Li560 1.970 . S
O621 Li561 1.956 . S
O621 Li563 1.961 . S
O621 C570 1.325 . S
O622 Li560 1.961 . S
O622 Li562 1.956 . S
O622 Li563 1.970 . S
O622 C592 1.325 . S
O623 Li561 1.961 . S
O623 Li562 1.970 . S
O623 Li563 1.956 . S
O623 C598 1.325 . S
H624 C566 0.929 . S
H625 C567 0.930 . S
H626 C568 0.930 . S
H627 C569 0.930 . S
H628 C571 0.930 . S
H629 C573 0.929 . S
H630 C574 0.930 . S
H631 C575 0.930 . S
H632 C578 0.930 . S
H633 C581 0.929 . S
H634 C586 0.929 . S
H635 C587 0.930 . S
H636 C594 0.929 . S
H637 C595 0.930 . S
H638 C596 0.930 . S
H639 C597 0.930 . S
H640 C599 0.929 . S
H641 C600 0.930 . S
H642 C601 0.930 . S
H643 C602 0.930 . S
H644 C606 0.929 . S
H645 C608 0.930 . S
H646 C614 0.929 . S
H647 C615 0.930 . S
Li648 N665 1.990 . S
Li648 O708 1.956 . S
Li648 O709 1.970 . S
Li648 O710 1.961 . S
Li649 N673 1.990 . S
Li649 O708 1.970 . S
Li649 O709 1.956 . S
Li649 O711 1.961 . S
Li650 N695 1.990 . S
Li650 O708 1.961 . S
Li650 O710 1.956 . S
Li650 O711 1.970 . S
Li651 N701 1.990 . S
Li651 O709 1.961 . S
Li651 O710 1.970 . S
Li651 O711 1.956 . S
C652 C654 1.348 . S
C652 C655 1.356 . S
C652 O708 1.325 . S
N653 C656 1.314 . S
N653 C657 1.279 . S
C654 C652 1.348 . S
C654 C656 1.353 . S
C654 H712 0.929 . S
C655 C652 1.356 . S
C655 C657 1.358 . S
C655 H713 0.930 . S
C656 N653 1.314 . S
C656 C654 1.353 . S
C656 H714 0.930 . S
C657 N653 1.279 . S
C657 C655 1.358 . S
C657 H715 0.930 . S
C658 C661 1.348 . S
C658 C662 1.356 . S
C658 O709 1.325 . S
C659 N660 1.279 . S
C659 C662 1.358 . S
C659 H716 0.930 . S
N660 C659 1.279 . S
N660 C663 1.314 . S
C661 C658 1.348 . S
C661 C663 1.353 . S
C661 H717 0.929 . S
C662 C658 1.356 . S
C662 C659 1.358 . S
C662 H718 0.930 . S
C663 N660 1.314 . S
C663 C661 1.353 . S
C663 H719 0.930 . S
C664 N665 1.314 . S
C664 C669 1.353 . S
C664 H670 0.930 . S
N665 Li648 1.990 . S
N665 C664 1.314 . S
N665 C667 1.279 . S
C666 C667 1.358 . S
C666 C668 1.356 . S
C666 H720 0.930 . S
C667 N665 1.279 . S
C667 C666 1.358 . S
C667 H671 0.930 . S
C668 C666 1.356 . S
C668 C669 1.348 . S
C669 C664 1.353 . S
C669 C668 1.348 . S
C669 H721 0.929 . S
H670 C664 0.930 . S
H671 C667 0.930 . S
C672 N673 1.314 . S
C672 C674 1.353 . S
C672 H678 0.930 . S
N673 Li649 1.990 . S
N673 C672 1.314 . S
N673 C676 1.279 . S
C674 C672 1.353 . S
C674 C677 1.348 . S
C674 H722 0.929 . S
C675 C676 1.358 . S
C675 C677 1.356 . S
C675 H723 0.930 . S
C676 N673 1.279 . S
C676 C675 1.358 . S
C676 H679 0.930 . S
C677 C674 1.348 . S
C677 C675 1.356 . S
H678 C672 0.930 . S
H679 C676 0.930 . S
C680 C682 1.348 . S
C680 C683 1.356 . S
C680 O710 1.325 . S
N681 C684 1.314 . S
N681 C685 1.279 . S
C682 C680 1.348 . S
C682 C684 1.353 . S
C682 H724 0.929 . S
C683 C680 1.356 . S
C683 C685 1.358 . S
C683 H725 0.930 . S
C684 N681 1.314 . S
C684 C682 1.353 . S
C684 H726 0.930 . S
C685 N681 1.279 . S
C685 C683 1.358 . S
C685 H727 0.930 . S
C686 C687 1.348 . S
C686 C688 1.356 . S
C686 O711 1.325 . S
C687 C686 1.348 . S
C687 C689 1.353 . S
C687 H728 0.929 . S
C688 C686 1.356 . S
C688 C690 1.358 . S
C688 H729 0.930 . S
C689 C687 1.353 . S
C689 N691 1.314 . S
C689 H730 0.930 . S
C690 C688 1.358 . S
C690 N691 1.279 . S
C690 H731 0.930 . S
N691 C689 1.314 . S
N691 C690 1.279 . S
C692 C694 1.353 . S
C692 N695 1.314 . S
C692 H698 0.930 . S
C693 N695 1.279 . S
C693 C696 1.358 . S
C693 H699 0.930 . S
C694 C692 1.353 . S
C694 C697 1.348 . S
C694 H732 0.929 . S
N695 Li650 1.990 . S
N695 C692 1.314 . S
N695 C693 1.279 . S
C696 C693 1.358 . S
C696 C697 1.356 . S
C696 H733 0.930 . S
C697 C694 1.348 . S
C697 C696 1.356 . S
H698 C692 0.930 . S
H699 C693 0.930 . S
C700 N701 1.314 . S
C700 C702 1.353 . S
C700 H706 0.930 . S
N701 Li651 1.990 . S
N701 C700 1.314 . S
N701 C704 1.279 . S
C702 C700 1.353 . S
C702 C705 1.348 . S
C702 H734 0.929 . S
C703 C704 1.358 . S
C703 C705 1.356 . S
C703 H735 0.930 . S
C704 N701 1.279 . S
C704 C703 1.358 . S
C704 H707 0.930 . S
C705 C702 1.348 . S
C705 C703 1.356 . S
H706 C700 0.930 . S
H707 C704 0.930 . S
O708 Li648 1.956 . S
O708 Li649 1.970 . S
O708 Li650 1.961 . S
O708 C652 1.325 . S
O709 Li648 1.970 . S
O709 Li649 1.956 . S
O709 Li651 1.961 . S
O709 C658 1.325 . S
O710 Li648 1.961 . S
O710 Li650 1.956 . S
O710 Li651 1.970 . S
O710 C680 1.325 . S
O711 Li649 1.961 . S
O711 Li650 1.970 . S
O711 Li651 1.956 . S
O711 C686 1.325 . S
H712 C654 0.929 . S
H713 C655 0.930 . S
H714 C656 0.930 . S
H715 C657 0.930 . S
H716 C659 0.930 . S
H717 C661 0.929 . S
H718 C662 0.930 . S
H719 C663 0.930 . S
H720 C666 0.930 . S
H721 C669 0.929 . S
H722 C674 0.929 . S
H723 C675 0.930 . S
H724 C682 0.929 . S
H725 C683 0.930 . S
H726 C684 0.930 . S
H727 C685 0.930 . S
H728 C687 0.929 . S
H729 C688 0.930 . S
H730 C689 0.930 . S
H731 C690 0.930 . S
H732 C694 0.929 . S
H733 C696 0.930 . S
H734 C702 0.929 . S
H735 C703 0.930 . S
Li736 N753 1.990 . S
Li736 O796 1.956 . S
Li736 O797 1.970 . S
Li736 O798 1.961 . S
Li737 N761 1.990 . S
Li737 O796 1.970 . S
Li737 O797 1.956 . S
Li737 O799 1.961 . S
Li738 N783 1.990 . S
Li738 O796 1.961 . S
Li738 O798 1.956 . S
Li738 O799 1.970 . S
Li739 N789 1.990 . S
Li739 O797 1.961 . S
Li739 O798 1.970 . S
Li739 O799 1.956 . S
C740 C742 1.348 . S
C740 C743 1.356 . S
C740 O796 1.325 . S
N741 C744 1.314 . S
N741 C745 1.279 . S
C742 C740 1.348 . S
C742 C744 1.353 . S
C742 H800 0.929 . S
C743 C740 1.356 . S
C743 C745 1.358 . S
C743 H801 0.930 . S
C744 N741 1.314 . S
C744 C742 1.353 . S
C744 H802 0.930 . S
C745 N741 1.279 . S
C745 C743 1.358 . S
C745 H803 0.930 . S
C746 C749 1.348 . S
C746 C750 1.356 . S
C746 O797 1.325 . S
C747 N748 1.279 . S
C747 C750 1.358 . S
C747 H804 0.930 . S
N748 C747 1.279 . S
N748 C751 1.314 . S
C749 C746 1.348 . S
C749 C751 1.353 . S
C749 H805 0.929 . S
C750 C746 1.356 . S
C750 C747 1.358 . S
C750 H806 0.930 . S
C751 N748 1.314 . S
C751 C749 1.353 . S
C751 H807 0.930 . S
C752 N753 1.314 . S
C752 C757 1.353 . S
C752 H758 0.930 . S
N753 Li736 1.990 . S
N753 C752 1.314 . S
N753 C755 1.279 . S
C754 C755 1.358 . S
C754 C756 1.356 . S
C754 H808 0.930 . S
C755 N753 1.279 . S
C755 C754 1.358 . S
C755 H759 0.930 . S
C756 C754 1.356 . S
C756 C757 1.348 . S
C757 C752 1.353 . S
C757 C756 1.348 . S
C757 H809 0.929 . S
H758 C752 0.930 . S
H759 C755 0.930 . S
C760 N761 1.314 . S
C760 C762 1.353 . S
C760 H766 0.930 . S
N761 Li737 1.990 . S
N761 C760 1.314 . S
N761 C764 1.279 . S
C762 C760 1.353 . S
C762 C765 1.348 . S
C762 H810 0.929 . S
C763 C764 1.358 . S
C763 C765 1.356 . S
C763 H811 0.930 . S
C764 N761 1.279 . S
C764 C763 1.358 . S
C764 H767 0.930 . S
C765 C762 1.348 . S
C765 C763 1.356 . S
H766 C760 0.930 . S
H767 C764 0.930 . S
C768 C770 1.348 . S
C768 C771 1.356 . S
C768 O798 1.325 . S
N769 C772 1.314 . S
N769 C773 1.279 . S
C770 C768 1.348 . S
C770 C772 1.353 . S
C770 H812 0.929 . S
C771 C768 1.356 . S
C771 C773 1.358 . S
C771 H813 0.930 . S
C772 N769 1.314 . S
C772 C770 1.353 . S
C772 H814 0.930 . S
C773 N769 1.279 . S
C773 C771 1.358 . S
C773 H815 0.930 . S
C774 C775 1.348 . S
C774 C776 1.356 . S
C774 O799 1.325 . S
C775 C774 1.348 . S
C775 C777 1.353 . S
C775 H816 0.929 . S
C776 C774 1.356 . S
C776 C778 1.358 . S
C776 H817 0.930 . S
C777 C775 1.353 . S
C777 N779 1.314 . S
C777 H818 0.930 . S
C778 C776 1.358 . S
C778 N779 1.279 . S
C778 H819 0.930 . S
N779 C777 1.314 . S
N779 C778 1.279 . S
C780 C782 1.353 . S
C780 N783 1.314 . S
C780 H786 0.930 . S
C781 N783 1.279 . S
C781 C784 1.358 . S
C781 H787 0.930 . S
C782 C780 1.353 . S
C782 C785 1.348 . S
C782 H820 0.929 . S
N783 Li738 1.990 . S
N783 C780 1.314 . S
N783 C781 1.279 . S
C784 C781 1.358 . S
C784 C785 1.356 . S
C784 H821 0.930 . S
C785 C782 1.348 . S
C785 C784 1.356 . S
H786 C780 0.930 . S
H787 C781 0.930 . S
C788 N789 1.314 . S
C788 C790 1.353 . S
C788 H794 0.930 . S
N789 Li739 1.990 . S
N789 C788 1.314 . S
N789 C792 1.279 . S
C790 C788 1.353 . S
C790 C793 1.348 . S
C790 H822 0.929 . S
C791 C792 1.358 . S
C791 C793 1.356 . S
C791 H823 0.930 . S
C792 N789 1.279 . S
C792 C791 1.358 . S
C792 H795 0.930 . S
C793 C790 1.348 . S
C793 C791 1.356 . S
H794 C788 0.930 . S
H795 C792 0.930 . S
O796 Li736 1.956 . S
O796 Li737 1.970 . S
O796 Li738 1.961 . S
O796 C740 1.325 . S
O797 Li736 1.970 . S
O797 Li737 1.956 . S
O797 Li739 1.961 . S
O797 C746 1.325 . S
O798 Li736 1.961 . S
O798 Li738 1.956 . S
O798 Li739 1.970 . S
O798 C768 1.325 . S
O799 Li737 1.961 . S
O799 Li738 1.970 . S
O799 Li739 1.956 . S
O799 C774 1.325 . S
H800 C742 0.929 . S
H801 C743 0.930 . S
H802 C744 0.930 . S
H803 C745 0.930 . S
H804 C747 0.930 . S
H805 C749 0.929 . S
H806 C750 0.930 . S
H807 C751 0.930 . S
H808 C754 0.930 . S
H809 C757 0.929 . S
H810 C762 0.929 . S
H811 C763 0.930 . S
H812 C770 0.929 . S
H813 C771 0.930 . S
H814 C772 0.930 . S
H815 C773 0.930 . S
H816 C775 0.929 . S
H817 C776 0.930 . S
H818 C777 0.930 . S
H819 C778 0.930 . S
H820 C782 0.929 . S
H821 C784 0.930 . S
H822 C790 0.929 . S
H823 C791 0.930 . S
Li824 N841 1.990 . S
Li824 O884 1.956 . S
Li824 O885 1.970 1_565 S
Li824 O886 1.961 . S
Li825 N849 1.990 . S
Li825 O884 1.970 1_545 S
Li825 O885 1.956 . S
Li825 O887 1.961 . S
Li826 N871 1.990 . S
Li826 O884 1.961 . S
Li826 O886 1.956 . S
Li826 O887 1.970 1_565 S
Li827 N877 1.990 . S
Li827 O885 1.961 . S
Li827 O886 1.970 1_545 S
Li827 O887 1.956 . S
C828 C830 1.348 . S
C828 C831 1.356 . S
C828 O884 1.325 . S
N829 C832 1.314 . S
N829 C833 1.279 . S
C830 C828 1.348 . S
C830 C832 1.353 . S
C830 H888 0.929 . S
C831 C828 1.356 . S
C831 C833 1.358 . S
C831 H889 0.930 . S
C832 N829 1.314 . S
C832 C830 1.353 . S
C832 H890 0.930 . S
C833 N829 1.279 . S
C833 C831 1.358 . S
C833 H891 0.930 . S
C834 C837 1.348 1_545 S
C834 C838 1.356 . S
C834 O885 1.325 . S
C835 N836 1.279 . S
C835 C838 1.358 . S
C835 H892 0.930 . S
N836 C835 1.279 . S
N836 C839 1.314 . S
C837 C834 1.348 1_565 S
C837 C839 1.353 1_565 S
C837 H893 0.929 . S
C838 C834 1.356 . S
C838 C835 1.358 . S
C838 H894 0.930 . S
C839 N836 1.314 . S
C839 C837 1.353 1_545 S
C839 H895 0.930 1_545 S
C840 N841 1.314 . S
C840 C845 1.353 . S
C840 H846 0.930 . S
N841 Li824 1.990 . S
N841 C840 1.314 . S
N841 C843 1.279 . S
C842 C843 1.358 . S
C842 C844 1.356 . S
C842 H896 0.930 . S
C843 N841 1.279 . S
C843 C842 1.358 . S
C843 H847 0.930 . S
C844 C842 1.356 . S
C844 C845 1.348 . S
C845 C840 1.353 . S
C845 C844 1.348 . S
C845 H897 0.929 . S
H846 C840 0.930 . S
H847 C843 0.930 . S
C848 N849 1.314 . S
C848 C850 1.353 . S
C848 H854 0.930 . S
N849 Li825 1.990 . S
N849 C848 1.314 . S
N849 C852 1.279 . S
C850 C848 1.353 . S
C850 C853 1.348 . S
C850 H898 0.929 . S
C851 C852 1.358 . S
C851 C853 1.356 . S
C851 H899 0.930 . S
C852 N849 1.279 . S
C852 C851 1.358 . S
C852 H855 0.930 . S
C853 C850 1.348 . S
C853 C851 1.356 . S
H854 C848 0.930 . S
H855 C852 0.930 . S
C856 C858 1.348 1_565 S
C856 C859 1.356 . S
C856 O886 1.325 . S
N857 C860 1.314 1_565 S
N857 C861 1.279 . S
C858 C856 1.348 1_545 S
C858 C860 1.353 . S
C858 H900 0.929 . S
C859 C856 1.356 . S
C859 C861 1.358 . S
C859 H901 0.930 . S
C860 N857 1.314 1_545 S
C860 C858 1.353 . S
C860 H902 0.930 . S
C861 N857 1.279 . S
C861 C859 1.358 . S
C861 H903 0.930 . S
C862 C863 1.348 . S
C862 C864 1.356 . S
C862 O887 1.325 . S
C863 C862 1.348 . S
C863 C865 1.353 . S
C863 H904 0.929 . S
C864 C862 1.356 . S
C864 C866 1.358 . S
C864 H905 0.930 . S
C865 C863 1.353 . S
C865 N867 1.314 . S
C865 H906 0.930 . S
C866 C864 1.358 . S
C866 N867 1.279 . S
C866 H907 0.930 . S
N867 C865 1.314 . S
N867 C866 1.279 . S
C868 C870 1.353 . S
C868 N871 1.314 . S
C868 H874 0.930 . S
C869 N871 1.279 . S
C869 C872 1.358 . S
C869 H875 0.930 . S
C870 C868 1.353 . S
C870 C873 1.348 . S
C870 H908 0.929 . S
N871 Li826 1.990 . S
N871 C868 1.314 . S
N871 C869 1.279 . S
C872 C869 1.358 . S
C872 C873 1.356 . S
C872 H909 0.930 . S
C873 C870 1.348 . S
C873 C872 1.356 . S
H874 C868 0.930 . S
H875 C869 0.930 . S
C876 N877 1.314 . S
C876 C878 1.353 . S
C876 H882 0.930 . S
N877 Li827 1.990 . S
N877 C876 1.314 . S
N877 C880 1.279 . S
C878 C876 1.353 . S
C878 C881 1.348 . S
C878 H910 0.929 . S
C879 C880 1.358 . S
C879 C881 1.356 . S
C879 H911 0.930 . S
C880 N877 1.279 . S
C880 C879 1.358 . S
C880 H883 0.930 . S
C881 C878 1.348 . S
C881 C879 1.356 . S
H882 C876 0.930 . S
H883 C880 0.930 . S
O884 Li824 1.956 . S
O884 Li825 1.970 1_565 S
O884 Li826 1.961 . S
O884 C828 1.325 . S
O885 Li824 1.970 1_545 S
O885 Li825 1.956 . S
O885 Li827 1.961 . S
O885 C834 1.325 . S
O886 Li824 1.961 . S
O886 Li826 1.956 . S
O886 Li827 1.970 1_565 S
O886 C856 1.325 . S
O887 Li825 1.961 . S
O887 Li826 1.970 1_545 S
O887 Li827 1.956 . S
O887 C862 1.325 . S
H888 C830 0.929 . S
H889 C831 0.930 . S
H890 C832 0.930 . S
H891 C833 0.930 . S
H892 C835 0.930 . S
H893 C837 0.929 . S
H894 C838 0.930 . S
H895 C839 0.930 1_565 S
H896 C842 0.930 . S
H897 C845 0.929 . S
H898 C850 0.929 . S
H899 C851 0.930 . S
H900 C858 0.929 . S
H901 C859 0.930 . S
H902 C860 0.930 . S
H903 C861 0.930 . S
H904 C863 0.929 . S
H905 C864 0.930 . S
H906 C865 0.930 . S
H907 C866 0.930 . S
H908 C870 0.929 . S
H909 C872 0.930 . S
H910 C878 0.929 . S
H911 C879 0.930 . S
Li912 N929 1.990 . S
Li912 O972 1.956 . S
Li912 O973 1.946 1_455 S
Li912 O974 1.987 . S
Li913 N937 1.990 . S
Li913 O972 1.970 1_655 S
Li913 O973 1.958 . S
Li913 O975 1.961 . S
Li914 N959 1.990 . S
Li914 O972 1.961 . S
Li914 O974 1.956 . S
Li914 O975 1.970 1_455 S
Li915 N965 1.990 . S
Li915 O973 1.978 . S
Li915 O974 1.934 1_655 S
Li915 O975 1.956 . S
C916 C918 1.348 . S
C916 C919 1.356 . S
C916 O972 1.325 . S
N917 C920 1.314 . S
N917 C921 1.279 . S
C918 C916 1.348 . S
C918 C920 1.353 . S
C918 H976 0.929 . S
C919 C916 1.356 . S
C919 C921 1.358 . S
C919 H977 0.930 . S
C920 N917 1.314 . S
C920 C918 1.353 . S
C920 H978 0.930 . S
C921 N917 1.279 . S
C921 C919 1.358 . S
C921 H979 0.930 . S
C922 C925 1.348 1_655 S
C922 C926 1.356 . S
C922 O973 1.330 . S
C923 N924 1.279 . S
C923 C926 1.358 . S
C923 H980 0.930 . S
N924 C923 1.279 . S
N924 C927 1.314 1_655 S
C925 C922 1.348 1_455 S
C925 C927 1.353 . S
C925 H981 0.929 . S
C926 C922 1.356 . S
C926 C923 1.358 . S
C926 H982 0.930 . S
C927 N924 1.314 1_455 S
C927 C925 1.353 . S
C927 H983 0.930 . S
C928 N929 1.314 . S
C928 C933 1.353 . S
C928 H934 0.930 . S
N929 Li912 1.990 . S
N929 C928 1.314 . S
N929 C931 1.279 . S
C930 C931 1.358 . S
C930 C932 1.356 . S
C930 H984 0.930 . S
C931 N929 1.279 . S
C931 C930 1.358 . S
C931 H935 0.930 . S
C932 C930 1.356 . S
C932 C933 1.348 . S
C933 C928 1.353 . S
C933 C932 1.348 . S
C933 H985 0.929 . S
H934 C928 0.930 . S
H935 C931 0.930 . S
C936 N937 1.314 . S
C936 C938 1.353 . S
C936 H942 0.930 . S
N937 Li913 1.990 . S
N937 C936 1.314 . S
N937 C940 1.277 1_655 S
C938 C936 1.353 . S
C938 C941 1.348 . S
C938 H986 0.929 . S
C939 C940 1.357 . S
C939 C941 1.353 1_455 S
C939 H987 0.931 . S
C940 N937 1.277 1_455 S
C940 C939 1.357 . S
C940 H943 0.937 . S
C941 C938 1.348 . S
C941 C939 1.353 1_655 S
H942 C936 0.930 . S
H943 C940 0.937 . S
C944 C946 1.348 1_455 S
C944 C947 1.356 . S
C944 O974 1.334 . S
N945 C948 1.314 1_455 S
N945 C949 1.279 . S
C946 C944 1.348 1_655 S
C946 C948 1.353 . S
C946 H988 0.929 . S
C947 C944 1.356 . S
C947 C949 1.358 . S
C947 H989 0.930 . S
C948 N945 1.314 1_655 S
C948 C946 1.353 . S
C948 H990 0.930 . S
C949 N945 1.279 . S
C949 C947 1.358 . S
C949 H991 0.930 . S
C950 C951 1.348 . S
C950 C952 1.356 . S
C950 O975 1.325 . S
C951 C950 1.348 . S
C951 C953 1.353 . S
C951 H992 0.929 . S
C952 C950 1.356 . S
C952 C954 1.358 . S
C952 H993 0.930 . S
C953 C951 1.353 . S
C953 N955 1.314 . S
C953 H994 0.930 . S
C954 C952 1.358 . S
C954 N955 1.279 . S
C954 H995 0.930 . S
N955 C953 1.314 . S
N955 C954 1.279 . S
C956 C958 1.353 . S
C956 N959 1.314 . S
C956 H962 0.930 . S
C957 N959 1.278 1_655 S
C957 C960 1.358 . S
C957 H963 0.935 . S
C958 C956 1.353 . S
C958 C961 1.348 . S
C958 H996 0.929 . S
N959 Li914 1.990 . S
N959 C956 1.314 . S
N959 C957 1.278 1_455 S
C960 C957 1.358 . S
C960 C961 1.354 1_655 S
C960 H997 0.930 . S
C961 C958 1.348 . S
C961 C960 1.354 1_455 S
H962 C956 0.930 . S
H963 C957 0.935 . S
C964 N965 1.314 . S
C964 C966 1.353 . S
C964 H970 0.930 . S
N965 Li915 1.990 . S
N965 C964 1.314 . S
N965 C968 1.279 . S
C966 C964 1.353 . S
C966 C969 1.348 . S
C966 H998 0.929 . S
C967 C968 1.358 . S
C967 C969 1.356 . S
C967 H999 0.930 . S
C968 N965 1.279 . S
C968 C967 1.358 . S
C968 H971 0.930 . S
C969 C966 1.348 . S
C969 C967 1.356 . S
H970 C964 0.930 . S
H971 C968 0.930 . S
O972 Li912 1.956 . S
O972 Li913 1.970 1_455 S
O972 Li914 1.961 . S
O972 C916 1.325 . S
O973 Li912 1.946 1_655 S
O973 Li913 1.958 . S
O973 Li915 1.978 . S
O973 C922 1.330 . S
O974 Li912 1.987 . S
O974 Li914 1.956 . S
O974 Li915 1.934 1_455 S
O974 C944 1.334 . S
O975 Li913 1.961 . S
O975 Li914 1.970 1_655 S
O975 Li915 1.956 . S
O975 C950 1.325 . S
H976 C918 0.929 . S
H977 C919 0.930 . S
H978 C920 0.930 . S
H979 C921 0.930 . S
H980 C923 0.930 . S
H981 C925 0.929 . S
H982 C926 0.930 . S
H983 C927 0.930 . S
H984 C930 0.930 . S
H985 C933 0.929 . S
H986 C938 0.929 . S
H987 C939 0.931 . S
H988 C946 0.929 . S
H989 C947 0.930 . S
H990 C948 0.930 . S
H991 C949 0.930 . S
H992 C951 0.929 . S
H993 C952 0.930 . S
H994 C953 0.930 . S
H995 C954 0.930 . S
H996 C958 0.929 . S
H997 C960 0.930 . S
H998 C966 0.929 . S
H999 C967 0.930 . S
Li1000 N1017 1.990 . S
Li1000 O1060 1.956 . S
Li1000 O1061 1.970 . S
Li1000 O1062 1.961 . S
Li1001 N1025 1.990 . S
Li1001 O1060 1.970 . S
Li1001 O1061 1.956 . S
Li1001 O1063 1.961 . S
Li1002 N1047 1.990 . S
Li1002 O1060 1.961 . S
Li1002 O1062 1.956 . S
Li1002 O1063 1.970 . S
Li1003 N1053 1.990 . S
Li1003 O1061 1.961 . S
Li1003 O1062 1.970 . S
Li1003 O1063 1.956 . S
C1004 C1006 1.348 . S
C1004 C1007 1.356 . S
C1004 O1060 1.325 . S
N1005 C1008 1.314 . S
N1005 C1009 1.279 . S
C1006 C1004 1.348 . S
C1006 C1008 1.353 . S
C1006 H1064 0.929 . S
C1007 C1004 1.356 . S
C1007 C1009 1.358 . S
C1007 H1065 0.930 . S
C1008 N1005 1.314 . S
C1008 C1006 1.353 . S
C1008 H1066 0.930 . S
C1009 N1005 1.279 . S
C1009 C1007 1.358 . S
C1009 H1067 0.930 . S
C1010 C1013 1.348 . S
C1010 C1014 1.356 . S
C1010 O1061 1.325 . S
C1011 N1012 1.279 . S
C1011 C1014 1.358 . S
C1011 H1068 0.930 . S
N1012 C1011 1.279 . S
N1012 C1015 1.314 . S
C1013 C1010 1.348 . S
C1013 C1015 1.353 . S
C1013 H1069 0.929 . S
C1014 C1010 1.356 . S
C1014 C1011 1.358 . S
C1014 H1070 0.930 . S
C1015 N1012 1.314 . S
C1015 C1013 1.353 . S
C1015 H1071 0.930 . S
C1016 N1017 1.314 . S
C1016 C1021 1.353 . S
C1016 H1022 0.930 . S
N1017 Li1000 1.990 . S
N1017 C1016 1.314 . S
N1017 C1019 1.279 . S
C1018 C1019 1.358 . S
C1018 C1020 1.356 . S
C1018 H1072 0.930 . S
C1019 N1017 1.279 . S
C1019 C1018 1.358 . S
C1019 H1023 0.930 . S
C1020 C1018 1.356 . S
C1020 C1021 1.348 . S
C1021 C1016 1.353 . S
C1021 C1020 1.348 . S
C1021 H1073 0.929 . S
H1022 C1016 0.930 . S
H1023 C1019 0.930 . S
C1024 N1025 1.314 . S
C1024 C1026 1.353 . S
C1024 H1030 0.930 . S
N1025 Li1001 1.990 . S
N1025 C1024 1.314 . S
N1025 C1028 1.279 . S
C1026 C1024 1.353 . S
C1026 C1029 1.348 . S
C1026 H1074 0.929 . S
C1027 C1028 1.358 . S
C1027 C1029 1.356 . S
C1027 H1075 0.930 . S
C1028 N1025 1.279 . S
C1028 C1027 1.358 . S
C1028 H1031 0.930 . S
C1029 C1026 1.348 . S
C1029 C1027 1.356 . S
H1030 C1024 0.930 . S
H1031 C1028 0.930 . S
C1032 C1034 1.348 . S
C1032 C1035 1.356 . S
C1032 O1062 1.325 . S
N1033 C1036 1.314 . S
N1033 C1037 1.279 . S
C1034 C1032 1.348 . S
C1034 C1036 1.353 . S
C1034 H1076 0.929 . S
C1035 C1032 1.356 . S
C1035 C1037 1.358 . S
C1035 H1077 0.930 . S
C1036 N1033 1.314 . S
C1036 C1034 1.353 . S
C1036 H1078 0.930 . S
C1037 N1033 1.279 . S
C1037 C1035 1.358 . S
C1037 H1079 0.930 . S
C1038 C1039 1.348 . S
C1038 C1040 1.356 . S
C1038 O1063 1.325 . S
C1039 C1038 1.348 . S
C1039 C1041 1.353 . S
C1039 H1080 0.929 . S
C1040 C1038 1.356 . S
C1040 C1042 1.358 . S
C1040 H1081 0.930 . S
C1041 C1039 1.353 . S
C1041 N1043 1.314 . S
C1041 H1082 0.930 . S
C1042 C1040 1.358 . S
C1042 N1043 1.279 . S
C1042 H1083 0.930 . S
N1043 C1041 1.314 . S
N1043 C1042 1.279 . S
C1044 C1046 1.353 . S
C1044 N1047 1.314 . S
C1044 H1050 0.930 . S
C1045 N1047 1.279 . S
C1045 C1048 1.358 . S
C1045 H1051 0.930 . S
C1046 C1044 1.353 . S
C1046 C1049 1.348 . S
C1046 H1084 0.929 . S
N1047 Li1002 1.990 . S
N1047 C1044 1.314 . S
N1047 C1045 1.279 . S
C1048 C1045 1.358 . S
C1048 C1049 1.356 . S
C1048 H1085 0.930 . S
C1049 C1046 1.348 . S
C1049 C1048 1.356 . S
H1050 C1044 0.930 . S
H1051 C1045 0.930 . S
C1052 N1053 1.314 . S
C1052 C1054 1.353 . S
C1052 H1058 0.930 . S
N1053 Li1003 1.990 . S
N1053 C1052 1.314 . S
N1053 C1056 1.279 . S
C1054 C1052 1.353 . S
C1054 C1057 1.348 . S
C1054 H1086 0.929 . S
C1055 C1056 1.358 . S
C1055 C1057 1.356 . S
C1055 H1087 0.930 . S
C1056 N1053 1.279 . S
C1056 C1055 1.358 . S
C1056 H1059 0.930 . S
C1057 C1054 1.348 . S
C1057 C1055 1.356 . S
H1058 C1052 0.930 . S
H1059 C1056 0.930 . S
O1060 Li1000 1.956 . S
O1060 Li1001 1.970 . S
O1060 Li1002 1.961 . S
O1060 C1004 1.325 . S
O1061 Li1000 1.970 . S
O1061 Li1001 1.956 . S
O1061 Li1003 1.961 . S
O1061 C1010 1.325 . S
O1062 Li1000 1.961 . S
O1062 Li1002 1.956 . S
O1062 Li1003 1.970 . S
O1062 C1032 1.325 . S
O1063 Li1001 1.961 . S
O1063 Li1002 1.970 . S
O1063 Li1003 1.956 . S
O1063 C1038 1.325 . S
H1064 C1006 0.929 . S
H1065 C1007 0.930 . S
H1066 C1008 0.930 . S
H1067 C1009 0.930 . S
H1068 C1011 0.930 . S
H1069 C1013 0.929 . S
H1070 C1014 0.930 . S
H1071 C1015 0.930 . S
H1072 C1018 0.930 . S
H1073 C1021 0.929 . S
H1074 C1026 0.929 . S
H1075 C1027 0.930 . S
H1076 C1034 0.929 . S
H1077 C1035 0.930 . S
H1078 C1036 0.930 . S
H1079 C1037 0.930 . S
H1080 C1039 0.929 . S
H1081 C1040 0.930 . S
H1082 C1041 0.930 . S
H1083 C1042 0.930 . S
H1084 C1046 0.929 . S
H1085 C1048 0.930 . S
H1086 C1054 0.929 . S
H1087 C1055 0.930 . S
Li1088 N1105 1.990 . S
Li1088 O1148 1.956 . S
Li1088 O1149 1.970 1_455 S
Li1088 O1150 1.961 . S
Li1089 N1113 1.990 . S
Li1089 O1148 1.970 1_655 S
Li1089 O1149 1.956 . S
Li1089 O1151 1.961 1_655 S
Li1090 N1135 1.990 . S
Li1090 O1148 1.961 . S
Li1090 O1150 1.956 . S
Li1090 O1151 1.970 . S
Li1091 N1141 1.990 . S
Li1091 O1149 1.961 1_455 S
Li1091 O1150 1.970 . S
Li1091 O1151 1.956 . S
C1092 C1094 1.348 . S
C1092 C1095 1.356 . S
C1092 O1148 1.325 . S
N1093 C1096 1.314 . S
N1093 C1097 1.279 . S
C1094 C1092 1.348 . S
C1094 C1096 1.353 . S
C1094 H1152 0.929 1_455 S
C1095 C1092 1.356 . S
C1095 C1097 1.358 . S
C1095 H1153 0.930 . S
C1096 N1093 1.314 . S
C1096 C1094 1.353 . S
C1096 H1154 0.930 . S
C1097 N1093 1.279 . S
C1097 C1095 1.358 . S
C1097 H1155 0.930 . S
C1098 C1101 1.348 . S
C1098 C1102 1.356 . S
C1098 O1149 1.325 . S
C1099 N1100 1.279 . S
C1099 C1102 1.358 . S
C1099 H1156 0.930 . S
N1100 C1099 1.279 . S
N1100 C1103 1.314 . S
C1101 C1098 1.348 . S
C1101 C1103 1.353 . S
C1101 H1157 0.929 . S
C1102 C1098 1.356 . S
C1102 C1099 1.358 . S
C1102 H1158 0.930 . S
C1103 N1100 1.314 . S
C1103 C1101 1.353 . S
C1103 H1159 0.930 . S
C1104 N1105 1.314 . S
C1104 C1109 1.353 . S
C1104 H1110 0.930 . S
N1105 Li1088 1.990 . S
N1105 C1104 1.314 . S
N1105 C1107 1.279 . S
C1106 C1107 1.358 . S
C1106 C1108 1.356 . S
C1106 H1160 0.930 . S
C1107 N1105 1.279 . S
C1107 C1106 1.358 . S
C1107 H1111 0.930 . S
C1108 C1106 1.356 . S
C1108 C1109 1.348 . S
C1109 C1104 1.353 . S
C1109 C1108 1.348 . S
C1109 H1161 0.929 . S
H1110 C1104 0.930 . S
H1111 C1107 0.930 . S
C1112 N1113 1.314 . S
C1112 C1114 1.353 . S
C1112 H1118 0.930 . S
N1113 Li1089 1.990 . S
N1113 C1112 1.314 . S
N1113 C1116 1.279 . S
C1114 C1112 1.353 . S
C1114 C1117 1.348 . S
C1114 H1162 0.929 . S
C1115 C1116 1.358 . S
C1115 C1117 1.356 . S
C1115 H1163 0.930 . S
C1116 N1113 1.279 . S
C1116 C1115 1.358 . S
C1116 H1119 0.930 . S
C1117 C1114 1.348 . S
C1117 C1115 1.356 . S
H1118 C1112 0.930 . S
H1119 C1116 0.930 . S
C1120 C1122 1.348 . S
C1120 C1123 1.356 . S
C1120 O1150 1.325 . S
N1121 C1124 1.314 . S
N1121 C1125 1.279 . S
C1122 C1120 1.348 . S
C1122 C1124 1.353 . S
C1122 H1164 0.929 . S
C1123 C1120 1.356 . S
C1123 C1125 1.358 . S
C1123 H1165 0.930 . S
C1124 N1121 1.314 . S
C1124 C1122 1.353 . S
C1124 H1166 0.930 . S
C1125 N1121 1.279 . S
C1125 C1123 1.358 . S
C1125 H1167 0.930 . S
C1126 C1127 1.348 . S
C1126 C1128 1.356 1_455 S
C1126 O1151 1.325 . S
C1127 C1126 1.348 . S
C1127 C1129 1.353 . S
C1127 H1168 0.929 . S
C1128 C1126 1.356 1_655 S
C1128 C1130 1.358 . S
C1128 H1169 0.930 . S
C1129 C1127 1.353 . S
C1129 N1131 1.314 . S
C1129 H1170 0.930 . S
C1130 C1128 1.358 . S
C1130 N1131 1.279 1_655 S
C1130 H1171 0.930 . S
N1131 C1129 1.314 . S
N1131 C1130 1.279 1_455 S
C1132 C1134 1.353 . S
C1132 N1135 1.314 . S
C1132 H1138 0.930 . S
C1133 N1135 1.279 . S
C1133 C1136 1.358 . S
C1133 H1139 0.930 . S
C1134 C1132 1.353 . S
C1134 C1137 1.348 . S
C1134 H1172 0.929 . S
N1135 Li1090 1.990 . S
N1135 C1132 1.314 . S
N1135 C1133 1.279 . S
C1136 C1133 1.358 . S
C1136 C1137 1.356 . S
C1136 H1173 0.930 . S
C1137 C1134 1.348 . S
C1137 C1136 1.356 . S
H1138 C1132 0.930 . S
H1139 C1133 0.930 . S
C1140 N1141 1.314 1_655 S
C1140 C1142 1.353 . S
C1140 H1146 0.930 . S
N1141 Li1091 1.990 . S
N1141 C1140 1.314 1_455 S
N1141 C1144 1.279 . S
C1142 C1140 1.353 . S
C1142 C1145 1.348 . S
C1142 H1174 0.929 . S
C1143 C1144 1.360 . S
C1143 C1145 1.349 1_455 S
C1143 H1175 0.936 . S
C1144 N1141 1.279 . S
C1144 C1143 1.360 . S
C1144 H1147 0.930 . S
C1145 C1142 1.348 . S
C1145 C1143 1.349 1_655 S
H1146 C1140 0.930 . S
H1147 C1144 0.930 . S
O1148 Li1088 1.956 . S
O1148 Li1089 1.970 1_455 S
O1148 Li1090 1.961 . S
O1148 C1092 1.325 . S
O1149 Li1088 1.970 1_655 S
O1149 Li1089 1.956 . S
O1149 Li1091 1.961 1_655 S
O1149 C1098 1.325 . S
O1150 Li1088 1.961 . S
O1150 Li1090 1.956 . S
O1150 Li1091 1.970 . S
O1150 C1120 1.325 . S
O1151 Li1089 1.961 1_455 S
O1151 Li1090 1.970 . S
O1151 Li1091 1.956 . S
O1151 C1126 1.325 . S
H1152 C1094 0.929 1_655 S
H1153 C1095 0.930 . S
H1154 C1096 0.930 . S
H1155 C1097 0.930 . S
H1156 C1099 0.930 . S
H1157 C1101 0.929 . S
H1158 C1102 0.930 . S
H1159 C1103 0.930 . S
H1160 C1106 0.930 . S
H1161 C1109 0.929 . S
H1162 C1114 0.929 . S
H1163 C1115 0.930 . S
H1164 C1122 0.929 . S
H1165 C1123 0.930 . S
H1166 C1124 0.930 . S
H1167 C1125 0.930 . S
H1168 C1127 0.929 . S
H1169 C1128 0.930 . S
H1170 C1129 0.930 . S
H1171 C1130 0.930 . S
H1172 C1134 0.929 . S
H1173 C1136 0.930 . S
H1174 C1142 0.929 . S
H1175 C1143 0.936 . S
Li1176 N1193 1.990 . S
Li1176 O1236 1.956 . S
Li1176 O1237 1.970 . S
Li1176 O1238 1.961 . S
Li1177 N1201 1.990 . S
Li1177 O1236 1.970 . S
Li1177 O1237 1.956 . S
Li1177 O1239 1.961 . S
Li1178 N1223 1.990 . S
Li1178 O1236 1.961 . S
Li1178 O1238 1.956 . S
Li1178 O1239 1.970 . S
Li1179 N1229 1.990 . S
Li1179 O1237 1.961 . S
Li1179 O1238 1.970 . S
Li1179 O1239 1.956 . S
C1180 C1182 1.348 . S
C1180 C1183 1.356 . S
C1180 O1236 1.325 . S
N1181 C1184 1.314 . S
N1181 C1185 1.279 . S
C1182 C1180 1.348 . S
C1182 C1184 1.353 . S
C1182 H1240 0.929 . S
C1183 C1180 1.356 . S
C1183 C1185 1.358 . S
C1183 H1241 0.930 . S
C1184 N1181 1.314 . S
C1184 C1182 1.353 . S
C1184 H1242 0.930 . S
C1185 N1181 1.279 . S
C1185 C1183 1.358 . S
C1185 H1243 0.930 . S
C1186 C1189 1.348 . S
C1186 C1190 1.356 . S
C1186 O1237 1.325 . S
C1187 N1188 1.279 . S
C1187 C1190 1.358 . S
C1187 H1244 0.930 . S
N1188 C1187 1.279 . S
N1188 C1191 1.314 . S
C1189 C1186 1.348 . S
C1189 C1191 1.353 . S
C1189 H1245 0.929 . S
C1190 C1186 1.356 . S
C1190 C1187 1.358 . S
C1190 H1246 0.930 . S
C1191 N1188 1.314 . S
C1191 C1189 1.353 . S
C1191 H1247 0.930 . S
C1192 N1193 1.314 . S
C1192 C1197 1.353 . S
C1192 H1198 0.930 . S
N1193 Li1176 1.990 . S
N1193 C1192 1.314 . S
N1193 C1195 1.279 . S
C1194 C1195 1.358 . S
C1194 C1196 1.356 . S
C1194 H1248 0.930 . S
C1195 N1193 1.279 . S
C1195 C1194 1.358 . S
C1195 H1199 0.930 . S
C1196 C1194 1.356 . S
C1196 C1197 1.348 . S
C1197 C1192 1.353 . S
C1197 C1196 1.348 . S
C1197 H1249 0.929 . S
H1198 C1192 0.930 . S
H1199 C1195 0.930 . S
C1200 N1201 1.314 . S
C1200 C1202 1.353 . S
C1200 H1206 0.930 . S
N1201 Li1177 1.990 . S
N1201 C1200 1.314 . S
N1201 C1204 1.279 . S
C1202 C1200 1.353 . S
C1202 C1205 1.348 . S
C1202 H1250 0.929 . S
C1203 C1204 1.358 . S
C1203 C1205 1.356 . S
C1203 H1251 0.930 . S
C1204 N1201 1.279 . S
C1204 C1203 1.358 . S
C1204 H1207 0.930 . S
C1205 C1202 1.348 . S
C1205 C1203 1.356 . S
H1206 C1200 0.930 . S
H1207 C1204 0.930 . S
C1208 C1210 1.348 . S
C1208 C1211 1.356 . S
C1208 O1238 1.325 . S
N1209 C1212 1.314 . S
N1209 C1213 1.279 . S
C1210 C1208 1.348 . S
C1210 C1212 1.353 . S
C1210 H1252 0.929 . S
C1211 C1208 1.356 . S
C1211 C1213 1.358 . S
C1211 H1253 0.930 . S
C1212 N1209 1.314 . S
C1212 C1210 1.353 . S
C1212 H1254 0.930 . S
C1213 N1209 1.279 . S
C1213 C1211 1.358 . S
C1213 H1255 0.930 . S
C1214 C1215 1.348 . S
C1214 C1216 1.356 . S
C1214 O1239 1.325 . S
C1215 C1214 1.348 . S
C1215 C1217 1.353 . S
C1215 H1256 0.929 . S
C1216 C1214 1.356 . S
C1216 C1218 1.358 . S
C1216 H1257 0.930 . S
C1217 C1215 1.353 . S
C1217 N1219 1.314 . S
C1217 H1258 0.930 . S
C1218 C1216 1.358 . S
C1218 N1219 1.279 . S
C1218 H1259 0.930 . S
N1219 C1217 1.314 . S
N1219 C1218 1.279 . S
C1220 C1222 1.353 . S
C1220 N1223 1.314 . S
C1220 H1226 0.930 . S
C1221 N1223 1.279 . S
C1221 C1224 1.358 . S
C1221 H1227 0.930 . S
C1222 C1220 1.353 . S
C1222 C1225 1.348 . S
C1222 H1260 0.929 . S
N1223 Li1178 1.990 . S
N1223 C1220 1.314 . S
N1223 C1221 1.279 . S
C1224 C1221 1.358 . S
C1224 C1225 1.356 . S
C1224 H1261 0.930 . S
C1225 C1222 1.348 . S
C1225 C1224 1.356 . S
H1226 C1220 0.930 . S
H1227 C1221 0.930 . S
C1228 N1229 1.314 . S
C1228 C1230 1.353 . S
C1228 H1234 0.930 . S
N1229 Li1179 1.990 . S
N1229 C1228 1.314 . S
N1229 C1232 1.279 . S
C1230 C1228 1.353 . S
C1230 C1233 1.348 . S
C1230 H1262 0.929 . S
C1231 C1232 1.358 . S
C1231 C1233 1.356 . S
C1231 H1263 0.930 . S
C1232 N1229 1.279 . S
C1232 C1231 1.358 . S
C1232 H1235 0.930 . S
C1233 C1230 1.348 . S
C1233 C1231 1.356 . S
H1234 C1228 0.930 . S
H1235 C1232 0.930 . S
O1236 Li1176 1.956 . S
O1236 Li1177 1.970 . S
O1236 Li1178 1.961 . S
O1236 C1180 1.325 . S
O1237 Li1176 1.970 . S
O1237 Li1177 1.956 . S
O1237 Li1179 1.961 . S
O1237 C1186 1.325 . S
O1238 Li1176 1.961 . S
O1238 Li1178 1.956 . S
O1238 Li1179 1.970 . S
O1238 C1208 1.325 . S
O1239 Li1177 1.961 . S
O1239 Li1178 1.970 . S
O1239 Li1179 1.956 . S
O1239 C1214 1.325 . S
H1240 C1182 0.929 . S
H1241 C1183 0.930 . S
H1242 C1184 0.930 . S
H1243 C1185 0.930 . S
H1244 C1187 0.930 . S
H1245 C1189 0.929 . S
H1246 C1190 0.930 . S
H1247 C1191 0.930 . S
H1248 C1194 0.930 . S
H1249 C1197 0.929 . S
H1250 C1202 0.929 . S
H1251 C1203 0.930 . S
H1252 C1210 0.929 . S
H1253 C1211 0.930 . S
H1254 C1212 0.930 . S
H1255 C1213 0.930 . S
H1256 C1215 0.929 . S
H1257 C1216 0.930 . S
H1258 C1217 0.930 . S
H1259 C1218 0.930 . S
H1260 C1222 0.929 . S
H1261 C1224 0.930 . S
H1262 C1230 0.929 . S
H1263 C1231 0.930 . S
C1264 C1265 1.363 . S
C1264 C1270 1.379 . S
C1264 N1272 1.356 . S
C1265 C1264 1.363 . S
C1265 C1271 1.363 . S
C1266 C1267 1.363 . S
C1266 C1271 1.379 . S
C1266 N1273 1.356 . S
C1267 C1266 1.363 . S
C1267 C1270 1.363 . S
N1268 C1270 1.356 . S
N1268 H1280 0.984 . S
N1268 H1281 0.985 . S
N1269 C1271 1.356 . S
N1269 H1274 0.984 . S
N1269 H1275 0.985 . S
C1270 C1264 1.379 . S
C1270 C1267 1.363 . S
C1270 N1268 1.356 . S
C1271 C1265 1.363 . S
C1271 C1266 1.379 . S
C1271 N1269 1.356 . S
N1272 C1264 1.356 . S
N1272 H1278 0.984 . S
N1272 H1279 0.984 . S
N1273 C1266 1.356 . S
N1273 H1276 0.984 . S
N1273 H1277 0.985 . S
H1274 N1269 0.984 . S
H1275 N1269 0.985 . S
H1276 N1273 0.984 . S
H1277 N1273 0.985 . S
H1278 N1272 0.984 . S
H1279 N1272 0.984 . S
H1280 N1268 0.984 . S
H1281 N1268 0.985 . S
C1282 C1283 1.363 . S
C1282 C1288 1.379 . S
C1282 N1290 1.356 . S
C1283 C1282 1.363 . S
C1283 C1289 1.363 . S
C1284 C1285 1.363 . S
C1284 C1289 1.379 . S
C1284 N1291 1.356 . S
C1285 C1284 1.363 . S
C1285 C1288 1.363 . S
N1286 C1288 1.356 . S
N1286 H1298 0.984 . S
N1286 H1299 0.985 . S
N1287 C1289 1.356 . S
N1287 H1292 0.984 . S
N1287 H1293 0.985 . S
C1288 C1282 1.379 . S
C1288 C1285 1.363 . S
C1288 N1286 1.356 . S
C1289 C1283 1.363 . S
C1289 C1284 1.379 . S
C1289 N1287 1.356 . S
N1290 C1282 1.356 . S
N1290 H1296 0.984 . S
N1290 H1297 0.984 . S
N1291 C1284 1.356 . S
N1291 H1294 0.984 . S
N1291 H1295 0.985 . S
H1292 N1287 0.984 . S
H1293 N1287 0.985 . S
H1294 N1291 0.984 . S
H1295 N1291 0.985 . S
H1296 N1290 0.984 . S
H1297 N1290 0.984 . S
H1298 N1286 0.984 . S
H1299 N1286 0.985 . S
C1300 C1301 1.363 . S
C1300 C1306 1.379 . S
C1300 N1308 1.356 . S
C1301 C1300 1.363 . S
C1301 C1307 1.363 . S
C1302 C1303 1.363 . S
C1302 C1307 1.379 . S
C1302 N1309 1.356 . S
C1303 C1302 1.363 . S
C1303 C1306 1.363 . S
N1304 C1306 1.356 . S
N1304 H1316 0.984 . S
N1304 H1317 0.985 . S
N1305 C1307 1.356 . S
N1305 H1310 0.984 . S
N1305 H1311 0.985 . S
C1306 C1300 1.379 . S
C1306 C1303 1.363 . S
C1306 N1304 1.356 . S
C1307 C1301 1.363 . S
C1307 C1302 1.379 . S
C1307 N1305 1.356 . S
N1308 C1300 1.356 . S
N1308 H1314 0.984 . S
N1308 H1315 0.984 . S
N1309 C1302 1.356 . S
N1309 H1312 0.984 . S
N1309 H1313 0.985 . S
H1310 N1305 0.984 . S
H1311 N1305 0.985 . S
H1312 N1309 0.984 . S
H1313 N1309 0.985 . S
H1314 N1308 0.984 . S
H1315 N1308 0.984 . S
H1316 N1304 0.984 . S
H1317 N1304 0.985 . S
C1318 C1319 1.363 1_545 S
C1318 C1324 1.379 . S
C1318 N1326 1.356 . S
C1319 C1318 1.363 1_565 S
C1319 C1325 1.363 . S
C1320 C1321 1.363 1_565 S
C1320 C1325 1.379 . S
C1320 N1327 1.356 . S
C1321 C1320 1.363 1_545 S
C1321 C1324 1.363 . S
N1322 C1324 1.356 . S
N1322 H1334 0.984 . S
N1322 H1335 0.985 . S
N1323 C1325 1.356 1_455 S
N1323 H1328 0.984 . S
N1323 H1329 0.985 . S
C1324 C1318 1.379 . S
C1324 C1321 1.363 . S
C1324 N1322 1.356 . S
C1325 C1319 1.363 . S
C1325 C1320 1.379 . S
C1325 N1323 1.356 1_655 S
N1326 C1318 1.356 . S
N1326 H1332 0.984 . S
N1326 H1333 0.997 . S
N1327 C1320 1.356 . S
N1327 H1330 0.984 . S
N1327 H1331 0.985 . S
H1328 N1323 0.984 . S
H1329 N1323 0.985 . S
H1330 N1327 0.984 . S
H1331 N1327 0.985 . S
H1332 N1326 0.984 . S
H1333 N1326 0.997 . S
H1334 N1322 0.984 . S
H1335 N1322 0.985 . S
C1336 C1337 1.363 . S
C1336 C1342 1.379 . S
C1336 N1344 1.356 . S
C1337 C1336 1.363 . S
C1337 C1343 1.363 . S
C1338 C1339 1.363 . S
C1338 C1343 1.379 . S
C1338 N1345 1.356 . S
C1339 C1338 1.363 . S
C1339 C1342 1.363 . S
N1340 C1342 1.356 . S
N1340 H1352 0.984 . S
N1340 H1353 0.985 . S
N1341 C1343 1.356 . S
N1341 H1346 0.984 . S
N1341 H1347 0.985 . S
C1342 C1336 1.379 . S
C1342 C1339 1.363 . S
C1342 N1340 1.356 . S
C1343 C1337 1.363 . S
C1343 C1338 1.379 . S
C1343 N1341 1.356 . S
N1344 C1336 1.356 . S
N1344 H1350 0.984 . S
N1344 H1351 0.984 . S
N1345 C1338 1.356 . S
N1345 H1348 0.984 . S
N1345 H1349 0.985 . S
H1346 N1341 0.984 . S
H1347 N1341 0.985 . S
H1348 N1345 0.984 . S
H1349 N1345 0.985 . S
H1350 N1344 0.984 . S
H1351 N1344 0.984 . S
H1352 N1340 0.984 . S
H1353 N1340 0.985 . S
C1354 C1355 1.363 . S
C1354 C1360 1.379 . S
C1354 N1362 1.356 . S
C1355 C1354 1.363 . S
C1355 C1361 1.363 . S
C1356 C1357 1.363 . S
C1356 C1361 1.379 . S
C1356 N1363 1.356 . S
C1357 C1356 1.363 . S
C1357 C1360 1.363 . S
N1358 C1360 1.356 . S
N1358 H1370 0.984 . S
N1358 H1371 0.985 . S
N1359 C1361 1.356 . S
N1359 H1364 0.984 . S
N1359 H1365 0.985 . S
C1360 C1354 1.379 . S
C1360 C1357 1.363 . S
C1360 N1358 1.356 . S
C1361 C1355 1.363 . S
C1361 C1356 1.379 . S
C1361 N1359 1.356 . S
N1362 C1354 1.356 . S
N1362 H1368 0.984 . S
N1362 H1369 0.984 . S
N1363 C1356 1.356 . S
N1363 H1366 0.984 . S
N1363 H1367 0.985 . S
H1364 N1359 0.984 . S
H1365 N1359 0.985 . S
H1366 N1363 0.984 . S
H1367 N1363 0.985 . S
H1368 N1362 0.984 . S
H1369 N1362 0.984 . S
H1370 N1358 0.984 . S
H1371 N1358 0.985 . S
C1372 C1373 1.363 . S
C1372 C1378 1.379 . S
C1372 N1380 1.356 . S
C1373 C1372 1.363 . S
C1373 C1379 1.363 . S
C1374 C1375 1.363 . S
C1374 C1379 1.379 . S
C1374 N1381 1.356 . S
C1375 C1374 1.363 . S
C1375 C1378 1.363 . S
N1376 C1378 1.356 . S
N1376 H1388 0.984 . S
N1376 H1389 0.985 . S
N1377 C1379 1.356 . S
N1377 H1382 0.984 . S
N1377 H1383 0.985 . S
C1378 C1372 1.379 . S
C1378 C1375 1.363 . S
C1378 N1376 1.356 . S
C1379 C1373 1.363 . S
C1379 C1374 1.379 . S
C1379 N1377 1.356 . S
N1380 C1372 1.356 . S
N1380 H1386 0.984 . S
N1380 H1387 0.984 . S
N1381 C1374 1.356 . S
N1381 H1384 0.984 . S
N1381 H1385 0.985 . S
H1382 N1377 0.984 . S
H1383 N1377 0.985 . S
H1384 N1381 0.984 . S
H1385 N1381 0.985 . S
H1386 N1380 0.984 . S
H1387 N1380 0.984 . S
H1388 N1376 0.984 . S
H1389 N1376 0.985 . S
C1390 C1391 1.363 . S
C1390 C1396 1.379 . S
C1390 N1398 1.356 1_565 S
C1391 C1390 1.363 . S
C1391 C1397 1.363 . S
C1392 C1393 1.363 . S
C1392 C1397 1.379 . S
C1392 N1399 1.356 . S
C1393 C1392 1.363 . S
C1393 C1396 1.363 . S
N1394 C1396 1.356 1_545 S
N1394 H1406 0.984 . S
N1394 H1407 0.994 . S
N1395 C1397 1.356 . S
N1395 H1400 0.984 . S
N1395 H1401 0.985 . S
C1396 C1390 1.379 . S
C1396 C1393 1.363 . S
C1396 N1394 1.356 1_565 S
C1397 C1391 1.363 . S
C1397 C1392 1.379 . S
C1397 N1395 1.356 . S
N1398 C1390 1.356 1_545 S
N1398 H1404 0.984 . S
N1398 H1405 0.984 . S
N1399 C1392 1.356 . S
N1399 H1402 0.984 . S
N1399 H1403 0.985 . S
H1400 N1395 0.984 . S
H1401 N1395 0.985 . S
H1402 N1399 0.984 . S
H1403 N1399 0.985 . S
H1404 N1398 0.984 . S
H1405 N1398 0.984 . S
H1406 N1394 0.984 . S
H1407 N1394 0.994 . S
C1408 C1409 1.363 . S
C1408 C1414 1.379 . S
C1408 N1416 1.356 . S
C1409 C1408 1.363 . S
C1409 C1415 1.363 . S
C1410 C1411 1.363 . S
C1410 C1415 1.379 . S
C1410 N1417 1.356 . S
C1411 C1410 1.363 . S
C1411 C1414 1.363 . S
N1412 C1414 1.356 . S
N1412 H1424 0.984 . S
N1412 H1425 0.985 . S
N1413 C1415 1.356 . S
N1413 H1418 0.984 . S
N1413 H1419 0.985 . S
C1414 C1408 1.379 . S
C1414 C1411 1.363 . S
C1414 N1412 1.356 . S
C1415 C1409 1.363 . S
C1415 C1410 1.379 . S
C1415 N1413 1.356 . S
N1416 C1408 1.356 . S
N1416 H1422 0.984 . S
N1416 H1423 0.984 . S
N1417 C1410 1.356 . S
N1417 H1420 0.984 . S
N1417 H1421 0.985 . S
H1418 N1413 0.984 . S
H1419 N1413 0.985 . S
H1420 N1417 0.984 . S
H1421 N1417 0.985 . S
H1422 N1416 0.984 . S
H1423 N1416 0.984 . S
H1424 N1412 0.984 . S
H1425 N1412 0.985 . S
C1426 C1427 1.363 . S
C1426 C1432 1.379 . S
C1426 N1434 1.356 . S
C1427 C1426 1.363 . S
C1427 C1433 1.363 . S
C1428 C1429 1.363 . S
C1428 C1433 1.379 . S
C1428 N1435 1.356 . S
C1429 C1428 1.363 . S
C1429 C1432 1.363 . S
N1430 C1432 1.356 . S
N1430 H1442 0.984 . S
N1430 H1443 0.985 . S
N1431 C1433 1.356 . S
N1431 H1436 0.984 . S
N1431 H1437 0.985 . S
C1432 C1426 1.379 . S
C1432 C1429 1.363 . S
C1432 N1430 1.356 . S
C1433 C1427 1.363 . S
C1433 C1428 1.379 . S
C1433 N1431 1.356 . S
N1434 C1426 1.356 . S
N1434 H1440 0.984 . S
N1434 H1441 0.984 . S
N1435 C1428 1.356 . S
N1435 H1438 0.984 . S
N1435 H1439 0.985 . S
H1436 N1431 0.984 . S
H1437 N1431 0.985 . S
H1438 N1435 0.984 . S
H1439 N1435 0.985 . S
H1440 N1434 0.984 . S
H1441 N1434 0.984 . S
H1442 N1430 0.984 . S
H1443 N1430 0.985 . S
C1444 C1445 1.363 . S
C1444 C1450 1.379 . S
C1444 N1452 1.356 . S
C1445 C1444 1.363 . S
C1445 C1451 1.363 . S
C1446 C1447 1.363 . S
C1446 C1451 1.379 . S
C1446 N1453 1.356 . S
C1447 C1446 1.363 . S
C1447 C1450 1.363 . S
N1448 C1450 1.356 . S
N1448 H1460 0.984 . S
N1448 H1461 0.985 . S
N1449 C1451 1.356 . S
N1449 H1454 0.984 . S
N1449 H1455 0.985 . S
C1450 C1444 1.379 . S
C1450 C1447 1.363 . S
C1450 N1448 1.356 . S
C1451 C1445 1.363 . S
C1451 C1446 1.379 . S
C1451 N1449 1.356 . S
N1452 C1444 1.356 . S
N1452 H1458 0.984 . S
N1452 H1459 0.984 . S
N1453 C1446 1.356 . S
N1453 H1456 0.984 . S
N1453 H1457 0.985 . S
H1454 N1449 0.984 . S
H1455 N1449 0.985 . S
H1456 N1453 0.984 . S
H1457 N1453 0.985 . S
H1458 N1452 0.984 . S
H1459 N1452 0.984 . S
H1460 N1448 0.984 . S
H1461 N1448 0.985 . S
C1462 C1463 1.363 . S
C1462 C1468 1.379 . S
C1462 N1470 1.356 . S
C1463 C1462 1.363 . S
C1463 C1469 1.363 . S
C1464 C1465 1.363 . S
C1464 C1469 1.379 . S
C1464 N1471 1.356 . S
C1465 C1464 1.363 . S
C1465 C1468 1.363 . S
N1466 C1468 1.356 . S
N1466 H1478 0.984 . S
N1466 H1479 0.985 . S
N1467 C1469 1.356 . S
N1467 H1472 0.984 . S
N1467 H1473 0.985 . S
C1468 C1462 1.379 . S
C1468 C1465 1.363 . S
C1468 N1466 1.356 . S
C1469 C1463 1.363 . S
C1469 C1464 1.379 . S
C1469 N1467 1.356 . S
N1470 C1462 1.356 . S
N1470 H1476 0.984 . S
N1470 H1477 0.984 . S
N1471 C1464 1.356 . S
N1471 H1474 0.984 . S
N1471 H1475 0.985 . S
H1472 N1467 0.984 . S
H1473 N1467 0.985 . S
H1474 N1471 0.984 . S
H1475 N1471 0.985 . S
H1476 N1470 0.984 . S
H1477 N1470 0.984 . S
H1478 N1466 0.984 . S
H1479 N1466 0.985 . S
C1480 C1481 1.363 . S
C1480 C1486 1.379 . S
C1480 N1488 1.356 . S
C1481 C1480 1.363 . S
C1481 C1487 1.363 . S
C1482 C1483 1.363 . S
C1482 C1487 1.379 . S
C1482 N1489 1.356 . S
C1483 C1482 1.363 . S
C1483 C1486 1.363 . S
N1484 C1486 1.356 . S
N1484 H1496 0.984 . S
N1484 H1497 0.985 . S
N1485 C1487 1.356 . S
N1485 H1490 0.984 . S
N1485 H1491 0.985 . S
C1486 C1480 1.379 . S
C1486 C1483 1.363 . S
C1486 N1484 1.356 . S
C1487 C1481 1.363 . S
C1487 C1482 1.379 . S
C1487 N1485 1.356 . S
N1488 C1480 1.356 . S
N1488 H1494 0.984 . S
N1488 H1495 0.984 . S
N1489 C1482 1.356 . S
N1489 H1492 0.984 . S
N1489 H1493 0.985 . S
H1490 N1485 0.984 . S
H1491 N1485 0.985 . S
H1492 N1489 0.984 . S
H1493 N1489 0.985 . S
H1494 N1488 0.984 . S
H1495 N1488 0.984 . S
H1496 N1484 0.984 . S
H1497 N1484 0.985 . S
C1498 C1499 1.363 . S
C1498 C1504 1.379 . S
C1498 N1506 1.356 . S
C1499 C1498 1.363 . S
C1499 C1505 1.363 . S
C1500 C1501 1.363 . S
C1500 C1505 1.379 . S
C1500 N1507 1.356 . S
C1501 C1500 1.363 . S
C1501 C1504 1.363 . S
N1502 C1504 1.356 . S
N1502 H1514 0.984 1_455 S
N1502 H1515 0.985 . S
N1503 C1505 1.356 . S
N1503 H1508 0.984 . S
N1503 H1509 0.985 . S
C1504 C1498 1.379 . S
C1504 C1501 1.363 . S
C1504 N1502 1.356 . S
C1505 C1499 1.363 . S
C1505 C1500 1.379 . S
C1505 N1503 1.356 . S
N1506 C1498 1.356 . S
N1506 H1512 0.984 1_455 S
N1506 H1513 0.984 . S
N1507 C1500 1.356 . S
N1507 H1510 0.984 . S
N1507 H1511 0.985 . S
H1508 N1503 0.984 . S
H1509 N1503 0.985 . S
H1510 N1507 0.984 . S
H1511 N1507 0.985 . S
H1512 N1506 0.984 1_655 S
H1513 N1506 0.984 . S
H1514 N1502 0.984 1_655 S
H1515 N1502 0.985 . S
C1516 C1517 1.363 . S
C1516 C1522 1.379 . S
C1516 N1524 1.356 . S
C1517 C1516 1.363 . S
C1517 C1523 1.363 . S
C1518 C1519 1.363 . S
C1518 C1523 1.379 . S
C1518 N1525 1.356 . S
C1519 C1518 1.363 . S
C1519 C1522 1.363 . S
N1520 C1522 1.356 . S
N1520 H1532 0.984 . S
N1520 H1533 0.985 . S
N1521 C1523 1.356 . S
N1521 H1526 0.984 . S
N1521 H1527 0.985 . S
C1522 C1516 1.379 . S
C1522 C1519 1.363 . S
C1522 N1520 1.356 . S
C1523 C1517 1.363 . S
C1523 C1518 1.379 . S
C1523 N1521 1.356 . S
N1524 C1516 1.356 . S
N1524 H1530 0.984 . S
N1524 H1531 0.984 . S
N1525 C1518 1.356 . S
N1525 H1528 0.984 . S
N1525 H1529 0.985 . S
H1526 N1521 0.984 . S
H1527 N1521 0.985 . S
H1528 N1525 0.984 . S
H1529 N1525 0.985 . S
H1530 N1524 0.984 . S
H1531 N1524 0.984 . S
H1532 N1520 0.984 . S
H1533 N1520 0.985 . S
C1534 C1535 1.363 . S
C1534 C1540 1.379 . S
C1534 N1542 1.356 . S
C1535 C1534 1.363 . S
C1535 C1541 1.363 1_655 S
C1536 C1537 1.363 1_455 S
C1536 C1541 1.379 . S
C1536 N1543 1.356 . S
C1537 C1536 1.363 1_655 S
C1537 C1540 1.363 . S
N1538 C1540 1.356 . S
N1538 H1550 0.984 . S
N1538 H1551 0.985 . S
N1539 C1541 1.356 . S
N1539 H1544 0.984 . S
N1539 H1545 0.985 . S
C1540 C1534 1.379 . S
C1540 C1537 1.363 . S
C1540 N1538 1.356 . S
C1541 C1535 1.363 1_455 S
C1541 C1536 1.379 . S
C1541 N1539 1.356 . S
N1542 C1534 1.356 . S
N1542 H1548 0.984 . S
N1542 H1549 0.984 . S
N1543 C1536 1.356 . S
N1543 H1546 0.984 . S
N1543 H1547 0.985 . S
H1544 N1539 0.984 . S
H1545 N1539 0.985 . S
H1546 N1543 0.984 . S
H1547 N1543 0.985 . S
H1548 N1542 0.984 . S
H1549 N1542 0.984 . S
H1550 N1538 0.984 . S
H1551 N1538 0.985 . S
C1552 C1553 1.363 . S
C1552 C1558 1.379 . S
C1552 N1560 1.356 . S
C1553 C1552 1.363 . S
C1553 C1559 1.363 . S
C1554 C1555 1.363 . S
C1554 C1559 1.379 . S
C1554 N1561 1.356 . S
C1555 C1554 1.363 . S
C1555 C1558 1.363 . S
N1556 C1558 1.356 . S
N1556 H1568 0.984 . S
N1556 H1569 0.985 . S
N1557 C1559 1.356 . S
N1557 H1562 0.984 . S
N1557 H1563 0.985 . S
C1558 C1552 1.379 . S
C1558 C1555 1.363 . S
C1558 N1556 1.356 . S
C1559 C1553 1.363 . S
C1559 C1554 1.379 . S
C1559 N1557 1.356 . S
N1560 C1552 1.356 . S
N1560 H1566 0.984 . S
N1560 H1567 0.984 . S
N1561 C1554 1.356 . S
N1561 H1564 0.984 . S
N1561 H1565 0.985 . S
H1562 N1557 0.984 . S
H1563 N1557 0.985 . S
H1564 N1561 0.984 . S
H1565 N1561 0.985 . S
H1566 N1560 0.984 . S
H1567 N1560 0.984 . S
H1568 N1556 0.984 . S
H1569 N1556 0.985 . S
C1570 C1571 1.363 . S
C1570 C1576 1.379 . S
C1570 N1578 1.356 . S
C1571 C1570 1.363 . S
C1571 C1577 1.363 . S
C1572 C1573 1.363 . S
C1572 C1577 1.379 . S
C1572 N1579 1.356 . S
C1573 C1572 1.363 . S
C1573 C1576 1.363 . S
N1574 C1576 1.356 . S
N1574 H1586 0.984 . S
N1574 H1587 0.985 . S
N1575 C1577 1.356 . S
N1575 H1580 0.984 . S
N1575 H1581 0.985 . S
C1576 C1570 1.379 . S
C1576 C1573 1.363 . S
C1576 N1574 1.356 . S
C1577 C1571 1.363 . S
C1577 C1572 1.379 . S
C1577 N1575 1.356 . S
N1578 C1570 1.356 . S
N1578 H1584 0.984 . S
N1578 H1585 0.984 . S
N1579 C1572 1.356 . S
N1579 H1582 0.984 . S
N1579 H1583 0.985 . S
H1580 N1575 0.984 . S
H1581 N1575 0.985 . S
H1582 N1579 0.984 . S
H1583 N1579 0.985 . S
H1584 N1578 0.984 . S
H1585 N1578 0.984 . S
H1586 N1574 0.984 . S
H1587 N1574 0.985 . S
C1588 C1589 1.363 1_556 S
C1588 C1594 1.379 . S
C1588 N1596 1.356 . S
C1589 C1588 1.363 1_554 S
C1589 C1595 1.363 1_545 S
C1590 C1591 1.363 1_554 S
C1590 C1595 1.379 . S
C1590 N1597 1.356 . S
C1591 C1590 1.363 1_556 S
C1591 C1594 1.363 1_565 S
N1592 C1594 1.356 . S
N1592 H1604 0.984 . S
N1592 H1605 0.985 . S
N1593 C1595 1.356 . S
N1593 H1598 0.984 1_565 S
N1593 H1599 0.985 . S
C1594 C1588 1.379 . S
C1594 C1591 1.363 1_545 S
C1594 N1592 1.356 . S
C1595 C1589 1.363 1_565 S
C1595 C1590 1.379 . S
C1595 N1593 1.356 . S
N1596 C1588 1.356 . S
N1596 H1602 0.984 . S
N1596 H1603 0.984 . S
N1597 C1590 1.356 . S
N1597 H1600 0.984 . S
N1597 H1601 0.985 . S
H1598 N1593 0.984 1_545 S
H1599 N1593 0.985 . S
H1600 N1597 0.984 . S
H1601 N1597 0.985 . S
H1602 N1596 0.984 . S
H1603 N1596 0.984 . S
H1604 N1592 0.984 . S
H1605 N1592 0.985 . S
C1606 C1607 1.363 . S
C1606 C1612 1.379 . S
C1606 N1614 1.356 . S
C1607 C1606 1.363 . S
C1607 C1613 1.363 . S
C1608 C1609 1.363 . S
C1608 C1613 1.379 . S
C1608 N1615 1.356 . S
C1609 C1608 1.363 . S
C1609 C1612 1.363 . S
N1610 C1612 1.356 . S
N1610 H1622 0.984 . S
N1610 H1623 0.985 . S
N1611 C1613 1.356 . S
N1611 H1616 0.984 . S
N1611 H1617 0.985 . S
C1612 C1606 1.379 . S
C1612 C1609 1.363 . S
C1612 N1610 1.356 . S
C1613 C1607 1.363 . S
C1613 C1608 1.379 . S
C1613 N1611 1.356 . S
N1614 C1606 1.356 . S
N1614 H1620 0.984 . S
N1614 H1621 0.984 . S
N1615 C1608 1.356 . S
N1615 H1618 0.984 . S
N1615 H1619 0.985 . S
H1616 N1611 0.984 . S
H1617 N1611 0.985 . S
H1618 N1615 0.984 . S
H1619 N1615 0.985 . S
H1620 N1614 0.984 . S
H1621 N1614 0.984 . S
H1622 N1610 0.984 . S
H1623 N1610 0.985 . S
C1624 C1625 1.363 . S
C1624 C1630 1.379 . S
C1624 N1632 1.356 . S
C1625 C1624 1.363 . S
C1625 C1631 1.363 . S
C1626 C1627 1.363 . S
C1626 C1631 1.379 . S
C1626 N1633 1.356 . S
C1627 C1626 1.363 . S
C1627 C1630 1.363 . S
N1628 C1630 1.356 . S
N1628 H1640 0.984 . S
N1628 H1641 0.985 . S
N1629 C1631 1.356 1_565 S
N1629 H1634 0.984 . S
N1629 H1635 0.985 . S
C1630 C1624 1.379 . S
C1630 C1627 1.363 . S
C1630 N1628 1.356 . S
C1631 C1625 1.363 . S
C1631 C1626 1.379 . S
C1631 N1629 1.356 1_545 S
N1632 C1624 1.356 . S
N1632 H1638 0.984 . S
N1632 H1639 0.984 . S
N1633 C1626 1.356 . S
N1633 H1636 0.984 . S
N1633 H1637 0.985 . S
H1634 N1629 0.984 . S
H1635 N1629 0.985 . S
H1636 N1633 0.984 . S
H1637 N1633 0.985 . S
H1638 N1632 0.984 . S
H1639 N1632 0.984 . S
H1640 N1628 0.984 . S
H1641 N1628 0.985 . S
C1642 C1643 1.363 . S
C1642 C1648 1.379 . S
C1642 N1650 1.356 . S
C1643 C1642 1.363 . S
C1643 C1649 1.363 . S
C1644 C1645 1.363 . S
C1644 C1649 1.379 . S
C1644 N1651 1.356 . S
C1645 C1644 1.363 . S
C1645 C1648 1.363 . S
N1646 C1648 1.356 . S
N1646 H1658 0.984 . S
N1646 H1659 0.985 . S
N1647 C1649 1.356 . S
N1647 H1652 0.984 . S
N1647 H1653 0.985 . S
C1648 C1642 1.379 . S
C1648 C1645 1.363 . S
C1648 N1646 1.356 . S
C1649 C1643 1.363 . S
C1649 C1644 1.379 . S
C1649 N1647 1.356 . S
N1650 C1642 1.356 . S
N1650 H1656 0.984 . S
N1650 H1657 0.984 . S
N1651 C1644 1.356 . S
N1651 H1654 0.984 . S
N1651 H1655 0.985 . S
H1652 N1647 0.984 . S
H1653 N1647 0.985 . S
H1654 N1651 0.984 . S
H1655 N1651 0.985 . S
H1656 N1650 0.984 . S
H1657 N1650 0.984 . S
H1658 N1646 0.984 . S
H1659 N1646 0.985 . S
C1660 C1661 1.363 . S
C1660 C1666 1.379 . S
C1660 N1668 1.356 . S
C1661 C1660 1.363 . S
C1661 C1667 1.363 1_545 S
C1662 C1663 1.363 . S
C1662 C1667 1.379 1_545 S
C1662 N1669 1.356 . S
C1663 C1662 1.363 . S
C1663 C1666 1.363 . S
N1664 C1666 1.356 . S
N1664 H1676 0.984 . S
N1664 H1677 0.985 . S
N1665 C1667 1.356 . S
N1665 H1670 0.984 . S
N1665 H1671 0.985 . S
C1666 C1660 1.379 . S
C1666 C1663 1.363 . S
C1666 N1664 1.356 . S
C1667 C1661 1.363 1_565 S
C1667 C1662 1.379 1_565 S
C1667 N1665 1.356 . S
N1668 C1660 1.356 . S
N1668 H1674 0.984 . S
N1668 H1675 0.984 . S
N1669 C1662 1.356 . S
N1669 H1672 0.984 . S
N1669 H1673 1.002 . S
H1670 N1665 0.984 . S
H1671 N1665 0.985 . S
H1672 N1669 0.984 . S
H1673 N1669 1.002 . S
H1674 N1668 0.984 . S
H1675 N1668 0.984 . S
H1676 N1664 0.984 . S
H1677 N1664 0.985 . S
C1678 C1679 1.363 . S
C1678 C1684 1.379 . S
C1678 N1686 1.356 . S
C1679 C1678 1.363 . S
C1679 C1685 1.363 . S
C1680 C1681 1.363 . S
C1680 C1685 1.379 . S
C1680 N1687 1.356 . S
C1681 C1680 1.363 . S
C1681 C1684 1.363 . S
N1682 C1684 1.356 . S
N1682 H1694 0.984 . S
N1682 H1695 0.985 . S
N1683 C1685 1.356 . S
N1683 H1688 0.984 . S
N1683 H1689 0.985 . S
C1684 C1678 1.379 . S
C1684 C1681 1.363 . S
C1684 N1682 1.356 . S
C1685 C1679 1.363 . S
C1685 C1680 1.379 . S
C1685 N1683 1.356 . S
N1686 C1678 1.356 . S
N1686 H1692 0.984 . S
N1686 H1693 0.984 . S
N1687 C1680 1.356 . S
N1687 H1690 0.984 . S
N1687 H1691 0.985 . S
H1688 N1683 0.984 . S
H1689 N1683 0.985 . S
H1690 N1687 0.984 . S
H1691 N1687 0.985 . S
H1692 N1686 0.984 . S
H1693 N1686 0.984 . S
H1694 N1682 0.984 . S
H1695 N1682 0.985 . S
C1696 C1697 1.363 . S
C1696 C1702 1.379 . S
C1696 N1704 1.356 . S
C1697 C1696 1.363 . S
C1697 C1703 1.363 . S
C1698 C1699 1.363 . S
C1698 C1703 1.379 . S
C1698 N1705 1.356 . S
C1699 C1698 1.363 . S
C1699 C1702 1.363 . S
N1700 C1702 1.356 . S
N1700 H1712 0.984 . S
N1700 H1713 0.985 . S
N1701 C1703 1.356 . S
N1701 H1706 0.984 . S
N1701 H1707 0.985 . S
C1702 C1696 1.379 . S
C1702 C1699 1.363 . S
C1702 N1700 1.356 . S
C1703 C1697 1.363 . S
C1703 C1698 1.379 . S
C1703 N1701 1.356 . S
N1704 C1696 1.356 . S
N1704 H1710 0.984 . S
N1704 H1711 0.984 . S
N1705 C1698 1.356 . S
N1705 H1708 0.984 . S
N1705 H1709 0.985 . S
H1706 N1701 0.984 . S
H1707 N1701 0.985 . S
H1708 N1705 0.984 . S
H1709 N1705 0.985 . S
H1710 N1704 0.984 . S
H1711 N1704 0.984 . S
H1712 N1700 0.984 . S
H1713 N1700 0.985 . S
C1714 C1715 1.363 . S
C1714 C1720 1.379 1_545 S
C1714 N1722 1.356 1_545 S
C1715 C1714 1.363 . S
C1715 C1721 1.363 . S
C1716 C1717 1.363 . S
C1716 C1721 1.379 . S
C1716 N1723 1.356 . S
C1717 C1716 1.363 . S
C1717 C1720 1.363 1_545 S
N1718 C1720 1.356 . S
N1718 H1730 0.984 . S
N1718 H1731 0.985 . S
N1719 C1721 1.356 . S
N1719 H1724 0.984 . S
N1719 H1725 0.985 . S
C1720 C1714 1.379 1_565 S
C1720 C1717 1.363 1_565 S
C1720 N1718 1.356 . S
C1721 C1715 1.363 . S
C1721 C1716 1.379 . S
C1721 N1719 1.356 . S
N1722 C1714 1.356 1_565 S
N1722 H1728 0.984 . S
N1722 H1729 0.984 1_565 S
N1723 C1716 1.356 . S
N1723 H1726 0.984 . S
N1723 H1727 0.985 . S
H1724 N1719 0.984 . S
H1725 N1719 0.985 . S
H1726 N1723 0.984 . S
H1727 N1723 0.985 . S
H1728 N1722 0.984 . S
H1729 N1722 0.984 1_545 S
H1730 N1718 0.984 . S
H1731 N1718 0.985 . S
C1732 C1733 1.363 . S
C1732 C1738 1.379 . S
C1732 N1740 1.356 . S
C1733 C1732 1.363 . S
C1733 C1739 1.363 . S
C1734 C1735 1.363 . S
C1734 C1739 1.379 . S
C1734 N1741 1.356 . S
C1735 C1734 1.363 . S
C1735 C1738 1.363 . S
N1736 C1738 1.356 . S
N1736 H1748 0.984 . S
N1736 H1749 0.985 . S
N1737 C1739 1.356 . S
N1737 H1742 0.984 . S
N1737 H1743 0.985 . S
C1738 C1732 1.379 . S
C1738 C1735 1.363 . S
C1738 N1736 1.356 . S
C1739 C1733 1.363 . S
C1739 C1734 1.379 . S
C1739 N1737 1.356 . S
N1740 C1732 1.356 . S
N1740 H1746 0.984 . S
N1740 H1747 0.984 . S
N1741 C1734 1.356 . S
N1741 H1744 0.984 . S
N1741 H1745 0.985 . S
H1742 N1737 0.984 . S
H1743 N1737 0.985 . S
H1744 N1741 0.984 . S
H1745 N1741 0.985 . S
H1746 N1740 0.984 . S
H1747 N1740 0.984 . S
H1748 N1736 0.984 . S
H1749 N1736 0.985 . S
C1750 C1751 1.363 . S
C1750 C1756 1.379 . S
C1750 N1758 1.356 . S
C1751 C1750 1.363 . S
C1751 C1757 1.363 . S
C1752 C1753 1.363 . S
C1752 C1757 1.379 . S
C1752 N1759 1.356 . S
C1753 C1752 1.363 . S
C1753 C1756 1.363 . S
N1754 C1756 1.356 . S
N1754 H1766 0.984 . S
N1754 H1767 0.985 . S
N1755 C1757 1.356 . S
N1755 H1760 0.984 . S
N1755 H1761 0.985 . S
C1756 C1750 1.379 . S
C1756 C1753 1.363 . S
C1756 N1754 1.356 . S
C1757 C1751 1.363 . S
C1757 C1752 1.379 . S
C1757 N1755 1.356 . S
N1758 C1750 1.356 . S
N1758 H1764 0.984 . S
N1758 H1765 0.984 . S
N1759 C1752 1.356 . S
N1759 H1762 0.984 . S
N1759 H1763 0.985 . S
H1760 N1755 0.984 . S
H1761 N1755 0.985 . S
H1762 N1759 0.984 . S
H1763 N1759 0.985 . S
H1764 N1758 0.984 . S
H1765 N1758 0.984 . S
H1766 N1754 0.984 . S
H1767 N1754 0.985 . S
C1768 C1769 1.363 . S
C1768 C1774 1.379 . S
C1768 N1776 1.356 . S
C1769 C1768 1.363 . S
C1769 C1775 1.363 . S
C1770 C1771 1.363 . S
C1770 C1775 1.379 . S
C1770 N1777 1.356 . S
C1771 C1770 1.363 . S
C1771 C1774 1.363 . S
N1772 C1774 1.356 . S
N1772 H1784 0.984 . S
N1772 H1785 0.985 . S
N1773 C1775 1.356 . S
N1773 H1778 0.984 . S
N1773 H1779 0.985 . S
C1774 C1768 1.379 . S
C1774 C1771 1.363 . S
C1774 N1772 1.356 . S
C1775 C1769 1.363 . S
C1775 C1770 1.379 . S
C1775 N1773 1.356 . S
N1776 C1768 1.356 . S
N1776 H1782 0.984 . S
N1776 H1783 0.984 . S
N1777 C1770 1.356 . S
N1777 H1780 0.984 . S
N1777 H1781 0.985 . S
H1778 N1773 0.984 . S
H1779 N1773 0.985 . S
H1780 N1777 0.984 . S
H1781 N1777 0.985 . S
H1782 N1776 0.984 . S
H1783 N1776 0.984 . S
H1784 N1772 0.984 . S
H1785 N1772 0.985 . S
C1786 C1787 1.363 . S
C1786 C1792 1.379 . S
C1786 N1794 1.356 . S
C1787 C1786 1.363 . S
C1787 C1793 1.363 . S
C1788 C1789 1.363 . S
C1788 C1793 1.379 . S
C1788 N1795 1.356 1_545 S
C1789 C1788 1.363 . S
C1789 C1792 1.363 . S
N1790 C1792 1.356 . S
N1790 H1802 0.984 . S
N1790 H1803 0.985 . S
N1791 C1793 1.356 1_565 S
N1791 H1796 0.984 . S
N1791 H1797 0.985 . S
C1792 C1786 1.379 . S
C1792 C1789 1.363 . S
C1792 N1790 1.356 . S
C1793 C1787 1.363 . S
C1793 C1788 1.379 . S
C1793 N1791 1.356 1_545 S
N1794 C1786 1.356 . S
N1794 H1800 0.984 . S
N1794 H1801 0.984 1_655 S
N1795 C1788 1.356 1_565 S
N1795 H1798 0.984 1_565 S
N1795 H1799 0.985 . S
H1796 N1791 0.984 . S
H1797 N1791 0.985 . S
H1798 N1795 0.984 1_545 S
H1799 N1795 0.985 . S
H1800 N1794 0.984 . S
H1801 N1794 0.984 1_455 S
H1802 N1790 0.984 . S
H1803 N1790 0.985 . S
C1804 C1805 1.363 . S
C1804 C1810 1.379 . S
C1804 N1812 1.356 . S
C1805 C1804 1.363 . S
C1805 C1811 1.363 . S
C1806 C1807 1.363 . S
C1806 C1811 1.379 . S
C1806 N1813 1.356 . S
C1807 C1806 1.363 . S
C1807 C1810 1.363 . S
N1808 C1810 1.356 . S
N1808 H1820 0.984 . S
N1808 H1821 0.985 . S
N1809 C1811 1.356 . S
N1809 H1814 0.984 . S
N1809 H1815 0.985 . S
C1810 C1804 1.379 . S
C1810 C1807 1.363 . S
C1810 N1808 1.356 . S
C1811 C1805 1.363 . S
C1811 C1806 1.379 . S
C1811 N1809 1.356 . S
N1812 C1804 1.356 . S
N1812 H1818 0.984 . S
N1812 H1819 0.984 . S
N1813 C1806 1.356 . S
N1813 H1816 0.984 . S
N1813 H1817 0.985 . S
H1814 N1809 0.984 . S
H1815 N1809 0.985 . S
H1816 N1813 0.984 . S
H1817 N1813 0.985 . S
H1818 N1812 0.984 . S
H1819 N1812 0.984 . S
H1820 N1808 0.984 . S
H1821 N1808 0.985 . S
C1822 C1823 1.363 . S
C1822 C1828 1.379 . S
C1822 N1830 1.356 . S
C1823 C1822 1.363 . S
C1823 C1829 1.363 . S
C1824 C1825 1.363 . S
C1824 C1829 1.379 . S
C1824 N1831 1.356 . S
C1825 C1824 1.363 . S
C1825 C1828 1.363 . S
N1826 C1828 1.356 . S
N1826 H1838 0.984 . S
N1826 H1839 0.985 . S
N1827 C1829 1.356 1_655 S
N1827 H1832 0.984 . S
N1827 H1833 0.985 . S
C1828 C1822 1.379 . S
C1828 C1825 1.363 . S
C1828 N1826 1.356 . S
C1829 C1823 1.363 . S
C1829 C1824 1.379 . S
C1829 N1827 1.356 1_455 S
N1830 C1822 1.356 . S
N1830 H1836 0.984 . S
N1830 H1837 0.984 . S
N1831 C1824 1.356 . S
N1831 H1834 0.984 . S
N1831 H1835 0.985 . S
H1832 N1827 0.984 . S
H1833 N1827 0.985 . S
H1834 N1831 0.984 . S
H1835 N1831 0.985 . S
H1836 N1830 0.984 . S
H1837 N1830 0.984 . S
H1838 N1826 0.984 . S
H1839 N1826 0.985 . S
C1840 C1841 1.363 . S
C1840 C1846 1.379 . S
C1840 N1848 1.356 . S
C1841 C1840 1.363 . S
C1841 C1847 1.363 . S
C1842 C1843 1.363 . S
C1842 C1847 1.379 . S
C1842 N1849 1.356 . S
C1843 C1842 1.363 . S
C1843 C1846 1.363 . S
N1844 C1846 1.356 . S
N1844 H1856 0.984 . S
N1844 H1857 0.985 . S
N1845 C1847 1.356 . S
N1845 H1850 0.984 . S
N1845 H1851 0.985 . S
C1846 C1840 1.379 . S
C1846 C1843 1.363 . S
C1846 N1844 1.356 . S
C1847 C1841 1.363 . S
C1847 C1842 1.379 . S
C1847 N1845 1.356 . S
N1848 C1840 1.356 . S
N1848 H1854 0.984 . S
N1848 H1855 0.984 . S
N1849 C1842 1.356 . S
N1849 H1852 0.984 . S
N1849 H1853 0.985 . S
H1850 N1845 0.984 . S
H1851 N1845 0.985 . S
H1852 N1849 0.984 . S
H1853 N1849 0.985 . S
H1854 N1848 0.984 . S
H1855 N1848 0.984 . S
H1856 N1844 0.984 . S
H1857 N1844 0.985 . S
C1858 C1859 1.363 1_455 S
C1858 C1864 1.379 1_554 S
C1858 N1866 1.356 . S
C1859 C1858 1.363 1_655 S
C1859 C1865 1.363 1_554 S
C1860 C1861 1.363 . S
C1860 C1865 1.379 . S
C1860 N1867 1.356 . S
C1861 C1860 1.363 . S
C1861 C1864 1.363 1_655 S
N1862 C1864 1.356 . S
N1862 H1874 0.984 1_556 S
N1862 H1875 0.985 . S
N1863 C1865 1.356 1_554 S
N1863 H1868 0.984 . S
N1863 H1869 0.985 1_554 S
C1864 C1858 1.379 1_556 S
C1864 C1861 1.363 1_455 S
C1864 N1862 1.356 . S
C1865 C1859 1.363 1_556 S
C1865 C1860 1.379 . S
C1865 N1863 1.356 1_556 S
N1866 C1858 1.356 . S
N1866 H1872 0.984 . S
N1866 H1873 0.984 . S
N1867 C1860 1.356 . S
N1867 H1870 0.984 . S
N1867 H1871 0.985 . S
H1868 N1863 0.984 . S
H1869 N1863 0.985 1_556 S
H1870 N1867 0.984 . S
H1871 N1867 0.985 . S
H1872 N1866 0.984 . S
H1873 N1866 0.984 . S
H1874 N1862 0.984 1_554 S
H1875 N1862 0.985 . S
C1876 C1877 1.363 . S
C1876 C1882 1.379 . S
C1876 N1884 1.356 . S
C1877 C1876 1.363 . S
C1877 C1883 1.363 . S
C1878 C1879 1.363 . S
C1878 C1883 1.379 . S
C1878 N1885 1.356 . S
C1879 C1878 1.363 . S
C1879 C1882 1.363 . S
N1880 C1882 1.356 . S
N1880 H1892 0.984 . S
N1880 H1893 0.985 . S
N1881 C1883 1.356 . S
N1881 H1886 0.984 . S
N1881 H1887 0.985 . S
C1882 C1876 1.379 . S
C1882 C1879 1.363 . S
C1882 N1880 1.356 . S
C1883 C1877 1.363 . S
C1883 C1878 1.379 . S
C1883 N1881 1.356 . S
N1884 C1876 1.356 . S
N1884 H1890 0.984 . S
N1884 H1891 0.984 . S
N1885 C1878 1.356 . S
N1885 H1888 0.984 . S
N1885 H1889 0.985 . S
H1886 N1881 0.984 . S
H1887 N1881 0.985 . S
H1888 N1885 0.984 . S
H1889 N1885 0.985 . S
H1890 N1884 0.984 . S
H1891 N1884 0.984 . S
H1892 N1880 0.984 . S
H1893 N1880 0.985 . S
C1894 C1895 1.363 1_556 S
C1894 C1900 1.379 . S
C1894 N1902 1.356 . S
C1895 C1894 1.363 1_554 S
C1895 C1901 1.363 1_455 S
C1896 C1897 1.367 1_654 S
C1896 C1901 1.377 . S
C1896 N1903 1.355 . S
C1897 C1896 1.367 1_456 S
C1897 C1900 1.363 . S
N1898 C1900 1.356 . S
N1898 H1910 0.984 . S
N1898 H1911 0.985 . S
N1899 C1901 1.356 . S
N1899 H1904 0.984 . S
N1899 H1905 0.985 . S
C1900 C1894 1.379 . S
C1900 C1897 1.363 . S
C1900 N1898 1.356 . S
C1901 C1895 1.363 1_655 S
C1901 C1896 1.377 . S
C1901 N1899 1.356 . S
N1902 C1894 1.356 . S
N1902 H1908 0.984 . S
N1902 H1909 0.984 . S
N1903 C1896 1.355 . S
N1903 H1906 0.984 1_554 S
N1903 H1907 0.985 . S
H1904 N1899 0.984 . S
H1905 N1899 0.985 . S
H1906 N1903 0.984 1_556 S
H1907 N1903 0.985 . S
H1908 N1902 0.984 . S
H1909 N1902 0.984 . S
H1910 N1898 0.984 . S
H1911 N1898 0.985 . S
C1912 C1913 1.363 . S
C1912 C1918 1.379 . S
C1912 N1920 1.356 . S
C1913 C1912 1.363 . S
C1913 C1919 1.363 . S
C1914 C1915 1.363 . S
C1914 C1919 1.379 . S
C1914 N1921 1.356 . S
C1915 C1914 1.363 . S
C1915 C1918 1.363 . S
N1916 C1918 1.356 . S
N1916 H1928 0.984 . S
N1916 H1929 0.985 . S
N1917 C1919 1.356 . S
N1917 H1922 0.984 . S
N1917 H1923 0.985 . S
C1918 C1912 1.379 . S
C1918 C1915 1.363 . S
C1918 N1916 1.356 . S
C1919 C1913 1.363 . S
C1919 C1914 1.379 . S
C1919 N1917 1.356 . S
N1920 C1912 1.356 . S
N1920 H1926 0.984 . S
N1920 H1927 0.984 . S
N1921 C1914 1.356 . S
N1921 H1924 0.984 . S
N1921 H1925 0.985 . S
H1922 N1917 0.984 . S
H1923 N1917 0.985 . S
H1924 N1921 0.984 . S
H1925 N1921 0.985 . S
H1926 N1920 0.984 . S
H1927 N1920 0.984 . S
H1928 N1916 0.984 . S
H1929 N1916 0.985 . S
C1930 C1931 1.363 . S
C1930 C1936 1.379 . S
C1930 N1938 1.356 . S
C1931 C1930 1.363 . S
C1931 C1937 1.363 . S
C1932 C1933 1.363 . S
C1932 C1937 1.379 . S
C1932 N1939 1.356 . S
C1933 C1932 1.363 . S
C1933 C1936 1.363 . S
N1934 C1936 1.356 . S
N1934 H1946 0.984 . S
N1934 H1947 0.985 . S
N1935 C1937 1.356 1_556 S
N1935 H1940 0.984 . S
N1935 H1941 0.985 . S
C1936 C1930 1.379 . S
C1936 C1933 1.363 . S
C1936 N1934 1.356 . S
C1937 C1931 1.363 . S
C1937 C1932 1.379 . S
C1937 N1935 1.356 1_554 S
N1938 C1930 1.356 . S
N1938 H1944 0.984 . S
N1938 H1945 0.984 . S
N1939 C1932 1.356 . S
N1939 H1942 0.984 . S
N1939 H1943 0.985 . S
H1940 N1935 0.984 . S
H1941 N1935 0.985 . S
H1942 N1939 0.984 . S
H1943 N1939 0.985 . S
H1944 N1938 0.984 . S
H1945 N1938 0.984 . S
H1946 N1934 0.984 . S
H1947 N1934 0.985 . S
C1948 C1949 1.363 . S
C1948 C1954 1.379 . S
C1948 N1956 1.356 . S
C1949 C1948 1.363 . S
C1949 C1955 1.363 . S
C1950 C1951 1.363 . S
C1950 C1955 1.379 . S
C1950 N1957 1.356 . S
C1951 C1950 1.363 . S
C1951 C1954 1.363 . S
N1952 C1954 1.356 . S
N1952 H1964 0.984 . S
N1952 H1965 0.985 . S
N1953 C1955 1.356 . S
N1953 H1958 0.984 . S
N1953 H1959 0.985 . S
C1954 C1948 1.379 . S
C1954 C1951 1.363 . S
C1954 N1952 1.356 . S
C1955 C1949 1.363 . S
C1955 C1950 1.379 . S
C1955 N1953 1.356 . S
N1956 C1948 1.356 . S
N1956 H1962 0.984 . S
N1956 H1963 0.984 . S
N1957 C1950 1.356 . S
N1957 H1960 0.984 . S
N1957 H1961 0.985 . S
H1958 N1953 0.984 . S
H1959 N1953 0.985 . S
H1960 N1957 0.984 . S
H1961 N1957 0.985 . S
H1962 N1956 0.984 . S
H1963 N1956 0.984 . S
H1964 N1952 0.984 . S
H1965 N1952 0.985 . S
C1966 C1967 1.363 . S
C1966 C1972 1.379 . S
C1966 N1974 1.356 . S
C1967 C1966 1.363 . S
C1967 C1973 1.363 . S
C1968 C1969 1.363 . S
C1968 C1973 1.379 . S
C1968 N1975 1.356 . S
C1969 C1968 1.363 . S
C1969 C1972 1.363 . S
N1970 C1972 1.356 . S
N1970 H1982 0.984 . S
N1970 H1983 0.985 . S
N1971 C1973 1.356 . S
N1971 H1976 0.984 . S
N1971 H1977 0.985 . S
C1972 C1966 1.379 . S
C1972 C1969 1.363 . S
C1972 N1970 1.356 . S
C1973 C1967 1.363 . S
C1973 C1968 1.379 . S
C1973 N1971 1.356 . S
N1974 C1966 1.356 . S
N1974 H1980 0.984 . S
N1974 H1981 0.984 . S
N1975 C1968 1.356 . S
N1975 H1978 0.984 . S
N1975 H1979 0.985 . S
H1976 N1971 0.984 . S
H1977 N1971 0.985 . S
H1978 N1975 0.984 . S
H1979 N1975 0.985 . S
H1980 N1974 0.984 . S
H1981 N1974 0.984 . S
H1982 N1970 0.984 . S
H1983 N1970 0.985 . S
C1984 C1985 1.363 . S
C1984 C1990 1.379 . S
C1984 N1992 1.356 . S
C1985 C1984 1.363 . S
C1985 C1991 1.363 . S
C1986 C1987 1.363 . S
C1986 C1991 1.379 . S
C1986 N1993 1.356 . S
C1987 C1986 1.363 . S
C1987 C1990 1.363 . S
N1988 C1990 1.356 . S
N1988 H2000 0.984 . S
N1988 H2001 0.985 . S
N1989 C1991 1.356 . S
N1989 H1994 0.984 . S
N1989 H1995 0.985 . S
C1990 C1984 1.379 . S
C1990 C1987 1.363 . S
C1990 N1988 1.356 . S
C1991 C1985 1.363 . S
C1991 C1986 1.379 . S
C1991 N1989 1.356 . S
N1992 C1984 1.356 . S
N1992 H1998 0.984 . S
N1992 H1999 0.984 . S
N1993 C1986 1.356 . S
N1993 H1996 0.984 . S
N1993 H1997 0.985 . S
H1994 N1989 0.984 . S
H1995 N1989 0.985 . S
H1996 N1993 0.984 . S
H1997 N1993 0.985 . S
H1998 N1992 0.984 . S
H1999 N1992 0.984 . S
H2000 N1988 0.984 . S
H2001 N1988 0.985 . S
C2002 C2003 1.363 . S
C2002 C2008 1.379 . S
C2002 N2010 1.356 . S
C2003 C2002 1.363 . S
C2003 C2009 1.363 . S
C2004 C2005 1.363 . S
C2004 C2009 1.379 . S
C2004 N2011 1.356 . S
C2005 C2004 1.363 . S
C2005 C2008 1.363 . S
N2006 C2008 1.356 . S
N2006 H2018 0.984 . S
N2006 H2019 0.985 . S
N2007 C2009 1.356 . S
N2007 H2012 0.984 . S
N2007 H2013 0.985 . S
C2008 C2002 1.379 . S
C2008 C2005 1.363 . S
C2008 N2006 1.356 . S
C2009 C2003 1.363 . S
C2009 C2004 1.379 . S
C2009 N2007 1.356 . S
N2010 C2002 1.356 . S
N2010 H2016 0.984 . S
N2010 H2017 0.984 . S
N2011 C2004 1.356 . S
N2011 H2014 0.984 . S
N2011 H2015 0.985 . S
H2012 N2007 0.984 . S
H2013 N2007 0.985 . S
H2014 N2011 0.984 . S
H2015 N2011 0.985 . S
H2016 N2010 0.984 . S
H2017 N2010 0.984 . S
H2018 N2006 0.984 . S
H2019 N2006 0.985 . S
C2020 C2021 1.363 . S
C2020 C2026 1.379 . S
C2020 N2028 1.356 . S
C2021 C2020 1.363 . S
C2021 C2027 1.363 . S
C2022 C2023 1.363 . S
C2022 C2027 1.379 . S
C2022 N2029 1.356 . S
C2023 C2022 1.363 . S
C2023 C2026 1.363 . S
N2024 C2026 1.356 . S
N2024 H2036 0.984 . S
N2024 H2037 0.985 . S
N2025 C2027 1.356 . S
N2025 H2030 0.984 . S
N2025 H2031 0.985 . S
C2026 C2020 1.379 . S
C2026 C2023 1.363 . S
C2026 N2024 1.356 . S
C2027 C2021 1.363 . S
C2027 C2022 1.379 . S
C2027 N2025 1.356 . S
N2028 C2020 1.356 . S
N2028 H2034 0.984 . S
N2028 H2035 0.984 . S
N2029 C2022 1.356 . S
N2029 H2032 0.984 . S
N2029 H2033 0.985 . S
H2030 N2025 0.984 . S
H2031 N2025 0.985 . S
H2032 N2029 0.984 . S
H2033 N2029 0.985 . S
H2034 N2028 0.984 . S
H2035 N2028 0.984 . S
H2036 N2024 0.984 . S
H2037 N2024 0.985 . S
C2038 C2039 1.363 . S
C2038 C2044 1.379 . S
C2038 N2046 1.356 . S
C2039 C2038 1.363 . S
C2039 C2045 1.363 . S
C2040 C2041 1.363 . S
C2040 C2045 1.379 . S
C2040 N2047 1.356 . S
C2041 C2040 1.363 . S
C2041 C2044 1.363 . S
N2042 C2044 1.356 . S
N2042 H2054 0.984 . S
N2042 H2055 0.985 . S
N2043 C2045 1.356 . S
N2043 H2048 0.984 . S
N2043 H2049 0.985 . S
C2044 C2038 1.379 . S
C2044 C2041 1.363 . S
C2044 N2042 1.356 . S
C2045 C2039 1.363 . S
C2045 C2040 1.379 . S
C2045 N2043 1.356 . S
N2046 C2038 1.356 . S
N2046 H2052 0.984 . S
N2046 H2053 0.984 . S
N2047 C2040 1.356 . S
N2047 H2050 0.984 . S
N2047 H2051 0.985 . S
H2048 N2043 0.984 . S
H2049 N2043 0.985 . S
H2050 N2047 0.984 . S
H2051 N2047 0.985 . S
H2052 N2046 0.984 . S
H2053 N2046 0.984 . S
H2054 N2042 0.984 . S
H2055 N2042 0.985 . S
C2056 C2057 1.363 1_554 S
C2056 C2062 1.379 . S
C2056 N2064 1.356 . S
C2057 C2056 1.363 1_556 S
C2057 C2063 1.363 . S
C2058 C2059 1.363 . S
C2058 C2063 1.379 1_554 S
C2058 N2065 1.356 . S
C2059 C2058 1.363 . S
C2059 C2062 1.363 . S
N2060 C2062 1.356 . S
N2060 H2072 0.984 . S
N2060 H2073 0.985 . S
N2061 C2063 1.356 . S
N2061 H2066 0.984 . S
N2061 H2067 0.985 . S
C2062 C2056 1.379 . S
C2062 C2059 1.363 . S
C2062 N2060 1.356 . S
C2063 C2057 1.363 . S
C2063 C2058 1.379 1_556 S
C2063 N2061 1.356 . S
N2064 C2056 1.356 . S
N2064 H2070 0.984 . S
N2064 H2071 0.984 . S
N2065 C2058 1.356 . S
N2065 H2068 0.984 . S
N2065 H2069 0.985 1_554 S
H2066 N2061 0.984 . S
H2067 N2061 0.985 . S
H2068 N2065 0.984 . S
H2069 N2065 0.985 1_556 S
H2070 N2064 0.984 . S
H2071 N2064 0.984 . S
H2072 N2060 0.984 . S
H2073 N2060 0.985 . S
C2074 C2075 1.363 . S
C2074 C2080 1.379 . S
C2074 N2082 1.356 . S
C2075 C2074 1.363 . S
C2075 C2081 1.363 . S
C2076 C2077 1.363 . S
C2076 C2081 1.379 . S
C2076 N2083 1.356 . S
C2077 C2076 1.363 . S
C2077 C2080 1.363 . S
N2078 C2080 1.356 . S
N2078 H2090 0.984 . S
N2078 H2091 0.985 . S
N2079 C2081 1.356 . S
N2079 H2084 0.984 . S
N2079 H2085 0.985 . S
C2080 C2074 1.379 . S
C2080 C2077 1.363 . S
C2080 N2078 1.356 . S
C2081 C2075 1.363 . S
C2081 C2076 1.379 . S
C2081 N2079 1.356 . S
N2082 C2074 1.356 . S
N2082 H2088 0.984 . S
N2082 H2089 0.984 . S
N2083 C2076 1.356 . S
N2083 H2086 0.984 . S
N2083 H2087 0.985 . S
H2084 N2079 0.984 . S
H2085 N2079 0.985 . S
H2086 N2083 0.984 . S
H2087 N2083 0.985 . S
H2088 N2082 0.984 . S
H2089 N2082 0.984 . S
H2090 N2078 0.984 . S
H2091 N2078 0.985 . S
C2092 C2093 1.363 . S
C2092 C2098 1.379 . S
C2092 N2100 1.356 . S
C2093 C2092 1.363 . S
C2093 C2099 1.363 . S
C2094 C2095 1.363 . S
C2094 C2099 1.379 . S
C2094 N2101 1.356 . S
C2095 C2094 1.363 . S
C2095 C2098 1.363 . S
N2096 C2098 1.356 . S
N2096 H2108 0.984 . S
N2096 H2109 0.985 . S
N2097 C2099 1.356 . S
N2097 H2102 0.984 . S
N2097 H2103 0.985 . S
C2098 C2092 1.379 . S
C2098 C2095 1.363 . S
C2098 N2096 1.356 . S
C2099 C2093 1.363 . S
C2099 C2094 1.379 . S
C2099 N2097 1.356 . S
N2100 C2092 1.356 . S
N2100 H2106 0.984 . S
N2100 H2107 0.984 . S
N2101 C2094 1.356 . S
N2101 H2104 0.984 . S
N2101 H2105 0.985 . S
H2102 N2097 0.984 . S
H2103 N2097 0.985 . S
H2104 N2101 0.984 . S
H2105 N2101 0.985 . S
H2106 N2100 0.984 . S
H2107 N2100 0.984 . S
H2108 N2096 0.984 . S
H2109 N2096 0.985 . S
C2110 C2111 1.363 . S
C2110 C2116 1.379 1_554 S
C2110 N2118 1.356 1_554 S
C2111 C2110 1.363 . S
C2111 C2117 1.363 . S
C2112 C2113 1.363 . S
C2112 C2117 1.379 . S
C2112 N2119 1.356 . S
C2113 C2112 1.363 . S
C2113 C2116 1.363 1_554 S
N2114 C2116 1.356 . S
N2114 H2126 0.984 . S
N2114 H2127 0.985 . S
N2115 C2117 1.356 . S
N2115 H2120 0.984 . S
N2115 H2121 0.985 . S
C2116 C2110 1.379 1_556 S
C2116 C2113 1.363 1_556 S
C2116 N2114 1.356 . S
C2117 C2111 1.363 . S
C2117 C2112 1.379 . S
C2117 N2115 1.356 . S
N2118 C2110 1.356 1_556 S
N2118 H2124 0.984 . S
N2118 H2125 0.975 1_556 S
N2119 C2112 1.356 . S
N2119 H2122 0.984 . S
N2119 H2123 0.985 . S
H2120 N2115 0.984 . S
H2121 N2115 0.985 . S
H2122 N2119 0.984 . S
H2123 N2119 0.985 . S
H2124 N2118 0.984 . S
H2125 N2118 0.975 1_554 S
H2126 N2114 0.984 . S
H2127 N2114 0.985 . S
C1267 C257 1.801 . S
C1265 C73 1.803 . S
C1285 C316 1.316 . S
C1283 C82 1.262 . S
C1301 C100 1.841 . S
C1303 C433 1.828 . S
C1321 C501 1.352 . S
C1319 C56 1.320 1_655 S
C1339 C580 1.424 . S
C1337 C134 1.422 . S
C1357 C705 1.783 . S
C1355 C165 1.762 . S
C1373 C147 1.195 . S
C1375 C765 1.236 . S
C1393 C873 1.810 . S
C1391 C125 1.811 . S
C1409 C151 1.419 . S
C1411 C969 1.421 . S
C1429 C1029 1.461 . S
C1427 C121 1.418 . S
C1445 C139 1.790 . S
C1447 C932 1.797 . S
C1465 C1049 1.320 . S
C1463 C164 1.319 . S
C1481 C95 1.306 . S
C1483 C1117 1.366 . S
C1499 C61 1.502 . S
C1501 C1108 1.512 . S
C1517 C74 1.459 . S
C1519 C1137 1.464 . S
C1535 C86 1.764 . S
C1537 C1145 1.765 . S
C1553 C47 1.440 . S
C1555 C529 1.439 . S
C1571 C186 1.327 . S
C1573 C492 1.389 . S
C1591 C228 1.574 . S
C1589 C204 1.578 . S
C1609 C325 1.846 . S
C1607 C112 1.851 . S
C1625 C60 1.395 1_545 S
C1627 C589 1.390 . S
C1645 C881 1.447 . S
C1643 C152 1.437 . S
C1663 C609 1.902 . S
C1661 C126 1.896 1_545 S
C1681 C793 1.355 . S
C1679 C160 1.370 . S
C1699 C785 1.801 . S
C1697 C190 1.803 . S
C1715 C199 1.262 . S
C1717 C853 1.316 . S
C1733 C113 1.841 . S
C1735 C617 1.828 . S
C1753 C668 1.352 . S
C1751 C173 1.332 . S
C1769 C43 1.422 . S
C1771 C413 1.424 . S
C1789 C521 1.783 . S
C1787 C9 1.762 1_655 S
C1807 C237 1.236 . S
C1805 C17 1.195 . S
C1825 C353 1.810 . S
C1823 C34 1.811 1_455 S
C1841 C21 1.419 . S
C1843 C1057 1.419 . S
C1859 C30 1.418 . S
C1861 C941 1.462 . S
C1877 C48 1.790 . S
C1879 C1020 1.799 . S
C1895 C8 1.318 . S
C1897 C961 1.319 . S
C1915 C1205 1.367 . S
C1913 C108 1.306 . S
C1933 C1196 1.512 . S
C1931 C178 1.485 1_554 S
C1951 C1225 1.464 . S
C1949 C191 1.459 . S
C1967 C203 1.764 . S
C1969 C1233 1.765 . S
C1985 C138 1.440 . S
C1987 C697 1.439 . S
C2005 C677 1.389 . S
C2003 C69 1.327 . S
C2023 C756 1.574 . S
C2021 C87 1.578 . S
C2041 C844 1.846 . S
C2039 C99 1.851 . S
C2057 C177 1.395 . S
C2059 C404 1.390 . S
C2077 C345 1.447 . S
C2075 C22 1.437 . S
C2093 C35 1.896 . S
C2095 C441 1.902 . S
C2113 C265 1.355 . S
C2111 C4 1.370 . S
