# Generated by pormake.
# Topology pyr, (3,6)-cn, num edge types: 1
# Building blocks:
#     Node 0, Type 0, BuildingBlock: MIDCAF_clean_linker_0, # of connection points: 3
#     Node 1, Type 0, BuildingBlock: MIDCAF_clean_linker_0, # of connection points: 3
#     Node 2, Type 0, BuildingBlock: MIDCAF_clean_linker_0, # of connection points: 3
#     Node 3, Type 0, BuildingBlock: MIDCAF_clean_linker_0, # of connection points: 3
#     Node 4, Type 0, BuildingBlock: MIDCAF_clean_linker_0, # of connection points: 3
#     Node 5, Type 0, BuildingBlock: MIDCAF_clean_linker_0, # of connection points: 3
#     Node 6, Type 0, BuildingBlock: MIDCAF_clean_linker_0, # of connection points: 3
#     Node 7, Type 0, BuildingBlock: MIDCAF_clean_linker_0, # of connection points: 3
#     Node 8, Type 1, BuildingBlock: BETDIP_clean_sbu_0, # of connection points: 6
#     Node 9, Type 1, BuildingBlock: BETDIP_clean_sbu_0, # of connection points: 6
#     Node 10, Type 1, BuildingBlock: BETDIP_clean_sbu_0, # of connection points: 6
#     Node 11, Type 1, BuildingBlock: BETDIP_clean_sbu_0, # of connection points: 6
#     Edge 12, Type (0, 1), BuildingBlock: EZIPEK_clean_linker_0, # of connection points: 2
#     Edge 13, Type (0, 1), BuildingBlock: EZIPEK_clean_linker_0, # of connection points: 2
#     Edge 14, Type (0, 1), BuildingBlock: EZIPEK_clean_linker_0, # of connection points: 2
#     Edge 15, Type (0, 1), BuildingBlock: EZIPEK_clean_linker_0, # of connection points: 2
#     Edge 16, Type (0, 1), BuildingBlock: EZIPEK_clean_linker_0, # of connection points: 2
#     Edge 17, Type (0, 1), BuildingBlock: EZIPEK_clean_linker_0, # of connection points: 2
#     Edge 18, Type (0, 1), BuildingBlock: EZIPEK_clean_linker_0, # of connection points: 2
#     Edge 19, Type (0, 1), BuildingBlock: EZIPEK_clean_linker_0, # of connection points: 2
#     Edge 20, Type (0, 1), BuildingBlock: EZIPEK_clean_linker_0, # of connection points: 2
#     Edge 21, Type (0, 1), BuildingBlock: EZIPEK_clean_linker_0, # of connection points: 2
#     Edge 22, Type (0, 1), BuildingBlock: EZIPEK_clean_linker_0, # of connection points: 2
#     Edge 23, Type (0, 1), BuildingBlock: EZIPEK_clean_linker_0, # of connection points: 2
#     Edge 24, Type (0, 1), BuildingBlock: EZIPEK_clean_linker_0, # of connection points: 2
#     Edge 25, Type (0, 1), BuildingBlock: EZIPEK_clean_linker_0, # of connection points: 2
#     Edge 26, Type (0, 1), BuildingBlock: EZIPEK_clean_linker_0, # of connection points: 2
#     Edge 27, Type (0, 1), BuildingBlock: EZIPEK_clean_linker_0, # of connection points: 2
#     Edge 28, Type (0, 1), BuildingBlock: EZIPEK_clean_linker_0, # of connection points: 2
#     Edge 29, Type (0, 1), BuildingBlock: EZIPEK_clean_linker_0, # of connection points: 2
#     Edge 30, Type (0, 1), BuildingBlock: EZIPEK_clean_linker_0, # of connection points: 2
#     Edge 31, Type (0, 1), BuildingBlock: EZIPEK_clean_linker_0, # of connection points: 2
#     Edge 32, Type (0, 1), BuildingBlock: EZIPEK_clean_linker_0, # of connection points: 2
#     Edge 33, Type (0, 1), BuildingBlock: EZIPEK_clean_linker_0, # of connection points: 2
#     Edge 34, Type (0, 1), BuildingBlock: EZIPEK_clean_linker_0, # of connection points: 2
#     Edge 35, Type (0, 1), BuildingBlock: EZIPEK_clean_linker_0, # of connection points: 2
# Relax obj value: 0.155
# Max RMSD: 0.204
# Mean RMSD: 0.092
data_MOF--net-pyr--node1-BETDIP_clean_sbu_0--node2-MIDCAF_clean_linker_0--edge1-EZIPEK_clean_linker_0
_symmetry_space_group_name_H-M    P1
_symmetry_Int_Tables_number       1
_symmetry_cell_setting            triclinic
loop_
_symmetry_equiv_pos_as_xyz
'x, y, z'
_cell_length_a     33.882808
_cell_length_b     37.215262
_cell_length_c     35.902347
_cell_angle_alpha  88.847079
_cell_angle_beta   92.897722
_cell_angle_gamma 104.35194
loop_
_atom_site_label
_atom_site_type_symbol
_atom_site_fract_x
_atom_site_fract_y
_atom_site_fract_z
_atom_type_partial_charge
C0 C 0.34456 0.30868 0.39566 0.0
C1 C 0.34111 0.27176 0.40699 0.0
C2 C 0.36363 0.25057 0.38948 0.0
C3 C 0.38598 0.26471 0.35863 0.0
H4 H 0.46214 0.24237 0.2853 0.0
H5 H 0.48541 0.19396 0.25477 0.0
H6 H 0.46574 0.24217 0.14744 0.0
H7 H 0.44163 0.29064 0.17755 0.0
H8 H 0.36638 0.33239 0.1718 0.0
H9 H 0.31214 0.35467 0.13796 0.0
H10 H 0.28673 0.40401 0.23872 0.0
H11 H 0.34078 0.38255 0.2726 0.0
H12 H 0.36564 0.35007 0.35397 0.0
H13 H 0.32783 0.32557 0.40929 0.0
H14 H 0.36174 0.22217 0.39819 0.0
H15 H 0.40067 0.24664 0.34422 0.0
N16 N 0.42207 0.29139 0.28918 0.0
N17 N 0.40785 0.31667 0.23113 0.0
N18 N 0.37953 0.33218 0.285 0.0
C19 C 0.42752 0.2948 0.25194 0.0
C20 C 0.38409 0.3358 0.24764 0.0
C21 C 0.39836 0.3101 0.30597 0.0
C22 C 0.44918 0.27015 0.23385 0.0
C23 C 0.46348 0.24333 0.25522 0.0
C24 C 0.47707 0.21565 0.23789 0.0
C25 C 0.47715 0.21449 0.19895 0.0
C26 C 0.46596 0.24276 0.17761 0.0
C27 C 0.45202 0.27034 0.19489 0.0
C28 C 0.3576 0.35518 0.2251 0.0
C29 C 0.34997 0.34878 0.18656 0.0
C30 C 0.31892 0.36134 0.16718 0.0
C31 C 0.29514 0.38041 0.18609 0.0
C32 C 0.30456 0.38904 0.22379 0.0
C33 C 0.3355 0.37666 0.24309 0.0
C34 C 0.38549 0.30004 0.34432 0.0
C35 C 0.36615 0.32258 0.36412 0.0
C36 C 0.07835 0.86505 0.7321 0.0
C37 C 0.07004 0.86353 0.69346 0.0
C38 C 0.0738 0.8324 0.67377 0.0
C39 C 0.08828 0.80434 0.69207 0.0
H40 H 0.18949 0.75635 0.67606 0.0
H41 H 0.24478 0.73633 0.64773 0.0
H42 H 0.24808 0.66003 0.73903 0.0
H43 H 0.19327 0.68005 0.76784 0.0
H44 H 0.19045 0.7197 0.84927 0.0
H45 H 0.22977 0.74195 0.90691 0.0
H46 H 0.17644 0.83573 0.90668 0.0
H47 H 0.13667 0.81376 0.84956 0.0
H48 H 0.0999 0.83957 0.78015 0.0
H49 H 0.07587 0.88894 0.74771 0.0
H50 H 0.06759 0.83082 0.64387 0.0
H51 H 0.09258 0.78148 0.67587 0.0
N52 N 0.13836 0.75925 0.72864 0.0
N53 N 0.16594 0.73815 0.7836 0.0
N54 N 0.12523 0.78024 0.78686 0.0
C55 C 0.16123 0.73786 0.74585 0.0
C56 C 0.14811 0.75918 0.80437 0.0
C57 C 0.11966 0.78009 0.74911 0.0
C58 C 0.18722 0.71999 0.72436 0.0
C59 C 0.20112 0.73454 0.68958 0.0
C60 C 0.23282 0.72331 0.67344 0.0
C61 C 0.25055 0.69701 0.69155 0.0
C62 C 0.23472 0.68043 0.72477 0.0
C63 C 0.20344 0.69192 0.74114 0.0
C64 C 0.16131 0.76555 0.84416 0.0
C65 C 0.186 0.7444 0.8621 0.0
C66 C 0.20841 0.75693 0.8951 0.0
C67 C 0.20654 0.79083 0.91031 0.0
C68 C 0.17845 0.80966 0.89497 0.0
C69 C 0.15575 0.79701 0.86224 0.0
C70 C 0.09874 0.80671 0.73051 0.0
C71 C 0.09223 0.83677 0.75053 0.0
C72 C 0.61043 0.24431 0.95058 0.0
C73 C 0.57197 0.22394 0.93733 0.0
C74 C 0.55238 0.23863 0.90726 0.0
C75 C 0.57071 0.27348 0.89137 0.0
H76 H 0.56064 0.35978 0.80571 0.0
H77 H 0.53561 0.39168 0.75215 0.0
H78 H 0.64402 0.48097 0.76191 0.0
H79 H 0.66914 0.44983 0.81514 0.0
H80 H 0.73071 0.45774 0.88672 0.0
H81 H 0.79262 0.48987 0.92268 0.0
H82 H 0.78159 0.39489 0.99553 0.0
H83 H 0.72005 0.36264 0.96022 0.0
H84 H 0.65821 0.29351 0.94651 0.0
H85 H 0.6261 0.2338 0.97379 0.0
H86 H 0.52247 0.22357 0.89672 0.0
H87 H 0.55452 0.28431 0.86879 0.0
N88 N 0.61344 0.34859 0.86053 0.0
N89 N 0.66724 0.40244 0.86824 0.0
N90 N 0.66302 0.35234 0.90944 0.0
C91 C 0.63277 0.38366 0.84883 0.0
C92 C 0.68254 0.38703 0.89864 0.0
C93 C 0.62871 0.33266 0.89098 0.0
C94 C 0.61703 0.402 0.81528 0.0
C95 C 0.5793 0.38612 0.79647 0.0
C96 C 0.56489 0.40437 0.76571 0.0
C97 C 0.5879 0.43885 0.75278 0.0
C98 C 0.62565 0.45446 0.77114 0.0
C99 C 0.63994 0.43645 0.80186 0.0
C100 C 0.72013 0.40741 0.92029 0.0
C101 C 0.74133 0.44364 0.91041 0.0
C102 C 0.77674 0.46212 0.93097 0.0
C103 C 0.79177 0.44477 0.96183 0.0
C104 C 0.77058 0.40884 0.97192 0.0
C105 C 0.7353 0.39041 0.95149 0.0
C106 C 0.60899 0.29441 0.90532 0.0
C107 C 0.62866 0.27881 0.93485 0.0
C108 C 0.77289 0.66444 0.47215 0.0
C109 C 0.74482 0.63275 0.45827 0.0
C110 C 0.75212 0.61791 0.42427 0.0
C111 C 0.7866 0.63506 0.4042 0.0
H112 H 0.87335 0.62011 0.32532 0.0
H113 H 0.89478 0.59119 0.27185 0.0
H114 H 0.96534 0.69774 0.23573 0.0
H115 H 0.94465 0.72711 0.28981 0.0
H116 H 0.95501 0.8028 0.35352 0.0
H117 H 0.98151 0.86484 0.37659 0.0
H118 H 0.91918 0.83361 0.47877 0.0
H119 H 0.89416 0.7718 0.45602 0.0
H120 H 0.8275 0.70629 0.46388 0.0
H121 H 0.76795 0.6764 0.49825 0.0
H122 H 0.73076 0.5935 0.41296 0.0
H123 H 0.79102 0.62343 0.37777 0.0
N124 N 0.86186 0.67365 0.3653 0.0
N125 N 0.91293 0.72904 0.35679 0.0
N126 N 0.8693 0.723 0.4065 0.0
C127 C 0.89368 0.69363 0.34554 0.0
C128 C 0.90084 0.74379 0.38767 0.0
C129 C 0.84946 0.68824 0.39585 0.0
C130 C 0.90713 0.67623 0.3123 0.0
C131 C 0.89344 0.63766 0.30615 0.0
C132 C 0.90573 0.62089 0.27543 0.0
C133 C 0.9317 0.64209 0.24946 0.0
C134 C 0.94529 0.68064 0.25523 0.0
C135 C 0.93344 0.69743 0.28633 0.0
C136 C 0.92029 0.78229 0.40171 0.0
C137 C 0.94602 0.80964 0.38049 0.0
C138 C 0.96016 0.84641 0.39366 0.0
C139 C 0.94734 0.85773 0.42779 0.0
C140 C 0.92585 0.8286 0.45048 0.0
C141 C 0.91191 0.79223 0.43754 0.0
C142 C 0.81423 0.66754 0.41766 0.0
C143 C 0.80701 0.68158 0.45221 0.0
C144 C 0.55389 0.86636 0.88997 0.0
C145 C 0.55709 0.87046 0.92879 0.0
C146 C 0.57617 0.84751 0.9508 0.0
C147 C 0.59378 0.82204 0.93406 0.0
H148 H 0.67007 0.75154 0.9579 0.0
H149 H 0.72085 0.7259 0.99342 0.0
H150 H 0.76018 0.69048 0.89108 0.0
H151 H 0.70956 0.71492 0.85558 0.0
H152 H 0.6938 0.75053 0.78063 0.0
H153 H 0.73298 0.77875 0.72767 0.0
H154 H 0.67438 0.86914 0.72704 0.0
H155 H 0.63494 0.84136 0.77999 0.0
H156 H 0.56984 0.83946 0.84303 0.0
H157 H 0.53904 0.88377 0.87264 0.0
H158 H 0.57873 0.85029 0.98086 0.0
H159 H 0.60963 0.80571 0.95174 0.0
N160 N 0.63579 0.77429 0.89757 0.0
N161 N 0.66661 0.76119 0.84424 0.0
N162 N 0.62329 0.80126 0.83984 0.0
C163 C 0.66065 0.75622 0.88125 0.0
C164 C 0.64818 0.78355 0.82328 0.0
C165 C 0.61649 0.79649 0.87684 0.0
C166 C 0.68604 0.7358 0.90379 0.0
C167 C 0.68896 0.73764 0.94302 0.0
C168 C 0.71801 0.72317 0.96336 0.0
C169 C 0.74463 0.70699 0.94469 0.0
C170 C 0.74017 0.70326 0.90589 0.0
C171 C 0.71114 0.71734 0.88567 0.0
C172 C 0.66197 0.79419 0.78521 0.0
C173 C 0.68818 0.7758 0.76854 0.0
C174 C 0.71048 0.79172 0.73813 0.0
C175 C 0.70672 0.82608 0.72391 0.0
C176 C 0.6775 0.84252 0.7378 0.0
C177 C 0.65506 0.82658 0.76813 0.0
C178 C 0.59274 0.81927 0.89496 0.0
C179 C 0.57162 0.84105 0.87318 0.0
C180 C 0.84207 0.26561 0.22363 0.0
C181 C 0.81548 0.28627 0.20885 0.0
C182 C 0.81571 0.3204 0.22476 0.0
C183 C 0.83878 0.33154 0.25777 0.0
H184 H 0.82514 0.38857 0.34953 0.0
H185 H 0.77554 0.41179 0.3827 0.0
H186 H 0.79975 0.3515 0.4814 0.0
H187 H 0.8496 0.3278 0.4485 0.0
H188 H 0.90274 0.27045 0.44296 0.0
H189 H 0.9326 0.22287 0.47203 0.0
H190 H 0.98271 0.20581 0.36774 0.0
H191 H 0.95228 0.25308 0.33795 0.0
H192 H 0.88312 0.25873 0.26876 0.0
H193 H 0.84231 0.23925 0.21147 0.0
H194 H 0.79541 0.3367 0.2135 0.0
H195 H 0.83595 0.35659 0.27108 0.0
N196 N 0.85913 0.33589 0.33616 0.0
N197 N 0.88666 0.31386 0.39051 0.0
N198 N 0.89785 0.2922 0.33196 0.0
C199 C 0.86455 0.33612 0.37385 0.0
C200 C 0.90392 0.29219 0.36969 0.0
C201 C 0.87557 0.31412 0.31495 0.0
C202 C 0.84101 0.35587 0.39618 0.0
C203 C 0.82064 0.38073 0.37852 0.0
C204 C 0.79235 0.39416 0.39741 0.0
C205 C 0.78398 0.38312 0.43428 0.0
C206 C 0.80603 0.36031 0.45291 0.0
C207 C 0.8345 0.34686 0.43403 0.0
C208 C 0.92496 0.26556 0.38804 0.0
C209 C 0.92032 0.25687 0.42613 0.0
C210 C 0.9372 0.22954 0.4428 0.0
C211 C 0.9594 0.2106 0.42189 0.0
C212 C 0.96528 0.21991 0.38418 0.0
C213 C 0.94793 0.24696 0.3673 0.0
C214 C 0.8619 0.30868 0.27515 0.0
C215 C 0.86534 0.27681 0.25647 0.0
C216 C 0.2434 0.61475 0.20645 0.0
C217 C 0.2306 0.62978 0.17308 0.0
C218 C 0.25389 0.66384 0.16011 0.0
C219 C 0.28921 0.68272 0.18006 0.0
H220 H 0.37883 0.77029 0.17038 0.0
H221 H 0.40902 0.83023 0.14253 0.0
H222 H 0.4888 0.86012 0.24011 0.0
H223 H 0.4585 0.79929 0.26884 0.0
H224 H 0.46741 0.69062 0.30659 0.0
H225 H 0.48894 0.65743 0.36092 0.0
H226 H 0.36568 0.62937 0.39738 0.0
H227 H 0.34381 0.66044 0.34212 0.0
H228 H 0.28796 0.62147 0.25222 0.0
H229 H 0.2257 0.58855 0.21704 0.0
H230 H 0.2445 0.67601 0.13455 0.0
H231 H 0.30613 0.70899 0.16899 0.0
N232 N 0.36089 0.72231 0.22131 0.0
N233 N 0.41003 0.72828 0.27084 0.0
N234 N 0.35425 0.67553 0.2667 0.0
C235 C 0.39557 0.74241 0.23884 0.0
C236 C 0.38924 0.6947 0.28497 0.0
C237 C 0.34003 0.68903 0.23462 0.0
C238 C 0.41603 0.77944 0.22221 0.0
C239 C 0.4027 0.78935 0.18637 0.0
C240 C 0.41989 0.8239 0.17019 0.0
C241 C 0.45089 0.84999 0.18922 0.0
C242 C 0.4646 0.84056 0.22497 0.0
C243 C 0.44743 0.80563 0.24128 0.0
C244 C 0.40386 0.67827 0.31993 0.0
C245 C 0.44499 0.67754 0.32633 0.0
C246 C 0.45727 0.65837 0.35738 0.0
C247 C 0.429 0.64036 0.38353 0.0
C248 C 0.3882 0.64244 0.37773 0.0
C249 C 0.37572 0.66045 0.34611 0.0
C250 C 0.3023 0.66808 0.21369 0.0
C251 C 0.27896 0.63368 0.22655 0.0
C252 C 0.13896 0.23881 0.70698 0.0
C253 C 0.09707 0.2251 0.69831 0.0
C254 C 0.07004 0.2454 0.71033 0.0
C255 C 0.08485 0.2794 0.72916 0.0
H256 H 0.1029 0.35008 0.84698 0.0
H257 H 0.08112 0.37917 0.90058 0.0
H258 H 0.13502 0.48731 0.85543 0.0
H259 H 0.15797 0.45857 0.80257 0.0
H260 H 0.25342 0.45233 0.76005 0.0
H261 H 0.31344 0.48347 0.72523 0.0
H262 H 0.27275 0.40678 0.63484 0.0
H263 H 0.21348 0.37532 0.66925 0.0
H264 H 0.18638 0.2834 0.72952 0.0
H265 H 0.16049 0.22379 0.69832 0.0
H266 H 0.03759 0.23553 0.70406 0.0
H267 H 0.06353 0.29514 0.73663 0.0
N268 N 0.12976 0.34845 0.77738 0.0
N269 N 0.1793 0.40468 0.76846 0.0
N270 N 0.17618 0.35395 0.72987 0.0
C271 C 0.14731 0.38442 0.78778 0.0
C272 C 0.19377 0.38962 0.73933 0.0
C273 C 0.1444 0.33309 0.74835 0.0
C274 C 0.13235 0.40179 0.82014 0.0
C275 C 0.11013 0.38006 0.84835 0.0
C276 C 0.0977 0.39673 0.8792 0.0
C277 C 0.10634 0.43565 0.88243 0.0
C278 C 0.128 0.45734 0.85399 0.0
C279 C 0.14113 0.44072 0.8236 0.0
C280 C 0.22863 0.41107 0.71769 0.0
C281 C 0.25703 0.44233 0.73262 0.0
C282 C 0.29137 0.46014 0.71278 0.0
C283 C 0.29757 0.44741 0.67742 0.0
C284 C 0.2686 0.41709 0.662 0.0
C285 C 0.23474 0.39905 0.68191 0.0
C286 C 0.12703 0.29407 0.73573 0.0
C287 C 0.15371 0.27294 0.72497 0.0
Tb288 Tb 0.98367 1.03705 0.57064 0.0
Tb289 Tb 0.06649 0.04932 0.54766 0.0
C290 C 0.91072 1.01419 0.58854 0.0
C291 C 0.88175 0.98026 0.60041 0.0
C292 C 0.84005 0.97905 0.59786 0.0
C293 C 0.812 0.94964 0.61386 0.0
C294 C 0.82544 0.92112 0.63253 0.0
C295 C 0.86691 0.92109 0.63313 0.0
C296 C 0.89501 0.95062 0.61715 0.0
C297 C 0.0336 0.09765 0.60094 0.0
C298 C 0.04137 0.98976 0.60772 0.0
C299 C 0.13992 0.07277 0.53101 0.0
C300 C 0.1682 0.10693 0.51769 0.0
C301 C 0.18544 0.13671 0.54178 0.0
C302 C 0.21305 0.16832 0.52866 0.0
C303 C 0.22483 0.16997 0.49165 0.0
C304 C 0.20809 0.14012 0.46778 0.0
C305 C 0.18004 0.10892 0.48066 0.0
C306 C 0.016 0.98889 0.51682 0.0
C307 C 1.00899 0.09599 0.50925 0.0
O308 O 0.92199 1.01544 0.5542 0.0
O309 O 0.9411 1.02794 0.61213 0.0
O310 O 0.04178 0.06671 0.59615 0.0
O311 O 0.9959 0.09418 0.59039 0.0
O312 O 1.00368 0.98985 0.59636 0.0
O313 O 0.07213 1.01619 0.59687 0.0
O314 O 0.12742 0.07268 0.56484 0.0
O315 O 0.11064 0.05633 0.50751 0.0
O316 O 1.00822 1.01991 0.52207 0.0
O317 O 0.05371 0.99217 0.5272 0.0
O318 O 0.04692 0.09539 0.51926 0.0
O319 O 0.97779 0.07158 0.52258 0.0
H320 H 0.82938 1.00173 0.585 0.0
H321 H 0.78013 0.9501 0.61339 0.0
H322 H 0.87769 0.89931 0.64767 0.0
H323 H 0.92711 0.95107 0.61922 0.0
H324 H 0.1779 0.13554 0.57079 0.0
H325 H 0.22567 0.19118 0.5474 0.0
H326 H 0.21687 0.14099 0.4391 0.0
H327 H 0.1679 0.08614 0.46168 0.0
Tb328 Tb 0.55413 0.04989 0.07026 0.0
Tb329 Tb 0.46372 1.0272 1.05909 0.0
C330 C 0.62811 0.08386 0.07425 0.0
C331 C 0.65382 0.12011 0.08562 0.0
C332 C 0.64181 0.15328 0.07861 0.0
C333 C 0.66606 0.18686 0.09258 0.0
C334 C 0.70191 0.18722 0.11417 0.0
C335 C 0.71433 0.15427 0.12001 0.0
C336 C 0.69053 0.12099 0.10573 0.0
C337 C 0.51966 0.98782 0.10651 0.0
C338 C 0.49847 0.08834 0.11662 0.0
C339 C 0.38999 0.99216 1.05609 0.0
C340 C 0.36508 0.9576 1.03937 0.0
C341 C 0.37245 0.9228 1.04866 0.0
C342 C 0.34833 0.89054 1.03211 0.0
C343 C 0.31685 0.89283 1.00599 0.0
C344 C 0.30913 0.92736 0.99714 0.0
C345 C 0.33295 0.95949 1.01382 0.0
C346 C 0.49934 0.08927 1.02296 0.0
C347 C 0.51791 0.98655 1.01318 0.0
O348 O 0.60466 0.08265 1.0439 0.0
O349 O 0.60965 0.06325 0.10124 0.0
O350 O 0.50568 1.01625 0.10143 0.0
O351 O 0.55617 0.99592 0.09445 0.0
O352 O 0.53372 0.09233 0.10062 0.0
O353 O 0.46788 0.05949 0.10922 0.0
O354 O 0.41594 0.98876 0.08335 0.0
O355 O 0.40539 1.01893 1.03287 0.0
O356 O 0.51246 0.0603 1.02736 0.0
O357 O 0.46363 0.08263 1.03678 0.0
O358 O 0.48121 0.98771 1.02304 0.0
O359 O 0.55123 1.01065 1.02584 0.0
H360 H 0.61341 0.15309 0.06323 0.0
H361 H 0.65611 0.21217 0.08797 0.0
H362 H 0.74192 0.15417 0.13662 0.0
H363 H 0.70021 0.09568 0.11134 0.0
H364 H 0.39693 0.92046 0.06843 0.0
H365 H 0.35464 0.86399 1.03905 0.0
H366 H 0.28489 0.92944 0.97696 0.0
H367 H 0.32652 0.98593 1.0065 0.0
Tb368 Tb 0.51987 0.58112 0.58508 0.0
Tb369 Tb 0.51724 0.50641 0.54617 0.0
C370 C 0.50015 0.64122 0.59131 0.0
C371 C 0.4683 0.65264 0.61087 0.0
C372 C 0.45242 0.68139 0.59561 0.0
C373 C 0.41771 0.68885 0.60985 0.0
C374 C 0.39854 0.66772 0.63962 0.0
C375 C 0.415 0.63957 0.65562 0.0
C376 C 0.44956 0.63187 0.64113 0.0
C377 C 0.54138 0.53333 0.63395 0.0
C378 C 0.44412 0.51049 0.59567 0.0
C379 C 0.53631 0.44823 0.52863 0.0
C380 C 0.57375 0.43961 0.51654 0.0
C381 C 0.58383 0.4071 0.52963 0.0
C382 C 0.61921 0.39833 0.51846 0.0
C383 C 0.64489 0.42198 0.49403 0.0
C384 C 0.63528 0.45485 0.48143 0.0
C385 C 0.59996 0.46368 0.49269 0.0
C386 C 0.48205 0.55301 0.50748 0.0
C387 C 0.59717 0.57571 0.5413 0.0
O388 O 0.48574 0.61737 0.56466 0.0
O389 O 0.52993 0.63264 0.61167 0.0
O390 O 0.53166 0.52965 0.5995 0.0
O391 O 0.53976 0.56686 0.64215 0.0
O392 O 0.45951 0.54686 0.59872 0.0
O393 O 0.46209 0.48869 0.57746 0.0
O394 O 0.53782 0.45966 0.56303 0.0
O395 O 0.51842 0.46739 0.50528 0.0
O396 O 0.51375 0.56072 0.52912 0.0
O397 O 0.47076 0.51691 0.50556 0.0
O398 O 0.57752 0.54125 0.5317 0.0
O399 O 0.58115 0.59591 0.56349 0.0
H400 H 0.46603 0.69718 0.57179 0.0
H401 H 0.40531 0.71064 0.59723 0.0
H402 H 0.40041 0.62297 0.67855 0.0
H403 H 0.46085 0.609 0.65271 0.0
H404 H 0.56417 0.38839 0.5483 0.0
H405 H 0.62626 0.37284 0.52836 0.0
H406 H 0.65486 0.47339 0.46259 0.0
H407 H 0.59307 0.48917 0.48258 0.0
Tb408 Tb 0.01652 0.5704 1.04078 0.0
Tb409 Tb 0.01301 0.50272 0.08837 0.0
C410 C 0.9966 0.62133 1.00266 0.0
C411 C 0.96149 0.6379 1.00164 0.0
C412 C 0.93061 0.62632 1.02703 0.0
C413 C 0.89493 0.63871 1.02335 0.0
C414 C 0.88936 0.66227 0.99364 0.0
C415 C 0.92072 0.6747 0.96881 0.0
C416 C 0.95662 0.66259 0.97282 0.0
C417 C 0.08593 0.56984 0.07825 0.0
C418 C 0.98083 0.56604 0.12326 0.0
C419 C 0.03396 0.4528 0.12706 0.0
C420 C 0.07033 0.4378 0.13011 0.0
C421 C 0.0952 0.43872 0.09974 0.0
C422 C 0.13215 0.42838 0.10455 0.0
C423 C 0.14455 0.41696 0.13975 0.0
C424 C 0.11921 0.41508 0.16981 0.0
C425 C 0.08241 0.42553 0.16503 0.0
C426 C 0.943 0.50296 1.05058 0.0
C427 C 0.05154 0.50843 1.00739 0.0
O428 O 0.98783 0.58664 0.99267 0.0
O429 O 0.02108 0.62741 1.03246 0.0
O430 O 0.05021 0.55794 0.08908 0.0
O431 O 0.08335 0.58579 1.04602 0.0
O432 O 0.98373 0.5817 0.08957 0.0
O433 O 0.99198 0.53479 0.13005 0.0
O434 O 0.04021 0.4872 0.13771 0.0
O435 O 1.011 0.44617 0.09629 0.0
O436 O 0.97892 0.51517 1.04025 0.0
O437 O 0.94611 0.48626 0.08238 0.0
O438 O 0.04872 0.49309 1.04115 0.0
O439 O 0.03868 0.5386 0.9996 0.0
H440 H 0.9335 0.60671 1.04885 0.0
H441 H 0.87104 0.62884 1.04274 0.0
H442 H 0.91689 0.69296 0.94575 0.0
H443 H 0.97997 0.67153 0.95274 0.0
H444 H 0.08663 0.44814 0.07255 0.0
H445 H 0.15136 0.42989 0.08106 0.0
H446 H 0.12837 0.40623 0.19713 0.0
H447 H 0.06383 0.4249 0.18884 0.0
C448 C 0.3242 0.2382 0.46747 0.0
C449 C 0.31065 0.25322 0.43403 0.0
C450 C 0.23995 0.22399 0.44816 0.0
C451 C 0.25409 0.20294 0.47675 0.0
N452 N 0.31018 0.1883 0.51298 0.0
N453 N 0.25508 0.25676 0.38996 0.0
C454 C 0.29635 0.20998 0.48678 0.0
C455 C 0.26829 0.24575 0.42391 0.0
N456 N 0.36372 0.25083 0.48049 0.0
N457 N 0.19932 0.22272 0.44397 0.0
H458 H 0.27452 0.2716 0.37038 0.0
H459 H 0.22493 0.24822 0.37974 0.0
H460 H 0.17789 0.20703 0.46159 0.0
H461 H 0.18768 0.24008 0.42571 0.0
H462 H 0.37457 0.2433 0.5064 0.0
H463 H 0.38458 0.2717 0.46686 0.0
H464 H 0.34097 0.18942 0.51822 0.0
H465 H 0.29083 0.16729 0.52772 0.0
C466 C 0.27738 0.82851 0.9259 0.0
C467 C 0.23817 0.81005 0.93807 0.0
C468 C 0.2539 0.84076 0.99858 0.0
C469 C 0.29267 0.85962 0.98603 0.0
N470 N 0.3458 0.86433 0.94277 0.0
N471 N 0.19231 0.79153 0.98784 0.0
C472 C 0.30596 0.85085 0.9514 0.0
C473 C 0.22754 0.81381 0.97519 0.0
N474 N 0.28637 0.82689 0.88933 0.0
N475 N 0.24187 0.84975 1.03219 0.0
H476 H 0.17262 0.7716 0.97107 0.0
H477 H 0.18424 0.79056 1.01549 0.0
H478 H 0.26127 0.86817 1.05059 0.0
H479 H 0.21234 0.84032 1.04121 0.0
H480 H 0.31241 0.84347 0.87792 0.0
H481 H 0.26647 0.81104 0.8694 0.0
H482 H 0.35838 0.85581 0.91965 0.0
H483 H 0.36735 0.88148 0.96059 0.0
C484 C 0.54403 0.48092 0.72698 0.0
C485 C 0.57241 0.45949 0.72078 0.0
C486 C 0.57917 0.48452 0.6564 0.0
C487 C 0.54953 0.50486 0.66209 0.0
N488 N 0.49665 0.51483 0.70025 0.0
N489 N 0.61092 0.43526 0.67738 0.0
C490 C 0.52997 0.50084 0.69671 0.0
C491 C 0.58798 0.45952 0.68472 0.0
N492 N 0.53146 0.48334 0.76223 0.0
N493 N 0.60082 0.49075 0.6249 0.0
H494 H 0.61828 0.41703 0.69747 0.0
H495 H 0.61964 0.43094 0.65077 0.0
H496 H 0.59535 0.50884 0.60396 0.0
H497 H 0.62603 0.48027 0.62074 0.0
H498 H 0.51489 0.50202 0.7696 0.0
H499 H 0.5402 0.46863 0.7849 0.0
H500 H 0.4784 0.50954 0.72319 0.0
H501 H 0.48428 0.52815 0.67847 0.0
C502 C 0.98426 0.61683 0.21697 0.0
C503 C 0.94471 0.62364 0.2165 0.0
C504 C 0.9294 0.59472 0.15406 0.0
C505 C 0.96816 0.58603 0.15531 0.0
N506 N 0.03274 0.58866 0.18827 0.0
N507 N 0.8786 0.6175 0.18584 0.0
C508 C 0.99558 0.59706 0.18693 0.0
C509 C 0.91711 0.61222 0.18527 0.0
N510 N 1.01135 0.62993 0.24607 0.0
N511 N 0.90429 0.58644 0.12278 0.0
H512 H 0.86933 0.63213 0.20682 0.0
H513 H 0.855 0.60606 0.16668 0.0
H514 H 0.9106 0.57129 0.1008 0.0
H515 H 0.87814 0.59592 0.11748 0.0
H516 H 0.04213 0.63022 0.24676 0.0
H517 H 1.00357 0.64248 0.26938 0.0
H518 H 0.05227 0.59128 0.21187 0.0
H519 H 0.04414 0.57781 0.16582 0.0
C520 C 0.44839 0.1571 0.16201 0.0
C521 C 0.48261 0.18085 0.18036 0.0
C522 C 0.52433 0.1386 0.16464 0.0
C523 C 0.49198 0.11872 0.14046 0.0
N524 N 0.42505 0.1162 0.11047 0.0
N525 N 0.55477 0.1967 0.19607 0.0
C526 C 0.45433 0.12962 0.13775 0.0
C527 C 0.52113 0.17233 0.18086 0.0
N528 N 0.40989 0.16034 0.16806 0.0
N529 N 0.55723 0.1245 0.17359 0.0
H530 H 0.55343 0.22154 0.20831 0.0
H531 H 0.58429 0.19368 0.19377 0.0
H532 H 0.5593 0.09856 0.1647 0.0
H533 H 0.58004 0.13642 0.19336 0.0
H534 H 0.38372 0.14104 0.15833 0.0
H535 H 0.40399 0.17982 0.18608 0.0
H536 H 0.39953 0.12682 0.10544 0.0
H537 H 0.42785 0.09801 0.08988 0.0
C538 C 0.09271 0.91615 0.64876 0.0
C539 C 0.06284 0.8966 0.67288 0.0
C540 C 0.02313 0.94265 0.65991 0.0
C541 C 0.04944 0.95829 0.63092 0.0
N542 N 0.10502 0.9526 0.59277 0.0
N543 N 0.9963 0.88815 0.69767 0.0
C544 C 0.08318 0.94318 0.62399 0.0
C545 C 0.027 0.90892 0.67738 0.0
N546 N 0.13076 0.90966 0.65002 0.0
N547 N 0.996 0.9609 0.67231 0.0
H548 H 0.99809 0.86328 0.71076 0.0
H549 H 0.96781 0.89394 0.69862 0.0
H550 H 0.99432 0.98703 0.66244 0.0
H551 H 0.97858 0.95214 0.69541 0.0
H552 H 0.15487 0.92605 0.63568 0.0
H553 H 0.13954 0.89072 0.66844 0.0
H554 H 0.12679 0.93904 0.58504 0.0
H555 H 0.09867 0.97058 0.57223 0.0
C556 C 0.82864 0.4765 1.01993 0.0
C557 C 0.83023 0.46365 0.98326 0.0
C558 C 0.9046 0.48829 0.98664 0.0
C559 C 0.9042 0.49473 1.02578 0.0
N560 N 0.8637 0.49531 0.07944 0.0
N561 N 0.8707 0.45206 0.93373 0.0
C562 C 0.86552 0.48899 1.04228 0.0
C563 C 0.86846 0.46816 0.9672 0.0
N564 N 0.79184 0.47781 1.03306 0.0
N565 N 0.93854 0.50239 0.96708 0.0
H566 H 0.84511 0.43714 0.91841 0.0
H567 H 0.89823 0.4505 0.92297 0.0
H568 H 0.96496 0.51953 0.97844 0.0
H569 H 0.93867 0.50118 0.93811 0.0
H570 H 0.78875 0.4907 1.05784 0.0
H571 H 0.76442 0.46897 1.01746 0.0
H572 H 0.83719 0.48649 0.09406 0.0
H573 H 0.88892 0.5082 0.09626 0.0
C574 C 0.70303 0.58448 0.50115 0.0
C575 C 0.70684 0.61695 0.47888 0.0
C576 C 0.64518 0.62762 0.50533 0.0
C577 C 0.63771 0.59239 0.52398 0.0
N578 N 0.6612 0.53743 0.53975 0.0
N579 N 0.67689 0.665 0.45376 0.0
C580 C 0.6671 0.57081 0.52167 0.0
C581 C 0.67649 0.63709 0.47922 0.0
N582 N 0.73453 0.56747 0.50385 0.0
N583 N 0.62406 0.6532 0.51319 0.0
H584 H 0.69917 0.67274 0.4341 0.0
H585 H 0.65286 0.67772 0.44955 0.0
H586 H 0.6028 0.64996 0.5335 0.0
H587 H 0.63157 0.68028 0.50286 0.0
H588 H 0.73612 0.54625 0.52275 0.0
H589 H 0.76077 0.57629 0.48878 0.0
H590 H 0.67764 0.51793 0.53491 0.0
H591 H 0.63908 0.52876 0.55921 0.0
C592 C 0.25829 0.42657 0.15966 0.0
C593 C 0.25821 0.38912 0.16782 0.0
C594 C 0.18562 0.36975 0.14849 0.0
C595 C 0.18448 0.40751 0.14579 0.0
N596 N 0.21859 0.4724 0.15147 0.0
N597 N 0.22111 0.32499 0.17367 0.0
C598 C 0.22061 0.43615 0.15171 0.0
C599 C 0.22179 0.36056 0.1628 0.0
N600 N 0.29451 0.45283 0.15922 0.0
N601 N 0.15215 0.34272 0.13713 0.0
H602 H 0.24685 0.3169 0.1842 0.0
H603 H 0.19443 0.30395 0.1749 0.0
H604 H 0.12506 0.34858 0.12679 0.0
H605 H 0.15236 0.31493 0.13477 0.0
H606 H 0.29708 0.47999 0.15004 0.0
H607 H 0.32256 0.44651 0.16488 0.0
H608 H 0.24295 0.49427 0.15974 0.0
H609 H 0.1916 0.4805 0.14554 0.0
C610 C 0.55397 0.1536 0.94526 0.0
C611 C 0.55135 0.18896 0.95751 0.0
C612 C 0.51776 0.15951 1.01355 0.0
C613 C 0.51773 0.12358 1.00024 0.0
N614 N 0.52643 0.08694 0.94797 0.0
N615 N 0.52385 0.22476 0.9998 0.0
C616 C 0.53349 0.12075 0.96464 0.0
C617 C 0.53111 0.19157 0.99058 0.0
N618 N 0.57649 0.15134 0.91529 0.0
N619 N 0.50666 0.1635 1.04894 0.0
H620 H 0.53369 0.24897 0.98416 0.0
H621 H 0.50498 0.22764 1.02097 0.0
H622 H 0.49603 0.14121 0.06653 0.0
H623 H 0.51122 0.18901 1.06204 0.0
H624 H 0.58355 0.1269 0.90758 0.0
H625 H 0.59068 0.17455 0.89979 0.0
H626 H 0.53375 0.08349 0.92066 0.0
H627 H 0.50903 0.06273 0.95976 0.0
C628 C 0.98999 0.92696 0.4296 0.0
C629 C 0.95786 0.89789 0.44262 0.0
C630 C 0.95529 0.93606 0.49746 0.0
C631 C 0.99348 0.96014 0.48916 0.0
N632 N 0.04579 0.98018 0.44453 0.0
N633 N 0.89483 0.89222 0.47291 0.0
C634 C 1.01052 0.95598 0.45445 0.0
C635 C 0.93578 0.90753 0.47196 0.0
N636 N 0.99505 0.93148 0.39225 0.0
N637 N 0.93836 0.93894 0.53055 0.0
H638 H 0.87897 0.87469 0.45185 0.0
H639 H 0.87618 0.9006 0.49141 0.0
H640 H 0.95147 0.95937 0.54983 0.0
H641 H 0.91305 0.91937 0.53986 0.0
H642 H 0.01642 0.95337 0.38067 0.0
H643 H 0.97222 0.9182 0.37306 0.0
H644 H 0.06209 0.97555 0.422 0.0
H645 H 0.05944 1.0041 0.45952 0.0
C646 C 0.28574 0.66174 0.65075 0.0
C647 C 0.28835 0.68951 0.67788 0.0
C648 C 0.36317 0.70384 0.67901 0.0
C649 C 0.36055 0.6747 0.65341 0.0
N650 N 0.32042 0.6235 0.61712 0.0
N651 N 0.32844 0.73478 0.72087 0.0
C652 C 0.32208 0.65292 0.6399 0.0
C653 C 0.32681 0.70998 0.69284 0.0
N654 N 0.24849 0.64442 0.63487 0.0
N655 N 0.40051 0.7261 0.68947 0.0
H656 H 0.30264 0.74142 0.73056 0.0
H657 H 0.355 0.74732 0.73619 0.0
H658 H 0.42792 0.72135 0.6814 0.0
H659 H 0.40458 0.75055 0.70435 0.0
H660 H 0.24445 0.62678 0.61214 0.0
H661 H 0.22124 0.64946 0.64303 0.0
H662 H 0.29364 0.60405 0.60935 0.0
H663 H 0.34634 0.61705 0.60746 0.0
C664 C 0.77122 0.87495 0.71737 0.0
C665 C 0.73847 0.84821 0.70012 0.0
C666 C 0.76694 0.86499 0.63893 0.0
C667 C 0.79686 0.89449 0.65583 0.0
N668 N 0.82404 0.93138 0.71019 0.0
N669 N 0.7027 0.81885 0.6448 0.0
C670 C 0.79824 0.90041 0.69484 0.0
C671 C 0.7357 0.84336 0.66093 0.0
N672 N 0.77696 0.87558 0.75538 0.0
N673 N 0.76897 0.85738 0.60209 0.0
H674 H 0.67987 0.80208 0.66033 0.0
H675 H 0.69653 0.81672 0.61613 0.0
H676 H 0.79144 0.8729 0.58534 0.0
H677 H 0.75051 0.83417 0.58882 0.0
H678 H 0.80296 0.89152 0.76926 0.0
H679 H 0.75755 0.85775 0.77313 0.0
H680 H 0.82278 0.93947 0.73761 0.0
H681 H 0.84457 0.95089 0.69485 0.0
C682 C 0.79093 0.26678 0.14354 0.0
C683 C 0.78246 0.26852 0.1816 0.0
C684 C 0.71427 0.22783 0.16988 0.0
C685 C 0.72555 0.22095 0.13377 0.0
N686 N 0.77287 0.23432 0.08464 0.0
N687 N 0.73698 0.24995 0.23212 0.0
C688 C 0.76319 0.24107 0.11989 0.0
C689 C 0.74402 0.24948 0.19494 0.0
N690 N 0.82551 0.28965 0.13034 0.0
N691 N 0.67532 0.21299 0.18039 0.0
H692 H 0.7576 0.26571 0.25161 0.0
H693 H 0.71182 0.23279 0.24434 0.0
H694 H 0.65307 0.19597 0.16312 0.0
H695 H 0.66394 0.22012 0.20484 0.0
H696 H 0.8322 0.29205 0.10229 0.0
H697 H 0.8462 0.30857 0.14736 0.0
H698 H 0.80153 0.24466 0.07403 0.0
H699 H 0.75217 0.21703 0.06622 0.0
C700 C 0.42166 0.58171 0.42372 0.0
C701 C 0.44187 0.61934 0.41682 0.0
C702 C 0.48938 0.61578 0.47063 0.0
C703 C 0.46692 0.57875 0.47938 0.0
N704 N 0.40111 0.53494 0.47121 0.0
N705 N 0.48717 0.67491 0.44189 0.0
C706 C 0.42985 0.5643 0.45804 0.0
C707 C 0.47344 0.63715 0.44267 0.0
N708 N 0.39554 0.56179 0.3971 0.0
N709 N 0.52633 0.63105 0.48784 0.0
H710 H 0.4753 0.69169 0.42308 0.0
H711 H 0.50689 0.68978 0.46256 0.0
H712 H 0.53874 0.61917 0.51026 0.0
H713 H 0.54587 0.65532 0.47825 0.0
H714 H 0.38292 0.53335 0.39972 0.0
H715 H 0.3902 0.57263 0.37085 0.0
H716 H 0.37251 0.52526 0.4578 0.0
H717 H 0.40336 0.52395 0.49794 0.0
C718 C 0.05029 0.4478 0.92178 0.0
C719 C 0.09255 0.45377 0.91527 0.0
C720 C 0.10807 0.49781 0.96799 0.0
C721 C 0.06624 0.48908 0.97639 0.0
N722 N 0.99892 0.44914 0.9661 0.0
N723 N 0.16212 0.47891 0.93768 0.0
C724 C 0.03781 0.46203 0.95474 0.0
C725 C 0.12159 0.47731 0.93993 0.0
N726 N 0.0218 0.43002 0.89565 0.0
N727 N 0.1349 0.52611 0.98639 0.0
H728 H 0.17312 0.46357 0.91848 0.0
H729 H 0.18438 0.49251 0.95713 0.0
H730 H 0.12613 0.54126 1.00722 0.0
H731 H 0.16494 0.53648 0.97896 0.0
H732 H 0.99075 0.42834 0.897 0.0
H733 H 0.02943 0.42025 0.87066 0.0
H734 H 0.97791 0.42688 0.95358 0.0
H735 H 0.9889 0.45828 0.99034 0.0
C736 C 0.56637 0.93777 0.94345 0.0
C737 C 0.54317 0.9006 0.94644 0.0
C738 C 0.50005 0.91929 0.99132 0.0
C739 C 0.52254 0.95704 0.98734 0.0
N740 N 0.56718 1.00241 0.94939 0.0
N741 N 0.48162 0.85756 0.96473 0.0
C742 C 0.55265 0.96634 0.96022 0.0
C743 C 0.50783 0.89193 0.96754 0.0
N744 N 0.6024 0.94581 0.92583 0.0
N745 N 0.47337 0.90868 1.01916 0.0
H746 H 0.48677 0.83685 0.94783 0.0
H747 H 0.45301 0.85088 0.97613 0.0
H748 H 0.46767 0.92653 1.03892 0.0
H749 H 0.45992 0.88104 1.02542 0.0
H750 H 0.62268 0.97193 0.92664 0.0
H751 H 0.61378 0.92577 0.91312 0.0
H752 H 0.58631 1.01026 0.92725 0.0
H753 H 0.5563 1.024 0.95946 0.0
C754 C 1.00721 0.19131 0.469 0.0
C755 C 0.97655 0.18123 0.44019 0.0
C756 C 0.97529 0.11568 0.45118 0.0
C757 C 1.00065 0.1256 0.48391 0.0
N758 N 0.03405 0.17311 0.52781 0.0
N759 N 0.92758 0.13331 0.40624 0.0
C760 C 0.01531 0.16353 0.49367 0.0
C761 C 0.95972 0.14325 0.43162 0.0
N762 N 0.02854 0.22746 0.47284 0.0
N763 N 0.9667 0.08011 0.4384 0.0
H764 H 0.91504 0.15255 0.39148 0.0
H765 H 0.91122 0.10594 0.40203 0.0
H766 H 0.97825 0.05941 0.45166 0.0
H767 H 0.95158 0.07208 0.41277 0.0
H768 H 0.05385 0.23578 0.49123 0.0
H769 H 0.02352 0.24852 0.45496 0.0
H770 H 0.04188 0.20018 0.53778 0.0
H771 H 0.03723 0.15342 0.54783 0.0
C772 C 0.1906 0.58075 0.12824 0.0
C773 C 0.19192 0.61116 0.15202 0.0
C774 C 0.12392 0.61447 0.12735 0.0
C775 C 0.12171 0.58303 0.10476 0.0
N776 N 0.14937 0.5321 0.0885 0.0
N777 N 0.15646 0.6513 0.18054 0.0
C778 C 0.154 0.56485 0.10674 0.0
C779 C 0.15745 0.62622 0.1535 0.0
N780 N 0.22479 0.56797 0.12521 0.0
N781 N 0.09483 0.63415 0.12281 0.0
H782 H 0.18045 0.6605 0.20017 0.0
H783 H 0.13049 0.66024 0.18578 0.0
H784 H 0.06953 0.62653 0.1043 0.0
H785 H 0.09729 0.65966 0.13532 0.0
H786 H 0.22743 0.54876 0.1054 0.0
H787 H 0.25174 0.57839 0.14103 0.0
H788 H 0.17005 0.51559 0.0913 0.0
H789 H 0.12301 0.51986 0.07266 0.0
C790 C 0.3374 0.49577 0.63379 0.0
C791 C 0.33545 0.46417 0.65712 0.0
C792 C 0.40524 0.46365 0.64147 0.0
C793 C 0.40603 0.49342 0.61567 0.0
N794 N 0.36986 0.53346 0.58255 0.0
N795 N 0.36513 0.41484 0.67964 0.0
C796 C 0.37132 0.50843 0.61069 0.0
C797 C 0.36865 0.44715 0.65979 0.0
N798 N 0.30691 0.51389 0.63393 0.0
N799 N 0.44004 0.45234 0.65026 0.0
H800 H 0.34 0.40298 0.69529 0.0
H801 H 0.38582 0.39838 0.67859 0.0
H802 H 0.46774 0.4636 0.63823 0.0
H803 H 0.44271 0.4342 0.67217 0.0
H804 H 0.30861 0.53946 0.62098 0.0
H805 H 0.28104 0.5047 0.64943 0.0
H806 H 0.34399 0.54275 0.575 0.0
H807 H 0.39327 0.5424 0.56421 0.0
C808 C 0.81421 0.722 0.97735 0.0
C809 C 0.77872 0.69511 0.96475 0.0
C810 C 0.81484 0.64596 0.97369 0.0
C811 C 0.85001 0.6727 0.98717 0.0
N812 N 0.87999 0.73396 1.01098 0.0
N813 N 0.74178 0.63107 0.96009 0.0
C814 C 0.84859 0.71005 0.99204 0.0
C815 C 0.77793 0.65687 0.96608 0.0
N816 N 0.81603 0.75897 0.97332 0.0
N817 N 0.81721 0.61071 0.96607 0.0
H818 H 0.71422 0.63839 0.95464 0.0
H819 H 0.73847 0.6027 0.96411 0.0
H820 H 0.84376 0.60157 0.9707 0.0
H821 H 0.79382 0.59134 0.95228 0.0
H822 H 0.84274 0.77968 0.97787 0.0
H823 H 0.79161 0.76905 0.96274 0.0
H824 H 0.87893 0.76054 1.01863 0.0
H825 H 0.90555 0.72594 1.02219 0.0
C826 C 0.49953 0.88703 0.14341 0.0
C827 C 0.47004 0.88614 0.17022 0.0
C828 C 0.47632 0.95299 0.15908 0.0
C829 C 0.50167 0.95282 0.1285 0.0
N830 N 0.53134 0.91595 0.0881 0.0
N831 N 0.42561 0.91709 0.19978 0.0
C832 C 0.51175 0.91884 0.11986 0.0
C833 C 0.45694 0.91876 0.17681 0.0
N834 N 0.51643 0.85747 0.14066 0.0
N835 N 0.47285 0.98581 0.17324 0.0
H836 H 0.41166 0.89299 0.21411 0.0
H837 H 0.41144 0.93874 0.20225 0.0
H838 H 0.48916 1.01158 0.16388 0.0
H839 H 0.45781 0.98753 0.19749 0.0
H840 H 0.5416 0.8581 0.12493 0.0
H841 H 0.50785 0.8335 0.15691 0.0
H842 H 0.53517 0.89089 0.07842 0.0
H843 H 0.53957 0.93727 0.06874 0.0
C844 C 0.05697 0.15783 0.68915 0.0
C845 C 0.08234 0.19091 0.67453 0.0
C846 C 0.08517 0.15778 0.61629 0.0
C847 C 0.05504 0.12678 0.62857 0.0
N848 N 1.01102 0.09734 0.6768 0.0
N849 N 0.11463 0.2239 0.62112 0.0
C850 C 0.04065 0.12683 0.66513 0.0
C851 C 0.09503 0.1912 0.63731 0.0
N852 N 0.04962 0.15553 0.72631 0.0
N853 N 0.10473 0.15526 0.58455 0.0
H854 H 0.12112 0.24926 0.63484 0.0
H855 H 0.12063 0.22651 0.59289 0.0
H856 H 0.0984 0.13108 0.56889 0.0
H857 H 0.12938 0.17582 0.57568 0.0
H858 H 0.03491 0.1311 0.73958 0.0
H859 H 0.06135 0.17737 0.74466 0.0
H860 H 0.9954 0.09745 0.70103 0.0
H861 H 1.00076 0.07314 0.66127 0.0
C862 C 0.70884 0.3712 0.44121 0.0
C863 C 0.74879 0.39204 0.4516 0.0
C864 C 0.72071 0.42963 0.49344 0.0
C865 C 0.6808 0.41134 0.48 0.0
N866 N 0.6367 0.36877 0.43692 0.0
N867 N 0.79345 0.44352 0.48418 0.0
C868 C 0.67478 0.38313 0.4528 0.0
C869 C 0.75498 0.42193 0.47687 0.0
N870 N 0.70346 0.33949 0.4209 0.0
N871 N 0.72574 0.45354 0.5227 0.0
H872 H 0.81926 0.43811 0.47312 0.0
H873 H 0.79958 0.46818 0.49903 0.0
H874 H 0.70125 0.45955 0.5356 0.0
H875 H 0.75382 0.46504 0.53621 0.0
H876 H 0.67521 0.32093 0.41603 0.0
H877 H 0.72766 0.3299 0.41163 0.0
H878 H 0.63116 0.35126 0.41397 0.0
H879 H 0.61085 0.37678 0.44455 0.0
loop_
_geom_bond_atom_site_label_1
_geom_bond_atom_site_label_2
_geom_bond_distance
_geom_bond_site_symmetry_2
_ccdc_geom_bond_type
C0 C1 1.384 . S
C0 H13 0.947 . S
C0 C35 1.382 . S
C1 C0 1.384 . S
C1 C2 1.378 . S
C2 C1 1.378 . S
C2 C3 1.378 . S
C2 H14 0.952 . S
C3 C2 1.378 . S
C3 H15 0.950 . S
C3 C34 1.383 . S
H4 C23 0.947 . S
H5 C24 0.946 . S
H6 C26 0.953 . S
H7 C27 0.945 . S
H8 C29 0.952 . S
H9 C30 0.949 . S
H10 C32 0.950 . S
H11 C33 0.948 . S
H12 C35 0.951 . S
H13 C0 0.947 . S
H14 C2 0.952 . S
H15 C3 0.950 . S
N16 C19 1.382 . S
N16 C21 1.363 . S
N17 C19 1.371 . S
N17 C20 1.372 . S
N18 C20 1.361 . S
N18 C21 1.377 . S
C19 N16 1.382 . S
C19 N17 1.371 . S
C19 C22 1.480 . S
C20 N17 1.372 . S
C20 N18 1.361 . S
C20 C28 1.457 . S
C21 N16 1.363 . S
C21 N18 1.377 . S
C21 C34 1.479 . S
C22 C19 1.480 . S
C22 C23 1.383 . S
C22 C27 1.385 . S
C23 H4 0.947 . S
C23 C22 1.383 . S
C23 C24 1.388 . S
C24 H5 0.946 . S
C24 C23 1.388 . S
C24 C25 1.384 . S
C25 C24 1.384 . S
C25 C26 1.377 . S
C26 H6 0.953 . S
C26 C25 1.377 . S
C26 C27 1.369 . S
C27 H7 0.945 . S
C27 C22 1.385 . S
C27 C26 1.369 . S
C28 C20 1.457 . S
C28 C29 1.372 . S
C28 C33 1.364 . S
C29 H8 0.952 . S
C29 C28 1.372 . S
C29 C30 1.389 . S
C30 H9 0.949 . S
C30 C29 1.389 . S
C30 C31 1.387 . S
C31 C30 1.387 . S
C31 C32 1.372 . S
C32 H10 0.950 . S
C32 C31 1.372 . S
C32 C33 1.379 . S
C33 H11 0.948 . S
C33 C28 1.364 . S
C33 C32 1.379 . S
C34 C3 1.383 . S
C34 C21 1.479 . S
C34 C35 1.398 . S
C35 C0 1.382 . S
C35 H12 0.951 . S
C35 C34 1.398 . S
C36 C37 1.384 . S
C36 H49 0.947 . S
C36 C71 1.382 . S
C37 C36 1.384 . S
C37 C38 1.378 . S
C38 C37 1.378 . S
C38 C39 1.378 . S
C38 H50 0.952 . S
C39 C38 1.378 . S
C39 H51 0.950 . S
C39 C70 1.383 . S
H40 C59 0.947 . S
H41 C60 0.946 . S
H42 C62 0.953 . S
H43 C63 0.945 . S
H44 C65 0.952 . S
H45 C66 0.949 . S
H46 C68 0.950 . S
H47 C69 0.948 . S
H48 C71 0.951 . S
H49 C36 0.947 . S
H50 C38 0.952 . S
H51 C39 0.950 . S
N52 C55 1.382 . S
N52 C57 1.363 . S
N53 C55 1.371 . S
N53 C56 1.372 . S
N54 C56 1.361 . S
N54 C57 1.377 . S
C55 N52 1.382 . S
C55 N53 1.371 . S
C55 C58 1.480 . S
C56 N53 1.372 . S
C56 N54 1.361 . S
C56 C64 1.457 . S
C57 N52 1.363 . S
C57 N54 1.377 . S
C57 C70 1.479 . S
C58 C55 1.480 . S
C58 C59 1.383 . S
C58 C63 1.385 . S
C59 H40 0.947 . S
C59 C58 1.383 . S
C59 C60 1.388 . S
C60 H41 0.946 . S
C60 C59 1.388 . S
C60 C61 1.384 . S
C61 C60 1.384 . S
C61 C62 1.377 . S
C62 H42 0.953 . S
C62 C61 1.377 . S
C62 C63 1.369 . S
C63 H43 0.945 . S
C63 C58 1.385 . S
C63 C62 1.369 . S
C64 C56 1.457 . S
C64 C65 1.372 . S
C64 C69 1.364 . S
C65 H44 0.952 . S
C65 C64 1.372 . S
C65 C66 1.389 . S
C66 H45 0.949 . S
C66 C65 1.389 . S
C66 C67 1.387 . S
C67 C66 1.387 . S
C67 C68 1.372 . S
C68 H46 0.950 . S
C68 C67 1.372 . S
C68 C69 1.379 . S
C69 H47 0.948 . S
C69 C64 1.364 . S
C69 C68 1.379 . S
C70 C39 1.383 . S
C70 C57 1.479 . S
C70 C71 1.398 . S
C71 C36 1.382 . S
C71 H48 0.951 . S
C71 C70 1.398 . S
C72 C73 1.384 . S
C72 H85 0.947 . S
C72 C107 1.382 . S
C73 C72 1.384 . S
C73 C74 1.378 . S
C74 C73 1.378 . S
C74 C75 1.378 . S
C74 H86 0.952 . S
C75 C74 1.378 . S
C75 H87 0.950 . S
C75 C106 1.383 . S
H76 C95 0.947 . S
H77 C96 0.946 . S
H78 C98 0.953 . S
H79 C99 0.945 . S
H80 C101 0.952 . S
H81 C102 0.949 . S
H82 C104 0.950 . S
H83 C105 0.948 . S
H84 C107 0.951 . S
H85 C72 0.947 . S
H86 C74 0.952 . S
H87 C75 0.950 . S
N88 C91 1.382 . S
N88 C93 1.363 . S
N89 C91 1.371 . S
N89 C92 1.372 . S
N90 C92 1.361 . S
N90 C93 1.377 . S
C91 N88 1.382 . S
C91 N89 1.371 . S
C91 C94 1.480 . S
C92 N89 1.372 . S
C92 N90 1.361 . S
C92 C100 1.457 . S
C93 N88 1.363 . S
C93 N90 1.377 . S
C93 C106 1.479 . S
C94 C91 1.480 . S
C94 C95 1.383 . S
C94 C99 1.385 . S
C95 H76 0.947 . S
C95 C94 1.383 . S
C95 C96 1.388 . S
C96 H77 0.946 . S
C96 C95 1.388 . S
C96 C97 1.384 . S
C97 C96 1.384 . S
C97 C98 1.377 . S
C98 H78 0.953 . S
C98 C97 1.377 . S
C98 C99 1.369 . S
C99 H79 0.945 . S
C99 C94 1.385 . S
C99 C98 1.369 . S
C100 C92 1.457 . S
C100 C101 1.372 . S
C100 C105 1.364 . S
C101 H80 0.952 . S
C101 C100 1.372 . S
C101 C102 1.389 . S
C102 H81 0.949 . S
C102 C101 1.389 . S
C102 C103 1.387 . S
C103 C102 1.387 . S
C103 C104 1.372 . S
C104 H82 0.950 . S
C104 C103 1.372 . S
C104 C105 1.379 . S
C105 H83 0.948 . S
C105 C100 1.364 . S
C105 C104 1.379 . S
C106 C75 1.383 . S
C106 C93 1.479 . S
C106 C107 1.398 . S
C107 C72 1.382 . S
C107 H84 0.951 . S
C107 C106 1.398 . S
C108 C109 1.384 . S
C108 H121 0.947 . S
C108 C143 1.382 . S
C109 C108 1.384 . S
C109 C110 1.378 . S
C110 C109 1.378 . S
C110 C111 1.378 . S
C110 H122 0.952 . S
C111 C110 1.378 . S
C111 H123 0.950 . S
C111 C142 1.383 . S
H112 C131 0.947 . S
H113 C132 0.946 . S
H114 C134 0.953 . S
H115 C135 0.945 . S
H116 C137 0.952 . S
H117 C138 0.949 . S
H118 C140 0.950 . S
H119 C141 0.948 . S
H120 C143 0.951 . S
H121 C108 0.947 . S
H122 C110 0.952 . S
H123 C111 0.950 . S
N124 C127 1.382 . S
N124 C129 1.363 . S
N125 C127 1.371 . S
N125 C128 1.372 . S
N126 C128 1.361 . S
N126 C129 1.377 . S
C127 N124 1.382 . S
C127 N125 1.371 . S
C127 C130 1.480 . S
C128 N125 1.372 . S
C128 N126 1.361 . S
C128 C136 1.457 . S
C129 N124 1.363 . S
C129 N126 1.377 . S
C129 C142 1.479 . S
C130 C127 1.480 . S
C130 C131 1.383 . S
C130 C135 1.385 . S
C131 H112 0.947 . S
C131 C130 1.383 . S
C131 C132 1.388 . S
C132 H113 0.946 . S
C132 C131 1.388 . S
C132 C133 1.384 . S
C133 C132 1.384 . S
C133 C134 1.377 . S
C134 H114 0.953 . S
C134 C133 1.377 . S
C134 C135 1.369 . S
C135 H115 0.945 . S
C135 C130 1.385 . S
C135 C134 1.369 . S
C136 C128 1.457 . S
C136 C137 1.372 . S
C136 C141 1.364 . S
C137 H116 0.952 . S
C137 C136 1.372 . S
C137 C138 1.389 . S
C138 H117 0.949 . S
C138 C137 1.389 . S
C138 C139 1.387 . S
C139 C138 1.387 . S
C139 C140 1.372 . S
C140 H118 0.950 . S
C140 C139 1.372 . S
C140 C141 1.379 . S
C141 H119 0.948 . S
C141 C136 1.364 . S
C141 C140 1.379 . S
C142 C111 1.383 . S
C142 C129 1.479 . S
C142 C143 1.398 . S
C143 C108 1.382 . S
C143 H120 0.951 . S
C143 C142 1.398 . S
C144 C145 1.384 . S
C144 H157 0.947 . S
C144 C179 1.382 . S
C145 C144 1.384 . S
C145 C146 1.378 . S
C146 C145 1.378 . S
C146 C147 1.378 . S
C146 H158 0.952 . S
C147 C146 1.378 . S
C147 H159 0.950 . S
C147 C178 1.383 . S
H148 C167 0.947 . S
H149 C168 0.946 . S
H150 C170 0.953 . S
H151 C171 0.945 . S
H152 C173 0.952 . S
H153 C174 0.949 . S
H154 C176 0.950 . S
H155 C177 0.948 . S
H156 C179 0.951 . S
H157 C144 0.947 . S
H158 C146 0.952 . S
H159 C147 0.950 . S
N160 C163 1.382 . S
N160 C165 1.363 . S
N161 C163 1.371 . S
N161 C164 1.372 . S
N162 C164 1.361 . S
N162 C165 1.377 . S
C163 N160 1.382 . S
C163 N161 1.371 . S
C163 C166 1.480 . S
C164 N161 1.372 . S
C164 N162 1.361 . S
C164 C172 1.457 . S
C165 N160 1.363 . S
C165 N162 1.377 . S
C165 C178 1.479 . S
C166 C163 1.480 . S
C166 C167 1.383 . S
C166 C171 1.385 . S
C167 H148 0.947 . S
C167 C166 1.383 . S
C167 C168 1.388 . S
C168 H149 0.946 . S
C168 C167 1.388 . S
C168 C169 1.384 . S
C169 C168 1.384 . S
C169 C170 1.377 . S
C170 H150 0.953 . S
C170 C169 1.377 . S
C170 C171 1.369 . S
C171 H151 0.945 . S
C171 C166 1.385 . S
C171 C170 1.369 . S
C172 C164 1.457 . S
C172 C173 1.372 . S
C172 C177 1.364 . S
C173 H152 0.952 . S
C173 C172 1.372 . S
C173 C174 1.389 . S
C174 H153 0.949 . S
C174 C173 1.389 . S
C174 C175 1.387 . S
C175 C174 1.387 . S
C175 C176 1.372 . S
C176 H154 0.950 . S
C176 C175 1.372 . S
C176 C177 1.379 . S
C177 H155 0.948 . S
C177 C172 1.364 . S
C177 C176 1.379 . S
C178 C147 1.383 . S
C178 C165 1.479 . S
C178 C179 1.398 . S
C179 C144 1.382 . S
C179 H156 0.951 . S
C179 C178 1.398 . S
C180 C181 1.384 . S
C180 H193 0.947 . S
C180 C215 1.382 . S
C181 C180 1.384 . S
C181 C182 1.378 . S
C182 C181 1.378 . S
C182 C183 1.378 . S
C182 H194 0.952 . S
C183 C182 1.378 . S
C183 H195 0.950 . S
C183 C214 1.383 . S
H184 C203 0.947 . S
H185 C204 0.946 . S
H186 C206 0.953 . S
H187 C207 0.945 . S
H188 C209 0.952 . S
H189 C210 0.949 . S
H190 C212 0.950 . S
H191 C213 0.948 . S
H192 C215 0.951 . S
H193 C180 0.947 . S
H194 C182 0.952 . S
H195 C183 0.950 . S
N196 C199 1.382 . S
N196 C201 1.363 . S
N197 C199 1.371 . S
N197 C200 1.372 . S
N198 C200 1.361 . S
N198 C201 1.377 . S
C199 N196 1.382 . S
C199 N197 1.371 . S
C199 C202 1.480 . S
C200 N197 1.372 . S
C200 N198 1.361 . S
C200 C208 1.457 . S
C201 N196 1.363 . S
C201 N198 1.377 . S
C201 C214 1.479 . S
C202 C199 1.480 . S
C202 C203 1.383 . S
C202 C207 1.385 . S
C203 H184 0.947 . S
C203 C202 1.383 . S
C203 C204 1.388 . S
C204 H185 0.946 . S
C204 C203 1.388 . S
C204 C205 1.384 . S
C205 C204 1.384 . S
C205 C206 1.377 . S
C206 H186 0.953 . S
C206 C205 1.377 . S
C206 C207 1.369 . S
C207 H187 0.945 . S
C207 C202 1.385 . S
C207 C206 1.369 . S
C208 C200 1.457 . S
C208 C209 1.372 . S
C208 C213 1.364 . S
C209 H188 0.952 . S
C209 C208 1.372 . S
C209 C210 1.389 . S
C210 H189 0.949 . S
C210 C209 1.389 . S
C210 C211 1.387 . S
C211 C210 1.387 . S
C211 C212 1.372 . S
C212 H190 0.950 . S
C212 C211 1.372 . S
C212 C213 1.379 . S
C213 H191 0.948 . S
C213 C208 1.364 . S
C213 C212 1.379 . S
C214 C183 1.383 . S
C214 C201 1.479 . S
C214 C215 1.398 . S
C215 C180 1.382 . S
C215 H192 0.951 . S
C215 C214 1.398 . S
C216 C217 1.384 . S
C216 H229 0.947 . S
C216 C251 1.382 . S
C217 C216 1.384 . S
C217 C218 1.378 . S
C218 C217 1.378 . S
C218 C219 1.378 . S
C218 H230 0.952 . S
C219 C218 1.378 . S
C219 H231 0.950 . S
C219 C250 1.383 . S
H220 C239 0.947 . S
H221 C240 0.946 . S
H222 C242 0.953 . S
H223 C243 0.945 . S
H224 C245 0.952 . S
H225 C246 0.949 . S
H226 C248 0.950 . S
H227 C249 0.948 . S
H228 C251 0.951 . S
H229 C216 0.947 . S
H230 C218 0.952 . S
H231 C219 0.950 . S
N232 C235 1.382 . S
N232 C237 1.363 . S
N233 C235 1.371 . S
N233 C236 1.372 . S
N234 C236 1.361 . S
N234 C237 1.377 . S
C235 N232 1.382 . S
C235 N233 1.371 . S
C235 C238 1.480 . S
C236 N233 1.372 . S
C236 N234 1.361 . S
C236 C244 1.457 . S
C237 N232 1.363 . S
C237 N234 1.377 . S
C237 C250 1.479 . S
C238 C235 1.480 . S
C238 C239 1.383 . S
C238 C243 1.385 . S
C239 H220 0.947 . S
C239 C238 1.383 . S
C239 C240 1.388 . S
C240 H221 0.946 . S
C240 C239 1.388 . S
C240 C241 1.384 . S
C241 C240 1.384 . S
C241 C242 1.377 . S
C242 H222 0.953 . S
C242 C241 1.377 . S
C242 C243 1.369 . S
C243 H223 0.945 . S
C243 C238 1.385 . S
C243 C242 1.369 . S
C244 C236 1.457 . S
C244 C245 1.372 . S
C244 C249 1.364 . S
C245 H224 0.952 . S
C245 C244 1.372 . S
C245 C246 1.389 . S
C246 H225 0.949 . S
C246 C245 1.389 . S
C246 C247 1.387 . S
C247 C246 1.387 . S
C247 C248 1.372 . S
C248 H226 0.950 . S
C248 C247 1.372 . S
C248 C249 1.379 . S
C249 H227 0.948 . S
C249 C244 1.364 . S
C249 C248 1.379 . S
C250 C219 1.383 . S
C250 C237 1.479 . S
C250 C251 1.398 . S
C251 C216 1.382 . S
C251 H228 0.951 . S
C251 C250 1.398 . S
C252 C253 1.384 . S
C252 H265 0.947 . S
C252 C287 1.382 . S
C253 C252 1.384 . S
C253 C254 1.378 . S
C254 C253 1.378 . S
C254 C255 1.378 . S
C254 H266 0.952 . S
C255 C254 1.378 . S
C255 H267 0.950 . S
C255 C286 1.383 . S
H256 C275 0.947 . S
H257 C276 0.946 . S
H258 C278 0.953 . S
H259 C279 0.945 . S
H260 C281 0.952 . S
H261 C282 0.949 . S
H262 C284 0.950 . S
H263 C285 0.948 . S
H264 C287 0.951 . S
H265 C252 0.947 . S
H266 C254 0.952 . S
H267 C255 0.950 . S
N268 C271 1.382 . S
N268 C273 1.363 . S
N269 C271 1.371 . S
N269 C272 1.372 . S
N270 C272 1.361 . S
N270 C273 1.377 . S
C271 N268 1.382 . S
C271 N269 1.371 . S
C271 C274 1.480 . S
C272 N269 1.372 . S
C272 N270 1.361 . S
C272 C280 1.457 . S
C273 N268 1.363 . S
C273 N270 1.377 . S
C273 C286 1.479 . S
C274 C271 1.480 . S
C274 C275 1.383 . S
C274 C279 1.385 . S
C275 H256 0.947 . S
C275 C274 1.383 . S
C275 C276 1.388 . S
C276 H257 0.946 . S
C276 C275 1.388 . S
C276 C277 1.384 . S
C277 C276 1.384 . S
C277 C278 1.377 . S
C278 H258 0.953 . S
C278 C277 1.377 . S
C278 C279 1.369 . S
C279 H259 0.945 . S
C279 C274 1.385 . S
C279 C278 1.369 . S
C280 C272 1.457 . S
C280 C281 1.372 . S
C280 C285 1.364 . S
C281 H260 0.952 . S
C281 C280 1.372 . S
C281 C282 1.389 . S
C282 H261 0.949 . S
C282 C281 1.389 . S
C282 C283 1.387 . S
C283 C282 1.387 . S
C283 C284 1.372 . S
C284 H262 0.950 . S
C284 C283 1.372 . S
C284 C285 1.379 . S
C285 H263 0.948 . S
C285 C280 1.364 . S
C285 C284 1.379 . S
C286 C255 1.383 . S
C286 C273 1.479 . S
C286 C287 1.398 . S
C287 C252 1.382 . S
C287 H264 0.951 . S
C287 C286 1.398 . S
Tb288 C290 2.803 1_545 S
Tb288 O308 2.475 1_545 S
Tb288 O309 2.439 1_545 S
Tb288 O310 2.662 1_655 S
Tb288 O311 2.416 . S
Tb288 O312 2.371 1_645 S
Tb288 O316 2.317 1_545 S
Tb288 O319 2.348 . S
Tb289 C299 2.809 . S
Tb289 O310 2.325 . S
Tb289 O313 2.341 1_545 S
Tb289 O314 2.484 . S
Tb289 O315 2.440 . S
Tb289 O316 2.658 1_445 S
Tb289 O317 2.409 1_545 S
Tb289 O318 2.378 . S
C290 Tb288 2.803 1_565 S
C290 C291 1.514 . S
C290 O308 1.248 . S
C290 O309 1.266 . S
C291 C290 1.514 . S
C291 C292 1.359 . S
C291 C296 1.348 . S
C292 C291 1.359 . S
C292 C293 1.380 . S
C292 H320 0.929 . S
C293 C292 1.380 . S
C293 C294 1.347 . S
C293 H321 0.931 . S
C294 C293 1.347 . S
C294 C295 1.369 . S
C295 C294 1.369 . S
C295 C296 1.408 . S
C295 H322 0.930 . S
C296 C291 1.348 . S
C296 C295 1.408 . S
C296 H323 0.930 . S
C297 O310 1.281 . S
C297 O311 1.254 1_455 S
C298 O312 1.236 . S
C298 O313 1.266 . S
C299 Tb289 2.809 . S
C299 C300 1.514 . S
C299 O314 1.248 . S
C299 O315 1.266 . S
C300 C299 1.514 . S
C300 C301 1.359 . S
C300 C305 1.348 . S
C301 C300 1.359 . S
C301 C302 1.380 . S
C301 H324 0.929 . S
C302 C301 1.380 . S
C302 C303 1.347 . S
C302 H325 0.931 . S
C303 C302 1.347 . S
C303 C304 1.369 . S
C304 C303 1.369 . S
C304 C305 1.408 . S
C304 H326 0.930 . S
C305 C300 1.348 . S
C305 C304 1.408 . S
C305 H327 0.930 . S
C306 O316 1.281 . S
C306 O317 1.254 1_655 S
C307 O318 1.236 1_655 S
C307 O319 1.266 . S
O308 Tb288 2.475 1_565 S
O308 C290 1.248 . S
O309 Tb288 2.439 1_565 S
O309 C290 1.266 . S
O310 Tb288 2.662 1_455 S
O310 Tb289 2.325 . S
O310 C297 1.281 . S
O311 Tb288 2.416 . S
O311 C297 1.254 1_655 S
O312 Tb288 2.371 1_465 S
O312 C298 1.236 . S
O313 Tb289 2.341 1_565 S
O313 C298 1.266 . S
O314 Tb289 2.484 . S
O314 C299 1.248 . S
O315 Tb289 2.440 . S
O315 C299 1.266 . S
O316 Tb288 2.317 1_565 S
O316 Tb289 2.658 1_665 S
O316 C306 1.281 . S
O317 Tb289 2.409 1_565 S
O317 C306 1.254 1_455 S
O318 Tb289 2.378 . S
O318 C307 1.236 1_455 S
O319 Tb288 2.348 . S
O319 C307 1.266 . S
H320 C292 0.929 . S
H321 C293 0.931 . S
H322 C295 0.930 . S
H323 C296 0.930 . S
H324 C301 0.929 . S
H325 C302 0.931 . S
H326 C304 0.930 . S
H327 C305 0.930 . S
Tb328 C330 2.809 . S
Tb328 O348 2.484 . S
Tb328 O349 2.440 . S
Tb328 O350 2.658 1_545 S
Tb328 O351 2.409 1_545 S
Tb328 O352 2.378 . S
Tb328 O356 2.325 1_554 S
Tb328 O359 2.341 1_544 S
Tb329 C339 2.809 . S
Tb329 O350 2.325 1_556 S
Tb329 O353 2.341 1_566 S
Tb329 O354 2.484 . S
Tb329 O355 2.440 . S
Tb329 O356 2.658 1_565 S
Tb329 O357 2.409 1_565 S
Tb329 O358 2.378 . S
C330 Tb328 2.809 . S
C330 C331 1.514 . S
C330 O348 1.248 . S
C330 O349 1.266 . S
C331 C330 1.514 . S
C331 C332 1.359 . S
C331 C336 1.348 . S
C332 C331 1.359 . S
C332 C333 1.380 . S
C332 H360 0.929 . S
C333 C332 1.380 . S
C333 C334 1.347 . S
C333 H361 0.931 . S
C334 C333 1.347 . S
C334 C335 1.369 . S
C335 C334 1.369 . S
C335 C336 1.408 . S
C335 H362 0.930 . S
C336 C331 1.348 . S
C336 C335 1.408 . S
C336 H363 0.930 . S
C337 O350 1.281 . S
C337 O351 1.254 . S
C338 O352 1.236 . S
C338 O353 1.266 . S
C339 Tb329 2.809 . S
C339 C340 1.514 . S
C339 O354 1.248 . S
C339 O355 1.266 . S
C340 C339 1.514 . S
C340 C341 1.359 . S
C340 C345 1.348 . S
C341 C340 1.359 . S
C341 C342 1.380 . S
C341 H364 0.929 . S
C342 C341 1.380 . S
C342 C343 1.347 . S
C342 H365 0.931 . S
C343 C342 1.347 . S
C343 C344 1.369 . S
C344 C343 1.369 . S
C344 C345 1.408 . S
C344 H366 0.930 . S
C345 C340 1.348 . S
C345 C344 1.408 . S
C345 H367 0.930 . S
C346 O356 1.281 . S
C346 O357 1.254 . S
C347 O358 1.236 . S
C347 O359 1.266 . S
O348 Tb328 2.484 . S
O348 C330 1.248 . S
O349 Tb328 2.440 . S
O349 C330 1.266 . S
O350 Tb328 2.658 1_565 S
O350 Tb329 2.325 1_554 S
O350 C337 1.281 . S
O351 Tb328 2.409 1_565 S
O351 C337 1.254 . S
O352 Tb328 2.378 . S
O352 C338 1.236 . S
O353 Tb329 2.341 1_544 S
O353 C338 1.266 . S
O354 Tb329 2.484 . S
O354 C339 1.248 . S
O355 Tb329 2.440 . S
O355 C339 1.266 . S
O356 Tb328 2.325 1_556 S
O356 Tb329 2.658 1_545 S
O356 C346 1.281 . S
O357 Tb329 2.409 1_545 S
O357 C346 1.254 . S
O358 Tb329 2.378 . S
O358 C347 1.236 . S
O359 Tb328 2.341 1_566 S
O359 C347 1.266 . S
H360 C332 0.929 . S
H361 C333 0.931 . S
H362 C335 0.930 . S
H363 C336 0.930 . S
H364 C341 0.929 . S
H365 C342 0.931 . S
H366 C344 0.930 . S
H367 C345 0.930 . S
Tb368 C370 2.809 . S
Tb368 O388 2.484 . S
Tb368 O389 2.440 . S
Tb368 O390 2.658 . S
Tb368 O391 2.409 . S
Tb368 O392 2.378 . S
Tb368 O396 2.325 . S
Tb368 O399 2.341 . S
Tb369 C379 2.809 . S
Tb369 O390 2.325 . S
Tb369 O393 2.341 . S
Tb369 O394 2.484 . S
Tb369 O395 2.440 . S
Tb369 O396 2.658 . S
Tb369 O397 2.409 . S
Tb369 O398 2.378 . S
C370 Tb368 2.809 . S
C370 C371 1.514 . S
C370 O388 1.248 . S
C370 O389 1.266 . S
C371 C370 1.514 . S
C371 C372 1.359 . S
C371 C376 1.348 . S
C372 C371 1.359 . S
C372 C373 1.380 . S
C372 H400 0.929 . S
C373 C372 1.380 . S
C373 C374 1.347 . S
C373 H401 0.931 . S
C374 C373 1.347 . S
C374 C375 1.369 . S
C375 C374 1.369 . S
C375 C376 1.408 . S
C375 H402 0.930 . S
C376 C371 1.348 . S
C376 C375 1.408 . S
C376 H403 0.930 . S
C377 O390 1.281 . S
C377 O391 1.254 . S
C378 O392 1.236 . S
C378 O393 1.266 . S
C379 Tb369 2.809 . S
C379 C380 1.514 . S
C379 O394 1.248 . S
C379 O395 1.266 . S
C380 C379 1.514 . S
C380 C381 1.359 . S
C380 C385 1.348 . S
C381 C380 1.359 . S
C381 C382 1.380 . S
C381 H404 0.929 . S
C382 C381 1.380 . S
C382 C383 1.347 . S
C382 H405 0.931 . S
C383 C382 1.347 . S
C383 C384 1.369 . S
C384 C383 1.369 . S
C384 C385 1.408 . S
C384 H406 0.930 . S
C385 C380 1.348 . S
C385 C384 1.408 . S
C385 H407 0.930 . S
C386 O396 1.281 . S
C386 O397 1.254 . S
C387 O398 1.236 . S
C387 O399 1.266 . S
O388 Tb368 2.484 . S
O388 C370 1.248 . S
O389 Tb368 2.440 . S
O389 C370 1.266 . S
O390 Tb368 2.658 . S
O390 Tb369 2.325 . S
O390 C377 1.281 . S
O391 Tb368 2.409 . S
O391 C377 1.254 . S
O392 Tb368 2.378 . S
O392 C378 1.236 . S
O393 Tb369 2.341 . S
O393 C378 1.266 . S
O394 Tb369 2.484 . S
O394 C379 1.248 . S
O395 Tb369 2.440 . S
O395 C379 1.266 . S
O396 Tb368 2.325 . S
O396 Tb369 2.658 . S
O396 C386 1.281 . S
O397 Tb369 2.409 . S
O397 C386 1.254 . S
O398 Tb369 2.378 . S
O398 C387 1.236 . S
O399 Tb368 2.341 . S
O399 C387 1.266 . S
H400 C372 0.929 . S
H401 C373 0.931 . S
H402 C375 0.930 . S
H403 C376 0.930 . S
H404 C381 0.929 . S
H405 C382 0.931 . S
H406 C384 0.930 . S
H407 C385 0.930 . S
Tb408 C410 2.795 1_455 S
Tb408 O428 2.467 1_455 S
Tb408 O429 2.434 1_455 S
Tb408 O430 2.669 1_556 S
Tb408 O431 2.421 1_556 S
Tb408 O432 2.371 1_456 S
Tb408 O436 2.318 1_455 S
Tb408 O439 2.354 . S
Tb409 C419 2.809 . S
Tb409 O430 2.325 . S
Tb409 O433 2.341 1_455 S
Tb409 O434 2.484 . S
Tb409 O435 2.440 . S
Tb409 O436 2.658 1_454 S
Tb409 O437 2.409 1_455 S
Tb409 O438 2.378 1_554 S
C410 Tb408 2.795 1_655 S
C410 C411 1.514 . S
C410 O428 1.248 . S
C410 O429 1.266 . S
C411 C410 1.514 . S
C411 C412 1.359 . S
C411 C416 1.348 . S
C412 C411 1.359 . S
C412 C413 1.380 . S
C412 H440 0.929 . S
C413 C412 1.380 . S
C413 C414 1.347 . S
C413 H441 0.931 . S
C414 C413 1.347 . S
C414 C415 1.369 . S
C415 C414 1.369 . S
C415 C416 1.408 . S
C415 H442 0.930 . S
C416 C411 1.348 . S
C416 C415 1.408 . S
C416 H443 0.930 . S
C417 O430 1.281 . S
C417 O431 1.254 . S
C418 O432 1.236 . S
C418 O433 1.266 . S
C419 Tb409 2.809 . S
C419 C420 1.514 . S
C419 O434 1.248 . S
C419 O435 1.266 . S
C420 C419 1.514 . S
C420 C421 1.359 . S
C420 C425 1.348 . S
C421 C420 1.359 . S
C421 C422 1.380 . S
C421 H444 0.929 . S
C422 C421 1.380 . S
C422 C423 1.347 . S
C422 H445 0.931 . S
C423 C422 1.347 . S
C423 C424 1.369 . S
C424 C423 1.369 . S
C424 C425 1.408 . S
C424 H446 0.930 . S
C425 C420 1.348 . S
C425 C424 1.408 . S
C425 H447 0.930 . S
C426 O436 1.281 . S
C426 O437 1.254 1_556 S
C427 O438 1.236 . S
C427 O439 1.266 . S
O428 Tb408 2.467 1_655 S
O428 C410 1.248 . S
O429 Tb408 2.434 1_655 S
O429 C410 1.266 . S
O430 Tb408 2.669 1_554 S
O430 Tb409 2.325 . S
O430 C417 1.281 . S
O431 Tb408 2.421 1_554 S
O431 C417 1.254 . S
O432 Tb408 2.371 1_654 S
O432 C418 1.236 . S
O433 Tb409 2.341 1_655 S
O433 C418 1.266 . S
O434 Tb409 2.484 . S
O434 C419 1.248 . S
O435 Tb409 2.440 . S
O435 C419 1.266 . S
O436 Tb408 2.318 1_655 S
O436 Tb409 2.658 1_656 S
O436 C426 1.281 . S
O437 Tb409 2.409 1_655 S
O437 C426 1.254 1_554 S
O438 Tb409 2.378 1_556 S
O438 C427 1.236 . S
O439 Tb408 2.354 . S
O439 C427 1.266 . S
H440 C412 0.929 . S
H441 C413 0.931 . S
H442 C415 0.930 . S
H443 C416 0.930 . S
H444 C421 0.929 . S
H445 C422 0.931 . S
H446 C424 0.930 . S
H447 C425 0.930 . S
C448 C449 1.363 . S
C448 C454 1.379 . S
C448 N456 1.356 . S
C449 C448 1.363 . S
C449 C455 1.363 . S
C450 C451 1.363 . S
C450 C455 1.379 . S
C450 N457 1.356 . S
C451 C450 1.363 . S
C451 C454 1.363 . S
N452 C454 1.356 . S
N452 H464 0.984 . S
N452 H465 0.985 . S
N453 C455 1.356 . S
N453 H458 0.984 . S
N453 H459 0.985 . S
C454 C448 1.379 . S
C454 C451 1.363 . S
C454 N452 1.356 . S
C455 C449 1.363 . S
C455 C450 1.379 . S
C455 N453 1.356 . S
N456 C448 1.356 . S
N456 H462 0.984 . S
N456 H463 0.984 . S
N457 C450 1.356 . S
N457 H460 0.984 . S
N457 H461 0.985 . S
H458 N453 0.984 . S
H459 N453 0.985 . S
H460 N457 0.984 . S
H461 N457 0.985 . S
H462 N456 0.984 . S
H463 N456 0.984 . S
H464 N452 0.984 . S
H465 N452 0.985 . S
C466 C467 1.363 . S
C466 C472 1.379 . S
C466 N474 1.356 . S
C467 C466 1.363 . S
C467 C473 1.363 . S
C468 C469 1.363 . S
C468 C473 1.379 . S
C468 N475 1.356 . S
C469 C468 1.363 . S
C469 C472 1.363 . S
N470 C472 1.356 . S
N470 H482 0.984 . S
N470 H483 0.985 . S
N471 C473 1.356 . S
N471 H476 0.984 . S
N471 H477 0.985 . S
C472 C466 1.379 . S
C472 C469 1.363 . S
C472 N470 1.356 . S
C473 C467 1.363 . S
C473 C468 1.379 . S
C473 N471 1.356 . S
N474 C466 1.356 . S
N474 H480 0.984 . S
N474 H481 0.984 . S
N475 C468 1.356 . S
N475 H478 0.984 . S
N475 H479 0.985 . S
H476 N471 0.984 . S
H477 N471 0.985 . S
H478 N475 0.984 . S
H479 N475 0.985 . S
H480 N474 0.984 . S
H481 N474 0.984 . S
H482 N470 0.984 . S
H483 N470 0.985 . S
C484 C485 1.363 . S
C484 C490 1.379 . S
C484 N492 1.356 . S
C485 C484 1.363 . S
C485 C491 1.363 . S
C486 C487 1.363 . S
C486 C491 1.379 . S
C486 N493 1.356 . S
C487 C486 1.363 . S
C487 C490 1.363 . S
N488 C490 1.356 . S
N488 H500 0.984 . S
N488 H501 0.985 . S
N489 C491 1.356 . S
N489 H494 0.984 . S
N489 H495 0.985 . S
C490 C484 1.379 . S
C490 C487 1.363 . S
C490 N488 1.356 . S
C491 C485 1.363 . S
C491 C486 1.379 . S
C491 N489 1.356 . S
N492 C484 1.356 . S
N492 H498 0.984 . S
N492 H499 0.984 . S
N493 C486 1.356 . S
N493 H496 0.984 . S
N493 H497 0.985 . S
H494 N489 0.984 . S
H495 N489 0.985 . S
H496 N493 0.984 . S
H497 N493 0.985 . S
H498 N492 0.984 . S
H499 N492 0.984 . S
H500 N488 0.984 . S
H501 N488 0.985 . S
C502 C503 1.363 . S
C502 C508 1.379 . S
C502 N510 1.356 . S
C503 C502 1.363 . S
C503 C509 1.363 . S
C504 C505 1.363 . S
C504 C509 1.379 . S
C504 N511 1.356 . S
C505 C504 1.363 . S
C505 C508 1.363 . S
N506 C508 1.356 . S
N506 H518 0.984 1_655 S
N506 H519 0.985 . S
N507 C509 1.356 . S
N507 H512 0.984 . S
N507 H513 0.985 . S
C508 C502 1.379 . S
C508 C505 1.363 . S
C508 N506 1.356 . S
C509 C503 1.363 . S
C509 C504 1.379 . S
C509 N507 1.356 . S
N510 C502 1.356 . S
N510 H516 0.984 . S
N510 H517 0.984 . S
N511 C504 1.356 . S
N511 H514 0.984 . S
N511 H515 0.985 . S
H512 N507 0.984 . S
H513 N507 0.985 . S
H514 N511 0.984 . S
H515 N511 0.985 . S
H516 N510 0.984 . S
H517 N510 0.984 . S
H518 N506 0.984 1_455 S
H519 N506 0.985 . S
C520 C521 1.363 . S
C520 C526 1.379 . S
C520 N528 1.356 . S
C521 C520 1.363 . S
C521 C527 1.363 . S
C522 C523 1.363 . S
C522 C527 1.379 . S
C522 N529 1.356 . S
C523 C522 1.363 . S
C523 C526 1.363 . S
N524 C526 1.356 . S
N524 H536 0.984 . S
N524 H537 0.985 . S
N525 C527 1.356 . S
N525 H530 0.984 . S
N525 H531 0.985 . S
C526 C520 1.379 . S
C526 C523 1.363 . S
C526 N524 1.356 . S
C527 C521 1.363 . S
C527 C522 1.379 . S
C527 N525 1.356 . S
N528 C520 1.356 . S
N528 H534 0.984 . S
N528 H535 0.984 . S
N529 C522 1.356 . S
N529 H532 0.984 . S
N529 H533 0.985 . S
H530 N525 0.984 . S
H531 N525 0.985 . S
H532 N529 0.984 . S
H533 N529 0.985 . S
H534 N528 0.984 . S
H535 N528 0.984 . S
H536 N524 0.984 . S
H537 N524 0.985 . S
C538 C539 1.363 . S
C538 C544 1.379 . S
C538 N546 1.356 . S
C539 C538 1.363 . S
C539 C545 1.363 . S
C540 C541 1.363 . S
C540 C545 1.379 . S
C540 N547 1.356 . S
C541 C540 1.363 . S
C541 C544 1.363 . S
N542 C544 1.356 . S
N542 H554 0.984 . S
N542 H555 0.985 . S
N543 C545 1.356 1_655 S
N543 H548 0.984 . S
N543 H549 0.985 . S
C544 C538 1.379 . S
C544 C541 1.363 . S
C544 N542 1.356 . S
C545 C539 1.363 . S
C545 C540 1.379 . S
C545 N543 1.356 1_455 S
N546 C538 1.356 . S
N546 H552 0.984 . S
N546 H553 0.984 . S
N547 C540 1.356 . S
N547 H550 0.984 . S
N547 H551 0.985 1_455 S
H548 N543 0.984 . S
H549 N543 0.985 . S
H550 N547 0.984 . S
H551 N547 0.985 1_655 S
H552 N546 0.984 . S
H553 N546 0.984 . S
H554 N542 0.984 . S
H555 N542 0.985 . S
C556 C557 1.363 . S
C556 C562 1.379 . S
C556 N564 1.356 . S
C557 C556 1.363 . S
C557 C563 1.363 . S
C558 C559 1.363 . S
C558 C563 1.379 . S
C558 N565 1.356 . S
C559 C558 1.363 . S
C559 C562 1.363 . S
N560 C562 1.356 . S
N560 H572 0.986 1_556 S
N560 H573 0.985 1_556 S
N561 C563 1.356 . S
N561 H566 0.984 . S
N561 H567 0.985 . S
C562 C556 1.379 . S
C562 C559 1.363 . S
C562 N560 1.356 . S
C563 C557 1.363 . S
C563 C558 1.379 . S
C563 N561 1.356 . S
N564 C556 1.356 . S
N564 H570 0.984 . S
N564 H571 0.984 . S
N565 C558 1.356 . S
N565 H568 0.984 . S
N565 H569 0.985 . S
H566 N561 0.984 . S
H567 N561 0.985 . S
H568 N565 0.984 . S
H569 N565 0.985 . S
H570 N564 0.984 . S
H571 N564 0.984 . S
H572 N560 0.986 1_554 S
H573 N560 0.985 1_554 S
C574 C575 1.363 . S
C574 C580 1.379 . S
C574 N582 1.356 . S
C575 C574 1.363 . S
C575 C581 1.363 . S
C576 C577 1.363 . S
C576 C581 1.379 . S
C576 N583 1.356 . S
C577 C576 1.363 . S
C577 C580 1.363 . S
N578 C580 1.356 . S
N578 H590 0.984 . S
N578 H591 0.985 . S
N579 C581 1.356 . S
N579 H584 0.984 . S
N579 H585 0.985 . S
C580 C574 1.379 . S
C580 C577 1.363 . S
C580 N578 1.356 . S
C581 C575 1.363 . S
C581 C576 1.379 . S
C581 N579 1.356 . S
N582 C574 1.356 . S
N582 H588 0.984 . S
N582 H589 0.984 . S
N583 C576 1.356 . S
N583 H586 0.984 . S
N583 H587 0.985 . S
H584 N579 0.984 . S
H585 N579 0.985 . S
H586 N583 0.984 . S
H587 N583 0.985 . S
H588 N582 0.984 . S
H589 N582 0.984 . S
H590 N578 0.984 . S
H591 N578 0.985 . S
C592 C593 1.363 . S
C592 C598 1.379 . S
C592 N600 1.356 . S
C593 C592 1.363 . S
C593 C599 1.363 . S
C594 C595 1.363 . S
C594 C599 1.379 . S
C594 N601 1.356 . S
C595 C594 1.363 . S
C595 C598 1.363 . S
N596 C598 1.356 . S
N596 H608 0.984 . S
N596 H609 0.985 . S
N597 C599 1.356 . S
N597 H602 0.984 . S
N597 H603 0.985 . S
C598 C592 1.379 . S
C598 C595 1.363 . S
C598 N596 1.356 . S
C599 C593 1.363 . S
C599 C594 1.379 . S
C599 N597 1.356 . S
N600 C592 1.356 . S
N600 H606 0.984 . S
N600 H607 0.984 . S
N601 C594 1.356 . S
N601 H604 0.984 . S
N601 H605 0.985 . S
H602 N597 0.984 . S
H603 N597 0.985 . S
H604 N601 0.984 . S
H605 N601 0.985 . S
H606 N600 0.984 . S
H607 N600 0.984 . S
H608 N596 0.984 . S
H609 N596 0.985 . S
C610 C611 1.363 . S
C610 C616 1.379 . S
C610 N618 1.356 . S
C611 C610 1.363 . S
C611 C617 1.363 . S
C612 C613 1.363 . S
C612 C617 1.379 . S
C612 N619 1.356 . S
C613 C612 1.363 . S
C613 C616 1.363 . S
N614 C616 1.356 . S
N614 H626 0.984 . S
N614 H627 0.985 . S
N615 C617 1.356 . S
N615 H620 0.984 . S
N615 H621 0.985 . S
C616 C610 1.379 . S
C616 C613 1.363 . S
C616 N614 1.356 . S
C617 C611 1.363 . S
C617 C612 1.379 . S
C617 N615 1.356 . S
N618 C610 1.356 . S
N618 H624 0.984 . S
N618 H625 0.984 . S
N619 C612 1.356 . S
N619 H622 0.984 . S
N619 H623 0.985 . S
H620 N615 0.984 . S
H621 N615 0.985 . S
H622 N619 0.984 . S
H623 N619 0.985 . S
H624 N618 0.984 . S
H625 N618 0.984 . S
H626 N614 0.984 . S
H627 N614 0.985 . S
C628 C629 1.363 . S
C628 C634 1.379 . S
C628 N636 1.356 . S
C629 C628 1.363 . S
C629 C635 1.363 . S
C630 C631 1.363 . S
C630 C635 1.379 . S
C630 N637 1.356 . S
C631 C630 1.363 . S
C631 C634 1.363 . S
N632 C634 1.356 . S
N632 H644 0.984 1_655 S
N632 H645 0.985 . S
N633 C635 1.356 . S
N633 H638 0.984 . S
N633 H639 0.985 . S
C634 C628 1.379 . S
C634 C631 1.363 . S
C634 N632 1.356 . S
C635 C629 1.363 . S
C635 C630 1.379 . S
C635 N633 1.356 . S
N636 C628 1.356 . S
N636 H642 0.984 . S
N636 H643 0.984 . S
N637 C630 1.356 . S
N637 H640 0.984 . S
N637 H641 0.985 . S
H638 N633 0.984 . S
H639 N633 0.985 . S
H640 N637 0.984 . S
H641 N637 0.985 . S
H642 N636 0.984 . S
H643 N636 0.984 . S
H644 N632 0.984 1_455 S
H645 N632 0.985 . S
C646 C647 1.363 . S
C646 C652 1.379 . S
C646 N654 1.356 . S
C647 C646 1.363 . S
C647 C653 1.363 . S
C648 C649 1.363 . S
C648 C653 1.379 . S
C648 N655 1.356 . S
C649 C648 1.363 . S
C649 C652 1.363 . S
N650 C652 1.356 . S
N650 H662 0.984 . S
N650 H663 0.985 . S
N651 C653 1.356 . S
N651 H656 0.984 . S
N651 H657 0.985 . S
C652 C646 1.379 . S
C652 C649 1.363 . S
C652 N650 1.356 . S
C653 C647 1.363 . S
C653 C648 1.379 . S
C653 N651 1.356 . S
N654 C646 1.356 . S
N654 H660 0.984 . S
N654 H661 0.984 . S
N655 C648 1.356 . S
N655 H658 0.984 . S
N655 H659 0.985 . S
H656 N651 0.984 . S
H657 N651 0.985 . S
H658 N655 0.984 . S
H659 N655 0.985 . S
H660 N654 0.984 . S
H661 N654 0.984 . S
H662 N650 0.984 . S
H663 N650 0.985 . S
C664 C665 1.363 . S
C664 C670 1.379 . S
C664 N672 1.356 . S
C665 C664 1.363 . S
C665 C671 1.363 . S
C666 C667 1.363 . S
C666 C671 1.379 . S
C666 N673 1.356 . S
C667 C666 1.363 . S
C667 C670 1.363 . S
N668 C670 1.356 . S
N668 H680 0.984 . S
N668 H681 0.985 . S
N669 C671 1.356 . S
N669 H674 0.984 . S
N669 H675 0.985 . S
C670 C664 1.379 . S
C670 C667 1.363 . S
C670 N668 1.356 . S
C671 C665 1.363 . S
C671 C666 1.379 . S
C671 N669 1.356 . S
N672 C664 1.356 . S
N672 H678 0.984 . S
N672 H679 0.984 . S
N673 C666 1.356 . S
N673 H676 0.984 . S
N673 H677 0.985 . S
H674 N669 0.984 . S
H675 N669 0.985 . S
H676 N673 0.984 . S
H677 N673 0.985 . S
H678 N672 0.984 . S
H679 N672 0.984 . S
H680 N668 0.984 . S
H681 N668 0.985 . S
C682 C683 1.363 . S
C682 C688 1.379 . S
C682 N690 1.356 . S
C683 C682 1.363 . S
C683 C689 1.363 . S
C684 C685 1.363 . S
C684 C689 1.379 . S
C684 N691 1.356 . S
C685 C684 1.363 . S
C685 C688 1.363 . S
N686 C688 1.356 . S
N686 H698 0.984 . S
N686 H699 0.985 . S
N687 C689 1.356 . S
N687 H692 0.984 . S
N687 H693 0.985 . S
C688 C682 1.379 . S
C688 C685 1.363 . S
C688 N686 1.356 . S
C689 C683 1.363 . S
C689 C684 1.379 . S
C689 N687 1.356 . S
N690 C682 1.356 . S
N690 H696 0.984 . S
N690 H697 0.984 . S
N691 C684 1.356 . S
N691 H694 0.984 . S
N691 H695 0.985 . S
H692 N687 0.984 . S
H693 N687 0.985 . S
H694 N691 0.984 . S
H695 N691 0.985 . S
H696 N690 0.984 . S
H697 N690 0.984 . S
H698 N686 0.984 . S
H699 N686 0.985 . S
C700 C701 1.363 . S
C700 C706 1.379 . S
C700 N708 1.356 . S
C701 C700 1.363 . S
C701 C707 1.363 . S
C702 C703 1.363 . S
C702 C707 1.379 . S
C702 N709 1.356 . S
C703 C702 1.363 . S
C703 C706 1.363 . S
N704 C706 1.356 . S
N704 H716 0.984 . S
N704 H717 0.985 . S
N705 C707 1.356 . S
N705 H710 0.984 . S
N705 H711 0.985 . S
C706 C700 1.379 . S
C706 C703 1.363 . S
C706 N704 1.356 . S
C707 C701 1.363 . S
C707 C702 1.379 . S
C707 N705 1.356 . S
N708 C700 1.356 . S
N708 H714 0.984 . S
N708 H715 0.984 . S
N709 C702 1.356 . S
N709 H712 0.984 . S
N709 H713 0.985 . S
H710 N705 0.984 . S
H711 N705 0.985 . S
H712 N709 0.984 . S
H713 N709 0.985 . S
H714 N708 0.984 . S
H715 N708 0.984 . S
H716 N704 0.984 . S
H717 N704 0.985 . S
C718 C719 1.363 . S
C718 C724 1.379 . S
C718 N726 1.356 . S
C719 C718 1.363 . S
C719 C725 1.363 . S
C720 C721 1.363 . S
C720 C725 1.379 . S
C720 N727 1.356 . S
C721 C720 1.363 . S
C721 C724 1.363 . S
N722 C724 1.356 . S
N722 H734 0.984 1_455 S
N722 H735 0.985 . S
N723 C725 1.356 . S
N723 H728 0.984 . S
N723 H729 0.985 . S
C724 C718 1.379 . S
C724 C721 1.363 . S
C724 N722 1.356 . S
C725 C719 1.363 . S
C725 C720 1.379 . S
C725 N723 1.356 . S
N726 C718 1.356 . S
N726 H732 0.984 . S
N726 H733 0.984 . S
N727 C720 1.356 . S
N727 H730 0.984 . S
N727 H731 0.985 . S
H728 N723 0.984 . S
H729 N723 0.985 . S
H730 N727 0.984 . S
H731 N727 0.985 . S
H732 N726 0.984 . S
H733 N726 0.984 . S
H734 N722 0.984 1_655 S
H735 N722 0.985 . S
C736 C737 1.363 . S
C736 C742 1.379 . S
C736 N744 1.356 . S
C737 C736 1.363 . S
C737 C743 1.363 . S
C738 C739 1.363 . S
C738 C743 1.379 . S
C738 N745 1.356 . S
C739 C738 1.363 . S
C739 C742 1.363 . S
N740 C742 1.356 . S
N740 H752 0.984 . S
N740 H753 0.985 . S
N741 C743 1.356 . S
N741 H746 0.984 . S
N741 H747 0.985 . S
C742 C736 1.379 . S
C742 C739 1.363 . S
C742 N740 1.356 . S
C743 C737 1.363 . S
C743 C738 1.379 . S
C743 N741 1.356 . S
N744 C736 1.356 . S
N744 H750 0.984 . S
N744 H751 0.984 . S
N745 C738 1.356 . S
N745 H748 0.984 . S
N745 H749 0.985 . S
H746 N741 0.984 . S
H747 N741 0.985 . S
H748 N745 0.984 . S
H749 N745 0.985 . S
H750 N744 0.984 . S
H751 N744 0.984 . S
H752 N740 0.984 . S
H753 N740 0.985 . S
C754 C755 1.363 1_455 S
C754 C760 1.379 . S
C754 N762 1.356 . S
C755 C754 1.363 1_655 S
C755 C761 1.363 . S
C756 C757 1.363 . S
C756 C761 1.379 . S
C756 N763 1.356 . S
C757 C756 1.363 . S
C757 C760 1.363 1_655 S
N758 C760 1.356 . S
N758 H770 0.984 . S
N758 H771 0.985 . S
N759 C761 1.356 . S
N759 H764 0.984 . S
N759 H765 0.985 . S
C760 C754 1.379 . S
C760 C757 1.363 1_455 S
C760 N758 1.356 . S
C761 C755 1.363 . S
C761 C756 1.379 . S
C761 N759 1.356 . S
N762 C754 1.356 . S
N762 H768 0.984 . S
N762 H769 0.984 . S
N763 C756 1.356 . S
N763 H766 0.984 . S
N763 H767 0.985 . S
H764 N759 0.984 . S
H765 N759 0.985 . S
H766 N763 0.984 . S
H767 N763 0.985 . S
H768 N762 0.984 . S
H769 N762 0.984 . S
H770 N758 0.984 . S
H771 N758 0.985 . S
C772 C773 1.363 . S
C772 C778 1.379 . S
C772 N780 1.356 . S
C773 C772 1.363 . S
C773 C779 1.363 . S
C774 C775 1.363 . S
C774 C779 1.379 . S
C774 N781 1.356 . S
C775 C774 1.363 . S
C775 C778 1.363 . S
N776 C778 1.356 . S
N776 H788 0.984 . S
N776 H789 0.985 . S
N777 C779 1.356 . S
N777 H782 0.984 . S
N777 H783 0.985 . S
C778 C772 1.379 . S
C778 C775 1.363 . S
C778 N776 1.356 . S
C779 C773 1.363 . S
C779 C774 1.379 . S
C779 N777 1.356 . S
N780 C772 1.356 . S
N780 H786 0.984 . S
N780 H787 0.984 . S
N781 C774 1.356 . S
N781 H784 0.984 . S
N781 H785 0.985 . S
H782 N777 0.984 . S
H783 N777 0.985 . S
H784 N781 0.984 . S
H785 N781 0.985 . S
H786 N780 0.984 . S
H787 N780 0.984 . S
H788 N776 0.984 . S
H789 N776 0.985 . S
C790 C791 1.363 . S
C790 C796 1.379 . S
C790 N798 1.356 . S
C791 C790 1.363 . S
C791 C797 1.363 . S
C792 C793 1.363 . S
C792 C797 1.379 . S
C792 N799 1.356 . S
C793 C792 1.363 . S
C793 C796 1.363 . S
N794 C796 1.356 . S
N794 H806 0.984 . S
N794 H807 0.985 . S
N795 C797 1.356 . S
N795 H800 0.984 . S
N795 H801 0.985 . S
C796 C790 1.379 . S
C796 C793 1.363 . S
C796 N794 1.356 . S
C797 C791 1.363 . S
C797 C792 1.379 . S
C797 N795 1.356 . S
N798 C790 1.356 . S
N798 H804 0.984 . S
N798 H805 0.984 . S
N799 C792 1.356 . S
N799 H802 0.984 . S
N799 H803 0.985 . S
H800 N795 0.984 . S
H801 N795 0.985 . S
H802 N799 0.984 . S
H803 N799 0.985 . S
H804 N798 0.984 . S
H805 N798 0.984 . S
H806 N794 0.984 . S
H807 N794 0.985 . S
C808 C809 1.363 . S
C808 C814 1.379 . S
C808 N816 1.356 . S
C809 C808 1.363 . S
C809 C815 1.363 . S
C810 C811 1.363 . S
C810 C815 1.379 . S
C810 N817 1.356 . S
C811 C810 1.363 . S
C811 C814 1.363 . S
N812 C814 1.356 . S
N812 H824 0.984 . S
N812 H825 0.985 . S
N813 C815 1.356 . S
N813 H818 0.984 . S
N813 H819 0.985 . S
C814 C808 1.379 . S
C814 C811 1.363 . S
C814 N812 1.356 . S
C815 C809 1.363 . S
C815 C810 1.379 . S
C815 N813 1.356 . S
N816 C808 1.356 . S
N816 H822 0.984 . S
N816 H823 0.984 . S
N817 C810 1.356 . S
N817 H820 0.984 . S
N817 H821 0.985 . S
H818 N813 0.984 . S
H819 N813 0.985 . S
H820 N817 0.984 . S
H821 N817 0.985 . S
H822 N816 0.984 . S
H823 N816 0.984 . S
H824 N812 0.984 . S
H825 N812 0.985 . S
C826 C827 1.363 . S
C826 C832 1.379 . S
C826 N834 1.356 . S
C827 C826 1.363 . S
C827 C833 1.363 . S
C828 C829 1.363 . S
C828 C833 1.379 . S
C828 N835 1.356 . S
C829 C828 1.363 . S
C829 C832 1.363 . S
N830 C832 1.356 . S
N830 H842 0.984 . S
N830 H843 0.985 . S
N831 C833 1.356 . S
N831 H836 0.984 . S
N831 H837 0.985 . S
C832 C826 1.379 . S
C832 C829 1.363 . S
C832 N830 1.356 . S
C833 C827 1.363 . S
C833 C828 1.379 . S
C833 N831 1.356 . S
N834 C826 1.356 . S
N834 H840 0.984 . S
N834 H841 0.984 . S
N835 C828 1.356 . S
N835 H838 0.984 . S
N835 H839 0.985 . S
H836 N831 0.984 . S
H837 N831 0.985 . S
H838 N835 0.984 . S
H839 N835 0.985 . S
H840 N834 0.984 . S
H841 N834 0.984 . S
H842 N830 0.984 . S
H843 N830 0.985 . S
C844 C845 1.363 . S
C844 C850 1.379 . S
C844 N852 1.356 . S
C845 C844 1.363 . S
C845 C851 1.363 . S
C846 C847 1.363 . S
C846 C851 1.379 . S
C846 N853 1.356 . S
C847 C846 1.363 . S
C847 C850 1.363 . S
N848 C850 1.356 . S
N848 H860 0.982 1_455 S
N848 H861 0.985 . S
N849 C851 1.356 . S
N849 H854 0.984 . S
N849 H855 0.985 . S
C850 C844 1.379 . S
C850 C847 1.363 . S
C850 N848 1.356 . S
C851 C845 1.363 . S
C851 C846 1.379 . S
C851 N849 1.356 . S
N852 C844 1.356 . S
N852 H858 0.984 . S
N852 H859 0.984 . S
N853 C846 1.356 . S
N853 H856 0.984 . S
N853 H857 0.985 . S
H854 N849 0.984 . S
H855 N849 0.985 . S
H856 N853 0.984 . S
H857 N853 0.985 . S
H858 N852 0.984 . S
H859 N852 0.984 . S
H860 N848 0.982 1_655 S
H861 N848 0.985 . S
C862 C863 1.363 . S
C862 C868 1.379 . S
C862 N870 1.356 . S
C863 C862 1.363 . S
C863 C869 1.363 . S
C864 C865 1.363 . S
C864 C869 1.379 . S
C864 N871 1.356 . S
C865 C864 1.363 . S
C865 C868 1.363 . S
N866 C868 1.356 . S
N866 H878 0.984 . S
N866 H879 0.985 . S
N867 C869 1.356 . S
N867 H872 0.984 . S
N867 H873 0.985 . S
C868 C862 1.379 . S
C868 C865 1.363 . S
C868 N866 1.356 . S
C869 C863 1.363 . S
C869 C864 1.379 . S
C869 N867 1.356 . S
N870 C862 1.356 . S
N870 H876 0.984 . S
N870 H877 0.984 . S
N871 C864 1.356 . S
N871 H874 0.984 . S
N871 H875 0.985 . S
H872 N867 0.984 . S
H873 N867 0.985 . S
H874 N871 0.984 . S
H875 N871 0.985 . S
H876 N870 0.984 . S
H877 N870 0.984 . S
H878 N866 0.984 . S
H879 N866 0.985 . S
C449 C1 1.435 . S
C451 C303 1.438 . S
C467 C67 1.490 . S
C469 C343 1.520 . S
C487 C377 2.365 . S
C485 C97 2.362 . S
C503 C133 2.666 . S
C505 C418 2.610 . S
C523 C338 1.644 . S
C521 C25 1.558 . S
C541 C298 2.358 . S
C539 C37 2.188 . S
C559 C426 1.723 . S
C557 C103 1.711 . S
C577 C387 1.890 . S
C575 C109 1.957 . S
C593 C31 1.731 . S
C595 C423 1.742 . S
C613 C346 2.050 . S
C611 C73 2.123 . S
C629 C139 2.467 . S
C631 C306 2.404 . S
C647 C61 1.717 . S
C649 C374 1.802 . S
C667 C294 1.437 . S
C665 C175 1.375 . S
C683 C181 1.449 . S
C685 C334 1.503 . S
C701 C247 2.366 . S
C703 C386 2.386 . S
C719 C277 2.643 . S
C721 C427 2.600 . S
C737 C145 1.468 . S
C739 C347 1.629 . S
C757 C307 2.363 . S
C755 C211 2.186 . S
C775 C417 1.715 . S
C773 C217 1.673 . S
C793 C378 1.909 . S
C791 C283 1.949 . S
C809 C169 1.600 . S
C811 C414 1.735 . S
C829 C337 2.065 . S
C827 C241 2.120 . S
C847 C297 2.387 . S
C845 C253 2.474 . S
C863 C205 1.755 . S
C865 C383 1.807 . S
