# Generated by pormake.
# Topology pth, (4,4)-cn, num edge types: 1
# Building blocks:
#     Node 0, Type 0, BuildingBlock: CEKHIL_clean_sbu_0, # of connection points: 4
#     Node 1, Type 0, BuildingBlock: CEKHIL_clean_sbu_0, # of connection points: 4
#     Node 2, Type 0, BuildingBlock: CEKHIL_clean_sbu_0, # of connection points: 4
#     Node 3, Type 1, BuildingBlock: AZAVOO_clean_linker_0, # of connection points: 4
#     Node 4, Type 1, BuildingBlock: AZAVOO_clean_linker_0, # of connection points: 4
#     Node 5, Type 1, BuildingBlock: AZAVOO_clean_linker_0, # of connection points: 4
#     Edge 6, Type (0, 1), BuildingBlock: MIFKUJ_clean_linker_0, # of connection points: 2
#     Edge 7, Type (0, 1), BuildingBlock: MIFKUJ_clean_linker_0, # of connection points: 2
#     Edge 8, Type (0, 1), BuildingBlock: MIFKUJ_clean_linker_0, # of connection points: 2
#     Edge 9, Type (0, 1), BuildingBlock: MIFKUJ_clean_linker_0, # of connection points: 2
#     Edge 10, Type (0, 1), BuildingBlock: MIFKUJ_clean_linker_0, # of connection points: 2
#     Edge 11, Type (0, 1), BuildingBlock: MIFKUJ_clean_linker_0, # of connection points: 2
#     Edge 12, Type (0, 1), BuildingBlock: MIFKUJ_clean_linker_0, # of connection points: 2
#     Edge 13, Type (0, 1), BuildingBlock: MIFKUJ_clean_linker_0, # of connection points: 2
#     Edge 14, Type (0, 1), BuildingBlock: MIFKUJ_clean_linker_0, # of connection points: 2
#     Edge 15, Type (0, 1), BuildingBlock: MIFKUJ_clean_linker_0, # of connection points: 2
#     Edge 16, Type (0, 1), BuildingBlock: MIFKUJ_clean_linker_0, # of connection points: 2
#     Edge 17, Type (0, 1), BuildingBlock: MIFKUJ_clean_linker_0, # of connection points: 2
# Relax obj value: 0.097
# Max RMSD: 0.224
# Mean RMSD: 0.144
data_MOF--net-pth--node1-CEKHIL_clean_sbu_0--node2-AZAVOO_clean_linker_0--edge1-MIFKUJ_clean_linker_0
_symmetry_space_group_name_H-M    P1
_symmetry_Int_Tables_number       1
_symmetry_cell_setting            triclinic
loop_
_symmetry_equiv_pos_as_xyz
'x, y, z'
_cell_length_a     32.404721
_cell_length_b     32.795533
_cell_length_c     89.707306
_cell_angle_alpha  93.141397
_cell_angle_beta   88.98846
_cell_angle_gamma 120.29116
loop_
_atom_site_label
_atom_site_type_symbol
_atom_site_fract_x
_atom_site_fract_y
_atom_site_fract_z
_atom_type_partial_charge
Co0 Co 0.05776 0.07298 0.07863 0.0
O1 O 0.02316 0.01941 0.09057 0.0
O2 O 0.08551 0.03259 0.07673 0.0
C3 C 0.06381 0.1264 0.09664 0.0
O4 O 0.1034 0.12531 0.06532 0.0
Co5 Co 0.01407 0.13419 0.07102 0.0
O6 O 0.07787 0.17687 0.06281 0.0
C7 C 0.98154 0.04278 0.05439 0.0
C8 C 0.05321 0.00629 0.08617 0.0
C9 C 0.10863 0.16396 0.06054 0.0
O10 O 0.01316 0.0378 0.06123 0.0
O11 O 0.9742 0.07722 0.05736 0.0
O12 O 0.09407 0.11145 0.09609 0.0
O13 O 0.02903 0.1063 0.08702 0.0
Co14 Co 0.03423 0.08049 0.39687 0.0
O15 O 0.00288 0.09827 0.38285 0.0
O16 O 0.06546 0.14882 0.39683 0.0
C17 C 0.03864 0.02579 0.38178 0.0
O18 O 0.07681 0.0745 0.41199 0.0
Co19 Co 0.9831 0.97763 0.40756 0.0
O20 O 0.04881 0.99686 0.41433 0.0
C21 C 0.95505 0.04523 0.41996 0.0
C22 C 0.03441 0.14184 0.38653 0.0
C23 C 0.081 0.04017 0.41655 0.0
O24 O 0.98995 0.07894 0.4132 0.0
O25 O 0.94399 0.00185 0.41817 0.0
O26 O 0.07002 0.07032 0.38082 0.0
O27 O 0.00325 0.01655 0.39053 0.0
Co28 Co 0.04366 0.0719 0.73425 0.0
O29 O 0.09303 0.0962 0.71957 0.0
O30 O 0.07844 0.03817 0.73422 0.0
C31 C 0.98547 0.06663 0.71955 0.0
O32 O 0.99512 0.03638 0.75027 0.0
Co33 Co 0.99635 0.1291 0.74557 0.0
O34 O 0.95186 0.07115 0.75594 0.0
C35 C 0.09533 0.16064 0.75449 0.0
C36 C 0.1041 0.06564 0.72376 0.0
C37 C 0.9605 0.03761 0.75714 0.0
O38 O 0.0897 0.12069 0.7494 0.0
O39 O 0.06376 0.17261 0.75285 0.0
O40 O 0.99556 0.03292 0.71901 0.0
O41 O 0.01298 0.10361 0.72797 0.0
H42 H 0.99872 0.45554 0.14659 0.0
H43 H 0.11049 0.88386 0.25042 0.0
H44 H 0.97195 0.46625 0.22603 0.0
H45 H 0.96622 0.39625 0.21282 0.0
H46 H 0.11411 0.4467 0.22373 0.0
H47 H 0.11968 0.51695 0.23683 0.0
H48 H 0.98151 0.53757 0.20428 0.0
H49 H 0.97565 0.50181 0.17916 0.0
H50 H 0.12013 0.52883 0.18363 0.0
H51 H 0.1257 0.56514 0.20865 0.0
H52 H 0.98667 0.62302 0.21597 0.0
H53 H 0.98743 0.66857 0.19521 0.0
H54 H 0.13874 0.72112 0.18969 0.0
H55 H 0.1366 0.67317 0.20996 0.0
H56 H 0.99343 0.64882 0.25348 0.0
H57 H 0.99541 0.72418 0.25777 0.0
H58 H 0.13997 0.79789 0.24127 0.0
H59 H 0.13762 0.72238 0.23716 0.0
H60 H 0.99639 0.5714 0.27588 0.0
H61 H 0.00059 0.60668 0.30086 0.0
H62 H 0.14024 0.7241 0.29092 0.0
H63 H 0.13746 0.68597 0.26668 0.0
H64 H 0.98 0.48486 0.26129 0.0
H65 H 0.97778 0.43655 0.28141 0.0
H66 H 0.13094 0.52535 0.28723 0.0
H67 H 0.13208 0.57469 0.26756 0.0
O68 O 0.00219 0.47087 0.15639 0.0
O69 O 0.07693 0.4865 0.15913 0.0
O70 O 0.03345 0.81378 0.2564 0.0
O71 O 0.10896 0.85366 0.24901 0.0
C72 C 0.05342 0.54443 0.23579 0.0
C73 C 0.0562 0.57227 0.22391 0.0
C74 C 0.06066 0.61688 0.22694 0.0
C75 C 0.06323 0.63421 0.24186 0.0
C76 C 0.06238 0.60712 0.25378 0.0
C77 C 0.05726 0.56203 0.2507 0.0
C78 C 0.04632 0.49668 0.23224 0.0
C79 C 0.00254 0.46125 0.22605 0.0
C80 C -0.00058 0.42155 0.21845 0.0
C81 C 0.03992 0.41658 0.21711 0.0
C82 C 0.08234 0.44967 0.22468 0.0
C83 C 0.08557 0.48968 0.23218 0.0
C84 C 0.05411 0.55416 0.20822 0.0
C85 C 0.01209 0.5364 0.19971 0.0
C86 C 0.00875 0.5157 0.18541 0.0
C87 C 0.04739 0.51236 0.1794 0.0
C88 C 0.08972 0.53087 0.18792 0.0
C89 C 0.09305 0.55171 0.20219 0.0
C90 C 0.06158 0.64502 0.21444 0.0
C91 C 0.01984 0.64429 0.2102 0.0
C92 C 0.02054 0.67067 0.1984 0.0
C93 C 0.06325 0.69891 0.19076 0.0
C94 C 0.10503 0.69932 0.19511 0.0
C95 C 0.10407 0.6723 0.20677 0.0
C96 C 0.06527 0.68017 0.24493 0.0
C97 C 0.02553 0.68132 0.25086 0.0
C98 C 0.02673 0.72438 0.25327 0.0
C99 C 0.06775 0.76705 0.24976 0.0
C100 C 0.10775 0.76571 0.24402 0.0
C101 C 0.10648 0.72264 0.24163 0.0
C102 C 0.06656 0.62619 0.26943 0.0
C103 C 0.0285 0.60396 0.27932 0.0
C104 C 0.03074 0.62463 0.29355 0.0
C105 C 0.07053 0.66869 0.29799 0.0
C106 C 0.1093 0.68984 0.28816 0.0
C107 C 0.10755 0.66846 0.27413 0.0
C108 C 0.05616 0.53318 0.26301 0.0
C109 C 0.01295 0.4939 0.267 0.0
C110 C 0.01189 0.46619 0.27844 0.0
C111 C 0.05425 0.47678 0.28596 0.0
C112 C 0.09751 0.51648 0.28191 0.0
C113 C 0.09837 0.54455 0.27059 0.0
C114 C 0.04327 0.48923 0.16437 0.0
C115 C 0.06883 0.81277 0.25194 0.0
H116 H 0.64174 0.0557 0.48117 0.0
H117 H 0.28488 0.11452 0.59194 0.0
H118 H 0.59584 0.01035 0.5629 0.0
H119 H 0.65942 0.01036 0.54793 0.0
H120 H 0.72941 0.16255 0.5466 0.0
H121 H 0.66711 0.16218 0.56234 0.0
H122 H 0.54045 0.01337 0.5379 0.0
H123 H 0.57454 0.01642 0.51314 0.0
H124 H 0.63684 0.16837 0.51524 0.0
H125 H 0.60308 0.16478 0.5401 0.0
H126 H 0.43418 0.01147 0.54664 0.0
H127 H 0.38498 0.01143 0.5262 0.0
H128 H 0.47286 0.16354 0.5256 0.0
H129 H 0.52132 0.16314 0.54623 0.0
H130 H 0.41402 0.00805 0.58401 0.0
H131 H 0.33875 0.00456 0.59064 0.0
H132 H 0.40044 0.15133 0.58047 0.0
H133 H 0.47566 0.15445 0.57405 0.0
H134 H 0.4916 0.00736 0.60457 0.0
H135 H 0.45362 2e-05 0.6289 0.0
H136 H 0.48044 0.14295 0.62706 0.0
H137 H 0.52035 0.15052 0.60329 0.0
H138 H 0.57327 0.00511 0.58956 0.0
H139 H 0.62376 0.0007 0.60858 0.0
H140 H 0.67471 0.14687 0.62258 0.0
H141 H 0.62542 0.15127 0.60304 0.0
O142 O 0.62688 0.05506 0.49067 0.0
O143 O 0.6544 0.13249 0.49164 0.0
O144 O 0.28412 0.03947 0.59438 0.0
O145 O 0.31414 0.11484 0.58931 0.0
C146 C 0.58191 0.08485 0.56793 0.0
C147 C 0.55394 0.08732 0.55649 0.0
C148 C 0.51123 0.08686 0.55999 0.0
C149 C 0.49618 0.08373 0.57494 0.0
C150 C 0.52428 0.08148 0.58645 0.0
C151 C 0.56695 0.0815 0.5829 0.0
C152 C 0.62704 0.08628 0.56377 0.0
C153 C 0.62632 0.04385 0.5601 0.0
C154 C 0.66221 0.04391 0.55126 0.0
C155 C 0.69885 0.08634 0.54571 0.0
C156 C 0.70194 0.12924 0.55069 0.0
C157 C 0.6664 0.12917 0.55975 0.0
C158 C 0.56912 0.08881 0.54071 0.0
C159 C 0.56087 0.04716 0.53288 0.0
C160 C 0.58061 0.04906 0.51878 0.0
C161 C 0.60862 0.09267 0.51224 0.0
C162 C 0.61549 0.13421 0.51996 0.0
C163 C 0.59596 0.13226 0.5341 0.0
C164 C 0.48115 0.08728 0.54784 0.0
C165 C 0.44261 0.04471 0.54209 0.0
C166 C 0.41486 0.04478 0.53037 0.0
C167 C 0.42524 0.08749 0.52424 0.0
C168 C 0.46377 0.13015 0.53016 0.0
C169 C 0.49158 0.13 0.54186 0.0
C170 C 0.45017 0.08145 0.57852 0.0
C171 C 0.41114 0.03937 0.58321 0.0
C172 C 0.36822 0.03749 0.58699 0.0
C173 C 0.36358 0.0777 0.58609 0.0
C174 C 0.40277 0.11973 0.58128 0.0
C175 C 0.44571 0.12158 0.57755 0.0
C176 C 0.50855 0.07942 0.60217 0.0
C177 C 0.4905 0.03748 0.60969 0.0
C178 C 0.46831 0.0332 0.6235 0.0
C179 C 0.46344 0.07069 0.62993 0.0
C180 C 0.484 0.11351 0.62265 0.0
C181 C 0.50658 0.11787 0.60897 0.0
C182 C 0.5963 0.07867 0.59482 0.0
C183 C 0.59569 0.03623 0.59666 0.0
C184 C 0.62414 0.03367 0.60766 0.0
C185 C 0.65344 0.07348 0.6171 0.0
C186 C 0.65322 0.11579 0.61534 0.0
C187 C 0.62491 0.11834 0.60427 0.0
C188 C 0.6313 0.09479 0.49755 0.0
C189 C 0.31816 0.07599 0.59018 0.0
H190 H 0.68095 0.6956 0.99707 0.0
H191 H 0.31934 0.27468 0.88203 0.0
H192 H 0.62112 0.68943 0.9141 0.0
H193 H 0.68591 0.75656 0.92803 0.0
H194 H 0.76561 0.68318 0.9275 0.0
H195 H 0.69931 0.61529 0.9142 0.0
H196 H 0.57757 0.63915 0.93997 0.0
H197 H 0.61482 0.67109 0.96457 0.0
H198 H 0.67195 0.57686 0.9626 0.0
H199 H 0.63475 0.54552 0.93792 0.0
H200 H 0.49039 0.55062 0.93927 0.0
H201 H 0.44188 0.50166 0.95942 0.0
H202 H 0.48233 0.3978 0.9465 0.0
H203 H 0.5315 0.44757 0.92648 0.0
H204 H 0.43421 0.49657 0.91114 0.0
H205 H 0.35933 0.42229 0.90598 0.0
H206 H 0.43859 0.36174 0.8848 0.0
H207 H 0.51324 0.436 0.89023 0.0
H208 H 0.47132 0.54261 0.88094 0.0
H209 H 0.42964 0.5035 0.85751 0.0
H210 H 0.54274 0.47499 0.84534 0.0
H211 H 0.58351 0.51311 0.86916 0.0
H212 H 0.5659 0.63768 0.87835 0.0
H213 H 0.61061 0.69113 0.85863 0.0
H214 H 0.72597 0.66313 0.86469 0.0
H215 H 0.68006 0.60834 0.88396 0.0
O216 O 0.66554 0.68161 0.9875 0.0
O217 O 0.69464 0.63295 0.98586 0.0
O218 O 0.30943 0.33681 0.89556 0.0
O219 O 0.34843 0.30432 0.88431 0.0
C220 C 0.61091 0.60245 0.90975 0.0
C221 C 0.585 0.57431 0.92169 0.0
C222 C 0.54191 0.53152 0.91887 0.0
C223 C 0.52445 0.51689 0.90409 0.0
C224 C 0.54991 0.54554 0.89214 0.0
C225 C 0.59338 0.58834 0.89496 0.0
C226 C 0.65557 0.6476 0.91324 0.0
C227 C 0.6534 0.68872 0.91649 0.0
C228 C 0.69055 0.72705 0.92449 0.0
C229 C 0.73065 0.72491 0.92917 0.0
C230 C 0.73474 0.6855 0.92441 0.0
C231 C 0.69728 0.64697 0.9166 0.0
C232 C 0.60352 0.59008 0.93722 0.0
C233 C 0.5978 0.62519 0.94495 0.0
C234 C 0.61922 0.64345 0.95897 0.0
C235 C 0.64654 0.62667 0.96553 0.0
C236 C 0.65123 0.59064 0.95785 0.0
C237 C 0.62984 0.57248 0.94381 0.0
C238 C 0.5144 0.50259 0.93146 0.0
C239 C 0.48914 0.51753 0.94091 0.0
C240 C 0.46123 0.48938 0.95232 0.0
C241 C 0.45817 0.44579 0.9545 0.0
C242 C 0.48437 0.4314 0.94518 0.0
C243 C 0.5122 0.45957 0.93372 0.0
C244 C 0.47909 0.47156 0.9011 0.0
C245 C 0.43531 0.46709 0.90548 0.0
C246 C 0.39261 0.42469 0.90247 0.0
C247 C 0.39297 0.38605 0.89497 0.0
C248 C 0.43701 0.39076 0.8906 0.0
C249 C 0.47969 0.43312 0.89367 0.0
C250 C 0.53015 0.53031 0.87676 0.0
C251 C 0.48753 0.52876 0.87306 0.0
C252 C 0.46393 0.5066 0.85962 0.0
C253 C 0.4827 0.48579 0.84957 0.0
C254 C 0.52704 0.49007 0.85293 0.0
C255 C 0.55059 0.51219 0.86644 0.0
C256 C 0.61978 0.61922 0.8826 0.0
C257 C 0.6006 0.64274 0.87528 0.0
C258 C 0.62641 0.67357 0.86411 0.0
C259 C 0.67206 0.68167 0.86011 0.0
C260 C 0.69075 0.65736 0.86735 0.0
C261 C 0.66478 0.62635 0.87846 0.0
C262 C 0.67037 0.6471 0.98024 0.0
C263 C 0.34768 0.34102 0.89166 0.0
H264 H 0.13871 0.18336 0.11537 0.0
H265 H 0.13896 0.23267 0.13697 0.0
H266 H 0.99301 0.19207 0.12709 0.0
H267 H 0.99272 0.14349 0.10532 0.0
H268 H 0.1163 0.30908 0.13862 0.0
H269 H 0.93785 0.16504 0.16206 0.0
H270 H 0.88973 0.07799 0.16197 0.0
H271 H 0.0169 0.06903 0.15661 0.0
H272 H 0.06583 0.156 0.15691 0.0
H273 H 0.01092 0.40219 0.18825 0.0
H274 H 0.01878 0.35121 0.16891 0.0
H275 H 0.07876 0.30257 0.20131 0.0
H276 H 0.07124 0.35412 0.22083 0.0
H277 H 0.00733 0.22934 0.18044 0.0
H278 H 0.15287 0.3794 0.18148 0.0
H279 H 0.20022 0.4664 0.18168 0.0
H280 H 0.14291 0.46351 0.13859 0.0
H281 H 0.09423 0.3765 0.1383 0.0
C282 C 0.1069 0.18545 0.11771 0.0
C283 C 0.06566 0.15959 0.10872 0.0
C284 C 0.10714 0.21359 0.13001 0.0
C285 C 0.06587 0.21547 0.13364 0.0
C286 C 0.02506 0.19067 0.12447 0.0
C287 C 0.02504 0.16316 0.11203 0.0
C288 C 0.06478 0.24231 0.14724 0.0
C289 C 0.09269 0.29174 0.1478 0.0
C290 C 0.03441 0.21936 0.15926 0.0
C291 C 0.00542 0.16704 0.15937 0.0
C292 C 0.95555 0.1445 0.16093 0.0
C293 C 0.92814 0.09516 0.16084 0.0
C294 C 0.95023 0.068 0.15924 0.0
C295 C -0.00018 0.09011 0.15779 0.0
C296 C 0.0274 0.13942 0.1579 0.0
C297 C 0.02485 0.37989 0.19133 0.0
C298 C 0.04015 0.38169 0.20603 0.0
C299 C 0.02961 0.3511 0.18026 0.0
C300 C 0.04952 0.32344 0.18372 0.0
C301 C 0.06326 0.32374 0.19849 0.0
C302 C 0.05909 0.35314 0.20957 0.0
C303 C 0.05798 0.29617 0.17165 0.0
C304 C 0.03133 0.24668 0.17134 0.0
C305 C 0.08973 0.31907 0.15989 0.0
C306 C 0.11958 0.37139 0.15992 0.0
C307 C 0.15002 0.39731 0.1721 0.0
C308 C 0.17712 0.44665 0.17223 0.0
C309 C 0.1745 0.47048 0.16017 0.0
C310 C 0.14489 0.445 0.14793 0.0
C311 C 0.11749 0.39567 0.14778 0.0
H312 H 0.19547 0.50868 0.1603 0.0
H313 H 0.92894 0.02982 0.15915 0.0
H314 H 0.86499 0.98747 0.43005 0.0
H315 H 0.82467 0.00442 0.45068 0.0
H316 H 0.94509 0.14604 0.45645 0.0
H317 H 0.98554 0.12967 0.43561 0.0
H318 H 0.91466 0.09241 0.48302 0.0
H319 H 0.85061 0.13784 0.44373 0.0
H320 H 0.81125 0.12822 0.41947 0.0
H321 H 0.68512 0.00538 0.4341 0.0
H322 H 0.72399 0.01381 0.45837 0.0
H323 H 0.79402 0.14927 0.54083 0.0
H324 H 0.84063 0.15106 0.51887 0.0
H325 H 0.71947 0.02244 0.50071 0.0
H326 H 0.67199 0.02214 0.522 0.0
H327 H 0.75632 0.08071 0.47988 0.0
H328 H 0.82047 0.02722 0.51727 0.0
H329 H 0.85843 0.03127 0.54132 0.0
H330 H 0.982 0.16222 0.53027 0.0
H331 H 0.94448 0.15924 0.50622 0.0
C332 C 0.88264 0.02245 0.43556 0.0
C333 C 0.92846 0.05722 0.43122 0.0
C334 C 0.85952 0.03209 0.44731 0.0
C335 C 0.88198 0.07645 0.45505 0.0
C336 C 0.92725 0.11162 0.45057 0.0
C337 C 0.95012 0.10227 0.43863 0.0
C338 C 0.85905 0.08472 0.46834 0.0
C339 C 0.88047 0.09084 0.48237 0.0
C340 C 0.81397 0.08137 0.46741 0.0
C341 C 0.79041 0.07625 0.45283 0.0
C342 C 0.81464 0.10852 0.44173 0.0
C343 C 0.79238 0.10333 0.42799 0.0
C344 C 0.74576 0.06615 0.42523 0.0
C345 C 0.72125 0.03414 0.43624 0.0
C346 C 0.74337 0.03914 0.45 0.0
C347 C 0.77734 0.12138 0.53215 0.0
C348 C 0.72937 0.08526 0.5333 0.0
C349 C 0.80416 0.12223 0.51966 0.0
C350 C 0.78376 0.08659 0.50819 0.0
C351 C 0.7361 0.05029 0.50941 0.0
C352 C 0.70917 0.04974 0.52176 0.0
C353 C 0.81129 0.08724 0.4947 0.0
C354 C 0.79077 0.08286 0.4806 0.0
C355 C 0.85688 0.09141 0.49558 0.0
C356 C 0.87943 0.0933 0.51004 0.0
C357 C 0.85557 0.05708 0.52003 0.0
C358 C 0.87704 0.05914 0.53365 0.0
C359 C 0.92253 0.09706 0.53734 0.0
C360 C 0.94671 0.13293 0.52741 0.0
C361 C 0.92538 0.13106 0.51378 0.0
H362 H 0.9391 0.09858 0.54789 0.0
H363 H 0.72858 0.0622 0.41459 0.0
H364 H 0.95849 0.95377 0.76016 0.0
H365 H 0.9092 0.89145 0.77707 0.0
H366 H 0.84475 0.97202 0.7937 0.0
H367 H 0.89371 0.03443 0.77689 0.0
H368 H 0.87366 0.93777 0.81624 0.0
H369 H 0.78356 0.8789 0.77015 0.0
H370 H 0.77179 0.85477 0.74333 0.0
H371 H 0.80855 0.74856 0.75058 0.0
H372 H 0.82122 0.77253 0.77743 0.0
H373 H 0.68008 0.76765 0.85628 0.0
H374 H 0.72846 0.82549 0.83815 0.0
H375 H 0.77901 0.73362 0.8206 0.0
H376 H 0.72896 0.6745 0.83831 0.0
H377 H 0.75977 0.77255 0.79842 0.0
H378 H 0.84866 0.82907 0.84423 0.0
H379 H 0.8622 0.85287 0.87105 0.0
H380 H 0.83086 0.9632 0.86446 0.0
H381 H 0.81643 0.93961 0.83762 0.0
C382 C 0.93378 0.95824 0.76738 0.0
C383 C 0.9301 -0.00082 0.76714 0.0
C384 C 0.90552 0.92249 0.777 0.0
C385 C 0.87316 0.92704 0.78658 0.0
C386 C 0.86951 0.96783 0.7864 0.0
C387 C 0.89745 0.0034 0.77673 0.0
C388 C 0.84355 0.88968 0.79698 0.0
C389 C 0.84833 0.90176 0.81235 0.0
C390 C 0.81161 0.84242 0.7919 0.0
C391 C 0.80384 0.82786 0.77577 0.0
C392 C 0.78954 0.85068 0.766 0.0
C393 C 0.78262 0.83697 0.7508 0.0
C394 C 0.78955 0.80025 0.74525 0.0
C395 C 0.80327 0.77705 0.7549 0.0
C396 C 0.8103 0.79066 0.77011 0.0
C397 C 0.70089 0.75934 0.84843 0.0
C398 C 0.70068 0.7164 0.84879 0.0
C399 C 0.72901 0.79274 0.83817 0.0
C400 C 0.75801 0.78426 0.82817 0.0
C401 C 0.75714 0.74105 0.82827 0.0
C402 C 0.72883 0.70748 0.83849 0.0
C403 C 0.78947 0.82072 0.81772 0.0
C404 C 0.78517 0.8085 0.80234 0.0
C405 C 0.82219 0.86784 0.82279 0.0
C406 C 0.83103 0.88227 0.83893 0.0
C407 C 0.8443 0.85818 0.84851 0.0
C408 C 0.85219 0.87167 0.86372 0.0
C409 C 0.84728 0.90945 0.86946 0.0
C410 C 0.83459 0.9339 0.86 0.0
C411 C 0.82659 0.92051 0.84478 0.0
H412 H 0.8534 0.91984 0.88124 0.0
H413 H 0.78416 0.78968 0.73347 0.0
H414 H 0.98606 0.94425 0.1045 0.0
H415 H 0.99205 0.88807 0.11967 0.0
H416 H 0.12576 0.92134 0.09897 0.0
H417 H 0.12029 0.97846 0.08366 0.0
H418 H 0.05547 0.81771 0.10569 0.0
H419 H 0.14115 0.97649 0.12858 0.0
H420 H 0.14863 0.05314 0.13653 0.0
H421 H 0.02718 0.983 0.16495 0.0
H422 H 0.01856 0.9058 0.15699 0.0
H423 H 0.11564 0.71935 0.16492 0.0
H424 H 0.11867 0.76952 0.14532 0.0
H425 H 0.01409 0.79272 0.16866 0.0
H426 H 0.0136 0.7458 0.1888 0.0
H427 H 0.07883 0.87132 0.15929 0.0
H428 H 0.988 0.71421 0.13646 0.0
H429 H 0.97258 0.63493 0.12791 0.0
H430 H 0.09437 0.69738 0.09927 0.0
H431 H 0.11087 0.7771 0.1078 0.0
C432 C 0.01637 0.9391 0.10292 0.0
C433 C 0.05306 0.96626 0.09302 0.0
C434 C 0.01963 0.90688 0.11159 0.0
C435 C 0.05957 0.90109 0.11053 0.0
C436 C 0.09468 0.92547 0.0999 0.0
C437 C 0.09152 0.95805 0.0912 0.0
C438 C 0.06648 0.87356 0.12173 0.0
C439 C 0.06151 0.82961 0.11738 0.0
C440 C 0.07313 0.88886 0.13698 0.0
C441 C 0.07904 0.93536 0.14211 0.0
C442 C 0.11588 0.97739 0.13646 0.0
C443 C 0.12035 0.02093 0.14098 0.0
C444 C 0.08836 0.02293 0.15123 0.0
C445 C 0.05194 0.98139 0.15702 0.0
C446 C 0.04729 0.93774 0.15252 0.0
C447 C 0.09373 0.73561 0.166 0.0
C448 C 0.06427 0.72827 0.17849 0.0
C449 C 0.09499 0.76378 0.15465 0.0
C450 C 0.06607 0.78441 0.15536 0.0
C451 C 0.03667 0.77713 0.1678 0.0
C452 C 0.03596 0.74967 0.17925 0.0
C453 C 0.06691 0.81449 0.1434 0.0
C454 C 0.0734 0.85926 0.1476 0.0
C455 C 0.06091 0.79947 0.12806 0.0
C456 C 0.05098 0.7516 0.1229 0.0
C457 C 0.0117 0.71103 0.12843 0.0
C458 C 0.00273 0.66602 0.12357 0.0
C459 C 0.03257 0.66112 0.11309 0.0
C460 C 0.07135 0.70123 0.10741 0.0
C461 C 0.08051 0.74633 0.11224 0.0
H462 H 0.02556 0.62625 0.10934 0.0
H463 H 0.09186 0.05668 0.1547 0.0
H464 H 0.13622 0.11854 0.43474 0.0
H465 H 0.20083 0.13121 0.45151 0.0
H466 H 0.18721 -0.00101 0.4347 0.0
H467 H 0.12133 0.98531 0.41845 0.0
H468 H 0.18941 0.00173 0.46309 0.0
H469 H 0.28576 0.11256 0.42689 0.0
H470 H 0.3112 0.17988 0.4109 0.0
H471 H 0.33723 0.27261 0.44971 0.0
H472 H 0.31135 0.20572 0.46594 0.0
H473 H 0.39268 0.02702 0.4995 0.0
H474 H 0.34023 0.02391 0.47967 0.0
H475 H 0.3389 0.14457 0.50081 0.0
H476 H 0.3913 0.14782 0.52075 0.0
H477 H 0.34643 0.14907 0.47008 0.0
H478 H 0.24757 0.03598 0.50592 0.0
H479 H 0.22372 0.96814 0.52155 0.0
H480 H 0.20403 0.87871 0.48235 0.0
H481 H 0.22843 0.94621 0.46649 0.0
C482 C 0.14753 0.09256 0.4345 0.0
C483 C 0.1236 0.05081 0.42538 0.0
C484 C 0.18463 0.09991 0.44404 0.0
C485 C 0.19925 0.06622 0.44433 0.0
C486 C 0.17647 0.02539 0.43477 0.0
C487 C 0.13885 0.01761 0.42547 0.0
C488 C 0.23569 0.07156 0.45531 0.0
C489 C 0.22405 0.03372 0.46439 0.0
C490 C 0.28048 0.11371 0.45736 0.0
C491 C 0.2962 0.15402 0.44762 0.0
C492 C 0.29658 0.14724 0.43201 0.0
C493 C 0.31114 0.18534 0.42291 0.0
C494 C 0.32571 0.23047 0.42928 0.0
C495 C 0.32588 0.23762 0.44478 0.0
C496 C 0.31133 0.19964 0.45394 0.0
C497 C 0.38114 0.05284 0.49994 0.0
C498 C 0.39569 0.08735 0.51177 0.0
C499 C 0.35137 0.05114 0.48858 0.0
C500 C 0.33524 0.08366 0.48888 0.0
C501 C 0.35101 0.11919 0.50038 0.0
C502 C 0.38093 0.12099 0.51174 0.0
C503 C 0.30009 0.07911 0.47761 0.0
C504 C 0.31186 0.11708 0.46861 0.0
C505 C 0.2555 0.03697 0.47551 0.0
C506 C 0.24023 0.99623 0.48503 0.0
C507 C 0.23845 0.00191 0.50064 0.0
C508 C 0.2248 0.96352 0.50954 0.0
C509 C 0.21247 0.91917 0.50295 0.0
C510 C 0.21363 0.91309 0.48744 0.0
C511 C 0.22733 0.95139 0.47849 0.0
H512 H 0.20193 0.88949 0.50986 0.0
H513 H 0.33696 0.25991 0.42221 0.0
H514 H 0.16657 0.14533 0.76359 0.0
H515 H 0.24001 0.20106 0.77729 0.0
H516 H 0.19968 0.30786 0.77732 0.0
H517 H 0.12625 0.25263 0.76365 0.0
H518 H 0.29568 0.34256 0.77044 0.0
H519 H 0.18179 0.24876 0.80754 0.0
H520 H 0.12437 0.17443 0.81894 0.0
H521 H 0.23445 0.13942 0.82345 0.0
H522 H 0.2924 0.2133 0.81188 0.0
H523 H 0.4279 0.50266 0.83071 0.0
H524 H 0.37038 0.44752 0.81194 0.0
H525 H 0.41463 0.34648 0.81982 0.0
H526 H 0.4706 0.40054 0.8391 0.0
H527 H 0.32185 0.30579 0.82112 0.0
H528 H 0.43843 0.40342 0.7865 0.0
H529 H 0.49628 0.47758 0.77512 0.0
H530 H 0.38359 0.50534 0.76564 0.0
H531 H 0.32512 0.43166 0.77716 0.0
C532 C 0.1733 0.18069 0.76647 0.0
C533 C 0.14024 0.19434 0.76261 0.0
C534 C 0.2153 0.21246 0.7743 0.0
C535 C 0.22508 0.25845 0.77836 0.0
C536 C 0.19278 0.27253 0.77425 0.0
C537 C 0.15066 0.24075 0.76652 0.0
C538 C 0.26808 0.2915 0.78738 0.0
C539 C 0.30141 0.33479 0.78156 0.0
C540 C 0.27603 0.28061 0.8017 0.0
C541 C 0.24126 0.23625 0.80868 0.0
C542 C 0.19364 0.22501 0.81084 0.0
C543 C 0.16102 0.183 0.81736 0.0
C544 C 0.17571 0.15214 0.82187 0.0
C545 C 0.2231 0.1633 0.81992 0.0
C546 C 0.25584 0.20524 0.81339 0.0
C547 C 0.42568 0.46886 0.82836 0.0
C548 C 0.45369 0.45594 0.83647 0.0
C549 C 0.39314 0.43754 0.8175 0.0
C550 C 0.38835 0.3929 0.81439 0.0
C551 C 0.41776 0.38076 0.82201 0.0
C552 C 0.45012 0.41194 0.83293 0.0
C553 C 0.34963 0.35739 0.80428 0.0
C554 C 0.31683 0.31353 0.80991 0.0
C555 C 0.34238 0.36777 0.78977 0.0
C556 C 0.37743 0.41214 0.78281 0.0
C557 C 0.42602 0.42551 0.7821 0.0
C558 C 0.45892 0.46744 0.7756 0.0
C559 C 0.44363 0.4962 0.76969 0.0
C560 C 0.39538 0.48304 0.77024 0.0
C561 C 0.36233 0.44116 0.77673 0.0
H562 H 0.46916 0.52865 0.76466 0.0
H563 H 0.15041 0.11964 0.82692 0.0
H564 H 0.90072 0.98893 0.7108 0.0
H565 H 0.83861 0.98651 0.69495 0.0
H566 H 0.92509 0.13742 0.69069 0.0
H567 H 0.98502 0.14016 0.70743 0.0
H568 H 0.84137 0.11938 0.69281 0.0
H569 H 0.91286 0.04564 0.66255 0.0
H570 H 0.93827 0.98743 0.65632 0.0
H571 H 0.7929 0.87416 0.65881 0.0
H572 H 0.76671 0.93169 0.66522 0.0
H573 H 0.74513 0.14082 0.6251 0.0
H574 H 0.79653 0.1364 0.64376 0.0
H575 H 0.68472 0.99591 0.65341 0.0
H576 H 0.63249 0.00037 0.635 0.0
H577 H 0.77472 0.00404 0.64936 0.0
H578 H 0.70556 0.0843 0.67741 0.0
H579 H 0.68459 0.1465 0.68186 0.0
H580 H 0.83315 0.25319 0.68133 0.0
H581 H 0.85497 0.19165 0.67667 0.0
C582 C 0.90608 0.02148 0.70651 0.0
C583 C 0.9475 0.06469 0.71026 0.0
C584 C 0.87083 0.0201 0.69735 0.0
C585 C 0.87744 0.06164 0.69128 0.0
C586 C 0.91886 0.10484 0.6952 0.0
C587 C 0.95322 0.10641 0.70474 0.0
C588 C 0.84165 0.06063 0.68083 0.0
C589 C 0.82736 0.09441 0.68323 0.0
C590 C 0.82224 0.0275 0.66844 0.0
C591 C 0.83792 0.99292 0.66452 0.0
C592 C 0.88637 0.0083 0.66186 0.0
C593 C 0.9009 0.97543 0.65828 0.0
C594 C 0.86724 0.92712 0.65722 0.0
C595 C 0.81895 0.91158 0.65967 0.0
C596 C 0.80423 0.94429 0.66326 0.0
C597 C 0.73113 0.10922 0.63133 0.0
C598 C 0.68457 0.07102 0.62858 0.0
C599 C 0.76067 0.10668 0.64194 0.0
C600 C 0.74426 0.06595 0.65002 0.0
C601 C 0.69802 0.02762 0.64726 0.0
C602 C 0.66833 0.0302 0.6367 0.0
C603 C 0.77569 0.06331 0.66124 0.0
C604 C 0.78885 0.02877 0.659 0.0
C605 C 0.79495 0.0964 0.67356 0.0
C606 C 0.78186 0.13337 0.67659 0.0
C607 C 0.73373 0.12104 0.67815 0.0
C608 C 0.7217 0.15618 0.68072 0.0
C609 C 0.7575 0.20377 0.68185 0.0
C610 C 0.80544 0.21632 0.68045 0.0
C611 C 0.81767 0.18132 0.67786 0.0
H612 H 0.74811 0.23093 0.68383 0.0
H613 H 0.87857 0.90174 0.65445 0.0
H614 H 0.97113 0.95545 0.04787 0.0
H615 H 0.93029 0.90178 0.02627 0.0
H616 H 0.89126 0.00013 0.0107 0.0
H617 H 0.93051 0.05313 0.03248 0.0
H618 H 0.81959 0.91496 0.00658 0.0
H619 H 0.98682 0.99045 0.99578 0.0
H620 H 0.07148 0.016 0.00038 0.0
H621 H 0.03579 0.87111 0.00163 0.0
H622 H 0.95077 0.8447 0.99724 0.0
H623 H 0.76518 0.82081 0.93154 0.0
H624 H 0.8107 0.87581 0.95246 0.0
H625 H 0.8182 0.76443 0.97336 0.0
H626 H 0.77106 0.70876 0.95296 0.0
H627 H 0.90666 0.85651 0.97417 0.0
H628 H 0.73808 0.78285 0.98498 0.0
H629 H 0.65466 0.75966 0.97926 0.0
H630 H 0.69548 0.90566 0.97686 0.0
H631 H 0.77937 0.92968 0.98229 0.0
C632 C 0.9536 0.96552 0.0399 0.0
C633 C 0.95429 0.00869 0.04187 0.0
C634 C 0.9305 0.93492 0.0275 0.0
C635 C 0.90852 0.94735 0.01669 0.0
C636 C 0.90807 0.98982 0.01886 0.0
C637 C 0.93057 0.02011 0.03134 0.0
C638 C 0.88632 0.9164 0.00305 0.0
C639 C 0.83895 0.90277 -0.00059 0.0
C640 C 0.91125 0.89987 0.99376 0.0
C641 C 0.96237 0.91562 0.99633 0.0
C642 C 0.99698 0.96405 0.99714 0.0
C643 C 0.04504 0.97868 -0.0003 0.0
C644 C 0.05899 0.9452 0.00133 0.0
C645 C 0.02492 0.897 0.00038 0.0
C646 C 0.9768 0.88218 0.99784 0.0
C647 C 0.77671 0.80804 0.94054 0.0
C648 C 0.76438 0.76029 0.94053 0.0
C649 C 0.80289 0.83956 0.95243 0.0
C650 C 0.81755 0.82397 0.96442 0.0
C651 C 0.80746 0.77709 0.96412 0.0
C652 C 0.78076 0.74542 0.95237 0.0
C653 C 0.84038 0.85553 0.97779 0.0
C654 C 0.88765 0.86905 0.98136 0.0
C655 C 0.81561 0.87241 0.98693 0.0
C656 C 0.76508 0.85803 0.98387 0.0
C657 C 0.72934 0.80998 0.9831 0.0
C658 C 0.68197 0.79669 0.97993 0.0
C659 C 0.6698 0.83115 0.97766 0.0
C660 C 0.70498 0.879 0.9786 0.0
C661 C 0.75244 0.89248 0.98172 0.0
H662 H 0.6331 0.82079 0.97521 0.0
H663 H 0.09621 0.9566 0.00331 0.0
H664 H 0.97479 0.93136 0.3797 0.0
H665 H 0.98761 0.8685 0.36914 0.0
H666 H 0.13302 0.9719 0.35879 0.0
H667 H 0.11979 0.03518 0.36891 0.0
H668 H 0.09558 0.91192 0.3363 0.0
H669 H 0.10601 0.89759 0.38807 0.0
H670 H 0.08258 0.8917 0.4145 0.0
H671 H 0.95438 0.75983 0.40387 0.0
H672 H 0.97665 0.76525 0.37731 0.0
H673 H 0.14612 0.73003 0.31651 0.0
H674 H 0.14688 0.78729 0.33526 0.0
H675 H 0.9942 0.72309 0.33071 0.0
H676 H 0.99309 0.66814 0.31122 0.0
H677 H 0.04697 0.76551 0.36281 0.0
H678 H 0.03426 0.79554 0.3099 0.0
H679 H 0.06302 0.79903 0.28415 0.0
H680 H 0.20482 0.90449 0.29863 0.0
H681 H 0.177 0.90026 0.32463 0.0
C682 C 0.00948 0.94068 0.37516 0.0
C683 C 0.04628 0.9881 0.37509 0.0
C684 C 0.01692 0.9047 0.36925 0.0
C685 C 0.06159 0.91536 0.36343 0.0
C686 C 0.09833 0.96282 0.36327 0.0
C687 C 0.09071 -0.00108 0.36903 0.0
C688 C 0.06905 0.87701 0.35694 0.0
C689 C 0.08581 0.88045 0.34227 0.0
C690 C 0.05632 0.83571 0.36466 0.0
C691 C 0.04287 0.832 0.38066 0.0
C692 C 0.07265 0.86748 0.39134 0.0
C693 C 0.0596 0.86422 0.40635 0.0
C694 C 0.01698 0.82547 0.41086 0.0
C695 C 0.98738 0.78984 0.40036 0.0
C696 C 0.00024 0.79295 0.38532 0.0
C697 C 0.11254 0.72768 0.31954 0.0
C698 C 0.06974 0.69507 0.31196 0.0
C699 C 0.11304 0.75996 0.33046 0.0
C700 C 0.07061 0.75928 0.33427 0.0
C701 C 0.02721 0.72371 0.32798 0.0
C702 C 0.02676 0.69219 0.31679 0.0
C703 C 0.07242 0.80063 0.34227 0.0
C704 C 0.05742 0.79759 0.3571 0.0
C705 C 0.0875 0.8427 0.33486 0.0
C706 C 0.10369 0.84724 0.31918 0.0
C707 C 0.07162 0.81926 0.30759 0.0
C708 C 0.08775 0.82136 0.29296 0.0
C709 C 0.13575 0.85201 0.28973 0.0
C710 C 0.16766 0.88073 0.30115 0.0
C711 C 0.15175 0.87842 0.31584 0.0
H712 H 0.14821 0.85352 0.27839 0.0
H713 H 0.00693 0.82301 0.42248 0.0
H714 H 0.18233 0.13683 0.71144 0.0
H715 H 0.24707 0.13294 0.69847 0.0
H716 H 0.18117 0.98477 0.70696 0.0
H717 H 0.11721 0.98929 0.72074 0.0
H718 H 0.27406 0.02278 0.70856 0.0
H719 H 0.16741 0.02265 0.67279 0.0
H720 H 0.11795 0.0495 0.66084 0.0
H721 H 0.24341 0.18259 0.65282 0.0
H722 H 0.29358 0.1568 0.66492 0.0
H723 H 0.37976 0.99132 0.63702 0.0
H724 H 0.3235 0.98492 0.6565 0.0
H725 H 0.41951 0.12918 0.67186 0.0
H726 H 0.47743 0.13541 0.65296 0.0
H727 H 0.30954 0.0865 0.65807 0.0
H728 H 0.41437 0.08096 0.69573 0.0
H729 H 0.45873 0.04596 0.70612 0.0
H730 H 0.32868 0.91223 0.70809 0.0
H731 H 0.28368 0.94633 0.69748 0.0
C732 C 0.18181 0.10349 0.71064 0.0
C733 C 0.14449 0.06318 0.71688 0.0
C734 C 0.21875 0.10124 0.70318 0.0
C735 C 0.21832 0.05822 0.70134 0.0
C736 C 0.18209 0.01826 0.70813 0.0
C737 C 0.14555 0.02081 0.71595 0.0
C738 C 0.25463 0.05502 0.69178 0.0
C739 C 0.28144 0.03633 0.69747 0.0
C740 C 0.26422 0.07231 0.67723 0.0
C741 C 0.2342 0.08792 0.66988 0.0
C742 C 0.18442 0.05777 0.66857 0.0
C743 C 0.15626 0.07278 0.66176 0.0
C744 C 0.17751 0.11776 0.65611 0.0
C745 C 0.227 0.14778 0.65722 0.0
C746 C 0.25532 0.13296 0.66404 0.0
C747 C 0.38997 0.02118 0.64488 0.0
C748 C 0.43312 0.06409 0.64329 0.0
C749 C 0.35756 0.01744 0.65597 0.0
C750 C 0.36759 0.05651 0.66559 0.0
C751 C 0.41143 0.09857 0.66456 0.0
C752 C 0.44421 0.10216 0.65364 0.0
C753 C 0.3296 0.05582 0.67506 0.0
C754 C 0.3021 0.07322 0.66921 0.0
C755 C 0.31879 0.0364 0.68923 0.0
C756 C 0.34581 0.01601 0.69562 0.0
C757 C 0.39535 0.04395 0.6982 0.0
C758 C 0.42058 0.02432 0.70418 0.0
C759 C 0.39658 0.97685 0.70771 0.0
C760 C 0.34725 0.94896 0.70532 0.0
C761 C 0.32187 0.96843 0.69934 0.0
H762 H 0.41617 0.96172 0.71234 0.0
H763 H 0.15565 0.12933 0.65084 0.0
H764 H 0.19305 0.16343 0.05773 0.0
H765 H 0.25875 0.20882 0.04061 0.0
H766 H 0.18235 0.27392 0.02446 0.0
H767 H 0.11739 0.22983 0.04157 0.0
H768 H 0.21605 0.23081 0.00179 0.0
H769 H 0.26884 0.33816 0.04579 0.0
H770 H 0.29222 0.36023 0.07231 0.0
H771 H 0.4055 0.3293 0.06602 0.0
H772 H 0.38228 0.30635 0.03948 0.0
H773 H 0.36727 0.42517 0.96075 0.0
H774 H 0.31394 0.37358 0.97955 0.0
H775 H 0.42255 0.3435 0.99303 0.0
H776 H 0.47676 0.3961 0.97433 0.0
H777 H 0.37803 0.36045 0.01717 0.0
H778 H 0.33222 0.26202 0.97269 0.0
H779 H 0.30982 0.23967 0.94613 0.0
H780 H 0.18432 0.25072 0.95312 0.0
H781 H 0.20636 0.27391 0.97969 0.0
C782 C 0.19049 0.18773 0.05062 0.0
C783 C 0.15 0.19303 0.05103 0.0
C784 C 0.228 0.21359 0.04088 0.0
C785 C 0.22514 0.24449 0.03128 0.0
C786 C 0.18506 0.25011 0.03177 0.0
C787 C 0.14809 0.22502 0.04163 0.0
C788 C 0.26303 0.27029 0.02035 0.0
C789 C 0.25143 0.25929 0.00512 0.0
C790 C 0.30955 0.30627 0.02477 0.0
C791 C 0.3234 0.31989 0.04071 0.0
C792 C 0.29838 0.33553 0.0501 0.0
C793 C 0.31168 0.34833 0.06512 0.0
C794 C 0.3502 0.34599 0.07086 0.0
C795 C 0.37558 0.33097 0.06157 0.0
C796 C 0.36238 0.31808 0.04654 0.0
C797 C 0.38004 0.40798 0.96781 0.0
C798 C 0.42623 0.41472 0.96608 0.0
C799 C 0.34938 0.37818 0.97846 0.0
C800 C 0.36412 0.35431 0.98756 0.0
C801 C 0.41047 0.36147 0.98606 0.0
C802 C 0.4412 0.39121 0.97533 0.0
C803 C 0.33062 0.32187 0.99857 0.0
C804 C 0.34297 0.33147 0.0138 0.0
C805 C 0.2848 0.28425 0.99415 0.0
C806 C 0.27116 0.27006 0.97818 0.0
C807 C 0.30003 0.26005 0.96855 0.0
C808 C 0.28737 0.24718 0.95349 0.0
C809 C 0.24573 0.24387 0.94793 0.0
C810 C 0.21659 0.25333 0.95744 0.0
C811 C 0.22913 0.26629 0.97251 0.0
H812 H 0.23598 0.2339 0.93627 0.0
H813 H 0.36048 0.35596 0.08249 0.0
H814 H 0.09828 0.2373 0.39034 0.0
H815 H 0.10476 0.29996 0.37494 0.0
H816 H 0.98181 0.19672 0.34902 0.0
H817 H 0.975 0.13442 0.36424 0.0
H818 H 0.05988 0.25233 0.33171 0.0
H819 H 0.9719 0.27183 0.37301 0.0
H820 H 0.95935 0.28652 0.3995 0.0
H821 H 0.08888 0.42141 0.40018 0.0
H822 H 0.10253 0.40721 0.37373 0.0
H823 H 0.99887 0.38032 0.28654 0.0
H824 H 0.99817 0.32935 0.30534 0.0
H825 H 0.10908 0.45067 0.33021 0.0
H826 H 0.10772 0.50258 0.31191 0.0
H827 H 0.0468 0.39174 0.34886 0.0
H828 H 0.13385 0.37608 0.30771 0.0
H829 H 0.14909 0.36277 0.28137 0.0
H830 H 0.02677 0.22263 0.28058 0.0
H831 H 0.01038 0.23532 0.30686 0.0
C832 C 0.07231 0.22816 0.38148 0.0
C833 C 0.03628 0.18089 0.37846 0.0
C834 C 0.07603 0.26394 0.37271 0.0
C835 C 0.04383 0.25287 0.36081 0.0
C836 C 0.00715 0.20595 0.35809 0.0
C837 C 0.00327 0.1704 0.36685 0.0
C838 C 0.04928 0.28927 0.3506 0.0
C839 C 0.05663 0.28263 0.33542 0.0
C840 C 0.04681 0.32964 0.35558 0.0
C841 C 0.03852 0.33821 0.37145 0.0
C842 C 0.99793 0.30443 0.37885 0.0
C843 C 0.99057 0.31271 0.39385 0.0
C844 C 0.02338 0.35481 0.40153 0.0
C845 C 0.06354 0.38878 0.39422 0.0
C846 C 0.07109 0.38065 0.37923 0.0
C847 C 0.02255 0.39649 0.29613 0.0
C848 C 0.05348 0.44575 0.29763 0.0
C849 C 0.02259 0.3671 0.30679 0.0
C850 C 0.05434 0.38601 0.31904 0.0
C851 C 0.08454 0.4352 0.32079 0.0
C852 C 0.08408 0.46479 0.31021 0.0
C853 C 0.05614 0.35415 0.32985 0.0
C854 C 0.05046 0.36171 0.34513 0.0
C855 C 0.0607 0.31477 0.32501 0.0
C856 C 0.07071 0.3068 0.30923 0.0
C857 C 0.11004 0.34252 0.30189 0.0
C858 C 0.11889 0.33508 0.28697 0.0
C859 C 0.08886 0.29192 0.2793 0.0
C860 C 0.04998 0.25605 0.28654 0.0
C861 C 0.04093 0.26334 0.30145 0.0
H862 H 0.09577 0.28623 0.26774 0.0
H863 H 0.01761 0.36115 0.41314 0.0
loop_
_geom_bond_atom_site_label_1
_geom_bond_atom_site_label_2
_geom_bond_distance
_geom_bond_site_symmetry_2
_ccdc_geom_bond_type
Co0 O1 2.216 . S
Co0 O2 2.091 . S
Co0 O4 2.004 . S
Co0 O10 2.021 . S
Co0 O12 2.137 . S
Co0 O13 2.244 . S
O1 Co0 2.216 . S
O1 C8 1.247 . S
O2 Co0 2.091 . S
O2 C8 1.261 . S
C3 O12 1.247 . S
C3 O13 1.272 . S
O4 Co0 2.004 . S
O4 C9 1.259 . S
Co5 O6 2.061 . S
Co5 O11 2.052 1_455 S
Co5 O13 2.135 . S
O6 Co5 2.061 . S
O6 C9 1.235 . S
C7 O10 1.238 . S
C7 O11 1.241 1_455 S
C8 O1 1.247 . S
C8 O2 1.261 . S
C9 O4 1.259 . S
C9 O6 1.235 . S
O10 Co0 2.021 . S
O10 C7 1.238 . S
O11 Co5 2.052 1_655 S
O11 C7 1.241 1_655 S
O12 Co0 2.137 . S
O12 C3 1.247 . S
O13 Co0 2.244 . S
O13 C3 1.272 . S
O13 Co5 2.135 . S
Co14 O15 2.216 . S
Co14 O16 2.091 . S
Co14 O18 2.004 . S
Co14 O24 2.021 . S
Co14 O26 2.137 . S
Co14 O27 2.244 1_545 S
O15 Co14 2.216 . S
O15 C22 1.247 . S
O16 Co14 2.091 . S
O16 C22 1.261 . S
C17 O26 1.247 . S
C17 O27 1.272 1_545 S
O18 Co14 2.004 . S
O18 C23 1.259 . S
Co19 O20 2.061 1_565 S
Co19 O25 2.052 1_465 S
Co19 O27 2.135 . S
O20 Co19 2.061 1_545 S
O20 C23 1.235 . S
C21 O24 1.238 1_655 S
C21 O25 1.241 . S
C22 O15 1.247 . S
C22 O16 1.261 . S
C23 O18 1.259 . S
C23 O20 1.235 . S
O24 Co14 2.021 . S
O24 C21 1.238 1_455 S
O25 Co19 2.052 1_645 S
O25 C21 1.241 . S
O26 Co14 2.137 . S
O26 C17 1.247 . S
O27 Co14 2.244 1_565 S
O27 C17 1.272 1_565 S
O27 Co19 2.135 . S
Co28 O29 2.216 . S
Co28 O30 2.091 . S
Co28 O32 2.004 . S
Co28 O38 2.021 . S
Co28 O40 2.137 . S
Co28 O41 2.244 . S
O29 Co28 2.216 . S
O29 C36 1.247 . S
O30 Co28 2.091 . S
O30 C36 1.261 . S
C31 O40 1.247 . S
C31 O41 1.272 . S
O32 Co28 2.004 . S
O32 C37 1.259 . S
Co33 O34 2.061 . S
Co33 O39 2.052 . S
Co33 O41 2.135 . S
O34 Co33 2.061 . S
O34 C37 1.235 . S
C35 O38 1.238 . S
C35 O39 1.241 . S
C36 O29 1.247 . S
C36 O30 1.261 . S
C37 O32 1.259 . S
C37 O34 1.235 . S
O38 Co28 2.021 . S
O38 C35 1.238 . S
O39 Co33 2.052 . S
O39 C35 1.241 . S
O40 Co28 2.137 . S
O40 C31 1.247 . S
O41 Co28 2.244 . S
O41 C31 1.272 . S
O41 Co33 2.135 . S
H42 O68 0.856 . S
H43 O71 0.854 . S
H44 C79 0.930 . S
H45 C80 0.930 . S
H46 C82 0.930 . S
H47 C83 0.930 . S
H48 C85 0.931 1_655 S
H49 C86 0.930 1_655 S
H50 C88 0.930 . S
H51 C89 0.929 . S
H52 C91 0.930 1_655 S
H53 C92 0.931 1_655 S
H54 C94 0.930 . S
H55 C95 0.929 . S
H56 C97 0.931 1_655 S
H57 C98 0.930 1_655 S
H58 C100 0.930 . S
H59 C101 0.932 . S
H60 C103 0.930 . S
H61 C104 0.929 . S
H62 C106 0.931 . S
H63 C107 0.930 . S
H64 C109 0.931 . S
H65 C110 0.931 1_655 S
H66 C112 0.930 . S
H67 C113 0.929 . S
O68 H42 0.856 . S
O68 C114 1.300 . S
O69 C114 1.209 . S
O70 C115 1.199 . S
O71 H43 0.854 . S
O71 C115 1.297 . S
C72 C73 1.404 . S
C72 C77 1.397 . S
C72 C78 1.492 . S
C73 C72 1.404 . S
C73 C74 1.396 . S
C73 C84 1.492 . S
C74 C73 1.396 . S
C74 C75 1.397 . S
C74 C90 1.509 . S
C75 C74 1.397 . S
C75 C76 1.412 . S
C75 C96 1.485 . S
C76 C75 1.412 . S
C76 C77 1.388 . S
C76 C102 1.490 . S
C77 C72 1.397 . S
C77 C76 1.388 . S
C77 C108 1.519 . S
C78 C72 1.492 . S
C78 C79 1.363 1_455 S
C78 C83 1.390 . S
C79 H44 0.930 . S
C79 C78 1.363 1_655 S
C79 C80 1.372 . S
C80 H45 0.930 . S
C80 C79 1.372 . S
C80 C81 1.383 1_655 S
C81 C80 1.383 1_455 S
C81 C82 1.395 . S
C82 H46 0.930 . S
C82 C81 1.395 . S
C82 C83 1.362 . S
C83 H47 0.930 . S
C83 C78 1.390 . S
C83 C82 1.362 . S
C84 C73 1.492 . S
C84 C85 1.377 . S
C84 C89 1.397 . S
C85 H48 0.931 1_455 S
C85 C84 1.377 . S
C85 C86 1.376 . S
C86 H49 0.930 1_455 S
C86 C85 1.376 . S
C86 C87 1.376 . S
C87 C86 1.376 . S
C87 C88 1.378 . S
C87 C114 1.486 . S
C88 H50 0.930 . S
C88 C87 1.378 . S
C88 C89 1.376 . S
C89 H51 0.929 . S
C89 C84 1.397 . S
C89 C88 1.376 . S
C90 C74 1.509 . S
C90 C91 1.391 . S
C90 C95 1.386 . S
C91 H52 0.930 1_455 S
C91 C90 1.391 . S
C91 C92 1.375 . S
C92 H53 0.931 1_455 S
C92 C91 1.375 . S
C92 C93 1.375 . S
C93 C92 1.375 . S
C93 C94 1.361 . S
C94 H54 0.930 . S
C94 C93 1.361 . S
C94 C95 1.399 . S
C95 H55 0.929 . S
C95 C90 1.386 . S
C95 C94 1.399 . S
C96 C75 1.485 . S
C96 C97 1.394 . S
C96 C101 1.360 . S
C97 H56 0.931 1_455 S
C97 C96 1.394 . S
C97 C98 1.372 . S
C98 H57 0.930 1_455 S
C98 C97 1.372 . S
C98 C99 1.397 . S
C99 C98 1.397 . S
C99 C100 1.390 . S
C99 C115 1.476 . S
C100 H58 0.930 . S
C100 C99 1.390 . S
C100 C101 1.366 . S
C101 H59 0.932 . S
C101 C96 1.360 . S
C101 C100 1.366 . S
C102 C76 1.490 . S
C102 C103 1.380 1_455 S
C102 C107 1.386 . S
C103 H60 0.930 . S
C103 C102 1.380 1_655 S
C103 C104 1.381 . S
C104 H61 0.929 . S
C104 C103 1.381 . S
C104 C105 1.371 1_655 S
C105 C104 1.371 1_455 S
C105 C106 1.380 . S
C106 H62 0.931 . S
C106 C105 1.380 . S
C106 C107 1.387 . S
C107 H63 0.930 . S
C107 C102 1.386 . S
C107 C106 1.387 . S
C108 C77 1.519 . S
C108 C109 1.376 1_455 S
C108 C113 1.361 . S
C109 H64 0.931 . S
C109 C108 1.376 1_655 S
C109 C110 1.385 1_655 S
C110 H65 0.931 1_455 S
C110 C109 1.385 1_455 S
C110 C111 1.363 . S
C111 C110 1.363 . S
C111 C112 1.385 . S
C112 H66 0.930 . S
C112 C111 1.385 . S
C112 C113 1.396 . S
C113 H67 0.929 . S
C113 C108 1.361 . S
C113 C112 1.396 . S
C114 O68 1.300 . S
C114 O69 1.209 . S
C114 C87 1.486 . S
C115 O70 1.199 . S
C115 O71 1.297 . S
C115 C99 1.476 . S
H116 O142 0.856 . S
H117 O145 0.854 . S
H118 C153 0.930 . S
H119 C154 0.930 1_565 S
H120 C156 0.930 . S
H121 C157 0.930 . S
H122 C159 0.931 . S
H123 C160 0.930 . S
H124 C162 0.930 . S
H125 C163 0.929 . S
H126 C165 0.930 . S
H127 C166 0.931 . S
H128 C168 0.930 . S
H129 C169 0.929 . S
H130 C171 0.931 . S
H131 C172 0.930 . S
H132 C174 0.930 . S
H133 C175 0.932 . S
H134 C177 0.930 . S
H135 C178 0.929 . S
H136 C180 0.931 . S
H137 C181 0.930 . S
H138 C183 0.929 . S
H139 C184 0.931 . S
H140 C186 0.930 . S
H141 C187 0.929 . S
O142 H116 0.856 . S
O142 C188 1.300 . S
O143 C188 1.209 . S
O144 C189 1.199 . S
O145 H117 0.854 . S
O145 C189 1.297 . S
C146 C147 1.404 . S
C146 C151 1.397 . S
C146 C152 1.492 . S
C147 C146 1.404 . S
C147 C148 1.396 . S
C147 C158 1.492 . S
C148 C147 1.396 . S
C148 C149 1.397 . S
C148 C164 1.509 . S
C149 C148 1.397 . S
C149 C150 1.412 . S
C149 C170 1.485 . S
C150 C149 1.412 . S
C150 C151 1.388 . S
C150 C176 1.490 . S
C151 C146 1.397 . S
C151 C150 1.388 . S
C151 C182 1.519 . S
C152 C146 1.492 . S
C152 C153 1.363 . S
C152 C157 1.390 . S
C153 H118 0.930 . S
C153 C152 1.363 . S
C153 C154 1.372 . S
C154 H119 0.930 1_545 S
C154 C153 1.372 . S
C154 C155 1.383 . S
C155 C154 1.383 . S
C155 C156 1.395 . S
C156 H120 0.930 . S
C156 C155 1.395 . S
C156 C157 1.362 . S
C157 H121 0.930 . S
C157 C152 1.390 . S
C157 C156 1.362 . S
C158 C147 1.492 . S
C158 C159 1.377 . S
C158 C163 1.397 . S
C159 H122 0.931 . S
C159 C158 1.377 . S
C159 C160 1.376 . S
C160 H123 0.930 . S
C160 C159 1.376 . S
C160 C161 1.376 . S
C161 C160 1.376 . S
C161 C162 1.378 . S
C161 C188 1.486 . S
C162 H124 0.930 . S
C162 C161 1.378 . S
C162 C163 1.376 . S
C163 H125 0.929 . S
C163 C158 1.397 . S
C163 C162 1.376 . S
C164 C148 1.509 . S
C164 C165 1.391 . S
C164 C169 1.386 . S
C165 H126 0.930 . S
C165 C164 1.391 . S
C165 C166 1.375 . S
C166 H127 0.931 . S
C166 C165 1.375 . S
C166 C167 1.375 . S
C167 C166 1.375 . S
C167 C168 1.361 . S
C168 H128 0.930 . S
C168 C167 1.361 . S
C168 C169 1.399 . S
C169 H129 0.929 . S
C169 C164 1.386 . S
C169 C168 1.399 . S
C170 C149 1.485 . S
C170 C171 1.394 . S
C170 C175 1.360 . S
C171 H130 0.931 . S
C171 C170 1.394 . S
C171 C172 1.372 . S
C172 H131 0.930 . S
C172 C171 1.372 . S
C172 C173 1.397 . S
C173 C172 1.397 . S
C173 C174 1.390 . S
C173 C189 1.476 . S
C174 H132 0.930 . S
C174 C173 1.390 . S
C174 C175 1.366 . S
C175 H133 0.932 . S
C175 C170 1.360 . S
C175 C174 1.366 . S
C176 C150 1.490 . S
C176 C177 1.380 . S
C176 C181 1.386 . S
C177 H134 0.930 . S
C177 C176 1.380 . S
C177 C178 1.381 . S
C178 H135 0.929 . S
C178 C177 1.381 . S
C178 C179 1.371 . S
C179 C178 1.371 . S
C179 C180 1.380 . S
C180 H136 0.931 . S
C180 C179 1.380 . S
C180 C181 1.387 . S
C181 H137 0.930 . S
C181 C176 1.386 . S
C181 C180 1.387 . S
C182 C151 1.519 . S
C182 C183 1.377 . S
C182 C187 1.361 . S
C183 H138 0.929 . S
C183 C182 1.377 . S
C183 C184 1.386 . S
C184 H139 0.931 . S
C184 C183 1.386 . S
C184 C185 1.363 . S
C185 C184 1.363 . S
C185 C186 1.385 . S
C186 H140 0.930 . S
C186 C185 1.385 . S
C186 C187 1.396 . S
C187 H141 0.929 . S
C187 C182 1.361 . S
C187 C186 1.396 . S
C188 O142 1.300 . S
C188 O143 1.209 . S
C188 C161 1.486 . S
C189 O144 1.199 . S
C189 O145 1.297 . S
C189 C173 1.476 . S
H190 O216 0.856 . S
H191 O219 0.854 . S
H192 C227 0.930 . S
H193 C228 0.930 . S
H194 C230 0.930 . S
H195 C231 0.930 . S
H196 C233 0.931 . S
H197 C234 0.930 . S
H198 C236 0.930 . S
H199 C237 0.929 . S
H200 C239 0.930 . S
H201 C240 0.931 . S
H202 C242 0.930 . S
H203 C243 0.929 . S
H204 C245 0.931 . S
H205 C246 0.930 . S
H206 C248 0.930 . S
H207 C249 0.932 . S
H208 C251 0.930 . S
H209 C252 0.929 . S
H210 C254 0.931 . S
H211 C255 0.930 . S
H212 C257 0.929 . S
H213 C258 0.931 . S
H214 C260 0.930 . S
H215 C261 0.929 . S
O216 H190 0.856 . S
O216 C262 1.300 1_554 S
O217 C262 1.193 1_554 S
O218 C263 1.199 . S
O219 H191 0.854 . S
O219 C263 1.297 . S
C220 C221 1.404 . S
C220 C225 1.397 . S
C220 C226 1.492 . S
C221 C220 1.404 . S
C221 C222 1.396 . S
C221 C232 1.492 . S
C222 C221 1.396 . S
C222 C223 1.397 . S
C222 C238 1.509 . S
C223 C222 1.397 . S
C223 C224 1.412 . S
C223 C244 1.485 . S
C224 C223 1.412 . S
C224 C225 1.388 . S
C224 C250 1.490 . S
C225 C220 1.397 . S
C225 C224 1.388 . S
C225 C256 1.519 . S
C226 C220 1.492 . S
C226 C227 1.363 . S
C226 C231 1.390 . S
C227 H192 0.930 . S
C227 C226 1.363 . S
C227 C228 1.372 . S
C228 H193 0.930 . S
C228 C227 1.372 . S
C228 C229 1.383 . S
C229 C228 1.383 . S
C229 C230 1.395 . S
C230 H194 0.930 . S
C230 C229 1.395 . S
C230 C231 1.362 . S
C231 H195 0.930 . S
C231 C226 1.390 . S
C231 C230 1.362 . S
C232 C221 1.492 . S
C232 C233 1.377 . S
C232 C237 1.397 . S
C233 H196 0.931 . S
C233 C232 1.377 . S
C233 C234 1.376 . S
C234 H197 0.930 . S
C234 C233 1.376 . S
C234 C235 1.376 . S
C235 C234 1.376 . S
C235 C236 1.378 . S
C235 C262 1.486 . S
C236 H198 0.930 . S
C236 C235 1.378 . S
C236 C237 1.376 . S
C237 H199 0.929 . S
C237 C232 1.397 . S
C237 C236 1.376 . S
C238 C222 1.509 . S
C238 C239 1.391 . S
C238 C243 1.386 . S
C239 H200 0.930 . S
C239 C238 1.391 . S
C239 C240 1.375 . S
C240 H201 0.931 . S
C240 C239 1.375 . S
C240 C241 1.375 . S
C241 C240 1.375 . S
C241 C242 1.361 . S
C242 H202 0.930 . S
C242 C241 1.361 . S
C242 C243 1.399 . S
C243 H203 0.929 . S
C243 C238 1.386 . S
C243 C242 1.399 . S
C244 C223 1.485 . S
C244 C245 1.394 . S
C244 C249 1.360 . S
C245 H204 0.931 . S
C245 C244 1.394 . S
C245 C246 1.372 . S
C246 H205 0.930 . S
C246 C245 1.372 . S
C246 C247 1.397 . S
C247 C246 1.397 . S
C247 C248 1.390 . S
C247 C263 1.476 . S
C248 H206 0.930 . S
C248 C247 1.390 . S
C248 C249 1.366 . S
C249 H207 0.932 . S
C249 C244 1.360 . S
C249 C248 1.366 . S
C250 C224 1.490 . S
C250 C251 1.380 . S
C250 C255 1.386 . S
C251 H208 0.930 . S
C251 C250 1.380 . S
C251 C252 1.381 . S
C252 H209 0.929 . S
C252 C251 1.381 . S
C252 C253 1.371 . S
C253 C252 1.371 . S
C253 C254 1.380 . S
C254 H210 0.931 . S
C254 C253 1.380 . S
C254 C255 1.387 . S
C255 H211 0.930 . S
C255 C250 1.386 . S
C255 C254 1.387 . S
C256 C225 1.519 . S
C256 C257 1.377 . S
C256 C261 1.361 . S
C257 H212 0.929 . S
C257 C256 1.377 . S
C257 C258 1.386 . S
C258 H213 0.931 . S
C258 C257 1.386 . S
C258 C259 1.363 . S
C259 C258 1.363 . S
C259 C260 1.385 . S
C260 H214 0.930 . S
C260 C259 1.385 . S
C260 C261 1.396 . S
C261 H215 0.929 . S
C261 C256 1.361 . S
C261 C260 1.396 . S
C262 O216 1.300 1_556 S
C262 O217 1.193 1_556 S
C262 C235 1.486 . S
C263 O218 1.199 . S
C263 O219 1.297 . S
C263 C247 1.476 . S
H264 C282 0.951 . S
H265 C284 0.951 . S
H266 C286 0.950 . S
H267 C287 0.950 . S
H268 C289 0.950 . S
H269 C292 0.950 . S
H270 C293 0.950 . S
H271 C295 0.950 . S
H272 C296 0.950 . S
H273 C297 0.951 . S
H274 C299 0.951 . S
H275 C301 0.947 . S
H276 C302 0.950 1_655 S
H277 C304 0.950 . S
H278 C307 0.950 . S
H279 C308 0.950 . S
H280 C310 0.950 . S
H281 C311 0.950 . S
C282 H264 0.951 . S
C282 C283 1.366 . S
C282 C284 1.388 . S
C283 C282 1.366 . S
C283 C287 1.385 . S
C284 H265 0.951 . S
C284 C282 1.388 . S
C284 C285 1.366 . S
C285 C284 1.366 . S
C285 C286 1.414 . S
C285 C288 1.499 . S
C286 H266 0.950 . S
C286 C285 1.414 . S
C286 C287 1.374 . S
C287 H267 0.950 . S
C287 C283 1.385 . S
C287 C286 1.374 . S
C288 C285 1.499 . S
C288 C289 1.373 . S
C288 C290 1.411 . S
C289 H268 0.950 . S
C289 C288 1.373 . S
C289 C305 1.377 . S
C290 C288 1.411 . S
C290 C291 1.510 1_455 S
C290 C304 1.367 1_455 S
C291 C290 1.510 1_655 S
C291 C292 1.397 . S
C291 C296 1.363 . S
C292 H269 0.950 . S
C292 C291 1.397 . S
C292 C293 1.334 . S
C293 H270 0.950 . S
C293 C292 1.334 . S
C293 C294 1.287 . S
C294 C293 1.287 . S
C294 C295 1.524 . S
C294 H313 0.913 . S
C295 H271 0.950 . S
C295 C294 1.524 . S
C295 C296 1.415 . S
C296 H272 0.950 . S
C296 C291 1.363 . S
C296 C295 1.415 . S
C297 H273 0.951 . S
C297 C298 1.366 . S
C297 C299 1.388 . S
C298 C297 1.366 . S
C298 C302 1.385 . S
C299 H274 0.951 . S
C299 C297 1.388 . S
C299 C300 1.366 . S
C300 C299 1.366 . S
C300 C301 1.414 . S
C300 C303 1.499 . S
C301 H275 0.947 . S
C301 C300 1.414 . S
C301 C302 1.374 . S
C302 H276 0.950 1_455 S
C302 C298 1.385 . S
C302 C301 1.374 . S
C303 C300 1.499 . S
C303 C304 1.373 1_455 S
C303 C305 1.389 . S
C304 H277 0.950 . S
C304 C290 1.367 1_655 S
C304 C303 1.373 1_655 S
C305 C289 1.377 . S
C305 C303 1.389 . S
C305 C306 1.524 . S
C306 C305 1.524 . S
C306 C307 1.397 . S
C306 C311 1.363 . S
C307 H278 0.950 . S
C307 C306 1.397 . S
C307 C308 1.334 . S
C308 H279 0.950 . S
C308 C307 1.334 . S
C308 C309 1.287 . S
C309 C308 1.287 . S
C309 C310 1.524 . S
C309 H312 0.999 . S
C310 H280 0.950 . S
C310 C309 1.524 . S
C310 C311 1.415 . S
C311 H281 0.950 . S
C311 C306 1.363 . S
C311 C310 1.415 . S
H312 C309 0.999 . S
H313 C294 0.913 . S
H314 C332 0.967 . S
H315 C334 0.951 . S
H316 C336 0.950 . S
H317 C337 0.950 1_455 S
H318 C339 0.950 . S
H319 C342 0.950 . S
H320 C343 0.950 . S
H321 C345 0.950 1_565 S
H322 C346 0.950 1_565 S
H323 C347 0.951 . S
H324 C349 0.951 . S
H325 C351 0.950 1_565 S
H326 C352 0.950 1_565 S
H327 C354 0.950 . S
H328 C357 0.957 . S
H329 C358 0.950 1_565 S
H330 C360 0.950 . S
H331 C361 0.950 . S
C332 H314 0.967 . S
C332 C333 1.366 . S
C332 C334 1.388 . S
C333 C332 1.366 . S
C333 C337 1.385 . S
C334 H315 0.951 . S
C334 C332 1.388 . S
C334 C335 1.366 . S
C335 C334 1.366 . S
C335 C336 1.414 . S
C335 C338 1.499 . S
C336 H316 0.950 . S
C336 C335 1.414 . S
C336 C337 1.374 . S
C337 H317 0.950 1_655 S
C337 C333 1.385 . S
C337 C336 1.374 . S
C338 C335 1.499 . S
C338 C339 1.373 . S
C338 C340 1.389 . S
C339 H318 0.950 . S
C339 C338 1.373 . S
C339 C355 1.377 . S
C340 C338 1.389 . S
C340 C341 1.524 . S
C340 C354 1.377 . S
C341 C340 1.524 . S
C341 C342 1.397 . S
C341 C346 1.363 . S
C342 H319 0.950 . S
C342 C341 1.397 . S
C342 C343 1.334 . S
C343 H320 0.950 . S
C343 C342 1.334 . S
C343 C344 1.287 . S
C344 C343 1.287 . S
C344 C345 1.524 . S
C344 H363 0.913 . S
C345 H321 0.950 1_545 S
C345 C344 1.524 . S
C345 C346 1.415 . S
C346 H322 0.950 1_545 S
C346 C341 1.363 . S
C346 C345 1.415 . S
C347 H323 0.951 . S
C347 C348 1.366 . S
C347 C349 1.388 . S
C348 C347 1.366 . S
C348 C352 1.385 . S
C349 H324 0.951 . S
C349 C347 1.388 . S
C349 C350 1.366 . S
C350 C349 1.366 . S
C350 C351 1.414 . S
C350 C353 1.499 . S
C351 H325 0.950 1_545 S
C351 C350 1.414 . S
C351 C352 1.374 . S
C352 H326 0.950 1_545 S
C352 C348 1.385 . S
C352 C351 1.374 . S
C353 C350 1.499 . S
C353 C354 1.373 . S
C353 C355 1.389 . S
C354 H327 0.950 . S
C354 C340 1.377 . S
C354 C353 1.373 . S
C355 C339 1.377 . S
C355 C353 1.389 . S
C355 C356 1.524 . S
C356 C355 1.524 . S
C356 C357 1.397 . S
C356 C361 1.363 . S
C357 H328 0.957 . S
C357 C356 1.397 . S
C357 C358 1.334 . S
C358 H329 0.950 1_545 S
C358 C357 1.334 . S
C358 C359 1.287 . S
C359 C358 1.287 . S
C359 C360 1.524 . S
C359 H362 0.999 . S
C360 H330 0.950 . S
C360 C359 1.524 . S
C360 C361 1.415 . S
C361 H331 0.950 . S
C361 C356 1.363 . S
C361 C360 1.415 . S
H362 C359 0.999 . S
H363 C344 0.913 . S
H364 C382 0.951 . S
H365 C384 0.951 . S
H366 C386 0.950 . S
H367 C387 0.950 1_545 S
H368 C389 0.950 . S
H369 C392 0.950 . S
H370 C393 0.950 . S
H371 C395 0.950 . S
H372 C396 0.950 . S
H373 C397 0.951 . S
H374 C399 0.951 . S
H375 C401 0.950 . S
H376 C402 0.950 . S
H377 C404 0.950 . S
H378 C407 0.950 . S
H379 C408 0.950 . S
H380 C410 0.950 . S
H381 C411 0.950 . S
C382 H364 0.951 . S
C382 C383 1.366 . S
C382 C384 1.388 . S
C383 C382 1.366 . S
C383 C387 1.385 . S
C384 H365 0.951 . S
C384 C382 1.388 . S
C384 C385 1.366 . S
C385 C384 1.366 . S
C385 C386 1.414 . S
C385 C388 1.499 . S
C386 H366 0.950 . S
C386 C385 1.414 . S
C386 C387 1.374 . S
C387 H367 0.950 1_565 S
C387 C383 1.385 . S
C387 C386 1.374 . S
C388 C385 1.499 . S
C388 C389 1.373 . S
C388 C390 1.389 . S
C389 H368 0.950 . S
C389 C388 1.373 . S
C389 C405 1.377 . S
C390 C388 1.389 . S
C390 C391 1.524 . S
C390 C404 1.377 . S
C391 C390 1.524 . S
C391 C392 1.397 . S
C391 C396 1.363 . S
C392 H369 0.950 . S
C392 C391 1.397 . S
C392 C393 1.334 . S
C393 H370 0.950 . S
C393 C392 1.334 . S
C393 C394 1.287 . S
C394 C393 1.287 . S
C394 C395 1.524 . S
C394 H413 0.913 . S
C395 H371 0.950 . S
C395 C394 1.524 . S
C395 C396 1.415 . S
C396 H372 0.950 . S
C396 C391 1.363 . S
C396 C395 1.415 . S
C397 H373 0.951 . S
C397 C398 1.366 . S
C397 C399 1.388 . S
C398 C397 1.366 . S
C398 C402 1.385 . S
C399 H374 0.951 . S
C399 C397 1.388 . S
C399 C400 1.366 . S
C400 C399 1.366 . S
C400 C401 1.414 . S
C400 C403 1.499 . S
C401 H375 0.950 . S
C401 C400 1.414 . S
C401 C402 1.374 . S
C402 H376 0.950 . S
C402 C398 1.385 . S
C402 C401 1.374 . S
C403 C400 1.499 . S
C403 C404 1.373 . S
C403 C405 1.389 . S
C404 H377 0.950 . S
C404 C390 1.377 . S
C404 C403 1.373 . S
C405 C389 1.377 . S
C405 C403 1.389 . S
C405 C406 1.524 . S
C406 C405 1.524 . S
C406 C407 1.397 . S
C406 C411 1.363 . S
C407 H378 0.950 . S
C407 C406 1.397 . S
C407 C408 1.334 . S
C408 H379 0.950 . S
C408 C407 1.334 . S
C408 C409 1.287 . S
C409 C408 1.287 . S
C409 C410 1.524 . S
C409 H412 0.999 . S
C410 H380 0.950 . S
C410 C409 1.524 . S
C410 C411 1.415 . S
C411 H381 0.950 . S
C411 C406 1.363 . S
C411 C410 1.415 . S
H412 C409 0.999 . S
H413 C394 0.913 . S
H414 C432 0.951 . S
H415 C434 0.951 . S
H416 C436 0.950 . S
H417 C437 0.950 . S
H418 C439 0.950 . S
H419 C442 0.950 . S
H420 C443 0.950 . S
H421 C445 0.950 . S
H422 C446 0.950 . S
H423 C447 0.951 . S
H424 C449 0.951 . S
H425 C451 0.950 . S
H426 C452 0.950 . S
H427 C454 0.950 . S
H428 C457 0.950 . S
H429 C458 0.950 . S
H430 C460 0.950 . S
H431 C461 0.950 . S
C432 H414 0.951 . S
C432 C433 1.366 . S
C432 C434 1.388 . S
C433 C432 1.366 . S
C433 C437 1.385 . S
C434 H415 0.951 . S
C434 C432 1.388 . S
C434 C435 1.366 . S
C435 C434 1.366 . S
C435 C436 1.414 . S
C435 C438 1.499 . S
C436 H416 0.950 . S
C436 C435 1.414 . S
C436 C437 1.374 . S
C437 H417 0.950 . S
C437 C433 1.385 . S
C437 C436 1.374 . S
C438 C435 1.499 . S
C438 C439 1.373 . S
C438 C440 1.389 . S
C439 H418 0.950 . S
C439 C438 1.373 . S
C439 C455 1.377 . S
C440 C438 1.389 . S
C440 C441 1.524 . S
C440 C454 1.377 . S
C441 C440 1.524 . S
C441 C442 1.397 . S
C441 C446 1.363 . S
C442 H419 0.950 . S
C442 C441 1.397 . S
C442 C443 1.334 1_565 S
C443 H420 0.950 . S
C443 C442 1.334 1_545 S
C443 C444 1.287 . S
C444 C443 1.287 . S
C444 C445 1.524 1_545 S
C444 H463 0.913 . S
C445 H421 0.950 . S
C445 C444 1.524 1_565 S
C445 C446 1.415 . S
C446 H422 0.950 . S
C446 C441 1.363 . S
C446 C445 1.415 . S
C447 H423 0.951 . S
C447 C448 1.366 . S
C447 C449 1.388 . S
C448 C447 1.366 . S
C448 C452 1.385 . S
C449 H424 0.951 . S
C449 C447 1.388 . S
C449 C450 1.366 . S
C450 C449 1.366 . S
C450 C451 1.414 . S
C450 C453 1.499 . S
C451 H425 0.950 . S
C451 C450 1.414 . S
C451 C452 1.374 . S
C452 H426 0.950 . S
C452 C448 1.385 . S
C452 C451 1.374 . S
C453 C450 1.499 . S
C453 C454 1.373 . S
C453 C455 1.389 . S
C454 H427 0.950 . S
C454 C440 1.377 . S
C454 C453 1.373 . S
C455 C439 1.377 . S
C455 C453 1.389 . S
C455 C456 1.524 . S
C456 C455 1.524 . S
C456 C457 1.397 . S
C456 C461 1.363 . S
C457 H428 0.950 . S
C457 C456 1.397 . S
C457 C458 1.334 . S
C458 H429 0.950 . S
C458 C457 1.334 . S
C458 C459 1.287 . S
C459 C458 1.287 . S
C459 C460 1.524 . S
C459 H462 0.999 . S
C460 H430 0.950 . S
C460 C459 1.524 . S
C460 C461 1.415 . S
C461 H431 0.950 . S
C461 C456 1.363 . S
C461 C460 1.415 . S
H462 C459 0.999 . S
H463 C444 0.913 . S
H464 C482 0.951 . S
H465 C484 0.951 . S
H466 C486 0.950 . S
H467 C487 0.950 . S
H468 C489 0.950 . S
H469 C492 0.950 . S
H470 C493 0.950 . S
H471 C495 0.950 . S
H472 C496 0.950 . S
H473 C497 0.951 . S
H474 C499 0.951 . S
H475 C501 0.950 . S
H476 C502 0.950 . S
H477 C504 0.950 . S
H478 C507 0.954 . S
H479 C508 0.950 . S
H480 C510 0.950 . S
H481 C511 0.950 . S
C482 H464 0.951 . S
C482 C483 1.366 . S
C482 C484 1.388 . S
C483 C482 1.366 . S
C483 C487 1.385 . S
C484 H465 0.951 . S
C484 C482 1.388 . S
C484 C485 1.366 . S
C485 C484 1.366 . S
C485 C486 1.414 . S
C485 C488 1.499 . S
C486 H466 0.950 . S
C486 C485 1.414 . S
C486 C487 1.374 . S
C487 H467 0.950 . S
C487 C483 1.385 . S
C487 C486 1.374 . S
C488 C485 1.499 . S
C488 C489 1.373 . S
C488 C490 1.389 . S
C489 H468 0.950 . S
C489 C488 1.373 . S
C489 C505 1.377 . S
C490 C488 1.389 . S
C490 C491 1.524 . S
C490 C504 1.377 . S
C491 C490 1.524 . S
C491 C492 1.397 . S
C491 C496 1.363 . S
C492 H469 0.950 . S
C492 C491 1.397 . S
C492 C493 1.334 . S
C493 H470 0.950 . S
C493 C492 1.334 . S
C493 C494 1.287 . S
C494 C493 1.287 . S
C494 C495 1.524 . S
C494 H513 0.913 . S
C495 H471 0.950 . S
C495 C494 1.524 . S
C495 C496 1.415 . S
C496 H472 0.950 . S
C496 C491 1.363 . S
C496 C495 1.415 . S
C497 H473 0.951 . S
C497 C498 1.366 . S
C497 C499 1.388 . S
C498 C497 1.366 . S
C498 C502 1.385 . S
C499 H474 0.951 . S
C499 C497 1.388 . S
C499 C500 1.366 . S
C500 C499 1.366 . S
C500 C501 1.414 . S
C500 C503 1.499 . S
C501 H475 0.950 . S
C501 C500 1.414 . S
C501 C502 1.374 . S
C502 H476 0.950 . S
C502 C498 1.385 . S
C502 C501 1.374 . S
C503 C500 1.499 . S
C503 C504 1.373 . S
C503 C505 1.389 . S
C504 H477 0.950 . S
C504 C490 1.377 . S
C504 C503 1.373 . S
C505 C489 1.377 . S
C505 C503 1.389 . S
C505 C506 1.500 1_545 S
C506 C505 1.500 1_565 S
C506 C507 1.406 . S
C506 C511 1.378 . S
C507 H478 0.954 . S
C507 C506 1.406 . S
C507 C508 1.334 . S
C508 H479 0.950 . S
C508 C507 1.334 . S
C508 C509 1.287 . S
C509 C508 1.287 . S
C509 C510 1.524 . S
C509 H512 0.999 . S
C510 H480 0.950 . S
C510 C509 1.524 . S
C510 C511 1.415 . S
C511 H481 0.950 . S
C511 C506 1.378 . S
C511 C510 1.415 . S
H512 C509 0.999 . S
H513 C494 0.913 . S
H514 C532 0.951 . S
H515 C534 0.951 . S
H516 C536 0.950 . S
H517 C537 0.950 . S
H518 C539 0.950 . S
H519 C542 0.950 . S
H520 C543 0.950 . S
H521 C545 0.950 . S
H522 C546 0.950 . S
H523 C547 0.951 . S
H524 C549 0.951 . S
H525 C551 0.950 . S
H526 C552 0.950 . S
H527 C554 0.950 . S
H528 C557 0.950 . S
H529 C558 0.950 . S
H530 C560 0.950 . S
H531 C561 0.950 . S
C532 H514 0.951 . S
C532 C533 1.366 . S
C532 C534 1.388 . S
C533 C532 1.366 . S
C533 C537 1.385 . S
C534 H515 0.951 . S
C534 C532 1.388 . S
C534 C535 1.366 . S
C535 C534 1.366 . S
C535 C536 1.414 . S
C535 C538 1.499 . S
C536 H516 0.950 . S
C536 C535 1.414 . S
C536 C537 1.374 . S
C537 H517 0.950 . S
C537 C533 1.385 . S
C537 C536 1.374 . S
C538 C535 1.499 . S
C538 C539 1.373 . S
C538 C540 1.389 . S
C539 H518 0.950 . S
C539 C538 1.373 . S
C539 C555 1.377 . S
C540 C538 1.389 . S
C540 C541 1.524 . S
C540 C554 1.377 . S
C541 C540 1.524 . S
C541 C542 1.397 . S
C541 C546 1.363 . S
C542 H519 0.950 . S
C542 C541 1.397 . S
C542 C543 1.334 . S
C543 H520 0.950 . S
C543 C542 1.334 . S
C543 C544 1.287 . S
C544 C543 1.287 . S
C544 C545 1.524 . S
C544 H563 0.913 . S
C545 H521 0.950 . S
C545 C544 1.524 . S
C545 C546 1.415 . S
C546 H522 0.950 . S
C546 C541 1.363 . S
C546 C545 1.415 . S
C547 H523 0.951 . S
C547 C548 1.366 . S
C547 C549 1.388 . S
C548 C547 1.366 . S
C548 C552 1.385 . S
C549 H524 0.951 . S
C549 C547 1.388 . S
C549 C550 1.366 . S
C550 C549 1.366 . S
C550 C551 1.414 . S
C550 C553 1.499 . S
C551 H525 0.950 . S
C551 C550 1.414 . S
C551 C552 1.374 . S
C552 H526 0.950 . S
C552 C548 1.385 . S
C552 C551 1.374 . S
C553 C550 1.499 . S
C553 C554 1.373 . S
C553 C555 1.389 . S
C554 H527 0.950 . S
C554 C540 1.377 . S
C554 C553 1.373 . S
C555 C539 1.377 . S
C555 C553 1.389 . S
C555 C556 1.524 . S
C556 C555 1.524 . S
C556 C557 1.397 . S
C556 C561 1.363 . S
C557 H528 0.950 . S
C557 C556 1.397 . S
C557 C558 1.334 . S
C558 H529 0.950 . S
C558 C557 1.334 . S
C558 C559 1.287 . S
C559 C558 1.287 . S
C559 C560 1.524 . S
C559 H562 0.999 . S
C560 H530 0.950 . S
C560 C559 1.524 . S
C560 C561 1.415 . S
C561 H531 0.950 . S
C561 C556 1.363 . S
C561 C560 1.415 . S
H562 C559 0.999 . S
H563 C544 0.913 . S
H564 C582 0.951 . S
H565 C584 0.951 . S
H566 C586 0.950 . S
H567 C587 0.948 1_455 S
H568 C589 0.950 . S
H569 C592 0.950 1_545 S
H570 C593 0.950 . S
H571 C595 0.950 . S
H572 C596 0.950 . S
H573 C597 0.951 . S
H574 C599 0.951 . S
H575 C601 0.950 . S
H576 C602 0.950 . S
H577 C604 0.950 . S
H578 C607 0.950 . S
H579 C608 0.950 . S
H580 C610 0.950 . S
H581 C611 0.950 . S
C582 H564 0.951 . S
C582 C583 1.366 . S
C582 C584 1.388 . S
C583 C582 1.366 . S
C583 C587 1.385 . S
C584 H565 0.951 . S
C584 C582 1.388 . S
C584 C585 1.366 . S
C585 C584 1.366 . S
C585 C586 1.414 . S
C585 C588 1.499 . S
C586 H566 0.950 . S
C586 C585 1.414 . S
C586 C587 1.375 . S
C587 H567 0.948 1_655 S
C587 C583 1.385 . S
C587 C586 1.375 . S
C588 C585 1.499 . S
C588 C589 1.373 . S
C588 C590 1.389 . S
C589 H568 0.950 . S
C589 C588 1.373 . S
C589 C605 1.377 . S
C590 C588 1.389 . S
C590 C591 1.523 . S
C590 C604 1.377 . S
C591 C590 1.523 . S
C591 C592 1.398 1_545 S
C591 C596 1.363 1_545 S
C592 H569 0.950 1_565 S
C592 C591 1.398 1_565 S
C592 C593 1.334 . S
C593 H570 0.950 . S
C593 C592 1.334 . S
C593 C594 1.287 . S
C594 C593 1.287 . S
C594 C595 1.524 . S
C594 H613 0.913 . S
C595 H571 0.950 . S
C595 C594 1.524 . S
C595 C596 1.415 . S
C596 H572 0.950 . S
C596 C591 1.363 1_565 S
C596 C595 1.415 . S
C597 H573 0.951 . S
C597 C598 1.366 . S
C597 C599 1.388 . S
C598 C597 1.366 . S
C598 C602 1.385 . S
C599 H574 0.951 . S
C599 C597 1.388 . S
C599 C600 1.366 . S
C600 C599 1.366 . S
C600 C601 1.414 . S
C600 C603 1.499 . S
C601 H575 0.950 . S
C601 C600 1.414 . S
C601 C602 1.374 . S
C602 H576 0.950 . S
C602 C598 1.385 . S
C602 C601 1.374 . S
C603 C600 1.499 . S
C603 C604 1.373 . S
C603 C605 1.389 . S
C604 H577 0.950 . S
C604 C590 1.377 . S
C604 C603 1.373 . S
C605 C589 1.377 . S
C605 C603 1.389 . S
C605 C606 1.524 . S
C606 C605 1.524 . S
C606 C607 1.397 . S
C606 C611 1.363 . S
C607 H578 0.950 . S
C607 C606 1.397 . S
C607 C608 1.334 . S
C608 H579 0.950 . S
C608 C607 1.334 . S
C608 C609 1.287 . S
C609 C608 1.287 . S
C609 C610 1.524 . S
C609 H612 0.999 . S
C610 H580 0.950 . S
C610 C609 1.524 . S
C610 C611 1.415 . S
C611 H581 0.950 . S
C611 C606 1.363 . S
C611 C610 1.415 . S
H612 C609 0.999 . S
H613 C594 0.913 . S
H614 C632 0.951 . S
H615 C634 0.951 . S
H616 C636 0.950 1_545 S
H617 C637 0.950 . S
H618 C639 0.950 . S
H619 C642 0.939 1_556 S
H620 C643 0.950 . S
H621 C645 0.950 . S
H622 C646 0.950 . S
H623 C647 0.951 . S
H624 C649 0.951 . S
H625 C651 0.950 . S
H626 C652 0.950 . S
H627 C654 0.950 . S
H628 C657 0.950 . S
H629 C658 0.950 . S
H630 C660 0.950 . S
H631 C661 0.950 . S
C632 H614 0.951 . S
C632 C633 1.366 . S
C632 C634 1.388 . S
C633 C632 1.366 . S
C633 C637 1.385 1_565 S
C634 H615 0.951 . S
C634 C632 1.388 . S
C634 C635 1.366 . S
C635 C634 1.366 . S
C635 C636 1.414 . S
C635 C638 1.499 . S
C636 H616 0.950 1_565 S
C636 C635 1.414 . S
C636 C637 1.374 1_565 S
C637 H617 0.950 . S
C637 C633 1.385 1_545 S
C637 C636 1.374 1_545 S
C638 C635 1.499 . S
C638 C639 1.373 . S
C638 C640 1.361 1_554 S
C639 H618 0.950 . S
C639 C638 1.373 . S
C639 C655 1.377 1_554 S
C640 C638 1.361 1_556 S
C640 C641 1.514 1_556 S
C640 C654 1.425 . S
C641 C640 1.514 1_554 S
C641 C642 1.403 . S
C641 C646 1.363 . S
C642 H619 0.939 1_554 S
C642 C641 1.403 . S
C642 C643 1.342 1_655 S
C643 H620 0.950 . S
C643 C642 1.342 1_455 S
C643 C644 1.287 1_455 S
C644 C643 1.287 1_655 S
C644 C645 1.524 . S
C644 H663 0.913 1_655 S
C645 H621 0.950 . S
C645 C644 1.524 . S
C645 C646 1.415 . S
C646 H622 0.950 . S
C646 C641 1.363 . S
C646 C645 1.415 . S
C647 H623 0.951 . S
C647 C648 1.366 . S
C647 C649 1.388 . S
C648 C647 1.366 . S
C648 C652 1.385 . S
C649 H624 0.951 . S
C649 C647 1.388 . S
C649 C650 1.366 . S
C650 C649 1.366 . S
C650 C651 1.414 . S
C650 C653 1.499 . S
C651 H625 0.950 . S
C651 C650 1.414 . S
C651 C652 1.374 . S
C652 H626 0.950 . S
C652 C648 1.385 . S
C652 C651 1.374 . S
C653 C650 1.499 . S
C653 C654 1.373 . S
C653 C655 1.389 . S
C654 H627 0.950 . S
C654 C640 1.425 . S
C654 C653 1.373 . S
C655 C639 1.377 1_556 S
C655 C653 1.389 . S
C655 C656 1.524 . S
C656 C655 1.524 . S
C656 C657 1.397 . S
C656 C661 1.363 . S
C657 H628 0.950 . S
C657 C656 1.397 . S
C657 C658 1.334 . S
C658 H629 0.950 . S
C658 C657 1.334 . S
C658 C659 1.287 . S
C659 C658 1.287 . S
C659 C660 1.524 . S
C659 H662 0.999 . S
C660 H630 0.950 . S
C660 C659 1.524 . S
C660 C661 1.415 . S
C661 H631 0.950 . S
C661 C656 1.363 . S
C661 C660 1.415 . S
H662 C659 0.999 . S
H663 C644 0.913 1_455 S
H664 C682 0.932 1_655 S
H665 C684 0.951 . S
H666 C686 0.950 . S
H667 C687 0.950 . S
H668 C689 0.950 . S
H669 C692 0.950 . S
H670 C693 0.950 1_455 S
H671 C695 0.950 . S
H672 C696 0.950 . S
H673 C697 0.951 . S
H674 C699 0.951 . S
H675 C701 0.950 . S
H676 C702 0.950 . S
H677 C704 0.950 . S
H678 C707 0.950 . S
H679 C708 0.950 . S
H680 C710 0.950 . S
H681 C711 0.950 . S
C682 H664 0.932 1_455 S
C682 C683 1.377 . S
C682 C684 1.395 1_455 S
C683 C682 1.377 . S
C683 C687 1.385 . S
C684 H665 0.951 . S
C684 C682 1.395 1_655 S
C684 C685 1.366 1_655 S
C685 C684 1.366 1_455 S
C685 C686 1.414 . S
C685 C688 1.499 . S
C686 H666 0.950 . S
C686 C685 1.414 . S
C686 C687 1.374 . S
C687 H667 0.950 . S
C687 C683 1.385 . S
C687 C686 1.374 . S
C688 C685 1.499 . S
C688 C689 1.373 . S
C688 C690 1.389 . S
C689 H668 0.950 . S
C689 C688 1.373 . S
C689 C705 1.377 . S
C690 C688 1.389 . S
C690 C691 1.524 1_455 S
C690 C704 1.377 1_455 S
C691 C690 1.524 1_655 S
C691 C692 1.397 1_655 S
C691 C696 1.363 . S
C692 H669 0.950 . S
C692 C691 1.397 1_455 S
C692 C693 1.334 1_455 S
C693 H670 0.950 1_655 S
C693 C692 1.334 1_655 S
C693 C694 1.287 . S
C694 C693 1.287 . S
C694 C695 1.524 . S
C694 H713 0.913 . S
C695 H671 0.950 . S
C695 C694 1.524 . S
C695 C696 1.415 . S
C696 H672 0.950 . S
C696 C691 1.363 . S
C696 C695 1.415 . S
C697 H673 0.951 . S
C697 C698 1.366 . S
C697 C699 1.388 . S
C698 C697 1.366 . S
C698 C702 1.385 1_455 S
C699 H674 0.951 . S
C699 C697 1.388 . S
C699 C700 1.366 . S
C700 C699 1.366 . S
C700 C701 1.414 1_455 S
C700 C703 1.499 . S
C701 H675 0.950 . S
C701 C700 1.414 1_655 S
C701 C702 1.374 . S
C702 H676 0.950 . S
C702 C698 1.385 1_655 S
C702 C701 1.374 . S
C703 C700 1.499 . S
C703 C704 1.373 1_455 S
C703 C705 1.389 . S
C704 H677 0.950 . S
C704 C690 1.377 1_655 S
C704 C703 1.373 1_655 S
C705 C689 1.377 . S
C705 C703 1.389 . S
C705 C706 1.524 . S
C706 C705 1.524 . S
C706 C707 1.397 . S
C706 C711 1.363 . S
C707 H678 0.950 . S
C707 C706 1.397 . S
C707 C708 1.334 . S
C708 H679 0.950 . S
C708 C707 1.334 . S
C708 C709 1.287 . S
C709 C708 1.287 . S
C709 C710 1.524 . S
C709 H712 0.999 . S
C710 H680 0.950 . S
C710 C709 1.524 . S
C710 C711 1.415 . S
C711 H681 0.950 . S
C711 C706 1.363 . S
C711 C710 1.415 . S
H712 C709 0.999 . S
H713 C694 0.913 . S
H714 C732 0.951 . S
H715 C734 0.951 . S
H716 C736 0.950 . S
H717 C737 0.950 . S
H718 C739 0.950 . S
H719 C742 0.950 . S
H720 C743 0.950 . S
H721 C745 0.950 . S
H722 C746 0.950 . S
H723 C747 0.951 1_565 S
H724 C749 0.951 1_565 S
H725 C751 0.950 . S
H726 C752 0.950 . S
H727 C754 0.950 . S
H728 C757 0.950 . S
H729 C758 0.950 . S
H730 C760 0.950 . S
H731 C761 0.950 . S
C732 H714 0.951 . S
C732 C733 1.366 . S
C732 C734 1.388 . S
C733 C732 1.366 . S
C733 C737 1.385 . S
C734 H715 0.951 . S
C734 C732 1.388 . S
C734 C735 1.366 . S
C735 C734 1.366 . S
C735 C736 1.414 . S
C735 C738 1.499 . S
C736 H716 0.950 . S
C736 C735 1.414 . S
C736 C737 1.374 . S
C737 H717 0.950 . S
C737 C733 1.385 . S
C737 C736 1.374 . S
C738 C735 1.499 . S
C738 C739 1.373 . S
C738 C740 1.389 . S
C739 H718 0.950 . S
C739 C738 1.373 . S
C739 C755 1.377 . S
C740 C738 1.389 . S
C740 C741 1.524 . S
C740 C754 1.377 . S
C741 C740 1.524 . S
C741 C742 1.397 . S
C741 C746 1.363 . S
C742 H719 0.950 . S
C742 C741 1.397 . S
C742 C743 1.334 . S
C743 H720 0.950 . S
C743 C742 1.334 . S
C743 C744 1.287 . S
C744 C743 1.287 . S
C744 C745 1.524 . S
C744 H763 0.913 . S
C745 H721 0.950 . S
C745 C744 1.524 . S
C745 C746 1.415 . S
C746 H722 0.950 . S
C746 C741 1.363 . S
C746 C745 1.415 . S
C747 H723 0.951 1_545 S
C747 C748 1.366 . S
C747 C749 1.388 . S
C748 C747 1.366 . S
C748 C752 1.385 . S
C749 H724 0.951 1_545 S
C749 C747 1.388 . S
C749 C750 1.366 . S
C750 C749 1.366 . S
C750 C751 1.414 . S
C750 C753 1.499 . S
C751 H725 0.950 . S
C751 C750 1.414 . S
C751 C752 1.374 . S
C752 H726 0.950 . S
C752 C748 1.385 . S
C752 C751 1.374 . S
C753 C750 1.499 . S
C753 C754 1.373 . S
C753 C755 1.389 . S
C754 H727 0.950 . S
C754 C740 1.377 . S
C754 C753 1.373 . S
C755 C739 1.377 . S
C755 C753 1.389 . S
C755 C756 1.524 . S
C756 C755 1.524 . S
C756 C757 1.397 . S
C756 C761 1.363 1_545 S
C757 H728 0.950 . S
C757 C756 1.397 . S
C757 C758 1.334 . S
C758 H729 0.950 . S
C758 C757 1.334 . S
C758 C759 1.287 . S
C759 C758 1.287 . S
C759 C760 1.524 1_545 S
C759 H762 0.999 1_545 S
C760 H730 0.950 . S
C760 C759 1.524 1_565 S
C760 C761 1.415 . S
C761 H731 0.950 . S
C761 C756 1.363 1_565 S
C761 C760 1.415 . S
H762 C759 0.999 1_565 S
H763 C744 0.913 . S
H764 C782 0.951 . S
H765 C784 0.951 . S
H766 C786 0.950 . S
H767 C787 0.950 . S
H768 C789 0.950 . S
H769 C792 0.950 . S
H770 C793 0.950 . S
H771 C795 0.950 . S
H772 C796 0.950 . S
H773 C797 0.951 . S
H774 C799 0.951 . S
H775 C801 0.950 1_554 S
H776 C802 0.950 . S
H777 C804 0.950 . S
H778 C807 0.950 . S
H779 C808 0.950 . S
H780 C810 0.950 . S
H781 C811 0.950 . S
C782 H764 0.951 . S
C782 C783 1.366 . S
C782 C784 1.388 . S
C783 C782 1.366 . S
C783 C787 1.385 . S
C784 H765 0.951 . S
C784 C782 1.388 . S
C784 C785 1.366 . S
C785 C784 1.366 . S
C785 C786 1.414 . S
C785 C788 1.499 . S
C786 H766 0.950 . S
C786 C785 1.414 . S
C786 C787 1.374 . S
C787 H767 0.950 . S
C787 C783 1.385 . S
C787 C786 1.374 . S
C788 C785 1.499 . S
C788 C789 1.373 . S
C788 C790 1.389 . S
C789 H768 0.950 . S
C789 C788 1.373 . S
C789 C805 1.377 1_554 S
C790 C788 1.389 . S
C790 C791 1.524 . S
C790 C804 1.377 . S
C791 C790 1.524 . S
C791 C792 1.397 . S
C791 C796 1.363 . S
C792 H769 0.950 . S
C792 C791 1.397 . S
C792 C793 1.334 . S
C793 H770 0.950 . S
C793 C792 1.334 . S
C793 C794 1.287 . S
C794 C793 1.287 . S
C794 C795 1.524 . S
C794 H813 0.913 . S
C795 H771 0.950 . S
C795 C794 1.524 . S
C795 C796 1.415 . S
C796 H772 0.950 . S
C796 C791 1.363 . S
C796 C795 1.415 . S
C797 H773 0.951 . S
C797 C798 1.366 . S
C797 C799 1.388 . S
C798 C797 1.366 . S
C798 C802 1.385 . S
C799 H774 0.951 . S
C799 C797 1.388 . S
C799 C800 1.366 . S
C800 C799 1.366 . S
C800 C801 1.414 . S
C800 C803 1.494 1_556 S
C801 H775 0.950 1_556 S
C801 C800 1.414 . S
C801 C802 1.374 . S
C802 H776 0.950 . S
C802 C798 1.385 . S
C802 C801 1.374 . S
C803 C800 1.494 1_554 S
C803 C804 1.380 . S
C803 C805 1.388 1_554 S
C804 H777 0.950 . S
C804 C790 1.377 . S
C804 C803 1.380 . S
C805 C789 1.377 1_556 S
C805 C803 1.388 1_556 S
C805 C806 1.524 . S
C806 C805 1.524 . S
C806 C807 1.397 . S
C806 C811 1.363 . S
C807 H778 0.950 . S
C807 C806 1.397 . S
C807 C808 1.334 . S
C808 H779 0.950 . S
C808 C807 1.334 . S
C808 C809 1.287 . S
C809 C808 1.287 . S
C809 C810 1.524 . S
C809 H812 0.999 . S
C810 H780 0.950 . S
C810 C809 1.524 . S
C810 C811 1.415 . S
C811 H781 0.950 . S
C811 C806 1.363 . S
C811 C810 1.415 . S
H812 C809 0.999 . S
H813 C794 0.913 . S
H814 C832 0.951 . S
H815 C834 0.951 . S
H816 C836 0.950 1_655 S
H817 C837 0.950 1_655 S
H818 C839 0.950 . S
H819 C842 0.950 . S
H820 C843 0.950 . S
H821 C845 0.950 . S
H822 C846 0.950 . S
H823 C847 0.951 1_655 S
H824 C849 0.951 1_655 S
H825 C851 0.950 . S
H826 C852 0.950 . S
H827 C854 0.950 . S
H828 C857 0.950 . S
H829 C858 0.950 . S
H830 C860 0.950 . S
H831 C861 0.950 . S
C832 H814 0.951 . S
C832 C833 1.366 . S
C832 C834 1.388 . S
C833 C832 1.366 . S
C833 C837 1.385 . S
C834 H815 0.951 . S
C834 C832 1.388 . S
C834 C835 1.366 . S
C835 C834 1.366 . S
C835 C836 1.414 . S
C835 C838 1.499 . S
C836 H816 0.950 1_455 S
C836 C835 1.414 . S
C836 C837 1.374 . S
C837 H817 0.950 1_455 S
C837 C833 1.385 . S
C837 C836 1.374 . S
C838 C835 1.499 . S
C838 C839 1.373 . S
C838 C840 1.389 . S
C839 H818 0.950 . S
C839 C838 1.373 . S
C839 C855 1.377 . S
C840 C838 1.389 . S
C840 C841 1.524 . S
C840 C854 1.377 . S
C841 C840 1.524 . S
C841 C842 1.397 . S
C841 C846 1.363 . S
C842 H819 0.950 . S
C842 C841 1.397 . S
C842 C843 1.334 . S
C843 H820 0.950 . S
C843 C842 1.334 . S
C843 C844 1.287 . S
C844 C843 1.287 . S
C844 C845 1.524 . S
C844 H863 0.913 . S
C845 H821 0.950 . S
C845 C844 1.524 . S
C845 C846 1.415 . S
C846 H822 0.950 . S
C846 C841 1.363 . S
C846 C845 1.415 . S
C847 H823 0.951 1_455 S
C847 C848 1.366 . S
C847 C849 1.388 . S
C848 C847 1.366 . S
C848 C852 1.385 . S
C849 H824 0.951 1_455 S
C849 C847 1.388 . S
C849 C850 1.366 . S
C850 C849 1.366 . S
C850 C851 1.414 . S
C850 C853 1.499 . S
C851 H825 0.950 . S
C851 C850 1.414 . S
C851 C852 1.374 . S
C852 H826 0.950 . S
C852 C848 1.385 . S
C852 C851 1.374 . S
C853 C850 1.499 . S
C853 C854 1.373 . S
C853 C855 1.389 . S
C854 H827 0.950 . S
C854 C840 1.377 . S
C854 C853 1.373 . S
C855 C839 1.377 . S
C855 C853 1.389 . S
C855 C856 1.524 . S
C856 C855 1.524 . S
C856 C857 1.397 . S
C856 C861 1.363 1_455 S
C857 H828 0.950 . S
C857 C856 1.397 . S
C857 C858 1.334 . S
C858 H829 0.950 . S
C858 C857 1.334 . S
C858 C859 1.287 . S
C859 C858 1.287 . S
C859 C860 1.524 1_455 S
C859 H862 0.999 . S
C860 H830 0.950 . S
C860 C859 1.524 1_655 S
C860 C861 1.415 . S
C861 H831 0.950 . S
C861 C856 1.363 1_655 S
C861 C860 1.415 . S
H862 C859 0.999 . S
H863 C844 0.913 . S
C298 C81 1.411 . S
C283 C3 1.477 . S
C333 C21 1.403 . S
C348 C155 1.372 . S
C383 C37 2.184 1_665 S
C398 C259 2.208 . S
C433 C8 0.730 1_565 S
C448 C93 0.730 . S
C498 C167 0.691 . S
C483 C23 0.691 . S
C533 C35 1.443 . S
C548 C253 1.377 . S
C598 C185 2.210 . S
C583 C31 2.210 1_655 S
C633 C7 1.452 1_665 S
C648 C229 1.422 . S
C698 C105 1.406 . S
C683 C17 1.496 1_565 S
C748 C179 1.297 . S
C733 C36 1.376 . S
C798 C241 0.728 . S
C783 C9 0.730 . S
C833 C22 2.248 . S
C848 C111 2.248 . S
