# Generated by pormake.
# Topology eea, (3,6)-cn, num edge types: 1
# Building blocks:
#     Node 0, Type 0, BuildingBlock: CUQRIR_clean_linker_1, # of connection points: 3
#     Node 1, Type 0, BuildingBlock: CUQRIR_clean_linker_1, # of connection points: 3
#     Node 2, Type 0, BuildingBlock: CUQRIR_clean_linker_1, # of connection points: 3
#     Node 3, Type 0, BuildingBlock: CUQRIR_clean_linker_1, # of connection points: 3
#     Node 4, Type 0, BuildingBlock: CUQRIR_clean_linker_1, # of connection points: 3
#     Node 5, Type 0, BuildingBlock: CUQRIR_clean_linker_1, # of connection points: 3
#     Node 6, Type 0, BuildingBlock: CUQRIR_clean_linker_1, # of connection points: 3
#     Node 7, Type 0, BuildingBlock: CUQRIR_clean_linker_1, # of connection points: 3
#     Node 8, Type 0, BuildingBlock: CUQRIR_clean_linker_1, # of connection points: 3
#     Node 9, Type 0, BuildingBlock: CUQRIR_clean_linker_1, # of connection points: 3
#     Node 10, Type 0, BuildingBlock: CUQRIR_clean_linker_1, # of connection points: 3
#     Node 11, Type 0, BuildingBlock: CUQRIR_clean_linker_1, # of connection points: 3
#     Node 12, Type 0, BuildingBlock: CUQRIR_clean_linker_1, # of connection points: 3
#     Node 13, Type 0, BuildingBlock: CUQRIR_clean_linker_1, # of connection points: 3
#     Node 14, Type 0, BuildingBlock: CUQRIR_clean_linker_1, # of connection points: 3
#     Node 15, Type 0, BuildingBlock: CUQRIR_clean_linker_1, # of connection points: 3
#     Node 16, Type 0, BuildingBlock: CUQRIR_clean_linker_1, # of connection points: 3
#     Node 17, Type 0, BuildingBlock: CUQRIR_clean_linker_1, # of connection points: 3
#     Node 18, Type 1, BuildingBlock: CUKXOW_clean_sbu_0, # of connection points: 6
#     Node 19, Type 1, BuildingBlock: CUKXOW_clean_sbu_0, # of connection points: 6
#     Node 20, Type 1, BuildingBlock: CUKXOW_clean_sbu_0, # of connection points: 6
#     Node 21, Type 1, BuildingBlock: CUKXOW_clean_sbu_0, # of connection points: 6
#     Node 22, Type 1, BuildingBlock: CUKXOW_clean_sbu_0, # of connection points: 6
#     Node 23, Type 1, BuildingBlock: CUKXOW_clean_sbu_0, # of connection points: 6
#     Node 24, Type 1, BuildingBlock: CUKXOW_clean_sbu_0, # of connection points: 6
#     Node 25, Type 1, BuildingBlock: CUKXOW_clean_sbu_0, # of connection points: 6
#     Node 26, Type 1, BuildingBlock: CUKXOW_clean_sbu_0, # of connection points: 6
#     Edge 27, Type (0, 1), BuildingBlock: UVAHIK_clean_linker_0, # of connection points: 2
#     Edge 28, Type (0, 1), BuildingBlock: UVAHIK_clean_linker_0, # of connection points: 2
#     Edge 29, Type (0, 1), BuildingBlock: UVAHIK_clean_linker_0, # of connection points: 2
#     Edge 30, Type (0, 1), BuildingBlock: UVAHIK_clean_linker_0, # of connection points: 2
#     Edge 31, Type (0, 1), BuildingBlock: UVAHIK_clean_linker_0, # of connection points: 2
#     Edge 32, Type (0, 1), BuildingBlock: UVAHIK_clean_linker_0, # of connection points: 2
#     Edge 33, Type (0, 1), BuildingBlock: UVAHIK_clean_linker_0, # of connection points: 2
#     Edge 34, Type (0, 1), BuildingBlock: UVAHIK_clean_linker_0, # of connection points: 2
#     Edge 35, Type (0, 1), BuildingBlock: UVAHIK_clean_linker_0, # of connection points: 2
#     Edge 36, Type (0, 1), BuildingBlock: UVAHIK_clean_linker_0, # of connection points: 2
#     Edge 37, Type (0, 1), BuildingBlock: UVAHIK_clean_linker_0, # of connection points: 2
#     Edge 38, Type (0, 1), BuildingBlock: UVAHIK_clean_linker_0, # of connection points: 2
#     Edge 39, Type (0, 1), BuildingBlock: UVAHIK_clean_linker_0, # of connection points: 2
#     Edge 40, Type (0, 1), BuildingBlock: UVAHIK_clean_linker_0, # of connection points: 2
#     Edge 41, Type (0, 1), BuildingBlock: UVAHIK_clean_linker_0, # of connection points: 2
#     Edge 42, Type (0, 1), BuildingBlock: UVAHIK_clean_linker_0, # of connection points: 2
#     Edge 43, Type (0, 1), BuildingBlock: UVAHIK_clean_linker_0, # of connection points: 2
#     Edge 44, Type (0, 1), BuildingBlock: UVAHIK_clean_linker_0, # of connection points: 2
#     Edge 45, Type (0, 1), BuildingBlock: UVAHIK_clean_linker_0, # of connection points: 2
#     Edge 46, Type (0, 1), BuildingBlock: UVAHIK_clean_linker_0, # of connection points: 2
#     Edge 47, Type (0, 1), BuildingBlock: UVAHIK_clean_linker_0, # of connection points: 2
#     Edge 48, Type (0, 1), BuildingBlock: UVAHIK_clean_linker_0, # of connection points: 2
#     Edge 49, Type (0, 1), BuildingBlock: UVAHIK_clean_linker_0, # of connection points: 2
#     Edge 50, Type (0, 1), BuildingBlock: UVAHIK_clean_linker_0, # of connection points: 2
#     Edge 51, Type (0, 1), BuildingBlock: UVAHIK_clean_linker_0, # of connection points: 2
#     Edge 52, Type (0, 1), BuildingBlock: UVAHIK_clean_linker_0, # of connection points: 2
#     Edge 53, Type (0, 1), BuildingBlock: UVAHIK_clean_linker_0, # of connection points: 2
#     Edge 54, Type (0, 1), BuildingBlock: UVAHIK_clean_linker_0, # of connection points: 2
#     Edge 55, Type (0, 1), BuildingBlock: UVAHIK_clean_linker_0, # of connection points: 2
#     Edge 56, Type (0, 1), BuildingBlock: UVAHIK_clean_linker_0, # of connection points: 2
#     Edge 57, Type (0, 1), BuildingBlock: UVAHIK_clean_linker_0, # of connection points: 2
#     Edge 58, Type (0, 1), BuildingBlock: UVAHIK_clean_linker_0, # of connection points: 2
#     Edge 59, Type (0, 1), BuildingBlock: UVAHIK_clean_linker_0, # of connection points: 2
#     Edge 60, Type (0, 1), BuildingBlock: UVAHIK_clean_linker_0, # of connection points: 2
#     Edge 61, Type (0, 1), BuildingBlock: UVAHIK_clean_linker_0, # of connection points: 2
#     Edge 62, Type (0, 1), BuildingBlock: UVAHIK_clean_linker_0, # of connection points: 2
#     Edge 63, Type (0, 1), BuildingBlock: UVAHIK_clean_linker_0, # of connection points: 2
#     Edge 64, Type (0, 1), BuildingBlock: UVAHIK_clean_linker_0, # of connection points: 2
#     Edge 65, Type (0, 1), BuildingBlock: UVAHIK_clean_linker_0, # of connection points: 2
#     Edge 66, Type (0, 1), BuildingBlock: UVAHIK_clean_linker_0, # of connection points: 2
#     Edge 67, Type (0, 1), BuildingBlock: UVAHIK_clean_linker_0, # of connection points: 2
#     Edge 68, Type (0, 1), BuildingBlock: UVAHIK_clean_linker_0, # of connection points: 2
#     Edge 69, Type (0, 1), BuildingBlock: UVAHIK_clean_linker_0, # of connection points: 2
#     Edge 70, Type (0, 1), BuildingBlock: UVAHIK_clean_linker_0, # of connection points: 2
#     Edge 71, Type (0, 1), BuildingBlock: UVAHIK_clean_linker_0, # of connection points: 2
#     Edge 72, Type (0, 1), BuildingBlock: UVAHIK_clean_linker_0, # of connection points: 2
#     Edge 73, Type (0, 1), BuildingBlock: UVAHIK_clean_linker_0, # of connection points: 2
#     Edge 74, Type (0, 1), BuildingBlock: UVAHIK_clean_linker_0, # of connection points: 2
#     Edge 75, Type (0, 1), BuildingBlock: UVAHIK_clean_linker_0, # of connection points: 2
#     Edge 76, Type (0, 1), BuildingBlock: UVAHIK_clean_linker_0, # of connection points: 2
#     Edge 77, Type (0, 1), BuildingBlock: UVAHIK_clean_linker_0, # of connection points: 2
#     Edge 78, Type (0, 1), BuildingBlock: UVAHIK_clean_linker_0, # of connection points: 2
#     Edge 79, Type (0, 1), BuildingBlock: UVAHIK_clean_linker_0, # of connection points: 2
#     Edge 80, Type (0, 1), BuildingBlock: UVAHIK_clean_linker_0, # of connection points: 2
# Relax obj value: 0.066
# Max RMSD: 0.205
# Mean RMSD: 0.142
data_MOF--net-eea--node1-CUKXOW_clean_sbu_0--node2-CUQRIR_clean_linker_1--edge1-UVAHIK_clean_linker_0
_symmetry_space_group_name_H-M    P1
_symmetry_Int_Tables_number       1
_symmetry_cell_setting            triclinic
loop_
_symmetry_equiv_pos_as_xyz
'x, y, z'
_cell_length_a     69.784086
_cell_length_b     68.470893
_cell_length_c     63.417185
_cell_angle_alpha  86.882083
_cell_angle_beta   93.075861
_cell_angle_gamma 118.70684
loop_
_atom_site_label
_atom_site_type_symbol
_atom_site_fract_x
_atom_site_fract_y
_atom_site_fract_z
_atom_type_partial_charge
C0 C 0.23051 0.12661 0.41463 0.0
N1 N 0.2382 0.14476 0.42675 0.0
N2 N 0.23909 0.11324 0.42146 0.0
C3 C 0.21573 0.12257 0.39536 0.0
C4 C 0.25226 0.12391 0.43816 0.0
N5 N 0.25189 0.14314 0.44122 0.0
C6 C 0.26425 0.11478 0.45239 0.0
H7 H 0.19849 0.11387 0.40028 0.0
H8 H 0.21797 0.11198 0.38417 0.0
H9 H 0.21893 0.13856 0.38722 0.0
H10 H 0.28089 0.12093 0.44639 0.0
H11 H 0.25571 0.0963 0.4526 0.0
H12 H 0.26591 0.12042 0.46878 0.0
C13 C 0.88885 0.12136 0.42908 0.0
N14 N 0.89832 0.13839 0.44263 0.0
N15 N 0.8699 0.1048 0.43676 0.0
C16 C 0.89887 0.12027 0.40905 0.0
C17 C 0.8682 0.1124 0.45549 0.0
N18 N 0.8855 0.13271 0.45911 0.0
C19 C 0.84931 0.10025 0.47001 0.0
H20 H 0.89347 0.12797 0.39584 0.0
H21 H 0.89364 0.10276 0.40526 0.0
H22 H 0.91698 0.1296 0.41043 0.0
H23 H 0.85271 0.08897 0.48092 0.0
H24 H 0.83394 0.09008 0.46087 0.0
H25 H 0.84697 0.11187 0.4797 0.0
C26 C 0.92943 0.83579 0.4608 0.0
N27 N 0.93745 0.82647 0.47575 0.0
N28 N 0.90752 0.82669 0.46216 0.0
C29 C 0.94246 0.85168 0.44331 0.0
C30 C 0.9024 0.81142 0.4782 0.0
N31 N 0.92054 0.81112 0.48631 0.0
C32 C 0.87968 0.79696 0.48604 0.0
H33 H 0.95195 0.86865 0.44959 0.0
H34 H 0.93177 0.85223 0.42997 0.0
H35 H 0.95417 0.84682 0.43732 0.0
H36 H 0.87228 0.7808 0.47806 0.0
H37 H 0.86923 0.80492 0.48243 0.0
H38 H 0.88012 0.7936 0.50333 0.0
C39 C 0.08209 0.1775 0.57754 0.0
N40 N 0.1002 0.18825 0.56596 0.0
N41 N 0.06467 0.17738 0.56694 0.0
C42 C 0.08193 0.16958 0.60017 0.0
C43 C 0.07294 0.18811 0.54832 0.0
N44 N 0.09457 0.19484 0.54774 0.0
C45 C 0.06054 0.19467 0.53186 0.0
H46 H 0.0668 0.15372 0.60317 0.0
H47 H 0.08229 0.18221 0.61068 0.0
H48 H 0.09622 0.16698 0.60419 0.0
H49 H 0.06591 0.21272 0.53286 0.0
H50 H 0.04265 0.18502 0.53408 0.0
H51 H 0.0642 0.19183 0.51586 0.0
C52 C 0.78816 0.90104 0.61896 0.0
N53 N 0.7804 0.88361 0.60586 0.0
N54 N 0.78425 0.91747 0.61053 0.0
C55 C 0.80119 0.90284 0.63915 0.0
C56 C 0.77385 0.90943 0.59179 0.0
N57 N 0.77164 0.88899 0.5889 0.0
C58 C 0.76534 0.9213 0.57651 0.0
H59 H 0.78989 0.89588 0.65248 0.0
H60 H 0.81298 0.9205 0.64229 0.0
H61 H 0.81025 0.89331 0.63841 0.0
H62 H 0.77835 0.93185 0.56535 0.0
H63 H 0.76072 0.93212 0.58495 0.0
H64 H 0.75095 0.90939 0.56714 0.0
C65 C 0.12511 0.91177 0.61915 0.0
N66 N 0.1147 0.89393 0.60658 0.0
N67 N 0.14608 0.92476 0.61337 0.0
C68 C 0.11549 0.91565 0.63814 0.0
C69 C 0.14811 0.91418 0.59691 0.0
N70 N 0.12917 0.89539 0.59292 0.0
C71 C 0.1682 0.92287 0.58392 0.0
H72 H 0.10681 0.92517 0.63306 0.0
H73 H 0.12847 0.92545 0.64996 0.0
H74 H 0.10362 0.8996 0.64564 0.0
H75 H 0.17885 0.91614 0.59085 0.0
H76 H 0.17753 0.94133 0.58395 0.0
H77 H 0.16387 0.91748 0.56737 0.0
C78 C 0.88805 0.44967 0.75256 0.0
N79 N 0.89708 0.46753 0.76515 0.0
N80 N 0.89587 0.43535 0.75817 0.0
C81 C 0.87275 0.4469 0.73398 0.0
C82 C 0.90991 0.44512 0.77462 0.0
N83 N 0.91083 0.46475 0.77871 0.0
C84 C 0.92136 0.4346 0.78778 0.0
H85 H 0.85576 0.43885 0.73957 0.0
H86 H 0.87381 0.43621 0.72205 0.0
H87 H 0.87646 0.46331 0.7265 0.0
H88 H 0.9379 0.44058 0.7816 0.0
H89 H 0.91227 0.41618 0.78707 0.0
H90 H 0.92321 0.43934 0.80452 0.0
C91 C 0.5562 0.45112 0.76782 0.0
N92 N 0.56644 0.46837 0.78107 0.0
N93 N 0.53495 0.43836 0.77276 0.0
C94 C 0.56699 0.44663 0.75015 0.0
C95 C 0.53253 0.44855 0.78935 0.0
N96 N 0.55157 0.46695 0.79425 0.0
C97 C 0.51165 0.44047 0.80099 0.0
H98 H 0.55496 0.43617 0.73799 0.0
H99 H 0.5757 0.43761 0.75674 0.0
H100 H 0.57911 0.46249 0.74256 0.0
H101 H 0.51511 0.44098 0.8183 0.0
H102 H 0.49922 0.42338 0.79681 0.0
H103 H 0.50461 0.45172 0.79693 0.0
C104 C 0.59426 0.17741 0.797 0.0
N105 N 0.60361 0.16718 0.80903 0.0
N106 N 0.57879 0.17882 0.80779 0.0
C107 C 0.59824 0.18349 0.77388 0.0
C108 C 0.57947 0.16942 0.827 0.0
N109 N 0.59451 0.16225 0.82778 0.0
C110 C 0.56327 0.1644 0.84395 0.0
H111 H 0.59764 0.19914 0.76983 0.0
H112 H 0.58519 0.17005 0.76442 0.0
H113 H 0.61435 0.18566 0.76951 0.0
H114 H 0.55369 0.17337 0.84074 0.0
H115 H 0.57195 0.16938 0.85949 0.0
H116 H 0.55197 0.14619 0.84492 0.0
C117 C 0.74857 0.49444 0.91336 0.0
N118 N 0.76293 0.50672 0.89829 0.0
N119 N 0.72961 0.4953 0.91035 0.0
C120 C 0.75441 0.48487 0.93303 0.0
C121 C 0.73286 0.50816 0.89253 0.0
N122 N 0.75313 0.51533 0.88538 0.0
C123 C 0.71748 0.51658 0.88412 0.0
H124 H 0.73961 0.47341 0.94186 0.0
H125 H 0.76561 0.49864 0.94334 0.0
H126 H 0.7631 0.47574 0.92881 0.0
H127 H 0.71936 0.53031 0.894 0.0
H128 H 0.70031 0.50309 0.88498 0.0
H129 H 0.72095 0.52285 0.86751 0.0
C130 C 0.46086 0.24205 0.94985 0.0
N131 N 0.45146 0.22451 0.9369 0.0
N132 N 0.45471 0.25758 0.94383 0.0
C133 C 0.47584 0.24394 0.96851 0.0
C134 C 0.44107 0.24874 0.92685 0.0
N135 N 0.43896 0.22856 0.92274 0.0
C136 C 0.43047 0.26025 0.91385 0.0
H137 H 0.46586 0.23641 0.98268 0.0
H138 H 0.48751 0.26165 0.97156 0.0
H139 H 0.48513 0.23495 0.9661 0.0
H140 H 0.44078 0.26913 0.90015 0.0
H141 H 0.42879 0.27251 0.92323 0.0
H142 H 0.41407 0.24826 0.90766 0.0
C143 C 0.79021 0.24977 0.94787 0.0
N144 N 0.78052 0.23156 0.93571 0.0
N145 N 0.81138 0.26281 0.94273 0.0
C146 C 0.77969 0.25395 0.96595 0.0
C147 C 0.81427 0.25184 0.92712 0.0
N148 N 0.79562 0.23279 0.92299 0.0
C149 C 0.83488 0.26041 0.91497 0.0
H150 H 0.771 0.26317 0.95986 0.0
H151 H 0.79214 0.26414 0.97801 0.0
H152 H 0.76766 0.23802 0.97351 0.0
H153 H 0.8453 0.25375 0.92267 0.0
H154 H 0.84418 0.27887 0.91483 0.0
H155 H 0.83117 0.2548 0.89845 0.0
C156 C 0.56055 0.78978 0.08435 0.0
N157 N 0.56785 0.80752 0.09694 0.0
N158 N 0.56893 0.77623 0.09113 0.0
C159 C 0.54616 0.78627 0.06487 0.0
C160 C 0.58153 0.78634 0.10831 0.0
N161 N 0.58107 0.80547 0.1117 0.0
C162 C 0.59262 0.77648 0.12291 0.0
H163 H 0.52882 0.77745 0.06948 0.0
H164 H 0.54864 0.776 0.05349 0.0
H165 H 0.5495 0.80247 0.05711 0.0
H166 H 0.5844 0.75807 0.122 0.0
H167 H 0.59272 0.78088 0.13951 0.0
H168 H 0.60981 0.7833 0.11822 0.0
C169 C 0.22322 0.7912 0.09855 0.0
N170 N 0.23376 0.80773 0.11249 0.0
N171 N 0.20455 0.77465 0.10677 0.0
C172 C 0.23203 0.79034 0.07769 0.0
C173 C 0.20423 0.78171 0.12624 0.0
N174 N 0.22207 0.80162 0.1298 0.0
C175 C 0.18572 0.76998 0.14122 0.0
H176 H 0.2265 0.79881 0.06534 0.0
H177 H 0.226 0.77288 0.07315 0.0
H178 H 0.25017 0.79906 0.07832 0.0
H179 H 0.18942 0.75909 0.15238 0.0
H180 H 0.17009 0.75955 0.13258 0.0
H181 H 0.1838 0.78213 0.15057 0.0
C182 C 0.23532 0.45265 0.10912 0.0
N183 N 0.24457 0.44212 0.12095 0.0
N184 N 0.21373 0.44318 0.11273 0.0
C185 C 0.24677 0.47083 0.09269 0.0
C186 C 0.21004 0.42642 0.12695 0.0
N187 N 0.22874 0.42559 0.13173 0.0
C188 C 0.18856 0.41195 0.13727 0.0
H189 H 0.2548 0.48715 0.10041 0.0
H190 H 0.23502 0.47114 0.08036 0.0
H191 H 0.25946 0.46855 0.08504 0.0
H192 H 0.17982 0.39604 0.12888 0.0
H193 H 0.17811 0.42011 0.13652 0.0
H194 H 0.19119 0.40802 0.15403 0.0
C195 C 0.42056 0.8393 0.24856 0.0
N196 N 0.43561 0.85106 0.23392 0.0
N197 N 0.40159 0.83966 0.24379 0.0
C198 C 0.42542 0.83025 0.26909 0.0
C199 C 0.40567 0.85193 0.2255 0.0
N200 N 0.42632 0.85891 0.21956 0.0
C201 C 0.39092 0.86048 0.21563 0.0
H202 H 0.41012 0.8172 0.27618 0.0
H203 H 0.4338 0.84399 0.28029 0.0
H204 H 0.43653 0.82328 0.26652 0.0
H205 H 0.39305 0.87496 0.22451 0.0
H206 H 0.37357 0.84743 0.21649 0.0
H207 H 0.39491 0.86587 0.19889 0.0
C208 C 0.11509 0.57197 0.28824 0.0
N209 N 0.1064 0.55431 0.27543 0.0
N210 N 0.10842 0.58699 0.28173 0.0
C211 C 0.12999 0.57458 0.30717 0.0
C212 C 0.0952 0.5777 0.26462 0.0
N213 N 0.09384 0.55776 0.26087 0.0
C214 C 0.08421 0.58848 0.2511 0.0
H215 H 0.11994 0.5678 0.3214 0.0
H216 H 0.14169 0.59242 0.30957 0.0
H217 H 0.13922 0.56537 0.3056 0.0
H218 H 0.09378 0.59607 0.23669 0.0
H219 H 0.08306 0.60157 0.25963 0.0
H220 H 0.06749 0.57606 0.24604 0.0
C221 C 0.46047 0.57683 0.28822 0.0
N222 N 0.45038 0.5589 0.27573 0.0
N223 N 0.48138 0.59013 0.28244 0.0
C224 C 0.45058 0.58049 0.30713 0.0
C225 C 0.48371 0.57962 0.26608 0.0
N226 N 0.46499 0.56058 0.26215 0.0
C227 C 0.50384 0.5886 0.25312 0.0
H228 H 0.44171 0.5898 0.30199 0.0
H229 H 0.46343 0.59039 0.31902 0.0
H230 H 0.43882 0.56436 0.3146 0.0
H231 H 0.51479 0.58229 0.2602 0.0
H232 H 0.51281 0.60707 0.25298 0.0
H233 H 0.49964 0.58299 0.23662 0.0
Tb234 Tb 0.53282 0.03409 0.02026 0.0
C235 C 0.52096 0.98655 0.03962 0.0
Tb236 Tb 0.48369 1.00018 0.02776 0.0
O237 O 0.54101 0.03735 0.05401 0.0
O238 O 0.50934 0.028 0.04299 0.0
O239 O 0.53561 1.0042 0.02877 0.0
C240 C 0.44481 0.97161 0.04371 0.0
O241 O 0.50095 0.98332 0.043 0.0
C242 C 0.49719 1.00437 0.98899 0.0
C243 C 0.49516 0.04714 0.00787 0.0
O244 O 0.45536 0.96671 0.03053 0.0
O245 O 0.45608 0.99261 0.04774 0.0
O246 O 0.47711 0.99859 0.99331 0.0
O247 O 0.50761 1.00565 0.00601 0.0
O248 O 0.4808 0.0299 0.01925 0.0
O249 O 0.51502 0.0501 0.00426 0.0
C250 C 0.57076 0.06335 0.00326 0.0
O251 O 0.55905 0.06821 0.01497 0.0
O252 O 0.56129 0.0419 1.00137 0.0
C253 C 0.5209 0.02968 0.0595 0.0
Tb254 Tb 0.98923 0.53121 0.01602 0.0
C255 C 0.03813 0.56564 0.02637 0.0
Tb256 Tb 0.02312 0.51421 0.01969 0.0
O257 O 0.99228 0.53827 0.04973 0.0
O258 O 0.99942 0.51426 0.03892 0.0
O259 O 0.01883 0.56309 0.01923 0.0
C260 C 0.05312 0.50257 0.03274 0.0
O261 O 0.04245 0.54875 0.02934 0.0
C262 C 0.01082 0.51938 0.98115 0.0
C263 C 0.97413 0.47949 0.01057 0.0
O264 O 0.0551 0.51627 0.01701 0.0
O265 O 0.0342 0.4953 0.04105 0.0
O266 O 0.01901 0.50624 0.98631 0.0
O267 O 0.01283 0.53103 0.99669 0.0
O268 O 0.99341 0.4823 0.01804 0.0
O269 O 0.96986 0.49636 0.00696 0.0
C270 C 0.96 0.54259 0.99943 0.0
O271 O 0.95715 0.52961 0.01604 0.0
O272 O 0.97944 0.5495 0.99252 0.0
C273 C 1.00084 0.52537 0.05473 0.0
Tb274 Tb 0.49128 0.50599 0.03204 0.0
C275 C 0.50506 0.47008 0.02316 0.0
Tb276 Tb 0.54024 0.52046 0.03243 0.0
O277 O 0.48622 0.49996 0.99807 0.0
O278 O 0.51698 0.52196 0.01061 0.0
O279 O 0.48913 0.47347 0.02948 0.0
C280 C 0.58002 0.52677 0.02512 0.0
O281 O 0.52544 0.48637 0.02127 0.0
C282 C 0.5238 0.51596 0.06966 0.0
C283 C 0.52653 0.55698 0.03826 0.0
O284 O 0.56705 0.51306 0.03922 0.0
O285 O 0.57076 0.53736 0.01532 0.0
O286 O 0.5441 0.52937 0.06551 0.0
O287 O 0.51445 0.50427 0.05383 0.0
O288 O 0.54228 0.55328 0.03174 0.0
O289 O 0.50646 0.54058 0.04184 0.0
C290 C 0.45174 0.49458 0.04555 0.0
O291 O 0.46297 0.51168 0.03314 0.0
O292 O 0.46262 0.48394 0.04999 0.0
C293 C 0.50696 0.51144 0.99434 0.0
Tb294 Tb 0.19712 0.37022 0.35636 0.0
C295 C 0.18492 0.31936 0.36755 0.0
Tb296 Tb 0.14799 0.33368 0.36016 0.0
O297 O 0.19825 0.38245 0.38816 0.0
O298 O 0.17559 0.35099 0.38002 0.0
O299 O 0.20012 0.33966 0.36123 0.0
C300 C 0.10784 0.30746 0.37461 0.0
O301 O 0.16408 0.314 0.36986 0.0
C302 C 0.16609 0.33733 0.32409 0.0
C303 C 0.15986 0.3836 0.34741 0.0
O304 O 0.12589 0.31553 0.38591 0.0
O305 O 0.11236 0.31423 0.35505 0.0
O306 O 0.14959 0.3189 0.33079 0.0
O307 O 0.1697 0.35269 0.33622 0.0
O308 O 0.1457 0.36468 0.35705 0.0
O309 O 0.17972 0.38742 0.34258 0.0
C310 C 0.23752 0.39698 0.34285 0.0
O311 O 0.22612 0.40296 0.35378 0.0
O312 O 0.22628 0.37574 0.33971 0.0
C313 C 0.18026 0.36507 0.39383 0.0
Tb314 Tb 0.65945 0.86049 0.34678 0.0
C315 C 0.70808 0.89604 0.35493 0.0
Tb316 Tb 0.69418 0.84491 0.34963 0.0
O317 O 0.66099 0.866 0.38079 0.0
O318 O 0.67037 0.84396 0.36933 0.0
O319 O 0.68897 0.89272 0.34642 0.0
C320 C 0.72665 0.83617 0.36042 0.0
O321 O 0.71255 0.87946 0.35953 0.0
C322 C 0.68094 0.85045 0.31158 0.0
C323 C 0.64487 0.80835 0.34473 0.0
O324 O 0.72637 0.84851 0.34428 0.0
O325 O 0.70855 0.82854 0.37038 0.0
O326 O 0.68748 0.83592 0.31654 0.0
O327 O 0.68379 0.8622 0.32727 0.0
O328 O 0.66521 0.81223 0.34919 0.0
O329 O 0.63934 0.82449 0.34291 0.0
C330 C 0.62888 0.86822 0.32731 0.0
O331 O 0.63688 0.85636 0.32029 0.0
O332 O 0.63786 0.87566 0.3457 0.0
C333 C 0.67095 0.85431 0.3854 0.0
Tb334 Tb 0.15237 0.84123 0.36285 0.0
C335 C 0.16321 0.80337 0.35398 0.0
Tb336 Tb 0.20053 0.85354 0.36142 0.0
O337 O 0.14622 0.83384 0.32927 0.0
O338 O 0.17735 0.85666 0.34061 0.0
O339 O 0.1481 0.80781 0.36076 0.0
C340 C 0.23908 0.85815 0.35159 0.0
O341 O 0.18376 0.819 0.3512 0.0
C342 C 0.18565 0.84969 0.39931 0.0
C343 C 0.18978 0.89171 0.36867 0.0
O344 O 0.22762 0.8463 0.36742 0.0
O345 O 0.22901 0.8677 0.34147 0.0
O346 O 0.2059 0.86266 0.39458 0.0
O347 O 0.1755 0.83819 0.3836 0.0
O348 O 0.20469 0.88715 0.36149 0.0
O349 O 0.16955 0.87591 0.37265 0.0
C350 C 0.11497 0.8354 0.37759 0.0
O351 O 0.12649 0.8505 0.36357 0.0
O352 O 0.12414 0.82319 0.38271 0.0
C353 C 0.16672 0.84583 0.32469 0.0
Tb354 Tb 0.86632 0.69735 0.69212 0.0
C355 C 0.85483 0.64982 0.71118 0.0
Tb356 Tb 0.81708 0.66245 0.69804 0.0
O357 O 0.87319 0.69969 0.72615 0.0
O358 O 0.84183 0.69027 0.71401 0.0
O359 O 0.86957 0.66775 0.70074 0.0
C360 C 0.7781 0.63281 0.71307 0.0
O361 O 0.83457 0.64615 0.71401 0.0
C362 C 0.83188 0.66757 0.65977 0.0
C363 C 0.82837 0.70977 0.6789 0.0
O364 O 0.79049 0.62814 0.70213 0.0
O365 O 0.78753 0.65419 0.71531 0.0
O366 O 0.81148 0.66089 0.6635 0.0
O367 O 0.8419 0.66895 0.67706 0.0
O368 O 0.81359 0.69177 0.68913 0.0
O369 O 0.84874 0.71368 0.67636 0.0
C370 C 0.90477 0.72679 0.6761 0.0
O371 O 0.89343 0.73134 0.68862 0.0
O372 O 0.8946 0.70556 0.67281 0.0
C373 C 0.85281 0.69173 0.7309 0.0
Tb374 Tb 0.32411 0.19328 0.68141 0.0
C375 C 0.37186 0.22958 0.69177 0.0
Tb376 Tb 0.35963 0.17904 0.68409 0.0
O377 O 0.32739 0.20044 0.7151 0.0
O378 O 0.33574 0.17737 0.7042 0.0
O379 O 0.35242 0.22609 0.68418 0.0
C380 C 0.39343 0.17247 0.69539 0.0
O381 O 0.37697 0.21328 0.69501 0.0
C382 C 0.34623 0.18337 0.6457 0.0
C383 C 0.31145 0.14232 0.67595 0.0
O384 O 0.39397 0.18784 0.68219 0.0
O385 O 0.37369 0.16044 0.70198 0.0
O386 O 0.3546 0.17042 0.65095 0.0
O387 O 0.34816 0.19507 0.6612 0.0
O388 O 0.33099 0.14612 0.68363 0.0
O389 O 0.30647 0.15862 0.67176 0.0
C390 C 0.29222 0.20172 0.66695 0.0
O391 O 0.29063 0.18789 0.68245 0.0
O392 O 0.31183 0.21101 0.65983 0.0
C393 C 0.33678 0.1883 0.72001 0.0
Tb394 Tb 0.8125 0.16453 0.69513 0.0
C395 C 0.82622 0.12853 0.68676 0.0
Tb396 Tb 0.8617 0.17942 0.6944 0.0
O397 O 0.80718 0.15727 0.66132 0.0
O398 O 0.83779 0.18031 0.67329 0.0
O399 O 0.81027 0.13191 0.69309 0.0
C400 C 0.90103 0.18659 0.68404 0.0
O401 O 0.84652 0.14488 0.68434 0.0
C402 C 0.84653 0.17564 0.73203 0.0
C403 C 0.8477 0.2158 0.70034 0.0
O404 O 0.88851 0.17151 0.69755 0.0
O405 O 0.89161 0.19802 0.67668 0.0
O406 O 0.86683 0.1885 0.72742 0.0
O407 O 0.83656 0.16372 0.71645 0.0
O408 O 0.86344 0.21209 0.69382 0.0
O409 O 0.82761 0.19945 0.70392 0.0
C410 C 0.77339 0.15451 0.7089 0.0
O411 O 0.78298 0.16825 0.6932 0.0
O412 O 0.78568 0.1463 0.71654 0.0
C413 C 0.82778 0.16938 0.65724 0.0
C414 C 0.27255 0.83102 0.12298 0.0
C415 C 0.25453 0.82743 0.10966 0.0
C416 C 0.29347 0.84821 0.11825 0.0
C417 C 0.33614 0.87361 0.09456 0.0
H418 H 0.34676 0.93174 0.07238 0.0
C419 C 0.41348 0.93309 0.04852 0.0
C420 C 0.42353 0.95585 0.05284 0.0
C421 C 0.39333 0.91819 0.05715 0.0
C422 C 0.34413 0.91565 0.0787 0.0
H423 H 0.24379 0.83936 0.0817 0.0
H424 H 0.28023 0.86957 0.07342 0.0
H425 H 0.31071 0.90523 0.08535 0.0
H426 H 0.42052 0.98088 0.06968 0.0
H427 H 0.38523 0.9549 0.08464 0.0
H428 H 0.36947 0.88394 0.08772 0.0
C429 C 0.27836 0.85922 0.0875 0.0
C430 C 0.32342 0.9004 0.08599 0.0
C431 C 0.25753 0.84193 0.09215 0.0
C432 C 0.41309 0.96343 0.066 0.0
C433 C 0.39285 0.94856 0.07451 0.0
C434 C 0.35679 0.88879 0.08711 0.0
C435 C 0.29669 0.86226 0.10021 0.0
C436 C 0.31911 0.87912 0.09386 0.0
C437 C 0.38271 0.92575 0.07018 0.0
C438 C 0.36099 0.90994 0.07892 0.0
H439 H 0.27055 0.81988 0.13646 0.0
H440 H 0.3072 0.85026 0.12849 0.0
H441 H 0.33334 0.85729 0.10032 0.0
H442 H 0.42118 0.92678 0.03843 0.0
H443 H 0.38587 0.90078 0.05331 0.0
C444 C 0.17987 0.43485 0.0925 0.0
C445 C 0.19837 0.44987 0.10399 0.0
C446 C 0.16477 0.4413 0.08417 0.0
C447 C 0.14371 0.46521 0.05815 0.0
H448 H 0.12176 0.49284 0.09509 0.0
C449 C 0.08871 0.50331 0.02875 0.0
C450 C 0.07001 0.49684 0.04049 0.0
C451 C 0.10488 0.49802 0.03624 0.0
C452 C 0.12775 0.48511 0.08464 0.0
H453 H 0.21595 0.48308 0.116 0.0
H454 H 0.18935 0.4945 0.10157 0.0
H455 H 0.14945 0.48275 0.10858 0.0
H456 H 0.05342 0.48009 0.06921 0.0
H457 H 0.08185 0.47098 0.08244 0.0
H458 H 0.12195 0.4675 0.03424 0.0
C459 C 0.18652 0.4778 0.09897 0.0
C460 C 0.14367 0.47952 0.09229 0.0
C461 C 0.20171 0.4714 0.10709 0.0
C462 C 0.06771 0.48516 0.05986 0.0
C463 C 0.08398 0.48009 0.06747 0.0
C464 C 0.12798 0.47104 0.05043 0.0
C465 C 0.16792 0.46279 0.08745 0.0
C466 C 0.15164 0.46937 0.07914 0.0
C467 C 0.10267 0.48644 0.0557 0.0
C468 C 0.11976 0.48087 0.06367 0.0
H469 H 0.1772 0.4182 0.09001 0.0
H470 H 0.15045 0.42938 0.0755 0.0
H471 H 0.14974 0.45754 0.04769 0.0
H472 H 0.09082 0.51239 0.01377 0.0
H473 H 0.11924 0.50322 0.02697 0.0
C474 C 0.54307 0.73772 0.08121 0.0
C475 C 0.56456 0.75521 0.08294 0.0
C476 C 0.53898 0.71672 0.07502 0.0
C477 C 0.56352 0.68707 0.04903 0.0
H478 H 0.52147 0.63585 0.0811 0.0
C479 C 0.55268 0.59806 0.04121 0.0
C480 C 0.5313 0.58012 0.04214 0.0
C481 C 0.55694 0.6197 0.04543 0.0
C482 C 0.53306 0.64991 0.07176 0.0
H483 H 0.59857 0.76488 0.07905 0.0
H484 H 0.59158 0.72814 0.06825 0.0
H485 H 0.52809 0.67298 0.08911 0.0
H486 H 0.49759 0.57111 0.04781 0.0
H487 H 0.50494 0.60862 0.05473 0.0
H488 H 0.56843 0.66395 0.03163 0.0
C489 C 0.57782 0.73059 0.07154 0.0
C490 C 0.53685 0.67124 0.07637 0.0
C491 C 0.58187 0.75155 0.07782 0.0
C492 C 0.5143 0.58442 0.0471 0.0
C493 C 0.51854 0.606 0.05122 0.0
C494 C 0.55965 0.66569 0.04434 0.0
C495 C 0.55634 0.71281 0.07036 0.0
C496 C 0.55211 0.6901 0.06506 0.0
C497 C 0.53992 0.62393 0.05061 0.0
C498 C 0.54433 0.64681 0.05563 0.0
H499 H 0.52952 0.74019 0.08523 0.0
H500 H 0.52223 0.70348 0.07402 0.0
H501 H 0.57524 0.70123 0.03988 0.0
H502 H 0.56618 0.59537 0.0375 0.0
H503 H 0.57365 0.63305 0.04502 0.0
C504 C 0.82205 0.30153 0.9512 0.0
C505 C 0.82699 0.28395 0.95121 0.0
C506 C 0.83752 0.32236 0.95859 0.0
C507 C 0.88843 0.35061 0.99146 0.0
H508 H 0.89572 0.40339 0.95927 0.0
C509 C 0.96091 0.43847 0.00716 0.0
C510 C 0.95678 0.45669 0.00533 0.0
C511 C 0.9448 0.41721 1.00134 0.0
C512 C 0.89372 0.38887 0.96864 0.0
H513 H 0.85161 0.274 0.95924 0.0
H514 H 0.87889 0.31048 0.97204 0.0
H515 H 0.8681 0.36676 0.9479 0.0
H516 H 0.93216 0.46659 0.99623 0.0
H517 H 0.90408 0.42958 0.98645 0.0
H518 H 0.91407 0.37275 0.01221 0.0
C519 C 0.86303 0.30822 0.96648 0.0
C520 C 0.87786 0.36783 0.96209 0.0
C521 C 0.84754 0.28741 0.95903 0.0
C522 C 0.93601 0.45302 0.9978 0.0
C523 C 0.91991 0.43177 0.99203 0.0
C524 C 0.90427 0.37168 0.99805 0.0
C525 C 0.85827 0.32602 0.9662 0.0
C526 C 0.87501 0.34842 0.9734 0.0
C527 C 0.92412 0.4136 0.99356 0.0
C528 C 0.90714 0.39111 0.98671 0.0
H529 H 0.80632 0.29921 0.94513 0.0
H530 H 0.8332 0.3356 0.95837 0.0
H531 H 0.88649 0.33603 1.0007 0.0
H532 H 0.97672 0.44065 0.01281 0.0
H533 H 0.94874 0.40369 0.0025 0.0
C534 C 0.7254 0.5094 0.94345 0.0
C535 C 0.71603 0.4945 0.92693 0.0
C536 C 0.71221 0.51185 0.95761 0.0
C537 C 0.68093 0.52696 0.97145 0.0
H538 H 0.62773 0.47906 0.99443 0.0
C539 C 0.61055 0.53899 1.0004 0.0
C540 C 0.59969 0.52652 0.01836 0.0
C541 C 0.62692 0.53587 0.99197 0.0
C542 C 0.6427 0.4926 0.98833 0.0
H543 H 0.68589 0.46996 0.91245 0.0
H544 H 0.66241 0.47424 0.9373 0.0
H545 H 0.6518 0.47022 0.97505 0.0
H546 H 0.598 0.50195 0.0423 0.0
H547 H 0.62671 0.49659 0.02761 0.0
H548 H 0.67171 0.54934 0.98445 0.0
C549 C 0.68 0.4838 0.93947 0.0
C550 C 0.65632 0.48753 0.97709 0.0
C551 C 0.69329 0.48133 0.92528 0.0
C552 C 0.60614 0.51174 0.0284 0.0
C553 C 0.62243 0.50855 0.01993 0.0
C554 C 0.66726 0.53202 0.98258 0.0
C555 C 0.68936 0.49957 0.95538 0.0
C556 C 0.67548 0.50467 0.96841 0.0
C557 C 0.63258 0.52018 1.00134 0.0
C558 C 0.64792 0.5149 0.99095 0.0
H559 H 0.74294 0.51997 0.9447 0.0
H560 H 0.71986 0.52393 0.96986 0.0
H561 H 0.69546 0.54053 0.9647 0.0
H562 H 0.60574 0.55039 0.99234 0.0
H563 H 0.63438 0.54495 0.97754 0.0
C564 C 0.4728 0.20462 0.93517 0.0
C565 C 0.4531 0.20434 0.93912 0.0
C566 C 0.47546 0.18588 0.94017 0.0
C567 C 0.45441 0.13653 0.97633 0.0
H568 H 0.48785 0.11877 0.94266 0.0
C569 C 0.46795 0.06128 1.00139 0.0
C570 C 0.48883 0.0637 0.99847 0.0
C571 C 0.4622 0.07709 0.99272 0.0
C572 C 0.47864 0.12363 0.95237 0.0
H573 H 0.42042 0.18434 0.95035 0.0
H574 H 0.4248 0.15126 0.95902 0.0
H575 H 0.48001 0.14841 0.92943 0.0
H576 H 0.51994 0.08467 0.98383 0.0
H577 H 0.51008 0.11229 0.96912 0.0
H578 H 0.45342 0.11216 0.99948 0.0
C579 C 0.43836 0.16601 0.95233 0.0
C580 C 0.4741 0.14061 0.94473 0.0
C581 C 0.43572 0.18476 0.94722 0.0
C582 C 0.50371 0.08221 0.98647 0.0
C583 C 0.49798 0.09802 0.97784 0.0
C584 C 0.45901 0.11962 0.984 0.0
C585 C 0.45843 0.16648 0.94929 0.0
C586 C 0.46208 0.14742 0.95669 0.0
C587 C 0.47717 0.09575 0.9809 0.0
C588 C 0.47137 0.11305 0.97222 0.0
H589 H 0.48637 0.21966 0.92894 0.0
H590 H 0.49118 0.18694 0.93775 0.0
H591 H 0.44542 0.14158 0.98613 0.0
H592 H 0.456 0.04719 0.01042 0.0
H593 H 0.44592 0.07458 0.99517 0.0
C594 C 0.75425 0.19141 0.93994 0.0
C595 C 0.7584 0.21357 0.93707 0.0
C596 C 0.7331 0.17433 0.94411 0.0
C597 C 0.68448 0.16617 0.96974 0.0
H598 H 0.65439 0.10904 0.94305 0.0
C599 C 0.59721 0.10247 0.99279 0.0
C600 C 0.5913 0.07978 0.9934 0.0
C601 C 0.61682 0.11827 0.98394 0.0
C602 C 0.66266 0.12477 0.95091 0.0
H603 H 0.74366 0.2351 0.93481 0.0
H604 H 0.70681 0.20544 0.94268 0.0
H605 H 0.69018 0.13725 0.93073 0.0
H606 H 0.60096 0.05564 0.98489 0.0
H607 H 0.63578 0.08327 0.97028 0.0
H608 H 0.65781 0.15376 0.99052 0.0
C609 C 0.71987 0.20125 0.94184 0.0
C610 C 0.68312 0.14096 0.94373 0.0
C611 C 0.7409 0.2182 0.93738 0.0
C612 C 0.6052 0.07308 0.98467 0.0
C613 C 0.62508 0.08895 0.97613 0.0
C614 C 0.6643 0.14994 0.97715 0.0
C615 C 0.71585 0.17922 0.94572 0.0
C616 C 0.69413 0.16188 0.953 0.0
C617 C 0.63129 0.11183 0.97584 0.0
C618 C 0.65295 0.12903 0.96777 0.0
H619 H 0.76754 0.18748 0.93997 0.0
H620 H 0.73047 0.15751 0.94713 0.0
H621 H 0.69279 0.18201 0.97745 0.0
H622 H 0.58661 0.10805 0.99912 0.0
H623 H 0.62058 0.13557 0.98349 0.0
C624 C 0.79831 0.53729 0.90956 0.0
C625 C 0.78618 0.51602 0.90128 0.0
C626 C 0.81987 0.54479 0.9167 0.0
C627 C 0.86654 0.53298 0.91832 0.0
H628 H 0.87615 0.55572 0.97483 0.0
C629 C 0.92203 0.53715 0.99665 0.0
C630 C 0.94267 0.54557 0.98795 0.0
C631 C 0.90481 0.53753 0.98471 0.0
C632 C 0.87374 0.54947 0.95904 0.0
H633 H 0.78681 0.48616 0.89317 0.0
H634 H 0.8247 0.49909 0.90584 0.0
H635 H 0.84296 0.54898 0.9547 0.0
H636 H 0.96183 0.56149 0.96027 0.0
H637 H 0.93165 0.56215 0.93934 0.0
H638 H 0.89699 0.53264 0.92311 0.0
C639 C 0.81776 0.5102 0.90646 0.0
C640 C 0.85485 0.54584 0.9474 0.0
C641 C 0.79615 0.50274 0.89925 0.0
C642 C 0.94605 0.55499 0.96736 0.0
C643 C 0.92878 0.55521 0.95534 0.0
C644 C 0.88552 0.53672 0.92995 0.0
C645 C 0.82958 0.53101 0.91591 0.0
C646 C 0.85085 0.53718 0.92706 0.0
C647 C 0.90791 0.54618 0.9638 0.0
C648 C 0.88907 0.54458 0.95059 0.0
H649 H 0.79065 0.5475 0.91168 0.0
H650 H 0.82863 0.56099 0.9237 0.0
H651 H 0.86394 0.52642 0.90265 0.0
H652 H 0.91902 0.52968 0.01245 0.0
H653 H 0.88885 0.53022 0.99156 0.0
C654 C 0.47018 0.29844 0.94031 0.0
C655 C 0.46136 0.27882 0.95299 0.0
C656 C 0.4752 0.31885 0.94877 0.0
C657 C 0.48885 0.34928 0.99776 0.0
H658 H 0.46613 0.38512 0.96778 0.0
C659 C 0.51651 0.44168 0.0154 0.0
C660 C 0.4998 0.4474 0.01701 0.0
C661 C 0.5117 0.4206 0.00875 0.0
C662 C 0.47251 0.37525 0.97636 0.0
H663 H 0.45143 0.26516 0.98451 0.0
H664 H 0.46092 0.3011 0.99962 0.0
H665 H 0.45854 0.34941 0.9538 0.0
H666 H 0.46491 0.4354 0.01289 0.0
H667 H 0.45661 0.39874 1.00086 0.0
H668 H 0.50312 0.37536 0.02013 0.0
C669 C 0.46374 0.30061 0.98307 0.0
C670 C 0.46831 0.35492 0.96828 0.0
C671 C 0.45838 0.2801 0.9745 0.0
C672 C 0.47815 0.43151 0.01192 0.0
C673 C 0.4734 0.41056 0.00492 0.0
C674 C 0.49337 0.36983 0.00565 0.0
C675 C 0.47189 0.32013 0.9702 0.0
C676 C 0.47641 0.34171 0.9789 0.0
C677 C 0.49013 0.40492 0.0032 0.0
C678 C 0.48519 0.383 0.99505 0.0
H679 H 0.47294 0.29787 0.92377 0.0
H680 H 0.48173 0.33367 0.93855 0.0
H681 H 0.49536 0.33947 0.00621 0.0
H682 H 0.53336 0.45352 0.01923 0.0
H683 H 0.52493 0.41675 0.00744 0.0
C684 C 0.18191 0.73373 0.1085 0.0
C685 C 0.18881 0.75411 0.09729 0.0
C686 C 0.166 0.71386 0.09978 0.0
C687 C 0.14039 0.67248 0.07455 0.0
H688 H 0.09313 0.67208 0.03925 0.0
C689 C 0.07753 0.59268 0.03361 0.0
C690 C 0.05562 0.58814 0.03204 0.0
C691 C 0.09403 0.61341 0.0401 0.0
C692 C 0.10607 0.6718 0.04924 0.0
H693 H 0.18478 0.76977 0.06811 0.0
H694 H 0.15768 0.73498 0.0523 0.0
H695 H 0.121 0.70686 0.05393 0.0
H696 H 0.03389 0.60195 0.0359 0.0
H697 H 0.06255 0.63789 0.04793 0.0
H698 H 0.12496 0.63733 0.07082 0.0
C699 C 0.16406 0.7343 0.0681 0.0
C700 C 0.12232 0.69189 0.05742 0.0
C701 C 0.1798 0.75422 0.07699 0.0
C702 C 0.05064 0.60497 0.0368 0.0
C703 C 0.06714 0.62565 0.04362 0.0
C704 C 0.12404 0.6524 0.0666 0.0
C705 C 0.15682 0.71382 0.07943 0.0
C706 C 0.1397 0.69252 0.07025 0.0
C707 C 0.08907 0.6301 0.04557 0.0
C708 C 0.10662 0.65172 0.05381 0.0
H709 H 0.18878 0.73322 0.1241 0.0
H710 H 0.16069 0.69859 0.1092 0.0
H711 H 0.15364 0.67224 0.08405 0.0
H712 H 0.08198 0.58017 0.02983 0.0
H713 H 0.11072 0.6163 0.04083 0.0
C714 C 0.28414 0.46795 0.12111 0.0
C715 C 0.26673 0.44618 0.12016 0.0
C716 C 0.30519 0.47247 0.11637 0.0
C717 C 0.33167 0.44771 0.08628 0.0
H718 H 0.38487 0.49845 0.10627 0.0
C719 C 0.41834 0.46749 0.06393 0.0
C720 C 0.4307 0.48875 0.0546 0.0
C721 C 0.39876 0.46196 0.07345 0.0
C722 C 0.37007 0.48428 0.10059 0.0
H723 H 0.25774 0.41175 0.11555 0.0
H724 H 0.29473 0.41923 0.10873 0.0
H725 H 0.35028 0.48829 0.12274 0.0
H726 H 0.43274 0.52106 0.04805 0.0
H727 H 0.39845 0.51146 0.06526 0.0
H728 H 0.35171 0.44348 0.06451 0.0
C729 C 0.29209 0.43308 0.11206 0.0
C730 C 0.35027 0.47846 0.10993 0.0
C731 C 0.27096 0.42868 0.11634 0.0
C732 C 0.42332 0.5045 0.05502 0.0
C733 C 0.40391 0.4991 0.06496 0.0
C734 C 0.3515 0.45327 0.07728 0.0
C735 C 0.30929 0.45514 0.11108 0.0
C736 C 0.33075 0.46024 0.1027 0.0
C737 C 0.39151 0.47777 0.07417 0.0
C738 C 0.37076 0.47173 0.08418 0.0
H739 H 0.28122 0.48161 0.1245 0.0
H740 H 0.3179 0.48967 0.11575 0.0
H741 H 0.317 0.43395 0.07987 0.0
H742 H 0.42379 0.45511 0.06385 0.0
H743 H 0.38942 0.44542 0.08051 0.0
C744 C 0.54202 0.82259 0.09372 0.0
C745 C 0.56352 0.82607 0.09421 0.0
C746 C 0.53774 0.84046 0.08977 0.0
C747 C 0.56454 0.90285 0.08662 0.0
H748 H 0.51255 0.89142 0.05267 0.0
C749 C 0.54799 0.97218 0.0464 0.0
C750 C 0.52674 0.96928 0.04801 0.0
C751 C 0.55295 0.95533 0.05357 0.0
C752 C 0.52704 0.89484 0.06232 0.0
H753 H 0.59746 0.85066 0.09139 0.0
H754 H 0.59018 0.88195 0.08381 0.0
H755 H 0.52022 0.86093 0.06223 0.0
H756 H 0.49423 0.94653 0.05908 0.0
H757 H 0.50286 0.91724 0.07123 0.0
H758 H 0.57157 0.93704 0.08598 0.0
C759 C 0.57652 0.8656 0.08693 0.0
C760 C 0.53142 0.87732 0.06793 0.0
C761 C 0.58076 0.84773 0.09116 0.0
C762 C 0.51073 0.94935 0.05738 0.0
C763 C 0.51563 0.93247 0.06431 0.0
C764 C 0.56028 0.92046 0.08075 0.0
C765 C 0.5549 0.8622 0.08592 0.0
C766 C 0.5502 0.88101 0.08023 0.0
C767 C 0.53672 0.93516 0.06229 0.0
C768 C 0.54144 0.91662 0.0686 0.0
H769 H 0.52855 0.806 0.09632 0.0
H770 H 0.52093 0.83716 0.08968 0.0
H771 H 0.57899 0.90636 0.09636 0.0
H772 H 0.56075 0.98734 0.0394 0.0
H773 H 0.56933 0.95784 0.05175 0.0
C774 C 0.93665 0.16502 0.45228 0.0
C775 C 0.918 0.15915 0.43914 0.0
C776 C 0.95679 0.18312 0.44668 0.0
C777 C 0.98586 0.21358 0.39912 0.0
H778 H 0.02777 0.25659 0.43789 0.0
C779 C 0.06713 0.28588 0.3696 0.0
C780 C 0.08588 0.29228 0.38271 0.0
C781 C 0.04642 0.271 0.37717 0.0
C782 C 0.01639 0.24456 0.42688 0.0
H783 H 0.90532 0.16794 0.41051 0.0
H784 H 0.94038 0.19955 0.40062 0.0
H785 H 0.99209 0.22851 0.45042 0.0
H786 H 0.09775 0.28832 0.41406 0.0
H787 H 0.06181 0.26186 0.4271 0.0
H788 H 0.01012 0.22894 0.37573 0.0
C789 C 0.93962 0.19016 0.41514 0.0
C790 C 0.99589 0.22851 0.43408 0.0
C791 C 0.91956 0.17222 0.42083 0.0
C792 C 0.08354 0.2837 0.4036 0.0
C793 C 0.06287 0.26863 0.41112 0.0
C794 C 0.00637 0.22942 0.39197 0.0
C795 C 0.95861 0.1955 0.42771 0.0
C796 C 0.98035 0.21288 0.42025 0.0
C797 C 0.04399 0.26194 0.39798 0.0
C798 C 0.02197 0.24521 0.40571 0.0
H799 H 0.93592 0.15487 0.46622 0.0
H800 H 0.97113 0.18669 0.45663 0.0
H801 H 0.97444 0.2015 0.38814 0.0
H802 H 0.06844 0.29237 0.35347 0.0
H803 H 0.03232 0.26667 0.36666 0.0
C804 C 0.89261 0.85046 0.44692 0.0
C805 C 0.8926 0.82999 0.44801 0.0
C806 C 0.87666 0.85292 0.43463 0.0
C807 C 0.83054 0.84457 0.42297 0.0
H808 H 0.81098 0.82122 0.3669 0.0
C809 C 0.74608 0.82485 0.38823 0.0
C810 C 0.7457 0.83387 0.36793 0.0
C811 C 0.76507 0.82495 0.39638 0.0
C812 C 0.81639 0.82792 0.3825 0.0
H813 H 0.8772 0.79646 0.43672 0.0
H814 H 0.84917 0.80063 0.41506 0.0
H815 H 0.84397 0.82207 0.3833 0.0
H816 H 0.7643 0.84928 0.33985 0.0
H817 H 0.79756 0.84913 0.35405 0.0
H818 H 0.80279 0.85001 0.42241 0.0
C819 C 0.8614 0.81478 0.42359 0.0
C820 C 0.83515 0.82834 0.39187 0.0
C821 C 0.87722 0.81231 0.43602 0.0
C822 C 0.76426 0.84222 0.35556 0.0
C823 C 0.78321 0.8421 0.36364 0.0
C824 C 0.8117 0.84393 0.41372 0.0
C825 C 0.8607 0.83496 0.42315 0.0
C826 C 0.84223 0.83647 0.41227 0.0
C827 C 0.78388 0.83389 0.38427 0.0
C828 C 0.80433 0.83534 0.39353 0.0
H829 H 0.9045 0.86419 0.45613 0.0
H830 H 0.8765 0.86867 0.43442 0.0
H831 H 0.83553 0.8507 0.43881 0.0
H832 H 0.73195 0.81837 0.39806 0.0
H833 H 0.76515 0.81828 0.41225 0.0
C834 C 0.21275 0.07449 0.4128 0.0
C835 C 0.23434 0.09189 0.41381 0.0
C836 C 0.20827 0.05327 0.4069 0.0
C837 C 0.23125 0.02266 0.38018 0.0
H838 H 0.18966 0.97221 0.4134 0.0
C839 C 0.21721 0.93249 0.3714 0.0
C840 C 0.1956 0.91509 0.37286 0.0
C841 C 0.22242 0.95437 0.37587 0.0
C842 C 0.20112 0.98605 0.40376 0.0
H843 H 0.26809 0.10116 0.40895 0.0
H844 H 0.26039 0.06401 0.39865 0.0
H845 H 0.19743 0.00968 0.42149 0.0
H846 H 0.16247 0.90728 0.37978 0.0
H847 H 0.17144 0.94516 0.38714 0.0
H848 H 0.23483 0.99895 0.36235 0.0
C849 C 0.24688 0.06671 0.40231 0.0
C850 C 0.20557 0.00758 0.40842 0.0
C851 C 0.25133 0.0879 0.40831 0.0
C852 C 0.17934 0.92016 0.37864 0.0
C853 C 0.18451 0.94194 0.38301 0.0
C854 C 0.22671 1.00107 0.37544 0.0
C855 C 0.2253 0.04905 0.4018 0.0
C856 C 0.22062 0.02616 0.39665 0.0
C857 C 0.20613 0.95935 0.38187 0.0
C858 C 0.2115 0.98246 0.38711 0.0
H859 H 0.19944 0.07722 0.41711 0.0
H860 H 0.19145 0.04013 0.40641 0.0
H861 H 0.2428 0.03659 0.37069 0.0
H862 H 0.23015 0.92919 0.36704 0.0
H863 H 0.23928 0.9673 0.37502 0.0
C864 C 0.49183 0.62846 0.2921 0.0
C865 C 0.49713 0.61124 0.29087 0.0
C866 C 0.5074 0.64931 0.29934 0.0
C867 C 0.56039 0.67836 0.32915 0.0
H868 H 0.56384 0.73077 0.29917 0.0
C869 C 0.63249 0.76749 0.34138 0.0
C870 C 0.62751 0.78512 0.34111 0.0
C871 C 0.61632 0.74591 0.33647 0.0
C872 C 0.56294 0.71634 0.30792 0.0
H873 H 0.52253 0.60194 0.29659 0.0
H874 H 0.55003 0.6385 0.30896 0.0
H875 H 0.53616 0.69394 0.28845 0.0
H876 H 0.60134 0.79363 0.33598 0.0
H877 H 0.57326 0.75613 0.32773 0.0
H878 H 0.58733 0.70086 0.34854 0.0
C879 C 0.53379 0.63592 0.30456 0.0
C880 C 0.54703 0.69518 0.30176 0.0
C881 C 0.51818 0.61507 0.29732 0.0
C882 C 0.60586 0.78053 0.33628 0.0
C883 C 0.58973 0.75901 0.33139 0.0
C884 C 0.57633 0.69956 0.33532 0.0
C885 C 0.52866 0.65338 0.30548 0.0
C886 C 0.54552 0.6759 0.31229 0.0
C887 C 0.59479 0.74147 0.33115 0.0
C888 C 0.57779 0.71883 0.32479 0.0
H889 H 0.47572 0.62586 0.28708 0.0
H890 H 0.50277 0.66225 0.3001 0.0
H891 H 0.55953 0.66389 0.33779 0.0
H892 H 0.64898 0.77039 0.34495 0.0
H893 H 0.62084 0.73285 0.33627 0.0
C894 C 0.36399 0.82371 0.25601 0.0
C895 C 0.38638 0.83817 0.25891 0.0
C896 C 0.34903 0.82473 0.26912 0.0
C897 C 0.32191 0.82532 0.30527 0.0
H898 H 0.33161 0.88541 0.3122 0.0
C899 C 0.26599 0.84403 0.35468 0.0
C900 C 0.25861 0.85796 0.34439 0.0
C901 C 0.28298 0.84185 0.34641 0.0
C902 C 0.32873 0.86856 0.31041 0.0
H903 H 0.41103 0.86463 0.27764 0.0
H904 H 0.38505 0.8662 0.3009 0.0
H905 H 0.35822 0.8797 0.29383 0.0
H906 H 0.26339 0.88105 0.31791 0.0
H907 H 0.29324 0.8774 0.30352 0.0
H908 H 0.29207 0.81422 0.32141 0.0
C909 C 0.37893 0.85416 0.28853 0.0
C910 C 0.34403 0.86528 0.30009 0.0
C911 C 0.39377 0.85312 0.27545 0.0
C912 C 0.26892 0.8703 0.32617 0.0
C913 C 0.28599 0.86824 0.31798 0.0
C914 C 0.30664 0.82862 0.31574 0.0
C915 C 0.35639 0.84037 0.28516 0.0
C916 C 0.34067 0.84363 0.29724 0.0
C917 C 0.29292 0.85371 0.32783 0.0
C918 C 0.30981 0.85027 0.31817 0.0
H919 H 0.35812 0.81227 0.24314 0.0
H920 H 0.33172 0.81405 0.26607 0.0
H921 H 0.319 0.80848 0.30336 0.0
H922 H 0.25823 0.83433 0.36875 0.0
H923 H 0.28818 0.83073 0.35441 0.0
C924 C 0.09199 0.51479 0.28617 0.0
C925 C 0.10894 0.53465 0.27799 0.0
C926 C 0.09555 0.49669 0.29188 0.0
C927 C 0.134 0.47405 0.28607 0.0
H928 H 0.11256 0.4449 0.34042 0.0
C929 C 0.1675 0.42005 0.32938 0.0
C930 C 0.15279 0.4002 0.33991 0.0
C931 C 0.1608 0.43524 0.32117 0.0
C932 C 0.11843 0.45262 0.32508 0.0
H933 H 0.14241 0.55116 0.26831 0.0
H934 H 0.14886 0.51966 0.27819 0.0
H935 H 0.10282 0.4729 0.32616 0.0
H936 H 0.11946 0.38107 0.35031 0.0
H937 H 0.10775 0.40764 0.33591 0.0
H938 H 0.14983 0.454 0.28509 0.0
C939 C 0.13275 0.51781 0.28019 0.0
C940 C 0.11281 0.46868 0.31686 0.0
C941 C 0.12916 0.53586 0.27455 0.0
C942 C 0.13126 0.39618 0.34234 0.0
C943 C 0.12455 0.41146 0.33412 0.0
C944 C 0.13961 0.458 0.29427 0.0
C945 C 0.11614 0.49814 0.28939 0.0
C946 C 0.12074 0.47982 0.29736 0.0
C947 C 0.1392 0.43109 0.32323 0.0
C948 C 0.13215 0.44728 0.31403 0.0
H949 H 0.07631 0.51366 0.28893 0.0
H950 H 0.08228 0.48171 0.29859 0.0
H951 H 0.14011 0.48197 0.27084 0.0
H952 H 0.18425 0.42385 0.32727 0.0
H953 H 0.17267 0.45038 0.31329 0.0
C954 C 0.41099 0.54598 0.27855 0.0
C955 C 0.42823 0.54106 0.2773 0.0
C956 C 0.39009 0.52924 0.28365 0.0
C957 C 0.35223 0.4695 0.28567 0.0
H958 H 0.33016 0.48294 0.3346 0.0
C959 C 0.27204 0.40431 0.32561 0.0
C960 C 0.25928 0.41234 0.3345 0.0
C961 C 0.29272 0.41918 0.31789 0.0
C962 C 0.33577 0.47896 0.32069 0.0
H963 H 0.43693 0.51465 0.27905 0.0
H964 H 0.39996 0.48499 0.28731 0.0
H965 H 0.36529 0.51017 0.32092 0.0
H966 H 0.25772 0.44207 0.34171 0.0
H967 H 0.29308 0.4679 0.32758 0.0
H968 H 0.32239 0.43854 0.28497 0.0
C969 C 0.40277 0.50191 0.28457 0.0
C970 C 0.35602 0.49458 0.31294 0.0
C971 C 0.42384 0.51879 0.27976 0.0
C972 C 0.26734 0.43541 0.33519 0.0
C973 C 0.28776 0.45023 0.3272 0.0
C974 C 0.33168 0.45393 0.29321 0.0
C975 C 0.38589 0.50713 0.28723 0.0
C976 C 0.36442 0.4901 0.2953 0.0
C977 C 0.30092 0.4424 0.31864 0.0
C978 C 0.32308 0.45852 0.31077 0.0
H979 H 0.41394 0.56298 0.27633 0.0
H980 H 0.37729 0.53367 0.28529 0.0
H981 H 0.35835 0.46566 0.27202 0.0
H982 H 0.26617 0.38655 0.32487 0.0
H983 H 0.30238 0.41243 0.31166 0.0
C984 C 0.46956 0.87824 0.25115 0.0
C985 C 0.45871 0.8603 0.23771 0.0
C986 C 0.49102 0.88485 0.25813 0.0
C987 C 0.54006 0.87912 0.25011 0.0
H988 H 0.54524 0.8795 0.31132 0.0
C989 C 0.60361 0.86215 0.29639 0.0
C990 C 0.61231 0.87236 0.31574 0.0
C991 C 0.58741 0.86525 0.28539 0.0
C992 C 0.54437 0.88 0.29421 0.0
H993 H 0.46147 0.83581 0.22 0.0
H994 H 0.49935 0.84735 0.23209 0.0
H995 H 0.51262 0.87748 0.29365 0.0
H996 H 0.61164 0.89447 0.33848 0.0
H997 H 0.58344 0.90031 0.31903 0.0
H998 H 0.57172 0.88133 0.25068 0.0
C999 C 0.4914 0.85646 0.23714 0.0
C1000 C 0.52561 0.87879 0.28408 0.0
C1001 C 0.46984 0.84981 0.23026 0.0
C1002 C 0.60499 0.88626 0.32367 0.0
C1003 C 0.58883 0.88952 0.31255 0.0
C1004 C 0.55896 0.88057 0.26025 0.0
C1005 C 0.50192 0.87357 0.2517 0.0
C1006 C 0.52306 0.87782 0.26197 0.0
C1007 C 0.57966 0.87881 0.2934 0.0
C1008 C 0.56108 0.88042 0.28246 0.0
H1009 H 0.46096 0.88635 0.25704 0.0
H1010 H 0.4988 0.8982 0.26918 0.0
H1011 H 0.53858 0.87864 0.23303 0.0
H1012 H 0.60905 0.8514 0.28988 0.0
H1013 H 0.5805 0.85642 0.27092 0.0
C1014 C 0.11166 0.61025 0.31163 0.0
C1015 C 0.11477 0.60843 0.29028 0.0
C1016 C 0.11698 0.63099 0.31963 0.0
C1017 C 0.12215 0.68528 0.30332 0.0
H1018 H 0.15743 0.70683 0.35475 0.0
C1019 C 0.13503 0.76475 0.34399 0.0
C1020 C 0.15695 0.78021 0.34861 0.0
C1021 C 0.1294 0.74327 0.33781 0.0
C1022 C 0.14753 0.70098 0.34039 0.0
H1023 H 0.12652 0.62675 0.26075 0.0
H1024 H 0.13524 0.66295 0.27451 0.0
H1025 H 0.14883 0.67024 0.34201 0.0
H1026 H 0.19007 0.78503 0.35087 0.0
H1027 H 0.18013 0.74741 0.34052 0.0
H1028 H 0.12074 0.71593 0.30173 0.0
C1029 C 0.12862 0.64837 0.28505 0.0
C1030 C 0.14252 0.68003 0.33318 0.0
C1031 C 0.12364 0.62773 0.27717 0.0
C1032 C 0.17303 0.77355 0.34737 0.0
C1033 C 0.16735 0.75197 0.34156 0.0
C1034 C 0.12683 0.70603 0.31073 0.0
C1035 C 0.12522 0.6502 0.30633 0.0
C1036 C 0.12998 0.67208 0.31445 0.0
C1037 C 0.14551 0.73669 0.33649 0.0
C1038 C 0.13973 0.71419 0.32923 0.0
H1039 H 0.1047 0.59555 0.32197 0.0
H1040 H 0.11411 0.63191 0.33608 0.0
H1041 H 0.11231 0.67949 0.28892 0.0
H1042 H 0.12226 0.76938 0.3447 0.0
H1043 H 0.11242 0.73178 0.33408 0.0
C1044 C 0.84663 0.06388 0.43854 0.0
C1045 C 0.85463 0.08422 0.42701 0.0
C1046 C 0.83082 0.04411 0.42954 0.0
C1047 C 0.80893 0.01643 0.3799 0.0
H1048 H 0.75555 0.98008 0.41004 0.0
C1049 C 0.74709 0.9243 0.36217 0.0
C1050 C 0.72494 0.9189 0.36023 0.0
C1051 C 0.76293 0.94537 0.36865 0.0
C1052 C 0.77033 0.99013 0.40142 0.0
H1053 H 0.85271 0.09981 0.39695 0.0
H1054 H 0.82569 0.065 0.3808 0.0
H1055 H 0.7837 0.01499 0.42499 0.0
H1056 H 0.70204 0.93142 0.36345 0.0
H1057 H 0.72976 0.96814 0.37536 0.0
H1058 H 0.7958 0.99119 0.35664 0.0
C1059 C 0.83151 0.06446 0.3969 0.0
C1060 C 0.78647 0.00998 0.41003 0.0
C1061 C 0.847 0.08431 0.40606 0.0
C1062 C 0.71899 0.93514 0.36466 0.0
C1063 C 0.7348 0.95607 0.37158 0.0
C1064 C 0.79298 0.99632 0.37151 0.0
C1065 C 0.82305 0.04423 0.40866 0.0
C1066 C 0.80591 0.02331 0.39936 0.0
C1067 C 0.7569 0.96133 0.37375 0.0
C1068 C 0.77352 0.98301 0.38219 0.0
H1069 H 0.85256 0.06331 0.45456 0.0
H1070 H 0.82476 0.02868 0.43886 0.0
H1071 H 0.82381 0.02639 0.37141 0.0
H1072 H 0.75219 0.91215 0.35885 0.0
H1073 H 0.77984 0.94896 0.37031 0.0
C1074 C 0.97735 0.85006 0.4766 0.0
C1075 C 0.95904 0.82878 0.47652 0.0
C1076 C 0.99776 0.8529 0.4715 0.0
C1077 C 0.03086 0.82602 0.46263 0.0
H1078 H 0.04365 0.85905 0.40896 0.0
C1079 C 0.08452 0.81691 0.40247 0.0
C1080 C 0.09749 0.83534 0.38946 0.0
C1081 C 0.06958 0.81777 0.41565 0.0
C1082 C 0.0408 0.85024 0.42413 0.0
H1083 H 0.94783 0.79364 0.47309 0.0
H1084 H 0.9837 0.79845 0.46504 0.0
H1085 H 0.01604 0.85867 0.4309 0.0
H1086 H 0.1055 0.86922 0.38007 0.0
H1087 H 0.0801 0.87115 0.4036 0.0
H1088 H 0.05572 0.81768 0.45603 0.0
C1089 C 0.98228 0.81292 0.46888 0.0
C1090 C 0.02494 0.85003 0.43669 0.0
C1091 C 0.96181 0.81015 0.47357 0.0
C1092 C 0.09531 0.85463 0.3897 0.0
C1093 C 0.08074 0.8557 0.40321 0.0
C1094 C 0.04714 0.82663 0.45027 0.0
C1095 C 1.00012 0.8344 0.46674 0.0
C1096 C 0.01951 0.83754 0.45578 0.0
C1097 C 0.06771 0.83729 0.41642 0.0
C1098 C 0.0519 0.83827 0.43058 0.0
H1099 H 0.97549 0.86457 0.47908 0.0
H1100 H 0.01137 0.86961 0.46998 0.0
H1101 H 0.02684 0.81625 0.47731 0.0
H1102 H 0.08605 0.80189 0.40259 0.0
H1103 H 0.05948 0.80307 0.42517 0.0
C1104 C 0.25075 0.18494 0.4207 0.0
C1105 C 0.23366 0.16318 0.42379 0.0
C1106 C 0.24624 0.2025 0.41546 0.0
C1107 C 0.20182 0.21247 0.39184 0.0
H1108 H 0.2372 0.27215 0.41239 0.0
C1109 C 0.17549 0.28015 0.37871 0.0
C1110 C 0.19147 0.302 0.37336 0.0
C1111 C 0.18137 0.26378 0.38479 0.0
C1112 C 0.22732 0.25563 0.40632 0.0
H1113 H 0.19864 0.14273 0.42509 0.0
H1114 H 0.19057 0.17331 0.41627 0.0
H1115 H 0.24588 0.24263 0.42422 0.0
H1116 H 0.22632 0.32365 0.37022 0.0
H1117 H 0.23658 0.29493 0.3808 0.0
H1118 H 0.1832 0.22536 0.37405 0.0
C1119 C 0.20748 0.17687 0.4173 0.0
C1120 C 0.23228 0.23869 0.41312 0.0
C1121 C 0.21203 0.15937 0.42246 0.0
C1122 C 0.21356 0.30701 0.37419 0.0
C1123 C 0.21946 0.29059 0.3804 0.0
C1124 C 0.19685 0.22934 0.38511 0.0
C1125 C 0.2245 0.1986 0.41328 0.0
C1126 C 0.21948 0.21683 0.40608 0.0
C1127 C 0.20341 0.26876 0.38575 0.0
C1128 C 0.20942 0.25111 0.39236 0.0
H1129 H 0.26755 0.18816 0.4215 0.0
H1130 H 0.25976 0.21895 0.41235 0.0
H1131 H 0.19192 0.19601 0.38565 0.0
H1132 H 0.15831 0.27559 0.37833 0.0
H1133 H 0.16859 0.24725 0.38908 0.0
C1134 C 0.60586 0.48058 0.77945 0.0
C1135 C 0.58881 0.48589 0.78007 0.0
C1136 C 0.627 0.49705 0.77466 0.0
C1137 C 0.66493 0.55725 0.77184 0.0
H1138 H 0.68912 0.54256 0.72537 0.0
C1139 C 0.74309 0.6234 0.7303 0.0
C1140 C 0.75697 0.61641 0.72202 0.0
C1141 C 0.72297 0.60782 0.73857 0.0
C1142 C 0.68293 0.54691 0.73863 0.0
H1143 H 0.58069 0.51268 0.77775 0.0
H1144 H 0.618 0.54183 0.76993 0.0
H1145 H 0.65406 0.51512 0.73905 0.0
H1146 H 0.76109 0.58776 0.71647 0.0
H1147 H 0.72655 0.56063 0.73159 0.0
H1148 H 0.694 0.58887 0.7718 0.0
C1149 C 0.6149 0.52485 0.77287 0.0
C1150 C 0.66271 0.53113 0.74641 0.0
C1151 C 0.59362 0.50825 0.77741 0.0
C1152 C 0.75057 0.59359 0.72252 0.0
C1153 C 0.73064 0.57803 0.73109 0.0
C1154 C 0.6854 0.57297 0.76428 0.0
C1155 C 0.63165 0.51927 0.77076 0.0
C1156 C 0.65345 0.53611 0.76306 0.0
C1157 C 0.71639 0.58485 0.73907 0.0
C1158 C 0.69469 0.56806 0.74749 0.0
H1159 H 0.6026 0.46351 0.78193 0.0
H1160 H 0.63966 0.49232 0.77354 0.0
H1161 H 0.65823 0.5615 0.78477 0.0
H1162 H 0.74764 0.64093 0.7301 0.0
H1163 H 0.71244 0.61382 0.74421 0.0
C1164 C 0.53984 0.1605 0.79756 0.0
C1165 C 0.56019 0.17987 0.79821 0.0
C1166 C 0.522 0.1607 0.78685 0.0
C1167 C 0.50794 0.18688 0.74249 0.0
H1168 H 0.45155 0.16251 0.76832 0.0
C1169 C 0.43372 0.1894 0.70046 0.0
C1170 C 0.41284 0.17173 0.70456 0.0
C1171 C 0.45206 0.19047 0.71139 0.0
C1172 C 0.46708 0.16902 0.76074 0.0
H1173 H 0.5781 0.21458 0.7884 0.0
H1174 H 0.54675 0.21489 0.76889 0.0
H1175 H 0.48302 0.16532 0.7893 0.0
H1176 H 0.39465 0.14079 0.72237 0.0
H1177 H 0.42679 0.14207 0.74087 0.0
H1178 H 0.49199 0.18989 0.71374 0.0
C1179 C 0.54466 0.19966 0.77694 0.0
C1180 C 0.4851 0.17082 0.77283 0.0
C1181 C 0.56247 0.19953 0.78804 0.0
C1182 C 0.41062 0.15461 0.71901 0.0
C1183 C 0.42901 0.15551 0.72975 0.0
C1184 C 0.48984 0.1848 0.73028 0.0
C1185 C 0.52432 0.18019 0.77623 0.0
C1186 C 0.50564 0.1797 0.76379 0.0
C1187 C 0.44989 0.17374 0.72645 0.0
C1188 C 0.46916 0.17576 0.73925 0.0
H1189 H 0.53795 0.14506 0.80492 0.0
H1190 H 0.50656 0.14542 0.78626 0.0
H1191 H 0.5236 0.19349 0.73513 0.0
H1192 H 0.4358 0.20291 0.68948 0.0
H1193 H 0.46781 0.20487 0.7086 0.0
C1194 C 0.90698 0.41028 0.74252 0.0
C1195 C 0.89041 0.41435 0.74918 0.0
C1196 C 0.90201 0.38928 0.73553 0.0
C1197 C 0.86021 0.33021 0.74059 0.0
H1198 H 0.88949 0.32277 0.69384 0.0
C1199 C 0.83581 0.24332 0.70998 0.0
C1200 C 0.85258 0.23897 0.70429 0.0
C1201 C 0.84027 0.26491 0.71436 0.0
C1202 C 0.88134 0.32455 0.70708 0.0
H1203 H 0.85568 0.40006 0.75338 0.0
H1204 H 0.84675 0.36327 0.7409 0.0
H1205 H 0.89721 0.36012 0.70293 0.0
H1206 H 0.88727 0.25417 0.69862 0.0
H1207 H 0.89511 0.29185 0.70654 0.0
H1208 H 0.84456 0.29477 0.74498 0.0
C1209 C 0.86366 0.37621 0.74127 0.0
C1210 C 0.88573 0.34598 0.71226 0.0
C1211 C 0.86867 0.39726 0.7482 0.0
C1212 C 0.87393 0.25688 0.70288 0.0
C1213 C 0.87841 0.27854 0.70733 0.0
C1214 C 0.85587 0.30883 0.73546 0.0
C1215 C 0.88031 0.37186 0.73512 0.0
C1216 C 0.87523 0.34907 0.7291 0.0
C1217 C 0.86164 0.2828 0.71326 0.0
C1218 C 0.86636 0.30569 0.71864 0.0
H1219 H 0.92385 0.4233 0.74311 0.0
H1220 H 0.91526 0.38651 0.7311 0.0
H1221 H 0.85214 0.33198 0.75391 0.0
H1222 H 0.81913 0.23002 0.71112 0.0
H1223 H 0.82686 0.26757 0.7185 0.0
C1224 C 0.15758 0.96341 0.62277 0.0
C1225 C 0.1622 0.94568 0.62185 0.0
C1226 C 0.17366 0.98418 0.6297 0.0
C1227 C 0.22665 0.01253 0.65944 0.0
H1228 H 0.23222 0.06481 0.6275 0.0
C1229 C 0.2993 0.10144 0.67256 0.0
C1230 C 0.29449 0.11921 0.67125 0.0
C1231 C 0.28329 0.07989 0.66724 0.0
C1232 C 0.23075 0.05044 0.63679 0.0
H1233 H 0.18683 0.93537 0.62792 0.0
H1234 H 0.21516 0.97176 0.63995 0.0
H1235 H 0.20389 0.02804 0.61738 0.0
H1236 H 0.26879 0.12801 0.66379 0.0
H1237 H 0.24105 0.09068 0.65492 0.0
H1238 H 0.25354 0.03502 0.6789 0.0
C1239 C 0.19911 0.96965 0.63544 0.0
C1240 C 0.21447 0.02932 0.63097 0.0
C1241 C 0.18301 0.9489 0.62843 0.0
C1242 C 0.27322 0.11483 0.66484 0.0
C1243 C 0.25727 0.09337 0.6596 0.0
C1244 C 0.24294 0.03372 0.66532 0.0
C1245 C 0.19471 0.98764 0.63591 0.0
C1246 C 0.21213 0.01009 0.64226 0.0
C1247 C 0.26211 0.07564 0.66051 0.0
C1248 C 0.24513 0.05296 0.65413 0.0
H1249 H 0.14166 0.96128 0.61765 0.0
H1250 H 0.16961 0.99757 0.63013 0.0
H1251 H 0.22518 0.99808 0.6686 0.0
H1252 H 0.31551 0.1042 0.67738 0.0
H1253 H 0.28766 0.06668 0.66795 0.0
C1254 C 0.03041 0.15614 0.58609 0.0
C1255 C 0.04605 0.17615 0.57674 0.0
C1256 C 0.01366 0.15579 0.59754 0.0
C1257 C 0.9824 0.1848 0.60386 0.0
H1258 H 0.97917 0.16636 0.66306 0.0
C1259 C 0.93226 0.20367 0.65989 0.0
C1260 C 0.92001 0.18695 0.67477 0.0
C1261 C 0.94804 0.20208 0.64858 0.0
C1262 C 0.9796 0.17125 0.64649 0.0
H1263 H 0.0567 0.21136 0.57182 0.0
H1264 H 0.0269 0.2106 0.59094 0.0
H1265 H 0.00403 0.16194 0.6405 0.0
H1266 H 0.9149 0.15584 0.69014 0.0
H1267 H 0.94196 0.15267 0.67005 0.0
H1268 H 0.95782 0.19377 0.6095 0.0
C1269 C 0.02754 0.19523 0.58948 0.0
C1270 C 0.99381 0.16869 0.63363 0.0
C1271 C 0.04445 0.19565 0.57848 0.0
C1272 C 0.92431 0.16906 0.67883 0.0
C1273 C 0.93985 0.16728 0.66733 0.0
C1274 C 0.96797 0.18705 0.6166 0.0
C1275 C 0.01221 0.1754 0.59935 0.0
C1276 C 0.99551 0.17574 0.61231 0.0
C1277 C 0.95156 0.18352 0.65173 0.0
C1278 C 0.96664 0.18064 0.63816 0.0
H1279 H 0.03145 0.14097 0.58486 0.0
H1280 H 0.00193 0.14031 0.60505 0.0
H1281 H 0.98343 0.19023 0.58739 0.0
H1282 H 0.92922 0.21765 0.65654 0.0
H1283 H 0.95716 0.21519 0.63709 0.0
C1284 C 0.77284 0.85104 0.6294 0.0
C1285 C 0.78063 0.86278 0.61017 0.0
C1286 C 0.7762 0.83297 0.63549 0.0
C1287 C 0.78674 0.78937 0.61813 0.0
H1288 H 0.81932 0.79692 0.67136 0.0
C1289 C 0.80004 0.7202 0.66455 0.0
C1290 C 0.82202 0.72636 0.6698 0.0
C1291 C 0.79422 0.736 0.65595 0.0
C1292 C 0.8102 0.79458 0.65649 0.0
H1293 H 0.79733 0.86426 0.58189 0.0
H1294 H 0.80229 0.8318 0.59205 0.0
H1295 H 0.80937 0.82532 0.65849 0.0
H1296 H 0.85508 0.75396 0.67012 0.0
H1297 H 0.84476 0.78162 0.65584 0.0
H1298 H 0.7872 0.7583 0.61645 0.0
C1299 C 0.79374 0.83681 0.60246 0.0
C1300 C 0.80443 0.81076 0.64919 0.0
C1301 C 0.79074 0.85524 0.59655 0.0
C1302 C 0.83801 0.74865 0.66625 0.0
C1303 C 0.83213 0.76451 0.65813 0.0
C1304 C 0.79208 0.77288 0.62571 0.0
C1305 C 0.78705 0.82592 0.62227 0.0
C1306 C 0.79273 0.80838 0.6299 0.0
C1307 C 0.81019 0.75836 0.65289 0.0
C1308 C 0.80401 0.77544 0.6449 0.0
H1309 H 0.76483 0.85644 0.64006 0.0
H1310 H 0.77072 0.82474 0.65075 0.0
H1311 H 0.7777 0.78715 0.60323 0.0
H1312 H 0.78737 0.70313 0.66694 0.0
H1313 H 0.77718 0.73086 0.65212 0.0
C1314 C 0.07537 0.88118 0.61002 0.0
C1315 C 0.0925 0.87618 0.60829 0.0
C1316 C 0.05442 0.86441 0.61499 0.0
C1317 C 0.01662 0.80443 0.61583 0.0
H1318 H 0.99401 0.81636 0.66525 0.0
C1319 C 0.93878 0.73648 0.65675 0.0
C1320 C 0.92562 0.74329 0.66674 0.0
C1321 C 0.95877 0.75228 0.64838 0.0
C1322 C 0.99973 0.8128 0.65117 0.0
H1323 H 0.10095 0.84961 0.6092 0.0
H1324 H 0.06396 0.81995 0.61719 0.0
H1325 H 0.02879 0.84443 0.65159 0.0
H1326 H 0.92249 0.77184 0.67509 0.0
H1327 H 0.95667 0.79933 0.65975 0.0
H1328 H 0.98732 0.77302 0.61498 0.0
C1329 C 0.06686 0.83694 0.61491 0.0
C1330 C 0.01981 0.82892 0.64343 0.0
C1331 C 0.08796 0.85384 0.61025 0.0
C1332 C 0.93248 0.76613 0.66773 0.0
C1333 C 0.95222 0.7819 0.65904 0.0
C1334 C 0.99627 0.78838 0.62335 0.0
C1335 C 0.05005 0.84218 0.61796 0.0
C1336 C 0.02849 0.82493 0.6257 0.0
C1337 C 0.96587 0.77527 0.64949 0.0
C1338 C 0.98751 0.79232 0.64118 0.0
H1339 H 0.0784 0.89823 0.60818 0.0
H1340 H 0.04169 0.86887 0.61694 0.0
H1341 H 0.02292 0.80096 0.60208 0.0
H1342 H 0.93383 0.71893 0.65576 0.0
H1343 H 0.96883 0.7464 0.64144 0.0
C1344 C 0.13166 0.20779 0.59037 0.0
C1345 C 0.12217 0.19427 0.57292 0.0
C1346 C 0.15211 0.21167 0.59853 0.0
C1347 C 0.185 0.18388 0.60397 0.0
H1348 H 0.23115 0.24052 0.62359 0.0
C1349 C 0.25247 0.1897 0.66311 0.0
C1350 C 0.27394 0.20417 0.65707 0.0
C1351 C 0.23488 0.19031 0.65216 0.0
C1352 C 0.2184 0.22465 0.61809 0.0
H1353 H 0.12658 0.17529 0.54941 0.0
H1354 H 0.1625 0.18174 0.56383 0.0
H1355 H 0.19927 0.23903 0.60388 0.0
H1356 H 0.29406 0.23116 0.63549 0.0
H1357 H 0.26318 0.23253 0.61654 0.0
H1358 H 0.2038 0.16939 0.61851 0.0
C1359 C 0.15411 0.18925 0.57127 0.0
C1360 C 0.20021 0.22378 0.60691 0.0
C1361 C 0.13375 0.18561 0.563 0.0
C1362 C 0.27762 0.21987 0.64045 0.0
C1363 C 0.26001 0.22067 0.62966 0.0
C1364 C 0.20299 0.1847 0.61537 0.0
C1365 C 0.16325 0.20192 0.58939 0.0
C1366 C 0.18331 0.20336 0.59984 0.0
C1367 C 0.23849 0.20558 0.63515 0.0
C1368 C 0.21976 0.20504 0.62267 0.0
H1369 H 0.1229 0.21477 0.59799 0.0
H1370 H 0.15874 0.22141 0.61255 0.0
H1371 H 0.17208 0.16788 0.5989 0.0
H1372 H 0.24924 0.17743 0.67586 0.0
H1373 H 0.21842 0.17867 0.65682 0.0
C1374 C 0.79983 0.95842 0.60748 0.0
C1375 C 0.78944 0.93845 0.61951 0.0
C1376 C 0.8036 0.97857 0.61567 0.0
C1377 C 0.81151 0.00768 0.66446 0.0
H1378 H 0.7916 0.04419 0.63126 0.0
C1379 C 0.83803 0.10003 0.68092 0.0
C1380 C 0.82121 0.10577 0.68118 0.0
C1381 C 0.83362 0.07895 0.67466 0.0
C1382 C 0.79716 0.03411 0.64073 0.0
H1383 H 0.77528 0.92392 0.64969 0.0
H1384 H 0.78269 0.95938 0.66443 0.0
H1385 H 0.78555 0.00879 0.61767 0.0
H1386 H 0.78656 0.09386 0.67509 0.0
H1387 H 0.77898 0.05716 0.66364 0.0
H1388 H 0.82359 0.03331 0.68729 0.0
C1389 C 0.78768 0.95935 0.64856 0.0
C1390 C 0.79384 0.01397 0.6329 0.0
C1391 C 0.78353 0.93912 0.64019 0.0
C1392 C 0.79984 0.0899 0.67518 0.0
C1393 C 0.79552 0.06896 0.66851 0.0
C1394 C 0.81522 0.02806 0.67211 0.0
C1395 C 0.79747 0.97923 0.63626 0.0
C1396 C 0.80097 1.00055 0.64469 0.0
C1397 C 0.81238 0.06331 0.66814 0.0
C1398 C 0.80804 0.04145 0.66033 0.0
H1399 H 0.80493 0.9584 0.59166 0.0
H1400 H 0.81144 0.99369 0.60595 0.0
H1401 H 0.81723 0.99768 0.67383 0.0
H1402 H 0.85466 0.11186 0.68548 0.0
H1403 H 0.84694 0.07508 0.67439 0.0
C1404 C 0.51048 0.39783 0.77529 0.0
C1405 C 0.51891 0.41795 0.76341 0.0
C1406 C 0.49423 0.37811 0.76659 0.0
C1407 C 0.47185 0.35022 0.717 0.0
H1408 H 0.41913 0.31367 0.74799 0.0
C1409 C 0.41071 0.25817 0.69913 0.0
C1410 C 0.38842 0.25233 0.69778 0.0
C1411 C 0.42637 0.27924 0.70576 0.0
C1412 C 0.43371 0.32378 0.73913 0.0
H1413 H 0.5174 0.43344 0.73323 0.0
H1414 H 0.48939 0.39866 0.71755 0.0
H1415 H 0.44732 0.34878 0.76255 0.0
H1416 H 0.3651 0.26403 0.70231 0.0
H1417 H 0.39255 0.30076 0.71446 0.0
H1418 H 0.4585 0.32489 0.69386 0.0
C1419 C 0.49521 0.3982 0.73366 0.0
C1420 C 0.44988 0.34375 0.74751 0.0
C1421 C 0.51117 0.41801 0.74254 0.0
C1422 C 0.38215 0.26808 0.70307 0.0
C1423 C 0.39781 0.28903 0.71013 0.0
C1424 C 0.45587 0.33003 0.70881 0.0
C1425 C 0.48643 0.3781 0.74569 0.0
C1426 C 0.46912 0.35715 0.73655 0.0
C1427 C 0.42007 0.29478 0.71158 0.0
C1428 C 0.43665 0.31661 0.71981 0.0
H1429 H 0.51636 0.39751 0.79139 0.0
H1430 H 0.48789 0.36282 0.77613 0.0
H1431 H 0.48657 0.3602 0.70828 0.0
H1432 H 0.41607 0.24642 0.69512 0.0
H1433 H 0.4434 0.28319 0.70687 0.0
C1434 C 0.63948 0.16866 0.81023 0.0
C1435 C 0.61808 0.15971 0.80191 0.0
C1436 C 0.65449 0.16378 0.80128 0.0
C1437 C 0.66384 0.14674 0.75043 0.0
H1438 H 0.71208 0.14454 0.78168 0.0
C1439 C 0.74491 0.1361 0.73586 0.0
C1440 C 0.75304 0.15074 0.71828 0.0
C1441 C 0.72669 0.1339 0.74602 0.0
C1442 C 0.69854 0.14479 0.77272 0.0
H1443 H 0.59473 0.13741 0.77918 0.0
H1444 H 0.62067 0.1282 0.76378 0.0
H1445 H 0.68304 0.14524 0.80078 0.0
H1446 H 0.74849 0.17424 0.69721 0.0
H1447 H 0.71686 0.17073 0.71512 0.0
H1448 H 0.67917 0.14607 0.7224 0.0
C1449 C 0.62623 0.13958 0.77669 0.0
C1450 C 0.68203 0.14547 0.78367 0.0
C1451 C 0.61136 0.14468 0.7855 0.0
C1452 C 0.74241 0.16275 0.71068 0.0
C1453 C 0.72424 0.16063 0.72089 0.0
C1454 C 0.68024 0.14593 0.7395 0.0
C1455 C 0.64816 0.14963 0.78402 0.0
C1456 C 0.66467 0.1468 0.77264 0.0
C1457 C 0.71634 0.14638 0.73884 0.0
C1458 C 0.69798 0.14534 0.7505 0.0
H1459 H 0.64477 0.18027 0.82294 0.0
H1460 H 0.67127 0.17194 0.80723 0.0
H1461 H 0.65087 0.14805 0.74139 0.0
H1462 H 0.75286 0.12664 0.74201 0.0
H1463 H 0.72082 0.12255 0.75961 0.0
C1464 C 0.91211 0.5081 0.75961 0.0
C1465 C 0.89414 0.48699 0.76314 0.0
C1466 C 0.90913 0.52685 0.75612 0.0
C1467 C 0.87075 0.54855 0.76348 0.0
H1468 H 0.89845 0.58703 0.71491 0.0
C1469 C 0.84511 0.61282 0.72922 0.0
C1470 C 0.86088 0.6328 0.71973 0.0
C1471 C 0.85032 0.59618 0.73626 0.0
C1472 C 0.89089 0.57678 0.72878 0.0
H1473 H 0.85916 0.46879 0.76659 0.0
H1474 H 0.85379 0.50158 0.76065 0.0
H1475 H 0.90555 0.55611 0.72439 0.0
H1476 H 0.89484 0.65122 0.71105 0.0
H1477 H 0.90409 0.62246 0.72378 0.0
H1478 H 0.8562 0.56924 0.76803 0.0
C1479 C 0.8702 0.50372 0.76052 0.0
C1480 C 0.89493 0.55896 0.73416 0.0
C1481 C 0.87319 0.48496 0.76378 0.0
C1482 C 0.88221 0.63597 0.71807 0.0
C1483 C 0.88748 0.61937 0.72526 0.0
C1484 C 0.86689 0.56652 0.75824 0.0
C1485 C 0.88811 0.52484 0.75635 0.0
C1486 C 0.88472 0.54449 0.75143 0.0
C1487 C 0.87153 0.59909 0.7342 0.0
C1488 C 0.87669 0.58075 0.74064 0.0
H1489 H 0.92838 0.50995 0.759 0.0
H1490 H 0.92327 0.54291 0.75314 0.0
H1491 H 0.86286 0.53786 0.77703 0.0
H1492 H 0.82851 0.60975 0.73086 0.0
H1493 H 0.83748 0.58075 0.74277 0.0
C1494 C 0.4413 0.87258 0.18443 0.0
C1495 C 0.438 0.87693 0.20482 0.0
C1496 C 0.45103 0.89006 0.16953 0.0
C1497 C 0.48191 0.93117 0.14428 0.0
H1498 H 0.46631 0.97852 0.14288 0.0
C1499 C 0.52576 0.00876 0.09067 0.0
C1500 C 0.51266 0.01619 0.07907 0.0
C1501 C 0.51708 0.99297 0.10711 0.0
C1502 C 0.47071 0.96536 0.14298 0.0
H1503 H 0.44236 0.90229 0.22621 0.0
H1504 H 0.46002 0.93319 0.20042 0.0
H1505 H 0.4502 0.94788 0.16888 0.0
H1506 H 0.48112 0.01497 0.07693 0.0
H1507 H 0.4654 0.98653 0.10528 0.0
H1508 H 0.50182 0.94819 0.11793 0.0
C1509 C 0.45475 0.91637 0.19564 0.0
C1510 C 0.46171 0.94793 0.15805 0.0
C1511 C 0.44491 0.89886 0.21043 0.0
C1512 C 0.49118 0.00876 0.08515 0.0
C1513 C 0.48237 0.99278 0.10157 0.0
C1514 C 0.49083 0.94851 0.12917 0.0
C1515 C 0.45767 0.91215 0.17491 0.0
C1516 C 0.46726 0.93067 0.15891 0.0
C1517 C 0.4951 0.98428 0.11234 0.0
C1518 C 0.48543 0.96587 0.12842 0.0
H1519 H 0.43583 0.85562 0.17998 0.0
H1520 H 0.45281 0.8862 0.15365 0.0
H1521 H 0.48668 0.91825 0.14461 0.0
H1522 H 0.54249 0.01436 0.08644 0.0
H1523 H 0.52749 0.98723 0.11545 0.0
C1524 C 0.06121 0.53543 0.23868 0.0
C1525 C 0.08383 0.54487 0.2424 0.0
C1526 C 0.05203 0.52822 0.21858 0.0
C1527 C 0.06881 0.53986 0.16282 0.0
H1528 H 0.00828 0.49632 0.15182 0.0
C1529 C 0.0298 0.52341 0.07836 0.0
C1530 C 0.00973 0.52346 0.07593 0.0
C1531 C 0.03874 0.52276 0.09851 0.0
C1532 C 0.02521 0.50855 0.15467 0.0
H1533 H 0.11444 0.55223 0.229 0.0
H1534 H 0.09845 0.53858 0.194 0.0
H1535 H 0.02422 0.49906 0.18748 0.0
H1536 H 0.98333 0.5232 0.09253 0.0
H1537 H 0.99875 0.52178 0.12788 0.0
H1538 H 0.06972 0.54929 0.12998 0.0
C1539 C 0.08776 0.53753 0.20627 0.0
C1540 C 0.03437 0.51018 0.17513 0.0
C1541 C 0.09692 0.545 0.22635 0.0
C1542 C 0.99872 0.5229 0.09402 0.0
C1543 C 0.00749 0.52195 0.1142 0.0
C1544 C 0.05973 0.53802 0.14235 0.0
C1545 C 0.06531 0.52999 0.20183 0.0
C1546 C 0.0562 0.52618 0.17961 0.0
C1547 C 0.02769 0.52205 0.11668 0.0
C1548 C 0.03772 0.52264 0.13811 0.0
H1549 H 0.05088 0.53513 0.25098 0.0
H1550 H 0.03475 0.52266 0.21594 0.0
H1551 H 0.0855 0.55272 0.16557 0.0
H1552 H 0.03908 0.52486 0.06475 0.0
H1553 H 0.05438 0.52298 0.09988 0.0
C1554 C 0.47154 0.53283 0.24581 0.0
C1555 C 0.46133 0.54616 0.24503 0.0
C1556 C 0.47339 0.52355 0.22745 0.0
C1557 C 0.45769 0.51575 0.16986 0.0
H1558 H 0.51725 0.52649 0.16594 0.0
C1559 C 0.49271 0.49904 0.09486 0.0
C1560 C 0.51352 0.5161 0.08938 0.0
C1561 C 0.48363 0.49954 0.11392 0.0
C1562 C 0.50054 0.52337 0.16675 0.0
H1563 H 0.4441 0.55951 0.22508 0.0
H1564 H 0.44753 0.54364 0.19266 0.0
H1565 H 0.50492 0.53148 0.19924 0.0
H1566 H 0.54099 0.54717 0.09931 0.0
H1567 H 0.52535 0.54803 0.13236 0.0
H1568 H 0.45385 0.50855 0.13686 0.0
C1569 C 0.45372 0.53983 0.20745 0.0
C1570 C 0.49333 0.52592 0.18597 0.0
C1571 C 0.45168 0.5489 0.22594 0.0
C1572 C 0.52499 0.53368 0.10318 0.0
C1573 C 0.51605 0.53414 0.12216 0.0
C1574 C 0.46495 0.51313 0.15052 0.0
C1575 C 0.46545 0.52784 0.20783 0.0
C1576 C 0.47192 0.5225 0.18777 0.0
C1577 C 0.49537 0.51699 0.12791 0.0
C1578 C 0.48663 0.51742 0.14868 0.0
H1579 H 0.47925 0.53079 0.26042 0.0
H1580 H 0.48209 0.51401 0.22845 0.0
H1581 H 0.44106 0.51283 0.17071 0.0
H1582 H 0.48372 0.48508 0.08471 0.0
H1583 H 0.46772 0.48602 0.11798 0.0
C1584 C 0.94537 0.48717 0.79825 0.0
C1585 C 0.92271 0.47877 0.79605 0.0
C1586 C 0.95647 0.49694 0.81698 0.0
C1587 C 0.95203 0.51826 0.86825 0.0
H1588 H 0.99019 0.49423 0.88826 0.0
C1589 C 0.9822 0.51978 0.95585 0.0
C1590 C 0.00301 0.52168 0.95963 0.0
C1591 C 0.97369 0.51857 0.93514 0.0
C1592 C 0.97997 0.50152 0.88284 0.0
H1593 H 0.89395 0.47509 0.81082 0.0
H1594 H 0.91326 0.4921 0.84389 0.0
H1595 H 0.97334 0.48578 0.85323 0.0
H1596 H 0.03152 0.52439 0.94503 0.0
H1597 H 0.01715 0.52305 0.90892 0.0
H1598 H 0.9585 0.53371 0.89825 0.0
C1599 C 0.92256 0.49135 0.83111 0.0
C1600 C 0.97026 0.49663 0.86267 0.0
C1601 C 0.91148 0.48164 0.81226 0.0
C1602 C 0.01545 0.52304 0.94245 0.0
C1603 C 0.00711 0.52208 0.92181 0.0
C1604 C 0.96186 0.52325 0.88853 0.0
C1605 C 0.94505 0.49836 0.83396 0.0
C1606 C 0.95614 0.50488 0.8551 0.0
C1607 C 0.98587 0.51916 0.91788 0.0
C1608 C 0.97594 0.51488 0.89608 0.0
H1609 H 0.95426 0.4852 0.78578 0.0
H1610 H 0.97387 0.50261 0.81847 0.0
H1611 H 0.94127 0.52492 0.86286 0.0
H1612 H 0.97194 0.51776 0.96885 0.0
H1613 H 0.95716 0.51598 0.93278 0.0
C1614 C 0.5699 0.481 0.8287 0.0
C1615 C 0.55545 0.4805 0.81224 0.0
C1616 C 0.56994 0.48976 0.84819 0.0
C1617 C 0.54636 0.52025 0.87609 0.0
H1618 H 0.5489 0.48424 0.9244 0.0
C1619 C 0.50458 0.5116 0.95497 0.0
C1620 C 0.51659 0.51278 0.97378 0.0
C1621 C 0.51297 0.51158 0.93542 0.0
C1622 C 0.54844 0.49466 0.91111 0.0
H1623 H 0.5312 0.49039 0.80236 0.0
H1624 H 0.53053 0.50494 0.83631 0.0
H1625 H 0.55798 0.4781 0.88971 0.0
H1626 H 0.54624 0.51385 0.98696 0.0
H1627 H 0.56099 0.5137 0.95285 0.0
H1628 H 0.53554 0.53586 0.89753 0.0
C1629 C 0.54209 0.49892 0.83445 0.0
C1630 C 0.55378 0.49125 0.89117 0.0
C1631 C 0.54228 0.4904 0.81499 0.0
C1632 C 0.53706 0.51376 0.97271 0.0
C1633 C 0.54532 0.51334 0.95319 0.0
C1634 C 0.54068 0.5234 0.89598 0.0
C1635 C 0.55537 0.49803 0.85161 0.0
C1636 C 0.55243 0.50371 0.87325 0.0
C1637 C 0.53333 0.5122 0.93433 0.0
C1638 C 0.54133 0.51039 0.91364 0.0
H1639 H 0.58018 0.47341 0.82687 0.0
H1640 H 0.58082 0.48928 0.86078 0.0
H1641 H 0.54558 0.53055 0.86286 0.0
H1642 H 0.48863 0.51059 0.95538 0.0
H1643 H 0.50321 0.51037 0.92118 0.0
C1644 C 0.59841 0.1489 0.86371 0.0
C1645 C 0.59376 0.14493 0.84212 0.0
C1646 C 0.59195 0.13104 0.87837 0.0
C1647 C 0.57907 0.08951 0.90681 0.0
H1648 H 0.51906 0.04547 0.89395 0.0
C1649 C 0.52847 0.01749 0.96532 0.0
C1650 C 0.50777 0.01499 0.96906 0.0
C1651 C 0.54045 0.03078 0.94833 0.0
C1652 C 0.53582 0.05759 0.89774 0.0
H1653 H 0.58028 0.11966 0.81862 0.0
H1654 H 0.56985 0.08843 0.84401 0.0
H1655 H 0.53968 0.07403 0.8675 0.0
H1656 H 0.48269 0.02325 0.95756 0.0
H1657 H 0.50347 0.04635 0.92762 0.0
H1658 H 0.5747 0.07357 0.93752 0.0
C1659 C 0.57805 0.10522 0.84977 0.0
C1660 C 0.54777 0.0738 0.8825 0.0
C1661 C 0.58433 0.12305 0.8352 0.0
C1662 C 0.49858 0.02483 0.95487 0.0
C1663 C 0.51051 0.03807 0.93779 0.0
C1664 C 0.56709 0.07322 0.92209 0.0
C1665 C 0.58079 0.10897 0.87156 0.0
C1666 C 0.56941 0.09019 0.88696 0.0
C1667 C 0.53177 0.04159 0.93465 0.0
C1668 C 0.54519 0.05738 0.91782 0.0
H1669 H 0.6056 0.16572 0.86926 0.0
H1670 H 0.59423 0.13453 0.89504 0.0
H1671 H 0.59573 0.10184 0.91069 0.0
H1672 H 0.53564 0.00964 0.9759 0.0
H1673 H 0.55663 0.0329 0.9461 0.0
C1674 C 0.11041 0.2109 0.51329 0.0
C1675 C 0.10936 0.21333 0.53488 0.0
C1676 C 0.12107 0.22972 0.5 0.0
C1677 C 0.15768 0.29107 0.49896 0.0
H1678 H 0.12463 0.28845 0.44709 0.0
C1679 C 0.19021 0.3548 0.429 0.0
C1680 C 0.17494 0.3577 0.41581 0.0
C1681 C 0.1833 0.34038 0.44671 0.0
C1682 C 0.13389 0.28964 0.46167 0.0
H1683 H 0.11899 0.23671 0.55991 0.0
H1684 H 0.13766 0.26973 0.53683 0.0
H1685 H 0.11201 0.25594 0.47073 0.0
H1686 H 0.14116 0.35009 0.41165 0.0
H1687 H 0.12902 0.32541 0.44303 0.0
H1688 H 0.17936 0.32505 0.48995 0.0
C1689 C 0.13066 0.25345 0.53006 0.0
C1690 C 0.12689 0.2708 0.47502 0.0
C1691 C 0.12007 0.23463 0.54329 0.0
C1692 C 0.15313 0.34796 0.42168 0.0
C1693 C 0.14621 0.33368 0.43947 0.0
C1694 C 0.16468 0.31002 0.48558 0.0
C1695 C 0.13065 0.25124 0.50815 0.0
C1696 C 0.13876 0.27122 0.49375 0.0
C1697 C 0.16101 0.32875 0.45146 0.0
C1698 C 0.15287 0.30948 0.46676 0.0
H1699 H 0.10208 0.19452 0.50664 0.0
H1700 H 0.12114 0.22745 0.48324 0.0
H1701 H 0.16721 0.29191 0.51327 0.0
H1702 H 0.20708 0.36191 0.42447 0.0
H1703 H 0.19511 0.33692 0.45553 0.0
C1704 C 0.73881 0.86438 0.56818 0.0
C1705 C 0.76164 0.87593 0.57055 0.0
C1706 C 0.7288 0.85755 0.54823 0.0
C1707 C 0.74216 0.87325 0.49165 0.0
H1708 H 0.68315 0.82558 0.4819 0.0
C1709 C 0.70121 0.85425 0.40832 0.0
C1710 C 0.68049 0.85286 0.40641 0.0
C1711 C 0.71083 0.85419 0.42823 0.0
C1712 C 0.69964 0.83897 0.48444 0.0
H1713 H 0.79198 0.88848 0.55448 0.0
H1714 H 0.77479 0.87504 0.51995 0.0
H1715 H 0.70085 0.82893 0.51684 0.0
H1716 H 0.65354 0.8505 0.42374 0.0
H1717 H 0.67019 0.85 0.45874 0.0
H1718 H 0.74096 0.88306 0.45917 0.0
C1719 C 0.7644 0.87188 0.53317 0.0
C1720 C 0.70981 0.84097 0.50448 0.0
C1721 C 0.77433 0.87913 0.55303 0.0
C1722 C 0.66946 0.85134 0.42481 0.0
C1723 C 0.67892 0.85093 0.44479 0.0
C1724 C 0.73214 0.871 0.4716 0.0
C1725 C 0.74149 0.86195 0.53025 0.0
C1726 C 0.73116 0.85833 0.50848 0.0
C1727 C 0.69983 0.85261 0.4467 0.0
C1728 C 0.71069 0.85403 0.46781 0.0
H1729 H 0.72881 0.86233 0.58147 0.0
H1730 H 0.71119 0.85023 0.54678 0.0
H1731 H 0.75832 0.88723 0.49403 0.0
H1732 H 0.71045 0.8564 0.39449 0.0
H1733 H 0.72701 0.85562 0.42919 0.0
C1734 C 0.11549 0.884 0.55673 0.0
C1735 C 0.12523 0.88104 0.57567 0.0
C1736 C 0.11742 0.87513 0.53805 0.0
C1737 C 0.15697 0.86161 0.51588 0.0
H1738 H 0.11712 0.84409 0.46704 0.0
C1739 C 0.18785 0.86808 0.43276 0.0
C1740 C 0.17598 0.85034 0.41925 0.0
C1741 C 0.17921 0.86901 0.45179 0.0
C1742 C 0.12833 0.84874 0.48062 0.0
H1743 H 0.14316 0.86545 0.5906 0.0
H1744 H 0.14582 0.84904 0.55829 0.0
H1745 H 0.10456 0.84838 0.50103 0.0
H1746 H 0.14591 0.81943 0.41516 0.0
H1747 H 0.13048 0.82121 0.44844 0.0
H1748 H 0.18076 0.8622 0.49565 0.0
C1749 C 0.13712 0.85859 0.55756 0.0
C1750 C 0.1212 0.85136 0.50004 0.0
C1751 C 0.13538 0.86766 0.57611 0.0
C1752 C 0.15518 0.83354 0.42508 0.0
C1753 C 0.14641 0.83453 0.44415 0.0
C1754 C 0.16407 0.85908 0.49658 0.0
C1755 C 0.12913 0.86315 0.53809 0.0
C1756 C 0.13554 0.85807 0.51786 0.0
C1757 C 0.15848 0.85218 0.45783 0.0
C1758 C 0.15001 0.85302 0.47862 0.0
H1759 H 0.10796 0.89465 0.55612 0.0
H1760 H 0.11118 0.87911 0.52337 0.0
H1761 H 0.16864 0.86717 0.52908 0.0
H1762 H 0.20386 0.88136 0.42861 0.0
H1763 H 0.18877 0.88304 0.46177 0.0
C1764 C 0.57645 0.81999 0.1446 0.0
C1765 C 0.59024 0.81901 0.12991 0.0
C1766 C 0.58484 0.82908 0.16438 0.0
C1767 C 0.63604 0.86143 0.19624 0.0
H1768 H 0.60452 0.81907 0.24125 0.0
C1769 C 0.66793 0.86961 0.2841 0.0
C1770 C 0.66884 0.85043 0.2918 0.0
C1771 C 0.65659 0.86922 0.26505 0.0
C1772 C 0.61336 0.8312 0.22888 0.0
H1773 H 0.62355 0.82796 0.12338 0.0
H1774 H 0.63843 0.84405 0.15786 0.0
H1775 H 0.58825 0.81392 0.20561 0.0
H1776 H 0.6584 0.8158 0.28604 0.0
H1777 H 0.63843 0.81502 0.25307 0.0
H1778 H 0.66158 0.87811 0.21952 0.0
C1779 C 0.62118 0.83792 0.15425 0.0
C1780 C 0.60399 0.82837 0.2085 0.0
C1781 C 0.61274 0.82867 0.13458 0.0
C1782 C 0.65802 0.83084 0.28039 0.0
C1783 C 0.64644 0.83034 0.26164 0.0
C1784 C 0.64533 0.8644 0.21673 0.0
C1785 C 0.6072 0.83748 0.16966 0.0
C1786 C 0.61552 0.84304 0.1918 0.0
C1787 C 0.6457 0.84952 0.25368 0.0
C1788 C 0.63437 0.84886 0.23306 0.0
H1789 H 0.55902 0.81246 0.14125 0.0
H1790 H 0.5737 0.82868 0.17586 0.0
H1791 H 0.64524 0.87309 0.18371 0.0
H1792 H 0.67616 0.8849 0.29268 0.0
H1793 H 0.65624 0.88422 0.25924 0.0
C1794 C 0.22253 0.83283 0.14763 0.0
C1795 C 0.2263 0.81446 0.14833 0.0
C1796 C 0.22075 0.84165 0.16639 0.0
C1797 C 0.19747 0.83995 0.20639 0.0
H1798 H 0.23159 0.84565 0.25826 0.0
C1799 C 0.16273 0.83087 0.2888 0.0
C1800 C 0.17585 0.84623 0.30405 0.0
C1801 C 0.17123 0.83062 0.26941 0.0
C1802 C 0.22204 0.84436 0.24386 0.0
H1803 H 0.23246 0.79167 0.16868 0.0
H1804 H 0.2299 0.8073 0.20159 0.0
H1805 H 0.24438 0.84026 0.22492 0.0
H1806 H 0.20783 0.87402 0.31061 0.0
H1807 H 0.22306 0.87303 0.27696 0.0
H1808 H 0.17476 0.84325 0.22537 0.0
C1809 C 0.22835 0.81501 0.18668 0.0
C1810 C 0.2293 0.84117 0.2248 0.0
C1811 C 0.22986 0.80607 0.16793 0.0
C1812 C 0.19758 0.86157 0.29942 0.0
C1813 C 0.20622 0.86111 0.28011 0.0
C1814 C 0.19009 0.84285 0.22544 0.0
C1815 C 0.22291 0.83233 0.18614 0.0
C1816 C 0.21692 0.8386 0.2059 0.0
C1817 C 0.19311 0.84562 0.26489 0.0
C1818 C 0.20209 0.8447 0.24444 0.0
H1819 H 0.21944 0.83926 0.1326 0.0
H1820 H 0.21672 0.85512 0.16546 0.0
H1821 H 0.18741 0.83777 0.19219 0.0
H1822 H 0.14591 0.81884 0.29192 0.0
H1823 H 0.16078 0.81834 0.2581 0.0
C1824 C 0.24347 0.42134 0.16656 0.0
C1825 C 0.23156 0.41177 0.14805 0.0
C1826 C 0.24195 0.40789 0.18443 0.0
C1827 C 0.23741 0.37647 0.22132 0.0
H1828 H 0.1761 0.33472 0.2291 0.0
C1829 C 0.1724 0.32268 0.29133 0.0
C1830 C 0.17794 0.34048 0.30463 0.0
C1831 C 0.18285 0.32637 0.27215 0.0
C1832 C 0.19338 0.34583 0.2271 0.0
H1833 H 0.21063 0.38101 0.13252 0.0
H1834 H 0.20849 0.35715 0.16349 0.0
H1835 H 0.18847 0.3505 0.19419 0.0
H1836 H 0.19894 0.37586 0.30869 0.0
H1837 H 0.21735 0.3822 0.2756 0.0
H1838 H 0.24173 0.37299 0.25478 0.0
C1839 C 0.21847 0.37502 0.16459 0.0
C1840 C 0.20056 0.3549 0.20701 0.0
C1841 C 0.21977 0.38855 0.14686 0.0
C1842 C 0.19456 0.36177 0.29888 0.0
C1843 C 0.20519 0.36539 0.27995 0.0
C1844 C 0.23015 0.36754 0.24149 0.0
C1845 C 0.22861 0.3846 0.18392 0.0
C1846 C 0.22247 0.37109 0.20402 0.0
C1847 C 0.19915 0.34784 0.26619 0.0
C1848 C 0.2079 0.35288 0.24467 0.0
H1849 H 0.25253 0.43929 0.16766 0.0
H1850 H 0.24983 0.41594 0.19901 0.0
H1851 H 0.25448 0.38848 0.21951 0.0
H1852 H 0.15964 0.30609 0.29548 0.0
H1853 H 0.17786 0.31258 0.26177 0.0
C1854 C 0.77155 0.53073 0.85182 0.0
C1855 C 0.7642 0.53378 0.87081 0.0
C1856 C 0.78151 0.54859 0.8373 0.0
C1857 C 0.8119 0.59137 0.8139 0.0
H1858 H 0.79138 0.63502 0.80859 0.0
C1859 C 0.85668 0.67097 0.76278 0.0
C1860 C 0.84375 0.67783 0.75009 0.0
C1861 C 0.84727 0.65453 0.7786 0.0
C1862 C 0.79719 0.6229 0.80971 0.0
H1863 H 0.76216 0.55753 0.89036 0.0
H1864 H 0.78025 0.58903 0.86553 0.0
H1865 H 0.77393 0.60319 0.83291 0.0
H1866 H 0.81164 0.67491 0.7454 0.0
H1867 H 0.79469 0.64522 0.7723 0.0
H1868 H 0.83441 0.61046 0.7899 0.0
C1869 C 0.77767 0.57284 0.86124 0.0
C1870 C 0.78739 0.60478 0.82391 0.0
C1871 C 0.76747 0.55493 0.87552 0.0
C1872 C 0.82164 0.66917 0.75447 0.0
C1873 C 0.81209 0.65246 0.77012 0.0
C1874 C 0.82151 0.60933 0.79949 0.0
C1875 C 0.78456 0.56986 0.84179 0.0
C1876 C 0.79472 0.58887 0.82631 0.0
C1877 C 0.82472 0.64452 0.78199 0.0
C1878 C 0.81439 0.62542 0.79734 0.0
H1879 H 0.76913 0.51443 0.84809 0.0
H1880 H 0.78639 0.5456 0.82241 0.0
H1881 H 0.81813 0.5796 0.81544 0.0
H1882 H 0.87388 0.67754 0.75986 0.0
H1883 H 0.85763 0.64934 0.78786 0.0
C1884 C 0.40516 0.20682 0.90177 0.0
C1885 C 0.4278 0.2155 0.90464 0.0
C1886 C 0.39494 0.19888 0.88217 0.0
C1887 C 0.4091 0.20621 0.8256 0.0
H1888 H 0.3474 0.16456 0.81805 0.0
C1889 C 0.36545 0.18516 0.74314 0.0
C1890 C 0.34635 0.18714 0.74108 0.0
C1891 C 0.37518 0.18535 0.76307 0.0
C1892 C 0.36465 0.17622 0.81994 0.0
H1893 H 0.45731 0.2207 0.89032 0.0
H1894 H 0.43946 0.20571 0.85624 0.0
H1895 H 0.36486 0.1688 0.85313 0.0
H1896 H 0.32239 0.19099 0.75814 0.0
H1897 H 0.33911 0.19089 0.79311 0.0
H1898 H 0.40879 0.21344 0.79232 0.0
C1899 C 0.42958 0.20591 0.86873 0.0
C1900 C 0.37469 0.17875 0.84007 0.0
C1901 C 0.43981 0.21416 0.8883 0.0
C1902 C 0.33703 0.18922 0.75933 0.0
C1903 C 0.34652 0.18903 0.77931 0.0
C1904 C 0.39912 0.20341 0.80545 0.0
C1905 C 0.40715 0.19906 0.86509 0.0
C1906 C 0.39698 0.19416 0.8433 0.0
C1907 C 0.36582 0.18731 0.78138 0.0
C1908 C 0.37671 0.18873 0.80247 0.0
H1909 H 0.39564 0.20758 0.91433 0.0
H1910 H 0.37773 0.19392 0.88015 0.0
H1911 H 0.42613 0.21857 0.82735 0.0
H1912 H 0.37338 0.1844 0.72933 0.0
H1913 H 0.39012 0.18412 0.76415 0.0
C1914 C 0.78115 0.21845 0.88766 0.0
C1915 C 0.79243 0.21789 0.90644 0.0
C1916 C 0.78259 0.20827 0.86966 0.0
C1917 C 0.82216 0.19458 0.84756 0.0
H1918 H 0.77937 0.17145 0.80133 0.0
C1919 C 0.84852 0.1961 0.76382 0.0
C1920 C 0.83691 0.17713 0.75167 0.0
C1921 C 0.84048 0.19789 0.78284 0.0
C1922 C 0.7914 0.17764 0.81421 0.0
H1923 H 0.8126 0.20517 0.92196 0.0
H1924 H 0.81449 0.18649 0.89094 0.0
H1925 H 0.76855 0.17822 0.83522 0.0
H1926 H 0.80779 0.14504 0.74994 0.0
H1927 H 0.79335 0.14828 0.78336 0.0
H1928 H 0.84503 0.19423 0.82672 0.0
C1929 C 0.80501 0.19524 0.88972 0.0
C1930 C 0.78526 0.18169 0.83355 0.0
C1931 C 0.80377 0.20565 0.90755 0.0
C1932 C 0.81682 0.16003 0.75879 0.0
C1933 C 0.80865 0.16186 0.77794 0.0
C1934 C 0.82824 0.19059 0.82835 0.0
C1935 C 0.79529 0.19728 0.87027 0.0
C1936 C 0.80069 0.19054 0.85038 0.0
C1937 C 0.82062 0.18069 0.79033 0.0
C1938 C 0.81311 0.18255 0.81128 0.0
H1939 H 0.77255 0.22811 0.88654 0.0
H1940 H 0.77501 0.21034 0.85498 0.0
H1941 H 0.83464 0.20172 0.85994 0.0
H1942 H 0.86396 0.20966 0.75864 0.0
H1943 H 0.84989 0.21282 0.79175 0.0
C1944 C 0.28466 0.16967 0.46073 0.0
C1945 C 0.26187 0.15722 0.45892 0.0
C1946 C 0.29485 0.17883 0.47999 0.0
C1947 C 0.28501 0.18736 0.53556 0.0
H1948 H 0.33315 0.17493 0.5481 0.0
C1949 C 0.33197 0.2012 0.61772 0.0
C1950 C 0.33623 0.18378 0.62467 0.0
C1951 C 0.3233 0.20138 0.59724 0.0
C1952 C 0.31973 0.17851 0.54489 0.0
H1953 H 0.23164 0.14541 0.47504 0.0
H1954 H 0.24928 0.1609 0.50904 0.0
H1955 H 0.31756 0.17062 0.51253 0.0
H1956 H 0.33423 0.15266 0.61602 0.0
H1957 H 0.31919 0.1529 0.58065 0.0
H1958 H 0.28674 0.19419 0.5685 0.0
C1959 C 0.25944 0.16416 0.49559 0.0
C1960 C 0.31095 0.17637 0.52435 0.0
C1961 C 0.24927 0.15527 0.47618 0.0
C1962 C 0.33135 0.16644 0.61102 0.0
C1963 C 0.3228 0.16662 0.5907 0.0
C1964 C 0.29385 0.1895 0.55625 0.0
C1965 C 0.2824 0.17526 0.49797 0.0
C1966 C 0.29322 0.18037 0.51941 0.0
C1967 C 0.31897 0.18423 0.5834 0.0
C1968 C 0.31096 0.18455 0.56122 0.0
H1969 H 0.29455 0.17118 0.44752 0.0
H1970 H 0.31254 0.18773 0.48105 0.0
H1971 H 0.2715 0.19078 0.53231 0.0
H1972 H 0.33589 0.21493 0.62785 0.0
H1973 H 0.32059 0.21521 0.59204 0.0
C1974 C 0.90006 0.14377 0.49511 0.0
C1975 C 0.88855 0.14586 0.47714 0.0
C1976 C 0.89815 0.15132 0.51456 0.0
C1977 C 0.87265 0.18115 0.54074 0.0
H1978 H 0.86986 0.14153 0.58797 0.0
C1979 C 0.82614 0.16965 0.61777 0.0
C1980 C 0.83756 0.17034 0.63686 0.0
C1981 C 0.8351 0.16992 0.59843 0.0
C1982 C 0.8708 0.15288 0.57498 0.0
H1983 H 0.86662 0.15794 0.46493 0.0
H1984 H 0.86245 0.17047 0.49882 0.0
H1985 H 0.88155 0.13712 0.55398 0.0
H1986 H 0.86662 0.17063 0.65076 0.0
H1987 H 0.88229 0.17092 0.61712 0.0
H1988 H 0.86054 0.19593 0.56181 0.0
C1989 C 0.87365 0.16379 0.4981 0.0
C1990 C 0.8777 0.15052 0.55544 0.0
C1991 C 0.87601 0.15668 0.4786 0.0
C1992 C 0.8579 0.17094 0.63631 0.0
C1993 C 0.8667 0.17078 0.61704 0.0
C1994 C 0.86532 0.1832 0.56023 0.0
C1995 C 0.88407 0.16049 0.51657 0.0
C1996 C 0.87859 0.16449 0.53791 0.0
C1997 C 0.85539 0.17028 0.59789 0.0
C1998 C 0.86418 0.16898 0.57749 0.0
H1999 H 0.90947 0.13505 0.49435 0.0
H2000 H 0.90697 0.14901 0.52818 0.0
H2001 H 0.87347 0.19254 0.52787 0.0
H2002 H 0.81031 0.16897 0.6178 0.0
H2003 H 0.8259 0.16923 0.58392 0.0
C2004 C 0.90948 0.77363 0.5012 0.0
C2005 C 0.92122 0.79676 0.50327 0.0
C2006 C 0.90567 0.75944 0.51891 0.0
C2007 C 0.8956 0.76014 0.5737 0.0
H2008 H 0.88965 0.70074 0.57625 0.0
C2009 C 0.83443 0.69053 0.62721 0.0
C2010 C 0.84284 0.67911 0.64031 0.0
C2011 C 0.84682 0.70464 0.61081 0.0
C2012 C 0.8914 0.71736 0.5758 0.0
H2013 H 0.93971 0.82345 0.52461 0.0
H2014 H 0.93298 0.79859 0.556 0.0
H2015 H 0.90979 0.72697 0.54754 0.0
H2016 H 0.86984 0.67211 0.64599 0.0
H2017 H 0.89147 0.69661 0.617 0.0
H2018 H 0.87662 0.75035 0.60149 0.0
C2019 C 0.92669 0.79141 0.54071 0.0
C2020 C 0.90288 0.73231 0.55943 0.0
C2021 C 0.93066 0.80558 0.52288 0.0
C2022 C 0.86318 0.68094 0.63608 0.0
C2023 C 0.87548 0.69486 0.61954 0.0
C2024 C 0.88395 0.74515 0.58989 0.0
C2025 C 0.91341 0.76826 0.53898 0.0
C2026 C 0.90472 0.7537 0.55802 0.0
C2027 C 0.86763 0.70726 0.60712 0.0
C2028 C 0.88134 0.72348 0.59081 0.0
H2029 H 0.90214 0.76669 0.48606 0.0
H2030 H 0.89525 0.74172 0.5171 0.0
H2031 H 0.8965 0.7764 0.57288 0.0
H2032 H 0.81882 0.68944 0.6303 0.0
H2033 H 0.84031 0.71382 0.60124 0.0
loop_
_geom_bond_atom_site_label_1
_geom_bond_atom_site_label_2
_geom_bond_distance
_geom_bond_site_symmetry_2
_ccdc_geom_bond_type
C0 N1 1.317 . S
C0 N2 1.348 . S
C0 C3 1.485 . S
N1 C0 1.317 . S
N1 N5 1.370 . S
N2 C0 1.348 . S
N2 C4 1.346 . S
C3 C0 1.485 . S
C3 H7 0.960 . S
C3 H8 0.961 . S
C3 H9 0.960 . S
C4 N2 1.346 . S
C4 N5 1.307 . S
C4 C6 1.486 . S
N5 N1 1.370 . S
N5 C4 1.307 . S
C6 C4 1.486 . S
C6 H10 0.960 . S
C6 H11 0.960 . S
C6 H12 0.959 . S
H7 C3 0.960 . S
H8 C3 0.961 . S
H9 C3 0.960 . S
H10 C6 0.960 . S
H11 C6 0.960 . S
H12 C6 0.959 . S
C13 N14 1.317 . S
C13 N15 1.348 . S
C13 C16 1.485 . S
N14 C13 1.317 . S
N14 N18 1.370 . S
N15 C13 1.348 . S
N15 C17 1.346 . S
C16 C13 1.485 . S
C16 H20 0.960 . S
C16 H21 0.961 . S
C16 H22 0.960 . S
C17 N15 1.346 . S
C17 N18 1.307 . S
C17 C19 1.486 . S
N18 N14 1.370 . S
N18 C17 1.307 . S
C19 C17 1.486 . S
C19 H23 0.960 . S
C19 H24 0.960 . S
C19 H25 0.959 . S
H20 C16 0.960 . S
H21 C16 0.961 . S
H22 C16 0.960 . S
H23 C19 0.960 . S
H24 C19 0.960 . S
H25 C19 0.959 . S
C26 N27 1.317 . S
C26 N28 1.348 . S
C26 C29 1.485 . S
N27 C26 1.317 . S
N27 N31 1.370 . S
N28 C26 1.348 . S
N28 C30 1.346 . S
C29 C26 1.485 . S
C29 H33 0.960 . S
C29 H34 0.961 . S
C29 H35 0.960 . S
C30 N28 1.346 . S
C30 N31 1.307 . S
C30 C32 1.486 . S
N31 N27 1.370 . S
N31 C30 1.307 . S
C32 C30 1.486 . S
C32 H36 0.960 . S
C32 H37 0.960 . S
C32 H38 0.959 . S
H33 C29 0.960 . S
H34 C29 0.961 . S
H35 C29 0.960 . S
H36 C32 0.960 . S
H37 C32 0.960 . S
H38 C32 0.959 . S
C39 N40 1.317 . S
C39 N41 1.348 . S
C39 C42 1.485 . S
N40 C39 1.317 . S
N40 N44 1.370 . S
N41 C39 1.348 . S
N41 C43 1.346 . S
C42 C39 1.485 . S
C42 H46 0.960 . S
C42 H47 0.961 . S
C42 H48 0.960 . S
C43 N41 1.346 . S
C43 N44 1.307 . S
C43 C45 1.486 . S
N44 N40 1.370 . S
N44 C43 1.307 . S
C45 C43 1.486 . S
C45 H49 0.960 . S
C45 H50 0.960 . S
C45 H51 0.959 . S
H46 C42 0.960 . S
H47 C42 0.961 . S
H48 C42 0.960 . S
H49 C45 0.960 . S
H50 C45 0.960 . S
H51 C45 0.959 . S
C52 N53 1.317 . S
C52 N54 1.348 . S
C52 C55 1.485 . S
N53 C52 1.317 . S
N53 N57 1.370 . S
N54 C52 1.348 . S
N54 C56 1.346 . S
C55 C52 1.485 . S
C55 H59 0.960 . S
C55 H60 0.961 . S
C55 H61 0.960 . S
C56 N54 1.346 . S
C56 N57 1.307 . S
C56 C58 1.486 . S
N57 N53 1.370 . S
N57 C56 1.307 . S
C58 C56 1.486 . S
C58 H62 0.960 . S
C58 H63 0.960 . S
C58 H64 0.959 . S
H59 C55 0.960 . S
H60 C55 0.961 . S
H61 C55 0.960 . S
H62 C58 0.960 . S
H63 C58 0.960 . S
H64 C58 0.959 . S
C65 N66 1.317 . S
C65 N67 1.348 . S
C65 C68 1.485 . S
N66 C65 1.317 . S
N66 N70 1.370 . S
N67 C65 1.348 . S
N67 C69 1.346 . S
C68 C65 1.485 . S
C68 H72 0.960 . S
C68 H73 0.961 . S
C68 H74 0.960 . S
C69 N67 1.346 . S
C69 N70 1.307 . S
C69 C71 1.486 . S
N70 N66 1.370 . S
N70 C69 1.307 . S
C71 C69 1.486 . S
C71 H75 0.960 . S
C71 H76 0.960 . S
C71 H77 0.959 . S
H72 C68 0.960 . S
H73 C68 0.961 . S
H74 C68 0.960 . S
H75 C71 0.960 . S
H76 C71 0.960 . S
H77 C71 0.959 . S
C78 N79 1.317 . S
C78 N80 1.348 . S
C78 C81 1.485 . S
N79 C78 1.317 . S
N79 N83 1.370 . S
N80 C78 1.348 . S
N80 C82 1.346 . S
C81 C78 1.485 . S
C81 H85 0.960 . S
C81 H86 0.961 . S
C81 H87 0.960 . S
C82 N80 1.346 . S
C82 N83 1.307 . S
C82 C84 1.486 . S
N83 N79 1.370 . S
N83 C82 1.307 . S
C84 C82 1.486 . S
C84 H88 0.960 . S
C84 H89 0.960 . S
C84 H90 0.959 . S
H85 C81 0.960 . S
H86 C81 0.961 . S
H87 C81 0.960 . S
H88 C84 0.960 . S
H89 C84 0.960 . S
H90 C84 0.959 . S
C91 N92 1.317 . S
C91 N93 1.348 . S
C91 C94 1.485 . S
N92 C91 1.317 . S
N92 N96 1.370 . S
N93 C91 1.348 . S
N93 C95 1.346 . S
C94 C91 1.485 . S
C94 H98 0.960 . S
C94 H99 0.961 . S
C94 H100 0.960 . S
C95 N93 1.346 . S
C95 N96 1.307 . S
C95 C97 1.486 . S
N96 N92 1.370 . S
N96 C95 1.307 . S
C97 C95 1.486 . S
C97 H101 0.960 . S
C97 H102 0.960 . S
C97 H103 0.959 . S
H98 C94 0.960 . S
H99 C94 0.961 . S
H100 C94 0.960 . S
H101 C97 0.960 . S
H102 C97 0.960 . S
H103 C97 0.959 . S
C104 N105 1.317 . S
C104 N106 1.348 . S
C104 C107 1.485 . S
N105 C104 1.317 . S
N105 N109 1.370 . S
N106 C104 1.348 . S
N106 C108 1.346 . S
C107 C104 1.485 . S
C107 H111 0.960 . S
C107 H112 0.961 . S
C107 H113 0.960 . S
C108 N106 1.346 . S
C108 N109 1.307 . S
C108 C110 1.486 . S
N109 N105 1.370 . S
N109 C108 1.307 . S
C110 C108 1.486 . S
C110 H114 0.960 . S
C110 H115 0.960 . S
C110 H116 0.959 . S
H111 C107 0.960 . S
H112 C107 0.961 . S
H113 C107 0.960 . S
H114 C110 0.960 . S
H115 C110 0.960 . S
H116 C110 0.959 . S
C117 N118 1.317 . S
C117 N119 1.348 . S
C117 C120 1.485 . S
N118 C117 1.317 . S
N118 N122 1.370 . S
N119 C117 1.348 . S
N119 C121 1.346 . S
C120 C117 1.485 . S
C120 H124 0.960 . S
C120 H125 0.961 . S
C120 H126 0.960 . S
C121 N119 1.346 . S
C121 N122 1.307 . S
C121 C123 1.486 . S
N122 N118 1.370 . S
N122 C121 1.307 . S
C123 C121 1.486 . S
C123 H127 0.960 . S
C123 H128 0.960 . S
C123 H129 0.959 . S
H124 C120 0.960 . S
H125 C120 0.961 . S
H126 C120 0.960 . S
H127 C123 0.960 . S
H128 C123 0.960 . S
H129 C123 0.959 . S
C130 N131 1.317 . S
C130 N132 1.348 . S
C130 C133 1.485 . S
N131 C130 1.317 . S
N131 N135 1.370 . S
N132 C130 1.348 . S
N132 C134 1.346 . S
C133 C130 1.485 . S
C133 H137 0.960 1_556 S
C133 H138 0.961 1_556 S
C133 H139 0.960 . S
C134 N132 1.346 . S
C134 N135 1.307 . S
C134 C136 1.486 . S
N135 N131 1.370 . S
N135 C134 1.307 . S
C136 C134 1.486 . S
C136 H140 0.960 . S
C136 H141 0.960 . S
C136 H142 0.959 . S
H137 C133 0.960 1_554 S
H138 C133 0.961 1_554 S
H139 C133 0.960 . S
H140 C136 0.960 . S
H141 C136 0.960 . S
H142 C136 0.959 . S
C143 N144 1.317 . S
C143 N145 1.348 . S
C143 C146 1.485 . S
N144 C143 1.317 . S
N144 N148 1.370 . S
N145 C143 1.348 . S
N145 C147 1.346 . S
C146 C143 1.485 . S
C146 H150 0.960 . S
C146 H151 0.961 1_556 S
C146 H152 0.968 . S
C147 N145 1.346 . S
C147 N148 1.307 . S
C147 C149 1.486 . S
N148 N144 1.370 . S
N148 C147 1.307 . S
C149 C147 1.486 . S
C149 H153 0.960 . S
C149 H154 0.960 . S
C149 H155 0.959 . S
H150 C146 0.960 . S
H151 C146 0.961 1_554 S
H152 C146 0.968 . S
H153 C149 0.960 . S
H154 C149 0.960 . S
H155 C149 0.959 . S
C156 N157 1.317 . S
C156 N158 1.348 . S
C156 C159 1.485 . S
N157 C156 1.317 . S
N157 N161 1.370 . S
N158 C156 1.348 . S
N158 C160 1.346 . S
C159 C156 1.485 . S
C159 H163 0.960 . S
C159 H164 0.961 . S
C159 H165 0.960 . S
C160 N158 1.346 . S
C160 N161 1.307 . S
C160 C162 1.486 . S
N161 N157 1.370 . S
N161 C160 1.307 . S
C162 C160 1.486 . S
C162 H166 0.960 . S
C162 H167 0.960 . S
C162 H168 0.959 . S
H163 C159 0.960 . S
H164 C159 0.961 . S
H165 C159 0.960 . S
H166 C162 0.960 . S
H167 C162 0.960 . S
H168 C162 0.959 . S
C169 N170 1.317 . S
C169 N171 1.348 . S
C169 C172 1.485 . S
N170 C169 1.317 . S
N170 N174 1.370 . S
N171 C169 1.348 . S
N171 C173 1.346 . S
C172 C169 1.485 . S
C172 H176 0.960 . S
C172 H177 0.961 . S
C172 H178 0.960 . S
C173 N171 1.346 . S
C173 N174 1.307 . S
C173 C175 1.486 . S
N174 N170 1.370 . S
N174 C173 1.307 . S
C175 C173 1.486 . S
C175 H179 0.960 . S
C175 H180 0.960 . S
C175 H181 0.959 . S
H176 C172 0.960 . S
H177 C172 0.961 . S
H178 C172 0.960 . S
H179 C175 0.960 . S
H180 C175 0.960 . S
H181 C175 0.959 . S
C182 N183 1.317 . S
C182 N184 1.348 . S
C182 C185 1.485 . S
N183 C182 1.317 . S
N183 N187 1.370 . S
N184 C182 1.348 . S
N184 C186 1.346 . S
C185 C182 1.485 . S
C185 H189 0.960 . S
C185 H190 0.961 . S
C185 H191 0.960 . S
C186 N184 1.346 . S
C186 N187 1.307 . S
C186 C188 1.486 . S
N187 N183 1.370 . S
N187 C186 1.307 . S
C188 C186 1.486 . S
C188 H192 0.960 . S
C188 H193 0.960 . S
C188 H194 0.959 . S
H189 C185 0.960 . S
H190 C185 0.961 . S
H191 C185 0.960 . S
H192 C188 0.960 . S
H193 C188 0.960 . S
H194 C188 0.959 . S
C195 N196 1.317 . S
C195 N197 1.348 . S
C195 C198 1.485 . S
N196 C195 1.317 . S
N196 N200 1.370 . S
N197 C195 1.348 . S
N197 C199 1.346 . S
C198 C195 1.485 . S
C198 H202 0.960 . S
C198 H203 0.961 . S
C198 H204 0.960 . S
C199 N197 1.346 . S
C199 N200 1.307 . S
C199 C201 1.486 . S
N200 N196 1.370 . S
N200 C199 1.307 . S
C201 C199 1.486 . S
C201 H205 0.960 . S
C201 H206 0.960 . S
C201 H207 0.959 . S
H202 C198 0.960 . S
H203 C198 0.961 . S
H204 C198 0.960 . S
H205 C201 0.960 . S
H206 C201 0.960 . S
H207 C201 0.959 . S
C208 N209 1.317 . S
C208 N210 1.348 . S
C208 C211 1.485 . S
N209 C208 1.317 . S
N209 N213 1.370 . S
N210 C208 1.348 . S
N210 C212 1.346 . S
C211 C208 1.485 . S
C211 H215 0.960 . S
C211 H216 0.961 . S
C211 H217 0.960 . S
C212 N210 1.346 . S
C212 N213 1.307 . S
C212 C214 1.486 . S
N213 N209 1.370 . S
N213 C212 1.307 . S
C214 C212 1.486 . S
C214 H218 0.960 . S
C214 H219 0.960 . S
C214 H220 0.959 . S
H215 C211 0.960 . S
H216 C211 0.961 . S
H217 C211 0.960 . S
H218 C214 0.960 . S
H219 C214 0.960 . S
H220 C214 0.959 . S
C221 N222 1.317 . S
C221 N223 1.348 . S
C221 C224 1.485 . S
N222 C221 1.317 . S
N222 N226 1.370 . S
N223 C221 1.348 . S
N223 C225 1.346 . S
C224 C221 1.485 . S
C224 H228 0.960 . S
C224 H229 0.961 . S
C224 H230 0.960 . S
C225 N223 1.346 . S
C225 N226 1.307 . S
C225 C227 1.486 . S
N226 N222 1.370 . S
N226 C225 1.307 . S
C227 C225 1.486 . S
C227 H231 0.960 . S
C227 H232 0.960 . S
C227 H233 0.959 . S
H228 C224 0.960 . S
H229 C224 0.961 . S
H230 C224 0.960 . S
H231 C227 0.960 . S
H232 C227 0.960 . S
H233 C227 0.959 . S
Tb234 O237 2.453 . S
Tb234 O238 2.596 1_545 S
Tb234 O239 2.374 1_545 S
Tb234 O247 2.343 . S
Tb234 O249 2.353 . S
Tb234 O251 2.427 . S
Tb234 O252 2.513 . S
C235 O239 1.251 . S
C235 O241 1.263 . S
Tb236 O238 2.343 . S
Tb236 O241 2.353 . S
Tb236 O244 2.427 . S
Tb236 O245 2.513 . S
Tb236 O246 2.453 1_564 S
Tb236 O247 2.596 1_565 S
Tb236 O248 2.374 1_565 S
O237 Tb234 2.453 . S
O237 C253 1.245 1_545 S
O238 Tb234 2.596 1_565 S
O238 Tb236 2.343 . S
O238 C253 1.259 . S
O239 Tb234 2.374 1_565 S
O239 C235 1.251 . S
C240 O244 1.275 . S
C240 O245 1.246 . S
O241 C235 1.263 . S
O241 Tb236 2.353 . S
C242 O246 1.245 . S
C242 O247 1.259 1_556 S
C243 O248 1.250 . S
C243 O249 1.263 . S
O244 Tb236 2.427 . S
O244 C240 1.275 . S
O245 Tb236 2.513 . S
O245 C240 1.246 . S
O246 Tb236 2.453 1_546 S
O246 C242 1.245 . S
O247 Tb234 2.343 . S
O247 Tb236 2.596 1_545 S
O247 C242 1.259 1_554 S
O248 Tb236 2.374 1_545 S
O248 C243 1.250 . S
O249 Tb234 2.353 . S
O249 C243 1.263 . S
C250 O251 1.275 . S
C250 O252 1.246 . S
O251 Tb234 2.427 . S
O251 C250 1.275 . S
O252 Tb234 2.513 . S
O252 C250 1.246 . S
C253 O237 1.245 1_565 S
C253 O238 1.259 . S
Tb254 O257 2.453 . S
Tb254 O258 2.596 1_655 S
Tb254 O259 2.374 1_655 S
Tb254 O267 2.358 1_554 S
Tb254 O269 2.353 . S
Tb254 O271 2.427 1_554 S
Tb254 O272 2.513 1_554 S
C255 O259 1.251 . S
C255 O261 1.263 . S
Tb256 O258 2.342 . S
Tb256 O261 2.353 . S
Tb256 O264 2.426 . S
Tb256 O265 2.512 . S
Tb256 O266 2.454 1_554 S
Tb256 O267 2.569 1_454 S
Tb256 O268 2.404 . S
O257 Tb254 2.453 . S
O257 C273 1.245 1_655 S
O258 Tb254 2.596 1_455 S
O258 Tb256 2.342 . S
O258 C273 1.259 . S
O259 Tb254 2.374 1_455 S
O259 C255 1.251 . S
C260 O264 1.275 . S
C260 O265 1.246 . S
O261 C255 1.263 . S
O261 Tb256 2.353 . S
C262 O266 1.245 . S
C262 O267 1.251 1_455 S
C263 O268 1.192 1_655 S
C263 O269 1.263 . S
O264 Tb256 2.426 . S
O264 C260 1.275 . S
O265 Tb256 2.512 . S
O265 C260 1.246 . S
O266 Tb256 2.454 1_556 S
O266 C262 1.245 . S
O267 Tb254 2.358 1_556 S
O267 Tb256 2.569 1_656 S
O267 C262 1.251 1_655 S
O268 Tb256 2.404 . S
O268 C263 1.192 1_455 S
O269 Tb254 2.353 . S
O269 C263 1.263 . S
C270 O271 1.275 . S
C270 O272 1.246 . S
O271 Tb254 2.427 1_556 S
O271 C270 1.275 . S
O272 Tb254 2.513 1_556 S
O272 C270 1.246 . S
C273 O257 1.245 1_455 S
C273 O258 1.259 . S
Tb274 O277 2.453 1_554 S
Tb274 O278 2.596 . S
Tb274 O279 2.374 . S
Tb274 O287 2.343 . S
Tb274 O289 2.353 . S
Tb274 O291 2.427 . S
Tb274 O292 2.513 . S
C275 O279 1.251 . S
C275 O281 1.263 . S
Tb276 O278 2.343 . S
Tb276 O281 2.353 . S
Tb276 O284 2.427 . S
Tb276 O285 2.513 . S
Tb276 O286 2.453 . S
Tb276 O287 2.596 . S
Tb276 O288 2.374 . S
O277 Tb274 2.453 1_556 S
O277 C293 1.245 . S
O278 Tb274 2.596 . S
O278 Tb276 2.343 . S
O278 C293 1.259 1_554 S
O279 Tb274 2.374 . S
O279 C275 1.251 . S
C280 O284 1.275 . S
C280 O285 1.246 . S
O281 C275 1.263 . S
O281 Tb276 2.353 . S
C282 O286 1.245 . S
C282 O287 1.259 . S
C283 O288 1.250 . S
C283 O289 1.263 . S
O284 Tb276 2.427 . S
O284 C280 1.275 . S
O285 Tb276 2.513 . S
O285 C280 1.246 . S
O286 Tb276 2.453 . S
O286 C282 1.245 . S
O287 Tb274 2.343 . S
O287 Tb276 2.596 . S
O287 C282 1.259 . S
O288 Tb276 2.374 . S
O288 C283 1.250 . S
O289 Tb274 2.353 . S
O289 C283 1.263 . S
C290 O291 1.275 . S
C290 O292 1.246 . S
O291 Tb274 2.427 . S
O291 C290 1.275 . S
O292 Tb274 2.513 . S
O292 C290 1.246 . S
C293 O277 1.245 . S
C293 O278 1.259 1_556 S
Tb294 O297 2.453 . S
Tb294 O298 2.596 . S
Tb294 O299 2.374 . S
Tb294 O307 2.343 . S
Tb294 O309 2.353 . S
Tb294 O311 2.427 . S
Tb294 O312 2.513 . S
C295 O299 1.251 . S
C295 O301 1.263 . S
Tb296 O298 2.343 . S
Tb296 O301 2.353 . S
Tb296 O304 2.427 . S
Tb296 O305 2.513 . S
Tb296 O306 2.453 . S
Tb296 O307 2.596 . S
Tb296 O308 2.374 . S
O297 Tb294 2.453 . S
O297 C313 1.245 . S
O298 Tb294 2.596 . S
O298 Tb296 2.343 . S
O298 C313 1.259 . S
O299 Tb294 2.374 . S
O299 C295 1.251 . S
C300 O304 1.275 . S
C300 O305 1.246 . S
O301 C295 1.263 . S
O301 Tb296 2.353 . S
C302 O306 1.245 . S
C302 O307 1.259 . S
C303 O308 1.250 . S
C303 O309 1.263 . S
O304 Tb296 2.427 . S
O304 C300 1.275 . S
O305 Tb296 2.513 . S
O305 C300 1.246 . S
O306 Tb296 2.453 . S
O306 C302 1.245 . S
O307 Tb294 2.343 . S
O307 Tb296 2.596 . S
O307 C302 1.259 . S
O308 Tb296 2.374 . S
O308 C303 1.250 . S
O309 Tb294 2.353 . S
O309 C303 1.263 . S
C310 O311 1.275 . S
C310 O312 1.246 . S
O311 Tb294 2.427 . S
O311 C310 1.275 . S
O312 Tb294 2.513 . S
O312 C310 1.246 . S
C313 O297 1.245 . S
C313 O298 1.259 . S
Tb314 O317 2.453 . S
Tb314 O318 2.596 . S
Tb314 O319 2.374 . S
Tb314 O327 2.343 . S
Tb314 O329 2.353 . S
Tb314 O331 2.427 . S
Tb314 O332 2.513 . S
C315 O319 1.251 . S
C315 O321 1.263 . S
Tb316 O318 2.343 . S
Tb316 O321 2.353 . S
Tb316 O324 2.427 . S
Tb316 O325 2.513 . S
Tb316 O326 2.453 . S
Tb316 O327 2.596 . S
Tb316 O328 2.374 . S
O317 Tb314 2.453 . S
O317 C333 1.245 . S
O318 Tb314 2.596 . S
O318 Tb316 2.343 . S
O318 C333 1.259 . S
O319 Tb314 2.374 . S
O319 C315 1.251 . S
C320 O324 1.275 . S
C320 O325 1.246 . S
O321 C315 1.263 . S
O321 Tb316 2.353 . S
C322 O326 1.245 . S
C322 O327 1.259 . S
C323 O328 1.250 . S
C323 O329 1.263 . S
O324 Tb316 2.427 . S
O324 C320 1.275 . S
O325 Tb316 2.513 . S
O325 C320 1.246 . S
O326 Tb316 2.453 . S
O326 C322 1.245 . S
O327 Tb314 2.343 . S
O327 Tb316 2.596 . S
O327 C322 1.259 . S
O328 Tb316 2.374 . S
O328 C323 1.250 . S
O329 Tb314 2.353 . S
O329 C323 1.263 . S
C330 O331 1.275 . S
C330 O332 1.246 . S
O331 Tb314 2.427 . S
O331 C330 1.275 . S
O332 Tb314 2.513 . S
O332 C330 1.246 . S
C333 O317 1.245 . S
C333 O318 1.259 . S
Tb334 O337 2.453 . S
Tb334 O338 2.596 . S
Tb334 O339 2.374 . S
Tb334 O347 2.343 . S
Tb334 O349 2.353 . S
Tb334 O351 2.427 . S
Tb334 O352 2.513 . S
C335 O339 1.251 . S
C335 O341 1.263 . S
Tb336 O338 2.343 . S
Tb336 O341 2.353 . S
Tb336 O344 2.427 . S
Tb336 O345 2.513 . S
Tb336 O346 2.453 . S
Tb336 O347 2.596 . S
Tb336 O348 2.374 . S
O337 Tb334 2.453 . S
O337 C353 1.245 . S
O338 Tb334 2.596 . S
O338 Tb336 2.343 . S
O338 C353 1.259 . S
O339 Tb334 2.374 . S
O339 C335 1.251 . S
C340 O344 1.275 . S
C340 O345 1.246 . S
O341 C335 1.263 . S
O341 Tb336 2.353 . S
C342 O346 1.245 . S
C342 O347 1.259 . S
C343 O348 1.250 . S
C343 O349 1.263 . S
O344 Tb336 2.427 . S
O344 C340 1.275 . S
O345 Tb336 2.513 . S
O345 C340 1.246 . S
O346 Tb336 2.453 . S
O346 C342 1.245 . S
O347 Tb334 2.343 . S
O347 Tb336 2.596 . S
O347 C342 1.259 . S
O348 Tb336 2.374 . S
O348 C343 1.250 . S
O349 Tb334 2.353 . S
O349 C343 1.263 . S
C350 O351 1.275 . S
C350 O352 1.246 . S
O351 Tb334 2.427 . S
O351 C350 1.275 . S
O352 Tb334 2.513 . S
O352 C350 1.246 . S
C353 O337 1.245 . S
C353 O338 1.259 . S
Tb354 O357 2.453 . S
Tb354 O358 2.596 . S
Tb354 O359 2.374 . S
Tb354 O367 2.343 . S
Tb354 O369 2.353 . S
Tb354 O371 2.427 . S
Tb354 O372 2.513 . S
C355 O359 1.251 . S
C355 O361 1.263 . S
Tb356 O358 2.343 . S
Tb356 O361 2.353 . S
Tb356 O364 2.427 . S
Tb356 O365 2.513 . S
Tb356 O366 2.453 . S
Tb356 O367 2.596 . S
Tb356 O368 2.374 . S
O357 Tb354 2.453 . S
O357 C373 1.245 . S
O358 Tb354 2.596 . S
O358 Tb356 2.343 . S
O358 C373 1.259 . S
O359 Tb354 2.374 . S
O359 C355 1.251 . S
C360 O364 1.275 . S
C360 O365 1.246 . S
O361 C355 1.263 . S
O361 Tb356 2.353 . S
C362 O366 1.245 . S
C362 O367 1.259 . S
C363 O368 1.250 . S
C363 O369 1.263 . S
O364 Tb356 2.427 . S
O364 C360 1.275 . S
O365 Tb356 2.513 . S
O365 C360 1.246 . S
O366 Tb356 2.453 . S
O366 C362 1.245 . S
O367 Tb354 2.343 . S
O367 Tb356 2.596 . S
O367 C362 1.259 . S
O368 Tb356 2.374 . S
O368 C363 1.250 . S
O369 Tb354 2.353 . S
O369 C363 1.263 . S
C370 O371 1.275 . S
C370 O372 1.246 . S
O371 Tb354 2.427 . S
O371 C370 1.275 . S
O372 Tb354 2.513 . S
O372 C370 1.246 . S
C373 O357 1.245 . S
C373 O358 1.259 . S
Tb374 O377 2.453 . S
Tb374 O378 2.596 . S
Tb374 O379 2.374 . S
Tb374 O387 2.343 . S
Tb374 O389 2.353 . S
Tb374 O391 2.427 . S
Tb374 O392 2.513 . S
C375 O379 1.251 . S
C375 O381 1.263 . S
Tb376 O378 2.343 . S
Tb376 O381 2.353 . S
Tb376 O384 2.427 . S
Tb376 O385 2.513 . S
Tb376 O386 2.453 . S
Tb376 O387 2.596 . S
Tb376 O388 2.374 . S
O377 Tb374 2.453 . S
O377 C393 1.245 . S
O378 Tb374 2.596 . S
O378 Tb376 2.343 . S
O378 C393 1.259 . S
O379 Tb374 2.374 . S
O379 C375 1.251 . S
C380 O384 1.275 . S
C380 O385 1.246 . S
O381 C375 1.263 . S
O381 Tb376 2.353 . S
C382 O386 1.245 . S
C382 O387 1.259 . S
C383 O388 1.250 . S
C383 O389 1.263 . S
O384 Tb376 2.427 . S
O384 C380 1.275 . S
O385 Tb376 2.513 . S
O385 C380 1.246 . S
O386 Tb376 2.453 . S
O386 C382 1.245 . S
O387 Tb374 2.343 . S
O387 Tb376 2.596 . S
O387 C382 1.259 . S
O388 Tb376 2.374 . S
O388 C383 1.250 . S
O389 Tb374 2.353 . S
O389 C383 1.263 . S
C390 O391 1.275 . S
C390 O392 1.246 . S
O391 Tb374 2.427 . S
O391 C390 1.275 . S
O392 Tb374 2.513 . S
O392 C390 1.246 . S
C393 O377 1.245 . S
C393 O378 1.259 . S
Tb394 O397 2.453 . S
Tb394 O398 2.596 . S
Tb394 O399 2.374 . S
Tb394 O407 2.343 . S
Tb394 O409 2.353 . S
Tb394 O411 2.427 . S
Tb394 O412 2.513 . S
C395 O399 1.251 . S
C395 O401 1.263 . S
Tb396 O398 2.343 . S
Tb396 O401 2.353 . S
Tb396 O404 2.427 . S
Tb396 O405 2.513 . S
Tb396 O406 2.453 . S
Tb396 O407 2.596 . S
Tb396 O408 2.374 . S
O397 Tb394 2.453 . S
O397 C413 1.245 . S
O398 Tb394 2.596 . S
O398 Tb396 2.343 . S
O398 C413 1.259 . S
O399 Tb394 2.374 . S
O399 C395 1.251 . S
C400 O404 1.275 . S
C400 O405 1.246 . S
O401 C395 1.263 . S
O401 Tb396 2.353 . S
C402 O406 1.245 . S
C402 O407 1.259 . S
C403 O408 1.250 . S
C403 O409 1.263 . S
O404 Tb396 2.427 . S
O404 C400 1.275 . S
O405 Tb396 2.513 . S
O405 C400 1.246 . S
O406 Tb396 2.453 . S
O406 C402 1.245 . S
O407 Tb394 2.343 . S
O407 Tb396 2.596 . S
O407 C402 1.259 . S
O408 Tb396 2.374 . S
O408 C403 1.250 . S
O409 Tb394 2.353 . S
O409 C403 1.263 . S
C410 O411 1.275 . S
C410 O412 1.246 . S
O411 Tb394 2.427 . S
O411 C410 1.275 . S
O412 Tb394 2.513 . S
O412 C410 1.246 . S
C413 O397 1.245 . S
C413 O398 1.259 . S
C414 C415 1.349 . S
C414 C416 1.327 . S
C414 H439 0.950 . S
C415 C414 1.349 . S
C415 C431 1.349 . S
C416 C414 1.327 . S
C416 C435 1.429 . S
C416 H440 0.950 . S
C417 C434 1.574 . S
C417 C436 1.368 . S
C417 H441 0.949 . S
H418 C422 0.949 . S
C419 C420 1.349 . S
C419 C421 1.327 . S
C419 H442 0.950 . S
C420 C419 1.349 . S
C420 C432 1.349 . S
C421 C419 1.327 . S
C421 C437 1.429 . S
C421 H443 0.950 . S
C422 H418 0.949 . S
C422 C430 1.574 . S
C422 C438 1.368 . S
H423 C431 0.950 . S
H424 C429 0.950 . S
H425 C430 0.949 . S
H426 C432 0.950 . S
H427 C433 0.950 . S
H428 C434 0.949 . S
C429 H424 0.950 . S
C429 C431 1.327 . S
C429 C435 1.429 . S
C430 C422 1.574 . S
C430 H425 0.949 . S
C430 C436 1.368 . S
C431 C415 1.349 . S
C431 H423 0.950 . S
C431 C429 1.327 . S
C432 C420 1.349 . S
C432 H426 0.950 . S
C432 C433 1.327 . S
C433 H427 0.950 . S
C433 C432 1.327 . S
C433 C437 1.429 . S
C434 C417 1.574 . S
C434 H428 0.949 . S
C434 C438 1.368 . S
C435 C416 1.429 . S
C435 C429 1.429 . S
C435 C436 1.523 . S
C436 C417 1.368 . S
C436 C430 1.368 . S
C436 C435 1.523 . S
C437 C421 1.429 . S
C437 C433 1.429 . S
C437 C438 1.523 . S
C438 C422 1.368 . S
C438 C434 1.368 . S
C438 C437 1.523 . S
H439 C414 0.950 . S
H440 C416 0.950 . S
H441 C417 0.949 . S
H442 C419 0.950 . S
H443 C421 0.950 . S
C444 C445 1.349 . S
C444 C446 1.327 . S
C444 H469 0.950 . S
C445 C444 1.349 . S
C445 C461 1.349 . S
C446 C444 1.327 . S
C446 C465 1.429 . S
C446 H470 0.950 . S
C447 C464 1.574 . S
C447 C466 1.368 . S
C447 H471 0.949 . S
H448 C452 0.949 . S
C449 C450 1.349 . S
C449 C451 1.327 . S
C449 H472 0.950 . S
C450 C449 1.349 . S
C450 C462 1.349 . S
C451 C449 1.327 . S
C451 C467 1.429 . S
C451 H473 0.950 . S
C452 H448 0.949 . S
C452 C460 1.574 . S
C452 C468 1.368 . S
H453 C461 0.950 . S
H454 C459 0.950 . S
H455 C460 0.949 . S
H456 C462 0.950 . S
H457 C463 0.950 . S
H458 C464 0.949 . S
C459 H454 0.950 . S
C459 C461 1.327 . S
C459 C465 1.429 . S
C460 C452 1.574 . S
C460 H455 0.949 . S
C460 C466 1.368 . S
C461 C445 1.349 . S
C461 H453 0.950 . S
C461 C459 1.327 . S
C462 C450 1.349 . S
C462 H456 0.950 . S
C462 C463 1.327 . S
C463 H457 0.950 . S
C463 C462 1.327 . S
C463 C467 1.429 . S
C464 C447 1.574 . S
C464 H458 0.949 . S
C464 C468 1.368 . S
C465 C446 1.429 . S
C465 C459 1.429 . S
C465 C466 1.523 . S
C466 C447 1.368 . S
C466 C460 1.368 . S
C466 C465 1.523 . S
C467 C451 1.429 . S
C467 C463 1.429 . S
C467 C468 1.523 . S
C468 C452 1.368 . S
C468 C464 1.368 . S
C468 C467 1.523 . S
H469 C444 0.950 . S
H470 C446 0.950 . S
H471 C447 0.949 . S
H472 C449 0.950 . S
H473 C451 0.950 . S
C474 C475 1.349 . S
C474 C476 1.327 . S
C474 H499 0.950 . S
C475 C474 1.349 . S
C475 C491 1.349 . S
C476 C474 1.327 . S
C476 C495 1.429 . S
C476 H500 0.950 . S
C477 C494 1.574 . S
C477 C496 1.368 . S
C477 H501 0.949 . S
H478 C482 0.949 . S
C479 C480 1.349 . S
C479 C481 1.327 . S
C479 H502 0.950 . S
C480 C479 1.349 . S
C480 C492 1.349 . S
C481 C479 1.327 . S
C481 C497 1.429 . S
C481 H503 0.950 . S
C482 H478 0.949 . S
C482 C490 1.574 . S
C482 C498 1.368 . S
H483 C491 0.950 . S
H484 C489 0.950 . S
H485 C490 0.949 . S
H486 C492 0.950 . S
H487 C493 0.950 . S
H488 C494 0.949 . S
C489 H484 0.950 . S
C489 C491 1.327 . S
C489 C495 1.429 . S
C490 C482 1.574 . S
C490 H485 0.949 . S
C490 C496 1.368 . S
C491 C475 1.349 . S
C491 H483 0.950 . S
C491 C489 1.327 . S
C492 C480 1.349 . S
C492 H486 0.950 . S
C492 C493 1.327 . S
C493 H487 0.950 . S
C493 C492 1.327 . S
C493 C497 1.429 . S
C494 C477 1.574 . S
C494 H488 0.949 . S
C494 C498 1.368 . S
C495 C476 1.429 . S
C495 C489 1.429 . S
C495 C496 1.523 . S
C496 C477 1.368 . S
C496 C490 1.368 . S
C496 C495 1.523 . S
C497 C481 1.429 . S
C497 C493 1.429 . S
C497 C498 1.523 . S
C498 C482 1.368 . S
C498 C494 1.368 . S
C498 C497 1.523 . S
H499 C474 0.950 . S
H500 C476 0.950 . S
H501 C477 0.949 . S
H502 C479 0.950 . S
H503 C481 0.950 . S
C504 C505 1.349 . S
C504 C506 1.327 . S
C504 H529 0.950 . S
C505 C504 1.349 . S
C505 C521 1.349 . S
C506 C504 1.327 . S
C506 C525 1.429 . S
C506 H530 0.950 . S
C507 C524 1.574 . S
C507 C526 1.368 1_554 S
C507 H531 0.949 . S
H508 C512 0.949 . S
C509 C510 1.321 1_554 S
C509 C511 1.327 . S
C509 H532 0.950 . S
C510 C509 1.321 1_556 S
C510 C522 1.384 . S
C511 C509 1.327 . S
C511 C527 1.429 1_554 S
C511 H533 0.950 . S
C512 H508 0.949 . S
C512 C520 1.574 . S
C512 C528 1.368 . S
H513 C521 0.950 1_554 S
H514 C519 0.950 1_554 S
H515 C520 0.949 . S
H516 C522 0.950 . S
H517 C523 0.950 . S
H518 C524 0.949 . S
C519 H514 0.950 1_556 S
C519 C521 1.327 . S
C519 C525 1.429 . S
C520 C512 1.574 . S
C520 H515 0.949 . S
C520 C526 1.368 . S
C521 C505 1.349 . S
C521 H513 0.950 1_556 S
C521 C519 1.327 . S
C522 C510 1.384 . S
C522 H516 0.950 . S
C522 C523 1.327 . S
C523 H517 0.950 . S
C523 C522 1.327 . S
C523 C527 1.429 . S
C524 C507 1.574 . S
C524 H518 0.949 . S
C524 C528 1.368 1_554 S
C525 C506 1.429 . S
C525 C519 1.429 . S
C525 C526 1.523 . S
C526 C507 1.368 1_556 S
C526 C520 1.368 . S
C526 C525 1.523 . S
C527 C511 1.429 1_556 S
C527 C523 1.429 . S
C527 C528 1.523 . S
C528 C512 1.368 . S
C528 C524 1.368 1_556 S
C528 C527 1.523 . S
H529 C504 0.950 . S
H530 C506 0.950 . S
H531 C507 0.949 . S
H532 C509 0.950 . S
H533 C511 0.950 . S
C534 C535 1.349 . S
C534 C536 1.327 . S
C534 H559 0.950 . S
C535 C534 1.349 . S
C535 C551 1.349 . S
C536 C534 1.327 . S
C536 C555 1.429 . S
C536 H560 0.950 . S
C537 C554 1.574 . S
C537 C556 1.368 . S
C537 H561 0.949 . S
H538 C542 0.949 1_554 S
C539 C540 1.349 1_556 S
C539 C541 1.327 . S
C539 H562 0.950 . S
C540 C539 1.349 1_554 S
C540 C552 1.349 . S
C541 C539 1.327 . S
C541 C557 1.429 . S
C541 H563 0.950 . S
C542 H538 0.949 1_556 S
C542 C550 1.574 . S
C542 C558 1.368 . S
H543 C551 0.950 . S
H544 C549 0.950 . S
H545 C550 0.949 . S
H546 C552 0.950 . S
H547 C553 0.950 . S
H548 C554 0.949 . S
C549 H544 0.950 . S
C549 C551 1.327 . S
C549 C555 1.429 . S
C550 C542 1.574 . S
C550 H545 0.949 . S
C550 C556 1.368 . S
C551 C535 1.349 . S
C551 H543 0.950 . S
C551 C549 1.327 . S
C552 C540 1.349 . S
C552 H546 0.950 . S
C552 C553 1.327 . S
C553 H547 0.950 . S
C553 C552 1.327 . S
C553 C557 1.429 1_554 S
C554 C537 1.574 . S
C554 H548 0.949 . S
C554 C558 1.368 . S
C555 C536 1.429 . S
C555 C549 1.429 . S
C555 C556 1.523 . S
C556 C537 1.368 . S
C556 C550 1.368 . S
C556 C555 1.523 . S
C557 C541 1.429 . S
C557 C553 1.429 1_556 S
C557 C558 1.523 . S
C558 C542 1.368 . S
C558 C554 1.368 . S
C558 C557 1.523 . S
H559 C534 0.950 . S
H560 C536 0.950 . S
H561 C537 0.949 . S
H562 C539 0.950 . S
H563 C541 0.950 . S
C564 C565 1.349 . S
C564 C566 1.327 . S
C564 H589 0.950 . S
C565 C564 1.349 . S
C565 C581 1.349 . S
C566 C564 1.327 . S
C566 C585 1.429 . S
C566 H590 0.950 . S
C567 C584 1.574 . S
C567 C586 1.368 1_554 S
C567 H591 0.949 . S
H568 C572 0.949 . S
C569 C570 1.349 . S
C569 C571 1.327 . S
C569 H592 0.950 . S
C570 C569 1.349 . S
C570 C582 1.349 1_554 S
C571 C569 1.327 . S
C571 C587 1.437 . S
C571 H593 0.950 . S
C572 H568 0.949 . S
C572 C580 1.574 . S
C572 C588 1.368 . S
H573 C581 0.950 . S
H574 C579 0.950 1_554 S
H575 C580 0.949 . S
H576 C582 0.950 . S
H577 C583 0.950 . S
H578 C584 0.949 . S
C579 H574 0.950 1_556 S
C579 C581 1.327 . S
C579 C585 1.429 . S
C580 C572 1.574 . S
C580 H575 0.949 . S
C580 C586 1.368 . S
C581 C565 1.349 . S
C581 H573 0.950 . S
C581 C579 1.327 . S
C582 C570 1.349 1_556 S
C582 H576 0.950 . S
C582 C583 1.327 . S
C583 H577 0.950 . S
C583 C582 1.327 . S
C583 C587 1.422 1_556 S
C584 C567 1.574 . S
C584 H578 0.949 . S
C584 C588 1.368 1_554 S
C585 C566 1.429 . S
C585 C579 1.429 . S
C585 C586 1.523 . S
C586 C567 1.368 1_556 S
C586 C580 1.368 . S
C586 C585 1.523 . S
C587 C571 1.437 . S
C587 C583 1.422 1_554 S
C587 C588 1.521 1_554 S
C588 C572 1.368 . S
C588 C584 1.368 1_556 S
C588 C587 1.521 1_556 S
H589 C564 0.950 . S
H590 C566 0.950 . S
H591 C567 0.949 . S
H592 C569 0.950 . S
H593 C571 0.950 . S
C594 C595 1.349 . S
C594 C596 1.327 . S
C594 H619 0.950 . S
C595 C594 1.349 . S
C595 C611 1.349 . S
C596 C594 1.327 . S
C596 C615 1.429 . S
C596 H620 0.950 . S
C597 C614 1.574 1_556 S
C597 C616 1.368 . S
C597 H621 0.949 1_556 S
H598 C602 0.949 . S
C599 C600 1.349 . S
C599 C601 1.327 . S
C599 H622 0.950 . S
C600 C599 1.349 . S
C600 C612 1.349 1_554 S
C601 C599 1.327 . S
C601 C617 1.429 1_554 S
C601 H623 0.950 . S
C602 H598 0.949 . S
C602 C610 1.574 . S
C602 C618 1.368 . S
H603 C611 0.950 . S
H604 C609 0.980 . S
H605 C610 0.949 . S
H606 C612 0.950 . S
H607 C613 0.950 . S
H608 C614 0.949 . S
C609 H604 0.980 . S
C609 C611 1.327 . S
C609 C615 1.429 . S
C610 C602 1.574 . S
C610 H605 0.949 . S
C610 C616 1.368 . S
C611 C595 1.349 . S
C611 H603 0.950 . S
C611 C609 1.327 . S
C612 C600 1.349 1_556 S
C612 H606 0.950 . S
C612 C613 1.327 . S
C613 H607 0.950 . S
C613 C612 1.327 . S
C613 C617 1.429 . S
C614 C597 1.574 1_554 S
C614 H608 0.949 . S
C614 C618 1.368 1_554 S
C615 C596 1.429 . S
C615 C609 1.429 . S
C615 C616 1.523 . S
C616 C597 1.368 . S
C616 C610 1.368 . S
C616 C615 1.523 . S
C617 C601 1.429 1_556 S
C617 C613 1.429 . S
C617 C618 1.523 . S
C618 C602 1.368 . S
C618 C614 1.368 1_556 S
C618 C617 1.523 . S
H619 C594 0.950 . S
H620 C596 0.950 . S
H621 C597 0.949 1_554 S
H622 C599 0.950 . S
H623 C601 0.950 . S
C624 C625 1.349 . S
C624 C626 1.327 . S
C624 H649 0.950 . S
C625 C624 1.349 . S
C625 C641 1.349 . S
C626 C624 1.327 . S
C626 C645 1.429 . S
C626 H650 0.950 . S
C627 C644 1.574 . S
C627 C646 1.368 . S
C627 H651 0.949 . S
H628 C632 0.949 . S
C629 C630 1.349 . S
C629 C631 1.327 . S
C629 H652 0.950 . S
C630 C629 1.349 . S
C630 C642 1.349 . S
C631 C629 1.327 . S
C631 C647 1.429 . S
C631 H653 0.950 . S
C632 H628 0.949 . S
C632 C640 1.574 . S
C632 C648 1.368 . S
H633 C641 0.950 . S
H634 C639 0.950 . S
H635 C640 0.949 . S
H636 C642 0.950 . S
H637 C643 0.950 . S
H638 C644 0.949 . S
C639 H634 0.950 . S
C639 C641 1.327 . S
C639 C645 1.429 . S
C640 C632 1.574 . S
C640 H635 0.949 . S
C640 C646 1.368 . S
C641 C625 1.349 . S
C641 H633 0.950 . S
C641 C639 1.327 . S
C642 C630 1.349 . S
C642 H636 0.950 . S
C642 C643 1.327 . S
C643 H637 0.950 . S
C643 C642 1.327 . S
C643 C647 1.429 . S
C644 C627 1.574 . S
C644 H638 0.949 . S
C644 C648 1.368 . S
C645 C626 1.429 . S
C645 C639 1.429 . S
C645 C646 1.523 . S
C646 C627 1.368 . S
C646 C640 1.368 . S
C646 C645 1.523 . S
C647 C631 1.429 . S
C647 C643 1.429 . S
C647 C648 1.523 . S
C648 C632 1.368 . S
C648 C644 1.368 . S
C648 C647 1.523 . S
H649 C624 0.950 . S
H650 C626 0.950 . S
H651 C627 0.949 . S
H652 C629 0.950 . S
H653 C631 0.950 . S
C654 C655 1.349 . S
C654 C656 1.327 . S
C654 H679 0.950 . S
C655 C654 1.349 . S
C655 C671 1.349 . S
C656 C654 1.327 . S
C656 C675 1.429 . S
C656 H680 0.950 . S
C657 C674 1.574 . S
C657 C676 1.368 1_554 S
C657 H681 0.949 . S
H658 C662 0.949 . S
C659 C660 1.349 . S
C659 C661 1.327 . S
C659 H682 0.950 . S
C660 C659 1.349 . S
C660 C672 1.349 . S
C661 C659 1.327 . S
C661 C677 1.429 . S
C661 H683 0.950 . S
C662 H658 0.949 . S
C662 C670 1.574 . S
C662 C678 1.368 1_556 S
H663 C671 0.950 1_554 S
H664 C669 0.950 . S
H665 C670 0.949 . S
H666 C672 0.950 1_556 S
H667 C673 0.950 . S
H668 C674 0.949 . S
C669 H664 0.950 . S
C669 C671 1.327 1_554 S
C669 C675 1.429 1_554 S
C670 C662 1.574 . S
C670 H665 0.949 . S
C670 C676 1.368 . S
C671 C655 1.349 . S
C671 H663 0.950 1_556 S
C671 C669 1.327 1_556 S
C672 C660 1.349 . S
C672 H666 0.950 1_554 S
C672 C673 1.327 1_554 S
C673 H667 0.950 . S
C673 C672 1.327 1_556 S
C673 C677 1.429 1_556 S
C674 C657 1.574 . S
C674 H668 0.949 . S
C674 C678 1.368 . S
C675 C656 1.429 . S
C675 C669 1.429 1_556 S
C675 C676 1.523 . S
C676 C657 1.368 1_556 S
C676 C670 1.368 . S
C676 C675 1.523 . S
C677 C661 1.429 . S
C677 C673 1.429 1_554 S
C677 C678 1.523 . S
C678 C662 1.368 1_554 S
C678 C674 1.368 . S
C678 C677 1.523 . S
H679 C654 0.950 . S
H680 C656 0.950 . S
H681 C657 0.949 . S
H682 C659 0.950 . S
H683 C661 0.950 . S
C684 C685 1.349 . S
C684 C686 1.327 . S
C684 H709 0.950 . S
C685 C684 1.349 . S
C685 C701 1.349 . S
C686 C684 1.327 . S
C686 C705 1.429 . S
C686 H710 0.950 . S
C687 C704 1.574 . S
C687 C706 1.368 . S
C687 H711 0.949 . S
H688 C692 0.949 . S
C689 C690 1.349 . S
C689 C691 1.327 . S
C689 H712 0.950 1_554 S
C690 C689 1.349 . S
C690 C702 1.349 . S
C691 C689 1.327 . S
C691 C707 1.429 . S
C691 H713 0.950 . S
C692 H688 0.949 . S
C692 C700 1.574 . S
C692 C708 1.368 . S
H693 C701 0.950 . S
H694 C699 0.950 . S
H695 C700 0.949 . S
H696 C702 0.950 . S
H697 C703 0.950 . S
H698 C704 0.949 . S
C699 H694 0.950 . S
C699 C701 1.327 . S
C699 C705 1.429 . S
C700 C692 1.574 . S
C700 H695 0.949 . S
C700 C706 1.368 . S
C701 C685 1.349 . S
C701 H693 0.950 . S
C701 C699 1.327 . S
C702 C690 1.349 . S
C702 H696 0.950 . S
C702 C703 1.327 . S
C703 H697 0.950 . S
C703 C702 1.327 . S
C703 C707 1.429 . S
C704 C687 1.574 . S
C704 H698 0.949 . S
C704 C708 1.368 . S
C705 C686 1.429 . S
C705 C699 1.429 . S
C705 C706 1.523 . S
C706 C687 1.368 . S
C706 C700 1.368 . S
C706 C705 1.523 . S
C707 C691 1.429 . S
C707 C703 1.429 . S
C707 C708 1.523 . S
C708 C692 1.368 . S
C708 C704 1.368 . S
C708 C707 1.523 . S
H709 C684 0.950 . S
H710 C686 0.950 . S
H711 C687 0.949 . S
H712 C689 0.950 1_556 S
H713 C691 0.950 . S
C714 C715 1.349 . S
C714 C716 1.327 . S
C714 H739 0.950 . S
C715 C714 1.349 . S
C715 C731 1.349 . S
C716 C714 1.327 . S
C716 C735 1.429 . S
C716 H740 0.950 . S
C717 C734 1.574 . S
C717 C736 1.368 . S
C717 H741 0.949 . S
H718 C722 0.949 . S
C719 C720 1.349 . S
C719 C721 1.327 . S
C719 H742 0.950 . S
C720 C719 1.349 . S
C720 C732 1.349 . S
C721 C719 1.327 . S
C721 C737 1.429 . S
C721 H743 0.950 . S
C722 H718 0.949 . S
C722 C730 1.574 . S
C722 C738 1.368 . S
H723 C731 0.950 . S
H724 C729 0.950 . S
H725 C730 0.949 . S
H726 C732 0.950 . S
H727 C733 0.950 . S
H728 C734 0.949 . S
C729 H724 0.950 . S
C729 C731 1.327 . S
C729 C735 1.429 . S
C730 C722 1.574 . S
C730 H725 0.949 . S
C730 C736 1.368 . S
C731 C715 1.349 . S
C731 H723 0.950 . S
C731 C729 1.327 . S
C732 C720 1.349 . S
C732 H726 0.950 . S
C732 C733 1.327 . S
C733 H727 0.950 . S
C733 C732 1.327 . S
C733 C737 1.429 . S
C734 C717 1.574 . S
C734 H728 0.949 . S
C734 C738 1.368 . S
C735 C716 1.429 . S
C735 C729 1.429 . S
C735 C736 1.523 . S
C736 C717 1.368 . S
C736 C730 1.368 . S
C736 C735 1.523 . S
C737 C721 1.429 . S
C737 C733 1.429 . S
C737 C738 1.523 . S
C738 C722 1.368 . S
C738 C734 1.368 . S
C738 C737 1.523 . S
H739 C714 0.950 . S
H740 C716 0.950 . S
H741 C717 0.949 . S
H742 C719 0.950 . S
H743 C721 0.950 . S
C744 C745 1.349 . S
C744 C746 1.327 . S
C744 H769 0.950 . S
C745 C744 1.349 . S
C745 C761 1.349 . S
C746 C744 1.327 . S
C746 C765 1.429 . S
C746 H770 0.950 . S
C747 C764 1.574 . S
C747 C766 1.368 . S
C747 H771 0.949 . S
H748 C752 0.949 . S
C749 C750 1.349 . S
C749 C751 1.327 . S
C749 H772 0.950 . S
C750 C749 1.349 . S
C750 C762 1.349 . S
C751 C749 1.327 . S
C751 C767 1.429 . S
C751 H773 0.950 . S
C752 H748 0.949 . S
C752 C760 1.574 . S
C752 C768 1.368 . S
H753 C761 0.950 . S
H754 C759 0.950 . S
H755 C760 0.949 . S
H756 C762 0.950 . S
H757 C763 0.950 . S
H758 C764 0.949 . S
C759 H754 0.950 . S
C759 C761 1.327 . S
C759 C765 1.429 . S
C760 C752 1.574 . S
C760 H755 0.949 . S
C760 C766 1.368 . S
C761 C745 1.349 . S
C761 H753 0.950 . S
C761 C759 1.327 . S
C762 C750 1.349 . S
C762 H756 0.950 . S
C762 C763 1.327 . S
C763 H757 0.950 . S
C763 C762 1.327 . S
C763 C767 1.429 . S
C764 C747 1.574 . S
C764 H758 0.949 . S
C764 C768 1.368 . S
C765 C746 1.429 . S
C765 C759 1.429 . S
C765 C766 1.523 . S
C766 C747 1.368 . S
C766 C760 1.368 . S
C766 C765 1.523 . S
C767 C751 1.429 . S
C767 C763 1.429 . S
C767 C768 1.523 . S
C768 C752 1.368 . S
C768 C764 1.368 . S
C768 C767 1.523 . S
H769 C744 0.950 . S
H770 C746 0.950 . S
H771 C747 0.949 . S
H772 C749 0.950 . S
H773 C751 0.950 . S
C774 C775 1.349 . S
C774 C776 1.327 . S
C774 H799 0.950 . S
C775 C774 1.349 . S
C775 C791 1.349 . S
C776 C774 1.327 . S
C776 C795 1.429 . S
C776 H800 0.950 . S
C777 C794 1.574 1_655 S
C777 C796 1.368 . S
C777 H801 0.949 . S
H778 C782 0.949 . S
C779 C780 1.349 . S
C779 C781 1.327 . S
C779 H802 0.950 . S
C780 C779 1.349 . S
C780 C792 1.349 . S
C781 C779 1.327 . S
C781 C797 1.429 . S
C781 H803 0.950 . S
C782 H778 0.949 . S
C782 C790 1.574 1_455 S
C782 C798 1.368 . S
H783 C791 0.950 . S
H784 C789 0.950 . S
H785 C790 0.949 . S
H786 C792 0.950 . S
H787 C793 0.950 . S
H788 C794 0.949 . S
C789 H784 0.950 . S
C789 C791 1.327 . S
C789 C795 1.429 . S
C790 C782 1.574 1_655 S
C790 H785 0.949 . S
C790 C796 1.368 . S
C791 C775 1.349 . S
C791 H783 0.950 . S
C791 C789 1.327 . S
C792 C780 1.349 . S
C792 H786 0.950 . S
C792 C793 1.327 . S
C793 H787 0.950 . S
C793 C792 1.327 . S
C793 C797 1.429 . S
C794 C777 1.574 1_455 S
C794 H788 0.949 . S
C794 C798 1.368 . S
C795 C776 1.429 . S
C795 C789 1.429 . S
C795 C796 1.523 . S
C796 C777 1.368 . S
C796 C790 1.368 . S
C796 C795 1.523 . S
C797 C781 1.429 . S
C797 C793 1.429 . S
C797 C798 1.523 . S
C798 C782 1.368 . S
C798 C794 1.368 . S
C798 C797 1.523 . S
H799 C774 0.950 . S
H800 C776 0.950 . S
H801 C777 0.949 . S
H802 C779 0.950 . S
H803 C781 0.950 . S
C804 C805 1.349 . S
C804 C806 1.327 . S
C804 H829 0.950 . S
C805 C804 1.349 . S
C805 C821 1.349 . S
C806 C804 1.327 . S
C806 C825 1.429 . S
C806 H830 0.950 . S
C807 C824 1.574 . S
C807 C826 1.368 . S
C807 H831 0.949 . S
H808 C812 0.949 . S
C809 C810 1.349 . S
C809 C811 1.327 . S
C809 H832 0.950 . S
C810 C809 1.349 . S
C810 C822 1.349 . S
C811 C809 1.327 . S
C811 C827 1.429 . S
C811 H833 0.950 . S
C812 H808 0.949 . S
C812 C820 1.574 . S
C812 C828 1.368 . S
H813 C821 0.950 . S
H814 C819 0.950 . S
H815 C820 0.949 . S
H816 C822 0.950 . S
H817 C823 0.950 . S
H818 C824 0.949 . S
C819 H814 0.950 . S
C819 C821 1.327 . S
C819 C825 1.429 . S
C820 C812 1.574 . S
C820 H815 0.949 . S
C820 C826 1.368 . S
C821 C805 1.349 . S
C821 H813 0.950 . S
C821 C819 1.327 . S
C822 C810 1.349 . S
C822 H816 0.950 . S
C822 C823 1.327 . S
C823 H817 0.950 . S
C823 C822 1.327 . S
C823 C827 1.429 . S
C824 C807 1.574 . S
C824 H818 0.949 . S
C824 C828 1.368 . S
C825 C806 1.429 . S
C825 C819 1.429 . S
C825 C826 1.523 . S
C826 C807 1.368 . S
C826 C820 1.368 . S
C826 C825 1.523 . S
C827 C811 1.429 . S
C827 C823 1.429 . S
C827 C828 1.523 . S
C828 C812 1.368 . S
C828 C824 1.368 . S
C828 C827 1.523 . S
H829 C804 0.950 . S
H830 C806 0.950 . S
H831 C807 0.949 . S
H832 C809 0.950 . S
H833 C811 0.950 . S
C834 C835 1.349 . S
C834 C836 1.327 . S
C834 H859 0.950 . S
C835 C834 1.349 . S
C835 C851 1.349 . S
C836 C834 1.327 . S
C836 C855 1.429 . S
C836 H860 0.950 . S
C837 C854 1.574 1_545 S
C837 C856 1.368 . S
C837 H861 0.949 . S
H838 C842 0.949 . S
C839 C840 1.349 . S
C839 C841 1.327 . S
C839 H862 0.950 . S
C840 C839 1.349 . S
C840 C852 1.349 . S
C841 C839 1.327 . S
C841 C857 1.429 . S
C841 H863 0.950 . S
C842 H838 0.949 . S
C842 C850 1.574 . S
C842 C858 1.368 . S
H843 C851 0.950 . S
H844 C849 0.950 . S
H845 C850 0.949 1_545 S
H846 C852 0.950 . S
H847 C853 0.950 . S
H848 C854 0.949 . S
C849 H844 0.950 . S
C849 C851 1.327 . S
C849 C855 1.429 . S
C850 C842 1.574 . S
C850 H845 0.949 1_565 S
C850 C856 1.368 1_565 S
C851 C835 1.349 . S
C851 H843 0.950 . S
C851 C849 1.327 . S
C852 C840 1.349 . S
C852 H846 0.950 . S
C852 C853 1.327 . S
C853 H847 0.950 . S
C853 C852 1.327 . S
C853 C857 1.429 . S
C854 C837 1.574 1_565 S
C854 H848 0.949 . S
C854 C858 1.368 . S
C855 C836 1.429 . S
C855 C849 1.429 . S
C855 C856 1.523 . S
C856 C837 1.368 . S
C856 C850 1.368 1_545 S
C856 C855 1.523 . S
C857 C841 1.429 . S
C857 C853 1.429 . S
C857 C858 1.523 . S
C858 C842 1.368 . S
C858 C854 1.368 . S
C858 C857 1.523 . S
H859 C834 0.950 . S
H860 C836 0.950 . S
H861 C837 0.949 . S
H862 C839 0.950 . S
H863 C841 0.950 . S
C864 C865 1.349 . S
C864 C866 1.327 . S
C864 H889 0.950 . S
C865 C864 1.349 . S
C865 C881 1.349 . S
C866 C864 1.327 . S
C866 C885 1.429 . S
C866 H890 0.950 . S
C867 C884 1.574 . S
C867 C886 1.368 . S
C867 H891 0.949 . S
H868 C872 0.949 . S
C869 C870 1.349 . S
C869 C871 1.327 . S
C869 H892 0.950 . S
C870 C869 1.349 . S
C870 C882 1.349 . S
C871 C869 1.327 . S
C871 C887 1.429 . S
C871 H893 0.950 . S
C872 H868 0.949 . S
C872 C880 1.574 . S
C872 C888 1.368 . S
H873 C881 0.950 . S
H874 C879 0.950 . S
H875 C880 0.949 . S
H876 C882 0.950 . S
H877 C883 0.950 . S
H878 C884 0.949 . S
C879 H874 0.950 . S
C879 C881 1.327 . S
C879 C885 1.429 . S
C880 C872 1.574 . S
C880 H875 0.949 . S
C880 C886 1.368 . S
C881 C865 1.349 . S
C881 H873 0.950 . S
C881 C879 1.327 . S
C882 C870 1.349 . S
C882 H876 0.950 . S
C882 C883 1.327 . S
C883 H877 0.950 . S
C883 C882 1.327 . S
C883 C887 1.429 . S
C884 C867 1.574 . S
C884 H878 0.949 . S
C884 C888 1.368 . S
C885 C866 1.429 . S
C885 C879 1.429 . S
C885 C886 1.523 . S
C886 C867 1.368 . S
C886 C880 1.368 . S
C886 C885 1.523 . S
C887 C871 1.429 . S
C887 C883 1.429 . S
C887 C888 1.523 . S
C888 C872 1.368 . S
C888 C884 1.368 . S
C888 C887 1.523 . S
H889 C864 0.950 . S
H890 C866 0.950 . S
H891 C867 0.949 . S
H892 C869 0.950 . S
H893 C871 0.950 . S
C894 C895 1.349 . S
C894 C896 1.327 . S
C894 H919 0.950 . S
C895 C894 1.349 . S
C895 C911 1.349 . S
C896 C894 1.327 . S
C896 C915 1.429 . S
C896 H920 0.950 . S
C897 C914 1.574 . S
C897 C916 1.368 . S
C897 H921 0.949 . S
H898 C902 0.949 . S
C899 C900 1.349 . S
C899 C901 1.327 . S
C899 H922 0.950 . S
C900 C899 1.349 . S
C900 C912 1.349 . S
C901 C899 1.327 . S
C901 C917 1.429 . S
C901 H923 0.950 . S
C902 H898 0.949 . S
C902 C910 1.574 . S
C902 C918 1.368 . S
H903 C911 0.950 . S
H904 C909 0.950 . S
H905 C910 0.949 . S
H906 C912 0.950 . S
H907 C913 0.950 . S
H908 C914 0.949 . S
C909 H904 0.950 . S
C909 C911 1.327 . S
C909 C915 1.429 . S
C910 C902 1.574 . S
C910 H905 0.949 . S
C910 C916 1.368 . S
C911 C895 1.349 . S
C911 H903 0.950 . S
C911 C909 1.327 . S
C912 C900 1.349 . S
C912 H906 0.950 . S
C912 C913 1.327 . S
C913 H907 0.950 . S
C913 C912 1.327 . S
C913 C917 1.429 . S
C914 C897 1.574 . S
C914 H908 0.949 . S
C914 C918 1.368 . S
C915 C896 1.429 . S
C915 C909 1.429 . S
C915 C916 1.523 . S
C916 C897 1.368 . S
C916 C910 1.368 . S
C916 C915 1.523 . S
C917 C901 1.429 . S
C917 C913 1.429 . S
C917 C918 1.523 . S
C918 C902 1.368 . S
C918 C914 1.368 . S
C918 C917 1.523 . S
H919 C894 0.950 . S
H920 C896 0.950 . S
H921 C897 0.949 . S
H922 C899 0.950 . S
H923 C901 0.950 . S
C924 C925 1.349 . S
C924 C926 1.327 . S
C924 H949 0.950 . S
C925 C924 1.349 . S
C925 C941 1.349 . S
C926 C924 1.327 . S
C926 C945 1.429 . S
C926 H950 0.950 . S
C927 C944 1.574 . S
C927 C946 1.368 . S
C927 H951 0.949 . S
H928 C932 0.949 . S
C929 C930 1.349 . S
C929 C931 1.327 . S
C929 H952 0.950 . S
C930 C929 1.349 . S
C930 C942 1.349 . S
C931 C929 1.327 . S
C931 C947 1.429 . S
C931 H953 0.950 . S
C932 H928 0.949 . S
C932 C940 1.574 . S
C932 C948 1.368 . S
H933 C941 0.950 . S
H934 C939 0.950 . S
H935 C940 0.949 . S
H936 C942 0.950 . S
H937 C943 0.950 . S
H938 C944 0.949 . S
C939 H934 0.950 . S
C939 C941 1.327 . S
C939 C945 1.429 . S
C940 C932 1.574 . S
C940 H935 0.949 . S
C940 C946 1.368 . S
C941 C925 1.349 . S
C941 H933 0.950 . S
C941 C939 1.327 . S
C942 C930 1.349 . S
C942 H936 0.950 . S
C942 C943 1.327 . S
C943 H937 0.950 . S
C943 C942 1.327 . S
C943 C947 1.429 . S
C944 C927 1.574 . S
C944 H938 0.949 . S
C944 C948 1.368 . S
C945 C926 1.429 . S
C945 C939 1.429 . S
C945 C946 1.523 . S
C946 C927 1.368 . S
C946 C940 1.368 . S
C946 C945 1.523 . S
C947 C931 1.429 . S
C947 C943 1.429 . S
C947 C948 1.523 . S
C948 C932 1.368 . S
C948 C944 1.368 . S
C948 C947 1.523 . S
H949 C924 0.950 . S
H950 C926 0.950 . S
H951 C927 0.949 . S
H952 C929 0.950 . S
H953 C931 0.950 . S
C954 C955 1.349 . S
C954 C956 1.327 . S
C954 H979 0.950 . S
C955 C954 1.349 . S
C955 C971 1.349 . S
C956 C954 1.327 . S
C956 C975 1.429 . S
C956 H980 0.950 . S
C957 C974 1.574 . S
C957 C976 1.368 . S
C957 H981 0.949 . S
H958 C962 0.949 . S
C959 C960 1.349 . S
C959 C961 1.327 . S
C959 H982 0.950 . S
C960 C959 1.349 . S
C960 C972 1.349 . S
C961 C959 1.327 . S
C961 C977 1.429 . S
C961 H983 0.950 . S
C962 H958 0.949 . S
C962 C970 1.574 . S
C962 C978 1.368 . S
H963 C971 0.950 . S
H964 C969 0.950 . S
H965 C970 0.949 . S
H966 C972 0.950 . S
H967 C973 0.950 . S
H968 C974 0.949 . S
C969 H964 0.950 . S
C969 C971 1.327 . S
C969 C975 1.429 . S
C970 C962 1.574 . S
C970 H965 0.949 . S
C970 C976 1.368 . S
C971 C955 1.349 . S
C971 H963 0.950 . S
C971 C969 1.327 . S
C972 C960 1.349 . S
C972 H966 0.950 . S
C972 C973 1.327 . S
C973 H967 0.950 . S
C973 C972 1.327 . S
C973 C977 1.429 . S
C974 C957 1.574 . S
C974 H968 0.949 . S
C974 C978 1.368 . S
C975 C956 1.429 . S
C975 C969 1.429 . S
C975 C976 1.523 . S
C976 C957 1.368 . S
C976 C970 1.368 . S
C976 C975 1.523 . S
C977 C961 1.429 . S
C977 C973 1.429 . S
C977 C978 1.523 . S
C978 C962 1.368 . S
C978 C974 1.368 . S
C978 C977 1.523 . S
H979 C954 0.950 . S
H980 C956 0.950 . S
H981 C957 0.949 . S
H982 C959 0.950 . S
H983 C961 0.950 . S
C984 C985 1.349 . S
C984 C986 1.327 . S
C984 H1009 0.950 . S
C985 C984 1.349 . S
C985 C1001 1.349 . S
C986 C984 1.327 . S
C986 C1005 1.429 . S
C986 H1010 0.950 . S
C987 C1004 1.574 . S
C987 C1006 1.368 . S
C987 H1011 0.949 . S
H988 C992 0.949 . S
C989 C990 1.349 . S
C989 C991 1.327 . S
C989 H1012 0.950 . S
C990 C989 1.349 . S
C990 C1002 1.349 . S
C991 C989 1.327 . S
C991 C1007 1.429 . S
C991 H1013 0.950 . S
C992 H988 0.949 . S
C992 C1000 1.574 . S
C992 C1008 1.368 . S
H993 C1001 0.950 . S
H994 C999 0.950 . S
H995 C1000 0.949 . S
H996 C1002 0.950 . S
H997 C1003 0.950 . S
H998 C1004 0.949 . S
C999 H994 0.950 . S
C999 C1001 1.327 . S
C999 C1005 1.429 . S
C1000 C992 1.574 . S
C1000 H995 0.949 . S
C1000 C1006 1.368 . S
C1001 C985 1.349 . S
C1001 H993 0.950 . S
C1001 C999 1.327 . S
C1002 C990 1.349 . S
C1002 H996 0.950 . S
C1002 C1003 1.327 . S
C1003 H997 0.950 . S
C1003 C1002 1.327 . S
C1003 C1007 1.429 . S
C1004 C987 1.574 . S
C1004 H998 0.949 . S
C1004 C1008 1.368 . S
C1005 C986 1.429 . S
C1005 C999 1.429 . S
C1005 C1006 1.523 . S
C1006 C987 1.368 . S
C1006 C1000 1.368 . S
C1006 C1005 1.523 . S
C1007 C991 1.429 . S
C1007 C1003 1.429 . S
C1007 C1008 1.523 . S
C1008 C992 1.368 . S
C1008 C1004 1.368 . S
C1008 C1007 1.523 . S
H1009 C984 0.950 . S
H1010 C986 0.950 . S
H1011 C987 0.949 . S
H1012 C989 0.950 . S
H1013 C991 0.950 . S
C1014 C1015 1.349 . S
C1014 C1016 1.327 . S
C1014 H1039 0.950 . S
C1015 C1014 1.349 . S
C1015 C1031 1.349 . S
C1016 C1014 1.327 . S
C1016 C1035 1.429 . S
C1016 H1040 0.950 . S
C1017 C1034 1.574 . S
C1017 C1036 1.368 . S
C1017 H1041 0.949 . S
H1018 C1022 0.949 . S
C1019 C1020 1.349 . S
C1019 C1021 1.327 . S
C1019 H1042 0.950 . S
C1020 C1019 1.349 . S
C1020 C1032 1.349 . S
C1021 C1019 1.327 . S
C1021 C1037 1.429 . S
C1021 H1043 0.950 . S
C1022 H1018 0.949 . S
C1022 C1030 1.574 . S
C1022 C1038 1.368 . S
H1023 C1031 0.950 . S
H1024 C1029 0.950 . S
H1025 C1030 0.949 . S
H1026 C1032 0.950 . S
H1027 C1033 0.950 . S
H1028 C1034 0.949 . S
C1029 H1024 0.950 . S
C1029 C1031 1.327 . S
C1029 C1035 1.429 . S
C1030 C1022 1.574 . S
C1030 H1025 0.949 . S
C1030 C1036 1.368 . S
C1031 C1015 1.349 . S
C1031 H1023 0.950 . S
C1031 C1029 1.327 . S
C1032 C1020 1.349 . S
C1032 H1026 0.950 . S
C1032 C1033 1.327 . S
C1033 H1027 0.950 . S
C1033 C1032 1.327 . S
C1033 C1037 1.429 . S
C1034 C1017 1.574 . S
C1034 H1028 0.949 . S
C1034 C1038 1.368 . S
C1035 C1016 1.429 . S
C1035 C1029 1.429 . S
C1035 C1036 1.523 . S
C1036 C1017 1.368 . S
C1036 C1030 1.368 . S
C1036 C1035 1.523 . S
C1037 C1021 1.429 . S
C1037 C1033 1.429 . S
C1037 C1038 1.523 . S
C1038 C1022 1.368 . S
C1038 C1034 1.368 . S
C1038 C1037 1.523 . S
H1039 C1014 0.950 . S
H1040 C1016 0.950 . S
H1041 C1017 0.949 . S
H1042 C1019 0.950 . S
H1043 C1021 0.950 . S
C1044 C1045 1.349 . S
C1044 C1046 1.327 . S
C1044 H1069 0.950 . S
C1045 C1044 1.349 . S
C1045 C1061 1.349 . S
C1046 C1044 1.327 . S
C1046 C1065 1.429 . S
C1046 H1070 0.950 . S
C1047 C1064 1.574 1_545 S
C1047 C1066 1.368 . S
C1047 H1071 0.949 . S
H1048 C1052 0.949 . S
C1049 C1050 1.349 . S
C1049 C1051 1.327 . S
C1049 H1072 0.950 . S
C1050 C1049 1.349 . S
C1050 C1062 1.349 . S
C1051 C1049 1.327 . S
C1051 C1067 1.429 . S
C1051 H1073 0.950 . S
C1052 H1048 0.949 . S
C1052 C1060 1.574 1_565 S
C1052 C1068 1.368 . S
H1053 C1061 0.950 . S
H1054 C1059 0.950 . S
H1055 C1060 0.949 . S
H1056 C1062 0.950 . S
H1057 C1063 0.950 . S
H1058 C1064 0.949 . S
C1059 H1054 0.950 . S
C1059 C1061 1.327 . S
C1059 C1065 1.429 . S
C1060 C1052 1.574 1_545 S
C1060 H1055 0.949 . S
C1060 C1066 1.368 . S
C1061 C1045 1.349 . S
C1061 H1053 0.950 . S
C1061 C1059 1.327 . S
C1062 C1050 1.349 . S
C1062 H1056 0.950 . S
C1062 C1063 1.327 . S
C1063 H1057 0.950 . S
C1063 C1062 1.327 . S
C1063 C1067 1.429 . S
C1064 C1047 1.574 1_565 S
C1064 H1058 0.949 . S
C1064 C1068 1.368 . S
C1065 C1046 1.429 . S
C1065 C1059 1.429 . S
C1065 C1066 1.523 . S
C1066 C1047 1.368 . S
C1066 C1060 1.368 . S
C1066 C1065 1.523 . S
C1067 C1051 1.429 . S
C1067 C1063 1.429 . S
C1067 C1068 1.523 . S
C1068 C1052 1.368 . S
C1068 C1064 1.368 . S
C1068 C1067 1.523 . S
H1069 C1044 0.950 . S
H1070 C1046 0.950 . S
H1071 C1047 0.949 . S
H1072 C1049 0.950 . S
H1073 C1051 0.950 . S
C1074 C1075 1.349 . S
C1074 C1076 1.327 . S
C1074 H1099 0.950 . S
C1075 C1074 1.349 . S
C1075 C1091 1.349 . S
C1076 C1074 1.327 . S
C1076 C1095 1.429 . S
C1076 H1100 0.950 . S
C1077 C1094 1.536 1_655 S
C1077 C1096 1.394 . S
C1077 H1101 0.961 . S
H1078 C1082 0.949 . S
C1079 C1080 1.349 . S
C1079 C1081 1.327 . S
C1079 H1102 0.950 . S
C1080 C1079 1.349 . S
C1080 C1092 1.349 . S
C1081 C1079 1.327 . S
C1081 C1097 1.429 . S
C1081 H1103 0.950 . S
C1082 H1078 0.949 . S
C1082 C1090 1.574 . S
C1082 C1098 1.368 . S
H1083 C1091 0.950 . S
H1084 C1089 0.950 . S
H1085 C1090 0.949 1_655 S
H1086 C1092 0.950 . S
H1087 C1093 0.950 . S
H1088 C1094 0.949 . S
C1089 H1084 0.950 . S
C1089 C1091 1.327 . S
C1089 C1095 1.429 . S
C1090 C1082 1.574 . S
C1090 H1085 0.949 1_455 S
C1090 C1096 1.368 1_455 S
C1091 C1075 1.349 . S
C1091 H1083 0.950 . S
C1091 C1089 1.327 . S
C1092 C1080 1.349 . S
C1092 H1086 0.950 . S
C1092 C1093 1.327 . S
C1093 H1087 0.950 . S
C1093 C1092 1.327 . S
C1093 C1097 1.429 . S
C1094 C1077 1.536 1_455 S
C1094 H1088 0.949 . S
C1094 C1098 1.368 . S
C1095 C1076 1.429 . S
C1095 C1089 1.429 . S
C1095 C1096 1.523 . S
C1096 C1077 1.394 . S
C1096 C1090 1.368 1_655 S
C1096 C1095 1.523 . S
C1097 C1081 1.429 . S
C1097 C1093 1.429 . S
C1097 C1098 1.523 . S
C1098 C1082 1.368 . S
C1098 C1094 1.368 . S
C1098 C1097 1.523 . S
H1099 C1074 0.950 . S
H1100 C1076 0.950 . S
H1101 C1077 0.961 . S
H1102 C1079 0.950 . S
H1103 C1081 0.950 . S
C1104 C1105 1.349 . S
C1104 C1106 1.327 . S
C1104 H1129 0.950 . S
C1105 C1104 1.349 . S
C1105 C1121 1.349 . S
C1106 C1104 1.327 . S
C1106 C1125 1.429 . S
C1106 H1130 0.950 . S
C1107 C1124 1.574 . S
C1107 C1126 1.368 . S
C1107 H1131 0.949 . S
H1108 C1112 0.949 . S
C1109 C1110 1.349 . S
C1109 C1111 1.327 . S
C1109 H1132 0.950 . S
C1110 C1109 1.349 . S
C1110 C1122 1.349 . S
C1111 C1109 1.327 . S
C1111 C1127 1.429 . S
C1111 H1133 0.950 . S
C1112 H1108 0.949 . S
C1112 C1120 1.574 . S
C1112 C1128 1.368 . S
H1113 C1121 0.950 . S
H1114 C1119 0.950 . S
H1115 C1120 0.949 . S
H1116 C1122 0.950 . S
H1117 C1123 0.950 . S
H1118 C1124 0.949 . S
C1119 H1114 0.950 . S
C1119 C1121 1.327 . S
C1119 C1125 1.429 . S
C1120 C1112 1.574 . S
C1120 H1115 0.949 . S
C1120 C1126 1.368 . S
C1121 C1105 1.349 . S
C1121 H1113 0.950 . S
C1121 C1119 1.327 . S
C1122 C1110 1.349 . S
C1122 H1116 0.950 . S
C1122 C1123 1.327 . S
C1123 H1117 0.950 . S
C1123 C1122 1.327 . S
C1123 C1127 1.429 . S
C1124 C1107 1.574 . S
C1124 H1118 0.949 . S
C1124 C1128 1.368 . S
C1125 C1106 1.429 . S
C1125 C1119 1.429 . S
C1125 C1126 1.523 . S
C1126 C1107 1.368 . S
C1126 C1120 1.368 . S
C1126 C1125 1.523 . S
C1127 C1111 1.429 . S
C1127 C1123 1.429 . S
C1127 C1128 1.523 . S
C1128 C1112 1.368 . S
C1128 C1124 1.368 . S
C1128 C1127 1.523 . S
H1129 C1104 0.950 . S
H1130 C1106 0.950 . S
H1131 C1107 0.949 . S
H1132 C1109 0.950 . S
H1133 C1111 0.950 . S
C1134 C1135 1.349 . S
C1134 C1136 1.327 . S
C1134 H1159 0.950 . S
C1135 C1134 1.349 . S
C1135 C1151 1.349 . S
C1136 C1134 1.327 . S
C1136 C1155 1.429 . S
C1136 H1160 0.950 . S
C1137 C1154 1.574 . S
C1137 C1156 1.368 . S
C1137 H1161 0.949 . S
H1138 C1142 0.949 . S
C1139 C1140 1.349 . S
C1139 C1141 1.327 . S
C1139 H1162 0.950 . S
C1140 C1139 1.349 . S
C1140 C1152 1.349 . S
C1141 C1139 1.327 . S
C1141 C1157 1.429 . S
C1141 H1163 0.950 . S
C1142 H1138 0.949 . S
C1142 C1150 1.574 . S
C1142 C1158 1.368 . S
H1143 C1151 0.950 . S
H1144 C1149 0.950 . S
H1145 C1150 0.949 . S
H1146 C1152 0.950 . S
H1147 C1153 0.950 . S
H1148 C1154 0.949 . S
C1149 H1144 0.950 . S
C1149 C1151 1.327 . S
C1149 C1155 1.429 . S
C1150 C1142 1.574 . S
C1150 H1145 0.949 . S
C1150 C1156 1.368 . S
C1151 C1135 1.349 . S
C1151 H1143 0.950 . S
C1151 C1149 1.327 . S
C1152 C1140 1.349 . S
C1152 H1146 0.950 . S
C1152 C1153 1.327 . S
C1153 H1147 0.950 . S
C1153 C1152 1.327 . S
C1153 C1157 1.429 . S
C1154 C1137 1.574 . S
C1154 H1148 0.949 . S
C1154 C1158 1.368 . S
C1155 C1136 1.429 . S
C1155 C1149 1.429 . S
C1155 C1156 1.523 . S
C1156 C1137 1.368 . S
C1156 C1150 1.368 . S
C1156 C1155 1.523 . S
C1157 C1141 1.429 . S
C1157 C1153 1.429 . S
C1157 C1158 1.523 . S
C1158 C1142 1.368 . S
C1158 C1154 1.368 . S
C1158 C1157 1.523 . S
H1159 C1134 0.950 . S
H1160 C1136 0.950 . S
H1161 C1137 0.949 . S
H1162 C1139 0.950 . S
H1163 C1141 0.950 . S
C1164 C1165 1.349 . S
C1164 C1166 1.327 . S
C1164 H1189 0.950 . S
C1165 C1164 1.349 . S
C1165 C1181 1.349 . S
C1166 C1164 1.327 . S
C1166 C1185 1.429 . S
C1166 H1190 0.950 . S
C1167 C1184 1.574 . S
C1167 C1186 1.368 . S
C1167 H1191 0.949 . S
H1168 C1172 0.949 . S
C1169 C1170 1.349 . S
C1169 C1171 1.327 . S
C1169 H1192 0.950 . S
C1170 C1169 1.349 . S
C1170 C1182 1.349 . S
C1171 C1169 1.327 . S
C1171 C1187 1.429 . S
C1171 H1193 0.950 . S
C1172 H1168 0.949 . S
C1172 C1180 1.574 . S
C1172 C1188 1.368 . S
H1173 C1181 0.950 . S
H1174 C1179 0.950 . S
H1175 C1180 0.949 . S
H1176 C1182 0.950 . S
H1177 C1183 0.950 . S
H1178 C1184 0.949 . S
C1179 H1174 0.950 . S
C1179 C1181 1.327 . S
C1179 C1185 1.429 . S
C1180 C1172 1.574 . S
C1180 H1175 0.949 . S
C1180 C1186 1.368 . S
C1181 C1165 1.349 . S
C1181 H1173 0.950 . S
C1181 C1179 1.327 . S
C1182 C1170 1.349 . S
C1182 H1176 0.950 . S
C1182 C1183 1.327 . S
C1183 H1177 0.950 . S
C1183 C1182 1.327 . S
C1183 C1187 1.429 . S
C1184 C1167 1.574 . S
C1184 H1178 0.949 . S
C1184 C1188 1.368 . S
C1185 C1166 1.429 . S
C1185 C1179 1.429 . S
C1185 C1186 1.523 . S
C1186 C1167 1.368 . S
C1186 C1180 1.368 . S
C1186 C1185 1.523 . S
C1187 C1171 1.429 . S
C1187 C1183 1.429 . S
C1187 C1188 1.523 . S
C1188 C1172 1.368 . S
C1188 C1184 1.368 . S
C1188 C1187 1.523 . S
H1189 C1164 0.950 . S
H1190 C1166 0.950 . S
H1191 C1167 0.949 . S
H1192 C1169 0.950 . S
H1193 C1171 0.950 . S
C1194 C1195 1.349 . S
C1194 C1196 1.327 . S
C1194 H1219 0.950 . S
C1195 C1194 1.349 . S
C1195 C1211 1.349 . S
C1196 C1194 1.327 . S
C1196 C1215 1.429 . S
C1196 H1220 0.950 . S
C1197 C1214 1.574 . S
C1197 C1216 1.368 . S
C1197 H1221 0.949 . S
H1198 C1202 0.949 . S
C1199 C1200 1.349 . S
C1199 C1201 1.327 . S
C1199 H1222 0.950 . S
C1200 C1199 1.349 . S
C1200 C1212 1.349 . S
C1201 C1199 1.327 . S
C1201 C1217 1.429 . S
C1201 H1223 0.950 . S
C1202 H1198 0.949 . S
C1202 C1210 1.574 . S
C1202 C1218 1.368 . S
H1203 C1211 0.950 . S
H1204 C1209 0.950 . S
H1205 C1210 0.949 . S
H1206 C1212 0.950 . S
H1207 C1213 0.950 . S
H1208 C1214 0.949 . S
C1209 H1204 0.950 . S
C1209 C1211 1.327 . S
C1209 C1215 1.429 . S
C1210 C1202 1.574 . S
C1210 H1205 0.949 . S
C1210 C1216 1.368 . S
C1211 C1195 1.349 . S
C1211 H1203 0.950 . S
C1211 C1209 1.327 . S
C1212 C1200 1.349 . S
C1212 H1206 0.950 . S
C1212 C1213 1.327 . S
C1213 H1207 0.950 . S
C1213 C1212 1.327 . S
C1213 C1217 1.429 . S
C1214 C1197 1.574 . S
C1214 H1208 0.949 . S
C1214 C1218 1.368 . S
C1215 C1196 1.429 . S
C1215 C1209 1.429 . S
C1215 C1216 1.523 . S
C1216 C1197 1.368 . S
C1216 C1210 1.368 . S
C1216 C1215 1.523 . S
C1217 C1201 1.429 . S
C1217 C1213 1.429 . S
C1217 C1218 1.523 . S
C1218 C1202 1.368 . S
C1218 C1214 1.368 . S
C1218 C1217 1.523 . S
H1219 C1194 0.950 . S
H1220 C1196 0.950 . S
H1221 C1197 0.949 . S
H1222 C1199 0.950 . S
H1223 C1201 0.950 . S
C1224 C1225 1.349 . S
C1224 C1226 1.327 . S
C1224 H1249 0.950 . S
C1225 C1224 1.349 . S
C1225 C1241 1.349 . S
C1226 C1224 1.327 . S
C1226 C1245 1.429 . S
C1226 H1250 0.950 . S
C1227 C1244 1.574 . S
C1227 C1246 1.368 . S
C1227 H1251 0.949 1_545 S
H1228 C1232 0.949 . S
C1229 C1230 1.349 . S
C1229 C1231 1.327 . S
C1229 H1252 0.950 . S
C1230 C1229 1.349 . S
C1230 C1242 1.349 . S
C1231 C1229 1.327 . S
C1231 C1247 1.429 . S
C1231 H1253 0.950 . S
C1232 H1228 0.949 . S
C1232 C1240 1.574 . S
C1232 C1248 1.368 . S
H1233 C1241 0.950 . S
H1234 C1239 0.950 . S
H1235 C1240 0.949 . S
H1236 C1242 0.950 . S
H1237 C1243 0.950 . S
H1238 C1244 0.949 . S
C1239 H1234 0.950 . S
C1239 C1241 1.327 . S
C1239 C1245 1.429 . S
C1240 C1232 1.574 . S
C1240 H1235 0.949 . S
C1240 C1246 1.368 . S
C1241 C1225 1.349 . S
C1241 H1233 0.950 . S
C1241 C1239 1.327 . S
C1242 C1230 1.349 . S
C1242 H1236 0.950 . S
C1242 C1243 1.327 . S
C1243 H1237 0.950 . S
C1243 C1242 1.327 . S
C1243 C1247 1.429 . S
C1244 C1227 1.574 . S
C1244 H1238 0.949 . S
C1244 C1248 1.368 . S
C1245 C1226 1.429 . S
C1245 C1239 1.429 . S
C1245 C1246 1.523 1_565 S
C1246 C1227 1.368 . S
C1246 C1240 1.368 . S
C1246 C1245 1.523 1_545 S
C1247 C1231 1.429 . S
C1247 C1243 1.429 . S
C1247 C1248 1.523 . S
C1248 C1232 1.368 . S
C1248 C1244 1.368 . S
C1248 C1247 1.523 . S
H1249 C1224 0.950 . S
H1250 C1226 0.950 . S
H1251 C1227 0.949 1_565 S
H1252 C1229 0.950 . S
H1253 C1231 0.950 . S
C1254 C1255 1.349 . S
C1254 C1256 1.327 . S
C1254 H1279 0.950 . S
C1255 C1254 1.349 . S
C1255 C1271 1.349 . S
C1256 C1254 1.327 . S
C1256 C1275 1.429 . S
C1256 H1280 0.950 . S
C1257 C1274 1.574 . S
C1257 C1276 1.368 1_655 S
C1257 H1281 0.949 1_655 S
H1258 C1262 0.949 . S
C1259 C1260 1.349 . S
C1259 C1261 1.327 . S
C1259 H1282 0.950 . S
C1260 C1259 1.349 . S
C1260 C1272 1.349 . S
C1261 C1259 1.327 . S
C1261 C1277 1.429 . S
C1261 H1283 0.950 . S
C1262 H1258 0.949 . S
C1262 C1270 1.574 . S
C1262 C1278 1.368 . S
H1263 C1271 0.950 . S
H1264 C1269 0.950 . S
H1265 C1270 0.949 . S
H1266 C1272 0.950 . S
H1267 C1273 0.950 . S
H1268 C1274 0.949 . S
C1269 H1264 0.950 . S
C1269 C1271 1.327 . S
C1269 C1275 1.429 . S
C1270 C1262 1.574 . S
C1270 H1265 0.949 . S
C1270 C1276 1.368 1_655 S
C1271 C1255 1.349 . S
C1271 H1263 0.950 . S
C1271 C1269 1.327 . S
C1272 C1260 1.349 . S
C1272 H1266 0.950 . S
C1272 C1273 1.327 . S
C1273 H1267 0.950 . S
C1273 C1272 1.327 . S
C1273 C1277 1.429 . S
C1274 C1257 1.574 . S
C1274 H1268 0.949 . S
C1274 C1278 1.368 . S
C1275 C1256 1.429 . S
C1275 C1269 1.429 . S
C1275 C1276 1.523 . S
C1276 C1257 1.368 1_455 S
C1276 C1270 1.368 1_455 S
C1276 C1275 1.523 . S
C1277 C1261 1.429 . S
C1277 C1273 1.429 . S
C1277 C1278 1.523 . S
C1278 C1262 1.368 . S
C1278 C1274 1.368 . S
C1278 C1277 1.523 . S
H1279 C1254 0.950 . S
H1280 C1256 0.950 . S
H1281 C1257 0.949 1_455 S
H1282 C1259 0.950 . S
H1283 C1261 0.950 . S
C1284 C1285 1.349 . S
C1284 C1286 1.327 . S
C1284 H1309 0.950 . S
C1285 C1284 1.349 . S
C1285 C1301 1.349 . S
C1286 C1284 1.327 . S
C1286 C1305 1.429 . S
C1286 H1310 0.950 . S
C1287 C1304 1.574 . S
C1287 C1306 1.368 . S
C1287 H1311 0.949 . S
H1288 C1292 0.949 . S
C1289 C1290 1.349 . S
C1289 C1291 1.327 . S
C1289 H1312 0.950 . S
C1290 C1289 1.349 . S
C1290 C1302 1.349 . S
C1291 C1289 1.327 . S
C1291 C1307 1.429 . S
C1291 H1313 0.950 . S
C1292 H1288 0.949 . S
C1292 C1300 1.574 . S
C1292 C1308 1.368 . S
H1293 C1301 0.950 . S
H1294 C1299 0.950 . S
H1295 C1300 0.949 . S
H1296 C1302 0.950 . S
H1297 C1303 0.950 . S
H1298 C1304 0.949 . S
C1299 H1294 0.950 . S
C1299 C1301 1.327 . S
C1299 C1305 1.429 . S
C1300 C1292 1.574 . S
C1300 H1295 0.949 . S
C1300 C1306 1.368 . S
C1301 C1285 1.349 . S
C1301 H1293 0.950 . S
C1301 C1299 1.327 . S
C1302 C1290 1.349 . S
C1302 H1296 0.950 . S
C1302 C1303 1.327 . S
C1303 H1297 0.950 . S
C1303 C1302 1.327 . S
C1303 C1307 1.429 . S
C1304 C1287 1.574 . S
C1304 H1298 0.949 . S
C1304 C1308 1.368 . S
C1305 C1286 1.429 . S
C1305 C1299 1.429 . S
C1305 C1306 1.523 . S
C1306 C1287 1.368 . S
C1306 C1300 1.368 . S
C1306 C1305 1.523 . S
C1307 C1291 1.429 . S
C1307 C1303 1.429 . S
C1307 C1308 1.523 . S
C1308 C1292 1.368 . S
C1308 C1304 1.368 . S
C1308 C1307 1.523 . S
H1309 C1284 0.950 . S
H1310 C1286 0.950 . S
H1311 C1287 0.949 . S
H1312 C1289 0.950 . S
H1313 C1291 0.950 . S
C1314 C1315 1.349 . S
C1314 C1316 1.327 . S
C1314 H1339 0.950 . S
C1315 C1314 1.349 . S
C1315 C1331 1.349 . S
C1316 C1314 1.327 . S
C1316 C1335 1.429 . S
C1316 H1340 0.950 . S
C1317 C1334 1.574 . S
C1317 C1336 1.368 . S
C1317 H1341 0.949 . S
H1318 C1322 0.949 . S
C1319 C1320 1.349 . S
C1319 C1321 1.327 . S
C1319 H1342 0.950 . S
C1320 C1319 1.349 . S
C1320 C1332 1.349 . S
C1321 C1319 1.327 . S
C1321 C1337 1.429 . S
C1321 H1343 0.950 . S
C1322 H1318 0.949 . S
C1322 C1330 1.574 . S
C1322 C1338 1.368 . S
H1323 C1331 0.950 . S
H1324 C1329 0.950 . S
H1325 C1330 0.949 . S
H1326 C1332 0.950 . S
H1327 C1333 0.950 . S
H1328 C1334 0.949 . S
C1329 H1324 0.950 . S
C1329 C1331 1.327 . S
C1329 C1335 1.429 . S
C1330 C1322 1.574 . S
C1330 H1325 0.949 . S
C1330 C1336 1.368 . S
C1331 C1315 1.349 . S
C1331 H1323 0.950 . S
C1331 C1329 1.327 . S
C1332 C1320 1.349 . S
C1332 H1326 0.950 . S
C1332 C1333 1.327 . S
C1333 H1327 0.950 . S
C1333 C1332 1.327 . S
C1333 C1337 1.429 . S
C1334 C1317 1.574 . S
C1334 H1328 0.949 . S
C1334 C1338 1.368 . S
C1335 C1316 1.429 . S
C1335 C1329 1.429 . S
C1335 C1336 1.523 . S
C1336 C1317 1.368 . S
C1336 C1330 1.368 . S
C1336 C1335 1.523 . S
C1337 C1321 1.429 . S
C1337 C1333 1.429 . S
C1337 C1338 1.523 1_655 S
C1338 C1322 1.368 . S
C1338 C1334 1.368 . S
C1338 C1337 1.523 1_455 S
H1339 C1314 0.950 . S
H1340 C1316 0.950 . S
H1341 C1317 0.949 . S
H1342 C1319 0.950 . S
H1343 C1321 0.950 . S
C1344 C1345 1.349 . S
C1344 C1346 1.327 . S
C1344 H1369 0.950 . S
C1345 C1344 1.349 . S
C1345 C1361 1.349 . S
C1346 C1344 1.327 . S
C1346 C1365 1.429 . S
C1346 H1370 0.950 . S
C1347 C1364 1.574 . S
C1347 C1366 1.368 . S
C1347 H1371 0.949 . S
H1348 C1352 0.949 . S
C1349 C1350 1.349 . S
C1349 C1351 1.327 . S
C1349 H1372 0.950 . S
C1350 C1349 1.349 . S
C1350 C1362 1.349 . S
C1351 C1349 1.327 . S
C1351 C1367 1.429 . S
C1351 H1373 0.950 . S
C1352 H1348 0.949 . S
C1352 C1360 1.574 . S
C1352 C1368 1.368 . S
H1353 C1361 0.950 . S
H1354 C1359 0.950 . S
H1355 C1360 0.949 . S
H1356 C1362 0.950 . S
H1357 C1363 0.950 . S
H1358 C1364 0.949 . S
C1359 H1354 0.950 . S
C1359 C1361 1.327 . S
C1359 C1365 1.429 . S
C1360 C1352 1.574 . S
C1360 H1355 0.949 . S
C1360 C1366 1.368 . S
C1361 C1345 1.349 . S
C1361 H1353 0.950 . S
C1361 C1359 1.327 . S
C1362 C1350 1.349 . S
C1362 H1356 0.950 . S
C1362 C1363 1.327 . S
C1363 H1357 0.950 . S
C1363 C1362 1.327 . S
C1363 C1367 1.429 . S
C1364 C1347 1.574 . S
C1364 H1358 0.949 . S
C1364 C1368 1.368 . S
C1365 C1346 1.429 . S
C1365 C1359 1.429 . S
C1365 C1366 1.523 . S
C1366 C1347 1.368 . S
C1366 C1360 1.368 . S
C1366 C1365 1.523 . S
C1367 C1351 1.429 . S
C1367 C1363 1.429 . S
C1367 C1368 1.523 . S
C1368 C1352 1.368 . S
C1368 C1364 1.368 . S
C1368 C1367 1.523 . S
H1369 C1344 0.950 . S
H1370 C1346 0.950 . S
H1371 C1347 0.949 . S
H1372 C1349 0.950 . S
H1373 C1351 0.950 . S
C1374 C1375 1.349 . S
C1374 C1376 1.327 . S
C1374 H1399 0.950 . S
C1375 C1374 1.349 . S
C1375 C1391 1.349 . S
C1376 C1374 1.327 . S
C1376 C1395 1.429 . S
C1376 H1400 0.950 . S
C1377 C1394 1.574 1_565 S
C1377 C1396 1.368 . S
C1377 H1401 0.949 . S
H1378 C1382 0.949 . S
C1379 C1380 1.349 . S
C1379 C1381 1.327 . S
C1379 H1402 0.950 . S
C1380 C1379 1.349 . S
C1380 C1392 1.349 . S
C1381 C1379 1.327 . S
C1381 C1397 1.429 . S
C1381 H1403 0.950 . S
C1382 H1378 0.949 . S
C1382 C1390 1.612 . S
C1382 C1398 1.368 . S
H1383 C1391 0.950 . S
H1384 C1389 0.950 . S
H1385 C1390 0.940 1_565 S
H1386 C1392 0.950 . S
H1387 C1393 0.950 . S
H1388 C1394 0.949 . S
C1389 H1384 0.950 . S
C1389 C1391 1.327 . S
C1389 C1395 1.429 . S
C1390 C1382 1.612 . S
C1390 H1385 0.940 1_545 S
C1390 C1396 1.341 1_545 S
C1391 C1375 1.349 . S
C1391 H1383 0.950 . S
C1391 C1389 1.327 . S
C1392 C1380 1.349 . S
C1392 H1386 0.950 . S
C1392 C1393 1.327 . S
C1393 H1387 0.950 . S
C1393 C1392 1.327 . S
C1393 C1397 1.429 . S
C1394 C1377 1.574 1_545 S
C1394 H1388 0.949 . S
C1394 C1398 1.368 . S
C1395 C1376 1.429 . S
C1395 C1389 1.429 . S
C1395 C1396 1.523 . S
C1396 C1377 1.368 . S
C1396 C1390 1.341 1_565 S
C1396 C1395 1.523 . S
C1397 C1381 1.429 . S
C1397 C1393 1.429 . S
C1397 C1398 1.523 . S
C1398 C1382 1.368 . S
C1398 C1394 1.368 . S
C1398 C1397 1.523 . S
H1399 C1374 0.950 . S
H1400 C1376 0.950 . S
H1401 C1377 0.949 . S
H1402 C1379 0.950 . S
H1403 C1381 0.950 . S
C1404 C1405 1.349 . S
C1404 C1406 1.327 . S
C1404 H1429 0.950 . S
C1405 C1404 1.349 . S
C1405 C1421 1.349 . S
C1406 C1404 1.327 . S
C1406 C1425 1.429 . S
C1406 H1430 0.950 . S
C1407 C1424 1.574 . S
C1407 C1426 1.368 . S
C1407 H1431 0.949 . S
H1408 C1412 0.949 . S
C1409 C1410 1.349 . S
C1409 C1411 1.327 . S
C1409 H1432 0.950 . S
C1410 C1409 1.349 . S
C1410 C1422 1.349 . S
C1411 C1409 1.327 . S
C1411 C1427 1.429 . S
C1411 H1433 0.950 . S
C1412 H1408 0.949 . S
C1412 C1420 1.574 . S
C1412 C1428 1.368 . S
H1413 C1421 0.950 . S
H1414 C1419 0.950 . S
H1415 C1420 0.949 . S
H1416 C1422 0.950 . S
H1417 C1423 0.950 . S
H1418 C1424 0.949 . S
C1419 H1414 0.950 . S
C1419 C1421 1.327 . S
C1419 C1425 1.429 . S
C1420 C1412 1.574 . S
C1420 H1415 0.949 . S
C1420 C1426 1.368 . S
C1421 C1405 1.349 . S
C1421 H1413 0.950 . S
C1421 C1419 1.327 . S
C1422 C1410 1.349 . S
C1422 H1416 0.950 . S
C1422 C1423 1.327 . S
C1423 H1417 0.950 . S
C1423 C1422 1.327 . S
C1423 C1427 1.429 . S
C1424 C1407 1.574 . S
C1424 H1418 0.949 . S
C1424 C1428 1.368 . S
C1425 C1406 1.429 . S
C1425 C1419 1.429 . S
C1425 C1426 1.523 . S
C1426 C1407 1.368 . S
C1426 C1420 1.368 . S
C1426 C1425 1.523 . S
C1427 C1411 1.429 . S
C1427 C1423 1.429 . S
C1427 C1428 1.523 . S
C1428 C1412 1.368 . S
C1428 C1424 1.368 . S
C1428 C1427 1.523 . S
H1429 C1404 0.950 . S
H1430 C1406 0.950 . S
H1431 C1407 0.949 . S
H1432 C1409 0.950 . S
H1433 C1411 0.950 . S
C1434 C1435 1.349 . S
C1434 C1436 1.327 . S
C1434 H1459 0.950 . S
C1435 C1434 1.349 . S
C1435 C1451 1.349 . S
C1436 C1434 1.327 . S
C1436 C1455 1.429 . S
C1436 H1460 0.950 . S
C1437 C1454 1.574 . S
C1437 C1456 1.368 . S
C1437 H1461 0.949 . S
H1438 C1442 0.949 . S
C1439 C1440 1.349 . S
C1439 C1441 1.327 . S
C1439 H1462 0.950 . S
C1440 C1439 1.349 . S
C1440 C1452 1.349 . S
C1441 C1439 1.327 . S
C1441 C1457 1.429 . S
C1441 H1463 0.950 . S
C1442 H1438 0.949 . S
C1442 C1450 1.574 . S
C1442 C1458 1.368 . S
H1443 C1451 0.950 . S
H1444 C1449 0.950 . S
H1445 C1450 0.949 . S
H1446 C1452 0.950 . S
H1447 C1453 0.950 . S
H1448 C1454 0.949 . S
C1449 H1444 0.950 . S
C1449 C1451 1.327 . S
C1449 C1455 1.429 . S
C1450 C1442 1.574 . S
C1450 H1445 0.949 . S
C1450 C1456 1.368 . S
C1451 C1435 1.349 . S
C1451 H1443 0.950 . S
C1451 C1449 1.327 . S
C1452 C1440 1.349 . S
C1452 H1446 0.950 . S
C1452 C1453 1.327 . S
C1453 H1447 0.950 . S
C1453 C1452 1.327 . S
C1453 C1457 1.429 . S
C1454 C1437 1.574 . S
C1454 H1448 0.949 . S
C1454 C1458 1.368 . S
C1455 C1436 1.429 . S
C1455 C1449 1.429 . S
C1455 C1456 1.523 . S
C1456 C1437 1.368 . S
C1456 C1450 1.368 . S
C1456 C1455 1.523 . S
C1457 C1441 1.429 . S
C1457 C1453 1.429 . S
C1457 C1458 1.523 . S
C1458 C1442 1.368 . S
C1458 C1454 1.368 . S
C1458 C1457 1.523 . S
H1459 C1434 0.950 . S
H1460 C1436 0.950 . S
H1461 C1437 0.949 . S
H1462 C1439 0.950 . S
H1463 C1441 0.950 . S
C1464 C1465 1.349 . S
C1464 C1466 1.327 . S
C1464 H1489 0.950 . S
C1465 C1464 1.349 . S
C1465 C1481 1.349 . S
C1466 C1464 1.327 . S
C1466 C1485 1.429 . S
C1466 H1490 0.950 . S
C1467 C1484 1.574 . S
C1467 C1486 1.368 . S
C1467 H1491 0.949 . S
H1468 C1472 0.949 . S
C1469 C1470 1.349 . S
C1469 C1471 1.327 . S
C1469 H1492 0.950 . S
C1470 C1469 1.349 . S
C1470 C1482 1.349 . S
C1471 C1469 1.327 . S
C1471 C1487 1.429 . S
C1471 H1493 0.950 . S
C1472 H1468 0.949 . S
C1472 C1480 1.574 . S
C1472 C1488 1.368 . S
H1473 C1481 0.950 . S
H1474 C1479 0.950 . S
H1475 C1480 0.949 . S
H1476 C1482 0.950 . S
H1477 C1483 0.950 . S
H1478 C1484 0.949 . S
C1479 H1474 0.950 . S
C1479 C1481 1.327 . S
C1479 C1485 1.429 . S
C1480 C1472 1.574 . S
C1480 H1475 0.949 . S
C1480 C1486 1.368 . S
C1481 C1465 1.349 . S
C1481 H1473 0.950 . S
C1481 C1479 1.327 . S
C1482 C1470 1.349 . S
C1482 H1476 0.950 . S
C1482 C1483 1.327 . S
C1483 H1477 0.950 . S
C1483 C1482 1.327 . S
C1483 C1487 1.429 . S
C1484 C1467 1.574 . S
C1484 H1478 0.949 . S
C1484 C1488 1.368 . S
C1485 C1466 1.429 . S
C1485 C1479 1.429 . S
C1485 C1486 1.523 . S
C1486 C1467 1.368 . S
C1486 C1480 1.368 . S
C1486 C1485 1.523 . S
C1487 C1471 1.429 . S
C1487 C1483 1.429 . S
C1487 C1488 1.523 . S
C1488 C1472 1.368 . S
C1488 C1484 1.368 . S
C1488 C1487 1.523 . S
H1489 C1464 0.950 . S
H1490 C1466 0.950 . S
H1491 C1467 0.949 . S
H1492 C1469 0.950 . S
H1493 C1471 0.950 . S
C1494 C1495 1.349 . S
C1494 C1496 1.327 . S
C1494 H1519 0.950 . S
C1495 C1494 1.349 . S
C1495 C1511 1.349 . S
C1496 C1494 1.327 . S
C1496 C1515 1.429 . S
C1496 H1520 0.950 . S
C1497 C1514 1.574 . S
C1497 C1516 1.368 . S
C1497 H1521 0.949 . S
H1498 C1502 0.949 . S
C1499 C1500 1.349 . S
C1499 C1501 1.327 . S
C1499 H1522 0.950 1_565 S
C1500 C1499 1.349 . S
C1500 C1512 1.349 . S
C1501 C1499 1.327 . S
C1501 C1517 1.429 . S
C1501 H1523 0.950 . S
C1502 H1498 0.949 . S
C1502 C1510 1.574 . S
C1502 C1518 1.368 . S
H1503 C1511 0.950 . S
H1504 C1509 0.950 . S
H1505 C1510 0.949 . S
H1506 C1512 0.950 . S
H1507 C1513 0.950 . S
H1508 C1514 0.949 . S
C1509 H1504 0.950 . S
C1509 C1511 1.327 . S
C1509 C1515 1.429 . S
C1510 C1502 1.574 . S
C1510 H1505 0.949 . S
C1510 C1516 1.368 . S
C1511 C1495 1.349 . S
C1511 H1503 0.950 . S
C1511 C1509 1.327 . S
C1512 C1500 1.349 . S
C1512 H1506 0.950 . S
C1512 C1513 1.327 . S
C1513 H1507 0.950 . S
C1513 C1512 1.327 . S
C1513 C1517 1.429 . S
C1514 C1497 1.574 . S
C1514 H1508 0.949 . S
C1514 C1518 1.368 . S
C1515 C1496 1.429 . S
C1515 C1509 1.429 . S
C1515 C1516 1.523 . S
C1516 C1497 1.368 . S
C1516 C1510 1.368 . S
C1516 C1515 1.523 . S
C1517 C1501 1.429 . S
C1517 C1513 1.429 . S
C1517 C1518 1.523 . S
C1518 C1502 1.368 . S
C1518 C1514 1.368 . S
C1518 C1517 1.523 . S
H1519 C1494 0.950 . S
H1520 C1496 0.950 . S
H1521 C1497 0.949 . S
H1522 C1499 0.950 1_545 S
H1523 C1501 0.950 . S
C1524 C1525 1.349 . S
C1524 C1526 1.327 . S
C1524 H1549 0.950 . S
C1525 C1524 1.349 . S
C1525 C1541 1.349 . S
C1526 C1524 1.327 . S
C1526 C1545 1.429 . S
C1526 H1550 0.950 . S
C1527 C1544 1.574 . S
C1527 C1546 1.368 . S
C1527 H1551 0.949 . S
H1528 C1532 0.949 . S
C1529 C1530 1.349 . S
C1529 C1531 1.327 . S
C1529 H1552 0.950 . S
C1530 C1529 1.349 . S
C1530 C1542 1.349 . S
C1531 C1529 1.327 . S
C1531 C1547 1.429 . S
C1531 H1553 0.950 . S
C1532 H1528 0.949 . S
C1532 C1540 1.574 . S
C1532 C1548 1.368 . S
H1533 C1541 0.950 . S
H1534 C1539 0.950 . S
H1535 C1540 0.949 . S
H1536 C1542 0.950 1_655 S
H1537 C1543 0.950 . S
H1538 C1544 0.949 . S
C1539 H1534 0.950 . S
C1539 C1541 1.327 . S
C1539 C1545 1.429 . S
C1540 C1532 1.574 . S
C1540 H1535 0.949 . S
C1540 C1546 1.368 . S
C1541 C1525 1.349 . S
C1541 H1533 0.950 . S
C1541 C1539 1.327 . S
C1542 C1530 1.349 . S
C1542 H1536 0.950 1_455 S
C1542 C1543 1.327 . S
C1543 H1537 0.950 . S
C1543 C1542 1.327 . S
C1543 C1547 1.429 . S
C1544 C1527 1.574 . S
C1544 H1538 0.949 . S
C1544 C1548 1.368 . S
C1545 C1526 1.429 . S
C1545 C1539 1.429 . S
C1545 C1546 1.523 . S
C1546 C1527 1.368 . S
C1546 C1540 1.368 . S
C1546 C1545 1.523 . S
C1547 C1531 1.429 . S
C1547 C1543 1.429 . S
C1547 C1548 1.523 . S
C1548 C1532 1.368 . S
C1548 C1544 1.368 . S
C1548 C1547 1.523 . S
H1549 C1524 0.950 . S
H1550 C1526 0.950 . S
H1551 C1527 0.949 . S
H1552 C1529 0.950 . S
H1553 C1531 0.950 . S
C1554 C1555 1.349 . S
C1554 C1556 1.327 . S
C1554 H1579 0.950 . S
C1555 C1554 1.349 . S
C1555 C1571 1.349 . S
C1556 C1554 1.327 . S
C1556 C1575 1.429 . S
C1556 H1580 0.950 . S
C1557 C1574 1.574 . S
C1557 C1576 1.368 . S
C1557 H1581 0.949 . S
H1558 C1562 0.949 . S
C1559 C1560 1.349 . S
C1559 C1561 1.327 . S
C1559 H1582 0.950 . S
C1560 C1559 1.349 . S
C1560 C1572 1.349 . S
C1561 C1559 1.327 . S
C1561 C1577 1.429 . S
C1561 H1583 0.950 . S
C1562 H1558 0.949 . S
C1562 C1570 1.574 . S
C1562 C1578 1.368 . S
H1563 C1571 0.950 . S
H1564 C1569 0.950 . S
H1565 C1570 0.949 . S
H1566 C1572 0.950 . S
H1567 C1573 0.950 . S
H1568 C1574 0.949 . S
C1569 H1564 0.950 . S
C1569 C1571 1.327 . S
C1569 C1575 1.429 . S
C1570 C1562 1.574 . S
C1570 H1565 0.949 . S
C1570 C1576 1.368 . S
C1571 C1555 1.349 . S
C1571 H1563 0.950 . S
C1571 C1569 1.327 . S
C1572 C1560 1.349 . S
C1572 H1566 0.950 . S
C1572 C1573 1.327 . S
C1573 H1567 0.950 . S
C1573 C1572 1.327 . S
C1573 C1577 1.429 . S
C1574 C1557 1.574 . S
C1574 H1568 0.949 . S
C1574 C1578 1.368 . S
C1575 C1556 1.429 . S
C1575 C1569 1.429 . S
C1575 C1576 1.523 . S
C1576 C1557 1.368 . S
C1576 C1570 1.368 . S
C1576 C1575 1.523 . S
C1577 C1561 1.429 . S
C1577 C1573 1.429 . S
C1577 C1578 1.523 . S
C1578 C1562 1.368 . S
C1578 C1574 1.368 . S
C1578 C1577 1.523 . S
H1579 C1554 0.950 . S
H1580 C1556 0.950 . S
H1581 C1557 0.949 . S
H1582 C1559 0.950 . S
H1583 C1561 0.950 . S
C1584 C1585 1.349 . S
C1584 C1586 1.327 . S
C1584 H1609 0.950 . S
C1585 C1584 1.349 . S
C1585 C1601 1.349 . S
C1586 C1584 1.327 . S
C1586 C1605 1.429 . S
C1586 H1610 0.950 . S
C1587 C1604 1.574 . S
C1587 C1606 1.368 . S
C1587 H1611 0.949 . S
H1588 C1592 0.949 . S
C1589 C1590 1.349 . S
C1589 C1591 1.327 . S
C1589 H1612 0.950 . S
C1590 C1589 1.349 . S
C1590 C1602 1.349 . S
C1591 C1589 1.327 . S
C1591 C1607 1.429 . S
C1591 H1613 0.950 . S
C1592 H1588 0.949 . S
C1592 C1600 1.574 . S
C1592 C1608 1.368 . S
H1593 C1601 0.950 . S
H1594 C1599 0.950 . S
H1595 C1600 0.949 . S
H1596 C1602 0.950 . S
H1597 C1603 0.950 . S
H1598 C1604 0.949 . S
C1599 H1594 0.950 . S
C1599 C1601 1.327 . S
C1599 C1605 1.429 . S
C1600 C1592 1.574 . S
C1600 H1595 0.949 . S
C1600 C1606 1.368 . S
C1601 C1585 1.349 . S
C1601 H1593 0.950 . S
C1601 C1599 1.327 . S
C1602 C1590 1.349 . S
C1602 H1596 0.950 . S
C1602 C1603 1.327 . S
C1603 H1597 0.950 . S
C1603 C1602 1.327 . S
C1603 C1607 1.429 . S
C1604 C1587 1.574 . S
C1604 H1598 0.949 . S
C1604 C1608 1.368 . S
C1605 C1586 1.429 . S
C1605 C1599 1.429 . S
C1605 C1606 1.523 . S
C1606 C1587 1.368 . S
C1606 C1600 1.368 . S
C1606 C1605 1.523 . S
C1607 C1591 1.429 . S
C1607 C1603 1.429 . S
C1607 C1608 1.523 . S
C1608 C1592 1.368 . S
C1608 C1604 1.368 . S
C1608 C1607 1.523 . S
H1609 C1584 0.950 . S
H1610 C1586 0.950 . S
H1611 C1587 0.949 . S
H1612 C1589 0.950 . S
H1613 C1591 0.950 . S
C1614 C1615 1.349 . S
C1614 C1616 1.327 . S
C1614 H1639 0.950 . S
C1615 C1614 1.349 . S
C1615 C1631 1.349 . S
C1616 C1614 1.327 . S
C1616 C1635 1.429 . S
C1616 H1640 0.950 . S
C1617 C1634 1.574 . S
C1617 C1636 1.368 . S
C1617 H1641 0.949 . S
H1618 C1622 0.949 . S
C1619 C1620 1.349 . S
C1619 C1621 1.327 . S
C1619 H1642 0.950 . S
C1620 C1619 1.349 . S
C1620 C1632 1.349 . S
C1621 C1619 1.327 . S
C1621 C1637 1.429 . S
C1621 H1643 0.950 . S
C1622 H1618 0.949 . S
C1622 C1630 1.574 . S
C1622 C1638 1.368 . S
H1623 C1631 0.950 . S
H1624 C1629 0.950 . S
H1625 C1630 0.949 . S
H1626 C1632 0.950 . S
H1627 C1633 0.950 . S
H1628 C1634 0.949 . S
C1629 H1624 0.950 . S
C1629 C1631 1.327 . S
C1629 C1635 1.429 . S
C1630 C1622 1.574 . S
C1630 H1625 0.949 . S
C1630 C1636 1.368 . S
C1631 C1615 1.349 . S
C1631 H1623 0.950 . S
C1631 C1629 1.327 . S
C1632 C1620 1.349 . S
C1632 H1626 0.950 . S
C1632 C1633 1.327 . S
C1633 H1627 0.950 . S
C1633 C1632 1.327 . S
C1633 C1637 1.429 . S
C1634 C1617 1.574 . S
C1634 H1628 0.949 . S
C1634 C1638 1.368 . S
C1635 C1616 1.429 . S
C1635 C1629 1.429 . S
C1635 C1636 1.523 . S
C1636 C1617 1.368 . S
C1636 C1630 1.368 . S
C1636 C1635 1.523 . S
C1637 C1621 1.429 . S
C1637 C1633 1.429 . S
C1637 C1638 1.523 . S
C1638 C1622 1.368 . S
C1638 C1634 1.368 . S
C1638 C1637 1.523 . S
H1639 C1614 0.950 . S
H1640 C1616 0.950 . S
H1641 C1617 0.949 . S
H1642 C1619 0.950 . S
H1643 C1621 0.950 . S
C1644 C1645 1.349 . S
C1644 C1646 1.327 . S
C1644 H1669 0.950 . S
C1645 C1644 1.349 . S
C1645 C1661 1.349 . S
C1646 C1644 1.327 . S
C1646 C1665 1.429 . S
C1646 H1670 0.950 . S
C1647 C1664 1.574 . S
C1647 C1666 1.368 . S
C1647 H1671 0.949 . S
H1648 C1652 0.949 . S
C1649 C1650 1.349 . S
C1649 C1651 1.327 . S
C1649 H1672 0.950 . S
C1650 C1649 1.349 . S
C1650 C1662 1.349 . S
C1651 C1649 1.327 . S
C1651 C1667 1.429 . S
C1651 H1673 0.950 . S
C1652 H1648 0.949 . S
C1652 C1660 1.574 . S
C1652 C1668 1.368 . S
H1653 C1661 0.950 . S
H1654 C1659 0.950 . S
H1655 C1660 0.949 . S
H1656 C1662 0.950 . S
H1657 C1663 0.950 . S
H1658 C1664 0.949 . S
C1659 H1654 0.950 . S
C1659 C1661 1.327 . S
C1659 C1665 1.429 . S
C1660 C1652 1.574 . S
C1660 H1655 0.949 . S
C1660 C1666 1.368 . S
C1661 C1645 1.349 . S
C1661 H1653 0.950 . S
C1661 C1659 1.327 . S
C1662 C1650 1.349 . S
C1662 H1656 0.950 . S
C1662 C1663 1.327 . S
C1663 H1657 0.950 . S
C1663 C1662 1.327 . S
C1663 C1667 1.429 . S
C1664 C1647 1.574 . S
C1664 H1658 0.949 . S
C1664 C1668 1.368 . S
C1665 C1646 1.429 . S
C1665 C1659 1.429 . S
C1665 C1666 1.523 . S
C1666 C1647 1.368 . S
C1666 C1660 1.368 . S
C1666 C1665 1.523 . S
C1667 C1651 1.429 . S
C1667 C1663 1.429 . S
C1667 C1668 1.523 . S
C1668 C1652 1.368 . S
C1668 C1664 1.368 . S
C1668 C1667 1.523 . S
H1669 C1644 0.950 . S
H1670 C1646 0.950 . S
H1671 C1647 0.949 . S
H1672 C1649 0.950 . S
H1673 C1651 0.950 . S
C1674 C1675 1.349 . S
C1674 C1676 1.327 . S
C1674 H1699 0.950 . S
C1675 C1674 1.349 . S
C1675 C1691 1.349 . S
C1676 C1674 1.327 . S
C1676 C1695 1.429 . S
C1676 H1700 0.950 . S
C1677 C1694 1.574 . S
C1677 C1696 1.368 . S
C1677 H1701 0.949 . S
H1678 C1682 0.949 . S
C1679 C1680 1.349 . S
C1679 C1681 1.327 . S
C1679 H1702 0.950 . S
C1680 C1679 1.349 . S
C1680 C1692 1.349 . S
C1681 C1679 1.327 . S
C1681 C1697 1.429 . S
C1681 H1703 0.950 . S
C1682 H1678 0.949 . S
C1682 C1690 1.574 . S
C1682 C1698 1.368 . S
H1683 C1691 0.950 . S
H1684 C1689 0.950 . S
H1685 C1690 0.949 . S
H1686 C1692 0.950 . S
H1687 C1693 0.950 . S
H1688 C1694 0.949 . S
C1689 H1684 0.950 . S
C1689 C1691 1.327 . S
C1689 C1695 1.429 . S
C1690 C1682 1.574 . S
C1690 H1685 0.949 . S
C1690 C1696 1.368 . S
C1691 C1675 1.349 . S
C1691 H1683 0.950 . S
C1691 C1689 1.327 . S
C1692 C1680 1.349 . S
C1692 H1686 0.950 . S
C1692 C1693 1.327 . S
C1693 H1687 0.950 . S
C1693 C1692 1.327 . S
C1693 C1697 1.429 . S
C1694 C1677 1.574 . S
C1694 H1688 0.949 . S
C1694 C1698 1.368 . S
C1695 C1676 1.429 . S
C1695 C1689 1.429 . S
C1695 C1696 1.523 . S
C1696 C1677 1.368 . S
C1696 C1690 1.368 . S
C1696 C1695 1.523 . S
C1697 C1681 1.429 . S
C1697 C1693 1.429 . S
C1697 C1698 1.523 . S
C1698 C1682 1.368 . S
C1698 C1694 1.368 . S
C1698 C1697 1.523 . S
H1699 C1674 0.950 . S
H1700 C1676 0.950 . S
H1701 C1677 0.949 . S
H1702 C1679 0.950 . S
H1703 C1681 0.950 . S
C1704 C1705 1.349 . S
C1704 C1706 1.327 . S
C1704 H1729 0.950 . S
C1705 C1704 1.349 . S
C1705 C1721 1.349 . S
C1706 C1704 1.327 . S
C1706 C1725 1.429 . S
C1706 H1730 0.950 . S
C1707 C1724 1.574 . S
C1707 C1726 1.368 . S
C1707 H1731 0.949 . S
H1708 C1712 0.949 . S
C1709 C1710 1.349 . S
C1709 C1711 1.327 . S
C1709 H1732 0.950 . S
C1710 C1709 1.349 . S
C1710 C1722 1.349 . S
C1711 C1709 1.327 . S
C1711 C1727 1.429 . S
C1711 H1733 0.950 . S
C1712 H1708 0.949 . S
C1712 C1720 1.574 . S
C1712 C1728 1.368 . S
H1713 C1721 0.950 . S
H1714 C1719 0.950 . S
H1715 C1720 0.949 . S
H1716 C1722 0.950 . S
H1717 C1723 0.950 . S
H1718 C1724 0.949 . S
C1719 H1714 0.950 . S
C1719 C1721 1.327 . S
C1719 C1725 1.429 . S
C1720 C1712 1.574 . S
C1720 H1715 0.949 . S
C1720 C1726 1.368 . S
C1721 C1705 1.349 . S
C1721 H1713 0.950 . S
C1721 C1719 1.327 . S
C1722 C1710 1.349 . S
C1722 H1716 0.950 . S
C1722 C1723 1.327 . S
C1723 H1717 0.950 . S
C1723 C1722 1.327 . S
C1723 C1727 1.429 . S
C1724 C1707 1.574 . S
C1724 H1718 0.949 . S
C1724 C1728 1.368 . S
C1725 C1706 1.429 . S
C1725 C1719 1.429 . S
C1725 C1726 1.523 . S
C1726 C1707 1.368 . S
C1726 C1720 1.368 . S
C1726 C1725 1.523 . S
C1727 C1711 1.429 . S
C1727 C1723 1.429 . S
C1727 C1728 1.523 . S
C1728 C1712 1.368 . S
C1728 C1724 1.368 . S
C1728 C1727 1.523 . S
H1729 C1704 0.950 . S
H1730 C1706 0.950 . S
H1731 C1707 0.949 . S
H1732 C1709 0.950 . S
H1733 C1711 0.950 . S
C1734 C1735 1.349 . S
C1734 C1736 1.327 . S
C1734 H1759 0.950 . S
C1735 C1734 1.349 . S
C1735 C1751 1.349 . S
C1736 C1734 1.327 . S
C1736 C1755 1.429 . S
C1736 H1760 0.950 . S
C1737 C1754 1.574 . S
C1737 C1756 1.368 . S
C1737 H1761 0.949 . S
H1738 C1742 0.949 . S
C1739 C1740 1.349 . S
C1739 C1741 1.327 . S
C1739 H1762 0.950 . S
C1740 C1739 1.349 . S
C1740 C1752 1.349 . S
C1741 C1739 1.327 . S
C1741 C1757 1.429 . S
C1741 H1763 0.950 . S
C1742 H1738 0.949 . S
C1742 C1750 1.574 . S
C1742 C1758 1.368 . S
H1743 C1751 0.950 . S
H1744 C1749 0.950 . S
H1745 C1750 0.949 . S
H1746 C1752 0.950 . S
H1747 C1753 0.950 . S
H1748 C1754 0.949 . S
C1749 H1744 0.950 . S
C1749 C1751 1.327 . S
C1749 C1755 1.429 . S
C1750 C1742 1.574 . S
C1750 H1745 0.949 . S
C1750 C1756 1.368 . S
C1751 C1735 1.349 . S
C1751 H1743 0.950 . S
C1751 C1749 1.327 . S
C1752 C1740 1.349 . S
C1752 H1746 0.950 . S
C1752 C1753 1.327 . S
C1753 H1747 0.950 . S
C1753 C1752 1.327 . S
C1753 C1757 1.429 . S
C1754 C1737 1.574 . S
C1754 H1748 0.949 . S
C1754 C1758 1.368 . S
C1755 C1736 1.429 . S
C1755 C1749 1.429 . S
C1755 C1756 1.523 . S
C1756 C1737 1.368 . S
C1756 C1750 1.368 . S
C1756 C1755 1.523 . S
C1757 C1741 1.429 . S
C1757 C1753 1.429 . S
C1757 C1758 1.523 . S
C1758 C1742 1.368 . S
C1758 C1754 1.368 . S
C1758 C1757 1.523 . S
H1759 C1734 0.950 . S
H1760 C1736 0.950 . S
H1761 C1737 0.949 . S
H1762 C1739 0.950 . S
H1763 C1741 0.950 . S
C1764 C1765 1.349 . S
C1764 C1766 1.327 . S
C1764 H1789 0.950 . S
C1765 C1764 1.349 . S
C1765 C1781 1.349 . S
C1766 C1764 1.327 . S
C1766 C1785 1.429 . S
C1766 H1790 0.950 . S
C1767 C1784 1.574 . S
C1767 C1786 1.368 . S
C1767 H1791 0.949 . S
H1768 C1772 0.949 . S
C1769 C1770 1.349 . S
C1769 C1771 1.327 . S
C1769 H1792 0.950 . S
C1770 C1769 1.349 . S
C1770 C1782 1.349 . S
C1771 C1769 1.327 . S
C1771 C1787 1.429 . S
C1771 H1793 0.950 . S
C1772 H1768 0.949 . S
C1772 C1780 1.574 . S
C1772 C1788 1.368 . S
H1773 C1781 0.950 . S
H1774 C1779 0.950 . S
H1775 C1780 0.949 . S
H1776 C1782 0.950 . S
H1777 C1783 0.950 . S
H1778 C1784 0.949 . S
C1779 H1774 0.950 . S
C1779 C1781 1.327 . S
C1779 C1785 1.429 . S
C1780 C1772 1.574 . S
C1780 H1775 0.949 . S
C1780 C1786 1.368 . S
C1781 C1765 1.349 . S
C1781 H1773 0.950 . S
C1781 C1779 1.327 . S
C1782 C1770 1.349 . S
C1782 H1776 0.950 . S
C1782 C1783 1.327 . S
C1783 H1777 0.950 . S
C1783 C1782 1.327 . S
C1783 C1787 1.429 . S
C1784 C1767 1.574 . S
C1784 H1778 0.949 . S
C1784 C1788 1.368 . S
C1785 C1766 1.429 . S
C1785 C1779 1.429 . S
C1785 C1786 1.523 . S
C1786 C1767 1.368 . S
C1786 C1780 1.368 . S
C1786 C1785 1.523 . S
C1787 C1771 1.429 . S
C1787 C1783 1.429 . S
C1787 C1788 1.523 . S
C1788 C1772 1.368 . S
C1788 C1784 1.368 . S
C1788 C1787 1.523 . S
H1789 C1764 0.950 . S
H1790 C1766 0.950 . S
H1791 C1767 0.949 . S
H1792 C1769 0.950 . S
H1793 C1771 0.950 . S
C1794 C1795 1.349 . S
C1794 C1796 1.327 . S
C1794 H1819 0.950 . S
C1795 C1794 1.349 . S
C1795 C1811 1.349 . S
C1796 C1794 1.327 . S
C1796 C1815 1.429 . S
C1796 H1820 0.950 . S
C1797 C1814 1.574 . S
C1797 C1816 1.368 . S
C1797 H1821 0.949 . S
H1798 C1802 0.949 . S
C1799 C1800 1.349 . S
C1799 C1801 1.327 . S
C1799 H1822 0.950 . S
C1800 C1799 1.349 . S
C1800 C1812 1.349 . S
C1801 C1799 1.327 . S
C1801 C1817 1.429 . S
C1801 H1823 0.950 . S
C1802 H1798 0.949 . S
C1802 C1810 1.574 . S
C1802 C1818 1.368 . S
H1803 C1811 0.950 . S
H1804 C1809 0.950 . S
H1805 C1810 0.949 . S
H1806 C1812 0.950 . S
H1807 C1813 0.950 . S
H1808 C1814 0.949 . S
C1809 H1804 0.950 . S
C1809 C1811 1.327 . S
C1809 C1815 1.429 . S
C1810 C1802 1.574 . S
C1810 H1805 0.949 . S
C1810 C1816 1.368 . S
C1811 C1795 1.349 . S
C1811 H1803 0.950 . S
C1811 C1809 1.327 . S
C1812 C1800 1.349 . S
C1812 H1806 0.950 . S
C1812 C1813 1.327 . S
C1813 H1807 0.950 . S
C1813 C1812 1.327 . S
C1813 C1817 1.429 . S
C1814 C1797 1.574 . S
C1814 H1808 0.949 . S
C1814 C1818 1.368 . S
C1815 C1796 1.429 . S
C1815 C1809 1.429 . S
C1815 C1816 1.523 . S
C1816 C1797 1.368 . S
C1816 C1810 1.368 . S
C1816 C1815 1.523 . S
C1817 C1801 1.429 . S
C1817 C1813 1.429 . S
C1817 C1818 1.523 . S
C1818 C1802 1.368 . S
C1818 C1814 1.368 . S
C1818 C1817 1.523 . S
H1819 C1794 0.950 . S
H1820 C1796 0.950 . S
H1821 C1797 0.949 . S
H1822 C1799 0.950 . S
H1823 C1801 0.950 . S
C1824 C1825 1.349 . S
C1824 C1826 1.327 . S
C1824 H1849 0.950 . S
C1825 C1824 1.349 . S
C1825 C1841 1.349 . S
C1826 C1824 1.327 . S
C1826 C1845 1.429 . S
C1826 H1850 0.950 . S
C1827 C1844 1.574 . S
C1827 C1846 1.368 . S
C1827 H1851 0.949 . S
H1828 C1832 0.949 . S
C1829 C1830 1.349 . S
C1829 C1831 1.327 . S
C1829 H1852 0.950 . S
C1830 C1829 1.349 . S
C1830 C1842 1.349 . S
C1831 C1829 1.327 . S
C1831 C1847 1.429 . S
C1831 H1853 0.950 . S
C1832 H1828 0.949 . S
C1832 C1840 1.574 . S
C1832 C1848 1.368 . S
H1833 C1841 0.950 . S
H1834 C1839 0.950 . S
H1835 C1840 0.949 . S
H1836 C1842 0.950 . S
H1837 C1843 0.950 . S
H1838 C1844 0.949 . S
C1839 H1834 0.950 . S
C1839 C1841 1.327 . S
C1839 C1845 1.429 . S
C1840 C1832 1.574 . S
C1840 H1835 0.949 . S
C1840 C1846 1.368 . S
C1841 C1825 1.349 . S
C1841 H1833 0.950 . S
C1841 C1839 1.327 . S
C1842 C1830 1.349 . S
C1842 H1836 0.950 . S
C1842 C1843 1.327 . S
C1843 H1837 0.950 . S
C1843 C1842 1.327 . S
C1843 C1847 1.429 . S
C1844 C1827 1.574 . S
C1844 H1838 0.949 . S
C1844 C1848 1.368 . S
C1845 C1826 1.429 . S
C1845 C1839 1.429 . S
C1845 C1846 1.523 . S
C1846 C1827 1.368 . S
C1846 C1840 1.368 . S
C1846 C1845 1.523 . S
C1847 C1831 1.429 . S
C1847 C1843 1.429 . S
C1847 C1848 1.523 . S
C1848 C1832 1.368 . S
C1848 C1844 1.368 . S
C1848 C1847 1.523 . S
H1849 C1824 0.950 . S
H1850 C1826 0.950 . S
H1851 C1827 0.949 . S
H1852 C1829 0.950 . S
H1853 C1831 0.950 . S
C1854 C1855 1.349 . S
C1854 C1856 1.327 . S
C1854 H1879 0.950 . S
C1855 C1854 1.349 . S
C1855 C1871 1.349 . S
C1856 C1854 1.327 . S
C1856 C1875 1.429 . S
C1856 H1880 0.950 . S
C1857 C1874 1.574 . S
C1857 C1876 1.368 . S
C1857 H1881 0.949 . S
H1858 C1862 0.949 . S
C1859 C1860 1.349 . S
C1859 C1861 1.327 . S
C1859 H1882 0.950 . S
C1860 C1859 1.349 . S
C1860 C1872 1.349 . S
C1861 C1859 1.327 . S
C1861 C1877 1.429 . S
C1861 H1883 0.950 . S
C1862 H1858 0.949 . S
C1862 C1870 1.574 . S
C1862 C1878 1.368 . S
H1863 C1871 0.950 . S
H1864 C1869 0.950 . S
H1865 C1870 0.949 . S
H1866 C1872 0.950 . S
H1867 C1873 0.950 . S
H1868 C1874 0.949 . S
C1869 H1864 0.950 . S
C1869 C1871 1.327 . S
C1869 C1875 1.429 . S
C1870 C1862 1.574 . S
C1870 H1865 0.949 . S
C1870 C1876 1.368 . S
C1871 C1855 1.349 . S
C1871 H1863 0.950 . S
C1871 C1869 1.327 . S
C1872 C1860 1.349 . S
C1872 H1866 0.950 . S
C1872 C1873 1.327 . S
C1873 H1867 0.950 . S
C1873 C1872 1.327 . S
C1873 C1877 1.429 . S
C1874 C1857 1.574 . S
C1874 H1868 0.949 . S
C1874 C1878 1.368 . S
C1875 C1856 1.429 . S
C1875 C1869 1.429 . S
C1875 C1876 1.523 . S
C1876 C1857 1.368 . S
C1876 C1870 1.368 . S
C1876 C1875 1.523 . S
C1877 C1861 1.429 . S
C1877 C1873 1.429 . S
C1877 C1878 1.523 . S
C1878 C1862 1.368 . S
C1878 C1874 1.368 . S
C1878 C1877 1.523 . S
H1879 C1854 0.950 . S
H1880 C1856 0.950 . S
H1881 C1857 0.949 . S
H1882 C1859 0.950 . S
H1883 C1861 0.950 . S
C1884 C1885 1.349 . S
C1884 C1886 1.327 . S
C1884 H1909 0.950 . S
C1885 C1884 1.349 . S
C1885 C1901 1.349 . S
C1886 C1884 1.327 . S
C1886 C1905 1.429 . S
C1886 H1910 0.950 . S
C1887 C1904 1.574 . S
C1887 C1906 1.368 . S
C1887 H1911 0.949 . S
H1888 C1892 0.949 . S
C1889 C1890 1.349 . S
C1889 C1891 1.327 . S
C1889 H1912 0.950 . S
C1890 C1889 1.349 . S
C1890 C1902 1.349 . S
C1891 C1889 1.327 . S
C1891 C1907 1.429 . S
C1891 H1913 0.950 . S
C1892 H1888 0.949 . S
C1892 C1900 1.574 . S
C1892 C1908 1.368 . S
H1893 C1901 0.950 . S
H1894 C1899 0.950 . S
H1895 C1900 0.949 . S
H1896 C1902 0.950 . S
H1897 C1903 0.950 . S
H1898 C1904 0.949 . S
C1899 H1894 0.950 . S
C1899 C1901 1.327 . S
C1899 C1905 1.429 . S
C1900 C1892 1.574 . S
C1900 H1895 0.949 . S
C1900 C1906 1.368 . S
C1901 C1885 1.349 . S
C1901 H1893 0.950 . S
C1901 C1899 1.327 . S
C1902 C1890 1.349 . S
C1902 H1896 0.950 . S
C1902 C1903 1.327 . S
C1903 H1897 0.950 . S
C1903 C1902 1.327 . S
C1903 C1907 1.429 . S
C1904 C1887 1.574 . S
C1904 H1898 0.949 . S
C1904 C1908 1.368 . S
C1905 C1886 1.429 . S
C1905 C1899 1.429 . S
C1905 C1906 1.523 . S
C1906 C1887 1.368 . S
C1906 C1900 1.368 . S
C1906 C1905 1.523 . S
C1907 C1891 1.429 . S
C1907 C1903 1.429 . S
C1907 C1908 1.523 . S
C1908 C1892 1.368 . S
C1908 C1904 1.368 . S
C1908 C1907 1.523 . S
H1909 C1884 0.950 . S
H1910 C1886 0.950 . S
H1911 C1887 0.949 . S
H1912 C1889 0.950 . S
H1913 C1891 0.950 . S
C1914 C1915 1.349 . S
C1914 C1916 1.327 . S
C1914 H1939 0.950 . S
C1915 C1914 1.349 . S
C1915 C1931 1.349 . S
C1916 C1914 1.327 . S
C1916 C1935 1.429 . S
C1916 H1940 0.950 . S
C1917 C1934 1.574 . S
C1917 C1936 1.368 . S
C1917 H1941 0.949 . S
H1918 C1922 0.949 . S
C1919 C1920 1.349 . S
C1919 C1921 1.327 . S
C1919 H1942 0.950 . S
C1920 C1919 1.349 . S
C1920 C1932 1.349 . S
C1921 C1919 1.327 . S
C1921 C1937 1.429 . S
C1921 H1943 0.950 . S
C1922 H1918 0.949 . S
C1922 C1930 1.574 . S
C1922 C1938 1.368 . S
H1923 C1931 0.950 . S
H1924 C1929 0.950 . S
H1925 C1930 0.949 . S
H1926 C1932 0.950 . S
H1927 C1933 0.950 . S
H1928 C1934 0.949 . S
C1929 H1924 0.950 . S
C1929 C1931 1.327 . S
C1929 C1935 1.429 . S
C1930 C1922 1.574 . S
C1930 H1925 0.949 . S
C1930 C1936 1.368 . S
C1931 C1915 1.349 . S
C1931 H1923 0.950 . S
C1931 C1929 1.327 . S
C1932 C1920 1.349 . S
C1932 H1926 0.950 . S
C1932 C1933 1.327 . S
C1933 H1927 0.950 . S
C1933 C1932 1.327 . S
C1933 C1937 1.429 . S
C1934 C1917 1.574 . S
C1934 H1928 0.949 . S
C1934 C1938 1.368 . S
C1935 C1916 1.429 . S
C1935 C1929 1.429 . S
C1935 C1936 1.523 . S
C1936 C1917 1.368 . S
C1936 C1930 1.368 . S
C1936 C1935 1.523 . S
C1937 C1921 1.429 . S
C1937 C1933 1.429 . S
C1937 C1938 1.523 . S
C1938 C1922 1.368 . S
C1938 C1934 1.368 . S
C1938 C1937 1.523 . S
H1939 C1914 0.950 . S
H1940 C1916 0.950 . S
H1941 C1917 0.949 . S
H1942 C1919 0.950 . S
H1943 C1921 0.950 . S
C1944 C1945 1.349 . S
C1944 C1946 1.327 . S
C1944 H1969 0.950 . S
C1945 C1944 1.349 . S
C1945 C1961 1.349 . S
C1946 C1944 1.327 . S
C1946 C1965 1.429 . S
C1946 H1970 0.950 . S
C1947 C1964 1.574 . S
C1947 C1966 1.368 . S
C1947 H1971 0.949 . S
H1948 C1952 0.949 . S
C1949 C1950 1.349 . S
C1949 C1951 1.327 . S
C1949 H1972 0.950 . S
C1950 C1949 1.349 . S
C1950 C1962 1.349 . S
C1951 C1949 1.327 . S
C1951 C1967 1.429 . S
C1951 H1973 0.950 . S
C1952 H1948 0.949 . S
C1952 C1960 1.574 . S
C1952 C1968 1.368 . S
H1953 C1961 0.950 . S
H1954 C1959 0.950 . S
H1955 C1960 0.949 . S
H1956 C1962 0.950 . S
H1957 C1963 0.950 . S
H1958 C1964 0.949 . S
C1959 H1954 0.950 . S
C1959 C1961 1.327 . S
C1959 C1965 1.429 . S
C1960 C1952 1.574 . S
C1960 H1955 0.949 . S
C1960 C1966 1.368 . S
C1961 C1945 1.349 . S
C1961 H1953 0.950 . S
C1961 C1959 1.327 . S
C1962 C1950 1.349 . S
C1962 H1956 0.950 . S
C1962 C1963 1.327 . S
C1963 H1957 0.950 . S
C1963 C1962 1.327 . S
C1963 C1967 1.429 . S
C1964 C1947 1.574 . S
C1964 H1958 0.949 . S
C1964 C1968 1.368 . S
C1965 C1946 1.429 . S
C1965 C1959 1.429 . S
C1965 C1966 1.523 . S
C1966 C1947 1.368 . S
C1966 C1960 1.368 . S
C1966 C1965 1.523 . S
C1967 C1951 1.429 . S
C1967 C1963 1.429 . S
C1967 C1968 1.523 . S
C1968 C1952 1.368 . S
C1968 C1964 1.368 . S
C1968 C1967 1.523 . S
H1969 C1944 0.950 . S
H1970 C1946 0.950 . S
H1971 C1947 0.949 . S
H1972 C1949 0.950 . S
H1973 C1951 0.950 . S
C1974 C1975 1.349 . S
C1974 C1976 1.327 . S
C1974 H1999 0.950 . S
C1975 C1974 1.349 . S
C1975 C1991 1.349 . S
C1976 C1974 1.327 . S
C1976 C1995 1.429 . S
C1976 H2000 0.950 . S
C1977 C1994 1.574 . S
C1977 C1996 1.368 . S
C1977 H2001 0.949 . S
H1978 C1982 0.949 . S
C1979 C1980 1.349 . S
C1979 C1981 1.327 . S
C1979 H2002 0.950 . S
C1980 C1979 1.349 . S
C1980 C1992 1.349 . S
C1981 C1979 1.327 . S
C1981 C1997 1.429 . S
C1981 H2003 0.950 . S
C1982 H1978 0.949 . S
C1982 C1990 1.574 . S
C1982 C1998 1.368 . S
H1983 C1991 0.950 . S
H1984 C1989 0.950 . S
H1985 C1990 0.949 . S
H1986 C1992 0.950 . S
H1987 C1993 0.950 . S
H1988 C1994 0.949 . S
C1989 H1984 0.950 . S
C1989 C1991 1.327 . S
C1989 C1995 1.429 . S
C1990 C1982 1.574 . S
C1990 H1985 0.949 . S
C1990 C1996 1.368 . S
C1991 C1975 1.349 . S
C1991 H1983 0.950 . S
C1991 C1989 1.327 . S
C1992 C1980 1.349 . S
C1992 H1986 0.950 . S
C1992 C1993 1.327 . S
C1993 H1987 0.950 . S
C1993 C1992 1.327 . S
C1993 C1997 1.429 . S
C1994 C1977 1.574 . S
C1994 H1988 0.949 . S
C1994 C1998 1.368 . S
C1995 C1976 1.429 . S
C1995 C1989 1.429 . S
C1995 C1996 1.523 . S
C1996 C1977 1.368 . S
C1996 C1990 1.368 . S
C1996 C1995 1.523 . S
C1997 C1981 1.429 . S
C1997 C1993 1.429 . S
C1997 C1998 1.523 . S
C1998 C1982 1.368 . S
C1998 C1994 1.368 . S
C1998 C1997 1.523 . S
H1999 C1974 0.950 . S
H2000 C1976 0.950 . S
H2001 C1977 0.949 . S
H2002 C1979 0.950 . S
H2003 C1981 0.950 . S
C2004 C2005 1.349 . S
C2004 C2006 1.327 . S
C2004 H2029 0.950 . S
C2005 C2004 1.349 . S
C2005 C2021 1.349 . S
C2006 C2004 1.327 . S
C2006 C2025 1.429 . S
C2006 H2030 0.950 . S
C2007 C2024 1.574 . S
C2007 C2026 1.368 . S
C2007 H2031 0.949 . S
H2008 C2012 0.949 . S
C2009 C2010 1.349 . S
C2009 C2011 1.327 . S
C2009 H2032 0.950 . S
C2010 C2009 1.349 . S
C2010 C2022 1.349 . S
C2011 C2009 1.327 . S
C2011 C2027 1.429 . S
C2011 H2033 0.950 . S
C2012 H2008 0.949 . S
C2012 C2020 1.574 . S
C2012 C2028 1.368 . S
H2013 C2021 0.950 . S
H2014 C2019 0.950 . S
H2015 C2020 0.949 . S
H2016 C2022 0.950 . S
H2017 C2023 0.950 . S
H2018 C2024 0.949 . S
C2019 H2014 0.950 . S
C2019 C2021 1.327 . S
C2019 C2025 1.429 . S
C2020 C2012 1.574 . S
C2020 H2015 0.949 . S
C2020 C2026 1.368 . S
C2021 C2005 1.349 . S
C2021 H2013 0.950 . S
C2021 C2019 1.327 . S
C2022 C2010 1.349 . S
C2022 H2016 0.950 . S
C2022 C2023 1.327 . S
C2023 H2017 0.950 . S
C2023 C2022 1.327 . S
C2023 C2027 1.429 . S
C2024 C2007 1.574 . S
C2024 H2018 0.949 . S
C2024 C2028 1.368 . S
C2025 C2006 1.429 . S
C2025 C2019 1.429 . S
C2025 C2026 1.523 . S
C2026 C2007 1.368 . S
C2026 C2020 1.368 . S
C2026 C2025 1.523 . S
C2027 C2011 1.429 . S
C2027 C2023 1.429 . S
C2027 C2028 1.523 . S
C2028 C2012 1.368 . S
C2028 C2024 1.368 . S
C2028 C2027 1.523 . S
H2029 C2004 0.950 . S
H2030 C2006 0.950 . S
H2031 C2007 0.949 . S
H2032 C2009 0.950 . S
H2033 C2011 0.950 . S
C415 N170 2.023 . S
C420 C240 2.020 . S
C445 N184 0.981 . S
C450 C260 0.969 . S
C475 N158 1.596 . S
C480 C283 1.595 . S
C505 N145 1.493 . S
C510 C263 1.479 1_556 S
C540 C280 0.858 . S
C535 N119 0.863 . S
C565 N131 1.947 . S
C570 C243 1.962 . S
C600 C250 1.671 . S
C595 N144 1.693 . S
C630 C270 1.394 . S
C625 N118 1.424 . S
C655 N132 1.514 . S
C660 C275 1.525 . S
C685 N171 1.431 . S
C690 C255 1.440 . S
C715 N183 1.270 . S
C720 C290 1.255 . S
C750 C235 1.571 . S
C745 N157 1.576 . S
C780 C300 2.020 . S
C775 N14 2.023 . S
C805 N28 0.981 . S
C810 C320 0.969 . S
C835 N2 1.596 . S
C840 C343 1.595 . S
C865 N223 1.493 . S
C870 C323 1.490 . S
C895 N197 0.863 . S
C900 C340 0.858 . S
C925 N209 1.947 . S
C930 C303 1.962 . S
C955 N222 1.693 . S
C960 C310 1.671 . S
C985 N196 1.424 . S
C990 C330 1.394 . S
C1020 C335 1.525 . S
C1015 N210 1.514 . S
C1045 N15 1.431 . S
C1050 C315 1.440 . S
C1080 C350 1.255 . S
C1075 N27 1.270 . S
C1105 N1 1.576 . S
C1110 C295 1.571 . S
C1140 C360 2.020 . S
C1135 N92 2.023 . S
C1165 N106 0.981 . S
C1170 C380 0.969 . S
C1200 C403 1.595 . S
C1195 N80 1.596 . S
C1230 C383 1.490 . S
C1225 N67 1.493 . S
C1260 C400 0.858 . S
C1255 N41 0.863 . S
C1285 N53 1.947 . S
C1290 C363 1.962 . S
C1315 N66 1.693 . S
C1320 C370 1.671 . S
C1345 N40 1.424 . S
C1350 C390 1.394 . S
C1380 C395 1.525 . S
C1375 N54 1.514 . S
C1405 N93 1.431 . S
C1410 C375 1.440 . S
C1435 N105 1.270 . S
C1440 C410 1.255 . S
C1465 N79 1.576 . S
C1470 C355 1.572 . S
C1495 N200 0.838 . S
C1500 C253 0.832 . S
C1530 C273 2.002 . S
C1525 N213 2.035 . S
C1555 N226 1.508 . S
C1560 C282 1.479 . S
C1585 N83 1.640 . S
C1590 C262 1.598 1_655 S
C1615 N96 1.920 . S
C1620 C293 1.898 . S
C1650 C242 0.882 . S
C1645 N109 0.891 . S
C1675 N44 0.837 . S
C1680 C313 0.832 . S
C1705 N57 2.035 . S
C1710 C333 2.002 . S
C1735 N70 1.508 . S
C1740 C342 1.479 . S
C1765 N161 1.640 . S
C1770 C322 1.598 . S
C1800 C353 1.898 . S
C1795 N174 1.920 . S
C1825 N187 0.891 . S
C1830 C302 0.882 . S
C1855 N122 0.838 . S
C1860 C373 0.832 . S
C1885 N135 2.035 . S
C1890 C393 2.002 . S
C1920 C402 1.479 . S
C1915 N148 1.508 . S
C1945 N5 1.640 . S
C1950 C382 1.598 . S
C1975 N18 1.920 . S
C1980 C413 1.898 . S
C2005 N31 0.891 . S
C2010 C362 0.882 . S
