# Generated by pormake.
# Topology anh, (6,3)-cn, num edge types: 1
# Building blocks:
#     Node 0, Type 0, BuildingBlock: GEDQOX_clean_sbu_0, # of connection points: 6
#     Node 1, Type 0, BuildingBlock: GEDQOX_clean_sbu_0, # of connection points: 6
#     Node 2, Type 0, BuildingBlock: GEDQOX_clean_sbu_0, # of connection points: 6
#     Node 3, Type 1, BuildingBlock: ESEHIV_clean_linker_0, # of connection points: 3
#     Node 4, Type 1, BuildingBlock: ESEHIV_clean_linker_0, # of connection points: 3
#     Node 5, Type 1, BuildingBlock: ESEHIV_clean_linker_0, # of connection points: 3
#     Node 6, Type 1, BuildingBlock: ESEHIV_clean_linker_0, # of connection points: 3
#     Node 7, Type 1, BuildingBlock: ESEHIV_clean_linker_0, # of connection points: 3
#     Node 8, Type 1, BuildingBlock: ESEHIV_clean_linker_0, # of connection points: 3
#     Edge 9, Type (0, 1), BuildingBlock: XUDNAN_clean_linker_2, # of connection points: 2
#     Edge 10, Type (0, 1), BuildingBlock: XUDNAN_clean_linker_2, # of connection points: 2
#     Edge 11, Type (0, 1), BuildingBlock: XUDNAN_clean_linker_2, # of connection points: 2
#     Edge 12, Type (0, 1), BuildingBlock: XUDNAN_clean_linker_2, # of connection points: 2
#     Edge 13, Type (0, 1), BuildingBlock: XUDNAN_clean_linker_2, # of connection points: 2
#     Edge 14, Type (0, 1), BuildingBlock: XUDNAN_clean_linker_2, # of connection points: 2
#     Edge 15, Type (0, 1), BuildingBlock: XUDNAN_clean_linker_2, # of connection points: 2
#     Edge 16, Type (0, 1), BuildingBlock: XUDNAN_clean_linker_2, # of connection points: 2
#     Edge 17, Type (0, 1), BuildingBlock: XUDNAN_clean_linker_2, # of connection points: 2
#     Edge 18, Type (0, 1), BuildingBlock: XUDNAN_clean_linker_2, # of connection points: 2
#     Edge 19, Type (0, 1), BuildingBlock: XUDNAN_clean_linker_2, # of connection points: 2
#     Edge 20, Type (0, 1), BuildingBlock: XUDNAN_clean_linker_2, # of connection points: 2
#     Edge 21, Type (0, 1), BuildingBlock: XUDNAN_clean_linker_2, # of connection points: 2
#     Edge 22, Type (0, 1), BuildingBlock: XUDNAN_clean_linker_2, # of connection points: 2
#     Edge 23, Type (0, 1), BuildingBlock: XUDNAN_clean_linker_2, # of connection points: 2
#     Edge 24, Type (0, 1), BuildingBlock: XUDNAN_clean_linker_2, # of connection points: 2
#     Edge 25, Type (0, 1), BuildingBlock: XUDNAN_clean_linker_2, # of connection points: 2
#     Edge 26, Type (0, 1), BuildingBlock: XUDNAN_clean_linker_2, # of connection points: 2
# Relax obj value: 0.211
# Max RMSD: 0.227
# Mean RMSD: 0.166
data_MOF--net-anh--node1-GEDQOX_clean_sbu_0--node2-ESEHIV_clean_linker_0--edge1-XUDNAN_clean_linker_2
_symmetry_space_group_name_H-M    P1
_symmetry_Int_Tables_number       1
_symmetry_cell_setting            triclinic
loop_
_symmetry_equiv_pos_as_xyz
'x, y, z'
_cell_length_a     29.334355
_cell_length_b     27.6637
_cell_length_c     51.747112
_cell_angle_alpha  92.671369
_cell_angle_beta   90.959331
_cell_angle_gamma 103.14595
loop_
_atom_site_label
_atom_site_type_symbol
_atom_site_fract_x
_atom_site_fract_y
_atom_site_fract_z
_atom_type_partial_charge
Nd0 Nd 0.09486 0.54468 0.15476 0.0
Nd1 Nd 0.07014 0.43563 0.15366 0.0
C2 C 0.13367 0.63885 0.14762 0.0
C3 C 0.17992 0.6721 0.15402 0.0
C4 C 0.22136 0.6622 0.14402 0.0
C5 C 0.26478 0.69372 0.15077 0.0
C6 C 0.26767 0.73562 0.16772 0.0
C7 C 0.2262 0.74514 0.17784 0.0
C8 C 0.18283 0.71378 0.171 0.0
C9 C 0.07739 0.50882 0.20307 0.0
C10 C 0.18653 0.48606 0.1519 0.0
C11 C 1.03158 0.34212 0.16242 0.0
C12 C 0.98342 0.31606 0.16784 0.0
C13 C 0.95323 0.34044 0.18136 0.0
C14 C 0.90654 0.31621 0.18475 0.0
C15 C 0.88924 0.26734 0.17454 0.0
C16 C 0.91976 0.24314 0.16112 0.0
C17 C 0.96635 0.26733 0.15778 0.0
C18 C 0.09007 0.47196 0.10688 0.0
C19 C 0.97978 0.49683 0.1481 0.0
O20 O 0.13199 0.6032 0.12984 0.0
O21 O 0.1074 0.62448 0.16724 0.0
O22 O 0.06558 0.5482 0.19532 0.0
O23 O 0.10038 0.49097 0.18609 0.0
O24 O 0.17139 0.52819 0.15227 0.0
O25 O 0.15411 0.44333 0.15356 0.0
O26 O 1.05368 0.37413 0.18036 0.0
O27 O 1.03772 0.35855 0.13919 0.0
O28 O 0.10355 0.43332 0.11457 0.0
O29 O 0.06508 0.48862 0.12313 0.0
O30 O 0.99259 0.45461 0.15359 0.0
O31 O 1.01424 0.53684 0.14501 0.0
H32 H 0.2204 0.63003 0.13108 0.0
H33 H 0.29612 0.68503 0.14289 0.0
H34 H 0.22713 0.77741 0.19069 0.0
H35 H 0.15144 0.72213 0.17902 0.0
H36 H 0.96554 0.3784 0.189 0.0
H37 H 0.88381 0.33598 0.19496 0.0
H38 H 0.90773 0.20525 0.15335 0.0
H39 H 0.989 0.24813 0.1471 0.0
Nd40 Nd 0.51337 1.00518 0.51916 0.0
Nd41 Nd 0.61281 0.04086 0.51627 0.0
C42 C 0.42867 0.95809 0.5316 0.0
C43 C 0.39956 0.90838 0.52573 0.0
C44 C 0.36024 0.89077 0.5405 0.0
C45 C 0.32868 0.84639 0.53278 0.0
C46 C 0.33639 0.81965 0.51023 0.0
C47 C 0.37776 0.83524 0.49671 0.0
C48 C 0.40943 0.87934 0.50453 0.0
C49 C 0.54348 0.01669 0.46901 0.0
C50 C 0.57855 0.92119 0.51624 0.0
C51 C 0.69779 0.08865 0.50489 0.0
C52 C 0.72671 0.13979 0.50853 0.0
C53 C 0.7291 0.17333 0.48873 0.0
C54 C 0.76188 0.21877 0.49048 0.0
C55 C 0.79304 0.23105 0.51192 0.0
C56 C 0.78793 0.19954 0.53266 0.0
C57 C 0.7551 0.15425 0.53098 0.0
C58 C 0.58492 0.02453 0.56612 0.0
C59 C 0.54775 0.12458 0.5231 0.0
O60 O 0.46586 0.96004 0.54619 0.0
O61 O 0.43675 0.98699 0.51206 0.0
O62 O 0.50679 0.03064 0.47738 0.0
O63 O 0.56196 0.99704 0.48658 0.0
O64 O 0.53739 0.93045 0.52168 0.0
O65 O 0.61376 0.95785 0.51041 0.0
O66 O 0.66219 0.08126 0.48844 0.0
O67 O 0.6886 0.06334 0.52563 0.0
O68 O 0.6217 0.01313 0.5564 0.0
O69 O 0.56506 0.0461 0.5498 0.0
O70 O 0.58783 0.11595 0.51488 0.0
O71 O 0.51409 0.08691 0.52931 0.0
H72 H 0.35266 0.91263 0.55712 0.0
H73 H 0.29653 0.83511 0.54316 0.0
H74 H 0.38382 0.81521 0.47907 0.0
H75 H 0.44016 0.89221 0.49319 0.0
H76 H 0.70747 0.1634 0.47127 0.0
H77 H 0.76542 0.24231 0.47413 0.0
H78 H 0.81149 0.20847 0.54943 0.0
H79 H 0.7538 0.12952 0.54671 0.0
Nd80 Nd 0.52972 0.50202 0.83351 0.0
Nd81 Nd 0.63123 0.54225 0.83587 0.0
C82 C 0.44496 0.47378 0.81257 0.0
C83 C 0.41767 0.50015 0.7971 0.0
C84 C 0.43728 0.54963 0.79158 0.0
C85 C 0.40807 0.58191 0.78737 0.0
C86 C 0.35946 0.56423 0.78811 0.0
C87 C 0.34039 0.51293 0.78884 0.0
C88 C 0.36954 0.48092 0.79376 0.0
C89 C 0.55462 0.50561 0.8859 0.0
C90 C 0.57151 0.62366 0.84234 0.0
C91 C 0.72161 0.55308 0.83732 0.0
C92 C 0.74481 0.51194 0.83189 0.0
C93 C 0.74709 0.47781 0.85075 0.0
C94 C 0.76805 0.4383 0.84546 0.0
C95 C 0.7883 0.43263 0.82128 0.0
C96 C 0.77916 0.46217 0.80125 0.0
C97 C 0.75906 0.50244 0.80671 0.0
C98 C 0.5911 0.55043 0.78866 0.0
C99 C 0.59071 0.4189 0.83252 0.0
O100 O 0.48175 0.46377 0.80164 0.0
O101 O 0.45334 0.49198 0.83642 0.0
O102 O 0.51271 0.48753 0.87645 0.0
O103 O 0.58245 0.51891 0.86779 0.0
O104 O 0.53797 0.58804 0.83115 0.0
O105 O 0.6103 0.61307 0.85135 0.0
O106 O 0.69775 0.55163 0.85858 0.0
O107 O 0.69951 0.56516 0.81745 0.0
O108 O 0.6203 0.58624 0.80119 0.0
O109 O 0.58239 0.51172 0.80163 0.0
O110 O 0.62757 0.45678 0.83488 0.0
O111 O 0.54809 0.42617 0.83102 0.0
H112 H 0.47466 0.56466 0.79375 0.0
H113 H 0.4233 0.62145 0.78715 0.0
H114 H 0.30285 0.49891 0.78978 0.0
H115 H 0.35412 0.44274 0.79795 0.0
H116 H 0.7341 0.48238 0.86997 0.0
H117 H 0.77258 0.41582 0.86144 0.0
H118 H 0.79229 0.45765 0.78205 0.0
H119 H 0.75565 0.52674 0.79131 0.0
H120 H 0.52101 0.95928 0.27751 0.0
H121 H 0.63672 0.08485 0.2779 0.0
H122 H 0.55427 0.03645 0.20773 0.0
C123 C 0.54182 0.98929 0.26713 0.0
C124 C 0.53442 0.99207 0.24038 0.0
C125 C 0.57692 0.0246 0.28077 0.0
C126 C 0.60748 0.06083 0.26729 0.0
C127 C 0.60145 0.06392 0.24031 0.0
C128 C 0.56245 0.0316 0.22775 0.0
H129 H 0.55932 0.6151 0.58859 0.0
H130 H 0.55467 0.45998 0.5976 0.0
H131 H 0.56137 0.51837 0.52179 0.0
C132 C 0.55989 0.57831 0.58089 0.0
C133 C 0.5638 0.57254 0.55397 0.0
C134 C 0.55853 0.53896 0.59747 0.0
C135 C 0.55588 0.49134 0.58576 0.0
C136 C 0.55403 0.48242 0.55858 0.0
C137 C 0.56012 0.52389 0.54259 0.0
H138 H 1.03371 0.57393 0.94663 0.0
H139 H 0.17163 0.65875 0.93233 0.0
H140 H 0.07767 0.59989 0.86869 0.0
C141 C 1.05872 0.5926 0.93309 0.0
C142 C 1.04852 0.58634 0.90641 0.0
C143 C 0.10357 0.61747 0.94223 0.0
C144 C 0.13674 0.64079 0.92503 0.0
C145 C 0.12704 0.63539 0.89835 0.0
C146 C 0.08301 0.60835 0.8893 0.0
H147 H 1.00677 0.43251 0.40047 0.0
H148 H 0.11928 0.56177 0.39291 0.0
H149 H 0.06569 0.52357 0.4676 0.0
C150 C 1.032 0.46461 0.40868 0.0
C151 C 1.03412 0.47396 0.43564 0.0
C152 C 1.06225 0.49644 0.39265 0.0
C153 C 0.09411 0.53773 0.40443 0.0
C154 C 0.09454 0.54857 0.4312 0.0
C155 C 0.06504 0.51602 0.44682 0.0
H156 H 0.5857 0.09542 0.76015 0.0
H157 H 0.58413 0.94149 0.7557 0.0
H158 H 0.56735 0.01615 0.82976 0.0
C159 C 0.58178 0.06099 0.76995 0.0
C160 C 0.5762 0.06124 0.79672 0.0
C161 C 0.58396 0.01802 0.75532 0.0
C162 C 0.58018 0.9732 0.76763 0.0
C163 C 0.57409 0.97039 0.79479 0.0
C164 C 0.57235 0.0157 0.80915 0.0
H165 H 0.50743 0.48781 0.07964 0.0
H166 H 0.65492 0.49318 0.08073 0.0
H167 H 0.5832 0.49467 0.15302 0.0
C168 C 0.53897 0.48753 0.0908 0.0
C169 C 0.53701 0.48817 0.11816 0.0
C170 C 0.58131 0.49112 0.0775 0.0
C171 C 0.62312 0.49108 0.09144 0.0
C172 C 0.62625 0.49133 0.11863 0.0
C173 C 0.58225 0.49159 0.13209 0.0
H174 H 0.24348 0.42052 0.12876 0.0
H175 H 0.25863 0.56218 0.17124 0.0
H176 H 0.34457 0.57517 0.16997 0.0
H177 H 0.34882 0.38664 0.15701 0.0
H178 H 0.36562 0.36048 0.12709 0.0
H179 H 0.3049 0.35991 0.13243 0.0
H180 H 0.30085 0.40551 0.09041 0.0
H181 H 0.36146 0.40595 0.08488 0.0
H182 H 0.34224 0.46342 0.08601 0.0
H183 H 0.43544 0.57252 0.16522 0.0
H184 H 0.51329 0.55947 0.15271 0.0
H185 H 0.44467 0.42456 0.10907 0.0
C186 C 0.26459 0.45413 0.13816 0.0
C187 C 0.24149 0.48975 0.15077 0.0
C188 C 0.27294 0.5334 0.16177 0.0
C189 C 0.32291 0.54128 0.16114 0.0
C190 C 0.34417 0.50595 0.14884 0.0
C191 C 0.31569 0.46339 0.13711 0.0
C192 C 0.34798 0.43275 0.12384 0.0
C193 C 0.34142 0.3819 0.13578 0.0
C194 C 0.33749 0.42652 0.09454 0.0
C195 C 0.39848 0.46436 0.12975 0.0
C196 C 0.39541 0.50606 0.14476 0.0
C197 C 0.43729 0.5398 0.15335 0.0
C198 C 0.48234 0.53176 0.14628 0.0
C199 C 0.48772 0.49048 0.13002 0.0
C200 C 0.44377 0.45649 0.12179 0.0
H201 H 0.80226 0.32826 0.49892 0.0
H202 H 0.88111 0.21948 0.5186 0.0
H203 H 0.95384 0.276 0.50623 0.0
H204 H 0.85518 0.36683 0.44478 0.0
H205 H 0.859 0.43266 0.44944 0.0
H206 H 0.81421 0.38934 0.46506 0.0
H207 H 0.84245 0.43268 0.50972 0.0
H208 H 0.88715 0.47688 0.49422 0.0
H209 H 0.90298 0.44131 0.51982 0.0
H210 H 1.01366 0.33405 0.4838 0.0
H211 H 1.06032 0.39678 0.45635 0.0
H212 H 0.94555 0.47101 0.45214 0.0
C213 C 0.83521 0.31744 0.50152 0.0
C214 C 0.83636 0.26993 0.50999 0.0
C215 C 0.87974 0.25623 0.51274 0.0
C216 C 0.92123 0.28799 0.50567 0.0
C217 C 0.91889 0.3338 0.49647 0.0
C218 C 0.87733 0.34933 0.49502 0.0
C219 C 0.88446 0.39908 0.48268 0.0
C220 C 0.85125 0.39676 0.45908 0.0
C221 C 0.87894 0.43991 0.5028 0.0
C222 C 0.93505 0.40605 0.47493 0.0
C223 C 0.95449 0.36859 0.48377 0.0
C224 C 0.99943 0.36442 0.47738 0.0
C225 C 1.02545 0.39973 0.46168 0.0
C226 C 1.00618 0.43814 0.45245 0.0
C227 C 0.96074 0.44183 0.45929 0.0
H228 H 0.55829 0.67393 0.79926 0.0
H229 H 0.58129 0.69445 0.88226 0.0
H230 H 0.58087 0.78383 0.87982 0.0
H231 H 0.63754 0.79215 0.78649 0.0
H232 H 0.60406 0.80254 0.75863 0.0
H233 H 0.60342 0.74003 0.76725 0.0
H234 H 0.51308 0.72053 0.76889 0.0
H235 H 0.51333 0.78288 0.76025 0.0
H236 H 0.48511 0.75924 0.78926 0.0
H237 H 0.58021 0.87305 0.86757 0.0
H238 H 0.58249 0.95191 0.84754 0.0
H239 H 0.55872 0.87226 0.77203 0.0
C240 C 0.56269 0.69719 0.81693 0.0
C241 C 0.56899 0.67695 0.84107 0.0
C242 C 0.57594 0.70896 0.86365 0.0
C243 C 0.5758 0.75984 0.86239 0.0
C244 C 0.56992 0.77881 0.83827 0.0
C245 C 0.56406 0.74842 0.8159 0.0
C246 C 0.56179 0.77855 0.79224 0.0
C247 C 0.6042 0.77828 0.77514 0.0
C248 C 0.51555 0.75915 0.77676 0.0
C249 C 0.56483 0.83015 0.80481 0.0
C250 C 0.57025 0.82974 0.83131 0.0
C251 C 0.5758 0.87351 0.84678 0.0
C252 C 0.5766 0.91874 0.83497 0.0
C253 C 0.57119 0.92085 0.80763 0.0
C254 C 0.56439 0.87471 0.79273 0.0
H255 H 0.88784 0.42487 0.15011 0.0
H256 H 0.94735 0.58072 0.13894 0.0
H257 H 0.86816 0.59517 0.13397 0.0
H258 H 0.78892 0.41077 0.10335 0.0
H259 H 0.74667 0.37092 0.12247 0.0
H260 H 0.80805 0.37168 0.12619 0.0
H261 H 0.80467 0.39234 0.17502 0.0
H262 H 0.7433 0.39201 0.17148 0.0
H263 H 0.78361 0.44594 0.18592 0.0
H264 H 0.77864 0.59526 0.13031 0.0
H265 H 0.6927 0.57894 0.12444 0.0
H266 H 0.68317 0.42266 0.13481 0.0
C267 C 0.88457 0.46222 0.14664 0.0
C268 C 0.92678 0.50161 0.14516 0.0
C269 C 0.91804 0.54924 0.14044 0.0
C270 C 0.87212 0.55809 0.13756 0.0
C271 C 0.83213 0.51929 0.1392 0.0
C272 C 0.83777 0.47194 0.14345 0.0
C273 C 0.78794 0.43696 0.14383 0.0
C274 C 0.78258 0.39508 0.1227 0.0
C275 C 0.77937 0.41549 0.17065 0.0
C276 C 0.75387 0.47144 0.13843 0.0
C277 C 0.78064 0.51912 0.13646 0.0
C278 C 0.758 0.55785 0.13203 0.0
C279 C 0.70811 0.54821 0.12902 0.0
C280 C 0.67825 0.49983 0.13006 0.0
C281 C 0.70291 0.46079 0.13479 0.0
H282 H 0.29766 0.7223 0.52116 0.0
H283 H 0.28678 0.83945 0.47017 0.0
H284 H 0.2193 0.78401 0.44708 0.0
H285 H 0.27238 0.62363 0.47253 0.0
H286 H 0.23857 0.57836 0.49285 0.0
H287 H 0.2838 0.62822 0.50701 0.0
H288 H 0.2235 0.65398 0.53757 0.0
H289 H 0.17795 0.60437 0.52334 0.0
H290 H 0.171 0.66751 0.52407 0.0
H291 H 0.15702 0.71792 0.42856 0.0
H292 H 0.10312 0.64003 0.41293 0.0
H293 H 0.15348 0.56222 0.47441 0.0
C294 C 0.28059 0.73591 0.50523 0.0
C295 C 0.29682 0.78472 0.4972 0.0
C296 C 0.27444 0.80189 0.4763 0.0
C297 C 0.2361 0.77091 0.46326 0.0
C298 C 0.22077 0.72291 0.47139 0.0
C299 C 0.24221 0.70507 0.49172 0.0
C300 C 0.21986 0.6507 0.49519 0.0
C301 C 0.2558 0.61833 0.49167 0.0
C302 C 0.1967 0.64375 0.52161 0.0
C303 C 0.1835 0.6409 0.4732 0.0
C304 C 0.18444 0.68349 0.46011 0.0
C305 C 0.15568 0.6842 0.43859 0.0
C306 C 0.12549 0.6398 0.42978 0.0
C307 C 0.12461 0.59528 0.44232 0.0
C308 C 0.15336 0.59595 0.46462 0.0
H309 H 0.55014 0.34285 0.798 0.0
H310 H 0.64406 0.37662 0.86512 0.0
H311 H 0.64667 0.28743 0.866 0.0
H312 H 0.48311 0.22623 0.81275 0.0
H313 H 0.48188 0.19835 0.78047 0.0
H314 H 0.4883 0.26444 0.78515 0.0
H315 H 0.56473 0.28001 0.75936 0.0
H316 H 0.55822 0.21389 0.75426 0.0
H317 H 0.61144 0.25154 0.76892 0.0
H318 H 0.63632 0.1907 0.85929 0.0
H319 H 0.62209 0.10247 0.84286 0.0
H320 H 0.53387 0.13447 0.78087 0.0
C321 C 0.57138 0.33145 0.81284 0.0
C322 C 0.59655 0.3666 0.83165 0.0
C323 C 0.62459 0.35037 0.85048 0.0
C324 C 0.62602 0.29966 0.85118 0.0
C325 C 0.60003 0.26563 0.83256 0.0
C326 C 0.57414 0.28138 0.81339 0.0
C327 C 0.55152 0.23857 0.79464 0.0
C328 C 0.49802 0.23149 0.7932 0.0
C329 C 0.57272 0.24647 0.76771 0.0
C330 C 0.56587 0.19554 0.80712 0.0
C331 C 0.59458 0.21159 0.8287 0.0
C332 C 0.6138 0.17804 0.84239 0.0
C333 C 0.60501 0.12764 0.83313 0.0
C334 C 0.57695 0.11089 0.81046 0.0
C335 C 0.55588 0.14554 0.79812 0.0
H336 H 0.51681 0.82905 0.50496 0.0
H337 H 0.65788 0.8964 0.53343 0.0
H338 H 0.67148 0.81319 0.54067 0.0
H339 H 0.48735 0.73164 0.54622 0.0
H340 H 0.45893 0.68452 0.52223 0.0
H341 H 0.46132 0.74895 0.51724 0.0
H342 H 0.50038 0.74083 0.47336 0.0
H343 H 0.49853 0.67627 0.47831 0.0
H344 H 0.55337 0.71836 0.47217 0.0
H345 H 0.66894 0.72349 0.54748 0.0
H346 H 0.64885 0.63448 0.55624 0.0
H347 H 0.50929 0.62135 0.52372 0.0
C348 C 0.55072 0.82611 0.51244 0.0
C349 C 0.58644 0.86968 0.51852 0.0
C350 C 0.63024 0.86398 0.52824 0.0
C351 C 0.63829 0.81666 0.53244 0.0
C352 C 0.60267 0.77459 0.52621 0.0
C353 C 0.55984 0.77865 0.51616 0.0
C354 C 0.52771 0.72697 0.51132 0.0
C355 C 0.48108 0.7228 0.5251 0.0
C356 C 0.51947 0.7149 0.48206 0.0
C357 C 0.55732 0.69386 0.52277 0.0
C358 C 0.6012 0.72221 0.53015 0.0
C359 C 0.63495 0.70092 0.5414 0.0
C360 C 0.62335 0.64997 0.54606 0.0
C361 C 0.57798 0.62011 0.54006 0.0
C362 C 0.54474 0.64247 0.52777 0.0
H363 H 0.86837 0.46819 0.79547 0.0
H364 H 0.80926 0.35228 0.84647 0.0
H365 H 0.87986 0.37655 0.87475 0.0
H366 H 0.99992 0.48758 0.81402 0.0
H367 H 1.00492 0.5536 0.81294 0.0
H368 H 0.96532 0.51133 0.79072 0.0
H369 H 0.89916 0.55256 0.80637 0.0
H370 H 0.9368 0.59199 0.83016 0.0
H371 H 0.88383 0.55072 0.83997 0.0
H372 H 0.94242 0.43132 0.90439 0.0
H373 H 1.00109 0.49849 0.92708 0.0
H374 H 1.00072 0.58995 0.86105 0.0
C375 C 0.87105 0.44567 0.8117 0.0
C376 C 0.83129 0.41248 0.82068 0.0
C377 C 0.83831 0.38082 0.84041 0.0
C378 C 0.87811 0.39497 0.85689 0.0
C379 C 0.91118 0.43806 0.85167 0.0
C380 C 0.90879 0.46214 0.82896 0.0
C381 C 0.94062 0.51355 0.83032 0.0
C382 C 0.98005 0.51668 0.81085 0.0
C383 C 0.91344 0.55452 0.8265 0.0
C384 C 0.95931 0.51563 0.85767 0.0
C385 C 0.94338 0.47149 0.86949 0.0
C386 C 0.95595 0.46566 0.89504 0.0
C387 C 0.98851 0.50469 0.90803 0.0
C388 C 1.00658 0.54962 0.89569 0.0
C389 C 0.98927 0.55563 0.87076 0.0
H390 H 0.29928 0.78069 0.21517 0.0
H391 H 0.33932 0.76942 0.13512 0.0
H392 H 0.41345 0.83079 0.14546 0.0
H393 H 0.34045 0.90974 0.22503 0.0
H394 H 0.36158 0.90784 0.2578 0.0
H395 H 0.31386 0.85946 0.24477 0.0
H396 H 0.35991 0.79308 0.2558 0.0
H397 H 0.40783 0.84134 0.26892 0.0
H398 H 0.418 0.79814 0.24373 0.0
H399 H 0.48205 0.89495 0.16429 0.0
H400 H 0.53945 0.95852 0.18964 0.0
H401 H 0.45066 0.93388 0.25652 0.0
C402 C 0.32368 0.79102 0.19982 0.0
C403 C 0.3135 0.77016 0.17433 0.0
C404 C 0.34664 0.78429 0.15486 0.0
C405 C 0.38875 0.81928 0.16053 0.0
C406 C 0.39729 0.83965 0.18576 0.0
C407 C 0.36578 0.82594 0.20511 0.0
C408 C 0.38266 0.85474 0.23041 0.0
C409 C 0.34755 0.88473 0.24005 0.0
C410 C 0.39269 0.81974 0.25093 0.0
C411 C 0.42757 0.88832 0.22198 0.0
C412 C 0.43588 0.8782 0.19633 0.0
C413 C 0.47567 0.90355 0.18434 0.0
C414 C 0.50783 0.9403 0.19894 0.0
C415 C 0.4996 0.95257 0.22519 0.0
C416 C 0.45869 0.92575 0.23669 0.0
H417 H 0.60022 0.21615 0.50607 0.0
H418 H 0.47847 0.15203 0.55019 0.0
H419 H 0.46407 0.2349 0.55906 0.0
H420 H 0.64201 0.3263 0.54525 0.0
H421 H 0.6573 0.36767 0.51924 0.0
H422 H 0.65703 0.30277 0.51421 0.0
H423 H 0.59968 0.2963 0.47507 0.0
H424 H 0.59947 0.36123 0.48014 0.0
H425 H 0.54516 0.31492 0.47927 0.0
H426 H 0.46235 0.32309 0.56485 0.0
H427 H 0.47802 0.4139 0.571 0.0
H428 H 0.60212 0.42797 0.52489 0.0
C429 C 0.5704 0.21961 0.51746 0.0
C430 C 0.54042 0.17666 0.52731 0.0
C431 C 0.50186 0.18344 0.54212 0.0
C432 C 0.4932 0.23071 0.54728 0.0
C433 C 0.52292 0.27187 0.53735 0.0
C434 C 0.56078 0.26724 0.52271 0.0
C435 C 0.5873 0.31877 0.51504 0.0
C436 C 0.63898 0.3295 0.52399 0.0
C437 C 0.58266 0.32305 0.48564 0.0
C438 C 0.56063 0.3529 0.52949 0.0
C439 C 0.52258 0.32431 0.5413 0.0
C440 C 0.49203 0.34583 0.55569 0.0
C441 C 0.50124 0.39773 0.55903 0.0
C442 C 0.54136 0.42865 0.54863 0.0
C443 C 0.57092 0.40573 0.53296 0.0
H444 H 0.35513 0.58466 0.83823 0.0
H445 H 0.29879 0.61123 0.76381 0.0
H446 H 0.24018 0.64966 0.78595 0.0
H447 H 0.24928 0.53842 0.86188 0.0
H448 H 0.26304 0.56027 0.89508 0.0
H449 H 0.30863 0.54943 0.87445 0.0
H450 H 0.35589 0.63987 0.88381 0.0
H451 H 0.31074 0.65091 0.90497 0.0
H452 H 0.32848 0.69089 0.87867 0.0
H453 H 0.18133 0.67246 0.81586 0.0
H454 H 0.12361 0.67218 0.8501 0.0
H455 H 0.21521 0.62063 0.90381 0.0
C456 C 0.33187 0.60104 0.82674 0.0
C457 C 0.33186 0.59701 0.79955 0.0
C458 C 0.2997 0.61575 0.78473 0.0
C459 C 0.26655 0.63746 0.79716 0.0
C460 C 0.26618 0.63917 0.82421 0.0
C461 C 0.29803 0.62115 0.83879 0.0
C462 C 0.28491 0.61746 0.86684 0.0
C463 C 0.2759 0.56321 0.87501 0.0
C464 C 0.32225 0.65187 0.88461 0.0
C465 C 0.24035 0.63578 0.86581 0.0
C466 C 0.23054 0.64909 0.84126 0.0
C467 C 0.18911 0.66316 0.83528 0.0
C468 C 0.15654 0.66274 0.8548 0.0
C469 C 0.16524 0.64719 0.87976 0.0
C470 C 0.2082 0.63468 0.88533 0.0
H471 H 0.83758 0.26619 0.21848 0.0
H472 H 0.82953 0.2084 0.13868 0.0
H473 H 0.7511 0.15635 0.14585 0.0
H474 H 0.78631 0.15606 0.24561 0.0
H475 H 0.7537 0.18226 0.26956 0.0
H476 H 0.80672 0.21972 0.25759 0.0
H477 H 0.76186 0.28552 0.24402 0.0
H478 H 0.70862 0.24845 0.25618 0.0
H479 H 0.7104 0.26677 0.22316 0.0
H480 H 0.6815 0.10109 0.1634 0.0
H481 H 0.62105 0.0508 0.18859 0.0
H482 H 0.66713 0.15107 0.25623 0.0
C483 C 0.81874 0.24369 0.20231 0.0
C484 C 0.83984 0.24103 0.17806 0.0
C485 C 0.81439 0.21038 0.15753 0.0
C486 C 0.76967 0.181 0.16135 0.0
C487 C 0.75054 0.18325 0.18571 0.0
C488 C 0.77381 0.21436 0.20574 0.0
C489 C 0.74644 0.20724 0.23043 0.0
C490 C 0.775 0.19032 0.25207 0.0
C491 C 0.7309 0.25483 0.23894 0.0
C492 C 0.70498 0.16609 0.22133 0.0
C493 C 0.70821 0.15294 0.19548 0.0
C494 C 0.67744 0.11225 0.1834 0.0
C495 C 0.64249 0.08406 0.19808 0.0
C496 C 0.63731 0.09708 0.22467 0.0
C497 C 0.66909 0.13943 0.23614 0.0
H498 H 1.06364 0.55108 0.08711 0.0
H499 H 0.14971 0.4447 0.07262 0.0
H500 H 0.17368 0.4825 0.03134 0.0
H501 H 1.01828 0.54739 0.02585 0.0
H502 H 1.01865 0.61258 0.0251 0.0
H503 H 1.01507 0.5833 0.05549 0.0
H504 H 0.0887 0.64835 0.07286 0.0
H505 H 0.09262 0.67796 0.04238 0.0
H506 H 0.14202 0.65712 0.05509 0.0
H507 H 0.18168 0.52475 0.99058 0.0
H508 H 0.16694 0.56322 0.95024 0.0
H509 H 0.07312 0.64012 0.99001 0.0
C510 C 0.08821 0.53648 0.07541 0.0
C511 C 0.10511 0.49536 0.08285 0.0
C512 C 0.13661 0.47645 0.06711 0.0
C513 C 0.15077 0.49794 0.04383 0.0
C514 C 0.13332 0.53842 0.03689 0.0
C515 C 0.10259 0.55742 0.05211 0.0
C516 C 0.08488 0.59735 0.03882 0.0
C517 C 1.03105 0.58432 0.03615 0.0
C518 C 0.10314 0.64822 0.05314 0.0
C519 C 0.10769 0.59513 0.01297 0.0
C520 C 0.13702 0.56236 0.01273 0.0
C521 C 0.15977 0.55139 0.99063 0.0
C522 C 0.15134 0.57349 0.96791 0.0
C523 C 0.11973 0.6052 0.96748 0.0
C524 C 0.09829 0.61693 0.99028 0.0
H525 H 0.52801 0.07628 0.4299 0.0
H526 H 0.5889 0.95161 0.44617 0.0
H527 H 0.60879 0.9438 0.40026 0.0
H528 H 0.47751 0.03376 0.36845 0.0
H529 H 0.49263 0.09307 0.35391 0.0
H530 H 0.48488 0.09052 0.38828 0.0
H531 H 0.56809 0.14645 0.3964 0.0
H532 H 0.57601 0.149 0.36198 0.0
H533 H 0.61755 0.12798 0.38213 0.0
H534 H 0.61528 0.94397 0.3522 0.0
H535 H 0.61214 0.95578 0.30509 0.0
H536 H 0.55287 0.08394 0.31958 0.0
C537 C 0.5457 0.04754 0.42372 0.0
C538 C 0.55651 0.01418 0.44151 0.0
C539 C 0.58023 0.97748 0.43286 0.0
C540 C 0.59173 0.97278 0.40682 0.0
C541 C 0.58037 1.00588 0.3897 0.0
C542 C 0.55859 0.04313 0.39779 0.0
C543 C 0.5506 0.07385 0.37526 0.0
C544 C 0.49829 0.07269 0.37125 0.0
C545 C 0.5798 0.1275 0.37918 0.0
C546 C 0.5689 0.04631 0.35312 0.0
C547 C 0.58631 1.00749 0.36197 0.0
C548 C 0.6026 0.97481 0.34508 0.0
C549 C 0.60072 0.9817 0.31843 0.0
C550 C 0.58305 0.02112 0.30898 0.0
C551 C 0.56744 0.05416 0.32653 0.0
H552 H 0.5589 0.47572 0.74948 0.0
H553 H 0.59626 0.63564 0.76522 0.0
H554 H 0.58759 0.64865 0.71915 0.0
H555 H 0.62032 0.47587 0.69108 0.0
H556 H 0.57757 0.42766 0.67373 0.0
H557 H 0.58191 0.42889 0.70853 0.0
H558 H 0.49413 0.42999 0.71133 0.0
H559 H 0.48948 0.42819 0.6765 0.0
H560 H 0.47228 0.47713 0.69542 0.0
H561 H 0.58928 0.64603 0.67221 0.0
H562 H 0.58851 0.62921 0.62608 0.0
H563 H 0.53824 0.47063 0.6375 0.0
C564 C 0.56398 0.51331 0.74319 0.0
C565 C 0.57817 0.55474 0.7611 0.0
C566 C 0.58531 0.60335 0.75204 0.0
C567 C 0.5806 0.61123 0.7258 0.0
C568 C 0.56833 0.57013 0.70855 0.0
C569 C 0.55916 0.52205 0.71666 0.0
C570 C 0.54816 0.48512 0.69331 0.0
C571 C 0.58413 0.45245 0.69157 0.0
C572 C 0.49801 0.45322 0.6942 0.0
C573 C 0.55331 0.52029 0.67112 0.0
C574 C 0.56561 0.56894 0.68061 0.0
C575 C 0.57755 0.60815 0.66441 0.0
C576 C 0.57613 0.59777 0.6377 0.0
C577 C 0.56086 0.54837 0.62671 0.0
C578 C 0.54953 0.50911 0.64419 0.0
H579 H 0.53195 0.96789 0.60188 0.0
H580 H 0.63823 0.10284 0.59301 0.0
H581 H 0.64983 0.11399 0.64048 0.0
H582 H 0.48329 0.01331 0.66246 0.0
H583 H 0.47232 0.95303 0.67603 0.0
H584 H 0.46961 0.95781 0.64145 0.0
H585 H 0.53028 0.90341 0.63649 0.0
H586 H 0.53404 0.89942 0.67108 0.0
H587 H 0.58623 0.92258 0.65337 0.0
H588 H 0.65729 0.10543 0.68722 0.0
H589 H 0.65066 0.08682 0.73315 0.0
H590 H 0.53594 0.95978 0.71386 0.0
C591 C 0.55659 1.00042 0.61015 0.0
C592 C 0.58398 0.03499 0.59411 0.0
C593 C 0.61669 0.07655 0.60522 0.0
C594 C 0.62368 0.08292 0.63207 0.0
C595 C 0.5974 0.04747 0.64745 0.0
C596 C 0.56366 1.00767 0.63712 0.0
C597 C 0.54077 0.97504 0.65836 0.0
C598 C 0.48839 0.97481 0.65966 0.0
C599 C 0.5483 0.92197 0.65459 0.0
C600 C 0.5679 1.00217 0.68208 0.0
C601 C 0.60056 0.04356 0.67509 0.0
C602 C 0.63122 0.07378 0.69306 0.0
C603 C 0.62727 0.06276 0.71909 0.0
C604 C 0.59234 0.02236 0.72715 0.0
C605 C 0.56296 0.99087 0.70827 0.0
H606 H 0.5106 0.44869 0.92469 0.0
H607 H 0.62785 0.57107 0.91123 0.0
H608 H 0.64659 0.58099 0.95836 0.0
H609 H 0.47327 0.49365 0.98412 0.0
H610 H 0.46115 0.43462 -0.00096 0.0
H611 H 0.45726 0.43662 0.96435 0.0
H612 H 0.51635 0.38024 0.95948 0.0
H613 H 0.52007 0.37772 0.99418 0.0
H614 H 0.57245 0.39833 0.97624 0.0
H615 H 0.65066 0.57942 0.00753 0.0
H616 H 0.64328 0.56362 0.05399 0.0
H617 H 0.52494 0.43992 0.0362 0.0
C618 C 0.54031 0.4775 0.93168 0.0
C619 C 0.56762 0.50938 0.91417 0.0
C620 C 0.60653 0.54615 0.92414 0.0
C621 C 0.61731 0.55212 0.95094 0.0
C622 C 0.58949 0.52037 0.96769 0.0
C623 C 0.55223 0.4832 0.95838 0.0
C624 C 0.52896 0.45293 0.98045 0.0
C625 C 0.47707 0.45458 0.98208 0.0
C626 C 0.53479 0.39911 0.9774 0.0
C627 C 0.55739 0.48026 0.00378 0.0
C628 C 0.59248 0.51872 0.99589 0.0
C629 C 0.62354 0.5491 0.01378 0.0
C630 C 0.61912 0.53969 0.04023 0.0
C631 C 0.58379 0.50024 0.04897 0.0
C632 C 0.55223 0.47045 0.03031 0.0
H633 H 0.09817 0.57231 0.24567 0.0
H634 H 1.04994 0.41652 0.22223 0.0
H635 H 1.04141 0.39554 0.26802 0.0
H636 H 0.16463 0.55035 0.30353 0.0
H637 H 0.15113 0.60183 0.32205 0.0
H638 H 0.15558 0.6039 0.28741 0.0
H639 H 0.07196 0.61982 0.28406 0.0
H640 H 0.06738 0.61769 0.31863 0.0
H641 H 1.02385 0.57693 0.29779 0.0
H642 H 1.03695 0.39224 0.3168 0.0
H643 H 1.03789 0.4064 0.36414 0.0
H644 H 0.08426 0.56555 0.35511 0.0
C645 C 0.0862 0.53375 0.25025 0.0
C646 C 0.07524 0.49577 0.23044 0.0
C647 C 1.05966 0.44585 0.23707 0.0
C648 C 1.05437 0.43371 0.26307 0.0
C649 C 0.06543 0.47201 0.2822 0.0
C650 C 0.08145 0.521 0.2761 0.0
C651 C 0.09108 0.55514 0.30027 0.0
C652 C 0.14372 0.57923 0.3035 0.0
C653 C 1.06178 0.5947 0.30017 0.0
C654 C 0.07557 0.51804 0.32078 0.0
C655 C 1.06185 0.47019 0.31008 0.0
C656 C 1.04745 0.42966 0.32539 0.0
C657 C 1.04758 0.43825 0.35237 0.0
C658 C 1.06114 0.4872 0.36386 0.0
C659 C 0.0747 0.52742 0.34749 0.0
loop_
_geom_bond_atom_site_label_1
_geom_bond_atom_site_label_2
_geom_bond_distance
_geom_bond_site_symmetry_2
_ccdc_geom_bond_type
Nd0 C2 2.836 . S
Nd0 O20 2.500 . S
Nd0 O21 2.492 . S
Nd0 O22 2.487 . S
Nd0 O23 2.682 . S
Nd0 O24 2.410 . S
Nd0 O29 2.414 . S
Nd0 O31 2.424 1_455 S
Nd1 C11 2.836 . S
Nd1 O23 2.414 1_655 S
Nd1 O25 2.424 1_655 S
Nd1 O26 2.500 . S
Nd1 O27 2.492 . S
Nd1 O28 2.487 . S
Nd1 O29 2.682 1_655 S
Nd1 O30 2.410 . S
C2 Nd0 2.836 . S
C2 C3 1.498 . S
C2 O20 1.258 . S
C2 O21 1.239 . S
C3 C2 1.498 . S
C3 C4 1.366 . S
C3 C8 1.407 . S
C4 C3 1.366 . S
C4 C5 1.392 . S
C4 H32 0.930 . S
C5 C4 1.392 . S
C5 C6 1.398 . S
C5 H33 0.929 . S
C6 C5 1.398 . S
C6 C7 1.352 . S
C7 C6 1.352 . S
C7 C8 1.384 . S
C7 H34 0.930 . S
C8 C3 1.407 . S
C8 C7 1.384 . S
C8 H35 0.929 . S
C9 O22 1.241 . S
C9 O23 1.273 . S
C10 O24 1.251 . S
C10 O25 1.268 . S
C11 Nd1 2.836 . S
C11 C12 1.498 . S
C11 O26 1.258 . S
C11 O27 1.239 . S
C12 C11 1.498 . S
C12 C13 1.366 . S
C12 C17 1.407 . S
C13 C12 1.366 . S
C13 C14 1.392 . S
C13 H36 0.930 . S
C14 C13 1.392 . S
C14 C15 1.398 . S
C14 H37 0.929 . S
C15 C14 1.398 . S
C15 C16 1.352 . S
C16 C15 1.352 . S
C16 C17 1.384 . S
C16 H38 0.930 . S
C17 C12 1.407 . S
C17 C16 1.384 . S
C17 H39 0.929 . S
C18 O28 1.241 1_455 S
C18 O29 1.273 . S
C19 O30 1.251 . S
C19 O31 1.268 . S
O20 Nd0 2.500 . S
O20 C2 1.258 . S
O21 Nd0 2.492 . S
O21 C2 1.239 . S
O22 Nd0 2.487 . S
O22 C9 1.241 . S
O23 Nd0 2.682 . S
O23 Nd1 2.414 1_455 S
O23 C9 1.273 . S
O24 Nd0 2.410 . S
O24 C10 1.251 . S
O25 Nd1 2.424 1_455 S
O25 C10 1.268 . S
O26 Nd1 2.500 . S
O26 C11 1.258 . S
O27 Nd1 2.492 . S
O27 C11 1.239 . S
O28 Nd1 2.487 . S
O28 C18 1.241 1_655 S
O29 Nd0 2.414 . S
O29 Nd1 2.682 1_455 S
O29 C18 1.273 . S
O30 Nd1 2.410 . S
O30 C19 1.251 . S
O31 Nd0 2.424 1_655 S
O31 C19 1.268 . S
H32 C4 0.930 . S
H33 C5 0.929 . S
H34 C7 0.930 . S
H35 C8 0.929 . S
H36 C13 0.930 . S
H37 C14 0.929 . S
H38 C16 0.930 . S
H39 C17 0.929 . S
Nd40 C42 2.841 . S
Nd40 O60 2.505 . S
Nd40 O61 2.496 . S
Nd40 O62 2.487 . S
Nd40 O63 2.681 1_565 S
Nd40 O64 2.416 . S
Nd40 O69 2.415 1_565 S
Nd40 O71 2.417 1_565 S
Nd41 C51 2.836 . S
Nd41 O63 2.414 . S
Nd41 O65 2.424 1_545 S
Nd41 O66 2.500 . S
Nd41 O67 2.492 . S
Nd41 O68 2.487 . S
Nd41 O69 2.682 . S
Nd41 O70 2.410 . S
C42 Nd40 2.841 . S
C42 C43 1.498 . S
C42 O60 1.258 . S
C42 O61 1.239 . S
C43 C42 1.498 . S
C43 C44 1.366 . S
C43 C48 1.407 . S
C44 C43 1.366 . S
C44 C45 1.392 . S
C44 H72 0.930 . S
C45 C44 1.392 . S
C45 C46 1.398 . S
C45 H73 0.929 . S
C46 C45 1.398 . S
C46 C47 1.352 . S
C47 C46 1.352 . S
C47 C48 1.384 . S
C47 H74 0.930 . S
C48 C43 1.407 . S
C48 C47 1.384 . S
C48 H75 0.929 . S
C49 O62 1.241 1_545 S
C49 O63 1.273 . S
C50 O64 1.251 . S
C50 O65 1.268 . S
C51 Nd41 2.836 . S
C51 C52 1.498 . S
C51 O66 1.258 . S
C51 O67 1.239 . S
C52 C51 1.498 . S
C52 C53 1.366 . S
C52 C57 1.407 . S
C53 C52 1.366 . S
C53 C54 1.392 . S
C53 H76 0.930 . S
C54 C53 1.392 . S
C54 C55 1.398 . S
C54 H77 0.929 . S
C55 C54 1.398 . S
C55 C56 1.352 . S
C56 C55 1.352 . S
C56 C57 1.384 . S
C56 H78 0.930 . S
C57 C52 1.407 . S
C57 C56 1.384 . S
C57 H79 0.929 . S
C58 O68 1.241 . S
C58 O69 1.273 . S
C59 O70 1.251 . S
C59 O71 1.268 . S
O60 Nd40 2.505 . S
O60 C42 1.258 . S
O61 Nd40 2.496 . S
O61 C42 1.239 . S
O62 Nd40 2.487 . S
O62 C49 1.241 1_565 S
O63 Nd40 2.681 1_545 S
O63 Nd41 2.414 . S
O63 C49 1.273 . S
O64 Nd40 2.416 . S
O64 C50 1.251 . S
O65 Nd41 2.424 1_565 S
O65 C50 1.268 . S
O66 Nd41 2.500 . S
O66 C51 1.258 . S
O67 Nd41 2.492 . S
O67 C51 1.239 . S
O68 Nd41 2.487 . S
O68 C58 1.241 . S
O69 Nd40 2.415 1_545 S
O69 Nd41 2.682 . S
O69 C58 1.273 . S
O70 Nd41 2.410 . S
O70 C59 1.251 . S
O71 Nd40 2.417 1_545 S
O71 C59 1.268 . S
H72 C44 0.930 . S
H73 C45 0.929 . S
H74 C47 0.930 . S
H75 C48 0.929 . S
H76 C53 0.930 . S
H77 C54 0.929 . S
H78 C56 0.930 . S
H79 C57 0.929 . S
Nd80 C82 2.836 . S
Nd80 O100 2.500 . S
Nd80 O101 2.492 . S
Nd80 O102 2.487 . S
Nd80 O103 2.682 . S
Nd80 O104 2.410 . S
Nd80 O109 2.414 . S
Nd80 O111 2.424 . S
Nd81 C91 2.836 . S
Nd81 O103 2.414 . S
Nd81 O105 2.424 . S
Nd81 O106 2.500 . S
Nd81 O107 2.492 . S
Nd81 O108 2.487 . S
Nd81 O109 2.682 . S
Nd81 O110 2.410 . S
C82 Nd80 2.836 . S
C82 C83 1.498 . S
C82 O100 1.258 . S
C82 O101 1.239 . S
C83 C82 1.498 . S
C83 C84 1.366 . S
C83 C88 1.407 . S
C84 C83 1.366 . S
C84 C85 1.392 . S
C84 H112 0.930 . S
C85 C84 1.392 . S
C85 C86 1.398 . S
C85 H113 0.929 . S
C86 C85 1.398 . S
C86 C87 1.352 . S
C87 C86 1.352 . S
C87 C88 1.384 . S
C87 H114 0.930 . S
C88 C83 1.407 . S
C88 C87 1.384 . S
C88 H115 0.929 . S
C89 O102 1.241 . S
C89 O103 1.273 . S
C90 O104 1.251 . S
C90 O105 1.268 . S
C91 Nd81 2.836 . S
C91 C92 1.498 . S
C91 O106 1.258 . S
C91 O107 1.239 . S
C92 C91 1.498 . S
C92 C93 1.366 . S
C92 C97 1.407 . S
C93 C92 1.366 . S
C93 C94 1.392 . S
C93 H116 0.930 . S
C94 C93 1.392 . S
C94 C95 1.398 . S
C94 H117 0.929 . S
C95 C94 1.398 . S
C95 C96 1.352 . S
C96 C95 1.352 . S
C96 C97 1.384 . S
C96 H118 0.930 . S
C97 C92 1.407 . S
C97 C96 1.384 . S
C97 H119 0.929 . S
C98 O108 1.241 . S
C98 O109 1.273 . S
C99 O110 1.251 . S
C99 O111 1.268 . S
O100 Nd80 2.500 . S
O100 C82 1.258 . S
O101 Nd80 2.492 . S
O101 C82 1.239 . S
O102 Nd80 2.487 . S
O102 C89 1.241 . S
O103 Nd80 2.682 . S
O103 Nd81 2.414 . S
O103 C89 1.273 . S
O104 Nd80 2.410 . S
O104 C90 1.251 . S
O105 Nd81 2.424 . S
O105 C90 1.268 . S
O106 Nd81 2.500 . S
O106 C91 1.258 . S
O107 Nd81 2.492 . S
O107 C91 1.239 . S
O108 Nd81 2.487 . S
O108 C98 1.241 . S
O109 Nd80 2.414 . S
O109 Nd81 2.682 . S
O109 C98 1.273 . S
O110 Nd81 2.410 . S
O110 C99 1.251 . S
O111 Nd80 2.424 . S
O111 C99 1.268 . S
H112 C84 0.930 . S
H113 C85 0.929 . S
H114 C87 0.930 . S
H115 C88 0.929 . S
H116 C93 0.930 . S
H117 C94 0.929 . S
H118 C96 0.930 . S
H119 C97 0.929 . S
H120 C123 0.931 . S
H121 C126 0.928 . S
H122 C128 0.930 . S
C123 H120 0.931 . S
C123 C124 1.413 . S
C123 C125 1.360 1_565 S
C124 C123 1.413 . S
C124 C128 1.429 1_565 S
C125 C123 1.360 1_545 S
C125 C126 1.372 . S
C126 H121 0.928 . S
C126 C125 1.372 . S
C126 C127 1.404 . S
C127 C126 1.404 . S
C127 C128 1.391 . S
C128 H122 0.930 . S
C128 C124 1.429 1_545 S
C128 C127 1.391 . S
H129 C132 0.931 . S
H130 C135 0.928 . S
H131 C137 0.930 . S
C132 H129 0.931 . S
C132 C133 1.413 . S
C132 C134 1.360 . S
C133 C132 1.413 . S
C133 C137 1.429 . S
C134 C132 1.360 . S
C134 C135 1.372 . S
C135 H130 0.928 . S
C135 C134 1.372 . S
C135 C136 1.404 . S
C136 C135 1.404 . S
C136 C137 1.391 . S
C137 H131 0.930 . S
C137 C133 1.429 . S
C137 C136 1.391 . S
H138 C141 0.931 . S
H139 C144 0.928 . S
H140 C146 0.930 . S
C141 H138 0.931 . S
C141 C142 1.413 . S
C141 C143 1.360 1_655 S
C142 C141 1.413 . S
C142 C146 1.429 1_655 S
C143 C141 1.360 1_455 S
C143 C144 1.372 . S
C144 H139 0.928 . S
C144 C143 1.372 . S
C144 C145 1.404 . S
C145 C144 1.404 . S
C145 C146 1.391 . S
C146 H140 0.930 . S
C146 C142 1.429 1_455 S
C146 C145 1.391 . S
H147 C150 0.931 . S
H148 C153 0.928 . S
H149 C155 0.930 . S
C150 H147 0.931 . S
C150 C151 1.413 . S
C150 C152 1.344 1_655 S
C151 C150 1.413 . S
C151 C155 1.416 1_655 S
C152 C150 1.344 1_455 S
C152 C153 1.387 . S
C153 H148 0.928 . S
C153 C152 1.387 . S
C153 C154 1.404 . S
C154 C153 1.404 . S
C154 C155 1.406 . S
C155 H149 0.930 . S
C155 C151 1.416 1_455 S
C155 C154 1.406 . S
H156 C159 0.931 . S
H157 C162 0.928 . S
H158 C164 0.930 . S
C159 H156 0.931 . S
C159 C160 1.413 . S
C159 C161 1.360 . S
C160 C159 1.413 . S
C160 C164 1.429 . S
C161 C159 1.360 . S
C161 C162 1.372 1_545 S
C162 H157 0.928 . S
C162 C161 1.372 1_565 S
C162 C163 1.404 . S
C163 C162 1.404 . S
C163 C164 1.391 1_565 S
C164 H158 0.930 . S
C164 C160 1.429 . S
C164 C163 1.391 1_545 S
H165 C168 0.931 . S
H166 C171 0.928 . S
H167 C173 0.930 . S
C168 H165 0.931 . S
C168 C169 1.413 . S
C168 C170 1.360 . S
C169 C168 1.413 . S
C169 C173 1.429 . S
C170 C168 1.360 . S
C170 C171 1.372 . S
C171 H166 0.928 . S
C171 C170 1.372 . S
C171 C172 1.404 . S
C172 C171 1.404 . S
C172 C173 1.391 . S
C173 H167 0.930 . S
C173 C169 1.429 . S
C173 C172 1.391 . S
H174 C186 0.930 . S
H175 C188 0.930 . S
H176 C189 0.930 . S
H177 C193 0.959 . S
H178 C193 0.959 . S
H179 C193 0.961 . S
H180 C194 0.960 . S
H181 C194 0.961 . S
H182 C194 0.959 . S
H183 C197 0.929 . S
H184 C198 0.931 . S
H185 C200 0.930 . S
C186 H174 0.930 . S
C186 C187 1.399 . S
C186 C191 1.399 . S
C187 C186 1.399 . S
C187 C188 1.376 . S
C188 H175 0.930 . S
C188 C187 1.376 . S
C188 C189 1.388 . S
C189 H176 0.930 . S
C189 C188 1.388 . S
C189 C190 1.390 . S
C190 C189 1.390 . S
C190 C191 1.394 . S
C190 C196 1.465 . S
C191 C186 1.399 . S
C191 C190 1.394 . S
C191 C192 1.516 . S
C192 C191 1.516 . S
C192 C193 1.502 . S
C192 C194 1.561 . S
C192 C195 1.526 . S
C193 H177 0.959 . S
C193 H178 0.959 . S
C193 H179 0.961 . S
C193 C192 1.502 . S
C194 H180 0.960 . S
C194 H181 0.961 . S
C194 H182 0.959 . S
C194 C192 1.561 . S
C195 C192 1.526 . S
C195 C196 1.396 . S
C195 C200 1.390 . S
C196 C190 1.465 . S
C196 C195 1.396 . S
C196 C197 1.399 . S
C197 H183 0.929 . S
C197 C196 1.399 . S
C197 C198 1.385 . S
C198 H184 0.931 . S
C198 C197 1.385 . S
C198 C199 1.389 . S
C199 C198 1.389 . S
C199 C200 1.387 . S
C200 H185 0.930 . S
C200 C195 1.390 . S
C200 C199 1.387 . S
H201 C213 0.930 . S
H202 C215 0.930 . S
H203 C216 0.930 . S
H204 C220 0.959 . S
H205 C220 0.959 . S
H206 C220 0.961 . S
H207 C221 0.960 . S
H208 C221 0.961 . S
H209 C221 0.959 . S
H210 C224 0.929 . S
H211 C225 0.931 . S
H212 C227 0.930 . S
C213 H201 0.930 . S
C213 C214 1.399 . S
C213 C218 1.399 . S
C214 C213 1.399 . S
C214 C215 1.376 . S
C215 H202 0.930 . S
C215 C214 1.376 . S
C215 C216 1.388 . S
C216 H203 0.930 . S
C216 C215 1.388 . S
C216 C217 1.390 . S
C217 C216 1.390 . S
C217 C218 1.394 . S
C217 C223 1.465 . S
C218 C213 1.399 . S
C218 C217 1.394 . S
C218 C219 1.516 . S
C219 C218 1.516 . S
C219 C220 1.502 . S
C219 C221 1.561 . S
C219 C222 1.526 . S
C220 H204 0.959 . S
C220 H205 0.959 . S
C220 H206 0.961 . S
C220 C219 1.502 . S
C221 H207 0.960 . S
C221 H208 0.961 . S
C221 H209 0.959 . S
C221 C219 1.561 . S
C222 C219 1.526 . S
C222 C223 1.396 . S
C222 C227 1.390 . S
C223 C217 1.465 . S
C223 C222 1.396 . S
C223 C224 1.399 . S
C224 H210 0.929 . S
C224 C223 1.399 . S
C224 C225 1.385 . S
C225 H211 0.931 . S
C225 C224 1.385 . S
C225 C226 1.389 . S
C226 C225 1.389 . S
C226 C227 1.387 . S
C227 H212 0.930 . S
C227 C222 1.390 . S
C227 C226 1.387 . S
H228 C240 0.930 . S
H229 C242 0.930 . S
H230 C243 0.930 . S
H231 C247 0.959 . S
H232 C247 0.959 . S
H233 C247 0.961 . S
H234 C248 0.960 . S
H235 C248 0.961 . S
H236 C248 0.959 . S
H237 C251 0.929 . S
H238 C252 0.931 . S
H239 C254 0.930 . S
C240 H228 0.930 . S
C240 C241 1.399 . S
C240 C245 1.399 . S
C241 C240 1.399 . S
C241 C242 1.376 . S
C242 H229 0.930 . S
C242 C241 1.376 . S
C242 C243 1.388 . S
C243 H230 0.930 . S
C243 C242 1.388 . S
C243 C244 1.390 . S
C244 C243 1.390 . S
C244 C245 1.394 . S
C244 C250 1.465 . S
C245 C240 1.399 . S
C245 C244 1.394 . S
C245 C246 1.516 . S
C246 C245 1.516 . S
C246 C247 1.502 . S
C246 C248 1.561 . S
C246 C249 1.526 . S
C247 H231 0.959 . S
C247 H232 0.959 . S
C247 H233 0.961 . S
C247 C246 1.502 . S
C248 H234 0.960 . S
C248 H235 0.961 . S
C248 H236 0.959 . S
C248 C246 1.561 . S
C249 C246 1.526 . S
C249 C250 1.396 . S
C249 C254 1.390 . S
C250 C244 1.465 . S
C250 C249 1.396 . S
C250 C251 1.399 . S
C251 H237 0.929 . S
C251 C250 1.399 . S
C251 C252 1.385 . S
C252 H238 0.931 . S
C252 C251 1.385 . S
C252 C253 1.389 . S
C253 C252 1.389 . S
C253 C254 1.387 . S
C254 H239 0.930 . S
C254 C249 1.390 . S
C254 C253 1.387 . S
H255 C267 0.930 . S
H256 C269 0.930 . S
H257 C270 0.930 . S
H258 C274 0.959 . S
H259 C274 0.959 . S
H260 C274 0.961 . S
H261 C275 0.960 . S
H262 C275 0.961 . S
H263 C275 0.959 . S
H264 C278 0.929 . S
H265 C279 0.931 . S
H266 C281 0.930 . S
C267 H255 0.930 . S
C267 C268 1.399 . S
C267 C272 1.399 . S
C268 C267 1.399 . S
C268 C269 1.376 . S
C269 H256 0.930 . S
C269 C268 1.376 . S
C269 C270 1.388 . S
C270 H257 0.930 . S
C270 C269 1.388 . S
C270 C271 1.390 . S
C271 C270 1.390 . S
C271 C272 1.394 . S
C271 C277 1.465 . S
C272 C267 1.399 . S
C272 C271 1.394 . S
C272 C273 1.516 . S
C273 C272 1.516 . S
C273 C274 1.502 . S
C273 C275 1.561 . S
C273 C276 1.526 . S
C274 H258 0.959 . S
C274 H259 0.959 . S
C274 H260 0.961 . S
C274 C273 1.502 . S
C275 H261 0.960 . S
C275 H262 0.961 . S
C275 H263 0.959 . S
C275 C273 1.561 . S
C276 C273 1.526 . S
C276 C277 1.396 . S
C276 C281 1.390 . S
C277 C271 1.465 . S
C277 C276 1.396 . S
C277 C278 1.399 . S
C278 H264 0.929 . S
C278 C277 1.399 . S
C278 C279 1.385 . S
C279 H265 0.931 . S
C279 C278 1.385 . S
C279 C280 1.389 . S
C280 C279 1.389 . S
C280 C281 1.387 . S
C281 H266 0.930 . S
C281 C276 1.390 . S
C281 C280 1.387 . S
H282 C294 0.930 . S
H283 C296 0.930 . S
H284 C297 0.930 . S
H285 C301 0.959 . S
H286 C301 0.959 . S
H287 C301 0.961 . S
H288 C302 0.960 . S
H289 C302 0.961 . S
H290 C302 0.959 . S
H291 C305 0.929 . S
H292 C306 0.931 . S
H293 C308 0.930 . S
C294 H282 0.930 . S
C294 C295 1.399 . S
C294 C299 1.399 . S
C295 C294 1.399 . S
C295 C296 1.376 . S
C296 H283 0.930 . S
C296 C295 1.376 . S
C296 C297 1.388 . S
C297 H284 0.930 . S
C297 C296 1.388 . S
C297 C298 1.390 . S
C298 C297 1.390 . S
C298 C299 1.394 . S
C298 C304 1.465 . S
C299 C294 1.399 . S
C299 C298 1.394 . S
C299 C300 1.516 . S
C300 C299 1.516 . S
C300 C301 1.502 . S
C300 C302 1.561 . S
C300 C303 1.526 . S
C301 H285 0.959 . S
C301 H286 0.959 . S
C301 H287 0.961 . S
C301 C300 1.502 . S
C302 H288 0.960 . S
C302 H289 0.961 . S
C302 H290 0.959 . S
C302 C300 1.561 . S
C303 C300 1.526 . S
C303 C304 1.396 . S
C303 C308 1.390 . S
C304 C298 1.465 . S
C304 C303 1.396 . S
C304 C305 1.399 . S
C305 H291 0.929 . S
C305 C304 1.399 . S
C305 C306 1.385 . S
C306 H292 0.931 . S
C306 C305 1.385 . S
C306 C307 1.389 . S
C307 C306 1.389 . S
C307 C308 1.387 . S
C308 H293 0.930 . S
C308 C303 1.390 . S
C308 C307 1.387 . S
H309 C321 0.930 . S
H310 C323 0.930 . S
H311 C324 0.930 . S
H312 C328 0.959 . S
H313 C328 0.959 . S
H314 C328 0.961 . S
H315 C329 0.960 . S
H316 C329 0.961 . S
H317 C329 0.959 . S
H318 C332 0.929 . S
H319 C333 0.931 . S
H320 C335 0.930 . S
C321 H309 0.930 . S
C321 C322 1.399 . S
C321 C326 1.399 . S
C322 C321 1.399 . S
C322 C323 1.376 . S
C323 H310 0.930 . S
C323 C322 1.376 . S
C323 C324 1.388 . S
C324 H311 0.930 . S
C324 C323 1.388 . S
C324 C325 1.390 . S
C325 C324 1.390 . S
C325 C326 1.394 . S
C325 C331 1.465 . S
C326 C321 1.399 . S
C326 C325 1.394 . S
C326 C327 1.516 . S
C327 C326 1.516 . S
C327 C328 1.502 . S
C327 C329 1.561 . S
C327 C330 1.526 . S
C328 H312 0.959 . S
C328 H313 0.959 . S
C328 H314 0.961 . S
C328 C327 1.502 . S
C329 H315 0.960 . S
C329 H316 0.961 . S
C329 H317 0.959 . S
C329 C327 1.561 . S
C330 C327 1.526 . S
C330 C331 1.396 . S
C330 C335 1.390 . S
C331 C325 1.465 . S
C331 C330 1.396 . S
C331 C332 1.399 . S
C332 H318 0.929 . S
C332 C331 1.399 . S
C332 C333 1.385 . S
C333 H319 0.931 . S
C333 C332 1.385 . S
C333 C334 1.389 . S
C334 C333 1.389 . S
C334 C335 1.387 . S
C335 H320 0.930 . S
C335 C330 1.390 . S
C335 C334 1.387 . S
H336 C348 0.930 . S
H337 C350 0.930 . S
H338 C351 0.930 . S
H339 C355 0.959 . S
H340 C355 0.959 . S
H341 C355 0.961 . S
H342 C356 0.960 . S
H343 C356 0.961 . S
H344 C356 0.959 . S
H345 C359 0.929 . S
H346 C360 0.931 . S
H347 C362 0.930 . S
C348 H336 0.930 . S
C348 C349 1.399 . S
C348 C353 1.399 . S
C349 C348 1.399 . S
C349 C350 1.376 . S
C350 H337 0.930 . S
C350 C349 1.376 . S
C350 C351 1.388 . S
C351 H338 0.930 . S
C351 C350 1.388 . S
C351 C352 1.390 . S
C352 C351 1.390 . S
C352 C353 1.394 . S
C352 C358 1.465 . S
C353 C348 1.399 . S
C353 C352 1.394 . S
C353 C354 1.516 . S
C354 C353 1.516 . S
C354 C355 1.502 . S
C354 C356 1.561 . S
C354 C357 1.526 . S
C355 H339 0.959 . S
C355 H340 0.959 . S
C355 H341 0.961 . S
C355 C354 1.502 . S
C356 H342 0.960 . S
C356 H343 0.961 . S
C356 H344 0.959 . S
C356 C354 1.561 . S
C357 C354 1.526 . S
C357 C358 1.396 . S
C357 C362 1.390 . S
C358 C352 1.465 . S
C358 C357 1.396 . S
C358 C359 1.399 . S
C359 H345 0.929 . S
C359 C358 1.399 . S
C359 C360 1.385 . S
C360 H346 0.931 . S
C360 C359 1.385 . S
C360 C361 1.389 . S
C361 C360 1.389 . S
C361 C362 1.387 . S
C362 H347 0.930 . S
C362 C357 1.390 . S
C362 C361 1.387 . S
H363 C375 0.930 . S
H364 C377 0.930 . S
H365 C378 0.930 . S
H366 C382 0.959 . S
H367 C382 0.959 . S
H368 C382 0.961 . S
H369 C383 0.960 . S
H370 C383 0.961 . S
H371 C383 0.959 . S
H372 C386 0.929 . S
H373 C387 0.931 . S
H374 C389 0.930 . S
C375 H363 0.930 . S
C375 C376 1.399 . S
C375 C380 1.399 . S
C376 C375 1.399 . S
C376 C377 1.376 . S
C377 H364 0.930 . S
C377 C376 1.376 . S
C377 C378 1.388 . S
C378 H365 0.930 . S
C378 C377 1.388 . S
C378 C379 1.390 . S
C379 C378 1.390 . S
C379 C380 1.394 . S
C379 C385 1.465 . S
C380 C375 1.399 . S
C380 C379 1.394 . S
C380 C381 1.516 . S
C381 C380 1.516 . S
C381 C382 1.502 . S
C381 C383 1.561 . S
C381 C384 1.526 . S
C382 H366 0.959 . S
C382 H367 0.959 . S
C382 H368 0.961 . S
C382 C381 1.502 . S
C383 H369 0.960 . S
C383 H370 0.961 . S
C383 H371 0.959 . S
C383 C381 1.561 . S
C384 C381 1.526 . S
C384 C385 1.396 . S
C384 C389 1.390 . S
C385 C379 1.465 . S
C385 C384 1.396 . S
C385 C386 1.399 . S
C386 H372 0.929 . S
C386 C385 1.399 . S
C386 C387 1.385 . S
C387 H373 0.931 . S
C387 C386 1.385 . S
C387 C388 1.389 . S
C388 C387 1.389 . S
C388 C389 1.387 . S
C389 H374 0.930 . S
C389 C384 1.390 . S
C389 C388 1.387 . S
H390 C402 0.930 . S
H391 C404 0.930 . S
H392 C405 0.930 . S
H393 C409 0.959 . S
H394 C409 0.959 . S
H395 C409 0.961 . S
H396 C410 0.960 . S
H397 C410 0.961 . S
H398 C410 0.959 . S
H399 C413 0.929 . S
H400 C414 0.931 . S
H401 C416 0.930 . S
C402 H390 0.930 . S
C402 C403 1.399 . S
C402 C407 1.399 . S
C403 C402 1.399 . S
C403 C404 1.376 . S
C404 H391 0.930 . S
C404 C403 1.376 . S
C404 C405 1.388 . S
C405 H392 0.930 . S
C405 C404 1.388 . S
C405 C406 1.390 . S
C406 C405 1.390 . S
C406 C407 1.394 . S
C406 C412 1.465 . S
C407 C402 1.399 . S
C407 C406 1.394 . S
C407 C408 1.516 . S
C408 C407 1.516 . S
C408 C409 1.502 . S
C408 C410 1.561 . S
C408 C411 1.526 . S
C409 H393 0.959 . S
C409 H394 0.959 . S
C409 H395 0.961 . S
C409 C408 1.502 . S
C410 H396 0.960 . S
C410 H397 0.961 . S
C410 H398 0.959 . S
C410 C408 1.561 . S
C411 C408 1.526 . S
C411 C412 1.396 . S
C411 C416 1.390 . S
C412 C406 1.465 . S
C412 C411 1.396 . S
C412 C413 1.399 . S
C413 H399 0.929 . S
C413 C412 1.399 . S
C413 C414 1.385 . S
C414 H400 0.931 . S
C414 C413 1.385 . S
C414 C415 1.389 . S
C415 C414 1.389 . S
C415 C416 1.387 . S
C416 H401 0.930 . S
C416 C411 1.390 . S
C416 C415 1.387 . S
H417 C429 0.930 . S
H418 C431 0.930 . S
H419 C432 0.930 . S
H420 C436 0.959 . S
H421 C436 0.959 . S
H422 C436 0.961 . S
H423 C437 0.960 . S
H424 C437 0.961 . S
H425 C437 0.959 . S
H426 C440 0.929 . S
H427 C441 0.931 . S
H428 C443 0.930 . S
C429 H417 0.930 . S
C429 C430 1.399 . S
C429 C434 1.399 . S
C430 C429 1.399 . S
C430 C431 1.376 . S
C431 H418 0.930 . S
C431 C430 1.376 . S
C431 C432 1.388 . S
C432 H419 0.930 . S
C432 C431 1.388 . S
C432 C433 1.390 . S
C433 C432 1.390 . S
C433 C434 1.394 . S
C433 C439 1.465 . S
C434 C429 1.399 . S
C434 C433 1.394 . S
C434 C435 1.516 . S
C435 C434 1.516 . S
C435 C436 1.502 . S
C435 C437 1.561 . S
C435 C438 1.526 . S
C436 H420 0.959 . S
C436 H421 0.959 . S
C436 H422 0.961 . S
C436 C435 1.502 . S
C437 H423 0.960 . S
C437 H424 0.961 . S
C437 H425 0.959 . S
C437 C435 1.561 . S
C438 C435 1.526 . S
C438 C439 1.396 . S
C438 C443 1.390 . S
C439 C433 1.465 . S
C439 C438 1.396 . S
C439 C440 1.399 . S
C440 H426 0.929 . S
C440 C439 1.399 . S
C440 C441 1.385 . S
C441 H427 0.931 . S
C441 C440 1.385 . S
C441 C442 1.389 . S
C442 C441 1.389 . S
C442 C443 1.387 . S
C443 H428 0.930 . S
C443 C438 1.390 . S
C443 C442 1.387 . S
H444 C456 0.930 . S
H445 C458 0.930 . S
H446 C459 0.930 . S
H447 C463 0.959 . S
H448 C463 0.959 . S
H449 C463 0.961 . S
H450 C464 0.960 . S
H451 C464 0.961 . S
H452 C464 0.959 . S
H453 C467 0.929 . S
H454 C468 0.931 . S
H455 C470 0.930 . S
C456 H444 0.930 . S
C456 C457 1.399 . S
C456 C461 1.399 . S
C457 C456 1.399 . S
C457 C458 1.376 . S
C458 H445 0.930 . S
C458 C457 1.376 . S
C458 C459 1.388 . S
C459 H446 0.930 . S
C459 C458 1.388 . S
C459 C460 1.390 . S
C460 C459 1.390 . S
C460 C461 1.394 . S
C460 C466 1.465 . S
C461 C456 1.399 . S
C461 C460 1.394 . S
C461 C462 1.516 . S
C462 C461 1.516 . S
C462 C463 1.502 . S
C462 C464 1.561 . S
C462 C465 1.526 . S
C463 H447 0.959 . S
C463 H448 0.959 . S
C463 H449 0.961 . S
C463 C462 1.502 . S
C464 H450 0.960 . S
C464 H451 0.961 . S
C464 H452 0.959 . S
C464 C462 1.561 . S
C465 C462 1.526 . S
C465 C466 1.396 . S
C465 C470 1.390 . S
C466 C460 1.465 . S
C466 C465 1.396 . S
C466 C467 1.399 . S
C467 H453 0.929 . S
C467 C466 1.399 . S
C467 C468 1.385 . S
C468 H454 0.931 . S
C468 C467 1.385 . S
C468 C469 1.389 . S
C469 C468 1.389 . S
C469 C470 1.387 . S
C470 H455 0.930 . S
C470 C465 1.390 . S
C470 C469 1.387 . S
H471 C483 0.930 . S
H472 C485 0.930 . S
H473 C486 0.930 . S
H474 C490 0.959 . S
H475 C490 0.959 . S
H476 C490 0.961 . S
H477 C491 0.960 . S
H478 C491 0.961 . S
H479 C491 0.959 . S
H480 C494 0.929 . S
H481 C495 0.931 . S
H482 C497 0.930 . S
C483 H471 0.930 . S
C483 C484 1.399 . S
C483 C488 1.399 . S
C484 C483 1.399 . S
C484 C485 1.376 . S
C485 H472 0.930 . S
C485 C484 1.376 . S
C485 C486 1.388 . S
C486 H473 0.930 . S
C486 C485 1.388 . S
C486 C487 1.390 . S
C487 C486 1.390 . S
C487 C488 1.394 . S
C487 C493 1.465 . S
C488 C483 1.399 . S
C488 C487 1.394 . S
C488 C489 1.516 . S
C489 C488 1.516 . S
C489 C490 1.502 . S
C489 C491 1.561 . S
C489 C492 1.526 . S
C490 H474 0.959 . S
C490 H475 0.959 . S
C490 H476 0.961 . S
C490 C489 1.502 . S
C491 H477 0.960 . S
C491 H478 0.961 . S
C491 H479 0.959 . S
C491 C489 1.561 . S
C492 C489 1.526 . S
C492 C493 1.396 . S
C492 C497 1.390 . S
C493 C487 1.465 . S
C493 C492 1.396 . S
C493 C494 1.399 . S
C494 H480 0.929 . S
C494 C493 1.399 . S
C494 C495 1.385 . S
C495 H481 0.931 . S
C495 C494 1.385 . S
C495 C496 1.389 . S
C496 C495 1.389 . S
C496 C497 1.387 . S
C497 H482 0.930 . S
C497 C492 1.390 . S
C497 C496 1.387 . S
H498 C510 0.930 . S
H499 C512 0.930 . S
H500 C513 0.930 . S
H501 C517 0.959 . S
H502 C517 0.959 . S
H503 C517 0.961 . S
H504 C518 0.960 . S
H505 C518 0.961 . S
H506 C518 0.959 . S
H507 C521 0.929 . S
H508 C522 0.931 . S
H509 C524 0.930 . S
C510 H498 0.930 . S
C510 C511 1.399 . S
C510 C515 1.399 . S
C511 C510 1.399 . S
C511 C512 1.376 . S
C512 H499 0.930 . S
C512 C511 1.376 . S
C512 C513 1.388 . S
C513 H500 0.930 . S
C513 C512 1.388 . S
C513 C514 1.390 . S
C514 C513 1.390 . S
C514 C515 1.394 . S
C514 C520 1.465 . S
C515 C510 1.399 . S
C515 C514 1.394 . S
C515 C516 1.516 . S
C516 C515 1.516 . S
C516 C517 1.502 1_455 S
C516 C518 1.561 . S
C516 C519 1.526 . S
C517 H501 0.959 . S
C517 H502 0.959 . S
C517 H503 0.961 . S
C517 C516 1.502 1_655 S
C518 H504 0.960 . S
C518 H505 0.961 . S
C518 H506 0.959 . S
C518 C516 1.561 . S
C519 C516 1.526 . S
C519 C520 1.396 . S
C519 C524 1.390 1_554 S
C520 C514 1.465 . S
C520 C519 1.396 . S
C520 C521 1.399 1_554 S
C521 H507 0.929 . S
C521 C520 1.399 1_556 S
C521 C522 1.385 . S
C522 H508 0.931 . S
C522 C521 1.385 . S
C522 C523 1.389 . S
C523 C522 1.389 . S
C523 C524 1.387 . S
C524 H509 0.930 . S
C524 C519 1.390 1_556 S
C524 C523 1.387 . S
H525 C537 0.930 . S
H526 C539 0.930 . S
H527 C540 0.930 . S
H528 C544 0.959 . S
H529 C544 0.959 . S
H530 C544 0.961 . S
H531 C545 0.960 . S
H532 C545 0.961 . S
H533 C545 0.959 . S
H534 C548 0.929 . S
H535 C549 0.931 . S
H536 C551 0.930 . S
C537 H525 0.930 . S
C537 C538 1.399 . S
C537 C542 1.399 . S
C538 C537 1.399 . S
C538 C539 1.376 1_545 S
C539 H526 0.930 . S
C539 C538 1.376 1_565 S
C539 C540 1.388 . S
C540 H527 0.930 . S
C540 C539 1.388 . S
C540 C541 1.390 1_565 S
C541 C540 1.390 1_545 S
C541 C542 1.394 . S
C541 C547 1.465 . S
C542 C537 1.399 . S
C542 C541 1.394 . S
C542 C543 1.516 . S
C543 C542 1.516 . S
C543 C544 1.502 . S
C543 C545 1.561 . S
C543 C546 1.526 . S
C544 H528 0.959 . S
C544 H529 0.959 . S
C544 H530 0.961 . S
C544 C543 1.502 . S
C545 H531 0.960 . S
C545 H532 0.961 . S
C545 H533 0.959 . S
C545 C543 1.561 . S
C546 C543 1.526 . S
C546 C547 1.396 . S
C546 C551 1.390 . S
C547 C541 1.465 . S
C547 C546 1.396 . S
C547 C548 1.399 1_545 S
C548 H534 0.929 . S
C548 C547 1.399 1_565 S
C548 C549 1.385 . S
C549 H535 0.931 . S
C549 C548 1.385 . S
C549 C550 1.389 1_565 S
C550 C549 1.389 1_545 S
C550 C551 1.387 . S
C551 H536 0.930 . S
C551 C546 1.390 . S
C551 C550 1.387 . S
H552 C564 0.930 . S
H553 C566 0.930 . S
H554 C567 0.930 . S
H555 C571 0.959 . S
H556 C571 0.959 . S
H557 C571 0.961 . S
H558 C572 0.960 . S
H559 C572 0.961 . S
H560 C572 0.959 . S
H561 C575 0.929 . S
H562 C576 0.931 . S
H563 C578 0.930 . S
C564 H552 0.930 . S
C564 C565 1.399 . S
C564 C569 1.399 . S
C565 C564 1.399 . S
C565 C566 1.376 . S
C566 H553 0.930 . S
C566 C565 1.376 . S
C566 C567 1.388 . S
C567 H554 0.930 . S
C567 C566 1.388 . S
C567 C568 1.390 . S
C568 C567 1.390 . S
C568 C569 1.394 . S
C568 C574 1.465 . S
C569 C564 1.399 . S
C569 C568 1.394 . S
C569 C570 1.516 . S
C570 C569 1.516 . S
C570 C571 1.502 . S
C570 C572 1.561 . S
C570 C573 1.526 . S
C571 H555 0.959 . S
C571 H556 0.959 . S
C571 H557 0.961 . S
C571 C570 1.502 . S
C572 H558 0.960 . S
C572 H559 0.961 . S
C572 H560 0.959 . S
C572 C570 1.561 . S
C573 C570 1.526 . S
C573 C574 1.396 . S
C573 C578 1.390 . S
C574 C568 1.465 . S
C574 C573 1.396 . S
C574 C575 1.399 . S
C575 H561 0.929 . S
C575 C574 1.399 . S
C575 C576 1.385 . S
C576 H562 0.931 . S
C576 C575 1.385 . S
C576 C577 1.389 . S
C577 C576 1.389 . S
C577 C578 1.387 . S
C578 H563 0.930 . S
C578 C573 1.390 . S
C578 C577 1.387 . S
H579 C591 0.930 . S
H580 C593 0.930 . S
H581 C594 0.930 . S
H582 C598 0.959 . S
H583 C598 0.959 . S
H584 C598 0.961 . S
H585 C599 0.960 . S
H586 C599 0.961 . S
H587 C599 0.959 . S
H588 C602 0.929 . S
H589 C603 0.931 . S
H590 C605 0.930 . S
C591 H579 0.930 . S
C591 C592 1.399 1_565 S
C591 C596 1.399 . S
C592 C591 1.399 1_545 S
C592 C593 1.376 . S
C593 H580 0.930 . S
C593 C592 1.376 . S
C593 C594 1.388 . S
C594 H581 0.930 . S
C594 C593 1.388 . S
C594 C595 1.390 . S
C595 C594 1.390 . S
C595 C596 1.394 1_545 S
C595 C601 1.465 . S
C596 C591 1.399 . S
C596 C595 1.394 1_565 S
C596 C597 1.516 . S
C597 C596 1.516 . S
C597 C598 1.502 . S
C597 C599 1.561 . S
C597 C600 1.526 . S
C598 H582 0.959 . S
C598 H583 0.959 . S
C598 H584 0.961 . S
C598 C597 1.502 . S
C599 H585 0.960 . S
C599 H586 0.961 . S
C599 H587 0.959 . S
C599 C597 1.561 . S
C600 C597 1.526 . S
C600 C601 1.396 1_565 S
C600 C605 1.390 . S
C601 C595 1.465 . S
C601 C600 1.396 1_545 S
C601 C602 1.399 . S
C602 H588 0.929 . S
C602 C601 1.399 . S
C602 C603 1.385 . S
C603 H589 0.931 . S
C603 C602 1.385 . S
C603 C604 1.389 . S
C604 C603 1.389 . S
C604 C605 1.387 1_545 S
C605 H590 0.930 . S
C605 C600 1.390 . S
C605 C604 1.387 1_565 S
H606 C618 0.930 . S
H607 C620 0.930 . S
H608 C621 0.930 . S
H609 C625 0.959 . S
H610 C625 0.959 . S
H611 C625 0.961 . S
H612 C626 0.960 . S
H613 C626 0.961 . S
H614 C626 0.959 . S
H615 C629 0.929 . S
H616 C630 0.931 . S
H617 C632 0.930 . S
C618 H606 0.930 . S
C618 C619 1.399 . S
C618 C623 1.399 . S
C619 C618 1.399 . S
C619 C620 1.376 . S
C620 H607 0.930 . S
C620 C619 1.376 . S
C620 C621 1.388 . S
C621 H608 0.930 . S
C621 C620 1.388 . S
C621 C622 1.390 . S
C622 C621 1.390 . S
C622 C623 1.394 . S
C622 C628 1.465 . S
C623 C618 1.399 . S
C623 C622 1.394 . S
C623 C624 1.516 . S
C624 C623 1.516 . S
C624 C625 1.502 . S
C624 C626 1.561 . S
C624 C627 1.526 . S
C625 H609 0.959 . S
C625 H610 0.959 . S
C625 H611 0.961 . S
C625 C624 1.502 . S
C626 H612 0.960 . S
C626 H613 0.961 . S
C626 H614 0.959 . S
C626 C624 1.561 . S
C627 C624 1.526 . S
C627 C628 1.396 . S
C627 C632 1.390 1_556 S
C628 C622 1.465 . S
C628 C627 1.396 . S
C628 C629 1.399 1_556 S
C629 H615 0.929 . S
C629 C628 1.399 1_554 S
C629 C630 1.385 . S
C630 H616 0.931 . S
C630 C629 1.385 . S
C630 C631 1.389 . S
C631 C630 1.389 . S
C631 C632 1.387 . S
C632 H617 0.930 . S
C632 C627 1.390 1_554 S
C632 C631 1.387 . S
H633 C645 0.930 . S
H634 C647 0.930 . S
H635 C648 0.930 . S
H636 C652 0.959 . S
H637 C652 0.959 . S
H638 C652 0.961 . S
H639 C653 0.960 . S
H640 C653 0.961 . S
H641 C653 0.959 1_655 S
H642 C656 0.929 . S
H643 C657 0.931 . S
H644 C659 0.930 . S
C645 H633 0.930 . S
C645 C646 1.399 . S
C645 C650 1.399 . S
C646 C645 1.399 . S
C646 C647 1.376 1_455 S
C647 H634 0.930 . S
C647 C646 1.376 1_655 S
C647 C648 1.388 . S
C648 H635 0.930 . S
C648 C647 1.388 . S
C648 C649 1.390 . S
C649 C648 1.390 . S
C649 C650 1.394 1_655 S
C649 C655 1.465 . S
C650 C645 1.399 . S
C650 C649 1.394 1_455 S
C650 C651 1.516 . S
C651 C650 1.516 . S
C651 C652 1.502 . S
C651 C653 1.561 . S
C651 C654 1.526 . S
C652 H636 0.959 . S
C652 H637 0.959 . S
C652 H638 0.961 . S
C652 C651 1.502 . S
C653 H639 0.960 . S
C653 H640 0.961 . S
C653 H641 0.959 1_455 S
C653 C651 1.561 . S
C654 C651 1.526 . S
C654 C655 1.396 1_455 S
C654 C659 1.390 . S
C655 C649 1.465 . S
C655 C654 1.396 1_655 S
C655 C656 1.399 . S
C656 H642 0.929 . S
C656 C655 1.399 . S
C656 C657 1.385 . S
C657 H643 0.931 . S
C657 C656 1.385 . S
C657 C658 1.389 . S
C658 C657 1.389 . S
C658 C659 1.387 1_655 S
C659 H644 0.930 . S
C659 C654 1.390 . S
C659 C658 1.387 1_455 S
C187 C10 2.987 . S
C199 C169 2.953 . S
C214 C55 1.279 . S
C226 C151 1.328 . S
C241 C90 1.807 . S
C253 C163 1.810 . S
C268 C19 2.879 . S
C280 C172 2.886 . S
C307 C154 1.372 . S
C295 C46 1.290 . S
C334 C160 1.911 . S
C322 C99 1.902 . S
C349 C50 1.807 . S
C361 C133 1.776 . S
C376 C95 0.666 . S
C388 C142 0.729 . S
C403 C6 1.376 . S
C415 C124 1.384 . S
C442 C136 1.811 . S
C430 C59 1.815 . S
C469 C145 0.524 . S
C457 C86 0.736 . S
C484 C15 1.394 . S
C496 C127 1.405 . S
C523 C143 1.049 . S
C511 C18 1.047 . S
C538 C49 1.453 . S
C550 C125 1.474 . S
C565 C98 1.319 . S
C577 C134 1.354 . S
C604 C161 1.359 . S
C592 C58 1.271 . S
C631 C170 1.784 . S
C619 C89 1.747 . S
C646 C9 1.468 . S
C658 C152 1.503 1_655 S
