# Generated by pormake.
# Topology pth, (4,4)-cn, num edge types: 1
# Building blocks:
#     Node 0, Type 0, BuildingBlock: QUQFOY_clean_sbu_3, # of connection points: 4
#     Node 1, Type 0, BuildingBlock: QUQFOY_clean_sbu_3, # of connection points: 4
#     Node 2, Type 0, BuildingBlock: QUQFOY_clean_sbu_3, # of connection points: 4
#     Node 3, Type 1, BuildingBlock: NAHDIM_clean_linker_0, # of connection points: 4
#     Node 4, Type 1, BuildingBlock: NAHDIM_clean_linker_0, # of connection points: 4
#     Node 5, Type 1, BuildingBlock: NAHDIM_clean_linker_0, # of connection points: 4
#     Edge 6, Type (0, 1), BuildingBlock: KIFKEQ_clean_linker_1, # of connection points: 2
#     Edge 7, Type (0, 1), BuildingBlock: KIFKEQ_clean_linker_1, # of connection points: 2
#     Edge 8, Type (0, 1), BuildingBlock: KIFKEQ_clean_linker_1, # of connection points: 2
#     Edge 9, Type (0, 1), BuildingBlock: KIFKEQ_clean_linker_1, # of connection points: 2
#     Edge 10, Type (0, 1), BuildingBlock: KIFKEQ_clean_linker_1, # of connection points: 2
#     Edge 11, Type (0, 1), BuildingBlock: KIFKEQ_clean_linker_1, # of connection points: 2
#     Edge 12, Type (0, 1), BuildingBlock: KIFKEQ_clean_linker_1, # of connection points: 2
#     Edge 13, Type (0, 1), BuildingBlock: KIFKEQ_clean_linker_1, # of connection points: 2
#     Edge 14, Type (0, 1), BuildingBlock: KIFKEQ_clean_linker_1, # of connection points: 2
#     Edge 15, Type (0, 1), BuildingBlock: KIFKEQ_clean_linker_1, # of connection points: 2
#     Edge 16, Type (0, 1), BuildingBlock: KIFKEQ_clean_linker_1, # of connection points: 2
#     Edge 17, Type (0, 1), BuildingBlock: KIFKEQ_clean_linker_1, # of connection points: 2
# Relax obj value: 0.008
# Max RMSD: 0.056
# Mean RMSD: 0.049
data_MOF--net-pth--node1-QUQFOY_clean_sbu_3--node2-NAHDIM_clean_linker_0--edge1-KIFKEQ_clean_linker_1
_symmetry_space_group_name_H-M    P1
_symmetry_Int_Tables_number       1
_symmetry_cell_setting            triclinic
loop_
_symmetry_equiv_pos_as_xyz
'x, y, z'
_cell_length_a     32.322315
_cell_length_b     32.078511
_cell_length_c     84.148103
_cell_angle_alpha  89.723496
_cell_angle_beta   91.1669
_cell_angle_gamma 120.64656
loop_
_atom_site_label
_atom_site_type_symbol
_atom_site_fract_x
_atom_site_fract_y
_atom_site_fract_z
_atom_type_partial_charge
C0 C 0.98816 0.12187 0.08219 0.0
O1 O 0.95406 0.11581 0.07292 0.0
Cd2 Cd 0.94683 0.07664 0.04764 0.0
O3 O 0.0117 0.10107 0.07925 0.0
Cd4 Cd 0.01413 0.04257 0.06145 0.0
C5 C 0.06612 0.13532 0.03644 0.0
O6 O 0.93294 0.99561 0.04924 0.0
O7 O 0.99247 0.99533 0.03778 0.0
O8 O 0.99395 0.98974 0.08384 0.0
C9 C 0.94761 0.97916 0.03832 0.0
O10 O 0.02362 0.12812 0.03509 0.0
C11 C 0.03074 0.9853 0.08366 0.0
O12 O 0.07558 0.11009 0.04597 0.0
O13 O 0.06167 0.00881 0.07307 0.0
C14 C 0.12773 0.06536 0.4086 0.0
O15 O 0.15182 0.08622 0.39636 0.0
Cd16 Cd 0.11396 0.09888 0.37361 0.0
O17 O 0.08304 0.05105 0.40898 0.0
Cd18 Cd 0.01836 0.05007 0.39236 0.0
C19 C 0.0295 0.98053 0.36492 0.0
O20 O 0.06802 0.13279 0.38351 0.0
O21 O 0.00042 0.09116 0.37073 0.0
O22 O 0.99414 0.0618 0.41823 0.0
C23 C 0.03759 0.13202 0.37362 0.0
O24 O 0.06721 0.01931 0.36078 0.0
C25 C 0.94918 0.0361 0.41561 0.0
O26 O 0.00574 0.9803 0.37684 0.0
O27 O 0.93565 0.01548 0.40209 0.0
C28 C 0.96885 0.10899 0.71327 0.0
O29 O 0.97281 0.12756 0.72691 0.0
Cd30 Cd 0.01355 0.11934 0.74939 0.0
O31 O 0.9891 0.08457 0.71038 0.0
Cd32 Cd 0.04278 0.06162 0.72514 0.0
C33 C 0.95516 0.99465 0.75136 0.0
O34 O 0.08925 0.13685 0.73962 0.0
O35 O 0.09711 0.07843 0.74851 0.0
O36 O 0.09332 0.0799 0.70195 0.0
C37 C 0.10991 0.12286 0.74934 0.0
O38 O 0.96383 0.03477 0.75737 0.0
C39 C 0.09218 0.03976 0.70177 0.0
O40 O 0.977 0.99369 0.73905 0.0
O41 O 0.06659 0.00891 0.71215 0.0
C42 C 0.89542 0.63298 0.31006 0.0
C43 C 0.94927 0.66946 0.30869 0.0
C44 C 0.98009 0.65418 0.28498 0.0
C45 C 0.02983 0.67582 0.28355 0.0
C46 C 0.04955 0.65218 0.27536 0.0
C47 C 0.01849 0.60591 0.26855 0.0
C48 C 0.96804 0.58427 0.26988 0.0
C49 C 0.94941 0.60904 0.27795 0.0
C50 C 0.10341 0.67648 0.27401 0.0
C51 C 0.93385 0.53484 0.26288 0.0
C52 C 0.19916 0.48003 0.33056 0.0
C53 C 0.15009 0.45289 0.32205 0.0
C54 C 0.13545 0.4697 0.29515 0.0
C55 C 0.08547 0.44941 0.29478 0.0
C56 C 0.06363 0.46609 0.28394 0.0
C57 C 0.09275 0.50482 0.27366 0.0
C58 C 0.14337 0.52516 0.27407 0.0
C59 C 0.16385 0.50626 0.28454 0.0
C60 C 0.00957 0.44252 0.28357 0.0
C61 C 0.1762 0.56762 0.26378 0.0
C62 C 0.1163 0.41494 0.17973 0.0
C63 C 0.06721 0.40003 0.1801 0.0
C64 C 0.05257 0.4327 0.18438 0.0
C65 C 0.08771 0.48113 0.18822 0.0
C66 C 0.13706 0.49712 0.18656 0.0
C67 C 0.15069 0.4637 0.18226 0.0
C68 C -0.00038 0.41495 0.18558 0.0
C69 C 0.17541 0.54886 0.19017 0.0
C70 C 0.02179 0.76486 0.17914 0.0
C71 C 0.04989 0.76282 0.16501 0.0
C72 C 0.03653 0.68098 0.16681 0.0
C73 C -0.00298 0.63414 0.16828 0.0
C74 C 0.0013 0.59826 0.17649 0.0
C75 C 0.04644 0.60964 0.18313 0.0
C76 C 0.08715 0.65614 0.18082 0.0
C77 C 0.08181 0.6913 0.17263 0.0
C78 C 0.95741 0.54879 0.17859 0.0
C79 C 0.13615 0.66902 0.18734 0.0
C80 C 0.03851 0.57933 0.26042 0.0
C81 C 0.05467 0.55428 0.26984 0.0
C82 C 0.07085 0.52568 0.26299 0.0
C83 C 0.06914 0.52034 0.24629 0.0
C84 C 0.08125 0.48873 0.23905 0.0
C85 C 0.08178 0.48557 0.22259 0.0
C86 C 0.07068 0.51429 0.21274 0.0
C87 C 0.07327 0.51299 0.196 0.0
C88 C 0.06365 0.54319 0.18657 0.0
C89 C 0.05083 0.57449 0.19347 0.0
C90 C 0.04628 0.57498 0.21015 0.0
C91 C 0.032 0.60495 0.21743 0.0
C92 C 0.02872 0.60595 0.23387 0.0
C93 C 0.0406 0.57783 0.24368 0.0
C94 C 0.05538 0.54767 0.2366 0.0
C95 C 0.0571 0.54538 0.21981 0.0
C96 C 0.1395 0.31872 0.18784 0.0
C97 C 0.10614 0.33395 0.18002 0.0
O98 O 0.96171 0.67753 0.29284 0.0
O99 O 0.02979 0.7153 0.15976 0.0
O100 O 0.13192 0.38343 0.17734 0.0
O101 O 0.1572 0.45505 0.30583 0.0
H102 H 0.96951 0.65425 0.31487 0.0
H103 H 0.88685 0.59716 0.30532 0.0
H104 H 0.87397 0.64555 0.30329 0.0
H105 H 0.8848 0.62811 0.32272 0.0
H106 H 0.05307 0.71112 0.28892 0.0
H107 H 0.91089 0.5932 0.27885 0.0
H108 H 0.11646 0.65554 0.28082 0.0
H109 H 0.1223 0.71426 0.27865 0.0
H110 H 0.11309 0.6769 0.2614 0.0
H111 H 0.89591 0.52152 0.26602 0.0
H112 H 0.94393 0.5083 0.26714 0.0
H113 H 0.93644 0.5364 0.24974 0.0
H114 H 0.13019 0.47161 0.32519 0.0
H115 H 0.19476 0.48023 0.34361 0.0
H116 H 0.21923 0.51818 0.32645 0.0
H117 H 0.22065 0.46277 0.32797 0.0
H118 H 0.06367 0.42042 0.3029 0.0
H119 H 0.20245 0.52137 0.28498 0.0
H120 H -0.00058 0.46712 0.28924 0.0
H121 H 0.99191 0.40756 0.29005 0.0
H122 H 0.99555 0.43597 0.27112 0.0
H123 H 0.21429 0.58538 0.26799 0.0
H124 H 0.16503 0.59512 0.26356 0.0
H125 H 0.17429 0.55483 0.25142 0.0
H126 H 0.07705 0.32466 0.18866 0.0
H127 H 0.04023 0.3628 0.17739 0.0
H128 H 0.18845 0.47507 0.18156 0.0
H129 H 0.99071 0.41541 0.19823 0.0
H130 H 0.97676 0.37756 0.18082 0.0
H131 H 0.99077 0.43957 0.17899 0.0
H132 H 0.21182 0.55658 0.18697 0.0
H133 H 0.1756 0.55626 0.20306 0.0
H134 H 0.16735 0.57405 0.18359 0.0
H135 H 0.08777 0.7776 0.16905 0.0
H136 H 0.03694 0.80291 0.18321 0.0
H137 H 0.02438 0.74369 0.1892 0.0
H138 H 0.9832 0.74935 0.17584 0.0
H139 H 0.96239 0.62628 0.16348 0.0
H140 H 0.11317 0.72661 0.17078 0.0
H141 H 0.94888 0.54243 0.1914 0.0
H142 H 0.96481 0.52044 0.17445 0.0
H143 H 0.92547 0.54477 0.17196 0.0
H144 H 0.16458 0.70616 0.18399 0.0
H145 H 0.14599 0.64278 0.18287 0.0
H146 H 0.13521 0.66655 0.2005 0.0
H147 H 0.05503 0.55744 0.28268 0.0
H148 H 0.09059 0.46617 0.24604 0.0
H149 H 0.09172 0.46079 0.21773 0.0
H150 H 0.06719 0.54309 0.17378 0.0
H151 H 0.02304 0.62789 0.21049 0.0
H152 H 0.01757 0.62968 0.23883 0.0
H153 H 0.11966 0.27902 0.18999 0.0
H154 H 0.15315 0.33762 0.19947 0.0
H155 H 0.17081 0.32822 0.18026 0.0
C156 C 0.35459 0.97126 0.65988 0.0
C157 C 0.34714 0.00374 0.64822 0.0
C158 C 0.37336 -0.00119 0.6219 0.0
C159 C 0.40167 0.04781 0.61785 0.0
C160 C 0.43892 0.06298 0.60696 0.0
C161 C 0.44804 0.02835 0.60007 0.0
C162 C 0.41838 0.97865 0.60375 0.0
C163 C 0.38083 0.96445 0.61447 0.0
C164 C 0.46902 0.11607 0.60301 0.0
C165 C 0.42712 0.94075 0.59667 0.0
C166 C 0.8169 0.22045 0.61979 0.0
C167 C 0.78135 0.17632 0.62946 0.0
C168 C 0.71158 0.12358 0.61225 0.0
C169 C 0.68514 0.0769 0.60583 0.0
C170 C 0.64047 0.06062 0.59819 0.0
C171 C 0.62249 0.0925 0.59658 0.0
C172 C 0.64918 0.13997 0.60294 0.0
C173 C 0.69332 0.15498 0.6108 0.0
C174 C 0.61265 0.00944 0.59178 0.0
C175 C 0.63119 0.17498 0.60135 0.0
C176 C 0.68623 0.0987 0.49511 0.0
C177 C 0.65795 0.05269 0.50176 0.0
C178 C 0.61545 0.0407 0.50961 0.0
C179 C 0.60125 0.07564 0.51087 0.0
C180 C 0.62854 0.12123 0.50349 0.0
C181 C 0.67054 0.13196 0.49551 0.0
C182 C 0.58638 0.99113 0.51689 0.0
C183 C 0.61423 0.15913 0.50453 0.0
C184 C 0.20373 0.91461 0.50642 0.0
C185 C 0.25085 0.9596 0.50173 0.0
C186 C 0.33096 0.96922 0.50253 0.0
C187 C 0.35332 0.94197 0.50429 0.0
C188 C 0.40069 0.96312 0.51019 0.0
C189 C 0.42651 0.01309 0.51405 0.0
C190 C 0.40526 0.04166 0.51117 0.0
C191 C 0.35749 0.01936 0.5055 0.0
C192 C 0.4225 0.93171 0.51285 0.0
C193 C 0.4325 0.09538 0.5146 0.0
C194 C 0.49002 0.04443 0.58966 0.0
C195 C 0.53497 0.0609 0.59698 0.0
C196 C 0.57616 0.07644 0.58801 0.0
C197 C 0.57272 0.0757 0.57123 0.0
C198 C 0.61357 0.09172 0.56184 0.0
C199 C 0.60954 0.08898 0.54535 0.0
C200 C 0.56454 0.0704 0.53759 0.0
C201 C 0.55981 0.06549 0.52085 0.0
C202 C 0.51476 0.04796 0.51347 0.0
C203 C 0.47384 0.03427 0.52243 0.0
C204 C 0.4777 0.03795 0.53921 0.0
C205 C 0.43707 0.02348 0.54862 0.0
C206 C 0.44109 0.02624 0.56512 0.0
C207 C 0.48575 0.04296 0.57289 0.0
C208 C 0.52725 0.05837 0.56365 0.0
C209 C 0.52321 0.0559 0.5468 0.0
C210 C 0.80614 0.15268 0.5006 0.0
C211 C 0.76413 0.10425 0.49463 0.0
O212 O 0.33902 0.984 0.63305 0.0
O213 O 0.28377 0.94574 0.4981 0.0
O214 O 0.72867 0.11185 0.48819 0.0
O215 O 0.75449 0.13675 0.61955 0.0
H216 H 0.38073 0.03992 0.64872 0.0
H217 H 0.38666 0.9694 0.65651 0.0
H218 H 0.32286 0.93391 0.65973 0.0
H219 H 0.36066 0.98629 0.67214 0.0
H220 H 0.39468 0.07415 0.62325 0.0
H221 H 0.35827 0.92662 0.61757 0.0
H222 H 0.50604 0.13062 0.6079 0.0
H223 H 0.4541 0.13758 0.60799 0.0
H224 H 0.47159 0.12093 0.58992 0.0
H225 H 0.40226 0.90394 0.60133 0.0
H226 H 0.46472 0.95009 0.59927 0.0
H227 H 0.42238 0.93999 0.58355 0.0
H228 H 0.75732 0.18593 0.63573 0.0
H229 H 0.84003 0.25139 0.62786 0.0
H230 H 0.79723 0.23184 0.61158 0.0
H231 H 0.84007 0.21202 0.61254 0.0
H232 H 0.69949 0.05297 0.60697 0.0
H233 H 0.71343 0.19142 0.61555 0.0
H234 H 0.61217 0.01022 0.57859 0.0
H235 H 0.57477 0.99129 0.59568 0.0
H236 H 0.62866 0.98751 0.59571 0.0
H237 H 0.65809 0.21192 0.60568 0.0
H238 H 0.59796 0.16153 0.60829 0.0
H239 H 0.62188 0.1773 0.58872 0.0
H240 H 0.75063 0.07969 0.50506 0.0
H241 H 0.66915 0.02621 0.50084 0.0
H242 H 0.69232 0.16709 0.49007 0.0
H243 H 0.58927 0.99455 0.53005 0.0
H244 H 0.59891 0.96626 0.51321 0.0
H245 H 0.5478 0.97475 0.51347 0.0
H246 H 0.63936 0.19287 0.49816 0.0
H247 H 0.61333 0.16819 0.51719 0.0
H248 H 0.57746 0.14454 0.49939 0.0
H249 H 0.26368 0.9844 0.51224 0.0
H250 H 0.17681 0.92467 0.5097 0.0
H251 H 0.21019 0.89716 0.51685 0.0
H252 H 0.18886 0.88798 0.49645 0.0
H253 H 0.33275 0.9035 0.50164 0.0
H254 H 0.34093 0.04104 0.50352 0.0
H255 H 0.43346 0.93353 0.52555 0.0
H256 H 0.45534 0.94547 0.50567 0.0
H257 H 0.39722 0.89323 0.50956 0.0
H258 H 0.41349 0.11352 0.50976 0.0
H259 H 0.46892 0.11257 0.50947 0.0
H260 H 0.43713 0.10147 0.52765 0.0
H261 H 0.53792 0.06143 0.60986 0.0
H262 H 0.64911 0.10616 0.56714 0.0
H263 H 0.6422 0.10142 0.53878 0.0
H264 H 0.51131 0.04388 0.50063 0.0
H265 H 0.40158 0.00961 0.54335 0.0
H266 H 0.40861 0.0146 0.57173 0.0
H267 H 0.82144 0.17893 0.49068 0.0
H268 H 0.83486 0.14754 0.50603 0.0
H269 H 0.79349 0.16812 0.5098 0.0
C270 C 0.69177 0.63582 0.78557 0.0
C271 C 0.69382 0.6769 0.79541 0.0
C272 C 0.66499 0.65508 0.82231 0.0
C273 C 0.63644 0.67629 0.82345 0.0
C274 C 0.59832 0.6582 0.83412 0.0
C275 C 0.58856 0.61797 0.84371 0.0
C276 C 0.61869 0.59787 0.84301 0.0
C277 C 0.65714 0.6174 0.83248 0.0
C278 C 0.56792 0.68143 0.83492 0.0
C279 C 0.60938 0.55475 0.85297 0.0
C280 C 0.24476 0.30276 0.82245 0.0
C281 C 0.26341 0.33373 0.83692 0.0
C282 C 0.32463 0.41968 0.83664 0.0
C283 C 0.36439 0.4131 0.83767 0.0
C284 C 0.40972 0.45121 0.84254 0.0
C285 C 0.41554 0.49702 0.84603 0.0
C286 C 0.37681 0.50504 0.84334 0.0
C287 C 0.33164 0.46603 0.83872 0.0
C288 C 0.45076 0.44184 0.84476 0.0
C289 C 0.38238 0.55399 0.84632 0.0
C290 C 0.34637 0.43924 0.94755 0.0
C291 C 0.38193 0.42869 0.94344 0.0
C292 C 0.42301 0.46273 0.93539 0.0
C293 C 0.42889 0.50845 0.9316 0.0
C294 C 0.39423 0.52001 0.9364 0.0
C295 C 0.35345 0.48522 0.94444 0.0
C296 C 0.45989 0.44967 0.93077 0.0
C297 C 0.39971 0.56859 0.93267 0.0
C298 C 0.81331 0.78399 0.93377 0.0
C299 C 0.76987 0.77245 0.94382 0.0
C300 C 0.69519 0.69399 0.94132 0.0
C301 C 0.67933 0.64607 0.93712 0.0
C302 C 0.63257 0.61566 0.93112 0.0
C303 C 0.60101 0.63385 0.92943 0.0
C304 C 0.61564 0.68118 0.93478 0.0
C305 C 0.66263 0.71079 0.94081 0.0
C306 C 0.61755 0.56476 0.926 0.0
C307 C 0.58217 0.70092 0.93359 0.0
C308 C 0.54487 0.59441 0.85356 0.0
C309 C 0.50115 0.56239 0.84591 0.0
C310 C 0.45966 0.53391 0.85457 0.0
C311 C 0.46142 0.53738 0.87135 0.0
C312 C 0.42073 0.5077 0.88047 0.0
C313 C 0.42322 0.50997 0.89696 0.0
C314 C 0.46652 0.5419 0.90502 0.0
C315 C 0.46992 0.54289 0.92181 0.0
C316 C 0.51371 0.57434 0.92949 0.0
C317 C 0.55455 0.6048 0.92077 0.0
C318 C 0.55182 0.60465 0.90397 0.0
C319 C 0.59235 0.6349 0.89486 0.0
C320 C 0.58997 0.63237 0.87834 0.0
C321 C 0.54699 0.59955 0.87029 0.0
C322 C 0.50522 0.57035 0.87922 0.0
C323 C 0.50771 0.57272 0.89608 0.0
C324 C 0.23922 0.34912 0.93884 0.0
C325 C 0.27802 0.35739 0.95124 0.0
O326 O 0.69987 0.66981 0.81135 0.0
O327 O 0.74208 0.72271 0.94568 0.0
O328 O 0.30546 0.40644 0.95484 0.0
O329 O 0.27905 0.38221 0.83421 0.0
H330 H 0.65877 0.67494 0.79317 0.0
H331 H 0.65984 0.60078 0.78893 0.0
H332 H 0.72436 0.63316 0.78773 0.0
H333 H 0.68854 0.64176 0.7727 0.0
H334 H 0.64382 0.70677 0.81595 0.0
H335 H 0.67998 0.60188 0.83163 0.0
H336 H 0.5317 0.65635 0.8297 0.0
H337 H 0.58397 0.71618 0.82834 0.0
H338 H 0.56316 0.68822 0.84749 0.0
H339 H 0.63314 0.54053 0.84983 0.0
H340 H 0.57135 0.52518 0.85146 0.0
H341 H 0.6156 0.5653 0.86572 0.0
H342 H 0.28715 0.32756 0.84519 0.0
H343 H 0.27007 0.28883 0.82075 0.0
H344 H 0.258 0.32786 0.81194 0.0
H345 H 0.17165 0.25715 0.827 0.0
H346 H 0.35998 0.378 0.83513 0.0
H347 H 0.30104 0.47109 0.83745 0.0
H348 H 0.46377 0.44885 0.85733 0.0
H349 H 0.48123 0.46704 0.83725 0.0
H350 H 0.44025 0.40407 0.8416 0.0
H351 H 0.35198 0.55659 0.84105 0.0
H352 H 0.4166 0.58311 0.84133 0.0
H353 H 0.38378 0.56036 0.85932 0.0
H354 H 0.30032 0.34377 0.94609 0.0
H355 H 0.37811 0.3942 0.94661 0.0
H356 H 0.3262 0.49329 0.94796 0.0
H357 H 0.46481 0.45301 0.91771 0.0
H358 H 0.44953 0.41222 0.93431 0.0
H359 H 0.49506 0.47534 0.93652 0.0
H360 H 0.37107 0.57305 0.93804 0.0
H361 H 0.39835 0.57261 0.91959 0.0
H362 H 0.43531 0.5981 0.93708 0.0
H363 H 0.74983 0.78693 0.93717 0.0
H364 H 0.83645 0.82378 0.9322 0.0
H365 H 0.80086 0.7669 0.92184 0.0
H366 H 0.83501 0.76983 0.93945 0.0
H367 H 0.70441 0.63313 0.93797 0.0
H368 H 0.67379 0.74699 0.94494 0.0
H369 H 0.61234 0.56149 0.91288 0.0
H370 H 0.58269 0.53852 0.93136 0.0
H371 H 0.64468 0.5547 0.92945 0.0
H372 H 0.59822 0.73772 0.9389 0.0
H373 H 0.5481 0.67623 0.93968 0.0
H374 H 0.573 0.70259 0.9209 0.0
H375 H 0.49983 0.55809 0.83309 0.0
H376 H 0.38651 0.48187 0.875 0.0
H377 H 0.39081 0.48593 0.9033 0.0
H378 H 0.51639 0.57406 0.94236 0.0
H379 H 0.62658 0.66049 0.9004 0.0
H380 H 0.62236 0.65608 0.87193 0.0
H381 H 0.21676 0.30997 0.93581 0.0
H382 H 0.25635 0.36917 0.9278 0.0
H383 H 0.2157 0.36217 0.94336 0.0
H384 H 0.94017 0.16298 0.09563 0.0
H385 H 0.06909 0.1544 0.10046 0.0
H386 H 0.96653 0.21787 0.11871 0.0
H387 H 0.09498 0.20876 0.12319 0.0
H388 H 0.15267 0.34583 0.15201 0.0
H389 H 0.12165 0.29707 0.12774 0.0
H390 H 0.98233 0.21225 0.14892 0.0
H391 H 0.01353 0.26109 0.17328 0.0
C392 C 0.97397 0.17275 0.10158 0.0
C393 C 0.00248 0.1543 0.09622 0.0
C394 C 0.98895 0.20399 0.11477 0.0
C395 C 0.03297 0.21781 0.1226 0.0
C396 C 0.06125 0.19929 0.11723 0.0
C397 C 0.04614 0.1678 0.10426 0.0
C398 C 0.1153 0.31712 0.15139 0.0
C399 C 0.08552 0.30701 0.16451 0.0
C400 C 0.0976 0.28921 0.13756 0.0
C401 C 0.0497 0.25078 0.13653 0.0
C402 C 0.01929 0.2419 0.14938 0.0
C403 C 0.03717 0.26961 0.16331 0.0
H404 H 0.96637 0.05717 0.44714 0.0
H405 H 0.85497 0.01013 0.41078 0.0
H406 H 0.91403 0.06386 0.46608 0.0
H407 H 0.80244 0.0172 0.42983 0.0
H408 H 0.77177 0.11931 0.46218 0.0
H409 H 0.80926 0.09203 0.44318 0.0
H410 H 0.83615 0.01584 0.48063 0.0
H411 H 0.79825 0.04286 0.49964 0.0
C412 C 0.93039 0.04756 0.44327 0.0
C413 C 0.91486 0.03348 0.42746 0.0
C414 C 0.90032 0.05112 0.45415 0.0
C415 C 0.85426 0.04125 0.4494 0.0
C416 C 0.83794 0.02532 0.43375 0.0
C417 C 0.86786 0.02105 0.4229 0.0
C418 C 0.7845 0.09566 0.46626 0.0
C419 C 0.78139 0.08254 0.48236 0.0
C420 C 0.80588 0.07998 0.45539 0.0
C421 C 0.82546 0.0517 0.46044 0.0
C422 C 0.82139 0.03766 0.47643 0.0
C423 C 0.79957 0.05292 0.48728 0.0
H424 H 0.88811 0.98208 0.77304 0.0
H425 H 0.93981 0.90344 0.74639 0.0
H426 H 0.82669 0.90639 0.78476 0.0
H427 H 0.87834 0.82772 0.75825 0.0
H428 H 0.79133 0.71096 0.79601 0.0
H429 H 0.85605 0.78829 0.786 0.0
H430 H 0.75238 0.83064 0.77366 0.0
H431 H 0.6877 0.75318 0.78338 0.0
C432 C 0.88654 0.94871 0.76973 0.0
C433 C 0.91871 0.94876 0.75872 0.0
C434 C 0.85126 0.9054 0.77641 0.0
C435 C 0.84779 0.8613 0.77239 0.0
C436 C 0.88049 0.86133 0.76163 0.0
C437 C 0.91542 0.9046 0.75477 0.0
C438 C 0.78245 0.73678 0.7911 0.0
C439 C 0.7344 0.72576 0.79021 0.0
C440 C 0.8194 0.7809 0.78538 0.0
C441 C 0.80909 0.8152 0.77898 0.0
C442 C 0.76131 0.80488 0.7786 0.0
C443 C 0.72432 0.76053 0.7841 0.0
H444 H 0.10634 0.96953 0.08759 0.0
H445 H 0.96618 0.92775 0.1056 0.0
H446 H 0.11227 0.91405 0.10638 0.0
H447 H 0.97232 0.87316 0.12427 0.0
H448 H 0.97544 0.74368 0.14423 0.0
H449 H 0.97262 0.79657 0.12378 0.0
H450 H 0.11906 0.90612 0.13581 0.0
H451 H 0.12197 0.85295 0.15614 0.0
C452 C 0.07695 0.94866 0.09556 0.0
C453 C 0.03582 0.953 0.0951 0.0
C454 C 0.08037 0.91705 0.10632 0.0
C455 C 0.04257 0.88901 0.1167 0.0
C456 C 0.00167 0.89362 0.11624 0.0
C457 C -0.00163 0.92526 0.1056 0.0
C458 C 0.00715 0.77881 0.14234 0.0
C459 C 0.04907 0.79404 0.15164 0.0
C460 C 0.0055 0.80919 0.13072 0.0
C461 C 0.04564 0.8555 0.12821 0.0
C462 C 0.08782 0.8704 0.13733 0.0
C463 C 0.08941 0.84007 0.149 0.0
H464 H 0.09309 0.0396 0.43855 0.0
H465 H 0.21544 0.07164 0.40999 0.0
H466 H 0.12956 0.02109 0.46105 0.0
H467 H 0.25183 0.0529 0.43259 0.0
H468 H 0.25272 0.94214 0.4697 0.0
H469 H 0.22872 0.97458 0.44737 0.0
H470 H 0.20179 0.06153 0.47983 0.0
H471 H 0.22627 0.02934 0.5022 0.0
C472 C 0.12789 0.04296 0.43709 0.0
C473 C 0.15123 0.05676 0.42245 0.0
C474 C 0.14893 0.03273 0.45002 0.0
C475 C 0.1935 0.03558 0.44854 0.0
C476 C 0.2173 0.05017 0.434 0.0
C477 C 0.19652 0.06101 0.4211 0.0
C478 C 0.24283 0.96908 0.47203 0.0
C479 C 0.24204 0.98383 0.48767 0.0
C480 C 0.22912 0.98764 0.45925 0.0
C481 C 0.21343 0.02054 0.46189 0.0
C482 C 0.21355 0.03604 0.47748 0.0
C483 C 0.22778 0.01789 0.49025 0.0
H484 H 0.12233 0.09225 0.77844 0.0
H485 H 0.15493 0.22079 0.752 0.0
H486 H 0.15127 0.14005 0.80276 0.0
H487 H 0.18647 0.26929 0.77614 0.0
H488 H 0.18468 0.35635 0.82516 0.0
H489 H 0.16215 0.29929 0.79649 0.0
H490 H 0.20088 0.18296 0.82373 0.0
H491 H 0.22376 0.23703 0.85304 0.0
C492 C 0.137 0.13102 0.77778 0.0
C493 C 0.13581 0.15276 0.76339 0.0
C494 C 0.15383 0.15861 0.79174 0.0
C495 C 0.1704 0.20852 0.79151 0.0
C496 C 0.17239 0.2307 0.77689 0.0
C497 C 0.15487 0.20303 0.76299 0.0
C498 C 0.18606 0.32336 0.82497 0.0
C499 C 0.21513 0.30746 0.8413 0.0
C500 C 0.1746 0.28889 0.80695 0.0
C501 C 0.18215 0.23664 0.80646 0.0
C502 C 0.198 0.21503 0.82418 0.0
C503 C 0.21018 0.24715 0.84278 0.0
H504 H 0.93637 0.17224 0.71389 0.0
H505 H 0.9375 0.06314 0.68427 0.0
H506 H 0.89049 0.18593 0.6936 0.0
H507 H 0.88957 0.07557 0.66404 0.0
H508 H 0.84902 0.14972 0.62476 0.0
H509 H 0.89351 0.13193 0.64474 0.0
H510 H 0.81329 0.15054 0.68174 0.0
H511 H 0.77102 0.171 0.66181 0.0
C512 C 0.92643 0.15078 0.70308 0.0
C513 C 0.94062 0.11655 0.70071 0.0
C514 C 0.8997 0.1584 0.69146 0.0
C515 C 0.88587 0.1316 0.6772 0.0
C516 C 0.90003 0.09726 0.6748 0.0
C517 C 0.92731 0.08995 0.68642 0.0
C518 C 0.8414 0.15054 0.63719 0.0
C519 C 0.80753 0.16313 0.64175 0.0
C520 C 0.8664 0.13969 0.64864 0.0
C521 C 0.85745 0.14032 0.66489 0.0
C522 C 0.82211 0.15098 0.66937 0.0
C523 C 0.79763 0.16246 0.65795 0.0
H524 H 0.96716 0.92434 0.01906 0.0
H525 H 0.85438 0.95308 0.0307 0.0
H526 H 0.91671 0.86937 -0.00197 0.0
H527 H 0.80331 0.89733 0.0094 0.0
H528 H 0.77214 0.85441 0.95441 0.0
H529 H 0.80813 0.89927 0.97917 0.0
H530 H 0.84129 0.79022 0.99393 0.0
H531 H 0.80586 0.7458 0.96915 0.0
C532 C 0.93132 0.91854 0.01721 0.0
C533 C 0.91475 0.94317 0.02647 0.0
C534 C 0.90227 0.8867 0.00523 0.0
C535 C 0.85604 0.87895 0.00213 0.0
C536 C 0.83892 0.90284 0.01155 0.0
C537 C 0.86797 0.93448 0.02374 0.0
C538 C 0.78635 0.8397 0.96311 0.0
C539 C 0.78627 0.79672 0.9599 0.0
C540 C 0.80665 0.86515 0.97729 0.0
C541 C 0.82762 0.84827 0.98842 0.0
C542 C 0.82571 0.80423 0.98549 0.0
C543 C 0.80532 0.77876 0.97136 0.0
H544 H 0.05825 0.97025 0.33564 0.0
H545 H 0.96811 0.88771 0.3746 0.0
H546 H 0.03794 0.89508 0.32195 0.0
H547 H 0.94807 0.81253 0.36087 0.0
H548 H 0.97741 0.69644 0.33964 0.0
H549 H 0.99462 0.77125 0.35311 0.0
H550 H 0.96382 0.82235 0.30944 0.0
H551 H 0.9461 0.74745 0.29603 0.0
C552 C 0.03392 0.93609 0.34125 0.0
C553 C 0.0148 0.93494 0.35621 0.0
C554 C 0.02218 0.89309 0.33337 0.0
C555 C 0.9916 0.84807 0.34038 0.0
C556 C 0.97209 0.84681 0.35527 0.0
C557 C 0.98329 0.88983 0.36306 0.0
C558 C 0.97469 0.72387 0.33292 0.0
C559 C 0.96164 0.71667 0.3167 0.0
C560 C 0.98413 0.7664 0.34064 0.0
C561 C 0.98075 0.8026 0.33228 0.0
C562 C 0.96732 0.79529 0.3161 0.0
C563 C 0.95732 0.75252 0.30843 0.0
H564 H 0.15324 0.10123 0.67945 0.0
H565 H 0.10011 0.95905 0.69956 0.0
H566 H 0.21069 0.0914 0.66396 0.0
H567 H 0.15804 0.94953 0.6842 0.0
H568 H 0.2503 0.93549 0.6469 0.0
H569 H 0.18369 0.94219 0.65735 0.0
H570 H 0.28385 0.09014 0.67154 0.0
H571 H 0.34994 0.08341 0.66107 0.0
C572 C 0.1534 0.06763 0.68042 0.0
C573 C 0.12243 0.03109 0.69085 0.0
C574 C 0.18649 0.06212 0.6716 0.0
C575 C 0.18926 0.01992 0.67298 0.0
C576 C 0.15659 0.98235 0.68279 0.0
C577 C 0.12355 0.9879 0.69165 0.0
C578 C 0.25778 0.96956 0.65207 0.0
C579 C 0.30524 0.00898 0.65314 0.0
C580 C 0.21979 0.97334 0.65811 0.0
C581 C 0.2285 0.0167 0.66526 0.0
C582 C 0.2758 0.05647 0.6659 0.0
C583 C 0.31372 0.05259 0.65996 0.0
H584 H 0.1551 0.14869 0.02972 0.0
H585 H 0.06197 0.20628 0.0201 0.0
H586 H 0.21319 0.20656 0.01092 0.0
H587 H 0.11898 0.26283 0.00134 0.0
H588 H 0.24149 0.38287 0.97624 0.0
H589 H 0.19786 0.33378 -0.00104 0.0
H590 H 0.21537 0.2171 0.98175 0.0
H591 H 0.26035 0.26697 0.95924 0.0
C592 C 0.14728 0.17396 0.02375 0.0
C593 C 0.10381 0.17268 0.02632 0.0
C594 C 0.18034 0.20685 0.01293 0.0
C595 C 0.17067 0.23927 0.00465 0.0
C596 C 0.12793 0.23889 0.00767 0.0
C597 C 0.09497 0.20606 0.01835 0.0
C598 C 0.23694 0.34716 0.97751 0.0
C599 C 0.25493 0.32898 0.9661 0.0
C600 C 0.21166 0.31889 0.99045 0.0
C601 C 0.20308 0.2715 0.99214 0.0
C602 C 0.22205 0.25373 0.98094 0.0
C603 C 0.24754 0.28213 0.96801 0.0
H604 H 0.00265 0.14017 0.34457 0.0
H605 H 0.09295 0.22412 0.38436 0.0
H606 H 0.02205 0.21552 0.33073 0.0
H607 H 0.11108 0.29875 0.37078 0.0
H608 H 0.09506 0.41886 0.3483 0.0
H609 H 0.06019 0.3384 0.3602 0.0
H610 H 0.10916 0.2902 0.32086 0.0
H611 H 0.14511 0.37093 0.30911 0.0
C612 C 0.02612 0.17464 0.3504 0.0
C613 C 0.04658 0.17652 0.36547 0.0
C614 C 0.03722 0.21752 0.34249 0.0
C615 C 0.06779 0.26264 0.34977 0.0
C616 C 0.08707 0.26431 0.365 0.0
C617 C 0.07695 0.22169 0.37271 0.0
C618 C 0.09746 0.39075 0.34205 0.0
C619 C 0.12238 0.40105 0.32773 0.0
C620 C 0.07766 0.34492 0.34885 0.0
C621 C 0.08202 0.30838 0.34138 0.0
C622 C 0.10489 0.31776 0.32671 0.0
C623 C 0.12546 0.36392 0.32002 0.0
loop_
_geom_bond_atom_site_label_1
_geom_bond_atom_site_label_2
_geom_bond_distance
_geom_bond_site_symmetry_2
_ccdc_geom_bond_type
C0 O1 1.306 1_455 S
C0 O3 1.160 . S
O1 C0 1.306 1_655 S
O1 Cd2 2.228 . S
Cd2 O1 2.228 . S
Cd2 O6 2.273 . S
Cd2 O10 2.277 1_655 S
O3 C0 1.160 . S
O3 Cd4 2.203 . S
Cd4 O3 2.203 . S
Cd4 O6 2.411 1_455 S
Cd4 O7 2.333 1_545 S
Cd4 O8 2.352 1_545 S
Cd4 O12 2.277 . S
Cd4 O13 2.356 1_545 S
C5 O10 1.209 . S
C5 O12 1.226 . S
O6 Cd2 2.273 . S
O6 Cd4 2.411 1_655 S
O6 C9 1.320 1_545 S
O7 Cd4 2.333 1_565 S
O7 C9 1.214 1_455 S
O8 Cd4 2.352 1_565 S
O8 C11 1.258 . S
C9 O6 1.320 1_565 S
C9 O7 1.214 1_655 S
O10 Cd2 2.277 1_455 S
O10 C5 1.209 . S
C11 O8 1.258 . S
C11 O13 1.282 . S
O12 Cd4 2.277 . S
O12 C5 1.226 . S
O13 Cd4 2.356 1_565 S
O13 C11 1.282 . S
C14 O15 1.306 . S
C14 O17 1.160 . S
O15 C14 1.306 . S
O15 Cd16 2.228 . S
Cd16 O15 2.228 . S
Cd16 O20 2.273 . S
Cd16 O24 2.277 . S
O17 C14 1.160 . S
O17 Cd18 2.203 . S
Cd18 O17 2.203 . S
Cd18 O20 2.411 . S
Cd18 O21 2.333 1_455 S
Cd18 O22 2.352 1_455 S
Cd18 O26 2.277 1_445 S
Cd18 O27 2.356 1_455 S
C19 O24 1.209 1_565 S
C19 O26 1.226 1_455 S
O20 Cd16 2.273 . S
O20 Cd18 2.411 . S
O20 C23 1.320 . S
O21 Cd18 2.333 1_655 S
O21 C23 1.214 1_655 S
O22 Cd18 2.352 1_655 S
O22 C25 1.258 . S
C23 O20 1.320 . S
C23 O21 1.214 1_455 S
O24 Cd16 2.277 . S
O24 C19 1.209 1_545 S
C25 O22 1.258 . S
C25 O27 1.282 . S
O26 Cd18 2.277 1_665 S
O26 C19 1.226 1_655 S
O27 Cd18 2.356 1_655 S
O27 C25 1.282 . S
C28 O29 1.306 . S
C28 O31 1.160 . S
O29 C28 1.306 . S
O29 Cd30 2.228 . S
Cd30 O29 2.228 . S
Cd30 O34 2.273 1_655 S
Cd30 O38 2.277 . S
O31 C28 1.160 . S
O31 Cd32 2.203 1_655 S
Cd32 O31 2.203 1_455 S
Cd32 O34 2.411 . S
Cd32 O35 2.333 . S
Cd32 O36 2.352 . S
Cd32 O40 2.277 1_445 S
Cd32 O41 2.356 . S
C33 O38 1.209 1_565 S
C33 O40 1.226 . S
O34 Cd30 2.273 1_455 S
O34 Cd32 2.411 . S
O34 C37 1.320 . S
O35 Cd32 2.333 . S
O35 C37 1.214 . S
O36 Cd32 2.352 . S
O36 C39 1.258 . S
C37 O34 1.320 . S
C37 O35 1.214 . S
O38 Cd30 2.277 . S
O38 C33 1.209 1_545 S
C39 O36 1.258 . S
C39 O41 1.282 . S
O40 Cd32 2.277 1_665 S
O40 C33 1.226 . S
O41 Cd32 2.356 . S
O41 C39 1.282 . S
C42 C43 1.560 1_655 S
C42 H103 0.959 . S
C42 H104 0.959 . S
C42 H105 0.960 . S
C43 C42 1.560 1_455 S
C43 O98 1.426 1_455 S
C43 H102 0.980 . S
C44 C45 1.407 . S
C44 C49 1.418 1_455 S
C44 O98 1.334 1_455 S
C45 C44 1.407 . S
C45 C46 1.360 . S
C45 H106 0.929 . S
C46 C45 1.360 . S
C46 C47 1.401 . S
C46 C50 1.527 . S
C47 C46 1.401 . S
C47 C48 1.405 1_455 S
C47 C80 1.587 . S
C48 C47 1.405 1_655 S
C48 C49 1.332 . S
C48 C51 1.496 . S
C49 C44 1.418 1_655 S
C49 C48 1.332 . S
C49 H107 0.929 . S
C50 C46 1.527 . S
C50 H108 0.959 . S
C50 H109 0.961 . S
C50 H110 0.961 . S
C51 C48 1.496 . S
C51 H111 0.960 . S
C51 H112 0.960 . S
C51 H113 0.961 . S
C52 C53 1.517 . S
C52 H115 0.961 . S
C52 H116 0.960 . S
C52 H117 0.959 . S
C53 C52 1.517 . S
C53 O101 1.468 . S
C53 H114 0.980 . S
C54 C55 1.349 . S
C54 C59 1.367 . S
C54 O101 1.408 . S
C55 C54 1.349 . S
C55 C56 1.407 . S
C55 H118 0.930 . S
C56 C55 1.407 . S
C56 C57 1.449 . S
C56 C60 1.535 1_455 S
C57 C56 1.449 . S
C57 C58 1.384 . S
C57 C82 1.553 . S
C58 C57 1.384 . S
C58 C59 1.364 . S
C58 C61 1.450 . S
C59 C54 1.367 . S
C59 C58 1.364 . S
C59 H119 0.931 . S
C60 C56 1.535 1_655 S
C60 H120 0.959 . S
C60 H121 0.961 . S
C60 H122 0.959 . S
C61 C58 1.450 . S
C61 H123 0.960 . S
C61 H124 0.960 . S
C61 H125 0.960 . S
C62 C63 1.309 . S
C62 C67 1.304 . S
C62 O100 1.435 . S
C63 C62 1.309 . S
C63 C64 1.476 . S
C63 H127 0.930 . S
C64 C63 1.476 . S
C64 C65 1.400 . S
C64 C68 1.567 1_455 S
C65 C64 1.400 . S
C65 C66 1.373 . S
C65 C87 1.432 . S
C66 C65 1.373 . S
C66 C67 1.339 . S
C66 C69 1.530 . S
C67 C62 1.304 . S
C67 C66 1.339 . S
C67 H128 0.930 . S
C68 C64 1.567 1_655 S
C68 H129 0.961 . S
C68 H130 0.960 . S
C68 H131 0.958 . S
C69 C66 1.530 . S
C69 H132 0.961 . S
C69 H133 0.960 . S
C69 H134 0.960 . S
C70 C71 1.530 . S
C70 H136 0.961 . S
C70 H137 0.961 1_455 S
C70 H138 0.959 1_455 S
C71 C70 1.530 . S
C71 O99 1.412 . S
C71 H135 0.980 . S
C72 C73 1.288 1_455 S
C72 C77 1.377 . S
C72 O99 1.393 . S
C73 C72 1.288 1_655 S
C73 C74 1.369 . S
C73 H139 0.932 . S
C74 C73 1.369 . S
C74 C75 1.398 1_655 S
C74 C78 1.527 . S
C75 C74 1.398 1_455 S
C75 C76 1.380 . S
C75 C89 1.497 . S
C76 C75 1.380 . S
C76 C77 1.383 . S
C76 C79 1.603 . S
C77 C72 1.377 . S
C77 C76 1.383 . S
C77 H140 0.929 . S
C78 C74 1.527 . S
C78 H141 0.961 . S
C78 H142 0.959 . S
C78 H143 0.959 . S
C79 C76 1.603 . S
C79 H144 0.960 . S
C79 H145 0.962 . S
C79 H146 0.961 . S
C80 C47 1.587 . S
C80 C81 1.360 . S
C80 C93 1.412 . S
C81 C80 1.360 . S
C81 C82 1.365 . S
C81 H147 0.929 . S
C82 C57 1.553 . S
C82 C81 1.365 . S
C82 C83 1.404 . S
C83 C82 1.404 . S
C83 C84 1.395 . S
C83 C94 1.451 . S
C84 C83 1.395 . S
C84 C85 1.322 . S
C84 H148 0.930 . S
C85 C84 1.322 . S
C85 C86 1.459 . S
C85 H149 0.929 . S
C86 C85 1.459 . S
C86 C87 1.445 . S
C86 C95 1.395 . S
C87 C65 1.432 . S
C87 C86 1.445 . S
C87 C88 1.370 . S
C88 C87 1.370 . S
C88 C89 1.438 . S
C88 H150 0.930 . S
C89 C75 1.497 . S
C89 C88 1.438 . S
C89 C90 1.360 . S
C90 C89 1.360 . S
C90 C91 1.401 . S
C90 C95 1.446 . S
C91 C90 1.401 . S
C91 C92 1.347 . S
C91 H151 0.929 . S
C92 C91 1.347 . S
C92 C93 1.455 . S
C92 H152 0.930 . S
C93 C80 1.412 . S
C93 C92 1.455 . S
C93 C94 1.331 . S
C94 C83 1.451 . S
C94 C93 1.331 . S
C94 C95 1.497 . S
C95 C86 1.395 . S
C95 C90 1.446 . S
C95 C94 1.497 . S
C96 C97 1.582 . S
C96 H153 0.962 . S
C96 H154 0.959 . S
C96 H155 0.958 . S
C97 C96 1.582 . S
C97 O100 1.458 . S
C97 H126 0.980 . S
O98 C43 1.426 1_655 S
O98 C44 1.334 1_655 S
O99 C71 1.412 . S
O99 C72 1.393 . S
O100 C62 1.435 . S
O100 C97 1.458 . S
O101 C53 1.468 . S
O101 C54 1.408 . S
H102 C43 0.980 . S
H103 C42 0.959 . S
H104 C42 0.959 . S
H105 C42 0.960 . S
H106 C45 0.929 . S
H107 C49 0.929 . S
H108 C50 0.959 . S
H109 C50 0.961 . S
H110 C50 0.961 . S
H111 C51 0.960 . S
H112 C51 0.960 . S
H113 C51 0.961 . S
H114 C53 0.980 . S
H115 C52 0.961 . S
H116 C52 0.960 . S
H117 C52 0.959 . S
H118 C55 0.930 . S
H119 C59 0.931 . S
H120 C60 0.959 . S
H121 C60 0.961 . S
H122 C60 0.959 . S
H123 C61 0.960 . S
H124 C61 0.960 . S
H125 C61 0.960 . S
H126 C97 0.980 . S
H127 C63 0.930 . S
H128 C67 0.930 . S
H129 C68 0.961 . S
H130 C68 0.960 . S
H131 C68 0.958 . S
H132 C69 0.961 . S
H133 C69 0.960 . S
H134 C69 0.960 . S
H135 C71 0.980 . S
H136 C70 0.961 . S
H137 C70 0.961 1_655 S
H138 C70 0.959 1_655 S
H139 C73 0.932 . S
H140 C77 0.929 . S
H141 C78 0.961 . S
H142 C78 0.959 . S
H143 C78 0.959 . S
H144 C79 0.960 . S
H145 C79 0.962 . S
H146 C79 0.961 . S
H147 C81 0.929 . S
H148 C84 0.930 . S
H149 C85 0.929 . S
H150 C88 0.930 . S
H151 C91 0.929 . S
H152 C92 0.930 . S
H153 C96 0.962 . S
H154 C96 0.959 . S
H155 C96 0.958 . S
C156 C157 1.560 1_565 S
C156 H217 0.959 . S
C156 H218 0.959 . S
C156 H219 0.960 1_565 S
C157 C156 1.560 1_545 S
C157 O212 1.426 . S
C157 H216 0.980 . S
C158 C159 1.407 . S
C158 C163 1.418 1_545 S
C158 O212 1.334 . S
C159 C158 1.407 . S
C159 C160 1.360 . S
C159 H220 0.929 . S
C160 C159 1.360 . S
C160 C161 1.401 . S
C160 C164 1.527 . S
C161 C160 1.401 . S
C161 C162 1.405 . S
C161 C194 1.587 . S
C162 C161 1.405 . S
C162 C163 1.332 1_545 S
C162 C165 1.496 1_545 S
C163 C158 1.418 1_565 S
C163 C162 1.332 1_565 S
C163 H221 0.929 . S
C164 C160 1.527 . S
C164 H222 0.959 . S
C164 H223 0.961 . S
C164 H224 0.961 . S
C165 C162 1.496 1_565 S
C165 H225 0.960 . S
C165 H226 0.960 . S
C165 H227 0.961 . S
C166 C167 1.517 . S
C166 H229 0.961 . S
C166 H230 0.960 . S
C166 H231 0.959 . S
C167 C166 1.517 . S
C167 O215 1.468 . S
C167 H228 0.980 . S
C168 C169 1.349 . S
C168 C173 1.367 . S
C168 O215 1.408 . S
C169 C168 1.349 . S
C169 C170 1.407 . S
C169 H232 0.930 . S
C170 C169 1.407 . S
C170 C171 1.449 . S
C170 C174 1.535 . S
C171 C170 1.449 . S
C171 C172 1.384 . S
C171 C196 1.553 . S
C172 C171 1.384 . S
C172 C173 1.364 . S
C172 C175 1.450 . S
C173 C168 1.367 . S
C173 C172 1.364 . S
C173 H233 0.931 . S
C174 C170 1.535 . S
C174 H234 0.959 . S
C174 H235 0.961 1_545 S
C174 H236 0.959 1_545 S
C175 C172 1.450 . S
C175 H237 0.960 . S
C175 H238 0.960 . S
C175 H239 0.960 . S
C176 C177 1.309 . S
C176 C181 1.304 . S
C176 O214 1.435 . S
C177 C176 1.309 . S
C177 C178 1.476 . S
C177 H241 0.930 . S
C178 C177 1.476 . S
C178 C179 1.400 . S
C178 C182 1.567 1_545 S
C179 C178 1.400 . S
C179 C180 1.373 . S
C179 C201 1.432 . S
C180 C179 1.373 . S
C180 C181 1.339 . S
C180 C183 1.530 . S
C181 C176 1.304 . S
C181 C180 1.339 . S
C181 H242 0.930 . S
C182 C178 1.567 1_565 S
C182 H243 0.961 . S
C182 H244 0.960 . S
C182 H245 0.958 . S
C183 C180 1.530 . S
C183 H246 0.961 . S
C183 H247 0.960 . S
C183 H248 0.960 . S
C184 C185 1.530 . S
C184 H250 0.961 . S
C184 H251 0.961 1_545 S
C184 H252 0.959 1_545 S
C185 C184 1.530 . S
C185 O213 1.412 . S
C185 H249 0.980 . S
C186 C187 1.288 1_545 S
C186 C191 1.377 . S
C186 O213 1.393 . S
C187 C186 1.288 1_565 S
C187 C188 1.369 1_565 S
C187 H253 0.932 . S
C188 C187 1.369 1_545 S
C188 C189 1.398 . S
C188 C192 1.527 1_545 S
C189 C188 1.398 . S
C189 C190 1.380 . S
C189 C203 1.497 . S
C190 C189 1.380 . S
C190 C191 1.383 . S
C190 C193 1.603 . S
C191 C186 1.377 . S
C191 C190 1.383 . S
C191 H254 0.929 . S
C192 C188 1.527 1_565 S
C192 H255 0.961 . S
C192 H256 0.959 . S
C192 H257 0.959 . S
C193 C190 1.603 . S
C193 H258 0.960 . S
C193 H259 0.962 . S
C193 H260 0.961 . S
C194 C161 1.587 . S
C194 C195 1.360 . S
C194 C207 1.412 . S
C195 C194 1.360 . S
C195 C196 1.365 . S
C195 H261 0.929 . S
C196 C171 1.553 . S
C196 C195 1.365 . S
C196 C197 1.404 . S
C197 C196 1.404 . S
C197 C198 1.395 . S
C197 C208 1.451 . S
C198 C197 1.395 . S
C198 C199 1.322 . S
C198 H262 0.930 . S
C199 C198 1.322 . S
C199 C200 1.459 . S
C199 H263 0.929 . S
C200 C199 1.459 . S
C200 C201 1.445 . S
C200 C209 1.395 . S
C201 C179 1.432 . S
C201 C200 1.445 . S
C201 C202 1.370 . S
C202 C201 1.370 . S
C202 C203 1.438 . S
C202 H264 0.930 . S
C203 C189 1.497 . S
C203 C202 1.438 . S
C203 C204 1.360 . S
C204 C203 1.360 . S
C204 C205 1.401 . S
C204 C209 1.446 . S
C205 C204 1.401 . S
C205 C206 1.347 . S
C205 H265 0.929 . S
C206 C205 1.347 . S
C206 C207 1.455 . S
C206 H266 0.930 . S
C207 C194 1.412 . S
C207 C206 1.455 . S
C207 C208 1.331 . S
C208 C197 1.451 . S
C208 C207 1.331 . S
C208 C209 1.497 . S
C209 C200 1.395 . S
C209 C204 1.446 . S
C209 C208 1.497 . S
C210 C211 1.582 . S
C210 H267 0.962 . S
C210 H268 0.959 . S
C210 H269 0.958 . S
C211 C210 1.582 . S
C211 O214 1.458 . S
C211 H240 0.980 . S
O212 C157 1.426 . S
O212 C158 1.334 . S
O213 C185 1.412 . S
O213 C186 1.393 . S
O214 C176 1.435 . S
O214 C211 1.458 . S
O215 C167 1.468 . S
O215 C168 1.408 . S
H216 C157 0.980 . S
H217 C156 0.959 . S
H218 C156 0.959 . S
H219 C156 0.960 1_545 S
H220 C159 0.929 . S
H221 C163 0.929 . S
H222 C164 0.959 . S
H223 C164 0.961 . S
H224 C164 0.961 . S
H225 C165 0.960 . S
H226 C165 0.960 . S
H227 C165 0.961 . S
H228 C167 0.980 . S
H229 C166 0.961 . S
H230 C166 0.960 . S
H231 C166 0.959 . S
H232 C169 0.930 . S
H233 C173 0.931 . S
H234 C174 0.959 . S
H235 C174 0.961 1_565 S
H236 C174 0.959 1_565 S
H237 C175 0.960 . S
H238 C175 0.960 . S
H239 C175 0.960 . S
H240 C211 0.980 . S
H241 C177 0.930 . S
H242 C181 0.930 . S
H243 C182 0.961 . S
H244 C182 0.960 . S
H245 C182 0.958 . S
H246 C183 0.961 . S
H247 C183 0.960 . S
H248 C183 0.960 . S
H249 C185 0.980 . S
H250 C184 0.961 . S
H251 C184 0.961 1_565 S
H252 C184 0.959 1_565 S
H253 C187 0.932 . S
H254 C191 0.929 . S
H255 C192 0.961 . S
H256 C192 0.959 . S
H257 C192 0.959 . S
H258 C193 0.960 . S
H259 C193 0.962 . S
H260 C193 0.961 . S
H261 C195 0.929 . S
H262 C198 0.930 . S
H263 C199 0.929 . S
H264 C202 0.930 . S
H265 C205 0.929 . S
H266 C206 0.930 . S
H267 C210 0.962 . S
H268 C210 0.959 . S
H269 C210 0.958 . S
C270 C271 1.560 . S
C270 H331 0.959 . S
C270 H332 0.959 . S
C270 H333 0.960 . S
C271 C270 1.560 . S
C271 O326 1.426 . S
C271 H330 0.980 . S
C272 C273 1.407 . S
C272 C277 1.418 . S
C272 O326 1.334 . S
C273 C272 1.407 . S
C273 C274 1.360 . S
C273 H334 0.929 . S
C274 C273 1.360 . S
C274 C275 1.401 . S
C274 C278 1.527 . S
C275 C274 1.401 . S
C275 C276 1.405 . S
C275 C308 1.587 . S
C276 C275 1.405 . S
C276 C277 1.332 . S
C276 C279 1.496 . S
C277 C272 1.418 . S
C277 C276 1.332 . S
C277 H335 0.929 . S
C278 C274 1.527 . S
C278 H336 0.959 . S
C278 H337 0.961 . S
C278 H338 0.961 . S
C279 C276 1.496 . S
C279 H339 0.960 . S
C279 H340 0.960 . S
C279 H341 0.961 . S
C280 C281 1.517 . S
C280 H343 0.961 . S
C280 H344 0.960 . S
C280 H345 0.959 . S
C281 C280 1.517 . S
C281 O329 1.468 . S
C281 H342 0.980 . S
C282 C283 1.349 . S
C282 C287 1.367 . S
C282 O329 1.408 . S
C283 C282 1.349 . S
C283 C284 1.407 . S
C283 H346 0.930 . S
C284 C283 1.407 . S
C284 C285 1.449 . S
C284 C288 1.535 . S
C285 C284 1.449 . S
C285 C286 1.384 . S
C285 C310 1.553 . S
C286 C285 1.384 . S
C286 C287 1.364 . S
C286 C289 1.450 . S
C287 C282 1.367 . S
C287 C286 1.364 . S
C287 H347 0.931 . S
C288 C284 1.535 . S
C288 H348 0.959 . S
C288 H349 0.961 . S
C288 H350 0.959 . S
C289 C286 1.450 . S
C289 H351 0.960 . S
C289 H352 0.960 . S
C289 H353 0.960 . S
C290 C291 1.309 . S
C290 C295 1.304 . S
C290 O328 1.435 . S
C291 C290 1.309 . S
C291 C292 1.476 . S
C291 H355 0.930 . S
C292 C291 1.476 . S
C292 C293 1.400 . S
C292 C296 1.567 . S
C293 C292 1.400 . S
C293 C294 1.373 . S
C293 C315 1.432 . S
C294 C293 1.373 . S
C294 C295 1.339 . S
C294 C297 1.530 . S
C295 C290 1.304 . S
C295 C294 1.339 . S
C295 H356 0.930 . S
C296 C292 1.567 . S
C296 H357 0.961 . S
C296 H358 0.960 . S
C296 H359 0.958 . S
C297 C294 1.530 . S
C297 H360 0.961 . S
C297 H361 0.960 . S
C297 H362 0.960 . S
C298 C299 1.530 . S
C298 H364 0.961 . S
C298 H365 0.961 . S
C298 H366 0.959 . S
C299 C298 1.530 . S
C299 O327 1.412 . S
C299 H363 0.980 . S
C300 C301 1.288 . S
C300 C305 1.377 . S
C300 O327 1.393 . S
C301 C300 1.288 . S
C301 C302 1.369 . S
C301 H367 0.932 . S
C302 C301 1.369 . S
C302 C303 1.398 . S
C302 C306 1.527 . S
C303 C302 1.398 . S
C303 C304 1.380 . S
C303 C317 1.497 . S
C304 C303 1.380 . S
C304 C305 1.383 . S
C304 C307 1.603 . S
C305 C300 1.377 . S
C305 C304 1.383 . S
C305 H368 0.929 . S
C306 C302 1.527 . S
C306 H369 0.961 . S
C306 H370 0.959 . S
C306 H371 0.959 . S
C307 C304 1.603 . S
C307 H372 0.960 . S
C307 H373 0.962 . S
C307 H374 0.961 . S
C308 C275 1.587 . S
C308 C309 1.360 . S
C308 C321 1.412 . S
C309 C308 1.360 . S
C309 C310 1.365 . S
C309 H375 0.929 . S
C310 C285 1.553 . S
C310 C309 1.365 . S
C310 C311 1.404 . S
C311 C310 1.404 . S
C311 C312 1.395 . S
C311 C322 1.451 . S
C312 C311 1.395 . S
C312 C313 1.322 . S
C312 H376 0.930 . S
C313 C312 1.322 . S
C313 C314 1.459 . S
C313 H377 0.929 . S
C314 C313 1.459 . S
C314 C315 1.445 . S
C314 C323 1.395 . S
C315 C293 1.432 . S
C315 C314 1.445 . S
C315 C316 1.370 . S
C316 C315 1.370 . S
C316 C317 1.438 . S
C316 H378 0.930 . S
C317 C303 1.497 . S
C317 C316 1.438 . S
C317 C318 1.360 . S
C318 C317 1.360 . S
C318 C319 1.401 . S
C318 C323 1.446 . S
C319 C318 1.401 . S
C319 C320 1.347 . S
C319 H379 0.929 . S
C320 C319 1.347 . S
C320 C321 1.455 . S
C320 H380 0.930 . S
C321 C308 1.412 . S
C321 C320 1.455 . S
C321 C322 1.331 . S
C322 C311 1.451 . S
C322 C321 1.331 . S
C322 C323 1.497 . S
C323 C314 1.395 . S
C323 C318 1.446 . S
C323 C322 1.497 . S
C324 C325 1.582 . S
C324 H381 0.962 . S
C324 H382 0.959 . S
C324 H383 0.958 . S
C325 C324 1.582 . S
C325 O328 1.458 . S
C325 H354 0.980 . S
O326 C271 1.426 . S
O326 C272 1.334 . S
O327 C299 1.412 . S
O327 C300 1.393 . S
O328 C290 1.435 . S
O328 C325 1.458 . S
O329 C281 1.468 . S
O329 C282 1.408 . S
H330 C271 0.980 . S
H331 C270 0.959 . S
H332 C270 0.959 . S
H333 C270 0.960 . S
H334 C273 0.929 . S
H335 C277 0.929 . S
H336 C278 0.959 . S
H337 C278 0.961 . S
H338 C278 0.961 . S
H339 C279 0.960 . S
H340 C279 0.960 . S
H341 C279 0.961 . S
H342 C281 0.980 . S
H343 C280 0.961 . S
H344 C280 0.960 . S
H345 C280 0.959 . S
H346 C283 0.930 . S
H347 C287 0.931 . S
H348 C288 0.959 . S
H349 C288 0.961 . S
H350 C288 0.959 . S
H351 C289 0.960 . S
H352 C289 0.960 . S
H353 C289 0.960 . S
H354 C325 0.980 . S
H355 C291 0.930 . S
H356 C295 0.930 . S
H357 C296 0.961 . S
H358 C296 0.960 . S
H359 C296 0.958 . S
H360 C297 0.961 . S
H361 C297 0.960 . S
H362 C297 0.960 . S
H363 C299 0.980 . S
H364 C298 0.961 . S
H365 C298 0.961 . S
H366 C298 0.959 . S
H367 C301 0.932 . S
H368 C305 0.929 . S
H369 C306 0.961 . S
H370 C306 0.959 . S
H371 C306 0.959 . S
H372 C307 0.960 . S
H373 C307 0.962 . S
H374 C307 0.961 . S
H375 C309 0.929 . S
H376 C312 0.930 . S
H377 C313 0.929 . S
H378 C316 0.930 . S
H379 C319 0.929 . S
H380 C320 0.930 . S
H381 C324 0.962 . S
H382 C324 0.959 . S
H383 C324 0.958 . S
H384 C392 0.950 . S
H385 C397 0.950 . S
H386 C394 0.950 . S
H387 C396 0.950 . S
H388 C398 0.950 . S
H389 C400 0.950 . S
H390 C402 0.950 . S
H391 C403 0.950 . S
C392 H384 0.950 . S
C392 C393 1.386 1_655 S
C392 C394 1.391 . S
C393 C392 1.386 1_455 S
C393 C397 1.393 . S
C394 H386 0.950 . S
C394 C392 1.391 . S
C394 C395 1.400 1_655 S
C395 C394 1.400 1_455 S
C395 C396 1.398 . S
C395 C401 1.491 . S
C396 H387 0.950 . S
C396 C395 1.398 . S
C396 C397 1.391 . S
C397 H385 0.950 . S
C397 C393 1.393 . S
C397 C396 1.391 . S
C398 H388 0.950 . S
C398 C399 1.386 . S
C398 C400 1.391 . S
C399 C398 1.386 . S
C399 C403 1.393 1_455 S
C400 H389 0.950 . S
C400 C398 1.391 . S
C400 C401 1.400 . S
C401 C395 1.491 . S
C401 C400 1.400 . S
C401 C402 1.398 1_455 S
C402 H390 0.950 . S
C402 C401 1.398 1_655 S
C402 C403 1.391 . S
C403 H391 0.950 . S
C403 C399 1.393 1_655 S
C403 C402 1.391 . S
H404 C412 0.950 . S
H405 C417 0.950 . S
H406 C414 0.950 . S
H407 C416 0.950 . S
H408 C418 0.950 . S
H409 C420 0.950 . S
H410 C422 0.950 . S
H411 C423 0.950 . S
C412 H404 0.950 . S
C412 C413 1.386 . S
C412 C414 1.391 . S
C413 C412 1.386 . S
C413 C417 1.393 . S
C414 H406 0.950 . S
C414 C412 1.391 . S
C414 C415 1.400 . S
C415 C414 1.400 . S
C415 C416 1.398 . S
C415 C421 1.491 . S
C416 H407 0.950 . S
C416 C415 1.398 . S
C416 C417 1.391 . S
C417 H405 0.950 . S
C417 C413 1.393 . S
C417 C416 1.391 . S
C418 H408 0.950 . S
C418 C419 1.386 . S
C418 C420 1.391 . S
C419 C418 1.386 . S
C419 C423 1.393 . S
C420 H409 0.950 . S
C420 C418 1.391 . S
C420 C421 1.400 . S
C421 C415 1.491 . S
C421 C420 1.400 . S
C421 C422 1.398 . S
C422 H410 0.950 . S
C422 C421 1.398 . S
C422 C423 1.391 . S
C423 H411 0.950 . S
C423 C419 1.393 . S
C423 C422 1.391 . S
H424 C432 0.950 . S
H425 C437 0.950 . S
H426 C434 0.950 . S
H427 C436 0.950 . S
H428 C438 0.950 . S
H429 C440 0.950 . S
H430 C442 0.950 . S
H431 C443 0.950 . S
C432 H424 0.950 . S
C432 C433 1.386 . S
C432 C434 1.391 . S
C433 C432 1.386 . S
C433 C437 1.393 . S
C434 H426 0.950 . S
C434 C432 1.391 . S
C434 C435 1.400 . S
C435 C434 1.400 . S
C435 C436 1.398 . S
C435 C441 1.491 . S
C436 H427 0.950 . S
C436 C435 1.398 . S
C436 C437 1.391 . S
C437 H425 0.950 . S
C437 C433 1.393 . S
C437 C436 1.391 . S
C438 H428 0.950 . S
C438 C439 1.386 . S
C438 C440 1.391 . S
C439 C438 1.386 . S
C439 C443 1.393 . S
C440 H429 0.950 . S
C440 C438 1.391 . S
C440 C441 1.400 . S
C441 C435 1.491 . S
C441 C440 1.400 . S
C441 C442 1.398 . S
C442 H430 0.950 . S
C442 C441 1.398 . S
C442 C443 1.391 . S
C443 H431 0.950 . S
C443 C439 1.393 . S
C443 C442 1.391 . S
H444 C452 0.950 . S
H445 C457 0.931 1_655 S
H446 C454 0.950 . S
H447 C456 0.950 1_655 S
H448 C458 0.950 1_655 S
H449 C460 0.950 1_655 S
H450 C462 0.950 . S
H451 C463 0.950 . S
C452 H444 0.950 . S
C452 C453 1.386 . S
C452 C454 1.391 . S
C453 C452 1.386 . S
C453 C457 1.402 . S
C454 H446 0.950 . S
C454 C452 1.391 . S
C454 C455 1.400 . S
C455 C454 1.400 . S
C455 C456 1.398 . S
C455 C461 1.491 . S
C456 H447 0.950 1_455 S
C456 C455 1.398 . S
C456 C457 1.401 . S
C457 H445 0.931 1_455 S
C457 C453 1.402 . S
C457 C456 1.401 . S
C458 H448 0.950 1_455 S
C458 C459 1.386 . S
C458 C460 1.391 . S
C459 C458 1.386 . S
C459 C463 1.393 . S
C460 H449 0.950 1_455 S
C460 C458 1.391 . S
C460 C461 1.400 . S
C461 C455 1.491 . S
C461 C460 1.400 . S
C461 C462 1.398 . S
C462 H450 0.950 . S
C462 C461 1.398 . S
C462 C463 1.391 . S
C463 H451 0.950 . S
C463 C459 1.393 . S
C463 C462 1.391 . S
H464 C472 0.948 1_565 S
H465 C477 0.950 . S
H466 C474 0.950 . S
H467 C476 0.950 . S
H468 C478 0.950 . S
H469 C480 0.950 . S
H470 C482 0.950 . S
H471 C483 0.950 . S
C472 H464 0.948 1_545 S
C472 C473 1.386 . S
C472 C474 1.391 . S
C473 C472 1.386 . S
C473 C477 1.393 . S
C474 H466 0.950 . S
C474 C472 1.391 . S
C474 C475 1.400 . S
C475 C474 1.400 . S
C475 C476 1.398 . S
C475 C481 1.491 . S
C476 H467 0.950 . S
C476 C475 1.398 . S
C476 C477 1.391 . S
C477 H465 0.950 . S
C477 C473 1.393 . S
C477 C476 1.391 . S
C478 H468 0.950 . S
C478 C479 1.386 . S
C478 C480 1.391 . S
C479 C478 1.386 . S
C479 C483 1.393 . S
C480 H469 0.950 . S
C480 C478 1.391 . S
C480 C481 1.400 . S
C481 C475 1.491 . S
C481 C480 1.400 . S
C481 C482 1.398 . S
C482 H470 0.950 . S
C482 C481 1.398 . S
C482 C483 1.391 . S
C483 H471 0.950 . S
C483 C479 1.393 . S
C483 C482 1.391 . S
H484 C492 0.950 . S
H485 C497 0.950 . S
H486 C494 0.950 . S
H487 C496 0.950 . S
H488 C498 0.950 . S
H489 C500 0.950 . S
H490 C502 0.950 . S
H491 C503 0.950 . S
C492 H484 0.950 . S
C492 C493 1.386 . S
C492 C494 1.391 . S
C493 C492 1.386 . S
C493 C497 1.393 . S
C494 H486 0.950 . S
C494 C492 1.391 . S
C494 C495 1.400 . S
C495 C494 1.400 . S
C495 C496 1.398 . S
C495 C501 1.491 . S
C496 H487 0.950 . S
C496 C495 1.398 . S
C496 C497 1.391 . S
C497 H485 0.950 . S
C497 C493 1.393 . S
C497 C496 1.391 . S
C498 H488 0.950 . S
C498 C499 1.386 . S
C498 C500 1.391 . S
C499 C498 1.386 . S
C499 C503 1.393 . S
C500 H489 0.950 . S
C500 C498 1.391 . S
C500 C501 1.400 . S
C501 C495 1.491 . S
C501 C500 1.400 . S
C501 C502 1.398 . S
C502 H490 0.950 . S
C502 C501 1.398 . S
C502 C503 1.391 . S
C503 H491 0.950 . S
C503 C499 1.393 . S
C503 C502 1.391 . S
H504 C512 0.950 . S
H505 C517 0.950 . S
H506 C514 0.950 . S
H507 C516 0.950 . S
H508 C518 0.950 . S
H509 C520 0.950 . S
H510 C522 0.950 . S
H511 C523 0.950 . S
C512 H504 0.950 . S
C512 C513 1.386 . S
C512 C514 1.391 . S
C513 C512 1.386 . S
C513 C517 1.393 . S
C514 H506 0.950 . S
C514 C512 1.391 . S
C514 C515 1.400 . S
C515 C514 1.400 . S
C515 C516 1.398 . S
C515 C521 1.491 . S
C516 H507 0.950 . S
C516 C515 1.398 . S
C516 C517 1.391 . S
C517 H505 0.950 . S
C517 C513 1.393 . S
C517 C516 1.391 . S
C518 H508 0.950 . S
C518 C519 1.386 . S
C518 C520 1.391 . S
C519 C518 1.386 . S
C519 C523 1.393 . S
C520 H509 0.950 . S
C520 C518 1.391 . S
C520 C521 1.400 . S
C521 C515 1.491 . S
C521 C520 1.400 . S
C521 C522 1.398 . S
C522 H510 0.950 . S
C522 C521 1.398 . S
C522 C523 1.391 . S
C523 H511 0.950 . S
C523 C519 1.393 . S
C523 C522 1.391 . S
H524 C532 0.950 . S
H525 C537 0.950 . S
H526 C534 0.950 . S
H527 C536 0.950 . S
H528 C538 0.950 . S
H529 C540 0.950 1_554 S
H530 C542 0.950 . S
H531 C543 0.950 . S
C532 H524 0.950 . S
C532 C533 1.386 . S
C532 C534 1.391 . S
C533 C532 1.386 . S
C533 C537 1.393 . S
C534 H526 0.950 . S
C534 C532 1.391 . S
C534 C535 1.400 . S
C535 C534 1.400 . S
C535 C536 1.398 . S
C535 C541 1.491 . S
C536 H527 0.950 . S
C536 C535 1.398 . S
C536 C537 1.391 . S
C537 H525 0.950 . S
C537 C533 1.393 . S
C537 C536 1.391 . S
C538 H528 0.950 . S
C538 C539 1.386 . S
C538 C540 1.391 . S
C539 C538 1.386 . S
C539 C543 1.393 . S
C540 H529 0.950 1_556 S
C540 C538 1.391 . S
C540 C541 1.400 1_556 S
C541 C535 1.491 . S
C541 C540 1.400 1_554 S
C541 C542 1.398 1_554 S
C542 H530 0.950 . S
C542 C541 1.398 1_556 S
C542 C543 1.391 . S
C543 H531 0.950 . S
C543 C539 1.393 . S
C543 C542 1.391 . S
H544 C552 0.950 . S
H545 C557 0.950 . S
H546 C554 0.950 . S
H547 C556 0.950 . S
H548 C558 0.950 . S
H549 C560 0.950 . S
H550 C562 0.950 . S
H551 C563 0.950 . S
C552 H544 0.950 . S
C552 C553 1.386 . S
C552 C554 1.391 . S
C553 C552 1.386 . S
C553 C557 1.393 . S
C554 H546 0.950 . S
C554 C552 1.391 . S
C554 C555 1.400 . S
C555 C554 1.400 . S
C555 C556 1.398 . S
C555 C561 1.491 . S
C556 H547 0.950 . S
C556 C555 1.398 . S
C556 C557 1.391 . S
C557 H545 0.950 . S
C557 C553 1.393 . S
C557 C556 1.391 . S
C558 H548 0.950 . S
C558 C559 1.386 . S
C558 C560 1.391 . S
C559 C558 1.386 . S
C559 C563 1.393 . S
C560 H549 0.950 . S
C560 C558 1.391 . S
C560 C561 1.400 . S
C561 C555 1.491 . S
C561 C560 1.400 . S
C561 C562 1.398 . S
C562 H550 0.950 . S
C562 C561 1.398 . S
C562 C563 1.391 . S
C563 H551 0.950 . S
C563 C559 1.393 . S
C563 C562 1.391 . S
H564 C572 0.950 . S
H565 C577 0.950 1_565 S
H566 C574 0.950 . S
H567 C576 0.950 1_565 S
H568 C578 0.950 1_565 S
H569 C580 0.950 1_565 S
H570 C582 0.950 . S
H571 C583 0.950 . S
C572 H564 0.950 . S
C572 C573 1.386 . S
C572 C574 1.391 . S
C573 C572 1.386 . S
C573 C577 1.393 . S
C574 H566 0.950 . S
C574 C572 1.391 . S
C574 C575 1.400 . S
C575 C574 1.400 . S
C575 C576 1.398 . S
C575 C581 1.491 . S
C576 H567 0.950 1_545 S
C576 C575 1.398 . S
C576 C577 1.391 . S
C577 H565 0.950 1_545 S
C577 C573 1.393 . S
C577 C576 1.391 . S
C578 H568 0.950 1_545 S
C578 C579 1.386 . S
C578 C580 1.391 . S
C579 C578 1.386 . S
C579 C583 1.393 . S
C580 H569 0.950 1_545 S
C580 C578 1.391 . S
C580 C581 1.400 . S
C581 C575 1.491 . S
C581 C580 1.400 . S
C581 C582 1.398 . S
C582 H570 0.950 . S
C582 C581 1.398 . S
C582 C583 1.391 . S
C583 H571 0.950 . S
C583 C579 1.393 . S
C583 C582 1.391 . S
H584 C592 0.950 . S
H585 C597 0.950 . S
H586 C594 0.950 . S
H587 C596 0.950 . S
H588 C598 0.950 . S
H589 C600 0.950 1_554 S
H590 C602 0.950 . S
H591 C603 0.950 . S
C592 H584 0.950 . S
C592 C593 1.386 . S
C592 C594 1.391 . S
C593 C592 1.386 . S
C593 C597 1.393 . S
C594 H586 0.950 . S
C594 C592 1.391 . S
C594 C595 1.400 . S
C595 C594 1.400 . S
C595 C596 1.398 . S
C595 C601 1.491 1_554 S
C596 H587 0.950 . S
C596 C595 1.398 . S
C596 C597 1.391 . S
C597 H585 0.950 . S
C597 C593 1.393 . S
C597 C596 1.391 . S
C598 H588 0.950 . S
C598 C599 1.386 . S
C598 C600 1.391 . S
C599 C598 1.386 . S
C599 C603 1.393 . S
C600 H589 0.950 1_556 S
C600 C598 1.391 . S
C600 C601 1.400 . S
C601 C595 1.491 1_556 S
C601 C600 1.400 . S
C601 C602 1.398 . S
C602 H590 0.950 . S
C602 C601 1.398 . S
C602 C603 1.391 . S
C603 H591 0.950 . S
C603 C599 1.393 . S
C603 C602 1.391 . S
H604 C612 0.950 . S
H605 C617 0.950 1_655 S
H606 C614 0.950 . S
H607 C616 0.955 . S
H608 C618 0.950 . S
H609 C620 0.950 . S
H610 C622 0.950 . S
H611 C623 0.950 . S
C612 H604 0.950 . S
C612 C613 1.386 . S
C612 C614 1.391 . S
C613 C612 1.386 . S
C613 C617 1.393 . S
C614 H606 0.950 . S
C614 C612 1.391 . S
C614 C615 1.400 . S
C615 C614 1.400 . S
C615 C616 1.398 . S
C615 C621 1.491 . S
C616 H607 0.955 . S
C616 C615 1.398 . S
C616 C617 1.391 . S
C617 H605 0.950 1_455 S
C617 C613 1.393 . S
C617 C616 1.391 . S
C618 H608 0.950 . S
C618 C619 1.386 . S
C618 C620 1.391 . S
C619 C618 1.386 . S
C619 C623 1.393 . S
C620 H609 0.950 . S
C620 C618 1.391 . S
C620 C621 1.400 . S
C621 C615 1.491 . S
C621 C620 1.400 . S
C621 C622 1.398 . S
C622 H610 0.950 . S
C622 C621 1.398 . S
C622 C623 1.391 . S
C623 H611 0.950 . S
C623 C619 1.393 . S
C623 C622 1.391 . S
C399 C97 1.163 . S
C393 C0 1.536 . S
C413 C25 1.569 . S
C419 C211 1.180 . S
C433 C33 1.357 . S
C439 C271 1.083 . S
C453 C11 1.364 . S
C459 C71 1.115 . S
C479 C185 1.129 . S
C473 C14 1.415 . S
C493 C37 1.525 . S
C499 C281 0.981 . S
C519 C167 0.927 . S
C513 C28 1.492 . S
C533 C9 1.447 . S
C539 C299 1.111 . S
C559 C43 1.075 . S
C553 C19 1.375 . S
C579 C157 1.079 . S
C573 C39 1.332 . S
C599 C325 1.234 . S
C593 C5 1.582 . S
C613 C23 1.552 . S
C619 C53 0.921 . S
