# Generated by pormake.
# Topology zzz, (3,6)-cn, num edge types: 1
# Building blocks:
#     Node 0, Type 0, BuildingBlock: KAKCAD_clean_linker_0, # of connection points: 3
#     Node 1, Type 0, BuildingBlock: KAKCAD_clean_linker_0, # of connection points: 3
#     Node 2, Type 0, BuildingBlock: KAKCAD_clean_linker_0, # of connection points: 3
#     Node 3, Type 0, BuildingBlock: KAKCAD_clean_linker_0, # of connection points: 3
#     Node 4, Type 0, BuildingBlock: KAKCAD_clean_linker_0, # of connection points: 3
#     Node 5, Type 0, BuildingBlock: KAKCAD_clean_linker_0, # of connection points: 3
#     Node 6, Type 0, BuildingBlock: KAKCAD_clean_linker_0, # of connection points: 3
#     Node 7, Type 0, BuildingBlock: KAKCAD_clean_linker_0, # of connection points: 3
#     Node 8, Type 1, BuildingBlock: PAMTOO_clean_sbu_0, # of connection points: 6
#     Node 9, Type 1, BuildingBlock: PAMTOO_clean_sbu_0, # of connection points: 6
#     Node 10, Type 1, BuildingBlock: PAMTOO_clean_sbu_0, # of connection points: 6
#     Node 11, Type 1, BuildingBlock: PAMTOO_clean_sbu_0, # of connection points: 6
#     Edge 12, Type (0, 1), BuildingBlock: ZUJKAS_clean_linker_0, # of connection points: 2
#     Edge 13, Type (0, 1), BuildingBlock: ZUJKAS_clean_linker_0, # of connection points: 2
#     Edge 14, Type (0, 1), BuildingBlock: ZUJKAS_clean_linker_0, # of connection points: 2
#     Edge 15, Type (0, 1), BuildingBlock: ZUJKAS_clean_linker_0, # of connection points: 2
#     Edge 16, Type (0, 1), BuildingBlock: ZUJKAS_clean_linker_0, # of connection points: 2
#     Edge 17, Type (0, 1), BuildingBlock: ZUJKAS_clean_linker_0, # of connection points: 2
#     Edge 18, Type (0, 1), BuildingBlock: ZUJKAS_clean_linker_0, # of connection points: 2
#     Edge 19, Type (0, 1), BuildingBlock: ZUJKAS_clean_linker_0, # of connection points: 2
#     Edge 20, Type (0, 1), BuildingBlock: ZUJKAS_clean_linker_0, # of connection points: 2
#     Edge 21, Type (0, 1), BuildingBlock: ZUJKAS_clean_linker_0, # of connection points: 2
#     Edge 22, Type (0, 1), BuildingBlock: ZUJKAS_clean_linker_0, # of connection points: 2
#     Edge 23, Type (0, 1), BuildingBlock: ZUJKAS_clean_linker_0, # of connection points: 2
#     Edge 24, Type (0, 1), BuildingBlock: ZUJKAS_clean_linker_0, # of connection points: 2
#     Edge 25, Type (0, 1), BuildingBlock: ZUJKAS_clean_linker_0, # of connection points: 2
#     Edge 26, Type (0, 1), BuildingBlock: ZUJKAS_clean_linker_0, # of connection points: 2
#     Edge 27, Type (0, 1), BuildingBlock: ZUJKAS_clean_linker_0, # of connection points: 2
#     Edge 28, Type (0, 1), BuildingBlock: ZUJKAS_clean_linker_0, # of connection points: 2
#     Edge 29, Type (0, 1), BuildingBlock: ZUJKAS_clean_linker_0, # of connection points: 2
#     Edge 30, Type (0, 1), BuildingBlock: ZUJKAS_clean_linker_0, # of connection points: 2
#     Edge 31, Type (0, 1), BuildingBlock: ZUJKAS_clean_linker_0, # of connection points: 2
#     Edge 32, Type (0, 1), BuildingBlock: ZUJKAS_clean_linker_0, # of connection points: 2
#     Edge 33, Type (0, 1), BuildingBlock: ZUJKAS_clean_linker_0, # of connection points: 2
#     Edge 34, Type (0, 1), BuildingBlock: ZUJKAS_clean_linker_0, # of connection points: 2
#     Edge 35, Type (0, 1), BuildingBlock: ZUJKAS_clean_linker_0, # of connection points: 2
# Relax obj value: 0.326
# Max RMSD: 0.268
# Mean RMSD: 0.216
data_MOF--net-zzz--node1-PAMTOO_clean_sbu_0--node2-KAKCAD_clean_linker_0--edge1-ZUJKAS_clean_linker_0
_symmetry_space_group_name_H-M    P1
_symmetry_Int_Tables_number       1
_symmetry_cell_setting            triclinic
loop_
_symmetry_equiv_pos_as_xyz
'x, y, z'
_cell_length_a     79.162623
_cell_length_b     69.949658
_cell_length_c     26.017078
_cell_angle_alpha  90.59911
_cell_angle_beta   82.893771
_cell_angle_gamma 85.134727
loop_
_atom_site_label
_atom_site_type_symbol
_atom_site_fract_x
_atom_site_fract_y
_atom_site_fract_z
_atom_type_partial_charge
C0 C 0.7881 0.52627 0.12246 0.0
C1 C 0.80379 0.51506 0.11276 0.0
C2 C 0.77906 0.52748 0.17223 0.0
C3 C 0.78553 0.51748 0.21323 0.0
C4 C 0.80156 0.50698 0.20397 0.0
C5 C 0.81056 0.50575 0.15433 0.0
C6 C 0.7749 0.51621 0.26395 0.0
C7 C 0.7578 0.51237 0.26537 0.0
C8 C 0.74788 0.50884 0.31216 0.0
C9 C 0.75525 0.50929 0.35891 0.0
C10 C 0.77247 0.51343 0.35804 0.0
C11 C 0.78207 0.51695 0.31047 0.0
C12 C 0.7814 0.51314 0.4051 0.0
C13 C 0.78856 0.5297 0.42023 0.0
C14 C 0.78581 0.49566 0.4282 0.0
C15 C 0.7979 0.49459 0.46357 0.0
C16 C 0.80568 0.51103 0.47697 0.0
C17 C 0.73009 0.50419 0.30893 0.0
C18 C 0.71641 0.51826 0.32116 0.0
C19 C 0.72745 0.48781 0.28031 0.0
C20 C 0.71194 0.48619 0.26075 0.0
C21 C 0.6986 0.50095 0.26928 0.0
C22 C 0.70079 0.51662 0.30173 0.0
C23 C 0.80043 0.5287 0.45604 0.0
H24 H 0.78267 0.53384 0.09142 0.0
H25 H 0.76681 0.53586 0.17842 0.0
H26 H 0.80675 0.49885 0.2345 0.0
H27 H 0.82247 0.49673 0.14813 0.0
H28 H 0.75225 0.51145 0.22942 0.0
H29 H 0.79536 0.51978 0.30958 0.0
H30 H 0.74777 0.50628 0.39521 0.0
H31 H 0.7856 0.54328 0.40227 0.0
H32 H 0.78074 0.48263 0.41646 0.0
H33 H 0.80154 0.48078 0.47926 0.0
H34 H 0.71821 0.53119 0.34234 0.0
H35 H 0.73792 0.47695 0.26946 0.0
H36 H 0.80624 0.54161 0.46497 0.0
H37 H 0.69073 0.52811 0.31013 0.0
H38 H 0.71097 0.474 0.23565 0.0
C39 C 0.03191 0.75076 0.11116 0.0
C40 C 0.04502 0.76238 0.11922 0.0
C41 C 0.02322 0.74165 0.15253 0.0
C42 C 0.02763 0.74363 0.20295 0.0
C43 C 0.04159 0.75408 0.21031 0.0
C44 C 0.05012 0.76345 0.16898 0.0
C45 C 0.01683 0.73611 0.24787 0.0
C46 C 0.00907 0.71904 0.24315 0.0
C47 C 0.99726 0.71303 0.28306 0.0
C48 C 0.99345 0.72398 0.32943 0.0
C49 C 1.00161 0.74088 0.33545 0.0
C50 C 0.01312 0.74682 0.29438 0.0
C51 C 0.99789 0.75339 0.3827 0.0
C52 C 0.9812 0.76125 0.39976 0.0
C53 C 0.01152 0.76003 0.40562 0.0
C54 C 0.00872 0.77508 0.44215 0.0
C55 C 0.99217 0.78394 0.45685 0.0
C56 C 0.98885 0.69556 0.273 0.0
C57 C 0.97692 0.69638 0.23727 0.0
C58 C 0.99597 0.67762 0.28697 0.0
C59 C 0.99222 0.66082 0.26248 0.0
C60 C 0.98141 0.66173 0.22322 0.0
C61 C 0.97319 0.67965 0.21273 0.0
C62 C 0.97836 0.77643 0.43642 0.0
H63 H 0.02788 0.74931 0.07312 0.0
H64 H 0.01249 0.73385 0.1452 0.0
H65 H 0.04558 0.75556 0.24838 0.0
H66 H 0.06011 0.77234 0.17674 0.0
H67 H 0.01199 0.7104 0.20781 0.0
H68 H 0.01858 0.76039 0.29798 0.0
H69 H 0.98425 0.71944 0.36025 0.0
H70 H 0.97048 0.7565 0.38244 0.0
H71 H 0.02453 0.75422 0.39313 0.0
H72 H 0.01971 0.7805 0.45641 0.0
H73 H 0.97158 0.71013 0.22511 0.0
H74 H 0.00544 0.6767 0.31372 0.0
H75 H 0.96542 0.7827 0.44741 0.0
H76 H 0.96495 0.68102 0.18248 0.0
H77 H 0.99855 0.64724 0.27218 0.0
C78 C 0.73228 0.03522 0.05915 0.0
C79 C 0.71848 0.04891 0.07482 0.0
C80 C 0.74241 0.02732 0.09525 0.0
C81 C 0.73906 0.03305 0.14773 0.0
C82 C 0.72605 0.0477 0.16264 0.0
C83 C 0.71583 0.05546 0.12672 0.0
C84 C 0.74806 0.02272 0.18745 0.0
C85 C 0.76552 0.0168 0.17792 0.0
C86 C 0.77374 0.00604 0.2143 0.0
C87 C 0.76431 0.00111 0.26127 0.0
C88 C 0.74678 0.0074 0.27177 0.0
C89 C 0.73887 0.01798 0.23445 0.0
C90 C 0.73597 0.00313 0.32054 0.0
C91 C 0.73304 0.98419 0.33385 0.0
C92 C 0.72598 0.01826 0.34849 0.0
C93 C 0.71259 0.01464 0.38635 0.0
C94 C 0.70878 0.99572 0.39754 0.0
C95 C 0.79221 1.00034 0.2011 0.0
C96 C 0.79759 0.98334 0.17244 0.0
C97 C 0.80404 0.01388 0.20608 0.0
C98 C 0.82075 0.01093 0.18068 0.0
C99 C 0.82592 0.99446 0.14921 0.0
C100 C 0.81429 0.98039 0.14687 0.0
C101 C 0.71956 0.98051 0.37196 0.0
H102 H 0.73488 0.0301 0.0193 0.0
H103 H 0.75232 0.01605 0.08243 0.0
H104 H 0.72336 0.05273 0.20257 0.0
H105 H 0.70527 0.06585 0.14046 0.0
H106 H 0.77283 0.02057 0.14196 0.0
H107 H 0.72525 0.02206 0.24162 0.0
H108 H 0.77058 0.9928 0.2895 0.0
H109 H 0.74044 0.97226 0.31257 0.0
H110 H 0.72791 0.03302 0.33879 0.0
H111 H 0.70458 0.02678 0.40445 0.0
H112 H 0.78857 0.97289 0.16718 0.0
H113 H 0.80003 0.02732 0.22691 0.0
H114 H 0.71724 0.96575 0.38009 0.0
H115 H 0.81788 0.96742 0.12359 0.0
H116 H 0.82924 0.02218 0.183 0.0
C117 C 0.53297 0.70853 0.33379 0.0
C118 C 0.54556 0.69337 0.33815 0.0
C119 C 0.53497 0.72149 0.29325 0.0
C120 C 0.54955 0.71943 0.25642 0.0
C121 C 0.56268 0.70521 0.26294 0.0
C122 C 0.56077 0.69238 0.30362 0.0
C123 C 0.54922 0.72846 0.2055 0.0
C124 C 0.55058 0.7482 0.19834 0.0
C125 C 0.55001 0.7559 0.14868 0.0
C126 C 0.5473 0.74394 0.10724 0.0
C127 C 0.5455 0.72439 0.11456 0.0
C128 C 0.54677 0.71673 0.16353 0.0
C129 C 0.54121 0.71202 0.07242 0.0
C130 C 0.52747 0.71771 0.04505 0.0
C131 C 0.54974 0.69367 0.06285 0.0
C132 C 0.54409 0.68089 0.02854 0.0
C133 C 0.52968 0.68612 0.00346 0.0
C134 C 0.55195 0.7764 0.13862 0.0
C135 C 0.53965 0.79067 0.16107 0.0
C136 C 0.56485 0.78145 0.10054 0.0
C137 C 0.56492 0.80023 0.08298 0.0
C138 C 0.5519 0.81432 0.10248 0.0
C139 C 0.53958 0.80949 0.14304 0.0
C140 C 0.52172 0.70485 0.01096 0.0
H141 H 0.52119 0.70977 0.36013 0.0
H142 H 0.52457 0.73215 0.28838 0.0
H143 H 0.5739 0.70319 0.23437 0.0
H144 H 0.57064 0.6808 0.30553 0.0
H145 H 0.55237 0.75737 0.23071 0.0
H146 H 0.54515 0.70164 0.1697 0.0
H147 H 0.54643 0.74993 0.06927 0.0
H148 H 0.52059 0.73174 0.05209 0.0
H149 H 0.56052 0.68905 0.08297 0.0
H150 H 0.55078 0.66673 0.02262 0.0
H151 H 0.52949 0.78701 0.19016 0.0
H152 H 0.57451 0.77065 0.08286 0.0
H153 H 0.51053 0.70929 0.99254 0.0
H154 H 0.52931 0.81992 0.15877 0.0
H155 H 0.57484 0.80353 0.05271 0.0
C156 C 0.22205 0.45176 0.25154 0.0
C157 C 0.20673 0.4434 0.24737 0.0
C158 C 0.2326 0.45632 0.20725 0.0
C159 C 0.22843 0.45202 0.15759 0.0
C160 C 0.21433 0.44135 0.15381 0.0
C161 C 0.20347 0.4373 0.19813 0.0
C162 C 0.2374 0.46072 0.11087 0.0
C163 C 0.2545 0.46474 0.10918 0.0
C164 C 0.26213 0.47611 0.07028 0.0
C165 C 0.25273 0.48271 0.03018 0.0
C166 C 0.23582 0.4777 0.02964 0.0
C167 C 0.22829 0.46708 0.07036 0.0
C168 C 0.22516 0.48341 0.98833 0.0
C169 C 0.21347 0.49977 0.9956 0.0
C170 C 0.22332 0.46995 0.94945 0.0
C171 C 0.20954 0.47225 0.92031 0.0
C172 C 0.19718 0.48801 0.92962 0.0
C173 C 0.27943 0.48182 0.07649 0.0
C174 C 0.28128 0.50028 0.09566 0.0
C175 C 0.29292 0.46749 0.07759 0.0
C176 C 0.30736 0.47108 0.10104 0.0
C177 C 0.30861 0.48906 0.12445 0.0
C178 C 0.29575 0.50389 0.11933 0.0
C179 C 0.1997 0.50212 0.96635 0.0
H180 H 0.22529 0.45606 0.28895 0.0
H181 H 0.24331 0.46448 0.2124 0.0
H182 H 0.21105 0.43707 0.11643 0.0
H183 H 0.19188 0.43072 0.19314 0.0
H184 H 0.26184 0.45969 0.13963 0.0
H185 H 0.21497 0.46445 0.07106 0.0
H186 H 0.25846 0.49152 0.99996 0.0
H187 H 0.21431 0.51005 0.0264 0.0
H188 H 0.23191 0.45699 0.94396 0.0
H189 H 0.2082 0.46124 0.89189 0.0
H190 H 0.2709 0.51145 0.0964 0.0
H191 H 0.2917 0.45307 0.06376 0.0
H192 H 0.1904 0.51435 0.97502 0.0
H193 H 0.29621 0.51788 0.13701 0.0
H194 H 0.31716 0.45943 0.10317 0.0
C195 C 0.05905 0.24418 0.24502 0.0
C196 C 0.06611 0.22574 0.22805 0.0
C197 C 0.05735 0.25885 0.20965 0.0
C198 C 0.06303 0.25551 0.15666 0.0
C199 C 0.07223 0.23787 0.1411 0.0
C200 C 0.07362 0.22306 0.17634 0.0
C201 C 0.05677 0.26887 0.11761 0.0
C202 C 0.05392 0.28865 0.12812 0.0
C203 C 0.04447 0.30066 0.09713 0.0
C204 C 0.03823 0.29286 0.05367 0.0
C205 C 0.04204 0.27321 0.04077 0.0
C206 C 0.05115 0.26145 0.07304 0.0
C207 C 0.03584 0.26376 0.9963 0.0
C208 C 0.01854 0.2604 0.9982 0.0
C209 C 0.0478 0.25395 0.95869 0.0
C210 C 0.04282 0.24002 0.92613 0.0
C211 C 0.02573 0.23544 0.93062 0.0
C212 C 0.04017 0.32085 0.11492 0.0
C213 C 0.02379 0.32656 0.14014 0.0
C214 C 0.05336 0.33283 0.11822 0.0
C215 C 0.05053 0.34957 0.14908 0.0
C216 C 0.03451 0.35451 0.17816 0.0
C217 C 0.02097 0.34322 0.17153 0.0
C218 C 0.01353 0.24636 0.96565 0.0
H219 H 0.05361 0.24688 0.28498 0.0
H220 H 0.05025 0.2722 0.22345 0.0
H221 H 0.07728 0.23501 0.10089 0.0
H222 H 0.07928 0.20911 0.16187 0.0
H223 H 0.0583 0.29466 0.16219 0.0
H224 H 0.05285 0.24613 0.06483 0.0
H225 H 0.03062 0.30193 0.0302 0.0
H226 H 0.00913 0.26754 0.02748 0.0
H227 H 0.06126 0.25607 0.95714 0.0
H228 H 0.05263 0.23186 0.90017 0.0
H229 H 0.01352 0.31732 0.13902 0.0
H230 H 0.06615 0.32859 0.09952 0.0
H231 H 1.00022 0.24343 0.96965 0.0
H232 H 0.00849 0.34643 0.19348 0.0
H233 H 0.06116 0.35812 0.15215 0.0
C234 C 0.28134 0.99911 0.33767 0.0
C235 C 0.29344 0.01251 0.34155 0.0
C236 C 0.26954 0.00166 0.30213 0.0
C237 C 0.26972 0.01753 0.26959 0.0
C238 C 0.28106 0.03152 0.27565 0.0
C239 C 0.29272 0.0291 0.31156 0.0
C240 C 0.25946 0.01838 0.22585 0.0
C241 C 0.24213 0.01537 0.23339 0.0
C242 C 0.23264 0.01462 0.19126 0.0
C243 C 0.24091 0.01681 0.14042 0.0
C244 C 0.25848 0.01988 0.13266 0.0
C245 C 0.26745 0.02081 0.1757 0.0
C246 C 0.26857 0.02087 0.08073 0.0
C247 C 0.27178 0.00453 0.04807 0.0
C248 C 0.27853 0.0364 0.07015 0.0
C249 C 0.29233 0.03502 0.03073 0.0
C250 C 0.29655 0.01805 1.00061 0.0
C251 C 0.21417 0.01164 0.20285 0.0
C252 C 0.2092 0.99702 0.23665 0.0
C253 C 0.20152 0.02517 0.18871 0.0
C254 C 0.18444 0.02488 0.21105 0.0
C255 C 0.17967 0.01106 0.24802 0.0
C256 C 0.19225 0.99677 0.25907 0.0
C257 C 0.28561 0.00314 0.00836 0.0
H258 H 0.28163 0.98609 0.35978 0.0
H259 H 0.26098 0.99061 0.29787 0.0
H260 H 0.28126 0.04401 0.25137 0.0
H261 H 0.3016 0.0399 0.31448 0.0
H262 H 0.23597 0.01374 0.27253 0.0
H263 H 0.28105 0.02251 0.16986 0.0
H264 H 0.23385 0.01593 0.10749 0.0
H265 H 0.26446 0.99224 0.0558 0.0
H266 H 0.27648 0.04907 0.0952 0.0
H267 H 0.3004 0.04679 0.02664 0.0
H268 H 0.21868 0.98638 0.24827 0.0
H269 H 0.205 0.03667 0.16301 0.0
H270 H 0.2882 0.98999 0.98533 0.0
H271 H 0.18933 0.98598 0.28755 0.0
H272 H 0.17509 0.0359 0.20064 0.0
C273 C 0.47487 0.28912 0.08816 0.0
C274 C 0.48628 0.29646 0.04883 0.0
C275 C 0.48089 0.27601 0.1236 0.0
C276 C 0.49839 0.27016 0.12039 0.0
C277 C 0.50957 0.27648 0.0792 0.0
C278 C 0.5036 0.28942 0.04379 0.0
C279 C 0.50561 0.26062 0.1643 0.0
C280 C 0.50144 0.24235 0.18097 0.0
C281 C 0.50917 0.23372 0.22194 0.0
C282 C 0.52052 0.24384 0.2471 0.0
C283 C 0.52431 0.26232 0.23186 0.0
C284 C 0.5169 0.27046 0.19009 0.0
C285 C 0.53507 0.27375 0.26122 0.0
C286 C 0.53297 0.27385 0.31569 0.0
C287 C 0.54638 0.28595 0.23525 0.0
C288 C 0.55446 0.29889 0.26306 0.0
C289 C 0.55154 0.29976 0.31741 0.0
C290 C 0.50561 0.21421 0.23969 0.0
C291 C 0.48882 0.20958 0.25486 0.0
C292 C 0.51927 0.20073 0.24664 0.0
C293 C 0.51631 0.18342 0.27085 0.0
C294 C 0.4996 0.1792 0.28918 0.0
C295 C 0.48583 0.19222 0.27954 0.0
C296 C 0.54116 0.28669 0.34349 0.0
H297 H 0.46143 0.29407 0.09278 0.0
H298 H 0.47207 0.27146 0.15539 0.0
H299 H 0.52315 0.27225 0.07622 0.0
H300 H 0.51282 0.29488 0.01457 0.0
H301 H 0.49266 0.23471 0.16132 0.0
H302 H 0.51945 0.28489 0.17845 0.0
H303 H 0.52628 0.23734 0.27913 0.0
H304 H 0.52423 0.26479 0.33695 0.0
H305 H 0.54857 0.28594 0.19333 0.0
H306 H 0.56257 0.30866 0.24202 0.0
H307 H 0.47807 0.21979 0.25015 0.0
H308 H 0.53233 0.20384 0.23461 0.0
H309 H 0.53851 0.28718 0.38536 0.0
H310 H 0.47281 0.18944 0.29325 0.0
H311 H 0.52719 0.17352 0.27633 0.0
Dy312 Dy 0.98986 0.01727 0.66291 0.0
Dy313 Dy 0.01664 0.00161 0.74244 0.0
C314 C 0.03011 0.01349 0.62763 0.0
O315 O 0.98657 0.98595 0.67001 0.0
O316 O 0.01291 0.97625 0.69317 0.0
O317 O 0.97812 0.01354 0.59329 0.0
O318 O 0.97146 0.03931 0.64076 0.0
O319 O 0.99082 0.99465 0.77969 0.0
O320 O 0.97407 0.01696 0.74024 0.0
O321 O 0.00965 0.03246 0.76463 0.0
O322 O 1.00276 0.04277 0.68615 0.0
O323 O 0.02308 0.99586 0.81954 0.0
O324 O 0.042 0.98985 0.75276 0.0
C325 C 0.9988 0.97242 0.67481 0.0
O326 O 0.01505 0.01081 0.61414 0.0
O327 O 0.03243 0.01464 0.67662 0.0
C328 C 0.97655 0.04323 0.55094 0.0
C329 C 0.9915 0.06963 0.48211 0.0
C330 C 0.99871 0.05059 0.48255 0.0
C331 C 0.99131 0.03753 0.51657 0.0
C332 C 0.96862 0.06181 0.54787 0.0
C333 C 0.97603 0.07492 0.51369 0.0
C334 C 0.97132 0.03123 0.59539 0.0
C335 C 0.97616 0.00483 0.77765 0.0
C336 C 0.0068 0.04639 0.73254 0.0
C337 C 0.04258 0.96867 0.82125 0.0
C338 C 0.05186 0.93144 0.85375 0.0
C339 C 0.03927 0.93455 0.82029 0.0
C340 C 0.03464 0.95302 0.80432 0.0
C341 C 0.05513 0.96574 0.85447 0.0
C342 C 0.05974 0.94725 0.87071 0.0
C343 C 0.03825 0.9879 0.80246 0.0
H344 H 0.01068 0.04608 0.45906 0.0
H345 H 0.99778 0.02331 0.51803 0.0
H346 H 0.95726 0.06653 0.57402 0.0
H347 H 0.97002 0.08941 0.51351 0.0
H348 H 0.03312 0.92267 0.80593 0.0
H349 H 0.02497 0.95508 0.77838 0.0
H350 H 0.0614 0.97773 0.8677 0.0
H351 H 0.06931 0.94537 0.89704 0.0
Dy352 Dy 0.50132 0.98043 0.67485 0.0
Dy353 Dy 0.50892 0.01602 0.74922 0.0
C354 C 0.49578 0.0241 0.64045 0.0
O355 O 0.52983 0.97884 0.6699 0.0
O356 O 0.53227 0.01027 0.69124 0.0
O357 O 0.50533 0.96474 0.60178 0.0
O358 O 0.48832 0.95492 0.66581 0.0
O359 O 0.52112 0.98962 0.78178 0.0
O360 O 0.50408 0.96819 0.75247 0.0
O361 O 0.48252 0.00858 0.77908 0.0
O362 O 0.47562 0.99493 0.70485 0.0
O363 O 0.50976 0.0285 0.82502 0.0
O364 O 0.5169 0.04457 0.7562 0.0
C365 C 0.53896 0.99365 0.67074 0.0
O366 O 0.50133 0.00644 0.62559 0.0
O367 O 0.49413 0.02949 0.68939 0.0
C368 C 0.4795 0.95317 0.58374 0.0
C369 C 0.44924 0.95515 0.53695 0.0
C370 C 0.45945 0.97068 0.53431 0.0
C371 C 0.47439 0.96974 0.55771 0.0
C372 C 0.46978 0.93731 0.58448 0.0
C373 C 0.45471 0.93829 0.56132 0.0
C374 C 0.49338 0.95346 0.61623 0.0
C375 C 0.51474 0.9729 0.78429 0.0
C376 C 0.4711 0.00253 0.75146 0.0
C377 C 0.53298 0.04721 0.82497 0.0
C378 C 0.56437 0.05431 0.85827 0.0
C379 C 0.56241 0.03669 0.83416 0.0
C380 C 0.54686 0.0332 0.81751 0.0
C381 C 0.53484 0.06484 0.84871 0.0
C382 C 0.55046 0.06839 0.8652 0.0
C383 C 0.51683 0.04354 0.80622 0.0
H384 H 0.45542 0.98397 0.51661 0.0
H385 H 0.48149 0.98233 0.55747 0.0
H386 H 0.47344 0.92449 0.6049 0.0
H387 H 0.4471 0.9261 0.56367 0.0
H388 H 0.57298 0.02569 0.82762 0.0
H389 H 0.54568 0.01959 0.79857 0.0
H390 H 0.52424 0.07582 0.85441 0.0
H391 H 0.5516 0.08203 0.88401 0.0
Dy392 Dy 0.52521 0.49402 0.7145 0.0
Dy393 Dy 0.48901 0.49092 0.65867 0.0
C394 C 0.4969 0.46544 0.75701 0.0
O395 O 0.5326 0.47747 0.6403 0.0
O396 O 0.50693 0.46483 0.63924 0.0
O397 O 0.54828 0.48129 0.74174 0.0
O398 O 0.54178 0.51203 0.74964 0.0
O399 O 0.50438 0.50978 0.60598 0.0
O400 O 0.52476 0.5176 0.65736 0.0
O401 O 0.48717 0.51916 0.70073 0.0
O402 O 0.50289 0.50871 0.76451 0.0
O403 O 0.46135 0.49491 0.65922 0.0
O404 O 0.47755 0.48034 0.59447 0.0
C405 C 0.52343 0.46431 0.62455 0.0
O406 O 0.51313 0.46879 0.74971 0.0
O407 O 0.48522 0.47499 0.733 0.0
C408 C 0.5601 0.49809 0.80801 0.0
C409 C 0.57776 0.49839 0.89665 0.0
C410 C 0.56661 0.48414 0.88965 0.0
C411 C 0.55787 0.48398 0.84575 0.0
C412 C 0.57096 0.51245 0.8154 0.0
C413 C 0.57967 0.51261 0.85897 0.0
C414 C 0.5525 0.49763 0.75875 0.0
C415 C 0.51668 0.52022 0.6164 0.0
C416 C 0.49219 0.52156 0.74644 0.0
C417 C 0.45002 0.49345 0.57737 0.0
C418 C 0.42722 0.49934 0.50183 0.0
C419 C 0.44447 0.50316 0.49072 0.0
C420 C 0.45578 0.50016 0.52803 0.0
C421 C 0.43264 0.49067 0.58934 0.0
C422 C 0.42138 0.49357 0.55212 0.0
C423 C 0.46201 0.48643 0.61391 0.0
H424 H 0.56464 0.47307 0.91801 0.0
H425 H 0.54959 0.47269 0.84103 0.0
H426 H 0.57305 0.52337 0.7866 0.0
H427 H 0.58834 0.52361 0.86218 0.0
H428 H 0.44944 0.50754 0.4524 0.0
H429 H 0.46915 0.50232 0.51757 0.0
H430 H 0.42789 0.48539 0.62693 0.0
H431 H 0.40814 0.49082 0.5624 0.0
Dy432 Dy 1.00356 0.52186 0.67908 0.0
Dy433 Dy 0.99427 0.48476 0.74779 0.0
C434 C 0.007 0.48082 0.62817 0.0
O435 O 0.97754 0.51585 0.66107 0.0
O436 O 0.96882 0.49856 0.73235 0.0
O437 O 1.00345 0.53649 0.60654 0.0
O438 O 0.01429 0.54924 0.66963 0.0
O439 O 0.99689 0.50871 0.80316 0.0
O440 O 0.98866 0.53352 0.75291 0.0
O441 O 0.02282 0.48369 0.7442 0.0
O442 O 0.02653 0.5147 0.71993 0.0
O443 O 0.98205 0.47256 0.81695 0.0
O444 O 0.99527 0.45391 0.75507 0.0
C445 C 0.96548 0.50802 0.6909 0.0
O446 O 0.01557 0.49572 0.63417 0.0
O447 O 0.99478 0.47688 0.66414 0.0
C448 C 0.03035 0.54791 0.5863 0.0
C449 C 0.06062 0.53178 0.52836 0.0
C450 C 0.04584 0.53592 0.50431 0.0
C451 C 0.03084 0.54409 0.53298 0.0
C452 C 0.0457 0.54588 0.60867 0.0
C453 C 0.0607 0.53787 0.57989 0.0
C454 C 0.01377 0.54876 0.61964 0.0
C455 C 0.99102 0.52666 0.79853 0.0
C456 C 0.03235 0.49823 0.73783 0.0
C457 C 0.9682 0.4462 0.79459 0.0
C458 C 0.9333 0.44099 0.79381 0.0
C459 C 0.94062 0.44062 0.84062 0.0
C460 C 0.9579 0.44311 0.8409 0.0
C461 C 0.9614 0.44476 0.74738 0.0
C462 C 0.94415 0.44197 0.74698 0.0
C463 C 0.98422 0.45523 0.79687 0.0
H464 H 0.04557 0.5317 0.46426 0.0
H465 H 0.01925 0.54565 0.51466 0.0
H466 H 0.04584 0.54878 0.64958 0.0
H467 H 0.07194 0.5349 0.59937 0.0
H468 H 0.93281 0.44017 0.87771 0.0
H469 H 0.96284 0.44437 0.87772 0.0
H470 H 0.96907 0.4472 0.71096 0.0
H471 H 0.93912 0.44185 0.71014 0.0
H472 H 0.16086 0.9815 0.28474 0.0
H473 H 0.13461 0.98365 0.3448 0.0
H474 H 0.13183 0.0454 0.33904 0.0
H475 H 0.15883 0.04344 0.28194 0.0
H476 H 0.12603 0.03554 0.43453 0.0
H477 H 0.08595 0.99356 0.32508 0.0
H478 H 0.10533 0.97962 0.33443 0.0
H479 H 0.10619 0.00096 0.29619 0.0
C480 C 0.15474 0.99559 0.29612 0.0
C481 C 0.16219 0.01229 0.27835 0.0
C482 C 0.13947 0.99678 0.33001 0.0
C483 C 0.13096 0.01469 0.34612 0.0
C484 C 0.13805 0.03139 0.32717 0.0
H485 H 0.02913 0.02188 0.52539 0.0
H486 H 0.05318 0.02378 0.45754 0.0
C487 C 0.15346 0.03022 0.29383 0.0
C488 C 0.11537 0.016 0.38535 0.0
H489 H 0.07659 0.99811 0.41619 0.0
C490 C 0.11515 0.0275 0.43014 0.0
C491 C 0.10095 0.00582 0.37966 0.0
C492 C 0.09952 0.99448 0.33095 0.0
C493 C 0.10125 0.02869 0.46971 0.0
C494 C 0.08733 0.01752 0.46554 0.0
C495 C 0.08732 0.00646 0.42009 0.0
C496 C 0.07268 0.01706 0.50765 0.0
C497 C 0.10155 0.04223 0.51508 0.0
C498 C 0.07547 0.01258 0.5587 0.0
C499 C 0.06169 0.01183 0.59784 0.0
C500 C 0.04476 0.01505 0.58662 0.0
C501 C 0.04198 0.01929 0.53543 0.0
C502 C 0.05576 0.02036 0.4965 0.0
H503 H 0.10969 0.0541 0.50431 0.0
H504 H 0.08851 0.04855 0.53009 0.0
H505 H 0.10703 0.03426 0.54667 0.0
H506 H 0.08831 0.00935 0.56825 0.0
H507 H 0.0643 0.00827 0.63666 0.0
H508 H 0.51809 0.16542 0.36459 0.0
H509 H 0.51421 0.13698 0.41644 0.0
H510 H 0.47067 0.12554 0.34015 0.0
H511 H 0.47459 0.15412 0.28723 0.0
H512 H 0.46537 0.12209 0.44945 0.0
H513 H 0.52545 0.08115 0.36487 0.0
H514 H 0.52877 0.10481 0.38672 0.0
H515 H 0.51625 0.10194 0.33438 0.0
C516 C 0.50783 0.15674 0.35809 0.0
C517 C 0.49683 0.1619 0.32102 0.0
C518 C 0.50561 0.14048 0.38793 0.0
C519 C 0.49238 0.12892 0.38141 0.0
C520 C 0.48106 0.1342 0.34545 0.0
H521 H 0.49584 0.01815 0.53606 0.0
H522 H 0.49231 0.04239 0.47021 0.0
C523 C 0.48329 0.15055 0.31539 0.0
C524 C 0.4904 0.11155 0.41314 0.0
H525 H 0.51262 0.0706 0.44684 0.0
C526 C 0.47558 0.11067 0.44842 0.0
C527 C 0.50358 0.09648 0.41114 0.0
C528 C 0.51934 0.096 0.37186 0.0
C529 C 0.47401 0.09563 0.4837 0.0
C530 C 0.48775 0.08131 0.48419 0.0
C531 C 0.50215 0.08167 0.44696 0.0
C532 C 0.48798 0.06644 0.52459 0.0
C533 C 0.4577 0.09532 0.52029 0.0
C534 C 0.48663 0.07186 0.57716 0.0
C535 C 0.48859 0.05805 0.61493 0.0
C536 C 0.49215 0.03851 0.60088 0.0
C537 C 0.49315 0.03307 0.54829 0.0
C538 C 0.49112 0.0469 0.51055 0.0
H539 H 0.44674 0.10296 0.504 0.0
H540 H 0.45465 0.0804 0.52902 0.0
H541 H 0.45917 0.10275 0.55715 0.0
H542 H 0.48466 0.08686 0.58891 0.0
H543 H 0.48783 0.06279 0.65497 0.0
H544 H 0.3206 0.46366 0.19343 0.0
H545 H 0.34175 0.4679 0.25218 0.0
H546 H 0.34866 0.52441 0.1929 0.0
H547 H 0.32727 0.52031 0.13387 0.0
H548 H 0.37515 0.4737 0.23449 0.0
H549 H 0.34014 0.53593 0.34681 0.0
H550 H 0.33029 0.52194 0.302 0.0
H551 H 0.34438 0.53963 0.27842 0.0
C552 C 0.32673 0.47694 0.19226 0.0
C553 C 0.32222 0.49161 0.15851 0.0
C554 C 0.33879 0.47939 0.22627 0.0
C555 C 0.34669 0.49659 0.22776 0.0
C556 C 0.34248 0.51118 0.19354 0.0
H557 H 0.42386 0.52644 0.42653 0.0
H558 H 0.40517 0.52673 0.35771 0.0
C559 C 0.33029 0.50878 0.15957 0.0
C560 C 0.3594 0.49888 0.26494 0.0
H561 H 0.36745 0.52555 0.36899 0.0
C562 C 0.37345 0.4851 0.26373 0.0
C563 C 0.3573 0.51377 0.30324 0.0
C564 C 0.34215 0.52858 0.3082 0.0
C565 C 0.38526 0.48563 0.29985 0.0
C566 C 0.38295 0.50025 0.33869 0.0
C567 C 0.36922 0.51437 0.33916 0.0
C568 C 0.39414 0.50041 0.38076 0.0
C569 C 0.40012 0.47048 0.2963 0.0
C570 C 0.394 0.48568 0.417 0.0
C571 C 0.40458 0.48552 0.45634 0.0
C572 C 0.41561 0.50008 0.4605 0.0
C573 C 0.41564 0.51492 0.4243 0.0
C574 C 0.40491 0.51516 0.38508 0.0
H575 H 0.40247 0.46322 0.25757 0.0
H576 H 0.41196 0.4768 0.30425 0.0
H577 H 0.3973 0.45944 0.32573 0.0
H578 H 0.38569 0.47425 0.4148 0.0
H579 H 0.40433 0.47372 0.48298 0.0
H580 H 0.05765 0.36326 0.24299 0.0
H581 H 0.0537 0.38641 0.31497 0.0
H582 H 1.00262 0.40322 0.2816 0.0
H583 H 0.00667 0.38052 0.20773 0.0
H584 H 0.02057 0.43449 0.30782 0.0
H585 H 0.02418 0.37646 0.45086 0.0
H586 H 0.04235 0.37573 0.40199 0.0
H587 H 0.02168 0.37186 0.38397 0.0
C588 C 0.04568 0.37214 0.24995 0.0
C589 C 0.03247 0.36993 0.21927 0.0
C590 C 0.04337 0.38522 0.29174 0.0
C591 C 0.02776 0.39629 0.30435 0.0
C592 C 0.01474 0.39471 0.27282 0.0
H593 H 0.99026 0.45032 0.60179 0.0
H594 H 0.99546 0.43087 0.52214 0.0
C595 C 0.01705 0.38163 0.23079 0.0
C596 C 0.02487 0.40896 0.35149 0.0
H597 H 0.02374 0.4083 0.48317 0.0
C598 C 0.02124 0.42879 0.34619 0.0
C599 C 0.02553 0.40147 0.40162 0.0
C600 C 0.02849 0.3802 0.41022 0.0
C601 C 0.01846 0.44136 0.38964 0.0
C602 C 0.01957 0.43391 0.43965 0.0
C603 C 0.02305 0.41405 0.44485 0.0
C604 C 0.01644 0.44624 0.48747 0.0
C605 C 0.01395 0.46242 0.38171 0.0
C606 C 0.02661 0.46132 0.49491 0.0
C607 C 0.02362 0.47259 0.54057 0.0
C608 C 0.01049 0.46886 0.57989 0.0
C609 C 1.00048 0.45362 0.57244 0.0
C610 C 1.00343 0.44246 0.52683 0.0
H611 H 0.00942 0.46504 0.34345 0.0
H612 H 1.0039 0.46844 0.41255 0.0
H613 H 0.02548 0.47029 0.38333 0.0
H614 H 0.03698 0.46427 0.46565 0.0
H615 H 0.03163 0.48415 0.54509 0.0
H616 H 0.85718 0.00408 0.17265 0.0
H617 H 0.88387 0.00426 0.11392 0.0
H618 H 0.8593 0.98191 0.99 0.0
H619 H 0.83266 0.98166 0.04824 0.0
H620 H 0.89177 0.96458 0.99149 0.0
H621 H 0.89213 0.04386 1.00218 0.0
H622 H 0.89158 0.03239 0.06371 0.0
H623 H 0.87378 0.03163 0.02722 0.0
C624 C 0.85746 0.99917 0.13291 0.0
C625 C 0.84269 0.99291 0.11528 0.0
C626 C 0.87273 0.99933 0.09931 0.0
C627 C 0.87355 0.99343 0.04718 0.0
C628 C 0.85902 0.98656 0.02997 0.0
H629 H 0.94364 0.02227 0.78369 0.0
H630 H 0.91951 0.01864 0.84989 0.0
C631 C 0.84378 0.98633 0.06352 0.0
C632 C 0.88932 0.99482 0.01005 0.0
H633 H 0.91597 0.02677 0.95371 0.0
C634 C 0.89711 0.97817 0.98336 0.0
C635 C 0.89617 0.0126 0.99884 0.0
C636 C 0.88793 0.03118 0.02407 0.0
C637 C 0.91149 0.97879 0.94588 0.0
C638 C 0.91849 0.99652 0.9353 0.0
C639 C 0.91072 0.01316 0.96207 0.0
C640 C 0.93335 0.99834 0.89494 0.0
C641 C 0.91872 0.96055 0.91681 0.0
C642 C 0.9493 0.98824 0.8982 0.0
C643 C 0.96319 0.99023 0.86011 0.0
C644 C 0.96146 0.00249 0.81812 0.0
C645 C 0.9455 0.01268 0.8153 0.0
C646 C 0.93165 0.01065 0.85326 0.0
H647 H 0.90948 0.94939 0.92008 0.0
H648 H 0.92238 0.96332 0.87513 0.0
H649 H 0.93034 0.95473 0.9332 0.0
H650 H 0.95107 0.97897 0.93051 0.0
H651 H 0.9753 0.98225 0.86382 0.0
H652 H 0.55742 0.82158 0.99914 0.0
H653 H 0.55337 0.85206 0.95634 0.0
H654 H 0.5379 0.88067 0.10433 0.0
H655 H 0.54219 0.85002 0.14803 0.0
H656 H 0.51552 0.8894 0.03237 0.0
H657 H 0.58174 0.89819 0.94596 0.0
H658 H 0.57527 0.87497 0.93149 0.0
H659 H 0.5768 0.88173 0.99761 0.0
C660 C 0.5536 0.83438 0.02294 0.0
C661 C 0.55033 0.83332 0.07722 0.0
C662 C 0.55127 0.85184 0.99826 0.0
C663 C 0.54566 0.86872 0.02714 0.0
C664 C 0.54239 0.86782 0.08134 0.0
H665 H 0.53699 0.97663 0.85627 0.0
H666 H 0.5445 0.95336 0.92141 0.0
C667 C 0.54477 0.85029 0.1062 0.0
C668 C 0.54201 0.88686 0.99991 0.0
H669 H 0.55938 0.91578 0.90624 0.0
C670 C 0.52517 0.89538 0.00548 0.0
C671 C 0.55465 0.89484 0.96536 0.0
C672 C 0.57316 0.88708 0.96011 0.0
C673 C 0.52043 0.91094 0.97512 0.0
C674 C 0.5328 0.91796 0.93772 0.0
C675 C 0.54985 0.91022 0.93442 0.0
C676 C 0.52806 0.93234 0.8993 0.0
C677 C 0.50213 0.91951 0.98278 0.0
C678 C 0.51655 0.9281 0.86478 0.0
C679 C 0.51226 0.94128 0.82759 0.0
C680 C 0.51948 0.959 0.82384 0.0
C681 C 0.53115 0.96316 0.85818 0.0
C682 C 0.53546 0.9499 0.89544 0.0
H683 H 0.49582 0.91686 0.02232 0.0
H684 H 0.50132 0.93522 0.97643 0.0
H685 H 0.49491 0.91275 0.95457 0.0
H686 H 0.511 0.91446 0.86622 0.0
H687 H 0.50331 0.93751 0.80168 0.0
H688 H 0.68167 0.47007 0.24238 0.0
H689 H 0.65989 0.46963 0.18355 0.0
H690 H 0.65866 0.53114 0.17207 0.0
H691 H 0.68109 0.53165 0.22825 0.0
H692 H 0.62747 0.48543 0.18441 0.0
H693 H 0.66845 0.5152 0.0218 0.0
H694 H 0.6766 0.50725 0.08041 0.0
H695 H 0.66519 0.53057 0.07838 0.0
C696 C 0.67687 0.48353 0.22721 0.0
C697 C 0.68344 0.50086 0.23984 0.0
C698 C 0.66428 0.48326 0.19375 0.0
C699 C 0.6579 0.50029 0.17211 0.0
C700 C 0.66369 0.51772 0.18698 0.0
H701 H 0.58587 0.52921 0.95254 0.0
H702 H 0.60452 0.52913 0.02071 0.0
C703 C 0.67637 0.51801 0.22003 0.0
C704 C 0.64556 0.49977 0.13311 0.0
H705 H 0.63946 0.51273 0.0098 0.0
C706 C 0.63014 0.49133 0.14617 0.0
C707 C 0.64904 0.50732 0.08289 0.0
C708 C 0.66578 0.51542 0.06476 0.0
C709 C 0.618 0.49065 0.11098 0.0
C710 C 0.62139 0.49849 0.06123 0.0
C711 C 0.63681 0.50684 0.04807 0.0
C712 C 0.60916 0.49825 0.02202 0.0
C713 C 0.60149 0.48187 0.12756 0.0
C714 C 0.60549 0.48089 0.99997 0.0
C715 C 0.59496 0.48087 0.96036 0.0
C716 C 0.58787 0.49823 0.94178 0.0
C717 C 0.59129 0.51556 0.96498 0.0
C718 C 0.60189 0.51555 0.00431 0.0
H719 H 0.59925 0.48013 0.1702 0.0
H720 H 0.5905 0.49082 0.11522 0.0
H721 H 0.60196 0.46748 0.10879 0.0
H722 H 0.61118 0.46735 0.01235 0.0
H723 H 0.59287 0.46725 0.94309 0.0
H724 H 0.95363 0.65043 0.18006 0.0
H725 H 0.9537 0.6259 0.11224 0.0
H726 H 0.00718 0.61016 0.11961 0.0
H727 H 0.00742 0.63505 0.18571 0.0
H728 H 1.00036 0.61743 0.02115 0.0
H729 H 0.95547 0.56748 0.11352 0.0
H730 H 0.94693 0.59213 0.11571 0.0
H731 H 0.9647 0.58508 0.15021 0.0
C732 C 0.96537 0.64161 0.16768 0.0
C733 C 0.98052 0.64479 0.18854 0.0
C734 C 0.96535 0.62745 0.12919 0.0
C735 C 0.98042 0.61606 0.11105 0.0
C736 C 0.99538 0.61871 0.13314 0.0
H737 H 0.99553 0.51778 0.89853 0.0
H738 H 0.99225 0.53951 0.97402 0.0
C739 C 0.99543 0.63286 0.17144 0.0
C740 C 0.98107 0.60256 0.06614 0.0
H741 H 0.96406 0.56296 0.02292 0.0
C742 C 0.99245 0.60549 0.02163 0.0
C743 C 0.97083 0.58691 0.06686 0.0
C744 C 0.9589 0.58255 0.11427 0.0
C745 C 0.99381 0.59332 0.97779 0.0
C746 C 0.98327 0.57796 0.97796 0.0
C747 C 0.97199 0.57488 0.02263 0.0
C748 C 0.98419 0.56464 0.93259 0.0
C749 C 0.0068 0.59679 0.93203 0.0
C750 C 0.98039 0.57145 0.88437 0.0
C751 C 0.9823 0.55907 0.84101 0.0
C752 C 0.98796 0.53959 0.84506 0.0
C753 C 0.99122 0.5327 0.89385 0.0
C754 C 0.98931 0.5451 0.93715 0.0
H755 H 0.01664 0.60598 0.94282 0.0
H756 H 0.0133 0.58303 0.91525 0.0
H757 H 1.00022 0.60419 0.90161 0.0
H758 H 0.97611 0.58641 0.88015 0.0
H759 H 0.97956 0.56486 0.8042 0.0
H760 H 0.08721 0.19271 0.23696 0.0
H761 H 0.07892 0.1629 0.27837 0.0
H762 H 0.02931 0.19086 0.33386 0.0
H763 H 0.03709 0.22023 0.2919 0.0
H764 H 0.06247 0.15575 0.39095 0.0
H765 H 0.02289 0.14372 0.23356 0.0
H766 H 0.04037 0.15891 0.22643 0.0
H767 H 0.02012 0.1676 0.26135 0.0
C768 C 0.07462 0.19255 0.25855 0.0
C769 C 0.06282 0.20889 0.26093 0.0
C770 C 0.06996 0.17557 0.28228 0.0
C771 C 0.05346 0.17476 0.30842 0.0
C772 C 0.04207 0.19128 0.3135 0.0
H773 H 0.99583 0.10586 0.51463 0.0
H774 H 0.01303 0.12929 0.46944 0.0
C775 C 0.04666 0.20815 0.28991 0.0
C776 C 0.04739 0.15649 0.32753 0.0
H777 H 0.01712 0.12592 0.31054 0.0
C778 C 0.05278 0.14897 0.37303 0.0
C779 C 0.03496 0.14759 0.30343 0.0
C780 C 0.02931 0.15473 0.2532 0.0
C781 C 0.04525 0.13333 0.39689 0.0
C782 C 0.03184 0.12539 0.3749 0.0
C783 C 0.02726 0.13218 0.32761 0.0
C784 C 0.02157 0.11099 0.40203 0.0
C785 C 0.05148 0.1257 0.44583 0.0
C786 C 0.02009 0.09326 0.37808 0.0
C787 C 0.00996 0.07995 0.4034 0.0
C788 C 1.00106 0.08424 0.45293 0.0
C789 C 1.00232 0.1022 0.47623 0.0
C790 C 0.01241 0.11548 0.45089 0.0
H791 H 0.0649 0.12885 0.44804 0.0
H792 H 0.04342 0.13275 0.47984 0.0
H793 H 0.05067 0.10996 0.44842 0.0
H794 H 0.02687 0.08967 0.33998 0.0
H795 H 0.00913 0.06629 0.38428 0.0
H796 H 0.29284 0.99574 0.43696 0.0
H797 H 0.3175 0.98547 0.48169 0.0
H798 H 0.35111 0.00877 0.35954 0.0
H799 H 0.32684 0.01866 0.31427 0.0
H800 H 0.34587 0.95985 0.43819 0.0
H801 H 0.36624 0.03031 0.49281 0.0
H802 H 0.34508 0.02741 0.47629 0.0
H803 H 0.36272 0.02878 0.4261 0.0
C804 C 0.30548 0.99879 0.41987 0.0
C805 C 0.30785 0.00814 0.37219 0.0
C806 C 0.31951 0.99298 0.44554 0.0
C807 C 0.33604 0.99662 0.42418 0.0
C808 C 0.33839 0.00624 0.37722 0.0
H809 H 0.44117 0.97089 0.44664 0.0
H810 H 0.41256 0.97925 0.42286 0.0
C811 C 0.32446 0.01196 0.3515 0.0
C812 C 0.35112 0.98927 0.44842 0.0
H813 H 0.38736 0.00346 0.48995 0.0
C814 C 0.35483 0.96933 0.4505 0.0
C815 C 0.3627 0.00174 0.46436 0.0
C816 C 0.35893 0.02326 0.4653 0.0
C817 C 0.37037 0.96151 0.46536 0.0
C818 C 0.38229 0.97403 0.47882 0.0
C819 C 0.37822 0.99394 0.47898 0.0
C820 C 0.39941 0.96691 0.49078 0.0
C821 C 0.3743 0.94002 0.46426 0.0
C822 C 0.4014 0.95688 0.53629 0.0
C823 C 0.41772 0.9521 0.54999 0.0
C824 C 0.43225 0.95742 0.51847 0.0
C825 C 0.43019 0.96678 0.47185 0.0
C826 C 0.4139 0.97153 0.45821 0.0
H827 H 0.36492 0.93249 0.44492 0.0
H828 H 0.38731 0.93602 0.44386 0.0
H829 H 0.37398 0.93489 0.50455 0.0
H830 H 0.39033 0.95345 0.56221 0.0
H831 H 0.41891 0.94515 0.58653 0.0
H832 H 0.54898 0.33761 0.29487 0.0
H833 H 0.55353 0.36446 0.35006 0.0
H834 H 0.57169 0.32509 0.4618 0.0
H835 H 0.56661 0.29798 0.4069 0.0
H836 H 0.54775 0.34857 0.50701 0.0
H837 H 0.59127 0.39287 0.38978 0.0
H838 H 0.57435 0.38795 0.35324 0.0
H839 H 0.58874 0.36843 0.37113 0.0
C840 C 0.55449 0.33465 0.33036 0.0
C841 C 0.55744 0.3157 0.3466 0.0
C842 C 0.55721 0.35006 0.36185 0.0
C843 C 0.56326 0.34689 0.40982 0.0
C844 C 0.56712 0.32792 0.42483 0.0
H845 H 0.55779 0.45296 0.60304 0.0
H846 H 0.57085 0.42372 0.5556 0.0
C847 C 0.56418 0.31246 0.39357 0.0
C848 C 0.56275 0.36318 0.4472 0.0
H849 H 0.56972 0.41062 0.45355 0.0
C850 C 0.553 0.36196 0.49576 0.0
C851 C 0.56983 0.38063 0.43339 0.0
C852 C 0.58179 0.38243 0.38422 0.0
C853 C 0.54885 0.37809 0.52863 0.0
C854 C 0.55421 0.39603 0.51193 0.0
C855 C 0.56527 0.39694 0.46571 0.0
C856 C 0.5468 0.41409 0.53898 0.0
C857 C 0.53818 0.37591 0.58012 0.0
C858 C 0.52907 0.4186 0.54374 0.0
C859 C 0.52163 0.43511 0.57064 0.0
C860 C 0.53177 0.44764 0.59296 0.0
C861 C 0.54964 0.44355 0.58641 0.0
C862 C 0.55711 0.42686 0.55948 0.0
H863 H 0.54117 0.38627 0.60962 0.0
H864 H 0.52445 0.37856 0.57525 0.0
H865 H 0.54023 0.36113 0.59477 0.0
H866 H 0.52093 0.40921 0.5269 0.0
H867 H 0.50786 0.43794 0.57425 0.0
H868 H 0.1825 0.41773 0.27357 0.0
H869 H 0.15613 0.42403 0.33369 0.0
H870 H 0.17347 0.47737 0.38191 0.0
H871 H 0.19925 0.47174 0.3216 0.0
H872 H 0.15451 0.45613 0.46387 0.0
H873 H 0.12251 0.4681 0.28591 0.0
H874 H 0.13431 0.44533 0.29299 0.0
H875 H 0.14546 0.46654 0.28343 0.0
C876 C 0.18082 0.43065 0.29759 0.0
C877 C 0.19297 0.44432 0.29201 0.0
C878 C 0.1658 0.43415 0.33207 0.0
C879 C 0.16285 0.45127 0.36157 0.0
C880 C 0.17558 0.46403 0.35954 0.0
H881 H 0.09482 0.53586 0.52364 0.0
H882 H 0.11843 0.51291 0.48707 0.0
C883 C 0.19044 0.46067 0.32502 0.0
C884 C 0.1458 0.45764 0.38872 0.0
H885 H 0.1076 0.47969 0.3645 0.0
C886 C 0.14405 0.46089 0.44247 0.0
C887 C 0.13225 0.46382 0.3605 0.0
C888 C 0.13361 0.4609 0.30248 0.0
C889 C 0.12938 0.47104 0.46845 0.0
C890 C 0.11641 0.4785 0.43953 0.0
C891 C 0.11766 0.4741 0.38641 0.0
C892 C 0.10211 0.49213 0.4625 0.0
C893 C 0.12811 0.47406 0.52635 0.0
C894 C 0.08517 0.48842 0.45876 0.0
C895 C 0.07172 0.50165 0.47873 0.0
C896 C 0.07499 0.51885 0.50265 0.0
C897 C 0.09197 0.52268 0.50562 0.0
C898 C 0.10542 0.50949 0.48531 0.0
H899 H 0.13562 0.46238 0.54431 0.0
H900 H 0.13342 0.48777 0.5348 0.0
H901 H 0.11463 0.47476 0.54473 0.0
H902 H 0.08236 0.47519 0.44087 0.0
H903 H 0.05874 0.49816 0.47678 0.0
H904 H 0.02729 0.78188 0.05008 0.0
H905 H 0.03717 0.80589 0.98974 0.0
H906 H 0.08779 0.79693 0.03502 0.0
H907 H 0.07803 0.7723 0.09548 0.0
H908 H 0.07445 0.83456 0.04397 0.0
H909 H 0.06666 0.80603 0.85081 0.0
H910 H 0.0479 0.80349 0.89554 0.0
H911 H 0.06792 0.7908 0.90616 0.0
C912 C 0.04069 0.7844 0.04605 0.0
C913 C 0.05187 0.77505 0.0776 0.0
C914 C 0.04633 0.79818 0.01135 0.0
C915 C 0.06328 0.80295 0.00719 0.0
C916 C 0.07469 0.79329 0.03732 0.0
H917 H 0.08375 0.91458 0.86543 0.0
H918 H 0.0909 0.88238 0.89736 0.0
C919 C 0.06906 0.77935 0.07206 0.0
C920 C 0.06806 0.81985 0.9768 0.0
H921 H 0.06261 0.84102 0.86184 0.0
C922 C 0.07245 0.83585 0.00361 0.0
C923 C 0.0655 0.82144 0.92414 0.0
C924 C 0.06191 0.80442 0.89242 0.0
C925 C 0.07267 0.85389 0.98061 0.0
C926 C 0.06856 0.8558 0.9295 0.0
C927 C 0.0656 0.83949 0.90126 0.0
C928 C 0.06478 0.87484 0.9077 0.0
C929 C 0.07593 0.87107 0.01237 0.0
C930 C 0.04778 0.88106 0.9026 0.0
C931 C 0.04364 0.89939 0.88492 0.0
C932 C 0.05646 0.91183 0.87164 0.0
C933 C 0.07356 0.90543 0.87607 0.0
C934 C 0.07769 0.88704 0.89398 0.0
H935 H 0.07764 0.86733 0.05291 0.0
H936 H 0.08764 0.87725 0.99439 0.0
H937 H 0.06513 0.88232 0.01302 0.0
H938 H 0.03764 0.87184 0.91342 0.0
H939 H 0.03033 0.90394 0.88273 0.0
H940 H 0.7065 0.02646 0.00315 0.0
H941 H 0.68231 0.03428 0.95561 0.0
H942 H 0.67647 0.09182 0.02009 0.0
H943 H 0.70115 0.08436 0.06677 0.0
H944 H 0.64732 0.0702 0.0401 0.0
H945 H 0.6724 0.06843 0.83128 0.0
H946 H 0.68078 0.04861 0.8666 0.0
H947 H 0.68555 0.07254 0.88176 0.0
C948 C 0.70056 0.04102 0.00581 0.0
C949 C 0.70576 0.05475 0.03912 0.0
C950 C 0.68667 0.04545 0.97859 0.0
C951 C 0.6777 0.06365 0.98411 0.0
C952 C 0.68331 0.07771 0.01521 0.0
H953 H 0.58188 0.08643 0.84596 0.0
H954 H 0.6094 0.09171 0.87595 0.0
C955 C 0.69733 0.07336 0.04215 0.0
C956 C 0.66116 0.06689 0.9634 0.0
H957 H 0.64255 0.06389 0.85239 0.0
C958 C 0.64627 0.06925 0.99899 0.0
C959 C 0.65986 0.06565 0.90981 0.0
C960 C 0.6755 0.06384 0.87004 0.0
C961 C 0.63008 0.06926 0.98252 0.0
C962 C 0.62882 0.06685 0.92923 0.0
C963 C 0.64364 0.06562 0.8933 0.0
C964 C 0.61233 0.0639 0.91088 0.0
C965 C 0.61441 0.07113 0.02225 0.0
C966 C 0.60506 0.04651 0.92053 0.0
C967 C 0.58947 0.04345 0.9035 0.0
C968 C 0.58085 0.05777 0.87661 0.0
C969 C 0.58817 0.07523 0.86704 0.0
C970 C 0.60388 0.07822 0.8838 0.0
H971 H 0.61724 0.07676 0.06007 0.0
H972 H 0.60412 0.08076 0.00839 0.0
H973 H 0.60956 0.05679 0.02846 0.0
H974 H 0.61149 0.03529 0.94124 0.0
H975 H 0.58407 0.02994 0.91183 0.0
H976 H 0.52624 0.64864 0.02667 0.0
H977 H 0.51414 0.6246 0.97726 0.0
H978 H 0.50321 0.66673 0.86335 0.0
H979 H 0.516 0.69085 0.91171 0.0
H980 H 0.48113 0.6246 0.94971 0.0
H981 H 0.53023 0.62261 0.77616 0.0
H982 H 0.53328 0.6339 0.8366 0.0
H983 H 0.51926 0.64562 0.7952 0.0
C984 C 0.52155 0.65277 0.99065 0.0
C985 C 0.52233 0.67161 0.97274 0.0
C986 C 0.51444 0.63906 0.96279 0.0
C987 C 0.50792 0.64385 0.91648 0.0
C988 C 0.50839 0.66269 0.89868 0.0
H989 H 0.4802 0.55561 0.70796 0.0
H990 H 0.47953 0.58751 0.74825 0.0
C991 C 0.51559 0.67647 0.92654 0.0
C992 C 0.50089 0.6288 0.88711 0.0
H993 H 0.50959 0.60045 0.77798 0.0
C994 C 0.48718 0.61948 0.9118 0.0
C995 C 0.50874 0.62226 0.83753 0.0
C996 C 0.52377 0.63147 0.80975 0.0
C997 C 0.48162 0.60322 0.88925 0.0
C998 C 0.49011 0.59605 0.8411 0.0
C999 C 0.50311 0.60605 0.81494 0.0
C1000 C 0.48735 0.57697 0.82028 0.0
C1001 C 0.46703 0.59354 0.91778 0.0
C1002 C 0.49163 0.56052 0.84793 0.0
C1003 C 0.49211 0.54233 0.82504 0.0
C1004 C 0.48834 0.54028 0.77402 0.0
C1005 C 0.48306 0.55671 0.74748 0.0
C1006 C 0.48272 0.57495 0.77032 0.0
H1007 H 0.45855 0.60379 0.9443 0.0
H1008 H 0.4593 0.58709 0.89039 0.0
H1009 H 0.47226 0.58191 0.94155 0.0
H1010 H 0.49556 0.56178 0.88617 0.0
H1011 H 0.49623 0.52996 0.84646 0.0
H1012 H 0.78956 0.50915 0.02345 0.0
H1013 H 0.8046 0.49944 0.93799 0.0
H1014 H 0.8529 0.50294 0.99679 0.0
H1015 H 0.83805 0.51366 0.08096 0.0
H1016 H 0.85365 0.51575 0.89892 0.0
H1017 H 0.82591 0.44508 0.91345 0.0
H1018 H 0.8114 0.46628 0.91347 0.0
H1019 H 0.82325 0.4619 0.96738 0.0
C1020 C 0.80338 0.50834 0.01774 0.0
C1021 C 0.81263 0.51187 0.05926 0.0
C1022 C 0.81194 0.50254 0.96904 0.0
C1023 C 0.82985 0.49999 0.96138 0.0
C1024 C 0.83906 0.50466 1.00188 0.0
H1025 H 0.90867 0.42624 0.86241 0.0
H1026 H 0.87959 0.44043 0.8841 0.0
C1027 C 0.83055 0.51062 0.05019 0.0
C1028 C 0.8394 0.49116 0.91316 0.0
H1029 H 0.84979 0.44746 0.85273 0.0
C1030 C 0.85265 0.50094 0.88779 0.0
C1031 C 0.83782 0.47191 0.89847 0.0
C1032 C 0.82391 0.46056 0.9246 0.0
C1033 C 0.86559 0.49141 0.85276 0.0
C1034 C 0.86482 0.47163 0.84126 0.0
C1035 C 0.85041 0.46253 0.86189 0.0
C1036 C 0.88027 0.45941 0.81864 0.0
C1037 C 0.88073 0.50222 0.83284 0.0
C1038 C 0.8899 0.46404 0.77222 0.0
C1039 C 0.90693 0.45658 0.76103 0.0
C1040 C 0.91436 0.44382 0.79525 0.0
C1041 C 0.90368 0.43675 0.83664 0.0
C1042 C 0.88688 0.44468 0.84868 0.0
H1043 H 0.88032 0.51656 0.85197 0.0
H1044 H 0.89289 0.49401 0.83922 0.0
H1045 H 0.88079 0.50447 0.79069 0.0
H1046 H 0.88477 0.47468 0.74707 0.0
H1047 H 0.91455 0.46221 0.72815 0.0
H1048 H 1.00412 0.20879 0.96827 0.0
H1049 H 0.99984 0.17808 0.9284 0.0
H1050 H 0.03327 0.19124 0.79219 0.0
H1051 H 0.03746 0.22218 0.83143 0.0
H1052 H 0.98822 0.16762 0.83297 0.0
H1053 H 0.05577 0.14046 0.84287 0.0
H1054 H 0.04588 0.16175 0.87787 0.0
H1055 H 0.05282 0.16266 0.80961 0.0
C1056 C 0.01026 0.20543 0.92932 0.0
C1057 C 0.02124 0.21801 0.90328 0.0
C1058 C 0.00788 0.18776 0.9067 0.0
C1059 C 0.01647 0.18219 0.85771 0.0
C1060 C 0.02677 0.19506 0.83049 0.0
H1061 H 1.00033 0.07941 0.67933 0.0
H1062 H 1.00246 0.11255 0.70756 0.0
C1063 C 0.02915 0.21276 0.85301 0.0
C1064 C 0.01525 0.1626 0.83636 0.0
H1065 H 0.03873 0.11997 0.80344 0.0
C1066 C 0.99926 0.15722 0.82625 0.0
C1067 C 0.02963 0.14894 0.8283 0.0
C1068 C 0.04699 0.1536 0.84057 0.0
C1069 C 0.9973 0.1386 0.80811 0.0
C1070 C 0.01174 0.12503 0.79944 0.0
C1071 C 0.0277 0.13041 0.80969 0.0
C1072 C 0.01046 0.10494 0.78179 0.0
C1073 C 0.97972 0.13343 0.79968 0.0
C1074 C 0.01461 0.08959 0.81358 0.0
C1075 C 0.01346 0.07064 0.79754 0.0
C1076 C 0.00827 0.06656 0.74906 0.0
C1077 C 1.00432 0.08198 0.71696 0.0
C1078 C 0.00543 0.10097 0.73316 0.0
H1079 H 0.96952 0.14398 0.81877 0.0
H1080 H 0.97869 0.13318 0.75753 0.0
H1081 H 0.97743 0.11895 0.81472 0.0
H1082 H 0.0186 0.0923 0.85116 0.0
H1083 H 0.01664 0.05918 0.82328 0.0
H1084 H 0.31294 0.04484 0.94019 0.0
H1085 H 0.34179 0.0414 0.89375 0.0
H1086 H 0.34681 0.98169 0.93361 0.0
H1087 H 0.31837 0.98526 0.98269 0.0
H1088 H 0.37406 0.99814 0.95286 0.0
H1089 H 0.36112 0.01829 0.75566 0.0
H1090 H 0.35277 0.03663 0.80289 0.0
H1091 H 0.34432 0.0135 0.80606 0.0
C1092 C 0.32011 0.03092 0.93905 0.0
C1093 C 0.31316 0.01535 0.96557 0.0
C1094 C 0.33661 0.02891 0.91173 0.0
C1095 C 0.34653 0.01121 0.90938 0.0
C1096 C 0.33945 0.9955 0.9345 0.0
H1097 H 0.4444 0.98707 0.71274 0.0
H1098 H 0.41445 0.98873 0.75082 0.0
C1099 C 0.32302 0.99753 0.96217 0.0
C1100 C 0.36464 0.00936 0.88403 0.0
H1101 H 0.39026 0.01773 0.77209 0.0
C1102 C 0.37755 0.00231 0.91318 0.0
C1103 C 0.36932 0.01453 0.83199 0.0
C1104 C 0.35613 0.02096 0.79717 0.0
C1105 C 0.39489 0.00063 0.8923 0.0
C1106 C 0.39965 0.00669 0.84113 0.0
C1107 C 0.38672 0.01334 0.81154 0.0
C1108 C 0.41791 0.00605 0.81752 0.0
C1109 C 0.4079 0.99199 0.92514 0.0
C1110 C 0.42991 0.01551 0.84161 0.0
C1111 C 0.44711 0.01444 0.82015 0.0
C1112 C 0.45272 0.00413 0.77354 0.0
C1113 C 0.4406 0.99512 0.74869 0.0
C1114 C 0.42341 0.99606 0.77044 0.0
H1115 H 0.40197 0.98283 0.95576 0.0
H1116 H 0.41839 0.98318 0.90124 0.0
H1117 H 0.4135 0.00368 0.94462 0.0
H1118 H 0.42597 0.02378 0.87711 0.0
H1119 H 0.45601 0.02174 0.84012 0.0
H1120 H 0.46449 0.32813 0.08001 0.0
H1121 H 0.45956 0.35749 0.03195 0.0
H1122 H 0.49189 0.33206 0.8989 0.0
H1123 H 0.49619 0.30239 0.94575 0.0
H1124 H 0.48372 0.3799 1.00009 0.0
H1125 H 0.45433 0.3585 0.82917 0.0
H1126 H 0.45539 0.34333 0.88461 0.0
H1127 H 0.47341 0.34336 0.83493 0.0
C1128 C 0.47003 0.3285 0.03988 0.0
C1129 C 0.4808 0.31287 0.01685 0.0
C1130 C 0.46732 0.34539 0.01257 0.0
C1131 C 0.47525 0.34701 0.96162 0.0
C1132 C 0.48533 0.33111 0.93773 0.0
H1133 H 0.51745 0.44233 0.81184 0.0
H1134 H 0.50985 0.41504 0.86434 0.0
C1135 C 0.48797 0.31419 0.96487 0.0
C1136 C 0.47475 0.36588 0.93572 0.0
H1137 H 0.46947 0.38725 0.82063 0.0
C1138 C 0.4803 0.38157 0.96118 0.0
C1139 C 0.47006 0.36826 0.88525 0.0
C1140 C 0.46278 0.3525 0.85719 0.0
C1141 C 0.48218 0.39916 0.9366 0.0
C1142 C 0.47881 0.40103 0.88465 0.0
C1143 C 0.47231 0.38574 0.86018 0.0
C1144 C 0.48305 0.41819 0.85406 0.0
C1145 C 0.48794 0.41552 0.96644 0.0
C1146 C 0.47058 0.42888 0.82977 0.0
C1147 C 0.47492 0.44453 0.79913 0.0
C1148 C 0.49186 0.44967 0.79195 0.0
C1149 C 0.50426 0.43894 0.81666 0.0
C1150 C 0.49991 0.42334 0.84707 0.0
H1151 H 0.48438 0.41414 0.00883 0.0
H1152 H 0.50207 0.41529 0.95908 0.0
H1153 H 0.48232 0.4296 0.95443 0.0
H1154 H 0.4575 0.42508 0.83433 0.0
H1155 H 0.46506 0.45239 0.78052 0.0
H1156 H 0.17968 0.51944 0.89115 0.0
H1157 H 0.15228 0.52071 0.8556 0.0
H1158 H 0.15067 0.45982 0.87617 0.0
H1159 H 0.17779 0.45845 0.91235 0.0
H1160 H 0.14265 0.49926 0.7677 0.0
H1161 H 0.1046 0.48378 0.95432 0.0
H1162 H 0.12581 0.49176 0.9508 0.0
H1163 H 0.12301 0.46726 0.93511 0.0
C1164 C 0.1735 0.50631 0.88817 0.0
C1165 C 0.18104 0.48884 0.90469 0.0
C1166 C 0.15786 0.50705 0.8676 0.0
C1167 C 0.14929 0.4904 0.86373 0.0
C1168 C 0.15691 0.47291 0.87928 0.0
H1169 H 0.04948 0.46698 0.77791 0.0
H1170 H 0.0781 0.46476 0.80525 0.0
C1171 C 0.17257 0.47213 0.89948 0.0
C1172 C 0.1323 0.49128 0.84404 0.0
H1173 H 0.09017 0.4847 0.88002 0.0
C1174 C 0.13115 0.49615 0.79227 0.0
C1175 C 0.1173 0.4871 0.87596 0.0
C1176 C 0.11761 0.48232 0.93227 0.0
C1177 C 0.11551 0.49664 0.77138 0.0
C1178 C 0.10045 0.49264 0.80347 0.0
C1179 C 0.10164 0.48774 0.85525 0.0
C1180 C 0.08327 0.49377 0.78459 0.0
C1181 C 0.11541 0.50095 0.7147 0.0
C1182 C 0.07648 0.51083 0.76401 0.0
C1183 C 0.06015 0.51211 0.74807 0.0
C1184 C 0.05003 0.49643 0.75283 0.0
C1185 C 0.05685 0.47935 0.77347 0.0
C1186 C 0.07324 0.47806 0.78925 0.0
H1187 H 0.12827 0.49773 0.69247 0.0
H1188 H 0.10619 0.49257 0.69718 0.0
H1189 H 0.11161 0.51645 0.7106 0.0
H1190 H 0.08369 0.52334 0.76113 0.0
H1191 H 0.05538 0.52556 0.73269 0.0
H1192 H 0.00859 0.79286 0.54008 0.0
H1193 H 0.0079 0.82412 0.58368 0.0
H1194 H 0.96981 0.84724 0.49105 0.0
H1195 H 0.9707 0.81621 0.44622 0.0
H1196 H 0.01566 0.85855 0.52714 0.0
H1197 H 0.95135 0.86621 0.64211 0.0
H1198 H 0.96188 0.84319 0.61945 0.0
H1199 H 0.95205 0.85884 0.57537 0.0
C1200 C 0.99995 0.80453 0.52915 0.0
C1201 C 0.98977 0.80196 0.48928 0.0
C1202 C 0.99953 0.82237 0.55434 0.0
C1203 C 0.98874 0.83798 0.54082 0.0
C1204 C 0.97803 0.83531 0.50269 0.0
H1205 H 0.97441 0.95977 0.61966 0.0
H1206 H 0.97208 0.92708 0.58863 0.0
C1207 C 0.97852 0.81749 0.4772 0.0
C1208 C 0.98982 0.8574 0.56325 0.0
H1209 H 0.96704 0.89366 0.63749 0.0
C1210 C 1.00508 0.86619 0.55158 0.0
C1211 C 0.97594 0.8674 0.59461 0.0
C1212 C 0.95939 0.85844 0.60909 0.0
C1213 C 0.00676 0.88486 0.56958 0.0
C1214 C 0.99294 0.89486 0.60149 0.0
C1215 C 0.97766 0.88602 0.61324 0.0
C1216 C 0.99403 0.91459 0.6223 0.0
C1217 C 0.02314 0.8939 0.55269 0.0
C1218 C 0.00691 0.91845 0.65255 0.0
C1219 C 0.0084 0.93718 0.66988 0.0
C1220 C 0.99683 0.95243 0.65813 0.0
C1221 C 0.98357 0.94841 0.62937 0.0
C1222 C 0.9822 0.92969 0.61162 0.0
H1223 H 0.0302 0.88682 0.51701 0.0
H1224 H 0.02062 0.90942 0.5453 0.0
H1225 H 0.03155 0.89234 0.58376 0.0
H1226 H 0.01591 0.90699 0.6626 0.0
H1227 H 0.01865 0.93968 0.69242 0.0
H1228 H 0.68679 0.96783 0.38734 0.0
H1229 H 0.65909 0.96451 0.43773 0.0
H1230 H 0.66604 0.01294 0.53439 0.0
H1231 H 0.6942 0.01568 0.48619 0.0
H1232 H 0.65122 0.98574 0.59126 0.0
H1233 H 0.61708 0.99884 0.41952 0.0
H1234 H 0.63254 0.97841 0.41145 0.0
H1235 H 0.63947 0.00205 0.41854 0.0
C1236 C 0.68266 0.97754 0.42002 0.0
C1237 C 0.69278 0.99219 0.43209 0.0
C1238 C 0.66662 0.97581 0.44834 0.0
C1239 C 0.66017 0.98884 0.48895 0.0
C1240 C 0.67058 0.00285 0.50281 0.0
H1241 H 0.56331 0.01873 0.67937 0.0
H1242 H 0.59284 0.01642 0.63738 0.0
C1243 C 0.68668 0.00449 0.47484 0.0
C1244 C 0.64247 0.98825 0.51626 0.0
H1245 H 0.60036 0.9907 0.49673 0.0
C1246 C 0.64011 0.98684 0.57052 0.0
C1247 C 0.62788 0.98978 0.4894 0.0
C1248 C 0.6293 0.99255 0.4316 0.0
C1249 C 0.62369 0.98676 0.5984 0.0
C1250 C 0.60918 0.98824 0.57147 0.0
C1251 C 0.6115 0.98945 0.51729 0.0
C1252 C 0.59144 0.98915 0.59884 0.0
C1253 C 0.62197 0.98494 0.65649 0.0
C1254 C 0.58073 0.97467 0.59086 0.0
C1255 C 0.56381 0.97591 0.61497 0.0
C1256 C 0.55715 0.99182 0.64698 0.0
C1257 C 0.56796 0.00628 0.65496 0.0
C1258 C 0.58491 0.00494 0.63121 0.0
H1259 H 0.63425 0.97959 0.67004 0.0
H1260 H 0.61791 0.99924 0.67493 0.0
H1261 H 0.61211 0.97509 0.66981 0.0
H1262 H 0.58547 0.96242 0.5658 0.0
H1263 H 0.55586 0.96455 0.60773 0.0
H1264 H 0.51627 0.67524 0.35549 0.0
H1265 H 0.51162 0.64619 0.40488 0.0
H1266 H 0.56247 0.64527 0.44847 0.0
H1267 H 0.56719 0.67453 0.39948 0.0
H1268 H 0.53367 0.61026 0.38371 0.0
H1269 H 0.53036 0.63754 0.58668 0.0
H1270 H 0.52639 0.65309 0.53366 0.0
H1271 H 0.54785 0.64433 0.5416 0.0
C1272 C 0.52632 0.66917 0.37667 0.0
C1273 C 0.54208 0.67727 0.3738 0.0
C1274 C 0.52369 0.65247 0.40448 0.0
C1275 C 0.53667 0.64365 0.43046 0.0
C1276 C 0.55223 0.65198 0.42907 0.0
H1277 H 0.54426 0.54133 0.61483 0.0
H1278 H 0.54957 0.57047 0.56684 0.0
C1279 C 0.55493 0.66863 0.40092 0.0
C1280 C 0.53426 0.62511 0.45624 0.0
H1281 H 0.53023 0.60407 0.57437 0.0
C1282 C 0.53287 0.60887 0.42541 0.0
C1283 C 0.53336 0.62337 0.51052 0.0
C1284 C 0.53444 0.64049 0.54533 0.0
C1285 C 0.53082 0.59082 0.4474 0.0
C1286 C 0.52967 0.58909 0.50187 0.0
C1287 C 0.5311 0.60538 0.53264 0.0
C1288 C 0.52693 0.57058 0.52793 0.0
C1289 C 0.53034 0.57372 0.41191 0.0
C1290 C 0.51251 0.56079 0.52174 0.0
C1291 C 0.50952 0.54395 0.54875 0.0
C1292 C 0.52077 0.53674 0.58317 0.0
C1293 C 0.53532 0.54645 0.58869 0.0
C1294 C 0.53836 0.56317 0.56137 0.0
H1295 H 0.53646 0.57624 0.37207 0.0
H1296 H 0.53686 0.56061 0.42671 0.0
H1297 H 0.51684 0.57109 0.40942 0.0
H1298 H 0.50328 0.56646 0.49714 0.0
H1299 H 0.49808 0.537 0.54405 0.0
H1300 H 0.83308 0.48403 0.46945 0.0
H1301 H 0.85825 0.48348 0.51528 0.0
H1302 H 0.83653 0.53434 0.6026 0.0
H1303 H 0.81147 0.5352 0.5558 0.0
H1304 H 0.86805 0.53862 0.56833 0.0
H1305 H 0.86745 0.46718 0.65595 0.0
H1306 H 0.86739 0.46524 0.58723 0.0
H1307 H 0.84954 0.47795 0.6267 0.0
C1308 C 0.83348 0.49487 0.4992 0.0
C1309 C 0.82017 0.50961 0.50905 0.0
C1310 C 0.84791 0.49451 0.52562 0.0
C1311 C 0.84929 0.50866 0.56331 0.0
C1312 C 0.83584 0.52319 0.57392 0.0
H1313 H 0.9358 0.49853 0.74816 0.0
H1314 H 0.90708 0.49996 0.72168 0.0
C1315 C 0.82149 0.52368 0.54708 0.0
C1316 C 0.86527 0.50916 0.58861 0.0
H1317 H 0.89428 0.48143 0.64915 0.0
C1318 C 0.87363 0.52614 0.58653 0.0
C1319 C 0.87255 0.4931 0.61352 0.0
C1320 C 0.86365 0.47493 0.62153 0.0
C1321 C 0.88923 0.52728 0.60668 0.0
C1322 C 0.89714 0.51078 0.62804 0.0
C1323 C 0.88846 0.49403 0.63206 0.0
C1324 C 0.91456 0.51046 0.64499 0.0
C1325 C 0.89692 0.54632 0.60531 0.0
C1326 C 0.92848 0.51575 0.61082 0.0
C1327 C 0.94484 0.51533 0.62619 0.0
C1328 C 0.94785 0.50917 0.67583 0.0
C1329 C 0.93398 0.5035 0.70979 0.0
C1330 C 0.91752 0.50423 0.69459 0.0
H1331 H 0.88691 0.55847 0.6055 0.0
H1332 H 0.90409 0.54824 0.6388 0.0
H1333 H 0.90582 0.54705 0.56906 0.0
H1334 H 0.92677 0.52 0.57177 0.0
H1335 H 0.95522 0.51948 0.59861 0.0
loop_
_geom_bond_atom_site_label_1
_geom_bond_atom_site_label_2
_geom_bond_distance
_geom_bond_site_symmetry_2
_ccdc_geom_bond_type
C0 C1 1.386 . S
C0 C2 1.397 . S
C0 H24 0.931 . S
C1 C0 1.386 . S
C1 C5 1.397 . S
C2 C0 1.397 . S
C2 C3 1.384 . S
C2 H25 0.930 . S
C3 C2 1.384 . S
C3 C4 1.377 . S
C3 C6 1.481 . S
C4 C3 1.377 . S
C4 C5 1.389 . S
C4 H26 0.929 . S
C5 C1 1.397 . S
C5 C4 1.389 . S
C5 H27 0.931 . S
C6 C3 1.481 . S
C6 C7 1.387 . S
C6 C11 1.390 . S
C7 C6 1.387 . S
C7 C8 1.401 . S
C7 H28 0.930 . S
C8 C7 1.401 . S
C8 C9 1.376 . S
C8 C17 1.511 . S
C9 C8 1.376 . S
C9 C10 1.392 . S
C9 H30 0.931 . S
C10 C9 1.392 . S
C10 C11 1.361 . S
C10 C12 1.500 . S
C11 C6 1.390 . S
C11 C10 1.361 . S
C11 H29 0.931 . S
C12 C10 1.500 . S
C12 C13 1.371 . S
C12 C14 1.365 . S
C13 C12 1.371 . S
C13 C23 1.386 . S
C13 H31 0.931 . S
C14 C12 1.365 . S
C14 C15 1.409 . S
C14 H32 0.929 . S
C15 C14 1.409 . S
C15 C16 1.380 . S
C15 H33 0.930 . S
C16 C15 1.380 . S
C16 C23 1.357 . S
C17 C8 1.511 . S
C17 C18 1.341 . S
C17 C19 1.371 . S
C18 C17 1.341 . S
C18 C22 1.394 . S
C18 H34 0.930 . S
C19 C17 1.371 . S
C19 C20 1.392 . S
C19 H35 0.931 . S
C20 C19 1.392 . S
C20 C21 1.331 . S
C20 H38 0.932 . S
C21 C20 1.331 . S
C21 C22 1.336 . S
C22 C18 1.394 . S
C22 C21 1.336 . S
C22 H37 0.929 . S
C23 C13 1.386 . S
C23 C16 1.357 . S
C23 H36 0.928 . S
H24 C0 0.931 . S
H25 C2 0.930 . S
H26 C4 0.929 . S
H27 C5 0.931 . S
H28 C7 0.930 . S
H29 C11 0.931 . S
H30 C9 0.931 . S
H31 C13 0.931 . S
H32 C14 0.929 . S
H33 C15 0.930 . S
H34 C18 0.930 . S
H35 C19 0.931 . S
H36 C23 0.928 . S
H37 C22 0.929 . S
H38 C20 0.932 . S
C39 C40 1.386 . S
C39 C41 1.397 . S
C39 H63 0.931 . S
C40 C39 1.386 . S
C40 C44 1.397 . S
C41 C39 1.397 . S
C41 C42 1.384 . S
C41 H64 0.930 . S
C42 C41 1.384 . S
C42 C43 1.377 . S
C42 C45 1.481 . S
C43 C42 1.377 . S
C43 C44 1.389 . S
C43 H65 0.929 1_655 S
C44 C40 1.397 . S
C44 C43 1.389 . S
C44 H66 0.931 1_655 S
C45 C42 1.481 . S
C45 C46 1.387 . S
C45 C50 1.390 . S
C46 C45 1.387 . S
C46 C47 1.401 . S
C46 H67 0.930 . S
C47 C46 1.401 . S
C47 C48 1.376 . S
C47 C56 1.511 . S
C48 C47 1.376 . S
C48 C49 1.392 . S
C48 H69 0.931 . S
C49 C48 1.392 . S
C49 C50 1.361 . S
C49 C51 1.500 . S
C50 C45 1.390 . S
C50 C49 1.361 . S
C50 H68 0.931 . S
C51 C49 1.500 . S
C51 C52 1.371 . S
C51 C53 1.365 . S
C52 C51 1.371 . S
C52 C62 1.386 . S
C52 H70 0.931 . S
C53 C51 1.365 . S
C53 C54 1.409 . S
C53 H71 0.961 . S
C54 C53 1.409 . S
C54 C55 1.380 . S
C54 H72 0.930 . S
C55 C54 1.380 . S
C55 C62 1.357 . S
C56 C47 1.511 . S
C56 C57 1.341 . S
C56 C58 1.371 . S
C57 C56 1.341 . S
C57 C61 1.394 . S
C57 H73 0.930 . S
C58 C56 1.371 . S
C58 C59 1.392 . S
C58 H74 0.931 . S
C59 C58 1.392 . S
C59 C60 1.331 . S
C59 H77 0.932 . S
C60 C59 1.331 . S
C60 C61 1.336 . S
C61 C57 1.394 . S
C61 C60 1.336 . S
C61 H76 0.929 . S
C62 C52 1.386 . S
C62 C55 1.357 . S
C62 H75 0.928 . S
H63 C39 0.931 . S
H64 C41 0.930 . S
H65 C43 0.929 1_455 S
H66 C44 0.931 1_455 S
H67 C46 0.930 . S
H68 C50 0.931 . S
H69 C48 0.931 . S
H70 C52 0.931 . S
H71 C53 0.961 . S
H72 C54 0.930 . S
H73 C57 0.930 . S
H74 C58 0.931 . S
H75 C62 0.928 . S
H76 C61 0.929 . S
H77 C59 0.932 . S
C78 C79 1.393 . S
C78 C80 1.397 . S
C78 H102 0.931 . S
C79 C78 1.393 . S
C79 C83 1.389 1_565 S
C80 C78 1.397 . S
C80 C81 1.389 . S
C80 H103 0.930 . S
C81 C80 1.389 . S
C81 C82 1.373 1_565 S
C81 C84 1.482 . S
C82 C81 1.373 1_545 S
C82 C83 1.389 . S
C82 H104 0.929 . S
C83 C79 1.389 1_545 S
C83 C82 1.389 . S
C83 H105 0.931 . S
C84 C81 1.482 . S
C84 C85 1.385 . S
C84 C89 1.391 . S
C85 C84 1.385 . S
C85 C86 1.404 . S
C85 H106 0.930 . S
C86 C85 1.404 . S
C86 C87 1.376 . S
C86 C95 1.510 . S
C87 C86 1.376 . S
C87 C88 1.395 . S
C87 H108 0.932 . S
C88 C87 1.395 . S
C88 C89 1.361 . S
C88 C90 1.500 1_565 S
C89 C84 1.391 . S
C89 C88 1.361 . S
C89 H107 0.932 . S
C90 C88 1.500 1_545 S
C90 C91 1.364 1_545 S
C90 C92 1.372 . S
C91 C90 1.364 1_565 S
C91 C101 1.386 . S
C91 H109 0.931 . S
C92 C90 1.372 . S
C92 C93 1.409 . S
C92 H110 0.929 . S
C93 C92 1.409 . S
C93 C94 1.378 . S
C93 H111 0.930 . S
C94 C93 1.378 . S
C94 C101 1.359 1_545 S
C95 C86 1.510 . S
C95 C96 1.341 . S
C95 C97 1.371 1_565 S
C96 C95 1.341 . S
C96 C100 1.394 . S
C96 H112 0.930 . S
C97 C95 1.371 1_545 S
C97 C98 1.392 . S
C97 H113 0.931 . S
C98 C97 1.392 . S
C98 C99 1.323 1_545 S
C98 H116 0.932 . S
C99 C98 1.323 1_565 S
C99 C100 1.347 . S
C100 C96 1.394 . S
C100 C99 1.347 . S
C100 H115 0.929 . S
C101 C91 1.386 . S
C101 C94 1.359 1_565 S
C101 H114 0.928 . S
H102 C78 0.931 . S
H103 C80 0.930 . S
H104 C82 0.929 . S
H105 C83 0.931 . S
H106 C85 0.930 . S
H107 C89 0.932 . S
H108 C87 0.932 . S
H109 C91 0.931 . S
H110 C92 0.929 . S
H111 C93 0.930 . S
H112 C96 0.930 . S
H113 C97 0.931 . S
H114 C101 0.928 . S
H115 C100 0.929 . S
H116 C98 0.932 . S
C117 C118 1.386 . S
C117 C119 1.397 . S
C117 H141 0.931 . S
C118 C117 1.386 . S
C118 C122 1.397 . S
C119 C117 1.397 . S
C119 C120 1.384 . S
C119 H142 0.930 . S
C120 C119 1.384 . S
C120 C121 1.377 . S
C120 C123 1.481 . S
C121 C120 1.377 . S
C121 C122 1.389 . S
C121 H143 0.929 . S
C122 C118 1.397 . S
C122 C121 1.389 . S
C122 H144 0.931 . S
C123 C120 1.481 . S
C123 C124 1.387 . S
C123 C128 1.390 . S
C124 C123 1.387 . S
C124 C125 1.401 . S
C124 H145 0.930 . S
C125 C124 1.401 . S
C125 C126 1.376 . S
C125 C134 1.511 . S
C126 C125 1.376 . S
C126 C127 1.392 . S
C126 H147 0.931 1_554 S
C127 C126 1.392 . S
C127 C128 1.361 . S
C127 C129 1.500 1_554 S
C128 C123 1.390 . S
C128 C127 1.361 . S
C128 H146 0.931 . S
C129 C127 1.500 1_556 S
C129 C130 1.371 . S
C129 C131 1.365 . S
C130 C129 1.371 . S
C130 C140 1.386 . S
C130 H148 0.931 . S
C131 C129 1.365 . S
C131 C132 1.409 . S
C131 H149 0.929 1_556 S
C132 C131 1.409 . S
C132 C133 1.380 . S
C132 H150 0.930 . S
C133 C132 1.380 . S
C133 C140 1.357 . S
C134 C125 1.511 . S
C134 C135 1.341 . S
C134 C136 1.371 1_554 S
C135 C134 1.341 . S
C135 C139 1.394 . S
C135 H151 0.930 . S
C136 C134 1.371 1_556 S
C136 C137 1.392 . S
C136 H152 0.931 . S
C137 C136 1.392 . S
C137 C138 1.331 1_556 S
C137 H155 0.932 . S
C138 C137 1.331 1_554 S
C138 C139 1.336 . S
C139 C135 1.394 . S
C139 C138 1.336 . S
C139 H154 0.929 . S
C140 C130 1.386 . S
C140 C133 1.357 . S
C140 H153 0.928 . S
H141 C117 0.931 . S
H142 C119 0.930 . S
H143 C121 0.929 . S
H144 C122 0.931 . S
H145 C124 0.930 . S
H146 C128 0.931 . S
H147 C126 0.931 1_556 S
H148 C130 0.931 . S
H149 C131 0.929 1_554 S
H150 C132 0.930 . S
H151 C135 0.930 . S
H152 C136 0.931 . S
H153 C140 0.928 . S
H154 C139 0.929 . S
H155 C137 0.932 . S
C156 C157 1.386 . S
C156 C158 1.397 . S
C156 H180 0.931 . S
C157 C156 1.386 . S
C157 C161 1.397 . S
C158 C156 1.397 . S
C158 C159 1.384 . S
C158 H181 0.930 . S
C159 C158 1.384 . S
C159 C160 1.377 . S
C159 C162 1.481 . S
C160 C159 1.377 . S
C160 C161 1.389 . S
C160 H182 0.929 . S
C161 C157 1.397 . S
C161 C160 1.389 . S
C161 H183 0.931 . S
C162 C159 1.481 . S
C162 C163 1.387 . S
C162 C167 1.390 1_554 S
C163 C162 1.387 . S
C163 C164 1.401 . S
C163 H184 0.930 . S
C164 C163 1.401 . S
C164 C165 1.376 1_554 S
C164 C173 1.511 . S
C165 C164 1.376 1_556 S
C165 C166 1.392 . S
C165 H186 0.931 . S
C166 C165 1.392 . S
C166 C167 1.361 . S
C166 C168 1.500 . S
C167 C162 1.390 1_556 S
C167 C166 1.361 . S
C167 H185 0.931 . S
C168 C166 1.500 . S
C168 C169 1.371 . S
C168 C170 1.365 . S
C169 C168 1.371 . S
C169 C179 1.386 . S
C169 H187 0.931 . S
C170 C168 1.365 . S
C170 C171 1.409 . S
C170 H188 0.929 . S
C171 C170 1.409 . S
C171 C172 1.380 . S
C171 H189 0.930 . S
C172 C171 1.380 . S
C172 C179 1.357 . S
C173 C164 1.511 . S
C173 C174 1.341 . S
C173 C175 1.371 1_554 S
C174 C173 1.341 . S
C174 C178 1.394 . S
C174 H190 0.930 . S
C175 C173 1.371 1_556 S
C175 C176 1.392 . S
C175 H191 0.931 . S
C176 C175 1.392 . S
C176 C177 1.331 1_556 S
C176 H194 0.932 . S
C177 C176 1.331 1_554 S
C177 C178 1.336 . S
C178 C174 1.394 . S
C178 C177 1.336 . S
C178 H193 0.929 . S
C179 C169 1.386 . S
C179 C172 1.357 . S
C179 H192 0.928 . S
H180 C156 0.931 . S
H181 C158 0.930 . S
H182 C160 0.929 . S
H183 C161 0.931 . S
H184 C163 0.930 . S
H185 C167 0.931 . S
H186 C165 0.931 . S
H187 C169 0.931 . S
H188 C170 0.929 . S
H189 C171 0.930 . S
H190 C174 0.930 . S
H191 C175 0.931 . S
H192 C179 0.928 . S
H193 C178 0.929 . S
H194 C176 0.932 . S
C195 C196 1.386 . S
C195 C197 1.397 . S
C195 H219 0.931 . S
C196 C195 1.386 . S
C196 C200 1.397 . S
C197 C195 1.397 . S
C197 C198 1.384 . S
C197 H220 0.930 . S
C198 C197 1.384 . S
C198 C199 1.377 . S
C198 C201 1.481 . S
C199 C198 1.377 . S
C199 C200 1.389 . S
C199 H221 0.929 . S
C200 C196 1.397 . S
C200 C199 1.389 . S
C200 H222 0.931 . S
C201 C198 1.481 . S
C201 C202 1.387 . S
C201 C206 1.390 . S
C202 C201 1.387 . S
C202 C203 1.401 . S
C202 H223 0.930 . S
C203 C202 1.401 . S
C203 C204 1.376 . S
C203 C212 1.511 . S
C204 C203 1.376 . S
C204 C205 1.392 . S
C204 H225 0.931 . S
C205 C204 1.392 . S
C205 C206 1.361 . S
C205 C207 1.500 1_554 S
C206 C201 1.390 . S
C206 C205 1.361 . S
C206 H224 0.931 . S
C207 C205 1.500 1_556 S
C207 C208 1.371 . S
C207 C209 1.365 . S
C208 C207 1.371 . S
C208 C218 1.386 . S
C208 H226 0.931 . S
C209 C207 1.365 . S
C209 C210 1.409 . S
C209 H227 0.941 . S
C210 C209 1.409 . S
C210 C211 1.380 . S
C210 H228 0.930 . S
C211 C210 1.380 . S
C211 C218 1.357 . S
C212 C203 1.511 . S
C212 C213 1.341 . S
C212 C214 1.371 . S
C213 C212 1.341 . S
C213 C217 1.394 . S
C213 H229 0.930 . S
C214 C212 1.371 . S
C214 C215 1.392 . S
C214 H230 0.931 . S
C215 C214 1.392 . S
C215 C216 1.331 . S
C215 H233 0.932 . S
C216 C215 1.331 . S
C216 C217 1.336 . S
C217 C213 1.394 . S
C217 C216 1.336 . S
C217 H232 0.929 . S
C218 C208 1.386 . S
C218 C211 1.357 . S
C218 H231 0.928 . S
H219 C195 0.931 . S
H220 C197 0.930 . S
H221 C199 0.929 . S
H222 C200 0.931 . S
H223 C202 0.930 . S
H224 C206 0.931 . S
H225 C204 0.931 . S
H226 C208 0.931 . S
H227 C209 0.941 . S
H228 C210 0.930 . S
H229 C213 0.930 . S
H230 C214 0.931 . S
H231 C218 0.928 . S
H232 C217 0.929 . S
H233 C215 0.932 . S
C234 C235 1.386 . S
C234 C236 1.397 . S
C234 H258 0.931 . S
C235 C234 1.386 . S
C235 C239 1.397 1_565 S
C236 C234 1.397 . S
C236 C237 1.380 . S
C236 H259 0.930 . S
C237 C236 1.380 . S
C237 C238 1.381 1_565 S
C237 C240 1.479 . S
C238 C237 1.381 1_545 S
C238 C239 1.389 . S
C238 H260 0.929 . S
C239 C235 1.397 1_545 S
C239 C238 1.389 . S
C239 H261 0.931 . S
C240 C237 1.479 . S
C240 C241 1.383 . S
C240 C245 1.390 . S
C241 C240 1.383 . S
C241 C242 1.402 . S
C241 H262 0.938 . S
C242 C241 1.402 . S
C242 C243 1.377 . S
C242 C251 1.514 . S
C243 C242 1.377 . S
C243 C244 1.389 1_565 S
C243 H264 0.935 . S
C244 C243 1.389 1_545 S
C244 C245 1.361 1_545 S
C244 C246 1.498 . S
C245 C240 1.390 . S
C245 C244 1.361 1_565 S
C245 H263 0.932 1_565 S
C246 C244 1.498 . S
C246 C247 1.356 1_545 S
C246 C248 1.383 . S
C247 C246 1.356 1_565 S
C247 C257 1.386 1_554 S
C247 H265 0.931 . S
C248 C246 1.383 . S
C248 C249 1.409 1_554 S
C248 H266 0.929 . S
C249 C248 1.409 1_556 S
C249 C250 1.385 . S
C249 H267 0.930 . S
C250 C249 1.385 . S
C250 C257 1.353 1_545 S
C251 C242 1.514 . S
C251 C252 1.341 . S
C251 C253 1.371 1_565 S
C252 C251 1.341 . S
C252 C256 1.394 . S
C252 H268 0.930 . S
C253 C251 1.371 1_545 S
C253 C254 1.392 . S
C253 H269 0.931 . S
C254 C253 1.392 . S
C254 C255 1.326 1_545 S
C254 H272 0.932 . S
C255 C254 1.326 1_565 S
C255 C256 1.340 . S
C256 C252 1.394 . S
C256 C255 1.340 . S
C256 H271 0.929 . S
C257 C247 1.386 1_556 S
C257 C250 1.353 1_565 S
C257 H270 0.928 . S
H258 C234 0.931 . S
H259 C236 0.930 . S
H260 C238 0.929 . S
H261 C239 0.931 . S
H262 C241 0.938 . S
H263 C245 0.932 1_545 S
H264 C243 0.935 . S
H265 C247 0.931 . S
H266 C248 0.929 . S
H267 C249 0.930 . S
H268 C252 0.930 . S
H269 C253 0.931 . S
H270 C257 0.928 . S
H271 C256 0.929 . S
H272 C254 0.932 . S
C273 C274 1.386 . S
C273 C275 1.397 . S
C273 H297 0.931 . S
C274 C273 1.386 . S
C274 C278 1.397 . S
C275 C273 1.397 . S
C275 C276 1.384 . S
C275 H298 0.930 . S
C276 C275 1.384 . S
C276 C277 1.377 . S
C276 C279 1.481 . S
C277 C276 1.377 . S
C277 C278 1.389 . S
C277 H299 0.929 . S
C278 C274 1.397 . S
C278 C277 1.389 . S
C278 H300 0.931 . S
C279 C276 1.481 . S
C279 C280 1.387 . S
C279 C284 1.390 . S
C280 C279 1.387 . S
C280 C281 1.401 . S
C280 H301 0.930 . S
C281 C280 1.401 . S
C281 C282 1.376 . S
C281 C290 1.511 . S
C282 C281 1.376 . S
C282 C283 1.392 . S
C282 H303 0.931 . S
C283 C282 1.392 . S
C283 C284 1.361 . S
C283 C285 1.500 . S
C284 C279 1.390 . S
C284 C283 1.361 . S
C284 H302 0.931 . S
C285 C283 1.500 . S
C285 C286 1.371 . S
C285 C287 1.365 . S
C286 C285 1.371 . S
C286 C296 1.386 . S
C286 H304 0.931 . S
C287 C285 1.365 . S
C287 C288 1.409 . S
C287 H305 0.929 . S
C288 C287 1.409 . S
C288 C289 1.380 . S
C288 H306 0.930 . S
C289 C288 1.380 . S
C289 C296 1.357 . S
C290 C281 1.511 . S
C290 C291 1.341 . S
C290 C292 1.371 . S
C291 C290 1.341 . S
C291 C295 1.394 . S
C291 H307 0.930 . S
C292 C290 1.371 . S
C292 C293 1.392 . S
C292 H308 0.931 . S
C293 C292 1.392 . S
C293 C294 1.331 . S
C293 H311 0.932 . S
C294 C293 1.331 . S
C294 C295 1.336 . S
C295 C291 1.394 . S
C295 C294 1.336 . S
C295 H310 0.929 . S
C296 C286 1.386 . S
C296 C289 1.357 . S
C296 H309 0.928 . S
H297 C273 0.931 . S
H298 C275 0.930 . S
H299 C277 0.929 . S
H300 C278 0.931 . S
H301 C280 0.930 . S
H302 C284 0.931 . S
H303 C282 0.931 . S
H304 C286 0.931 . S
H305 C287 0.929 . S
H306 C288 0.930 . S
H307 C291 0.930 . S
H308 C292 0.931 . S
H309 C296 0.928 . S
H310 C295 0.929 . S
H311 C293 0.932 . S
Dy312 O315 2.307 1_545 S
Dy312 O317 2.395 1_655 S
Dy312 O318 2.379 . S
Dy312 O320 2.339 . S
Dy312 O322 2.298 1_655 S
Dy312 O326 2.275 1_655 S
Dy312 C334 2.738 . S
Dy313 O316 2.298 . S
Dy313 O319 2.275 1_455 S
Dy313 O321 2.307 1_565 S
Dy313 O323 2.395 . S
Dy313 O324 2.379 . S
Dy313 O327 2.339 . S
Dy313 C343 2.738 . S
C314 O326 1.254 1_565 S
C314 O327 1.257 . S
O315 Dy312 2.307 1_565 S
O315 C325 1.266 . S
O316 Dy313 2.298 . S
O316 C325 1.236 1_455 S
O317 Dy312 2.395 1_455 S
O317 C334 1.255 1_455 S
O318 Dy312 2.379 . S
O318 C334 1.249 . S
O319 Dy313 2.275 1_655 S
O319 C335 1.254 1_565 S
O320 Dy312 2.339 . S
O320 C335 1.257 . S
O321 Dy313 2.307 1_545 S
O321 C336 1.266 . S
O322 Dy312 2.298 1_455 S
O322 C336 1.236 . S
O323 Dy313 2.395 . S
O323 C343 1.255 . S
O324 Dy313 2.379 . S
O324 C343 1.249 . S
C325 O315 1.266 . S
C325 O316 1.236 1_655 S
O326 Dy312 2.275 1_455 S
O326 C314 1.254 1_545 S
O327 Dy313 2.339 . S
O327 C314 1.257 . S
C328 C331 1.344 1_655 S
C328 C332 1.328 . S
C328 C334 1.516 . S
C329 C330 1.304 1_655 S
C329 C333 1.323 . S
C330 C329 1.304 1_455 S
C330 C331 1.371 . S
C330 H344 0.930 . S
C331 C328 1.344 1_455 S
C331 C330 1.371 . S
C331 H345 0.931 . S
C332 C328 1.328 . S
C332 C333 1.433 . S
C332 H346 0.931 . S
C333 C329 1.323 . S
C333 C332 1.433 . S
C333 H347 0.933 . S
C334 Dy312 2.738 . S
C334 O317 1.255 1_655 S
C334 O318 1.249 . S
C334 C328 1.516 . S
C335 O319 1.254 1_545 S
C335 O320 1.257 . S
C336 O321 1.266 . S
C336 O322 1.236 . S
C337 C340 1.389 . S
C337 C341 1.328 . S
C337 C343 1.516 . S
C338 C339 1.363 . S
C338 C342 1.323 . S
C339 C338 1.363 . S
C339 C340 1.371 . S
C339 H348 0.870 1_455 S
C340 C337 1.389 . S
C340 C339 1.371 . S
C340 H349 0.886 1_455 S
C341 C337 1.328 . S
C341 C342 1.433 . S
C341 H350 0.931 . S
C342 C338 1.323 . S
C342 C341 1.433 . S
C342 H351 0.933 . S
C343 Dy313 2.738 . S
C343 O323 1.255 . S
C343 O324 1.249 . S
C343 C337 1.516 . S
H344 C330 0.930 . S
H345 C331 0.931 . S
H346 C332 0.931 . S
H347 C333 0.933 . S
H348 C339 0.870 1_655 S
H349 C340 0.886 1_655 S
H350 C341 0.931 . S
H351 C342 0.933 . S
Dy352 O355 2.307 . S
Dy352 O357 2.395 1_565 S
Dy352 O358 2.379 . S
Dy352 O360 2.339 . S
Dy352 O362 2.298 . S
Dy352 O366 2.275 1_565 S
Dy352 C374 2.738 . S
Dy353 O356 2.298 . S
Dy353 O359 2.275 1_545 S
Dy353 O361 2.307 . S
Dy353 O363 2.395 1_545 S
Dy353 O364 2.379 . S
Dy353 O367 2.339 . S
Dy353 C383 2.738 . S
C354 O366 1.254 . S
C354 O367 1.257 . S
O355 Dy352 2.307 . S
O355 C365 1.266 . S
O356 Dy353 2.298 . S
O356 C365 1.236 1_545 S
O357 Dy352 2.395 1_545 S
O357 C374 1.255 1_545 S
O358 Dy352 2.379 . S
O358 C374 1.249 . S
O359 Dy353 2.275 1_565 S
O359 C375 1.254 . S
O360 Dy352 2.339 . S
O360 C375 1.257 . S
O361 Dy353 2.307 . S
O361 C376 1.266 . S
O362 Dy352 2.298 . S
O362 C376 1.236 1_565 S
O363 Dy353 2.395 1_565 S
O363 C383 1.255 1_565 S
O364 Dy353 2.379 . S
O364 C383 1.249 . S
C365 O355 1.266 . S
C365 O356 1.236 1_565 S
O366 Dy352 2.275 1_545 S
O366 C354 1.254 . S
O367 Dy353 2.339 . S
O367 C354 1.257 . S
C368 C371 1.344 1_565 S
C368 C372 1.328 . S
C368 C374 1.516 . S
C369 C370 1.300 . S
C369 C373 1.323 . S
C370 C369 1.300 . S
C370 C371 1.371 1_565 S
C370 H384 0.934 1_565 S
C371 C368 1.344 1_545 S
C371 C370 1.371 1_545 S
C371 H385 0.931 . S
C372 C368 1.328 . S
C372 C373 1.433 . S
C372 H386 0.931 . S
C373 C369 1.323 . S
C373 C372 1.433 . S
C373 H387 0.933 . S
C374 Dy352 2.738 . S
C374 O357 1.255 1_565 S
C374 O358 1.249 . S
C374 C368 1.516 . S
C375 O359 1.254 . S
C375 O360 1.257 . S
C376 O361 1.266 . S
C376 O362 1.236 1_545 S
C377 C380 1.302 1_545 S
C377 C381 1.328 . S
C377 C383 1.516 . S
C378 C379 1.313 . S
C378 C382 1.323 . S
C379 C378 1.313 . S
C379 C380 1.364 1_545 S
C379 H388 0.923 1_545 S
C380 C377 1.302 1_565 S
C380 C379 1.364 1_565 S
C380 H389 0.981 . S
C381 C377 1.328 . S
C381 C382 1.433 . S
C381 H390 0.931 . S
C382 C378 1.323 . S
C382 C381 1.433 . S
C382 H391 0.933 . S
C383 Dy353 2.738 . S
C383 O363 1.255 1_545 S
C383 O364 1.249 . S
C383 C377 1.516 . S
H384 C370 0.934 1_545 S
H385 C371 0.931 . S
H386 C372 0.931 . S
H387 C373 0.933 . S
H388 C379 0.923 1_565 S
H389 C380 0.981 . S
H390 C381 0.931 . S
H391 C382 0.933 . S
Dy392 O395 2.307 . S
Dy392 O397 2.395 . S
Dy392 O398 2.379 . S
Dy392 O400 2.339 . S
Dy392 O402 2.298 . S
Dy392 O406 2.275 . S
Dy392 C414 2.738 . S
Dy393 O396 2.298 . S
Dy393 O399 2.275 . S
Dy393 O401 2.307 . S
Dy393 O403 2.395 . S
Dy393 O404 2.379 . S
Dy393 O407 2.339 . S
Dy393 C423 2.738 . S
C394 O406 1.254 . S
C394 O407 1.257 . S
O395 Dy392 2.307 . S
O395 C405 1.266 . S
O396 Dy393 2.298 . S
O396 C405 1.236 . S
O397 Dy392 2.395 . S
O397 C414 1.255 . S
O398 Dy392 2.379 . S
O398 C414 1.249 . S
O399 Dy393 2.275 . S
O399 C415 1.254 . S
O400 Dy392 2.339 . S
O400 C415 1.257 . S
O401 Dy393 2.307 . S
O401 C416 1.266 . S
O402 Dy392 2.298 . S
O402 C416 1.236 . S
O403 Dy393 2.395 . S
O403 C423 1.255 . S
O404 Dy393 2.379 . S
O404 C423 1.249 . S
C405 O395 1.266 . S
C405 O396 1.236 . S
O406 Dy392 2.275 . S
O406 C394 1.254 . S
O407 Dy393 2.339 . S
O407 C394 1.257 . S
C408 C411 1.344 . S
C408 C412 1.328 . S
C408 C414 1.516 . S
C409 C410 1.304 . S
C409 C413 1.323 . S
C410 C409 1.304 . S
C410 C411 1.371 . S
C410 H424 0.930 . S
C411 C408 1.344 . S
C411 C410 1.371 . S
C411 H425 0.931 . S
C412 C408 1.328 . S
C412 C413 1.433 . S
C412 H426 0.931 . S
C413 C409 1.323 . S
C413 C412 1.433 . S
C413 H427 0.933 . S
C414 Dy392 2.738 . S
C414 O397 1.255 . S
C414 O398 1.249 . S
C414 C408 1.516 . S
C415 O399 1.254 . S
C415 O400 1.257 . S
C416 O401 1.266 . S
C416 O402 1.236 . S
C417 C420 1.344 . S
C417 C421 1.328 . S
C417 C423 1.516 . S
C418 C419 1.304 . S
C418 C422 1.323 . S
C419 C418 1.304 . S
C419 C420 1.371 . S
C419 H428 0.930 . S
C420 C417 1.344 . S
C420 C419 1.371 . S
C420 H429 0.931 . S
C421 C417 1.328 . S
C421 C422 1.433 . S
C421 H430 0.931 . S
C422 C418 1.323 . S
C422 C421 1.433 . S
C422 H431 0.933 . S
C423 Dy393 2.738 . S
C423 O403 1.255 . S
C423 O404 1.249 . S
C423 C417 1.516 . S
H424 C410 0.930 . S
H425 C411 0.931 . S
H426 C412 0.931 . S
H427 C413 0.933 . S
H428 C419 0.930 . S
H429 C420 0.931 . S
H430 C421 0.931 . S
H431 C422 0.933 . S
Dy432 O435 2.307 1_455 S
Dy432 O437 2.395 . S
Dy432 O438 2.379 . S
Dy432 O440 2.339 . S
Dy432 O442 2.298 . S
Dy432 O446 2.275 . S
Dy432 C454 2.738 . S
Dy433 O436 2.298 . S
Dy433 O439 2.275 1_655 S
Dy433 O441 2.307 1_655 S
Dy433 O443 2.395 . S
Dy433 O444 2.379 . S
Dy433 O447 2.339 . S
Dy433 C463 2.738 . S
C434 O446 1.254 . S
C434 O447 1.257 1_455 S
O435 Dy432 2.307 1_655 S
O435 C445 1.266 . S
O436 Dy433 2.298 . S
O436 C445 1.236 . S
O437 Dy432 2.395 . S
O437 C454 1.255 . S
O438 Dy432 2.379 . S
O438 C454 1.249 . S
O439 Dy433 2.275 1_455 S
O439 C455 1.254 . S
O440 Dy432 2.339 . S
O440 C455 1.257 . S
O441 Dy433 2.307 1_455 S
O441 C456 1.266 . S
O442 Dy432 2.298 . S
O442 C456 1.236 . S
O443 Dy433 2.395 . S
O443 C463 1.255 . S
O444 Dy433 2.379 . S
O444 C463 1.249 . S
C445 O435 1.266 . S
C445 O436 1.236 . S
O446 Dy432 2.275 . S
O446 C434 1.254 . S
O447 Dy433 2.339 . S
O447 C434 1.257 1_655 S
C448 C451 1.344 . S
C448 C452 1.328 . S
C448 C454 1.516 . S
C449 C450 1.304 . S
C449 C453 1.323 . S
C450 C449 1.304 . S
C450 C451 1.371 . S
C450 H464 0.930 . S
C451 C448 1.344 . S
C451 C450 1.371 . S
C451 H465 0.931 . S
C452 C448 1.328 . S
C452 C453 1.433 . S
C452 H466 0.931 . S
C453 C449 1.323 . S
C453 C452 1.433 . S
C453 H467 0.933 . S
C454 Dy432 2.738 . S
C454 O437 1.255 . S
C454 O438 1.249 . S
C454 C448 1.516 . S
C455 O439 1.254 . S
C455 O440 1.257 . S
C456 O441 1.266 . S
C456 O442 1.236 . S
C457 C460 1.344 . S
C457 C461 1.328 . S
C457 C463 1.516 . S
C458 C459 1.304 . S
C458 C462 1.323 . S
C459 C458 1.304 . S
C459 C460 1.371 . S
C459 H468 0.930 . S
C460 C457 1.344 . S
C460 C459 1.371 . S
C460 H469 0.931 . S
C461 C457 1.328 . S
C461 C462 1.433 . S
C461 H470 0.931 . S
C462 C458 1.323 . S
C462 C461 1.433 . S
C462 H471 0.933 . S
C463 Dy433 2.738 . S
C463 O443 1.255 . S
C463 O444 1.249 . S
C463 C457 1.516 . S
H464 C450 0.930 . S
H465 C451 0.931 . S
H466 C452 0.931 . S
H467 C453 0.933 . S
H468 C459 0.930 . S
H469 C460 0.931 . S
H470 C461 0.931 . S
H471 C462 0.933 . S
H472 C480 0.929 . S
H473 C482 0.930 . S
H474 C484 0.930 . S
H475 C487 0.929 . S
H476 C490 0.930 . S
H477 C492 0.960 . S
H478 C492 0.960 . S
H479 C492 0.960 . S
C480 H472 0.929 . S
C480 C481 1.379 . S
C480 C482 1.384 . S
C481 C480 1.379 . S
C481 C487 1.388 1_565 S
C482 H473 0.930 . S
C482 C480 1.384 . S
C482 C483 1.372 . S
C483 C482 1.372 . S
C483 C484 1.400 1_565 S
C483 C488 1.490 . S
C484 H474 0.930 . S
C484 C483 1.400 1_545 S
C484 C487 1.386 . S
H485 C501 0.930 . S
H486 C502 0.931 . S
C487 H475 0.929 . S
C487 C481 1.388 1_545 S
C487 C484 1.386 . S
C488 C483 1.490 . S
C488 C490 1.395 . S
C488 C491 1.403 1_565 S
H489 C495 0.930 . S
C490 H476 0.930 . S
C490 C488 1.395 . S
C490 C493 1.403 . S
C491 C488 1.403 1_545 S
C491 C492 1.524 . S
C491 C495 1.400 . S
C492 H477 0.960 . S
C492 H478 0.960 . S
C492 H479 0.960 . S
C492 C491 1.524 . S
C493 C490 1.403 . S
C493 C494 1.392 . S
C493 C497 1.495 . S
C494 C493 1.392 . S
C494 C495 1.385 1_565 S
C494 C496 1.478 . S
C495 H489 0.930 . S
C495 C491 1.400 . S
C495 C494 1.385 1_545 S
C496 C494 1.478 . S
C496 C498 1.381 . S
C496 C502 1.383 1_565 S
C497 C493 1.495 . S
C497 H503 0.959 . S
C497 H504 0.961 . S
C497 H505 0.960 . S
C498 C496 1.381 . S
C498 C499 1.394 . S
C498 H506 0.930 . S
C499 C498 1.394 . S
C499 C500 1.412 . S
C499 H507 0.929 . S
C500 C499 1.412 . S
C500 C501 1.347 1_565 S
C501 H485 0.930 . S
C501 C500 1.347 1_545 S
C501 C502 1.379 . S
C502 H486 0.931 . S
C502 C496 1.383 1_545 S
C502 C501 1.379 . S
H503 C497 0.959 . S
H504 C497 0.961 . S
H505 C497 0.960 . S
H506 C498 0.930 . S
H507 C499 0.929 . S
H508 C516 0.929 . S
H509 C518 0.930 . S
H510 C520 0.930 . S
H511 C523 0.929 . S
H512 C526 0.930 . S
H513 C528 0.960 . S
H514 C528 0.960 . S
H515 C528 0.960 . S
C516 H508 0.929 . S
C516 C517 1.377 . S
C516 C518 1.384 . S
C517 C516 1.377 . S
C517 C523 1.390 . S
C518 H509 0.930 . S
C518 C516 1.384 . S
C518 C519 1.372 . S
C519 C518 1.372 . S
C519 C520 1.400 . S
C519 C524 1.490 . S
C520 H510 0.930 . S
C520 C519 1.400 . S
C520 C523 1.386 . S
H521 C537 0.930 . S
H522 C538 0.931 . S
C523 H511 0.929 . S
C523 C517 1.390 . S
C523 C520 1.386 . S
C524 C519 1.490 . S
C524 C526 1.395 . S
C524 C527 1.403 . S
H525 C531 0.930 . S
C526 H512 0.930 . S
C526 C524 1.395 . S
C526 C529 1.403 . S
C527 C524 1.403 . S
C527 C528 1.524 . S
C527 C531 1.400 . S
C528 H513 0.960 . S
C528 H514 0.960 . S
C528 H515 0.960 . S
C528 C527 1.524 . S
C529 C526 1.403 . S
C529 C530 1.392 . S
C529 C533 1.495 . S
C530 C529 1.392 . S
C530 C531 1.385 . S
C530 C532 1.478 . S
C531 H525 0.930 . S
C531 C527 1.400 . S
C531 C530 1.385 . S
C532 C530 1.478 . S
C532 C534 1.381 . S
C532 C538 1.383 . S
C533 C529 1.495 . S
C533 H539 0.959 . S
C533 H540 0.961 . S
C533 H541 0.960 . S
C534 C532 1.381 . S
C534 C535 1.394 . S
C534 H542 0.930 . S
C535 C534 1.394 . S
C535 C536 1.383 . S
C535 H543 0.929 . S
C536 C535 1.383 . S
C536 C537 1.377 . S
C537 H521 0.930 . S
C537 C536 1.377 . S
C537 C538 1.379 . S
C538 H522 0.931 . S
C538 C532 1.383 . S
C538 C537 1.379 . S
H539 C533 0.959 . S
H540 C533 0.961 . S
H541 C533 0.960 . S
H542 C534 0.930 . S
H543 C535 0.929 . S
H544 C552 0.929 . S
H545 C554 0.930 . S
H546 C556 0.930 . S
H547 C559 0.929 . S
H548 C562 0.930 . S
H549 C564 0.960 . S
H550 C564 0.960 . S
H551 C564 0.960 . S
C552 H544 0.929 . S
C552 C553 1.377 . S
C552 C554 1.384 . S
C553 C552 1.377 . S
C553 C559 1.390 . S
C554 H545 0.930 . S
C554 C552 1.384 . S
C554 C555 1.372 . S
C555 C554 1.372 . S
C555 C556 1.400 . S
C555 C560 1.490 . S
C556 H546 0.930 . S
C556 C555 1.400 . S
C556 C559 1.386 . S
H557 C573 0.930 . S
H558 C574 0.931 . S
C559 H547 0.929 . S
C559 C553 1.390 . S
C559 C556 1.386 . S
C560 C555 1.490 . S
C560 C562 1.395 . S
C560 C563 1.403 . S
H561 C567 0.930 . S
C562 H548 0.930 . S
C562 C560 1.395 . S
C562 C565 1.403 . S
C563 C560 1.403 . S
C563 C564 1.524 . S
C563 C567 1.400 . S
C564 H549 0.960 . S
C564 H550 0.960 . S
C564 H551 0.960 . S
C564 C563 1.524 . S
C565 C562 1.403 . S
C565 C566 1.392 . S
C565 C569 1.495 . S
C566 C565 1.392 . S
C566 C567 1.385 . S
C566 C568 1.478 . S
C567 H561 0.930 . S
C567 C563 1.400 . S
C567 C566 1.385 . S
C568 C566 1.478 . S
C568 C570 1.381 . S
C568 C574 1.383 . S
C569 C565 1.495 . S
C569 H575 0.959 . S
C569 H576 0.961 . S
C569 H577 0.960 . S
C570 C568 1.381 . S
C570 C571 1.394 . S
C570 H578 0.930 . S
C571 C570 1.394 . S
C571 C572 1.383 . S
C571 H579 0.929 . S
C572 C571 1.383 . S
C572 C573 1.377 . S
C573 H557 0.930 . S
C573 C572 1.377 . S
C573 C574 1.379 . S
C574 H558 0.931 . S
C574 C568 1.383 . S
C574 C573 1.379 . S
H575 C569 0.959 . S
H576 C569 0.961 . S
H577 C569 0.960 . S
H578 C570 0.930 . S
H579 C571 0.929 . S
H580 C588 0.929 . S
H581 C590 0.930 . S
H582 C592 0.930 1_655 S
H583 C595 0.974 . S
H584 C598 0.930 . S
H585 C600 0.960 . S
H586 C600 0.960 . S
H587 C600 0.960 . S
C588 H580 0.929 . S
C588 C589 1.377 . S
C588 C590 1.384 . S
C589 C588 1.377 . S
C589 C595 1.390 . S
C590 H581 0.930 . S
C590 C588 1.384 . S
C590 C591 1.372 . S
C591 C590 1.372 . S
C591 C592 1.400 . S
C591 C596 1.490 . S
C592 H582 0.930 1_455 S
C592 C591 1.400 . S
C592 C595 1.386 . S
H593 C609 0.930 . S
H594 C610 0.931 . S
C595 H583 0.974 . S
C595 C589 1.390 . S
C595 C592 1.386 . S
C596 C591 1.490 . S
C596 C598 1.395 . S
C596 C599 1.403 . S
H597 C603 0.930 . S
C598 H584 0.930 . S
C598 C596 1.395 . S
C598 C601 1.403 . S
C599 C596 1.403 . S
C599 C600 1.524 . S
C599 C603 1.400 . S
C600 H585 0.960 . S
C600 H586 0.960 . S
C600 H587 0.960 . S
C600 C599 1.524 . S
C601 C598 1.403 . S
C601 C602 1.392 . S
C601 C605 1.495 . S
C602 C601 1.392 . S
C602 C603 1.385 . S
C602 C604 1.478 . S
C603 H597 0.930 . S
C603 C599 1.400 . S
C603 C602 1.385 . S
C604 C602 1.478 . S
C604 C606 1.381 . S
C604 C610 1.383 1_455 S
C605 C601 1.495 . S
C605 H611 0.959 . S
C605 H612 0.961 . S
C605 H613 0.960 . S
C606 C604 1.381 . S
C606 C607 1.394 . S
C606 H614 0.930 . S
C607 C606 1.394 . S
C607 C608 1.383 . S
C607 H615 0.929 . S
C608 C607 1.383 . S
C608 C609 1.377 1_455 S
C609 H593 0.930 . S
C609 C608 1.377 1_655 S
C609 C610 1.379 . S
C610 H594 0.931 . S
C610 C604 1.383 1_655 S
C610 C609 1.379 . S
H611 C605 0.959 . S
H612 C605 0.961 . S
H613 C605 0.960 . S
H614 C606 0.930 . S
H615 C607 0.929 . S
H616 C624 0.934 . S
H617 C626 0.930 . S
H618 C628 0.930 1_556 S
H619 C631 0.929 . S
H620 C634 0.930 1_554 S
H621 C636 0.960 . S
H622 C636 0.960 . S
H623 C636 0.960 . S
C624 H616 0.934 . S
C624 C625 1.381 1_565 S
C624 C626 1.381 . S
C625 C624 1.381 1_545 S
C625 C631 1.391 . S
C626 H617 0.930 . S
C626 C624 1.381 . S
C626 C627 1.371 1_565 S
C627 C626 1.371 1_545 S
C627 C628 1.400 . S
C627 C632 1.491 1_544 S
C628 H618 0.930 1_554 S
C628 C627 1.400 . S
C628 C631 1.386 . S
H629 C645 0.930 . S
H630 C646 0.931 . S
C631 H619 0.929 . S
C631 C625 1.391 . S
C631 C628 1.386 . S
C632 C627 1.491 1_566 S
C632 C634 1.406 . S
C632 C635 1.391 1_565 S
H633 C639 0.930 . S
C634 H620 0.930 1_556 S
C634 C632 1.406 . S
C634 C637 1.403 . S
C635 C632 1.391 1_545 S
C635 C636 1.524 . S
C635 C639 1.400 . S
C636 H621 0.960 . S
C636 H622 0.960 . S
C636 H623 0.960 . S
C636 C635 1.524 . S
C637 C634 1.403 . S
C637 C638 1.392 . S
C637 C641 1.495 . S
C638 C637 1.392 . S
C638 C639 1.385 1_565 S
C638 C640 1.478 . S
C639 H633 0.930 . S
C639 C635 1.400 . S
C639 C638 1.385 1_545 S
C640 C638 1.478 . S
C640 C642 1.381 . S
C640 C646 1.383 . S
C641 C637 1.495 . S
C641 H647 0.959 . S
C641 H648 0.961 . S
C641 H649 0.960 . S
C642 C640 1.381 . S
C642 C643 1.394 . S
C642 H650 0.930 . S
C643 C642 1.394 . S
C643 C644 1.384 . S
C643 H651 0.931 . S
C644 C643 1.384 . S
C644 C645 1.386 . S
C645 H629 0.930 . S
C645 C644 1.386 . S
C645 C646 1.379 . S
C646 H630 0.931 . S
C646 C640 1.383 . S
C646 C645 1.379 . S
H647 C641 0.959 . S
H648 C641 0.961 . S
H649 C641 0.960 . S
H650 C642 0.930 . S
H651 C643 0.931 . S
H652 C660 0.929 . S
H653 C662 0.930 . S
H654 C664 0.930 . S
H655 C667 0.929 . S
H656 C670 0.930 . S
H657 C672 0.960 . S
H658 C672 0.960 . S
H659 C672 0.960 . S
C660 H652 0.929 . S
C660 C661 1.377 . S
C660 C662 1.384 . S
C661 C660 1.377 . S
C661 C667 1.390 1_556 S
C662 H653 0.930 . S
C662 C660 1.384 . S
C662 C663 1.372 . S
C663 C662 1.372 . S
C663 C664 1.400 . S
C663 C668 1.490 . S
C664 H654 0.930 . S
C664 C663 1.400 . S
C664 C667 1.386 1_556 S
H665 C681 0.930 . S
H666 C682 0.931 . S
C667 H655 0.929 . S
C667 C661 1.390 1_554 S
C667 C664 1.386 1_554 S
C668 C663 1.490 . S
C668 C670 1.395 . S
C668 C671 1.403 . S
H669 C675 0.930 . S
C670 H656 0.930 . S
C670 C668 1.395 . S
C670 C673 1.403 . S
C671 C668 1.403 . S
C671 C672 1.524 . S
C671 C675 1.400 . S
C672 H657 0.960 . S
C672 H658 0.960 . S
C672 H659 0.960 . S
C672 C671 1.524 . S
C673 C670 1.403 . S
C673 C674 1.392 . S
C673 C677 1.495 . S
C674 C673 1.392 . S
C674 C675 1.385 . S
C674 C676 1.478 . S
C675 H669 0.930 . S
C675 C671 1.400 . S
C675 C674 1.385 . S
C676 C674 1.478 . S
C676 C678 1.381 . S
C676 C682 1.383 . S
C677 C673 1.495 . S
C677 H683 0.959 . S
C677 H684 0.961 . S
C677 H685 0.960 . S
C678 C676 1.381 . S
C678 C679 1.394 . S
C678 H686 0.930 . S
C679 C678 1.394 . S
C679 C680 1.383 . S
C679 H687 0.929 . S
C680 C679 1.383 . S
C680 C681 1.377 . S
C681 H665 0.930 . S
C681 C680 1.377 . S
C681 C682 1.379 . S
C682 H666 0.931 . S
C682 C676 1.383 . S
C682 C681 1.379 . S
H683 C677 0.959 . S
H684 C677 0.961 . S
H685 C677 0.960 . S
H686 C678 0.930 . S
H687 C679 0.929 . S
H688 C696 0.929 . S
H689 C698 0.930 . S
H690 C700 0.930 . S
H691 C703 0.929 . S
H692 C706 0.930 . S
H693 C708 0.960 . S
H694 C708 0.960 . S
H695 C708 0.960 . S
C696 H688 0.929 . S
C696 C697 1.377 . S
C696 C698 1.384 . S
C697 C696 1.377 . S
C697 C703 1.390 . S
C698 H689 0.930 . S
C698 C696 1.384 . S
C698 C699 1.372 . S
C699 C698 1.372 . S
C699 C700 1.400 . S
C699 C704 1.490 . S
C700 H690 0.930 . S
C700 C699 1.400 . S
C700 C703 1.386 . S
H701 C717 0.930 . S
H702 C718 0.931 . S
C703 H691 0.929 . S
C703 C697 1.390 . S
C703 C700 1.386 . S
C704 C699 1.490 . S
C704 C706 1.395 . S
C704 C707 1.403 . S
H705 C711 0.930 . S
C706 H692 0.930 . S
C706 C704 1.395 . S
C706 C709 1.403 . S
C707 C704 1.403 . S
C707 C708 1.524 . S
C707 C711 1.400 . S
C708 H693 0.960 . S
C708 H694 0.960 . S
C708 H695 0.960 . S
C708 C707 1.524 . S
C709 C706 1.403 . S
C709 C710 1.392 . S
C709 C713 1.495 . S
C710 C709 1.392 . S
C710 C711 1.385 . S
C710 C712 1.478 . S
C711 H705 0.930 . S
C711 C707 1.400 . S
C711 C710 1.385 . S
C712 C710 1.478 . S
C712 C714 1.377 1_554 S
C712 C718 1.383 1_554 S
C713 C709 1.495 . S
C713 H719 0.959 . S
C713 H720 0.961 . S
C713 H721 0.960 . S
C714 C712 1.377 1_556 S
C714 C715 1.416 . S
C714 H722 0.913 1_556 S
C715 C714 1.416 . S
C715 C716 1.383 . S
C715 H723 0.929 . S
C716 C715 1.383 . S
C716 C717 1.377 . S
C717 H701 0.930 . S
C717 C716 1.377 . S
C717 C718 1.379 . S
C718 H702 0.931 . S
C718 C712 1.383 1_556 S
C718 C717 1.379 . S
H719 C713 0.959 . S
H720 C713 0.961 . S
H721 C713 0.960 . S
H722 C714 0.913 1_554 S
H723 C715 0.929 . S
H724 C732 0.929 . S
H725 C734 0.930 . S
H726 C736 0.930 . S
H727 C739 0.970 . S
H728 C742 0.930 . S
H729 C744 0.960 . S
H730 C744 0.960 . S
H731 C744 0.960 1_455 S
C732 H724 0.929 . S
C732 C733 1.377 . S
C732 C734 1.384 . S
C733 C732 1.377 . S
C733 C739 1.354 1_655 S
C734 H725 0.930 . S
C734 C732 1.384 . S
C734 C735 1.372 . S
C735 C734 1.372 . S
C735 C736 1.400 1_655 S
C735 C740 1.490 . S
C736 H726 0.930 . S
C736 C735 1.400 1_455 S
C736 C739 1.383 . S
H737 C753 0.930 . S
H738 C754 0.931 . S
C739 H727 0.970 . S
C739 C733 1.354 1_455 S
C739 C736 1.383 . S
C740 C735 1.490 . S
C740 C742 1.395 1_554 S
C740 C743 1.403 . S
H741 C747 0.930 . S
C742 H728 0.930 . S
C742 C740 1.395 1_556 S
C742 C745 1.403 . S
C743 C740 1.403 . S
C743 C744 1.524 . S
C743 C747 1.400 1_554 S
C744 H729 0.960 . S
C744 H730 0.960 . S
C744 H731 0.960 1_655 S
C744 C743 1.524 . S
C745 C742 1.403 . S
C745 C746 1.392 . S
C745 C749 1.495 . S
C746 C745 1.392 . S
C746 C747 1.385 . S
C746 C748 1.478 . S
C747 H741 0.930 . S
C747 C743 1.400 1_556 S
C747 C746 1.385 . S
C748 C746 1.478 . S
C748 C750 1.381 . S
C748 C754 1.383 1_655 S
C749 C745 1.495 . S
C749 H755 0.959 . S
C749 H756 0.961 . S
C749 H757 0.960 . S
C750 C748 1.381 . S
C750 C751 1.394 . S
C750 H758 0.930 . S
C751 C750 1.394 . S
C751 C752 1.372 1_655 S
C751 H759 0.929 . S
C752 C751 1.372 1_455 S
C752 C753 1.389 . S
C753 H737 0.930 . S
C753 C752 1.389 . S
C753 C754 1.379 . S
C754 H738 0.931 . S
C754 C748 1.383 1_455 S
C754 C753 1.379 . S
H755 C749 0.959 . S
H756 C749 0.961 . S
H757 C749 0.960 . S
H758 C750 0.930 . S
H759 C751 0.929 . S
H760 C768 0.929 . S
H761 C770 0.930 . S
H762 C772 0.930 1_655 S
H763 C775 0.929 . S
H764 C778 0.930 . S
H765 C780 0.960 . S
H766 C780 0.960 . S
H767 C780 0.960 . S
C768 H760 0.929 . S
C768 C769 1.377 . S
C768 C770 1.384 . S
C769 C768 1.377 . S
C769 C775 1.390 . S
C770 H761 0.930 . S
C770 C768 1.384 . S
C770 C771 1.372 . S
C771 C770 1.372 . S
C771 C772 1.400 . S
C771 C776 1.490 . S
C772 H762 0.930 1_455 S
C772 C771 1.400 . S
C772 C775 1.386 . S
H773 C789 0.930 . S
H774 C790 0.931 . S
C775 H763 0.929 . S
C775 C769 1.390 . S
C775 C772 1.386 . S
C776 C771 1.490 . S
C776 C778 1.395 . S
C776 C779 1.403 . S
H777 C783 0.930 . S
C778 H764 0.930 . S
C778 C776 1.395 . S
C778 C781 1.403 . S
C779 C776 1.403 . S
C779 C780 1.524 1_455 S
C779 C783 1.400 1_455 S
C780 H765 0.960 . S
C780 H766 0.960 . S
C780 H767 0.960 . S
C780 C779 1.524 1_655 S
C781 C778 1.403 . S
C781 C782 1.392 . S
C781 C785 1.495 . S
C782 C781 1.392 . S
C782 C783 1.385 1_455 S
C782 C784 1.478 . S
C783 H777 0.930 . S
C783 C779 1.400 1_655 S
C783 C782 1.385 1_655 S
C784 C782 1.478 . S
C784 C786 1.381 . S
C784 C790 1.383 1_455 S
C785 C781 1.495 . S
C785 H791 0.959 . S
C785 H792 0.961 . S
C785 H793 0.960 . S
C786 C784 1.381 . S
C786 C787 1.394 . S
C786 H794 0.930 . S
C787 C786 1.394 . S
C787 C788 1.383 1_455 S
C787 H795 0.929 . S
C788 C787 1.383 1_655 S
C788 C789 1.377 . S
C789 H773 0.930 . S
C789 C788 1.377 . S
C789 C790 1.379 . S
C790 H774 0.931 . S
C790 C784 1.383 1_655 S
C790 C789 1.379 . S
H791 C785 0.959 . S
H792 C785 0.961 . S
H793 C785 0.960 . S
H794 C786 0.930 . S
H795 C787 0.929 . S
H796 C804 0.929 . S
H797 C806 0.930 . S
H798 C808 0.930 . S
H799 C811 0.929 . S
H800 C814 0.930 . S
H801 C816 0.960 . S
H802 C816 0.960 . S
H803 C816 0.960 . S
C804 H796 0.929 . S
C804 C805 1.377 1_565 S
C804 C806 1.384 . S
C805 C804 1.377 1_545 S
C805 C811 1.390 . S
C806 H797 0.930 . S
C806 C804 1.384 . S
C806 C807 1.372 . S
C807 C806 1.372 . S
C807 C808 1.400 1_565 S
C807 C812 1.490 . S
C808 H798 0.930 . S
C808 C807 1.400 1_545 S
C808 C811 1.386 . S
H809 C825 0.930 . S
H810 C826 0.931 . S
C811 H799 0.929 . S
C811 C805 1.390 . S
C811 C808 1.386 . S
C812 C807 1.490 . S
C812 C814 1.395 . S
C812 C815 1.403 1_565 S
H813 C819 0.930 . S
C814 H800 0.930 . S
C814 C812 1.395 . S
C814 C817 1.403 . S
C815 C812 1.403 1_545 S
C815 C816 1.524 . S
C815 C819 1.400 . S
C816 H801 0.960 . S
C816 H802 0.960 . S
C816 H803 0.960 . S
C816 C815 1.524 . S
C817 C814 1.403 . S
C817 C818 1.392 . S
C817 C821 1.495 . S
C818 C817 1.392 . S
C818 C819 1.385 1_565 S
C818 C820 1.478 . S
C819 H813 0.930 . S
C819 C815 1.400 . S
C819 C818 1.385 1_545 S
C820 C818 1.478 . S
C820 C822 1.381 . S
C820 C826 1.383 . S
C821 C817 1.495 . S
C821 H827 0.959 . S
C821 H828 0.961 . S
C821 H829 0.960 . S
C822 C820 1.381 . S
C822 C823 1.394 . S
C822 H830 0.930 . S
C823 C822 1.394 . S
C823 C824 1.383 . S
C823 H831 0.929 . S
C824 C823 1.383 . S
C824 C825 1.377 . S
C825 H809 0.930 . S
C825 C824 1.377 . S
C825 C826 1.379 . S
C826 H810 0.931 . S
C826 C820 1.383 . S
C826 C825 1.379 . S
H827 C821 0.959 . S
H828 C821 0.961 . S
H829 C821 0.960 . S
H830 C822 0.930 . S
H831 C823 0.929 . S
H832 C840 0.929 . S
H833 C842 0.930 . S
H834 C844 0.930 . S
H835 C847 0.929 . S
H836 C850 0.930 . S
H837 C852 0.960 . S
H838 C852 0.960 . S
H839 C852 0.960 . S
C840 H832 0.929 . S
C840 C841 1.377 . S
C840 C842 1.384 . S
C841 C840 1.377 . S
C841 C847 1.390 . S
C842 H833 0.930 . S
C842 C840 1.384 . S
C842 C843 1.372 . S
C843 C842 1.372 . S
C843 C844 1.400 . S
C843 C848 1.490 . S
C844 H834 0.930 . S
C844 C843 1.400 . S
C844 C847 1.386 . S
H845 C861 0.930 . S
H846 C862 0.931 . S
C847 H835 0.929 . S
C847 C841 1.390 . S
C847 C844 1.386 . S
C848 C843 1.490 . S
C848 C850 1.395 . S
C848 C851 1.403 . S
H849 C855 0.930 . S
C850 H836 0.930 . S
C850 C848 1.395 . S
C850 C853 1.403 . S
C851 C848 1.403 . S
C851 C852 1.524 . S
C851 C855 1.400 . S
C852 H837 0.960 . S
C852 H838 0.960 . S
C852 H839 0.960 . S
C852 C851 1.524 . S
C853 C850 1.403 . S
C853 C854 1.392 . S
C853 C857 1.495 . S
C854 C853 1.392 . S
C854 C855 1.385 . S
C854 C856 1.478 . S
C855 H849 0.930 . S
C855 C851 1.400 . S
C855 C854 1.385 . S
C856 C854 1.478 . S
C856 C858 1.381 . S
C856 C862 1.383 . S
C857 C853 1.495 . S
C857 H863 0.959 . S
C857 H864 0.961 . S
C857 H865 0.960 . S
C858 C856 1.381 . S
C858 C859 1.394 . S
C858 H866 0.930 . S
C859 C858 1.394 . S
C859 C860 1.383 . S
C859 H867 0.929 . S
C860 C859 1.383 . S
C860 C861 1.377 . S
C861 H845 0.930 . S
C861 C860 1.377 . S
C861 C862 1.379 . S
C862 H846 0.931 . S
C862 C856 1.383 . S
C862 C861 1.379 . S
H863 C857 0.959 . S
H864 C857 0.961 . S
H865 C857 0.960 . S
H866 C858 0.930 . S
H867 C859 0.929 . S
H868 C876 0.929 . S
H869 C878 0.930 . S
H870 C880 0.930 . S
H871 C883 0.929 . S
H872 C886 0.930 . S
H873 C888 0.960 . S
H874 C888 0.960 . S
H875 C888 0.960 . S
C876 H868 0.929 . S
C876 C877 1.377 . S
C876 C878 1.384 . S
C877 C876 1.377 . S
C877 C883 1.390 . S
C878 H869 0.930 . S
C878 C876 1.384 . S
C878 C879 1.372 . S
C879 C878 1.372 . S
C879 C880 1.400 . S
C879 C884 1.490 . S
C880 H870 0.930 . S
C880 C879 1.400 . S
C880 C883 1.386 . S
H881 C897 0.930 . S
H882 C898 0.931 . S
C883 H871 0.929 . S
C883 C877 1.390 . S
C883 C880 1.386 . S
C884 C879 1.490 . S
C884 C886 1.395 . S
C884 C887 1.403 . S
H885 C891 0.930 . S
C886 H872 0.930 . S
C886 C884 1.395 . S
C886 C889 1.403 . S
C887 C884 1.403 . S
C887 C888 1.524 . S
C887 C891 1.400 . S
C888 H873 0.960 . S
C888 H874 0.960 . S
C888 H875 0.960 . S
C888 C887 1.524 . S
C889 C886 1.403 . S
C889 C890 1.392 . S
C889 C893 1.495 . S
C890 C889 1.392 . S
C890 C891 1.385 . S
C890 C892 1.478 . S
C891 H885 0.930 . S
C891 C887 1.400 . S
C891 C890 1.385 . S
C892 C890 1.478 . S
C892 C894 1.381 . S
C892 C898 1.383 . S
C893 C889 1.495 . S
C893 H899 0.959 . S
C893 H900 0.961 . S
C893 H901 0.960 . S
C894 C892 1.381 . S
C894 C895 1.394 . S
C894 H902 0.930 . S
C895 C894 1.394 . S
C895 C896 1.383 . S
C895 H903 0.929 . S
C896 C895 1.383 . S
C896 C897 1.377 . S
C897 H881 0.930 . S
C897 C896 1.377 . S
C897 C898 1.379 . S
C898 H882 0.931 . S
C898 C892 1.383 . S
C898 C897 1.379 . S
H899 C893 0.959 . S
H900 C893 0.961 . S
H901 C893 0.960 . S
H902 C894 0.930 . S
H903 C895 0.929 . S
H904 C912 0.929 . S
H905 C914 0.930 . S
H906 C916 0.930 . S
H907 C919 0.929 1_455 S
H908 C922 0.930 . S
H909 C924 0.952 1_455 S
H910 C924 1.004 . S
H911 C924 0.933 1_455 S
C912 H904 0.929 . S
C912 C913 1.377 . S
C912 C914 1.384 . S
C913 C912 1.377 . S
C913 C919 1.390 . S
C914 H905 0.930 . S
C914 C912 1.384 . S
C914 C915 1.372 . S
C915 C914 1.372 . S
C915 C916 1.400 1_655 S
C915 C920 1.490 . S
C916 H906 0.930 . S
C916 C915 1.400 1_455 S
C916 C919 1.386 1_455 S
H917 C933 0.930 . S
H918 C934 0.931 . S
C919 H907 0.929 1_655 S
C919 C913 1.390 . S
C919 C916 1.386 1_655 S
C920 C915 1.490 . S
C920 C922 1.395 . S
C920 C923 1.406 1_554 S
H921 C927 0.930 . S
C922 H908 0.930 . S
C922 C920 1.395 . S
C922 C925 1.415 . S
C923 C920 1.406 1_556 S
C923 C924 1.520 . S
C923 C927 1.394 1_655 S
C924 H909 0.952 1_655 S
C924 H910 1.004 . S
C924 H911 0.933 1_655 S
C924 C923 1.520 . S
C925 C922 1.415 . S
C925 C926 1.387 1_654 S
C925 C929 1.497 . S
C926 C925 1.387 1_456 S
C926 C927 1.385 . S
C926 C928 1.478 . S
C927 H921 0.930 . S
C927 C923 1.394 1_455 S
C927 C926 1.385 . S
C928 C926 1.478 . S
C928 C930 1.381 1_455 S
C928 C934 1.383 . S
C929 C925 1.497 . S
C929 H935 0.972 . S
C929 H936 0.906 1_655 S
C929 H937 0.997 . S
C930 C928 1.381 1_655 S
C930 C931 1.394 1_655 S
C930 H938 0.930 . S
C931 C930 1.394 1_455 S
C931 C932 1.383 . S
C931 H939 0.929 1_455 S
C932 C931 1.383 . S
C932 C933 1.377 . S
C933 H917 0.930 . S
C933 C932 1.377 . S
C933 C934 1.379 . S
C934 H918 0.931 . S
C934 C928 1.383 . S
C934 C933 1.379 . S
H935 C929 0.972 . S
H936 C929 0.906 1_455 S
H937 C929 0.997 . S
H938 C930 0.930 . S
H939 C931 0.929 1_655 S
H940 C948 0.929 . S
H941 C950 0.930 . S
H942 C952 0.935 . S
H943 C955 0.929 . S
H944 C958 0.930 . S
H945 C960 0.960 . S
H946 C960 0.960 1_565 S
H947 C960 0.960 . S
C948 H940 0.929 . S
C948 C949 1.427 . S
C948 C950 1.384 . S
C949 C948 1.427 . S
C949 C955 1.339 1_565 S
C950 H941 0.930 . S
C950 C948 1.384 . S
C950 C951 1.377 1_565 S
C951 C950 1.377 1_545 S
C951 C952 1.401 1_554 S
C951 C956 1.484 1_554 S
C952 H942 0.935 . S
C952 C951 1.401 1_556 S
C952 C955 1.381 1_556 S
H953 C969 0.930 . S
H954 C970 0.931 . S
C955 H943 0.929 . S
C955 C949 1.339 1_545 S
C955 C952 1.381 1_554 S
C956 C951 1.484 1_556 S
C956 C958 1.395 1_556 S
C956 C959 1.403 . S
H957 C963 0.930 . S
C958 H944 0.930 . S
C958 C956 1.395 1_554 S
C958 C961 1.403 1_554 S
C959 C956 1.403 . S
C959 C960 1.524 . S
C959 C963 1.400 . S
C960 H945 0.960 . S
C960 H946 0.960 1_545 S
C960 H947 0.960 . S
C960 C959 1.524 . S
C961 C958 1.403 1_556 S
C961 C962 1.392 . S
C961 C965 1.495 1_556 S
C962 C961 1.392 . S
C962 C963 1.385 . S
C962 C964 1.478 . S
C963 H957 0.930 . S
C963 C959 1.400 . S
C963 C962 1.385 . S
C964 C962 1.478 . S
C964 C966 1.331 1_545 S
C964 C970 1.383 . S
C965 C961 1.495 1_554 S
C965 H971 0.959 . S
C965 H972 0.961 . S
C965 H973 0.960 1_545 S
C966 C964 1.331 1_565 S
C966 C967 1.392 1_565 S
C966 H974 0.986 . S
C967 C966 1.392 1_545 S
C967 C968 1.383 . S
C967 H975 0.929 1_545 S
C968 C967 1.383 . S
C968 C969 1.377 . S
C969 H953 0.930 . S
C969 C968 1.377 . S
C969 C970 1.379 . S
C970 H954 0.931 . S
C970 C964 1.383 . S
C970 C969 1.379 . S
H971 C965 0.959 . S
H972 C965 0.961 . S
H973 C965 0.960 1_565 S
H974 C966 0.986 . S
H975 C967 0.929 1_565 S
H976 C984 0.929 . S
H977 C986 0.930 . S
H978 C988 0.930 . S
H979 C991 0.929 . S
H980 C994 0.930 . S
H981 C996 0.960 . S
H982 C996 0.960 . S
H983 C996 0.960 . S
C984 H976 0.929 . S
C984 C985 1.377 . S
C984 C986 1.384 . S
C985 C984 1.377 . S
C985 C991 1.390 . S
C986 H977 0.930 . S
C986 C984 1.384 . S
C986 C987 1.372 . S
C987 C986 1.372 . S
C987 C988 1.400 . S
C987 C992 1.490 . S
C988 H978 0.930 . S
C988 C987 1.400 . S
C988 C991 1.386 . S
H989 C1005 0.930 . S
H990 C1006 0.931 . S
C991 H979 0.929 . S
C991 C985 1.390 . S
C991 C988 1.386 . S
C992 C987 1.490 . S
C992 C994 1.395 . S
C992 C995 1.403 . S
H993 C999 0.930 . S
C994 H980 0.930 . S
C994 C992 1.395 . S
C994 C997 1.403 . S
C995 C992 1.403 . S
C995 C996 1.524 . S
C995 C999 1.400 . S
C996 H981 0.960 . S
C996 H982 0.960 . S
C996 H983 0.960 . S
C996 C995 1.524 . S
C997 C994 1.403 . S
C997 C998 1.392 . S
C997 C1001 1.495 . S
C998 C997 1.392 . S
C998 C999 1.385 . S
C998 C1000 1.478 . S
C999 H993 0.930 . S
C999 C995 1.400 . S
C999 C998 1.385 . S
C1000 C998 1.478 . S
C1000 C1002 1.381 . S
C1000 C1006 1.383 . S
C1001 C997 1.495 . S
C1001 H1007 0.959 . S
C1001 H1008 0.961 . S
C1001 H1009 0.960 . S
C1002 C1000 1.381 . S
C1002 C1003 1.394 . S
C1002 H1010 0.930 . S
C1003 C1002 1.394 . S
C1003 C1004 1.383 . S
C1003 H1011 0.929 . S
C1004 C1003 1.383 . S
C1004 C1005 1.377 . S
C1005 H989 0.930 . S
C1005 C1004 1.377 . S
C1005 C1006 1.379 . S
C1006 H990 0.931 . S
C1006 C1000 1.383 . S
C1006 C1005 1.379 . S
H1007 C1001 0.959 . S
H1008 C1001 0.961 . S
H1009 C1001 0.960 . S
H1010 C1002 0.930 . S
H1011 C1003 0.929 . S
H1012 C1020 0.929 . S
H1013 C1022 0.930 . S
H1014 C1024 0.930 . S
H1015 C1027 0.929 . S
H1016 C1030 0.930 . S
H1017 C1032 0.960 . S
H1018 C1032 0.960 . S
H1019 C1032 0.960 . S
C1020 H1012 0.929 . S
C1020 C1021 1.377 . S
C1020 C1022 1.384 . S
C1021 C1020 1.377 . S
C1021 C1027 1.390 . S
C1022 H1013 0.930 . S
C1022 C1020 1.384 . S
C1022 C1023 1.372 . S
C1023 C1022 1.372 . S
C1023 C1024 1.400 . S
C1023 C1028 1.490 . S
C1024 H1014 0.930 . S
C1024 C1023 1.400 . S
C1024 C1027 1.386 . S
H1025 C1041 0.930 . S
H1026 C1042 0.931 1_554 S
C1027 H1015 0.929 . S
C1027 C1021 1.390 . S
C1027 C1024 1.386 . S
C1028 C1023 1.490 . S
C1028 C1030 1.395 . S
C1028 C1031 1.403 . S
H1029 C1035 0.930 . S
C1030 H1016 0.930 . S
C1030 C1028 1.395 . S
C1030 C1033 1.403 . S
C1031 C1028 1.403 . S
C1031 C1032 1.524 . S
C1031 C1035 1.400 . S
C1032 H1017 0.960 . S
C1032 H1018 0.960 . S
C1032 H1019 0.960 . S
C1032 C1031 1.524 . S
C1033 C1030 1.403 . S
C1033 C1034 1.392 . S
C1033 C1037 1.495 1_554 S
C1034 C1033 1.392 . S
C1034 C1035 1.385 . S
C1034 C1036 1.478 1_554 S
C1035 H1029 0.930 . S
C1035 C1031 1.400 . S
C1035 C1034 1.385 . S
C1036 C1034 1.478 1_556 S
C1036 C1038 1.381 . S
C1036 C1042 1.383 . S
C1037 C1033 1.495 1_556 S
C1037 H1043 0.959 . S
C1037 H1044 0.961 . S
C1037 H1045 0.960 . S
C1038 C1036 1.381 . S
C1038 C1039 1.394 . S
C1038 H1046 0.930 . S
C1039 C1038 1.394 . S
C1039 C1040 1.383 . S
C1039 H1047 0.929 . S
C1040 C1039 1.383 . S
C1040 C1041 1.377 . S
C1041 H1025 0.930 . S
C1041 C1040 1.377 . S
C1041 C1042 1.379 . S
C1042 H1026 0.931 1_556 S
C1042 C1036 1.383 . S
C1042 C1041 1.379 . S
H1043 C1037 0.959 . S
H1044 C1037 0.961 . S
H1045 C1037 0.960 . S
H1046 C1038 0.930 . S
H1047 C1039 0.929 . S
H1048 C1056 0.929 . S
H1049 C1058 0.930 . S
H1050 C1060 0.930 . S
H1051 C1063 0.929 . S
H1052 C1066 0.930 1_655 S
H1053 C1068 0.960 . S
H1054 C1068 0.960 . S
H1055 C1068 0.960 . S
C1056 H1048 0.929 . S
C1056 C1057 1.377 . S
C1056 C1058 1.384 . S
C1057 C1056 1.377 . S
C1057 C1063 1.390 . S
C1058 H1049 0.930 . S
C1058 C1056 1.384 . S
C1058 C1059 1.372 . S
C1059 C1058 1.372 . S
C1059 C1060 1.400 . S
C1059 C1064 1.490 . S
C1060 H1050 0.930 . S
C1060 C1059 1.400 . S
C1060 C1063 1.386 . S
H1061 C1077 0.930 . S
H1062 C1078 0.931 . S
C1063 H1051 0.929 . S
C1063 C1057 1.390 . S
C1063 C1060 1.386 . S
C1064 C1059 1.490 . S
C1064 C1066 1.395 . S
C1064 C1067 1.403 . S
H1065 C1071 0.930 . S
C1066 H1052 0.930 1_455 S
C1066 C1064 1.395 . S
C1066 C1069 1.403 . S
C1067 C1064 1.403 . S
C1067 C1068 1.524 . S
C1067 C1071 1.400 . S
C1068 H1053 0.960 . S
C1068 H1054 0.960 . S
C1068 H1055 0.960 . S
C1068 C1067 1.524 . S
C1069 C1066 1.403 . S
C1069 C1070 1.392 . S
C1069 C1073 1.495 1_455 S
C1070 C1069 1.392 . S
C1070 C1071 1.385 . S
C1070 C1072 1.478 . S
C1071 H1065 0.930 . S
C1071 C1067 1.400 . S
C1071 C1070 1.385 . S
C1072 C1070 1.478 . S
C1072 C1074 1.381 . S
C1072 C1078 1.383 . S
C1073 C1069 1.495 1_655 S
C1073 H1079 0.959 . S
C1073 H1080 0.961 . S
C1073 H1081 0.960 . S
C1074 C1072 1.381 . S
C1074 C1075 1.394 . S
C1074 H1082 0.930 . S
C1075 C1074 1.394 . S
C1075 C1076 1.383 . S
C1075 H1083 0.929 . S
C1076 C1075 1.383 . S
C1076 C1077 1.377 . S
C1077 H1061 0.930 . S
C1077 C1076 1.377 . S
C1077 C1078 1.379 . S
C1078 H1062 0.931 . S
C1078 C1072 1.383 . S
C1078 C1077 1.379 . S
H1079 C1073 0.959 . S
H1080 C1073 0.961 . S
H1081 C1073 0.960 . S
H1082 C1074 0.930 . S
H1083 C1075 0.929 . S
H1084 C1092 0.929 . S
H1085 C1094 0.930 . S
H1086 C1096 0.930 . S
H1087 C1099 0.929 . S
H1088 C1102 0.943 . S
H1089 C1104 0.960 . S
H1090 C1104 0.960 . S
H1091 C1104 0.960 . S
C1092 H1084 0.929 . S
C1092 C1093 1.377 . S
C1092 C1094 1.384 . S
C1093 C1092 1.377 . S
C1093 C1099 1.390 1_545 S
C1094 H1085 0.930 . S
C1094 C1092 1.384 . S
C1094 C1095 1.372 . S
C1095 C1094 1.372 . S
C1095 C1096 1.400 1_545 S
C1095 C1100 1.490 . S
C1096 H1086 0.930 . S
C1096 C1095 1.400 1_565 S
C1096 C1099 1.386 . S
H1097 C1113 0.930 . S
H1098 C1114 0.931 . S
C1099 H1087 0.929 . S
C1099 C1093 1.390 1_565 S
C1099 C1096 1.386 . S
C1100 C1095 1.490 . S
C1100 C1102 1.388 1_545 S
C1100 C1103 1.403 . S
H1101 C1107 0.930 . S
C1102 H1088 0.943 . S
C1102 C1100 1.388 1_565 S
C1102 C1105 1.404 . S
C1103 C1100 1.403 . S
C1103 C1104 1.524 . S
C1103 C1107 1.400 . S
C1104 H1089 0.960 . S
C1104 H1090 0.960 . S
C1104 H1091 0.960 . S
C1104 C1103 1.524 . S
C1105 C1102 1.404 . S
C1105 C1106 1.380 1_565 S
C1105 C1109 1.506 . S
C1106 C1105 1.380 1_545 S
C1106 C1107 1.385 . S
C1106 C1108 1.478 . S
C1107 H1101 0.930 . S
C1107 C1103 1.400 . S
C1107 C1106 1.385 . S
C1108 C1106 1.478 . S
C1108 C1110 1.381 . S
C1108 C1114 1.383 1_545 S
C1109 C1105 1.506 . S
C1109 H1115 0.959 . S
C1109 H1116 0.961 . S
C1109 H1117 0.960 1_565 S
C1110 C1108 1.381 . S
C1110 C1111 1.394 . S
C1110 H1118 0.930 . S
C1111 C1110 1.394 . S
C1111 C1112 1.383 . S
C1111 H1119 0.929 . S
C1112 C1111 1.383 . S
C1112 C1113 1.377 1_545 S
C1113 H1097 0.930 . S
C1113 C1112 1.377 1_565 S
C1113 C1114 1.379 . S
C1114 H1098 0.931 . S
C1114 C1108 1.383 1_565 S
C1114 C1113 1.379 . S
H1115 C1109 0.959 . S
H1116 C1109 0.961 . S
H1117 C1109 0.960 1_545 S
H1118 C1110 0.930 . S
H1119 C1111 0.929 . S
H1120 C1128 0.929 . S
H1121 C1130 0.930 . S
H1122 C1132 0.930 . S
H1123 C1135 0.929 . S
H1124 C1138 0.930 . S
H1125 C1140 0.960 . S
H1126 C1140 0.960 . S
H1127 C1140 0.960 . S
C1128 H1120 0.929 . S
C1128 C1129 1.377 . S
C1128 C1130 1.384 1_554 S
C1129 C1128 1.377 . S
C1129 C1135 1.390 . S
C1130 H1121 0.930 . S
C1130 C1128 1.384 1_556 S
C1130 C1131 1.372 . S
C1131 C1130 1.372 . S
C1131 C1132 1.400 1_556 S
C1131 C1136 1.490 . S
C1132 H1122 0.930 . S
C1132 C1131 1.400 1_554 S
C1132 C1135 1.386 . S
H1133 C1149 0.930 . S
H1134 C1150 0.931 . S
C1135 H1123 0.929 . S
C1135 C1129 1.390 . S
C1135 C1132 1.386 . S
C1136 C1131 1.490 . S
C1136 C1138 1.395 . S
C1136 C1139 1.403 . S
H1137 C1143 0.930 . S
C1138 H1124 0.930 . S
C1138 C1136 1.395 . S
C1138 C1141 1.403 . S
C1139 C1136 1.403 . S
C1139 C1140 1.524 . S
C1139 C1143 1.400 . S
C1140 H1125 0.960 . S
C1140 H1126 0.960 . S
C1140 H1127 0.960 . S
C1140 C1139 1.524 . S
C1141 C1138 1.403 . S
C1141 C1142 1.392 . S
C1141 C1145 1.495 . S
C1142 C1141 1.392 . S
C1142 C1143 1.385 . S
C1142 C1144 1.478 . S
C1143 H1137 0.930 . S
C1143 C1139 1.400 . S
C1143 C1142 1.385 . S
C1144 C1142 1.478 . S
C1144 C1146 1.381 . S
C1144 C1150 1.383 . S
C1145 C1141 1.495 . S
C1145 H1151 0.959 . S
C1145 H1152 0.961 . S
C1145 H1153 0.960 . S
C1146 C1144 1.381 . S
C1146 C1147 1.394 . S
C1146 H1154 0.930 . S
C1147 C1146 1.394 . S
C1147 C1148 1.383 . S
C1147 H1155 0.929 . S
C1148 C1147 1.383 . S
C1148 C1149 1.377 . S
C1149 H1133 0.930 . S
C1149 C1148 1.377 . S
C1149 C1150 1.379 . S
C1150 H1134 0.931 . S
C1150 C1144 1.383 . S
C1150 C1149 1.379 . S
H1151 C1145 0.959 . S
H1152 C1145 0.961 . S
H1153 C1145 0.960 . S
H1154 C1146 0.930 . S
H1155 C1147 0.929 . S
H1156 C1164 0.929 . S
H1157 C1166 0.930 . S
H1158 C1168 0.930 . S
H1159 C1171 0.929 . S
H1160 C1174 0.930 . S
H1161 C1176 0.960 . S
H1162 C1176 0.960 . S
H1163 C1176 0.960 . S
C1164 H1156 0.929 . S
C1164 C1165 1.377 . S
C1164 C1166 1.384 . S
C1165 C1164 1.377 . S
C1165 C1171 1.390 . S
C1166 H1157 0.930 . S
C1166 C1164 1.384 . S
C1166 C1167 1.372 . S
C1167 C1166 1.372 . S
C1167 C1168 1.400 . S
C1167 C1172 1.490 . S
C1168 H1158 0.930 . S
C1168 C1167 1.400 . S
C1168 C1171 1.386 . S
H1169 C1185 0.930 . S
H1170 C1186 0.931 . S
C1171 H1159 0.929 . S
C1171 C1165 1.390 . S
C1171 C1168 1.386 . S
C1172 C1167 1.490 . S
C1172 C1174 1.395 . S
C1172 C1175 1.403 . S
H1173 C1179 0.930 . S
C1174 H1160 0.930 . S
C1174 C1172 1.395 . S
C1174 C1177 1.403 . S
C1175 C1172 1.403 . S
C1175 C1176 1.524 . S
C1175 C1179 1.400 . S
C1176 H1161 0.960 . S
C1176 H1162 0.960 . S
C1176 H1163 0.960 . S
C1176 C1175 1.524 . S
C1177 C1174 1.403 . S
C1177 C1178 1.392 . S
C1177 C1181 1.495 . S
C1178 C1177 1.392 . S
C1178 C1179 1.385 . S
C1178 C1180 1.478 . S
C1179 H1173 0.930 . S
C1179 C1175 1.400 . S
C1179 C1178 1.385 . S
C1180 C1178 1.478 . S
C1180 C1182 1.381 . S
C1180 C1186 1.383 . S
C1181 C1177 1.495 . S
C1181 H1187 0.959 . S
C1181 H1188 0.961 . S
C1181 H1189 0.960 . S
C1182 C1180 1.381 . S
C1182 C1183 1.394 . S
C1182 H1190 0.930 . S
C1183 C1182 1.394 . S
C1183 C1184 1.383 . S
C1183 H1191 0.929 . S
C1184 C1183 1.383 . S
C1184 C1185 1.377 . S
C1185 H1169 0.930 . S
C1185 C1184 1.377 . S
C1185 C1186 1.379 . S
C1186 H1170 0.931 . S
C1186 C1180 1.383 . S
C1186 C1185 1.379 . S
H1187 C1181 0.959 . S
H1188 C1181 0.961 . S
H1189 C1181 0.960 . S
H1190 C1182 0.930 . S
H1191 C1183 0.929 . S
H1192 C1200 0.886 1_455 S
H1193 C1202 0.955 . S
H1194 C1204 0.930 . S
H1195 C1207 0.929 . S
H1196 C1210 0.930 . S
H1197 C1212 0.960 . S
H1198 C1212 0.960 . S
H1199 C1212 0.960 . S
C1200 H1192 0.886 1_655 S
C1200 C1201 1.435 . S
C1200 C1202 1.368 1_655 S
C1201 C1200 1.435 . S
C1201 C1207 1.390 . S
C1202 H1193 0.955 . S
C1202 C1200 1.368 1_455 S
C1202 C1203 1.353 1_455 S
C1203 C1202 1.353 1_655 S
C1203 C1204 1.400 . S
C1203 C1208 1.490 . S
C1204 H1194 0.930 . S
C1204 C1203 1.400 . S
C1204 C1207 1.386 . S
H1205 C1221 0.930 . S
H1206 C1222 0.931 . S
C1207 H1195 0.929 . S
C1207 C1201 1.390 . S
C1207 C1204 1.386 . S
C1208 C1203 1.490 . S
C1208 C1210 1.395 1_655 S
C1208 C1211 1.403 . S
H1209 C1215 0.930 . S
C1210 H1196 0.930 . S
C1210 C1208 1.395 1_455 S
C1210 C1213 1.403 . S
C1211 C1208 1.403 . S
C1211 C1212 1.524 . S
C1211 C1215 1.400 . S
C1212 H1197 0.960 . S
C1212 H1198 0.960 . S
C1212 H1199 0.960 . S
C1212 C1211 1.524 . S
C1213 C1210 1.403 . S
C1213 C1214 1.392 1_455 S
C1213 C1217 1.495 . S
C1214 C1213 1.392 1_655 S
C1214 C1215 1.385 . S
C1214 C1216 1.478 . S
C1215 H1209 0.930 . S
C1215 C1211 1.400 . S
C1215 C1214 1.385 . S
C1216 C1214 1.478 . S
C1216 C1218 1.381 1_655 S
C1216 C1222 1.383 . S
C1217 C1213 1.495 . S
C1217 H1223 0.959 . S
C1217 H1224 0.961 . S
C1217 H1225 0.960 . S
C1218 C1216 1.381 1_455 S
C1218 C1219 1.394 . S
C1218 H1226 0.930 . S
C1219 C1218 1.394 . S
C1219 C1220 1.383 1_455 S
C1219 H1227 0.929 . S
C1220 C1219 1.383 1_655 S
C1220 C1221 1.377 . S
C1221 H1205 0.930 . S
C1221 C1220 1.377 . S
C1221 C1222 1.379 . S
C1222 H1206 0.931 . S
C1222 C1216 1.383 . S
C1222 C1221 1.379 . S
H1223 C1217 0.959 . S
H1224 C1217 0.961 . S
H1225 C1217 0.960 . S
H1226 C1218 0.930 . S
H1227 C1219 0.929 . S
H1228 C1236 0.929 . S
H1229 C1238 0.930 . S
H1230 C1240 0.930 . S
H1231 C1243 0.929 . S
H1232 C1246 0.930 . S
H1233 C1248 0.960 . S
H1234 C1248 0.960 1_565 S
H1235 C1248 0.960 . S
C1236 H1228 0.929 . S
C1236 C1237 1.428 . S
C1236 C1238 1.384 . S
C1237 C1236 1.428 . S
C1237 C1243 1.347 1_565 S
C1238 H1229 0.930 . S
C1238 C1236 1.384 . S
C1238 C1239 1.372 . S
C1239 C1238 1.372 . S
C1239 C1240 1.400 1_565 S
C1239 C1244 1.490 . S
C1240 H1230 0.930 . S
C1240 C1239 1.400 1_545 S
C1240 C1243 1.386 . S
H1241 C1257 0.930 . S
H1242 C1258 0.931 . S
C1243 H1231 0.929 . S
C1243 C1237 1.347 1_545 S
C1243 C1240 1.386 . S
C1244 C1239 1.490 . S
C1244 C1246 1.395 . S
C1244 C1247 1.399 1_565 S
H1245 C1251 0.927 1_545 S
C1246 H1232 0.930 . S
C1246 C1244 1.395 . S
C1246 C1249 1.403 . S
C1247 C1244 1.399 1_545 S
C1247 C1248 1.530 . S
C1247 C1251 1.395 1_545 S
C1248 H1233 0.960 . S
C1248 H1234 0.960 1_545 S
C1248 H1235 0.960 . S
C1248 C1247 1.530 . S
C1249 C1246 1.403 . S
C1249 C1250 1.392 . S
C1249 C1253 1.495 . S
C1250 C1249 1.392 . S
C1250 C1251 1.390 . S
C1250 C1252 1.478 . S
C1251 H1245 0.927 1_565 S
C1251 C1247 1.395 1_565 S
C1251 C1250 1.390 . S
C1252 C1250 1.478 . S
C1252 C1254 1.381 . S
C1252 C1258 1.383 1_565 S
C1253 C1249 1.495 . S
C1253 H1259 0.959 . S
C1253 H1260 0.961 . S
C1253 H1261 0.960 . S
C1254 C1252 1.381 . S
C1254 C1255 1.394 . S
C1254 H1262 0.930 . S
C1255 C1254 1.394 . S
C1255 C1256 1.383 . S
C1255 H1263 0.929 . S
C1256 C1255 1.383 . S
C1256 C1257 1.377 1_565 S
C1257 H1241 0.930 . S
C1257 C1256 1.377 1_545 S
C1257 C1258 1.379 . S
C1258 H1242 0.931 . S
C1258 C1252 1.383 1_545 S
C1258 C1257 1.379 . S
H1259 C1253 0.959 . S
H1260 C1253 0.961 . S
H1261 C1253 0.960 . S
H1262 C1254 0.930 . S
H1263 C1255 0.929 . S
H1264 C1272 0.929 . S
H1265 C1274 0.930 . S
H1266 C1276 0.930 . S
H1267 C1279 0.929 . S
H1268 C1282 0.930 . S
H1269 C1284 0.960 . S
H1270 C1284 0.960 . S
H1271 C1284 0.960 . S
C1272 H1264 0.929 . S
C1272 C1273 1.377 . S
C1272 C1274 1.384 . S
C1273 C1272 1.377 . S
C1273 C1279 1.390 . S
C1274 H1265 0.930 . S
C1274 C1272 1.384 . S
C1274 C1275 1.372 . S
C1275 C1274 1.372 . S
C1275 C1276 1.400 . S
C1275 C1280 1.490 . S
C1276 H1266 0.930 . S
C1276 C1275 1.400 . S
C1276 C1279 1.386 . S
H1277 C1293 0.930 . S
H1278 C1294 0.931 . S
C1279 H1267 0.929 . S
C1279 C1273 1.390 . S
C1279 C1276 1.386 . S
C1280 C1275 1.490 . S
C1280 C1282 1.395 . S
C1280 C1283 1.403 . S
H1281 C1287 0.930 . S
C1282 H1268 0.930 . S
C1282 C1280 1.395 . S
C1282 C1285 1.403 . S
C1283 C1280 1.403 . S
C1283 C1284 1.524 . S
C1283 C1287 1.400 . S
C1284 H1269 0.960 . S
C1284 H1270 0.960 . S
C1284 H1271 0.960 . S
C1284 C1283 1.524 . S
C1285 C1282 1.403 . S
C1285 C1286 1.392 . S
C1285 C1289 1.495 . S
C1286 C1285 1.392 . S
C1286 C1287 1.385 . S
C1286 C1288 1.478 . S
C1287 H1281 0.930 . S
C1287 C1283 1.400 . S
C1287 C1286 1.385 . S
C1288 C1286 1.478 . S
C1288 C1290 1.381 . S
C1288 C1294 1.383 . S
C1289 C1285 1.495 . S
C1289 H1295 0.959 . S
C1289 H1296 0.961 . S
C1289 H1297 0.960 . S
C1290 C1288 1.381 . S
C1290 C1291 1.394 . S
C1290 H1298 0.930 . S
C1291 C1290 1.394 . S
C1291 C1292 1.383 . S
C1291 H1299 0.929 . S
C1292 C1291 1.383 . S
C1292 C1293 1.377 . S
C1293 H1277 0.930 . S
C1293 C1292 1.377 . S
C1293 C1294 1.379 . S
C1294 H1278 0.931 . S
C1294 C1288 1.383 . S
C1294 C1293 1.379 . S
H1295 C1289 0.959 . S
H1296 C1289 0.961 . S
H1297 C1289 0.960 . S
H1298 C1290 0.930 . S
H1299 C1291 0.929 . S
H1300 C1308 0.929 . S
H1301 C1310 0.930 . S
H1302 C1312 0.930 . S
H1303 C1315 0.929 . S
H1304 C1318 0.930 . S
H1305 C1320 0.960 . S
H1306 C1320 0.960 . S
H1307 C1320 0.960 . S
C1308 H1300 0.929 . S
C1308 C1309 1.377 . S
C1308 C1310 1.384 . S
C1309 C1308 1.377 . S
C1309 C1315 1.390 . S
C1310 H1301 0.930 . S
C1310 C1308 1.384 . S
C1310 C1311 1.372 . S
C1311 C1310 1.372 . S
C1311 C1312 1.400 . S
C1311 C1316 1.490 . S
C1312 H1302 0.930 . S
C1312 C1311 1.400 . S
C1312 C1315 1.386 . S
H1313 C1329 0.930 . S
H1314 C1330 0.931 . S
C1315 H1303 0.929 . S
C1315 C1309 1.390 . S
C1315 C1312 1.386 . S
C1316 C1311 1.490 . S
C1316 C1318 1.395 . S
C1316 C1319 1.403 . S
H1317 C1323 0.930 . S
C1318 H1304 0.930 . S
C1318 C1316 1.395 . S
C1318 C1321 1.403 . S
C1319 C1316 1.403 . S
C1319 C1320 1.524 . S
C1319 C1323 1.400 . S
C1320 H1305 0.960 . S
C1320 H1306 0.960 . S
C1320 H1307 0.960 . S
C1320 C1319 1.524 . S
C1321 C1318 1.403 . S
C1321 C1322 1.392 . S
C1321 C1325 1.495 . S
C1322 C1321 1.392 . S
C1322 C1323 1.385 . S
C1322 C1324 1.478 . S
C1323 H1317 0.930 . S
C1323 C1319 1.400 . S
C1323 C1322 1.385 . S
C1324 C1322 1.478 . S
C1324 C1326 1.381 . S
C1324 C1330 1.383 . S
C1325 C1321 1.495 . S
C1325 H1331 0.959 . S
C1325 H1332 0.961 . S
C1325 H1333 0.960 . S
C1326 C1324 1.381 . S
C1326 C1327 1.394 . S
C1326 H1334 0.930 . S
C1327 C1326 1.394 . S
C1327 C1328 1.383 . S
C1327 H1335 0.929 . S
C1328 C1327 1.383 . S
C1328 C1329 1.377 . S
C1329 H1313 0.930 . S
C1329 C1328 1.377 . S
C1329 C1330 1.379 . S
C1330 H1314 0.931 . S
C1330 C1324 1.383 . S
C1330 C1329 1.379 . S
H1331 C1325 0.959 . S
H1332 C1325 0.961 . S
H1333 C1325 0.960 . S
H1334 C1326 0.930 . S
H1335 C1327 0.929 . S
C481 C255 1.809 . S
C500 C314 1.861 . S
C536 C354 2.117 . S
C517 C294 2.061 . S
C572 C418 2.291 . S
C553 C177 2.226 . S
C608 C434 1.797 . S
C589 C216 1.677 . S
C644 C335 1.850 1_565 S
C625 C99 1.804 1_545 S
C661 C138 2.061 1_556 S
C680 C375 2.109 . S
C697 C21 2.238 . S
C716 C409 2.279 . S
C733 C60 1.687 . S
C752 C455 1.819 . S
C788 C329 0.298 . S
C769 C196 0.260 . S
C824 C369 0.438 . S
C805 C235 0.367 1_545 S
C860 C405 0.488 . S
C841 C289 0.527 . S
C877 C157 0.400 . S
C896 C449 0.501 . S
C913 C40 0.258 . S
C932 C338 0.368 . S
C968 C378 0.385 . S
C949 C79 0.352 . S
C1004 C416 0.627 . S
C985 C133 0.520 . S
C1021 C1 0.357 . S
C1040 C458 0.403 . S
C1057 C211 2.449 . S
C1076 C336 2.694 . S
C1093 C250 2.199 . S
C1112 C376 2.410 . S
C1148 C394 1.766 . S
C1129 C274 1.747 . S
C1184 C456 3.040 . S
C1165 C172 2.737 . S
C1201 C55 2.457 . S
C1220 C325 2.707 . S
C1256 C365 2.405 . S
C1237 C94 2.186 1_565 S
C1292 C415 1.785 . S
C1273 C118 1.737 . S
C1309 C16 2.732 . S
C1328 C445 3.047 . S
