# Generated by pormake.
# Topology anh, (6,3)-cn, num edge types: 1
# Building blocks:
#     Node 0, Type 0, BuildingBlock: BETDEL_clean_sbu_0, # of connection points: 6
#     Node 1, Type 0, BuildingBlock: BETDEL_clean_sbu_0, # of connection points: 6
#     Node 2, Type 0, BuildingBlock: BETDEL_clean_sbu_0, # of connection points: 6
#     Node 3, Type 1, BuildingBlock: PAMTOO_clean_linker_0, # of connection points: 3
#     Node 4, Type 1, BuildingBlock: PAMTOO_clean_linker_0, # of connection points: 3
#     Node 5, Type 1, BuildingBlock: PAMTOO_clean_linker_0, # of connection points: 3
#     Node 6, Type 1, BuildingBlock: PAMTOO_clean_linker_0, # of connection points: 3
#     Node 7, Type 1, BuildingBlock: PAMTOO_clean_linker_0, # of connection points: 3
#     Node 8, Type 1, BuildingBlock: PAMTOO_clean_linker_0, # of connection points: 3
#     Edge 9, Type (0, 1), BuildingBlock: EZIPEK_clean_linker_0, # of connection points: 2
#     Edge 10, Type (0, 1), BuildingBlock: EZIPEK_clean_linker_0, # of connection points: 2
#     Edge 11, Type (0, 1), BuildingBlock: EZIPEK_clean_linker_0, # of connection points: 2
#     Edge 12, Type (0, 1), BuildingBlock: EZIPEK_clean_linker_0, # of connection points: 2
#     Edge 13, Type (0, 1), BuildingBlock: EZIPEK_clean_linker_0, # of connection points: 2
#     Edge 14, Type (0, 1), BuildingBlock: EZIPEK_clean_linker_0, # of connection points: 2
#     Edge 15, Type (0, 1), BuildingBlock: EZIPEK_clean_linker_0, # of connection points: 2
#     Edge 16, Type (0, 1), BuildingBlock: EZIPEK_clean_linker_0, # of connection points: 2
#     Edge 17, Type (0, 1), BuildingBlock: EZIPEK_clean_linker_0, # of connection points: 2
#     Edge 18, Type (0, 1), BuildingBlock: EZIPEK_clean_linker_0, # of connection points: 2
#     Edge 19, Type (0, 1), BuildingBlock: EZIPEK_clean_linker_0, # of connection points: 2
#     Edge 20, Type (0, 1), BuildingBlock: EZIPEK_clean_linker_0, # of connection points: 2
#     Edge 21, Type (0, 1), BuildingBlock: EZIPEK_clean_linker_0, # of connection points: 2
#     Edge 22, Type (0, 1), BuildingBlock: EZIPEK_clean_linker_0, # of connection points: 2
#     Edge 23, Type (0, 1), BuildingBlock: EZIPEK_clean_linker_0, # of connection points: 2
#     Edge 24, Type (0, 1), BuildingBlock: EZIPEK_clean_linker_0, # of connection points: 2
#     Edge 25, Type (0, 1), BuildingBlock: EZIPEK_clean_linker_0, # of connection points: 2
#     Edge 26, Type (0, 1), BuildingBlock: EZIPEK_clean_linker_0, # of connection points: 2
# Relax obj value: 0.110
# Max RMSD: 0.133
# Mean RMSD: 0.099
data_MOF--net-anh--node1-BETDEL_clean_sbu_0--node2-PAMTOO_clean_linker_0--edge1-EZIPEK_clean_linker_0
_symmetry_space_group_name_H-M    P1
_symmetry_Int_Tables_number       1
_symmetry_cell_setting            triclinic
loop_
_symmetry_equiv_pos_as_xyz
'x, y, z'
_cell_length_a     21.619815
_cell_length_b     21.631323
_cell_length_c     34.981665
_cell_angle_alpha  86.102656
_cell_angle_beta   91.456996
_cell_angle_gamma 120.07516
loop_
_atom_site_label
_atom_site_type_symbol
_atom_site_fract_x
_atom_site_fract_y
_atom_site_fract_z
_atom_type_partial_charge
Dy0 Dy 0.12798 0.47685 0.15184 0.0
C1 C 0.95442 0.59601 0.16182 0.0
C2 C 0.22033 0.42797 0.1414 0.0
Dy3 Dy 1.0506 0.55023 0.15363 0.0
O4 O 0.22692 0.47158 0.16674 0.0
O5 O 0.16307 0.41029 0.12166 0.0
O6 O 0.08914 0.42543 0.21067 0.0
O7 O 0.10955 0.52964 0.19842 0.0
C8 C 0.08483 0.47801 0.22318 0.0
C9 C 0.09164 0.55085 0.08149 0.0
O10 O 0.15569 0.63884 0.17234 0.0
O11 O 0.21543 0.59331 0.14195 0.0
O12 O 1.0095 0.62582 0.13913 0.0
O13 O 0.95441 0.54298 0.18141 0.0
O14 O 0.09729 0.60565 0.09722 0.0
O15 O 0.06697 0.49744 0.10578 0.0
O16 O 1.02106 0.37803 0.14656 0.0
O17 O 0.95956 0.43491 0.16043 0.0
C18 C 0.21576 0.64735 0.15808 0.0
C19 C 0.96057 0.37535 0.15504 0.0
Dy20 Dy 0.55068 0.06901 0.48596 0.0
C21 C 0.84853 0.24261 0.51331 0.0
C22 C 0.41408 0.98287 0.46338 0.0
Dy23 Dy 0.71236 0.15063 0.49031 0.0
O24 O 0.43669 0.98483 0.49823 0.0
O25 O 0.46566 1.02941 0.44095 0.0
O26 O 0.54151 0.10099 0.54413 0.0
O27 O 0.62758 0.08614 0.53147 0.0
C28 C 0.60231 0.1083 0.55577 0.0
C29 C 0.66422 0.1141 0.41955 0.0
O30 O 0.69386 0.03926 0.5041 0.0
O31 O 0.57486 0.97839 0.48651 0.0
O32 O 0.83164 0.20123 0.48501 0.0
O33 O 0.79024 0.23237 0.52907 0.0
O34 O 0.72619 0.12527 0.43143 0.0
O35 O 0.63621 0.13264 0.4444 0.0
O36 O 0.56473 0.17958 0.4787 0.0
O37 O 0.68769 0.24133 0.48787 0.0
C38 C 0.63448 0.97852 0.49698 0.0
C39 C 0.62594 0.24015 0.48265 0.0
Dy40 Dy 0.67028 0.64946 0.80914 0.0
C41 C 0.56169 0.35465 0.8276 0.0
C42 C 0.73322 0.79163 0.7881 0.0
Dy43 Dy 0.60003 0.49542 0.81676 0.0
O44 O 0.75381 0.7644 0.81642 0.0
O45 O 0.67882 0.74112 0.77146 0.0
O46 O 0.62475 0.65295 0.86491 0.0
O47 O 0.6536 0.57524 0.85949 0.0
C48 C 0.62643 0.59887 0.88178 0.0
C49 C 0.60693 0.54926 0.74366 0.0
O50 O 0.50551 0.50723 0.83004 0.0
O51 O 0.55486 0.61821 0.79824 0.0
O52 O 0.54697 0.38927 0.85127 0.0
O53 O 0.59543 0.39655 0.79801 0.0
O54 O 0.54989 0.49634 0.75966 0.0
O55 O 0.65578 0.57193 0.76807 0.0
O56 O 0.77042 0.64183 0.80795 0.0
O57 O 0.7139 0.52108 0.82612 0.0
C58 C 0.49906 0.56141 0.8149 0.0
C59 C 0.77307 0.58308 0.8184 0.0
H60 H 0.71944 0.1722 0.25199 0.0
H61 H 0.52739 0.96757 0.25529 0.0
H62 H 0.64133 0.06044 0.14848 0.0
H63 H 0.47241 0.9627 0.13751 0.0
C64 C 0.46287 0.93742 0.16708 0.0
O65 O 0.52723 0.94792 0.18221 0.0
H66 H 0.44283 0.96736 0.1824 0.0
C67 C 0.6788 0.12752 0.23696 0.0
C68 C 0.68737 0.12432 0.19763 0.0
C69 C 0.62113 0.07155 0.2577 0.0
C70 C 0.56998 1.01208 0.23883 0.0
C71 C 0.57548 1.00837 0.19926 0.0
C72 C 0.63482 0.06456 0.17863 0.0
H73 H 0.61281 0.71275 0.5863 0.0
H74 H 0.6415 0.53598 0.56357 0.0
H75 H 0.65549 0.68375 0.47094 0.0
H76 H 0.61693 0.52145 0.44018 0.0
C77 C 0.61204 0.50634 0.47139 0.0
O78 O 0.66213 0.56542 0.49026 0.0
H79 H 0.55659 0.49326 0.47781 0.0
C80 C 0.62139 0.68215 0.56588 0.0
C81 C 0.63313 0.70635 0.52692 0.0
C82 C 0.62473 0.62122 0.57921 0.0
C83 C 0.63695 0.5819 0.55322 0.0
C84 C 0.64594 0.60264 0.51411 0.0
C85 C 0.64516 0.66569 0.50094 0.0
H86 H 0.98372 0.54952 0.91167 0.0
H87 H 0.19385 0.57515 0.90793 0.0
H88 H 0.09139 0.58887 0.80321 0.0
H89 H 0.19163 0.52122 0.79129 0.0
C90 C 0.21326 0.53242 0.82071 0.0
O91 O 0.20595 0.58804 0.83332 0.0
H92 H 0.17809 0.48114 0.83728 0.0
C93 C 1.0292 0.55723 0.89523 0.0
C94 C 1.03042 0.57014 0.85533 0.0
C95 C 0.08802 0.55957 0.91453 0.0
C96 C 0.14739 0.57095 0.89321 0.0
C97 C 0.14767 0.57792 0.85304 0.0
C98 C 0.0896 0.57919 0.83405 0.0
H99 H 1.02168 0.42579 0.40301 0.0
H100 H 0.15996 0.64815 0.36987 0.0
H101 H 0.10781 0.5813 0.48875 0.0
H102 H 0.11439 0.71818 0.46876 0.0
C103 C 0.14541 0.73486 0.44159 0.0
O104 O 0.17496 0.69147 0.43936 0.0
H105 H 0.10778 0.72702 0.41766 0.0
C106 C 0.05403 0.48074 0.41078 0.0
C107 C 0.05955 0.49693 0.44935 0.0
C108 C 0.09075 0.53503 0.38218 0.0
C109 C 0.13163 0.60609 0.39198 0.0
C110 C 0.13646 0.62277 0.43025 0.0
C111 C 0.10242 0.56812 0.45906 0.0
H112 H 0.72303 1.03455 0.69862 0.0
H113 H 0.67256 0.19073 0.73455 0.0
H114 H 0.75674 0.09408 0.81528 0.0
H115 H 0.659 0.12874 0.8584 0.0
C116 C 0.64436 0.14298 0.82993 0.0
O117 O 0.70476 0.17927 0.80682 0.0
H118 H 0.60633 0.089 0.8203 0.0
C119 C 0.72427 0.0688 0.72025 0.0
C120 C 0.74388 0.05971 0.75773 0.0
C121 C 0.69922 0.11661 0.71146 0.0
C122 C 0.69506 0.15624 0.74051 0.0
C123 C 0.71666 0.14845 0.7778 0.0
C124 C 0.74371 0.10247 0.78596 0.0
H125 H 0.74221 0.61348 0.04916 0.0
H126 H 0.51519 0.52886 0.05545 0.0
H127 H 0.63206 0.5353 0.15761 0.0
H128 H 0.49096 0.4091 0.1648 0.0
C129 C 0.47272 0.41868 0.13635 0.0
O130 O 0.50556 0.49208 0.12917 0.0
H131 H 0.49053 0.39347 0.11588 0.0
C132 C 0.69365 0.59306 0.06604 0.0
C133 C 0.6951 0.57985 0.10575 0.0
C134 C 0.62888 0.5745 0.04765 0.0
C135 C 0.56563 0.54426 0.06946 0.0
C136 C 0.56704 0.52968 0.109 0.0
C137 C 0.63183 0.5491 0.12725 0.0
C138 C 0.30845 0.417 0.10136 0.0
C139 C 0.27114 0.40253 0.13656 0.0
C140 C 0.34992 0.36412 0.16787 0.0
C141 C 0.39258 0.3883 0.13407 0.0
N142 N 0.39351 0.40198 0.06519 0.0
N143 N 0.24108 0.34233 0.19945 0.0
C144 C 0.36488 0.40202 0.09951 0.0
C145 C 0.28696 0.36936 0.16869 0.0
N146 N 0.29449 0.45069 0.07075 0.0
N147 N 0.36985 0.33642 0.19883 0.0
H148 H 0.19357 0.34378 0.19998 0.0
H149 H 0.24676 0.31408 0.22321 0.0
H150 H 0.4084 0.32123 0.19678 0.0
H151 H 0.34724 0.32633 0.22604 0.0
H152 H 0.32598 0.47006 0.04597 0.0
H153 H 0.25497 0.46463 0.07119 0.0
H154 H 0.37188 0.40628 0.03887 0.0
H155 H 0.43413 0.38969 0.06316 0.0
C156 C 0.92037 0.372 0.52393 0.0
C157 C 0.9192 0.30837 0.51602 0.0
C158 C 1.03316 0.37961 0.482 0.0
C159 C 1.02007 0.43792 0.47894 0.0
N160 N 0.94814 0.48875 0.49724 0.0
N161 N 0.98279 0.25156 0.49605 0.0
C162 C 0.96398 0.43494 0.50079 0.0
C163 C 0.97928 0.31244 0.49835 0.0
N164 N 0.87922 0.3718 0.55286 0.0
N165 N 0.09636 0.38877 0.46887 0.0
H166 H 0.94595 0.20335 0.51042 0.0
H167 H 1.0207 0.24858 0.47973 0.0
H168 H 0.13685 0.43819 0.45747 0.0
H169 H 0.1111 0.34973 0.47232 0.0
H170 H 0.88104 0.41812 0.56106 0.0
H171 H 0.85126 0.32694 0.57175 0.0
H172 H 0.90285 0.48457 0.50977 0.0
H173 H 0.97618 0.53476 0.47924 0.0
C174 C 0.80158 0.91961 0.76227 0.0
C175 C 0.74629 0.86521 0.78585 0.0
C176 C 0.69073 0.93824 0.79103 0.0
C177 C 0.74787 0.99474 0.7691 0.0
N178 N 0.86376 0.04486 0.73915 0.0
N179 N 0.65038 0.82965 0.83128 0.0
C180 C 0.80549 0.98727 0.75639 0.0
C181 C 0.69513 0.8771 0.80321 0.0
N182 N 0.8486 0.90571 0.74467 0.0
N183 N 0.62986 0.94046 0.79801 0.0
H184 H 0.65199 0.78387 0.84101 0.0
H185 H 0.61698 0.83958 0.84759 0.0
H186 H 0.62203 0.98254 0.78812 0.0
H187 H 0.58382 0.89699 0.81018 0.0
H188 H 0.88536 0.94031 0.7238 0.0
H189 H 0.84817 0.85736 0.74969 0.0
H190 H 0.91018 0.04466 0.73219 0.0
H191 H 0.86771 0.0949 0.7345 0.0
C192 C 0.84448 0.54067 0.12314 0.0
C193 C 0.88714 0.59211 0.14959 0.0
C194 C 0.80448 0.63852 0.14701 0.0
C195 C 0.75951 0.58312 0.12299 0.0
N196 N 0.72723 0.47046 0.09669 0.0
N197 N 0.90541 0.68475 0.19049 0.0
C198 C 0.77661 0.53081 0.11369 0.0
C199 C 0.86638 0.63954 0.16281 0.0
N200 N 0.86989 0.50326 0.10549 0.0
N201 N 0.78908 0.69089 0.15366 0.0
H202 H 0.95165 0.6872 0.20183 0.0
H203 H 0.88959 0.7161 0.20397 0.0
H204 H 0.74363 0.6908 0.14281 0.0
H205 H 0.82329 0.73657 0.1678 0.0
H206 H 0.84485 0.47338 0.08197 0.0
H207 H 0.91922 0.50746 0.11148 0.0
H208 H 0.7347 0.42716 0.09319 0.0
H209 H 0.67592 0.46025 0.08963 0.0
C210 C 0.28191 0.92082 0.47347 0.0
C211 C 0.34098 0.93135 0.45132 0.0
C212 C 0.25953 0.83525 0.41161 0.0
C213 C 0.20555 0.81239 0.43993 0.0
N214 N 0.15747 0.84298 0.49219 0.0
N215 N 0.38637 0.89537 0.39957 0.0
C216 C 0.21404 0.85852 0.46907 0.0
C217 C 0.32994 0.88897 0.41981 0.0
N218 N 0.29061 0.97159 0.49768 0.0
N219 N 0.24334 0.80508 0.37711 0.0
H220 H 0.43959 0.93161 0.40515 0.0
H221 H 0.38059 0.85977 0.37927 0.0
H222 H 0.1911 0.76802 0.36993 0.0
H223 H 0.27953 0.82341 0.35426 0.0
H224 H 0.24901 0.97021 0.51273 0.0
H225 H 0.33908 1.01907 0.50014 0.0
H226 H 0.16212 0.86783 0.5174 0.0
H227 H 0.10502 0.8053 0.4857 0.0
C228 C 0.59596 0.27676 0.8666 0.0
C229 C 0.55744 0.28463 0.83533 0.0
C230 C 0.55975 0.18691 0.80488 0.0
C231 C 0.61027 0.18913 0.83272 0.0
N232 N 0.68918 0.25115 0.88483 0.0
N233 N 0.49818 0.24593 0.77549 0.0
C234 C 0.63156 0.23772 0.86237 0.0
C235 C 0.53698 0.23828 0.80503 0.0
N236 N 0.60016 0.3078 0.89999 0.0
N237 N 0.53429 0.13713 0.77788 0.0
H238 H 0.47615 0.27912 0.77656 0.0
H239 H 0.48997 0.22188 0.74963 0.0
H240 H 0.55359 0.10281 0.77339 0.0
H241 H 0.49083 0.12723 0.76055 0.0
H242 H 0.62358 0.299 0.92462 0.0
H243 H 0.57208 0.33412 0.90467 0.0
H244 H 0.7103 0.29138 0.90411 0.0
H245 H 0.72172 0.2292 0.88123 0.0
C246 C 0.67548 0.89908 0.5328 0.0
C247 C 0.63378 0.908 0.50309 0.0
C248 C 0.58767 0.78132 0.4892 0.0
C249 C 0.63716 0.77692 0.51515 0.0
N250 N 0.74296 0.84132 0.55286 0.0
N251 N 0.56014 0.85775 0.4473 0.0
C252 C 0.68589 0.83905 0.53399 0.0
C253 C 0.59268 0.8492 0.47958 0.0
N254 N 0.70099 0.94453 0.56185 0.0
N255 N 0.53378 0.72049 0.47483 0.0
H256 H 0.56277 0.90565 0.43801 0.0
H257 H 0.53642 0.81878 0.42741 0.0
H258 H 0.52753 0.66995 0.48142 0.0
H259 H 0.49155 0.71948 0.45928 0.0
H260 H 0.72688 0.93633 0.58554 0.0
H261 H 0.68747 0.98381 0.56525 0.0
H262 H 0.78299 0.88754 0.5646 0.0
H263 H 0.75445 0.79993 0.55259 0.0
C264 C 0.85443 0.53292 0.80663 0.0
C265 C 0.8439 0.58589 0.82265 0.0
C266 C 0.96636 0.64028 0.8477 0.0
C267 C 0.97152 0.58037 0.8379 0.0
N268 N 0.91727 0.46587 0.81034 0.0
N269 N 0.88771 0.68378 0.86444 0.0
C270 C 0.91487 0.52583 0.81769 0.0
C271 C 0.89965 0.63856 0.84442 0.0
N272 N 0.80789 0.49074 0.7799 0.0
N273 N 1.02559 0.69906 0.86027 0.0
H274 H 0.83876 0.68213 0.86497 0.0
H275 H 0.9241 0.71788 0.88389 0.0
H276 H 0.07541 0.70235 0.86222 0.0
H277 H 1.02698 0.7469 0.86466 0.0
H278 H 0.81618 0.45566 0.76474 0.0
H279 H 0.765 0.49636 0.76988 0.0
H280 H 0.87391 0.42051 0.79986 0.0
H281 H 0.96122 0.45972 0.81715 0.0
C282 C 0.30301 0.74885 0.19758 0.0
C283 C 0.28407 0.71738 0.16162 0.0
C284 C 0.39524 0.819 0.13402 0.0
C285 C 0.40584 0.85721 0.16738 0.0
N286 N 0.3682 0.85629 0.2321 0.0
N287 N 0.30925 0.72846 0.09379 0.0
C288 C 0.35951 0.82128 0.1996 0.0
C289 C 0.32977 0.7537 0.12939 0.0
N290 N 0.26918 0.70845 0.23023 0.0
N291 N 0.44825 0.84416 0.10696 0.0
H292 H 0.26078 0.68272 0.0886 0.0
H293 H 0.3371 0.75702 0.06885 0.0
H294 H 0.4982 0.88945 0.11025 0.0
H295 H 0.44576 0.81531 0.08373 0.0
H296 H 0.28547 0.72565 0.25769 0.0
H297 H 0.22968 0.6547 0.2302 0.0
H298 H 0.33031 0.83659 0.25415 0.0
H299 H 0.4114 0.90672 0.23643 0.0
C300 C 0.66872 0.36682 0.45461 0.0
C301 C 0.62579 0.30988 0.4818 0.0
C302 C 0.5803 0.38447 0.50644 0.0
C303 C 0.62291 0.44118 0.47888 0.0
N304 N 0.72463 0.49362 0.43589 0.0
N305 N 0.55439 0.2716 0.53961 0.0
C306 C 0.67248 0.43456 0.45589 0.0
C307 C 0.58526 0.32069 0.50934 0.0
N308 N 0.7036 0.35544 0.42628 0.0
N309 N 0.53445 0.39091 0.52985 0.0
H310 H 0.55716 0.22494 0.54302 0.0
H311 H 0.53159 0.27975 0.56321 0.0
H312 H 0.53524 0.43888 0.53269 0.0
H313 H 0.49394 0.348 0.54591 0.0
H314 H 0.72862 0.39182 0.40298 0.0
H315 H 0.70238 0.30704 0.42408 0.0
H316 H 0.76671 0.49401 0.42182 0.0
H317 H 0.73057 0.54439 0.43681 0.0
C318 C 0.39857 0.57591 0.7843 0.0
C319 C 0.42853 0.55929 0.81732 0.0
C320 C 0.32067 0.53094 0.85442 0.0
C321 C 0.29175 0.54968 0.8215 0.0
N322 N 0.31695 0.61477 0.75972 0.0
N323 N 0.42627 0.54161 0.88625 0.0
C324 C 0.33519 0.58017 0.78793 0.0
C325 C 0.39183 0.54257 0.85309 0.0
N326 N 0.42816 0.584 0.74895 0.0
N327 N 0.28031 0.50115 0.88705 0.0
H328 H 0.47906 0.55291 0.88679 0.0
H329 H 0.40547 0.53749 0.91343 0.0
H330 H 0.23084 0.49701 0.891 0.0
H331 H 0.2945 0.47706 0.90971 0.0
H332 H 0.40417 0.5889 0.72359 0.0
H333 H 0.47242 0.57819 0.74454 0.0
H334 H 0.34999 0.64337 0.73622 0.0
H335 H 0.27327 0.62239 0.7621 0.0
C336 C 0.82845 0.29562 0.14198 0.0
C337 C 0.89191 0.30427 0.15993 0.0
C338 C 0.82072 0.18242 0.19054 0.0
C339 C 0.75653 0.18059 0.17888 0.0
N340 N 0.69894 0.23807 0.14475 0.0
N341 N 0.94597 0.25518 0.20479 0.0
C342 C 0.76025 0.23768 0.15463 0.0
C343 C 0.88764 0.247 0.18469 0.0
N344 N 0.8336 0.34111 0.11165 0.0
N345 N 0.81761 0.12196 0.2073 0.0
H346 H 0.99618 0.30045 0.20185 0.0
H347 H 0.94327 0.21904 0.22686 0.0
H348 H 0.76954 0.07388 0.21182 0.0
H349 H 0.86274 0.11738 0.21296 0.0
H350 H 0.78993 0.33413 0.09523 0.0
H351 H 0.88283 0.38078 0.10022 0.0
H352 H 0.69874 0.28215 0.13088 0.0
H353 H 0.6483 0.19588 0.15269 0.0
C354 C 0.10671 0.50506 0.01896 0.0
C355 C 0.08493 0.54624 0.03885 0.0
C356 C 0.07589 0.60239 0.9775 0.0
C357 C 0.08877 0.55519 0.95737 0.0
N358 N 0.09942 0.44894 0.96006 0.0
N359 N 1.02036 0.6114 0.03376 0.0
C360 C 0.09903 0.5025 0.9784 0.0
C361 C 0.06106 0.58829 0.01723 0.0
N362 N 0.13765 0.47099 0.03829 0.0
N363 N 0.07982 0.66206 0.95917 0.0
H364 H 0.99983 0.59463 0.06151 0.0
H365 H 0.99823 0.63815 0.018 0.0
H366 H 0.09553 0.67735 0.93056 0.0
H367 H 0.07588 0.70047 0.97375 0.0
H368 H 0.16001 0.44528 0.02471 0.0
H369 H 0.14747 0.47529 0.06745 0.0
H370 H 0.10018 0.40567 0.97462 0.0
H371 H 0.09155 0.44381 0.93065 0.0
C372 C 0.65394 0.04415 0.36331 0.0
C373 C 0.63905 0.09394 0.37965 0.0
C374 C 0.59302 0.11204 0.31726 0.0
C375 C 0.6197 0.07248 0.30015 0.0
N376 N 0.68096 1.00502 0.30601 0.0
N377 N 0.59946 0.18099 0.37027 0.0
C378 C 0.65107 0.03913 0.32298 0.0
C379 C 0.60872 0.12862 0.35636 0.0
N380 N 0.66952 1.00029 0.38642 0.0
N381 N 0.55263 0.13379 0.29602 0.0
H382 H 0.60993 0.1961 0.39827 0.0
H383 H 0.58648 0.21396 0.35304 0.0
H384 H 0.54127 0.12332 0.26722 0.0
H385 H 0.52498 0.15604 0.30776 0.0
H386 H 0.67296 0.95775 0.37653 0.0
H387 H 0.67157 1.00123 0.41615 0.0
H388 H 0.7129 0.98798 0.32059 0.0
H389 H 0.67833 0.99824 0.27666 0.0
C390 C 0.67366 0.63349 0.68502 0.0
C391 C 0.61786 0.56622 0.70106 0.0
C392 C 0.56534 0.53716 0.63704 0.0
C393 C 0.62224 0.60219 0.62107 0.0
N394 N 0.74167 0.70102 0.62806 0.0
N395 N 0.53253 0.4438 0.68704 0.0
C396 C 0.6796 0.64718 0.64453 0.0
C397 C 0.56966 0.51495 0.67564 0.0
N398 N 0.72108 0.68534 0.70767 0.0
N399 N 0.5069 0.49638 0.61553 0.0
H400 H 0.54259 0.42303 0.71265 0.0
H401 H 0.50065 0.40433 0.66851 0.0
H402 H 0.50173 0.51088 0.58707 0.0
H403 H 0.46103 0.45181 0.62715 0.0
H404 H 0.75383 0.73829 0.69739 0.0
H405 H 0.72691 0.67777 0.73676 0.0
H406 H 0.78826 0.73052 0.64343 0.0
H407 H 0.74928 0.71101 0.5985 0.0
C408 C 0.67433 0.1788 0.61047 0.0
C409 C 0.6223 0.11247 0.59659 0.0
C410 C 0.60913 0.05447 0.66072 0.0
C411 C 0.66942 0.11781 0.67285 0.0
N412 N 0.76491 0.23869 0.658 0.0
N413 N 0.54422 0.9849 0.60729 0.0
C414 C 0.70328 0.17989 0.6475 0.0
C415 C 0.59063 0.04959 0.6214 0.0
N416 N 0.69503 0.24088 0.58862 0.0
N417 N 0.5683 0.99988 0.68703 0.0
H418 H 0.52776 0.97917 0.57883 0.0
H419 H 0.5262 0.93631 0.62315 0.0
H420 H 0.57887 1.00263 0.71633 0.0
H421 H 0.51996 0.95525 0.6804 0.0
H422 H 0.72691 0.29145 0.59887 0.0
H423 H 0.67477 0.24181 0.56141 0.0
H424 H 0.79593 0.28252 0.63913 0.0
H425 H 0.78831 0.24142 0.68473 0.0
C426 C 0.5866 0.52369 0.9441 0.0
C427 C 0.62947 0.59105 0.92415 0.0
C428 C 0.66471 0.64827 -0.01483 0.0
C429 C 0.6271 0.58018 0.00513 0.0
N430 N 0.56686 0.45136 0.00328 0.0
N431 N 0.72604 0.71338 0.92648 0.0
C432 C 0.59213 0.51723 -0.01546 0.0
C433 C 0.67336 0.65235 0.94488 0.0
N434 N 0.53882 0.46633 0.92471 0.0
N435 N 0.6909 0.70914 0.00453 0.0
H436 H 0.73796 0.71699 0.89744 0.0
H437 H 0.7635 0.75727 0.94091 0.0
H438 H 0.68461 0.7083 0.03406 0.0
H439 H 0.71256 0.76004 -0.00924 0.0
H440 H 0.50077 0.41797 0.93826 0.0
H441 H 0.53305 0.46936 0.89517 0.0
H442 H 0.54756 0.4044 -0.01092 0.0
H443 H 0.57167 0.44411 0.03275 0.0
C444 C 1.0223 0.47895 0.28196 0.0
C445 C 0.08501 0.48832 0.26439 0.0
C446 C 0.14797 0.51869 0.32544 0.0
C447 C 0.08792 0.51728 0.34183 0.0
N448 N 0.97106 0.50508 0.33509 0.0
N449 N 0.21041 0.52496 0.26752 0.0
C450 C 1.02573 0.49966 0.31997 0.0
C451 C 0.14871 0.51025 0.28561 0.0
N452 N 0.95915 0.44863 0.26262 0.0
N453 N 0.20334 0.52598 0.3482 0.0
H454 H 0.21298 0.51802 0.23852 0.0
H455 H 0.26029 0.54938 0.28048 0.0
H456 H 0.20467 0.53223 0.37757 0.0
H457 H 0.24499 0.51965 0.33875 0.0
H458 H 0.91007 0.43372 0.27517 0.0
H459 H 0.95483 0.43235 0.23485 0.0
H460 H 0.92781 0.50059 0.31916 0.0
H461 H 0.97154 0.51976 0.36294 0.0
loop_
_geom_bond_atom_site_label_1
_geom_bond_atom_site_label_2
_geom_bond_distance
_geom_bond_site_symmetry_2
_ccdc_geom_bond_type
Dy0 O4 2.398 . S
Dy0 O5 2.491 . S
Dy0 O6 2.403 . S
Dy0 O7 2.664 1_455 S
Dy0 O11 2.326 . S
Dy0 O15 2.310 . S
Dy0 O16 2.351 1_455 S
C1 O12 1.185 . S
C1 O13 1.355 . S
C2 O4 1.185 . S
C2 O5 1.355 . S
Dy3 O7 2.310 . S
Dy3 O10 2.351 1_655 S
Dy3 O12 2.398 . S
Dy3 O13 2.491 . S
Dy3 O14 2.403 . S
Dy3 O15 2.664 1_655 S
Dy3 O17 2.326 . S
O4 Dy0 2.398 . S
O4 C2 1.185 . S
O5 Dy0 2.491 . S
O5 C2 1.355 . S
O6 Dy0 2.403 . S
O6 C8 1.254 . S
O7 Dy0 2.664 1_655 S
O7 Dy3 2.310 . S
O7 C8 1.268 1_655 S
C8 O6 1.254 . S
C8 O7 1.268 1_455 S
C9 O14 1.254 1_455 S
C9 O15 1.268 . S
O10 Dy3 2.351 1_455 S
O10 C18 1.249 . S
O11 Dy0 2.326 . S
O11 C18 1.267 . S
O12 C1 1.185 . S
O12 Dy3 2.398 . S
O13 C1 1.355 . S
O13 Dy3 2.491 . S
O14 Dy3 2.403 . S
O14 C9 1.254 1_655 S
O15 Dy0 2.310 . S
O15 Dy3 2.664 1_455 S
O15 C9 1.268 . S
O16 Dy0 2.351 1_655 S
O16 C19 1.249 . S
O17 Dy3 2.326 . S
O17 C19 1.267 . S
C18 O10 1.249 . S
C18 O11 1.267 . S
C19 O16 1.249 . S
C19 O17 1.267 . S
Dy20 O24 2.398 . S
Dy20 O25 2.491 . S
Dy20 O26 2.403 . S
Dy20 O27 2.664 1_565 S
Dy20 O31 2.326 . S
Dy20 O35 2.310 1_565 S
Dy20 O36 2.351 1_565 S
C21 O32 1.185 . S
C21 O33 1.355 . S
C22 O24 1.185 . S
C22 O25 1.355 . S
Dy23 O27 2.310 . S
Dy23 O30 2.351 1_545 S
Dy23 O32 2.398 . S
Dy23 O33 2.491 . S
Dy23 O34 2.403 . S
Dy23 O35 2.664 . S
Dy23 O37 2.326 . S
O24 Dy20 2.398 . S
O24 C22 1.185 . S
O25 Dy20 2.491 . S
O25 C22 1.355 . S
O26 Dy20 2.403 . S
O26 C28 1.254 1_565 S
O27 Dy20 2.664 1_545 S
O27 Dy23 2.310 . S
O27 C28 1.268 . S
C28 O26 1.254 1_545 S
C28 O27 1.268 . S
C29 O34 1.254 . S
C29 O35 1.268 . S
O30 Dy23 2.351 1_565 S
O30 C38 1.249 . S
O31 Dy20 2.326 . S
O31 C38 1.267 . S
O32 C21 1.185 . S
O32 Dy23 2.398 . S
O33 C21 1.355 . S
O33 Dy23 2.491 . S
O34 Dy23 2.403 . S
O34 C29 1.254 . S
O35 Dy20 2.310 1_545 S
O35 Dy23 2.664 . S
O35 C29 1.268 . S
O36 Dy20 2.351 1_545 S
O36 C39 1.249 . S
O37 Dy23 2.326 . S
O37 C39 1.267 . S
C38 O30 1.249 . S
C38 O31 1.267 . S
C39 O36 1.249 . S
C39 O37 1.267 . S
Dy40 O44 2.398 . S
Dy40 O45 2.491 . S
Dy40 O46 2.403 . S
Dy40 O47 2.664 . S
Dy40 O51 2.326 . S
Dy40 O55 2.310 . S
Dy40 O56 2.351 . S
C41 O52 1.185 . S
C41 O53 1.355 . S
C42 O44 1.185 . S
C42 O45 1.355 . S
Dy43 O47 2.310 . S
Dy43 O50 2.351 . S
Dy43 O52 2.398 . S
Dy43 O53 2.491 . S
Dy43 O54 2.403 . S
Dy43 O55 2.664 . S
Dy43 O57 2.326 . S
O44 Dy40 2.398 . S
O44 C42 1.185 . S
O45 Dy40 2.491 . S
O45 C42 1.355 . S
O46 Dy40 2.403 . S
O46 C48 1.254 . S
O47 Dy40 2.664 . S
O47 Dy43 2.310 . S
O47 C48 1.268 . S
C48 O46 1.254 . S
C48 O47 1.268 . S
C49 O54 1.254 . S
C49 O55 1.268 . S
O50 Dy43 2.351 . S
O50 C58 1.249 . S
O51 Dy40 2.326 . S
O51 C58 1.267 . S
O52 C41 1.185 . S
O52 Dy43 2.398 . S
O53 C41 1.355 . S
O53 Dy43 2.491 . S
O54 Dy43 2.403 . S
O54 C49 1.254 . S
O55 Dy40 2.310 . S
O55 Dy43 2.664 . S
O55 C49 1.268 . S
O56 Dy40 2.351 . S
O56 C59 1.249 . S
O57 Dy43 2.326 . S
O57 C59 1.267 . S
C58 O50 1.249 . S
C58 O51 1.267 . S
C59 O56 1.249 . S
C59 O57 1.267 . S
H60 C67 0.929 . S
H61 C70 0.930 . S
H62 C72 0.929 . S
H63 C64 0.969 . S
C64 H63 0.969 . S
C64 O65 1.550 . S
C64 H66 0.973 . S
O65 C64 1.550 . S
O65 C71 1.412 . S
H66 C64 0.973 . S
C67 H60 0.929 . S
C67 C68 1.400 . S
C67 C69 1.364 . S
C68 C67 1.400 . S
C68 C72 1.377 . S
C69 C67 1.364 . S
C69 C70 1.374 1_545 S
C70 H61 0.930 . S
C70 C69 1.374 1_565 S
C70 C71 1.383 . S
C71 O65 1.412 . S
C71 C70 1.383 . S
C71 C72 1.394 1_565 S
C72 H62 0.929 . S
C72 C68 1.377 . S
C72 C71 1.394 1_545 S
H73 C80 0.929 . S
H74 C83 0.930 . S
H75 C85 0.929 . S
H76 C77 0.969 . S
C77 H76 0.969 . S
C77 O78 1.550 . S
C77 H79 0.973 . S
O78 C77 1.550 . S
O78 C84 1.412 . S
H79 C77 0.973 . S
C80 H73 0.929 . S
C80 C81 1.400 . S
C80 C82 1.364 . S
C81 C80 1.400 . S
C81 C85 1.377 . S
C82 C80 1.364 . S
C82 C83 1.374 . S
C83 H74 0.930 . S
C83 C82 1.374 . S
C83 C84 1.383 . S
C84 O78 1.412 . S
C84 C83 1.383 . S
C84 C85 1.394 . S
C85 H75 0.929 . S
C85 C81 1.377 . S
C85 C84 1.394 . S
H86 C93 0.929 1_655 S
H87 C96 0.930 . S
H88 C98 0.929 . S
H89 C90 0.969 . S
C90 H89 0.969 . S
C90 O91 1.550 . S
C90 H92 0.973 . S
O91 C90 1.550 . S
O91 C97 1.412 . S
H92 C90 0.973 . S
C93 H86 0.929 1_455 S
C93 C94 1.400 . S
C93 C95 1.364 . S
C94 C93 1.400 . S
C94 C98 1.377 . S
C95 C93 1.364 . S
C95 C96 1.374 . S
C96 H87 0.930 . S
C96 C95 1.374 . S
C96 C97 1.383 . S
C97 O91 1.412 . S
C97 C96 1.383 . S
C97 C98 1.394 . S
C98 H88 0.929 . S
C98 C94 1.377 . S
C98 C97 1.394 . S
H99 C106 0.929 . S
H100 C109 0.930 . S
H101 C111 0.929 . S
H102 C103 0.969 . S
C103 H102 0.969 . S
C103 O104 1.550 . S
C103 H105 0.973 . S
O104 C103 1.550 . S
O104 C110 1.412 . S
H105 C103 0.973 . S
C106 H99 0.929 . S
C106 C107 1.400 . S
C106 C108 1.364 1_655 S
C107 C106 1.400 . S
C107 C111 1.377 1_655 S
C108 C106 1.364 1_455 S
C108 C109 1.374 . S
C109 H100 0.930 . S
C109 C108 1.374 . S
C109 C110 1.383 . S
C110 O104 1.412 . S
C110 C109 1.383 . S
C110 C111 1.394 . S
C111 H101 0.929 . S
C111 C107 1.377 1_455 S
C111 C110 1.394 . S
H112 C119 0.929 . S
H113 C122 0.930 . S
H114 C124 0.929 . S
H115 C116 0.969 . S
C116 H115 0.969 . S
C116 O117 1.550 . S
C116 H118 0.973 . S
O117 C116 1.550 . S
O117 C123 1.412 . S
H118 C116 0.973 . S
C119 H112 0.929 . S
C119 C120 1.400 . S
C119 C121 1.364 1_565 S
C120 C119 1.400 . S
C120 C124 1.377 1_565 S
C121 C119 1.364 1_545 S
C121 C122 1.374 . S
C122 H113 0.930 . S
C122 C121 1.374 . S
C122 C123 1.383 . S
C123 O117 1.412 . S
C123 C122 1.383 . S
C123 C124 1.394 . S
C124 H114 0.929 . S
C124 C120 1.377 1_545 S
C124 C123 1.394 . S
H125 C132 0.929 . S
H126 C135 0.930 . S
H127 C137 0.929 . S
H128 C129 0.969 . S
C129 H128 0.969 . S
C129 O130 1.550 . S
C129 H131 0.973 . S
O130 C129 1.550 . S
O130 C136 1.412 . S
H131 C129 0.973 . S
C132 H125 0.929 . S
C132 C133 1.400 . S
C132 C134 1.364 . S
C133 C132 1.400 . S
C133 C137 1.377 . S
C134 C132 1.364 . S
C134 C135 1.374 . S
C135 H126 0.930 . S
C135 C134 1.374 . S
C135 C136 1.383 . S
C136 O130 1.412 . S
C136 C135 1.383 . S
C136 C137 1.394 . S
C137 H127 0.929 . S
C137 C133 1.377 . S
C137 C136 1.394 . S
C138 C139 1.363 . S
C138 C144 1.379 . S
C138 N146 1.356 . S
C139 C138 1.363 . S
C139 C145 1.363 . S
C140 C141 1.363 . S
C140 C145 1.379 . S
C140 N147 1.356 . S
C141 C140 1.363 . S
C141 C144 1.363 . S
N142 C144 1.356 . S
N142 H154 0.984 . S
N142 H155 0.985 . S
N143 C145 1.356 . S
N143 H148 0.984 . S
N143 H149 0.985 . S
C144 C138 1.379 . S
C144 C141 1.363 . S
C144 N142 1.356 . S
C145 C139 1.363 . S
C145 C140 1.379 . S
C145 N143 1.356 . S
N146 C138 1.356 . S
N146 H152 0.984 . S
N146 H153 0.984 . S
N147 C140 1.356 . S
N147 H150 0.984 . S
N147 H151 0.985 . S
H148 N143 0.984 . S
H149 N143 0.985 . S
H150 N147 0.984 . S
H151 N147 0.985 . S
H152 N146 0.984 . S
H153 N146 0.984 . S
H154 N142 0.984 . S
H155 N142 0.985 . S
C156 C157 1.363 . S
C156 C162 1.379 . S
C156 N164 1.356 . S
C157 C156 1.363 . S
C157 C163 1.363 . S
C158 C159 1.363 . S
C158 C163 1.379 . S
C158 N165 1.356 . S
C159 C158 1.363 . S
C159 C162 1.363 . S
N160 C162 1.356 . S
N160 H172 0.984 . S
N160 H173 0.985 . S
N161 C163 1.356 . S
N161 H166 0.984 . S
N161 H167 0.985 . S
C162 C156 1.379 . S
C162 C159 1.363 . S
C162 N160 1.356 . S
C163 C157 1.363 . S
C163 C158 1.379 . S
C163 N161 1.356 . S
N164 C156 1.356 . S
N164 H170 0.984 . S
N164 H171 0.984 . S
N165 C158 1.356 . S
N165 H168 0.984 . S
N165 H169 0.985 . S
H166 N161 0.984 . S
H167 N161 0.985 . S
H168 N165 0.984 . S
H169 N165 0.985 . S
H170 N164 0.984 . S
H171 N164 0.984 . S
H172 N160 0.984 . S
H173 N160 0.985 . S
C174 C175 1.363 . S
C174 C180 1.379 . S
C174 N182 1.356 . S
C175 C174 1.363 . S
C175 C181 1.363 . S
C176 C177 1.363 . S
C176 C181 1.379 . S
C176 N183 1.356 . S
C177 C176 1.363 . S
C177 C180 1.363 . S
N178 C180 1.356 . S
N178 H190 0.984 . S
N178 H191 0.985 1_565 S
N179 C181 1.356 . S
N179 H184 0.984 . S
N179 H185 0.985 . S
C180 C174 1.379 . S
C180 C177 1.363 . S
C180 N178 1.356 . S
C181 C175 1.363 . S
C181 C176 1.379 . S
C181 N179 1.356 . S
N182 C174 1.356 . S
N182 H188 0.984 . S
N182 H189 0.984 . S
N183 C176 1.356 . S
N183 H186 0.984 . S
N183 H187 0.985 . S
H184 N179 0.984 . S
H185 N179 0.985 . S
H186 N183 0.984 . S
H187 N183 0.985 . S
H188 N182 0.984 . S
H189 N182 0.984 . S
H190 N178 0.984 . S
H191 N178 0.985 1_545 S
C192 C193 1.363 . S
C192 C198 1.379 . S
C192 N200 1.356 . S
C193 C192 1.363 . S
C193 C199 1.363 . S
C194 C195 1.363 . S
C194 C199 1.379 . S
C194 N201 1.356 . S
C195 C194 1.363 . S
C195 C198 1.363 . S
N196 C198 1.356 . S
N196 H208 0.984 . S
N196 H209 0.985 . S
N197 C199 1.356 . S
N197 H202 0.984 . S
N197 H203 0.985 . S
C198 C192 1.379 . S
C198 C195 1.363 . S
C198 N196 1.356 . S
C199 C193 1.363 . S
C199 C194 1.379 . S
C199 N197 1.356 . S
N200 C192 1.356 . S
N200 H206 0.984 . S
N200 H207 0.984 . S
N201 C194 1.356 . S
N201 H204 0.984 . S
N201 H205 0.985 . S
H202 N197 0.984 . S
H203 N197 0.985 . S
H204 N201 0.984 . S
H205 N201 0.985 . S
H206 N200 0.984 . S
H207 N200 0.984 . S
H208 N196 0.984 . S
H209 N196 0.985 . S
C210 C211 1.363 . S
C210 C216 1.379 . S
C210 N218 1.356 . S
C211 C210 1.363 . S
C211 C217 1.363 . S
C212 C213 1.363 . S
C212 C217 1.379 . S
C212 N219 1.356 . S
C213 C212 1.363 . S
C213 C216 1.363 . S
N214 C216 1.356 . S
N214 H226 0.984 . S
N214 H227 0.985 . S
N215 C217 1.356 . S
N215 H220 0.984 . S
N215 H221 0.985 . S
C216 C210 1.379 . S
C216 C213 1.363 . S
C216 N214 1.356 . S
C217 C211 1.363 . S
C217 C212 1.379 . S
C217 N215 1.356 . S
N218 C210 1.356 . S
N218 H224 0.984 . S
N218 H225 0.984 . S
N219 C212 1.356 . S
N219 H222 0.984 . S
N219 H223 0.985 . S
H220 N215 0.984 . S
H221 N215 0.985 . S
H222 N219 0.984 . S
H223 N219 0.985 . S
H224 N218 0.984 . S
H225 N218 0.984 . S
H226 N214 0.984 . S
H227 N214 0.985 . S
C228 C229 1.363 . S
C228 C234 1.379 . S
C228 N236 1.356 . S
C229 C228 1.363 . S
C229 C235 1.363 . S
C230 C231 1.363 . S
C230 C235 1.379 . S
C230 N237 1.356 . S
C231 C230 1.363 . S
C231 C234 1.363 . S
N232 C234 1.356 . S
N232 H244 0.984 . S
N232 H245 0.985 . S
N233 C235 1.356 . S
N233 H238 0.984 . S
N233 H239 0.985 . S
C234 C228 1.379 . S
C234 C231 1.363 . S
C234 N232 1.356 . S
C235 C229 1.363 . S
C235 C230 1.379 . S
C235 N233 1.356 . S
N236 C228 1.356 . S
N236 H242 0.984 . S
N236 H243 0.984 . S
N237 C230 1.356 . S
N237 H240 0.984 . S
N237 H241 0.985 . S
H238 N233 0.984 . S
H239 N233 0.985 . S
H240 N237 0.984 . S
H241 N237 0.985 . S
H242 N236 0.984 . S
H243 N236 0.984 . S
H244 N232 0.984 . S
H245 N232 0.985 . S
C246 C247 1.363 . S
C246 C252 1.379 . S
C246 N254 1.356 . S
C247 C246 1.363 . S
C247 C253 1.363 . S
C248 C249 1.363 . S
C248 C253 1.379 . S
C248 N255 1.356 . S
C249 C248 1.363 . S
C249 C252 1.363 . S
N250 C252 1.356 . S
N250 H262 0.984 . S
N250 H263 0.985 . S
N251 C253 1.356 . S
N251 H256 0.984 . S
N251 H257 0.985 . S
C252 C246 1.379 . S
C252 C249 1.363 . S
C252 N250 1.356 . S
C253 C247 1.363 . S
C253 C248 1.379 . S
C253 N251 1.356 . S
N254 C246 1.356 . S
N254 H260 0.984 . S
N254 H261 0.984 . S
N255 C248 1.356 . S
N255 H258 0.984 . S
N255 H259 0.985 . S
H256 N251 0.984 . S
H257 N251 0.985 . S
H258 N255 0.984 . S
H259 N255 0.985 . S
H260 N254 0.984 . S
H261 N254 0.984 . S
H262 N250 0.984 . S
H263 N250 0.985 . S
C264 C265 1.363 . S
C264 C270 1.379 . S
C264 N272 1.356 . S
C265 C264 1.363 . S
C265 C271 1.363 . S
C266 C267 1.363 . S
C266 C271 1.379 . S
C266 N273 1.356 . S
C267 C266 1.363 . S
C267 C270 1.363 . S
N268 C270 1.356 . S
N268 H280 0.984 . S
N268 H281 0.985 . S
N269 C271 1.356 . S
N269 H274 0.984 . S
N269 H275 0.985 . S
C270 C264 1.379 . S
C270 C267 1.363 . S
C270 N268 1.356 . S
C271 C265 1.363 . S
C271 C266 1.379 . S
C271 N269 1.356 . S
N272 C264 1.356 . S
N272 H278 0.984 . S
N272 H279 0.984 . S
N273 C266 1.356 . S
N273 H276 0.984 1_655 S
N273 H277 0.985 1_655 S
H274 N269 0.984 . S
H275 N269 0.985 . S
H276 N273 0.984 1_455 S
H277 N273 0.985 1_455 S
H278 N272 0.984 . S
H279 N272 0.984 . S
H280 N268 0.984 . S
H281 N268 0.985 . S
C282 C283 1.363 . S
C282 C288 1.379 . S
C282 N290 1.356 . S
C283 C282 1.363 . S
C283 C289 1.363 . S
C284 C285 1.363 . S
C284 C289 1.379 . S
C284 N291 1.356 . S
C285 C284 1.363 . S
C285 C288 1.363 . S
N286 C288 1.356 . S
N286 H298 0.984 . S
N286 H299 0.985 . S
N287 C289 1.356 . S
N287 H292 0.984 . S
N287 H293 0.985 . S
C288 C282 1.379 . S
C288 C285 1.363 . S
C288 N286 1.356 . S
C289 C283 1.363 . S
C289 C284 1.379 . S
C289 N287 1.356 . S
N290 C282 1.356 . S
N290 H296 0.984 . S
N290 H297 0.984 . S
N291 C284 1.356 . S
N291 H294 0.984 . S
N291 H295 0.985 . S
H292 N287 0.984 . S
H293 N287 0.985 . S
H294 N291 0.984 . S
H295 N291 0.985 . S
H296 N290 0.984 . S
H297 N290 0.984 . S
H298 N286 0.984 . S
H299 N286 0.985 . S
C300 C301 1.363 . S
C300 C306 1.379 . S
C300 N308 1.356 . S
C301 C300 1.363 . S
C301 C307 1.363 . S
C302 C303 1.363 . S
C302 C307 1.379 . S
C302 N309 1.356 . S
C303 C302 1.363 . S
C303 C306 1.363 . S
N304 C306 1.356 . S
N304 H316 0.984 . S
N304 H317 0.985 . S
N305 C307 1.356 . S
N305 H310 0.984 . S
N305 H311 0.985 . S
C306 C300 1.379 . S
C306 C303 1.363 . S
C306 N304 1.356 . S
C307 C301 1.363 . S
C307 C302 1.379 . S
C307 N305 1.356 . S
N308 C300 1.356 . S
N308 H314 0.984 . S
N308 H315 0.984 . S
N309 C302 1.356 . S
N309 H312 0.984 . S
N309 H313 0.985 . S
H310 N305 0.984 . S
H311 N305 0.985 . S
H312 N309 0.984 . S
H313 N309 0.985 . S
H314 N308 0.984 . S
H315 N308 0.984 . S
H316 N304 0.984 . S
H317 N304 0.985 . S
C318 C319 1.363 . S
C318 C324 1.379 . S
C318 N326 1.356 . S
C319 C318 1.363 . S
C319 C325 1.363 . S
C320 C321 1.363 . S
C320 C325 1.379 . S
C320 N327 1.356 . S
C321 C320 1.363 . S
C321 C324 1.363 . S
N322 C324 1.356 . S
N322 H334 0.984 . S
N322 H335 0.985 . S
N323 C325 1.356 . S
N323 H328 0.984 . S
N323 H329 0.985 . S
C324 C318 1.379 . S
C324 C321 1.363 . S
C324 N322 1.356 . S
C325 C319 1.363 . S
C325 C320 1.379 . S
C325 N323 1.356 . S
N326 C318 1.356 . S
N326 H332 0.984 . S
N326 H333 0.984 . S
N327 C320 1.356 . S
N327 H330 0.984 . S
N327 H331 0.985 . S
H328 N323 0.984 . S
H329 N323 0.985 . S
H330 N327 0.984 . S
H331 N327 0.985 . S
H332 N326 0.984 . S
H333 N326 0.984 . S
H334 N322 0.984 . S
H335 N322 0.985 . S
C336 C337 1.363 . S
C336 C342 1.379 . S
C336 N344 1.356 . S
C337 C336 1.363 . S
C337 C343 1.363 . S
C338 C339 1.363 . S
C338 C343 1.379 . S
C338 N345 1.356 . S
C339 C338 1.363 . S
C339 C342 1.363 . S
N340 C342 1.356 . S
N340 H352 0.984 . S
N340 H353 0.985 . S
N341 C343 1.356 . S
N341 H346 0.984 . S
N341 H347 0.985 . S
C342 C336 1.379 . S
C342 C339 1.363 . S
C342 N340 1.356 . S
C343 C337 1.363 . S
C343 C338 1.379 . S
C343 N341 1.356 . S
N344 C336 1.356 . S
N344 H350 0.984 . S
N344 H351 0.984 . S
N345 C338 1.356 . S
N345 H348 0.984 . S
N345 H349 0.985 . S
H346 N341 0.984 . S
H347 N341 0.985 . S
H348 N345 0.984 . S
H349 N345 0.985 . S
H350 N344 0.984 . S
H351 N344 0.984 . S
H352 N340 0.984 . S
H353 N340 0.985 . S
C354 C355 1.363 . S
C354 C360 1.379 1_554 S
C354 N362 1.356 . S
C355 C354 1.363 . S
C355 C361 1.363 1_455 S
C356 C357 1.363 . S
C356 C361 1.379 1_456 S
C356 N363 1.356 1_455 S
C357 C356 1.363 . S
C357 C360 1.363 . S
N358 C360 1.356 . S
N358 H370 0.984 . S
N358 H371 0.985 . S
N359 C361 1.356 . S
N359 H364 0.984 . S
N359 H365 0.985 . S
C360 C354 1.379 1_556 S
C360 C357 1.363 . S
C360 N358 1.356 . S
C361 C355 1.363 1_655 S
C361 C356 1.379 1_654 S
C361 N359 1.356 . S
N362 C354 1.356 . S
N362 H368 0.984 . S
N362 H369 0.984 . S
N363 C356 1.356 1_655 S
N363 H366 0.984 . S
N363 H367 0.985 . S
H364 N359 0.984 . S
H365 N359 0.985 . S
H366 N363 0.984 . S
H367 N363 0.985 . S
H368 N362 0.984 . S
H369 N362 0.984 . S
H370 N358 0.984 . S
H371 N358 0.985 . S
C372 C373 1.363 1_565 S
C372 C378 1.379 . S
C372 N380 1.356 . S
C373 C372 1.363 1_545 S
C373 C379 1.363 . S
C374 C375 1.363 . S
C374 C379 1.379 . S
C374 N381 1.356 . S
C375 C374 1.363 . S
C375 C378 1.363 1_545 S
N376 C378 1.356 . S
N376 H388 0.984 . S
N376 H389 0.985 . S
N377 C379 1.356 . S
N377 H382 0.984 . S
N377 H383 0.985 . S
C378 C372 1.379 . S
C378 C375 1.363 1_565 S
C378 N376 1.356 . S
C379 C373 1.363 . S
C379 C374 1.379 . S
C379 N377 1.356 . S
N380 C372 1.356 . S
N380 H386 0.984 . S
N380 H387 0.984 . S
N381 C374 1.356 . S
N381 H384 0.984 . S
N381 H385 0.985 . S
H382 N377 0.984 . S
H383 N377 0.985 . S
H384 N381 0.984 . S
H385 N381 0.985 . S
H386 N380 0.984 . S
H387 N380 0.984 . S
H388 N376 0.984 . S
H389 N376 0.985 . S
C390 C391 1.363 . S
C390 C396 1.379 . S
C390 N398 1.356 . S
C391 C390 1.363 . S
C391 C397 1.363 . S
C392 C393 1.363 . S
C392 C397 1.379 . S
C392 N399 1.356 . S
C393 C392 1.363 . S
C393 C396 1.363 . S
N394 C396 1.356 . S
N394 H406 0.984 . S
N394 H407 0.985 . S
N395 C397 1.356 . S
N395 H400 0.984 . S
N395 H401 0.985 . S
C396 C390 1.379 . S
C396 C393 1.363 . S
C396 N394 1.356 . S
C397 C391 1.363 . S
C397 C392 1.379 . S
C397 N395 1.356 . S
N398 C390 1.356 . S
N398 H404 0.984 . S
N398 H405 0.984 . S
N399 C392 1.356 . S
N399 H402 0.984 . S
N399 H403 0.985 . S
H400 N395 0.984 . S
H401 N395 0.985 . S
H402 N399 0.984 . S
H403 N399 0.985 . S
H404 N398 0.984 . S
H405 N398 0.984 . S
H406 N394 0.984 . S
H407 N394 0.985 . S
C408 C409 1.363 . S
C408 C414 1.379 . S
C408 N416 1.356 . S
C409 C408 1.363 . S
C409 C415 1.363 1_545 S
C410 C411 1.363 1_565 S
C410 C415 1.379 . S
C410 N417 1.356 . S
C411 C410 1.363 1_545 S
C411 C414 1.363 . S
N412 C414 1.356 . S
N412 H424 0.984 . S
N412 H425 0.985 . S
N413 C415 1.356 . S
N413 H418 0.984 . S
N413 H419 0.985 . S
C414 C408 1.379 . S
C414 C411 1.363 . S
C414 N412 1.356 . S
C415 C409 1.363 1_565 S
C415 C410 1.379 . S
C415 N413 1.356 . S
N416 C408 1.356 . S
N416 H422 0.984 . S
N416 H423 0.984 . S
N417 C410 1.356 . S
N417 H420 0.984 . S
N417 H421 0.985 . S
H418 N413 0.984 . S
H419 N413 0.985 . S
H420 N417 0.984 . S
H421 N417 0.985 . S
H422 N416 0.984 . S
H423 N416 0.984 . S
H424 N412 0.984 . S
H425 N412 0.985 . S
C426 C427 1.363 . S
C426 C432 1.379 1_556 S
C426 N434 1.356 . S
C427 C426 1.363 . S
C427 C433 1.363 . S
C428 C429 1.363 . S
C428 C433 1.379 1_554 S
C428 N435 1.356 . S
C429 C428 1.363 . S
C429 C432 1.363 . S
N430 C432 1.356 . S
N430 H442 0.984 . S
N430 H443 0.985 . S
N431 C433 1.356 . S
N431 H436 0.984 . S
N431 H437 0.985 . S
C432 C426 1.379 1_554 S
C432 C429 1.363 . S
C432 N430 1.356 . S
C433 C427 1.363 . S
C433 C428 1.379 1_556 S
C433 N431 1.356 . S
N434 C426 1.356 . S
N434 H440 0.984 . S
N434 H441 0.984 . S
N435 C428 1.356 . S
N435 H438 0.984 . S
N435 H439 0.985 . S
H436 N431 0.984 . S
H437 N431 0.985 . S
H438 N435 0.984 . S
H439 N435 0.985 . S
H440 N434 0.984 . S
H441 N434 0.984 . S
H442 N430 0.984 . S
H443 N430 0.985 . S
C444 C445 1.363 1_655 S
C444 C450 1.379 . S
C444 N452 1.356 . S
C445 C444 1.363 1_455 S
C445 C451 1.363 . S
C446 C447 1.363 . S
C446 C451 1.379 . S
C446 N453 1.356 . S
C447 C446 1.363 . S
C447 C450 1.363 1_455 S
N448 C450 1.356 . S
N448 H460 0.984 . S
N448 H461 0.985 . S
N449 C451 1.356 . S
N449 H454 0.984 . S
N449 H455 0.985 . S
C450 C444 1.379 . S
C450 C447 1.363 1_655 S
C450 N448 1.356 . S
C451 C445 1.363 . S
C451 C446 1.379 . S
C451 N449 1.356 . S
N452 C444 1.356 . S
N452 H458 0.984 . S
N452 H459 0.984 . S
N453 C446 1.356 . S
N453 H456 0.984 . S
N453 H457 0.985 . S
H454 N449 0.984 . S
H455 N449 0.985 . S
H456 N453 0.984 . S
H457 N453 0.985 . S
H458 N452 0.984 . S
H459 N452 0.984 . S
H460 N448 0.984 . S
H461 N448 0.985 . S
C139 C2 1.139 . S
C141 C129 1.075 . S
C157 C21 0.987 . S
C159 C107 0.984 . S
C175 C42 1.027 . S
C177 C120 1.019 . S
C193 C1 0.977 . S
C195 C133 0.980 . S
C213 C103 1.110 . S
C211 C22 1.159 . S
C231 C116 1.052 . S
C229 C41 1.091 . S
C247 C38 1.849 . S
C249 C81 1.823 . S
C265 C59 1.901 . S
C267 C94 1.867 1_655 S
C283 C18 1.950 . S
C285 C64 1.786 . S
C303 C77 1.841 . S
C301 C39 2.016 . S
C321 C90 1.805 . S
C319 C58 1.959 . S
C337 C19 1.904 . S
C339 C68 1.871 . S
C357 C95 1.591 . S
C355 C9 1.543 . S
C373 C29 1.542 . S
C375 C69 1.573 . S
C391 C49 1.520 . S
C393 C82 1.620 . S
C411 C121 1.439 . S
C409 C28 1.391 . S
C429 C134 1.487 . S
C427 C48 1.478 . S
C445 C8 1.435 . S
C447 C108 1.464 . S
