# Generated by pormake.
# Topology pts, (4,4)-cn, num edge types: 1
# Building blocks:
#     Node 0, Type 0, BuildingBlock: MUDLON_clean_linker_0, # of connection points: 4
#     Node 1, Type 0, BuildingBlock: MUDLON_clean_linker_0, # of connection points: 4
#     Node 2, Type 1, BuildingBlock: UXUYUI_clean_sbu_0, # of connection points: 4
#     Node 3, Type 1, BuildingBlock: UXUYUI_clean_sbu_0, # of connection points: 4
#     Edge 4, Type (0, 1), BuildingBlock: FUNLAD_clean_linker_1, # of connection points: 2
#     Edge 5, Type (0, 1), BuildingBlock: FUNLAD_clean_linker_1, # of connection points: 2
#     Edge 6, Type (0, 1), BuildingBlock: FUNLAD_clean_linker_1, # of connection points: 2
#     Edge 7, Type (0, 1), BuildingBlock: FUNLAD_clean_linker_1, # of connection points: 2
#     Edge 8, Type (0, 1), BuildingBlock: FUNLAD_clean_linker_1, # of connection points: 2
#     Edge 9, Type (0, 1), BuildingBlock: FUNLAD_clean_linker_1, # of connection points: 2
#     Edge 10, Type (0, 1), BuildingBlock: FUNLAD_clean_linker_1, # of connection points: 2
#     Edge 11, Type (0, 1), BuildingBlock: FUNLAD_clean_linker_1, # of connection points: 2
# Relax obj value: 0.012
# Max RMSD: 0.056
# Mean RMSD: 0.052
data_MOF--net-pts--node1-UXUYUI_clean_sbu_0--node2-MUDLON_clean_linker_0--edge1-FUNLAD_clean_linker_1
_symmetry_space_group_name_H-M    P1
_symmetry_Int_Tables_number       1
_symmetry_cell_setting            triclinic
loop_
_symmetry_equiv_pos_as_xyz
'x, y, z'
_cell_length_a     41.437903
_cell_length_b     41.45794
_cell_length_c     53.200447
_cell_angle_alpha  89.983766
_cell_angle_beta   90.026346
_cell_angle_gamma 89.906593
loop_
_atom_site_label
_atom_site_type_symbol
_atom_site_fract_x
_atom_site_fract_y
_atom_site_fract_z
_atom_type_partial_charge
H0 H 0.63867 0.06953 0.04545 0.0
N1 N 0.62483 0.03002 0.00766 0.0
H2 H 0.67653 0.06052 0.07964 0.0
H3 H 0.65449 0.97259 0.019 0.0
H4 H 0.69273 0.96319 0.05295 0.0
H5 H 0.62821 0.97622 0.97777 0.0
H6 H 0.66342 0.96903 0.94125 0.0
H7 H 0.65992 0.07471 0.98483 0.0
H8 H 0.69438 0.06819 0.94804 0.0
H9 H 0.57637 0.06861 0.99515 0.0
H10 H 0.59707 0.97181 0.01997 0.0
H11 H 0.51875 0.05608 0.99411 0.0
H12 H 0.53967 0.95943 0.02007 0.0
H13 H 0.35865 0.03316 0.01617 0.0
H14 H 0.31965 0.04211 0.04965 0.0
H15 H 0.33482 0.94424 0.07553 0.0
H16 H 0.3736 0.93576 0.04192 0.0
H17 H 0.3537 0.93207 0.98102 0.0
H18 H 0.32082 0.93945 0.9434 0.0
H19 H 0.35348 0.03818 0.93793 0.0
H20 H 0.38698 0.0302 0.97536 0.0
H21 H 0.41609 0.0338 0.01861 0.0
H22 H 0.47347 0.04611 0.02006 0.0
H23 H 0.49517 0.9501 0.99311 0.0
N24 N 0.38869 0.97594 0.00487 0.0
H25 H 0.43753 0.93761 0.99281 0.0
C26 C 0.64371 0.02197 0.0296 0.0
C27 C 0.64999 0.04609 0.04734 0.0
C28 C 0.67201 0.04081 0.06687 0.0
C29 C 0.6884 0.01106 0.06895 0.0
C30 C 0.68076 0.98641 0.05183 0.0
C31 C 0.65873 0.99173 0.03237 0.0
C32 C 0.64173 0.02604 0.98417 0.0
C33 C 0.64243 0.99644 0.97128 0.0
C34 C 0.6626 0.99235 0.95043 0.0
C35 C 0.68256 0.0176 0.94218 0.0
C36 C 0.68043 0.04771 0.95433 0.0
C37 C 0.66035 0.05172 0.97518 0.0
C38 C 0.59109 0.02142 0.00782 0.0
C39 C 0.5684 0.04474 1.00061 0.0
C40 C 0.53546 0.03756 1.00021 0.0
C41 C 0.52436 0.00675 0.00715 0.0
C42 C 0.54724 0.9833 0.01431 0.0
C43 C 0.58025 0.99046 0.0145 0.0
C44 C 0.36911 0.98361 0.0265 0.0
C45 C 0.35404 0.01381 0.0293 0.0
C46 C 0.33158 0.01888 0.04848 0.0
C47 C 0.32353 0.99399 0.06529 0.0
C48 C 0.33981 0.9642 0.06311 0.0
C49 C 0.3623 0.9592 0.04388 0.0
C50 C 0.37261 0.98048 0.98109 0.0
C51 C 0.35397 0.95517 0.9715 0.0
C52 C 0.3348 0.95966 0.95018 0.0
C53 C 0.33368 0.98988 0.93811 0.0
C54 C 0.35359 0.01479 0.94703 0.0
C55 C 0.37278 0.01024 0.96839 0.0
C56 C 0.42243 0.98448 0.00586 0.0
C57 C 0.43307 0.01526 0.01322 0.0
C58 C 0.46607 0.0224 0.0138 0.0
C59 C 0.48916 0.99911 0.00675 0.0
C60 C 0.47828 0.96848 0.99915 0.0
C61 C 0.44533 0.96132 0.99878 0.0
H62 H 0.92737 0.66767 0.53028 0.0
N63 N 0.96758 0.62753 0.50752 0.0
H64 H 0.93922 0.70495 0.56423 0.0
H65 H 0.02422 0.63022 0.53401 0.0
H66 H 0.03649 0.66717 0.56851 0.0
H67 H 0.02555 0.64924 0.48982 0.0
H68 H 0.0338 0.68216 0.45223 0.0
H69 H 0.92447 0.64081 0.4721 0.0
H70 H 0.9325 0.67355 0.4342 0.0
H71 H 0.91946 0.58694 0.51506 0.0
H72 H 0.02188 0.59044 0.50194 0.0
H73 H 0.9214 0.52818 0.51591 0.0
H74 H 0.02465 0.53148 0.50411 0.0
H75 H 0.92038 0.34859 0.52563 0.0
H76 H 0.92518 0.31161 0.56132 0.0
H77 H 0.02315 0.34391 0.57334 0.0
H78 H 0.01787 0.38086 0.53764 0.0
H79 H 0.0273 0.36796 0.49396 0.0
H80 H 0.04266 0.3318 0.45957 0.0
H81 H 0.94356 0.33019 0.43425 0.0
H82 H 0.92846 0.36579 0.46896 0.0
H83 H 0.9341 0.42545 0.53708 0.0
H84 H 0.93755 0.4839 0.5398 0.0
H85 H 0.01094 0.48371 0.48209 0.0
N86 N 0.96581 0.38603 0.50632 0.0
H87 H 0.00882 0.42527 0.48052 0.0
C88 C 0.97466 0.64603 0.52974 0.0
C89 C 0.95101 0.66703 0.53896 0.0
C90 C 0.95795 0.68831 0.55857 0.0
C91 C 0.98892 0.68888 0.56954 0.0
C92 C 0.01239 0.66719 0.56061 0.0
C93 C 0.00538 0.64595 0.54091 0.0
C94 C 0.97421 0.643 0.48388 0.0
C95 C 0.00519 0.65424 0.4777 0.0
C96 C 0.00979 0.67333 0.45629 0.0
C97 C 0.9835 0.6812 0.44065 0.0
C98 C 0.95307 0.66812 0.44606 0.0
C99 C 0.94845 0.64941 0.46759 0.0
C100 C 0.97042 0.59298 0.50873 0.0
C101 C 0.94247 0.57488 0.51276 0.0
C102 C 0.94377 0.54126 0.51346 0.0
C103 C 0.97329 0.52483 0.51041 0.0
C104 C 1.00146 0.54317 0.50638 0.0
C105 C 1.00001 0.57695 0.50541 0.0
C106 C 0.96877 0.3671 0.52892 0.0
C107 C 0.94273 0.3478 0.53617 0.0
C108 C 0.94558 0.32671 0.55649 0.0
C109 C 0.97472 0.32416 0.56981 0.0
C110 C 1.00061 0.34444 0.56309 0.0
C111 C 0.99762 0.36579 0.54278 0.0
C112 C 0.97659 0.36935 0.48406 0.0
C113 C 0.00898 0.36004 0.48086 0.0
C114 C 0.01772 0.33941 0.4612 0.0
C115 C 0.99424 0.3273 0.44467 0.0
C116 C 0.96215 0.33809 0.44712 0.0
C117 C 0.95349 0.35883 0.46671 0.0
C118 C 0.97109 0.42045 0.50874 0.0
C119 C 0.95142 0.43792 0.52536 0.0
C120 C 0.95316 0.4715 0.52664 0.0
C121 C 0.97416 0.4888 0.51086 0.0
C122 C 0.99465 0.47132 0.4947 0.0
C123 C 0.99327 0.43755 0.49371 0.0
Li124 Li 0.00888 0.03497 0.2752 0.0
Li125 Li 0.00707 0.97575 0.27527 0.0
Li126 Li 0.03703 0.00485 0.24133 0.0
Li127 Li 0.97755 1.0034 0.24268 0.0
C128 C 0.07294 0.01703 0.28849 0.0
N129 N 0.12847 0.04299 0.3089 0.0
C130 C 0.08449 0.00598 0.31164 0.0
C131 C 0.0899 0.04095 0.27558 0.0
C132 C 0.11252 0.01951 0.3217 0.0
C133 C 0.11785 0.05385 0.28623 0.0
C134 C 0.95491 0.99336 0.29958 0.0
C135 C 0.92038 0.95239 0.31715 0.0
N136 N 0.92477 0.96533 0.34039 0.0
C137 C 0.95893 0.00639 0.32359 0.0
C138 C 0.93531 0.96628 0.29626 0.0
C139 C 0.94353 0.99183 0.344 0.0
C140 C 0.9886 0.09753 0.28699 0.0
N141 N 0.00814 0.07329 0.29505 0.0
C142 C 0.02328 0.104 0.33124 0.0
C143 C 0.02519 0.07589 0.3168 0.0
C144 C 1.00348 0.12965 0.32321 0.0
C145 C 0.9859 0.126 0.30084 0.0
H146 H 0.97491 0.09461 0.26983 0.0
H147 H 0.03971 0.05592 0.32329 0.0
C148 C 1.00245 0.90907 0.28736 0.0
N149 N 0.0078 0.93898 0.29692 0.0
C150 C 1.00217 0.88211 0.30315 0.0
C151 C 0.01327 0.91725 0.33832 0.0
C152 C 0.0133 0.94348 0.32185 0.0
C153 C 0.00775 0.88601 0.3291 0.0
H154 H 0.99821 0.90612 0.26746 0.0
H155 H 0.01738 0.96754 0.32899 0.0
C156 C 0.01497 0.06726 0.22374 0.0
N157 N 0.03217 0.11981 0.19469 0.0
C158 C 1.0029 0.07058 0.19933 0.0
C159 C 0.03534 0.09102 0.23351 0.0
C160 C 0.01201 0.09721 0.1849 0.0
C161 C 0.04386 0.11731 0.2185 0.0
C162 C 0.99531 0.94982 0.21898 0.0
C163 C 0.01006 0.95084 0.19537 0.0
C164 C 0.96713 0.93183 0.22228 0.0
C165 C 0.99614 0.93406 0.17535 0.0
C166 C 0.95393 0.91544 0.20178 0.0
N167 N 0.96858 0.9169 0.17894 0.0
C168 C 0.09972 0.98493 0.22959 0.0
C169 C 0.07726 0.01924 0.19857 0.0
C170 C 0.12842 0.98242 0.21598 0.0
N171 N 0.07493 1.00326 0.22081 0.0
C172 C 0.10554 0.0174 0.18431 0.0
C173 C 0.13161 0.99856 0.19293 0.0
H174 H 0.09718 0.97227 0.24726 0.0
H175 H 0.05717 0.0333 0.19175 0.0
C176 C 0.91023 0.00734 0.23531 0.0
N177 N 0.93879 0.00408 0.22301 0.0
C178 C 0.88128 0.00895 0.2219 0.0
C179 C 0.91157 0.00388 0.18332 0.0
C180 C 0.93994 1.00242 0.1975 0.0
C181 C 0.88161 0.00712 0.19556 0.0
H182 H 0.90992 0.0091 0.25558 0.0
H183 H 0.96294 1.00033 0.18808 0.0
O184 O 0.04545 0.00404 0.27844 0.0
O185 O 0.97033 0.00685 0.27945 0.0
O186 O 0.00603 0.04142 0.23819 0.0
O187 O 0.00848 0.96626 0.23876 0.0
H188 H 0.07191 0.98724 0.32179 0.0
H189 H 0.08186 0.04919 0.25738 0.0
H190 H 0.12162 0.01132 0.33966 0.0
H191 H 0.13118 0.07241 0.27643 0.0
H192 H 0.90533 0.93128 0.31489 0.0
H193 H 0.97401 0.02733 0.32648 0.0
H194 H 0.93193 0.95594 0.27778 0.0
H195 H 0.94656 1.00154 0.36272 0.0
H196 H 0.03645 0.10499 0.34877 0.0
H197 H 0.97007 0.145 0.29418 0.0
H198 H 0.99716 0.85883 0.29494 0.0
H199 H 0.01746 0.92141 0.35816 0.0
H200 H 0.98688 0.05269 0.19151 0.0
H201 H 0.04422 0.08948 0.25256 0.0
H202 H 1.00303 0.09992 0.16592 0.0
H203 H 0.05967 0.1358 0.22583 0.0
H204 H 0.03193 0.96454 0.1925 0.0
H205 H 0.95537 0.93083 0.24041 0.0
H206 H 0.00722 0.93474 0.15695 0.0
H207 H 0.932 0.90161 0.20402 0.0
H208 H 0.14789 0.96773 0.22335 0.0
H209 H 0.10676 0.03092 0.16697 0.0
H210 H 0.8588 0.0118 0.23205 0.0
H211 H 0.91349 1.00331 0.16306 0.0
Li212 Li 0.97595 0.01084 0.7729 0.0
Li213 Li 0.03883 0.00636 0.77191 0.0
Li214 Li 0.0075 0.03565 0.73965 0.0
Li215 Li 0.00551 0.97963 0.74077 0.0
C216 C 0.01397 0.07718 0.77759 0.0
N217 N 0.02261 0.14321 0.77802 0.0
C218 C 0.04417 0.0903 0.77202 0.0
C219 C 0.98821 0.09757 0.78356 0.0
C220 C 0.04803 0.12376 0.77227 0.0
C221 C 0.99306 0.13092 0.78364 0.0
C222 C 1.00296 0.94029 0.78033 0.0
C223 C 0.02727 0.88812 0.78699 0.0
N224 N 0.998 0.874 0.78349 0.0
C225 C 0.97308 0.92532 0.77696 0.0
C226 C 0.03028 0.92162 0.7855 0.0
C227 C 0.9711 0.89175 0.77855 0.0
C228 C 0.91166 0.9984 0.78819 0.0
N229 N 0.93976 0.01305 0.79472 0.0
C230 C 0.91651 0.03174 0.83313 0.0
C231 C 0.94269 0.02942 0.81671 0.0
C232 C 0.88714 0.01682 0.82703 0.0
C233 C 0.88484 1.00005 0.80408 0.0
H234 H 0.91001 0.98568 0.77048 0.0
H235 H 0.9654 0.04074 0.82145 0.0
C236 C 0.10448 0.01753 0.78468 0.0
N237 N 0.07593 0.00528 0.79283 0.0
C238 C 0.13172 0.01661 0.80019 0.0
C239 C 0.09943 0.99099 0.8323 0.0
C240 C 0.07288 0.99236 0.81617 0.0
C241 C 0.12943 1.0029 0.82435 0.0
H242 H 0.10607 0.02804 0.7661 0.0
H243 H 0.04977 0.98308 0.82222 0.0
C244 C 0.94932 0.02547 0.72014 0.0
N245 N 0.91177 0.06036 0.68687 0.0
C246 C 0.9559 0.02449 0.69439 0.0
C247 C 0.9234 0.0439 0.72895 0.0
C248 C 0.93672 0.0424 0.67788 0.0
C249 C 0.90475 0.06142 0.71183 0.0
C250 C 0.06187 0.98856 0.7184 0.0
C251 C 0.05278 0.98801 0.6931 0.0
C252 C 0.08859 0.97061 0.72633 0.0
C253 C 0.0703 0.9691 0.67619 0.0
C254 C 0.10555 0.95206 0.70881 0.0
N255 N 0.0961 0.95166 0.68433 0.0
C256 C 0.03453 0.07646 0.70247 0.0
C257 C 0.98607 0.09659 0.72005 0.0
C258 C 0.03673 0.10322 0.6866 0.0
N259 N 0.00931 0.07346 0.71862 0.0
C260 C 0.98725 0.12371 0.70451 0.0
C261 C 0.01295 0.12734 0.68744 0.0
H262 H 0.053 0.05807 0.70187 0.0
H263 H 0.96643 0.09398 0.73321 0.0
C264 C 0.97467 0.9366 0.70745 0.0
N265 N 1.00194 0.94058 0.72131 0.0
C266 C 0.97027 0.90876 0.69311 0.0
C267 C 0.02187 0.8892 0.70776 0.0
C268 C 0.0252 0.91738 0.72192 0.0
C269 C 0.99417 0.88477 0.69288 0.0
H270 H 0.95616 0.95497 0.70764 0.0
H271 H 0.04625 0.92052 0.73362 0.0
O272 O 0.00957 0.04453 0.77693 0.0
O273 O 0.00551 0.97305 0.77836 0.0
O274 O 0.9679 0.00819 0.73661 0.0
O275 O 0.04494 0.00684 0.73526 0.0
H276 H 0.06428 0.0748 0.76724 0.0
H277 H 0.96462 0.08778 0.78774 0.0
H278 H 0.07121 0.13428 0.76783 0.0
H279 H 0.97331 0.14702 0.78807 0.0
H280 H 0.04824 0.87333 0.79083 0.0
H281 H 0.95176 0.93947 0.77284 0.0
H282 H 0.05362 0.93286 0.788 0.0
H283 H 0.94818 0.8798 0.77581 0.0
H284 H 0.91927 0.04499 0.85055 0.0
H285 H 0.86264 0.98876 0.79808 0.0
H286 H 0.15397 0.02697 0.79333 0.0
H287 H 0.09656 0.9805 0.85082 0.0
H288 H 0.97564 0.01011 0.68724 0.0
H289 H 0.91805 0.04509 0.74882 0.0
H290 H 0.94166 0.04202 0.65792 0.0
H291 H 0.88477 0.07597 0.7184 0.0
H292 H 0.03234 1.00195 0.68662 0.0
H293 H 0.09587 0.97057 0.74584 0.0
H294 H 0.06341 0.9683 0.65658 0.0
H295 H 0.12613 0.93787 0.71471 0.0
H296 H 0.05689 0.10501 0.67371 0.0
H297 H 0.96783 0.14105 0.70575 0.0
H298 H 0.94838 0.90608 0.68216 0.0
H299 H 0.04055 0.871 0.70895 0.0
H300 H 0.28419 0.02284 0.08228 0.0
C301 C 0.29673 0.9998 0.08348 0.0
H302 H 0.29654 0.95438 0.10195 0.0
H303 H 0.20207 0.04737 0.17358 0.0
H304 H 0.25054 0.07768 0.18314 0.0
H305 H 0.30213 0.06481 0.16226 0.0
H306 H 0.30541 0.02189 0.13139 0.0
C307 C 0.28575 0.97807 0.10024 0.0
C308 C 0.25558 0.98416 0.11476 0.0
C309 C 0.25437 0.00856 0.13344 0.0
C310 C 0.2249 0.01512 0.14623 0.0
C311 C 0.22402 0.04064 0.16391 0.0
C312 C 0.25164 0.05835 0.16949 0.0
C313 C 0.28066 0.05117 0.15767 0.0
C314 C 0.28216 0.02659 0.13987 0.0
H315 H 0.18305 0.98499 0.18871 0.0
C316 C 0.16247 0.99526 0.17881 0.0
H317 H 0.14578 0.01101 0.14319 0.0
H318 H 0.24959 0.9355 0.08021 0.0
H319 H 0.20164 0.90391 0.0718 0.0
H320 H 0.15115 0.91397 0.09507 0.0
H321 H 0.14825 0.95586 0.12678 0.0
C322 C 0.16608 1.00283 0.15437 0.0
C323 C 0.19701 0.99648 0.14097 0.0
C324 C 0.19841 0.9717 0.12264 0.0
C325 C 0.22767 0.96557 0.1095 0.0
C326 C 0.22816 0.94096 0.09102 0.0
C327 C 0.20077 0.92265 0.08595 0.0
C328 C 0.17234 0.92835 0.09902 0.0
C329 C 0.17101 0.95253 0.11716 0.0
H330 H 0.95445 0.28984 0.59738 0.0
C331 C 0.97695 0.2996 0.59011 0.0
H332 H 0.02796 0.29477 0.59136 0.0
H333 H 0.02265 0.22586 0.6986 0.0
H334 H 0.04327 0.27839 0.7106 0.0
H335 H 0.04627 0.32272 0.67974 0.0
H336 H 0.02879 0.31474 0.63662 0.0
C337 C 0.00478 0.28647 0.59823 0.0
C338 C 0.00444 0.25922 0.61649 0.0
C339 C 0.01474 0.26425 0.64157 0.0
C340 C 0.01267 0.23876 0.65943 0.0
C341 C 0.02332 0.24445 0.68434 0.0
C342 C 0.03528 0.27448 0.69146 0.0
C343 C 0.03699 0.29943 0.67408 0.0
C344 C 0.02688 0.29453 0.6494 0.0
H345 H 0.03242 0.1529 0.6542 0.0
C346 C 0.01526 0.15494 0.66959 0.0
H347 H 0.98145 0.18625 0.68699 0.0
H348 H 0.98695 0.24013 0.5691 0.0
H349 H 0.96486 0.18821 0.55725 0.0
H350 H 0.95726 0.14534 0.58885 0.0
H351 H 0.97231 0.1539 0.63232 0.0
C352 C 0.99738 0.18202 0.67117 0.0
C353 C 1.00026 0.20828 0.65217 0.0
C354 C 0.99006 0.20322 0.62699 0.0
C355 C 0.99293 0.22846 0.60901 0.0
C356 C 0.98413 0.22224 0.58374 0.0
C357 C 0.97158 0.19247 0.57663 0.0
C358 C 0.96743 0.1683 0.5944 0.0
C359 C 0.97643 0.17348 0.6193 0.0
H360 H 0.72694 0.98173 0.08659 0.0
C361 C 0.71493 0.00507 0.08739 0.0
H362 H 0.71642 0.05112 0.1048 0.0
H363 H 0.80972 0.95843 0.17784 0.0
H364 H 0.76082 0.92918 0.18814 0.0
H365 H 0.70928 0.94229 0.16725 0.0
H366 H 0.70642 0.9844 0.13565 0.0
C367 C 0.72653 0.02708 0.10367 0.0
C368 C 0.75672 0.02082 0.11815 0.0
C369 C 0.7577 0.9969 0.13722 0.0
C370 C 0.78718 0.99018 0.14997 0.0
C371 C 0.7878 0.9652 0.16812 0.0
C372 C 0.75993 0.94812 0.17414 0.0
C373 C 0.73093 0.95543 0.16232 0.0
C374 C 0.72967 0.97953 0.1441 0.0
H375 H 0.82998 0.02023 0.19187 0.0
C376 C 0.85053 0.01035 0.18171 0.0
H377 H 0.86589 0.99149 0.14662 0.0
H378 H 0.76326 0.06846 0.08275 0.0
H379 H 0.81168 0.09893 0.07357 0.0
H380 H 0.86224 0.0885 0.0967 0.0
H381 H 0.86471 0.04738 0.12906 0.0
C382 C 0.8463 1.00167 0.15756 0.0
C383 C 0.81533 0.00816 0.14424 0.0
C384 C 0.8142 0.03246 0.12551 0.0
C385 C 0.78491 0.03877 0.11244 0.0
C386 C 0.78468 0.06288 0.09354 0.0
C387 C 0.81236 0.08054 0.08802 0.0
C388 C 0.84083 0.07465 0.10102 0.0
C389 C 0.8419 0.05093 0.11954 0.0
H390 H 0.02404 0.71638 0.59251 0.0
C391 C 0.99841 0.71315 0.58885 0.0
H392 H 0.95155 0.72847 0.59967 0.0
H393 H 0.99091 0.79474 0.70124 0.0
H394 H 0.96488 0.74628 0.71679 0.0
H395 H 0.94948 0.70251 0.68778 0.0
H396 H 0.96005 0.70689 0.64304 0.0
C397 C 0.97736 0.73204 0.60133 0.0
C398 C 0.98839 0.75777 0.61888 0.0
C399 C 0.98189 0.75491 0.64495 0.0
C400 C 0.99061 0.78021 0.66167 0.0
C401 C 0.9843 0.77648 0.68767 0.0
C402 C 0.96952 0.74872 0.69686 0.0
C403 C 0.96086 0.72407 0.68052 0.0
C404 C 0.96698 0.72695 0.65487 0.0
H405 H 0.96432 0.85016 0.67143 0.0
C406 C 0.98887 0.85538 0.67743 0.0
H407 H 0.03785 0.84144 0.67326 0.0
H408 H 1.00253 0.77231 0.56971 0.0
H409 H 0.02942 0.82027 0.55449 0.0
H410 H 0.04617 0.86322 0.58377 0.0
H411 H 0.0358 0.85851 0.62849 0.0
C412 C 0.01275 0.83597 0.66934 0.0
C413 C 0.00562 0.80844 0.65227 0.0
C414 C 0.01289 0.811 0.62632 0.0
C415 C 1.00385 0.78588 0.60952 0.0
C416 C 0.00977 0.79002 0.58349 0.0
C417 C 0.025 0.81761 0.57444 0.0
C418 C 0.03438 0.84181 0.59091 0.0
C419 C 0.02832 0.83877 0.61655 0.0
H420 H 0.31739 0.01637 0.90412 0.0
C421 C 0.31167 0.99638 0.91659 0.0
H422 H 0.27678 0.9608 0.92545 0.0
H423 H 0.18422 0.05772 0.85933 0.0
H424 H 0.19097 0.09552 0.89373 0.0
H425 H 0.22933 0.08421 0.92811 0.0
H426 H 0.26151 0.03536 0.92811 0.0
C427 C 0.28382 0.98033 0.91305 0.0
C428 C 0.26146 0.98812 0.892 0.0
C429 C 0.24231 0.01651 0.89266 0.0
C430 C 0.2193 0.02247 0.87333 0.0
C431 C 0.20127 0.0515 0.87396 0.0
C432 C 0.20503 0.07349 0.89352 0.0
C433 C 0.2267 0.06717 0.91284 0.0
C434 C 0.24514 0.03905 0.91254 0.0
H435 H 0.15198 0.99605 0.86167 0.0
C436 C 0.15723 1.00109 0.84202 0.0
H437 H 0.19507 0.00668 0.81553 0.0
H438 H 0.29549 0.93238 0.88444 0.0
H439 H 0.28828 0.89432 0.85024 0.0
H440 H 0.24735 0.90391 0.81738 0.0
H441 H 0.21343 0.95163 0.81844 0.0
C442 C 0.18836 0.00387 0.83511 0.0
C443 C 0.21471 0.99952 0.85388 0.0
C444 C 0.23447 0.97161 0.85286 0.0
C445 C 0.25784 0.9659 0.87195 0.0
C446 C 0.27715 0.93773 0.87056 0.0
C447 C 0.27332 0.91572 0.85101 0.0
C448 C 0.25029 0.92114 0.83249 0.0
C449 C 0.23099 0.94867 0.83332 0.0
H450 H 0.02901 0.30116 0.42033 0.0
C451 C 1.00376 0.30259 0.42582 0.0
H452 H 0.95861 0.27892 0.4242 0.0
H453 H 0.02772 0.21611 0.32326 0.0
H454 H 0.02361 0.2697 0.30519 0.0
H455 H 0.00551 0.31585 0.33086 0.0
H456 H 0.99181 0.30878 0.37486 0.0
C457 C 0.98326 0.27992 0.41735 0.0
C458 C 0.99458 0.25244 0.40165 0.0
C459 C 1.00187 0.25692 0.37585 0.0
C460 C 0.01129 0.2301 0.36083 0.0
C461 C 0.01945 0.23542 0.33532 0.0
C462 C 0.01738 0.2661 0.32475 0.0
C463 C 0.00727 0.29211 0.33922 0.0
C464 C 0.99957 0.28772 0.36448 0.0
H465 H 0.97747 0.17392 0.33464 0.0
C466 C 0.99902 0.1596 0.3382 0.0
H467 H 0.04204 0.15684 0.35969 0.0
H468 H 0.98396 0.23589 0.45078 0.0
H469 H 0.9877 0.18226 0.46878 0.0
H470 H 1.00268 0.13555 0.44252 0.0
H471 H 0.01413 0.14219 0.39813 0.0
C472 C 0.02006 0.17009 0.35564 0.0
C473 C 0.01256 0.19875 0.3715 0.0
C474 C 0.00597 0.19443 0.39743 0.0
C475 C 0.99696 0.22129 0.4125 0.0
C476 C 0.99056 0.21628 0.43837 0.0
C477 C 0.99268 0.18563 0.44898 0.0
C478 C 1.00115 0.15934 0.4342 0.0
C479 C 0.0077 0.16352 0.40873 0.0
H480 H 0.70157 0.99072 0.90926 0.0
C481 C 0.70576 0.01146 0.92134 0.0
H482 H 0.73927 0.0479 0.93101 0.0
H483 H 0.86104 0.98008 0.88526 0.0
H484 H 0.87005 0.97159 0.9298 0.0
H485 H 0.82781 0.98492 0.96077 0.0
H486 H 0.77622 0.00658 0.94736 0.0
C487 C 0.7329 0.02876 0.91803 0.0
C488 C 0.75762 0.01961 0.899 0.0
C489 C 0.78784 0.00739 0.90717 0.0
C490 C 0.8124 1.00019 0.88936 0.0
C491 C 0.84191 0.98693 0.89802 0.0
C492 C 0.84732 0.98168 0.92353 0.0
C493 C 0.82352 0.98914 0.94097 0.0
C494 C 0.79405 1.00171 0.933 0.0
H495 H 0.86143 0.03849 0.85931 0.0
C496 C 0.85963 0.02004 0.84483 0.0
H497 H 0.83037 0.98198 0.83096 0.0
H498 H 0.70264 0.0432 0.87692 0.0
H499 H 0.69333 0.05065 0.83231 0.0
H500 H 0.73572 0.03757 0.8014 0.0
H501 H 0.78778 0.0171 0.81494 0.0
C502 C 0.83338 1.00092 0.8448 0.0
C503 C 0.80693 0.00588 0.8634 0.0
C504 C 0.77635 0.01706 0.85514 0.0
C505 C 0.75173 0.0242 0.87297 0.0
C506 C 0.72193 0.03665 0.86423 0.0
C507 C 0.71631 0.04122 0.83865 0.0
C508 C 0.74019 0.03389 0.82125 0.0
C509 C 0.76996 0.0221 0.82928 0.0
H510 H 0.96887 0.7021 0.40406 0.0
C511 C 0.98649 0.70389 0.41917 0.0
H512 H 0.02454 0.73201 0.43417 0.0
H513 H 0.06172 0.80148 0.33263 0.0
H514 H 0.10738 0.76538 0.33768 0.0
H515 H 0.10731 0.72335 0.37051 0.0
H516 H 0.06162 0.71728 0.39863 0.0
C517 C 0.00715 0.72889 0.4191 0.0
C518 C 0.00652 0.75368 0.39881 0.0
C519 C 0.03323 0.75672 0.38236 0.0
C520 C 0.03307 0.78068 0.3632 0.0
C521 C 0.06036 0.78347 0.34731 0.0
C522 C 0.08677 0.76294 0.35003 0.0
C523 C 0.08675 0.73929 0.36853 0.0
C524 C 0.06038 0.7361 0.38456 0.0
H525 H 0.00727 0.86467 0.36723 0.0
C526 C 0.00715 0.85869 0.34731 0.0
H527 H 0.00835 0.81976 0.32141 0.0
H528 H 0.9529 0.75727 0.42905 0.0
H529 H 0.90628 0.79162 0.42281 0.0
H530 H 0.90396 0.82975 0.38725 0.0
H531 H 0.94862 0.83424 0.35809 0.0
C532 C 0.00661 0.82728 0.34087 0.0
C533 C 0.00612 0.80151 0.36044 0.0
C534 C 0.97904 0.79799 0.37654 0.0
C535 C 0.97963 0.77471 0.39619 0.0
C536 C 0.9532 0.77338 0.41306 0.0
C537 C 0.92633 0.79316 0.40983 0.0
C538 C 0.92508 0.81472 0.38988 0.0
C539 C 0.95103 0.81721 0.37337 0.0
loop_
_geom_bond_atom_site_label_1
_geom_bond_atom_site_label_2
_geom_bond_distance
_geom_bond_site_symmetry_2
_ccdc_geom_bond_type
H0 C27 0.929 . S
N1 C26 1.433 . S
N1 C32 1.435 1_554 S
N1 C38 1.423 1_554 S
H2 C28 0.930 . S
H3 C31 0.931 . S
H4 C30 0.929 . S
H5 C33 0.930 . S
H6 C34 0.932 . S
H7 C37 0.929 . S
H8 C36 0.931 . S
H9 C39 0.929 . S
H10 C43 0.932 1_565 S
H11 C40 0.931 . S
H12 C42 0.929 1_565 S
H13 C45 0.929 . S
H14 C46 0.930 . S
H15 C48 0.929 . S
H16 C49 0.931 . S
H17 C51 0.930 . S
H18 C52 0.932 . S
H19 C54 0.931 . S
H20 C55 0.929 . S
H21 C57 0.929 . S
H22 C58 0.931 . S
H23 C60 0.929 1_565 S
N24 C44 1.433 . S
N24 C50 1.435 1_554 S
N24 C56 1.423 1_554 S
H25 C61 0.932 1_565 S
C26 N1 1.433 . S
C26 C27 1.363 . S
C26 C31 1.370 1_545 S
C27 H0 0.929 . S
C27 C26 1.363 . S
C27 C28 1.385 . S
C28 H2 0.930 . S
C28 C27 1.385 . S
C28 C29 1.357 . S
C29 C28 1.357 . S
C29 C30 1.406 1_545 S
C30 H4 0.929 . S
C30 C29 1.406 1_565 S
C30 C31 1.391 . S
C31 H3 0.931 . S
C31 C26 1.370 1_565 S
C31 C30 1.391 . S
C32 N1 1.435 1_556 S
C32 C33 1.358 1_545 S
C32 C37 1.371 . S
C33 H5 0.930 . S
C33 C32 1.358 1_565 S
C33 C34 1.405 . S
C34 H6 0.932 . S
C34 C33 1.405 . S
C34 C35 1.383 1_565 S
C35 C34 1.383 1_545 S
C35 C36 1.393 . S
C36 H8 0.931 . S
C36 C35 1.393 . S
C36 C37 1.382 . S
C37 H7 0.929 . S
C37 C32 1.371 . S
C37 C36 1.382 . S
C38 N1 1.423 1_556 S
C38 C39 1.362 1_556 S
C38 C43 1.388 . S
C39 H9 0.929 . S
C39 C38 1.362 1_554 S
C39 C40 1.376 . S
C40 H11 0.931 . S
C40 C39 1.376 . S
C40 C41 1.396 1_554 S
C41 C40 1.396 1_556 S
C41 C42 1.348 . S
C41 C59 1.472 . S
C42 H12 0.929 1_545 S
C42 C41 1.348 . S
C42 C43 1.443 . S
C43 H10 0.932 1_545 S
C43 C38 1.388 . S
C43 C42 1.443 . S
C44 N24 1.433 . S
C44 C45 1.363 . S
C44 C49 1.370 1_545 S
C45 H13 0.929 . S
C45 C44 1.363 . S
C45 C46 1.385 . S
C46 H14 0.930 . S
C46 C45 1.385 . S
C46 C47 1.357 . S
C47 C46 1.357 . S
C47 C48 1.406 1_545 S
C48 H15 0.929 . S
C48 C47 1.406 1_565 S
C48 C49 1.391 . S
C49 H16 0.931 . S
C49 C44 1.370 1_565 S
C49 C48 1.391 . S
C50 N24 1.435 1_556 S
C50 C51 1.358 1_545 S
C50 C55 1.371 . S
C51 H17 0.930 . S
C51 C50 1.358 1_565 S
C51 C52 1.405 . S
C52 H18 0.932 . S
C52 C51 1.405 . S
C52 C53 1.383 1_565 S
C53 C52 1.383 1_545 S
C53 C54 1.393 . S
C54 H19 0.931 . S
C54 C53 1.393 . S
C54 C55 1.382 . S
C55 H20 0.929 . S
C55 C50 1.371 . S
C55 C54 1.382 . S
C56 N24 1.423 1_556 S
C56 C57 1.362 1_556 S
C56 C61 1.388 . S
C57 H21 0.929 . S
C57 C56 1.362 1_554 S
C57 C58 1.376 . S
C58 H22 0.931 . S
C58 C57 1.376 . S
C58 C59 1.396 1_554 S
C59 C41 1.472 . S
C59 C58 1.396 1_556 S
C59 C60 1.348 . S
C60 H23 0.929 1_545 S
C60 C59 1.348 . S
C60 C61 1.443 . S
C61 H25 0.932 1_545 S
C61 C56 1.388 . S
C61 C60 1.443 . S
H62 C89 0.929 . S
N63 C88 1.433 . S
N63 C94 1.435 . S
N63 C100 1.423 . S
H64 C90 0.930 . S
H65 C93 0.931 . S
H66 C92 0.929 . S
H67 C95 0.930 . S
H68 C96 0.932 . S
H69 C99 0.929 . S
H70 C98 0.931 . S
H71 C101 0.929 . S
H72 C105 0.932 1_455 S
H73 C102 0.931 . S
H74 C104 0.929 1_455 S
H75 C107 0.929 . S
H76 C108 0.930 . S
H77 C110 0.929 . S
H78 C111 0.931 . S
H79 C113 0.930 . S
H80 C114 0.932 . S
H81 C116 0.931 . S
H82 C117 0.929 . S
H83 C119 0.929 . S
H84 C120 0.931 . S
H85 C122 0.929 1_455 S
N86 C106 1.433 . S
N86 C112 1.435 . S
N86 C118 1.423 . S
H87 C123 0.932 1_455 S
C88 N63 1.433 . S
C88 C89 1.363 . S
C88 C93 1.370 1_655 S
C89 H62 0.929 . S
C89 C88 1.363 . S
C89 C90 1.385 . S
C90 H64 0.930 . S
C90 C89 1.385 . S
C90 C91 1.357 . S
C91 C90 1.357 . S
C91 C92 1.406 1_655 S
C92 H66 0.929 . S
C92 C91 1.406 1_455 S
C92 C93 1.391 . S
C93 H65 0.931 . S
C93 C88 1.370 1_455 S
C93 C92 1.391 . S
C94 N63 1.435 . S
C94 C95 1.358 1_655 S
C94 C99 1.371 . S
C95 H67 0.930 . S
C95 C94 1.358 1_455 S
C95 C96 1.405 . S
C96 H68 0.932 . S
C96 C95 1.405 . S
C96 C97 1.383 1_455 S
C97 C96 1.383 1_655 S
C97 C98 1.393 . S
C98 H70 0.931 . S
C98 C97 1.393 . S
C98 C99 1.382 . S
C99 H69 0.929 . S
C99 C94 1.371 . S
C99 C98 1.382 . S
C100 N63 1.423 . S
C100 C101 1.362 . S
C100 C105 1.388 . S
C101 H71 0.929 . S
C101 C100 1.362 . S
C101 C102 1.376 . S
C102 H73 0.931 . S
C102 C101 1.376 . S
C102 C103 1.396 . S
C103 C102 1.396 . S
C103 C104 1.348 . S
C103 C121 1.472 . S
C104 H74 0.929 1_655 S
C104 C103 1.348 . S
C104 C105 1.443 . S
C105 H72 0.932 1_655 S
C105 C100 1.388 . S
C105 C104 1.443 . S
C106 N86 1.433 . S
C106 C107 1.363 . S
C106 C111 1.370 1_655 S
C107 H75 0.929 . S
C107 C106 1.363 . S
C107 C108 1.385 . S
C108 H76 0.930 . S
C108 C107 1.385 . S
C108 C109 1.357 . S
C109 C108 1.357 . S
C109 C110 1.406 1_655 S
C110 H77 0.929 . S
C110 C109 1.406 1_455 S
C110 C111 1.391 . S
C111 H78 0.931 . S
C111 C106 1.370 1_455 S
C111 C110 1.391 . S
C112 N86 1.435 . S
C112 C113 1.358 1_655 S
C112 C117 1.371 . S
C113 H79 0.930 . S
C113 C112 1.358 1_455 S
C113 C114 1.405 . S
C114 H80 0.932 . S
C114 C113 1.405 . S
C114 C115 1.383 1_455 S
C115 C114 1.383 1_655 S
C115 C116 1.393 . S
C116 H81 0.931 . S
C116 C115 1.393 . S
C116 C117 1.382 . S
C117 H82 0.929 . S
C117 C112 1.371 . S
C117 C116 1.382 . S
C118 N86 1.423 . S
C118 C119 1.362 . S
C118 C123 1.388 . S
C119 H83 0.929 . S
C119 C118 1.362 . S
C119 C120 1.376 . S
C120 H84 0.931 . S
C120 C119 1.376 . S
C120 C121 1.396 . S
C121 C103 1.472 . S
C121 C120 1.396 . S
C121 C122 1.348 . S
C122 H85 0.929 1_655 S
C122 C121 1.348 . S
C122 C123 1.443 . S
C123 H87 0.932 1_655 S
C123 C118 1.388 . S
C123 C122 1.443 . S
Li124 N141 1.990 . S
Li124 O184 1.956 1_545 S
Li124 O185 1.970 1_455 S
Li124 O186 1.961 1_455 S
Li125 N149 1.990 . S
Li125 O184 1.970 1_655 S
Li125 O185 1.956 1_565 S
Li125 O187 1.961 1_655 S
Li126 N171 1.990 . S
Li126 O184 1.961 1_545 S
Li126 O186 1.956 1_455 S
Li126 O187 1.970 1_545 S
Li127 N177 1.990 . S
Li127 O185 1.961 1_565 S
Li127 O186 1.970 1_565 S
Li127 O187 1.956 1_655 S
C128 C130 1.348 1_545 S
C128 C131 1.356 . S
C128 O184 1.325 1_545 S
N129 C132 1.314 1_545 S
N129 C133 1.279 . S
C130 C128 1.348 1_565 S
C130 C132 1.353 . S
C130 H188 0.929 . S
C131 C128 1.356 . S
C131 C133 1.358 . S
C131 H189 0.930 . S
C132 N129 1.314 1_565 S
C132 C130 1.353 . S
C132 H190 0.930 . S
C133 N129 1.279 . S
C133 C131 1.358 . S
C133 H191 0.930 . S
C134 C137 1.348 . S
C134 C138 1.356 1_545 S
C134 O185 1.325 . S
C135 N136 1.279 . S
C135 C138 1.358 . S
C135 H192 0.930 . S
N136 C135 1.279 . S
N136 C139 1.314 1_565 S
C137 C134 1.348 . S
C137 C139 1.353 . S
C137 H193 0.929 . S
C138 C134 1.356 1_565 S
C138 C135 1.358 . S
C138 H194 0.930 . S
C139 N136 1.314 1_545 S
C139 C137 1.353 . S
C139 H195 0.930 . S
C140 N141 1.314 1_655 S
C140 C145 1.353 . S
C140 H146 0.930 . S
N141 Li124 1.990 . S
N141 C140 1.314 1_455 S
N141 C143 1.279 . S
C142 C143 1.358 . S
C142 C144 1.356 . S
C142 H196 0.930 . S
C143 N141 1.279 . S
C143 C142 1.358 . S
C143 H147 0.930 . S
C144 C142 1.356 . S
C144 C145 1.348 1_455 S
C145 C140 1.353 . S
C145 C144 1.348 1_655 S
C145 H197 0.929 . S
H146 C140 0.930 . S
H147 C143 0.930 . S
C148 N149 1.314 1_455 S
C148 C150 1.353 . S
C148 H154 0.930 . S
N149 Li125 1.990 . S
N149 C148 1.314 1_655 S
N149 C152 1.279 . S
C150 C148 1.353 . S
C150 C153 1.348 . S
C150 H198 0.929 . S
C151 C152 1.358 . S
C151 C153 1.356 1_655 S
C151 H199 0.930 . S
C152 N149 1.279 . S
C152 C151 1.358 . S
C152 H155 0.930 . S
C153 C150 1.348 . S
C153 C151 1.356 1_455 S
H154 C148 0.930 . S
H155 C152 0.930 . S
C156 C158 1.348 1_455 S
C156 C159 1.356 . S
C156 O186 1.325 1_455 S
N157 C160 1.314 1_455 S
N157 C161 1.279 . S
C158 C156 1.348 1_655 S
C158 C160 1.353 . S
C158 H200 0.929 . S
C159 C156 1.356 . S
C159 C161 1.358 . S
C159 H201 0.930 . S
C160 N157 1.314 1_655 S
C160 C158 1.353 . S
C160 H202 0.930 . S
C161 N157 1.279 . S
C161 C159 1.358 . S
C161 H203 0.930 . S
C162 C163 1.348 . S
C162 C164 1.356 1_455 S
C162 O187 1.325 . S
C163 C162 1.348 . S
C163 C165 1.353 . S
C163 H204 0.929 . S
C164 C162 1.356 1_655 S
C164 C166 1.358 . S
C164 H205 0.930 . S
C165 C163 1.353 . S
C165 N167 1.314 1_455 S
C165 H206 0.930 . S
C166 C164 1.358 . S
C166 N167 1.279 . S
C166 H207 0.930 . S
N167 C165 1.314 1_655 S
N167 C166 1.279 . S
C168 C170 1.353 . S
C168 N171 1.314 1_565 S
C168 H174 0.930 . S
C169 N171 1.279 . S
C169 C172 1.358 . S
C169 H175 0.930 . S
C170 C168 1.353 . S
C170 C173 1.348 1_565 S
C170 H208 0.929 . S
N171 Li126 1.990 . S
N171 C168 1.314 1_545 S
N171 C169 1.279 . S
C172 C169 1.358 . S
C172 C173 1.356 . S
C172 H209 0.930 . S
C173 C170 1.348 1_545 S
C173 C172 1.356 . S
H174 C168 0.930 . S
H175 C169 0.930 . S
C176 N177 1.314 1_545 S
C176 C178 1.353 . S
C176 H182 0.930 . S
N177 Li127 1.990 . S
N177 C176 1.314 1_565 S
N177 C180 1.279 . S
C178 C176 1.353 . S
C178 C181 1.348 . S
C178 H210 0.929 . S
C179 C180 1.358 . S
C179 C181 1.356 1_565 S
C179 H211 0.930 . S
C180 N177 1.279 . S
C180 C179 1.358 . S
C180 H183 0.930 . S
C181 C178 1.348 . S
C181 C179 1.356 1_545 S
H182 C176 0.930 . S
H183 C180 0.930 . S
O184 Li124 1.956 1_565 S
O184 Li125 1.970 1_455 S
O184 Li126 1.961 1_565 S
O184 C128 1.325 1_565 S
O185 Li124 1.970 1_655 S
O185 Li125 1.956 1_545 S
O185 Li127 1.961 1_545 S
O185 C134 1.325 . S
O186 Li124 1.961 1_655 S
O186 Li126 1.956 1_655 S
O186 Li127 1.970 1_545 S
O186 C156 1.325 1_655 S
O187 Li125 1.961 1_455 S
O187 Li126 1.970 1_565 S
O187 Li127 1.956 1_455 S
O187 C162 1.325 . S
H188 C130 0.929 . S
H189 C131 0.930 . S
H190 C132 0.930 . S
H191 C133 0.930 . S
H192 C135 0.930 . S
H193 C137 0.929 . S
H194 C138 0.930 . S
H195 C139 0.930 . S
H196 C142 0.930 . S
H197 C145 0.929 . S
H198 C150 0.929 . S
H199 C151 0.930 . S
H200 C158 0.929 . S
H201 C159 0.930 . S
H202 C160 0.930 . S
H203 C161 0.930 . S
H204 C163 0.929 . S
H205 C164 0.930 . S
H206 C165 0.930 . S
H207 C166 0.930 . S
H208 C170 0.929 . S
H209 C172 0.930 . S
H210 C178 0.929 . S
H211 C179 0.930 . S
Li212 N229 1.990 . S
Li212 O272 1.956 1_655 S
Li212 O273 1.970 1_545 S
Li212 O274 1.961 1_545 S
Li213 N237 1.990 . S
Li213 O272 1.970 1_565 S
Li213 O273 1.956 1_455 S
Li213 O275 1.961 1_565 S
Li214 N259 1.990 . S
Li214 O272 1.961 1_655 S
Li214 O274 1.956 1_545 S
Li214 O275 1.970 1_655 S
Li215 N265 1.990 . S
Li215 O273 1.961 1_455 S
Li215 O274 1.970 1_455 S
Li215 O275 1.956 1_565 S
C216 C218 1.348 . S
C216 C219 1.356 1_455 S
C216 O272 1.325 . S
N217 C220 1.314 1_655 S
N217 C221 1.279 . S
C218 C216 1.348 . S
C218 C220 1.353 . S
C218 H276 0.929 . S
C219 C216 1.356 1_655 S
C219 C221 1.358 . S
C219 H277 0.930 . S
C220 N217 1.314 1_455 S
C220 C218 1.353 . S
C220 H278 0.930 . S
C221 N217 1.279 . S
C221 C219 1.358 . S
C221 H279 0.930 . S
C222 C225 1.348 1_455 S
C222 C226 1.356 . S
C222 O273 1.325 1_455 S
C223 N224 1.279 . S
C223 C226 1.358 . S
C223 H280 0.930 . S
N224 C223 1.279 . S
N224 C227 1.314 1_455 S
C225 C222 1.348 1_655 S
C225 C227 1.353 . S
C225 H281 0.929 . S
C226 C222 1.356 . S
C226 C223 1.358 . S
C226 H282 0.930 . S
C227 N224 1.314 1_655 S
C227 C225 1.353 . S
C227 H283 0.930 . S
C228 N229 1.314 1_565 S
C228 C233 1.353 . S
C228 H234 0.930 . S
N229 Li212 1.990 . S
N229 C228 1.314 1_545 S
N229 C231 1.279 . S
C230 C231 1.358 . S
C230 C232 1.356 . S
C230 H284 0.930 . S
C231 N229 1.279 . S
C231 C230 1.358 . S
C231 H235 0.930 . S
C232 C230 1.356 . S
C232 C233 1.348 1_545 S
C233 C228 1.353 . S
C233 C232 1.348 1_565 S
C233 H285 0.929 . S
H234 C228 0.930 . S
H235 C231 0.930 . S
C236 N237 1.314 1_545 S
C236 C238 1.353 . S
C236 H242 0.930 . S
N237 Li213 1.990 . S
N237 C236 1.314 1_565 S
N237 C240 1.279 . S
C238 C236 1.353 . S
C238 C241 1.348 . S
C238 H286 0.929 . S
C239 C240 1.358 . S
C239 C241 1.356 1_565 S
C239 H287 0.930 . S
C240 N237 1.279 . S
C240 C239 1.358 . S
C240 H243 0.930 . S
C241 C238 1.348 . S
C241 C239 1.356 1_545 S
H242 C236 0.930 . S
H243 C240 0.930 . S
C244 C246 1.348 1_545 S
C244 C247 1.356 . S
C244 O274 1.325 1_545 S
N245 C248 1.314 1_545 S
N245 C249 1.279 . S
C246 C244 1.348 1_565 S
C246 C248 1.353 . S
C246 H288 0.929 . S
C247 C244 1.356 . S
C247 C249 1.358 . S
C247 H289 0.930 . S
C248 N245 1.314 1_565 S
C248 C246 1.353 . S
C248 H290 0.930 . S
C249 N245 1.279 . S
C249 C247 1.358 . S
C249 H291 0.930 . S
C250 C251 1.348 . S
C250 C252 1.356 1_545 S
C250 O275 1.325 . S
C251 C250 1.348 . S
C251 C253 1.353 . S
C251 H292 0.929 . S
C252 C250 1.356 1_565 S
C252 C254 1.358 . S
C252 H293 0.930 . S
C253 C251 1.353 . S
C253 N255 1.314 1_545 S
C253 H294 0.930 . S
C254 C252 1.358 . S
C254 N255 1.279 . S
C254 H295 0.930 . S
N255 C253 1.314 1_565 S
N255 C254 1.279 . S
C256 C258 1.353 . S
C256 N259 1.314 1_455 S
C256 H262 0.930 . S
C257 N259 1.279 . S
C257 C260 1.358 . S
C257 H263 0.930 . S
C258 C256 1.353 . S
C258 C261 1.348 . S
C258 H296 0.929 . S
N259 Li214 1.990 . S
N259 C256 1.314 1_655 S
N259 C257 1.279 . S
C260 C257 1.358 . S
C260 C261 1.356 1_655 S
C260 H297 0.930 . S
C261 C258 1.348 . S
C261 C260 1.356 1_455 S
H262 C256 0.930 . S
H263 C257 0.930 . S
C264 N265 1.314 1_655 S
C264 C266 1.353 . S
C264 H270 0.930 . S
N265 Li215 1.990 . S
N265 C264 1.314 1_455 S
N265 C268 1.279 . S
C266 C264 1.353 . S
C266 C269 1.348 1_655 S
C266 H298 0.929 . S
C267 C268 1.358 . S
C267 C269 1.356 . S
C267 H299 0.930 . S
C268 N265 1.279 . S
C268 C267 1.358 . S
C268 H271 0.930 . S
C269 C266 1.348 1_455 S
C269 C267 1.356 . S
H270 C264 0.930 . S
H271 C268 0.930 . S
O272 Li212 1.956 1_455 S
O272 Li213 1.970 1_545 S
O272 Li214 1.961 1_455 S
O272 C216 1.325 . S
O273 Li212 1.970 1_565 S
O273 Li213 1.956 1_655 S
O273 Li215 1.961 1_655 S
O273 C222 1.325 1_655 S
O274 Li212 1.961 1_565 S
O274 Li214 1.956 1_565 S
O274 Li215 1.970 1_655 S
O274 C244 1.325 1_565 S
O275 Li213 1.961 1_545 S
O275 Li214 1.970 1_455 S
O275 Li215 1.956 1_545 S
O275 C250 1.325 . S
H276 C218 0.929 . S
H277 C219 0.930 . S
H278 C220 0.930 . S
H279 C221 0.930 . S
H280 C223 0.930 . S
H281 C225 0.929 . S
H282 C226 0.930 . S
H283 C227 0.930 . S
H284 C230 0.930 . S
H285 C233 0.929 . S
H286 C238 0.929 . S
H287 C239 0.930 . S
H288 C246 0.929 . S
H289 C247 0.930 . S
H290 C248 0.930 . S
H291 C249 0.930 . S
H292 C251 0.929 . S
H293 C252 0.930 . S
H294 C253 0.930 . S
H295 C254 0.930 . S
H296 C258 0.929 . S
H297 C260 0.930 . S
H298 C266 0.929 . S
H299 C267 0.930 . S
H300 C301 0.950 . S
C301 H300 0.950 . S
C301 C307 1.265 . S
H302 C307 0.950 . S
H303 C311 0.949 . S
H304 C312 0.950 . S
H305 C313 0.951 . S
H306 C314 0.951 . S
C307 C301 1.265 . S
C307 H302 0.950 . S
C307 C308 1.478 1_545 S
C308 C307 1.478 1_565 S
C308 C309 1.395 1_565 S
C308 C325 1.396 . S
C309 C308 1.395 1_545 S
C309 C310 1.438 . S
C309 C314 1.429 . S
C310 C309 1.438 . S
C310 C311 1.428 . S
C310 C323 1.386 1_545 S
C311 H303 0.949 . S
C311 C310 1.428 . S
C311 C312 1.345 . S
C312 H304 0.950 . S
C312 C311 1.345 . S
C312 C313 1.424 . S
C313 H305 0.951 . S
C313 C312 1.424 . S
C313 C314 1.347 . S
C314 H306 0.951 . S
C314 C309 1.429 . S
C314 C313 1.347 . S
H315 C316 0.952 . S
C316 H315 0.952 . S
C316 C322 1.265 . S
H317 C322 0.950 . S
H318 C326 0.949 . S
H319 C327 0.950 . S
H320 C328 0.951 . S
H321 C329 0.951 . S
C322 C316 1.265 . S
C322 H317 0.950 . S
C322 C323 1.478 . S
C323 C310 1.386 1_565 S
C323 C322 1.478 . S
C323 C324 1.405 . S
C324 C323 1.405 . S
C324 C325 1.438 . S
C324 C329 1.429 . S
C325 C308 1.396 . S
C325 C324 1.438 . S
C325 C326 1.428 . S
C326 H318 0.949 . S
C326 C325 1.428 . S
C326 C327 1.345 . S
C327 H319 0.950 . S
C327 C326 1.345 . S
C327 C328 1.424 . S
C328 H320 0.951 . S
C328 C327 1.424 . S
C328 C329 1.347 . S
C329 H321 0.951 . S
C329 C324 1.429 . S
C329 C328 1.347 . S
H330 C331 0.951 . S
C331 H330 0.951 . S
C331 C337 1.265 1_655 S
H332 C337 0.950 . S
H333 C341 0.949 . S
H334 C342 0.950 . S
H335 C343 0.951 . S
H336 C344 0.951 . S
C337 C331 1.265 1_455 S
C337 H332 0.950 . S
C337 C338 1.478 . S
C338 C337 1.478 . S
C338 C339 1.397 . S
C338 C355 1.394 1_455 S
C339 C338 1.397 . S
C339 C340 1.438 . S
C339 C344 1.429 . S
C340 C339 1.438 . S
C340 C341 1.428 . S
C340 C353 1.394 1_455 S
C341 H333 0.949 . S
C341 C340 1.428 . S
C341 C342 1.345 . S
C342 H334 0.950 . S
C342 C341 1.345 . S
C342 C343 1.424 . S
C343 H335 0.951 . S
C343 C342 1.424 . S
C343 C344 1.347 . S
C344 H336 0.951 . S
C344 C339 1.429 . S
C344 C343 1.347 . S
H345 C346 0.951 . S
C346 H345 0.951 . S
C346 C352 1.265 1_455 S
H347 C352 0.950 . S
H348 C356 0.949 . S
H349 C357 0.950 . S
H350 C358 0.951 . S
H351 C359 0.951 . S
C352 C346 1.265 1_655 S
C352 H347 0.950 . S
C352 C353 1.478 . S
C353 C340 1.394 1_655 S
C353 C352 1.478 . S
C353 C354 1.397 . S
C354 C353 1.397 . S
C354 C355 1.438 . S
C354 C359 1.429 . S
C355 C338 1.394 1_655 S
C355 C354 1.438 . S
C355 C356 1.428 . S
C356 H348 0.949 . S
C356 C355 1.428 . S
C356 C357 1.345 . S
C357 H349 0.950 . S
C357 C356 1.345 . S
C357 C358 1.424 . S
C358 H350 0.951 . S
C358 C357 1.424 . S
C358 C359 1.347 . S
C359 H351 0.951 . S
C359 C354 1.429 . S
C359 C358 1.347 . S
H360 C361 0.952 . S
C361 H360 0.952 . S
C361 C367 1.264 1_545 S
H362 C367 0.950 . S
H363 C371 0.949 . S
H364 C372 0.950 . S
H365 C373 0.951 . S
H366 C374 0.951 . S
C367 C361 1.264 1_565 S
C367 H362 0.950 . S
C367 C368 1.479 . S
C368 C367 1.479 . S
C368 C369 1.408 . S
C368 C385 1.382 1_565 S
C369 C368 1.408 . S
C369 C370 1.438 . S
C369 C374 1.429 . S
C370 C369 1.438 . S
C370 C371 1.428 . S
C370 C383 1.394 1_565 S
C371 H363 0.949 . S
C371 C370 1.428 . S
C371 C372 1.345 . S
C372 H364 0.950 . S
C372 C371 1.345 . S
C372 C373 1.424 . S
C373 H365 0.951 . S
C373 C372 1.424 . S
C373 C374 1.347 . S
C374 H366 0.951 . S
C374 C369 1.429 . S
C374 C373 1.347 . S
H375 C376 0.949 1_565 S
C376 H375 0.949 1_545 S
C376 C382 1.267 . S
H377 C382 0.950 . S
H378 C386 0.949 . S
H379 C387 0.950 . S
H380 C388 0.951 . S
H381 C389 0.951 . S
C382 C376 1.267 . S
C382 H377 0.950 . S
C382 C383 1.478 . S
C383 C370 1.394 1_545 S
C383 C382 1.478 . S
C383 C384 1.397 . S
C384 C383 1.397 . S
C384 C385 1.438 . S
C384 C389 1.429 . S
C385 C368 1.382 1_545 S
C385 C384 1.438 . S
C385 C386 1.428 . S
C386 H378 0.949 . S
C386 C385 1.428 . S
C386 C387 1.345 . S
C387 H379 0.950 . S
C387 C386 1.345 . S
C387 C388 1.424 . S
C388 H380 0.951 . S
C388 C387 1.424 . S
C388 C389 1.347 . S
C389 H381 0.951 . S
C389 C384 1.429 . S
C389 C388 1.347 . S
H390 C391 0.951 . S
C391 H390 0.951 . S
C391 C397 1.265 1_455 S
H392 C397 0.950 . S
H393 C401 0.949 . S
H394 C402 0.950 . S
H395 C403 0.951 . S
H396 C404 0.951 . S
C397 C391 1.265 1_655 S
C397 H392 0.950 . S
C397 C398 1.478 . S
C398 C397 1.478 . S
C398 C399 1.397 . S
C398 C415 1.394 1_655 S
C399 C398 1.397 . S
C399 C400 1.438 . S
C399 C404 1.429 . S
C400 C399 1.438 . S
C400 C401 1.428 . S
C400 C413 1.394 1_655 S
C401 H393 0.949 . S
C401 C400 1.428 . S
C401 C402 1.345 . S
C402 H394 0.950 . S
C402 C401 1.345 . S
C402 C403 1.424 . S
C403 H395 0.951 . S
C403 C402 1.424 . S
C403 C404 1.347 . S
C404 H396 0.951 . S
C404 C399 1.429 . S
C404 C403 1.347 . S
H405 C406 0.951 . S
C406 H405 0.951 . S
C406 C412 1.265 1_655 S
H407 C412 0.950 . S
H408 C416 0.949 . S
H409 C417 0.950 . S
H410 C418 0.951 . S
H411 C419 0.951 . S
C412 C406 1.265 1_455 S
C412 H407 0.950 . S
C412 C413 1.478 . S
C413 C400 1.394 1_455 S
C413 C412 1.478 . S
C413 C414 1.397 . S
C414 C413 1.397 . S
C414 C415 1.438 . S
C414 C419 1.429 . S
C415 C398 1.394 1_455 S
C415 C414 1.438 . S
C415 C416 1.428 . S
C416 H408 0.949 . S
C416 C415 1.428 . S
C416 C417 1.345 . S
C417 H409 0.950 . S
C417 C416 1.345 . S
C417 C418 1.424 . S
C418 H410 0.951 . S
C418 C417 1.424 . S
C418 C419 1.347 . S
C419 H411 0.951 . S
C419 C414 1.429 . S
C419 C418 1.347 . S
H420 C421 0.950 1_565 S
C421 H420 0.950 1_545 S
C421 C427 1.265 . S
H422 C427 0.950 . S
H423 C431 0.949 . S
H424 C432 0.950 . S
H425 C433 0.951 . S
H426 C434 0.951 . S
C427 C421 1.265 . S
C427 H422 0.950 . S
C427 C428 1.479 . S
C428 C427 1.479 . S
C428 C429 1.421 . S
C428 C445 1.369 1_545 S
C429 C428 1.421 . S
C429 C430 1.438 . S
C429 C434 1.429 . S
C430 C429 1.438 . S
C430 C431 1.428 . S
C430 C443 1.393 . S
C431 H423 0.949 . S
C431 C430 1.428 . S
C431 C432 1.345 . S
C432 H424 0.950 . S
C432 C431 1.345 . S
C432 C433 1.424 . S
C433 H425 0.951 . S
C433 C432 1.424 . S
C433 C434 1.347 . S
C434 H426 0.951 . S
C434 C429 1.429 . S
C434 C433 1.347 . S
H435 C436 0.952 . S
C436 H435 0.952 . S
C436 C442 1.264 1_545 S
H437 C442 0.951 . S
H438 C446 0.949 . S
H439 C447 0.950 . S
H440 C448 0.951 . S
H441 C449 0.951 . S
C442 C436 1.264 1_565 S
C442 H437 0.951 . S
C442 C443 1.478 1_565 S
C443 C430 1.393 . S
C443 C442 1.478 1_545 S
C443 C444 1.397 1_545 S
C444 C443 1.397 1_565 S
C444 C445 1.438 . S
C444 C449 1.429 . S
C445 C428 1.369 1_565 S
C445 C444 1.438 . S
C445 C446 1.428 . S
C446 H438 0.949 . S
C446 C445 1.428 . S
C446 C447 1.345 . S
C447 H439 0.950 . S
C447 C446 1.345 . S
C447 C448 1.424 . S
C448 H440 0.951 . S
C448 C447 1.424 . S
C448 C449 1.347 . S
C449 H441 0.951 . S
C449 C444 1.429 . S
C449 C448 1.347 . S
H450 C451 0.951 . S
C451 H450 0.951 . S
C451 C457 1.265 1_455 S
H452 C457 0.950 . S
H453 C461 0.949 . S
H454 C462 0.950 . S
H455 C463 0.951 . S
H456 C464 0.951 . S
C457 C451 1.265 1_655 S
C457 H452 0.950 . S
C457 C458 1.478 . S
C458 C457 1.478 . S
C458 C459 1.397 . S
C458 C475 1.394 1_655 S
C459 C458 1.397 . S
C459 C460 1.438 . S
C459 C464 1.429 . S
C460 C459 1.438 . S
C460 C461 1.428 . S
C460 C473 1.394 1_655 S
C461 H453 0.949 . S
C461 C460 1.428 . S
C461 C462 1.345 . S
C462 H454 0.950 . S
C462 C461 1.345 . S
C462 C463 1.424 . S
C463 H455 0.951 . S
C463 C462 1.424 . S
C463 C464 1.347 . S
C464 H456 0.951 . S
C464 C459 1.429 . S
C464 C463 1.347 . S
H465 C466 0.951 . S
C466 H465 0.951 . S
C466 C472 1.265 1_655 S
H467 C472 0.950 . S
H468 C476 0.949 . S
H469 C477 0.950 . S
H470 C478 0.951 . S
H471 C479 0.951 . S
C472 C466 1.265 1_455 S
C472 H467 0.950 . S
C472 C473 1.478 . S
C473 C460 1.394 1_455 S
C473 C472 1.478 . S
C473 C474 1.397 . S
C474 C473 1.397 . S
C474 C475 1.438 . S
C474 C479 1.429 . S
C475 C458 1.394 1_455 S
C475 C474 1.438 . S
C475 C476 1.428 . S
C476 H468 0.949 . S
C476 C475 1.428 . S
C476 C477 1.345 . S
C477 H469 0.950 . S
C477 C476 1.345 . S
C477 C478 1.424 . S
C478 H470 0.951 . S
C478 C477 1.424 . S
C478 C479 1.347 . S
C479 H471 0.951 . S
C479 C474 1.429 . S
C479 C478 1.347 . S
H480 C481 0.951 . S
C481 H480 0.951 . S
C481 C487 1.265 1_565 S
H482 C487 0.950 . S
H483 C491 0.949 . S
H484 C492 0.950 . S
H485 C493 0.951 . S
H486 C494 0.951 . S
C487 C481 1.265 1_545 S
C487 H482 0.950 . S
C487 C488 1.478 . S
C488 C487 1.478 . S
C488 C489 1.397 . S
C488 C505 1.394 1_545 S
C489 C488 1.397 . S
C489 C490 1.438 . S
C489 C494 1.429 . S
C490 C489 1.438 . S
C490 C491 1.428 . S
C490 C503 1.394 1_545 S
C491 H483 0.949 . S
C491 C490 1.428 . S
C491 C492 1.345 . S
C492 H484 0.950 . S
C492 C491 1.345 . S
C492 C493 1.424 . S
C493 H485 0.951 . S
C493 C492 1.424 . S
C493 C494 1.347 . S
C494 H486 0.951 . S
C494 C489 1.429 . S
C494 C493 1.347 . S
H495 C496 0.951 . S
C496 H495 0.951 . S
C496 C502 1.265 1_545 S
H497 C502 0.950 . S
H498 C506 0.949 . S
H499 C507 0.950 . S
H500 C508 0.951 . S
H501 C509 0.951 . S
C502 C496 1.265 1_565 S
C502 H497 0.950 . S
C502 C503 1.478 . S
C503 C490 1.394 1_565 S
C503 C502 1.478 . S
C503 C504 1.397 . S
C504 C503 1.397 . S
C504 C505 1.438 . S
C504 C509 1.429 . S
C505 C488 1.394 1_565 S
C505 C504 1.438 . S
C505 C506 1.428 . S
C506 H498 0.949 . S
C506 C505 1.428 . S
C506 C507 1.345 . S
C507 H499 0.950 . S
C507 C506 1.345 . S
C507 C508 1.424 . S
C508 H500 0.951 . S
C508 C507 1.424 . S
C508 C509 1.347 . S
C509 H501 0.951 . S
C509 C504 1.429 . S
C509 C508 1.347 . S
H510 C511 0.951 . S
C511 H510 0.951 . S
C511 C517 1.265 1_655 S
H512 C517 0.950 . S
H513 C521 0.949 . S
H514 C522 0.950 . S
H515 C523 0.951 . S
H516 C524 0.951 . S
C517 C511 1.265 1_455 S
C517 H512 0.950 . S
C517 C518 1.478 . S
C518 C517 1.478 . S
C518 C519 1.397 . S
C518 C535 1.394 1_455 S
C519 C518 1.397 . S
C519 C520 1.438 . S
C519 C524 1.429 . S
C520 C519 1.438 . S
C520 C521 1.428 . S
C520 C533 1.394 1_455 S
C521 H513 0.949 . S
C521 C520 1.428 . S
C521 C522 1.345 . S
C522 H514 0.950 . S
C522 C521 1.345 . S
C522 C523 1.424 . S
C523 H515 0.951 . S
C523 C522 1.424 . S
C523 C524 1.347 . S
C524 H516 0.951 . S
C524 C519 1.429 . S
C524 C523 1.347 . S
H525 C526 0.951 . S
C526 H525 0.951 . S
C526 C532 1.265 1_455 S
H527 C532 0.950 . S
H528 C536 0.949 . S
H529 C537 0.950 . S
H530 C538 0.951 . S
H531 C539 0.951 . S
C532 C526 1.265 1_655 S
C532 H527 0.950 . S
C532 C533 1.478 . S
C533 C520 1.394 1_655 S
C533 C532 1.478 . S
C533 C534 1.397 . S
C534 C533 1.397 . S
C534 C535 1.438 . S
C534 C539 1.429 . S
C535 C518 1.394 1_655 S
C535 C534 1.438 . S
C535 C536 1.428 . S
C536 H528 0.949 . S
C536 C535 1.428 . S
C536 C537 1.345 . S
C537 H529 0.950 . S
C537 C536 1.345 . S
C537 C538 1.424 . S
C538 H530 0.951 . S
C538 C537 1.424 . S
C538 C539 1.347 . S
C539 H531 0.951 . S
C539 C534 1.429 . S
C539 C538 1.347 . S
C316 C173 1.743 1_565 S
C301 C47 1.569 . S
C346 C261 1.754 . S
C331 C109 1.605 . S
C376 C181 1.743 . S
C361 C29 1.575 . S
C406 C269 1.756 1_655 S
C391 C91 1.650 1_455 S
C436 C241 1.364 . S
C421 C53 1.376 . S
C466 C144 1.370 1_655 S
C451 C115 1.357 1_455 S
C496 C232 1.362 . S
C481 C35 1.361 1_565 S
C511 C97 1.372 . S
C526 C153 1.369 . S
