# Generated by pormake.
# Topology eea, (3,6)-cn, num edge types: 1
# Building blocks:
#     Node 0, Type 0, BuildingBlock: ESEHIV_clean_linker_0, # of connection points: 3
#     Node 1, Type 0, BuildingBlock: ESEHIV_clean_linker_0, # of connection points: 3
#     Node 2, Type 0, BuildingBlock: ESEHIV_clean_linker_0, # of connection points: 3
#     Node 3, Type 0, BuildingBlock: ESEHIV_clean_linker_0, # of connection points: 3
#     Node 4, Type 0, BuildingBlock: ESEHIV_clean_linker_0, # of connection points: 3
#     Node 5, Type 0, BuildingBlock: ESEHIV_clean_linker_0, # of connection points: 3
#     Node 6, Type 0, BuildingBlock: ESEHIV_clean_linker_0, # of connection points: 3
#     Node 7, Type 0, BuildingBlock: ESEHIV_clean_linker_0, # of connection points: 3
#     Node 8, Type 0, BuildingBlock: ESEHIV_clean_linker_0, # of connection points: 3
#     Node 9, Type 0, BuildingBlock: ESEHIV_clean_linker_0, # of connection points: 3
#     Node 10, Type 0, BuildingBlock: ESEHIV_clean_linker_0, # of connection points: 3
#     Node 11, Type 0, BuildingBlock: ESEHIV_clean_linker_0, # of connection points: 3
#     Node 12, Type 0, BuildingBlock: ESEHIV_clean_linker_0, # of connection points: 3
#     Node 13, Type 0, BuildingBlock: ESEHIV_clean_linker_0, # of connection points: 3
#     Node 14, Type 0, BuildingBlock: ESEHIV_clean_linker_0, # of connection points: 3
#     Node 15, Type 0, BuildingBlock: ESEHIV_clean_linker_0, # of connection points: 3
#     Node 16, Type 0, BuildingBlock: ESEHIV_clean_linker_0, # of connection points: 3
#     Node 17, Type 0, BuildingBlock: ESEHIV_clean_linker_0, # of connection points: 3
#     Node 18, Type 1, BuildingBlock: KUMBUR_clean_sbu_0, # of connection points: 6
#     Node 19, Type 1, BuildingBlock: KUMBUR_clean_sbu_0, # of connection points: 6
#     Node 20, Type 1, BuildingBlock: KUMBUR_clean_sbu_0, # of connection points: 6
#     Node 21, Type 1, BuildingBlock: KUMBUR_clean_sbu_0, # of connection points: 6
#     Node 22, Type 1, BuildingBlock: KUMBUR_clean_sbu_0, # of connection points: 6
#     Node 23, Type 1, BuildingBlock: KUMBUR_clean_sbu_0, # of connection points: 6
#     Node 24, Type 1, BuildingBlock: KUMBUR_clean_sbu_0, # of connection points: 6
#     Node 25, Type 1, BuildingBlock: KUMBUR_clean_sbu_0, # of connection points: 6
#     Node 26, Type 1, BuildingBlock: KUMBUR_clean_sbu_0, # of connection points: 6
#     Edge 27, Type (0, 1), BuildingBlock: ZUJKAS_clean_linker_0, # of connection points: 2
#     Edge 28, Type (0, 1), BuildingBlock: ZUJKAS_clean_linker_0, # of connection points: 2
#     Edge 29, Type (0, 1), BuildingBlock: ZUJKAS_clean_linker_0, # of connection points: 2
#     Edge 30, Type (0, 1), BuildingBlock: ZUJKAS_clean_linker_0, # of connection points: 2
#     Edge 31, Type (0, 1), BuildingBlock: ZUJKAS_clean_linker_0, # of connection points: 2
#     Edge 32, Type (0, 1), BuildingBlock: ZUJKAS_clean_linker_0, # of connection points: 2
#     Edge 33, Type (0, 1), BuildingBlock: ZUJKAS_clean_linker_0, # of connection points: 2
#     Edge 34, Type (0, 1), BuildingBlock: ZUJKAS_clean_linker_0, # of connection points: 2
#     Edge 35, Type (0, 1), BuildingBlock: ZUJKAS_clean_linker_0, # of connection points: 2
#     Edge 36, Type (0, 1), BuildingBlock: ZUJKAS_clean_linker_0, # of connection points: 2
#     Edge 37, Type (0, 1), BuildingBlock: ZUJKAS_clean_linker_0, # of connection points: 2
#     Edge 38, Type (0, 1), BuildingBlock: ZUJKAS_clean_linker_0, # of connection points: 2
#     Edge 39, Type (0, 1), BuildingBlock: ZUJKAS_clean_linker_0, # of connection points: 2
#     Edge 40, Type (0, 1), BuildingBlock: ZUJKAS_clean_linker_0, # of connection points: 2
#     Edge 41, Type (0, 1), BuildingBlock: ZUJKAS_clean_linker_0, # of connection points: 2
#     Edge 42, Type (0, 1), BuildingBlock: ZUJKAS_clean_linker_0, # of connection points: 2
#     Edge 43, Type (0, 1), BuildingBlock: ZUJKAS_clean_linker_0, # of connection points: 2
#     Edge 44, Type (0, 1), BuildingBlock: ZUJKAS_clean_linker_0, # of connection points: 2
#     Edge 45, Type (0, 1), BuildingBlock: ZUJKAS_clean_linker_0, # of connection points: 2
#     Edge 46, Type (0, 1), BuildingBlock: ZUJKAS_clean_linker_0, # of connection points: 2
#     Edge 47, Type (0, 1), BuildingBlock: ZUJKAS_clean_linker_0, # of connection points: 2
#     Edge 48, Type (0, 1), BuildingBlock: ZUJKAS_clean_linker_0, # of connection points: 2
#     Edge 49, Type (0, 1), BuildingBlock: ZUJKAS_clean_linker_0, # of connection points: 2
#     Edge 50, Type (0, 1), BuildingBlock: ZUJKAS_clean_linker_0, # of connection points: 2
#     Edge 51, Type (0, 1), BuildingBlock: ZUJKAS_clean_linker_0, # of connection points: 2
#     Edge 52, Type (0, 1), BuildingBlock: ZUJKAS_clean_linker_0, # of connection points: 2
#     Edge 53, Type (0, 1), BuildingBlock: ZUJKAS_clean_linker_0, # of connection points: 2
#     Edge 54, Type (0, 1), BuildingBlock: ZUJKAS_clean_linker_0, # of connection points: 2
#     Edge 55, Type (0, 1), BuildingBlock: ZUJKAS_clean_linker_0, # of connection points: 2
#     Edge 56, Type (0, 1), BuildingBlock: ZUJKAS_clean_linker_0, # of connection points: 2
#     Edge 57, Type (0, 1), BuildingBlock: ZUJKAS_clean_linker_0, # of connection points: 2
#     Edge 58, Type (0, 1), BuildingBlock: ZUJKAS_clean_linker_0, # of connection points: 2
#     Edge 59, Type (0, 1), BuildingBlock: ZUJKAS_clean_linker_0, # of connection points: 2
#     Edge 60, Type (0, 1), BuildingBlock: ZUJKAS_clean_linker_0, # of connection points: 2
#     Edge 61, Type (0, 1), BuildingBlock: ZUJKAS_clean_linker_0, # of connection points: 2
#     Edge 62, Type (0, 1), BuildingBlock: ZUJKAS_clean_linker_0, # of connection points: 2
#     Edge 63, Type (0, 1), BuildingBlock: ZUJKAS_clean_linker_0, # of connection points: 2
#     Edge 64, Type (0, 1), BuildingBlock: ZUJKAS_clean_linker_0, # of connection points: 2
#     Edge 65, Type (0, 1), BuildingBlock: ZUJKAS_clean_linker_0, # of connection points: 2
#     Edge 66, Type (0, 1), BuildingBlock: ZUJKAS_clean_linker_0, # of connection points: 2
#     Edge 67, Type (0, 1), BuildingBlock: ZUJKAS_clean_linker_0, # of connection points: 2
#     Edge 68, Type (0, 1), BuildingBlock: ZUJKAS_clean_linker_0, # of connection points: 2
#     Edge 69, Type (0, 1), BuildingBlock: ZUJKAS_clean_linker_0, # of connection points: 2
#     Edge 70, Type (0, 1), BuildingBlock: ZUJKAS_clean_linker_0, # of connection points: 2
#     Edge 71, Type (0, 1), BuildingBlock: ZUJKAS_clean_linker_0, # of connection points: 2
#     Edge 72, Type (0, 1), BuildingBlock: ZUJKAS_clean_linker_0, # of connection points: 2
#     Edge 73, Type (0, 1), BuildingBlock: ZUJKAS_clean_linker_0, # of connection points: 2
#     Edge 74, Type (0, 1), BuildingBlock: ZUJKAS_clean_linker_0, # of connection points: 2
#     Edge 75, Type (0, 1), BuildingBlock: ZUJKAS_clean_linker_0, # of connection points: 2
#     Edge 76, Type (0, 1), BuildingBlock: ZUJKAS_clean_linker_0, # of connection points: 2
#     Edge 77, Type (0, 1), BuildingBlock: ZUJKAS_clean_linker_0, # of connection points: 2
#     Edge 78, Type (0, 1), BuildingBlock: ZUJKAS_clean_linker_0, # of connection points: 2
#     Edge 79, Type (0, 1), BuildingBlock: ZUJKAS_clean_linker_0, # of connection points: 2
#     Edge 80, Type (0, 1), BuildingBlock: ZUJKAS_clean_linker_0, # of connection points: 2
# Relax obj value: 0.009
# Max RMSD: 0.095
# Mean RMSD: 0.062
data_MOF--net-eea--node1-KUMBUR_clean_sbu_0--node2-ESEHIV_clean_linker_0--edge1-ZUJKAS_clean_linker_0
_symmetry_space_group_name_H-M    P1
_symmetry_Int_Tables_number       1
_symmetry_cell_setting            triclinic
loop_
_symmetry_equiv_pos_as_xyz
'x, y, z'
_cell_length_a     63.08201
_cell_length_b     64.529625
_cell_length_c     89.235061
_cell_angle_alpha  90.101221
_cell_angle_beta   90.093542
_cell_angle_gamma 119.99706
loop_
_atom_site_label
_atom_site_type_symbol
_atom_site_fract_x
_atom_site_fract_y
_atom_site_fract_z
_atom_type_partial_charge
H0 H 0.24482 0.15472 0.44517 0.0
H1 H 0.24436 0.08788 0.44572 0.0
H2 H 0.21883 0.10807 0.40676 0.0
C3 C 0.24117 0.13833 0.43958 0.0
C4 C 0.23095 0.13325 0.4251 0.0
C5 C 0.24609 0.12206 0.44708 0.0
C6 C 0.24063 0.10051 0.43997 0.0
C7 C 0.23059 0.09521 0.42547 0.0
C8 C 0.22588 0.11172 0.41813 0.0
H9 H 0.85722 0.09158 0.44219 0.0
H10 H 0.92338 0.1602 0.44082 0.0
H11 H 0.90197 0.11284 0.40273 0.0
C12 C 0.87341 0.10474 0.43631 0.0
C13 C 0.87768 0.09976 0.42167 0.0
C14 C 0.88964 0.12659 0.44332 0.0
C15 C 0.9107 0.14332 0.43554 0.0
C16 C 0.91544 0.13841 0.42093 0.0
C17 C 0.89869 0.11665 0.41406 0.0
H18 H 0.8521 0.7658 0.4401 0.0
H19 H 0.92027 0.76569 0.43957 0.0
H20 H 0.89874 0.79175 0.40146 0.0
C21 C 0.8687 0.76931 0.43437 0.0
C22 C 0.87329 0.77922 0.4199 0.0
C23 C 0.88554 0.76443 0.44166 0.0
C24 C 0.90728 0.7696 0.43417 0.0
C25 C 0.91232 0.77963 0.41969 0.0
C26 C 0.89529 0.78456 0.41272 0.0
H27 H 0.08957 0.23659 0.57599 0.0
H28 H 0.15536 0.23246 0.57453 0.0
H29 H 0.10861 0.20612 0.61303 0.0
C30 C 0.10164 0.23131 0.5812 0.0
C31 C 0.0962 0.2209 0.59561 0.0
C32 C 0.1226 0.235 0.57336 0.0
C33 C 0.13871 0.22881 0.58026 0.0
C34 C 0.1341 0.21894 0.59474 0.0
C35 C 0.11263 0.2147 0.60218 0.0
H36 H 0.75909 0.91306 0.57216 0.0
H37 H 0.7545 0.84439 0.57245 0.0
H38 H 0.78767 0.8927 0.6096 0.0
C39 C 0.76296 0.90033 0.57763 0.0
C40 C 0.77385 0.90542 0.59191 0.0
C41 C 0.75609 0.87841 0.57055 0.0
C42 C 0.76012 0.86143 0.57785 0.0
C43 C 0.77139 0.86638 0.59201 0.0
C44 C 0.77833 0.88848 0.59888 0.0
H45 H 0.08376 0.84199 0.57486 0.0
H46 H 0.15187 0.90871 0.57416 0.0
H47 H 0.10491 0.88971 0.61265 0.0
C48 C 0.09662 0.8588 0.58015 0.0
C49 C 0.09188 0.86391 0.59469 0.0
C50 C 0.11834 0.87482 0.57267 0.0
C51 C 0.13513 0.89629 0.57985 0.0
C52 C 0.13058 0.90186 0.5943 0.0
C53 C 0.1089 0.88548 0.60163 0.0
H54 H 0.91653 0.49027 0.77695 0.0
H55 H 0.91649 0.42366 0.77709 0.0
H56 H 0.88588 0.44176 0.73968 0.0
C57 C 0.91196 0.47348 0.77155 0.0
C58 C 0.90088 0.46811 0.75732 0.0
C59 C 0.91725 0.45733 0.77885 0.0
C60 C 0.91163 0.43576 0.7717 0.0
C61 C 0.90067 0.43015 0.75745 0.0
C62 C 0.89512 0.44633 0.75044 0.0
H63 H 0.52349 0.42554 0.77649 0.0
H64 H 0.59076 0.49289 0.77531 0.0
H65 H 0.57042 0.44441 0.73794 0.0
C66 C 0.5403 0.43783 0.77081 0.0
C67 C 0.54501 0.43209 0.75643 0.0
C68 C 0.55666 0.45972 0.7777 0.0
C69 C 0.57789 0.47611 0.76998 0.0
C70 C 0.58299 0.47074 0.75562 0.0
C71 C 0.56652 0.44864 0.74899 0.0
H72 H 0.52022 0.1006 0.7745 0.0
H73 H 0.58847 0.10072 0.77377 0.0
H74 H 0.56588 0.12512 0.73533 0.0
C75 C 0.53683 0.10426 0.76872 0.0
C76 C 0.54103 0.11358 0.75408 0.0
C77 C 0.55378 0.09947 0.77594 0.0
C78 C 0.57514 0.10402 0.76824 0.0
C79 C 0.57984 0.11354 0.75364 0.0
C80 C 0.56272 0.11837 0.74671 0.0
H81 H 0.75472 0.5676 0.90895 0.0
H82 H 0.8221 0.56598 0.90872 0.0
H83 H 0.77639 0.54328 0.94785 0.0
C84 C 0.76747 0.56346 0.91446 0.0
C85 C 0.7628 0.55476 0.92928 0.0
C86 C 0.78891 0.56778 0.90693 0.0
C87 C 0.80562 0.56291 0.91441 0.0
C88 C 0.80139 0.55425 0.92922 0.0
C89 C 0.77998 0.55037 0.93656 0.0
H90 H 0.42551 0.24494 0.90628 0.0
H91 H 0.42532 0.17826 0.90726 0.0
H92 H 0.45716 0.2282 0.94375 0.0
C93 C 0.43047 0.23301 0.9118 0.0
C94 C 0.44187 0.23916 0.92592 0.0
C95 C 0.4246 0.21116 0.90496 0.0
C96 C 0.43006 0.19525 0.91244 0.0
C97 C 0.44158 0.20115 0.92654 0.0
C98 C 0.44758 0.22322 0.9331 0.0
H99 H 0.75102 0.17525 0.90891 0.0
H100 H 0.81758 0.24316 0.90631 0.0
H101 H 0.77412 0.22378 0.9464 0.0
C102 C 0.76417 0.19209 0.91404 0.0
C103 C 0.75994 0.19763 0.9286 0.0
C104 C 0.78485 0.2085 0.90587 0.0
C105 C 0.80154 0.2305 0.91252 0.0
C106 C 0.79784 0.23624 0.92712 0.0
C107 C 0.77689 0.21973 0.93503 0.0
H108 H 0.58888 0.82627 0.11048 0.0
H109 H 0.58807 0.75923 0.11122 0.0
H110 H 0.55528 0.77589 0.07438 0.0
C111 C 0.58352 0.80903 0.10545 0.0
C112 C 0.57145 0.80303 0.09152 0.0
C113 C 0.58952 0.7933 0.11268 0.0
C114 C 0.58337 0.7714 0.10577 0.0
C115 C 0.57134 0.76512 0.09185 0.0
C116 C 0.56526 0.78095 0.0849 0.0
H117 H 0.19111 0.75822 0.10913 0.0
H118 H 0.25809 0.82601 0.10828 0.0
H119 H 0.2366 0.77931 0.06992 0.0
C120 C 0.20731 0.7713 0.10324 0.0
C121 C 0.21168 0.76624 0.08862 0.0
C122 C 0.22389 0.79279 0.11048 0.0
C123 C 0.24539 0.80918 0.10294 0.0
C124 C 0.2501 0.80446 0.08829 0.0
C125 C 0.23313 0.78297 0.08123 0.0
H126 H 0.18715 0.43459 0.10804 0.0
H127 H 0.25563 0.43517 0.10758 0.0
H128 H 0.23333 0.45995 0.06917 0.0
C129 C 0.20371 0.43808 0.10227 0.0
C130 C 0.20798 0.4475 0.08767 0.0
C131 C 0.2208 0.43367 0.10963 0.0
C132 C 0.24264 0.43909 0.10218 0.0
C133 C 0.24738 0.44856 0.08755 0.0
C134 C 0.22991 0.45274 0.08042 0.0
H135 H 0.42153 0.90201 0.24331 0.0
H136 H 0.48834 0.89936 0.24267 0.0
H137 H 0.44295 0.87687 0.28194 0.0
C138 C 0.43433 0.89792 0.2488 0.0
C139 C 0.42952 0.8888 0.26352 0.0
C140 C 0.45555 0.9019 0.24115 0.0
C141 C 0.47199 0.89647 0.24844 0.0
C142 C 0.46765 0.88748 0.26315 0.0
C143 C 0.44637 0.88373 0.27059 0.0
H144 H 0.0907 0.57857 0.23952 0.0
H145 H 0.08963 0.51138 0.23985 0.0
H146 H 0.12159 0.56048 0.27672 0.0
C147 C 0.09506 0.56617 0.24497 0.0
C148 C 0.10638 0.57191 0.25912 0.0
C149 C 0.08923 0.54451 0.23782 0.0
C150 C 0.09478 0.52844 0.24506 0.0
C151 C 0.10611 0.5339 0.25922 0.0
C152 C 0.11208 0.55578 0.26605 0.0
H153 H 0.41866 0.50824 0.24234 0.0
H154 H 0.48562 0.57595 0.24065 0.0
H155 H 0.44 0.55677 0.27975 0.0
C156 C 0.43146 0.52519 0.24749 0.0
C157 C 0.42653 0.53075 0.26186 0.0
C158 C 0.45288 0.5413 0.23979 0.0
C159 C 0.46939 0.56317 0.24666 0.0
C160 C 0.46489 0.56899 0.26104 0.0
C161 C 0.44334 0.5527 0.26851 0.0
Tb162 Tb 0.49505 0.98451 0.99116 0.0
C163 C 0.54699 0.07363 0.03174 0.0
C164 C 0.58975 0.08513 0.03066 0.0
C165 C 0.57819 0.11538 0.03495 0.0
C166 C 0.56478 0.06752 0.02976 0.0
C167 C 0.55338 0.09752 0.0347 0.0
C168 C 0.59637 0.10918 0.03292 0.0
C169 C 0.51044 0.08392 0.03821 0.0
N170 N 0.52333 0.05581 0.03155 0.0
C171 C 0.50507 0.06047 0.03529 0.0
C172 C 0.53469 0.10259 0.03774 0.0
Tb173 Tb 0.51612 0.01805 0.02614 0.0
N174 N 0.55755 0.04408 0.02778 0.0
C175 C 0.57458 0.03685 0.02771 0.0
C176 C 0.60725 0.07793 0.02971 0.0
C177 C 0.59961 0.05364 0.02842 0.0
H178 H 0.48625 0.04624 0.03561 0.0
H179 H 0.61297 0.04781 0.02795 0.0
H180 H 0.61546 0.12301 0.0335 0.0
H181 H 0.49587 0.08757 0.04082 0.0
H182 H 0.56916 0.01821 0.02667 0.0
H183 H 0.3985 0.95584 0.98861 0.0
H184 H 0.62662 0.09089 0.03034 0.0
H185 H 0.52432 0.9557 0.98188 0.0
H186 H 0.44239 0.98505 0.99009 0.0
H187 H 0.51423 0.91409 0.97706 0.0
H188 H 0.58351 0.13389 0.03706 0.0
H189 H 0.38434 0.91262 0.98676 0.0
H190 H 0.39499 0.87999 0.9845 0.0
H191 H 0.53881 0.12072 0.04006 0.0
H192 H 0.42659 0.86855 0.98128 0.0
N193 N 0.45356 0.95882 0.98956 0.0
C194 C 0.43675 0.96634 0.98928 0.0
C195 C 0.40376 0.92539 0.98751 0.0
C196 C 0.42103 0.91786 0.98697 0.0
C197 C 0.41168 0.94977 0.98847 0.0
C198 C 0.44606 0.93527 0.98788 0.0
H199 H 0.47117 0.88124 0.97818 0.0
N200 N 0.4874 0.94652 0.98608 0.0
C201 C 0.49982 0.91798 0.97965 0.0
C202 C 0.46366 0.92886 0.98606 0.0
C203 C 0.50546 0.94157 0.98235 0.0
C204 C 0.4755 0.89947 0.98034 0.0
C205 C 0.457 0.90484 0.98333 0.0
O206 O 0.51368 0.99061 0.97062 0.0
O207 O 0.52391 0.0144 1.0031 0.0
O208 O 0.51253 0.04135 0.00989 0.0
O209 O 0.4851 0.01272 0.99299 0.0
O210 O 0.53415 0.99684 0.98849 0.0
O211 O 0.48204 0.99475 0.97245 0.0
O212 O 0.49764 0.01165 0.04677 0.0
O213 O 0.48726 0.98832 0.01412 0.0
O214 O 0.49853 0.96125 0.00756 0.0
O215 O 0.52643 0.99017 0.02409 0.0
O216 O 0.47699 0.00567 0.02881 0.0
O217 O 0.52914 0.00734 0.0446 0.0
C218 C 0.5424 0.01475 0.99751 0.0
C219 C 0.49007 0.98379 0.94872 0.0
C220 C 0.49144 0.98668 0.92132 0.0
C221 C 0.49883 0.99754 0.93556 0.0
C222 C 0.47497 0.96188 0.92052 0.0
C223 C 0.47362 0.95916 0.9476 0.0
C224 C 0.46612 0.94831 0.93357 0.0
C225 C 0.49653 0.03469 0.99872 0.0
C226 C 0.49859 0.99532 0.96348 0.0
C227 C 0.43212 0.88717 0.9832 0.0
C228 C 0.41414 0.89368 0.98503 0.0
C229 C 0.46874 0.98796 0.01964 0.0
C230 C 0.52154 0.01802 0.06851 0.0
C231 C 0.51343 0.00399 0.08159 0.0
C232 C 0.52188 0.01448 0.09585 0.0
C233 C 0.53837 0.03928 0.09672 0.0
C234 C 0.53805 0.04262 0.06971 0.0
C235 C 0.54635 0.05317 0.08374 0.0
C236 C 0.51471 0.96804 0.01863 0.0
C237 C 0.51273 0.00672 0.05371 0.0
H238 H 0.5117 0.01657 0.93643 0.0
H239 H 0.46864 0.95301 0.90979 0.0
H240 H 0.4666 0.94832 0.95755 0.0
H241 H 0.45339 0.92927 0.93279 0.0
H242 H 0.50087 0.98491 0.08063 0.0
H243 H 0.54493 0.04804 0.10746 0.0
H244 H 0.54454 0.05367 0.05982 0.0
H245 H 0.55901 0.07221 0.08458 0.0
Tb246 Tb 0.02514 0.50787 0.99142 0.0
C247 C 0.92834 0.46914 0.0251 0.0
C248 C 0.91695 0.49951 0.02208 0.0
C249 C 0.88536 0.45779 0.02463 0.0
C250 C 0.93497 0.49273 0.02302 0.0
C251 C 0.9035 0.45139 0.02629 0.0
C252 C 0.89209 0.48184 0.02251 0.0
C253 C 0.91656 0.42286 0.03187 0.0
N254 N 0.94645 0.46382 0.02673 0.0
C255 C 0.94095 0.44116 0.03066 0.0
C256 C 0.89773 0.42792 0.02949 0.0
Tb257 Tb 0.98584 0.49471 0.0238 0.0
N258 N 0.95918 0.50918 0.0228 0.0
C259 C 0.96658 0.53306 0.02287 0.0
C260 C 0.92449 0.52386 0.0212 0.0
C261 C 0.94941 0.54072 0.02186 0.0
H262 H 0.95535 0.43699 0.03241 0.0
H263 H 0.95545 0.55963 0.0215 0.0
H264 H 0.87795 0.48665 0.02162 0.0
H265 H 0.91231 0.40485 0.03461 0.0
H266 H 0.98573 0.5464 0.02323 0.0
H267 H 0.05477 0.44243 0.99122 0.0
H268 H 0.91125 0.52984 0.0204 0.0
H269 H 0.05555 0.56599 0.98394 0.0
H270 H 0.02483 0.45606 0.99235 0.0
H271 H 0.09846 0.59789 0.98083 0.0
H272 H 0.86614 0.4444 0.02534 0.0
H273 H 0.09893 0.47186 0.98936 0.0
H274 H 0.13243 0.51485 0.98841 0.0
H275 H 0.87886 0.41373 0.03047 0.0
H276 H 0.14443 0.55733 0.98595 0.0
N277 N 0.05162 0.49322 0.99186 0.0
C278 C 0.04399 0.46929 0.99181 0.0
C279 C 0.08588 0.47804 0.99029 0.0
C280 C 0.09362 0.50246 0.99013 0.0
C281 C 0.06096 0.46138 0.99118 0.0
C282 C 0.0758 0.50952 0.99076 0.0
H283 H 0.13185 0.58847 0.98294 0.0
N284 N 0.06447 0.5388 0.98844 0.0
C285 C 0.09424 0.57978 0.98321 0.0
C286 C 0.0825 0.53323 0.98912 0.0
C287 C 0.06991 0.56161 0.98495 0.0
C288 C 0.11304 0.57442 0.98447 0.0
C289 C 0.10726 0.55081 0.98715 0.0
O290 O 0.02285 0.52056 0.97012 0.0
O291 O 0.99292 0.50618 1.00087 0.0
O292 O 0.96451 0.46851 1.00653 0.0
O293 O 0.99601 0.46975 0.99218 0.0
O294 O 0.01283 0.53364 0.98668 0.0
O295 O 0.01745 0.48504 0.97286 0.0
O296 O 0.98816 0.48229 0.04518 0.0
O297 O 0.01804 0.49634 0.01433 0.0
O298 O 0.0465 0.53378 0.00882 0.0
O299 O 0.01497 0.5328 0.023 0.0
O300 O 0.99833 0.46905 0.02862 0.0
O301 O 0.99314 0.51761 0.04227 0.0
C302 C 0.99333 0.52387 0.99466 0.0
C303 C 0.03361 0.50441 0.94981 0.0
C304 C 0.03566 0.50408 0.92254 0.0
C305 C 0.02221 0.50052 0.93578 0.0
C306 C 0.06073 0.51161 0.92354 0.0
C307 C 0.05857 0.51173 0.95062 0.0
C308 C 0.07206 0.51533 0.93753 0.0
C309 C 0.97272 0.45923 0.9964 0.0
C310 C 0.01911 0.50111 0.96337 0.0
C311 C 0.12528 0.54409 0.98736 0.0
C312 C 0.11845 0.51991 0.98875 0.0
C313 C 0.0178 0.47875 0.02059 0.0
C314 C 0.97688 0.4983 0.06531 0.0
C315 C 0.98793 0.50174 0.07944 0.0
C316 C 0.97435 0.49841 0.09261 0.0
C317 C 0.94944 0.49155 0.09137 0.0
C318 C 0.95208 0.49156 0.0643 0.0
C319 C 0.93844 0.48818 0.07729 0.0
C320 C 0.03831 0.54319 0.01888 0.0
C321 C 0.99159 0.50169 0.05184 0.0
H322 H 1.00294 0.49507 0.93518 0.0
H323 H 0.07148 0.51429 0.91353 0.0
H324 H 0.06766 0.51469 0.96127 0.0
H325 H 0.09134 0.52099 0.93823 0.0
H326 H 0.00722 0.50733 0.08012 0.0
H327 H 0.93837 0.48851 0.10127 0.0
H328 H 0.94327 0.48892 0.05354 0.0
H329 H 0.91927 0.48288 0.07645 0.0
Tb330 Tb 0.51613 0.49455 0.02544 0.0
C331 C 0.46332 0.5349 0.98814 0.0
C332 C 0.42062 0.50437 0.98894 0.0
C333 C 0.43193 0.54611 0.98612 0.0
C334 C 0.44562 0.51125 0.98964 0.0
C335 C 0.45677 0.55262 0.98601 0.0
C336 C 0.41386 0.52199 0.98757 0.0
C337 C 0.49959 0.5813 0.98232 0.0
N338 N 0.48701 0.54031 0.98783 0.0
C339 C 0.50511 0.56302 0.98439 0.0
C340 C 0.47534 0.57615 0.98333 0.0
Tb341 Tb 0.49445 0.50939 0.9917 0.0
N342 N 0.45297 0.49483 0.99074 0.0
C343 C 0.43602 0.47094 0.9902 0.0
C344 C 0.40323 0.47997 0.98908 0.0
C345 C 0.41099 0.46319 0.98957 0.0
H346 H 0.52393 0.56723 0.98365 0.0
H347 H 0.39771 0.44426 0.98944 0.0
H348 H 0.39474 0.51709 0.9872 0.0
H349 H 0.51404 0.59934 0.97996 0.0
H350 H 0.44152 0.45761 0.99057 0.0
H351 H 0.61287 0.5597 0.02774 0.0
H352 H 0.38384 0.4739 0.98843 0.0
H353 H 0.48668 0.43668 0.03341 0.0
H354 H 0.56906 0.54635 0.02665 0.0
H355 H 0.49658 0.40457 0.03701 0.0
H356 H 0.4265 0.55947 0.98466 0.0
H357 H 0.62676 0.53006 0.02863 0.0
H358 H 0.61587 0.48688 0.02977 0.0
H359 H 0.47109 0.5903 0.98164 0.0
H360 H 0.58413 0.44448 0.03228 0.0
N361 N 0.55762 0.50912 0.02639 0.0
C362 C 0.57456 0.53301 0.02698 0.0
C363 C 0.60736 0.52399 0.028 0.0
C364 C 0.58999 0.49959 0.02811 0.0
C365 C 0.59959 0.54077 0.02758 0.0
C366 C 0.56498 0.49271 0.02743 0.0
H367 H 0.53954 0.41363 0.03529 0.0
N368 N 0.5236 0.46364 0.02926 0.0
C369 C 0.51103 0.42262 0.03468 0.0
C370 C 0.54729 0.46905 0.02892 0.0
C371 C 0.5055 0.4409 0.03266 0.0
C372 C 0.53529 0.42779 0.03365 0.0
C373 C 0.55384 0.45133 0.03099 0.0
O374 O 0.49853 0.48131 0.04613 0.0
O375 O 0.48704 0.49709 0.01449 0.0
O376 O 0.49843 0.53528 0.00882 0.0
O377 O 0.52644 0.53266 0.0247 0.0
O378 O 0.47692 0.46882 0.02833 0.0
O379 O 0.52976 0.51677 0.04444 0.0
O380 O 0.5123 0.52249 0.97106 0.0
O381 O 0.52353 0.50687 1.00266 0.0
O382 O 0.51225 0.46878 0.00828 0.0
O383 O 0.48415 0.47127 0.99242 0.0
O384 O 0.53366 0.53513 0.98882 0.0
O385 O 0.48061 0.48731 0.97264 0.0
C386 C 0.46854 0.47921 0.01991 0.0
C387 C 0.52347 0.49691 0.06758 0.0
C388 C 0.52381 0.49749 0.09499 0.0
C389 C 0.51492 0.50081 0.08123 0.0
C390 C 0.54133 0.49005 0.0948 0.0
C391 C 0.541 0.48963 0.06768 0.0
C392 C 0.54983 0.48619 0.08123 0.0
C393 C 0.51483 0.54374 0.01978 0.0
C394 C 0.51389 0.50055 0.05341 0.0
C395 C 0.57869 0.45785 0.03085 0.0
C396 C 0.59675 0.48197 0.02942 0.0
C397 C 0.54205 0.52475 0.99724 0.0
C398 C 0.48761 0.50739 0.9495 0.0
C399 C 0.49639 0.50354 0.93593 0.0
C400 C 0.48839 0.50776 0.92212 0.0
C401 C 0.47138 0.51582 0.92213 0.0
C402 C 0.47056 0.51528 0.94927 0.0
C403 C 0.46252 0.51948 0.93563 0.0
C404 C 0.49582 0.46025 0.99734 0.0
C405 C 0.49677 0.5034 0.96374 0.0
H406 H 0.50161 0.50677 0.0811 0.0
H407 H 0.54828 0.48693 0.10515 0.0
H408 H 0.54787 0.48664 0.05732 0.0
H409 H 0.5633 0.48046 0.08123 0.0
H410 H 0.50972 0.4976 0.93615 0.0
H411 H 0.46467 0.51898 0.9117 0.0
H412 H 0.4635 0.51821 0.95956 0.0
H413 H 0.44934 0.52557 0.93552 0.0
Tb414 Tb 0.15994 0.31791 0.32417 0.0
C415 C 0.21328 0.40736 0.36437 0.0
C416 C 0.25606 0.41904 0.36277 0.0
C417 C 0.24444 0.44916 0.36741 0.0
C418 C 0.2311 0.40135 0.3621 0.0
C419 C 0.21966 0.43123 0.36739 0.0
C420 C 0.26263 0.44306 0.36509 0.0
C421 C 0.1768 0.41745 0.37147 0.0
N422 N 0.18965 0.38945 0.36443 0.0
C423 C 0.17145 0.39403 0.36848 0.0
C424 C 0.20099 0.4362 0.37074 0.0
Tb425 Tb 0.18249 0.35173 0.35896 0.0
N426 N 0.22392 0.37792 0.36007 0.0
C427 C 0.24103 0.3708 0.3597 0.0
C428 C 0.27361 0.41195 0.36155 0.0
C429 C 0.26604 0.38768 0.3602 0.0
H430 H 0.15267 0.37975 0.36901 0.0
H431 H 0.27946 0.38194 0.3595 0.0
H432 H 0.2817 0.45695 0.3655 0.0
H433 H 0.16226 0.42103 0.37432 0.0
H434 H 0.23564 0.35218 0.3586 0.0
H435 H 0.06317 0.28862 0.3238 0.0
H436 H 0.29297 0.42497 0.36203 0.0
H437 H 0.18921 0.28921 0.3145 0.0
H438 H 0.10706 0.31808 0.32434 0.0
H439 H 0.17917 0.24764 0.30967 0.0
H440 H 0.24973 0.46765 0.36958 0.0
H441 H 0.0492 0.24543 0.32181 0.0
H442 H 0.06002 0.21306 0.31852 0.0
H443 H 0.2051 0.4543 0.37313 0.0
H444 H 0.09166 0.20186 0.31459 0.0
N445 N 0.11843 0.29204 0.32309 0.0
C446 C 0.1015 0.2994 0.32341 0.0
C447 C 0.06862 0.25833 0.32204 0.0
C448 C 0.08598 0.25098 0.32082 0.0
C449 C 0.07643 0.28268 0.32313 0.0
C450 C 0.111 0.26852 0.32128 0.0
H451 H 0.13619 0.2147 0.31106 0.0
N452 N 0.15233 0.27996 0.31896 0.0
C453 C 0.16477 0.25148 0.31238 0.0
C454 C 0.12863 0.26223 0.31912 0.0
C455 C 0.17037 0.27505 0.31508 0.0
C456 C 0.1405 0.23293 0.31321 0.0
C457 C 0.122 0.23822 0.31639 0.0
O458 O 0.17753 0.32369 0.30327 0.0
O459 O 0.1893 0.34784 0.33578 0.0
O460 O 0.17819 0.37488 0.34288 0.0
O461 O 0.14988 0.34596 0.32649 0.0
O462 O 0.19891 0.33031 0.32075 0.0
O463 O 0.14627 0.32831 0.30589 0.0
O464 O 0.16448 0.34494 0.37977 0.0
O465 O 0.15315 0.32183 0.34732 0.0
O466 O 0.16405 0.29486 0.34037 0.0
O467 O 0.19277 0.32381 0.35656 0.0
O468 O 0.1435 0.33927 0.36236 0.0
O469 O 0.19668 0.34189 0.37727 0.0
C470 C 0.20754 0.34818 0.32981 0.0
C471 C 0.15278 0.31689 0.28192 0.0
C472 C 0.15224 0.31953 0.25453 0.0
C473 C 0.16113 0.33039 0.26865 0.0
C474 C 0.13503 0.29487 0.25401 0.0
C475 C 0.13555 0.29243 0.28106 0.0
C476 C 0.12679 0.28151 0.26717 0.0
C477 C 0.16166 0.36805 0.33201 0.0
C478 C 0.16223 0.32856 0.29654 0.0
C479 C 0.09716 0.22046 0.31653 0.0
C480 C 0.07915 0.22684 0.31876 0.0
C481 C 0.13487 0.32143 0.35327 0.0
C482 C 0.18909 0.3525 0.40124 0.0
C483 C 0.18011 0.33905 0.41449 0.0
C484 C 0.18773 0.35017 0.42866 0.0
C485 C 0.20463 0.37487 0.42928 0.0
C486 C 0.20598 0.37705 0.40219 0.0
C487 C 0.2137 0.38813 0.41614 0.0
C488 C 0.18075 0.30166 0.35112 0.0
C489 C 0.18025 0.34081 0.38655 0.0
H490 H 0.17426 0.34937 0.26936 0.0
H491 H 0.12812 0.28578 0.24339 0.0
H492 H 0.12889 0.28179 0.2911 0.0
H493 H 0.11357 0.26257 0.26659 0.0
H494 H 0.16691 0.32009 0.41377 0.0
H495 H 0.2111 0.38391 0.43996 0.0
H496 H 0.21318 0.38765 0.39218 0.0
H497 H 0.22677 0.4071 0.41678 0.0
Tb498 Tb 0.69141 0.84008 0.32582 0.0
C499 C 0.59317 0.80298 0.35806 0.0
C500 C 0.58182 0.83319 0.35406 0.0
C501 C 0.55019 0.79157 0.357 0.0
C502 C 0.59983 0.82648 0.35555 0.0
C503 C 0.5683 0.78526 0.35917 0.0
C504 C 0.55694 0.81553 0.35443 0.0
C505 C 0.58124 0.75695 0.3657 0.0
N506 N 0.61125 0.79773 0.36018 0.0
C507 C 0.60566 0.77522 0.36456 0.0
C508 C 0.56246 0.76191 0.36281 0.0
Tb509 Tb 0.6507 0.82859 0.35741 0.0
N510 N 0.62403 0.84293 0.35536 0.0
C511 C 0.63141 0.86679 0.35489 0.0
C512 C 0.58936 0.85749 0.35269 0.0
C513 C 0.61426 0.87438 0.35335 0.0
H514 H 0.61998 0.77111 0.36672 0.0
H515 H 0.6203 0.89327 0.35258 0.0
H516 H 0.54283 0.82029 0.35313 0.0
H517 H 0.57692 0.73905 0.36879 0.0
H518 H 0.65056 0.88015 0.35524 0.0
H519 H 0.72013 0.77406 0.33004 0.0
H520 H 0.57612 0.86341 0.35147 0.0
H521 H 0.723 0.8978 0.31735 0.0
H522 H 0.69046 0.78794 0.32776 0.0
H523 H 0.76632 0.92948 0.31566 0.0
H524 H 0.53095 0.77819 0.35764 0.0
H525 H 0.76449 0.80329 0.33096 0.0
H526 H 0.79833 0.84623 0.32965 0.0
H527 H 0.54357 0.74775 0.36375 0.0
H528 H 0.81096 0.88864 0.32574 0.0
N529 N 0.71749 0.82502 0.3277 0.0
C530 C 0.70968 0.80105 0.32807 0.0
C531 C 0.75151 0.80957 0.32996 0.0
C532 C 0.75947 0.83398 0.32881 0.0
C533 C 0.7265 0.79302 0.32939 0.0
C534 C 0.74179 0.84116 0.32753 0.0
H535 H 0.79913 0.91986 0.32033 0.0
N536 N 0.73111 0.87055 0.32335 0.0
C537 C 0.76167 0.91137 0.31843 0.0
C538 C 0.74887 0.86483 0.32529 0.0
C539 C 0.73712 0.89333 0.31934 0.0
C540 C 0.78014 0.90589 0.32111 0.0
C541 C 0.77386 0.88228 0.32435 0.0
O542 O 0.69015 0.85213 0.30414 0.0
O543 O 0.65913 0.83923 0.3344 0.0
O544 O 0.62994 0.80182 0.34029 0.0
O545 O 0.66188 0.80215 0.32689 0.0
O546 O 0.67957 0.86582 0.31976 0.0
O547 O 0.68444 0.81663 0.30771 0.0
O548 O 0.65359 0.81758 0.37909 0.0
O549 O 0.683 0.82947 0.34881 0.0
O550 O 0.712 0.86653 0.34313 0.0
O551 O 0.67995 0.86662 0.35611 0.0
O552 O 0.66268 0.80296 0.36349 0.0
O553 O 0.65644 0.8519 0.37545 0.0
C554 C 0.65987 0.85661 0.32756 0.0
C555 C 0.70154 0.83524 0.2846 0.0
C556 C 0.70492 0.8357 0.25734 0.0
C557 C 0.69112 0.83272 0.27036 0.0
C558 C 0.72941 0.84119 0.25886 0.0
C559 C 0.72593 0.84069 0.28591 0.0
C560 C 0.73978 0.84364 0.27307 0.0
C561 C 0.63841 0.79204 0.33069 0.0
C562 C 0.68658 0.83243 0.29785 0.0
C563 C 0.79164 0.87548 0.32629 0.0
C564 C 0.78446 0.85134 0.32851 0.0
C565 C 0.68235 0.81213 0.35566 0.0
C566 C 0.6409 0.83298 0.39874 0.0
C567 C 0.65222 0.83767 0.41283 0.0
C568 C 0.63839 0.83267 0.42607 0.0
C569 C 0.61292 0.8232 0.42486 0.0
C570 C 0.61558 0.82376 0.39777 0.0
C571 C 0.60169 0.81895 0.41079 0.0
C572 C 0.70347 0.87658 0.35247 0.0
C573 C 0.65584 0.8368 0.38534 0.0
H574 H 0.67213 0.82816 0.26945 0.0
H575 H 0.74064 0.8439 0.24909 0.0
H576 H 0.73426 0.84266 0.29678 0.0
H577 H 0.75864 0.84793 0.27413 0.0
H578 H 0.6719 0.84524 0.4134 0.0
H579 H 0.60155 0.81869 0.43475 0.0
H580 H 0.60655 0.82011 0.38701 0.0
H581 H 0.58209 0.81164 0.40999 0.0
Tb582 Tb 0.18321 0.8293 0.35822 0.0
C583 C 0.12772 0.86649 0.32045 0.0
C584 C 0.0851 0.8362 0.32274 0.0
C585 C 0.0963 0.8777 0.31876 0.0
C586 C 0.1101 0.843 0.3227 0.0
C587 C 0.1211 0.88412 0.31814 0.0
C588 C 0.07831 0.85376 0.32107 0.0
C589 C 0.16373 0.91255 0.31362 0.0
N590 N 0.15137 0.87184 0.31984 0.0
C591 C 0.16933 0.89437 0.31591 0.0
C592 C 0.13954 0.90748 0.31491 0.0
Tb593 Tb 0.15898 0.84117 0.3244 0.0
N594 N 0.11747 0.82665 0.32416 0.0
C595 C 0.10046 0.80278 0.32461 0.0
C596 C 0.0677 0.81192 0.32408 0.0
C597 C 0.07542 0.79512 0.32481 0.0
H598 H 0.18811 0.89856 0.31498 0.0
H599 H 0.06211 0.77624 0.32558 0.0
H600 H 0.05921 0.84894 0.32121 0.0
H601 H 0.17808 0.93047 0.31088 0.0
H602 H 0.10596 0.78946 0.32527 0.0
H603 H 0.2802 0.89372 0.35674 0.0
H604 H 0.0483 0.80594 0.32423 0.0
H605 H 0.15393 0.7722 0.36827 0.0
H606 H 0.23641 0.88079 0.35725 0.0
H607 H 0.16375 0.74023 0.37271 0.0
H608 H 0.09082 0.891 0.31714 0.0
H609 H 0.29373 0.8638 0.35796 0.0
H610 H 0.28255 0.82075 0.36111 0.0
H611 H 0.13523 0.92156 0.31308 0.0
H612 H 0.25079 0.77886 0.36559 0.0
N613 N 0.22467 0.84355 0.35831 0.0
C614 C 0.2418 0.86738 0.35786 0.0
C615 C 0.27437 0.85795 0.35819 0.0
C616 C 0.25686 0.83372 0.35961 0.0
C617 C 0.2668 0.87488 0.35754 0.0
C618 C 0.2319 0.82709 0.35975 0.0
H619 H 0.20642 0.7487 0.3702 0.0
N620 N 0.19061 0.79855 0.36296 0.0
C621 C 0.17812 0.75799 0.36969 0.0
C622 C 0.2142 0.80369 0.3622 0.0
C623 C 0.17264 0.77621 0.3672 0.0
C624 C 0.20221 0.76282 0.36823 0.0
C625 C 0.22069 0.78601 0.36466 0.0
O626 O 0.16654 0.81831 0.37936 0.0
O627 O 0.15326 0.83073 0.34757 0.0
O628 O 0.16388 0.86818 0.34091 0.0
O629 O 0.19348 0.86732 0.35621 0.0
O630 O 0.14433 0.80381 0.36239 0.0
O631 O 0.19855 0.85297 0.37646 0.0
O632 O 0.17569 0.85254 0.3033 0.0
O633 O 0.18891 0.83973 0.33504 0.0
O634 O 0.17807 0.80202 0.34183 0.0
O635 O 0.14881 0.80319 0.32635 0.0
O636 O 0.19782 0.86678 0.32031 0.0
O637 O 0.14401 0.81761 0.30608 0.0
C638 C 0.13525 0.81334 0.35379 0.0
C639 C 0.19251 0.83485 0.40026 0.0
C640 C 0.19243 0.83577 0.42766 0.0
C641 C 0.18361 0.83873 0.41377 0.0
C642 C 0.21026 0.82872 0.42773 0.0
C643 C 0.21033 0.82795 0.4006 0.0
C644 C 0.21911 0.82488 0.41429 0.0
C645 C 0.18119 0.87773 0.3513 0.0
C646 C 0.18275 0.83787 0.38597 0.0
C647 C 0.24542 0.79222 0.36388 0.0
C648 C 0.26349 0.81606 0.36133 0.0
C649 C 0.20691 0.8572 0.32886 0.0
C650 C 0.15003 0.83574 0.2823 0.0
C651 C 0.15886 0.83155 0.26886 0.0
C652 C 0.15004 0.83427 0.25491 0.0
C653 C 0.13227 0.84139 0.2547 0.0
C654 C 0.13229 0.84274 0.28183 0.0
C655 C 0.1235 0.84557 0.26807 0.0
C656 C 0.16093 0.79264 0.33132 0.0
C657 C 0.15977 0.8329 0.29664 0.0
H658 H 0.17005 0.84435 0.41344 0.0
H659 H 0.21718 0.8259 0.43818 0.0
H660 H 0.21744 0.82494 0.39033 0.0
H661 H 0.2328 0.81944 0.41449 0.0
H662 H 0.17236 0.82585 0.2693 0.0
H663 H 0.12534 0.84403 0.24419 0.0
H664 H 0.12526 0.84601 0.29204 0.0
H665 H 0.10987 0.85107 0.26777 0.0
Tb666 Tb 0.82574 0.65026 0.65708 0.0
C667 C 0.87798 0.73996 0.69683 0.0
C668 C 0.92072 0.75153 0.69526 0.0
C669 C 0.90917 0.78185 0.69928 0.0
C670 C 0.89574 0.73385 0.69477 0.0
C671 C 0.88439 0.76394 0.69948 0.0
C672 C 0.92733 0.77566 0.69714 0.0
C673 C 0.84156 0.75032 0.70358 0.0
N674 N 0.85435 0.72209 0.69704 0.0
C675 C 0.83617 0.7268 0.70091 0.0
C676 C 0.86575 0.76903 0.70267 0.0
Tb677 Tb 0.84706 0.68424 0.69189 0.0
N678 N 0.8885 0.71034 0.69318 0.0
C679 C 0.90556 0.70314 0.69326 0.0
C680 C 0.93822 0.74434 0.69432 0.0
C681 C 0.93059 0.72 0.69359 0.0
H682 H 0.81739 0.71252 0.70155 0.0
H683 H 0.94396 0.71418 0.6932 0.0
H684 H 0.94642 0.78954 0.69739 0.0
H685 H 0.82705 0.754 0.70631 0.0
H686 H 0.90013 0.68446 0.69259 0.0
H687 H 0.7289 0.62054 0.65532 0.0
H688 H 0.95761 0.75735 0.6946 0.0
H689 H 0.85549 0.62196 0.64764 0.0
H690 H 0.7727 0.6501 0.65666 0.0
H691 H 0.84581 0.58057 0.64258 0.0
H692 H 0.91451 0.80043 0.70114 0.0
H693 H 0.71522 0.57746 0.65297 0.0
H694 H 0.72632 0.54524 0.65023 0.0
H695 H 0.86989 0.78722 0.70478 0.0
H696 H 0.75822 0.53429 0.64674 0.0
N697 N 0.78429 0.62421 0.65565 0.0
C698 C 0.76727 0.63145 0.65568 0.0
C699 C 0.73459 0.59038 0.65371 0.0
C700 C 0.75206 0.58314 0.65291 0.0
C701 C 0.74225 0.61468 0.65495 0.0
C702 C 0.77703 0.60073 0.65379 0.0
H703 H 0.80289 0.54742 0.64359 0.0
N704 N 0.81846 0.61242 0.65187 0.0
C705 C 0.83128 0.58424 0.64524 0.0
C706 C 0.7948 0.59459 0.65182 0.0
C707 C 0.83668 0.60772 0.64808 0.0
C708 C 0.80704 0.56557 0.64586 0.0
C709 C 0.78838 0.57067 0.64895 0.0
O710 O 0.84405 0.65636 0.6364 0.0
O711 O 0.85465 0.68032 0.66887 0.0
O712 O 0.84306 0.70721 0.67552 0.0
O713 O 0.81536 0.67812 0.65897 0.0
O714 O 0.86482 0.66264 0.65434 0.0
O715 O 0.81253 0.66062 0.63855 0.0
O716 O 0.82885 0.6782 0.71259 0.0
O717 O 0.81818 0.65421 0.68008 0.0
O718 O 0.82966 0.62726 0.67344 0.0
O719 O 0.85737 0.65632 0.69001 0.0
O720 O 0.80795 0.67172 0.69469 0.0
O721 O 0.86038 0.67394 0.7104 0.0
C722 C 0.87311 0.68059 0.66332 0.0
C723 C 0.81993 0.64954 0.61472 0.0
C724 C 0.8195 0.65244 0.58733 0.0
C725 C 0.82806 0.66325 0.60151 0.0
C726 C 0.8029 0.62764 0.58669 0.0
C727 C 0.80329 0.62494 0.61373 0.0
C728 C 0.79489 0.61408 0.59978 0.0
C729 C 0.82684 0.70024 0.66447 0.0
C730 C 0.82887 0.66112 0.62943 0.0
C731 C 0.76357 0.55282 0.64878 0.0
C732 C 0.74541 0.55906 0.65077 0.0
C733 C 0.79967 0.65377 0.6857 0.0
C734 C 0.85286 0.68471 0.73431 0.0
C735 C 0.84505 0.67068 0.74741 0.0
C736 C 0.85353 0.6812 0.76166 0.0
C737 C 0.86974 0.70606 0.76249 0.0
C738 C 0.8691 0.70938 0.73548 0.0
C739 C 0.87742 0.71996 0.74951 0.0
C740 C 0.84581 0.63419 0.68453 0.0
C741 C 0.84401 0.67336 0.71953 0.0
H742 H 0.84073 0.68232 0.6023 0.0
H743 H 0.79627 0.61861 0.57603 0.0
H744 H 0.79678 0.61413 0.62371 0.0
H745 H 0.78213 0.59504 0.59911 0.0
H746 H 0.8327 0.65155 0.74646 0.0
H747 H 0.87631 0.71487 0.77322 0.0
H748 H 0.87534 0.72043 0.72558 0.0
H749 H 0.88987 0.73905 0.75034 0.0
Tb750 Tb 0.35657 0.17301 0.65948 0.0
C751 C 0.26049 0.13586 0.69422 0.0
C752 C 0.24985 0.1669 0.69217 0.0
C753 C 0.21782 0.1255 0.69541 0.0
C754 C 0.26748 0.15956 0.69213 0.0
C755 C 0.23564 0.11856 0.69621 0.0
C756 C 0.22493 0.14966 0.69346 0.0
C757 C 0.24822 0.08954 0.70135 0.0
N758 N 0.27833 0.13007 0.69537 0.0
C759 C 0.27264 0.10743 0.69947 0.0
C760 C 0.22959 0.09505 0.69953 0.0
Tb761 Tb 0.3178 0.16047 0.69208 0.0
N762 N 0.29175 0.17563 0.69124 0.0
C763 C 0.29966 0.19963 0.69119 0.0
C764 C 0.25787 0.19137 0.69152 0.0
C765 C 0.28289 0.2078 0.69113 0.0
H766 H 0.28688 0.10296 0.70089 0.0
H767 H 0.2893 0.2268 0.69083 0.0
H768 H 0.21108 0.15491 0.69336 0.0
H769 H 0.24378 0.07153 0.70423 0.0
H770 H 0.31889 0.2127 0.69094 0.0
H771 H 0.38694 0.10811 0.66246 0.0
H772 H 0.24494 0.19779 0.69166 0.0
H773 H 0.38667 0.23026 0.64985 0.0
H774 H 0.35664 0.12132 0.66091 0.0
H775 H 0.42956 0.26215 0.64651 0.0
H776 H 0.1986 0.11247 0.69679 0.0
H777 H 0.43119 0.13787 0.66247 0.0
H778 H 0.46443 0.18092 0.66015 0.0
H779 H 0.21071 0.08122 0.70112 0.0
H780 H 0.4761 0.22297 0.65569 0.0
N781 N 0.38323 0.15853 0.66047 0.0
C782 C 0.3758 0.13465 0.66084 0.0
C783 C 0.41793 0.14384 0.66179 0.0
C784 C 0.42544 0.16814 0.66046 0.0
C785 C 0.39298 0.127 0.66174 0.0
C786 C 0.40741 0.17493 0.6597 0.0
H787 H 0.46317 0.25339 0.6503 0.0
N788 N 0.39581 0.20372 0.65584 0.0
C789 C 0.42544 0.24431 0.64961 0.0
C790 C 0.41396 0.19842 0.65727 0.0
C791 C 0.40112 0.22615 0.65148 0.0
C792 C 0.44436 0.23932 0.6518 0.0
C793 C 0.43873 0.21604 0.65545 0.0
O794 O 0.35305 0.1846 0.63808 0.0
O795 O 0.32449 0.17142 0.66908 0.0
O796 O 0.29615 0.13384 0.67504 0.0
O797 O 0.32754 0.13495 0.66063 0.0
O798 O 0.34401 0.19861 0.65468 0.0
O799 O 0.34924 0.14978 0.6412 0.0
O800 O 0.32031 0.14805 0.71342 0.0
O801 O 0.34991 0.16208 0.68255 0.0
O802 O 0.37833 0.19993 0.67631 0.0
O803 O 0.34719 0.19845 0.6912 0.0
O804 O 0.3301 0.13473 0.69687 0.0
O805 O 0.32542 0.18343 0.71055 0.0
C806 C 0.32466 0.18894 0.6628 0.0
C807 C 0.36413 0.16861 0.61786 0.0
C808 C 0.36546 0.16811 0.59055 0.0
C809 C 0.35235 0.16454 0.60394 0.0
C810 C 0.39062 0.1759 0.59131 0.0
C811 C 0.38917 0.17617 0.61843 0.0
C812 C 0.40233 0.17982 0.60519 0.0
C813 C 0.30427 0.12449 0.66489 0.0
C814 C 0.34991 0.16522 0.63155 0.0
C815 C 0.45692 0.20966 0.65689 0.0
C816 C 0.45028 0.18573 0.65942 0.0
C817 C 0.3496 0.14451 0.68888 0.0
C818 C 0.30943 0.16421 0.73364 0.0
C819 C 0.32068 0.16748 0.74768 0.0
C820 C 0.30729 0.16399 0.76093 0.0
C821 C 0.28237 0.1571 0.75993 0.0
C822 C 0.28463 0.15757 0.73284 0.0
C823 C 0.27117 0.15399 0.74595 0.0
C824 C 0.37034 0.2091 0.68666 0.0
C825 C 0.32391 0.1675 0.72009 0.0
H826 H 0.33303 0.15891 0.60355 0.0
H827 H 0.40113 0.17861 0.58119 0.0
H828 H 0.39852 0.17925 0.62903 0.0
H829 H 0.42167 0.18567 0.60568 0.0
H830 H 0.33982 0.17242 0.74826 0.0
H831 H 0.27166 0.15448 0.76995 0.0
H832 H 0.27568 0.15514 0.72217 0.0
H833 H 0.25203 0.14884 0.74526 0.0
Tb834 Tb 0.84961 0.16185 0.69181 0.0
C835 C 0.79472 0.19925 0.65346 0.0
C836 C 0.75202 0.16906 0.65547 0.0
C837 C 0.76342 0.21054 0.65118 0.0
C838 C 0.777 0.1758 0.65576 0.0
C839 C 0.78821 0.21687 0.65081 0.0
C840 C 0.74534 0.18664 0.65352 0.0
C841 C 0.8309 0.24508 0.64631 0.0
N842 N 0.81835 0.2045 0.65302 0.0
C843 C 0.83639 0.22691 0.64895 0.0
C844 C 0.80673 0.24012 0.64742 0.0
Tb845 Tb 0.82574 0.17376 0.65784 0.0
N846 N 0.78427 0.1594 0.65743 0.0
C847 C 0.7672 0.13554 0.65783 0.0
C848 C 0.73454 0.1448 0.6567 0.0
C849 C 0.74217 0.12794 0.65771 0.0
H850 H 0.85516 0.23102 0.64812 0.0
H851 H 0.7288 0.10908 0.65841 0.0
H852 H 0.72625 0.18186 0.65341 0.0
H853 H 0.84532 0.26289 0.64343 0.0
H854 H 0.77264 0.12219 0.65865 0.0
H855 H 0.94655 0.22648 0.69051 0.0
H856 H 0.71516 0.13887 0.65652 0.0
H857 H 0.82024 0.10469 0.70171 0.0
H858 H 0.90273 0.21342 0.69061 0.0
H859 H 0.83012 0.07285 0.70649 0.0
H860 H 0.75803 0.22384 0.6493 0.0
H861 H 0.9602 0.1967 0.69243 0.0
H862 H 0.94911 0.15375 0.69597 0.0
H863 H 0.80251 0.2542 0.64531 0.0
H864 H 0.91737 0.11184 0.70037 0.0
N865 N 0.89108 0.17623 0.69211 0.0
C866 C 0.90816 0.20007 0.69149 0.0
C867 C 0.94082 0.19079 0.69246 0.0
C868 C 0.92334 0.16656 0.69397 0.0
C869 C 0.93318 0.20764 0.69141 0.0
C870 C 0.89836 0.15984 0.69384 0.0
H871 H 0.87292 0.08153 0.70454 0.0
N872 N 0.85701 0.13115 0.69669 0.0
C873 C 0.84451 0.09064 0.70355 0.0
C874 C 0.88066 0.13641 0.69624 0.0
C875 C 0.839 0.10879 0.70085 0.0
C876 C 0.86868 0.09559 0.7024 0.0
C877 C 0.88718 0.11881 0.69893 0.0
O878 O 0.83251 0.15096 0.71284 0.0
O879 O 0.81976 0.16333 0.68103 0.0
O880 O 0.83057 0.2009 0.67426 0.0
O881 O 0.85984 0.19981 0.68975 0.0
O882 O 0.81072 0.1363 0.6958 0.0
O883 O 0.86498 0.18531 0.71016 0.0
O884 O 0.84254 0.18494 0.63675 0.0
O885 O 0.8556 0.17229 0.6686 0.0
O886 O 0.84469 0.13461 0.67547 0.0
O887 O 0.81555 0.13577 0.65986 0.0
O888 O 0.86458 0.19931 0.65385 0.0
O889 O 0.8108 0.15008 0.63958 0.0
C890 C 0.80171 0.14587 0.68717 0.0
C891 C 0.85826 0.16675 0.73387 0.0
C892 C 0.85668 0.16555 0.76125 0.0
C893 C 0.84866 0.16966 0.74741 0.0
C894 C 0.87454 0.15858 0.76131 0.0
C895 C 0.87617 0.15996 0.7342 0.0
C896 C 0.88424 0.15589 0.74787 0.0
C897 C 0.84767 0.2103 0.68479 0.0
C898 C 0.84889 0.17028 0.71957 0.0
C899 C 0.91196 0.12513 0.69847 0.0
C900 C 0.93003 0.14899 0.69597 0.0
C901 C 0.87364 0.18972 0.66241 0.0
C902 C 0.81679 0.16813 0.61577 0.0
C903 C 0.82568 0.16409 0.6023 0.0
C904 C 0.81673 0.16674 0.58838 0.0
C905 C 0.79881 0.17367 0.58822 0.0
C906 C 0.79888 0.17491 0.61534 0.0
C907 C 0.78999 0.17769 0.60161 0.0
C908 C 0.82767 0.12525 0.66489 0.0
C909 C 0.82656 0.16529 0.63011 0.0
H910 H 0.83466 0.17473 0.74714 0.0
H911 H 0.88128 0.15554 0.77177 0.0
H912 H 0.8839 0.15778 0.72395 0.0
H913 H 0.89808 0.15065 0.74804 0.0
H914 H 0.83931 0.15856 0.6027 0.0
H915 H 0.79178 0.17624 0.57773 0.0
H916 H 0.79177 0.17802 0.62556 0.0
H917 H 0.77623 0.18303 0.60135 0.0
H918 H 0.29717 0.82882 0.09884 0.0
H919 H 0.33393 0.85801 0.08546 0.0
H920 H 0.29037 0.84932 0.04613 0.0
H921 H 0.25363 0.81988 0.05938 0.0
H922 H 0.33306 0.85053 0.03903 0.0
H923 H 0.35168 0.92623 0.07674 0.0
H924 H 0.35021 0.90117 0.08638 0.0
H925 H 0.32331 0.8981 0.07726 0.0
C926 C 0.29543 0.83325 0.08737 0.0
C927 C 0.27249 0.82215 0.08019 0.0
C928 C 0.31643 0.84994 0.07974 0.0
C929 C 0.31486 0.85616 0.06486 0.0
C930 C 0.29203 0.84483 0.0576 0.0
H931 H 0.4259 0.98675 0.02371 0.0
H932 H 0.3874 0.95321 0.03271 0.0
C933 C 0.27106 0.828 0.06518 0.0
C934 C 0.33691 0.87467 0.0569 0.0
H935 H 0.38228 0.93309 0.05892 0.0
C936 C 0.3438 0.86863 0.04333 0.0
C937 C 0.35072 0.89836 0.06241 0.0
C938 C 0.34351 0.90647 0.07641 0.0
C939 C 0.36426 0.88556 0.03521 0.0
C940 C 0.37847 0.90907 0.04096 0.0
C941 C 0.37146 0.91508 0.05449 0.0
C942 C 0.40057 0.92801 0.03322 0.0
C943 C 0.37007 0.87824 0.02041 0.0
C944 C 0.42066 0.92491 0.0301 0.0
C945 C 0.44256 0.94401 0.02468 0.0
C946 C 0.44475 0.96654 0.02242 0.0
C947 C 0.42451 0.96944 0.02519 0.0
C948 C 0.40257 0.95033 0.03038 0.0
H949 H 0.35379 0.86239 0.01557 0.0
H950 H 0.37686 0.89308 0.01221 0.0
H951 H 0.38453 0.87346 0.02211 0.0
H952 H 0.41988 0.90812 0.03256 0.0
H953 H 0.45809 0.94145 0.02307 0.0
H954 H 0.21542 0.48631 0.07096 0.0
H955 H 0.18447 0.49323 0.05903 0.0
H956 H 0.12754 0.42483 0.07498 0.0
H957 H 0.15828 0.4179 0.08699 0.0
H958 H 0.15096 0.46847 0.03731 0.0
H959 H 0.10252 0.46812 0.08908 0.0
H960 H 0.13195 0.46982 0.08945 0.0
H961 H 0.10438 0.44143 0.08694 0.0
C962 C 0.19631 0.47271 0.07188 0.0
C963 C 0.18933 0.45164 0.08005 0.0
C964 C 0.17862 0.47674 0.06511 0.0
C965 C 0.15359 0.45981 0.06637 0.0
C966 C 0.14664 0.43852 0.07422 0.0
H967 H 0.01769 0.43839 0.02871 0.0
H968 H 0.05169 0.43457 0.03897 0.0
C969 C 0.16427 0.43454 0.08105 0.0
C970 C 0.13476 0.46404 0.05913 0.0
H971 H 0.08216 0.46551 0.06594 0.0
C972 C 0.13611 0.46813 0.04361 0.0
C973 C 0.1153 0.46359 0.06733 0.0
C974 C 0.11354 0.46075 0.08414 0.0
C975 C 0.1182 0.47107 0.03605 0.0
C976 C 0.09843 0.46992 0.04417 0.0
C977 C 0.09725 0.46621 0.0597 0.0
C978 C 0.07851 0.4721 0.03673 0.0
C979 C 0.11985 0.47432 0.01933 0.0
C980 C 0.08232 0.49446 0.03202 0.0
C981 C 0.06287 0.4967 0.02625 0.0
C982 C 0.03933 0.47653 0.02485 0.0
C983 C 0.03571 0.45415 0.02941 0.0
C984 C 0.05508 0.45195 0.03529 0.0
H985 H 0.13612 0.47437 0.01455 0.0
H986 H 0.10312 0.45954 0.0141 0.0
H987 H 0.12074 0.49145 0.01643 0.0
H988 H 0.10018 0.5103 0.03323 0.0
H989 H 0.06616 0.5143 0.02335 0.0
H990 H 0.55371 0.721 0.10476 0.0
H991 H 0.54474 0.68355 0.09248 0.0
H992 H 0.5652 0.71962 0.04985 0.0
H993 H 0.57533 0.75733 0.0621 0.0
H994 H 0.51166 0.65837 0.0705 0.0
H995 H 0.60575 0.68693 0.05104 0.0
H996 H 0.59929 0.7039 0.06453 0.0
H997 H 0.59471 0.70628 0.04484 0.0
C998 C 0.55665 0.72105 0.09281 0.0
C999 C 0.56538 0.7422 0.08443 0.0
C1000 C 0.55133 0.6996 0.0858 0.0
C1001 C 0.55467 0.69891 0.0703 0.0
C1002 C 0.56298 0.71987 0.06187 0.0
H1003 H 0.49208 0.57 0.01543 0.0
H1004 H 0.50175 0.60779 0.02738 0.0
C1005 C 0.56844 0.74134 0.06887 0.0
C1006 C 0.54904 0.67615 0.06292 0.0
H1007 H 0.57389 0.65007 0.04132 0.0
C1008 C 0.52527 0.65649 0.06416 0.0
C1009 C 0.56694 0.6737 0.05483 0.0
C1010 C 0.59316 0.69374 0.05383 0.0
C1011 C 0.5188 0.63448 0.05737 0.0
C1012 C 0.53646 0.6323 0.04883 0.0
C1013 C 0.56031 0.65188 0.04773 0.0
C1014 C 0.53083 0.60967 0.04127 0.0
C1015 C 0.49328 0.61366 0.05969 0.0
C1016 C 0.5445 0.59858 0.04474 0.0
C1017 C 0.5394 0.57727 0.03768 0.0
C1018 C 0.52052 0.56661 0.02698 0.0
C1019 C 0.50693 0.57783 0.02347 0.0
C1020 C 0.5122 0.59929 0.03045 0.0
H1021 H 0.48445 0.61633 0.0697 0.0
H1022 H 0.48185 0.61188 0.04977 0.0
H1023 H 0.49349 0.59666 0.06103 0.0
H1024 H 0.55901 0.60635 0.05303 0.0
H1025 H 0.55025 0.56916 0.04069 0.0
H1026 H 0.78906 0.26648 0.94424 0.0
H1027 H 0.81913 0.30426 0.95597 0.0
H1028 H 0.87774 0.29592 0.93783 0.0
H1029 H 0.84786 0.25807 0.92619 0.0
H1030 H 0.85612 0.31257 0.9769 0.0
H1031 H 0.89534 0.36346 0.92438 0.0
H1032 H 0.86663 0.33559 0.9248 0.0
H1033 H 0.89509 0.33554 0.9254 0.0
C1034 C 0.80835 0.27263 0.9428 0.0
C1035 C 0.81604 0.2593 0.93419 0.0
C1036 C 0.8255 0.29426 0.94946 0.0
C1037 C 0.85066 0.30307 0.94757 0.0
C1038 C 0.85842 0.28972 0.93914 0.0
H1039 H 0.98236 0.42987 0.97896 0.0
H1040 H 0.95276 0.39162 0.96756 0.0
C1041 C 0.8413 0.2681 0.93248 0.0
C1042 C 0.86879 0.32598 0.9547 0.0
H1043 H 0.91569 0.3822 0.94701 0.0
C1044 C 0.86909 0.32784 0.97038 0.0
C1045 C 0.88573 0.34583 0.94615 0.0
C1046 C 0.88564 0.34518 0.92924 0.0
C1047 C 0.88613 0.34892 0.97777 0.0
C1048 C 0.90303 0.3688 0.96922 0.0
C1049 C 0.90276 0.36692 0.95354 0.0
C1050 C 0.92091 0.39185 0.97631 0.0
C1051 C 0.88621 0.34955 0.99468 0.0
C1052 C 0.91281 0.40483 0.98483 0.0
C1053 C 0.92965 0.42666 0.99136 0.0
C1054 C 0.95496 0.43603 0.98946 0.0
C1055 C 0.96302 0.42315 0.98073 0.0
C1056 C 0.94614 0.40128 0.9742 0.0
H1057 H 0.87692 0.33126 0.99952 0.0
H1058 H 0.90519 0.35955 0.99914 0.0
H1059 H 0.87629 0.35873 0.99853 0.0
H1060 H 0.89343 0.39821 0.98629 0.0
H1061 H 0.92275 0.43633 0.99772 0.0
H1062 H 0.71602 0.53387 0.91808 0.0
H1063 H 0.67891 0.52736 0.93088 0.0
H1064 H 0.72074 0.55914 0.9711 0.0
H1065 H 0.75793 0.56559 0.9584 0.0
H1066 H 0.67704 0.51848 0.97711 0.0
H1067 H 0.66151 0.57855 0.94007 0.0
H1068 H 0.66327 0.55524 0.93015 0.0
H1069 H 0.68973 0.57783 0.93998 0.0
C1070 C 0.71738 0.53966 0.92961 0.0
C1071 C 0.74005 0.55043 0.93716 0.0
C1072 C 0.69612 0.53592 0.93693 0.0
C1073 C 0.69703 0.54312 0.9519 0.0
C1074 C 0.71953 0.55347 0.95955 0.0
H1075 H 0.58512 0.5652 0.99274 0.0
H1076 H 0.62333 0.56904 0.98332 0.0
C1077 C 0.74079 0.5571 0.95227 0.0
C1078 C 0.67463 0.54005 0.95956 0.0
H1079 H 0.62991 0.55506 0.95721 0.0
C1080 C 0.66675 0.52653 0.9728 0.0
C1081 C 0.66133 0.55077 0.95405 0.0
C1082 C 0.66948 0.5666 0.94037 0.0
C1083 C 0.64589 0.52329 0.98059 0.0
C1084 C 0.63223 0.53353 0.97486 0.0
C1085 C 0.64024 0.54712 0.96165 0.0
C1086 C 0.60986 0.53091 0.98239 0.0
C1087 C 0.63913 0.50943 0.99506 0.0
C1088 C 0.58953 0.50823 0.98534 0.0
C1089 C 0.56776 0.50607 0.99099 0.0
C1090 C 0.56585 0.52654 0.9937 0.0
C1091 C 0.58623 0.54916 0.99094 0.0
C1092 C 0.60803 0.55133 0.98549 0.0
H1093 H 0.65504 0.50904 1.00011 0.0
H1094 H 0.632 0.51727 1.00329 0.0
H1095 H 0.62467 0.49067 0.99283 0.0
H1096 H 0.59007 0.49214 0.98267 0.0
H1097 H 0.55216 0.48838 0.99256 0.0
H1098 H 0.43641 0.19032 0.9564 0.0
H1099 H 0.4471 0.1637 0.96965 0.0
H1100 H 0.46918 0.1464 0.92793 0.0
H1101 H 0.4596 0.17385 0.91466 0.0
H1102 H 0.42868 0.11604 0.96639 0.0
H1103 H 0.52819 0.16442 0.95447 0.0
H1104 H 0.5091 0.17745 0.95118 0.0
H1105 H 0.50971 0.15681 0.93785 0.0
C1106 C 0.4439 0.18113 0.95006 0.0
C1107 C 0.44736 0.18437 0.93448 0.0
C1108 C 0.44983 0.16581 0.95764 0.0
C1109 C 0.45934 0.15342 0.94982 0.0
C1110 C 0.46239 0.15622 0.93423 0.0
H1111 H 0.46155 0.02702 0.97787 0.0
H1112 H 0.45273 0.05639 0.96685 0.0
C1113 C 0.45658 0.17165 0.92664 0.0
C1114 C 0.46539 0.13704 0.95793 0.0
H1115 H 0.51153 0.12516 0.96463 0.0
C1116 C 0.44683 0.11811 0.96609 0.0
C1117 C 0.48919 0.14005 0.95774 0.0
C1118 C 0.51026 0.16092 0.94997 0.0
C1119 C 0.45127 0.10169 0.97375 0.0
C1120 C 0.47474 0.10399 0.97292 0.0
C1121 C 0.49348 0.1233 0.96511 0.0
C1122 C 0.48008 0.08624 0.97979 0.0
C1123 C 0.43082 0.08218 0.98276 0.0
C1124 C 0.49893 0.09342 0.9904 0.0
C1125 C 0.50429 0.07669 0.99661 0.0
C1126 C 0.49084 0.05248 0.99232 0.0
C1127 C 0.47214 0.04545 0.98157 0.0
C1128 C 0.46691 0.06219 0.97531 0.0
H1129 H 0.41691 0.08714 0.98596 0.0
H1130 H 0.42152 0.06563 0.97589 0.0
H1131 H 0.43793 0.07821 0.9931 0.0
H1132 H 0.50949 0.11197 0.99388 0.0
H1133 H 0.51913 0.08283 1.00462 0.0
H1134 H 0.74107 0.14931 0.9315 0.0
H1135 H 0.70484 0.12097 0.94572 0.0
H1136 H 0.69304 0.1785 0.9594 0.0
H1137 H 0.72912 0.20693 0.94513 0.0
H1138 H 0.69551 0.12498 0.97873 0.0
H1139 H 0.62682 0.12509 0.93945 0.0
H1140 H 0.65762 0.13393 0.93366 0.0
H1141 H 0.65209 0.1536 0.94511 0.0
C1142 C 0.73066 0.15589 0.93745 0.0
C1143 C 0.73792 0.18035 0.93716 0.0
C1144 C 0.71009 0.13973 0.94563 0.0
C1145 C 0.69625 0.14766 0.95353 0.0
C1146 C 0.70343 0.17203 0.95331 0.0
H1147 H 0.55383 0.06183 0.99644 0.0
H1148 H 0.59247 0.09609 0.98824 0.0
C1149 C 0.7241 0.18824 0.94522 0.0
C1150 C 0.67422 0.13036 0.96194 0.0
H1151 H 0.61179 0.10115 0.96096 0.0
C1152 C 0.67718 0.1198 0.97491 0.0
C1153 C 0.6504 0.12389 0.95699 0.0
C1154 C 0.64633 0.13454 0.943 0.0
C1155 C 0.65686 0.10273 0.98303 0.0
C1156 C 0.63296 0.09559 0.97779 0.0
C1157 C 0.63008 0.10663 0.965 0.0
C1158 C 0.61071 0.0756 0.98472 0.0
C1159 C 0.66124 0.09267 0.99719 0.0
C1160 C 0.60812 0.05273 0.98566 0.0
C1161 C 0.5862 0.03326 0.99057 0.0
C1162 C 0.56638 0.03621 0.99463 0.0
C1163 C 0.56899 0.05912 0.99384 0.0
C1164 C 0.59102 0.07867 0.98902 0.0
H1165 H 0.67907 0.10552 1.00241 0.0
H1166 H 0.64649 0.0881 1.00551 0.0
H1167 H 0.66177 0.07616 0.99443 0.0
H1168 H 0.62271 0.0497 0.98199 0.0
H1169 H 0.58445 0.01568 0.99078 0.0
H1170 H 0.82439 0.53105 0.91809 0.0
H1171 H 0.85476 0.52396 0.93054 0.0
H1172 H 0.85008 0.5598 0.97018 0.0
H1173 H 0.81934 0.56653 0.95785 0.0
H1174 H 0.89894 0.55501 0.94033 0.0
H1175 H 0.84482 0.50075 0.98865 0.0
H1176 H 0.83099 0.50715 0.97293 0.0
H1177 H 0.84589 0.52902 0.98756 0.0
C1178 C 0.82977 0.53735 0.92948 0.0
C1179 C 0.81939 0.54933 0.93698 0.0
C1180 C 0.84709 0.53321 0.93662 0.0
C1181 C 0.85452 0.54098 0.95142 0.0
C1182 C 0.84421 0.55299 0.95893 0.0
H1183 H 0.99274 0.56457 0.98864 0.0
H1184 H 0.95865 0.5687 0.97898 0.0
C1185 C 0.82669 0.55694 0.95184 0.0
C1186 C 0.87403 0.53766 0.9586 0.0
H1187 H 0.88787 0.51548 0.98962 0.0
C1188 C 0.89641 0.54626 0.95108 0.0
C1189 C 0.87076 0.52597 0.97256 0.0
C1190 C 0.84673 0.51497 0.98083 0.0
C1191 C 0.91562 0.54381 0.95714 0.0
C1192 C 0.91272 0.53303 0.97137 0.0
C1193 C 0.89023 0.52405 0.97882 0.0
C1194 C 0.93277 0.53065 0.97852 0.0
C1195 C 0.93867 0.55238 0.94805 0.0
C1196 C 0.92936 0.50797 0.98208 0.0
C1197 C 0.94878 0.50563 0.98778 0.0
C1198 C 0.97184 0.52597 0.99026 0.0
C1199 C 0.97508 0.54864 0.98695 0.0
C1200 C 0.95567 0.55099 0.98134 0.0
H1201 H 0.93536 0.5537 0.93594 0.0
H1202 H 0.95264 0.57045 0.95199 0.0
H1203 H 0.94624 0.54021 0.94931 0.0
H1204 H 0.91189 0.49201 0.98002 0.0
H1205 H 0.94588 0.4879 0.98984 0.0
H1206 H 0.45947 0.28328 0.91298 0.0
H1207 H 0.46841 0.32071 0.92525 0.0
H1208 H 0.44706 0.28448 0.96781 0.0
H1209 H 0.43687 0.24676 0.95555 0.0
H1210 H 0.42798 0.31319 0.96363 0.0
H1211 H 0.52732 0.3628 0.95109 0.0
H1212 H 0.50854 0.35122 0.93465 0.0
H1213 H 0.50863 0.3309 0.9484 0.0
C1214 C 0.45647 0.28323 0.92493 0.0
C1215 C 0.44758 0.26204 0.9333 0.0
C1216 C 0.46191 0.30471 0.93196 0.0
C1217 C 0.45887 0.30546 0.94749 0.0
C1218 C 0.44975 0.28432 0.95583 0.0
H1219 H 0.51902 0.43446 1.00164 0.0
H1220 H 0.50917 0.39632 0.99016 0.0
C1221 C 0.44414 0.26283 0.94882 0.0
C1222 C 0.46462 0.32814 0.95503 0.0
H1223 H 0.51036 0.38556 0.96109 0.0
C1224 C 0.44602 0.329 0.96313 0.0
C1225 C 0.48827 0.3486 0.95456 0.0
C1226 C 0.5094 0.34834 0.94684 0.0
C1227 C 0.45031 0.3499 0.9706 0.0
C1228 C 0.47369 0.37065 0.9696 0.0
C1229 C 0.49239 0.36968 0.96169 0.0
C1230 C 0.47919 0.39352 0.97677 0.0
C1231 C 0.42991 0.34937 0.97971 0.0
C1232 C 0.46578 0.40472 0.97294 0.0
C1233 C 0.47107 0.42633 0.97969 0.0
C1234 C 0.49011 0.43728 0.99027 0.0
C1235 C 0.50387 0.42626 0.99382 0.0
C1236 C 0.49841 0.40455 0.98717 0.0
H1237 H 0.41604 0.33082 0.9829 0.0
H1238 H 0.43708 0.36028 0.99007 0.0
H1239 H 0.42054 0.35683 0.97293 0.0
H1240 H 0.45131 0.39685 0.96464 0.0
H1241 H 0.46027 0.43443 0.97655 0.0
H1242 H 0.22113 0.7366 0.07134 0.0
H1243 H 0.19153 0.69933 0.05892 0.0
H1244 H 0.13221 0.70669 0.07689 0.0
H1245 H 0.16163 0.74436 0.08889 0.0
H1246 H 0.1551 0.65766 0.07191 0.0
H1247 H 0.1149 0.69513 0.03248 0.0
H1248 H 0.14319 0.71364 0.04242 0.0
H1249 H 0.11432 0.70294 0.05173 0.0
C1250 C 0.20179 0.73048 0.07246 0.0
C1251 C 0.19376 0.74354 0.08106 0.0
C1252 C 0.1849 0.7091 0.06544 0.0
C1253 C 0.15968 0.70042 0.0668 0.0
C1254 C 0.15159 0.71329 0.07545 0.0
H1255 H 0.02869 0.57236 0.03649 0.0
H1256 H 0.0583 0.61028 0.04824 0.0
C1257 C 0.16844 0.73468 0.08246 0.0
C1258 C 0.14183 0.67751 0.05955 0.0
H1259 H 0.09466 0.65275 0.03435 0.0
C1260 C 0.14198 0.65659 0.06363 0.0
C1261 C 0.12468 0.67617 0.04878 0.0
C1262 C 0.12433 0.69819 0.04347 0.0
C1263 C 0.12516 0.63428 0.05744 0.0
C1264 C 0.10799 0.63294 0.04671 0.0
C1265 C 0.10782 0.65384 0.04261 0.0
C1266 C 0.09013 0.61 0.03952 0.0
C1267 C 0.12556 0.61225 0.06268 0.0
C1268 C 0.09823 0.59743 0.03059 0.0
C1269 C 0.0814 0.57575 0.0239 0.0
C1270 C 0.05609 0.56631 0.02588 0.0
C1271 C 0.04803 0.57907 0.03473 0.0
C1272 C 0.06491 0.60078 0.04143 0.0
H1273 H 0.13543 0.61538 0.07351 0.0
H1274 H 0.10669 0.59692 0.06399 0.0
H1275 H 0.1351 0.60725 0.05421 0.0
H1276 H 0.11761 0.60443 0.02877 0.0
H1277 H 0.0883 0.56633 0.01728 0.0
H1278 H 0.2526 0.43859 0.05831 0.0
H1279 H 0.28994 0.44538 0.04565 0.0
H1280 H 0.33141 0.47672 0.08606 0.0
H1281 H 0.29413 0.46984 0.09882 0.0
H1282 H 0.33374 0.48593 0.03981 0.0
H1283 H 0.34867 0.42547 0.07684 0.0
H1284 H 0.32052 0.4263 0.07686 0.0
H1285 H 0.34694 0.44877 0.08678 0.0
C1286 C 0.2697 0.4471 0.06448 0.0
C1287 C 0.27029 0.4535 0.07963 0.0
C1288 C 0.29104 0.45092 0.05723 0.0
C1289 C 0.31347 0.46118 0.06495 0.0
C1290 C 0.31426 0.46821 0.07995 0.0
H1291 H 0.4585 0.51563 0.02456 0.0
H1292 H 0.4206 0.51196 0.03439 0.0
C1293 C 0.2929 0.46429 0.08724 0.0
C1294 C 0.33592 0.46424 0.05737 0.0
H1295 H 0.38045 0.44897 0.05981 0.0
C1296 C 0.34393 0.4778 0.04415 0.0
C1297 C 0.34909 0.45339 0.0629 0.0
C1298 C 0.34078 0.43748 0.07654 0.0
C1299 C 0.36481 0.48098 0.03641 0.0
C1300 C 0.37835 0.47063 0.04216 0.0
C1301 C 0.37021 0.45699 0.05535 0.0
C1302 C 0.40075 0.47319 0.03469 0.0
C1303 C 0.3717 0.49488 0.02195 0.0
C1304 C 0.40254 0.45273 0.03163 0.0
C1305 C 0.42434 0.45486 0.02623 0.0
C1306 C 0.44475 0.47745 0.02346 0.0
C1307 C 0.44287 0.49795 0.02613 0.0
C1308 C 0.42112 0.49584 0.03175 0.0
H1309 H 0.35584 0.49529 0.01685 0.0
H1310 H 0.38615 0.51363 0.02422 0.0
H1311 H 0.37888 0.48705 0.01374 0.0
H1312 H 0.38721 0.43504 0.0338 0.0
H1313 H 0.42542 0.4388 0.02445 0.0
H1314 H 0.57558 0.81354 0.06161 0.0
H1315 H 0.56504 0.84047 0.04865 0.0
H1316 H 0.54433 0.85822 0.09071 0.0
H1317 H 0.55384 0.83046 0.10372 0.0
H1318 H 0.51084 0.84923 0.06815 0.0
H1319 H 0.60509 0.9131 0.04908 0.0
H1320 H 0.59448 0.88274 0.04348 0.0
H1321 H 0.59871 0.89056 0.06305 0.0
C1322 C 0.56858 0.823 0.06811 0.0
C1323 C 0.56556 0.81986 0.08372 0.0
C1324 C 0.56284 0.8386 0.0607 0.0
C1325 C 0.55428 0.85161 0.06876 0.0
C1326 C 0.55107 0.84843 0.08431 0.0
H1327 H 0.54955 0.97611 0.03963 0.0
H1328 H 0.55793 0.94697 0.05139 0.0
C1329 C 0.55671 0.83274 0.09174 0.0
C1330 C 0.54841 0.86833 0.06094 0.0
H1331 H 0.5732 0.91839 0.03915 0.0
C1332 C 0.52446 0.8644 0.06182 0.0
C1333 C 0.5663 0.8882 0.05282 0.0
C1334 C 0.59264 0.89409 0.05214 0.0
C1335 C 0.51786 0.87978 0.05476 0.0
C1336 C 0.53561 0.8993 0.04633 0.0
C1337 C 0.55957 0.90325 0.04548 0.0
C1338 C 0.53016 0.91667 0.03897 0.0
C1339 C 0.49217 0.87535 0.05673 0.0
C1340 C 0.51186 0.90934 0.02796 0.0
C1341 C 0.50678 0.92599 0.02129 0.0
C1342 C 0.52022 0.9503 0.02534 0.0
C1343 C 0.53879 0.95757 0.03621 0.0
C1344 C 0.54369 0.94093 0.04294 0.0
H1345 H 0.48289 0.86359 0.06647 0.0
H1346 H 0.49219 0.89244 0.0583 0.0
H1347 H 0.48127 0.86639 0.04655 0.0
H1348 H 0.5015 0.89077 0.02452 0.0
H1349 H 0.4922 0.91973 0.01308 0.0
H1350 H 0.93398 0.1867 0.41821 0.0
H1351 H 0.97045 0.21537 0.40429 0.0
H1352 H 0.98367 0.15848 0.39123 0.0
H1353 H 0.94728 0.12971 0.40515 0.0
H1354 H 0.02568 0.20323 0.40419 0.0
H1355 H 0.97784 0.21861 0.35683 0.0
H1356 H 0.96737 0.21985 0.37538 0.0
H1357 H 0.96331 0.19204 0.36831 0.0
C1358 C 0.94472 0.18033 0.41242 0.0
C1359 C 0.93775 0.15595 0.41274 0.0
C1360 C 0.9654 0.19667 0.40439 0.0
C1361 C 0.97953 0.18895 0.39661 0.0
C1362 C 0.97285 0.16472 0.39707 0.0
H1363 H 0.12326 0.27424 0.35406 0.0
H1364 H 0.08479 0.24008 0.36253 0.0
C1365 C 0.95205 0.14833 0.40497 0.0
C1366 C 1.00171 0.20633 0.38836 0.0
H1367 H 0.02084 0.24393 0.35827 0.0
C1368 C 0.02471 0.21202 0.39407 0.0
C1369 C 1.00025 0.2177 0.3752 0.0
C1370 C 0.9759 0.21171 0.36844 0.0
C1371 C 0.04641 0.22952 0.3873 0.0
C1372 C 0.045 0.24112 0.37417 0.0
C1373 C 0.02192 0.23498 0.36828 0.0
C1374 C 0.06719 0.2609 0.36707 0.0
C1375 C 0.07055 0.23614 0.39467 0.0
C1376 C 0.06963 0.28369 0.36597 0.0
C1377 C 0.09135 0.30306 0.36075 0.0
C1378 C 0.11098 0.30001 0.35637 0.0
C1379 C 0.1083 0.27707 0.35702 0.0
C1380 C 0.08642 0.25759 0.3621 0.0
H1381 H 0.06814 0.22996 0.40648 0.0
H1382 H 0.07937 0.22755 0.38848 0.0
H1383 H 0.08311 0.2558 0.39451 0.0
H1384 H 0.05505 0.28669 0.36972 0.0
H1385 H 0.09309 0.32064 0.36052 0.0
H1386 H 0.82376 0.74924 0.4184 0.0
H1387 H 0.7932 0.75622 0.40616 0.0
H1388 H 0.85016 0.82594 0.39206 0.0
H1389 H 0.8809 0.81883 0.40407 0.0
H1390 H 0.78077 0.78923 0.41184 0.0
H1391 H 0.81387 0.8006 0.35324 0.0
H1392 H 0.8252 0.7893 0.36781 0.0
H1393 H 0.83661 0.82093 0.36617 0.0
C1394 C 0.8298 0.76606 0.41268 0.0
C1395 C 0.85479 0.78347 0.41221 0.0
C1396 C 0.8123 0.77001 0.40563 0.0
C1397 C 0.81932 0.79147 0.39796 0.0
C1398 C 0.84427 0.80897 0.39753 0.0
H1399 H 0.7303 0.84764 0.35961 0.0
H1400 H 0.76423 0.84321 0.36921 0.0
C1401 C 0.86184 0.80493 0.40447 0.0
C1402 C 0.8003 0.79574 0.39101 0.0
H1403 H 0.78205 0.80927 0.35808 0.0
C1404 C 0.78105 0.7935 0.40007 0.0
C1405 C 0.80062 0.80143 0.37564 0.0
C1406 C 0.82004 0.80299 0.3651 0.0
C1407 C 0.76224 0.79677 0.39422 0.0
C1408 C 0.76253 0.80233 0.37889 0.0
C1409 C 0.78189 0.80497 0.36984 0.0
C1410 C 0.74247 0.80487 0.37207 0.0
C1411 C 0.74217 0.7944 0.4045 0.0
C1412 C 0.71908 0.78476 0.37029 0.0
C1413 C 0.69978 0.78722 0.3646 0.0
C1414 C 0.70356 0.80979 0.3604 0.0
C1415 C 0.72698 0.82993 0.36223 0.0
C1416 C 0.74636 0.82744 0.36783 0.0
H1417 H 0.74694 0.79447 0.4165 0.0
H1418 H 0.7383 0.80918 0.40256 0.0
H1419 H 0.72515 0.77729 0.40208 0.0
H1420 H 0.71571 0.76718 0.37348 0.0
H1421 H 0.6818 0.77148 0.36354 0.0
H1422 H 0.19046 0.06547 0.40854 0.0
H1423 H 0.18221 0.0287 0.3956 0.0
H1424 H 0.2502 0.03697 0.4123 0.0
H1425 H 0.25884 0.07397 0.42508 0.0
H1426 H 0.21262 0.02332 0.37358 0.0
H1427 H 0.19764 0.96794 0.42438 0.0
H1428 H 0.19653 0.99536 0.42476 0.0
H1429 H 0.22549 0.99637 0.42429 0.0
C1430 C 0.20374 0.05955 0.40939 0.0
C1431 C 0.22529 0.07261 0.41787 0.0
C1432 C 0.19893 0.0385 0.40205 0.0
C1433 C 0.21547 0.03005 0.40316 0.0
C1434 C 0.23702 0.04302 0.41155 0.0
H1435 H 0.21994 0.9068 0.36932 0.0
H1436 H 0.22845 0.94434 0.38113 0.0
C1437 C 0.24188 0.06411 0.41887 0.0
C1438 C 0.21039 0.00785 0.39529 0.0
H1439 H 0.19928 0.95107 0.40114 0.0
C1440 C 0.2096 0.00745 0.37957 0.0
C1441 C 0.20652 0.98729 0.40319 0.0
C1442 C 0.20636 0.98656 0.42009 0.0
C1443 C 0.2055 0.98709 0.37149 0.0
C1444 C 0.20162 0.96651 0.37939 0.0
C1445 C 0.20232 0.96691 0.39512 0.0
C1446 C 0.19687 0.94431 0.37161 0.0
C1447 C 0.20596 0.988 0.35459 0.0
C1448 C 0.17623 0.93182 0.36238 0.0
C1449 C 0.17134 0.91038 0.35555 0.0
C1450 C 0.18692 0.90095 0.35795 0.0
C1451 C 0.20758 0.91355 0.36721 0.0
C1452 C 0.21249 0.93501 0.37398 0.0
H1453 H 0.21553 0.00671 0.35041 0.0
H1454 H 0.21512 0.97854 0.34991 0.0
H1455 H 0.18689 0.97906 0.35028 0.0
H1456 H 0.16362 0.9384 0.36069 0.0
H1457 H 0.15505 0.90095 0.34869 0.0
H1458 H 0.45567 0.59959 0.27746 0.0
H1459 H 0.48545 0.63733 0.28937 0.0
H1460 H 0.54445 0.62804 0.27302 0.0
H1461 H 0.51486 0.59024 0.2612 0.0
H1462 H 0.52139 0.64552 0.31115 0.0
H1463 H 0.56327 0.69557 0.25874 0.0
H1464 H 0.53437 0.66788 0.25894 0.0
H1465 H 0.5626 0.66749 0.26024 0.0
C1466 C 0.47498 0.60552 0.27646 0.0
C1467 C 0.48288 0.59196 0.26829 0.0
C1468 C 0.49196 0.62712 0.28322 0.0
C1469 C 0.51716 0.63566 0.28187 0.0
C1470 C 0.52511 0.62205 0.2739 0.0
H1471 H 0.64828 0.76196 0.31421 0.0
H1472 H 0.61882 0.72362 0.30284 0.0
C1473 C 0.50816 0.60046 0.26715 0.0
C1474 C 0.53512 0.65858 0.28904 0.0
H1475 H 0.58277 0.71446 0.28153 0.0
C1476 C 0.53476 0.66064 0.30469 0.0
C1477 C 0.55256 0.67823 0.28057 0.0
C1478 C 0.55318 0.67736 0.26368 0.0
C1479 C 0.55165 0.68174 0.31212 0.0
C1480 C 0.56907 0.70141 0.30365 0.0
C1481 C 0.56944 0.69932 0.288 0.0
C1482 C 0.58685 0.72445 0.31076 0.0
C1483 C 0.55102 0.6826 0.32901 0.0
C1484 C 0.57865 0.73778 0.31881 0.0
C1485 C 0.5954 0.75967 0.32531 0.0
C1486 C 0.62074 0.76873 0.32386 0.0
C1487 C 0.62892 0.75547 0.31562 0.0
C1488 C 0.61211 0.73355 0.30911 0.0
H1489 H 0.5413 0.66438 0.33394 0.0
H1490 H 0.56981 0.69245 0.33376 0.0
H1491 H 0.54118 0.69206 0.33245 0.0
H1492 H 0.55925 0.7314 0.3199 0.0
H1493 H 0.58842 0.76961 0.33128 0.0
H1494 H 0.40966 0.91809 0.26453 0.0
H1495 H 0.37245 0.91114 0.27739 0.0
H1496 H 0.36082 0.84316 0.29326 0.0
H1497 H 0.39816 0.85011 0.28053 0.0
H1498 H 0.32578 0.87608 0.27309 0.0
H1499 H 0.35296 0.8718 0.33167 0.0
H1500 H 0.37465 0.88258 0.31646 0.0
H1501 H 0.35498 0.85096 0.31924 0.0
C1502 C 0.39918 0.90165 0.27075 0.0
C1503 C 0.40696 0.88469 0.27151 0.0
C1504 C 0.37795 0.89773 0.27816 0.0
C1505 C 0.36397 0.8768 0.28654 0.0
C1506 C 0.37159 0.85975 0.28724 0.0
H1507 H 0.21862 0.82142 0.32682 0.0
H1508 H 0.2571 0.8253 0.31759 0.0
C1509 C 0.39292 0.86372 0.2799 0.0
C1510 C 0.34091 0.87249 0.29392 0.0
H1511 H 0.31162 0.86179 0.32773 0.0
C1512 C 0.32277 0.87301 0.28504 0.0
C1513 C 0.33684 0.86838 0.30954 0.0
C1514 C 0.35596 0.8686 0.31983 0.0
C1515 C 0.30083 0.86958 0.29129 0.0
C1516 C 0.29687 0.86565 0.30687 0.0
C1517 C 0.31473 0.86474 0.31578 0.0
C1518 C 0.27465 0.8635 0.31404 0.0
C1519 C 0.28191 0.87018 0.28121 0.0
C1520 C 0.27201 0.88375 0.31542 0.0
C1521 C 0.25023 0.88161 0.32084 0.0
C1522 C 0.23073 0.85923 0.32513 0.0
C1523 C 0.23353 0.83899 0.324 0.0
C1524 C 0.25545 0.84116 0.31865 0.0
H1525 H 0.28579 0.86923 0.26916 0.0
H1526 H 0.26337 0.85509 0.28383 0.0
H1527 H 0.28174 0.88709 0.28315 0.0
H1528 H 0.28661 0.90114 0.31193 0.0
H1529 H 0.24841 0.89743 0.32141 0.0
H1530 H 0.10059 0.52259 0.28901 0.0
H1531 H 0.11128 0.49597 0.30219 0.0
H1532 H 0.13335 0.47879 0.26042 0.0
H1533 H 0.12379 0.50633 0.24721 0.0
H1534 H 0.09315 0.4486 0.29918 0.0
H1535 H 0.1925 0.49682 0.28674 0.0
H1536 H 0.17335 0.50978 0.28341 0.0
H1537 H 0.17376 0.48886 0.27021 0.0
C1538 C 0.10807 0.51344 0.28264 0.0
C1539 C 0.11161 0.51682 0.26707 0.0
C1540 C 0.114 0.49809 0.29019 0.0
C1541 C 0.12355 0.48575 0.28234 0.0
C1542 C 0.12655 0.48858 0.26675 0.0
H1543 H 0.12614 0.36001 0.31149 0.0
H1544 H 0.11721 0.38915 0.30029 0.0
C1545 C 0.12076 0.50407 0.25919 0.0
C1546 C 0.12973 0.46946 0.29048 0.0
H1547 H 0.17607 0.45789 0.29733 0.0
C1548 C 0.11132 0.45071 0.29884 0.0
C1549 C 0.15356 0.47251 0.29027 0.0
C1550 C 0.1745 0.49322 0.2823 0.0
C1551 C 0.11592 0.43455 0.30669 0.0
C1552 C 0.13941 0.43689 0.30586 0.0
C1553 C 0.158 0.456 0.29783 0.0
C1554 C 0.14487 0.41929 0.31288 0.0
C1555 C 0.09563 0.4153 0.31593 0.0
C1556 C 0.16392 0.42668 0.32337 0.0
C1557 C 0.16936 0.41006 0.3297 0.0
C1558 C 0.15579 0.38575 0.32563 0.0
C1559 C 0.13685 0.37851 0.31502 0.0
C1560 C 0.13155 0.39514 0.30866 0.0
H1561 H 0.08182 0.42038 0.31914 0.0
H1562 H 0.08615 0.39858 0.30923 0.0
H1563 H 0.10291 0.41155 0.32628 0.0
H1564 H 0.17459 0.44531 0.32666 0.0
H1565 H 0.18436 0.41634 0.33761 0.0
H1566 H 0.4074 0.48243 0.26485 0.0
H1567 H 0.37072 0.45419 0.27872 0.0
H1568 H 0.35857 0.51183 0.29161 0.0
H1569 H 0.39508 0.54017 0.27763 0.0
H1570 H 0.36078 0.45765 0.31106 0.0
H1571 H 0.29261 0.45909 0.27197 0.0
H1572 H 0.32356 0.46834 0.26631 0.0
H1573 H 0.31761 0.48751 0.27798 0.0
C1574 C 0.39678 0.48905 0.27051 0.0
C1575 C 0.40408 0.51351 0.27009 0.0
C1576 C 0.37595 0.47294 0.27851 0.0
C1577 C 0.36189 0.48093 0.28609 0.0
C1578 C 0.36909 0.5053 0.28572 0.0
H1579 H 0.21922 0.39534 0.32891 0.0
H1580 H 0.25795 0.42954 0.32073 0.0
C1581 C 0.39001 0.52146 0.27781 0.0
C1582 C 0.33973 0.46368 0.29443 0.0
H1583 H 0.27732 0.43509 0.29345 0.0
C1584 C 0.34251 0.45275 0.30727 0.0
C1585 C 0.31599 0.45757 0.28953 0.0
C1586 C 0.31206 0.46856 0.27564 0.0
C1587 C 0.3221 0.43565 0.3153 0.0
C1588 C 0.29827 0.42887 0.31011 0.0
C1589 C 0.29556 0.44029 0.29746 0.0
C1590 C 0.27591 0.40886 0.31692 0.0
C1591 C 0.32634 0.42514 0.32931 0.0
C1592 C 0.27312 0.38589 0.31764 0.0
C1593 C 0.25117 0.36646 0.32255 0.0
C1594 C 0.23152 0.36955 0.32681 0.0
C1595 C 0.23428 0.39253 0.32617 0.0
C1596 C 0.25635 0.41205 0.32135 0.0
H1597 H 0.34415 0.43781 0.33463 0.0
H1598 H 0.31155 0.42037 0.33762 0.0
H1599 H 0.32685 0.4087 0.32632 0.0
H1600 H 0.28759 0.38277 0.31385 0.0
H1601 H 0.24928 0.34882 0.32263 0.0
H1602 H 0.48992 0.86376 0.25179 0.0
H1603 H 0.5205 0.85661 0.26391 0.0
H1604 H 0.51714 0.89307 0.30362 0.0
H1605 H 0.48618 0.89983 0.29164 0.0
H1606 H 0.565 0.88783 0.2732 0.0
H1607 H 0.51225 0.83416 0.32207 0.0
H1608 H 0.49798 0.8404 0.30652 0.0
H1609 H 0.51333 0.86243 0.321 0.0
C1610 C 0.49561 0.87014 0.26314 0.0
C1611 C 0.48557 0.88232 0.27076 0.0
C1612 C 0.51305 0.86599 0.27008 0.0
C1613 C 0.52094 0.87395 0.2848 0.0
C1614 C 0.51092 0.88612 0.29244 0.0
H1615 H 0.65993 0.89742 0.32074 0.0
H1616 H 0.62597 0.90172 0.31101 0.0
C1617 C 0.49328 0.89008 0.28555 0.0
C1618 C 0.54062 0.87069 0.29173 0.0
H1619 H 0.55529 0.84884 0.32255 0.0
C1620 C 0.56278 0.87919 0.28396 0.0
C1621 C 0.53773 0.85917 0.30571 0.0
C1622 C 0.51395 0.84829 0.31425 0.0
C1623 C 0.58213 0.87678 0.28979 0.0
C1624 C 0.57962 0.86615 0.30403 0.0
C1625 C 0.55736 0.8573 0.31173 0.0
C1626 C 0.59978 0.86373 0.31094 0.0
C1627 C 0.6049 0.88519 0.28044 0.0
C1628 C 0.5962 0.84105 0.31468 0.0
C1629 C 0.61552 0.83863 0.32042 0.0
C1630 C 0.63868 0.85889 0.32278 0.0
C1631 C 0.64219 0.88156 0.31916 0.0
C1632 C 0.62284 0.884 0.31351 0.0
H1633 H 0.60122 0.88633 0.26837 0.0
H1634 H 0.61899 0.90333 0.28421 0.0
H1635 H 0.61251 0.87304 0.28162 0.0
H1636 H 0.5786 0.82515 0.31279 0.0
H1637 H 0.61243 0.82089 0.32269 0.0
H1638 H 0.12434 0.61653 0.24679 0.0
H1639 H 0.13347 0.65361 0.25961 0.0
H1640 H 0.11149 0.61593 0.30168 0.0
H1641 H 0.10111 0.57858 0.28886 0.0
H1642 H 0.09287 0.64499 0.29819 0.0
H1643 H 0.1922 0.69467 0.28576 0.0
H1644 H 0.17354 0.68378 0.26922 0.0
H1645 H 0.1734 0.66289 0.28262 0.0
C1646 C 0.12123 0.61608 0.25875 0.0
C1647 C 0.11212 0.59459 0.26681 0.0
C1648 C 0.12679 0.63736 0.26609 0.0
C1649 C 0.12365 0.63762 0.28165 0.0
C1650 C 0.11428 0.61617 0.28969 0.0
H1651 H 0.18407 0.76685 0.33611 0.0
H1652 H 0.1742 0.72845 0.32498 0.0
C1653 C 0.10855 0.59488 0.28235 0.0
C1654 C 0.12949 0.66009 0.28953 0.0
H1655 H 0.17527 0.71737 0.29597 0.0
C1656 C 0.11092 0.66079 0.29777 0.0
C1657 C 0.15316 0.68054 0.28918 0.0
C1658 C 0.17429 0.68042 0.28135 0.0
C1659 C 0.11524 0.68154 0.30544 0.0
C1660 C 0.13859 0.70232 0.30452 0.0
C1661 C 0.1573 0.70149 0.29653 0.0
C1662 C 0.14398 0.7252 0.31165 0.0
C1663 C 0.09484 0.68083 0.31465 0.0
C1664 C 0.13039 0.7362 0.30777 0.0
C1665 C 0.1357 0.75794 0.3143 0.0
C1666 C 0.15495 0.76929 0.32471 0.0
C1667 C 0.1688 0.7584 0.32839 0.0
C1668 C 0.16331 0.73653 0.32194 0.0
H1669 H 0.08116 0.66224 0.3179 0.0
H1670 H 0.10203 0.69181 0.32499 0.0
H1671 H 0.08523 0.68808 0.30792 0.0
H1672 H 0.11582 0.7281 0.29954 0.0
H1673 H 0.1248 0.7659 0.31107 0.0
H1674 H 0.85612 0.09413 0.39433 0.0
H1675 H 0.82561 0.05673 0.38239 0.0
H1676 H 0.8296 0.01689 0.42003 0.0
H1677 H 0.85932 0.05435 0.43224 0.0
H1678 H 0.82716 0.01943 0.37272 0.0
H1679 H 0.75746 0.98916 0.41746 0.0
H1680 H 0.78396 0.01876 0.41734 0.0
H1681 H 0.78616 0.99377 0.42444 0.0
C1682 C 0.8504 0.07735 0.40004 0.0
C1683 C 0.85988 0.07707 0.41424 0.0
C1684 C 0.83297 0.05601 0.39323 0.0
C1685 C 0.82485 0.03396 0.40044 0.0
C1686 C 0.8349 0.03366 0.41445 0.0
H1687 H 0.7529 0.89614 0.35522 0.0
H1688 H 0.78201 0.93444 0.36654 0.0
C1689 C 0.852 0.05504 0.42138 0.0
C1690 C 0.80631 0.01132 0.39313 0.0
H1691 H 0.75185 0.96007 0.39894 0.0
C1692 C 0.8106 0.00653 0.37842 0.0
C1693 C 0.78443 0.99466 0.40042 0.0
C1694 C 0.77759 0.99946 0.41572 0.0
C1695 C 0.79391 0.98541 0.37094 0.0
C1696 C 0.77273 0.96813 0.37856 0.0
C1697 C 0.76821 0.97313 0.39315 0.0
C1698 C 0.755 0.94477 0.37164 0.0
C1699 C 0.79897 0.98216 0.35483 0.0
C1700 C 0.7299 0.93728 0.37125 0.0
C1701 C 0.71309 0.91507 0.36509 0.0
C1702 C 0.72109 0.90002 0.35908 0.0
C1703 C 0.74618 0.90748 0.35955 0.0
C1704 C 0.76291 0.92949 0.36592 0.0
H1705 H 0.81075 0.99966 0.3493 0.0
H1706 H 0.80883 0.97195 0.35447 0.0
H1707 H 0.78176 0.97221 0.34827 0.0
H1708 H 0.72331 0.94867 0.37566 0.0
H1709 H 0.69388 0.90982 0.3649 0.0
H1710 H 0.94411 0.81962 0.40383 0.0
H1711 H 0.98135 0.82711 0.39055 0.0
H1712 H 0.9692 0.75797 0.40416 0.0
H1713 H 0.93199 0.75032 0.41741 0.0
H1714 H 0.02378 0.8248 0.40415 0.0
H1715 H 0.97845 0.76122 0.357 0.0
H1716 H 0.963 0.77317 0.36804 0.0
H1717 H 0.96754 0.74986 0.37549 0.0
C1718 C 0.9493 0.80596 0.40391 0.0
C1719 C 0.93507 0.78436 0.41169 0.0
C1720 C 0.97061 0.8103 0.39637 0.0
C1721 C 0.9779 0.79301 0.39625 0.0
C1722 C 0.96377 0.77146 0.40399 0.0
H1723 H 0.09374 0.77337 0.36171 0.0
H1724 H 0.05565 0.76996 0.37102 0.0
C1725 C 0.94262 0.7672 0.41166 0.0
C1726 C 1.0006 0.79762 0.38836 0.0
H1727 H 0.02143 0.77832 0.35921 0.0
C1728 C 0.02333 0.81483 0.39424 0.0
C1729 C 0.99992 0.78452 0.37547 0.0
C1730 C 0.97596 0.76625 0.3685 0.0
C1731 C 0.04544 0.81866 0.38793 0.0
C1732 C 0.0448 0.80538 0.37508 0.0
C1733 C 0.02199 0.78854 0.36902 0.0
C1734 C 0.06747 0.80754 0.36837 0.0
C1735 C 0.06919 0.83611 0.39553 0.0
C1736 C 0.08671 0.82969 0.36344 0.0
C1737 C 0.10864 0.83168 0.35827 0.0
C1738 C 0.11144 0.81142 0.35749 0.0
C1739 C 0.09194 0.78921 0.36201 0.0
C1740 C 0.07016 0.78725 0.36731 0.0
H1741 H 0.06624 0.83999 0.40723 0.0
H1742 H 0.0821 0.82914 0.39571 0.0
H1743 H 0.07787 0.85324 0.38927 0.0
H1744 H 0.08496 0.84553 0.36381 0.0
H1745 H 0.12348 0.84914 0.35523 0.0
H1746 H 0.19075 0.12308 0.40809 0.0
H1747 H 0.1826 0.1511 0.39435 0.0
H1748 H 0.25013 0.21013 0.411 0.0
H1749 H 0.25896 0.18217 0.42428 0.0
H1750 H 0.17696 0.18786 0.40506 0.0
H1751 H 0.25583 0.22253 0.36614 0.0
H1752 H 0.24625 0.196 0.37728 0.0
H1753 H 0.26444 0.22518 0.38553 0.0
C1754 C 0.20405 0.142 0.40867 0.0
C1755 C 0.22562 0.15037 0.41718 0.0
C1756 C 0.19928 0.15799 0.40089 0.0
C1757 C 0.21597 0.18263 0.40144 0.0
C1758 C 0.23727 0.19113 0.41016 0.0
H1759 H 0.21862 0.30967 0.36968 0.0
H1760 H 0.22648 0.27992 0.38129 0.0
C1761 C 0.24212 0.17514 0.4179 0.0
C1762 C 0.21075 0.19948 0.39319 0.0
H1763 H 0.2336 0.24341 0.36668 0.0
C1764 C 0.18924 0.19988 0.39658 0.0
C1765 C 0.22678 0.21507 0.3821 0.0
C1766 C 0.2495 0.21457 0.37742 0.0
C1767 C 0.18364 0.21593 0.38946 0.0
C1768 C 0.19987 0.23176 0.37857 0.0
C1769 C 0.22125 0.23123 0.37506 0.0
C1770 C 0.19533 0.24955 0.37104 0.0
C1771 C 0.16075 0.2163 0.3939 0.0
C1772 C 0.1754 0.24224 0.36126 0.0
C1773 C 0.17082 0.25919 0.35458 0.0
C1774 C 0.18617 0.28373 0.35756 0.0
C1775 C 0.20638 0.29094 0.36717 0.0
C1776 C 0.21096 0.27399 0.3738 0.0
H1777 H 0.15271 0.20624 0.40442 0.0
H1778 H 0.16469 0.23498 0.39543 0.0
H1779 H 0.14688 0.20797 0.38486 0.0
H1780 H 0.1633 0.22343 0.35888 0.0
H1781 H 0.15502 0.25301 0.34732 0.0
H1782 H 0.61489 0.46219 0.73955 0.0
H1783 H 0.65163 0.49128 0.72609 0.0
H1784 H 0.63815 0.54787 0.73955 0.0
H1785 H 0.60151 0.51897 0.75304 0.0
H1786 H 0.6573 0.5219 0.70273 0.0
H1787 H 0.70851 0.57343 0.75293 0.0
H1788 H 0.68124 0.54443 0.7542 0.0
H1789 H 0.67892 0.57081 0.75127 0.0
C1790 C 0.61972 0.48083 0.7396 0.0
C1791 C 0.60538 0.48831 0.74746 0.0
C1792 C 0.64074 0.49742 0.73193 0.0
C1793 C 0.64786 0.5218 0.73202 0.0
C1794 C 0.63335 0.52924 0.73964 0.0
H1795 H 0.75747 0.65254 0.69236 0.0
H1796 H 0.71976 0.6186 0.70204 0.0
C1797 C 0.61241 0.5127 0.74735 0.0
C1798 C 0.67035 0.5395 0.72407 0.0
H1799 H 0.72446 0.59153 0.72921 0.0
C1800 C 0.67212 0.53698 0.70854 0.0
C1801 C 0.68974 0.55909 0.73167 0.0
C1802 C 0.68968 0.56202 0.74846 0.0
C1803 C 0.69241 0.55403 0.70036 0.0
C1804 C 0.71126 0.574 0.70792 0.0
C1805 C 0.70978 0.57624 0.72345 0.0
C1806 C 0.73252 0.59326 0.69995 0.0
C1807 C 0.69325 0.55123 0.68364 0.0
C1808 C 0.75198 0.59007 0.69537 0.0
C1809 C 0.77359 0.60948 0.68991 0.0
C1810 C 0.77587 0.63224 0.6888 0.0
C1811 C 0.75601 0.6351 0.69292 0.0
C1812 C 0.73453 0.61578 0.69844 0.0
H1813 H 0.67687 0.53489 0.67935 0.0
H1814 H 0.69449 0.56711 0.67799 0.0
H1815 H 0.70984 0.55035 0.68061 0.0
H1816 H 0.75088 0.57287 0.69666 0.0
H1817 H 0.78878 0.60685 0.68724 0.0
H1818 H 0.49129 0.08422 0.75334 0.0
H1819 H 0.46083 0.09109 0.74085 0.0
H1820 H 0.51817 0.15948 0.72515 0.0
H1821 H 0.54879 0.15253 0.73747 0.0
H1822 H 0.44937 0.12532 0.74549 0.0
H1823 H 0.48086 0.13156 0.68679 0.0
H1824 H 0.49203 0.12086 0.70181 0.0
H1825 H 0.5041 0.15245 0.69927 0.0
C1826 C 0.49743 0.10075 0.74725 0.0
C1827 C 0.5225 0.11781 0.7464 0.0
C1828 C 0.47999 0.10462 0.74005 0.0
C1829 C 0.48715 0.12564 0.73182 0.0
C1830 C 0.51217 0.14283 0.73105 0.0
H1831 H 0.39759 0.18047 0.69214 0.0
H1832 H 0.43194 0.17665 0.70173 0.0
C1833 C 0.52967 0.13888 0.73817 0.0
C1834 C 0.46825 0.12981 0.7246 0.0
H1835 H 0.44947 0.14102 0.69107 0.0
C1836 C 0.44942 0.12868 0.73358 0.0
C1837 C 0.46826 0.13429 0.70904 0.0
C1838 C 0.48725 0.13465 0.69863 0.0
C1839 C 0.4307 0.13187 0.72748 0.0
C1840 C 0.43067 0.13621 0.71197 0.0
C1841 C 0.44961 0.13772 0.70297 0.0
C1842 C 0.41053 0.13836 0.70493 0.0
C1843 C 0.41101 0.13061 0.73765 0.0
C1844 C 0.38726 0.11806 0.70331 0.0
C1845 C 0.36774 0.12016 0.69765 0.0
C1846 C 0.37115 0.14256 0.69335 0.0
C1847 C 0.39453 0.16288 0.6949 0.0
C1848 C 0.41414 0.16075 0.70048 0.0
H1849 H 0.41584 0.13119 0.74968 0.0
H1850 H 0.40766 0.14563 0.7353 0.0
H1851 H 0.39368 0.11365 0.73551 0.0
H1852 H 0.38412 0.10063 0.70669 0.0
H1853 H 0.34983 0.10428 0.69677 0.0
H1854 H 0.88275 0.38558 0.76974 0.0
H1855 H 0.87463 0.34871 0.75703 0.0
H1856 H 0.89689 0.38648 0.715 0.0
H1857 H 0.9063 0.42364 0.72771 0.0
H1858 H 0.84268 0.32428 0.73468 0.0
H1859 H 0.93743 0.354 0.7161 0.0
H1860 H 0.93043 0.37054 0.72961 0.0
H1861 H 0.92641 0.37335 0.70989 0.0
C1862 C 0.8863 0.38613 0.75784 0.0
C1863 C 0.8953 0.4076 0.74976 0.0
C1864 C 0.88146 0.36502 0.75057 0.0
C1865 C 0.88552 0.36496 0.73512 0.0
C1866 C 0.89412 0.38624 0.72699 0.0
H1867 H 0.82481 0.23633 0.67979 0.0
H1868 H 0.8341 0.27424 0.69141 0.0
C1869 C 0.89916 0.40739 0.73425 0.0
C1870 C 0.88026 0.34251 0.72747 0.0
H1871 H 0.90603 0.31735 0.70585 0.0
C1872 C 0.85653 0.3227 0.72841 0.0
C1873 C 0.89847 0.34046 0.71947 0.0
C1874 C 0.92467 0.36064 0.71881 0.0
C1875 C 0.85043 0.3009 0.72146 0.0
C1876 C 0.86842 0.29912 0.71302 0.0
C1877 C 0.8922 0.31887 0.71218 0.0
C1878 C 0.86327 0.27663 0.70546 0.0
C1879 C 0.82497 0.27987 0.72355 0.0
C1880 C 0.87718 0.26588 0.70908 0.0
C1881 C 0.87233 0.24452 0.7022 0.0
C1882 C 0.85341 0.23346 0.69155 0.0
C1883 C 0.83966 0.24444 0.68782 0.0
C1884 C 0.84472 0.26597 0.6946 0.0
H1885 H 0.81582 0.28225 0.73349 0.0
H1886 H 0.81371 0.27811 0.71354 0.0
H1887 H 0.82537 0.26296 0.72487 0.0
H1888 H 0.89165 0.27387 0.71739 0.0
H1889 H 0.88332 0.23662 0.70535 0.0
H1890 H 0.1574 0.94621 0.5815 0.0
H1891 H 0.1876 0.98345 0.59348 0.0
H1892 H 0.17338 0.9473 0.63601 0.0
H1893 H 0.14425 0.90963 0.62396 0.0
H1894 H 0.18272 0.00928 0.61492 0.0
H1895 H 0.24669 0.97975 0.63462 0.0
H1896 H 0.22212 0.96236 0.62164 0.0
H1897 H 0.21616 0.96114 0.64144 0.0
C1898 C 0.161 0.94602 0.59335 0.0
C1899 C 0.14851 0.92478 0.60171 0.0
C1900 C 0.17814 0.96742 0.60022 0.0
C1901 C 0.18312 0.96812 0.6156 0.0
C1902 C 0.17032 0.9471 0.62406 0.0
H1903 H 0.25445 0.09925 0.66835 0.0
H1904 H 0.22531 0.06124 0.65678 0.0
C1905 C 0.15335 0.92562 0.61717 0.0
C1906 C 0.20128 0.991 0.62281 0.0
H1907 H 0.25329 0.01703 0.64415 0.0
C1908 C 0.19821 0.01099 0.62126 0.0
C1909 C 0.22172 0.99336 0.63088 0.0
C1910 C 0.22706 0.97309 0.63213 0.0
C1911 C 0.21481 0.03318 0.62769 0.0
C1912 C 0.23465 0.03526 0.63631 0.0
C1913 C 0.23791 0.01536 0.6377 0.0
C1914 C 0.25247 0.05801 0.64378 0.0
C1915 C 0.21118 0.05426 0.62486 0.0
C1916 C 0.2776 0.06845 0.6408 0.0
C1917 C 0.29445 0.08991 0.64775 0.0
C1918 C 0.2865 0.1014 0.65782 0.0
C1919 C 0.26132 0.0908 0.66083 0.0
C1920 C 0.24453 0.0692 0.65403 0.0
H1921 H 0.2001 0.05162 0.6146 0.0
H1922 H 0.20124 0.05635 0.63446 0.0
H1923 H 0.22898 0.07109 0.62365 0.0
H1924 H 0.28418 0.06009 0.63298 0.0
H1925 H 0.31368 0.09752 0.64514 0.0
H1926 H 0.05123 0.20999 0.58376 0.0
H1927 H 0.0152 0.20475 0.59692 0.0
H1928 H 0.05189 0.21352 0.63924 0.0
H1929 H 0.08897 0.22152 0.62618 0.0
H1930 H 0.98492 0.17353 0.6145 0.0
H1931 H 0.02808 0.25811 0.64682 0.0
H1932 H 0.04432 0.2521 0.63246 0.0
H1933 H 0.04178 0.24031 0.6511 0.0
C1934 C 0.05207 0.21155 0.59585 0.0
C1935 C 0.07351 0.2166 0.60376 0.0
C1936 C 0.03115 0.20815 0.60342 0.0
C1937 C 0.03077 0.20922 0.61915 0.0
C1938 C 0.05178 0.21338 0.62712 0.0
H1939 H 0.88635 0.15444 0.66219 0.0
H1940 H 0.92502 0.15826 0.65379 0.0
C1941 C 0.07296 0.21745 0.61955 0.0
C1942 C 0.00824 0.20555 0.62707 0.0
H1943 H 0.98743 0.22939 0.65357 0.0
C1944 C 0.98551 0.18587 0.62298 0.0
C1945 C 0.00876 0.22168 0.63808 0.0
C1946 C 0.03201 0.24435 0.64225 0.0
C1947 C 0.96344 0.18209 0.62931 0.0
C1948 C 0.96405 0.19775 0.64069 0.0
C1949 C 0.98682 0.21718 0.64498 0.0
C1950 C 0.94132 0.19556 0.64745 0.0
C1951 C 0.93971 0.16197 0.62314 0.0
C1952 C 0.93797 0.21552 0.64769 0.0
C1953 C 0.91634 0.2136 0.65321 0.0
C1954 C 0.89744 0.19169 0.65859 0.0
C1955 C 0.90077 0.17172 0.65851 0.0
C1956 C 0.92275 0.17379 0.65337 0.0
H1957 H 0.94213 0.15654 0.61173 0.0
H1958 H 0.93316 0.14612 0.63051 0.0
H1959 H 0.92538 0.16713 0.62255 0.0
H1960 H 0.95186 0.23254 0.64322 0.0
H1961 H 0.91414 0.22921 0.65293 0.0
H1962 H 0.78799 0.83822 0.57968 0.0
H1963 H 0.7965 0.8097 0.59254 0.0
H1964 H 0.77537 0.82701 0.6346 0.0
H1965 H 0.76575 0.85469 0.62177 0.0
H1966 H 0.82964 0.8183 0.61494 0.0
H1967 H 0.73552 0.75455 0.63422 0.0
H1968 H 0.74184 0.77723 0.62036 0.0
H1969 H 0.74619 0.78486 0.63996 0.0
C1970 C 0.78472 0.83563 0.59162 0.0
C1971 C 0.7761 0.84867 0.59969 0.0
C1972 C 0.7898 0.81949 0.59897 0.0
C1973 C 0.78628 0.81604 0.61449 0.0
C1974 C 0.77778 0.82907 0.62258 0.0
H1975 H 0.84892 0.7485 0.67003 0.0
H1976 H 0.83921 0.77719 0.65863 0.0
C1977 C 0.77258 0.8451 0.61524 0.0
C1978 C 0.79212 0.79926 0.62227 0.0
H1979 H 0.76749 0.74932 0.64416 0.0
C1980 C 0.81606 0.80317 0.6213 0.0
C1981 C 0.77429 0.77944 0.63044 0.0
C1982 C 0.74796 0.77358 0.63121 0.0
C1983 C 0.82269 0.78781 0.62835 0.0
C1984 C 0.80502 0.76836 0.63685 0.0
C1985 C 0.78107 0.76442 0.63777 0.0
C1986 C 0.81058 0.7511 0.64424 0.0
C1987 C 0.84836 0.7922 0.62629 0.0
C1988 C 0.7972 0.72683 0.64029 0.0
C1989 C 0.80234 0.71034 0.64699 0.0
C1990 C 0.82102 0.71778 0.65781 0.0
C1991 C 0.83427 0.74211 0.66186 0.0
C1992 C 0.82896 0.7586 0.65522 0.0
H1993 H 0.85755 0.8039 0.61651 0.0
H1994 H 0.85937 0.80123 0.63643 0.0
H1995 H 0.84831 0.7751 0.62473 0.0
H1996 H 0.7829 0.72067 0.63187 0.0
H1997 H 0.79172 0.69178 0.64358 0.0
H1998 H 0.04482 0.8406 0.58412 0.0
H1999 H 0.00769 0.81227 0.59756 0.0
H2000 H 0.05105 0.81934 0.63673 0.0
H2001 H 0.08805 0.84813 0.62346 0.0
H2002 H 0.9951 0.77006 0.60844 0.0
H2003 H 0.99803 0.82725 0.65557 0.0
H2004 H 0.01754 0.83922 0.63939 0.0
H2005 H 0.02557 0.82571 0.65435 0.0
C2006 C 0.04637 0.83615 0.59562 0.0
C2007 C 0.0693 0.84666 0.60277 0.0
C2008 C 0.02515 0.82004 0.60331 0.0
C2009 C 0.02644 0.81399 0.61829 0.0
C2010 C 0.0494 0.82426 0.62537 0.0
H2011 H 0.91591 0.68195 0.6586 0.0
H2012 H 0.95398 0.7155 0.64905 0.0
C2013 C 0.07058 0.84059 0.61774 0.0
C2014 C 0.00397 0.79587 0.62614 0.0
H2015 H 0.97047 0.78513 0.65823 0.0
C2016 C 0.98967 0.77347 0.61928 0.0
C2017 C 0.9966 0.80035 0.64021 0.0
C2018 C 0.0101 0.82453 0.64773 0.0
C2019 C 0.96856 0.75532 0.62616 0.0
C2020 C 0.96193 0.75936 0.64057 0.0
C2021 C 0.97584 0.78192 0.64732 0.0
C2022 C 0.94037 0.74034 0.6486 0.0
C2023 C 0.95333 0.73213 0.61776 0.0
C2024 C 0.92063 0.74361 0.65242 0.0
C2025 C 0.899 0.72454 0.65813 0.0
C2026 C 0.89694 0.70203 0.66022 0.0
C2027 C 0.91713 0.69918 0.65712 0.0
C2028 C 0.93878 0.71826 0.65157 0.0
H2029 H 0.95674 0.73444 0.6055 0.0
H2030 H 0.95823 0.71874 0.62167 0.0
H2031 H 0.93349 0.72488 0.61974 0.0
H2032 H 0.9215 0.76054 0.65029 0.0
H2033 H 0.88359 0.72712 0.66017 0.0
H2034 H 0.15004 0.22811 0.62386 0.0
H2035 H 0.18086 0.22128 0.63593 0.0
H2036 H 0.18967 0.19112 0.59486 0.0
H2037 H 0.15894 0.19803 0.58268 0.0
H2038 H 0.18298 0.18053 0.64091 0.0
H2039 H 0.25959 0.24212 0.60422 0.0
H2040 H 0.2306 0.24133 0.60447 0.0
H2041 H 0.23384 0.21903 0.59424 0.0
C2042 C 0.15837 0.21983 0.61742 0.0
C2043 C 0.15209 0.21375 0.60226 0.0
C2044 C 0.17607 0.21601 0.62432 0.0
C2045 C 0.18794 0.20607 0.61625 0.0
C2046 C 0.18125 0.19938 0.60123 0.0
H2047 H 0.27776 0.15234 0.65745 0.0
H2048 H 0.24383 0.15556 0.6468 0.0
C2049 C 0.16363 0.2033 0.59428 0.0
C2050 C 0.20733 0.20282 0.62358 0.0
H2051 H 0.26764 0.21875 0.62119 0.0
C2052 C 0.20152 0.18892 0.63663 0.0
C2053 C 0.2316 0.21396 0.61809 0.0
C2054 C 0.23942 0.23013 0.60457 0.0
C2055 C 0.21923 0.18582 0.64433 0.0
C2056 C 0.24345 0.1966 0.63869 0.0
C2057 C 0.24917 0.21045 0.62559 0.0
C2058 C 0.26339 0.19433 0.64624 0.0
C2059 C 0.21186 0.17163 0.65866 0.0
C2060 C 0.28603 0.21492 0.64929 0.0
C2061 C 0.30562 0.21304 0.65511 0.0
C2062 C 0.30289 0.19057 0.65837 0.0
C2063 C 0.2802 0.16994 0.65556 0.0
C2064 C 0.2607 0.1718 0.64947 0.0
H2065 H 0.19556 0.17111 0.66379 0.0
H2066 H 0.20715 0.15293 0.65625 0.0
H2067 H 0.22701 0.17936 0.66689 0.0
H2068 H 0.28874 0.23253 0.64689 0.0
H2069 H 0.32303 0.22918 0.65696 0.0
H2070 H 0.79321 0.95043 0.57989 0.0
H2071 H 0.80257 0.98744 0.59288 0.0
H2072 H 0.77896 0.94904 0.63465 0.0
H2073 H 0.7683 0.91179 0.62164 0.0
H2074 H 0.76071 0.97819 0.631 0.0
H2075 H 0.86039 0.028 0.6197 0.0
H2076 H 0.84228 0.0175 0.60293 0.0
H2077 H 0.84165 0.99629 0.61626 0.0
C2078 C 0.78984 0.94982 0.59182 0.0
C2079 C 0.78013 0.92814 0.59973 0.0
C2080 C 0.79553 0.97106 0.59926 0.0
C2081 C 0.79193 0.97107 0.61478 0.0
C2082 C 0.7821 0.94947 0.62269 0.0
H2083 H 0.85074 0.09947 0.66992 0.0
H2084 H 0.84126 0.06127 0.65866 0.0
C2085 C 0.77622 0.92822 0.61525 0.0
C2086 C 0.79758 0.99341 0.62275 0.0
H2087 H 0.84316 0.0506 0.62969 0.0
C2088 C 0.77877 0.99399 0.63079 0.0
C2089 C 0.82126 0.01386 0.62266 0.0
C2090 C 0.84261 0.01387 0.61505 0.0
C2091 C 0.78287 0.0146 0.63852 0.0
C2092 C 0.80624 0.0354 0.63784 0.0
C2093 C 0.82518 0.0347 0.63006 0.0
C2094 C 0.81139 0.05815 0.64503 0.0
C2095 C 0.7622 0.01374 0.64753 0.0
C2096 C 0.79786 0.06916 0.64102 0.0
C2097 C 0.80293 0.09078 0.64763 0.0
C2098 C 0.82189 0.102 0.65823 0.0
C2099 C 0.83569 0.09111 0.66204 0.0
C2100 C 0.83043 0.06935 0.65553 0.0
H2101 H 0.74847 0.9951 0.65064 0.0
H2102 H 0.7691 0.02459 0.65793 0.0
H2103 H 0.75274 0.02103 0.64069 0.0
H2104 H 0.78352 0.06116 0.63264 0.0
H2105 H 0.79208 0.09874 0.64429 0.0
H2106 H 0.51842 0.38781 0.76941 0.0
H2107 H 0.48863 0.35031 0.75747 0.0
H2108 H 0.50226 0.38619 0.71487 0.0
H2109 H 0.53102 0.42407 0.72687 0.0
H2110 H 0.45436 0.3574 0.71923 0.0
H2111 H 0.50265 0.30751 0.73163 0.0
H2112 H 0.49614 0.31909 0.74819 0.0
H2113 H 0.51676 0.3394 0.73435 0.0
C2114 C 0.51496 0.38782 0.75752 0.0
C2115 C 0.52727 0.40902 0.74911 0.0
C2116 C 0.49815 0.36625 0.75066 0.0
C2117 C 0.49356 0.36531 0.73521 0.0
C2118 C 0.50566 0.38643 0.72679 0.0
H2119 H 0.42003 0.23445 0.68279 0.0
H2120 H 0.4493 0.2728 0.69391 0.0
C2121 C 0.5223 0.40805 0.73366 0.0
C2122 C 0.47572 0.34245 0.72785 0.0
H2123 H 0.46187 0.28462 0.72237 0.0
C2124 C 0.45606 0.34151 0.71986 0.0
C2125 C 0.47814 0.3218 0.72847 0.0
C2126 C 0.49969 0.32201 0.73599 0.0
C2127 C 0.43858 0.32045 0.71265 0.0
C2128 C 0.44044 0.29953 0.7138 0.0
C2129 C 0.46028 0.30056 0.72162 0.0
C2130 C 0.4223 0.2765 0.70676 0.0
C2131 C 0.41866 0.32102 0.70358 0.0
C2132 C 0.39733 0.26563 0.71034 0.0
C2133 C 0.3804 0.24385 0.70373 0.0
C2134 C 0.38816 0.23233 0.69355 0.0
C2135 C 0.41326 0.24303 0.69026 0.0
C2136 C 0.43011 0.26491 0.69674 0.0
H2137 H 0.42397 0.33954 0.70016 0.0
H2138 H 0.41423 0.30976 0.69336 0.0
H2139 H 0.40188 0.31404 0.7105 0.0
H2140 H 0.39093 0.27386 0.71837 0.0
H2141 H 0.36128 0.23603 0.70669 0.0
H2142 H 0.60009 0.08464 0.75197 0.0
H2143 H 0.6373 0.09225 0.73872 0.0
H2144 H 0.64792 0.16018 0.7236 0.0
H2145 H 0.6108 0.15281 0.73691 0.0
H2146 H 0.64784 0.10359 0.70607 0.0
H2147 H 0.71426 0.17472 0.74442 0.0
H2148 H 0.68342 0.15342 0.75012 0.0
H2149 H 0.68882 0.17745 0.73776 0.0
C2150 C 0.61044 0.1013 0.74592 0.0
C2151 C 0.6025 0.11816 0.74556 0.0
C2152 C 0.63161 0.10554 0.73829 0.0
C2153 C 0.64547 0.12684 0.73027 0.0
C2154 C 0.63761 0.1437 0.72982 0.0
H2155 H 0.78959 0.1814 0.68856 0.0
H2156 H 0.75074 0.17739 0.69693 0.0
C2157 C 0.61631 0.13939 0.73736 0.0
C2158 C 0.66806 0.13127 0.72232 0.0
H2159 H 0.73045 0.16479 0.72371 0.0
C2160 C 0.66592 0.11703 0.70987 0.0
C2161 C 0.69159 0.14896 0.72721 0.0
C2162 C 0.69488 0.1645 0.74066 0.0
C2163 C 0.6867 0.11991 0.70222 0.0
C2164 C 0.71035 0.13705 0.70741 0.0
C2165 C 0.71241 0.15166 0.71968 0.0
C2166 C 0.73316 0.13923 0.7009 0.0
C2167 C 0.68297 0.10464 0.68855 0.0
C2168 C 0.73636 0.1192 0.70026 0.0
C2169 C 0.75836 0.12142 0.69519 0.0
C2170 C 0.77776 0.14372 0.6907 0.0
C2171 C 0.77473 0.16385 0.69144 0.0
C2172 C 0.75257 0.16159 0.69639 0.0
H2173 H 0.66526 0.09949 0.68295 0.0
H2174 H 0.69792 0.11402 0.68031 0.0
H2175 H 0.68253 0.08793 0.69201 0.0
H2176 H 0.7221 0.10191 0.70413 0.0
H2177 H 0.76043 0.10573 0.69508 0.0
H2178 H 0.90709 0.48018 0.72765 0.0
H2179 H 0.89713 0.50757 0.71473 0.0
H2180 H 0.87316 0.52277 0.75645 0.0
H2181 H 0.88205 0.49456 0.76938 0.0
H2182 H 0.84117 0.51454 0.73326 0.0
H2183 H 0.93626 0.58016 0.71657 0.0
H2184 H 0.92641 0.55016 0.71047 0.0
H2185 H 0.92931 0.55699 0.73018 0.0
C2186 C 0.89951 0.4892 0.73407 0.0
C2187 C 0.89539 0.48522 0.74956 0.0
C2188 C 0.89411 0.50506 0.72669 0.0
C2189 C 0.88479 0.51747 0.73468 0.0
C2190 C 0.88051 0.51346 0.75011 0.0
H2191 H 0.87996 0.64222 0.70604 0.0
H2192 H 0.88831 0.6131 0.71786 0.0
C2193 C 0.88579 0.49751 0.7575 0.0
C2194 C 0.87914 0.53436 0.72691 0.0
H2195 H 0.90467 0.58537 0.70602 0.0
C2196 C 0.85504 0.53007 0.72732 0.0
C2197 C 0.89735 0.55471 0.71932 0.0
C2198 C 0.92383 0.56096 0.7192 0.0
C2199 C 0.8486 0.54558 0.72029 0.0
C2200 C 0.86668 0.56557 0.71234 0.0
C2201 C 0.89079 0.56987 0.71198 0.0
C2202 C 0.86132 0.58296 0.70495 0.0
C2203 C 0.82269 0.54075 0.72178 0.0
C2204 C 0.84349 0.57572 0.69365 0.0
C2205 C 0.83839 0.59232 0.68696 0.0
C2206 C 0.8514 0.61654 0.69127 0.0
C2207 C 0.86955 0.62375 0.70241 0.0
C2208 C 0.87443 0.60712 0.70918 0.0
H2209 H 0.81307 0.5287 0.73136 0.0
H2210 H 0.82233 0.55764 0.72335 0.0
H2211 H 0.81234 0.5319 0.71142 0.0
H2212 H 0.8335 0.55723 0.69 0.0
H2213 H 0.82413 0.58609 0.67855 0.0
H2214 H 0.49957 0.93585 0.22947 0.0
H2215 H 0.50826 0.95198 0.20404 0.0
H2216 H 0.43228 0.9071 0.19215 0.0
H2217 H 0.42342 0.89069 0.21757 0.0
H2218 H 0.5015 0.92801 0.1768 0.0
H2219 H 0.44633 0.97335 0.17867 0.0
H2220 H 0.45422 0.96283 0.19533 0.0
H2221 H 0.42997 0.94209 0.18329 0.0
C2222 C 0.48469 0.92926 0.22145 0.0
C2223 C 0.46076 0.91194 0.22563 0.0
C2224 C 0.48969 0.9386 0.20691 0.0
C2225 C 0.4709 0.93101 0.19621 0.0
C2226 C 0.44701 0.91364 0.20028 0.0
H2227 H 0.47566 0.97839 0.10325 0.0
H2228 H 0.46236 0.95602 0.12684 0.0
C2229 C 0.44197 0.90427 0.21485 0.0
C2230 C 0.47655 0.94105 0.18075 0.0
H2231 H 0.46504 0.97419 0.1556 0.0
C2232 C 0.4935 0.93808 0.17216 0.0
C2233 C 0.46599 0.95406 0.17463 0.0
C2234 C 0.44826 0.9585 0.18346 0.0
C2235 C 0.50024 0.94782 0.1577 0.0
C2236 C 0.49014 0.96132 0.15172 0.0
C2237 C 0.47278 0.96384 0.16017 0.0
C2238 C 0.4983 0.974 0.1371 0.0
C2239 C 0.51799 0.94336 0.1489 0.0
C2240 C 0.52288 0.99159 0.13499 0.0
C2241 C 0.53053 0.00429 0.12153 0.0
C2242 C 0.51375 0.99987 0.10985 0.0
C2243 C 0.48913 0.98208 0.11192 0.0
C2244 C 0.48147 0.96938 0.12545 0.0
H2245 H 0.51812 0.92713 0.15291 0.0
H2246 H 0.51345 0.94122 0.13677 0.0
H2247 H 0.53674 0.95885 0.15034 0.0
H2248 H 0.53615 0.99581 0.14387 0.0
H2249 H 0.54966 0.01767 0.1203 0.0
H2250 H 0.09901 0.52417 0.21376 0.0
H2251 H 0.07984 0.51564 0.18891 0.0
H2252 H 0.03339 0.54323 0.20312 0.0
H2253 H 0.05211 0.55148 0.22802 0.0
H2254 H 0.02883 0.48649 0.1811 0.0
H2255 H 0.06707 0.58156 0.16469 0.0
H2256 H 0.07926 0.57253 0.18006 0.0
H2257 H 0.05164 0.57377 0.18244 0.0
C2258 C 0.08456 0.52823 0.21164 0.0
C2259 C 0.07722 0.53869 0.22285 0.0
C2260 C 0.07373 0.52344 0.19742 0.0
C2261 C 0.05551 0.52918 0.19414 0.0
C2262 C 0.0478 0.53916 0.20536 0.0
H2263 H 0.968 0.52009 0.11725 0.0
H2264 H 0.98748 0.52636 0.14183 0.0
C2265 C 0.05855 0.54389 0.21957 0.0
C2266 C 0.04437 0.52458 0.17901 0.0
H2267 H 0.03675 0.55237 0.14868 0.0
C2268 C 0.03066 0.50086 0.17395 0.0
C2269 C 0.04683 0.54341 0.16975 0.0
C2270 C 0.06216 0.56928 0.17441 0.0
C2271 C 0.01871 0.49539 0.15999 0.0
C2272 C 0.021 0.51423 0.15077 0.0
C2273 C 0.03496 0.53797 0.15579 0.0
C2274 C 0.00883 0.50975 0.13594 0.0
C2275 C 1.00319 0.46949 0.15544 0.0
C2276 C 0.0145 0.49848 0.12445 0.0
C2277 C 1.00321 0.49464 0.11042 0.0
C2278 C 0.98618 0.50222 0.10758 0.0
C2279 C 0.98071 0.51368 0.11911 0.0
C2280 C 0.99196 0.51744 0.13314 0.0
H2281 H 0.99821 0.45732 0.16523 0.0
H2282 H 0.98612 0.46628 0.14977 0.0
H2283 H 0.01363 0.46478 0.14749 0.0
H2284 H 0.02781 0.49281 0.12627 0.0
H2285 H 0.00771 0.48559 0.10184 0.0
H2286 H 0.49681 0.54887 0.22909 0.0
H2287 H 0.50609 0.5404 0.20402 0.0
H2288 H 0.43046 0.511 0.19121 0.0
H2289 H 0.42114 0.52015 0.21618 0.0
H2290 H 0.48687 0.49666 0.18929 0.0
H2291 H 0.46689 0.5592 0.15777 0.0
H2292 H 0.47055 0.56061 0.17788 0.0
H2293 H 0.44248 0.53812 0.16946 0.0
C2294 C 0.48217 0.54086 0.2209 0.0
C2295 C 0.45826 0.53538 0.22462 0.0
C2296 C 0.48749 0.53589 0.2066 0.0
C2297 C 0.46906 0.5254 0.19567 0.0
C2298 C 0.44507 0.51951 0.19938 0.0
H2299 H 0.47692 0.48567 0.1027 0.0
H2300 H 0.46251 0.49171 0.12693 0.0
C2301 C 0.43971 0.5245 0.21371 0.0
C2302 C 0.47508 0.52031 0.18051 0.0
H2303 H 0.47739 0.53477 0.14348 0.0
C2304 C 0.48477 0.50497 0.17927 0.0
C2305 C 0.47222 0.53109 0.16744 0.0
C2306 C 0.46266 0.54834 0.16813 0.0
C2307 C 0.49176 0.50018 0.16535 0.0
C2308 C 0.48939 0.51134 0.15233 0.0
C2309 C 0.47922 0.52628 0.15349 0.0
C2310 C 0.49817 0.50831 0.13751 0.0
C2311 C 0.50149 0.48306 0.16468 0.0
C2312 C 0.52306 0.51613 0.13533 0.0
C2313 C 0.53137 0.51285 0.12151 0.0
C2314 C 0.51497 0.50174 0.10952 0.0
C2315 C 0.49008 0.49444 0.11164 0.0
C2316 C 0.48179 0.49776 0.1255 0.0
H2317 H 0.49603 0.47127 0.17468 0.0
H2318 H 0.49487 0.4717 0.15447 0.0
H2319 H 0.52178 0.49343 0.16433 0.0
H2320 H 0.53611 0.52483 0.14434 0.0
H2321 H 0.55072 0.51918 0.12019 0.0
H2322 H 0.90443 0.42806 0.80322 0.0
H2323 H 0.92437 0.43716 0.82785 0.0
H2324 H 0.97621 0.50841 0.813 0.0
H2325 H 0.95649 0.49939 0.78827 0.0
H2326 H 0.99606 0.4802 0.82748 0.0
H2327 H 0.92331 0.48416 0.86037 0.0
H2328 H 0.9135 0.45873 0.84817 0.0
H2329 H 0.92593 0.48808 0.84028 0.0
C2330 C 0.92009 0.44566 0.80521 0.0
C2331 C 0.92892 0.46304 0.79386 0.0
C2332 C 0.93131 0.45087 0.81929 0.0
C2333 C 0.95155 0.47351 0.82222 0.0
C2334 C 0.96047 0.49089 0.81093 0.0
H2335 H 0.05211 0.53264 0.89779 0.0
H2336 H 0.03197 0.52572 0.87334 0.0
C2337 C 0.94915 0.48576 0.79687 0.0
C2338 C 0.96397 0.47871 0.83693 0.0
H2339 H 0.95632 0.48588 0.87403 0.0
C2340 C 0.9875 0.48159 0.83767 0.0
C2341 C 0.95257 0.48032 0.85013 0.0
C2342 C 0.9275 0.47784 0.84979 0.0
C2343 C 0.99981 0.48557 0.85141 0.0
C2344 C 0.98849 0.48733 0.86465 0.0
C2345 C 0.96496 0.48455 0.86386 0.0
C2346 C 1.0006 0.49177 0.87948 0.0
C2347 C 0.0245 0.48714 0.85164 0.0
C2348 C 0.9893 0.47535 0.89117 0.0
C2349 C 1.00065 0.47938 0.90517 0.0
C2350 C 0.02352 0.49991 0.90772 0.0
C2351 C 0.03469 0.51646 0.89605 0.0
C2352 C 0.02323 0.51251 0.88209 0.0
H2353 H 0.02739 0.47886 0.8415 0.0
H2354 H 0.03907 0.50623 0.85192 0.0
H2355 H 0.02658 0.47821 0.86171 0.0
H2356 H 0.97179 0.45927 0.8894 0.0
H2357 H 0.9917 0.46625 0.91393 0.0
H2358 H 0.54007 0.43047 0.80223 0.0
H2359 H 0.53005 0.43958 0.827 0.0
H2360 H 0.55156 0.51108 0.81245 0.0
H2361 H 0.56129 0.50203 0.78757 0.0
H2362 H 0.56177 0.47836 0.84761 0.0
H2363 H 0.48024 0.48297 0.82858 0.0
H2364 H 0.49342 0.46868 0.81764 0.0
H2365 H 0.50792 0.50072 0.81817 0.0
C2366 C 0.54254 0.4481 0.80428 0.0
C2367 C 0.55134 0.46549 0.7929 0.0
C2368 C 0.53695 0.45331 0.81846 0.0
C2369 C 0.53982 0.47591 0.82149 0.0
C2370 C 0.54896 0.49344 0.81026 0.0
H2371 H 0.50346 0.53655 0.89739 0.0
H2372 H 0.5173 0.52927 0.87338 0.0
C2373 C 0.55469 0.4883 0.7961 0.0
C2374 C 0.53305 0.48106 0.83637 0.0
H2375 H 0.49233 0.49321 0.8538 0.0
C2376 C 0.54657 0.48157 0.84901 0.0
C2377 C 0.51326 0.48529 0.83811 0.0
C2378 C 0.49769 0.48424 0.82495 0.0
C2379 C 0.54108 0.48662 0.86335 0.0
C2380 C 0.52113 0.49067 0.86512 0.0
C2381 C 0.50763 0.49014 0.85244 0.0
C2382 C 0.5138 0.49544 0.87999 0.0
C2383 C 0.55707 0.48813 0.87638 0.0
C2384 C 0.50714 0.47882 0.89171 0.0
C2385 C 0.49931 0.483 0.90547 0.0
C2386 C 0.49764 0.50372 0.90772 0.0
C2387 C 0.50432 0.52032 0.89597 0.0
C2388 C 0.51231 0.51621 0.88226 0.0
H2389 H 0.57533 0.49163 0.87258 0.0
H2390 H 0.55968 0.50246 0.88436 0.0
H2391 H 0.54821 0.47083 0.88245 0.0
H2392 H 0.50749 0.46236 0.89011 0.0
H2393 H 0.49393 0.46971 0.91422 0.0
H2394 H 0.53666 0.11322 0.80002 0.0
H2395 H 0.52857 0.09677 0.82542 0.0
H2396 H 0.5516 0.04668 0.81239 0.0
H2397 H 0.56002 0.06326 0.78705 0.0
H2398 H 0.49698 0.05273 0.83521 0.0
H2399 H 0.59076 0.0734 0.85017 0.0
H2400 H 0.5844 0.08592 0.83387 0.0
H2401 H 0.57989 0.05609 0.83327 0.0
C2402 C 0.54002 0.09871 0.80256 0.0
C2403 C 0.5491 0.08964 0.79149 0.0
C2404 C 0.53547 0.08936 0.81712 0.0
C2405 C 0.53989 0.07075 0.82097 0.0
C2406 C 0.54871 0.0615 0.80988 0.0
H2407 H 0.50745 0.97507 0.89588 0.0
H2408 H 0.51979 0.99688 0.87214 0.0
C2409 C 0.55344 0.07095 0.79536 0.0
C2410 C 0.53432 0.06038 0.83637 0.0
H2411 H 0.55861 0.04607 0.86625 0.0
C2412 C 0.51056 0.05152 0.84205 0.0
C2413 C 0.55201 0.05882 0.84538 0.0
C2414 C 0.57825 0.06929 0.84044 0.0
C2415 C 0.50383 0.04055 0.8562 0.0
C2416 C 0.52134 0.03849 0.86501 0.0
C2417 C 0.54518 0.0476 0.85946 0.0
C2418 C 0.51495 0.02607 0.87975 0.0
C2419 C 0.4778 0.03056 0.86145 0.0
C2420 C 0.50859 0.03547 0.89204 0.0
C2421 C 0.50156 0.02305 0.90567 0.0
C2422 C 0.50062 0.0009 0.90724 0.0
C2423 C 0.50762 0.99189 0.895 0.0
C2424 C 0.51481 0.00439 0.88144 0.0
H2425 H 0.46547 0.0297 0.85227 0.0
H2426 H 0.47062 0.01233 0.86614 0.0
H2427 H 0.47732 0.04218 0.87047 0.0
H2428 H 0.50885 0.05232 0.89104 0.0
H2429 H 0.49621 0.03045 0.91485 0.0
H2430 H 0.11911 0.27331 0.56317 0.0
H2431 H 0.1283 0.29089 0.53804 0.0
H2432 H 0.14777 0.23873 0.52378 0.0
H2433 H 0.13828 0.22083 0.54882 0.0
H2434 H 0.17451 0.31 0.52273 0.0
H2435 H 0.099 0.23514 0.4911 0.0
H2436 H 0.09839 0.23799 0.51121 0.0
H2437 H 0.11696 0.22721 0.5029 0.0
C2438 C 0.12505 0.26538 0.55464 0.0
C2439 C 0.12788 0.2456 0.55801 0.0
C2440 C 0.13041 0.27552 0.5403 0.0
C2441 C 0.13844 0.26595 0.52897 0.0
C2442 C 0.14125 0.24619 0.53227 0.0
H2443 H 0.18252 0.30642 0.43575 0.0
H2444 H 0.17031 0.28559 0.45991 0.0
C2445 C 0.13605 0.23613 0.54664 0.0
C2446 C 0.14481 0.27727 0.5139 0.0
H2447 H 0.12869 0.26759 0.47686 0.0
C2448 C 0.16444 0.30078 0.51271 0.0
C2449 C 0.13182 0.26512 0.50081 0.0
C2450 C 0.11023 0.24003 0.50149 0.0
C2451 C 0.17161 0.31239 0.49878 0.0
C2452 C 0.15834 0.30044 0.48568 0.0
C2453 C 0.13881 0.27681 0.48687 0.0
C2454 C 0.16436 0.31231 0.47073 0.0
C2455 C 0.19374 0.33719 0.49823 0.0
C2456 C 0.16434 0.33385 0.46858 0.0
C2457 C 0.17142 0.3458 0.45484 0.0
C2458 C 0.17834 0.33633 0.44283 0.0
C2459 C 0.17725 0.31418 0.44476 0.0
C2460 C 0.17035 0.3023 0.45858 0.0
H2461 H 0.20593 0.34074 0.50806 0.0
H2462 H 0.20451 0.33981 0.48786 0.0
H2463 H 0.18764 0.35061 0.49838 0.0
H2464 H 0.15905 0.34158 0.47759 0.0
H2465 H 0.17155 0.36257 0.45364 0.0
H2466 H 0.71283 0.83976 0.56207 0.0
H2467 H 0.69313 0.83182 0.53742 0.0
H2468 H 0.75403 0.89717 0.52059 0.0
H2469 H 0.77316 0.90563 0.54544 0.0
H2470 H 0.71338 0.89367 0.5114 0.0
H2471 H 0.70798 0.80673 0.50063 0.0
H2472 H 0.69256 0.80614 0.51761 0.0
H2473 H 0.72517 0.82576 0.51611 0.0
C2474 C 0.72201 0.85229 0.55305 0.0
C2475 C 0.7445 0.87323 0.55557 0.0
C2476 C 0.71086 0.84768 0.53895 0.0
C2477 C 0.72233 0.86361 0.52702 0.0
C2478 C 0.74485 0.88456 0.52958 0.0
H2479 H 0.67728 0.82707 0.4342 0.0
H2480 H 0.69821 0.83594 0.4583 0.0
C2481 C 0.75577 0.88939 0.54375 0.0
C2482 C 0.71049 0.85897 0.51204 0.0
H2483 H 0.68422 0.81678 0.48449 0.0
C2484 C 0.70717 0.87691 0.50547 0.0
C2485 C 0.70275 0.83728 0.50415 0.0
C2486 C 0.70754 0.81801 0.50992 0.0
C2487 C 0.69607 0.87368 0.49136 0.0
C2488 C 0.68711 0.85149 0.48386 0.0
C2489 C 0.69074 0.83367 0.49033 0.0
C2490 C 0.6744 0.84651 0.46914 0.0
C2491 C 0.6947 0.89437 0.48453 0.0
C2492 C 0.65384 0.84925 0.4672 0.0
C2493 C 0.64222 0.84488 0.45325 0.0
C2494 C 0.65054 0.8371 0.44102 0.0
C2495 C 0.67069 0.83366 0.44318 0.0
C2496 C 0.68255 0.83845 0.45704 0.0
H2497 H 0.70903 0.91178 0.48921 0.0
H2498 H 0.69686 0.89482 0.47217 0.0
H2499 H 0.67665 0.89253 0.48713 0.0
H2500 H 0.64673 0.85477 0.47646 0.0
H2501 H 0.62691 0.84791 0.45205 0.0
H2502 H 0.08697 0.85522 0.54872 0.0
H2503 H 0.09671 0.84769 0.52341 0.0
H2504 H 0.17172 0.87459 0.53675 0.0
H2505 H 0.16214 0.88184 0.56205 0.0
H2506 H 0.16555 0.89459 0.50966 0.0
H2507 H 0.11173 0.79507 0.50943 0.0
H2508 H 0.0955 0.81024 0.51476 0.0
H2509 H 0.11963 0.81242 0.52653 0.0
C2510 C 0.10545 0.8592 0.54633 0.0
C2511 C 0.12379 0.86923 0.55742 0.0
C2512 C 0.11099 0.85491 0.53185 0.0
C2513 C 0.13491 0.86044 0.52823 0.0
C2514 C 0.15316 0.87024 0.5393 0.0
H2515 H 0.21873 0.85787 0.45299 0.0
H2516 H 0.20356 0.86394 0.47679 0.0
C2517 C 0.14766 0.87448 0.55374 0.0
C2518 C 0.14131 0.85683 0.51282 0.0
H2519 H 0.13235 0.81386 0.48712 0.0
C2520 C 0.15825 0.87694 0.50471 0.0
C2521 C 0.1316 0.83382 0.50635 0.0
C2522 C 0.11373 0.81157 0.5147 0.0
C2523 C 0.1659 0.87468 0.49033 0.0
C2524 C 0.15679 0.85161 0.48403 0.0
C2525 C 0.13937 0.83152 0.49199 0.0
C2526 C 0.16586 0.8479 0.46948 0.0
C2527 C 0.18354 0.89705 0.48199 0.0
C2528 C 0.14963 0.83629 0.45754 0.0
C2529 C 0.15822 0.83249 0.44393 0.0
C2530 C 0.18321 0.84007 0.44203 0.0
C2531 C 0.19936 0.8516 0.45407 0.0
C2532 C 0.19076 0.85536 0.46765 0.0
H2533 H 0.18285 0.91294 0.48617 0.0
H2534 H 0.20245 0.90047 0.48368 0.0
H2535 H 0.17956 0.89512 0.46978 0.0
H2536 H 0.13031 0.8302 0.45875 0.0
H2537 H 0.14521 0.82326 0.43499 0.0
H2538 H 0.58089 0.81435 0.13679 0.0
H2539 H 0.60169 0.82428 0.16114 0.0
H2540 H 0.64711 0.79577 0.14639 0.0
H2541 H 0.62714 0.78667 0.12188 0.0
H2542 H 0.60383 0.79348 0.18156 0.0
H2543 H 0.69729 0.86058 0.1632 0.0
H2544 H 0.67075 0.85073 0.15133 0.0
H2545 H 0.68502 0.83272 0.15326 0.0
C2546 C 0.5956 0.81058 0.13865 0.0
C2547 C 0.60239 0.79976 0.12738 0.0
C2548 C 0.60734 0.81611 0.15259 0.0
C2549 C 0.62618 0.81108 0.15549 0.0
C2550 C 0.63297 0.80026 0.14429 0.0
H2551 H 0.7105 0.81385 0.2325 0.0
H2552 H 0.6913 0.80872 0.20788 0.0
C2553 C 0.6213 0.79477 0.13035 0.0
C2554 C 0.63804 0.81617 0.17044 0.0
H2555 H 0.69352 0.84564 0.1881 0.0
C2556 C 0.6234 0.80506 0.18302 0.0
C2557 C 0.66358 0.8313 0.1723 0.0
C2558 C 0.68006 0.84471 0.15933 0.0
C2559 C 0.63373 0.80814 0.19737 0.0
C2560 C 0.65931 0.82291 0.19916 0.0
C2561 C 0.67392 0.83424 0.18663 0.0
C2562 C 0.67128 0.82659 0.21396 0.0
C2563 C 0.61732 0.79508 0.21044 0.0
C2564 C 0.66666 0.8387 0.22542 0.0
C2565 C 0.67775 0.84185 0.23944 0.0
C2566 C 0.69369 0.83296 0.24228 0.0
C2567 C 0.69854 0.82114 0.23066 0.0
C2568 C 0.6875 0.81807 0.21662 0.0
H2569 H 0.59898 0.78069 0.20672 0.0
H2570 H 0.62573 0.78708 0.21763 0.0
H2571 H 0.61479 0.80796 0.21738 0.0
H2572 H 0.65453 0.84578 0.22348 0.0
H2573 H 0.67398 0.85144 0.24804 0.0
H2574 H 0.1798 0.78456 0.1213 0.0
H2575 H 0.17024 0.79202 0.14655 0.0
H2576 H 0.24565 0.82069 0.1596 0.0
H2577 H 0.25539 0.81301 0.13433 0.0
H2578 H 0.17686 0.77342 0.17384 0.0
H2579 H 0.22995 0.87292 0.17287 0.0
H2580 H 0.22232 0.85505 0.15601 0.0
H2581 H 0.24656 0.85795 0.16799 0.0
C2582 C 0.19437 0.79233 0.12954 0.0
C2583 C 0.21837 0.7981 0.12578 0.0
C2584 C 0.18888 0.79669 0.14396 0.0
C2585 C 0.20725 0.8071 0.15492 0.0
C2586 C 0.23127 0.81302 0.15124 0.0
H2587 H 0.19722 0.8466 0.24765 0.0
H2588 H 0.21205 0.83908 0.22404 0.0
C2589 C 0.2368 0.80863 0.13679 0.0
C2590 C 0.20092 0.81111 0.17026 0.0
H2591 H 0.20975 0.85474 0.19541 0.0
C2592 C 0.1841 0.79119 0.17858 0.0
C2593 C 0.21052 0.8343 0.17646 0.0
C2594 C 0.22821 0.85635 0.16787 0.0
C2595 C 0.17646 0.79383 0.19288 0.0
C2596 C 0.18549 0.81706 0.1989 0.0
C2597 C 0.20279 0.83695 0.19075 0.0
C2598 C 0.17646 0.82112 0.21336 0.0
C2599 C 0.15893 0.77167 0.20144 0.0
C2600 C 0.15157 0.81372 0.21516 0.0
C2601 C 0.14302 0.81784 0.22865 0.0
C2602 C 0.15921 0.82964 0.24062 0.0
C2603 C 0.18419 0.83716 0.23875 0.0
C2604 C 0.19273 0.83303 0.22523 0.0
H2605 H 0.1596 0.75569 0.19746 0.0
H2606 H 0.16301 0.77395 0.21364 0.0
H2607 H 0.13999 0.76819 0.19974 0.0
H2608 H 0.13874 0.80491 0.20607 0.0
H2609 H 0.12365 0.81161 0.22972 0.0
H2610 H 0.17712 0.39802 0.12059 0.0
H2611 H 0.16811 0.38107 0.14577 0.0
H2612 H 0.24349 0.42714 0.15856 0.0
H2613 H 0.25251 0.44489 0.13349 0.0
H2614 H 0.18736 0.35692 0.16059 0.0
H2615 H 0.20728 0.43892 0.19228 0.0
H2616 H 0.20381 0.43683 0.17216 0.0
H2617 H 0.23186 0.44189 0.18066 0.0
C2618 C 0.19175 0.40486 0.1288 0.0
C2619 C 0.21552 0.42302 0.12499 0.0
C2620 C 0.18659 0.39499 0.14319 0.0
C2621 C 0.205 0.40306 0.15417 0.0
C2622 C 0.22884 0.42095 0.15039 0.0
H2623 H 0.19885 0.35476 0.24698 0.0
H2624 H 0.21277 0.37573 0.22296 0.0
C2625 C 0.23404 0.43087 0.13597 0.0
C2626 C 0.1992 0.39214 0.16939 0.0
H2627 H 0.19757 0.40442 0.20657 0.0
C2628 C 0.1896 0.36733 0.17063 0.0
C2629 C 0.20225 0.40572 0.18254 0.0
C2630 C 0.21166 0.43228 0.18191 0.0
C2631 C 0.18291 0.35575 0.18457 0.0
C2632 C 0.18549 0.36923 0.19767 0.0
C2633 C 0.19557 0.3941 0.19652 0.0
C2634 C 0.17698 0.35757 0.21254 0.0
C2635 C 0.17329 0.32914 0.18518 0.0
C2636 C 0.15214 0.34092 0.21482 0.0
C2637 C 0.14413 0.32903 0.22852 0.0
C2638 C 0.16074 0.33355 0.24033 0.0
C2639 C 0.18552 0.3509 0.23819 0.0
C2640 C 0.19354 0.36283 0.22444 0.0
H2641 H 0.17858 0.32269 0.17508 0.0
H2642 H 0.18015 0.32431 0.19529 0.0
H2643 H 0.153 0.31962 0.1857 0.0
H2644 H 0.13893 0.33699 0.20594 0.0
H2645 H 0.12483 0.31624 0.22985 0.0
H2646 H 0.83283 0.60205 0.89526 0.0
H2647 H 0.8414 0.61834 0.86987 0.0
H2648 H 0.76558 0.57272 0.85788 0.0
H2649 H 0.75685 0.55616 0.88327 0.0
H2650 H 0.83521 0.59501 0.8425 0.0
H2651 H 0.77843 0.63863 0.84469 0.0
H2652 H 0.7865 0.62811 0.86128 0.0
H2653 H 0.7625 0.6073 0.84912 0.0
C2654 C 0.81796 0.59531 0.88722 0.0
C2655 C 0.79411 0.57776 0.89138 0.0
C2656 C 0.82289 0.60475 0.8727 0.0
C2657 C 0.8041 0.59703 0.86198 0.0
C2658 C 0.7803 0.57937 0.86602 0.0
H2659 H 0.80763 0.64454 0.76917 0.0
H2660 H 0.79483 0.62211 0.79276 0.0
C2661 C 0.77534 0.56991 0.88057 0.0
C2662 C 0.80964 0.60727 0.84656 0.0
H2663 H 0.79722 0.63996 0.82156 0.0
C2664 C 0.82687 0.60482 0.83793 0.0
C2665 C 0.79867 0.61995 0.84051 0.0
C2666 C 0.78064 0.62388 0.84939 0.0
C2667 C 0.83347 0.61471 0.82349 0.0
C2668 C 0.82292 0.62786 0.81757 0.0
C2669 C 0.80531 0.62989 0.82607 0.0
C2670 C 0.8308 0.64063 0.80294 0.0
C2671 C 0.85152 0.61078 0.81464 0.0
C2672 C 0.85525 0.65855 0.80078 0.0
C2673 C 0.86262 0.67129 0.78732 0.0
C2674 C 0.8457 0.66658 0.77567 0.0
C2675 C 0.82122 0.64847 0.7778 0.0
C2676 C 0.81383 0.63574 0.79133 0.0
H2677 H 0.85207 0.59474 0.81859 0.0
H2678 H 0.84697 0.60862 0.8025 0.0
H2679 H 0.87011 0.62652 0.81609 0.0
H2680 H 0.86862 0.66299 0.80963 0.0
H2681 H 0.88166 0.68491 0.78606 0.0
H2682 H 0.43676 0.23961 0.88022 0.0
H2683 H 0.41629 0.22966 0.85574 0.0
H2684 H 0.3651 0.15879 0.87149 0.0
H2685 H 0.38531 0.16866 0.89607 0.0
H2686 H 0.40704 0.18828 0.83609 0.0
H2687 H 0.32306 0.18842 0.85508 0.0
H2688 H 0.35154 0.20345 0.86539 0.0
H2689 H 0.33302 0.17147 0.86606 0.0
C2690 C 0.42106 0.22195 0.87848 0.0
C2691 C 0.41255 0.20493 0.89005 0.0
C2692 C 0.40951 0.21627 0.8645 0.0
C2693 C 0.38912 0.19359 0.86192 0.0
C2694 C 0.38071 0.17646 0.87336 0.0
H2695 H 0.29006 0.13538 0.78566 0.0
H2696 H 0.31024 0.14151 0.81006 0.0
C2697 C 0.39235 0.18206 0.88733 0.0
C2698 C 0.37664 0.18794 0.84722 0.0
H2699 H 0.32418 0.17813 0.82987 0.0
C2700 C 0.38892 0.18602 0.83469 0.0
C2701 C 0.35298 0.1849 0.84553 0.0
C2702 C 0.33932 0.18729 0.85867 0.0
C2703 C 0.37805 0.18099 0.82042 0.0
C2704 C 0.35455 0.17845 0.81865 0.0
C2705 C 0.34219 0.18011 0.83126 0.0
C2706 C 0.34263 0.17453 0.80378 0.0
C2707 C 0.39166 0.17806 0.80745 0.0
C2708 C 0.35401 0.19123 0.79224 0.0
C2709 C 0.34257 0.18774 0.77831 0.0
C2710 C 0.31938 0.16764 0.77573 0.0
C2711 C 0.30786 0.15111 0.78737 0.0
C2712 C 0.31939 0.15454 0.80128 0.0
H2713 H 0.40544 0.17332 0.81135 0.0
H2714 H 0.37891 0.164 0.79955 0.0
H2715 H 0.40153 0.19521 0.80127 0.0
H2716 H 0.37162 0.20714 0.79406 0.0
H2717 H 0.3517 0.20098 0.76963 0.0
H2718 H 0.799 0.23737 0.88116 0.0
H2719 H 0.80849 0.22861 0.85614 0.0
H2720 H 0.79023 0.15791 0.87064 0.0
H2721 H 0.78094 0.16663 0.89577 0.0
H2722 H 0.83729 0.1857 0.85583 0.0
H2723 H 0.76069 0.18291 0.8233 0.0
H2724 H 0.77723 0.20847 0.83534 0.0
H2725 H 0.75963 0.17924 0.8434 0.0
C2726 C 0.79695 0.21993 0.87901 0.0
C2727 C 0.78925 0.2027 0.89045 0.0
C2728 C 0.80216 0.21489 0.86468 0.0
C2729 C 0.79982 0.19253 0.8615 0.0
C2730 C 0.79198 0.17522 0.87284 0.0
H2731 H 0.84153 0.13572 0.78547 0.0
H2732 H 0.8269 0.14162 0.80959 0.0
C2733 C 0.78658 0.18018 0.88716 0.0
C2734 C 0.80687 0.18773 0.8466 0.0
H2735 H 0.79216 0.18196 0.80938 0.0
C2736 C 0.82736 0.18471 0.84567 0.0
C2737 C 0.79399 0.18671 0.83338 0.0
C2738 C 0.77153 0.18931 0.83382 0.0
C2739 C 0.83563 0.18114 0.83183 0.0
C2740 C 0.82263 0.17987 0.81857 0.0
C2741 C 0.80208 0.18287 0.81952 0.0
C2742 C 0.8302 0.17562 0.80363 0.0
C2743 C 0.85867 0.17949 0.83152 0.0
C2744 C 0.83592 0.19223 0.79201 0.0
C2745 C 0.84404 0.18875 0.77813 0.0
C2746 C 0.84664 0.1686 0.77564 0.0
C2747 C 0.8402 0.15166 0.78715 0.0
C2748 C 0.83189 0.15504 0.80096 0.0
H2749 H 0.87007 0.18764 0.84168 0.0
H2750 H 0.85365 0.16038 0.83116 0.0
H2751 H 0.86987 0.18852 0.82148 0.0
H2752 H 0.83462 0.20817 0.79378 0.0
H2753 H 0.84894 0.20216 0.76951 0.0
H2754 H 0.23246 0.09256 0.47143 0.0
H2755 H 0.25184 0.10128 0.49618 0.0
H2756 H 0.30442 0.17254 0.48166 0.0
H2757 H 0.28493 0.16401 0.45694 0.0
H2758 H 0.2984 0.11296 0.50308 0.0
H2759 H 0.28198 0.18606 0.52104 0.0
H2760 H 0.26644 0.16696 0.5052 0.0
H2761 H 0.29721 0.19155 0.5033 0.0
C2762 C 0.2481 0.11011 0.47354 0.0
C2763 C 0.25716 0.12763 0.46227 0.0
C2764 C 0.2591 0.11509 0.48769 0.0
C2765 C 0.27935 0.13767 0.49084 0.0
C2766 C 0.28843 0.15521 0.47961 0.0
H2767 H 0.38114 0.19604 0.56544 0.0
H2768 H 0.36015 0.18844 0.54119 0.0
C2769 C 0.27733 0.15029 0.46548 0.0
C2770 C 0.2917 0.14241 0.50563 0.0
H2771 H 0.30974 0.1799 0.53593 0.0
C2772 C 0.30073 0.1275 0.5103 0.0
C2773 C 0.29475 0.16141 0.51503 0.0
C2774 C 0.28438 0.17728 0.51097 0.0
C2775 C 0.31305 0.1313 0.52402 0.0
C2776 C 0.31627 0.1504 0.53332 0.0
C2777 C 0.30728 0.16533 0.52869 0.0
C2778 C 0.32879 0.155 0.54798 0.0
C2779 C 0.3229 0.11512 0.52837 0.0
C2780 C 0.31793 0.13879 0.5598 0.0
C2781 C 0.32984 0.14306 0.57363 0.0
C2782 C 0.35283 0.16363 0.57586 0.0
C2783 C 0.36359 0.1799 0.56399 0.0
C2784 C 0.35158 0.17568 0.55019 0.0
H2785 H 0.32314 0.1043 0.51874 0.0
H2786 H 0.34176 0.12573 0.53295 0.0
H2787 H 0.31116 0.10267 0.53726 0.0
H2788 H 0.30023 0.12283 0.55832 0.0
H2789 H 0.32118 0.13012 0.58252 0.0
H2790 H 0.84546 0.11749 0.45451 0.0
H2791 H 0.83613 0.12483 0.47985 0.0
H2792 H 0.91203 0.15514 0.49227 0.0
H2793 H 0.92153 0.14762 0.46689 0.0
H2794 H 0.84381 0.10681 0.50697 0.0
H2795 H 0.89518 0.20633 0.50591 0.0
H2796 H 0.88764 0.18846 0.48906 0.0
H2797 H 0.91228 0.19194 0.50087 0.0
C2798 C 0.86019 0.12562 0.46263 0.0
C2799 C 0.88425 0.1319 0.45866 0.0
C2800 C 0.85483 0.1299 0.4771 0.0
C2801 C 0.8734 0.14073 0.48791 0.0
C2802 C 0.89748 0.14715 0.48402 0.0
H2803 H 0.86398 0.17959 0.58093 0.0
H2804 H 0.87879 0.17239 0.55721 0.0
C2805 C 0.90288 0.14285 0.46951 0.0
C2806 C 0.86722 0.14459 0.50333 0.0
H2807 H 0.87569 0.18796 0.52858 0.0
C2808 C 0.85083 0.12455 0.51172 0.0
C2809 C 0.87655 0.16773 0.50954 0.0
C2810 C 0.89375 0.18991 0.50088 0.0
C2811 C 0.84333 0.12702 0.5261 0.0
C2812 C 0.85208 0.15019 0.53214 0.0
C2813 C 0.86896 0.17022 0.52392 0.0
C2814 C 0.84309 0.15404 0.54667 0.0
C2815 C 0.82624 0.10475 0.53472 0.0
C2816 C 0.81815 0.1463 0.5486 0.0
C2817 C 0.80962 0.15025 0.56214 0.0
C2818 C 0.82588 0.16221 0.57405 0.0
C2819 C 0.85091 0.17004 0.57208 0.0
C2820 C 0.85943 0.16608 0.55849 0.0
H2821 H 0.82716 0.08894 0.53066 0.0
H2822 H 0.83056 0.1071 0.54689 0.0
H2823 H 0.80716 0.10094 0.53319 0.0
H2824 H 0.80526 0.13737 0.53955 0.0
H2825 H 0.79022 0.14378 0.5633 0.0
H2826 H 0.91724 0.77539 0.46548 0.0
H2827 H 0.90821 0.75757 0.49055 0.0
H2828 H 0.83264 0.71221 0.4779 0.0
H2829 H 0.84163 0.72925 0.45274 0.0
H2830 H 0.87586 0.75627 0.51219 0.0
H2831 H 0.85036 0.66429 0.49466 0.0
H2832 H 0.86594 0.68968 0.48235 0.0
H2833 H 0.83337 0.67566 0.48498 0.0
C2834 C 0.89876 0.76138 0.46796 0.0
C2835 C 0.8802 0.75371 0.457 0.0
C2836 C 0.89359 0.75134 0.48235 0.0
C2837 C 0.86982 0.73328 0.48608 0.0
C2838 C 0.85123 0.72579 0.47524 0.0
H2839 H 0.79178 0.6486 0.56271 0.0
H2840 H 0.80542 0.66951 0.53882 0.0
C2841 C 0.85636 0.73578 0.46087 0.0
C2842 C 0.86426 0.72244 0.50133 0.0
H2843 H 0.84013 0.66894 0.51966 0.0
C2844 C 0.86826 0.73721 0.51385 0.0
C2845 C 0.85444 0.69757 0.50352 0.0
C2846 C 0.85099 0.6809 0.49069 0.0
C2847 C 0.86184 0.72766 0.52841 0.0
C2848 C 0.85145 0.7027 0.53053 0.0
C2849 C 0.84794 0.68804 0.51804 0.0
C2850 C 0.84332 0.69119 0.54549 0.0
C2851 C 0.86547 0.74423 0.54133 0.0
C2852 C 0.86006 0.69645 0.55729 0.0
C2853 C 0.85231 0.68438 0.57102 0.0
C2854 C 0.82768 0.66666 0.57318 0.0
C2855 C 0.81095 0.66182 0.5614 0.0
C2856 C 0.81869 0.67385 0.54773 0.0
H2857 H 0.86843 0.76183 0.53744 0.0
H2858 H 0.84944 0.73613 0.54895 0.0
H2859 H 0.88182 0.74741 0.54787 0.0
H2860 H 0.87925 0.70945 0.55577 0.0
H2861 H 0.86575 0.68838 0.57977 0.0
loop_
_geom_bond_atom_site_label_1
_geom_bond_atom_site_label_2
_geom_bond_distance
_geom_bond_site_symmetry_2
_ccdc_geom_bond_type
H0 C3 0.931 . S
H1 C6 0.928 . S
H2 C8 0.930 . S
C3 H0 0.931 . S
C3 C4 1.413 . S
C3 C5 1.360 . S
C4 C3 1.413 . S
C4 C8 1.429 . S
C5 C3 1.360 . S
C5 C6 1.372 . S
C6 H1 0.928 . S
C6 C5 1.372 . S
C6 C7 1.404 . S
C7 C6 1.404 . S
C7 C8 1.391 . S
C8 H2 0.930 . S
C8 C4 1.429 . S
C8 C7 1.391 . S
H9 C12 0.931 . S
H10 C15 0.928 . S
H11 C17 0.930 . S
C12 H9 0.931 . S
C12 C13 1.413 . S
C12 C14 1.360 . S
C13 C12 1.413 . S
C13 C17 1.429 . S
C14 C12 1.360 . S
C14 C15 1.372 . S
C15 H10 0.928 . S
C15 C14 1.372 . S
C15 C16 1.404 . S
C16 C15 1.404 . S
C16 C17 1.391 . S
C17 H11 0.930 . S
C17 C13 1.429 . S
C17 C16 1.391 . S
H18 C21 0.931 . S
H19 C24 0.928 . S
H20 C26 0.930 . S
C21 H18 0.931 . S
C21 C22 1.413 . S
C21 C23 1.360 . S
C22 C21 1.413 . S
C22 C26 1.429 . S
C23 C21 1.360 . S
C23 C24 1.372 . S
C24 H19 0.928 . S
C24 C23 1.372 . S
C24 C25 1.404 . S
C25 C24 1.404 . S
C25 C26 1.391 . S
C26 H20 0.930 . S
C26 C22 1.429 . S
C26 C25 1.391 . S
H27 C30 0.931 . S
H28 C33 0.928 . S
H29 C35 0.930 . S
C30 H27 0.931 . S
C30 C31 1.413 . S
C30 C32 1.360 . S
C31 C30 1.413 . S
C31 C35 1.429 . S
C32 C30 1.360 . S
C32 C33 1.372 . S
C33 H28 0.928 . S
C33 C32 1.372 . S
C33 C34 1.404 . S
C34 C33 1.404 . S
C34 C35 1.391 . S
C35 H29 0.930 . S
C35 C31 1.429 . S
C35 C34 1.391 . S
H36 C39 0.931 . S
H37 C42 0.928 . S
H38 C44 0.930 . S
C39 H36 0.931 . S
C39 C40 1.413 . S
C39 C41 1.360 . S
C40 C39 1.413 . S
C40 C44 1.429 . S
C41 C39 1.360 . S
C41 C42 1.372 . S
C42 H37 0.928 . S
C42 C41 1.372 . S
C42 C43 1.404 . S
C43 C42 1.404 . S
C43 C44 1.391 . S
C44 H38 0.930 . S
C44 C40 1.429 . S
C44 C43 1.391 . S
H45 C48 0.931 . S
H46 C51 0.928 . S
H47 C53 0.930 . S
C48 H45 0.931 . S
C48 C49 1.413 . S
C48 C50 1.360 . S
C49 C48 1.413 . S
C49 C53 1.429 . S
C50 C48 1.360 . S
C50 C51 1.372 . S
C51 H46 0.928 . S
C51 C50 1.372 . S
C51 C52 1.404 . S
C52 C51 1.404 . S
C52 C53 1.391 . S
C53 H47 0.930 . S
C53 C49 1.429 . S
C53 C52 1.391 . S
H54 C57 0.931 . S
H55 C60 0.928 . S
H56 C62 0.930 . S
C57 H54 0.931 . S
C57 C58 1.413 . S
C57 C59 1.360 . S
C58 C57 1.413 . S
C58 C62 1.429 . S
C59 C57 1.360 . S
C59 C60 1.372 . S
C60 H55 0.928 . S
C60 C59 1.372 . S
C60 C61 1.404 . S
C61 C60 1.404 . S
C61 C62 1.391 . S
C62 H56 0.930 . S
C62 C58 1.429 . S
C62 C61 1.391 . S
H63 C66 0.931 . S
H64 C69 0.928 . S
H65 C71 0.930 . S
C66 H63 0.931 . S
C66 C67 1.413 . S
C66 C68 1.360 . S
C67 C66 1.413 . S
C67 C71 1.429 . S
C68 C66 1.360 . S
C68 C69 1.372 . S
C69 H64 0.928 . S
C69 C68 1.372 . S
C69 C70 1.404 . S
C70 C69 1.404 . S
C70 C71 1.391 . S
C71 H65 0.930 . S
C71 C67 1.429 . S
C71 C70 1.391 . S
H72 C75 0.931 . S
H73 C78 0.928 . S
H74 C80 0.930 . S
C75 H72 0.931 . S
C75 C76 1.413 . S
C75 C77 1.360 . S
C76 C75 1.413 . S
C76 C80 1.429 . S
C77 C75 1.360 . S
C77 C78 1.372 . S
C78 H73 0.928 . S
C78 C77 1.372 . S
C78 C79 1.404 . S
C79 C78 1.404 . S
C79 C80 1.391 . S
C80 H74 0.930 . S
C80 C76 1.429 . S
C80 C79 1.391 . S
H81 C84 0.931 . S
H82 C87 0.928 . S
H83 C89 0.930 . S
C84 H81 0.931 . S
C84 C85 1.413 . S
C84 C86 1.360 . S
C85 C84 1.413 . S
C85 C89 1.429 . S
C86 C84 1.360 . S
C86 C87 1.372 . S
C87 H82 0.928 . S
C87 C86 1.372 . S
C87 C88 1.404 . S
C88 C87 1.404 . S
C88 C89 1.391 . S
C89 H83 0.930 . S
C89 C85 1.429 . S
C89 C88 1.391 . S
H90 C93 0.931 . S
H91 C96 0.928 . S
H92 C98 0.930 . S
C93 H90 0.931 . S
C93 C94 1.413 . S
C93 C95 1.360 . S
C94 C93 1.413 . S
C94 C98 1.429 . S
C95 C93 1.360 . S
C95 C96 1.372 . S
C96 H91 0.928 . S
C96 C95 1.372 . S
C96 C97 1.404 . S
C97 C96 1.404 . S
C97 C98 1.391 . S
C98 H92 0.930 . S
C98 C94 1.429 . S
C98 C97 1.391 . S
H99 C102 0.931 . S
H100 C105 0.928 . S
H101 C107 0.930 . S
C102 H99 0.931 . S
C102 C103 1.413 . S
C102 C104 1.360 . S
C103 C102 1.413 . S
C103 C107 1.429 . S
C104 C102 1.360 . S
C104 C105 1.372 . S
C105 H100 0.928 . S
C105 C104 1.372 . S
C105 C106 1.404 . S
C106 C105 1.404 . S
C106 C107 1.391 . S
C107 H101 0.930 . S
C107 C103 1.429 . S
C107 C106 1.391 . S
H108 C111 0.931 . S
H109 C114 0.928 . S
H110 C116 0.930 . S
C111 H108 0.931 . S
C111 C112 1.413 . S
C111 C113 1.360 . S
C112 C111 1.413 . S
C112 C116 1.429 . S
C113 C111 1.360 . S
C113 C114 1.372 . S
C114 H109 0.928 . S
C114 C113 1.372 . S
C114 C115 1.404 . S
C115 C114 1.404 . S
C115 C116 1.391 . S
C116 H110 0.930 . S
C116 C112 1.429 . S
C116 C115 1.391 . S
H117 C120 0.931 . S
H118 C123 0.928 . S
H119 C125 0.930 . S
C120 H117 0.931 . S
C120 C121 1.413 . S
C120 C122 1.360 . S
C121 C120 1.413 . S
C121 C125 1.429 . S
C122 C120 1.360 . S
C122 C123 1.372 . S
C123 H118 0.928 . S
C123 C122 1.372 . S
C123 C124 1.404 . S
C124 C123 1.404 . S
C124 C125 1.391 . S
C125 H119 0.930 . S
C125 C121 1.429 . S
C125 C124 1.391 . S
H126 C129 0.931 . S
H127 C132 0.928 . S
H128 C134 0.930 . S
C129 H126 0.931 . S
C129 C130 1.413 . S
C129 C131 1.360 . S
C130 C129 1.413 . S
C130 C134 1.429 . S
C131 C129 1.360 . S
C131 C132 1.372 . S
C132 H127 0.928 . S
C132 C131 1.372 . S
C132 C133 1.404 . S
C133 C132 1.404 . S
C133 C134 1.391 . S
C134 H128 0.930 . S
C134 C130 1.429 . S
C134 C133 1.391 . S
H135 C138 0.931 . S
H136 C141 0.928 . S
H137 C143 0.930 . S
C138 H135 0.931 . S
C138 C139 1.413 . S
C138 C140 1.360 . S
C139 C138 1.413 . S
C139 C143 1.429 . S
C140 C138 1.360 . S
C140 C141 1.372 . S
C141 H136 0.928 . S
C141 C140 1.372 . S
C141 C142 1.404 . S
C142 C141 1.404 . S
C142 C143 1.391 . S
C143 H137 0.930 . S
C143 C139 1.429 . S
C143 C142 1.391 . S
H144 C147 0.931 . S
H145 C150 0.928 . S
H146 C152 0.930 . S
C147 H144 0.931 . S
C147 C148 1.413 . S
C147 C149 1.360 . S
C148 C147 1.413 . S
C148 C152 1.429 . S
C149 C147 1.360 . S
C149 C150 1.372 . S
C150 H145 0.928 . S
C150 C149 1.372 . S
C150 C151 1.404 . S
C151 C150 1.404 . S
C151 C152 1.391 . S
C152 H146 0.930 . S
C152 C148 1.429 . S
C152 C151 1.391 . S
H153 C156 0.931 . S
H154 C159 0.928 . S
H155 C161 0.930 . S
C156 H153 0.931 . S
C156 C157 1.413 . S
C156 C158 1.360 . S
C157 C156 1.413 . S
C157 C161 1.429 . S
C158 C156 1.360 . S
C158 C159 1.372 . S
C159 H154 0.928 . S
C159 C158 1.372 . S
C159 C160 1.404 . S
C160 C159 1.404 . S
C160 C161 1.391 . S
C161 H155 0.930 . S
C161 C157 1.429 . S
C161 C160 1.391 . S
Tb162 N193 2.660 . S
Tb162 N200 2.600 . S
Tb162 O206 2.546 . S
Tb162 O207 2.610 1_565 S
Tb162 O209 2.320 1_565 S
Tb162 O210 2.552 1_565 S
Tb162 O211 2.413 . S
Tb162 O213 2.362 1_556 S
Tb162 O214 2.421 . S
Tb162 C226 2.833 . S
C163 C166 1.432 . S
C163 C167 1.414 . S
C163 N170 1.359 . S
C164 C166 1.417 . S
C164 C168 1.432 . S
C164 C176 1.410 . S
C165 C167 1.444 . S
C165 C168 1.317 . S
C165 H188 0.929 . S
C166 C163 1.432 . S
C166 C164 1.417 . S
C166 N174 1.360 . S
C167 C163 1.414 . S
C167 C165 1.444 . S
C167 C172 1.385 . S
C168 C164 1.432 . S
C168 C165 1.317 . S
C168 H180 0.930 . S
C169 C171 1.392 . S
C169 C172 1.370 . S
C169 H181 0.931 . S
N170 C163 1.359 . S
N170 C171 1.327 . S
N170 Tb173 2.600 . S
C171 C169 1.392 . S
C171 N170 1.327 . S
C171 H178 0.930 . S
C172 C167 1.385 . S
C172 C169 1.370 . S
C172 H191 0.930 . S
Tb173 N170 2.600 . S
Tb173 N174 2.660 . S
Tb173 O207 2.362 1_554 S
Tb173 O208 2.421 . S
Tb173 O212 2.546 . S
Tb173 O213 2.610 1_545 S
Tb173 O215 2.320 1_545 S
Tb173 O216 2.552 1_545 S
Tb173 O217 2.413 . S
Tb173 C237 2.833 . S
N174 C166 1.360 . S
N174 Tb173 2.660 . S
N174 C175 1.305 . S
C175 N174 1.305 . S
C175 C177 1.407 . S
C175 H182 0.930 . S
C176 C164 1.410 . S
C176 C177 1.345 . S
C176 H184 0.930 . S
C177 C175 1.407 . S
C177 C176 1.345 . S
C177 H179 0.930 . S
H178 C171 0.930 . S
H179 C177 0.930 . S
H180 C168 0.930 . S
H181 C169 0.931 . S
H182 C175 0.930 . S
H183 C197 0.930 . S
H184 C176 0.930 . S
H185 C203 0.930 . S
H186 C194 0.930 . S
H187 C201 0.931 . S
H188 C165 0.929 . S
H189 C195 0.930 . S
H190 C228 0.930 . S
H191 C172 0.930 . S
H192 C227 0.929 . S
N193 Tb162 2.660 . S
N193 C194 1.305 . S
N193 C198 1.360 . S
C194 H186 0.930 . S
C194 N193 1.305 . S
C194 C197 1.407 . S
C195 H189 0.930 . S
C195 C196 1.410 . S
C195 C197 1.345 . S
C196 C195 1.410 . S
C196 C198 1.417 . S
C196 C228 1.432 . S
C197 H183 0.930 . S
C197 C194 1.407 . S
C197 C195 1.345 . S
C198 N193 1.360 . S
C198 C196 1.417 . S
C198 C202 1.432 . S
H199 C204 0.930 . S
N200 Tb162 2.600 . S
N200 C202 1.359 . S
N200 C203 1.327 . S
C201 H187 0.931 . S
C201 C203 1.392 . S
C201 C204 1.370 . S
C202 C198 1.432 . S
C202 N200 1.359 . S
C202 C205 1.414 . S
C203 H185 0.930 . S
C203 N200 1.327 . S
C203 C201 1.392 . S
C204 H199 0.930 . S
C204 C201 1.370 . S
C204 C205 1.385 . S
C205 C202 1.414 . S
C205 C204 1.385 . S
C205 C227 1.444 . S
O206 Tb162 2.546 . S
O206 C226 1.251 . S
O207 Tb162 2.610 1_545 S
O207 Tb173 2.362 1_556 S
O207 C218 1.283 . S
O208 Tb173 2.421 . S
O208 C225 1.262 1_554 S
O209 Tb162 2.320 1_545 S
O209 C225 1.260 . S
O210 Tb162 2.552 1_545 S
O210 C218 1.243 . S
O211 Tb162 2.413 . S
O211 C226 1.256 . S
O212 Tb173 2.546 . S
O212 C237 1.251 . S
O213 Tb162 2.362 1_554 S
O213 Tb173 2.610 1_565 S
O213 C229 1.283 . S
O214 Tb162 2.421 . S
O214 C236 1.262 1_556 S
O215 Tb173 2.320 1_565 S
O215 C236 1.260 . S
O216 Tb173 2.552 1_565 S
O216 C229 1.243 . S
O217 Tb173 2.413 . S
O217 C237 1.256 . S
C218 O207 1.283 . S
C218 O210 1.243 . S
C219 C221 1.382 1_565 S
C219 C223 1.393 . S
C219 C226 1.500 . S
C220 C221 1.400 . S
C220 C222 1.384 1_545 S
C221 C219 1.382 1_545 S
C221 C220 1.400 . S
C221 H238 0.930 . S
C222 C220 1.384 1_565 S
C222 C224 1.392 . S
C222 H239 0.931 . S
C223 C219 1.393 . S
C223 C224 1.401 . S
C223 H240 0.930 . S
C224 C222 1.392 . S
C224 C223 1.401 . S
C224 H241 0.930 . S
C225 O208 1.262 1_556 S
C225 O209 1.260 . S
C226 Tb162 2.833 . S
C226 O206 1.251 . S
C226 O211 1.256 . S
C226 C219 1.500 . S
C227 H192 0.929 . S
C227 C205 1.444 . S
C227 C228 1.317 . S
C228 H190 0.930 . S
C228 C196 1.432 . S
C228 C227 1.317 . S
C229 O213 1.283 . S
C229 O216 1.243 . S
C230 C231 1.382 1_545 S
C230 C234 1.393 . S
C230 C237 1.500 . S
C231 C230 1.382 1_565 S
C231 C232 1.400 . S
C231 H242 0.930 . S
C232 C231 1.400 . S
C232 C233 1.384 1_565 S
C233 C232 1.384 1_545 S
C233 C235 1.392 . S
C233 H243 0.931 . S
C234 C230 1.393 . S
C234 C235 1.401 . S
C234 H244 0.930 . S
C235 C233 1.392 . S
C235 C234 1.401 . S
C235 H245 0.930 . S
C236 O214 1.262 1_554 S
C236 O215 1.260 . S
C237 Tb173 2.833 . S
C237 O212 1.251 . S
C237 O217 1.256 . S
C237 C230 1.500 . S
H238 C221 0.930 . S
H239 C222 0.931 . S
H240 C223 0.930 . S
H241 C224 0.930 . S
H242 C231 0.930 . S
H243 C233 0.931 . S
H244 C234 0.930 . S
H245 C235 0.930 . S
Tb246 N277 2.660 . S
Tb246 N284 2.600 . S
Tb246 O290 2.546 . S
Tb246 O291 2.610 1_455 S
Tb246 O293 2.320 1_455 S
Tb246 O294 2.552 1_455 S
Tb246 O295 2.413 . S
Tb246 O297 2.362 1_556 S
Tb246 O298 2.421 . S
Tb246 C310 2.833 . S
C247 C250 1.432 . S
C247 C251 1.414 . S
C247 N254 1.359 . S
C248 C250 1.417 . S
C248 C252 1.432 . S
C248 C260 1.410 . S
C249 C251 1.444 . S
C249 C252 1.317 . S
C249 H272 0.929 . S
C250 C247 1.432 . S
C250 C248 1.417 . S
C250 N258 1.360 . S
C251 C247 1.414 . S
C251 C249 1.444 . S
C251 C256 1.385 . S
C252 C248 1.432 . S
C252 C249 1.317 . S
C252 H264 0.930 . S
C253 C255 1.392 . S
C253 C256 1.370 . S
C253 H265 0.931 . S
N254 C247 1.359 . S
N254 C255 1.327 . S
N254 Tb257 2.600 . S
C255 C253 1.392 . S
C255 N254 1.327 . S
C255 H262 0.930 . S
C256 C251 1.385 . S
C256 C253 1.370 . S
C256 H275 0.930 . S
Tb257 N254 2.600 . S
Tb257 N258 2.660 . S
Tb257 O291 2.362 1_554 S
Tb257 O292 2.421 . S
Tb257 O296 2.546 . S
Tb257 O297 2.610 1_655 S
Tb257 O299 2.320 1_655 S
Tb257 O300 2.552 1_655 S
Tb257 O301 2.413 . S
Tb257 C321 2.833 . S
N258 C250 1.360 . S
N258 Tb257 2.660 . S
N258 C259 1.305 . S
C259 N258 1.305 . S
C259 C261 1.407 . S
C259 H266 0.930 . S
C260 C248 1.410 . S
C260 C261 1.345 . S
C260 H268 0.930 . S
C261 C259 1.407 . S
C261 C260 1.345 . S
C261 H263 0.930 . S
H262 C255 0.930 . S
H263 C261 0.930 . S
H264 C252 0.930 . S
H265 C253 0.931 . S
H266 C259 0.930 . S
H267 C281 0.930 . S
H268 C260 0.930 . S
H269 C287 0.930 . S
H270 C278 0.930 . S
H271 C285 0.931 . S
H272 C249 0.929 . S
H273 C279 0.930 . S
H274 C312 0.930 . S
H275 C256 0.930 . S
H276 C311 0.929 . S
N277 Tb246 2.660 . S
N277 C278 1.305 . S
N277 C282 1.360 . S
C278 H270 0.930 . S
C278 N277 1.305 . S
C278 C281 1.407 . S
C279 H273 0.930 . S
C279 C280 1.410 . S
C279 C281 1.345 . S
C280 C279 1.410 . S
C280 C282 1.417 . S
C280 C312 1.432 . S
C281 H267 0.930 . S
C281 C278 1.407 . S
C281 C279 1.345 . S
C282 N277 1.360 . S
C282 C280 1.417 . S
C282 C286 1.432 . S
H283 C288 0.930 . S
N284 Tb246 2.600 . S
N284 C286 1.359 . S
N284 C287 1.327 . S
C285 H271 0.931 . S
C285 C287 1.392 . S
C285 C288 1.370 . S
C286 C282 1.432 . S
C286 N284 1.359 . S
C286 C289 1.414 . S
C287 H269 0.930 . S
C287 N284 1.327 . S
C287 C285 1.392 . S
C288 H283 0.930 . S
C288 C285 1.370 . S
C288 C289 1.385 . S
C289 C286 1.414 . S
C289 C288 1.385 . S
C289 C311 1.444 . S
O290 Tb246 2.546 . S
O290 C310 1.251 . S
O291 Tb246 2.610 1_655 S
O291 Tb257 2.362 1_556 S
O291 C302 1.283 . S
O292 Tb257 2.421 . S
O292 C309 1.262 1_554 S
O293 Tb246 2.320 1_655 S
O293 C309 1.260 . S
O294 Tb246 2.552 1_655 S
O294 C302 1.243 . S
O295 Tb246 2.413 . S
O295 C310 1.256 . S
O296 Tb257 2.546 . S
O296 C321 1.251 . S
O297 Tb246 2.362 1_554 S
O297 Tb257 2.610 1_455 S
O297 C313 1.283 . S
O298 Tb246 2.421 . S
O298 C320 1.262 1_556 S
O299 Tb257 2.320 1_455 S
O299 C320 1.260 . S
O300 Tb257 2.552 1_455 S
O300 C313 1.243 . S
O301 Tb257 2.413 . S
O301 C321 1.256 . S
C302 O291 1.283 . S
C302 O294 1.243 . S
C303 C305 1.382 1_455 S
C303 C307 1.393 . S
C303 C310 1.500 . S
C304 C305 1.400 . S
C304 C306 1.384 1_655 S
C305 C303 1.382 1_655 S
C305 C304 1.400 . S
C305 H322 0.930 . S
C306 C304 1.384 1_455 S
C306 C308 1.392 . S
C306 H323 0.931 . S
C307 C303 1.393 . S
C307 C308 1.401 . S
C307 H324 0.930 . S
C308 C306 1.392 . S
C308 C307 1.401 . S
C308 H325 0.930 . S
C309 O292 1.262 1_556 S
C309 O293 1.260 . S
C310 Tb246 2.833 . S
C310 O290 1.251 . S
C310 O295 1.256 . S
C310 C303 1.500 . S
C311 H276 0.929 . S
C311 C289 1.444 . S
C311 C312 1.317 . S
C312 H274 0.930 . S
C312 C280 1.432 . S
C312 C311 1.317 . S
C313 O297 1.283 . S
C313 O300 1.243 . S
C314 C315 1.382 1_655 S
C314 C318 1.393 . S
C314 C321 1.500 . S
C315 C314 1.382 1_455 S
C315 C316 1.400 . S
C315 H326 0.930 . S
C316 C315 1.400 . S
C316 C317 1.384 1_455 S
C317 C316 1.384 1_655 S
C317 C319 1.392 . S
C317 H327 0.931 . S
C318 C314 1.393 . S
C318 C319 1.401 . S
C318 H328 0.930 . S
C319 C317 1.392 . S
C319 C318 1.401 . S
C319 H329 0.930 . S
C320 O298 1.262 1_554 S
C320 O299 1.260 . S
C321 Tb257 2.833 . S
C321 O296 1.251 . S
C321 O301 1.256 . S
C321 C314 1.500 . S
H322 C305 0.930 . S
H323 C306 0.931 . S
H324 C307 0.930 . S
H325 C308 0.930 . S
H326 C315 0.930 . S
H327 C317 0.931 . S
H328 C318 0.930 . S
H329 C319 0.930 . S
Tb330 N361 2.660 . S
Tb330 N368 2.600 . S
Tb330 O374 2.546 . S
Tb330 O375 2.610 . S
Tb330 O377 2.320 . S
Tb330 O378 2.552 . S
Tb330 O379 2.413 . S
Tb330 O381 2.362 1_554 S
Tb330 O382 2.421 . S
Tb330 C394 2.833 . S
C331 C334 1.432 . S
C331 C335 1.414 . S
C331 N338 1.359 . S
C332 C334 1.417 . S
C332 C336 1.432 . S
C332 C344 1.410 . S
C333 C335 1.444 . S
C333 C336 1.317 . S
C333 H356 0.929 . S
C334 C331 1.432 . S
C334 C332 1.417 . S
C334 N342 1.360 . S
C335 C331 1.414 . S
C335 C333 1.444 . S
C335 C340 1.385 . S
C336 C332 1.432 . S
C336 C333 1.317 . S
C336 H348 0.930 . S
C337 C339 1.392 . S
C337 C340 1.370 . S
C337 H349 0.931 . S
N338 C331 1.359 . S
N338 C339 1.327 . S
N338 Tb341 2.600 . S
C339 C337 1.392 . S
C339 N338 1.327 . S
C339 H346 0.930 . S
C340 C335 1.385 . S
C340 C337 1.370 . S
C340 H359 0.930 . S
Tb341 N338 2.600 . S
Tb341 N342 2.660 . S
Tb341 O375 2.362 1_556 S
Tb341 O376 2.421 . S
Tb341 O380 2.546 . S
Tb341 O381 2.610 . S
Tb341 O383 2.320 . S
Tb341 O384 2.552 . S
Tb341 O385 2.413 . S
Tb341 C405 2.833 . S
N342 C334 1.360 . S
N342 Tb341 2.660 . S
N342 C343 1.305 . S
C343 N342 1.305 . S
C343 C345 1.407 . S
C343 H350 0.930 . S
C344 C332 1.410 . S
C344 C345 1.345 . S
C344 H352 0.930 . S
C345 C343 1.407 . S
C345 C344 1.345 . S
C345 H347 0.930 . S
H346 C339 0.930 . S
H347 C345 0.930 . S
H348 C336 0.930 . S
H349 C337 0.931 . S
H350 C343 0.930 . S
H351 C365 0.930 . S
H352 C344 0.930 . S
H353 C371 0.930 . S
H354 C362 0.930 . S
H355 C369 0.931 . S
H356 C333 0.929 . S
H357 C363 0.930 . S
H358 C396 0.930 . S
H359 C340 0.930 . S
H360 C395 0.929 . S
N361 Tb330 2.660 . S
N361 C362 1.305 . S
N361 C366 1.360 . S
C362 H354 0.930 . S
C362 N361 1.305 . S
C362 C365 1.407 . S
C363 H357 0.930 . S
C363 C364 1.410 . S
C363 C365 1.345 . S
C364 C363 1.410 . S
C364 C366 1.417 . S
C364 C396 1.432 . S
C365 H351 0.930 . S
C365 C362 1.407 . S
C365 C363 1.345 . S
C366 N361 1.360 . S
C366 C364 1.417 . S
C366 C370 1.432 . S
H367 C372 0.930 . S
N368 Tb330 2.600 . S
N368 C370 1.359 . S
N368 C371 1.327 . S
C369 H355 0.931 . S
C369 C371 1.392 . S
C369 C372 1.370 . S
C370 C366 1.432 . S
C370 N368 1.359 . S
C370 C373 1.414 . S
C371 H353 0.930 . S
C371 N368 1.327 . S
C371 C369 1.392 . S
C372 H367 0.930 . S
C372 C369 1.370 . S
C372 C373 1.385 . S
C373 C370 1.414 . S
C373 C372 1.385 . S
C373 C395 1.444 . S
O374 Tb330 2.546 . S
O374 C394 1.251 . S
O375 Tb330 2.610 . S
O375 Tb341 2.362 1_554 S
O375 C386 1.283 . S
O376 Tb341 2.421 . S
O376 C393 1.262 1_556 S
O377 Tb330 2.320 . S
O377 C393 1.260 . S
O378 Tb330 2.552 . S
O378 C386 1.243 . S
O379 Tb330 2.413 . S
O379 C394 1.256 . S
O380 Tb341 2.546 . S
O380 C405 1.251 . S
O381 Tb330 2.362 1_556 S
O381 Tb341 2.610 . S
O381 C397 1.283 . S
O382 Tb330 2.421 . S
O382 C404 1.262 1_554 S
O383 Tb341 2.320 . S
O383 C404 1.260 . S
O384 Tb341 2.552 . S
O384 C397 1.243 . S
O385 Tb341 2.413 . S
O385 C405 1.256 . S
C386 O375 1.283 . S
C386 O378 1.243 . S
C387 C389 1.382 . S
C387 C391 1.393 . S
C387 C394 1.500 . S
C388 C389 1.400 . S
C388 C390 1.384 . S
C389 C387 1.382 . S
C389 C388 1.400 . S
C389 H406 0.930 . S
C390 C388 1.384 . S
C390 C392 1.392 . S
C390 H407 0.931 . S
C391 C387 1.393 . S
C391 C392 1.401 . S
C391 H408 0.930 . S
C392 C390 1.392 . S
C392 C391 1.401 . S
C392 H409 0.930 . S
C393 O376 1.262 1_554 S
C393 O377 1.260 . S
C394 Tb330 2.833 . S
C394 O374 1.251 . S
C394 O379 1.256 . S
C394 C387 1.500 . S
C395 H360 0.929 . S
C395 C373 1.444 . S
C395 C396 1.317 . S
C396 H358 0.930 . S
C396 C364 1.432 . S
C396 C395 1.317 . S
C397 O381 1.283 . S
C397 O384 1.243 . S
C398 C399 1.382 . S
C398 C402 1.393 . S
C398 C405 1.500 . S
C399 C398 1.382 . S
C399 C400 1.400 . S
C399 H410 0.930 . S
C400 C399 1.400 . S
C400 C401 1.384 . S
C401 C400 1.384 . S
C401 C403 1.392 . S
C401 H411 0.931 . S
C402 C398 1.393 . S
C402 C403 1.401 . S
C402 H412 0.930 . S
C403 C401 1.392 . S
C403 C402 1.401 . S
C403 H413 0.930 . S
C404 O382 1.262 1_556 S
C404 O383 1.260 . S
C405 Tb341 2.833 . S
C405 O380 1.251 . S
C405 O385 1.256 . S
C405 C398 1.500 . S
H406 C389 0.930 . S
H407 C390 0.931 . S
H408 C391 0.930 . S
H409 C392 0.930 . S
H410 C399 0.930 . S
H411 C401 0.931 . S
H412 C402 0.930 . S
H413 C403 0.930 . S
Tb414 N445 2.660 . S
Tb414 N452 2.600 . S
Tb414 O458 2.546 . S
Tb414 O459 2.610 . S
Tb414 O461 2.320 . S
Tb414 O462 2.552 . S
Tb414 O463 2.413 . S
Tb414 O465 2.362 . S
Tb414 O466 2.421 . S
Tb414 C478 2.833 . S
C415 C418 1.432 . S
C415 C419 1.414 . S
C415 N422 1.359 . S
C416 C418 1.417 . S
C416 C420 1.432 . S
C416 C428 1.410 . S
C417 C419 1.444 . S
C417 C420 1.317 . S
C417 H440 0.929 . S
C418 C415 1.432 . S
C418 C416 1.417 . S
C418 N426 1.360 . S
C419 C415 1.414 . S
C419 C417 1.444 . S
C419 C424 1.385 . S
C420 C416 1.432 . S
C420 C417 1.317 . S
C420 H432 0.930 . S
C421 C423 1.392 . S
C421 C424 1.370 . S
C421 H433 0.931 . S
N422 C415 1.359 . S
N422 C423 1.327 . S
N422 Tb425 2.600 . S
C423 C421 1.392 . S
C423 N422 1.327 . S
C423 H430 0.930 . S
C424 C419 1.385 . S
C424 C421 1.370 . S
C424 H443 0.930 . S
Tb425 N422 2.600 . S
Tb425 N426 2.660 . S
Tb425 O459 2.362 . S
Tb425 O460 2.421 . S
Tb425 O464 2.546 . S
Tb425 O465 2.610 . S
Tb425 O467 2.320 . S
Tb425 O468 2.552 . S
Tb425 O469 2.413 . S
Tb425 C489 2.833 . S
N426 C418 1.360 . S
N426 Tb425 2.660 . S
N426 C427 1.305 . S
C427 N426 1.305 . S
C427 C429 1.407 . S
C427 H434 0.930 . S
C428 C416 1.410 . S
C428 C429 1.345 . S
C428 H436 0.930 . S
C429 C427 1.407 . S
C429 C428 1.345 . S
C429 H431 0.930 . S
H430 C423 0.930 . S
H431 C429 0.930 . S
H432 C420 0.930 . S
H433 C421 0.931 . S
H434 C427 0.930 . S
H435 C449 0.930 . S
H436 C428 0.930 . S
H437 C455 0.930 . S
H438 C446 0.930 . S
H439 C453 0.931 . S
H440 C417 0.929 . S
H441 C447 0.930 . S
H442 C480 0.930 . S
H443 C424 0.930 . S
H444 C479 0.929 . S
N445 Tb414 2.660 . S
N445 C446 1.305 . S
N445 C450 1.360 . S
C446 H438 0.930 . S
C446 N445 1.305 . S
C446 C449 1.407 . S
C447 H441 0.930 . S
C447 C448 1.410 . S
C447 C449 1.345 . S
C448 C447 1.410 . S
C448 C450 1.417 . S
C448 C480 1.432 . S
C449 H435 0.930 . S
C449 C446 1.407 . S
C449 C447 1.345 . S
C450 N445 1.360 . S
C450 C448 1.417 . S
C450 C454 1.432 . S
H451 C456 0.930 . S
N452 Tb414 2.600 . S
N452 C454 1.359 . S
N452 C455 1.327 . S
C453 H439 0.931 . S
C453 C455 1.392 . S
C453 C456 1.370 . S
C454 C450 1.432 . S
C454 N452 1.359 . S
C454 C457 1.414 . S
C455 H437 0.930 . S
C455 N452 1.327 . S
C455 C453 1.392 . S
C456 H451 0.930 . S
C456 C453 1.370 . S
C456 C457 1.385 . S
C457 C454 1.414 . S
C457 C456 1.385 . S
C457 C479 1.444 . S
O458 Tb414 2.546 . S
O458 C478 1.251 . S
O459 Tb414 2.610 . S
O459 Tb425 2.362 . S
O459 C470 1.283 . S
O460 Tb425 2.421 . S
O460 C477 1.262 . S
O461 Tb414 2.320 . S
O461 C477 1.260 . S
O462 Tb414 2.552 . S
O462 C470 1.243 . S
O463 Tb414 2.413 . S
O463 C478 1.256 . S
O464 Tb425 2.546 . S
O464 C489 1.251 . S
O465 Tb414 2.362 . S
O465 Tb425 2.610 . S
O465 C481 1.283 . S
O466 Tb414 2.421 . S
O466 C488 1.262 . S
O467 Tb425 2.320 . S
O467 C488 1.260 . S
O468 Tb425 2.552 . S
O468 C481 1.243 . S
O469 Tb425 2.413 . S
O469 C489 1.256 . S
C470 O459 1.283 . S
C470 O462 1.243 . S
C471 C473 1.382 . S
C471 C475 1.393 . S
C471 C478 1.500 . S
C472 C473 1.400 . S
C472 C474 1.384 . S
C473 C471 1.382 . S
C473 C472 1.400 . S
C473 H490 0.930 . S
C474 C472 1.384 . S
C474 C476 1.392 . S
C474 H491 0.931 . S
C475 C471 1.393 . S
C475 C476 1.401 . S
C475 H492 0.930 . S
C476 C474 1.392 . S
C476 C475 1.401 . S
C476 H493 0.930 . S
C477 O460 1.262 . S
C477 O461 1.260 . S
C478 Tb414 2.833 . S
C478 O458 1.251 . S
C478 O463 1.256 . S
C478 C471 1.500 . S
C479 H444 0.929 . S
C479 C457 1.444 . S
C479 C480 1.317 . S
C480 H442 0.930 . S
C480 C448 1.432 . S
C480 C479 1.317 . S
C481 O465 1.283 . S
C481 O468 1.243 . S
C482 C483 1.382 . S
C482 C486 1.393 . S
C482 C489 1.500 . S
C483 C482 1.382 . S
C483 C484 1.400 . S
C483 H494 0.930 . S
C484 C483 1.400 . S
C484 C485 1.384 . S
C485 C484 1.384 . S
C485 C487 1.392 . S
C485 H495 0.931 . S
C486 C482 1.393 . S
C486 C487 1.401 . S
C486 H496 0.930 . S
C487 C485 1.392 . S
C487 C486 1.401 . S
C487 H497 0.930 . S
C488 O466 1.262 . S
C488 O467 1.260 . S
C489 Tb425 2.833 . S
C489 O464 1.251 . S
C489 O469 1.256 . S
C489 C482 1.500 . S
H490 C473 0.930 . S
H491 C474 0.931 . S
H492 C475 0.930 . S
H493 C476 0.930 . S
H494 C483 0.930 . S
H495 C485 0.931 . S
H496 C486 0.930 . S
H497 C487 0.930 . S
Tb498 N529 2.660 . S
Tb498 N536 2.600 . S
Tb498 O542 2.546 . S
Tb498 O543 2.610 . S
Tb498 O545 2.320 . S
Tb498 O546 2.552 . S
Tb498 O547 2.413 . S
Tb498 O549 2.362 . S
Tb498 O550 2.421 . S
Tb498 C562 2.833 . S
C499 C502 1.432 . S
C499 C503 1.414 . S
C499 N506 1.359 . S
C500 C502 1.417 . S
C500 C504 1.432 . S
C500 C512 1.410 . S
C501 C503 1.444 . S
C501 C504 1.317 . S
C501 H524 0.929 . S
C502 C499 1.432 . S
C502 C500 1.417 . S
C502 N510 1.360 . S
C503 C499 1.414 . S
C503 C501 1.444 . S
C503 C508 1.385 . S
C504 C500 1.432 . S
C504 C501 1.317 . S
C504 H516 0.930 . S
C505 C507 1.392 . S
C505 C508 1.370 . S
C505 H517 0.931 . S
N506 C499 1.359 . S
N506 C507 1.327 . S
N506 Tb509 2.600 . S
C507 C505 1.392 . S
C507 N506 1.327 . S
C507 H514 0.930 . S
C508 C503 1.385 . S
C508 C505 1.370 . S
C508 H527 0.930 . S
Tb509 N506 2.600 . S
Tb509 N510 2.660 . S
Tb509 O543 2.362 . S
Tb509 O544 2.421 . S
Tb509 O548 2.546 . S
Tb509 O549 2.610 . S
Tb509 O551 2.320 . S
Tb509 O552 2.552 . S
Tb509 O553 2.413 . S
Tb509 C573 2.833 . S
N510 C502 1.360 . S
N510 Tb509 2.660 . S
N510 C511 1.305 . S
C511 N510 1.305 . S
C511 C513 1.407 . S
C511 H518 0.930 . S
C512 C500 1.410 . S
C512 C513 1.345 . S
C512 H520 0.930 . S
C513 C511 1.407 . S
C513 C512 1.345 . S
C513 H515 0.930 . S
H514 C507 0.930 . S
H515 C513 0.930 . S
H516 C504 0.930 . S
H517 C505 0.931 . S
H518 C511 0.930 . S
H519 C533 0.930 . S
H520 C512 0.930 . S
H521 C539 0.930 . S
H522 C530 0.930 . S
H523 C537 0.931 . S
H524 C501 0.929 . S
H525 C531 0.930 . S
H526 C564 0.930 . S
H527 C508 0.930 . S
H528 C563 0.929 . S
N529 Tb498 2.660 . S
N529 C530 1.305 . S
N529 C534 1.360 . S
C530 H522 0.930 . S
C530 N529 1.305 . S
C530 C533 1.407 . S
C531 H525 0.930 . S
C531 C532 1.410 . S
C531 C533 1.345 . S
C532 C531 1.410 . S
C532 C534 1.417 . S
C532 C564 1.432 . S
C533 H519 0.930 . S
C533 C530 1.407 . S
C533 C531 1.345 . S
C534 N529 1.360 . S
C534 C532 1.417 . S
C534 C538 1.432 . S
H535 C540 0.930 . S
N536 Tb498 2.600 . S
N536 C538 1.359 . S
N536 C539 1.327 . S
C537 H523 0.931 . S
C537 C539 1.392 . S
C537 C540 1.370 . S
C538 C534 1.432 . S
C538 N536 1.359 . S
C538 C541 1.414 . S
C539 H521 0.930 . S
C539 N536 1.327 . S
C539 C537 1.392 . S
C540 H535 0.930 . S
C540 C537 1.370 . S
C540 C541 1.385 . S
C541 C538 1.414 . S
C541 C540 1.385 . S
C541 C563 1.444 . S
O542 Tb498 2.546 . S
O542 C562 1.251 . S
O543 Tb498 2.610 . S
O543 Tb509 2.362 . S
O543 C554 1.283 . S
O544 Tb509 2.421 . S
O544 C561 1.262 . S
O545 Tb498 2.320 . S
O545 C561 1.260 . S
O546 Tb498 2.552 . S
O546 C554 1.243 . S
O547 Tb498 2.413 . S
O547 C562 1.256 . S
O548 Tb509 2.546 . S
O548 C573 1.251 . S
O549 Tb498 2.362 . S
O549 Tb509 2.610 . S
O549 C565 1.283 . S
O550 Tb498 2.421 . S
O550 C572 1.262 . S
O551 Tb509 2.320 . S
O551 C572 1.260 . S
O552 Tb509 2.552 . S
O552 C565 1.243 . S
O553 Tb509 2.413 . S
O553 C573 1.256 . S
C554 O543 1.283 . S
C554 O546 1.243 . S
C555 C557 1.382 . S
C555 C559 1.393 . S
C555 C562 1.500 . S
C556 C557 1.400 . S
C556 C558 1.384 . S
C557 C555 1.382 . S
C557 C556 1.400 . S
C557 H574 0.930 . S
C558 C556 1.384 . S
C558 C560 1.392 . S
C558 H575 0.931 . S
C559 C555 1.393 . S
C559 C560 1.401 . S
C559 H576 0.930 . S
C560 C558 1.392 . S
C560 C559 1.401 . S
C560 H577 0.930 . S
C561 O544 1.262 . S
C561 O545 1.260 . S
C562 Tb498 2.833 . S
C562 O542 1.251 . S
C562 O547 1.256 . S
C562 C555 1.500 . S
C563 H528 0.929 . S
C563 C541 1.444 . S
C563 C564 1.317 . S
C564 H526 0.930 . S
C564 C532 1.432 . S
C564 C563 1.317 . S
C565 O549 1.283 . S
C565 O552 1.243 . S
C566 C567 1.382 . S
C566 C570 1.393 . S
C566 C573 1.500 . S
C567 C566 1.382 . S
C567 C568 1.400 . S
C567 H578 0.930 . S
C568 C567 1.400 . S
C568 C569 1.384 . S
C569 C568 1.384 . S
C569 C571 1.392 . S
C569 H579 0.931 . S
C570 C566 1.393 . S
C570 C571 1.401 . S
C570 H580 0.930 . S
C571 C569 1.392 . S
C571 C570 1.401 . S
C571 H581 0.930 . S
C572 O550 1.262 . S
C572 O551 1.260 . S
C573 Tb509 2.833 . S
C573 O548 1.251 . S
C573 O553 1.256 . S
C573 C566 1.500 . S
H574 C557 0.930 . S
H575 C558 0.931 . S
H576 C559 0.930 . S
H577 C560 0.930 . S
H578 C567 0.930 . S
H579 C569 0.931 . S
H580 C570 0.930 . S
H581 C571 0.930 . S
Tb582 N613 2.660 . S
Tb582 N620 2.600 . S
Tb582 O626 2.546 . S
Tb582 O627 2.610 . S
Tb582 O629 2.320 . S
Tb582 O630 2.552 . S
Tb582 O631 2.413 . S
Tb582 O633 2.362 . S
Tb582 O634 2.421 . S
Tb582 C646 2.833 . S
C583 C586 1.432 . S
C583 C587 1.414 . S
C583 N590 1.359 . S
C584 C586 1.417 . S
C584 C588 1.432 . S
C584 C596 1.410 . S
C585 C587 1.444 . S
C585 C588 1.317 . S
C585 H608 0.929 . S
C586 C583 1.432 . S
C586 C584 1.417 . S
C586 N594 1.360 . S
C587 C583 1.414 . S
C587 C585 1.444 . S
C587 C592 1.385 . S
C588 C584 1.432 . S
C588 C585 1.317 . S
C588 H600 0.930 . S
C589 C591 1.392 . S
C589 C592 1.370 . S
C589 H601 0.931 . S
N590 C583 1.359 . S
N590 C591 1.327 . S
N590 Tb593 2.600 . S
C591 C589 1.392 . S
C591 N590 1.327 . S
C591 H598 0.930 . S
C592 C587 1.385 . S
C592 C589 1.370 . S
C592 H611 0.930 . S
Tb593 N590 2.600 . S
Tb593 N594 2.660 . S
Tb593 O627 2.362 . S
Tb593 O628 2.421 . S
Tb593 O632 2.546 . S
Tb593 O633 2.610 . S
Tb593 O635 2.320 . S
Tb593 O636 2.552 . S
Tb593 O637 2.413 . S
Tb593 C657 2.833 . S
N594 C586 1.360 . S
N594 Tb593 2.660 . S
N594 C595 1.305 . S
C595 N594 1.305 . S
C595 C597 1.407 . S
C595 H602 0.930 . S
C596 C584 1.410 . S
C596 C597 1.345 . S
C596 H604 0.930 . S
C597 C595 1.407 . S
C597 C596 1.345 . S
C597 H599 0.930 . S
H598 C591 0.930 . S
H599 C597 0.930 . S
H600 C588 0.930 . S
H601 C589 0.931 . S
H602 C595 0.930 . S
H603 C617 0.930 . S
H604 C596 0.930 . S
H605 C623 0.930 . S
H606 C614 0.930 . S
H607 C621 0.931 . S
H608 C585 0.929 . S
H609 C615 0.930 . S
H610 C648 0.930 . S
H611 C592 0.930 . S
H612 C647 0.929 . S
N613 Tb582 2.660 . S
N613 C614 1.305 . S
N613 C618 1.360 . S
C614 H606 0.930 . S
C614 N613 1.305 . S
C614 C617 1.407 . S
C615 H609 0.930 . S
C615 C616 1.410 . S
C615 C617 1.345 . S
C616 C615 1.410 . S
C616 C618 1.417 . S
C616 C648 1.432 . S
C617 H603 0.930 . S
C617 C614 1.407 . S
C617 C615 1.345 . S
C618 N613 1.360 . S
C618 C616 1.417 . S
C618 C622 1.432 . S
H619 C624 0.930 . S
N620 Tb582 2.600 . S
N620 C622 1.359 . S
N620 C623 1.327 . S
C621 H607 0.931 . S
C621 C623 1.392 . S
C621 C624 1.370 . S
C622 C618 1.432 . S
C622 N620 1.359 . S
C622 C625 1.414 . S
C623 H605 0.930 . S
C623 N620 1.327 . S
C623 C621 1.392 . S
C624 H619 0.930 . S
C624 C621 1.370 . S
C624 C625 1.385 . S
C625 C622 1.414 . S
C625 C624 1.385 . S
C625 C647 1.444 . S
O626 Tb582 2.546 . S
O626 C646 1.251 . S
O627 Tb582 2.610 . S
O627 Tb593 2.362 . S
O627 C638 1.283 . S
O628 Tb593 2.421 . S
O628 C645 1.262 . S
O629 Tb582 2.320 . S
O629 C645 1.260 . S
O630 Tb582 2.552 . S
O630 C638 1.243 . S
O631 Tb582 2.413 . S
O631 C646 1.256 . S
O632 Tb593 2.546 . S
O632 C657 1.251 . S
O633 Tb582 2.362 . S
O633 Tb593 2.610 . S
O633 C649 1.283 . S
O634 Tb582 2.421 . S
O634 C656 1.262 . S
O635 Tb593 2.320 . S
O635 C656 1.260 . S
O636 Tb593 2.552 . S
O636 C649 1.243 . S
O637 Tb593 2.413 . S
O637 C657 1.256 . S
C638 O627 1.283 . S
C638 O630 1.243 . S
C639 C641 1.382 . S
C639 C643 1.393 . S
C639 C646 1.500 . S
C640 C641 1.400 . S
C640 C642 1.384 . S
C641 C639 1.382 . S
C641 C640 1.400 . S
C641 H658 0.930 . S
C642 C640 1.384 . S
C642 C644 1.392 . S
C642 H659 0.931 . S
C643 C639 1.393 . S
C643 C644 1.401 . S
C643 H660 0.930 . S
C644 C642 1.392 . S
C644 C643 1.401 . S
C644 H661 0.930 . S
C645 O628 1.262 . S
C645 O629 1.260 . S
C646 Tb582 2.833 . S
C646 O626 1.251 . S
C646 O631 1.256 . S
C646 C639 1.500 . S
C647 H612 0.929 . S
C647 C625 1.444 . S
C647 C648 1.317 . S
C648 H610 0.930 . S
C648 C616 1.432 . S
C648 C647 1.317 . S
C649 O633 1.283 . S
C649 O636 1.243 . S
C650 C651 1.382 . S
C650 C654 1.393 . S
C650 C657 1.500 . S
C651 C650 1.382 . S
C651 C652 1.400 . S
C651 H662 0.930 . S
C652 C651 1.400 . S
C652 C653 1.384 . S
C653 C652 1.384 . S
C653 C655 1.392 . S
C653 H663 0.931 . S
C654 C650 1.393 . S
C654 C655 1.401 . S
C654 H664 0.930 . S
C655 C653 1.392 . S
C655 C654 1.401 . S
C655 H665 0.930 . S
C656 O634 1.262 . S
C656 O635 1.260 . S
C657 Tb593 2.833 . S
C657 O632 1.251 . S
C657 O637 1.256 . S
C657 C650 1.500 . S
H658 C641 0.930 . S
H659 C642 0.931 . S
H660 C643 0.930 . S
H661 C644 0.930 . S
H662 C651 0.930 . S
H663 C653 0.931 . S
H664 C654 0.930 . S
H665 C655 0.930 . S
Tb666 N697 2.660 . S
Tb666 N704 2.600 . S
Tb666 O710 2.546 . S
Tb666 O711 2.610 . S
Tb666 O713 2.320 . S
Tb666 O714 2.552 . S
Tb666 O715 2.413 . S
Tb666 O717 2.362 . S
Tb666 O718 2.421 . S
Tb666 C730 2.833 . S
C667 C670 1.432 . S
C667 C671 1.414 . S
C667 N674 1.359 . S
C668 C670 1.417 . S
C668 C672 1.432 . S
C668 C680 1.410 . S
C669 C671 1.444 . S
C669 C672 1.317 . S
C669 H692 0.929 . S
C670 C667 1.432 . S
C670 C668 1.417 . S
C670 N678 1.360 . S
C671 C667 1.414 . S
C671 C669 1.444 . S
C671 C676 1.385 . S
C672 C668 1.432 . S
C672 C669 1.317 . S
C672 H684 0.930 . S
C673 C675 1.392 . S
C673 C676 1.370 . S
C673 H685 0.931 . S
N674 C667 1.359 . S
N674 C675 1.327 . S
N674 Tb677 2.600 . S
C675 C673 1.392 . S
C675 N674 1.327 . S
C675 H682 0.930 . S
C676 C671 1.385 . S
C676 C673 1.370 . S
C676 H695 0.930 . S
Tb677 N674 2.600 . S
Tb677 N678 2.660 . S
Tb677 O711 2.362 . S
Tb677 O712 2.421 . S
Tb677 O716 2.546 . S
Tb677 O717 2.610 . S
Tb677 O719 2.320 . S
Tb677 O720 2.552 . S
Tb677 O721 2.413 . S
Tb677 C741 2.833 . S
N678 C670 1.360 . S
N678 Tb677 2.660 . S
N678 C679 1.305 . S
C679 N678 1.305 . S
C679 C681 1.407 . S
C679 H686 0.930 . S
C680 C668 1.410 . S
C680 C681 1.345 . S
C680 H688 0.930 . S
C681 C679 1.407 . S
C681 C680 1.345 . S
C681 H683 0.930 . S
H682 C675 0.930 . S
H683 C681 0.930 . S
H684 C672 0.930 . S
H685 C673 0.931 . S
H686 C679 0.930 . S
H687 C701 0.930 . S
H688 C680 0.930 . S
H689 C707 0.930 . S
H690 C698 0.930 . S
H691 C705 0.931 . S
H692 C669 0.929 . S
H693 C699 0.930 . S
H694 C732 0.930 . S
H695 C676 0.930 . S
H696 C731 0.929 . S
N697 Tb666 2.660 . S
N697 C698 1.305 . S
N697 C702 1.360 . S
C698 H690 0.930 . S
C698 N697 1.305 . S
C698 C701 1.407 . S
C699 H693 0.930 . S
C699 C700 1.410 . S
C699 C701 1.345 . S
C700 C699 1.410 . S
C700 C702 1.417 . S
C700 C732 1.432 . S
C701 H687 0.930 . S
C701 C698 1.407 . S
C701 C699 1.345 . S
C702 N697 1.360 . S
C702 C700 1.417 . S
C702 C706 1.432 . S
H703 C708 0.930 . S
N704 Tb666 2.600 . S
N704 C706 1.359 . S
N704 C707 1.327 . S
C705 H691 0.931 . S
C705 C707 1.392 . S
C705 C708 1.370 . S
C706 C702 1.432 . S
C706 N704 1.359 . S
C706 C709 1.414 . S
C707 H689 0.930 . S
C707 N704 1.327 . S
C707 C705 1.392 . S
C708 H703 0.930 . S
C708 C705 1.370 . S
C708 C709 1.385 . S
C709 C706 1.414 . S
C709 C708 1.385 . S
C709 C731 1.444 . S
O710 Tb666 2.546 . S
O710 C730 1.251 . S
O711 Tb666 2.610 . S
O711 Tb677 2.362 . S
O711 C722 1.283 . S
O712 Tb677 2.421 . S
O712 C729 1.262 . S
O713 Tb666 2.320 . S
O713 C729 1.260 . S
O714 Tb666 2.552 . S
O714 C722 1.243 . S
O715 Tb666 2.413 . S
O715 C730 1.256 . S
O716 Tb677 2.546 . S
O716 C741 1.251 . S
O717 Tb666 2.362 . S
O717 Tb677 2.610 . S
O717 C733 1.283 . S
O718 Tb666 2.421 . S
O718 C740 1.262 . S
O719 Tb677 2.320 . S
O719 C740 1.260 . S
O720 Tb677 2.552 . S
O720 C733 1.243 . S
O721 Tb677 2.413 . S
O721 C741 1.256 . S
C722 O711 1.283 . S
C722 O714 1.243 . S
C723 C725 1.382 . S
C723 C727 1.393 . S
C723 C730 1.500 . S
C724 C725 1.400 . S
C724 C726 1.384 . S
C725 C723 1.382 . S
C725 C724 1.400 . S
C725 H742 0.930 . S
C726 C724 1.384 . S
C726 C728 1.392 . S
C726 H743 0.931 . S
C727 C723 1.393 . S
C727 C728 1.401 . S
C727 H744 0.930 . S
C728 C726 1.392 . S
C728 C727 1.401 . S
C728 H745 0.930 . S
C729 O712 1.262 . S
C729 O713 1.260 . S
C730 Tb666 2.833 . S
C730 O710 1.251 . S
C730 O715 1.256 . S
C730 C723 1.500 . S
C731 H696 0.929 . S
C731 C709 1.444 . S
C731 C732 1.317 . S
C732 H694 0.930 . S
C732 C700 1.432 . S
C732 C731 1.317 . S
C733 O717 1.283 . S
C733 O720 1.243 . S
C734 C735 1.382 . S
C734 C738 1.393 . S
C734 C741 1.500 . S
C735 C734 1.382 . S
C735 C736 1.400 . S
C735 H746 0.930 . S
C736 C735 1.400 . S
C736 C737 1.384 . S
C737 C736 1.384 . S
C737 C739 1.392 . S
C737 H747 0.931 . S
C738 C734 1.393 . S
C738 C739 1.401 . S
C738 H748 0.930 . S
C739 C737 1.392 . S
C739 C738 1.401 . S
C739 H749 0.930 . S
C740 O718 1.262 . S
C740 O719 1.260 . S
C741 Tb677 2.833 . S
C741 O716 1.251 . S
C741 O721 1.256 . S
C741 C734 1.500 . S
H742 C725 0.930 . S
H743 C726 0.931 . S
H744 C727 0.930 . S
H745 C728 0.930 . S
H746 C735 0.930 . S
H747 C737 0.931 . S
H748 C738 0.930 . S
H749 C739 0.930 . S
Tb750 N781 2.660 . S
Tb750 N788 2.600 . S
Tb750 O794 2.546 . S
Tb750 O795 2.610 . S
Tb750 O797 2.320 . S
Tb750 O798 2.552 . S
Tb750 O799 2.413 . S
Tb750 O801 2.362 . S
Tb750 O802 2.421 . S
Tb750 C814 2.833 . S
C751 C754 1.432 . S
C751 C755 1.414 . S
C751 N758 1.359 . S
C752 C754 1.417 . S
C752 C756 1.432 . S
C752 C764 1.410 . S
C753 C755 1.444 . S
C753 C756 1.317 . S
C753 H776 0.929 . S
C754 C751 1.432 . S
C754 C752 1.417 . S
C754 N762 1.360 . S
C755 C751 1.414 . S
C755 C753 1.444 . S
C755 C760 1.385 . S
C756 C752 1.432 . S
C756 C753 1.317 . S
C756 H768 0.930 . S
C757 C759 1.392 . S
C757 C760 1.370 . S
C757 H769 0.931 . S
N758 C751 1.359 . S
N758 C759 1.327 . S
N758 Tb761 2.600 . S
C759 C757 1.392 . S
C759 N758 1.327 . S
C759 H766 0.930 . S
C760 C755 1.385 . S
C760 C757 1.370 . S
C760 H779 0.930 . S
Tb761 N758 2.600 . S
Tb761 N762 2.660 . S
Tb761 O795 2.362 . S
Tb761 O796 2.421 . S
Tb761 O800 2.546 . S
Tb761 O801 2.610 . S
Tb761 O803 2.320 . S
Tb761 O804 2.552 . S
Tb761 O805 2.413 . S
Tb761 C825 2.833 . S
N762 C754 1.360 . S
N762 Tb761 2.660 . S
N762 C763 1.305 . S
C763 N762 1.305 . S
C763 C765 1.407 . S
C763 H770 0.930 . S
C764 C752 1.410 . S
C764 C765 1.345 . S
C764 H772 0.930 . S
C765 C763 1.407 . S
C765 C764 1.345 . S
C765 H767 0.930 . S
H766 C759 0.930 . S
H767 C765 0.930 . S
H768 C756 0.930 . S
H769 C757 0.931 . S
H770 C763 0.930 . S
H771 C785 0.930 . S
H772 C764 0.930 . S
H773 C791 0.930 . S
H774 C782 0.930 . S
H775 C789 0.931 . S
H776 C753 0.929 . S
H777 C783 0.930 . S
H778 C816 0.930 . S
H779 C760 0.930 . S
H780 C815 0.929 . S
N781 Tb750 2.660 . S
N781 C782 1.305 . S
N781 C786 1.360 . S
C782 H774 0.930 . S
C782 N781 1.305 . S
C782 C785 1.407 . S
C783 H777 0.930 . S
C783 C784 1.410 . S
C783 C785 1.345 . S
C784 C783 1.410 . S
C784 C786 1.417 . S
C784 C816 1.432 . S
C785 H771 0.930 . S
C785 C782 1.407 . S
C785 C783 1.345 . S
C786 N781 1.360 . S
C786 C784 1.417 . S
C786 C790 1.432 . S
H787 C792 0.930 . S
N788 Tb750 2.600 . S
N788 C790 1.359 . S
N788 C791 1.327 . S
C789 H775 0.931 . S
C789 C791 1.392 . S
C789 C792 1.370 . S
C790 C786 1.432 . S
C790 N788 1.359 . S
C790 C793 1.414 . S
C791 H773 0.930 . S
C791 N788 1.327 . S
C791 C789 1.392 . S
C792 H787 0.930 . S
C792 C789 1.370 . S
C792 C793 1.385 . S
C793 C790 1.414 . S
C793 C792 1.385 . S
C793 C815 1.444 . S
O794 Tb750 2.546 . S
O794 C814 1.251 . S
O795 Tb750 2.610 . S
O795 Tb761 2.362 . S
O795 C806 1.283 . S
O796 Tb761 2.421 . S
O796 C813 1.262 . S
O797 Tb750 2.320 . S
O797 C813 1.260 . S
O798 Tb750 2.552 . S
O798 C806 1.243 . S
O799 Tb750 2.413 . S
O799 C814 1.256 . S
O800 Tb761 2.546 . S
O800 C825 1.251 . S
O801 Tb750 2.362 . S
O801 Tb761 2.610 . S
O801 C817 1.283 . S
O802 Tb750 2.421 . S
O802 C824 1.262 . S
O803 Tb761 2.320 . S
O803 C824 1.260 . S
O804 Tb761 2.552 . S
O804 C817 1.243 . S
O805 Tb761 2.413 . S
O805 C825 1.256 . S
C806 O795 1.283 . S
C806 O798 1.243 . S
C807 C809 1.382 . S
C807 C811 1.393 . S
C807 C814 1.500 . S
C808 C809 1.400 . S
C808 C810 1.384 . S
C809 C807 1.382 . S
C809 C808 1.400 . S
C809 H826 0.930 . S
C810 C808 1.384 . S
C810 C812 1.392 . S
C810 H827 0.931 . S
C811 C807 1.393 . S
C811 C812 1.401 . S
C811 H828 0.930 . S
C812 C810 1.392 . S
C812 C811 1.401 . S
C812 H829 0.930 . S
C813 O796 1.262 . S
C813 O797 1.260 . S
C814 Tb750 2.833 . S
C814 O794 1.251 . S
C814 O799 1.256 . S
C814 C807 1.500 . S
C815 H780 0.929 . S
C815 C793 1.444 . S
C815 C816 1.317 . S
C816 H778 0.930 . S
C816 C784 1.432 . S
C816 C815 1.317 . S
C817 O801 1.283 . S
C817 O804 1.243 . S
C818 C819 1.382 . S
C818 C822 1.393 . S
C818 C825 1.500 . S
C819 C818 1.382 . S
C819 C820 1.400 . S
C819 H830 0.930 . S
C820 C819 1.400 . S
C820 C821 1.384 . S
C821 C820 1.384 . S
C821 C823 1.392 . S
C821 H831 0.931 . S
C822 C818 1.393 . S
C822 C823 1.401 . S
C822 H832 0.930 . S
C823 C821 1.392 . S
C823 C822 1.401 . S
C823 H833 0.930 . S
C824 O802 1.262 . S
C824 O803 1.260 . S
C825 Tb761 2.833 . S
C825 O800 1.251 . S
C825 O805 1.256 . S
C825 C818 1.500 . S
H826 C809 0.930 . S
H827 C810 0.931 . S
H828 C811 0.930 . S
H829 C812 0.930 . S
H830 C819 0.930 . S
H831 C821 0.931 . S
H832 C822 0.930 . S
H833 C823 0.930 . S
Tb834 N865 2.660 . S
Tb834 N872 2.600 . S
Tb834 O878 2.546 . S
Tb834 O879 2.610 . S
Tb834 O881 2.320 . S
Tb834 O882 2.552 . S
Tb834 O883 2.413 . S
Tb834 O885 2.362 . S
Tb834 O886 2.421 . S
Tb834 C898 2.833 . S
C835 C838 1.432 . S
C835 C839 1.414 . S
C835 N842 1.359 . S
C836 C838 1.417 . S
C836 C840 1.432 . S
C836 C848 1.410 . S
C837 C839 1.444 . S
C837 C840 1.317 . S
C837 H860 0.929 . S
C838 C835 1.432 . S
C838 C836 1.417 . S
C838 N846 1.360 . S
C839 C835 1.414 . S
C839 C837 1.444 . S
C839 C844 1.385 . S
C840 C836 1.432 . S
C840 C837 1.317 . S
C840 H852 0.930 . S
C841 C843 1.392 . S
C841 C844 1.370 . S
C841 H853 0.931 . S
N842 C835 1.359 . S
N842 C843 1.327 . S
N842 Tb845 2.600 . S
C843 C841 1.392 . S
C843 N842 1.327 . S
C843 H850 0.930 . S
C844 C839 1.385 . S
C844 C841 1.370 . S
C844 H863 0.930 . S
Tb845 N842 2.600 . S
Tb845 N846 2.660 . S
Tb845 O879 2.362 . S
Tb845 O880 2.421 . S
Tb845 O884 2.546 . S
Tb845 O885 2.610 . S
Tb845 O887 2.320 . S
Tb845 O888 2.552 . S
Tb845 O889 2.413 . S
Tb845 C909 2.833 . S
N846 C838 1.360 . S
N846 Tb845 2.660 . S
N846 C847 1.305 . S
C847 N846 1.305 . S
C847 C849 1.407 . S
C847 H854 0.930 . S
C848 C836 1.410 . S
C848 C849 1.345 . S
C848 H856 0.930 . S
C849 C847 1.407 . S
C849 C848 1.345 . S
C849 H851 0.930 . S
H850 C843 0.930 . S
H851 C849 0.930 . S
H852 C840 0.930 . S
H853 C841 0.931 . S
H854 C847 0.930 . S
H855 C869 0.930 . S
H856 C848 0.930 . S
H857 C875 0.930 . S
H858 C866 0.930 . S
H859 C873 0.931 . S
H860 C837 0.929 . S
H861 C867 0.930 . S
H862 C900 0.930 . S
H863 C844 0.930 . S
H864 C899 0.929 . S
N865 Tb834 2.660 . S
N865 C866 1.305 . S
N865 C870 1.360 . S
C866 H858 0.930 . S
C866 N865 1.305 . S
C866 C869 1.407 . S
C867 H861 0.930 . S
C867 C868 1.410 . S
C867 C869 1.345 . S
C868 C867 1.410 . S
C868 C870 1.417 . S
C868 C900 1.432 . S
C869 H855 0.930 . S
C869 C866 1.407 . S
C869 C867 1.345 . S
C870 N865 1.360 . S
C870 C868 1.417 . S
C870 C874 1.432 . S
H871 C876 0.930 . S
N872 Tb834 2.600 . S
N872 C874 1.359 . S
N872 C875 1.327 . S
C873 H859 0.931 . S
C873 C875 1.392 . S
C873 C876 1.370 . S
C874 C870 1.432 . S
C874 N872 1.359 . S
C874 C877 1.414 . S
C875 H857 0.930 . S
C875 N872 1.327 . S
C875 C873 1.392 . S
C876 H871 0.930 . S
C876 C873 1.370 . S
C876 C877 1.385 . S
C877 C874 1.414 . S
C877 C876 1.385 . S
C877 C899 1.444 . S
O878 Tb834 2.546 . S
O878 C898 1.251 . S
O879 Tb834 2.610 . S
O879 Tb845 2.362 . S
O879 C890 1.283 . S
O880 Tb845 2.421 . S
O880 C897 1.262 . S
O881 Tb834 2.320 . S
O881 C897 1.260 . S
O882 Tb834 2.552 . S
O882 C890 1.243 . S
O883 Tb834 2.413 . S
O883 C898 1.256 . S
O884 Tb845 2.546 . S
O884 C909 1.251 . S
O885 Tb834 2.362 . S
O885 Tb845 2.610 . S
O885 C901 1.283 . S
O886 Tb834 2.421 . S
O886 C908 1.262 . S
O887 Tb845 2.320 . S
O887 C908 1.260 . S
O888 Tb845 2.552 . S
O888 C901 1.243 . S
O889 Tb845 2.413 . S
O889 C909 1.256 . S
C890 O879 1.283 . S
C890 O882 1.243 . S
C891 C893 1.382 . S
C891 C895 1.393 . S
C891 C898 1.500 . S
C892 C893 1.400 . S
C892 C894 1.384 . S
C893 C891 1.382 . S
C893 C892 1.400 . S
C893 H910 0.930 . S
C894 C892 1.384 . S
C894 C896 1.392 . S
C894 H911 0.931 . S
C895 C891 1.393 . S
C895 C896 1.401 . S
C895 H912 0.930 . S
C896 C894 1.392 . S
C896 C895 1.401 . S
C896 H913 0.930 . S
C897 O880 1.262 . S
C897 O881 1.260 . S
C898 Tb834 2.833 . S
C898 O878 1.251 . S
C898 O883 1.256 . S
C898 C891 1.500 . S
C899 H864 0.929 . S
C899 C877 1.444 . S
C899 C900 1.317 . S
C900 H862 0.930 . S
C900 C868 1.432 . S
C900 C899 1.317 . S
C901 O885 1.283 . S
C901 O888 1.243 . S
C902 C903 1.382 . S
C902 C906 1.393 . S
C902 C909 1.500 . S
C903 C902 1.382 . S
C903 C904 1.400 . S
C903 H914 0.930 . S
C904 C903 1.400 . S
C904 C905 1.384 . S
C905 C904 1.384 . S
C905 C907 1.392 . S
C905 H915 0.931 . S
C906 C902 1.393 . S
C906 C907 1.401 . S
C906 H916 0.930 . S
C907 C905 1.392 . S
C907 C906 1.401 . S
C907 H917 0.930 . S
C908 O886 1.262 . S
C908 O887 1.260 . S
C909 Tb845 2.833 . S
C909 O884 1.251 . S
C909 O889 1.256 . S
C909 C902 1.500 . S
H910 C893 0.930 . S
H911 C894 0.931 . S
H912 C895 0.930 . S
H913 C896 0.930 . S
H914 C903 0.930 . S
H915 C905 0.931 . S
H916 C906 0.930 . S
H917 C907 0.930 . S
H918 C926 0.929 . S
H919 C928 0.930 . S
H920 C930 0.930 . S
H921 C933 0.929 . S
H922 C936 0.930 . S
H923 C938 0.960 . S
H924 C938 0.960 . S
H925 C938 0.960 . S
C926 H918 0.929 . S
C926 C927 1.377 . S
C926 C928 1.384 . S
C927 C926 1.377 . S
C927 C933 1.390 . S
C928 H919 0.930 . S
C928 C926 1.384 . S
C928 C929 1.372 . S
C929 C928 1.372 . S
C929 C930 1.400 . S
C929 C934 1.490 . S
C930 H920 0.930 . S
C930 C929 1.400 . S
C930 C933 1.386 . S
H931 C947 0.860 1_556 S
H932 C948 0.931 . S
C933 H921 0.929 . S
C933 C927 1.390 . S
C933 C930 1.386 . S
C934 C929 1.490 . S
C934 C936 1.395 . S
C934 C937 1.403 . S
H935 C941 0.930 . S
C936 H922 0.930 . S
C936 C934 1.395 . S
C936 C939 1.403 . S
C937 C934 1.403 . S
C937 C938 1.524 . S
C937 C941 1.400 . S
C938 H923 0.960 . S
C938 H924 0.960 . S
C938 H925 0.960 . S
C938 C937 1.524 . S
C939 C936 1.403 . S
C939 C940 1.392 . S
C939 C943 1.495 . S
C940 C939 1.392 . S
C940 C941 1.385 . S
C940 C942 1.478 . S
C941 H935 0.930 . S
C941 C937 1.400 . S
C941 C940 1.385 . S
C942 C940 1.478 . S
C942 C944 1.381 . S
C942 C948 1.383 . S
C943 C939 1.495 . S
C943 H949 0.959 . S
C943 H950 0.961 . S
C943 H951 0.960 . S
C944 C942 1.381 . S
C944 C945 1.394 . S
C944 H952 0.930 . S
C945 C944 1.394 . S
C945 C946 1.383 . S
C945 H953 0.929 . S
C946 C945 1.383 . S
C946 C947 1.377 . S
C947 H931 0.860 1_554 S
C947 C946 1.377 . S
C947 C948 1.379 . S
C948 H932 0.931 . S
C948 C942 1.383 . S
C948 C947 1.379 . S
H949 C943 0.959 . S
H950 C943 0.961 . S
H951 C943 0.960 . S
H952 C944 0.930 . S
H953 C945 0.929 . S
H954 C962 0.929 . S
H955 C964 0.930 . S
H956 C966 0.930 . S
H957 C969 0.929 . S
H958 C972 0.930 . S
H959 C974 0.960 . S
H960 C974 0.960 . S
H961 C974 0.960 . S
C962 H954 0.929 . S
C962 C963 1.377 . S
C962 C964 1.384 . S
C963 C962 1.377 . S
C963 C969 1.390 . S
C964 H955 0.930 . S
C964 C962 1.384 . S
C964 C965 1.372 . S
C965 C964 1.372 . S
C965 C966 1.400 . S
C965 C970 1.490 . S
C966 H956 0.930 . S
C966 C965 1.400 . S
C966 C969 1.386 . S
H967 C983 0.930 . S
H968 C984 0.931 . S
C969 H957 0.929 . S
C969 C963 1.390 . S
C969 C966 1.386 . S
C970 C965 1.490 . S
C970 C972 1.395 . S
C970 C973 1.403 . S
H971 C977 0.930 . S
C972 H958 0.930 . S
C972 C970 1.395 . S
C972 C975 1.403 . S
C973 C970 1.403 . S
C973 C974 1.524 . S
C973 C977 1.400 . S
C974 H959 0.960 . S
C974 H960 0.960 . S
C974 H961 0.960 . S
C974 C973 1.524 . S
C975 C972 1.403 . S
C975 C976 1.392 . S
C975 C979 1.495 . S
C976 C975 1.392 . S
C976 C977 1.385 . S
C976 C978 1.478 . S
C977 H971 0.930 . S
C977 C973 1.400 . S
C977 C976 1.385 . S
C978 C976 1.478 . S
C978 C980 1.381 . S
C978 C984 1.383 . S
C979 C975 1.495 . S
C979 H985 0.959 . S
C979 H986 0.961 . S
C979 H987 0.960 . S
C980 C978 1.381 . S
C980 C981 1.394 . S
C980 H988 0.930 . S
C981 C980 1.394 . S
C981 C982 1.383 . S
C981 H989 0.929 . S
C982 C981 1.383 . S
C982 C983 1.377 . S
C983 H967 0.930 . S
C983 C982 1.377 . S
C983 C984 1.379 . S
C984 H968 0.931 . S
C984 C978 1.383 . S
C984 C983 1.379 . S
H985 C979 0.959 . S
H986 C979 0.961 . S
H987 C979 0.960 . S
H988 C980 0.930 . S
H989 C981 0.929 . S
H990 C998 0.929 . S
H991 C1000 0.930 . S
H992 C1002 0.930 . S
H993 C1005 0.929 . S
H994 C1008 0.930 . S
H995 C1010 0.960 . S
H996 C1010 0.960 . S
H997 C1010 0.960 . S
C998 H990 0.929 . S
C998 C999 1.377 . S
C998 C1000 1.384 . S
C999 C998 1.377 . S
C999 C1005 1.390 . S
C1000 H991 0.930 . S
C1000 C998 1.384 . S
C1000 C1001 1.372 . S
C1001 C1000 1.372 . S
C1001 C1002 1.400 . S
C1001 C1006 1.490 . S
C1002 H992 0.930 . S
C1002 C1001 1.400 . S
C1002 C1005 1.386 . S
H1003 C1019 0.930 . S
H1004 C1020 0.931 . S
C1005 H993 0.929 . S
C1005 C999 1.390 . S
C1005 C1002 1.386 . S
C1006 C1001 1.490 . S
C1006 C1008 1.395 . S
C1006 C1009 1.403 . S
H1007 C1013 0.930 . S
C1008 H994 0.930 . S
C1008 C1006 1.395 . S
C1008 C1011 1.403 . S
C1009 C1006 1.403 . S
C1009 C1010 1.524 . S
C1009 C1013 1.400 . S
C1010 H995 0.960 . S
C1010 H996 0.960 . S
C1010 H997 0.960 . S
C1010 C1009 1.524 . S
C1011 C1008 1.403 . S
C1011 C1012 1.392 . S
C1011 C1015 1.495 . S
C1012 C1011 1.392 . S
C1012 C1013 1.385 . S
C1012 C1014 1.478 . S
C1013 H1007 0.930 . S
C1013 C1009 1.400 . S
C1013 C1012 1.385 . S
C1014 C1012 1.478 . S
C1014 C1016 1.381 . S
C1014 C1020 1.383 . S
C1015 C1011 1.495 . S
C1015 H1021 0.959 . S
C1015 H1022 0.961 . S
C1015 H1023 0.960 . S
C1016 C1014 1.381 . S
C1016 C1017 1.394 . S
C1016 H1024 0.930 . S
C1017 C1016 1.394 . S
C1017 C1018 1.383 . S
C1017 H1025 0.929 . S
C1018 C1017 1.383 . S
C1018 C1019 1.377 . S
C1019 H1003 0.930 . S
C1019 C1018 1.377 . S
C1019 C1020 1.379 . S
C1020 H1004 0.931 . S
C1020 C1014 1.383 . S
C1020 C1019 1.379 . S
H1021 C1015 0.959 . S
H1022 C1015 0.961 . S
H1023 C1015 0.960 . S
H1024 C1016 0.930 . S
H1025 C1017 0.929 . S
H1026 C1034 0.929 . S
H1027 C1036 0.930 . S
H1028 C1038 0.930 . S
H1029 C1041 0.929 . S
H1030 C1044 0.930 . S
H1031 C1046 0.960 . S
H1032 C1046 0.960 . S
H1033 C1046 0.960 . S
C1034 H1026 0.929 . S
C1034 C1035 1.377 . S
C1034 C1036 1.384 . S
C1035 C1034 1.377 . S
C1035 C1041 1.390 . S
C1036 H1027 0.930 . S
C1036 C1034 1.384 . S
C1036 C1037 1.372 . S
C1037 C1036 1.372 . S
C1037 C1038 1.400 . S
C1037 C1042 1.490 . S
C1038 H1028 0.930 . S
C1038 C1037 1.400 . S
C1038 C1041 1.386 . S
H1039 C1055 0.930 . S
H1040 C1056 0.931 . S
C1041 H1029 0.929 . S
C1041 C1035 1.390 . S
C1041 C1038 1.386 . S
C1042 C1037 1.490 . S
C1042 C1044 1.395 . S
C1042 C1045 1.403 . S
H1043 C1049 0.930 . S
C1044 H1030 0.930 . S
C1044 C1042 1.395 . S
C1044 C1047 1.403 . S
C1045 C1042 1.403 . S
C1045 C1046 1.524 . S
C1045 C1049 1.400 . S
C1046 H1031 0.960 . S
C1046 H1032 0.960 . S
C1046 H1033 0.960 . S
C1046 C1045 1.524 . S
C1047 C1044 1.403 . S
C1047 C1048 1.392 . S
C1047 C1051 1.495 . S
C1048 C1047 1.392 . S
C1048 C1049 1.385 . S
C1048 C1050 1.478 . S
C1049 H1043 0.930 . S
C1049 C1045 1.400 . S
C1049 C1048 1.385 . S
C1050 C1048 1.478 . S
C1050 C1052 1.381 . S
C1050 C1056 1.383 . S
C1051 C1047 1.495 . S
C1051 H1057 0.959 . S
C1051 H1058 0.961 . S
C1051 H1059 0.960 . S
C1052 C1050 1.381 . S
C1052 C1053 1.394 . S
C1052 H1060 0.930 . S
C1053 C1052 1.394 . S
C1053 C1054 1.383 . S
C1053 H1061 0.930 . S
C1054 C1053 1.383 . S
C1054 C1055 1.377 . S
C1055 H1039 0.930 . S
C1055 C1054 1.377 . S
C1055 C1056 1.379 . S
C1056 H1040 0.931 . S
C1056 C1050 1.383 . S
C1056 C1055 1.379 . S
H1057 C1051 0.959 . S
H1058 C1051 0.961 . S
H1059 C1051 0.960 . S
H1060 C1052 0.930 . S
H1061 C1053 0.930 . S
H1062 C1070 0.929 . S
H1063 C1072 0.930 . S
H1064 C1074 0.930 . S
H1065 C1077 0.929 . S
H1066 C1080 0.930 . S
H1067 C1082 0.960 . S
H1068 C1082 0.960 . S
H1069 C1082 0.960 . S
C1070 H1062 0.929 . S
C1070 C1071 1.377 . S
C1070 C1072 1.384 . S
C1071 C1070 1.377 . S
C1071 C1077 1.390 . S
C1072 H1063 0.930 . S
C1072 C1070 1.384 . S
C1072 C1073 1.372 . S
C1073 C1072 1.372 . S
C1073 C1074 1.400 . S
C1073 C1078 1.490 . S
C1074 H1064 0.930 . S
C1074 C1073 1.400 . S
C1074 C1077 1.386 . S
H1075 C1091 0.930 . S
H1076 C1092 0.931 . S
C1077 H1065 0.929 . S
C1077 C1071 1.390 . S
C1077 C1074 1.386 . S
C1078 C1073 1.490 . S
C1078 C1080 1.395 . S
C1078 C1081 1.403 . S
H1079 C1085 0.930 . S
C1080 H1066 0.930 . S
C1080 C1078 1.395 . S
C1080 C1083 1.403 . S
C1081 C1078 1.403 . S
C1081 C1082 1.524 . S
C1081 C1085 1.400 . S
C1082 H1067 0.960 . S
C1082 H1068 0.960 . S
C1082 H1069 0.960 . S
C1082 C1081 1.524 . S
C1083 C1080 1.403 . S
C1083 C1084 1.392 . S
C1083 C1087 1.495 . S
C1084 C1083 1.392 . S
C1084 C1085 1.385 . S
C1084 C1086 1.478 . S
C1085 H1079 0.930 . S
C1085 C1081 1.400 . S
C1085 C1084 1.385 . S
C1086 C1084 1.478 . S
C1086 C1088 1.381 . S
C1086 C1092 1.383 . S
C1087 C1083 1.495 . S
C1087 H1093 0.959 . S
C1087 H1094 0.961 . S
C1087 H1095 0.960 . S
C1088 C1086 1.381 . S
C1088 C1089 1.394 . S
C1088 H1096 0.930 . S
C1089 C1088 1.394 . S
C1089 C1090 1.383 . S
C1089 H1097 0.929 . S
C1090 C1089 1.383 . S
C1090 C1091 1.377 . S
C1091 H1075 0.930 . S
C1091 C1090 1.377 . S
C1091 C1092 1.379 . S
C1092 H1076 0.931 . S
C1092 C1086 1.383 . S
C1092 C1091 1.379 . S
H1093 C1087 0.959 . S
H1094 C1087 0.961 . S
H1095 C1087 0.960 . S
H1096 C1088 0.930 . S
H1097 C1089 0.929 . S
H1098 C1106 0.929 . S
H1099 C1108 0.930 . S
H1100 C1110 0.930 . S
H1101 C1113 0.929 . S
H1102 C1116 0.930 . S
H1103 C1118 0.960 . S
H1104 C1118 0.960 . S
H1105 C1118 0.960 . S
C1106 H1098 0.929 . S
C1106 C1107 1.377 . S
C1106 C1108 1.384 . S
C1107 C1106 1.377 . S
C1107 C1113 1.390 . S
C1108 H1099 0.930 . S
C1108 C1106 1.384 . S
C1108 C1109 1.372 . S
C1109 C1108 1.372 . S
C1109 C1110 1.400 . S
C1109 C1114 1.490 . S
C1110 H1100 0.930 . S
C1110 C1109 1.400 . S
C1110 C1113 1.386 . S
H1111 C1127 0.930 . S
H1112 C1128 0.931 . S
C1113 H1101 0.929 . S
C1113 C1107 1.390 . S
C1113 C1110 1.386 . S
C1114 C1109 1.490 . S
C1114 C1116 1.395 . S
C1114 C1117 1.403 . S
H1115 C1121 0.930 . S
C1116 H1102 0.930 . S
C1116 C1114 1.395 . S
C1116 C1119 1.403 . S
C1117 C1114 1.403 . S
C1117 C1118 1.524 . S
C1117 C1121 1.400 . S
C1118 H1103 0.960 . S
C1118 H1104 0.960 . S
C1118 H1105 0.960 . S
C1118 C1117 1.524 . S
C1119 C1116 1.403 . S
C1119 C1120 1.392 . S
C1119 C1123 1.495 . S
C1120 C1119 1.392 . S
C1120 C1121 1.385 . S
C1120 C1122 1.478 . S
C1121 H1115 0.930 . S
C1121 C1117 1.400 . S
C1121 C1120 1.385 . S
C1122 C1120 1.478 . S
C1122 C1124 1.381 . S
C1122 C1128 1.383 . S
C1123 C1119 1.495 . S
C1123 H1129 0.959 . S
C1123 H1130 0.961 . S
C1123 H1131 0.960 . S
C1124 C1122 1.381 . S
C1124 C1125 1.394 . S
C1124 H1132 0.930 . S
C1125 C1124 1.394 . S
C1125 C1126 1.383 . S
C1125 H1133 0.929 1_556 S
C1126 C1125 1.383 . S
C1126 C1127 1.377 . S
C1127 H1111 0.930 . S
C1127 C1126 1.377 . S
C1127 C1128 1.379 . S
C1128 H1112 0.931 . S
C1128 C1122 1.383 . S
C1128 C1127 1.379 . S
H1129 C1123 0.959 . S
H1130 C1123 0.961 . S
H1131 C1123 0.960 . S
H1132 C1124 0.930 . S
H1133 C1125 0.929 1_554 S
H1134 C1142 0.929 . S
H1135 C1144 0.930 . S
H1136 C1146 0.930 . S
H1137 C1149 0.929 . S
H1138 C1152 0.930 . S
H1139 C1154 0.960 . S
H1140 C1154 0.960 . S
H1141 C1154 0.960 . S
C1142 H1134 0.929 . S
C1142 C1143 1.377 . S
C1142 C1144 1.384 . S
C1143 C1142 1.377 . S
C1143 C1149 1.390 . S
C1144 H1135 0.930 . S
C1144 C1142 1.384 . S
C1144 C1145 1.372 . S
C1145 C1144 1.372 . S
C1145 C1146 1.400 . S
C1145 C1150 1.490 . S
C1146 H1136 0.930 . S
C1146 C1145 1.400 . S
C1146 C1149 1.386 . S
H1147 C1163 0.930 . S
H1148 C1164 0.931 . S
C1149 H1137 0.929 . S
C1149 C1143 1.390 . S
C1149 C1146 1.386 . S
C1150 C1145 1.490 . S
C1150 C1152 1.395 . S
C1150 C1153 1.403 . S
H1151 C1157 0.930 . S
C1152 H1138 0.930 . S
C1152 C1150 1.395 . S
C1152 C1155 1.403 . S
C1153 C1150 1.403 . S
C1153 C1154 1.524 . S
C1153 C1157 1.400 . S
C1154 H1139 0.960 . S
C1154 H1140 0.960 . S
C1154 H1141 0.960 . S
C1154 C1153 1.524 . S
C1155 C1152 1.403 . S
C1155 C1156 1.392 . S
C1155 C1159 1.495 . S
C1156 C1155 1.392 . S
C1156 C1157 1.385 . S
C1156 C1158 1.478 . S
C1157 H1151 0.930 . S
C1157 C1153 1.400 . S
C1157 C1156 1.385 . S
C1158 C1156 1.478 . S
C1158 C1160 1.381 . S
C1158 C1164 1.383 . S
C1159 C1155 1.495 . S
C1159 H1165 0.959 . S
C1159 H1166 0.961 . S
C1159 H1167 0.960 . S
C1160 C1158 1.381 . S
C1160 C1161 1.394 . S
C1160 H1168 0.930 . S
C1161 C1160 1.394 . S
C1161 C1162 1.383 . S
C1161 H1169 0.929 . S
C1162 C1161 1.383 . S
C1162 C1163 1.377 . S
C1163 H1147 0.930 . S
C1163 C1162 1.377 . S
C1163 C1164 1.379 . S
C1164 H1148 0.931 . S
C1164 C1158 1.383 . S
C1164 C1163 1.379 . S
H1165 C1159 0.959 . S
H1166 C1159 0.961 . S
H1167 C1159 0.960 . S
H1168 C1160 0.930 . S
H1169 C1161 0.929 . S
H1170 C1178 0.929 . S
H1171 C1180 0.930 . S
H1172 C1182 0.930 . S
H1173 C1185 0.929 . S
H1174 C1188 0.930 . S
H1175 C1190 0.960 . S
H1176 C1190 0.960 . S
H1177 C1190 0.960 . S
C1178 H1170 0.929 . S
C1178 C1179 1.377 . S
C1178 C1180 1.384 . S
C1179 C1178 1.377 . S
C1179 C1185 1.390 . S
C1180 H1171 0.930 . S
C1180 C1178 1.384 . S
C1180 C1181 1.372 . S
C1181 C1180 1.372 . S
C1181 C1182 1.400 . S
C1181 C1186 1.490 . S
C1182 H1172 0.930 . S
C1182 C1181 1.400 . S
C1182 C1185 1.386 . S
H1183 C1199 0.930 1_554 S
H1184 C1200 0.931 . S
C1185 H1173 0.929 . S
C1185 C1179 1.390 . S
C1185 C1182 1.386 . S
C1186 C1181 1.490 . S
C1186 C1188 1.395 . S
C1186 C1189 1.403 . S
H1187 C1193 0.930 . S
C1188 H1174 0.930 . S
C1188 C1186 1.395 . S
C1188 C1191 1.403 . S
C1189 C1186 1.403 . S
C1189 C1190 1.524 . S
C1189 C1193 1.400 . S
C1190 H1175 0.960 . S
C1190 H1176 0.960 . S
C1190 H1177 0.960 . S
C1190 C1189 1.524 . S
C1191 C1188 1.403 . S
C1191 C1192 1.392 . S
C1191 C1195 1.495 . S
C1192 C1191 1.392 . S
C1192 C1193 1.385 . S
C1192 C1194 1.478 . S
C1193 H1187 0.930 . S
C1193 C1189 1.400 . S
C1193 C1192 1.385 . S
C1194 C1192 1.478 . S
C1194 C1196 1.381 . S
C1194 C1200 1.383 . S
C1195 C1191 1.495 . S
C1195 H1201 0.959 . S
C1195 H1202 0.961 . S
C1195 H1203 0.960 . S
C1196 C1194 1.381 . S
C1196 C1197 1.394 . S
C1196 H1204 0.930 . S
C1197 C1196 1.394 . S
C1197 C1198 1.383 . S
C1197 H1205 0.929 . S
C1198 C1197 1.383 . S
C1198 C1199 1.377 . S
C1199 H1183 0.930 1_556 S
C1199 C1198 1.377 . S
C1199 C1200 1.379 . S
C1200 H1184 0.931 . S
C1200 C1194 1.383 . S
C1200 C1199 1.379 . S
H1201 C1195 0.959 . S
H1202 C1195 0.961 . S
H1203 C1195 0.960 . S
H1204 C1196 0.930 . S
H1205 C1197 0.929 . S
H1206 C1214 0.929 . S
H1207 C1216 0.930 . S
H1208 C1218 0.930 . S
H1209 C1221 0.929 . S
H1210 C1224 0.930 . S
H1211 C1226 0.960 . S
H1212 C1226 0.960 . S
H1213 C1226 0.960 . S
C1214 H1206 0.929 . S
C1214 C1215 1.377 . S
C1214 C1216 1.384 . S
C1215 C1214 1.377 . S
C1215 C1221 1.390 . S
C1216 H1207 0.930 . S
C1216 C1214 1.384 . S
C1216 C1217 1.372 . S
C1217 C1216 1.372 . S
C1217 C1218 1.400 . S
C1217 C1222 1.490 . S
C1218 H1208 0.930 . S
C1218 C1217 1.400 . S
C1218 C1221 1.386 . S
H1219 C1235 0.930 1_554 S
H1220 C1236 0.931 . S
C1221 H1209 0.929 . S
C1221 C1215 1.390 . S
C1221 C1218 1.386 . S
C1222 C1217 1.490 . S
C1222 C1224 1.395 . S
C1222 C1225 1.403 . S
H1223 C1229 0.930 . S
C1224 H1210 0.930 . S
C1224 C1222 1.395 . S
C1224 C1227 1.403 . S
C1225 C1222 1.403 . S
C1225 C1226 1.524 . S
C1225 C1229 1.400 . S
C1226 H1211 0.960 . S
C1226 H1212 0.960 . S
C1226 H1213 0.960 . S
C1226 C1225 1.524 . S
C1227 C1224 1.403 . S
C1227 C1228 1.392 . S
C1227 C1231 1.495 . S
C1228 C1227 1.392 . S
C1228 C1229 1.385 . S
C1228 C1230 1.478 . S
C1229 H1223 0.930 . S
C1229 C1225 1.400 . S
C1229 C1228 1.385 . S
C1230 C1228 1.478 . S
C1230 C1232 1.381 . S
C1230 C1236 1.383 . S
C1231 C1227 1.495 . S
C1231 H1237 0.959 . S
C1231 H1238 0.961 . S
C1231 H1239 0.960 . S
C1232 C1230 1.381 . S
C1232 C1233 1.394 . S
C1232 H1240 0.930 . S
C1233 C1232 1.394 . S
C1233 C1234 1.383 . S
C1233 H1241 0.929 . S
C1234 C1233 1.383 . S
C1234 C1235 1.377 . S
C1235 H1219 0.930 1_556 S
C1235 C1234 1.377 . S
C1235 C1236 1.379 . S
C1236 H1220 0.931 . S
C1236 C1230 1.383 . S
C1236 C1235 1.379 . S
H1237 C1231 0.959 . S
H1238 C1231 0.961 . S
H1239 C1231 0.960 . S
H1240 C1232 0.930 . S
H1241 C1233 0.929 . S
H1242 C1250 0.929 . S
H1243 C1252 0.930 . S
H1244 C1254 0.930 . S
H1245 C1257 0.929 . S
H1246 C1260 0.930 . S
H1247 C1262 0.960 . S
H1248 C1262 0.960 . S
H1249 C1262 0.960 . S
C1250 H1242 0.929 . S
C1250 C1251 1.377 . S
C1250 C1252 1.384 . S
C1251 C1250 1.377 . S
C1251 C1257 1.390 . S
C1252 H1243 0.930 . S
C1252 C1250 1.384 . S
C1252 C1253 1.372 . S
C1253 C1252 1.372 . S
C1253 C1254 1.400 . S
C1253 C1258 1.490 . S
C1254 H1244 0.930 . S
C1254 C1253 1.400 . S
C1254 C1257 1.386 . S
H1255 C1271 0.930 . S
H1256 C1272 0.931 . S
C1257 H1245 0.929 . S
C1257 C1251 1.390 . S
C1257 C1254 1.386 . S
C1258 C1253 1.490 . S
C1258 C1260 1.395 . S
C1258 C1261 1.403 . S
H1259 C1265 0.930 . S
C1260 H1246 0.930 . S
C1260 C1258 1.395 . S
C1260 C1263 1.403 . S
C1261 C1258 1.403 . S
C1261 C1262 1.524 . S
C1261 C1265 1.400 . S
C1262 H1247 0.960 . S
C1262 H1248 0.960 . S
C1262 H1249 0.960 . S
C1262 C1261 1.524 . S
C1263 C1260 1.403 . S
C1263 C1264 1.392 . S
C1263 C1267 1.495 . S
C1264 C1263 1.392 . S
C1264 C1265 1.385 . S
C1264 C1266 1.478 . S
C1265 H1259 0.930 . S
C1265 C1261 1.400 . S
C1265 C1264 1.385 . S
C1266 C1264 1.478 . S
C1266 C1268 1.381 . S
C1266 C1272 1.383 . S
C1267 C1263 1.495 . S
C1267 H1273 0.959 . S
C1267 H1274 0.961 . S
C1267 H1275 0.960 . S
C1268 C1266 1.381 . S
C1268 C1269 1.394 . S
C1268 H1276 0.930 . S
C1269 C1268 1.394 . S
C1269 C1270 1.383 . S
C1269 H1277 0.929 . S
C1270 C1269 1.383 . S
C1270 C1271 1.377 . S
C1271 H1255 0.930 . S
C1271 C1270 1.377 . S
C1271 C1272 1.379 . S
C1272 H1256 0.931 . S
C1272 C1266 1.383 . S
C1272 C1271 1.379 . S
H1273 C1267 0.959 . S
H1274 C1267 0.961 . S
H1275 C1267 0.960 . S
H1276 C1268 0.930 . S
H1277 C1269 0.929 . S
H1278 C1286 0.929 . S
H1279 C1288 0.930 . S
H1280 C1290 0.930 . S
H1281 C1293 0.929 . S
H1282 C1296 0.930 . S
H1283 C1298 0.960 . S
H1284 C1298 0.960 . S
H1285 C1298 0.960 . S
C1286 H1278 0.929 . S
C1286 C1287 1.377 . S
C1286 C1288 1.384 . S
C1287 C1286 1.377 . S
C1287 C1293 1.390 . S
C1288 H1279 0.930 . S
C1288 C1286 1.384 . S
C1288 C1289 1.372 . S
C1289 C1288 1.372 . S
C1289 C1290 1.400 . S
C1289 C1294 1.490 . S
C1290 H1280 0.930 . S
C1290 C1289 1.400 . S
C1290 C1293 1.386 . S
H1291 C1307 0.930 . S
H1292 C1308 0.931 . S
C1293 H1281 0.929 . S
C1293 C1287 1.390 . S
C1293 C1290 1.386 . S
C1294 C1289 1.490 . S
C1294 C1296 1.395 . S
C1294 C1297 1.403 . S
H1295 C1301 0.930 . S
C1296 H1282 0.930 . S
C1296 C1294 1.395 . S
C1296 C1299 1.403 . S
C1297 C1294 1.403 . S
C1297 C1298 1.524 . S
C1297 C1301 1.400 . S
C1298 H1283 0.960 . S
C1298 H1284 0.960 . S
C1298 H1285 0.960 . S
C1298 C1297 1.524 . S
C1299 C1296 1.403 . S
C1299 C1300 1.392 . S
C1299 C1303 1.495 . S
C1300 C1299 1.392 . S
C1300 C1301 1.385 . S
C1300 C1302 1.478 . S
C1301 H1295 0.930 . S
C1301 C1297 1.400 . S
C1301 C1300 1.385 . S
C1302 C1300 1.478 . S
C1302 C1304 1.381 . S
C1302 C1308 1.383 . S
C1303 C1299 1.495 . S
C1303 H1309 0.959 . S
C1303 H1310 0.961 . S
C1303 H1311 0.960 . S
C1304 C1302 1.381 . S
C1304 C1305 1.394 . S
C1304 H1312 0.930 . S
C1305 C1304 1.394 . S
C1305 C1306 1.383 . S
C1305 H1313 0.931 . S
C1306 C1305 1.383 . S
C1306 C1307 1.377 . S
C1307 H1291 0.930 . S
C1307 C1306 1.377 . S
C1307 C1308 1.379 . S
C1308 H1292 0.931 . S
C1308 C1302 1.383 . S
C1308 C1307 1.379 . S
H1309 C1303 0.959 . S
H1310 C1303 0.961 . S
H1311 C1303 0.960 . S
H1312 C1304 0.930 . S
H1313 C1305 0.931 . S
H1314 C1322 0.929 . S
H1315 C1324 0.930 . S
H1316 C1326 0.930 . S
H1317 C1329 0.929 . S
H1318 C1332 0.930 . S
H1319 C1334 0.960 . S
H1320 C1334 0.960 . S
H1321 C1334 0.960 . S
C1322 H1314 0.929 . S
C1322 C1323 1.377 . S
C1322 C1324 1.384 . S
C1323 C1322 1.377 . S
C1323 C1329 1.390 . S
C1324 H1315 0.930 . S
C1324 C1322 1.384 . S
C1324 C1325 1.372 . S
C1325 C1324 1.372 . S
C1325 C1326 1.400 . S
C1325 C1330 1.490 . S
C1326 H1316 0.930 . S
C1326 C1325 1.400 . S
C1326 C1329 1.386 . S
H1327 C1343 0.930 . S
H1328 C1344 0.931 . S
C1329 H1317 0.929 . S
C1329 C1323 1.390 . S
C1329 C1326 1.386 . S
C1330 C1325 1.490 . S
C1330 C1332 1.395 . S
C1330 C1333 1.403 . S
H1331 C1337 0.930 . S
C1332 H1318 0.930 . S
C1332 C1330 1.395 . S
C1332 C1335 1.403 . S
C1333 C1330 1.403 . S
C1333 C1334 1.524 . S
C1333 C1337 1.400 . S
C1334 H1319 0.960 . S
C1334 H1320 0.960 . S
C1334 H1321 0.960 . S
C1334 C1333 1.524 . S
C1335 C1332 1.403 . S
C1335 C1336 1.392 . S
C1335 C1339 1.495 . S
C1336 C1335 1.392 . S
C1336 C1337 1.385 . S
C1336 C1338 1.478 . S
C1337 H1331 0.930 . S
C1337 C1333 1.400 . S
C1337 C1336 1.385 . S
C1338 C1336 1.478 . S
C1338 C1340 1.381 . S
C1338 C1344 1.383 . S
C1339 C1335 1.495 . S
C1339 H1345 0.959 . S
C1339 H1346 0.961 . S
C1339 H1347 0.960 . S
C1340 C1338 1.381 . S
C1340 C1341 1.394 . S
C1340 H1348 0.930 . S
C1341 C1340 1.394 . S
C1341 C1342 1.383 . S
C1341 H1349 0.929 . S
C1342 C1341 1.383 . S
C1342 C1343 1.377 . S
C1343 H1327 0.930 . S
C1343 C1342 1.377 . S
C1343 C1344 1.379 . S
C1344 H1328 0.931 . S
C1344 C1338 1.383 . S
C1344 C1343 1.379 . S
H1345 C1339 0.959 . S
H1346 C1339 0.961 . S
H1347 C1339 0.960 . S
H1348 C1340 0.930 . S
H1349 C1341 0.929 . S
H1350 C1358 0.929 . S
H1351 C1360 0.930 . S
H1352 C1362 0.930 . S
H1353 C1365 0.929 . S
H1354 C1368 0.930 . S
H1355 C1370 0.960 . S
H1356 C1370 0.960 . S
H1357 C1370 0.960 . S
C1358 H1350 0.929 . S
C1358 C1359 1.377 . S
C1358 C1360 1.384 . S
C1359 C1358 1.377 . S
C1359 C1365 1.390 . S
C1360 H1351 0.930 . S
C1360 C1358 1.384 . S
C1360 C1361 1.372 . S
C1361 C1360 1.372 . S
C1361 C1362 1.400 . S
C1361 C1366 1.490 . S
C1362 H1352 0.930 . S
C1362 C1361 1.400 . S
C1362 C1365 1.386 . S
H1363 C1379 0.930 . S
H1364 C1380 0.931 . S
C1365 H1353 0.929 . S
C1365 C1359 1.390 . S
C1365 C1362 1.386 . S
C1366 C1361 1.490 . S
C1366 C1368 1.395 1_655 S
C1366 C1369 1.403 . S
H1367 C1373 0.930 . S
C1368 H1354 0.930 . S
C1368 C1366 1.395 1_455 S
C1368 C1371 1.403 . S
C1369 C1366 1.403 . S
C1369 C1370 1.524 . S
C1369 C1373 1.400 1_655 S
C1370 H1355 0.960 . S
C1370 H1356 0.960 . S
C1370 H1357 0.960 . S
C1370 C1369 1.524 . S
C1371 C1368 1.403 . S
C1371 C1372 1.392 . S
C1371 C1375 1.495 . S
C1372 C1371 1.392 . S
C1372 C1373 1.385 . S
C1372 C1374 1.478 . S
C1373 H1367 0.930 . S
C1373 C1369 1.400 1_455 S
C1373 C1372 1.385 . S
C1374 C1372 1.478 . S
C1374 C1376 1.381 . S
C1374 C1380 1.383 . S
C1375 C1371 1.495 . S
C1375 H1381 0.959 . S
C1375 H1382 0.961 . S
C1375 H1383 0.960 . S
C1376 C1374 1.381 . S
C1376 C1377 1.394 . S
C1376 H1384 0.930 . S
C1377 C1376 1.394 . S
C1377 C1378 1.383 . S
C1377 H1385 0.929 . S
C1378 C1377 1.383 . S
C1378 C1379 1.377 . S
C1379 H1363 0.930 . S
C1379 C1378 1.377 . S
C1379 C1380 1.379 . S
C1380 H1364 0.931 . S
C1380 C1374 1.383 . S
C1380 C1379 1.379 . S
H1381 C1375 0.959 . S
H1382 C1375 0.961 . S
H1383 C1375 0.960 . S
H1384 C1376 0.930 . S
H1385 C1377 0.929 . S
H1386 C1394 0.929 . S
H1387 C1396 0.930 . S
H1388 C1398 0.930 . S
H1389 C1401 0.929 . S
H1390 C1404 0.930 . S
H1391 C1406 0.960 . S
H1392 C1406 0.960 . S
H1393 C1406 0.960 . S
C1394 H1386 0.929 . S
C1394 C1395 1.377 . S
C1394 C1396 1.384 . S
C1395 C1394 1.377 . S
C1395 C1401 1.390 . S
C1396 H1387 0.930 . S
C1396 C1394 1.384 . S
C1396 C1397 1.372 . S
C1397 C1396 1.372 . S
C1397 C1398 1.400 . S
C1397 C1402 1.490 . S
C1398 H1388 0.930 . S
C1398 C1397 1.400 . S
C1398 C1401 1.386 . S
H1399 C1415 0.930 . S
H1400 C1416 0.931 . S
C1401 H1389 0.929 . S
C1401 C1395 1.390 . S
C1401 C1398 1.386 . S
C1402 C1397 1.490 . S
C1402 C1404 1.395 . S
C1402 C1405 1.403 . S
H1403 C1409 0.930 . S
C1404 H1390 0.930 . S
C1404 C1402 1.395 . S
C1404 C1407 1.403 . S
C1405 C1402 1.403 . S
C1405 C1406 1.524 . S
C1405 C1409 1.400 . S
C1406 H1391 0.960 . S
C1406 H1392 0.960 . S
C1406 H1393 0.960 . S
C1406 C1405 1.524 . S
C1407 C1404 1.403 . S
C1407 C1408 1.392 . S
C1407 C1411 1.495 . S
C1408 C1407 1.392 . S
C1408 C1409 1.385 . S
C1408 C1410 1.478 . S
C1409 H1403 0.930 . S
C1409 C1405 1.400 . S
C1409 C1408 1.385 . S
C1410 C1408 1.478 . S
C1410 C1412 1.381 . S
C1410 C1416 1.383 . S
C1411 C1407 1.495 . S
C1411 H1417 0.959 . S
C1411 H1418 0.961 . S
C1411 H1419 0.960 . S
C1412 C1410 1.381 . S
C1412 C1413 1.394 . S
C1412 H1420 0.930 . S
C1413 C1412 1.394 . S
C1413 C1414 1.383 . S
C1413 H1421 0.929 . S
C1414 C1413 1.383 . S
C1414 C1415 1.377 . S
C1415 H1399 0.930 . S
C1415 C1414 1.377 . S
C1415 C1416 1.379 . S
C1416 H1400 0.931 . S
C1416 C1410 1.383 . S
C1416 C1415 1.379 . S
H1417 C1411 0.959 . S
H1418 C1411 0.961 . S
H1419 C1411 0.960 . S
H1420 C1412 0.930 . S
H1421 C1413 0.929 . S
H1422 C1430 0.929 . S
H1423 C1432 0.930 . S
H1424 C1434 0.930 . S
H1425 C1437 0.929 . S
H1426 C1440 0.930 . S
H1427 C1442 0.960 1_565 S
H1428 C1442 0.960 . S
H1429 C1442 0.960 . S
C1430 H1422 0.929 . S
C1430 C1431 1.377 . S
C1430 C1432 1.384 . S
C1431 C1430 1.377 . S
C1431 C1437 1.390 . S
C1432 H1423 0.930 . S
C1432 C1430 1.384 . S
C1432 C1433 1.372 . S
C1433 C1432 1.372 . S
C1433 C1434 1.400 . S
C1433 C1438 1.490 . S
C1434 H1424 0.930 . S
C1434 C1433 1.400 . S
C1434 C1437 1.386 . S
H1435 C1451 0.930 . S
H1436 C1452 0.931 . S
C1437 H1425 0.929 . S
C1437 C1431 1.390 . S
C1437 C1434 1.386 . S
C1438 C1433 1.490 . S
C1438 C1440 1.395 . S
C1438 C1441 1.403 1_545 S
H1439 C1445 0.930 . S
C1440 H1426 0.930 . S
C1440 C1438 1.395 . S
C1440 C1443 1.403 1_545 S
C1441 C1438 1.403 1_565 S
C1441 C1442 1.524 1_565 S
C1441 C1445 1.400 . S
C1442 H1427 0.960 1_545 S
C1442 H1428 0.960 . S
C1442 H1429 0.960 . S
C1442 C1441 1.524 1_545 S
C1443 C1440 1.403 1_565 S
C1443 C1444 1.392 . S
C1443 C1447 1.495 . S
C1444 C1443 1.392 . S
C1444 C1445 1.385 . S
C1444 C1446 1.478 . S
C1445 H1439 0.930 . S
C1445 C1441 1.400 . S
C1445 C1444 1.385 . S
C1446 C1444 1.478 . S
C1446 C1448 1.381 . S
C1446 C1452 1.383 . S
C1447 C1443 1.495 . S
C1447 H1453 0.959 . S
C1447 H1454 0.961 . S
C1447 H1455 0.960 . S
C1448 C1446 1.381 . S
C1448 C1449 1.394 . S
C1448 H1456 0.930 . S
C1449 C1448 1.394 . S
C1449 C1450 1.383 . S
C1449 H1457 0.929 . S
C1450 C1449 1.383 . S
C1450 C1451 1.377 . S
C1451 H1435 0.930 . S
C1451 C1450 1.377 . S
C1451 C1452 1.379 . S
C1452 H1436 0.931 . S
C1452 C1446 1.383 . S
C1452 C1451 1.379 . S
H1453 C1447 0.959 . S
H1454 C1447 0.961 . S
H1455 C1447 0.960 . S
H1456 C1448 0.930 . S
H1457 C1449 0.929 . S
H1458 C1466 0.929 . S
H1459 C1468 0.930 . S
H1460 C1470 0.930 . S
H1461 C1473 0.929 . S
H1462 C1476 0.930 . S
H1463 C1478 0.960 . S
H1464 C1478 0.960 . S
H1465 C1478 0.960 . S
C1466 H1458 0.929 . S
C1466 C1467 1.377 . S
C1466 C1468 1.384 . S
C1467 C1466 1.377 . S
C1467 C1473 1.390 . S
C1468 H1459 0.930 . S
C1468 C1466 1.384 . S
C1468 C1469 1.372 . S
C1469 C1468 1.372 . S
C1469 C1470 1.400 . S
C1469 C1474 1.490 . S
C1470 H1460 0.930 . S
C1470 C1469 1.400 . S
C1470 C1473 1.386 . S
H1471 C1487 0.930 . S
H1472 C1488 0.931 . S
C1473 H1461 0.929 . S
C1473 C1467 1.390 . S
C1473 C1470 1.386 . S
C1474 C1469 1.490 . S
C1474 C1476 1.395 . S
C1474 C1477 1.403 . S
H1475 C1481 0.930 . S
C1476 H1462 0.930 . S
C1476 C1474 1.395 . S
C1476 C1479 1.403 . S
C1477 C1474 1.403 . S
C1477 C1478 1.524 . S
C1477 C1481 1.400 . S
C1478 H1463 0.960 . S
C1478 H1464 0.960 . S
C1478 H1465 0.960 . S
C1478 C1477 1.524 . S
C1479 C1476 1.403 . S
C1479 C1480 1.392 . S
C1479 C1483 1.495 . S
C1480 C1479 1.392 . S
C1480 C1481 1.385 . S
C1480 C1482 1.478 . S
C1481 H1475 0.930 . S
C1481 C1477 1.400 . S
C1481 C1480 1.385 . S
C1482 C1480 1.478 . S
C1482 C1484 1.381 . S
C1482 C1488 1.383 . S
C1483 C1479 1.495 . S
C1483 H1489 0.959 . S
C1483 H1490 0.961 . S
C1483 H1491 0.960 . S
C1484 C1482 1.381 . S
C1484 C1485 1.394 . S
C1484 H1492 0.930 . S
C1485 C1484 1.394 . S
C1485 C1486 1.383 . S
C1485 H1493 0.929 . S
C1486 C1485 1.383 . S
C1486 C1487 1.377 . S
C1487 H1471 0.930 . S
C1487 C1486 1.377 . S
C1487 C1488 1.379 . S
C1488 H1472 0.931 . S
C1488 C1482 1.383 . S
C1488 C1487 1.379 . S
H1489 C1483 0.959 . S
H1490 C1483 0.961 . S
H1491 C1483 0.960 . S
H1492 C1484 0.930 . S
H1493 C1485 0.929 . S
H1494 C1502 0.929 . S
H1495 C1504 0.930 . S
H1496 C1506 0.930 . S
H1497 C1509 0.929 . S
H1498 C1512 0.930 . S
H1499 C1514 0.960 . S
H1500 C1514 0.960 . S
H1501 C1514 0.960 . S
C1502 H1494 0.929 . S
C1502 C1503 1.377 . S
C1502 C1504 1.384 . S
C1503 C1502 1.377 . S
C1503 C1509 1.390 . S
C1504 H1495 0.930 . S
C1504 C1502 1.384 . S
C1504 C1505 1.372 . S
C1505 C1504 1.372 . S
C1505 C1506 1.400 . S
C1505 C1510 1.490 . S
C1506 H1496 0.930 . S
C1506 C1505 1.400 . S
C1506 C1509 1.386 . S
H1507 C1523 0.930 . S
H1508 C1524 0.931 . S
C1509 H1497 0.929 . S
C1509 C1503 1.390 . S
C1509 C1506 1.386 . S
C1510 C1505 1.490 . S
C1510 C1512 1.395 . S
C1510 C1513 1.403 . S
H1511 C1517 0.930 . S
C1512 H1498 0.930 . S
C1512 C1510 1.395 . S
C1512 C1515 1.403 . S
C1513 C1510 1.403 . S
C1513 C1514 1.524 . S
C1513 C1517 1.400 . S
C1514 H1499 0.960 . S
C1514 H1500 0.960 . S
C1514 H1501 0.960 . S
C1514 C1513 1.524 . S
C1515 C1512 1.403 . S
C1515 C1516 1.392 . S
C1515 C1519 1.495 . S
C1516 C1515 1.392 . S
C1516 C1517 1.385 . S
C1516 C1518 1.478 . S
C1517 H1511 0.930 . S
C1517 C1513 1.400 . S
C1517 C1516 1.385 . S
C1518 C1516 1.478 . S
C1518 C1520 1.381 . S
C1518 C1524 1.383 . S
C1519 C1515 1.495 . S
C1519 H1525 0.959 . S
C1519 H1526 0.961 . S
C1519 H1527 0.960 . S
C1520 C1518 1.381 . S
C1520 C1521 1.394 . S
C1520 H1528 0.930 . S
C1521 C1520 1.394 . S
C1521 C1522 1.383 . S
C1521 H1529 0.929 . S
C1522 C1521 1.383 . S
C1522 C1523 1.377 . S
C1523 H1507 0.930 . S
C1523 C1522 1.377 . S
C1523 C1524 1.379 . S
C1524 H1508 0.931 . S
C1524 C1518 1.383 . S
C1524 C1523 1.379 . S
H1525 C1519 0.959 . S
H1526 C1519 0.961 . S
H1527 C1519 0.960 . S
H1528 C1520 0.930 . S
H1529 C1521 0.929 . S
H1530 C1538 0.929 . S
H1531 C1540 0.930 . S
H1532 C1542 0.930 . S
H1533 C1545 0.929 . S
H1534 C1548 0.930 . S
H1535 C1550 0.960 . S
H1536 C1550 0.960 . S
H1537 C1550 0.960 . S
C1538 H1530 0.929 . S
C1538 C1539 1.377 . S
C1538 C1540 1.384 . S
C1539 C1538 1.377 . S
C1539 C1545 1.390 . S
C1540 H1531 0.930 . S
C1540 C1538 1.384 . S
C1540 C1541 1.372 . S
C1541 C1540 1.372 . S
C1541 C1542 1.400 . S
C1541 C1546 1.490 . S
C1542 H1532 0.930 . S
C1542 C1541 1.400 . S
C1542 C1545 1.386 . S
H1543 C1559 0.930 . S
H1544 C1560 0.931 . S
C1545 H1533 0.929 . S
C1545 C1539 1.390 . S
C1545 C1542 1.386 . S
C1546 C1541 1.490 . S
C1546 C1548 1.395 . S
C1546 C1549 1.403 . S
H1547 C1553 0.930 . S
C1548 H1534 0.930 . S
C1548 C1546 1.395 . S
C1548 C1551 1.403 . S
C1549 C1546 1.403 . S
C1549 C1550 1.524 . S
C1549 C1553 1.400 . S
C1550 H1535 0.960 . S
C1550 H1536 0.960 . S
C1550 H1537 0.960 . S
C1550 C1549 1.524 . S
C1551 C1548 1.403 . S
C1551 C1552 1.392 . S
C1551 C1555 1.495 . S
C1552 C1551 1.392 . S
C1552 C1553 1.385 . S
C1552 C1554 1.478 . S
C1553 H1547 0.930 . S
C1553 C1549 1.400 . S
C1553 C1552 1.385 . S
C1554 C1552 1.478 . S
C1554 C1556 1.381 . S
C1554 C1560 1.383 . S
C1555 C1551 1.495 . S
C1555 H1561 0.959 . S
C1555 H1562 0.961 . S
C1555 H1563 0.960 . S
C1556 C1554 1.381 . S
C1556 C1557 1.394 . S
C1556 H1564 0.930 . S
C1557 C1556 1.394 . S
C1557 C1558 1.383 . S
C1557 H1565 0.929 . S
C1558 C1557 1.383 . S
C1558 C1559 1.377 . S
C1559 H1543 0.930 . S
C1559 C1558 1.377 . S
C1559 C1560 1.379 . S
C1560 H1544 0.931 . S
C1560 C1554 1.383 . S
C1560 C1559 1.379 . S
H1561 C1555 0.959 . S
H1562 C1555 0.961 . S
H1563 C1555 0.960 . S
H1564 C1556 0.930 . S
H1565 C1557 0.929 . S
H1566 C1574 0.929 . S
H1567 C1576 0.930 . S
H1568 C1578 0.930 . S
H1569 C1581 0.929 . S
H1570 C1584 0.930 . S
H1571 C1586 0.960 . S
H1572 C1586 0.960 . S
H1573 C1586 0.960 . S
C1574 H1566 0.929 . S
C1574 C1575 1.377 . S
C1574 C1576 1.384 . S
C1575 C1574 1.377 . S
C1575 C1581 1.390 . S
C1576 H1567 0.930 . S
C1576 C1574 1.384 . S
C1576 C1577 1.372 . S
C1577 C1576 1.372 . S
C1577 C1578 1.400 . S
C1577 C1582 1.490 . S
C1578 H1568 0.930 . S
C1578 C1577 1.400 . S
C1578 C1581 1.386 . S
H1579 C1595 0.930 . S
H1580 C1596 0.931 . S
C1581 H1569 0.929 . S
C1581 C1575 1.390 . S
C1581 C1578 1.386 . S
C1582 C1577 1.490 . S
C1582 C1584 1.395 . S
C1582 C1585 1.403 . S
H1583 C1589 0.930 . S
C1584 H1570 0.930 . S
C1584 C1582 1.395 . S
C1584 C1587 1.403 . S
C1585 C1582 1.403 . S
C1585 C1586 1.524 . S
C1585 C1589 1.400 . S
C1586 H1571 0.960 . S
C1586 H1572 0.960 . S
C1586 H1573 0.960 . S
C1586 C1585 1.524 . S
C1587 C1584 1.403 . S
C1587 C1588 1.392 . S
C1587 C1591 1.495 . S
C1588 C1587 1.392 . S
C1588 C1589 1.385 . S
C1588 C1590 1.478 . S
C1589 H1583 0.930 . S
C1589 C1585 1.400 . S
C1589 C1588 1.385 . S
C1590 C1588 1.478 . S
C1590 C1592 1.381 . S
C1590 C1596 1.383 . S
C1591 C1587 1.495 . S
C1591 H1597 0.959 . S
C1591 H1598 0.961 . S
C1591 H1599 0.960 . S
C1592 C1590 1.381 . S
C1592 C1593 1.394 . S
C1592 H1600 0.930 . S
C1593 C1592 1.394 . S
C1593 C1594 1.383 . S
C1593 H1601 0.929 . S
C1594 C1593 1.383 . S
C1594 C1595 1.377 . S
C1595 H1579 0.930 . S
C1595 C1594 1.377 . S
C1595 C1596 1.379 . S
C1596 H1580 0.931 . S
C1596 C1590 1.383 . S
C1596 C1595 1.379 . S
H1597 C1591 0.959 . S
H1598 C1591 0.961 . S
H1599 C1591 0.960 . S
H1600 C1592 0.930 . S
H1601 C1593 0.929 . S
H1602 C1610 0.929 . S
H1603 C1612 0.930 . S
H1604 C1614 0.930 . S
H1605 C1617 0.929 . S
H1606 C1620 0.930 . S
H1607 C1622 0.960 . S
H1608 C1622 0.960 . S
H1609 C1622 0.960 . S
C1610 H1602 0.929 . S
C1610 C1611 1.377 . S
C1610 C1612 1.384 . S
C1611 C1610 1.377 . S
C1611 C1617 1.390 . S
C1612 H1603 0.930 . S
C1612 C1610 1.384 . S
C1612 C1613 1.372 . S
C1613 C1612 1.372 . S
C1613 C1614 1.400 . S
C1613 C1618 1.490 . S
C1614 H1604 0.930 . S
C1614 C1613 1.400 . S
C1614 C1617 1.386 . S
H1615 C1631 0.930 . S
H1616 C1632 0.931 . S
C1617 H1605 0.929 . S
C1617 C1611 1.390 . S
C1617 C1614 1.386 . S
C1618 C1613 1.490 . S
C1618 C1620 1.395 . S
C1618 C1621 1.403 . S
H1619 C1625 0.930 . S
C1620 H1606 0.930 . S
C1620 C1618 1.395 . S
C1620 C1623 1.403 . S
C1621 C1618 1.403 . S
C1621 C1622 1.524 . S
C1621 C1625 1.400 . S
C1622 H1607 0.960 . S
C1622 H1608 0.960 . S
C1622 H1609 0.960 . S
C1622 C1621 1.524 . S
C1623 C1620 1.403 . S
C1623 C1624 1.392 . S
C1623 C1627 1.495 . S
C1624 C1623 1.392 . S
C1624 C1625 1.385 . S
C1624 C1626 1.478 . S
C1625 H1619 0.930 . S
C1625 C1621 1.400 . S
C1625 C1624 1.385 . S
C1626 C1624 1.478 . S
C1626 C1628 1.381 . S
C1626 C1632 1.383 . S
C1627 C1623 1.495 . S
C1627 H1633 0.959 . S
C1627 H1634 0.961 . S
C1627 H1635 0.960 . S
C1628 C1626 1.381 . S
C1628 C1629 1.394 . S
C1628 H1636 0.930 . S
C1629 C1628 1.394 . S
C1629 C1630 1.383 . S
C1629 H1637 0.929 . S
C1630 C1629 1.383 . S
C1630 C1631 1.377 . S
C1631 H1615 0.930 . S
C1631 C1630 1.377 . S
C1631 C1632 1.379 . S
C1632 H1616 0.931 . S
C1632 C1626 1.383 . S
C1632 C1631 1.379 . S
H1633 C1627 0.959 . S
H1634 C1627 0.961 . S
H1635 C1627 0.960 . S
H1636 C1628 0.930 . S
H1637 C1629 0.929 . S
H1638 C1646 0.929 . S
H1639 C1648 0.930 . S
H1640 C1650 0.930 . S
H1641 C1653 0.929 . S
H1642 C1656 0.930 . S
H1643 C1658 0.960 . S
H1644 C1658 0.960 . S
H1645 C1658 0.960 . S
C1646 H1638 0.929 . S
C1646 C1647 1.377 . S
C1646 C1648 1.384 . S
C1647 C1646 1.377 . S
C1647 C1653 1.390 . S
C1648 H1639 0.930 . S
C1648 C1646 1.384 . S
C1648 C1649 1.372 . S
C1649 C1648 1.372 . S
C1649 C1650 1.400 . S
C1649 C1654 1.490 . S
C1650 H1640 0.930 . S
C1650 C1649 1.400 . S
C1650 C1653 1.386 . S
H1651 C1667 0.930 . S
H1652 C1668 0.931 . S
C1653 H1641 0.929 . S
C1653 C1647 1.390 . S
C1653 C1650 1.386 . S
C1654 C1649 1.490 . S
C1654 C1656 1.395 . S
C1654 C1657 1.403 . S
H1655 C1661 0.930 . S
C1656 H1642 0.930 . S
C1656 C1654 1.395 . S
C1656 C1659 1.403 . S
C1657 C1654 1.403 . S
C1657 C1658 1.524 . S
C1657 C1661 1.400 . S
C1658 H1643 0.960 . S
C1658 H1644 0.960 . S
C1658 H1645 0.960 . S
C1658 C1657 1.524 . S
C1659 C1656 1.403 . S
C1659 C1660 1.392 . S
C1659 C1663 1.495 . S
C1660 C1659 1.392 . S
C1660 C1661 1.385 . S
C1660 C1662 1.478 . S
C1661 H1655 0.930 . S
C1661 C1657 1.400 . S
C1661 C1660 1.385 . S
C1662 C1660 1.478 . S
C1662 C1664 1.381 . S
C1662 C1668 1.383 . S
C1663 C1659 1.495 . S
C1663 H1669 0.959 . S
C1663 H1670 0.961 . S
C1663 H1671 0.960 . S
C1664 C1662 1.381 . S
C1664 C1665 1.394 . S
C1664 H1672 0.930 . S
C1665 C1664 1.394 . S
C1665 C1666 1.383 . S
C1665 H1673 0.929 . S
C1666 C1665 1.383 . S
C1666 C1667 1.377 . S
C1667 H1651 0.930 . S
C1667 C1666 1.377 . S
C1667 C1668 1.379 . S
C1668 H1652 0.931 . S
C1668 C1662 1.383 . S
C1668 C1667 1.379 . S
H1669 C1663 0.959 . S
H1670 C1663 0.961 . S
H1671 C1663 0.960 . S
H1672 C1664 0.930 . S
H1673 C1665 0.929 . S
H1674 C1682 0.929 . S
H1675 C1684 0.930 . S
H1676 C1686 0.930 . S
H1677 C1689 0.929 . S
H1678 C1692 0.930 . S
H1679 C1694 0.960 . S
H1680 C1694 0.960 1_545 S
H1681 C1694 0.960 . S
C1682 H1674 0.929 . S
C1682 C1683 1.377 . S
C1682 C1684 1.384 . S
C1683 C1682 1.377 . S
C1683 C1689 1.390 . S
C1684 H1675 0.930 . S
C1684 C1682 1.384 . S
C1684 C1685 1.372 . S
C1685 C1684 1.372 . S
C1685 C1686 1.400 . S
C1685 C1690 1.490 . S
C1686 H1676 0.930 . S
C1686 C1685 1.400 . S
C1686 C1689 1.386 . S
H1687 C1703 0.930 . S
H1688 C1704 0.931 . S
C1689 H1677 0.929 . S
C1689 C1683 1.390 . S
C1689 C1686 1.386 . S
C1690 C1685 1.490 . S
C1690 C1692 1.395 . S
C1690 C1693 1.403 1_545 S
H1691 C1697 0.930 . S
C1692 H1678 0.930 . S
C1692 C1690 1.395 . S
C1692 C1695 1.403 1_545 S
C1693 C1690 1.403 1_565 S
C1693 C1694 1.524 . S
C1693 C1697 1.400 . S
C1694 H1679 0.960 . S
C1694 H1680 0.960 1_565 S
C1694 H1681 0.960 . S
C1694 C1693 1.524 . S
C1695 C1692 1.403 1_565 S
C1695 C1696 1.392 . S
C1695 C1699 1.495 . S
C1696 C1695 1.392 . S
C1696 C1697 1.385 . S
C1696 C1698 1.478 . S
C1697 H1691 0.930 . S
C1697 C1693 1.400 . S
C1697 C1696 1.385 . S
C1698 C1696 1.478 . S
C1698 C1700 1.381 . S
C1698 C1704 1.383 . S
C1699 C1695 1.495 . S
C1699 H1705 0.959 1_565 S
C1699 H1706 0.961 . S
C1699 H1707 0.960 . S
C1700 C1698 1.381 . S
C1700 C1701 1.394 . S
C1700 H1708 0.930 . S
C1701 C1700 1.394 . S
C1701 C1702 1.383 . S
C1701 H1709 0.929 . S
C1702 C1701 1.383 . S
C1702 C1703 1.377 . S
C1703 H1687 0.930 . S
C1703 C1702 1.377 . S
C1703 C1704 1.379 . S
C1704 H1688 0.931 . S
C1704 C1698 1.383 . S
C1704 C1703 1.379 . S
H1705 C1699 0.959 1_545 S
H1706 C1699 0.961 . S
H1707 C1699 0.960 . S
H1708 C1700 0.930 . S
H1709 C1701 0.929 . S
H1710 C1718 0.929 . S
H1711 C1720 0.930 . S
H1712 C1722 0.930 . S
H1713 C1725 0.929 . S
H1714 C1728 0.930 . S
H1715 C1730 0.960 . S
H1716 C1730 0.960 . S
H1717 C1730 0.960 . S
C1718 H1710 0.929 . S
C1718 C1719 1.377 . S
C1718 C1720 1.384 . S
C1719 C1718 1.377 . S
C1719 C1725 1.390 . S
C1720 H1711 0.930 . S
C1720 C1718 1.384 . S
C1720 C1721 1.372 . S
C1721 C1720 1.372 . S
C1721 C1722 1.400 . S
C1721 C1726 1.490 . S
C1722 H1712 0.930 . S
C1722 C1721 1.400 . S
C1722 C1725 1.386 . S
H1723 C1739 0.930 . S
H1724 C1740 0.931 . S
C1725 H1713 0.929 . S
C1725 C1719 1.390 . S
C1725 C1722 1.386 . S
C1726 C1721 1.490 . S
C1726 C1728 1.395 1_655 S
C1726 C1729 1.403 . S
H1727 C1733 0.930 . S
C1728 H1714 0.930 . S
C1728 C1726 1.395 1_455 S
C1728 C1731 1.403 . S
C1729 C1726 1.403 . S
C1729 C1730 1.527 . S
C1729 C1733 1.396 1_655 S
C1730 H1715 0.960 . S
C1730 H1716 0.960 . S
C1730 H1717 0.960 . S
C1730 C1729 1.527 . S
C1731 C1728 1.403 . S
C1731 C1732 1.392 . S
C1731 C1735 1.495 . S
C1732 C1731 1.392 . S
C1732 C1733 1.385 . S
C1732 C1734 1.478 . S
C1733 H1727 0.930 . S
C1733 C1729 1.396 1_455 S
C1733 C1732 1.385 . S
C1734 C1732 1.478 . S
C1734 C1736 1.381 . S
C1734 C1740 1.383 . S
C1735 C1731 1.495 . S
C1735 H1741 0.959 . S
C1735 H1742 0.961 . S
C1735 H1743 0.960 . S
C1736 C1734 1.381 . S
C1736 C1737 1.394 . S
C1736 H1744 0.930 . S
C1737 C1736 1.394 . S
C1737 C1738 1.383 . S
C1737 H1745 0.929 . S
C1738 C1737 1.383 . S
C1738 C1739 1.377 . S
C1739 H1723 0.930 . S
C1739 C1738 1.377 . S
C1739 C1740 1.379 . S
C1740 H1724 0.931 . S
C1740 C1734 1.383 . S
C1740 C1739 1.379 . S
H1741 C1735 0.959 . S
H1742 C1735 0.961 . S
H1743 C1735 0.960 . S
H1744 C1736 0.930 . S
H1745 C1737 0.929 . S
H1746 C1754 0.929 . S
H1747 C1756 0.930 . S
H1748 C1758 0.930 . S
H1749 C1761 0.929 . S
H1750 C1764 0.930 . S
H1751 C1766 0.960 . S
H1752 C1766 0.960 . S
H1753 C1766 0.960 . S
C1754 H1746 0.929 . S
C1754 C1755 1.377 . S
C1754 C1756 1.384 . S
C1755 C1754 1.377 . S
C1755 C1761 1.390 . S
C1756 H1747 0.930 . S
C1756 C1754 1.384 . S
C1756 C1757 1.372 . S
C1757 C1756 1.372 . S
C1757 C1758 1.400 . S
C1757 C1762 1.490 . S
C1758 H1748 0.930 . S
C1758 C1757 1.400 . S
C1758 C1761 1.386 . S
H1759 C1775 0.930 . S
H1760 C1776 0.931 . S
C1761 H1749 0.929 . S
C1761 C1755 1.390 . S
C1761 C1758 1.386 . S
C1762 C1757 1.490 . S
C1762 C1764 1.395 . S
C1762 C1765 1.403 . S
H1763 C1769 0.930 . S
C1764 H1750 0.930 . S
C1764 C1762 1.395 . S
C1764 C1767 1.403 . S
C1765 C1762 1.403 . S
C1765 C1766 1.524 . S
C1765 C1769 1.400 . S
C1766 H1751 0.960 . S
C1766 H1752 0.960 . S
C1766 H1753 0.960 . S
C1766 C1765 1.524 . S
C1767 C1764 1.403 . S
C1767 C1768 1.392 . S
C1767 C1771 1.495 . S
C1768 C1767 1.392 . S
C1768 C1769 1.385 . S
C1768 C1770 1.478 . S
C1769 H1763 0.930 . S
C1769 C1765 1.400 . S
C1769 C1768 1.385 . S
C1770 C1768 1.478 . S
C1770 C1772 1.381 . S
C1770 C1776 1.383 . S
C1771 C1767 1.495 . S
C1771 H1777 0.959 . S
C1771 H1778 0.961 . S
C1771 H1779 0.960 . S
C1772 C1770 1.381 . S
C1772 C1773 1.394 . S
C1772 H1780 0.930 . S
C1773 C1772 1.394 . S
C1773 C1774 1.383 . S
C1773 H1781 0.929 . S
C1774 C1773 1.383 . S
C1774 C1775 1.377 . S
C1775 H1759 0.930 . S
C1775 C1774 1.377 . S
C1775 C1776 1.379 . S
C1776 H1760 0.931 . S
C1776 C1770 1.383 . S
C1776 C1775 1.379 . S
H1777 C1771 0.959 . S
H1778 C1771 0.961 . S
H1779 C1771 0.960 . S
H1780 C1772 0.930 . S
H1781 C1773 0.929 . S
H1782 C1790 0.929 . S
H1783 C1792 0.930 . S
H1784 C1794 0.930 . S
H1785 C1797 0.929 . S
H1786 C1800 0.930 . S
H1787 C1802 0.960 . S
H1788 C1802 0.960 . S
H1789 C1802 0.960 . S
C1790 H1782 0.929 . S
C1790 C1791 1.377 . S
C1790 C1792 1.384 . S
C1791 C1790 1.377 . S
C1791 C1797 1.390 . S
C1792 H1783 0.930 . S
C1792 C1790 1.384 . S
C1792 C1793 1.372 . S
C1793 C1792 1.372 . S
C1793 C1794 1.400 . S
C1793 C1798 1.490 . S
C1794 H1784 0.930 . S
C1794 C1793 1.400 . S
C1794 C1797 1.386 . S
H1795 C1811 0.930 . S
H1796 C1812 0.931 . S
C1797 H1785 0.929 . S
C1797 C1791 1.390 . S
C1797 C1794 1.386 . S
C1798 C1793 1.490 . S
C1798 C1800 1.395 . S
C1798 C1801 1.403 . S
H1799 C1805 0.930 . S
C1800 H1786 0.930 . S
C1800 C1798 1.395 . S
C1800 C1803 1.403 . S
C1801 C1798 1.403 . S
C1801 C1802 1.524 . S
C1801 C1805 1.400 . S
C1802 H1787 0.960 . S
C1802 H1788 0.960 . S
C1802 H1789 0.960 . S
C1802 C1801 1.524 . S
C1803 C1800 1.403 . S
C1803 C1804 1.392 . S
C1803 C1807 1.495 . S
C1804 C1803 1.392 . S
C1804 C1805 1.385 . S
C1804 C1806 1.478 . S
C1805 H1799 0.930 . S
C1805 C1801 1.400 . S
C1805 C1804 1.385 . S
C1806 C1804 1.478 . S
C1806 C1808 1.381 . S
C1806 C1812 1.383 . S
C1807 C1803 1.495 . S
C1807 H1813 0.959 . S
C1807 H1814 0.961 . S
C1807 H1815 0.960 . S
C1808 C1806 1.381 . S
C1808 C1809 1.394 . S
C1808 H1816 0.930 . S
C1809 C1808 1.394 . S
C1809 C1810 1.383 . S
C1809 H1817 0.929 . S
C1810 C1809 1.383 . S
C1810 C1811 1.377 . S
C1811 H1795 0.930 . S
C1811 C1810 1.377 . S
C1811 C1812 1.379 . S
C1812 H1796 0.931 . S
C1812 C1806 1.383 . S
C1812 C1811 1.379 . S
H1813 C1807 0.959 . S
H1814 C1807 0.961 . S
H1815 C1807 0.960 . S
H1816 C1808 0.930 . S
H1817 C1809 0.929 . S
H1818 C1826 0.929 . S
H1819 C1828 0.930 . S
H1820 C1830 0.930 . S
H1821 C1833 0.929 . S
H1822 C1836 0.930 . S
H1823 C1838 0.960 . S
H1824 C1838 0.960 . S
H1825 C1838 0.960 . S
C1826 H1818 0.929 . S
C1826 C1827 1.377 . S
C1826 C1828 1.384 . S
C1827 C1826 1.377 . S
C1827 C1833 1.390 . S
C1828 H1819 0.930 . S
C1828 C1826 1.384 . S
C1828 C1829 1.372 . S
C1829 C1828 1.372 . S
C1829 C1830 1.400 . S
C1829 C1834 1.490 . S
C1830 H1820 0.930 . S
C1830 C1829 1.400 . S
C1830 C1833 1.386 . S
H1831 C1847 0.930 . S
H1832 C1848 0.931 . S
C1833 H1821 0.929 . S
C1833 C1827 1.390 . S
C1833 C1830 1.386 . S
C1834 C1829 1.490 . S
C1834 C1836 1.395 . S
C1834 C1837 1.403 . S
H1835 C1841 0.930 . S
C1836 H1822 0.930 . S
C1836 C1834 1.395 . S
C1836 C1839 1.403 . S
C1837 C1834 1.403 . S
C1837 C1838 1.524 . S
C1837 C1841 1.400 . S
C1838 H1823 0.960 . S
C1838 H1824 0.960 . S
C1838 H1825 0.960 . S
C1838 C1837 1.524 . S
C1839 C1836 1.403 . S
C1839 C1840 1.392 . S
C1839 C1843 1.495 . S
C1840 C1839 1.392 . S
C1840 C1841 1.385 . S
C1840 C1842 1.478 . S
C1841 H1835 0.930 . S
C1841 C1837 1.400 . S
C1841 C1840 1.385 . S
C1842 C1840 1.478 . S
C1842 C1844 1.381 . S
C1842 C1848 1.383 . S
C1843 C1839 1.495 . S
C1843 H1849 0.959 . S
C1843 H1850 0.961 . S
C1843 H1851 0.960 . S
C1844 C1842 1.381 . S
C1844 C1845 1.394 . S
C1844 H1852 0.930 . S
C1845 C1844 1.394 . S
C1845 C1846 1.383 . S
C1845 H1853 0.929 . S
C1846 C1845 1.383 . S
C1846 C1847 1.377 . S
C1847 H1831 0.930 . S
C1847 C1846 1.377 . S
C1847 C1848 1.379 . S
C1848 H1832 0.931 . S
C1848 C1842 1.383 . S
C1848 C1847 1.379 . S
H1849 C1843 0.959 . S
H1850 C1843 0.961 . S
H1851 C1843 0.960 . S
H1852 C1844 0.930 . S
H1853 C1845 0.929 . S
H1854 C1862 0.929 . S
H1855 C1864 0.930 . S
H1856 C1866 0.930 . S
H1857 C1869 0.929 . S
H1858 C1872 0.930 . S
H1859 C1874 0.960 . S
H1860 C1874 0.960 . S
H1861 C1874 0.960 . S
C1862 H1854 0.929 . S
C1862 C1863 1.377 . S
C1862 C1864 1.384 . S
C1863 C1862 1.377 . S
C1863 C1869 1.390 . S
C1864 H1855 0.930 . S
C1864 C1862 1.384 . S
C1864 C1865 1.372 . S
C1865 C1864 1.372 . S
C1865 C1866 1.400 . S
C1865 C1870 1.490 . S
C1866 H1856 0.930 . S
C1866 C1865 1.400 . S
C1866 C1869 1.386 . S
H1867 C1883 0.930 . S
H1868 C1884 0.931 . S
C1869 H1857 0.929 . S
C1869 C1863 1.390 . S
C1869 C1866 1.386 . S
C1870 C1865 1.490 . S
C1870 C1872 1.395 . S
C1870 C1873 1.403 . S
H1871 C1877 0.930 . S
C1872 H1858 0.930 . S
C1872 C1870 1.395 . S
C1872 C1875 1.403 . S
C1873 C1870 1.403 . S
C1873 C1874 1.524 . S
C1873 C1877 1.400 . S
C1874 H1859 0.960 . S
C1874 H1860 0.960 . S
C1874 H1861 0.960 . S
C1874 C1873 1.524 . S
C1875 C1872 1.403 . S
C1875 C1876 1.392 . S
C1875 C1879 1.495 . S
C1876 C1875 1.392 . S
C1876 C1877 1.385 . S
C1876 C1878 1.478 . S
C1877 H1871 0.930 . S
C1877 C1873 1.400 . S
C1877 C1876 1.385 . S
C1878 C1876 1.478 . S
C1878 C1880 1.381 . S
C1878 C1884 1.383 . S
C1879 C1875 1.495 . S
C1879 H1885 0.959 . S
C1879 H1886 0.961 . S
C1879 H1887 0.960 . S
C1880 C1878 1.381 . S
C1880 C1881 1.394 . S
C1880 H1888 0.930 . S
C1881 C1880 1.394 . S
C1881 C1882 1.383 . S
C1881 H1889 0.929 . S
C1882 C1881 1.383 . S
C1882 C1883 1.377 . S
C1883 H1867 0.930 . S
C1883 C1882 1.377 . S
C1883 C1884 1.379 . S
C1884 H1868 0.931 . S
C1884 C1878 1.383 . S
C1884 C1883 1.379 . S
H1885 C1879 0.959 . S
H1886 C1879 0.961 . S
H1887 C1879 0.960 . S
H1888 C1880 0.930 . S
H1889 C1881 0.929 . S
H1890 C1898 0.929 . S
H1891 C1900 0.930 . S
H1892 C1902 0.930 . S
H1893 C1905 0.929 . S
H1894 C1908 0.930 . S
H1895 C1910 0.960 . S
H1896 C1910 0.960 . S
H1897 C1910 0.960 . S
C1898 H1890 0.929 . S
C1898 C1899 1.377 . S
C1898 C1900 1.384 . S
C1899 C1898 1.377 . S
C1899 C1905 1.390 . S
C1900 H1891 0.930 . S
C1900 C1898 1.384 . S
C1900 C1901 1.372 . S
C1901 C1900 1.372 . S
C1901 C1902 1.400 . S
C1901 C1906 1.490 . S
C1902 H1892 0.930 . S
C1902 C1901 1.400 . S
C1902 C1905 1.386 . S
H1903 C1919 0.930 . S
H1904 C1920 0.931 . S
C1905 H1893 0.929 . S
C1905 C1899 1.390 . S
C1905 C1902 1.386 . S
C1906 C1901 1.490 . S
C1906 C1908 1.395 1_565 S
C1906 C1909 1.403 . S
H1907 C1913 0.930 . S
C1908 H1894 0.930 . S
C1908 C1906 1.395 1_545 S
C1908 C1911 1.403 . S
C1909 C1906 1.403 . S
C1909 C1910 1.524 . S
C1909 C1913 1.400 1_565 S
C1910 H1895 0.960 . S
C1910 H1896 0.960 . S
C1910 H1897 0.960 . S
C1910 C1909 1.524 . S
C1911 C1908 1.403 . S
C1911 C1912 1.392 . S
C1911 C1915 1.495 . S
C1912 C1911 1.392 . S
C1912 C1913 1.385 . S
C1912 C1914 1.478 . S
C1913 H1907 0.930 . S
C1913 C1909 1.400 1_545 S
C1913 C1912 1.385 . S
C1914 C1912 1.478 . S
C1914 C1916 1.381 . S
C1914 C1920 1.383 . S
C1915 C1911 1.495 . S
C1915 H1921 0.959 . S
C1915 H1922 0.961 . S
C1915 H1923 0.960 . S
C1916 C1914 1.381 . S
C1916 C1917 1.394 . S
C1916 H1924 0.930 . S
C1917 C1916 1.394 . S
C1917 C1918 1.383 . S
C1917 H1925 0.929 . S
C1918 C1917 1.383 . S
C1918 C1919 1.377 . S
C1919 H1903 0.930 . S
C1919 C1918 1.377 . S
C1919 C1920 1.379 . S
C1920 H1904 0.931 . S
C1920 C1914 1.383 . S
C1920 C1919 1.379 . S
H1921 C1915 0.959 . S
H1922 C1915 0.961 . S
H1923 C1915 0.960 . S
H1924 C1916 0.930 . S
H1925 C1917 0.929 . S
H1926 C1934 0.929 . S
H1927 C1936 0.930 . S
H1928 C1938 0.930 . S
H1929 C1941 0.929 . S
H1930 C1944 0.930 . S
H1931 C1946 0.960 . S
H1932 C1946 0.960 . S
H1933 C1946 0.960 . S
C1934 H1926 0.929 . S
C1934 C1935 1.377 . S
C1934 C1936 1.384 . S
C1935 C1934 1.377 . S
C1935 C1941 1.390 . S
C1936 H1927 0.930 . S
C1936 C1934 1.384 . S
C1936 C1937 1.372 . S
C1937 C1936 1.372 . S
C1937 C1938 1.400 . S
C1937 C1942 1.490 . S
C1938 H1928 0.930 . S
C1938 C1937 1.400 . S
C1938 C1941 1.386 . S
H1939 C1955 0.930 . S
H1940 C1956 0.931 . S
C1941 H1929 0.929 . S
C1941 C1935 1.390 . S
C1941 C1938 1.386 . S
C1942 C1937 1.490 . S
C1942 C1944 1.395 1_455 S
C1942 C1945 1.403 . S
H1943 C1949 0.930 . S
C1944 H1930 0.930 . S
C1944 C1942 1.395 1_655 S
C1944 C1947 1.403 . S
C1945 C1942 1.403 . S
C1945 C1946 1.524 . S
C1945 C1949 1.400 1_455 S
C1946 H1931 0.960 . S
C1946 H1932 0.960 . S
C1946 H1933 0.960 . S
C1946 C1945 1.524 . S
C1947 C1944 1.403 . S
C1947 C1948 1.392 . S
C1947 C1951 1.495 . S
C1948 C1947 1.392 . S
C1948 C1949 1.385 . S
C1948 C1950 1.478 . S
C1949 H1943 0.930 . S
C1949 C1945 1.400 1_655 S
C1949 C1948 1.385 . S
C1950 C1948 1.478 . S
C1950 C1952 1.381 . S
C1950 C1956 1.383 . S
C1951 C1947 1.495 . S
C1951 H1957 0.959 . S
C1951 H1958 0.961 . S
C1951 H1959 0.960 . S
C1952 C1950 1.381 . S
C1952 C1953 1.394 . S
C1952 H1960 0.930 . S
C1953 C1952 1.394 . S
C1953 C1954 1.383 . S
C1953 H1961 0.929 . S
C1954 C1953 1.383 . S
C1954 C1955 1.377 . S
C1955 H1939 0.930 . S
C1955 C1954 1.377 . S
C1955 C1956 1.379 . S
C1956 H1940 0.931 . S
C1956 C1950 1.383 . S
C1956 C1955 1.379 . S
H1957 C1951 0.959 . S
H1958 C1951 0.961 . S
H1959 C1951 0.960 . S
H1960 C1952 0.930 . S
H1961 C1953 0.929 . S
H1962 C1970 0.929 . S
H1963 C1972 0.930 . S
H1964 C1974 0.930 . S
H1965 C1977 0.929 . S
H1966 C1980 0.930 . S
H1967 C1982 0.960 . S
H1968 C1982 0.960 . S
H1969 C1982 0.960 . S
C1970 H1962 0.929 . S
C1970 C1971 1.377 . S
C1970 C1972 1.384 . S
C1971 C1970 1.377 . S
C1971 C1977 1.390 . S
C1972 H1963 0.930 . S
C1972 C1970 1.384 . S
C1972 C1973 1.372 . S
C1973 C1972 1.372 . S
C1973 C1974 1.400 . S
C1973 C1978 1.490 . S
C1974 H1964 0.930 . S
C1974 C1973 1.400 . S
C1974 C1977 1.386 . S
H1975 C1991 0.930 . S
H1976 C1992 0.931 . S
C1977 H1965 0.929 . S
C1977 C1971 1.390 . S
C1977 C1974 1.386 . S
C1978 C1973 1.490 . S
C1978 C1980 1.395 . S
C1978 C1981 1.403 . S
H1979 C1985 0.930 . S
C1980 H1966 0.930 . S
C1980 C1978 1.395 . S
C1980 C1983 1.403 . S
C1981 C1978 1.403 . S
C1981 C1982 1.524 . S
C1981 C1985 1.400 . S
C1982 H1967 0.960 . S
C1982 H1968 0.960 . S
C1982 H1969 0.960 . S
C1982 C1981 1.524 . S
C1983 C1980 1.403 . S
C1983 C1984 1.392 . S
C1983 C1987 1.495 . S
C1984 C1983 1.392 . S
C1984 C1985 1.385 . S
C1984 C1986 1.478 . S
C1985 H1979 0.930 . S
C1985 C1981 1.400 . S
C1985 C1984 1.385 . S
C1986 C1984 1.478 . S
C1986 C1988 1.381 . S
C1986 C1992 1.383 . S
C1987 C1983 1.495 . S
C1987 H1993 0.959 . S
C1987 H1994 0.961 . S
C1987 H1995 0.960 . S
C1988 C1986 1.381 . S
C1988 C1989 1.394 . S
C1988 H1996 0.930 . S
C1989 C1988 1.394 . S
C1989 C1990 1.383 . S
C1989 H1997 0.929 . S
C1990 C1989 1.383 . S
C1990 C1991 1.377 . S
C1991 H1975 0.930 . S
C1991 C1990 1.377 . S
C1991 C1992 1.379 . S
C1992 H1976 0.931 . S
C1992 C1986 1.383 . S
C1992 C1991 1.379 . S
H1993 C1987 0.959 . S
H1994 C1987 0.961 . S
H1995 C1987 0.960 . S
H1996 C1988 0.930 . S
H1997 C1989 0.929 . S
H1998 C2006 0.929 . S
H1999 C2008 0.930 . S
H2000 C2010 0.930 . S
H2001 C2013 0.929 . S
H2002 C2016 0.930 1_455 S
H2003 C2018 0.960 1_655 S
H2004 C2018 0.960 . S
H2005 C2018 0.960 . S
C2006 H1998 0.929 . S
C2006 C2007 1.377 . S
C2006 C2008 1.384 . S
C2007 C2006 1.377 . S
C2007 C2013 1.390 . S
C2008 H1999 0.930 . S
C2008 C2006 1.384 . S
C2008 C2009 1.372 . S
C2009 C2008 1.372 . S
C2009 C2010 1.400 . S
C2009 C2014 1.490 . S
C2010 H2000 0.930 . S
C2010 C2009 1.400 . S
C2010 C2013 1.386 . S
H2011 C2027 0.930 . S
H2012 C2028 0.931 . S
C2013 H2001 0.929 . S
C2013 C2007 1.390 . S
C2013 C2010 1.386 . S
C2014 C2009 1.490 . S
C2014 C2016 1.395 1_455 S
C2014 C2017 1.403 1_455 S
H2015 C2021 0.930 . S
C2016 H2002 0.930 1_655 S
C2016 C2014 1.395 1_655 S
C2016 C2019 1.403 . S
C2017 C2014 1.403 1_655 S
C2017 C2018 1.524 1_655 S
C2017 C2021 1.400 . S
C2018 H2003 0.960 1_455 S
C2018 H2004 0.960 . S
C2018 H2005 0.960 . S
C2018 C2017 1.524 1_455 S
C2019 C2016 1.403 . S
C2019 C2020 1.392 . S
C2019 C2023 1.495 . S
C2020 C2019 1.392 . S
C2020 C2021 1.385 . S
C2020 C2022 1.478 . S
C2021 H2015 0.930 . S
C2021 C2017 1.400 . S
C2021 C2020 1.385 . S
C2022 C2020 1.478 . S
C2022 C2024 1.381 . S
C2022 C2028 1.383 . S
C2023 C2019 1.495 . S
C2023 H2029 0.959 . S
C2023 H2030 0.961 . S
C2023 H2031 0.960 . S
C2024 C2022 1.381 . S
C2024 C2025 1.394 . S
C2024 H2032 0.930 . S
C2025 C2024 1.394 . S
C2025 C2026 1.383 . S
C2025 H2033 0.929 . S
C2026 C2025 1.383 . S
C2026 C2027 1.377 . S
C2027 H2011 0.930 . S
C2027 C2026 1.377 . S
C2027 C2028 1.379 . S
C2028 H2012 0.931 . S
C2028 C2022 1.383 . S
C2028 C2027 1.379 . S
H2029 C2023 0.959 . S
H2030 C2023 0.961 . S
H2031 C2023 0.960 . S
H2032 C2024 0.930 . S
H2033 C2025 0.929 . S
H2034 C2042 0.929 . S
H2035 C2044 0.930 . S
H2036 C2046 0.930 . S
H2037 C2049 0.929 . S
H2038 C2052 0.930 . S
H2039 C2054 0.960 . S
H2040 C2054 0.960 . S
H2041 C2054 0.960 . S
C2042 H2034 0.929 . S
C2042 C2043 1.377 . S
C2042 C2044 1.384 . S
C2043 C2042 1.377 . S
C2043 C2049 1.390 . S
C2044 H2035 0.930 . S
C2044 C2042 1.384 . S
C2044 C2045 1.372 . S
C2045 C2044 1.372 . S
C2045 C2046 1.400 . S
C2045 C2050 1.490 . S
C2046 H2036 0.930 . S
C2046 C2045 1.400 . S
C2046 C2049 1.386 . S
H2047 C2063 0.930 . S
H2048 C2064 0.931 . S
C2049 H2037 0.929 . S
C2049 C2043 1.390 . S
C2049 C2046 1.386 . S
C2050 C2045 1.490 . S
C2050 C2052 1.395 . S
C2050 C2053 1.403 . S
H2051 C2057 0.930 . S
C2052 H2038 0.930 . S
C2052 C2050 1.395 . S
C2052 C2055 1.403 . S
C2053 C2050 1.403 . S
C2053 C2054 1.524 . S
C2053 C2057 1.400 . S
C2054 H2039 0.960 . S
C2054 H2040 0.960 . S
C2054 H2041 0.960 . S
C2054 C2053 1.524 . S
C2055 C2052 1.403 . S
C2055 C2056 1.392 . S
C2055 C2059 1.495 . S
C2056 C2055 1.392 . S
C2056 C2057 1.385 . S
C2056 C2058 1.478 . S
C2057 H2051 0.930 . S
C2057 C2053 1.400 . S
C2057 C2056 1.385 . S
C2058 C2056 1.478 . S
C2058 C2060 1.381 . S
C2058 C2064 1.383 . S
C2059 C2055 1.495 . S
C2059 H2065 0.959 . S
C2059 H2066 0.961 . S
C2059 H2067 0.960 . S
C2060 C2058 1.381 . S
C2060 C2061 1.394 . S
C2060 H2068 0.930 . S
C2061 C2060 1.394 . S
C2061 C2062 1.383 . S
C2061 H2069 0.929 . S
C2062 C2061 1.383 . S
C2062 C2063 1.377 . S
C2063 H2047 0.930 . S
C2063 C2062 1.377 . S
C2063 C2064 1.379 . S
C2064 H2048 0.931 . S
C2064 C2058 1.383 . S
C2064 C2063 1.379 . S
H2065 C2059 0.959 . S
H2066 C2059 0.961 . S
H2067 C2059 0.960 . S
H2068 C2060 0.930 . S
H2069 C2061 0.929 . S
H2070 C2078 0.929 . S
H2071 C2080 0.930 . S
H2072 C2082 0.930 . S
H2073 C2085 0.929 . S
H2074 C2088 0.929 1_565 S
H2075 C2090 0.960 . S
H2076 C2090 0.960 . S
H2077 C2090 0.960 . S
C2078 H2070 0.929 . S
C2078 C2079 1.377 . S
C2078 C2080 1.384 . S
C2079 C2078 1.377 . S
C2079 C2085 1.390 . S
C2080 H2071 0.930 . S
C2080 C2078 1.384 . S
C2080 C2081 1.372 . S
C2081 C2080 1.372 . S
C2081 C2082 1.400 . S
C2081 C2086 1.490 . S
C2082 H2072 0.930 . S
C2082 C2081 1.400 . S
C2082 C2085 1.386 . S
H2083 C2099 0.930 . S
H2084 C2100 0.931 . S
C2085 H2073 0.929 . S
C2085 C2079 1.390 . S
C2085 C2082 1.386 . S
C2086 C2081 1.490 . S
C2086 C2088 1.395 1_565 S
C2086 C2089 1.403 . S
H2087 C2093 0.930 . S
C2088 H2074 0.929 1_545 S
C2088 C2086 1.395 1_545 S
C2088 C2091 1.403 . S
C2089 C2086 1.403 . S
C2089 C2090 1.524 . S
C2089 C2093 1.400 1_565 S
C2090 H2075 0.960 . S
C2090 H2076 0.960 . S
C2090 H2077 0.960 . S
C2090 C2089 1.524 . S
C2091 C2088 1.403 . S
C2091 C2092 1.392 . S
C2091 C2095 1.495 . S
C2092 C2091 1.392 . S
C2092 C2093 1.385 . S
C2092 C2094 1.478 . S
C2093 H2087 0.930 . S
C2093 C2089 1.400 1_545 S
C2093 C2092 1.385 . S
C2094 C2092 1.478 . S
C2094 C2096 1.381 . S
C2094 C2100 1.383 . S
C2095 C2091 1.495 . S
C2095 H2101 0.959 . S
C2095 H2102 0.961 . S
C2095 H2103 0.960 . S
C2096 C2094 1.381 . S
C2096 C2097 1.394 . S
C2096 H2104 0.930 . S
C2097 C2096 1.394 . S
C2097 C2098 1.383 . S
C2097 H2105 0.929 . S
C2098 C2097 1.383 . S
C2098 C2099 1.377 . S
C2099 H2083 0.930 . S
C2099 C2098 1.377 . S
C2099 C2100 1.379 . S
C2100 H2084 0.931 . S
C2100 C2094 1.383 . S
C2100 C2099 1.379 . S
H2101 C2095 0.959 . S
H2102 C2095 0.961 . S
H2103 C2095 0.960 . S
H2104 C2096 0.930 . S
H2105 C2097 0.929 . S
H2106 C2114 0.929 . S
H2107 C2116 0.930 . S
H2108 C2118 0.930 . S
H2109 C2121 0.929 . S
H2110 C2124 0.930 . S
H2111 C2126 0.960 . S
H2112 C2126 0.960 . S
H2113 C2126 0.960 . S
C2114 H2106 0.929 . S
C2114 C2115 1.377 . S
C2114 C2116 1.384 . S
C2115 C2114 1.377 . S
C2115 C2121 1.390 . S
C2116 H2107 0.930 . S
C2116 C2114 1.384 . S
C2116 C2117 1.372 . S
C2117 C2116 1.372 . S
C2117 C2118 1.400 . S
C2117 C2122 1.490 . S
C2118 H2108 0.930 . S
C2118 C2117 1.400 . S
C2118 C2121 1.386 . S
H2119 C2135 0.930 . S
H2120 C2136 0.931 . S
C2121 H2109 0.929 . S
C2121 C2115 1.390 . S
C2121 C2118 1.386 . S
C2122 C2117 1.490 . S
C2122 C2124 1.395 . S
C2122 C2125 1.403 . S
H2123 C2129 0.930 . S
C2124 H2110 0.930 . S
C2124 C2122 1.395 . S
C2124 C2127 1.403 . S
C2125 C2122 1.403 . S
C2125 C2126 1.524 . S
C2125 C2129 1.400 . S
C2126 H2111 0.960 . S
C2126 H2112 0.960 . S
C2126 H2113 0.960 . S
C2126 C2125 1.524 . S
C2127 C2124 1.403 . S
C2127 C2128 1.392 . S
C2127 C2131 1.495 . S
C2128 C2127 1.392 . S
C2128 C2129 1.385 . S
C2128 C2130 1.478 . S
C2129 H2123 0.930 . S
C2129 C2125 1.400 . S
C2129 C2128 1.385 . S
C2130 C2128 1.478 . S
C2130 C2132 1.381 . S
C2130 C2136 1.383 . S
C2131 C2127 1.495 . S
C2131 H2137 0.959 . S
C2131 H2138 0.961 . S
C2131 H2139 0.960 . S
C2132 C2130 1.381 . S
C2132 C2133 1.394 . S
C2132 H2140 0.930 . S
C2133 C2132 1.394 . S
C2133 C2134 1.383 . S
C2133 H2141 0.929 . S
C2134 C2133 1.383 . S
C2134 C2135 1.377 . S
C2135 H2119 0.930 . S
C2135 C2134 1.377 . S
C2135 C2136 1.379 . S
C2136 H2120 0.931 . S
C2136 C2130 1.383 . S
C2136 C2135 1.379 . S
H2137 C2131 0.959 . S
H2138 C2131 0.961 . S
H2139 C2131 0.960 . S
H2140 C2132 0.930 . S
H2141 C2133 0.929 . S
H2142 C2150 0.929 . S
H2143 C2152 0.930 . S
H2144 C2154 0.930 . S
H2145 C2157 0.929 . S
H2146 C2160 0.930 . S
H2147 C2162 0.960 . S
H2148 C2162 0.960 . S
H2149 C2162 0.960 . S
C2150 H2142 0.929 . S
C2150 C2151 1.377 . S
C2150 C2152 1.384 . S
C2151 C2150 1.377 . S
C2151 C2157 1.390 . S
C2152 H2143 0.930 . S
C2152 C2150 1.384 . S
C2152 C2153 1.372 . S
C2153 C2152 1.372 . S
C2153 C2154 1.400 . S
C2153 C2158 1.490 . S
C2154 H2144 0.930 . S
C2154 C2153 1.400 . S
C2154 C2157 1.386 . S
H2155 C2171 0.930 . S
H2156 C2172 0.931 . S
C2157 H2145 0.929 . S
C2157 C2151 1.390 . S
C2157 C2154 1.386 . S
C2158 C2153 1.490 . S
C2158 C2160 1.395 . S
C2158 C2161 1.403 . S
H2159 C2165 0.930 . S
C2160 H2146 0.930 . S
C2160 C2158 1.395 . S
C2160 C2163 1.403 . S
C2161 C2158 1.403 . S
C2161 C2162 1.524 . S
C2161 C2165 1.400 . S
C2162 H2147 0.960 . S
C2162 H2148 0.960 . S
C2162 H2149 0.960 . S
C2162 C2161 1.524 . S
C2163 C2160 1.403 . S
C2163 C2164 1.392 . S
C2163 C2167 1.495 . S
C2164 C2163 1.392 . S
C2164 C2165 1.385 . S
C2164 C2166 1.478 . S
C2165 H2159 0.930 . S
C2165 C2161 1.400 . S
C2165 C2164 1.385 . S
C2166 C2164 1.478 . S
C2166 C2168 1.381 . S
C2166 C2172 1.383 . S
C2167 C2163 1.495 . S
C2167 H2173 0.959 . S
C2167 H2174 0.961 . S
C2167 H2175 0.960 . S
C2168 C2166 1.381 . S
C2168 C2169 1.394 . S
C2168 H2176 0.930 . S
C2169 C2168 1.394 . S
C2169 C2170 1.383 . S
C2169 H2177 0.929 . S
C2170 C2169 1.383 . S
C2170 C2171 1.377 . S
C2171 H2155 0.930 . S
C2171 C2170 1.377 . S
C2171 C2172 1.379 . S
C2172 H2156 0.931 . S
C2172 C2166 1.383 . S
C2172 C2171 1.379 . S
H2173 C2167 0.959 . S
H2174 C2167 0.961 . S
H2175 C2167 0.960 . S
H2176 C2168 0.930 . S
H2177 C2169 0.929 . S
H2178 C2186 0.929 . S
H2179 C2188 0.930 . S
H2180 C2190 0.930 . S
H2181 C2193 0.929 . S
H2182 C2196 0.930 . S
H2183 C2198 0.960 . S
H2184 C2198 0.960 . S
H2185 C2198 0.960 . S
C2186 H2178 0.929 . S
C2186 C2187 1.377 . S
C2186 C2188 1.384 . S
C2187 C2186 1.377 . S
C2187 C2193 1.390 . S
C2188 H2179 0.930 . S
C2188 C2186 1.384 . S
C2188 C2189 1.372 . S
C2189 C2188 1.372 . S
C2189 C2190 1.400 . S
C2189 C2194 1.490 . S
C2190 H2180 0.930 . S
C2190 C2189 1.400 . S
C2190 C2193 1.386 . S
H2191 C2207 0.930 . S
H2192 C2208 0.931 . S
C2193 H2181 0.929 . S
C2193 C2187 1.390 . S
C2193 C2190 1.386 . S
C2194 C2189 1.490 . S
C2194 C2196 1.395 . S
C2194 C2197 1.403 . S
H2195 C2201 0.930 . S
C2196 H2182 0.930 . S
C2196 C2194 1.395 . S
C2196 C2199 1.403 . S
C2197 C2194 1.403 . S
C2197 C2198 1.524 . S
C2197 C2201 1.400 . S
C2198 H2183 0.960 . S
C2198 H2184 0.960 . S
C2198 H2185 0.960 . S
C2198 C2197 1.524 . S
C2199 C2196 1.403 . S
C2199 C2200 1.392 . S
C2199 C2203 1.495 . S
C2200 C2199 1.392 . S
C2200 C2201 1.385 . S
C2200 C2202 1.478 . S
C2201 H2195 0.930 . S
C2201 C2197 1.400 . S
C2201 C2200 1.385 . S
C2202 C2200 1.478 . S
C2202 C2204 1.381 . S
C2202 C2208 1.383 . S
C2203 C2199 1.495 . S
C2203 H2209 0.959 . S
C2203 H2210 0.961 . S
C2203 H2211 0.960 . S
C2204 C2202 1.381 . S
C2204 C2205 1.394 . S
C2204 H2212 0.930 . S
C2205 C2204 1.394 . S
C2205 C2206 1.383 . S
C2205 H2213 0.929 . S
C2206 C2205 1.383 . S
C2206 C2207 1.377 . S
C2207 H2191 0.930 . S
C2207 C2206 1.377 . S
C2207 C2208 1.379 . S
C2208 H2192 0.931 . S
C2208 C2202 1.383 . S
C2208 C2207 1.379 . S
H2209 C2203 0.959 . S
H2210 C2203 0.961 . S
H2211 C2203 0.960 . S
H2212 C2204 0.930 . S
H2213 C2205 0.929 . S
H2214 C2222 0.929 . S
H2215 C2224 0.930 . S
H2216 C2226 0.930 . S
H2217 C2229 0.929 . S
H2218 C2232 0.930 . S
H2219 C2234 0.960 . S
H2220 C2234 0.960 . S
H2221 C2234 0.960 . S
C2222 H2214 0.929 . S
C2222 C2223 1.377 . S
C2222 C2224 1.384 . S
C2223 C2222 1.377 . S
C2223 C2229 1.390 . S
C2224 H2215 0.930 . S
C2224 C2222 1.384 . S
C2224 C2225 1.372 . S
C2225 C2224 1.372 . S
C2225 C2226 1.400 . S
C2225 C2230 1.490 . S
C2226 H2216 0.930 . S
C2226 C2225 1.400 . S
C2226 C2229 1.386 . S
H2227 C2243 0.930 . S
H2228 C2244 0.931 . S
C2229 H2217 0.929 . S
C2229 C2223 1.390 . S
C2229 C2226 1.386 . S
C2230 C2225 1.490 . S
C2230 C2232 1.395 . S
C2230 C2233 1.403 . S
H2231 C2237 0.930 . S
C2232 H2218 0.930 . S
C2232 C2230 1.395 . S
C2232 C2235 1.403 . S
C2233 C2230 1.403 . S
C2233 C2234 1.524 . S
C2233 C2237 1.400 . S
C2234 H2219 0.960 . S
C2234 H2220 0.960 . S
C2234 H2221 0.960 . S
C2234 C2233 1.524 . S
C2235 C2232 1.403 . S
C2235 C2236 1.392 . S
C2235 C2239 1.495 . S
C2236 C2235 1.392 . S
C2236 C2237 1.385 . S
C2236 C2238 1.478 . S
C2237 H2231 0.930 . S
C2237 C2233 1.400 . S
C2237 C2236 1.385 . S
C2238 C2236 1.478 . S
C2238 C2240 1.381 . S
C2238 C2244 1.383 . S
C2239 C2235 1.495 . S
C2239 H2245 0.959 . S
C2239 H2246 0.961 . S
C2239 H2247 0.960 . S
C2240 C2238 1.381 . S
C2240 C2241 1.394 . S
C2240 H2248 0.930 . S
C2241 C2240 1.394 . S
C2241 C2242 1.383 . S
C2241 H2249 0.929 1_565 S
C2242 C2241 1.383 . S
C2242 C2243 1.377 . S
C2243 H2227 0.930 . S
C2243 C2242 1.377 . S
C2243 C2244 1.379 . S
C2244 H2228 0.931 . S
C2244 C2238 1.383 . S
C2244 C2243 1.379 . S
H2245 C2239 0.959 . S
H2246 C2239 0.961 . S
H2247 C2239 0.960 . S
H2248 C2240 0.930 . S
H2249 C2241 0.929 1_545 S
H2250 C2258 0.929 . S
H2251 C2260 0.930 . S
H2252 C2262 0.930 . S
H2253 C2265 0.929 . S
H2254 C2268 0.930 . S
H2255 C2270 0.960 . S
H2256 C2270 0.960 . S
H2257 C2270 0.960 . S
C2258 H2250 0.929 . S
C2258 C2259 1.377 . S
C2258 C2260 1.384 . S
C2259 C2258 1.377 . S
C2259 C2265 1.390 . S
C2260 H2251 0.930 . S
C2260 C2258 1.384 . S
C2260 C2261 1.372 . S
C2261 C2260 1.372 . S
C2261 C2262 1.400 . S
C2261 C2266 1.490 . S
C2262 H2252 0.930 . S
C2262 C2261 1.400 . S
C2262 C2265 1.386 . S
H2263 C2279 0.930 1_655 S
H2264 C2280 0.931 . S
C2265 H2253 0.929 . S
C2265 C2259 1.390 . S
C2265 C2262 1.386 . S
C2266 C2261 1.490 . S
C2266 C2268 1.395 . S
C2266 C2269 1.403 . S
H2267 C2273 0.930 . S
C2268 H2254 0.930 . S
C2268 C2266 1.395 . S
C2268 C2271 1.403 . S
C2269 C2266 1.403 . S
C2269 C2270 1.524 . S
C2269 C2273 1.400 . S
C2270 H2255 0.960 . S
C2270 H2256 0.960 . S
C2270 H2257 0.960 . S
C2270 C2269 1.524 . S
C2271 C2268 1.403 . S
C2271 C2272 1.392 . S
C2271 C2275 1.495 . S
C2272 C2271 1.392 . S
C2272 C2273 1.385 . S
C2272 C2274 1.478 . S
C2273 H2267 0.930 . S
C2273 C2269 1.400 . S
C2273 C2272 1.385 . S
C2274 C2272 1.478 . S
C2274 C2276 1.381 . S
C2274 C2280 1.383 . S
C2275 C2271 1.495 . S
C2275 H2281 0.959 . S
C2275 H2282 0.961 . S
C2275 H2283 0.960 . S
C2276 C2274 1.381 . S
C2276 C2277 1.394 . S
C2276 H2284 0.930 . S
C2277 C2276 1.394 . S
C2277 C2278 1.383 . S
C2277 H2285 0.929 . S
C2278 C2277 1.383 . S
C2278 C2279 1.377 . S
C2279 H2263 0.930 1_455 S
C2279 C2278 1.377 . S
C2279 C2280 1.379 . S
C2280 H2264 0.931 . S
C2280 C2274 1.383 . S
C2280 C2279 1.379 . S
H2281 C2275 0.959 . S
H2282 C2275 0.961 . S
H2283 C2275 0.960 . S
H2284 C2276 0.930 . S
H2285 C2277 0.929 . S
H2286 C2294 0.929 . S
H2287 C2296 0.930 . S
H2288 C2298 0.930 . S
H2289 C2301 0.929 . S
H2290 C2304 0.930 . S
H2291 C2306 0.960 . S
H2292 C2306 0.960 . S
H2293 C2306 0.960 . S
C2294 H2286 0.929 . S
C2294 C2295 1.377 . S
C2294 C2296 1.384 . S
C2295 C2294 1.377 . S
C2295 C2301 1.390 . S
C2296 H2287 0.930 . S
C2296 C2294 1.384 . S
C2296 C2297 1.372 . S
C2297 C2296 1.372 . S
C2297 C2298 1.400 . S
C2297 C2302 1.490 . S
C2298 H2288 0.930 . S
C2298 C2297 1.400 . S
C2298 C2301 1.386 . S
H2299 C2315 0.930 . S
H2300 C2316 0.931 . S
C2301 H2289 0.929 . S
C2301 C2295 1.390 . S
C2301 C2298 1.386 . S
C2302 C2297 1.490 . S
C2302 C2304 1.395 . S
C2302 C2305 1.403 . S
H2303 C2309 0.930 . S
C2304 H2290 0.930 . S
C2304 C2302 1.395 . S
C2304 C2307 1.403 . S
C2305 C2302 1.403 . S
C2305 C2306 1.524 . S
C2305 C2309 1.400 . S
C2306 H2291 0.960 . S
C2306 H2292 0.960 . S
C2306 H2293 0.960 . S
C2306 C2305 1.524 . S
C2307 C2304 1.403 . S
C2307 C2308 1.392 . S
C2307 C2311 1.495 . S
C2308 C2307 1.392 . S
C2308 C2309 1.385 . S
C2308 C2310 1.478 . S
C2309 H2303 0.930 . S
C2309 C2305 1.400 . S
C2309 C2308 1.385 . S
C2310 C2308 1.478 . S
C2310 C2312 1.381 . S
C2310 C2316 1.383 . S
C2311 C2307 1.495 . S
C2311 H2317 0.959 . S
C2311 H2318 0.961 . S
C2311 H2319 0.960 . S
C2312 C2310 1.381 . S
C2312 C2313 1.394 . S
C2312 H2320 0.930 . S
C2313 C2312 1.394 . S
C2313 C2314 1.383 . S
C2313 H2321 0.929 . S
C2314 C2313 1.383 . S
C2314 C2315 1.377 . S
C2315 H2299 0.930 . S
C2315 C2314 1.377 . S
C2315 C2316 1.379 . S
C2316 H2300 0.931 . S
C2316 C2310 1.383 . S
C2316 C2315 1.379 . S
H2317 C2311 0.959 . S
H2318 C2311 0.961 . S
H2319 C2311 0.960 . S
H2320 C2312 0.930 . S
H2321 C2313 0.929 . S
H2322 C2330 0.929 . S
H2323 C2332 0.930 . S
H2324 C2334 0.930 . S
H2325 C2337 0.929 . S
H2326 C2340 0.930 . S
H2327 C2342 0.960 . S
H2328 C2342 0.960 . S
H2329 C2342 0.960 . S
C2330 H2322 0.929 . S
C2330 C2331 1.377 . S
C2330 C2332 1.384 . S
C2331 C2330 1.377 . S
C2331 C2337 1.390 . S
C2332 H2323 0.930 . S
C2332 C2330 1.384 . S
C2332 C2333 1.372 . S
C2333 C2332 1.372 . S
C2333 C2334 1.400 . S
C2333 C2338 1.490 . S
C2334 H2324 0.930 . S
C2334 C2333 1.400 . S
C2334 C2337 1.386 . S
H2335 C2351 0.930 . S
H2336 C2352 0.931 . S
C2337 H2325 0.929 . S
C2337 C2331 1.390 . S
C2337 C2334 1.386 . S
C2338 C2333 1.490 . S
C2338 C2340 1.395 . S
C2338 C2341 1.403 . S
H2339 C2345 0.930 . S
C2340 H2326 0.930 . S
C2340 C2338 1.395 . S
C2340 C2343 1.403 . S
C2341 C2338 1.403 . S
C2341 C2342 1.524 . S
C2341 C2345 1.400 . S
C2342 H2327 0.960 . S
C2342 H2328 0.960 . S
C2342 H2329 0.960 . S
C2342 C2341 1.524 . S
C2343 C2340 1.403 . S
C2343 C2344 1.392 . S
C2343 C2347 1.501 . S
C2344 C2343 1.392 . S
C2344 C2345 1.385 . S
C2344 C2346 1.478 . S
C2345 H2339 0.930 . S
C2345 C2341 1.400 . S
C2345 C2344 1.385 . S
C2346 C2344 1.478 . S
C2346 C2348 1.381 . S
C2346 C2352 1.383 . S
C2347 C2343 1.501 . S
C2347 H2353 0.956 1_655 S
C2347 H2354 0.960 1_655 S
C2347 H2355 0.958 . S
C2348 C2346 1.381 . S
C2348 C2349 1.394 . S
C2348 H2356 0.930 . S
C2349 C2348 1.394 . S
C2349 C2350 1.383 . S
C2349 H2357 0.929 . S
C2350 C2349 1.383 . S
C2350 C2351 1.377 . S
C2351 H2335 0.930 . S
C2351 C2350 1.377 . S
C2351 C2352 1.379 . S
C2352 H2336 0.931 . S
C2352 C2346 1.383 . S
C2352 C2351 1.379 . S
H2353 C2347 0.956 1_455 S
H2354 C2347 0.960 1_455 S
H2355 C2347 0.958 . S
H2356 C2348 0.930 . S
H2357 C2349 0.929 . S
H2358 C2366 0.929 . S
H2359 C2368 0.930 . S
H2360 C2370 0.930 . S
H2361 C2373 0.929 . S
H2362 C2376 0.930 . S
H2363 C2378 0.960 . S
H2364 C2378 0.960 . S
H2365 C2378 0.960 . S
C2366 H2358 0.929 . S
C2366 C2367 1.377 . S
C2366 C2368 1.384 . S
C2367 C2366 1.377 . S
C2367 C2373 1.390 . S
C2368 H2359 0.930 . S
C2368 C2366 1.384 . S
C2368 C2369 1.372 . S
C2369 C2368 1.372 . S
C2369 C2370 1.400 . S
C2369 C2374 1.490 . S
C2370 H2360 0.930 . S
C2370 C2369 1.400 . S
C2370 C2373 1.386 . S
H2371 C2387 0.930 . S
H2372 C2388 0.931 . S
C2373 H2361 0.929 . S
C2373 C2367 1.390 . S
C2373 C2370 1.386 . S
C2374 C2369 1.490 . S
C2374 C2376 1.395 . S
C2374 C2377 1.403 . S
H2375 C2381 0.930 . S
C2376 H2362 0.930 . S
C2376 C2374 1.395 . S
C2376 C2379 1.403 . S
C2377 C2374 1.403 . S
C2377 C2378 1.524 . S
C2377 C2381 1.400 . S
C2378 H2363 0.960 . S
C2378 H2364 0.960 . S
C2378 H2365 0.960 . S
C2378 C2377 1.524 . S
C2379 C2376 1.403 . S
C2379 C2380 1.392 . S
C2379 C2383 1.495 . S
C2380 C2379 1.392 . S
C2380 C2381 1.385 . S
C2380 C2382 1.478 . S
C2381 H2375 0.930 . S
C2381 C2377 1.400 . S
C2381 C2380 1.385 . S
C2382 C2380 1.478 . S
C2382 C2384 1.381 . S
C2382 C2388 1.383 . S
C2383 C2379 1.495 . S
C2383 H2389 0.959 . S
C2383 H2390 0.961 . S
C2383 H2391 0.960 . S
C2384 C2382 1.381 . S
C2384 C2385 1.394 . S
C2384 H2392 0.930 . S
C2385 C2384 1.394 . S
C2385 C2386 1.383 . S
C2385 H2393 0.929 . S
C2386 C2385 1.383 . S
C2386 C2387 1.377 . S
C2387 H2371 0.930 . S
C2387 C2386 1.377 . S
C2387 C2388 1.379 . S
C2388 H2372 0.931 . S
C2388 C2382 1.383 . S
C2388 C2387 1.379 . S
H2389 C2383 0.959 . S
H2390 C2383 0.961 . S
H2391 C2383 0.960 . S
H2392 C2384 0.930 . S
H2393 C2385 0.929 . S
H2394 C2402 0.929 . S
H2395 C2404 0.930 . S
H2396 C2406 0.930 . S
H2397 C2409 0.929 . S
H2398 C2412 0.930 . S
H2399 C2414 0.960 . S
H2400 C2414 0.960 . S
H2401 C2414 0.960 . S
C2402 H2394 0.929 . S
C2402 C2403 1.377 . S
C2402 C2404 1.384 . S
C2403 C2402 1.377 . S
C2403 C2409 1.390 . S
C2404 H2395 0.930 . S
C2404 C2402 1.384 . S
C2404 C2405 1.372 . S
C2405 C2404 1.372 . S
C2405 C2406 1.400 . S
C2405 C2410 1.490 . S
C2406 H2396 0.930 . S
C2406 C2405 1.400 . S
C2406 C2409 1.386 . S
H2407 C2423 0.930 . S
H2408 C2424 0.931 . S
C2409 H2397 0.929 . S
C2409 C2403 1.390 . S
C2409 C2406 1.386 . S
C2410 C2405 1.490 . S
C2410 C2412 1.395 . S
C2410 C2413 1.403 . S
H2411 C2417 0.930 . S
C2412 H2398 0.930 . S
C2412 C2410 1.395 . S
C2412 C2415 1.403 . S
C2413 C2410 1.403 . S
C2413 C2414 1.524 . S
C2413 C2417 1.400 . S
C2414 H2399 0.960 . S
C2414 H2400 0.960 . S
C2414 H2401 0.960 . S
C2414 C2413 1.524 . S
C2415 C2412 1.403 . S
C2415 C2416 1.392 . S
C2415 C2419 1.495 . S
C2416 C2415 1.392 . S
C2416 C2417 1.385 . S
C2416 C2418 1.478 . S
C2417 H2411 0.930 . S
C2417 C2413 1.400 . S
C2417 C2416 1.385 . S
C2418 C2416 1.478 . S
C2418 C2420 1.381 . S
C2418 C2424 1.383 . S
C2419 C2415 1.495 . S
C2419 H2425 0.959 . S
C2419 H2426 0.961 . S
C2419 H2427 0.960 . S
C2420 C2418 1.381 . S
C2420 C2421 1.394 . S
C2420 H2428 0.930 . S
C2421 C2420 1.394 . S
C2421 C2422 1.383 . S
C2421 H2429 0.929 . S
C2422 C2421 1.383 . S
C2422 C2423 1.377 . S
C2423 H2407 0.930 . S
C2423 C2422 1.377 . S
C2423 C2424 1.379 . S
C2424 H2408 0.931 . S
C2424 C2418 1.383 . S
C2424 C2423 1.379 . S
H2425 C2419 0.959 . S
H2426 C2419 0.961 . S
H2427 C2419 0.960 . S
H2428 C2420 0.930 . S
H2429 C2421 0.929 . S
H2430 C2438 0.929 . S
H2431 C2440 0.930 . S
H2432 C2442 0.930 . S
H2433 C2445 0.929 . S
H2434 C2448 0.930 . S
H2435 C2450 0.960 . S
H2436 C2450 0.960 . S
H2437 C2450 0.960 . S
C2438 H2430 0.929 . S
C2438 C2439 1.377 . S
C2438 C2440 1.384 . S
C2439 C2438 1.377 . S
C2439 C2445 1.390 . S
C2440 H2431 0.930 . S
C2440 C2438 1.384 . S
C2440 C2441 1.372 . S
C2441 C2440 1.372 . S
C2441 C2442 1.400 . S
C2441 C2446 1.490 . S
C2442 H2432 0.930 . S
C2442 C2441 1.400 . S
C2442 C2445 1.386 . S
H2443 C2459 0.930 . S
H2444 C2460 0.931 . S
C2445 H2433 0.929 . S
C2445 C2439 1.390 . S
C2445 C2442 1.386 . S
C2446 C2441 1.490 . S
C2446 C2448 1.395 . S
C2446 C2449 1.403 . S
H2447 C2453 0.930 . S
C2448 H2434 0.930 . S
C2448 C2446 1.395 . S
C2448 C2451 1.403 . S
C2449 C2446 1.403 . S
C2449 C2450 1.524 . S
C2449 C2453 1.400 . S
C2450 H2435 0.960 . S
C2450 H2436 0.960 . S
C2450 H2437 0.960 . S
C2450 C2449 1.524 . S
C2451 C2448 1.403 . S
C2451 C2452 1.392 . S
C2451 C2455 1.495 . S
C2452 C2451 1.392 . S
C2452 C2453 1.385 . S
C2452 C2454 1.478 . S
C2453 H2447 0.930 . S
C2453 C2449 1.400 . S
C2453 C2452 1.385 . S
C2454 C2452 1.478 . S
C2454 C2456 1.381 . S
C2454 C2460 1.383 . S
C2455 C2451 1.495 . S
C2455 H2461 0.959 . S
C2455 H2462 0.961 . S
C2455 H2463 0.960 . S
C2456 C2454 1.381 . S
C2456 C2457 1.394 . S
C2456 H2464 0.930 . S
C2457 C2456 1.394 . S
C2457 C2458 1.383 . S
C2457 H2465 0.929 . S
C2458 C2457 1.383 . S
C2458 C2459 1.377 . S
C2459 H2443 0.930 . S
C2459 C2458 1.377 . S
C2459 C2460 1.379 . S
C2460 H2444 0.931 . S
C2460 C2454 1.383 . S
C2460 C2459 1.379 . S
H2461 C2455 0.959 . S
H2462 C2455 0.961 . S
H2463 C2455 0.960 . S
H2464 C2456 0.930 . S
H2465 C2457 0.929 . S
H2466 C2474 0.929 . S
H2467 C2476 0.930 . S
H2468 C2478 0.930 . S
H2469 C2481 0.929 . S
H2470 C2484 0.930 . S
H2471 C2486 0.960 . S
H2472 C2486 0.960 . S
H2473 C2486 0.960 . S
C2474 H2466 0.929 . S
C2474 C2475 1.377 . S
C2474 C2476 1.384 . S
C2475 C2474 1.377 . S
C2475 C2481 1.390 . S
C2476 H2467 0.930 . S
C2476 C2474 1.384 . S
C2476 C2477 1.372 . S
C2477 C2476 1.372 . S
C2477 C2478 1.400 . S
C2477 C2482 1.490 . S
C2478 H2468 0.930 . S
C2478 C2477 1.400 . S
C2478 C2481 1.386 . S
H2479 C2495 0.930 . S
H2480 C2496 0.931 . S
C2481 H2469 0.929 . S
C2481 C2475 1.390 . S
C2481 C2478 1.386 . S
C2482 C2477 1.490 . S
C2482 C2484 1.395 . S
C2482 C2485 1.403 . S
H2483 C2489 0.930 . S
C2484 H2470 0.930 . S
C2484 C2482 1.395 . S
C2484 C2487 1.403 . S
C2485 C2482 1.403 . S
C2485 C2486 1.524 . S
C2485 C2489 1.400 . S
C2486 H2471 0.960 . S
C2486 H2472 0.960 . S
C2486 H2473 0.960 . S
C2486 C2485 1.524 . S
C2487 C2484 1.403 . S
C2487 C2488 1.392 . S
C2487 C2491 1.495 . S
C2488 C2487 1.392 . S
C2488 C2489 1.385 . S
C2488 C2490 1.478 . S
C2489 H2483 0.930 . S
C2489 C2485 1.400 . S
C2489 C2488 1.385 . S
C2490 C2488 1.478 . S
C2490 C2492 1.381 . S
C2490 C2496 1.383 . S
C2491 C2487 1.495 . S
C2491 H2497 0.959 . S
C2491 H2498 0.961 . S
C2491 H2499 0.960 . S
C2492 C2490 1.381 . S
C2492 C2493 1.394 . S
C2492 H2500 0.930 . S
C2493 C2492 1.394 . S
C2493 C2494 1.383 . S
C2493 H2501 0.929 . S
C2494 C2493 1.383 . S
C2494 C2495 1.377 . S
C2495 H2479 0.930 . S
C2495 C2494 1.377 . S
C2495 C2496 1.379 . S
C2496 H2480 0.931 . S
C2496 C2490 1.383 . S
C2496 C2495 1.379 . S
H2497 C2491 0.959 . S
H2498 C2491 0.961 . S
H2499 C2491 0.960 . S
H2500 C2492 0.930 . S
H2501 C2493 0.929 . S
H2502 C2510 0.929 . S
H2503 C2512 0.930 . S
H2504 C2514 0.930 . S
H2505 C2517 0.929 . S
H2506 C2520 0.930 . S
H2507 C2522 0.960 . S
H2508 C2522 0.960 . S
H2509 C2522 0.960 . S
C2510 H2502 0.929 . S
C2510 C2511 1.377 . S
C2510 C2512 1.384 . S
C2511 C2510 1.377 . S
C2511 C2517 1.390 . S
C2512 H2503 0.930 . S
C2512 C2510 1.384 . S
C2512 C2513 1.372 . S
C2513 C2512 1.372 . S
C2513 C2514 1.400 . S
C2513 C2518 1.490 . S
C2514 H2504 0.930 . S
C2514 C2513 1.400 . S
C2514 C2517 1.386 . S
H2515 C2531 0.930 . S
H2516 C2532 0.931 . S
C2517 H2505 0.929 . S
C2517 C2511 1.390 . S
C2517 C2514 1.386 . S
C2518 C2513 1.490 . S
C2518 C2520 1.395 . S
C2518 C2521 1.403 . S
H2519 C2525 0.930 . S
C2520 H2506 0.930 . S
C2520 C2518 1.395 . S
C2520 C2523 1.403 . S
C2521 C2518 1.403 . S
C2521 C2522 1.524 . S
C2521 C2525 1.400 . S
C2522 H2507 0.960 . S
C2522 H2508 0.960 . S
C2522 H2509 0.960 . S
C2522 C2521 1.524 . S
C2523 C2520 1.403 . S
C2523 C2524 1.392 . S
C2523 C2527 1.495 . S
C2524 C2523 1.392 . S
C2524 C2525 1.385 . S
C2524 C2526 1.478 . S
C2525 H2519 0.930 . S
C2525 C2521 1.400 . S
C2525 C2524 1.385 . S
C2526 C2524 1.478 . S
C2526 C2528 1.381 . S
C2526 C2532 1.383 . S
C2527 C2523 1.495 . S
C2527 H2533 0.959 . S
C2527 H2534 0.961 . S
C2527 H2535 0.960 . S
C2528 C2526 1.381 . S
C2528 C2529 1.394 . S
C2528 H2536 0.930 . S
C2529 C2528 1.394 . S
C2529 C2530 1.383 . S
C2529 H2537 0.929 . S
C2530 C2529 1.383 . S
C2530 C2531 1.377 . S
C2531 H2515 0.930 . S
C2531 C2530 1.377 . S
C2531 C2532 1.379 . S
C2532 H2516 0.931 . S
C2532 C2526 1.383 . S
C2532 C2531 1.379 . S
H2533 C2527 0.959 . S
H2534 C2527 0.961 . S
H2535 C2527 0.960 . S
H2536 C2528 0.930 . S
H2537 C2529 0.929 . S
H2538 C2546 0.929 . S
H2539 C2548 0.930 . S
H2540 C2550 0.930 . S
H2541 C2553 0.929 . S
H2542 C2556 0.930 . S
H2543 C2558 0.960 . S
H2544 C2558 0.960 . S
H2545 C2558 0.960 . S
C2546 H2538 0.929 . S
C2546 C2547 1.377 . S
C2546 C2548 1.384 . S
C2547 C2546 1.377 . S
C2547 C2553 1.390 . S
C2548 H2539 0.930 . S
C2548 C2546 1.384 . S
C2548 C2549 1.372 . S
C2549 C2548 1.372 . S
C2549 C2550 1.400 . S
C2549 C2554 1.490 . S
C2550 H2540 0.930 . S
C2550 C2549 1.400 . S
C2550 C2553 1.386 . S
H2551 C2567 0.930 . S
H2552 C2568 0.931 . S
C2553 H2541 0.929 . S
C2553 C2547 1.390 . S
C2553 C2550 1.386 . S
C2554 C2549 1.490 . S
C2554 C2556 1.395 . S
C2554 C2557 1.403 . S
H2555 C2561 0.930 . S
C2556 H2542 0.930 . S
C2556 C2554 1.395 . S
C2556 C2559 1.403 . S
C2557 C2554 1.403 . S
C2557 C2558 1.524 . S
C2557 C2561 1.400 . S
C2558 H2543 0.960 . S
C2558 H2544 0.960 . S
C2558 H2545 0.960 . S
C2558 C2557 1.524 . S
C2559 C2556 1.403 . S
C2559 C2560 1.392 . S
C2559 C2563 1.495 . S
C2560 C2559 1.392 . S
C2560 C2561 1.385 . S
C2560 C2562 1.478 . S
C2561 H2555 0.930 . S
C2561 C2557 1.400 . S
C2561 C2560 1.385 . S
C2562 C2560 1.478 . S
C2562 C2564 1.381 . S
C2562 C2568 1.383 . S
C2563 C2559 1.495 . S
C2563 H2569 0.959 . S
C2563 H2570 0.961 . S
C2563 H2571 0.960 . S
C2564 C2562 1.381 . S
C2564 C2565 1.394 . S
C2564 H2572 0.930 . S
C2565 C2564 1.394 . S
C2565 C2566 1.383 . S
C2565 H2573 0.929 . S
C2566 C2565 1.383 . S
C2566 C2567 1.377 . S
C2567 H2551 0.930 . S
C2567 C2566 1.377 . S
C2567 C2568 1.379 . S
C2568 H2552 0.931 . S
C2568 C2562 1.383 . S
C2568 C2567 1.379 . S
H2569 C2563 0.959 . S
H2570 C2563 0.961 . S
H2571 C2563 0.960 . S
H2572 C2564 0.930 . S
H2573 C2565 0.929 . S
H2574 C2582 0.929 . S
H2575 C2584 0.930 . S
H2576 C2586 0.930 . S
H2577 C2589 0.929 . S
H2578 C2592 0.930 . S
H2579 C2594 0.960 . S
H2580 C2594 0.960 . S
H2581 C2594 0.960 . S
C2582 H2574 0.929 . S
C2582 C2583 1.377 . S
C2582 C2584 1.384 . S
C2583 C2582 1.377 . S
C2583 C2589 1.390 . S
C2584 H2575 0.930 . S
C2584 C2582 1.384 . S
C2584 C2585 1.372 . S
C2585 C2584 1.372 . S
C2585 C2586 1.400 . S
C2585 C2590 1.490 . S
C2586 H2576 0.930 . S
C2586 C2585 1.400 . S
C2586 C2589 1.386 . S
H2587 C2603 0.930 . S
H2588 C2604 0.931 . S
C2589 H2577 0.929 . S
C2589 C2583 1.390 . S
C2589 C2586 1.386 . S
C2590 C2585 1.490 . S
C2590 C2592 1.395 . S
C2590 C2593 1.403 . S
H2591 C2597 0.930 . S
C2592 H2578 0.930 . S
C2592 C2590 1.395 . S
C2592 C2595 1.403 . S
C2593 C2590 1.403 . S
C2593 C2594 1.524 . S
C2593 C2597 1.400 . S
C2594 H2579 0.960 . S
C2594 H2580 0.960 . S
C2594 H2581 0.960 . S
C2594 C2593 1.524 . S
C2595 C2592 1.403 . S
C2595 C2596 1.392 . S
C2595 C2599 1.495 . S
C2596 C2595 1.392 . S
C2596 C2597 1.385 . S
C2596 C2598 1.478 . S
C2597 H2591 0.930 . S
C2597 C2593 1.400 . S
C2597 C2596 1.385 . S
C2598 C2596 1.478 . S
C2598 C2600 1.381 . S
C2598 C2604 1.383 . S
C2599 C2595 1.495 . S
C2599 H2605 0.959 . S
C2599 H2606 0.961 . S
C2599 H2607 0.960 . S
C2600 C2598 1.381 . S
C2600 C2601 1.394 . S
C2600 H2608 0.930 . S
C2601 C2600 1.394 . S
C2601 C2602 1.383 . S
C2601 H2609 0.929 . S
C2602 C2601 1.383 . S
C2602 C2603 1.377 . S
C2603 H2587 0.930 . S
C2603 C2602 1.377 . S
C2603 C2604 1.379 . S
C2604 H2588 0.931 . S
C2604 C2598 1.383 . S
C2604 C2603 1.379 . S
H2605 C2599 0.959 . S
H2606 C2599 0.961 . S
H2607 C2599 0.960 . S
H2608 C2600 0.930 . S
H2609 C2601 0.929 . S
H2610 C2618 0.929 . S
H2611 C2620 0.930 . S
H2612 C2622 0.930 . S
H2613 C2625 0.929 . S
H2614 C2628 0.930 . S
H2615 C2630 0.960 . S
H2616 C2630 0.960 . S
H2617 C2630 0.960 . S
C2618 H2610 0.929 . S
C2618 C2619 1.377 . S
C2618 C2620 1.384 . S
C2619 C2618 1.377 . S
C2619 C2625 1.390 . S
C2620 H2611 0.930 . S
C2620 C2618 1.384 . S
C2620 C2621 1.372 . S
C2621 C2620 1.372 . S
C2621 C2622 1.400 . S
C2621 C2626 1.490 . S
C2622 H2612 0.930 . S
C2622 C2621 1.400 . S
C2622 C2625 1.386 . S
H2623 C2639 0.930 . S
H2624 C2640 0.931 . S
C2625 H2613 0.929 . S
C2625 C2619 1.390 . S
C2625 C2622 1.386 . S
C2626 C2621 1.490 . S
C2626 C2628 1.395 . S
C2626 C2629 1.403 . S
H2627 C2633 0.930 . S
C2628 H2614 0.930 . S
C2628 C2626 1.395 . S
C2628 C2631 1.403 . S
C2629 C2626 1.403 . S
C2629 C2630 1.524 . S
C2629 C2633 1.400 . S
C2630 H2615 0.960 . S
C2630 H2616 0.960 . S
C2630 H2617 0.960 . S
C2630 C2629 1.524 . S
C2631 C2628 1.403 . S
C2631 C2632 1.392 . S
C2631 C2635 1.495 . S
C2632 C2631 1.392 . S
C2632 C2633 1.385 . S
C2632 C2634 1.478 . S
C2633 H2627 0.930 . S
C2633 C2629 1.400 . S
C2633 C2632 1.385 . S
C2634 C2632 1.478 . S
C2634 C2636 1.381 . S
C2634 C2640 1.383 . S
C2635 C2631 1.495 . S
C2635 H2641 0.959 . S
C2635 H2642 0.961 . S
C2635 H2643 0.960 . S
C2636 C2634 1.381 . S
C2636 C2637 1.394 . S
C2636 H2644 0.930 . S
C2637 C2636 1.394 . S
C2637 C2638 1.383 . S
C2637 H2645 0.929 . S
C2638 C2637 1.383 . S
C2638 C2639 1.377 . S
C2639 H2623 0.930 . S
C2639 C2638 1.377 . S
C2639 C2640 1.379 . S
C2640 H2624 0.931 . S
C2640 C2634 1.383 . S
C2640 C2639 1.379 . S
H2641 C2635 0.959 . S
H2642 C2635 0.961 . S
H2643 C2635 0.960 . S
H2644 C2636 0.930 . S
H2645 C2637 0.929 . S
H2646 C2654 0.929 . S
H2647 C2656 0.930 . S
H2648 C2658 0.930 . S
H2649 C2661 0.929 . S
H2650 C2664 0.930 . S
H2651 C2666 0.960 . S
H2652 C2666 0.960 . S
H2653 C2666 0.960 . S
C2654 H2646 0.929 . S
C2654 C2655 1.377 . S
C2654 C2656 1.384 . S
C2655 C2654 1.377 . S
C2655 C2661 1.390 . S
C2656 H2647 0.930 . S
C2656 C2654 1.384 . S
C2656 C2657 1.372 . S
C2657 C2656 1.372 . S
C2657 C2658 1.400 . S
C2657 C2662 1.490 . S
C2658 H2648 0.930 . S
C2658 C2657 1.400 . S
C2658 C2661 1.386 . S
H2659 C2675 0.930 . S
H2660 C2676 0.931 . S
C2661 H2649 0.929 . S
C2661 C2655 1.390 . S
C2661 C2658 1.386 . S
C2662 C2657 1.490 . S
C2662 C2664 1.395 . S
C2662 C2665 1.403 . S
H2663 C2669 0.930 . S
C2664 H2650 0.930 . S
C2664 C2662 1.395 . S
C2664 C2667 1.403 . S
C2665 C2662 1.403 . S
C2665 C2666 1.524 . S
C2665 C2669 1.400 . S
C2666 H2651 0.960 . S
C2666 H2652 0.960 . S
C2666 H2653 0.960 . S
C2666 C2665 1.524 . S
C2667 C2664 1.403 . S
C2667 C2668 1.392 . S
C2667 C2671 1.495 . S
C2668 C2667 1.392 . S
C2668 C2669 1.385 . S
C2668 C2670 1.478 . S
C2669 H2663 0.930 . S
C2669 C2665 1.400 . S
C2669 C2668 1.385 . S
C2670 C2668 1.478 . S
C2670 C2672 1.381 . S
C2670 C2676 1.383 . S
C2671 C2667 1.495 . S
C2671 H2677 0.959 . S
C2671 H2678 0.961 . S
C2671 H2679 0.960 . S
C2672 C2670 1.381 . S
C2672 C2673 1.394 . S
C2672 H2680 0.930 . S
C2673 C2672 1.394 . S
C2673 C2674 1.383 . S
C2673 H2681 0.929 . S
C2674 C2673 1.383 . S
C2674 C2675 1.377 . S
C2675 H2659 0.930 . S
C2675 C2674 1.377 . S
C2675 C2676 1.379 . S
C2676 H2660 0.931 . S
C2676 C2670 1.383 . S
C2676 C2675 1.379 . S
H2677 C2671 0.959 . S
H2678 C2671 0.961 . S
H2679 C2671 0.960 . S
H2680 C2672 0.930 . S
H2681 C2673 0.929 . S
H2682 C2690 0.929 . S
H2683 C2692 0.930 . S
H2684 C2694 0.930 . S
H2685 C2697 0.929 . S
H2686 C2700 0.930 . S
H2687 C2702 0.960 . S
H2688 C2702 0.960 . S
H2689 C2702 0.960 . S
C2690 H2682 0.929 . S
C2690 C2691 1.377 . S
C2690 C2692 1.384 . S
C2691 C2690 1.377 . S
C2691 C2697 1.390 . S
C2692 H2683 0.930 . S
C2692 C2690 1.384 . S
C2692 C2693 1.372 . S
C2693 C2692 1.372 . S
C2693 C2694 1.400 . S
C2693 C2698 1.490 . S
C2694 H2684 0.930 . S
C2694 C2693 1.400 . S
C2694 C2697 1.386 . S
H2695 C2711 0.930 . S
H2696 C2712 0.931 . S
C2697 H2685 0.929 . S
C2697 C2691 1.390 . S
C2697 C2694 1.386 . S
C2698 C2693 1.490 . S
C2698 C2700 1.395 . S
C2698 C2701 1.403 . S
H2699 C2705 0.930 . S
C2700 H2686 0.930 . S
C2700 C2698 1.395 . S
C2700 C2703 1.403 . S
C2701 C2698 1.403 . S
C2701 C2702 1.524 . S
C2701 C2705 1.400 . S
C2702 H2687 0.960 . S
C2702 H2688 0.960 . S
C2702 H2689 0.960 . S
C2702 C2701 1.524 . S
C2703 C2700 1.403 . S
C2703 C2704 1.392 . S
C2703 C2707 1.495 . S
C2704 C2703 1.392 . S
C2704 C2705 1.385 . S
C2704 C2706 1.478 . S
C2705 H2699 0.930 . S
C2705 C2701 1.400 . S
C2705 C2704 1.385 . S
C2706 C2704 1.478 . S
C2706 C2708 1.381 . S
C2706 C2712 1.383 . S
C2707 C2703 1.495 . S
C2707 H2713 0.959 . S
C2707 H2714 0.961 . S
C2707 H2715 0.960 . S
C2708 C2706 1.381 . S
C2708 C2709 1.394 . S
C2708 H2716 0.930 . S
C2709 C2708 1.394 . S
C2709 C2710 1.383 . S
C2709 H2717 0.929 . S
C2710 C2709 1.383 . S
C2710 C2711 1.377 . S
C2711 H2695 0.930 . S
C2711 C2710 1.377 . S
C2711 C2712 1.379 . S
C2712 H2696 0.931 . S
C2712 C2706 1.383 . S
C2712 C2711 1.379 . S
H2713 C2707 0.959 . S
H2714 C2707 0.961 . S
H2715 C2707 0.960 . S
H2716 C2708 0.930 . S
H2717 C2709 0.929 . S
H2718 C2726 0.929 . S
H2719 C2728 0.930 . S
H2720 C2730 0.930 . S
H2721 C2733 0.929 . S
H2722 C2736 0.930 . S
H2723 C2738 0.960 . S
H2724 C2738 0.960 . S
H2725 C2738 0.960 . S
C2726 H2718 0.929 . S
C2726 C2727 1.377 . S
C2726 C2728 1.384 . S
C2727 C2726 1.377 . S
C2727 C2733 1.390 . S
C2728 H2719 0.930 . S
C2728 C2726 1.384 . S
C2728 C2729 1.372 . S
C2729 C2728 1.372 . S
C2729 C2730 1.400 . S
C2729 C2734 1.490 . S
C2730 H2720 0.930 . S
C2730 C2729 1.400 . S
C2730 C2733 1.386 . S
H2731 C2747 0.930 . S
H2732 C2748 0.931 . S
C2733 H2721 0.929 . S
C2733 C2727 1.390 . S
C2733 C2730 1.386 . S
C2734 C2729 1.490 . S
C2734 C2736 1.395 . S
C2734 C2737 1.403 . S
H2735 C2741 0.930 . S
C2736 H2722 0.930 . S
C2736 C2734 1.395 . S
C2736 C2739 1.403 . S
C2737 C2734 1.403 . S
C2737 C2738 1.524 . S
C2737 C2741 1.400 . S
C2738 H2723 0.960 . S
C2738 H2724 0.960 . S
C2738 H2725 0.960 . S
C2738 C2737 1.524 . S
C2739 C2736 1.403 . S
C2739 C2740 1.392 . S
C2739 C2743 1.495 . S
C2740 C2739 1.392 . S
C2740 C2741 1.385 . S
C2740 C2742 1.478 . S
C2741 H2735 0.930 . S
C2741 C2737 1.400 . S
C2741 C2740 1.385 . S
C2742 C2740 1.478 . S
C2742 C2744 1.381 . S
C2742 C2748 1.383 . S
C2743 C2739 1.495 . S
C2743 H2749 0.959 . S
C2743 H2750 0.961 . S
C2743 H2751 0.960 . S
C2744 C2742 1.381 . S
C2744 C2745 1.394 . S
C2744 H2752 0.930 . S
C2745 C2744 1.394 . S
C2745 C2746 1.383 . S
C2745 H2753 0.929 . S
C2746 C2745 1.383 . S
C2746 C2747 1.377 . S
C2747 H2731 0.930 . S
C2747 C2746 1.377 . S
C2747 C2748 1.379 . S
C2748 H2732 0.931 . S
C2748 C2742 1.383 . S
C2748 C2747 1.379 . S
H2749 C2743 0.959 . S
H2750 C2743 0.961 . S
H2751 C2743 0.960 . S
H2752 C2744 0.930 . S
H2753 C2745 0.929 . S
H2754 C2762 0.929 . S
H2755 C2764 0.930 . S
H2756 C2766 0.930 . S
H2757 C2769 0.929 . S
H2758 C2772 0.930 . S
H2759 C2774 0.960 . S
H2760 C2774 0.960 . S
H2761 C2774 0.960 . S
C2762 H2754 0.929 . S
C2762 C2763 1.377 . S
C2762 C2764 1.384 . S
C2763 C2762 1.377 . S
C2763 C2769 1.390 . S
C2764 H2755 0.930 . S
C2764 C2762 1.384 . S
C2764 C2765 1.372 . S
C2765 C2764 1.372 . S
C2765 C2766 1.400 . S
C2765 C2770 1.490 . S
C2766 H2756 0.930 . S
C2766 C2765 1.400 . S
C2766 C2769 1.386 . S
H2767 C2783 0.930 . S
H2768 C2784 0.931 . S
C2769 H2757 0.929 . S
C2769 C2763 1.390 . S
C2769 C2766 1.386 . S
C2770 C2765 1.490 . S
C2770 C2772 1.395 . S
C2770 C2773 1.403 . S
H2771 C2777 0.930 . S
C2772 H2758 0.930 . S
C2772 C2770 1.395 . S
C2772 C2775 1.403 . S
C2773 C2770 1.403 . S
C2773 C2774 1.524 . S
C2773 C2777 1.400 . S
C2774 H2759 0.960 . S
C2774 H2760 0.960 . S
C2774 H2761 0.960 . S
C2774 C2773 1.524 . S
C2775 C2772 1.403 . S
C2775 C2776 1.392 . S
C2775 C2779 1.495 . S
C2776 C2775 1.392 . S
C2776 C2777 1.385 . S
C2776 C2778 1.478 . S
C2777 H2771 0.930 . S
C2777 C2773 1.400 . S
C2777 C2776 1.385 . S
C2778 C2776 1.478 . S
C2778 C2780 1.381 . S
C2778 C2784 1.383 . S
C2779 C2775 1.495 . S
C2779 H2785 0.959 . S
C2779 H2786 0.961 . S
C2779 H2787 0.960 . S
C2780 C2778 1.381 . S
C2780 C2781 1.394 . S
C2780 H2788 0.930 . S
C2781 C2780 1.394 . S
C2781 C2782 1.383 . S
C2781 H2789 0.929 . S
C2782 C2781 1.383 . S
C2782 C2783 1.377 . S
C2783 H2767 0.930 . S
C2783 C2782 1.377 . S
C2783 C2784 1.379 . S
C2784 H2768 0.931 . S
C2784 C2778 1.383 . S
C2784 C2783 1.379 . S
H2785 C2779 0.959 . S
H2786 C2779 0.961 . S
H2787 C2779 0.960 . S
H2788 C2780 0.930 . S
H2789 C2781 0.929 . S
H2790 C2798 0.929 . S
H2791 C2800 0.930 . S
H2792 C2802 0.930 . S
H2793 C2805 0.929 . S
H2794 C2808 0.930 . S
H2795 C2810 0.960 . S
H2796 C2810 0.960 . S
H2797 C2810 0.960 . S
C2798 H2790 0.929 . S
C2798 C2799 1.377 . S
C2798 C2800 1.384 . S
C2799 C2798 1.377 . S
C2799 C2805 1.390 . S
C2800 H2791 0.930 . S
C2800 C2798 1.384 . S
C2800 C2801 1.372 . S
C2801 C2800 1.372 . S
C2801 C2802 1.400 . S
C2801 C2806 1.490 . S
C2802 H2792 0.930 . S
C2802 C2801 1.400 . S
C2802 C2805 1.386 . S
H2803 C2819 0.930 . S
H2804 C2820 0.931 . S
C2805 H2793 0.929 . S
C2805 C2799 1.390 . S
C2805 C2802 1.386 . S
C2806 C2801 1.490 . S
C2806 C2808 1.395 . S
C2806 C2809 1.403 . S
H2807 C2813 0.930 . S
C2808 H2794 0.930 . S
C2808 C2806 1.395 . S
C2808 C2811 1.403 . S
C2809 C2806 1.403 . S
C2809 C2810 1.524 . S
C2809 C2813 1.400 . S
C2810 H2795 0.960 . S
C2810 H2796 0.960 . S
C2810 H2797 0.960 . S
C2810 C2809 1.524 . S
C2811 C2808 1.403 . S
C2811 C2812 1.392 . S
C2811 C2815 1.495 . S
C2812 C2811 1.392 . S
C2812 C2813 1.385 . S
C2812 C2814 1.478 . S
C2813 H2807 0.930 . S
C2813 C2809 1.400 . S
C2813 C2812 1.385 . S
C2814 C2812 1.478 . S
C2814 C2816 1.381 . S
C2814 C2820 1.383 . S
C2815 C2811 1.495 . S
C2815 H2821 0.959 . S
C2815 H2822 0.961 . S
C2815 H2823 0.960 . S
C2816 C2814 1.381 . S
C2816 C2817 1.394 . S
C2816 H2824 0.930 . S
C2817 C2816 1.394 . S
C2817 C2818 1.383 . S
C2817 H2825 0.929 . S
C2818 C2817 1.383 . S
C2818 C2819 1.377 . S
C2819 H2803 0.930 . S
C2819 C2818 1.377 . S
C2819 C2820 1.379 . S
C2820 H2804 0.931 . S
C2820 C2814 1.383 . S
C2820 C2819 1.379 . S
H2821 C2815 0.959 . S
H2822 C2815 0.961 . S
H2823 C2815 0.960 . S
H2824 C2816 0.930 . S
H2825 C2817 0.929 . S
H2826 C2834 0.929 . S
H2827 C2836 0.930 . S
H2828 C2838 0.930 . S
H2829 C2841 0.929 . S
H2830 C2844 0.930 . S
H2831 C2846 0.960 . S
H2832 C2846 0.960 . S
H2833 C2846 0.960 . S
C2834 H2826 0.929 . S
C2834 C2835 1.377 . S
C2834 C2836 1.384 . S
C2835 C2834 1.377 . S
C2835 C2841 1.390 . S
C2836 H2827 0.930 . S
C2836 C2834 1.384 . S
C2836 C2837 1.372 . S
C2837 C2836 1.372 . S
C2837 C2838 1.400 . S
C2837 C2842 1.490 . S
C2838 H2828 0.930 . S
C2838 C2837 1.400 . S
C2838 C2841 1.386 . S
H2839 C2855 0.930 . S
H2840 C2856 0.931 . S
C2841 H2829 0.929 . S
C2841 C2835 1.390 . S
C2841 C2838 1.386 . S
C2842 C2837 1.490 . S
C2842 C2844 1.395 . S
C2842 C2845 1.403 . S
H2843 C2849 0.930 . S
C2844 H2830 0.930 . S
C2844 C2842 1.395 . S
C2844 C2847 1.403 . S
C2845 C2842 1.403 . S
C2845 C2846 1.524 . S
C2845 C2849 1.400 . S
C2846 H2831 0.960 . S
C2846 H2832 0.960 . S
C2846 H2833 0.960 . S
C2846 C2845 1.524 . S
C2847 C2844 1.403 . S
C2847 C2848 1.392 . S
C2847 C2851 1.495 . S
C2848 C2847 1.392 . S
C2848 C2849 1.385 . S
C2848 C2850 1.478 . S
C2849 H2843 0.930 . S
C2849 C2845 1.400 . S
C2849 C2848 1.385 . S
C2850 C2848 1.478 . S
C2850 C2852 1.381 . S
C2850 C2856 1.383 . S
C2851 C2847 1.495 . S
C2851 H2857 0.959 . S
C2851 H2858 0.961 . S
C2851 H2859 0.960 . S
C2852 C2850 1.381 . S
C2852 C2853 1.394 . S
C2852 H2860 0.930 . S
C2853 C2852 1.394 . S
C2853 C2854 1.383 . S
C2853 H2861 0.929 . S
C2854 C2853 1.383 . S
C2854 C2855 1.377 . S
C2855 H2839 0.930 . S
C2855 C2854 1.377 . S
C2855 C2856 1.379 . S
C2856 H2840 0.931 . S
C2856 C2850 1.383 . S
C2856 C2855 1.379 . S
H2857 C2851 0.959 . S
H2858 C2851 0.961 . S
H2859 C2851 0.960 . S
H2860 C2852 0.930 . S
H2861 C2853 0.929 . S
C927 C124 1.405 . S
C946 C229 1.341 . S
C963 C130 1.467 . S
C982 C313 1.424 . S
C999 C115 1.441 . S
C1018 C393 1.421 . S
C1035 C106 1.410 . S
C1054 C309 1.357 . S
C1090 C397 1.359 . S
C1071 C85 1.404 . S
C1107 C97 1.366 . S
C1126 C225 1.307 . S
C1162 C218 1.373 . S
C1143 C103 1.435 . S
C1198 C302 1.334 . S
C1179 C88 1.437 . S
C1215 C94 1.440 . S
C1234 C404 1.394 . S
C1251 C121 1.410 . S
C1270 C320 1.397 . S
C1287 C133 1.376 . S
C1306 C386 1.334 . S
C1342 C236 1.360 . S
C1323 C112 1.396 . S
C1378 C481 1.312 . S
C1359 C16 1.406 . S
C1395 C22 1.469 . S
C1414 C565 1.364 . S
C1431 C7 1.441 . S
C1450 C645 1.414 . S
C1467 C160 1.409 . S
C1486 C561 1.376 . S
C1503 C139 1.406 . S
C1522 C649 1.296 . S
C1539 C151 1.367 . S
C1558 C477 1.306 . S
C1575 C157 1.434 . S
C1594 C470 1.347 . S
C1611 C142 1.438 . S
C1630 C554 1.332 . S
C1666 C656 1.385 . S
C1647 C148 1.440 . S
C1683 C13 1.410 . S
C1702 C572 1.368 . S
C1738 C638 1.269 . S
C1719 C25 1.375 . S
C1755 C4 1.395 . S
C1774 C488 1.382 . S
C1810 C733 1.348 . S
C1791 C70 1.405 . S
C1827 C76 1.469 . S
C1846 C817 1.359 . S
C1882 C897 1.429 . S
C1863 C61 1.442 . S
C1918 C813 1.397 . S
C1899 C52 1.410 . S
C1954 C901 1.320 . S
C1935 C31 1.405 . S
C1971 C43 1.366 . S
C1990 C729 1.353 . S
C2007 C49 1.433 . S
C2026 C722 1.321 . S
C2043 C34 1.439 . S
C2062 C806 1.396 . S
C2098 C908 1.402 . S
C2079 C40 1.440 . S
C2115 C67 1.408 . S
C2134 C824 1.364 . S
C2151 C79 1.375 . S
C2170 C890 1.317 . S
C2187 C58 1.396 . S
C2206 C740 1.361 . S
C2223 C140 1.450 . S
C2242 C232 1.326 . S
C2278 C316 1.326 . S
C2259 C149 1.494 . S
C2295 C158 1.486 . S
C2314 C388 1.312 . S
C2331 C59 1.517 . S
C2350 C304 1.344 . S
C2367 C68 1.464 . S
C2386 C400 1.352 . S
C2422 C220 1.304 . S
C2403 C77 1.450 . S
C2439 C32 1.450 . S
C2458 C484 1.306 . S
C2475 C41 1.494 . S
C2494 C568 1.342 . S
C2511 C50 1.487 . S
C2530 C640 1.383 . S
C2547 C113 1.517 . S
C2566 C556 1.412 . S
C2602 C652 1.350 . S
C2583 C122 1.464 . S
C2619 C131 1.450 . S
C2638 C472 1.286 . S
C2655 C86 1.450 . S
C2674 C736 1.325 . S
C2691 C95 1.494 . S
C2710 C820 1.371 . S
C2746 C892 1.324 . S
C2727 C104 1.486 . S
C2763 C5 1.517 . S
C2782 C808 1.362 . S
C2799 C14 1.464 . S
C2818 C904 1.343 . S
C2835 C23 1.450 . S
C2854 C724 1.369 . S
