# Generated by pormake.
# Topology eea, (3,6)-cn, num edge types: 1
# Building blocks:
#     Node 0, Type 0, BuildingBlock: CUQRIR_clean_linker_1, # of connection points: 3
#     Node 1, Type 0, BuildingBlock: CUQRIR_clean_linker_1, # of connection points: 3
#     Node 2, Type 0, BuildingBlock: CUQRIR_clean_linker_1, # of connection points: 3
#     Node 3, Type 0, BuildingBlock: CUQRIR_clean_linker_1, # of connection points: 3
#     Node 4, Type 0, BuildingBlock: CUQRIR_clean_linker_1, # of connection points: 3
#     Node 5, Type 0, BuildingBlock: CUQRIR_clean_linker_1, # of connection points: 3
#     Node 6, Type 0, BuildingBlock: CUQRIR_clean_linker_1, # of connection points: 3
#     Node 7, Type 0, BuildingBlock: CUQRIR_clean_linker_1, # of connection points: 3
#     Node 8, Type 0, BuildingBlock: CUQRIR_clean_linker_1, # of connection points: 3
#     Node 9, Type 0, BuildingBlock: CUQRIR_clean_linker_1, # of connection points: 3
#     Node 10, Type 0, BuildingBlock: CUQRIR_clean_linker_1, # of connection points: 3
#     Node 11, Type 0, BuildingBlock: CUQRIR_clean_linker_1, # of connection points: 3
#     Node 12, Type 0, BuildingBlock: CUQRIR_clean_linker_1, # of connection points: 3
#     Node 13, Type 0, BuildingBlock: CUQRIR_clean_linker_1, # of connection points: 3
#     Node 14, Type 0, BuildingBlock: CUQRIR_clean_linker_1, # of connection points: 3
#     Node 15, Type 0, BuildingBlock: CUQRIR_clean_linker_1, # of connection points: 3
#     Node 16, Type 0, BuildingBlock: CUQRIR_clean_linker_1, # of connection points: 3
#     Node 17, Type 0, BuildingBlock: CUQRIR_clean_linker_1, # of connection points: 3
#     Node 18, Type 1, BuildingBlock: KUMBUR_clean_sbu_0, # of connection points: 6
#     Node 19, Type 1, BuildingBlock: KUMBUR_clean_sbu_0, # of connection points: 6
#     Node 20, Type 1, BuildingBlock: KUMBUR_clean_sbu_0, # of connection points: 6
#     Node 21, Type 1, BuildingBlock: KUMBUR_clean_sbu_0, # of connection points: 6
#     Node 22, Type 1, BuildingBlock: KUMBUR_clean_sbu_0, # of connection points: 6
#     Node 23, Type 1, BuildingBlock: KUMBUR_clean_sbu_0, # of connection points: 6
#     Node 24, Type 1, BuildingBlock: KUMBUR_clean_sbu_0, # of connection points: 6
#     Node 25, Type 1, BuildingBlock: KUMBUR_clean_sbu_0, # of connection points: 6
#     Node 26, Type 1, BuildingBlock: KUMBUR_clean_sbu_0, # of connection points: 6
#     Edge 27, Type (0, 1), None
#     Edge 28, Type (0, 1), None
#     Edge 29, Type (0, 1), None
#     Edge 30, Type (0, 1), None
#     Edge 31, Type (0, 1), None
#     Edge 32, Type (0, 1), None
#     Edge 33, Type (0, 1), None
#     Edge 34, Type (0, 1), None
#     Edge 35, Type (0, 1), None
#     Edge 36, Type (0, 1), None
#     Edge 37, Type (0, 1), None
#     Edge 38, Type (0, 1), None
#     Edge 39, Type (0, 1), None
#     Edge 40, Type (0, 1), None
#     Edge 41, Type (0, 1), None
#     Edge 42, Type (0, 1), None
#     Edge 43, Type (0, 1), None
#     Edge 44, Type (0, 1), None
#     Edge 45, Type (0, 1), None
#     Edge 46, Type (0, 1), None
#     Edge 47, Type (0, 1), None
#     Edge 48, Type (0, 1), None
#     Edge 49, Type (0, 1), None
#     Edge 50, Type (0, 1), None
#     Edge 51, Type (0, 1), None
#     Edge 52, Type (0, 1), None
#     Edge 53, Type (0, 1), None
#     Edge 54, Type (0, 1), None
#     Edge 55, Type (0, 1), None
#     Edge 56, Type (0, 1), None
#     Edge 57, Type (0, 1), None
#     Edge 58, Type (0, 1), None
#     Edge 59, Type (0, 1), None
#     Edge 60, Type (0, 1), None
#     Edge 61, Type (0, 1), None
#     Edge 62, Type (0, 1), None
#     Edge 63, Type (0, 1), None
#     Edge 64, Type (0, 1), None
#     Edge 65, Type (0, 1), None
#     Edge 66, Type (0, 1), None
#     Edge 67, Type (0, 1), None
#     Edge 68, Type (0, 1), None
#     Edge 69, Type (0, 1), None
#     Edge 70, Type (0, 1), None
#     Edge 71, Type (0, 1), None
#     Edge 72, Type (0, 1), None
#     Edge 73, Type (0, 1), None
#     Edge 74, Type (0, 1), None
#     Edge 75, Type (0, 1), None
#     Edge 76, Type (0, 1), None
#     Edge 77, Type (0, 1), None
#     Edge 78, Type (0, 1), None
#     Edge 79, Type (0, 1), None
#     Edge 80, Type (0, 1), None
# Relax obj value: 0.042
# Max RMSD: 0.310
# Mean RMSD: 0.215
data_MOF--net-eea--node1-KUMBUR_clean_sbu_0--node2-CUQRIR_clean_linker_1--edge1-none
_symmetry_space_group_name_H-M    P1
_symmetry_Int_Tables_number       1
_symmetry_cell_setting            triclinic
loop_
_symmetry_equiv_pos_as_xyz
'x, y, z'
_cell_length_a     16.793882
_cell_length_b     20.271122
_cell_length_c     32.870365
_cell_angle_alpha  84.430876
_cell_angle_beta   91.504109
_cell_angle_gamma 118.43413
loop_
_atom_site_label
_atom_site_type_symbol
_atom_site_fract_x
_atom_site_fract_y
_atom_site_fract_z
_atom_type_partial_charge
C0 C 0.23993 0.09086 0.39271 0.0
N1 N 0.20816 0.1311 0.4117 0.0
N2 N 0.23232 0.02992 0.41757 0.0
C3 C 0.31609 0.12743 0.36149 0.0
C4 C 0.20735 0.04136 0.45412 0.0
N5 N 0.2017 0.10612 0.45161 0.0
C6 C 0.18998 0.99229 0.49387 0.0
H7 H 0.30346 0.09263 0.33582 0.0
H8 H 0.37837 0.13153 0.37616 0.0
H9 H 0.33143 0.18506 0.35074 0.0
H10 H 0.24552 0.02168 0.51489 0.0
H11 H 0.18462 0.93713 0.4915 0.0
H12 H 0.12623 0.98345 0.50831 0.0
C13 C 0.91664 0.11668 0.38813 0.0
N14 N 0.96387 0.1778 0.40978 0.0
N15 N 0.86149 0.05259 0.41212 0.0
C16 C 0.89187 0.12831 0.3462 0.0
C17 C 0.87411 0.07853 0.44994 0.0
N18 N 0.93039 0.15492 0.44859 0.0
C19 C 0.84789 0.02791 0.48914 0.0
H20 H 0.82855 0.08135 0.33679 0.0
H21 H 0.9495 0.13741 0.3277 0.0
H22 H 0.87835 0.17653 0.34483 0.0
H23 H 0.91014 0.03991 0.50646 0.0
H24 H 0.81583 0.9679 0.48449 0.0
H25 H 0.80296 0.0391 0.50793 0.0
C26 C 0.92442 0.82887 0.4042 0.0
N27 N 0.97222 0.79065 0.4123 0.0
N28 N 0.83607 0.77934 0.39711 0.0
C29 C 0.95066 0.90021 0.42373 0.0
C30 C 0.83341 0.71199 0.40675 0.0
N31 N 0.91324 0.71843 0.41901 0.0
C32 C 0.75052 0.63807 0.40935 0.0
H33 H 0.91775 0.9317 0.40918 0.0
H34 H 0.02518 0.93594 0.42371 0.0
H35 H 0.92679 0.88498 0.45615 0.0
H36 H 0.76627 0.59475 0.39924 0.0
H37 H 0.69463 0.63895 0.39098 0.0
H38 H 0.73312 0.62479 0.44222 0.0
C39 C 0.12288 0.19895 0.67939 0.0
N40 N 0.20875 0.24461 0.66351 0.0
N41 N 0.07689 0.23923 0.68067 0.0
C42 C 0.07377 0.1206 0.66747 0.0
C43 C 0.13438 0.30641 0.65953 0.0
N44 N 0.21029 0.30739 0.6467 0.0
C45 C 0.11953 0.37484 0.65268 0.0
H46 H 0.05578 0.12295 0.63481 0.0
H47 H 1.00959 0.08688 0.685 0.0
H48 H 0.11938 0.09548 0.66975 0.0
H49 H 0.08304 0.37872 0.67908 0.0
H50 H 0.08019 0.37128 0.62453 0.0
H51 H 0.18415 0.42804 0.64954 0.0
C52 C 0.78345 0.88105 0.69848 0.0
N53 N 0.78004 0.82994 0.67286 0.0
N54 N 0.79711 0.94723 0.67704 0.0
C55 C 0.74174 0.85652 0.74099 0.0
C56 C 0.79726 0.93104 0.63734 0.0
N57 N 0.77979 0.85857 0.6344 0.0
C58 C 0.83006 0.98927 0.6011 0.0
H59 H 0.70411 0.79415 0.74662 0.0
H60 H 0.69391 0.87876 0.74481 0.0
H61 H 0.79288 0.87816 0.76467 0.0
H62 H 0.89288 0.0394 0.60892 0.0
H63 H 0.77798 0.00611 0.59212 0.0
H64 H 0.84737 0.96841 0.57476 0.0
C65 C 0.09372 0.89641 0.67708 0.0
N66 N 0.07189 0.82805 0.6621 0.0
N67 N 0.18208 0.95393 0.66533 0.0
C68 C 1.01728 0.91394 0.67836 0.0
C69 C 0.2012 0.9197 0.63637 0.0
N70 N 0.1391 0.84631 0.63526 0.0
C71 C 0.27007 0.96178 0.60357 0.0
H72 H 0.04058 0.97457 0.67553 0.0
H73 H 0.97541 0.88425 0.70582 0.0
H74 H 0.97296 0.89184 0.65194 0.0
H75 H 0.26819 0.92617 0.57991 0.0
H76 H 0.33565 0.9859 0.61849 0.0
H77 H 0.25756 0.00743 0.5889 0.0
C78 C 0.90708 0.42238 0.72606 0.0
N79 N 0.87642 0.46316 0.74522 0.0
N80 N 0.89916 0.36135 0.75091 0.0
C81 C 0.98313 0.45865 0.69479 0.0
C82 C 0.87532 0.37328 0.78759 0.0
N83 N 0.87024 0.43825 0.78512 0.0
C84 C 0.8575 0.32408 0.82729 0.0
H85 H 0.96981 0.42405 0.66897 0.0
H86 H 0.04519 0.462 0.70932 0.0
H87 H 0.99919 0.51658 0.68428 0.0
H88 H 0.91253 0.35341 0.84855 0.0
H89 H 0.85263 0.26913 0.82494 0.0
H90 H 0.79335 0.3149 0.84147 0.0
C91 C 0.58355 0.44801 0.72142 0.0
N92 N 0.63137 0.50906 0.74304 0.0
N93 N 0.52776 0.38415 0.74543 0.0
C94 C 0.55881 0.45991 0.6795 0.0
C95 C 0.54055 0.41025 0.78321 0.0
N96 N 0.59785 0.48643 0.78181 0.0
C97 C 0.51166 0.36009 0.82258 0.0
H98 H 0.49568 0.41297 0.6699 0.0
H99 H 0.6166 0.46953 0.66093 0.0
H100 H 0.54488 0.50789 0.67835 0.0
H101 H 0.57311 0.369 0.8398 0.0
H102 H 0.47491 0.29997 0.81836 0.0
H103 H 0.47009 0.37491 0.84136 0.0
C104 C 0.59022 0.16072 0.73717 0.0
N105 N 0.63774 0.1223 0.7455 0.0
N106 N 0.50168 0.11122 0.73023 0.0
C107 C 0.61672 0.23215 0.75664 0.0
C108 C 0.4986 0.04381 0.74025 0.0
N109 N 0.57827 0.05036 0.7528 0.0
C110 C 0.41537 0.96975 0.74299 0.0
H111 H 0.58401 0.26378 0.74206 0.0
H112 H 0.69127 0.26771 0.75666 0.0
H113 H 0.59279 0.21704 0.78905 0.0
H114 H 0.43109 0.92619 0.73324 0.0
H115 H 0.35952 0.97032 0.72446 0.0
H116 H 0.39748 0.95674 0.77579 0.0
C117 C 0.79002 0.53205 1.01229 0.0
N118 N 0.87545 0.57845 0.99631 0.0
N119 N 0.74373 0.57185 1.01431 0.0
C120 C 0.74139 0.45459 0.99907 0.0
C121 C 0.80038 0.63944 0.99328 0.0
N122 N 0.87619 0.64104 0.97989 0.0
C123 C 0.78441 0.70743 0.98665 0.0
H124 H 0.72414 0.45869 0.9664 0.0
H125 H 0.67679 0.41975 1.01613 0.0
H126 H 0.78734 0.42977 1.00078 0.0
H127 H 0.74617 0.71038 1.01265 0.0
H128 H 0.74668 0.70453 0.95804 0.0
H129 H 0.8487 0.76095 0.98442 0.0
C130 C 0.44806 0.21247 0.03251 0.0
N131 N 0.4437 0.16094 1.00715 0.0
N132 N 0.46129 0.27799 1.01079 0.0
C133 C 0.40899 0.18921 0.07549 0.0
C134 C 0.46018 0.26111 0.97109 0.0
N135 N 0.44277 0.18856 0.96851 0.0
C136 C 0.49377 0.31919 0.93477 0.0
H137 H 0.37238 0.12694 0.08183 0.0
H138 H 0.36085 0.21098 0.07974 0.0
H139 H 0.46174 0.2123 0.09836 0.0
H140 H 0.55736 0.36866 0.94253 0.0
H141 H 0.44266 0.33721 0.92586 0.0
H142 H 0.51057 0.29822 0.9084 0.0
C143 C 0.76295 0.23212 1.0114 0.0
N144 N 0.74123 0.16359 0.99666 0.0
N145 N 0.85142 0.28977 0.99967 0.0
C146 C 0.68599 0.2492 1.01177 0.0
C147 C 0.87001 0.25538 0.97053 0.0
N148 N 0.80781 0.18185 0.96945 0.0
C149 C 0.9379 0.29759 0.93736 0.0
H150 H 0.70864 0.30964 1.00841 0.0
H151 H 0.6436 0.21973 0.03909 0.0
H152 H 0.64216 0.22632 0.98528 0.0
H153 H 0.93447 0.26223 0.91327 0.0
H154 H 1.00406 0.32109 0.95179 0.0
H155 H 0.9256 0.3437 0.92326 0.0
C156 C 0.56753 0.7536 0.05856 0.0
N157 N 0.5397 0.79587 0.07846 0.0
N158 N 0.55907 0.69205 0.0834 0.0
C159 C 0.64664 0.79109 0.0287 0.0
C160 C 0.53691 0.70479 0.12035 0.0
N161 N 0.5337 0.77055 0.11825 0.0
C162 C 0.51913 0.65579 0.16015 0.0
H163 H 0.63644 0.75898 1.00206 0.0
H164 H 0.70696 0.79276 0.04427 0.0
H165 H 0.66456 0.8499 1.01923 0.0
H166 H 0.57512 0.68469 0.18109 0.0
H167 H 0.5116 0.59989 0.15792 0.0
H168 H 0.45618 0.64835 0.17474 0.0
C169 C 0.25466 0.7955 0.05381 0.0
N170 N 0.29148 0.85745 0.0752 0.0
N171 N 0.18596 0.7327 0.07413 0.0
C172 C 0.30961 0.78609 0.0255 0.0
C173 C 0.18795 0.75823 0.11157 0.0
N174 N 0.24633 0.83419 0.11152 0.0
C175 C 0.16409 0.70697 0.15076 0.0
H176 H 0.26839 0.75358 1.00184 0.0
H177 H 0.34083 0.75974 0.04654 0.0
H178 H 0.36096 0.83813 1.01119 0.0
H179 H 0.22774 0.71324 0.16493 0.0
H180 H 0.12251 0.64713 0.14716 0.0
H181 H 0.12878 0.72258 0.17248 0.0
C182 C 0.25927 0.49695 0.06997 0.0
N183 N 0.30506 0.45681 0.07746 0.0
N184 N 0.17022 0.44908 0.0632 0.0
C185 C 0.28935 0.56989 0.08855 0.0
C186 C 0.16557 0.38082 0.07208 0.0
N187 N 0.24439 0.38518 0.08439 0.0
C188 C 0.08174 0.30799 0.07433 0.0
H189 H 0.25219 0.59985 0.07642 0.0
H190 H 0.36341 0.60639 0.08476 0.0
H191 H 0.27439 0.5568 0.12193 0.0
H192 H 0.0958 0.26414 0.06366 0.0
H193 H 0.02591 0.31025 0.05658 0.0
H194 H 0.06609 0.29487 0.10724 0.0
C195 C 0.45787 0.8681 0.34648 0.0
N196 N 0.54437 0.91424 0.33148 0.0
N197 N 0.41195 0.90843 0.34783 0.0
C198 C 0.40931 0.79042 0.33347 0.0
C199 C 0.47021 0.97615 0.32742 0.0
N200 N 0.54679 0.97759 0.31522 0.0
C201 C 0.45542 0.04466 0.32082 0.0
H202 H 0.39351 0.79433 0.30059 0.0
H203 H 0.34398 0.75625 0.35007 0.0
H204 H 0.45442 0.76479 0.33602 0.0
H205 H 0.41702 0.0474 0.34684 0.0
H206 H 0.41806 0.04232 0.29216 0.0
H207 H 0.52005 0.09789 0.31878 0.0
C208 C 0.11892 0.55118 0.36424 0.0
N209 N 0.11598 0.50018 0.3387 0.0
N210 N 0.1335 0.61763 0.34277 0.0
C211 C 0.07638 0.52651 0.40658 0.0
C212 C 0.13478 0.60179 0.3031 0.0
N213 N 0.11681 0.52917 0.3002 0.0
C214 C 0.16725 0.66014 0.26683 0.0
H215 H 0.03837 0.46415 0.41211 0.0
H216 H 0.02871 0.54893 0.41014 0.0
H217 H 0.12706 0.54787 0.43046 0.0
H218 H 0.2287 0.71123 0.27483 0.0
H219 H 0.11396 0.67532 0.25737 0.0
H220 H 0.18667 0.64029 0.24063 0.0
C221 C 0.42761 0.56415 0.34353 0.0
N222 N 0.4054 0.49568 0.32856 0.0
N223 N 0.51644 0.62127 0.33216 0.0
C224 C 0.3517 0.58251 0.34404 0.0
C225 C 0.53537 0.58679 0.3032 0.0
N226 N 0.47262 0.51355 0.30179 0.0
C227 C 0.60478 0.62856 0.27063 0.0
H228 H 0.37568 0.64331 0.34082 0.0
H229 H 0.30911 0.55339 0.37138 0.0
H230 H 0.30787 0.56029 0.31749 0.0
H231 H 0.60302 0.59243 0.2473 0.0
H232 H 0.67019 0.65297 0.28572 0.0
H233 H 0.59231 0.67398 0.25556 0.0
Tb234 Tb 0.49889 0.9673 0.98292 0.0
C235 C 0.73842 0.14753 0.10319 0.0
C236 C 0.84893 0.10922 0.08749 0.0
C237 C 0.89412 0.22015 0.12307 0.0
C238 C 0.75901 0.09745 0.08742 0.0
C239 C 0.80558 0.20875 0.12197 0.0
C240 C 0.91533 0.16924 0.10633 0.0
C241 C 0.6906 0.23646 0.1432 0.0
N242 N 0.65167 0.13442 0.10199 0.0
C243 C 0.62807 0.18021 0.12016 0.0
C244 C 0.78019 0.25185 0.1431 0.0
Tb245 Tb 0.5449 0.02014 0.08401 0.0
N246 N 0.69064 0.03626 0.07268 0.0
C247 C 0.71321 0.99272 0.05108 0.0
C248 C 0.86818 0.05721 0.07136 0.0
C249 C 0.79961 0.99869 0.05263 0.0
H250 H 0.55886 0.16953 0.11991 0.0
H251 H 0.81445 0.96095 0.03711 0.0
H252 H 0.98094 0.17234 0.11093 0.0
H253 H 0.67013 0.26916 0.16014 0.0
H254 H 0.66828 0.95679 0.03022 0.0
H255 H 0.14584 0.9 0.96113 0.0
H256 H 0.93588 0.06325 0.07191 0.0
H257 H 0.60425 0.87022 0.96497 0.0
H258 H 0.29095 0.95329 0.99505 0.0
H259 H 0.58118 0.75696 0.93671 0.0
H260 H 0.94365 0.26381 0.14038 0.0
H261 H 0.12855 0.85691 0.89308 0.0
H262 H 0.13977 0.76685 0.84781 0.0
H263 H 0.82914 0.29559 0.16007 0.0
H264 H 0.20533 0.66331 0.84173 0.0
N265 N 0.35392 0.91516 0.9553 0.0
C266 C 0.28452 0.9254 0.96788 0.0
C267 C 0.19061 0.87072 0.90888 0.0
C268 C 0.24674 0.84412 0.89614 0.0
C269 C 0.20193 0.89762 0.94737 0.0
C270 C 0.33595 0.86378 0.92798 0.0
H271 H 0.443 0.66956 0.91122 0.0
N272 N 0.47054 0.85232 0.95909 0.0
C273 C 0.52487 0.76879 0.93749 0.0
C274 C 0.39536 0.81819 0.93643 0.0
C275 C 0.53692 0.83213 0.95597 0.0
C276 C 0.44371 0.71933 0.92059 0.0
C277 C 0.37201 0.73849 0.91369 0.0
O278 O 0.59565 0.9941 0.93677 0.0
O279 O 0.58567 0.0645 1.01975 0.0
O280 O 0.49803 0.0985 0.05425 0.0
O281 O 0.45076 0.0531 0.98993 0.0
O282 O 0.6464 0.0409 0.97555 0.0
O283 O 0.4786 0.00808 0.92268 0.0
O284 O 0.48584 0.03455 0.13671 0.0
O285 O 0.44429 0.93581 0.04722 0.0
O286 O 0.5166 0.87384 0.02336 0.0
O287 O 0.5362 0.90704 0.0899 0.0
O288 O 0.39984 0.97738 0.09009 0.0
O289 O 0.56024 0.97436 0.14265 0.0
C290 C 0.6614 0.09162 0.99969 0.0
C291 C 0.55331 0.98446 0.86614 0.0
C292 C 0.57741 0.00867 0.79087 0.0
C293 C 0.55799 0.02795 0.82891 0.0
C294 C 0.58731 0.94467 0.78982 0.0
C295 C 0.56737 0.92207 0.86294 0.0
C296 C 0.58424 0.90242 0.82591 0.0
C297 C 0.45965 0.10033 1.0181 0.0
C298 C 0.55221 0.01131 0.90776 0.0
C299 C 0.23525 0.70667 0.86266 0.0
C300 C 0.1987 0.77322 0.86435 0.0
C301 C 0.371 0.9265 0.06515 0.0
C302 C 0.5511 0.03025 0.20305 0.0
C303 C 0.54701 0.98383 0.2391 0.0
C304 C 0.5875 0.01633 0.27591 0.0
C305 C 0.64098 0.09438 0.27418 0.0
C306 C 0.57961 0.10585 0.20832 0.0
C307 C 0.63135 0.13898 0.24166 0.0
C308 C 0.53035 0.85958 0.06342 0.0
C309 C 0.51534 0.99885 0.16255 0.0
H310 H 0.55019 0.07791 0.82938 0.0
H311 H 0.59898 0.92862 0.76107 0.0
H312 H 0.57306 0.891 0.88903 0.0
H313 H 0.59632 0.85457 0.82542 0.0
H314 H 0.50564 0.92336 0.23963 0.0
H315 H 0.67422 0.12037 0.30139 0.0
H316 H 0.55662 0.13806 0.18855 0.0
H317 H 0.6598 0.19888 0.24349 0.0
Tb318 Tb 0.08414 0.54063 0.9818 0.0
C319 C 0.77315 0.47193 0.10651 0.0
C320 C 0.80722 0.64155 0.15836 0.0
C321 C 0.61816 0.51085 0.15278 0.0
C322 C 0.85715 0.55097 0.11896 0.0
C323 C 0.65807 0.44451 0.11647 0.0
C324 C 0.69292 0.59984 0.1685 0.0
C325 C 0.6487 0.33557 0.08481 0.0
N326 N 0.80317 0.43295 0.08722 0.0
C327 C 0.74101 0.36234 0.08003 0.0
C328 C 0.6111 0.3704 0.10531 0.0
Tb329 Tb 0.96409 0.49305 0.07994 0.0
N330 N 0.9268 0.59523 0.08366 0.0
C331 C 0.96365 0.6842 0.06643 0.0
C332 C 0.86451 0.73462 0.13198 0.0
C333 C 0.93975 0.75334 0.08665 0.0
H334 H 0.76015 0.32166 0.07297 0.0
H335 H 0.90232 0.7518 0.10969 0.0
H336 H 0.66711 0.63023 0.18397 0.0
H337 H 0.60373 0.28077 0.07608 0.0
H338 H 1.01132 0.70694 0.04094 0.0
H339 H 0.30413 0.32955 0.92235 0.0
H340 H 0.83995 0.77383 0.14524 0.0
H341 H 0.19985 0.74108 0.94626 0.0
H342 H 0.1388 0.34665 0.99891 0.0
H343 H 0.3802 0.87242 0.85521 0.0
H344 H 0.57038 0.49441 0.17641 0.0
H345 H 0.37448 0.42996 0.86792 0.0
H346 H 0.39012 0.53234 0.82547 0.0
H347 H 0.54431 0.33192 0.11529 0.0
H348 H 0.41026 0.65356 0.8061 0.0
N349 N 0.18187 0.4555 0.96082 0.0
C350 C 0.18342 0.38368 0.97405 0.0
C351 C 0.33079 0.43669 0.88883 0.0
C352 C 0.31882 0.50854 0.88258 0.0
C353 C 0.28375 0.37279 0.92411 0.0
C354 C 0.26025 0.52864 0.91218 0.0
H355 H 0.42886 0.78183 0.81437 0.0
N356 N 0.21881 0.64697 0.92574 0.0
C357 C 0.35531 0.81357 0.86694 0.0
C358 C 0.27051 0.61227 0.89815 0.0
C359 C 0.24136 0.73025 0.92564 0.0
C360 C 0.38636 0.75806 0.84158 0.0
C361 C 0.34293 0.6631 0.85689 0.0
O362 O 0.03547 0.59481 0.93822 0.0
O363 O 0.96064 0.51653 1.0168 0.0
O364 O 0.89251 0.38969 0.04403 0.0
O365 O 0.99032 0.411 0.98952 0.0
O366 O 0.03082 0.62096 0.98503 0.0
O367 O 0.96132 0.47487 0.94695 0.0
O368 O 0.9072 0.4322 0.13655 0.0
O369 O 0.09018 0.51723 0.04707 0.0
O370 O 0.14531 0.64033 0.02442 0.0
O371 O 0.06085 0.61165 0.08441 0.0
O372 O 0.02458 0.41841 0.08538 0.0
O373 O 0.04699 0.5181 0.13332 0.0
C374 C 0.95465 0.57479 1.00431 0.0
C375 C 0.95627 0.53967 0.88117 0.0
C376 C 0.92112 0.49044 0.81454 0.0
C377 C 0.90057 0.48036 0.85731 0.0
C378 C 1.00295 0.55104 0.80023 0.0
C379 C 1.01337 0.60952 0.86035 0.0
C380 C 0.04199 0.61345 0.82117 0.0
C381 C 0.91116 0.36493 1.01097 0.0
C382 C 0.96563 0.53489 0.9264 0.0
C383 C 0.3718 0.6248 0.83409 0.0
C384 C 0.36031 0.5534 0.8462 0.0
C385 C 0.09621 0.46077 0.06314 0.0
C386 C 0.98358 0.45275 0.20252 0.0
C387 C 0.05944 0.49395 0.22762 0.0
C388 C 0.04913 0.48393 0.27157 0.0
C389 C 0.96364 0.43395 0.28858 0.0
C390 C 0.90182 0.40039 0.22226 0.0
C391 C 0.89241 0.39261 0.26445 0.0
C392 C 0.13141 0.65971 0.06109 0.0
C393 C 0.98009 0.46957 0.15692 0.0
H394 H 0.84575 0.42897 0.87159 0.0
H395 H 0.03094 0.55187 0.77105 0.0
H396 H 0.0423 0.65953 0.87601 0.0
H397 H 0.09575 0.66418 0.80768 0.0
H398 H 0.12357 0.5337 0.21304 0.0
H399 H 0.95073 0.4276 0.32121 0.0
H400 H 0.84103 0.37043 0.20539 0.0
H401 H 0.82696 0.35621 0.27886 0.0
Tb402 Tb 0.54075 0.46068 0.1057 0.0
C403 C 0.32112 0.53758 0.9796 0.0
C404 C 0.17347 0.40007 0.90775 0.0
C405 C 0.1242 0.51823 0.93017 0.0
C406 C 0.31864 0.47187 0.95682 0.0
C407 C 0.23451 0.56753 0.97503 0.0
C408 C 0.10464 0.44183 0.90261 0.0
C409 C 0.36542 0.6705 1.00546 0.0
N410 N 0.39588 0.56792 1.00067 0.0
C411 C 0.42311 0.64045 1.00462 0.0
C412 C 0.27336 0.63554 0.99554 0.0
Tb413 Tb 0.48745 0.50598 1.00145 0.0
N414 N 0.33637 0.41667 0.98678 0.0
C415 C 0.2745 0.32561 0.99343 0.0
C416 C 0.12727 0.30048 0.92374 0.0
C417 C 0.176 0.26792 0.96529 0.0
H418 H 0.4925 0.67976 1.00151 0.0
H419 H 0.14013 0.20927 0.97657 0.0
H420 H 0.05196 0.42345 0.88031 0.0
H421 H 0.4021 0.7291 1.00786 0.0
H422 H 0.29477 0.29516 1.01639 0.0
H423 H 1.01117 0.71267 0.13552 0.0
H424 H 0.0643 0.25952 0.91238 0.0
H425 H 0.49132 0.27361 0.17519 0.0
H426 H 0.79984 0.65965 0.06696 0.0
H427 H 0.53542 0.22913 0.23783 0.0
H428 H 0.10324 0.54593 0.90667 0.0
H429 H 0.99298 0.63253 0.19739 0.0
H430 H 0.90849 0.54314 0.25075 0.0
H431 H 0.2323 0.58764 0.98152 0.0
H432 H 0.77896 0.44091 0.28466 0.0
N433 N 0.73652 0.56293 0.11487 0.0
C434 C 0.81376 0.63088 0.09327 0.0
C435 C 0.93396 0.61639 0.17874 0.0
C436 C 0.84507 0.5475 0.19396 0.0
C437 C 0.94323 0.66455 0.13802 0.0
C438 C 0.75291 0.51352 0.16956 0.0
H439 H 0.65921 0.31677 0.27766 0.0
N440 N 0.5895 0.39078 0.17796 0.0
C441 C 0.57407 0.2878 0.22625 0.0
C442 C 0.67984 0.4369 0.19315 0.0
C443 C 0.54861 0.31461 0.19068 0.0
C444 C 0.64423 0.33768 0.24843 0.0
C445 C 0.69907 0.41168 0.23161 0.0
O446 O 0.45344 0.36505 0.14572 0.0
O447 O 0.43557 0.4517 0.06012 0.0
O448 O 0.5435 0.61021 0.03466 0.0
O449 O 0.57589 0.58432 0.10125 0.0
O450 O 0.44165 0.50336 0.11052 0.0
O451 O 0.44542 0.4658 0.14761 0.0
O452 O 0.50684 0.57381 0.94572 0.0
O453 O 0.59036 0.48843 0.0399 0.0
O454 O 0.48219 0.35958 0.06357 0.0
O455 O 0.47553 0.39703 0.99545 0.0
O456 O 0.62136 0.59038 1.00585 0.0
O457 O 0.54054 0.48378 0.94843 0.0
C458 C 0.3965 0.48185 0.07761 0.0
C459 C 0.42905 0.3972 0.21233 0.0
C460 C 0.47611 0.46261 0.27479 0.0
C461 C 0.44685 0.46027 0.23393 0.0
C462 C 0.49422 0.40592 0.29179 0.0
C463 C 0.42199 0.33266 0.23558 0.0
C464 C 0.45884 0.33806 0.2744 0.0
C465 C 0.56457 0.6296 0.07253 0.0
C466 C 0.42239 0.40004 0.16625 0.0
C467 C 0.77288 0.45794 0.25297 0.0
C468 C 0.84691 0.51837 0.2336 0.0
C469 C 0.6557 0.55249 0.02522 0.0
C470 C 0.56888 0.56265 0.88134 0.0
C471 C 0.5859 0.51812 0.85511 0.0
C472 C 0.5916 0.53484 0.81122 0.0
C473 C 0.57857 0.59626 0.79596 0.0
C474 C 0.57365 0.63036 0.86384 0.0
C475 C 0.57829 0.64683 0.82164 0.0
C476 C 0.47314 0.34595 0.0238 0.0
C477 C 0.53893 0.53908 0.92584 0.0
H478 H 0.43894 0.50691 0.21931 0.0
H479 H 0.52917 0.41314 0.32008 0.0
H480 H 0.39558 0.27948 0.22264 0.0
H481 H 0.4618 0.29015 0.29051 0.0
H482 H 0.59267 0.47088 0.8692 0.0
H483 H 0.57062 0.60657 0.76356 0.0
H484 H 0.56825 0.66895 0.88267 0.0
H485 H 0.57588 0.69702 0.80868 0.0
Tb486 Tb 0.16363 0.30044 0.31383 0.0
C487 C 0.39931 0.47792 0.43512 0.0
C488 C 0.51052 0.44063 0.4191 0.0
C489 C 0.55529 0.55127 0.45483 0.0
C490 C 0.42038 0.42846 0.41902 0.0
C491 C 0.46625 0.53893 0.45419 0.0
C492 C 0.57676 0.50067 0.43798 0.0
C493 C 0.35069 0.56587 0.47549 0.0
N494 N 0.31242 0.46459 0.43377 0.0
C495 C 0.28859 0.51017 0.45203 0.0
C496 C 0.44021 0.58107 0.4758 0.0
Tb497 Tb 0.20576 0.35068 0.41483 0.0
N498 N 0.35233 0.36749 0.40392 0.0
C499 C 0.37572 0.32466 0.38211 0.0
C500 C 0.53016 0.38881 0.40305 0.0
C501 C 0.46206 0.33056 0.38401 0.0
H502 H 0.21943 0.49965 0.45162 0.0
H503 H 0.47742 0.29316 0.36847 0.0
H504 H 0.64222 0.50363 0.44269 0.0
H505 H 0.3299 0.5982 0.49254 0.0
H506 H 0.3314 0.28943 0.3608 0.0
H507 H 0.8199 0.2488 0.28019 0.0
H508 H 0.59791 0.39495 0.40374 0.0
H509 H 0.26591 0.20172 0.29803 0.0
H510 H 0.96467 0.30484 0.31464 0.0
H511 H 0.24139 0.08542 0.27342 0.0
H512 H 0.60512 0.59537 0.47182 0.0
H513 H 0.79931 0.19288 0.2169 0.0
H514 H 0.8091 0.09883 0.17549 0.0
H515 H 0.48862 0.62422 0.49325 0.0
H516 H 0.87461 0.99488 0.17203 0.0
N517 N 0.02244 0.25286 0.2823 0.0
C518 C 0.9586 0.27392 0.28884 0.0
C519 C 0.86207 0.20936 0.23247 0.0
C520 C 0.91578 0.17864 0.22323 0.0
C521 C 0.87617 0.24484 0.26802 0.0
C522 C 1.00274 0.19825 0.25666 0.0
H523 H 0.10405 0.99858 0.24702 0.0
N524 N 0.1325 0.18412 0.29151 0.0
C525 C 0.18587 0.09831 0.27271 0.0
C526 C 0.0594 0.15101 0.26762 0.0
C527 C 0.19864 0.16349 0.28914 0.0
C528 C 0.10543 0.04915 0.25544 0.0
C529 C 0.03663 0.07066 0.24584 0.0
O530 O 0.26088 0.32312 0.26865 0.0
O531 O 0.24923 0.39697 0.35094 0.0
O532 O 0.16101 0.43136 0.38647 0.0
O533 O 0.12091 0.39082 0.32089 0.0
O534 O 0.31105 0.37336 0.30707 0.0
O535 O 0.14766 0.34244 0.25332 0.0
O536 O 0.14535 0.36413 0.46754 0.0
O537 O 0.10753 0.26314 0.37732 0.0
O538 O 0.17869 0.20584 0.35606 0.0
O539 O 0.20251 0.24078 0.42223 0.0
O540 O 0.05955 0.30394 0.41768 0.0
O541 O 0.21998 0.3043 0.47357 0.0
C542 C 0.32531 0.424 0.33115 0.0
C543 C 0.22054 0.31598 0.19753 0.0
C544 C 0.24318 0.34192 0.12214 0.0
C545 C 0.22425 0.36004 0.16059 0.0
C546 C 0.25396 0.27837 0.12053 0.0
C547 C 0.23452 0.25359 0.19391 0.0
C548 C 0.25163 0.2354 0.15639 0.0
C549 C 0.12768 0.43695 0.34957 0.0
C550 C 0.22002 0.3425 0.2392 0.0
C551 C 0.90382 0.03895 0.19261 0.0
C552 C 0.86826 0.10635 0.19222 0.0
C553 C 0.0324 0.25019 0.39451 0.0
C554 C 0.21017 0.35909 0.53425 0.0
C555 C 0.20654 0.31261 0.57033 0.0
C556 C 0.24931 0.34523 0.6069 0.0
C557 C 0.30397 0.42323 0.60473 0.0
C558 C 0.23981 0.43477 0.5396 0.0
C559 C 0.29371 0.46794 0.57241 0.0
C560 C 0.19606 0.19308 0.39611 0.0
C561 C 0.17457 0.32826 0.49347 0.0
H562 H 0.21628 0.40983 0.16165 0.0
H563 H 0.26577 0.26323 0.09151 0.0
H564 H 0.23831 0.2207 0.22006 0.0
H565 H 0.26411 0.18788 0.15529 0.0
H566 H 0.16476 0.25215 0.57102 0.0
H567 H 0.3388 0.44938 0.63164 0.0
H568 H 0.21624 0.46707 0.52022 0.0
H569 H 0.32293 0.52795 0.57418 0.0
Tb570 Tb 0.74911 0.87246 0.3149 0.0
C571 C 0.44052 0.80432 0.43998 0.0
C572 C 0.47879 0.9744 0.49242 0.0
C573 C 0.28797 0.8463 0.48583 0.0
C574 C 0.52576 0.88224 0.45297 0.0
C575 C 0.32595 0.779 0.44941 0.0
C576 C 0.36427 0.9346 0.50201 0.0
C577 C 0.31444 0.66898 0.41777 0.0
N578 N 0.46926 0.76444 0.42074 0.0
C579 C 0.40636 0.69441 0.41321 0.0
C580 C 0.27785 0.70501 0.43795 0.0
Tb581 Tb 0.62943 0.82182 0.41411 0.0
N582 N 0.59656 0.926 0.41804 0.0
C583 C 0.63659 0.01549 0.40133 0.0
C584 C 0.53898 0.06765 0.46659 0.0
C585 C 0.61495 0.08563 0.4217 0.0
H586 H 0.42461 0.65331 0.40597 0.0
H587 H 0.57736 0.08451 0.44455 0.0
H588 H 0.33921 0.96577 0.5173 0.0
H589 H 0.26904 0.61431 0.40906 0.0
H590 H 0.68566 0.03796 0.37643 0.0
H591 H 0.97416 0.66622 0.2596 0.0
H592 H 0.51534 0.10755 0.47973 0.0
H593 H 0.86378 0.07647 0.27406 0.0
H594 H 0.8053 0.68357 0.33375 0.0
H595 H 0.05032 0.20401 0.18488 0.0
H596 H 0.24039 0.83022 0.50962 0.0
H597 H 0.04351 0.76389 0.20462 0.0
H598 H 0.05778 0.86282 0.16013 0.0
H599 H 0.21062 0.66726 0.44754 0.0
H600 H 0.07858 0.98363 0.13928 0.0
N601 N 0.84835 0.79126 0.29483 0.0
C602 C 0.85087 0.72038 0.30916 0.0
C603 C 0.99935 0.77117 0.22484 0.0
C604 C 0.98621 0.84185 0.21699 0.0
C605 C 0.9528 0.7091 0.26062 0.0
C606 C 0.9265 0.86258 0.24543 0.0
H607 H 0.09998 0.11201 0.14694 0.0
N608 N 0.88293 0.98035 0.25649 0.0
C609 C 0.02436 0.14542 0.19737 0.0
C610 C 0.93596 0.94488 0.23007 0.0
C611 C 0.90602 0.06442 0.25493 0.0
C612 C 0.05631 0.08917 0.1738 0.0
C613 C 1.01133 0.99477 0.18957 0.0
O614 O 0.69995 0.92732 0.27187 0.0
O615 O 0.6269 0.84925 0.35075 0.0
O616 O 0.55825 0.71922 0.37771 0.0
O617 O 0.65412 0.74307 0.32171 0.0
O618 O 0.6991 0.95435 0.31946 0.0
O619 O 0.62633 0.80716 0.28023 0.0
O620 O 0.5702 0.76 0.47049 0.0
O621 O 0.75424 0.8456 0.38011 0.0
O622 O 0.80697 0.96053 0.36331 0.0
O623 O 0.7279 0.9372 0.4235 0.0
O624 O 0.68967 0.747 0.41856 0.0
O625 O 0.71068 0.84431 0.46775 0.0
C626 C 0.62255 0.90845 0.33866 0.0
C627 C 0.62245 0.87224 0.21429 0.0
C628 C 0.58597 0.82231 0.14767 0.0
C629 C 0.5654 0.81322 0.19044 0.0
C630 C 0.66851 0.88163 0.13318 0.0
C631 C 0.68258 0.94126 0.19333 0.0
C632 C 0.70963 0.9441 0.15393 0.0
C633 C 0.57601 0.69611 0.34375 0.0
C634 C 0.63047 0.86733 0.25977 0.0
C635 C 0.03982 0.95575 0.16731 0.0
C636 C 0.0277 0.88472 0.1802 0.0
C637 C 0.76056 0.78903 0.39576 0.0
C638 C 0.64644 0.78005 0.53685 0.0
C639 C 0.7223 0.82179 0.56193 0.0
C640 C 0.71196 0.81283 0.60589 0.0
C641 C 0.6264 0.76329 0.62297 0.0
C642 C 0.56452 0.72844 0.55671 0.0
C643 C 0.55505 0.72163 0.59892 0.0
C644 C 0.79823 0.98203 0.39974 0.0
C645 C 0.64283 0.79694 0.4912 0.0
H646 H 0.50938 0.76262 0.20471 0.0
H647 H 0.69542 0.88188 0.10379 0.0
H648 H 0.71441 0.99157 0.20879 0.0
H649 H 0.76301 0.99433 0.1396 0.0
H650 H 0.78651 0.8613 0.54731 0.0
H651 H 0.61363 0.75753 0.65559 0.0
H652 H 0.50382 0.69815 0.53985 0.0
H653 H 0.48957 0.68534 0.61339 0.0
Tb654 Tb 0.20999 0.7974 0.43866 0.0
C655 C 0.98588 0.87723 0.31324 0.0
C656 C 0.84116 0.73389 0.24273 0.0
C657 C 0.79009 0.85233 0.26269 0.0
C658 C 0.98562 0.80958 0.29184 0.0
C659 C 0.90035 0.90483 0.30683 0.0
C660 C 0.77126 0.77459 0.23645 0.0
C661 C 0.02402 0.00741 0.34367 0.0
N662 N 0.06005 0.90765 0.33526 0.0
C663 C 0.08339 0.97817 0.34379 0.0
C664 C 0.93961 0.97377 0.3261 0.0
Tb665 Tb 0.15417 0.84553 0.33506 0.0
N666 N 1.00363 0.7556 0.32278 0.0
C667 C 0.9432 0.6644 0.33029 0.0
C668 C 0.79652 0.63509 0.25977 0.0
C669 C 0.84556 0.60472 0.30221 0.0
H670 H 0.1515 0.01847 0.34211 0.0
H671 H 0.81126 0.54613 0.31369 0.0
H672 H 0.71845 0.75473 0.21422 0.0
H673 H 0.0495 0.06391 0.35253 0.0
H674 H 0.96466 0.63523 0.35349 0.0
H675 H 0.68408 0.04103 0.47043 0.0
H676 H 0.73503 0.59335 0.2476 0.0
H677 H 0.15706 0.60823 0.50682 0.0
H678 H 0.47424 0.9945 0.40095 0.0
H679 H 0.19976 0.56118 0.56896 0.0
H680 H 0.76729 0.87835 0.23917 0.0
H681 H 0.66129 0.96072 0.5322 0.0
H682 H 0.57337 0.87272 0.58542 0.0
H683 H 0.91694 0.01424 0.32178 0.0
H684 H 0.44199 0.77091 0.6184 0.0
N685 N 0.40711 0.89709 0.44844 0.0
C686 C 0.4862 0.96457 0.42728 0.0
C687 C 0.60273 0.9458 0.5133 0.0
C688 C 0.51246 0.87804 0.52802 0.0
C689 C 0.61428 0.99479 0.47278 0.0
C690 C 0.42084 0.84596 0.50311 0.0
H691 H 0.32263 0.64694 0.6099 0.0
N692 N 0.25601 0.72499 0.51062 0.0
C693 C 0.23885 0.62014 0.558 0.0
C694 C 0.34623 0.76971 0.52624 0.0
C695 C 0.21436 0.64845 0.52265 0.0
C696 C 0.30854 0.66891 0.58079 0.0
C697 C 0.36409 0.74323 0.56468 0.0
O698 O 0.12132 0.70159 0.47816 0.0
O699 O 0.10405 0.78913 0.39352 0.0
O700 O 0.21061 0.94831 0.36843 0.0
O701 O 0.24767 0.92142 0.43426 0.0
O702 O 0.11052 0.83975 0.44417 0.0
O703 O 0.11601 0.80345 0.48098 0.0
O704 O 0.17592 0.91755 0.28087 0.0
O705 O 0.25747 0.82653 0.37266 0.0
O706 O 0.15108 0.69752 0.39589 0.0
O707 O 0.14657 0.73731 0.32793 0.0
O708 O 0.29019 0.92813 0.33811 0.0
O709 O 0.19835 0.82205 0.27968 0.0
C710 C 0.06425 0.81802 0.41151 0.0
C711 C 0.09731 0.73258 0.54511 0.0
C712 C 0.14284 0.79593 0.60808 0.0
C713 C 0.11459 0.79483 0.56716 0.0
C714 C 0.16065 0.73894 0.62482 0.0
C715 C 0.08963 0.66744 0.56795 0.0
C716 C 0.12565 0.67168 0.6069 0.0
C717 C 0.23513 0.96702 0.40613 0.0
C718 C 0.09142 0.73696 0.49905 0.0
C719 C 0.43729 0.78855 0.58665 0.0
C720 C 0.51241 0.84861 0.5678 0.0
C721 C 0.32361 0.88983 0.35783 0.0
C722 C 0.2311 0.90722 0.21445 0.0
C723 C 0.24169 0.86223 0.18637 0.0
C724 C 0.24784 0.88257 0.14278 0.0
C725 C 0.24675 0.95019 0.12951 0.0
C726 C 0.24313 0.97844 0.19903 0.0
C727 C 0.25127 0.99972 0.15714 0.0
C728 C 0.14374 0.68517 0.35599 0.0
C729 C 0.2024 0.88137 0.25904 0.0
H730 H 0.107 0.84184 0.55284 0.0
H731 H 0.1948 0.74538 0.6533 0.0
H732 H 0.06321 0.61462 0.55469 0.0
H733 H 0.12805 0.62332 0.62275 0.0
H734 H 0.24484 0.8126 0.19909 0.0
H735 H 0.24453 0.96582 0.09721 0.0
H736 H 0.24248 0.01703 0.21924 0.0
H737 H 0.25581 0.05344 0.14593 0.0
Tb738 Tb 0.83087 0.63197 0.64747 0.0
C739 C 0.06685 0.80831 0.76953 0.0
C740 C 0.17792 0.77088 0.75351 0.0
C741 C 0.22203 0.87944 0.7909 0.0
C742 C 0.08794 0.75937 0.75296 0.0
C743 C 0.13341 0.86812 0.78949 0.0
C744 C 0.24363 0.82935 0.77369 0.0
C745 C 1.01817 0.89588 0.81024 0.0
N746 N 0.98017 0.79549 0.76785 0.0
C747 C 0.95644 0.84098 0.78624 0.0
C748 C 0.10732 0.91001 0.8112 0.0
Tb749 Tb 0.87293 0.68218 0.7483 0.0
N750 N 0.01986 0.69908 0.73733 0.0
C751 C 0.04335 0.65665 0.7152 0.0
C752 C 0.19749 0.71956 0.73685 0.0
C753 C 0.1296 0.66227 0.71714 0.0
H754 H 0.88758 0.83117 0.78524 0.0
H755 H 0.14498 0.62521 0.70128 0.0
H756 H 0.30935 0.83266 0.77828 0.0
H757 H 0.99733 0.9283 0.82724 0.0
H758 H 0.99906 0.62164 0.69377 0.0
H759 H 0.48647 0.57886 0.61396 0.0
H760 H 0.265 0.72519 0.73778 0.0
H761 H 0.93259 0.53246 0.63167 0.0
H762 H 0.6312 0.63544 0.64833 0.0
H763 H 0.90797 0.41642 0.60638 0.0
H764 H 0.27141 0.92244 0.80863 0.0
H765 H 0.46667 0.52482 0.55017 0.0
H766 H 0.47746 0.4323 0.50835 0.0
H767 H 0.15578 0.95243 0.8289 0.0
H768 H 0.54129 0.32705 0.50504 0.0
N769 N 0.68998 0.5847 0.61556 0.0
C770 C 0.62566 0.60515 0.62232 0.0
C771 C 0.52965 0.5414 0.56566 0.0
C772 C 0.58385 0.51123 0.55617 0.0
C773 C 0.54317 0.57583 0.60154 0.0
C774 C 0.67053 0.53043 0.58973 0.0
H775 H 0.77071 0.32997 0.5801 0.0
N776 N 0.79948 0.51553 0.6249 0.0
C777 C 0.85254 0.42946 0.60593 0.0
C778 C 0.72665 0.48278 0.6008 0.0
C779 C 0.86533 0.49447 0.62267 0.0
C780 C 0.7721 0.38052 0.5886 0.0
C781 C 0.7035 0.40229 0.57901 0.0
O782 O 0.92869 0.65465 0.60266 0.0
O783 O 0.91598 0.72885 0.68449 0.0
O784 O 0.82784 0.7626 0.72016 0.0
O785 O 0.78663 0.72139 0.6548 0.0
O786 O 0.97818 0.70557 0.64068 0.0
O787 O 0.81588 0.67466 0.58708 0.0
O788 O 0.81067 0.69537 0.80036 0.0
O789 O 0.77507 0.59439 0.71082 0.0
O790 O 0.84644 0.5376 0.68963 0.0
O791 O 0.87052 0.57267 0.75578 0.0
O792 O 0.7266 0.63528 0.75082 0.0
O793 O 0.88563 0.63587 0.80733 0.0
C794 C 0.99214 0.75613 0.66476 0.0
C795 C 0.88893 0.64819 0.53161 0.0
C796 C 0.91278 0.67523 0.45651 0.0
C797 C 0.89335 0.69283 0.49493 0.0
C798 C 0.9227 0.61134 0.45462 0.0
C799 C 0.90234 0.58557 0.52785 0.0
C800 C 0.91963 0.56772 0.49029 0.0
C801 C 0.79326 0.76745 0.6835 0.0
C802 C 0.88829 0.6745 0.57318 0.0
C803 C 0.57106 0.37121 0.52561 0.0
C804 C 0.53628 0.43918 0.5251 0.0
C805 C 0.69977 0.58142 0.72776 0.0
C806 C 0.87354 0.69097 0.86745 0.0
C807 C 0.8718 0.6453 0.90355 0.0
C808 C 0.91387 0.67887 0.93999 0.0
C809 C 0.96588 0.75703 0.93766 0.0
C810 C 0.90009 0.76622 0.87268 0.0
C811 C 0.95365 0.8005 0.90532 0.0
C812 C 0.86416 0.52502 0.72966 0.0
C813 C 0.83934 0.6597 0.8267 0.0
H814 H 0.88555 0.74266 0.49616 0.0
H815 H 0.93389 0.59623 0.42552 0.0
H816 H 0.90577 0.55235 0.5539 0.0
H817 H 0.93149 0.51991 0.489 0.0
H818 H 0.83203 0.58464 0.90435 0.0
H819 H 1.00004 0.78378 0.96451 0.0
H820 H 0.87578 0.79766 0.85295 0.0
H821 H 0.98186 0.86041 0.90684 0.0
Tb822 Tb 0.41543 0.20485 0.64802 0.0
C823 C 0.10624 0.13576 0.7731 0.0
C824 C 0.14527 0.30627 0.82517 0.0
C825 C 0.95441 0.17801 0.8194 0.0
C826 C 0.19162 0.21395 0.78564 0.0
C827 C 0.99174 0.11024 0.78305 0.0
C828 C 0.03093 0.26653 0.83513 0.0
C829 C 0.9803 0.9991 0.75257 0.0
N830 N 0.13495 0.09546 0.7543 0.0
C831 C 0.07235 0.02472 0.74783 0.0
C832 C 0.9436 0.03573 0.77225 0.0
Tb833 Tb 0.29514 0.1537 0.74715 0.0
N834 N 0.2618 0.25755 0.75048 0.0
C835 C 0.30144 0.3469 0.73354 0.0
C836 C 0.20485 0.39938 0.79909 0.0
C837 C 0.28 0.41712 0.75393 0.0
H838 H 0.09127 0.9837 0.74095 0.0
H839 H 0.2428 0.41611 0.77691 0.0
H840 H 1.00614 0.29795 0.85037 0.0
H841 H 0.93486 0.94425 0.74414 0.0
H842 H 0.35041 0.36929 0.70858 0.0
H843 H 0.63854 0.99688 0.59309 0.0
H844 H 0.18143 0.43934 0.81233 0.0
H845 H 0.53116 0.40902 0.60703 0.0
H846 H 0.47042 0.01547 0.66713 0.0
H847 H 0.71846 0.53601 0.51801 0.0
H848 H 0.90716 0.16227 0.84329 0.0
H849 H 0.70897 0.09444 0.53809 0.0
H850 H 0.72372 0.19375 0.49356 0.0
H851 H 0.87623 0.99829 0.78203 0.0
H852 H 0.7449 0.3147 0.47254 0.0
N853 N 0.51403 0.12311 0.62806 0.0
C854 C 0.51607 0.05206 0.64248 0.0
C855 C 0.66471 0.10205 0.55824 0.0
C856 C 0.65203 0.17304 0.55031 0.0
C857 C 0.61771 0.04009 0.59406 0.0
C858 C 0.59248 0.19416 0.57865 0.0
H859 H 0.76764 0.44358 0.48025 0.0
N860 N 0.54957 0.31246 0.58952 0.0
C861 C 0.69205 0.47736 0.53049 0.0
C862 C 0.60232 0.27665 0.56318 0.0
C863 C 0.57318 0.39669 0.58792 0.0
C864 C 0.72356 0.42078 0.50698 0.0
C865 C 0.6779 0.32629 0.52275 0.0
O866 O 0.36825 0.26125 0.60513 0.0
O867 O 0.29265 0.18105 0.6837 0.0
O868 O 0.22319 0.05188 0.71054 0.0
O869 O 0.31982 0.07556 0.65484 0.0
O870 O 0.36419 0.28609 0.65241 0.0
O871 O 0.29273 0.14085 0.61302 0.0
O872 O 0.23618 0.09104 0.80348 0.0
O873 O 0.42022 0.17777 0.71322 0.0
O874 O 0.47343 0.29231 0.69663 0.0
O875 O 0.39322 0.26927 0.75647 0.0
O876 O 0.35514 0.07883 0.75133 0.0
O877 O 0.37631 0.17591 0.80086 0.0
C878 C 0.28754 0.23993 0.67147 0.0
C879 C 0.28933 0.20759 0.5476 0.0
C880 C 0.25291 0.15841 0.48093 0.0
C881 C 0.23252 0.14874 0.52368 0.0
C882 C 0.33511 0.21828 0.46651 0.0
C883 C 0.34849 0.27716 0.52684 0.0
C884 C 0.3757 0.28059 0.4874 0.0
C885 C 0.24145 0.02876 0.67677 0.0
C886 C 0.29803 0.20179 0.59293 0.0
C887 C 0.70616 0.28699 0.50058 0.0
C888 C 0.69378 0.21587 0.51356 0.0
C889 C 0.42628 0.12102 0.72874 0.0
C890 C 0.31262 0.11023 0.86991 0.0
C891 C 0.38754 0.15244 0.89541 0.0
C892 C 0.377 0.14151 0.93948 0.0
C893 C 0.29249 0.08783 0.95614 0.0
C894 C 0.23138 0.0564 0.8894 0.0
C895 C 0.22186 0.04634 0.93154 0.0
C896 C 0.46413 0.31386 0.73294 0.0
C897 C 0.30878 0.12783 0.82425 0.0
H898 H 0.1771 0.0977 0.53792 0.0
H899 H 0.36261 0.21869 0.43728 0.0
H900 H 0.37998 0.32721 0.54258 0.0
H901 H 0.42957 0.33066 0.4733 0.0
H902 H 0.45112 0.19351 0.88092 0.0
H903 H 0.2792 0.07993 0.98879 0.0
H904 H 0.17047 0.02762 0.87251 0.0
H905 H 0.15596 0.00929 0.94539 0.0
Tb906 Tb 0.87571 0.12877 0.77244 0.0
C907 C 0.65186 0.20876 0.64641 0.0
C908 C 0.5066 0.06549 0.57603 0.0
C909 C 0.4563 0.18451 0.59581 0.0
C910 C 0.65106 0.14082 0.62515 0.0
C911 C 0.56665 0.23681 0.63993 0.0
C912 C 0.43715 0.10663 0.56963 0.0
C913 C 0.69056 0.3392 0.67669 0.0
N914 N 0.72637 0.23921 0.66825 0.0
C915 C 0.7498 0.30977 0.67684 0.0
C916 C 0.60605 0.30574 0.65917 0.0
Tb917 Tb 0.81954 0.17579 0.6687 0.0
N918 N 0.66864 0.08669 0.6562 0.0
C919 C 0.6077 0.99553 0.66379 0.0
C920 C 0.46136 0.96661 0.59317 0.0
C921 C 0.50998 0.93605 0.63569 0.0
H922 H 0.81795 0.34996 0.67555 0.0
H923 H 0.47535 0.87745 0.64717 0.0
H924 H 0.38458 0.08707 0.54732 0.0
H925 H 0.71614 0.39565 0.68566 0.0
H926 H 0.62869 0.96625 0.68715 0.0
H927 H 0.35027 0.37301 0.80234 0.0
H928 H 0.39955 0.92496 0.58118 0.0
H929 H 0.82155 0.94077 0.84172 0.0
H930 H 0.13909 0.32543 0.73356 0.0
H931 H 0.86341 0.89442 0.90422 0.0
H932 H 0.43345 0.21054 0.57225 0.0
H933 H 0.32916 0.29275 0.86386 0.0
H934 H 0.24398 0.20332 0.91697 0.0
H935 H 0.58324 0.34613 0.65491 0.0
H936 H 0.11473 0.10078 0.95041 0.0
N937 N 0.07277 0.22849 0.78151 0.0
C938 C 0.15145 0.29594 0.76002 0.0
C939 C 0.26987 0.27809 0.84553 0.0
C940 C 0.18006 0.21017 0.86062 0.0
C941 C 0.28048 0.3268 0.80503 0.0
C942 C 0.08766 0.17793 0.83622 0.0
H943 H 0.99013 0.97937 0.94366 0.0
N944 N 0.92253 0.05713 0.84456 0.0
C945 C 0.9039 0.95291 0.89265 0.0
C946 C 1.01338 0.10175 0.85972 0.0
C947 C 0.87965 0.98089 0.85718 0.0
C948 C 0.97561 0.00133 0.91464 0.0
C949 C 0.03249 0.07493 0.89786 0.0
O950 O 0.78695 0.03408 0.81255 0.0
O951 O 0.76952 0.11985 0.72725 0.0
O952 O 0.87577 0.27896 0.70189 0.0
O953 O 0.91438 0.25289 0.76756 0.0
O954 O 0.77597 0.17106 0.77767 0.0
O955 O 0.78277 0.13655 0.81466 0.0
O956 O 0.84039 0.24432 0.61302 0.0
O957 O 0.92302 0.1574 0.70639 0.0
O958 O 0.81712 0.02818 0.73004 0.0
O959 O 0.80879 0.06635 0.66218 0.0
O960 O 0.95507 0.25913 0.67204 0.0
O961 O 0.86796 0.15107 0.61513 0.0
C962 C 0.72978 0.14908 0.74502 0.0
C963 C 0.76405 0.06685 0.87933 0.0
C964 C 0.81091 0.13109 0.94221 0.0
C965 C 0.78242 0.12971 0.90121 0.0
C966 C 0.82781 0.07366 0.9591 0.0
C967 C 0.75594 0.0018 0.9024 0.0
C968 C 0.7922 0.00623 0.94132 0.0
C969 C 0.90115 0.29812 0.73949 0.0
C970 C 0.75767 0.07029 0.83319 0.0
C971 C 0.10814 0.11891 0.91898 0.0
C972 C 0.18217 0.17948 0.89985 0.0
C973 C 0.98895 0.22085 0.69146 0.0
C974 C 0.89937 0.23083 0.54819 0.0
C975 C 0.91565 0.18567 0.52201 0.0
C976 C 0.92328 0.20299 0.47808 0.0
C977 C 0.91182 0.26519 0.46279 0.0
C978 C 0.90634 0.29927 0.53065 0.0
C979 C 0.91232 0.31609 0.48845 0.0
C980 C 0.80768 0.01494 0.69024 0.0
C981 C 0.86986 0.20804 0.59285 0.0
H982 H 0.77526 0.17681 0.88673 0.0
H983 H 0.86142 0.07977 0.9877 0.0
H984 H 0.72894 0.94876 0.88933 0.0
H985 H 0.79407 0.95776 0.95732 0.0
H986 H 0.92093 0.13789 0.53628 0.0
H987 H 0.90456 0.27591 0.43037 0.0
H988 H 0.90154 0.33826 0.54938 0.0
H989 H 0.91143 0.3669 0.47544 0.0
loop_
_geom_bond_atom_site_label_1
_geom_bond_atom_site_label_2
_geom_bond_distance
_geom_bond_site_symmetry_2
_ccdc_geom_bond_type
C0 N1 1.317 . S
C0 N2 1.348 . S
C0 C3 1.485 . S
N1 C0 1.317 . S
N1 N5 1.370 . S
N2 C0 1.348 . S
N2 C4 1.346 . S
C3 C0 1.485 . S
C3 H7 0.960 . S
C3 H8 0.961 . S
C3 H9 0.960 . S
C4 N2 1.346 . S
C4 N5 1.307 . S
C4 C6 1.486 . S
N5 N1 1.370 . S
N5 C4 1.307 . S
C6 C4 1.486 . S
C6 H10 0.960 1_545 S
C6 H11 0.960 1_545 S
C6 H12 0.959 . S
H7 C3 0.960 . S
H8 C3 0.961 . S
H9 C3 0.960 . S
H10 C6 0.960 1_565 S
H11 C6 0.960 1_565 S
H12 C6 0.959 . S
C13 N14 1.317 . S
C13 N15 1.348 . S
C13 C16 1.485 . S
N14 C13 1.317 . S
N14 N18 1.370 . S
N15 C13 1.348 . S
N15 C17 1.346 . S
C16 C13 1.485 . S
C16 H20 0.960 . S
C16 H21 0.961 . S
C16 H22 0.960 . S
C17 N15 1.346 . S
C17 N18 1.307 . S
C17 C19 1.486 . S
N18 N14 1.370 . S
N18 C17 1.307 . S
C19 C17 1.486 . S
C19 H23 0.960 1_545 S
C19 H24 0.960 . S
C19 H25 0.959 . S
H20 C16 0.960 . S
H21 C16 0.961 . S
H22 C16 0.960 . S
H23 C19 0.960 1_565 S
H24 C19 0.960 . S
H25 C19 0.959 . S
C26 N27 1.317 . S
C26 N28 1.348 . S
C26 C29 1.485 . S
N27 C26 1.317 . S
N27 N31 1.370 . S
N28 C26 1.348 . S
N28 C30 1.346 . S
C29 C26 1.485 . S
C29 H33 0.960 . S
C29 H34 0.961 . S
C29 H35 0.960 1_655 S
C30 N28 1.346 . S
C30 N31 1.307 . S
C30 C32 1.486 . S
N31 N27 1.370 . S
N31 C30 1.307 . S
C32 C30 1.486 . S
C32 H36 0.960 . S
C32 H37 0.960 . S
C32 H38 0.959 . S
H33 C29 0.960 . S
H34 C29 0.961 . S
H35 C29 0.960 1_455 S
H36 C32 0.960 . S
H37 C32 0.960 . S
H38 C32 0.959 . S
C39 N40 1.317 . S
C39 N41 1.348 1_455 S
C39 C42 1.485 . S
N40 C39 1.317 . S
N40 N44 1.370 . S
N41 C39 1.348 1_655 S
N41 C43 1.346 . S
C42 C39 1.485 . S
C42 H46 0.960 . S
C42 H47 0.961 . S
C42 H48 0.960 . S
C43 N41 1.346 . S
C43 N44 1.307 1_655 S
C43 C45 1.486 . S
N44 N40 1.370 . S
N44 C43 1.307 1_455 S
C45 C43 1.486 . S
C45 H49 0.960 . S
C45 H50 0.960 . S
C45 H51 0.959 . S
H46 C42 0.960 . S
H47 C42 0.961 . S
H48 C42 0.960 . S
H49 C45 0.960 . S
H50 C45 0.960 . S
H51 C45 0.959 . S
C52 N53 1.317 . S
C52 N54 1.348 . S
C52 C55 1.485 . S
N53 C52 1.317 . S
N53 N57 1.370 . S
N54 C52 1.348 . S
N54 C56 1.346 . S
C55 C52 1.485 . S
C55 H59 0.960 . S
C55 H60 0.961 . S
C55 H61 0.960 . S
C56 N54 1.346 . S
C56 N57 1.307 . S
C56 C58 1.486 . S
N57 N53 1.370 . S
N57 C56 1.307 . S
C58 C56 1.486 . S
C58 H62 0.960 1_565 S
C58 H63 0.960 . S
C58 H64 0.959 . S
H59 C55 0.960 . S
H60 C55 0.961 . S
H61 C55 0.960 . S
H62 C58 0.960 1_545 S
H63 C58 0.960 . S
H64 C58 0.959 . S
C65 N66 1.317 . S
C65 N67 1.348 . S
C65 C68 1.485 . S
N66 C65 1.317 . S
N66 N70 1.370 . S
N67 C65 1.348 . S
N67 C69 1.346 . S
C68 C65 1.485 . S
C68 H72 0.960 . S
C68 H73 0.961 . S
C68 H74 0.960 . S
C69 N67 1.346 . S
C69 N70 1.307 . S
C69 C71 1.486 1_565 S
N70 N66 1.370 . S
N70 C69 1.307 . S
C71 C69 1.486 1_545 S
C71 H75 0.960 . S
C71 H76 0.960 . S
C71 H77 0.959 1_545 S
H72 C68 0.960 . S
H73 C68 0.961 . S
H74 C68 0.960 . S
H75 C71 0.960 . S
H76 C71 0.960 . S
H77 C71 0.959 1_565 S
C78 N79 1.317 . S
C78 N80 1.348 . S
C78 C81 1.485 . S
N79 C78 1.317 . S
N79 N83 1.370 . S
N80 C78 1.348 . S
N80 C82 1.346 . S
C81 C78 1.485 . S
C81 H85 0.960 . S
C81 H86 0.961 . S
C81 H87 0.960 . S
C82 N80 1.346 . S
C82 N83 1.307 . S
C82 C84 1.486 . S
N83 N79 1.370 . S
N83 C82 1.307 . S
C84 C82 1.486 . S
C84 H88 0.960 . S
C84 H89 0.960 . S
C84 H90 0.959 . S
H85 C81 0.960 . S
H86 C81 0.961 . S
H87 C81 0.960 . S
H88 C84 0.960 . S
H89 C84 0.960 . S
H90 C84 0.959 . S
C91 N92 1.317 . S
C91 N93 1.348 . S
C91 C94 1.485 . S
N92 C91 1.317 . S
N92 N96 1.370 . S
N93 C91 1.348 . S
N93 C95 1.346 . S
C94 C91 1.485 . S
C94 H98 0.960 . S
C94 H99 0.961 . S
C94 H100 0.960 . S
C95 N93 1.346 . S
C95 N96 1.307 . S
C95 C97 1.486 . S
N96 N92 1.370 . S
N96 C95 1.307 . S
C97 C95 1.486 . S
C97 H101 0.960 . S
C97 H102 0.960 . S
C97 H103 0.959 . S
H98 C94 0.960 . S
H99 C94 0.961 . S
H100 C94 0.960 . S
H101 C97 0.960 . S
H102 C97 0.960 . S
H103 C97 0.959 . S
C104 N105 1.317 . S
C104 N106 1.348 . S
C104 C107 1.485 . S
N105 C104 1.317 . S
N105 N109 1.370 . S
N106 C104 1.348 . S
N106 C108 1.346 . S
C107 C104 1.485 . S
C107 H111 0.960 . S
C107 H112 0.961 . S
C107 H113 0.960 . S
C108 N106 1.346 . S
C108 N109 1.307 . S
C108 C110 1.486 . S
N109 N105 1.370 . S
N109 C108 1.307 . S
C110 C108 1.486 . S
C110 H114 0.960 . S
C110 H115 0.960 . S
C110 H116 0.959 . S
H111 C107 0.960 . S
H112 C107 0.961 . S
H113 C107 0.960 . S
H114 C110 0.960 . S
H115 C110 0.960 . S
H116 C110 0.959 . S
C117 N118 1.317 1_554 S
C117 N119 1.348 1_554 S
C117 C120 1.485 . S
N118 C117 1.317 1_556 S
N118 N122 1.370 . S
N119 C117 1.348 1_556 S
N119 C121 1.346 . S
C120 C117 1.485 . S
C120 H124 0.960 . S
C120 H125 0.961 . S
C120 H126 0.960 . S
C121 N119 1.346 . S
C121 N122 1.307 . S
C121 C123 1.486 . S
N122 N118 1.370 . S
N122 C121 1.307 . S
C123 C121 1.486 . S
C123 H127 0.960 . S
C123 H128 0.960 . S
C123 H129 0.959 . S
H124 C120 0.960 . S
H125 C120 0.961 . S
H126 C120 0.960 . S
H127 C123 0.960 . S
H128 C123 0.960 . S
H129 C123 0.959 . S
C130 N131 1.317 1_554 S
C130 N132 1.348 1_554 S
C130 C133 1.485 . S
N131 C130 1.317 1_556 S
N131 N135 1.370 . S
N132 C130 1.348 1_556 S
N132 C134 1.346 . S
C133 C130 1.485 . S
C133 H137 0.960 . S
C133 H138 0.961 . S
C133 H139 0.960 . S
C134 N132 1.346 . S
C134 N135 1.307 . S
C134 C136 1.486 . S
N135 N131 1.370 . S
N135 C134 1.307 . S
C136 C134 1.486 . S
C136 H140 0.960 . S
C136 H141 0.960 . S
C136 H142 0.959 . S
H137 C133 0.960 . S
H138 C133 0.961 . S
H139 C133 0.960 . S
H140 C136 0.960 . S
H141 C136 0.960 . S
H142 C136 0.959 . S
C143 N144 1.317 1_554 S
C143 N145 1.348 1_554 S
C143 C146 1.485 . S
N144 C143 1.317 1_556 S
N144 N148 1.370 . S
N145 C143 1.348 1_556 S
N145 C147 1.346 . S
C146 C143 1.485 . S
C146 H150 0.960 . S
C146 H151 0.961 . S
C146 H152 0.960 . S
C147 N145 1.346 . S
C147 N148 1.307 . S
C147 C149 1.486 . S
N148 N144 1.370 . S
N148 C147 1.307 . S
C149 C147 1.486 . S
C149 H153 0.960 . S
C149 H154 0.960 . S
C149 H155 0.959 . S
H150 C146 0.960 . S
H151 C146 0.961 . S
H152 C146 0.960 . S
H153 C149 0.960 . S
H154 C149 0.960 . S
H155 C149 0.959 . S
C156 N157 1.317 . S
C156 N158 1.348 . S
C156 C159 1.485 1_554 S
N157 C156 1.317 . S
N157 N161 1.370 . S
N158 C156 1.348 . S
N158 C160 1.346 . S
C159 C156 1.485 1_556 S
C159 H163 0.960 . S
C159 H164 0.961 . S
C159 H165 0.960 . S
C160 N158 1.346 . S
C160 N161 1.307 . S
C160 C162 1.486 . S
N161 N157 1.370 . S
N161 C160 1.307 . S
C162 C160 1.486 . S
C162 H166 0.960 . S
C162 H167 0.960 . S
C162 H168 0.959 . S
H163 C159 0.960 . S
H164 C159 0.961 . S
H165 C159 0.960 . S
H166 C162 0.960 . S
H167 C162 0.960 . S
H168 C162 0.959 . S
C169 N170 1.317 . S
C169 N171 1.348 . S
C169 C172 1.485 1_554 S
N170 C169 1.317 . S
N170 N174 1.370 . S
N171 C169 1.348 . S
N171 C173 1.346 . S
C172 C169 1.485 1_556 S
C172 H176 0.960 . S
C172 H177 0.961 . S
C172 H178 0.960 . S
C173 N171 1.346 . S
C173 N174 1.307 . S
C173 C175 1.486 . S
N174 N170 1.370 . S
N174 C173 1.307 . S
C175 C173 1.486 . S
C175 H179 0.960 . S
C175 H180 0.960 . S
C175 H181 0.959 . S
H176 C172 0.960 . S
H177 C172 0.961 . S
H178 C172 0.960 . S
H179 C175 0.960 . S
H180 C175 0.960 . S
H181 C175 0.959 . S
C182 N183 1.317 . S
C182 N184 1.348 . S
C182 C185 1.485 1_554 S
N183 C182 1.317 . S
N183 N187 1.370 . S
N184 C182 1.348 . S
N184 C186 1.346 . S
C185 C182 1.485 1_556 S
C185 H189 0.960 . S
C185 H190 0.961 . S
C185 H191 0.960 . S
C186 N184 1.346 . S
C186 N187 1.307 . S
C186 C188 1.486 . S
N187 N183 1.370 . S
N187 C186 1.307 . S
C188 C186 1.486 . S
C188 H192 0.960 . S
C188 H193 0.960 . S
C188 H194 0.959 . S
H189 C185 0.960 . S
H190 C185 0.961 . S
H191 C185 0.960 . S
H192 C188 0.960 . S
H193 C188 0.960 . S
H194 C188 0.959 . S
C195 N196 1.317 . S
C195 N197 1.348 . S
C195 C198 1.485 . S
N196 C195 1.317 . S
N196 N200 1.370 . S
N197 C195 1.348 . S
N197 C199 1.346 . S
C198 C195 1.485 . S
C198 H202 0.960 . S
C198 H203 0.961 . S
C198 H204 0.960 . S
C199 N197 1.346 . S
C199 N200 1.307 . S
C199 C201 1.486 . S
N200 N196 1.370 . S
N200 C199 1.307 . S
C201 C199 1.486 . S
C201 H205 0.960 . S
C201 H206 0.960 . S
C201 H207 0.959 . S
H202 C198 0.960 . S
H203 C198 0.961 . S
H204 C198 0.960 . S
H205 C201 0.960 . S
H206 C201 0.960 . S
H207 C201 0.959 . S
C208 N209 1.317 . S
C208 N210 1.348 . S
C208 C211 1.485 . S
N209 C208 1.317 . S
N209 N213 1.370 . S
N210 C208 1.348 . S
N210 C212 1.346 . S
C211 C208 1.485 . S
C211 H215 0.960 . S
C211 H216 0.961 . S
C211 H217 0.960 . S
C212 N210 1.346 . S
C212 N213 1.307 . S
C212 C214 1.486 . S
N213 N209 1.370 . S
N213 C212 1.307 . S
C214 C212 1.486 . S
C214 H218 0.960 . S
C214 H219 0.960 1_455 S
C214 H220 0.959 . S
H215 C211 0.960 . S
H216 C211 0.961 . S
H217 C211 0.960 . S
H218 C214 0.960 . S
H219 C214 0.960 1_655 S
H220 C214 0.959 . S
C221 N222 1.317 . S
C221 N223 1.348 . S
C221 C224 1.485 . S
N222 C221 1.317 . S
N222 N226 1.370 . S
N223 C221 1.348 . S
N223 C225 1.346 . S
C224 C221 1.485 . S
C224 H228 0.960 . S
C224 H229 0.961 . S
C224 H230 0.960 . S
C225 N223 1.346 . S
C225 N226 1.307 . S
C225 C227 1.486 . S
N226 N222 1.370 . S
N226 C225 1.307 . S
C227 C225 1.486 . S
C227 H231 0.960 . S
C227 H232 0.960 . S
C227 H233 0.959 . S
H228 C224 0.960 . S
H229 C224 0.961 . S
H230 C224 0.960 . S
H231 C227 0.960 . S
H232 C227 0.960 . S
H233 C227 0.959 . S
Tb234 N265 2.660 . S
Tb234 N272 2.600 . S
Tb234 O278 2.546 . S
Tb234 O279 2.610 1_566 S
Tb234 O281 2.320 1_565 S
Tb234 O282 2.552 1_565 S
Tb234 O283 2.413 1_565 S
Tb234 O285 2.362 1_556 S
Tb234 O286 2.421 . S
Tb234 C298 2.833 1_565 S
C235 C238 1.432 . S
C235 C239 1.414 . S
C235 N242 1.359 . S
C236 C238 1.417 . S
C236 C240 1.432 . S
C236 C248 1.410 . S
C237 C239 1.444 . S
C237 C240 1.317 . S
C237 H260 0.929 . S
C238 C235 1.432 . S
C238 C236 1.417 . S
C238 N246 1.360 . S
C239 C235 1.414 . S
C239 C237 1.444 . S
C239 C244 1.385 . S
C240 C236 1.432 . S
C240 C237 1.317 . S
C240 H252 0.930 . S
C241 C243 1.392 . S
C241 C244 1.370 . S
C241 H253 0.931 . S
N242 C235 1.359 . S
N242 C243 1.327 . S
N242 Tb245 2.600 . S
C243 C241 1.392 . S
C243 N242 1.327 . S
C243 H250 0.930 . S
C244 C239 1.385 . S
C244 C241 1.370 . S
C244 H263 0.930 . S
Tb245 N242 2.600 . S
Tb245 N246 2.660 . S
Tb245 O279 2.362 . S
Tb245 O280 2.421 . S
Tb245 O284 2.546 . S
Tb245 O285 2.610 1_545 S
Tb245 O287 2.320 1_545 S
Tb245 O288 2.552 1_545 S
Tb245 O289 2.413 1_545 S
Tb245 C309 2.833 1_545 S
N246 C238 1.360 . S
N246 Tb245 2.660 . S
N246 C247 1.305 . S
C247 N246 1.305 . S
C247 C249 1.407 . S
C247 H254 0.930 . S
C248 C236 1.410 . S
C248 C249 1.345 . S
C248 H256 0.930 . S
C249 C247 1.407 . S
C249 C248 1.345 . S
C249 H251 0.930 . S
H250 C243 0.930 . S
H251 C249 0.930 . S
H252 C240 0.930 . S
H253 C241 0.931 . S
H254 C247 0.930 . S
H255 C269 0.930 . S
H256 C248 0.930 . S
H257 C275 0.930 . S
H258 C266 0.930 . S
H259 C273 0.931 . S
H260 C237 0.929 . S
H261 C267 0.930 . S
H262 C300 0.930 . S
H263 C244 0.930 . S
H264 C299 0.929 . S
N265 Tb234 2.660 . S
N265 C266 1.305 . S
N265 C270 1.360 . S
C266 H258 0.930 . S
C266 N265 1.305 . S
C266 C269 1.407 . S
C267 H261 0.930 . S
C267 C268 1.410 . S
C267 C269 1.345 . S
C268 C267 1.410 . S
C268 C270 1.417 . S
C268 C300 1.432 . S
C269 H255 0.930 . S
C269 C266 1.407 . S
C269 C267 1.345 . S
C270 N265 1.360 . S
C270 C268 1.417 . S
C270 C274 1.432 . S
H271 C276 0.930 . S
N272 Tb234 2.600 . S
N272 C274 1.359 . S
N272 C275 1.327 . S
C273 H259 0.931 . S
C273 C275 1.392 . S
C273 C276 1.370 . S
C274 C270 1.432 . S
C274 N272 1.359 . S
C274 C277 1.414 . S
C275 H257 0.930 . S
C275 N272 1.327 . S
C275 C273 1.392 . S
C276 H271 0.930 . S
C276 C273 1.370 . S
C276 C277 1.385 . S
C277 C274 1.414 . S
C277 C276 1.385 . S
C277 C299 1.444 . S
O278 Tb234 2.546 . S
O278 C298 1.251 1_565 S
O279 Tb234 2.610 1_544 S
O279 Tb245 2.362 . S
O279 C290 1.283 1_554 S
O280 Tb245 2.421 . S
O280 C297 1.262 1_554 S
O281 Tb234 2.320 1_545 S
O281 C297 1.260 . S
O282 Tb234 2.552 1_545 S
O282 C290 1.243 . S
O283 Tb234 2.413 1_545 S
O283 C298 1.256 . S
O284 Tb245 2.546 . S
O284 C309 1.251 1_545 S
O285 Tb234 2.362 1_554 S
O285 Tb245 2.610 1_565 S
O285 C301 1.283 . S
O286 Tb234 2.421 . S
O286 C308 1.262 1_556 S
O287 Tb245 2.320 1_565 S
O287 C308 1.260 . S
O288 Tb245 2.552 1_565 S
O288 C301 1.243 . S
O289 Tb245 2.413 1_565 S
O289 C309 1.256 . S
C290 O279 1.283 1_556 S
C290 O282 1.243 . S
C291 C293 1.382 . S
C291 C295 1.393 1_545 S
C291 C298 1.500 . S
C292 C293 1.400 . S
C292 C294 1.384 . S
C293 C291 1.382 . S
C293 C292 1.400 . S
C293 H310 0.930 . S
C294 C292 1.384 . S
C294 C296 1.392 . S
C294 H311 0.931 . S
C295 C291 1.393 1_565 S
C295 C296 1.401 1_565 S
C295 H312 0.930 . S
C296 C294 1.392 . S
C296 C295 1.401 1_545 S
C296 H313 0.930 1_545 S
C297 O280 1.262 1_556 S
C297 O281 1.260 . S
C298 Tb234 2.833 1_545 S
C298 O278 1.251 1_545 S
C298 O283 1.256 . S
C298 C291 1.500 . S
C299 H264 0.929 . S
C299 C277 1.444 . S
C299 C300 1.317 . S
C300 H262 0.930 . S
C300 C268 1.432 . S
C300 C299 1.317 . S
C301 O285 1.283 . S
C301 O288 1.243 . S
C302 C303 1.382 . S
C302 C306 1.393 1_565 S
C302 C309 1.500 . S
C303 C302 1.382 . S
C303 C304 1.400 . S
C303 H314 0.930 . S
C304 C303 1.400 . S
C304 C305 1.384 . S
C305 C304 1.384 . S
C305 C307 1.392 . S
C305 H315 0.931 . S
C306 C302 1.393 1_545 S
C306 C307 1.401 1_545 S
C306 H316 0.930 . S
C307 C305 1.392 . S
C307 C306 1.401 1_565 S
C307 H317 0.930 1_565 S
C308 O286 1.262 1_554 S
C308 O287 1.260 . S
C309 Tb245 2.833 1_565 S
C309 O284 1.251 1_565 S
C309 O289 1.256 . S
C309 C302 1.500 . S
H310 C293 0.930 . S
H311 C294 0.931 . S
H312 C295 0.930 . S
H313 C296 0.930 1_565 S
H314 C303 0.930 . S
H315 C305 0.931 . S
H316 C306 0.930 . S
H317 C307 0.930 1_545 S
Tb318 N349 2.660 . S
Tb318 N356 2.600 . S
Tb318 O362 2.546 . S
Tb318 O363 2.610 1_455 S
Tb318 O365 2.320 1_455 S
Tb318 O366 2.552 1_455 S
Tb318 O367 2.413 . S
Tb318 O369 2.362 1_556 S
Tb318 O370 2.421 . S
Tb318 C382 2.833 . S
C319 C322 1.432 . S
C319 C323 1.414 . S
C319 N326 1.359 . S
C320 C322 1.417 . S
C320 C324 1.432 . S
C320 C332 1.410 . S
C321 C323 1.444 . S
C321 C324 1.317 . S
C321 H344 0.929 . S
C322 C319 1.432 . S
C322 C320 1.417 . S
C322 N330 1.360 . S
C323 C319 1.414 . S
C323 C321 1.444 . S
C323 C328 1.385 . S
C324 C320 1.432 . S
C324 C321 1.317 . S
C324 H336 0.930 . S
C325 C327 1.392 . S
C325 C328 1.370 . S
C325 H337 0.931 . S
N326 C319 1.359 . S
N326 C327 1.327 . S
N326 Tb329 2.600 . S
C327 C325 1.392 . S
C327 N326 1.327 . S
C327 H334 0.930 . S
C328 C323 1.385 . S
C328 C325 1.370 . S
C328 H347 0.930 . S
Tb329 N326 2.600 . S
Tb329 N330 2.660 . S
Tb329 O363 2.362 1_554 S
Tb329 O364 2.421 . S
Tb329 O368 2.546 . S
Tb329 O369 2.610 1_655 S
Tb329 O371 2.320 1_655 S
Tb329 O372 2.552 1_655 S
Tb329 O373 2.413 . S
Tb329 C393 2.833 . S
N330 C322 1.360 . S
N330 Tb329 2.660 . S
N330 C331 1.305 . S
C331 N330 1.305 . S
C331 C333 1.407 . S
C331 H338 0.930 . S
C332 C320 1.410 . S
C332 C333 1.345 . S
C332 H340 0.930 . S
C333 C331 1.407 . S
C333 C332 1.345 . S
C333 H335 0.930 . S
H334 C327 0.930 . S
H335 C333 0.930 . S
H336 C324 0.930 . S
H337 C325 0.931 . S
H338 C331 0.930 . S
H339 C353 0.930 . S
H340 C332 0.930 . S
H341 C359 0.930 . S
H342 C350 0.930 . S
H343 C357 0.931 . S
H344 C321 0.929 . S
H345 C351 0.930 . S
H346 C384 0.930 . S
H347 C328 0.930 . S
H348 C383 0.929 . S
N349 Tb318 2.660 . S
N349 C350 1.305 . S
N349 C354 1.360 . S
C350 H342 0.930 . S
C350 N349 1.305 . S
C350 C353 1.407 . S
C351 H345 0.930 . S
C351 C352 1.410 . S
C351 C353 1.345 . S
C352 C351 1.410 . S
C352 C354 1.417 . S
C352 C384 1.432 . S
C353 H339 0.930 . S
C353 C350 1.407 . S
C353 C351 1.345 . S
C354 N349 1.360 . S
C354 C352 1.417 . S
C354 C358 1.432 . S
H355 C360 0.930 . S
N356 Tb318 2.600 . S
N356 C358 1.359 . S
N356 C359 1.327 . S
C357 H343 0.931 . S
C357 C359 1.392 . S
C357 C360 1.370 . S
C358 C354 1.432 . S
C358 N356 1.359 . S
C358 C361 1.414 . S
C359 H341 0.930 . S
C359 N356 1.327 . S
C359 C357 1.392 . S
C360 H355 0.930 . S
C360 C357 1.370 . S
C360 C361 1.385 . S
C361 C358 1.414 . S
C361 C360 1.385 . S
C361 C383 1.444 . S
O362 Tb318 2.546 . S
O362 C382 1.251 . S
O363 Tb318 2.610 1_655 S
O363 Tb329 2.362 1_556 S
O363 C374 1.283 . S
O364 Tb329 2.421 . S
O364 C381 1.262 1_554 S
O365 Tb318 2.320 1_655 S
O365 C381 1.260 . S
O366 Tb318 2.552 1_655 S
O366 C374 1.243 . S
O367 Tb318 2.413 . S
O367 C382 1.256 . S
O368 Tb329 2.546 . S
O368 C393 1.251 . S
O369 Tb318 2.362 1_554 S
O369 Tb329 2.610 1_455 S
O369 C385 1.283 . S
O370 Tb318 2.421 . S
O370 C392 1.262 1_556 S
O371 Tb329 2.320 1_455 S
O371 C392 1.260 . S
O372 Tb329 2.552 1_455 S
O372 C385 1.243 . S
O373 Tb329 2.413 . S
O373 C393 1.256 . S
C374 O363 1.283 . S
C374 O366 1.243 . S
C375 C377 1.382 1_455 S
C375 C379 1.393 . S
C375 C382 1.500 . S
C376 C377 1.400 . S
C376 C378 1.384 1_655 S
C377 C375 1.382 1_655 S
C377 C376 1.400 . S
C377 H394 0.930 . S
C378 C376 1.384 1_455 S
C378 C380 1.392 . S
C378 H395 0.931 . S
C379 C375 1.393 . S
C379 C380 1.401 . S
C379 H396 0.930 . S
C380 C378 1.392 . S
C380 C379 1.401 . S
C380 H397 0.930 . S
C381 O364 1.262 1_556 S
C381 O365 1.260 . S
C382 Tb318 2.833 . S
C382 O362 1.251 . S
C382 O367 1.256 . S
C382 C375 1.500 . S
C383 H348 0.929 . S
C383 C361 1.444 . S
C383 C384 1.317 . S
C384 H346 0.930 . S
C384 C352 1.432 . S
C384 C383 1.317 . S
C385 O369 1.283 . S
C385 O372 1.243 . S
C386 C387 1.382 1_655 S
C386 C390 1.393 . S
C386 C393 1.500 . S
C387 C386 1.382 1_455 S
C387 C388 1.400 . S
C387 H398 0.930 . S
C388 C387 1.400 . S
C388 C389 1.384 1_455 S
C389 C388 1.384 1_655 S
C389 C391 1.392 . S
C389 H399 0.931 . S
C390 C386 1.393 . S
C390 C391 1.401 . S
C390 H400 0.930 . S
C391 C389 1.392 . S
C391 C390 1.401 . S
C391 H401 0.930 . S
C392 O370 1.262 1_554 S
C392 O371 1.260 . S
C393 Tb329 2.833 . S
C393 O368 1.251 . S
C393 O373 1.256 . S
C393 C386 1.500 . S
H394 C377 0.930 . S
H395 C378 0.931 . S
H396 C379 0.930 . S
H397 C380 0.930 . S
H398 C387 0.930 . S
H399 C389 0.931 . S
H400 C390 0.930 . S
H401 C391 0.930 . S
Tb402 N433 2.660 . S
Tb402 N440 2.600 . S
Tb402 O446 2.546 . S
Tb402 O447 2.610 . S
Tb402 O449 2.320 . S
Tb402 O450 2.552 . S
Tb402 O451 2.413 . S
Tb402 O453 2.362 . S
Tb402 O454 2.421 . S
Tb402 C466 2.833 . S
C403 C406 1.432 . S
C403 C407 1.414 . S
C403 N410 1.359 . S
C404 C406 1.417 . S
C404 C408 1.432 . S
C404 C416 1.410 . S
C405 C407 1.444 . S
C405 C408 1.317 . S
C405 H428 0.929 . S
C406 C403 1.432 . S
C406 C404 1.417 . S
C406 N414 1.360 . S
C407 C403 1.414 . S
C407 C405 1.444 . S
C407 C412 1.385 . S
C408 C404 1.432 . S
C408 C405 1.317 . S
C408 H420 0.930 . S
C409 C411 1.392 . S
C409 C412 1.370 . S
C409 H421 0.931 . S
N410 C403 1.359 . S
N410 C411 1.327 . S
N410 Tb413 2.600 . S
C411 C409 1.392 . S
C411 N410 1.327 . S
C411 H418 0.930 . S
C412 C407 1.385 . S
C412 C409 1.370 . S
C412 H431 0.930 . S
Tb413 N410 2.600 . S
Tb413 N414 2.660 . S
Tb413 O447 2.362 1_556 S
Tb413 O448 2.421 . S
Tb413 O452 2.546 . S
Tb413 O453 2.610 1_556 S
Tb413 O455 2.320 . S
Tb413 O456 2.552 . S
Tb413 O457 2.413 . S
Tb413 C477 2.833 . S
N414 C406 1.360 . S
N414 Tb413 2.660 . S
N414 C415 1.305 . S
C415 N414 1.305 . S
C415 C417 1.407 . S
C415 H422 0.930 . S
C416 C404 1.410 . S
C416 C417 1.345 . S
C416 H424 0.930 . S
C417 C415 1.407 . S
C417 C416 1.345 . S
C417 H419 0.930 . S
H418 C411 0.930 . S
H419 C417 0.930 . S
H420 C408 0.930 . S
H421 C409 0.931 . S
H422 C415 0.930 . S
H423 C437 0.930 . S
H424 C416 0.930 . S
H425 C443 0.930 . S
H426 C434 0.930 . S
H427 C441 0.931 . S
H428 C405 0.929 . S
H429 C435 0.930 . S
H430 C468 0.930 . S
H431 C412 0.930 . S
H432 C467 0.929 . S
N433 Tb402 2.660 . S
N433 C434 1.305 . S
N433 C438 1.360 . S
C434 H426 0.930 . S
C434 N433 1.305 . S
C434 C437 1.407 . S
C435 H429 0.930 . S
C435 C436 1.410 . S
C435 C437 1.345 . S
C436 C435 1.410 . S
C436 C438 1.417 . S
C436 C468 1.432 . S
C437 H423 0.930 . S
C437 C434 1.407 . S
C437 C435 1.345 . S
C438 N433 1.360 . S
C438 C436 1.417 . S
C438 C442 1.432 . S
H439 C444 0.930 . S
N440 Tb402 2.600 . S
N440 C442 1.359 . S
N440 C443 1.327 . S
C441 H427 0.931 . S
C441 C443 1.392 . S
C441 C444 1.370 . S
C442 C438 1.432 . S
C442 N440 1.359 . S
C442 C445 1.414 . S
C443 H425 0.930 . S
C443 N440 1.327 . S
C443 C441 1.392 . S
C444 H439 0.930 . S
C444 C441 1.370 . S
C444 C445 1.385 . S
C445 C442 1.414 . S
C445 C444 1.385 . S
C445 C467 1.444 . S
O446 Tb402 2.546 . S
O446 C466 1.251 . S
O447 Tb402 2.610 . S
O447 Tb413 2.362 1_554 S
O447 C458 1.283 . S
O448 Tb413 2.421 . S
O448 C465 1.262 1_556 S
O449 Tb402 2.320 . S
O449 C465 1.260 . S
O450 Tb402 2.552 . S
O450 C458 1.243 . S
O451 Tb402 2.413 . S
O451 C466 1.256 . S
O452 Tb413 2.546 . S
O452 C477 1.251 . S
O453 Tb402 2.362 . S
O453 Tb413 2.610 1_554 S
O453 C469 1.283 1_554 S
O454 Tb402 2.421 . S
O454 C476 1.262 . S
O455 Tb413 2.320 . S
O455 C476 1.260 1_556 S
O456 Tb413 2.552 . S
O456 C469 1.243 . S
O457 Tb413 2.413 . S
O457 C477 1.256 . S
C458 O447 1.283 . S
C458 O450 1.243 . S
C459 C461 1.382 . S
C459 C463 1.393 . S
C459 C466 1.500 . S
C460 C461 1.400 . S
C460 C462 1.384 . S
C461 C459 1.382 . S
C461 C460 1.400 . S
C461 H478 0.930 . S
C462 C460 1.384 . S
C462 C464 1.392 . S
C462 H479 0.931 . S
C463 C459 1.393 . S
C463 C464 1.401 . S
C463 H480 0.930 . S
C464 C462 1.392 . S
C464 C463 1.401 . S
C464 H481 0.930 . S
C465 O448 1.262 1_554 S
C465 O449 1.260 . S
C466 Tb402 2.833 . S
C466 O446 1.251 . S
C466 O451 1.256 . S
C466 C459 1.500 . S
C467 H432 0.929 . S
C467 C445 1.444 . S
C467 C468 1.317 . S
C468 H430 0.930 . S
C468 C436 1.432 . S
C468 C467 1.317 . S
C469 O453 1.283 1_556 S
C469 O456 1.243 . S
C470 C471 1.382 . S
C470 C474 1.393 . S
C470 C477 1.500 . S
C471 C470 1.382 . S
C471 C472 1.400 . S
C471 H482 0.930 . S
C472 C471 1.400 . S
C472 C473 1.384 . S
C473 C472 1.384 . S
C473 C475 1.392 . S
C473 H483 0.931 . S
C474 C470 1.393 . S
C474 C475 1.401 . S
C474 H484 0.930 . S
C475 C473 1.392 . S
C475 C474 1.401 . S
C475 H485 0.930 . S
C476 O454 1.262 . S
C476 O455 1.260 1_554 S
C477 Tb413 2.833 . S
C477 O452 1.251 . S
C477 O457 1.256 . S
C477 C470 1.500 . S
H478 C461 0.930 . S
H479 C462 0.931 . S
H480 C463 0.930 . S
H481 C464 0.930 . S
H482 C471 0.930 . S
H483 C473 0.931 . S
H484 C474 0.930 . S
H485 C475 0.930 . S
Tb486 N517 2.660 . S
Tb486 N524 2.600 . S
Tb486 O530 2.546 . S
Tb486 O531 2.610 . S
Tb486 O533 2.320 . S
Tb486 O534 2.552 . S
Tb486 O535 2.413 . S
Tb486 O537 2.362 . S
Tb486 O538 2.421 . S
Tb486 C550 2.833 . S
C487 C490 1.432 . S
C487 C491 1.414 . S
C487 N494 1.359 . S
C488 C490 1.417 . S
C488 C492 1.432 . S
C488 C500 1.410 . S
C489 C491 1.444 . S
C489 C492 1.317 . S
C489 H512 0.929 . S
C490 C487 1.432 . S
C490 C488 1.417 . S
C490 N498 1.360 . S
C491 C487 1.414 . S
C491 C489 1.444 . S
C491 C496 1.385 . S
C492 C488 1.432 . S
C492 C489 1.317 . S
C492 H504 0.930 . S
C493 C495 1.392 . S
C493 C496 1.370 . S
C493 H505 0.931 . S
N494 C487 1.359 . S
N494 C495 1.327 . S
N494 Tb497 2.600 . S
C495 C493 1.392 . S
C495 N494 1.327 . S
C495 H502 0.930 . S
C496 C491 1.385 . S
C496 C493 1.370 . S
C496 H515 0.930 . S
Tb497 N494 2.600 . S
Tb497 N498 2.660 . S
Tb497 O531 2.362 . S
Tb497 O532 2.421 . S
Tb497 O536 2.546 . S
Tb497 O537 2.610 . S
Tb497 O539 2.320 . S
Tb497 O540 2.552 . S
Tb497 O541 2.413 . S
Tb497 C561 2.833 . S
N498 C490 1.360 . S
N498 Tb497 2.660 . S
N498 C499 1.305 . S
C499 N498 1.305 . S
C499 C501 1.407 . S
C499 H506 0.930 . S
C500 C488 1.410 . S
C500 C501 1.345 . S
C500 H508 0.930 . S
C501 C499 1.407 . S
C501 C500 1.345 . S
C501 H503 0.930 . S
H502 C495 0.930 . S
H503 C501 0.930 . S
H504 C492 0.930 . S
H505 C493 0.931 . S
H506 C499 0.930 . S
H507 C521 0.930 . S
H508 C500 0.930 . S
H509 C527 0.930 . S
H510 C518 0.930 . S
H511 C525 0.931 . S
H512 C489 0.929 . S
H513 C519 0.930 . S
H514 C552 0.930 . S
H515 C496 0.930 . S
H516 C551 0.929 1_565 S
N517 Tb486 2.660 . S
N517 C518 1.305 1_455 S
N517 C522 1.360 1_455 S
C518 H510 0.930 . S
C518 N517 1.305 1_655 S
C518 C521 1.407 . S
C519 H513 0.930 . S
C519 C520 1.410 . S
C519 C521 1.345 . S
C520 C519 1.410 . S
C520 C522 1.417 . S
C520 C552 1.432 . S
C521 H507 0.930 . S
C521 C518 1.407 . S
C521 C519 1.345 . S
C522 N517 1.360 1_655 S
C522 C520 1.417 . S
C522 C526 1.432 1_655 S
H523 C528 0.919 1_565 S
N524 Tb486 2.600 . S
N524 C526 1.359 . S
N524 C527 1.327 . S
C525 H511 0.931 . S
C525 C527 1.392 . S
C525 C528 1.370 . S
C526 C522 1.432 1_455 S
C526 N524 1.359 . S
C526 C529 1.414 1_455 S
C527 H509 0.930 . S
C527 N524 1.327 . S
C527 C525 1.392 . S
C528 H523 0.919 1_545 S
C528 C525 1.370 . S
C528 C529 1.385 1_455 S
C529 C526 1.414 1_655 S
C529 C528 1.385 1_655 S
C529 C551 1.444 . S
O530 Tb486 2.546 . S
O530 C550 1.251 . S
O531 Tb486 2.610 . S
O531 Tb497 2.362 . S
O531 C542 1.283 . S
O532 Tb497 2.421 . S
O532 C549 1.262 . S
O533 Tb486 2.320 . S
O533 C549 1.260 . S
O534 Tb486 2.552 . S
O534 C542 1.243 . S
O535 Tb486 2.413 . S
O535 C550 1.256 . S
O536 Tb497 2.546 . S
O536 C561 1.251 . S
O537 Tb486 2.362 . S
O537 Tb497 2.610 . S
O537 C553 1.283 . S
O538 Tb486 2.421 . S
O538 C560 1.262 . S
O539 Tb497 2.320 . S
O539 C560 1.260 . S
O540 Tb497 2.552 . S
O540 C553 1.243 . S
O541 Tb497 2.413 . S
O541 C561 1.256 . S
C542 O531 1.283 . S
C542 O534 1.243 . S
C543 C545 1.382 . S
C543 C547 1.393 . S
C543 C550 1.500 . S
C544 C545 1.400 . S
C544 C546 1.384 . S
C545 C543 1.382 . S
C545 C544 1.400 . S
C545 H562 0.930 . S
C546 C544 1.384 . S
C546 C548 1.392 . S
C546 H563 0.931 . S
C547 C543 1.393 . S
C547 C548 1.401 . S
C547 H564 0.930 . S
C548 C546 1.392 . S
C548 C547 1.401 . S
C548 H565 0.930 . S
C549 O532 1.262 . S
C549 O533 1.260 . S
C550 Tb486 2.833 . S
C550 O530 1.251 . S
C550 O535 1.256 . S
C550 C543 1.500 . S
C551 H516 0.929 1_545 S
C551 C529 1.444 . S
C551 C552 1.317 . S
C552 H514 0.930 . S
C552 C520 1.432 . S
C552 C551 1.317 . S
C553 O537 1.283 . S
C553 O540 1.243 . S
C554 C555 1.382 . S
C554 C558 1.393 . S
C554 C561 1.500 . S
C555 C554 1.382 . S
C555 C556 1.400 . S
C555 H566 0.930 . S
C556 C555 1.400 . S
C556 C557 1.384 . S
C557 C556 1.384 . S
C557 C559 1.392 . S
C557 H567 0.931 . S
C558 C554 1.393 . S
C558 C559 1.401 . S
C558 H568 0.930 . S
C559 C557 1.392 . S
C559 C558 1.401 . S
C559 H569 0.930 . S
C560 O538 1.262 . S
C560 O539 1.260 . S
C561 Tb497 2.833 . S
C561 O536 1.251 . S
C561 O541 1.256 . S
C561 C554 1.500 . S
H562 C545 0.930 . S
H563 C546 0.931 . S
H564 C547 0.930 . S
H565 C548 0.930 . S
H566 C555 0.930 . S
H567 C557 0.931 . S
H568 C558 0.930 . S
H569 C559 0.930 . S
Tb570 N601 2.660 . S
Tb570 N608 2.600 . S
Tb570 O614 2.546 . S
Tb570 O615 2.610 . S
Tb570 O617 2.320 . S
Tb570 O618 2.552 . S
Tb570 O619 2.413 . S
Tb570 O621 2.362 . S
Tb570 O622 2.421 1_565 S
Tb570 C634 2.833 . S
C571 C574 1.432 . S
C571 C575 1.414 . S
C571 N578 1.359 . S
C572 C574 1.417 . S
C572 C576 1.432 . S
C572 C584 1.410 . S
C573 C575 1.444 . S
C573 C576 1.317 . S
C573 H596 0.929 . S
C574 C571 1.432 . S
C574 C572 1.417 . S
C574 N582 1.360 . S
C575 C571 1.414 . S
C575 C573 1.444 . S
C575 C580 1.385 . S
C576 C572 1.432 . S
C576 C573 1.317 . S
C576 H588 0.930 . S
C577 C579 1.392 . S
C577 C580 1.370 . S
C577 H589 0.931 . S
N578 C571 1.359 . S
N578 C579 1.327 . S
N578 Tb581 2.600 . S
C579 C577 1.392 . S
C579 N578 1.327 . S
C579 H586 0.930 . S
C580 C575 1.385 . S
C580 C577 1.370 . S
C580 H599 0.930 . S
Tb581 N578 2.600 . S
Tb581 N582 2.660 . S
Tb581 O615 2.362 . S
Tb581 O616 2.421 . S
Tb581 O620 2.546 . S
Tb581 O621 2.610 . S
Tb581 O623 2.320 . S
Tb581 O624 2.552 . S
Tb581 O625 2.413 . S
Tb581 C645 2.833 . S
N582 C574 1.360 . S
N582 Tb581 2.660 . S
N582 C583 1.305 . S
C583 N582 1.305 . S
C583 C585 1.407 . S
C583 H590 0.930 . S
C584 C572 1.410 . S
C584 C585 1.345 . S
C584 H592 0.930 . S
C585 C583 1.407 . S
C585 C584 1.345 . S
C585 H587 0.930 1_565 S
H586 C579 0.930 . S
H587 C585 0.930 1_545 S
H588 C576 0.930 . S
H589 C577 0.931 . S
H590 C583 0.930 . S
H591 C605 0.930 . S
H592 C584 0.930 . S
H593 C611 0.930 . S
H594 C602 0.930 . S
H595 C609 0.931 . S
H596 C573 0.929 . S
H597 C603 0.930 1_455 S
H598 C636 0.930 . S
H599 C580 0.930 . S
H600 C635 0.929 . S
N601 Tb570 2.660 . S
N601 C602 1.305 . S
N601 C606 1.360 . S
C602 H594 0.930 . S
C602 N601 1.305 . S
C602 C605 1.407 . S
C603 H597 0.930 1_655 S
C603 C604 1.410 . S
C603 C605 1.345 . S
C604 C603 1.410 . S
C604 C606 1.417 . S
C604 C636 1.432 1_655 S
C605 H591 0.930 . S
C605 C602 1.407 . S
C605 C603 1.345 . S
C606 N601 1.360 . S
C606 C604 1.417 . S
C606 C610 1.432 . S
H607 C612 0.930 . S
N608 Tb570 2.600 . S
N608 C610 1.359 . S
N608 C611 1.327 1_565 S
C609 H595 0.931 . S
C609 C611 1.392 . S
C609 C612 1.370 1_655 S
C610 C606 1.432 . S
C610 N608 1.359 . S
C610 C613 1.414 1_665 S
C611 H593 0.930 . S
C611 N608 1.327 1_545 S
C611 C609 1.392 . S
C612 H607 0.930 . S
C612 C609 1.370 1_455 S
C612 C613 1.385 . S
C613 C610 1.414 1_445 S
C613 C612 1.385 . S
C613 C635 1.444 . S
O614 Tb570 2.546 . S
O614 C634 1.251 . S
O615 Tb570 2.610 . S
O615 Tb581 2.362 . S
O615 C626 1.283 . S
O616 Tb581 2.421 . S
O616 C633 1.262 . S
O617 Tb570 2.320 . S
O617 C633 1.260 . S
O618 Tb570 2.552 . S
O618 C626 1.243 . S
O619 Tb570 2.413 . S
O619 C634 1.256 . S
O620 Tb581 2.546 . S
O620 C645 1.251 . S
O621 Tb570 2.362 . S
O621 Tb581 2.610 . S
O621 C637 1.283 . S
O622 Tb570 2.421 1_545 S
O622 C644 1.262 . S
O623 Tb581 2.320 . S
O623 C644 1.260 1_565 S
O624 Tb581 2.552 . S
O624 C637 1.243 . S
O625 Tb581 2.413 . S
O625 C645 1.256 . S
C626 O615 1.283 . S
C626 O618 1.243 . S
C627 C629 1.382 . S
C627 C631 1.393 . S
C627 C634 1.500 . S
C628 C629 1.400 . S
C628 C630 1.384 . S
C629 C627 1.382 . S
C629 C628 1.400 . S
C629 H646 0.930 . S
C630 C628 1.384 . S
C630 C632 1.392 . S
C630 H647 0.931 . S
C631 C627 1.393 . S
C631 C632 1.401 . S
C631 H648 0.930 1_565 S
C632 C630 1.392 . S
C632 C631 1.401 . S
C632 H649 0.930 1_565 S
C633 O616 1.262 . S
C633 O617 1.260 . S
C634 Tb570 2.833 . S
C634 O614 1.251 . S
C634 O619 1.256 . S
C634 C627 1.500 . S
C635 H600 0.929 . S
C635 C613 1.444 . S
C635 C636 1.317 1_545 S
C636 H598 0.930 . S
C636 C604 1.432 1_455 S
C636 C635 1.317 1_565 S
C637 O621 1.283 . S
C637 O624 1.243 . S
C638 C639 1.382 . S
C638 C642 1.393 . S
C638 C645 1.500 . S
C639 C638 1.382 . S
C639 C640 1.400 . S
C639 H650 0.930 . S
C640 C639 1.400 . S
C640 C641 1.384 . S
C641 C640 1.384 . S
C641 C643 1.392 . S
C641 H651 0.931 . S
C642 C638 1.393 . S
C642 C643 1.401 . S
C642 H652 0.930 . S
C643 C641 1.392 . S
C643 C642 1.401 . S
C643 H653 0.930 . S
C644 O622 1.262 . S
C644 O623 1.260 1_545 S
C645 Tb581 2.833 . S
C645 O620 1.251 . S
C645 O625 1.256 . S
C645 C638 1.500 . S
H646 C629 0.930 . S
H647 C630 0.931 . S
H648 C631 0.930 1_545 S
H649 C632 0.930 1_545 S
H650 C639 0.930 . S
H651 C641 0.931 . S
H652 C642 0.930 . S
H653 C643 0.930 . S
Tb654 N685 2.660 . S
Tb654 N692 2.600 . S
Tb654 O698 2.546 . S
Tb654 O699 2.610 . S
Tb654 O701 2.320 . S
Tb654 O702 2.552 . S
Tb654 O703 2.413 . S
Tb654 O705 2.362 . S
Tb654 O706 2.421 . S
Tb654 C718 2.833 . S
C655 C658 1.432 . S
C655 C659 1.414 . S
C655 N662 1.359 1_655 S
C656 C658 1.417 . S
C656 C660 1.432 . S
C656 C668 1.410 . S
C657 C659 1.444 . S
C657 C660 1.317 . S
C657 H680 0.929 . S
C658 C655 1.432 . S
C658 C656 1.417 . S
C658 N666 1.360 . S
C659 C655 1.414 . S
C659 C657 1.444 . S
C659 C664 1.385 1_665 S
C660 C656 1.432 . S
C660 C657 1.317 . S
C660 H672 0.930 . S
C661 C663 1.392 . S
C661 C664 1.370 . S
C661 H673 0.931 . S
N662 C655 1.359 1_455 S
N662 C663 1.327 1_565 S
N662 Tb665 2.600 . S
C663 C661 1.392 . S
C663 N662 1.327 1_545 S
C663 H670 0.930 . S
C664 C659 1.385 1_445 S
C664 C661 1.370 . S
C664 H683 0.930 . S
Tb665 N662 2.600 . S
Tb665 N666 2.660 1_455 S
Tb665 O699 2.362 . S
Tb665 O700 2.421 . S
Tb665 O704 2.546 . S
Tb665 O705 2.610 . S
Tb665 O707 2.320 . S
Tb665 O708 2.552 . S
Tb665 O709 2.413 . S
Tb665 C729 2.833 . S
N666 C658 1.360 . S
N666 Tb665 2.660 1_655 S
N666 C667 1.305 . S
C667 N666 1.305 . S
C667 C669 1.407 . S
C667 H674 0.930 . S
C668 C656 1.410 . S
C668 C669 1.345 . S
C668 H676 0.930 . S
C669 C667 1.407 . S
C669 C668 1.345 . S
C669 H671 0.930 . S
H670 C663 0.930 . S
H671 C669 0.930 . S
H672 C660 0.930 . S
H673 C661 0.931 . S
H674 C667 0.930 . S
H675 C689 0.930 . S
H676 C668 0.930 . S
H677 C695 0.930 . S
H678 C686 0.930 . S
H679 C693 0.931 . S
H680 C657 0.929 . S
H681 C687 0.930 . S
H682 C720 0.930 . S
H683 C664 0.930 . S
H684 C719 0.929 . S
N685 Tb654 2.660 . S
N685 C686 1.305 . S
N685 C690 1.360 . S
C686 H678 0.930 . S
C686 N685 1.305 . S
C686 C689 1.407 . S
C687 H681 0.930 . S
C687 C688 1.410 . S
C687 C689 1.345 . S
C688 C687 1.410 . S
C688 C690 1.417 . S
C688 C720 1.432 . S
C689 H675 0.930 . S
C689 C686 1.407 . S
C689 C687 1.345 . S
C690 N685 1.360 . S
C690 C688 1.417 . S
C690 C694 1.432 . S
H691 C696 0.930 . S
N692 Tb654 2.600 . S
N692 C694 1.359 . S
N692 C695 1.327 . S
C693 H679 0.931 . S
C693 C695 1.392 . S
C693 C696 1.370 . S
C694 C690 1.432 . S
C694 N692 1.359 . S
C694 C697 1.414 . S
C695 H677 0.930 . S
C695 N692 1.327 . S
C695 C693 1.392 . S
C696 H691 0.930 . S
C696 C693 1.370 . S
C696 C697 1.385 . S
C697 C694 1.414 . S
C697 C696 1.385 . S
C697 C719 1.444 . S
O698 Tb654 2.546 . S
O698 C718 1.251 . S
O699 Tb654 2.610 . S
O699 Tb665 2.362 . S
O699 C710 1.283 . S
O700 Tb665 2.421 . S
O700 C717 1.262 . S
O701 Tb654 2.320 . S
O701 C717 1.260 . S
O702 Tb654 2.552 . S
O702 C710 1.243 . S
O703 Tb654 2.413 . S
O703 C718 1.256 . S
O704 Tb665 2.546 . S
O704 C729 1.251 . S
O705 Tb654 2.362 . S
O705 Tb665 2.610 . S
O705 C721 1.283 . S
O706 Tb654 2.421 . S
O706 C728 1.262 . S
O707 Tb665 2.320 . S
O707 C728 1.260 . S
O708 Tb665 2.552 . S
O708 C721 1.243 . S
O709 Tb665 2.413 . S
O709 C729 1.256 . S
C710 O699 1.283 . S
C710 O702 1.243 . S
C711 C713 1.382 . S
C711 C715 1.393 . S
C711 C718 1.500 . S
C712 C713 1.400 . S
C712 C714 1.384 . S
C713 C711 1.382 . S
C713 C712 1.400 . S
C713 H730 0.930 . S
C714 C712 1.384 . S
C714 C716 1.392 . S
C714 H731 0.931 . S
C715 C711 1.393 . S
C715 C716 1.401 . S
C715 H732 0.930 . S
C716 C714 1.392 . S
C716 C715 1.401 . S
C716 H733 0.930 . S
C717 O700 1.262 . S
C717 O701 1.260 . S
C718 Tb654 2.833 . S
C718 O698 1.251 . S
C718 O703 1.256 . S
C718 C711 1.500 . S
C719 H684 0.929 . S
C719 C697 1.444 . S
C719 C720 1.317 . S
C720 H682 0.930 . S
C720 C688 1.432 . S
C720 C719 1.317 . S
C721 O705 1.283 . S
C721 O708 1.243 . S
C722 C723 1.382 . S
C722 C726 1.393 . S
C722 C729 1.500 . S
C723 C722 1.382 . S
C723 C724 1.400 . S
C723 H734 0.930 . S
C724 C723 1.400 . S
C724 C725 1.384 . S
C725 C724 1.384 . S
C725 C727 1.392 . S
C725 H735 0.931 . S
C726 C722 1.393 . S
C726 C727 1.401 . S
C726 H736 0.930 . S
C727 C725 1.392 . S
C727 C726 1.401 . S
C727 H737 0.930 . S
C728 O706 1.262 . S
C728 O707 1.260 . S
C729 Tb665 2.833 . S
C729 O704 1.251 . S
C729 O709 1.256 . S
C729 C722 1.500 . S
H730 C713 0.930 . S
H731 C714 0.931 . S
H732 C715 0.930 . S
H733 C716 0.930 . S
H734 C723 0.930 . S
H735 C725 0.931 . S
H736 C726 0.930 . S
H737 C727 0.930 . S
Tb738 N769 2.660 . S
Tb738 N776 2.600 . S
Tb738 O782 2.546 . S
Tb738 O783 2.610 . S
Tb738 O785 2.320 . S
Tb738 O786 2.552 1_655 S
Tb738 O787 2.413 . S
Tb738 O789 2.362 . S
Tb738 O790 2.421 . S
Tb738 C802 2.833 . S
C739 C742 1.432 . S
C739 C743 1.414 . S
C739 N746 1.359 1_455 S
C740 C742 1.417 . S
C740 C744 1.432 . S
C740 C752 1.410 . S
C741 C743 1.444 . S
C741 C744 1.317 . S
C741 H764 0.929 1_565 S
C742 C739 1.432 . S
C742 C740 1.417 . S
C742 N750 1.360 . S
C743 C739 1.414 . S
C743 C741 1.444 . S
C743 C748 1.385 . S
C744 C740 1.432 . S
C744 C741 1.317 . S
C744 H756 0.930 . S
C745 C747 1.392 . S
C745 C748 1.370 1_655 S
C745 H757 0.931 . S
N746 C739 1.359 1_655 S
N746 C747 1.327 . S
N746 Tb749 2.600 . S
C747 C745 1.392 . S
C747 N746 1.327 . S
C747 H754 0.930 . S
C748 C743 1.385 . S
C748 C745 1.370 1_455 S
C748 H767 0.930 1_565 S
Tb749 N746 2.600 . S
Tb749 N750 2.660 1_655 S
Tb749 O783 2.362 . S
Tb749 O784 2.421 . S
Tb749 O788 2.546 . S
Tb749 O789 2.610 . S
Tb749 O791 2.320 . S
Tb749 O792 2.552 . S
Tb749 O793 2.413 . S
Tb749 C813 2.833 . S
N750 C742 1.360 . S
N750 Tb749 2.660 1_455 S
N750 C751 1.305 . S
C751 N750 1.305 . S
C751 C753 1.407 . S
C751 H758 0.930 . S
C752 C740 1.410 . S
C752 C753 1.345 . S
C752 H760 0.930 . S
C753 C751 1.407 . S
C753 C752 1.345 . S
C753 H755 0.930 . S
H754 C747 0.930 . S
H755 C753 0.930 . S
H756 C744 0.930 . S
H757 C745 0.931 . S
H758 C751 0.930 . S
H759 C773 0.930 . S
H760 C752 0.930 . S
H761 C779 0.930 . S
H762 C770 0.930 . S
H763 C777 0.931 . S
H764 C741 0.929 1_545 S
H765 C771 0.930 . S
H766 C804 0.930 . S
H767 C748 0.930 1_545 S
H768 C803 0.929 . S
N769 Tb738 2.660 . S
N769 C770 1.305 . S
N769 C774 1.360 . S
C770 H762 0.930 . S
C770 N769 1.305 . S
C770 C773 1.407 . S
C771 H765 0.930 . S
C771 C772 1.410 . S
C771 C773 1.345 . S
C772 C771 1.410 . S
C772 C774 1.417 . S
C772 C804 1.432 . S
C773 H759 0.930 . S
C773 C770 1.407 . S
C773 C771 1.345 . S
C774 N769 1.360 . S
C774 C772 1.417 . S
C774 C778 1.432 . S
H775 C780 0.930 . S
N776 Tb738 2.600 . S
N776 C778 1.359 . S
N776 C779 1.327 . S
C777 H763 0.931 . S
C777 C779 1.392 . S
C777 C780 1.370 . S
C778 C774 1.432 . S
C778 N776 1.359 . S
C778 C781 1.414 . S
C779 H761 0.930 . S
C779 N776 1.327 . S
C779 C777 1.392 . S
C780 H775 0.930 . S
C780 C777 1.370 . S
C780 C781 1.385 . S
C781 C778 1.414 . S
C781 C780 1.385 . S
C781 C803 1.444 . S
O782 Tb738 2.546 . S
O782 C802 1.251 . S
O783 Tb738 2.610 . S
O783 Tb749 2.362 . S
O783 C794 1.283 1_655 S
O784 Tb749 2.421 . S
O784 C801 1.262 . S
O785 Tb738 2.320 . S
O785 C801 1.260 . S
O786 Tb738 2.552 1_455 S
O786 C794 1.243 . S
O787 Tb738 2.413 . S
O787 C802 1.256 . S
O788 Tb749 2.546 . S
O788 C813 1.251 . S
O789 Tb738 2.362 . S
O789 Tb749 2.610 . S
O789 C805 1.283 . S
O790 Tb738 2.421 . S
O790 C812 1.262 . S
O791 Tb749 2.320 . S
O791 C812 1.260 . S
O792 Tb749 2.552 . S
O792 C805 1.243 . S
O793 Tb749 2.413 . S
O793 C813 1.256 . S
C794 O783 1.283 1_455 S
C794 O786 1.243 . S
C795 C797 1.382 . S
C795 C799 1.393 . S
C795 C802 1.500 . S
C796 C797 1.400 . S
C796 C798 1.384 . S
C797 C795 1.382 . S
C797 C796 1.400 . S
C797 H814 0.930 . S
C798 C796 1.384 . S
C798 C800 1.392 . S
C798 H815 0.931 . S
C799 C795 1.393 . S
C799 C800 1.401 . S
C799 H816 0.930 . S
C800 C798 1.392 . S
C800 C799 1.401 . S
C800 H817 0.930 . S
C801 O784 1.262 . S
C801 O785 1.260 . S
C802 Tb738 2.833 . S
C802 O782 1.251 . S
C802 O787 1.256 . S
C802 C795 1.500 . S
C803 H768 0.929 . S
C803 C781 1.444 . S
C803 C804 1.317 . S
C804 H766 0.930 . S
C804 C772 1.432 . S
C804 C803 1.317 . S
C805 O789 1.283 . S
C805 O792 1.243 . S
C806 C807 1.382 . S
C806 C810 1.393 . S
C806 C813 1.500 . S
C807 C806 1.382 . S
C807 C808 1.400 . S
C807 H818 0.930 . S
C808 C807 1.400 . S
C808 C809 1.384 . S
C809 C808 1.384 . S
C809 C811 1.392 . S
C809 H819 0.931 . S
C810 C806 1.393 . S
C810 C811 1.401 . S
C810 H820 0.930 . S
C811 C809 1.392 . S
C811 C810 1.401 . S
C811 H821 0.930 . S
C812 O790 1.262 . S
C812 O791 1.260 . S
C813 Tb749 2.833 . S
C813 O788 1.251 . S
C813 O793 1.256 . S
C813 C806 1.500 . S
H814 C797 0.930 . S
H815 C798 0.931 . S
H816 C799 0.930 . S
H817 C800 0.930 . S
H818 C807 0.930 . S
H819 C809 0.931 . S
H820 C810 0.930 . S
H821 C811 0.930 . S
Tb822 N853 2.660 . S
Tb822 N860 2.600 . S
Tb822 O866 2.546 . S
Tb822 O867 2.610 . S
Tb822 O869 2.320 . S
Tb822 O870 2.552 . S
Tb822 O871 2.413 . S
Tb822 O873 2.362 . S
Tb822 O874 2.421 . S
Tb822 C886 2.833 . S
C823 C826 1.432 . S
C823 C827 1.414 1_455 S
C823 N830 1.359 . S
C824 C826 1.417 . S
C824 C828 1.432 1_455 S
C824 C836 1.410 . S
C825 C827 1.444 . S
C825 C828 1.317 . S
C825 H848 0.929 . S
C826 C823 1.432 . S
C826 C824 1.417 . S
C826 N834 1.360 . S
C827 C823 1.414 1_655 S
C827 C825 1.444 . S
C827 C832 1.385 1_545 S
C828 C824 1.432 1_655 S
C828 C825 1.317 . S
C828 H840 0.930 . S
C829 C831 1.392 . S
C829 C832 1.370 1_455 S
C829 H841 0.931 . S
N830 C823 1.359 . S
N830 C831 1.327 1_545 S
N830 Tb833 2.600 . S
C831 C829 1.392 . S
C831 N830 1.327 1_565 S
C831 H838 0.930 . S
C832 C827 1.385 1_565 S
C832 C829 1.370 1_655 S
C832 H851 0.930 . S
Tb833 N830 2.600 . S
Tb833 N834 2.660 . S
Tb833 O867 2.362 . S
Tb833 O868 2.421 . S
Tb833 O872 2.546 . S
Tb833 O873 2.610 . S
Tb833 O875 2.320 . S
Tb833 O876 2.552 . S
Tb833 O877 2.413 . S
Tb833 C897 2.833 . S
N834 C826 1.360 . S
N834 Tb833 2.660 . S
N834 C835 1.305 . S
C835 N834 1.305 . S
C835 C837 1.407 . S
C835 H842 0.930 . S
C836 C824 1.410 . S
C836 C837 1.345 . S
C836 H844 0.930 1_455 S
C837 C835 1.407 . S
C837 C836 1.345 . S
C837 H839 0.930 . S
H838 C831 0.930 . S
H839 C837 0.930 . S
H840 C828 0.930 . S
H841 C829 0.931 . S
H842 C835 0.930 . S
H843 C857 0.930 . S
H844 C836 0.930 1_655 S
H845 C863 0.930 . S
H846 C854 0.930 . S
H847 C861 0.931 . S
H848 C825 0.929 . S
H849 C855 0.930 . S
H850 C888 0.930 . S
H851 C832 0.930 . S
H852 C887 0.929 . S
N853 Tb822 2.660 . S
N853 C854 1.305 . S
N853 C858 1.360 . S
C854 H846 0.930 . S
C854 N853 1.305 . S
C854 C857 1.407 . S
C855 H849 0.930 . S
C855 C856 1.410 . S
C855 C857 1.345 . S
C856 C855 1.410 . S
C856 C858 1.417 . S
C856 C888 1.432 . S
C857 H843 0.930 . S
C857 C854 1.407 . S
C857 C855 1.345 . S
C858 N853 1.360 . S
C858 C856 1.417 . S
C858 C862 1.432 . S
H859 C864 0.930 . S
N860 Tb822 2.600 . S
N860 C862 1.359 . S
N860 C863 1.327 . S
C861 H847 0.931 . S
C861 C863 1.392 . S
C861 C864 1.370 . S
C862 C858 1.432 . S
C862 N860 1.359 . S
C862 C865 1.414 . S
C863 H845 0.930 . S
C863 N860 1.327 . S
C863 C861 1.392 . S
C864 H859 0.930 . S
C864 C861 1.370 . S
C864 C865 1.385 . S
C865 C862 1.414 . S
C865 C864 1.385 . S
C865 C887 1.444 . S
O866 Tb822 2.546 . S
O866 C886 1.251 . S
O867 Tb822 2.610 . S
O867 Tb833 2.362 . S
O867 C878 1.283 . S
O868 Tb833 2.421 . S
O868 C885 1.262 . S
O869 Tb822 2.320 . S
O869 C885 1.260 . S
O870 Tb822 2.552 . S
O870 C878 1.243 . S
O871 Tb822 2.413 . S
O871 C886 1.256 . S
O872 Tb833 2.546 . S
O872 C897 1.251 . S
O873 Tb822 2.362 . S
O873 Tb833 2.610 . S
O873 C889 1.283 . S
O874 Tb822 2.421 . S
O874 C896 1.262 . S
O875 Tb833 2.320 . S
O875 C896 1.260 . S
O876 Tb833 2.552 . S
O876 C889 1.243 . S
O877 Tb833 2.413 . S
O877 C897 1.256 . S
C878 O867 1.283 . S
C878 O870 1.243 . S
C879 C881 1.382 . S
C879 C883 1.393 . S
C879 C886 1.500 . S
C880 C881 1.400 . S
C880 C882 1.384 . S
C881 C879 1.382 . S
C881 C880 1.400 . S
C881 H898 0.930 . S
C882 C880 1.384 . S
C882 C884 1.392 . S
C882 H899 0.931 . S
C883 C879 1.393 . S
C883 C884 1.401 . S
C883 H900 0.930 . S
C884 C882 1.392 . S
C884 C883 1.401 . S
C884 H901 0.930 . S
C885 O868 1.262 . S
C885 O869 1.260 . S
C886 Tb822 2.833 . S
C886 O866 1.251 . S
C886 O871 1.256 . S
C886 C879 1.500 . S
C887 H852 0.929 . S
C887 C865 1.444 . S
C887 C888 1.317 . S
C888 H850 0.930 . S
C888 C856 1.432 . S
C888 C887 1.317 . S
C889 O873 1.283 . S
C889 O876 1.243 . S
C890 C891 1.382 . S
C890 C894 1.393 . S
C890 C897 1.500 . S
C891 C890 1.382 . S
C891 C892 1.400 . S
C891 H902 0.930 . S
C892 C891 1.400 . S
C892 C893 1.384 . S
C893 C892 1.384 . S
C893 C895 1.392 . S
C893 H903 0.931 . S
C894 C890 1.393 . S
C894 C895 1.401 . S
C894 H904 0.930 . S
C895 C893 1.392 . S
C895 C894 1.401 . S
C895 H905 0.930 . S
C896 O874 1.262 . S
C896 O875 1.260 . S
C897 Tb833 2.833 . S
C897 O872 1.251 . S
C897 O877 1.256 . S
C897 C890 1.500 . S
H898 C881 0.930 . S
H899 C882 0.931 . S
H900 C883 0.930 . S
H901 C884 0.930 . S
H902 C891 0.930 . S
H903 C893 0.931 . S
H904 C894 0.930 . S
H905 C895 0.930 . S
Tb906 N937 2.660 . S
Tb906 N944 2.600 . S
Tb906 O950 2.546 . S
Tb906 O951 2.610 . S
Tb906 O953 2.320 . S
Tb906 O954 2.552 . S
Tb906 O955 2.413 . S
Tb906 O957 2.362 . S
Tb906 O958 2.421 . S
Tb906 C970 2.833 . S
C907 C910 1.432 . S
C907 C911 1.414 . S
C907 N914 1.359 . S
C908 C910 1.417 . S
C908 C912 1.432 . S
C908 C920 1.410 . S
C909 C911 1.444 . S
C909 C912 1.317 . S
C909 H932 0.929 . S
C910 C907 1.432 . S
C910 C908 1.417 . S
C910 N918 1.360 . S
C911 C907 1.414 . S
C911 C909 1.444 . S
C911 C916 1.385 . S
C912 C908 1.432 . S
C912 C909 1.317 . S
C912 H924 0.930 . S
C913 C915 1.392 . S
C913 C916 1.370 . S
C913 H925 0.931 . S
N914 C907 1.359 . S
N914 C915 1.327 . S
N914 Tb917 2.600 . S
C915 C913 1.392 . S
C915 N914 1.327 . S
C915 H922 0.930 . S
C916 C911 1.385 . S
C916 C913 1.370 . S
C916 H935 0.930 . S
Tb917 N914 2.600 . S
Tb917 N918 2.660 . S
Tb917 O951 2.362 . S
Tb917 O952 2.421 . S
Tb917 O956 2.546 . S
Tb917 O957 2.610 . S
Tb917 O959 2.320 . S
Tb917 O960 2.552 . S
Tb917 O961 2.413 . S
Tb917 C981 2.833 . S
N918 C910 1.360 . S
N918 Tb917 2.660 . S
N918 C919 1.305 . S
C919 N918 1.305 . S
C919 C921 1.407 . S
C919 H926 0.930 . S
C920 C908 1.410 . S
C920 C921 1.345 . S
C920 H928 0.930 . S
C921 C919 1.407 . S
C921 C920 1.345 . S
C921 H923 0.930 1_545 S
H922 C915 0.930 . S
H923 C921 0.930 1_565 S
H924 C912 0.930 . S
H925 C913 0.931 . S
H926 C919 0.930 . S
H927 C941 0.930 . S
H928 C920 0.930 . S
H929 C947 0.930 . S
H930 C938 0.930 . S
H931 C945 0.931 . S
H932 C909 0.929 . S
H933 C939 0.930 . S
H934 C972 0.930 . S
H935 C916 0.930 . S
H936 C971 0.917 1_565 S
N937 Tb906 2.660 . S
N937 C938 1.305 1_655 S
N937 C942 1.360 1_655 S
C938 H930 0.930 . S
C938 N937 1.305 1_455 S
C938 C941 1.407 . S
C939 H933 0.930 . S
C939 C940 1.410 . S
C939 C941 1.345 . S
C940 C939 1.410 . S
C940 C942 1.417 . S
C940 C972 1.432 . S
C941 H927 0.930 . S
C941 C938 1.407 . S
C941 C939 1.345 . S
C942 N937 1.360 1_455 S
C942 C940 1.417 . S
C942 C946 1.432 1_455 S
H943 C948 0.930 . S
N944 Tb906 2.600 . S
N944 C946 1.359 . S
N944 C947 1.327 1_545 S
C945 H931 0.931 . S
C945 C947 1.392 . S
C945 C948 1.370 . S
C946 C942 1.432 1_655 S
C946 N944 1.359 . S
C946 C949 1.414 1_545 S
C947 H929 0.930 . S
C947 N944 1.327 1_565 S
C947 C945 1.392 . S
C948 H943 0.930 . S
C948 C945 1.370 . S
C948 C949 1.385 . S
C949 C946 1.414 1_565 S
C949 C948 1.385 . S
C949 C971 1.446 1_665 S
O950 Tb906 2.546 . S
O950 C970 1.251 . S
O951 Tb906 2.610 . S
O951 Tb917 2.362 . S
O951 C962 1.283 . S
O952 Tb917 2.421 . S
O952 C969 1.262 . S
O953 Tb906 2.320 . S
O953 C969 1.260 . S
O954 Tb906 2.552 . S
O954 C962 1.243 . S
O955 Tb906 2.413 . S
O955 C970 1.256 . S
O956 Tb917 2.546 . S
O956 C981 1.251 . S
O957 Tb906 2.362 . S
O957 Tb917 2.610 . S
O957 C973 1.283 . S
O958 Tb906 2.421 . S
O958 C980 1.262 . S
O959 Tb917 2.320 . S
O959 C980 1.260 . S
O960 Tb917 2.552 . S
O960 C973 1.243 . S
O961 Tb917 2.413 . S
O961 C981 1.256 . S
C962 O951 1.283 . S
C962 O954 1.243 . S
C963 C965 1.382 . S
C963 C967 1.393 . S
C963 C970 1.500 . S
C964 C965 1.400 . S
C964 C966 1.384 . S
C965 C963 1.382 . S
C965 C964 1.400 . S
C965 H982 0.930 . S
C966 C964 1.384 . S
C966 C968 1.392 . S
C966 H983 0.931 . S
C967 C963 1.393 . S
C967 C968 1.401 . S
C967 H984 0.930 1_545 S
C968 C966 1.392 . S
C968 C967 1.401 . S
C968 H985 0.930 1_545 S
C969 O952 1.262 . S
C969 O953 1.260 . S
C970 Tb906 2.833 . S
C970 O950 1.251 . S
C970 O955 1.256 . S
C970 C963 1.500 . S
C971 H936 0.917 1_545 S
C971 C949 1.446 1_445 S
C971 C972 1.328 . S
C972 H934 0.930 . S
C972 C940 1.432 . S
C972 C971 1.328 . S
C973 O957 1.283 . S
C973 O960 1.243 . S
C974 C975 1.382 . S
C974 C978 1.393 . S
C974 C981 1.500 . S
C975 C974 1.382 . S
C975 C976 1.400 . S
C975 H986 0.930 . S
C976 C975 1.400 . S
C976 C977 1.384 . S
C977 C976 1.384 . S
C977 C979 1.392 . S
C977 H987 0.931 . S
C978 C974 1.393 . S
C978 C979 1.401 . S
C978 H988 0.930 . S
C979 C977 1.392 . S
C979 C978 1.401 . S
C979 H989 0.930 . S
C980 O958 1.262 . S
C980 O959 1.260 . S
C981 Tb917 2.833 . S
C981 O956 1.251 . S
C981 O961 1.256 . S
C981 C974 1.500 . S
H982 C965 0.930 . S
H983 C966 0.931 . S
H984 C967 0.930 1_565 S
H985 C968 0.930 1_565 S
H986 C975 0.930 . S
H987 C977 0.931 . S
H988 C978 0.930 . S
H989 C979 0.930 . S
N170 C301 2.053 . S
N184 C385 1.083 . S
N158 C465 1.554 . S
N145 C381 1.533 . S
C469 N119 1.017 . S
N131 C297 1.956 . S
C290 N144 1.735 . S
C374 N118 1.668 . S
N132 C476 1.546 1_556 S
N171 C392 1.546 . S
N183 C458 1.616 . S
C308 N157 1.614 . S
C553 N14 2.053 1_455 S
N28 C637 1.083 . S
N2 C717 1.554 1_545 S
N223 C633 1.533 . S
N197 C721 1.017 . S
N209 C549 1.956 . S
N222 C542 1.735 . S
N196 C626 1.668 . S
C728 N210 1.546 . S
N15 C644 1.547 . S
C710 N27 1.616 1_455 S
N1 C560 1.615 . S
C805 N92 2.053 . S
N106 C889 1.082 . S
C969 N80 1.555 . S
C885 N67 1.532 1_545 S
C973 N41 1.017 . S
N53 C801 1.956 . S
N66 C794 1.735 . S
N40 C878 1.669 . S
C980 N54 1.545 1_545 S
N93 C896 1.547 . S
N105 C962 1.616 . S
N79 C812 1.614 . S
N200 C304 1.160 . S
C388 N213 1.458 . S
N226 C460 1.721 . S
N83 C376 1.764 . S
N96 C472 1.457 . S
C292 N109 1.400 . S
N44 C556 1.161 . S
N57 C640 1.457 . S
N70 C712 1.720 . S
N161 C628 1.764 . S
C724 N174 1.458 . S
N187 C544 1.400 . S
N122 C808 1.160 . S
N135 C892 1.458 . S
C964 N148 1.721 . S
N5 C880 1.764 . S
N18 C976 1.457 . S
N31 C796 1.400 . S
