# Generated by pormake.
# Topology anh, (6,3)-cn, num edge types: 1
# Building blocks:
#     Node 0, Type 0, BuildingBlock: BETFEN_clean_sbu_0, # of connection points: 6
#     Node 1, Type 0, BuildingBlock: BETFEN_clean_sbu_0, # of connection points: 6
#     Node 2, Type 0, BuildingBlock: BETFEN_clean_sbu_0, # of connection points: 6
#     Node 3, Type 1, BuildingBlock: MIDCAF_clean_linker_0, # of connection points: 3
#     Node 4, Type 1, BuildingBlock: MIDCAF_clean_linker_0, # of connection points: 3
#     Node 5, Type 1, BuildingBlock: MIDCAF_clean_linker_0, # of connection points: 3
#     Node 6, Type 1, BuildingBlock: MIDCAF_clean_linker_0, # of connection points: 3
#     Node 7, Type 1, BuildingBlock: MIDCAF_clean_linker_0, # of connection points: 3
#     Node 8, Type 1, BuildingBlock: MIDCAF_clean_linker_0, # of connection points: 3
#     Edge 9, Type (0, 1), BuildingBlock: UVAHIK_clean_linker_0, # of connection points: 2
#     Edge 10, Type (0, 1), BuildingBlock: UVAHIK_clean_linker_0, # of connection points: 2
#     Edge 11, Type (0, 1), BuildingBlock: UVAHIK_clean_linker_0, # of connection points: 2
#     Edge 12, Type (0, 1), BuildingBlock: UVAHIK_clean_linker_0, # of connection points: 2
#     Edge 13, Type (0, 1), BuildingBlock: UVAHIK_clean_linker_0, # of connection points: 2
#     Edge 14, Type (0, 1), BuildingBlock: UVAHIK_clean_linker_0, # of connection points: 2
#     Edge 15, Type (0, 1), BuildingBlock: UVAHIK_clean_linker_0, # of connection points: 2
#     Edge 16, Type (0, 1), BuildingBlock: UVAHIK_clean_linker_0, # of connection points: 2
#     Edge 17, Type (0, 1), BuildingBlock: UVAHIK_clean_linker_0, # of connection points: 2
#     Edge 18, Type (0, 1), BuildingBlock: UVAHIK_clean_linker_0, # of connection points: 2
#     Edge 19, Type (0, 1), BuildingBlock: UVAHIK_clean_linker_0, # of connection points: 2
#     Edge 20, Type (0, 1), BuildingBlock: UVAHIK_clean_linker_0, # of connection points: 2
#     Edge 21, Type (0, 1), BuildingBlock: UVAHIK_clean_linker_0, # of connection points: 2
#     Edge 22, Type (0, 1), BuildingBlock: UVAHIK_clean_linker_0, # of connection points: 2
#     Edge 23, Type (0, 1), BuildingBlock: UVAHIK_clean_linker_0, # of connection points: 2
#     Edge 24, Type (0, 1), BuildingBlock: UVAHIK_clean_linker_0, # of connection points: 2
#     Edge 25, Type (0, 1), BuildingBlock: UVAHIK_clean_linker_0, # of connection points: 2
#     Edge 26, Type (0, 1), BuildingBlock: UVAHIK_clean_linker_0, # of connection points: 2
# Relax obj value: 0.166
# Max RMSD: 0.198
# Mean RMSD: 0.150
data_MOF--net-anh--node1-BETFEN_clean_sbu_0--node2-MIDCAF_clean_linker_0--edge1-UVAHIK_clean_linker_0
_symmetry_space_group_name_H-M    P1
_symmetry_Int_Tables_number       1
_symmetry_cell_setting            triclinic
loop_
_symmetry_equiv_pos_as_xyz
'x, y, z'
_cell_length_a     44.502159
_cell_length_b     46.076462
_cell_length_c     82.606841
_cell_angle_alpha  90.745039
_cell_angle_beta   92.575959
_cell_angle_gamma 108.448
loop_
_atom_site_label
_atom_site_type_symbol
_atom_site_fract_x
_atom_site_fract_y
_atom_site_fract_z
_atom_type_partial_charge
Pr0 Pr 0.0179 0.52612 0.15337 0.0
Pr1 Pr 0.04059 0.59343 0.1466 0.0
C2 C 0.98908 0.46975 0.16449 0.0
C3 C 0.95706 0.44732 0.16603 0.0
C4 C 0.94208 0.42669 0.1532 0.0
C5 C 0.91268 0.40446 0.15507 0.0
C6 C 0.8976 0.40225 0.16982 0.0
C7 C 0.91249 0.42305 0.18259 0.0
C8 C 0.94189 0.44523 0.18073 0.0
C9 C 0.02644 0.53886 0.12073 0.0
C10 C 0.96438 0.5626 0.14669 0.0
C11 C 0.07019 0.65027 0.13638 0.0
C12 C 0.10098 0.67382 0.14007 0.0
C13 C 0.12128 0.67008 0.15278 0.0
C14 C 0.15024 0.69284 0.1565 0.0
C15 C 0.15953 0.71975 0.14752 0.0
C16 C 0.13914 0.72313 0.13465 0.0
C17 C 0.11012 0.70036 0.13098 0.0
C18 C 0.03349 0.58079 0.17942 0.0
C19 C 0.0942 0.55626 0.15165 0.0
O20 O 0.99687 0.49467 0.17365 0.0
O21 O 0.99988 0.47457 0.14996 0.0
O22 O 1.01325 0.55227 0.13016 0.0
O23 O 0.03503 0.51765 0.12791 0.0
O24 O 0.98685 0.58452 0.14011 0.0
O25 O 0.97108 0.53998 0.15413 0.0
O26 O 0.07101 0.62543 0.12883 0.0
O27 O 0.05042 0.64466 0.14805 0.0
O28 O 0.04585 0.56717 0.16969 0.0
O29 O 0.02567 0.60263 0.17249 0.0
O30 O 0.07199 0.53317 0.15758 0.0
O31 O 0.08749 0.58005 0.14563 0.0
H32 H 0.95317 0.42746 0.14174 0.0
H33 H 0.90175 0.389 0.14494 0.0
H34 H 0.90181 0.4217 0.1942 0.0
H35 H 0.95299 0.46045 0.19093 0.0
H36 H 0.11457 0.64967 0.15993 0.0
H37 H 0.16506 0.68959 0.16662 0.0
H38 H 0.14569 0.74328 0.12732 0.0
H39 H 0.09477 0.70353 0.12107 0.0
Pr40 Pr 0.56888 0.05475 0.50948 0.0
Pr41 Pr 0.49804 0.03365 0.5132 0.0
C42 C 0.62876 0.08143 0.50037 0.0
C43 C 0.65149 0.11198 0.49799 0.0
C44 C 0.68229 0.11457 0.49367 0.0
C45 C 0.70429 0.14332 0.49128 0.0
C46 C 0.6959 0.17014 0.49315 0.0
C47 C 0.66488 0.1674 0.4975 0.0
C48 C 0.64289 0.13856 0.49993 0.0
C49 C 0.55112 0.04431 0.54127 0.0
C50 C 0.53172 0.10816 0.51385 0.0
C51 C 0.43768 1.00528 0.52096 0.0
C52 C 0.41367 0.97528 0.51732 0.0
C53 C 0.41778 0.95596 0.50494 0.0
C54 C 0.39461 0.9277 0.50135 0.0
C55 C 0.36692 0.91809 0.51015 0.0
C56 C 0.3632 0.93749 0.5227 0.0
C57 C 0.38635 0.96581 0.52623 0.0
C58 C 0.51564 0.04247 0.48122 0.0
C59 C 0.53586 0.97998 0.51094 0.0
O60 O 0.60412 0.07235 0.49012 0.0
O61 O 0.62181 0.07417 0.5153 0.0
O62 O 0.539 0.05803 0.53106 0.0
O63 O 0.57421 0.03656 0.53544 0.0
O64 O 0.50752 0.08615 0.51929 0.0
O65 O 0.55583 0.10129 0.50774 0.0
O66 O 0.46232 1.00519 0.53019 0.0
O67 O 0.44516 1.02359 0.50878 0.0
O68 O 0.52779 0.02922 0.49166 0.0
O69 O 0.49296 0.05086 0.487 0.0
O70 O 0.56147 1.00179 0.50665 0.0
O71 O 0.51023 0.9868 0.51488 0.0
H72 H 0.68931 0.09428 0.49208 0.0
H73 H 0.72775 0.14449 0.4877 0.0
H74 H 0.65769 0.18755 0.49921 0.0
H75 H 0.61924 0.137 0.50334 0.0
H76 H 0.4388 0.96287 0.49795 0.0
H77 H 0.39818 0.91365 0.49148 0.0
H78 H 0.34251 0.9307 0.52991 0.0
H79 H 0.38289 0.98035 0.5359 0.0
Pr80 Pr 0.51929 0.53463 0.8147 0.0
Pr81 Pr 0.54123 0.60511 0.82812 0.0
C82 C 0.50984 0.48337 0.79698 0.0
C83 C 0.51988 0.45627 0.80032 0.0
C84 C 0.49839 0.43017 0.80671 0.0
C85 C 0.50882 0.40658 0.81256 0.0
C86 C 0.54083 0.40839 0.81194 0.0
C87 C 0.56203 0.43362 0.80474 0.0
C88 C 0.55169 0.45744 0.79903 0.0
C89 C 0.52426 0.5371 0.84873 0.0
C90 C 0.59646 0.57253 0.82435 0.0
C91 C 0.54623 0.65685 0.84477 0.0
C92 C 0.52191 0.66787 0.8518 0.0
C93 C 0.49298 0.66376 0.84311 0.0
C94 C 0.46929 0.67302 0.84986 0.0
C95 C 0.47394 0.68667 0.86547 0.0
C96 C 0.5028 0.69044 0.87429 0.0
C97 C 0.52657 0.68096 0.86751 0.0
C98 C 0.54414 0.5957 0.7949 0.0
C99 C 0.46327 0.56588 0.82108 0.0
O100 O 0.53238 0.5089 0.79415 0.0
O101 O 0.48841 0.48738 0.80639 0.0
O102 O 0.52959 0.55882 0.83918 0.0
O103 O 0.51632 0.51144 0.84044 0.0
O104 O 0.5889 0.59449 0.83198 0.0
O105 O 0.57524 0.55029 0.8157 0.0
O106 O 0.55082 0.63306 0.85165 0.0
O107 O 0.5457 0.65525 0.82889 0.0
O108 O 0.52227 0.58065 0.80359 0.0
O109 O 0.56486 0.61797 0.8032 0.0
O110 O 0.47019 0.54327 0.81372 0.0
O111 O 0.48535 0.5898 0.82805 0.0
H112 H 0.47371 0.42848 0.80774 0.0
H113 H 0.49186 0.38697 0.81771 0.0
H114 H 0.58679 0.43539 0.80403 0.0
H115 H 0.56889 0.47717 0.79415 0.0
H116 H 0.48873 0.65362 0.83098 0.0
H117 H 0.44773 0.67043 0.84255 0.0
H118 H 0.50706 0.70091 0.88634 0.0
H119 H 0.5486 0.68393 0.87449 0.0
C120 C 0.45407 0.95367 0.22016 0.0
C121 C 0.44335 0.95826 0.20444 0.0
C122 C 0.4576 0.98642 0.19717 0.0
C123 C 0.48183 1.00959 0.20555 0.0
H124 H 0.57044 0.0851 0.20047 0.0
H125 H 0.60888 0.12876 0.18838 0.0
H126 H 0.62988 0.1756 0.23516 0.0
H127 H 0.59163 0.13255 0.24716 0.0
H128 H 0.56491 0.09881 0.27859 0.0
H129 H 0.56635 0.09665 0.30798 0.0
H130 H 0.51906 0.99895 0.30442 0.0
H131 H 0.51643 1.00138 0.27501 0.0
H132 H 0.48517 0.97258 0.24076 0.0
H133 H 0.44336 0.93239 0.22617 0.0
H134 H 0.44996 0.99053 0.18503 0.0
H135 H 0.49205 0.03116 0.19971 0.0
N136 N 0.53505 0.0551 0.2236 0.0
N137 N 0.55763 0.07646 0.24901 0.0
N138 N 0.51797 0.02883 0.24739 0.0
C139 C 0.55617 0.07827 0.2326 0.0
C140 C 0.53872 0.05184 0.2565 0.0
C141 C 0.5158 0.03028 0.23097 0.0
C142 C 0.57796 0.10519 0.22481 0.0
C143 C 0.58305 0.10484 0.20813 0.0
C144 C 0.6052 0.12976 0.20122 0.0
C145 C 0.6224 0.15567 0.2108 0.0
C146 C 0.61676 0.1562 0.22738 0.0
C147 C 0.59493 0.13132 0.23429 0.0
C148 C 0.54045 0.05029 0.27442 0.0
C149 C 0.55487 0.07684 0.28407 0.0
C150 C 0.55588 0.07555 0.30097 0.0
C151 C 0.54285 0.04761 0.30868 0.0
C152 C 0.52882 1.02098 0.29898 0.0
C153 C 0.52746 1.02234 0.28207 0.0
C154 C 0.49194 1.00522 0.22145 0.0
C155 C 0.47793 0.97686 0.22857 0.0
C156 C 0.55786 0.44663 0.54354 0.0
C157 C 0.54106 0.4307 0.52956 0.0
C158 C 0.52488 0.44641 0.51957 0.0
C159 C 0.52507 0.47656 0.52368 0.0
H160 H 0.56949 0.60749 0.5198 0.0
H161 H 0.56946 0.65882 0.51181 0.0
H162 H 0.48853 0.64962 0.54063 0.0
H163 H 0.48832 0.59887 0.54806 0.0
H164 H 0.53948 0.60021 0.58743 0.0
H165 H 0.54097 0.60461 0.61688 0.0
H166 H 0.53538 0.50962 0.62014 0.0
H167 H 0.5337 0.50501 0.59062 0.0
H168 H 0.57075 0.48695 0.55874 0.0
H169 H 0.57021 0.4358 0.55184 0.0
H170 H 0.51182 0.43536 0.5086 0.0
H171 H 0.51157 0.48736 0.51602 0.0
N172 N 0.53499 0.54519 0.53542 0.0
N173 N 0.53273 0.57276 0.5594 0.0
N174 N 0.53838 0.52429 0.56113 0.0
C175 C 0.53237 0.5712 0.54296 0.0
C176 C 0.53579 0.54966 0.56858 0.0
C177 C 0.53801 0.5214 0.5447 0.0
C178 C 0.52848 0.59851 0.53433 0.0
C179 C 0.55101 0.61606 0.52389 0.0
C180 C 0.55131 0.64589 0.51958 0.0
C181 C 0.52905 0.6591 0.52555 0.0
C182 C 0.50585 0.64074 0.53543 0.0
C183 C 0.50566 0.61126 0.53973 0.0
C184 C 0.53649 0.55224 0.58657 0.0
C185 C 0.53851 0.58019 0.59437 0.0
C186 C 0.53957 0.5828 0.61129 0.0
C187 C 0.53837 0.55749 0.62086 0.0
C188 C 0.53608 0.52948 0.6131 0.0
C189 C 0.5353 0.52691 0.59617 0.0
C190 C 0.54124 0.49183 0.53798 0.0
C191 C 0.55798 0.47633 0.5476 0.0
C192 C 0.93342 0.59152 0.86423 0.0
C193 C 0.92156 0.57893 0.84877 0.0
C194 C 0.93986 0.56512 0.83978 0.0
C195 C 0.96895 0.56336 0.84634 0.0
H196 H 0.08306 0.58628 0.84237 0.0
H197 H 0.13259 0.58459 0.83098 0.0
H198 H 0.14113 0.52078 0.86731 0.0
H199 H 0.09229 0.52283 0.87878 0.0
H200 H 0.06304 0.53236 0.91498 0.0
H201 H 0.06289 0.53075 0.94445 0.0
H202 H 1.00985 0.5949 0.94474 0.0
H203 H 1.00848 0.59493 0.91533 0.0
H204 H 0.96992 0.59896 0.8829 0.0
H205 H 0.91991 0.60195 0.87162 0.0
H206 H 0.93154 0.55539 0.82777 0.0
H207 H 0.98209 0.55189 0.83934 0.0
N208 N 0.03198 0.56476 0.86188 0.0
N209 N 0.05756 0.55815 0.8865 0.0
N210 N 1.01005 0.5696 0.88673 0.0
C211 C 0.05679 0.55894 0.87004 0.0
C212 C 0.0344 0.56368 0.89492 0.0
C213 C 1.00832 0.56991 0.87029 0.0
C214 C 0.08381 0.55474 0.86148 0.0
C215 C 0.09526 0.57149 0.84771 0.0
C216 C 0.1237 0.57071 0.84128 0.0
C217 C 0.14079 0.55261 0.84828 0.0
C218 C 0.12844 0.53478 0.86157 0.0
C219 C 0.1005 0.53605 0.86817 0.0
C220 C 0.0356 0.5636 0.91284 0.0
C221 C 0.05138 0.54609 0.92139 0.0
C222 C 0.05143 0.54535 0.93833 0.0
C223 C 0.03624 0.56261 0.94712 0.0
C224 C 0.02111 0.58066 0.93848 0.0
C225 C 0.0205 0.58088 0.92157 0.0
C226 C 0.98005 0.57501 0.86207 0.0
C227 C 0.96213 0.58956 0.87077 0.0
C228 C 0.12931 0.62853 0.44114 0.0
C229 C 0.12482 0.63779 0.45686 0.0
C230 C 0.09647 0.62229 0.46423 0.0
C231 C 0.07304 0.59817 0.45595 0.0
H232 H 1.00244 0.50518 0.46057 0.0
H233 H 0.96094 0.46353 0.47236 0.0
H234 H 0.91059 0.44273 0.42557 0.0
H235 H 0.95141 0.48405 0.41388 0.0
H236 H 0.99524 0.50069 0.38254 0.0
H237 H 0.99507 0.50302 0.35299 0.0
H238 H 0.06283 0.59394 0.35691 0.0
H239 H 0.06317 0.59179 0.38636 0.0
H240 H 0.11008 0.59877 0.42062 0.0
H241 H 0.15069 0.64019 0.43505 0.0
H242 H 0.09243 0.62885 0.47638 0.0
H243 H 0.0513 0.58688 0.46183 0.0
N244 N 0.0288 0.54387 0.4378 0.0
N245 N 1.00631 0.52326 0.4122 0.0
N246 N 0.05185 0.56611 0.41405 0.0
C247 C 1.00584 0.52242 0.42865 0.0
C248 C 0.02915 0.54503 0.40481 0.0
C249 C 0.05198 0.56578 0.43049 0.0
C250 C 0.98041 0.49803 0.43626 0.0
C251 C 0.9824 0.49184 0.45284 0.0
C252 C 0.95872 0.46787 0.45958 0.0
C253 C 0.93239 0.44985 0.44992 0.0
C254 C 0.93028 0.45638 0.43342 0.0
C255 C 0.95394 0.48003 0.42669 0.0
C256 C 0.02919 0.54607 0.38686 0.0
C257 C 1.01012 0.52119 0.37712 0.0
C258 C 1.01013 0.52242 0.3602 0.0
C259 C 0.02886 0.54869 0.35267 0.0
C260 C 0.04791 0.57352 0.36239 0.0
C261 C 0.04821 0.57217 0.37927 0.0
C262 C 0.07731 0.58952 0.44004 0.0
C263 C 0.10585 0.60487 0.43282 0.0
C264 C 0.52103 0.11271 0.78767 0.0
C265 C 0.5257 0.11529 0.8046 0.0
C266 C 0.519 0.08878 0.81372 0.0
C267 C 0.50584 0.06002 0.80606 0.0
H268 H 0.43331 0.98234 0.81444 0.0
H269 H 0.40702 0.9418 0.83231 0.0
H270 H 0.39288 0.87525 0.79305 0.0
H271 H 0.41891 0.91611 0.7749 0.0
H272 H 0.4508 0.94499 0.73822 0.0
H273 H 0.45189 0.94205 0.70853 0.0
H274 H 0.47378 0.04015 0.70693 0.0
H275 H 0.47295 0.0432 0.73627 0.0
H276 H 0.50394 0.0829 0.76695 0.0
H277 H 0.52613 0.13301 0.78045 0.0
H278 H 0.52233 0.09039 0.82682 0.0
H279 H 0.49968 0.03992 0.81344 0.0
N280 N 0.4652 1.00414 0.79017 0.0
N281 N 0.44666 0.97348 0.76659 0.0
N282 N 0.48064 1.02397 0.76489 0.0
C283 C 0.44739 0.9771 0.78302 0.0
C284 C 0.46324 0.99705 0.75747 0.0
C285 C 0.48199 0.02759 0.78123 0.0
C286 C 0.42877 0.9524 0.79328 0.0
C287 C 0.42445 0.95913 0.80951 0.0
C288 C 0.40928 0.93591 0.81978 0.0
C289 C 0.39817 0.90534 0.81414 0.0
C290 C 0.40097 0.89867 0.79771 0.0
C291 C 0.4161 0.92203 0.78735 0.0
C292 C 0.46194 0.99432 0.73957 0.0
C293 C 0.45556 0.96583 0.73147 0.0
C294 C 0.45631 0.96415 0.71454 0.0
C295 C 0.46277 0.99086 0.70547 0.0
C296 C 0.46837 1.01916 0.71359 0.0
C297 C 0.46814 1.02089 0.73042 0.0
C298 C 0.49958 0.05745 0.78915 0.0
C299 C 0.50832 0.08404 0.77999 0.0
C300 C 0.64009 0.58063 0.1057 0.0
C301 C 0.6439 0.56986 0.12124 0.0
C302 C 0.61672 0.55768 0.13021 0.0
C303 C 0.58643 0.55586 0.12362 0.0
H304 H 0.48901 0.58164 0.12838 0.0
H305 H 0.43898 0.58044 0.14035 0.0
H306 H 0.38651 0.51707 0.10234 0.0
H307 H 0.43595 0.51861 0.09035 0.0
H308 H 0.47249 0.55913 0.05409 0.0
H309 H 0.47033 0.55672 0.02444 0.0
H310 H 0.56142 0.54188 0.02557 0.0
H311 H 0.56379 0.54438 0.05508 0.0
H312 H 0.60827 0.58661 0.08695 0.0
H313 H 0.66029 0.58976 0.09832 0.0
H314 H 0.61885 0.54936 0.14227 0.0
H315 H 0.5659 0.54577 0.13063 0.0
N316 N 0.52452 0.55817 0.10803 0.0
N317 N 0.49406 0.55125 0.08336 0.0
N318 N 0.54845 0.55879 0.08319 0.0
C319 C 0.49587 0.55327 0.09984 0.0
C320 C 0.52024 0.55401 0.07495 0.0
C321 C 0.55101 0.56092 0.09963 0.0
C322 C 0.46643 0.55029 0.1084 0.0
C323 C 0.46677 0.56716 0.12276 0.0
C324 C 0.43817 0.56664 0.12953 0.0
C325 C 0.40881 0.54865 0.12228 0.0
C326 C 0.40869 0.53095 0.10829 0.0
C327 C 0.43706 0.53197 0.10138 0.0
C328 C 0.51832 0.55197 0.05698 0.0
C329 C 0.49201 0.55525 0.04802 0.0
C330 C 0.49083 0.55406 0.03105 0.0
C331 C 0.51569 0.54907 0.02272 0.0
C332 C 0.5418 0.54548 0.03167 0.0
C333 C 0.54319 0.54709 0.04859 0.0
C334 C 0.58276 0.56576 0.10783 0.0
C335 C 0.61006 0.57857 0.09911 0.0
C336 C 0.15237 0.5821 0.1483 0.0
C337 C 0.1273 0.55541 0.15126 0.0
C338 C 0.18332 0.58112 0.14705 0.0
C339 C 0.22707 0.52883 0.1363 0.0
H340 H 0.29996 0.59067 0.15675 0.0
C341 C 0.35329 0.52172 0.13034 0.0
C342 C 0.37816 0.54914 0.12864 0.0
C343 C 0.3234 0.52214 0.13474 0.0
C344 C 0.27997 0.5734 0.15076 0.0
H345 H 0.11532 0.50679 0.1554 0.0
H346 H 0.16931 0.50502 0.15299 0.0
H347 H 0.24663 0.59227 0.16118 0.0
H348 H 0.39127 0.59853 0.13045 0.0
H349 H 0.339 0.59945 0.13767 0.0
H350 H 0.26003 0.51049 0.1254 0.0
C351 C 0.16495 0.52672 0.15167 0.0
C352 C 0.24934 0.57428 0.15338 0.0
C353 C 0.13404 0.52778 0.15315 0.0
C354 C 0.37267 0.57701 0.13185 0.0
C355 C 0.34262 0.57747 0.13603 0.0
C356 C 0.25765 0.52816 0.13352 0.0
C357 C 0.18993 0.55334 0.1485 0.0
C358 C 0.22252 0.55201 0.14617 0.0
C359 C 0.31735 0.55003 0.13731 0.0
C360 C 0.28464 0.55044 0.14069 0.0
H361 H 0.14807 0.60381 0.14682 0.0
H362 H 0.20195 0.60198 0.14448 0.0
H363 H 0.20694 0.51161 0.13036 0.0
H364 H 0.35689 0.49986 0.12812 0.0
H365 H 0.30497 0.50048 0.136 0.0
C366 C 0.75136 0.20741 0.49573 0.0
C367 C 0.71937 0.20069 0.49035 0.0
C368 C 0.77368 0.23561 0.49255 0.0
C369 C 0.78771 0.29964 0.46441 0.0
H370 H 0.85445 0.34195 0.49625 0.0
C371 C 0.87523 0.41855 0.45224 0.0
C372 C 0.90742 0.4238 0.45671 0.0
C373 C 0.85186 0.39267 0.45742 0.0
C374 C 0.83615 0.3303 0.48716 0.0
H375 H 0.68583 0.21868 0.47752 0.0
H376 H 0.72464 0.268 0.47217 0.0
H377 H 0.81443 0.29437 0.50323 0.0
H378 H 0.94014 0.40622 0.4705 0.0
H379 H 0.89938 0.3609 0.47949 0.0
H380 H 0.80952 0.33521 0.44827 0.0
C381 C 0.73253 0.2513 0.47872 0.0
C382 C 0.81317 0.30301 0.49117 0.0
C383 C 0.71019 0.22313 0.48194 0.0
C384 C 0.91555 0.40301 0.46696 0.0
C385 C 0.89214 0.37701 0.47211 0.0
C386 C 0.81067 0.32685 0.4604 0.0
C387 C 0.76462 0.25782 0.48387 0.0
C388 C 0.78869 0.28729 0.47982 0.0
C389 C 0.86002 0.37125 0.46719 0.0
C390 C 0.83525 0.34255 0.4717 0.0
H391 H 0.75921 0.19083 0.50241 0.0
H392 H 0.7982 0.23971 0.49658 0.0
H393 H 0.76957 0.2879 0.45527 0.0
H394 H 0.86809 0.4344 0.4446 0.0
H395 H 0.82734 0.3894 0.45369 0.0
C396 C 0.41747 0.68495 0.86802 0.0
C397 C 0.45002 0.69993 0.87143 0.0
C398 C 0.39573 0.70103 0.86896 0.0
C399 C 0.38794 0.77778 0.87826 0.0
H400 H 0.35903 0.77189 0.83301 0.0
C401 C 0.40459 0.88161 0.84047 0.0
C402 C 0.38711 0.8804 0.82576 0.0
C403 C 0.39751 0.85656 0.85051 0.0
C404 C 0.36577 0.77362 0.84583 0.0
H405 H 0.48462 0.74216 0.88069 0.0
H406 H 0.44689 0.77008 0.88239 0.0
H407 H 0.37289 0.73004 0.84489 0.0
H408 H 0.34682 0.853 0.81066 0.0
H409 H 0.33401 0.80908 0.82838 0.0
H410 H 0.38244 0.82225 0.87887 0.0
C411 C 0.438 0.74599 0.87896 0.0
C412 C 0.37378 0.74941 0.85269 0.0
C413 C 0.45975 0.72997 0.87793 0.0
C414 C 0.36099 0.85433 0.82182 0.0
C415 C 0.35366 0.82925 0.83199 0.0
C416 C 0.37949 0.8019 0.87144 0.0
C417 C 0.40619 0.73228 0.87343 0.0
C418 C 0.38703 0.75215 0.86863 0.0
C419 C 0.37263 0.82962 0.84616 0.0
C420 C 0.37055 0.80097 0.85482 0.0
H421 H 0.40916 0.6615 0.86339 0.0
H422 H 0.37125 0.68976 0.8649 0.0
H423 H 0.39756 0.78024 0.89067 0.0
H424 H 0.42511 0.90122 0.84377 0.0
H425 H 0.41315 0.85769 0.86109 0.0
C426 C 0.92375 0.5881 0.13884 0.0
C427 C 0.93107 0.56311 0.14556 0.0
C428 C 0.89246 0.58872 0.13787 0.0
C429 C 0.80896 0.53862 0.13745 0.0
H430 H 0.79194 0.61447 0.14668 0.0
C431 C 0.68065 0.54481 0.1351 0.0
C432 C 0.6761 0.57032 0.12747 0.0
C433 C 0.71133 0.54395 0.13911 0.0
C434 C 0.79624 0.59313 0.14392 0.0
H435 H 0.91094 0.51908 0.15653 0.0
H436 H 0.8564 0.52019 0.15481 0.0
H437 H 0.84608 0.61274 0.14973 0.0
H438 H 0.70035 0.61562 0.11891 0.0
H439 H 0.75352 0.61394 0.12558 0.0
H440 H 0.75925 0.51913 0.13134 0.0
C441 C 0.87489 0.53926 0.1502 0.0
C442 C 0.82735 0.59215 0.14567 0.0
C443 C 0.90623 0.5387 0.15126 0.0
C444 C 0.70294 0.59543 0.12458 0.0
C445 C 0.73352 0.59458 0.12858 0.0
C446 C 0.77784 0.53962 0.13564 0.0
C447 C 0.86758 0.56432 0.14353 0.0
C448 C 0.8342 0.56497 0.14231 0.0
C449 C 0.73823 0.56863 0.13564 0.0
C450 C 0.77106 0.56699 0.13868 0.0
H451 H 0.9422 0.60729 0.13431 0.0
H452 H 0.88769 0.6082 0.13245 0.0
H453 H 0.81337 0.51737 0.13458 0.0
H454 H 0.66056 0.525 0.13741 0.0
H455 H 0.71397 0.52376 0.14476 0.0
C456 C 0.30954 0.88526 0.50668 0.0
C457 C 0.34194 0.88817 0.50613 0.0
C458 C 0.28613 0.85738 0.50258 0.0
C459 C 0.27293 0.78558 0.47903 0.0
H460 H 0.19825 0.75518 0.50408 0.0
C461 C 0.18171 0.66699 0.46455 0.0
C462 C 0.14941 0.66426 0.4651 0.0
C463 C 0.20513 0.69327 0.47078 0.0
C464 C 0.21877 0.76347 0.49684 0.0
H465 H 0.37489 0.86345 0.50121 0.0
H466 H 0.33409 0.81506 0.49385 0.0
H467 H 0.23907 0.80316 0.5124 0.0
H468 H 0.11636 0.68672 0.47299 0.0
H469 H 0.15722 0.73287 0.48368 0.0
H470 H 0.25258 0.74643 0.46329 0.0
C471 C 0.32683 0.83451 0.4973 0.0
C472 C 0.24221 0.79098 0.50163 0.0
C473 C 0.35024 0.86232 0.50149 0.0
C474 C 0.14104 0.68803 0.47253 0.0
C475 C 0.16452 0.71449 0.47866 0.0
C476 C 0.24946 0.75823 0.47419 0.0
C477 C 0.29448 0.83172 0.49772 0.0
C478 C 0.26959 0.80234 0.49279 0.0
C479 C 0.19692 0.71769 0.47762 0.0
C480 C 0.22206 0.74672 0.48303 0.0
H481 H 0.30217 0.90473 0.50994 0.0
H482 H 0.26144 0.85614 0.50284 0.0
H483 H 0.29345 0.79393 0.47178 0.0
H484 H 0.1889 0.64886 0.45912 0.0
H485 H 0.22975 0.69451 0.47012 0.0
C486 C 0.56941 0.36993 0.80945 0.0
C487 C 0.55176 0.38374 0.81872 0.0
C488 C 0.57582 0.34386 0.81492 0.0
C489 C 0.5374 0.27882 0.83938 0.0
H490 H 0.60404 0.25015 0.82354 0.0
C491 C 0.56099 0.15747 0.82288 0.0
C492 C 0.53355 0.14558 0.81269 0.0
C493 C 0.5685 0.18706 0.82973 0.0
C494 C 0.58567 0.25792 0.82846 0.0
H495 H 0.52974 0.38329 0.84161 0.0
H496 H 0.54137 0.33799 0.85134 0.0
H497 H 0.61159 0.30504 0.82499 0.0
H498 H 0.49176 0.15402 0.8022 0.0
H499 H 0.50449 0.20522 0.81421 0.0
H500 H 0.51089 0.2317 0.84204 0.0
C501 C 0.54953 0.34672 0.83966 0.0
C502 C 0.58981 0.28929 0.82912 0.0
C503 C 0.54281 0.37257 0.8341 0.0
C504 C 0.51316 0.16293 0.80994 0.0
C505 C 0.52029 0.19203 0.81695 0.0
C506 C 0.53335 0.24759 0.83877 0.0
C507 C 0.56494 0.3313 0.82984 0.0
C508 C 0.56493 0.2999 0.83367 0.0
C509 C 0.54816 0.20455 0.82676 0.0
C510 C 0.55664 0.23682 0.83238 0.0
H511 H 0.57657 0.37816 0.79754 0.0
H512 H 0.58737 0.33243 0.80691 0.0
H513 H 0.51766 0.28602 0.84293 0.0
H514 H 0.57693 0.14426 0.82515 0.0
H515 H 0.5902 0.19636 0.83719 0.0
C516 C 0.56348 0.93911 0.50981 0.0
C517 C 0.53565 0.94706 0.51155 0.0
C518 C 0.56327 0.90843 0.51085 0.0
C519 C 0.51329 0.83032 0.52467 0.0
H520 H 0.57194 0.80153 0.50091 0.0
C521 C 0.50253 0.70056 0.52147 0.0
C522 C 0.53039 0.69201 0.52228 0.0
C523 C 0.50367 0.7313 0.51977 0.0
C524 C 0.55552 0.8091 0.50778 0.0
H525 H 0.48548 0.92791 0.51551 0.0
H526 H 0.48484 0.87498 0.51688 0.0
H527 H 0.57274 0.85453 0.49866 0.0
H528 H 0.58158 0.71056 0.52151 0.0
H529 H 0.58348 0.76378 0.51828 0.0
H530 H 0.49586 0.7848 0.53363 0.0
C531 C 0.50727 0.89241 0.51512 0.0
C532 C 0.556 0.83984 0.50652 0.0
C533 C 0.50754 0.92307 0.5142 0.0
C534 C 0.55943 0.71564 0.52078 0.0
C535 C 0.56054 0.74647 0.51897 0.0
C536 C 0.51266 0.7996 0.52582 0.0
C537 C 0.53515 0.88433 0.51359 0.0
C538 C 0.53485 0.85119 0.51492 0.0
C539 C 0.53269 0.75501 0.51865 0.0
C540 C 0.53371 0.78826 0.51739 0.0
H541 H 0.58571 0.95671 0.50785 0.0
H542 H 0.58549 0.90381 0.50981 0.0
H543 H 0.497 0.83774 0.53171 0.0
H544 H 0.4795 0.68342 0.52212 0.0
H545 H 0.48153 0.73642 0.5192 0.0
C546 C 0.63847 0.54804 0.81919 0.0
C547 C 0.63007 0.57291 0.82534 0.0
C548 C 0.6701 0.54838 0.82015 0.0
C549 C 0.75263 0.60082 0.82499 0.0
H550 H 0.77252 0.5286 0.83878 0.0
C551 C 0.87965 0.60478 0.84559 0.0
C552 C 0.88953 0.57913 0.84264 0.0
C553 C 0.84845 0.60387 0.84168 0.0
C554 C 0.76745 0.54883 0.83463 0.0
H555 H 0.64866 0.6177 0.83726 0.0
H556 H 0.70368 0.61826 0.83889 0.0
H557 H 0.7173 0.52711 0.83567 0.0
H558 H 0.87435 0.53272 0.83266 0.0
H559 H 0.82008 0.53139 0.82543 0.0
H560 H 0.80268 0.6226 0.82393 0.0
C561 C 0.68581 0.59857 0.83324 0.0
C562 C 0.73571 0.54799 0.8329 0.0
C563 C 0.65417 0.59814 0.8324 0.0
C564 C 0.86767 0.55296 0.83502 0.0
C565 C 0.83638 0.55206 0.83108 0.0
C566 C 0.78434 0.60162 0.82663 0.0
C567 C 0.6942 0.57368 0.82715 0.0
C568 C 0.72791 0.57409 0.82825 0.0
C569 C 0.82618 0.57733 0.83462 0.0
C570 C 0.79226 0.57577 0.83168 0.0
H571 H 0.6206 0.52818 0.81368 0.0
H572 H 0.67574 0.52894 0.81522 0.0
H573 H 0.74747 0.62117 0.8211 0.0
H574 H 0.89592 0.62547 0.85124 0.0
H575 H 0.84157 0.62372 0.84475 0.0
C576 C 0.19211 0.77538 0.15111 0.0
C577 C 0.19008 0.74431 0.15175 0.0
C578 C 0.22054 0.79841 0.15552 0.0
C579 C 0.29492 0.81198 0.18015 0.0
H580 H 0.32438 0.88586 0.15554 0.0
C581 C 0.4153 0.90317 0.19657 0.0
C582 C 0.41656 0.93401 0.19606 0.0
C583 C 0.38886 0.88003 0.18994 0.0
C584 C 0.31634 0.86552 0.16265 0.0
H585 H 0.21688 0.71329 0.1571 0.0
H586 H 0.26628 0.75343 0.16498 0.0
H587 H 0.27582 0.84556 0.14642 0.0
H588 H 0.39129 0.96478 0.18791 0.0
H589 H 0.34492 0.92441 0.17651 0.0
H590 H 0.33491 0.83199 0.19656 0.0
C591 C 0.24572 0.75993 0.16123 0.0
C592 C 0.28852 0.8424 0.1574 0.0
C593 C 0.21735 0.73691 0.15674 0.0
C594 C 0.39117 0.94125 0.18834 0.0
C595 C 0.36458 0.91807 0.1818 0.0
C596 C 0.3226 0.83512 0.18545 0.0
C597 C 0.24761 0.79095 0.16076 0.0
C598 C 0.27748 0.81537 0.1661 0.0
C599 C 0.36287 0.8871 0.18273 0.0
C600 C 0.33371 0.86223 0.17678 0.0
H601 H 0.17151 0.78197 0.14757 0.0
H602 H 0.22108 0.82206 0.15522 0.0
H603 H 0.28679 0.79168 0.18729 0.0
H604 H 0.43471 0.89689 0.20222 0.0
H605 H 0.38874 0.85653 0.19056 0.0
C606 C 0.50969 0.15001 0.52336 0.0
C607 C 0.53217 0.14117 0.51473 0.0
C608 C 0.51034 0.18087 0.5243 0.0
C609 C 0.56297 0.26201 0.5168 0.0
H610 H 0.48554 0.28153 0.52243 0.0
C611 C 0.56617 0.38783 0.53064 0.0
C612 C 0.54019 0.39783 0.526 0.0
C613 C 0.56487 0.35702 0.52864 0.0
C614 C 0.5075 0.2768 0.52067 0.0
H615 H 0.57279 0.15878 0.50004 0.0
H616 H 0.57351 0.21183 0.50125 0.0
H617 H 0.48367 0.22833 0.5199 0.0
H618 H 0.4924 0.38188 0.51507 0.0
H619 H 0.49051 0.32869 0.51104 0.0
H620 H 0.58666 0.31039 0.51696 0.0
C621 C 0.55568 0.1952 0.50776 0.0
C622 C 0.5065 0.24585 0.51947 0.0
C623 C 0.55517 0.1644 0.50695 0.0
C624 C 0.51311 0.37561 0.51878 0.0
C625 C 0.51186 0.34467 0.51668 0.0
C626 C 0.56393 0.2929 0.51789 0.0
C627 C 0.53336 0.20425 0.51651 0.0
C628 C 0.53425 0.23768 0.51759 0.0
C629 C 0.53764 0.33458 0.52171 0.0
C630 C 0.53627 0.30111 0.51997 0.0
H631 H 0.49163 0.13307 0.52962 0.0
H632 H 0.49294 0.18634 0.53142 0.0
H633 H 0.58513 0.25737 0.51559 0.0
H634 H 0.58784 0.40386 0.53595 0.0
H635 H 0.58528 0.35082 0.53293 0.0
C636 C 0.40484 0.5365 0.81871 0.0
C637 C 0.42941 0.56427 0.82186 0.0
C638 C 0.37307 0.53477 0.82024 0.0
C639 C 0.31908 0.58117 0.82037 0.0
H640 H 0.26601 0.51581 0.84538 0.0
C641 C 0.19605 0.58156 0.84057 0.0
C642 C 0.1723 0.55347 0.84253 0.0
C643 C 0.22675 0.58247 0.83684 0.0
C644 C 0.28015 0.53392 0.83807 0.0
H645 H 0.43948 0.61208 0.82877 0.0
H646 H 0.38422 0.60915 0.83121 0.0
H647 H 0.32032 0.51789 0.84088 0.0
H648 H 0.16173 0.50426 0.84139 0.0
H649 H 0.21472 0.50565 0.83425 0.0
H650 H 0.27895 0.597 0.81726 0.0
C651 C 0.38955 0.5887 0.82759 0.0
C652 C 0.31144 0.53515 0.83557 0.0
C653 C 0.4213 0.59033 0.82628 0.0
C654 C 0.17964 0.52628 0.84011 0.0
C655 C 0.21017 0.52714 0.83614 0.0
C656 C 0.28763 0.57972 0.82266 0.0
C657 C 0.36506 0.56084 0.82473 0.0
C658 C 0.33137 0.55891 0.8268 0.0
C659 C 0.23443 0.55526 0.83475 0.0
C660 C 0.2677 0.55621 0.83168 0.0
H661 H 0.41014 0.51593 0.81533 0.0
H662 H 0.35471 0.51301 0.81786 0.0
H663 H 0.33375 0.59959 0.8134 0.0
H664 H 0.19124 0.60291 0.84257 0.0
H665 H 0.24469 0.60461 0.83615 0.0
C666 C 0.84301 0.38407 0.18067 0.0
C667 C 0.86695 0.37782 0.17208 0.0
C668 C 0.81483 0.36081 0.18345 0.0
C669 C 0.76517 0.28248 0.16984 0.0
H670 H 0.73301 0.27966 0.21283 0.0
C671 C 0.66913 0.17653 0.19348 0.0
C672 C 0.64705 0.18173 0.20386 0.0
C673 C 0.69426 0.20101 0.18832 0.0
C674 C 0.74133 0.28032 0.20067 0.0
H675 H 0.87982 0.34208 0.15962 0.0
H676 H 0.83071 0.30152 0.16449 0.0
H677 H 0.77986 0.32126 0.20628 0.0
H678 H 0.63298 0.21685 0.21616 0.0
H679 H 0.67652 0.25949 0.20707 0.0
H680 H 0.72671 0.24126 0.16432 0.0
C681 C 0.83354 0.32453 0.16887 0.0
C682 C 0.76826 0.30422 0.19692 0.0
C683 C 0.86173 0.34781 0.16609 0.0
C684 C 0.64993 0.21203 0.20841 0.0
C685 C 0.67494 0.23647 0.20323 0.0
C686 C 0.73816 0.25853 0.1736 0.0
C687 C 0.80987 0.33067 0.17773 0.0
C688 C 0.7806 0.30558 0.18148 0.0
C689 C 0.69781 0.23125 0.19339 0.0
C690 C 0.72595 0.25711 0.18909 0.0
H691 H 0.84602 0.40702 0.18521 0.0
H692 H 0.79688 0.36647 0.19007 0.0
H693 H 0.77381 0.28303 0.15776 0.0
H694 H 0.66775 0.15344 0.18988 0.0
H695 H 0.71157 0.19611 0.18087 0.0
C696 C 1.00982 0.55923 0.0951 0.0
C697 C 0.02878 0.54419 0.10321 0.0
C698 C 1.01108 0.56282 0.07833 0.0
C699 C 0.06131 0.56814 0.0443 0.0
H700 H 0.98323 0.53498 0.01793 0.0
C701 C 0.06166 0.55822 0.97454 0.0
C702 C 0.03583 0.56161 0.96518 0.0
C703 C 0.06102 0.557 0.99144 0.0
C704 C 1.00522 0.54495 0.02506 0.0
H705 H 0.06461 0.52204 0.10038 0.0
H706 H 0.06747 0.52916 0.0711 0.0
H707 H 0.98206 0.5329 0.04736 0.0
H708 H 0.98884 0.56608 0.96654 0.0
H709 H 0.98863 0.56598 -0.00417 0.0
H710 H 0.08452 0.58113 0.02221 0.0
C711 C 0.05139 0.53776 0.07768 0.0
C712 C 1.00448 0.54357 0.04193 0.0
C713 C 0.04964 0.53359 0.09438 0.0
C714 C 1.00948 0.564 0.97325 0.0
C715 C 1.00909 0.56335 0.99014 0.0
C716 C 0.06201 0.57011 0.02744 0.0
C717 C 0.03185 0.55207 0.06949 0.0
C718 C 0.03254 0.55491 0.05168 0.0
C719 C 0.03476 0.55964 -0.0005 0.0
C720 C 0.034 0.55829 0.01754 0.0
H721 H 0.99355 0.56761 0.10166 0.0
H722 H 0.99589 0.57404 0.07225 0.0
H723 H 0.08323 0.57725 0.05161 0.0
H724 H 0.08261 0.55675 0.96887 0.0
H725 H 0.08108 0.55362 -0.00188 0.0
C726 C 0.54129 0.02757 0.4575 0.0
C727 C 0.52296 0.04434 0.46395 0.0
C728 C 0.54663 0.02824 0.44092 0.0
C729 C 0.54785 0.07356 0.40457 0.0
H730 H 0.5286 0.99619 0.38073 0.0
C731 C 0.56937 0.06537 0.33628 0.0
C732 C 0.54342 0.04638 0.32672 0.0
C733 C 0.56933 0.06497 0.35321 0.0
C734 C 0.53412 1.01795 0.38725 0.0
H735 H 0.4967 0.07563 0.45833 0.0
H736 H 0.50647 0.0772 0.42944 0.0
H737 H 0.52477 0.99659 0.4102 0.0
H738 H 0.49706 1.01203 0.32768 0.0
H739 H 0.49752 1.0108 0.35716 0.0
H740 H 0.55691 0.09492 0.38162 0.0
C741 C 0.51655 0.06344 0.43715 0.0
C742 C 0.53218 1.01819 0.4041 0.0
C743 C 0.51082 0.06241 0.45365 0.0
C744 C 0.51772 0.02658 0.33457 0.0
C745 C 0.5179 0.02591 0.35148 0.0
C746 C 0.55023 0.07334 0.38776 0.0
C747 C 0.5342 0.0461 0.43058 0.0
C748 C 0.5386 0.04598 0.41289 0.0
C749 C 0.54357 0.04528 0.36097 0.0
C750 C 0.54296 0.04552 0.37891 0.0
H751 H 0.55097 1.0135 0.4652 0.0
H752 H 0.5605 1.01483 0.43617 0.0
H753 H 0.55309 0.09531 0.41107 0.0
H754 H 0.58986 0.08048 0.33072 0.0
H755 H 0.58958 0.07991 0.36024 0.0
C756 C 0.56781 0.61048 0.76814 0.0
C757 C 0.54462 0.59037 0.77724 0.0
C758 C 0.5676 0.60619 0.75133 0.0
C759 C 0.53815 0.54853 0.71802 0.0
H760 H 0.55039 0.61938 0.69121 0.0
C761 C 0.51918 0.53776 0.64805 0.0
C762 C 0.53964 0.56043 0.63886 0.0
C763 C 0.52001 0.5409 0.66496 0.0
C764 C 0.54738 0.59938 0.69849 0.0
H765 H 0.50338 0.54965 0.77598 0.0
H766 H 0.50311 0.54202 0.7466 0.0
H767 H 0.55193 0.62558 0.72058 0.0
H768 H 0.57764 0.60374 0.64029 0.0
H769 H 0.57952 0.60901 0.66973 0.0
H770 H 0.53392 0.52233 0.69596 0.0
C771 C 0.5215 0.56108 0.75246 0.0
C772 C 0.54821 0.60296 0.71535 0.0
C773 C 0.52156 0.56553 0.76926 0.0
C774 C 0.56121 0.58611 0.64699 0.0
C775 C 0.56221 0.58915 0.66389 0.0
C776 C 0.53753 0.54496 0.70114 0.0
C777 C 0.54434 0.58154 0.74327 0.0
C778 C 0.5436 0.57759 0.72533 0.0
C779 C 0.54149 0.56669 0.67312 0.0
C780 C 0.54215 0.57035 0.69113 0.0
H781 H 0.58595 0.62976 0.77398 0.0
H782 H 0.58577 0.62212 0.74464 0.0
H783 H 0.53486 0.52858 0.72538 0.0
H784 H 0.50203 0.51787 0.64213 0.0
H785 H 0.50336 0.52336 0.6716 0.0
C786 C 0.51504 0.04684 0.56318 0.0
C787 C 0.53954 0.03682 0.55763 0.0
C788 C 0.50391 0.03949 0.57864 0.0
C789 C 0.50044 0.98525 0.6115 0.0
H790 H 0.48857 0.04971 0.63857 0.0
C791 C 0.48454 0.97491 0.68064 0.0
C792 C 0.46519 0.98996 0.68766 0.0
C793 C 0.49051 0.9779 0.66415 0.0
C794 C 0.49118 0.03126 0.6311 0.0
H795 H 0.57139 1.01098 0.56372 0.0
H796 H 0.55204 0.99823 0.59078 0.0
H797 H 0.50516 0.06056 0.61104 0.0
H798 H 0.43517 1.01813 0.68284 0.0
H799 H 0.44486 1.02274 0.65403 0.0
H800 H 0.48653 0.95595 0.63161 0.0
C801 C 0.54129 1.01159 0.58316 0.0
C802 C 0.5008 0.03754 0.61532 0.0
C803 C 0.55253 1.01909 0.56773 0.0
C804 C 0.45054 1.00664 0.67775 0.0
C805 C 0.45626 1.00941 0.66128 0.0
C806 C 0.49064 0.9789 0.62729 0.0
C807 C 0.51695 1.02181 0.5888 0.0
C808 C 0.50572 1.01468 0.60538 0.0
C809 C 0.47703 0.99581 0.65437 0.0
C810 C 0.48604 1.00188 0.63731 0.0
H811 H 0.50447 0.06038 0.55558 0.0
H812 H 0.4849 0.04742 0.58259 0.0
H813 H 0.50369 0.96707 0.60405 0.0
H814 H 0.49635 0.96213 0.68805 0.0
H815 H 0.50683 0.96732 0.65928 0.0
C816 C 0.52191 0.56604 0.87421 0.0
C817 C 0.52465 0.53973 0.86654 0.0
C818 C 0.52043 0.5676 0.89107 0.0
C819 C 0.50325 0.51763 0.92679 0.0
H820 H 0.54323 0.59372 0.95109 0.0
C821 C 0.52221 0.52433 -0.00349 0.0
C822 C 0.51467 0.54778 0.00475 0.0
C823 C 0.52222 0.52351 0.9796 0.0
C824 C 0.5317 0.57239 0.94443 0.0
H825 H 0.52845 0.4946 0.87032 0.0
H826 H 0.52698 0.49757 0.89974 0.0
H827 H 0.54669 0.59226 0.92171 0.0
H828 H 0.5013 0.58879 0.00178 0.0
H829 H 0.50157 0.58751 0.97213 0.0
H830 H 0.48899 0.49768 0.94962 0.0
C831 C 0.52515 0.51679 0.89282 0.0
C832 C 0.5336 0.57153 0.92758 0.0
C833 C 0.52628 0.51515 0.87597 0.0
C834 C 0.50699 0.57034 -0.00427 0.0
C835 C 0.5074 0.56975 0.9788 0.0
C836 C 0.50166 0.51844 0.94363 0.0
C837 C 0.52186 0.5429 0.90061 0.0
C838 C 0.51952 0.54409 0.91854 0.0
C839 C 0.51505 0.54633 0.97057 0.0
C840 C 0.51596 0.54579 0.95264 0.0
H841 H 0.51986 0.58499 0.86716 0.0
H842 H 0.51735 0.58786 0.89657 0.0
H843 H 0.49147 0.49625 0.92024 0.0
H844 H 0.52803 0.50654 0.00315 0.0
H845 H 0.52842 0.50532 0.97358 0.0
C846 C 0.02397 0.59611 0.2073 0.0
C847 C 0.0324 0.57576 0.19703 0.0
C848 C 0.02364 0.59207 0.22402 0.0
C849 C 0.01678 0.53519 0.25534 0.0
H850 H 0.0579 0.60594 0.28351 0.0
C851 C 0.03104 0.52616 0.32505 0.0
C852 C 0.02843 0.55045 0.33474 0.0
C853 C 0.03161 0.52837 0.30818 0.0
C854 C 0.04588 0.586 0.27586 0.0
H855 H 0.04651 0.53489 0.19609 0.0
H856 H 0.04548 0.52753 0.22543 0.0
H857 H 0.05834 0.6112 0.25424 0.0
H858 H 0.02326 0.59563 0.33435 0.0
H859 H 0.02343 0.59927 0.30498 0.0
H860 H 1.00364 0.51009 0.27694 0.0
C861 C 0.03926 0.54667 0.2205 0.0
C862 C 0.04628 0.58903 0.25907 0.0
C863 C 0.03997 0.55094 0.20375 0.0
C864 C 0.02582 0.57675 0.3272 0.0
C865 C 0.02605 0.57885 0.31035 0.0
C866 C 0.01607 0.5322 0.27217 0.0
C867 C 0.03139 0.5674 0.23081 0.0
C868 C 0.03161 0.56372 0.24863 0.0
C869 C 0.02928 0.55483 0.30061 0.0
C870 C 0.03047 0.55763 0.28266 0.0
H871 H 0.0179 0.61538 0.20244 0.0
H872 H 0.01711 0.60819 0.23165 0.0
H873 H 1.00506 0.51535 0.24756 0.0
H874 H 0.03337 0.50571 0.33056 0.0
H875 H 0.03455 0.50958 0.30112 0.0
loop_
_geom_bond_atom_site_label_1
_geom_bond_atom_site_label_2
_geom_bond_distance
_geom_bond_site_symmetry_2
_ccdc_geom_bond_type
Pr0 C2 2.880 . S
Pr0 O20 2.562 . S
Pr0 O21 2.490 . S
Pr0 O22 2.695 1_655 S
Pr0 O23 2.512 . S
Pr0 O25 2.437 . S
Pr0 O28 2.436 . S
Pr0 O30 2.438 1_655 S
Pr1 C11 2.880 . S
Pr1 O22 2.436 . S
Pr1 O24 2.438 1_455 S
Pr1 O26 2.562 . S
Pr1 O27 2.490 . S
Pr1 O28 2.695 1_455 S
Pr1 O29 2.512 . S
Pr1 O31 2.437 . S
C2 Pr0 2.880 . S
C2 C3 1.491 . S
C2 O20 1.254 . S
C2 O21 1.225 . S
C3 C2 1.491 . S
C3 C4 1.392 . S
C3 C8 1.356 . S
C4 C3 1.392 . S
C4 C5 1.368 . S
C4 H32 0.929 . S
C5 C4 1.368 . S
C5 C6 1.386 . S
C5 H33 0.929 . S
C6 C5 1.386 . S
C6 C7 1.373 . S
C7 C6 1.373 . S
C7 C8 1.409 . S
C7 H34 0.931 . S
C8 C3 1.356 . S
C8 C7 1.409 . S
C8 H35 0.930 . S
C9 O22 1.270 . S
C9 O23 1.248 1_455 S
C10 O24 1.267 . S
C10 O25 1.278 . S
C11 Pr1 2.880 . S
C11 C12 1.491 . S
C11 O26 1.254 . S
C11 O27 1.225 . S
C12 C11 1.491 . S
C12 C13 1.392 . S
C12 C17 1.356 . S
C13 C12 1.392 . S
C13 C14 1.368 . S
C13 H36 0.929 . S
C14 C13 1.368 . S
C14 C15 1.386 . S
C14 H37 0.929 . S
C15 C14 1.386 . S
C15 C16 1.373 . S
C16 C15 1.373 . S
C16 C17 1.409 . S
C16 H38 0.931 . S
C17 C12 1.356 . S
C17 C16 1.409 . S
C17 H39 0.930 . S
C18 O28 1.270 1_455 S
C18 O29 1.248 . S
C19 O30 1.267 . S
C19 O31 1.278 . S
O20 Pr0 2.562 . S
O20 C2 1.254 . S
O21 Pr0 2.490 . S
O21 C2 1.225 . S
O22 Pr0 2.695 1_455 S
O22 Pr1 2.436 . S
O22 C9 1.270 . S
O23 Pr0 2.512 . S
O23 C9 1.248 1_655 S
O24 Pr1 2.438 1_655 S
O24 C10 1.267 . S
O25 Pr0 2.437 . S
O25 C10 1.278 . S
O26 Pr1 2.562 . S
O26 C11 1.254 . S
O27 Pr1 2.490 . S
O27 C11 1.225 . S
O28 Pr0 2.436 . S
O28 Pr1 2.695 1_655 S
O28 C18 1.270 1_655 S
O29 Pr1 2.512 . S
O29 C18 1.248 . S
O30 Pr0 2.438 1_455 S
O30 C19 1.267 . S
O31 Pr1 2.437 . S
O31 C19 1.278 . S
H32 C4 0.929 . S
H33 C5 0.929 . S
H34 C7 0.931 . S
H35 C8 0.930 . S
H36 C13 0.929 . S
H37 C14 0.929 . S
H38 C16 0.931 . S
H39 C17 0.930 . S
Pr40 C42 2.880 . S
Pr40 O60 2.562 . S
Pr40 O61 2.490 . S
Pr40 O62 2.695 . S
Pr40 O63 2.512 . S
Pr40 O65 2.437 . S
Pr40 O68 2.436 . S
Pr40 O70 2.438 1_545 S
Pr41 C51 2.854 1_545 S
Pr41 O62 2.433 . S
Pr41 O64 2.473 . S
Pr41 O66 2.536 1_545 S
Pr41 O67 2.469 1_545 S
Pr41 O68 2.700 . S
Pr41 O69 2.512 . S
Pr41 O71 2.405 1_545 S
C42 Pr40 2.880 . S
C42 C43 1.491 . S
C42 O60 1.254 . S
C42 O61 1.225 . S
C43 C42 1.491 . S
C43 C44 1.392 . S
C43 C48 1.356 . S
C44 C43 1.392 . S
C44 C45 1.368 . S
C44 H72 0.929 . S
C45 C44 1.368 . S
C45 C46 1.386 . S
C45 H73 0.929 . S
C46 C45 1.386 . S
C46 C47 1.373 . S
C47 C46 1.373 . S
C47 C48 1.409 . S
C47 H74 0.931 . S
C48 C43 1.356 . S
C48 C47 1.409 . S
C48 H75 0.930 . S
C49 O62 1.270 . S
C49 O63 1.248 . S
C50 O64 1.267 . S
C50 O65 1.278 . S
C51 Pr41 2.854 1_565 S
C51 C52 1.491 . S
C51 O66 1.254 . S
C51 O67 1.225 . S
C52 C51 1.491 . S
C52 C53 1.392 . S
C52 C57 1.356 . S
C53 C52 1.392 . S
C53 C54 1.368 . S
C53 H76 0.929 . S
C54 C53 1.368 . S
C54 C55 1.386 . S
C54 H77 0.929 . S
C55 C54 1.386 . S
C55 C56 1.373 . S
C56 C55 1.373 . S
C56 C57 1.409 . S
C56 H78 0.931 . S
C57 C52 1.356 . S
C57 C56 1.409 . S
C57 H79 0.930 . S
C58 O68 1.270 . S
C58 O69 1.248 . S
C59 O70 1.267 . S
C59 O71 1.278 . S
O60 Pr40 2.562 . S
O60 C42 1.254 . S
O61 Pr40 2.490 . S
O61 C42 1.225 . S
O62 Pr40 2.695 . S
O62 Pr41 2.433 . S
O62 C49 1.270 . S
O63 Pr40 2.512 . S
O63 C49 1.248 . S
O64 Pr41 2.473 . S
O64 C50 1.267 . S
O65 Pr40 2.437 . S
O65 C50 1.278 . S
O66 Pr41 2.536 1_565 S
O66 C51 1.254 . S
O67 Pr41 2.469 1_565 S
O67 C51 1.225 . S
O68 Pr40 2.436 . S
O68 Pr41 2.700 . S
O68 C58 1.270 . S
O69 Pr41 2.512 . S
O69 C58 1.248 . S
O70 Pr40 2.438 1_565 S
O70 C59 1.267 . S
O71 Pr41 2.405 1_565 S
O71 C59 1.278 . S
H72 C44 0.929 . S
H73 C45 0.929 . S
H74 C47 0.931 . S
H75 C48 0.930 . S
H76 C53 0.929 . S
H77 C54 0.929 . S
H78 C56 0.931 . S
H79 C57 0.930 . S
Pr80 C82 2.880 . S
Pr80 O100 2.562 . S
Pr80 O101 2.490 . S
Pr80 O102 2.695 . S
Pr80 O103 2.512 . S
Pr80 O105 2.437 . S
Pr80 O108 2.436 . S
Pr80 O110 2.438 . S
Pr81 C91 2.880 . S
Pr81 O102 2.436 . S
Pr81 O104 2.438 . S
Pr81 O106 2.562 . S
Pr81 O107 2.490 . S
Pr81 O108 2.695 . S
Pr81 O109 2.512 . S
Pr81 O111 2.437 . S
C82 Pr80 2.880 . S
C82 C83 1.491 . S
C82 O100 1.254 . S
C82 O101 1.225 . S
C83 C82 1.491 . S
C83 C84 1.392 . S
C83 C88 1.356 . S
C84 C83 1.392 . S
C84 C85 1.368 . S
C84 H112 0.929 . S
C85 C84 1.368 . S
C85 C86 1.386 . S
C85 H113 0.929 . S
C86 C85 1.386 . S
C86 C87 1.373 . S
C87 C86 1.373 . S
C87 C88 1.409 . S
C87 H114 0.931 . S
C88 C83 1.356 . S
C88 C87 1.409 . S
C88 H115 0.930 . S
C89 O102 1.270 . S
C89 O103 1.248 . S
C90 O104 1.267 . S
C90 O105 1.278 . S
C91 Pr81 2.880 . S
C91 C92 1.491 . S
C91 O106 1.254 . S
C91 O107 1.225 . S
C92 C91 1.491 . S
C92 C93 1.392 . S
C92 C97 1.356 . S
C93 C92 1.392 . S
C93 C94 1.368 . S
C93 H116 0.929 . S
C94 C93 1.368 . S
C94 C95 1.386 . S
C94 H117 0.929 . S
C95 C94 1.386 . S
C95 C96 1.373 . S
C96 C95 1.373 . S
C96 C97 1.409 . S
C96 H118 0.931 . S
C97 C92 1.356 . S
C97 C96 1.409 . S
C97 H119 0.930 . S
C98 O108 1.270 . S
C98 O109 1.248 . S
C99 O110 1.267 . S
C99 O111 1.278 . S
O100 Pr80 2.562 . S
O100 C82 1.254 . S
O101 Pr80 2.490 . S
O101 C82 1.225 . S
O102 Pr80 2.695 . S
O102 Pr81 2.436 . S
O102 C89 1.270 . S
O103 Pr80 2.512 . S
O103 C89 1.248 . S
O104 Pr81 2.438 . S
O104 C90 1.267 . S
O105 Pr80 2.437 . S
O105 C90 1.278 . S
O106 Pr81 2.562 . S
O106 C91 1.254 . S
O107 Pr81 2.490 . S
O107 C91 1.225 . S
O108 Pr80 2.436 . S
O108 Pr81 2.695 . S
O108 C98 1.270 . S
O109 Pr81 2.512 . S
O109 C98 1.248 . S
O110 Pr80 2.438 . S
O110 C99 1.267 . S
O111 Pr81 2.437 . S
O111 C99 1.278 . S
H112 C84 0.929 . S
H113 C85 0.929 . S
H114 C87 0.931 . S
H115 C88 0.930 . S
H116 C93 0.929 . S
H117 C94 0.929 . S
H118 C96 0.931 . S
H119 C97 0.930 . S
C120 C121 1.384 . S
C120 H133 0.947 . S
C120 C155 1.382 . S
C121 C120 1.384 . S
C121 C122 1.378 . S
C122 C121 1.378 . S
C122 C123 1.378 . S
C122 H134 0.952 . S
C123 C122 1.378 . S
C123 H135 0.950 . S
C123 C154 1.383 . S
H124 C143 0.947 . S
H125 C144 0.946 . S
H126 C146 0.953 . S
H127 C147 0.945 . S
H128 C149 0.952 . S
H129 C150 0.949 . S
H130 C152 0.950 1_565 S
H131 C153 0.948 1_565 S
H132 C155 0.951 . S
H133 C120 0.947 . S
H134 C122 0.952 . S
H135 C123 0.950 . S
N136 C139 1.382 . S
N136 C141 1.363 . S
N137 C139 1.371 . S
N137 C140 1.372 . S
N138 C140 1.361 . S
N138 C141 1.377 . S
C139 N136 1.382 . S
C139 N137 1.371 . S
C139 C142 1.480 . S
C140 N137 1.372 . S
C140 N138 1.361 . S
C140 C148 1.457 . S
C141 N136 1.363 . S
C141 N138 1.377 . S
C141 C154 1.479 1_545 S
C142 C139 1.480 . S
C142 C143 1.383 . S
C142 C147 1.385 . S
C143 H124 0.947 . S
C143 C142 1.383 . S
C143 C144 1.388 . S
C144 H125 0.946 . S
C144 C143 1.388 . S
C144 C145 1.384 . S
C145 C144 1.384 . S
C145 C146 1.377 . S
C146 H126 0.953 . S
C146 C145 1.377 . S
C146 C147 1.369 . S
C147 H127 0.945 . S
C147 C142 1.385 . S
C147 C146 1.369 . S
C148 C140 1.457 . S
C148 C149 1.372 . S
C148 C153 1.364 . S
C149 H128 0.952 . S
C149 C148 1.372 . S
C149 C150 1.389 . S
C150 H129 0.949 . S
C150 C149 1.389 . S
C150 C151 1.387 . S
C151 C150 1.387 . S
C151 C152 1.372 . S
C152 H130 0.950 1_545 S
C152 C151 1.372 . S
C152 C153 1.379 . S
C153 H131 0.948 1_545 S
C153 C148 1.364 . S
C153 C152 1.379 . S
C154 C123 1.383 . S
C154 C141 1.479 1_565 S
C154 C155 1.398 . S
C155 C120 1.382 . S
C155 H132 0.951 . S
C155 C154 1.398 . S
C156 C157 1.384 . S
C156 H169 0.947 . S
C156 C191 1.382 . S
C157 C156 1.384 . S
C157 C158 1.378 . S
C158 C157 1.378 . S
C158 C159 1.378 . S
C158 H170 0.952 . S
C159 C158 1.378 . S
C159 H171 0.950 . S
C159 C190 1.383 . S
H160 C179 0.947 . S
H161 C180 0.946 . S
H162 C182 0.953 . S
H163 C183 0.945 . S
H164 C185 0.952 . S
H165 C186 0.949 . S
H166 C188 0.950 . S
H167 C189 0.948 . S
H168 C191 0.951 . S
H169 C156 0.947 . S
H170 C158 0.952 . S
H171 C159 0.950 . S
N172 C175 1.382 . S
N172 C177 1.363 . S
N173 C175 1.371 . S
N173 C176 1.372 . S
N174 C176 1.361 . S
N174 C177 1.377 . S
C175 N172 1.382 . S
C175 N173 1.371 . S
C175 C178 1.480 . S
C176 N173 1.372 . S
C176 N174 1.361 . S
C176 C184 1.457 . S
C177 N172 1.363 . S
C177 N174 1.377 . S
C177 C190 1.479 . S
C178 C175 1.480 . S
C178 C179 1.383 . S
C178 C183 1.385 . S
C179 H160 0.947 . S
C179 C178 1.383 . S
C179 C180 1.388 . S
C180 H161 0.946 . S
C180 C179 1.388 . S
C180 C181 1.384 . S
C181 C180 1.384 . S
C181 C182 1.377 . S
C182 H162 0.953 . S
C182 C181 1.377 . S
C182 C183 1.369 . S
C183 H163 0.945 . S
C183 C178 1.385 . S
C183 C182 1.369 . S
C184 C176 1.457 . S
C184 C185 1.372 . S
C184 C189 1.364 . S
C185 H164 0.952 . S
C185 C184 1.372 . S
C185 C186 1.389 . S
C186 H165 0.949 . S
C186 C185 1.389 . S
C186 C187 1.387 . S
C187 C186 1.387 . S
C187 C188 1.372 . S
C188 H166 0.950 . S
C188 C187 1.372 . S
C188 C189 1.379 . S
C189 H167 0.948 . S
C189 C184 1.364 . S
C189 C188 1.379 . S
C190 C159 1.383 . S
C190 C177 1.479 . S
C190 C191 1.398 . S
C191 C156 1.382 . S
C191 H168 0.951 . S
C191 C190 1.398 . S
C192 C193 1.384 . S
C192 H205 0.947 . S
C192 C227 1.382 . S
C193 C192 1.384 . S
C193 C194 1.378 . S
C194 C193 1.378 . S
C194 C195 1.378 . S
C194 H206 0.952 . S
C195 C194 1.378 . S
C195 H207 0.950 . S
C195 C226 1.383 . S
H196 C215 0.947 . S
H197 C216 0.946 . S
H198 C218 0.953 . S
H199 C219 0.945 . S
H200 C221 0.952 . S
H201 C222 0.949 . S
H202 C224 0.950 . S
H203 C225 0.948 . S
H204 C227 0.951 . S
H205 C192 0.947 . S
H206 C194 0.952 . S
H207 C195 0.950 . S
N208 C211 1.382 . S
N208 C213 1.363 1_455 S
N209 C211 1.371 . S
N209 C212 1.372 . S
N210 C212 1.361 1_655 S
N210 C213 1.377 . S
C211 N208 1.382 . S
C211 N209 1.371 . S
C211 C214 1.480 . S
C212 N209 1.372 . S
C212 N210 1.361 1_455 S
C212 C220 1.457 . S
C213 N208 1.363 1_655 S
C213 N210 1.377 . S
C213 C226 1.479 . S
C214 C211 1.480 . S
C214 C215 1.383 . S
C214 C219 1.385 . S
C215 H196 0.947 . S
C215 C214 1.383 . S
C215 C216 1.388 . S
C216 H197 0.946 . S
C216 C215 1.388 . S
C216 C217 1.384 . S
C217 C216 1.384 . S
C217 C218 1.377 . S
C218 H198 0.953 . S
C218 C217 1.377 . S
C218 C219 1.369 . S
C219 H199 0.945 . S
C219 C214 1.385 . S
C219 C218 1.369 . S
C220 C212 1.457 . S
C220 C221 1.372 . S
C220 C225 1.364 1_455 S
C221 H200 0.952 . S
C221 C220 1.372 . S
C221 C222 1.389 . S
C222 H201 0.949 . S
C222 C221 1.389 . S
C222 C223 1.387 . S
C223 C222 1.387 . S
C223 C224 1.372 1_455 S
C224 H202 0.950 . S
C224 C223 1.372 1_655 S
C224 C225 1.379 . S
C225 H203 0.948 . S
C225 C220 1.364 1_655 S
C225 C224 1.379 . S
C226 C195 1.383 . S
C226 C213 1.479 . S
C226 C227 1.398 . S
C227 C192 1.382 . S
C227 H204 0.951 . S
C227 C226 1.398 . S
C228 C229 1.384 . S
C228 H241 0.947 . S
C228 C263 1.382 . S
C229 C228 1.384 . S
C229 C230 1.378 . S
C230 C229 1.378 . S
C230 C231 1.378 . S
C230 H242 0.952 . S
C231 C230 1.378 . S
C231 H243 0.950 . S
C231 C262 1.383 . S
H232 C251 0.947 . S
H233 C252 0.946 . S
H234 C254 0.953 . S
H235 C255 0.945 . S
H236 C257 0.952 . S
H237 C258 0.949 . S
H238 C260 0.950 . S
H239 C261 0.948 . S
H240 C263 0.951 . S
H241 C228 0.947 . S
H242 C230 0.952 . S
H243 C231 0.950 . S
N244 C247 1.382 1_455 S
N244 C249 1.363 . S
N245 C247 1.371 . S
N245 C248 1.372 1_655 S
N246 C248 1.361 . S
N246 C249 1.377 . S
C247 N244 1.382 1_655 S
C247 N245 1.371 . S
C247 C250 1.480 . S
C248 N245 1.372 1_455 S
C248 N246 1.361 . S
C248 C256 1.457 . S
C249 N244 1.363 . S
C249 N246 1.377 . S
C249 C262 1.479 . S
C250 C247 1.480 . S
C250 C251 1.383 . S
C250 C255 1.385 . S
C251 H232 0.947 . S
C251 C250 1.383 . S
C251 C252 1.388 . S
C252 H233 0.946 . S
C252 C251 1.388 . S
C252 C253 1.384 . S
C253 C252 1.384 . S
C253 C254 1.377 . S
C254 H234 0.953 . S
C254 C253 1.377 . S
C254 C255 1.369 . S
C255 H235 0.945 . S
C255 C250 1.385 . S
C255 C254 1.369 . S
C256 C248 1.457 . S
C256 C257 1.372 1_455 S
C256 C261 1.364 . S
C257 H236 0.952 . S
C257 C256 1.372 1_655 S
C257 C258 1.389 . S
C258 H237 0.949 . S
C258 C257 1.389 . S
C258 C259 1.394 . S
C259 C258 1.394 . S
C259 C260 1.364 1_655 S
C260 H238 0.950 . S
C260 C259 1.364 1_455 S
C260 C261 1.379 . S
C261 H239 0.948 . S
C261 C256 1.364 . S
C261 C260 1.379 . S
C262 C231 1.383 . S
C262 C249 1.479 . S
C262 C263 1.398 . S
C263 C228 1.382 . S
C263 H240 0.951 . S
C263 C262 1.398 . S
C264 C265 1.384 . S
C264 H277 0.947 . S
C264 C299 1.382 . S
C265 C264 1.384 . S
C265 C266 1.378 . S
C266 C265 1.378 . S
C266 C267 1.378 . S
C266 H278 0.952 . S
C267 C266 1.378 . S
C267 H279 0.950 . S
C267 C298 1.383 . S
H268 C287 0.947 . S
H269 C288 0.946 . S
H270 C290 0.953 . S
H271 C291 0.945 . S
H272 C293 0.952 . S
H273 C294 0.949 . S
H274 C296 0.950 . S
H275 C297 0.948 . S
H276 C299 0.951 . S
H277 C264 0.947 . S
H278 C266 0.952 . S
H279 C267 0.950 . S
N280 C283 1.382 1_545 S
N280 C285 1.363 . S
N281 C283 1.371 . S
N281 C284 1.372 1_565 S
N282 C284 1.361 . S
N282 C285 1.377 . S
C283 N280 1.382 1_565 S
C283 N281 1.371 . S
C283 C286 1.480 . S
C284 N281 1.372 1_545 S
C284 N282 1.361 . S
C284 C292 1.457 . S
C285 N280 1.363 . S
C285 N282 1.377 . S
C285 C298 1.479 . S
C286 C283 1.480 . S
C286 C287 1.383 . S
C286 C291 1.385 . S
C287 H268 0.947 . S
C287 C286 1.383 . S
C287 C288 1.388 . S
C288 H269 0.946 . S
C288 C287 1.388 . S
C288 C289 1.384 . S
C289 C288 1.384 . S
C289 C290 1.377 . S
C290 H270 0.953 . S
C290 C289 1.377 . S
C290 C291 1.369 . S
C291 H271 0.945 . S
C291 C286 1.385 . S
C291 C290 1.369 . S
C292 C284 1.457 . S
C292 C293 1.372 1_545 S
C292 C297 1.364 . S
C293 H272 0.952 . S
C293 C292 1.372 1_565 S
C293 C294 1.389 . S
C294 H273 0.949 . S
C294 C293 1.389 . S
C294 C295 1.387 1_565 S
C295 C294 1.387 1_545 S
C295 C296 1.372 . S
C296 H274 0.950 . S
C296 C295 1.372 . S
C296 C297 1.379 . S
C297 H275 0.948 . S
C297 C292 1.364 . S
C297 C296 1.379 . S
C298 C267 1.383 . S
C298 C285 1.479 . S
C298 C299 1.398 . S
C299 C264 1.382 . S
C299 H276 0.951 . S
C299 C298 1.398 . S
C300 C301 1.384 . S
C300 H313 0.947 . S
C300 C335 1.382 . S
C301 C300 1.384 . S
C301 C302 1.378 . S
C302 C301 1.378 . S
C302 C303 1.378 . S
C302 H314 0.952 . S
C303 C302 1.378 . S
C303 H315 0.950 . S
C303 C334 1.383 . S
H304 C323 0.947 . S
H305 C324 0.946 . S
H306 C326 0.953 . S
H307 C327 0.945 . S
H308 C329 0.952 . S
H309 C330 0.949 . S
H310 C332 0.950 . S
H311 C333 0.948 . S
H312 C335 0.951 . S
H313 C300 0.947 . S
H314 C302 0.952 . S
H315 C303 0.950 . S
N316 C319 1.382 . S
N316 C321 1.363 . S
N317 C319 1.371 . S
N317 C320 1.372 . S
N318 C320 1.361 . S
N318 C321 1.377 . S
C319 N316 1.382 . S
C319 N317 1.371 . S
C319 C322 1.480 . S
C320 N317 1.372 . S
C320 N318 1.361 . S
C320 C328 1.457 . S
C321 N316 1.363 . S
C321 N318 1.377 . S
C321 C334 1.479 . S
C322 C319 1.480 . S
C322 C323 1.383 . S
C322 C327 1.385 . S
C323 H304 0.947 . S
C323 C322 1.383 . S
C323 C324 1.388 . S
C324 H305 0.946 . S
C324 C323 1.388 . S
C324 C325 1.384 . S
C325 C324 1.384 . S
C325 C326 1.377 . S
C326 H306 0.953 . S
C326 C325 1.377 . S
C326 C327 1.369 . S
C327 H307 0.945 . S
C327 C322 1.385 . S
C327 C326 1.369 . S
C328 C320 1.457 . S
C328 C329 1.372 . S
C328 C333 1.364 . S
C329 H308 0.952 . S
C329 C328 1.372 . S
C329 C330 1.389 . S
C330 H309 0.949 . S
C330 C329 1.389 . S
C330 C331 1.387 . S
C331 C330 1.387 . S
C331 C332 1.372 . S
C332 H310 0.950 . S
C332 C331 1.372 . S
C332 C333 1.379 . S
C333 H311 0.948 . S
C333 C328 1.364 . S
C333 C332 1.379 . S
C334 C303 1.383 . S
C334 C321 1.479 . S
C334 C335 1.398 . S
C335 C300 1.382 . S
C335 H312 0.951 . S
C335 C334 1.398 . S
C336 C337 1.349 . S
C336 C338 1.327 . S
C336 H361 0.950 . S
C337 C336 1.349 . S
C337 C353 1.349 . S
C338 C336 1.327 . S
C338 C357 1.429 . S
C338 H362 0.950 . S
C339 C356 1.574 . S
C339 C358 1.368 . S
C339 H363 0.949 . S
H340 C344 0.949 . S
C341 C342 1.349 . S
C341 C343 1.327 . S
C341 H364 0.950 . S
C342 C341 1.349 . S
C342 C354 1.349 . S
C343 C341 1.327 . S
C343 C359 1.429 . S
C343 H365 0.950 . S
C344 H340 0.949 . S
C344 C352 1.574 . S
C344 C360 1.368 . S
H345 C353 0.950 . S
H346 C351 0.950 . S
H347 C352 0.949 . S
H348 C354 0.950 . S
H349 C355 0.950 . S
H350 C356 0.949 . S
C351 H346 0.950 . S
C351 C353 1.327 . S
C351 C357 1.429 . S
C352 C344 1.574 . S
C352 H347 0.949 . S
C352 C358 1.368 . S
C353 C337 1.349 . S
C353 H345 0.950 . S
C353 C351 1.327 . S
C354 C342 1.349 . S
C354 H348 0.950 . S
C354 C355 1.327 . S
C355 H349 0.950 . S
C355 C354 1.327 . S
C355 C359 1.429 . S
C356 C339 1.574 . S
C356 H350 0.949 . S
C356 C360 1.368 . S
C357 C338 1.429 . S
C357 C351 1.429 . S
C357 C358 1.523 . S
C358 C339 1.368 . S
C358 C352 1.368 . S
C358 C357 1.523 . S
C359 C343 1.429 . S
C359 C355 1.429 . S
C359 C360 1.523 . S
C360 C344 1.368 . S
C360 C356 1.368 . S
C360 C359 1.523 . S
H361 C336 0.950 . S
H362 C338 0.950 . S
H363 C339 0.949 . S
H364 C341 0.950 . S
H365 C343 0.950 . S
C366 C367 1.349 . S
C366 C368 1.327 . S
C366 H391 0.950 . S
C367 C366 1.349 . S
C367 C383 1.349 . S
C368 C366 1.327 . S
C368 C387 1.429 . S
C368 H392 0.950 . S
C369 C386 1.574 . S
C369 C388 1.368 . S
C369 H393 0.949 . S
H370 C374 0.949 . S
C371 C372 1.349 . S
C371 C373 1.327 . S
C371 H394 0.950 . S
C372 C371 1.349 . S
C372 C384 1.349 . S
C373 C371 1.327 . S
C373 C389 1.429 . S
C373 H395 0.950 . S
C374 H370 0.949 . S
C374 C382 1.574 . S
C374 C390 1.368 . S
H375 C383 0.950 . S
H376 C381 0.950 . S
H377 C382 0.949 . S
H378 C384 0.950 . S
H379 C385 0.950 . S
H380 C386 0.949 . S
C381 H376 0.950 . S
C381 C383 1.327 . S
C381 C387 1.429 . S
C382 C374 1.574 . S
C382 H377 0.949 . S
C382 C388 1.368 . S
C383 C367 1.349 . S
C383 H375 0.950 . S
C383 C381 1.327 . S
C384 C372 1.349 . S
C384 H378 0.950 . S
C384 C385 1.327 . S
C385 H379 0.950 . S
C385 C384 1.327 . S
C385 C389 1.429 . S
C386 C369 1.574 . S
C386 H380 0.949 . S
C386 C390 1.368 . S
C387 C368 1.429 . S
C387 C381 1.429 . S
C387 C388 1.523 . S
C388 C369 1.368 . S
C388 C382 1.368 . S
C388 C387 1.523 . S
C389 C373 1.429 . S
C389 C385 1.429 . S
C389 C390 1.523 . S
C390 C374 1.368 . S
C390 C386 1.368 . S
C390 C389 1.523 . S
H391 C366 0.950 . S
H392 C368 0.950 . S
H393 C369 0.949 . S
H394 C371 0.950 . S
H395 C373 0.950 . S
C396 C397 1.349 . S
C396 C398 1.327 . S
C396 H421 0.950 . S
C397 C396 1.349 . S
C397 C413 1.349 . S
C398 C396 1.327 . S
C398 C417 1.429 . S
C398 H422 0.950 . S
C399 C416 1.574 . S
C399 C418 1.368 . S
C399 H423 0.949 . S
H400 C404 0.949 . S
C401 C402 1.349 . S
C401 C403 1.327 . S
C401 H424 0.950 . S
C402 C401 1.349 . S
C402 C414 1.349 . S
C403 C401 1.327 . S
C403 C419 1.429 . S
C403 H425 0.950 . S
C404 H400 0.949 . S
C404 C412 1.574 . S
C404 C420 1.368 . S
H405 C413 0.950 . S
H406 C411 0.950 . S
H407 C412 0.949 . S
H408 C414 0.950 . S
H409 C415 0.950 . S
H410 C416 0.949 . S
C411 H406 0.950 . S
C411 C413 1.327 . S
C411 C417 1.429 . S
C412 C404 1.574 . S
C412 H407 0.949 . S
C412 C418 1.368 . S
C413 C397 1.349 . S
C413 H405 0.950 . S
C413 C411 1.327 . S
C414 C402 1.349 . S
C414 H408 0.950 . S
C414 C415 1.327 . S
C415 H409 0.950 . S
C415 C414 1.327 . S
C415 C419 1.429 . S
C416 C399 1.574 . S
C416 H410 0.949 . S
C416 C420 1.368 . S
C417 C398 1.429 . S
C417 C411 1.429 . S
C417 C418 1.523 . S
C418 C399 1.368 . S
C418 C412 1.368 . S
C418 C417 1.523 . S
C419 C403 1.429 . S
C419 C415 1.429 . S
C419 C420 1.523 . S
C420 C404 1.368 . S
C420 C416 1.368 . S
C420 C419 1.523 . S
H421 C396 0.950 . S
H422 C398 0.950 . S
H423 C399 0.949 . S
H424 C401 0.950 . S
H425 C403 0.950 . S
C426 C427 1.349 . S
C426 C428 1.327 . S
C426 H451 0.950 . S
C427 C426 1.349 . S
C427 C443 1.349 . S
C428 C426 1.327 . S
C428 C447 1.429 . S
C428 H452 0.950 . S
C429 C446 1.574 . S
C429 C448 1.368 . S
C429 H453 0.949 . S
H430 C434 0.949 . S
C431 C432 1.349 . S
C431 C433 1.327 . S
C431 H454 0.950 . S
C432 C431 1.349 . S
C432 C444 1.349 . S
C433 C431 1.327 . S
C433 C449 1.429 . S
C433 H455 0.950 . S
C434 H430 0.949 . S
C434 C442 1.574 . S
C434 C450 1.368 . S
H435 C443 0.950 . S
H436 C441 0.950 . S
H437 C442 0.949 . S
H438 C444 0.950 . S
H439 C445 0.950 . S
H440 C446 0.949 . S
C441 H436 0.950 . S
C441 C443 1.327 . S
C441 C447 1.429 . S
C442 C434 1.574 . S
C442 H437 0.949 . S
C442 C448 1.368 . S
C443 C427 1.349 . S
C443 H435 0.950 . S
C443 C441 1.327 . S
C444 C432 1.349 . S
C444 H438 0.950 . S
C444 C445 1.327 . S
C445 H439 0.950 . S
C445 C444 1.327 . S
C445 C449 1.429 . S
C446 C429 1.574 . S
C446 H440 0.949 . S
C446 C450 1.368 . S
C447 C428 1.429 . S
C447 C441 1.429 . S
C447 C448 1.523 . S
C448 C429 1.368 . S
C448 C442 1.368 . S
C448 C447 1.523 . S
C449 C433 1.429 . S
C449 C445 1.429 . S
C449 C450 1.523 . S
C450 C434 1.368 . S
C450 C446 1.368 . S
C450 C449 1.523 . S
H451 C426 0.950 . S
H452 C428 0.950 . S
H453 C429 0.949 . S
H454 C431 0.950 . S
H455 C433 0.950 . S
C456 C457 1.349 . S
C456 C458 1.327 . S
C456 H481 0.950 . S
C457 C456 1.349 . S
C457 C473 1.349 . S
C458 C456 1.327 . S
C458 C477 1.429 . S
C458 H482 0.950 . S
C459 C476 1.574 . S
C459 C478 1.368 . S
C459 H483 0.949 . S
H460 C464 0.949 . S
C461 C462 1.349 . S
C461 C463 1.327 . S
C461 H484 0.950 . S
C462 C461 1.349 . S
C462 C474 1.349 . S
C463 C461 1.327 . S
C463 C479 1.429 . S
C463 H485 0.950 . S
C464 H460 0.949 . S
C464 C472 1.574 . S
C464 C480 1.368 . S
H465 C473 0.950 . S
H466 C471 0.950 . S
H467 C472 0.949 . S
H468 C474 0.950 . S
H469 C475 0.950 . S
H470 C476 0.949 . S
C471 H466 0.950 . S
C471 C473 1.327 . S
C471 C477 1.429 . S
C472 C464 1.574 . S
C472 H467 0.949 . S
C472 C478 1.368 . S
C473 C457 1.349 . S
C473 H465 0.950 . S
C473 C471 1.327 . S
C474 C462 1.349 . S
C474 H468 0.950 . S
C474 C475 1.327 . S
C475 H469 0.950 . S
C475 C474 1.327 . S
C475 C479 1.429 . S
C476 C459 1.574 . S
C476 H470 0.949 . S
C476 C480 1.368 . S
C477 C458 1.429 . S
C477 C471 1.429 . S
C477 C478 1.523 . S
C478 C459 1.368 . S
C478 C472 1.368 . S
C478 C477 1.523 . S
C479 C463 1.429 . S
C479 C475 1.429 . S
C479 C480 1.523 . S
C480 C464 1.368 . S
C480 C476 1.368 . S
C480 C479 1.523 . S
H481 C456 0.950 . S
H482 C458 0.950 . S
H483 C459 0.949 . S
H484 C461 0.950 . S
H485 C463 0.950 . S
C486 C487 1.349 . S
C486 C488 1.327 . S
C486 H511 0.950 . S
C487 C486 1.349 . S
C487 C503 1.349 . S
C488 C486 1.327 . S
C488 C507 1.429 . S
C488 H512 0.950 . S
C489 C506 1.574 . S
C489 C508 1.368 . S
C489 H513 0.949 . S
H490 C494 0.949 . S
C491 C492 1.349 . S
C491 C493 1.327 . S
C491 H514 0.950 . S
C492 C491 1.349 . S
C492 C504 1.349 . S
C493 C491 1.327 . S
C493 C509 1.429 . S
C493 H515 0.950 . S
C494 H490 0.949 . S
C494 C502 1.574 . S
C494 C510 1.368 . S
H495 C503 0.950 . S
H496 C501 0.950 . S
H497 C502 0.949 . S
H498 C504 0.950 . S
H499 C505 0.950 . S
H500 C506 0.949 . S
C501 H496 0.950 . S
C501 C503 1.327 . S
C501 C507 1.429 . S
C502 C494 1.574 . S
C502 H497 0.949 . S
C502 C508 1.368 . S
C503 C487 1.349 . S
C503 H495 0.950 . S
C503 C501 1.327 . S
C504 C492 1.349 . S
C504 H498 0.950 . S
C504 C505 1.327 . S
C505 H499 0.950 . S
C505 C504 1.327 . S
C505 C509 1.429 . S
C506 C489 1.574 . S
C506 H500 0.949 . S
C506 C510 1.368 . S
C507 C488 1.429 . S
C507 C501 1.429 . S
C507 C508 1.523 . S
C508 C489 1.368 . S
C508 C502 1.368 . S
C508 C507 1.523 . S
C509 C493 1.429 . S
C509 C505 1.429 . S
C509 C510 1.523 . S
C510 C494 1.368 . S
C510 C506 1.368 . S
C510 C509 1.523 . S
H511 C486 0.950 . S
H512 C488 0.950 . S
H513 C489 0.949 . S
H514 C491 0.950 . S
H515 C493 0.950 . S
C516 C517 1.349 . S
C516 C518 1.327 . S
C516 H541 0.950 . S
C517 C516 1.349 . S
C517 C533 1.349 . S
C518 C516 1.327 . S
C518 C537 1.429 . S
C518 H542 0.950 . S
C519 C536 1.574 . S
C519 C538 1.368 . S
C519 H543 0.949 . S
H520 C524 0.949 . S
C521 C522 1.349 . S
C521 C523 1.327 . S
C521 H544 0.950 . S
C522 C521 1.349 . S
C522 C534 1.349 . S
C523 C521 1.327 . S
C523 C539 1.429 . S
C523 H545 0.950 . S
C524 H520 0.949 . S
C524 C532 1.574 . S
C524 C540 1.368 . S
H525 C533 0.950 . S
H526 C531 0.950 . S
H527 C532 0.949 . S
H528 C534 0.950 . S
H529 C535 0.950 . S
H530 C536 0.949 . S
C531 H526 0.950 . S
C531 C533 1.327 . S
C531 C537 1.429 . S
C532 C524 1.574 . S
C532 H527 0.949 . S
C532 C538 1.368 . S
C533 C517 1.349 . S
C533 H525 0.950 . S
C533 C531 1.327 . S
C534 C522 1.349 . S
C534 H528 0.950 . S
C534 C535 1.327 . S
C535 H529 0.950 . S
C535 C534 1.327 . S
C535 C539 1.429 . S
C536 C519 1.574 . S
C536 H530 0.949 . S
C536 C540 1.368 . S
C537 C518 1.429 . S
C537 C531 1.429 . S
C537 C538 1.523 . S
C538 C519 1.368 . S
C538 C532 1.368 . S
C538 C537 1.523 . S
C539 C523 1.429 . S
C539 C535 1.429 . S
C539 C540 1.523 . S
C540 C524 1.368 . S
C540 C536 1.368 . S
C540 C539 1.523 . S
H541 C516 0.950 . S
H542 C518 0.950 . S
H543 C519 0.949 . S
H544 C521 0.950 . S
H545 C523 0.950 . S
C546 C547 1.349 . S
C546 C548 1.327 . S
C546 H571 0.950 . S
C547 C546 1.349 . S
C547 C563 1.349 . S
C548 C546 1.327 . S
C548 C567 1.429 . S
C548 H572 0.950 . S
C549 C566 1.574 . S
C549 C568 1.368 . S
C549 H573 0.949 . S
H550 C554 0.949 . S
C551 C552 1.349 . S
C551 C553 1.327 . S
C551 H574 0.950 . S
C552 C551 1.349 . S
C552 C564 1.349 . S
C553 C551 1.327 . S
C553 C569 1.429 . S
C553 H575 0.950 . S
C554 H550 0.949 . S
C554 C562 1.574 . S
C554 C570 1.368 . S
H555 C563 0.950 . S
H556 C561 0.950 . S
H557 C562 0.949 . S
H558 C564 0.950 . S
H559 C565 0.950 . S
H560 C566 0.949 . S
C561 H556 0.950 . S
C561 C563 1.327 . S
C561 C567 1.429 . S
C562 C554 1.574 . S
C562 H557 0.949 . S
C562 C568 1.368 . S
C563 C547 1.349 . S
C563 H555 0.950 . S
C563 C561 1.327 . S
C564 C552 1.349 . S
C564 H558 0.950 . S
C564 C565 1.327 . S
C565 H559 0.950 . S
C565 C564 1.327 . S
C565 C569 1.429 . S
C566 C549 1.574 . S
C566 H560 0.949 . S
C566 C570 1.368 . S
C567 C548 1.429 . S
C567 C561 1.429 . S
C567 C568 1.523 . S
C568 C549 1.368 . S
C568 C562 1.368 . S
C568 C567 1.523 . S
C569 C553 1.429 . S
C569 C565 1.429 . S
C569 C570 1.523 . S
C570 C554 1.368 . S
C570 C566 1.368 . S
C570 C569 1.523 . S
H571 C546 0.950 . S
H572 C548 0.950 . S
H573 C549 0.949 . S
H574 C551 0.950 . S
H575 C553 0.950 . S
C576 C577 1.349 . S
C576 C578 1.327 . S
C576 H601 0.950 . S
C577 C576 1.349 . S
C577 C593 1.349 . S
C578 C576 1.327 . S
C578 C597 1.429 . S
C578 H602 0.950 . S
C579 C596 1.574 . S
C579 C598 1.368 . S
C579 H603 0.949 . S
H580 C584 0.949 . S
C581 C582 1.349 . S
C581 C583 1.327 . S
C581 H604 0.950 . S
C582 C581 1.349 . S
C582 C594 1.349 . S
C583 C581 1.327 . S
C583 C599 1.429 . S
C583 H605 0.950 . S
C584 H580 0.949 . S
C584 C592 1.574 . S
C584 C600 1.368 . S
H585 C593 0.950 . S
H586 C591 0.950 . S
H587 C592 0.949 . S
H588 C594 0.950 . S
H589 C595 0.950 . S
H590 C596 0.949 . S
C591 H586 0.950 . S
C591 C593 1.327 . S
C591 C597 1.429 . S
C592 C584 1.574 . S
C592 H587 0.949 . S
C592 C598 1.368 . S
C593 C577 1.349 . S
C593 H585 0.950 . S
C593 C591 1.327 . S
C594 C582 1.349 . S
C594 H588 0.950 . S
C594 C595 1.327 . S
C595 H589 0.950 . S
C595 C594 1.327 . S
C595 C599 1.429 . S
C596 C579 1.574 . S
C596 H590 0.949 . S
C596 C600 1.368 . S
C597 C578 1.429 . S
C597 C591 1.429 . S
C597 C598 1.523 . S
C598 C579 1.368 . S
C598 C592 1.368 . S
C598 C597 1.523 . S
C599 C583 1.429 . S
C599 C595 1.429 . S
C599 C600 1.523 . S
C600 C584 1.368 . S
C600 C596 1.368 . S
C600 C599 1.523 . S
H601 C576 0.950 . S
H602 C578 0.950 . S
H603 C579 0.949 . S
H604 C581 0.950 . S
H605 C583 0.950 . S
C606 C607 1.349 . S
C606 C608 1.327 . S
C606 H631 0.950 . S
C607 C606 1.349 . S
C607 C623 1.349 . S
C608 C606 1.327 . S
C608 C627 1.429 . S
C608 H632 0.950 . S
C609 C626 1.574 . S
C609 C628 1.368 . S
C609 H633 0.949 . S
H610 C614 0.949 . S
C611 C612 1.349 . S
C611 C613 1.327 . S
C611 H634 0.950 . S
C612 C611 1.349 . S
C612 C624 1.349 . S
C613 C611 1.327 . S
C613 C629 1.429 . S
C613 H635 0.950 . S
C614 H610 0.949 . S
C614 C622 1.574 . S
C614 C630 1.368 . S
H615 C623 0.950 . S
H616 C621 0.950 . S
H617 C622 0.949 . S
H618 C624 0.950 . S
H619 C625 0.950 . S
H620 C626 0.949 . S
C621 H616 0.950 . S
C621 C623 1.327 . S
C621 C627 1.429 . S
C622 C614 1.574 . S
C622 H617 0.949 . S
C622 C628 1.368 . S
C623 C607 1.349 . S
C623 H615 0.950 . S
C623 C621 1.327 . S
C624 C612 1.349 . S
C624 H618 0.950 . S
C624 C625 1.327 . S
C625 H619 0.950 . S
C625 C624 1.327 . S
C625 C629 1.429 . S
C626 C609 1.574 . S
C626 H620 0.949 . S
C626 C630 1.368 . S
C627 C608 1.429 . S
C627 C621 1.429 . S
C627 C628 1.523 . S
C628 C609 1.368 . S
C628 C622 1.368 . S
C628 C627 1.523 . S
C629 C613 1.429 . S
C629 C625 1.429 . S
C629 C630 1.523 . S
C630 C614 1.368 . S
C630 C626 1.368 . S
C630 C629 1.523 . S
H631 C606 0.950 . S
H632 C608 0.950 . S
H633 C609 0.949 . S
H634 C611 0.950 . S
H635 C613 0.950 . S
C636 C637 1.349 . S
C636 C638 1.327 . S
C636 H661 0.950 . S
C637 C636 1.349 . S
C637 C653 1.349 . S
C638 C636 1.327 . S
C638 C657 1.429 . S
C638 H662 0.950 . S
C639 C656 1.574 . S
C639 C658 1.368 . S
C639 H663 0.949 . S
H640 C644 0.949 . S
C641 C642 1.349 . S
C641 C643 1.327 . S
C641 H664 0.950 . S
C642 C641 1.349 . S
C642 C654 1.349 . S
C643 C641 1.327 . S
C643 C659 1.429 . S
C643 H665 0.950 . S
C644 H640 0.949 . S
C644 C652 1.574 . S
C644 C660 1.368 . S
H645 C653 0.950 . S
H646 C651 0.950 . S
H647 C652 0.949 . S
H648 C654 0.950 . S
H649 C655 0.950 . S
H650 C656 0.949 . S
C651 H646 0.950 . S
C651 C653 1.327 . S
C651 C657 1.429 . S
C652 C644 1.574 . S
C652 H647 0.949 . S
C652 C658 1.368 . S
C653 C637 1.349 . S
C653 H645 0.950 . S
C653 C651 1.327 . S
C654 C642 1.349 . S
C654 H648 0.950 . S
C654 C655 1.327 . S
C655 H649 0.950 . S
C655 C654 1.327 . S
C655 C659 1.429 . S
C656 C639 1.574 . S
C656 H650 0.949 . S
C656 C660 1.368 . S
C657 C638 1.429 . S
C657 C651 1.429 . S
C657 C658 1.523 . S
C658 C639 1.368 . S
C658 C652 1.368 . S
C658 C657 1.523 . S
C659 C643 1.429 . S
C659 C655 1.429 . S
C659 C660 1.523 . S
C660 C644 1.368 . S
C660 C656 1.368 . S
C660 C659 1.523 . S
H661 C636 0.950 . S
H662 C638 0.950 . S
H663 C639 0.949 . S
H664 C641 0.950 . S
H665 C643 0.950 . S
C666 C667 1.349 . S
C666 C668 1.327 . S
C666 H691 0.950 . S
C667 C666 1.349 . S
C667 C683 1.349 . S
C668 C666 1.327 . S
C668 C687 1.429 . S
C668 H692 0.950 . S
C669 C686 1.574 . S
C669 C688 1.368 . S
C669 H693 0.949 . S
H670 C674 0.949 . S
C671 C672 1.349 . S
C671 C673 1.327 . S
C671 H694 0.950 . S
C672 C671 1.349 . S
C672 C684 1.349 . S
C673 C671 1.327 . S
C673 C689 1.429 . S
C673 H695 0.950 . S
C674 H670 0.949 . S
C674 C682 1.574 . S
C674 C690 1.368 . S
H675 C683 0.950 . S
H676 C681 0.950 . S
H677 C682 0.949 . S
H678 C684 0.950 . S
H679 C685 0.950 . S
H680 C686 0.949 . S
C681 H676 0.950 . S
C681 C683 1.327 . S
C681 C687 1.429 . S
C682 C674 1.574 . S
C682 H677 0.949 . S
C682 C688 1.368 . S
C683 C667 1.349 . S
C683 H675 0.950 . S
C683 C681 1.327 . S
C684 C672 1.349 . S
C684 H678 0.950 . S
C684 C685 1.327 . S
C685 H679 0.950 . S
C685 C684 1.327 . S
C685 C689 1.429 . S
C686 C669 1.574 . S
C686 H680 0.949 . S
C686 C690 1.368 . S
C687 C668 1.429 . S
C687 C681 1.429 . S
C687 C688 1.523 . S
C688 C669 1.368 . S
C688 C682 1.368 . S
C688 C687 1.523 . S
C689 C673 1.429 . S
C689 C685 1.429 . S
C689 C690 1.523 . S
C690 C674 1.368 . S
C690 C686 1.368 . S
C690 C689 1.523 . S
H691 C666 0.950 . S
H692 C668 0.950 . S
H693 C669 0.949 . S
H694 C671 0.950 . S
H695 C673 0.950 . S
C696 C697 1.349 1_655 S
C696 C698 1.327 . S
C696 H721 0.950 . S
C697 C696 1.349 1_455 S
C697 C713 1.349 . S
C698 C696 1.327 . S
C698 C717 1.429 1_655 S
C698 H722 0.950 . S
C699 C716 1.574 . S
C699 C718 1.368 . S
C699 H723 0.949 . S
H700 C704 0.949 . S
C701 C702 1.349 . S
C701 C703 1.326 1_556 S
C701 H724 0.950 . S
C702 C701 1.349 . S
C702 C714 1.349 1_455 S
C703 C701 1.326 1_554 S
C703 C719 1.429 . S
C703 H725 0.950 . S
C704 H700 0.949 . S
C704 C712 1.574 . S
C704 C720 1.368 1_655 S
H705 C713 0.950 . S
H706 C711 0.950 . S
H707 C712 0.949 . S
H708 C714 0.950 . S
H709 C715 0.950 1_554 S
H710 C716 0.949 . S
C711 H706 0.950 . S
C711 C713 1.327 . S
C711 C717 1.429 . S
C712 C704 1.574 . S
C712 H707 0.949 . S
C712 C718 1.368 1_655 S
C713 C697 1.349 . S
C713 H705 0.950 . S
C713 C711 1.327 . S
C714 C702 1.349 1_655 S
C714 H708 0.950 . S
C714 C715 1.327 . S
C715 H709 0.950 1_556 S
C715 C714 1.327 . S
C715 C719 1.429 1_656 S
C716 C699 1.574 . S
C716 H710 0.949 . S
C716 C720 1.368 . S
C717 C698 1.429 1_455 S
C717 C711 1.429 . S
C717 C718 1.523 . S
C718 C699 1.368 . S
C718 C712 1.368 1_455 S
C718 C717 1.523 . S
C719 C703 1.429 . S
C719 C715 1.429 1_454 S
C719 C720 1.523 . S
C720 C704 1.368 1_455 S
C720 C716 1.368 . S
C720 C719 1.523 . S
H721 C696 0.950 . S
H722 C698 0.950 . S
H723 C699 0.949 . S
H724 C701 0.950 . S
H725 C703 0.950 . S
C726 C727 1.349 . S
C726 C728 1.327 . S
C726 H751 0.950 1_545 S
C727 C726 1.349 . S
C727 C743 1.349 . S
C728 C726 1.327 . S
C728 C747 1.429 . S
C728 H752 0.950 1_545 S
C729 C746 1.574 . S
C729 C748 1.368 . S
C729 H753 0.949 . S
H730 C734 0.949 1_565 S
C731 C732 1.349 . S
C731 C733 1.327 . S
C731 H754 0.950 . S
C732 C731 1.349 . S
C732 C744 1.349 . S
C733 C731 1.327 . S
C733 C749 1.429 . S
C733 H755 0.950 . S
C734 H730 0.949 1_545 S
C734 C742 1.574 . S
C734 C750 1.368 . S
H735 C743 0.950 . S
H736 C741 0.950 . S
H737 C742 0.949 1_565 S
H738 C744 0.950 1_565 S
H739 C745 0.950 1_565 S
H740 C746 0.949 . S
C741 H736 0.950 . S
C741 C743 1.327 . S
C741 C747 1.429 . S
C742 C734 1.574 . S
C742 H737 0.949 1_545 S
C742 C748 1.368 . S
C743 C727 1.349 . S
C743 H735 0.950 . S
C743 C741 1.327 . S
C744 C732 1.349 . S
C744 H738 0.950 1_545 S
C744 C745 1.327 . S
C745 H739 0.950 1_545 S
C745 C744 1.327 . S
C745 C749 1.429 . S
C746 C729 1.574 . S
C746 H740 0.949 . S
C746 C750 1.368 . S
C747 C728 1.429 . S
C747 C741 1.429 . S
C747 C748 1.523 . S
C748 C729 1.368 . S
C748 C742 1.368 . S
C748 C747 1.523 . S
C749 C733 1.429 . S
C749 C745 1.429 . S
C749 C750 1.523 . S
C750 C734 1.368 . S
C750 C746 1.368 . S
C750 C749 1.523 . S
H751 C726 0.950 1_565 S
H752 C728 0.950 1_565 S
H753 C729 0.949 . S
H754 C731 0.950 . S
H755 C733 0.950 . S
C756 C757 1.349 . S
C756 C758 1.327 . S
C756 H781 0.950 . S
C757 C756 1.349 . S
C757 C773 1.349 . S
C758 C756 1.327 . S
C758 C777 1.429 . S
C758 H782 0.950 . S
C759 C776 1.574 . S
C759 C778 1.368 . S
C759 H783 0.949 . S
H760 C764 0.949 . S
C761 C762 1.349 . S
C761 C763 1.327 . S
C761 H784 0.950 . S
C762 C761 1.349 . S
C762 C774 1.349 . S
C763 C761 1.327 . S
C763 C779 1.429 . S
C763 H785 0.950 . S
C764 H760 0.949 . S
C764 C772 1.574 . S
C764 C780 1.368 . S
H765 C773 0.950 . S
H766 C771 0.950 . S
H767 C772 0.949 . S
H768 C774 0.950 . S
H769 C775 0.950 . S
H770 C776 0.949 . S
C771 H766 0.950 . S
C771 C773 1.327 . S
C771 C777 1.429 . S
C772 C764 1.574 . S
C772 H767 0.949 . S
C772 C778 1.368 . S
C773 C757 1.349 . S
C773 H765 0.950 . S
C773 C771 1.327 . S
C774 C762 1.349 . S
C774 H768 0.950 . S
C774 C775 1.327 . S
C775 H769 0.950 . S
C775 C774 1.327 . S
C775 C779 1.429 . S
C776 C759 1.574 . S
C776 H770 0.949 . S
C776 C780 1.368 . S
C777 C758 1.429 . S
C777 C771 1.429 . S
C777 C778 1.523 . S
C778 C759 1.368 . S
C778 C772 1.368 . S
C778 C777 1.523 . S
C779 C763 1.429 . S
C779 C775 1.429 . S
C779 C780 1.523 . S
C780 C764 1.368 . S
C780 C776 1.368 . S
C780 C779 1.523 . S
H781 C756 0.950 . S
H782 C758 0.950 . S
H783 C759 0.949 . S
H784 C761 0.950 . S
H785 C763 0.950 . S
C786 C787 1.349 . S
C786 C788 1.327 . S
C786 H811 0.950 . S
C787 C786 1.349 . S
C787 C803 1.349 1_545 S
C788 C786 1.327 . S
C788 C807 1.429 . S
C788 H812 0.950 . S
C789 C806 1.574 . S
C789 C808 1.368 1_565 S
C789 H813 0.949 . S
H790 C794 0.949 . S
C791 C792 1.349 1_565 S
C791 C793 1.327 . S
C791 H814 0.950 . S
C792 C791 1.349 1_545 S
C792 C804 1.349 . S
C793 C791 1.327 . S
C793 C809 1.429 1_565 S
C793 H815 0.950 . S
C794 H790 0.949 . S
C794 C802 1.574 . S
C794 C810 1.368 . S
H795 C803 0.950 . S
H796 C801 0.950 . S
H797 C802 0.949 . S
H798 C804 0.950 . S
H799 C805 0.950 . S
H800 C806 0.949 . S
C801 H796 0.950 . S
C801 C803 1.327 . S
C801 C807 1.429 1_565 S
C802 C794 1.574 . S
C802 H797 0.949 . S
C802 C808 1.368 . S
C803 C787 1.349 1_565 S
C803 H795 0.950 . S
C803 C801 1.327 . S
C804 C792 1.349 . S
C804 H798 0.950 . S
C804 C805 1.327 . S
C805 H799 0.950 . S
C805 C804 1.327 . S
C805 C809 1.429 . S
C806 C789 1.574 . S
C806 H800 0.949 . S
C806 C810 1.368 1_565 S
C807 C788 1.429 . S
C807 C801 1.429 1_545 S
C807 C808 1.523 . S
C808 C789 1.368 1_545 S
C808 C802 1.368 . S
C808 C807 1.523 . S
C809 C793 1.429 1_545 S
C809 C805 1.429 . S
C809 C810 1.523 . S
C810 C794 1.368 . S
C810 C806 1.368 1_545 S
C810 C809 1.523 . S
H811 C786 0.950 . S
H812 C788 0.950 . S
H813 C789 0.949 . S
H814 C791 0.950 . S
H815 C793 0.950 . S
C816 C817 1.349 . S
C816 C818 1.327 . S
C816 H841 0.950 . S
C817 C816 1.349 . S
C817 C833 1.349 . S
C818 C816 1.327 . S
C818 C837 1.429 . S
C818 H842 0.950 . S
C819 C836 1.574 . S
C819 C838 1.368 . S
C819 H843 0.949 . S
H820 C824 0.949 . S
C821 C822 1.349 . S
C821 C823 1.327 . S
C821 H844 0.950 . S
C822 C821 1.349 . S
C822 C834 1.349 . S
C823 C821 1.327 . S
C823 C839 1.429 1_554 S
C823 H845 0.950 1_554 S
C824 H820 0.949 . S
C824 C832 1.574 . S
C824 C840 1.368 . S
H825 C833 0.950 . S
H826 C831 0.950 . S
H827 C832 0.949 . S
H828 C834 0.950 . S
H829 C835 0.950 1_556 S
H830 C836 0.949 . S
C831 H826 0.950 . S
C831 C833 1.327 . S
C831 C837 1.429 . S
C832 C824 1.574 . S
C832 H827 0.949 . S
C832 C838 1.368 . S
C833 C817 1.349 . S
C833 H825 0.950 . S
C833 C831 1.327 . S
C834 C822 1.349 . S
C834 H828 0.950 . S
C834 C835 1.327 . S
C835 H829 0.950 1_554 S
C835 C834 1.327 . S
C835 C839 1.429 1_554 S
C836 C819 1.574 . S
C836 H830 0.949 . S
C836 C840 1.368 . S
C837 C818 1.429 . S
C837 C831 1.429 . S
C837 C838 1.523 . S
C838 C819 1.368 . S
C838 C832 1.368 . S
C838 C837 1.523 . S
C839 C823 1.429 1_556 S
C839 C835 1.429 1_556 S
C839 C840 1.523 . S
C840 C824 1.368 . S
C840 C836 1.368 . S
C840 C839 1.523 . S
H841 C816 0.950 . S
H842 C818 0.950 . S
H843 C819 0.949 . S
H844 C821 0.950 . S
H845 C823 0.950 1_556 S
C846 C847 1.333 1_655 S
C846 C848 1.330 . S
C846 H871 0.965 . S
C847 C846 1.333 1_455 S
C847 C863 1.349 . S
C848 C846 1.330 . S
C848 C867 1.429 1_655 S
C848 H872 0.950 . S
C849 C866 1.574 . S
C849 C868 1.368 . S
C849 H873 0.949 . S
H850 C854 0.949 . S
C851 C852 1.349 1_455 S
C851 C853 1.327 . S
C851 H874 0.950 . S
C852 C851 1.349 1_655 S
C852 C864 1.349 . S
C853 C851 1.327 . S
C853 C869 1.414 1_455 S
C853 H875 0.950 . S
C854 H850 0.949 . S
C854 C862 1.574 . S
C854 C870 1.369 1_655 S
H855 C863 0.950 . S
H856 C861 0.950 . S
H857 C862 0.949 . S
H858 C864 0.950 . S
H859 C865 0.950 . S
H860 C866 0.949 . S
C861 H856 0.950 . S
C861 C863 1.327 . S
C861 C867 1.429 . S
C862 C854 1.574 . S
C862 H857 0.949 . S
C862 C868 1.368 1_655 S
C863 C847 1.349 . S
C863 H855 0.950 . S
C863 C861 1.327 . S
C864 C852 1.349 . S
C864 H858 0.950 . S
C864 C865 1.327 . S
C865 H859 0.950 . S
C865 C864 1.327 . S
C865 C869 1.447 . S
C866 C849 1.574 . S
C866 H860 0.949 . S
C866 C870 1.368 . S
C867 C848 1.429 1_455 S
C867 C861 1.429 . S
C867 C868 1.523 . S
C868 C849 1.368 . S
C868 C862 1.368 1_455 S
C868 C867 1.523 . S
C869 C853 1.414 1_655 S
C869 C865 1.447 . S
C869 C870 1.521 1_655 S
C870 C854 1.369 1_455 S
C870 C866 1.368 . S
C870 C869 1.521 1_455 S
H871 C846 0.965 . S
H872 C848 0.950 . S
H873 C849 0.949 . S
H874 C851 0.950 . S
H875 C853 0.950 . S
C337 C19 1.859 . S
C342 C325 1.803 . S
C367 C46 1.150 . S
C372 C253 1.140 . S
C397 C95 0.332 . S
C402 C289 0.283 . S
C427 C10 1.950 . S
C432 C301 1.931 . S
C462 C229 1.257 . S
C457 C55 1.254 . S
C492 C265 0.424 . S
C487 C86 0.435 . S
C517 C59 3.050 . S
C522 C181 2.979 . S
C547 C90 1.974 . S
C552 C193 1.962 . S
C577 C15 1.235 . S
C582 C121 1.243 . S
C612 C157 2.919 . S
C607 C50 2.927 . S
C642 C217 1.803 . S
C637 C99 1.850 . S
C667 C6 1.151 . S
C672 C145 1.145 . S
C702 C223 1.375 . S
C697 C9 1.333 . S
C727 C58 1.450 . S
C732 C151 1.502 . S
C757 C98 1.690 . S
C762 C187 1.758 . S
C792 C295 1.105 . S
C787 C49 1.087 . S
C822 C331 1.366 . S
C817 C89 1.328 . S
C847 C18 1.440 . S
C852 C259 1.482 . S
