# Generated by pormake.
# Topology rtl, (3,6)-cn, num edge types: 1
# Building blocks:
#     Node 0, Type 0, BuildingBlock: BELTOD_clean_linker_0, # of connection points: 3
#     Node 1, Type 0, BuildingBlock: BELTOD_clean_linker_0, # of connection points: 3
#     Node 2, Type 0, BuildingBlock: BELTOD_clean_linker_0, # of connection points: 3
#     Node 3, Type 0, BuildingBlock: BELTOD_clean_linker_0, # of connection points: 3
#     Node 4, Type 1, BuildingBlock: LEVNOQ01_clean_sbu_1, # of connection points: 6
#     Node 5, Type 1, BuildingBlock: LEVNOQ01_clean_sbu_1, # of connection points: 6
#     Edge 6, Type (0, 1), BuildingBlock: XIVTED_clean_linker_0, # of connection points: 2
#     Edge 7, Type (0, 1), BuildingBlock: XIVTED_clean_linker_0, # of connection points: 2
#     Edge 8, Type (0, 1), BuildingBlock: XIVTED_clean_linker_0, # of connection points: 2
#     Edge 9, Type (0, 1), BuildingBlock: XIVTED_clean_linker_0, # of connection points: 2
#     Edge 10, Type (0, 1), BuildingBlock: XIVTED_clean_linker_0, # of connection points: 2
#     Edge 11, Type (0, 1), BuildingBlock: XIVTED_clean_linker_0, # of connection points: 2
#     Edge 12, Type (0, 1), BuildingBlock: XIVTED_clean_linker_0, # of connection points: 2
#     Edge 13, Type (0, 1), BuildingBlock: XIVTED_clean_linker_0, # of connection points: 2
#     Edge 14, Type (0, 1), BuildingBlock: XIVTED_clean_linker_0, # of connection points: 2
#     Edge 15, Type (0, 1), BuildingBlock: XIVTED_clean_linker_0, # of connection points: 2
#     Edge 16, Type (0, 1), BuildingBlock: XIVTED_clean_linker_0, # of connection points: 2
#     Edge 17, Type (0, 1), BuildingBlock: XIVTED_clean_linker_0, # of connection points: 2
# Relax obj value: 0.023
# Max RMSD: 0.060
# Mean RMSD: 0.042
data_MOF--net-rtl--node1-LEVNOQ01_clean_sbu_1--node2-BELTOD_clean_linker_0--edge1-XIVTED_clean_linker_0
_symmetry_space_group_name_H-M    P1
_symmetry_Int_Tables_number       1
_symmetry_cell_setting            triclinic
loop_
_symmetry_equiv_pos_as_xyz
'x, y, z'
_cell_length_a     35.160317
_cell_length_b     39.330574
_cell_length_c     27.332781
_cell_angle_alpha  89.166591
_cell_angle_beta   98.227943
_cell_angle_gamma 89.968657
loop_
_atom_site_label
_atom_site_type_symbol
_atom_site_fract_x
_atom_site_fract_y
_atom_site_fract_z
_atom_type_partial_charge
P0 P 0.30567 0.92402 0.10316 0.0
H1 H 0.33008 0.92354 0.20873 0.0
H2 H 0.29833 0.93875 0.27917 0.0
H3 H 0.19436 0.96234 0.17979 0.0
H4 H 0.22659 0.94749 0.10931 0.0
H5 H 0.38684 0.90463 0.11751 0.0
H6 H 0.41998 0.85101 0.13571 0.0
H7 H 0.31043 0.80039 0.13462 0.0
H8 H 0.27813 0.85525 0.12278 0.0
H9 H 0.28228 0.97953 0.03423 0.0
H10 H 0.26112 0.87163 0.04112 0.0
O11 O 0.33903 0.95405 0.10167 0.0
H12 H 0.2444 0.98245 0.95211 0.0
H13 H 0.2231 0.87454 0.95927 0.0
C14 C 0.28053 0.93389 0.15396 0.0
C15 C 0.30035 0.93179 0.20215 0.0
C16 C 0.28217 0.94047 0.24238 0.0
C17 C 0.24378 0.95166 0.23511 0.0
C18 C 0.22408 0.95414 0.18657 0.0
C19 C 0.24235 0.94534 0.14625 0.0
C20 C 0.32981 0.88376 0.11651 0.0
C21 C 0.36993 0.88202 0.12139 0.0
C22 C 0.38892 0.85098 0.13141 0.0
C23 C 0.36815 0.82061 0.13514 0.0
C24 C 0.32783 0.82284 0.13215 0.0
C25 C 0.30903 0.85423 0.12405 0.0
C26 C 0.27536 0.92529 0.04379 0.0
C27 C 0.26957 0.95643 0.01821 0.0
C28 C 0.24796 0.95808 0.97119 0.0
C29 C 0.23118 0.92862 0.94898 0.0
C30 C 0.23566 0.89765 0.97546 0.0
C31 C 0.25764 0.89599 0.02243 0.0
P32 P 0.79217 0.59746 0.60265 0.0
H33 H 0.80794 0.57244 0.50758 0.0
H34 H 0.76674 0.56071 0.42976 0.0
H35 H 0.66767 0.59393 0.4933 0.0
H36 H 0.70907 0.60522 0.57149 0.0
H37 H 0.86446 0.63164 0.63849 0.0
H38 H 0.88453 0.69103 0.63704 0.0
H39 H 0.76933 0.72009 0.57283 0.0
H40 H 0.74992 0.66057 0.573 0.0
H41 H 0.78073 0.53193 0.64934 0.0
H42 H 0.75107 0.63667 0.66974 0.0
O43 O 0.83177 0.57371 0.60487 0.0
H44 H 0.75019 0.51518 0.7211 0.0
H45 H 0.72002 0.62018 0.74054 0.0
C46 C 0.76144 0.58906 0.54556 0.0
C47 C 0.77734 0.57701 0.50493 0.0
C48 C 0.7538 0.57038 0.46045 0.0
C49 C 0.71399 0.57629 0.45556 0.0
C50 C 0.69828 0.58932 0.49595 0.0
C51 C 0.72184 0.59552 0.5407 0.0
C52 C 0.80599 0.64158 0.60461 0.0
C53 C 0.84354 0.65081 0.62407 0.0
C54 C 0.85486 0.68488 0.62377 0.0
C55 C 0.82864 0.7104 0.60442 0.0
C56 C 0.7905 0.70107 0.58704 0.0
C57 C 0.77932 0.66699 0.5871 0.0
C58 C 0.76883 0.58559 0.6548 0.0
C59 C 0.76769 0.55131 0.66932 0.0
C60 C 0.75005 0.54176 0.71015 0.0
C61 C 0.73309 0.56639 0.737 0.0
C62 C 0.73364 0.60066 0.7215 0.0
C63 C 0.75124 0.61014 0.68071 0.0
P64 P 0.81161 0.20683 0.98078 0.0
H65 H 0.82581 0.21251 0.87863 0.0
H66 H 0.82687 0.1707 0.81379 0.0
H67 H 0.7856 0.09388 0.90783 0.0
H68 H 0.78481 0.13602 0.97276 0.0
H69 H 0.79908 0.27116 0.02678 0.0
H70 H 0.74483 0.31069 0.01833 0.0
H71 H 0.67895 0.242 0.91718 0.0
H72 H 0.73292 0.20224 0.92704 0.0
H73 H 0.87256 0.1596 0.01535 0.0
H74 H 0.77628 0.20382 0.07325 0.0
O75 O 0.84921 0.23159 0.97463 0.0
H76 H 0.89011 0.12759 0.09229 0.0
H77 H 0.79377 0.17161 0.15094 0.0
C78 C 0.80649 0.17704 0.93093 0.0
C79 C 0.81655 0.18677 0.88505 0.0
C80 C 0.81673 0.16288 0.8478 0.0
C81 C 0.80666 0.12884 0.85583 0.0
C82 C 0.79406 0.11977 0.90082 0.0
C83 C 0.7937 0.1438 0.93798 0.0
C84 C 0.77011 0.23395 0.97735 0.0
C85 C 0.77283 0.26458 0.00303 0.0
C86 C 0.74194 0.28731 0.99769 0.0
C87 C 0.70768 0.27978 0.96647 0.0
C88 C 0.70482 0.24858 0.94163 0.0
C89 C 0.73576 0.22581 0.94716 0.0
C90 C 0.8231 0.18392 0.03852 0.0
C91 C 0.85513 0.16233 0.0447 0.0
C92 C 0.86499 0.1439 0.08862 0.0
C93 C 0.84313 0.14685 0.12758 0.0
C94 C 0.81122 0.16893 0.12162 0.0
C95 C 0.80115 0.18725 0.07722 0.0
P96 P 0.26629 0.36325 0.47686 0.0
H97 H 0.2767 0.33143 0.57433 0.0
H98 H 0.2921 0.35397 0.65771 0.0
H99 H 0.28675 0.45616 0.59642 0.0
H100 H 0.26972 0.43353 0.51395 0.0
H101 H 0.25433 0.29349 0.44285 0.0
H102 H 0.20021 0.25485 0.44015 0.0
H103 H 0.13133 0.33565 0.48834 0.0
H104 H 0.18671 0.37379 0.49321 0.0
H105 H 0.3241 0.40985 0.45143 0.0
H106 H 0.20534 0.38803 0.39801 0.0
O107 O 0.30495 0.33931 0.47313 0.0
H108 H 0.32607 0.44995 0.38319 0.0
H109 H 0.20683 0.42868 0.32976 0.0
C110 C 0.27251 0.38073 0.53794 0.0
C111 C 0.27828 0.35872 0.57909 0.0
C112 C 0.28738 0.37164 0.62669 0.0
C113 C 0.29111 0.40691 0.63392 0.0
C114 C 0.28376 0.4289 0.5925 0.0
C115 C 0.27438 0.41593 0.545 0.0
C116 C 0.22463 0.33631 0.46898 0.0
C117 C 0.22754 0.30298 0.45258 0.0
C118 C 0.19626 0.28095 0.45047 0.0
C119 C 0.16124 0.29197 0.46422 0.0
C120 C 0.15799 0.32605 0.47835 0.0
C121 C 0.18952 0.34796 0.48095 0.0
C122 C 0.26479 0.39572 0.42953 0.0
C123 C 0.29822 0.41417 0.4254 0.0
C124 C 0.29914 0.43742 0.3866 0.0
C125 C 0.26655 0.44263 0.35092 0.0
C126 C 0.23249 0.42509 0.3564 0.0
C127 C 0.23161 0.40182 0.39549 0.0
O128 O 0.98689 0.0267 0.65429 0.0
Mg129 Mg 0.02935 0.03982 0.60909 0.0
O130 O 0.94879 0.01472 0.5864 0.0
Mg131 Mg -0.00116 0.00416 0.54169 0.0
O132 O 0.01871 0.06264 0.54115 0.0
O133 O 0.03476 0.09061 0.61224 0.0
O134 O 0.05227 0.99858 0.49682 0.0
O135 O 0.95886 0.02458 0.47231 0.0
Mg136 Mg 8e-05 0.95646 0.48203 0.0
O137 O 0.96984 0.94845 0.53958 0.0
O138 O 0.0585 0.94368 0.49375 0.0
O139 O 0.97768 0.98811 0.42087 0.0
O140 O 0.96901 0.91387 0.4744 0.0
C141 C 0.07383 0.98757 0.63064 0.0
C142 C 0.95361 0.02013 0.63257 0.0
C143 C 0.02778 0.09073 0.56469 0.0
C144 C 0.07247 0.97277 0.48918 0.0
C145 C 0.95888 0.01452 0.42828 0.0
C146 C 0.95828 0.92077 0.51627 0.0
O147 O 0.08365 0.01779 0.62393 0.0
O148 O 0.04016 0.97835 0.61149 0.0
O149 O 0.51737 0.47749 0.16172 0.0
Mg150 Mg 0.47854 0.4528 0.10676 0.0
O151 O 0.52355 0.52476 0.11804 0.0
Mg152 Mg 0.48382 0.51746 0.04264 0.0
O153 O 0.49751 0.4598 0.04067 0.0
O154 O 0.49532 0.40885 0.07738 0.0
O155 O 0.44316 0.50714 0.96875 0.0
O156 O 0.53868 0.52284 0.00246 0.0
Mg157 Mg 0.47553 0.57788 0.97083 0.0
O158 O 0.47137 0.57571 0.04487 0.0
O159 O 0.43048 0.55425 0.92471 0.0
O160 O 0.532 0.57031 0.95729 0.0
O161 O 0.46428 0.62352 0.99857 0.0
C162 C 0.40727 0.49063 0.09694 0.0
C163 C 0.53202 0.50674 0.15745 0.0
C164 C 0.5044 0.42733 0.04143 0.0
C165 C 0.42514 0.52281 0.93124 0.0
C166 C 0.55157 0.54454 0.97374 0.0
C167 C 0.46475 0.60826 0.04075 0.0
O168 O 0.4194 0.46042 0.10285 0.0
O169 O 0.42829 0.5139 0.08193 0.0
H170 H 0.11251 0.28926 0.53405 0.0
H171 H 0.04719 0.09956 0.47131 0.0
H172 H 0.13848 0.23741 0.4045 0.0
H173 H 0.02209 0.15485 0.59811 0.0
H174 H 0.06989 0.15265 0.43693 0.0
H175 H 0.06843 0.24394 0.54814 0.0
C176 C 0.10844 0.26875 0.50784 0.0
C177 C 0.12987 0.26709 0.46837 0.0
C178 C 0.05871 0.15322 0.47182 0.0
C179 C 0.07995 0.21414 0.48542 0.0
C180 C 0.04558 0.12299 0.49128 0.0
C181 C 0.03347 0.12279 0.538 0.0
C182 C 0.05951 0.18324 0.49937 0.0
C183 C 0.03193 0.15378 0.56239 0.0
C184 C 0.08337 0.24258 0.51623 0.0
C185 C 0.12345 0.23938 0.43623 0.0
N186 N 0.04526 0.1826 0.5431 0.0
N187 N 0.09954 0.21374 0.4459 0.0
H188 H 0.4352 0.8034 0.10016 0.0
H189 H 0.40101 0.61107 0.08691 0.0
H190 H 0.34726 0.7597 0.17736 0.0
H191 H 0.51278 0.65523 0.08493 0.0
H192 H 0.38137 0.66213 0.12785 0.0
H193 H 0.46486 0.74822 0.09981 0.0
C194 C 0.42233 0.78259 0.11816 0.0
C195 C 0.38824 0.78686 0.13879 0.0
C196 C 0.41068 0.66003 0.12032 0.0
C197 C 0.42189 0.7223 0.13629 0.0
C198 C 0.42198 0.63078 0.09748 0.0
C199 C 0.4585 0.6292 0.08277 0.0
C200 C 0.436 0.68778 0.12721 0.0
C201 C 0.48439 0.65563 0.09594 0.0
C202 C 0.4394 0.75073 0.1176 0.0
C203 C 0.37283 0.75789 0.15978 0.0
N204 N 0.47239 0.6842 0.11639 0.0
N205 N 0.38931 0.72673 0.1571 0.0
H206 H 0.87987 0.74768 0.66851 0.0
H207 H 0.89716 0.8905 0.46453 0.0
H208 H 0.80777 0.75438 0.52687 0.0
H209 H 0.9602 0.89595 0.6115 0.0
H210 H 0.85966 0.84368 0.49127 0.0
H211 H 0.906 0.80397 0.65286 0.0
C212 C 0.86929 0.76104 0.63434 0.0
C213 C 0.84174 0.74604 0.59878 0.0
C214 C 0.88128 0.85522 0.51811 0.0
C215 C 0.87132 0.81048 0.58091 0.0
C216 C 0.90267 0.88201 0.50279 0.0
C217 C 0.93188 0.89681 0.53583 0.0
C218 C 0.88967 0.84245 0.56669 0.0
C219 C 0.9378 0.8851 0.58503 0.0
C220 C 0.88403 0.79327 0.62563 0.0
C221 C 0.82865 0.76485 0.55563 0.0
N222 N 0.91728 0.85807 0.59888 0.0
N223 N 0.8438 0.79581 0.54778 0.0
H224 H 0.70945 0.3496 0.95953 0.0
H225 H 0.49123 0.36574 0.99998 0.0
H226 H 0.63086 0.2654 0.96072 0.0
H227 H 0.56823 0.45123 0.00556 0.0
H228 H 0.53807 0.33139 0.96502 0.0
H229 H 0.65555 0.389 0.95922 0.0
C230 C 0.68086 0.33937 0.95948 0.0
C231 C 0.67483 0.30405 0.96102 0.0
C232 C 0.54456 0.35785 0.97276 0.0
C233 C 0.61294 0.34907 0.95989 0.0
C234 C 0.51764 0.37753 0.99232 0.0
C235 C 0.52616 0.41116 0.00596 0.0
C236 C 0.58066 0.37169 0.96795 0.0
C237 C 0.56067 0.42534 0.99538 0.0
C238 C 0.65006 0.3619 0.95884 0.0
C239 C 0.637 0.29233 0.9595 0.0
N240 N 0.58719 0.40525 0.97804 0.0
N241 N 0.60764 0.31475 0.9596 0.0
H242 H 0.19496 0.00488 0.24548 0.0
H243 H 0.13096 0.92735 0.49064 0.0
H244 H 0.2479 0.91671 0.32296 0.0
H245 H 0.09113 0.02485 0.42941 0.0
H246 H 0.1789 0.9264 0.43441 0.0
H247 H 0.16019 0.01535 0.31532 0.0
C248 C 0.19935 0.98779 0.27722 0.0
C249 C 0.22414 0.95971 0.27818 0.0
C250 C 0.16017 0.94832 0.43372 0.0
C251 C 0.18472 0.97167 0.35834 0.0
C252 C 0.1329 0.94891 0.46598 0.0
C253 C 0.10686 0.97605 0.46428 0.0
C254 C 0.16095 0.97476 0.39877 0.0
C255 C 0.11068 0.00341 0.43183 0.0
C256 C 0.17977 0.99395 0.31726 0.0
C257 C 0.22926 0.93877 0.32065 0.0
N258 N 0.13674 0.00178 0.3996 0.0
N259 N 0.20946 0.94498 0.35873 0.0
H260 H 0.6874 0.51087 0.74867 0.0
H261 H 0.61023 0.58912 0.98017 0.0
H262 H 0.73614 0.59952 0.82487 0.0
H263 H 0.57535 0.49045 0.92415 0.0
H264 H 0.6628 0.58901 0.93086 0.0
H265 H 0.65192 0.49875 0.81769 0.0
C266 C 0.69112 0.52751 0.78021 0.0
C267 C 0.7143 0.55662 0.78054 0.0
C268 C 0.64434 0.56694 0.93004 0.0
C269 C 0.6735 0.54304 0.85945 0.0
C270 C 0.61452 0.56694 0.95851 0.0
C271 C 0.58874 0.53972 0.95619 0.0
C272 C 0.64767 0.53994 0.89781 0.0
C273 C 0.59502 0.51174 0.92717 0.0
C274 C 0.67079 0.52059 0.81959 0.0
C275 C 0.71783 0.57732 0.82235 0.0
N276 N 0.62345 0.51286 0.89816 0.0
N277 N 0.69733 0.57034 0.85975 0.0
H278 H 0.84701 0.16782 0.22388 0.0
H279 H 0.94479 0.99375 0.33283 0.0
H280 H 0.86435 0.08006 0.13674 0.0
H281 H 0.92417 0.07763 0.42583 0.0
H282 H 0.91218 0.02482 0.26155 0.0
H283 H 0.87119 0.135 0.29908 0.0
C284 C 0.85545 0.14156 0.22062 0.0
C285 C 0.85411 0.12677 0.17393 0.0
C286 C 0.91455 0.03651 0.29747 0.0
C287 C 0.88202 0.08927 0.25952 0.0
C288 C 0.93332 0.01876 0.33834 0.0
C289 C 0.93747 0.03316 0.38546 0.0
C290 C 0.8999 0.06918 0.30334 0.0
C291 C 0.92167 0.06558 0.39017 0.0
C292 C 0.86943 0.12291 0.26349 0.0
C293 C 0.86561 0.09272 0.17184 0.0
N294 N 0.90378 0.08263 0.34951 0.0
N295 N 0.87923 0.07527 0.21388 0.0
H296 H 0.34547 0.37968 0.70617 0.0
H297 H 0.36977 0.54903 0.86051 0.0
H298 H 0.26916 0.46586 0.67536 0.0
H299 H 0.42202 0.45405 0.91557 0.0
H300 H 0.33194 0.51866 0.79314 0.0
H301 H 0.37274 0.40554 0.78388 0.0
C302 C 0.33391 0.40375 0.716 0.0
C303 C 0.30509 0.4207 0.68371 0.0
C304 C 0.35135 0.50437 0.82023 0.0
C305 C 0.337 0.45083 0.77239 0.0
C306 C 0.37306 0.52171 0.85864 0.0
C307 C 0.39933 0.50408 0.89348 0.0
C308 C 0.35634 0.46917 0.81605 0.0
C309 C 0.40215 0.46865 0.88945 0.0
C310 C 0.34971 0.41859 0.76037 0.0
C311 C 0.29189 0.45216 0.69839 0.0
N312 N 0.38129 0.4524 0.85099 0.0
N313 N 0.30822 0.46635 0.74134 0.0
H314 H 0.7142 0.51767 0.40373 0.0
H315 H 0.55203 0.57284 0.1817 0.0
H316 H 0.65665 0.61465 0.40209 0.0
H317 H 0.57609 0.46861 0.22749 0.0
H318 H 0.59777 0.59153 0.25306 0.0
H319 H 0.67151 0.50225 0.3288 0.0
C320 C 0.69275 0.53583 0.3873 0.0
C321 C 0.68887 0.56744 0.40917 0.0
C322 C 0.59292 0.56461 0.24722 0.0
C323 C 0.63992 0.54997 0.32339 0.0
C324 C 0.56705 0.55395 0.20652 0.0
C325 C 0.56011 0.51914 0.19885 0.0
C326 C 0.61248 0.54022 0.27957 0.0
C327 C 0.58025 0.49571 0.23219 0.0
C328 C 0.66827 0.52695 0.34474 0.0
C329 C 0.66032 0.5899 0.38657 0.0
N330 N 0.60559 0.50666 0.27084 0.0
N331 N 0.63693 0.58079 0.34472 0.0
H332 H 0.8395 0.06629 0.87596 0.0
H333 H 0.88099 0.04351 0.59916 0.0
H334 H 0.7919 0.13159 0.75417 0.0
H335 H 0.95242 0.00465 0.72941 0.0
H336 H 0.83311 0.06108 0.65113 0.0
H337 H 0.86453 0.02887 0.81768 0.0
C338 C 0.83335 0.07231 0.83683 0.0
C339 C 0.81416 0.10249 0.82 0.0
C340 C 0.85887 0.04796 0.66804 0.0
C341 C 0.84341 0.06 0.75321 0.0
C342 C 0.88602 0.03775 0.63844 0.0
C343 C 0.92084 0.02314 0.66032 0.0
C344 C 0.8666 0.04301 0.71954 0.0
C345 C 0.92613 0.01634 0.71132 0.0
C346 C 0.84794 0.05103 0.80361 0.0
C347 C 0.80734 0.109 0.76881 0.0
N348 N 0.89949 0.02665 0.73928 0.0
N349 N 0.82248 0.0882 0.73723 0.0
H350 H 0.2368 0.42791 0.25547 0.0
H351 H 0.39313 0.54365 0.15534 0.0
H352 H 0.30496 0.50293 0.34202 0.0
H353 H 0.34095 0.45475 0.08405 0.0
H354 H 0.34347 0.5437 0.20999 0.0
H355 H 0.25636 0.45263 0.1808 0.0
C356 C 0.25498 0.45022 0.25877 0.0
C357 C 0.2701 0.46276 0.30533 0.0
C358 C 0.34214 0.52488 0.18127 0.0
C359 C 0.29342 0.49065 0.21982 0.0
C360 C 0.37024 0.52506 0.14981 0.0
C361 C 0.37133 0.49877 0.11595 0.0
C362 C 0.31516 0.49832 0.17835 0.0
C363 C 0.34129 0.47513 0.11034 0.0
C364 C 0.26638 0.4642 0.21601 0.0
C365 C 0.29362 0.49174 0.30701 0.0
N366 N 0.31481 0.47508 0.14186 0.0
N367 N 0.30526 0.50425 0.26498 0.0
H368 H 0.25353 0.96047 0.86869 0.0
H369 H 0.05221 0.94 0.69631 0.0
H370 H 0.16123 0.90045 0.91275 0.0
H371 H 0.15132 0.98978 0.65199 0.0
H372 H 0.09273 0.91876 0.77142 0.0
H373 H 0.21762 0.96635 0.78596 0.0
C374 C 0.22561 0.94851 0.86086 0.0
C375 C 0.21012 0.93035 0.89784 0.0
C376 C 0.10572 0.93374 0.7447 0.0
C377 C 0.16858 0.93687 0.80273 0.0
C378 C 0.08269 0.94556 0.70164 0.0
C379 C 0.09843 0.96695 0.66825 0.0
C380 C 0.14457 0.94349 0.75411 0.0
C381 C 0.13796 0.97369 0.67711 0.0
C382 C 0.20516 0.95165 0.81345 0.0
C383 C 0.17416 0.91475 0.8853 0.0
N384 N 0.15948 0.96241 0.71937 0.0
N385 N 0.15434 0.91872 0.83892 0.0
loop_
_geom_bond_atom_site_label_1
_geom_bond_atom_site_label_2
_geom_bond_distance
_geom_bond_site_symmetry_2
_ccdc_geom_bond_type
P0 O11 1.490 . S
P0 C14 1.812 . S
P0 C20 1.803 . S
P0 C26 1.819 . S
H1 C15 0.941 . S
H2 C16 0.939 . S
H3 C18 0.940 . S
H4 C19 0.940 . S
H5 C21 0.939 . S
H6 C22 0.942 . S
H7 C24 0.940 . S
H8 C25 0.939 . S
H9 C27 0.941 . S
H10 C31 0.939 . S
O11 P0 1.490 . S
H12 C28 0.939 . S
H13 C30 0.940 . S
C14 P0 1.812 . S
C14 C15 1.389 . S
C14 C19 1.391 . S
C15 H1 0.941 . S
C15 C14 1.389 . S
C15 C16 1.397 . S
C16 H2 0.939 . S
C16 C15 1.397 . S
C16 C17 1.378 . S
C17 C16 1.378 . S
C17 C18 1.378 . S
C18 H3 0.940 . S
C18 C17 1.378 . S
C18 C19 1.396 . S
C19 H4 0.940 . S
C19 C14 1.391 . S
C19 C18 1.396 . S
C20 P0 1.803 . S
C20 C21 1.378 . S
C20 C25 1.400 . S
C21 H5 0.939 . S
C21 C20 1.378 . S
C21 C22 1.361 . S
C22 H6 0.942 . S
C22 C21 1.361 . S
C22 C23 1.369 . S
C23 C22 1.369 . S
C23 C24 1.404 . S
C24 H7 0.940 . S
C24 C23 1.404 . S
C24 C25 1.389 . S
C25 H8 0.939 . S
C25 C20 1.400 . S
C25 C24 1.389 . S
C26 P0 1.819 . S
C26 C27 1.391 . S
C26 C31 1.391 . S
C27 H9 0.941 . S
C27 C26 1.391 . S
C27 C28 1.396 1_554 S
C28 H12 0.939 . S
C28 C27 1.396 1_556 S
C28 C29 1.397 . S
C29 C28 1.397 . S
C29 C30 1.385 . S
C30 H13 0.940 . S
C30 C29 1.385 . S
C30 C31 1.388 1_556 S
C31 H10 0.939 . S
C31 C26 1.391 . S
C31 C30 1.388 1_554 S
P32 O43 1.490 . S
P32 C46 1.812 . S
P32 C52 1.803 . S
P32 C58 1.819 . S
H33 C47 0.941 . S
H34 C48 0.939 . S
H35 C50 0.940 . S
H36 C51 0.940 . S
H37 C53 0.939 . S
H38 C54 0.942 . S
H39 C56 0.940 . S
H40 C57 0.939 . S
H41 C59 0.941 . S
H42 C63 0.939 . S
O43 P32 1.490 . S
H44 C60 0.939 . S
H45 C62 0.940 . S
C46 P32 1.812 . S
C46 C47 1.389 . S
C46 C51 1.391 . S
C47 H33 0.941 . S
C47 C46 1.389 . S
C47 C48 1.397 . S
C48 H34 0.939 . S
C48 C47 1.397 . S
C48 C49 1.378 . S
C49 C48 1.378 . S
C49 C50 1.378 . S
C50 H35 0.940 . S
C50 C49 1.378 . S
C50 C51 1.396 . S
C51 H36 0.940 . S
C51 C46 1.391 . S
C51 C50 1.396 . S
C52 P32 1.803 . S
C52 C53 1.378 . S
C52 C57 1.400 . S
C53 H37 0.939 . S
C53 C52 1.378 . S
C53 C54 1.361 . S
C54 H38 0.942 . S
C54 C53 1.361 . S
C54 C55 1.369 . S
C55 C54 1.369 . S
C55 C56 1.404 . S
C56 H39 0.940 . S
C56 C55 1.404 . S
C56 C57 1.389 . S
C57 H40 0.939 . S
C57 C52 1.400 . S
C57 C56 1.389 . S
C58 P32 1.819 . S
C58 C59 1.391 . S
C58 C63 1.391 . S
C59 H41 0.941 . S
C59 C58 1.391 . S
C59 C60 1.396 . S
C60 H44 0.939 . S
C60 C59 1.396 . S
C60 C61 1.397 . S
C61 C60 1.397 . S
C61 C62 1.385 . S
C62 H45 0.940 . S
C62 C61 1.385 . S
C62 C63 1.388 . S
C63 H42 0.939 . S
C63 C58 1.391 . S
C63 C62 1.388 . S
P64 O75 1.490 . S
P64 C78 1.812 1_554 S
P64 C84 1.803 1_554 S
P64 C90 1.819 . S
H65 C79 0.941 . S
H66 C80 0.939 . S
H67 C82 0.940 . S
H68 C83 0.940 . S
H69 C85 0.939 . S
H70 C86 0.942 . S
H71 C88 0.940 . S
H72 C89 0.939 . S
H73 C91 0.941 . S
H74 C95 0.939 . S
O75 P64 1.490 . S
H76 C92 0.939 . S
H77 C94 0.940 . S
C78 P64 1.812 1_556 S
C78 C79 1.389 . S
C78 C83 1.391 . S
C79 H65 0.941 . S
C79 C78 1.389 . S
C79 C80 1.397 . S
C80 H66 0.939 . S
C80 C79 1.397 . S
C80 C81 1.378 . S
C81 C80 1.378 . S
C81 C82 1.378 . S
C82 H67 0.940 . S
C82 C81 1.378 . S
C82 C83 1.396 . S
C83 H68 0.940 . S
C83 C78 1.391 . S
C83 C82 1.396 . S
C84 P64 1.803 1_556 S
C84 C85 1.378 1_556 S
C84 C89 1.400 . S
C85 H69 0.939 . S
C85 C84 1.378 1_554 S
C85 C86 1.361 . S
C86 H70 0.942 . S
C86 C85 1.361 . S
C86 C87 1.369 1_554 S
C87 C86 1.369 1_556 S
C87 C88 1.404 . S
C88 H71 0.940 . S
C88 C87 1.404 . S
C88 C89 1.389 . S
C89 H72 0.939 . S
C89 C84 1.400 . S
C89 C88 1.389 . S
C90 P64 1.819 . S
C90 C91 1.391 . S
C90 C95 1.391 . S
C91 H73 0.941 . S
C91 C90 1.391 . S
C91 C92 1.396 . S
C92 H76 0.939 . S
C92 C91 1.396 . S
C92 C93 1.397 . S
C93 C92 1.397 . S
C93 C94 1.385 . S
C94 H77 0.940 . S
C94 C93 1.385 . S
C94 C95 1.388 . S
C95 H74 0.939 . S
C95 C90 1.391 . S
C95 C94 1.388 . S
P96 O107 1.490 . S
P96 C110 1.812 . S
P96 C116 1.803 . S
P96 C122 1.819 . S
H97 C111 0.941 . S
H98 C112 0.939 . S
H99 C114 0.940 . S
H100 C115 0.940 . S
H101 C117 0.939 . S
H102 C118 0.942 . S
H103 C120 0.940 . S
H104 C121 0.939 . S
H105 C123 0.941 . S
H106 C127 0.939 . S
O107 P96 1.490 . S
H108 C124 0.939 . S
H109 C126 0.940 . S
C110 P96 1.812 . S
C110 C111 1.389 . S
C110 C115 1.391 . S
C111 H97 0.941 . S
C111 C110 1.389 . S
C111 C112 1.397 . S
C112 H98 0.939 . S
C112 C111 1.397 . S
C112 C113 1.378 . S
C113 C112 1.378 . S
C113 C114 1.378 . S
C114 H99 0.940 . S
C114 C113 1.378 . S
C114 C115 1.396 . S
C115 H100 0.940 . S
C115 C110 1.391 . S
C115 C114 1.396 . S
C116 P96 1.803 . S
C116 C117 1.378 . S
C116 C121 1.400 . S
C117 H101 0.939 . S
C117 C116 1.378 . S
C117 C118 1.361 . S
C118 H102 0.942 . S
C118 C117 1.361 . S
C118 C119 1.369 . S
C119 C118 1.369 . S
C119 C120 1.404 . S
C120 H103 0.940 . S
C120 C119 1.404 . S
C120 C121 1.389 . S
C121 H104 0.939 . S
C121 C116 1.400 . S
C121 C120 1.389 . S
C122 P96 1.819 . S
C122 C123 1.391 . S
C122 C127 1.391 . S
C123 H105 0.941 . S
C123 C122 1.391 . S
C123 C124 1.396 . S
C124 H108 0.939 . S
C124 C123 1.396 . S
C124 C125 1.397 . S
C125 C124 1.397 . S
C125 C126 1.385 . S
C126 H109 0.940 . S
C126 C125 1.385 . S
C126 C127 1.388 . S
C127 H106 0.939 . S
C127 C122 1.391 . S
C127 C126 1.388 . S
O128 Mg129 1.990 1_655 S
O128 C142 1.253 . S
Mg129 O128 1.990 1_455 S
Mg129 O132 2.180 . S
Mg129 O133 2.117 . S
Mg129 O147 2.030 . S
O130 Mg131 2.072 1_655 S
O130 C142 1.260 . S
Mg131 O130 2.072 1_455 S
Mg131 O132 2.099 . S
Mg131 O134 2.079 1_545 S
Mg131 O135 2.072 1_455 S
Mg131 O137 2.099 1_445 S
Mg131 O148 2.079 1_545 S
O132 Mg129 2.180 . S
O132 Mg131 2.099 . S
O132 C143 1.279 . S
O133 Mg129 2.117 . S
O133 C143 1.250 . S
O134 Mg131 2.079 1_565 S
O134 C144 1.264 . S
O135 Mg131 2.072 1_655 S
O135 C145 1.260 . S
Mg136 O137 2.180 . S
Mg136 O138 2.030 1_655 S
Mg136 O139 1.990 1_565 S
Mg136 O140 2.117 . S
O137 Mg131 2.099 1_665 S
O137 Mg136 2.180 . S
O137 C146 1.279 . S
O138 Mg136 2.030 1_455 S
O138 C144 1.248 . S
O139 Mg136 1.990 1_545 S
O139 C145 1.253 . S
O140 Mg136 2.117 . S
O140 C146 1.250 . S
C141 O147 1.248 1_565 S
C141 O148 1.264 . S
C142 O128 1.253 . S
C142 O130 1.260 . S
C143 O132 1.279 . S
C143 O133 1.250 . S
C144 O134 1.264 . S
C144 O138 1.248 . S
C145 O135 1.260 . S
C145 O139 1.253 . S
C146 O137 1.279 . S
C146 O140 1.250 . S
O147 Mg129 2.030 . S
O147 C141 1.248 1_545 S
O148 Mg131 2.079 1_565 S
O148 C141 1.264 . S
O149 Mg150 1.990 . S
O149 C163 1.253 . S
Mg150 O149 1.990 . S
Mg150 O153 2.180 . S
Mg150 O154 2.117 . S
Mg150 O168 2.030 . S
O151 Mg152 2.072 . S
O151 C163 1.260 . S
Mg152 O151 2.072 . S
Mg152 O153 2.099 . S
Mg152 O155 2.079 1_554 S
Mg152 O156 2.072 1_554 S
Mg152 O158 2.099 . S
Mg152 O169 2.079 . S
O153 Mg150 2.180 . S
O153 Mg152 2.099 . S
O153 C164 1.279 . S
O154 Mg150 2.117 . S
O154 C164 1.250 . S
O155 Mg152 2.079 1_556 S
O155 C165 1.264 . S
O156 Mg152 2.072 1_556 S
O156 C166 1.260 . S
Mg157 O158 2.180 1_556 S
Mg157 O159 2.030 . S
Mg157 O160 1.990 . S
Mg157 O161 2.117 . S
O158 Mg152 2.099 . S
O158 Mg157 2.180 1_554 S
O158 C167 1.279 . S
O159 Mg157 2.030 . S
O159 C165 1.248 . S
O160 Mg157 1.990 . S
O160 C166 1.253 . S
O161 Mg157 2.117 . S
O161 C167 1.250 1_556 S
C162 O168 1.248 . S
C162 O169 1.264 . S
C163 O149 1.253 . S
C163 O151 1.260 . S
C164 O153 1.279 . S
C164 O154 1.250 . S
C165 O155 1.264 . S
C165 O159 1.248 . S
C166 O156 1.260 . S
C166 O160 1.253 . S
C167 O158 1.279 . S
C167 O161 1.250 1_554 S
O168 Mg150 2.030 . S
O168 C162 1.248 . S
O169 Mg152 2.079 . S
O169 C162 1.264 . S
H170 C176 0.930 . S
H171 C180 0.930 . S
H172 C185 0.929 . S
H173 C183 0.929 . S
H174 C178 0.929 . S
H175 C184 0.929 . S
C176 H170 0.930 . S
C176 C177 1.367 . S
C176 C184 1.378 . S
C177 C176 1.367 . S
C177 C185 1.433 . S
C178 H174 0.929 . S
C178 C180 1.378 . S
C178 C182 1.350 . S
C179 C182 1.463 . S
C179 C184 1.350 . S
C179 N187 1.427 . S
C180 H171 0.930 . S
C180 C178 1.378 . S
C180 C181 1.367 . S
C181 C180 1.367 . S
C181 C183 1.433 . S
C182 C178 1.350 . S
C182 C179 1.463 . S
C182 N186 1.427 . S
C183 H173 0.929 . S
C183 C181 1.433 . S
C183 N186 1.384 . S
C184 H175 0.929 . S
C184 C176 1.378 . S
C184 C179 1.350 . S
C185 H172 0.929 . S
C185 C177 1.433 . S
C185 N187 1.384 . S
N186 C182 1.427 . S
N186 C183 1.384 . S
N187 C179 1.427 . S
N187 C185 1.384 . S
H188 C194 0.930 . S
H189 C198 0.930 . S
H190 C203 0.929 . S
H191 C201 0.929 1_556 S
H192 C196 0.929 . S
H193 C202 0.929 . S
C194 H188 0.930 . S
C194 C195 1.367 . S
C194 C202 1.378 . S
C195 C194 1.367 . S
C195 C203 1.433 . S
C196 H192 0.929 . S
C196 C198 1.378 . S
C196 C200 1.350 . S
C197 C200 1.463 . S
C197 C202 1.350 . S
C197 N205 1.427 . S
C198 H189 0.930 . S
C198 C196 1.378 . S
C198 C199 1.367 . S
C199 C198 1.367 . S
C199 C201 1.433 . S
C200 C196 1.350 . S
C200 C197 1.463 . S
C200 N204 1.427 . S
C201 H191 0.929 1_554 S
C201 C199 1.433 . S
C201 N204 1.384 . S
C202 H193 0.929 . S
C202 C194 1.378 . S
C202 C197 1.350 . S
C203 H190 0.929 . S
C203 C195 1.433 . S
C203 N205 1.384 . S
N204 C200 1.427 . S
N204 C201 1.384 . S
N205 C197 1.427 . S
N205 C203 1.384 . S
H206 C212 0.930 . S
H207 C216 0.930 . S
H208 C221 0.929 . S
H209 C219 0.929 . S
H210 C214 0.929 . S
H211 C220 0.929 . S
C212 H206 0.930 . S
C212 C213 1.367 . S
C212 C220 1.378 . S
C213 C212 1.367 . S
C213 C221 1.433 . S
C214 H210 0.929 . S
C214 C216 1.378 . S
C214 C218 1.350 . S
C215 C218 1.463 . S
C215 C220 1.350 . S
C215 N223 1.427 . S
C216 H207 0.930 . S
C216 C214 1.378 . S
C216 C217 1.367 . S
C217 C216 1.367 . S
C217 C219 1.433 . S
C218 C214 1.350 . S
C218 C215 1.463 . S
C218 N222 1.427 . S
C219 H209 0.929 . S
C219 C217 1.433 . S
C219 N222 1.384 . S
C220 H211 0.929 . S
C220 C212 1.378 . S
C220 C215 1.350 . S
C221 H208 0.929 . S
C221 C213 1.433 . S
C221 N223 1.384 . S
N222 C218 1.427 . S
N222 C219 1.384 . S
N223 C215 1.427 . S
N223 C221 1.384 . S
H224 C230 0.930 . S
H225 C234 0.930 . S
H226 C239 0.929 . S
H227 C237 0.929 . S
H228 C232 0.929 . S
H229 C238 0.929 . S
C230 H224 0.930 . S
C230 C231 1.367 . S
C230 C238 1.378 . S
C231 C230 1.367 . S
C231 C239 1.433 1_556 S
C232 H228 0.929 . S
C232 C234 1.378 . S
C232 C236 1.350 . S
C233 C236 1.463 . S
C233 C238 1.350 1_554 S
C233 N241 1.427 . S
C234 H225 0.930 . S
C234 C232 1.378 . S
C234 C235 1.367 . S
C235 C234 1.367 . S
C235 C237 1.433 1_554 S
C236 C232 1.350 . S
C236 C233 1.463 . S
C236 N240 1.427 1_554 S
C237 H227 0.929 . S
C237 C235 1.433 1_556 S
C237 N240 1.384 . S
C238 H229 0.929 . S
C238 C230 1.378 . S
C238 C233 1.350 1_556 S
C239 H226 0.929 . S
C239 C231 1.433 1_554 S
C239 N241 1.384 . S
N240 C236 1.427 1_556 S
N240 C237 1.384 . S
N241 C233 1.427 . S
N241 C239 1.384 . S
H242 C248 0.930 . S
H243 C252 0.930 . S
H244 C257 0.929 . S
H245 C255 0.929 . S
H246 C250 0.929 . S
H247 C256 0.929 . S
C248 H242 0.930 . S
C248 C249 1.367 . S
C248 C256 1.378 . S
C249 C248 1.367 . S
C249 C257 1.433 . S
C250 H246 0.929 . S
C250 C252 1.378 . S
C250 C254 1.350 . S
C251 C254 1.463 . S
C251 C256 1.350 . S
C251 N259 1.427 . S
C252 H243 0.930 . S
C252 C250 1.378 . S
C252 C253 1.367 . S
C253 C252 1.367 . S
C253 C255 1.433 1_565 S
C254 C250 1.350 . S
C254 C251 1.463 . S
C254 N258 1.427 . S
C255 H245 0.929 . S
C255 C253 1.433 1_545 S
C255 N258 1.384 1_545 S
C256 H247 0.929 . S
C256 C248 1.378 . S
C256 C251 1.350 . S
C257 H244 0.929 . S
C257 C249 1.433 . S
C257 N259 1.384 . S
N258 C254 1.427 . S
N258 C255 1.384 1_565 S
N259 C251 1.427 . S
N259 C257 1.384 . S
H260 C266 0.930 . S
H261 C270 0.930 . S
H262 C275 0.929 . S
H263 C273 0.929 . S
H264 C268 0.929 . S
H265 C274 0.929 . S
C266 H260 0.930 . S
C266 C267 1.367 . S
C266 C274 1.378 . S
C267 C266 1.367 . S
C267 C275 1.433 . S
C268 H264 0.929 . S
C268 C270 1.378 . S
C268 C272 1.350 . S
C269 C272 1.463 . S
C269 C274 1.350 . S
C269 N277 1.427 . S
C270 H261 0.930 . S
C270 C268 1.378 . S
C270 C271 1.367 . S
C271 C270 1.367 . S
C271 C273 1.433 . S
C272 C268 1.350 . S
C272 C269 1.463 . S
C272 N276 1.427 . S
C273 H263 0.929 . S
C273 C271 1.433 . S
C273 N276 1.384 . S
C274 H265 0.929 . S
C274 C266 1.378 . S
C274 C269 1.350 . S
C275 H262 0.929 . S
C275 C267 1.433 . S
C275 N277 1.384 . S
N276 C272 1.427 . S
N276 C273 1.384 . S
N277 C269 1.427 . S
N277 C275 1.384 . S
H278 C284 0.930 . S
H279 C288 0.930 . S
H280 C293 0.929 . S
H281 C291 0.929 . S
H282 C286 0.929 . S
H283 C292 0.929 . S
C284 H278 0.930 . S
C284 C285 1.367 . S
C284 C292 1.378 . S
C285 C284 1.367 . S
C285 C293 1.433 . S
C286 H282 0.929 . S
C286 C288 1.378 . S
C286 C290 1.350 . S
C287 C290 1.463 . S
C287 C292 1.350 . S
C287 N295 1.427 . S
C288 H279 0.930 . S
C288 C286 1.378 . S
C288 C289 1.367 . S
C289 C288 1.367 . S
C289 C291 1.433 . S
C290 C286 1.350 . S
C290 C287 1.463 . S
C290 N294 1.427 . S
C291 H281 0.929 . S
C291 C289 1.433 . S
C291 N294 1.384 . S
C292 H283 0.929 . S
C292 C284 1.378 . S
C292 C287 1.350 . S
C293 H280 0.929 . S
C293 C285 1.433 . S
C293 N295 1.384 . S
N294 C290 1.427 . S
N294 C291 1.384 . S
N295 C287 1.427 . S
N295 C293 1.384 . S
H296 C302 0.930 . S
H297 C306 0.930 . S
H298 C311 0.929 . S
H299 C309 0.929 . S
H300 C304 0.929 . S
H301 C310 0.929 . S
C302 H296 0.930 . S
C302 C303 1.367 . S
C302 C310 1.378 . S
C303 C302 1.367 . S
C303 C311 1.433 . S
C304 H300 0.929 . S
C304 C306 1.378 . S
C304 C308 1.350 . S
C305 C308 1.463 . S
C305 C310 1.350 . S
C305 N313 1.427 . S
C306 H297 0.930 . S
C306 C304 1.378 . S
C306 C307 1.367 . S
C307 C306 1.367 . S
C307 C309 1.433 . S
C308 C304 1.350 . S
C308 C305 1.463 . S
C308 N312 1.427 . S
C309 H299 0.929 . S
C309 C307 1.433 . S
C309 N312 1.384 . S
C310 H301 0.929 . S
C310 C302 1.378 . S
C310 C305 1.350 . S
C311 H298 0.929 . S
C311 C303 1.433 . S
C311 N313 1.384 . S
N312 C308 1.427 . S
N312 C309 1.384 . S
N313 C305 1.427 . S
N313 C311 1.384 . S
H314 C320 0.930 . S
H315 C324 0.930 . S
H316 C329 0.929 . S
H317 C327 0.929 . S
H318 C322 0.929 . S
H319 C328 0.929 . S
C320 H314 0.930 . S
C320 C321 1.367 . S
C320 C328 1.378 . S
C321 C320 1.367 . S
C321 C329 1.433 . S
C322 H318 0.929 . S
C322 C324 1.378 . S
C322 C326 1.350 . S
C323 C326 1.463 . S
C323 C328 1.350 . S
C323 N331 1.427 . S
C324 H315 0.930 . S
C324 C322 1.378 . S
C324 C325 1.367 . S
C325 C324 1.367 . S
C325 C327 1.433 . S
C326 C322 1.350 . S
C326 C323 1.463 . S
C326 N330 1.427 . S
C327 H317 0.929 . S
C327 C325 1.433 . S
C327 N330 1.384 . S
C328 H319 0.929 . S
C328 C320 1.378 . S
C328 C323 1.350 . S
C329 H316 0.929 . S
C329 C321 1.433 . S
C329 N331 1.384 . S
N330 C326 1.427 . S
N330 C327 1.384 . S
N331 C323 1.427 . S
N331 C329 1.384 . S
H332 C338 0.930 . S
H333 C342 0.930 . S
H334 C347 0.929 . S
H335 C345 0.929 1_565 S
H336 C340 0.929 . S
H337 C346 0.929 . S
C338 H332 0.930 . S
C338 C339 1.367 . S
C338 C346 1.378 . S
C339 C338 1.367 . S
C339 C347 1.433 . S
C340 H336 0.929 . S
C340 C342 1.378 . S
C340 C344 1.350 . S
C341 C344 1.463 . S
C341 C346 1.350 . S
C341 N349 1.427 . S
C342 H333 0.930 . S
C342 C340 1.378 . S
C342 C343 1.367 . S
C343 C342 1.367 . S
C343 C345 1.433 . S
C344 C340 1.350 . S
C344 C341 1.463 . S
C344 N348 1.427 . S
C345 H335 0.929 1_545 S
C345 C343 1.433 . S
C345 N348 1.384 . S
C346 H337 0.929 . S
C346 C338 1.378 . S
C346 C341 1.350 . S
C347 H334 0.929 . S
C347 C339 1.433 . S
C347 N349 1.384 . S
N348 C344 1.427 . S
N348 C345 1.384 . S
N349 C341 1.427 . S
N349 C347 1.384 . S
H350 C356 0.930 . S
H351 C360 0.930 . S
H352 C365 0.929 . S
H353 C363 0.929 . S
H354 C358 0.929 . S
H355 C364 0.929 . S
C356 H350 0.930 . S
C356 C357 1.367 . S
C356 C364 1.378 . S
C357 C356 1.367 . S
C357 C365 1.433 . S
C358 H354 0.929 . S
C358 C360 1.378 . S
C358 C362 1.350 . S
C359 C362 1.463 . S
C359 C364 1.350 . S
C359 N367 1.427 . S
C360 H351 0.930 . S
C360 C358 1.378 . S
C360 C361 1.367 . S
C361 C360 1.367 . S
C361 C363 1.433 . S
C362 C358 1.350 . S
C362 C359 1.463 . S
C362 N366 1.427 . S
C363 H353 0.929 . S
C363 C361 1.433 . S
C363 N366 1.384 . S
C364 H355 0.929 . S
C364 C356 1.378 . S
C364 C359 1.350 . S
C365 H352 0.929 . S
C365 C357 1.433 . S
C365 N367 1.384 . S
N366 C362 1.427 . S
N366 C363 1.384 . S
N367 C359 1.427 . S
N367 C365 1.384 . S
H368 C374 0.930 . S
H369 C378 0.930 . S
H370 C383 0.929 . S
H371 C381 0.933 . S
H372 C376 0.929 . S
H373 C382 0.930 1_545 S
C374 H368 0.930 . S
C374 C375 1.367 . S
C374 C382 1.378 . S
C375 C374 1.367 . S
C375 C383 1.433 . S
C376 H372 0.929 . S
C376 C378 1.378 . S
C376 C380 1.350 . S
C377 C380 1.463 . S
C377 C382 1.350 . S
C377 N385 1.427 . S
C378 H369 0.930 . S
C378 C376 1.378 . S
C378 C379 1.367 . S
C379 C378 1.367 . S
C379 C381 1.430 1_565 S
C380 C376 1.350 . S
C380 C377 1.463 . S
C380 N384 1.427 . S
C381 H371 0.933 . S
C381 C379 1.430 1_545 S
C381 N384 1.383 1_545 S
C382 H373 0.930 1_565 S
C382 C374 1.378 . S
C382 C377 1.350 . S
C383 H370 0.929 . S
C383 C375 1.433 . S
C383 N385 1.384 . S
N384 C380 1.427 . S
N384 C381 1.383 1_565 S
N385 C377 1.427 . S
N385 C383 1.384 . S
C181 C143 1.330 . S
C177 C119 1.420 . S
C195 C23 1.505 . S
C199 C167 1.323 . S
C213 C55 1.642 . S
C217 C146 1.418 . S
C231 C87 1.555 . S
C235 C164 1.415 . S
C253 C144 1.545 . S
C249 C17 1.578 . S
C271 C166 1.533 . S
C267 C61 1.583 . S
C285 C93 1.481 . S
C289 C145 1.486 . S
C303 C113 1.472 . S
C307 C165 1.481 . S
C325 C163 1.504 . S
C321 C49 1.572 . S
C343 C142 1.529 . S
C339 C81 1.533 . S
C361 C162 1.552 . S
C357 C125 1.475 . S
C375 C29 1.571 . S
C379 C141 1.496 . S
