# Generated by pormake.
# Topology zzz, (3,6)-cn, num edge types: 1
# Building blocks:
#     Node 0, Type 0, BuildingBlock: ESEHIV_clean_linker_0, # of connection points: 3
#     Node 1, Type 0, BuildingBlock: ESEHIV_clean_linker_0, # of connection points: 3
#     Node 2, Type 0, BuildingBlock: ESEHIV_clean_linker_0, # of connection points: 3
#     Node 3, Type 0, BuildingBlock: ESEHIV_clean_linker_0, # of connection points: 3
#     Node 4, Type 0, BuildingBlock: ESEHIV_clean_linker_0, # of connection points: 3
#     Node 5, Type 0, BuildingBlock: ESEHIV_clean_linker_0, # of connection points: 3
#     Node 6, Type 0, BuildingBlock: ESEHIV_clean_linker_0, # of connection points: 3
#     Node 7, Type 0, BuildingBlock: ESEHIV_clean_linker_0, # of connection points: 3
#     Node 8, Type 1, BuildingBlock: BETGAK_clean_sbu_0, # of connection points: 6
#     Node 9, Type 1, BuildingBlock: BETGAK_clean_sbu_0, # of connection points: 6
#     Node 10, Type 1, BuildingBlock: BETGAK_clean_sbu_0, # of connection points: 6
#     Node 11, Type 1, BuildingBlock: BETGAK_clean_sbu_0, # of connection points: 6
#     Edge 12, Type (0, 1), BuildingBlock: MIFKUJ_clean_linker_0, # of connection points: 2
#     Edge 13, Type (0, 1), BuildingBlock: MIFKUJ_clean_linker_0, # of connection points: 2
#     Edge 14, Type (0, 1), BuildingBlock: MIFKUJ_clean_linker_0, # of connection points: 2
#     Edge 15, Type (0, 1), BuildingBlock: MIFKUJ_clean_linker_0, # of connection points: 2
#     Edge 16, Type (0, 1), BuildingBlock: MIFKUJ_clean_linker_0, # of connection points: 2
#     Edge 17, Type (0, 1), BuildingBlock: MIFKUJ_clean_linker_0, # of connection points: 2
#     Edge 18, Type (0, 1), BuildingBlock: MIFKUJ_clean_linker_0, # of connection points: 2
#     Edge 19, Type (0, 1), BuildingBlock: MIFKUJ_clean_linker_0, # of connection points: 2
#     Edge 20, Type (0, 1), BuildingBlock: MIFKUJ_clean_linker_0, # of connection points: 2
#     Edge 21, Type (0, 1), BuildingBlock: MIFKUJ_clean_linker_0, # of connection points: 2
#     Edge 22, Type (0, 1), BuildingBlock: MIFKUJ_clean_linker_0, # of connection points: 2
#     Edge 23, Type (0, 1), BuildingBlock: MIFKUJ_clean_linker_0, # of connection points: 2
#     Edge 24, Type (0, 1), BuildingBlock: MIFKUJ_clean_linker_0, # of connection points: 2
#     Edge 25, Type (0, 1), BuildingBlock: MIFKUJ_clean_linker_0, # of connection points: 2
#     Edge 26, Type (0, 1), BuildingBlock: MIFKUJ_clean_linker_0, # of connection points: 2
#     Edge 27, Type (0, 1), BuildingBlock: MIFKUJ_clean_linker_0, # of connection points: 2
#     Edge 28, Type (0, 1), BuildingBlock: MIFKUJ_clean_linker_0, # of connection points: 2
#     Edge 29, Type (0, 1), BuildingBlock: MIFKUJ_clean_linker_0, # of connection points: 2
#     Edge 30, Type (0, 1), BuildingBlock: MIFKUJ_clean_linker_0, # of connection points: 2
#     Edge 31, Type (0, 1), BuildingBlock: MIFKUJ_clean_linker_0, # of connection points: 2
#     Edge 32, Type (0, 1), BuildingBlock: MIFKUJ_clean_linker_0, # of connection points: 2
#     Edge 33, Type (0, 1), BuildingBlock: MIFKUJ_clean_linker_0, # of connection points: 2
#     Edge 34, Type (0, 1), BuildingBlock: MIFKUJ_clean_linker_0, # of connection points: 2
#     Edge 35, Type (0, 1), BuildingBlock: MIFKUJ_clean_linker_0, # of connection points: 2
# Relax obj value: 0.449
# Max RMSD: 0.268
# Mean RMSD: 0.253
data_MOF--net-zzz--node1-BETGAK_clean_sbu_0--node2-ESEHIV_clean_linker_0--edge1-MIFKUJ_clean_linker_0
_symmetry_space_group_name_H-M    P1
_symmetry_Int_Tables_number       1
_symmetry_cell_setting            triclinic
loop_
_symmetry_equiv_pos_as_xyz
'x, y, z'
_cell_length_a     61.189185
_cell_length_b     61.181502
_cell_length_c     18.770833
_cell_angle_alpha  89.912093
_cell_angle_beta   90.015689
_cell_angle_gamma 89.985848
loop_
_atom_site_label
_atom_site_type_symbol
_atom_site_fract_x
_atom_site_fract_y
_atom_site_fract_z
_atom_type_partial_charge
H0 H 0.78973 0.49403 0.25847 0.0
H1 H 0.73212 0.49509 0.12811 0.0
H2 H 0.73219 0.52752 0.33239 0.0
C3 C 0.77291 0.49907 0.2501 0.0
C4 C 0.76248 0.5114 0.30269 0.0
C5 C 0.76224 0.49333 0.18693 0.0
C6 C 0.74042 0.49943 0.17715 0.0
C7 C 0.72933 0.51164 0.22916 0.0
C8 C 0.74045 0.51781 0.29241 0.0
H9 H 0.00645 0.78125 0.21339 0.0
H10 H 0.99914 0.71821 0.1184 0.0
H11 H 0.99982 0.72422 0.34749 0.0
C12 C 1.00368 0.76382 0.21949 0.0
C13 C 1.00271 0.7547 0.2881 0.0
C14 C 1.00266 0.75072 0.15871 0.0
C15 C 0.99957 0.7283 0.16588 0.0
C16 C 0.99837 0.71847 0.23314 0.0
C17 C 1.0 0.7317 0.29517 0.0
H18 H 0.73062 0.02463 0.21243 0.0
H19 H 0.7923 0.01924 0.10623 0.0
H20 H 0.78513 0.99454 0.32062 0.0
C21 C 0.74758 0.01945 0.21311 0.0
C22 C 0.7561 0.00944 0.27443 0.0
C23 C 0.76047 0.02293 0.1526 0.0
C24 C 0.78233 0.01655 0.15324 0.0
C25 C 0.79141 0.00623 0.21306 0.0
C26 C 0.77822 1.00243 0.27408 0.0
H27 H 0.45701 0.73849 0.27086 0.0
H28 H 0.5103 0.78244 0.31695 0.0
H29 H 0.46507 0.79642 0.14611 0.0
C30 C 0.46567 0.75365 0.26118 0.0
C31 C 0.45896 0.76698 0.20479 0.0
C32 C 0.48422 0.75873 0.30196 0.0
C33 C 0.49597 0.77816 0.28614 0.0
C34 C 0.48856 0.79226 0.23101 0.0
C35 C 0.47032 0.7862 0.19023 0.0
H36 H 0.23423 0.5405 0.13331 0.0
H37 H 0.29404 0.54754 0.25136 0.0
H38 H 0.28507 0.4926 0.11056 0.0
C39 C 0.25066 0.53509 0.14598 0.0
C40 C 0.2584 0.51596 0.11392 0.0
C41 C 0.2632 0.54658 0.19601 0.0
C42 C 0.28413 0.53879 0.21296 0.0
C43 C 0.29217 0.5193 0.18325 0.0
C44 C 0.27913 0.50769 0.13364 0.0
H45 H 0.98114 0.22818 0.17177 0.0
H46 H 0.97996 0.28991 0.27915 0.0
H47 H 0.01641 0.28289 0.08348 0.0
C48 C 0.98602 0.24522 0.17419 0.0
C49 C 0.99929 0.25385 0.12025 0.0
C50 C 0.97908 0.25811 0.23136 0.0
C51 C 0.98508 0.28009 0.23404 0.0
C52 C 0.99855 0.28933 0.18146 0.0
C53 C 0.00588 0.27606 0.12418 0.0
H54 H 0.2836 0.96869 0.15203 0.0
H55 H 0.22039 0.96562 0.25072 0.0
H56 H 0.23341 0.0141 0.08904 0.0
C57 C 0.26687 0.97442 0.15603 0.0
C58 C 0.26015 0.99194 0.11304 0.0
C59 C 0.25272 0.96487 0.20589 0.0
C60 C 0.23136 0.97282 0.21179 0.0
C61 C 0.22414 0.99052 0.17031 0.0
C62 C 0.23866 1.00022 0.12059 0.0
H63 H 0.52524 0.28377 0.1951 0.0
H64 H 0.50478 0.22902 0.06635 0.0
H65 H 0.52166 0.21985 0.28757 0.0
C66 C 0.52181 0.26646 0.18952 0.0
C67 C 0.52411 0.25272 0.24878 0.0
C68 C 0.51476 0.25831 0.12339 0.0
C69 C 0.50996 0.23567 0.11705 0.0
C70 C 0.51286 0.22164 0.1766 0.0
C71 C 0.51951 0.23053 0.24185 0.0
La72 La 0.02569 1.00061 0.74471 0.0
La73 La 0.99173 0.01088 0.65142 0.0
C74 C 0.05217 0.98218 0.82804 0.0
C75 C 0.06405 0.96165 0.81773 0.0
C76 C 0.06537 0.95251 0.74923 0.0
C77 C 0.07214 0.93093 0.74046 0.0
C78 C 0.07793 0.91834 0.80002 0.0
C79 C 0.07849 0.92817 0.86772 0.0
C80 C 0.07142 0.9497 0.87658 0.0
C81 C 0.0404 0.01652 0.62174 0.0
C82 C 0.00762 0.96356 0.63987 0.0
C83 C 0.96479 0.02758 0.56512 0.0
C84 C 0.9501 0.04647 0.56861 0.0
C85 C 0.93533 0.05044 0.51331 0.0
C86 C 0.92313 0.06975 0.51241 0.0
C87 C 0.92609 0.08571 0.56574 0.0
C88 C 0.93974 0.08074 0.62393 0.0
C89 C 0.95136 0.06112 0.62574 0.0
C90 C 0.97732 0.99515 0.77521 0.0
C91 C 0.01024 0.04812 0.75571 0.0
O92 O 0.0576 0.99799 0.78491 0.0
O93 O 0.03097 0.98005 0.83283 0.0
O94 O 0.04722 0.02205 0.68416 0.0
O95 O 0.02518 1.00276 0.62937 0.0
O96 O 0.0164 0.96789 0.70274 0.0
O97 O 0.99957 0.97975 0.60181 0.0
O98 O 0.96008 0.01155 0.60817 0.0
O99 O 0.98569 0.03208 0.56558 0.0
O100 O 0.97032 0.98945 0.71319 0.0
O101 O 0.99237 0.00898 0.76663 0.0
O102 O 1.00052 0.04362 0.69431 0.0
O103 O 0.01907 0.03214 0.79303 0.0
H104 H 0.05984 0.96159 0.703 0.0
H105 H 0.07146 0.92365 0.68792 0.0
H106 H 0.08258 0.91865 0.9146 0.0
H107 H 0.07042 0.95651 0.92973 0.0
H108 H 0.93372 0.03897 0.46971 0.0
H109 H 0.91216 0.07257 0.46809 0.0
H110 H 0.94257 0.09246 0.6661 0.0
H111 H 0.962 0.05779 0.67037 0.0
La112 La 0.51295 0.0184 0.73479 0.0
La113 La 0.5004 0.98744 0.63332 0.0
C114 C 0.53447 0.04096 0.82148 0.0
C115 C 0.55634 0.05075 0.81077 0.0
C116 C 0.55865 0.0715 0.77897 0.0
C117 C 0.57931 0.07936 0.75981 0.0
C118 C 0.59801 0.06658 0.77178 0.0
C119 C 0.59569 0.04614 0.80538 0.0
C120 C 0.57517 0.03837 0.82486 0.0
C121 C 0.49788 0.03703 0.61639 0.0
C122 C 0.54864 1.00075 0.6262 0.0
C123 C 0.48215 0.96385 0.54053 0.0
C124 C 0.46342 0.94881 0.5414 0.0
C125 C 0.46397 0.92968 0.50049 0.0
C126 C 0.44597 0.91559 0.49947 0.0
C127 C 0.42707 0.92051 0.53908 0.0
C128 C 0.42705 0.93931 0.58231 0.0
C129 C 0.44508 0.95319 0.58372 0.0
C130 C 0.51522 0.96925 0.75331 0.0
C131 C 0.46456 0.00596 0.74356 0.0
O132 O 0.5188 0.04894 0.78208 0.0
O133 O 0.53374 0.01959 0.82372 0.0
O134 O 0.49353 0.04313 0.6806 0.0
O135 O 0.51044 0.02065 0.6195 0.0
O136 O 0.54478 0.00763 0.69156 0.0
O137 O 0.53201 0.99518 0.58549 0.0
O138 O 0.49894 0.95763 0.57811 0.0
O139 O 0.47784 0.98462 0.54949 0.0
O140 O 0.52007 0.96298 0.68974 0.0
O141 O 0.50242 0.9853 0.74825 0.0
O142 O 0.46833 0.99722 0.67999 0.0
O143 O 0.48111 0.01294 0.78227 0.0
H144 H 0.54446 0.08148 0.76744 0.0
H145 H 0.58063 0.09529 0.73497 0.0
H146 H 0.60985 0.03621 0.81794 0.0
H147 H 0.57405 0.02241 0.84968 0.0
H148 H 0.47818 0.92582 0.46847 0.0
H149 H 0.44667 0.90113 0.46635 0.0
H150 H 0.41274 0.94397 0.6126 0.0
H151 H 0.44444 0.96764 0.61657 0.0
La152 La 0.49053 0.51551 0.7804 0.0
La153 La 0.52207 0.50538 0.67594 0.0
C154 C 0.46767 0.53197 0.87829 0.0
C155 C 0.45212 0.5501 0.88057 0.0
C156 C 0.44258 0.55609 0.94535 0.0
C157 C 0.42917 0.57451 0.9489 0.0
C158 C 0.42527 0.58724 0.88768 0.0
C159 C 0.43412 0.58056 0.82217 0.0
C160 C 0.44736 0.56202 0.81859 0.0
C161 C 0.47259 0.50019 0.66139 0.0
C162 C 0.50647 0.55323 0.67147 0.0
C163 C 0.54519 0.48617 0.58471 0.0
C164 C 0.55144 0.46293 0.58247 0.0
C165 C 0.57362 0.45699 0.58488 0.0
C166 C 0.57962 0.43519 0.59646 0.0
C167 C 0.56348 0.41921 0.6068 0.0
C168 C 0.54139 0.42504 0.60137 0.0
C169 C 0.5354 0.44664 0.58909 0.0
C170 C 0.53953 0.52135 0.79453 0.0
C171 C 0.50599 0.46804 0.78214 0.0
O172 O 0.46159 0.51522 0.8402 0.0
O173 O 0.48799 0.53743 0.86588 0.0
O174 O 0.46658 0.49517 0.72525 0.0
O175 O 0.48818 0.51362 0.66561 0.0
O176 O 0.49631 0.54823 0.73185 0.0
O177 O 0.51654 0.53797 0.63437 0.0
O178 O 0.55328 0.4969 0.63855 0.0
O179 O 0.52448 0.49066 0.5751 0.0
O180 O 0.54501 0.52694 0.73054 0.0
O181 O 0.52438 0.50739 0.79062 0.0
O182 O 0.51222 0.47273 0.71646 0.0
O183 O 0.50013 0.48405 0.82475 0.0
H184 H 0.44604 0.54693 0.99352 0.0
H185 H 0.42281 0.57945 1.00028 0.0
H186 H 0.4313 0.59003 0.77421 0.0
H187 H 0.45435 0.55732 0.7679 0.0
H188 H 0.58626 0.46931 0.58041 0.0
H189 H 0.59678 0.43091 0.59923 0.0
H190 H 0.52869 0.41282 0.60697 0.0
H191 H 0.51816 0.45063 0.58746 0.0
La192 La 1.0038 0.48934 0.75759 0.0
La193 La 0.01893 0.52 0.65186 0.0
C194 C 0.99521 0.46659 0.86608 0.0
C195 C 0.97772 0.45133 0.88701 0.0
C196 C 0.97328 0.43227 0.8477 0.0
C197 C 0.9554 0.4191 0.8652 0.0
C198 C 0.94157 0.42482 0.92198 0.0
C199 C 0.94666 0.44343 0.96284 0.0
C200 C 0.96461 0.45642 0.9458 0.0
C201 C 0.0063 0.47202 0.62865 0.0
C202 C 0.96785 0.50891 0.66091 0.0
C203 C 0.02808 0.54343 0.54543 0.0
C204 C 0.04623 0.55832 0.52996 0.0
C205 C 0.04435 0.57384 0.47535 0.0
C206 C 0.06174 0.58796 0.4604 0.0
C207 C 0.08125 0.58671 0.49995 0.0
C208 C 0.08276 0.5714 0.55581 0.0
C209 C 0.06537 0.55744 0.57087 0.0
C210 C 0.01637 0.53707 0.78144 0.0
C211 C 0.05489 0.50044 0.74769 0.0
O212 O 0.0083 0.46028 0.81505 0.0
O213 O 0.98946 0.4871 0.85904 0.0
O214 O 0.99129 0.46771 0.675 0.0
O215 O 0.02002 0.485 0.6561 0.0
O216 O 0.97135 0.49953 0.7233 0.0
O217 O 0.98439 0.51575 0.62131 0.0
O218 O 0.01522 0.54968 0.597 0.0
O219 O 0.03314 0.52269 0.55044 0.0
O220 O 0.03153 0.54126 0.73554 0.0
O221 O 1.00264 0.52428 0.75325 0.0
O222 O 0.05132 0.50929 0.68464 0.0
O223 O 0.03832 0.49403 0.78791 0.0
H224 H 0.98322 0.42783 0.80223 0.0
H225 H 0.95203 0.40483 0.833 0.0
H226 H 0.93616 0.44868 0.00597 0.0
H227 H 0.96777 0.47096 0.97705 0.0
H228 H 0.02953 0.57489 0.44393 0.0
H229 H 0.06002 0.59964 0.41736 0.0
H230 H 0.09767 0.56961 0.58636 0.0
H231 H 0.067 0.54569 0.61377 0.0
H232 H 0.21334 0.02965 0.23041 0.0
H233 H 0.17887 0.03819 0.29135 0.0
H234 H 0.15085 0.97823 0.21276 0.0
H235 H 0.18526 0.96974 0.15202 0.0
H236 H 0.11954 0.01115 0.22273 0.0
H237 H 0.17462 0.97789 0.36939 0.0
H238 H 0.2113 0.97448 0.4226 0.0
H239 H 0.2037 0.03697 0.52345 0.0
H240 H 0.16705 0.0409 0.4699 0.0
H241 H 0.0417 0.98988 0.50336 0.0
H242 H 0.07015 0.98899 0.4111 0.0
H243 H 0.10132 0.04487 0.50741 0.0
H244 H 0.0733 0.04544 0.60011 0.0
H245 H 0.13058 0.01502 0.48421 0.0
H246 H 0.07356 0.04686 0.34168 0.0
H247 H 0.03689 0.04917 0.28764 0.0
H248 H 0.04767 0.9883 0.1796 0.0
H249 H 0.08431 0.98548 0.23379 0.0
C250 C 0.1995 0.01882 0.22356 0.0
C251 C 0.20191 0.99915 0.18584 0.0
C252 C 0.17986 0.02355 0.25911 0.0
C253 C 0.16229 0.00868 0.25768 0.0
C254 C 0.16408 0.98998 0.2148 0.0
C255 C 0.18373 0.98518 0.17974 0.0
C256 C 0.1433 0.01116 0.30728 0.0
C257 C 0.12192 0.0119 0.27993 0.0
C258 C 0.14629 0.01222 0.38204 0.0
C259 C 0.1682 0.0098 0.415 0.0
C260 C 0.18084 0.99098 0.40248 0.0
C261 C 0.20162 0.98895 0.43272 0.0
C262 C 0.20986 0.00553 0.47617 0.0
C263 C 0.19731 0.02416 0.48965 0.0
C264 C 0.17653 0.0263 0.45939 0.0
C265 C 0.05438 1.00223 0.50389 0.0
C266 C 0.05524 0.01774 0.55907 0.0
C267 C 0.07068 1.00173 0.45104 0.0
C268 C 0.08801 0.01691 0.45175 0.0
C269 C 0.08829 0.03289 0.50548 0.0
C270 C 0.07217 0.03328 0.55837 0.0
C271 C 0.10664 0.01543 0.39994 0.0
C272 C 0.12806 0.0146 0.42702 0.0
C273 C 0.1036 0.01417 0.32509 0.0
C274 C 0.0816 0.01586 0.29234 0.0
C275 C 0.06805 0.03388 0.30684 0.0
C276 C 0.04728 0.0353 0.2761 0.0
C277 C 0.03994 0.01887 0.23036 0.0
C278 C 0.05337 1.00101 0.21512 0.0
C279 C 0.07415 0.9995 0.24577 0.0
H280 H 0.02385 0.02 0.20661 0.0
H281 H 0.22596 1.00392 0.49955 0.0
H282 H 0.47486 0.19799 0.16456 0.0
H283 H 0.46951 0.16096 0.21212 0.0
H284 H 0.53906 0.15516 0.24578 0.0
H285 H 0.54436 0.19119 0.1937 0.0
H286 H 0.52598 0.11713 0.23533 0.0
H287 H 0.5008 0.17762 0.3744 0.0
H288 H 0.47903 0.21058 0.40055 0.0
H289 H 0.41979 0.17365 0.37692 0.0
H290 H 0.44125 0.14052 0.34961 0.0
H291 H 0.49511 0.08121 0.6246 0.0
H292 H 0.49606 0.10785 0.52871 0.0
H293 H 0.4988 0.0556 0.37447 0.0
H294 H 0.49956 0.02872 0.4721 0.0
H295 H 0.47245 0.11989 0.43324 0.0
H296 H 0.5213 0.07292 0.21778 0.0
H297 H 0.54951 0.04417 0.21002 0.0
H298 H 0.57256 0.06083 0.4191 0.0
H299 H 0.54472 0.08989 0.4276 0.0
C300 C 0.48904 0.18824 0.17823 0.0
C301 C 0.51003 0.19748 0.17524 0.0
C302 C 0.48598 0.16721 0.20702 0.0
C303 C 0.50378 0.1554 0.23573 0.0
C304 C 0.52493 0.16373 0.22502 0.0
C305 C 0.52801 0.18441 0.19467 0.0
C306 C 0.5005 0.13616 0.28465 0.0
C307 C 0.51412 0.11769 0.27822 0.0
C308 C 0.48556 0.13686 0.34244 0.0
C309 C 0.4726 0.15669 0.35908 0.0
C310 C 0.48312 0.17657 0.3744 0.0
C311 C 0.47085 0.19528 0.38942 0.0
C312 C 0.44804 0.19423 0.39018 0.0
C313 C 0.43746 0.17445 0.37611 0.0
C314 C 0.44966 0.15571 0.36082 0.0
C315 C 0.49595 0.07532 0.57028 0.0
C316 C 0.49731 0.05281 0.55602 0.0
C317 C 0.49638 0.09066 0.51504 0.0
C318 C 0.49765 0.08403 0.44341 0.0
C319 C 0.49836 0.0614 0.4289 0.0
C320 C 0.4986 0.04597 0.4847 0.0
C321 C 0.49836 0.10106 0.38539 0.0
C322 C 0.48415 0.1191 0.3899 0.0
C323 C 0.51373 0.10056 0.3287 0.0
C324 C 0.53073 0.08335 0.32365 0.0
C325 C 0.53244 0.07048 0.26197 0.0
C326 C 0.54836 0.05414 0.25745 0.0
C327 C 0.56275 0.05061 0.31416 0.0
C328 C 0.56135 0.06352 0.37533 0.0
C329 C 0.5455 0.07992 0.38002 0.0
H330 H 0.57503 0.03792 0.31063 0.0
H331 H 0.43856 0.20872 0.40186 0.0
H332 H 0.33196 0.53859 0.16734 0.0
H333 H 0.36519 0.53105 0.23607 0.0
H334 H 0.33359 0.47561 0.33376 0.0
H335 H 0.30034 0.48309 0.26424 0.0
H336 H 0.35017 0.50436 0.43229 0.0
H337 H 0.37707 0.46801 0.22329 0.0
H338 H 0.3862 0.46438 0.0959 0.0
H339 H 0.43008 0.51894 0.11127 0.0
H340 H 0.42106 0.52302 0.23869 0.0
H341 H 0.43823 0.47239 0.64774 0.0
H342 H 0.41025 0.47191 0.55481 0.0
H343 H 0.44376 0.52382 0.44397 0.0
H344 H 0.47221 0.52395 0.53652 0.0
H345 H 0.42667 0.49593 0.34923 0.0
H346 H 0.39949 0.53431 0.55131 0.0
H347 H 0.39065 0.54022 0.67797 0.0
H348 H 0.34691 0.48535 0.67413 0.0
H349 H 0.35577 0.4789 0.54763 0.0
C350 C 0.33243 0.5243 0.20146 0.0
C351 C 0.31368 0.51121 0.20953 0.0
C352 C 0.35141 0.52005 0.24103 0.0
C353 C 0.35202 0.50273 0.29029 0.0
C354 C 0.33361 0.48903 0.29604 0.0
C355 C 0.31468 0.49314 0.25572 0.0
C356 C 0.37089 0.50037 0.3406 0.0
C357 C 0.36684 0.50205 0.41405 0.0
C358 C 0.39282 0.49832 0.31706 0.0
C359 C 0.39824 0.49593 0.24043 0.0
C360 C 0.38854 0.47935 0.1994 0.0
C361 C 0.39373 0.47717 0.12722 0.0
C362 C 0.40867 0.49145 0.09548 0.0
C363 C 0.4185 0.50789 0.13593 0.0
C364 C 0.41338 0.51012 0.20816 0.0
C365 C 0.43981 0.48352 0.60309 0.0
C366 C 0.45735 0.49833 0.59986 0.0
C367 C 0.42371 0.48332 0.55004 0.0
C368 C 0.4245 0.49817 0.49281 0.0
C369 C 0.44263 0.51227 0.48757 0.0
C370 C 0.4589 0.51234 0.54055 0.0
C371 C 0.40587 0.49962 0.44097 0.0
C372 C 0.40997 0.49799 0.36743 0.0
C373 C 0.38395 0.5021 0.4642 0.0
C374 C 0.37847 0.50598 0.54018 0.0
C375 C 0.38811 0.5234 0.57761 0.0
C376 C 0.38308 0.52686 0.64936 0.0
C377 C 0.36827 0.51313 0.68412 0.0
C378 C 0.35841 0.49595 0.64715 0.0
C379 C 0.36342 0.49239 0.57541 0.0
H380 H 0.36439 0.51584 0.73967 0.0
H381 H 0.41267 0.48974 0.0396 0.0
H382 H 0.9716 0.32442 0.18442 0.0
H383 H 0.9789 0.35963 0.23986 0.0
H384 H 0.0468 0.34203 0.2639 0.0
H385 H 0.03917 0.30622 0.2099 0.0
H386 H 0.03333 0.35603 0.38415 0.0
H387 H 0.02855 0.3862 0.15449 0.0
H388 H 0.01436 0.39304 0.03364 0.0
H389 H 0.95562 0.42023 0.1217 0.0
H390 H 0.96923 0.41315 0.24322 0.0
H391 H 0.0449 0.46035 0.56234 0.0
H392 H 0.04941 0.43334 0.466 0.0
H393 H 0.97948 0.42565 0.45423 0.0
H394 H 0.97499 0.45202 0.55103 0.0
H395 H 1.00117 0.42755 0.31667 0.0
H396 H 0.00638 0.39038 0.54695 0.0
H397 H 0.02299 0.38455 0.66521 0.0
H398 H 0.08525 0.37249 0.56733 0.0
H399 H 0.06904 0.37856 0.44846 0.0
C400 C 0.98828 0.32842 0.19881 0.0
C401 C 1.00487 0.31265 0.19168 0.0
C402 C 0.99248 0.34863 0.23086 0.0
C403 C 0.01349 0.35383 0.25618 0.0
C404 C 0.03044 0.33858 0.24501 0.0
C405 C 0.02618 0.31821 0.21304 0.0
C406 C 0.0169 0.37396 0.30078 0.0
C407 C 0.02677 0.37177 0.3682 0.0
C408 C 0.00829 0.39468 0.28115 0.0
C409 C 0.99988 0.39897 0.20815 0.0
C410 C 0.01252 0.39345 0.14818 0.0
C411 C 1.00458 0.39739 0.07952 0.0
C412 C 0.98407 0.40698 0.07001 0.0
C413 C 0.97148 0.41273 0.12916 0.0
C414 C 0.97931 0.40878 0.19799 0.0
C415 C 0.03052 0.45314 0.53828 0.0
C416 C 0.00958 0.45825 0.56429 0.0
C417 C 0.0331 0.43765 0.48343 0.0
C418 C 0.01477 0.42737 0.45281 0.0
C419 C 0.99387 0.43335 0.47661 0.0
C420 C 0.99132 0.4484 0.53213 0.0
C421 C 0.01707 0.40928 0.39974 0.0
C422 C 0.00815 0.41187 0.33125 0.0
C423 C 0.02693 0.38907 0.41765 0.0
C424 C 0.03657 0.38519 0.48897 0.0
C425 C 0.02365 0.38666 0.55071 0.0
C426 C 0.03298 0.38328 0.61783 0.0
C427 C 0.05518 0.37822 0.6238 0.0
C428 C 0.06807 0.37645 0.56263 0.0
C429 C 0.05882 0.37986 0.49539 0.0
H430 H 0.06238 0.37562 0.67581 0.0
H431 H 0.97799 0.40995 0.01679 0.0
H432 H 0.8266 0.03162 0.24204 0.0
H433 H 0.86277 0.02776 0.18747 0.0
H434 H 0.84445 0.96447 0.10638 0.0
H435 H 0.8083 0.96833 0.16152 0.0
H436 H 0.88856 0.96594 0.13693 0.0
H437 H 0.83635 0.00805 0.00611 0.0
H438 H 0.80915 0.03725 0.9875 0.0
H439 H 0.85805 0.08582 0.03041 0.0
H440 H 0.8855 0.05686 0.05018 0.0
H441 H 0.94736 0.96377 0.80619 0.0
H442 H 0.92008 0.9638 0.90177 0.0
H443 H 0.94628 0.02446 0.98114 0.0
H444 H 0.97397 0.02426 0.88617 0.0
H445 H 0.90031 0.02498 0.95938 0.0
H446 H 0.95364 0.98037 0.07719 0.0
H447 H 0.97945 0.94962 0.0888 0.0
H448 H 0.92684 0.90398 0.06116 0.0
H449 H 0.90074 0.93448 0.0483 0.0
C450 C 0.83073 0.01639 0.2159 0.0
C451 C 0.8148 1.00007 0.20739 0.0
C452 C 0.8513 0.01433 0.18366 0.0
C453 C 0.85627 0.99599 0.1415 0.0
C454 C 0.84109 0.97877 0.13853 0.0
C455 C 0.82048 0.98086 0.17075 0.0
C456 C 0.87588 0.99599 0.09377 0.0
C457 C 0.89107 0.9788 0.09795 0.0
C458 C 0.87933 0.0128 0.04281 0.0
C459 C 0.86292 0.03028 0.03054 0.0
C460 C 0.84127 0.02495 0.01217 0.0
C461 C 0.82581 0.04146 1.00132 0.0
C462 C 0.83184 0.06337 0.0081 0.0
C463 C 0.85338 0.06883 0.0254 0.0
C464 C 0.86891 0.05238 0.03639 0.0
C465 C 0.94758 0.97689 0.84488 0.0
C466 C 0.96289 0.99394 0.83883 0.0
C467 C 0.93197 0.97689 0.89953 0.0
C468 C 0.93109 0.9941 0.94895 0.0
C469 C 0.94664 0.01097 0.94384 0.0
C470 C 0.96255 0.01077 0.88981 0.0
C471 C 0.91311 0.99503 1.00287 0.0
C472 C 0.89805 0.01232 0.99923 0.0
C473 C 0.90962 0.97811 0.05331 0.0
C474 C 0.92526 0.95973 0.06116 0.0
C475 C 0.94759 0.96378 0.07296 0.0
C476 C 0.96227 0.9464 0.07989 0.0
C477 C 0.9548 0.92486 0.07556 0.0
C478 C 0.93261 0.92067 0.06444 0.0
C479 C 0.91786 0.93801 0.0574 0.0
H480 H 0.96619 0.91143 0.08096 0.0
H481 H 0.81985 0.07613 0.99972 0.0
H482 H 0.52713 0.79958 0.1605 0.0
H483 H 0.53647 0.83303 0.09404 0.0
H484 H 0.48077 0.86565 0.18588 0.0
H485 H 0.47167 0.83249 0.25255 0.0
H486 H 0.47992 0.8638 0.03724 0.0
H487 H 0.52959 0.88468 0.22293 0.0
H488 H 0.56069 0.88052 0.30541 0.0
H489 H 0.60433 0.8726 0.12825 0.0
H490 H 0.57344 0.87647 0.04464 0.0
H491 H 0.48853 0.96783 0.8708 0.0
H492 H 0.48805 0.9399 0.96498 0.0
H493 H 0.54414 0.90871 0.87042 0.0
H494 H 0.54437 0.93629 0.77532 0.0
H495 H 0.54624 0.91013 0.02188 0.0
H496 H 0.49805 0.88847 0.83667 0.0
H497 H 0.4677 0.89076 0.75074 0.0
H498 H 0.42188 0.89701 0.92268 0.0
H499 H 0.45205 0.89554 0.0097 0.0
C500 C 0.5176 0.81426 0.16922 0.0
C501 C 0.49889 0.81355 0.21264 0.0
C502 C 0.5228 0.83333 0.13068 0.0
C503 C 0.50923 0.85188 0.13447 0.0
C504 C 0.49149 0.8516 0.1819 0.0
C505 C 0.48644 0.83271 0.22068 0.0
C506 C 0.51155 0.87033 0.08261 0.0
C507 C 0.49428 0.87419 0.03488 0.0
C508 C 0.53061 0.88335 0.0774 0.0
C509 C 0.54915 0.88061 0.12753 0.0
C510 C 0.54578 0.88179 0.20155 0.0
C511 C 0.56338 0.87957 0.24851 0.0
C512 C 0.58446 0.87624 0.2221 0.0
C513 C 0.58799 0.87515 0.14864 0.0
C514 C 0.57044 0.87739 0.10144 0.0
C515 C 0.50095 0.9552 0.87069 0.0
C516 C 0.51646 0.95421 0.81551 0.0
C517 C 0.50062 0.9392 0.92443 0.0
C518 C 0.516 0.92208 0.92474 0.0
C519 C 0.53214 0.92172 0.87155 0.0
C520 C 0.53222 0.93747 0.81712 0.0
C521 C 0.51438 0.90385 0.97767 0.0
C522 C 0.53181 0.89988 0.02489 0.0
C523 C 0.49553 0.89049 0.98206 0.0
C524 C 0.47739 0.89225 0.92977 0.0
C525 C 0.48156 0.89076 0.85621 0.0
C526 C 0.46438 0.89185 0.80726 0.0
C527 C 0.44289 0.8941 0.83121 0.0
C528 C 0.43855 0.89535 0.90418 0.0
C529 C 0.4557 0.89448 0.95334 0.0
H530 H 0.42961 0.89479 0.79322 0.0
H531 H 0.59807 0.87456 0.25855 0.0
H532 H 0.7153 0.54559 0.14805 0.0
H533 H 0.67935 0.54946 0.09211 0.0
H534 H 0.65599 0.49389 0.21157 0.0
H535 H 0.69222 0.4899 0.26666 0.0
H536 H 0.6467 0.48855 0.0765 0.0
H537 H 0.63597 0.54716 0.2395 0.0
H538 H 0.64474 0.58115 0.30378 0.0
H539 H 0.64652 0.61642 0.10593 0.0
H540 H 0.63805 0.58257 0.0403 0.0
H541 H 0.54083 0.49741 0.91878 0.0
H542 H 0.5695 0.49796 0.01045 0.0
H543 H 0.60232 0.54995 0.89791 0.0
H544 H 0.57375 0.54948 0.80665 0.0
H545 H 0.60401 0.55663 0.0412 0.0
H546 H 0.61854 0.49733 0.87884 0.0
H547 H 0.60948 0.4635 0.81395 0.0
H548 H 0.60043 0.42964 0.01231 0.0
H549 H 0.60913 0.46339 0.07841 0.0
C550 C 0.70219 0.53481 0.16454 0.0
C551 C 0.70636 0.51784 0.21321 0.0
C552 C 0.68162 0.53692 0.13221 0.0
C553 C 0.6647 0.52206 0.14765 0.0
C554 C 0.66864 0.50563 0.1987 0.0
C555 C 0.68925 0.50353 0.23104 0.0
C556 C 0.64379 0.52248 0.10578 0.0
C557 C 0.63714 0.50336 0.07025 0.0
C558 C 0.63141 0.54185 0.0957 0.0
C559 C 0.63655 0.56226 0.13492 0.0
C560 C 0.6384 0.56212 0.20962 0.0
C561 C 0.64329 0.58138 0.24632 0.0
C562 C 0.64623 0.60092 0.20895 0.0
C563 C 0.64425 0.60126 0.1348 0.0
C564 C 0.63938 0.58205 0.09783 0.0
C565 C 0.55398 0.50918 0.91425 0.0
C566 C 0.55507 0.52333 0.85521 0.0
C567 C 0.57045 0.50941 0.96649 0.0
C568 C 0.58832 0.52382 0.96087 0.0
C569 C 0.5888 0.53865 0.90367 0.0
C570 C 0.57245 0.53834 0.85135 0.0
C571 C 0.60712 0.52278 0.01193 0.0
C572 C 0.61343 0.54177 0.04864 0.0
C573 C 0.6192 0.50331 0.02317 0.0
C574 C 0.61424 0.48294 0.98355 0.0
C575 C 0.61446 0.48271 0.90862 0.0
C576 C 0.60941 0.46355 0.87162 0.0
C577 C 0.60431 0.44445 0.90899 0.0
C578 C 0.60434 0.44446 0.98344 0.0
C579 C 0.60934 0.4636 0.0207 0.0
H580 H 0.6004 0.42964 0.88025 0.0
H581 H 0.65 0.61582 0.23746 0.0
H582 H 0.03303 0.69102 0.23931 0.0
H583 H 0.03456 0.65529 0.18089 0.0
H584 H 0.96458 0.65609 0.15576 0.0
H585 H 0.9631 0.692 0.21361 0.0
H586 H 0.98262 0.61233 0.17552 0.0
H587 H 0.99129 0.67554 0.02348 0.0
H588 H 0.00703 0.71032 0.98108 0.0
H589 H 0.07077 0.68102 0.97382 0.0
H590 H 0.05536 0.64602 0.01588 0.0
H591 H 0.97818 0.54586 0.85517 0.0
H592 H 0.97335 0.57248 0.95213 0.0
H593 H 0.04274 0.58508 0.95129 0.0
H594 H 0.04736 0.55932 0.85348 0.0
H595 H 0.02316 0.62161 0.94875 0.0
H596 H 0.01374 0.55687 0.09096 0.0
H597 H 0.99708 0.52162 0.1244 0.0
H598 H 0.9347 0.55289 0.14887 0.0
H599 H 0.95094 0.58829 0.11457 0.0
C600 C 0.01785 0.68298 0.22534 0.0
C601 C 0.9979 0.69416 0.23264 0.0
C602 C 0.01876 0.66268 0.19071 0.0
C603 C 0.99971 0.65306 0.16283 0.0
C604 C 0.97949 0.66308 0.17685 0.0
C605 C 0.97862 0.68351 0.21091 0.0
C606 C 1.00128 0.63458 0.11079 0.0
C607 C 0.99137 0.61435 0.12572 0.0
C608 C 0.01278 0.63704 0.04582 0.0
C609 C 0.02222 0.65827 0.02352 0.0
C610 C 0.0087 0.6766 0.01355 0.0
C611 C 0.01754 0.6963 0.98922 0.0
C612 C 0.0399 0.69789 0.97493 0.0
C613 C 0.05346 0.67977 0.98497 0.0
C614 C 0.04468 0.65998 0.00885 0.0
C615 C 0.99239 0.55411 0.87659 0.0
C616 C 0.01313 0.55061 0.84638 0.0
C617 C 0.98966 0.5693 0.93229 0.0
C618 C 0.00769 0.58096 0.95972 0.0
C619 C 0.02849 0.57659 0.93123 0.0
C620 C 0.03114 0.56175 0.87527 0.0
C621 C 0.00507 0.59889 0.01377 0.0
C622 C 0.01462 0.61928 0.99883 0.0
C623 C 0.99327 0.59643 0.07847 0.0
C624 C 0.98351 0.57519 0.09948 0.0
C625 C 0.99644 0.5562 0.10294 0.0
C626 C 0.98707 0.5362 0.12213 0.0
C627 C 0.96483 0.53501 0.13855 0.0
C628 C 0.95192 0.55383 0.13602 0.0
C629 C 0.9612 0.57388 0.11677 0.0
H630 H 0.95762 0.5195 0.15337 0.0
H631 H 0.04671 0.71313 0.95586 0.0
H632 H 0.98908 0.2209 0.30193 0.0
H633 H 0.96828 0.20301 0.39579 0.0
H634 H 0.92056 0.25496 0.39018 0.0
H635 H 0.94149 0.27302 0.29469 0.0
H636 H 0.95509 0.21538 0.53026 0.0
H637 H 0.87132 0.22713 0.41934 0.0
H638 H 0.85234 0.23844 0.30905 0.0
H639 H 0.90336 0.2096 0.18326 0.0
H640 H 0.92248 0.19799 0.29282 0.0
H641 H 0.91267 0.11583 0.66727 0.0
H642 H 0.90794 0.15524 0.64886 0.0
H643 H 0.91614 0.14614 0.42255 0.0
H644 H 0.92163 0.10762 0.44 0.0
H645 H 0.88777 0.1784 0.44666 0.0
H646 H 0.95943 0.15295 0.5429 0.0
H647 H 0.98538 0.1405 0.63507 0.0
H648 H 0.96577 0.19337 0.77103 0.0
H649 H 0.93935 0.20583 0.68014 0.0
C650 C 0.97419 0.22855 0.32074 0.0
C651 C 0.9667 0.24813 0.29059 0.0
C652 C 0.96247 0.21849 0.37502 0.0
C653 C 0.94295 0.22775 0.40018 0.0
C654 C 0.93564 0.24766 0.37162 0.0
C655 C 0.94754 0.25788 0.31724 0.0
C656 C 0.92974 0.21487 0.45098 0.0
C657 C 0.9399 0.20774 0.51373 0.0
C658 C 0.90978 0.20527 0.42994 0.0
C659 C 0.89838 0.21197 0.364 0.0
C660 C 0.87843 0.22322 0.36807 0.0
C661 C 0.86766 0.22967 0.30575 0.0
C662 C 0.87668 0.22481 0.2392 0.0
C663 C 0.89643 0.21341 0.23481 0.0
C664 C 0.90723 0.2069 0.29695 0.0
C665 C 0.91312 0.1222 0.61345 0.0
C666 C 0.91786 0.10841 0.55526 0.0
C667 C 0.9102 0.14471 0.6031 0.0
C668 C 0.91182 0.15365 0.53441 0.0
C669 C 0.91457 0.13964 0.47606 0.0
C670 C 0.91767 0.11738 0.48627 0.0
C671 C 0.91443 0.1774 0.52175 0.0
C672 C 0.90203 0.18693 0.46684 0.0
C673 C 0.93281 0.1888 0.54864 0.0
C674 C 0.94708 0.18 0.60556 0.0
C675 C 0.96032 0.16162 0.59309 0.0
C676 C 0.97517 0.15463 0.64495 0.0
C677 C 0.97718 0.16612 0.70891 0.0
C678 C 0.96413 0.18445 0.72155 0.0
C679 C 0.94913 0.19139 0.67012 0.0
H680 H 0.98895 0.16096 0.7485 0.0
H681 H 0.86833 0.22983 0.19103 0.0
H682 H 0.27979 0.93037 0.17711 0.0
H683 H 0.30029 0.90882 0.26325 0.0
H684 H 0.26474 0.9393 0.43511 0.0
H685 H 0.24507 0.96185 0.34921 0.0
H686 H 0.30556 0.94598 0.4513 0.0
H687 H 0.26487 0.882 0.41152 0.0
H688 H 0.24522 0.85359 0.34412 0.0
H689 H 0.30499 0.83462 0.24163 0.0
H690 H 0.32498 0.86312 0.30751 0.0
H691 H 0.39541 0.91056 0.63784 0.0
H692 H 0.35713 0.90285 0.61058 0.0
H693 H 0.37373 0.89414 0.3893 0.0
H694 H 0.41159 0.90277 0.41515 0.0
H695 H 0.33475 0.8705 0.43468 0.0
H696 H 0.36947 0.94272 0.43976 0.0
H697 H 0.38983 0.97238 0.49867 0.0
H698 H 0.33976 0.97734 0.65789 0.0
H699 H 0.31965 0.94683 0.602 0.0
C700 C 0.27605 0.9322 0.23319 0.0
C701 C 0.26113 0.94814 0.25632 0.0
C702 C 0.28753 0.91956 0.28251 0.0
C703 C 0.28405 0.92235 0.35591 0.0
C704 C 0.26768 0.93681 0.37878 0.0
C705 C 0.25636 0.94965 0.32947 0.0
C706 C 0.30044 0.91382 0.4072 0.0
C707 C 0.31131 0.9292 0.44979 0.0
C708 C 0.30831 0.89206 0.40438 0.0
C709 C 0.29644 0.87477 0.36457 0.0
C710 C 0.27383 0.87186 0.37432 0.0
C711 C 0.26262 0.85572 0.33639 0.0
C712 C 0.27385 0.84231 0.28863 0.0
C713 C 0.29632 0.845 0.27875 0.0
C714 C 0.30761 0.86112 0.31653 0.0
C715 C 0.39101 0.9064 0.58374 0.0
C716 C 0.40641 0.90817 0.52832 0.0
C717 C 0.36918 0.90168 0.56849 0.0
C718 C 0.36262 0.8984 0.49774 0.0
C719 C 0.37851 0.89667 0.44427 0.0
C720 C 0.40026 0.90169 0.45928 0.0
C721 C 0.33985 0.90284 0.47609 0.0
C722 C 0.32807 0.88687 0.43881 0.0
C723 C 0.33108 0.92413 0.48311 0.0
C724 C 0.34332 0.94218 0.51766 0.0
C725 C 0.36303 0.94982 0.4882 0.0
C726 C 0.37454 0.96675 0.5211 0.0
C727 C 0.36622 0.97656 0.58252 0.0
C728 C 0.34636 0.96946 0.61107 0.0
C729 C 0.33495 0.95227 0.57901 0.0
H730 H 0.37505 0.98981 0.6075 0.0
H731 H 0.26515 0.82983 0.25929 0.0
H732 H 0.55836 0.28017 0.27181 0.0
H733 H 0.57016 0.29591 0.38461 0.0
H734 H 0.51972 0.26006 0.4951 0.0
H735 H 0.50751 0.24454 0.3815 0.0
H736 H 0.51788 0.30192 0.52562 0.0
H737 H 0.57293 0.24977 0.53997 0.0
H738 H 0.60206 0.22483 0.50002 0.0
H739 H 0.64212 0.27967 0.4424 0.0
H740 H 0.61313 0.30497 0.48084 0.0
H741 H 0.54926 0.39273 0.71382 0.0
H742 H 0.54902 0.35276 0.71121 0.0
H743 H 0.5892 0.35389 0.52252 0.0
H744 H 0.58976 0.3937 0.5257 0.0
H745 H 0.59506 0.31608 0.59202 0.0
H746 H 0.52964 0.36166 0.51929 0.0
H747 H 0.49952 0.38673 0.55103 0.0
H748 H 0.47932 0.34298 0.71765 0.0
H749 H 0.50907 0.31754 0.68571 0.0
C750 C 0.54986 0.27556 0.32017 0.0
C751 C 0.53189 0.26135 0.31788 0.0
C752 C 0.55687 0.28422 0.38485 0.0
C753 C 0.5461 0.2788 0.44857 0.0
C754 C 0.52845 0.26418 0.44672 0.0
C755 C 0.52148 0.25541 0.38188 0.0
C756 C 0.55126 0.2913 0.51387 0.0
C757 C 0.53467 0.30442 0.54233 0.0
C758 C 0.57309 0.29436 0.53655 0.0
C759 C 0.5908 0.27931 0.5136 0.0
C760 C 0.58791 0.25654 0.51851 0.0
C761 C 0.60441 0.24232 0.49611 0.0
C762 C 0.62394 0.25066 0.46877 0.0
C763 C 0.627 0.27324 0.4638 0.0
C764 C 0.61055 0.28753 0.4861 0.0
C765 C 0.55877 0.38432 0.67366 0.0
C766 C 0.56913 0.3961 0.61893 0.0
C767 C 0.55874 0.36152 0.67255 0.0
C768 C 0.56864 0.35035 0.61593 0.0
C769 C 0.58136 0.36213 0.5667 0.0
C770 C 0.58163 0.38491 0.56826 0.0
C771 C 0.56196 0.32782 0.59722 0.0
C772 C 0.57818 0.31269 0.5783 0.0
C773 C 0.53976 0.32284 0.58298 0.0
C774 C 0.52169 0.33792 0.601 0.0
C775 C 0.51872 0.35743 0.56258 0.0
C776 C 0.5017 0.37165 0.58044 0.0
C777 C 0.48751 0.36645 0.6363 0.0
C778 C 0.49029 0.34698 0.67432 0.0
C779 C 0.50721 0.33265 0.65636 0.0
H780 H 0.47441 0.37753 0.65025 0.0
H781 H 0.63669 0.23962 0.45141 0.0
H782 H 0.23503 0.57792 0.14515 0.0
H783 H 0.21063 0.60024 0.21575 0.0
H784 H 0.24563 0.58196 0.40663 0.0
H785 H 0.26847 0.55749 0.33707 0.0
H786 H 0.20735 0.57274 0.4275 0.0
H787 H 0.23794 0.63849 0.346 0.0
H788 H 0.25387 0.66517 0.26234 0.0
H789 H 0.1934 0.66781 0.1466 0.0
H790 H 0.17716 0.64092 0.22883 0.0
H791 H 0.11151 0.60641 0.58673 0.0
H792 H 0.14854 0.61714 0.55238 0.0
H793 H 0.13238 0.60667 0.33152 0.0
H794 H 0.09568 0.59542 0.36515 0.0
H795 H 0.16684 0.63966 0.35746 0.0
H796 H 0.14531 0.5633 0.41767 0.0
H797 H 0.12892 0.53712 0.50237 0.0
H798 H 0.17475 0.55688 0.66321 0.0
H799 H 0.19115 0.58346 0.57957 0.0
C800 C 0.23768 0.57873 0.20213 0.0
C801 C 0.25322 0.56519 0.23549 0.0
C802 C 0.22397 0.59203 0.24257 0.0
C803 C 0.22612 0.59286 0.31707 0.0
C804 C 0.24345 0.58147 0.34937 0.0
C805 C 0.2567 0.56757 0.30919 0.0
C806 C 0.2079 0.60167 0.36108 0.0
C807 C 0.19913 0.58788 0.41378 0.0
C808 C 0.19675 0.62128 0.34342 0.0
C809 C 0.20633 0.63763 0.29377 0.0
C810 C 0.22805 0.64467 0.30253 0.0
C811 C 0.23714 0.65985 0.25534 0.0
C812 C 0.22465 0.66818 0.1992 0.0
C813 C 0.20304 0.66137 0.1902 0.0
C814 C 0.19386 0.6462 0.23724 0.0
C815 C 0.11567 0.60699 0.53067 0.0
C816 C 0.10087 0.59943 0.47882 0.0
C817 C 0.13673 0.61341 0.51115 0.0
C818 C 0.14321 0.61238 0.43957 0.0
C819 C 0.12763 0.60764 0.38704 0.0
C820 C 0.10662 0.60111 0.40649 0.0
C821 C 0.16657 0.61041 0.42097 0.0
C822 C 0.17599 0.62524 0.373 0.0
C823 C 0.17861 0.59193 0.44343 0.0
C824 C 0.16929 0.57546 0.49277 0.0
C825 C 0.15183 0.56208 0.47118 0.0
C826 C 0.14254 0.5472 0.51896 0.0
C827 C 0.15076 0.54537 0.58817 0.0
C828 C 0.16837 0.55835 0.60962 0.0
C829 C 0.17766 0.57333 0.56208 0.0
H830 H 0.14353 0.53386 0.62512 0.0
H831 H 0.23172 0.67992 0.16269 0.0
H832 H 0.03401 0.73638 0.06882 0.0
H833 H 0.05012 0.75668 0.96968 0.0
H834 H 1.00146 0.80706 0.99527 0.0
H835 H 0.98515 0.78667 0.09427 0.0
H836 H 0.03718 0.78181 0.83651 0.0
H837 H 0.03035 0.85019 0.0387 0.0
H838 H 0.02436 0.85476 0.16793 0.0
H839 H 0.05866 0.79478 0.20863 0.0
H840 H 0.06496 0.78998 0.07985 0.0
H841 H 0.04726 0.89257 0.74165 0.0
H842 H 0.04178 0.85384 0.76463 0.0
H843 H 0.10369 0.85121 0.87433 0.0
H844 H 0.10913 0.89029 0.85122 0.0
H845 H 0.06897 0.84599 0.96033 0.0
H846 H 0.09404 0.81387 0.74707 0.0
H847 H 0.09915 0.80655 0.6191 0.0
H848 H 0.03058 0.79339 0.59654 0.0
H849 H 0.02496 0.80092 0.72419 0.0
C850 C 0.02609 0.75123 0.0508 0.0
C851 C 0.00843 0.76008 0.0889 0.0
C852 C 0.03528 0.76275 0.99418 0.0
C853 C 0.02701 0.78332 0.97584 0.0
C854 C 0.00797 0.79112 0.00893 0.0
C855 C 0.9988 0.77962 0.06563 0.0
C856 C 0.04093 0.79866 0.93615 0.0
C857 C 0.04421 0.79591 0.86285 0.0
C858 C 0.05073 0.8164 0.97196 0.0
C859 C 0.04803 0.8197 0.04976 0.0
C860 C 0.03675 0.83809 0.07537 0.0
C861 C 0.03324 0.84068 0.14848 0.0
C862 C 0.04105 0.82503 0.19647 0.0
C863 C 0.05252 0.80684 0.17147 0.0
C864 C 0.05606 0.80417 0.09843 0.0
C865 C 0.06021 0.88347 0.76725 0.0
C866 C 0.07856 0.89431 0.79479 0.0
C867 C 0.05712 0.86128 0.78019 0.0
C868 C 0.07236 0.84963 0.82102 0.0
C869 C 0.09186 0.85991 0.84201 0.0
C870 C 0.0949 0.8822 0.82931 0.0
C871 C 0.06482 0.82988 0.85888 0.0
C872 C 0.06251 0.83177 0.93298 0.0
C873 C 0.05603 0.81147 0.82324 0.0
C874 C 0.05908 0.80804 0.74549 0.0
C875 C 0.07999 0.80964 0.7148 0.0
C876 C 0.083 0.80531 0.64231 0.0
C877 C 0.06523 0.79936 0.59982 0.0
C878 C 0.04437 0.79784 0.62964 0.0
C879 C 0.04126 0.80214 0.70209 0.0
H880 H 0.06758 0.79607 0.54371 0.0
H881 H 0.03826 0.82706 0.25298 0.0
H882 H 0.72295 0.01099 0.08747 0.0
H883 H 0.70403 0.02996 0.9913 0.0
H884 H 0.75691 0.07638 0.97596 0.0
H885 H 0.77614 0.0572 0.07306 0.0
H886 H 0.69196 0.07377 0.01165 0.0
H887 H 0.75127 0.09346 0.78838 0.0
H888 H 0.78552 0.07985 0.7348 0.0
H889 H 0.76889 0.01429 0.79628 0.0
H890 H 0.7345 0.02752 0.84964 0.0
H891 H 0.61401 0.1077 0.7965 0.0
H892 H 0.65233 0.11593 0.81947 0.0
H893 H 0.67052 0.05234 0.74025 0.0
H894 H 0.63246 0.04456 0.71314 0.0
H895 H 0.70658 0.07822 0.7522 0.0
H896 H 0.64466 0.05412 0.90785 0.0
H897 H 0.60789 0.05993 0.95872 0.0
H898 H 0.6273 0.12341 0.03287 0.0
H899 H 0.66418 0.11793 0.98208 0.0
C900 C 0.73064 0.02511 0.06322 0.0
C901 C 0.75072 0.03294 0.08842 0.0
C902 C 0.71991 0.03586 0.00818 0.0
C903 C 0.729 0.05468 0.97738 0.0
C904 C 0.74969 0.06187 0.99927 0.0
C905 C 0.76058 0.05096 0.05455 0.0
C906 C 0.7153 0.0676 0.92831 0.0
C907 C 0.69541 0.07531 0.95511 0.0
C908 C 0.71988 0.06963 0.85488 0.0
C909 C 0.74054 0.06152 0.82381 0.0
C910 C 0.755 0.07616 0.79061 0.0
C911 C 0.7744 0.06851 0.76021 0.0
C912 C 0.77943 0.04623 0.76243 0.0
C913 C 0.76504 0.03155 0.79493 0.0
C914 C 0.74562 0.03912 0.82539 0.0
C915 C 0.62626 0.09601 0.77977 0.0
C916 C 0.62024 0.075 0.75673 0.0
C917 C 0.64824 0.10077 0.79286 0.0
C918 C 0.66405 0.08428 0.78525 0.0
C919 C 0.65851 0.06512 0.74842 0.0
C920 C 0.63665 0.06052 0.73399 0.0
C921 C 0.68279 0.08317 0.83507 0.0
C922 C 0.70364 0.07781 0.80905 0.0
C923 C 0.67892 0.08245 0.90951 0.0
C924 C 0.65697 0.08573 0.94075 0.0
C925 C 0.64103 0.0693 0.93503 0.0
C926 C 0.6202 0.07254 0.96372 0.0
C927 C 0.61524 0.09206 0.99877 0.0
C928 C 0.63115 0.10833 0.00551 0.0
C929 C 0.65201 0.10518 0.97683 0.0
H930 H 0.5991 0.09455 0.02087 0.0
H931 H 0.79444 0.04034 0.73878 0.0
H932 H 0.41687 0.75585 0.23657 0.0
H933 H 0.39298 0.73283 0.1634 0.0
H934 H 0.44008 0.73558 0.99236 0.0
H935 H 0.46323 0.75941 0.06382 0.0
H936 H 0.40122 0.72713 0.93838 0.0
H937 H 0.44587 0.69962 0.13384 0.0
H938 H 0.45708 0.69795 0.25984 0.0
H939 H 0.39237 0.67795 0.31956 0.0
H940 H 0.3806 0.68013 0.19381 0.0
H941 H 0.43953 0.62586 0.83412 0.0
H942 H 0.42773 0.66211 0.86961 0.0
H943 H 0.37542 0.63404 0.9936 0.0
H944 H 0.38766 0.59735 0.95961 0.0
H945 H 0.40136 0.65728 0.07288 0.0
H946 H 0.36458 0.67248 0.85458 0.0
H947 H 0.36 0.67239 0.72405 0.0
H948 H 0.41713 0.7125 0.70098 0.0
H949 H 0.42218 0.71271 0.83122 0.0
C950 C 0.42153 0.75229 0.18214 0.0
C951 C 0.44192 0.75901 0.15584 0.0
C952 C 0.40794 0.73917 0.14042 0.0
C953 C 0.41508 0.73194 0.07331 0.0
C954 C 0.43424 0.74084 0.04407 0.0
C955 C 0.44754 0.75439 0.08504 0.0
C956 C 0.40583 0.71191 0.04079 0.0
C957 C 0.40091 0.71184 0.96771 0.0
C958 C 0.40519 0.69199 0.07938 0.0
C959 C 0.41228 0.69034 0.15475 0.0
C960 C 0.43401 0.69497 0.17392 0.0
C961 C 0.44047 0.69391 0.24524 0.0
C962 C 0.42547 0.68782 0.29772 0.0
C963 C 0.40396 0.68273 0.27889 0.0
C964 C 0.39736 0.68393 0.20763 0.0
C965 C 0.42496 0.62739 0.86654 0.0
C966 C 0.4146 0.60881 0.89464 0.0
C967 C 0.4181 0.6482 0.88636 0.0
C968 C 0.4005 0.65088 0.93353 0.0
C969 C 0.38896 0.63237 0.95682 0.0
C970 C 0.39601 0.61145 0.9377 0.0
C971 C 0.39758 0.67223 0.96951 0.0
C972 C 0.40038 0.67257 0.04366 0.0
C973 C 0.39702 0.69218 0.93125 0.0
C974 C 0.39368 0.69268 0.85286 0.0
C975 C 0.37616 0.68129 0.8217 0.0
C976 C 0.37349 0.68121 0.74772 0.0
C977 C 0.38824 0.69246 0.70427 0.0
C978 C 0.40566 0.70388 0.73472 0.0
C979 C 0.40838 0.70406 0.80866 0.0
H980 H 0.38618 0.69232 0.647 0.0
H981 H 0.43054 0.68702 0.35293 0.0
H982 H 0.74883 0.45796 0.10793 0.0
H983 H 0.77142 0.43578 0.02752 0.0
H984 H 0.82589 0.47926 0.06421 0.0
H985 H 0.8032 0.50192 0.13987 0.0
H986 H 0.82746 0.46691 0.93586 0.0
H987 H 0.81601 0.43053 0.16558 0.0
H988 H 0.79291 0.41329 0.25763 0.0
H989 H 0.76963 0.36671 0.1044 0.0
H990 H 0.79248 0.38385 0.01131 0.0
H991 H 0.92119 0.41524 0.04839 0.0
H992 H 0.88182 0.41189 0.06294 0.0
H993 H 0.87432 0.40421 0.83612 0.0
H994 H 0.91347 0.40915 0.82033 0.0
H995 H 0.84106 0.39129 0.02145 0.0
H996 H 0.85711 0.44148 0.78863 0.0
H997 H 0.88788 0.46056 0.73073 0.0
H998 H 0.90935 0.48474 0.93372 0.0
H999 H 0.87908 0.46513 0.99288 0.0
C1000 C 0.76546 0.46301 0.09708 0.0
C1001 C 0.77445 0.48137 0.13125 0.0
C1002 C 0.77838 0.45025 0.05166 0.0
C1003 C 0.80046 0.45562 0.04072 0.0
C1004 C 0.80892 0.47471 0.0716 0.0
C1005 C 0.79602 0.48753 0.11575 0.0
C1006 C 0.81571 0.4408 1.00297 0.0
C1007 C 0.82989 0.4501 0.95269 0.0
C1008 C 0.81924 0.41896 0.02566 0.0
C1009 C 0.80569 0.40859 0.08149 0.0
C1010 C 0.80588 0.41667 0.15156 0.0
C1011 C 0.79285 0.40692 0.20387 0.0
C1012 C 0.77976 0.38896 0.18682 0.0
C1013 C 0.77973 0.38066 0.11747 0.0
C1014 C 0.79271 0.39038 0.06493 0.0
C1015 C 0.91126 0.41218 1.0017 0.0
C1016 C 0.92032 0.4136 0.93301 0.0
C1017 C 0.88875 0.40985 0.01025 0.0
C1018 C 0.87516 0.40859 0.95026 0.0
C1019 C 0.88459 0.40561 0.8829 0.0
C1020 C 0.90707 0.40844 0.87405 0.0
C1021 C 0.85288 0.41771 0.95628 0.0
C1022 C 0.83758 0.40748 1.00071 0.0
C1023 C 0.84875 0.43915 0.93118 0.0
C1024 C 0.8659 0.452 0.89482 0.0
C1025 C 0.86833 0.45101 0.82062 0.0
C1026 C 0.88576 0.46181 0.78771 0.0
C1027 C 0.90048 0.47403 0.82846 0.0
C1028 C 0.89789 0.47535 0.90222 0.0
C1029 C 0.88068 0.46435 0.93546 0.0
H1030 H 0.9139 0.48247 0.80314 0.0
H1031 H 0.76967 0.38143 0.22737 0.0
H1032 H 0.03213 0.22405 0.12374 0.0
H1033 H 0.03546 0.19138 0.04947 0.0
H1034 H 0.98272 0.21448 0.91668 0.0
H1035 H 0.9792 0.24704 0.99239 0.0
H1036 H 0.97505 0.17385 0.95167 0.0
H1037 H 0.03726 0.21005 0.85499 0.0
H1038 H 0.07218 0.23015 0.85613 0.0
H1039 H 0.10317 0.17646 0.96367 0.0
H1040 H 0.06835 0.15614 0.96406 0.0
H1041 H 0.98776 0.08427 0.70702 0.0
H1042 H 0.98688 0.12091 0.75852 0.0
H1043 H 0.03303 0.10091 0.9193 0.0
H1044 H 0.03332 0.06392 0.86981 0.0
H1045 H 0.0437 0.14126 0.85993 0.0
H1046 H 0.9806 0.10554 0.95783 0.0
H1047 H 0.94591 0.08519 0.9508 0.0
H1048 H 0.91644 0.13844 0.83656 0.0
H1049 H 0.95096 0.15906 0.84272 0.0
C1050 C 0.02193 0.22261 0.0768 0.0
C1051 C 0.0059 0.23849 0.06255 0.0
C1052 C 0.02369 0.20379 0.03447 0.0
C1053 C 0.00944 0.20029 0.97664 0.0
C1054 C 0.99398 0.21665 0.96064 0.0
C1055 C 0.99221 0.23549 1.00316 0.0
C1056 C 0.00963 0.17893 0.9369 0.0
C1057 C 0.99004 0.16698 0.93049 0.0
C1058 C 0.02915 0.16949 0.91013 0.0
C1059 C 0.05013 0.18165 0.91009 0.0
C1060 C 0.05147 0.2026 0.87939 0.0
C1061 C 0.07126 0.21402 0.87967 0.0
C1062 C 0.08987 0.20461 0.9101 0.0
C1063 C 0.08874 0.18374 0.94018 0.0
C1064 C 0.06899 0.17225 0.94009 0.0
C1065 C 0.99763 0.08754 0.75356 0.0
C1066 C 0.0104 0.0709 0.78457 0.0
C1067 C 0.99721 0.10866 0.78284 0.0
C1068 C 0.00989 0.11385 0.84301 0.0
C1069 C 0.02309 0.09742 0.87291 0.0
C1070 C 0.02318 0.0762 0.84457 0.0
C1071 C 0.00924 0.13623 0.87553 0.0
C1072 C 0.02872 0.1483 0.88065 0.0
C1073 C 0.98961 0.14578 0.90082 0.0
C1074 C 0.96857 0.13368 0.8993 0.0
C1075 C 0.96679 0.11285 0.93063 0.0
C1076 C 0.94712 0.10128 0.92705 0.0
C1077 C 0.92901 0.11046 0.89289 0.0
C1078 C 0.9305 0.1313 0.86275 0.0
C1079 C 0.95012 0.14294 0.8663 0.0
H1080 H 0.91381 0.10146 0.89006 0.0
H1081 H 0.10517 0.21348 0.91024 0.0
H1082 H 0.29643 0.01505 0.14748 0.0
H1083 H 0.32865 0.02116 0.07307 0.0
H1084 H 0.2946 0.99386 0.89271 0.0
H1085 H 0.26231 0.9875 0.9681 0.0
H1086 H 0.33335 0.97507 0.90647 0.0
H1087 H 0.30946 0.04924 0.90053 0.0
H1088 H 0.29656 0.08432 0.94947 0.0
H1089 H 0.35579 0.09058 0.07046 0.0
H1090 H 0.36893 0.05538 0.02301 0.0
H1091 H 0.42545 0.99508 0.67879 0.0
H1092 H 0.38868 0.9961 0.73042 0.0
H1093 H 0.41525 0.02092 0.9269 0.0
H1094 H 0.45196 0.01981 0.87609 0.0
H1095 H 0.37835 0.04236 0.89355 0.0
H1096 H 0.40166 0.96784 0.90255 0.0
H1097 H 0.41498 0.93317 0.85312 0.0
H1098 H 0.35644 0.92686 0.72868 0.0
H1099 H 0.34293 0.9619 0.77637 0.0
C1100 C 0.29555 0.01116 0.09126 0.0
C1101 C 0.27667 1.00127 0.06323 0.0
C1102 C 0.31405 0.01455 0.04864 0.0
C1103 C 0.31421 0.00812 0.9767 0.0
C1104 C 0.29498 0.99906 0.94783 0.0
C1105 C 0.27639 0.9957 0.99062 0.0
C1106 C 0.33497 0.00918 0.93408 0.0
C1107 C 0.34292 0.98994 0.9023 0.0
C1108 C 0.34793 0.02836 0.92998 0.0
C1109 C 0.3401 0.04957 0.95858 0.0
C1110 C 0.31967 0.05801 0.93798 0.0
C1111 C 0.31233 0.07794 0.96539 0.0
C1112 C 0.32533 0.08965 0.01315 0.0
C1113 C 0.34573 0.08149 0.03348 0.0
C1114 C 0.35314 0.06156 0.00627 0.0
C1115 C 0.42355 1.00062 0.7331 0.0
C1116 C 0.44188 0.00707 0.77335 0.0
C1117 C 0.40242 1.00128 0.76255 0.0
C1118 C 0.39905 0.00843 0.83296 0.0
C1119 C 0.41727 0.01536 0.87253 0.0
C1120 C 0.43836 0.01462 0.84331 0.0
C1121 C 0.37675 0.00823 0.86637 0.0
C1122 C 0.36859 0.02758 0.89675 0.0
C1123 C 0.36362 0.98913 0.86927 0.0
C1124 C 0.3715 0.9678 0.84173 0.0
C1125 C 0.39172 0.95923 0.86399 0.0
C1126 C 0.39927 0.93943 0.8365 0.0
C1127 C 0.38657 0.92776 0.78781 0.0
C1128 C 0.36629 0.93593 0.76631 0.0
C1129 C 0.3587 0.9558 0.79341 0.0
H1130 H 0.39239 0.91232 0.76715 0.0
H1131 H 0.31961 0.10508 0.03431 0.0
H1132 H 0.47822 0.27115 0.04874 0.0
H1133 H 0.4747 0.30378 0.97263 0.0
H1134 H 0.54396 0.31542 0.99251 0.0
H1135 H 0.54742 0.28287 0.06706 0.0
H1136 H 0.48027 0.34409 0.0077 0.0
H1137 H 0.56433 0.34556 0.85896 0.0
H1138 H 0.58863 0.32073 0.79243 0.0
H1139 H 0.53524 0.27644 0.75868 0.0
H1140 H 0.51056 0.30111 0.82425 0.0
H1141 H 0.50617 0.45345 0.92036 0.0
H1142 H 0.5062 0.41571 0.96344 0.0
H1143 H 0.50544 0.39246 0.74673 0.0
H1144 H 0.50564 0.43023 0.70359 0.0
H1145 H 0.53059 0.36746 0.81526 0.0
H1146 H 0.45843 0.39195 0.86167 0.0
H1147 H 0.42975 0.41649 0.90767 0.0
H1148 H 0.45253 0.40591 0.12134 0.0
H1149 H 0.48154 0.38153 0.07654 0.0
C1150 C 0.49277 0.28023 0.03445 0.0
C1151 C 0.51314 0.27425 0.06314 0.0
C1152 C 0.49074 0.29908 0.99165 0.0
C1153 C 0.50906 0.31226 0.97617 0.0
C1154 C 0.52957 0.30554 1.00205 0.0
C1155 C 0.53156 0.28684 0.04482 0.0
C1156 C 0.50667 0.334 0.93932 0.0
C1157 C 0.49124 0.34907 0.96531 0.0
C1158 C 0.52056 0.34067 0.88276 0.0
C1159 C 0.53562 0.32515 0.847 0.0
C1160 C 0.5578 0.33046 0.83773 0.0
C1161 C 0.57164 0.31644 0.80003 0.0
C1162 C 0.5635 0.297 0.77148 0.0
C1163 C 0.54155 0.29146 0.78107 0.0
C1164 C 0.52765 0.30543 0.81873 0.0
C1165 C 0.50591 0.4403 0.88178 0.0
C1166 C 0.50598 0.44495 0.80833 0.0
C1167 C 0.50582 0.41862 0.90654 0.0
C1168 C 0.50533 0.40093 0.85861 0.0
C1169 C 0.50566 0.40561 0.78515 0.0
C1170 C 0.50593 0.42729 0.76038 0.0
C1171 C 0.50468 0.37767 0.88504 0.0
C1172 C 0.51956 0.36238 0.85725 0.0
C1173 C 0.48982 0.37057 0.93834 0.0
C1174 C 0.47227 0.38505 0.96566 0.0
C1175 C 0.4574 0.39495 0.91844 0.0
C1176 C 0.44107 0.40883 0.9443 0.0
C1177 C 0.43935 0.4128 0.01737 0.0
C1178 C 0.4539 0.40284 0.06475 0.0
C1179 C 0.47027 0.38897 0.03916 0.0
H1180 H 0.42671 0.42356 0.03728 0.0
H1181 H 0.57418 0.28626 0.74178 0.0
H1182 H 0.2537 0.52647 0.97451 0.0
H1183 H 0.2212 0.5198 0.90142 0.0
H1184 H 0.19533 0.47754 0.06486 0.0
H1185 H 0.22799 0.48419 0.13788 0.0
H1186 H 0.18333 0.46341 0.92891 0.0
H1187 H 0.18106 0.52921 0.06552 0.0
H1188 H 0.19491 0.56451 0.10973 0.0
H1189 H 0.19433 0.59029 0.89682 0.0
H1190 H 0.18072 0.555 0.85118 0.0
H1191 H 0.06905 0.47787 0.86522 0.0
H1192 H 0.10578 0.47683 0.91646 0.0
H1193 H 0.1291 0.5191 0.74903 0.0
H1194 H 0.09232 0.52013 0.69701 0.0
H1195 H 0.1432 0.53247 0.88205 0.0
H1196 H 0.14246 0.46576 0.74841 0.0
H1197 H 0.12774 0.43016 0.71002 0.0
H1198 H 0.13265 0.40589 0.92418 0.0
H1199 H 0.14711 0.44146 0.9641 0.0
C1200 C 0.24158 0.51489 0.9932 0.0
C1201 C 0.24364 0.50544 0.06117 0.0
C1202 C 0.22282 0.51134 0.95188 0.0
C1203 C 0.20555 0.49844 0.97795 0.0
C1204 C 0.20837 0.48753 0.04335 0.0
C1205 C 0.22716 0.49114 0.08483 0.0
C1206 C 0.18381 0.49837 0.94106 0.0
C1207 C 0.1745 0.47849 0.91916 0.0
C1208 C 0.17221 0.51804 0.92761 0.0
C1209 C 0.18011 0.53939 0.95483 0.0
C1210 C 0.18404 0.54235 0.02805 0.0
C1211 C 0.19183 0.56236 0.05338 0.0
C1212 C 0.19558 0.57961 0.00608 0.0
C1213 C 0.19146 0.5769 0.93338 0.0
C1214 C 0.18368 0.5569 0.90774 0.0
C1215 C 0.08198 0.48685 0.83883 0.0
C1216 C 0.07762 0.49903 0.77669 0.0
C1217 C 0.10307 0.48618 0.86819 0.0
C1218 C 0.12038 0.49775 0.83651 0.0
C1219 C 0.11609 0.50997 0.77449 0.0
C1220 C 0.09502 0.51046 0.74459 0.0
C1221 C 0.14274 0.49751 0.8693 0.0
C1222 C 0.15211 0.51739 0.89099 0.0
C1223 C 0.15422 0.47781 0.88327 0.0
C1224 C 0.14569 0.45635 0.85936 0.0
C1225 C 0.14025 0.45288 0.78744 0.0
C1226 C 0.13198 0.4327 0.76538 0.0
C1227 C 0.12921 0.41579 0.81466 0.0
C1228 C 0.13478 0.41901 0.88608 0.0
C1229 C 0.14303 0.43917 0.90844 0.0
H1230 H 0.1228 0.40018 0.79747 0.0
H1231 H 0.20163 0.59508 0.02581 0.0
H1232 H 0.9743 0.76534 0.39698 0.0
H1233 H 0.97611 0.79824 0.47184 0.0
H1234 H 0.03947 0.81342 0.38371 0.0
H1235 H 0.03815 0.78008 0.31327 0.0
H1236 H 0.04045 0.8299 0.50056 0.0
H1237 H 0.98753 0.83494 0.31752 0.0
H1238 H 0.95528 0.82467 0.24625 0.0
H1239 H 0.91404 0.83324 0.4292 0.0
H1240 H 0.94613 0.84328 0.50186 0.0
H1241 H 0.99475 0.95001 0.5071 0.0
H1242 H 0.99487 0.913 0.45824 0.0
H1243 H 0.01953 0.88806 0.65728 0.0
H1244 H 0.02014 0.92528 0.70621 0.0
H1245 H 0.97467 0.87697 0.48545 0.0
H1246 H 0.05432 0.84416 0.62384 0.0
H1247 H 0.0909 0.85743 0.65831 0.0
H1248 H 0.0838 0.91213 0.51676 0.0
H1249 H 0.04787 0.89836 0.47818 0.0
C1250 C 0.98896 0.77524 0.39607 0.0
C1251 C 0.00605 0.7701 0.34901 0.0
C1252 C 0.98985 0.79438 0.43781 0.0
C1253 C 0.00758 0.80909 0.43189 0.0
C1254 C 0.02543 0.80279 0.38945 0.0
C1255 C 0.02471 0.78358 0.349 0.0
C1256 C 0.00703 0.83162 0.46474 0.0
C1257 C 0.02592 0.83999 0.49799 0.0
C1258 C 0.98858 0.84563 0.45859 0.0
C1259 C 0.96924 0.83959 0.41531 0.0
C1260 C 0.9716 0.83448 0.34266 0.0
C1261 C 0.95335 0.82872 0.30201 0.0
C1262 C 0.93263 0.82823 0.33324 0.0
C1263 C 0.93011 0.83357 0.40515 0.0
C1264 C 0.94832 0.8393 0.4461 0.0
C1265 C 1.0003 0.93671 0.54069 0.0
C1266 C 0.00755 0.94078 0.61069 0.0
C1267 C 1.00026 0.91544 0.51262 0.0
C1268 C 0.00747 0.89758 0.55362 0.0
C1269 C 0.01439 0.90156 0.62394 0.0
C1270 C 0.01459 0.92287 0.65199 0.0
C1271 C 0.00788 0.8749 0.52274 0.0
C1272 C 0.98903 0.86664 0.48944 0.0
C1273 C 0.02682 0.86155 0.52474 0.0
C1274 C 0.04829 0.87021 0.54862 0.0
C1275 C 0.06074 0.85878 0.59928 0.0
C1276 C 0.0814 0.86637 0.6193 0.0
C1277 C 0.08962 0.88568 0.59004 0.0
C1278 C 0.07736 0.89723 0.53975 0.0
C1279 C 0.05689 0.88946 0.51851 0.0
H1280 H 0.10549 0.89168 0.6063 0.0
H1281 H 0.91852 0.82378 0.30167 0.0
H1282 H 0.73357 0.04139 0.34233 0.0
H1283 H 0.70138 0.03722 0.41728 0.0
H1284 H 0.71084 0.96733 0.41967 0.0
H1285 H 0.74288 0.97157 0.34154 0.0
H1286 H 0.67093 0.97412 0.39186 0.0
H1287 H 0.71573 1.00143 0.57576 0.0
H1288 H 0.74233 0.02551 0.63552 0.0
H1289 H 0.69856 0.0799 0.612 0.0
H1290 H 0.67175 0.05622 0.55169 0.0
H1291 H 0.58681 1.00081 0.70265 0.0
H1292 H 0.62427 0.99917 0.65784 0.0
H1293 H 0.59987 0.99954 0.44202 0.0
H1294 H 0.56239 0.99987 0.48697 0.0
H1295 H 0.64957 0.0227 0.59123 0.0
H1296 H 0.6335 0.97643 0.3249 0.0
H1297 H 0.60893 0.94789 0.27806 0.0
H1298 H 0.59868 0.92341 0.48992 0.0
H1299 H 0.6234 0.95161 0.53794 0.0
C1300 C 0.7292 0.02516 0.36066 0.0
C1301 C 0.74093 0.00682 0.33633 0.0
C1302 C 0.7107 0.02276 0.40385 0.0
C1303 C 0.70346 1.00194 0.42512 0.0
C1304 C 0.71592 0.98362 0.40422 0.0
C1305 C 0.73447 0.98603 0.36036 0.0
C1306 C 0.68189 0.99944 0.463 0.0
C1307 C 0.66638 0.98467 0.43581 0.0
C1308 C 0.6758 0.01272 0.52176 0.0
C1309 C 0.69182 0.02706 0.55839 0.0
C1310 C 0.71184 0.01856 0.58284 0.0
C1311 C 0.72694 0.03213 0.61695 0.0
C1312 C 0.7222 0.05424 0.62706 0.0
C1313 C 0.70226 0.06278 0.60378 0.0
C1314 C 0.68707 0.04928 0.56983 0.0
C1315 C 0.58942 1.00033 0.6456 0.0
C1316 C 0.57151 1.00015 0.59848 0.0
C1317 C 0.61095 0.99947 0.61984 0.0
C1318 C 0.61525 0.99872 0.54616 0.0
C1319 C 0.59729 0.99927 0.49907 0.0
C1320 C 0.57574 0.99964 0.52486 0.0
C1321 C 0.63839 0.99781 0.51874 0.0
C1322 C 0.65417 0.01199 0.54777 0.0
C1323 C 0.64498 0.98337 0.46353 0.0
C1324 C 0.63017 0.96627 0.43505 0.0
C1325 C 0.62607 0.9649 0.36146 0.0
C1326 C 0.6121 0.94879 0.33471 0.0
C1327 C 0.6022 0.93388 0.381 0.0
C1328 C 0.6063 0.93501 0.45414 0.0
C1329 C 0.62027 0.95107 0.48116 0.0
H1330 H 0.5914 0.92142 0.36016 0.0
H1331 H 0.73396 0.06474 0.65304 0.0
H1332 H 0.52376 0.73768 0.31878 0.0
H1333 H 0.5308 0.70488 0.39127 0.0
H1334 H 0.4657 0.70907 0.47828 0.0
H1335 H 0.45899 0.74198 0.40806 0.0
H1336 H 0.49135 0.69515 0.57789 0.0
H1337 H 0.47921 0.67349 0.33358 0.0
H1338 H 0.4863 0.6735 0.2039 0.0
H1339 H 0.55218 0.65222 0.24147 0.0
H1340 H 0.54548 0.65229 0.3712 0.0
H1341 H 0.47456 0.58448 0.68865 0.0
H1342 H 0.47289 0.62089 0.63469 0.0
H1343 H 0.53615 0.61034 0.53884 0.0
H1344 H 0.53702 0.57344 0.58861 0.0
H1345 H 0.51371 0.62857 0.44673 0.0
H1346 H 0.52249 0.64565 0.69689 0.0
H1347 H 0.5127 0.64514 0.82438 0.0
H1348 H 0.451 0.67521 0.77614 0.0
H1349 H 0.46013 0.67532 0.64853 0.0
C1350 C 0.51127 0.73201 0.35527 0.0
C1351 C 0.49085 0.74252 0.35777 0.0
C1352 C 0.51514 0.713 0.39587 0.0
C1353 C 0.49861 0.70402 0.43943 0.0
C1354 C 0.47876 0.71542 0.44525 0.0
C1355 C 0.47494 0.73435 0.40509 0.0
C1356 C 0.50128 0.68233 0.47629 0.0
C1357 C 0.49617 0.68056 0.54912 0.0
C1358 C 0.50782 0.66318 0.43958 0.0
C1359 C 0.51193 0.66321 0.36184 0.0
C1360 C 0.49525 0.66904 0.314 0.0
C1361 C 0.49918 0.66898 0.24062 0.0
C1362 C 0.5197 0.66298 0.21453 0.0
C1363 C 0.53631 0.65693 0.26176 0.0
C1364 C 0.53245 0.65696 0.33518 0.0
C1365 C 0.48815 0.59 0.65644 0.0
C1366 C 0.50594 0.57602 0.6431 0.0
C1367 C 0.4873 0.611 0.62584 0.0
C1368 C 0.50461 0.61891 0.58332 0.0
C1369 C 0.5225 0.60492 0.57106 0.0
C1370 C 0.52304 0.58375 0.59986 0.0
C1371 C 0.50386 0.64122 0.54901 0.0
C1372 C 0.50923 0.64311 0.47628 0.0
C1373 C 0.49737 0.66044 0.58592 0.0
C1374 C 0.49194 0.66029 0.66297 0.0
C1375 C 0.50676 0.65196 0.71345 0.0
C1376 C 0.50129 0.65171 0.7858 0.0
C1377 C 0.48117 0.66 0.80841 0.0
C1378 C 0.4665 0.66862 0.75873 0.0
C1379 C 0.47181 0.66877 0.68635 0.0
H1380 H 0.47698 0.65982 0.86443 0.0
H1381 H 0.52272 0.66294 0.15772 0.0
H1382 H 0.78846 0.54705 0.31529 0.0
H1383 H 0.8214 0.54935 0.38921 0.0
H1384 H 0.80263 0.4902 0.49813 0.0
H1385 H 0.76967 0.48791 0.42383 0.0
H1386 H 0.82486 0.51926 0.58868 0.0
H1387 H 0.83494 0.4856 0.36174 0.0
H1388 H 0.83255 0.48261 0.23104 0.0
H1389 H 0.87235 0.53998 0.20797 0.0
H1390 H 0.8748 0.54343 0.33877 0.0
H1391 H 0.93204 0.48378 0.69262 0.0
H1392 H 0.89493 0.48684 0.64375 0.0
H1393 H 0.91528 0.5414 0.5147 0.0
H1394 H 0.9524 0.53819 0.56246 0.0
H1395 H 0.89133 0.51511 0.43796 0.0
H1396 H 0.88364 0.54543 0.67278 0.0
H1397 H 0.88547 0.54587 0.80394 0.0
H1398 H 0.84022 0.49236 0.81417 0.0
H1399 H 0.83874 0.49101 0.683 0.0
C1400 C 0.79076 0.53522 0.35764 0.0
C1401 C 0.77617 0.51761 0.36494 0.0
C1402 C 0.8098 0.53632 0.39915 0.0
C1403 C 0.81477 0.51976 0.44867 0.0
C1404 C 0.79923 0.50321 0.46052 0.0
C1405 C 0.78022 0.50205 0.41862 0.0
C1406 C 0.83709 0.51831 0.4814 0.0
C1407 C 0.83941 0.51818 0.55587 0.0
C1408 C 0.85616 0.51697 0.43874 0.0
C1409 C 0.85484 0.51492 0.36005 0.0
C1410 C 0.84304 0.49769 0.32882 0.0
C1411 C 0.84169 0.49588 0.25472 0.0
C1412 C 0.8522 0.51116 0.2112 0.0
C1413 C 0.86417 0.5282 0.24175 0.0
C1414 C 0.86557 0.53007 0.31588 0.0
C1415 C 0.92847 0.4967 0.65495 0.0
C1416 C 0.94512 0.511 0.63264 0.0
C1417 C 0.90723 0.49841 0.62692 0.0
C1418 C 0.90198 0.51464 0.57654 0.0
C1419 C 0.9187 0.52879 0.55371 0.0
C1420 C 0.93998 0.52696 0.5812 0.0
C1421 C 0.87934 0.51642 0.5458 0.0
C1422 C 0.8769 0.51642 0.47126 0.0
C1423 C 0.86019 0.51731 0.58871 0.0
C1424 C 0.86127 0.51797 0.66778 0.0
C1425 C 0.8743 0.53355 0.70288 0.0
C1426 C 0.87528 0.53396 0.7773 0.0
C1427 C 0.86302 0.5191 0.81735 0.0
C1428 C 0.84974 0.50383 0.78306 0.0
C1429 C 0.8489 0.50317 0.70866 0.0
H1430 H 0.8638 0.51944 0.87494 0.0
H1431 H 0.85112 0.50974 0.15383 0.0
loop_
_geom_bond_atom_site_label_1
_geom_bond_atom_site_label_2
_geom_bond_distance
_geom_bond_site_symmetry_2
_ccdc_geom_bond_type
H0 C3 0.931 . S
H1 C6 0.928 . S
H2 C8 0.930 . S
C3 H0 0.931 . S
C3 C4 1.413 . S
C3 C5 1.360 . S
C4 C3 1.413 . S
C4 C8 1.429 . S
C5 C3 1.360 . S
C5 C6 1.372 . S
C6 H1 0.928 . S
C6 C5 1.372 . S
C6 C7 1.404 . S
C7 C6 1.404 . S
C7 C8 1.391 . S
C8 H2 0.930 . S
C8 C4 1.429 . S
C8 C7 1.391 . S
H9 C12 0.931 . S
H10 C15 0.928 . S
H11 C17 0.930 . S
C12 H9 0.931 . S
C12 C13 1.413 . S
C12 C14 1.360 . S
C13 C12 1.413 . S
C13 C17 1.429 1_655 S
C14 C12 1.360 . S
C14 C15 1.372 . S
C15 H10 0.928 . S
C15 C14 1.372 . S
C15 C16 1.404 . S
C16 C15 1.404 . S
C16 C17 1.390 1_655 S
C17 H11 0.930 . S
C17 C13 1.429 1_455 S
C17 C16 1.390 1_455 S
H18 C21 0.931 . S
H19 C24 0.928 . S
H20 C26 0.930 . S
C21 H18 0.931 . S
C21 C22 1.413 . S
C21 C23 1.360 . S
C22 C21 1.413 . S
C22 C26 1.429 1_565 S
C23 C21 1.360 . S
C23 C24 1.372 . S
C24 H19 0.928 . S
C24 C23 1.372 . S
C24 C25 1.404 . S
C25 C24 1.404 . S
C25 C26 1.390 1_565 S
C26 H20 0.930 . S
C26 C22 1.429 1_545 S
C26 C25 1.390 1_545 S
H27 C30 0.931 . S
H28 C33 0.928 . S
H29 C35 0.930 . S
C30 H27 0.931 . S
C30 C31 1.413 . S
C30 C32 1.360 . S
C31 C30 1.413 . S
C31 C35 1.429 . S
C32 C30 1.360 . S
C32 C33 1.372 . S
C33 H28 0.928 . S
C33 C32 1.372 . S
C33 C34 1.404 . S
C34 C33 1.404 . S
C34 C35 1.391 . S
C35 H29 0.930 . S
C35 C31 1.429 . S
C35 C34 1.391 . S
H36 C39 0.931 . S
H37 C42 0.928 . S
H38 C44 0.930 . S
C39 H36 0.931 . S
C39 C40 1.413 1_554 S
C39 C41 1.360 . S
C40 C39 1.413 1_556 S
C40 C44 1.429 . S
C41 C39 1.360 . S
C41 C42 1.372 . S
C42 H37 0.928 . S
C42 C41 1.372 . S
C42 C43 1.404 . S
C43 C42 1.404 . S
C43 C44 1.391 1_554 S
C44 H38 0.930 . S
C44 C40 1.429 . S
C44 C43 1.391 1_556 S
H45 C48 0.931 . S
H46 C51 0.928 . S
H47 C53 0.930 . S
C48 H45 0.931 . S
C48 C49 1.413 1_554 S
C48 C50 1.360 . S
C49 C48 1.413 1_556 S
C49 C53 1.429 1_655 S
C50 C48 1.360 . S
C50 C51 1.372 . S
C51 H46 0.928 . S
C51 C50 1.372 . S
C51 C52 1.404 . S
C52 C51 1.404 . S
C52 C53 1.391 1_654 S
C53 H47 0.930 . S
C53 C49 1.429 1_455 S
C53 C52 1.391 1_456 S
H54 C57 0.931 . S
H55 C60 0.928 . S
H56 C62 0.930 . S
C57 H54 0.931 . S
C57 C58 1.413 1_554 S
C57 C59 1.360 . S
C58 C57 1.413 1_556 S
C58 C62 1.429 1_565 S
C59 C57 1.360 . S
C59 C60 1.372 . S
C60 H55 0.928 . S
C60 C59 1.372 . S
C60 C61 1.404 . S
C61 C60 1.404 . S
C61 C62 1.391 1_564 S
C62 H56 0.930 . S
C62 C58 1.429 1_545 S
C62 C61 1.391 1_546 S
H63 C66 0.931 . S
H64 C69 0.928 . S
H65 C71 0.930 . S
C66 H63 0.931 . S
C66 C67 1.413 . S
C66 C68 1.360 1_554 S
C67 C66 1.413 . S
C67 C71 1.429 . S
C68 C66 1.360 1_556 S
C68 C69 1.372 . S
C69 H64 0.928 . S
C69 C68 1.372 . S
C69 C70 1.404 1_556 S
C70 C69 1.404 1_554 S
C70 C71 1.391 . S
C71 H65 0.930 . S
C71 C67 1.429 . S
C71 C70 1.391 . S
La72 C74 2.928 . S
La72 O92 2.521 . S
La72 O93 2.628 . S
La72 O94 2.554 . S
La72 O95 2.757 1_565 S
La72 O96 2.470 . S
La72 O101 2.482 1_455 S
La72 O103 2.503 1_565 S
La73 C83 2.928 . S
La73 O95 2.482 1_655 S
La73 O97 2.503 1_545 S
La73 O98 2.521 . S
La73 O99 2.628 . S
La73 O100 2.554 . S
La73 O101 2.757 1_545 S
La73 O102 2.470 . S
C74 La72 2.928 . S
C74 C75 1.503 . S
C74 O92 1.261 . S
C74 O93 1.243 . S
C75 C74 1.503 . S
C75 C76 1.394 . S
C75 C80 1.373 . S
C76 C75 1.394 . S
C76 C77 1.380 . S
C76 H104 0.930 . S
C77 C76 1.380 . S
C77 C78 1.376 . S
C77 H105 0.930 . S
C78 C77 1.376 . S
C78 C79 1.370 . S
C79 C78 1.370 . S
C79 C80 1.396 . S
C79 H106 0.930 1_455 S
C80 C75 1.373 . S
C80 C79 1.396 . S
C80 H107 0.929 1_455 S
C81 O94 1.269 . S
C81 O95 1.272 1_565 S
C82 O96 1.258 1_655 S
C82 O97 1.256 . S
C83 La73 2.928 . S
C83 C84 1.503 . S
C83 O98 1.261 . S
C83 O99 1.243 . S
C84 C83 1.503 . S
C84 C85 1.394 . S
C84 C89 1.373 . S
C85 C84 1.394 . S
C85 C86 1.380 . S
C85 H108 0.930 . S
C86 C85 1.380 . S
C86 C87 1.376 . S
C86 H109 0.930 . S
C87 C86 1.376 . S
C87 C88 1.370 . S
C88 C87 1.370 . S
C88 C89 1.396 . S
C88 H110 0.921 1_655 S
C89 C84 1.373 . S
C89 C88 1.396 . S
C89 H111 0.929 1_655 S
C90 O100 1.240 . S
C90 O101 1.289 1_545 S
C91 O102 1.258 1_455 S
C91 O103 1.256 . S
O92 La72 2.521 . S
O92 C74 1.261 . S
O93 La72 2.628 . S
O93 C74 1.243 . S
O94 La72 2.554 . S
O94 C81 1.269 . S
O95 La72 2.757 1_545 S
O95 La73 2.482 1_455 S
O95 C81 1.272 1_545 S
O96 La72 2.470 . S
O96 C82 1.258 1_455 S
O97 La73 2.503 1_565 S
O97 C82 1.256 . S
O98 La73 2.521 . S
O98 C83 1.261 . S
O99 La73 2.628 . S
O99 C83 1.243 . S
O100 La73 2.554 . S
O100 C90 1.240 . S
O101 La72 2.482 1_655 S
O101 La73 2.757 1_565 S
O101 C90 1.289 1_565 S
O102 La73 2.470 . S
O102 C91 1.258 1_655 S
O103 La72 2.503 1_545 S
O103 C91 1.256 . S
H104 C76 0.930 . S
H105 C77 0.930 . S
H106 C79 0.930 1_655 S
H107 C80 0.929 1_655 S
H108 C85 0.930 . S
H109 C86 0.930 . S
H110 C88 0.921 1_455 S
H111 C89 0.929 1_455 S
La112 C114 2.928 . S
La112 O132 2.521 . S
La112 O133 2.628 . S
La112 O134 2.554 . S
La112 O135 2.757 . S
La112 O136 2.470 . S
La112 O141 2.482 1_545 S
La112 O143 2.503 . S
La113 C123 2.928 . S
La113 O135 2.482 1_565 S
La113 O137 2.503 . S
La113 O138 2.521 . S
La113 O139 2.628 . S
La113 O140 2.554 . S
La113 O141 2.757 . S
La113 O142 2.470 . S
C114 La112 2.928 . S
C114 C115 1.503 . S
C114 O132 1.261 . S
C114 O133 1.243 . S
C115 C114 1.503 . S
C115 C116 1.394 . S
C115 C120 1.373 . S
C116 C115 1.394 . S
C116 C117 1.380 . S
C116 H144 0.930 . S
C117 C116 1.380 . S
C117 C118 1.376 . S
C117 H145 0.930 . S
C118 C117 1.376 . S
C118 C119 1.370 . S
C119 C118 1.370 . S
C119 C120 1.396 . S
C119 H146 0.910 1_545 S
C120 C115 1.373 . S
C120 C119 1.396 . S
C120 H147 0.929 1_545 S
C121 O134 1.240 . S
C121 O135 1.289 . S
C122 O136 1.258 1_565 S
C122 O137 1.256 . S
C123 La113 2.928 . S
C123 C124 1.503 . S
C123 O138 1.261 . S
C123 O139 1.243 . S
C124 C123 1.503 . S
C124 C125 1.394 . S
C124 C129 1.373 . S
C125 C124 1.394 . S
C125 C126 1.380 . S
C125 H148 0.930 . S
C126 C125 1.380 . S
C126 C127 1.376 . S
C126 H149 0.930 . S
C127 C126 1.376 . S
C127 C128 1.370 . S
C128 C127 1.370 . S
C128 C129 1.396 . S
C128 H150 0.901 1_565 S
C129 C124 1.373 . S
C129 C128 1.396 . S
C129 H151 0.929 1_565 S
C130 O140 1.240 . S
C130 O141 1.289 . S
C131 O142 1.258 1_545 S
C131 O143 1.256 . S
O132 La112 2.521 . S
O132 C114 1.261 . S
O133 La112 2.628 . S
O133 C114 1.243 . S
O134 La112 2.554 . S
O134 C121 1.240 . S
O135 La112 2.757 . S
O135 La113 2.482 1_545 S
O135 C121 1.289 . S
O136 La112 2.470 . S
O136 C122 1.258 1_545 S
O137 La113 2.503 . S
O137 C122 1.256 . S
O138 La113 2.521 . S
O138 C123 1.261 . S
O139 La113 2.628 . S
O139 C123 1.243 . S
O140 La113 2.554 . S
O140 C130 1.240 . S
O141 La112 2.482 1_565 S
O141 La113 2.757 . S
O141 C130 1.289 . S
O142 La113 2.470 . S
O142 C131 1.258 1_565 S
O143 La112 2.503 . S
O143 C131 1.256 . S
H144 C116 0.930 . S
H145 C117 0.930 . S
H146 C119 0.910 1_565 S
H147 C120 0.929 1_565 S
H148 C125 0.930 . S
H149 C126 0.930 . S
H150 C128 0.901 1_545 S
H151 C129 0.929 1_545 S
La152 C154 2.928 . S
La152 O172 2.521 . S
La152 O173 2.628 . S
La152 O174 2.554 . S
La152 O175 2.757 . S
La152 O176 2.470 . S
La152 O181 2.482 . S
La152 O183 2.503 . S
La153 C163 2.928 . S
La153 O175 2.482 . S
La153 O177 2.503 . S
La153 O178 2.521 . S
La153 O179 2.628 . S
La153 O180 2.554 . S
La153 O181 2.757 . S
La153 O182 2.470 . S
C154 La152 2.928 . S
C154 C155 1.503 . S
C154 O172 1.261 . S
C154 O173 1.243 . S
C155 C154 1.503 . S
C155 C156 1.394 . S
C155 C160 1.373 . S
C156 C155 1.394 . S
C156 C157 1.380 . S
C156 H184 0.930 . S
C157 C156 1.380 . S
C157 C158 1.376 . S
C157 H185 0.930 . S
C158 C157 1.376 . S
C158 C159 1.370 . S
C159 C158 1.370 . S
C159 C160 1.396 . S
C159 H186 0.929 . S
C160 C155 1.373 . S
C160 C159 1.396 . S
C160 H187 0.929 . S
C161 O174 1.240 . S
C161 O175 1.289 . S
C162 O176 1.258 . S
C162 O177 1.256 . S
C163 La153 2.928 . S
C163 C164 1.503 . S
C163 O178 1.261 . S
C163 O179 1.243 . S
C164 C163 1.503 . S
C164 C165 1.394 . S
C164 C169 1.373 . S
C165 C164 1.394 . S
C165 C166 1.380 . S
C165 H188 0.930 . S
C166 C165 1.380 . S
C166 C167 1.376 . S
C166 H189 0.930 . S
C167 C166 1.376 . S
C167 C168 1.370 . S
C168 C167 1.370 . S
C168 C169 1.396 . S
C168 H190 0.929 . S
C169 C164 1.373 . S
C169 C168 1.396 . S
C169 H191 0.929 . S
C170 O180 1.240 . S
C170 O181 1.289 . S
C171 O182 1.258 . S
C171 O183 1.256 . S
O172 La152 2.521 . S
O172 C154 1.261 . S
O173 La152 2.628 . S
O173 C154 1.243 . S
O174 La152 2.554 . S
O174 C161 1.240 . S
O175 La152 2.757 . S
O175 La153 2.482 . S
O175 C161 1.289 . S
O176 La152 2.470 . S
O176 C162 1.258 . S
O177 La153 2.503 . S
O177 C162 1.256 . S
O178 La153 2.521 . S
O178 C163 1.261 . S
O179 La153 2.628 . S
O179 C163 1.243 . S
O180 La153 2.554 . S
O180 C170 1.240 . S
O181 La152 2.482 . S
O181 La153 2.757 . S
O181 C170 1.289 . S
O182 La153 2.470 . S
O182 C171 1.258 . S
O183 La152 2.503 . S
O183 C171 1.256 . S
H184 C156 0.930 . S
H185 C157 0.930 . S
H186 C159 0.929 . S
H187 C160 0.929 . S
H188 C165 0.930 . S
H189 C166 0.930 . S
H190 C168 0.929 . S
H191 C169 0.929 . S
La192 C194 2.928 . S
La192 O212 2.521 . S
La192 O213 2.628 . S
La192 O214 2.554 . S
La192 O215 2.757 1_655 S
La192 O216 2.470 . S
La192 O221 2.482 . S
La192 O223 2.503 1_655 S
La193 C203 2.928 . S
La193 O215 2.482 . S
La193 O217 2.503 1_455 S
La193 O218 2.521 . S
La193 O219 2.628 . S
La193 O220 2.554 . S
La193 O221 2.757 1_455 S
La193 O222 2.470 . S
C194 La192 2.928 . S
C194 C195 1.503 . S
C194 O212 1.261 . S
C194 O213 1.243 . S
C195 C194 1.503 . S
C195 C196 1.394 . S
C195 C200 1.373 . S
C196 C195 1.394 . S
C196 C197 1.380 . S
C196 H224 0.930 . S
C197 C196 1.380 . S
C197 C198 1.376 . S
C197 H225 0.930 . S
C198 C197 1.376 . S
C198 C199 1.370 . S
C199 C198 1.370 . S
C199 C200 1.396 . S
C199 H226 0.929 . S
C200 C195 1.373 . S
C200 C199 1.396 . S
C200 H227 0.929 . S
C201 O214 1.258 . S
C201 O215 1.279 1_655 S
C202 O216 1.258 . S
C202 O217 1.256 . S
C203 La193 2.928 . S
C203 C204 1.503 . S
C203 O218 1.261 . S
C203 O219 1.243 . S
C204 C203 1.503 . S
C204 C205 1.394 . S
C204 C209 1.373 . S
C205 C204 1.394 . S
C205 C206 1.380 . S
C205 H228 0.930 . S
C206 C205 1.380 . S
C206 C207 1.376 . S
C206 H229 0.930 . S
C207 C206 1.376 . S
C207 C208 1.370 . S
C208 C207 1.370 . S
C208 C209 1.396 . S
C208 H230 0.929 . S
C209 C204 1.373 . S
C209 C208 1.396 . S
C209 H231 0.929 . S
C210 O220 1.265 . S
C210 O221 1.275 1_455 S
C211 O222 1.258 . S
C211 O223 1.256 . S
O212 La192 2.521 . S
O212 C194 1.261 . S
O213 La192 2.628 . S
O213 C194 1.243 . S
O214 La192 2.554 . S
O214 C201 1.258 . S
O215 La192 2.757 1_455 S
O215 La193 2.482 . S
O215 C201 1.279 1_455 S
O216 La192 2.470 . S
O216 C202 1.258 . S
O217 La193 2.503 1_655 S
O217 C202 1.256 . S
O218 La193 2.521 . S
O218 C203 1.261 . S
O219 La193 2.628 . S
O219 C203 1.243 . S
O220 La193 2.554 . S
O220 C210 1.265 . S
O221 La192 2.482 . S
O221 La193 2.757 1_655 S
O221 C210 1.275 1_655 S
O222 La193 2.470 . S
O222 C211 1.258 . S
O223 La192 2.503 1_455 S
O223 C211 1.256 . S
H224 C196 0.930 . S
H225 C197 0.930 . S
H226 C199 0.929 . S
H227 C200 0.929 . S
H228 C205 0.930 . S
H229 C206 0.930 . S
H230 C208 0.929 . S
H231 C209 0.929 . S
H232 C250 0.951 . S
H233 C252 0.951 . S
H234 C254 0.950 . S
H235 C255 0.950 . S
H236 C257 0.950 . S
H237 C260 0.950 . S
H238 C261 0.950 . S
H239 C263 0.950 . S
H240 C264 0.950 . S
H241 C265 0.951 . S
H242 C267 0.951 . S
H243 C269 0.950 . S
H244 C270 0.950 . S
H245 C272 0.950 . S
H246 C275 0.950 . S
H247 C276 0.950 . S
H248 C278 0.950 . S
H249 C279 0.950 . S
C250 H232 0.951 . S
C250 C251 1.370 . S
C250 C252 1.388 . S
C251 C250 1.370 . S
C251 C255 1.380 1_545 S
C252 H233 0.951 . S
C252 C250 1.388 . S
C252 C253 1.389 . S
C253 C252 1.389 . S
C253 C254 1.391 1_545 S
C253 C256 1.498 . S
C254 H234 0.950 . S
C254 C253 1.391 1_565 S
C254 C255 1.374 . S
C255 H235 0.950 . S
C255 C251 1.380 1_565 S
C255 C254 1.374 . S
C256 C253 1.498 . S
C256 C257 1.375 1_545 S
C256 C258 1.387 . S
C257 H236 0.950 . S
C257 C256 1.375 1_565 S
C257 C273 1.377 . S
C258 C256 1.387 . S
C258 C259 1.524 . S
C258 C272 1.377 . S
C259 C258 1.524 . S
C259 C260 1.397 . S
C259 C264 1.363 . S
C260 H237 0.950 . S
C260 C259 1.397 . S
C260 C261 1.334 . S
C261 H238 0.950 . S
C261 C260 1.334 . S
C261 C262 1.287 . S
C262 C261 1.287 . S
C262 C263 1.524 . S
C262 H281 0.913 . S
C263 H239 0.950 . S
C263 C262 1.524 . S
C263 C264 1.415 . S
C264 H240 0.950 . S
C264 C259 1.363 . S
C264 C263 1.415 . S
C265 H241 0.951 . S
C265 C266 1.366 1_565 S
C265 C267 1.388 . S
C266 C265 1.366 1_545 S
C266 C270 1.385 . S
C267 H242 0.951 . S
C267 C265 1.388 . S
C267 C268 1.320 1_565 S
C268 C267 1.320 1_545 S
C268 C269 1.460 . S
C268 C271 1.501 . S
C269 H243 0.950 . S
C269 C268 1.460 . S
C269 C270 1.374 . S
C270 H244 0.950 . S
C270 C266 1.385 . S
C270 C269 1.374 . S
C271 C268 1.501 . S
C271 C272 1.373 . S
C271 C273 1.389 1_545 S
C272 H245 0.950 . S
C272 C258 1.377 . S
C272 C271 1.373 . S
C273 C257 1.377 . S
C273 C271 1.389 1_565 S
C273 C274 1.524 . S
C274 C273 1.524 . S
C274 C275 1.397 . S
C274 C279 1.363 . S
C275 H246 0.950 . S
C275 C274 1.397 . S
C275 C276 1.334 . S
C276 H247 0.950 . S
C276 C275 1.334 . S
C276 C277 1.287 . S
C277 C276 1.287 . S
C277 C278 1.524 . S
C277 H280 0.999 . S
C278 H248 0.950 . S
C278 C277 1.524 . S
C278 C279 1.415 . S
C279 H249 0.950 . S
C279 C274 1.363 . S
C279 C278 1.415 . S
H280 C277 0.999 . S
H281 C262 0.913 . S
H282 C300 0.951 . S
H283 C302 0.951 . S
H284 C304 0.950 . S
H285 C305 0.950 . S
H286 C307 0.950 . S
H287 C310 0.950 . S
H288 C311 0.950 . S
H289 C313 0.950 . S
H290 C314 0.950 . S
H291 C315 0.951 . S
H292 C317 0.951 . S
H293 C319 0.950 . S
H294 C320 0.950 . S
H295 C322 0.950 . S
H296 C325 0.950 . S
H297 C326 0.950 . S
H298 C328 0.950 . S
H299 C329 0.950 . S
C300 H282 0.951 . S
C300 C301 1.366 . S
C300 C302 1.388 . S
C301 C300 1.366 . S
C301 C305 1.385 . S
C302 H283 0.951 . S
C302 C300 1.388 . S
C302 C303 1.366 . S
C303 C302 1.366 . S
C303 C304 1.414 . S
C303 C306 1.499 . S
C304 H284 0.950 . S
C304 C303 1.414 . S
C304 C305 1.374 . S
C305 H285 0.950 . S
C305 C301 1.385 . S
C305 C304 1.374 . S
C306 C303 1.499 . S
C306 C307 1.373 . S
C306 C308 1.389 . S
C307 H286 0.950 . S
C307 C306 1.373 . S
C307 C323 1.377 . S
C308 C306 1.389 . S
C308 C309 1.524 . S
C308 C322 1.377 . S
C309 C308 1.524 . S
C309 C310 1.397 . S
C309 C314 1.363 . S
C310 H287 0.950 . S
C310 C309 1.397 . S
C310 C311 1.334 . S
C311 H288 0.950 . S
C311 C310 1.334 . S
C311 C312 1.287 . S
C312 C311 1.287 . S
C312 C313 1.524 . S
C312 H331 0.913 . S
C313 H289 0.950 . S
C313 C312 1.524 . S
C313 C314 1.415 . S
C314 H290 0.950 . S
C314 C309 1.363 . S
C314 C313 1.415 . S
C315 H291 0.951 . S
C315 C316 1.366 . S
C315 C317 1.388 . S
C316 C315 1.366 . S
C316 C320 1.385 . S
C317 H292 0.951 . S
C317 C315 1.388 . S
C317 C318 1.366 . S
C318 C317 1.366 . S
C318 C319 1.414 . S
C318 C321 1.499 . S
C319 H293 0.950 . S
C319 C318 1.414 . S
C319 C320 1.374 . S
C320 H294 0.950 . S
C320 C316 1.385 . S
C320 C319 1.374 . S
C321 C318 1.499 . S
C321 C322 1.373 . S
C321 C323 1.389 . S
C322 H295 0.950 . S
C322 C308 1.377 . S
C322 C321 1.373 . S
C323 C307 1.377 . S
C323 C321 1.389 . S
C323 C324 1.524 . S
C324 C323 1.524 . S
C324 C325 1.397 . S
C324 C329 1.363 . S
C325 H296 0.950 . S
C325 C324 1.397 . S
C325 C326 1.334 . S
C326 H297 0.950 . S
C326 C325 1.334 . S
C326 C327 1.287 . S
C327 C326 1.287 . S
C327 C328 1.524 . S
C327 H330 0.999 . S
C328 H298 0.950 . S
C328 C327 1.524 . S
C328 C329 1.415 . S
C329 H299 0.950 . S
C329 C324 1.363 . S
C329 C328 1.415 . S
H330 C327 0.999 . S
H331 C312 0.913 . S
H332 C350 0.951 . S
H333 C352 0.951 . S
H334 C354 0.950 . S
H335 C355 0.950 . S
H336 C357 0.950 . S
H337 C360 0.950 . S
H338 C361 0.950 . S
H339 C363 0.950 . S
H340 C364 0.950 . S
H341 C365 0.951 . S
H342 C367 0.951 . S
H343 C369 0.950 . S
H344 C370 0.950 . S
H345 C372 0.950 . S
H346 C375 0.950 . S
H347 C376 0.950 . S
H348 C378 0.950 . S
H349 C379 0.950 . S
C350 H332 0.951 . S
C350 C351 1.366 . S
C350 C352 1.388 . S
C351 C350 1.366 . S
C351 C355 1.385 . S
C352 H333 0.951 . S
C352 C350 1.388 . S
C352 C353 1.366 . S
C353 C352 1.366 . S
C353 C354 1.414 . S
C353 C356 1.499 . S
C354 H334 0.950 . S
C354 C353 1.414 . S
C354 C355 1.374 . S
C355 H335 0.950 . S
C355 C351 1.385 . S
C355 C354 1.374 . S
C356 C353 1.499 . S
C356 C357 1.373 . S
C356 C358 1.389 . S
C357 H336 0.950 . S
C357 C356 1.373 . S
C357 C373 1.377 . S
C358 C356 1.389 . S
C358 C359 1.524 . S
C358 C372 1.377 . S
C359 C358 1.524 . S
C359 C360 1.397 . S
C359 C364 1.363 . S
C360 H337 0.950 . S
C360 C359 1.397 . S
C360 C361 1.334 . S
C361 H338 0.950 . S
C361 C360 1.334 . S
C361 C362 1.287 . S
C362 C361 1.287 . S
C362 C363 1.524 . S
C362 H381 0.913 . S
C363 H339 0.950 . S
C363 C362 1.524 . S
C363 C364 1.415 . S
C364 H340 0.950 . S
C364 C359 1.363 . S
C364 C363 1.415 . S
C365 H341 0.951 . S
C365 C366 1.366 . S
C365 C367 1.388 . S
C366 C365 1.366 . S
C366 C370 1.385 . S
C367 H342 0.951 . S
C367 C365 1.388 . S
C367 C368 1.366 . S
C368 C367 1.366 . S
C368 C369 1.414 . S
C368 C371 1.499 . S
C369 H343 0.950 . S
C369 C368 1.414 . S
C369 C370 1.374 . S
C370 H344 0.950 . S
C370 C366 1.385 . S
C370 C369 1.374 . S
C371 C368 1.499 . S
C371 C372 1.373 . S
C371 C373 1.389 . S
C372 H345 0.950 . S
C372 C358 1.377 . S
C372 C371 1.373 . S
C373 C357 1.377 . S
C373 C371 1.389 . S
C373 C374 1.524 . S
C374 C373 1.524 . S
C374 C375 1.397 . S
C374 C379 1.363 . S
C375 H346 0.950 . S
C375 C374 1.397 . S
C375 C376 1.334 . S
C376 H347 0.950 . S
C376 C375 1.334 . S
C376 C377 1.287 . S
C377 C376 1.287 . S
C377 C378 1.524 . S
C377 H380 0.999 . S
C378 H348 0.950 . S
C378 C377 1.524 . S
C378 C379 1.415 . S
C379 H349 0.950 . S
C379 C374 1.363 . S
C379 C378 1.415 . S
H380 C377 0.999 . S
H381 C362 0.913 . S
H382 C400 0.951 . S
H383 C402 0.951 . S
H384 C404 0.950 . S
H385 C405 0.950 . S
H386 C407 0.950 . S
H387 C410 0.950 . S
H388 C411 0.950 . S
H389 C413 0.950 . S
H390 C414 0.950 . S
H391 C415 0.951 . S
H392 C417 0.951 . S
H393 C419 0.950 . S
H394 C420 0.950 . S
H395 C422 0.950 . S
H396 C425 0.950 . S
H397 C426 0.950 . S
H398 C428 0.950 . S
H399 C429 0.950 . S
C400 H382 0.951 . S
C400 C401 1.361 1_655 S
C400 C402 1.388 . S
C401 C400 1.361 1_455 S
C401 C405 1.390 . S
C402 H383 0.951 . S
C402 C400 1.388 . S
C402 C403 1.371 . S
C403 C402 1.371 . S
C403 C404 1.408 1_655 S
C403 C406 1.498 1_655 S
C404 H384 0.950 . S
C404 C403 1.408 1_455 S
C404 C405 1.374 . S
C405 H385 0.950 . S
C405 C401 1.390 . S
C405 C404 1.374 . S
C406 C403 1.498 1_455 S
C406 C407 1.384 . S
C406 C408 1.379 1_455 S
C407 H386 0.950 . S
C407 C406 1.384 . S
C407 C423 1.377 . S
C408 C406 1.379 1_655 S
C408 C409 1.524 . S
C408 C422 1.377 . S
C409 C408 1.524 . S
C409 C410 1.397 . S
C409 C414 1.363 . S
C410 H387 0.950 . S
C410 C409 1.397 . S
C410 C411 1.334 . S
C411 H388 0.950 . S
C411 C410 1.334 . S
C411 C412 1.287 . S
C412 C411 1.287 . S
C412 C413 1.524 . S
C412 H431 0.913 . S
C413 H389 0.950 . S
C413 C412 1.524 . S
C413 C414 1.415 . S
C414 H390 0.950 . S
C414 C409 1.363 . S
C414 C413 1.415 . S
C415 H391 0.951 . S
C415 C416 1.366 . S
C415 C417 1.388 . S
C416 C415 1.366 . S
C416 C420 1.385 1_455 S
C417 H392 0.951 . S
C417 C415 1.388 . S
C417 C418 1.366 . S
C418 C417 1.366 . S
C418 C419 1.414 1_455 S
C418 C421 1.499 . S
C419 H393 0.950 . S
C419 C418 1.414 1_655 S
C419 C420 1.374 . S
C420 H394 0.950 . S
C420 C416 1.385 1_655 S
C420 C419 1.374 . S
C421 C418 1.499 . S
C421 C422 1.373 1_455 S
C421 C423 1.389 . S
C422 H395 0.950 . S
C422 C408 1.377 . S
C422 C421 1.373 1_655 S
C423 C407 1.377 . S
C423 C421 1.389 . S
C423 C424 1.524 . S
C424 C423 1.524 . S
C424 C425 1.397 . S
C424 C429 1.363 . S
C425 H396 0.950 . S
C425 C424 1.397 . S
C425 C426 1.334 . S
C426 H397 0.950 . S
C426 C425 1.334 . S
C426 C427 1.287 . S
C427 C426 1.287 . S
C427 C428 1.524 . S
C427 H430 0.999 . S
C428 H398 0.950 . S
C428 C427 1.524 . S
C428 C429 1.415 . S
C429 H399 0.950 . S
C429 C424 1.363 . S
C429 C428 1.415 . S
H430 C427 0.999 . S
H431 C412 0.913 . S
H432 C450 0.951 . S
H433 C452 0.951 . S
H434 C454 0.950 . S
H435 C455 0.950 . S
H436 C457 0.950 . S
H437 C460 0.950 . S
H438 C461 0.950 . S
H439 C463 0.950 . S
H440 C464 0.950 . S
H441 C465 0.951 . S
H442 C467 0.951 . S
H443 C469 0.950 . S
H444 C470 0.950 . S
H445 C472 0.950 1_556 S
H446 C475 0.950 . S
H447 C476 0.950 . S
H448 C478 0.950 . S
H449 C479 0.950 . S
C450 H432 0.951 . S
C450 C451 1.369 1_545 S
C450 C452 1.388 . S
C451 C450 1.369 1_565 S
C451 C455 1.381 . S
C452 H433 0.951 . S
C452 C450 1.388 . S
C452 C453 1.375 . S
C453 C452 1.375 . S
C453 C454 1.404 1_545 S
C453 C456 1.498 1_545 S
C454 H434 0.950 . S
C454 C453 1.404 1_565 S
C454 C455 1.374 . S
C455 H435 0.950 . S
C455 C451 1.381 . S
C455 C454 1.374 . S
C456 C453 1.498 1_565 S
C456 C457 1.385 . S
C456 C458 1.378 1_565 S
C457 H436 0.950 . S
C457 C456 1.385 . S
C457 C473 1.377 . S
C458 C456 1.378 1_545 S
C458 C459 1.524 . S
C458 C472 1.377 . S
C459 C458 1.524 . S
C459 C460 1.397 . S
C459 C464 1.363 . S
C460 H437 0.950 . S
C460 C459 1.397 . S
C460 C461 1.334 . S
C461 H438 0.950 . S
C461 C460 1.334 . S
C461 C462 1.287 . S
C462 C461 1.287 . S
C462 C463 1.524 . S
C462 H481 0.913 . S
C463 H439 0.950 . S
C463 C462 1.524 . S
C463 C464 1.415 . S
C464 H440 0.950 . S
C464 C459 1.363 . S
C464 C463 1.415 . S
C465 H441 0.951 . S
C465 C466 1.366 . S
C465 C467 1.388 . S
C466 C465 1.366 . S
C466 C470 1.385 1_565 S
C467 H442 0.951 . S
C467 C465 1.388 . S
C467 C468 1.366 . S
C468 C467 1.366 . S
C468 C469 1.414 1_565 S
C468 C471 1.500 1_556 S
C469 H443 0.950 . S
C469 C468 1.414 1_545 S
C469 C470 1.374 . S
C470 H444 0.950 . S
C470 C466 1.385 1_545 S
C470 C469 1.374 . S
C471 C468 1.500 1_554 S
C471 C472 1.339 1_565 S
C471 C473 1.423 . S
C472 H445 0.950 1_554 S
C472 C458 1.377 . S
C472 C471 1.339 1_545 S
C473 C457 1.377 . S
C473 C471 1.423 . S
C473 C474 1.524 . S
C474 C473 1.524 . S
C474 C475 1.397 . S
C474 C479 1.363 . S
C475 H446 0.950 . S
C475 C474 1.397 . S
C475 C476 1.334 . S
C476 H447 0.950 . S
C476 C475 1.334 . S
C476 C477 1.287 . S
C477 C476 1.287 . S
C477 C478 1.524 . S
C477 H480 0.999 . S
C478 H448 0.950 . S
C478 C477 1.524 . S
C478 C479 1.415 . S
C479 H449 0.950 . S
C479 C474 1.363 . S
C479 C478 1.415 . S
H480 C477 0.999 . S
H481 C462 0.913 . S
H482 C500 0.951 . S
H483 C502 0.951 . S
H484 C504 0.950 . S
H485 C505 0.950 . S
H486 C507 0.950 . S
H487 C510 0.950 . S
H488 C511 0.950 . S
H489 C513 0.950 . S
H490 C514 0.950 . S
H491 C515 0.951 . S
H492 C517 0.951 . S
H493 C519 0.950 . S
H494 C520 0.950 . S
H495 C522 0.950 . S
H496 C525 0.950 . S
H497 C526 0.950 . S
H498 C528 0.950 . S
H499 C529 0.950 1_554 S
C500 H482 0.951 . S
C500 C501 1.366 . S
C500 C502 1.388 . S
C501 C500 1.366 . S
C501 C505 1.385 . S
C502 H483 0.951 . S
C502 C500 1.388 . S
C502 C503 1.366 . S
C503 C502 1.366 . S
C503 C504 1.414 . S
C503 C506 1.499 . S
C504 H484 0.950 . S
C504 C503 1.414 . S
C504 C505 1.374 . S
C505 H485 0.950 . S
C505 C501 1.385 . S
C505 C504 1.374 . S
C506 C503 1.499 . S
C506 C507 1.373 . S
C506 C508 1.389 . S
C507 H486 0.950 . S
C507 C506 1.373 . S
C507 C523 1.377 . S
C508 C506 1.389 . S
C508 C509 1.524 . S
C508 C522 1.377 . S
C509 C508 1.524 . S
C509 C510 1.397 . S
C509 C514 1.363 . S
C510 H487 0.950 . S
C510 C509 1.397 . S
C510 C511 1.334 . S
C511 H488 0.950 . S
C511 C510 1.334 . S
C511 C512 1.287 . S
C512 C511 1.287 . S
C512 C513 1.524 . S
C512 H531 0.913 . S
C513 H489 0.950 . S
C513 C512 1.524 . S
C513 C514 1.415 . S
C514 H490 0.950 . S
C514 C509 1.363 . S
C514 C513 1.415 . S
C515 H491 0.951 . S
C515 C516 1.366 . S
C515 C517 1.388 . S
C516 C515 1.366 . S
C516 C520 1.385 . S
C517 H492 0.951 . S
C517 C515 1.388 . S
C517 C518 1.366 . S
C518 C517 1.366 . S
C518 C519 1.414 . S
C518 C521 1.492 1_556 S
C519 H493 0.950 . S
C519 C518 1.414 . S
C519 C520 1.374 . S
C520 H494 0.950 . S
C520 C516 1.385 . S
C520 C519 1.374 . S
C521 C518 1.492 1_554 S
C521 C522 1.379 . S
C521 C523 1.391 . S
C522 H495 0.950 . S
C522 C508 1.377 . S
C522 C521 1.379 . S
C523 C507 1.377 . S
C523 C521 1.391 . S
C523 C524 1.524 1_554 S
C524 C523 1.524 1_556 S
C524 C525 1.397 . S
C524 C529 1.363 . S
C525 H496 0.950 . S
C525 C524 1.397 . S
C525 C526 1.334 . S
C526 H497 0.950 . S
C526 C525 1.334 . S
C526 C527 1.287 . S
C527 C526 1.287 . S
C527 C528 1.524 . S
C527 H530 0.999 . S
C528 H498 0.950 . S
C528 C527 1.524 . S
C528 C529 1.415 . S
C529 H499 0.950 1_556 S
C529 C524 1.363 . S
C529 C528 1.415 . S
H530 C527 0.999 . S
H531 C512 0.913 . S
H532 C550 0.951 . S
H533 C552 0.951 . S
H534 C554 0.950 . S
H535 C555 0.950 . S
H536 C557 0.950 . S
H537 C560 0.950 . S
H538 C561 0.950 . S
H539 C563 0.950 . S
H540 C564 0.950 . S
H541 C565 0.951 . S
H542 C567 0.951 . S
H543 C569 0.950 . S
H544 C570 0.950 . S
H545 C572 0.950 . S
H546 C575 0.950 . S
H547 C576 0.950 . S
H548 C578 0.950 . S
H549 C579 0.950 . S
C550 H532 0.951 . S
C550 C551 1.366 . S
C550 C552 1.388 . S
C551 C550 1.366 . S
C551 C555 1.385 . S
C552 H533 0.951 . S
C552 C550 1.388 . S
C552 C553 1.366 . S
C553 C552 1.366 . S
C553 C554 1.414 . S
C553 C556 1.499 . S
C554 H534 0.950 . S
C554 C553 1.414 . S
C554 C555 1.374 . S
C555 H535 0.950 . S
C555 C551 1.385 . S
C555 C554 1.374 . S
C556 C553 1.499 . S
C556 C557 1.373 . S
C556 C558 1.389 . S
C557 H536 0.950 . S
C557 C556 1.373 . S
C557 C573 1.377 . S
C558 C556 1.389 . S
C558 C559 1.524 . S
C558 C572 1.377 . S
C559 C558 1.524 . S
C559 C560 1.397 . S
C559 C564 1.363 . S
C560 H537 0.950 . S
C560 C559 1.397 . S
C560 C561 1.334 . S
C561 H538 0.950 . S
C561 C560 1.334 . S
C561 C562 1.287 . S
C562 C561 1.287 . S
C562 C563 1.524 . S
C562 H581 0.913 . S
C563 H539 0.950 . S
C563 C562 1.524 . S
C563 C564 1.415 . S
C564 H540 0.950 . S
C564 C559 1.363 . S
C564 C563 1.415 . S
C565 H541 0.951 . S
C565 C566 1.366 . S
C565 C567 1.388 . S
C566 C565 1.366 . S
C566 C570 1.385 . S
C567 H542 0.951 . S
C567 C565 1.388 . S
C567 C568 1.366 . S
C568 C567 1.366 . S
C568 C569 1.414 . S
C568 C571 1.493 1_556 S
C569 H543 0.950 . S
C569 C568 1.414 . S
C569 C570 1.374 . S
C570 H544 0.950 . S
C570 C566 1.385 . S
C570 C569 1.374 . S
C571 C568 1.493 1_554 S
C571 C572 1.379 . S
C571 C573 1.389 . S
C572 H545 0.950 . S
C572 C558 1.377 . S
C572 C571 1.379 . S
C573 C557 1.377 . S
C573 C571 1.389 . S
C573 C574 1.524 1_554 S
C574 C573 1.524 1_556 S
C574 C575 1.397 . S
C574 C579 1.363 . S
C575 H546 0.950 . S
C575 C574 1.397 . S
C575 C576 1.334 . S
C576 H547 0.950 . S
C576 C575 1.334 . S
C576 C577 1.287 . S
C577 C576 1.287 . S
C577 C578 1.524 . S
C577 H580 0.999 . S
C578 H548 0.950 . S
C578 C577 1.524 . S
C578 C579 1.415 . S
C579 H549 0.950 . S
C579 C574 1.363 . S
C579 C578 1.415 . S
H580 C577 0.999 . S
H581 C562 0.913 . S
H582 C600 0.951 . S
H583 C602 0.951 . S
H584 C604 0.950 . S
H585 C605 0.950 . S
H586 C607 0.950 . S
H587 C610 0.950 . S
H588 C611 0.950 . S
H589 C613 0.950 . S
H590 C614 0.950 . S
H591 C615 0.951 . S
H592 C617 0.951 . S
H593 C619 0.950 . S
H594 C620 0.950 . S
H595 C622 0.950 . S
H596 C625 0.950 . S
H597 C626 0.950 . S
H598 C628 0.950 . S
H599 C629 0.950 . S
C600 H582 0.951 . S
C600 C601 1.360 1_455 S
C600 C602 1.388 . S
C601 C600 1.360 1_655 S
C601 C605 1.391 . S
C602 H583 0.951 . S
C602 C600 1.388 . S
C602 C603 1.366 1_455 S
C603 C602 1.366 1_655 S
C603 C604 1.414 . S
C603 C606 1.499 . S
C604 H584 0.950 . S
C604 C603 1.414 . S
C604 C605 1.374 . S
C605 H585 0.950 . S
C605 C601 1.391 . S
C605 C604 1.374 . S
C606 C603 1.499 . S
C606 C607 1.373 . S
C606 C608 1.389 1_655 S
C607 H586 0.950 . S
C607 C606 1.373 . S
C607 C623 1.377 . S
C608 C606 1.389 1_455 S
C608 C609 1.524 . S
C608 C622 1.377 1_554 S
C609 C608 1.524 . S
C609 C610 1.397 1_455 S
C609 C614 1.363 1_554 S
C610 H587 0.950 . S
C610 C609 1.397 1_655 S
C610 C611 1.334 . S
C611 H588 0.950 . S
C611 C610 1.334 . S
C611 C612 1.287 1_654 S
C612 C611 1.287 1_456 S
C612 C613 1.524 . S
C612 H631 0.913 . S
C613 H589 0.950 . S
C613 C612 1.524 . S
C613 C614 1.415 . S
C614 H590 0.950 . S
C614 C609 1.363 1_556 S
C614 C613 1.415 . S
C615 H591 0.951 . S
C615 C616 1.366 . S
C615 C617 1.388 . S
C616 C615 1.366 . S
C616 C620 1.385 1_655 S
C617 H592 0.951 . S
C617 C615 1.388 . S
C617 C618 1.401 . S
C618 C617 1.401 . S
C618 C619 1.380 1_655 S
C618 C621 1.498 1_656 S
C619 H593 0.950 . S
C619 C618 1.380 1_455 S
C619 C620 1.374 . S
C620 H594 0.950 . S
C620 C616 1.385 1_455 S
C620 C619 1.374 . S
C621 C618 1.498 1_454 S
C621 C622 1.372 1_554 S
C621 C623 1.390 1_455 S
C622 H595 0.950 . S
C622 C608 1.377 1_556 S
C622 C621 1.372 1_556 S
C623 C607 1.377 . S
C623 C621 1.390 1_655 S
C623 C624 1.524 . S
C624 C623 1.524 . S
C624 C625 1.397 1_655 S
C624 C629 1.363 . S
C625 H596 0.950 . S
C625 C624 1.397 1_455 S
C625 C626 1.334 . S
C626 H597 0.950 . S
C626 C625 1.334 . S
C626 C627 1.287 1_455 S
C627 C626 1.287 1_655 S
C627 C628 1.524 . S
C627 H630 0.999 . S
C628 H598 0.950 . S
C628 C627 1.524 . S
C628 C629 1.415 . S
C629 H599 0.950 . S
C629 C624 1.363 . S
C629 C628 1.415 . S
H630 C627 0.999 . S
H631 C612 0.913 . S
H632 C650 0.951 . S
H633 C652 0.951 . S
H634 C654 0.950 . S
H635 C655 0.950 . S
H636 C657 0.950 . S
H637 C660 0.950 . S
H638 C661 0.950 . S
H639 C663 0.950 1_556 S
H640 C664 0.950 . S
H641 C665 0.951 . S
H642 C667 0.951 . S
H643 C669 0.950 . S
H644 C670 0.950 . S
H645 C672 0.950 . S
H646 C675 0.950 . S
H647 C676 0.950 . S
H648 C678 0.950 . S
H649 C679 0.950 . S
C650 H632 0.951 . S
C650 C651 1.366 . S
C650 C652 1.388 . S
C651 C650 1.366 . S
C651 C655 1.385 1_455 S
C652 H633 0.951 . S
C652 C650 1.388 . S
C652 C653 1.366 1_455 S
C653 C652 1.366 1_655 S
C653 C654 1.414 . S
C653 C656 1.499 . S
C654 H634 0.950 . S
C654 C653 1.414 . S
C654 C655 1.374 . S
C655 H635 0.950 . S
C655 C651 1.385 1_655 S
C655 C654 1.374 . S
C656 C653 1.499 . S
C656 C657 1.373 . S
C656 C658 1.389 . S
C657 H636 0.950 . S
C657 C656 1.373 . S
C657 C673 1.377 . S
C658 C656 1.389 . S
C658 C659 1.524 . S
C658 C672 1.377 . S
C659 C658 1.524 . S
C659 C660 1.397 . S
C659 C664 1.363 . S
C660 H637 0.950 . S
C660 C659 1.397 . S
C660 C661 1.334 . S
C661 H638 0.950 . S
C661 C660 1.334 . S
C661 C662 1.290 . S
C662 C661 1.290 . S
C662 C663 1.526 . S
C662 H681 0.908 1_554 S
C663 H639 0.950 1_554 S
C663 C662 1.526 . S
C663 C664 1.415 . S
C664 H640 0.950 . S
C664 C659 1.363 . S
C664 C663 1.415 . S
C665 H641 0.951 . S
C665 C666 1.366 . S
C665 C667 1.388 . S
C666 C665 1.366 . S
C666 C670 1.385 . S
C667 H642 0.951 . S
C667 C665 1.388 . S
C667 C668 1.366 . S
C668 C667 1.366 . S
C668 C669 1.414 . S
C668 C671 1.499 . S
C669 H643 0.950 . S
C669 C668 1.414 . S
C669 C670 1.374 . S
C670 H644 0.950 . S
C670 C666 1.385 . S
C670 C669 1.374 . S
C671 C668 1.499 . S
C671 C672 1.373 . S
C671 C673 1.389 . S
C672 H645 0.950 . S
C672 C658 1.377 . S
C672 C671 1.373 . S
C673 C657 1.377 . S
C673 C671 1.389 . S
C673 C674 1.524 . S
C674 C673 1.524 . S
C674 C675 1.397 1_655 S
C674 C679 1.363 . S
C675 H646 0.950 . S
C675 C674 1.397 1_455 S
C675 C676 1.334 . S
C676 H647 0.950 . S
C676 C675 1.334 . S
C676 C677 1.287 . S
C677 C676 1.287 . S
C677 C678 1.524 1_455 S
C677 H680 0.999 . S
C678 H648 0.950 . S
C678 C677 1.524 1_655 S
C678 C679 1.415 . S
C679 H649 0.950 . S
C679 C674 1.363 . S
C679 C678 1.415 . S
H680 C677 0.999 . S
H681 C662 0.908 1_556 S
H682 C700 0.951 . S
H683 C702 0.951 . S
H684 C704 0.950 . S
H685 C705 0.950 . S
H686 C707 0.950 . S
H687 C710 0.950 . S
H688 C711 0.950 . S
H689 C713 0.950 . S
H690 C714 0.950 . S
H691 C715 0.951 . S
H692 C717 0.961 . S
H693 C719 0.950 . S
H694 C720 0.950 . S
H695 C722 0.950 . S
H696 C725 0.950 1_565 S
H697 C726 0.950 . S
H698 C728 0.950 . S
H699 C729 0.950 . S
C700 H682 0.951 . S
C700 C701 1.366 1_565 S
C700 C702 1.388 . S
C701 C700 1.366 1_545 S
C701 C705 1.385 . S
C702 H683 0.951 . S
C702 C700 1.388 . S
C702 C703 1.366 . S
C703 C702 1.366 . S
C703 C704 1.414 1_565 S
C703 C706 1.499 . S
C704 H684 0.950 . S
C704 C703 1.414 1_545 S
C704 C705 1.374 . S
C705 H685 0.950 . S
C705 C701 1.385 . S
C705 C704 1.374 . S
C706 C703 1.499 . S
C706 C707 1.373 1_565 S
C706 C708 1.389 . S
C707 H686 0.950 . S
C707 C706 1.373 1_545 S
C707 C723 1.377 1_545 S
C708 C706 1.389 . S
C708 C709 1.524 . S
C708 C722 1.377 . S
C709 C708 1.524 . S
C709 C710 1.397 . S
C709 C714 1.363 . S
C710 H687 0.950 . S
C710 C709 1.397 . S
C710 C711 1.334 . S
C711 H688 0.950 . S
C711 C710 1.334 . S
C711 C712 1.287 . S
C712 C711 1.287 . S
C712 C713 1.524 . S
C712 H731 0.913 . S
C713 H689 0.950 . S
C713 C712 1.524 . S
C713 C714 1.415 . S
C714 H690 0.950 . S
C714 C709 1.363 . S
C714 C713 1.415 . S
C715 H691 0.951 . S
C715 C716 1.366 . S
C715 C717 1.388 . S
C716 C715 1.366 . S
C716 C720 1.385 . S
C717 H692 0.961 . S
C717 C715 1.388 . S
C717 C718 1.366 . S
C718 C717 1.366 . S
C718 C719 1.414 . S
C718 C721 1.499 . S
C719 H693 0.950 . S
C719 C718 1.414 . S
C719 C720 1.374 . S
C720 H694 0.950 . S
C720 C716 1.385 . S
C720 C719 1.374 . S
C721 C718 1.499 . S
C721 C722 1.373 . S
C721 C723 1.389 . S
C722 H695 0.950 . S
C722 C708 1.377 . S
C722 C721 1.373 . S
C723 C707 1.377 1_565 S
C723 C721 1.389 . S
C723 C724 1.524 1_565 S
C724 C723 1.524 1_545 S
C724 C725 1.397 . S
C724 C729 1.363 . S
C725 H696 0.950 1_545 S
C725 C724 1.397 . S
C725 C726 1.334 . S
C726 H697 0.950 . S
C726 C725 1.334 . S
C726 C727 1.287 . S
C727 C726 1.287 . S
C727 C728 1.524 . S
C727 H730 0.999 . S
C728 H698 0.950 . S
C728 C727 1.524 . S
C728 C729 1.415 . S
C729 H699 0.950 . S
C729 C724 1.363 . S
C729 C728 1.415 . S
H730 C727 0.999 . S
H731 C712 0.913 . S
H732 C750 0.951 . S
H733 C752 0.951 . S
H734 C754 0.950 . S
H735 C755 0.950 . S
H736 C757 0.950 . S
H737 C760 0.950 . S
H738 C761 0.950 . S
H739 C763 0.950 . S
H740 C764 0.950 . S
H741 C765 0.951 . S
H742 C767 0.951 . S
H743 C769 0.950 . S
H744 C770 0.950 . S
H745 C772 0.950 . S
H746 C775 0.950 . S
H747 C776 0.950 . S
H748 C778 0.950 . S
H749 C779 0.950 . S
C750 H732 0.951 . S
C750 C751 1.366 . S
C750 C752 1.388 . S
C751 C750 1.366 . S
C751 C755 1.385 . S
C752 H733 0.951 . S
C752 C750 1.388 . S
C752 C753 1.366 . S
C753 C752 1.366 . S
C753 C754 1.414 . S
C753 C756 1.499 . S
C754 H734 0.950 . S
C754 C753 1.414 . S
C754 C755 1.374 . S
C755 H735 0.950 . S
C755 C751 1.385 . S
C755 C754 1.374 . S
C756 C753 1.499 . S
C756 C757 1.373 . S
C756 C758 1.389 . S
C757 H736 0.950 . S
C757 C756 1.373 . S
C757 C773 1.377 . S
C758 C756 1.389 . S
C758 C759 1.524 . S
C758 C772 1.377 . S
C759 C758 1.524 . S
C759 C760 1.397 . S
C759 C764 1.363 . S
C760 H737 0.950 . S
C760 C759 1.397 . S
C760 C761 1.334 . S
C761 H738 0.950 . S
C761 C760 1.334 . S
C761 C762 1.287 . S
C762 C761 1.287 . S
C762 C763 1.524 . S
C762 H781 0.913 . S
C763 H739 0.950 . S
C763 C762 1.524 . S
C763 C764 1.415 . S
C764 H740 0.950 . S
C764 C759 1.363 . S
C764 C763 1.415 . S
C765 H741 0.951 . S
C765 C766 1.366 . S
C765 C767 1.388 . S
C766 C765 1.366 . S
C766 C770 1.385 . S
C767 H742 0.951 . S
C767 C765 1.388 . S
C767 C768 1.366 . S
C768 C767 1.366 . S
C768 C769 1.414 . S
C768 C771 1.499 . S
C769 H743 0.950 . S
C769 C768 1.414 . S
C769 C770 1.374 . S
C770 H744 0.950 . S
C770 C766 1.385 . S
C770 C769 1.374 . S
C771 C768 1.499 . S
C771 C772 1.373 . S
C771 C773 1.389 . S
C772 H745 0.950 . S
C772 C758 1.377 . S
C772 C771 1.373 . S
C773 C757 1.377 . S
C773 C771 1.389 . S
C773 C774 1.524 . S
C774 C773 1.524 . S
C774 C775 1.397 . S
C774 C779 1.363 . S
C775 H746 0.950 . S
C775 C774 1.397 . S
C775 C776 1.334 . S
C776 H747 0.950 . S
C776 C775 1.334 . S
C776 C777 1.287 . S
C777 C776 1.287 . S
C777 C778 1.524 . S
C777 H780 0.999 . S
C778 H748 0.950 . S
C778 C777 1.524 . S
C778 C779 1.415 . S
C779 H749 0.950 . S
C779 C774 1.363 . S
C779 C778 1.415 . S
H780 C777 0.999 . S
H781 C762 0.913 . S
H782 C800 0.951 . S
H783 C802 0.951 . S
H784 C804 0.950 . S
H785 C805 0.950 . S
H786 C807 0.950 . S
H787 C810 0.950 . S
H788 C811 0.950 . S
H789 C813 0.950 . S
H790 C814 0.950 . S
H791 C815 0.951 . S
H792 C817 0.951 . S
H793 C819 0.950 . S
H794 C820 0.950 . S
H795 C822 0.950 . S
H796 C825 0.950 . S
H797 C826 0.950 . S
H798 C828 0.950 . S
H799 C829 0.950 . S
C800 H782 0.951 . S
C800 C801 1.366 . S
C800 C802 1.388 . S
C801 C800 1.366 . S
C801 C805 1.385 . S
C802 H783 0.951 . S
C802 C800 1.388 . S
C802 C803 1.366 . S
C803 C802 1.366 . S
C803 C804 1.414 . S
C803 C806 1.499 . S
C804 H784 0.950 . S
C804 C803 1.414 . S
C804 C805 1.374 . S
C805 H785 0.950 . S
C805 C801 1.385 . S
C805 C804 1.374 . S
C806 C803 1.499 . S
C806 C807 1.373 . S
C806 C808 1.389 . S
C807 H786 0.950 . S
C807 C806 1.373 . S
C807 C823 1.377 . S
C808 C806 1.389 . S
C808 C809 1.524 . S
C808 C822 1.377 . S
C809 C808 1.524 . S
C809 C810 1.397 . S
C809 C814 1.363 . S
C810 H787 0.950 . S
C810 C809 1.397 . S
C810 C811 1.334 . S
C811 H788 0.950 . S
C811 C810 1.334 . S
C811 C812 1.287 . S
C812 C811 1.287 . S
C812 C813 1.524 . S
C812 H831 0.913 . S
C813 H789 0.950 . S
C813 C812 1.524 . S
C813 C814 1.415 . S
C814 H790 0.950 . S
C814 C809 1.363 . S
C814 C813 1.415 . S
C815 H791 0.951 . S
C815 C816 1.366 . S
C815 C817 1.388 . S
C816 C815 1.366 . S
C816 C820 1.385 . S
C817 H792 0.951 . S
C817 C815 1.388 . S
C817 C818 1.366 . S
C818 C817 1.366 . S
C818 C819 1.414 . S
C818 C821 1.499 . S
C819 H793 0.950 . S
C819 C818 1.414 . S
C819 C820 1.374 . S
C820 H794 0.950 . S
C820 C816 1.385 . S
C820 C819 1.374 . S
C821 C818 1.499 . S
C821 C822 1.373 . S
C821 C823 1.389 . S
C822 H795 0.950 . S
C822 C808 1.377 . S
C822 C821 1.373 . S
C823 C807 1.377 . S
C823 C821 1.389 . S
C823 C824 1.524 . S
C824 C823 1.524 . S
C824 C825 1.397 . S
C824 C829 1.363 . S
C825 H796 0.950 . S
C825 C824 1.397 . S
C825 C826 1.334 . S
C826 H797 0.950 . S
C826 C825 1.334 . S
C826 C827 1.287 . S
C827 C826 1.287 . S
C827 C828 1.524 . S
C827 H830 0.999 . S
C828 H798 0.950 . S
C828 C827 1.524 . S
C828 C829 1.415 . S
C829 H799 0.950 . S
C829 C824 1.363 . S
C829 C828 1.415 . S
H830 C827 0.999 . S
H831 C812 0.913 . S
H832 C850 0.951 . S
H833 C852 0.951 . S
H834 C854 0.950 . S
H835 C855 0.950 . S
H836 C857 0.950 . S
H837 C860 0.950 . S
H838 C861 0.950 . S
H839 C863 0.950 . S
H840 C864 0.950 . S
H841 C865 0.951 . S
H842 C867 0.951 . S
H843 C869 0.950 . S
H844 C870 0.948 1_554 S
H845 C872 0.950 . S
H846 C875 0.950 . S
H847 C876 0.950 . S
H848 C878 0.950 1_655 S
H849 C879 0.950 1_655 S
C850 H832 0.951 . S
C850 C851 1.366 1_455 S
C850 C852 1.388 . S
C851 C850 1.366 1_655 S
C851 C855 1.385 . S
C852 H833 0.951 . S
C852 C850 1.388 . S
C852 C853 1.366 . S
C853 C852 1.366 . S
C853 C854 1.414 1_455 S
C853 C856 1.499 . S
C854 H834 0.950 . S
C854 C853 1.414 1_655 S
C854 C855 1.374 . S
C855 H835 0.950 . S
C855 C851 1.385 . S
C855 C854 1.374 . S
C856 C853 1.499 . S
C856 C857 1.373 . S
C856 C858 1.389 . S
C857 H836 0.950 . S
C857 C856 1.373 . S
C857 C873 1.377 . S
C858 C856 1.389 . S
C858 C859 1.524 . S
C858 C872 1.377 . S
C859 C858 1.524 . S
C859 C860 1.397 1_455 S
C859 C864 1.363 . S
C860 H837 0.950 . S
C860 C859 1.397 1_655 S
C860 C861 1.334 . S
C861 H838 0.950 . S
C861 C860 1.334 . S
C861 C862 1.287 1_655 S
C862 C861 1.287 1_455 S
C862 C863 1.524 . S
C862 H881 0.913 . S
C863 H839 0.950 . S
C863 C862 1.524 . S
C863 C864 1.415 . S
C864 H840 0.950 . S
C864 C859 1.363 . S
C864 C863 1.415 . S
C865 H841 0.951 . S
C865 C866 1.366 . S
C865 C867 1.388 . S
C866 C865 1.366 . S
C866 C870 1.392 . S
C867 H842 0.951 . S
C867 C865 1.388 . S
C867 C868 1.366 1_556 S
C868 C867 1.366 1_554 S
C868 C869 1.414 . S
C868 C871 1.499 . S
C869 H843 0.950 . S
C869 C868 1.414 . S
C869 C870 1.368 1_554 S
C870 H844 0.948 1_556 S
C870 C866 1.392 . S
C870 C869 1.368 1_556 S
C871 C868 1.499 . S
C871 C872 1.373 . S
C871 C873 1.389 . S
C872 H845 0.950 . S
C872 C858 1.377 . S
C872 C871 1.373 . S
C873 C857 1.377 . S
C873 C871 1.389 . S
C873 C874 1.524 1_554 S
C874 C873 1.524 1_556 S
C874 C875 1.397 . S
C874 C879 1.363 . S
C875 H846 0.950 . S
C875 C874 1.397 . S
C875 C876 1.334 . S
C876 H847 0.950 . S
C876 C875 1.334 . S
C876 C877 1.287 . S
C877 C876 1.287 . S
C877 C878 1.524 . S
C877 H880 0.999 . S
C878 H848 0.950 1_455 S
C878 C877 1.524 . S
C878 C879 1.415 . S
C879 H849 0.950 1_455 S
C879 C874 1.363 . S
C879 C878 1.415 . S
H880 C877 0.999 . S
H881 C862 0.913 . S
H882 C900 0.951 . S
H883 C902 0.959 . S
H884 C904 0.950 . S
H885 C905 0.950 . S
H886 C907 0.930 1_565 S
H887 C910 0.950 . S
H888 C911 0.950 . S
H889 C913 0.950 . S
H890 C914 0.950 1_556 S
H891 C915 0.951 . S
H892 C917 0.951 . S
H893 C919 0.950 . S
H894 C920 0.950 . S
H895 C922 0.950 . S
H896 C925 0.950 . S
H897 C926 0.950 . S
H898 C928 0.950 . S
H899 C929 0.950 . S
C900 H882 0.951 . S
C900 C901 1.366 . S
C900 C902 1.397 . S
C901 C900 1.366 . S
C901 C905 1.385 1_565 S
C902 H883 0.959 . S
C902 C900 1.397 . S
C902 C903 1.350 1_565 S
C903 C902 1.350 1_545 S
C903 C904 1.414 . S
C903 C906 1.499 . S
C904 H884 0.950 . S
C904 C903 1.414 . S
C904 C905 1.374 . S
C905 H885 0.950 . S
C905 C901 1.385 1_545 S
C905 C904 1.374 . S
C906 C903 1.499 . S
C906 C907 1.373 . S
C906 C908 1.389 . S
C907 H886 0.930 1_545 S
C907 C906 1.373 . S
C907 C923 1.377 . S
C908 C906 1.389 . S
C908 C909 1.524 . S
C908 C922 1.377 . S
C909 C908 1.524 . S
C909 C910 1.397 . S
C909 C914 1.363 . S
C910 H887 0.950 . S
C910 C909 1.397 . S
C910 C911 1.334 . S
C911 H888 0.950 . S
C911 C910 1.334 . S
C911 C912 1.287 . S
C912 C911 1.287 . S
C912 C913 1.524 1_554 S
C912 H931 0.913 . S
C913 H889 0.950 . S
C913 C912 1.524 1_556 S
C913 C914 1.415 1_556 S
C914 H890 0.950 1_554 S
C914 C909 1.363 . S
C914 C913 1.415 1_554 S
C915 H891 0.951 . S
C915 C916 1.366 1_554 S
C915 C917 1.388 . S
C916 C915 1.366 1_556 S
C916 C920 1.385 . S
C917 H892 0.951 . S
C917 C915 1.388 . S
C917 C918 1.366 . S
C918 C917 1.366 . S
C918 C919 1.414 1_554 S
C918 C921 1.499 . S
C919 H893 0.950 . S
C919 C918 1.414 1_556 S
C919 C920 1.374 . S
C920 H894 0.950 . S
C920 C916 1.385 . S
C920 C919 1.374 . S
C921 C918 1.499 . S
C921 C922 1.373 . S
C921 C923 1.389 . S
C922 H895 0.950 . S
C922 C908 1.377 . S
C922 C921 1.373 . S
C923 C907 1.377 . S
C923 C921 1.389 . S
C923 C924 1.503 1_545 S
C924 C923 1.503 1_565 S
C924 C925 1.431 . S
C924 C929 1.356 1_565 S
C925 H896 0.950 . S
C925 C924 1.431 . S
C925 C926 1.334 . S
C926 H897 0.950 . S
C926 C925 1.334 . S
C926 C927 1.287 . S
C927 C926 1.287 . S
C927 C928 1.524 . S
C927 H930 0.999 . S
C928 H898 0.950 . S
C928 C927 1.524 . S
C928 C929 1.415 1_565 S
C929 H899 0.950 . S
C929 C924 1.356 1_545 S
C929 C928 1.415 1_545 S
H930 C927 0.999 . S
H931 C912 0.913 . S
H932 C950 0.951 . S
H933 C952 0.951 . S
H934 C954 0.950 . S
H935 C955 0.950 . S
H936 C957 0.950 . S
H937 C960 0.950 . S
H938 C961 0.950 . S
H939 C963 0.950 . S
H940 C964 0.950 . S
H941 C965 0.951 . S
H942 C967 0.951 . S
H943 C969 0.950 . S
H944 C970 0.950 . S
H945 C972 0.950 . S
H946 C975 0.950 . S
H947 C976 0.950 . S
H948 C978 0.950 . S
H949 C979 0.950 . S
C950 H932 0.951 . S
C950 C951 1.366 . S
C950 C952 1.388 . S
C951 C950 1.366 . S
C951 C955 1.385 . S
C952 H933 0.951 . S
C952 C950 1.388 . S
C952 C953 1.366 . S
C953 C952 1.366 . S
C953 C954 1.414 . S
C953 C956 1.499 . S
C954 H934 0.950 . S
C954 C953 1.414 . S
C954 C955 1.374 . S
C955 H935 0.950 . S
C955 C951 1.385 . S
C955 C954 1.374 . S
C956 C953 1.499 . S
C956 C957 1.373 . S
C956 C958 1.389 . S
C957 H936 0.950 . S
C957 C956 1.373 . S
C957 C973 1.377 . S
C958 C956 1.389 . S
C958 C959 1.524 . S
C958 C972 1.377 . S
C959 C958 1.524 . S
C959 C960 1.397 . S
C959 C964 1.363 . S
C960 H937 0.950 . S
C960 C959 1.397 . S
C960 C961 1.334 . S
C961 H938 0.950 . S
C961 C960 1.334 . S
C961 C962 1.287 . S
C962 C961 1.287 . S
C962 C963 1.524 . S
C962 H981 0.913 . S
C963 H939 0.950 . S
C963 C962 1.524 . S
C963 C964 1.415 . S
C964 H940 0.950 . S
C964 C959 1.363 . S
C964 C963 1.415 . S
C965 H941 0.951 . S
C965 C966 1.366 . S
C965 C967 1.388 1_556 S
C966 C965 1.366 . S
C966 C970 1.385 . S
C967 H942 0.951 . S
C967 C965 1.388 1_554 S
C967 C968 1.366 . S
C968 C967 1.366 . S
C968 C969 1.414 . S
C968 C971 1.499 . S
C969 H943 0.950 . S
C969 C968 1.414 . S
C969 C970 1.374 1_554 S
C970 H944 0.950 . S
C970 C966 1.385 . S
C970 C969 1.374 1_556 S
C971 C968 1.499 . S
C971 C972 1.373 . S
C971 C973 1.389 . S
C972 H945 0.950 . S
C972 C958 1.377 . S
C972 C971 1.373 . S
C973 C957 1.377 . S
C973 C971 1.389 . S
C973 C974 1.524 1_554 S
C974 C973 1.524 1_556 S
C974 C975 1.397 . S
C974 C979 1.363 1_556 S
C975 H946 0.950 . S
C975 C974 1.397 . S
C975 C976 1.334 . S
C976 H947 0.950 . S
C976 C975 1.334 . S
C976 C977 1.287 . S
C977 C976 1.287 . S
C977 C978 1.524 . S
C977 H980 0.999 . S
C978 H948 0.950 . S
C978 C977 1.524 . S
C978 C979 1.415 1_556 S
C979 H949 0.950 . S
C979 C974 1.363 1_554 S
C979 C978 1.415 1_554 S
H980 C977 0.999 . S
H981 C962 0.913 . S
H982 C1000 0.951 . S
H983 C1002 0.951 . S
H984 C1004 0.950 . S
H985 C1005 0.950 . S
H986 C1007 0.950 . S
H987 C1010 0.950 . S
H988 C1011 0.950 . S
H989 C1013 0.950 . S
H990 C1014 0.950 . S
H991 C1015 0.951 . S
H992 C1017 0.951 . S
H993 C1019 0.950 . S
H994 C1020 0.950 . S
H995 C1022 0.950 . S
H996 C1025 0.950 . S
H997 C1026 0.950 . S
H998 C1028 0.950 . S
H999 C1029 0.950 . S
C1000 H982 0.951 . S
C1000 C1001 1.366 . S
C1000 C1002 1.388 . S
C1001 C1000 1.366 . S
C1001 C1005 1.385 . S
C1002 H983 0.951 . S
C1002 C1000 1.388 . S
C1002 C1003 1.366 . S
C1003 C1002 1.366 . S
C1003 C1004 1.414 . S
C1003 C1006 1.499 . S
C1004 H984 0.950 . S
C1004 C1003 1.414 . S
C1004 C1005 1.374 . S
C1005 H985 0.950 . S
C1005 C1001 1.385 . S
C1005 C1004 1.374 . S
C1006 C1003 1.499 . S
C1006 C1007 1.373 . S
C1006 C1008 1.389 . S
C1007 H986 0.950 . S
C1007 C1006 1.373 . S
C1007 C1023 1.377 . S
C1008 C1006 1.389 . S
C1008 C1009 1.524 . S
C1008 C1022 1.377 . S
C1009 C1008 1.524 . S
C1009 C1010 1.397 . S
C1009 C1014 1.363 . S
C1010 H987 0.950 . S
C1010 C1009 1.397 . S
C1010 C1011 1.334 . S
C1011 H988 0.950 . S
C1011 C1010 1.334 . S
C1011 C1012 1.287 . S
C1012 C1011 1.287 . S
C1012 C1013 1.524 . S
C1012 H1031 0.913 . S
C1013 H989 0.950 . S
C1013 C1012 1.524 . S
C1013 C1014 1.415 . S
C1014 H990 0.950 . S
C1014 C1009 1.363 . S
C1014 C1013 1.415 . S
C1015 H991 0.951 . S
C1015 C1016 1.367 1_554 S
C1015 C1017 1.387 . S
C1016 C1015 1.367 1_556 S
C1016 C1020 1.385 . S
C1017 H992 0.951 . S
C1017 C1015 1.387 . S
C1017 C1018 1.366 . S
C1018 C1017 1.366 . S
C1018 C1019 1.414 1_554 S
C1018 C1021 1.499 . S
C1019 H993 0.950 . S
C1019 C1018 1.414 1_556 S
C1019 C1020 1.374 . S
C1020 H994 0.950 . S
C1020 C1016 1.385 . S
C1020 C1019 1.374 . S
C1021 C1018 1.499 . S
C1021 C1022 1.373 . S
C1021 C1023 1.389 . S
C1022 H995 0.950 . S
C1022 C1008 1.377 . S
C1022 C1021 1.373 . S
C1023 C1007 1.377 . S
C1023 C1021 1.389 . S
C1023 C1024 1.524 . S
C1024 C1023 1.524 . S
C1024 C1025 1.397 1_554 S
C1024 C1029 1.363 . S
C1025 H996 0.950 . S
C1025 C1024 1.397 1_556 S
C1025 C1026 1.334 . S
C1026 H997 0.950 . S
C1026 C1025 1.334 . S
C1026 C1027 1.287 . S
C1027 C1026 1.287 . S
C1027 C1028 1.524 1_556 S
C1027 H1030 0.999 . S
C1028 H998 0.950 . S
C1028 C1027 1.524 1_554 S
C1028 C1029 1.415 . S
C1029 H999 0.950 . S
C1029 C1024 1.363 . S
C1029 C1028 1.415 . S
H1030 C1027 0.999 . S
H1031 C1012 0.913 . S
H1032 C1050 0.951 . S
H1033 C1052 0.951 . S
H1034 C1054 0.950 . S
H1035 C1055 0.950 . S
H1036 C1057 0.950 . S
H1037 C1060 0.950 1_655 S
H1038 C1061 0.950 . S
H1039 C1063 0.950 . S
H1040 C1064 0.950 . S
H1041 C1065 0.951 . S
H1042 C1067 0.951 . S
H1043 C1069 0.950 . S
H1044 C1070 0.950 . S
H1045 C1072 0.950 . S
H1046 C1075 0.909 1_455 S
H1047 C1076 0.930 1_455 S
H1048 C1078 0.950 . S
H1049 C1079 0.950 . S
C1050 H1032 0.951 . S
C1050 C1051 1.366 . S
C1050 C1052 1.388 . S
C1051 C1050 1.366 . S
C1051 C1055 1.385 1_455 S
C1052 H1033 0.951 . S
C1052 C1050 1.388 . S
C1052 C1053 1.366 . S
C1053 C1052 1.366 . S
C1053 C1054 1.414 1_455 S
C1053 C1056 1.499 . S
C1054 H1034 0.950 . S
C1054 C1053 1.414 1_655 S
C1054 C1055 1.374 . S
C1055 H1035 0.950 . S
C1055 C1051 1.385 1_655 S
C1055 C1054 1.374 . S
C1056 C1053 1.499 . S
C1056 C1057 1.373 1_455 S
C1056 C1058 1.389 . S
C1057 H1036 0.950 . S
C1057 C1056 1.373 1_655 S
C1057 C1073 1.377 . S
C1058 C1056 1.389 . S
C1058 C1059 1.524 . S
C1058 C1072 1.377 . S
C1059 C1058 1.524 . S
C1059 C1060 1.397 . S
C1059 C1064 1.363 . S
C1060 H1037 0.950 1_455 S
C1060 C1059 1.397 . S
C1060 C1061 1.334 . S
C1061 H1038 0.950 . S
C1061 C1060 1.334 . S
C1061 C1062 1.287 . S
C1062 C1061 1.287 . S
C1062 C1063 1.524 . S
C1062 H1081 0.913 . S
C1063 H1039 0.950 . S
C1063 C1062 1.524 . S
C1063 C1064 1.415 . S
C1064 H1040 0.950 . S
C1064 C1059 1.363 . S
C1064 C1063 1.415 . S
C1065 H1041 0.951 . S
C1065 C1066 1.366 1_655 S
C1065 C1067 1.388 . S
C1066 C1065 1.366 1_455 S
C1066 C1070 1.385 . S
C1067 H1042 0.951 . S
C1067 C1065 1.388 . S
C1067 C1068 1.366 1_655 S
C1068 C1067 1.366 1_455 S
C1068 C1069 1.414 . S
C1068 C1071 1.499 . S
C1069 H1043 0.950 . S
C1069 C1068 1.414 . S
C1069 C1070 1.374 . S
C1070 H1044 0.950 . S
C1070 C1066 1.385 . S
C1070 C1069 1.374 . S
C1071 C1068 1.499 . S
C1071 C1072 1.373 . S
C1071 C1073 1.389 1_455 S
C1072 H1045 0.950 . S
C1072 C1058 1.377 . S
C1072 C1071 1.373 . S
C1073 C1057 1.377 . S
C1073 C1071 1.389 1_655 S
C1073 C1074 1.524 . S
C1074 C1073 1.524 . S
C1074 C1075 1.422 . S
C1074 C1079 1.363 . S
C1075 H1046 0.909 1_655 S
C1075 C1074 1.422 . S
C1075 C1076 1.349 1_556 S
C1076 H1047 0.930 1_655 S
C1076 C1075 1.349 1_554 S
C1076 C1077 1.287 . S
C1077 C1076 1.287 . S
C1077 C1078 1.524 . S
C1077 H1080 0.999 . S
C1078 H1048 0.950 . S
C1078 C1077 1.524 . S
C1078 C1079 1.415 1_554 S
C1079 H1049 0.950 . S
C1079 C1074 1.363 . S
C1079 C1078 1.415 1_556 S
H1080 C1077 0.999 . S
H1081 C1062 0.913 . S
H1082 C1100 0.951 1_554 S
H1083 C1102 0.951 . S
H1084 C1104 0.952 . S
H1085 C1105 0.950 1_565 S
H1086 C1107 0.950 . S
H1087 C1110 0.950 . S
H1088 C1111 0.950 . S
H1089 C1113 0.950 . S
H1090 C1114 0.950 1_554 S
H1091 C1115 0.951 . S
H1092 C1117 0.951 . S
H1093 C1119 0.950 . S
H1094 C1120 0.950 . S
H1095 C1122 0.950 . S
H1096 C1125 0.950 . S
H1097 C1126 0.950 . S
H1098 C1128 0.950 . S
H1099 C1129 0.950 . S
C1100 H1082 0.951 1_556 S
C1100 C1101 1.366 . S
C1100 C1102 1.388 . S
C1101 C1100 1.366 . S
C1101 C1105 1.385 . S
C1102 H1083 0.951 . S
C1102 C1100 1.388 . S
C1102 C1103 1.366 . S
C1103 C1102 1.366 . S
C1103 C1104 1.414 . S
C1103 C1106 1.499 . S
C1104 H1084 0.952 . S
C1104 C1103 1.414 . S
C1104 C1105 1.374 . S
C1105 H1085 0.950 1_545 S
C1105 C1101 1.385 . S
C1105 C1104 1.374 . S
C1106 C1103 1.499 . S
C1106 C1107 1.373 1_545 S
C1106 C1108 1.389 . S
C1107 H1086 0.950 . S
C1107 C1106 1.373 1_565 S
C1107 C1123 1.377 . S
C1108 C1106 1.389 . S
C1108 C1109 1.524 . S
C1108 C1122 1.377 . S
C1109 C1108 1.524 . S
C1109 C1110 1.397 . S
C1109 C1114 1.363 . S
C1110 H1087 0.950 . S
C1110 C1109 1.397 . S
C1110 C1111 1.334 . S
C1111 H1088 0.950 . S
C1111 C1110 1.334 . S
C1111 C1112 1.287 . S
C1112 C1111 1.287 . S
C1112 C1113 1.524 1_556 S
C1112 H1131 0.913 1_556 S
C1113 H1089 0.950 . S
C1113 C1112 1.524 1_554 S
C1113 C1114 1.415 1_554 S
C1114 H1090 0.950 1_556 S
C1114 C1109 1.363 . S
C1114 C1113 1.415 1_556 S
C1115 H1091 0.951 . S
C1115 C1116 1.366 . S
C1115 C1117 1.388 . S
C1116 C1115 1.366 . S
C1116 C1120 1.385 . S
C1117 H1092 0.951 . S
C1117 C1115 1.388 . S
C1117 C1118 1.366 . S
C1118 C1117 1.366 . S
C1118 C1119 1.414 . S
C1118 C1121 1.499 . S
C1119 H1093 0.950 . S
C1119 C1118 1.414 . S
C1119 C1120 1.374 . S
C1120 H1094 0.950 . S
C1120 C1116 1.385 . S
C1120 C1119 1.374 . S
C1121 C1118 1.499 . S
C1121 C1122 1.373 . S
C1121 C1123 1.389 1_545 S
C1122 H1095 0.950 . S
C1122 C1108 1.377 . S
C1122 C1121 1.373 . S
C1123 C1107 1.377 . S
C1123 C1121 1.389 1_565 S
C1123 C1124 1.524 . S
C1124 C1123 1.524 . S
C1124 C1125 1.397 . S
C1124 C1129 1.363 . S
C1125 H1096 0.950 . S
C1125 C1124 1.397 . S
C1125 C1126 1.334 . S
C1126 H1097 0.950 . S
C1126 C1125 1.334 . S
C1126 C1127 1.287 . S
C1127 C1126 1.287 . S
C1127 C1128 1.524 . S
C1127 H1130 0.999 . S
C1128 H1098 0.950 . S
C1128 C1127 1.524 . S
C1128 C1129 1.415 . S
C1129 H1099 0.950 . S
C1129 C1124 1.363 . S
C1129 C1128 1.415 . S
H1130 C1127 0.999 . S
H1131 C1112 0.913 1_554 S
H1132 C1150 0.951 . S
H1133 C1152 0.951 . S
H1134 C1154 0.950 . S
H1135 C1155 0.950 1_554 S
H1136 C1157 0.950 . S
H1137 C1160 0.950 . S
H1138 C1161 0.950 . S
H1139 C1163 0.950 . S
H1140 C1164 0.950 . S
H1141 C1165 0.951 . S
H1142 C1167 0.951 . S
H1143 C1169 0.950 . S
H1144 C1170 0.950 . S
H1145 C1172 0.950 . S
H1146 C1175 0.950 . S
H1147 C1176 0.950 . S
H1148 C1178 0.950 . S
H1149 C1179 0.950 1_554 S
C1150 H1132 0.951 . S
C1150 C1151 1.366 . S
C1150 C1152 1.388 . S
C1151 C1150 1.366 . S
C1151 C1155 1.385 . S
C1152 H1133 0.951 . S
C1152 C1150 1.388 . S
C1152 C1153 1.366 . S
C1153 C1152 1.366 . S
C1153 C1154 1.414 . S
C1153 C1156 1.499 . S
C1154 H1134 0.950 . S
C1154 C1153 1.414 . S
C1154 C1155 1.374 . S
C1155 H1135 0.950 1_556 S
C1155 C1151 1.385 . S
C1155 C1154 1.374 . S
C1156 C1153 1.499 . S
C1156 C1157 1.373 . S
C1156 C1158 1.389 . S
C1157 H1136 0.950 . S
C1157 C1156 1.373 . S
C1157 C1173 1.377 . S
C1158 C1156 1.389 . S
C1158 C1159 1.524 . S
C1158 C1172 1.377 . S
C1159 C1158 1.524 . S
C1159 C1160 1.397 . S
C1159 C1164 1.363 . S
C1160 H1137 0.950 . S
C1160 C1159 1.397 . S
C1160 C1161 1.334 . S
C1161 H1138 0.950 . S
C1161 C1160 1.334 . S
C1161 C1162 1.287 . S
C1162 C1161 1.287 . S
C1162 C1163 1.524 . S
C1162 H1181 0.913 . S
C1163 H1139 0.950 . S
C1163 C1162 1.524 . S
C1163 C1164 1.415 . S
C1164 H1140 0.950 . S
C1164 C1159 1.363 . S
C1164 C1163 1.415 . S
C1165 H1141 0.951 . S
C1165 C1166 1.366 . S
C1165 C1167 1.388 . S
C1166 C1165 1.366 . S
C1166 C1170 1.385 . S
C1167 H1142 0.951 . S
C1167 C1165 1.388 . S
C1167 C1168 1.366 . S
C1168 C1167 1.366 . S
C1168 C1169 1.414 . S
C1168 C1171 1.499 . S
C1169 H1143 0.950 . S
C1169 C1168 1.414 . S
C1169 C1170 1.374 . S
C1170 H1144 0.950 . S
C1170 C1166 1.385 . S
C1170 C1169 1.374 . S
C1171 C1168 1.499 . S
C1171 C1172 1.373 . S
C1171 C1173 1.389 . S
C1172 H1145 0.950 . S
C1172 C1158 1.377 . S
C1172 C1171 1.373 . S
C1173 C1157 1.377 . S
C1173 C1171 1.389 . S
C1173 C1174 1.524 . S
C1174 C1173 1.524 . S
C1174 C1175 1.397 . S
C1174 C1179 1.363 . S
C1175 H1146 0.950 . S
C1175 C1174 1.397 . S
C1175 C1176 1.334 . S
C1176 H1147 0.950 . S
C1176 C1175 1.334 . S
C1176 C1177 1.287 . S
C1177 C1176 1.287 . S
C1177 C1178 1.524 1_556 S
C1177 H1180 0.999 . S
C1178 H1148 0.950 . S
C1178 C1177 1.524 1_554 S
C1178 C1179 1.415 1_554 S
C1179 H1149 0.950 1_556 S
C1179 C1174 1.363 . S
C1179 C1178 1.415 1_556 S
H1180 C1177 0.999 . S
H1181 C1162 0.913 . S
H1182 C1200 0.951 . S
H1183 C1202 0.951 . S
H1184 C1204 0.950 . S
H1185 C1205 0.950 . S
H1186 C1207 0.950 . S
H1187 C1210 0.950 . S
H1188 C1211 0.950 . S
H1189 C1213 0.950 . S
H1190 C1214 0.950 . S
H1191 C1215 0.951 . S
H1192 C1217 0.951 . S
H1193 C1219 0.950 . S
H1194 C1220 0.950 . S
H1195 C1222 0.950 . S
H1196 C1225 0.950 . S
H1197 C1226 0.950 . S
H1198 C1228 0.950 . S
H1199 C1229 0.950 . S
C1200 H1182 0.951 . S
C1200 C1201 1.366 . S
C1200 C1202 1.388 . S
C1201 C1200 1.366 . S
C1201 C1205 1.385 . S
C1202 H1183 0.951 . S
C1202 C1200 1.388 . S
C1202 C1203 1.366 . S
C1203 C1202 1.366 . S
C1203 C1204 1.414 . S
C1203 C1206 1.499 . S
C1204 H1184 0.950 . S
C1204 C1203 1.414 . S
C1204 C1205 1.374 . S
C1205 H1185 0.950 . S
C1205 C1201 1.385 . S
C1205 C1204 1.374 . S
C1206 C1203 1.499 . S
C1206 C1207 1.373 . S
C1206 C1208 1.389 . S
C1207 H1186 0.950 . S
C1207 C1206 1.373 . S
C1207 C1223 1.377 . S
C1208 C1206 1.389 . S
C1208 C1209 1.524 . S
C1208 C1222 1.377 . S
C1209 C1208 1.524 . S
C1209 C1210 1.397 . S
C1209 C1214 1.363 . S
C1210 H1187 0.950 . S
C1210 C1209 1.397 . S
C1210 C1211 1.334 1_556 S
C1211 H1188 0.950 . S
C1211 C1210 1.334 1_554 S
C1211 C1212 1.287 1_554 S
C1212 C1211 1.287 1_556 S
C1212 C1213 1.524 . S
C1212 H1231 0.913 . S
C1213 H1189 0.950 . S
C1213 C1212 1.524 . S
C1213 C1214 1.415 . S
C1214 H1190 0.950 . S
C1214 C1209 1.363 . S
C1214 C1213 1.415 . S
C1215 H1191 0.951 . S
C1215 C1216 1.366 . S
C1215 C1217 1.388 . S
C1216 C1215 1.366 . S
C1216 C1220 1.385 . S
C1217 H1192 0.951 . S
C1217 C1215 1.388 . S
C1217 C1218 1.366 . S
C1218 C1217 1.366 . S
C1218 C1219 1.414 . S
C1218 C1221 1.499 . S
C1219 H1193 0.950 . S
C1219 C1218 1.414 . S
C1219 C1220 1.374 . S
C1220 H1194 0.950 . S
C1220 C1216 1.385 . S
C1220 C1219 1.374 . S
C1221 C1218 1.499 . S
C1221 C1222 1.373 . S
C1221 C1223 1.389 . S
C1222 H1195 0.950 . S
C1222 C1208 1.377 . S
C1222 C1221 1.373 . S
C1223 C1207 1.377 . S
C1223 C1221 1.389 . S
C1223 C1224 1.524 . S
C1224 C1223 1.524 . S
C1224 C1225 1.397 . S
C1224 C1229 1.363 . S
C1225 H1196 0.950 . S
C1225 C1224 1.397 . S
C1225 C1226 1.334 . S
C1226 H1197 0.950 . S
C1226 C1225 1.334 . S
C1226 C1227 1.287 . S
C1227 C1226 1.287 . S
C1227 C1228 1.524 . S
C1227 H1230 0.999 . S
C1228 H1198 0.950 . S
C1228 C1227 1.524 . S
C1228 C1229 1.415 . S
C1229 H1199 0.950 . S
C1229 C1224 1.363 . S
C1229 C1228 1.415 . S
H1230 C1227 0.999 . S
H1231 C1212 0.913 . S
H1232 C1250 0.951 . S
H1233 C1252 0.951 . S
H1234 C1254 0.950 . S
H1235 C1255 0.950 . S
H1236 C1257 0.950 . S
H1237 C1260 0.950 . S
H1238 C1261 0.950 . S
H1239 C1263 0.950 . S
H1240 C1264 0.950 . S
H1241 C1265 0.938 1_455 S
H1242 C1267 0.951 . S
H1243 C1269 0.950 . S
H1244 C1270 0.950 . S
H1245 C1272 0.950 . S
H1246 C1275 0.950 . S
H1247 C1276 0.950 . S
H1248 C1278 0.950 . S
H1249 C1279 0.950 . S
C1250 H1232 0.951 . S
C1250 C1251 1.366 . S
C1250 C1252 1.388 . S
C1251 C1250 1.366 . S
C1251 C1255 1.385 1_655 S
C1252 H1233 0.951 . S
C1252 C1250 1.388 . S
C1252 C1253 1.366 . S
C1253 C1252 1.366 . S
C1253 C1254 1.414 1_655 S
C1253 C1256 1.499 . S
C1254 H1234 0.950 . S
C1254 C1253 1.414 1_455 S
C1254 C1255 1.374 . S
C1255 H1235 0.950 . S
C1255 C1251 1.385 1_455 S
C1255 C1254 1.374 . S
C1256 C1253 1.499 . S
C1256 C1257 1.373 1_655 S
C1256 C1258 1.389 . S
C1257 H1236 0.950 . S
C1257 C1256 1.373 1_455 S
C1257 C1273 1.377 . S
C1258 C1256 1.389 . S
C1258 C1259 1.524 . S
C1258 C1272 1.377 . S
C1259 C1258 1.524 . S
C1259 C1260 1.397 . S
C1259 C1264 1.363 . S
C1260 H1237 0.950 . S
C1260 C1259 1.397 . S
C1260 C1261 1.334 . S
C1261 H1238 0.950 . S
C1261 C1260 1.334 . S
C1261 C1262 1.287 . S
C1262 C1261 1.287 . S
C1262 C1263 1.524 . S
C1262 H1281 0.913 . S
C1263 H1239 0.950 . S
C1263 C1262 1.524 . S
C1263 C1264 1.415 . S
C1264 H1240 0.950 . S
C1264 C1259 1.363 . S
C1264 C1263 1.415 . S
C1265 H1241 0.938 1_655 S
C1265 C1266 1.381 . S
C1265 C1267 1.386 1_655 S
C1266 C1265 1.381 . S
C1266 C1270 1.385 . S
C1267 H1242 0.951 . S
C1267 C1265 1.386 1_455 S
C1267 C1268 1.366 1_455 S
C1268 C1267 1.366 1_655 S
C1268 C1269 1.414 . S
C1268 C1271 1.499 . S
C1269 H1243 0.950 . S
C1269 C1268 1.414 . S
C1269 C1270 1.374 . S
C1270 H1244 0.950 . S
C1270 C1266 1.385 . S
C1270 C1269 1.374 . S
C1271 C1268 1.499 . S
C1271 C1272 1.373 . S
C1271 C1273 1.389 1_655 S
C1272 H1245 0.950 . S
C1272 C1258 1.377 . S
C1272 C1271 1.373 . S
C1273 C1257 1.377 . S
C1273 C1271 1.389 1_455 S
C1273 C1274 1.524 . S
C1274 C1273 1.524 . S
C1274 C1275 1.397 . S
C1274 C1279 1.363 . S
C1275 H1246 0.950 . S
C1275 C1274 1.397 . S
C1275 C1276 1.334 . S
C1276 H1247 0.950 . S
C1276 C1275 1.334 . S
C1276 C1277 1.287 . S
C1277 C1276 1.287 . S
C1277 C1278 1.524 . S
C1277 H1280 0.999 . S
C1278 H1248 0.950 . S
C1278 C1277 1.524 . S
C1278 C1279 1.415 . S
C1279 H1249 0.950 . S
C1279 C1274 1.363 . S
C1279 C1278 1.415 . S
H1280 C1277 0.999 . S
H1281 C1262 0.913 . S
H1282 C1300 0.951 . S
H1283 C1302 0.951 . S
H1284 C1304 0.950 . S
H1285 C1305 0.950 . S
H1286 C1307 0.950 . S
H1287 C1310 0.950 . S
H1288 C1311 0.950 . S
H1289 C1313 0.950 . S
H1290 C1314 0.950 . S
H1291 C1315 0.951 . S
H1292 C1317 0.951 . S
H1293 C1319 0.950 . S
H1294 C1320 0.950 . S
H1295 C1322 0.950 . S
H1296 C1325 0.950 . S
H1297 C1326 0.950 . S
H1298 C1328 0.950 . S
H1299 C1329 0.950 . S
C1300 H1282 0.951 . S
C1300 C1301 1.366 . S
C1300 C1302 1.388 . S
C1301 C1300 1.366 . S
C1301 C1305 1.385 . S
C1302 H1283 0.951 . S
C1302 C1300 1.388 . S
C1302 C1303 1.366 . S
C1303 C1302 1.366 . S
C1303 C1304 1.414 . S
C1303 C1306 1.499 . S
C1304 H1284 0.950 . S
C1304 C1303 1.414 . S
C1304 C1305 1.374 . S
C1305 H1285 0.950 . S
C1305 C1301 1.385 . S
C1305 C1304 1.374 . S
C1306 C1303 1.499 . S
C1306 C1307 1.373 . S
C1306 C1308 1.389 1_565 S
C1307 H1286 0.950 . S
C1307 C1306 1.373 . S
C1307 C1323 1.377 . S
C1308 C1306 1.389 1_545 S
C1308 C1309 1.524 . S
C1308 C1322 1.377 . S
C1309 C1308 1.524 . S
C1309 C1310 1.397 . S
C1309 C1314 1.363 . S
C1310 H1287 0.950 . S
C1310 C1309 1.397 . S
C1310 C1311 1.334 . S
C1311 H1288 0.950 . S
C1311 C1310 1.334 . S
C1311 C1312 1.287 . S
C1312 C1311 1.287 . S
C1312 C1313 1.524 . S
C1312 H1331 0.913 . S
C1313 H1289 0.950 . S
C1313 C1312 1.524 . S
C1313 C1314 1.415 . S
C1314 H1290 0.950 . S
C1314 C1309 1.363 . S
C1314 C1313 1.415 . S
C1315 H1291 0.951 . S
C1315 C1316 1.366 . S
C1315 C1317 1.388 . S
C1316 C1315 1.366 . S
C1316 C1320 1.385 . S
C1317 H1292 0.951 . S
C1317 C1315 1.388 . S
C1317 C1318 1.366 . S
C1318 C1317 1.366 . S
C1318 C1319 1.414 . S
C1318 C1321 1.499 . S
C1319 H1293 0.950 . S
C1319 C1318 1.414 . S
C1319 C1320 1.374 . S
C1320 H1294 0.950 . S
C1320 C1316 1.385 . S
C1320 C1319 1.374 . S
C1321 C1318 1.499 . S
C1321 C1322 1.373 1_565 S
C1321 C1323 1.389 . S
C1322 H1295 0.950 . S
C1322 C1308 1.377 . S
C1322 C1321 1.373 1_545 S
C1323 C1307 1.377 . S
C1323 C1321 1.389 . S
C1323 C1324 1.524 . S
C1324 C1323 1.524 . S
C1324 C1325 1.397 . S
C1324 C1329 1.363 . S
C1325 H1296 0.950 . S
C1325 C1324 1.397 . S
C1325 C1326 1.334 . S
C1326 H1297 0.950 . S
C1326 C1325 1.334 . S
C1326 C1327 1.287 . S
C1327 C1326 1.287 . S
C1327 C1328 1.524 . S
C1327 H1330 0.999 . S
C1328 H1298 0.950 . S
C1328 C1327 1.524 . S
C1328 C1329 1.415 . S
C1329 H1299 0.950 . S
C1329 C1324 1.363 . S
C1329 C1328 1.415 . S
H1330 C1327 0.999 . S
H1331 C1312 0.913 . S
H1332 C1350 0.951 . S
H1333 C1352 0.951 . S
H1334 C1354 0.950 . S
H1335 C1355 0.950 . S
H1336 C1357 0.950 . S
H1337 C1360 0.950 . S
H1338 C1361 0.950 . S
H1339 C1363 0.950 . S
H1340 C1364 0.950 . S
H1341 C1365 0.951 . S
H1342 C1367 0.951 . S
H1343 C1369 0.950 . S
H1344 C1370 0.950 . S
H1345 C1372 0.950 . S
H1346 C1375 0.950 . S
H1347 C1376 0.950 . S
H1348 C1378 0.950 . S
H1349 C1379 0.950 . S
C1350 H1332 0.951 . S
C1350 C1351 1.366 . S
C1350 C1352 1.388 . S
C1351 C1350 1.366 . S
C1351 C1355 1.385 . S
C1352 H1333 0.951 . S
C1352 C1350 1.388 . S
C1352 C1353 1.366 . S
C1353 C1352 1.366 . S
C1353 C1354 1.414 . S
C1353 C1356 1.499 . S
C1354 H1334 0.950 . S
C1354 C1353 1.414 . S
C1354 C1355 1.374 . S
C1355 H1335 0.950 . S
C1355 C1351 1.385 . S
C1355 C1354 1.374 . S
C1356 C1353 1.499 . S
C1356 C1357 1.373 . S
C1356 C1358 1.389 . S
C1357 H1336 0.950 . S
C1357 C1356 1.373 . S
C1357 C1373 1.377 . S
C1358 C1356 1.389 . S
C1358 C1359 1.524 . S
C1358 C1372 1.377 . S
C1359 C1358 1.524 . S
C1359 C1360 1.397 . S
C1359 C1364 1.363 . S
C1360 H1337 0.950 . S
C1360 C1359 1.397 . S
C1360 C1361 1.334 . S
C1361 H1338 0.950 . S
C1361 C1360 1.334 . S
C1361 C1362 1.287 . S
C1362 C1361 1.287 . S
C1362 C1363 1.524 . S
C1362 H1381 0.913 . S
C1363 H1339 0.950 . S
C1363 C1362 1.524 . S
C1363 C1364 1.415 . S
C1364 H1340 0.950 . S
C1364 C1359 1.363 . S
C1364 C1363 1.415 . S
C1365 H1341 0.951 . S
C1365 C1366 1.366 . S
C1365 C1367 1.388 . S
C1366 C1365 1.366 . S
C1366 C1370 1.385 . S
C1367 H1342 0.951 . S
C1367 C1365 1.388 . S
C1367 C1368 1.366 . S
C1368 C1367 1.366 . S
C1368 C1369 1.414 . S
C1368 C1371 1.499 . S
C1369 H1343 0.950 . S
C1369 C1368 1.414 . S
C1369 C1370 1.374 . S
C1370 H1344 0.950 . S
C1370 C1366 1.385 . S
C1370 C1369 1.374 . S
C1371 C1368 1.499 . S
C1371 C1372 1.373 . S
C1371 C1373 1.389 . S
C1372 H1345 0.950 . S
C1372 C1358 1.377 . S
C1372 C1371 1.373 . S
C1373 C1357 1.377 . S
C1373 C1371 1.389 . S
C1373 C1374 1.524 . S
C1374 C1373 1.524 . S
C1374 C1375 1.397 . S
C1374 C1379 1.363 . S
C1375 H1346 0.950 . S
C1375 C1374 1.397 . S
C1375 C1376 1.334 . S
C1376 H1347 0.950 . S
C1376 C1375 1.334 . S
C1376 C1377 1.287 . S
C1377 C1376 1.287 . S
C1377 C1378 1.524 . S
C1377 H1380 0.999 . S
C1378 H1348 0.950 . S
C1378 C1377 1.524 . S
C1378 C1379 1.415 . S
C1379 H1349 0.950 . S
C1379 C1374 1.363 . S
C1379 C1378 1.415 . S
H1380 C1377 0.999 . S
H1381 C1362 0.913 . S
H1382 C1400 0.951 . S
H1383 C1402 0.951 . S
H1384 C1404 0.950 . S
H1385 C1405 0.950 . S
H1386 C1407 0.950 . S
H1387 C1410 0.950 . S
H1388 C1411 0.950 . S
H1389 C1413 0.950 . S
H1390 C1414 0.950 . S
H1391 C1415 0.951 . S
H1392 C1417 0.951 . S
H1393 C1419 0.950 . S
H1394 C1420 0.950 . S
H1395 C1422 0.950 . S
H1396 C1425 0.950 . S
H1397 C1426 0.950 . S
H1398 C1428 0.950 . S
H1399 C1429 0.950 . S
C1400 H1382 0.951 . S
C1400 C1401 1.366 . S
C1400 C1402 1.388 . S
C1401 C1400 1.366 . S
C1401 C1405 1.385 . S
C1402 H1383 0.951 . S
C1402 C1400 1.388 . S
C1402 C1403 1.366 . S
C1403 C1402 1.366 . S
C1403 C1404 1.414 . S
C1403 C1406 1.499 . S
C1404 H1384 0.950 . S
C1404 C1403 1.414 . S
C1404 C1405 1.374 . S
C1405 H1385 0.950 . S
C1405 C1401 1.385 . S
C1405 C1404 1.374 . S
C1406 C1403 1.499 . S
C1406 C1407 1.373 . S
C1406 C1408 1.389 . S
C1407 H1386 0.950 . S
C1407 C1406 1.373 . S
C1407 C1423 1.377 . S
C1408 C1406 1.389 . S
C1408 C1409 1.524 . S
C1408 C1422 1.377 . S
C1409 C1408 1.524 . S
C1409 C1410 1.397 . S
C1409 C1414 1.363 . S
C1410 H1387 0.950 . S
C1410 C1409 1.397 . S
C1410 C1411 1.334 . S
C1411 H1388 0.950 . S
C1411 C1410 1.334 . S
C1411 C1412 1.287 . S
C1412 C1411 1.287 . S
C1412 C1413 1.524 . S
C1412 H1431 0.913 . S
C1413 H1389 0.950 . S
C1413 C1412 1.524 . S
C1413 C1414 1.415 . S
C1414 H1390 0.950 . S
C1414 C1409 1.363 . S
C1414 C1413 1.415 . S
C1415 H1391 0.951 . S
C1415 C1416 1.366 . S
C1415 C1417 1.388 . S
C1416 C1415 1.366 . S
C1416 C1420 1.385 . S
C1417 H1392 0.951 . S
C1417 C1415 1.388 . S
C1417 C1418 1.366 . S
C1418 C1417 1.366 . S
C1418 C1419 1.414 . S
C1418 C1421 1.499 . S
C1419 H1393 0.950 . S
C1419 C1418 1.414 . S
C1419 C1420 1.374 . S
C1420 H1394 0.950 . S
C1420 C1416 1.385 . S
C1420 C1419 1.374 . S
C1421 C1418 1.499 . S
C1421 C1422 1.373 . S
C1421 C1423 1.389 . S
C1422 H1395 0.950 . S
C1422 C1408 1.377 . S
C1422 C1421 1.373 . S
C1423 C1407 1.377 . S
C1423 C1421 1.389 . S
C1423 C1424 1.524 . S
C1424 C1423 1.524 . S
C1424 C1425 1.397 . S
C1424 C1429 1.363 . S
C1425 H1396 0.950 . S
C1425 C1424 1.397 . S
C1425 C1426 1.334 . S
C1426 H1397 0.950 . S
C1426 C1425 1.334 . S
C1426 C1427 1.287 . S
C1427 C1426 1.287 . S
C1427 C1428 1.524 . S
C1427 H1430 0.999 . S
C1428 H1398 0.950 . S
C1428 C1427 1.524 . S
C1428 C1429 1.415 . S
C1429 H1399 0.950 . S
C1429 C1424 1.363 . S
C1429 C1428 1.415 . S
H1430 C1427 0.999 . S
H1431 C1412 0.913 . S
C251 C61 1.651 1_545 S
C266 C81 1.728 1_545 S
C316 C121 1.738 . S
C301 C70 1.659 . S
C366 C161 1.743 . S
C351 C43 1.659 . S
C416 C201 1.739 1_455 S
C401 C52 1.657 1_455 S
C466 C90 1.735 1_565 S
C451 C25 1.656 . S
C501 C34 1.665 . S
C516 C130 1.743 . S
C551 C7 1.658 . S
C566 C170 1.742 . S
C601 C16 1.657 . S
C616 C210 1.738 1_655 S
C666 C87 0.317 . S
C651 C50 0.256 1_455 S
C716 C127 0.318 . S
C701 C59 0.259 1_545 S
C766 C167 0.316 . S
C751 C67 0.246 . S
C801 C41 0.259 . S
C816 C207 0.315 . S
C851 C14 0.249 . S
C866 C78 0.308 . S
C916 C118 0.318 . S
C901 C23 0.247 . S
C966 C158 0.315 . S
C951 C31 0.256 . S
C1001 C5 0.241 . S
C1016 C198 0.320 . S
C1051 C49 1.809 1_455 S
C1066 C91 1.971 . S
C1101 C58 1.790 1_545 S
C1116 C131 1.955 . S
C1166 C171 1.948 . S
C1151 C68 1.781 . S
C1216 C211 1.964 . S
C1201 C40 1.795 . S
C1251 C13 1.809 . S
C1266 C82 1.984 . S
C1316 C122 1.956 . S
C1301 C22 1.790 . S
C1366 C162 1.947 . S
C1351 C32 1.783 . S
C1401 C4 1.797 . S
C1416 C202 1.968 . S
