# Generated by pormake.
# Topology ctn, (3,4)-cn, num edge types: 1
# Building blocks:
#     Node 0, Type 0, BuildingBlock: BELTOD_clean_linker_0, # of connection points: 3
#     Node 1, Type 0, BuildingBlock: BELTOD_clean_linker_0, # of connection points: 3
#     Node 2, Type 0, BuildingBlock: BELTOD_clean_linker_0, # of connection points: 3
#     Node 3, Type 0, BuildingBlock: BELTOD_clean_linker_0, # of connection points: 3
#     Node 4, Type 0, BuildingBlock: BELTOD_clean_linker_0, # of connection points: 3
#     Node 5, Type 0, BuildingBlock: BELTOD_clean_linker_0, # of connection points: 3
#     Node 6, Type 0, BuildingBlock: BELTOD_clean_linker_0, # of connection points: 3
#     Node 7, Type 0, BuildingBlock: BELTOD_clean_linker_0, # of connection points: 3
#     Node 8, Type 0, BuildingBlock: BELTOD_clean_linker_0, # of connection points: 3
#     Node 9, Type 0, BuildingBlock: BELTOD_clean_linker_0, # of connection points: 3
#     Node 10, Type 0, BuildingBlock: BELTOD_clean_linker_0, # of connection points: 3
#     Node 11, Type 0, BuildingBlock: BELTOD_clean_linker_0, # of connection points: 3
#     Node 12, Type 0, BuildingBlock: BELTOD_clean_linker_0, # of connection points: 3
#     Node 13, Type 0, BuildingBlock: BELTOD_clean_linker_0, # of connection points: 3
#     Node 14, Type 0, BuildingBlock: BELTOD_clean_linker_0, # of connection points: 3
#     Node 15, Type 0, BuildingBlock: BELTOD_clean_linker_0, # of connection points: 3
#     Node 16, Type 1, BuildingBlock: TATPOV_clean_sbu_0, # of connection points: 4
#     Node 17, Type 1, BuildingBlock: TATPOV_clean_sbu_0, # of connection points: 4
#     Node 18, Type 1, BuildingBlock: TATPOV_clean_sbu_0, # of connection points: 4
#     Node 19, Type 1, BuildingBlock: TATPOV_clean_sbu_0, # of connection points: 4
#     Node 20, Type 1, BuildingBlock: TATPOV_clean_sbu_0, # of connection points: 4
#     Node 21, Type 1, BuildingBlock: TATPOV_clean_sbu_0, # of connection points: 4
#     Node 22, Type 1, BuildingBlock: TATPOV_clean_sbu_0, # of connection points: 4
#     Node 23, Type 1, BuildingBlock: TATPOV_clean_sbu_0, # of connection points: 4
#     Node 24, Type 1, BuildingBlock: TATPOV_clean_sbu_0, # of connection points: 4
#     Node 25, Type 1, BuildingBlock: TATPOV_clean_sbu_0, # of connection points: 4
#     Node 26, Type 1, BuildingBlock: TATPOV_clean_sbu_0, # of connection points: 4
#     Node 27, Type 1, BuildingBlock: TATPOV_clean_sbu_0, # of connection points: 4
#     Edge 28, Type (0, 1), BuildingBlock: CIFDUS_clean_linker_0, # of connection points: 2
#     Edge 29, Type (0, 1), BuildingBlock: CIFDUS_clean_linker_0, # of connection points: 2
#     Edge 30, Type (0, 1), BuildingBlock: CIFDUS_clean_linker_0, # of connection points: 2
#     Edge 31, Type (0, 1), BuildingBlock: CIFDUS_clean_linker_0, # of connection points: 2
#     Edge 32, Type (0, 1), BuildingBlock: CIFDUS_clean_linker_0, # of connection points: 2
#     Edge 33, Type (0, 1), BuildingBlock: CIFDUS_clean_linker_0, # of connection points: 2
#     Edge 34, Type (0, 1), BuildingBlock: CIFDUS_clean_linker_0, # of connection points: 2
#     Edge 35, Type (0, 1), BuildingBlock: CIFDUS_clean_linker_0, # of connection points: 2
#     Edge 36, Type (0, 1), BuildingBlock: CIFDUS_clean_linker_0, # of connection points: 2
#     Edge 37, Type (0, 1), BuildingBlock: CIFDUS_clean_linker_0, # of connection points: 2
#     Edge 38, Type (0, 1), BuildingBlock: CIFDUS_clean_linker_0, # of connection points: 2
#     Edge 39, Type (0, 1), BuildingBlock: CIFDUS_clean_linker_0, # of connection points: 2
#     Edge 40, Type (0, 1), BuildingBlock: CIFDUS_clean_linker_0, # of connection points: 2
#     Edge 41, Type (0, 1), BuildingBlock: CIFDUS_clean_linker_0, # of connection points: 2
#     Edge 42, Type (0, 1), BuildingBlock: CIFDUS_clean_linker_0, # of connection points: 2
#     Edge 43, Type (0, 1), BuildingBlock: CIFDUS_clean_linker_0, # of connection points: 2
#     Edge 44, Type (0, 1), BuildingBlock: CIFDUS_clean_linker_0, # of connection points: 2
#     Edge 45, Type (0, 1), BuildingBlock: CIFDUS_clean_linker_0, # of connection points: 2
#     Edge 46, Type (0, 1), BuildingBlock: CIFDUS_clean_linker_0, # of connection points: 2
#     Edge 47, Type (0, 1), BuildingBlock: CIFDUS_clean_linker_0, # of connection points: 2
#     Edge 48, Type (0, 1), BuildingBlock: CIFDUS_clean_linker_0, # of connection points: 2
#     Edge 49, Type (0, 1), BuildingBlock: CIFDUS_clean_linker_0, # of connection points: 2
#     Edge 50, Type (0, 1), BuildingBlock: CIFDUS_clean_linker_0, # of connection points: 2
#     Edge 51, Type (0, 1), BuildingBlock: CIFDUS_clean_linker_0, # of connection points: 2
#     Edge 52, Type (0, 1), BuildingBlock: CIFDUS_clean_linker_0, # of connection points: 2
#     Edge 53, Type (0, 1), BuildingBlock: CIFDUS_clean_linker_0, # of connection points: 2
#     Edge 54, Type (0, 1), BuildingBlock: CIFDUS_clean_linker_0, # of connection points: 2
#     Edge 55, Type (0, 1), BuildingBlock: CIFDUS_clean_linker_0, # of connection points: 2
#     Edge 56, Type (0, 1), BuildingBlock: CIFDUS_clean_linker_0, # of connection points: 2
#     Edge 57, Type (0, 1), BuildingBlock: CIFDUS_clean_linker_0, # of connection points: 2
#     Edge 58, Type (0, 1), BuildingBlock: CIFDUS_clean_linker_0, # of connection points: 2
#     Edge 59, Type (0, 1), BuildingBlock: CIFDUS_clean_linker_0, # of connection points: 2
#     Edge 60, Type (0, 1), BuildingBlock: CIFDUS_clean_linker_0, # of connection points: 2
#     Edge 61, Type (0, 1), BuildingBlock: CIFDUS_clean_linker_0, # of connection points: 2
#     Edge 62, Type (0, 1), BuildingBlock: CIFDUS_clean_linker_0, # of connection points: 2
#     Edge 63, Type (0, 1), BuildingBlock: CIFDUS_clean_linker_0, # of connection points: 2
#     Edge 64, Type (0, 1), BuildingBlock: CIFDUS_clean_linker_0, # of connection points: 2
#     Edge 65, Type (0, 1), BuildingBlock: CIFDUS_clean_linker_0, # of connection points: 2
#     Edge 66, Type (0, 1), BuildingBlock: CIFDUS_clean_linker_0, # of connection points: 2
#     Edge 67, Type (0, 1), BuildingBlock: CIFDUS_clean_linker_0, # of connection points: 2
#     Edge 68, Type (0, 1), BuildingBlock: CIFDUS_clean_linker_0, # of connection points: 2
#     Edge 69, Type (0, 1), BuildingBlock: CIFDUS_clean_linker_0, # of connection points: 2
#     Edge 70, Type (0, 1), BuildingBlock: CIFDUS_clean_linker_0, # of connection points: 2
#     Edge 71, Type (0, 1), BuildingBlock: CIFDUS_clean_linker_0, # of connection points: 2
#     Edge 72, Type (0, 1), BuildingBlock: CIFDUS_clean_linker_0, # of connection points: 2
#     Edge 73, Type (0, 1), BuildingBlock: CIFDUS_clean_linker_0, # of connection points: 2
#     Edge 74, Type (0, 1), BuildingBlock: CIFDUS_clean_linker_0, # of connection points: 2
#     Edge 75, Type (0, 1), BuildingBlock: CIFDUS_clean_linker_0, # of connection points: 2
# Relax obj value: 0.003
# Max RMSD: 0.050
# Mean RMSD: 0.025
data_MOF--net-ctn--node1-TATPOV_clean_sbu_0--node2-BELTOD_clean_linker_0--edge1-CIFDUS_clean_linker_0
_symmetry_space_group_name_H-M    P1
_symmetry_Int_Tables_number       1
_symmetry_cell_setting            triclinic
loop_
_symmetry_equiv_pos_as_xyz
'x, y, z'
_cell_length_a     54.987872
_cell_length_b     55.415116
_cell_length_c     54.8863
_cell_angle_alpha  90.444001
_cell_angle_beta   91.214427
_cell_angle_gamma 91.944989
loop_
_atom_site_label
_atom_site_type_symbol
_atom_site_fract_x
_atom_site_fract_y
_atom_site_fract_z
_atom_type_partial_charge
P0 P 0.0633 0.05804 0.04826 0.0
H1 H 0.06347 0.03877 0.09732 0.0
H2 H 0.03185 0.03241 0.12739 0.0
H3 H 0.97813 0.05729 0.07561 0.0
H4 H 0.00987 0.06293 0.04537 0.0
H5 H 0.10304 0.05084 0.01516 0.0
H6 H 0.12485 0.01507 0.00304 0.0
H7 H 0.07408 0.97012 0.04296 0.0
H8 H 0.0521 0.00586 0.05449 0.0
H9 H 0.05848 0.10996 0.04967 0.0
H10 H 0.04688 0.05269 0.99671 0.0
O11 O 0.08585 0.07175 0.06448 0.0
H12 H 0.04674 0.13954 0.01938 0.0
H13 H 0.03448 0.08226 0.96616 0.0
C14 C 0.03911 0.05161 0.06924 0.0
C15 C 0.04485 0.04271 0.0924 0.0
C16 C 0.02675 0.03924 0.10964 0.0
C17 C 0.00243 0.04466 0.1041 0.0
C18 C 0.99661 0.05283 0.08051 0.0
C19 C 0.01479 0.05621 0.06321 0.0
C20 C 0.07592 0.03109 0.03568 0.0
C21 C 0.09632 0.03322 0.02087 0.0
C22 C 0.10893 0.01276 0.01418 0.0
C23 C 0.10142 0.98968 0.02225 0.0
C24 C 0.0803 0.98754 0.03626 0.0
C25 C 0.06772 0.00805 0.04295 0.0
C26 C 0.05398 0.07921 0.02532 0.0
C27 C 0.05336 0.10375 0.03145 0.0
C28 C 0.0464 0.12066 0.01412 0.0
C29 C 0.03964 0.11336 0.99024 0.0
C30 C 0.03991 0.08858 0.98425 0.0
C31 C 0.04691 0.07163 0.00171 0.0
P32 P 0.27428 0.67595 0.20316 0.0
H33 H 0.28801 0.6886 0.15383 0.0
H34 H 0.27434 0.71898 0.12529 0.0
H35 H 0.22445 0.74485 0.17845 0.0
H36 H 0.23794 0.71374 0.20709 0.0
H37 H 0.31838 0.65667 0.22491 0.0
H38 H 0.35057 0.67438 0.25135 0.0
H39 H 0.31007 0.73958 0.25751 0.0
H40 H 0.27832 0.72196 0.23042 0.0
H41 H 0.24081 0.63805 0.18557 0.0
H42 H 0.25186 0.68022 0.25148 0.0
O43 O 0.28829 0.65532 0.18671 0.0
H44 H 0.2088 0.61393 0.20497 0.0
H45 H 0.2197 0.65599 0.27112 0.0
C46 C 0.26381 0.69872 0.1825 0.0
C47 C 0.27395 0.70058 0.15937 0.0
C48 C 0.26606 0.71792 0.143 0.0
C49 C 0.2481 0.73407 0.14954 0.0
C50 C 0.23824 0.73255 0.17293 0.0
C51 C 0.24592 0.71483 0.18925 0.0
C52 C 0.29629 0.68826 0.22511 0.0
C53 C 0.31639 0.67476 0.23201 0.0
C54 C 0.3347 0.68483 0.24737 0.0
C55 C 0.33312 0.70855 0.25633 0.0
C56 C 0.31217 0.72147 0.25048 0.0
C57 C 0.29393 0.7114 0.23501 0.0
C58 C 0.24905 0.6605 0.21727 0.0
C59 C 0.23626 0.64217 0.20421 0.0
C60 C 0.21802 0.62837 0.21533 0.0
C61 C 0.21204 0.63284 0.23969 0.0
C62 C 0.22398 0.65213 0.25235 0.0
C63 C 0.24243 0.66589 0.2412 0.0
P64 P 0.01575 0.47981 0.03605 0.0
H65 H 0.03629 0.47569 0.98796 0.0
H66 H 0.03639 0.44307 0.95813 0.0
H67 H 0.00146 0.39508 0.0094 0.0
H68 H 0.00244 0.42785 0.03979 0.0
H69 H 0.99596 0.52797 0.0316 0.0
H70 H 0.95459 0.542 0.02559 0.0
H71 H 0.92664 0.46829 0.02758 0.0
H72 H 0.96795 0.45437 0.03386 0.0
H73 H 0.04491 0.44392 0.06186 0.0
H74 H 0.00242 0.50538 0.07978 0.0
O75 O 0.03507 0.5019 0.02754 0.0
H76 H 0.05755 0.44061 0.10481 0.0
H77 H 0.0152 0.50233 0.12244 0.0
C78 C 0.01944 0.45421 0.01614 0.0
C79 C 0.02916 0.45804 0.99307 0.0
C80 C 0.02897 0.43938 0.97589 0.0
C81 C 0.01854 0.41654 0.9812 0.0
C82 C 0.00973 0.41241 0.00475 0.0
C83 C 0.01017 0.43114 0.02209 0.0
C84 C 0.98515 0.49006 0.03245 0.0
C85 C 0.98095 0.51481 0.03076 0.0
C86 C 0.95729 0.52284 0.02758 0.0
C87 C 0.93744 0.5062 0.02598 0.0
C88 C 0.94165 0.48147 0.02845 0.0
C89 C 0.96529 0.47349 0.03191 0.0
C90 C 0.02217 0.47448 0.06774 0.0
C91 C 0.03782 0.4563 0.07507 0.0
C92 C 0.04512 0.45449 0.09956 0.0
C93 C 0.03736 0.47126 0.11686 0.0
C94 C 0.02153 0.48926 0.10944 0.0
C95 C 0.01404 0.49086 0.0851 0.0
P96 P 0.70325 0.80003 0.17636 0.0
H97 H 0.74291 0.82712 0.15333 0.0
H98 H 0.77382 0.8563 0.16881 0.0
H99 H 0.74545 0.84794 0.24132 0.0
H100 H 0.71608 0.81768 0.22602 0.0
H101 H 0.67784 0.75428 0.16494 0.0
H102 H 0.68955 0.71871 0.14209 0.0
H103 H 0.76285 0.74887 0.13767 0.0
H104 H 0.75131 0.78362 0.16148 0.0
H105 H 0.65799 0.8244 0.18394 0.0
H106 H 0.69715 0.76712 0.21794 0.0
O107 O 0.69111 0.81379 0.15229 0.0
H108 H 0.6273 0.82139 0.21508 0.0
H109 H 0.66663 0.76447 0.25 0.0
C110 C 0.72725 0.82001 0.18847 0.0
C111 C 0.74374 0.83124 0.17266 0.0
C112 C 0.76123 0.84822 0.18153 0.0
C113 C 0.76224 0.85475 0.20639 0.0
C114 C 0.74575 0.84316 0.22218 0.0
C115 C 0.72863 0.82585 0.21336 0.0
C116 C 0.71369 0.7716 0.16517 0.0
C117 C 0.69663 0.75286 0.15974 0.0
C118 C 0.70329 0.73264 0.14635 0.0
C119 C 0.7271 0.73098 0.1377 0.0
C120 C 0.74443 0.74932 0.1442 0.0
C121 C 0.73777 0.76941 0.15778 0.0
C122 C 0.67967 0.79578 0.19844 0.0
C123 C 0.65989 0.811 0.19804 0.0
C124 C 0.64245 0.80943 0.21609 0.0
C125 C 0.64462 0.79288 0.23527 0.0
C126 C 0.66431 0.77728 0.23542 0.0
C127 C 0.68177 0.7788 0.21715 0.0
P128 P 0.06196 0.92967 0.42229 0.0
H129 H 0.11255 0.91915 0.43261 0.0
H130 H 0.1487 0.94492 0.44111 0.0
H131 H 0.10415 0.00762 0.44198 0.0
H132 H 0.06784 0.98158 0.43356 0.0
H133 H 0.024 0.89238 0.42454 0.0
H134 H 0.00211 0.87362 0.45813 0.0
H135 H 0.04322 0.9192 0.50946 0.0
H136 H 0.06507 0.93805 0.47564 0.0
H137 H 0.06914 0.95236 0.37531 0.0
H138 H 0.01075 0.94347 0.42603 0.0
O139 O 0.07223 0.90693 0.40574 0.0
H140 H 0.04168 0.97216 0.34672 0.0
H141 H 0.983 0.96198 0.39729 0.0
C142 C 0.0877 0.94858 0.43179 0.0
C143 C 0.11051 0.93841 0.4348 0.0
C144 C 0.13114 0.95315 0.43966 0.0
C145 C 0.12926 0.97831 0.44181 0.0
C146 C 0.10611 0.9883 0.44039 0.0
C147 C 0.08542 0.97348 0.43541 0.0
C148 C 0.04614 0.91654 0.4476 0.0
C149 C 0.02827 0.89837 0.44302 0.0
C150 C 0.01569 0.88778 0.46221 0.0
C151 C 0.0209 0.89502 0.48641 0.0
C152 C 0.03894 0.91319 0.49099 0.0
C153 C 0.05138 0.924 0.47168 0.0
C154 C 0.04195 0.94617 0.40264 0.0
C155 C 0.05041 0.9547 0.38029 0.0
C156 C 0.03463 0.96585 0.36389 0.0
C157 C 0.01002 0.96855 0.36954 0.0
C158 C 0.00186 0.96055 0.39236 0.0
C159 C 0.01772 0.94964 0.4088 0.0
P160 P 0.22994 0.75306 0.74718 0.0
H161 H 0.25275 0.7979 0.76662 0.0
H162 H 0.25193 0.81779 0.80637 0.0
H163 H 0.20453 0.76027 0.83252 0.0
H164 H 0.20498 0.74074 0.79233 0.0
H165 H 0.27869 0.73489 0.74028 0.0
H166 H 0.29569 0.69492 0.74463 0.0
H167 H 0.22527 0.66613 0.76571 0.0
H168 H 0.20853 0.70627 0.76167 0.0
H169 H 0.18738 0.78305 0.75173 0.0
H170 H 0.20751 0.72091 0.70991 0.0
O171 O 0.2479 0.76936 0.72897 0.0
H172 H 0.14847 0.78352 0.72957 0.0
H173 H 0.16831 0.72079 0.68812 0.0
C174 C 0.22916 0.76768 0.77661 0.0
C175 C 0.24215 0.78954 0.78086 0.0
C176 C 0.24171 0.8009 0.80366 0.0
C177 C 0.22828 0.79058 0.82273 0.0
C178 C 0.21488 0.76884 0.81821 0.0
C179 C 0.21532 0.75751 0.79533 0.0
C180 C 0.24227 0.72347 0.75036 0.0
C181 C 0.26688 0.71995 0.74573 0.0
C182 C 0.27656 0.69704 0.74809 0.0
C183 C 0.26183 0.67725 0.75537 0.0
C184 C 0.23719 0.68099 0.76025 0.0
C185 C 0.22754 0.70391 0.75786 0.0
C186 C 0.2001 0.75154 0.73295 0.0
C187 C 0.1832 0.76913 0.73818 0.0
C188 C 0.16089 0.76935 0.72549 0.0
C189 C 0.15516 0.75211 0.70712 0.0
C190 C 0.17218 0.73444 0.70202 0.0
C191 C 0.19451 0.73431 0.71467 0.0
P192 P 0.97708 0.5267 0.53221 0.0
H193 H 0.01021 0.56033 0.50673 0.0
H194 H 0.02875 0.55869 0.46667 0.0
H195 H 0.99014 0.49067 0.45194 0.0
H196 H 0.97093 0.49312 0.49105 0.0
H197 H 0.98702 0.54622 0.58103 0.0
H198 H 0.98417 0.58654 0.59879 0.0
H199 H 0.95818 0.61304 0.52946 0.0
H200 H 0.96084 0.57246 0.51187 0.0
H201 H 0.96465 0.47567 0.53721 0.0
H202 H 0.92608 0.54139 0.52701 0.0
O203 O 0.99703 0.51189 0.54929 0.0
H204 H 0.92648 0.45233 0.53455 0.0
H205 H 0.88742 0.51828 0.5257 0.0
C206 C 0.98854 0.52725 0.50168 0.0
C207 C 0.00521 0.54545 0.49454 0.0
C208 C 0.01606 0.54432 0.47171 0.0
C209 C 0.01084 0.52465 0.45583 0.0
C210 C 0.99412 0.50649 0.46321 0.0
C211 C 0.98313 0.5078 0.48582 0.0
C212 C 0.9746 0.5565 0.54502 0.0
C213 C 0.98081 0.56072 0.56961 0.0
C214 C 0.97924 0.5838 0.57973 0.0
C215 C 0.97115 0.60303 0.56548 0.0
C216 C 0.96437 0.59857 0.54094 0.0
C217 C 0.96604 0.57546 0.53082 0.0
C218 C 0.94823 0.51029 0.53273 0.0
C219 C 0.94785 0.48514 0.53498 0.0
C220 C 0.92588 0.47181 0.53358 0.0
C221 C 0.90365 0.48336 0.53021 0.0
C222 C 0.90412 0.5087 0.52811 0.0
C223 C 0.92625 0.52201 0.52913 0.0
P224 P 0.84731 0.85154 0.87055 0.0
H225 H 0.89237 0.86896 0.84787 0.0
H226 H 0.91182 0.85831 0.80974 0.0
H227 H 0.8533 0.80624 0.79362 0.0
H228 H 0.83388 0.81714 0.8317 0.0
H229 H 0.81111 0.86949 0.90322 0.0
H230 H 0.7712 0.88678 0.89603 0.0
H231 H 0.7842 0.88793 0.81874 0.0
H232 H 0.82391 0.87046 0.82592 0.0
H233 H 0.87614 0.81791 0.89868 0.0
H234 H 0.80112 0.82365 0.87534 0.0
O235 O 0.86652 0.86813 0.88827 0.0
H236 H 0.8656 0.77987 0.91932 0.0
H237 H 0.79051 0.78646 0.89671 0.0
C238 C 0.86182 0.84367 0.84265 0.0
C239 C 0.88378 0.85519 0.83618 0.0
C240 C 0.89493 0.84903 0.81443 0.0
C241 C 0.88412 0.83139 0.79871 0.0
C242 C 0.86197 0.82004 0.80524 0.0
C243 C 0.85094 0.82612 0.82705 0.0
C244 C 0.82029 0.86834 0.86511 0.0
C245 C 0.80551 0.8738 0.88476 0.0
C246 C 0.7827 0.88352 0.88065 0.0
C247 C 0.77458 0.88841 0.85682 0.0
C248 C 0.79007 0.88432 0.83728 0.0
C249 C 0.81274 0.87424 0.84139 0.0
C250 C 0.83933 0.82402 0.88613 0.0
C251 C 0.8574 0.81122 0.89831 0.0
C252 C 0.85141 0.78955 0.91002 0.0
C253 C 0.8272 0.7806 0.90988 0.0
C254 C 0.8092 0.79332 0.89747 0.0
C255 C 0.81529 0.81465 0.88535 0.0
P256 P 0.33555 0.34277 0.36035 0.0
H257 H 0.37986 0.36133 0.33686 0.0
H258 H 0.39783 0.35252 0.29743 0.0
H259 H 0.33855 0.30144 0.28097 0.0
H260 H 0.3208 0.31023 0.32031 0.0
H261 H 0.32255 0.39344 0.36512 0.0
H262 H 0.28486 0.4143 0.35663 0.0
H263 H 0.25022 0.34675 0.33269 0.0
H264 H 0.28757 0.32599 0.34218 0.0
H265 H 0.35924 0.29626 0.36054 0.0
H266 H 0.29918 0.32865 0.39632 0.0
O267 O 0.35456 0.36012 0.37756 0.0
H268 H 0.35015 0.25818 0.38102 0.0
H269 H 0.28968 0.29042 0.41656 0.0
C270 C 0.34899 0.33645 0.33148 0.0
C271 C 0.37077 0.34822 0.32478 0.0
C272 C 0.38106 0.34312 0.3023 0.0
C273 C 0.36956 0.32633 0.2861 0.0
C274 C 0.34766 0.31469 0.29291 0.0
C275 C 0.33751 0.31969 0.31541 0.0
C276 C 0.30776 0.35815 0.35451 0.0
C277 C 0.30676 0.38313 0.35824 0.0
C278 C 0.28524 0.39506 0.35318 0.0
C279 C 0.26444 0.3822 0.34405 0.0
C280 C 0.26571 0.35716 0.34013 0.0
C281 C 0.28716 0.34528 0.34533 0.0
C282 C 0.32938 0.31503 0.37627 0.0
C283 C 0.34395 0.29512 0.37262 0.0
C284 C 0.3387 0.27333 0.38431 0.0
C285 C 0.31895 0.27116 0.40011 0.0
C286 C 0.30501 0.2915 0.4045 0.0
C287 C 0.31029 0.3133 0.39277 0.0
P288 P 0.51648 0.97164 0.54012 0.0
H289 H 0.52453 0.9617 0.4892 0.0
H290 H 0.52081 0.92503 0.46433 0.0
H291 H 0.50462 0.8833 0.52845 0.0
H292 H 0.50816 0.92037 0.5534 0.0
H293 H 0.49965 0.02086 0.53455 0.0
H294 H 0.45945 0.03695 0.52596 0.0
H295 H 0.42747 0.96477 0.52845 0.0
H296 H 0.46761 0.94881 0.53722 0.0
H297 H 0.55144 0.94242 0.56667 0.0
H298 H 0.49972 0.99664 0.58345 0.0
O299 O 0.53691 0.99091 0.52829 0.0
H300 H 0.56517 0.94242 0.60944 0.0
H301 H 0.51345 0.99682 0.626 0.0
C302 C 0.5172 0.94369 0.5232 0.0
C303 C 0.52065 0.94463 0.49803 0.0
C304 C 0.51833 0.92369 0.48381 0.0
C305 C 0.51238 0.90135 0.49448 0.0
C306 C 0.50947 0.90027 0.51983 0.0
C307 C 0.51157 0.92139 0.53408 0.0
C308 C 0.48667 0.98359 0.53585 0.0
C309 C 0.48396 0.00852 0.53338 0.0
C310 C 0.46098 0.01772 0.52869 0.0
C311 C 0.4404 0.00207 0.52633 0.0
C312 C 0.44308 0.97719 0.52986 0.0
C313 C 0.46602 0.96806 0.5348 0.0
C314 C 0.52406 0.96899 0.572 0.0
C315 C 0.54265 0.95389 0.57963 0.0
C316 C 0.55054 0.95398 0.60403 0.0
C317 C 0.54035 0.96962 0.62102 0.0
C318 C 0.5217 0.98467 0.61328 0.0
C319 C 0.51368 0.98439 0.58897 0.0
P320 P 0.19626 0.29561 0.66327 0.0
H321 H 0.20955 0.34232 0.64245 0.0
H322 H 0.23918 0.37418 0.65432 0.0
H323 H 0.26332 0.33107 0.71486 0.0
H324 H 0.23341 0.29899 0.70274 0.0
H325 H 0.21271 0.29317 0.61355 0.0
H326 H 0.23014 0.26121 0.58933 0.0
H327 H 0.23007 0.21479 0.65222 0.0
H328 H 0.21255 0.24704 0.67644 0.0
H329 H 0.18888 0.31168 0.71413 0.0
H330 H 0.16213 0.25469 0.66564 0.0
O331 O 0.17641 0.30808 0.64412 0.0
H332 H 0.15854 0.29945 0.74402 0.0
H333 H 0.13148 0.2428 0.69529 0.0
C334 C 0.21877 0.31859 0.67217 0.0
C335 C 0.22114 0.33967 0.65833 0.0
C336 C 0.2383 0.35781 0.66498 0.0
C337 C 0.25352 0.35523 0.68561 0.0
C338 C 0.25161 0.33372 0.69906 0.0
C339 C 0.23455 0.31542 0.6922 0.0
C340 C 0.21082 0.27226 0.64658 0.0
C341 C 0.21652 0.27615 0.62216 0.0
C342 C 0.22664 0.2579 0.60838 0.0
C343 C 0.23135 0.23539 0.61882 0.0
C344 C 0.2263 0.23181 0.64359 0.0
C345 C 0.21632 0.25022 0.65744 0.0
C346 C 0.17826 0.2837 0.68784 0.0
C347 C 0.17717 0.296 0.71023 0.0
C348 C 0.15977 0.28903 0.72733 0.0
C349 C 0.14279 0.27011 0.72198 0.0
C350 C 0.14447 0.25734 0.69991 0.0
C351 C 0.16204 0.26408 0.68302 0.0
P352 P 0.78386 0.18241 0.70801 0.0
H353 H 0.80779 0.22871 0.69727 0.0
H354 H 0.79469 0.26345 0.67392 0.0
H355 H 0.72203 0.23144 0.66774 0.0
H356 H 0.73537 0.1966 0.69069 0.0
H357 H 0.82929 0.15949 0.72087 0.0
H358 H 0.86095 0.16848 0.7516 0.0
H359 H 0.81749 0.22486 0.78122 0.0
H360 H 0.78627 0.2163 0.74955 0.0
H361 H 0.75707 0.14345 0.68244 0.0
H362 H 0.75557 0.17838 0.75285 0.0
O363 O 0.79817 0.16915 0.68525 0.0
H364 H 0.72272 0.1171 0.69337 0.0
H365 H 0.72075 0.15217 0.76387 0.0
C366 C 0.77255 0.21017 0.69602 0.0
C367 C 0.78888 0.22949 0.69148 0.0
C368 C 0.78131 0.2494 0.67815 0.0
C369 C 0.75728 0.25024 0.66888 0.0
C370 C 0.74071 0.23128 0.67441 0.0
C371 C 0.74831 0.21138 0.68774 0.0
C372 C 0.80571 0.18761 0.7326 0.0
C373 C 0.82653 0.17375 0.73402 0.0
C374 C 0.84455 0.17875 0.75185 0.0
C375 C 0.84197 0.19756 0.76887 0.0
C376 C 0.82037 0.21058 0.76812 0.0
C377 C 0.80243 0.20566 0.75011 0.0
C378 C 0.75922 0.16248 0.71704 0.0
C379 C 0.74944 0.14534 0.70035 0.0
C380 C 0.72958 0.13047 0.70652 0.0
C381 C 0.71895 0.13257 0.72948 0.0
C382 C 0.72871 0.14993 0.74615 0.0
C383 C 0.74861 0.1649 0.73989 0.0
P384 P 0.55276 0.55544 0.5482 0.0
H385 H 0.55403 0.53572 0.597 0.0
H386 H 0.52255 0.52585 0.62635 0.0
H387 H 0.46721 0.54373 0.57303 0.0
H388 H 0.49892 0.55293 0.54349 0.0
H389 H 0.59585 0.55569 0.51856 0.0
H390 H 0.62534 0.52511 0.50931 0.0
H391 H 0.58186 0.47203 0.54785 0.0
H392 H 0.55207 0.50256 0.55633 0.0
H393 H 0.53424 0.60382 0.54638 0.0
H394 H 0.5455 0.54599 0.49532 0.0
O395 O 0.57099 0.57406 0.56489 0.0
H396 H 0.52095 0.62955 0.51307 0.0
H397 H 0.53276 0.57185 0.46168 0.0
C398 C 0.52887 0.54524 0.56815 0.0
C399 C 0.5351 0.53722 0.59153 0.0
C400 C 0.51706 0.53177 0.60836 0.0
C401 C 0.4923 0.53434 0.60222 0.0
C402 C 0.48606 0.54145 0.57836 0.0
C403 C 0.50421 0.54684 0.56146 0.0
C404 C 0.57175 0.53148 0.53813 0.0
C405 C 0.59243 0.53735 0.52461 0.0
C406 C 0.60942 0.51987 0.51956 0.0
C407 C 0.6062 0.49611 0.5281 0.0
C408 C 0.58489 0.49006 0.54083 0.0
C409 C 0.56785 0.5076 0.54582 0.0
C410 C 0.54126 0.57316 0.52329 0.0
C411 C 0.53389 0.59668 0.52794 0.0
C412 C 0.52644 0.61144 0.50883 0.0
C413 C 0.52613 0.60295 0.4846 0.0
C414 C 0.53272 0.57898 0.48011 0.0
C415 C 0.54016 0.5642 0.49931 0.0
P416 P 0.55807 0.45451 0.9371 0.0
H417 H 0.59533 0.45571 0.97547 0.0
H418 H 0.62663 0.48593 0.98789 0.0
H419 H 0.59704 0.536 0.93615 0.0
H420 H 0.56563 0.50589 0.92397 0.0
H421 H 0.55654 0.40243 0.94625 0.0
H422 H 0.54052 0.37813 0.97972 0.0
H423 H 0.51879 0.44296 0.01624 0.0
H424 H 0.53547 0.46734 0.98295 0.0
H425 H 0.5559 0.47546 0.88856 0.0
H426 H 0.50508 0.45679 0.94475 0.0
O427 O 0.57466 0.43721 0.91934 0.0
H428 H 0.52252 0.48991 0.86307 0.0
H429 H 0.47174 0.46998 0.91916 0.0
C430 C 0.57802 0.4785 0.94887 0.0
C431 C 0.59518 0.4734 0.96721 0.0
C432 C 0.61303 0.4907 0.97436 0.0
C433 C 0.61428 0.5133 0.96295 0.0
C434 C 0.59657 0.51867 0.94514 0.0
C435 C 0.57857 0.50141 0.93817 0.0
C436 C 0.54717 0.43667 0.96217 0.0
C437 C 0.54859 0.41147 0.96156 0.0
C438 C 0.53951 0.39761 0.9807 0.0
C439 C 0.52847 0.40873 0.00049 0.0
C440 C 0.52717 0.434 0.00112 0.0
C441 C 0.5367 0.44789 0.98219 0.0
C442 C 0.53314 0.46524 0.91869 0.0
C443 C 0.53757 0.47444 0.89541 0.0
C444 C 0.51841 0.48251 0.88076 0.0
C445 C 0.49435 0.48122 0.88902 0.0
C446 C 0.49004 0.4718 0.91235 0.0
C447 C 0.50923 0.46404 0.92705 0.0
P448 P 0.7482 0.26371 0.24889 0.0
H449 H 0.75269 0.30976 0.27535 0.0
H450 H 0.75102 0.3203 0.31866 0.0
H451 H 0.73406 0.24562 0.33532 0.0
H452 H 0.73596 0.23521 0.29204 0.0
H453 H 0.79912 0.25029 0.24768 0.0
H454 H 0.81869 0.21137 0.2453 0.0
H455 H 0.7479 0.17494 0.24251 0.0
H456 H 0.72859 0.21385 0.2456 0.0
H457 H 0.69997 0.28175 0.26071 0.0
H458 H 0.73317 0.24509 0.20102 0.0
O459 O 0.76607 0.28458 0.23581 0.0
H460 H 0.6617 0.28267 0.23743 0.0
H461 H 0.69475 0.24524 0.17787 0.0
C462 C 0.74515 0.2716 0.28059 0.0
C463 C 0.74856 0.29567 0.28833 0.0
C464 C 0.74736 0.30172 0.31307 0.0
C465 C 0.74265 0.28375 0.33047 0.0
C466 C 0.73815 0.2598 0.32242 0.0
C467 C 0.73925 0.25382 0.29768 0.0
C468 C 0.76242 0.23497 0.24636 0.0
C469 C 0.78785 0.23391 0.24639 0.0
C470 C 0.79901 0.21164 0.24489 0.0
C471 C 0.78489 0.18998 0.24357 0.0
C472 C 0.75936 0.19121 0.2437 0.0
C473 C 0.74825 0.21347 0.24525 0.0
C474 C 0.71932 0.26299 0.23274 0.0
C475 C 0.69895 0.27355 0.24275 0.0
C476 C 0.677 0.27398 0.22942 0.0
C477 C 0.67508 0.26396 0.20577 0.0
C478 C 0.69561 0.25336 0.1959 0.0
C479 C 0.71755 0.25305 0.20919 0.0
P480 P 0.48126 0.01935 0.03803 0.0
H481 H 0.51012 0.05487 0.00967 0.0
H482 H 0.52835 0.05278 0.96968 0.0
H483 H 0.50072 0.97906 0.96148 0.0
H484 H 0.48118 0.98199 1.00045 0.0
H485 H 0.49353 0.03994 0.086 0.0
H486 H 0.49231 0.08074 0.10283 0.0
H487 H 0.46309 0.10585 0.03421 0.0
H488 H 0.46395 0.06476 0.01763 0.0
H489 H 0.46755 0.96867 0.04388 0.0
H490 H 0.43071 0.03496 0.03096 0.0
O491 O 0.5004 0.00424 0.05576 0.0
H492 H 0.42899 0.94606 0.04047 0.0
H493 H 0.39168 0.01263 0.02887 0.0
C494 C 0.49337 0.01892 0.00775 0.0
C495 C 0.50727 0.03855 0.99892 0.0
C496 C 0.5181 0.03716 0.97612 0.0
C497 C 0.51591 0.01581 0.96203 0.0
C498 C 0.50223 0.9961 0.97125 0.0
C499 C 0.49108 0.99769 0.99377 0.0
C500 C 0.47928 0.04942 0.05041 0.0
C501 C 0.48688 0.0542 0.07454 0.0
C502 C 0.48626 0.07758 0.08413 0.0
C503 C 0.47786 0.09662 0.06978 0.0
C504 C 0.46955 0.09159 0.04579 0.0
C505 C 0.47017 0.06815 0.03623 0.0
C506 C 0.45205 0.00354 0.038 0.0
C507 C 0.45105 0.97845 0.04084 0.0
C508 C 0.42885 0.96553 0.03905 0.0
C509 C 0.407 0.97747 0.03465 0.0
C510 C 0.40808 0.00275 0.03206 0.0
C511 C 0.43043 0.01563 0.0335 0.0
Zn512 Zn 0.28191 0.83311 0.00297 0.0
Zn513 Zn 0.24751 0.86296 0.00562 0.0
O514 O 0.23788 0.83687 0.03153 0.0
O515 O 0.26324 0.80851 0.02205 0.0
O516 O 0.2224 0.88896 0.00844 0.0
O517 O 0.30634 0.85525 0.02008 0.0
O518 O 0.2792 0.88306 0.01466 0.0
C519 C 0.24552 0.81552 0.03424 0.0
C520 C 0.26068 0.84044 0.95647 0.0
O521 O 0.24509 0.85126 0.96917 0.0
O522 O 0.27964 0.83253 0.9666 0.0
C523 C 0.19938 0.88692 0.00556 0.0
O524 O 0.18929 0.8657 1.00002 0.0
C525 C 0.30055 0.87709 0.02122 0.0
Zn526 Zn 0.08032 0.43416 0.30484 0.0
Zn527 Zn 0.1069 0.47552 0.29708 0.0
O528 O 0.08436 0.48699 0.32391 0.0
O529 O 0.06036 0.45449 0.32743 0.0
O530 O 0.12892 0.50376 0.28813 0.0
O531 O 0.11078 0.41811 0.3174 0.0
O532 O 0.13178 0.45132 0.30878 0.0
C533 C 0.06605 0.47617 0.3333 0.0
C534 C 0.0771 0.44944 0.25549 0.0
O535 O 0.08991 0.46718 0.26424 0.0
O536 O 0.07106 0.43191 0.269 0.0
C537 C 0.12628 0.5263 0.29098 0.0
O538 O 0.10686 0.534 0.30175 0.0
C539 C 0.13099 0.42971 0.31649 0.0
Zn540 Zn 0.79104 0.59498 0.95375 0.0
Zn541 Zn 0.77902 0.61578 0.99575 0.0
O542 O 0.80676 0.59368 0.00633 0.0
O543 O 0.81357 0.57361 0.9725 0.0
O544 O 0.76922 0.63282 0.02659 0.0
O545 O 0.8041 0.62688 0.94138 0.0
O546 O 0.79063 0.64424 0.97445 0.0
C547 C 0.81806 0.57751 0.99494 0.0
C548 C 0.74071 0.58731 0.96417 0.0
O549 O 0.74713 0.59797 0.98408 0.0
O550 O 0.75599 0.5847 0.9475 0.0
C551 C 0.78446 0.63939 0.04332 0.0
O552 O 0.80746 0.63428 0.04103 0.0
C553 C 0.80084 0.64575 0.95386 0.0
Zn554 Zn 0.84528 0.01112 0.28082 0.0
Zn555 Zn 0.87229 0.02051 0.24241 0.0
O556 O 0.85192 0.05142 0.24536 0.0
O557 O 0.82718 0.04145 0.27493 0.0
O558 O 0.89476 0.02704 0.21403 0.0
O559 O 0.87442 0.01216 0.30338 0.0
O560 O 0.89708 0.01525 0.27089 0.0
C561 C 0.83417 0.05639 0.25899 0.0
C562 C 0.83835 0.97509 0.24365 0.0
O563 O 0.85208 0.98968 0.23187 0.0
O564 O 0.83352 0.97951 0.26565 0.0
C565 C 0.88908 0.02226 0.19187 0.0
O566 O 0.86721 0.01323 0.18649 0.0
C567 C 0.89519 0.01309 0.29391 0.0
Zn568 Zn 0.29054 0.08427 0.4472 0.0
Zn569 Zn 0.27906 0.10678 0.48862 0.0
O570 O 0.30929 0.08805 0.49933 0.0
O571 O 0.31806 0.06893 0.46543 0.0
O572 O 0.27103 0.12677 0.51814 0.0
O573 O 0.296 0.11587 0.42986 0.0
O574 O 0.28632 0.13381 0.464 0.0
C575 C 0.32249 0.07354 0.48775 0.0
C576 C 0.24268 0.07061 0.46359 0.0
O577 O 0.24815 0.08517 0.48115 0.0
O578 O 0.25762 0.06756 0.44668 0.0
C579 C 0.25649 0.12085 0.53495 0.0
O580 O 0.24552 0.09941 0.53431 0.0
C581 C 0.2928 0.13504 0.44188 0.0
Zn582 Zn 0.33779 0.50743 0.78178 0.0
Zn583 Zn 0.36259 0.51003 0.74045 0.0
O584 O 0.34408 0.54226 0.74142 0.0
O585 O 0.32291 0.53935 0.77492 0.0
O586 O 0.38417 0.51362 0.71094 0.0
O587 O 0.36856 0.50626 0.80213 0.0
O588 O 0.38857 0.50576 0.76785 0.0
C589 C 0.32896 0.55106 0.75616 0.0
C590 C 0.32564 0.46813 0.74804 0.0
O591 O 0.34061 0.47924 0.73421 0.0
O592 O 0.32169 0.47643 0.76911 0.0
C593 C 0.37954 0.50603 0.68934 0.0
O594 O 0.35861 0.49471 0.68442 0.0
C595 C 0.38844 0.50501 0.79107 0.0
Zn596 Zn 0.77769 0.33436 0.51192 0.0
Zn597 Zn 0.74374 0.36689 0.51312 0.0
O598 O 0.73594 0.34398 0.54234 0.0
O599 O 0.76215 0.31504 0.53811 0.0
O600 O 0.71704 0.39141 0.51444 0.0
O601 O 0.80304 0.35997 0.52123 0.0
O602 O 0.77543 0.38782 0.51878 0.0
C603 C 0.74458 0.32395 0.54912 0.0
C604 C 0.75187 0.33609 0.46664 0.0
O605 O 0.73996 0.35187 0.47806 0.0
O606 O 0.76958 0.32616 0.47713 0.0
C607 C 0.6947 0.38507 0.51148 0.0
O608 O 0.68893 0.36219 0.50726 0.0
C609 C 0.79742 0.38189 0.52245 0.0
Zn610 Zn 0.59639 0.93773 0.8073 0.0
Zn611 Zn 0.6139 0.98367 0.80013 0.0
O612 O 0.59047 0.98821 0.82837 0.0
O613 O 0.57345 0.95179 0.83175 0.0
O614 O 0.62992 0.01658 0.79517 0.0
O615 O 0.63025 0.92783 0.81806 0.0
O616 O 0.64378 0.96436 0.80877 0.0
C617 C 0.57513 0.97379 0.83824 0.0
C618 C 0.58814 0.95462 0.7584 0.0
O619 O 0.59756 0.97423 0.76719 0.0
O620 O 0.58635 0.93599 0.77156 0.0
C621 C 0.62699 0.02985 0.77662 0.0
O622 O 0.61114 0.02299 0.75949 0.0
C623 C 0.64777 0.94306 0.81595 0.0
Zn624 Zn 0.99961 0.29144 0.83752 0.0
Zn625 Zn 0.00655 0.25395 0.8648 0.0
O626 O 0.03561 0.25345 0.84077 0.0
O627 O 0.02656 0.28272 0.81556 0.0
O628 O 0.01163 0.22509 0.88696 0.0
O629 O 0.00554 0.3143 0.86543 0.0
O630 O 0.0087 0.28294 0.88943 0.0
C631 C 0.04015 0.26575 0.82171 0.0
C632 C 0.95814 0.26003 0.83558 0.0
O633 O 0.97192 0.24695 0.84865 0.0
O634 O 0.96567 0.28074 0.82903 0.0
C635 C 0.02095 0.20558 0.8799 0.0
O636 O 0.02741 0.20351 0.85709 0.0
C637 C 0.00836 0.30578 0.88657 0.0
Zn638 Zn 0.4886 0.79196 0.33676 0.0
Zn639 Zn 0.49868 0.75607 0.36494 0.0
O640 O 0.52875 0.75818 0.34218 0.0
O641 O 0.52113 0.79096 0.32134 0.0
O642 O 0.50708 0.72956 0.38893 0.0
O643 O 0.48381 0.81467 0.36422 0.0
O644 O 0.49563 0.78579 0.38855 0.0
C645 C 0.53503 0.7739 0.3264 0.0
C646 C 0.45341 0.75365 0.3304 0.0
O647 O 0.46619 0.74413 0.34729 0.0
O648 O 0.4598 0.77409 0.32213 0.0
C649 C 0.50024 0.70738 0.38778 0.0
O650 O 0.48642 0.69966 0.36932 0.0
C651 C 0.48897 0.80744 0.38543 0.0
Zn652 Zn 0.92982 0.78637 0.6136 0.0
Zn653 Zn 0.97232 0.77995 0.63833 0.0
O654 O 0.98193 0.8056 0.61317 0.0
O655 O 0.94756 0.81148 0.59313 0.0
O656 O 0.00337 0.77525 0.65767 0.0
O657 O 0.91401 0.79588 0.64515 0.0
O658 O 0.94883 0.79081 0.66462 0.0
C659 C 0.97011 0.81625 0.59642 0.0
C660 C 0.94715 0.73791 0.60953 0.0
O661 O 0.9645 0.74654 0.62307 0.0
O662 O 0.92986 0.75118 0.60309 0.0
C663 C 0.0226 0.76843 0.64759 0.0
O664 O 0.02219 0.76432 0.62397 0.0
C665 C 0.92653 0.79635 0.66481 0.0
Zn666 Zn 0.4453 0.28268 0.11698 0.0
Zn667 Zn 0.48885 0.2747 0.13963 0.0
O668 O 0.49751 0.3005 0.11435 0.0
O669 O 0.46231 0.30856 0.09686 0.0
O670 O 0.52065 0.26936 0.15756 0.0
O671 O 0.43125 0.29147 0.14955 0.0
O672 O 0.46689 0.2857 0.16716 0.0
C673 C 0.48512 0.31233 0.09896 0.0
C674 C 0.46157 0.23373 0.11138 0.0
O675 O 0.47955 0.24165 0.1245 0.0
O676 O 0.44457 0.24762 0.10558 0.0
C677 C 0.54094 0.26944 0.14688 0.0
O678 O 0.54137 0.27267 0.1232 0.0
C679 C 0.44473 0.29153 0.16855 0.0
H680 H 0.2679 0.81026 0.84661 0.0
H681 H 0.19091 0.79599 0.85466 0.0
H682 H 0.19341 0.81254 0.89618 0.0
H683 H 0.21828 0.8289 0.93126 0.0
H684 H 0.29545 0.84145 0.92262 0.0
H685 H 0.29193 0.82849 0.88014 0.0
C686 C 0.25154 0.81116 0.85723 0.0
C687 C 0.22926 0.80187 0.84748 0.0
C688 C 0.25314 0.82053 0.88105 0.0
C689 C 0.20837 0.80275 0.86179 0.0
C690 C 0.20976 0.81234 0.88551 0.0
C691 C 0.23416 0.82923 0.91986 0.0
C692 C 0.25708 0.83614 0.93001 0.0
C693 C 0.23214 0.82101 0.89548 0.0
C694 C 0.27762 0.83614 0.9152 0.0
C695 C 0.27566 0.82866 0.89093 0.0
H696 H 0.99246 0.50625 0.41281 0.0
H697 H 0.05849 0.53696 0.44596 0.0
H698 H 0.08074 0.52785 0.40921 0.0
H699 H 0.08256 0.50663 0.36954 0.0
H700 H 0.01739 0.4718 0.33908 0.0
H701 H 0.99381 0.48673 0.3729 0.0
C702 C 0.01174 0.51091 0.41211 0.0
C703 C 0.02374 0.52201 0.43237 0.0
C704 C 0.02468 0.50465 0.39138 0.0
C705 C 0.04861 0.52857 0.43068 0.0
C706 C 0.06146 0.52315 0.40971 0.0
C707 C 0.06312 0.50275 0.37016 0.0
C708 C 0.05167 0.48815 0.35195 0.0
C709 C 0.04984 0.51058 0.39021 0.0
C710 C 0.02655 0.48292 0.35301 0.0
C711 C 0.01309 0.49142 0.37234 0.0
H712 H 0.84628 0.73715 0.9016 0.0
H713 H 0.79317 0.77273 0.94445 0.0
H714 H 0.78098 0.73418 0.96295 0.0
H715 H 0.78463 0.69009 0.9658 0.0
H716 H 0.83594 0.65439 0.9206 0.0
H717 H 0.84968 0.69317 0.90417 0.0
C718 C 0.83222 0.7364 0.91518 0.0
C719 C 0.82071 0.75758 0.92186 0.0
C720 C 0.82492 0.71416 0.92518 0.0
C721 C 0.80222 0.75651 0.93912 0.0
C722 C 0.79528 0.73453 0.94965 0.0
C723 C 0.7989 0.69085 0.95246 0.0
C724 C 0.80925 0.66943 0.94444 0.0
C725 C 0.80636 0.71319 0.94266 0.0
C726 C 0.82757 0.67063 0.92696 0.0
C727 C 0.8355 0.6928 0.91759 0.0
H728 H 0.97224 0.99789 0.3781 0.0
H729 H 0.00837 0.96149 0.31996 0.0
H730 H 0.97764 0.97472 0.29077 0.0
H731 H 0.93819 0.99329 0.28237 0.0
H732 H 0.90049 0.02632 0.34144 0.0
H733 H 0.93393 0.01758 0.36957 0.0
C734 C 0.97339 0.99274 0.35907 0.0
C735 C 0.99256 0.97852 0.35139 0.0
C736 C 0.95522 0.99971 0.34249 0.0
C737 C 0.99402 0.97261 0.32647 0.0
C738 C 0.9763 0.98 0.30974 0.0
C739 C 0.93754 0.9989 0.30131 0.0
C740 C 0.91691 0.01036 0.30984 0.0
C741 C 0.95653 0.99313 0.31762 0.0
C742 C 0.91614 0.01733 0.33448 0.0
C743 C 0.93523 0.01232 0.35059 0.0
H744 H 0.21609 0.18806 0.61735 0.0
H745 H 0.26762 0.23855 0.5857 0.0
H746 H 0.28062 0.20728 0.55774 0.0
H747 H 0.27593 0.16634 0.54089 0.0
H748 H 0.2242 0.11568 0.57206 0.0
H749 H 0.21297 0.14618 0.6018 0.0
C750 C 0.23044 0.19209 0.6046 0.0
C751 C 0.24076 0.21566 0.60352 0.0
C752 C 0.23772 0.17404 0.58841 0.0
C753 C 0.25914 0.22066 0.58669 0.0
C754 C 0.26663 0.20277 0.57073 0.0
C755 C 0.26229 0.16186 0.55427 0.0
C756 C 0.25083 0.13875 0.5541 0.0
C757 C 0.25578 0.17952 0.57117 0.0
C758 C 0.23328 0.13331 0.57168 0.0
C759 C 0.22681 0.15077 0.5887 0.0
H760 H 0.44698 0.5123 0.59712 0.0
H761 H 0.49488 0.54883 0.64986 0.0
H762 H 0.46454 0.54319 0.68117 0.0
H763 H 0.42444 0.5281 0.6938 0.0
H764 H 0.37595 0.49199 0.64134 0.0
H765 H 0.40631 0.49753 0.60978 0.0
C766 C 0.45071 0.51917 0.61542 0.0
C767 C 0.47336 0.5308 0.62107 0.0
C768 C 0.43303 0.51601 0.63345 0.0
C769 C 0.47788 0.53939 0.645 0.0
C770 C 0.46044 0.53633 0.66294 0.0
C771 C 0.42044 0.52144 0.67547 0.0
C772 C 0.39787 0.50963 0.67004 0.0
C773 C 0.43798 0.52464 0.65741 0.0
C774 C 0.39312 0.50115 0.64612 0.0
C775 C 0.4105 0.5043 0.62802 0.0
H776 H 0.73064 0.24467 0.62683 0.0
H777 H 0.7692 0.29872 0.67112 0.0
H778 H 0.76424 0.32839 0.63881 0.0
H779 H 0.7544 0.33699 0.59571 0.0
H780 H 0.7184 0.28195 0.55094 0.0
H781 H 0.716 0.25489 0.5859 0.0
C782 C 0.73732 0.26312 0.62977 0.0
C783 C 0.7505 0.26936 0.65131 0.0
C784 C 0.73478 0.27994 0.61095 0.0
C785 C 0.75935 0.29331 0.65457 0.0
C786 C 0.75646 0.31032 0.63612 0.0
C787 C 0.74516 0.31943 0.59399 0.0
C788 C 0.73616 0.3115 0.57106 0.0
C789 C 0.74495 0.3036 0.61391 0.0
C790 C 0.72497 0.28847 0.56863 0.0
C791 C 0.7239 0.27294 0.58852 0.0
H792 H 0.54893 0.93218 0.65129 0.0
H793 H 0.55262 0.00993 0.64788 0.0
H794 H 0.56804 0.01223 0.68996 0.0
H795 H 0.58039 0.99213 0.72774 0.0
H796 H 0.57575 0.91432 0.73142 0.0
H797 H 0.56094 0.91207 0.68924 0.0
C798 C 0.55326 0.94959 0.65976 0.0
C799 C 0.54965 0.97084 0.64656 0.0
C800 C 0.56195 0.95078 0.684 0.0
C801 C 0.55502 0.99332 0.6578 0.0
C802 C 0.56394 0.99465 0.6818 0.0
C803 C 0.57622 0.97468 0.7193 0.0
C804 C 0.57925 0.95344 0.73274 0.0
C805 C 0.56745 0.9735 0.69509 0.0
C806 C 0.57355 0.93097 0.72155 0.0
C807 C 0.5651 0.92965 0.69739 0.0
H808 H 0.85689 0.24304 0.78232 0.0
H809 H 0.87385 0.1684 0.79331 0.0
H810 H 0.91055 0.18087 0.8167 0.0
H811 H 0.93964 0.21335 0.83132 0.0
H812 H 0.92145 0.28768 0.8199 0.0
H813 H 0.88322 0.27487 0.80011 0.0
C814 C 0.86819 0.2294 0.79031 0.0
C815 C 0.86257 0.2048 0.78583 0.0
C816 C 0.88923 0.23666 0.8037 0.0
C817 C 0.87788 0.1875 0.79605 0.0
C818 C 0.89886 0.19461 0.80955 0.0
C819 C 0.9271 0.22669 0.82485 0.0
C820 C 0.93362 0.25143 0.82685 0.0
C821 C 0.90503 0.2192 0.81306 0.0
C822 C 0.91713 0.2685 0.81834 0.0
C823 C 0.89519 0.26122 0.80698 0.0
H824 H 0.4835 0.89797 0.45436 0.0
H825 H 0.53125 0.85634 0.49939 0.0
H826 H 0.52665 0.82221 0.47062 0.0
H827 H 0.51153 0.80571 0.4306 0.0
H828 H 0.46422 0.84877 0.38613 0.0
H829 H 0.46608 0.88068 0.41673 0.0
C830 C 0.49286 0.88138 0.45789 0.0
C831 C 0.50798 0.87974 0.47868 0.0
C832 C 0.49025 0.8621 0.4413 0.0
C833 C 0.51956 0.85799 0.4834 0.0
C834 C 0.517 0.83856 0.46692 0.0
C835 C 0.50137 0.82192 0.42783 0.0
C836 C 0.48801 0.82492 0.40593 0.0
C837 C 0.50274 0.84057 0.44551 0.0
C838 C 0.47492 0.84607 0.40263 0.0
C839 C 0.47594 0.8644 0.42013 0.0
H840 H 0.14181 0.26086 0.77097 0.0
H841 H 0.09563 0.27082 0.70759 0.0
H842 H 0.05962 0.26843 0.73273 0.0
H843 H 0.04146 0.26676 0.77293 0.0
H844 H 0.0864 0.25495 0.83666 0.0
H845 H 0.12269 0.2544 0.81128 0.0
C846 C 0.1238 0.26222 0.76275 0.0
C847 C 0.12132 0.26609 0.7375 0.0
C848 C 0.10303 0.26053 0.77736 0.0
C849 C 0.09794 0.26768 0.72695 0.0
C850 C 0.07736 0.26643 0.74132 0.0
C851 C 0.05918 0.26371 0.7812 0.0
C852 C 0.06139 0.26111 0.80656 0.0
C853 C 0.07972 0.26329 0.76654 0.0
C854 C 0.08433 0.2569 0.81711 0.0
C855 C 0.10505 0.25679 0.80263 0.0
H856 H 0.53913 0.65049 0.47933 0.0
H857 H 0.49805 0.59206 0.44376 0.0
H858 H 0.48685 0.61892 0.41052 0.0
H859 H 0.48812 0.65929 0.39187 0.0
H860 H 0.5288 0.71768 0.4281 0.0
H861 H 0.54043 0.69061 0.46082 0.0
C862 C 0.52751 0.64364 0.46445 0.0
C863 C 0.51938 0.61925 0.46418 0.0
C864 C 0.52101 0.65922 0.44547 0.0
C865 C 0.50478 0.61065 0.4444 0.0
C866 C 0.49824 0.62605 0.42542 0.0
C867 C 0.49956 0.66611 0.40689 0.0
C868 C 0.50751 0.69057 0.40744 0.0
C869 C 0.5062 0.65041 0.42579 0.0
C870 C 0.52235 0.699 0.42712 0.0
C871 C 0.52904 0.68352 0.4459 0.0
H872 H 0.86246 0.82501 0.75405 0.0
H873 H 0.93219 0.82331 0.79139 0.0
H874 H 0.95153 0.81246 0.75332 0.0
H875 H 0.94853 0.8031 0.70948 0.0
H876 H 0.87864 0.80502 0.67225 0.0
H877 H 0.85949 0.81592 0.71025 0.0
C878 C 0.88186 0.82208 0.75388 0.0
C879 C 0.89585 0.82491 0.77553 0.0
C880 C 0.89284 0.81586 0.73195 0.0
C881 C 0.92104 0.82146 0.77493 0.0
C882 C 0.93209 0.81514 0.7532 0.0
C883 C 0.92911 0.80588 0.70966 0.0
C884 C 0.91509 0.80319 0.68798 0.0
C885 C 0.91816 0.81227 0.73159 0.0
C886 C 0.88993 0.80698 0.6886 0.0
C887 C 0.87892 0.8132 0.71035 0.0
H888 H 0.03983 0.87766 0.52881 0.0
H889 H 0.97209 0.88594 0.48917 0.0
H890 H 0.95024 0.86358 0.52053 0.0
H891 H 0.95067 0.83978 0.5578 0.0
H892 H 0.01841 0.83038 0.59726 0.0
H893 H 0.03989 0.85536 0.56756 0.0
C894 C 0.02024 0.87485 0.52726 0.0
C895 C 0.00761 0.88329 0.50663 0.0
C896 C 0.00781 0.86172 0.54526 0.0
C897 C 0.98225 0.87934 0.50473 0.0
C898 C 0.96975 0.86662 0.52267 0.0
C899 C 0.9701 0.84332 0.56008 0.0
C900 C 0.98288 0.83307 0.5797 0.0
C901 C 0.98239 0.85739 0.54279 0.0
C902 C 0.00808 0.83796 0.58231 0.0
C903 C 0.02041 0.85222 0.5653 0.0
H904 H 0.11003 0.76191 0.72361 0.0
H905 H 0.14817 0.74486 0.65806 0.0
H906 H 0.11052 0.74762 0.6341 0.0
H907 H 0.06702 0.75605 0.63147 0.0
H908 H 0.02909 0.77426 0.69683 0.0
H909 H 0.06646 0.7702 0.72101 0.0
C910 C 0.11016 0.75895 0.70406 0.0
C911 C 0.13196 0.75316 0.69272 0.0
C912 C 0.08849 0.76089 0.69029 0.0
C913 C 0.13164 0.74899 0.66739 0.0
C914 C 0.11013 0.75075 0.6536 0.0
C915 C 0.06688 0.75909 0.65101 0.0
C916 C 0.04525 0.76551 0.66226 0.0
C917 C 0.08848 0.75682 0.66483 0.0
C918 C 0.04546 0.76936 0.68764 0.0
C919 C 0.06684 0.76703 0.70151 0.0
H920 H 0.9349 0.63487 0.55987 0.0
H921 H 0.0049 0.62644 0.5952 0.0
H922 H 0.00329 0.66701 0.61268 0.0
H923 H 0.98247 0.70525 0.61715 0.0
H924 H 0.91262 0.71377 0.58132 0.0
H925 H 0.91383 0.67289 0.56477 0.0
C926 C 0.94987 0.64199 0.57126 0.0
C927 C 0.96999 0.62766 0.57618 0.0
C928 C 0.94888 0.66536 0.58118 0.0
C929 C 0.98907 0.637 0.59132 0.0
C930 C 0.98823 0.66024 0.60123 0.0
C931 C 0.96744 0.69815 0.60582 0.0
C932 C 0.94752 0.71265 0.60049 0.0
C933 C 0.96826 0.67461 0.59623 0.0
C934 C 0.92823 0.70309 0.58573 0.0
C935 C 0.92889 0.67969 0.57621 0.0
H936 H 0.7787 0.89559 0.18289 0.0
H937 H 0.78544 0.85776 0.25119 0.0
H938 H 0.8099 0.89137 0.26832 0.0
H939 H 0.82751 0.9324 0.26484 0.0
H940 H 0.82398 0.96904 0.19593 0.0
H941 H 0.80078 0.93455 0.17786 0.0
C942 C 0.78591 0.89431 0.20134 0.0
C943 C 0.77962 0.87417 0.21579 0.0
C944 C 0.8006 0.91351 0.211 0.0
C945 C 0.78915 0.87324 0.23977 0.0
C946 C 0.80339 0.89241 0.24959 0.0
C947 C 0.82183 0.93272 0.24579 0.0
C948 C 0.82714 0.95329 0.23178 0.0
C949 C 0.80882 0.9128 0.23553 0.0
C950 C 0.82007 0.95338 0.20705 0.0
C951 C 0.80671 0.93373 0.19678 0.0
H952 H 0.77157 0.14918 0.26768 0.0
H953 H 0.82501 0.17731 0.21795 0.0
H954 H 0.8448 0.13843 0.21771 0.0
H955 H 0.84721 0.09634 0.23222 0.0
H956 H 0.79301 0.06898 0.28174 0.0
H957 H 0.77311 0.10741 0.281 0.0
C958 C 0.78734 0.14676 0.25648 0.0
C959 C 0.79671 0.16619 0.24284 0.0
C960 C 0.79854 0.12439 0.25634 0.0
C961 C 0.81752 0.16278 0.22887 0.0
C962 C 0.82879 0.14049 0.22861 0.0
C963 C 0.83096 0.09876 0.24271 0.0
C964 C 0.82175 0.07971 0.25706 0.0
C965 C 0.81952 0.12115 0.24237 0.0
C966 C 0.80067 0.08325 0.2706 0.0
C967 C 0.7892 0.10528 0.27022 0.0
H968 H 0.39254 0.93723 0.05948 0.0
H969 H 0.36836 0.98576 0.00348 0.0
H970 H 0.33156 0.96058 0.99665 0.0
H971 H 0.30806 0.92253 0.00376 0.0
H972 H 0.33507 0.87216 0.05647 0.0
H973 H 0.36901 0.90006 0.06716 0.0
C974 C 0.37936 0.94229 0.04563 0.0
C975 C 0.3835 0.96333 0.0319 0.0
C976 C 0.35871 0.92724 0.04109 0.0
C977 C 0.3657 0.96985 0.01456 0.0
C978 C 0.34468 0.95532 0.01046 0.0
C979 C 0.3212 0.91793 0.01785 0.0
C980 C 0.31913 0.8954 0.02936 0.0
C981 C 0.34123 0.9337 0.02326 0.0
C982 C 0.3364 0.8894 0.04734 0.0
C983 C 0.3558 0.90532 0.05342 0.0
H984 H 0.21788 0.36632 0.35215 0.0
H985 H 0.25955 0.42649 0.32303 0.0
H986 H 0.22204 0.44683 0.3129 0.0
H987 H 0.17745 0.44701 0.31112 0.0
H988 H 0.13576 0.38604 0.33864 0.0
H989 H 0.1733 0.3664 0.3502 0.0
C990 C 0.21879 0.38378 0.34338 0.0
C991 C 0.24157 0.3948 0.33835 0.0
C992 C 0.19715 0.39521 0.33721 0.0
C993 C 0.24234 0.41769 0.32743 0.0
C994 C 0.22087 0.42928 0.32146 0.0
C995 C 0.17653 0.42946 0.31973 0.0
C996 C 0.15378 0.41804 0.32398 0.0
C997 C 0.19819 0.41815 0.32615 0.0
C998 C 0.153 0.39525 0.33508 0.0
C999 C 0.17447 0.38399 0.34172 0.0
H1000 H 0.13975 0.01648 0.47285 0.0
H1001 H 0.1688 0.97545 0.41364 0.0
H1002 H 0.20594 0.00063 0.41506 0.0
H1003 H 0.23025 0.03375 0.43293 0.0
H1004 H 0.20285 0.07498 0.49284 0.0
H1005 H 0.16491 0.05033 0.49127 0.0
C1006 C 0.15423 0.01317 0.46027 0.0
C1007 C 0.15163 0.99401 0.44329 0.0
C1008 C 0.17576 0.02772 0.46127 0.0
C1009 C 0.17053 0.98982 0.42713 0.0
C1010 C 0.19173 0.00429 0.42783 0.0
C1011 C 0.216 0.03752 0.44565 0.0
C1012 C 0.21938 0.05629 0.46291 0.0
C1013 C 0.19455 0.0232 0.44483 0.0
C1014 C 0.20072 0.06066 0.47934 0.0
C1015 C 0.17903 0.04657 0.47844 0.0
H1016 H 0.71172 0.10915 0.7723 0.0
H1017 H 0.67928 0.11939 0.70101 0.0
H1018 H 0.64694 0.08971 0.70996 0.0
H1019 H 0.62942 0.05896 0.73695 0.0
H1020 H 0.66208 0.04844 0.80815 0.0
H1021 H 0.69242 0.08046 0.80047 0.0
C1022 C 0.69734 0.1052 0.75889 0.0
C1023 C 0.69807 0.1163 0.73594 0.0
C1024 C 0.67884 0.08801 0.7641 0.0
C1025 C 0.6794 0.11078 0.71867 0.0
C1026 C 0.66083 0.09389 0.7238 0.0
C1027 C 0.64299 0.06383 0.75092 0.0
C1028 C 0.64354 0.05114 0.77301 0.0
C1029 C 0.66062 0.08206 0.74628 0.0
C1030 C 0.66126 0.05779 0.79091 0.0
C1031 C 0.67869 0.07608 0.78653 0.0
H1032 H 0.41715 0.04105 0.54415 0.0
H1033 H 0.41056 0.98403 0.49019 0.0
H1034 H 0.37292 0.00056 0.47434 0.0
H1035 H 0.34319 0.03224 0.47428 0.0
H1036 H 0.34855 0.08912 0.52842 0.0
H1037 H 0.38532 0.07158 0.54586 0.0
C1038 C 0.40736 0.03225 0.52899 0.0
C1039 C 0.41662 0.01139 0.5183 0.0
C1040 C 0.38562 0.04185 0.51998 0.0
C1041 C 0.40368 0.99997 0.49886 0.0
C1042 C 0.38224 0.00949 0.48969 0.0
C1043 C 0.35234 0.04078 0.48997 0.0
C1044 C 0.34336 0.06209 0.49988 0.0
C1045 C 0.37324 0.03056 0.49989 0.0
C1046 C 0.35515 0.07271 0.52045 0.0
C1047 C 0.37621 0.06274 0.53035 0.0
H1048 H 0.60079 0.44788 0.51699 0.0
H1049 H 0.65547 0.50399 0.53232 0.0
H1050 H 0.68747 0.47499 0.52795 0.0
H1051 H 0.70013 0.4335 0.52068 0.0
H1052 H 0.64553 0.37713 0.50614 0.0
H1053 H 0.6135 0.40631 0.50957 0.0
C1054 C 0.6197 0.45375 0.51951 0.0
C1055 C 0.6256 0.47819 0.52487 0.0
C1056 C 0.63812 0.43688 0.5172 0.0
C1057 C 0.65029 0.48544 0.52776 0.0
C1058 C 0.66867 0.46881 0.52545 0.0
C1059 C 0.68124 0.42757 0.51822 0.0
C1060 C 0.67534 0.40308 0.51319 0.0
C1061 C 0.66282 0.44446 0.52025 0.0
C1062 C 0.65069 0.39582 0.51005 0.0
C1063 C 0.6323 0.41252 0.51201 0.0
H1064 H 0.72401 0.3223 0.35463 0.0
H1065 H 0.76547 0.25839 0.36582 0.0
H1066 H 0.7708 0.26848 0.40889 0.0
H1067 H 0.76552 0.29611 0.44289 0.0
H1068 H 0.72417 0.36021 0.4329 0.0
H1069 H 0.71692 0.34937 0.38985 0.0
C1070 C 0.73417 0.3106 0.36654 0.0
C1071 C 0.7443 0.28959 0.35697 0.0
C1072 C 0.73726 0.31657 0.39145 0.0
C1073 C 0.75719 0.27447 0.37271 0.0
C1074 C 0.76041 0.28031 0.39734 0.0
C1075 C 0.75485 0.30776 0.43136 0.0
C1076 C 0.74562 0.32909 0.44106 0.0
C1077 C 0.75077 0.30141 0.40682 0.0
C1078 C 0.73153 0.34371 0.4259 0.0
C1079 C 0.72745 0.33755 0.40127 0.0
H1080 H 0.50049 0.9906 0.92129 0.0
H1081 H 0.56046 0.03563 0.94952 0.0
H1082 H 0.58273 0.02902 0.91229 0.0
H1083 H 0.58692 0.00735 0.87325 0.0
H1084 H 0.52895 0.95856 0.84774 0.0
H1085 H 0.50441 0.96937 0.88251 0.0
C1086 C 0.51852 0.99885 0.91951 0.0
C1087 C 0.52872 0.01346 0.93846 0.0
C1088 C 0.53173 0.99412 0.89852 0.0
C1089 C 0.55186 0.02454 0.93526 0.0
C1090 C 0.56479 0.02057 0.91401 0.0
C1091 C 0.56878 0.99938 0.8752 0.0
C1092 C 0.5597 0.98222 0.85803 0.0
C1093 C 0.55512 0.00501 0.89573 0.0
C1094 C 0.53632 0.97174 0.86084 0.0
C1095 C 0.5223 0.97791 0.8807 0.0
H1096 H 0.31798 0.22683 0.37874 0.0
H1097 H 0.3057 0.26273 0.4472 0.0
H1098 H 0.29565 0.22388 0.46597 0.0
H1099 H 0.29136 0.17962 0.46313 0.0
H1100 H 0.30451 0.14393 0.39464 0.0
H1101 H 0.31342 0.18281 0.3758 0.0
C1102 C 0.31333 0.22614 0.39784 0.0
C1103 C 0.31273 0.24763 0.41158 0.0
C1104 C 0.30774 0.20378 0.40852 0.0
C1105 C 0.30614 0.24647 0.43616 0.0
C1106 C 0.3005 0.22425 0.44694 0.0
C1107 C 0.29608 0.18033 0.44406 0.0
C1108 C 0.2973 0.15883 0.43037 0.0
C1109 C 0.30133 0.20278 0.43331 0.0
C1110 C 0.30347 0.16014 0.40567 0.0
C1111 C 0.30859 0.18239 0.39484 0.0
H1112 H 0.48827 0.47619 0.83954 0.0
H1113 H 0.45381 0.50452 0.90321 0.0
H1114 H 0.41845 0.51476 0.87844 0.0
H1115 H 0.39656 0.5143 0.83915 0.0
H1116 H 0.43146 0.48795 0.77497 0.0
H1117 H 0.46769 0.47895 0.79945 0.0
C1118 C 0.47326 0.48499 0.84799 0.0
C1119 C 0.47368 0.4892 0.87337 0.0
C1120 C 0.45304 0.49124 0.83355 0.0
C1121 C 0.45382 0.50044 0.88389 0.0
C1122 C 0.43362 0.5065 0.8697 0.0
C1123 C 0.41214 0.5067 0.83047 0.0
C1124 C 0.41122 0.50159 0.80531 0.0
C1125 C 0.43289 0.50167 0.8446 0.0
C1126 C 0.43169 0.49205 0.7943 0.0
C1127 C 0.45237 0.4868 0.80831 0.0
H1128 H 0.76965 0.70686 0.13477 0.0
H1129 H 0.6985 0.71161 0.10062 0.0
H1130 H 0.70934 0.68243 0.06969 0.0
H1131 H 0.73982 0.65771 0.0505 0.0
H1132 H 0.81171 0.65441 0.0832 0.0
H1133 H 0.79983 0.68103 0.11623 0.0
C1134 C 0.7565 0.70155 0.12056 0.0
C1135 C 0.73327 0.71152 0.12017 0.0
C1136 C 0.76305 0.68513 0.10236 0.0
C1137 C 0.71638 0.70403 0.10176 0.0
C1138 C 0.72264 0.68748 0.08384 0.0
C1139 C 0.75287 0.66264 0.06494 0.0
C1140 C 0.77668 0.65415 0.06424 0.0
C1141 C 0.74603 0.6782 0.08373 0.0
C1142 C 0.7933 0.66076 0.08316 0.0
C1143 C 0.78653 0.67601 0.10208 0.0
H1144 H 0.9552 0.02768 0.09885 0.0
H1145 H 0.00703 0.05693 0.15236 0.0
H1146 H 0.97676 0.05272 0.18398 0.0
H1147 H 0.93566 0.04052 0.1967 0.0
H1148 H 0.88345 0.01192 0.14322 0.0
H1149 H 0.91361 0.01647 0.11142 0.0
C1150 C 0.95982 0.03336 0.11737 0.0
C1151 C 0.98351 0.04243 0.12315 0.0
C1152 C 0.94221 0.03106 0.13555 0.0
C1153 C 0.98916 0.04944 0.14738 0.0
C1154 C 0.97177 0.04721 0.1655 0.0
C1155 C 0.93081 0.03534 0.17808 0.0
C1156 C 0.90727 0.02585 0.17245 0.0
C1157 C 0.94828 0.03795 0.15983 0.0
C1158 C 0.90139 0.01927 0.14816 0.0
C1159 C 0.91866 0.02184 0.12992 0.0
H1160 H 0.23452 0.7272 0.10231 0.0
H1161 H 0.24513 0.78276 0.15721 0.0
H1162 H 0.24024 0.81393 0.12618 0.0
H1163 H 0.23977 0.82502 0.08245 0.0
H1164 H 0.23184 0.76876 0.02794 0.0
H1165 H 0.22828 0.73828 0.05965 0.0
C1166 C 0.23536 0.74615 0.1075 0.0
C1167 C 0.24055 0.75272 0.13188 0.0
C1168 C 0.23303 0.76385 0.08955 0.0
C1169 C 0.24119 0.77728 0.13851 0.0
C1170 C 0.23854 0.79509 0.12075 0.0
C1171 C 0.23633 0.80618 0.07764 0.0
C1172 C 0.23596 0.79906 0.05298 0.0
C1173 C 0.23535 0.78859 0.09606 0.0
C1174 C 0.23204 0.77457 0.04685 0.0
C1175 C 0.23024 0.75714 0.06496 0.0
H1176 H 0.0381 0.4328 0.14727 0.0
H1177 H 0.05705 0.5088 0.14354 0.0
H1178 H 0.07155 0.50869 0.18593 0.0
H1179 H 0.07828 0.48716 0.22417 0.0
H1180 H 0.05801 0.4114 0.22855 0.0
H1181 H 0.04467 0.41121 0.18583 0.0
C1182 C 0.04556 0.44925 0.15576 0.0
C1183 C 0.0465 0.47076 0.14241 0.0
C1184 C 0.05356 0.44911 0.18024 0.0
C1185 C 0.05595 0.49207 0.1536 0.0
C1186 C 0.0643 0.492 0.17778 0.0
C1187 C 0.07102 0.47058 0.21577 0.0
C1188 C 0.06919 0.44933 0.22954 0.0
C1189 C 0.06309 0.47066 0.19131 0.0
C1190 C 0.05956 0.42804 0.2184 0.0
C1191 C 0.05196 0.4279 0.19395 0.0
H1192 H 0.36295 0.68926 0.2915 0.0
H1193 H 0.35079 0.75464 0.25129 0.0
H1194 H 0.38611 0.77415 0.27134 0.0
H1195 H 0.42114 0.77249 0.29873 0.0
H1196 H 0.43503 0.70752 0.33884 0.0
H1197 H 0.39841 0.68794 0.32016 0.0
C1198 C 0.36806 0.70776 0.28712 0.0
C1199 C 0.35403 0.72046 0.26995 0.0
C1200 C 0.38876 0.7189 0.29854 0.0
C1201 C 0.36084 0.74452 0.26472 0.0
C1202 C 0.38122 0.75567 0.27602 0.0
C1203 C 0.41628 0.75402 0.3035 0.0
C1204 C 0.43098 0.74146 0.32008 0.0
C1205 C 0.39539 0.74299 0.29275 0.0
C1206 C 0.42411 0.71761 0.3261 0.0
C1207 C 0.40318 0.70642 0.3154 0.0
H1208 H 0.02482 0.36753 0.98378 0.0
H1209 H 0.00416 0.42391 0.93431 0.0
H1210 H 0.9995 0.39472 0.90119 0.0
H1211 H 0.00141 0.35372 0.88596 0.0
H1212 H 0.02078 0.29618 0.93444 0.0
H1213 H 0.02549 0.32527 0.96831 0.0
C1214 C 0.01916 0.37336 0.96578 0.0
C1215 C 0.01527 0.39801 0.96152 0.0
C1216 C 0.01623 0.35631 0.94664 0.0
C1217 C 0.00793 0.40523 0.93805 0.0
C1218 C 0.00505 0.3885 0.91908 0.0
C1219 C 0.00671 0.3474 0.9039 0.0
C1220 C 0.01088 0.32278 0.90758 0.0
C1221 C 0.00929 0.36409 0.92313 0.0
C1222 C 0.01749 0.31503 0.93107 0.0
C1223 C 0.0202 0.33167 0.95043 0.0
H1224 H 0.62366 0.75385 0.25862 0.0
H1225 H 0.62547 0.83182 0.25728 0.0
H1226 H 0.59292 0.83256 0.28651 0.0
H1227 H 0.56193 0.81141 0.30999 0.0
H1228 H 0.5599 0.73369 0.31323 0.0
H1229 H 0.59495 0.7325 0.28622 0.0
C1230 C 0.61718 0.77099 0.26502 0.0
C1231 C 0.62664 0.79274 0.25522 0.0
C1232 C 0.59842 0.77135 0.28215 0.0
C1233 C 0.61806 0.81479 0.26386 0.0
C1234 C 0.59953 0.81527 0.28073 0.0
C1235 C 0.56929 0.79418 0.30497 0.0
C1236 C 0.5582 0.77266 0.31329 0.0
C1237 C 0.58922 0.79369 0.28953 0.0
C1238 C 0.56817 0.75051 0.30702 0.0
C1239 C 0.58808 0.74984 0.29147 0.0
H1240 H 0.05137 0.11522 0.94205 0.0
H1241 H 0.01202 0.15297 0.99697 0.0
H1242 H 0.00275 0.18459 0.9679 0.0
H1243 H 0.00658 0.2022 0.92713 0.0
H1244 H 0.0451 0.16404 0.87188 0.0
H1245 H 0.05356 0.1319 0.90068 0.0
C1246 C 0.04046 0.13017 0.94759 0.0
C1247 C 0.03262 0.13171 0.97181 0.0
C1248 C 0.03506 0.14833 0.93069 0.0
C1249 C 0.01873 0.15145 0.97863 0.0
C1250 C 0.01329 0.16954 0.96196 0.0
C1251 C 0.01677 0.18683 0.92134 0.0
C1252 C 0.02526 0.18568 0.89734 0.0
C1253 C 0.02156 0.16831 0.93801 0.0
C1254 C 0.03834 0.1655 0.8902 0.0
C1255 C 0.04322 0.14707 0.90669 0.0
H1256 H 0.41687 0.31764 0.27658 0.0
H1257 H 0.34608 0.32271 0.24194 0.0
H1258 H 0.36313 0.31256 0.20259 0.0
H1259 H 0.39791 0.30187 0.17814 0.0
H1260 H 0.46881 0.29636 0.21261 0.0
H1261 H 0.45195 0.30724 0.25187 0.0
C1262 C 0.40525 0.31675 0.26036 0.0
C1263 C 0.38025 0.32089 0.26217 0.0
C1264 C 0.41516 0.31079 0.23779 0.0
C1265 C 0.36533 0.31934 0.24106 0.0
C1266 C 0.37508 0.31363 0.21855 0.0
C1267 C 0.40974 0.30308 0.1942 0.0
C1268 C 0.43461 0.29829 0.19237 0.0
C1269 C 0.39993 0.30921 0.21672 0.0
C1270 C 0.44959 0.29991 0.21345 0.0
C1271 C 0.43998 0.30615 0.23593 0.0
H1272 H 0.54994 0.37408 0.02725 0.0
H1273 H 0.48231 0.41016 0.01695 0.0
H1274 H 0.46297 0.38386 0.04704 0.0
H1275 H 0.4649 0.34952 0.07492 0.0
H1276 H 0.53298 0.31442 0.08662 0.0
H1277 H 0.55261 0.34148 0.05745 0.0
C1278 C 0.531 0.37616 0.03173 0.0
C1279 C 0.51747 0.39385 0.0199 0.0
C1280 C 0.52011 0.36116 0.04921 0.0
C1281 C 0.49305 0.39669 0.02596 0.0
C1282 C 0.48199 0.38161 0.04306 0.0
C1283 C 0.48406 0.34786 0.07115 0.0
C1284 C 0.49741 0.32986 0.08274 0.0
C1285 C 0.49528 0.36363 0.05459 0.0
C1286 C 0.5223 0.32814 0.07794 0.0
C1287 C 0.53352 0.34354 0.0612 0.0
H1288 H 0.62862 0.25714 0.22157 0.0
H1289 H 0.66958 0.27345 0.15716 0.0
H1290 H 0.63189 0.27562 0.1332 0.0
H1291 H 0.58727 0.27392 0.13062 0.0
H1292 H 0.54618 0.25898 0.19527 0.0
H1293 H 0.58392 0.25555 0.21903 0.0
C1294 C 0.62931 0.26137 0.20234 0.0
C1295 C 0.65197 0.26507 0.19124 0.0
C1296 C 0.60752 0.26291 0.18867 0.0
C1297 C 0.65247 0.27015 0.16617 0.0
C1298 C 0.63089 0.27156 0.15244 0.0
C1299 C 0.58654 0.26982 0.14989 0.0
C1300 C 0.56389 0.26673 0.16111 0.0
C1301 C 0.60832 0.26805 0.16351 0.0
C1302 C 0.56334 0.2615 0.18614 0.0
C1303 C 0.58493 0.25954 0.19976 0.0
H1304 H 0.44294 0.13004 0.06453 0.0
H1305 H 0.51376 0.11946 0.09734 0.0
H1306 H 0.51468 0.16058 0.11366 0.0
H1307 H 0.49577 0.1998 0.118 0.0
H1308 H 0.42525 0.21065 0.0845 0.0
H1309 H 0.42399 0.16929 0.06891 0.0
C1310 C 0.45866 0.1368 0.07509 0.0
C1311 C 0.47822 0.12166 0.07972 0.0
C1312 C 0.45916 0.16054 0.08429 0.0
C1313 C 0.49829 0.1306 0.09377 0.0
C1314 C 0.49891 0.15417 0.10299 0.0
C1315 C 0.48008 0.19313 0.10735 0.0
C1316 C 0.46066 0.20839 0.10245 0.0
C1317 C 0.47947 0.16932 0.09833 0.0
C1318 C 0.44049 0.19937 0.08857 0.0
C1319 C 0.43974 0.17569 0.07961 0.0
H1320 H 0.26074 0.37303 0.73144 0.0
H1321 H 0.28376 0.38317 0.65751 0.0
H1322 H 0.30887 0.41856 0.67022 0.0
H1323 H 0.32298 0.44772 0.70226 0.0
H1324 H 0.29877 0.4374 0.77593 0.0
H1325 H 0.27575 0.40102 0.76342 0.0
C1326 C 0.27157 0.38274 0.71817 0.0
C1327 C 0.27038 0.37546 0.69359 0.0
C1328 C 0.28569 0.4032 0.72554 0.0
C1329 C 0.2842 0.38853 0.67654 0.0
C1330 C 0.29859 0.40874 0.6838 0.0
C1331 C 0.31278 0.43743 0.71558 0.0
C1332 C 0.31257 0.44546 0.73997 0.0
C1333 C 0.29925 0.41646 0.70823 0.0
C1334 C 0.29919 0.43185 0.75698 0.0
C1335 C 0.286 0.41095 0.74988 0.0
H1336 H 0.29375 0.65462 0.72592 0.0
H1337 H 0.2534 0.64525 0.79201 0.0
H1338 H 0.27019 0.60549 0.79758 0.0
H1339 H 0.29656 0.57368 0.78423 0.0
H1340 H 0.33769 0.58258 0.71859 0.0
H1341 H 0.32051 0.62234 0.71246 0.0
C1342 C 0.28877 0.64394 0.74163 0.0
C1343 C 0.27223 0.65295 0.75847 0.0
C1344 C 0.29865 0.62104 0.74484 0.0
C1345 C 0.26576 0.63869 0.77855 0.0
C1346 C 0.27548 0.61598 0.78185 0.0
C1347 C 0.30182 0.58423 0.76852 0.0
C1348 C 0.31846 0.57508 0.75191 0.0
C1349 C 0.29193 0.607 0.76514 0.0
C1350 C 0.32495 0.58912 0.73168 0.0
C1351 C 0.31513 0.61189 0.72817 0.0
H1352 H 0.89118 0.44255 0.555 0.0
H1353 H 0.86341 0.49129 0.50094 0.0
H1354 H 0.82667 0.46561 0.49573 0.0
H1355 H 0.80385 0.42729 0.50404 0.0
H1356 H 0.83446 0.377 0.5548 0.0
H1357 H 0.86875 0.40504 0.56346 0.0
C1358 C 0.87726 0.44754 0.54188 0.0
C1359 C 0.88034 0.46879 0.52825 0.0
C1360 C 0.85665 0.43225 0.53825 0.0
C1361 C 0.86158 0.4752 0.51191 0.0
C1362 C 0.84059 0.46039 0.50873 0.0
C1363 C 0.81792 0.42271 0.51719 0.0
C1364 C 0.81671 0.40017 0.52877 0.0
C1365 C 0.83811 0.43862 0.52149 0.0
C1366 C 0.83513 0.39422 0.54558 0.0
C1367 C 0.85472 0.41023 0.55054 0.0
H1368 H 0.76027 0.9261 0.82924 0.0
H1369 H 0.73274 0.86815 0.87401 0.0
H1370 H 0.69098 0.87973 0.86517 0.0
H1371 H 0.6623 0.90591 0.84415 0.0
H1372 H 0.68983 0.96495 0.80069 0.0
H1373 H 0.73154 0.95335 0.80949 0.0
C1374 C 0.74508 0.91607 0.83703 0.0
C1375 C 0.74948 0.89633 0.85221 0.0
C1376 C 0.72115 0.92296 0.83205 0.0
C1377 C 0.72973 0.88357 0.86243 0.0
C1378 C 0.70589 0.89009 0.85729 0.0
C1379 C 0.67743 0.9162 0.83658 0.0
C1380 C 0.67298 0.93615 0.82167 0.0
C1381 C 0.70137 0.90968 0.84203 0.0
C1382 C 0.69278 0.94951 0.81224 0.0
C1383 C 0.71664 0.94288 0.81723 0.0
H1384 H 0.64217 0.53588 0.92964 0.0
H1385 H 0.63425 0.52764 0.00713 0.0
H1386 H 0.67184 0.55185 0.0146 0.0
H1387 H 0.70855 0.57281 0.99877 0.0
H1388 H 0.71699 0.5786 0.92101 0.0
H1389 H 0.67745 0.55825 0.91398 0.0
C1390 C 0.6484 0.5398 0.94818 0.0
C1391 C 0.63544 0.53009 0.96781 0.0
C1392 C 0.67022 0.55319 0.95227 0.0
C1393 C 0.64401 0.53487 0.99173 0.0
C1394 C 0.66547 0.5487 0.99599 0.0
C1395 C 0.70154 0.56989 0.98033 0.0
C1396 C 0.71571 0.5771 0.96045 0.0
C1397 C 0.67898 0.55757 0.97637 0.0
C1398 C 0.70651 0.57304 0.93663 0.0
C1399 C 0.6839 0.56141 0.93257 0.0
H1400 H 0.2109 0.58413 0.239 0.0
H1401 H 0.17377 0.64486 0.26817 0.0
H1402 H 0.14402 0.61731 0.28718 0.0
H1403 H 0.12802 0.57574 0.29442 0.0
H1404 H 0.16618 0.5155 0.26507 0.0
H1405 H 0.19593 0.54311 0.24715 0.0
C1406 C 0.19619 0.59135 0.2494 0.0
C1407 C 0.19434 0.61646 0.25197 0.0
C1408 C 0.17932 0.57548 0.26023 0.0
C1409 C 0.17556 0.62556 0.26597 0.0
C1410 C 0.15853 0.60983 0.27675 0.0
C1411 C 0.14288 0.56866 0.28417 0.0
C1412 C 0.14471 0.54353 0.28104 0.0
C1413 C 0.16013 0.58471 0.27386 0.0
C1414 C 0.16419 0.53471 0.26778 0.0
C1415 C 0.18127 0.55049 0.25746 0.0
H1416 H 0.91388 0.54325 0.04704 0.0
H1417 H 0.90569 0.48788 0.9915 0.0
H1418 H 0.86668 0.50376 0.97856 0.0
H1419 H 0.83682 0.53536 0.9806 0.0
H1420 H 0.84443 0.59092 0.03601 0.0
H1421 H 0.88159 0.57282 0.05166 0.0
C1422 C 0.90342 0.53462 0.03222 0.0
C1423 C 0.9127 0.51455 0.0201 0.0
C1424 C 0.88098 0.54389 0.02483 0.0
C1425 C 0.89886 0.50327 0.00118 0.0
C1426 C 0.87662 0.51241 0.99368 0.0
C1427 C 0.84645 0.54337 0.99629 0.0
C1428 C 0.83807 0.56461 0.00694 0.0
C1429 C 0.86778 0.53299 0.00504 0.0
C1430 C 0.85053 0.57457 0.02747 0.0
C1431 C 0.87185 0.56432 0.03632 0.0
H1432 H 0.15082 0.98712 0.02397 0.0
H1433 H 0.08541 0.9437 0.00958 0.0
H1434 H 0.10975 0.90818 0.0031 0.0
H1435 H 0.14974 0.88929 0.00194 0.0
H1436 H 0.21496 0.93318 0.01625 0.0
H1437 H 0.19058 0.96859 0.02199 0.0
C1438 C 0.14186 0.96998 0.01906 0.0
C1439 C 0.11626 0.96819 0.01721 0.0
C1440 C 0.15596 0.94962 0.01537 0.0
C1441 C 0.10503 0.94563 0.01135 0.0
C1442 C 0.11896 0.9253 0.00755 0.0
C1443 C 0.15864 0.9066 0.00627 0.0
C1444 C 0.18422 0.90843 0.00868 0.0
C1445 C 0.14446 0.92704 0.00963 0.0
C1446 C 0.19535 0.9311 0.0143 0.0
C1447 C 0.18141 0.95144 0.01759 0.0
loop_
_geom_bond_atom_site_label_1
_geom_bond_atom_site_label_2
_geom_bond_distance
_geom_bond_site_symmetry_2
_ccdc_geom_bond_type
P0 O11 1.490 . S
P0 C14 1.812 . S
P0 C20 1.803 . S
P0 C26 1.819 . S
H1 C15 0.941 . S
H2 C16 0.939 . S
H3 C18 0.940 . S
H4 C19 0.940 . S
H5 C21 0.939 . S
H6 C22 0.942 . S
H7 C24 0.940 . S
H8 C25 0.939 . S
H9 C27 0.941 . S
H10 C31 0.939 . S
O11 P0 1.490 . S
H12 C28 0.939 . S
H13 C30 0.898 1_556 S
C14 P0 1.812 . S
C14 C15 1.389 . S
C14 C19 1.391 . S
C15 H1 0.941 . S
C15 C14 1.389 . S
C15 C16 1.397 . S
C16 H2 0.939 . S
C16 C15 1.397 . S
C16 C17 1.378 1_455 S
C17 C16 1.378 1_655 S
C17 C18 1.378 . S
C18 H3 0.940 . S
C18 C17 1.378 . S
C18 C19 1.396 1_655 S
C19 H4 0.940 . S
C19 C14 1.391 . S
C19 C18 1.396 1_455 S
C20 P0 1.803 . S
C20 C21 1.378 . S
C20 C25 1.400 . S
C21 H5 0.939 . S
C21 C20 1.378 . S
C21 C22 1.361 . S
C22 H6 0.942 . S
C22 C21 1.361 . S
C22 C23 1.369 1_545 S
C23 C22 1.369 1_565 S
C23 C24 1.404 . S
C24 H7 0.940 . S
C24 C23 1.404 . S
C24 C25 1.389 1_565 S
C25 H8 0.939 . S
C25 C20 1.400 . S
C25 C24 1.389 1_545 S
C26 P0 1.819 . S
C26 C27 1.391 . S
C26 C31 1.391 . S
C27 H9 0.941 . S
C27 C26 1.391 . S
C27 C28 1.396 . S
C28 H12 0.939 . S
C28 C27 1.396 . S
C28 C29 1.397 . S
C29 C28 1.397 . S
C29 C30 1.394 . S
C30 H13 0.898 1_554 S
C30 C29 1.394 . S
C30 C31 1.422 . S
C31 H10 0.939 . S
C31 C26 1.391 . S
C31 C30 1.422 . S
P32 O43 1.490 . S
P32 C46 1.812 . S
P32 C52 1.803 . S
P32 C58 1.819 . S
H33 C47 0.941 . S
H34 C48 0.939 . S
H35 C50 0.940 . S
H36 C51 0.940 . S
H37 C53 0.939 . S
H38 C54 0.942 . S
H39 C56 0.940 . S
H40 C57 0.939 . S
H41 C59 0.941 . S
H42 C63 0.939 . S
O43 P32 1.490 . S
H44 C60 0.939 . S
H45 C62 0.940 . S
C46 P32 1.812 . S
C46 C47 1.389 . S
C46 C51 1.391 . S
C47 H33 0.941 . S
C47 C46 1.389 . S
C47 C48 1.397 . S
C48 H34 0.939 . S
C48 C47 1.397 . S
C48 C49 1.378 . S
C49 C48 1.378 . S
C49 C50 1.378 . S
C50 H35 0.940 . S
C50 C49 1.378 . S
C50 C51 1.396 . S
C51 H36 0.940 . S
C51 C46 1.391 . S
C51 C50 1.396 . S
C52 P32 1.803 . S
C52 C53 1.378 . S
C52 C57 1.400 . S
C53 H37 0.939 . S
C53 C52 1.378 . S
C53 C54 1.361 . S
C54 H38 0.942 . S
C54 C53 1.361 . S
C54 C55 1.369 . S
C55 C54 1.369 . S
C55 C56 1.404 . S
C56 H39 0.940 . S
C56 C55 1.404 . S
C56 C57 1.389 . S
C57 H40 0.939 . S
C57 C52 1.400 . S
C57 C56 1.389 . S
C58 P32 1.819 . S
C58 C59 1.391 . S
C58 C63 1.391 . S
C59 H41 0.941 . S
C59 C58 1.391 . S
C59 C60 1.396 . S
C60 H44 0.939 . S
C60 C59 1.396 . S
C60 C61 1.397 . S
C61 C60 1.397 . S
C61 C62 1.385 . S
C62 H45 0.940 . S
C62 C61 1.385 . S
C62 C63 1.388 . S
C63 H42 0.939 . S
C63 C58 1.391 . S
C63 C62 1.388 . S
P64 O75 1.490 . S
P64 C78 1.812 . S
P64 C84 1.803 . S
P64 C90 1.819 . S
H65 C79 0.949 . S
H66 C80 0.939 . S
H67 C82 0.940 . S
H68 C83 0.940 . S
H69 C85 0.939 . S
H70 C86 0.942 . S
H71 C88 0.940 . S
H72 C89 0.939 . S
H73 C91 0.941 . S
H74 C95 0.939 . S
O75 P64 1.490 . S
H76 C92 0.939 . S
H77 C94 0.940 . S
C78 P64 1.812 . S
C78 C79 1.376 1_554 S
C78 C83 1.391 . S
C79 H65 0.949 . S
C79 C78 1.376 1_556 S
C79 C80 1.401 . S
C80 H66 0.939 . S
C80 C79 1.401 . S
C80 C81 1.378 1_556 S
C81 C80 1.378 1_554 S
C81 C82 1.378 . S
C82 H67 0.940 . S
C82 C81 1.378 . S
C82 C83 1.396 . S
C83 H68 0.940 . S
C83 C78 1.391 . S
C83 C82 1.396 . S
C84 P64 1.803 . S
C84 C85 1.378 . S
C84 C89 1.400 . S
C85 H69 0.939 . S
C85 C84 1.378 . S
C85 C86 1.361 . S
C86 H70 0.942 . S
C86 C85 1.361 . S
C86 C87 1.369 . S
C87 C86 1.369 . S
C87 C88 1.404 . S
C88 H71 0.940 . S
C88 C87 1.404 . S
C88 C89 1.389 . S
C89 H72 0.939 . S
C89 C84 1.400 . S
C89 C88 1.389 . S
C90 P64 1.819 . S
C90 C91 1.391 1_655 S
C90 C95 1.391 . S
C91 H73 0.941 . S
C91 C90 1.391 1_455 S
C91 C92 1.396 . S
C92 H76 0.939 . S
C92 C91 1.396 . S
C92 C93 1.397 . S
C93 C92 1.397 . S
C93 C94 1.385 1_455 S
C94 H77 0.940 . S
C94 C93 1.385 1_655 S
C94 C95 1.388 . S
C95 H74 0.939 . S
C95 C90 1.391 . S
C95 C94 1.388 . S
P96 O107 1.490 . S
P96 C110 1.812 . S
P96 C116 1.803 . S
P96 C122 1.819 . S
H97 C111 0.941 . S
H98 C112 0.939 . S
H99 C114 0.940 . S
H100 C115 0.940 . S
H101 C117 0.939 . S
H102 C118 0.942 . S
H103 C120 0.940 . S
H104 C121 0.939 . S
H105 C123 0.941 . S
H106 C127 0.939 . S
O107 P96 1.490 . S
H108 C124 0.939 . S
H109 C126 0.940 . S
C110 P96 1.812 . S
C110 C111 1.389 . S
C110 C115 1.391 . S
C111 H97 0.941 . S
C111 C110 1.389 . S
C111 C112 1.397 . S
C112 H98 0.939 . S
C112 C111 1.397 . S
C112 C113 1.378 . S
C113 C112 1.378 . S
C113 C114 1.378 . S
C114 H99 0.940 . S
C114 C113 1.378 . S
C114 C115 1.396 . S
C115 H100 0.940 . S
C115 C110 1.391 . S
C115 C114 1.396 . S
C116 P96 1.803 . S
C116 C117 1.378 . S
C116 C121 1.400 . S
C117 H101 0.939 . S
C117 C116 1.378 . S
C117 C118 1.361 . S
C118 H102 0.942 . S
C118 C117 1.361 . S
C118 C119 1.369 . S
C119 C118 1.369 . S
C119 C120 1.404 . S
C120 H103 0.940 . S
C120 C119 1.404 . S
C120 C121 1.389 . S
C121 H104 0.939 . S
C121 C116 1.400 . S
C121 C120 1.389 . S
C122 P96 1.819 . S
C122 C123 1.391 . S
C122 C127 1.391 . S
C123 H105 0.941 . S
C123 C122 1.391 . S
C123 C124 1.396 . S
C124 H108 0.939 . S
C124 C123 1.396 . S
C124 C125 1.397 . S
C125 C124 1.397 . S
C125 C126 1.385 . S
C126 H109 0.940 . S
C126 C125 1.385 . S
C126 C127 1.388 . S
C127 H106 0.939 . S
C127 C122 1.391 . S
C127 C126 1.388 . S
P128 O139 1.490 . S
P128 C142 1.812 . S
P128 C148 1.803 . S
P128 C154 1.819 . S
H129 C143 0.941 . S
H130 C144 0.939 . S
H131 C146 0.940 1_545 S
H132 C147 0.940 . S
H133 C149 0.939 . S
H134 C150 0.942 . S
H135 C152 0.940 . S
H136 C153 0.939 . S
H137 C155 0.941 . S
H138 C159 0.939 . S
O139 P128 1.490 . S
H140 C156 0.939 . S
H141 C158 0.940 1_655 S
C142 P128 1.812 . S
C142 C143 1.389 . S
C142 C147 1.391 . S
C143 H129 0.941 . S
C143 C142 1.389 . S
C143 C144 1.397 . S
C144 H130 0.939 . S
C144 C143 1.397 . S
C144 C145 1.378 . S
C145 C144 1.378 . S
C145 C146 1.378 . S
C146 H131 0.940 1_565 S
C146 C145 1.378 . S
C146 C147 1.396 . S
C147 H132 0.940 . S
C147 C142 1.391 . S
C147 C146 1.396 . S
C148 P128 1.803 . S
C148 C149 1.378 . S
C148 C153 1.400 . S
C149 H133 0.939 . S
C149 C148 1.378 . S
C149 C150 1.361 . S
C150 H134 0.942 . S
C150 C149 1.361 . S
C150 C151 1.369 . S
C151 C150 1.369 . S
C151 C152 1.404 . S
C152 H135 0.940 . S
C152 C151 1.404 . S
C152 C153 1.389 . S
C153 H136 0.939 . S
C153 C148 1.400 . S
C153 C152 1.389 . S
C154 P128 1.819 . S
C154 C155 1.391 . S
C154 C159 1.391 . S
C155 H137 0.941 . S
C155 C154 1.391 . S
C155 C156 1.396 . S
C156 H140 0.939 . S
C156 C155 1.396 . S
C156 C157 1.397 . S
C157 C156 1.397 . S
C157 C158 1.385 . S
C158 H141 0.940 1_455 S
C158 C157 1.385 . S
C158 C159 1.388 . S
C159 H138 0.939 . S
C159 C154 1.391 . S
C159 C158 1.388 . S
P160 O171 1.490 . S
P160 C174 1.812 . S
P160 C180 1.803 . S
P160 C186 1.819 . S
H161 C175 0.941 . S
H162 C176 0.939 . S
H163 C178 0.940 . S
H164 C179 0.940 . S
H165 C181 0.939 . S
H166 C182 0.942 . S
H167 C184 0.940 . S
H168 C185 0.939 . S
H169 C187 0.941 . S
H170 C191 0.939 . S
O171 P160 1.490 . S
H172 C188 0.939 . S
H173 C190 0.940 . S
C174 P160 1.812 . S
C174 C175 1.389 . S
C174 C179 1.391 . S
C175 H161 0.941 . S
C175 C174 1.389 . S
C175 C176 1.397 . S
C176 H162 0.939 . S
C176 C175 1.397 . S
C176 C177 1.378 . S
C177 C176 1.378 . S
C177 C178 1.378 . S
C178 H163 0.940 . S
C178 C177 1.378 . S
C178 C179 1.396 . S
C179 H164 0.940 . S
C179 C174 1.391 . S
C179 C178 1.396 . S
C180 P160 1.803 . S
C180 C181 1.378 . S
C180 C185 1.400 . S
C181 H165 0.939 . S
C181 C180 1.378 . S
C181 C182 1.361 . S
C182 H166 0.942 . S
C182 C181 1.361 . S
C182 C183 1.369 . S
C183 C182 1.369 . S
C183 C184 1.404 . S
C184 H167 0.940 . S
C184 C183 1.404 . S
C184 C185 1.389 . S
C185 H168 0.939 . S
C185 C180 1.400 . S
C185 C184 1.389 . S
C186 P160 1.819 . S
C186 C187 1.391 . S
C186 C191 1.391 . S
C187 H169 0.941 . S
C187 C186 1.391 . S
C187 C188 1.396 . S
C188 H172 0.939 . S
C188 C187 1.396 . S
C188 C189 1.397 . S
C189 C188 1.397 . S
C189 C190 1.385 . S
C190 H173 0.940 . S
C190 C189 1.385 . S
C190 C191 1.388 . S
C191 H170 0.939 . S
C191 C186 1.391 . S
C191 C190 1.388 . S
P192 O203 1.490 . S
P192 C206 1.812 . S
P192 C212 1.803 . S
P192 C218 1.819 . S
H193 C207 0.941 . S
H194 C208 0.939 . S
H195 C210 0.940 . S
H196 C211 0.940 . S
H197 C213 0.939 . S
H198 C214 0.942 . S
H199 C216 0.940 . S
H200 C217 0.939 . S
H201 C219 0.941 . S
H202 C223 0.939 . S
O203 P192 1.490 . S
H204 C220 0.939 . S
H205 C222 0.940 . S
C206 P192 1.812 . S
C206 C207 1.389 1_655 S
C206 C211 1.391 . S
C207 H193 0.941 . S
C207 C206 1.389 1_455 S
C207 C208 1.397 . S
C208 H194 0.939 . S
C208 C207 1.397 . S
C208 C209 1.378 . S
C209 C208 1.378 . S
C209 C210 1.378 1_455 S
C210 H195 0.940 . S
C210 C209 1.378 1_655 S
C210 C211 1.396 . S
C211 H196 0.940 . S
C211 C206 1.391 . S
C211 C210 1.396 . S
C212 P192 1.803 . S
C212 C213 1.378 . S
C212 C217 1.400 . S
C213 H197 0.939 . S
C213 C212 1.378 . S
C213 C214 1.361 . S
C214 H198 0.942 . S
C214 C213 1.361 . S
C214 C215 1.369 . S
C215 C214 1.369 . S
C215 C216 1.404 . S
C216 H199 0.940 . S
C216 C215 1.404 . S
C216 C217 1.389 . S
C217 H200 0.939 . S
C217 C212 1.400 . S
C217 C216 1.389 . S
C218 P192 1.819 . S
C218 C219 1.391 . S
C218 C223 1.391 . S
C219 H201 0.941 . S
C219 C218 1.391 . S
C219 C220 1.396 . S
C220 H204 0.939 . S
C220 C219 1.396 . S
C220 C221 1.397 . S
C221 C220 1.397 . S
C221 C222 1.385 . S
C222 H205 0.940 . S
C222 C221 1.385 . S
C222 C223 1.388 . S
C223 H202 0.939 . S
C223 C218 1.391 . S
C223 C222 1.388 . S
P224 O235 1.490 . S
P224 C238 1.812 . S
P224 C244 1.803 . S
P224 C250 1.819 . S
H225 C239 0.941 . S
H226 C240 0.939 . S
H227 C242 0.940 . S
H228 C243 0.940 . S
H229 C245 0.939 . S
H230 C246 0.942 . S
H231 C248 0.940 . S
H232 C249 0.939 . S
H233 C251 0.941 . S
H234 C255 0.939 . S
O235 P224 1.490 . S
H236 C252 0.939 . S
H237 C254 0.940 . S
C238 P224 1.812 . S
C238 C239 1.389 . S
C238 C243 1.391 . S
C239 H225 0.941 . S
C239 C238 1.389 . S
C239 C240 1.397 . S
C240 H226 0.939 . S
C240 C239 1.397 . S
C240 C241 1.378 . S
C241 C240 1.378 . S
C241 C242 1.378 . S
C242 H227 0.940 . S
C242 C241 1.378 . S
C242 C243 1.396 . S
C243 H228 0.940 . S
C243 C238 1.391 . S
C243 C242 1.396 . S
C244 P224 1.803 . S
C244 C245 1.378 . S
C244 C249 1.400 . S
C245 H229 0.939 . S
C245 C244 1.378 . S
C245 C246 1.361 . S
C246 H230 0.942 . S
C246 C245 1.361 . S
C246 C247 1.369 . S
C247 C246 1.369 . S
C247 C248 1.404 . S
C248 H231 0.940 . S
C248 C247 1.404 . S
C248 C249 1.389 . S
C249 H232 0.939 . S
C249 C244 1.400 . S
C249 C248 1.389 . S
C250 P224 1.819 . S
C250 C251 1.391 . S
C250 C255 1.391 . S
C251 H233 0.941 . S
C251 C250 1.391 . S
C251 C252 1.396 . S
C252 H236 0.939 . S
C252 C251 1.396 . S
C252 C253 1.397 . S
C253 C252 1.397 . S
C253 C254 1.385 . S
C254 H237 0.940 . S
C254 C253 1.385 . S
C254 C255 1.388 . S
C255 H234 0.939 . S
C255 C250 1.391 . S
C255 C254 1.388 . S
P256 O267 1.490 . S
P256 C270 1.812 . S
P256 C276 1.803 . S
P256 C282 1.819 . S
H257 C271 0.941 . S
H258 C272 0.939 . S
H259 C274 0.940 . S
H260 C275 0.940 . S
H261 C277 0.939 . S
H262 C278 0.942 . S
H263 C280 0.940 . S
H264 C281 0.939 . S
H265 C283 0.941 . S
H266 C287 0.939 . S
O267 P256 1.490 . S
H268 C284 0.939 . S
H269 C286 0.940 . S
C270 P256 1.812 . S
C270 C271 1.389 . S
C270 C275 1.391 . S
C271 H257 0.941 . S
C271 C270 1.389 . S
C271 C272 1.397 . S
C272 H258 0.939 . S
C272 C271 1.397 . S
C272 C273 1.378 . S
C273 C272 1.378 . S
C273 C274 1.378 . S
C274 H259 0.940 . S
C274 C273 1.378 . S
C274 C275 1.396 . S
C275 H260 0.940 . S
C275 C270 1.391 . S
C275 C274 1.396 . S
C276 P256 1.803 . S
C276 C277 1.378 . S
C276 C281 1.400 . S
C277 H261 0.939 . S
C277 C276 1.378 . S
C277 C278 1.361 . S
C278 H262 0.942 . S
C278 C277 1.361 . S
C278 C279 1.369 . S
C279 C278 1.369 . S
C279 C280 1.404 . S
C280 H263 0.940 . S
C280 C279 1.404 . S
C280 C281 1.389 . S
C281 H264 0.939 . S
C281 C276 1.400 . S
C281 C280 1.389 . S
C282 P256 1.819 . S
C282 C283 1.391 . S
C282 C287 1.391 . S
C283 H265 0.941 . S
C283 C282 1.391 . S
C283 C284 1.396 . S
C284 H268 0.939 . S
C284 C283 1.396 . S
C284 C285 1.397 . S
C285 C284 1.397 . S
C285 C286 1.385 . S
C286 H269 0.940 . S
C286 C285 1.385 . S
C286 C287 1.388 . S
C287 H266 0.939 . S
C287 C282 1.391 . S
C287 C286 1.388 . S
P288 O299 1.490 . S
P288 C302 1.812 . S
P288 C308 1.803 . S
P288 C314 1.819 . S
H289 C303 0.941 . S
H290 C304 0.939 . S
H291 C306 0.940 . S
H292 C307 0.940 . S
H293 C309 0.939 . S
H294 C310 0.942 . S
H295 C312 0.940 . S
H296 C313 0.939 . S
H297 C315 0.941 . S
H298 C319 0.939 . S
O299 P288 1.490 . S
H300 C316 0.939 . S
H301 C318 0.940 . S
C302 P288 1.812 . S
C302 C303 1.389 . S
C302 C307 1.391 . S
C303 H289 0.941 . S
C303 C302 1.389 . S
C303 C304 1.397 . S
C304 H290 0.939 . S
C304 C303 1.397 . S
C304 C305 1.378 . S
C305 C304 1.378 . S
C305 C306 1.378 . S
C306 H291 0.940 . S
C306 C305 1.378 . S
C306 C307 1.396 . S
C307 H292 0.940 . S
C307 C302 1.391 . S
C307 C306 1.396 . S
C308 P288 1.803 . S
C308 C309 1.378 1_565 S
C308 C313 1.400 . S
C309 H293 0.939 . S
C309 C308 1.378 1_545 S
C309 C310 1.361 . S
C310 H294 0.942 . S
C310 C309 1.361 . S
C310 C311 1.369 . S
C311 C310 1.369 . S
C311 C312 1.404 1_545 S
C312 H295 0.940 . S
C312 C311 1.404 1_565 S
C312 C313 1.389 . S
C313 H296 0.939 . S
C313 C308 1.400 . S
C313 C312 1.389 . S
C314 P288 1.819 . S
C314 C315 1.391 . S
C314 C319 1.391 . S
C315 H297 0.941 . S
C315 C314 1.391 . S
C315 C316 1.396 . S
C316 H300 0.939 . S
C316 C315 1.396 . S
C316 C317 1.397 . S
C317 C316 1.397 . S
C317 C318 1.385 . S
C318 H301 0.940 . S
C318 C317 1.385 . S
C318 C319 1.388 . S
C319 H298 0.939 . S
C319 C314 1.391 . S
C319 C318 1.388 . S
P320 O331 1.490 . S
P320 C334 1.812 . S
P320 C340 1.803 . S
P320 C346 1.819 . S
H321 C335 0.941 . S
H322 C336 0.939 . S
H323 C338 0.940 . S
H324 C339 0.940 . S
H325 C341 0.939 . S
H326 C342 0.942 . S
H327 C344 0.940 . S
H328 C345 0.939 . S
H329 C347 0.941 . S
H330 C351 0.939 . S
O331 P320 1.490 . S
H332 C348 0.939 . S
H333 C350 0.940 . S
C334 P320 1.812 . S
C334 C335 1.389 . S
C334 C339 1.391 . S
C335 H321 0.941 . S
C335 C334 1.389 . S
C335 C336 1.397 . S
C336 H322 0.939 . S
C336 C335 1.397 . S
C336 C337 1.378 . S
C337 C336 1.378 . S
C337 C338 1.378 . S
C338 H323 0.940 . S
C338 C337 1.378 . S
C338 C339 1.396 . S
C339 H324 0.940 . S
C339 C334 1.391 . S
C339 C338 1.396 . S
C340 P320 1.803 . S
C340 C341 1.378 . S
C340 C345 1.400 . S
C341 H325 0.939 . S
C341 C340 1.378 . S
C341 C342 1.361 . S
C342 H326 0.942 . S
C342 C341 1.361 . S
C342 C343 1.369 . S
C343 C342 1.369 . S
C343 C344 1.404 . S
C344 H327 0.940 . S
C344 C343 1.404 . S
C344 C345 1.389 . S
C345 H328 0.939 . S
C345 C340 1.400 . S
C345 C344 1.389 . S
C346 P320 1.819 . S
C346 C347 1.391 . S
C346 C351 1.391 . S
C347 H329 0.941 . S
C347 C346 1.391 . S
C347 C348 1.396 . S
C348 H332 0.939 . S
C348 C347 1.396 . S
C348 C349 1.397 . S
C349 C348 1.397 . S
C349 C350 1.385 . S
C350 H333 0.940 . S
C350 C349 1.385 . S
C350 C351 1.388 . S
C351 H330 0.939 . S
C351 C346 1.391 . S
C351 C350 1.388 . S
P352 O363 1.490 . S
P352 C366 1.812 . S
P352 C372 1.803 . S
P352 C378 1.819 . S
H353 C367 0.941 . S
H354 C368 0.939 . S
H355 C370 0.940 . S
H356 C371 0.940 . S
H357 C373 0.939 . S
H358 C374 0.942 . S
H359 C376 0.940 . S
H360 C377 0.939 . S
H361 C379 0.941 . S
H362 C383 0.939 . S
O363 P352 1.490 . S
H364 C380 0.939 . S
H365 C382 0.940 . S
C366 P352 1.812 . S
C366 C367 1.389 . S
C366 C371 1.391 . S
C367 H353 0.941 . S
C367 C366 1.389 . S
C367 C368 1.397 . S
C368 H354 0.939 . S
C368 C367 1.397 . S
C368 C369 1.378 . S
C369 C368 1.378 . S
C369 C370 1.378 . S
C370 H355 0.940 . S
C370 C369 1.378 . S
C370 C371 1.396 . S
C371 H356 0.940 . S
C371 C366 1.391 . S
C371 C370 1.396 . S
C372 P352 1.803 . S
C372 C373 1.378 . S
C372 C377 1.400 . S
C373 H357 0.939 . S
C373 C372 1.378 . S
C373 C374 1.361 . S
C374 H358 0.942 . S
C374 C373 1.361 . S
C374 C375 1.369 . S
C375 C374 1.369 . S
C375 C376 1.404 . S
C376 H359 0.940 . S
C376 C375 1.404 . S
C376 C377 1.389 . S
C377 H360 0.939 . S
C377 C372 1.400 . S
C377 C376 1.389 . S
C378 P352 1.819 . S
C378 C379 1.391 . S
C378 C383 1.391 . S
C379 H361 0.941 . S
C379 C378 1.391 . S
C379 C380 1.396 . S
C380 H364 0.939 . S
C380 C379 1.396 . S
C380 C381 1.397 . S
C381 C380 1.397 . S
C381 C382 1.385 . S
C382 H365 0.940 . S
C382 C381 1.385 . S
C382 C383 1.388 . S
C383 H362 0.939 . S
C383 C378 1.391 . S
C383 C382 1.388 . S
P384 O395 1.490 . S
P384 C398 1.812 . S
P384 C404 1.803 . S
P384 C410 1.819 . S
H385 C399 0.941 . S
H386 C400 0.939 . S
H387 C402 0.940 . S
H388 C403 0.940 . S
H389 C405 0.939 . S
H390 C406 0.942 . S
H391 C408 0.940 . S
H392 C409 0.939 . S
H393 C411 0.941 . S
H394 C415 0.939 . S
O395 P384 1.490 . S
H396 C412 0.939 . S
H397 C414 0.940 . S
C398 P384 1.812 . S
C398 C399 1.389 . S
C398 C403 1.391 . S
C399 H385 0.941 . S
C399 C398 1.389 . S
C399 C400 1.397 . S
C400 H386 0.939 . S
C400 C399 1.397 . S
C400 C401 1.378 . S
C401 C400 1.378 . S
C401 C402 1.378 . S
C402 H387 0.940 . S
C402 C401 1.378 . S
C402 C403 1.396 . S
C403 H388 0.940 . S
C403 C398 1.391 . S
C403 C402 1.396 . S
C404 P384 1.803 . S
C404 C405 1.378 . S
C404 C409 1.400 . S
C405 H389 0.939 . S
C405 C404 1.378 . S
C405 C406 1.361 . S
C406 H390 0.942 . S
C406 C405 1.361 . S
C406 C407 1.369 . S
C407 C406 1.369 . S
C407 C408 1.404 . S
C408 H391 0.940 . S
C408 C407 1.404 . S
C408 C409 1.389 . S
C409 H392 0.939 . S
C409 C404 1.400 . S
C409 C408 1.389 . S
C410 P384 1.819 . S
C410 C411 1.391 . S
C410 C415 1.391 . S
C411 H393 0.941 . S
C411 C410 1.391 . S
C411 C412 1.396 . S
C412 H396 0.939 . S
C412 C411 1.396 . S
C412 C413 1.397 . S
C413 C412 1.397 . S
C413 C414 1.385 . S
C414 H397 0.940 . S
C414 C413 1.385 . S
C414 C415 1.388 . S
C415 H394 0.939 . S
C415 C410 1.391 . S
C415 C414 1.388 . S
P416 O427 1.490 . S
P416 C430 1.812 . S
P416 C436 1.803 . S
P416 C442 1.819 . S
H417 C431 0.941 . S
H418 C432 0.939 . S
H419 C434 0.940 . S
H420 C435 0.940 . S
H421 C437 0.939 . S
H422 C438 0.942 . S
H423 C440 0.940 . S
H424 C441 0.939 . S
H425 C443 0.941 . S
H426 C447 0.939 . S
O427 P416 1.490 . S
H428 C444 0.939 . S
H429 C446 0.940 . S
C430 P416 1.812 . S
C430 C431 1.389 . S
C430 C435 1.391 . S
C431 H417 0.941 . S
C431 C430 1.389 . S
C431 C432 1.397 . S
C432 H418 0.939 . S
C432 C431 1.397 . S
C432 C433 1.378 . S
C433 C432 1.378 . S
C433 C434 1.378 . S
C434 H419 0.940 . S
C434 C433 1.378 . S
C434 C435 1.396 . S
C435 H420 0.940 . S
C435 C430 1.391 . S
C435 C434 1.396 . S
C436 P416 1.803 . S
C436 C437 1.378 . S
C436 C441 1.400 . S
C437 H421 0.939 . S
C437 C436 1.378 . S
C437 C438 1.361 . S
C438 H422 0.942 . S
C438 C437 1.361 . S
C438 C439 1.369 1_556 S
C439 C438 1.369 1_554 S
C439 C440 1.404 . S
C440 H423 0.940 . S
C440 C439 1.404 . S
C440 C441 1.389 1_554 S
C441 H424 0.939 . S
C441 C436 1.400 . S
C441 C440 1.389 1_556 S
C442 P416 1.819 . S
C442 C443 1.391 . S
C442 C447 1.391 . S
C443 H425 0.941 . S
C443 C442 1.391 . S
C443 C444 1.396 . S
C444 H428 0.939 . S
C444 C443 1.396 . S
C444 C445 1.397 . S
C445 C444 1.397 . S
C445 C446 1.385 . S
C446 H429 0.940 . S
C446 C445 1.385 . S
C446 C447 1.388 . S
C447 H426 0.939 . S
C447 C442 1.391 . S
C447 C446 1.388 . S
P448 O459 1.490 . S
P448 C462 1.812 . S
P448 C468 1.803 . S
P448 C474 1.819 . S
H449 C463 0.941 . S
H450 C464 0.939 . S
H451 C466 0.940 . S
H452 C467 0.940 . S
H453 C469 0.939 . S
H454 C470 0.942 . S
H455 C472 0.940 . S
H456 C473 0.939 . S
H457 C475 0.941 . S
H458 C479 0.939 . S
O459 P448 1.490 . S
H460 C476 0.939 . S
H461 C478 0.940 . S
C462 P448 1.812 . S
C462 C463 1.389 . S
C462 C467 1.391 . S
C463 H449 0.941 . S
C463 C462 1.389 . S
C463 C464 1.397 . S
C464 H450 0.939 . S
C464 C463 1.397 . S
C464 C465 1.378 . S
C465 C464 1.378 . S
C465 C466 1.378 . S
C466 H451 0.940 . S
C466 C465 1.378 . S
C466 C467 1.396 . S
C467 H452 0.940 . S
C467 C462 1.391 . S
C467 C466 1.396 . S
C468 P448 1.803 . S
C468 C469 1.378 . S
C468 C473 1.400 . S
C469 H453 0.939 . S
C469 C468 1.378 . S
C469 C470 1.361 . S
C470 H454 0.942 . S
C470 C469 1.361 . S
C470 C471 1.369 . S
C471 C470 1.369 . S
C471 C472 1.404 . S
C472 H455 0.940 . S
C472 C471 1.404 . S
C472 C473 1.389 . S
C473 H456 0.939 . S
C473 C468 1.400 . S
C473 C472 1.389 . S
C474 P448 1.819 . S
C474 C475 1.391 . S
C474 C479 1.391 . S
C475 H457 0.941 . S
C475 C474 1.391 . S
C475 C476 1.396 . S
C476 H460 0.939 . S
C476 C475 1.396 . S
C476 C477 1.397 . S
C477 C476 1.397 . S
C477 C478 1.385 . S
C478 H461 0.940 . S
C478 C477 1.385 . S
C478 C479 1.388 . S
C479 H458 0.939 . S
C479 C474 1.391 . S
C479 C478 1.388 . S
P480 O491 1.490 . S
P480 C494 1.812 . S
P480 C500 1.803 . S
P480 C506 1.819 . S
H481 C495 0.941 . S
H482 C496 0.939 . S
H483 C498 0.940 . S
H484 C499 0.940 . S
H485 C501 0.939 . S
H486 C502 0.942 . S
H487 C504 0.940 . S
H488 C505 0.939 . S
H489 C507 0.933 1_565 S
H490 C511 0.939 . S
O491 P480 1.490 . S
H492 C508 0.939 . S
H493 C510 0.940 . S
C494 P480 1.812 . S
C494 C495 1.389 . S
C494 C499 1.391 . S
C495 H481 0.941 . S
C495 C494 1.389 . S
C495 C496 1.397 . S
C496 H482 0.939 . S
C496 C495 1.397 . S
C496 C497 1.378 . S
C497 C496 1.378 . S
C497 C498 1.378 . S
C498 H483 0.940 . S
C498 C497 1.378 . S
C498 C499 1.396 . S
C499 H484 0.940 . S
C499 C494 1.391 . S
C499 C498 1.396 . S
C500 P480 1.803 . S
C500 C501 1.378 1_556 S
C500 C505 1.400 . S
C501 H485 0.939 . S
C501 C500 1.378 1_554 S
C501 C502 1.361 . S
C502 H486 0.942 . S
C502 C501 1.361 . S
C502 C503 1.369 . S
C503 C502 1.369 . S
C503 C504 1.404 1_554 S
C504 H487 0.940 . S
C504 C503 1.404 1_556 S
C504 C505 1.389 . S
C505 H488 0.939 . S
C505 C500 1.400 . S
C505 C504 1.389 . S
C506 P480 1.819 . S
C506 C507 1.405 . S
C506 C511 1.391 . S
C507 H489 0.933 1_545 S
C507 C506 1.405 . S
C507 C508 1.391 1_545 S
C508 H492 0.939 . S
C508 C507 1.391 1_565 S
C508 C509 1.397 1_565 S
C509 C508 1.397 1_545 S
C509 C510 1.385 . S
C510 H493 0.940 . S
C510 C509 1.385 . S
C510 C511 1.388 . S
C511 H490 0.939 . S
C511 C506 1.391 . S
C511 C510 1.388 . S
Zn512 O515 2.052 . S
Zn512 O517 2.035 1_554 S
Zn512 O522 2.039 1_554 S
Zn513 O514 1.962 . S
Zn513 O516 1.986 . S
Zn513 O518 1.996 . S
Zn513 O521 1.943 1_554 S
O514 Zn513 1.962 . S
O514 C519 1.254 . S
O515 Zn512 2.052 . S
O515 C519 1.269 . S
O516 Zn513 1.986 . S
O516 C523 1.262 . S
O517 Zn512 2.035 1_556 S
O517 C525 1.260 . S
O518 Zn513 1.996 . S
O518 C525 1.257 1_554 S
C519 O514 1.254 . S
C519 O515 1.269 . S
C520 O521 1.249 . S
C520 O522 1.270 . S
O521 Zn513 1.943 1_556 S
O521 C520 1.249 . S
O522 Zn512 2.039 1_556 S
O522 C520 1.270 . S
C523 O516 1.262 . S
C523 O524 1.232 . S
O524 C523 1.232 . S
C525 O517 1.260 . S
C525 O518 1.257 1_556 S
Zn526 O529 2.031 . S
Zn526 O531 2.049 . S
Zn526 O536 2.067 . S
Zn527 O528 1.962 . S
Zn527 O530 1.986 . S
Zn527 O532 1.996 . S
Zn527 O535 1.943 . S
O528 Zn527 1.962 . S
O528 C533 1.254 . S
O529 Zn526 2.031 . S
O529 C533 1.269 . S
O530 Zn527 1.986 . S
O530 C537 1.262 . S
O531 Zn526 2.049 . S
O531 C539 1.260 . S
O532 Zn527 1.996 . S
O532 C539 1.257 . S
C533 O528 1.254 . S
C533 O529 1.269 . S
C534 O535 1.249 . S
C534 O536 1.270 . S
O535 Zn527 1.943 . S
O535 C534 1.249 . S
O536 Zn526 2.067 . S
O536 C534 1.270 . S
C537 O530 1.262 . S
C537 O538 1.232 . S
O538 C537 1.232 . S
C539 O531 1.260 . S
C539 O532 1.257 . S
Zn540 O543 2.031 . S
Zn540 O545 2.049 . S
Zn540 O550 2.067 . S
Zn541 O542 1.962 . S
Zn541 O544 1.986 . S
Zn541 O546 1.996 1_554 S
Zn541 O549 1.943 . S
O542 Zn541 1.962 . S
O542 C547 1.254 . S
O543 Zn540 2.031 . S
O543 C547 1.269 1_556 S
O544 Zn541 1.986 . S
O544 C551 1.262 . S
O545 Zn540 2.049 . S
O545 C553 1.260 . S
O546 Zn541 1.996 1_556 S
O546 C553 1.257 . S
C547 O542 1.254 . S
C547 O543 1.269 1_554 S
C548 O549 1.249 1_556 S
C548 O550 1.270 . S
O549 Zn541 1.943 . S
O549 C548 1.249 1_554 S
O550 Zn540 2.067 . S
O550 C548 1.270 . S
C551 O544 1.262 . S
C551 O552 1.232 . S
O552 C551 1.232 . S
C553 O545 1.260 . S
C553 O546 1.257 . S
Zn554 O557 2.045 . S
Zn554 O559 2.040 1_545 S
Zn554 O564 2.049 1_545 S
Zn555 O556 1.962 . S
Zn555 O558 1.986 . S
Zn555 O560 1.996 . S
Zn555 O563 1.943 1_545 S
O556 Zn555 1.962 . S
O556 C561 1.254 . S
O557 Zn554 2.045 . S
O557 C561 1.269 . S
O558 Zn555 1.986 . S
O558 C565 1.262 . S
O559 Zn554 2.040 1_565 S
O559 C567 1.260 . S
O560 Zn555 1.996 . S
O560 C567 1.257 1_545 S
C561 O556 1.254 . S
C561 O557 1.269 . S
C562 O563 1.249 . S
C562 O564 1.270 . S
O563 Zn555 1.943 1_565 S
O563 C562 1.249 . S
O564 Zn554 2.049 1_565 S
O564 C562 1.270 . S
C565 O558 1.262 . S
C565 O566 1.232 . S
O566 C565 1.232 . S
C567 O559 1.260 . S
C567 O560 1.257 1_565 S
Zn568 O571 2.031 . S
Zn568 O573 2.049 . S
Zn568 O578 2.067 . S
Zn569 O570 1.962 . S
Zn569 O572 1.986 . S
Zn569 O574 1.996 . S
Zn569 O577 1.943 . S
O570 Zn569 1.962 . S
O570 C575 1.254 . S
O571 Zn568 2.031 . S
O571 C575 1.269 . S
O572 Zn569 1.986 . S
O572 C579 1.262 . S
O573 Zn568 2.049 . S
O573 C581 1.260 . S
O574 Zn569 1.996 . S
O574 C581 1.257 . S
C575 O570 1.254 . S
C575 O571 1.269 . S
C576 O577 1.249 . S
C576 O578 1.270 . S
O577 Zn569 1.943 . S
O577 C576 1.249 . S
O578 Zn568 2.067 . S
O578 C576 1.270 . S
C579 O572 1.262 . S
C579 O580 1.232 . S
O580 C579 1.232 . S
C581 O573 1.260 . S
C581 O574 1.257 . S
Zn582 O585 2.031 . S
Zn582 O587 2.049 . S
Zn582 O592 2.067 . S
Zn583 O584 1.962 . S
Zn583 O586 1.986 . S
Zn583 O588 1.996 . S
Zn583 O591 1.943 . S
O584 Zn583 1.962 . S
O584 C589 1.254 . S
O585 Zn582 2.031 . S
O585 C589 1.269 . S
O586 Zn583 1.986 . S
O586 C593 1.262 . S
O587 Zn582 2.049 . S
O587 C595 1.260 . S
O588 Zn583 1.996 . S
O588 C595 1.257 . S
C589 O584 1.254 . S
C589 O585 1.269 . S
C590 O591 1.249 . S
C590 O592 1.270 . S
O591 Zn583 1.943 . S
O591 C590 1.249 . S
O592 Zn582 2.067 . S
O592 C590 1.270 . S
C593 O586 1.262 . S
C593 O594 1.232 . S
O594 C593 1.232 . S
C595 O587 1.260 . S
C595 O588 1.257 . S
Zn596 O599 2.031 . S
Zn596 O601 2.049 . S
Zn596 O606 2.067 . S
Zn597 O598 1.962 . S
Zn597 O600 1.986 . S
Zn597 O602 1.996 . S
Zn597 O605 1.943 . S
O598 Zn597 1.962 . S
O598 C603 1.254 . S
O599 Zn596 2.031 . S
O599 C603 1.269 . S
O600 Zn597 1.986 . S
O600 C607 1.262 . S
O601 Zn596 2.049 . S
O601 C609 1.260 . S
O602 Zn597 1.996 . S
O602 C609 1.257 . S
C603 O598 1.254 . S
C603 O599 1.269 . S
C604 O605 1.249 . S
C604 O606 1.270 . S
O605 Zn597 1.943 . S
O605 C604 1.249 . S
O606 Zn596 2.067 . S
O606 C604 1.270 . S
C607 O600 1.262 . S
C607 O608 1.232 . S
O608 C607 1.232 . S
C609 O601 1.260 . S
C609 O602 1.257 . S
Zn610 O613 2.031 . S
Zn610 O615 2.049 . S
Zn610 O620 2.067 . S
Zn611 O612 1.962 . S
Zn611 O614 1.986 . S
Zn611 O616 1.996 1_545 S
Zn611 O619 1.943 . S
O612 Zn611 1.962 . S
O612 C617 1.254 . S
O613 Zn610 2.031 . S
O613 C617 1.269 1_565 S
O614 Zn611 1.986 . S
O614 C621 1.262 . S
O615 Zn610 2.049 . S
O615 C623 1.260 . S
O616 Zn611 1.996 1_565 S
O616 C623 1.257 . S
C617 O612 1.254 . S
C617 O613 1.269 1_545 S
C618 O619 1.249 1_565 S
C618 O620 1.270 . S
O619 Zn611 1.943 . S
O619 C618 1.249 1_545 S
O620 Zn610 2.067 . S
O620 C618 1.270 . S
C621 O614 1.262 . S
C621 O622 1.232 . S
O622 C621 1.232 . S
C623 O615 1.260 . S
C623 O616 1.257 . S
Zn624 O627 2.031 . S
Zn624 O629 2.049 1_455 S
Zn624 O634 2.067 1_455 S
Zn625 O626 1.962 . S
Zn625 O628 1.986 . S
Zn625 O630 1.996 . S
Zn625 O633 1.943 1_455 S
O626 Zn625 1.962 . S
O626 C631 1.254 . S
O627 Zn624 2.031 . S
O627 C631 1.269 . S
O628 Zn625 1.986 . S
O628 C635 1.262 . S
O629 Zn624 2.049 1_655 S
O629 C637 1.260 . S
O630 Zn625 1.996 . S
O630 C637 1.257 1_455 S
C631 O626 1.254 . S
C631 O627 1.269 . S
C632 O633 1.249 . S
C632 O634 1.270 . S
O633 Zn625 1.943 1_655 S
O633 C632 1.249 . S
O634 Zn624 2.067 1_655 S
O634 C632 1.270 . S
C635 O628 1.262 . S
C635 O636 1.232 . S
O636 C635 1.232 . S
C637 O629 1.260 . S
C637 O630 1.257 1_655 S
Zn638 O641 2.031 . S
Zn638 O643 2.049 . S
Zn638 O648 2.067 . S
Zn639 O640 1.962 . S
Zn639 O642 1.986 . S
Zn639 O644 1.996 . S
Zn639 O647 1.943 . S
O640 Zn639 1.962 . S
O640 C645 1.254 . S
O641 Zn638 2.031 . S
O641 C645 1.269 . S
O642 Zn639 1.986 . S
O642 C649 1.262 . S
O643 Zn638 2.049 . S
O643 C651 1.260 . S
O644 Zn639 1.996 . S
O644 C651 1.257 . S
C645 O640 1.254 . S
C645 O641 1.269 . S
C646 O647 1.249 . S
C646 O648 1.270 . S
O647 Zn639 1.943 . S
O647 C646 1.249 . S
O648 Zn638 2.067 . S
O648 C646 1.270 . S
C649 O642 1.262 . S
C649 O650 1.232 . S
O650 C649 1.232 . S
C651 O643 1.260 . S
C651 O644 1.257 . S
Zn652 O655 2.031 . S
Zn652 O657 2.049 . S
Zn652 O662 2.067 . S
Zn653 O654 1.962 . S
Zn653 O656 1.986 . S
Zn653 O658 1.996 1_455 S
Zn653 O661 1.943 . S
O654 Zn653 1.962 . S
O654 C659 1.254 . S
O655 Zn652 2.031 . S
O655 C659 1.269 1_655 S
O656 Zn653 1.986 . S
O656 C663 1.262 . S
O657 Zn652 2.049 . S
O657 C665 1.260 . S
O658 Zn653 1.996 1_655 S
O658 C665 1.257 . S
C659 O654 1.254 . S
C659 O655 1.269 1_455 S
C660 O661 1.249 1_655 S
C660 O662 1.270 . S
O661 Zn653 1.943 . S
O661 C660 1.249 1_455 S
O662 Zn652 2.067 . S
O662 C660 1.270 . S
C663 O656 1.262 . S
C663 O664 1.232 . S
O664 C663 1.232 . S
C665 O657 1.260 . S
C665 O658 1.257 . S
Zn666 O669 2.031 . S
Zn666 O671 2.049 . S
Zn666 O676 2.067 . S
Zn667 O668 1.962 . S
Zn667 O670 1.986 . S
Zn667 O672 1.996 . S
Zn667 O675 1.943 . S
O668 Zn667 1.962 . S
O668 C673 1.254 . S
O669 Zn666 2.031 . S
O669 C673 1.269 . S
O670 Zn667 1.986 . S
O670 C677 1.262 . S
O671 Zn666 2.049 . S
O671 C679 1.260 . S
O672 Zn667 1.996 . S
O672 C679 1.257 . S
C673 O668 1.254 . S
C673 O669 1.269 . S
C674 O675 1.249 . S
C674 O676 1.270 . S
O675 Zn667 1.943 . S
O675 C674 1.249 . S
O676 Zn666 2.067 . S
O676 C674 1.270 . S
C677 O670 1.262 . S
C677 O678 1.232 . S
O678 C677 1.232 . S
C679 O671 1.260 . S
C679 O672 1.257 . S
H680 C686 0.930 . S
H681 C689 0.930 . S
H682 C690 0.930 . S
H683 C691 0.930 . S
H684 C694 0.930 . S
H685 C695 0.930 . S
C686 H680 0.930 . S
C686 C687 1.355 . S
C686 C688 1.415 . S
C687 C686 1.355 . S
C687 C689 1.419 . S
C688 C686 1.415 . S
C688 C693 1.425 . S
C688 C695 1.409 . S
C689 H681 0.930 . S
C689 C687 1.419 . S
C689 C690 1.362 . S
C690 H682 0.930 . S
C690 C689 1.362 . S
C690 C693 1.409 . S
C691 H683 0.930 . S
C691 C692 1.355 . S
C691 C693 1.415 . S
C692 C691 1.355 . S
C692 C694 1.419 . S
C693 C688 1.425 . S
C693 C690 1.409 . S
C693 C691 1.415 . S
C694 H684 0.930 . S
C694 C692 1.419 . S
C694 C695 1.362 . S
C695 H685 0.930 . S
C695 C688 1.409 . S
C695 C694 1.362 . S
H696 C702 0.930 . S
H697 C705 0.930 . S
H698 C706 0.930 . S
H699 C707 0.930 . S
H700 C710 0.930 . S
H701 C711 0.930 . S
C702 H696 0.930 . S
C702 C703 1.355 . S
C702 C704 1.415 . S
C703 C702 1.355 . S
C703 C705 1.419 . S
C704 C702 1.415 . S
C704 C709 1.425 . S
C704 C711 1.409 . S
C705 H697 0.930 . S
C705 C703 1.419 . S
C705 C706 1.362 . S
C706 H698 0.930 . S
C706 C705 1.362 . S
C706 C709 1.409 . S
C707 H699 0.930 . S
C707 C708 1.355 . S
C707 C709 1.415 . S
C708 C707 1.355 . S
C708 C710 1.419 . S
C709 C704 1.425 . S
C709 C706 1.409 . S
C709 C707 1.415 . S
C710 H700 0.930 . S
C710 C708 1.419 . S
C710 C711 1.362 . S
C711 H701 0.930 . S
C711 C704 1.409 . S
C711 C710 1.362 . S
H712 C718 0.930 . S
H713 C721 0.930 . S
H714 C722 0.930 . S
H715 C723 0.930 . S
H716 C726 0.930 . S
H717 C727 0.930 . S
C718 H712 0.930 . S
C718 C719 1.355 . S
C718 C720 1.415 . S
C719 C718 1.355 . S
C719 C721 1.419 . S
C720 C718 1.415 . S
C720 C725 1.425 . S
C720 C727 1.409 . S
C721 H713 0.930 . S
C721 C719 1.419 . S
C721 C722 1.362 . S
C722 H714 0.930 . S
C722 C721 1.362 . S
C722 C725 1.409 . S
C723 H715 0.930 . S
C723 C724 1.355 . S
C723 C725 1.415 . S
C724 C723 1.355 . S
C724 C726 1.419 . S
C725 C720 1.425 . S
C725 C722 1.409 . S
C725 C723 1.415 . S
C726 H716 0.930 . S
C726 C724 1.419 . S
C726 C727 1.362 . S
C727 H717 0.930 . S
C727 C720 1.409 . S
C727 C726 1.362 . S
H728 C734 0.930 . S
H729 C737 0.930 1_455 S
H730 C738 0.930 . S
H731 C739 0.930 . S
H732 C742 0.930 . S
H733 C743 0.930 . S
C734 H728 0.930 . S
C734 C735 1.355 . S
C734 C736 1.415 . S
C735 C734 1.355 . S
C735 C737 1.419 . S
C736 C734 1.415 . S
C736 C741 1.425 . S
C736 C743 1.409 1_565 S
C737 H729 0.930 1_655 S
C737 C735 1.419 . S
C737 C738 1.362 . S
C738 H730 0.930 . S
C738 C737 1.362 . S
C738 C741 1.409 . S
C739 H731 0.930 . S
C739 C740 1.355 . S
C739 C741 1.415 . S
C740 C739 1.355 . S
C740 C742 1.419 1_565 S
C741 C736 1.425 . S
C741 C738 1.409 . S
C741 C739 1.415 . S
C742 H732 0.930 . S
C742 C740 1.419 1_545 S
C742 C743 1.362 . S
C743 H733 0.930 . S
C743 C736 1.409 1_545 S
C743 C742 1.362 . S
H744 C750 0.930 . S
H745 C753 0.930 . S
H746 C754 0.930 . S
H747 C755 0.930 . S
H748 C758 0.930 . S
H749 C759 0.930 . S
C750 H744 0.930 . S
C750 C751 1.355 . S
C750 C752 1.415 . S
C751 C750 1.355 . S
C751 C753 1.419 . S
C752 C750 1.415 . S
C752 C757 1.425 . S
C752 C759 1.409 . S
C753 H745 0.930 . S
C753 C751 1.419 . S
C753 C754 1.362 . S
C754 H746 0.930 . S
C754 C753 1.362 . S
C754 C757 1.409 . S
C755 H747 0.930 . S
C755 C756 1.355 . S
C755 C757 1.415 . S
C756 C755 1.355 . S
C756 C758 1.419 . S
C757 C752 1.425 . S
C757 C754 1.409 . S
C757 C755 1.415 . S
C758 H748 0.930 . S
C758 C756 1.419 . S
C758 C759 1.362 . S
C759 H749 0.930 . S
C759 C752 1.409 . S
C759 C758 1.362 . S
H760 C766 0.930 . S
H761 C769 0.930 . S
H762 C770 0.930 . S
H763 C771 0.930 . S
H764 C774 0.930 . S
H765 C775 0.930 . S
C766 H760 0.930 . S
C766 C767 1.355 . S
C766 C768 1.415 . S
C767 C766 1.355 . S
C767 C769 1.419 . S
C768 C766 1.415 . S
C768 C773 1.425 . S
C768 C775 1.409 . S
C769 H761 0.930 . S
C769 C767 1.419 . S
C769 C770 1.362 . S
C770 H762 0.930 . S
C770 C769 1.362 . S
C770 C773 1.409 . S
C771 H763 0.930 . S
C771 C772 1.355 . S
C771 C773 1.415 . S
C772 C771 1.355 . S
C772 C774 1.419 . S
C773 C768 1.425 . S
C773 C770 1.409 . S
C773 C771 1.415 . S
C774 H764 0.930 . S
C774 C772 1.419 . S
C774 C775 1.362 . S
C775 H765 0.930 . S
C775 C768 1.409 . S
C775 C774 1.362 . S
H776 C782 0.930 . S
H777 C785 0.930 . S
H778 C786 0.930 . S
H779 C787 0.930 . S
H780 C790 0.930 . S
H781 C791 0.930 . S
C782 H776 0.930 . S
C782 C783 1.355 . S
C782 C784 1.415 . S
C783 C782 1.355 . S
C783 C785 1.419 . S
C784 C782 1.415 . S
C784 C789 1.425 . S
C784 C791 1.409 . S
C785 H777 0.930 . S
C785 C783 1.419 . S
C785 C786 1.362 . S
C786 H778 0.930 . S
C786 C785 1.362 . S
C786 C789 1.409 . S
C787 H779 0.930 . S
C787 C788 1.355 . S
C787 C789 1.415 . S
C788 C787 1.355 . S
C788 C790 1.419 . S
C789 C784 1.425 . S
C789 C786 1.409 . S
C789 C787 1.415 . S
C790 H780 0.930 . S
C790 C788 1.419 . S
C790 C791 1.362 . S
C791 H781 0.930 . S
C791 C784 1.409 . S
C791 C790 1.362 . S
H792 C798 0.930 . S
H793 C801 0.930 1_545 S
H794 C802 0.930 . S
H795 C803 0.930 . S
H796 C806 0.930 . S
H797 C807 0.930 . S
C798 H792 0.930 . S
C798 C799 1.355 . S
C798 C800 1.415 . S
C799 C798 1.355 . S
C799 C801 1.419 . S
C800 C798 1.415 . S
C800 C805 1.425 . S
C800 C807 1.409 . S
C801 H793 0.930 1_565 S
C801 C799 1.419 . S
C801 C802 1.362 1_565 S
C802 H794 0.930 . S
C802 C801 1.362 1_545 S
C802 C805 1.409 1_545 S
C803 H795 0.930 . S
C803 C804 1.355 1_545 S
C803 C805 1.415 1_545 S
C804 C803 1.355 1_565 S
C804 C806 1.419 . S
C805 C800 1.425 . S
C805 C802 1.409 1_565 S
C805 C803 1.415 1_565 S
C806 H796 0.930 . S
C806 C804 1.419 . S
C806 C807 1.362 . S
C807 H797 0.930 . S
C807 C800 1.409 . S
C807 C806 1.362 . S
H808 C814 0.930 . S
H809 C817 0.930 . S
H810 C818 0.930 . S
H811 C819 0.930 . S
H812 C822 0.930 . S
H813 C823 0.930 . S
C814 H808 0.930 . S
C814 C815 1.355 . S
C814 C816 1.415 . S
C815 C814 1.355 . S
C815 C817 1.419 . S
C816 C814 1.415 . S
C816 C821 1.425 . S
C816 C823 1.409 . S
C817 H809 0.930 . S
C817 C815 1.419 . S
C817 C818 1.362 . S
C818 H810 0.930 . S
C818 C817 1.362 . S
C818 C821 1.409 . S
C819 H811 0.930 . S
C819 C820 1.355 . S
C819 C821 1.415 . S
C820 C819 1.355 . S
C820 C822 1.419 . S
C821 C816 1.425 . S
C821 C818 1.409 . S
C821 C819 1.415 . S
C822 H812 0.930 . S
C822 C820 1.419 . S
C822 C823 1.362 . S
C823 H813 0.930 . S
C823 C816 1.409 . S
C823 C822 1.362 . S
H824 C830 0.930 . S
H825 C833 0.930 . S
H826 C834 0.930 . S
H827 C835 0.930 . S
H828 C838 0.930 . S
H829 C839 0.930 . S
C830 H824 0.930 . S
C830 C831 1.355 . S
C830 C832 1.415 . S
C831 C830 1.355 . S
C831 C833 1.419 . S
C832 C830 1.415 . S
C832 C837 1.425 . S
C832 C839 1.409 . S
C833 H825 0.930 . S
C833 C831 1.419 . S
C833 C834 1.362 . S
C834 H826 0.930 . S
C834 C833 1.362 . S
C834 C837 1.409 . S
C835 H827 0.930 . S
C835 C836 1.355 . S
C835 C837 1.415 . S
C836 C835 1.355 . S
C836 C838 1.419 . S
C837 C832 1.425 . S
C837 C834 1.409 . S
C837 C835 1.415 . S
C838 H828 0.930 . S
C838 C836 1.419 . S
C838 C839 1.362 . S
C839 H829 0.930 . S
C839 C832 1.409 . S
C839 C838 1.362 . S
H840 C846 0.930 . S
H841 C849 0.930 . S
H842 C850 0.930 . S
H843 C851 0.930 . S
H844 C854 0.930 . S
H845 C855 0.930 . S
C846 H840 0.930 . S
C846 C847 1.355 . S
C846 C848 1.415 . S
C847 C846 1.355 . S
C847 C849 1.419 . S
C848 C846 1.415 . S
C848 C853 1.425 . S
C848 C855 1.409 . S
C849 H841 0.930 . S
C849 C847 1.419 . S
C849 C850 1.362 . S
C850 H842 0.930 . S
C850 C849 1.362 . S
C850 C853 1.409 . S
C851 H843 0.930 . S
C851 C852 1.355 . S
C851 C853 1.415 . S
C852 C851 1.355 . S
C852 C854 1.419 . S
C853 C848 1.425 . S
C853 C850 1.409 . S
C853 C851 1.415 . S
C854 H844 0.930 . S
C854 C852 1.419 . S
C854 C855 1.362 . S
C855 H845 0.930 . S
C855 C848 1.409 . S
C855 C854 1.362 . S
H856 C862 0.930 . S
H857 C865 0.930 . S
H858 C866 0.930 . S
H859 C867 0.930 . S
H860 C870 0.930 . S
H861 C871 0.930 . S
C862 H856 0.930 . S
C862 C863 1.355 . S
C862 C864 1.415 . S
C863 C862 1.355 . S
C863 C865 1.419 . S
C864 C862 1.415 . S
C864 C869 1.425 . S
C864 C871 1.409 . S
C865 H857 0.930 . S
C865 C863 1.419 . S
C865 C866 1.362 . S
C866 H858 0.930 . S
C866 C865 1.362 . S
C866 C869 1.409 . S
C867 H859 0.930 . S
C867 C868 1.355 . S
C867 C869 1.415 . S
C868 C867 1.355 . S
C868 C870 1.419 . S
C869 C864 1.425 . S
C869 C866 1.409 . S
C869 C867 1.415 . S
C870 H860 0.930 . S
C870 C868 1.419 . S
C870 C871 1.362 . S
C871 H861 0.930 . S
C871 C864 1.409 . S
C871 C870 1.362 . S
H872 C878 0.930 . S
H873 C881 0.930 . S
H874 C882 0.930 . S
H875 C883 0.930 . S
H876 C886 0.930 . S
H877 C887 0.930 . S
C878 H872 0.930 . S
C878 C879 1.355 . S
C878 C880 1.415 . S
C879 C878 1.355 . S
C879 C881 1.419 . S
C880 C878 1.415 . S
C880 C885 1.425 . S
C880 C887 1.409 . S
C881 H873 0.930 . S
C881 C879 1.419 . S
C881 C882 1.362 . S
C882 H874 0.930 . S
C882 C881 1.362 . S
C882 C885 1.409 . S
C883 H875 0.930 . S
C883 C884 1.355 . S
C883 C885 1.415 . S
C884 C883 1.355 . S
C884 C886 1.419 . S
C885 C880 1.425 . S
C885 C882 1.409 . S
C885 C883 1.415 . S
C886 H876 0.930 . S
C886 C884 1.419 . S
C886 C887 1.362 . S
C887 H877 0.930 . S
C887 C880 1.409 . S
C887 C886 1.362 . S
H888 C894 0.930 . S
H889 C897 0.930 . S
H890 C898 0.930 1_655 S
H891 C899 0.930 1_655 S
H892 C902 0.930 . S
H893 C903 0.930 . S
C894 H888 0.930 . S
C894 C895 1.355 . S
C894 C896 1.415 . S
C895 C894 1.355 . S
C895 C897 1.419 . S
C896 C894 1.415 . S
C896 C901 1.425 . S
C896 C903 1.409 . S
C897 H889 0.930 . S
C897 C895 1.419 . S
C897 C898 1.362 . S
C898 H890 0.930 1_455 S
C898 C897 1.362 . S
C898 C901 1.409 . S
C899 H891 0.930 1_455 S
C899 C900 1.355 . S
C899 C901 1.415 . S
C900 C899 1.355 . S
C900 C902 1.419 . S
C901 C896 1.425 . S
C901 C898 1.409 . S
C901 C899 1.415 . S
C902 H892 0.930 . S
C902 C900 1.419 . S
C902 C903 1.362 . S
C903 H893 0.930 . S
C903 C896 1.409 . S
C903 C902 1.362 . S
H904 C910 0.930 . S
H905 C913 0.930 . S
H906 C914 0.930 . S
H907 C915 0.930 . S
H908 C918 0.930 . S
H909 C919 0.930 . S
C910 H904 0.930 . S
C910 C911 1.355 . S
C910 C912 1.415 . S
C911 C910 1.355 . S
C911 C913 1.419 . S
C912 C910 1.415 . S
C912 C917 1.425 . S
C912 C919 1.409 . S
C913 H905 0.930 . S
C913 C911 1.419 . S
C913 C914 1.362 . S
C914 H906 0.930 . S
C914 C913 1.362 . S
C914 C917 1.409 . S
C915 H907 0.930 . S
C915 C916 1.355 . S
C915 C917 1.415 . S
C916 C915 1.355 . S
C916 C918 1.419 . S
C917 C912 1.425 . S
C917 C914 1.409 . S
C917 C915 1.415 . S
C918 H908 0.930 . S
C918 C916 1.419 . S
C918 C919 1.362 . S
C919 H909 0.930 . S
C919 C912 1.409 . S
C919 C918 1.362 . S
H920 C926 0.930 . S
H921 C929 0.930 . S
H922 C930 0.930 . S
H923 C931 0.930 . S
H924 C934 0.930 . S
H925 C935 0.930 . S
C926 H920 0.930 . S
C926 C927 1.355 . S
C926 C928 1.415 . S
C927 C926 1.355 . S
C927 C929 1.419 1_655 S
C928 C926 1.415 . S
C928 C933 1.425 . S
C928 C935 1.409 . S
C929 H921 0.930 . S
C929 C927 1.419 1_455 S
C929 C930 1.362 . S
C930 H922 0.930 . S
C930 C929 1.362 . S
C930 C933 1.409 1_455 S
C931 H923 0.930 . S
C931 C932 1.355 1_455 S
C931 C933 1.415 1_455 S
C932 C931 1.355 1_655 S
C932 C934 1.419 . S
C933 C928 1.425 . S
C933 C930 1.409 1_655 S
C933 C931 1.415 1_655 S
C934 H924 0.930 . S
C934 C932 1.419 . S
C934 C935 1.362 . S
C935 H925 0.930 . S
C935 C928 1.409 . S
C935 C934 1.362 . S
H936 C942 0.930 . S
H937 C945 0.930 . S
H938 C946 0.930 . S
H939 C947 0.930 . S
H940 C950 0.930 . S
H941 C951 0.930 . S
C942 H936 0.930 . S
C942 C943 1.355 . S
C942 C944 1.415 . S
C943 C942 1.355 . S
C943 C945 1.419 . S
C944 C942 1.415 . S
C944 C949 1.425 . S
C944 C951 1.409 . S
C945 H937 0.930 . S
C945 C943 1.419 . S
C945 C946 1.362 . S
C946 H938 0.930 . S
C946 C945 1.362 . S
C946 C949 1.409 . S
C947 H939 0.930 . S
C947 C948 1.355 . S
C947 C949 1.415 . S
C948 C947 1.355 . S
C948 C950 1.419 . S
C949 C944 1.425 . S
C949 C946 1.409 . S
C949 C947 1.415 . S
C950 H940 0.930 . S
C950 C948 1.419 . S
C950 C951 1.362 . S
C951 H941 0.930 . S
C951 C944 1.409 . S
C951 C950 1.362 . S
H952 C958 0.930 . S
H953 C961 0.930 . S
H954 C962 0.930 . S
H955 C963 0.930 . S
H956 C966 0.930 . S
H957 C967 0.930 . S
C958 H952 0.930 . S
C958 C959 1.355 . S
C958 C960 1.415 . S
C959 C958 1.355 . S
C959 C961 1.419 . S
C960 C958 1.415 . S
C960 C965 1.425 . S
C960 C967 1.409 . S
C961 H953 0.930 . S
C961 C959 1.419 . S
C961 C962 1.362 . S
C962 H954 0.930 . S
C962 C961 1.362 . S
C962 C965 1.409 . S
C963 H955 0.930 . S
C963 C964 1.355 . S
C963 C965 1.415 . S
C964 C963 1.355 . S
C964 C966 1.419 . S
C965 C960 1.425 . S
C965 C962 1.409 . S
C965 C963 1.415 . S
C966 H956 0.930 . S
C966 C964 1.419 . S
C966 C967 1.362 . S
C967 H957 0.930 . S
C967 C960 1.409 . S
C967 C966 1.362 . S
H968 C974 0.930 . S
H969 C977 0.930 . S
H970 C978 0.930 . S
H971 C979 0.930 . S
H972 C982 0.930 . S
H973 C983 0.930 . S
C974 H968 0.930 . S
C974 C975 1.355 . S
C974 C976 1.415 . S
C975 C974 1.355 . S
C975 C977 1.419 1_565 S
C976 C974 1.415 . S
C976 C981 1.425 . S
C976 C983 1.409 . S
C977 H969 0.930 . S
C977 C975 1.419 1_545 S
C977 C978 1.362 1_545 S
C978 H970 0.930 . S
C978 C977 1.362 1_565 S
C978 C981 1.409 . S
C979 H971 0.930 . S
C979 C980 1.355 . S
C979 C981 1.415 . S
C980 C979 1.355 . S
C980 C982 1.419 . S
C981 C976 1.425 . S
C981 C978 1.409 . S
C981 C979 1.415 . S
C982 H972 0.930 . S
C982 C980 1.419 . S
C982 C983 1.362 . S
C983 H973 0.930 . S
C983 C976 1.409 . S
C983 C982 1.362 . S
H984 C990 0.930 . S
H985 C993 0.930 . S
H986 C994 0.930 . S
H987 C995 0.930 . S
H988 C998 0.930 . S
H989 C999 0.930 . S
C990 H984 0.930 . S
C990 C991 1.355 . S
C990 C992 1.415 . S
C991 C990 1.355 . S
C991 C993 1.419 . S
C992 C990 1.415 . S
C992 C997 1.425 . S
C992 C999 1.409 . S
C993 H985 0.930 . S
C993 C991 1.419 . S
C993 C994 1.362 . S
C994 H986 0.930 . S
C994 C993 1.362 . S
C994 C997 1.409 . S
C995 H987 0.930 . S
C995 C996 1.355 . S
C995 C997 1.415 . S
C996 C995 1.355 . S
C996 C998 1.419 . S
C997 C992 1.425 . S
C997 C994 1.409 . S
C997 C995 1.415 . S
C998 H988 0.930 . S
C998 C996 1.419 . S
C998 C999 1.362 . S
C999 H989 0.930 . S
C999 C992 1.409 . S
C999 C998 1.362 . S
H1000 C1006 0.930 . S
H1001 C1009 0.930 1_565 S
H1002 C1010 0.930 . S
H1003 C1011 0.930 . S
H1004 C1014 0.930 . S
H1005 C1015 0.930 . S
C1006 H1000 0.930 . S
C1006 C1007 1.355 . S
C1006 C1008 1.415 . S
C1007 C1006 1.355 . S
C1007 C1009 1.419 . S
C1008 C1006 1.415 . S
C1008 C1013 1.425 . S
C1008 C1015 1.409 . S
C1009 H1001 0.930 1_545 S
C1009 C1007 1.419 . S
C1009 C1010 1.362 . S
C1010 H1002 0.930 . S
C1010 C1009 1.362 . S
C1010 C1013 1.409 . S
C1011 H1003 0.930 . S
C1011 C1012 1.355 . S
C1011 C1013 1.415 . S
C1012 C1011 1.355 . S
C1012 C1014 1.419 . S
C1013 C1008 1.425 . S
C1013 C1010 1.409 . S
C1013 C1011 1.415 . S
C1014 H1004 0.930 . S
C1014 C1012 1.419 . S
C1014 C1015 1.362 . S
C1015 H1005 0.930 . S
C1015 C1008 1.409 . S
C1015 C1014 1.362 . S
H1016 C1022 0.930 . S
H1017 C1025 0.930 . S
H1018 C1026 0.930 . S
H1019 C1027 0.930 . S
H1020 C1030 0.930 . S
H1021 C1031 0.930 . S
C1022 H1016 0.930 . S
C1022 C1023 1.355 . S
C1022 C1024 1.415 . S
C1023 C1022 1.355 . S
C1023 C1025 1.419 . S
C1024 C1022 1.415 . S
C1024 C1029 1.425 . S
C1024 C1031 1.409 . S
C1025 H1017 0.930 . S
C1025 C1023 1.419 . S
C1025 C1026 1.362 . S
C1026 H1018 0.930 . S
C1026 C1025 1.362 . S
C1026 C1029 1.409 . S
C1027 H1019 0.930 . S
C1027 C1028 1.355 . S
C1027 C1029 1.415 . S
C1028 C1027 1.355 . S
C1028 C1030 1.419 . S
C1029 C1024 1.425 . S
C1029 C1026 1.409 . S
C1029 C1027 1.415 . S
C1030 H1020 0.930 . S
C1030 C1028 1.419 . S
C1030 C1031 1.362 . S
C1031 H1021 0.930 . S
C1031 C1024 1.409 . S
C1031 C1030 1.362 . S
H1032 C1038 0.930 . S
H1033 C1041 0.930 1_565 S
H1034 C1042 0.930 . S
H1035 C1043 0.930 . S
H1036 C1046 0.930 . S
H1037 C1047 0.930 . S
C1038 H1032 0.930 . S
C1038 C1039 1.355 . S
C1038 C1040 1.415 . S
C1039 C1038 1.355 . S
C1039 C1041 1.419 . S
C1040 C1038 1.415 . S
C1040 C1045 1.425 . S
C1040 C1047 1.409 . S
C1041 H1033 0.930 1_545 S
C1041 C1039 1.419 . S
C1041 C1042 1.362 . S
C1042 H1034 0.930 . S
C1042 C1041 1.362 . S
C1042 C1045 1.409 . S
C1043 H1035 0.930 . S
C1043 C1044 1.355 . S
C1043 C1045 1.415 . S
C1044 C1043 1.355 . S
C1044 C1046 1.419 . S
C1045 C1040 1.425 . S
C1045 C1042 1.409 . S
C1045 C1043 1.415 . S
C1046 H1036 0.930 . S
C1046 C1044 1.419 . S
C1046 C1047 1.362 . S
C1047 H1037 0.930 . S
C1047 C1040 1.409 . S
C1047 C1046 1.362 . S
H1048 C1054 0.930 . S
H1049 C1057 0.930 . S
H1050 C1058 0.930 . S
H1051 C1059 0.930 . S
H1052 C1062 0.930 . S
H1053 C1063 0.930 . S
C1054 H1048 0.930 . S
C1054 C1055 1.355 . S
C1054 C1056 1.415 . S
C1055 C1054 1.355 . S
C1055 C1057 1.419 . S
C1056 C1054 1.415 . S
C1056 C1061 1.425 . S
C1056 C1063 1.409 . S
C1057 H1049 0.930 . S
C1057 C1055 1.419 . S
C1057 C1058 1.362 . S
C1058 H1050 0.930 . S
C1058 C1057 1.362 . S
C1058 C1061 1.409 . S
C1059 H1051 0.930 . S
C1059 C1060 1.355 . S
C1059 C1061 1.415 . S
C1060 C1059 1.355 . S
C1060 C1062 1.419 . S
C1061 C1056 1.425 . S
C1061 C1058 1.409 . S
C1061 C1059 1.415 . S
C1062 H1052 0.930 . S
C1062 C1060 1.419 . S
C1062 C1063 1.362 . S
C1063 H1053 0.930 . S
C1063 C1056 1.409 . S
C1063 C1062 1.362 . S
H1064 C1070 0.930 . S
H1065 C1073 0.930 . S
H1066 C1074 0.930 . S
H1067 C1075 0.930 . S
H1068 C1078 0.930 . S
H1069 C1079 0.930 . S
C1070 H1064 0.930 . S
C1070 C1071 1.355 . S
C1070 C1072 1.415 . S
C1071 C1070 1.355 . S
C1071 C1073 1.419 . S
C1072 C1070 1.415 . S
C1072 C1077 1.425 . S
C1072 C1079 1.409 . S
C1073 H1065 0.930 . S
C1073 C1071 1.419 . S
C1073 C1074 1.362 . S
C1074 H1066 0.930 . S
C1074 C1073 1.362 . S
C1074 C1077 1.409 . S
C1075 H1067 0.930 . S
C1075 C1076 1.355 . S
C1075 C1077 1.415 . S
C1076 C1075 1.355 . S
C1076 C1078 1.419 . S
C1077 C1072 1.425 . S
C1077 C1074 1.409 . S
C1077 C1075 1.415 . S
C1078 H1068 0.930 . S
C1078 C1076 1.419 . S
C1078 C1079 1.362 . S
C1079 H1069 0.930 . S
C1079 C1072 1.409 . S
C1079 C1078 1.362 . S
H1080 C1086 0.930 . S
H1081 C1089 0.930 . S
H1082 C1090 0.930 . S
H1083 C1091 0.930 . S
H1084 C1094 0.930 . S
H1085 C1095 0.930 . S
C1086 H1080 0.930 . S
C1086 C1087 1.355 . S
C1086 C1088 1.415 . S
C1087 C1086 1.355 . S
C1087 C1089 1.419 . S
C1088 C1086 1.415 . S
C1088 C1093 1.425 . S
C1088 C1095 1.409 . S
C1089 H1081 0.930 . S
C1089 C1087 1.419 . S
C1089 C1090 1.362 . S
C1090 H1082 0.930 . S
C1090 C1089 1.362 . S
C1090 C1093 1.409 . S
C1091 H1083 0.930 . S
C1091 C1092 1.355 . S
C1091 C1093 1.415 . S
C1092 C1091 1.355 . S
C1092 C1094 1.419 . S
C1093 C1088 1.425 . S
C1093 C1090 1.409 . S
C1093 C1091 1.415 . S
C1094 H1084 0.930 . S
C1094 C1092 1.419 . S
C1094 C1095 1.362 . S
C1095 H1085 0.930 . S
C1095 C1088 1.409 . S
C1095 C1094 1.362 . S
H1096 C1102 0.930 . S
H1097 C1105 0.930 . S
H1098 C1106 0.930 . S
H1099 C1107 0.930 . S
H1100 C1110 0.930 . S
H1101 C1111 0.930 . S
C1102 H1096 0.930 . S
C1102 C1103 1.355 . S
C1102 C1104 1.415 . S
C1103 C1102 1.355 . S
C1103 C1105 1.419 . S
C1104 C1102 1.415 . S
C1104 C1109 1.425 . S
C1104 C1111 1.409 . S
C1105 H1097 0.930 . S
C1105 C1103 1.419 . S
C1105 C1106 1.362 . S
C1106 H1098 0.930 . S
C1106 C1105 1.362 . S
C1106 C1109 1.409 . S
C1107 H1099 0.930 . S
C1107 C1108 1.355 . S
C1107 C1109 1.415 . S
C1108 C1107 1.355 . S
C1108 C1110 1.419 . S
C1109 C1104 1.425 . S
C1109 C1106 1.409 . S
C1109 C1107 1.415 . S
C1110 H1100 0.930 . S
C1110 C1108 1.419 . S
C1110 C1111 1.362 . S
C1111 H1101 0.930 . S
C1111 C1104 1.409 . S
C1111 C1110 1.362 . S
H1112 C1118 0.930 . S
H1113 C1121 0.930 . S
H1114 C1122 0.930 . S
H1115 C1123 0.930 . S
H1116 C1126 0.930 . S
H1117 C1127 0.930 . S
C1118 H1112 0.930 . S
C1118 C1119 1.355 . S
C1118 C1120 1.415 . S
C1119 C1118 1.355 . S
C1119 C1121 1.419 . S
C1120 C1118 1.415 . S
C1120 C1125 1.425 . S
C1120 C1127 1.409 . S
C1121 H1113 0.930 . S
C1121 C1119 1.419 . S
C1121 C1122 1.362 . S
C1122 H1114 0.930 . S
C1122 C1121 1.362 . S
C1122 C1125 1.409 . S
C1123 H1115 0.930 . S
C1123 C1124 1.355 . S
C1123 C1125 1.415 . S
C1124 C1123 1.355 . S
C1124 C1126 1.419 . S
C1125 C1120 1.425 . S
C1125 C1122 1.409 . S
C1125 C1123 1.415 . S
C1126 H1116 0.930 . S
C1126 C1124 1.419 . S
C1126 C1127 1.362 . S
C1127 H1117 0.930 . S
C1127 C1120 1.409 . S
C1127 C1126 1.362 . S
H1128 C1134 0.930 . S
H1129 C1137 0.930 . S
H1130 C1138 0.930 . S
H1131 C1139 0.930 . S
H1132 C1142 0.930 . S
H1133 C1143 0.930 . S
C1134 H1128 0.930 . S
C1134 C1135 1.355 . S
C1134 C1136 1.415 . S
C1135 C1134 1.355 . S
C1135 C1137 1.419 . S
C1136 C1134 1.415 . S
C1136 C1141 1.425 . S
C1136 C1143 1.409 . S
C1137 H1129 0.930 . S
C1137 C1135 1.419 . S
C1137 C1138 1.362 . S
C1138 H1130 0.930 . S
C1138 C1137 1.362 . S
C1138 C1141 1.409 . S
C1139 H1131 0.930 . S
C1139 C1140 1.355 . S
C1139 C1141 1.415 . S
C1140 C1139 1.355 . S
C1140 C1142 1.419 . S
C1141 C1136 1.425 . S
C1141 C1138 1.409 . S
C1141 C1139 1.415 . S
C1142 H1132 0.930 . S
C1142 C1140 1.419 . S
C1142 C1143 1.362 . S
C1143 H1133 0.930 . S
C1143 C1136 1.409 . S
C1143 C1142 1.362 . S
H1144 C1150 0.930 . S
H1145 C1153 0.930 1_455 S
H1146 C1154 0.930 . S
H1147 C1155 0.930 . S
H1148 C1158 0.930 . S
H1149 C1159 0.930 . S
C1150 H1144 0.930 . S
C1150 C1151 1.355 . S
C1150 C1152 1.415 . S
C1151 C1150 1.355 . S
C1151 C1153 1.419 . S
C1152 C1150 1.415 . S
C1152 C1157 1.425 . S
C1152 C1159 1.409 . S
C1153 H1145 0.930 1_655 S
C1153 C1151 1.419 . S
C1153 C1154 1.362 . S
C1154 H1146 0.930 . S
C1154 C1153 1.362 . S
C1154 C1157 1.409 . S
C1155 H1147 0.930 . S
C1155 C1156 1.355 . S
C1155 C1157 1.415 . S
C1156 C1155 1.355 . S
C1156 C1158 1.419 . S
C1157 C1152 1.425 . S
C1157 C1154 1.409 . S
C1157 C1155 1.415 . S
C1158 H1148 0.930 . S
C1158 C1156 1.419 . S
C1158 C1159 1.362 . S
C1159 H1149 0.930 . S
C1159 C1152 1.409 . S
C1159 C1158 1.362 . S
H1160 C1166 0.930 . S
H1161 C1169 0.930 . S
H1162 C1170 0.930 . S
H1163 C1171 0.930 . S
H1164 C1174 0.930 . S
H1165 C1175 0.930 . S
C1166 H1160 0.930 . S
C1166 C1167 1.355 . S
C1166 C1168 1.415 . S
C1167 C1166 1.355 . S
C1167 C1169 1.419 . S
C1168 C1166 1.415 . S
C1168 C1173 1.425 . S
C1168 C1175 1.409 . S
C1169 H1161 0.930 . S
C1169 C1167 1.419 . S
C1169 C1170 1.362 . S
C1170 H1162 0.930 . S
C1170 C1169 1.362 . S
C1170 C1173 1.409 . S
C1171 H1163 0.930 . S
C1171 C1172 1.355 . S
C1171 C1173 1.415 . S
C1172 C1171 1.355 . S
C1172 C1174 1.419 . S
C1173 C1168 1.425 . S
C1173 C1170 1.409 . S
C1173 C1171 1.415 . S
C1174 H1164 0.930 . S
C1174 C1172 1.419 . S
C1174 C1175 1.362 . S
C1175 H1165 0.930 . S
C1175 C1168 1.409 . S
C1175 C1174 1.362 . S
H1176 C1182 0.930 . S
H1177 C1185 0.930 . S
H1178 C1186 0.930 . S
H1179 C1187 0.930 . S
H1180 C1190 0.930 . S
H1181 C1191 0.930 . S
C1182 H1176 0.930 . S
C1182 C1183 1.355 . S
C1182 C1184 1.415 . S
C1183 C1182 1.355 . S
C1183 C1185 1.419 . S
C1184 C1182 1.415 . S
C1184 C1189 1.425 . S
C1184 C1191 1.409 . S
C1185 H1177 0.930 . S
C1185 C1183 1.419 . S
C1185 C1186 1.362 . S
C1186 H1178 0.930 . S
C1186 C1185 1.362 . S
C1186 C1189 1.409 . S
C1187 H1179 0.930 . S
C1187 C1188 1.355 . S
C1187 C1189 1.415 . S
C1188 C1187 1.355 . S
C1188 C1190 1.419 . S
C1189 C1184 1.425 . S
C1189 C1186 1.409 . S
C1189 C1187 1.415 . S
C1190 H1180 0.930 . S
C1190 C1188 1.419 . S
C1190 C1191 1.362 . S
C1191 H1181 0.930 . S
C1191 C1184 1.409 . S
C1191 C1190 1.362 . S
H1192 C1198 0.930 . S
H1193 C1201 0.930 . S
H1194 C1202 0.930 . S
H1195 C1203 0.930 . S
H1196 C1206 0.930 . S
H1197 C1207 0.930 . S
C1198 H1192 0.930 . S
C1198 C1199 1.355 . S
C1198 C1200 1.415 . S
C1199 C1198 1.355 . S
C1199 C1201 1.419 . S
C1200 C1198 1.415 . S
C1200 C1205 1.425 . S
C1200 C1207 1.409 . S
C1201 H1193 0.930 . S
C1201 C1199 1.419 . S
C1201 C1202 1.362 . S
C1202 H1194 0.930 . S
C1202 C1201 1.362 . S
C1202 C1205 1.409 . S
C1203 H1195 0.930 . S
C1203 C1204 1.355 . S
C1203 C1205 1.415 . S
C1204 C1203 1.355 . S
C1204 C1206 1.419 . S
C1205 C1200 1.425 . S
C1205 C1202 1.409 . S
C1205 C1203 1.415 . S
C1206 H1196 0.930 . S
C1206 C1204 1.419 . S
C1206 C1207 1.362 . S
C1207 H1197 0.930 . S
C1207 C1200 1.409 . S
C1207 C1206 1.362 . S
H1208 C1214 0.930 . S
H1209 C1217 0.930 . S
H1210 C1218 0.930 . S
H1211 C1219 0.930 . S
H1212 C1222 0.930 . S
H1213 C1223 0.936 . S
C1214 H1208 0.930 . S
C1214 C1215 1.355 . S
C1214 C1216 1.415 . S
C1215 C1214 1.355 . S
C1215 C1217 1.419 1_556 S
C1216 C1214 1.415 . S
C1216 C1221 1.425 . S
C1216 C1223 1.402 1_655 S
C1217 H1209 0.930 . S
C1217 C1215 1.419 1_554 S
C1217 C1218 1.362 1_554 S
C1218 H1210 0.930 . S
C1218 C1217 1.362 1_556 S
C1218 C1221 1.409 . S
C1219 H1211 0.930 . S
C1219 C1220 1.355 . S
C1219 C1221 1.415 . S
C1220 C1219 1.355 . S
C1220 C1222 1.419 1_655 S
C1221 C1216 1.425 . S
C1221 C1218 1.409 . S
C1221 C1219 1.415 . S
C1222 H1212 0.930 . S
C1222 C1220 1.419 1_455 S
C1222 C1223 1.364 . S
C1223 H1213 0.936 . S
C1223 C1216 1.402 1_455 S
C1223 C1222 1.364 . S
H1224 C1230 0.930 . S
H1225 C1233 0.930 . S
H1226 C1234 0.930 . S
H1227 C1235 0.930 . S
H1228 C1238 0.930 . S
H1229 C1239 0.930 . S
C1230 H1224 0.930 . S
C1230 C1231 1.355 . S
C1230 C1232 1.415 . S
C1231 C1230 1.355 . S
C1231 C1233 1.419 . S
C1232 C1230 1.415 . S
C1232 C1237 1.425 . S
C1232 C1239 1.409 . S
C1233 H1225 0.930 . S
C1233 C1231 1.419 . S
C1233 C1234 1.362 . S
C1234 H1226 0.930 . S
C1234 C1233 1.362 . S
C1234 C1237 1.409 . S
C1235 H1227 0.930 . S
C1235 C1236 1.355 . S
C1235 C1237 1.415 . S
C1236 C1235 1.355 . S
C1236 C1238 1.419 . S
C1237 C1232 1.425 . S
C1237 C1234 1.409 . S
C1237 C1235 1.415 . S
C1238 H1228 0.930 . S
C1238 C1236 1.419 . S
C1238 C1239 1.362 . S
C1239 H1229 0.930 . S
C1239 C1232 1.409 . S
C1239 C1238 1.362 . S
H1240 C1246 0.930 . S
H1241 C1249 0.930 . S
H1242 C1250 0.925 . S
H1243 C1251 0.930 . S
H1244 C1254 0.930 . S
H1245 C1255 0.930 . S
C1246 H1240 0.930 . S
C1246 C1247 1.355 . S
C1246 C1248 1.415 . S
C1247 C1246 1.355 . S
C1247 C1249 1.419 1_556 S
C1248 C1246 1.415 . S
C1248 C1253 1.425 . S
C1248 C1255 1.409 . S
C1249 H1241 0.930 . S
C1249 C1247 1.419 1_554 S
C1249 C1250 1.362 1_554 S
C1250 H1242 0.925 . S
C1250 C1249 1.362 1_556 S
C1250 C1253 1.409 . S
C1251 H1243 0.930 . S
C1251 C1252 1.355 . S
C1251 C1253 1.415 . S
C1252 C1251 1.355 . S
C1252 C1254 1.419 . S
C1253 C1248 1.425 . S
C1253 C1250 1.409 . S
C1253 C1251 1.415 . S
C1254 H1244 0.930 . S
C1254 C1252 1.419 . S
C1254 C1255 1.362 . S
C1255 H1245 0.930 . S
C1255 C1248 1.409 . S
C1255 C1254 1.362 . S
H1256 C1262 0.930 . S
H1257 C1265 0.930 . S
H1258 C1266 0.930 . S
H1259 C1267 0.930 . S
H1260 C1270 0.930 . S
H1261 C1271 0.930 . S
C1262 H1256 0.930 . S
C1262 C1263 1.355 . S
C1262 C1264 1.415 . S
C1263 C1262 1.355 . S
C1263 C1265 1.419 . S
C1264 C1262 1.415 . S
C1264 C1269 1.425 . S
C1264 C1271 1.409 . S
C1265 H1257 0.930 . S
C1265 C1263 1.419 . S
C1265 C1266 1.362 . S
C1266 H1258 0.930 . S
C1266 C1265 1.362 . S
C1266 C1269 1.409 . S
C1267 H1259 0.930 . S
C1267 C1268 1.355 . S
C1267 C1269 1.415 . S
C1268 C1267 1.355 . S
C1268 C1270 1.419 . S
C1269 C1264 1.425 . S
C1269 C1266 1.409 . S
C1269 C1267 1.415 . S
C1270 H1260 0.930 . S
C1270 C1268 1.419 . S
C1270 C1271 1.362 . S
C1271 H1261 0.930 . S
C1271 C1264 1.409 . S
C1271 C1270 1.362 . S
H1272 C1278 0.930 . S
H1273 C1281 0.930 . S
H1274 C1282 0.930 . S
H1275 C1283 0.930 . S
H1276 C1286 0.930 . S
H1277 C1287 0.930 . S
C1278 H1272 0.930 . S
C1278 C1279 1.355 . S
C1278 C1280 1.415 . S
C1279 C1278 1.355 . S
C1279 C1281 1.419 . S
C1280 C1278 1.415 . S
C1280 C1285 1.425 . S
C1280 C1287 1.409 . S
C1281 H1273 0.930 . S
C1281 C1279 1.419 . S
C1281 C1282 1.362 . S
C1282 H1274 0.930 . S
C1282 C1281 1.362 . S
C1282 C1285 1.409 . S
C1283 H1275 0.930 . S
C1283 C1284 1.355 . S
C1283 C1285 1.415 . S
C1284 C1283 1.355 . S
C1284 C1286 1.419 . S
C1285 C1280 1.425 . S
C1285 C1282 1.409 . S
C1285 C1283 1.415 . S
C1286 H1276 0.930 . S
C1286 C1284 1.419 . S
C1286 C1287 1.362 . S
C1287 H1277 0.930 . S
C1287 C1280 1.409 . S
C1287 C1286 1.362 . S
H1288 C1294 0.930 . S
H1289 C1297 0.930 . S
H1290 C1298 0.930 . S
H1291 C1299 0.930 . S
H1292 C1302 0.930 . S
H1293 C1303 0.930 . S
C1294 H1288 0.930 . S
C1294 C1295 1.355 . S
C1294 C1296 1.415 . S
C1295 C1294 1.355 . S
C1295 C1297 1.419 . S
C1296 C1294 1.415 . S
C1296 C1301 1.425 . S
C1296 C1303 1.409 . S
C1297 H1289 0.930 . S
C1297 C1295 1.419 . S
C1297 C1298 1.362 . S
C1298 H1290 0.930 . S
C1298 C1297 1.362 . S
C1298 C1301 1.409 . S
C1299 H1291 0.930 . S
C1299 C1300 1.355 . S
C1299 C1301 1.415 . S
C1300 C1299 1.355 . S
C1300 C1302 1.419 . S
C1301 C1296 1.425 . S
C1301 C1298 1.409 . S
C1301 C1299 1.415 . S
C1302 H1292 0.930 . S
C1302 C1300 1.419 . S
C1302 C1303 1.362 . S
C1303 H1293 0.930 . S
C1303 C1296 1.409 . S
C1303 C1302 1.362 . S
H1304 C1310 0.930 . S
H1305 C1313 0.930 . S
H1306 C1314 0.930 . S
H1307 C1315 0.930 . S
H1308 C1318 0.930 . S
H1309 C1319 0.930 . S
C1310 H1304 0.930 . S
C1310 C1311 1.355 . S
C1310 C1312 1.415 . S
C1311 C1310 1.355 . S
C1311 C1313 1.419 . S
C1312 C1310 1.415 . S
C1312 C1317 1.425 . S
C1312 C1319 1.409 . S
C1313 H1305 0.930 . S
C1313 C1311 1.419 . S
C1313 C1314 1.362 . S
C1314 H1306 0.930 . S
C1314 C1313 1.362 . S
C1314 C1317 1.409 . S
C1315 H1307 0.930 . S
C1315 C1316 1.355 . S
C1315 C1317 1.415 . S
C1316 C1315 1.355 . S
C1316 C1318 1.419 . S
C1317 C1312 1.425 . S
C1317 C1314 1.409 . S
C1317 C1315 1.415 . S
C1318 H1308 0.930 . S
C1318 C1316 1.419 . S
C1318 C1319 1.362 . S
C1319 H1309 0.930 . S
C1319 C1312 1.409 . S
C1319 C1318 1.362 . S
H1320 C1326 0.930 . S
H1321 C1329 0.930 . S
H1322 C1330 0.930 . S
H1323 C1331 0.930 . S
H1324 C1334 0.930 . S
H1325 C1335 0.930 . S
C1326 H1320 0.930 . S
C1326 C1327 1.355 . S
C1326 C1328 1.415 . S
C1327 C1326 1.355 . S
C1327 C1329 1.419 . S
C1328 C1326 1.415 . S
C1328 C1333 1.425 . S
C1328 C1335 1.409 . S
C1329 H1321 0.930 . S
C1329 C1327 1.419 . S
C1329 C1330 1.362 . S
C1330 H1322 0.930 . S
C1330 C1329 1.362 . S
C1330 C1333 1.409 . S
C1331 H1323 0.930 . S
C1331 C1332 1.355 . S
C1331 C1333 1.415 . S
C1332 C1331 1.355 . S
C1332 C1334 1.419 . S
C1333 C1328 1.425 . S
C1333 C1330 1.409 . S
C1333 C1331 1.415 . S
C1334 H1324 0.930 . S
C1334 C1332 1.419 . S
C1334 C1335 1.362 . S
C1335 H1325 0.930 . S
C1335 C1328 1.409 . S
C1335 C1334 1.362 . S
H1336 C1342 0.930 . S
H1337 C1345 0.930 . S
H1338 C1346 0.930 . S
H1339 C1347 0.930 . S
H1340 C1350 0.930 . S
H1341 C1351 0.930 . S
C1342 H1336 0.930 . S
C1342 C1343 1.355 . S
C1342 C1344 1.415 . S
C1343 C1342 1.355 . S
C1343 C1345 1.419 . S
C1344 C1342 1.415 . S
C1344 C1349 1.425 . S
C1344 C1351 1.409 . S
C1345 H1337 0.930 . S
C1345 C1343 1.419 . S
C1345 C1346 1.362 . S
C1346 H1338 0.930 . S
C1346 C1345 1.362 . S
C1346 C1349 1.409 . S
C1347 H1339 0.930 . S
C1347 C1348 1.355 . S
C1347 C1349 1.415 . S
C1348 C1347 1.355 . S
C1348 C1350 1.419 . S
C1349 C1344 1.425 . S
C1349 C1346 1.409 . S
C1349 C1347 1.415 . S
C1350 H1340 0.930 . S
C1350 C1348 1.419 . S
C1350 C1351 1.362 . S
C1351 H1341 0.930 . S
C1351 C1344 1.409 . S
C1351 C1350 1.362 . S
H1352 C1358 0.930 . S
H1353 C1361 0.930 . S
H1354 C1362 0.930 . S
H1355 C1363 0.930 . S
H1356 C1366 0.930 . S
H1357 C1367 0.930 . S
C1358 H1352 0.930 . S
C1358 C1359 1.355 . S
C1358 C1360 1.415 . S
C1359 C1358 1.355 . S
C1359 C1361 1.419 . S
C1360 C1358 1.415 . S
C1360 C1365 1.425 . S
C1360 C1367 1.409 . S
C1361 H1353 0.930 . S
C1361 C1359 1.419 . S
C1361 C1362 1.362 . S
C1362 H1354 0.930 . S
C1362 C1361 1.362 . S
C1362 C1365 1.409 . S
C1363 H1355 0.930 . S
C1363 C1364 1.355 . S
C1363 C1365 1.415 . S
C1364 C1363 1.355 . S
C1364 C1366 1.419 . S
C1365 C1360 1.425 . S
C1365 C1362 1.409 . S
C1365 C1363 1.415 . S
C1366 H1356 0.930 . S
C1366 C1364 1.419 . S
C1366 C1367 1.362 . S
C1367 H1357 0.930 . S
C1367 C1360 1.409 . S
C1367 C1366 1.362 . S
H1368 C1374 0.930 . S
H1369 C1377 0.930 . S
H1370 C1378 0.930 . S
H1371 C1379 0.930 . S
H1372 C1382 0.930 . S
H1373 C1383 0.930 . S
C1374 H1368 0.930 . S
C1374 C1375 1.355 . S
C1374 C1376 1.415 . S
C1375 C1374 1.355 . S
C1375 C1377 1.419 . S
C1376 C1374 1.415 . S
C1376 C1381 1.425 . S
C1376 C1383 1.409 . S
C1377 H1369 0.930 . S
C1377 C1375 1.419 . S
C1377 C1378 1.362 . S
C1378 H1370 0.930 . S
C1378 C1377 1.362 . S
C1378 C1381 1.409 . S
C1379 H1371 0.930 . S
C1379 C1380 1.355 . S
C1379 C1381 1.415 . S
C1380 C1379 1.355 . S
C1380 C1382 1.419 . S
C1381 C1376 1.425 . S
C1381 C1378 1.409 . S
C1381 C1379 1.415 . S
C1382 H1372 0.930 . S
C1382 C1380 1.419 . S
C1382 C1383 1.362 . S
C1383 H1373 0.930 . S
C1383 C1376 1.409 . S
C1383 C1382 1.362 . S
H1384 C1390 0.930 . S
H1385 C1393 0.930 . S
H1386 C1394 0.930 . S
H1387 C1395 0.930 . S
H1388 C1398 0.930 . S
H1389 C1399 0.930 . S
C1390 H1384 0.930 . S
C1390 C1391 1.355 . S
C1390 C1392 1.415 . S
C1391 C1390 1.355 . S
C1391 C1393 1.419 1_556 S
C1392 C1390 1.415 . S
C1392 C1397 1.425 . S
C1392 C1399 1.409 . S
C1393 H1385 0.930 . S
C1393 C1391 1.419 1_554 S
C1393 C1394 1.362 . S
C1394 H1386 0.930 . S
C1394 C1393 1.362 . S
C1394 C1397 1.409 1_554 S
C1395 H1387 0.930 . S
C1395 C1396 1.355 1_554 S
C1395 C1397 1.415 1_554 S
C1396 C1395 1.355 1_556 S
C1396 C1398 1.419 . S
C1397 C1392 1.425 . S
C1397 C1394 1.409 1_556 S
C1397 C1395 1.415 1_556 S
C1398 H1388 0.930 . S
C1398 C1396 1.419 . S
C1398 C1399 1.362 . S
C1399 H1389 0.930 . S
C1399 C1392 1.409 . S
C1399 C1398 1.362 . S
H1400 C1406 0.930 . S
H1401 C1409 0.930 . S
H1402 C1410 0.930 . S
H1403 C1411 0.930 . S
H1404 C1414 0.930 . S
H1405 C1415 0.930 . S
C1406 H1400 0.930 . S
C1406 C1407 1.355 . S
C1406 C1408 1.415 . S
C1407 C1406 1.355 . S
C1407 C1409 1.419 . S
C1408 C1406 1.415 . S
C1408 C1413 1.425 . S
C1408 C1415 1.409 . S
C1409 H1401 0.930 . S
C1409 C1407 1.419 . S
C1409 C1410 1.362 . S
C1410 H1402 0.930 . S
C1410 C1409 1.362 . S
C1410 C1413 1.409 . S
C1411 H1403 0.930 . S
C1411 C1412 1.355 . S
C1411 C1413 1.415 . S
C1412 C1411 1.355 . S
C1412 C1414 1.419 . S
C1413 C1408 1.425 . S
C1413 C1410 1.409 . S
C1413 C1411 1.415 . S
C1414 H1404 0.930 . S
C1414 C1412 1.419 . S
C1414 C1415 1.362 . S
C1415 H1405 0.930 . S
C1415 C1408 1.409 . S
C1415 C1414 1.362 . S
H1416 C1422 0.930 . S
H1417 C1425 0.930 . S
H1418 C1426 0.930 . S
H1419 C1427 0.930 . S
H1420 C1430 0.930 . S
H1421 C1431 0.930 . S
C1422 H1416 0.930 . S
C1422 C1423 1.355 . S
C1422 C1424 1.415 . S
C1423 C1422 1.355 . S
C1423 C1425 1.419 . S
C1424 C1422 1.415 . S
C1424 C1429 1.425 . S
C1424 C1431 1.409 . S
C1425 H1417 0.930 . S
C1425 C1423 1.419 . S
C1425 C1426 1.362 . S
C1426 H1418 0.930 . S
C1426 C1425 1.362 . S
C1426 C1429 1.409 . S
C1427 H1419 0.930 . S
C1427 C1428 1.355 . S
C1427 C1429 1.415 . S
C1428 C1427 1.355 . S
C1428 C1430 1.419 . S
C1429 C1424 1.425 . S
C1429 C1426 1.409 . S
C1429 C1427 1.415 . S
C1430 H1420 0.930 . S
C1430 C1428 1.419 . S
C1430 C1431 1.362 . S
C1431 H1421 0.930 . S
C1431 C1424 1.409 . S
C1431 C1430 1.362 . S
H1432 C1438 0.930 . S
H1433 C1441 0.930 . S
H1434 C1442 0.930 . S
H1435 C1443 0.930 . S
H1436 C1446 0.930 . S
H1437 C1447 0.930 . S
C1438 H1432 0.930 . S
C1438 C1439 1.355 . S
C1438 C1440 1.415 . S
C1439 C1438 1.355 . S
C1439 C1441 1.419 . S
C1440 C1438 1.415 . S
C1440 C1445 1.425 . S
C1440 C1447 1.409 . S
C1441 H1433 0.930 . S
C1441 C1439 1.419 . S
C1441 C1442 1.362 . S
C1442 H1434 0.930 . S
C1442 C1441 1.362 . S
C1442 C1445 1.409 . S
C1443 H1435 0.930 . S
C1443 C1444 1.355 . S
C1443 C1445 1.415 . S
C1444 C1443 1.355 . S
C1444 C1446 1.419 . S
C1445 C1440 1.425 . S
C1445 C1442 1.409 . S
C1445 C1443 1.415 . S
C1446 H1436 0.930 . S
C1446 C1444 1.419 . S
C1446 C1447 1.362 . S
C1447 H1437 0.930 . S
C1447 C1440 1.409 . S
C1447 C1446 1.362 . S
C692 C520 1.430 . S
C687 C177 1.468 . S
C708 C533 1.503 . S
C703 C209 1.436 . S
C719 C253 1.545 . S
C724 C553 1.467 . S
C740 C567 1.369 . S
C735 C157 1.422 1_655 S
C756 C579 1.510 . S
C751 C343 1.480 . S
C772 C593 1.419 . S
C767 C401 1.365 . S
C783 C369 1.493 . S
C788 C603 1.497 . S
C804 C618 1.481 . S
C799 C317 1.496 . S
C815 C375 1.492 . S
C820 C632 1.471 . S
C836 C651 1.366 . S
C831 C305 1.455 . S
C847 C349 1.455 . S
C852 C631 1.500 . S
C868 C649 1.435 . S
C863 C413 1.430 . S
C879 C241 1.533 . S
C884 C665 1.449 . S
C895 C151 1.442 . S
C900 C659 1.461 . S
C911 C189 1.461 . S
C916 C663 1.511 . S
C927 C215 1.489 . S
C932 C660 1.479 . S
C943 C113 1.489 . S
C948 C562 1.480 . S
C959 C471 1.414 . S
C964 C561 1.448 . S
C980 C525 1.338 . S
C975 C509 1.437 1_565 S
C996 C539 1.463 . S
C991 C279 1.538 . S
C1007 C145 1.470 1_545 S
C1012 C576 1.488 . S
C1028 C621 1.532 . S
C1023 C381 1.502 . S
C1044 C575 1.492 . S
C1039 C311 1.481 . S
C1060 C607 1.419 . S
C1055 C407 1.361 . S
C1076 C604 1.447 . S
C1071 C465 1.464 . S
C1087 C497 1.438 . S
C1092 C617 1.505 . S
C1103 C285 1.502 . S
C1108 C581 1.437 . S
C1124 C595 1.426 . S
C1119 C445 1.463 . S
C1135 C119 1.469 . S
C1140 C551 1.503 . S
C1156 C565 1.418 . S
C1151 C17 1.364 . S
C1172 C519 1.492 . S
C1167 C49 1.499 . S
C1188 C534 1.468 . S
C1183 C93 1.475 . S
C1199 C55 1.488 . S
C1204 C646 1.499 . S
C1215 C81 1.467 1_556 S
C1220 C637 1.369 . S
C1231 C125 1.496 . S
C1236 C645 1.507 . S
C1247 C29 1.382 1_556 S
C1252 C635 1.426 . S
C1268 C679 1.532 . S
C1263 C273 1.550 . S
C1284 C673 1.463 . S
C1279 C439 1.466 . S
C1300 C677 1.515 . S
C1295 C477 1.454 . S
C1311 C503 1.472 . S
C1316 C674 1.475 . S
C1327 C337 1.474 . S
C1332 C590 1.464 . S
C1348 C589 1.475 . S
C1343 C183 1.464 . S
C1364 C609 1.337 . S
C1359 C221 1.434 . S
C1380 C623 1.520 . S
C1375 C247 1.545 . S
C1391 C433 1.494 . S
C1396 C548 1.433 . S
C1412 C537 1.551 . S
C1407 C61 1.541 . S
C1423 C87 1.474 . S
C1428 C547 1.496 . S
C1444 C523 1.416 . S
C1439 C23 1.419 . S
