# Generated by pormake.
# Topology pyr, (3,6)-cn, num edge types: 1
# Building blocks:
#     Node 0, Type 0, BuildingBlock: PAMTOO_clean_linker_0, # of connection points: 3
#     Node 1, Type 0, BuildingBlock: PAMTOO_clean_linker_0, # of connection points: 3
#     Node 2, Type 0, BuildingBlock: PAMTOO_clean_linker_0, # of connection points: 3
#     Node 3, Type 0, BuildingBlock: PAMTOO_clean_linker_0, # of connection points: 3
#     Node 4, Type 0, BuildingBlock: PAMTOO_clean_linker_0, # of connection points: 3
#     Node 5, Type 0, BuildingBlock: PAMTOO_clean_linker_0, # of connection points: 3
#     Node 6, Type 0, BuildingBlock: PAMTOO_clean_linker_0, # of connection points: 3
#     Node 7, Type 0, BuildingBlock: PAMTOO_clean_linker_0, # of connection points: 3
#     Node 8, Type 1, BuildingBlock: BETFAJ_clean_sbu_0, # of connection points: 6
#     Node 9, Type 1, BuildingBlock: BETFAJ_clean_sbu_0, # of connection points: 6
#     Node 10, Type 1, BuildingBlock: BETFAJ_clean_sbu_0, # of connection points: 6
#     Node 11, Type 1, BuildingBlock: BETFAJ_clean_sbu_0, # of connection points: 6
#     Edge 12, Type (0, 1), BuildingBlock: OJICUG_clean_linker_0, # of connection points: 2
#     Edge 13, Type (0, 1), BuildingBlock: OJICUG_clean_linker_0, # of connection points: 2
#     Edge 14, Type (0, 1), BuildingBlock: OJICUG_clean_linker_0, # of connection points: 2
#     Edge 15, Type (0, 1), BuildingBlock: OJICUG_clean_linker_0, # of connection points: 2
#     Edge 16, Type (0, 1), BuildingBlock: OJICUG_clean_linker_0, # of connection points: 2
#     Edge 17, Type (0, 1), BuildingBlock: OJICUG_clean_linker_0, # of connection points: 2
#     Edge 18, Type (0, 1), BuildingBlock: OJICUG_clean_linker_0, # of connection points: 2
#     Edge 19, Type (0, 1), BuildingBlock: OJICUG_clean_linker_0, # of connection points: 2
#     Edge 20, Type (0, 1), BuildingBlock: OJICUG_clean_linker_0, # of connection points: 2
#     Edge 21, Type (0, 1), BuildingBlock: OJICUG_clean_linker_0, # of connection points: 2
#     Edge 22, Type (0, 1), BuildingBlock: OJICUG_clean_linker_0, # of connection points: 2
#     Edge 23, Type (0, 1), BuildingBlock: OJICUG_clean_linker_0, # of connection points: 2
#     Edge 24, Type (0, 1), BuildingBlock: OJICUG_clean_linker_0, # of connection points: 2
#     Edge 25, Type (0, 1), BuildingBlock: OJICUG_clean_linker_0, # of connection points: 2
#     Edge 26, Type (0, 1), BuildingBlock: OJICUG_clean_linker_0, # of connection points: 2
#     Edge 27, Type (0, 1), BuildingBlock: OJICUG_clean_linker_0, # of connection points: 2
#     Edge 28, Type (0, 1), BuildingBlock: OJICUG_clean_linker_0, # of connection points: 2
#     Edge 29, Type (0, 1), BuildingBlock: OJICUG_clean_linker_0, # of connection points: 2
#     Edge 30, Type (0, 1), BuildingBlock: OJICUG_clean_linker_0, # of connection points: 2
#     Edge 31, Type (0, 1), BuildingBlock: OJICUG_clean_linker_0, # of connection points: 2
#     Edge 32, Type (0, 1), BuildingBlock: OJICUG_clean_linker_0, # of connection points: 2
#     Edge 33, Type (0, 1), BuildingBlock: OJICUG_clean_linker_0, # of connection points: 2
#     Edge 34, Type (0, 1), BuildingBlock: OJICUG_clean_linker_0, # of connection points: 2
#     Edge 35, Type (0, 1), BuildingBlock: OJICUG_clean_linker_0, # of connection points: 2
# Relax obj value: 0.261
# Max RMSD: 0.243
# Mean RMSD: 0.154
data_MOF--net-pyr--node1-BETFAJ_clean_sbu_0--node2-PAMTOO_clean_linker_0--edge1-OJICUG_clean_linker_0
_symmetry_space_group_name_H-M    P1
_symmetry_Int_Tables_number       1
_symmetry_cell_setting            triclinic
loop_
_symmetry_equiv_pos_as_xyz
'x, y, z'
_cell_length_a     27.848802
_cell_length_b     29.117679
_cell_length_c     25.801158
_cell_angle_alpha  92.896395
_cell_angle_beta   89.644534
_cell_angle_gamma 109.16268
loop_
_atom_site_label
_atom_site_type_symbol
_atom_site_fract_x
_atom_site_fract_y
_atom_site_fract_z
_atom_type_partial_charge
H0 H 0.35308 0.39594 0.30605 0.0
H1 H 0.42581 0.29072 0.26326 0.0
H2 H 0.46033 0.42217 0.1814 0.0
H3 H 0.53658 0.35461 0.24121 0.0
C4 C 0.52492 0.33806 0.2014 0.0
O5 O 0.47777 0.33987 0.18797 0.0
H6 H 0.55334 0.35944 0.17387 0.0
C7 C 0.38195 0.38617 0.2841 0.0
C8 C 0.40695 0.41545 0.24408 0.0
C9 C 0.38827 0.34113 0.29147 0.0
C10 C 0.42152 0.32605 0.25931 0.0
C11 C 0.44859 0.35612 0.22093 0.0
C12 C 0.44156 0.40077 0.21336 0.0
H13 H 0.30544 0.99757 0.70969 0.0
H14 H 0.3439 1.02961 0.55058 0.0
H15 H 0.39996 0.92925 0.6271 0.0
H16 H 0.46795 1.02478 0.55398 0.0
C17 C 0.45076 0.98863 0.53312 0.0
O18 O 0.39864 0.97194 0.53964 0.0
H19 H 0.45891 0.99358 0.49122 0.0
C20 C 0.32424 0.99182 0.67421 0.0
C21 C 0.35331 0.96063 0.67351 0.0
C22 C 0.31996 1.01653 0.63007 0.0
C23 C 0.34707 1.0113 0.58527 0.0
C24 C 0.37577 0.97969 0.58404 0.0
C25 C 0.3782 0.95394 0.62795 0.0
H26 H 0.76747 0.37233 1.01354 0.0
H27 H 0.65507 0.36084 0.89516 0.0
H28 H 0.78478 0.49042 0.91284 0.0
H29 H 0.68414 0.50294 0.90046 0.0
C30 C 0.6698 0.47648 0.86683 0.0
O31 O 0.70101 0.44807 0.85989 0.0
H32 H 0.6308 0.45267 0.87599 0.0
C33 C 0.75429 0.3875 0.9812 0.0
C34 C 0.78232 0.43475 0.96659 0.0
C35 C 0.70841 0.36011 0.9559 0.0
C36 C 0.69015 0.38119 0.91541 0.0
C37 C 0.7176 0.42837 0.90015 0.0
C38 C 0.76353 0.45464 0.92567 0.0
H39 H 0.88378 0.81286 0.53256 0.0
H40 H 0.87942 0.70042 0.41609 0.0
H41 H 1.00308 0.8364 0.41988 0.0
H42 H 0.97073 0.78806 0.30931 0.0
C43 C 0.95489 0.74984 0.32116 0.0
O44 O 0.96591 0.74835 0.37325 0.0
H45 H 0.91297 0.73789 0.31501 0.0
C46 C 0.90059 0.8 0.49923 0.0
C47 C 0.94634 0.83065 0.4794 0.0
C48 C 0.87587 0.75321 0.47673 0.0
C49 C 0.89738 0.73683 0.4331 0.0
C50 C 0.94325 0.76664 0.41238 0.0
C51 C 0.96731 0.81382 0.43525 0.0
H52 H 0.76531 0.91901 0.91341 0.0
H53 H 0.64345 0.82777 1.00401 0.0
H54 H 0.7839 0.79811 0.98756 0.0
H55 H 0.66587 0.71314 0.96688 0.0
C56 C 0.6819 0.71915 1.00706 0.0
O57 O 0.69132 0.76696 1.02493 0.0
H58 H 0.65292 0.69497 1.03216 0.0
C59 C 0.74924 0.88748 0.93636 0.0
C60 C 0.77907 0.85865 0.94695 0.0
C61 C 0.70119 0.87868 0.95886 0.0
C62 C 0.68024 0.83569 0.98584 0.0
C63 C 0.70933 0.80537 0.99454 0.0
C64 C 0.75947 0.81835 0.97689 0.0
H65 H 0.84273 0.16654 0.51786 0.0
H66 H 0.73498 0.23971 0.55598 0.0
H67 H 0.79692 0.17828 0.67615 0.0
H68 H 0.67419 0.19907 0.70295 0.0
C69 C 0.68264 0.20612 0.6614 0.0
O70 O 0.73464 0.22579 0.65564 0.0
H71 H 0.66678 0.17052 0.63911 0.0
C72 C 0.82032 0.17899 0.54633 0.0
C73 C 0.8247 0.17051 0.59879 0.0
C74 C 0.78766 0.20337 0.53029 0.0
C75 C 0.75894 0.21926 0.56753 0.0
C76 C 0.76115 0.20891 0.6198 0.0
C77 C 0.79369 0.18416 0.63537 0.0
H78 H 0.38979 0.8317 0.18294 0.0
H79 H 0.37407 0.71462 0.28442 0.0
H80 H 0.50643 0.84247 0.29636 0.0
H81 H 0.52974 0.75298 0.31134 0.0
C82 C 0.49269 0.72925 0.32587 0.0
O83 O 0.46059 0.75665 0.33415 0.0
H84 H 0.47562 0.70008 0.29535 0.0
C85 C 0.40432 0.81628 0.21411 0.0
C86 C 0.45162 0.84319 0.23726 0.0
C87 C 0.37557 0.76981 0.23031 0.0
C88 C 0.39542 0.75 0.27068 0.0
C89 C 0.44252 0.77605 0.29456 0.0
C90 C 0.47013 0.82273 0.27802 0.0
H91 H 0.13039 0.40507 0.85843 0.0
H92 H 0.25967 0.53617 0.84249 0.0
H93 H 0.24327 0.41158 0.74137 0.0
H94 H 0.34399 0.46221 0.78149 0.0
C95 C 0.34537 0.5004 0.77668 0.0
O96 O 0.29776 0.50148 0.76361 0.0
H97 H 0.35746 0.52121 0.81439 0.0
C98 C 0.16571 0.42503 0.84024 0.0
C99 C 0.18448 0.40189 0.79886 0.0
C100 C 0.19165 0.47463 0.85609 0.0
C101 C 0.23748 0.49909 0.8307 0.0
C102 C 0.25547 0.4765 0.78941 0.0
C103 C 0.22892 0.42842 0.77363 0.0
Sm104 Sm 0.0886 0.13852 0.59338 0.0
Sm105 Sm 0.07358 1.08853 0.69636 0.0
C106 C 0.08953 0.17504 0.50174 0.0
C107 C 0.13019 0.19043 0.46356 0.0
C108 C 0.14104 0.23638 0.44326 0.0
C109 C 0.18569 0.25633 0.41583 0.0
C110 C 0.21986 0.23038 0.40792 0.0
C111 C 0.20769 0.18322 0.42558 0.0
C112 C 0.1633 0.16349 0.45377 0.0
C113 C 0.1721 0.11617 0.62669 0.0
C114 C 0.11483 0.20808 0.698 0.0
C115 C 0.08265 1.05164 0.78591 0.0
C116 C 0.05268 1.00802 0.81161 0.0
C117 C 0.05738 1.00605 0.86532 0.0
C118 C 1.02055 0.971 0.89212 0.0
C119 C 0.97847 0.93794 0.86538 0.0
C120 C 0.97684 0.93704 0.8109 0.0
C121 C 1.01367 0.97207 0.78416 0.0
C122 C 0.98861 0.1048 0.65994 0.0
C123 C 0.03216 1.01916 0.59228 0.0
O124 O 0.09822 0.20163 0.54513 0.0
O125 O 0.07059 0.12839 0.50889 0.0
O126 O 0.12631 1.09095 0.62998 0.0
O127 O 0.17595 0.15459 0.60154 0.0
O128 O 0.09531 0.20342 0.65077 0.0
O129 O 0.11987 0.16968 0.71993 0.0
O130 O 0.10658 1.04468 0.74407 0.0
O131 O 0.05949 1.08363 0.78071 0.0
O132 O 0.03352 0.13318 0.65799 0.0
O133 O 0.98602 1.06719 0.68637 0.0
O134 O 0.04752 1.02017 0.64092 0.0
O135 O 0.03672 1.05989 0.56889 0.0
H136 H 0.11627 0.25785 0.4509 0.0
H137 H 0.19423 0.29261 0.40189 0.0
H138 H 0.23364 0.16272 0.41978 0.0
H139 H 0.15612 0.12823 0.46986 0.0
H140 H 0.08738 1.03366 0.88693 0.0
H141 H 1.02282 0.97214 0.9341 0.0
H142 H 0.94464 0.91235 0.78931 0.0
H143 H 1.00949 0.97337 0.74257 0.0
Sm144 Sm 0.63587 0.10983 0.11209 0.0
Sm145 Sm 0.53525 1.07757 1.05821 0.0
C146 C 0.72854 0.14818 0.15116 0.0
C147 C 0.74544 0.1703 0.20316 0.0
C148 C 0.71837 0.19701 0.22996 0.0
C149 C 0.72906 0.21158 0.28209 0.0
C150 C 0.76673 0.19937 0.30855 0.0
C151 C 0.79541 0.17461 0.28095 0.0
C152 C 0.78476 0.16014 0.22863 0.0
C153 C 0.56301 1.03299 0.15762 0.0
C154 C 0.55168 0.15433 0.1553 0.0
C155 C 0.44581 1.03382 1.01318 0.0
C156 C 0.42095 0.99239 0.97733 0.0
C157 C 0.37317 0.98836 0.95729 0.0
C158 C 0.3559 0.96148 0.91091 0.0
C159 C 0.38642 0.93836 0.88379 0.0
C160 C 0.43123 0.93722 0.90787 0.0
C161 C 0.4486 0.96442 0.95429 0.0
C162 C 0.59591 0.16965 1.03273 0.0
C163 C 0.62182 1.03246 1.01401 0.0
O164 O 0.70731 0.17212 0.12244 0.0
O165 O 0.70399 0.10133 0.14942 0.0
O166 O 0.57113 1.03806 0.10996 0.0
O167 O 0.59401 1.06981 0.184 0.0
O168 O 0.6004 0.164 0.14671 0.0
O169 O 0.51773 0.11528 0.13327 0.0
O170 O 0.45627 1.02504 1.06037 0.0
O171 O 0.48239 1.06843 0.99257 0.0
O172 O 0.61142 0.1336 1.03696 0.0
O173 O 0.54761 0.15723 1.04115 0.0
O174 O 0.57332 1.02874 1.01268 0.0
O175 O 0.65459 1.06463 1.04531 0.0
H176 H 0.68758 0.20506 0.21121 0.0
H177 H 0.70676 0.2311 0.30211 0.0
H178 H 0.82426 0.16412 0.30042 0.0
H179 H 0.80567 0.13916 0.20872 0.0
H180 H 0.35148 1.00989 0.97462 0.0
H181 H 0.32133 0.96358 0.8938 0.0
H182 H 0.45506 0.91891 0.88863 0.0
H183 H 0.48557 0.96701 0.96956 0.0
Sm184 Sm 0.58803 0.56683 0.56518 0.0
Sm185 Sm 0.59923 0.65739 0.6293 0.0
C186 C 0.60182 0.48851 0.5203 0.0
C187 C 0.6109 0.44547 0.54044 0.0
C188 C 0.65027 0.45079 0.57641 0.0
C189 C 0.657 0.41002 0.59725 0.0
C190 C 0.62438 0.36291 0.58291 0.0
C191 C 0.58516 0.35761 0.54661 0.0
C192 C 0.57854 0.39854 0.52558 0.0
C193 C 0.50285 0.56404 0.62243 0.0
C194 C 0.63181 0.57548 0.68677 0.0
C195 C 0.58225 0.73388 0.67577 0.0
C196 C 0.56287 0.77129 0.65644 0.0
C197 C 0.53244 0.76108 0.61156 0.0
C198 C 0.5169 0.79696 0.59034 0.0
C199 C 0.52929 0.84375 0.61484 0.0
C200 C 0.55874 0.85352 0.66098 0.0
C201 C 0.57589 0.81775 0.68119 0.0
C202 C 0.68736 0.6594 0.58017 0.0
C203 C 0.55492 0.64632 0.50665 0.0
O204 O 0.63839 0.53025 0.52737 0.0
O205 O 0.55677 0.49193 0.52877 0.0
O206 O 0.54831 0.58113 0.63759 0.0
O207 O 0.5005 0.54592 0.5751 0.0
O208 O 0.62821 0.55413 0.63971 0.0
O209 O 0.61841 0.61484 0.69491 0.0
O210 O 0.54958 0.68971 0.67516 0.0
O211 O 0.62694 0.73493 0.65887 0.0
O212 O 0.64349 0.64364 0.55905 0.0
O213 O 0.68507 0.67459 0.62807 0.0
O214 O 0.55893 0.66808 0.5535 0.0
O215 O 0.56869 0.60738 0.49873 0.0
H216 H 0.67582 0.48649 0.58884 0.0
H217 H 0.68824 0.41551 0.62425 0.0
H218 H 0.55912 0.32191 0.535 0.0
H219 H 0.54773 0.39358 0.49814 0.0
H220 H 0.52061 0.72527 0.59252 0.0
H221 H 0.49552 0.78765 0.55427 0.0
H222 H 0.56829 0.88854 0.68192 0.0
H223 H 0.59913 0.82632 0.71616 0.0
Sm224 Sm 0.07798 0.56493 0.13036 0.0
Sm225 Sm 0.07439 0.6459 1.07025 0.0
C226 C 0.1082 0.49998 0.17583 0.0
C227 C 0.15984 0.49856 0.18358 0.0
C228 C 0.19743 0.51643 0.14619 0.0
C229 C 0.24698 0.51665 0.15443 0.0
C230 C 0.25986 0.49947 0.20041 0.0
C231 C 0.22238 0.48273 0.23828 0.0
C232 C 0.17277 0.4823 0.22989 0.0
C233 C 0.03017 0.62314 0.18258 0.0
C234 C 0.17885 0.66394 0.1315 0.0
C235 C 0.04042 0.71083 1.02897 0.0
C236 C 0.98778 0.71151 1.02653 0.0
C237 C 0.95265 0.68818 1.06404 0.0
C238 C 0.90176 0.68526 1.0602 0.0
C239 C 0.88476 0.70589 1.01891 0.0
C240 C 0.92017 0.72955 0.9815 0.0
C241 C 0.97122 0.73215 0.98521 0.0
C242 C 0.1221 0.5885 1.01642 0.0
C243 C 0.97508 0.54491 1.06811 0.0
O244 O 0.09164 0.49401 0.12785 0.0
O245 O 0.09787 0.53519 0.20175 0.0
O246 O 0.07043 0.63788 0.1566 0.0
O247 O 1.01375 0.57587 0.18212 0.0
O248 O 0.16183 0.61605 0.13279 0.0
O249 O 0.14989 0.68717 0.11264 0.0
O250 O 0.06091 0.71706 1.07534 0.0
O251 O 0.04912 0.67557 1.00145 0.0
O252 O 0.08241 0.57275 1.0434 0.0
O253 O 0.13689 0.6358 1.01647 0.0
O254 O 0.99111 0.59284 1.06725 0.0
O255 O 1.00453 0.52234 0.08679 0.0
H256 H 0.1885 0.53014 0.1105 0.0
H257 H 0.2751 0.5298 0.1247 0.0
H258 H 0.23096 0.46836 0.27369 0.0
H259 H 0.14443 0.46902 0.25941 0.0
H260 H 0.96438 0.67154 0.0961 0.0
H261 H 0.87559 0.66616 0.08928 0.0
H262 H 0.90861 0.74654 0.94964 0.0
H263 H 0.99765 0.74999 0.95569 0.0
C264 C 0.32493 0.26021 0.30966 0.0
C265 C 0.35367 0.3078 0.3272 0.0
H266 H 0.25925 0.19794 0.32208 0.0
C267 C 0.34246 0.32626 0.37542 0.0
H268 H 0.33252 0.24523 0.27243 0.0
C269 C 0.30022 0.29971 0.40302 0.0
C270 C 0.26898 0.25399 0.38325 0.0
H271 H 0.36447 0.36257 0.39012 0.0
H272 H 0.29059 0.31581 0.43869 0.0
C273 C 0.28285 0.23333 0.33772 0.0
C274 C 0.41055 0.94795 0.74089 0.0
C275 C 0.36103 0.93921 0.7222 0.0
H276 H 0.45763 0.95426 0.80733 0.0
C277 C 0.31967 0.91796 0.75439 0.0
H278 H 0.44307 0.9642 0.71672 0.0
C279 C 0.32787 0.91122 0.80638 0.0
C280 C 0.37753 0.92665 0.82715 0.0
H281 H 0.28105 0.91 0.74038 0.0
H282 H 0.29526 0.89801 0.83126 0.0
C283 C 0.41879 0.9419 0.79301 0.0
C284 C 0.66037 0.48121 0.76872 0.0
C285 C 0.66666 0.50396 0.81879 0.0
H286 H 0.64535 0.48589 0.68802 0.0
C287 C 0.66329 0.55119 0.82456 0.0
H288 H 0.66148 0.44446 0.76298 0.0
C289 C 0.65356 0.57488 0.78172 0.0
C290 C 0.64664 0.55201 0.73168 0.0
H291 H 0.66687 0.56945 0.86268 0.0
H292 H 0.65037 0.61081 0.78813 0.0
C293 C 0.65095 0.50505 0.72571 0.0
C294 C 0.95268 0.66592 0.28544 0.0
C295 C 0.97622 0.71676 0.28735 0.0
H296 H 0.95075 0.59662 0.25071 0.0
C297 C 1.01803 0.73641 0.25492 0.0
H298 H 0.92031 0.64974 0.30979 0.0
C299 C 0.03531 0.70611 0.22088 0.0
C300 C 1.01138 0.65529 0.21847 0.0
H301 H 0.03694 0.77541 0.2553 0.0
H302 H 0.06738 0.72257 0.19626 0.0
C303 C 0.96998 0.63557 0.25139 0.0
C304 C 0.5647 0.27513 0.22159 0.0
C305 C 0.5248 0.28616 0.1982 0.0
H306 H 0.6034 0.22318 0.22787 0.0
C307 C 0.48864 0.24958 0.16774 0.0
H308 H 0.5931 0.30267 0.245 0.0
C309 C 0.49398 0.20381 0.15868 0.0
C310 C 0.53618 0.19427 0.17884 0.0
H311 H 0.45755 0.25687 0.14871 0.0
H312 H 0.46762 0.1776 0.1322 0.0
C313 C 0.57034 0.22959 0.21206 0.0
C314 C 0.23571 1.02395 0.652 0.0
C315 C 0.28397 1.04442 0.63045 0.0
H316 H 0.16328 1.03076 0.66777 0.0
C317 C 0.29652 1.09049 0.60939 0.0
H318 H 0.22447 0.98815 0.66763 0.0
C319 C 0.26103 0.11539 0.60978 0.0
C320 C 0.21257 0.09422 0.63084 0.0
H321 H 0.33358 0.10715 0.5927 0.0
H322 H 0.27101 0.15043 0.59259 0.0
C323 C 0.20058 1.0485 0.65219 0.0
C324 C 0.86468 0.43943 1.01089 0.0
C325 C 0.83117 0.46301 0.99407 0.0
H326 H 0.93563 0.44635 1.04772 0.0
C327 C 0.84484 0.51373 1.00378 0.0
H328 H 0.85609 0.40061 1.0035 0.0
C329 C 0.89093 0.5401 1.02877 0.0
C330 C 0.9245 0.51648 1.0451 0.0
H331 H 0.81983 0.53319 0.99233 0.0
H332 H 0.90034 0.57913 1.03494 0.0
C333 C 0.91054 0.46574 1.03622 0.0
C334 C 0.78346 0.69992 0.47194 0.0
C335 C 0.82856 0.72178 0.50098 0.0
H336 H 0.7027 0.66264 0.47419 0.0
C337 C 0.82734 0.71736 0.55497 0.0
H338 H 0.78333 0.70279 0.43026 0.0
C339 C 0.78172 0.6945 0.57984 0.0
C340 C 0.73594 0.67552 0.5515 0.0
H341 H 0.86158 0.73314 0.57829 0.0
H342 H 0.78206 0.69343 0.62175 0.0
C343 C 0.73739 0.67702 0.49706 0.0
C344 C 0.36706 0.44995 0.17721 0.0
C345 C 0.38657 0.45352 0.22788 0.0
H346 H 0.31078 0.46185 0.12881 0.0
C347 C 0.37315 0.48347 0.2657 0.0
H348 H 0.37654 0.427 0.14729 0.0
C349 C 0.33488 0.50298 0.25528 0.0
C350 C 0.3101 0.49327 0.20673 0.0
H351 H 0.38823 0.48732 0.30489 0.0
H352 H 0.32181 0.52215 0.28641 0.0
C353 C 0.329 0.46969 0.16671 0.0
C354 C 0.6267 0.29584 0.98022 0.0
C355 C 0.67954 0.31014 0.97319 0.0
H356 H 0.5595 0.24108 1.00508 0.0
C357 C 0.70486 0.27713 0.98524 0.0
H358 H 0.60598 0.32034 0.97206 0.0
C359 C 0.67807 0.23128 1.00406 0.0
C360 C 0.62537 0.21751 1.0118 0.0
H361 H 0.74553 0.28675 0.98002 0.0
H362 H 0.69867 0.20688 1.01302 0.0
C363 C 0.60011 0.25039 0.99955 0.0
C364 C 0.97764 0.88227 0.56144 0.0
C365 C 0.97183 0.8791 0.50704 0.0
H366 H 1.00081 0.92811 0.63062 0.0
C367 C 0.98673 0.92258 0.48062 0.0
H368 H 0.96675 0.84952 0.58306 0.0
C369 C 1.00567 0.96805 0.50816 0.0
C370 C 1.0109 0.97111 0.56272 0.0
H371 H 0.98237 0.92149 0.43885 0.0
H372 H 1.01637 1.00081 0.4866 0.0
C373 C 0.99712 0.92746 0.5888 0.0
C374 C 0.51916 0.96627 0.57994 0.0
C375 C 0.47335 0.95168 0.55157 0.0
H376 H 0.57371 0.94415 0.62085 0.0
C377 C 0.44759 0.90183 0.54178 0.0
H378 H 0.54021 1.00457 0.58719 0.0
C379 C 0.46515 0.86724 0.56311 0.0
C380 C 0.51066 0.88136 0.59249 0.0
H381 H 0.4124 0.88956 0.51953 0.0
H382 H 0.442 0.82942 0.55727 0.0
C383 C 0.53788 0.9315 0.59985 0.0
C384 C 0.85205 0.84588 0.89832 0.0
C385 C 0.83281 0.87479 0.93201 0.0
H386 H 0.91464 0.84335 0.85055 0.0
C387 C 0.86428 0.92123 0.94924 0.0
H388 H 0.8282 0.80973 0.88504 0.0
C389 C 0.91337 0.93998 0.93051 0.0
C390 C 0.93176 0.91278 0.89375 0.0
H391 H 0.8501 0.94378 0.97571 0.0
H392 H 0.93558 0.97713 0.94216 0.0
C393 C 0.90125 0.86499 0.87884 0.0
C394 C 0.73459 0.1989 0.45123 0.0
C395 C 0.78284 0.21039 0.47437 0.0
H396 H 0.69168 0.18584 0.38049 0.0
C397 C 0.82614 0.22375 0.44289 0.0
H398 H 0.70057 0.18814 0.47451 0.0
C399 C 0.82113 0.2225 0.38902 0.0
C400 C 0.77273 0.208 0.36561 0.0
H401 H 0.86389 0.2337 0.45986 0.0
H402 H 0.85508 0.2316 0.36561 0.0
C403 C 0.72957 0.19762 0.39734 0.0
C404 C 0.51716 0.73411 0.42218 0.0
C405 C 0.50296 0.70655 0.37499 0.0
H406 H 0.54469 0.7371 0.50028 0.0
C407 C 0.50526 0.65886 0.37203 0.0
H408 H 0.51725 0.77136 0.42546 0.0
C409 C 0.52125 0.63927 0.41474 0.0
C410 C 0.5357 0.66676 0.46193 0.0
H411 H 0.49575 0.63691 0.33603 0.0
H412 H 0.52285 0.60261 0.41047 0.0
C413 C 0.53298 0.71438 0.46512 0.0
C414 C 0.18128 0.55294 0.89402 0.0
C415 C 0.17144 0.50237 0.89724 0.0
H416 H 0.1749 0.61901 0.92866 0.0
C417 C 0.14356 0.47997 0.94038 0.0
H418 H 0.2007 0.57191 0.86097 0.0
C419 C 0.12716 0.50748 0.97911 0.0
C420 C 0.13876 0.55818 0.97612 0.0
H421 H 0.13514 0.44137 0.94483 0.0
H422 H 0.10606 0.48919 1.01177 0.0
C423 C 0.16598 0.58029 0.93296 0.0
C424 C 0.62565 0.90927 0.96483 0.0
C425 C 0.67852 0.91863 0.96219 0.0
H426 H 0.56564 0.9386 0.9823 0.0
C427 C 0.71097 0.96729 0.96847 0.0
H428 H 0.59947 0.87246 0.95963 0.0
C429 C 0.69165 1.00487 0.98021 0.0
C430 C 0.63938 0.9951 0.98693 0.0
H431 H 0.7519 0.9765 0.96804 0.0
H432 H 0.7182 1.04132 0.98752 0.0
C433 C 0.60621 0.94727 0.97704 0.0
C434 C 0.85622 0.11323 0.648 0.0
C435 C 0.86549 0.15202 0.61489 0.0
H436 H 0.88828 1.06667 0.68767 0.0
C437 C 0.91478 0.1738 0.59622 0.0
H438 H 0.81841 0.09582 0.66269 0.0
C439 C 0.95415 0.15745 0.61035 0.0
C440 C 0.94521 0.11881 0.6434 0.0
H441 H 0.9231 0.20413 0.57111 0.0
H442 H 0.99184 0.1754 0.5956 0.0
C443 C 0.8959 0.0964 0.66187 0.0
C444 C 0.30936 0.69161 0.1954 0.0
C445 C 0.32511 0.7425 0.20466 0.0
H446 H 0.25182 0.62728 0.16483 0.0
C447 C 0.29247 0.76729 0.18821 0.0
H448 H 0.33342 0.6711 0.20663 0.0
C449 C 0.24586 0.74216 0.1633 0.0
C450 C 0.23009 0.69133 0.15441 0.0
H451 H 0.30243 0.80627 0.19534 0.0
H452 H 0.22172 0.76256 0.15197 0.0
C453 C 0.26257 0.66644 0.17081 0.0
C454 C 0.43053 0.55619 0.74803 0.0
C455 C 0.38334 0.52129 0.73477 0.0
H456 H 0.50481 0.59732 0.72274 0.0
C457 C 0.37431 0.50277 0.68299 0.0
H458 H 0.43878 0.57073 0.78767 0.0
C459 C 0.41222 0.5182 0.64549 0.0
C460 C 0.46001 0.55193 0.65934 0.0
H461 H 0.33846 0.47532 0.67196 0.0
H462 H 0.4048 0.50238 0.60625 0.0
C463 C 0.46835 0.57137 0.71078 0.0
C464 C 0.75508 0.71148 1.05841 0.0
C465 C 0.73047 0.70704 1.01023 0.0
H466 H 0.82326 0.71595 0.09886 0.0
C467 C 0.75532 0.69856 0.965 0.0
H468 H 0.73685 0.71863 0.09368 0.0
C469 C 0.80495 0.69697 0.9678 0.0
C470 C 0.83064 0.7038 1.01588 0.0
H471 H 0.73726 0.69542 0.92733 0.0
H472 H 0.82348 0.69124 0.93221 0.0
C473 C 0.80463 0.71004 1.06123 0.0
C474 C 0.50734 0.93187 0.25175 0.0
C475 C 0.48125 0.89217 0.21769 0.0
H476 H 0.55303 1.00763 0.25987 0.0
C477 C 0.48242 0.89989 0.16415 0.0
H478 H 0.50702 0.92759 0.2932 0.0
C479 C 0.50815 0.94565 0.14527 0.0
C480 C 0.53397 0.98531 0.17918 0.0
H481 H 0.46377 0.87028 0.13643 0.0
H482 H 0.50817 0.94981 0.10377 0.0
C483 C 0.53332 0.97791 0.23271 0.0
C484 C 0.13747 0.34322 0.72784 0.0
C485 C 0.15809 0.35098 0.77834 0.0
H486 H 0.10799 0.29294 0.66332 0.0
C487 C 0.1626 0.31084 0.80357 0.0
H488 H 0.13457 0.37361 0.70701 0.0
C489 C 0.14804 0.2642 0.77813 0.0
C490 C 0.12885 0.25679 0.7268 0.0
H491 H 0.17959 0.31598 0.84199 0.0
H492 H 0.15297 0.23426 0.79822 0.0
C493 C 0.12285 0.2969 0.70258 0.0
C494 C 0.64061 0.23915 0.59274 0.0
C495 C 0.65886 0.24226 0.64383 0.0
H496 H 0.61608 0.27508 0.53307 0.0
C497 C 0.66164 0.28332 0.67604 0.0
H498 H 0.63874 0.20801 0.56701 0.0
C499 C 0.64818 0.3215 0.65695 0.0
C500 C 0.63245 0.31973 0.60493 0.0
H501 H 0.67601 0.28661 0.71546 0.0
H502 H 0.65137 0.35298 0.68264 0.0
C503 C 0.62758 0.27754 0.57341 0.0
loop_
_geom_bond_atom_site_label_1
_geom_bond_atom_site_label_2
_geom_bond_distance
_geom_bond_site_symmetry_2
_ccdc_geom_bond_type
H0 C7 0.929 . S
H1 C10 0.930 . S
H2 C12 0.929 . S
H3 C4 0.969 . S
C4 H3 0.969 . S
C4 O5 1.550 . S
C4 H6 0.973 . S
O5 C4 1.550 . S
O5 C11 1.412 . S
H6 C4 0.973 . S
C7 H0 0.929 . S
C7 C8 1.400 . S
C7 C9 1.364 . S
C8 C7 1.400 . S
C8 C12 1.377 . S
C9 C7 1.364 . S
C9 C10 1.374 . S
C10 H1 0.930 . S
C10 C9 1.374 . S
C10 C11 1.383 . S
C11 O5 1.412 . S
C11 C10 1.383 . S
C11 C12 1.394 . S
C12 H2 0.929 . S
C12 C8 1.377 . S
C12 C11 1.394 . S
H13 C20 0.929 . S
H14 C23 0.930 . S
H15 C25 0.929 . S
H16 C17 0.969 . S
C17 H16 0.969 . S
C17 O18 1.550 . S
C17 H19 0.973 . S
O18 C17 1.550 . S
O18 C24 1.412 . S
H19 C17 0.973 . S
C20 H13 0.929 . S
C20 C21 1.400 . S
C20 C22 1.364 . S
C21 C20 1.400 . S
C21 C25 1.377 . S
C22 C20 1.364 . S
C22 C23 1.374 . S
C23 H14 0.930 . S
C23 C22 1.374 . S
C23 C24 1.383 . S
C24 O18 1.412 . S
C24 C23 1.383 . S
C24 C25 1.394 . S
C25 H15 0.929 . S
C25 C21 1.377 . S
C25 C24 1.394 . S
H26 C33 0.929 . S
H27 C36 0.930 . S
H28 C38 0.929 . S
H29 C30 0.969 . S
C30 H29 0.969 . S
C30 O31 1.550 . S
C30 H32 0.973 . S
O31 C30 1.550 . S
O31 C37 1.412 . S
H32 C30 0.973 . S
C33 H26 0.929 . S
C33 C34 1.400 . S
C33 C35 1.364 . S
C34 C33 1.400 . S
C34 C38 1.377 . S
C35 C33 1.364 . S
C35 C36 1.374 . S
C36 H27 0.930 . S
C36 C35 1.374 . S
C36 C37 1.383 . S
C37 O31 1.412 . S
C37 C36 1.383 . S
C37 C38 1.394 . S
C38 H28 0.929 . S
C38 C34 1.377 . S
C38 C37 1.394 . S
H39 C46 0.929 . S
H40 C49 0.930 . S
H41 C51 0.929 . S
H42 C43 0.969 . S
C43 H42 0.969 . S
C43 O44 1.550 . S
C43 H45 0.973 . S
O44 C43 1.550 . S
O44 C50 1.412 . S
H45 C43 0.973 . S
C46 H39 0.929 . S
C46 C47 1.400 . S
C46 C48 1.364 . S
C47 C46 1.400 . S
C47 C51 1.377 . S
C48 C46 1.364 . S
C48 C49 1.374 . S
C49 H40 0.930 . S
C49 C48 1.374 . S
C49 C50 1.383 . S
C50 O44 1.412 . S
C50 C49 1.383 . S
C50 C51 1.394 . S
C51 H41 0.929 . S
C51 C47 1.377 . S
C51 C50 1.394 . S
H52 C59 0.929 . S
H53 C62 0.930 . S
H54 C64 0.929 . S
H55 C56 0.969 . S
C56 H55 0.969 . S
C56 O57 1.550 . S
C56 H58 0.973 . S
O57 C56 1.550 . S
O57 C63 1.412 . S
H58 C56 0.973 . S
C59 H52 0.929 . S
C59 C60 1.400 . S
C59 C61 1.364 . S
C60 C59 1.400 . S
C60 C64 1.377 . S
C61 C59 1.364 . S
C61 C62 1.374 . S
C62 H53 0.930 . S
C62 C61 1.374 . S
C62 C63 1.383 . S
C63 O57 1.412 . S
C63 C62 1.383 . S
C63 C64 1.394 . S
C64 H54 0.929 . S
C64 C60 1.377 . S
C64 C63 1.394 . S
H65 C72 0.929 . S
H66 C75 0.930 . S
H67 C77 0.929 . S
H68 C69 0.969 . S
C69 H68 0.969 . S
C69 O70 1.550 . S
C69 H71 0.973 . S
O70 C69 1.550 . S
O70 C76 1.412 . S
H71 C69 0.973 . S
C72 H65 0.929 . S
C72 C73 1.400 . S
C72 C74 1.364 . S
C73 C72 1.400 . S
C73 C77 1.377 . S
C74 C72 1.364 . S
C74 C75 1.374 . S
C75 H66 0.930 . S
C75 C74 1.374 . S
C75 C76 1.383 . S
C76 O70 1.412 . S
C76 C75 1.383 . S
C76 C77 1.394 . S
C77 H67 0.929 . S
C77 C73 1.377 . S
C77 C76 1.394 . S
H78 C85 0.929 . S
H79 C88 0.930 . S
H80 C90 0.929 . S
H81 C82 0.969 . S
C82 H81 0.969 . S
C82 O83 1.550 . S
C82 H84 0.973 . S
O83 C82 1.550 . S
O83 C89 1.412 . S
H84 C82 0.973 . S
C85 H78 0.929 . S
C85 C86 1.400 . S
C85 C87 1.364 . S
C86 C85 1.400 . S
C86 C90 1.377 . S
C87 C85 1.364 . S
C87 C88 1.374 . S
C88 H79 0.930 . S
C88 C87 1.374 . S
C88 C89 1.383 . S
C89 O83 1.412 . S
C89 C88 1.383 . S
C89 C90 1.394 . S
C90 H80 0.929 . S
C90 C86 1.377 . S
C90 C89 1.394 . S
H91 C98 0.929 . S
H92 C101 0.930 . S
H93 C103 0.929 . S
H94 C95 0.969 . S
C95 H94 0.969 . S
C95 O96 1.550 . S
C95 H97 0.973 . S
O96 C95 1.550 . S
O96 C102 1.412 . S
H97 C95 0.973 . S
C98 H91 0.929 . S
C98 C99 1.400 . S
C98 C100 1.364 . S
C99 C98 1.400 . S
C99 C103 1.377 . S
C100 C98 1.364 . S
C100 C101 1.374 . S
C101 H92 0.930 . S
C101 C100 1.374 . S
C101 C102 1.383 . S
C102 O96 1.412 . S
C102 C101 1.383 . S
C102 C103 1.394 . S
C103 H93 0.929 . S
C103 C99 1.377 . S
C103 C102 1.394 . S
Sm104 C106 2.846 . S
Sm104 O124 2.543 . S
Sm104 O125 2.450 . S
Sm104 O126 2.681 1_545 S
Sm104 O127 2.476 . S
Sm104 O128 2.396 . S
Sm104 O132 2.386 . S
Sm104 O135 2.408 1_545 S
Sm105 C115 2.846 1_545 S
Sm105 O126 2.386 1_645 S
Sm105 O129 2.408 1_655 S
Sm105 O130 2.543 1_545 S
Sm105 O131 2.450 1_545 S
Sm105 O132 2.681 1_655 S
Sm105 O133 2.464 . S
Sm105 O134 2.396 1_545 S
C106 Sm104 2.846 . S
C106 C107 1.506 . S
C106 O124 1.261 . S
C106 O125 1.242 . S
C107 C106 1.506 . S
C107 C108 1.358 . S
C107 C112 1.382 . S
C108 C107 1.358 . S
C108 C109 1.385 . S
C108 H136 0.930 . S
C109 C108 1.385 . S
C109 C110 1.395 . S
C109 H137 0.929 . S
C110 C109 1.395 . S
C110 C111 1.335 . S
C111 C110 1.335 . S
C111 C112 1.398 . S
C111 H138 0.930 . S
C112 C107 1.382 . S
C112 C111 1.398 . S
C112 H139 0.929 . S
C113 O126 1.271 . S
C113 O127 1.248 1_565 S
C114 O128 1.252 . S
C114 O129 1.272 . S
C115 Sm105 2.846 1_565 S
C115 C116 1.506 . S
C115 O130 1.261 . S
C115 O131 1.242 . S
C116 C115 1.506 . S
C116 C117 1.358 . S
C116 C121 1.382 . S
C117 C116 1.358 . S
C117 C118 1.385 . S
C117 H140 0.930 . S
C118 C117 1.385 . S
C118 C119 1.395 . S
C118 H141 0.929 . S
C119 C118 1.395 . S
C119 C120 1.335 . S
C120 C119 1.335 . S
C120 C121 1.398 . S
C120 H142 0.930 . S
C121 C116 1.382 . S
C121 C120 1.398 . S
C121 H143 0.929 . S
C122 O132 1.271 1_655 S
C122 O133 1.251 . S
C123 O134 1.252 . S
C123 O135 1.272 1_655 S
O124 Sm104 2.543 . S
O124 C106 1.261 . S
O125 Sm104 2.450 . S
O125 C106 1.242 . S
O126 Sm104 2.681 1_565 S
O126 Sm105 2.386 1_465 S
O126 C113 1.271 . S
O127 Sm104 2.476 . S
O127 C113 1.248 1_545 S
O128 Sm104 2.396 . S
O128 C114 1.252 . S
O129 Sm105 2.408 1_455 S
O129 C114 1.272 . S
O130 Sm105 2.543 1_565 S
O130 C115 1.261 . S
O131 Sm105 2.450 1_565 S
O131 C115 1.242 . S
O132 Sm104 2.386 . S
O132 Sm105 2.681 1_455 S
O132 C122 1.271 1_455 S
O133 Sm105 2.464 . S
O133 C122 1.251 . S
O134 Sm105 2.396 1_565 S
O134 C123 1.252 . S
O135 Sm104 2.408 1_565 S
O135 C123 1.272 1_455 S
H136 C108 0.930 . S
H137 C109 0.929 . S
H138 C111 0.930 . S
H139 C112 0.929 . S
H140 C117 0.930 . S
H141 C118 0.929 . S
H142 C120 0.930 . S
H143 C121 0.929 . S
Sm144 C146 2.846 . S
Sm144 O164 2.543 . S
Sm144 O165 2.450 . S
Sm144 O166 2.681 1_545 S
Sm144 O167 2.464 1_545 S
Sm144 O168 2.396 . S
Sm144 O172 2.386 1_554 S
Sm144 O175 2.408 1_544 S
Sm145 C155 2.846 1_545 S
Sm145 O166 2.386 1_546 S
Sm145 O169 2.408 1_556 S
Sm145 O170 2.543 1_545 S
Sm145 O171 2.449 1_545 S
Sm145 O172 2.681 . S
Sm145 O173 2.464 . S
Sm145 O174 2.396 1_545 S
C146 Sm144 2.846 . S
C146 C147 1.506 . S
C146 O164 1.261 . S
C146 O165 1.242 . S
C147 C146 1.506 . S
C147 C148 1.358 . S
C147 C152 1.382 . S
C148 C147 1.358 . S
C148 C149 1.385 . S
C148 H176 0.930 . S
C149 C148 1.385 . S
C149 C150 1.395 . S
C149 H177 0.929 . S
C150 C149 1.395 . S
C150 C151 1.335 . S
C151 C150 1.335 . S
C151 C152 1.398 . S
C151 H178 0.930 . S
C152 C147 1.382 . S
C152 C151 1.398 . S
C152 H179 0.929 . S
C153 O166 1.271 . S
C153 O167 1.251 . S
C154 O168 1.252 . S
C154 O169 1.272 . S
C155 Sm145 2.846 1_565 S
C155 C156 1.506 . S
C155 O170 1.261 . S
C155 O171 1.265 . S
C156 C155 1.506 . S
C156 C157 1.358 . S
C156 C161 1.382 . S
C157 C156 1.358 . S
C157 C158 1.385 . S
C157 H180 0.930 . S
C158 C157 1.385 . S
C158 C159 1.395 . S
C158 H181 0.929 . S
C159 C158 1.395 . S
C159 C160 1.335 . S
C160 C159 1.335 . S
C160 C161 1.398 . S
C160 H182 0.930 . S
C161 C156 1.382 . S
C161 C160 1.398 . S
C161 H183 0.929 . S
C162 O172 1.271 . S
C162 O173 1.251 . S
C163 O174 1.252 . S
C163 O175 1.272 . S
O164 Sm144 2.543 . S
O164 C146 1.261 . S
O165 Sm144 2.450 . S
O165 C146 1.242 . S
O166 Sm144 2.681 1_565 S
O166 Sm145 2.386 1_564 S
O166 C153 1.271 . S
O167 Sm144 2.464 1_565 S
O167 C153 1.251 . S
O168 Sm144 2.396 . S
O168 C154 1.252 . S
O169 Sm145 2.408 1_554 S
O169 C154 1.272 . S
O170 Sm145 2.543 1_565 S
O170 C155 1.261 . S
O171 Sm145 2.449 1_565 S
O171 C155 1.265 . S
O172 Sm144 2.386 1_556 S
O172 Sm145 2.681 . S
O172 C162 1.271 . S
O173 Sm145 2.464 . S
O173 C162 1.251 . S
O174 Sm145 2.396 1_565 S
O174 C163 1.252 . S
O175 Sm144 2.408 1_566 S
O175 C163 1.272 . S
H176 C148 0.930 . S
H177 C149 0.929 . S
H178 C151 0.930 . S
H179 C152 0.929 . S
H180 C157 0.930 . S
H181 C158 0.929 . S
H182 C160 0.930 . S
H183 C161 0.929 . S
Sm184 C186 2.846 . S
Sm184 O204 2.543 . S
Sm184 O205 2.450 . S
Sm184 O206 2.681 . S
Sm184 O207 2.464 . S
Sm184 O208 2.396 . S
Sm184 O212 2.386 . S
Sm184 O215 2.408 . S
Sm185 C195 2.846 . S
Sm185 O206 2.386 . S
Sm185 O209 2.408 . S
Sm185 O210 2.543 . S
Sm185 O211 2.450 . S
Sm185 O212 2.681 . S
Sm185 O213 2.464 . S
Sm185 O214 2.396 . S
C186 Sm184 2.846 . S
C186 C187 1.506 . S
C186 O204 1.261 . S
C186 O205 1.242 . S
C187 C186 1.506 . S
C187 C188 1.358 . S
C187 C192 1.382 . S
C188 C187 1.358 . S
C188 C189 1.385 . S
C188 H216 0.930 . S
C189 C188 1.385 . S
C189 C190 1.395 . S
C189 H217 0.929 . S
C190 C189 1.395 . S
C190 C191 1.335 . S
C191 C190 1.335 . S
C191 C192 1.398 . S
C191 H218 0.930 . S
C192 C187 1.382 . S
C192 C191 1.398 . S
C192 H219 0.929 . S
C193 O206 1.271 . S
C193 O207 1.251 . S
C194 O208 1.252 . S
C194 O209 1.272 . S
C195 Sm185 2.846 . S
C195 C196 1.506 . S
C195 O210 1.261 . S
C195 O211 1.242 . S
C196 C195 1.506 . S
C196 C197 1.358 . S
C196 C201 1.382 . S
C197 C196 1.358 . S
C197 C198 1.385 . S
C197 H220 0.930 . S
C198 C197 1.385 . S
C198 C199 1.395 . S
C198 H221 0.929 . S
C199 C198 1.395 . S
C199 C200 1.335 . S
C200 C199 1.335 . S
C200 C201 1.398 . S
C200 H222 0.930 . S
C201 C196 1.382 . S
C201 C200 1.398 . S
C201 H223 0.929 . S
C202 O212 1.271 . S
C202 O213 1.251 . S
C203 O214 1.252 . S
C203 O215 1.272 . S
O204 Sm184 2.543 . S
O204 C186 1.261 . S
O205 Sm184 2.450 . S
O205 C186 1.242 . S
O206 Sm184 2.681 . S
O206 Sm185 2.386 . S
O206 C193 1.271 . S
O207 Sm184 2.464 . S
O207 C193 1.251 . S
O208 Sm184 2.396 . S
O208 C194 1.252 . S
O209 Sm185 2.408 . S
O209 C194 1.272 . S
O210 Sm185 2.543 . S
O210 C195 1.261 . S
O211 Sm185 2.450 . S
O211 C195 1.242 . S
O212 Sm184 2.386 . S
O212 Sm185 2.681 . S
O212 C202 1.271 . S
O213 Sm185 2.464 . S
O213 C202 1.251 . S
O214 Sm185 2.396 . S
O214 C203 1.252 . S
O215 Sm184 2.408 . S
O215 C203 1.272 . S
H216 C188 0.930 . S
H217 C189 0.929 . S
H218 C191 0.930 . S
H219 C192 0.929 . S
H220 C197 0.930 . S
H221 C198 0.929 . S
H222 C200 0.930 . S
H223 C201 0.929 . S
Sm224 C226 2.846 . S
Sm224 O244 2.543 . S
Sm224 O245 2.450 . S
Sm224 O246 2.681 . S
Sm224 O247 2.464 . S
Sm224 O248 2.396 . S
Sm224 O252 2.386 . S
Sm224 O255 2.408 1_455 S
Sm225 C235 2.846 1_454 S
Sm225 O246 2.386 . S
Sm225 O249 2.408 . S
Sm225 O250 2.543 1_455 S
Sm225 O251 2.450 1_454 S
Sm225 O252 2.681 . S
Sm225 O253 2.464 1_554 S
Sm225 O254 2.396 1_454 S
C226 Sm224 2.846 . S
C226 C227 1.506 . S
C226 O244 1.261 . S
C226 O245 1.242 . S
C227 C226 1.506 . S
C227 C228 1.358 . S
C227 C232 1.382 . S
C228 C227 1.358 . S
C228 C229 1.385 . S
C228 H256 0.930 . S
C229 C228 1.385 . S
C229 C230 1.395 . S
C229 H257 0.929 . S
C230 C229 1.395 . S
C230 C231 1.335 . S
C231 C230 1.335 . S
C231 C232 1.398 . S
C231 H258 0.930 . S
C232 C227 1.382 . S
C232 C231 1.398 . S
C232 H259 0.929 . S
C233 O246 1.271 . S
C233 O247 1.251 . S
C234 O248 1.252 . S
C234 O249 1.272 . S
C235 Sm225 2.846 1_656 S
C235 C236 1.506 . S
C235 O250 1.261 1_556 S
C235 O251 1.242 . S
C236 C235 1.506 . S
C236 C237 1.358 . S
C236 C241 1.382 . S
C237 C236 1.358 . S
C237 C238 1.385 . S
C237 H260 0.913 1_556 S
C238 C237 1.385 . S
C238 C239 1.395 . S
C238 H261 0.929 . S
C239 C238 1.395 . S
C239 C240 1.335 . S
C240 C239 1.335 . S
C240 C241 1.398 . S
C240 H262 0.930 . S
C241 C236 1.382 . S
C241 C240 1.398 . S
C241 H263 0.929 . S
C242 O252 1.271 1_556 S
C242 O253 1.251 . S
C243 O254 1.252 1_554 S
C243 O255 1.272 . S
O244 Sm224 2.543 . S
O244 C226 1.261 . S
O245 Sm224 2.450 . S
O245 C226 1.242 . S
O246 Sm224 2.681 . S
O246 Sm225 2.386 . S
O246 C233 1.271 . S
O247 Sm224 2.464 . S
O247 C233 1.251 . S
O248 Sm224 2.396 . S
O248 C234 1.252 . S
O249 Sm225 2.408 . S
O249 C234 1.272 . S
O250 Sm225 2.543 1_655 S
O250 C235 1.261 1_554 S
O251 Sm225 2.450 1_656 S
O251 C235 1.242 . S
O252 Sm224 2.386 . S
O252 Sm225 2.681 . S
O252 C242 1.271 1_554 S
O253 Sm225 2.464 1_556 S
O253 C242 1.251 . S
O254 Sm225 2.396 1_656 S
O254 C243 1.252 1_556 S
O255 Sm224 2.408 1_655 S
O255 C243 1.272 . S
H256 C228 0.930 . S
H257 C229 0.929 . S
H258 C231 0.930 . S
H259 C232 0.929 . S
H260 C237 0.913 1_554 S
H261 C238 0.929 . S
H262 C240 0.930 . S
H263 C241 0.929 . S
C264 C265 1.387 . S
C264 H268 0.950 . S
C264 C273 1.390 . S
C265 C264 1.387 . S
C265 C267 1.387 . S
H266 C273 0.950 . S
C267 C265 1.387 . S
C267 C269 1.390 . S
C267 H271 0.950 . S
H268 C264 0.950 . S
C269 C267 1.390 . S
C269 C270 1.387 . S
C269 H272 0.950 . S
C270 C269 1.387 . S
C270 C273 1.387 . S
H271 C267 0.950 . S
H272 C269 0.950 . S
C273 C264 1.390 . S
C273 H266 0.950 . S
C273 C270 1.387 . S
C274 C275 1.387 . S
C274 H278 0.950 . S
C274 C283 1.390 . S
C275 C274 1.387 . S
C275 C277 1.387 . S
H276 C283 0.950 . S
C277 C275 1.387 . S
C277 C279 1.390 . S
C277 H281 0.950 . S
H278 C274 0.950 . S
C279 C277 1.390 . S
C279 C280 1.387 . S
C279 H282 0.950 . S
C280 C279 1.387 . S
C280 C283 1.387 . S
H281 C277 0.950 . S
H282 C279 0.950 . S
C283 C274 1.390 . S
C283 H276 0.950 . S
C283 C280 1.387 . S
C284 C285 1.387 . S
C284 H288 0.950 . S
C284 C293 1.390 . S
C285 C284 1.387 . S
C285 C287 1.387 . S
H286 C293 0.950 . S
C287 C285 1.387 . S
C287 C289 1.390 . S
C287 H291 0.950 . S
H288 C284 0.950 . S
C289 C287 1.390 . S
C289 C290 1.387 . S
C289 H292 0.950 . S
C290 C289 1.387 . S
C290 C293 1.387 . S
H291 C287 0.950 . S
H292 C289 0.950 . S
C293 C284 1.390 . S
C293 H286 0.950 . S
C293 C290 1.387 . S
C294 C295 1.387 . S
C294 H298 0.950 . S
C294 C303 1.390 . S
C295 C294 1.387 . S
C295 C297 1.387 . S
H296 C303 0.950 . S
C297 C295 1.387 . S
C297 C299 1.390 . S
C297 H301 0.950 . S
H298 C294 0.950 . S
C299 C297 1.390 . S
C299 C300 1.387 . S
C299 H302 0.950 . S
C300 C299 1.387 . S
C300 C303 1.387 . S
H301 C297 0.950 . S
H302 C299 0.950 . S
C303 C294 1.390 . S
C303 H296 0.950 . S
C303 C300 1.387 . S
C304 C305 1.387 . S
C304 H308 0.950 . S
C304 C313 1.390 . S
C305 C304 1.387 . S
C305 C307 1.387 . S
H306 C313 0.950 . S
C307 C305 1.387 . S
C307 C309 1.390 . S
C307 H311 0.950 . S
H308 C304 0.950 . S
C309 C307 1.390 . S
C309 C310 1.387 . S
C309 H312 0.950 . S
C310 C309 1.387 . S
C310 C313 1.387 . S
H311 C307 0.950 . S
H312 C309 0.950 . S
C313 C304 1.390 . S
C313 H306 0.950 . S
C313 C310 1.387 . S
C314 C315 1.387 . S
C314 H318 0.950 . S
C314 C323 1.390 . S
C315 C314 1.387 . S
C315 C317 1.387 . S
H316 C323 0.950 . S
C317 C315 1.387 . S
C317 C319 1.390 . S
C317 H321 0.950 . S
H318 C314 0.950 . S
C319 C317 1.390 . S
C319 C320 1.387 . S
C319 H322 0.950 . S
C320 C319 1.387 . S
C320 C323 1.387 . S
H321 C317 0.950 . S
H322 C319 0.950 . S
C323 C314 1.390 . S
C323 H316 0.950 . S
C323 C320 1.387 . S
C324 C325 1.387 . S
C324 H328 0.950 . S
C324 C333 1.390 . S
C325 C324 1.387 . S
C325 C327 1.387 . S
H326 C333 0.950 . S
C327 C325 1.387 . S
C327 C329 1.390 . S
C327 H331 0.950 . S
H328 C324 0.950 . S
C329 C327 1.390 . S
C329 C330 1.387 . S
C329 H332 0.950 . S
C330 C329 1.387 . S
C330 C333 1.387 . S
H331 C327 0.950 . S
H332 C329 0.950 . S
C333 C324 1.390 . S
C333 H326 0.950 . S
C333 C330 1.387 . S
C334 C335 1.387 . S
C334 H338 0.950 . S
C334 C343 1.390 . S
C335 C334 1.387 . S
C335 C337 1.387 . S
H336 C343 0.950 . S
C337 C335 1.387 . S
C337 C339 1.390 . S
C337 H341 0.950 . S
H338 C334 0.950 . S
C339 C337 1.390 . S
C339 C340 1.387 . S
C339 H342 0.950 . S
C340 C339 1.387 . S
C340 C343 1.387 . S
H341 C337 0.950 . S
H342 C339 0.950 . S
C343 C334 1.390 . S
C343 H336 0.950 . S
C343 C340 1.387 . S
C344 C345 1.387 . S
C344 H348 0.950 . S
C344 C353 1.390 . S
C345 C344 1.387 . S
C345 C347 1.387 . S
H346 C353 0.950 . S
C347 C345 1.387 . S
C347 C349 1.390 . S
C347 H351 0.950 . S
H348 C344 0.950 . S
C349 C347 1.390 . S
C349 C350 1.387 . S
C349 H352 0.950 . S
C350 C349 1.387 . S
C350 C353 1.387 . S
H351 C347 0.950 . S
H352 C349 0.950 . S
C353 C344 1.390 . S
C353 H346 0.950 . S
C353 C350 1.387 . S
C354 C355 1.387 . S
C354 H358 0.950 . S
C354 C363 1.390 . S
C355 C354 1.387 . S
C355 C357 1.387 . S
H356 C363 0.950 . S
C357 C355 1.387 . S
C357 C359 1.390 . S
C357 H361 0.950 . S
H358 C354 0.950 . S
C359 C357 1.390 . S
C359 C360 1.387 . S
C359 H362 0.950 . S
C360 C359 1.387 . S
C360 C363 1.387 . S
H361 C357 0.950 . S
H362 C359 0.950 . S
C363 C354 1.390 . S
C363 H356 0.950 . S
C363 C360 1.387 . S
C364 C365 1.387 . S
C364 H368 0.950 . S
C364 C373 1.390 . S
C365 C364 1.387 . S
C365 C367 1.387 . S
H366 C373 0.950 . S
C367 C365 1.387 . S
C367 C369 1.390 . S
C367 H371 0.950 1_655 S
H368 C364 0.950 . S
C369 C367 1.390 . S
C369 C370 1.387 . S
C369 H372 0.950 1_655 S
C370 C369 1.387 . S
C370 C373 1.387 . S
H371 C367 0.950 1_455 S
H372 C369 0.950 1_455 S
C373 C364 1.390 . S
C373 H366 0.950 . S
C373 C370 1.387 . S
C374 C375 1.387 . S
C374 H378 0.950 . S
C374 C383 1.390 . S
C375 C374 1.387 . S
C375 C377 1.387 . S
H376 C383 0.950 . S
C377 C375 1.387 . S
C377 C379 1.390 . S
C377 H381 0.950 . S
H378 C374 0.950 . S
C379 C377 1.390 . S
C379 C380 1.387 . S
C379 H382 0.950 . S
C380 C379 1.387 . S
C380 C383 1.387 . S
H381 C377 0.950 . S
H382 C379 0.950 . S
C383 C374 1.390 . S
C383 H376 0.950 . S
C383 C380 1.387 . S
C384 C385 1.387 . S
C384 H388 0.950 . S
C384 C393 1.390 . S
C385 C384 1.387 . S
C385 C387 1.387 . S
H386 C393 0.950 . S
C387 C385 1.387 . S
C387 C389 1.390 . S
C387 H391 0.950 . S
H388 C384 0.950 . S
C389 C387 1.390 . S
C389 C390 1.387 . S
C389 H392 0.950 . S
C390 C389 1.387 . S
C390 C393 1.387 . S
H391 C387 0.950 . S
H392 C389 0.950 . S
C393 C384 1.390 . S
C393 H386 0.950 . S
C393 C390 1.387 . S
C394 C395 1.387 . S
C394 H398 0.950 . S
C394 C403 1.390 . S
C395 C394 1.387 . S
C395 C397 1.387 . S
H396 C403 0.950 . S
C397 C395 1.387 . S
C397 C399 1.390 . S
C397 H401 0.950 . S
H398 C394 0.950 . S
C399 C397 1.390 . S
C399 C400 1.387 . S
C399 H402 0.950 . S
C400 C399 1.387 . S
C400 C403 1.387 . S
H401 C397 0.950 . S
H402 C399 0.950 . S
C403 C394 1.390 . S
C403 H396 0.950 . S
C403 C400 1.387 . S
C404 C405 1.387 . S
C404 H408 0.950 . S
C404 C413 1.390 . S
C405 C404 1.387 . S
C405 C407 1.387 . S
H406 C413 0.950 . S
C407 C405 1.387 . S
C407 C409 1.390 . S
C407 H411 0.950 . S
H408 C404 0.950 . S
C409 C407 1.390 . S
C409 C410 1.387 . S
C409 H412 0.950 . S
C410 C409 1.387 . S
C410 C413 1.387 . S
H411 C407 0.950 . S
H412 C409 0.950 . S
C413 C404 1.390 . S
C413 H406 0.950 . S
C413 C410 1.387 . S
C414 C415 1.387 . S
C414 H418 0.950 . S
C414 C423 1.390 . S
C415 C414 1.387 . S
C415 C417 1.387 . S
H416 C423 0.950 . S
C417 C415 1.387 . S
C417 C419 1.390 . S
C417 H421 0.950 . S
H418 C414 0.950 . S
C419 C417 1.390 . S
C419 C420 1.387 . S
C419 H422 0.950 . S
C420 C419 1.387 . S
C420 C423 1.387 . S
H421 C417 0.950 . S
H422 C419 0.950 . S
C423 C414 1.390 . S
C423 H416 0.950 . S
C423 C420 1.387 . S
C424 C425 1.387 . S
C424 H428 0.950 . S
C424 C433 1.390 . S
C425 C424 1.387 . S
C425 C427 1.387 . S
H426 C433 0.950 . S
C427 C425 1.387 . S
C427 C429 1.390 . S
C427 H431 0.950 . S
H428 C424 0.950 . S
C429 C427 1.390 . S
C429 C430 1.387 . S
C429 H432 0.950 . S
C430 C429 1.387 . S
C430 C433 1.387 . S
H431 C427 0.950 . S
H432 C429 0.950 . S
C433 C424 1.390 . S
C433 H426 0.950 . S
C433 C430 1.387 . S
C434 C435 1.387 . S
C434 H438 0.950 . S
C434 C443 1.390 . S
C435 C434 1.387 . S
C435 C437 1.387 . S
H436 C443 0.950 . S
C437 C435 1.387 . S
C437 C439 1.390 . S
C437 H441 0.950 . S
H438 C434 0.950 . S
C439 C437 1.390 . S
C439 C440 1.387 . S
C439 H442 0.950 . S
C440 C439 1.387 . S
C440 C443 1.387 . S
H441 C437 0.950 . S
H442 C439 0.950 . S
C443 C434 1.390 . S
C443 H436 0.950 . S
C443 C440 1.387 . S
C444 C445 1.387 . S
C444 H448 0.950 . S
C444 C453 1.390 . S
C445 C444 1.387 . S
C445 C447 1.387 . S
H446 C453 0.950 . S
C447 C445 1.387 . S
C447 C449 1.390 . S
C447 H451 0.950 . S
H448 C444 0.950 . S
C449 C447 1.390 . S
C449 C450 1.387 . S
C449 H452 0.950 . S
C450 C449 1.387 . S
C450 C453 1.387 . S
H451 C447 0.950 . S
H452 C449 0.950 . S
C453 C444 1.390 . S
C453 H446 0.950 . S
C453 C450 1.387 . S
C454 C455 1.387 . S
C454 H458 0.950 . S
C454 C463 1.390 . S
C455 C454 1.387 . S
C455 C457 1.387 . S
H456 C463 0.950 . S
C457 C455 1.387 . S
C457 C459 1.390 . S
C457 H461 0.950 . S
H458 C454 0.950 . S
C459 C457 1.390 . S
C459 C460 1.387 . S
C459 H462 0.950 . S
C460 C459 1.387 . S
C460 C463 1.387 . S
H461 C457 0.950 . S
H462 C459 0.950 . S
C463 C454 1.390 . S
C463 H456 0.950 . S
C463 C460 1.387 . S
C464 C465 1.387 . S
C464 H468 0.950 . S
C464 C473 1.390 . S
C465 C464 1.387 . S
C465 C467 1.387 . S
H466 C473 0.950 . S
C467 C465 1.387 . S
C467 C469 1.390 . S
C467 H471 0.950 . S
H468 C464 0.950 . S
C469 C467 1.390 . S
C469 C470 1.387 . S
C469 H472 0.950 . S
C470 C469 1.387 . S
C470 C473 1.387 . S
H471 C467 0.950 . S
H472 C469 0.950 . S
C473 C464 1.390 . S
C473 H466 0.950 . S
C473 C470 1.387 . S
C474 C475 1.387 . S
C474 H478 0.950 . S
C474 C483 1.390 . S
C475 C474 1.387 . S
C475 C477 1.387 . S
H476 C483 0.950 . S
C477 C475 1.387 . S
C477 C479 1.390 . S
C477 H481 0.950 . S
H478 C474 0.950 . S
C479 C477 1.390 . S
C479 C480 1.387 . S
C479 H482 0.950 . S
C480 C479 1.387 . S
C480 C483 1.387 . S
H481 C477 0.950 . S
H482 C479 0.950 . S
C483 C474 1.390 . S
C483 H476 0.950 . S
C483 C480 1.387 . S
C484 C485 1.387 . S
C484 H488 0.950 . S
C484 C493 1.390 . S
C485 C484 1.387 . S
C485 C487 1.387 . S
H486 C493 0.950 . S
C487 C485 1.387 . S
C487 C489 1.390 . S
C487 H491 0.950 . S
H488 C484 0.950 . S
C489 C487 1.390 . S
C489 C490 1.387 . S
C489 H492 0.950 . S
C490 C489 1.387 . S
C490 C493 1.387 . S
H491 C487 0.950 . S
H492 C489 0.950 . S
C493 C484 1.390 . S
C493 H486 0.950 . S
C493 C490 1.387 . S
C494 C495 1.387 . S
C494 H498 0.950 . S
C494 C503 1.390 . S
C495 C494 1.387 . S
C495 C497 1.387 . S
H496 C503 0.950 . S
C497 C495 1.387 . S
C497 C499 1.390 . S
C497 H501 0.950 . S
H498 C494 0.950 . S
C499 C497 1.390 . S
C499 C500 1.387 . S
C499 H502 0.950 . S
C500 C499 1.387 . S
C500 C503 1.387 . S
H501 C497 0.950 . S
H502 C499 0.950 . S
C503 C494 1.390 . S
C503 H496 0.950 . S
C503 C500 1.387 . S
C265 C9 1.418 . S
C270 C110 1.472 . S
C275 C21 1.268 . S
C280 C159 1.285 . S
C290 C194 2.291 . S
C285 C30 2.350 . S
C295 C43 2.274 . S
C300 C233 2.378 1_655 S
C310 C154 2.154 . S
C305 C4 1.765 . S
C320 C113 1.388 . S
C315 C22 1.433 . S
C330 C243 1.697 1_556 S
C325 C34 1.771 . S
C340 C202 1.711 . S
C335 C48 1.732 . S
C345 C8 1.551 . S
C350 C230 1.632 . S
C360 C162 2.298 . S
C355 C35 2.397 . S
C365 C47 2.593 . S
C370 C123 2.592 . S
C375 C17 1.195 . S
C380 C199 1.214 . S
C390 C119 1.077 . S
C385 C60 1.060 . S
C395 C74 1.223 . S
C400 C150 1.198 . S
C405 C82 2.048 . S
C410 C203 2.095 . S
C415 C100 2.834 . S
C420 C242 2.763 . S
C425 C61 2.279 . S
C430 C163 2.456 . S
C440 C122 0.640 . S
C435 C73 0.624 . S
C450 C234 2.158 . S
C445 C87 2.235 . S
C460 C193 1.531 . S
C455 C95 1.523 . S
C465 C56 1.512 . S
C470 C239 1.493 . S
C480 C153 2.487 . S
C475 C86 2.559 . S
C490 C114 2.464 . S
C485 C99 2.466 . S
C495 C69 0.883 . S
C500 C190 0.988 . S
