# Generated by pormake.
# Topology dag, (6,3)-cn, num edge types: 1
# Building blocks:
#     Node 0, Type 0, BuildingBlock: IZENUY_clean_sbu_0, # of connection points: 6
#     Node 1, Type 0, BuildingBlock: IZENUY_clean_sbu_0, # of connection points: 6
#     Node 2, Type 0, BuildingBlock: IZENUY_clean_sbu_0, # of connection points: 6
#     Node 3, Type 0, BuildingBlock: IZENUY_clean_sbu_0, # of connection points: 6
#     Node 4, Type 1, BuildingBlock: KAKCAD_clean_linker_0, # of connection points: 3
#     Node 5, Type 1, BuildingBlock: KAKCAD_clean_linker_0, # of connection points: 3
#     Node 6, Type 1, BuildingBlock: KAKCAD_clean_linker_0, # of connection points: 3
#     Node 7, Type 1, BuildingBlock: KAKCAD_clean_linker_0, # of connection points: 3
#     Node 8, Type 1, BuildingBlock: KAKCAD_clean_linker_0, # of connection points: 3
#     Node 9, Type 1, BuildingBlock: KAKCAD_clean_linker_0, # of connection points: 3
#     Node 10, Type 1, BuildingBlock: KAKCAD_clean_linker_0, # of connection points: 3
#     Node 11, Type 1, BuildingBlock: KAKCAD_clean_linker_0, # of connection points: 3
#     Edge 12, Type (0, 1), BuildingBlock: AJUNOK_clean_linker_0, # of connection points: 2
#     Edge 13, Type (0, 1), BuildingBlock: AJUNOK_clean_linker_0, # of connection points: 2
#     Edge 14, Type (0, 1), BuildingBlock: AJUNOK_clean_linker_0, # of connection points: 2
#     Edge 15, Type (0, 1), BuildingBlock: AJUNOK_clean_linker_0, # of connection points: 2
#     Edge 16, Type (0, 1), BuildingBlock: AJUNOK_clean_linker_0, # of connection points: 2
#     Edge 17, Type (0, 1), BuildingBlock: AJUNOK_clean_linker_0, # of connection points: 2
#     Edge 18, Type (0, 1), BuildingBlock: AJUNOK_clean_linker_0, # of connection points: 2
#     Edge 19, Type (0, 1), BuildingBlock: AJUNOK_clean_linker_0, # of connection points: 2
#     Edge 20, Type (0, 1), BuildingBlock: AJUNOK_clean_linker_0, # of connection points: 2
#     Edge 21, Type (0, 1), BuildingBlock: AJUNOK_clean_linker_0, # of connection points: 2
#     Edge 22, Type (0, 1), BuildingBlock: AJUNOK_clean_linker_0, # of connection points: 2
#     Edge 23, Type (0, 1), BuildingBlock: AJUNOK_clean_linker_0, # of connection points: 2
#     Edge 24, Type (0, 1), BuildingBlock: AJUNOK_clean_linker_0, # of connection points: 2
#     Edge 25, Type (0, 1), BuildingBlock: AJUNOK_clean_linker_0, # of connection points: 2
#     Edge 26, Type (0, 1), BuildingBlock: AJUNOK_clean_linker_0, # of connection points: 2
#     Edge 27, Type (0, 1), BuildingBlock: AJUNOK_clean_linker_0, # of connection points: 2
#     Edge 28, Type (0, 1), BuildingBlock: AJUNOK_clean_linker_0, # of connection points: 2
#     Edge 29, Type (0, 1), BuildingBlock: AJUNOK_clean_linker_0, # of connection points: 2
#     Edge 30, Type (0, 1), BuildingBlock: AJUNOK_clean_linker_0, # of connection points: 2
#     Edge 31, Type (0, 1), BuildingBlock: AJUNOK_clean_linker_0, # of connection points: 2
#     Edge 32, Type (0, 1), BuildingBlock: AJUNOK_clean_linker_0, # of connection points: 2
#     Edge 33, Type (0, 1), BuildingBlock: AJUNOK_clean_linker_0, # of connection points: 2
#     Edge 34, Type (0, 1), BuildingBlock: AJUNOK_clean_linker_0, # of connection points: 2
#     Edge 35, Type (0, 1), BuildingBlock: AJUNOK_clean_linker_0, # of connection points: 2
# Relax obj value: 0.253
# Max RMSD: 0.194
# Mean RMSD: 0.160
data_MOF--net-dag--node1-IZENUY_clean_sbu_0--node2-KAKCAD_clean_linker_0--edge1-AJUNOK_clean_linker_0
_symmetry_space_group_name_H-M    P1
_symmetry_Int_Tables_number       1
_symmetry_cell_setting            triclinic
loop_
_symmetry_equiv_pos_as_xyz
'x, y, z'
_cell_length_a     36.869339
_cell_length_b     38.517146
_cell_length_c     32.561279
_cell_angle_alpha  95.197306
_cell_angle_beta   90.266967
_cell_angle_gamma 90.006255
loop_
_atom_site_label
_atom_site_type_symbol
_atom_site_fract_x
_atom_site_fract_y
_atom_site_fract_z
_atom_type_partial_charge
Fe0 Fe 0.20754 0.85688 0.09413 0.0
Fe1 Fe 0.1361 0.87757 0.05598 0.0
O2 O 0.16554 0.8448 0.07048 0.0
Fe3 Fe 0.15297 0.80033 0.06183 0.0
O4 O 0.15654 0.79452 0.11641 0.0
O5 O 0.20956 0.81978 0.12531 0.0
O6 O 0.18484 0.88091 0.1374 0.0
C7 C 0.16184 0.90462 0.13324 0.0
C8 C 0.22755 0.80154 0.04068 0.0
O9 O 0.14997 0.90976 0.09783 0.0
C10 C 0.12885 0.82482 0.99043 0.0
O11 O 0.2134 0.89629 0.06686 0.0
O12 O 0.16951 0.89272 0.02114 0.0
O13 O 0.19975 0.78519 0.05158 0.0
O14 O 0.23205 0.83339 0.05244 0.0
C15 C 0.08835 0.83408 0.08973 0.0
O16 O 0.11673 0.85132 0.01175 0.0
O17 O 0.14842 0.80292 0.00661 0.0
C18 C 0.20036 0.90396 0.03276 0.0
O19 O 0.10136 0.86433 0.09012 0.0
O20 O 0.10402 0.80818 0.07054 0.0
C21 C 0.18445 0.80128 0.13816 0.0
Fe22 Fe 0.70622 0.64945 0.48568 0.0
Fe23 Fe 0.64799 0.70271 0.51674 0.0
O24 O 0.66186 0.659 0.50397 0.0
Fe25 Fe 0.6311 0.6248 0.50972 0.0
O26 O 0.66046 0.60665 0.54701 0.0
O27 O 0.71017 0.60846 0.51025 0.0
O28 O 0.72631 0.67093 0.53207 0.0
C29 C 0.72064 0.70218 0.54545 0.0
C30 C 0.66735 0.60197 0.43627 0.0
O31 O 0.69311 0.71831 0.5337 0.0
C32 C 0.58626 0.67125 0.47726 0.0
O33 O 0.70978 0.68876 0.45819 0.0
O34 O 0.65601 0.7134 0.46441 0.0
O35 O 0.6493 0.5956 0.46752 0.0
O36 O 0.68938 0.62704 0.43772 0.0
C37 C 0.6181 0.67081 0.58011 0.0
O38 O 0.60025 0.695 0.5018 0.0
O39 O 0.60018 0.64125 0.47267 0.0
C40 C 0.68555 0.70851 0.4453 0.0
O41 O 0.63911 0.69454 0.57016 0.0
O42 O 0.60713 0.64747 0.55317 0.0
C43 C 0.69299 0.59779 0.54032 0.0
Fe44 Fe 0.85194 0.20666 0.01995 0.0
Fe45 Fe 0.86691 0.12996 0.02972 0.0
O46 O 0.83879 0.1623 0.01158 0.0
Fe47 Fe 0.79805 0.15 0.98529 0.0
O48 O 0.81203 0.1704 0.94036 0.0
O49 O 0.83139 0.21974 0.97197 0.0
O50 O 0.89389 0.19857 0.99139 0.0
C51 C 0.91736 0.17687 0.00105 0.0
C52 C 0.77921 0.21112 0.03632 0.0
O53 O 0.90916 0.15416 0.0251 0.0
C54 C 0.7969 0.10365 0.04312 0.0
O55 O 0.87452 0.20146 0.06993 0.0
O56 O 0.86049 0.14794 0.08244 0.0
O57 O 0.77271 0.18878 0.00611 0.0
O58 O 0.81117 0.21748 0.04874 0.0
C59 C 0.8495 0.09945 0.95354 0.0
O60 O 0.83044 0.09914 0.03743 0.0
O61 O 0.78061 0.12838 0.02843 0.0
C62 C 0.86979 0.17856 0.09517 0.0
O63 O 0.87445 0.11066 0.9779 0.0
O64 O 0.81685 0.10909 0.95979 0.0
C65 C 0.82039 0.20197 0.93963 0.0
Fe66 Fe 0.36612 0.36677 0.54851 0.0
Fe67 Fe 0.29513 0.34862 0.58913 0.0
O68 O 0.33608 0.33502 0.56442 0.0
Fe69 Fe 0.34691 0.29009 0.55564 0.0
O70 O 0.39603 0.29667 0.56293 0.0
O71 O 0.40172 0.35281 0.58188 0.0
O72 O 0.35427 0.40029 0.58984 0.0
C73 C 0.34088 0.39764 0.6251 0.0
C74 C 0.3704 0.31335 0.48354 0.0
O75 O 0.31944 0.37313 0.63099 0.0
C76 C 0.27141 0.29297 0.5379 0.0
O77 O 0.33208 0.38202 0.51406 0.0
O78 O 0.28926 0.3874 0.56079 0.0
O79 O 0.35042 0.29209 0.50014 0.0
O80 O 0.38364 0.3396 0.50432 0.0
C81 C 0.31773 0.29241 0.63299 0.0
O82 O 0.26849 0.32504 0.54909 0.0
O83 O 0.29953 0.2761 0.54685 0.0
C84 C 0.30128 0.39304 0.52569 0.0
O85 O 0.29327 0.31243 0.62152 0.0
O86 O 0.34459 0.28442 0.61031 0.0
C87 C 0.41397 0.32208 0.58025 0.0
C88 C 0.97122 0.19764 0.26619 0.0
C89 C 0.94489 0.17373 0.24984 0.0
C90 C 0.99769 0.18756 0.29369 0.0
C91 C 0.99816 0.15342 0.30587 0.0
C92 C 0.97004 0.13052 0.29212 0.0
C93 C 0.94416 0.1403 0.264 0.0
C94 C 0.02988 0.14035 0.32852 0.0
C95 C 0.04893 0.16202 0.35837 0.0
C96 C 0.08094 0.15028 0.37633 0.0
C97 C 0.0937 0.11649 0.36456 0.0
C98 C 0.07515 0.09464 0.33486 0.0
C99 C 0.04328 0.10666 0.31724 0.0
C100 C 0.09094 0.06095 0.31816 0.0
C101 C 0.12706 0.0594 0.30448 0.0
C102 C 0.06877 0.03136 0.31082 0.0
C103 C 0.08154 0.00182 0.28732 0.0
C104 C 0.11651 0.00156 0.27035 0.0
C105 C 0.10315 0.17403 0.40454 0.0
C106 C 0.11201 0.20749 0.39378 0.0
C107 C 0.11849 0.16221 0.44031 0.0
C108 C 0.14322 0.18296 0.46405 0.0
C109 C 0.15318 0.21587 0.45243 0.0
C110 C 0.13695 0.22815 0.41738 0.0
C111 C 0.13974 0.0299 0.28071 0.0
H112 H 0.97241 0.22369 0.25622 0.0
H113 H 0.01896 0.20593 0.30337 0.0
H114 H 0.96901 0.10427 0.30151 0.0
H115 H 0.92503 0.12076 0.25152 0.0
H116 H 0.03916 0.18811 0.36739 0.0
H117 H 0.03025 0.09039 0.29256 0.0
H118 H 0.11894 0.10765 0.37728 0.0
H119 H 0.14467 0.08191 0.30953 0.0
H120 H 0.04099 0.03175 0.32155 0.0
H121 H 0.06336 0.97995 0.28034 0.0
H122 H 0.10104 0.217 0.36599 0.0
H123 H 0.11193 0.1366 0.44941 0.0
H124 H 0.16679 0.03031 0.2679 0.0
H125 H 0.14468 0.25308 0.40716 0.0
H126 H 0.15512 0.17299 0.49111 0.0
C127 C 0.35041 0.53829 0.75956 0.0
C128 C 0.37343 0.5096 0.75093 0.0
C129 C 0.36278 0.56794 0.78333 0.0
C130 C 0.3985 0.56951 0.79872 0.0
C131 C 0.42082 0.53993 0.79203 0.0
C132 C 0.40829 0.51012 0.76847 0.0
C133 C 0.41333 0.60316 0.81743 0.0
C134 C 0.39239 0.62498 0.84474 0.0
C135 C 0.4036 0.65924 0.85719 0.0
C136 C 0.43663 0.67147 0.84248 0.0
C137 C 0.45825 0.64959 0.81585 0.0
C138 C 0.44661 0.61543 0.8039 0.0
C139 C 0.49054 0.66296 0.79559 0.0
C140 C 0.48688 0.69038 0.77021 0.0
C141 C 0.52318 0.64418 0.79511 0.0
C142 C 0.55026 0.6504 0.76687 0.0
C143 C 0.54478 0.67499 0.73809 0.0
C144 C 0.37955 0.68254 0.88365 0.0
C145 C 0.34199 0.68262 0.87599 0.0
C146 C 0.39357 0.70412 0.91712 0.0
C147 C 0.3703 0.72465 0.94304 0.0
C148 C 0.33269 0.72404 0.93575 0.0
C149 C 0.31884 0.70305 0.90182 0.0
C150 C 0.51384 0.69631 0.74152 0.0
H151 H 0.3234 0.53835 0.74632 0.0
H152 H 0.34504 0.59038 0.78756 0.0
H153 H 0.44836 0.54034 0.80378 0.0
H154 H 0.42649 0.48825 0.76202 0.0
H155 H 0.3669 0.61538 0.85574 0.0
H156 H 0.4623 0.59926 0.78149 0.0
H157 H 0.44498 0.69821 0.85061 0.0
H158 H 0.46184 0.70507 0.76989 0.0
H159 H 0.52663 0.62304 0.8146 0.0
H160 H 0.5742 0.63403 0.76525 0.0
H161 H 0.33043 0.66685 0.84994 0.0
H162 H 0.42236 0.70439 0.92391 0.0
H163 H 0.50897 0.7154 0.71965 0.0
H164 H 0.28999 0.70245 0.89526 0.0
H165 H 0.38159 0.74031 0.96933 0.0
C166 C 0.9166 0.80848 0.14809 0.0
C167 C 0.94055 0.83689 0.14813 0.0
C168 C 0.87981 0.81393 0.15727 0.0
C169 C 0.86629 0.84792 0.16634 0.0
C170 C 0.89044 0.87618 0.16651 0.0
C171 C 0.92695 0.87076 0.15717 0.0
C172 C 0.82722 0.85439 0.17537 0.0
C173 C 0.80781 0.83351 0.20086 0.0
C174 C 0.77173 0.84171 0.21219 0.0
C175 C 0.75496 0.87091 0.19729 0.0
C176 C 0.77409 0.89172 0.17182 0.0
C177 C 0.80978 0.88315 0.16055 0.0
C178 C 0.75878 0.92438 0.15929 0.0
C179 C 0.73677 0.92421 0.12406 0.0
C180 C 0.77196 0.95606 0.17809 0.0
C181 C 0.76596 0.98694 0.15987 0.0
C182 C 0.74695 0.98648 0.12234 0.0
C183 C 0.75285 0.82136 0.2422 0.0
C184 C 0.75586 0.78487 0.23954 0.0
C185 C 0.73365 0.83851 0.27532 0.0
C186 C 0.71901 0.81968 0.30598 0.0
C187 C 0.72318 0.78335 0.30402 0.0
C188 C 0.74121 0.76606 0.27018 0.0
C189 C 0.73069 0.95521 0.10576 0.0
H190 H 0.92635 0.7821 0.14102 0.0
H191 H 0.86186 0.79162 0.15658 0.0
H192 H 0.88119 0.90267 0.17399 0.0
H193 H 0.94446 0.89328 0.15641 0.0
H194 H 0.82142 0.812 0.21372 0.0
H195 H 0.82419 0.89953 0.14066 0.0
H196 H 0.72743 0.87793 0.20615 0.0
H197 H 0.72658 0.89986 0.10909 0.0
H198 H 0.78921 0.95652 0.20518 0.0
H199 H 0.77899 0.01056 0.17322 0.0
H200 H 0.77011 0.77092 0.21412 0.0
H201 H 0.73135 0.86666 0.27858 0.0
H202 H 0.71554 0.9543 0.07711 0.0
H203 H 0.74461 0.73801 0.26791 0.0
H204 H 0.70587 0.83371 0.33215 0.0
C205 C 0.57606 0.31091 0.67094 0.0
C206 C 0.56445 0.30901 0.62966 0.0
C207 C 0.61284 0.31528 0.68078 0.0
C208 C 0.63845 0.3184 0.64951 0.0
C209 C 0.62698 0.31494 0.60815 0.0
C210 C 0.59031 0.31017 0.5983 0.0
C211 C 0.67586 0.32999 0.66021 0.0
C212 C 0.69662 0.31385 0.68921 0.0
C213 C 0.73041 0.32778 0.70237 0.0
C214 C 0.74327 0.35826 0.68674 0.0
C215 C 0.72302 0.37411 0.65698 0.0
C216 C 0.68953 0.35968 0.6438 0.0
C217 C 0.73456 0.40732 0.64156 0.0
C218 C 0.74353 0.43617 0.66926 0.0
C219 C 0.7312 0.41176 0.5994 0.0
C220 C 0.7333 0.44491 0.58567 0.0
C221 C 0.73885 0.47426 0.61384 0.0
C222 C 0.7513 0.31096 0.73373 0.0
C223 C 0.76244 0.27622 0.72585 0.0
C224 C 0.75781 0.32861 0.77266 0.0
C225 C 0.77324 0.31101 0.80415 0.0
C226 C 0.7827 0.27562 0.79695 0.0
C227 C 0.77853 0.25886 0.75701 0.0
C228 C 0.74571 0.46946 0.65546 0.0
H229 H 0.55654 0.31013 0.6956 0.0
H230 H 0.62095 0.31828 0.71293 0.0
H231 H 0.64623 0.31731 0.58352 0.0
H232 H 0.58198 0.30923 0.56626 0.0
H233 H 0.68617 0.29095 0.70223 0.0
H234 H 0.67298 0.37285 0.62238 0.0
H235 H 0.769 0.36939 0.69747 0.0
H236 H 0.74628 0.4334 0.70194 0.0
H237 H 0.72471 0.38982 0.57737 0.0
H238 H 0.72798 0.44778 0.5534 0.0
H239 H 0.758 0.26234 0.69579 0.0
H240 H 0.74933 0.35546 0.77925 0.0
H241 H 0.75081 0.49162 0.67765 0.0
H242 H 0.78665 0.23194 0.75019 0.0
H243 H 0.77613 0.3246 0.8346 0.0
C244 C 0.63107 0.47706 0.28403 0.0
C245 C 0.63734 0.48136 0.32677 0.0
C246 C 0.61694 0.44565 0.26556 0.0
C247 C 0.60851 0.41822 0.28963 0.0
C248 C 0.61534 0.42247 0.33225 0.0
C249 C 0.62968 0.45364 0.35058 0.0
C250 C 0.59255 0.38518 0.27063 0.0
C251 C 0.60742 0.36827 0.23465 0.0
C252 C 0.59376 0.33588 0.21783 0.0
C253 C 0.56409 0.32096 0.23686 0.0
C254 C 0.5492 0.33758 0.27298 0.0
C255 C 0.56349 0.36956 0.28966 0.0
C256 C 0.51969 0.32128 0.29488 0.0
C257 C 0.48489 0.31756 0.27738 0.0
C258 C 0.52544 0.31288 0.33541 0.0
C259 C 0.49645 0.30284 0.35902 0.0
C260 C 0.46112 0.3016 0.34269 0.0
C261 C 0.61314 0.31638 0.18317 0.0
C262 C 0.62754 0.33398 0.15092 0.0
C263 C 0.62085 0.28073 0.1845 0.0
C264 C 0.64436 0.26369 0.15582 0.0
C265 C 0.6607 0.28202 0.12551 0.0
C266 C 0.65116 0.31696 0.12239 0.0
C267 C 0.45566 0.30801 0.30129 0.0
H268 H 0.63697 0.498 0.26501 0.0
H269 H 0.6119 0.44306 0.23263 0.0
H270 H 0.60963 0.40161 0.35148 0.0
H271 H 0.63403 0.45636 0.38365 0.0
H272 H 0.631 0.37948 0.22111 0.0
H273 H 0.55179 0.38235 0.31756 0.0
H274 H 0.55326 0.29602 0.22438 0.0
H275 H 0.47998 0.32405 0.24616 0.0
H276 H 0.55215 0.31558 0.34938 0.0
H277 H 0.50127 0.29843 0.39099 0.0
H278 H 0.62155 0.36127 0.14863 0.0
H279 H 0.61052 0.26648 0.20915 0.0
H280 H 0.42859 0.30733 0.28817 0.0
H281 H 0.66302 0.33142 0.09876 0.0
H282 H 0.65143 0.23673 0.15884 0.0
C283 C 0.08036 0.19573 0.91975 0.0
C284 C 0.0695 0.1924 0.9604 0.0
C285 C 0.11689 0.192 0.90892 0.0
C286 C 0.1431 0.18503 0.93868 0.0
C287 C 0.1324 0.18457 0.97999 0.0
C288 C 0.09591 0.18817 0.99073 0.0
C289 C 0.18021 0.17391 0.9258 0.0
C290 C 0.1984 0.18989 0.89485 0.0
C291 C 0.23096 0.17591 0.87817 0.0
C292 C 0.24583 0.14606 0.8935 0.0
C293 C 0.22823 0.13018 0.925 0.0
C294 C 0.19569 0.1444 0.94115 0.0
C295 C 0.24062 0.09629 0.93786 0.0
C296 C 0.24539 0.06779 0.90828 0.0
C297 C 0.24199 0.0909 0.97989 0.0
C298 C 0.24525 0.05727 0.99213 0.0
C299 C 0.24706 0.02843 0.96253 0.0
C300 C 0.24767 0.19112 0.84263 0.0
C301 C 0.22555 0.20075 0.81034 0.0
C302 C 0.28536 0.1964 0.84069 0.0
C303 C 0.30042 0.21212 0.80759 0.0
C304 C 0.27794 0.22266 0.77609 0.0
C305 C 0.24051 0.21642 0.77752 0.0
C306 C 0.24837 0.03405 0.92054 0.0
H307 H 0.06036 0.19886 0.89588 0.0
H308 H 0.12418 0.19223 0.87676 0.0
H309 H 0.15204 0.17986 0.0037 0.0
H310 H 0.08806 0.18592 0.02241 0.0
H311 H 0.18675 0.21289 0.88312 0.0
H312 H 0.18104 0.13087 0.96371 0.0
H313 H 0.27028 0.13443 0.87998 0.0
H314 H 0.24408 0.07127 0.87566 0.0
H315 H 0.23836 0.11251 0.00321 0.0
H316 H 0.24357 0.05366 0.02468 0.0
H317 H 0.19655 0.19621 0.81044 0.0
H318 H 0.303 0.18924 0.86523 0.0
H319 H 0.24964 0.01219 0.89719 0.0
H320 H 0.22274 0.22392 0.75324 0.0
H321 H 0.32936 0.21693 0.80718 0.0
C322 C 0.41295 0.69736 0.42018 0.0
C323 C 0.43909 0.67069 0.41559 0.0
C324 C 0.37644 0.69015 0.4108 0.0
C325 C 0.36555 0.65622 0.39637 0.0
C326 C 0.39209 0.63015 0.38976 0.0
C327 C 0.42828 0.63721 0.39953 0.0
C328 C 0.3267 0.64721 0.38931 0.0
C329 C 0.30309 0.66923 0.36993 0.0
C330 C 0.26723 0.65875 0.36025 0.0
C331 C 0.2548 0.62621 0.37069 0.0
C332 C 0.27814 0.60425 0.39035 0.0
C333 C 0.31362 0.61515 0.40016 0.0
C334 C 0.26704 0.56901 0.3994 0.0
C335 C 0.23862 0.5642 0.4268 0.0
C336 C 0.28876 0.54054 0.38534 0.0
C337 C 0.28427 0.50846 0.40109 0.0
C338 C 0.25779 0.50412 0.43108 0.0
C339 C 0.24457 0.68025 0.33499 0.0
C340 C 0.24088 0.71617 0.34579 0.0
C341 C 0.23007 0.6656 0.29742 0.0
C342 C 0.21468 0.68695 0.26963 0.0
C343 C 0.21331 0.72323 0.27913 0.0
C344 C 0.22496 0.73745 0.31826 0.0
C345 C 0.23409 0.5319 0.4427 0.0
H346 H 0.4206 0.72363 0.43158 0.0
H347 H 0.35666 0.71085 0.41599 0.0
H348 H 0.38484 0.60395 0.37757 0.0
H349 H 0.44765 0.61603 0.39568 0.0
H350 H 0.31316 0.69362 0.36021 0.0
H351 H 0.33127 0.59819 0.41606 0.0
H352 H 0.22751 0.61759 0.36247 0.0
H353 H 0.22168 0.58595 0.4381 0.0
H354 H 0.31082 0.54378 0.36414 0.0
H355 H 0.30354 0.48796 0.39216 0.0
H356 H 0.25152 0.72791 0.37487 0.0
H357 H 0.2328 0.63796 0.28835 0.0
H358 H 0.21348 0.52921 0.4658 0.0
H359 H 0.22325 0.76524 0.32684 0.0
H360 H 0.20596 0.67528 0.23968 0.0
C361 C 0.06197 0.83071 0.80098 0.0
C362 C 0.05824 0.80733 0.83146 0.0
C363 C 0.03265 0.83745 0.77564 0.0
C364 C 0.99943 0.82041 0.77987 0.0
C365 C 0.99715 0.79381 0.80645 0.0
C366 C 0.02631 0.78743 0.83229 0.0
C367 C 0.96575 0.83592 0.76514 0.0
C368 C 0.94083 0.81623 0.74017 0.0
C369 C 0.90688 0.83041 0.73095 0.0
C370 C 0.89791 0.86424 0.74799 0.0
C371 C 0.92226 0.88374 0.77407 0.0
C372 C 0.95656 0.86972 0.78131 0.0
C373 C 0.91095 0.9172 0.7968 0.0
C374 C 0.88964 0.94161 0.77785 0.0
C375 C 0.92069 0.92439 0.83852 0.0
C376 C 0.90989 0.95528 0.86059 0.0
C377 C 0.88871 0.97961 0.84172 0.0
C378 C 0.88015 0.8096 0.70488 0.0
C379 C 0.89125 0.78901 0.66926 0.0
C380 C 0.8431 0.81077 0.71504 0.0
C381 C 0.81763 0.79279 0.68947 0.0
C382 C 0.82866 0.77307 0.65338 0.0
C383 C 0.8657 0.77077 0.64381 0.0
C384 C 0.87854 0.97256 0.80019 0.0
H385 H 0.0864 0.84618 0.79944 0.0
H386 H 0.03491 0.85809 0.75528 0.0
H387 H 0.97162 0.78063 0.81047 0.0
H388 H 0.02234 0.76961 0.85577 0.0
H389 H 0.94756 0.78968 0.7289 0.0
H390 H 0.9757 0.8845 0.80133 0.0
H391 H 0.8715 0.87502 0.7419 0.0
H392 H 0.88187 0.93698 0.74571 0.0
H393 H 0.93619 0.90583 0.8545 0.0
H394 H 0.91769 0.95998 0.89275 0.0
H395 H 0.91954 0.78771 0.66048 0.0
H396 H 0.83372 0.82559 0.74281 0.0
H397 H 0.86244 0.99115 0.78494 0.0
H398 H 0.87474 0.75565 0.61607 0.0
H399 H 0.78922 0.79433 0.69783 0.0
C400 C 0.17091 0.9333 0.20508 0.0
C401 C 0.14956 0.92793 0.16911 0.0
C402 C 0.15985 0.95663 0.23836 0.0
C403 C 0.12672 0.97464 0.23707 0.0
H404 H 0.19671 0.92009 0.20714 0.0
H405 H 0.17741 0.96085 0.26512 0.0
S406 S 0.06015 0.96856 0.15092 0.0
N407 N 0.09311 0.94177 0.13497 0.0
N408 N 0.07251 0.9852 0.19734 0.0
C409 C 0.10476 0.96877 0.20177 0.0
C410 C 0.11613 0.94552 0.16784 0.0
C411 C 0.6004 0.70276 0.64816 0.0
C412 C 0.60265 0.67154 0.62218 0.0
C413 C 0.58251 0.70382 0.68637 0.0
C414 C 0.56707 0.67355 0.70016 0.0
H415 H 0.61135 0.72673 0.63831 0.0
H416 H 0.58025 0.72851 0.70495 0.0
S417 S 0.56642 0.58515 0.64443 0.0
N418 N 0.58867 0.60946 0.61383 0.0
N419 N 0.55534 0.61163 0.68506 0.0
C420 C 0.57008 0.64209 0.675 0.0
C421 C 0.58783 0.64104 0.63621 0.0
C422 C 0.75816 0.07979 0.09648 0.0
C423 C 0.77623 0.07509 0.05858 0.0
C424 C 0.74573 0.05089 0.11579 0.0
C425 C 0.75076 0.01665 0.09746 0.0
H426 H 0.75586 0.10559 0.11252 0.0
H427 H 0.73402 0.05519 0.14628 0.0
S428 S 0.79338 0.99167 0.99593 0.0
N429 N 0.79587 0.03461 0.00165 0.0
N430 N 0.77275 0.98033 0.03759 0.0
C431 C 0.76646 0.01212 0.05803 0.0
C432 C 0.77925 0.0414 0.0387 0.0
C433 C 0.46724 0.34018 0.62486 0.0
C434 C 0.45152 0.31642 0.59452 0.0
C435 C 0.50339 0.33666 0.63727 0.0
C436 C 0.5253 0.30954 0.61939 0.0
H437 H 0.4516 0.36191 0.63887 0.0
H438 H 0.51465 0.35604 0.66 0.0
S439 S 0.49716 0.23977 0.53979 0.0
N440 N 0.46055 0.26407 0.54784 0.0
N441 N 0.52863 0.25785 0.57104 0.0
C442 C 0.50983 0.28519 0.5897 0.0
C443 C 0.47289 0.28849 0.57736 0.0
C444 C 0.68699 0.54523 0.40231 0.0
C445 C 0.66647 0.57577 0.40074 0.0
C446 C 0.67903 0.51533 0.37604 0.0
C447 C 0.65014 0.51499 0.34758 0.0
H448 H 0.70769 0.54375 0.42583 0.0
H449 H 0.69431 0.49174 0.37954 0.0
S450 S 0.58973 0.58934 0.33036 0.0
N451 N 0.61762 0.60481 0.36746 0.0
N452 N 0.60234 0.54857 0.318 0.0
C453 C 0.63089 0.54613 0.34412 0.0
C454 C 0.63907 0.57654 0.37089 0.0
C455 C 0.96859 0.21074 0.97283 0.0
C456 C 0.95586 0.18025 0.98894 0.0
C457 C 0.00544 0.2147 0.96339 0.0
C458 C 0.03069 0.18845 0.97009 0.0
H459 H 0.95013 0.23188 0.96804 0.0
H460 H 0.01435 0.23859 0.95138 0.0
S461 S 0.01106 0.10219 0.00694 0.0
N462 N 0.97147 0.1222 0.00773 0.0
N463 N 0.04037 0.13009 0.99043 0.0
C464 C 0.01824 0.15756 0.98493 0.0
C465 C 0.98093 0.15335 0.99424 0.0
C466 C 0.27328 0.45121 0.52148 0.0
C467 C 0.28309 0.4186 0.50195 0.0
C468 C 0.26203 0.47819 0.49833 0.0
C469 C 0.25983 0.47322 0.455 0.0
H470 H 0.27663 0.45661 0.55452 0.0
H471 H 0.25759 0.50374 0.51431 0.0
S472 S 0.27463 0.38996 0.39071 0.0
N473 N 0.2847 0.38096 0.43809 0.0
N474 N 0.26254 0.43143 0.3944 0.0
C475 C 0.26623 0.43963 0.43568 0.0
C476 C 0.2782 0.41237 0.45922 0.0
C477 C 0.10638 0.84769 0.92632 0.0
C478 C 0.11669 0.81876 0.94705 0.0
C479 C 0.0899 0.84349 0.88755 0.0
C480 C 0.08286 0.81015 0.8678 0.0
H481 H 0.1099 0.87394 0.94082 0.0
H482 H 0.0806 0.86668 0.87417 0.0
S483 S 0.10861 0.72591 0.90653 0.0
N484 N 0.12189 0.75558 0.94337 0.0
N485 N 0.09062 0.74767 0.87 0.0
C486 C 0.09501 0.78095 0.88696 0.0
C487 C 0.11213 0.78526 0.92662 0.0
C488 C 0.89491 0.06185 0.9141 0.0
C489 C 0.85832 0.07104 0.92122 0.0
C490 C 0.90441 0.03298 0.88718 0.0
C491 C 0.8778 0.01225 0.86599 0.0
H492 H 0.91656 0.07653 0.9302 0.0
H493 H 0.93286 0.0264 0.88352 0.0
S494 S 0.77835 0.02556 0.87169 0.0
N495 N 0.79533 0.0576 0.90313 0.0
N496 N 0.81353 0.00317 0.85248 0.0
C497 C 0.84124 0.02173 0.87134 0.0
C498 C 0.83142 0.05117 0.89894 0.0
C499 C 0.40505 0.27523 0.4318 0.0
C500 C 0.38428 0.30541 0.4415 0.0
C501 C 0.42802 0.2726 0.39733 0.0
C502 C 0.43022 0.29978 0.37127 0.0
H503 H 0.40603 0.25501 0.45285 0.0
H504 H 0.44584 0.25025 0.39251 0.0
S505 S 0.37839 0.38253 0.38162 0.0
N506 N 0.36532 0.36168 0.42113 0.0
N507 N 0.40751 0.3564 0.35584 0.0
C508 C 0.40725 0.32869 0.37891 0.0
C509 C 0.38451 0.33161 0.41425 0.0
C510 C 0.20037 0.94304 0.97548 0.0
C511 C 0.21741 0.93185 0.01078 0.0
C512 C 0.212 0.97304 0.95817 0.0
C513 C 0.24112 0.993 0.97542 0.0
H514 H 0.1767 0.92958 0.9622 0.0
H515 H 0.19656 0.98185 0.93268 0.0
S516 S 0.29924 0.9718 0.06281 0.0
N517 N 0.26827 0.94069 0.05877 0.0
N518 N 0.28979 0.99727 0.02604 0.0
C519 C 0.26023 0.98072 0.00854 0.0
C520 C 0.24853 0.95004 0.02618 0.0
C521 C 0.54128 0.66107 0.4203 0.0
C522 C 0.54984 0.67625 0.45995 0.0
C523 C 0.50573 0.66147 0.40511 0.0
C524 C 0.47726 0.67647 0.42939 0.0
H525 H 0.56209 0.64814 0.40121 0.0
H526 H 0.50027 0.64884 0.37462 0.0
S527 S 0.48597 0.72012 0.53542 0.0
N528 N 0.52767 0.70795 0.52275 0.0
N529 N 0.46046 0.70756 0.49497 0.0
C530 C 0.4858 0.69291 0.46863 0.0
C531 C 0.5222 0.69301 0.48377 0.0
C532 C 0.35266 0.41938 0.69882 0.0
C533 C 0.3467 0.42632 0.65764 0.0
C534 C 0.36112 0.44645 0.72926 0.0
C535 C 0.36284 0.48125 0.71954 0.0
H536 H 0.35192 0.39281 0.70723 0.0
H537 H 0.36646 0.44018 0.76049 0.0
S538 S 0.34757 0.51318 0.61682 0.0
N539 N 0.34206 0.47056 0.60911 0.0
N540 N 0.35717 0.52127 0.66634 0.0
C541 C 0.35595 0.48852 0.67876 0.0
C542 C 0.34805 0.46108 0.64779 0.0
C543 C 0.02517 0.8101 0.08689 0.0
C544 C 0.05225 0.8303 0.1081 0.0
C545 C 0.98922 0.81098 0.10109 0.0
C546 C 0.97938 0.83186 0.1371 0.0
H547 H 0.03136 0.79505 0.05804 0.0
H548 H 0.96872 0.79661 0.08266 0.0
S549 S 0.042 0.88429 0.20754 0.0
N550 N 0.06798 0.86825 0.16923 0.0
N551 N 0.00081 0.86927 0.19649 0.0
C552 C 0.00691 0.85008 0.16005 0.0
C553 C 0.04325 0.84947 0.14539 0.0
C554 C 0.73611 0.5482 0.5449 0.0
C555 C 0.70884 0.56993 0.56321 0.0
C556 C 0.74757 0.5184 0.56294 0.0
C557 C 0.73247 0.50942 0.60013 0.0
H558 H 0.74737 0.55315 0.51531 0.0
H559 H 0.76729 0.50143 0.54678 0.0
S560 S 0.66382 0.56025 0.66322 0.0
N561 N 0.66999 0.58256 0.62286 0.0
N562 N 0.69103 0.52621 0.6564 0.0
C563 C 0.70701 0.53221 0.62017 0.0
C564 C 0.69528 0.56252 0.60176 0.0
C565 C 0.91913 0.19924 0.14369 0.0
C566 C 0.88465 0.18417 0.13733 0.0
C567 C 0.9375 0.19775 0.18127 0.0
C568 C 0.92181 0.1816 0.21409 0.0
H569 H 0.93314 0.20998 0.11853 0.0
H570 H 0.96513 0.20728 0.18348 0.0
S571 S 0.82875 0.14475 0.21512 0.0
N572 N 0.83355 0.15654 0.16793 0.0
N573 N 0.86711 0.15539 0.23949 0.0
C574 C 0.88589 0.16934 0.20914 0.0
C575 C 0.86756 0.1702 0.17054 0.0
C576 C 0.16657 0.75733 0.18674 0.0
C577 C 0.19015 0.78399 0.17656 0.0
C578 C 0.17337 0.73864 0.22096 0.0
C579 C 0.20379 0.7461 0.24646 0.0
H580 H 0.14323 0.7501 0.16752 0.0
H581 H 0.15507 0.71772 0.22705 0.0
S582 S 0.27281 0.81466 0.23484 0.0
N583 N 0.24408 0.8182 0.19647 0.0
N584 N 0.25719 0.7825 0.25992 0.0
C585 C 0.22685 0.77348 0.23754 0.0
C586 C 0.21994 0.79255 0.20283 0.0
C587 C 0.77719 0.70253 0.5885 0.0
C588 C 0.74803 0.72097 0.57263 0.0
C589 C 0.80344 0.71958 0.61427 0.0
C590 C 0.80133 0.7556 0.62534 0.0
H591 H 0.77975 0.67464 0.58122 0.0
H592 H 0.82523 0.70441 0.62612 0.0
S593 S 0.73223 0.81648 0.59052 0.0
N594 N 0.71983 0.77788 0.56885 0.0
N595 N 0.76921 0.80958 0.61735 0.0
C596 C 0.77278 0.77448 0.60944 0.0
C597 C 0.74611 0.75725 0.58309 0.0
C598 C 0.71369 0.21631 0.05564 0.0
C599 C 0.74881 0.23077 0.05684 0.0
C600 C 0.685 0.23332 0.07726 0.0
C601 C 0.69031 0.26565 0.10013 0.0
H602 H 0.70852 0.19119 0.03889 0.0
H603 H 0.65857 0.22097 0.07643 0.0
S604 S 0.77648 0.31525 0.11215 0.0
N605 N 0.78689 0.27988 0.08206 0.0
N606 N 0.73291 0.31174 0.12243 0.0
C607 C 0.72498 0.2808 0.10078 0.0
C608 C 0.75425 0.26337 0.07923 0.0
C609 C 0.28593 0.29008 0.69975 0.0
C610 C 0.31202 0.27577 0.67167 0.0
C611 C 0.27635 0.27334 0.73433 0.0
C612 C 0.2925 0.24166 0.74239 0.0
H613 H 0.27203 0.31408 0.69453 0.0
H614 H 0.25542 0.28487 0.75447 0.0
S615 S 0.36417 0.19433 0.68069 0.0
N616 N 0.35557 0.22896 0.6558 0.0
N617 N 0.33719 0.19736 0.72122 0.0
C618 C 0.31992 0.22781 0.71596 0.0
C619 C 0.32978 0.24491 0.68048 0.0
C620 C 0.72815 0.72439 0.39064 0.0
C621 C 0.69362 0.72778 0.40893 0.0
C622 C 0.73708 0.74204 0.35644 0.0
C623 C 0.71192 0.76387 0.33901 0.0
H624 H 0.74878 0.70813 0.40293 0.0
H625 H 0.76422 0.73906 0.344 0.0
S626 S 0.61722 0.78049 0.37319 0.0
N627 N 0.63357 0.7539 0.40575 0.0
N628 N 0.65063 0.78708 0.34119 0.0
C629 C 0.67716 0.76731 0.35643 0.0
C630 C 0.66793 0.74924 0.39137 0.0
C631 C 0.82856 0.25155 0.8955 0.0
C632 C 0.81242 0.21935 0.90178 0.0
C633 C 0.81954 0.2693 0.86105 0.0
C634 C 0.79392 0.25557 0.83176 0.0
H635 H 0.84816 0.26325 0.91747 0.0
H636 H 0.83255 0.29405 0.85745 0.0
S637 S 0.74217 0.17318 0.83513 0.0
N638 N 0.76886 0.17489 0.87605 0.0
N639 N 0.75136 0.20865 0.81229 0.0
C640 C 0.77756 0.22344 0.83771 0.0
C641 C 0.78695 0.20524 0.87244 0.0
C642 C 0.24354 0.23823 0.50438 0.0
C643 C 0.24052 0.27414 0.51654 0.0
C644 C 0.21503 0.21966 0.48416 0.0
C645 C 0.18229 0.23617 0.4752 0.0
H646 H 0.26823 0.22422 0.51026 0.0
H647 H 0.21891 0.19219 0.47484 0.0
S648 S 0.15962 0.32931 0.50139 0.0
N649 N 0.2015 0.3254 0.51849 0.0
N650 N 0.14784 0.29012 0.48097 0.0
C651 C 0.17863 0.27192 0.48735 0.0
C652 C 0.20771 0.29096 0.50792 0.0
C653 C 0.25195 0.74633 0.00474 0.0
C654 C 0.25584 0.78241 0.01538 0.0
C655 C 0.2772 0.72771 0.97949 0.0
C656 C 0.30745 0.74433 0.96391 0.0
H657 H 0.22902 0.73224 0.01565 0.0
H658 H 0.27297 0.70001 0.97204 0.0
S659 S 0.33037 0.83821 0.98164 0.0
N660 N 0.29267 0.83406 0.00792 0.0
N661 N 0.33997 0.79878 0.96031 0.0
C662 C 0.31206 0.78021 0.97448 0.0
C663 C 0.28629 0.79931 0.00018 0.0
loop_
_geom_bond_atom_site_label_1
_geom_bond_atom_site_label_2
_geom_bond_distance
_geom_bond_site_symmetry_2
_ccdc_geom_bond_type
Fe0 O2 1.918 . S
Fe0 O5 1.997 . S
Fe0 O6 2.002 . S
Fe0 O11 1.976 . S
Fe0 O14 1.996 . S
Fe1 O2 1.918 . S
Fe1 O9 1.997 . S
Fe1 O12 1.996 . S
Fe1 O16 1.999 . S
Fe1 O19 2.002 . S
O2 Fe0 1.918 . S
O2 Fe1 1.918 . S
O2 Fe3 1.918 . S
Fe3 O2 1.918 . S
Fe3 O4 2.002 . S
Fe3 O13 1.976 . S
Fe3 O17 1.996 1_554 S
Fe3 O20 1.997 . S
O4 Fe3 2.002 . S
O4 C21 1.295 . S
O5 Fe0 1.997 . S
O5 C21 1.235 . S
O6 Fe0 2.002 . S
O6 C7 1.295 . S
C7 O6 1.295 . S
C7 O9 1.235 . S
C8 O13 1.287 . S
C8 O14 1.255 . S
O9 Fe1 1.997 . S
O9 C7 1.235 . S
C10 O16 1.276 1_556 S
C10 O17 1.255 . S
O11 Fe0 1.976 . S
O11 C18 1.287 . S
O12 Fe1 1.996 . S
O12 C18 1.255 . S
O13 Fe3 1.976 . S
O13 C8 1.287 . S
O14 Fe0 1.996 . S
O14 C8 1.255 . S
C15 O19 1.295 . S
C15 O20 1.235 . S
O16 Fe1 1.999 . S
O16 C10 1.276 1_554 S
O17 Fe3 1.996 1_556 S
O17 C10 1.255 . S
C18 O11 1.287 . S
C18 O12 1.255 . S
O19 Fe1 2.002 . S
O19 C15 1.295 . S
O20 Fe3 1.997 . S
O20 C15 1.235 . S
C21 O4 1.295 . S
C21 O5 1.235 . S
Fe22 O24 1.918 . S
Fe22 O27 1.997 . S
Fe22 O28 2.002 . S
Fe22 O33 1.976 . S
Fe22 O36 1.996 . S
Fe23 O24 1.918 . S
Fe23 O31 1.997 . S
Fe23 O34 1.996 . S
Fe23 O38 1.976 . S
Fe23 O41 2.002 . S
O24 Fe22 1.918 . S
O24 Fe23 1.918 . S
O24 Fe25 1.918 . S
Fe25 O24 1.918 . S
Fe25 O26 2.002 . S
Fe25 O35 1.976 . S
Fe25 O39 1.996 . S
Fe25 O42 1.997 . S
O26 Fe25 2.002 . S
O26 C43 1.295 . S
O27 Fe22 1.997 . S
O27 C43 1.235 . S
O28 Fe22 2.002 . S
O28 C29 1.295 . S
C29 O28 1.295 . S
C29 O31 1.235 . S
C30 O35 1.287 . S
C30 O36 1.255 . S
O31 Fe23 1.997 . S
O31 C29 1.235 . S
C32 O38 1.287 . S
C32 O39 1.255 . S
O33 Fe22 1.976 . S
O33 C40 1.287 . S
O34 Fe23 1.996 . S
O34 C40 1.255 . S
O35 Fe25 1.976 . S
O35 C30 1.287 . S
O36 Fe22 1.996 . S
O36 C30 1.255 . S
C37 O41 1.295 . S
C37 O42 1.235 . S
O38 Fe23 1.976 . S
O38 C32 1.287 . S
O39 Fe25 1.996 . S
O39 C32 1.255 . S
C40 O33 1.287 . S
C40 O34 1.255 . S
O41 Fe23 2.002 . S
O41 C37 1.295 . S
O42 Fe25 1.997 . S
O42 C37 1.235 . S
C43 O26 1.295 . S
C43 O27 1.235 . S
Fe44 O46 1.918 . S
Fe44 O49 1.997 1_554 S
Fe44 O50 2.002 . S
Fe44 O55 1.976 . S
Fe44 O58 1.996 . S
Fe45 O46 1.918 . S
Fe45 O53 1.997 1_554 S
Fe45 O56 1.996 . S
Fe45 O60 1.976 . S
Fe45 O63 2.002 1_554 S
O46 Fe44 1.918 . S
O46 Fe45 1.918 . S
O46 Fe47 1.918 1_554 S
Fe47 O46 1.918 1_556 S
Fe47 O48 2.002 . S
Fe47 O57 1.976 1_556 S
Fe47 O61 1.996 1_556 S
Fe47 O64 1.997 . S
O48 Fe47 2.002 . S
O48 C65 1.295 . S
O49 Fe44 1.997 1_556 S
O49 C65 1.235 . S
O50 Fe44 2.002 . S
O50 C51 1.295 1_554 S
C51 O50 1.295 1_556 S
C51 O53 1.235 . S
C52 O57 1.287 . S
C52 O58 1.255 . S
O53 Fe45 1.997 1_556 S
O53 C51 1.235 . S
C54 O60 1.287 . S
C54 O61 1.255 . S
O55 Fe44 1.976 . S
O55 C62 1.287 . S
O56 Fe45 1.996 . S
O56 C62 1.255 . S
O57 Fe47 1.976 1_554 S
O57 C52 1.287 . S
O58 Fe44 1.996 . S
O58 C52 1.255 . S
C59 O63 1.295 . S
C59 O64 1.235 . S
O60 Fe45 1.976 . S
O60 C54 1.287 . S
O61 Fe47 1.996 1_554 S
O61 C54 1.255 . S
C62 O55 1.287 . S
C62 O56 1.255 . S
O63 Fe45 2.002 1_556 S
O63 C59 1.295 . S
O64 Fe47 1.997 . S
O64 C59 1.235 . S
C65 O48 1.295 . S
C65 O49 1.235 . S
Fe66 O68 1.918 . S
Fe66 O71 1.997 . S
Fe66 O72 2.002 . S
Fe66 O77 1.976 . S
Fe66 O80 1.996 . S
Fe67 O68 1.918 . S
Fe67 O75 1.997 . S
Fe67 O78 1.996 . S
Fe67 O82 1.976 . S
Fe67 O85 2.002 . S
O68 Fe66 1.918 . S
O68 Fe67 1.918 . S
O68 Fe69 1.918 . S
Fe69 O68 1.918 . S
Fe69 O70 2.002 . S
Fe69 O79 1.976 . S
Fe69 O83 1.996 . S
Fe69 O86 1.997 . S
O70 Fe69 2.002 . S
O70 C87 1.295 . S
O71 Fe66 1.997 . S
O71 C87 1.235 . S
O72 Fe66 2.002 . S
O72 C73 1.295 . S
C73 O72 1.295 . S
C73 O75 1.235 . S
C74 O79 1.287 . S
C74 O80 1.255 . S
O75 Fe67 1.997 . S
O75 C73 1.235 . S
C76 O82 1.287 . S
C76 O83 1.255 . S
O77 Fe66 1.976 . S
O77 C84 1.287 . S
O78 Fe67 1.996 . S
O78 C84 1.255 . S
O79 Fe69 1.976 . S
O79 C74 1.287 . S
O80 Fe66 1.996 . S
O80 C74 1.255 . S
C81 O85 1.295 . S
C81 O86 1.235 . S
O82 Fe67 1.976 . S
O82 C76 1.287 . S
O83 Fe69 1.996 . S
O83 C76 1.255 . S
C84 O77 1.287 . S
C84 O78 1.255 . S
O85 Fe67 2.002 . S
O85 C81 1.295 . S
O86 Fe69 1.997 . S
O86 C81 1.235 . S
C87 O70 1.295 . S
C87 O71 1.235 . S
C88 C89 1.386 . S
C88 C90 1.397 1_655 S
C88 H112 0.931 . S
C89 C88 1.386 . S
C89 C93 1.397 . S
C90 C88 1.397 1_455 S
C90 C91 1.384 . S
C90 H113 0.930 . S
C91 C90 1.384 . S
C91 C92 1.377 1_455 S
C91 C94 1.481 . S
C92 C91 1.377 1_655 S
C92 C93 1.389 . S
C92 H114 0.929 . S
C93 C89 1.397 . S
C93 C92 1.389 . S
C93 H115 0.931 . S
C94 C91 1.481 . S
C94 C95 1.387 . S
C94 C99 1.390 . S
C95 C94 1.387 . S
C95 C96 1.401 . S
C95 H116 0.930 . S
C96 C95 1.401 . S
C96 C97 1.376 . S
C96 C105 1.511 . S
C97 C96 1.376 . S
C97 C98 1.392 . S
C97 H118 0.931 . S
C98 C97 1.392 . S
C98 C99 1.361 . S
C98 C100 1.500 . S
C99 C94 1.390 . S
C99 C98 1.361 . S
C99 H117 0.931 . S
C100 C98 1.500 . S
C100 C101 1.371 . S
C100 C102 1.365 . S
C101 C100 1.371 . S
C101 C111 1.386 . S
C101 H119 0.931 . S
C102 C100 1.365 . S
C102 C103 1.409 . S
C102 H120 0.929 . S
C103 C102 1.409 . S
C103 C104 1.380 1_545 S
C103 H121 0.930 1_545 S
C104 C103 1.380 1_565 S
C104 C111 1.357 1_565 S
C105 C96 1.511 . S
C105 C106 1.341 . S
C105 C107 1.371 . S
C106 C105 1.341 . S
C106 C110 1.394 . S
C106 H122 0.930 . S
C107 C105 1.371 . S
C107 C108 1.392 . S
C107 H123 0.931 . S
C108 C107 1.392 . S
C108 C109 1.331 . S
C108 H126 0.932 . S
C109 C108 1.331 . S
C109 C110 1.336 . S
C110 C106 1.394 . S
C110 C109 1.336 . S
C110 H125 0.929 . S
C111 C101 1.386 . S
C111 C104 1.357 1_545 S
C111 H124 0.928 . S
H112 C88 0.931 . S
H113 C90 0.930 . S
H114 C92 0.929 . S
H115 C93 0.931 . S
H116 C95 0.930 . S
H117 C99 0.931 . S
H118 C97 0.931 . S
H119 C101 0.931 . S
H120 C102 0.929 . S
H121 C103 0.930 1_565 S
H122 C106 0.930 . S
H123 C107 0.931 . S
H124 C111 0.928 . S
H125 C110 0.929 . S
H126 C108 0.932 . S
C127 C128 1.386 . S
C127 C129 1.397 . S
C127 H151 0.931 . S
C128 C127 1.386 . S
C128 C132 1.397 . S
C129 C127 1.397 . S
C129 C130 1.384 . S
C129 H152 0.930 . S
C130 C129 1.384 . S
C130 C131 1.377 . S
C130 C133 1.481 . S
C131 C130 1.377 . S
C131 C132 1.389 . S
C131 H153 0.929 . S
C132 C128 1.397 . S
C132 C131 1.389 . S
C132 H154 0.931 . S
C133 C130 1.481 . S
C133 C134 1.387 . S
C133 C138 1.390 . S
C134 C133 1.387 . S
C134 C135 1.401 . S
C134 H155 0.930 . S
C135 C134 1.401 . S
C135 C136 1.376 . S
C135 C144 1.511 . S
C136 C135 1.376 . S
C136 C137 1.392 . S
C136 H157 0.931 . S
C137 C136 1.392 . S
C137 C138 1.361 . S
C137 C139 1.500 . S
C138 C133 1.390 . S
C138 C137 1.361 . S
C138 H156 0.931 . S
C139 C137 1.500 . S
C139 C140 1.371 . S
C139 C141 1.365 . S
C140 C139 1.371 . S
C140 C150 1.386 . S
C140 H158 0.931 . S
C141 C139 1.365 . S
C141 C142 1.409 . S
C141 H159 0.929 . S
C142 C141 1.409 . S
C142 C143 1.380 . S
C142 H160 0.930 . S
C143 C142 1.380 . S
C143 C150 1.357 . S
C144 C135 1.511 . S
C144 C145 1.341 . S
C144 C146 1.371 . S
C145 C144 1.341 . S
C145 C149 1.394 . S
C145 H161 0.930 . S
C146 C144 1.371 . S
C146 C147 1.392 . S
C146 H162 0.931 . S
C147 C146 1.392 . S
C147 C148 1.331 . S
C147 H165 0.932 . S
C148 C147 1.331 . S
C148 C149 1.336 . S
C149 C145 1.394 . S
C149 C148 1.336 . S
C149 H164 0.929 . S
C150 C140 1.386 . S
C150 C143 1.357 . S
C150 H163 0.928 . S
H151 C127 0.931 . S
H152 C129 0.930 . S
H153 C131 0.929 . S
H154 C132 0.931 . S
H155 C134 0.930 . S
H156 C138 0.931 . S
H157 C136 0.931 . S
H158 C140 0.931 . S
H159 C141 0.929 . S
H160 C142 0.930 . S
H161 C145 0.930 . S
H162 C146 0.931 . S
H163 C150 0.928 . S
H164 C149 0.929 . S
H165 C147 0.932 . S
C166 C167 1.386 . S
C166 C168 1.397 . S
C166 H190 0.931 . S
C167 C166 1.386 . S
C167 C171 1.397 . S
C168 C166 1.397 . S
C168 C169 1.384 . S
C168 H191 0.930 . S
C169 C168 1.384 . S
C169 C170 1.377 . S
C169 C172 1.481 . S
C170 C169 1.377 . S
C170 C171 1.389 . S
C170 H192 0.929 . S
C171 C167 1.397 . S
C171 C170 1.389 . S
C171 H193 0.931 . S
C172 C169 1.481 . S
C172 C173 1.387 . S
C172 C177 1.390 . S
C173 C172 1.387 . S
C173 C174 1.401 . S
C173 H194 0.930 . S
C174 C173 1.401 . S
C174 C175 1.376 . S
C174 C183 1.511 . S
C175 C174 1.376 . S
C175 C176 1.392 . S
C175 H196 0.931 . S
C176 C175 1.392 . S
C176 C177 1.361 . S
C176 C178 1.500 . S
C177 C172 1.390 . S
C177 C176 1.361 . S
C177 H195 0.931 . S
C178 C176 1.500 . S
C178 C179 1.371 . S
C178 C180 1.365 . S
C179 C178 1.371 . S
C179 C189 1.386 . S
C179 H197 0.931 . S
C180 C178 1.365 . S
C180 C181 1.409 . S
C180 H198 0.929 . S
C181 C180 1.409 . S
C181 C182 1.380 . S
C181 H199 0.930 . S
C182 C181 1.380 . S
C182 C189 1.357 . S
C183 C174 1.511 . S
C183 C184 1.341 . S
C183 C185 1.371 . S
C184 C183 1.341 . S
C184 C188 1.394 . S
C184 H200 0.930 . S
C185 C183 1.371 . S
C185 C186 1.392 . S
C185 H201 0.931 . S
C186 C185 1.392 . S
C186 C187 1.331 . S
C186 H204 0.932 . S
C187 C186 1.331 . S
C187 C188 1.336 . S
C188 C184 1.394 . S
C188 C187 1.336 . S
C188 H203 0.929 . S
C189 C179 1.386 . S
C189 C182 1.357 . S
C189 H202 0.928 . S
H190 C166 0.931 . S
H191 C168 0.930 . S
H192 C170 0.929 . S
H193 C171 0.931 . S
H194 C173 0.930 . S
H195 C177 0.931 . S
H196 C175 0.931 . S
H197 C179 0.931 . S
H198 C180 0.929 . S
H199 C181 0.930 . S
H200 C184 0.930 . S
H201 C185 0.931 . S
H202 C189 0.928 . S
H203 C188 0.929 . S
H204 C186 0.932 . S
C205 C206 1.386 . S
C205 C207 1.397 . S
C205 H229 0.931 . S
C206 C205 1.386 . S
C206 C210 1.397 . S
C207 C205 1.397 . S
C207 C208 1.384 . S
C207 H230 0.930 . S
C208 C207 1.384 . S
C208 C209 1.377 . S
C208 C211 1.481 . S
C209 C208 1.377 . S
C209 C210 1.389 . S
C209 H231 0.929 . S
C210 C206 1.397 . S
C210 C209 1.389 . S
C210 H232 0.931 . S
C211 C208 1.481 . S
C211 C212 1.387 . S
C211 C216 1.390 . S
C212 C211 1.387 . S
C212 C213 1.401 . S
C212 H233 0.930 . S
C213 C212 1.401 . S
C213 C214 1.376 . S
C213 C222 1.511 . S
C214 C213 1.376 . S
C214 C215 1.392 . S
C214 H235 0.931 . S
C215 C214 1.392 . S
C215 C216 1.361 . S
C215 C217 1.500 . S
C216 C211 1.390 . S
C216 C215 1.361 . S
C216 H234 0.931 . S
C217 C215 1.500 . S
C217 C218 1.371 . S
C217 C219 1.365 . S
C218 C217 1.371 . S
C218 C228 1.386 . S
C218 H236 0.931 . S
C219 C217 1.365 . S
C219 C220 1.409 . S
C219 H237 0.929 . S
C220 C219 1.409 . S
C220 C221 1.380 . S
C220 H238 0.930 . S
C221 C220 1.380 . S
C221 C228 1.357 . S
C222 C213 1.511 . S
C222 C223 1.341 . S
C222 C224 1.371 . S
C223 C222 1.341 . S
C223 C227 1.394 . S
C223 H239 0.930 . S
C224 C222 1.371 . S
C224 C225 1.392 . S
C224 H240 0.931 . S
C225 C224 1.392 . S
C225 C226 1.331 . S
C225 H243 0.932 . S
C226 C225 1.331 . S
C226 C227 1.336 . S
C227 C223 1.394 . S
C227 C226 1.336 . S
C227 H242 0.929 . S
C228 C218 1.386 . S
C228 C221 1.357 . S
C228 H241 0.928 . S
H229 C205 0.931 . S
H230 C207 0.930 . S
H231 C209 0.929 . S
H232 C210 0.931 . S
H233 C212 0.930 . S
H234 C216 0.931 . S
H235 C214 0.931 . S
H236 C218 0.931 . S
H237 C219 0.929 . S
H238 C220 0.930 . S
H239 C223 0.930 . S
H240 C224 0.931 . S
H241 C228 0.928 . S
H242 C227 0.929 . S
H243 C225 0.932 . S
C244 C245 1.386 . S
C244 C246 1.397 . S
C244 H268 0.931 . S
C245 C244 1.386 . S
C245 C249 1.397 . S
C246 C244 1.397 . S
C246 C247 1.384 . S
C246 H269 0.930 . S
C247 C246 1.384 . S
C247 C248 1.377 . S
C247 C250 1.481 . S
C248 C247 1.377 . S
C248 C249 1.389 . S
C248 H270 0.929 . S
C249 C245 1.397 . S
C249 C248 1.389 . S
C249 H271 0.931 . S
C250 C247 1.481 . S
C250 C251 1.387 . S
C250 C255 1.390 . S
C251 C250 1.387 . S
C251 C252 1.401 . S
C251 H272 0.930 . S
C252 C251 1.401 . S
C252 C253 1.376 . S
C252 C261 1.511 . S
C253 C252 1.376 . S
C253 C254 1.392 . S
C253 H274 0.931 . S
C254 C253 1.392 . S
C254 C255 1.361 . S
C254 C256 1.500 . S
C255 C250 1.390 . S
C255 C254 1.361 . S
C255 H273 0.931 . S
C256 C254 1.500 . S
C256 C257 1.371 . S
C256 C258 1.365 . S
C257 C256 1.371 . S
C257 C267 1.386 . S
C257 H275 0.931 . S
C258 C256 1.365 . S
C258 C259 1.409 . S
C258 H276 0.929 . S
C259 C258 1.409 . S
C259 C260 1.380 . S
C259 H277 0.930 . S
C260 C259 1.380 . S
C260 C267 1.357 . S
C261 C252 1.511 . S
C261 C262 1.341 . S
C261 C263 1.371 . S
C262 C261 1.341 . S
C262 C266 1.394 . S
C262 H278 0.930 . S
C263 C261 1.371 . S
C263 C264 1.392 . S
C263 H279 0.931 . S
C264 C263 1.392 . S
C264 C265 1.331 . S
C264 H282 0.932 . S
C265 C264 1.331 . S
C265 C266 1.336 . S
C266 C262 1.394 . S
C266 C265 1.336 . S
C266 H281 0.929 . S
C267 C257 1.386 . S
C267 C260 1.357 . S
C267 H280 0.928 . S
H268 C244 0.931 . S
H269 C246 0.930 . S
H270 C248 0.929 . S
H271 C249 0.931 . S
H272 C251 0.930 . S
H273 C255 0.931 . S
H274 C253 0.931 . S
H275 C257 0.931 . S
H276 C258 0.929 . S
H277 C259 0.930 . S
H278 C262 0.930 . S
H279 C263 0.931 . S
H280 C267 0.928 . S
H281 C266 0.929 . S
H282 C264 0.932 . S
C283 C284 1.386 . S
C283 C285 1.397 . S
C283 H307 0.931 . S
C284 C283 1.386 . S
C284 C288 1.380 1_556 S
C285 C283 1.397 . S
C285 C286 1.384 . S
C285 H308 0.930 . S
C286 C285 1.384 . S
C286 C287 1.377 . S
C286 C289 1.481 . S
C287 C286 1.377 . S
C287 C288 1.383 1_556 S
C287 H309 0.929 1_556 S
C288 C284 1.380 1_554 S
C288 C287 1.383 1_554 S
C288 H310 0.954 . S
C289 C286 1.481 . S
C289 C290 1.387 . S
C289 C294 1.390 . S
C290 C289 1.387 . S
C290 C291 1.401 . S
C290 H311 0.930 . S
C291 C290 1.401 . S
C291 C292 1.376 . S
C291 C300 1.511 . S
C292 C291 1.376 . S
C292 C293 1.392 . S
C292 H313 0.931 . S
C293 C292 1.392 . S
C293 C294 1.361 . S
C293 C295 1.500 . S
C294 C289 1.390 . S
C294 C293 1.361 . S
C294 H312 0.931 . S
C295 C293 1.500 . S
C295 C296 1.371 . S
C295 C297 1.365 . S
C296 C295 1.371 . S
C296 C306 1.386 . S
C296 H314 0.931 . S
C297 C295 1.365 . S
C297 C298 1.409 1_556 S
C297 H315 0.929 1_556 S
C298 C297 1.409 1_554 S
C298 C299 1.380 1_554 S
C298 H316 0.930 . S
C299 C298 1.380 1_556 S
C299 C306 1.357 . S
C300 C291 1.511 . S
C300 C301 1.341 . S
C300 C302 1.371 . S
C301 C300 1.341 . S
C301 C305 1.394 . S
C301 H317 0.930 . S
C302 C300 1.371 . S
C302 C303 1.392 . S
C302 H318 0.931 . S
C303 C302 1.392 . S
C303 C304 1.331 . S
C303 H321 0.932 . S
C304 C303 1.331 . S
C304 C305 1.336 . S
C305 C301 1.394 . S
C305 C304 1.336 . S
C305 H320 0.929 . S
C306 C296 1.386 . S
C306 C299 1.357 . S
C306 H319 0.928 . S
H307 C283 0.931 . S
H308 C285 0.930 . S
H309 C287 0.929 1_554 S
H310 C288 0.954 . S
H311 C290 0.930 . S
H312 C294 0.931 . S
H313 C292 0.931 . S
H314 C296 0.931 . S
H315 C297 0.929 1_554 S
H316 C298 0.930 . S
H317 C301 0.930 . S
H318 C302 0.931 . S
H319 C306 0.928 . S
H320 C305 0.929 . S
H321 C303 0.932 . S
C322 C323 1.386 . S
C322 C324 1.397 . S
C322 H346 0.931 . S
C323 C322 1.386 . S
C323 C327 1.397 . S
C324 C322 1.397 . S
C324 C325 1.384 . S
C324 H347 0.930 . S
C325 C324 1.384 . S
C325 C326 1.377 . S
C325 C328 1.481 . S
C326 C325 1.377 . S
C326 C327 1.389 . S
C326 H348 0.929 . S
C327 C323 1.397 . S
C327 C326 1.389 . S
C327 H349 0.931 . S
C328 C325 1.481 . S
C328 C329 1.387 . S
C328 C333 1.390 . S
C329 C328 1.387 . S
C329 C330 1.401 . S
C329 H350 0.930 . S
C330 C329 1.401 . S
C330 C331 1.376 . S
C330 C339 1.511 . S
C331 C330 1.376 . S
C331 C332 1.392 . S
C331 H352 0.931 . S
C332 C331 1.392 . S
C332 C333 1.361 . S
C332 C334 1.500 . S
C333 C328 1.390 . S
C333 C332 1.361 . S
C333 H351 0.931 . S
C334 C332 1.500 . S
C334 C335 1.371 . S
C334 C336 1.365 . S
C335 C334 1.371 . S
C335 C345 1.386 . S
C335 H353 0.931 . S
C336 C334 1.365 . S
C336 C337 1.409 . S
C336 H354 0.929 . S
C337 C336 1.409 . S
C337 C338 1.380 . S
C337 H355 0.930 . S
C338 C337 1.380 . S
C338 C345 1.357 . S
C339 C330 1.511 . S
C339 C340 1.341 . S
C339 C341 1.371 . S
C340 C339 1.341 . S
C340 C344 1.394 . S
C340 H356 0.930 . S
C341 C339 1.371 . S
C341 C342 1.392 . S
C341 H357 0.931 . S
C342 C341 1.392 . S
C342 C343 1.331 . S
C342 H360 0.932 . S
C343 C342 1.331 . S
C343 C344 1.336 . S
C344 C340 1.394 . S
C344 C343 1.336 . S
C344 H359 0.929 . S
C345 C335 1.386 . S
C345 C338 1.357 . S
C345 H358 0.928 . S
H346 C322 0.931 . S
H347 C324 0.930 . S
H348 C326 0.929 . S
H349 C327 0.931 . S
H350 C329 0.930 . S
H351 C333 0.931 . S
H352 C331 0.931 . S
H353 C335 0.931 . S
H354 C336 0.929 . S
H355 C337 0.930 . S
H356 C340 0.930 . S
H357 C341 0.931 . S
H358 C345 0.928 . S
H359 C344 0.929 . S
H360 C342 0.932 . S
C361 C362 1.386 . S
C361 C363 1.397 . S
C361 H385 0.931 . S
C362 C361 1.386 . S
C362 C366 1.397 . S
C363 C361 1.397 . S
C363 C364 1.384 1_455 S
C363 H386 0.930 . S
C364 C363 1.384 1_655 S
C364 C365 1.377 . S
C364 C367 1.481 . S
C365 C364 1.377 . S
C365 C366 1.389 1_655 S
C365 H387 0.929 . S
C366 C362 1.397 . S
C366 C365 1.389 1_455 S
C366 H388 0.931 . S
C367 C364 1.481 . S
C367 C368 1.387 . S
C367 C372 1.390 . S
C368 C367 1.387 . S
C368 C369 1.401 . S
C368 H389 0.930 . S
C369 C368 1.401 . S
C369 C370 1.376 . S
C369 C378 1.511 . S
C370 C369 1.376 . S
C370 C371 1.392 . S
C370 H391 0.931 . S
C371 C370 1.392 . S
C371 C372 1.361 . S
C371 C373 1.500 . S
C372 C367 1.390 . S
C372 C371 1.361 . S
C372 H390 0.931 . S
C373 C371 1.500 . S
C373 C374 1.371 . S
C373 C375 1.365 . S
C374 C373 1.371 . S
C374 C384 1.386 . S
C374 H392 0.931 . S
C375 C373 1.365 . S
C375 C376 1.409 . S
C375 H393 0.929 . S
C376 C375 1.409 . S
C376 C377 1.380 1_565 S
C376 H394 0.930 . S
C377 C376 1.380 1_545 S
C377 C384 1.357 1_545 S
C378 C369 1.511 . S
C378 C379 1.341 . S
C378 C380 1.371 . S
C379 C378 1.341 . S
C379 C383 1.394 . S
C379 H395 0.930 . S
C380 C378 1.371 . S
C380 C381 1.392 . S
C380 H396 0.931 . S
C381 C380 1.392 . S
C381 C382 1.331 . S
C381 H399 0.932 . S
C382 C381 1.331 . S
C382 C383 1.336 . S
C383 C379 1.394 . S
C383 C382 1.336 . S
C383 H398 0.929 . S
C384 C374 1.386 . S
C384 C377 1.357 1_565 S
C384 H397 0.928 1_565 S
H385 C361 0.931 . S
H386 C363 0.930 . S
H387 C365 0.929 . S
H388 C366 0.931 . S
H389 C368 0.930 . S
H390 C372 0.931 . S
H391 C370 0.931 . S
H392 C374 0.931 . S
H393 C375 0.929 . S
H394 C376 0.930 . S
H395 C379 0.930 . S
H396 C380 0.931 . S
H397 C384 0.928 1_545 S
H398 C383 0.929 . S
H399 C381 0.932 . S
C400 C401 1.369 . S
C400 C402 1.419 . S
C400 H404 0.930 . S
C401 C400 1.369 . S
C401 C410 1.429 . S
C402 C400 1.419 . S
C402 C403 1.363 . S
C402 H405 0.929 . S
C403 C402 1.363 . S
C403 C409 1.428 . S
H404 C400 0.930 . S
H405 C402 0.929 . S
S406 N407 1.613 1_545 S
S406 N408 1.610 . S
N407 S406 1.613 1_565 S
N407 C410 1.350 . S
N408 S406 1.610 . S
N408 C409 1.351 1_545 S
C409 C403 1.428 . S
C409 N408 1.351 1_565 S
C409 C410 1.434 . S
C410 C401 1.429 . S
C410 N407 1.350 . S
C410 C409 1.434 . S
C411 C412 1.369 . S
C411 C413 1.419 . S
C411 H415 0.930 . S
C412 C411 1.369 . S
C412 C421 1.429 . S
C413 C411 1.419 . S
C413 C414 1.363 . S
C413 H416 0.929 . S
C414 C413 1.363 . S
C414 C420 1.428 . S
H415 C411 0.930 . S
H416 C413 0.929 . S
S417 N418 1.613 . S
S417 N419 1.610 . S
N418 S417 1.613 . S
N418 C421 1.350 . S
N419 S417 1.610 . S
N419 C420 1.351 . S
C420 C414 1.428 . S
C420 N419 1.351 . S
C420 C421 1.434 . S
C421 C412 1.429 . S
C421 N418 1.350 . S
C421 C420 1.434 . S
C422 C423 1.369 . S
C422 C424 1.419 . S
C422 H426 0.930 . S
C423 C422 1.369 . S
C423 C432 1.429 . S
C424 C422 1.419 . S
C424 C425 1.363 1_545 S
C424 H427 0.929 . S
C425 C424 1.363 1_565 S
C425 C431 1.428 . S
H426 C422 0.930 . S
H427 C424 0.929 . S
S428 N429 1.613 1_565 S
S428 N430 1.610 . S
N429 S428 1.613 1_545 S
N429 C432 1.350 . S
N430 S428 1.610 . S
N430 C431 1.351 . S
C431 C425 1.428 . S
C431 N430 1.351 . S
C431 C432 1.434 1_565 S
C432 C423 1.429 . S
C432 N429 1.350 . S
C432 C431 1.434 1_545 S
C433 C434 1.369 . S
C433 C435 1.419 . S
C433 H437 0.930 . S
C434 C433 1.369 . S
C434 C443 1.429 . S
C435 C433 1.419 . S
C435 C436 1.363 . S
C435 H438 0.929 . S
C436 C435 1.363 . S
C436 C442 1.428 . S
H437 C433 0.930 . S
H438 C435 0.929 . S
S439 N440 1.613 . S
S439 N441 1.610 . S
N440 S439 1.613 . S
N440 C443 1.350 . S
N441 S439 1.610 . S
N441 C442 1.351 . S
C442 C436 1.428 . S
C442 N441 1.351 . S
C442 C443 1.434 . S
C443 C434 1.429 . S
C443 N440 1.350 . S
C443 C442 1.434 . S
C444 C445 1.369 . S
C444 C446 1.419 . S
C444 H448 0.930 . S
C445 C444 1.369 . S
C445 C454 1.429 . S
C446 C444 1.419 . S
C446 C447 1.363 . S
C446 H449 0.929 . S
C447 C446 1.363 . S
C447 C453 1.428 . S
H448 C444 0.930 . S
H449 C446 0.929 . S
S450 N451 1.613 . S
S450 N452 1.610 . S
N451 S450 1.613 . S
N451 C454 1.350 . S
N452 S450 1.610 . S
N452 C453 1.351 . S
C453 C447 1.428 . S
C453 N452 1.351 . S
C453 C454 1.434 . S
C454 C445 1.429 . S
C454 N451 1.350 . S
C454 C453 1.434 . S
C455 C456 1.369 . S
C455 C457 1.419 1_655 S
C455 H459 0.930 . S
C456 C455 1.369 . S
C456 C465 1.449 . S
C457 C455 1.419 1_455 S
C457 C458 1.363 . S
C457 H460 0.929 . S
C458 C457 1.363 . S
C458 C464 1.428 . S
H459 C455 0.930 . S
H460 C457 0.929 . S
S461 N462 1.613 1_455 S
S461 N463 1.610 . S
N462 S461 1.613 1_655 S
N462 C465 1.353 1_554 S
N463 S461 1.610 . S
N463 C464 1.351 1_554 S
C464 C458 1.428 . S
C464 N463 1.351 1_556 S
C464 C465 1.409 1_455 S
C465 C456 1.449 . S
C465 N462 1.353 1_556 S
C465 C464 1.409 1_655 S
C466 C467 1.369 . S
C466 C468 1.419 . S
C466 H470 0.930 . S
C467 C466 1.369 . S
C467 C476 1.429 . S
C468 C466 1.419 . S
C468 C469 1.363 . S
C468 H471 0.929 . S
C469 C468 1.363 . S
C469 C475 1.428 . S
H470 C466 0.930 . S
H471 C468 0.929 . S
S472 N473 1.613 . S
S472 N474 1.610 . S
N473 S472 1.613 . S
N473 C476 1.350 . S
N474 S472 1.610 . S
N474 C475 1.351 . S
C475 C469 1.428 . S
C475 N474 1.351 . S
C475 C476 1.434 . S
C476 C467 1.429 . S
C476 N473 1.350 . S
C476 C475 1.434 . S
C477 C478 1.369 . S
C477 C479 1.419 . S
C477 H481 0.930 . S
C478 C477 1.369 . S
C478 C487 1.429 . S
C479 C477 1.419 . S
C479 C480 1.363 . S
C479 H482 0.929 . S
C480 C479 1.363 . S
C480 C486 1.428 . S
H481 C477 0.930 . S
H482 C479 0.929 . S
S483 N484 1.613 . S
S483 N485 1.610 . S
N484 S483 1.613 . S
N484 C487 1.350 . S
N485 S483 1.610 . S
N485 C486 1.351 . S
C486 C480 1.428 . S
C486 N485 1.351 . S
C486 C487 1.434 . S
C487 C478 1.429 . S
C487 N484 1.350 . S
C487 C486 1.434 . S
C488 C489 1.369 . S
C488 C490 1.419 . S
C488 H492 0.930 . S
C489 C488 1.369 . S
C489 C498 1.429 . S
C490 C488 1.419 . S
C490 C491 1.363 . S
C490 H493 0.929 . S
C491 C490 1.363 . S
C491 C497 1.428 . S
H492 C488 0.930 . S
H493 C490 0.929 . S
S494 N495 1.613 . S
S494 N496 1.610 . S
N495 S494 1.613 . S
N495 C498 1.350 . S
N496 S494 1.610 . S
N496 C497 1.351 . S
C497 C491 1.428 . S
C497 N496 1.351 . S
C497 C498 1.434 . S
C498 C489 1.429 . S
C498 N495 1.350 . S
C498 C497 1.434 . S
C499 C500 1.369 . S
C499 C501 1.419 . S
C499 H503 0.930 . S
C500 C499 1.369 . S
C500 C509 1.429 . S
C501 C499 1.419 . S
C501 C502 1.363 . S
C501 H504 0.929 . S
C502 C501 1.363 . S
C502 C508 1.428 . S
H503 C499 0.930 . S
H504 C501 0.929 . S
S505 N506 1.613 . S
S505 N507 1.610 . S
N506 S505 1.613 . S
N506 C509 1.350 . S
N507 S505 1.610 . S
N507 C508 1.351 . S
C508 C502 1.428 . S
C508 N507 1.351 . S
C508 C509 1.434 . S
C509 C500 1.429 . S
C509 N506 1.350 . S
C509 C508 1.434 . S
C510 C511 1.369 . S
C510 C512 1.419 1_565 S
C510 H514 0.930 . S
C511 C510 1.369 . S
C511 C520 1.429 . S
C512 C510 1.419 1_545 S
C512 C513 1.365 . S
C512 H515 0.929 . S
C513 C512 1.365 . S
C513 C519 1.432 1_545 S
H514 C510 0.930 . S
H515 C512 0.929 . S
S516 N517 1.613 . S
S516 N518 1.610 . S
N517 S516 1.613 . S
N517 C520 1.350 . S
N518 S516 1.610 . S
N518 C519 1.351 . S
C519 C513 1.432 1_565 S
C519 N518 1.351 . S
C519 C520 1.434 . S
C520 C511 1.429 . S
C520 N517 1.350 . S
C520 C519 1.434 . S
C521 C522 1.369 . S
C521 C523 1.419 . S
C521 H525 0.930 . S
C522 C521 1.369 . S
C522 C531 1.429 . S
C523 C521 1.419 . S
C523 C524 1.363 . S
C523 H526 0.929 . S
C524 C523 1.363 . S
C524 C530 1.428 . S
H525 C521 0.930 . S
H526 C523 0.929 . S
S527 N528 1.613 . S
S527 N529 1.610 . S
N528 S527 1.613 . S
N528 C531 1.350 . S
N529 S527 1.610 . S
N529 C530 1.351 . S
C530 C524 1.428 . S
C530 N529 1.351 . S
C530 C531 1.434 . S
C531 C522 1.429 . S
C531 N528 1.350 . S
C531 C530 1.434 . S
C532 C533 1.369 . S
C532 C534 1.419 . S
C532 H536 0.930 . S
C533 C532 1.369 . S
C533 C542 1.429 . S
C534 C532 1.419 . S
C534 C535 1.363 . S
C534 H537 0.929 . S
C535 C534 1.363 . S
C535 C541 1.428 . S
H536 C532 0.930 . S
H537 C534 0.929 . S
S538 N539 1.613 . S
S538 N540 1.610 . S
N539 S538 1.613 . S
N539 C542 1.350 . S
N540 S538 1.610 . S
N540 C541 1.351 . S
C541 C535 1.428 . S
C541 N540 1.351 . S
C541 C542 1.434 . S
C542 C533 1.429 . S
C542 N539 1.350 . S
C542 C541 1.434 . S
C543 C544 1.369 . S
C543 C545 1.419 1_455 S
C543 H547 0.930 . S
C544 C543 1.369 . S
C544 C553 1.429 . S
C545 C543 1.419 1_655 S
C545 C546 1.363 . S
C545 H548 0.929 . S
C546 C545 1.363 . S
C546 C552 1.428 . S
H547 C543 0.930 . S
H548 C545 0.929 . S
S549 N550 1.613 1_655 S
S549 N551 1.610 . S
N550 S549 1.613 1_455 S
N550 C553 1.350 . S
N551 S549 1.610 . S
N551 C552 1.351 . S
C552 C546 1.428 . S
C552 N551 1.351 . S
C552 C553 1.434 1_655 S
C553 C544 1.429 . S
C553 N550 1.350 . S
C553 C552 1.434 1_455 S
C554 C555 1.369 . S
C554 C556 1.419 . S
C554 H558 0.930 . S
C555 C554 1.369 . S
C555 C564 1.429 . S
C556 C554 1.419 . S
C556 C557 1.363 . S
C556 H559 0.929 . S
C557 C556 1.363 . S
C557 C563 1.428 . S
H558 C554 0.930 . S
H559 C556 0.929 . S
S560 N561 1.613 . S
S560 N562 1.610 . S
N561 S560 1.613 . S
N561 C564 1.350 . S
N562 S560 1.610 . S
N562 C563 1.351 . S
C563 C557 1.428 . S
C563 N562 1.351 . S
C563 C564 1.434 . S
C564 C555 1.429 . S
C564 N561 1.350 . S
C564 C563 1.434 . S
C565 C566 1.369 . S
C565 C567 1.419 . S
C565 H569 0.930 . S
C566 C565 1.369 . S
C566 C575 1.429 . S
C567 C565 1.419 . S
C567 C568 1.363 . S
C567 H570 0.929 . S
C568 C567 1.363 . S
C568 C574 1.428 . S
H569 C565 0.930 . S
H570 C567 0.929 . S
S571 N572 1.613 . S
S571 N573 1.610 . S
N572 S571 1.613 . S
N572 C575 1.350 . S
N573 S571 1.610 . S
N573 C574 1.351 . S
C574 C568 1.428 . S
C574 N573 1.351 . S
C574 C575 1.434 . S
C575 C566 1.429 . S
C575 N572 1.350 . S
C575 C574 1.434 . S
C576 C577 1.369 . S
C576 C578 1.419 . S
C576 H580 0.930 . S
C577 C576 1.369 . S
C577 C586 1.429 . S
C578 C576 1.419 . S
C578 C579 1.363 . S
C578 H581 0.929 . S
C579 C578 1.363 . S
C579 C585 1.428 . S
H580 C576 0.930 . S
H581 C578 0.929 . S
S582 N583 1.613 . S
S582 N584 1.610 . S
N583 S582 1.613 . S
N583 C586 1.350 . S
N584 S582 1.610 . S
N584 C585 1.351 . S
C585 C579 1.428 . S
C585 N584 1.351 . S
C585 C586 1.434 . S
C586 C577 1.429 . S
C586 N583 1.350 . S
C586 C585 1.434 . S
C587 C588 1.369 . S
C587 C589 1.419 . S
C587 H591 0.930 . S
C588 C587 1.369 . S
C588 C597 1.429 . S
C589 C587 1.419 . S
C589 C590 1.363 . S
C589 H592 0.929 . S
C590 C589 1.363 . S
C590 C596 1.428 . S
H591 C587 0.930 . S
H592 C589 0.929 . S
S593 N594 1.613 . S
S593 N595 1.610 . S
N594 S593 1.613 . S
N594 C597 1.350 . S
N595 S593 1.610 . S
N595 C596 1.351 . S
C596 C590 1.428 . S
C596 N595 1.351 . S
C596 C597 1.434 . S
C597 C588 1.429 . S
C597 N594 1.350 . S
C597 C596 1.434 . S
C598 C599 1.369 . S
C598 C600 1.419 . S
C598 H602 0.930 . S
C599 C598 1.369 . S
C599 C608 1.429 . S
C600 C598 1.419 . S
C600 C601 1.363 . S
C600 H603 0.929 . S
C601 C600 1.363 . S
C601 C607 1.428 . S
H602 C598 0.930 . S
H603 C600 0.929 . S
S604 N605 1.613 . S
S604 N606 1.610 . S
N605 S604 1.613 . S
N605 C608 1.350 . S
N606 S604 1.610 . S
N606 C607 1.351 . S
C607 C601 1.428 . S
C607 N606 1.351 . S
C607 C608 1.434 . S
C608 C599 1.429 . S
C608 N605 1.350 . S
C608 C607 1.434 . S
C609 C610 1.369 . S
C609 C611 1.419 . S
C609 H613 0.930 . S
C610 C609 1.369 . S
C610 C619 1.429 . S
C611 C609 1.419 . S
C611 C612 1.363 . S
C611 H614 0.929 . S
C612 C611 1.363 . S
C612 C618 1.428 . S
H613 C609 0.930 . S
H614 C611 0.929 . S
S615 N616 1.613 . S
S615 N617 1.610 . S
N616 S615 1.613 . S
N616 C619 1.350 . S
N617 S615 1.610 . S
N617 C618 1.351 . S
C618 C612 1.428 . S
C618 N617 1.351 . S
C618 C619 1.434 . S
C619 C610 1.429 . S
C619 N616 1.350 . S
C619 C618 1.434 . S
C620 C621 1.369 . S
C620 C622 1.419 . S
C620 H624 0.930 . S
C621 C620 1.369 . S
C621 C630 1.429 . S
C622 C620 1.419 . S
C622 C623 1.363 . S
C622 H625 0.929 . S
C623 C622 1.363 . S
C623 C629 1.428 . S
H624 C620 0.930 . S
H625 C622 0.929 . S
S626 N627 1.613 . S
S626 N628 1.610 . S
N627 S626 1.613 . S
N627 C630 1.350 . S
N628 S626 1.610 . S
N628 C629 1.351 . S
C629 C623 1.428 . S
C629 N628 1.351 . S
C629 C630 1.434 . S
C630 C621 1.429 . S
C630 N627 1.350 . S
C630 C629 1.434 . S
C631 C632 1.369 . S
C631 C633 1.419 . S
C631 H635 0.930 . S
C632 C631 1.369 . S
C632 C641 1.429 . S
C633 C631 1.419 . S
C633 C634 1.363 . S
C633 H636 0.929 . S
C634 C633 1.363 . S
C634 C640 1.428 . S
H635 C631 0.930 . S
H636 C633 0.929 . S
S637 N638 1.613 . S
S637 N639 1.610 . S
N638 S637 1.613 . S
N638 C641 1.350 . S
N639 S637 1.610 . S
N639 C640 1.351 . S
C640 C634 1.428 . S
C640 N639 1.351 . S
C640 C641 1.434 . S
C641 C632 1.429 . S
C641 N638 1.350 . S
C641 C640 1.434 . S
C642 C643 1.369 . S
C642 C644 1.419 . S
C642 H646 0.930 . S
C643 C642 1.369 . S
C643 C652 1.429 . S
C644 C642 1.419 . S
C644 C645 1.363 . S
C644 H647 0.929 . S
C645 C644 1.363 . S
C645 C651 1.428 . S
H646 C642 0.930 . S
H647 C644 0.929 . S
S648 N649 1.613 . S
S648 N650 1.610 . S
N649 S648 1.613 . S
N649 C652 1.350 . S
N650 S648 1.610 . S
N650 C651 1.351 . S
C651 C645 1.428 . S
C651 N650 1.351 . S
C651 C652 1.434 . S
C652 C643 1.429 . S
C652 N649 1.350 . S
C652 C651 1.434 . S
C653 C654 1.369 . S
C653 C655 1.419 . S
C653 H657 0.930 . S
C654 C653 1.369 . S
C654 C663 1.429 1_554 S
C655 C653 1.419 . S
C655 C656 1.363 1_554 S
C655 H658 0.929 . S
C656 C655 1.363 1_556 S
C656 C662 1.428 . S
H657 C653 0.930 . S
H658 C655 0.929 . S
S659 N660 1.613 . S
S659 N661 1.610 . S
N660 S659 1.613 . S
N660 C663 1.350 . S
N661 S659 1.610 . S
N661 C662 1.351 . S
C662 C656 1.428 . S
C662 N661 1.351 . S
C662 C663 1.434 . S
C663 C654 1.429 1_556 S
C663 N660 1.350 . S
C663 C662 1.434 . S
C401 C7 1.736 . S
C403 C104 1.610 . S
C412 C37 1.770 . S
C414 C143 1.576 . S
C423 C54 1.911 . S
C425 C182 1.716 . S
C436 C206 1.569 . S
C434 C87 1.606 . S
C447 C245 1.582 . S
C445 C30 1.681 . S
C456 C51 1.637 . S
C458 C284 1.589 . S
C467 C84 1.965 . S
C469 C338 1.756 . S
C478 C10 1.717 . S
C480 C362 1.548 . S
C489 C59 1.740 . S
C491 C377 1.617 . S
C502 C260 1.545 . S
C500 C74 1.726 . S
C513 C299 1.763 1_554 S
C511 C18 1.960 . S
C522 C32 1.622 . S
C524 C323 1.562 . S
C535 C128 1.615 . S
C533 C73 1.742 . S
C544 C15 1.628 . S
C546 C167 1.581 . S
C557 C221 1.790 . S
C555 C43 1.972 . S
C568 C89 1.549 . S
C566 C62 1.723 . S
C579 C343 1.650 . S
C577 C21 1.749 . S
C590 C382 1.450 . S
C588 C29 1.466 . S
C599 C52 1.456 . S
C601 C265 1.409 . S
C612 C304 1.614 . S
C610 C81 1.724 . S
C623 C187 1.627 . S
C621 C40 1.682 . S
C632 C65 1.706 . S
C634 C226 1.596 . S
C645 C109 1.403 . S
C643 C76 1.462 . S
C656 C148 1.433 . S
C654 C8 1.493 . S
