# Generated by pormake.
# Topology rtl, (3,6)-cn, num edge types: 1
# Building blocks:
#     Node 0, Type 0, BuildingBlock: ESEHIV_clean_linker_0, # of connection points: 3
#     Node 1, Type 0, BuildingBlock: ESEHIV_clean_linker_0, # of connection points: 3
#     Node 2, Type 0, BuildingBlock: ESEHIV_clean_linker_0, # of connection points: 3
#     Node 3, Type 0, BuildingBlock: ESEHIV_clean_linker_0, # of connection points: 3
#     Node 4, Type 1, BuildingBlock: VOLQOD_clean_sbu_1, # of connection points: 6
#     Node 5, Type 1, BuildingBlock: VOLQOD_clean_sbu_1, # of connection points: 6
#     Edge 6, Type (0, 1), BuildingBlock: ZUJKAS_clean_linker_0, # of connection points: 2
#     Edge 7, Type (0, 1), BuildingBlock: ZUJKAS_clean_linker_0, # of connection points: 2
#     Edge 8, Type (0, 1), BuildingBlock: ZUJKAS_clean_linker_0, # of connection points: 2
#     Edge 9, Type (0, 1), BuildingBlock: ZUJKAS_clean_linker_0, # of connection points: 2
#     Edge 10, Type (0, 1), BuildingBlock: ZUJKAS_clean_linker_0, # of connection points: 2
#     Edge 11, Type (0, 1), BuildingBlock: ZUJKAS_clean_linker_0, # of connection points: 2
#     Edge 12, Type (0, 1), BuildingBlock: ZUJKAS_clean_linker_0, # of connection points: 2
#     Edge 13, Type (0, 1), BuildingBlock: ZUJKAS_clean_linker_0, # of connection points: 2
#     Edge 14, Type (0, 1), BuildingBlock: ZUJKAS_clean_linker_0, # of connection points: 2
#     Edge 15, Type (0, 1), BuildingBlock: ZUJKAS_clean_linker_0, # of connection points: 2
#     Edge 16, Type (0, 1), BuildingBlock: ZUJKAS_clean_linker_0, # of connection points: 2
#     Edge 17, Type (0, 1), BuildingBlock: ZUJKAS_clean_linker_0, # of connection points: 2
# Relax obj value: 0.079
# Max RMSD: 0.156
# Mean RMSD: 0.088
data_MOF--net-rtl--node1-VOLQOD_clean_sbu_1--node2-ESEHIV_clean_linker_0--edge1-ZUJKAS_clean_linker_0
_symmetry_space_group_name_H-M    P1
_symmetry_Int_Tables_number       1
_symmetry_cell_setting            triclinic
loop_
_symmetry_equiv_pos_as_xyz
'x, y, z'
_cell_length_a     45.354956
_cell_length_b     39.324312
_cell_length_c     29.51415
_cell_angle_alpha  90.091255
_cell_angle_beta   90.432442
_cell_angle_gamma 89.961267
loop_
_atom_site_label
_atom_site_type_symbol
_atom_site_fract_x
_atom_site_fract_y
_atom_site_fract_z
_atom_type_partial_charge
H0 H 0.07202 0.75317 0.00608 0.0
H1 H 0.13863 0.6924 0.07125 0.0
H2 H 0.1358 0.69984 0.92581 0.0
C3 C 0.09049 0.73575 0.0038 0.0
C4 C 0.10211 0.72776 0.96116 0.0
C5 C 0.10353 0.72316 0.04365 0.0
C6 C 0.128 0.70143 0.04053 0.0
C7 C 0.1397 0.69269 -0.00192 0.0
C8 C 0.12643 0.70575 0.95856 0.0
H9 H 0.58153 0.74562 0.50673 0.0
H10 H 0.64195 0.8082 0.4334 0.0
H11 H 0.6357 0.81772 0.5786 0.0
C12 C 0.59756 0.76607 0.50662 0.0
C13 C 0.60666 0.78095 0.54762 0.0
C14 C 0.60996 0.77615 0.46548 0.0
C15 C 0.63156 0.80159 0.46514 0.0
C16 C 0.64141 0.8164 0.50596 0.0
C17 C 0.62848 0.80626 0.547 0.0
H18 H 0.92634 0.24559 0.00266 0.0
H19 H 0.86481 0.31141 0.06981 0.0
H20 H 0.86651 0.30626 0.92387 0.0
C21 C 0.90924 0.26485 0.00116 0.0
C22 C 0.89806 0.27483 0.95889 0.0
C23 C 0.89769 0.27823 0.04137 0.0
C24 C 0.87449 0.30188 0.03884 0.0
C25 C 0.86293 0.31211 0.99658 0.0
C26 C 0.87532 0.2989 0.95667 0.0
H27 H 0.42617 0.25854 0.50524 0.0
H28 H 0.36609 0.19045 0.57153 0.0
H29 H 0.36703 0.19706 0.42618 0.0
C30 C 0.40976 0.23856 0.50362 0.0
C31 C 0.39868 0.22858 0.46114 0.0
C32 C 0.39826 0.225 0.54386 0.0
C33 C 0.37552 0.20074 0.54088 0.0
C34 C 0.36374 0.19102 0.49861 0.0
C35 C 0.37581 0.20466 0.45892 0.0
O36 O 0.93004 0.00455 0.49751 0.0
Zn37 Zn 0.96756 0.03174 0.49871 0.0
O38 O 0.00241 0.00239 0.49872 0.0
Zn39 Zn 0.02622 0.01178 0.55277 0.0
Zn40 Zn 0.98978 0.95482 0.49882 0.0
Zn41 Zn 0.02601 0.01131 0.44476 0.0
O42 O 0.06739 0.02586 0.53657 0.0
O43 O 0.06722 0.02614 0.46142 0.0
O44 O 0.96677 0.06181 0.55387 0.0
O45 O 0.00879 0.04985 0.58957 0.0
O46 O 0.02933 0.97027 0.59235 0.0
O47 O 0.00464 0.9305 0.55445 0.0
O48 O 0.00519 0.92977 0.44442 0.0
O49 O 0.96717 0.06231 0.44423 0.0
O50 O 0.02969 0.96917 0.40631 0.0
O51 O 0.00773 0.04846 0.40679 0.0
C52 C 0.92469 0.97278 0.49705 0.0
C53 C 0.08049 0.03061 0.49913 0.0
C54 C 0.01992 0.93987 0.58862 0.0
C55 C 0.98494 0.06678 0.58628 0.0
C56 C 0.02056 0.93872 0.41055 0.0
C57 C 0.98443 0.0663 0.41085 0.0
O58 O 0.94549 0.95101 0.4975 0.0
O59 O 0.5745 0.50316 -0.00082 0.0
Zn60 Zn 0.53783 0.53196 0.00111 0.0
O61 O 0.50216 0.50397 0.00111 0.0
Zn62 Zn 0.47886 0.51321 0.94648 0.0
Zn63 Zn 0.51325 0.4559 0.00242 0.0
Zn64 Zn 0.47867 0.51483 0.05448 0.0
O65 O 0.43771 0.52858 0.96199 0.0
O66 O 0.43802 0.53067 0.03711 0.0
O67 O 0.53831 0.56332 0.94727 0.0
O68 O 0.49729 0.5504 0.90957 0.0
O69 O 0.4753 0.47136 0.9074 0.0
O70 O 0.49641 0.43075 0.94866 0.0
O71 O 0.49855 0.43298 0.05873 0.0
O72 O 0.54025 0.56118 0.05702 0.0
O73 O 0.47415 0.47379 0.09453 0.0
O74 O 0.49774 0.55181 0.09172 0.0
C75 C 0.57885 0.47117 -0.00039 0.0
C76 C 0.42478 0.53461 -0.00069 0.0
C77 C 0.48258 0.44037 0.91322 0.0
C78 C 0.52075 0.56791 0.91397 0.0
C79 C 0.48323 0.44319 0.09208 0.0
C80 C 0.52241 0.5671 0.08919 0.0
O81 O 0.55739 0.45033 0.00103 0.0
H82 H 0.35138 0.13313 0.54691 0.0
H83 H 0.30498 0.10105 0.54694 0.0
H84 H 0.26931 0.16828 0.44507 0.0
H85 H 0.3151 0.20083 0.44555 0.0
H86 H 0.23375 0.15968 0.52347 0.0
H87 H 0.2691 0.03639 0.4486 0.0
H88 H 0.29123 0.05251 0.49471 0.0
H89 H 0.29003 0.07512 0.44197 0.0
C90 C 0.33369 0.14089 0.52433 0.0
C91 C 0.33694 0.16942 0.4961 0.0
C92 C 0.30735 0.1224 0.52411 0.0
C93 C 0.28391 0.13217 0.49568 0.0
C94 C 0.28727 0.16024 0.467 0.0
H95 H 0.11642 0.04175 0.42641 0.0
H96 H 0.1666 0.06454 0.42735 0.0
C97 C 0.31353 0.17864 0.4671 0.0
C98 C 0.25507 0.11477 0.49781 0.0
H99 H 0.21989 0.03996 0.47444 0.0
C100 C 0.2307 0.13348 0.51289 0.0
C101 C 0.25127 0.08069 0.48366 0.0
C102 C 0.27669 0.05993 0.46597 0.0
C103 C 0.20249 0.11903 0.51416 0.0
C104 C 0.19869 0.08485 0.50041 0.0
C105 C 0.22304 0.06609 0.48525 0.0
C106 C 0.16929 0.06869 0.50033 0.0
C107 C 0.17684 0.14063 0.52923 0.0
C108 C 0.15453 0.06293 0.54115 0.0
C109 C 0.12587 0.04995 0.5408 0.0
C110 C 0.11148 0.04249 0.49955 0.0
C111 C 0.12675 0.04739 0.45875 0.0
C112 C 0.15546 0.06029 0.45918 0.0
H113 H 0.18247 0.16812 0.53 0.0
H114 H 0.15752 0.13689 0.50641 0.0
H115 H 0.17029 0.13294 0.56389 0.0
H116 H 0.16504 0.06894 0.57325 0.0
H117 H 0.11486 0.04633 0.57287 0.0
H118 H 0.18751 0.70526 0.94513 0.0
H119 H 0.23416 0.67425 0.94337 0.0
H120 H 0.20185 0.60479 0.04439 0.0
H121 H 0.15466 0.63527 0.04558 0.0
H122 H 0.27184 0.66559 0.01895 0.0
H123 H 0.23651 0.54181 0.94526 0.0
H124 H 0.21447 0.57995 0.94061 0.0
H125 H 0.21542 0.55654 0.99278 0.0
C126 C 0.19004 0.68294 0.96626 0.0
C127 C 0.16732 0.67256 0.99528 0.0
C128 C 0.21679 0.66541 0.96543 0.0
C129 C 0.2213 0.63707 0.99339 0.0
C130 C 0.1986 0.62631 0.02204 0.0
H131 H 0.39113 0.55322 0.07185 0.0
H132 H 0.34124 0.57669 0.07068 0.0
C133 C 0.1718 0.64391 0.02297 0.0
C134 C 0.25046 0.62022 0.99443 0.0
H135 H 0.28587 0.54547 0.97202 0.0
C136 C 0.27493 0.63934 0.00869 0.0
C137 C 0.25435 0.58607 0.98067 0.0
C138 C 0.22889 0.56486 0.96359 0.0
C139 C 0.30327 0.62513 0.00988 0.0
C140 C 0.30712 0.5908 0.99694 0.0
C141 C 0.28271 0.57172 0.98225 0.0
C142 C 0.33653 0.5746 -0.00224 0.0
C143 C 0.32898 0.6471 0.02426 0.0
C144 C 0.35002 0.56487 0.95716 0.0
C145 C 0.37857 0.55144 0.95763 0.0
C146 C 0.39401 0.54732 -0.00121 0.0
C147 C 0.37999 0.55622 0.03951 0.0
C148 C 0.3515 0.56971 0.03896 0.0
H149 H 0.32328 0.67459 0.02372 0.0
H150 H 0.33568 0.64032 0.05933 0.0
H151 H 0.34819 0.64282 0.00185 0.0
H152 H 0.33871 0.56839 0.92504 0.0
H153 H 0.38862 0.54471 0.92568 0.0
H154 H 0.68787 0.81708 0.56528 0.0
H155 H 0.73222 0.85189 0.56207 0.0
H156 H 0.69852 0.90246 0.44291 0.0
H157 H 0.65362 0.86787 0.44617 0.0
H158 H 0.75533 0.87699 0.43294 0.0
H159 H 0.74685 0.95229 0.59102 0.0
H160 H 0.74191 0.90753 0.6001 0.0
H161 H 0.71567 0.93055 0.56591 0.0
C162 C 0.68944 0.83623 0.53907 0.0
C163 C 0.66709 0.83984 0.50612 0.0
C164 C 0.71487 0.8561 0.53728 0.0
C165 C 0.71845 0.88008 0.50266 0.0
C166 C 0.69605 0.8842 0.47007 0.0
H167 H 0.87441 0.01147 0.49834 0.0
H168 H 0.82331 0.99159 0.49628 0.0
C169 C 0.67052 0.86434 0.47187 0.0
C170 C 0.74667 0.89863 0.49862 0.0
H171 H 0.795 0.94845 0.55795 0.0
C172 C 0.76384 0.89303 0.45996 0.0
C173 C 0.75757 0.91982 0.53367 0.0
C174 C 0.73941 0.92822 0.57482 0.0
C175 C 0.79225 0.90676 0.4564 0.0
C176 C 0.80386 0.92617 0.49273 0.0
C177 C 0.78616 0.93317 0.5304 0.0
C178 C 0.83474 0.93825 0.49309 0.0
C179 C 0.80971 0.90011 0.41397 0.0
C180 C 0.85803 0.91477 0.49257 0.0
C181 C 0.88723 0.92597 0.4938 0.0
C182 C 0.8937 0.96092 0.49581 0.0
C183 C 0.87024 0.98438 0.49667 0.0
C184 C 0.84103 0.97311 0.49551 0.0
H185 H 0.79509 0.89349 0.38489 0.0
H186 H 0.82317 0.92259 0.40471 0.0
H187 H 0.82484 0.87836 0.41993 0.0
H188 H 0.85361 0.8877 0.49166 0.0
H189 H 0.9047 0.90718 0.4933 0.0
H190 H 0.85022 0.36861 0.04766 0.0
H191 H 0.80406 0.40109 0.04823 0.0
H192 H 0.76926 0.33747 0.94144 0.0
H193 H 0.81492 0.30464 0.94104 0.0
H194 H 0.75853 0.40908 0.93012 0.0
H195 H 0.72659 0.36048 0.09986 0.0
H196 H 0.7623 0.38011 0.09625 0.0
H197 H 0.7553 0.34099 0.06664 0.0
C198 C 0.83274 0.36158 0.02428 0.0
C199 C 0.83623 0.33398 0.99439 0.0
C200 C 0.80644 0.38017 0.02462 0.0
C201 C 0.78322 0.37138 0.99521 0.0
C202 C 0.78699 0.34465 0.96434 0.0
H203 H 0.59679 0.40479 0.00337 0.0
H204 H 0.64722 0.38301 0.00221 0.0
C205 C 0.81319 0.32604 0.96401 0.0
C206 C 0.75445 0.38898 -0.00244 0.0
H207 H 0.69384 0.39866 0.06422 0.0
C208 C 0.74443 0.40709 0.95952 0.0
C209 C 0.73608 0.38587 0.03583 0.0
C210 C 0.74538 0.36563 0.07693 0.0
C211 C 0.71632 0.42203 0.9586 0.0
C212 C 0.69796 0.41893 0.99688 0.0
C213 C 0.7081 0.40109 0.03506 0.0
C214 C 0.66758 0.43258 0.99723 0.0
C215 C 0.70607 0.44005 0.91621 0.0
C216 C 0.6624 0.4677 0.99514 0.0
C217 C 0.63358 0.48029 0.99581 0.0
C218 C 0.60943 0.45794 -0.0013 0.0
C219 C 0.61481 0.42274 0.00101 0.0
C220 C 0.64361 0.41022 0.00042 0.0
H221 H 0.72044 0.43439 0.88683 0.0
H222 H 0.68309 0.43269 0.90745 0.0
H223 H 0.70644 0.46792 0.92216 0.0
H224 H 0.68067 0.48537 0.99335 0.0
H225 H 0.63026 0.50754 0.99415 0.0
H226 H 0.04695 0.72932 0.07413 0.0
H227 H 0.03053 0.75998 0.14176 0.0
H228 H 0.12108 0.77817 0.1802 0.0
H229 H 0.13764 0.74745 0.11294 0.0
H230 H 0.08435 0.76347 0.25412 0.0
H231 H 0.03742 0.86405 0.14271 0.0
H232 H 0.02325 0.82207 0.13253 0.0
H233 H 0.06139 0.83108 0.12172 0.0
C234 C 0.06332 0.73945 0.0974 0.0
C235 C 0.09356 0.73626 0.08811 0.0
C236 C 0.05393 0.75699 0.13588 0.0
C237 C 0.07461 0.7719 0.16538 0.0
C238 C 0.10479 0.76691 0.15773 0.0
H239 H 0.05595 0.94718 0.33678 0.0
H240 H 0.06861 0.905 0.27935 0.0
C241 C 0.11421 0.74923 0.1194 0.0
C242 C 0.06499 0.79489 0.20217 0.0
H243 H 0.03107 0.87101 0.22134 0.0
C244 C 0.07256 0.78691 0.2471 0.0
C245 C 0.05007 0.82571 0.19266 0.0
C246 C 0.04275 0.83651 0.1448 0.0
C247 C 0.06558 0.809 0.2829 0.0
C248 C 0.05028 0.83957 0.27339 0.0
C249 C 0.04264 0.84744 0.22849 0.0
C250 C 0.04296 0.86454 0.30918 0.0
C251 C 0.07543 0.79997 0.33032 0.0
C252 C 0.02414 0.85582 0.34481 0.0
C253 C 0.0169 0.87987 0.37785 0.0
C254 C 0.02817 0.91317 0.3756 0.0
C255 C 0.04686 0.92181 0.3396 0.0
C256 C 0.05414 0.89773 0.30673 0.0
H257 H 0.09285 0.78009 0.33032 0.0
H258 H 0.08396 0.82271 0.34849 0.0
H259 H 0.05633 0.79 0.34944 0.0
H260 H 0.01478 0.83055 0.34679 0.0
H261 H 0.00232 0.87239 0.40495 0.0
H262 H 0.63796 0.76566 0.62446 0.0
H263 H 0.62025 0.7354 0.69135 0.0
H264 H 0.53222 0.73455 0.63522 0.0
H265 H 0.54963 0.76518 0.5684 0.0
H266 H 0.57121 0.74853 0.75556 0.0
H267 H 0.55764 0.63238 0.64939 0.0
H268 H 0.57923 0.66841 0.63145 0.0
H269 H 0.5397 0.67019 0.62885 0.0
C270 C 0.61469 0.75984 0.62687 0.0
C271 C 0.59522 0.7675 0.59099 0.0
C272 C 0.60465 0.74244 0.665 0.0
C273 C 0.57508 0.73238 0.66773 0.0
C274 C 0.55523 0.74174 0.6333 0.0
H275 H 0.4863 0.58893 0.84285 0.0
H276 H 0.49822 0.63133 0.78548 0.0
C277 C 0.56522 0.75914 0.5952 0.0
C278 C 0.56553 0.70976 0.7047 0.0
H279 H 0.5436 0.62841 0.72577 0.0
C280 C 0.56509 0.72228 0.7492 0.0
C281 C 0.55766 0.67558 0.69605 0.0
C282 C 0.55874 0.66061 0.64895 0.0
C283 C 0.55661 0.70145 0.78545 0.0
C284 C 0.54903 0.66712 0.77684 0.0
C285 C 0.54934 0.65476 0.73223 0.0
C286 C 0.54123 0.64318 0.8135 0.0
C287 C 0.55539 0.71651 0.83244 0.0
C288 C 0.56155 0.63567 0.84814 0.0
C289 C 0.55479 0.61149 0.8811 0.0
C290 C 0.5277 0.59409 0.87969 0.0
C291 C 0.50738 0.60177 0.84493 0.0
C292 C 0.51412 0.62605 0.81215 0.0
H293 H 0.55345 0.74467 0.83141 0.0
H294 H 0.53652 0.70611 0.85175 0.0
H295 H 0.57602 0.7101 0.851 0.0
H296 H 0.5829 0.64796 0.84915 0.0
H297 H 0.57101 0.60608 0.90724 0.0
H298 H 0.95462 0.26637 0.06792 0.0
H299 H 0.97141 0.23561 0.13541 0.0
H300 H 0.88179 0.22898 0.18214 0.0
H301 H 0.86466 0.25911 0.1143 0.0
H302 H 0.93218 0.2461 0.25113 0.0
H303 H 0.94656 0.13027 0.14456 0.0
H304 H 0.96212 0.16938 0.12406 0.0
H305 H 0.92286 0.16502 0.12772 0.0
C306 C 0.93851 0.25867 0.09279 0.0
C307 C 0.90829 0.26485 0.08558 0.0
C308 C 0.94815 0.24126 0.13132 0.0
C309 C 0.92776 0.22987 0.1633 0.0
C310 C 0.8978 0.2377 0.1577 0.0
H311 H 0.93424 0.10464 0.4037 0.0
H312 H 0.92174 0.14608 0.34516 0.0
C313 C 0.8881 0.25503 0.11906 0.0
C314 C 0.93738 0.20726 0.20042 0.0
H315 H 0.95975 0.12598 0.22151 0.0
C316 C 0.93826 0.21984 0.24485 0.0
C317 C 0.94531 0.17313 0.19177 0.0
C318 C 0.94407 0.15838 0.14454 0.0
C319 C 0.94722 0.19907 0.28111 0.0
C320 C 0.95477 0.16472 0.27255 0.0
C321 C 0.95401 0.15232 0.22795 0.0
C322 C 0.96294 0.14082 0.30929 0.0
C323 C 0.949 0.21424 0.32803 0.0
C324 C 0.98998 0.12347 0.30795 0.0
C325 C 0.99706 0.0994 0.34104 0.0
C326 C 0.97718 0.09216 0.37608 0.0
C327 C 0.95015 0.10972 0.37738 0.0
C328 C 0.94304 0.13365 0.34414 0.0
H329 H 0.95109 0.24238 0.32684 0.0
H330 H 0.92852 0.20809 0.34663 0.0
H331 H 0.96802 0.20374 0.34738 0.0
H332 H 0.00555 0.12846 0.28112 0.0
H333 H 0.01807 0.0864 0.33903 0.0
H334 H 0.45386 0.24555 0.56965 0.0
H335 H 0.46776 0.27668 0.63786 0.0
H336 H 0.37949 0.26536 0.68916 0.0
H337 H 0.36467 0.23699 0.61936 0.0
H338 H 0.39481 0.3274 0.69674 0.0
H339 H 0.48739 0.25111 0.76386 0.0
H340 H 0.49437 0.26331 0.7065 0.0
H341 H 0.46369 0.23578 0.71894 0.0
C342 C 0.43734 0.24961 0.5954 0.0
C343 C 0.40803 0.23888 0.58856 0.0
C344 C 0.44551 0.26692 0.63491 0.0
C345 C 0.42482 0.27298 0.66913 0.0
C346 C 0.39592 0.26088 0.66336 0.0
H347 H 0.47716 0.37159 0.9235 0.0
H348 H 0.46177 0.33002 0.86626 0.0
C349 C 0.38755 0.24422 0.62348 0.0
C350 C 0.43241 0.29492 0.70855 0.0
H351 H 0.48481 0.30928 0.79 0.0
C352 C 0.41428 0.32308 0.71751 0.0
C353 C 0.45755 0.28917 0.73624 0.0
C354 C 0.47663 0.25797 0.73118 0.0
C355 C 0.421 0.34612 0.75234 0.0
C356 C 0.4473 0.34177 0.77779 0.0
C357 C 0.46494 0.31301 0.76994 0.0
C358 C 0.45699 0.36694 0.81235 0.0
C359 C 0.39955 0.37461 0.76173 0.0
C360 C 0.45997 0.40142 0.80092 0.0
C361 C 0.4682 0.42528 0.83372 0.0
C362 C 0.47443 0.41499 0.87834 0.0
C363 C 0.47248 0.38029 0.88939 0.0
C364 C 0.4637 0.35651 0.85672 0.0
H365 H 0.37681 0.36771 0.75085 0.0
H366 H 0.39917 0.38128 0.79829 0.0
H367 H 0.40613 0.39746 0.74225 0.0
H368 H 0.45592 0.40993 0.76656 0.0
H369 H 0.46995 0.45175 0.82402 0.0
H370 H 0.61586 0.70872 0.45016 0.0
H371 H 0.60147 0.6768 0.3824 0.0
H372 H 0.57063 0.76959 0.3199 0.0
H373 H 0.5864 0.80181 0.38725 0.0
H374 H 0.54896 0.66777 0.34855 0.0
H375 H 0.61752 0.73047 0.21835 0.0
H376 H 0.62298 0.73771 0.27817 0.0
H377 H 0.59405 0.75958 0.24796 0.0
C378 C 0.60629 0.72226 0.42167 0.0
C379 C 0.60218 0.75758 0.4236 0.0
C380 C 0.59805 0.70407 0.38305 0.0
C381 C 0.58524 0.7208 0.34579 0.0
C382 C 0.58115 0.75622 0.34769 0.0
H383 H 0.48587 0.60193 0.14591 0.0
H384 H 0.49987 0.64159 0.2062 0.0
C385 C 0.58994 0.77457 0.38616 0.0
C386 C 0.57494 0.70058 0.30624 0.0
H387 H 0.58127 0.69156 0.19166 0.0
C388 C 0.5561 0.67294 0.31425 0.0
C389 C 0.58447 0.70714 0.26155 0.0
C390 C 0.6061 0.73512 0.25096 0.0
C391 C 0.54684 0.65141 0.27906 0.0
C392 C 0.55565 0.65852 0.23416 0.0
C393 C 0.57428 0.68634 0.22602 0.0
C394 C 0.54686 0.6365 0.19551 0.0
C395 C 0.52863 0.62055 0.2908 0.0
C396 C 0.56852 0.62177 0.16796 0.0
C397 C 0.56054 0.59976 0.13279 0.0
C398 C 0.53074 0.59178 0.12483 0.0
C399 C 0.50904 0.60717 0.15172 0.0
C400 C 0.51701 0.6297 0.18634 0.0
H401 H 0.53129 0.61343 0.32702 0.0
H402 H 0.50497 0.62631 0.2848 0.0
H403 H 0.53477 0.59832 0.26965 0.0
H404 H 0.59168 0.62677 0.17427 0.0
H405 H 0.57776 0.58831 0.11259 0.0
H406 H 0.89851 0.20717 0.94261 0.0
H407 H 0.91654 0.1776 0.8755 0.0
H408 H 0.93964 0.27381 0.8152 0.0
H409 H 0.92037 0.30365 0.88209 0.0
H410 H 0.91514 0.23325 0.75406 0.0
H411 H 0.00075 0.16017 0.84519 0.0
H412 H 0.96534 0.15255 0.86963 0.0
H413 H 0.981 0.19469 0.87148 0.0
C414 C 0.90755 0.22195 0.91505 0.0
C415 C 0.90848 0.25757 0.91754 0.0
C416 C 0.91803 0.20507 0.8769 0.0
C417 C 0.93031 0.22341 0.84093 0.0
C418 C 0.93058 0.25913 0.84282 0.0
H419 H 0.02386 0.10168 0.63972 0.0
H420 H 0.01262 0.14436 0.69742 0.0
C421 C 0.9196 0.27613 0.88086 0.0
C422 C 0.94215 0.205 0.80114 0.0
H423 H 0.98585 0.13791 0.7724 0.0
C424 C 0.93095 0.21272 0.7579 0.0
C425 C 0.96338 0.17883 0.80591 0.0
C426 C 0.97854 0.17137 0.85052 0.0
C427 C 0.93924 0.19379 0.71969 0.0
C428 C 0.95842 0.16562 0.72522 0.0
C429 C 0.97074 0.15907 0.76811 0.0
C430 C 0.96528 0.14181 0.68764 0.0
C431 C 0.92744 0.20438 0.6739 0.0
C432 C 0.94247 0.12607 0.66293 0.0
C433 C 0.94889 0.10218 0.62935 0.0
C434 C 0.97821 0.09281 0.62079 0.0
C435 C 0.00103 0.1083 0.64577 0.0
C436 C 0.99463 0.13273 0.67867 0.0
H437 H 0.92283 0.23213 0.67296 0.0
H438 H 0.94313 0.19814 0.64642 0.0
H439 H 0.90634 0.19098 0.66713 0.0
H440 H 0.91962 0.13164 0.67025 0.0
H441 H 0.93084 0.09037 0.61096 0.0
H442 H 0.45562 0.24201 0.43705 0.0
H443 H 0.47245 0.27487 0.37167 0.0
H444 H 0.38236 0.287 0.32666 0.0
H445 H 0.36543 0.25407 0.39163 0.0
H446 H 0.42068 0.27264 0.25639 0.0
H447 H 0.46276 0.378 0.36459 0.0
H448 H 0.47827 0.33704 0.37727 0.0
H449 H 0.43965 0.34455 0.38632 0.0
C450 C 0.43946 0.25158 0.41306 0.0
C451 C 0.40922 0.24562 0.41952 0.0
C452 C 0.44908 0.27038 0.37586 0.0
C453 C 0.42859 0.28385 0.34484 0.0
C454 C 0.39851 0.27686 0.35029 0.0
H455 H 0.44701 0.45396 0.16439 0.0
H456 H 0.4344 0.41388 0.22428 0.0
C457 C 0.38888 0.25794 0.38731 0.0
C458 C 0.43825 0.30623 0.30754 0.0
H459 H 0.47094 0.38258 0.28591 0.0
C460 C 0.43176 0.29664 0.26274 0.0
C461 C 0.4523 0.33773 0.3161 0.0
C462 C 0.45845 0.35019 0.36365 0.0
C463 C 0.43894 0.31777 0.22617 0.0
C464 C 0.45345 0.34899 0.23472 0.0
C465 C 0.46 0.35851 0.2795 0.0
C466 C 0.46107 0.37284 0.19788 0.0
C467 C 0.43013 0.30696 0.17888 0.0
C468 C 0.48048 0.36313 0.16341 0.0
C469 C 0.48763 0.38593 0.12893 0.0
C470 C 0.47573 0.41899 0.1286 0.0
C471 C 0.45656 0.42872 0.16355 0.0
C472 C 0.44933 0.40586 0.19785 0.0
H473 H 0.41289 0.2869 0.17925 0.0
H474 H 0.42176 0.32892 0.15897 0.0
H475 H 0.4497 0.29651 0.16131 0.0
H476 H 0.49028 0.33801 0.16336 0.0
H477 H 0.50263 0.37767 0.10273 0.0
H478 H 0.08775 0.79474 0.95213 0.0
H479 H 0.07156 0.82446 0.88378 0.0
H480 H 0.07603 0.73089 0.80794 0.0
H481 H 0.09172 0.70047 0.87674 0.0
H482 H 0.10999 0.80994 0.78532 0.0
H483 H 0.9883 0.79237 0.79701 0.0
H484 H 0.0101 0.79716 0.84808 0.0
H485 H 0.01377 0.75945 0.8145 0.0
C486 C 0.08471 0.78023 0.92122 0.0
C487 C 0.0908 0.74515 0.91994 0.0
C488 C 0.07567 0.79733 0.88218 0.0
C489 C 0.07257 0.77974 0.84118 0.0
C490 C 0.07829 0.74474 0.83954 0.0
H491 H 0.00629 0.87197 0.59066 0.0
H492 H 0.01971 0.83057 0.64911 0.0
C493 C 0.08734 0.72751 0.87871 0.0
C494 C 0.06463 0.79871 0.79987 0.0
H495 H 0.00564 0.83024 0.74121 0.0
C496 C 0.08722 0.81411 0.7752 0.0
C497 C 0.03495 0.8038 0.787 0.0
C498 C 0.01019 0.78736 0.81278 0.0
C499 C 0.08081 0.83544 0.73839 0.0
C500 C 0.05101 0.84191 0.72674 0.0
C501 C 0.02845 0.82538 0.75043 0.0
C502 C 0.04284 0.86691 0.6914 0.0
C503 C 0.10599 0.851 0.71252 0.0
C504 C 0.05098 0.90113 0.69631 0.0
C505 C 0.04343 0.92484 0.66305 0.0
C506 C 0.02735 0.91481 0.62435 0.0
C507 C 0.01875 0.88056 0.61996 0.0
C508 C 0.02638 0.85685 0.65328 0.0
H509 H 0.12661 0.83602 0.71675 0.0
H510 H 0.10067 0.85285 0.67581 0.0
H511 H 0.11021 0.87703 0.7256 0.0
H512 H 0.0631 0.90955 0.72603 0.0
H513 H 0.05022 0.95102 0.66773 0.0
loop_
_geom_bond_atom_site_label_1
_geom_bond_atom_site_label_2
_geom_bond_distance
_geom_bond_site_symmetry_2
_ccdc_geom_bond_type
H0 C3 0.931 . S
H1 C6 0.928 . S
H2 C8 0.930 . S
C3 H0 0.931 . S
C3 C4 1.413 1_554 S
C3 C5 1.360 . S
C4 C3 1.413 1_556 S
C4 C8 1.429 . S
C5 C3 1.360 . S
C5 C6 1.372 . S
C6 H1 0.928 . S
C6 C5 1.372 . S
C6 C7 1.404 . S
C7 C6 1.404 . S
C7 C8 1.391 1_554 S
C8 H2 0.930 . S
C8 C4 1.429 . S
C8 C7 1.391 1_556 S
H9 C12 0.931 . S
H10 C15 0.928 . S
H11 C17 0.930 . S
C12 H9 0.931 . S
C12 C13 1.413 . S
C12 C14 1.360 . S
C13 C12 1.413 . S
C13 C17 1.429 . S
C14 C12 1.360 . S
C14 C15 1.372 . S
C15 H10 0.928 . S
C15 C14 1.372 . S
C15 C16 1.404 . S
C16 C15 1.404 . S
C16 C17 1.391 . S
C17 H11 0.930 . S
C17 C13 1.429 . S
C17 C16 1.391 . S
H18 C21 0.931 . S
H19 C24 0.928 . S
H20 C26 0.930 . S
C21 H18 0.931 . S
C21 C22 1.413 1_554 S
C21 C23 1.360 . S
C22 C21 1.413 1_556 S
C22 C26 1.429 . S
C23 C21 1.360 . S
C23 C24 1.372 . S
C24 H19 0.928 . S
C24 C23 1.372 . S
C24 C25 1.404 . S
C25 C24 1.404 . S
C25 C26 1.391 1_554 S
C26 H20 0.930 . S
C26 C22 1.429 . S
C26 C25 1.391 1_556 S
H27 C30 0.931 . S
H28 C33 0.928 . S
H29 C35 0.930 . S
C30 H27 0.931 . S
C30 C31 1.413 . S
C30 C32 1.360 . S
C31 C30 1.413 . S
C31 C35 1.429 . S
C32 C30 1.360 . S
C32 C33 1.372 . S
C33 H28 0.928 . S
C33 C32 1.372 . S
C33 C34 1.404 . S
C34 C33 1.404 . S
C34 C35 1.391 . S
C35 H29 0.930 . S
C35 C31 1.429 . S
C35 C34 1.391 . S
O36 Zn37 1.953 1_565 S
O36 C52 1.225 . S
Zn37 O36 1.953 1_545 S
Zn37 O38 1.949 1_655 S
Zn37 O44 1.919 . S
Zn37 O49 1.924 . S
O38 Zn37 1.949 1_455 S
O38 Zn39 1.923 . S
O38 Zn40 1.950 1_445 S
O38 Zn41 1.945 . S
Zn39 O38 1.923 . S
Zn39 O42 1.933 . S
Zn39 O45 1.941 . S
Zn39 O46 1.965 1_545 S
Zn40 O38 1.950 1_665 S
Zn40 O47 1.938 1_655 S
Zn40 O48 1.906 1_655 S
Zn40 O58 1.953 . S
Zn41 O38 1.945 . S
Zn41 O43 1.932 . S
Zn41 O50 1.977 1_545 S
Zn41 O51 1.910 1_455 S
O42 Zn39 1.933 . S
O42 C53 1.226 . S
O43 Zn41 1.932 . S
O43 C53 1.307 . S
O44 Zn37 1.919 . S
O44 C55 1.253 . S
O45 Zn39 1.941 . S
O45 C55 1.283 1_455 S
O46 Zn39 1.965 1_565 S
O46 C54 1.303 . S
O47 Zn40 1.938 1_455 S
O47 C54 1.247 . S
O48 Zn40 1.906 1_455 S
O48 C56 1.304 . S
O49 Zn37 1.924 . S
O49 C57 1.311 . S
O50 Zn41 1.977 1_565 S
O50 C56 1.272 . S
O51 Zn41 1.910 1_655 S
O51 C57 1.231 . S
C52 O36 1.225 . S
C52 O58 1.298 . S
C53 O42 1.226 . S
C53 O43 1.307 . S
C54 O46 1.303 . S
C54 O47 1.247 . S
C55 O44 1.253 . S
C55 O45 1.283 1_655 S
C56 O48 1.304 . S
C56 O50 1.272 . S
C57 O49 1.311 . S
C57 O51 1.231 . S
O58 Zn40 1.953 . S
O58 C52 1.298 . S
O59 Zn60 1.953 . S
O59 C75 1.225 1_556 S
Zn60 O59 1.953 . S
Zn60 O61 1.949 1_556 S
Zn60 O67 1.919 . S
Zn60 O72 1.924 1_556 S
O61 Zn60 1.949 1_554 S
O61 Zn62 1.923 1_554 S
O61 Zn63 1.950 . S
O61 Zn64 1.945 . S
Zn62 O61 1.923 1_556 S
Zn62 O65 1.933 . S
Zn62 O68 1.941 . S
Zn62 O69 1.965 . S
Zn63 O61 1.950 . S
Zn63 O70 1.938 1_554 S
Zn63 O71 1.906 . S
Zn63 O81 1.953 . S
Zn64 O61 1.945 . S
Zn64 O66 1.932 . S
Zn64 O73 1.977 . S
Zn64 O74 1.910 . S
O65 Zn62 1.933 . S
O65 C76 1.226 1_556 S
O66 Zn64 1.932 . S
O66 C76 1.307 . S
O67 Zn60 1.919 . S
O67 C78 1.253 . S
O68 Zn62 1.941 . S
O68 C78 1.283 . S
O69 Zn62 1.965 . S
O69 C77 1.303 . S
O70 Zn63 1.938 1_556 S
O70 C77 1.247 . S
O71 Zn63 1.906 . S
O71 C79 1.304 . S
O72 Zn60 1.924 1_554 S
O72 C80 1.311 . S
O73 Zn64 1.977 . S
O73 C79 1.272 . S
O74 Zn64 1.910 . S
O74 C80 1.231 . S
C75 O59 1.225 1_554 S
C75 O81 1.298 . S
C76 O65 1.226 1_554 S
C76 O66 1.307 . S
C77 O69 1.303 . S
C77 O70 1.247 . S
C78 O67 1.253 . S
C78 O68 1.283 . S
C79 O71 1.304 . S
C79 O73 1.272 . S
C80 O72 1.311 . S
C80 O74 1.231 . S
O81 Zn63 1.953 . S
O81 C75 1.298 . S
H82 C90 0.929 . S
H83 C92 0.930 . S
H84 C94 0.930 . S
H85 C97 0.929 . S
H86 C100 0.930 . S
H87 C102 0.960 . S
H88 C102 0.960 . S
H89 C102 0.960 . S
C90 H82 0.929 . S
C90 C91 1.377 . S
C90 C92 1.384 . S
C91 C90 1.377 . S
C91 C97 1.390 . S
C92 H83 0.930 . S
C92 C90 1.384 . S
C92 C93 1.372 . S
C93 C92 1.372 . S
C93 C94 1.400 . S
C93 C98 1.490 . S
C94 H84 0.930 . S
C94 C93 1.400 . S
C94 C97 1.386 . S
H95 C111 0.930 . S
H96 C112 0.931 . S
C97 H85 0.929 . S
C97 C91 1.390 . S
C97 C94 1.386 . S
C98 C93 1.490 . S
C98 C100 1.395 . S
C98 C101 1.403 . S
H99 C105 0.930 . S
C100 H86 0.930 . S
C100 C98 1.395 . S
C100 C103 1.403 . S
C101 C98 1.403 . S
C101 C102 1.524 . S
C101 C105 1.400 . S
C102 H87 0.960 . S
C102 H88 0.960 . S
C102 H89 0.960 . S
C102 C101 1.524 . S
C103 C100 1.403 . S
C103 C104 1.392 . S
C103 C107 1.495 . S
C104 C103 1.392 . S
C104 C105 1.385 . S
C104 C106 1.478 . S
C105 H99 0.930 . S
C105 C101 1.400 . S
C105 C104 1.385 . S
C106 C104 1.478 . S
C106 C108 1.381 . S
C106 C112 1.383 . S
C107 C103 1.495 . S
C107 H113 0.959 . S
C107 H114 0.961 . S
C107 H115 0.960 . S
C108 C106 1.381 . S
C108 C109 1.394 . S
C108 H116 0.930 . S
C109 C108 1.394 . S
C109 C110 1.383 . S
C109 H117 0.929 . S
C110 C109 1.383 . S
C110 C111 1.377 . S
C111 H95 0.930 . S
C111 C110 1.377 . S
C111 C112 1.379 . S
C112 H96 0.931 . S
C112 C106 1.383 . S
C112 C111 1.379 . S
H113 C107 0.959 . S
H114 C107 0.961 . S
H115 C107 0.960 . S
H116 C108 0.930 . S
H117 C109 0.929 . S
H118 C126 0.929 . S
H119 C128 0.930 . S
H120 C130 0.930 . S
H121 C133 0.929 . S
H122 C136 0.930 . S
H123 C138 0.960 . S
H124 C138 0.960 . S
H125 C138 0.960 1_554 S
C126 H118 0.929 . S
C126 C127 1.377 1_556 S
C126 C128 1.384 . S
C127 C126 1.377 1_554 S
C127 C133 1.390 . S
C128 H119 0.930 . S
C128 C126 1.384 . S
C128 C129 1.372 1_556 S
C129 C128 1.372 1_554 S
C129 C130 1.400 . S
C129 C134 1.490 . S
C130 H120 0.930 . S
C130 C129 1.400 . S
C130 C133 1.386 . S
H131 C147 0.930 . S
H132 C148 0.931 . S
C133 H121 0.929 . S
C133 C127 1.390 . S
C133 C130 1.386 . S
C134 C129 1.490 . S
C134 C136 1.395 . S
C134 C137 1.403 1_554 S
H135 C141 0.930 . S
C136 H122 0.930 . S
C136 C134 1.395 . S
C136 C139 1.403 . S
C137 C134 1.403 1_556 S
C137 C138 1.524 . S
C137 C141 1.400 . S
C138 H123 0.960 . S
C138 H124 0.960 . S
C138 H125 0.960 1_556 S
C138 C137 1.524 . S
C139 C136 1.403 . S
C139 C140 1.392 . S
C139 C143 1.495 . S
C140 C139 1.392 . S
C140 C141 1.385 1_554 S
C140 C142 1.478 . S
C141 H135 0.930 . S
C141 C137 1.400 . S
C141 C140 1.385 1_556 S
C142 C140 1.478 . S
C142 C144 1.381 1_554 S
C142 C148 1.383 . S
C143 C139 1.495 . S
C143 H149 0.959 . S
C143 H150 0.961 . S
C143 H151 0.960 1_554 S
C144 C142 1.381 1_556 S
C144 C145 1.394 . S
C144 H152 0.930 . S
C145 C144 1.394 . S
C145 C146 1.383 1_556 S
C145 H153 0.929 . S
C146 C145 1.383 1_554 S
C146 C147 1.377 . S
C147 H131 0.930 . S
C147 C146 1.377 . S
C147 C148 1.379 . S
C148 H132 0.931 . S
C148 C142 1.383 . S
C148 C147 1.379 . S
H149 C143 0.959 . S
H150 C143 0.961 . S
H151 C143 0.960 1_556 S
H152 C144 0.930 . S
H153 C145 0.929 . S
H154 C162 0.929 . S
H155 C164 0.930 . S
H156 C166 0.930 . S
H157 C169 0.929 . S
H158 C172 0.930 . S
H159 C174 0.960 . S
H160 C174 0.960 . S
H161 C174 0.960 . S
C162 H154 0.929 . S
C162 C163 1.377 . S
C162 C164 1.384 . S
C163 C162 1.377 . S
C163 C169 1.390 . S
C164 H155 0.930 . S
C164 C162 1.384 . S
C164 C165 1.372 . S
C165 C164 1.372 . S
C165 C166 1.400 . S
C165 C170 1.490 . S
C166 H156 0.930 . S
C166 C165 1.400 . S
C166 C169 1.386 . S
H167 C183 0.930 . S
H168 C184 0.931 . S
C169 H157 0.929 . S
C169 C163 1.390 . S
C169 C166 1.386 . S
C170 C165 1.490 . S
C170 C172 1.395 . S
C170 C173 1.403 . S
H171 C177 0.930 . S
C172 H158 0.930 . S
C172 C170 1.395 . S
C172 C175 1.403 . S
C173 C170 1.403 . S
C173 C174 1.524 . S
C173 C177 1.400 . S
C174 H159 0.960 . S
C174 H160 0.960 . S
C174 H161 0.960 . S
C174 C173 1.524 . S
C175 C172 1.403 . S
C175 C176 1.392 . S
C175 C179 1.495 . S
C176 C175 1.392 . S
C176 C177 1.385 . S
C176 C178 1.478 . S
C177 H171 0.930 . S
C177 C173 1.400 . S
C177 C176 1.385 . S
C178 C176 1.478 . S
C178 C180 1.381 . S
C178 C184 1.383 . S
C179 C175 1.495 . S
C179 H185 0.959 . S
C179 H186 0.961 . S
C179 H187 0.960 . S
C180 C178 1.381 . S
C180 C181 1.394 . S
C180 H188 0.930 . S
C181 C180 1.394 . S
C181 C182 1.383 . S
C181 H189 0.929 . S
C182 C181 1.383 . S
C182 C183 1.377 . S
C183 H167 0.930 . S
C183 C182 1.377 . S
C183 C184 1.379 . S
C184 H168 0.931 . S
C184 C178 1.383 . S
C184 C183 1.379 . S
H185 C179 0.959 . S
H186 C179 0.961 . S
H187 C179 0.960 . S
H188 C180 0.930 . S
H189 C181 0.929 . S
H190 C198 0.929 . S
H191 C200 0.930 . S
H192 C202 0.930 . S
H193 C205 0.929 . S
H194 C208 0.930 . S
H195 C210 0.960 . S
H196 C210 0.960 . S
H197 C210 0.960 1_556 S
C198 H190 0.929 . S
C198 C199 1.377 . S
C198 C200 1.384 . S
C199 C198 1.377 . S
C199 C205 1.390 1_554 S
C200 H191 0.930 . S
C200 C198 1.384 . S
C200 C201 1.372 . S
C201 C200 1.372 . S
C201 C202 1.400 1_554 S
C201 C206 1.490 . S
C202 H192 0.930 . S
C202 C201 1.400 1_556 S
C202 C205 1.386 . S
H203 C219 0.930 . S
H204 C220 0.931 . S
C205 H193 0.929 . S
C205 C199 1.390 1_556 S
C205 C202 1.386 . S
C206 C201 1.490 . S
C206 C208 1.395 1_554 S
C206 C209 1.403 . S
H207 C213 0.930 . S
C208 H194 0.930 . S
C208 C206 1.395 1_556 S
C208 C211 1.403 . S
C209 C206 1.403 . S
C209 C210 1.524 . S
C209 C213 1.400 . S
C210 H195 0.960 . S
C210 H196 0.960 . S
C210 H197 0.960 1_554 S
C210 C209 1.524 . S
C211 C208 1.403 . S
C211 C212 1.392 1_556 S
C211 C215 1.495 . S
C212 C211 1.392 1_554 S
C212 C213 1.385 . S
C212 C214 1.478 . S
C213 H207 0.930 . S
C213 C209 1.400 . S
C213 C212 1.385 . S
C214 C212 1.478 . S
C214 C216 1.381 . S
C214 C220 1.383 1_554 S
C215 C211 1.495 . S
C215 H221 0.959 . S
C215 H222 0.961 . S
C215 H223 0.960 1_556 S
C216 C214 1.381 . S
C216 C217 1.394 . S
C216 H224 0.930 . S
C217 C216 1.394 . S
C217 C218 1.383 . S
C217 H225 0.929 . S
C218 C217 1.383 . S
C218 C219 1.377 1_554 S
C219 H203 0.930 . S
C219 C218 1.377 1_556 S
C219 C220 1.379 . S
C220 H204 0.931 . S
C220 C214 1.383 1_556 S
C220 C219 1.379 . S
H221 C215 0.959 . S
H222 C215 0.961 . S
H223 C215 0.960 1_554 S
H224 C216 0.930 . S
H225 C217 0.929 . S
H226 C234 0.929 . S
H227 C236 0.930 . S
H228 C238 0.930 . S
H229 C241 0.929 . S
H230 C244 0.930 . S
H231 C246 0.960 . S
H232 C246 0.960 . S
H233 C246 0.960 . S
C234 H226 0.929 . S
C234 C235 1.377 . S
C234 C236 1.384 . S
C235 C234 1.377 . S
C235 C241 1.390 . S
C236 H227 0.930 . S
C236 C234 1.384 . S
C236 C237 1.372 . S
C237 C236 1.372 . S
C237 C238 1.400 . S
C237 C242 1.490 . S
C238 H228 0.930 . S
C238 C237 1.400 . S
C238 C241 1.386 . S
H239 C255 0.930 . S
H240 C256 0.931 . S
C241 H229 0.929 . S
C241 C235 1.390 . S
C241 C238 1.386 . S
C242 C237 1.490 . S
C242 C244 1.395 . S
C242 C245 1.403 . S
H243 C249 0.930 . S
C244 H230 0.930 . S
C244 C242 1.395 . S
C244 C247 1.403 . S
C245 C242 1.403 . S
C245 C246 1.524 . S
C245 C249 1.400 . S
C246 H231 0.960 . S
C246 H232 0.960 . S
C246 H233 0.960 . S
C246 C245 1.524 . S
C247 C244 1.403 . S
C247 C248 1.392 . S
C247 C251 1.495 . S
C248 C247 1.392 . S
C248 C249 1.385 . S
C248 C250 1.478 . S
C249 H243 0.930 . S
C249 C245 1.400 . S
C249 C248 1.385 . S
C250 C248 1.478 . S
C250 C252 1.381 . S
C250 C256 1.383 . S
C251 C247 1.495 . S
C251 H257 0.959 . S
C251 H258 0.961 . S
C251 H259 0.960 . S
C252 C250 1.381 . S
C252 C253 1.394 . S
C252 H260 0.930 . S
C253 C252 1.394 . S
C253 C254 1.383 . S
C253 H261 0.929 . S
C254 C253 1.383 . S
C254 C255 1.377 . S
C255 H239 0.930 . S
C255 C254 1.377 . S
C255 C256 1.379 . S
C256 H240 0.931 . S
C256 C250 1.383 . S
C256 C255 1.379 . S
H257 C251 0.959 . S
H258 C251 0.961 . S
H259 C251 0.960 . S
H260 C252 0.930 . S
H261 C253 0.929 . S
H262 C270 0.929 . S
H263 C272 0.930 . S
H264 C274 0.930 . S
H265 C277 0.929 . S
H266 C280 0.930 . S
H267 C282 0.960 . S
H268 C282 0.960 . S
H269 C282 0.960 . S
C270 H262 0.929 . S
C270 C271 1.377 . S
C270 C272 1.384 . S
C271 C270 1.377 . S
C271 C277 1.390 . S
C272 H263 0.930 . S
C272 C270 1.384 . S
C272 C273 1.372 . S
C273 C272 1.372 . S
C273 C274 1.400 . S
C273 C278 1.490 . S
C274 H264 0.930 . S
C274 C273 1.400 . S
C274 C277 1.386 . S
H275 C291 0.930 . S
H276 C292 0.931 . S
C277 H265 0.929 . S
C277 C271 1.390 . S
C277 C274 1.386 . S
C278 C273 1.490 . S
C278 C280 1.395 . S
C278 C281 1.403 . S
H279 C285 0.930 . S
C280 H266 0.930 . S
C280 C278 1.395 . S
C280 C283 1.403 . S
C281 C278 1.403 . S
C281 C282 1.524 . S
C281 C285 1.400 . S
C282 H267 0.960 . S
C282 H268 0.960 . S
C282 H269 0.960 . S
C282 C281 1.524 . S
C283 C280 1.403 . S
C283 C284 1.392 . S
C283 C287 1.495 . S
C284 C283 1.392 . S
C284 C285 1.385 . S
C284 C286 1.478 . S
C285 H279 0.930 . S
C285 C281 1.400 . S
C285 C284 1.385 . S
C286 C284 1.478 . S
C286 C288 1.381 . S
C286 C292 1.383 . S
C287 C283 1.495 . S
C287 H293 0.959 . S
C287 H294 0.961 . S
C287 H295 0.960 . S
C288 C286 1.381 . S
C288 C289 1.394 . S
C288 H296 0.930 . S
C289 C288 1.394 . S
C289 C290 1.383 . S
C289 H297 0.929 . S
C290 C289 1.383 . S
C290 C291 1.377 . S
C291 H275 0.930 . S
C291 C290 1.377 . S
C291 C292 1.379 . S
C292 H276 0.931 . S
C292 C286 1.383 . S
C292 C291 1.379 . S
H293 C287 0.959 . S
H294 C287 0.961 . S
H295 C287 0.960 . S
H296 C288 0.930 . S
H297 C289 0.929 . S
H298 C306 0.929 . S
H299 C308 0.930 . S
H300 C310 0.930 . S
H301 C313 0.929 . S
H302 C316 0.930 . S
H303 C318 0.960 . S
H304 C318 0.960 . S
H305 C318 0.960 . S
C306 H298 0.929 . S
C306 C307 1.377 . S
C306 C308 1.384 . S
C307 C306 1.377 . S
C307 C313 1.390 . S
C308 H299 0.930 . S
C308 C306 1.384 . S
C308 C309 1.372 . S
C309 C308 1.372 . S
C309 C310 1.400 . S
C309 C314 1.490 . S
C310 H300 0.930 . S
C310 C309 1.400 . S
C310 C313 1.386 . S
H311 C327 0.930 . S
H312 C328 0.931 . S
C313 H301 0.929 . S
C313 C307 1.390 . S
C313 C310 1.386 . S
C314 C309 1.490 . S
C314 C316 1.395 . S
C314 C317 1.403 . S
H315 C321 0.930 . S
C316 H302 0.930 . S
C316 C314 1.395 . S
C316 C319 1.403 . S
C317 C314 1.403 . S
C317 C318 1.524 . S
C317 C321 1.400 . S
C318 H303 0.960 . S
C318 H304 0.960 . S
C318 H305 0.960 . S
C318 C317 1.524 . S
C319 C316 1.403 . S
C319 C320 1.392 . S
C319 C323 1.495 . S
C320 C319 1.392 . S
C320 C321 1.385 . S
C320 C322 1.478 . S
C321 H315 0.930 . S
C321 C317 1.400 . S
C321 C320 1.385 . S
C322 C320 1.478 . S
C322 C324 1.381 . S
C322 C328 1.383 . S
C323 C319 1.495 . S
C323 H329 0.959 . S
C323 H330 0.961 . S
C323 H331 0.960 . S
C324 C322 1.381 . S
C324 C325 1.394 . S
C324 H332 0.930 . S
C325 C324 1.394 . S
C325 C326 1.383 . S
C325 H333 0.929 . S
C326 C325 1.383 . S
C326 C327 1.377 . S
C327 H311 0.930 . S
C327 C326 1.377 . S
C327 C328 1.379 . S
C328 H312 0.931 . S
C328 C322 1.383 . S
C328 C327 1.379 . S
H329 C323 0.959 . S
H330 C323 0.961 . S
H331 C323 0.960 . S
H332 C324 0.930 . S
H333 C325 0.929 . S
H334 C342 0.929 . S
H335 C344 0.930 . S
H336 C346 0.930 . S
H337 C349 0.929 . S
H338 C352 0.930 . S
H339 C354 0.960 . S
H340 C354 0.960 . S
H341 C354 0.960 . S
C342 H334 0.929 . S
C342 C343 1.377 . S
C342 C344 1.384 . S
C343 C342 1.377 . S
C343 C349 1.390 . S
C344 H335 0.930 . S
C344 C342 1.384 . S
C344 C345 1.372 . S
C345 C344 1.372 . S
C345 C346 1.400 . S
C345 C350 1.490 . S
C346 H336 0.930 . S
C346 C345 1.400 . S
C346 C349 1.386 . S
H347 C363 0.930 . S
H348 C364 0.931 . S
C349 H337 0.929 . S
C349 C343 1.390 . S
C349 C346 1.386 . S
C350 C345 1.490 . S
C350 C352 1.395 . S
C350 C353 1.403 . S
H351 C357 0.930 . S
C352 H338 0.930 . S
C352 C350 1.395 . S
C352 C355 1.403 . S
C353 C350 1.403 . S
C353 C354 1.524 . S
C353 C357 1.400 . S
C354 H339 0.960 . S
C354 H340 0.960 . S
C354 H341 0.960 . S
C354 C353 1.524 . S
C355 C352 1.403 . S
C355 C356 1.392 . S
C355 C359 1.495 . S
C356 C355 1.392 . S
C356 C357 1.385 . S
C356 C358 1.478 . S
C357 H351 0.930 . S
C357 C353 1.400 . S
C357 C356 1.385 . S
C358 C356 1.478 . S
C358 C360 1.381 . S
C358 C364 1.383 . S
C359 C355 1.495 . S
C359 H365 0.959 . S
C359 H366 0.961 . S
C359 H367 0.960 . S
C360 C358 1.381 . S
C360 C361 1.394 . S
C360 H368 0.930 . S
C361 C360 1.394 . S
C361 C362 1.383 . S
C361 H369 0.929 . S
C362 C361 1.383 . S
C362 C363 1.377 . S
C363 H347 0.930 . S
C363 C362 1.377 . S
C363 C364 1.379 . S
C364 H348 0.931 . S
C364 C358 1.383 . S
C364 C363 1.379 . S
H365 C359 0.959 . S
H366 C359 0.961 . S
H367 C359 0.960 . S
H368 C360 0.930 . S
H369 C361 0.929 . S
H370 C378 0.929 . S
H371 C380 0.930 . S
H372 C382 0.930 . S
H373 C385 0.929 . S
H374 C388 0.930 . S
H375 C390 0.960 . S
H376 C390 0.960 . S
H377 C390 0.960 . S
C378 H370 0.929 . S
C378 C379 1.377 . S
C378 C380 1.384 . S
C379 C378 1.377 . S
C379 C385 1.390 . S
C380 H371 0.930 . S
C380 C378 1.384 . S
C380 C381 1.372 . S
C381 C380 1.372 . S
C381 C382 1.400 . S
C381 C386 1.490 . S
C382 H372 0.930 . S
C382 C381 1.400 . S
C382 C385 1.386 . S
H383 C399 0.930 . S
H384 C400 0.931 . S
C385 H373 0.929 . S
C385 C379 1.390 . S
C385 C382 1.386 . S
C386 C381 1.490 . S
C386 C388 1.395 . S
C386 C389 1.403 . S
H387 C393 0.930 . S
C388 H374 0.930 . S
C388 C386 1.395 . S
C388 C391 1.403 . S
C389 C386 1.403 . S
C389 C390 1.524 . S
C389 C393 1.400 . S
C390 H375 0.960 . S
C390 H376 0.960 . S
C390 H377 0.960 . S
C390 C389 1.524 . S
C391 C388 1.403 . S
C391 C392 1.392 . S
C391 C395 1.495 . S
C392 C391 1.392 . S
C392 C393 1.385 . S
C392 C394 1.478 . S
C393 H387 0.930 . S
C393 C389 1.400 . S
C393 C392 1.385 . S
C394 C392 1.478 . S
C394 C396 1.381 . S
C394 C400 1.383 . S
C395 C391 1.495 . S
C395 H401 0.959 . S
C395 H402 0.961 . S
C395 H403 0.960 . S
C396 C394 1.381 . S
C396 C397 1.394 . S
C396 H404 0.930 . S
C397 C396 1.394 . S
C397 C398 1.383 . S
C397 H405 0.929 . S
C398 C397 1.383 . S
C398 C399 1.377 . S
C399 H383 0.930 . S
C399 C398 1.377 . S
C399 C400 1.379 . S
C400 H384 0.931 . S
C400 C394 1.383 . S
C400 C399 1.379 . S
H401 C395 0.959 . S
H402 C395 0.961 . S
H403 C395 0.960 . S
H404 C396 0.930 . S
H405 C397 0.929 . S
H406 C414 0.929 . S
H407 C416 0.930 . S
H408 C418 0.930 . S
H409 C421 0.929 . S
H410 C424 0.930 . S
H411 C426 0.960 1_455 S
H412 C426 0.960 . S
H413 C426 0.960 . S
C414 H406 0.929 . S
C414 C415 1.377 . S
C414 C416 1.384 . S
C415 C414 1.377 . S
C415 C421 1.390 . S
C416 H407 0.930 . S
C416 C414 1.384 . S
C416 C417 1.372 . S
C417 C416 1.372 . S
C417 C418 1.400 . S
C417 C422 1.490 . S
C418 H408 0.930 . S
C418 C417 1.400 . S
C418 C421 1.386 . S
H419 C435 0.930 1_455 S
H420 C436 0.931 . S
C421 H409 0.929 . S
C421 C415 1.390 . S
C421 C418 1.386 . S
C422 C417 1.490 . S
C422 C424 1.395 . S
C422 C425 1.403 . S
H423 C429 0.930 . S
C424 H410 0.930 . S
C424 C422 1.395 . S
C424 C427 1.403 . S
C425 C422 1.403 . S
C425 C426 1.524 . S
C425 C429 1.400 . S
C426 H411 0.960 1_655 S
C426 H412 0.960 . S
C426 H413 0.960 . S
C426 C425 1.524 . S
C427 C424 1.403 . S
C427 C428 1.392 . S
C427 C431 1.495 . S
C428 C427 1.392 . S
C428 C429 1.385 . S
C428 C430 1.478 . S
C429 H423 0.930 . S
C429 C425 1.400 . S
C429 C428 1.385 . S
C430 C428 1.478 . S
C430 C432 1.381 . S
C430 C436 1.383 . S
C431 C427 1.495 . S
C431 H437 0.959 . S
C431 H438 0.961 . S
C431 H439 0.960 . S
C432 C430 1.381 . S
C432 C433 1.394 . S
C432 H440 0.930 . S
C433 C432 1.394 . S
C433 C434 1.383 . S
C433 H441 0.929 . S
C434 C433 1.383 . S
C434 C435 1.377 . S
C435 H419 0.930 1_655 S
C435 C434 1.377 . S
C435 C436 1.379 . S
C436 H420 0.931 . S
C436 C430 1.383 . S
C436 C435 1.379 . S
H437 C431 0.959 . S
H438 C431 0.961 . S
H439 C431 0.960 . S
H440 C432 0.930 . S
H441 C433 0.929 . S
H442 C450 0.929 . S
H443 C452 0.930 . S
H444 C454 0.930 . S
H445 C457 0.929 . S
H446 C460 0.930 . S
H447 C462 0.960 . S
H448 C462 0.960 . S
H449 C462 0.960 . S
C450 H442 0.929 . S
C450 C451 1.377 . S
C450 C452 1.384 . S
C451 C450 1.377 . S
C451 C457 1.390 . S
C452 H443 0.930 . S
C452 C450 1.384 . S
C452 C453 1.372 . S
C453 C452 1.372 . S
C453 C454 1.400 . S
C453 C458 1.490 . S
C454 H444 0.930 . S
C454 C453 1.400 . S
C454 C457 1.386 . S
H455 C471 0.930 . S
H456 C472 0.931 . S
C457 H445 0.929 . S
C457 C451 1.390 . S
C457 C454 1.386 . S
C458 C453 1.490 . S
C458 C460 1.395 . S
C458 C461 1.403 . S
H459 C465 0.930 . S
C460 H446 0.930 . S
C460 C458 1.395 . S
C460 C463 1.403 . S
C461 C458 1.403 . S
C461 C462 1.524 . S
C461 C465 1.400 . S
C462 H447 0.960 . S
C462 H448 0.960 . S
C462 H449 0.960 . S
C462 C461 1.524 . S
C463 C460 1.403 . S
C463 C464 1.392 . S
C463 C467 1.495 . S
C464 C463 1.392 . S
C464 C465 1.385 . S
C464 C466 1.478 . S
C465 H459 0.930 . S
C465 C461 1.400 . S
C465 C464 1.385 . S
C466 C464 1.478 . S
C466 C468 1.381 . S
C466 C472 1.383 . S
C467 C463 1.495 . S
C467 H473 0.959 . S
C467 H474 0.961 . S
C467 H475 0.960 . S
C468 C466 1.381 . S
C468 C469 1.394 . S
C468 H476 0.930 . S
C469 C468 1.394 . S
C469 C470 1.383 . S
C469 H477 0.929 . S
C470 C469 1.383 . S
C470 C471 1.377 . S
C471 H455 0.930 . S
C471 C470 1.377 . S
C471 C472 1.379 . S
C472 H456 0.931 . S
C472 C466 1.383 . S
C472 C471 1.379 . S
H473 C467 0.959 . S
H474 C467 0.961 . S
H475 C467 0.960 . S
H476 C468 0.930 . S
H477 C469 0.929 . S
H478 C486 0.929 . S
H479 C488 0.930 . S
H480 C490 0.930 . S
H481 C493 0.929 . S
H482 C496 0.930 . S
H483 C498 0.960 . S
H484 C498 0.960 . S
H485 C498 0.960 . S
C486 H478 0.929 . S
C486 C487 1.377 . S
C486 C488 1.384 . S
C487 C486 1.377 . S
C487 C493 1.390 . S
C488 H479 0.930 . S
C488 C486 1.384 . S
C488 C489 1.372 . S
C489 C488 1.372 . S
C489 C490 1.400 . S
C489 C494 1.490 . S
C490 H480 0.930 . S
C490 C489 1.400 . S
C490 C493 1.386 . S
H491 C507 0.930 . S
H492 C508 0.931 . S
C493 H481 0.929 . S
C493 C487 1.390 . S
C493 C490 1.386 . S
C494 C489 1.490 . S
C494 C496 1.395 . S
C494 C497 1.403 . S
H495 C501 0.930 . S
C496 H482 0.930 . S
C496 C494 1.395 . S
C496 C499 1.403 . S
C497 C494 1.403 . S
C497 C498 1.524 . S
C497 C501 1.400 . S
C498 H483 0.960 . S
C498 H484 0.960 . S
C498 H485 0.960 . S
C498 C497 1.524 . S
C499 C496 1.403 . S
C499 C500 1.392 . S
C499 C503 1.495 . S
C500 C499 1.392 . S
C500 C501 1.385 . S
C500 C502 1.478 . S
C501 H495 0.930 . S
C501 C497 1.400 . S
C501 C500 1.385 . S
C502 C500 1.478 . S
C502 C504 1.381 . S
C502 C508 1.383 . S
C503 C499 1.495 . S
C503 H509 0.959 . S
C503 H510 0.961 . S
C503 H511 0.960 . S
C504 C502 1.381 . S
C504 C505 1.394 . S
C504 H512 0.930 . S
C505 C504 1.394 . S
C505 C506 1.383 . S
C505 H513 0.929 . S
C506 C505 1.383 . S
C506 C507 1.377 . S
C507 H491 0.930 . S
C507 C506 1.377 . S
C507 C508 1.379 . S
C508 H492 0.931 . S
C508 C502 1.383 . S
C508 C507 1.379 . S
H509 C503 0.959 . S
H510 C503 0.961 . S
H511 C503 0.960 . S
H512 C504 0.930 . S
H513 C505 0.929 . S
C110 C53 1.526 . S
C91 C34 1.516 . S
C127 C7 1.510 . S
C146 C76 1.527 . S
C163 C16 1.533 . S
C182 C52 1.548 . S
C199 C25 1.530 . S
C218 C75 1.540 . S
C254 C56 1.454 . S
C235 C5 1.492 . S
C290 C78 1.523 . S
C271 C13 1.539 . S
C307 C23 1.506 . S
C326 C57 1.465 . S
C343 C32 1.528 . S
C362 C77 1.492 . S
C398 C80 1.469 . S
C379 C14 1.500 . S
C434 C55 1.484 . S
C415 C22 1.536 . S
C470 C79 1.475 . S
C451 C31 1.498 . S
C487 C4 1.520 . S
C506 C54 1.473 . S
