# Generated by pormake.
# Topology llj, (12,3)-cn, num edge types: 1
# Building blocks:
#     Node 0, Type 0, BuildingBlock: QEWDON_clean_sbu_0, # of connection points: 12
#     Node 1, Type 0, BuildingBlock: QEWDON_clean_sbu_0, # of connection points: 12
#     Node 2, Type 1, BuildingBlock: PAMTOO_clean_linker_0, # of connection points: 3
#     Node 3, Type 1, BuildingBlock: PAMTOO_clean_linker_0, # of connection points: 3
#     Node 4, Type 1, BuildingBlock: PAMTOO_clean_linker_0, # of connection points: 3
#     Node 5, Type 1, BuildingBlock: PAMTOO_clean_linker_0, # of connection points: 3
#     Node 6, Type 1, BuildingBlock: PAMTOO_clean_linker_0, # of connection points: 3
#     Node 7, Type 1, BuildingBlock: PAMTOO_clean_linker_0, # of connection points: 3
#     Node 8, Type 1, BuildingBlock: PAMTOO_clean_linker_0, # of connection points: 3
#     Node 9, Type 1, BuildingBlock: PAMTOO_clean_linker_0, # of connection points: 3
#     Edge 10, Type (0, 1), BuildingBlock: KIFKEQ_clean_linker_1, # of connection points: 2
#     Edge 11, Type (0, 1), BuildingBlock: KIFKEQ_clean_linker_1, # of connection points: 2
#     Edge 12, Type (0, 1), BuildingBlock: KIFKEQ_clean_linker_1, # of connection points: 2
#     Edge 13, Type (0, 1), BuildingBlock: KIFKEQ_clean_linker_1, # of connection points: 2
#     Edge 14, Type (0, 1), BuildingBlock: KIFKEQ_clean_linker_1, # of connection points: 2
#     Edge 15, Type (0, 1), BuildingBlock: KIFKEQ_clean_linker_1, # of connection points: 2
#     Edge 16, Type (0, 1), BuildingBlock: KIFKEQ_clean_linker_1, # of connection points: 2
#     Edge 17, Type (0, 1), BuildingBlock: KIFKEQ_clean_linker_1, # of connection points: 2
#     Edge 18, Type (0, 1), BuildingBlock: KIFKEQ_clean_linker_1, # of connection points: 2
#     Edge 19, Type (0, 1), BuildingBlock: KIFKEQ_clean_linker_1, # of connection points: 2
#     Edge 20, Type (0, 1), BuildingBlock: KIFKEQ_clean_linker_1, # of connection points: 2
#     Edge 21, Type (0, 1), BuildingBlock: KIFKEQ_clean_linker_1, # of connection points: 2
#     Edge 22, Type (0, 1), BuildingBlock: KIFKEQ_clean_linker_1, # of connection points: 2
#     Edge 23, Type (0, 1), BuildingBlock: KIFKEQ_clean_linker_1, # of connection points: 2
#     Edge 24, Type (0, 1), BuildingBlock: KIFKEQ_clean_linker_1, # of connection points: 2
#     Edge 25, Type (0, 1), BuildingBlock: KIFKEQ_clean_linker_1, # of connection points: 2
#     Edge 26, Type (0, 1), BuildingBlock: KIFKEQ_clean_linker_1, # of connection points: 2
#     Edge 27, Type (0, 1), BuildingBlock: KIFKEQ_clean_linker_1, # of connection points: 2
#     Edge 28, Type (0, 1), BuildingBlock: KIFKEQ_clean_linker_1, # of connection points: 2
#     Edge 29, Type (0, 1), BuildingBlock: KIFKEQ_clean_linker_1, # of connection points: 2
#     Edge 30, Type (0, 1), BuildingBlock: KIFKEQ_clean_linker_1, # of connection points: 2
#     Edge 31, Type (0, 1), BuildingBlock: KIFKEQ_clean_linker_1, # of connection points: 2
#     Edge 32, Type (0, 1), BuildingBlock: KIFKEQ_clean_linker_1, # of connection points: 2
#     Edge 33, Type (0, 1), BuildingBlock: KIFKEQ_clean_linker_1, # of connection points: 2
# Relax obj value: 0.010
# Max RMSD: 0.103
# Mean RMSD: 0.087
data_MOF--net-llj--node1-QEWDON_clean_sbu_0--node2-PAMTOO_clean_linker_0--edge1-KIFKEQ_clean_linker_1
_symmetry_space_group_name_H-M    P1
_symmetry_Int_Tables_number       1
_symmetry_cell_setting            triclinic
loop_
_symmetry_equiv_pos_as_xyz
'x, y, z'
_cell_length_a     40.043011
_cell_length_b     40.054653
_cell_length_c     24.907298
_cell_angle_alpha  91.304966
_cell_angle_beta   90.413843
_cell_angle_gamma 89.859394
loop_
_atom_site_label
_atom_site_type_symbol
_atom_site_fract_x
_atom_site_fract_y
_atom_site_fract_z
_atom_type_partial_charge
Zn0 Zn 0.94438 0.07082 0.95467 0.0
Zn1 Zn 0.9493 0.0694 0.08242 0.0
O2 O 0.97616 0.06273 0.01582 0.0
H3 H 0.99518 0.04804 0.01182 0.0
C4 C 0.91017 0.00501 0.88409 0.0
O5 O 0.90299 0.01603 0.93274 0.0
Zn6 Zn 0.05619 0.94227 0.08285 0.0
Zn7 Zn 0.05386 0.93243 0.95503 0.0
O8 O 0.02644 0.94691 0.01891 0.0
H9 H 0.00849 0.96291 0.01632 0.0
Zn10 Zn 0.9336 0.95035 0.94728 0.0
O11 O 0.94394 0.97913 0.01285 0.0
Zn12 Zn 0.93705 0.95067 0.07615 0.0
H13 H 0.95791 0.99869 0.01188 0.0
Zn14 Zn 0.08411 0.04923 0.95066 0.0
O15 O 0.06485 0.0271 0.01474 0.0
H16 H 0.04727 0.01074 0.0111 0.0
Zn17 Zn 0.07027 0.05916 0.07664 0.0
C18 C 0.10892 0.98995 0.89241 0.0
O19 O 0.11414 0.97949 0.94139 0.0
O20 O 0.90238 0.09595 0.97877 0.0
O21 O 0.90849 0.09927 0.06779 0.0
O22 O 0.09573 0.90574 0.97512 0.0
O23 O 0.09535 0.91123 0.06426 0.0
O24 O 0.90552 0.90879 0.96416 0.0
O25 O 0.90907 0.90998 0.05342 0.0
C26 C 0.01136 0.08586 0.13691 0.0
O27 O 0.10886 0.09309 0.96776 0.0
O28 O 0.10002 0.0983 0.0558 0.0
O29 O 0.02757 0.91795 0.88697 0.0
C30 C 0.89242 0.10614 0.02478 0.0
O31 O 0.96704 0.08503 0.88475 0.0
C32 C 0.99744 0.92649 0.14323 0.0
O33 O 0.92356 0.97636 0.8782 0.0
C34 C 0.10827 0.8995 0.02098 0.0
O35 O 0.097 0.01902 0.88576 0.0
C36 C 0.91485 0.00935 0.13475 0.0
O37 O 0.97983 0.08821 0.14152 0.0
O38 O 0.02333 0.07384 0.0936 0.0
C39 C 0.89843 0.89658 0.00951 0.0
O40 O 0.02919 0.9247 0.14469 0.0
O41 O 0.98365 0.93872 0.10189 0.0
C42 C 0.08614 0.00326 0.14068 0.0
O43 O 0.91209 0.97771 0.13269 0.0
O44 O 0.93434 0.02292 0.10155 0.0
C45 C 0.11283 0.1088 0.01244 0.0
O46 O 0.08955 0.03481 0.14064 0.0
O47 O 0.0715 0.98916 0.10089 0.0
C48 C 0.99957 0.90363 0.89248 0.0
O49 O 0.9884 0.89852 0.94108 0.0
C50 C 0.99062 0.06662 0.86737 0.0
O51 O 0.99782 0.03905 0.89267 0.0
Zn52 Zn 0.45598 0.56327 0.45882 0.0
Zn53 Zn 0.454 0.56562 0.58644 0.0
O54 O 0.48324 0.55338 0.52458 0.0
H55 H 0.49956 0.53559 0.52479 0.0
C56 C 0.39609 0.49607 0.38277 0.0
O57 O 0.39114 0.50863 0.43126 0.0
Zn58 Zn 0.54976 0.44603 0.58892 0.0
Zn59 Zn 0.55208 0.44309 0.46142 0.0
O60 O 0.52198 0.45436 0.52405 0.0
H61 H 0.50412 0.47056 0.52237 0.0
Zn62 Zn 0.42375 0.44486 0.44822 0.0
O63 O 0.43397 0.47676 0.5098 0.0
Zn64 Zn 0.42787 0.4516 0.57681 0.0
H65 H 0.4455 0.49773 0.50634 0.0
Zn66 Zn 0.57282 0.55922 0.44985 0.0
O67 O 0.56899 0.52991 0.51416 0.0
H68 H 0.55825 0.50837 0.51285 0.0
Zn69 Zn 0.57435 0.56028 0.5777 0.0
C70 C 0.59439 0.50499 0.38133 0.0
O71 O 0.60001 0.49264 0.42895 0.0
O72 O 0.41568 0.59353 0.47521 0.0
O73 O 0.41784 0.59924 0.5644 0.0
O74 O 0.5909 0.41186 0.48172 0.0
O75 O 0.58702 0.41268 0.57086 0.0
O76 O 0.39798 0.40344 0.47233 0.0
O77 O 0.40187 0.40857 0.56147 0.0
C78 C 0.51505 0.5812 0.64445 0.0
O79 O 0.59781 0.60299 0.46714 0.0
O80 O 0.60069 0.60166 0.55639 0.0
O81 O 0.52718 0.43309 0.38998 0.0
C82 C 0.40468 0.60628 0.51902 0.0
O83 O 0.4835 0.57227 0.39094 0.0
C84 C 0.48811 0.42808 0.64256 0.0
O85 O 0.40984 0.46755 0.37766 0.0
C86 C 0.60072 0.402 0.52753 0.0
O87 O 0.58245 0.5343 0.37812 0.0
C88 C 0.40831 0.51147 0.63188 0.0
O89 O 0.48343 0.58207 0.64903 0.0
O90 O 0.52735 0.5716 0.59991 0.0
C91 C 0.39162 0.39295 0.51913 0.0
O92 O 0.51977 0.42644 0.64584 0.0
O93 O 0.47497 0.44348 0.60368 0.0
C94 C 0.59145 0.50381 0.63994 0.0
O95 O 0.40119 0.48064 0.62799 0.0
O96 O 0.43196 0.52207 0.60313 0.0
C97 C 0.60732 0.61564 0.51209 0.0
O98 O 0.5982 0.53469 0.63592 0.0
O99 O 0.56904 0.49149 0.60896 0.0
C100 C 0.499 0.41883 0.39364 0.0
O101 O 0.48789 0.41138 0.4414 0.0
C102 C 0.50861 0.5914 0.39653 0.0
O103 O 0.51525 0.60465 0.44415 0.0
H104 H 0.40932 0.36525 0.00762 0.0
H105 H 0.33367 0.31793 0.10135 0.0
H106 H 0.3294 0.31087 0.9294 0.0
H107 H 0.26503 0.32204 0.98137 0.0
C108 C 0.26882 0.30706 0.01802 0.0
O109 O 0.30064 0.29385 0.01863 0.0
H110 H 0.26534 0.3237 0.05396 0.0
C111 C 0.38697 0.35016 0.00995 0.0
C112 C 0.37127 0.33879 0.96239 0.0
C113 C 0.3737 0.34293 0.0604 0.0
C114 C 0.3441 0.32432 0.0629 0.0
C115 C 0.32819 0.313 0.01571 0.0
C116 C 0.3417 0.32022 0.96559 0.0
H117 H 0.65631 0.41871 -0.00165 0.0
H118 H 0.69757 0.33956 0.09204 0.0
H119 H 0.71002 0.33775 0.92115 0.0
H120 H 0.6919 0.27229 0.97084 0.0
C121 C 0.70606 0.2757 0.0092 0.0
O122 O 0.72194 0.3062 0.01022 0.0
H123 H 0.68801 0.27457 0.0429 0.0
C124 C 0.67067 0.39581 0.00065 0.0
C125 C 0.68301 0.38058 0.95341 0.0
C126 C 0.67581 0.38141 0.05084 0.0
C127 C 0.69304 0.35098 0.05362 0.0
C128 C 0.70497 0.33523 0.00684 0.0
C129 C 0.70009 0.34998 0.95687 0.0
H130 H 0.61141 0.61999 0.01965 0.0
H131 H 0.68743 0.67605 0.9403 0.0
H132 H 0.67945 0.68201 0.11176 0.0
H133 H 0.69355 0.74501 0.06707 0.0
C134 C 0.70532 0.73721 0.02844 0.0
O135 O 0.71165 0.70333 0.02843 0.0
H136 H 0.68755 0.74308 0.99532 0.0
C137 C 0.63263 0.63671 0.02157 0.0
C138 C 0.64349 0.64952 0.07169 0.0
C139 C 0.64808 0.64608 0.97377 0.0
C140 C 0.67521 0.66824 0.97659 0.0
C141 C 0.68653 0.68087 0.02635 0.0
C142 C 0.67094 0.67131 0.07375 0.0
H143 H 0.34541 0.58926 0.00266 0.0
H144 H 0.30132 0.66615 0.10274 0.0
H145 H 0.29649 0.6737 0.93162 0.0
H146 H 0.31581 0.73619 -0.00217 0.0
C147 C 0.2975 0.73265 0.03065 0.0
O148 O 0.2813 0.70255 0.02324 0.0
H149 H 0.31134 0.73288 0.06955 0.0
C150 C 0.33143 0.61237 0.00667 0.0
C151 C 0.32143 0.62938 0.9604 0.0
C152 C 0.32433 0.62526 0.05823 0.0
C153 C 0.30744 0.65589 0.06339 0.0
C154 C 0.29797 0.67338 0.01775 0.0
C155 C 0.30479 0.66017 0.96646 0.0
H156 H 0.91194 0.85699 0.51153 0.0
H157 H 0.83031 0.8095 0.59144 0.0
H158 H 0.82867 0.81806 0.41998 0.0
H159 H 0.76271 0.82632 0.46919 0.0
C160 C 0.76632 0.81084 0.50531 0.0
O161 O 0.79708 0.79538 0.50329 0.0
H162 H 0.76485 0.82747 0.54166 0.0
C163 C 0.88816 0.84409 0.50995 0.0
C164 C 0.8723 0.83866 0.46016 0.0
C165 C 0.87324 0.83393 0.55771 0.0
C166 C 0.84202 0.81808 0.55519 0.0
C167 C 0.82607 0.81243 0.5056 0.0
C168 C 0.84106 0.82288 0.4582 0.0
H169 H 0.14481 0.9049 0.51128 0.0
H170 H 0.20066 0.82493 0.58226 0.0
H171 H 0.20011 0.83562 0.41128 0.0
H172 H 0.19995 0.76452 0.44594 0.0
C173 C 0.21148 0.76846 0.48635 0.0
O174 O 0.22312 0.80075 0.49137 0.0
H175 H 0.19197 0.76391 0.51698 0.0
C176 C 0.16078 0.88312 0.50708 0.0
C177 C 0.17103 0.87245 0.45568 0.0
C178 C 0.17113 0.86615 0.5531 0.0
C179 C 0.19228 0.83833 0.54731 0.0
C180 C 0.20238 0.82726 0.49625 0.0
C181 C 0.19171 0.84417 0.45052 0.0
H182 H 0.10435 0.11856 0.50989 0.0
H183 H 0.18053 0.17964 0.44103 0.0
H184 H 0.17052 0.17619 0.61221 0.0
H185 H 0.18515 0.24172 0.57891 0.0
C186 C 0.19671 0.23647 0.53911 0.0
O187 O 0.20314 0.20275 0.5334 0.0
H188 H 0.17872 0.2445 0.50758 0.0
C189 C 0.12568 0.13499 0.51475 0.0
C190 C 0.13574 0.14529 0.56658 0.0
C191 C 0.14167 0.14695 0.46906 0.0
C192 C 0.16796 0.16986 0.47568 0.0
C193 C 0.17821 0.18032 0.52728 0.0
C194 C 0.16231 0.16791 0.57256 0.0
H195 H 0.85422 0.09339 0.5046 0.0
H196 H 0.79064 0.16655 0.43093 0.0
H197 H 0.80406 0.16772 0.60191 0.0
H198 H 0.73805 0.18225 0.57128 0.0
C199 C 0.74156 0.19327 0.5311 0.0
O200 O 0.77517 0.19709 0.52133 0.0
H201 H 0.73034 0.17583 0.50056 0.0
C202 C 0.83736 0.11453 0.50788 0.0
C203 C 0.83042 0.12832 0.5589 0.0
C204 C 0.82311 0.12779 0.4612 0.0
C205 C 0.80236 0.15605 0.46608 0.0
C206 C 0.79584 0.17048 0.51677 0.0
C207 C 0.81002 0.1568 0.56294 0.0
H208 H 0.13814 0.14247 0.10068 0.0
H209 H 0.13367 0.14486 0.92737 0.0
H210 H 0.17462 0.19114 0.10205 0.0
H211 H 0.16898 0.19409 0.92882 0.0
H212 H 0.26419 0.25534 0.94561 0.0
H213 H 0.22551 0.20839 0.94497 0.0
H214 H 0.17775 0.24976 0.08686 0.0
H215 H 0.21753 0.296 0.08836 0.0
C216 C 0.14463 0.15359 0.06293 0.0
C217 C 0.13327 0.13956 0.0139 0.0
C218 C 0.16539 0.18164 0.0637 0.0
C219 C 0.17499 0.19645 0.0155 0.0
C220 C 0.16276 0.18293 0.96664 0.0
C221 C 0.14232 0.15476 0.96583 0.0
C222 C 0.24539 0.25424 0.97659 0.0
C223 C 0.24395 0.279 0.01724 0.0
C224 C 0.22305 0.22754 0.97608 0.0
C225 C 0.19841 0.22525 0.01586 0.0
C226 C 0.1967 0.25044 0.0561 0.0
C227 C 0.21929 0.27703 0.05681 0.0
H228 H 0.84544 0.11353 0.9466 0.0
H229 H 0.87112 0.14718 0.10774 0.0
H230 H 0.79887 0.15233 0.94537 0.0
H231 H 0.82475 0.18703 0.10586 0.0
H232 H 0.72157 0.23772 0.0966 0.0
H233 H 0.76458 0.19439 0.10333 0.0
H234 H 0.79271 0.21147 0.93894 0.0
H235 H 0.74912 0.25388 0.9322 0.0
C236 C 0.84113 0.12923 0.98188 0.0
C237 C 0.86227 0.12757 0.02706 0.0
C238 C 0.81449 0.15166 0.98101 0.0
C239 C 0.80841 0.17326 0.02509 0.0
C240 C 0.82867 0.17066 0.07127 0.0
C241 C 0.8553 0.14792 0.07232 0.0
C242 C 0.73682 0.23182 0.06191 0.0
C243 C 0.73179 0.24855 0.01354 0.0
C244 C 0.76159 0.20727 0.06583 0.0
C245 C 0.78192 0.19922 0.02155 0.0
C246 C 0.77702 0.21644 0.97346 0.0
C247 C 0.75222 0.24081 0.96954 0.0
H248 H 0.87355 0.85886 0.9253 0.0
H249 H 0.87021 0.8696 0.09831 0.0
H250 H 0.8304 0.81618 0.92805 0.0
H251 H 0.82646 0.8277 0.10084 0.0
H252 H 0.7605 0.73641 0.09366 0.0
H253 H 0.81116 0.77021 0.08764 0.0
H254 H 0.77153 0.81585 0.94493 0.0
H255 H 0.72167 0.78136 0.95034 0.0
C256 C 0.86379 0.85199 0.96396 0.0
C257 C 0.87512 0.86795 0.01154 0.0
C258 C 0.83889 0.82764 0.9655 0.0
C259 C 0.82462 0.81876 0.0146 0.0
C260 C 0.83705 0.83365 0.06234 0.0
C261 C 0.86206 0.85788 0.06085 0.0
C262 C 0.76303 0.75338 0.06069 0.0
C263 C 0.73736 0.75626 0.02239 0.0
C264 C 0.79185 0.77289 0.05738 0.0
C265 C 0.79545 0.79582 0.01583 0.0
C266 C 0.76992 0.79809 0.97694 0.0
C267 C 0.74122 0.77851 0.98019 0.0
H268 H 0.13947 0.86687 0.93793 0.0
H269 H 0.14453 0.88239 0.11019 0.0
H270 H 0.18654 0.82877 0.94225 0.0
H271 H 0.19251 0.84487 0.11424 0.0
H272 H 0.24902 0.74409 0.10496 0.0
H273 H 0.2048 0.78628 0.10415 0.0
H274 H 0.24527 0.8257 0.95815 0.0
H275 H 0.28862 0.78271 0.95833 0.0
C276 C 0.15082 0.86243 0.97674 0.0
C277 C 0.13804 0.87757 0.02378 0.0
C278 C 0.17806 0.84072 0.97914 0.0
C279 C 0.19338 0.83373 0.02859 0.0
C280 C 0.18101 0.84934 0.07558 0.0
C281 C 0.1536 0.87099 0.07322 0.0
C282 C 0.24842 0.76201 0.07303 0.0
C283 C 0.27204 0.76026 0.03173 0.0
C284 C 0.2233 0.78628 0.07266 0.0
C285 C 0.2214 0.80936 0.03099 0.0
C286 C 0.24566 0.808 0.99037 0.0
C287 C 0.27063 0.78358 0.9906 0.0
H288 H 0.61816 0.65718 0.42852 0.0
H289 H 0.64201 0.64431 0.59634 0.0
H290 H 0.65339 0.70645 0.4274 0.0
H291 H 0.67837 0.69294 0.59467 0.0
H292 H 0.72232 0.79701 0.58617 0.0
H293 H 0.68106 0.75217 0.58818 0.0
H294 H 0.71109 0.71943 0.429 0.0
H295 H 0.75124 0.76509 0.42662 0.0
C296 C 0.63095 0.66483 0.46522 0.0
C297 C 0.6274 0.64665 0.51246 0.0
C298 C 0.65136 0.69301 0.46448 0.0
C299 C 0.66904 0.70356 0.51078 0.0
C300 C 0.66487 0.68581 0.5584 0.0
C301 C 0.64416 0.65777 0.55929 0.0
C302 C 0.71969 0.78039 0.55149 0.0
C303 C 0.7397 0.78448 0.50608 0.0
C304 C 0.6963 0.75454 0.55275 0.0
C305 C 0.69271 0.7321 0.50878 0.0
C306 C 0.71267 0.73654 0.46321 0.0
C307 C 0.73581 0.76251 0.46185 0.0
H308 H 0.37774 0.6451 0.60042 0.0
H309 H 0.36642 0.62037 0.43139 0.0
H310 H 0.33155 0.68486 0.59389 0.0
H311 H 0.32001 0.65909 0.42536 0.0
H312 H 0.2624 0.75618 0.41674 0.0
H313 H 0.30946 0.7178 0.4265 0.0
H314 H 0.27181 0.68856 0.58072 0.0
H315 H 0.22536 0.72784 0.57128 0.0
C316 C 0.36533 0.64799 0.56201 0.0
C317 C 0.37603 0.62974 0.51638 0.0
C318 C 0.33874 0.67065 0.55831 0.0
C319 C 0.32221 0.67541 0.50897 0.0
C320 C 0.3326 0.65667 0.46371 0.0
C321 C 0.35918 0.63424 0.46731 0.0
C322 C 0.26432 0.74146 0.4526 0.0
C323 C 0.24015 0.74453 0.49287 0.0
C324 C 0.2911 0.71938 0.45819 0.0
C325 C 0.29429 0.69981 0.50422 0.0
C326 C 0.2703 0.70339 0.54497 0.0
C327 C 0.24356 0.72564 0.53942 0.0
H328 H 0.3715 0.34893 0.44001 0.0
H329 H 0.35989 0.37186 0.60929 0.0
H330 H 0.32788 0.30694 0.44496 0.0
H331 H 0.31554 0.33056 0.61383 0.0
H332 H 0.24761 0.24007 0.61259 0.0
H333 H 0.29909 0.27285 0.60853 0.0
H334 H 0.26849 0.30909 0.45347 0.0
H335 H 0.21785 0.27558 0.45722 0.0
C336 C 0.35985 0.34481 0.47842 0.0
C337 C 0.36892 0.36406 0.52411 0.0
C338 C 0.33466 0.32088 0.48116 0.0
C339 C 0.31776 0.31575 0.52956 0.0
C340 C 0.32813 0.33368 0.57595 0.0
C341 C 0.35352 0.35749 0.5733 0.0
C342 C 0.25222 0.25495 0.57763 0.0
C343 C 0.22877 0.2557 0.53552 0.0
C344 C 0.28152 0.27379 0.57533 0.0
C345 C 0.28793 0.2937 0.53074 0.0
C346 C 0.26467 0.2937 0.48807 0.0
C347 C 0.2355 0.27478 0.49035 0.0
H348 H 0.63944 0.3778 0.44543 0.0
H349 H 0.62074 0.36625 0.61472 0.0
H350 H 0.67726 0.33021 0.44645 0.0
H351 H 0.65789 0.31798 0.61532 0.0
H352 H 0.74377 0.24352 0.60713 0.0
H353 H 0.71425 0.2972 0.60704 0.0
H354 H 0.67103 0.27103 0.45219 0.0
H355 H 0.70127 0.2181 0.45204 0.0
C356 C 0.64352 0.36523 0.48298 0.0
C357 C 0.62671 0.37564 0.52987 0.0
C358 C 0.66508 0.33778 0.48347 0.0
C359 C 0.67026 0.3199 0.53075 0.0
C360 C 0.65467 0.33126 0.57824 0.0
C361 C 0.63322 0.35888 0.57785 0.0
C362 C 0.72805 0.24955 0.5731 0.0
C363 C 0.72436 0.22667 0.52994 0.0
C364 C 0.71105 0.28011 0.57308 0.0
C365 C 0.69013 0.28842 0.52972 0.0
C366 C 0.68723 0.26572 0.48595 0.0
C367 C 0.70429 0.23526 0.48597 0.0
H368 H 0.00162 0.07025 0.24079 0.0
H369 H 0.06954 0.1207 0.13663 0.0
H370 H 0.03789 0.08345 0.31771 0.0
H371 H 0.10636 0.13353 0.21332 0.0
H372 H 0.13075 0.18599 0.38173 0.0
H373 H 0.10235 0.16992 0.29787 0.0
H374 H 0.09546 0.06834 0.35113 0.0
H375 H 0.12416 0.08422 0.43454 0.0
C376 C 0.02447 0.08401 0.23445 0.0
C377 C 0.03324 0.09405 0.18291 0.0
C378 C 0.04535 0.0913 0.27823 0.0
C379 C 0.07511 0.10921 0.27132 0.0
C380 C 0.08365 0.11957 0.21971 0.0
C381 C 0.06289 0.11191 0.17581 0.0
C382 C 0.12392 0.16008 0.37494 0.0
C383 C 0.12927 0.13646 0.41499 0.0
C384 C 0.1076 0.15091 0.32702 0.0
C385 C 0.09628 0.11801 0.31848 0.0
C386 C 0.10333 0.09402 0.3572 0.0
C387 C 0.11975 0.10313 0.40486 0.0
H388 H 0.8629 0.98812 0.19501 0.0
H389 H 0.92294 0.07504 0.16668 0.0
H390 H 0.83438 0.01809 0.26711 0.0
H391 H 0.89627 0.10445 0.24079 0.0
H392 H 0.83384 0.15756 0.36429 0.0
H393 H 0.84969 0.1305 0.27948 0.0
H394 H 0.84596 0.03434 0.35483 0.0
H395 H 0.82765 0.06102 0.43749 0.0
C396 C 0.87018 0.01366 0.20422 0.0
C397 C 0.89583 0.02897 0.17553 0.0
C398 C 0.85393 0.03083 0.24592 0.0
C399 C 0.86336 0.0636 0.26081 0.0
C400 C 0.88801 0.07938 0.2305 0.0
C401 C 0.90377 0.06234 0.18811 0.0
C402 C 0.83565 0.13059 0.36226 0.0
C403 C 0.82999 0.11155 0.40804 0.0
C404 C 0.84519 0.11505 0.31379 0.0
C405 C 0.84955 0.08016 0.31013 0.0
C406 C 0.84258 0.06117 0.35549 0.0
C407 C 0.83262 0.0766 0.40349 0.0
H408 H 0.01936 0.91687 0.24538 0.0
H409 H 0.93125 0.90949 0.14536 0.0
H410 H 0.98806 0.89573 0.3206 0.0
H411 H 0.90005 0.88713 0.21963 0.0
H412 H 0.84645 0.87744 0.38122 0.0
H413 H 0.87594 0.89983 0.30436 0.0
H414 H 0.96477 0.84566 0.35078 0.0
H415 H 0.93556 0.8246 0.42839 0.0
C416 C 0.99328 0.91059 0.23931 0.0
C417 C 0.97774 0.91485 0.18918 0.0
C418 C 0.97535 0.89822 0.28237 0.0
C419 C 0.94153 0.88933 0.27619 0.0
C420 C 0.92591 0.89405 0.22619 0.0
C421 C 0.94381 0.90682 0.18334 0.0
C422 C 0.87219 0.87019 0.37445 0.0
C423 C 0.88886 0.84953 0.4107 0.0
C424 C 0.88911 0.88293 0.33046 0.0
C425 C 0.92292 0.87488 0.32161 0.0
C426 C 0.93907 0.85315 0.35705 0.0
C427 C 0.92231 0.84083 0.40127 0.0
H428 H 0.12051 0.94494 0.13713 0.0
H429 H 0.08093 0.01925 0.24703 0.0
H430 H 0.14128 0.91266 0.21219 0.0
H431 H 0.10136 0.9871 0.32286 0.0
H432 H 0.17196 0.93986 0.443 0.0
H433 H 0.15169 0.9713 0.36678 0.0
H434 H 0.12428 0.87896 0.28483 0.0
H435 H 0.1454 0.84755 0.36089 0.0
C436 C 0.1154 0.95373 0.1775 0.0
C437 C 0.09832 0.98388 0.18641 0.0
C438 C 0.12752 0.93547 0.22062 0.0
C439 C 0.12282 0.94707 0.27376 0.0
C440 C 0.1058 0.97753 0.28253 0.0
C441 C 0.09391 0.99588 0.23922 0.0
C442 C 0.16157 0.92632 0.40866 0.0
C443 C 0.16013 0.89126 0.40794 0.0
C444 C 0.14978 0.94433 0.36505 0.0
C445 C 0.13604 0.92775 0.31973 0.0
C446 C 0.13504 0.89258 0.31876 0.0
C447 C 0.14711 0.87454 0.3623 0.0
H448 H 0.09239 0.00052 0.78822 0.0
H449 H 0.14237 0.93001 0.89011 0.0
H450 H 0.10592 0.96633 0.70975 0.0
H451 H 0.1557 0.89522 0.81095 0.0
H452 H 0.20905 0.87385 0.64447 0.0
H453 H 0.19227 0.89985 0.72988 0.0
H454 H 0.09192 0.91175 0.66833 0.0
H455 H 0.10864 0.8858 0.58319 0.0
C456 C 0.10619 0.97766 0.79389 0.0
C457 C 0.11651 0.96819 0.84532 0.0
C458 C 0.11367 0.95784 0.74892 0.0
C459 C 0.13176 0.928 0.7542 0.0
C460 C 0.14189 0.91821 0.80568 0.0
C461 C 0.13416 0.93806 0.85093 0.0
C462 C 0.18327 0.88143 0.64963 0.0
C463 C 0.16026 0.87825 0.60692 0.0
C464 C 0.17366 0.89627 0.69851 0.0
C465 C 0.1409 0.90818 0.70549 0.0
C466 C 0.11752 0.90339 0.66372 0.0
C467 C 0.12709 0.88859 0.61499 0.0
H468 H 0.04305 0.03342 0.82178 0.0
H469 H 0.98563 0.12453 0.81156 0.0
H470 H 0.08018 0.05297 0.75196 0.0
H471 H 0.02218 0.14353 0.74055 0.0
H472 H 0.11419 0.18172 0.65401 0.0
H473 H 0.0796 0.16252 0.72758 0.0
H474 H 0.07957 0.06292 0.6571 0.0
H475 H 0.11506 0.0818 0.585 0.0
C476 C 0.03826 0.05751 0.80444 0.0
C477 C 0.01156 0.07749 0.82242 0.0
C478 C 0.0594 0.06859 0.76427 0.0
C479 C 0.0542 0.09978 0.74093 0.0
C480 C 0.02719 0.1196 0.75838 0.0
C481 C 0.00607 0.10856 0.79869 0.0
C482 C 0.10727 0.15561 0.65488 0.0
C483 C 0.11725 0.13327 0.61371 0.0
C484 C 0.08709 0.14472 0.69655 0.0
C485 C 0.07661 0.11126 0.69793 0.0
C486 C 0.08738 0.08879 0.65747 0.0
C487 C 0.10749 0.09966 0.61591 0.0
H488 H 0.8777 0.06508 0.88286 0.0
H489 H 0.92348 0.99062 0.77864 0.0
H490 H 0.86022 0.09639 0.8047 0.0
H491 H 0.90653 0.02226 0.70059 0.0
H492 H 0.83174 0.06172 0.57801 0.0
H493 H 0.85353 0.03372 0.65639 0.0
H494 H 0.87988 0.12915 0.72895 0.0
H495 H 0.85787 0.15737 0.64994 0.0
C496 C 0.88434 0.05556 0.84331 0.0
C497 C 0.90161 0.02514 0.83691 0.0
C498 C 0.87448 0.07364 0.79853 0.0
C499 C 0.88171 0.06165 0.74643 0.0
C500 C 0.90002 0.03183 0.74019 0.0
C501 C 0.90985 0.01375 0.78492 0.0
C502 C 0.84253 0.07676 0.61038 0.0
C503 C 0.84337 0.11176 0.60756 0.0
C504 C 0.85508 0.06069 0.6553 0.0
C505 C 0.86877 0.07918 0.69866 0.0
C506 C 0.8693 0.11424 0.69627 0.0
C507 C 0.85669 0.13039 0.65113 0.0
H508 H 0.94 0.87025 0.88994 0.0
H509 H 0.0152 0.91157 0.78715 0.0
H510 H 0.90849 0.85105 0.81088 0.0
H511 H 0.98364 0.89264 0.70844 0.0
H512 H 0.93905 0.82406 0.58116 0.0
H513 H 0.96881 0.83956 0.6636 0.0
H514 H 0.87633 0.87381 0.73441 0.0
H515 H 0.84645 0.85821 0.65162 0.0
C516 C 0.94971 0.87541 0.85055 0.0
C517 C 0.9801 0.89243 0.84481 0.0
C518 C 0.93162 0.86446 0.8053 0.0
C519 C 0.9437 0.87015 0.75349 0.0
C520 C 0.97397 0.88738 0.74786 0.0
C521 C 0.99196 0.8984 0.79298 0.0
C522 C 0.92507 0.83488 0.61435 0.0
C523 C 0.8905 0.8403 0.60977 0.0
C524 C 0.94211 0.84379 0.6615 0.0
C525 C 0.92498 0.85831 0.70518 0.0
C526 C 0.89017 0.8625 0.70148 0.0
C527 C 0.87307 0.85356 0.65417 0.0
H528 H 0.57491 0.61301 0.64442 0.0
H529 H 0.5033 0.56869 0.74949 0.0
H530 H 0.61123 0.62619 0.72118 0.0
H531 H 0.53914 0.58249 0.82679 0.0
H532 H 0.62569 0.58347 0.94592 0.0
H533 H 0.59536 0.56646 0.86452 0.0
H534 H 0.60827 0.66508 0.80148 0.0
H535 H 0.63806 0.68238 0.88323 0.0
C536 C 0.5673 0.60559 0.68382 0.0
C537 C 0.53674 0.5893 0.69094 0.0
C538 C 0.58781 0.61352 0.72785 0.0
C539 C 0.57811 0.60515 0.7799 0.0
C540 C 0.54748 0.58879 0.78701 0.0
C541 C 0.52686 0.58116 0.74295 0.0
C542 C 0.62215 0.60151 0.91463 0.0
C543 C 0.63399 0.63439 0.9213 0.0
C544 C 0.60478 0.59175 0.86809 0.0
C545 C 0.59916 0.61455 0.827 0.0
C546 C 0.61243 0.64692 0.8324 0.0
C547 C 0.6296 0.65677 0.87915 0.0
H548 H 0.42451 0.57442 0.66956 0.0
H549 H 0.34967 0.49779 0.68113 0.0
H550 H 0.3993 0.60509 0.74399 0.0
H551 H 0.32295 0.52932 0.75337 0.0
H552 H 0.31785 0.56378 0.92863 0.0
H553 H 0.33488 0.53863 0.84397 0.0
H554 H 0.35555 0.63652 0.78256 0.0
H555 H 0.34077 0.6616 0.86935 0.0
C556 C 0.40237 0.56442 0.68723 0.0
C557 C 0.38981 0.53324 0.67028 0.0
C558 C 0.38755 0.5822 0.72977 0.0
C559 C 0.35937 0.56941 0.75568 0.0
C560 C 0.34525 0.53946 0.73569 0.0
C561 C 0.36046 0.52147 0.6939 0.0
C562 C 0.32627 0.58 0.89729 0.0
C563 C 0.3285 0.61469 0.90626 0.0
C564 C 0.33549 0.56558 0.84814 0.0
C565 C 0.34666 0.58547 0.80609 0.0
C566 C 0.34755 0.62035 0.81422 0.0
C567 C 0.33867 0.63479 0.86382 0.0
H568 H 0.4975 0.36635 0.68225 0.0
H569 H 0.43467 0.45342 0.69631 0.0
H570 H 0.46647 0.34014 0.75423 0.0
H571 H 0.40301 0.42732 0.76738 0.0
H572 H 0.33958 0.36249 0.87325 0.0
H573 H 0.36534 0.38046 0.78984 0.0
H574 H 0.46219 0.35152 0.85091 0.0
H575 H 0.43643 0.33299 0.93329 0.0
C576 C 0.47659 0.3796 0.70016 0.0
C577 C 0.46766 0.4115 0.68281 0.0
C578 C 0.45889 0.36468 0.74132 0.0
C579 C 0.43214 0.38157 0.76623 0.0
C580 C 0.42291 0.41329 0.74806 0.0
C581 C 0.4407 0.42816 0.70694 0.0
C582 C 0.36627 0.35945 0.86827 0.0
C583 C 0.38607 0.34663 0.90982 0.0
C584 C 0.38104 0.36996 0.82082 0.0
C585 C 0.4158 0.36753 0.81394 0.0
C586 C 0.43532 0.35344 0.85472 0.0
C587 C 0.42063 0.34315 0.90213 0.0
H588 H 0.64882 0.52011 0.69402 0.0
H589 H 0.57673 0.441 0.67371 0.0
H590 H 0.67765 0.48818 0.76221 0.0
H591 H 0.60422 0.40971 0.74337 0.0
H592 H 0.66619 0.35101 0.85633 0.0
H593 H 0.65031 0.37875 0.77373 0.0
H594 H 0.66869 0.47469 0.85142 0.0
H595 H 0.68675 0.44698 0.93197 0.0
C596 C 0.63905 0.49586 0.70405 0.0
C597 C 0.61012 0.48322 0.67868 0.0
C598 C 0.65552 0.47757 0.74339 0.0
C599 C 0.64313 0.44643 0.75897 0.0
C600 C 0.61487 0.43334 0.73214 0.0
C601 C 0.59876 0.45146 0.6923 0.0
C602 C 0.66767 0.37798 0.85518 0.0
C603 C 0.6772 0.39679 0.90106 0.0
C604 C 0.65813 0.39394 0.80805 0.0
C605 C 0.65769 0.42905 0.80595 0.0
C606 C 0.66891 0.44766 0.85106 0.0
C607 C 0.67879 0.43174 0.89776 0.0
H608 H 0.58798 0.5237 0.27687 0.0
H609 H 0.62093 0.44227 0.37541 0.0
H610 H 0.60576 0.49264 0.19674 0.0
H611 H 0.63944 0.41166 0.29548 0.0
H612 H 0.64253 0.35403 0.13465 0.0
H613 H 0.62015 0.38303 0.21402 0.0
H614 H 0.65864 0.47638 0.15693 0.0
H615 H 0.68064 0.44749 0.07771 0.0
C616 C 0.59896 0.49917 0.28142 0.0
C617 C 0.60335 0.48557 0.33247 0.0
C618 C 0.60932 0.48146 0.23556 0.0
C619 C 0.6243 0.44982 0.23983 0.0
C620 C 0.62776 0.43585 0.29079 0.0
C621 C 0.61736 0.45352 0.33663 0.0
C622 C 0.64637 0.3807 0.1394 0.0
C623 C 0.6632 0.39854 0.09998 0.0
C624 C 0.63353 0.3973 0.18472 0.0
C625 C 0.63742 0.43204 0.19153 0.0
C626 C 0.65459 0.44974 0.15231 0.0
C627 C 0.6673 0.43318 0.10704 0.0
H628 H 0.56086 0.63503 0.39319 0.0
H629 H 0.50453 0.56458 0.29488 0.0
H630 H 0.59539 0.64804 0.31606 0.0
H631 H 0.53882 0.57794 0.21778 0.0
H632 H 0.57594 0.64536 0.08369 0.0
H633 H 0.54506 0.62971 0.16287 0.0
H634 H 0.63746 0.62069 0.25178 0.0
H635 H 0.66877 0.6356 0.17168 0.0
C636 C 0.55607 0.62207 0.35532 0.0
C637 C 0.52996 0.59879 0.35014 0.0
C638 C 0.57587 0.62951 0.31123 0.0
C639 C 0.56965 0.6141 0.26097 0.0
C640 C 0.54387 0.59048 0.25597 0.0
C641 C 0.52428 0.58283 0.30012 0.0
C642 C 0.58982 0.63956 0.11978 0.0
C643 C 0.6249 0.64125 0.12107 0.0
C644 C 0.57208 0.63068 0.16517 0.0
C645 C 0.5889 0.62366 0.21322 0.0
C646 C 0.6239 0.62608 0.21519 0.0
C647 C 0.64177 0.6347 0.16945 0.0
H648 H 0.40329 0.47798 0.27685 0.0
H649 H 0.36595 0.55717 0.3811 0.0
H650 H 0.38641 0.50961 0.19863 0.0
H651 H 0.34839 0.58833 0.30303 0.0
H652 H 0.35325 0.64987 0.1507 0.0
H653 H 0.37117 0.61873 0.22896 0.0
H654 H 0.33605 0.52726 0.15271 0.0
H655 H 0.31844 0.55836 0.07442 0.0
C656 C 0.39136 0.50205 0.28308 0.0
C657 C 0.38588 0.51503 0.33516 0.0
C658 C 0.38152 0.5201 0.23826 0.0
C659 C 0.36597 0.55146 0.24459 0.0
C660 C 0.36066 0.56445 0.29673 0.0
C661 C 0.37053 0.54645 0.3415 0.0
C662 C 0.34914 0.62315 0.15091 0.0
C663 C 0.33453 0.60654 0.1064 0.0
C664 C 0.35939 0.6053 0.19571 0.0
C665 C 0.35513 0.57048 0.19701 0.0
C666 C 0.34026 0.55395 0.1526 0.0
C667 C 0.33011 0.57178 0.1078 0.0
H668 H 0.43943 0.38594 0.3881 0.0
H669 H 0.5143 0.43119 0.28915 0.0
H670 H 0.40824 0.36879 0.30787 0.0
H671 H 0.48285 0.41431 0.20887 0.0
H672 H 0.44063 0.34134 0.08132 0.0
H673 H 0.46988 0.36155 0.16164 0.0
H674 H 0.37576 0.39091 0.23232 0.0
H675 H 0.34638 0.37062 0.15164 0.0
C676 C 0.44908 0.3925 0.34926 0.0
C677 C 0.47942 0.40978 0.34498 0.0
C678 C 0.43111 0.38279 0.30329 0.0
C679 C 0.44317 0.39005 0.25205 0.0
C680 C 0.47318 0.40792 0.24781 0.0
C681 C 0.49112 0.41771 0.29379 0.0
C682 C 0.42618 0.35237 0.1138 0.0
C683 C 0.39121 0.35454 0.11006 0.0
C684 C 0.44295 0.364 0.15977 0.0
C685 C 0.42514 0.37803 0.20315 0.0
C686 C 0.39013 0.37994 0.19971 0.0
C687 C 0.37332 0.36829 0.1536 0.0
loop_
_geom_bond_atom_site_label_1
_geom_bond_atom_site_label_2
_geom_bond_distance
_geom_bond_site_symmetry_2
_ccdc_geom_bond_type
Zn0 O2 1.933 1_556 S
Zn0 O20 1.985 . S
Zn0 O31 1.955 . S
Zn1 O2 1.911 . S
Zn1 O21 1.970 . S
Zn1 O37 1.945 . S
Zn1 O44 1.981 . S
O2 Zn0 1.933 1_554 S
O2 Zn1 1.911 . S
O2 H3 0.841 1_655 S
H3 O2 0.841 1_455 S
C4 O5 1.246 . S
C4 O33 1.276 1_545 S
O5 C4 1.246 . S
Zn6 O8 1.911 . S
Zn6 O23 1.970 . S
Zn6 O40 1.945 . S
Zn6 O47 1.981 . S
Zn7 O8 1.933 1_556 S
Zn7 O22 1.985 . S
Zn7 O29 1.955 . S
O8 Zn6 1.911 . S
O8 Zn7 1.933 1_554 S
O8 H9 0.841 1_455 S
H9 O8 0.841 1_655 S
Zn10 O11 1.933 1_556 S
Zn10 O24 1.985 . S
Zn10 O33 1.955 . S
O11 Zn10 1.933 1_554 S
O11 Zn12 1.911 . S
O11 H13 0.841 1_565 S
Zn12 O11 1.911 . S
Zn12 O25 1.970 . S
Zn12 O41 1.981 . S
Zn12 O43 1.945 . S
H13 O11 0.841 1_545 S
Zn14 O15 1.933 1_556 S
Zn14 O27 1.985 . S
Zn14 O35 1.955 . S
O15 Zn14 1.933 1_554 S
O15 H16 0.841 1_545 S
O15 Zn17 1.911 . S
H16 O15 0.841 1_565 S
Zn17 O15 1.911 . S
Zn17 O28 1.970 . S
Zn17 O38 1.981 . S
Zn17 O46 1.945 . S
C18 O19 1.246 . S
C18 O35 1.276 1_565 S
O19 C18 1.246 . S
O20 Zn0 1.985 . S
O20 C30 1.245 1_556 S
O21 Zn1 1.970 . S
O21 C30 1.263 . S
O22 Zn7 1.985 . S
O22 C34 1.245 1_556 S
O23 Zn6 1.970 . S
O23 C34 1.263 . S
O24 Zn10 1.985 . S
O24 C39 1.245 1_556 S
O25 Zn12 1.970 . S
O25 C39 1.263 . S
C26 O37 1.262 1_455 S
C26 O38 1.245 . S
O27 Zn14 1.985 . S
O27 C45 1.245 1_556 S
O28 Zn17 1.970 . S
O28 C45 1.263 . S
O29 Zn7 1.955 . S
O29 C48 1.276 1_455 S
C30 O20 1.245 1_554 S
C30 O21 1.263 . S
O31 Zn0 1.955 . S
O31 C50 1.276 1_655 S
C32 O40 1.262 1_655 S
C32 O41 1.245 . S
O33 C4 1.276 1_565 S
O33 Zn10 1.955 . S
C34 O22 1.245 1_554 S
C34 O23 1.263 . S
O35 Zn14 1.955 . S
O35 C18 1.276 1_545 S
C36 O43 1.262 1_545 S
C36 O44 1.245 . S
O37 Zn1 1.945 . S
O37 C26 1.262 1_655 S
O38 Zn17 1.981 . S
O38 C26 1.245 . S
C39 O24 1.245 1_554 S
C39 O25 1.263 . S
O40 Zn6 1.945 . S
O40 C32 1.262 1_455 S
O41 Zn12 1.981 . S
O41 C32 1.245 . S
C42 O46 1.262 1_565 S
C42 O47 1.245 . S
O43 Zn12 1.945 . S
O43 C36 1.262 1_565 S
O44 Zn1 1.981 . S
O44 C36 1.245 . S
C45 O27 1.245 1_554 S
C45 O28 1.263 . S
O46 Zn17 1.945 . S
O46 C42 1.262 1_545 S
O47 Zn6 1.981 . S
O47 C42 1.245 . S
C48 O29 1.276 1_655 S
C48 O49 1.246 . S
O49 C48 1.246 . S
C50 O31 1.276 1_455 S
C50 O51 1.246 . S
O51 C50 1.246 . S
Zn52 O54 1.933 . S
Zn52 O72 1.985 . S
Zn52 O83 1.955 . S
Zn53 O54 1.911 . S
Zn53 O73 1.970 . S
Zn53 O89 1.945 . S
Zn53 O96 1.981 . S
O54 Zn52 1.933 . S
O54 Zn53 1.911 . S
O54 H55 0.841 . S
H55 O54 0.841 . S
C56 O57 1.246 . S
C56 O85 1.276 . S
O57 C56 1.246 . S
Zn58 O60 1.911 . S
Zn58 O75 1.970 . S
Zn58 O92 1.945 . S
Zn58 O99 1.981 . S
Zn59 O60 1.933 . S
Zn59 O74 1.985 . S
Zn59 O81 1.955 . S
O60 Zn58 1.911 . S
O60 Zn59 1.933 . S
O60 H61 0.841 . S
H61 O60 0.841 . S
Zn62 O63 1.933 . S
Zn62 O76 1.985 . S
Zn62 O85 1.955 . S
O63 Zn62 1.933 . S
O63 Zn64 1.911 . S
O63 H65 0.841 . S
Zn64 O63 1.911 . S
Zn64 O77 1.970 . S
Zn64 O93 1.981 . S
Zn64 O95 1.945 . S
H65 O63 0.841 . S
Zn66 O67 1.933 . S
Zn66 O79 1.985 . S
Zn66 O87 1.955 . S
O67 Zn66 1.933 . S
O67 H68 0.841 . S
O67 Zn69 1.911 . S
H68 O67 0.841 . S
Zn69 O67 1.911 . S
Zn69 O80 1.970 . S
Zn69 O90 1.981 . S
Zn69 O98 1.945 . S
C70 O71 1.246 . S
C70 O87 1.276 . S
O71 C70 1.246 . S
O72 Zn52 1.985 . S
O72 C82 1.245 . S
O73 Zn53 1.970 . S
O73 C82 1.263 . S
O74 Zn59 1.985 . S
O74 C86 1.245 . S
O75 Zn58 1.970 . S
O75 C86 1.263 . S
O76 Zn62 1.985 . S
O76 C91 1.245 . S
O77 Zn64 1.970 . S
O77 C91 1.263 . S
C78 O89 1.262 . S
C78 O90 1.245 . S
O79 Zn66 1.985 . S
O79 C97 1.245 . S
O80 Zn69 1.970 . S
O80 C97 1.263 . S
O81 Zn59 1.955 . S
O81 C100 1.276 . S
C82 O72 1.245 . S
C82 O73 1.263 . S
O83 Zn52 1.955 . S
O83 C102 1.276 . S
C84 O92 1.262 . S
C84 O93 1.245 . S
O85 C56 1.276 . S
O85 Zn62 1.955 . S
C86 O74 1.245 . S
C86 O75 1.263 . S
O87 Zn66 1.955 . S
O87 C70 1.276 . S
C88 O95 1.262 . S
C88 O96 1.245 . S
O89 Zn53 1.945 . S
O89 C78 1.262 . S
O90 Zn69 1.981 . S
O90 C78 1.245 . S
C91 O76 1.245 . S
C91 O77 1.263 . S
O92 Zn58 1.945 . S
O92 C84 1.262 . S
O93 Zn64 1.981 . S
O93 C84 1.245 . S
C94 O98 1.262 . S
C94 O99 1.245 . S
O95 Zn64 1.945 . S
O95 C88 1.262 . S
O96 Zn53 1.981 . S
O96 C88 1.245 . S
C97 O79 1.245 . S
C97 O80 1.263 . S
O98 Zn69 1.945 . S
O98 C94 1.262 . S
O99 Zn58 1.981 . S
O99 C94 1.245 . S
C100 O81 1.276 . S
C100 O101 1.246 . S
O101 C100 1.246 . S
C102 O83 1.276 . S
C102 O103 1.246 . S
O103 C102 1.246 . S
H104 C111 0.929 . S
H105 C114 0.930 . S
H106 C116 0.929 . S
H107 C108 0.969 . S
C108 H107 0.969 . S
C108 O109 1.550 1_554 S
C108 H110 0.973 . S
O109 C108 1.550 1_556 S
O109 C115 1.414 . S
H110 C108 0.973 . S
C111 H104 0.929 . S
C111 C112 1.400 1_554 S
C111 C113 1.364 . S
C112 C111 1.400 1_556 S
C112 C116 1.377 . S
C113 C111 1.364 . S
C113 C114 1.374 . S
C114 H105 0.930 . S
C114 C113 1.374 . S
C114 C115 1.371 1_554 S
C115 O109 1.414 . S
C115 C114 1.371 1_556 S
C115 C116 1.405 . S
C116 H106 0.929 . S
C116 C112 1.377 . S
C116 C115 1.405 . S
H117 C124 0.929 . S
H118 C127 0.930 . S
H119 C129 0.929 . S
H120 C121 0.969 . S
C121 H120 0.969 . S
C121 O122 1.550 1_554 S
C121 H123 0.973 . S
O122 C121 1.550 1_556 S
O122 C128 1.412 1_556 S
H123 C121 0.973 . S
C124 H117 0.929 . S
C124 C125 1.400 1_554 S
C124 C126 1.364 . S
C125 C124 1.400 1_556 S
C125 C129 1.377 . S
C126 C124 1.364 . S
C126 C127 1.374 . S
C127 H118 0.930 . S
C127 C126 1.374 . S
C127 C128 1.383 . S
C128 O122 1.412 1_554 S
C128 C127 1.383 . S
C128 C129 1.394 1_554 S
C129 H119 0.929 . S
C129 C125 1.377 . S
C129 C128 1.394 1_556 S
H130 C137 0.929 . S
H131 C140 0.930 . S
H132 C142 0.929 . S
H133 C134 0.969 . S
C134 H133 0.969 . S
C134 O135 1.550 1_556 S
C134 H136 0.973 . S
O135 C134 1.550 1_554 S
O135 C141 1.412 . S
H136 C134 0.973 . S
C137 H130 0.929 . S
C137 C138 1.400 . S
C137 C139 1.364 1_554 S
C138 C137 1.400 . S
C138 C142 1.377 . S
C139 C137 1.364 1_556 S
C139 C140 1.374 . S
C140 H131 0.930 . S
C140 C139 1.374 . S
C140 C141 1.383 1_556 S
C141 O135 1.412 . S
C141 C140 1.383 1_554 S
C141 C142 1.394 . S
C142 H132 0.929 . S
C142 C138 1.377 . S
C142 C141 1.394 . S
H143 C150 0.929 . S
H144 C153 0.930 . S
H145 C155 0.929 . S
H146 C147 0.969 . S
C147 H146 0.969 . S
C147 O148 1.550 1_554 S
C147 H149 0.973 . S
O148 C147 1.550 1_556 S
O148 C154 1.412 1_556 S
H149 C147 0.973 . S
C150 H143 0.929 . S
C150 C151 1.400 1_554 S
C150 C152 1.364 . S
C151 C150 1.400 1_556 S
C151 C155 1.377 . S
C152 C150 1.364 . S
C152 C153 1.374 . S
C153 H144 0.930 . S
C153 C152 1.374 . S
C153 C154 1.383 . S
C154 O148 1.412 1_554 S
C154 C153 1.383 . S
C154 C155 1.394 1_554 S
C155 H145 0.929 . S
C155 C151 1.377 . S
C155 C154 1.394 1_556 S
H156 C163 0.929 . S
H157 C166 0.930 . S
H158 C168 0.929 . S
H159 C160 0.969 . S
C160 H159 0.969 . S
C160 O161 1.550 . S
C160 H162 0.973 . S
O161 C160 1.550 . S
O161 C167 1.412 . S
H162 C160 0.973 . S
C163 H156 0.929 . S
C163 C164 1.400 . S
C163 C165 1.364 . S
C164 C163 1.400 . S
C164 C168 1.377 . S
C165 C163 1.364 . S
C165 C166 1.374 . S
C166 H157 0.930 . S
C166 C165 1.374 . S
C166 C167 1.383 . S
C167 O161 1.412 . S
C167 C166 1.383 . S
C167 C168 1.394 . S
C168 H158 0.929 . S
C168 C164 1.377 . S
C168 C167 1.394 . S
H169 C176 0.929 . S
H170 C179 0.930 . S
H171 C181 0.929 . S
H172 C173 0.969 . S
C173 H172 0.969 . S
C173 O174 1.550 . S
C173 H175 0.973 . S
O174 C173 1.550 . S
O174 C180 1.412 . S
H175 C173 0.973 . S
C176 H169 0.929 . S
C176 C177 1.400 . S
C176 C178 1.364 . S
C177 C176 1.400 . S
C177 C181 1.377 . S
C178 C176 1.364 . S
C178 C179 1.374 . S
C179 H170 0.930 . S
C179 C178 1.374 . S
C179 C180 1.383 . S
C180 O174 1.412 . S
C180 C179 1.383 . S
C180 C181 1.394 . S
C181 H171 0.929 . S
C181 C177 1.377 . S
C181 C180 1.394 . S
H182 C189 0.929 . S
H183 C192 0.930 . S
H184 C194 0.929 . S
H185 C186 0.969 . S
C186 H185 0.969 . S
C186 O187 1.550 . S
C186 H188 0.973 . S
O187 C186 1.550 . S
O187 C193 1.412 . S
H188 C186 0.973 . S
C189 H182 0.929 . S
C189 C190 1.400 . S
C189 C191 1.364 . S
C190 C189 1.400 . S
C190 C194 1.377 . S
C191 C189 1.364 . S
C191 C192 1.374 . S
C192 H183 0.930 . S
C192 C191 1.374 . S
C192 C193 1.383 . S
C193 O187 1.412 . S
C193 C192 1.383 . S
C193 C194 1.394 . S
C194 H184 0.929 . S
C194 C190 1.377 . S
C194 C193 1.394 . S
H195 C202 0.929 . S
H196 C205 0.930 . S
H197 C207 0.929 . S
H198 C199 0.969 . S
C199 H198 0.969 . S
C199 O200 1.550 . S
C199 H201 0.973 . S
O200 C199 1.550 . S
O200 C206 1.412 . S
H201 C199 0.973 . S
C202 H195 0.929 . S
C202 C203 1.400 . S
C202 C204 1.364 . S
C203 C202 1.400 . S
C203 C207 1.377 . S
C204 C202 1.364 . S
C204 C205 1.374 . S
C205 H196 0.930 . S
C205 C204 1.374 . S
C205 C206 1.383 . S
C206 O200 1.412 . S
C206 C205 1.383 . S
C206 C207 1.394 . S
C207 H197 0.929 . S
C207 C203 1.377 . S
C207 C206 1.394 . S
H208 C216 0.950 . S
H209 C221 0.950 . S
H210 C218 0.950 . S
H211 C220 0.950 . S
H212 C222 0.950 . S
H213 C224 0.950 . S
H214 C226 0.950 . S
H215 C227 0.950 . S
C216 H208 0.950 . S
C216 C217 1.386 . S
C216 C218 1.391 . S
C217 C216 1.386 . S
C217 C221 1.393 1_554 S
C218 H210 0.950 . S
C218 C216 1.391 . S
C218 C219 1.400 . S
C219 C218 1.400 . S
C219 C220 1.398 1_554 S
C219 C225 1.491 . S
C220 H211 0.950 . S
C220 C219 1.398 1_556 S
C220 C221 1.391 . S
C221 H209 0.950 . S
C221 C217 1.393 1_556 S
C221 C220 1.391 . S
C222 H212 0.950 . S
C222 C223 1.386 1_556 S
C222 C224 1.391 . S
C223 C222 1.386 1_554 S
C223 C227 1.393 . S
C224 H213 0.950 . S
C224 C222 1.391 . S
C224 C225 1.400 1_556 S
C225 C219 1.491 . S
C225 C224 1.400 1_554 S
C225 C226 1.398 . S
C226 H214 0.950 . S
C226 C225 1.398 . S
C226 C227 1.391 . S
C227 H215 0.950 . S
C227 C223 1.393 . S
C227 C226 1.391 . S
H228 C236 0.950 . S
H229 C241 0.950 . S
H230 C238 0.950 . S
H231 C240 0.950 . S
H232 C242 0.950 . S
H233 C244 0.950 . S
H234 C246 0.950 . S
H235 C247 0.950 . S
C236 H228 0.950 . S
C236 C237 1.386 . S
C236 C238 1.391 . S
C237 C236 1.386 . S
C237 C241 1.393 . S
C238 H230 0.950 . S
C238 C236 1.391 . S
C238 C239 1.400 . S
C239 C238 1.400 . S
C239 C240 1.398 . S
C239 C245 1.491 . S
C240 H231 0.950 . S
C240 C239 1.398 . S
C240 C241 1.391 . S
C241 H229 0.950 . S
C241 C237 1.393 . S
C241 C240 1.391 . S
C242 H232 0.950 . S
C242 C243 1.386 . S
C242 C244 1.391 . S
C243 C242 1.386 . S
C243 C247 1.393 . S
C244 H233 0.950 . S
C244 C242 1.391 . S
C244 C245 1.400 . S
C245 C239 1.491 . S
C245 C244 1.400 . S
C245 C246 1.398 . S
C246 H234 0.950 . S
C246 C245 1.398 . S
C246 C247 1.391 . S
C247 H235 0.950 . S
C247 C243 1.393 . S
C247 C246 1.391 . S
H248 C256 0.950 . S
H249 C261 0.950 . S
H250 C258 0.950 . S
H251 C260 0.950 . S
H252 C262 0.950 . S
H253 C264 0.950 . S
H254 C266 0.950 . S
H255 C267 0.950 . S
C256 H248 0.950 . S
C256 C257 1.386 1_556 S
C256 C258 1.391 . S
C257 C256 1.386 1_554 S
C257 C261 1.393 . S
C258 H250 0.950 . S
C258 C256 1.391 . S
C258 C259 1.400 1_556 S
C259 C258 1.400 1_554 S
C259 C260 1.398 . S
C259 C265 1.491 . S
C260 H251 0.950 . S
C260 C259 1.398 . S
C260 C261 1.391 . S
C261 H249 0.950 . S
C261 C257 1.393 . S
C261 C260 1.391 . S
C262 H252 0.950 . S
C262 C263 1.386 . S
C262 C264 1.391 . S
C263 C262 1.386 . S
C263 C267 1.393 1_554 S
C264 H253 0.950 . S
C264 C262 1.391 . S
C264 C265 1.400 . S
C265 C259 1.491 . S
C265 C264 1.400 . S
C265 C266 1.398 1_554 S
C266 H254 0.950 . S
C266 C265 1.398 1_556 S
C266 C267 1.391 . S
C267 H255 0.950 . S
C267 C263 1.393 1_556 S
C267 C266 1.391 . S
H268 C276 0.950 . S
H269 C281 0.950 . S
H270 C278 0.950 . S
H271 C280 0.950 . S
H272 C282 0.950 . S
H273 C284 0.950 . S
H274 C286 0.950 . S
H275 C287 0.950 . S
C276 H268 0.950 . S
C276 C277 1.386 1_556 S
C276 C278 1.391 . S
C277 C276 1.386 1_554 S
C277 C281 1.393 . S
C278 H270 0.950 . S
C278 C276 1.391 . S
C278 C279 1.400 1_556 S
C279 C278 1.400 1_554 S
C279 C280 1.398 . S
C279 C285 1.491 . S
C280 H271 0.950 . S
C280 C279 1.398 . S
C280 C281 1.391 . S
C281 H269 0.950 . S
C281 C277 1.393 . S
C281 C280 1.391 . S
C282 H272 0.950 . S
C282 C283 1.386 . S
C282 C284 1.391 . S
C283 C282 1.386 . S
C283 C287 1.393 1_554 S
C284 H273 0.950 . S
C284 C282 1.391 . S
C284 C285 1.400 . S
C285 C279 1.491 . S
C285 C284 1.400 . S
C285 C286 1.398 1_554 S
C286 H274 0.950 . S
C286 C285 1.398 1_556 S
C286 C287 1.391 . S
C287 H275 0.950 . S
C287 C283 1.393 1_556 S
C287 C286 1.391 . S
H288 C296 0.950 . S
H289 C301 0.950 . S
H290 C298 0.950 . S
H291 C300 0.950 . S
H292 C302 0.950 . S
H293 C304 0.950 . S
H294 C306 0.950 . S
H295 C307 0.950 . S
C296 H288 0.950 . S
C296 C297 1.386 . S
C296 C298 1.391 . S
C297 C296 1.386 . S
C297 C301 1.393 . S
C298 H290 0.950 . S
C298 C296 1.391 . S
C298 C299 1.400 . S
C299 C298 1.400 . S
C299 C300 1.398 . S
C299 C305 1.491 . S
C300 H291 0.950 . S
C300 C299 1.398 . S
C300 C301 1.391 . S
C301 H289 0.950 . S
C301 C297 1.393 . S
C301 C300 1.391 . S
C302 H292 0.950 . S
C302 C303 1.386 . S
C302 C304 1.391 . S
C303 C302 1.386 . S
C303 C307 1.393 . S
C304 H293 0.950 . S
C304 C302 1.391 . S
C304 C305 1.400 . S
C305 C299 1.491 . S
C305 C304 1.400 . S
C305 C306 1.398 . S
C306 H294 0.950 . S
C306 C305 1.398 . S
C306 C307 1.391 . S
C307 H295 0.950 . S
C307 C303 1.393 . S
C307 C306 1.391 . S
H308 C316 0.950 . S
H309 C321 0.950 . S
H310 C318 0.950 . S
H311 C320 0.950 . S
H312 C322 0.950 . S
H313 C324 0.950 . S
H314 C326 0.950 . S
H315 C327 0.950 . S
C316 H308 0.950 . S
C316 C317 1.386 . S
C316 C318 1.391 . S
C317 C316 1.386 . S
C317 C321 1.393 . S
C318 H310 0.950 . S
C318 C316 1.391 . S
C318 C319 1.400 . S
C319 C318 1.400 . S
C319 C320 1.398 . S
C319 C325 1.491 . S
C320 H311 0.950 . S
C320 C319 1.398 . S
C320 C321 1.391 . S
C321 H309 0.950 . S
C321 C317 1.393 . S
C321 C320 1.391 . S
C322 H312 0.950 . S
C322 C323 1.386 . S
C322 C324 1.391 . S
C323 C322 1.386 . S
C323 C327 1.393 . S
C324 H313 0.950 . S
C324 C322 1.391 . S
C324 C325 1.400 . S
C325 C319 1.491 . S
C325 C324 1.400 . S
C325 C326 1.398 . S
C326 H314 0.950 . S
C326 C325 1.398 . S
C326 C327 1.391 . S
C327 H315 0.950 . S
C327 C323 1.393 . S
C327 C326 1.391 . S
H328 C336 0.950 . S
H329 C341 0.950 . S
H330 C338 0.950 . S
H331 C340 0.950 . S
H332 C342 0.950 . S
H333 C344 0.950 . S
H334 C346 0.950 . S
H335 C347 0.950 . S
C336 H328 0.950 . S
C336 C337 1.386 . S
C336 C338 1.391 . S
C337 C336 1.386 . S
C337 C341 1.393 . S
C338 H330 0.950 . S
C338 C336 1.391 . S
C338 C339 1.400 . S
C339 C338 1.400 . S
C339 C340 1.398 . S
C339 C345 1.491 . S
C340 H331 0.950 . S
C340 C339 1.398 . S
C340 C341 1.391 . S
C341 H329 0.950 . S
C341 C337 1.393 . S
C341 C340 1.391 . S
C342 H332 0.950 . S
C342 C343 1.386 . S
C342 C344 1.391 . S
C343 C342 1.386 . S
C343 C347 1.393 . S
C344 H333 0.950 . S
C344 C342 1.391 . S
C344 C345 1.400 . S
C345 C339 1.491 . S
C345 C344 1.400 . S
C345 C346 1.398 . S
C346 H334 0.950 . S
C346 C345 1.398 . S
C346 C347 1.391 . S
C347 H335 0.950 . S
C347 C343 1.393 . S
C347 C346 1.391 . S
H348 C356 0.950 . S
H349 C361 0.950 . S
H350 C358 0.950 . S
H351 C360 0.950 . S
H352 C362 0.950 . S
H353 C364 0.950 . S
H354 C366 0.950 . S
H355 C367 0.950 . S
C356 H348 0.950 . S
C356 C357 1.386 . S
C356 C358 1.391 . S
C357 C356 1.386 . S
C357 C361 1.393 . S
C358 H350 0.950 . S
C358 C356 1.391 . S
C358 C359 1.400 . S
C359 C358 1.400 . S
C359 C360 1.398 . S
C359 C365 1.491 . S
C360 H351 0.950 . S
C360 C359 1.398 . S
C360 C361 1.391 . S
C361 H349 0.950 . S
C361 C357 1.393 . S
C361 C360 1.391 . S
C362 H352 0.950 . S
C362 C363 1.386 . S
C362 C364 1.391 . S
C363 C362 1.386 . S
C363 C367 1.393 . S
C364 H353 0.950 . S
C364 C362 1.391 . S
C364 C365 1.400 . S
C365 C359 1.491 . S
C365 C364 1.400 . S
C365 C366 1.398 . S
C366 H354 0.950 . S
C366 C365 1.398 . S
C366 C367 1.391 . S
C367 H355 0.950 . S
C367 C363 1.393 . S
C367 C366 1.391 . S
H368 C376 0.950 . S
H369 C381 0.950 . S
H370 C378 0.950 . S
H371 C380 0.950 . S
H372 C382 0.950 . S
H373 C384 0.950 . S
H374 C386 0.950 . S
H375 C387 0.950 . S
C376 H368 0.950 . S
C376 C377 1.386 . S
C376 C378 1.391 . S
C377 C376 1.386 . S
C377 C381 1.393 . S
C378 H370 0.950 . S
C378 C376 1.391 . S
C378 C379 1.400 . S
C379 C378 1.400 . S
C379 C380 1.398 . S
C379 C385 1.491 . S
C380 H371 0.950 . S
C380 C379 1.398 . S
C380 C381 1.391 . S
C381 H369 0.950 . S
C381 C377 1.393 . S
C381 C380 1.391 . S
C382 H372 0.950 . S
C382 C383 1.386 . S
C382 C384 1.391 . S
C383 C382 1.386 . S
C383 C387 1.393 . S
C384 H373 0.950 . S
C384 C382 1.391 . S
C384 C385 1.400 . S
C385 C379 1.491 . S
C385 C384 1.400 . S
C385 C386 1.398 . S
C386 H374 0.950 . S
C386 C385 1.398 . S
C386 C387 1.391 . S
C387 H375 0.950 . S
C387 C383 1.393 . S
C387 C386 1.391 . S
H388 C396 0.950 . S
H389 C401 0.950 . S
H390 C398 0.950 . S
H391 C400 0.950 . S
H392 C402 0.950 . S
H393 C404 0.950 . S
H394 C406 0.950 . S
H395 C407 0.950 . S
C396 H388 0.950 . S
C396 C397 1.386 . S
C396 C398 1.391 . S
C397 C396 1.386 . S
C397 C401 1.393 . S
C398 H390 0.950 . S
C398 C396 1.391 . S
C398 C399 1.400 . S
C399 C398 1.400 . S
C399 C400 1.398 . S
C399 C405 1.491 . S
C400 H391 0.950 . S
C400 C399 1.398 . S
C400 C401 1.391 . S
C401 H389 0.950 . S
C401 C397 1.393 . S
C401 C400 1.391 . S
C402 H392 0.950 . S
C402 C403 1.386 . S
C402 C404 1.391 . S
C403 C402 1.386 . S
C403 C407 1.393 . S
C404 H393 0.950 . S
C404 C402 1.391 . S
C404 C405 1.400 . S
C405 C399 1.491 . S
C405 C404 1.400 . S
C405 C406 1.398 . S
C406 H394 0.950 . S
C406 C405 1.398 . S
C406 C407 1.391 . S
C407 H395 0.950 . S
C407 C403 1.393 . S
C407 C406 1.391 . S
H408 C416 0.969 . S
H409 C421 0.950 . S
H410 C418 0.950 . S
H411 C420 0.950 . S
H412 C422 0.950 . S
H413 C424 0.950 . S
H414 C426 0.950 . S
H415 C427 0.950 . S
C416 H408 0.969 . S
C416 C417 1.386 . S
C416 C418 1.391 . S
C417 C416 1.386 . S
C417 C421 1.393 . S
C418 H410 0.950 . S
C418 C416 1.391 . S
C418 C419 1.400 . S
C419 C418 1.400 . S
C419 C420 1.398 . S
C419 C425 1.491 . S
C420 H411 0.950 . S
C420 C419 1.398 . S
C420 C421 1.391 . S
C421 H409 0.950 . S
C421 C417 1.393 . S
C421 C420 1.391 . S
C422 H412 0.950 . S
C422 C423 1.386 . S
C422 C424 1.391 . S
C423 C422 1.386 . S
C423 C427 1.393 . S
C424 H413 0.950 . S
C424 C422 1.391 . S
C424 C425 1.400 . S
C425 C419 1.491 . S
C425 C424 1.400 . S
C425 C426 1.398 . S
C426 H414 0.950 . S
C426 C425 1.398 . S
C426 C427 1.391 . S
C427 H415 0.950 . S
C427 C423 1.393 . S
C427 C426 1.391 . S
H428 C436 0.950 . S
H429 C441 0.950 1_545 S
H430 C438 0.950 . S
H431 C440 0.950 . S
H432 C442 0.950 . S
H433 C444 0.950 . S
H434 C446 0.950 . S
H435 C447 0.950 . S
C436 H428 0.950 . S
C436 C437 1.386 . S
C436 C438 1.391 . S
C437 C436 1.386 . S
C437 C441 1.393 . S
C438 H430 0.950 . S
C438 C436 1.391 . S
C438 C439 1.400 . S
C439 C438 1.400 . S
C439 C440 1.398 . S
C439 C445 1.491 . S
C440 H431 0.950 . S
C440 C439 1.398 . S
C440 C441 1.391 . S
C441 H429 0.950 1_565 S
C441 C437 1.393 . S
C441 C440 1.391 . S
C442 H432 0.950 . S
C442 C443 1.386 . S
C442 C444 1.391 . S
C443 C442 1.386 . S
C443 C447 1.393 . S
C444 H433 0.950 . S
C444 C442 1.391 . S
C444 C445 1.400 . S
C445 C439 1.491 . S
C445 C444 1.400 . S
C445 C446 1.398 . S
C446 H434 0.950 . S
C446 C445 1.398 . S
C446 C447 1.391 . S
C447 H435 0.950 . S
C447 C443 1.393 . S
C447 C446 1.391 . S
H448 C456 0.950 . S
H449 C461 0.950 . S
H450 C458 0.950 . S
H451 C460 0.950 . S
H452 C462 0.950 . S
H453 C464 0.950 . S
H454 C466 0.950 . S
H455 C467 0.950 . S
C456 H448 0.950 . S
C456 C457 1.386 . S
C456 C458 1.391 . S
C457 C456 1.386 . S
C457 C461 1.393 . S
C458 H450 0.950 . S
C458 C456 1.391 . S
C458 C459 1.400 . S
C459 C458 1.400 . S
C459 C460 1.398 . S
C459 C465 1.491 . S
C460 H451 0.950 . S
C460 C459 1.398 . S
C460 C461 1.391 . S
C461 H449 0.950 . S
C461 C457 1.393 . S
C461 C460 1.391 . S
C462 H452 0.950 . S
C462 C463 1.386 . S
C462 C464 1.391 . S
C463 C462 1.386 . S
C463 C467 1.393 . S
C464 H453 0.950 . S
C464 C462 1.391 . S
C464 C465 1.400 . S
C465 C459 1.491 . S
C465 C464 1.400 . S
C465 C466 1.398 . S
C466 H454 0.950 . S
C466 C465 1.398 . S
C466 C467 1.391 . S
C467 H455 0.950 . S
C467 C463 1.393 . S
C467 C466 1.391 . S
H468 C476 0.950 . S
H469 C481 0.950 . S
H470 C478 0.950 . S
H471 C480 0.950 . S
H472 C482 0.950 . S
H473 C484 0.950 . S
H474 C486 0.950 . S
H475 C487 0.950 . S
C476 H468 0.950 . S
C476 C477 1.386 . S
C476 C478 1.391 . S
C477 C476 1.386 . S
C477 C481 1.393 . S
C478 H470 0.950 . S
C478 C476 1.391 . S
C478 C479 1.400 . S
C479 C478 1.400 . S
C479 C480 1.398 . S
C479 C485 1.491 . S
C480 H471 0.950 . S
C480 C479 1.398 . S
C480 C481 1.391 . S
C481 H469 0.950 . S
C481 C477 1.393 . S
C481 C480 1.391 . S
C482 H472 0.950 . S
C482 C483 1.386 . S
C482 C484 1.391 . S
C483 C482 1.386 . S
C483 C487 1.393 . S
C484 H473 0.950 . S
C484 C482 1.391 . S
C484 C485 1.400 . S
C485 C479 1.491 . S
C485 C484 1.400 . S
C485 C486 1.398 . S
C486 H474 0.950 . S
C486 C485 1.398 . S
C486 C487 1.391 . S
C487 H475 0.950 . S
C487 C483 1.393 . S
C487 C486 1.391 . S
H488 C496 0.950 . S
H489 C501 0.950 1_565 S
H490 C498 0.950 . S
H491 C500 0.950 . S
H492 C502 0.950 . S
H493 C504 0.950 . S
H494 C506 0.950 . S
H495 C507 0.950 . S
C496 H488 0.950 . S
C496 C497 1.386 . S
C496 C498 1.391 . S
C497 C496 1.386 . S
C497 C501 1.393 . S
C498 H490 0.950 . S
C498 C496 1.391 . S
C498 C499 1.400 . S
C499 C498 1.400 . S
C499 C500 1.398 . S
C499 C505 1.491 . S
C500 H491 0.950 . S
C500 C499 1.398 . S
C500 C501 1.391 . S
C501 H489 0.950 1_545 S
C501 C497 1.393 . S
C501 C500 1.391 . S
C502 H492 0.950 . S
C502 C503 1.386 . S
C502 C504 1.391 . S
C503 C502 1.386 . S
C503 C507 1.393 . S
C504 H493 0.950 . S
C504 C502 1.391 . S
C504 C505 1.400 . S
C505 C499 1.491 . S
C505 C504 1.400 . S
C505 C506 1.398 . S
C506 H494 0.950 . S
C506 C505 1.398 . S
C506 C507 1.391 . S
C507 H495 0.950 . S
C507 C503 1.393 . S
C507 C506 1.391 . S
H508 C516 0.950 . S
H509 C521 0.950 1_455 S
H510 C518 0.950 . S
H511 C520 0.950 . S
H512 C522 0.950 . S
H513 C524 0.950 . S
H514 C526 0.950 . S
H515 C527 0.950 . S
C516 H508 0.950 . S
C516 C517 1.386 . S
C516 C518 1.391 . S
C517 C516 1.386 . S
C517 C521 1.393 . S
C518 H510 0.950 . S
C518 C516 1.391 . S
C518 C519 1.400 . S
C519 C518 1.400 . S
C519 C520 1.398 . S
C519 C525 1.491 . S
C520 H511 0.950 . S
C520 C519 1.398 . S
C520 C521 1.391 . S
C521 H509 0.950 1_655 S
C521 C517 1.393 . S
C521 C520 1.391 . S
C522 H512 0.950 . S
C522 C523 1.386 . S
C522 C524 1.391 . S
C523 C522 1.386 . S
C523 C527 1.393 . S
C524 H513 0.950 . S
C524 C522 1.391 . S
C524 C525 1.400 . S
C525 C519 1.491 . S
C525 C524 1.400 . S
C525 C526 1.398 . S
C526 H514 0.950 . S
C526 C525 1.398 . S
C526 C527 1.391 . S
C527 H515 0.950 . S
C527 C523 1.393 . S
C527 C526 1.391 . S
H528 C536 0.950 . S
H529 C541 0.950 . S
H530 C538 0.950 . S
H531 C540 0.950 . S
H532 C542 0.950 . S
H533 C544 0.950 . S
H534 C546 0.950 . S
H535 C547 0.950 . S
C536 H528 0.950 . S
C536 C537 1.386 . S
C536 C538 1.391 . S
C537 C536 1.386 . S
C537 C541 1.393 . S
C538 H530 0.950 . S
C538 C536 1.391 . S
C538 C539 1.400 . S
C539 C538 1.400 . S
C539 C540 1.398 . S
C539 C545 1.491 . S
C540 H531 0.950 . S
C540 C539 1.398 . S
C540 C541 1.391 . S
C541 H529 0.950 . S
C541 C537 1.393 . S
C541 C540 1.391 . S
C542 H532 0.950 . S
C542 C543 1.386 . S
C542 C544 1.391 . S
C543 C542 1.386 . S
C543 C547 1.393 . S
C544 H533 0.950 . S
C544 C542 1.391 . S
C544 C545 1.400 . S
C545 C539 1.491 . S
C545 C544 1.400 . S
C545 C546 1.398 . S
C546 H534 0.950 . S
C546 C545 1.398 . S
C546 C547 1.391 . S
C547 H535 0.950 . S
C547 C543 1.393 . S
C547 C546 1.391 . S
H548 C556 0.950 . S
H549 C561 0.950 . S
H550 C558 0.950 . S
H551 C560 0.950 . S
H552 C562 0.950 . S
H553 C564 0.950 . S
H554 C566 0.950 . S
H555 C567 0.950 . S
C556 H548 0.950 . S
C556 C557 1.386 . S
C556 C558 1.391 . S
C557 C556 1.386 . S
C557 C561 1.393 . S
C558 H550 0.950 . S
C558 C556 1.391 . S
C558 C559 1.400 . S
C559 C558 1.400 . S
C559 C560 1.398 . S
C559 C565 1.491 . S
C560 H551 0.950 . S
C560 C559 1.398 . S
C560 C561 1.391 . S
C561 H549 0.950 . S
C561 C557 1.393 . S
C561 C560 1.391 . S
C562 H552 0.950 . S
C562 C563 1.386 . S
C562 C564 1.391 . S
C563 C562 1.386 . S
C563 C567 1.393 . S
C564 H553 0.950 . S
C564 C562 1.391 . S
C564 C565 1.400 . S
C565 C559 1.491 . S
C565 C564 1.400 . S
C565 C566 1.398 . S
C566 H554 0.950 . S
C566 C565 1.398 . S
C566 C567 1.391 . S
C567 H555 0.950 . S
C567 C563 1.393 . S
C567 C566 1.391 . S
H568 C576 0.950 . S
H569 C581 0.950 . S
H570 C578 0.950 . S
H571 C580 0.950 . S
H572 C582 0.950 . S
H573 C584 0.950 . S
H574 C586 0.950 . S
H575 C587 0.950 . S
C576 H568 0.950 . S
C576 C577 1.386 . S
C576 C578 1.391 . S
C577 C576 1.386 . S
C577 C581 1.393 . S
C578 H570 0.950 . S
C578 C576 1.391 . S
C578 C579 1.400 . S
C579 C578 1.400 . S
C579 C580 1.398 . S
C579 C585 1.491 . S
C580 H571 0.950 . S
C580 C579 1.398 . S
C580 C581 1.391 . S
C581 H569 0.950 . S
C581 C577 1.393 . S
C581 C580 1.391 . S
C582 H572 0.950 . S
C582 C583 1.386 . S
C582 C584 1.391 . S
C583 C582 1.386 . S
C583 C587 1.393 . S
C584 H573 0.950 . S
C584 C582 1.391 . S
C584 C585 1.400 . S
C585 C579 1.491 . S
C585 C584 1.400 . S
C585 C586 1.398 . S
C586 H574 0.950 . S
C586 C585 1.398 . S
C586 C587 1.391 . S
C587 H575 0.950 . S
C587 C583 1.393 . S
C587 C586 1.391 . S
H588 C596 0.950 . S
H589 C601 0.950 . S
H590 C598 0.950 . S
H591 C600 0.950 . S
H592 C602 0.950 . S
H593 C604 0.950 . S
H594 C606 0.950 . S
H595 C607 0.950 . S
C596 H588 0.950 . S
C596 C597 1.386 . S
C596 C598 1.391 . S
C597 C596 1.386 . S
C597 C601 1.393 . S
C598 H590 0.950 . S
C598 C596 1.391 . S
C598 C599 1.400 . S
C599 C598 1.400 . S
C599 C600 1.398 . S
C599 C605 1.491 . S
C600 H591 0.950 . S
C600 C599 1.398 . S
C600 C601 1.391 . S
C601 H589 0.950 . S
C601 C597 1.393 . S
C601 C600 1.391 . S
C602 H592 0.950 . S
C602 C603 1.386 . S
C602 C604 1.391 . S
C603 C602 1.386 . S
C603 C607 1.393 . S
C604 H593 0.950 . S
C604 C602 1.391 . S
C604 C605 1.400 . S
C605 C599 1.491 . S
C605 C604 1.400 . S
C605 C606 1.398 . S
C606 H594 0.950 . S
C606 C605 1.398 . S
C606 C607 1.391 . S
C607 H595 0.950 . S
C607 C603 1.393 . S
C607 C606 1.391 . S
H608 C616 0.950 . S
H609 C621 0.950 . S
H610 C618 0.950 . S
H611 C620 0.950 . S
H612 C622 0.950 . S
H613 C624 0.950 . S
H614 C626 0.950 . S
H615 C627 0.950 . S
C616 H608 0.950 . S
C616 C617 1.386 . S
C616 C618 1.391 . S
C617 C616 1.386 . S
C617 C621 1.393 . S
C618 H610 0.950 . S
C618 C616 1.391 . S
C618 C619 1.400 . S
C619 C618 1.400 . S
C619 C620 1.398 . S
C619 C625 1.491 . S
C620 H611 0.950 . S
C620 C619 1.398 . S
C620 C621 1.391 . S
C621 H609 0.950 . S
C621 C617 1.393 . S
C621 C620 1.391 . S
C622 H612 0.950 . S
C622 C623 1.386 . S
C622 C624 1.391 . S
C623 C622 1.386 . S
C623 C627 1.393 . S
C624 H613 0.950 . S
C624 C622 1.391 . S
C624 C625 1.400 . S
C625 C619 1.491 . S
C625 C624 1.400 . S
C625 C626 1.398 . S
C626 H614 0.950 . S
C626 C625 1.398 . S
C626 C627 1.391 . S
C627 H615 0.950 . S
C627 C623 1.393 . S
C627 C626 1.391 . S
H628 C636 0.950 . S
H629 C641 0.950 . S
H630 C638 0.950 . S
H631 C640 0.950 . S
H632 C642 0.950 . S
H633 C644 0.950 . S
H634 C646 0.950 . S
H635 C647 0.950 . S
C636 H628 0.950 . S
C636 C637 1.386 . S
C636 C638 1.391 . S
C637 C636 1.386 . S
C637 C641 1.393 . S
C638 H630 0.950 . S
C638 C636 1.391 . S
C638 C639 1.400 . S
C639 C638 1.400 . S
C639 C640 1.398 . S
C639 C645 1.491 . S
C640 H631 0.950 . S
C640 C639 1.398 . S
C640 C641 1.391 . S
C641 H629 0.950 . S
C641 C637 1.393 . S
C641 C640 1.391 . S
C642 H632 0.950 . S
C642 C643 1.386 . S
C642 C644 1.391 . S
C643 C642 1.386 . S
C643 C647 1.393 . S
C644 H633 0.950 . S
C644 C642 1.391 . S
C644 C645 1.400 . S
C645 C639 1.491 . S
C645 C644 1.400 . S
C645 C646 1.398 . S
C646 H634 0.950 . S
C646 C645 1.398 . S
C646 C647 1.391 . S
C647 H635 0.950 . S
C647 C643 1.393 . S
C647 C646 1.391 . S
H648 C656 0.950 . S
H649 C661 0.950 . S
H650 C658 0.950 . S
H651 C660 0.950 . S
H652 C662 0.950 . S
H653 C664 0.950 . S
H654 C666 0.950 . S
H655 C667 0.950 . S
C656 H648 0.950 . S
C656 C657 1.386 . S
C656 C658 1.391 . S
C657 C656 1.386 . S
C657 C661 1.393 . S
C658 H650 0.950 . S
C658 C656 1.391 . S
C658 C659 1.400 . S
C659 C658 1.400 . S
C659 C660 1.398 . S
C659 C665 1.491 . S
C660 H651 0.950 . S
C660 C659 1.398 . S
C660 C661 1.391 . S
C661 H649 0.950 . S
C661 C657 1.393 . S
C661 C660 1.391 . S
C662 H652 0.950 . S
C662 C663 1.386 . S
C662 C664 1.391 . S
C663 C662 1.386 . S
C663 C667 1.393 . S
C664 H653 0.950 . S
C664 C662 1.391 . S
C664 C665 1.400 . S
C665 C659 1.491 . S
C665 C664 1.400 . S
C665 C666 1.398 . S
C666 H654 0.950 . S
C666 C665 1.398 . S
C666 C667 1.391 . S
C667 H655 0.950 . S
C667 C663 1.393 . S
C667 C666 1.391 . S
H668 C676 0.950 . S
H669 C681 0.950 . S
H670 C678 0.950 . S
H671 C680 0.950 . S
H672 C682 0.950 . S
H673 C684 0.950 . S
H674 C686 0.950 . S
H675 C687 0.950 . S
C676 H668 0.950 . S
C676 C677 1.386 . S
C676 C678 1.391 . S
C677 C676 1.386 . S
C677 C681 1.393 . S
C678 H670 0.950 . S
C678 C676 1.391 . S
C678 C679 1.400 . S
C679 C678 1.400 . S
C679 C680 1.398 . S
C679 C685 1.491 . S
C680 H671 0.950 . S
C680 C679 1.398 . S
C680 C681 1.391 . S
C681 H669 0.950 . S
C681 C677 1.393 . S
C681 C680 1.391 . S
C682 H672 0.950 . S
C682 C683 1.386 . S
C682 C684 1.391 . S
C683 C682 1.386 . S
C683 C687 1.393 . S
C684 H673 0.950 . S
C684 C682 1.391 . S
C684 C685 1.400 . S
C685 C679 1.491 . S
C685 C684 1.400 . S
C685 C686 1.398 . S
C686 H674 0.950 . S
C686 C685 1.398 . S
C686 C687 1.391 . S
C687 H675 0.950 . S
C687 C683 1.393 . S
C687 C686 1.391 . S
C217 C45 1.559 . S
C223 C108 1.491 . S
C237 C30 1.564 . S
C243 C121 1.486 . S
C257 C39 1.569 . S
C263 C134 1.558 1_554 S
C283 C147 1.514 . S
C277 C34 1.573 . S
C297 C97 1.566 . S
C303 C160 1.489 . S
C323 C173 1.500 . S
C317 C82 1.561 . S
C343 C186 1.553 . S
C337 C91 1.570 . S
C363 C199 1.560 . S
C357 C86 1.567 . S
C383 C191 1.534 . S
C377 C26 1.504 . S
C403 C204 1.561 . S
C397 C36 1.522 . S
C423 C164 1.528 . S
C417 C32 1.491 . S
C443 C177 1.492 . S
C437 C42 1.445 . S
C457 C18 1.598 . S
C463 C178 1.655 . S
C483 C190 1.633 . S
C477 C50 1.569 . S
C497 C4 1.558 . S
C503 C203 1.612 . S
C517 C48 1.595 . S
C523 C165 1.640 . S
C543 C139 1.552 . S
C537 C78 1.511 . S
C557 C88 1.418 . S
C563 C151 1.463 . S
C583 C112 1.553 . S
C577 C84 1.512 . S
C603 C125 1.511 . S
C597 C94 1.473 . S
C623 C126 1.637 . S
C617 C70 1.584 . S
C643 C138 1.614 . S
C637 C102 1.556 . S
C657 C56 1.633 . S
C663 C152 1.684 . S
C677 C100 1.569 . S
C683 C113 1.610 . S
