# Generated by pormake.
# Topology eea, (3,6)-cn, num edge types: 1
# Building blocks:
#     Node 0, Type 0, BuildingBlock: QEWDON_clean_linker_0, # of connection points: 3
#     Node 1, Type 0, BuildingBlock: QEWDON_clean_linker_0, # of connection points: 3
#     Node 2, Type 0, BuildingBlock: QEWDON_clean_linker_0, # of connection points: 3
#     Node 3, Type 0, BuildingBlock: QEWDON_clean_linker_0, # of connection points: 3
#     Node 4, Type 0, BuildingBlock: QEWDON_clean_linker_0, # of connection points: 3
#     Node 5, Type 0, BuildingBlock: QEWDON_clean_linker_0, # of connection points: 3
#     Node 6, Type 0, BuildingBlock: QEWDON_clean_linker_0, # of connection points: 3
#     Node 7, Type 0, BuildingBlock: QEWDON_clean_linker_0, # of connection points: 3
#     Node 8, Type 0, BuildingBlock: QEWDON_clean_linker_0, # of connection points: 3
#     Node 9, Type 0, BuildingBlock: QEWDON_clean_linker_0, # of connection points: 3
#     Node 10, Type 0, BuildingBlock: QEWDON_clean_linker_0, # of connection points: 3
#     Node 11, Type 0, BuildingBlock: QEWDON_clean_linker_0, # of connection points: 3
#     Node 12, Type 0, BuildingBlock: QEWDON_clean_linker_0, # of connection points: 3
#     Node 13, Type 0, BuildingBlock: QEWDON_clean_linker_0, # of connection points: 3
#     Node 14, Type 0, BuildingBlock: QEWDON_clean_linker_0, # of connection points: 3
#     Node 15, Type 0, BuildingBlock: QEWDON_clean_linker_0, # of connection points: 3
#     Node 16, Type 0, BuildingBlock: QEWDON_clean_linker_0, # of connection points: 3
#     Node 17, Type 0, BuildingBlock: QEWDON_clean_linker_0, # of connection points: 3
#     Node 18, Type 1, BuildingBlock: NUHQIS_clean_sbu_0, # of connection points: 6
#     Node 19, Type 1, BuildingBlock: NUHQIS_clean_sbu_0, # of connection points: 6
#     Node 20, Type 1, BuildingBlock: NUHQIS_clean_sbu_0, # of connection points: 6
#     Node 21, Type 1, BuildingBlock: NUHQIS_clean_sbu_0, # of connection points: 6
#     Node 22, Type 1, BuildingBlock: NUHQIS_clean_sbu_0, # of connection points: 6
#     Node 23, Type 1, BuildingBlock: NUHQIS_clean_sbu_0, # of connection points: 6
#     Node 24, Type 1, BuildingBlock: NUHQIS_clean_sbu_0, # of connection points: 6
#     Node 25, Type 1, BuildingBlock: NUHQIS_clean_sbu_0, # of connection points: 6
#     Node 26, Type 1, BuildingBlock: NUHQIS_clean_sbu_0, # of connection points: 6
#     Edge 27, Type (0, 1), BuildingBlock: XIVTED_clean_linker_0, # of connection points: 2
#     Edge 28, Type (0, 1), BuildingBlock: XIVTED_clean_linker_0, # of connection points: 2
#     Edge 29, Type (0, 1), BuildingBlock: XIVTED_clean_linker_0, # of connection points: 2
#     Edge 30, Type (0, 1), BuildingBlock: XIVTED_clean_linker_0, # of connection points: 2
#     Edge 31, Type (0, 1), BuildingBlock: XIVTED_clean_linker_0, # of connection points: 2
#     Edge 32, Type (0, 1), BuildingBlock: XIVTED_clean_linker_0, # of connection points: 2
#     Edge 33, Type (0, 1), BuildingBlock: XIVTED_clean_linker_0, # of connection points: 2
#     Edge 34, Type (0, 1), BuildingBlock: XIVTED_clean_linker_0, # of connection points: 2
#     Edge 35, Type (0, 1), BuildingBlock: XIVTED_clean_linker_0, # of connection points: 2
#     Edge 36, Type (0, 1), BuildingBlock: XIVTED_clean_linker_0, # of connection points: 2
#     Edge 37, Type (0, 1), BuildingBlock: XIVTED_clean_linker_0, # of connection points: 2
#     Edge 38, Type (0, 1), BuildingBlock: XIVTED_clean_linker_0, # of connection points: 2
#     Edge 39, Type (0, 1), BuildingBlock: XIVTED_clean_linker_0, # of connection points: 2
#     Edge 40, Type (0, 1), BuildingBlock: XIVTED_clean_linker_0, # of connection points: 2
#     Edge 41, Type (0, 1), BuildingBlock: XIVTED_clean_linker_0, # of connection points: 2
#     Edge 42, Type (0, 1), BuildingBlock: XIVTED_clean_linker_0, # of connection points: 2
#     Edge 43, Type (0, 1), BuildingBlock: XIVTED_clean_linker_0, # of connection points: 2
#     Edge 44, Type (0, 1), BuildingBlock: XIVTED_clean_linker_0, # of connection points: 2
#     Edge 45, Type (0, 1), BuildingBlock: XIVTED_clean_linker_0, # of connection points: 2
#     Edge 46, Type (0, 1), BuildingBlock: XIVTED_clean_linker_0, # of connection points: 2
#     Edge 47, Type (0, 1), BuildingBlock: XIVTED_clean_linker_0, # of connection points: 2
#     Edge 48, Type (0, 1), BuildingBlock: XIVTED_clean_linker_0, # of connection points: 2
#     Edge 49, Type (0, 1), BuildingBlock: XIVTED_clean_linker_0, # of connection points: 2
#     Edge 50, Type (0, 1), BuildingBlock: XIVTED_clean_linker_0, # of connection points: 2
#     Edge 51, Type (0, 1), BuildingBlock: XIVTED_clean_linker_0, # of connection points: 2
#     Edge 52, Type (0, 1), BuildingBlock: XIVTED_clean_linker_0, # of connection points: 2
#     Edge 53, Type (0, 1), BuildingBlock: XIVTED_clean_linker_0, # of connection points: 2
#     Edge 54, Type (0, 1), BuildingBlock: XIVTED_clean_linker_0, # of connection points: 2
#     Edge 55, Type (0, 1), BuildingBlock: XIVTED_clean_linker_0, # of connection points: 2
#     Edge 56, Type (0, 1), BuildingBlock: XIVTED_clean_linker_0, # of connection points: 2
#     Edge 57, Type (0, 1), BuildingBlock: XIVTED_clean_linker_0, # of connection points: 2
#     Edge 58, Type (0, 1), BuildingBlock: XIVTED_clean_linker_0, # of connection points: 2
#     Edge 59, Type (0, 1), BuildingBlock: XIVTED_clean_linker_0, # of connection points: 2
#     Edge 60, Type (0, 1), BuildingBlock: XIVTED_clean_linker_0, # of connection points: 2
#     Edge 61, Type (0, 1), BuildingBlock: XIVTED_clean_linker_0, # of connection points: 2
#     Edge 62, Type (0, 1), BuildingBlock: XIVTED_clean_linker_0, # of connection points: 2
#     Edge 63, Type (0, 1), BuildingBlock: XIVTED_clean_linker_0, # of connection points: 2
#     Edge 64, Type (0, 1), BuildingBlock: XIVTED_clean_linker_0, # of connection points: 2
#     Edge 65, Type (0, 1), BuildingBlock: XIVTED_clean_linker_0, # of connection points: 2
#     Edge 66, Type (0, 1), BuildingBlock: XIVTED_clean_linker_0, # of connection points: 2
#     Edge 67, Type (0, 1), BuildingBlock: XIVTED_clean_linker_0, # of connection points: 2
#     Edge 68, Type (0, 1), BuildingBlock: XIVTED_clean_linker_0, # of connection points: 2
#     Edge 69, Type (0, 1), BuildingBlock: XIVTED_clean_linker_0, # of connection points: 2
#     Edge 70, Type (0, 1), BuildingBlock: XIVTED_clean_linker_0, # of connection points: 2
#     Edge 71, Type (0, 1), BuildingBlock: XIVTED_clean_linker_0, # of connection points: 2
#     Edge 72, Type (0, 1), BuildingBlock: XIVTED_clean_linker_0, # of connection points: 2
#     Edge 73, Type (0, 1), BuildingBlock: XIVTED_clean_linker_0, # of connection points: 2
#     Edge 74, Type (0, 1), BuildingBlock: XIVTED_clean_linker_0, # of connection points: 2
#     Edge 75, Type (0, 1), BuildingBlock: XIVTED_clean_linker_0, # of connection points: 2
#     Edge 76, Type (0, 1), BuildingBlock: XIVTED_clean_linker_0, # of connection points: 2
#     Edge 77, Type (0, 1), BuildingBlock: XIVTED_clean_linker_0, # of connection points: 2
#     Edge 78, Type (0, 1), BuildingBlock: XIVTED_clean_linker_0, # of connection points: 2
#     Edge 79, Type (0, 1), BuildingBlock: XIVTED_clean_linker_0, # of connection points: 2
#     Edge 80, Type (0, 1), BuildingBlock: XIVTED_clean_linker_0, # of connection points: 2
# Relax obj value: 0.087
# Max RMSD: 0.262
# Mean RMSD: 0.181
data_MOF--net-eea--node1-NUHQIS_clean_sbu_0--node2-QEWDON_clean_linker_0--edge1-XIVTED_clean_linker_0
_symmetry_space_group_name_H-M    P1
_symmetry_Int_Tables_number       1
_symmetry_cell_setting            triclinic
loop_
_symmetry_equiv_pos_as_xyz
'x, y, z'
_cell_length_a     58.244123
_cell_length_b     59.098087
_cell_length_c     67.80064
_cell_angle_alpha  93.232165
_cell_angle_beta   93.276243
_cell_angle_gamma 119.88824
loop_
_atom_site_label
_atom_site_type_symbol
_atom_site_fract_x
_atom_site_fract_y
_atom_site_fract_z
_atom_type_partial_charge
H0 H 0.20601 0.11904 0.43182 0.0
C1 C 0.20672 0.10323 0.4235 0.0
C2 C 0.22439 0.09498 0.43034 0.0
C3 C 0.1894 0.09058 0.40619 0.0
H4 H 0.23725 0.06684 0.42521 0.0
C5 C 0.22465 0.07411 0.41949 0.0
C6 C 0.20761 0.06152 0.40202 0.0
C7 C 0.19032 0.07019 0.3954 0.0
C8 C 0.16932 0.09753 0.39954 0.0
H9 H 0.17733 0.06101 0.38177 0.0
C10 C 0.17694 0.12324 0.39547 0.0
C11 C 0.15794 0.12895 0.38716 0.0
C12 C 0.14242 0.0778 0.39598 0.0
H13 H 0.13615 0.05786 0.39909 0.0
C14 C 0.12346 0.08358 0.38823 0.0
H15 H 0.19772 0.13843 0.39786 0.0
C16 C 0.13116 0.10895 0.38366 0.0
H17 H 0.11618 0.113 0.37745 0.0
H18 H 0.10279 0.06828 0.38551 0.0
H19 H 0.90516 0.09965 0.43198 0.0
C20 C 0.92083 0.1161 0.42558 0.0
C21 C 0.93067 0.14181 0.43434 0.0
C22 C 0.93152 0.11142 0.40886 0.0
H23 H 0.95974 0.18267 0.43327 0.0
C24 C 0.95144 0.16297 0.42609 0.0
C25 C 0.96242 0.1586 0.4093 0.0
C26 C 0.95178 0.13276 0.40062 0.0
C27 C 0.92275 0.0843 0.40037 0.0
H28 H 0.95933 0.1291 0.3873 0.0
C29 C 0.89555 0.06516 0.39671 0.0
C30 C 0.8878 0.04016 0.38741 0.0
C31 C 0.94195 0.0777 0.39535 0.0
H32 H 0.96299 0.09184 0.39833 0.0
C33 C 0.93425 0.0528 0.38646 0.0
H34 H 0.88051 0.06999 0.40033 0.0
C35 C 0.90736 0.03419 0.38234 0.0
H36 H 0.90178 0.01501 0.37527 0.0
H37 H 0.94919 0.04797 0.38262 0.0
H38 H 0.91307 0.78792 0.4427 0.0
C39 C 0.89646 0.7876 0.43434 0.0
C40 C 0.87075 0.77365 0.44064 0.0
C41 C 0.90122 0.80315 0.41841 0.0
H42 H 0.82975 0.76318 0.43462 0.0
C43 C 0.84966 0.77446 0.43013 0.0
C44 C 0.85399 0.79001 0.41425 0.0
C45 C 0.87992 0.80418 0.40848 0.0
C46 C 0.92886 0.82192 0.41431 0.0
H47 H 0.88392 0.81715 0.39685 0.0
C48 C 0.9465 0.81364 0.40813 0.0
C49 C 0.97269 0.8324 0.40465 0.0
C50 C 0.93766 0.84888 0.41687 0.0
H51 H 0.92452 0.85568 0.42168 0.0
C52 C 0.96354 0.86733 0.41356 0.0
H53 H 0.93994 0.79291 0.40603 0.0
C54 C 0.98097 0.8592 0.40755 0.0
H55 H 1.00098 0.87389 0.40498 0.0
H56 H 0.97012 0.88804 0.41567 0.0
H57 H 0.12036 0.21057 0.57902 0.0
C58 C 0.10415 0.21053 0.58615 0.0
C59 C 0.09354 0.22597 0.57964 0.0
C60 C 0.09318 0.19407 0.60122 0.0
H61 H 0.06296 0.23594 0.58323 0.0
C62 C 0.07197 0.22505 0.58878 0.0
C63 C 0.06092 0.20887 0.60414 0.0
C64 C 0.07211 0.19386 0.61041 0.0
C65 C 0.10128 0.17463 0.60577 0.0
H66 H 0.06418 0.18147 0.62232 0.0
C67 C 0.12816 0.18202 0.61047 0.0
C68 C 0.13512 0.16283 0.61407 0.0
C69 C 0.08159 0.148 0.60486 0.0
H70 H 0.06082 0.1418 0.60112 0.0
C71 C 0.08848 0.12904 0.60837 0.0
H72 H 0.14352 0.20249 0.61126 0.0
C73 C 0.11504 0.13634 0.61288 0.0
H74 H 0.1199 0.12127 0.61572 0.0
H75 H 0.07316 0.10859 0.60755 0.0
H76 H 0.80679 0.90968 0.59172 0.0
C77 C 0.80479 0.89299 0.59896 0.0
C78 C 0.78626 0.86742 0.59062 0.0
C79 C 0.8219 0.89708 0.61594 0.0
H80 H 0.7697 0.82623 0.59373 0.0
C81 C 0.78442 0.84595 0.59984 0.0
C82 C 0.80148 0.84966 0.61674 0.0
C83 C 0.82007 0.87534 0.62471 0.0
C84 C 0.84244 0.92398 0.62423 0.0
H85 H 0.83361 0.87851 0.63758 0.0
C86 C 0.83598 0.94385 0.62703 0.0
C87 C 0.85509 0.9688 0.63611 0.0
C88 C 0.86851 0.92967 0.63 0.0
H89 H 0.87416 0.91489 0.6277 0.0
C90 C 0.88758 0.95453 0.63875 0.0
H91 H 0.81588 0.93964 0.6229 0.0
C92 C 0.88091 0.97396 0.64196 0.0
H93 H 0.89597 0.99311 0.64887 0.0
H94 H 0.90757 0.9587 0.64317 0.0
H95 H 0.09494 0.87222 0.58365 0.0
C96 C 0.11236 0.8892 0.59135 0.0
C97 C 0.13756 0.89774 0.58459 0.0
C98 C 0.10935 0.90332 0.60738 0.0
H99 H 0.17925 0.92699 0.58932 0.0
C100 C 0.15985 0.92016 0.59455 0.0
C101 C 0.15721 0.93456 0.6106 0.0
C102 C 0.13182 0.92585 0.61692 0.0
C103 C 0.08249 0.89659 0.61271 0.0
H104 H 0.12925 0.93718 0.62882 0.0
C105 C 0.06406 0.87122 0.61739 0.0
C106 C 0.03848 0.86534 0.62194 0.0
C107 C 0.07511 0.9159 0.6128 0.0
H108 H 0.08887 0.93548 0.60913 0.0
C109 C 0.04979 0.91006 0.61726 0.0
H110 H 0.06955 0.85618 0.6174 0.0
C111 C 0.03153 0.88494 0.62173 0.0
H112 H 0.01198 0.88085 0.62524 0.0
H113 H 0.04427 0.92504 0.6172 0.0
H114 H 0.87644 0.45446 0.75866 0.0
C115 C 0.87882 0.43891 0.75163 0.0
C116 C 0.89757 0.43311 0.76027 0.0
C117 C 0.8626 0.4242 0.73426 0.0
H118 H 0.91454 0.40806 0.75793 0.0
C119 C 0.90026 0.4127 0.75119 0.0
C120 C 0.88396 0.39759 0.73397 0.0
C121 C 0.86532 0.40363 0.72557 0.0
C122 C 0.84206 0.42947 0.72543 0.0
H123 H 0.85237 0.39192 0.71244 0.0
C124 C 0.84842 0.45512 0.72197 0.0
C125 C 0.82931 0.45969 0.71228 0.0
C126 C 0.81613 0.40857 0.71967 0.0
H127 H 0.81063 0.38869 0.72239 0.0
C128 C 0.79703 0.41311 0.71037 0.0
H129 H 0.86845 0.47132 0.7261 0.0
C130 C 0.80358 0.43847 0.70655 0.0
H131 H 0.78845 0.44154 0.69926 0.0
H132 H 0.77713 0.3969 0.706 0.0
H133 H 0.57273 0.43275 0.76423 0.0
C134 C 0.58771 0.44971 0.75784 0.0
C135 C 0.59541 0.4751 0.76625 0.0
C136 C 0.59959 0.44601 0.74148 0.0
H137 H 0.62102 0.51656 0.76417 0.0
C138 C 0.6149 0.49695 0.75774 0.0
C139 C 0.6269 0.4936 0.74121 0.0
C140 C 0.61904 0.46802 0.73327 0.0
C141 C 0.59246 0.41924 0.73321 0.0
H142 H 0.62841 0.46516 0.72077 0.0
C143 C 0.56568 0.39901 0.7297 0.0
C144 C 0.55918 0.37422 0.72073 0.0
C145 C 0.61262 0.41402 0.72827 0.0
H146 H 0.6334 0.42902 0.73113 0.0
C147 C 0.6062 0.38935 0.71963 0.0
H148 H 0.54989 0.40279 0.73321 0.0
C149 C 0.57966 0.36961 0.71572 0.0
H150 H 0.5751 0.35062 0.7089 0.0
H151 H 0.62187 0.38556 0.71586 0.0
H152 H 0.58584 0.12039 0.77599 0.0
C153 C 0.5692 0.12058 0.76814 0.0
C154 C 0.54344 0.10589 0.7742 0.0
C155 C 0.57381 0.13659 0.75257 0.0
H156 H 0.50281 0.09716 0.76962 0.0
C157 C 0.52231 0.10729 0.76429 0.0
C158 C 0.52652 0.12307 0.74857 0.0
C159 C 0.55238 0.13733 0.74269 0.0
C160 C 0.6013 0.15575 0.74857 0.0
H161 H 0.55619 0.14968 0.73065 0.0
C162 C 0.61908 0.14791 0.74203 0.0
C163 C 0.64515 0.167 0.73864 0.0
C164 C 0.60976 0.18261 0.75153 0.0
H165 H 0.59644 0.18904 0.75658 0.0
C166 C 0.63553 0.20141 0.74828 0.0
H167 H 0.61274 0.12726 0.73963 0.0
C168 C 0.65315 0.19371 0.74194 0.0
H169 H 0.67307 0.20867 0.7394 0.0
H170 H 0.64187 0.22205 0.75069 0.0
H171 H 0.78879 0.55065 0.91254 0.0
C172 C 0.77335 0.5519 0.91987 0.0
C173 C 0.76462 0.56901 0.91377 0.0
C174 C 0.76086 0.53483 0.93435 0.0
H175 H 0.73707 0.58273 0.91867 0.0
C176 C 0.74358 0.56928 0.9229 0.0
C177 C 0.73082 0.55231 0.93744 0.0
C178 C 0.73975 0.53524 0.94307 0.0
C179 C 0.7677 0.51443 0.93878 0.0
H180 H 0.72965 0.52151 0.95381 0.0
C181 C 0.79421 0.5208 0.94394 0.0
C182 C 0.80011 0.50085 0.94747 0.0
C183 C 0.74729 0.48804 0.93735 0.0
H184 H 0.72681 0.4826 0.93323 0.0
C185 C 0.75311 0.46834 0.9408 0.0
H186 H 0.81012 0.54107 0.94512 0.0
C187 C 0.77931 0.47463 0.94577 0.0
H188 H 0.7833 0.45898 0.94854 0.0
H189 H 0.73725 0.44808 0.93959 0.0
H190 H 0.47025 0.2466 0.93521 0.0
C191 C 0.46736 0.22887 0.94125 0.0
C192 C 0.44874 0.20421 0.93136 0.0
C193 C 0.48271 0.23076 0.95869 0.0
H194 H 0.43129 0.16233 0.93171 0.0
C195 C 0.44534 0.18139 0.93934 0.0
C196 C 0.46049 0.18299 0.95679 0.0
C197 C 0.47904 0.20776 0.96635 0.0
C198 C 0.50309 0.25663 0.96885 0.0
H199 H 0.49111 0.20923 0.97965 0.0
C200 C 0.49719 0.27677 0.97231 0.0
C201 C 0.51609 0.30081 0.98286 0.0
C202 C 0.52836 0.261 0.97572 0.0
H203 H 0.53359 0.24597 0.97301 0.0
C204 C 0.5472 0.28486 0.98608 0.0
H205 H 0.47764 0.27347 0.96734 0.0
C206 C 0.54112 0.30464 0.98973 0.0
H207 H 0.55614 0.3231 0.99767 0.0
H208 H 0.5666 0.28804 0.99129 0.0
H209 H 0.76122 0.20833 0.91441 0.0
C210 C 0.77853 0.22506 0.92246 0.0
C211 C 0.80401 0.23342 0.91629 0.0
C212 C 0.77516 0.23911 0.93835 0.0
H213 H 0.84575 0.26223 0.92191 0.0
C214 C 0.82614 0.25555 0.92669 0.0
C215 C 0.82309 0.26993 0.94253 0.0
C216 C 0.79746 0.26142 0.94828 0.0
C217 C 0.74817 0.23277 0.94301 0.0
H218 H 0.79458 0.27277 0.95998 0.0
C219 C 0.72972 0.20796 0.94861 0.0
C220 C 0.70411 0.20255 0.95273 0.0
C221 C 0.74084 0.25201 0.94171 0.0
H222 H 0.75469 0.27118 0.93736 0.0
C223 C 0.71549 0.24663 0.94569 0.0
H224 H 0.73522 0.19301 0.9497 0.0
C225 C 0.6972 0.22206 0.95111 0.0
H226 H 0.67765 0.21836 0.95426 0.0
H227 H 0.71 0.26155 0.94457 0.0
H228 H 0.53896 0.7871 0.09338 0.0
C229 C 0.53936 0.77083 0.08553 0.0
C230 C 0.55632 0.76214 0.0931 0.0
C231 C 0.52242 0.75813 0.06803 0.0
H232 H 0.56832 0.73318 0.08912 0.0
C233 C 0.55624 0.74072 0.08286 0.0
C234 C 0.53958 0.72804 0.06525 0.0
C235 C 0.52299 0.73714 0.05787 0.0
C236 C 0.50333 0.76592 0.06044 0.0
H237 H 0.51038 0.72788 0.04409 0.0
C238 C 0.51193 0.79208 0.05709 0.0
C239 C 0.49405 0.79875 0.04808 0.0
C240 C 0.47648 0.74669 0.05541 0.0
H241 H 0.46938 0.72643 0.058 0.0
C242 C 0.45859 0.75339 0.0469 0.0
H243 H 0.53268 0.80695 0.06063 0.0
C244 C 0.46732 0.77922 0.04309 0.0
H245 H 0.45317 0.78401 0.03631 0.0
H246 H 0.43796 0.73846 0.04307 0.0
H247 H 0.23901 0.76701 0.09755 0.0
C248 C 0.2552 0.78373 0.09181 0.0
C249 C 0.26485 0.80914 0.10117 0.0
C250 C 0.26659 0.77971 0.07525 0.0
H251 H 0.29444 0.85009 0.10134 0.0
C252 C 0.28625 0.83065 0.09372 0.0
C253 C 0.29785 0.82696 0.07707 0.0
C254 C 0.28736 0.80146 0.06776 0.0
C255 C 0.25773 0.75284 0.06603 0.0
H256 H 0.29535 0.79841 0.05448 0.0
C257 C 0.23052 0.7337 0.06253 0.0
C258 C 0.22261 0.7089 0.05276 0.0
C259 C 0.27681 0.74644 0.06027 0.0
H260 H 0.29789 0.7605 0.06314 0.0
C261 C 0.26897 0.72178 0.05079 0.0
H262 H 0.21553 0.73831 0.06672 0.0
C263 C 0.24204 0.70317 0.0469 0.0
H264 H 0.23635 0.68414 0.03946 0.0
H265 H 0.28382 0.71712 0.04638 0.0
H266 H 0.24989 0.45548 0.10997 0.0
C267 C 0.23332 0.45523 0.10161 0.0
C268 C 0.20787 0.44253 0.10846 0.0
C269 C 0.23795 0.46962 0.08501 0.0
H270 H 0.16749 0.43444 0.10356 0.0
C271 C 0.18692 0.44376 0.09807 0.0
C272 C 0.19105 0.45772 0.08124 0.0
C273 C 0.21668 0.47034 0.07476 0.0
C274 C 0.26549 0.48761 0.08028 0.0
H275 H 0.22044 0.48143 0.06196 0.0
C276 C 0.2829 0.47862 0.07497 0.0
C277 C 0.30895 0.49672 0.07076 0.0
C278 C 0.27444 0.51461 0.08129 0.0
H279 H 0.26148 0.52197 0.08542 0.0
C280 C 0.3002 0.53242 0.07728 0.0
H281 H 0.27624 0.45786 0.07405 0.0
C282 C 0.31739 0.52358 0.0721 0.0
H283 H 0.33732 0.53775 0.06893 0.0
H284 H 0.30689 0.55317 0.07819 0.0
H285 H 0.45205 0.88419 0.24446 0.0
C286 C 0.43621 0.88468 0.25176 0.0
C287 C 0.42656 0.90102 0.24558 0.0
C288 C 0.42405 0.86733 0.26617 0.0
H289 H 0.39789 0.91332 0.25016 0.0
C290 C 0.40507 0.90043 0.25458 0.0
C291 C 0.3927 0.88332 0.26913 0.0
C292 C 0.40249 0.86694 0.27483 0.0
C293 C 0.43154 0.8473 0.27039 0.0
H294 H 0.39268 0.85305 0.28555 0.0
C295 C 0.4583 0.85408 0.27505 0.0
C296 C 0.46476 0.83442 0.27824 0.0
C297 C 0.41149 0.82078 0.26913 0.0
H298 H 0.39083 0.81498 0.26535 0.0
C299 C 0.41784 0.80137 0.27228 0.0
H300 H 0.47396 0.87445 0.27609 0.0
C301 C 0.44425 0.80807 0.27674 0.0
H302 H 0.44864 0.79263 0.27929 0.0
H303 H 0.40223 0.78101 0.2712 0.0
H304 H 0.14351 0.58373 0.26484 0.0
C305 C 0.14342 0.56689 0.27047 0.0
C306 C 0.12779 0.54189 0.26 0.0
C307 C 0.15924 0.5703 0.28806 0.0
H308 H 0.11727 0.50122 0.25889 0.0
C309 C 0.1283 0.5203 0.26731 0.0
C310 C 0.14395 0.52345 0.28492 0.0
C311 C 0.15885 0.54841 0.29533 0.0
C312 C 0.1768 0.59662 0.29884 0.0
H313 H 0.17022 0.55087 0.30931 0.0
C314 C 0.16761 0.61433 0.30212 0.0
C315 C 0.18394 0.63864 0.31331 0.0
C316 C 0.20277 0.60382 0.30647 0.0
H317 H 0.21057 0.59078 0.30388 0.0
C318 C 0.21903 0.62796 0.31748 0.0
H319 H 0.14755 0.60892 0.29652 0.0
C320 C 0.20967 0.64526 0.32099 0.0
H321 H 0.22273 0.66402 0.32943 0.0
H322 H 0.23897 0.6333 0.32329 0.0
H323 H 0.42319 0.53889 0.24862 0.0
C324 C 0.44076 0.55596 0.25607 0.0
C325 C 0.46581 0.56428 0.24908 0.0
C326 C 0.43823 0.57027 0.27222 0.0
H327 H 0.5076 0.59335 0.25332 0.0
C328 C 0.48834 0.58676 0.25875 0.0
C329 C 0.48609 0.60138 0.27485 0.0
C330 C 0.46091 0.59283 0.28147 0.0
C331 C 0.4118 0.56334 0.27868 0.0
H332 H 0.45867 0.60423 0.29351 0.0
C333 C 0.39493 0.53863 0.28523 0.0
C334 C 0.37128 0.53371 0.29332 0.0
C335 C 0.4042 0.58249 0.27949 0.0
H336 H 0.41678 0.60156 0.27441 0.0
C337 C 0.38049 0.57738 0.28701 0.0
H338 H 0.40075 0.52382 0.28487 0.0
C339 C 0.36424 0.55326 0.29406 0.0
H340 H 0.34602 0.54979 0.30004 0.0
H341 H 0.37485 0.59229 0.2876 0.0
Tb342 Tb 0.49652 0.9944 0.98969 0.0
Eu343 Eu 0.51471 0.02192 0.03637 0.0
C344 C 0.51945 0.97244 0.0215 0.0
C345 C 0.45772 0.97066 0.02264 0.0
C346 C 0.49005 0.98972 0.93485 0.0
C347 C 0.491 0.98725 0.89902 0.0
C348 C 0.4852 0.97497 0.91661 0.0
C349 C 0.5005 0.0169 0.93531 0.0
C350 C 0.50639 0.02922 0.91776 0.0
C351 C 0.50191 0.01459 0.89939 0.0
C352 C 0.48588 0.97698 0.95341 0.0
O353 O 0.47817 0.0184 0.99376 0.0
O354 O 0.50626 0.04882 0.01928 0.0
O355 O 0.55161 0.04147 0.01994 0.0
O356 O 0.53011 0.03344 0.98873 0.0
C357 C 0.48809 0.0413 0.00416 0.0
O358 O 0.50856 0.04076 0.06252 0.0
O359 O 0.54049 0.03197 0.06399 0.0
O360 O 0.51281 0.98314 0.03583 0.0
O361 O 0.52027 0.97934 1.00337 0.0
O362 O 0.46725 0.96549 0.00695 0.0
O363 O 0.47048 0.99352 0.0333 0.0
C364 C 0.55169 0.04609 1.00117 0.0
O365 O 0.50758 0.98224 0.96407 0.0
O366 O 0.46879 0.97828 0.96434 0.0
C367 C 0.51689 0.02594 0.09213 0.0
C368 C 0.49869 0.00043 0.12675 0.0
C369 C 0.52104 0.02587 0.12802 0.0
C370 C 0.53002 0.03852 0.11085 0.0
C371 C 0.49476 0.00049 0.09075 0.0
C372 C 0.48571 0.9879 0.10788 0.0
C373 C 0.52631 0.03911 0.07403 0.0
H374 H 0.48759 0.97541 0.88521 0.0
H375 H 0.47737 0.954 0.91599 0.0
H376 H 0.50444 0.02864 0.94929 0.0
H377 H 0.51441 0.05022 0.91858 0.0
H378 H 0.53135 0.03617 0.14232 0.0
H379 H 0.54716 0.05814 0.1122 0.0
H380 H 0.48449 0.99035 0.0764 0.0
H381 H 0.46872 0.96818 0.1063 0.0
Tb382 Tb 0.01856 0.50196 0.98974 0.0
Eu383 Eu 0.99645 0.49489 0.034 0.0
C384 C 0.04496 0.54808 0.02355 0.0
C385 C 0.04571 0.48727 0.02411 0.0
C386 C 0.0202 0.50221 0.9352 0.0
C387 C 0.01709 0.48847 0.90025 0.0
C388 C 0.02975 0.49394 0.9195 0.0
C389 C 0.99767 0.50477 0.93145 0.0
C390 C 0.98516 0.49954 0.91221 0.0
C391 C 0.9947 0.49132 0.89633 0.0
C392 C 0.03393 0.50829 0.95535 0.0
O393 O 0.99252 0.45989 0.99068 0.0
O394 O 0.96575 0.45929 0.01452 0.0
O395 O 0.97583 0.51208 0.01613 0.0
O396 O 0.97936 0.49765 0.98495 0.0
C397 C 0.97053 0.44775 0.9995 0.0
O398 O 0.98038 0.47168 0.05885 0.0
O399 O 0.9878 0.51152 0.06011 0.0
O400 O 0.03659 0.53146 0.03703 0.0
O401 O 0.03423 0.54087 0.00512 0.0
O402 O 0.04945 0.50155 0.00913 0.0
O403 O 0.02398 0.4783 0.03329 0.0
C404 C 0.96834 0.5068 0.99696 0.0
O405 O 0.03268 0.52609 0.96668 0.0
O406 O 0.03004 0.48834 0.96489 0.0
C407 C 0.99581 0.49684 0.08977 0.0
C408 C 0.02301 0.50788 0.12794 0.0
C409 C 0.99533 0.4978 0.12557 0.0
C410 C 0.98185 0.49236 0.10661 0.0
C411 C 0.02337 0.50684 0.09201 0.0
C412 C 0.03686 0.51232 0.11093 0.0
C413 C 0.98168 0.49118 0.0699 0.0
H414 H 0.0247 0.48171 0.88849 0.0
H415 H 0.047 0.4917 0.92213 0.0
H416 H 0.98985 0.51105 0.94335 0.0
H417 H 0.96822 0.5023 0.90977 0.0
H418 H 0.98412 0.49443 0.13836 0.0
H419 H 0.96056 0.4847 0.10511 0.0
H420 H 0.03443 0.51033 0.07911 0.0
H421 H 0.05809 0.51968 0.1122 0.0
Tb422 Tb 0.52626 0.51465 0.02728 0.0
Eu423 Eu 0.50098 0.50893 0.98085 0.0
C424 C 0.5028 0.46215 1.00016 0.0
C425 C 0.56238 0.52471 0.9921 0.0
C426 C 0.53328 0.51829 0.08263 0.0
C427 C 0.54078 0.53016 0.11824 0.0
C428 C 0.55069 0.53038 0.09991 0.0
C429 C 0.50572 0.50552 0.08391 0.0
C430 C 0.49574 0.50528 0.10226 0.0
C431 C 0.51317 0.51785 0.11966 0.0
C432 C 0.54425 0.5209 0.06332 0.0
O433 O 0.54061 0.55332 0.01709 0.0
O434 O 0.50373 0.54427 0.9972 0.0
O435 O 0.46546 0.49201 0.9988 0.0
O436 O 0.48726 0.51037 0.03002 0.0
C437 C 0.5247 0.56076 0.00914 0.0
O438 O 0.50083 0.52766 0.95408 0.0
O439 O 0.47505 0.48569 0.95422 0.0
O440 O 0.50738 0.47506 0.98443 0.0
O441 O 0.50284 0.47288 0.01767 0.0
O442 O 0.55678 0.51571 0.00956 0.0
O443 O 0.54556 0.52812 0.98063 0.0
C444 C 0.4653 0.49805 0.01779 0.0
O445 O 0.53594 0.49943 0.05171 0.0
O446 O 0.54479 0.53946 0.05359 0.0
C447 C 0.49541 0.50128 0.92503 0.0
C448 C 0.5164 0.49496 0.88996 0.0
C449 C 0.49481 0.49949 0.8891 0.0
C450 C 0.48441 0.50261 0.90651 0.0
C451 C 0.51692 0.49679 0.92599 0.0
C452 C 0.5273 0.49364 0.90864 0.0
C453 C 0.48517 0.50544 0.9434 0.0
H454 H 0.55483 0.54043 0.13119 0.0
H455 H 0.57203 0.54056 0.09917 0.0
H456 H 0.49197 0.49612 0.07068 0.0
H457 H 0.47439 0.49538 0.10281 0.0
H458 H 0.48578 0.50035 0.87497 0.0
H459 H 0.46785 0.50615 0.90552 0.0
H460 H 0.52583 0.49595 0.94021 0.0
H461 H 0.54417 0.4906 0.90989 0.0
Tb462 Tb 0.1626 0.32626 0.32317 0.0
Eu463 Eu 0.17848 0.35159 0.37055 0.0
C464 C 0.18112 0.30062 0.35537 0.0
C465 C 0.12124 0.30298 0.35445 0.0
C466 C 0.15741 0.32409 0.26833 0.0
C467 C 0.16105 0.32341 0.23278 0.0
C468 C 0.1549 0.31041 0.25003 0.0
C469 C 0.16609 0.35099 0.26919 0.0
C470 C 0.17215 0.364 0.25194 0.0
C471 C 0.16981 0.35039 0.23351 0.0
C472 C 0.15227 0.31053 0.28655 0.0
O473 O 0.14744 0.3531 0.32737 0.0
O474 O 0.17687 0.38181 0.35298 0.0
O475 O 0.21704 0.37009 0.35629 0.0
O476 O 0.19981 0.36309 0.32364 0.0
C477 C 0.15981 0.37634 0.33747 0.0
O478 O 0.16994 0.36875 0.39648 0.0
O479 O 0.20256 0.36099 0.39889 0.0
O480 O 0.17549 0.31231 0.36971 0.0
O481 O 0.18197 0.30695 0.33704 0.0
O482 O 0.13153 0.29747 0.33942 0.0
O483 O 0.13394 0.32586 0.36502 0.0
C484 C 0.21985 0.3747 0.33756 0.0
O485 O 0.17339 0.31432 0.29725 0.0
O486 O 0.13546 0.31233 0.29752 0.0
C487 C 0.17727 0.35333 0.42613 0.0
C488 C 0.15881 0.32607 0.45998 0.0
C489 C 0.17739 0.35316 0.46199 0.0
C490 C 0.18656 0.36665 0.44519 0.0
C491 C 0.15853 0.32641 0.42401 0.0
C492 C 0.14939 0.31292 0.44076 0.0
C493 C 0.1874 0.36727 0.40847 0.0
H494 H 0.15871 0.31225 0.21883 0.0
H495 H 0.14837 0.28967 0.2491 0.0
H496 H 0.16846 0.36198 0.28324 0.0
H497 H 0.17916 0.38482 0.25312 0.0
H498 H 0.18528 0.36385 0.47654 0.0
H499 H 0.20109 0.38742 0.4471 0.0
H500 H 0.15106 0.31581 0.40938 0.0
H501 H 0.13479 0.29218 0.43862 0.0
Tb502 Tb 0.68256 0.8339 0.32075 0.0
Eu503 Eu 0.65938 0.82795 0.3646 0.0
C504 C 0.7099 0.88014 0.35466 0.0
C505 C 0.70834 0.81888 0.35618 0.0
C506 C 0.68467 0.83109 0.26645 0.0
C507 C 0.6854 0.83482 0.23103 0.0
C508 C 0.69879 0.8413 0.25007 0.0
C509 C 0.65705 0.81407 0.26364 0.0
C510 C 0.64364 0.80758 0.24462 0.0
C511 C 0.65763 0.81806 0.2281 0.0
C512 C 0.6985 0.83963 0.28653 0.0
O513 O 0.65559 0.79202 0.32133 0.0
O514 O 0.62896 0.79196 0.34514 0.0
O515 O 0.64068 0.84634 0.34619 0.0
O516 O 0.64349 0.83002 0.31556 0.0
C517 C 0.63363 0.78018 0.33019 0.0
O518 O 0.64061 0.80483 0.3889 0.0
O519 O 0.65183 0.84583 0.39062 0.0
O520 O 0.70018 0.86368 0.36814 0.0
O521 O 0.70011 0.87314 0.336 0.0
O522 O 0.71239 0.83199 0.34045 0.0
O523 O 0.68686 0.8114 0.36548 0.0
C524 C 0.63303 0.84034 0.32709 0.0
O525 O 0.69453 0.85654 0.29665 0.0
O526 O 0.69663 0.82118 0.29716 0.0
C527 C 0.65756 0.82929 0.41999 0.0
C528 C 0.68431 0.83741 0.45793 0.0
C529 C 0.65888 0.83475 0.45586 0.0
C530 C 0.64557 0.83065 0.437 0.0
C531 C 0.68305 0.83228 0.42196 0.0
C532 C 0.69628 0.83623 0.44076 0.0
C533 C 0.64375 0.82501 0.40017 0.0
H534 H 0.69671 0.84346 0.21867 0.0
H535 H 0.7201 0.85468 0.25206 0.0
H536 H 0.64584 0.80611 0.27619 0.0
H537 H 0.62232 0.79433 0.24285 0.0
H538 H 0.64909 0.83538 0.46882 0.0
H539 H 0.62592 0.82846 0.43569 0.0
H540 H 0.69271 0.83154 0.40894 0.0
H541 H 0.71601 0.83861 0.44184 0.0
Tb542 Tb 0.18759 0.84595 0.35824 0.0
Eu543 Eu 0.16357 0.84296 0.312 0.0
C544 C 0.16288 0.79442 0.32983 0.0
C545 C 0.22396 0.85611 0.3234 0.0
C546 C 0.1943 0.84938 0.41351 0.0
C547 C 0.19367 0.84149 0.44831 0.0
C548 C 0.20239 0.84038 0.42967 0.0
C549 C 0.17693 0.85908 0.41611 0.0
C550 C 0.16827 0.86031 0.43477 0.0
C551 C 0.17671 0.85173 0.45117 0.0
C552 C 0.2043 0.84871 0.39414 0.0
O553 O 0.20251 0.88571 0.35009 0.0
O554 O 0.16732 0.87851 0.32875 0.0
O555 O 0.12791 0.82687 0.32994 0.0
O556 O 0.14995 0.84463 0.36117 0.0
C557 C 0.18767 0.89404 0.34158 0.0
O558 O 0.16501 0.86277 0.28554 0.0
O559 O 0.13756 0.82104 0.28507 0.0
O560 O 0.1685 0.80805 0.31449 0.0
O561 O 0.16264 0.80474 0.3474 0.0
O562 O 0.21733 0.84568 0.34029 0.0
O563 O 0.20817 0.86144 0.31248 0.0
C564 C 0.12795 0.83301 0.34897 0.0
O565 O 0.19089 0.8269 0.38268 0.0
O566 O 0.21076 0.86894 0.38425 0.0
C567 C 0.1595 0.83646 0.25645 0.0
C568 C 0.18159 0.82977 0.22211 0.0
C569 C 0.16133 0.83623 0.22073 0.0
C570 C 0.15038 0.83953 0.23778 0.0
C571 C 0.17966 0.83004 0.25793 0.0
C572 C 0.19057 0.82669 0.24094 0.0
C573 C 0.14893 0.84097 0.27453 0.0
H574 H 0.2002 0.83427 0.46047 0.0
H575 H 0.21562 0.83262 0.4279 0.0
H576 H 0.17036 0.86605 0.40379 0.0
H577 H 0.15551 0.86861 0.43641 0.0
H578 H 0.15379 0.8385 0.20646 0.0
H579 H 0.13491 0.8446 0.23639 0.0
H580 H 0.18716 0.82787 0.27227 0.0
H581 H 0.20641 0.82216 0.24261 0.0
Tb582 Tb 0.82784 0.65754 0.65516 0.0
Eu583 Eu 0.84847 0.68458 0.70198 0.0
C584 C 0.84808 0.63231 0.68644 0.0
C585 C 0.78921 0.63578 0.68864 0.0
C586 C 0.82104 0.65463 0.60035 0.0
C587 C 0.82493 0.65394 0.56482 0.0
C588 C 0.81889 0.641 0.58211 0.0
C589 C 0.82927 0.68143 0.60111 0.0
C590 C 0.83521 0.69437 0.58382 0.0
C591 C 0.83323 0.68082 0.56545 0.0
C592 C 0.81629 0.64122 0.61865 0.0
O593 O 0.81236 0.6839 0.66009 0.0
O594 O 0.84239 0.71328 0.68529 0.0
O595 O 0.88497 0.70172 0.6851 0.0
O596 O 0.86324 0.69544 0.65426 0.0
C597 C 0.82418 0.70702 0.67039 0.0
O598 O 0.84369 0.70382 0.72865 0.0
O599 O 0.87537 0.69462 0.72891 0.0
O600 O 0.84375 0.64455 0.70118 0.0
O601 O 0.8484 0.63886 0.66822 0.0
O602 O 0.79695 0.62991 0.67219 0.0
O603 O 0.80402 0.6581 0.69973 0.0
C604 C 0.8851 0.70679 0.66646 0.0
O605 O 0.83762 0.64496 0.62901 0.0
O606 O 0.79989 0.64325 0.62995 0.0
C607 C 0.85372 0.69005 0.75849 0.0
C608 C 0.83603 0.66641 0.79397 0.0
C609 C 0.83225 0.68713 0.78881 0.0
C610 C 0.84111 0.69888 0.77132 0.0
C611 C 0.85773 0.66948 0.76371 0.0
C612 C 0.84908 0.65788 0.78129 0.0
C613 C 0.86176 0.70194 0.73956 0.0
H614 H 0.82289 0.64283 0.55092 0.0
H615 H 0.81276 0.62036 0.58126 0.0
H616 H 0.83143 0.69241 0.61511 0.0
H617 H 0.84187 0.71512 0.58492 0.0
H618 H 0.82254 0.69436 0.79835 0.0
H619 H 0.83783 0.71475 0.7677 0.0
H620 H 0.86725 0.66206 0.75413 0.0
H621 H 0.85205 0.64178 0.78472 0.0
Tb622 Tb 0.35423 0.16649 0.65685 0.0
Eu623 Eu 0.33166 0.16007 0.70096 0.0
C624 C 0.38111 0.21287 0.6906 0.0
C625 C 0.38082 0.15209 0.69179 0.0
C626 C 0.35587 0.16336 0.60257 0.0
C627 C 0.35586 0.16725 0.56715 0.0
C628 C 0.36958 0.17389 0.58609 0.0
C629 C 0.32834 0.14581 0.59996 0.0
C630 C 0.3146 0.13915 0.58105 0.0
C631 C 0.32815 0.15001 0.56445 0.0
C632 C 0.36993 0.17221 0.62257 0.0
O633 O 0.32769 0.12449 0.65765 0.0
O634 O 0.30105 0.1243 0.68149 0.0
O635 O 0.31197 0.17773 0.68266 0.0
O636 O 0.31503 0.16206 0.65184 0.0
C637 C 0.30572 0.11258 0.66651 0.0
O638 O 0.31494 0.13721 0.72585 0.0
O639 O 0.32246 0.17705 0.72658 0.0
O640 O 0.372 0.19647 0.7042 0.0
O641 O 0.37085 0.20564 0.67204 0.0
O642 O 0.38477 0.16624 0.67672 0.0
O643 O 0.35902 0.14329 0.70086 0.0
C644 C 0.30436 0.17193 0.66354 0.0
O645 O 0.36574 0.18899 0.63266 0.0
O646 O 0.3685 0.15398 0.63328 0.0
C647 C 0.32867 0.16239 0.75681 0.0
C648 C 0.35338 0.17366 0.79589 0.0
C649 C 0.32624 0.16575 0.79238 0.0
C650 C 0.31401 0.16017 0.77298 0.0
C651 C 0.35573 0.1703 0.76017 0.0
C652 C 0.36798 0.17586 0.77954 0.0
C653 C 0.31576 0.15673 0.73651 0.0
H654 H 0.36683 0.17618 0.55472 0.0
H655 H 0.3908 0.18769 0.58792 0.0
H656 H 0.31744 0.1376 0.6126 0.0
H657 H 0.29336 0.12553 0.57946 0.0
H658 H 0.31451 0.16417 0.8046 0.0
H659 H 0.29312 0.15421 0.7706 0.0
H660 H 0.36733 0.1721 0.74779 0.0
H661 H 0.38879 0.18154 0.78171 0.0
Tb662 Tb 0.85699 0.17213 0.6941 0.0
Eu663 Eu 0.83723 0.1774 0.64854 0.0
C664 C 0.83501 0.12547 0.66092 0.0
C665 C 0.89582 0.18713 0.66078 0.0
C666 C 0.86395 0.17438 0.74897 0.0
C667 C 0.86225 0.16923 0.78424 0.0
C668 C 0.8691 0.16418 0.76573 0.0
C669 C 0.85208 0.18991 0.75094 0.0
C670 C 0.84523 0.195 0.76945 0.0
C671 C 0.85005 0.18456 0.78633 0.0
C672 C 0.86923 0.16712 0.72935 0.0
O673 O 0.87212 0.21383 0.69228 0.0
O674 O 0.84326 0.21285 0.66713 0.0
O675 O 0.80055 0.16026 0.66545 0.0
O676 O 0.82182 0.17528 0.69698 0.0
C677 C 0.86103 0.2251 0.68248 0.0
O678 O 0.84244 0.20051 0.6234 0.0
O679 O 0.81088 0.15986 0.62109 0.0
O680 O 0.84144 0.14164 0.64713 0.0
O681 O 0.83312 0.13278 0.67909 0.0
O682 O 0.88685 0.1729 0.67575 0.0
O683 O 0.88191 0.19571 0.65116 0.0
C684 C 0.80019 0.16531 0.68458 0.0
O685 O 0.84826 0.14937 0.71819 0.0
O686 O 0.88484 0.18631 0.71937 0.0
C687 C 0.8335 0.17589 0.59235 0.0
C688 C 0.8536 0.16903 0.55678 0.0
C689 C 0.85619 0.19339 0.56304 0.0
C690 C 0.84617 0.19673 0.58057 0.0
C691 C 0.8305 0.15142 0.58599 0.0
C692 C 0.84032 0.14802 0.56839 0.0
C693 C 0.8247 0.18034 0.61155 0.0
H694 H 0.86594 0.16058 0.79682 0.0
H695 H 0.87796 0.15189 0.76442 0.0
H696 H 0.84781 0.19783 0.7381 0.0
H697 H 0.83622 0.20716 0.77053 0.0
H698 H 0.86655 0.21013 0.55467 0.0
H699 H 0.84881 0.21581 0.58515 0.0
H700 H 0.82083 0.13491 0.5947 0.0
H701 H 0.83746 0.12884 0.56391 0.0
H702 H 0.30951 0.87828 0.0754 0.0
H703 H 0.43364 0.91772 0.01275 0.0
H704 H 0.3404 0.82683 0.0617 0.0
H705 H 0.42554 0.97579 0.04836 0.0
H706 H 0.39444 0.88323 0.02603 0.0
H707 H 0.34787 0.91378 0.06183 0.0
C708 C 0.3243 0.87439 0.06966 0.0
C709 C 0.32138 0.84928 0.06954 0.0
C710 C 0.40121 0.90354 0.03087 0.0
C711 C 0.36492 0.88968 0.05357 0.0
C712 C 0.42348 0.92324 0.0232 0.0
C713 C 0.43292 0.94969 0.02947 0.0
C714 C 0.38803 0.91029 0.0447 0.0
C715 C 0.41901 0.95564 0.04318 0.0
C716 C 0.3461 0.89464 0.06182 0.0
C717 C 0.3412 0.84551 0.06166 0.0
N718 N 0.39719 0.9361 0.0503 0.0
N719 N 0.36192 0.86536 0.05388 0.0
H720 H 0.13717 0.42167 0.0755 0.0
H721 H 0.09807 0.5129 0.01668 0.0
H722 H 0.1946 0.50078 0.06463 0.0
H723 H 0.04206 0.45001 0.0482 0.0
H724 H 0.13326 0.50493 0.02958 0.0
H725 H 0.10163 0.42819 0.0612 0.0
C726 C 0.14242 0.44041 0.07016 0.0
C727 C 0.16914 0.4607 0.07141 0.0
C728 C 0.11325 0.49286 0.03363 0.0
C729 C 0.12837 0.468 0.05455 0.0
C730 C 0.09311 0.49731 0.02621 0.0
C731 C 0.06704 0.48213 0.03139 0.0
C732 C 0.10726 0.47282 0.04609 0.0
C733 C 0.06188 0.46228 0.04389 0.0
C734 C 0.12206 0.44405 0.06191 0.0
C735 C 0.17451 0.48433 0.06375 0.0
N736 N 0.08177 0.45813 0.05075 0.0
N737 N 0.15436 0.48728 0.05565 0.0
H738 H 0.49564 0.6837 0.04724 0.0
H739 H 0.56832 0.60195 0.03066 0.0
H740 H 0.58061 0.71828 0.06037 0.0
H741 H 0.49146 0.57981 1.00091 0.0
H742 H 0.57334 0.64418 0.04268 0.0
H743 H 0.49363 0.64481 0.03126 0.0
C744 C 0.51398 0.68332 0.04655 0.0
C745 C 0.53838 0.70446 0.05511 0.0
C746 C 0.55553 0.63015 0.03335 0.0
C747 C 0.53602 0.65948 0.0372 0.0
C748 C 0.55262 0.60605 0.0265 0.0
C749 C 0.52936 0.58728 0.01486 0.0
C750 C 0.53487 0.63529 0.02872 0.0
C751 C 0.50971 0.59366 0.00988 0.0
C752 C 0.51276 0.66098 0.03749 0.0
C753 C 0.5613 0.70236 0.05421 0.0
N754 N 0.51279 0.61702 0.01701 0.0
N755 N 0.55954 0.68018 0.04551 0.0
H756 H 0.83429 0.28972 0.98187 0.0
H757 H 0.9684 0.42057 0.96472 0.0
H758 H 0.86462 0.30768 0.92468 0.0
H759 H 0.92637 0.41292 0.01664 0.0
H760 H 0.93377 0.37642 0.95155 0.0
H761 H 0.87101 0.33226 0.99643 0.0
C762 C 0.84863 0.30252 0.97236 0.0
C763 C 0.84624 0.29497 0.95197 0.0
C764 C 0.93216 0.38438 0.96585 0.0
C765 C 0.88854 0.34356 0.96866 0.0
C766 C 0.95199 0.40957 0.97343 0.0
C767 C 0.95027 0.42055 0.9918 0.0
C768 C 0.91052 0.3699 0.97676 0.0
C769 C 0.92845 0.40532 1.00237 0.0
C770 C 0.86964 0.32677 0.98072 0.0
C771 C 0.86577 0.3123 0.94051 0.0
N772 N 0.90943 0.38077 0.99469 0.0
N773 N 0.88603 0.33573 0.949 0.0
H774 H 0.68966 0.55528 0.91821 0.0
H775 H 0.60444 0.52391 0.01198 0.0
H776 H 0.71758 0.54612 0.97592 0.0
H777 H 0.57936 0.53897 0.95546 0.0
H778 H 0.6462 0.53255 0.99922 0.0
H779 H 0.64971 0.55046 0.93184 0.0
C780 C 0.6876 0.55259 0.93381 0.0
C781 C 0.70714 0.55109 0.9459 0.0
C782 C 0.63161 0.53407 0.98964 0.0
C783 C 0.66097 0.54504 0.96156 0.0
C784 C 0.6077 0.52911 0.99691 0.0
C785 C 0.58824 0.53069 0.98481 0.0
C786 C 0.63616 0.54056 0.97006 0.0
C787 C 0.59372 0.53755 0.9654 0.0
C788 C 0.66463 0.54964 0.94156 0.0
C789 C 0.70296 0.54705 0.96594 0.0
N790 N 0.61706 0.54213 0.95863 0.0
N791 N 0.68036 0.54408 0.9731 0.0
H792 H 0.46175 0.17214 0.99556 0.0
H793 H 0.46147 0.03864 0.9688 0.0
H794 H 0.45502 0.1394 0.9355 0.0
H795 H 0.4948 0.08551 0.02519 0.0
H796 H 0.44983 0.0706 0.95777 0.0
H797 H 0.46467 0.13548 0.00787 0.0
C798 C 0.46073 0.15719 0.98495 0.0
C799 C 0.45852 0.15908 0.96444 0.0
C800 C 0.45951 0.07376 0.9726 0.0
C801 C 0.46144 0.11694 0.97847 0.0
C802 C 0.46609 0.0555 0.97896 0.0
C803 C 0.47929 0.05952 0.99792 0.0
C804 C 0.46595 0.09606 0.98536 0.0
C805 C 0.48485 0.08177 0.01039 0.0
C806 C 0.46232 0.13626 0.992 0.0
C807 C 0.45657 0.13874 0.95141 0.0
N808 N 0.4782 0.09926 0.00387 0.0
N809 N 0.45826 0.1186 0.95865 0.0
H810 H 0.70867 0.17711 0.98408 0.0
H811 H 0.55714 0.06109 0.96364 0.0
H812 H 0.65403 0.17002 0.93526 0.0
H813 H 0.60156 0.0792 0.02117 0.0
H814 H 0.59561 0.09666 0.95121 0.0
H815 H 0.6728 0.13709 0.99593 0.0
C816 C 0.68925 0.16684 0.9757 0.0
C817 C 0.68417 0.17678 0.95871 0.0
C818 C 0.59705 0.0929 0.96655 0.0
C819 C 0.64333 0.13139 0.97209 0.0
C820 C 0.57501 0.07249 0.97373 0.0
C821 C 0.5759 0.06719 0.99363 0.0
C822 C 0.62044 0.10831 0.97923 0.0
C823 C 0.59988 0.08267 0.00579 0.0
C824 C 0.6688 0.14422 0.98253 0.0
C825 C 0.65868 0.16302 0.94847 0.0
N826 N 0.62122 0.10263 0.99841 0.0
N827 N 0.63926 0.14109 0.95532 0.0
H828 H 0.83571 0.53518 0.97799 0.0
H829 H 0.94349 0.49173 0.95919 0.0
H830 H 0.82676 0.47936 0.93011 0.0
H831 H 0.94163 0.52814 0.01566 0.0
H832 H 0.905 0.49403 0.94603 0.0
H833 H 0.87885 0.53984 0.98955 0.0
C834 C 0.84308 0.52429 0.96974 0.0
C835 C 0.82768 0.50679 0.95314 0.0
C836 C 0.91305 0.50162 0.96128 0.0
C837 C 0.87671 0.5119 0.96622 0.0
C838 C 0.93514 0.50038 0.96884 0.0
C839 C 0.9458 0.50958 0.98866 0.0
C840 C 0.90147 0.51229 0.97353 0.0
C841 C 0.934 0.52063 1.00034 0.0
C842 C 0.86752 0.52677 0.97641 0.0
C843 C 0.83795 0.49292 0.94306 0.0
N844 N 0.91242 0.52162 0.99262 0.0
N845 N 0.86174 0.49573 0.94977 0.0
H846 H 0.52568 0.33163 0.01746 0.0
H847 H 0.4911 0.43002 0.96611 0.0
H848 H 0.49256 0.3183 0.95653 0.0
H849 H 0.50697 0.43402 0.02958 0.0
H850 H 0.49033 0.38837 0.96252 0.0
H851 H 0.51817 0.36866 0.0225 0.0
C852 C 0.51675 0.33648 0.00517 0.0
C853 C 0.50993 0.32206 0.98651 0.0
C854 C 0.4937 0.39819 0.97726 0.0
C855 C 0.50125 0.36429 0.99214 0.0
C856 C 0.4942 0.42201 0.97933 0.0
C857 C 0.49933 0.4356 0.99817 0.0
C858 C 0.49872 0.38801 0.99413 0.0
C859 C 0.50298 0.4242 0.01477 0.0
C860 C 0.51231 0.35749 0.00808 0.0
C861 C 0.49803 0.32887 0.97117 0.0
N862 N 0.50294 0.40118 0.01234 0.0
N863 N 0.49432 0.34968 0.97427 0.0
H864 H 0.19664 0.68383 0.01677 0.0
H865 H 0.07056 0.57205 0.06044 0.0
H866 H 0.18445 0.68815 0.07866 0.0
H867 H 0.07261 0.5847 0.9983 0.0
H868 H 0.11193 0.61421 0.06786 0.0
H869 H 0.15104 0.64719 0.00986 0.0
C870 C 0.18416 0.67714 0.02886 0.0
C871 C 0.19419 0.68884 0.0483 0.0
C872 C 0.10309 0.60787 0.05265 0.0
C873 C 0.14219 0.64673 0.04062 0.0
C874 C 0.07952 0.58379 0.04839 0.0
C875 C 0.06819 0.57471 0.02869 0.0
C876 C 0.11558 0.62275 0.03707 0.0
C877 C 0.08064 0.59081 0.01369 0.0
C878 C 0.15815 0.6563 0.02493 0.0
C879 C 0.1773 0.67961 0.06346 0.0
N880 N 0.1038 0.61386 0.01817 0.0
N881 N 0.15217 0.65879 0.05936 0.0
H882 H 0.35378 0.50532 0.09218 0.0
H883 H 0.41516 0.47677 0.99774 0.0
H884 H 0.30831 0.47166 0.03535 0.0
H885 H 0.45727 0.50647 0.05625 0.0
H886 H 0.37456 0.47071 0.01143 0.0
H887 H 0.39022 0.50108 0.07983 0.0
C888 C 0.35129 0.49638 0.07722 0.0
C889 C 0.32801 0.48855 0.06481 0.0
C890 C 0.39266 0.47832 0.02127 0.0
C891 C 0.36999 0.48448 0.05022 0.0
C892 C 0.41589 0.48182 0.01346 0.0
C893 C 0.43986 0.49236 0.02578 0.0
C894 C 0.39339 0.48543 0.04155 0.0
C895 C 0.43944 0.49845 0.04606 0.0
C896 C 0.37216 0.49415 0.07009 0.0
C897 C 0.32587 0.47757 0.04543 0.0
N898 N 0.41673 0.49506 0.05322 0.0
N899 N 0.34675 0.47615 0.03862 0.0
H900 H 0.48656 0.81479 0.01268 0.0
H901 H 0.5277 0.95755 0.05746 0.0
H902 H 0.52212 0.8441 0.07284 0.0
H903 H 0.51862 0.93585 0.99441 0.0
H904 H 0.52668 0.91673 0.06363 0.0
H905 H 0.49853 0.85929 0.00568 0.0
C906 C 0.49703 0.83071 0.02437 0.0
C907 C 0.50317 0.82587 0.0434 0.0
C908 C 0.52533 0.9211 0.04845 0.0
C909 C 0.5168 0.8767 0.03558 0.0
C910 C 0.52586 0.94437 0.04491 0.0
C911 C 0.52298 0.94998 0.02538 0.0
C912 C 0.52144 0.90315 0.03236 0.0
C913 C 0.52082 0.93229 0.0097 0.0
C914 C 0.50401 0.85608 0.02036 0.0
C915 C 0.51704 0.84712 0.05799 0.0
N916 N 0.51968 0.90946 0.01353 0.0
N917 N 0.52308 0.87163 0.05386 0.0
H918 H 1.00448 0.15769 0.39374 0.0
H919 H 0.08839 0.30898 0.37895 0.0
H920 H 0.97404 0.20976 0.40648 0.0
H921 H 0.09686 0.24987 0.3452 0.0
H922 H 0.04893 0.27423 0.39196 0.0
H923 H 0.04123 0.19257 0.37901 0.0
C924 C 0.00526 0.17635 0.39328 0.0
C925 C 0.98565 0.18048 0.40112 0.0
C926 C 0.05931 0.26893 0.38156 0.0
C927 C 0.02853 0.22098 0.38467 0.0
C928 C 0.08184 0.28871 0.37414 0.0
C929 C 0.09596 0.28233 0.36094 0.0
C930 C 0.05116 0.24257 0.37605 0.0
C931 C 0.08654 0.25573 0.35524 0.0
C932 C 0.02643 0.19633 0.38493 0.0
C933 C 0.98863 0.20558 0.40073 0.0
N934 N 0.06492 0.23685 0.36299 0.0
N935 N 0.0097 0.22491 0.39268 0.0
H936 H 0.84394 0.79539 0.37496 0.0
H937 H 0.71194 0.80117 0.39207 0.0
H938 H 0.81373 0.79211 0.43207 0.0
H939 H 0.75226 0.82417 0.33901 0.0
H940 H 0.74673 0.79327 0.40568 0.0
H941 H 0.80846 0.80193 0.3604 0.0
C942 C 0.82993 0.79605 0.38447 0.0
C943 C 0.83193 0.79305 0.40483 0.0
C944 C 0.74798 0.80002 0.39105 0.0
C945 C 0.79095 0.8002 0.38812 0.0
C946 C 0.72803 0.80446 0.38321 0.0
C947 C 0.72911 0.8134 0.36433 0.0
C948 C 0.76917 0.8043 0.37992 0.0
C949 C 0.75061 0.81738 0.35364 0.0
C950 C 0.8096 0.79969 0.37611 0.0
C951 C 0.81283 0.79374 0.41627 0.0
N952 N 0.76974 0.81276 0.36156 0.0
N953 N 0.79323 0.79719 0.40777 0.0
H954 H 0.24902 0.05263 0.39597 0.0
H955 H 0.15605 0.91466 0.33255 0.0
H956 H 0.1638 0.01723 0.38376 0.0
H957 H 0.23093 0.93402 0.36436 0.0
H958 H 0.16256 0.95706 0.34536 0.0
H959 H 0.24606 0.01326 0.37925 0.0
C960 C 0.22972 0.03668 0.3898 0.0
C961 C 0.20663 0.03836 0.39129 0.0
C962 C 0.17764 0.95207 0.34943 0.0
C963 C 0.20331 0.99371 0.3718 0.0
C964 C 0.17402 0.92794 0.34205 0.0
C965 C 0.19287 0.9207 0.34755 0.0
C966 C 0.20036 0.9692 0.36227 0.0
C967 C 0.21579 0.93874 0.35989 0.0
C968 C 0.22811 0.01433 0.38018 0.0
C969 C 0.18225 0.0172 0.38268 0.0
N970 N 0.21887 0.96219 0.36692 0.0
N971 N 0.18126 0.99582 0.3733 0.0
H972 H 0.499 0.62127 0.31416 0.0
H973 H 0.63053 0.75331 0.29497 0.0
H974 H 0.52666 0.63919 0.25619 0.0
H975 H 0.59013 0.74506 0.34785 0.0
H976 H 0.596 0.70898 0.28205 0.0
H977 H 0.53561 0.66413 0.32815 0.0
C978 C 0.51273 0.63414 0.30435 0.0
C979 C 0.50954 0.62651 0.2839 0.0
C980 C 0.59473 0.71685 0.2965 0.0
C981 C 0.5518 0.67553 0.29995 0.0
C982 C 0.6145 0.74214 0.30394 0.0
C983 C 0.61323 0.75299 0.32254 0.0
C984 C 0.57361 0.70212 0.30778 0.0
C985 C 0.59186 0.73756 0.33341 0.0
C986 C 0.53369 0.65859 0.31239 0.0
C987 C 0.5284 0.64392 0.27206 0.0
N988 N 0.57292 0.7129 0.32588 0.0
N989 N 0.54864 0.66758 0.28025 0.0
H990 H 0.35109 0.88543 0.24974 0.0
H991 H 0.26477 0.85282 0.34291 0.0
H992 H 0.37885 0.87613 0.30747 0.0
H993 H 0.24175 0.87138 0.28716 0.0
H994 H 0.30637 0.86072 0.33018 0.0
H995 H 0.31097 0.88025 0.26323 0.0
C996 C 0.34896 0.88261 0.26532 0.0
C997 C 0.36858 0.88129 0.27745 0.0
C998 C 0.29226 0.86316 0.32076 0.0
C999 C 0.32213 0.87478 0.29296 0.0
C1000 C 0.26844 0.85861 0.32802 0.0
C1001 C 0.24965 0.86146 0.31613 0.0
C1002 C 0.29733 0.87046 0.30141 0.0
C1003 C 0.25562 0.86903 0.29694 0.0
C1004 C 0.32588 0.87945 0.27298 0.0
C1005 C 0.36422 0.87698 0.29744 0.0
N1006 N 0.27883 0.87316 0.29018 0.0
N1007 N 0.34149 0.87382 0.30453 0.0
H1008 H 0.18806 0.524 0.30173 0.0
H1009 H 0.11991 0.37119 0.31079 0.0
H1010 H 0.10415 0.47185 0.2846 0.0
H1011 H 0.18996 0.42901 0.34803 0.0
H1012 H 0.11505 0.40663 0.29784 0.0
H1013 H 0.19063 0.48803 0.3153 0.0
C1014 C 0.17008 0.50504 0.30095 0.0
C1015 C 0.14573 0.50111 0.29227 0.0
C1016 C 0.13132 0.41145 0.30896 0.0
C1017 C 0.1488 0.45959 0.3074 0.0
C1018 C 0.13415 0.3913 0.31633 0.0
C1019 C 0.15537 0.39719 0.33052 0.0
C1020 C 0.15011 0.4376 0.31559 0.0
C1021 C 0.17324 0.42356 0.33718 0.0
C1022 C 0.17163 0.48448 0.30864 0.0
C1023 C 0.12336 0.47578 0.29108 0.0
N1024 N 0.17033 0.44279 0.32952 0.0
N1025 N 0.12543 0.45592 0.29856 0.0
H1026 H 0.35481 0.52672 0.33037 0.0
H1027 H 0.23718 0.38161 0.3006 0.0
H1028 H 0.34761 0.48391 0.27458 0.0
H1029 H 0.26126 0.41529 0.36154 0.0
H1030 H 0.27763 0.41846 0.29078 0.0
H1031 H 0.3211 0.48601 0.34229 0.0
C1032 C 0.34631 0.5086 0.32074 0.0
C1033 C 0.35383 0.50859 0.30145 0.0
C1034 C 0.27426 0.41764 0.30633 0.0
C1035 C 0.31496 0.46204 0.31483 0.0
C1036 C 0.25111 0.39664 0.31196 0.0
C1037 C 0.24572 0.39544 0.33193 0.0
C1038 C 0.29199 0.43788 0.3207 0.0
C1039 C 0.26458 0.4154 0.34599 0.0
C1040 C 0.32713 0.48538 0.32755 0.0
C1041 C 0.34235 0.48465 0.28956 0.0
N1042 N 0.2867 0.436 0.34007 0.0
N1043 N 0.32315 0.46236 0.29633 0.0
H1044 H 0.50103 0.86938 0.30819 0.0
H1045 H 0.60773 0.82431 0.28941 0.0
H1046 H 0.49132 0.81311 0.26041 0.0
H1047 H 0.60745 0.86331 0.34513 0.0
H1048 H 0.56934 0.82682 0.27611 0.0
H1049 H 0.5444 0.8743 0.31927 0.0
C1050 C 0.50828 0.85847 0.29984 0.0
C1051 C 0.49258 0.84073 0.28343 0.0
C1052 C 0.57775 0.83495 0.29122 0.0
C1053 C 0.54189 0.84609 0.29601 0.0
C1054 C 0.59975 0.83358 0.29885 0.0
C1055 C 0.61079 0.84341 0.31853 0.0
C1056 C 0.56666 0.84639 0.30325 0.0
C1057 C 0.59952 0.85529 0.32994 0.0
C1058 C 0.53288 0.86109 0.30624 0.0
C1059 C 0.50274 0.82684 0.27323 0.0
N1060 N 0.57803 0.85637 0.32216 0.0
N1061 N 0.52666 0.82974 0.27971 0.0
H1062 H 0.1872 0.66596 0.34822 0.0
H1063 H 0.15375 0.76366 0.29538 0.0
H1064 H 0.15953 0.65417 0.28608 0.0
H1065 H 0.16326 0.76449 0.35909 0.0
H1066 H 0.15303 0.72199 0.29179 0.0
H1067 H 0.17607 0.70058 0.35282 0.0
C1068 C 0.17859 0.67058 0.33558 0.0
C1069 C 0.17455 0.65748 0.3167 0.0
C1070 C 0.15492 0.7311 0.30656 0.0
C1071 C 0.16187 0.69703 0.32179 0.0
C1072 C 0.1554 0.75493 0.30862 0.0
C1073 C 0.15889 0.7677 0.32756 0.0
C1074 C 0.15834 0.72016 0.32355 0.0
C1075 C 0.16067 0.75538 0.3442 0.0
C1076 C 0.17211 0.69022 0.33822 0.0
C1077 C 0.16296 0.66386 0.30087 0.0
N1078 N 0.16076 0.73245 0.3418 0.0
N1079 N 0.15736 0.68346 0.30372 0.0
H1080 H 0.86322 0.01549 0.35107 0.0
H1081 H 0.73403 0.90379 0.39196 0.0
H1082 H 0.8484 0.01923 0.41238 0.0
H1083 H 0.73964 0.91655 0.3299 0.0
H1084 H 0.77552 0.94568 0.40019 0.0
H1085 H 0.81774 0.97895 0.3432 0.0
C1086 C 0.85019 0.0087 0.36282 0.0
C1087 C 0.85944 0.0202 0.38238 0.0
C1088 C 0.76745 0.93941 0.38481 0.0
C1089 C 0.80756 0.97818 0.37362 0.0
C1090 C 0.74381 0.91548 0.38009 0.0
C1091 C 0.73341 0.90652 0.36019 0.0
C1092 C 0.78093 0.95427 0.36951 0.0
C1093 C 0.74691 0.92256 0.34544 0.0
C1094 C 0.82425 0.9879 0.35835 0.0
C1095 C 0.84186 0.01083 0.3971 0.0
N1096 N 0.77009 0.94547 0.35038 0.0
N1097 N 0.81679 0.99006 0.39248 0.0
H1098 H 0.01866 0.84212 0.42494 0.0
H1099 H 0.07799 0.81389 0.32907 0.0
H1100 H 0.97149 0.80769 0.3688 0.0
H1101 H 0.12037 0.84087 0.38763 0.0
H1102 H 0.03787 0.80862 0.34319 0.0
H1103 H 0.0549 0.83831 0.41174 0.0
C1104 C 0.0158 0.83319 0.40993 0.0
C1105 C 0.99206 0.82498 0.39799 0.0
C1106 C 0.05593 0.8155 0.35293 0.0
C1107 C 0.03379 0.82131 0.38242 0.0
C1108 C 0.07888 0.81855 0.34488 0.0
C1109 C 0.10279 0.82809 0.3571 0.0
C1110 C 0.0569 0.82207 0.37335 0.0
C1111 C 0.1026 0.83371 0.37751 0.0
C1112 C 0.03653 0.83117 0.40232 0.0
C1113 C 0.98942 0.81392 0.37853 0.0
N1114 N 0.08018 0.83077 0.3849 0.0
N1115 N 0.01017 0.81269 0.37125 0.0
H1116 H 0.14637 0.1421 0.35165 0.0
H1117 H 0.19123 0.2877 0.39163 0.0
H1118 H 0.18763 0.17585 0.40988 0.0
H1119 H 0.17694 0.26155 0.32908 0.0
H1120 H 0.1901 0.24714 0.39888 0.0
H1121 H 0.15699 0.18573 0.34316 0.0
C1122 C 0.15777 0.15879 0.3626 0.0
C1123 C 0.16596 0.15548 0.38153 0.0
C1124 C 0.18759 0.25046 0.38356 0.0
C1125 C 0.17807 0.20531 0.37201 0.0
C1126 C 0.18816 0.27356 0.3794 0.0
C1127 C 0.18397 0.27791 0.35972 0.0
C1128 C 0.18232 0.23138 0.36795 0.0
C1129 C 0.18024 0.259 0.34446 0.0
C1130 C 0.16398 0.18367 0.35772 0.0
C1131 C 0.18097 0.17769 0.39513 0.0
N1132 N 0.17911 0.23636 0.34892 0.0
N1133 N 0.18626 0.20169 0.3902 0.0
H1134 H 0.63554 0.50017 0.70194 0.0
H1135 H 0.77086 0.63781 0.72459 0.0
H1136 H 0.66794 0.53924 0.76093 0.0
H1137 H 0.74936 0.58923 0.66904 0.0
H1138 H 0.72999 0.60484 0.73684 0.0
H1139 H 0.67382 0.53556 0.68854 0.0
C1140 C 0.65065 0.51619 0.71211 0.0
C1141 C 0.64856 0.51647 0.73268 0.0
C1142 C 0.73415 0.60142 0.72195 0.0
C1143 C 0.69234 0.55734 0.7173 0.0
C1144 C 0.75748 0.6203 0.71487 0.0
C1145 C 0.76368 0.61631 0.69571 0.0
C1146 C 0.71666 0.57837 0.70979 0.0
C1147 C 0.7455 0.59313 0.68391 0.0
C1148 C 0.67247 0.53643 0.70441 0.0
C1149 C 0.6685 0.53817 0.74499 0.0
N1150 N 0.72282 0.57503 0.69115 0.0
N1151 N 0.68958 0.55763 0.73713 0.0
H1152 H 0.473 0.08613 0.74132 0.0
H1153 H 0.43345 0.17877 0.68551 0.0
H1154 H 0.52929 0.1673 0.73481 0.0
H1155 H 0.37677 0.11416 0.71531 0.0
H1156 H 0.46864 0.17102 0.69868 0.0
H1157 H 0.43718 0.09256 0.72737 0.0
C1158 C 0.47794 0.1053 0.73702 0.0
C1159 C 0.50443 0.12616 0.73929 0.0
C1160 C 0.44849 0.15853 0.70231 0.0
C1161 C 0.46344 0.13335 0.72285 0.0
C1162 C 0.42836 0.16285 0.69473 0.0
C1163 C 0.40211 0.14711 0.69934 0.0
C1164 C 0.44232 0.13804 0.71433 0.0
C1165 C 0.39675 0.12685 0.71146 0.0
C1166 C 0.45744 0.10887 0.72898 0.0
C1167 C 0.50943 0.15038 0.73302 0.0
N1168 N 0.41666 0.1228 0.71847 0.0
N1169 N 0.4892 0.15325 0.72504 0.0
H1170 H 0.87928 0.37998 0.69469 0.0
H1171 H 0.88696 0.25273 0.71818 0.0
H1172 H 0.89059 0.36187 0.75405 0.0
H1173 H 0.8512 0.25903 0.66272 0.0
H1174 H 0.89622 0.29652 0.73017 0.0
H1175 H 0.87654 0.33926 0.68147 0.0
C1176 C 0.88127 0.36753 0.70496 0.0
C1177 C 0.88496 0.37434 0.72555 0.0
C1178 C 0.88647 0.28835 0.71534 0.0
C1179 C 0.88225 0.32793 0.71046 0.0
C1180 C 0.88126 0.2634 0.70845 0.0
C1181 C 0.86814 0.25214 0.68945 0.0
C1182 C 0.87873 0.30224 0.7031 0.0
C1183 C 0.86115 0.26687 0.67753 0.0
C1184 C 0.8798 0.34435 0.69738 0.0
C1185 C 0.88803 0.35767 0.73808 0.0
N1186 N 0.86651 0.29116 0.68456 0.0
N1187 N 0.8865 0.33521 0.73033 0.0
H1188 H 0.16958 0.95448 0.64992 0.0
H1189 H 0.30244 0.08568 0.63125 0.0
H1190 H 0.19789 0.97247 0.59214 0.0
H1191 H 0.26215 0.07765 0.68416 0.0
H1192 H 0.26749 0.04157 0.6182 0.0
H1193 H 0.20646 0.99713 0.6641 0.0
C1194 C 0.18351 0.96732 0.6402 0.0
C1195 C 0.18048 0.95973 0.61975 0.0
C1196 C 0.26635 0.04944 0.63269 0.0
C1197 C 0.22301 0.00848 0.63601 0.0
C1198 C 0.28636 0.07459 0.6402 0.0
C1199 C 0.28522 0.08544 0.65883 0.0
C1200 C 0.24511 0.03486 0.64393 0.0
C1201 C 0.26378 0.07015 0.66969 0.0
C1202 C 0.20461 0.99163 0.64834 0.0
C1203 C 0.19953 0.97712 0.60801 0.0
N1204 N 0.24459 0.04563 0.66209 0.0
N1205 N 0.21991 0.00062 0.61629 0.0
H1206 H 0.01933 0.16478 0.61675 0.0
H1207 H 0.92754 0.22538 0.63778 0.0
H1208 H 0.04669 0.24666 0.61125 0.0
H1209 H 0.92212 0.16021 0.66715 0.0
H1210 H 0.96845 0.23173 0.62451 0.0
H1211 H 0.98073 0.16087 0.63174 0.0
C1212 C 0.01753 0.1821 0.61887 0.0
C1213 C 0.0368 0.20627 0.61292 0.0
C1214 C 0.95837 0.21618 0.63397 0.0
C1215 C 0.99171 0.20147 0.62958 0.0
C1216 C 0.935 0.21248 0.64151 0.0
C1217 C 0.92139 0.19223 0.65362 0.0
C1218 C 0.96788 0.19917 0.63823 0.0
C1219 C 0.93201 0.17615 0.65798 0.0
C1220 C 0.99527 0.17973 0.62735 0.0
C1221 C 0.03243 0.22759 0.61543 0.0
N1222 N 0.95445 0.17979 0.65013 0.0
N1223 N 0.01031 0.22467 0.62349 0.0
H1224 H 0.79373 0.80427 0.59691 0.0
H1225 H 0.83742 0.75439 0.69028 0.0
H1226 H 0.80895 0.84308 0.65608 0.0
H1227 H 0.79654 0.70507 0.63583 0.0
H1228 H 0.829 0.78808 0.67804 0.0
H1229 H 0.7961 0.76838 0.61086 0.0
C1230 C 0.79717 0.80513 0.61286 0.0
C1231 C 0.80115 0.82687 0.6253 0.0
C1232 C 0.82168 0.76976 0.66889 0.0
C1233 C 0.80464 0.78596 0.64134 0.0
C1234 C 0.82654 0.75057 0.67584 0.0
C1235 C 0.81773 0.7269 0.66405 0.0
C1236 C 0.80829 0.76536 0.64994 0.0
C1237 C 0.80366 0.72297 0.64547 0.0
C1238 C 0.7987 0.78465 0.62081 0.0
C1239 C 0.80621 0.827 0.64585 0.0
N1240 N 0.79961 0.74209 0.63893 0.0
N1241 N 0.80804 0.80697 0.65322 0.0
H1242 H 0.04281 0.8379 0.65188 0.0
H1243 H 0.89126 0.72245 0.62911 0.0
H1244 H 0.98873 0.83343 0.60367 0.0
H1245 H 0.93507 0.73839 0.68664 0.0
H1246 H 0.93021 0.7583 0.61726 0.0
H1247 H 0.00687 0.79684 0.66239 0.0
C1248 C 0.02351 0.82798 0.64333 0.0
C1249 C 0.01858 0.83896 0.62693 0.0
C1250 C 0.9314 0.75394 0.63246 0.0
C1251 C 0.97767 0.79238 0.63878 0.0
C1252 C 0.90912 0.73338 0.6393 0.0
C1253 C 0.90969 0.72749 0.65905 0.0
C1254 C 0.95468 0.76887 0.64536 0.0
C1255 C 0.93363 0.74234 0.67136 0.0
C1256 C 1.00302 0.80475 0.6494 0.0
C1257 C 0.99325 0.82561 0.61644 0.0
N1258 N 0.95518 0.76247 0.66434 0.0
N1259 N 0.97376 0.80308 0.62255 0.0
H1260 H 0.17045 0.19792 0.64429 0.0
H1261 H 0.2802 0.15714 0.62557 0.0
H1262 H 0.16282 0.14292 0.59625 0.0
H1263 H 0.27747 0.19323 0.68192 0.0
H1264 H 0.24166 0.15919 0.61215 0.0
H1265 H 0.21421 0.20389 0.65563 0.0
C1266 C 0.17826 0.18752 0.63594 0.0
C1267 C 0.16307 0.16983 0.61939 0.0
C1268 C 0.24955 0.16679 0.62743 0.0
C1269 C 0.21274 0.1764 0.63222 0.0
C1270 C 0.27163 0.16567 0.63514 0.0
C1271 C 0.28201 0.1748 0.65502 0.0
C1272 C 0.2377 0.17724 0.63959 0.0
C1273 C 0.27003 0.18576 0.66657 0.0
C1274 C 0.20306 0.19075 0.64248 0.0
C1275 C 0.17388 0.15661 0.60916 0.0
N1276 N 0.24843 0.18659 0.65871 0.0
N1277 N 0.19799 0.1601 0.61577 0.0
H1278 H 0.86268 0.99754 0.67113 0.0
H1279 H 0.8319 0.10056 0.62461 0.0
H1280 H 0.83182 0.98674 0.60988 0.0
H1281 H 0.83273 0.09136 0.68735 0.0
H1282 H 0.83297 0.05987 0.61836 0.0
H1283 H 0.8535 0.03334 0.67707 0.0
C1284 C 0.85389 0.00273 0.65896 0.0
C1285 C 0.84812 0.98939 0.63998 0.0
C1286 C 0.83257 0.06664 0.63345 0.0
C1287 C 0.83772 0.03032 0.64658 0.0
C1288 C 0.83201 0.08986 0.63704 0.0
C1289 C 0.8324 0.09947 0.65655 0.0
C1290 C 0.83398 0.05324 0.64951 0.0
C1291 C 0.83246 0.08475 0.67207 0.0
C1292 C 0.84851 0.02302 0.66236 0.0
C1293 C 0.8365 0.99661 0.62473 0.0
N1294 N 0.8336 0.06256 0.66824 0.0
N1295 N 0.83196 0.01687 0.62829 0.0
H1296 H 0.53512 0.34646 0.68504 0.0
H1297 H 0.40585 0.23734 0.72761 0.0
H1298 H 0.51985 0.35405 0.74581 0.0
H1299 H 0.4106 0.24838 0.66524 0.0
H1300 H 0.44773 0.27908 0.73516 0.0
H1301 H 0.48983 0.30932 0.67782 0.0
C1302 C 0.52208 0.34031 0.69683 0.0
C1303 C 0.53114 0.35316 0.71604 0.0
C1304 C 0.43937 0.27246 0.71986 0.0
C1305 C 0.47944 0.31055 0.708 0.0
C1306 C 0.41552 0.24863 0.71553 0.0
C1307 C 0.40475 0.23925 0.69575 0.0
C1308 C 0.45272 0.28674 0.70428 0.0
C1309 C 0.41813 0.25475 0.6807 0.0
C1310 C 0.49624 0.31922 0.69271 0.0
C1311 C 0.51349 0.34462 0.73079 0.0
N1312 N 0.44153 0.27754 0.68527 0.0
N1313 N 0.48851 0.32358 0.72653 0.0
H1314 H 0.64197 0.13945 0.70362 0.0
H1315 H 0.79298 0.17243 0.72334 0.0
H1316 H 0.693 0.1798 0.75745 0.0
H1317 H 0.7506 0.14858 0.66472 0.0
H1318 H 0.75349 0.16804 0.73692 0.0
H1319 H 0.67832 0.13529 0.6902 0.0
C1320 C 0.66062 0.14685 0.71275 0.0
C1321 C 0.66459 0.1599 0.73166 0.0
C1322 C 0.7527 0.16367 0.72108 0.0
C1323 C 0.7061 0.15554 0.71646 0.0
C1324 C 0.77534 0.16619 0.71324 0.0
C1325 C 0.77534 0.16115 0.69273 0.0
C1326 C 0.7296 0.15602 0.70844 0.0
C1327 C 0.75161 0.15284 0.68058 0.0
C1328 C 0.68139 0.14472 0.70505 0.0
C1329 C 0.68919 0.16956 0.74282 0.0
N1330 N 0.72971 0.15067 0.6886 0.0
N1331 N 0.70898 0.16726 0.73504 0.0
H1332 H 0.81965 0.47498 0.67706 0.0
H1333 H 0.8565 0.61718 0.72232 0.0
H1334 H 0.85428 0.50504 0.73734 0.0
H1335 H 0.84486 0.59451 0.65926 0.0
H1336 H 0.85568 0.57641 0.72837 0.0
H1337 H 0.82826 0.51862 0.67036 0.0
C1338 C 0.82915 0.49085 0.68886 0.0
C1339 C 0.8361 0.48644 0.70781 0.0
C1340 C 0.85361 0.58051 0.71321 0.0
C1341 C 0.84595 0.53635 0.70031 0.0
C1342 C 0.85402 0.60376 0.70973 0.0
C1343 C 0.85057 0.6092 0.69024 0.0
C1344 C 0.84934 0.56241 0.69711 0.0
C1345 C 0.84757 0.59114 0.67452 0.0
C1346 C 0.8342 0.51576 0.68501 0.0
C1347 C 0.84867 0.5077 0.72252 0.0
N1348 N 0.84671 0.56841 0.67831 0.0
N1349 N 0.85293 0.53172 0.71853 0.0
H1350 H 0.39902 0.90804 0.2147 0.0
H1351 H 0.52775 -0.00063 0.15981 0.0
H1352 H 0.47888 0.93032 0.23763 0.0
H1353 H 0.44698 0.9708 0.13528 0.0
H1354 H 0.51075 0.97643 0.18927 0.0
H1355 H 0.41674 0.93318 0.1865 0.0
C1356 C 0.42034 0.91847 0.21394 0.0
C1357 C 0.43747 0.91713 0.22868 0.0
C1358 C 0.49676 0.9752 0.17744 0.0
C1359 C 0.45796 0.94577 0.19608 0.0
C1360 C 0.50645 0.98842 0.16066 0.0
C1361 C 0.48879 0.98698 0.14496 0.0
C1362 C 0.46917 0.96051 0.17865 0.0
C1363 C 0.46137 0.9722 0.14683 0.0
C1364 C 0.43045 0.93268 0.19771 0.0
C1365 C 0.46489 0.93063 0.22658 0.0
N1366 N 0.45245 0.9596 0.16332 0.0
N1367 N 0.47428 0.94438 0.21061 0.0
H1368 H 0.14166 0.57346 0.2295 0.0
H1369 H 0.00712 0.47873 0.15975 0.0
H1370 H 0.07725 0.50211 0.24727 0.0
H1371 H 0.07171 0.54995 0.14196 0.0
H1372 H 0.03164 0.48795 0.19242 0.0
H1373 H 0.11546 0.56624 0.19794 0.0
C1374 C 0.1219 0.55641 0.22686 0.0
C1375 C 0.11167 0.53833 0.24106 0.0
C1376 C 0.04043 0.5016 0.18139 0.0
C1377 C 0.08167 0.52975 0.20479 0.0
C1378 C 0.02637 0.49642 0.16276 0.0
C1379 C 0.03739 0.51355 0.14804 0.0
C1380 C 0.06574 0.5241 0.18539 0.0
C1381 C 0.0626 0.53598 0.15273 0.0
C1382 C 0.10701 0.5522 0.20876 0.0
C1383 C 0.08608 0.51636 0.23665 0.0
N1384 N 0.07591 0.54058 0.17096 0.0
N1385 N 0.072 0.51267 0.2189 0.0
H1386 H 0.43453 0.54861 0.21364 0.0
H1387 H 0.53189 0.51423 0.15683 0.0
H1388 H 0.50363 0.55074 0.24247 0.0
H1389 H 0.471 0.52486 0.12689 0.0
H1390 H 0.51752 0.52097 0.18868 0.0
H1391 H 0.443 0.53275 0.18228 0.0
C1392 C 0.4512 0.54527 0.21346 0.0
C1393 C 0.46851 0.55118 0.23069 0.0
C1394 C 0.50718 0.52165 0.17514 0.0
C1395 C 0.47852 0.53336 0.19478 0.0
C1396 C 0.51546 0.51792 0.15691 0.0
C1397 C 0.50288 0.51927 0.13907 0.0
C1398 C 0.48609 0.52674 0.17562 0.0
C1399 C 0.48124 0.52348 0.14019 0.0
C1400 C 0.45615 0.53643 0.19551 0.0
C1401 C 0.48999 0.54677 0.2295 0.0
N1402 N 0.47368 0.52726 0.15813 0.0
N1403 N 0.49447 0.53829 0.21185 0.0
H1404 H 0.87882 0.4426 0.79391 0.0
H1405 H 0.01742 0.50121 0.86101 0.0
H1406 H 0.95083 0.45362 0.77082 0.0
H1407 H 0.94117 0.46845 0.88477 0.0
H1408 H 0.99466 0.49043 0.82752 0.0
H1409 H 0.90308 0.4597 0.82693 0.0
C1410 C 0.89985 0.44907 0.79574 0.0
C1411 C 0.91284 0.44661 0.77966 0.0
C1412 C 0.98297 0.48571 0.8401 0.0
C1413 C 0.94059 0.46585 0.81738 0.0
C1414 C 0.99591 0.49168 0.85924 0.0
C1415 C 0.98124 0.4856 0.87584 0.0
C1416 C 0.95514 0.47376 0.83748 0.0
C1417 C 0.95342 0.47383 0.87253 0.0
C1418 C 0.91362 0.45858 0.81461 0.0
C1419 C 0.94004 0.45496 0.7829 0.0
N1420 N 0.94131 0.46827 0.85375 0.0
N1421 N 0.95301 0.46413 0.80141 0.0
H1422 H 0.57889 0.51055 0.77479 0.0
H1423 H 0.53318 0.46008 0.88081 0.0
H1424 H 0.58535 0.44776 0.79904 0.0
H1425 H 0.52521 0.5223 0.857 0.0
H1426 H 0.55249 0.45559 0.85088 0.0
H1427 H 0.55955 0.5156 0.80473 0.0
C1428 C 0.57635 0.4979 0.78643 0.0
C1429 C 0.58367 0.47862 0.78432 0.0
C1430 C 0.54651 0.47022 0.85216 0.0
C1431 C 0.56137 0.48417 0.81858 0.0
C1432 C 0.53559 0.4729 0.86933 0.0
C1433 C 0.5276 0.49166 0.87151 0.0
C1434 C 0.54957 0.48645 0.83697 0.0
C1435 C 0.53081 0.50738 0.85591 0.0
C1436 C 0.56517 0.50069 0.80347 0.0
C1437 C 0.57962 0.4626 0.79982 0.0
N1438 N 0.5416 0.50447 0.83934 0.0
N1439 N 0.56879 0.46574 0.81624 0.0
H1440 H 0.50165 0.0571 0.77885 0.0
H1441 H 0.54592 0.06159 0.89385 0.0
H1442 H 0.57404 0.12043 0.81004 0.0
H1443 H 0.47419 0.99771 0.86231 0.0
H1444 H 0.55705 0.08297 0.86319 0.0
H1445 H 0.49205 0.03438 0.80897 0.0
C1446 C 0.5156 0.06619 0.79202 0.0
C1447 C 0.53866 0.09078 0.79188 0.0
C1448 C 0.5389 0.06425 0.86295 0.0
C1449 C 0.52777 0.06482 0.82654 0.0
C1450 C 0.53241 0.0521 0.88052 0.0
C1451 C 0.50899 0.0278 0.88075 0.0
C1452 C 0.52185 0.05212 0.84541 0.0
C1453 C 0.49257 0.01627 0.86286 0.0
C1454 C 0.51012 0.05317 0.80922 0.0
C1455 C 0.55616 0.10141 0.80935 0.0
N1456 N 0.49926 0.02856 0.84597 0.0
N1457 N 0.55027 0.08847 0.82597 0.0
H1458 H 0.1025 0.27558 0.57468 0.0
H1459 H 0.15025 0.277 0.46584 0.0
H1460 H 0.10756 0.21184 0.54509 0.0
H1461 H 0.14636 0.34173 0.49487 0.0
H1462 H 0.13462 0.25303 0.49489 0.0
H1463 H 0.1185 0.30028 0.5458 0.0
C1464 C 0.10694 0.26675 0.56212 0.0
C1465 C 0.10378 0.2416 0.56241 0.0
C1466 C 0.13717 0.27248 0.49495 0.0
C1467 C 0.12222 0.26984 0.5293 0.0
C1468 C 0.14596 0.28615 0.47828 0.0
C1469 C 0.14955 0.31144 0.47781 0.0
C1470 C 0.13184 0.28407 0.51139 0.0
C1471 C 0.14414 0.32241 0.4946 0.0
C1472 C 0.11618 0.28092 0.54567 0.0
C1473 C 0.1101 0.2313 0.54575 0.0
N1474 N 0.1355 0.30866 0.51066 0.0
N1475 N 0.11894 0.24541 0.52992 0.0
H1476 H 0.75972 0.89276 0.5787 0.0
H1477 H 0.71186 0.8138 0.47053 0.0
H1478 H 0.77633 0.83214 0.55893 0.0
H1479 H 0.68862 0.86937 0.4907 0.0
H1480 H 0.73598 0.82092 0.50297 0.0
H1481 H 0.73402 0.88525 0.54664 0.0
C1482 C 0.75796 0.87789 0.56763 0.0
C1483 C 0.77007 0.86296 0.57154 0.0
C1484 C 0.72558 0.83155 0.50036 0.0
C1485 C 0.74074 0.85425 0.53493 0.0
C1486 C 0.71192 0.82759 0.48179 0.0
C1487 C 0.69832 0.84112 0.47786 0.0
C1488 C 0.72581 0.84927 0.51519 0.0
C1489 C 0.69869 0.8584 0.49314 0.0
C1490 C 0.74321 0.87353 0.54939 0.0
C1491 C 0.76699 0.84383 0.55671 0.0
N1492 N 0.71233 0.86209 0.51112 0.0
N1493 N 0.75272 0.84009 0.5391 0.0
H1494 H 0.17724 0.88707 0.577 0.0
H1495 H 0.12836 0.84431 0.46116 0.0
H1496 H 0.10503 0.88022 0.54959 0.0
H1497 H 0.20663 0.86521 0.48721 0.0
H1498 H 0.11671 0.85139 0.49412 0.0
H1499 H 0.18518 0.87249 0.54497 0.0
C1500 C 0.16293 0.88231 0.56429 0.0
C1501 C 0.14056 0.88516 0.566 0.0
C1502 C 0.13638 0.85427 0.49261 0.0
C1503 C 0.14952 0.86835 0.52922 0.0
C1504 C 0.14313 0.85038 0.47377 0.0
C1505 C 0.16863 0.85432 0.47128 0.0
C1506 C 0.15521 0.8621 0.50918 0.0
C1507 C 0.18666 0.86163 0.48832 0.0
C1508 C 0.16747 0.87395 0.546 0.0
C1509 C 0.12245 0.87818 0.54906 0.0
N1510 N 0.17964 0.86539 0.50648 0.0
N1511 N 0.12744 0.87032 0.53137 0.0
H1512 H 0.60789 0.77447 0.1024 0.0
H1513 H 0.60969 0.8145 0.21751 0.0
H1514 H 0.54258 0.77673 0.12759 0.0
H1515 H 0.67285 0.80761 0.19275 0.0
H1516 H 0.58602 0.80348 0.18436 0.0
H1517 H 0.63342 0.78994 0.13497 0.0
C1518 C 0.59896 0.77834 0.11479 0.0
C1519 C 0.57298 0.77412 0.1123 0.0
C1520 C 0.60508 0.80444 0.18616 0.0
C1521 C 0.60212 0.79189 0.14965 0.0
C1522 C 0.61854 0.81055 0.20512 0.0
C1523 C 0.64324 0.81183 0.20796 0.0
C1524 C 0.61637 0.79954 0.16988 0.0
C1525 C 0.65397 0.80707 0.19126 0.0
C1526 C 0.61357 0.78722 0.13337 0.0
C1527 C 0.56259 0.77987 0.12879 0.0
N1528 N 0.64044 0.80105 0.17297 0.0
N1529 N 0.57713 0.78828 0.14679 0.0
H1530 H 0.25268 0.8476 0.11044 0.0
H1531 H 0.1953 0.79256 0.21286 0.0
H1532 H 0.25005 0.77946 0.13273 0.0
H1533 H 0.19505 0.85927 0.19026 0.0
H1534 H 0.21592 0.78798 0.18371 0.0
H1535 H 0.23242 0.8529 0.13974 0.0
C1536 C 0.24797 0.83383 0.12153 0.0
C1537 C 0.25298 0.81298 0.11904 0.0
C1538 C 0.21135 0.80362 0.18509 0.0
C1539 C 0.2296 0.81881 0.15257 0.0
C1540 C 0.19968 0.80633 0.2018 0.0
C1541 C 0.19347 0.82639 0.20409 0.0
C1542 C 0.21698 0.82112 0.17047 0.0
C1543 C 0.19921 0.84335 0.18905 0.0
C1544 C 0.23626 0.83678 0.1382 0.0
C1545 C 0.24619 0.79558 0.13383 0.0
N1546 N 0.2107 0.84038 0.17293 0.0
N1547 N 0.23488 0.7989 0.14991 0.0
H1548 H 0.18068 0.44669 0.13874 0.0
H1549 H 0.19653 0.34477 0.20312 0.0
H1550 H 0.22501 0.40949 0.12132 0.0
H1551 H 0.15829 0.38772 0.22193 0.0
H1552 H 0.20668 0.36748 0.17293 0.0
H1553 H 0.17202 0.42469 0.16908 0.0
C1554 C 0.18847 0.43374 0.14124 0.0
C1555 C 0.20335 0.42971 0.1273 0.0
C1556 C 0.19612 0.37197 0.18369 0.0
C1557 C 0.19369 0.40453 0.16231 0.0
C1558 C 0.19016 0.35889 0.20089 0.0
C1559 C 0.17646 0.36427 0.21514 0.0
C1560 C 0.18824 0.39052 0.1806 0.0
C1561 C 0.16912 0.38309 0.21152 0.0
C1562 C 0.18366 0.42129 0.15866 0.0
C1563 C 0.21348 0.41319 0.13164 0.0
N1564 N 0.17501 0.39542 0.19463 0.0
N1565 N 0.20834 0.40109 0.1487 0.0
H1566 H 0.81681 0.59436 0.90484 0.0
H1567 H 0.78789 0.65176 0.80815 0.0
H1568 H 0.73896 0.58049 0.88406 0.0
H1569 H 0.8609 0.65115 0.82144 0.0
H1570 H 0.77113 0.62955 0.83787 0.0
H1571 H 0.83463 0.61874 0.87618 0.0
C1572 C 0.80342 0.59639 0.8943 0.0
C1573 C 0.77625 0.58524 0.89699 0.0
C1574 C 0.79084 0.6343 0.83431 0.0
C1575 C 0.79673 0.61353 0.86419 0.0
C1576 C 0.80049 0.64714 0.81741 0.0
C1577 C 0.82586 0.65334 0.81226 0.0
C1578 C 0.8067 0.62774 0.84633 0.0
C1579 C 0.84113 0.64651 0.8247 0.0
C1580 C 0.81367 0.61042 0.87796 0.0
C1581 C 0.76008 0.58902 0.88291 0.0
N1582 N 0.83135 0.63414 0.84116 0.0
N1583 N 0.77054 0.60278 0.86718 0.0
H1584 H 0.46744 0.23386 0.90012 0.0
H1585 H 0.33309 0.1471 0.82834 0.0
H1586 H 0.39625 0.1696 0.91864 0.0
H1587 H 0.40332 0.21323 0.81049 0.0
H1588 H 0.35521 0.15624 0.8619 0.0
H1589 H 0.44357 0.22803 0.86773 0.0
C1590 C 0.44668 0.21873 0.89748 0.0
C1591 C 0.43387 0.20213 0.91213 0.0
C1592 C 0.36576 0.16882 0.85066 0.0
C1593 C 0.40651 0.19504 0.8749 0.0
C1594 C 0.35308 0.16369 0.8315 0.0
C1595 C 0.36638 0.17937 0.81651 0.0
C1596 C 0.39198 0.18977 0.85493 0.0
C1597 C 0.39244 0.20035 0.82146 0.0
C1598 C 0.43311 0.21528 0.87891 0.0
C1599 C 0.40705 0.18259 0.9077 0.0
N1600 N 0.40439 0.20489 0.84021 0.0
N1601 N 0.39431 0.17952 0.88947 0.0
H1602 H 0.7732 0.21752 0.88058 0.0
H1603 H 0.87716 0.19429 0.8232 0.0
H1604 H 0.84337 0.22191 0.90968 0.0
H1605 H 0.80487 0.18573 0.79435 0.0
H1606 H 0.86393 0.20227 0.85519 0.0
H1607 H 0.78283 0.203 0.84925 0.0
C1608 C 0.79037 0.21497 0.88048 0.0
C1609 C 0.80757 0.2211 0.89782 0.0
C1610 C 0.8509 0.19856 0.84188 0.0
C1611 C 0.81906 0.20503 0.86181 0.0
C1612 C 0.8584 0.19389 0.82357 0.0
C1613 C 0.84217 0.18939 0.80597 0.0
C1614 C 0.82698 0.19882 0.84268 0.0
C1615 C 0.81826 0.18953 0.80745 0.0
C1616 C 0.796 0.20691 0.86251 0.0
C1617 C 0.82976 0.21781 0.89665 0.0
N1618 N 0.81144 0.19422 0.82544 0.0
N1619 N 0.83496 0.2102 0.87896 0.0
H1620 H 0.27639 0.10816 0.43881 0.0
H1621 H 0.27961 0.1455 0.5547 0.0
H1622 H 0.21087 0.10816 0.46549 0.0
H1623 H 0.34304 0.14053 0.52861 0.0
H1624 H 0.25529 0.13459 0.52181 0.0
H1625 H 0.30247 0.12329 0.47119 0.0
C1626 C 0.26753 0.11145 0.45148 0.0
C1627 C 0.24134 0.10673 0.44945 0.0
C1628 C 0.27455 0.13594 0.52327 0.0
C1629 C 0.27111 0.12411 0.48658 0.0
C1630 C 0.28838 0.14198 0.54207 0.0
C1631 C 0.31336 0.14376 0.54446 0.0
C1632 C 0.28573 0.13162 0.50668 0.0
C1633 C 0.32396 0.13957 0.52747 0.0
C1634 C 0.28245 0.12014 0.46995 0.0
C1635 C 0.23104 0.11174 0.46631 0.0
N1636 N 0.31006 0.13361 0.50932 0.0
N1637 N 0.24588 0.11999 0.48418 0.0
H1638 H 0.9206 0.11502 0.46735 0.0
H1639 H 0.85619 0.19075 0.5214 0.0
H1640 H 0.9164 0.17888 0.44299 0.0
H1641 H 0.87769 0.13974 0.55033 0.0
H1642 H 0.87568 0.18507 0.49184 0.0
H1643 H 0.90205 0.12187 0.497 0.0
C1644 C 0.91566 0.13043 0.46821 0.0
C1645 C 0.91993 0.14631 0.45262 0.0
C1646 C 0.87613 0.17515 0.50468 0.0
C1647 C 0.89874 0.15437 0.48664 0.0
C1648 C 0.8651 0.17847 0.52164 0.0
C1649 C 0.86516 0.16566 0.53849 0.0
C1650 C 0.88719 0.15878 0.50446 0.0
C1651 C 0.87665 0.14964 0.53766 0.0
C1652 C 0.90521 0.13444 0.48521 0.0
C1653 C 0.91356 0.16627 0.45471 0.0
N1654 N 0.8871 0.14662 0.52096 0.0
N1655 N 0.90314 0.16965 0.47135 0.0
H1656 H 0.84159 0.77547 0.47019 0.0
H1657 H 0.86063 0.67589 0.53526 0.0
H1658 H 0.8895 0.74182 0.45379 0.0
H1659 H 0.82067 0.71732 0.55357 0.0
H1660 H 0.87055 0.69855 0.50502 0.0
H1661 H 0.83301 0.7532 0.50035 0.0
C1662 C 0.85017 0.76321 0.47286 0.0
C1663 C 0.86604 0.76028 0.45925 0.0
C1664 C 0.85967 0.70271 0.51568 0.0
C1665 C 0.85648 0.7348 0.49413 0.0
C1666 C 0.85383 0.68966 0.53291 0.0
C1667 C 0.83973 0.69464 0.54704 0.0
C1668 C 0.8512 0.7208 0.51243 0.0
C1669 C 0.83182 0.71301 0.54326 0.0
C1670 C 0.8454 0.75061 0.4902 0.0
C1671 C 0.87715 0.74464 0.46384 0.0
N1672 N 0.83757 0.7253 0.52635 0.0
N1673 N 0.87204 0.73236 0.48083 0.0
loop_
_geom_bond_atom_site_label_1
_geom_bond_atom_site_label_2
_geom_bond_distance
_geom_bond_site_symmetry_2
_ccdc_geom_bond_type
H0 C1 0.949 . S
C1 H0 0.949 . S
C1 C2 1.395 . S
C1 C3 1.391 . S
C2 C1 1.395 . S
C2 C5 1.390 . S
C3 C1 1.391 . S
C3 C7 1.387 . S
C3 C8 1.491 . S
H4 C5 0.950 . S
C5 C2 1.390 . S
C5 H4 0.950 . S
C5 C6 1.378 . S
C6 C5 1.378 . S
C6 C7 1.409 . S
C7 C3 1.387 . S
C7 C6 1.409 . S
C7 H9 0.951 . S
C8 C3 1.491 . S
C8 C10 1.382 . S
C8 C12 1.404 . S
H9 C7 0.951 . S
C10 C8 1.382 . S
C10 C11 1.390 . S
C10 H15 0.949 . S
C11 C10 1.390 . S
C11 C16 1.399 . S
C12 C8 1.404 . S
C12 H13 0.950 . S
C12 C14 1.375 . S
H13 C12 0.950 . S
C14 C12 1.375 . S
C14 C16 1.382 . S
C14 H18 0.950 . S
H15 C10 0.949 . S
C16 C11 1.399 . S
C16 C14 1.382 . S
C16 H17 0.952 . S
H17 C16 0.952 . S
H18 C14 0.950 . S
H19 C20 0.949 . S
C20 H19 0.949 . S
C20 C21 1.395 . S
C20 C22 1.391 . S
C21 C20 1.395 . S
C21 C24 1.390 . S
C22 C20 1.391 . S
C22 C26 1.387 . S
C22 C27 1.491 . S
H23 C24 0.950 . S
C24 C21 1.390 . S
C24 H23 0.950 . S
C24 C25 1.378 . S
C25 C24 1.378 . S
C25 C26 1.409 . S
C26 C22 1.387 . S
C26 C25 1.409 . S
C26 H28 0.951 . S
C27 C22 1.491 . S
C27 C29 1.382 . S
C27 C31 1.404 . S
H28 C26 0.951 . S
C29 C27 1.382 . S
C29 C30 1.390 . S
C29 H34 0.949 . S
C30 C29 1.390 . S
C30 C35 1.399 . S
C31 C27 1.404 . S
C31 H32 0.950 . S
C31 C33 1.375 . S
H32 C31 0.950 . S
C33 C31 1.375 . S
C33 C35 1.382 . S
C33 H37 0.950 . S
H34 C29 0.949 . S
C35 C30 1.399 . S
C35 C33 1.382 . S
C35 H36 0.952 . S
H36 C35 0.952 . S
H37 C33 0.950 . S
H38 C39 0.949 . S
C39 H38 0.949 . S
C39 C40 1.395 . S
C39 C41 1.391 . S
C40 C39 1.395 . S
C40 C43 1.390 . S
C41 C39 1.391 . S
C41 C45 1.387 . S
C41 C46 1.491 . S
H42 C43 0.950 . S
C43 C40 1.390 . S
C43 H42 0.950 . S
C43 C44 1.378 . S
C44 C43 1.378 . S
C44 C45 1.409 . S
C45 C41 1.387 . S
C45 C44 1.409 . S
C45 H47 0.951 . S
C46 C41 1.491 . S
C46 C48 1.382 . S
C46 C50 1.404 . S
H47 C45 0.951 . S
C48 C46 1.382 . S
C48 C49 1.390 . S
C48 H53 0.949 . S
C49 C48 1.390 . S
C49 C54 1.399 . S
C50 C46 1.404 . S
C50 H51 0.950 . S
C50 C52 1.375 . S
H51 C50 0.950 . S
C52 C50 1.375 . S
C52 C54 1.382 . S
C52 H56 0.950 . S
H53 C48 0.949 . S
C54 C49 1.399 . S
C54 C52 1.382 . S
C54 H55 0.952 1_655 S
H55 C54 0.952 1_455 S
H56 C52 0.950 . S
H57 C58 0.949 . S
C58 H57 0.949 . S
C58 C59 1.395 . S
C58 C60 1.391 . S
C59 C58 1.395 . S
C59 C62 1.390 . S
C60 C58 1.391 . S
C60 C64 1.387 . S
C60 C65 1.491 . S
H61 C62 0.950 . S
C62 C59 1.390 . S
C62 H61 0.950 . S
C62 C63 1.378 . S
C63 C62 1.378 . S
C63 C64 1.409 . S
C64 C60 1.387 . S
C64 C63 1.409 . S
C64 H66 0.951 . S
C65 C60 1.491 . S
C65 C67 1.382 . S
C65 C69 1.404 . S
H66 C64 0.951 . S
C67 C65 1.382 . S
C67 C68 1.390 . S
C67 H72 0.949 . S
C68 C67 1.390 . S
C68 C73 1.399 . S
C69 C65 1.404 . S
C69 H70 0.950 . S
C69 C71 1.375 . S
H70 C69 0.950 . S
C71 C69 1.375 . S
C71 C73 1.382 . S
C71 H75 0.950 . S
H72 C67 0.949 . S
C73 C68 1.399 . S
C73 C71 1.382 . S
C73 H74 0.952 . S
H74 C73 0.952 . S
H75 C71 0.950 . S
H76 C77 0.949 . S
C77 H76 0.949 . S
C77 C78 1.395 . S
C77 C79 1.391 . S
C78 C77 1.395 . S
C78 C81 1.390 . S
C79 C77 1.391 . S
C79 C83 1.387 . S
C79 C84 1.491 . S
H80 C81 0.950 . S
C81 C78 1.390 . S
C81 H80 0.950 . S
C81 C82 1.378 . S
C82 C81 1.378 . S
C82 C83 1.409 . S
C83 C79 1.387 . S
C83 C82 1.409 . S
C83 H85 0.951 . S
C84 C79 1.491 . S
C84 C86 1.382 . S
C84 C88 1.404 . S
H85 C83 0.951 . S
C86 C84 1.382 . S
C86 C87 1.390 . S
C86 H91 0.949 . S
C87 C86 1.390 . S
C87 C92 1.399 . S
C88 C84 1.404 . S
C88 H89 0.950 . S
C88 C90 1.375 . S
H89 C88 0.950 . S
C90 C88 1.375 . S
C90 C92 1.382 . S
C90 H94 0.950 . S
H91 C86 0.949 . S
C92 C87 1.399 . S
C92 C90 1.382 . S
C92 H93 0.952 . S
H93 C92 0.952 . S
H94 C90 0.950 . S
H95 C96 0.949 . S
C96 H95 0.949 . S
C96 C97 1.395 . S
C96 C98 1.391 . S
C97 C96 1.395 . S
C97 C100 1.390 . S
C98 C96 1.391 . S
C98 C102 1.387 . S
C98 C103 1.491 . S
H99 C100 0.950 . S
C100 C97 1.390 . S
C100 H99 0.950 . S
C100 C101 1.378 . S
C101 C100 1.378 . S
C101 C102 1.409 . S
C102 C98 1.387 . S
C102 C101 1.409 . S
C102 H104 0.951 . S
C103 C98 1.491 . S
C103 C105 1.382 . S
C103 C107 1.404 . S
H104 C102 0.951 . S
C105 C103 1.382 . S
C105 C106 1.390 . S
C105 H110 0.949 . S
C106 C105 1.390 . S
C106 C111 1.399 . S
C107 C103 1.404 . S
C107 H108 0.950 . S
C107 C109 1.375 . S
H108 C107 0.950 . S
C109 C107 1.375 . S
C109 C111 1.382 . S
C109 H113 0.950 . S
H110 C105 0.949 . S
C111 C106 1.399 . S
C111 C109 1.382 . S
C111 H112 0.952 . S
H112 C111 0.952 . S
H113 C109 0.950 . S
H114 C115 0.949 . S
C115 H114 0.949 . S
C115 C116 1.395 . S
C115 C117 1.391 . S
C116 C115 1.395 . S
C116 C119 1.390 . S
C117 C115 1.391 . S
C117 C121 1.387 . S
C117 C122 1.491 . S
H118 C119 0.950 . S
C119 C116 1.390 . S
C119 H118 0.950 . S
C119 C120 1.378 . S
C120 C119 1.378 . S
C120 C121 1.409 . S
C121 C117 1.387 . S
C121 C120 1.409 . S
C121 H123 0.951 . S
C122 C117 1.491 . S
C122 C124 1.382 . S
C122 C126 1.404 . S
H123 C121 0.951 . S
C124 C122 1.382 . S
C124 C125 1.390 . S
C124 H129 0.949 . S
C125 C124 1.390 . S
C125 C130 1.399 . S
C126 C122 1.404 . S
C126 H127 0.950 . S
C126 C128 1.375 . S
H127 C126 0.950 . S
C128 C126 1.375 . S
C128 C130 1.382 . S
C128 H132 0.950 . S
H129 C124 0.949 . S
C130 C125 1.399 . S
C130 C128 1.382 . S
C130 H131 0.952 . S
H131 C130 0.952 . S
H132 C128 0.950 . S
H133 C134 0.949 . S
C134 H133 0.949 . S
C134 C135 1.395 . S
C134 C136 1.391 . S
C135 C134 1.395 . S
C135 C138 1.390 . S
C136 C134 1.391 . S
C136 C140 1.387 . S
C136 C141 1.491 . S
H137 C138 0.950 . S
C138 C135 1.390 . S
C138 H137 0.950 . S
C138 C139 1.378 . S
C139 C138 1.378 . S
C139 C140 1.409 . S
C140 C136 1.387 . S
C140 C139 1.409 . S
C140 H142 0.951 . S
C141 C136 1.491 . S
C141 C143 1.382 . S
C141 C145 1.404 . S
H142 C140 0.951 . S
C143 C141 1.382 . S
C143 C144 1.390 . S
C143 H148 0.949 . S
C144 C143 1.390 . S
C144 C149 1.399 . S
C145 C141 1.404 . S
C145 H146 0.950 . S
C145 C147 1.375 . S
H146 C145 0.950 . S
C147 C145 1.375 . S
C147 C149 1.382 . S
C147 H151 0.950 . S
H148 C143 0.949 . S
C149 C144 1.399 . S
C149 C147 1.382 . S
C149 H150 0.952 . S
H150 C149 0.952 . S
H151 C147 0.950 . S
H152 C153 0.949 . S
C153 H152 0.949 . S
C153 C154 1.395 . S
C153 C155 1.391 . S
C154 C153 1.395 . S
C154 C157 1.390 . S
C155 C153 1.391 . S
C155 C159 1.387 . S
C155 C160 1.491 . S
H156 C157 0.950 . S
C157 C154 1.390 . S
C157 H156 0.950 . S
C157 C158 1.378 . S
C158 C157 1.378 . S
C158 C159 1.409 . S
C159 C155 1.387 . S
C159 C158 1.409 . S
C159 H161 0.951 . S
C160 C155 1.491 . S
C160 C162 1.382 . S
C160 C164 1.404 . S
H161 C159 0.951 . S
C162 C160 1.382 . S
C162 C163 1.390 . S
C162 H167 0.949 . S
C163 C162 1.390 . S
C163 C168 1.399 . S
C164 C160 1.404 . S
C164 H165 0.950 . S
C164 C166 1.375 . S
H165 C164 0.950 . S
C166 C164 1.375 . S
C166 C168 1.382 . S
C166 H170 0.950 . S
H167 C162 0.949 . S
C168 C163 1.399 . S
C168 C166 1.382 . S
C168 H169 0.952 . S
H169 C168 0.952 . S
H170 C166 0.950 . S
H171 C172 0.949 . S
C172 H171 0.949 . S
C172 C173 1.395 . S
C172 C174 1.391 . S
C173 C172 1.395 . S
C173 C176 1.390 . S
C174 C172 1.391 . S
C174 C178 1.387 . S
C174 C179 1.491 . S
H175 C176 0.950 . S
C176 C173 1.390 . S
C176 H175 0.950 . S
C176 C177 1.378 . S
C177 C176 1.378 . S
C177 C178 1.409 . S
C178 C174 1.387 . S
C178 C177 1.409 . S
C178 H180 0.951 . S
C179 C174 1.491 . S
C179 C181 1.382 . S
C179 C183 1.404 . S
H180 C178 0.951 . S
C181 C179 1.382 . S
C181 C182 1.390 . S
C181 H186 0.949 . S
C182 C181 1.390 . S
C182 C187 1.399 . S
C183 C179 1.404 . S
C183 H184 0.950 . S
C183 C185 1.375 . S
H184 C183 0.950 . S
C185 C183 1.375 . S
C185 C187 1.382 . S
C185 H189 0.950 . S
H186 C181 0.949 . S
C187 C182 1.399 . S
C187 C185 1.382 . S
C187 H188 0.952 . S
H188 C187 0.952 . S
H189 C185 0.950 . S
H190 C191 0.949 . S
C191 H190 0.949 . S
C191 C192 1.395 . S
C191 C193 1.391 . S
C192 C191 1.395 . S
C192 C195 1.390 . S
C193 C191 1.391 . S
C193 C197 1.387 . S
C193 C198 1.491 . S
H194 C195 0.950 . S
C195 C192 1.390 . S
C195 H194 0.950 . S
C195 C196 1.378 . S
C196 C195 1.378 . S
C196 C197 1.409 . S
C197 C193 1.387 . S
C197 C196 1.409 . S
C197 H199 0.951 1_556 S
C198 C193 1.491 . S
C198 C200 1.382 . S
C198 C202 1.404 1_556 S
H199 C197 0.951 1_554 S
C200 C198 1.382 . S
C200 C201 1.390 1_556 S
C200 H205 0.949 . S
C201 C200 1.390 1_554 S
C201 C206 1.399 . S
C202 C198 1.404 1_554 S
C202 H203 0.950 . S
C202 C204 1.375 . S
H203 C202 0.950 . S
C204 C202 1.375 . S
C204 C206 1.382 . S
C204 H208 0.950 . S
H205 C200 0.949 . S
C206 C201 1.399 . S
C206 C204 1.382 . S
C206 H207 0.952 . S
H207 C206 0.952 . S
H208 C204 0.950 . S
H209 C210 0.949 . S
C210 H209 0.949 . S
C210 C211 1.395 . S
C210 C212 1.391 . S
C211 C210 1.395 . S
C211 C214 1.390 . S
C212 C210 1.391 . S
C212 C216 1.387 . S
C212 C217 1.491 . S
H213 C214 0.950 . S
C214 C211 1.390 . S
C214 H213 0.950 . S
C214 C215 1.378 . S
C215 C214 1.378 . S
C215 C216 1.409 . S
C216 C212 1.387 . S
C216 C215 1.409 . S
C216 H218 0.951 . S
C217 C212 1.491 . S
C217 C219 1.382 . S
C217 C221 1.404 . S
H218 C216 0.951 . S
C219 C217 1.382 . S
C219 C220 1.390 . S
C219 H224 0.949 . S
C220 C219 1.390 . S
C220 C225 1.399 . S
C221 C217 1.404 . S
C221 H222 0.950 . S
C221 C223 1.375 . S
H222 C221 0.950 . S
C223 C221 1.375 . S
C223 C225 1.382 . S
C223 H227 0.950 . S
H224 C219 0.949 . S
C225 C220 1.399 . S
C225 C223 1.382 . S
C225 H226 0.952 . S
H226 C225 0.952 . S
H227 C223 0.950 . S
H228 C229 0.949 . S
C229 H228 0.949 . S
C229 C230 1.395 . S
C229 C231 1.391 . S
C230 C229 1.395 . S
C230 C233 1.390 . S
C231 C229 1.391 . S
C231 C235 1.387 . S
C231 C236 1.491 . S
H232 C233 0.950 . S
C233 C230 1.390 . S
C233 H232 0.950 . S
C233 C234 1.378 . S
C234 C233 1.378 . S
C234 C235 1.409 . S
C235 C231 1.387 . S
C235 C234 1.409 . S
C235 H237 0.951 . S
C236 C231 1.491 . S
C236 C238 1.382 . S
C236 C240 1.404 . S
H237 C235 0.951 . S
C238 C236 1.382 . S
C238 C239 1.390 . S
C238 H243 0.949 . S
C239 C238 1.390 . S
C239 C244 1.399 . S
C240 C236 1.404 . S
C240 H241 0.950 . S
C240 C242 1.377 . S
H241 C240 0.950 . S
C242 C240 1.377 . S
C242 C244 1.382 . S
C242 H246 0.948 1_554 S
H243 C238 0.949 . S
C244 C239 1.399 . S
C244 C242 1.382 . S
C244 H245 0.952 1_554 S
H245 C244 0.952 1_556 S
H246 C242 0.948 1_556 S
H247 C248 0.949 . S
C248 H247 0.949 . S
C248 C249 1.395 . S
C248 C250 1.391 . S
C249 C248 1.395 . S
C249 C252 1.390 . S
C250 C248 1.391 . S
C250 C254 1.387 . S
C250 C255 1.491 . S
H251 C252 0.950 . S
C252 C249 1.390 . S
C252 H251 0.950 . S
C252 C253 1.378 . S
C253 C252 1.378 . S
C253 C254 1.409 . S
C254 C250 1.387 . S
C254 C253 1.409 . S
C254 H256 0.951 . S
C255 C250 1.491 . S
C255 C257 1.382 . S
C255 C259 1.404 . S
H256 C254 0.951 . S
C257 C255 1.382 . S
C257 C258 1.390 . S
C257 H262 0.949 . S
C258 C257 1.390 . S
C258 C263 1.399 . S
C259 C255 1.404 . S
C259 H260 0.950 . S
C259 C261 1.375 . S
H260 C259 0.950 . S
C261 C259 1.375 . S
C261 C263 1.382 . S
C261 H265 0.950 . S
H262 C257 0.949 . S
C263 C258 1.399 . S
C263 C261 1.382 . S
C263 H264 0.952 . S
H264 C263 0.952 . S
H265 C261 0.950 . S
H266 C267 0.949 . S
C267 H266 0.949 . S
C267 C268 1.395 . S
C267 C269 1.391 . S
C268 C267 1.395 . S
C268 C271 1.390 . S
C269 C267 1.391 . S
C269 C273 1.387 . S
C269 C274 1.491 . S
H270 C271 0.950 . S
C271 C268 1.390 . S
C271 H270 0.950 . S
C271 C272 1.378 . S
C272 C271 1.378 . S
C272 C273 1.409 . S
C273 C269 1.387 . S
C273 C272 1.409 . S
C273 H275 0.951 . S
C274 C269 1.491 . S
C274 C276 1.382 . S
C274 C278 1.404 . S
H275 C273 0.951 . S
C276 C274 1.382 . S
C276 C277 1.390 . S
C276 H281 0.949 . S
C277 C276 1.390 . S
C277 C282 1.399 . S
C278 C274 1.404 . S
C278 H279 0.950 . S
C278 C280 1.375 . S
H279 C278 0.950 . S
C280 C278 1.375 . S
C280 C282 1.382 . S
C280 H284 0.950 . S
H281 C276 0.949 . S
C282 C277 1.399 . S
C282 C280 1.382 . S
C282 H283 0.952 . S
H283 C282 0.952 . S
H284 C280 0.950 . S
H285 C286 0.949 . S
C286 H285 0.949 . S
C286 C287 1.395 . S
C286 C288 1.391 . S
C287 C286 1.395 . S
C287 C290 1.390 . S
C288 C286 1.391 . S
C288 C292 1.387 . S
C288 C293 1.491 . S
H289 C290 0.950 . S
C290 C287 1.390 . S
C290 H289 0.950 . S
C290 C291 1.378 . S
C291 C290 1.378 . S
C291 C292 1.409 . S
C292 C288 1.387 . S
C292 C291 1.409 . S
C292 H294 0.951 . S
C293 C288 1.491 . S
C293 C295 1.382 . S
C293 C297 1.404 . S
H294 C292 0.951 . S
C295 C293 1.382 . S
C295 C296 1.390 . S
C295 H300 0.949 . S
C296 C295 1.390 . S
C296 C301 1.399 . S
C297 C293 1.404 . S
C297 H298 0.950 . S
C297 C299 1.375 . S
H298 C297 0.950 . S
C299 C297 1.375 . S
C299 C301 1.382 . S
C299 H303 0.950 . S
H300 C295 0.949 . S
C301 C296 1.399 . S
C301 C299 1.382 . S
C301 H302 0.952 . S
H302 C301 0.952 . S
H303 C299 0.950 . S
H304 C305 0.949 . S
C305 H304 0.949 . S
C305 C306 1.395 . S
C305 C307 1.391 . S
C306 C305 1.395 . S
C306 C309 1.390 . S
C307 C305 1.391 . S
C307 C311 1.387 . S
C307 C312 1.491 . S
H308 C309 0.950 . S
C309 C306 1.390 . S
C309 H308 0.950 . S
C309 C310 1.378 . S
C310 C309 1.378 . S
C310 C311 1.409 . S
C311 C307 1.387 . S
C311 C310 1.409 . S
C311 H313 0.951 . S
C312 C307 1.491 . S
C312 C314 1.382 . S
C312 C316 1.404 . S
H313 C311 0.951 . S
C314 C312 1.382 . S
C314 C315 1.390 . S
C314 H319 0.949 . S
C315 C314 1.390 . S
C315 C320 1.399 . S
C316 C312 1.404 . S
C316 H317 0.950 . S
C316 C318 1.375 . S
H317 C316 0.950 . S
C318 C316 1.375 . S
C318 C320 1.382 . S
C318 H322 0.950 . S
H319 C314 0.949 . S
C320 C315 1.399 . S
C320 C318 1.382 . S
C320 H321 0.952 . S
H321 C320 0.952 . S
H322 C318 0.950 . S
H323 C324 0.949 . S
C324 H323 0.949 . S
C324 C325 1.395 . S
C324 C326 1.391 . S
C325 C324 1.395 . S
C325 C328 1.390 . S
C326 C324 1.391 . S
C326 C330 1.387 . S
C326 C331 1.491 . S
H327 C328 0.950 . S
C328 C325 1.390 . S
C328 H327 0.950 . S
C328 C329 1.378 . S
C329 C328 1.378 . S
C329 C330 1.409 . S
C330 C326 1.387 . S
C330 C329 1.409 . S
C330 H332 0.951 . S
C331 C326 1.491 . S
C331 C333 1.382 . S
C331 C335 1.404 . S
H332 C330 0.951 . S
C333 C331 1.382 . S
C333 C334 1.390 . S
C333 H338 0.949 . S
C334 C333 1.390 . S
C334 C339 1.399 . S
C335 C331 1.404 . S
C335 H336 0.950 . S
C335 C337 1.375 . S
H336 C335 0.950 . S
C337 C335 1.375 . S
C337 C339 1.382 . S
C337 H341 0.950 . S
H338 C333 0.949 . S
C339 C334 1.399 . S
C339 C337 1.382 . S
C339 H340 0.952 . S
H340 C339 0.952 . S
H341 C337 0.950 . S
Tb342 C352 2.825 1_565 S
Tb342 O353 2.347 1_565 S
Tb342 O356 2.366 1_565 S
Tb342 O361 2.418 . S
Tb342 O362 2.384 . S
Tb342 O365 2.479 . S
Tb342 O366 2.471 1_565 S
Eu343 O354 2.418 . S
Eu343 O355 2.384 . S
Eu343 O358 2.479 . S
Eu343 O359 2.471 1_545 S
Eu343 O360 2.347 1_545 S
Eu343 O363 2.366 1_545 S
Eu343 C373 2.812 1_545 S
C344 O360 1.276 . S
C344 O361 1.232 1_554 S
C345 O362 1.255 1_554 S
C345 O363 1.265 . S
C346 C348 1.380 . S
C346 C349 1.374 . S
C346 C352 1.507 . S
C347 C348 1.384 . S
C347 C351 1.387 . S
C347 H374 0.930 . S
C348 C346 1.380 . S
C348 C347 1.384 . S
C348 H375 0.931 1_545 S
C349 C346 1.374 . S
C349 C350 1.390 . S
C349 H376 0.930 . S
C350 C349 1.390 . S
C350 C351 1.391 . S
C350 H377 0.930 . S
C351 C347 1.387 . S
C351 C350 1.391 . S
C352 Tb342 2.825 1_545 S
C352 C346 1.507 . S
C352 O365 1.238 1_545 S
C352 O366 1.247 . S
O353 Tb342 2.347 1_545 S
O353 C357 1.259 1_556 S
O354 Eu343 2.418 . S
O354 C357 1.265 . S
O355 Eu343 2.384 . S
O355 C364 1.255 1_554 S
O356 Tb342 2.366 1_545 S
O356 C364 1.265 . S
C357 O353 1.259 1_554 S
C357 O354 1.265 . S
O358 Eu343 2.479 . S
O358 C373 1.188 1_545 S
O359 Eu343 2.471 1_565 S
O359 C373 1.283 . S
O360 Eu343 2.347 1_565 S
O360 C344 1.276 . S
O361 Tb342 2.418 . S
O361 C344 1.232 1_556 S
O362 Tb342 2.384 . S
O362 C345 1.255 1_556 S
O363 Eu343 2.366 1_565 S
O363 C345 1.265 . S
C364 O355 1.255 1_556 S
C364 O356 1.265 . S
O365 Tb342 2.479 . S
O365 C352 1.238 1_565 S
O366 Tb342 2.471 1_545 S
O366 C352 1.247 . S
C367 C370 1.380 1_565 S
C367 C371 1.374 . S
C367 C373 1.522 . S
C368 C369 1.387 . S
C368 C372 1.391 . S
C369 C368 1.387 . S
C369 C370 1.384 1_565 S
C369 H378 0.930 1_565 S
C370 C367 1.380 1_545 S
C370 C369 1.384 1_545 S
C370 H379 0.931 . S
C371 C367 1.374 . S
C371 C372 1.390 . S
C371 H380 0.930 . S
C372 C368 1.391 . S
C372 C371 1.390 . S
C372 H381 0.930 . S
C373 Eu343 2.812 1_565 S
C373 O358 1.188 1_565 S
C373 O359 1.283 . S
C373 C367 1.522 . S
H374 C347 0.930 . S
H375 C348 0.931 1_565 S
H376 C349 0.930 . S
H377 C350 0.930 . S
H378 C369 0.930 1_545 S
H379 C370 0.931 . S
H380 C371 0.930 . S
H381 C372 0.930 . S
Tb382 C392 2.825 1_455 S
Tb382 O393 2.347 1_455 S
Tb382 O396 2.366 1_455 S
Tb382 O401 2.418 . S
Tb382 O402 2.346 1_556 S
Tb382 O405 2.479 . S
Tb382 O406 2.471 1_455 S
Eu383 O394 2.418 . S
Eu383 O395 2.384 . S
Eu383 O398 2.479 . S
Eu383 O399 2.471 1_655 S
Eu383 O400 2.347 1_655 S
Eu383 O403 2.366 1_655 S
Eu383 C413 2.825 1_655 S
C384 O400 1.259 . S
C384 O401 1.265 1_554 S
C385 O402 1.309 . S
C385 O403 1.265 . S
C386 C388 1.380 . S
C386 C389 1.374 . S
C386 C392 1.507 . S
C387 C388 1.384 . S
C387 C391 1.387 . S
C387 H414 0.930 . S
C388 C386 1.380 . S
C388 C387 1.384 . S
C388 H415 0.931 1_655 S
C389 C386 1.374 . S
C389 C390 1.390 . S
C389 H416 0.930 . S
C390 C389 1.390 . S
C390 C391 1.391 . S
C390 H417 0.930 . S
C391 C387 1.387 . S
C391 C390 1.391 . S
C392 Tb382 2.825 1_655 S
C392 C386 1.507 . S
C392 O405 1.238 1_655 S
C392 O406 1.247 . S
O393 Tb382 2.347 1_655 S
O393 C397 1.233 1_556 S
O394 Eu383 2.418 . S
O394 C397 1.313 . S
O395 Eu383 2.384 . S
O395 C404 1.255 1_554 S
O396 Tb382 2.366 1_655 S
O396 C404 1.265 . S
C397 O393 1.233 1_554 S
C397 O394 1.313 . S
O398 Eu383 2.479 . S
O398 C413 1.238 1_655 S
O399 Eu383 2.471 1_455 S
O399 C413 1.247 . S
O400 Eu383 2.347 1_455 S
O400 C384 1.259 . S
O401 Tb382 2.418 . S
O401 C384 1.265 1_556 S
O402 Tb382 2.346 1_554 S
O402 C385 1.309 . S
O403 Eu383 2.366 1_455 S
O403 C385 1.265 . S
C404 O395 1.255 1_556 S
C404 O396 1.265 . S
O405 Tb382 2.479 . S
O405 C392 1.238 1_455 S
O406 Tb382 2.471 1_655 S
O406 C392 1.247 . S
C407 C410 1.380 . S
C407 C411 1.374 . S
C407 C413 1.507 . S
C408 C409 1.387 . S
C408 C412 1.391 . S
C409 C408 1.387 . S
C409 C410 1.384 . S
C409 H418 0.930 . S
C410 C407 1.380 . S
C410 C409 1.384 . S
C410 H419 0.931 1_455 S
C411 C407 1.374 . S
C411 C412 1.390 . S
C411 H420 0.930 . S
C412 C408 1.391 . S
C412 C411 1.390 . S
C412 H421 0.930 . S
C413 Eu383 2.825 1_455 S
C413 O398 1.238 1_455 S
C413 O399 1.247 . S
C413 C407 1.507 . S
H414 C387 0.930 . S
H415 C388 0.931 1_455 S
H416 C389 0.930 . S
H417 C390 0.930 . S
H418 C409 0.930 . S
H419 C410 0.931 1_655 S
H420 C411 0.930 . S
H421 C412 0.930 . S
Tb422 C432 2.825 . S
Tb422 O433 2.347 . S
Tb422 O436 2.366 . S
Tb422 O441 2.418 . S
Tb422 O442 2.384 . S
Tb422 O445 2.479 . S
Tb422 O446 2.471 . S
Eu423 O434 2.418 . S
Eu423 O435 2.384 1_556 S
Eu423 O438 2.479 . S
Eu423 O439 2.471 . S
Eu423 O440 2.347 1_556 S
Eu423 O443 2.366 . S
Eu423 C453 2.825 . S
C424 O440 1.259 . S
C424 O441 1.265 . S
C425 O442 1.255 1_556 S
C425 O443 1.265 . S
C426 C428 1.380 . S
C426 C429 1.374 . S
C426 C432 1.507 . S
C427 C428 1.384 . S
C427 C431 1.387 . S
C427 H454 0.930 . S
C428 C426 1.380 . S
C428 C427 1.384 . S
C428 H455 0.931 . S
C429 C426 1.374 . S
C429 C430 1.390 . S
C429 H456 0.930 . S
C430 C429 1.390 . S
C430 C431 1.391 . S
C430 H457 0.930 . S
C431 C427 1.387 . S
C431 C430 1.391 . S
C432 Tb422 2.825 . S
C432 C426 1.507 . S
C432 O445 1.238 . S
C432 O446 1.247 . S
O433 Tb422 2.347 . S
O433 C437 1.259 . S
O434 Eu423 2.418 . S
O434 C437 1.265 1_556 S
O435 Eu423 2.384 1_554 S
O435 C444 1.255 . S
O436 Tb422 2.366 . S
O436 C444 1.265 . S
C437 O433 1.259 . S
C437 O434 1.265 1_554 S
O438 Eu423 2.479 . S
O438 C453 1.238 . S
O439 Eu423 2.471 . S
O439 C453 1.247 . S
O440 Eu423 2.347 1_554 S
O440 C424 1.259 . S
O441 Tb422 2.418 . S
O441 C424 1.265 . S
O442 Tb422 2.384 . S
O442 C425 1.255 1_554 S
O443 Eu423 2.366 . S
O443 C425 1.265 . S
C444 O435 1.255 . S
C444 O436 1.265 . S
O445 Tb422 2.479 . S
O445 C432 1.238 . S
O446 Tb422 2.471 . S
O446 C432 1.247 . S
C447 C450 1.380 . S
C447 C451 1.374 . S
C447 C453 1.507 . S
C448 C449 1.387 . S
C448 C452 1.391 . S
C449 C448 1.387 . S
C449 C450 1.384 . S
C449 H458 0.930 . S
C450 C447 1.380 . S
C450 C449 1.384 . S
C450 H459 0.931 . S
C451 C447 1.374 . S
C451 C452 1.390 . S
C451 H460 0.930 . S
C452 C448 1.391 . S
C452 C451 1.390 . S
C452 H461 0.930 . S
C453 Eu423 2.825 . S
C453 O438 1.238 . S
C453 O439 1.247 . S
C453 C447 1.507 . S
H454 C427 0.930 . S
H455 C428 0.931 . S
H456 C429 0.930 . S
H457 C430 0.930 . S
H458 C449 0.930 . S
H459 C450 0.931 . S
H460 C451 0.930 . S
H461 C452 0.930 . S
Tb462 C472 2.825 . S
Tb462 O473 2.347 . S
Tb462 O476 2.366 . S
Tb462 O481 2.418 . S
Tb462 O482 2.384 . S
Tb462 O485 2.479 . S
Tb462 O486 2.471 . S
Eu463 O474 2.418 . S
Eu463 O475 2.384 . S
Eu463 O478 2.479 . S
Eu463 O479 2.471 . S
Eu463 O480 2.347 . S
Eu463 O483 2.366 . S
Eu463 C493 2.825 . S
C464 O480 1.259 . S
C464 O481 1.265 . S
C465 O482 1.255 . S
C465 O483 1.265 . S
C466 C468 1.380 . S
C466 C469 1.374 . S
C466 C472 1.507 . S
C467 C468 1.384 . S
C467 C471 1.387 . S
C467 H494 0.930 . S
C468 C466 1.380 . S
C468 C467 1.384 . S
C468 H495 0.931 . S
C469 C466 1.374 . S
C469 C470 1.390 . S
C469 H496 0.930 . S
C470 C469 1.390 . S
C470 C471 1.391 . S
C470 H497 0.930 . S
C471 C467 1.387 . S
C471 C470 1.391 . S
C472 Tb462 2.825 . S
C472 C466 1.507 . S
C472 O485 1.238 . S
C472 O486 1.247 . S
O473 Tb462 2.347 . S
O473 C477 1.259 . S
O474 Eu463 2.418 . S
O474 C477 1.265 . S
O475 Eu463 2.384 . S
O475 C484 1.255 . S
O476 Tb462 2.366 . S
O476 C484 1.265 . S
C477 O473 1.259 . S
C477 O474 1.265 . S
O478 Eu463 2.479 . S
O478 C493 1.238 . S
O479 Eu463 2.471 . S
O479 C493 1.247 . S
O480 Eu463 2.347 . S
O480 C464 1.259 . S
O481 Tb462 2.418 . S
O481 C464 1.265 . S
O482 Tb462 2.384 . S
O482 C465 1.255 . S
O483 Eu463 2.366 . S
O483 C465 1.265 . S
C484 O475 1.255 . S
C484 O476 1.265 . S
O485 Tb462 2.479 . S
O485 C472 1.238 . S
O486 Tb462 2.471 . S
O486 C472 1.247 . S
C487 C490 1.380 . S
C487 C491 1.374 . S
C487 C493 1.507 . S
C488 C489 1.387 . S
C488 C492 1.391 . S
C489 C488 1.387 . S
C489 C490 1.384 . S
C489 H498 0.930 . S
C490 C487 1.380 . S
C490 C489 1.384 . S
C490 H499 0.931 . S
C491 C487 1.374 . S
C491 C492 1.390 . S
C491 H500 0.930 . S
C492 C488 1.391 . S
C492 C491 1.390 . S
C492 H501 0.930 . S
C493 Eu463 2.825 . S
C493 O478 1.238 . S
C493 O479 1.247 . S
C493 C487 1.507 . S
H494 C467 0.930 . S
H495 C468 0.931 . S
H496 C469 0.930 . S
H497 C470 0.930 . S
H498 C489 0.930 . S
H499 C490 0.931 . S
H500 C491 0.930 . S
H501 C492 0.930 . S
Tb502 C512 2.825 . S
Tb502 O513 2.347 . S
Tb502 O516 2.366 . S
Tb502 O521 2.418 . S
Tb502 O522 2.384 . S
Tb502 O525 2.479 . S
Tb502 O526 2.471 . S
Eu503 O514 2.418 . S
Eu503 O515 2.384 . S
Eu503 O518 2.479 . S
Eu503 O519 2.471 . S
Eu503 O520 2.347 . S
Eu503 O523 2.366 . S
Eu503 C533 2.825 . S
C504 O520 1.259 . S
C504 O521 1.265 . S
C505 O522 1.255 . S
C505 O523 1.265 . S
C506 C508 1.380 . S
C506 C509 1.374 . S
C506 C512 1.507 . S
C507 C508 1.384 . S
C507 C511 1.387 . S
C507 H534 0.930 . S
C508 C506 1.380 . S
C508 C507 1.384 . S
C508 H535 0.931 . S
C509 C506 1.374 . S
C509 C510 1.390 . S
C509 H536 0.930 . S
C510 C509 1.390 . S
C510 C511 1.391 . S
C510 H537 0.930 . S
C511 C507 1.387 . S
C511 C510 1.391 . S
C512 Tb502 2.825 . S
C512 C506 1.507 . S
C512 O525 1.238 . S
C512 O526 1.247 . S
O513 Tb502 2.347 . S
O513 C517 1.259 . S
O514 Eu503 2.418 . S
O514 C517 1.265 . S
O515 Eu503 2.384 . S
O515 C524 1.255 . S
O516 Tb502 2.366 . S
O516 C524 1.265 . S
C517 O513 1.259 . S
C517 O514 1.265 . S
O518 Eu503 2.479 . S
O518 C533 1.238 . S
O519 Eu503 2.471 . S
O519 C533 1.247 . S
O520 Eu503 2.347 . S
O520 C504 1.259 . S
O521 Tb502 2.418 . S
O521 C504 1.265 . S
O522 Tb502 2.384 . S
O522 C505 1.255 . S
O523 Eu503 2.366 . S
O523 C505 1.265 . S
C524 O515 1.255 . S
C524 O516 1.265 . S
O525 Tb502 2.479 . S
O525 C512 1.238 . S
O526 Tb502 2.471 . S
O526 C512 1.247 . S
C527 C530 1.380 . S
C527 C531 1.374 . S
C527 C533 1.507 . S
C528 C529 1.387 . S
C528 C532 1.391 . S
C529 C528 1.387 . S
C529 C530 1.384 . S
C529 H538 0.930 . S
C530 C527 1.380 . S
C530 C529 1.384 . S
C530 H539 0.931 . S
C531 C527 1.374 . S
C531 C532 1.390 . S
C531 H540 0.930 . S
C532 C528 1.391 . S
C532 C531 1.390 . S
C532 H541 0.930 . S
C533 Eu503 2.825 . S
C533 O518 1.238 . S
C533 O519 1.247 . S
C533 C527 1.507 . S
H534 C507 0.930 . S
H535 C508 0.931 . S
H536 C509 0.930 . S
H537 C510 0.930 . S
H538 C529 0.930 . S
H539 C530 0.931 . S
H540 C531 0.930 . S
H541 C532 0.930 . S
Tb542 C552 2.825 . S
Tb542 O553 2.347 . S
Tb542 O556 2.366 . S
Tb542 O561 2.418 . S
Tb542 O562 2.384 . S
Tb542 O565 2.479 . S
Tb542 O566 2.471 . S
Eu543 O554 2.418 . S
Eu543 O555 2.384 . S
Eu543 O558 2.479 . S
Eu543 O559 2.471 . S
Eu543 O560 2.347 . S
Eu543 O563 2.366 . S
Eu543 C573 2.825 . S
C544 O560 1.259 . S
C544 O561 1.265 . S
C545 O562 1.255 . S
C545 O563 1.265 . S
C546 C548 1.380 . S
C546 C549 1.374 . S
C546 C552 1.507 . S
C547 C548 1.384 . S
C547 C551 1.387 . S
C547 H574 0.930 . S
C548 C546 1.380 . S
C548 C547 1.384 . S
C548 H575 0.931 . S
C549 C546 1.374 . S
C549 C550 1.390 . S
C549 H576 0.930 . S
C550 C549 1.390 . S
C550 C551 1.391 . S
C550 H577 0.930 . S
C551 C547 1.387 . S
C551 C550 1.391 . S
C552 Tb542 2.825 . S
C552 C546 1.507 . S
C552 O565 1.238 . S
C552 O566 1.247 . S
O553 Tb542 2.347 . S
O553 C557 1.259 . S
O554 Eu543 2.418 . S
O554 C557 1.265 . S
O555 Eu543 2.384 . S
O555 C564 1.255 . S
O556 Tb542 2.366 . S
O556 C564 1.265 . S
C557 O553 1.259 . S
C557 O554 1.265 . S
O558 Eu543 2.479 . S
O558 C573 1.238 . S
O559 Eu543 2.471 . S
O559 C573 1.247 . S
O560 Eu543 2.347 . S
O560 C544 1.259 . S
O561 Tb542 2.418 . S
O561 C544 1.265 . S
O562 Tb542 2.384 . S
O562 C545 1.255 . S
O563 Eu543 2.366 . S
O563 C545 1.265 . S
C564 O555 1.255 . S
C564 O556 1.265 . S
O565 Tb542 2.479 . S
O565 C552 1.238 . S
O566 Tb542 2.471 . S
O566 C552 1.247 . S
C567 C570 1.380 . S
C567 C571 1.374 . S
C567 C573 1.507 . S
C568 C569 1.387 . S
C568 C572 1.391 . S
C569 C568 1.387 . S
C569 C570 1.384 . S
C569 H578 0.930 . S
C570 C567 1.380 . S
C570 C569 1.384 . S
C570 H579 0.931 . S
C571 C567 1.374 . S
C571 C572 1.390 . S
C571 H580 0.930 . S
C572 C568 1.391 . S
C572 C571 1.390 . S
C572 H581 0.930 . S
C573 Eu543 2.825 . S
C573 O558 1.238 . S
C573 O559 1.247 . S
C573 C567 1.507 . S
H574 C547 0.930 . S
H575 C548 0.931 . S
H576 C549 0.930 . S
H577 C550 0.930 . S
H578 C569 0.930 . S
H579 C570 0.931 . S
H580 C571 0.930 . S
H581 C572 0.930 . S
Tb582 C592 2.825 . S
Tb582 O593 2.347 . S
Tb582 O596 2.366 . S
Tb582 O601 2.418 . S
Tb582 O602 2.384 . S
Tb582 O605 2.479 . S
Tb582 O606 2.471 . S
Eu583 O594 2.418 . S
Eu583 O595 2.384 . S
Eu583 O598 2.479 . S
Eu583 O599 2.471 . S
Eu583 O600 2.347 . S
Eu583 O603 2.366 . S
Eu583 C613 2.825 . S
C584 O600 1.259 . S
C584 O601 1.265 . S
C585 O602 1.255 . S
C585 O603 1.265 . S
C586 C588 1.380 . S
C586 C589 1.374 . S
C586 C592 1.507 . S
C587 C588 1.384 . S
C587 C591 1.387 . S
C587 H614 0.930 . S
C588 C586 1.380 . S
C588 C587 1.384 . S
C588 H615 0.931 . S
C589 C586 1.374 . S
C589 C590 1.390 . S
C589 H616 0.930 . S
C590 C589 1.390 . S
C590 C591 1.391 . S
C590 H617 0.930 . S
C591 C587 1.387 . S
C591 C590 1.391 . S
C592 Tb582 2.825 . S
C592 C586 1.507 . S
C592 O605 1.238 . S
C592 O606 1.247 . S
O593 Tb582 2.347 . S
O593 C597 1.259 . S
O594 Eu583 2.418 . S
O594 C597 1.265 . S
O595 Eu583 2.384 . S
O595 C604 1.255 . S
O596 Tb582 2.366 . S
O596 C604 1.265 . S
C597 O593 1.259 . S
C597 O594 1.265 . S
O598 Eu583 2.479 . S
O598 C613 1.238 . S
O599 Eu583 2.471 . S
O599 C613 1.247 . S
O600 Eu583 2.347 . S
O600 C584 1.259 . S
O601 Tb582 2.418 . S
O601 C584 1.265 . S
O602 Tb582 2.384 . S
O602 C585 1.255 . S
O603 Eu583 2.366 . S
O603 C585 1.265 . S
C604 O595 1.255 . S
C604 O596 1.265 . S
O605 Tb582 2.479 . S
O605 C592 1.238 . S
O606 Tb582 2.471 . S
O606 C592 1.247 . S
C607 C610 1.380 . S
C607 C611 1.374 . S
C607 C613 1.507 . S
C608 C609 1.387 . S
C608 C612 1.391 . S
C609 C608 1.387 . S
C609 C610 1.384 . S
C609 H618 0.930 . S
C610 C607 1.380 . S
C610 C609 1.384 . S
C610 H619 0.931 . S
C611 C607 1.374 . S
C611 C612 1.390 . S
C611 H620 0.930 . S
C612 C608 1.391 . S
C612 C611 1.390 . S
C612 H621 0.930 . S
C613 Eu583 2.825 . S
C613 O598 1.238 . S
C613 O599 1.247 . S
C613 C607 1.507 . S
H614 C587 0.930 . S
H615 C588 0.931 . S
H616 C589 0.930 . S
H617 C590 0.930 . S
H618 C609 0.930 . S
H619 C610 0.931 . S
H620 C611 0.930 . S
H621 C612 0.930 . S
Tb622 C632 2.825 . S
Tb622 O633 2.347 . S
Tb622 O636 2.366 . S
Tb622 O641 2.418 . S
Tb622 O642 2.384 . S
Tb622 O645 2.479 . S
Tb622 O646 2.471 . S
Eu623 O634 2.418 . S
Eu623 O635 2.384 . S
Eu623 O638 2.479 . S
Eu623 O639 2.471 . S
Eu623 O640 2.347 . S
Eu623 O643 2.366 . S
Eu623 C653 2.825 . S
C624 O640 1.259 . S
C624 O641 1.265 . S
C625 O642 1.255 . S
C625 O643 1.265 . S
C626 C628 1.380 . S
C626 C629 1.374 . S
C626 C632 1.507 . S
C627 C628 1.384 . S
C627 C631 1.387 . S
C627 H654 0.930 . S
C628 C626 1.380 . S
C628 C627 1.384 . S
C628 H655 0.931 . S
C629 C626 1.374 . S
C629 C630 1.390 . S
C629 H656 0.930 . S
C630 C629 1.390 . S
C630 C631 1.391 . S
C630 H657 0.930 . S
C631 C627 1.387 . S
C631 C630 1.391 . S
C632 Tb622 2.825 . S
C632 C626 1.507 . S
C632 O645 1.238 . S
C632 O646 1.247 . S
O633 Tb622 2.347 . S
O633 C637 1.259 . S
O634 Eu623 2.418 . S
O634 C637 1.265 . S
O635 Eu623 2.384 . S
O635 C644 1.255 . S
O636 Tb622 2.366 . S
O636 C644 1.265 . S
C637 O633 1.259 . S
C637 O634 1.265 . S
O638 Eu623 2.479 . S
O638 C653 1.238 . S
O639 Eu623 2.471 . S
O639 C653 1.247 . S
O640 Eu623 2.347 . S
O640 C624 1.259 . S
O641 Tb622 2.418 . S
O641 C624 1.265 . S
O642 Tb622 2.384 . S
O642 C625 1.255 . S
O643 Eu623 2.366 . S
O643 C625 1.265 . S
C644 O635 1.255 . S
C644 O636 1.265 . S
O645 Tb622 2.479 . S
O645 C632 1.238 . S
O646 Tb622 2.471 . S
O646 C632 1.247 . S
C647 C650 1.380 . S
C647 C651 1.374 . S
C647 C653 1.507 . S
C648 C649 1.387 . S
C648 C652 1.391 . S
C649 C648 1.387 . S
C649 C650 1.384 . S
C649 H658 0.930 . S
C650 C647 1.380 . S
C650 C649 1.384 . S
C650 H659 0.931 . S
C651 C647 1.374 . S
C651 C652 1.390 . S
C651 H660 0.930 . S
C652 C648 1.391 . S
C652 C651 1.390 . S
C652 H661 0.930 . S
C653 Eu623 2.825 . S
C653 O638 1.238 . S
C653 O639 1.247 . S
C653 C647 1.507 . S
H654 C627 0.930 . S
H655 C628 0.931 . S
H656 C629 0.930 . S
H657 C630 0.930 . S
H658 C649 0.930 . S
H659 C650 0.931 . S
H660 C651 0.930 . S
H661 C652 0.930 . S
Tb662 C672 2.825 . S
Tb662 O673 2.347 . S
Tb662 O676 2.366 . S
Tb662 O681 2.418 . S
Tb662 O682 2.384 . S
Tb662 O685 2.479 . S
Tb662 O686 2.471 . S
Eu663 O674 2.418 . S
Eu663 O675 2.384 . S
Eu663 O678 2.479 . S
Eu663 O679 2.471 . S
Eu663 O680 2.347 . S
Eu663 O683 2.366 . S
Eu663 C693 2.825 . S
C664 O680 1.259 . S
C664 O681 1.265 . S
C665 O682 1.255 . S
C665 O683 1.265 . S
C666 C668 1.380 . S
C666 C669 1.374 . S
C666 C672 1.507 . S
C667 C668 1.384 . S
C667 C671 1.387 . S
C667 H694 0.930 . S
C668 C666 1.380 . S
C668 C667 1.384 . S
C668 H695 0.931 . S
C669 C666 1.374 . S
C669 C670 1.390 . S
C669 H696 0.930 . S
C670 C669 1.390 . S
C670 C671 1.391 . S
C670 H697 0.930 . S
C671 C667 1.387 . S
C671 C670 1.391 . S
C672 Tb662 2.825 . S
C672 C666 1.507 . S
C672 O685 1.238 . S
C672 O686 1.247 . S
O673 Tb662 2.347 . S
O673 C677 1.259 . S
O674 Eu663 2.418 . S
O674 C677 1.265 . S
O675 Eu663 2.384 . S
O675 C684 1.255 . S
O676 Tb662 2.366 . S
O676 C684 1.265 . S
C677 O673 1.259 . S
C677 O674 1.265 . S
O678 Eu663 2.479 . S
O678 C693 1.238 . S
O679 Eu663 2.471 . S
O679 C693 1.247 . S
O680 Eu663 2.347 . S
O680 C664 1.259 . S
O681 Tb662 2.418 . S
O681 C664 1.265 . S
O682 Tb662 2.384 . S
O682 C665 1.255 . S
O683 Eu663 2.366 . S
O683 C665 1.265 . S
C684 O675 1.255 . S
C684 O676 1.265 . S
O685 Tb662 2.479 . S
O685 C672 1.238 . S
O686 Tb662 2.471 . S
O686 C672 1.247 . S
C687 C690 1.380 . S
C687 C691 1.374 . S
C687 C693 1.507 . S
C688 C689 1.387 . S
C688 C692 1.391 . S
C689 C688 1.387 . S
C689 C690 1.384 . S
C689 H698 0.930 . S
C690 C687 1.380 . S
C690 C689 1.384 . S
C690 H699 0.931 . S
C691 C687 1.374 . S
C691 C692 1.390 . S
C691 H700 0.930 . S
C692 C688 1.391 . S
C692 C691 1.390 . S
C692 H701 0.930 . S
C693 Eu663 2.825 . S
C693 O678 1.238 . S
C693 O679 1.247 . S
C693 C687 1.507 . S
H694 C667 0.930 . S
H695 C668 0.931 . S
H696 C669 0.930 . S
H697 C670 0.930 . S
H698 C689 0.930 . S
H699 C690 0.931 . S
H700 C691 0.930 . S
H701 C692 0.930 . S
H702 C708 0.930 . S
H703 C712 0.930 . S
H704 C717 0.929 . S
H705 C715 0.929 . S
H706 C710 0.929 . S
H707 C716 0.929 . S
C708 H702 0.930 . S
C708 C709 1.367 . S
C708 C716 1.378 . S
C709 C708 1.367 . S
C709 C717 1.433 . S
C710 H706 0.929 . S
C710 C712 1.378 . S
C710 C714 1.350 . S
C711 C714 1.463 . S
C711 C716 1.350 . S
C711 N719 1.427 . S
C712 H703 0.930 . S
C712 C710 1.378 . S
C712 C713 1.367 . S
C713 C712 1.367 . S
C713 C715 1.433 . S
C714 C710 1.350 . S
C714 C711 1.463 . S
C714 N718 1.427 . S
C715 H705 0.929 . S
C715 C713 1.433 . S
C715 N718 1.384 . S
C716 H707 0.929 . S
C716 C708 1.378 . S
C716 C711 1.350 . S
C717 H704 0.929 . S
C717 C709 1.433 . S
C717 N719 1.384 . S
N718 C714 1.427 . S
N718 C715 1.384 . S
N719 C711 1.427 . S
N719 C717 1.384 . S
H720 C726 0.930 . S
H721 C730 0.930 . S
H722 C735 0.929 . S
H723 C733 0.929 . S
H724 C728 0.929 . S
H725 C734 0.929 . S
C726 H720 0.930 . S
C726 C727 1.367 . S
C726 C734 1.378 . S
C727 C726 1.367 . S
C727 C735 1.433 . S
C728 H724 0.929 . S
C728 C730 1.378 . S
C728 C732 1.350 . S
C729 C732 1.463 . S
C729 C734 1.350 . S
C729 N737 1.427 . S
C730 H721 0.930 . S
C730 C728 1.378 . S
C730 C731 1.367 . S
C731 C730 1.367 . S
C731 C733 1.433 . S
C732 C728 1.350 . S
C732 C729 1.463 . S
C732 N736 1.427 . S
C733 H723 0.929 . S
C733 C731 1.433 . S
C733 N736 1.384 . S
C734 H725 0.929 . S
C734 C726 1.378 . S
C734 C729 1.350 . S
C735 H722 0.929 . S
C735 C727 1.433 . S
C735 N737 1.384 . S
N736 C732 1.427 . S
N736 C733 1.384 . S
N737 C729 1.427 . S
N737 C735 1.384 . S
H738 C744 0.930 . S
H739 C748 0.930 . S
H740 C753 0.929 . S
H741 C751 0.929 . S
H742 C746 0.929 . S
H743 C752 0.929 . S
C744 H738 0.930 . S
C744 C745 1.367 . S
C744 C752 1.378 . S
C745 C744 1.367 . S
C745 C753 1.433 . S
C746 H742 0.929 . S
C746 C748 1.378 . S
C746 C750 1.350 . S
C747 C750 1.463 . S
C747 C752 1.350 . S
C747 N755 1.427 . S
C748 H739 0.930 . S
C748 C746 1.378 . S
C748 C749 1.367 . S
C749 C748 1.367 . S
C749 C751 1.433 . S
C750 C746 1.350 . S
C750 C747 1.463 . S
C750 N754 1.427 . S
C751 H741 0.929 . S
C751 C749 1.433 . S
C751 N754 1.384 . S
C752 H743 0.929 . S
C752 C744 1.378 . S
C752 C747 1.350 . S
C753 H740 0.929 . S
C753 C745 1.433 . S
C753 N755 1.384 . S
N754 C750 1.427 . S
N754 C751 1.384 . S
N755 C747 1.427 . S
N755 C753 1.384 . S
H756 C762 0.930 . S
H757 C766 0.930 . S
H758 C771 0.929 . S
H759 C769 0.929 . S
H760 C764 0.929 . S
H761 C770 0.929 1_554 S
C762 H756 0.930 . S
C762 C763 1.367 . S
C762 C770 1.378 . S
C763 C762 1.367 . S
C763 C771 1.433 . S
C764 H760 0.929 . S
C764 C766 1.378 . S
C764 C768 1.350 . S
C765 C768 1.463 . S
C765 C770 1.350 . S
C765 N773 1.427 . S
C766 H757 0.930 . S
C766 C764 1.378 . S
C766 C767 1.367 . S
C767 C766 1.367 . S
C767 C769 1.433 1_556 S
C768 C764 1.350 . S
C768 C765 1.463 . S
C768 N772 1.427 1_556 S
C769 H759 0.929 . S
C769 C767 1.433 1_554 S
C769 N772 1.384 . S
C770 H761 0.929 1_556 S
C770 C762 1.378 . S
C770 C765 1.350 . S
C771 H758 0.929 . S
C771 C763 1.433 . S
C771 N773 1.384 . S
N772 C768 1.427 1_554 S
N772 C769 1.384 . S
N773 C765 1.427 . S
N773 C771 1.384 . S
H774 C780 0.930 . S
H775 C784 0.903 1_554 S
H776 C789 0.929 . S
H777 C787 0.929 . S
H778 C782 0.929 . S
H779 C788 0.929 . S
C780 H774 0.930 . S
C780 C781 1.367 . S
C780 C788 1.378 . S
C781 C780 1.367 . S
C781 C789 1.433 . S
C782 H778 0.929 . S
C782 C784 1.393 . S
C782 C786 1.350 . S
C783 C786 1.463 . S
C783 C788 1.350 . S
C783 N791 1.427 . S
C784 H775 0.903 1_556 S
C784 C782 1.393 . S
C784 C785 1.380 . S
C785 C784 1.380 . S
C785 C787 1.433 . S
C786 C782 1.350 . S
C786 C783 1.463 . S
C786 N790 1.427 . S
C787 H777 0.929 . S
C787 C785 1.433 . S
C787 N790 1.384 . S
C788 H779 0.929 . S
C788 C780 1.378 . S
C788 C783 1.350 . S
C789 H776 0.929 . S
C789 C781 1.433 . S
C789 N791 1.384 . S
N790 C786 1.427 . S
N790 C787 1.384 . S
N791 C783 1.427 . S
N791 C789 1.384 . S
H792 C798 0.930 . S
H793 C802 0.930 . S
H794 C807 0.929 . S
H795 C805 0.929 . S
H796 C800 0.929 . S
H797 C806 0.929 . S
C798 H792 0.930 . S
C798 C799 1.367 1_554 S
C798 C806 1.378 . S
C799 C798 1.367 1_556 S
C799 C807 1.433 . S
C800 H796 0.929 . S
C800 C802 1.378 . S
C800 C804 1.350 . S
C801 C804 1.463 . S
C801 C806 1.350 1_556 S
C801 N809 1.427 . S
C802 H793 0.930 . S
C802 C800 1.378 . S
C802 C803 1.367 . S
C803 C802 1.367 . S
C803 C805 1.433 1_556 S
C804 C800 1.350 . S
C804 C801 1.463 . S
C804 N808 1.427 1_556 S
C805 H795 0.929 . S
C805 C803 1.433 1_554 S
C805 N808 1.384 . S
C806 H797 0.929 . S
C806 C798 1.378 . S
C806 C801 1.350 1_554 S
C807 H794 0.929 . S
C807 C799 1.433 . S
C807 N809 1.384 . S
N808 C804 1.427 1_554 S
N808 C805 1.384 . S
N809 C801 1.427 . S
N809 C807 1.384 . S
H810 C816 0.930 1_554 S
H811 C820 0.930 . S
H812 C825 0.929 . S
H813 C823 0.929 . S
H814 C818 0.929 . S
H815 C824 0.929 1_554 S
C816 H810 0.930 1_556 S
C816 C817 1.367 . S
C816 C824 1.378 . S
C817 C816 1.367 . S
C817 C825 1.433 . S
C818 H814 0.929 . S
C818 C820 1.378 . S
C818 C822 1.350 . S
C819 C822 1.463 . S
C819 C824 1.350 . S
C819 N827 1.427 . S
C820 H811 0.930 . S
C820 C818 1.378 . S
C820 C821 1.367 . S
C821 C820 1.367 . S
C821 C823 1.433 1_556 S
C822 C818 1.350 . S
C822 C819 1.463 . S
C822 N826 1.427 1_556 S
C823 H813 0.929 . S
C823 C821 1.433 1_554 S
C823 N826 1.384 . S
C824 H815 0.929 1_556 S
C824 C816 1.378 . S
C824 C819 1.350 . S
C825 H812 0.929 . S
C825 C817 1.433 . S
C825 N827 1.384 . S
N826 C822 1.427 1_554 S
N826 C823 1.384 . S
N827 C819 1.427 . S
N827 C825 1.384 . S
H828 C834 0.930 . S
H829 C838 0.930 . S
H830 C843 0.929 . S
H831 C841 0.929 1_554 S
H832 C836 0.929 . S
H833 C842 0.929 . S
C834 H828 0.930 . S
C834 C835 1.367 . S
C834 C842 1.378 . S
C835 C834 1.367 . S
C835 C843 1.433 . S
C836 H832 0.929 . S
C836 C838 1.378 . S
C836 C840 1.350 . S
C837 C840 1.463 . S
C837 C842 1.350 . S
C837 N845 1.427 . S
C838 H829 0.930 . S
C838 C836 1.378 . S
C838 C839 1.367 . S
C839 C838 1.367 . S
C839 C841 1.433 . S
C840 C836 1.350 . S
C840 C837 1.463 . S
C840 N844 1.427 . S
C841 H831 0.929 1_556 S
C841 C839 1.433 . S
C841 N844 1.384 . S
C842 H833 0.929 . S
C842 C834 1.378 . S
C842 C837 1.350 . S
C843 H830 0.929 . S
C843 C835 1.433 . S
C843 N845 1.384 . S
N844 C840 1.427 . S
N844 C841 1.384 . S
N845 C837 1.427 . S
N845 C843 1.384 . S
H846 C852 0.930 . S
H847 C856 0.930 . S
H848 C861 0.929 . S
H849 C859 0.929 . S
H850 C854 0.929 . S
H851 C860 0.929 . S
C852 H846 0.930 . S
C852 C853 1.367 . S
C852 C860 1.378 . S
C853 C852 1.367 . S
C853 C861 1.433 1_554 S
C854 H850 0.929 . S
C854 C856 1.378 . S
C854 C858 1.350 1_556 S
C855 C858 1.463 . S
C855 C860 1.350 . S
C855 N863 1.427 1_554 S
C856 H847 0.930 . S
C856 C854 1.378 . S
C856 C857 1.367 1_556 S
C857 C856 1.367 1_554 S
C857 C859 1.433 . S
C858 C854 1.350 1_554 S
C858 C855 1.463 . S
C858 N862 1.427 . S
C859 H849 0.929 . S
C859 C857 1.433 . S
C859 N862 1.384 . S
C860 H851 0.929 . S
C860 C852 1.378 . S
C860 C855 1.350 . S
C861 H848 0.929 . S
C861 C853 1.433 1_556 S
C861 N863 1.384 . S
N862 C858 1.427 . S
N862 C859 1.384 . S
N863 C855 1.427 1_556 S
N863 C861 1.384 . S
H864 C870 0.930 1_556 S
H865 C874 0.930 . S
H866 C879 0.929 . S
H867 C877 0.929 . S
H868 C872 0.929 . S
H869 C878 0.929 1_556 S
C870 H864 0.930 1_554 S
C870 C871 1.367 . S
C870 C878 1.378 . S
C871 C870 1.367 . S
C871 C879 1.433 . S
C872 H868 0.929 . S
C872 C874 1.378 . S
C872 C876 1.350 . S
C873 C876 1.463 . S
C873 C878 1.350 . S
C873 N881 1.427 . S
C874 H865 0.930 . S
C874 C872 1.378 . S
C874 C875 1.367 . S
C875 C874 1.367 . S
C875 C877 1.433 1_554 S
C876 C872 1.350 . S
C876 C873 1.463 . S
C876 N880 1.401 1_554 S
C877 H867 0.929 . S
C877 C875 1.433 1_556 S
C877 N880 1.384 . S
C878 H869 0.929 1_554 S
C878 C870 1.378 . S
C878 C873 1.350 . S
C879 H866 0.929 . S
C879 C871 1.433 . S
C879 N881 1.384 . S
N880 C876 1.401 1_556 S
N880 C877 1.384 . S
N881 C873 1.427 . S
N881 C879 1.384 . S
H882 C888 0.930 . S
H883 C892 0.930 . S
H884 C897 0.929 . S
H885 C895 0.929 . S
H886 C890 0.929 . S
H887 C896 0.929 . S
C888 H882 0.930 . S
C888 C889 1.367 . S
C888 C896 1.378 . S
C889 C888 1.367 . S
C889 C897 1.433 . S
C890 H886 0.929 . S
C890 C892 1.378 . S
C890 C894 1.350 . S
C891 C894 1.463 . S
C891 C896 1.350 . S
C891 N899 1.427 . S
C892 H883 0.930 . S
C892 C890 1.378 . S
C892 C893 1.367 . S
C893 C892 1.367 . S
C893 C895 1.433 . S
C894 C890 1.350 . S
C894 C891 1.463 . S
C894 N898 1.427 . S
C895 H885 0.929 . S
C895 C893 1.433 . S
C895 N898 1.384 . S
C896 H887 0.929 . S
C896 C888 1.378 . S
C896 C891 1.350 . S
C897 H884 0.929 . S
C897 C889 1.433 . S
C897 N899 1.384 . S
N898 C894 1.427 . S
N898 C895 1.384 . S
N899 C891 1.427 . S
N899 C897 1.384 . S
H900 C906 0.930 . S
H901 C910 0.930 . S
H902 C915 0.929 . S
H903 C913 0.929 . S
H904 C908 0.929 . S
H905 C914 0.929 . S
C906 H900 0.930 . S
C906 C907 1.367 1_556 S
C906 C914 1.378 . S
C907 C906 1.367 1_554 S
C907 C915 1.433 . S
C908 H904 0.929 . S
C908 C910 1.378 . S
C908 C912 1.350 . S
C909 C912 1.463 . S
C909 C914 1.350 1_554 S
C909 N917 1.427 . S
C910 H901 0.930 . S
C910 C908 1.378 . S
C910 C911 1.367 . S
C911 C910 1.367 . S
C911 C913 1.433 1_554 S
C912 C908 1.350 . S
C912 C909 1.463 . S
C912 N916 1.427 1_554 S
C913 H903 0.929 . S
C913 C911 1.433 1_556 S
C913 N916 1.384 . S
C914 H905 0.929 . S
C914 C906 1.378 . S
C914 C909 1.350 1_556 S
C915 H902 0.929 . S
C915 C907 1.433 . S
C915 N917 1.384 . S
N916 C912 1.427 1_556 S
N916 C913 1.384 . S
N917 C909 1.427 . S
N917 C915 1.384 . S
H918 C924 0.930 . S
H919 C928 0.930 . S
H920 C933 0.929 . S
H921 C931 0.929 . S
H922 C926 0.929 1_655 S
H923 C932 0.929 . S
C924 H918 0.930 . S
C924 C925 1.367 . S
C924 C932 1.378 . S
C925 C924 1.367 . S
C925 C933 1.433 . S
C926 H922 0.929 1_455 S
C926 C928 1.378 . S
C926 C930 1.338 . S
C927 C930 1.442 1_655 S
C927 C932 1.350 . S
C927 N935 1.427 . S
C928 H919 0.930 . S
C928 C926 1.378 . S
C928 C929 1.367 . S
C929 C928 1.367 . S
C929 C931 1.433 . S
C930 C926 1.338 . S
C930 C927 1.442 1_455 S
C930 N934 1.462 . S
C931 H921 0.929 . S
C931 C929 1.433 . S
C931 N934 1.384 . S
C932 H923 0.929 . S
C932 C924 1.378 . S
C932 C927 1.350 . S
C933 H920 0.929 . S
C933 C925 1.433 . S
C933 N935 1.384 . S
N934 C930 1.462 . S
N934 C931 1.384 . S
N935 C927 1.427 . S
N935 C933 1.384 . S
H936 C942 0.930 . S
H937 C946 0.930 . S
H938 C951 0.929 . S
H939 C949 0.929 . S
H940 C944 0.929 . S
H941 C950 0.929 . S
C942 H936 0.930 . S
C942 C943 1.367 . S
C942 C950 1.378 . S
C943 C942 1.367 . S
C943 C951 1.433 . S
C944 H940 0.929 . S
C944 C946 1.378 . S
C944 C948 1.350 . S
C945 C948 1.463 . S
C945 C950 1.350 . S
C945 N953 1.427 . S
C946 H937 0.930 . S
C946 C944 1.378 . S
C946 C947 1.367 . S
C947 C946 1.367 . S
C947 C949 1.433 . S
C948 C944 1.350 . S
C948 C945 1.463 . S
C948 N952 1.427 . S
C949 H939 0.929 . S
C949 C947 1.433 . S
C949 N952 1.384 . S
C950 H941 0.929 . S
C950 C942 1.378 . S
C950 C945 1.350 . S
C951 H938 0.929 . S
C951 C943 1.433 . S
C951 N953 1.384 . S
N952 C948 1.427 . S
N952 C949 1.384 . S
N953 C945 1.427 . S
N953 C951 1.384 . S
H954 C960 0.930 . S
H955 C964 0.930 . S
H956 C969 0.929 . S
H957 C967 0.929 . S
H958 C962 0.929 . S
H959 C968 0.929 . S
C960 H954 0.930 . S
C960 C961 1.367 . S
C960 C968 1.378 . S
C961 C960 1.367 . S
C961 C969 1.433 . S
C962 H958 0.929 . S
C962 C964 1.378 . S
C962 C966 1.350 1_565 S
C963 C966 1.463 . S
C963 C968 1.350 . S
C963 N971 1.427 . S
C964 H955 0.930 . S
C964 C962 1.378 . S
C964 C965 1.367 . S
C965 C964 1.367 . S
C965 C967 1.433 . S
C966 C962 1.350 1_545 S
C966 C963 1.463 . S
C966 N970 1.427 . S
C967 H957 0.929 . S
C967 C965 1.433 . S
C967 N970 1.384 1_565 S
C968 H959 0.929 . S
C968 C960 1.378 . S
C968 C963 1.350 . S
C969 H956 0.929 . S
C969 C961 1.433 . S
C969 N971 1.384 . S
N970 C966 1.427 . S
N970 C967 1.384 1_545 S
N971 C963 1.427 . S
N971 C969 1.384 . S
H972 C978 0.930 . S
H973 C982 0.930 . S
H974 C987 0.929 . S
H975 C985 0.929 . S
H976 C980 0.929 . S
H977 C986 0.929 . S
C978 H972 0.930 . S
C978 C979 1.367 . S
C978 C986 1.378 . S
C979 C978 1.367 . S
C979 C987 1.433 . S
C980 H976 0.929 . S
C980 C982 1.378 . S
C980 C984 1.350 . S
C981 C984 1.463 . S
C981 C986 1.350 . S
C981 N989 1.427 . S
C982 H973 0.930 . S
C982 C980 1.378 . S
C982 C983 1.367 . S
C983 C982 1.367 . S
C983 C985 1.433 . S
C984 C980 1.350 . S
C984 C981 1.463 . S
C984 N988 1.427 . S
C985 H975 0.929 . S
C985 C983 1.433 . S
C985 N988 1.384 . S
C986 H977 0.929 . S
C986 C978 1.378 . S
C986 C981 1.350 . S
C987 H974 0.929 . S
C987 C979 1.433 . S
C987 N989 1.384 . S
N988 C984 1.427 . S
N988 C985 1.384 . S
N989 C981 1.427 . S
N989 C987 1.384 . S
H990 C996 0.930 . S
H991 C1000 0.930 . S
H992 C1005 0.929 . S
H993 C1003 0.929 . S
H994 C998 0.929 . S
H995 C1004 0.929 . S
C996 H990 0.930 . S
C996 C997 1.367 . S
C996 C1004 1.378 . S
C997 C996 1.367 . S
C997 C1005 1.433 . S
C998 H994 0.929 . S
C998 C1000 1.378 . S
C998 C1002 1.350 . S
C999 C1002 1.463 . S
C999 C1004 1.350 . S
C999 N1007 1.427 . S
C1000 H991 0.930 . S
C1000 C998 1.378 . S
C1000 C1001 1.367 . S
C1001 C1000 1.367 . S
C1001 C1003 1.433 . S
C1002 C998 1.350 . S
C1002 C999 1.463 . S
C1002 N1006 1.427 . S
C1003 H993 0.929 . S
C1003 C1001 1.433 . S
C1003 N1006 1.384 . S
C1004 H995 0.929 . S
C1004 C996 1.378 . S
C1004 C999 1.350 . S
C1005 H992 0.929 . S
C1005 C997 1.433 . S
C1005 N1007 1.384 . S
N1006 C1002 1.427 . S
N1006 C1003 1.384 . S
N1007 C999 1.427 . S
N1007 C1005 1.384 . S
H1008 C1014 0.930 . S
H1009 C1018 0.930 . S
H1010 C1023 0.929 . S
H1011 C1021 0.929 . S
H1012 C1016 0.929 . S
H1013 C1022 0.929 . S
C1014 H1008 0.930 . S
C1014 C1015 1.367 . S
C1014 C1022 1.378 . S
C1015 C1014 1.367 . S
C1015 C1023 1.433 . S
C1016 H1012 0.929 . S
C1016 C1018 1.378 . S
C1016 C1020 1.350 . S
C1017 C1020 1.463 . S
C1017 C1022 1.350 . S
C1017 N1025 1.427 . S
C1018 H1009 0.930 . S
C1018 C1016 1.378 . S
C1018 C1019 1.367 . S
C1019 C1018 1.367 . S
C1019 C1021 1.433 . S
C1020 C1016 1.350 . S
C1020 C1017 1.463 . S
C1020 N1024 1.427 . S
C1021 H1011 0.929 . S
C1021 C1019 1.433 . S
C1021 N1024 1.384 . S
C1022 H1013 0.929 . S
C1022 C1014 1.378 . S
C1022 C1017 1.350 . S
C1023 H1010 0.929 . S
C1023 C1015 1.433 . S
C1023 N1025 1.384 . S
N1024 C1020 1.427 . S
N1024 C1021 1.384 . S
N1025 C1017 1.427 . S
N1025 C1023 1.384 . S
H1026 C1032 0.930 . S
H1027 C1036 0.930 . S
H1028 C1041 0.929 . S
H1029 C1039 0.929 . S
H1030 C1034 0.929 . S
H1031 C1040 0.929 . S
C1032 H1026 0.930 . S
C1032 C1033 1.367 . S
C1032 C1040 1.378 . S
C1033 C1032 1.367 . S
C1033 C1041 1.433 . S
C1034 H1030 0.929 . S
C1034 C1036 1.378 . S
C1034 C1038 1.350 . S
C1035 C1038 1.463 . S
C1035 C1040 1.350 . S
C1035 N1043 1.427 . S
C1036 H1027 0.930 . S
C1036 C1034 1.378 . S
C1036 C1037 1.367 . S
C1037 C1036 1.367 . S
C1037 C1039 1.433 . S
C1038 C1034 1.350 . S
C1038 C1035 1.463 . S
C1038 N1042 1.427 . S
C1039 H1029 0.929 . S
C1039 C1037 1.433 . S
C1039 N1042 1.384 . S
C1040 H1031 0.929 . S
C1040 C1032 1.378 . S
C1040 C1035 1.350 . S
C1041 H1028 0.929 . S
C1041 C1033 1.433 . S
C1041 N1043 1.384 . S
N1042 C1038 1.427 . S
N1042 C1039 1.384 . S
N1043 C1035 1.427 . S
N1043 C1041 1.384 . S
H1044 C1050 0.930 . S
H1045 C1054 0.930 . S
H1046 C1059 0.929 . S
H1047 C1057 0.929 . S
H1048 C1052 0.929 . S
H1049 C1058 0.929 . S
C1050 H1044 0.930 . S
C1050 C1051 1.367 . S
C1050 C1058 1.378 . S
C1051 C1050 1.367 . S
C1051 C1059 1.433 . S
C1052 H1048 0.929 . S
C1052 C1054 1.378 . S
C1052 C1056 1.350 . S
C1053 C1056 1.463 . S
C1053 C1058 1.350 . S
C1053 N1061 1.427 . S
C1054 H1045 0.930 . S
C1054 C1052 1.378 . S
C1054 C1055 1.367 . S
C1055 C1054 1.367 . S
C1055 C1057 1.433 . S
C1056 C1052 1.350 . S
C1056 C1053 1.463 . S
C1056 N1060 1.427 . S
C1057 H1047 0.929 . S
C1057 C1055 1.433 . S
C1057 N1060 1.384 . S
C1058 H1049 0.929 . S
C1058 C1050 1.378 . S
C1058 C1053 1.350 . S
C1059 H1046 0.929 . S
C1059 C1051 1.433 . S
C1059 N1061 1.384 . S
N1060 C1056 1.427 . S
N1060 C1057 1.384 . S
N1061 C1053 1.427 . S
N1061 C1059 1.384 . S
H1062 C1068 0.930 . S
H1063 C1072 0.930 . S
H1064 C1077 0.929 . S
H1065 C1075 0.929 . S
H1066 C1070 0.929 . S
H1067 C1076 0.929 . S
C1068 H1062 0.930 . S
C1068 C1069 1.367 . S
C1068 C1076 1.378 . S
C1069 C1068 1.367 . S
C1069 C1077 1.433 . S
C1070 H1066 0.929 . S
C1070 C1072 1.378 . S
C1070 C1074 1.350 . S
C1071 C1074 1.463 . S
C1071 C1076 1.350 . S
C1071 N1079 1.427 . S
C1072 H1063 0.930 . S
C1072 C1070 1.378 . S
C1072 C1073 1.367 . S
C1073 C1072 1.367 . S
C1073 C1075 1.433 . S
C1074 C1070 1.350 . S
C1074 C1071 1.463 . S
C1074 N1078 1.427 . S
C1075 H1065 0.929 . S
C1075 C1073 1.433 . S
C1075 N1078 1.384 . S
C1076 H1067 0.929 . S
C1076 C1068 1.378 . S
C1076 C1071 1.350 . S
C1077 H1064 0.929 . S
C1077 C1069 1.433 . S
C1077 N1079 1.384 . S
N1078 C1074 1.427 . S
N1078 C1075 1.384 . S
N1079 C1071 1.427 . S
N1079 C1077 1.384 . S
H1080 C1086 0.930 1_545 S
H1081 C1090 0.930 . S
H1082 C1095 0.929 1_545 S
H1083 C1093 0.929 . S
H1084 C1088 0.929 . S
H1085 C1094 0.929 . S
C1086 H1080 0.930 1_565 S
C1086 C1087 1.367 1_565 S
C1086 C1094 1.378 . S
C1087 C1086 1.367 1_545 S
C1087 C1095 1.433 1_545 S
C1088 H1084 0.929 . S
C1088 C1090 1.378 . S
C1088 C1092 1.350 . S
C1089 C1092 1.463 . S
C1089 C1094 1.350 . S
C1089 N1097 1.427 . S
C1090 H1081 0.930 . S
C1090 C1088 1.378 . S
C1090 C1091 1.367 . S
C1091 C1090 1.367 . S
C1091 C1093 1.433 . S
C1092 C1088 1.350 . S
C1092 C1089 1.463 . S
C1092 N1096 1.427 . S
C1093 H1083 0.929 . S
C1093 C1091 1.433 . S
C1093 N1096 1.384 . S
C1094 H1085 0.929 . S
C1094 C1086 1.378 . S
C1094 C1089 1.350 . S
C1095 H1082 0.929 1_565 S
C1095 C1087 1.433 1_565 S
C1095 N1097 1.384 . S
N1096 C1092 1.427 . S
N1096 C1093 1.384 . S
N1097 C1089 1.427 . S
N1097 C1095 1.384 . S
H1098 C1104 0.930 . S
H1099 C1108 0.930 . S
H1100 C1113 0.929 . S
H1101 C1111 0.929 . S
H1102 C1106 0.929 . S
H1103 C1112 0.929 . S
C1104 H1098 0.930 . S
C1104 C1105 1.367 . S
C1104 C1112 1.378 . S
C1105 C1104 1.367 . S
C1105 C1113 1.433 . S
C1106 H1102 0.929 . S
C1106 C1108 1.378 . S
C1106 C1110 1.350 . S
C1107 C1110 1.463 . S
C1107 C1112 1.350 . S
C1107 N1115 1.427 . S
C1108 H1099 0.930 . S
C1108 C1106 1.378 . S
C1108 C1109 1.367 . S
C1109 C1108 1.367 . S
C1109 C1111 1.433 . S
C1110 C1106 1.350 . S
C1110 C1107 1.463 . S
C1110 N1114 1.427 . S
C1111 H1101 0.929 . S
C1111 C1109 1.433 . S
C1111 N1114 1.384 . S
C1112 H1103 0.929 . S
C1112 C1104 1.378 . S
C1112 C1107 1.350 . S
C1113 H1100 0.929 . S
C1113 C1105 1.433 . S
C1113 N1115 1.384 . S
N1114 C1110 1.427 . S
N1114 C1111 1.384 . S
N1115 C1107 1.427 . S
N1115 C1113 1.384 . S
H1116 C1122 0.930 . S
H1117 C1126 0.930 . S
H1118 C1131 0.929 . S
H1119 C1129 0.929 . S
H1120 C1124 0.929 . S
H1121 C1130 0.929 . S
C1122 H1116 0.930 . S
C1122 C1123 1.367 . S
C1122 C1130 1.378 . S
C1123 C1122 1.367 . S
C1123 C1131 1.433 . S
C1124 H1120 0.929 . S
C1124 C1126 1.378 . S
C1124 C1128 1.350 . S
C1125 C1128 1.463 . S
C1125 C1130 1.350 . S
C1125 N1133 1.427 . S
C1126 H1117 0.930 . S
C1126 C1124 1.378 . S
C1126 C1127 1.367 . S
C1127 C1126 1.367 . S
C1127 C1129 1.433 . S
C1128 C1124 1.350 . S
C1128 C1125 1.463 . S
C1128 N1132 1.427 . S
C1129 H1119 0.929 . S
C1129 C1127 1.433 . S
C1129 N1132 1.384 . S
C1130 H1121 0.929 . S
C1130 C1122 1.378 . S
C1130 C1125 1.350 . S
C1131 H1118 0.929 . S
C1131 C1123 1.433 . S
C1131 N1133 1.384 . S
N1132 C1128 1.427 . S
N1132 C1129 1.384 . S
N1133 C1125 1.427 . S
N1133 C1131 1.384 . S
H1134 C1140 0.930 . S
H1135 C1144 0.930 . S
H1136 C1149 0.929 . S
H1137 C1147 0.929 . S
H1138 C1142 0.929 . S
H1139 C1148 0.929 . S
C1140 H1134 0.930 . S
C1140 C1141 1.367 . S
C1140 C1148 1.378 . S
C1141 C1140 1.367 . S
C1141 C1149 1.433 . S
C1142 H1138 0.929 . S
C1142 C1144 1.378 . S
C1142 C1146 1.350 . S
C1143 C1146 1.463 . S
C1143 C1148 1.350 . S
C1143 N1151 1.427 . S
C1144 H1135 0.930 . S
C1144 C1142 1.378 . S
C1144 C1145 1.367 . S
C1145 C1144 1.367 . S
C1145 C1147 1.433 . S
C1146 C1142 1.350 . S
C1146 C1143 1.463 . S
C1146 N1150 1.427 . S
C1147 H1137 0.929 . S
C1147 C1145 1.433 . S
C1147 N1150 1.384 . S
C1148 H1139 0.929 . S
C1148 C1140 1.378 . S
C1148 C1143 1.350 . S
C1149 H1136 0.929 . S
C1149 C1141 1.433 . S
C1149 N1151 1.384 . S
N1150 C1146 1.427 . S
N1150 C1147 1.384 . S
N1151 C1143 1.427 . S
N1151 C1149 1.384 . S
H1152 C1158 0.930 . S
H1153 C1162 0.930 . S
H1154 C1167 0.929 . S
H1155 C1165 0.929 . S
H1156 C1160 0.929 . S
H1157 C1166 0.929 . S
C1158 H1152 0.930 . S
C1158 C1159 1.367 . S
C1158 C1166 1.378 . S
C1159 C1158 1.367 . S
C1159 C1167 1.433 . S
C1160 H1156 0.929 . S
C1160 C1162 1.378 . S
C1160 C1164 1.350 . S
C1161 C1164 1.463 . S
C1161 C1166 1.350 . S
C1161 N1169 1.427 . S
C1162 H1153 0.930 . S
C1162 C1160 1.378 . S
C1162 C1163 1.367 . S
C1163 C1162 1.367 . S
C1163 C1165 1.433 . S
C1164 C1160 1.350 . S
C1164 C1161 1.463 . S
C1164 N1168 1.427 . S
C1165 H1155 0.929 . S
C1165 C1163 1.433 . S
C1165 N1168 1.384 . S
C1166 H1157 0.929 . S
C1166 C1158 1.378 . S
C1166 C1161 1.350 . S
C1167 H1154 0.929 . S
C1167 C1159 1.433 . S
C1167 N1169 1.384 . S
N1168 C1164 1.427 . S
N1168 C1165 1.384 . S
N1169 C1161 1.427 . S
N1169 C1167 1.384 . S
H1170 C1176 0.930 . S
H1171 C1180 0.930 . S
H1172 C1185 0.929 . S
H1173 C1183 0.929 . S
H1174 C1178 0.929 . S
H1175 C1184 0.929 . S
C1176 H1170 0.930 . S
C1176 C1177 1.367 . S
C1176 C1184 1.378 . S
C1177 C1176 1.367 . S
C1177 C1185 1.433 . S
C1178 H1174 0.929 . S
C1178 C1180 1.378 . S
C1178 C1182 1.350 . S
C1179 C1182 1.463 . S
C1179 C1184 1.350 . S
C1179 N1187 1.427 . S
C1180 H1171 0.930 . S
C1180 C1178 1.378 . S
C1180 C1181 1.367 . S
C1181 C1180 1.367 . S
C1181 C1183 1.433 . S
C1182 C1178 1.350 . S
C1182 C1179 1.463 . S
C1182 N1186 1.427 . S
C1183 H1173 0.929 . S
C1183 C1181 1.433 . S
C1183 N1186 1.384 . S
C1184 H1175 0.929 . S
C1184 C1176 1.378 . S
C1184 C1179 1.350 . S
C1185 H1172 0.929 . S
C1185 C1177 1.433 . S
C1185 N1187 1.384 . S
N1186 C1182 1.427 . S
N1186 C1183 1.384 . S
N1187 C1179 1.427 . S
N1187 C1185 1.384 . S
H1188 C1194 0.930 . S
H1189 C1198 0.930 . S
H1190 C1203 0.929 . S
H1191 C1201 0.929 . S
H1192 C1196 0.929 . S
H1193 C1202 0.929 . S
C1194 H1188 0.930 . S
C1194 C1195 1.367 . S
C1194 C1202 1.378 . S
C1195 C1194 1.367 . S
C1195 C1203 1.433 . S
C1196 H1192 0.929 . S
C1196 C1198 1.378 . S
C1196 C1200 1.350 . S
C1197 C1200 1.463 1_565 S
C1197 C1202 1.350 . S
C1197 N1205 1.427 . S
C1198 H1189 0.930 . S
C1198 C1196 1.378 . S
C1198 C1199 1.367 . S
C1199 C1198 1.367 . S
C1199 C1201 1.433 . S
C1200 C1196 1.350 . S
C1200 C1197 1.463 1_545 S
C1200 N1204 1.427 . S
C1201 H1191 0.929 . S
C1201 C1199 1.433 . S
C1201 N1204 1.384 . S
C1202 H1193 0.929 . S
C1202 C1194 1.378 . S
C1202 C1197 1.350 . S
C1203 H1190 0.929 . S
C1203 C1195 1.433 . S
C1203 N1205 1.384 . S
N1204 C1200 1.427 . S
N1204 C1201 1.384 . S
N1205 C1197 1.427 . S
N1205 C1203 1.384 . S
H1206 C1212 0.930 . S
H1207 C1216 0.930 . S
H1208 C1221 0.929 . S
H1209 C1219 0.929 . S
H1210 C1214 0.929 1_455 S
H1211 C1220 0.911 1_655 S
C1212 H1206 0.930 . S
C1212 C1213 1.367 . S
C1212 C1220 1.378 . S
C1213 C1212 1.367 . S
C1213 C1221 1.433 . S
C1214 H1210 0.929 1_655 S
C1214 C1216 1.378 . S
C1214 C1218 1.350 . S
C1215 C1218 1.463 1_455 S
C1215 C1220 1.350 . S
C1215 N1223 1.427 . S
C1216 H1207 0.930 . S
C1216 C1214 1.378 . S
C1216 C1217 1.367 . S
C1217 C1216 1.367 . S
C1217 C1219 1.433 . S
C1218 C1214 1.350 . S
C1218 C1215 1.463 1_655 S
C1218 N1222 1.427 . S
C1219 H1209 0.929 . S
C1219 C1217 1.433 . S
C1219 N1222 1.384 . S
C1220 H1211 0.911 1_455 S
C1220 C1212 1.378 . S
C1220 C1215 1.350 . S
C1221 H1208 0.929 . S
C1221 C1213 1.433 . S
C1221 N1223 1.384 . S
N1222 C1218 1.427 . S
N1222 C1219 1.384 . S
N1223 C1215 1.427 . S
N1223 C1221 1.384 . S
H1224 C1230 0.930 . S
H1225 C1234 0.930 . S
H1226 C1239 0.929 . S
H1227 C1237 0.929 . S
H1228 C1232 0.929 . S
H1229 C1238 0.929 . S
C1230 H1224 0.930 . S
C1230 C1231 1.367 . S
C1230 C1238 1.378 . S
C1231 C1230 1.367 . S
C1231 C1239 1.433 . S
C1232 H1228 0.929 . S
C1232 C1234 1.378 . S
C1232 C1236 1.350 . S
C1233 C1236 1.463 . S
C1233 C1238 1.350 . S
C1233 N1241 1.427 . S
C1234 H1225 0.930 . S
C1234 C1232 1.378 . S
C1234 C1235 1.367 . S
C1235 C1234 1.367 . S
C1235 C1237 1.433 . S
C1236 C1232 1.350 . S
C1236 C1233 1.463 . S
C1236 N1240 1.427 . S
C1237 H1227 0.929 . S
C1237 C1235 1.433 . S
C1237 N1240 1.384 . S
C1238 H1229 0.929 . S
C1238 C1230 1.378 . S
C1238 C1233 1.350 . S
C1239 H1226 0.929 . S
C1239 C1231 1.433 . S
C1239 N1241 1.384 . S
N1240 C1236 1.427 . S
N1240 C1237 1.384 . S
N1241 C1233 1.427 . S
N1241 C1239 1.384 . S
H1242 C1248 0.922 1_455 S
H1243 C1252 0.930 . S
H1244 C1257 0.929 . S
H1245 C1255 0.929 . S
H1246 C1250 0.929 . S
H1247 C1256 0.929 . S
C1248 H1242 0.922 1_655 S
C1248 C1249 1.340 1_655 S
C1248 C1256 1.415 . S
C1249 C1248 1.340 1_455 S
C1249 C1257 1.433 1_455 S
C1250 H1246 0.929 . S
C1250 C1252 1.378 . S
C1250 C1254 1.350 . S
C1251 C1254 1.463 . S
C1251 C1256 1.350 . S
C1251 N1259 1.427 . S
C1252 H1243 0.930 . S
C1252 C1250 1.378 . S
C1252 C1253 1.367 . S
C1253 C1252 1.367 . S
C1253 C1255 1.433 . S
C1254 C1250 1.350 . S
C1254 C1251 1.463 . S
C1254 N1258 1.427 . S
C1255 H1245 0.929 . S
C1255 C1253 1.433 . S
C1255 N1258 1.384 . S
C1256 H1247 0.929 . S
C1256 C1248 1.415 . S
C1256 C1251 1.350 . S
C1257 H1244 0.929 . S
C1257 C1249 1.433 1_655 S
C1257 N1259 1.384 . S
N1258 C1254 1.427 . S
N1258 C1255 1.384 . S
N1259 C1251 1.427 . S
N1259 C1257 1.384 . S
H1260 C1266 0.930 . S
H1261 C1270 0.930 . S
H1262 C1275 0.929 . S
H1263 C1273 0.929 . S
H1264 C1268 0.929 . S
H1265 C1274 0.929 . S
C1266 H1260 0.930 . S
C1266 C1267 1.367 . S
C1266 C1274 1.378 . S
C1267 C1266 1.367 . S
C1267 C1275 1.433 . S
C1268 H1264 0.929 . S
C1268 C1270 1.378 . S
C1268 C1272 1.350 . S
C1269 C1272 1.463 . S
C1269 C1274 1.350 . S
C1269 N1277 1.427 . S
C1270 H1261 0.930 . S
C1270 C1268 1.378 . S
C1270 C1271 1.367 . S
C1271 C1270 1.367 . S
C1271 C1273 1.433 . S
C1272 C1268 1.350 . S
C1272 C1269 1.463 . S
C1272 N1276 1.427 . S
C1273 H1263 0.929 . S
C1273 C1271 1.433 . S
C1273 N1276 1.384 . S
C1274 H1265 0.929 . S
C1274 C1266 1.378 . S
C1274 C1269 1.350 . S
C1275 H1262 0.929 . S
C1275 C1267 1.433 . S
C1275 N1277 1.384 . S
N1276 C1272 1.427 . S
N1276 C1273 1.384 . S
N1277 C1269 1.427 . S
N1277 C1275 1.384 . S
H1278 C1284 0.930 1_565 S
H1279 C1288 0.930 . S
H1280 C1293 0.925 . S
H1281 C1291 0.929 . S
H1282 C1286 0.929 . S
H1283 C1292 0.929 . S
C1284 H1278 0.930 1_545 S
C1284 C1285 1.367 1_545 S
C1284 C1292 1.378 . S
C1285 C1284 1.367 1_565 S
C1285 C1293 1.433 1_565 S
C1286 H1282 0.929 . S
C1286 C1288 1.378 . S
C1286 C1290 1.350 . S
C1287 C1290 1.463 . S
C1287 C1292 1.350 . S
C1287 N1295 1.427 . S
C1288 H1279 0.930 . S
C1288 C1286 1.378 . S
C1288 C1289 1.367 . S
C1289 C1288 1.367 . S
C1289 C1291 1.433 . S
C1290 C1286 1.350 . S
C1290 C1287 1.463 . S
C1290 N1294 1.427 . S
C1291 H1281 0.929 . S
C1291 C1289 1.433 . S
C1291 N1294 1.384 . S
C1292 H1283 0.929 . S
C1292 C1284 1.378 . S
C1292 C1287 1.350 . S
C1293 H1280 0.925 . S
C1293 C1285 1.433 1_545 S
C1293 N1295 1.384 . S
N1294 C1290 1.427 . S
N1294 C1291 1.384 . S
N1295 C1287 1.427 . S
N1295 C1293 1.384 . S
H1296 C1302 0.930 . S
H1297 C1306 0.930 . S
H1298 C1311 0.929 . S
H1299 C1309 0.929 . S
H1300 C1304 0.929 . S
H1301 C1310 0.929 . S
C1302 H1296 0.930 . S
C1302 C1303 1.367 . S
C1302 C1310 1.378 . S
C1303 C1302 1.367 . S
C1303 C1311 1.433 . S
C1304 H1300 0.929 . S
C1304 C1306 1.378 . S
C1304 C1308 1.350 . S
C1305 C1308 1.463 . S
C1305 C1310 1.350 . S
C1305 N1313 1.427 . S
C1306 H1297 0.930 . S
C1306 C1304 1.378 . S
C1306 C1307 1.367 . S
C1307 C1306 1.367 . S
C1307 C1309 1.433 . S
C1308 C1304 1.350 . S
C1308 C1305 1.463 . S
C1308 N1312 1.427 . S
C1309 H1299 0.929 . S
C1309 C1307 1.433 . S
C1309 N1312 1.384 . S
C1310 H1301 0.929 . S
C1310 C1302 1.378 . S
C1310 C1305 1.350 . S
C1311 H1298 0.929 . S
C1311 C1303 1.433 . S
C1311 N1313 1.384 . S
N1312 C1308 1.427 . S
N1312 C1309 1.384 . S
N1313 C1305 1.427 . S
N1313 C1311 1.384 . S
H1314 C1320 0.930 . S
H1315 C1324 0.930 . S
H1316 C1329 0.929 . S
H1317 C1327 0.929 . S
H1318 C1322 0.929 . S
H1319 C1328 0.929 . S
C1320 H1314 0.930 . S
C1320 C1321 1.367 . S
C1320 C1328 1.378 . S
C1321 C1320 1.367 . S
C1321 C1329 1.433 . S
C1322 H1318 0.929 . S
C1322 C1324 1.378 . S
C1322 C1326 1.350 . S
C1323 C1326 1.463 . S
C1323 C1328 1.350 . S
C1323 N1331 1.427 . S
C1324 H1315 0.930 . S
C1324 C1322 1.378 . S
C1324 C1325 1.367 . S
C1325 C1324 1.367 . S
C1325 C1327 1.433 . S
C1326 C1322 1.350 . S
C1326 C1323 1.463 . S
C1326 N1330 1.427 . S
C1327 H1317 0.929 . S
C1327 C1325 1.433 . S
C1327 N1330 1.384 . S
C1328 H1319 0.929 . S
C1328 C1320 1.378 . S
C1328 C1323 1.350 . S
C1329 H1316 0.929 . S
C1329 C1321 1.433 . S
C1329 N1331 1.384 . S
N1330 C1326 1.427 . S
N1330 C1327 1.384 . S
N1331 C1323 1.427 . S
N1331 C1329 1.384 . S
H1332 C1338 0.930 . S
H1333 C1342 0.930 . S
H1334 C1347 0.929 . S
H1335 C1345 0.929 . S
H1336 C1340 0.929 . S
H1337 C1346 0.929 . S
C1338 H1332 0.930 . S
C1338 C1339 1.367 . S
C1338 C1346 1.378 . S
C1339 C1338 1.367 . S
C1339 C1347 1.433 . S
C1340 H1336 0.929 . S
C1340 C1342 1.378 . S
C1340 C1344 1.350 . S
C1341 C1344 1.463 . S
C1341 C1346 1.350 . S
C1341 N1349 1.427 . S
C1342 H1333 0.930 . S
C1342 C1340 1.378 . S
C1342 C1343 1.367 . S
C1343 C1342 1.367 . S
C1343 C1345 1.433 . S
C1344 C1340 1.350 . S
C1344 C1341 1.463 . S
C1344 N1348 1.427 . S
C1345 H1335 0.929 . S
C1345 C1343 1.433 . S
C1345 N1348 1.384 . S
C1346 H1337 0.929 . S
C1346 C1338 1.378 . S
C1346 C1341 1.350 . S
C1347 H1334 0.929 . S
C1347 C1339 1.433 . S
C1347 N1349 1.384 . S
N1348 C1344 1.427 . S
N1348 C1345 1.384 . S
N1349 C1341 1.427 . S
N1349 C1347 1.384 . S
H1350 C1356 0.930 . S
H1351 C1360 0.930 . S
H1352 C1365 0.929 . S
H1353 C1363 0.929 . S
H1354 C1358 0.929 . S
H1355 C1364 0.929 . S
C1356 H1350 0.930 . S
C1356 C1357 1.367 . S
C1356 C1364 1.378 . S
C1357 C1356 1.367 . S
C1357 C1365 1.433 . S
C1358 H1354 0.929 . S
C1358 C1360 1.378 . S
C1358 C1362 1.350 . S
C1359 C1362 1.463 . S
C1359 C1364 1.350 . S
C1359 N1367 1.427 . S
C1360 H1351 0.930 . S
C1360 C1358 1.378 . S
C1360 C1361 1.367 . S
C1361 C1360 1.367 . S
C1361 C1363 1.433 . S
C1362 C1358 1.350 . S
C1362 C1359 1.463 . S
C1362 N1366 1.427 . S
C1363 H1353 0.929 . S
C1363 C1361 1.433 . S
C1363 N1366 1.384 . S
C1364 H1355 0.929 . S
C1364 C1356 1.378 . S
C1364 C1359 1.350 . S
C1365 H1352 0.929 . S
C1365 C1357 1.433 . S
C1365 N1367 1.384 . S
N1366 C1362 1.427 . S
N1366 C1363 1.384 . S
N1367 C1359 1.427 . S
N1367 C1365 1.384 . S
H1368 C1374 0.930 . S
H1369 C1378 0.930 . S
H1370 C1383 0.929 . S
H1371 C1381 0.929 . S
H1372 C1376 0.929 . S
H1373 C1382 0.929 . S
C1374 H1368 0.930 . S
C1374 C1375 1.367 . S
C1374 C1382 1.378 . S
C1375 C1374 1.367 . S
C1375 C1383 1.433 . S
C1376 H1372 0.929 . S
C1376 C1378 1.378 . S
C1376 C1380 1.350 . S
C1377 C1380 1.463 . S
C1377 C1382 1.350 . S
C1377 N1385 1.427 . S
C1378 H1369 0.930 . S
C1378 C1376 1.378 . S
C1378 C1379 1.367 . S
C1379 C1378 1.367 . S
C1379 C1381 1.433 . S
C1380 C1376 1.350 . S
C1380 C1377 1.463 . S
C1380 N1384 1.427 . S
C1381 H1371 0.929 . S
C1381 C1379 1.433 . S
C1381 N1384 1.384 . S
C1382 H1373 0.929 . S
C1382 C1374 1.378 . S
C1382 C1377 1.350 . S
C1383 H1370 0.929 . S
C1383 C1375 1.433 . S
C1383 N1385 1.384 . S
N1384 C1380 1.427 . S
N1384 C1381 1.384 . S
N1385 C1377 1.427 . S
N1385 C1383 1.384 . S
H1386 C1392 0.930 . S
H1387 C1396 0.930 . S
H1388 C1401 0.929 . S
H1389 C1399 0.929 . S
H1390 C1394 0.929 . S
H1391 C1400 0.929 . S
C1392 H1386 0.930 . S
C1392 C1393 1.367 . S
C1392 C1400 1.378 . S
C1393 C1392 1.367 . S
C1393 C1401 1.433 . S
C1394 H1390 0.929 . S
C1394 C1396 1.378 . S
C1394 C1398 1.350 . S
C1395 C1398 1.463 . S
C1395 C1400 1.350 . S
C1395 N1403 1.427 . S
C1396 H1387 0.930 . S
C1396 C1394 1.378 . S
C1396 C1397 1.367 . S
C1397 C1396 1.367 . S
C1397 C1399 1.433 . S
C1398 C1394 1.350 . S
C1398 C1395 1.463 . S
C1398 N1402 1.427 . S
C1399 H1389 0.929 . S
C1399 C1397 1.433 . S
C1399 N1402 1.384 . S
C1400 H1391 0.929 . S
C1400 C1392 1.378 . S
C1400 C1395 1.350 . S
C1401 H1388 0.929 . S
C1401 C1393 1.433 . S
C1401 N1403 1.384 . S
N1402 C1398 1.427 . S
N1402 C1399 1.384 . S
N1403 C1395 1.427 . S
N1403 C1401 1.384 . S
H1404 C1410 0.930 . S
H1405 C1414 0.930 . S
H1406 C1419 0.929 . S
H1407 C1417 0.929 . S
H1408 C1412 0.929 . S
H1409 C1418 0.929 . S
C1410 H1404 0.930 . S
C1410 C1411 1.367 . S
C1410 C1418 1.378 . S
C1411 C1410 1.367 . S
C1411 C1419 1.433 . S
C1412 H1408 0.929 . S
C1412 C1414 1.378 . S
C1412 C1416 1.350 . S
C1413 C1416 1.463 . S
C1413 C1418 1.350 . S
C1413 N1421 1.427 . S
C1414 H1405 0.930 . S
C1414 C1412 1.378 . S
C1414 C1415 1.367 . S
C1415 C1414 1.367 . S
C1415 C1417 1.433 . S
C1416 C1412 1.350 . S
C1416 C1413 1.463 . S
C1416 N1420 1.427 . S
C1417 H1407 0.929 . S
C1417 C1415 1.433 . S
C1417 N1420 1.384 . S
C1418 H1409 0.929 . S
C1418 C1410 1.378 . S
C1418 C1413 1.350 . S
C1419 H1406 0.929 . S
C1419 C1411 1.433 . S
C1419 N1421 1.384 . S
N1420 C1416 1.427 . S
N1420 C1417 1.384 . S
N1421 C1413 1.427 . S
N1421 C1419 1.384 . S
H1422 C1428 0.930 . S
H1423 C1432 0.930 . S
H1424 C1437 0.929 . S
H1425 C1435 0.929 . S
H1426 C1430 0.929 . S
H1427 C1436 0.929 . S
C1428 H1422 0.930 . S
C1428 C1429 1.367 . S
C1428 C1436 1.378 . S
C1429 C1428 1.367 . S
C1429 C1437 1.433 . S
C1430 H1426 0.929 . S
C1430 C1432 1.378 . S
C1430 C1434 1.350 . S
C1431 C1434 1.463 . S
C1431 C1436 1.350 . S
C1431 N1439 1.427 . S
C1432 H1423 0.930 . S
C1432 C1430 1.378 . S
C1432 C1433 1.367 . S
C1433 C1432 1.367 . S
C1433 C1435 1.433 . S
C1434 C1430 1.350 . S
C1434 C1431 1.463 . S
C1434 N1438 1.427 . S
C1435 H1425 0.929 . S
C1435 C1433 1.433 . S
C1435 N1438 1.384 . S
C1436 H1427 0.929 . S
C1436 C1428 1.378 . S
C1436 C1431 1.350 . S
C1437 H1424 0.929 . S
C1437 C1429 1.433 . S
C1437 N1439 1.384 . S
N1438 C1434 1.427 . S
N1438 C1435 1.384 . S
N1439 C1431 1.427 . S
N1439 C1437 1.384 . S
H1440 C1446 0.930 . S
H1441 C1450 0.930 . S
H1442 C1455 0.929 . S
H1443 C1453 0.929 . S
H1444 C1448 0.929 . S
H1445 C1454 0.929 . S
C1446 H1440 0.930 . S
C1446 C1447 1.367 . S
C1446 C1454 1.378 . S
C1447 C1446 1.367 . S
C1447 C1455 1.433 . S
C1448 H1444 0.929 . S
C1448 C1450 1.378 . S
C1448 C1452 1.350 . S
C1449 C1452 1.463 . S
C1449 C1454 1.350 . S
C1449 N1457 1.427 . S
C1450 H1441 0.930 . S
C1450 C1448 1.378 . S
C1450 C1451 1.367 . S
C1451 C1450 1.367 . S
C1451 C1453 1.433 . S
C1452 C1448 1.350 . S
C1452 C1449 1.463 . S
C1452 N1456 1.427 . S
C1453 H1443 0.929 . S
C1453 C1451 1.433 . S
C1453 N1456 1.384 . S
C1454 H1445 0.929 . S
C1454 C1446 1.378 . S
C1454 C1449 1.350 . S
C1455 H1442 0.929 . S
C1455 C1447 1.433 . S
C1455 N1457 1.384 . S
N1456 C1452 1.427 . S
N1456 C1453 1.384 . S
N1457 C1449 1.427 . S
N1457 C1455 1.384 . S
H1458 C1464 0.930 . S
H1459 C1468 0.930 . S
H1460 C1473 0.929 . S
H1461 C1471 0.929 . S
H1462 C1466 0.929 . S
H1463 C1472 0.929 . S
C1464 H1458 0.930 . S
C1464 C1465 1.367 . S
C1464 C1472 1.378 . S
C1465 C1464 1.367 . S
C1465 C1473 1.433 . S
C1466 H1462 0.929 . S
C1466 C1468 1.378 . S
C1466 C1470 1.350 . S
C1467 C1470 1.463 . S
C1467 C1472 1.350 . S
C1467 N1475 1.427 . S
C1468 H1459 0.930 . S
C1468 C1466 1.378 . S
C1468 C1469 1.367 . S
C1469 C1468 1.367 . S
C1469 C1471 1.433 . S
C1470 C1466 1.350 . S
C1470 C1467 1.463 . S
C1470 N1474 1.427 . S
C1471 H1461 0.929 . S
C1471 C1469 1.433 . S
C1471 N1474 1.384 . S
C1472 H1463 0.929 . S
C1472 C1464 1.378 . S
C1472 C1467 1.350 . S
C1473 H1460 0.929 . S
C1473 C1465 1.433 . S
C1473 N1475 1.384 . S
N1474 C1470 1.427 . S
N1474 C1471 1.384 . S
N1475 C1467 1.427 . S
N1475 C1473 1.384 . S
H1476 C1482 0.930 . S
H1477 C1486 0.930 . S
H1478 C1491 0.929 . S
H1479 C1489 0.929 . S
H1480 C1484 0.929 . S
H1481 C1490 0.929 . S
C1482 H1476 0.930 . S
C1482 C1483 1.367 . S
C1482 C1490 1.378 . S
C1483 C1482 1.367 . S
C1483 C1491 1.433 . S
C1484 H1480 0.929 . S
C1484 C1486 1.378 . S
C1484 C1488 1.350 . S
C1485 C1488 1.463 . S
C1485 C1490 1.350 . S
C1485 N1493 1.427 . S
C1486 H1477 0.930 . S
C1486 C1484 1.378 . S
C1486 C1487 1.367 . S
C1487 C1486 1.367 . S
C1487 C1489 1.433 . S
C1488 C1484 1.350 . S
C1488 C1485 1.463 . S
C1488 N1492 1.427 . S
C1489 H1479 0.929 . S
C1489 C1487 1.433 . S
C1489 N1492 1.384 . S
C1490 H1481 0.929 . S
C1490 C1482 1.378 . S
C1490 C1485 1.350 . S
C1491 H1478 0.929 . S
C1491 C1483 1.433 . S
C1491 N1493 1.384 . S
N1492 C1488 1.427 . S
N1492 C1489 1.384 . S
N1493 C1485 1.427 . S
N1493 C1491 1.384 . S
H1494 C1500 0.930 . S
H1495 C1504 0.930 . S
H1496 C1509 0.929 . S
H1497 C1507 0.929 . S
H1498 C1502 0.929 . S
H1499 C1508 0.929 . S
C1500 H1494 0.930 . S
C1500 C1501 1.367 . S
C1500 C1508 1.378 . S
C1501 C1500 1.367 . S
C1501 C1509 1.433 . S
C1502 H1498 0.929 . S
C1502 C1504 1.378 . S
C1502 C1506 1.350 . S
C1503 C1506 1.463 . S
C1503 C1508 1.350 . S
C1503 N1511 1.427 . S
C1504 H1495 0.930 . S
C1504 C1502 1.378 . S
C1504 C1505 1.367 . S
C1505 C1504 1.367 . S
C1505 C1507 1.433 . S
C1506 C1502 1.350 . S
C1506 C1503 1.463 . S
C1506 N1510 1.427 . S
C1507 H1497 0.929 . S
C1507 C1505 1.433 . S
C1507 N1510 1.384 . S
C1508 H1499 0.929 . S
C1508 C1500 1.378 . S
C1508 C1503 1.350 . S
C1509 H1496 0.929 . S
C1509 C1501 1.433 . S
C1509 N1511 1.384 . S
N1510 C1506 1.427 . S
N1510 C1507 1.384 . S
N1511 C1503 1.427 . S
N1511 C1509 1.384 . S
H1512 C1518 0.930 . S
H1513 C1522 0.930 . S
H1514 C1527 0.929 . S
H1515 C1525 0.929 . S
H1516 C1520 0.929 . S
H1517 C1526 0.929 . S
C1518 H1512 0.930 . S
C1518 C1519 1.367 . S
C1518 C1526 1.378 . S
C1519 C1518 1.367 . S
C1519 C1527 1.433 . S
C1520 H1516 0.929 . S
C1520 C1522 1.378 . S
C1520 C1524 1.350 . S
C1521 C1524 1.463 . S
C1521 C1526 1.350 . S
C1521 N1529 1.427 . S
C1522 H1513 0.930 . S
C1522 C1520 1.378 . S
C1522 C1523 1.367 . S
C1523 C1522 1.367 . S
C1523 C1525 1.433 . S
C1524 C1520 1.350 . S
C1524 C1521 1.463 . S
C1524 N1528 1.427 . S
C1525 H1515 0.929 . S
C1525 C1523 1.433 . S
C1525 N1528 1.384 . S
C1526 H1517 0.929 . S
C1526 C1518 1.378 . S
C1526 C1521 1.350 . S
C1527 H1514 0.929 . S
C1527 C1519 1.433 . S
C1527 N1529 1.384 . S
N1528 C1524 1.427 . S
N1528 C1525 1.384 . S
N1529 C1521 1.427 . S
N1529 C1527 1.384 . S
H1530 C1536 0.930 . S
H1531 C1540 0.930 . S
H1532 C1545 0.929 . S
H1533 C1543 0.929 . S
H1534 C1538 0.929 . S
H1535 C1544 0.929 . S
C1536 H1530 0.930 . S
C1536 C1537 1.367 . S
C1536 C1544 1.378 . S
C1537 C1536 1.367 . S
C1537 C1545 1.433 . S
C1538 H1534 0.929 . S
C1538 C1540 1.378 . S
C1538 C1542 1.350 . S
C1539 C1542 1.463 . S
C1539 C1544 1.350 . S
C1539 N1547 1.427 . S
C1540 H1531 0.930 . S
C1540 C1538 1.378 . S
C1540 C1541 1.367 . S
C1541 C1540 1.367 . S
C1541 C1543 1.433 . S
C1542 C1538 1.350 . S
C1542 C1539 1.463 . S
C1542 N1546 1.427 . S
C1543 H1533 0.929 . S
C1543 C1541 1.433 . S
C1543 N1546 1.384 . S
C1544 H1535 0.929 . S
C1544 C1536 1.378 . S
C1544 C1539 1.350 . S
C1545 H1532 0.929 . S
C1545 C1537 1.433 . S
C1545 N1547 1.384 . S
N1546 C1542 1.427 . S
N1546 C1543 1.384 . S
N1547 C1539 1.427 . S
N1547 C1545 1.384 . S
H1548 C1554 0.930 . S
H1549 C1558 0.930 . S
H1550 C1563 0.929 . S
H1551 C1561 0.929 . S
H1552 C1556 0.929 . S
H1553 C1562 0.929 . S
C1554 H1548 0.930 . S
C1554 C1555 1.367 . S
C1554 C1562 1.378 . S
C1555 C1554 1.367 . S
C1555 C1563 1.433 . S
C1556 H1552 0.929 . S
C1556 C1558 1.378 . S
C1556 C1560 1.350 . S
C1557 C1560 1.463 . S
C1557 C1562 1.350 . S
C1557 N1565 1.427 . S
C1558 H1549 0.930 . S
C1558 C1556 1.378 . S
C1558 C1559 1.367 . S
C1559 C1558 1.367 . S
C1559 C1561 1.433 . S
C1560 C1556 1.350 . S
C1560 C1557 1.463 . S
C1560 N1564 1.427 . S
C1561 H1551 0.929 . S
C1561 C1559 1.433 . S
C1561 N1564 1.384 . S
C1562 H1553 0.929 . S
C1562 C1554 1.378 . S
C1562 C1557 1.350 . S
C1563 H1550 0.929 . S
C1563 C1555 1.433 . S
C1563 N1565 1.384 . S
N1564 C1560 1.427 . S
N1564 C1561 1.384 . S
N1565 C1557 1.427 . S
N1565 C1563 1.384 . S
H1566 C1572 0.930 . S
H1567 C1576 0.930 . S
H1568 C1581 0.929 . S
H1569 C1579 0.929 . S
H1570 C1574 0.929 . S
H1571 C1580 0.929 . S
C1572 H1566 0.930 . S
C1572 C1573 1.367 . S
C1572 C1580 1.378 . S
C1573 C1572 1.367 . S
C1573 C1581 1.433 . S
C1574 H1570 0.929 . S
C1574 C1576 1.378 . S
C1574 C1578 1.350 . S
C1575 C1578 1.463 . S
C1575 C1580 1.350 . S
C1575 N1583 1.427 . S
C1576 H1567 0.930 . S
C1576 C1574 1.378 . S
C1576 C1577 1.367 . S
C1577 C1576 1.367 . S
C1577 C1579 1.433 . S
C1578 C1574 1.350 . S
C1578 C1575 1.463 . S
C1578 N1582 1.427 . S
C1579 H1569 0.929 . S
C1579 C1577 1.433 . S
C1579 N1582 1.384 . S
C1580 H1571 0.929 . S
C1580 C1572 1.378 . S
C1580 C1575 1.350 . S
C1581 H1568 0.929 . S
C1581 C1573 1.433 . S
C1581 N1583 1.384 . S
N1582 C1578 1.427 . S
N1582 C1579 1.384 . S
N1583 C1575 1.427 . S
N1583 C1581 1.384 . S
H1584 C1590 0.930 . S
H1585 C1594 0.930 . S
H1586 C1599 0.929 . S
H1587 C1597 0.929 . S
H1588 C1592 0.929 . S
H1589 C1598 0.929 . S
C1590 H1584 0.930 . S
C1590 C1591 1.367 . S
C1590 C1598 1.378 . S
C1591 C1590 1.367 . S
C1591 C1599 1.433 . S
C1592 H1588 0.929 . S
C1592 C1594 1.378 . S
C1592 C1596 1.350 . S
C1593 C1596 1.463 . S
C1593 C1598 1.350 . S
C1593 N1601 1.427 . S
C1594 H1585 0.930 . S
C1594 C1592 1.378 . S
C1594 C1595 1.367 . S
C1595 C1594 1.367 . S
C1595 C1597 1.433 . S
C1596 C1592 1.350 . S
C1596 C1593 1.463 . S
C1596 N1600 1.427 . S
C1597 H1587 0.929 . S
C1597 C1595 1.433 . S
C1597 N1600 1.384 . S
C1598 H1589 0.929 . S
C1598 C1590 1.378 . S
C1598 C1593 1.350 . S
C1599 H1586 0.929 . S
C1599 C1591 1.433 . S
C1599 N1601 1.384 . S
N1600 C1596 1.427 . S
N1600 C1597 1.384 . S
N1601 C1593 1.427 . S
N1601 C1599 1.384 . S
H1602 C1608 0.930 . S
H1603 C1612 0.930 . S
H1604 C1617 0.929 . S
H1605 C1615 0.929 . S
H1606 C1610 0.929 . S
H1607 C1616 0.929 . S
C1608 H1602 0.930 . S
C1608 C1609 1.367 . S
C1608 C1616 1.378 . S
C1609 C1608 1.367 . S
C1609 C1617 1.433 . S
C1610 H1606 0.929 . S
C1610 C1612 1.378 . S
C1610 C1614 1.350 . S
C1611 C1614 1.463 . S
C1611 C1616 1.350 . S
C1611 N1619 1.427 . S
C1612 H1603 0.930 . S
C1612 C1610 1.378 . S
C1612 C1613 1.367 . S
C1613 C1612 1.367 . S
C1613 C1615 1.433 . S
C1614 C1610 1.350 . S
C1614 C1611 1.463 . S
C1614 N1618 1.427 . S
C1615 H1605 0.929 . S
C1615 C1613 1.433 . S
C1615 N1618 1.384 . S
C1616 H1607 0.929 . S
C1616 C1608 1.378 . S
C1616 C1611 1.350 . S
C1617 H1604 0.929 . S
C1617 C1609 1.433 . S
C1617 N1619 1.384 . S
N1618 C1614 1.427 . S
N1618 C1615 1.384 . S
N1619 C1611 1.427 . S
N1619 C1617 1.384 . S
H1620 C1626 0.930 . S
H1621 C1630 0.930 . S
H1622 C1635 0.929 . S
H1623 C1633 0.929 . S
H1624 C1628 0.929 . S
H1625 C1634 0.929 . S
C1626 H1620 0.930 . S
C1626 C1627 1.367 . S
C1626 C1634 1.378 . S
C1627 C1626 1.367 . S
C1627 C1635 1.433 . S
C1628 H1624 0.929 . S
C1628 C1630 1.378 . S
C1628 C1632 1.350 . S
C1629 C1632 1.463 . S
C1629 C1634 1.350 . S
C1629 N1637 1.427 . S
C1630 H1621 0.930 . S
C1630 C1628 1.378 . S
C1630 C1631 1.367 . S
C1631 C1630 1.367 . S
C1631 C1633 1.433 . S
C1632 C1628 1.350 . S
C1632 C1629 1.463 . S
C1632 N1636 1.427 . S
C1633 H1623 0.929 . S
C1633 C1631 1.433 . S
C1633 N1636 1.384 . S
C1634 H1625 0.929 . S
C1634 C1626 1.378 . S
C1634 C1629 1.350 . S
C1635 H1622 0.929 . S
C1635 C1627 1.433 . S
C1635 N1637 1.384 . S
N1636 C1632 1.427 . S
N1636 C1633 1.384 . S
N1637 C1629 1.427 . S
N1637 C1635 1.384 . S
H1638 C1644 0.930 . S
H1639 C1648 0.930 . S
H1640 C1653 0.929 . S
H1641 C1651 0.929 . S
H1642 C1646 0.929 . S
H1643 C1652 0.929 . S
C1644 H1638 0.930 . S
C1644 C1645 1.367 . S
C1644 C1652 1.378 . S
C1645 C1644 1.367 . S
C1645 C1653 1.433 . S
C1646 H1642 0.929 . S
C1646 C1648 1.378 . S
C1646 C1650 1.350 . S
C1647 C1650 1.463 . S
C1647 C1652 1.350 . S
C1647 N1655 1.427 . S
C1648 H1639 0.930 . S
C1648 C1646 1.378 . S
C1648 C1649 1.367 . S
C1649 C1648 1.367 . S
C1649 C1651 1.433 . S
C1650 C1646 1.350 . S
C1650 C1647 1.463 . S
C1650 N1654 1.427 . S
C1651 H1641 0.929 . S
C1651 C1649 1.433 . S
C1651 N1654 1.384 . S
C1652 H1643 0.929 . S
C1652 C1644 1.378 . S
C1652 C1647 1.350 . S
C1653 H1640 0.929 . S
C1653 C1645 1.433 . S
C1653 N1655 1.384 . S
N1654 C1650 1.427 . S
N1654 C1651 1.384 . S
N1655 C1647 1.427 . S
N1655 C1653 1.384 . S
H1656 C1662 0.930 . S
H1657 C1666 0.930 . S
H1658 C1671 0.929 . S
H1659 C1669 0.929 . S
H1660 C1664 0.929 . S
H1661 C1670 0.929 . S
C1662 H1656 0.930 . S
C1662 C1663 1.367 . S
C1662 C1670 1.378 . S
C1663 C1662 1.367 . S
C1663 C1671 1.433 . S
C1664 H1660 0.929 . S
C1664 C1666 1.378 . S
C1664 C1668 1.350 . S
C1665 C1668 1.463 . S
C1665 C1670 1.350 . S
C1665 N1673 1.427 . S
C1666 H1657 0.930 . S
C1666 C1664 1.378 . S
C1666 C1667 1.367 . S
C1667 C1666 1.367 . S
C1667 C1669 1.433 . S
C1668 C1664 1.350 . S
C1668 C1665 1.463 . S
C1668 N1672 1.427 . S
C1669 H1659 0.929 . S
C1669 C1667 1.433 . S
C1669 N1672 1.384 . S
C1670 H1661 0.929 . S
C1670 C1662 1.378 . S
C1670 C1665 1.350 . S
C1671 H1658 0.929 . S
C1671 C1663 1.433 . S
C1671 N1673 1.384 . S
N1672 C1668 1.427 . S
N1672 C1669 1.384 . S
N1673 C1665 1.427 . S
N1673 C1671 1.384 . S
C709 C253 1.732 . S
C713 C345 1.742 . S
C727 C272 1.851 . S
C731 C385 1.842 . S
C745 C234 1.612 . S
C749 C437 1.604 . S
C763 C215 1.485 . S
C767 C397 1.446 1_556 S
C785 C425 1.561 . S
C781 C177 1.567 . S
C799 C196 1.399 . S
C803 C357 1.393 1_556 S
C821 C364 1.710 . S
C817 C220 1.542 . S
C839 C404 1.664 . S
C835 C182 1.550 . S
C853 C201 1.626 . S
C857 C424 1.748 . S
C871 C258 1.434 . S
C875 C384 1.548 . S
C889 C277 1.327 . S
C893 C444 1.458 . S
C911 C344 1.553 . S
C907 C239 1.397 . S
C929 C465 1.744 . S
C925 C25 1.729 . S
C943 C44 1.853 . S
C947 C505 1.845 . S
C961 C6 1.619 . S
C965 C557 1.602 . S
C979 C329 1.485 . S
C983 C517 1.460 . S
C997 C291 1.567 . S
C1001 C545 1.560 . S
C1015 C310 1.395 . S
C1019 C477 1.396 . S
C1033 C334 1.546 . S
C1037 C484 1.711 . S
C1051 C296 1.567 . S
C1055 C524 1.662 . S
C1073 C544 1.748 . S
C1069 C315 1.629 . S
C1087 C30 1.435 . S
C1091 C504 1.548 . S
C1109 C564 1.457 . S
C1105 C49 1.323 1_455 S
C1123 C11 1.398 . S
C1127 C464 1.543 . S
C1145 C585 1.744 . S
C1141 C139 1.734 . S
C1159 C158 1.852 . S
C1163 C625 1.843 . S
C1181 C677 1.609 . S
C1177 C120 1.619 . S
C1199 C637 1.460 . S
C1195 C101 1.484 . S
C1217 C665 1.562 . S
C1213 C63 1.567 . S
C1231 C82 1.389 . S
C1235 C597 1.387 . S
C1249 C106 1.533 . S
C1253 C604 1.707 . S
C1267 C68 1.549 . S
C1271 C644 1.663 . S
C1289 C664 1.743 . S
C1285 C87 1.640 . S
C1303 C144 1.450 . S
C1307 C624 1.545 . S
C1321 C163 1.314 . S
C1325 C684 1.459 . S
C1339 C125 1.400 . S
C1343 C584 1.544 . S
C1357 C287 1.586 . S
C1361 C368 1.558 . S
C1379 C408 2.056 . S
C1375 C306 2.090 . S
C1393 C325 1.627 . S
C1397 C431 1.661 . S
C1411 C116 1.852 . S
C1415 C391 1.872 . S
C1429 C135 1.808 . S
C1433 C448 1.790 . S
C1451 C351 1.341 . S
C1447 C154 1.315 . S
C1465 C59 1.585 . S
C1469 C488 1.558 . S
C1483 C78 2.095 . S
C1487 C528 2.062 . S
C1501 C97 1.627 . S
C1505 C551 1.663 . S
C1519 C230 1.859 . S
C1523 C511 1.876 . S
C1541 C568 1.790 . S
C1537 C249 1.808 . S
C1555 C268 1.313 . S
C1559 C471 1.338 . S
C1573 C173 1.596 . S
C1577 C608 1.571 . S
C1591 C192 2.092 . S
C1595 C648 2.059 . S
C1613 C671 1.664 . S
C1609 C211 1.636 . S
C1627 C2 1.857 . S
C1631 C631 1.875 . S
C1645 C21 1.806 . S
C1649 C688 1.786 . S
C1663 C40 1.311 . S
C1667 C591 1.339 . S
