# Generated by pormake.
# Topology ssa, (4,4)-cn, num edge types: 1
# Building blocks:
#     Node 0, Type 0, BuildingBlock: ESEHIV_clean_sbu_0, # of connection points: 4
#     Node 1, Type 0, BuildingBlock: ESEHIV_clean_sbu_0, # of connection points: 4
#     Node 2, Type 0, BuildingBlock: ESEHIV_clean_sbu_0, # of connection points: 4
#     Node 3, Type 0, BuildingBlock: ESEHIV_clean_sbu_0, # of connection points: 4
#     Node 4, Type 0, BuildingBlock: ESEHIV_clean_sbu_0, # of connection points: 4
#     Node 5, Type 0, BuildingBlock: ESEHIV_clean_sbu_0, # of connection points: 4
#     Node 6, Type 1, BuildingBlock: MUDLON_clean_linker_0, # of connection points: 4
#     Node 7, Type 1, BuildingBlock: MUDLON_clean_linker_0, # of connection points: 4
#     Node 8, Type 1, BuildingBlock: MUDLON_clean_linker_0, # of connection points: 4
#     Node 9, Type 1, BuildingBlock: MUDLON_clean_linker_0, # of connection points: 4
#     Node 10, Type 1, BuildingBlock: MUDLON_clean_linker_0, # of connection points: 4
#     Node 11, Type 1, BuildingBlock: MUDLON_clean_linker_0, # of connection points: 4
#     Edge 12, Type (0, 1), BuildingBlock: TEMPAE_clean_linker_10, # of connection points: 2
#     Edge 13, Type (0, 1), BuildingBlock: TEMPAE_clean_linker_10, # of connection points: 2
#     Edge 14, Type (0, 1), BuildingBlock: TEMPAE_clean_linker_10, # of connection points: 2
#     Edge 15, Type (0, 1), BuildingBlock: TEMPAE_clean_linker_10, # of connection points: 2
#     Edge 16, Type (0, 1), BuildingBlock: TEMPAE_clean_linker_10, # of connection points: 2
#     Edge 17, Type (0, 1), BuildingBlock: TEMPAE_clean_linker_10, # of connection points: 2
#     Edge 18, Type (0, 1), BuildingBlock: TEMPAE_clean_linker_10, # of connection points: 2
#     Edge 19, Type (0, 1), BuildingBlock: TEMPAE_clean_linker_10, # of connection points: 2
#     Edge 20, Type (0, 1), BuildingBlock: TEMPAE_clean_linker_10, # of connection points: 2
#     Edge 21, Type (0, 1), BuildingBlock: TEMPAE_clean_linker_10, # of connection points: 2
#     Edge 22, Type (0, 1), BuildingBlock: TEMPAE_clean_linker_10, # of connection points: 2
#     Edge 23, Type (0, 1), BuildingBlock: TEMPAE_clean_linker_10, # of connection points: 2
#     Edge 24, Type (0, 1), BuildingBlock: TEMPAE_clean_linker_10, # of connection points: 2
#     Edge 25, Type (0, 1), BuildingBlock: TEMPAE_clean_linker_10, # of connection points: 2
#     Edge 26, Type (0, 1), BuildingBlock: TEMPAE_clean_linker_10, # of connection points: 2
#     Edge 27, Type (0, 1), BuildingBlock: TEMPAE_clean_linker_10, # of connection points: 2
#     Edge 28, Type (0, 1), BuildingBlock: TEMPAE_clean_linker_10, # of connection points: 2
#     Edge 29, Type (0, 1), BuildingBlock: TEMPAE_clean_linker_10, # of connection points: 2
#     Edge 30, Type (0, 1), BuildingBlock: TEMPAE_clean_linker_10, # of connection points: 2
#     Edge 31, Type (0, 1), BuildingBlock: TEMPAE_clean_linker_10, # of connection points: 2
#     Edge 32, Type (0, 1), BuildingBlock: TEMPAE_clean_linker_10, # of connection points: 2
#     Edge 33, Type (0, 1), BuildingBlock: TEMPAE_clean_linker_10, # of connection points: 2
#     Edge 34, Type (0, 1), BuildingBlock: TEMPAE_clean_linker_10, # of connection points: 2
#     Edge 35, Type (0, 1), BuildingBlock: TEMPAE_clean_linker_10, # of connection points: 2
# Relax obj value: 0.007
# Max RMSD: 0.103
# Mean RMSD: 0.066
data_MOF--net-ssa--node1-ESEHIV_clean_sbu_0--node2-MUDLON_clean_linker_0--edge1-TEMPAE_clean_linker_10
_symmetry_space_group_name_H-M    P1
_symmetry_Int_Tables_number       1
_symmetry_cell_setting            triclinic
loop_
_symmetry_equiv_pos_as_xyz
'x, y, z'
_cell_length_a     70.676492
_cell_length_b     74.324824
_cell_length_c     40.523494
_cell_angle_alpha  88.601719
_cell_angle_beta   90.654388
_cell_angle_gamma 121.65931
loop_
_atom_site_label
_atom_site_type_symbol
_atom_site_fract_x
_atom_site_fract_y
_atom_site_fract_z
_atom_type_partial_charge
Cu0 Cu 0.01165 0.50139 0.03005 0.0
N1 N 0.9898 0.47332 0.03874 0.0
N2 N 0.96344 0.44025 0.02662 0.0
C3 C 0.97562 0.4605 0.01573 0.0
C4 C 0.97024 0.44035 0.05795 0.0
C5 C 0.98652 0.46088 0.06542 0.0
O6 O 0.00344 0.50858 0.98821 0.0
C7 C 0.04406 0.48979 0.02473 0.0
O8 O 0.02788 0.4724 0.01166 0.0
H9 H 0.97534 0.46574 0.99067 0.0
H10 H 0.996 0.46616 0.08803 0.0
N11 N 0.01166 0.51899 0.06182 0.0
N12 N 0.02541 0.54742 0.09334 0.0
C13 C 0.03009 0.53554 0.0744 0.0
C14 C 0.99458 0.52017 0.07324 0.0
C15 C 0.00301 0.53769 0.09287 0.0
C16 C 0.00813 0.52705 0.97969 0.0
O17 O 0.02257 0.54329 0.99705 0.0
H18 H 0.04665 0.53903 0.06894 0.0
H19 H 0.97736 0.5096 0.06662 0.0
O20 O 0.04073 0.50454 0.03144 0.0
H21 H 0.96438 0.42655 0.07393 0.0
H22 H 0.99343 0.54328 0.10461 0.0
Cu23 Cu 0.54711 0.02359 0.48537 0.0
N24 N 0.56061 0.01907 0.44975 0.0
N25 N 0.57053 0.00181 0.41661 0.0
C26 C 0.56085 1.00128 0.44541 0.0
C27 C 0.57671 0.02069 0.40228 0.0
C28 C 0.5707 0.03138 0.4229 0.0
O29 O 0.51743 0.99859 0.48935 0.0
C30 C 0.58571 0.04183 0.52228 0.0
O31 O 0.59413 0.04999 0.49307 0.0
H32 H 0.55352 0.98796 0.46265 0.0
H33 H 0.57349 0.04698 0.41852 0.0
N34 N 0.54464 0.04735 0.47939 0.0
N35 N 0.53822 0.07264 0.49319 0.0
C36 C 0.5418 0.0574 0.50426 0.0
C37 C 0.54294 0.05666 0.45152 0.0
C38 C 0.53892 0.07223 0.45997 0.0
C39 C 0.50422 0.99614 0.46587 0.0
O40 O 0.51135 0.01048 0.44199 0.0
H41 H 0.54126 0.05286 0.52998 0.0
H42 H 0.54357 0.0519 0.42677 0.0
O43 O 0.56489 0.02863 0.52478 0.0
H44 H 0.58509 0.02637 0.37871 0.0
H45 H 0.53623 0.08215 0.44299 0.0
Cu46 Cu 0.55796 0.51134 0.02127 0.0
N47 N 0.55442 0.48476 0.02816 0.0
N48 N 0.5469 0.4524 0.01643 0.0
C49 C 0.5482 0.47019 0.00473 0.0
C50 C 0.55251 0.45596 0.04863 0.0
C51 C 0.55723 0.47599 0.05577 0.0
O52 O 0.57611 0.52358 0.98177 0.0
C53 C 0.51574 0.49738 0.04208 0.0
O54 O 0.52289 0.48984 0.06545 0.0
H55 H 0.54435 0.47253 0.97966 0.0
H56 H 0.56223 0.48357 0.07941 0.0
N57 N 0.57226 0.52936 0.05653 0.0
N58 N 0.58178 0.55558 0.0915 0.0
C59 C 0.56778 0.54374 0.06731 0.0
C60 C 0.58958 0.53206 0.07473 0.0
C61 C 0.59557 0.54832 0.09624 0.0
C62 C 0.59446 0.52418 0.98218 0.0
O63 O 0.5996 0.51715 0.00873 0.0
H64 H 0.55492 0.54592 0.05689 0.0
H65 H 0.59752 0.52307 0.07229 0.0
O66 O 0.52866 0.50765 0.018 0.0
H67 H 0.55335 0.44499 0.06573 0.0
H68 H 0.60899 0.55433 0.11399 0.0
Cu69 Cu 0.0546 0.50634 0.55367 0.0
N70 N 0.07811 0.50178 0.54994 0.0
N71 N 0.10304 0.49735 0.52387 0.0
C72 C 0.08451 0.49824 0.52095 0.0
C73 C 0.10843 0.5003 0.55619 0.0
C74 C 0.09308 0.50318 0.57221 0.0
O75 O 0.0597 0.52703 0.5191 0.0
C76 C 0.02474 0.46518 0.57186 0.0
O77 O 0.04247 0.46906 0.58862 0.0
H78 H 0.07582 0.49666 0.49802 0.0
H79 H 0.09325 0.50667 0.59798 0.0
N80 N 0.05418 0.51843 0.59321 0.0
N81 N 0.04197 0.53334 0.62733 0.0
C82 C 0.04478 0.53005 0.59568 0.0
C83 C 0.05759 0.51421 0.62444 0.0
C84 C 0.05007 0.52344 0.6456 0.0
C85 C 0.07832 0.54427 0.52243 0.0
O86 O 0.09081 0.54591 0.54786 0.0
H87 H 0.03831 0.53439 0.57463 0.0
H88 H 0.06356 0.50392 0.63142 0.0
O89 O 0.02629 0.4795 0.55208 0.0
H90 H 0.12286 0.5011 0.56725 0.0
H91 H 0.04954 0.52202 0.67227 0.0
Cu92 Cu 0.50464 0.9796 0.985 0.0
N93 N 0.48859 0.98196 0.95011 0.0
N94 N 0.47611 0.99742 0.91599 0.0
C95 C 0.48633 0.99868 0.94485 0.0
C96 C 0.47163 0.97917 0.90255 0.0
C97 C 0.47921 0.96954 0.92385 0.0
O98 O 0.53281 0.00656 0.98686 0.0
C99 C 0.46845 0.95393 0.0237 0.0
O100 O 0.46344 0.94313 0.99643 0.0
H101 H 0.49307 0.01202 0.96109 0.0
H102 H 0.47844 0.95483 0.92001 0.0
N103 N 0.51101 0.9585 0.97844 0.0
N104 N 0.52136 0.93553 0.99151 0.0
C105 C 0.51505 0.94848 0.00301 0.0
C106 C 0.5148 0.95159 0.95031 0.0
C107 C 0.52128 0.93744 0.95833 0.0
C108 C 0.54404 0.01156 0.96022 0.0
O109 O 0.53568 0.99868 0.93531 0.0
H110 H 0.51438 0.95142 0.02888 0.0
H111 H 0.51373 0.95695 0.92573 0.0
O112 O 0.48664 0.97176 0.02474 0.0
H113 H 0.46377 0.97342 0.87885 0.0
H114 H 0.52593 0.92949 0.94115 0.0
Cu115 Cu 0.50415 0.4995 0.53063 0.0
N116 N 0.50774 0.52576 0.53761 0.0
N117 N 0.51407 0.55786 0.52471 0.0
C118 C 0.51112 0.53967 0.51319 0.0
C119 C 0.51255 0.55525 0.55789 0.0
C120 C 0.5086 0.53537 0.56578 0.0
O121 O 0.48921 0.49045 0.48818 0.0
C122 C 0.54255 0.50635 0.56019 0.0
O123 O 0.53189 0.50754 0.58557 0.0
H124 H 0.51213 0.53668 0.48746 0.0
H125 H 0.50683 0.52856 0.59029 0.0
N126 N 0.48687 0.47994 0.56382 0.0
N127 N 0.47388 0.45207 0.59846 0.0
C128 C 0.4873 0.46256 0.57246 0.0
C129 C 0.47269 0.48052 0.58497 0.0
C130 C 0.46461 0.46333 0.60635 0.0
C131 C 0.46848 0.48364 0.48734 0.0
O132 O 0.45804 0.48151 0.5151 0.0
H133 H 0.4979 0.45819 0.56056 0.0
H134 H 0.46863 0.49267 0.58499 0.0
O135 O 0.53345 0.50293 0.53184 0.0
H136 H 0.51427 0.56686 0.57522 0.0
H137 H 0.45284 0.45948 0.62614 0.0
H138 H 0.36436 0.50583 0.24031 0.0
N139 N 0.33526 0.4697 0.20849 0.0
H140 H 0.38884 0.50891 0.28587 0.0
H141 H 0.33373 0.4382 0.24316 0.0
H142 H 0.3572 0.44085 0.2899 0.0
H143 H 0.33677 0.44298 0.16802 0.0
H144 H 0.36364 0.45178 0.12376 0.0
H145 H 0.36255 0.50919 0.1817 0.0
H146 H 0.38912 0.51822 0.13696 0.0
H147 H 0.33136 0.50443 0.20816 0.0
H148 H 0.29441 0.43645 0.21427 0.0
H149 H 0.29674 0.50432 0.21077 0.0
H150 H 0.25983 0.43601 0.21914 0.0
H151 H 0.19923 0.50093 0.25694 0.0
H152 H 0.1879 0.50676 0.31041 0.0
H153 H 0.16203 0.44136 0.33813 0.0
H154 H 0.17299 0.43562 0.28409 0.0
H155 H 0.15052 0.43584 0.2123 0.0
H156 H 0.12884 0.44208 0.1712 0.0
H157 H 0.18428 0.50594 0.15556 0.0
H158 H 0.20599 0.49934 0.1966 0.0
H159 H 0.23211 0.49635 0.25203 0.0
H160 H 0.26755 0.49871 0.24487 0.0
H161 H 0.23426 0.44065 0.19037 0.0
N162 N 0.19099 0.4632 0.23396 0.0
H163 H 0.19874 0.43775 0.19983 0.0
C164 C 0.34739 0.47175 0.2383 0.0
C165 C 0.36267 0.49162 0.25117 0.0
C166 C 0.37658 0.49331 0.27737 0.0
C167 C 0.37527 0.47514 0.29138 0.0
C168 C 0.35914 0.45523 0.27926 0.0
C169 C 0.34548 0.45361 0.25288 0.0
C170 C 0.34764 0.47534 0.17816 0.0
C171 C 0.34772 0.45939 0.16061 0.0
C172 C 0.36306 0.46449 0.13524 0.0
C173 C 0.3787 0.48575 0.12694 0.0
C174 C 0.37751 0.5017 0.14303 0.0
C175 C 0.36216 0.49655 0.1685 0.0
C176 C 0.31534 0.47036 0.21036 0.0
C177 C 0.31577 0.48947 0.20995 0.0
C178 C 0.2959 0.48935 0.21189 0.0
C179 C 0.27526 0.47013 0.21485 0.0
C180 C 0.27516 0.45112 0.21589 0.0
C181 C 0.29494 0.45128 0.21344 0.0
C182 C 0.18682 0.46775 0.26654 0.0
C183 C 0.19133 0.48791 0.27464 0.0
C184 C 0.18495 0.49124 0.30534 0.0
C185 C 0.17392 0.47449 0.32852 0.0
C186 C 0.17018 0.45453 0.32069 0.0
C187 C 0.17656 0.45123 0.28999 0.0
C188 C 0.17974 0.46707 0.20745 0.0
C189 C 0.15804 0.45108 0.19966 0.0
C190 C 0.14566 0.45474 0.1764 0.0
C191 C 0.15475 0.47459 0.16038 0.0
C192 C 0.17685 0.49046 0.16738 0.0
C193 C 0.18925 0.48676 0.19085 0.0
C194 C 0.21261 0.46653 0.22707 0.0
C195 C 0.2324 0.48409 0.23865 0.0
C196 C 0.2528 0.48553 0.23421 0.0
C197 C 0.25391 0.46968 0.21749 0.0
C198 C 0.23414 0.45283 0.20432 0.0
C199 C 0.21378 0.45122 0.20934 0.0
H200 H 0.71988 0.12433 0.83258 0.0
N201 N 0.72726 0.15618 0.79298 0.0
H202 H 0.69357 0.10903 0.87832 0.0
H203 H 0.70669 0.1745 0.82152 0.0
H204 H 0.68023 0.15938 0.86769 0.0
H205 H 0.69134 0.15701 0.76899 0.0
H206 H 0.66721 0.13623 0.72394 0.0
H207 H 0.73307 0.13178 0.75265 0.0
H208 H 0.70937 0.11136 0.70646 0.0
H209 H 0.76753 0.17171 0.81795 0.0
H210 H 0.72828 0.18938 0.75947 0.0
H211 H 0.80017 0.20701 0.80961 0.0
H212 H 0.7611 0.2243 0.74901 0.0
H213 H 0.8997 0.30622 0.79539 0.0
H214 H 0.91442 0.32599 0.84648 0.0
H215 H 0.86037 0.33728 0.84744 0.0
H216 H 0.84581 0.31749 0.79677 0.0
H217 H 0.85374 0.32827 0.73967 0.0
H218 H 0.87259 0.35445 0.69488 0.0
H219 H 0.91025 0.32566 0.67197 0.0
H220 H 0.89154 0.29981 0.71701 0.0
H221 H 0.8601 0.26198 0.76285 0.0
H222 H 0.82608 0.22739 0.76919 0.0
H223 H 0.78772 0.2575 0.76944 0.0
N224 N 0.86419 0.29946 0.76159 0.0
H225 H 0.82188 0.29186 0.76056 0.0
C226 C 0.71507 0.15035 0.82357 0.0
C227 C 0.71173 0.13236 0.84078 0.0
C228 C 0.69675 0.12372 0.86704 0.0
C229 C 0.68468 0.13292 0.87666 0.0
C230 C 0.6891 0.1518 0.86068 0.0
C231 C 0.70424 0.16049 0.83438 0.0
C232 C 0.71403 0.14587 0.76427 0.0
C233 C 0.6955 0.14721 0.75543 0.0
C234 C 0.68174 0.13536 0.72945 0.0
C235 C 0.68626 0.12201 0.71164 0.0
C236 C 0.70517 0.12118 0.72001 0.0
C237 C 0.71887 0.13298 0.74611 0.0
C238 C 0.74557 0.17771 0.78903 0.0
C239 C 0.76602 0.18323 0.80317 0.0
C240 C 0.78473 0.20338 0.79796 0.0
C241 C 0.78354 0.21851 0.7779 0.0
C242 C 0.76275 0.21317 0.76462 0.0
C243 C 0.7439 0.19304 0.77038 0.0
C244 C 0.87171 0.31033 0.79233 0.0
C245 C 0.891 0.31285 0.80687 0.0
C246 C 0.89939 0.32419 0.8359 0.0
C247 C 0.88853 0.33318 0.85098 0.0
C248 C 0.86893 0.3303 0.83666 0.0
C249 C 0.86063 0.31904 0.80754 0.0
C250 C 0.87147 0.31223 0.73179 0.0
C251 C 0.86572 0.32736 0.7246 0.0
C252 C 0.87654 0.34233 0.69904 0.0
C253 C 0.89301 0.34221 0.67999 0.0
C254 C 0.89751 0.32609 0.6859 0.0
C255 C 0.88689 0.31133 0.71163 0.0
C256 C 0.84354 0.27942 0.76178 0.0
C257 C 0.84426 0.26099 0.76377 0.0
C258 C 0.82478 0.24127 0.7679 0.0
C259 C 0.80404 0.23954 0.77076 0.0
C260 C 0.80329 0.2581 0.76739 0.0
C261 C 0.82287 0.27785 0.76265 0.0
H262 H 0.56053 0.85108 0.2583 0.0
N263 N 0.60049 0.85599 0.24118 0.0
H264 H 0.55543 0.87324 0.29549 0.0
H265 H 0.62969 0.88212 0.28506 0.0
H266 H 0.62441 0.90337 0.32475 0.0
H267 H 0.62639 0.88823 0.20081 0.0
H268 H 0.61546 0.89907 0.15019 0.0
H269 H 0.56048 0.83303 0.20948 0.0
H270 H 0.54906 0.84416 0.1601 0.0
H271 H 0.56357 0.81909 0.26306 0.0
H272 H 0.63151 0.84696 0.23157 0.0
H273 H 0.56019 0.78469 0.27001 0.0
H274 H 0.62866 0.81294 0.23948 0.0
H275 H 0.55375 0.69286 0.29535 0.0
H276 H 0.53845 0.66878 0.34336 0.0
H277 H 0.60408 0.69856 0.38631 0.0
H278 H 0.61923 0.72235 0.33791 0.0
H279 H 0.62666 0.7095 0.27358 0.0
H280 H 0.62264 0.68187 0.23712 0.0
H281 H 0.56173 0.67419 0.19856 0.0
H282 H 0.56556 0.7016 0.2358 0.0
H283 H 0.57375 0.73508 0.31694 0.0
H284 H 0.57293 0.76661 0.30504 0.0
H285 H 0.61234 0.7786 0.21737 0.0
N286 N 0.59774 0.72134 0.28313 0.0
H287 H 0.61393 0.74724 0.22982 0.0
C288 C 0.59572 0.86528 0.26827 0.0
C289 C 0.57455 0.8623 0.27282 0.0
C290 C 0.5716 0.87497 0.29455 0.0
C291 C 0.5896 0.89055 0.3129 0.0
C292 C 0.61029 0.89211 0.31033 0.0
C293 C 0.61331 0.87975 0.28802 0.0
C294 C 0.5943 0.85999 0.20907 0.0
C295 C 0.60964 0.87833 0.1915 0.0
C296 C 0.60328 0.88458 0.16282 0.0
C297 C 0.58125 0.87268 0.15131 0.0
C298 C 0.56619 0.85365 0.16802 0.0
C299 C 0.57268 0.8473 0.19651 0.0
C300 C 0.59787 0.83559 0.24674 0.0
C301 C 0.57779 0.81782 0.25774 0.0
C302 C 0.57592 0.79816 0.26184 0.0
C303 C 0.5941 0.79593 0.25509 0.0
C304 C 0.61415 0.81386 0.24424 0.0
C305 C 0.61593 0.83339 0.24004 0.0
C306 C 0.58768 0.70932 0.31315 0.0
C307 C 0.56473 0.69438 0.31535 0.0
C308 C 0.55602 0.68074 0.34288 0.0
C309 C 0.57012 0.6817 0.36846 0.0
C310 C 0.59287 0.69731 0.3668 0.0
C311 C 0.60152 0.71098 0.33938 0.0
C312 C 0.59656 0.70771 0.25731 0.0
C313 C 0.61269 0.70215 0.2568 0.0
C314 C 0.61029 0.68631 0.2362 0.0
C315 C 0.59183 0.67589 0.21526 0.0
C316 C 0.57615 0.68209 0.21445 0.0
C317 C 0.57835 0.69774 0.23561 0.0
C318 C 0.59349 0.73797 0.27379 0.0
C319 C 0.58183 0.74392 0.29458 0.0
C320 C 0.58132 0.76221 0.28778 0.0
C321 C 0.59261 0.77527 0.26031 0.0
C322 C 0.60368 0.76909 0.23904 0.0
C323 C 0.60431 0.75089 0.24589 0.0
H324 H 0.91175 0.59631 0.80067 0.0
N325 N 0.88375 0.57161 0.75462 0.0
H326 H 0.92785 0.58536 0.84488 0.0
H327 H 0.86547 0.53105 0.77814 0.0
H328 H 0.88245 0.52005 0.82106 0.0
H329 H 0.87768 0.53655 0.72382 0.0
H330 H 0.90561 0.53496 0.69241 0.0
H331 H 0.91957 0.60442 0.72691 0.0
H332 H 0.94781 0.60302 0.69446 0.0
H333 H 0.87047 0.59652 0.77613 0.0
H334 H 0.84807 0.54021 0.72034 0.0
H335 H 0.8352 0.59418 0.76586 0.0
H336 H 0.81331 0.53841 0.70814 0.0
H337 H 0.72863 0.59308 0.72804 0.0
H338 H 0.70327 0.58836 0.77277 0.0
H339 H 0.69985 0.53065 0.80357 0.0
H340 H 0.7246 0.53521 0.75855 0.0
H341 H 0.70781 0.52529 0.70206 0.0
H342 H 0.67864 0.51316 0.66069 0.0
H343 H 0.71446 0.57455 0.61182 0.0
H344 H 0.74299 0.58686 0.6547 0.0
H345 H 0.7819 0.59964 0.7143 0.0
H346 H 0.81624 0.60007 0.72408 0.0
H347 H 0.77886 0.53167 0.7276 0.0
N348 N 0.74098 0.5665 0.71058 0.0
H349 H 0.7448 0.53158 0.71567 0.0
C350 C 0.88771 0.56455 0.78588 0.0
C351 C 0.90458 0.57961 0.80605 0.0
C352 C 0.91384 0.57337 0.83106 0.0
C353 C 0.90653 0.55193 0.83587 0.0
C354 C 0.88839 0.53669 0.81753 0.0
C355 C 0.87873 0.54296 0.79307 0.0
C356 C 0.8964 0.57071 0.72773 0.0
C357 C 0.89241 0.55126 0.71647 0.0
C358 C 0.90859 0.55036 0.69844 0.0
C359 C 0.92914 0.56885 0.69126 0.0
C360 C 0.93232 0.58845 0.70007 0.0
C361 C 0.91608 0.58932 0.71816 0.0
C362 C 0.86221 0.56884 0.74871 0.0
C363 C 0.85796 0.58372 0.76146 0.0
C364 C 0.83782 0.58244 0.7552 0.0
C365 C 0.82139 0.56633 0.73552 0.0
C366 C 0.82544 0.55101 0.72347 0.0
C367 C 0.84555 0.55214 0.73022 0.0
C368 C 0.7287 0.56468 0.73998 0.0
C369 C 0.72267 0.57963 0.74486 0.0
C370 C 0.70818 0.57688 0.77039 0.0
C371 C 0.69936 0.55902 0.79159 0.0
C372 C 0.70602 0.54439 0.78733 0.0
C373 C 0.72046 0.54713 0.76175 0.0
C374 C 0.72743 0.55717 0.68177 0.0
C375 C 0.70972 0.53598 0.682 0.0
C376 C 0.69301 0.52902 0.65808 0.0
C377 C 0.69386 0.54301 0.63321 0.0
C378 C 0.7129 0.56351 0.63111 0.0
C379 C 0.7294 0.57052 0.65531 0.0
C380 C 0.76081 0.56569 0.71463 0.0
C381 C 0.78122 0.58477 0.7169 0.0
C382 C 0.8008 0.58493 0.72291 0.0
C383 C 0.80044 0.56589 0.72734 0.0
C384 C 0.77992 0.54666 0.72423 0.0
C385 C 0.76031 0.54656 0.7177 0.0
H386 H 0.1925 0.70084 0.32199 0.0
N387 N 0.17137 0.71911 0.29266 0.0
H388 H 0.17619 0.67195 0.36306 0.0
H389 H 0.13445 0.70562 0.32697 0.0
H390 H 0.1178 0.67654 0.36765 0.0
H391 H 0.14014 0.71849 0.25492 0.0
H392 H 0.1178 0.69234 0.21345 0.0
H393 H 0.182 0.69247 0.26394 0.0
H394 H 0.16096 0.66747 0.22119 0.0
H395 H 0.21133 0.72472 0.27187 0.0
H396 H 0.1811 0.75622 0.31459 0.0
H397 H 0.24733 0.75747 0.27227 0.0
H398 H 0.21739 0.78902 0.31646 0.0
H399 H 0.34886 0.84261 0.31507 0.0
H400 H 0.37602 0.8567 0.35958 0.0
H401 H 0.34875 0.89362 0.39146 0.0
H402 H 0.321 0.87864 0.34763 0.0
H403 H 0.3333 0.89304 0.27318 0.0
H404 H 0.35861 0.91073 0.22658 0.0
H405 H 0.35995 0.85414 0.2103 0.0
H406 H 0.33497 0.8368 0.25745 0.0
H407 H 0.31235 0.81502 0.30834 0.0
H408 H 0.27656 0.78181 0.30708 0.0
H409 H 0.24438 0.81623 0.2817 0.0
N410 N 0.31955 0.85494 0.29866 0.0
H411 H 0.28024 0.84945 0.28449 0.0
C412 C 0.16465 0.70542 0.3215 0.0
C413 C 0.17646 0.69599 0.33244 0.0
C414 C 0.16698 0.6793 0.35565 0.0
C415 C 0.14555 0.67174 0.3683 0.0
C416 C 0.13438 0.68204 0.35864 0.0
C417 C 0.14387 0.6987 0.33549 0.0
C418 C 0.16295 0.70779 0.26234 0.0
C419 C 0.14517 0.70783 0.2468 0.0
C420 C 0.1324 0.69282 0.22311 0.0
C421 C 0.13735 0.67753 0.21431 0.0
C422 C 0.15636 0.6787 0.22789 0.0
C423 C 0.16884 0.69344 0.25195 0.0
C424 C 0.19324 0.738 0.29282 0.0
C425 C 0.2123 0.73859 0.28139 0.0
C426 C 0.2331 0.75744 0.28194 0.0
C427 C 0.23537 0.77604 0.29421 0.0
C428 C 0.2163 0.77521 0.30614 0.0
C429 C 0.19554 0.75644 0.30534 0.0
C430 C 0.33278 0.85954 0.32813 0.0
C431 C 0.34814 0.85308 0.33236 0.0
C432 C 0.36388 0.86138 0.35767 0.0
C433 C 0.36481 0.87652 0.37892 0.0
C434 C 0.34843 0.88182 0.3759 0.0
C435 C 0.33259 0.87336 0.35078 0.0
C436 C 0.33216 0.86365 0.26863 0.0
C437 C 0.33882 0.8844 0.25916 0.0
C438 C 0.35326 0.89444 0.23253 0.0
C439 C 0.3614 0.88389 0.21473 0.0
C440 C 0.35425 0.86283 0.22377 0.0
C441 C 0.33979 0.8528 0.25052 0.0
C442 C 0.29893 0.83484 0.29696 0.0
C443 C 0.29764 0.81549 0.3027 0.0
C444 C 0.27708 0.7964 0.30167 0.0
C445 C 0.25744 0.79625 0.29454 0.0
C446 C 0.25899 0.81567 0.28803 0.0
C447 C 0.27948 0.83469 0.28934 0.0
H448 H 0.43652 0.12613 0.6891 0.0
N449 N 0.46142 0.15454 0.73362 0.0
H450 H 0.44927 0.11616 0.641 0.0
H451 H 0.50357 0.1768 0.70788 0.0
H452 H 0.51677 0.16628 0.66107 0.0
H453 H 0.49896 0.15667 0.75732 0.0
H454 H 0.50006 0.13151 0.79522 0.0
H455 H 0.42823 0.12591 0.77148 0.0
H456 H 0.42931 0.10154 0.81199 0.0
H457 H 0.43072 0.16418 0.72415 0.0
H458 H 0.49763 0.18979 0.75918 0.0
H459 H 0.43257 0.19686 0.7378 0.0
H460 H 0.50003 0.22302 0.77213 0.0
H461 H 0.42898 0.29287 0.78465 0.0
H462 H 0.4304 0.31966 0.74667 0.0
H463 H 0.494 0.33337 0.71031 0.0
H464 H 0.49258 0.30683 0.74889 0.0
H465 H 0.50464 0.31107 0.80553 0.0
H466 H 0.52057 0.33643 0.85014 0.0
H467 H 0.45575 0.3072 0.89579 0.0
H468 H 0.43988 0.28252 0.85025 0.0
H469 H 0.446 0.26204 0.7383 0.0
H470 H 0.44919 0.23279 0.72122 0.0
H471 H 0.48498 0.23712 0.81068 0.0
N472 N 0.46015 0.28358 0.79488 0.0
H473 H 0.48269 0.26708 0.82736 0.0
C474 C 0.46904 0.15199 0.70225 0.0
C475 C 0.45396 0.1353 0.68246 0.0
C476 C 0.46136 0.12947 0.65527 0.0
C477 C 0.48415 0.14007 0.64754 0.0
C478 C 0.4991 0.15775 0.66616 0.0
C479 C 0.49159 0.16375 0.69314 0.0
C480 C 0.46334 0.14282 0.76093 0.0
C481 C 0.48369 0.14478 0.7692 0.0
C482 C 0.48431 0.1304 0.79135 0.0
C483 C 0.46469 0.11409 0.80647 0.0
C484 C 0.44466 0.11338 0.80013 0.0
C485 C 0.44401 0.12747 0.77734 0.0
C486 C 0.46398 0.17461 0.74042 0.0
C487 C 0.44594 0.17706 0.73437 0.0
C488 C 0.44713 0.19583 0.74203 0.0
C489 C 0.46655 0.21273 0.75584 0.0
C490 C 0.48478 0.2103 0.76172 0.0
C491 C 0.48352 0.19138 0.75408 0.0
C492 C 0.46058 0.29787 0.76962 0.0
C493 C 0.44305 0.3015 0.76814 0.0
C494 C 0.44389 0.31675 0.74635 0.0
C495 C 0.46236 0.32871 0.72549 0.0
C496 C 0.4797 0.32464 0.72637 0.0
C497 C 0.47887 0.30942 0.74828 0.0
C498 C 0.47096 0.29503 0.82444 0.0
C499 C 0.49397 0.3099 0.82545 0.0
C500 C 0.50306 0.32433 0.85112 0.0
C501 C 0.48936 0.32411 0.87629 0.0
C502 C 0.46669 0.30813 0.87644 0.0
C503 C 0.45762 0.29383 0.85071 0.0
C504 C 0.46485 0.26783 0.78362 0.0
C505 C 0.45525 0.25733 0.75394 0.0
C506 C 0.45676 0.24023 0.74433 0.0
C507 C 0.46728 0.23248 0.76459 0.0
C508 C 0.4771 0.24291 0.79415 0.0
C509 C 0.47576 0.26022 0.80371 0.0
C510 C 0.07949 0.50732 0.05727 0.0
C511 C 0.06424 0.49053 0.03757 0.0
C512 C 0.09641 0.50647 0.07445 0.0
C513 C 0.0982 0.48847 0.07177 0.0
C514 C 0.08385 0.47216 0.05014 0.0
C515 C 0.06703 0.47337 0.03335 0.0
C516 C 0.11138 0.52423 0.09716 0.0
C517 C 0.08533 0.45278 0.04633 0.0
C518 C 0.14893 0.48927 0.10712 0.0
C519 C 0.14072 0.47877 0.13765 0.0
C520 C 0.13536 0.49264 0.08534 0.0
C521 C 0.11317 0.48549 0.09445 0.0
C522 C 0.10497 0.47519 0.12546 0.0
C523 C 0.11881 0.47196 0.1466 0.0
C524 C 0.14466 0.50361 0.05245 0.0
C525 C 0.08148 0.46747 0.13634 0.0
H526 H 0.07759 0.52071 0.06062 0.0
H527 H 0.05546 0.46039 0.01802 0.0
H528 H 0.10712 0.51861 0.12319 0.0
H529 H 0.12901 0.52924 0.09331 0.0
H530 H 0.10971 0.53819 0.09343 0.0
H531 H 0.07492 0.44286 0.02564 0.0
H532 H 0.10279 0.45736 0.04201 0.0
H533 H 0.07965 0.44307 0.06945 0.0
H534 H 0.16581 0.49446 0.1 0.0
H535 H 0.11249 0.46419 0.1704 0.0
H536 H 0.14317 0.5177 0.0498 0.0
H537 H 0.13492 0.49284 0.03217 0.0
H538 H 0.1624 0.50868 0.04939 0.0
H539 H 0.07873 0.48086 0.13638 0.0
H540 H 0.07776 0.46 0.1614 0.0
H541 H 0.06947 0.45576 0.11869 0.0
C542 C 0.62317 0.06189 0.54831 0.0
C543 C 0.59998 0.05009 0.55188 0.0
C544 C 0.63709 0.07215 0.57522 0.0
C545 C 0.62758 0.07075 0.60644 0.0
C546 C 0.60421 0.05818 0.61053 0.0
C547 C 0.59066 0.0479 0.5832 0.0
C548 C 0.66194 0.08516 0.56991 0.0
C549 C 0.59346 0.05639 0.64341 0.0
C550 C 0.66568 0.08783 0.68123 0.0
C551 C 0.67108 0.10876 0.68482 0.0
C552 C 0.65135 0.07517 0.65608 0.0
C553 C 0.64207 0.08356 0.63411 0.0
C554 C 0.64725 0.10458 0.6378 0.0
C555 C 0.66174 0.11693 0.66298 0.0
C556 C 0.64627 0.05286 0.65287 0.0
C557 C 0.63767 0.11411 0.61486 0.0
H558 H 0.63049 0.06353 0.52422 0.0
H559 H 0.57275 0.03888 0.58609 0.0
H560 H 0.66807 0.10213 0.57341 0.0
H561 H 0.67045 0.08057 0.58835 0.0
H562 H 0.66676 0.08332 0.54479 0.0
H563 H 0.57527 0.0447 0.64318 0.0
H564 H 0.60115 0.05173 0.66315 0.0
H565 H 0.59621 0.07201 0.64989 0.0
H566 H 0.6725 0.08125 0.69832 0.0
H567 H 0.66602 0.13314 0.66527 0.0
H568 H 0.65179 0.051 0.62833 0.0
H569 H 0.62808 0.0415 0.65446 0.0
H570 H 0.65457 0.04858 0.67225 0.0
H571 H 0.64331 0.11465 0.58922 0.0
H572 H 0.64266 0.13039 0.62183 0.0
H573 H 0.61925 0.10412 0.61495 0.0
C574 C 0.60274 0.59079 0.11632 0.0
C575 C 0.58236 0.57285 0.10791 0.0
C576 C 0.6036 0.60776 0.13229 0.0
C577 C 0.58356 0.60657 0.14071 0.0
C578 C 0.56291 0.58848 0.1322 0.0
C579 C 0.56258 0.57193 0.11559 0.0
C580 C 0.62596 0.62692 0.14033 0.0
C581 C 0.54118 0.58639 0.14134 0.0
C582 C 0.58792 0.64063 0.21226 0.0
C583 C 0.58846 0.65775 0.19597 0.0
C584 C 0.58561 0.62359 0.19461 0.0
C585 C 0.58432 0.62387 0.15972 0.0
C586 C 0.58461 0.64105 0.14314 0.0
C587 C 0.58642 0.6577 0.16155 0.0
C588 C 0.58487 0.6054 0.21331 0.0
C589 C 0.58367 0.64212 0.10597 0.0
H590 H 0.61804 0.59164 0.10996 0.0
H591 H 0.54682 0.55799 0.10931 0.0
H592 H 0.62712 0.64143 0.13002 0.0
H593 H 0.62791 0.62864 0.16747 0.0
H594 H 0.63995 0.62589 0.13042 0.0
H595 H 0.52657 0.57156 0.13219 0.0
H596 H 0.53992 0.58658 0.16858 0.0
H597 H 0.54051 0.60001 0.1311 0.0
H598 H 0.58927 0.64061 0.23894 0.0
H599 H 0.58693 0.671 0.149 0.0
H600 H 0.59959 0.60455 0.20688 0.0
H601 H 0.56989 0.59023 0.20618 0.0
H602 H 0.58464 0.60696 0.24048 0.0
H603 H 0.5983 0.64259 0.09523 0.0
H604 H 0.58347 0.65624 0.0969 0.0
H605 H 0.56862 0.62775 0.09672 0.0
C606 C 0.01495 0.533 0.66583 0.0
C607 C 0.02895 0.54186 0.63827 0.0
C608 C 1.00001 0.53925 0.67407 0.0
C609 C 0.99919 0.55486 0.65442 0.0
C610 C 0.014 0.56455 0.62748 0.0
C611 C 0.02864 0.55787 0.61967 0.0
C612 C 0.98445 0.52849 0.70296 0.0
C613 C 0.01388 0.58147 0.60626 0.0
C614 C 0.94407 0.55225 0.65476 0.0
C615 C 0.94787 0.56728 0.67838 0.0
C616 C 0.96084 0.54848 0.64605 0.0
C617 C 0.98201 0.56016 0.6611 0.0
C618 C 0.9863 0.57605 0.68376 0.0
C619 C 0.96916 0.57936 0.69224 0.0
C620 C 0.95562 0.53142 0.62168 0.0
C621 C 0.0087 0.58896 0.70013 0.0
H622 H 0.01492 0.52046 0.68006 0.0
H623 H 0.03963 0.56492 0.59859 0.0
H624 H 0.98573 0.54043 0.72023 0.0
H625 H 0.96703 0.51943 0.69402 0.0
H626 H 0.98797 0.51747 0.71676 0.0
H627 H 0.02758 0.58856 0.58783 0.0
H628 H 0.99784 0.57462 0.59292 0.0
H629 H 0.0154 0.59422 0.62188 0.0
H630 H 0.92777 0.54305 0.64362 0.0
H631 H 0.97222 0.59079 0.71089 0.0
H632 H 0.95686 0.5186 0.6341 0.0
H633 H 0.9679 0.5379 0.60124 0.0
H634 H 0.93869 0.52446 0.61105 0.0
H635 H 0.01154 0.57861 0.71698 0.0
H636 H 0.01003 0.60207 0.71462 0.0
H637 H 0.02216 0.5957 0.68137 0.0
C638 C 0.45807 0.95571 0.08227 0.0
C639 C 0.45329 0.94483 0.05256 0.0
C640 C 0.44373 0.94672 0.10964 0.0
C641 C 0.42423 0.9264 0.10721 0.0
C642 C 0.41934 0.91542 0.07727 0.0
C643 C 0.43388 0.92476 0.05039 0.0
C644 C 0.44945 0.95892 0.14117 0.0
C645 C 0.39876 0.89371 0.07364 0.0
C646 C 0.39597 0.89261 0.18394 0.0
C647 C 0.3777 0.89504 0.18742 0.0
C648 C 0.41153 0.90311 0.15843 0.0
C649 C 0.40883 0.91643 0.13585 0.0
C650 C 0.39061 0.9192 0.13947 0.0
C651 C 0.37526 0.90844 0.16513 0.0
C652 C 0.43072 0.89973 0.15537 0.0
C653 C 0.38709 0.9332 0.11583 0.0
H654 H 0.47303 0.97121 0.08417 0.0
H655 H 0.43 0.91618 0.0276 0.0
H656 H 0.4358 0.96135 0.14795 0.0
H657 H 0.4512 0.94974 0.16167 0.0
H658 H 0.46513 0.97459 0.13901 0.0
H659 H 0.39734 0.8873 0.04864 0.0
H660 H 0.39898 0.88256 0.09211 0.0
H661 H 0.3837 0.89433 0.07847 0.0
H662 H 0.39823 0.8826 0.20139 0.0
H663 H 0.36109 0.91026 0.1674 0.0
H664 H 0.44671 0.91514 0.15545 0.0
H665 H 0.42965 0.89224 0.13151 0.0
H666 H 0.43095 0.88953 0.17567 0.0
H667 H 0.40226 0.94925 0.11455 0.0
H668 H 0.37282 0.93461 0.12311 0.0
H669 H 0.384 0.9267 0.09065 0.0
C670 C 0.4651 0.42955 0.64874 0.0
C671 C 0.47112 0.43349 0.61527 0.0
C672 C 0.46319 0.41197 0.6657 0.0
C673 C 0.46745 0.398 0.64884 0.0
C674 C 0.47323 0.40168 0.61498 0.0
C675 C 0.47494 0.41935 0.5986 0.0
C676 C 0.45696 0.40856 0.70183 0.0
C677 C 0.47787 0.38712 0.59615 0.0
C678 C 0.48404 0.36555 0.70156 0.0
C679 C 0.46393 0.34601 0.70413 0.0
C680 C 0.48551 0.38246 0.6831 0.0
C681 C 0.46638 0.37983 0.66694 0.0
C682 C 0.44613 0.36005 0.66891 0.0
C683 C 0.44516 0.34337 0.68743 0.0
C684 C 0.50743 0.4033 0.68152 0.0
C685 C 0.42539 0.35664 0.65195 0.0
H686 H 0.46239 0.44048 0.66197 0.0
H687 H 0.47923 0.42204 0.57264 0.0
H688 H 0.44203 0.39258 0.70603 0.0
H689 H 0.47066 0.40936 0.71667 0.0
H690 H 0.45347 0.42048 0.71106 0.0
H691 H 0.4817 0.39194 0.56973 0.0
H692 H 0.49215 0.38694 0.60743 0.0
H693 H 0.46331 0.3707 0.59765 0.0
H694 H 0.49855 0.36783 0.71475 0.0
H695 H 0.42964 0.32824 0.68893 0.0
H696 H 0.50568 0.41572 0.69309 0.0
H697 H 0.51238 0.40828 0.65543 0.0
H698 H 0.52096 0.40248 0.6943 0.0
H699 H 0.42064 0.36745 0.66213 0.0
H700 H 0.41114 0.34012 0.65503 0.0
H701 H 0.42858 0.36045 0.62519 0.0
C702 C 0.56978 0.98088 0.36986 0.0
C703 C 0.57311 0.98538 0.40353 0.0
C704 C 0.57201 0.96476 0.35677 0.0
C705 C 0.57828 0.95323 0.37774 0.0
C706 C 0.5818 0.95782 0.41178 0.0
C707 C 0.57889 0.97367 0.42433 0.0
C708 C 0.56762 0.96006 0.32049 0.0
C709 C 0.58903 0.94627 0.43478 0.0
C710 C 0.56696 0.90032 0.34764 0.0
C711 C 0.58722 0.90611 0.3324 0.0
C712 C 0.56388 0.9154 0.36287 0.0
C713 C 0.58165 0.93674 0.36374 0.0
C714 C 0.60242 0.94254 0.34981 0.0
C715 C 0.60486 0.92728 0.33397 0.0
C716 C 0.54138 0.90862 0.37706 0.0
C717 C 0.62194 0.96504 0.35078 0.0
H718 H 0.56502 0.98975 0.35389 0.0
H719 H 0.58164 0.9773 0.45032 0.0
H720 H 0.58296 0.96307 0.30812 0.0
H721 H 0.55478 0.94312 0.31728 0.0
H722 H 0.56192 0.96982 0.30788 0.0
H723 H 0.59095 0.95163 0.46062 0.0
H724 H 0.57675 0.92902 0.43442 0.0
H725 H 0.60514 0.94878 0.4263 0.0
H726 H 0.55332 0.88401 0.34731 0.0
H727 H 0.62048 0.93222 0.32185 0.0
H728 H 0.53438 0.91707 0.36378 0.0
H729 H 0.54298 0.91294 0.40339 0.0
H730 H 0.52943 0.89134 0.37518 0.0
H731 H 0.61834 0.97542 0.33532 0.0
H732 H 0.63749 0.96658 0.34163 0.0
H733 H 0.62473 0.97092 0.37636 0.0
C734 C 0.60387 0.53727 0.92317 0.0
C735 C 0.60953 0.53148 0.95319 0.0
C736 C 0.61783 0.54305 0.89537 0.0
C737 C 0.63782 0.54297 0.89774 0.0
C738 C 0.64378 0.53758 0.92817 0.0
C739 C 0.62962 0.53195 0.95544 0.0
C740 C 0.61101 0.54882 0.86333 0.0
C741 C 0.66491 0.53726 0.93179 0.0
C742 C 0.66434 0.53489 0.82323 0.0
C743 C 0.68283 0.55528 0.81748 0.0
C744 C 0.64904 0.53085 0.8484 0.0
C745 C 0.65222 0.54761 0.8683 0.0
C746 C 0.67039 0.56837 0.8619 0.0
C747 C 0.6855 0.57196 0.8366 0.0
C748 C 0.6299 0.50847 0.85442 0.0
C749 C 0.67433 0.58666 0.88255 0.0
H750 H 0.5884 0.53697 0.92123 0.0
H751 H 0.63423 0.52761 0.97852 0.0
H752 H 0.62457 0.56448 0.85404 0.0
H753 H 0.60807 0.53711 0.84436 0.0
H754 H 0.59566 0.5493 0.86602 0.0
H755 H 0.66748 0.53337 0.95746 0.0
H756 H 0.66438 0.52537 0.91513 0.0
H757 H 0.67947 0.55286 0.92445 0.0
H758 H 0.66185 0.52201 0.80808 0.0
H759 H 0.69978 0.58774 0.83245 0.0
H760 H 0.61395 0.50801 0.85481 0.0
H761 H 0.63183 0.50262 0.87891 0.0
H762 H 0.62887 0.49752 0.83533 0.0
H763 H 0.65892 0.5871 0.88422 0.0
H764 H 0.68786 0.6021 0.8724 0.0
H765 H 0.67888 0.58457 0.90804 0.0
C766 C 0.07343 0.56208 0.47213 0.0
C767 C 0.08654 0.56225 0.49852 0.0
C768 C 0.08162 0.57938 0.44976 0.0
C769 C 0.10341 0.59713 0.45389 0.0
C770 C 0.11664 0.59731 0.48044 0.0
C771 C 0.10805 0.57995 0.50238 0.0
C772 C 0.06703 0.57871 0.42176 0.0
C773 C 0.13999 0.61584 0.48566 0.0
C774 C 0.13581 0.63486 0.38287 0.0
C775 C 0.13433 0.65247 0.38998 0.0
C776 C 0.12517 0.61645 0.40281 0.0
C777 C 0.11269 0.61559 0.43052 0.0
C778 C 0.11074 0.63313 0.43747 0.0
C779 C 0.12161 0.65136 0.41716 0.0
C780 C 0.1277 0.59811 0.39462 0.0
C781 C 0.09766 0.63285 0.46689 0.0
H782 H 0.0568 0.54848 0.46902 0.0
H783 H 0.11839 0.58027 0.5226 0.0
H784 H 0.06469 0.59231 0.42314 0.0
H785 H 0.0752 0.58016 0.39778 0.0
H786 H 0.05044 0.56386 0.4221 0.0
H787 H 0.14809 0.61351 0.50761 0.0
H788 H 0.15035 0.61837 0.46363 0.0
H789 H 0.13972 0.63049 0.48886 0.0
H790 H 0.1452 0.6354 0.3615 0.0
H791 H 0.12048 0.66493 0.42292 0.0
H792 H 0.11114 0.5834 0.39272 0.0
H793 H 0.13684 0.5955 0.41475 0.0
H794 H 0.13684 0.60079 0.37111 0.0
H795 H 0.08067 0.61857 0.46667 0.0
H796 H 0.09633 0.64708 0.46743 0.0
H797 H 0.10581 0.63208 0.48999 0.0
C798 C 0.46532 0.02379 0.92069 0.0
C799 C 0.47286 0.01341 0.9014 0.0
C800 C 0.46284 0.04 0.90709 0.0
C801 C 0.46871 0.04634 0.87367 0.0
C802 C 0.47643 0.03592 0.85413 0.0
C803 C 0.47812 0.01936 0.86816 0.0
C804 C 0.45394 0.05029 0.92843 0.0
C805 C 0.48335 0.04254 0.81863 0.0
C806 C 0.44688 0.07605 0.82519 0.0
C807 C 0.4649 0.09705 0.82654 0.0
C808 C 0.44754 0.05953 0.84159 0.0
C809 C 0.46692 0.06395 0.85902 0.0
C810 C 0.48498 0.08508 0.86112 0.0
C811 C 0.48362 0.10139 0.84532 0.0
C812 C 0.42771 0.03726 0.83943 0.0
C813 C 0.50608 0.09039 0.8791 0.0
H814 H 0.46116 0.01903 0.94637 0.0
H815 H 0.48425 0.01148 0.85346 0.0
H816 H 0.46656 0.06736 0.93075 0.0
H817 H 0.43905 0.04907 0.91671 0.0
H818 H 0.44936 0.04297 0.95357 0.0
H819 H 0.4894 0.03308 0.80703 0.0
H820 H 0.46914 0.04079 0.80402 0.0
H821 H 0.49676 0.05948 0.81722 0.0
H822 H 0.43246 0.07228 0.81038 0.0
H823 H 0.49744 0.11753 0.84729 0.0
H824 H 0.42288 0.02977 0.8644 0.0
H825 H 0.43209 0.0276 0.82462 0.0
H826 H 0.41312 0.03676 0.82784 0.0
H827 H 0.50231 0.08457 0.90508 0.0
H828 H 0.51847 0.10766 0.87897 0.0
H829 H 0.51368 0.08233 0.86736 0.0
C830 C 0.4677 0.49197 0.42714 0.0
C831 C 0.45649 0.48052 0.4558 0.0
C832 C 0.45584 0.49134 0.39859 0.0
C833 C 0.4323 0.47871 0.39868 0.0
C834 C 0.42104 0.46638 0.4271 0.0
C835 C 0.43325 0.46757 0.45534 0.0
C836 C 0.46843 0.50488 0.3689 0.0
C837 C 0.396 0.45242 0.42807 0.0
C838 C 0.39731 0.49179 0.34292 0.0
C839 C 0.39085 0.47684 0.31805 0.0
C840 C 0.41149 0.4931 0.36859 0.0
C841 C 0.41921 0.47894 0.36975 0.0
C842 C 0.41314 0.4641 0.34443 0.0
C843 C 0.3992 0.46334 0.31882 0.0
C844 C 0.41773 0.50928 0.39499 0.0
C845 C 0.42091 0.44866 0.34486 0.0
H846 H 0.48565 0.50219 0.42751 0.0
H847 H 0.42452 0.45861 0.47741 0.0
H848 H 0.46328 0.49524 0.34637 0.0
H849 H 0.46444 0.51736 0.36492 0.0
H850 H 0.48671 0.5126 0.37187 0.0
H851 H 0.3899 0.44282 0.4513 0.0
H852 H 0.38852 0.46231 0.42582 0.0
H853 H 0.38997 0.44158 0.40691 0.0
H854 H 0.39085 0.50218 0.34283 0.0
H855 H 0.3948 0.45206 0.29935 0.0
H856 H 0.43604 0.51876 0.39812 0.0
H857 H 0.41045 0.50114 0.41897 0.0
H858 H 0.41179 0.52019 0.38919 0.0
H859 H 0.4393 0.45725 0.34653 0.0
H860 H 0.41556 0.43875 0.32256 0.0
H861 H 0.41417 0.43809 0.367 0.0
C862 C 0.94739 0.4029 0.01165 0.0
C863 C 0.9489 0.42236 0.00663 0.0
C864 C 0.93587 0.38644 0.98922 0.0
C865 C 0.92572 0.38959 0.96117 0.0
C866 C 0.92616 0.40876 0.95704 0.0
C867 C 0.93765 0.42485 0.97988 0.0
C868 C 0.93559 0.36614 0.99463 0.0
C869 C 0.91548 0.41276 0.92755 0.0
C870 C 0.92099 0.36173 0.88156 0.0
C871 C 0.89821 0.34645 0.88055 0.0
C872 C 0.93023 0.37543 0.90817 0.0
C873 C 0.91638 0.37376 0.93455 0.0
C874 C 0.89349 0.35793 0.93421 0.0
C875 C 0.88464 0.34451 0.90711 0.0
C876 C 0.9547 0.3922 0.90747 0.0
C877 C 0.87826 0.35552 0.96204 0.0
H878 H 0.95612 0.40089 0.03215 0.0
H879 H 0.93838 0.43969 0.97628 0.0
H880 H 0.91851 0.35228 0.99159 0.0
H881 H 0.94624 0.36508 0.97584 0.0
H882 H 0.94178 0.36515 0.01951 0.0
H883 H 0.91596 0.42789 0.92921 0.0
H884 H 0.92426 0.41328 0.90469 0.0
H885 H 0.89792 0.39969 0.92516 0.0
H886 H 0.9315 0.36347 0.86093 0.0
H887 H 0.86707 0.33254 0.90661 0.0
H888 H 0.96285 0.39125 0.93043 0.0
H889 H 0.95685 0.40811 0.9063 0.0
H890 H 0.96338 0.39071 0.886 0.0
H891 H 0.8852 0.35426 0.98607 0.0
H892 H 0.86129 0.34138 0.95932 0.0
H893 H 0.87695 0.36974 0.9628 0.0
C894 C 0.97264 0.51243 0.94813 0.0
C895 C 0.99408 0.52955 0.95483 0.0
C896 C 0.95785 0.51507 0.92821 0.0
C897 C 0.96483 0.53518 0.91394 0.0
C898 C 0.9868 0.55229 0.91938 0.0
C899 C 1.00107 0.54934 0.94014 0.0
C900 C 0.93446 0.49652 0.9236 0.0
C901 C 0.99508 0.57383 0.90381 0.0
C902 C 0.93178 0.53818 0.84157 0.0
C903 C 0.91981 0.54596 0.85657 0.0
C904 C 0.94653 0.53462 0.8599 0.0
C905 C 0.94894 0.53849 0.8942 0.0
C906 C 0.93634 0.54579 0.9096 0.0
C907 C 0.92217 0.54977 0.89045 0.0
C908 C 0.96004 0.52736 0.84239 0.0
C909 C 0.93802 0.54959 0.94623 0.0
H910 H 0.96701 0.49712 0.95968 0.0
H911 H 0.01762 0.56259 0.94518 0.0
H912 H 0.92246 0.50012 0.93433 0.0
H913 H 0.93055 0.4937 0.89696 0.0
H914 H 0.93186 0.48176 0.93551 0.0
H915 H 0.01307 0.58499 0.90836 0.0
H916 H 0.99218 0.57247 0.87677 0.0
H917 H 0.9857 0.58064 0.9139 0.0
H918 H 0.93017 0.53561 0.8152 0.0
H919 H 0.91298 0.55594 0.90186 0.0
H920 H 0.95693 0.51229 0.85362 0.0
H921 H 0.97802 0.53922 0.84528 0.0
H922 H 0.95615 0.52502 0.81563 0.0
H923 H 0.93467 0.53515 0.96012 0.0
H924 H 0.92618 0.55408 0.95468 0.0
H925 H 0.95512 0.56241 0.95253 0.0
C926 C 0.47672 0.95766 0.47825 0.0
C927 C 0.48187 0.97689 0.46313 0.0
C928 C 0.45667 0.9388 0.47102 0.0
C929 C 0.44155 0.93935 0.44834 0.0
C930 C 0.44611 0.95898 0.43486 0.0
C931 C 0.46619 0.97745 0.44235 0.0
C932 C 0.45233 0.9182 0.48608 0.0
C933 C 0.43037 0.96039 0.41086 0.0
C934 C 0.40583 0.89615 0.38883 0.0
C935 C 0.38439 0.88898 0.40073 0.0
C936 C 0.42476 0.91124 0.40583 0.0
C937 C 0.42224 0.91955 0.4354 0.0
C938 C 0.40078 0.91112 0.44902 0.0
C939 C 0.38208 0.89594 0.4315 0.0
C940 C 0.44735 0.91967 0.39049 0.0
C941 C 0.39741 0.9193 0.48075 0.0
H942 H 0.4888 0.95716 0.49435 0.0
H943 H 0.46996 0.99233 0.43098 0.0
H944 H 0.43477 0.90814 0.4942 0.0
H945 H 0.45531 0.90937 0.46726 0.0
H946 H 0.46337 0.92077 0.50749 0.0
H947 H 0.43551 0.977 0.40475 0.0
H948 H 0.42974 0.95248 0.38763 0.0
H949 H 0.4133 0.9521 0.42121 0.0
H950 H 0.40791 0.8911 0.36499 0.0
H951 H 0.36559 0.89018 0.44123 0.0
H952 H 0.45938 0.92068 0.4093 0.0
H953 H 0.45373 0.93589 0.38042 0.0
H954 H 0.44676 0.90966 0.3701 0.0
H955 H 0.41001 0.92144 0.49937 0.0
H956 H 0.38057 0.90852 0.49125 0.0
H957 H 0.39943 0.93498 0.47591 0.0
C958 C 0.5297 0.41361 0.01423 0.0
C959 C 0.54036 0.43352 0.99826 0.0
C960 C 0.52212 0.39504 0.99638 0.0
C961 C 0.52531 0.39641 0.96176 0.0
C962 C 0.53663 0.4165 0.94567 0.0
C963 C 0.544 0.43477 0.96409 0.0
C964 C 0.51006 0.37392 0.01443 0.0
C965 C 0.54049 0.41869 0.90883 0.0
C966 C 0.51944 0.35018 0.91405 0.0
C967 C 0.49814 0.34158 0.90034 0.0
C968 C 0.52833 0.36771 0.93479 0.0
C969 C 0.51565 0.37687 0.94194 0.0
C970 C 0.49397 0.36797 0.92878 0.0
C971 C 0.48553 0.35051 0.90814 0.0
C972 C 0.55147 0.37672 0.94845 0.0
C973 C 0.47991 0.37728 0.93567 0.0
H974 H 0.52666 0.41248 0.04054 0.0
H975 H 0.5526 0.45009 0.95167 0.0
H976 H 0.4925 0.36476 0.00617 0.0
H977 H 0.51766 0.36457 0.00851 0.0
H978 H 0.51032 0.37561 0.04162 0.0
H979 H 0.55057 0.43548 0.90034 0.0
H980 H 0.5491 0.4105 0.9015 0.0
H981 H 0.5243 0.41105 0.89577 0.0
H982 H 0.52922 0.34328 0.90841 0.0
H983 H 0.46925 0.34429 0.89719 0.0
H984 H 0.55125 0.37765 0.97571 0.0
H985 H 0.56251 0.39305 0.93862 0.0
H986 H 0.55871 0.36712 0.94202 0.0
H987 H 0.47838 0.37833 0.96267 0.0
H988 H 0.46296 0.36781 0.92503 0.0
H989 H 0.48805 0.39358 0.92511 0.0
C990 C 0.12739 0.48531 0.50348 0.0
C991 C 0.11498 0.49483 0.49749 0.0
C992 C 0.13835 0.48209 0.47762 0.0
C993 C 0.13689 0.48861 0.44503 0.0
C994 C 0.12479 0.49864 0.43899 0.0
C995 C 0.11404 0.50165 0.46524 0.0
C996 C 0.15109 0.47134 0.48504 0.0
C997 C 0.12292 0.50595 0.40466 0.0
C998 C 0.17779 0.49602 0.37796 0.0
C999 C 0.16522 0.47751 0.35987 0.0
C1000 C 0.16907 0.49957 0.40637 0.0
C1001 C 0.14723 0.48428 0.4169 0.0
C1002 C 0.13469 0.46534 0.39924 0.0
C1003 C 0.14381 0.4622 0.37098 0.0
C1004 C 0.183 0.51993 0.42461 0.0
C1005 C 0.11131 0.44867 0.40955 0.0
H1006 H 0.1281 0.4799 0.52826 0.0
H1007 H 0.10494 0.50945 0.46047 0.0
H1008 H 0.14328 0.45609 0.47207 0.0
H1009 H 0.16839 0.48124 0.47574 0.0
H1010 H 0.15159 0.4682 0.51188 0.0
H1011 H 0.11342 0.51403 0.40427 0.0
H1012 H 0.13971 0.51698 0.39429 0.0
H1013 H 0.11452 0.4922 0.38815 0.0
H1014 H 0.19445 0.50781 0.36979 0.0
H1015 H 0.13384 0.448 0.35692 0.0
H1016 H 0.184 0.51651 0.45116 0.0
H1017 H 0.17508 0.52944 0.42297 0.0
H1018 H 0.20014 0.52959 0.41451 0.0
H1019 H 0.11099 0.44407 0.43588 0.0
H1020 H 0.1043 0.43427 0.39445 0.0
H1021 H 0.10036 0.45518 0.40705 0.0
C1022 C 0.57288 0.04876 0.9765 0.0
C1023 C 0.56594 0.03139 0.95609 0.0
C1024 C 0.59297 0.06804 0.97012 0.0
C1025 C 0.60631 0.0698 0.94289 0.0
C1026 C 0.59967 0.05202 0.92308 0.0
C1027 C 0.57963 0.03315 0.92988 0.0
C1028 C 0.59951 0.08664 0.99177 0.0
C1029 C 0.61345 0.05303 0.894 0.0
C1030 C 0.64497 0.11857 0.89211 0.0
C1031 C 0.66562 0.12111 0.89991 0.0
C1032 C 0.62554 0.10332 0.90868 0.0
C1033 C 0.62679 0.09022 0.93349 0.0
C1034 C 0.64785 0.09429 0.94389 0.0
C1035 C 0.66703 0.10971 0.92698 0.0
C1036 C 0.60347 0.09972 0.89709 0.0
C1037 C 0.64999 0.08094 0.97056 0.0
H1038 H 0.56234 0.04749 0.99676 0.0
H1039 H 0.57454 0.01973 0.91422 0.0
H1040 H 0.61725 0.0944 0.99896 0.0
H1041 H 0.59748 0.09855 0.9778 0.0
H1042 H 0.58916 0.08195 0.01447 0.0
H1043 H 0.60631 0.03754 0.88185 0.0
H1044 H 0.61464 0.06479 0.87539 0.0
H1045 H 0.63059 0.05824 0.90211 0.0
H1046 H 0.64363 0.12724 0.87125 0.0
H1047 H 0.68301 0.11193 0.93369 0.0
H1048 H 0.59239 0.0968 0.91835 0.0
H1049 H 0.59513 0.08552 0.8815 0.0
H1050 H 0.60547 0.1134 0.88227 0.0
H1051 H 0.63842 0.0777 0.99128 0.0
H1052 H 0.66721 0.08866 0.98034 0.0
H1053 H 0.64557 0.06552 0.96025 0.0
C1054 C 0.51306 0.57464 0.472 0.0
C1055 C 0.51942 0.57648 0.50527 0.0
C1056 C 0.5202 0.59256 0.45159 0.0
C1057 C 0.53385 0.61291 0.46484 0.0
C1058 C 0.53933 0.61495 0.49881 0.0
C1059 C 0.53211 0.5967 0.51862 0.0
C1060 C 0.51395 0.58967 0.41549 0.0
C1061 C 0.55367 0.6364 0.51389 0.0
C1062 C 0.57308 0.65526 0.40364 0.0
C1063 C 0.56152 0.66532 0.39523 0.0
C1064 C 0.56451 0.63857 0.42693 0.0
C1065 C 0.5439 0.63183 0.4424 0.0
C1066 C 0.53246 0.64234 0.43481 0.0
C1067 C 0.54134 0.6589 0.41111 0.0
C1068 C 0.57713 0.62764 0.43404 0.0
C1069 C 0.5106 0.63577 0.45113 0.0
H1070 H 0.50278 0.5591 0.46167 0.0
H1071 H 0.53718 0.59831 0.54423 0.0
H1072 H 0.50638 0.599 0.40826 0.0
H1073 H 0.52913 0.59561 0.40023 0.0
H1074 H 0.50209 0.57284 0.40954 0.0
H1075 H 0.55428 0.63536 0.54124 0.0
H1076 H 0.57086 0.64397 0.50416 0.0
H1077 H 0.54738 0.64687 0.50699 0.0
H1078 H 0.58851 0.65994 0.39107 0.0
H1079 H 0.53245 0.66676 0.40484 0.0
H1080 H 0.56708 0.61095 0.42626 0.0
H1081 H 0.58013 0.62744 0.46094 0.0
H1082 H 0.59338 0.63541 0.42102 0.0
H1083 H 0.49776 0.61957 0.44358 0.0
H1084 H 0.5047 0.64661 0.44452 0.0
H1085 H 0.51219 0.63532 0.47836 0.0
C1086 C 0.51727 0.09035 0.50115 0.0
C1087 C 0.53247 0.08499 0.5129 0.0
C1088 C 0.51006 0.10074 0.52125 0.0
C1089 C 0.51841 0.10609 0.55378 0.0
C1090 C 0.53443 0.10147 0.5653 0.0
C1091 C 0.54117 0.09088 0.54478 0.0
C1092 C 0.49278 0.10517 0.50817 0.0
C1093 C 0.54397 0.10713 0.59967 0.0
C1094 C 0.51042 0.1452 0.60149 0.0
C1095 C 0.49239 0.1316 0.6221 0.0
C1096 C 0.51898 0.13717 0.57888 0.0
C1097 C 0.50919 0.11503 0.57664 0.0
C1098 C 0.49078 0.10124 0.59692 0.0
C1099 C 0.48274 0.10967 0.61948 0.0
C1100 C 0.5387 0.15237 0.55776 0.0
C1101 C 0.47979 0.07752 0.59524 0.0
H1102 H 0.51032 0.08564 0.47667 0.0
H1103 H 0.55315 0.08703 0.55377 0.0
H1104 H 0.4771 0.09552 0.52232 0.0
H1105 H 0.49835 0.12201 0.51153 0.0
H1106 H 0.4892 0.10147 0.4816 0.0
H1107 H 0.55751 0.10394 0.60393 0.0
H1108 H 0.55056 0.12409 0.60406 0.0
H1109 H 0.53066 0.09784 0.61814 0.0
H1110 H 0.51787 0.16214 0.60304 0.0
H1111 H 0.46916 0.09899 0.63573 0.0
H1112 H 0.53455 0.149 0.53126 0.0
H1113 H 0.55283 0.15022 0.56312 0.0
H1114 H 0.54415 0.16912 0.56201 0.0
H1115 H 0.47455 0.07231 0.56955 0.0
H1116 H 0.465 0.06896 0.6116 0.0
H1117 H 0.49182 0.07285 0.60255 0.0
C1118 C 0.48816 0.50808 0.02781 0.0
C1119 C 0.49389 0.49534 0.04608 0.0
C1120 C 0.46852 0.50777 0.03485 0.0
C1121 C 0.45442 0.49445 0.06071 0.0
C1122 C 0.45964 0.48084 0.07801 0.0
C1123 C 0.47925 0.48145 0.07047 0.0
C1124 C 0.46339 0.52236 0.01567 0.0
C1125 C 0.44504 0.46627 0.10565 0.0
C1126 C 0.41945 0.50667 0.11451 0.0
C1127 C 0.39785 0.49106 0.10512 0.0
C1128 C 0.43813 0.50917 0.09826 0.0
C1129 C 0.43517 0.4957 0.07201 0.0
C1130 C 0.41346 0.48113 0.06063 0.0
C1131 C 0.39503 0.47895 0.07737 0.0
C1132 C 0.46098 0.52497 0.11117 0.0
C1133 C 0.40961 0.46671 0.03241 0.0
H1134 H 0.4994 0.51884 0.0089 0.0
H1135 H 0.48339 0.47136 0.08445 0.0
H1136 H 0.4457 0.51382 0.00799 0.0
H1137 H 0.46616 0.53544 0.03165 0.0
H1138 H 0.47405 0.52931 0.99339 0.0
H1139 H 0.45081 0.45585 0.11539 0.0
H1140 H 0.4449 0.47576 0.12625 0.0
H1141 H 0.42767 0.45618 0.09697 0.0
H1142 H 0.42187 0.516 0.13606 0.0
H1143 H 0.3784 0.46712 0.06958 0.0
H1144 H 0.47245 0.53418 0.09054 0.0
H1145 H 0.4679 0.51643 0.12439 0.0
H1146 H 0.46063 0.53615 0.12849 0.0
H1147 H 0.42146 0.47552 0.01196 0.0
H1148 H 0.39238 0.45918 0.02271 0.0
H1149 H 0.41244 0.45403 0.04105 0.0
C1150 C 1.00268 0.43061 0.6019 0.0
C1151 C 0.0031 0.44567 0.57985 0.0
C1152 C 0.9826 0.4134 0.61378 0.0
C1153 C 0.96224 0.41092 0.60314 0.0
C1154 C 0.96241 0.4254 0.57952 0.0
C1155 C 0.98288 0.44271 0.56823 0.0
C1156 C 0.98328 0.3984 0.63895 0.0
C1157 C 0.94104 0.42308 0.56716 0.0
C1158 C 0.91358 0.35635 0.6262 0.0
C1159 C 0.90739 0.36006 0.65688 0.0
C1160 C 0.93019 0.37307 0.60687 0.0
C1161 C 0.94112 0.39394 0.61878 0.0
C1162 C 0.93388 0.39792 0.64868 0.0
C1163 C 0.91705 0.38096 0.66727 0.0
C1164 C 0.93706 0.36818 0.57482 0.0
C1165 C 0.94515 0.41988 0.66247 0.0
H1166 H 0.01816 0.4326 0.61086 0.0
H1167 H 0.98303 0.45424 0.55117 0.0
H1168 H 0.976 0.39919 0.6626 0.0
H1169 H 0.97317 0.3819 0.63041 0.0
H1170 H 1.00046 0.40211 0.64377 0.0
H1171 H 0.94384 0.4338 0.54571 0.0
H1172 H 0.92913 0.40654 0.55992 0.0
H1173 H 0.93316 0.4268 0.58723 0.0
H1174 H 0.90596 0.34025 0.61784 0.0
H1175 H 0.91251 0.38395 0.69108 0.0
H1176 H 0.95315 0.36912 0.57827 0.0
H1177 H 0.93949 0.37993 0.55528 0.0
H1178 H 0.92459 0.3521 0.56622 0.0
H1179 H 0.96216 0.42468 0.67077 0.0
H1180 H 0.93594 0.42075 0.68378 0.0
H1181 H 0.94682 0.43147 0.64319 0.0
C1182 C 0.54633 0.92197 0.0002 0.0
C1183 C 0.52873 0.92391 0.01103 0.0
C1184 C 0.55506 0.91247 0.02051 0.0
C1185 C 0.54577 0.90455 0.05222 0.0
C1186 C 0.52738 0.90568 0.06267 0.0
C1187 C 0.51917 0.91545 0.04201 0.0
C1188 C 0.57482 0.91175 0.00864 0.0
C1189 C 0.51682 0.8972 0.09614 0.0
C1190 C 0.5578 0.86726 0.10088 0.0
C1191 C 0.57354 0.88096 0.12383 0.0
C1192 C 0.54898 0.87477 0.07684 0.0
C1193 C 0.5562 0.8965 0.07553 0.0
C1194 C 0.57263 0.91051 0.09783 0.0
C1195 C 0.58098 0.90257 0.1218 0.0
C1196 C 0.53144 0.85935 0.0535 0.0
C1197 C 0.58088 0.93384 0.09714 0.0
H1198 H 0.5539 0.92868 0.9764 0.0
H1199 H 0.50536 0.91668 0.0502 0.0
H1200 H 0.58954 0.92217 0.02398 0.0
H1201 H 0.57161 0.8955 0.01144 0.0
H1202 H 0.57892 0.91698 0.9824 0.0
H1203 H 0.50164 0.8979 0.09952 0.0
H1204 H 0.51233 0.88056 0.09958 0.0
H1205 H 0.52888 0.90651 0.11578 0.0
H1206 H 0.55217 0.8506 0.10195 0.0
H1207 H 0.5928 0.91325 0.13972 0.0
H1208 H 0.53636 0.86483 0.02756 0.0
H1209 H 0.51555 0.85855 0.05795 0.0
H1210 H 0.52852 0.84319 0.05649 0.0
H1211 H 0.58651 0.94061 0.07191 0.0
H1212 H 0.59484 0.94284 0.11458 0.0
H1213 H 0.56712 0.93615 0.10376 0.0
C1214 C 0.57947 0.51388 0.53891 0.0
C1215 C 0.56482 0.50929 0.56529 0.0
C1216 C 0.60123 0.51836 0.5446 0.0
C1217 C 0.60834 0.51809 0.57737 0.0
C1218 C 0.59324 0.51256 0.60385 0.0
C1219 C 0.57177 0.50832 0.59749 0.0
C1220 C 0.61685 0.52419 0.51576 0.0
C1221 C 0.59999 0.51187 0.63916 0.0
C1222 C 0.65938 0.51645 0.6025 0.0
C1223 C 0.67376 0.53727 0.61287 0.0
C1224 C 0.63853 0.51021 0.58859 0.0
C1225 C 0.63193 0.52514 0.58484 0.0
C1226 C 0.64701 0.54648 0.59297 0.0
C1227 C 0.66762 0.55224 0.607 0.0
C1228 C 0.62301 0.48733 0.58002 0.0
C1229 C 0.64073 0.56296 0.58927 0.0
H1230 H 0.57419 0.51462 0.51396 0.0
H1231 H 0.56048 0.50451 0.61801 0.0
H1232 H 0.63006 0.54117 0.51685 0.0
H1233 H 0.62516 0.51501 0.51695 0.0
H1234 H 0.60815 0.52137 0.49169 0.0
H1235 H 0.58586 0.50599 0.65666 0.0
H1236 H 0.60689 0.5015 0.64152 0.0
H1237 H 0.61324 0.52795 0.64657 0.0
H1238 H 0.66408 0.50483 0.60632 0.0
H1239 H 0.67832 0.56829 0.61525 0.0
H1240 H 0.61502 0.48604 0.55576 0.0
H1241 H 0.60959 0.47961 0.5988 0.0
H1242 H 0.63175 0.47854 0.57933 0.0
H1243 H 0.63328 0.56208 0.56466 0.0
H1244 H 0.65524 0.57924 0.59243 0.0
H1245 H 0.62806 0.55994 0.60812 0.0
C1246 C 0.06313 0.57928 0.09715 0.0
C1247 C 0.04119 0.56702 0.10891 0.0
C1248 C 0.0789 0.59794 0.11269 0.0
C1249 C 0.07257 0.60473 0.14048 0.0
C1250 C 0.05034 0.59283 0.15197 0.0
C1251 C 0.03495 0.57408 0.13614 0.0
C1252 C 0.10247 0.61013 0.0998 0.0
C1253 C 0.04295 0.59965 0.18145 0.0
C1254 C 0.11702 0.63886 0.20244 0.0
C1255 C 0.12154 0.65919 0.19399 0.0
C1256 C 0.10133 0.6211 0.18498 0.0
C1257 C 0.08953 0.6236 0.15866 0.0
C1258 C 0.09397 0.64402 0.14985 0.0
C1259 C 0.11001 0.66159 0.16751 0.0
C1260 C 0.09721 0.59961 0.19498 0.0
C1261 C 0.08161 0.64726 0.12201 0.0
H1262 H 0.06808 0.57435 0.07569 0.0
H1263 H 0.01814 0.56472 0.14558 0.0
H1264 H 0.10762 0.62677 0.09412 0.0
H1265 H 0.11394 0.61042 0.11902 0.0
H1266 H 0.10452 0.60314 0.0772 0.0
H1267 H 0.02477 0.58945 0.18593 0.0
H1268 H 0.05181 0.5991 0.20385 0.0
H1269 H 0.04726 0.61624 0.17785 0.0
H1270 H 0.12537 0.63667 0.22334 0.0
H1271 H 0.11348 0.67722 0.16061 0.0
H1272 H 0.09988 0.59218 0.17355 0.0
H1273 H 0.07969 0.58909 0.20299 0.0
H1274 H 0.10825 0.60045 0.21541 0.0
H1275 H 0.08423 0.64135 0.09868 0.0
H1276 H 0.08698 0.66414 0.11825 0.0
H1277 H 0.06349 0.63801 0.12721 0.0
loop_
_geom_bond_atom_site_label_1
_geom_bond_atom_site_label_2
_geom_bond_distance
_geom_bond_site_symmetry_2
_ccdc_geom_bond_type
Cu0 N1 1.999 . S
Cu0 O6 1.974 . S
Cu0 N11 1.985 1_655 S
Cu0 O20 1.959 1_655 S
N1 Cu0 1.999 . S
N1 C3 1.263 . S
N1 C5 1.389 . S
N2 C3 1.358 . S
N2 C4 1.400 . S
C3 N1 1.263 . S
C3 N2 1.358 . S
C3 H9 0.930 1_554 S
C4 N2 1.400 . S
C4 C5 1.351 . S
C4 H21 0.930 . S
C5 N1 1.389 . S
C5 C4 1.351 . S
C5 H10 0.930 . S
O6 Cu0 1.974 . S
O6 C16 1.300 . S
C7 O8 1.261 . S
C7 O20 1.251 . S
O8 C7 1.261 . S
H9 C3 0.930 1_556 S
H10 C5 0.930 . S
N11 Cu0 1.985 1_455 S
N11 C13 1.335 . S
N11 C14 1.390 . S
N12 C13 1.345 . S
N12 C15 1.336 . S
C13 N11 1.335 . S
C13 N12 1.345 . S
C13 H18 0.930 . S
C14 N11 1.390 . S
C14 C15 1.346 . S
C14 H19 0.930 . S
C15 N12 1.336 . S
C15 C14 1.346 . S
C15 H22 0.929 . S
C16 O6 1.300 . S
C16 O17 1.204 1_554 S
O17 C16 1.204 1_556 S
H18 C13 0.930 . S
H19 C14 0.930 . S
O20 Cu0 1.959 1_455 S
O20 C7 1.251 . S
H21 C4 0.930 . S
H22 C15 0.929 . S
Cu23 N24 1.999 . S
Cu23 O29 1.974 . S
Cu23 N34 1.985 1_565 S
Cu23 O43 1.959 1_565 S
N24 Cu23 1.999 . S
N24 C26 1.263 . S
N24 C28 1.389 . S
N25 C26 1.358 . S
N25 C27 1.400 . S
C26 N24 1.263 . S
C26 N25 1.358 . S
C26 H32 0.930 . S
C27 N25 1.400 . S
C27 C28 1.351 . S
C27 H44 0.930 . S
C28 N24 1.389 . S
C28 C27 1.351 . S
C28 H33 0.930 . S
O29 Cu23 1.974 . S
O29 C39 1.282 . S
C30 O31 1.261 . S
C30 O43 1.251 . S
O31 C30 1.261 . S
H32 C26 0.930 . S
H33 C28 0.930 . S
N34 Cu23 1.985 1_545 S
N34 C36 1.335 . S
N34 C37 1.390 . S
N35 C36 1.345 . S
N35 C38 1.336 . S
C36 N34 1.335 . S
C36 N35 1.345 . S
C36 H41 0.930 . S
C37 N34 1.390 . S
C37 C38 1.346 . S
C37 H42 0.930 . S
C38 N35 1.336 . S
C38 C37 1.346 . S
C38 H45 0.929 . S
C39 O29 1.282 . S
C39 O40 1.216 . S
O40 C39 1.216 . S
H41 C36 0.930 . S
H42 C37 0.930 . S
O43 Cu23 1.959 1_545 S
O43 C30 1.251 . S
H44 C27 0.930 . S
H45 C38 0.929 . S
Cu46 N47 1.999 . S
Cu46 O52 1.974 . S
Cu46 N57 1.985 1_556 S
Cu46 O66 1.959 1_556 S
N47 Cu46 1.999 . S
N47 C49 1.263 . S
N47 C51 1.389 . S
N48 C49 1.358 . S
N48 C50 1.400 . S
C49 N47 1.263 . S
C49 N48 1.358 . S
C49 H55 0.930 . S
C50 N48 1.400 . S
C50 C51 1.351 . S
C50 H67 0.930 . S
C51 N47 1.389 . S
C51 C50 1.351 . S
C51 H56 0.930 . S
O52 Cu46 1.974 . S
O52 C62 1.282 . S
C53 O54 1.261 . S
C53 O66 1.251 . S
O54 C53 1.261 . S
H55 C49 0.930 . S
H56 C51 0.930 . S
N57 Cu46 1.985 1_554 S
N57 C59 1.335 . S
N57 C60 1.390 . S
N58 C59 1.345 . S
N58 C61 1.336 . S
C59 N57 1.335 . S
C59 N58 1.345 . S
C59 H64 0.930 . S
C60 N57 1.390 . S
C60 C61 1.346 . S
C60 H65 0.930 . S
C61 N58 1.336 . S
C61 C60 1.346 . S
C61 H68 0.929 . S
C62 O52 1.282 . S
C62 O63 1.216 1_556 S
O63 C62 1.216 1_554 S
H64 C59 0.930 . S
H65 C60 0.930 . S
O66 Cu46 1.959 1_554 S
O66 C53 1.251 . S
H67 C50 0.930 . S
H68 C61 0.929 . S
Cu69 N70 1.999 . S
Cu69 O75 1.974 . S
Cu69 N80 1.985 . S
Cu69 O89 1.959 . S
N70 Cu69 1.999 . S
N70 C72 1.263 . S
N70 C74 1.389 . S
N71 C72 1.358 . S
N71 C73 1.400 . S
C72 N70 1.263 . S
C72 N71 1.358 . S
C72 H78 0.930 . S
C73 N71 1.400 . S
C73 C74 1.351 . S
C73 H90 0.930 . S
C74 N70 1.389 . S
C74 C73 1.351 . S
C74 H79 0.930 . S
O75 Cu69 1.974 . S
O75 C85 1.282 . S
C76 O77 1.261 . S
C76 O89 1.251 . S
O77 C76 1.261 . S
H78 C72 0.930 . S
H79 C74 0.930 . S
N80 Cu69 1.985 . S
N80 C82 1.335 . S
N80 C83 1.390 . S
N81 C82 1.345 . S
N81 C84 1.336 . S
C82 N80 1.335 . S
C82 N81 1.345 . S
C82 H87 0.930 . S
C83 N80 1.390 . S
C83 C84 1.346 . S
C83 H88 0.930 . S
C84 N81 1.336 . S
C84 C83 1.346 . S
C84 H91 0.929 . S
C85 O75 1.282 . S
C85 O86 1.216 . S
O86 C85 1.216 . S
H87 C82 0.930 . S
H88 C83 0.930 . S
O89 Cu69 1.959 . S
O89 C76 1.251 . S
H90 C73 0.930 . S
H91 C84 0.929 . S
Cu92 N93 1.999 . S
Cu92 O98 1.974 1_554 S
Cu92 N103 1.985 1_545 S
Cu92 O112 1.959 1_545 S
N93 Cu92 1.999 . S
N93 C95 1.263 1_554 S
N93 C97 1.389 . S
N94 C95 1.358 . S
N94 C96 1.400 1_556 S
C95 N93 1.263 1_556 S
C95 N94 1.358 . S
C95 H101 0.930 . S
C96 N94 1.400 1_554 S
C96 C97 1.351 . S
C96 H113 0.930 . S
C97 N93 1.389 . S
C97 C96 1.351 . S
C97 H102 0.930 . S
O98 Cu92 1.974 1_556 S
O98 C108 1.282 . S
C99 O100 1.264 . S
C99 O112 1.251 . S
O100 C99 1.264 . S
H101 C95 0.930 . S
H102 C97 0.930 . S
N103 Cu92 1.985 1_565 S
N103 C105 1.335 . S
N103 C106 1.390 . S
N104 C105 1.345 . S
N104 C107 1.336 . S
C105 N103 1.335 . S
C105 N104 1.345 . S
C105 H110 0.930 . S
C106 N103 1.390 . S
C106 C107 1.346 . S
C106 H111 0.930 1_564 S
C107 N104 1.336 . S
C107 C106 1.346 . S
C107 H114 0.929 . S
C108 O98 1.282 . S
C108 O109 1.216 . S
O109 C108 1.216 . S
H110 C105 0.930 . S
H111 C106 0.930 1_546 S
O112 Cu92 1.959 1_565 S
O112 C99 1.251 . S
H113 C96 0.930 . S
H114 C107 0.929 . S
Cu115 N116 1.999 . S
Cu115 O121 1.974 . S
Cu115 N126 1.985 . S
Cu115 O135 1.959 . S
N116 Cu115 1.999 . S
N116 C118 1.263 . S
N116 C120 1.389 . S
N117 C118 1.358 . S
N117 C119 1.400 . S
C118 N116 1.263 . S
C118 N117 1.358 . S
C118 H124 0.930 . S
C119 N117 1.400 . S
C119 C120 1.351 . S
C119 H136 0.930 . S
C120 N116 1.389 . S
C120 C119 1.351 . S
C120 H125 0.930 . S
O121 Cu115 1.974 . S
O121 C131 1.282 . S
C122 O123 1.261 . S
C122 O135 1.251 . S
O123 C122 1.261 . S
H124 C118 0.930 . S
H125 C120 0.930 . S
N126 Cu115 1.985 . S
N126 C128 1.335 . S
N126 C129 1.390 . S
N127 C128 1.345 . S
N127 C130 1.336 . S
C128 N126 1.335 . S
C128 N127 1.345 . S
C128 H133 0.930 . S
C129 N126 1.390 . S
C129 C130 1.346 . S
C129 H134 0.930 . S
C130 N127 1.336 . S
C130 C129 1.346 . S
C130 H137 0.929 . S
C131 O121 1.282 . S
C131 O132 1.216 . S
O132 C131 1.216 . S
H133 C128 0.930 . S
H134 C129 0.930 . S
O135 Cu115 1.959 . S
O135 C122 1.251 . S
H136 C119 0.930 . S
H137 C130 0.929 . S
H138 C165 0.929 . S
N139 C164 1.433 . S
N139 C170 1.435 . S
N139 C176 1.423 . S
H140 C166 0.930 . S
H141 C169 0.931 . S
H142 C168 0.929 . S
H143 C171 0.930 . S
H144 C172 0.932 . S
H145 C175 0.929 . S
H146 C174 0.931 . S
H147 C177 0.929 . S
H148 C181 0.932 . S
H149 C178 0.931 . S
H150 C180 0.929 . S
H151 C183 0.929 . S
H152 C184 0.930 . S
H153 C186 0.929 . S
H154 C187 0.931 . S
H155 C189 0.930 . S
H156 C190 0.932 . S
H157 C192 0.931 . S
H158 C193 0.929 . S
H159 C195 0.929 . S
H160 C196 0.931 . S
H161 C198 0.929 . S
N162 C182 1.433 . S
N162 C188 1.435 . S
N162 C194 1.423 . S
H163 C199 0.932 . S
C164 N139 1.433 . S
C164 C165 1.363 . S
C164 C169 1.370 . S
C165 H138 0.929 . S
C165 C164 1.363 . S
C165 C166 1.385 . S
C166 H140 0.930 . S
C166 C165 1.385 . S
C166 C167 1.357 . S
C167 C166 1.357 . S
C167 C168 1.406 . S
C168 H142 0.929 . S
C168 C167 1.406 . S
C168 C169 1.391 . S
C169 H141 0.931 . S
C169 C164 1.370 . S
C169 C168 1.391 . S
C170 N139 1.435 . S
C170 C171 1.358 . S
C170 C175 1.371 . S
C171 H143 0.930 . S
C171 C170 1.358 . S
C171 C172 1.405 . S
C172 H144 0.932 . S
C172 C171 1.405 . S
C172 C173 1.383 . S
C173 C172 1.383 . S
C173 C174 1.393 . S
C174 H146 0.931 . S
C174 C173 1.393 . S
C174 C175 1.382 . S
C175 H145 0.929 . S
C175 C170 1.371 . S
C175 C174 1.382 . S
C176 N139 1.423 . S
C176 C177 1.362 . S
C176 C181 1.388 . S
C177 H147 0.929 . S
C177 C176 1.362 . S
C177 C178 1.376 . S
C178 H149 0.931 . S
C178 C177 1.376 . S
C178 C179 1.396 . S
C179 C178 1.396 . S
C179 C180 1.348 . S
C179 C197 1.472 . S
C180 H150 0.929 . S
C180 C179 1.348 . S
C180 C181 1.443 . S
C181 H148 0.932 . S
C181 C176 1.388 . S
C181 C180 1.443 . S
C182 N162 1.433 . S
C182 C183 1.363 . S
C182 C187 1.370 . S
C183 H151 0.929 . S
C183 C182 1.363 . S
C183 C184 1.385 . S
C184 H152 0.930 . S
C184 C183 1.385 . S
C184 C185 1.357 . S
C185 C184 1.357 . S
C185 C186 1.406 . S
C186 H153 0.929 . S
C186 C185 1.406 . S
C186 C187 1.391 . S
C187 H154 0.931 . S
C187 C182 1.370 . S
C187 C186 1.391 . S
C188 N162 1.435 . S
C188 C189 1.358 . S
C188 C193 1.371 . S
C189 H155 0.930 . S
C189 C188 1.358 . S
C189 C190 1.405 . S
C190 H156 0.932 . S
C190 C189 1.405 . S
C190 C191 1.383 . S
C191 C190 1.383 . S
C191 C192 1.393 . S
C192 H157 0.931 . S
C192 C191 1.393 . S
C192 C193 1.382 . S
C193 H158 0.929 . S
C193 C188 1.371 . S
C193 C192 1.382 . S
C194 N162 1.423 . S
C194 C195 1.362 . S
C194 C199 1.388 . S
C195 H159 0.929 . S
C195 C194 1.362 . S
C195 C196 1.376 . S
C196 H160 0.931 . S
C196 C195 1.376 . S
C196 C197 1.396 . S
C197 C179 1.472 . S
C197 C196 1.396 . S
C197 C198 1.348 . S
C198 H161 0.929 . S
C198 C197 1.348 . S
C198 C199 1.443 . S
C199 H163 0.932 . S
C199 C194 1.388 . S
C199 C198 1.443 . S
H200 C227 0.929 . S
N201 C226 1.433 . S
N201 C232 1.435 . S
N201 C238 1.423 . S
H202 C228 0.930 . S
H203 C231 0.931 . S
H204 C230 0.929 . S
H205 C233 0.930 . S
H206 C234 0.932 . S
H207 C237 0.929 . S
H208 C236 0.931 . S
H209 C239 0.929 . S
H210 C243 0.932 . S
H211 C240 0.931 . S
H212 C242 0.929 . S
H213 C245 0.929 . S
H214 C246 0.930 . S
H215 C248 0.929 . S
H216 C249 0.931 . S
H217 C251 0.930 . S
H218 C252 0.932 . S
H219 C254 0.931 . S
H220 C255 0.929 . S
H221 C257 0.929 . S
H222 C258 0.931 . S
H223 C260 0.929 . S
N224 C244 1.433 . S
N224 C250 1.435 . S
N224 C256 1.423 . S
H225 C261 0.932 . S
C226 N201 1.433 . S
C226 C227 1.363 . S
C226 C231 1.370 . S
C227 H200 0.929 . S
C227 C226 1.363 . S
C227 C228 1.385 . S
C228 H202 0.930 . S
C228 C227 1.385 . S
C228 C229 1.357 . S
C229 C228 1.357 . S
C229 C230 1.406 . S
C230 H204 0.929 . S
C230 C229 1.406 . S
C230 C231 1.391 . S
C231 H203 0.931 . S
C231 C226 1.370 . S
C231 C230 1.391 . S
C232 N201 1.435 . S
C232 C233 1.358 . S
C232 C237 1.371 . S
C233 H205 0.930 . S
C233 C232 1.358 . S
C233 C234 1.405 . S
C234 H206 0.932 . S
C234 C233 1.405 . S
C234 C235 1.383 . S
C235 C234 1.383 . S
C235 C236 1.393 . S
C236 H208 0.931 . S
C236 C235 1.393 . S
C236 C237 1.382 . S
C237 H207 0.929 . S
C237 C232 1.371 . S
C237 C236 1.382 . S
C238 N201 1.423 . S
C238 C239 1.362 . S
C238 C243 1.388 . S
C239 H209 0.929 . S
C239 C238 1.362 . S
C239 C240 1.376 . S
C240 H211 0.931 . S
C240 C239 1.376 . S
C240 C241 1.396 . S
C241 C240 1.396 . S
C241 C242 1.348 . S
C241 C259 1.472 . S
C242 H212 0.929 . S
C242 C241 1.348 . S
C242 C243 1.443 . S
C243 H210 0.932 . S
C243 C238 1.388 . S
C243 C242 1.443 . S
C244 N224 1.433 . S
C244 C245 1.363 . S
C244 C249 1.370 . S
C245 H213 0.929 . S
C245 C244 1.363 . S
C245 C246 1.385 . S
C246 H214 0.930 . S
C246 C245 1.385 . S
C246 C247 1.357 . S
C247 C246 1.357 . S
C247 C248 1.406 . S
C248 H215 0.929 . S
C248 C247 1.406 . S
C248 C249 1.391 . S
C249 H216 0.931 . S
C249 C244 1.370 . S
C249 C248 1.391 . S
C250 N224 1.435 . S
C250 C251 1.358 . S
C250 C255 1.371 . S
C251 H217 0.930 . S
C251 C250 1.358 . S
C251 C252 1.405 . S
C252 H218 0.932 . S
C252 C251 1.405 . S
C252 C253 1.383 . S
C253 C252 1.383 . S
C253 C254 1.393 . S
C254 H219 0.931 . S
C254 C253 1.393 . S
C254 C255 1.382 . S
C255 H220 0.929 . S
C255 C250 1.371 . S
C255 C254 1.382 . S
C256 N224 1.423 . S
C256 C257 1.362 . S
C256 C261 1.388 . S
C257 H221 0.929 . S
C257 C256 1.362 . S
C257 C258 1.376 . S
C258 H222 0.931 . S
C258 C257 1.376 . S
C258 C259 1.396 . S
C259 C241 1.472 . S
C259 C258 1.396 . S
C259 C260 1.348 . S
C260 H223 0.929 . S
C260 C259 1.348 . S
C260 C261 1.443 . S
C261 H225 0.932 . S
C261 C256 1.388 . S
C261 C260 1.443 . S
H262 C289 0.929 . S
N263 C288 1.433 . S
N263 C294 1.435 . S
N263 C300 1.423 . S
H264 C290 0.930 . S
H265 C293 0.931 . S
H266 C292 0.929 . S
H267 C295 0.930 . S
H268 C296 0.932 . S
H269 C299 0.929 . S
H270 C298 0.931 . S
H271 C301 0.929 . S
H272 C305 0.932 . S
H273 C302 0.931 . S
H274 C304 0.929 . S
H275 C307 0.929 . S
H276 C308 0.930 . S
H277 C310 0.929 . S
H278 C311 0.931 . S
H279 C313 0.930 . S
H280 C314 0.932 . S
H281 C316 0.931 . S
H282 C317 0.929 . S
H283 C319 0.929 . S
H284 C320 0.931 . S
H285 C322 0.929 . S
N286 C306 1.433 . S
N286 C312 1.435 . S
N286 C318 1.423 . S
H287 C323 0.932 . S
C288 N263 1.433 . S
C288 C289 1.363 . S
C288 C293 1.370 . S
C289 H262 0.929 . S
C289 C288 1.363 . S
C289 C290 1.385 . S
C290 H264 0.930 . S
C290 C289 1.385 . S
C290 C291 1.357 . S
C291 C290 1.357 . S
C291 C292 1.406 . S
C292 H266 0.929 . S
C292 C291 1.406 . S
C292 C293 1.391 . S
C293 H265 0.931 . S
C293 C288 1.370 . S
C293 C292 1.391 . S
C294 N263 1.435 . S
C294 C295 1.358 . S
C294 C299 1.371 . S
C295 H267 0.930 . S
C295 C294 1.358 . S
C295 C296 1.405 . S
C296 H268 0.932 . S
C296 C295 1.405 . S
C296 C297 1.383 . S
C297 C296 1.383 . S
C297 C298 1.393 . S
C298 H270 0.931 . S
C298 C297 1.393 . S
C298 C299 1.382 . S
C299 H269 0.929 . S
C299 C294 1.371 . S
C299 C298 1.382 . S
C300 N263 1.423 . S
C300 C301 1.362 . S
C300 C305 1.388 . S
C301 H271 0.929 . S
C301 C300 1.362 . S
C301 C302 1.376 . S
C302 H273 0.931 . S
C302 C301 1.376 . S
C302 C303 1.396 . S
C303 C302 1.396 . S
C303 C304 1.348 . S
C303 C321 1.472 . S
C304 H274 0.929 . S
C304 C303 1.348 . S
C304 C305 1.443 . S
C305 H272 0.932 . S
C305 C300 1.388 . S
C305 C304 1.443 . S
C306 N286 1.433 . S
C306 C307 1.363 . S
C306 C311 1.370 . S
C307 H275 0.929 . S
C307 C306 1.363 . S
C307 C308 1.385 . S
C308 H276 0.930 . S
C308 C307 1.385 . S
C308 C309 1.357 . S
C309 C308 1.357 . S
C309 C310 1.406 . S
C310 H277 0.929 . S
C310 C309 1.406 . S
C310 C311 1.391 . S
C311 H278 0.931 . S
C311 C306 1.370 . S
C311 C310 1.391 . S
C312 N286 1.435 . S
C312 C313 1.358 . S
C312 C317 1.371 . S
C313 H279 0.930 . S
C313 C312 1.358 . S
C313 C314 1.405 . S
C314 H280 0.932 . S
C314 C313 1.405 . S
C314 C315 1.383 . S
C315 C314 1.383 . S
C315 C316 1.393 . S
C316 H281 0.931 . S
C316 C315 1.393 . S
C316 C317 1.382 . S
C317 H282 0.929 . S
C317 C312 1.371 . S
C317 C316 1.382 . S
C318 N286 1.423 . S
C318 C319 1.362 . S
C318 C323 1.388 . S
C319 H283 0.929 . S
C319 C318 1.362 . S
C319 C320 1.376 . S
C320 H284 0.931 . S
C320 C319 1.376 . S
C320 C321 1.396 . S
C321 C303 1.472 . S
C321 C320 1.396 . S
C321 C322 1.348 . S
C322 H285 0.929 . S
C322 C321 1.348 . S
C322 C323 1.443 . S
C323 H287 0.932 . S
C323 C318 1.388 . S
C323 C322 1.443 . S
H324 C351 0.929 . S
N325 C350 1.433 . S
N325 C356 1.435 . S
N325 C362 1.423 . S
H326 C352 0.930 . S
H327 C355 0.931 . S
H328 C354 0.929 . S
H329 C357 0.930 . S
H330 C358 0.932 . S
H331 C361 0.929 . S
H332 C360 0.931 . S
H333 C363 0.929 . S
H334 C367 0.932 . S
H335 C364 0.931 . S
H336 C366 0.929 . S
H337 C369 0.929 . S
H338 C370 0.930 . S
H339 C372 0.929 . S
H340 C373 0.931 . S
H341 C375 0.930 . S
H342 C376 0.932 . S
H343 C378 0.931 . S
H344 C379 0.929 . S
H345 C381 0.929 . S
H346 C382 0.931 . S
H347 C384 0.929 . S
N348 C368 1.433 . S
N348 C374 1.435 . S
N348 C380 1.423 . S
H349 C385 0.932 . S
C350 N325 1.433 . S
C350 C351 1.363 . S
C350 C355 1.370 . S
C351 H324 0.929 . S
C351 C350 1.363 . S
C351 C352 1.385 . S
C352 H326 0.930 . S
C352 C351 1.385 . S
C352 C353 1.357 . S
C353 C352 1.357 . S
C353 C354 1.406 . S
C354 H328 0.929 . S
C354 C353 1.406 . S
C354 C355 1.391 . S
C355 H327 0.931 . S
C355 C350 1.370 . S
C355 C354 1.391 . S
C356 N325 1.435 . S
C356 C357 1.358 . S
C356 C361 1.371 . S
C357 H329 0.930 . S
C357 C356 1.358 . S
C357 C358 1.405 . S
C358 H330 0.932 . S
C358 C357 1.405 . S
C358 C359 1.383 . S
C359 C358 1.383 . S
C359 C360 1.393 . S
C360 H332 0.931 . S
C360 C359 1.393 . S
C360 C361 1.382 . S
C361 H331 0.929 . S
C361 C356 1.371 . S
C361 C360 1.382 . S
C362 N325 1.423 . S
C362 C363 1.362 . S
C362 C367 1.388 . S
C363 H333 0.929 . S
C363 C362 1.362 . S
C363 C364 1.376 . S
C364 H335 0.931 . S
C364 C363 1.376 . S
C364 C365 1.396 . S
C365 C364 1.396 . S
C365 C366 1.348 . S
C365 C383 1.472 . S
C366 H336 0.929 . S
C366 C365 1.348 . S
C366 C367 1.443 . S
C367 H334 0.932 . S
C367 C362 1.388 . S
C367 C366 1.443 . S
C368 N348 1.433 . S
C368 C369 1.363 . S
C368 C373 1.370 . S
C369 H337 0.929 . S
C369 C368 1.363 . S
C369 C370 1.385 . S
C370 H338 0.930 . S
C370 C369 1.385 . S
C370 C371 1.357 . S
C371 C370 1.357 . S
C371 C372 1.406 . S
C372 H339 0.929 . S
C372 C371 1.406 . S
C372 C373 1.391 . S
C373 H340 0.931 . S
C373 C368 1.370 . S
C373 C372 1.391 . S
C374 N348 1.435 . S
C374 C375 1.358 . S
C374 C379 1.371 . S
C375 H341 0.930 . S
C375 C374 1.358 . S
C375 C376 1.405 . S
C376 H342 0.932 . S
C376 C375 1.405 . S
C376 C377 1.383 . S
C377 C376 1.383 . S
C377 C378 1.393 . S
C378 H343 0.931 . S
C378 C377 1.393 . S
C378 C379 1.382 . S
C379 H344 0.929 . S
C379 C374 1.371 . S
C379 C378 1.382 . S
C380 N348 1.423 . S
C380 C381 1.362 . S
C380 C385 1.388 . S
C381 H345 0.929 . S
C381 C380 1.362 . S
C381 C382 1.376 . S
C382 H346 0.931 . S
C382 C381 1.376 . S
C382 C383 1.396 . S
C383 C365 1.472 . S
C383 C382 1.396 . S
C383 C384 1.348 . S
C384 H347 0.929 . S
C384 C383 1.348 . S
C384 C385 1.443 . S
C385 H349 0.932 . S
C385 C380 1.388 . S
C385 C384 1.443 . S
H386 C413 0.929 . S
N387 C412 1.433 . S
N387 C418 1.435 . S
N387 C424 1.423 . S
H388 C414 0.930 . S
H389 C417 0.931 . S
H390 C416 0.929 . S
H391 C419 0.930 . S
H392 C420 0.932 . S
H393 C423 0.929 . S
H394 C422 0.931 . S
H395 C425 0.929 . S
H396 C429 0.932 . S
H397 C426 0.931 . S
H398 C428 0.929 . S
H399 C431 0.929 . S
H400 C432 0.930 . S
H401 C434 0.929 . S
H402 C435 0.931 . S
H403 C437 0.930 . S
H404 C438 0.932 . S
H405 C440 0.931 . S
H406 C441 0.929 . S
H407 C443 0.929 . S
H408 C444 0.931 . S
H409 C446 0.929 . S
N410 C430 1.433 . S
N410 C436 1.435 . S
N410 C442 1.423 . S
H411 C447 0.932 . S
C412 N387 1.433 . S
C412 C413 1.363 . S
C412 C417 1.370 . S
C413 H386 0.929 . S
C413 C412 1.363 . S
C413 C414 1.385 . S
C414 H388 0.930 . S
C414 C413 1.385 . S
C414 C415 1.357 . S
C415 C414 1.357 . S
C415 C416 1.406 . S
C416 H390 0.929 . S
C416 C415 1.406 . S
C416 C417 1.391 . S
C417 H389 0.931 . S
C417 C412 1.370 . S
C417 C416 1.391 . S
C418 N387 1.435 . S
C418 C419 1.358 . S
C418 C423 1.371 . S
C419 H391 0.930 . S
C419 C418 1.358 . S
C419 C420 1.405 . S
C420 H392 0.932 . S
C420 C419 1.405 . S
C420 C421 1.383 . S
C421 C420 1.383 . S
C421 C422 1.393 . S
C422 H394 0.931 . S
C422 C421 1.393 . S
C422 C423 1.382 . S
C423 H393 0.929 . S
C423 C418 1.371 . S
C423 C422 1.382 . S
C424 N387 1.423 . S
C424 C425 1.362 . S
C424 C429 1.388 . S
C425 H395 0.929 . S
C425 C424 1.362 . S
C425 C426 1.376 . S
C426 H397 0.931 . S
C426 C425 1.376 . S
C426 C427 1.396 . S
C427 C426 1.396 . S
C427 C428 1.348 . S
C427 C445 1.472 . S
C428 H398 0.929 . S
C428 C427 1.348 . S
C428 C429 1.443 . S
C429 H396 0.932 . S
C429 C424 1.388 . S
C429 C428 1.443 . S
C430 N410 1.433 . S
C430 C431 1.363 . S
C430 C435 1.370 . S
C431 H399 0.929 . S
C431 C430 1.363 . S
C431 C432 1.385 . S
C432 H400 0.930 . S
C432 C431 1.385 . S
C432 C433 1.357 . S
C433 C432 1.357 . S
C433 C434 1.406 . S
C434 H401 0.929 . S
C434 C433 1.406 . S
C434 C435 1.391 . S
C435 H402 0.931 . S
C435 C430 1.370 . S
C435 C434 1.391 . S
C436 N410 1.435 . S
C436 C437 1.358 . S
C436 C441 1.371 . S
C437 H403 0.930 . S
C437 C436 1.358 . S
C437 C438 1.405 . S
C438 H404 0.932 . S
C438 C437 1.405 . S
C438 C439 1.383 . S
C439 C438 1.383 . S
C439 C440 1.393 . S
C440 H405 0.931 . S
C440 C439 1.393 . S
C440 C441 1.382 . S
C441 H406 0.929 . S
C441 C436 1.371 . S
C441 C440 1.382 . S
C442 N410 1.423 . S
C442 C443 1.362 . S
C442 C447 1.388 . S
C443 H407 0.929 . S
C443 C442 1.362 . S
C443 C444 1.376 . S
C444 H408 0.931 . S
C444 C443 1.376 . S
C444 C445 1.396 . S
C445 C427 1.472 . S
C445 C444 1.396 . S
C445 C446 1.348 . S
C446 H409 0.929 . S
C446 C445 1.348 . S
C446 C447 1.443 . S
C447 H411 0.932 . S
C447 C442 1.388 . S
C447 C446 1.443 . S
H448 C475 0.929 . S
N449 C474 1.433 . S
N449 C480 1.435 . S
N449 C486 1.423 . S
H450 C476 0.930 . S
H451 C479 0.931 . S
H452 C478 0.929 . S
H453 C481 0.930 . S
H454 C482 0.932 . S
H455 C485 0.929 . S
H456 C484 0.931 . S
H457 C487 0.929 . S
H458 C491 0.932 . S
H459 C488 0.931 . S
H460 C490 0.929 . S
H461 C493 0.929 . S
H462 C494 0.930 . S
H463 C496 0.929 . S
H464 C497 0.931 . S
H465 C499 0.930 . S
H466 C500 0.932 . S
H467 C502 0.931 . S
H468 C503 0.929 . S
H469 C505 0.929 . S
H470 C506 0.931 . S
H471 C508 0.929 . S
N472 C492 1.433 . S
N472 C498 1.435 . S
N472 C504 1.423 . S
H473 C509 0.932 . S
C474 N449 1.433 . S
C474 C475 1.363 . S
C474 C479 1.370 . S
C475 H448 0.929 . S
C475 C474 1.363 . S
C475 C476 1.385 . S
C476 H450 0.930 . S
C476 C475 1.385 . S
C476 C477 1.357 . S
C477 C476 1.357 . S
C477 C478 1.406 . S
C478 H452 0.929 . S
C478 C477 1.406 . S
C478 C479 1.391 . S
C479 H451 0.931 . S
C479 C474 1.370 . S
C479 C478 1.391 . S
C480 N449 1.435 . S
C480 C481 1.358 . S
C480 C485 1.371 . S
C481 H453 0.930 . S
C481 C480 1.358 . S
C481 C482 1.405 . S
C482 H454 0.932 . S
C482 C481 1.405 . S
C482 C483 1.383 . S
C483 C482 1.383 . S
C483 C484 1.393 . S
C484 H456 0.931 . S
C484 C483 1.393 . S
C484 C485 1.382 . S
C485 H455 0.929 . S
C485 C480 1.371 . S
C485 C484 1.382 . S
C486 N449 1.423 . S
C486 C487 1.362 . S
C486 C491 1.388 . S
C487 H457 0.929 . S
C487 C486 1.362 . S
C487 C488 1.376 . S
C488 H459 0.931 . S
C488 C487 1.376 . S
C488 C489 1.396 . S
C489 C488 1.396 . S
C489 C490 1.348 . S
C489 C507 1.472 . S
C490 H460 0.929 . S
C490 C489 1.348 . S
C490 C491 1.443 . S
C491 H458 0.932 . S
C491 C486 1.388 . S
C491 C490 1.443 . S
C492 N472 1.433 . S
C492 C493 1.363 . S
C492 C497 1.370 . S
C493 H461 0.929 . S
C493 C492 1.363 . S
C493 C494 1.385 . S
C494 H462 0.930 . S
C494 C493 1.385 . S
C494 C495 1.357 . S
C495 C494 1.357 . S
C495 C496 1.406 . S
C496 H463 0.929 . S
C496 C495 1.406 . S
C496 C497 1.391 . S
C497 H464 0.931 . S
C497 C492 1.370 . S
C497 C496 1.391 . S
C498 N472 1.435 . S
C498 C499 1.358 . S
C498 C503 1.371 . S
C499 H465 0.930 . S
C499 C498 1.358 . S
C499 C500 1.405 . S
C500 H466 0.932 . S
C500 C499 1.405 . S
C500 C501 1.383 . S
C501 C500 1.383 . S
C501 C502 1.393 . S
C502 H467 0.931 . S
C502 C501 1.393 . S
C502 C503 1.382 . S
C503 H468 0.929 . S
C503 C498 1.371 . S
C503 C502 1.382 . S
C504 N472 1.423 . S
C504 C505 1.362 . S
C504 C509 1.388 . S
C505 H469 0.929 . S
C505 C504 1.362 . S
C505 C506 1.376 . S
C506 H470 0.931 . S
C506 C505 1.376 . S
C506 C507 1.396 . S
C507 C489 1.472 . S
C507 C506 1.396 . S
C507 C508 1.348 . S
C508 H471 0.929 . S
C508 C507 1.348 . S
C508 C509 1.443 . S
C509 H473 0.932 . S
C509 C504 1.388 . S
C509 C508 1.443 . S
C510 C511 1.391 . S
C510 C512 1.394 . S
C510 H526 0.931 . S
C511 C510 1.391 . S
C511 C515 1.376 . S
C512 C510 1.394 . S
C512 C513 1.369 . S
C512 C516 1.531 . S
C513 C512 1.369 . S
C513 C514 1.410 . S
C513 C521 1.503 . S
C514 C513 1.410 . S
C514 C515 1.392 . S
C514 C517 1.511 . S
C515 C511 1.376 . S
C515 C514 1.392 . S
C515 H527 0.929 . S
C516 C512 1.531 . S
C516 H528 0.960 . S
C516 H529 0.962 . S
C516 H530 0.960 . S
C517 C514 1.511 . S
C517 H531 0.961 . S
C517 H532 0.961 . S
C517 H533 0.961 . S
C518 C519 1.370 . S
C518 C520 1.363 . S
C518 H534 0.931 . S
C519 C518 1.370 . S
C519 C523 1.408 . S
C520 C518 1.363 . S
C520 C521 1.370 . S
C520 C524 1.524 . S
C521 C513 1.503 . S
C521 C520 1.370 . S
C521 C522 1.403 . S
C522 C521 1.403 . S
C522 C523 1.404 . S
C522 C525 1.539 . S
C523 C519 1.408 . S
C523 C522 1.404 . S
C523 H535 0.930 . S
C524 C520 1.524 . S
C524 H536 0.956 . S
C524 H537 0.961 . S
C524 H538 0.961 . S
C525 C522 1.539 . S
C525 H539 0.958 . S
C525 H540 0.961 . S
C525 H541 0.960 . S
H526 C510 0.931 . S
H527 C515 0.929 . S
H528 C516 0.960 . S
H529 C516 0.962 . S
H530 C516 0.960 . S
H531 C517 0.961 . S
H532 C517 0.961 . S
H533 C517 0.961 . S
H534 C518 0.931 . S
H535 C523 0.930 . S
H536 C524 0.956 . S
H537 C524 0.961 . S
H538 C524 0.961 . S
H539 C525 0.958 . S
H540 C525 0.961 . S
H541 C525 0.960 . S
C542 C543 1.391 . S
C542 C544 1.394 . S
C542 H558 0.931 . S
C543 C542 1.391 . S
C543 C547 1.376 . S
C544 C542 1.394 . S
C544 C545 1.369 . S
C544 C548 1.531 . S
C545 C544 1.369 . S
C545 C546 1.410 . S
C545 C553 1.503 . S
C546 C545 1.410 . S
C546 C547 1.392 . S
C546 C549 1.511 . S
C547 C543 1.376 . S
C547 C546 1.392 . S
C547 H559 0.929 . S
C548 C544 1.531 . S
C548 H560 0.960 . S
C548 H561 0.962 . S
C548 H562 0.960 . S
C549 C546 1.511 . S
C549 H563 0.961 . S
C549 H564 0.961 . S
C549 H565 0.961 . S
C550 C551 1.370 . S
C550 C552 1.363 . S
C550 H566 0.931 . S
C551 C550 1.370 . S
C551 C555 1.408 . S
C552 C550 1.363 . S
C552 C553 1.370 . S
C552 C556 1.524 . S
C553 C545 1.503 . S
C553 C552 1.370 . S
C553 C554 1.403 . S
C554 C553 1.403 . S
C554 C555 1.404 . S
C554 C557 1.539 . S
C555 C551 1.408 . S
C555 C554 1.404 . S
C555 H567 0.930 . S
C556 C552 1.524 . S
C556 H568 0.956 . S
C556 H569 0.961 . S
C556 H570 0.961 . S
C557 C554 1.539 . S
C557 H571 0.958 . S
C557 H572 0.961 . S
C557 H573 0.960 . S
H558 C542 0.931 . S
H559 C547 0.929 . S
H560 C548 0.960 . S
H561 C548 0.962 . S
H562 C548 0.960 . S
H563 C549 0.961 . S
H564 C549 0.961 . S
H565 C549 0.961 . S
H566 C550 0.931 . S
H567 C555 0.930 . S
H568 C556 0.956 . S
H569 C556 0.961 . S
H570 C556 0.961 . S
H571 C557 0.958 . S
H572 C557 0.961 . S
H573 C557 0.960 . S
C574 C575 1.391 . S
C574 C576 1.394 . S
C574 H590 0.931 . S
C575 C574 1.391 . S
C575 C579 1.376 . S
C576 C574 1.394 . S
C576 C577 1.369 . S
C576 C580 1.531 . S
C577 C576 1.369 . S
C577 C578 1.410 . S
C577 C585 1.503 . S
C578 C577 1.410 . S
C578 C579 1.392 . S
C578 C581 1.511 . S
C579 C575 1.376 . S
C579 C578 1.392 . S
C579 H591 0.929 . S
C580 C576 1.531 . S
C580 H592 0.960 . S
C580 H593 0.962 . S
C580 H594 0.960 . S
C581 C578 1.511 . S
C581 H595 0.961 . S
C581 H596 0.961 . S
C581 H597 0.961 . S
C582 C583 1.370 . S
C582 C584 1.363 . S
C582 H598 0.931 . S
C583 C582 1.370 . S
C583 C587 1.408 . S
C584 C582 1.363 . S
C584 C585 1.370 . S
C584 C588 1.524 . S
C585 C577 1.503 . S
C585 C584 1.370 . S
C585 C586 1.403 . S
C586 C585 1.403 . S
C586 C587 1.404 . S
C586 C589 1.539 . S
C587 C583 1.408 . S
C587 C586 1.404 . S
C587 H599 0.930 . S
C588 C584 1.524 . S
C588 H600 0.956 . S
C588 H601 0.961 . S
C588 H602 0.961 . S
C589 C586 1.539 . S
C589 H603 0.958 . S
C589 H604 0.961 . S
C589 H605 0.960 . S
H590 C574 0.931 . S
H591 C579 0.929 . S
H592 C580 0.960 . S
H593 C580 0.962 . S
H594 C580 0.960 . S
H595 C581 0.961 . S
H596 C581 0.961 . S
H597 C581 0.961 . S
H598 C582 0.931 . S
H599 C587 0.930 . S
H600 C588 0.956 . S
H601 C588 0.961 . S
H602 C588 0.961 . S
H603 C589 0.958 . S
H604 C589 0.961 . S
H605 C589 0.960 . S
C606 C607 1.391 . S
C606 C608 1.394 . S
C606 H622 0.931 1_655 S
C607 C606 1.391 . S
C607 C611 1.376 . S
C608 C606 1.394 . S
C608 C609 1.369 . S
C608 C612 1.531 . S
C609 C608 1.369 . S
C609 C610 1.410 . S
C609 C617 1.503 . S
C610 C609 1.410 . S
C610 C611 1.392 . S
C610 C613 1.511 . S
C611 C607 1.376 . S
C611 C610 1.392 . S
C611 H623 0.929 . S
C612 C608 1.531 . S
C612 H624 0.960 . S
C612 H625 0.962 . S
C612 H626 1.002 . S
C613 C610 1.511 . S
C613 H627 0.961 . S
C613 H628 0.961 . S
C613 H629 0.961 . S
C614 C615 1.370 . S
C614 C616 1.363 . S
C614 H630 0.931 . S
C615 C614 1.370 . S
C615 C619 1.408 . S
C616 C614 1.363 . S
C616 C617 1.370 . S
C616 C620 1.524 . S
C617 C609 1.503 . S
C617 C616 1.370 . S
C617 C618 1.403 . S
C618 C617 1.403 . S
C618 C619 1.404 . S
C618 C621 1.539 . S
C619 C615 1.408 . S
C619 C618 1.404 . S
C619 H631 0.930 . S
C620 C616 1.524 . S
C620 H632 0.956 . S
C620 H633 0.961 . S
C620 H634 0.961 . S
C621 C618 1.539 . S
C621 H635 0.958 . S
C621 H636 0.961 . S
C621 H637 0.960 . S
H622 C606 0.931 1_455 S
H623 C611 0.929 . S
H624 C612 0.960 . S
H625 C612 0.962 . S
H626 C612 1.002 . S
H627 C613 0.961 . S
H628 C613 0.961 . S
H629 C613 0.961 . S
H630 C614 0.931 . S
H631 C619 0.930 . S
H632 C620 0.956 . S
H633 C620 0.961 . S
H634 C620 0.961 . S
H635 C621 0.958 . S
H636 C621 0.961 . S
H637 C621 0.960 . S
C638 C639 1.391 . S
C638 C640 1.394 . S
C638 H654 0.931 . S
C639 C638 1.391 . S
C639 C643 1.376 . S
C640 C638 1.394 . S
C640 C641 1.369 . S
C640 C644 1.531 . S
C641 C640 1.369 . S
C641 C642 1.410 . S
C641 C649 1.503 . S
C642 C641 1.410 . S
C642 C643 1.392 . S
C642 C645 1.511 . S
C643 C639 1.376 . S
C643 C642 1.392 . S
C643 H655 0.929 . S
C644 C640 1.531 . S
C644 H656 0.960 . S
C644 H657 0.962 . S
C644 H658 0.960 . S
C645 C642 1.511 . S
C645 H659 0.961 . S
C645 H660 0.961 . S
C645 H661 0.961 . S
C646 C647 1.370 . S
C646 C648 1.363 . S
C646 H662 0.931 . S
C647 C646 1.370 . S
C647 C651 1.408 . S
C648 C646 1.363 . S
C648 C649 1.370 . S
C648 C652 1.524 . S
C649 C641 1.503 . S
C649 C648 1.370 . S
C649 C650 1.403 . S
C650 C649 1.403 . S
C650 C651 1.404 . S
C650 C653 1.539 . S
C651 C647 1.408 . S
C651 C650 1.404 . S
C651 H663 0.930 . S
C652 C648 1.524 . S
C652 H664 0.956 . S
C652 H665 0.961 . S
C652 H666 0.961 . S
C653 C650 1.539 . S
C653 H667 0.958 . S
C653 H668 0.961 . S
C653 H669 0.960 . S
H654 C638 0.931 . S
H655 C643 0.929 . S
H656 C644 0.960 . S
H657 C644 0.962 . S
H658 C644 0.960 . S
H659 C645 0.961 . S
H660 C645 0.961 . S
H661 C645 0.961 . S
H662 C646 0.931 . S
H663 C651 0.930 . S
H664 C652 0.956 . S
H665 C652 0.961 . S
H666 C652 0.961 . S
H667 C653 0.958 . S
H668 C653 0.961 . S
H669 C653 0.960 . S
C670 C671 1.391 . S
C670 C672 1.394 . S
C670 H686 0.931 . S
C671 C670 1.391 . S
C671 C675 1.376 . S
C672 C670 1.394 . S
C672 C673 1.369 . S
C672 C676 1.531 . S
C673 C672 1.369 . S
C673 C674 1.410 . S
C673 C681 1.503 . S
C674 C673 1.410 . S
C674 C675 1.392 . S
C674 C677 1.511 . S
C675 C671 1.376 . S
C675 C674 1.392 . S
C675 H687 0.929 . S
C676 C672 1.531 . S
C676 H688 0.960 . S
C676 H689 0.962 . S
C676 H690 0.960 . S
C677 C674 1.511 . S
C677 H691 0.961 . S
C677 H692 0.961 . S
C677 H693 0.961 . S
C678 C679 1.370 . S
C678 C680 1.363 . S
C678 H694 0.931 . S
C679 C678 1.370 . S
C679 C683 1.408 . S
C680 C678 1.363 . S
C680 C681 1.370 . S
C680 C684 1.524 . S
C681 C673 1.503 . S
C681 C680 1.370 . S
C681 C682 1.403 . S
C682 C681 1.403 . S
C682 C683 1.404 . S
C682 C685 1.539 . S
C683 C679 1.408 . S
C683 C682 1.404 . S
C683 H695 0.930 . S
C684 C680 1.524 . S
C684 H696 0.956 . S
C684 H697 0.961 . S
C684 H698 0.961 . S
C685 C682 1.539 . S
C685 H699 0.958 . S
C685 H700 0.961 . S
C685 H701 0.960 . S
H686 C670 0.931 . S
H687 C675 0.929 . S
H688 C676 0.960 . S
H689 C676 0.962 . S
H690 C676 0.960 . S
H691 C677 0.961 . S
H692 C677 0.961 . S
H693 C677 0.961 . S
H694 C678 0.931 . S
H695 C683 0.930 . S
H696 C684 0.956 . S
H697 C684 0.961 . S
H698 C684 0.961 . S
H699 C685 0.958 . S
H700 C685 0.961 . S
H701 C685 0.960 . S
C702 C703 1.391 . S
C702 C704 1.394 . S
C702 H718 0.931 . S
C703 C702 1.391 . S
C703 C707 1.376 . S
C704 C702 1.394 . S
C704 C705 1.369 . S
C704 C708 1.531 . S
C705 C704 1.369 . S
C705 C706 1.410 . S
C705 C713 1.503 . S
C706 C705 1.410 . S
C706 C707 1.392 . S
C706 C709 1.511 . S
C707 C703 1.376 . S
C707 C706 1.392 . S
C707 H719 0.929 . S
C708 C704 1.531 . S
C708 H720 0.960 . S
C708 H721 0.962 . S
C708 H722 0.960 . S
C709 C706 1.511 . S
C709 H723 0.961 . S
C709 H724 0.961 . S
C709 H725 0.961 . S
C710 C711 1.370 . S
C710 C712 1.363 . S
C710 H726 0.931 . S
C711 C710 1.370 . S
C711 C715 1.408 . S
C712 C710 1.363 . S
C712 C713 1.370 . S
C712 C716 1.524 . S
C713 C705 1.503 . S
C713 C712 1.370 . S
C713 C714 1.403 . S
C714 C713 1.403 . S
C714 C715 1.404 . S
C714 C717 1.539 . S
C715 C711 1.408 . S
C715 C714 1.404 . S
C715 H727 0.930 . S
C716 C712 1.524 . S
C716 H728 0.956 . S
C716 H729 0.961 . S
C716 H730 0.961 . S
C717 C714 1.539 . S
C717 H731 0.958 . S
C717 H732 0.961 . S
C717 H733 0.960 . S
H718 C702 0.931 . S
H719 C707 0.929 . S
H720 C708 0.960 . S
H721 C708 0.962 . S
H722 C708 0.960 . S
H723 C709 0.961 . S
H724 C709 0.961 . S
H725 C709 0.961 . S
H726 C710 0.931 . S
H727 C715 0.930 . S
H728 C716 0.956 . S
H729 C716 0.961 . S
H730 C716 0.961 . S
H731 C717 0.958 . S
H732 C717 0.961 . S
H733 C717 0.960 . S
C734 C735 1.391 . S
C734 C736 1.394 . S
C734 H750 0.931 . S
C735 C734 1.391 . S
C735 C739 1.376 . S
C736 C734 1.394 . S
C736 C737 1.369 . S
C736 C740 1.531 . S
C737 C736 1.369 . S
C737 C738 1.410 . S
C737 C745 1.503 . S
C738 C737 1.410 . S
C738 C739 1.392 . S
C738 C741 1.511 . S
C739 C735 1.376 . S
C739 C738 1.392 . S
C739 H751 0.929 . S
C740 C736 1.531 . S
C740 H752 0.960 . S
C740 H753 0.962 . S
C740 H754 0.960 . S
C741 C738 1.511 . S
C741 H755 0.961 . S
C741 H756 0.961 . S
C741 H757 0.961 . S
C742 C743 1.370 . S
C742 C744 1.363 . S
C742 H758 0.931 . S
C743 C742 1.370 . S
C743 C747 1.408 . S
C744 C742 1.363 . S
C744 C745 1.370 . S
C744 C748 1.524 . S
C745 C737 1.503 . S
C745 C744 1.370 . S
C745 C746 1.403 . S
C746 C745 1.403 . S
C746 C747 1.404 . S
C746 C749 1.539 . S
C747 C743 1.408 . S
C747 C746 1.404 . S
C747 H759 0.930 . S
C748 C744 1.524 . S
C748 H760 0.956 . S
C748 H761 0.961 . S
C748 H762 0.961 . S
C749 C746 1.539 . S
C749 H763 0.958 . S
C749 H764 0.961 . S
C749 H765 0.960 . S
H750 C734 0.931 . S
H751 C739 0.929 . S
H752 C740 0.960 . S
H753 C740 0.962 . S
H754 C740 0.960 . S
H755 C741 0.961 . S
H756 C741 0.961 . S
H757 C741 0.961 . S
H758 C742 0.931 . S
H759 C747 0.930 . S
H760 C748 0.956 . S
H761 C748 0.961 . S
H762 C748 0.961 . S
H763 C749 0.958 . S
H764 C749 0.961 . S
H765 C749 0.960 . S
C766 C767 1.391 . S
C766 C768 1.394 . S
C766 H782 0.931 . S
C767 C766 1.391 . S
C767 C771 1.376 . S
C768 C766 1.394 . S
C768 C769 1.369 . S
C768 C772 1.531 . S
C769 C768 1.369 . S
C769 C770 1.410 . S
C769 C777 1.503 . S
C770 C769 1.410 . S
C770 C771 1.392 . S
C770 C773 1.511 . S
C771 C767 1.376 . S
C771 C770 1.392 . S
C771 H783 0.929 . S
C772 C768 1.531 . S
C772 H784 0.960 . S
C772 H785 0.962 . S
C772 H786 0.960 . S
C773 C770 1.511 . S
C773 H787 0.961 . S
C773 H788 0.961 . S
C773 H789 0.961 . S
C774 C775 1.370 . S
C774 C776 1.363 . S
C774 H790 0.931 . S
C775 C774 1.370 . S
C775 C779 1.408 . S
C776 C774 1.363 . S
C776 C777 1.370 . S
C776 C780 1.524 . S
C777 C769 1.503 . S
C777 C776 1.370 . S
C777 C778 1.403 . S
C778 C777 1.403 . S
C778 C779 1.404 . S
C778 C781 1.539 . S
C779 C775 1.408 . S
C779 C778 1.404 . S
C779 H791 0.930 . S
C780 C776 1.524 . S
C780 H792 0.956 . S
C780 H793 0.961 . S
C780 H794 0.961 . S
C781 C778 1.539 . S
C781 H795 0.958 . S
C781 H796 0.961 . S
C781 H797 0.960 . S
H782 C766 0.931 . S
H783 C771 0.929 . S
H784 C772 0.960 . S
H785 C772 0.962 . S
H786 C772 0.960 . S
H787 C773 0.961 . S
H788 C773 0.961 . S
H789 C773 0.961 . S
H790 C774 0.931 . S
H791 C779 0.930 . S
H792 C780 0.956 . S
H793 C780 0.961 . S
H794 C780 0.961 . S
H795 C781 0.958 . S
H796 C781 0.961 . S
H797 C781 0.960 . S
C798 C799 1.391 . S
C798 C800 1.394 . S
C798 H814 0.931 . S
C799 C798 1.391 . S
C799 C803 1.376 . S
C800 C798 1.394 . S
C800 C801 1.369 . S
C800 C804 1.531 . S
C801 C800 1.369 . S
C801 C802 1.410 . S
C801 C809 1.503 . S
C802 C801 1.410 . S
C802 C803 1.392 . S
C802 C805 1.511 . S
C803 C799 1.376 . S
C803 C802 1.392 . S
C803 H815 0.929 . S
C804 C800 1.531 . S
C804 H816 0.960 . S
C804 H817 0.962 . S
C804 H818 0.960 . S
C805 C802 1.511 . S
C805 H819 0.961 . S
C805 H820 0.961 . S
C805 H821 0.961 . S
C806 C807 1.370 . S
C806 C808 1.363 . S
C806 H822 0.931 . S
C807 C806 1.370 . S
C807 C811 1.408 . S
C808 C806 1.363 . S
C808 C809 1.370 . S
C808 C812 1.524 . S
C809 C801 1.503 . S
C809 C808 1.370 . S
C809 C810 1.403 . S
C810 C809 1.403 . S
C810 C811 1.404 . S
C810 C813 1.539 . S
C811 C807 1.408 . S
C811 C810 1.404 . S
C811 H823 0.930 . S
C812 C808 1.524 . S
C812 H824 0.956 . S
C812 H825 0.961 . S
C812 H826 0.961 . S
C813 C810 1.539 . S
C813 H827 0.958 . S
C813 H828 0.961 . S
C813 H829 0.960 . S
H814 C798 0.931 . S
H815 C803 0.929 . S
H816 C804 0.960 . S
H817 C804 0.962 . S
H818 C804 0.960 . S
H819 C805 0.961 . S
H820 C805 0.961 . S
H821 C805 0.961 . S
H822 C806 0.931 . S
H823 C811 0.930 . S
H824 C812 0.956 . S
H825 C812 0.961 . S
H826 C812 0.961 . S
H827 C813 0.958 . S
H828 C813 0.961 . S
H829 C813 0.960 . S
C830 C831 1.391 . S
C830 C832 1.394 . S
C830 H846 0.931 . S
C831 C830 1.391 . S
C831 C835 1.376 . S
C832 C830 1.394 . S
C832 C833 1.369 . S
C832 C836 1.531 . S
C833 C832 1.369 . S
C833 C834 1.410 . S
C833 C841 1.503 . S
C834 C833 1.410 . S
C834 C835 1.392 . S
C834 C837 1.511 . S
C835 C831 1.376 . S
C835 C834 1.392 . S
C835 H847 0.929 . S
C836 C832 1.531 . S
C836 H848 0.960 . S
C836 H849 0.962 . S
C836 H850 0.960 . S
C837 C834 1.511 . S
C837 H851 0.961 . S
C837 H852 0.961 . S
C837 H853 0.961 . S
C838 C839 1.370 . S
C838 C840 1.363 . S
C838 H854 0.931 . S
C839 C838 1.370 . S
C839 C843 1.408 . S
C840 C838 1.363 . S
C840 C841 1.370 . S
C840 C844 1.524 . S
C841 C833 1.503 . S
C841 C840 1.370 . S
C841 C842 1.403 . S
C842 C841 1.403 . S
C842 C843 1.404 . S
C842 C845 1.539 . S
C843 C839 1.408 . S
C843 C842 1.404 . S
C843 H855 0.930 . S
C844 C840 1.524 . S
C844 H856 0.956 . S
C844 H857 0.961 . S
C844 H858 0.961 . S
C845 C842 1.539 . S
C845 H859 0.958 . S
C845 H860 0.961 . S
C845 H861 0.960 . S
H846 C830 0.931 . S
H847 C835 0.929 . S
H848 C836 0.960 . S
H849 C836 0.962 . S
H850 C836 0.960 . S
H851 C837 0.961 . S
H852 C837 0.961 . S
H853 C837 0.961 . S
H854 C838 0.931 . S
H855 C843 0.930 . S
H856 C844 0.956 . S
H857 C844 0.961 . S
H858 C844 0.961 . S
H859 C845 0.958 . S
H860 C845 0.961 . S
H861 C845 0.960 . S
C862 C863 1.391 . S
C862 C864 1.394 . S
C862 H878 0.931 1_556 S
C863 C862 1.391 . S
C863 C867 1.376 . S
C864 C862 1.394 . S
C864 C865 1.369 . S
C864 C868 1.531 . S
C865 C864 1.369 . S
C865 C866 1.410 . S
C865 C873 1.503 . S
C866 C865 1.410 . S
C866 C867 1.392 . S
C866 C869 1.511 . S
C867 C863 1.376 . S
C867 C866 1.392 . S
C867 H879 0.929 . S
C868 C864 1.531 . S
C868 H880 0.960 . S
C868 H881 0.962 . S
C868 H882 0.960 . S
C869 C866 1.511 . S
C869 H883 0.961 . S
C869 H884 0.961 . S
C869 H885 0.961 . S
C870 C871 1.370 . S
C870 C872 1.363 . S
C870 H886 0.931 . S
C871 C870 1.370 . S
C871 C875 1.408 . S
C872 C870 1.363 . S
C872 C873 1.370 . S
C872 C876 1.524 . S
C873 C865 1.503 . S
C873 C872 1.370 . S
C873 C874 1.403 . S
C874 C873 1.403 . S
C874 C875 1.404 . S
C874 C877 1.539 . S
C875 C871 1.408 . S
C875 C874 1.404 . S
C875 H887 0.930 . S
C876 C872 1.524 . S
C876 H888 0.956 . S
C876 H889 0.961 . S
C876 H890 0.961 . S
C877 C874 1.539 . S
C877 H891 0.958 . S
C877 H892 0.961 . S
C877 H893 0.960 . S
H878 C862 0.931 1_554 S
H879 C867 0.929 . S
H880 C868 0.960 . S
H881 C868 0.962 . S
H882 C868 0.960 . S
H883 C869 0.961 . S
H884 C869 0.961 . S
H885 C869 0.961 . S
H886 C870 0.931 . S
H887 C875 0.930 . S
H888 C876 0.956 . S
H889 C876 0.961 . S
H890 C876 0.961 . S
H891 C877 0.958 . S
H892 C877 0.961 . S
H893 C877 0.960 . S
C894 C895 1.391 . S
C894 C896 1.394 . S
C894 H910 0.931 1_556 S
C895 C894 1.391 . S
C895 C899 1.376 . S
C896 C894 1.394 . S
C896 C897 1.369 . S
C896 C900 1.531 . S
C897 C896 1.369 . S
C897 C898 1.410 . S
C897 C905 1.503 . S
C898 C897 1.410 . S
C898 C899 1.392 . S
C898 C901 1.511 . S
C899 C895 1.376 . S
C899 C898 1.392 . S
C899 H911 0.929 . S
C900 C896 1.531 . S
C900 H912 0.960 . S
C900 H913 0.962 . S
C900 H914 0.960 1_556 S
C901 C898 1.511 . S
C901 H915 0.961 . S
C901 H916 0.961 . S
C901 H917 0.961 . S
C902 C903 1.370 . S
C902 C904 1.363 . S
C902 H918 0.931 . S
C903 C902 1.370 . S
C903 C907 1.408 . S
C904 C902 1.363 . S
C904 C905 1.370 . S
C904 C908 1.524 . S
C905 C897 1.503 . S
C905 C904 1.370 . S
C905 C906 1.403 . S
C906 C905 1.403 . S
C906 C907 1.404 . S
C906 C909 1.539 . S
C907 C903 1.408 . S
C907 C906 1.404 . S
C907 H919 0.930 . S
C908 C904 1.524 . S
C908 H920 0.956 . S
C908 H921 0.961 . S
C908 H922 0.961 . S
C909 C906 1.539 . S
C909 H923 0.956 1_556 S
C909 H924 0.961 . S
C909 H925 0.960 . S
H910 C894 0.931 1_554 S
H911 C899 0.929 . S
H912 C900 0.960 . S
H913 C900 0.962 . S
H914 C900 0.960 1_554 S
H915 C901 0.961 . S
H916 C901 0.961 . S
H917 C901 0.961 . S
H918 C902 0.931 . S
H919 C907 0.930 . S
H920 C908 0.956 . S
H921 C908 0.961 . S
H922 C908 0.961 . S
H923 C909 0.956 1_554 S
H924 C909 0.961 . S
H925 C909 0.960 . S
C926 C927 1.391 . S
C926 C928 1.394 . S
C926 H942 0.931 . S
C927 C926 1.391 . S
C927 C931 1.376 . S
C928 C926 1.394 . S
C928 C929 1.369 . S
C928 C932 1.531 . S
C929 C928 1.369 . S
C929 C930 1.410 . S
C929 C937 1.503 . S
C930 C929 1.410 . S
C930 C931 1.392 . S
C930 C933 1.511 . S
C931 C927 1.376 . S
C931 C930 1.392 . S
C931 H943 0.929 . S
C932 C928 1.531 . S
C932 H944 0.960 . S
C932 H945 0.962 . S
C932 H946 0.960 . S
C933 C930 1.511 . S
C933 H947 0.961 . S
C933 H948 0.961 . S
C933 H949 0.961 . S
C934 C935 1.370 . S
C934 C936 1.363 . S
C934 H950 0.931 . S
C935 C934 1.370 . S
C935 C939 1.408 . S
C936 C934 1.363 . S
C936 C937 1.370 . S
C936 C940 1.524 . S
C937 C929 1.503 . S
C937 C936 1.370 . S
C937 C938 1.403 . S
C938 C937 1.403 . S
C938 C939 1.404 . S
C938 C941 1.539 . S
C939 C935 1.408 . S
C939 C938 1.404 . S
C939 H951 0.930 . S
C940 C936 1.524 . S
C940 H952 0.956 . S
C940 H953 0.961 . S
C940 H954 0.961 . S
C941 C938 1.539 . S
C941 H955 0.958 . S
C941 H956 0.961 . S
C941 H957 0.960 . S
H942 C926 0.931 . S
H943 C931 0.929 . S
H944 C932 0.960 . S
H945 C932 0.962 . S
H946 C932 0.960 . S
H947 C933 0.961 . S
H948 C933 0.961 . S
H949 C933 0.961 . S
H950 C934 0.931 . S
H951 C939 0.930 . S
H952 C940 0.956 . S
H953 C940 0.961 . S
H954 C940 0.961 . S
H955 C941 0.958 . S
H956 C941 0.961 . S
H957 C941 0.960 . S
C958 C959 1.391 . S
C958 C960 1.394 . S
C958 H974 0.931 . S
C959 C958 1.391 . S
C959 C963 1.376 . S
C960 C958 1.394 . S
C960 C961 1.369 . S
C960 C964 1.531 . S
C961 C960 1.369 . S
C961 C962 1.410 . S
C961 C969 1.503 . S
C962 C961 1.410 . S
C962 C963 1.392 . S
C962 C965 1.511 . S
C963 C959 1.376 . S
C963 C962 1.392 . S
C963 H975 0.929 . S
C964 C960 1.531 . S
C964 H976 0.960 . S
C964 H977 0.962 . S
C964 H978 0.960 . S
C965 C962 1.511 . S
C965 H979 0.961 . S
C965 H980 0.961 . S
C965 H981 0.961 . S
C966 C967 1.370 . S
C966 C968 1.363 . S
C966 H982 0.931 . S
C967 C966 1.370 . S
C967 C971 1.408 . S
C968 C966 1.363 . S
C968 C969 1.370 . S
C968 C972 1.524 . S
C969 C961 1.503 . S
C969 C968 1.370 . S
C969 C970 1.403 . S
C970 C969 1.403 . S
C970 C971 1.404 . S
C970 C973 1.539 . S
C971 C967 1.408 . S
C971 C970 1.404 . S
C971 H983 0.930 . S
C972 C968 1.524 . S
C972 H984 0.956 . S
C972 H985 0.961 . S
C972 H986 0.961 . S
C973 C970 1.539 . S
C973 H987 0.958 . S
C973 H988 0.961 . S
C973 H989 0.960 . S
H974 C958 0.931 . S
H975 C963 0.929 . S
H976 C964 0.960 . S
H977 C964 0.962 . S
H978 C964 0.960 . S
H979 C965 0.961 . S
H980 C965 0.961 . S
H981 C965 0.961 . S
H982 C966 0.931 . S
H983 C971 0.930 . S
H984 C972 0.956 . S
H985 C972 0.961 . S
H986 C972 0.961 . S
H987 C973 0.958 . S
H988 C973 0.961 . S
H989 C973 0.960 . S
C990 C991 1.391 . S
C990 C992 1.394 . S
C990 H1006 0.931 . S
C991 C990 1.391 . S
C991 C995 1.376 . S
C992 C990 1.394 . S
C992 C993 1.369 . S
C992 C996 1.531 . S
C993 C992 1.369 . S
C993 C994 1.410 . S
C993 C1001 1.503 . S
C994 C993 1.410 . S
C994 C995 1.392 . S
C994 C997 1.511 . S
C995 C991 1.376 . S
C995 C994 1.392 . S
C995 H1007 0.929 . S
C996 C992 1.531 . S
C996 H1008 0.960 . S
C996 H1009 0.962 . S
C996 H1010 0.960 . S
C997 C994 1.511 . S
C997 H1011 0.961 . S
C997 H1012 0.961 . S
C997 H1013 0.961 . S
C998 C999 1.370 . S
C998 C1000 1.363 . S
C998 H1014 0.931 . S
C999 C998 1.370 . S
C999 C1003 1.408 . S
C1000 C998 1.363 . S
C1000 C1001 1.370 . S
C1000 C1004 1.524 . S
C1001 C993 1.503 . S
C1001 C1000 1.370 . S
C1001 C1002 1.403 . S
C1002 C1001 1.403 . S
C1002 C1003 1.404 . S
C1002 C1005 1.539 . S
C1003 C999 1.408 . S
C1003 C1002 1.404 . S
C1003 H1015 0.930 . S
C1004 C1000 1.524 . S
C1004 H1016 0.956 . S
C1004 H1017 0.961 . S
C1004 H1018 0.961 . S
C1005 C1002 1.539 . S
C1005 H1019 0.958 . S
C1005 H1020 0.961 . S
C1005 H1021 0.960 . S
H1006 C990 0.931 . S
H1007 C995 0.929 . S
H1008 C996 0.960 . S
H1009 C996 0.962 . S
H1010 C996 0.960 . S
H1011 C997 0.961 . S
H1012 C997 0.961 . S
H1013 C997 0.961 . S
H1014 C998 0.931 . S
H1015 C1003 0.930 . S
H1016 C1004 0.956 . S
H1017 C1004 0.961 . S
H1018 C1004 0.961 . S
H1019 C1005 0.958 . S
H1020 C1005 0.961 . S
H1021 C1005 0.960 . S
C1022 C1023 1.391 . S
C1022 C1024 1.394 . S
C1022 H1038 0.931 . S
C1023 C1022 1.391 . S
C1023 C1027 1.376 . S
C1024 C1022 1.394 . S
C1024 C1025 1.369 . S
C1024 C1028 1.531 . S
C1025 C1024 1.369 . S
C1025 C1026 1.410 . S
C1025 C1033 1.503 . S
C1026 C1025 1.410 . S
C1026 C1027 1.392 . S
C1026 C1029 1.511 . S
C1027 C1023 1.376 . S
C1027 C1026 1.392 . S
C1027 H1039 0.929 . S
C1028 C1024 1.531 . S
C1028 H1040 0.960 . S
C1028 H1041 0.962 . S
C1028 H1042 0.960 . S
C1029 C1026 1.511 . S
C1029 H1043 0.961 . S
C1029 H1044 0.961 . S
C1029 H1045 0.961 . S
C1030 C1031 1.370 . S
C1030 C1032 1.363 . S
C1030 H1046 0.931 . S
C1031 C1030 1.370 . S
C1031 C1035 1.408 . S
C1032 C1030 1.363 . S
C1032 C1033 1.370 . S
C1032 C1036 1.524 . S
C1033 C1025 1.503 . S
C1033 C1032 1.370 . S
C1033 C1034 1.403 . S
C1034 C1033 1.403 . S
C1034 C1035 1.404 . S
C1034 C1037 1.539 . S
C1035 C1031 1.408 . S
C1035 C1034 1.404 . S
C1035 H1047 0.930 . S
C1036 C1032 1.524 . S
C1036 H1048 0.956 . S
C1036 H1049 0.961 . S
C1036 H1050 0.961 . S
C1037 C1034 1.539 . S
C1037 H1051 0.958 . S
C1037 H1052 0.961 . S
C1037 H1053 0.960 . S
H1038 C1022 0.931 . S
H1039 C1027 0.929 . S
H1040 C1028 0.960 . S
H1041 C1028 0.962 . S
H1042 C1028 0.960 . S
H1043 C1029 0.961 . S
H1044 C1029 0.961 . S
H1045 C1029 0.961 . S
H1046 C1030 0.931 . S
H1047 C1035 0.930 . S
H1048 C1036 0.956 . S
H1049 C1036 0.961 . S
H1050 C1036 0.961 . S
H1051 C1037 0.958 . S
H1052 C1037 0.961 . S
H1053 C1037 0.960 . S
C1054 C1055 1.391 . S
C1054 C1056 1.394 . S
C1054 H1070 0.931 . S
C1055 C1054 1.391 . S
C1055 C1059 1.376 . S
C1056 C1054 1.394 . S
C1056 C1057 1.369 . S
C1056 C1060 1.531 . S
C1057 C1056 1.369 . S
C1057 C1058 1.410 . S
C1057 C1065 1.503 . S
C1058 C1057 1.410 . S
C1058 C1059 1.392 . S
C1058 C1061 1.511 . S
C1059 C1055 1.376 . S
C1059 C1058 1.392 . S
C1059 H1071 0.929 . S
C1060 C1056 1.531 . S
C1060 H1072 0.960 . S
C1060 H1073 0.962 . S
C1060 H1074 0.960 . S
C1061 C1058 1.511 . S
C1061 H1075 0.961 . S
C1061 H1076 0.961 . S
C1061 H1077 0.961 . S
C1062 C1063 1.370 . S
C1062 C1064 1.363 . S
C1062 H1078 0.931 . S
C1063 C1062 1.370 . S
C1063 C1067 1.408 . S
C1064 C1062 1.363 . S
C1064 C1065 1.370 . S
C1064 C1068 1.524 . S
C1065 C1057 1.503 . S
C1065 C1064 1.370 . S
C1065 C1066 1.403 . S
C1066 C1065 1.403 . S
C1066 C1067 1.404 . S
C1066 C1069 1.539 . S
C1067 C1063 1.408 . S
C1067 C1066 1.404 . S
C1067 H1079 0.930 . S
C1068 C1064 1.524 . S
C1068 H1080 0.956 . S
C1068 H1081 0.961 . S
C1068 H1082 0.961 . S
C1069 C1066 1.539 . S
C1069 H1083 0.958 . S
C1069 H1084 0.961 . S
C1069 H1085 0.960 . S
H1070 C1054 0.931 . S
H1071 C1059 0.929 . S
H1072 C1060 0.960 . S
H1073 C1060 0.962 . S
H1074 C1060 0.960 . S
H1075 C1061 0.961 . S
H1076 C1061 0.961 . S
H1077 C1061 0.961 . S
H1078 C1062 0.931 . S
H1079 C1067 0.930 . S
H1080 C1068 0.956 . S
H1081 C1068 0.961 . S
H1082 C1068 0.961 . S
H1083 C1069 0.958 . S
H1084 C1069 0.961 . S
H1085 C1069 0.960 . S
C1086 C1087 1.391 . S
C1086 C1088 1.394 . S
C1086 H1102 0.931 . S
C1087 C1086 1.391 . S
C1087 C1091 1.376 . S
C1088 C1086 1.394 . S
C1088 C1089 1.369 . S
C1088 C1092 1.531 . S
C1089 C1088 1.369 . S
C1089 C1090 1.410 . S
C1089 C1097 1.503 . S
C1090 C1089 1.410 . S
C1090 C1091 1.392 . S
C1090 C1093 1.511 . S
C1091 C1087 1.376 . S
C1091 C1090 1.392 . S
C1091 H1103 0.929 . S
C1092 C1088 1.531 . S
C1092 H1104 0.960 . S
C1092 H1105 0.962 . S
C1092 H1106 0.960 . S
C1093 C1090 1.511 . S
C1093 H1107 0.961 . S
C1093 H1108 0.961 . S
C1093 H1109 0.961 . S
C1094 C1095 1.370 . S
C1094 C1096 1.363 . S
C1094 H1110 0.931 . S
C1095 C1094 1.370 . S
C1095 C1099 1.408 . S
C1096 C1094 1.363 . S
C1096 C1097 1.370 . S
C1096 C1100 1.524 . S
C1097 C1089 1.503 . S
C1097 C1096 1.370 . S
C1097 C1098 1.403 . S
C1098 C1097 1.403 . S
C1098 C1099 1.404 . S
C1098 C1101 1.539 . S
C1099 C1095 1.408 . S
C1099 C1098 1.404 . S
C1099 H1111 0.930 . S
C1100 C1096 1.524 . S
C1100 H1112 0.956 . S
C1100 H1113 0.961 . S
C1100 H1114 0.961 . S
C1101 C1098 1.539 . S
C1101 H1115 0.958 . S
C1101 H1116 0.961 . S
C1101 H1117 0.960 . S
H1102 C1086 0.931 . S
H1103 C1091 0.929 . S
H1104 C1092 0.960 . S
H1105 C1092 0.962 . S
H1106 C1092 0.960 . S
H1107 C1093 0.961 . S
H1108 C1093 0.961 . S
H1109 C1093 0.961 . S
H1110 C1094 0.931 . S
H1111 C1099 0.930 . S
H1112 C1100 0.956 . S
H1113 C1100 0.961 . S
H1114 C1100 0.961 . S
H1115 C1101 0.958 . S
H1116 C1101 0.961 . S
H1117 C1101 0.960 . S
C1118 C1119 1.391 . S
C1118 C1120 1.394 . S
C1118 H1134 0.931 . S
C1119 C1118 1.391 . S
C1119 C1123 1.376 . S
C1120 C1118 1.394 . S
C1120 C1121 1.369 . S
C1120 C1124 1.531 . S
C1121 C1120 1.369 . S
C1121 C1122 1.410 . S
C1121 C1129 1.503 . S
C1122 C1121 1.410 . S
C1122 C1123 1.392 . S
C1122 C1125 1.511 . S
C1123 C1119 1.376 . S
C1123 C1122 1.392 . S
C1123 H1135 0.929 . S
C1124 C1120 1.531 . S
C1124 H1136 0.960 . S
C1124 H1137 0.962 . S
C1124 H1138 0.960 . S
C1125 C1122 1.511 . S
C1125 H1139 0.961 . S
C1125 H1140 0.961 . S
C1125 H1141 0.961 . S
C1126 C1127 1.370 . S
C1126 C1128 1.363 . S
C1126 H1142 0.931 . S
C1127 C1126 1.370 . S
C1127 C1131 1.408 . S
C1128 C1126 1.363 . S
C1128 C1129 1.370 . S
C1128 C1132 1.524 . S
C1129 C1121 1.503 . S
C1129 C1128 1.370 . S
C1129 C1130 1.403 . S
C1130 C1129 1.403 . S
C1130 C1131 1.404 . S
C1130 C1133 1.539 . S
C1131 C1127 1.408 . S
C1131 C1130 1.404 . S
C1131 H1143 0.930 . S
C1132 C1128 1.524 . S
C1132 H1144 0.956 . S
C1132 H1145 0.961 . S
C1132 H1146 0.961 . S
C1133 C1130 1.539 . S
C1133 H1147 0.958 . S
C1133 H1148 0.961 . S
C1133 H1149 0.960 . S
H1134 C1118 0.931 . S
H1135 C1123 0.929 . S
H1136 C1124 0.960 . S
H1137 C1124 0.962 . S
H1138 C1124 0.960 . S
H1139 C1125 0.961 . S
H1140 C1125 0.961 . S
H1141 C1125 0.961 . S
H1142 C1126 0.931 . S
H1143 C1131 0.930 . S
H1144 C1132 0.956 . S
H1145 C1132 0.961 . S
H1146 C1132 0.961 . S
H1147 C1133 0.958 . S
H1148 C1133 0.961 . S
H1149 C1133 0.960 . S
C1150 C1151 1.391 . S
C1150 C1152 1.394 . S
C1150 H1166 0.931 . S
C1151 C1150 1.391 . S
C1151 C1155 1.376 1_455 S
C1152 C1150 1.394 . S
C1152 C1153 1.369 1_455 S
C1152 C1156 1.531 . S
C1153 C1152 1.369 1_655 S
C1153 C1154 1.410 . S
C1153 C1161 1.503 . S
C1154 C1153 1.410 . S
C1154 C1155 1.392 . S
C1154 C1157 1.511 . S
C1155 C1151 1.376 1_655 S
C1155 C1154 1.392 . S
C1155 H1167 0.929 . S
C1156 C1152 1.531 . S
C1156 H1168 0.960 . S
C1156 H1169 0.962 . S
C1156 H1170 0.960 . S
C1157 C1154 1.511 . S
C1157 H1171 0.961 . S
C1157 H1172 0.961 . S
C1157 H1173 0.961 . S
C1158 C1159 1.370 . S
C1158 C1160 1.363 . S
C1158 H1174 0.931 . S
C1159 C1158 1.370 . S
C1159 C1163 1.408 . S
C1160 C1158 1.363 . S
C1160 C1161 1.370 . S
C1160 C1164 1.524 . S
C1161 C1153 1.503 . S
C1161 C1160 1.370 . S
C1161 C1162 1.403 . S
C1162 C1161 1.403 . S
C1162 C1163 1.404 . S
C1162 C1165 1.539 . S
C1163 C1159 1.408 . S
C1163 C1162 1.404 . S
C1163 H1175 0.930 . S
C1164 C1160 1.524 . S
C1164 H1176 0.956 . S
C1164 H1177 0.961 . S
C1164 H1178 0.961 . S
C1165 C1162 1.539 . S
C1165 H1179 0.958 . S
C1165 H1180 0.961 . S
C1165 H1181 0.960 . S
H1166 C1150 0.931 . S
H1167 C1155 0.929 . S
H1168 C1156 0.960 . S
H1169 C1156 0.962 . S
H1170 C1156 0.960 . S
H1171 C1157 0.961 . S
H1172 C1157 0.961 . S
H1173 C1157 0.961 . S
H1174 C1158 0.931 . S
H1175 C1163 0.930 . S
H1176 C1164 0.956 . S
H1177 C1164 0.961 . S
H1178 C1164 0.961 . S
H1179 C1165 0.958 . S
H1180 C1165 0.961 . S
H1181 C1165 0.960 . S
C1182 C1183 1.391 . S
C1182 C1184 1.394 . S
C1182 H1198 0.931 . S
C1183 C1182 1.391 . S
C1183 C1187 1.376 . S
C1184 C1182 1.394 . S
C1184 C1185 1.369 . S
C1184 C1188 1.531 . S
C1185 C1184 1.369 . S
C1185 C1186 1.410 . S
C1185 C1193 1.503 . S
C1186 C1185 1.410 . S
C1186 C1187 1.392 . S
C1186 C1189 1.511 . S
C1187 C1183 1.376 . S
C1187 C1186 1.392 . S
C1187 H1199 0.929 . S
C1188 C1184 1.531 . S
C1188 H1200 0.960 . S
C1188 H1201 0.962 . S
C1188 H1202 0.960 . S
C1189 C1186 1.511 . S
C1189 H1203 0.961 . S
C1189 H1204 0.961 . S
C1189 H1205 0.961 . S
C1190 C1191 1.370 . S
C1190 C1192 1.363 . S
C1190 H1206 0.931 . S
C1191 C1190 1.370 . S
C1191 C1195 1.408 . S
C1192 C1190 1.363 . S
C1192 C1193 1.370 . S
C1192 C1196 1.524 . S
C1193 C1185 1.503 . S
C1193 C1192 1.370 . S
C1193 C1194 1.403 . S
C1194 C1193 1.403 . S
C1194 C1195 1.404 . S
C1194 C1197 1.539 . S
C1195 C1191 1.408 . S
C1195 C1194 1.404 . S
C1195 H1207 0.930 . S
C1196 C1192 1.524 . S
C1196 H1208 0.956 . S
C1196 H1209 0.961 . S
C1196 H1210 0.961 . S
C1197 C1194 1.539 . S
C1197 H1211 0.958 . S
C1197 H1212 0.961 . S
C1197 H1213 0.960 . S
H1198 C1182 0.931 . S
H1199 C1187 0.929 . S
H1200 C1188 0.960 . S
H1201 C1188 0.962 . S
H1202 C1188 0.960 . S
H1203 C1189 0.961 . S
H1204 C1189 0.961 . S
H1205 C1189 0.961 . S
H1206 C1190 0.931 . S
H1207 C1195 0.930 . S
H1208 C1196 0.956 . S
H1209 C1196 0.961 . S
H1210 C1196 0.961 . S
H1211 C1197 0.958 . S
H1212 C1197 0.961 . S
H1213 C1197 0.960 . S
C1214 C1215 1.391 . S
C1214 C1216 1.394 . S
C1214 H1230 0.931 . S
C1215 C1214 1.391 . S
C1215 C1219 1.376 . S
C1216 C1214 1.394 . S
C1216 C1217 1.369 . S
C1216 C1220 1.531 . S
C1217 C1216 1.369 . S
C1217 C1218 1.410 . S
C1217 C1225 1.503 . S
C1218 C1217 1.410 . S
C1218 C1219 1.392 . S
C1218 C1221 1.511 . S
C1219 C1215 1.376 . S
C1219 C1218 1.392 . S
C1219 H1231 0.929 . S
C1220 C1216 1.531 . S
C1220 H1232 0.960 . S
C1220 H1233 0.962 . S
C1220 H1234 0.960 . S
C1221 C1218 1.511 . S
C1221 H1235 0.961 . S
C1221 H1236 0.961 . S
C1221 H1237 0.961 . S
C1222 C1223 1.370 . S
C1222 C1224 1.363 . S
C1222 H1238 0.931 . S
C1223 C1222 1.370 . S
C1223 C1227 1.408 . S
C1224 C1222 1.363 . S
C1224 C1225 1.370 . S
C1224 C1228 1.524 . S
C1225 C1217 1.503 . S
C1225 C1224 1.370 . S
C1225 C1226 1.403 . S
C1226 C1225 1.403 . S
C1226 C1227 1.404 . S
C1226 C1229 1.539 . S
C1227 C1223 1.408 . S
C1227 C1226 1.404 . S
C1227 H1239 0.930 . S
C1228 C1224 1.524 . S
C1228 H1240 0.956 . S
C1228 H1241 0.961 . S
C1228 H1242 0.961 . S
C1229 C1226 1.539 . S
C1229 H1243 0.958 . S
C1229 H1244 0.961 . S
C1229 H1245 0.960 . S
H1230 C1214 0.931 . S
H1231 C1219 0.929 . S
H1232 C1220 0.960 . S
H1233 C1220 0.962 . S
H1234 C1220 0.960 . S
H1235 C1221 0.961 . S
H1236 C1221 0.961 . S
H1237 C1221 0.961 . S
H1238 C1222 0.931 . S
H1239 C1227 0.930 . S
H1240 C1228 0.956 . S
H1241 C1228 0.961 . S
H1242 C1228 0.961 . S
H1243 C1229 0.958 . S
H1244 C1229 0.961 . S
H1245 C1229 0.960 . S
C1246 C1247 1.391 . S
C1246 C1248 1.394 . S
C1246 H1262 0.931 . S
C1247 C1246 1.391 . S
C1247 C1251 1.376 . S
C1248 C1246 1.394 . S
C1248 C1249 1.369 . S
C1248 C1252 1.531 . S
C1249 C1248 1.369 . S
C1249 C1250 1.410 . S
C1249 C1257 1.503 . S
C1250 C1249 1.410 . S
C1250 C1251 1.392 . S
C1250 C1253 1.511 . S
C1251 C1247 1.376 . S
C1251 C1250 1.392 . S
C1251 H1263 0.929 . S
C1252 C1248 1.531 . S
C1252 H1264 0.960 . S
C1252 H1265 0.962 . S
C1252 H1266 0.960 . S
C1253 C1250 1.511 . S
C1253 H1267 0.961 . S
C1253 H1268 0.961 . S
C1253 H1269 0.961 . S
C1254 C1255 1.370 . S
C1254 C1256 1.363 . S
C1254 H1270 0.931 . S
C1255 C1254 1.370 . S
C1255 C1259 1.408 . S
C1256 C1254 1.363 . S
C1256 C1257 1.370 . S
C1256 C1260 1.524 . S
C1257 C1249 1.503 . S
C1257 C1256 1.370 . S
C1257 C1258 1.403 . S
C1258 C1257 1.403 . S
C1258 C1259 1.404 . S
C1258 C1261 1.539 . S
C1259 C1255 1.408 . S
C1259 C1258 1.404 . S
C1259 H1271 0.930 . S
C1260 C1256 1.524 . S
C1260 H1272 0.956 . S
C1260 H1273 0.961 . S
C1260 H1274 0.961 . S
C1261 C1258 1.539 . S
C1261 H1275 0.958 . S
C1261 H1276 0.961 . S
C1261 H1277 0.960 . S
H1262 C1246 0.931 . S
H1263 C1251 0.929 . S
H1264 C1252 0.960 . S
H1265 C1252 0.962 . S
H1266 C1252 0.960 . S
H1267 C1253 0.961 . S
H1268 C1253 0.961 . S
H1269 C1253 0.961 . S
H1270 C1254 0.931 . S
H1271 C1259 0.930 . S
H1272 C1260 0.956 . S
H1273 C1260 0.961 . S
H1274 C1260 0.961 . S
H1275 C1261 0.958 . S
H1276 C1261 0.961 . S
H1277 C1261 0.960 . S
C511 C7 1.783 . S
C519 C191 1.706 . S
C543 C30 1.708 . S
C551 C235 1.666 . S
C583 C315 1.617 . S
C575 N58 1.607 . S
C615 C359 1.408 . S
C607 N81 1.354 1_655 S
C647 C439 1.749 . S
C639 C99 1.787 . S
C679 C495 1.596 . S
C671 N127 1.641 . S
C703 N25 1.891 . S
C711 C291 1.775 . S
C735 C62 1.549 . S
C743 C371 1.500 . S
C775 C415 1.816 . S
C767 C85 1.965 . S
C807 C483 1.480 . S
C799 N94 1.508 . S
C831 C131 1.760 . S
C839 C167 1.663 . S
C871 C247 1.624 . S
C863 N2 1.629 1_556 S
C903 C353 1.811 . S
C895 C16 1.886 1_556 S
C927 C39 1.584 . S
C935 C433 1.459 . S
C967 C501 1.632 . S
C959 N48 1.575 . S
C991 N71 1.517 . S
C999 C185 1.491 . S
C1023 C108 1.706 . S
C1031 C229 1.638 . S
C1055 N117 1.750 . S
C1063 C309 1.554 . S
C1087 N35 1.879 . S
C1095 C477 1.770 . S
C1127 C173 1.569 . S
C1119 C53 1.647 . S
C1151 C76 1.818 . S
C1159 C253 1.732 . S
C1183 N104 1.384 . S
C1191 C297 1.347 . S
C1215 C122 1.779 . S
C1223 C377 1.756 . S
C1247 N12 1.379 . S
C1255 C421 1.406 . S
