# Generated by pormake.
# Topology zzz, (3,6)-cn, num edge types: 1
# Building blocks:
#     Node 0, Type 0, BuildingBlock: VETTIZ_charged_linker_0, # of connection points: 3
#     Node 1, Type 0, BuildingBlock: VETTIZ_charged_linker_0, # of connection points: 3
#     Node 2, Type 0, BuildingBlock: VETTIZ_charged_linker_0, # of connection points: 3
#     Node 3, Type 0, BuildingBlock: VETTIZ_charged_linker_0, # of connection points: 3
#     Node 4, Type 0, BuildingBlock: VETTIZ_charged_linker_0, # of connection points: 3
#     Node 5, Type 0, BuildingBlock: VETTIZ_charged_linker_0, # of connection points: 3
#     Node 6, Type 0, BuildingBlock: VETTIZ_charged_linker_0, # of connection points: 3
#     Node 7, Type 0, BuildingBlock: VETTIZ_charged_linker_0, # of connection points: 3
#     Node 8, Type 1, BuildingBlock: GEDQOX_clean_sbu_0, # of connection points: 6
#     Node 9, Type 1, BuildingBlock: GEDQOX_clean_sbu_0, # of connection points: 6
#     Node 10, Type 1, BuildingBlock: GEDQOX_clean_sbu_0, # of connection points: 6
#     Node 11, Type 1, BuildingBlock: GEDQOX_clean_sbu_0, # of connection points: 6
#     Edge 12, Type (0, 1), BuildingBlock: TEMPAE_clean_linker_10, # of connection points: 2
#     Edge 13, Type (0, 1), BuildingBlock: TEMPAE_clean_linker_10, # of connection points: 2
#     Edge 14, Type (0, 1), BuildingBlock: TEMPAE_clean_linker_10, # of connection points: 2
#     Edge 15, Type (0, 1), BuildingBlock: TEMPAE_clean_linker_10, # of connection points: 2
#     Edge 16, Type (0, 1), BuildingBlock: TEMPAE_clean_linker_10, # of connection points: 2
#     Edge 17, Type (0, 1), BuildingBlock: TEMPAE_clean_linker_10, # of connection points: 2
#     Edge 18, Type (0, 1), BuildingBlock: TEMPAE_clean_linker_10, # of connection points: 2
#     Edge 19, Type (0, 1), BuildingBlock: TEMPAE_clean_linker_10, # of connection points: 2
#     Edge 20, Type (0, 1), BuildingBlock: TEMPAE_clean_linker_10, # of connection points: 2
#     Edge 21, Type (0, 1), BuildingBlock: TEMPAE_clean_linker_10, # of connection points: 2
#     Edge 22, Type (0, 1), BuildingBlock: TEMPAE_clean_linker_10, # of connection points: 2
#     Edge 23, Type (0, 1), BuildingBlock: TEMPAE_clean_linker_10, # of connection points: 2
#     Edge 24, Type (0, 1), BuildingBlock: TEMPAE_clean_linker_10, # of connection points: 2
#     Edge 25, Type (0, 1), BuildingBlock: TEMPAE_clean_linker_10, # of connection points: 2
#     Edge 26, Type (0, 1), BuildingBlock: TEMPAE_clean_linker_10, # of connection points: 2
#     Edge 27, Type (0, 1), BuildingBlock: TEMPAE_clean_linker_10, # of connection points: 2
#     Edge 28, Type (0, 1), BuildingBlock: TEMPAE_clean_linker_10, # of connection points: 2
#     Edge 29, Type (0, 1), BuildingBlock: TEMPAE_clean_linker_10, # of connection points: 2
#     Edge 30, Type (0, 1), BuildingBlock: TEMPAE_clean_linker_10, # of connection points: 2
#     Edge 31, Type (0, 1), BuildingBlock: TEMPAE_clean_linker_10, # of connection points: 2
#     Edge 32, Type (0, 1), BuildingBlock: TEMPAE_clean_linker_10, # of connection points: 2
#     Edge 33, Type (0, 1), BuildingBlock: TEMPAE_clean_linker_10, # of connection points: 2
#     Edge 34, Type (0, 1), BuildingBlock: TEMPAE_clean_linker_10, # of connection points: 2
#     Edge 35, Type (0, 1), BuildingBlock: TEMPAE_clean_linker_10, # of connection points: 2
# Relax obj value: 0.314
# Max RMSD: 0.267
# Mean RMSD: 0.201
data_MOF--net-zzz--node1-GEDQOX_clean_sbu_0--node2-VETTIZ_charged_linker_0--edge1-TEMPAE_clean_linker_10
_symmetry_space_group_name_H-M    P1
_symmetry_Int_Tables_number       1
_symmetry_cell_setting            triclinic
loop_
_symmetry_equiv_pos_as_xyz
'x, y, z'
_cell_length_a     62.836257
_cell_length_b     58.071959
_cell_length_c     22.016475
_cell_angle_alpha  82.036723
_cell_angle_beta   91.235775
_cell_angle_gamma 102.15638
loop_
_atom_site_label
_atom_site_type_symbol
_atom_site_fract_x
_atom_site_fract_y
_atom_site_fract_z
_atom_type_partial_charge
C0 C 0.79073 0.46837 0.32994 0.0
C1 C 0.80977 0.46158 0.35468 0.0
C2 C 0.8188 0.44558 0.32577 0.0
C3 C 0.79298 0.44723 0.24332 0.0
C4 C 0.78249 0.46077 0.27442 0.0
C5 C 0.76272 0.4664 0.24002 0.0
H6 H 0.70705 0.47126 0.97199 0.0
C7 C 0.78276 0.44541 0.18284 0.0
C8 C 0.7648 0.4563 0.18056 0.0
H9 H 0.68727 0.48563 0.14703 0.0
H10 H 0.72011 0.47561 0.19392 0.0
H11 H 0.75681 0.49483 0.9801 0.0
H12 H 0.72274 0.42219 0.02602 0.0
H13 H 0.74608 0.42295 0.98189 0.0
H14 H 0.72538 0.438 0.94949 0.0
H15 H 0.75017 0.47543 0.92272 0.0
H16 H 0.77516 0.47723 0.9657 0.0
C17 C 0.76493 0.49368 0.2287 0.0
C18 C 0.74205 0.45298 0.27717 0.0
C19 C 0.82457 0.42033 0.01845 0.0
C20 C 0.82366 0.42418 0.95424 0.0
C21 C 0.80565 0.43193 0.9258 0.0
C22 C 0.78914 0.43668 0.96115 0.0
C23 C 0.79102 0.43425 0.02545 0.0
C24 C 0.80846 0.42599 0.05297 0.0
C25 C 0.80946 0.42734 0.12066 0.0
C26 C 0.78989 0.43808 0.12925 0.0
C27 C 0.77887 0.44159 0.07373 0.0
C28 C 0.8314 0.44392 0.13468 0.0
C29 C 0.80621 0.40164 0.15466 0.0
C30 C 0.70996 0.47237 0.02029 0.0
C31 C 0.69488 0.47937 0.05605 0.0
C32 C 0.69886 0.48033 0.11892 0.0
C33 C 0.71779 0.47444 0.14596 0.0
C34 C 0.7327 0.46726 0.1098 0.0
C35 C 0.72854 0.46605 0.04822 0.0
C36 C 0.74563 0.45684 0.01773 0.0
C37 C 0.76015 0.45173 0.07175 0.0
C38 C 0.75286 0.45851 0.12519 0.0
C39 C 0.75755 0.47694 0.96868 0.0
C40 C 0.7345 0.43382 0.99196 0.0
H41 H 0.8188 0.42714 0.24948 0.0
H42 H 0.78301 0.48014 0.35166 0.0
H43 H 0.74538 0.43796 0.31057 0.0
H44 H 0.72906 0.44466 0.2474 0.0
H45 H 0.73552 0.46497 0.30358 0.0
H46 H 0.78118 0.50249 0.20859 0.0
H47 H 0.76318 0.50073 0.27231 0.0
H48 H 0.75271 0.49923 0.1964 0.0
H49 H 0.83866 0.4152 0.0413 0.0
H50 H 0.80485 0.43527 0.87624 0.0
H51 H 0.77604 0.44303 0.93699 0.0
H52 H 0.8387 0.45577 0.09295 0.0
H53 H 0.84359 0.43352 0.15332 0.0
H54 H 0.82952 0.45639 0.16683 0.0
H55 H 0.79357 0.38935 0.13176 0.0
H56 H 0.80029 0.40003 0.20228 0.0
H57 H 0.82153 0.39495 0.155 0.0
H58 H 0.83276 0.43905 0.3451 0.0
C59 C 0.8106 0.4385 0.27033 0.0
C60 C 0.94008 0.77454 0.00959 0.0
C61 C 0.93653 0.79747 0.01298 0.0
C62 C 0.92318 0.80071 0.0605 0.0
C63 C 0.92452 0.76158 0.11089 0.0
C64 C 0.93372 0.75667 0.05925 0.0
C65 C 0.93831 0.73205 0.06831 0.0
H66 H 0.98049 0.65224 0.23037 0.0
C67 C 0.92705 0.74337 0.16212 0.0
C68 C 0.93304 0.72482 0.13694 0.0
H69 H 0.93788 0.64097 0.07486 0.0
H70 H 0.92282 0.67505 0.09182 0.0
H71 H 0.99369 0.71369 0.21288 0.0
H72 H 0.93786 0.66673 0.30904 0.0
H73 H 0.95263 0.68801 0.3533 0.0
H74 H 0.96519 0.66513 0.33235 0.0
H75 H 0.99724 0.69192 0.27677 0.0
H76 H 0.99031 0.71943 0.28883 0.0
C77 C 0.96252 0.73309 0.05415 0.0
C78 C 0.9231 0.71694 0.02601 0.0
C79 C 0.94416 0.77516 0.36386 0.0
C80 C 0.95795 0.77043 0.41255 0.0
C81 C 0.96813 0.75088 0.41357 0.0
C82 C 0.96427 0.7362 0.36652 0.0
C83 C 0.9507 0.74165 0.31711 0.0
C84 C 0.94135 0.76126 0.31621 0.0
C85 C 0.92997 0.76696 0.25739 0.0
C86 C 0.93276 0.74663 0.22373 0.0
C87 C 0.9447 0.7315 0.259 0.0
C88 C 0.94189 0.7919 0.22549 0.0
C89 C 0.90572 0.76554 0.27174 0.0
C90 C 0.96867 0.65774 0.19811 0.0
C91 C 0.96124 0.64464 0.14908 0.0
C92 C 0.9446 0.65127 0.11086 0.0
C93 C 0.93668 0.67141 0.11794 0.0
C94 C 0.94615 0.6856 0.16139 0.0
C95 C 0.96016 0.67796 0.20454 0.0
C96 C 0.96314 0.6933 0.25626 0.0
C97 C 0.94902 0.71141 0.23418 0.0
C98 C 0.94081 0.70721 0.17624 0.0
C99 C 0.98742 0.70524 0.2593 0.0
C100 C 0.95433 0.67753 0.31628 0.0
H101 H 0.90713 0.78564 0.14562 0.0
H102 H 0.94926 0.7713 0.97175 0.0
H103 H 0.92065 0.7277 0.98156 0.0
H104 H 0.90684 0.70956 0.04768 0.0
H105 H 0.93025 0.70234 0.01349 0.0
H106 H 0.97332 0.74487 0.08297 0.0
H107 H 0.96646 0.73989 0.00516 0.0
H108 H 0.9664 0.71517 0.06309 0.0
H109 H 0.93672 0.79052 0.36081 0.0
H110 H 0.97908 0.74708 0.45048 0.0
H111 H 0.9724 0.72159 0.36933 0.0
H112 H 0.95332 0.80207 0.25626 0.0
H113 H 0.93036 0.80354 0.21014 0.0
H114 H 0.952 0.79048 0.18597 0.0
H115 H 0.89915 0.74951 0.3051 0.0
H116 H 0.89545 0.76399 0.23049 0.0
H117 H 0.90361 0.78145 0.29185 0.0
H118 H 0.91946 0.81791 0.06334 0.0
C119 C 0.91675 0.7825 0.10916 0.0
C120 C 0.82005 0.99942 0.08251 0.0
C121 C 0.829 1.00398 0.02279 0.0
C122 C 0.81829 0.01572 0.97516 0.0
C123 C 0.79099 0.01954 0.04675 0.0
C124 C 0.80089 1.00715 0.09333 0.0
C125 C 0.78852 1.00345 0.15325 0.0
H126 H 0.70377 0.02537 0.30771 0.0
C127 C 0.77256 0.02689 0.07329 0.0
C128 C 0.77104 0.01775 0.136 0.0
H129 H 0.74452 0.97577 0.37097 0.0
H130 H 0.76677 0.98884 0.27827 0.0
H131 H 0.73919 0.0679 0.25186 0.0
H132 H 0.69845 0.01083 0.17261 0.0
H133 H 0.697 0.03788 0.12716 0.0
H134 H 0.68891 0.03341 0.20584 0.0
H135 H 0.7126 0.07018 0.22407 0.0
H136 H 0.73637 0.07958 0.17476 0.0
C137 C 0.80395 0.01396 0.20266 0.0
C138 C 0.7787 0.97654 0.16936 0.0
C139 C 0.72371 0.07142 0.93734 0.0
C140 C 0.70622 0.08152 0.95141 0.0
C141 C 0.70292 0.08451 0.0127 0.0
C142 C 0.71523 0.0753 0.0599 0.0
C143 C 0.73083 0.06273 0.04585 0.0
C144 C 0.736 0.06243 0.9854 0.0
C145 C 0.75473 0.05031 0.98004 0.0
C146 C 0.75835 0.04154 0.04718 0.0
C147 C 0.74377 0.04825 0.08501 0.0
C148 C 0.77445 0.06925 0.95138 0.0
C149 C 0.74713 0.02934 0.94277 0.0
C150 C 0.71742 0.01718 0.30165 0.0
C151 C 0.72204 0.99913 0.34592 0.0
C152 C 0.74045 0.98955 0.33718 0.0
C153 C 0.75314 0.99694 0.28309 0.0
C154 C 0.74721 0.01387 0.23725 0.0
C155 C 0.72975 0.02387 0.24775 0.0
C156 C 0.72459 0.04041 0.19361 0.0
C157 C 0.74147 0.03832 0.1477 0.0
C158 C 0.75486 0.02293 0.17327 0.0
C159 C 0.72821 0.06583 0.21175 0.0
C160 C 0.70102 0.03034 0.17349 0.0
H161 H 0.79224 0.03268 0.94877 0.0
H162 H 0.82784 0.99012 0.11971 0.0
H163 H 0.77465 0.96797 0.1272 0.0
H164 H 0.76314 0.97297 0.19482 0.0
H165 H 0.79031 0.96724 0.19629 0.0
H166 H 0.81306 0.03212 0.18462 0.0
H167 H 0.816 1.00276 0.21669 0.0
H168 H 0.79515 0.01575 0.24402 0.0
H169 H 0.72691 0.06939 0.89044 0.0
H170 H 0.68961 0.09224 0.02489 0.0
H171 H 0.71123 0.07705 0.10586 0.0
H172 H 0.77281 0.08764 0.95595 0.0
H173 H 0.77622 0.06839 0.90171 0.0
H174 H 0.78991 0.06739 0.97474 0.0
H175 H 0.73067 0.01917 0.95828 0.0
H176 H 0.7578 0.01634 0.94855 0.0
H177 H 0.74623 0.03586 0.8931 0.0
H178 H 0.82495 0.01947 0.92898 0.0
C179 C 0.79945 0.02361 0.98686 0.0
C180 C 0.57178 0.73133 0.4769 0.0
C181 C 0.58306 0.71314 0.49877 0.0
C182 C 0.60291 0.71291 0.47047 0.0
C183 C 0.59811 0.74536 0.39412 0.0
C184 C 0.58006 0.74775 0.42509 0.0
C185 C 0.5721 0.76975 0.39675 0.0
H186 H 0.57663 0.85592 0.14852 0.0
C187 C 0.60186 0.76319 0.33947 0.0
C188 C 0.58748 0.77862 0.34148 0.0
H189 H 0.5359 0.84661 0.30884 0.0
H190 H 0.55282 0.81431 0.35595 0.0
H191 H 0.62154 0.84901 0.22322 0.0
H192 H 0.57179 0.81262 0.12168 0.0
H193 H 0.5877 0.79087 0.13202 0.0
H194 H 0.59848 0.81993 0.09031 0.0
H195 H 0.61733 0.85238 0.14175 0.0
H196 H 0.63369 0.83236 0.17808 0.0
C197 C 0.57534 0.78757 0.44379 0.0
C198 C 0.5482 0.76212 0.37722 0.0
C199 C 0.63052 0.74051 0.14992 0.0
C200 C 0.63132 0.75154 0.08859 0.0
C201 C 0.63267 0.77629 0.07712 0.0
C202 C 0.62961 0.7889 0.12489 0.0
C203 C 0.62471 0.7765 0.18397 0.0
C204 C 0.62709 0.75329 0.19698 0.0
C205 C 0.62259 0.74353 0.26358 0.0
C206 C 0.614 0.76378 0.28554 0.0
C207 C 0.61464 0.78257 0.23781 0.0
C208 C 0.64437 0.73992 0.29415 0.0
C209 C 0.60504 0.72019 0.2683 0.0
C210 C 0.57141 0.84699 0.19395 0.0
C211 C 0.55485 0.8535 0.22478 0.0
C212 C 0.54863 0.84173 0.28418 0.0
C213 C 0.55843 0.82303 0.31124 0.0
C214 C 0.57464 0.81623 0.27856 0.0
C215 C 0.58093 0.8285 0.22116 0.0
C216 C 0.59805 0.81925 0.19164 0.0
C217 C 0.60137 0.79937 0.24095 0.0
C218 C 0.5876 0.79741 0.29203 0.0
C219 C 0.61879 0.83927 0.18266 0.0
C220 C 0.58872 0.81023 0.13091 0.0
H221 H 0.626 0.72879 0.39986 0.0
H222 H 0.55704 0.73265 0.49949 0.0
H223 H 0.54643 0.74719 0.34956 0.0
H224 H 0.54226 0.77655 0.34858 0.0
H225 H 0.53735 0.75604 0.41803 0.0
H226 H 0.59104 0.78773 0.46826 0.0
H227 H 0.56206 0.78273 0.47868 0.0
H228 H 0.57626 0.80605 0.42208 0.0
H229 H 0.63012 0.72167 0.16052 0.0
H230 H 0.63427 0.78549 0.03063 0.0
H231 H 0.62988 0.80749 0.11356 0.0
H232 H 0.65777 0.74221 0.26021 0.0
H233 H 0.64289 0.72165 0.319 0.0
H234 H 0.65004 0.75293 0.32663 0.0
H235 H 0.59018 0.72319 0.24277 0.0
H236 H 0.60017 0.71299 0.31616 0.0
H237 H 0.61116 0.70606 0.24927 0.0
H238 H 0.61221 0.69961 0.48706 0.0
C239 C 0.61062 0.7292 0.419 0.0
C240 C 0.32846 0.53738 0.58774 0.0
C241 C 0.33677 0.54141 0.64617 0.0
C242 C 0.32495 0.55175 0.68471 0.0
C243 C 0.29747 0.55437 0.60662 0.0
C244 C 0.30893 0.54411 0.56884 0.0
C245 C 0.29794 0.54152 0.50787 0.0
H246 H 0.21329 0.5576 0.32195 0.0
C247 C 0.27839 0.56026 0.57262 0.0
C248 C 0.27875 0.55319 0.5142 0.0
H249 H 0.26294 0.51885 0.29291 0.0
H250 H 0.28099 0.53008 0.38628 0.0
H251 H 0.20685 0.53667 0.46487 0.0
H252 H 0.24262 0.60228 0.36787 0.0
H253 H 0.23532 0.60934 0.43858 0.0
H254 H 0.2143 0.59845 0.38597 0.0
H255 H 0.19474 0.55836 0.4183 0.0
H256 H 0.20065 0.56057 0.49724 0.0
C257 C 0.29056 0.51461 0.50318 0.0
C258 C 0.31381 0.5555 0.45636 0.0
C259 C 0.21981 0.58866 0.67947 0.0
C260 C 0.20083 0.59606 0.65736 0.0
C261 C 0.19792 0.60105 0.59376 0.0
C262 C 0.21259 0.59642 0.55253 0.0
C263 C 0.23022 0.58655 0.57532 0.0
C264 C 0.23455 0.58448 0.63738 0.0
C265 C 0.2555 0.57617 0.65178 0.0
C266 C 0.26153 0.57116 0.58899 0.0
C267 C 0.24625 0.57664 0.54497 0.0
C268 C 0.25062 0.55323 0.69868 0.0
C269 C 0.27227 0.59686 0.67431 0.0
C270 C 0.22833 0.55198 0.33492 0.0
C271 C 0.2368 0.5375 0.2999 0.0
C272 C 0.25609 0.53 0.31928 0.0
C273 C 0.26645 0.53644 0.37356 0.0
C274 C 0.25718 0.55011 0.40944 0.0
C275 C 0.23851 0.55776 0.38949 0.0
C276 C 0.22981 0.57048 0.43516 0.0
C277 C 0.24631 0.56919 0.48623 0.0
C278 C 0.26236 0.55733 0.47098 0.0
C279 C 0.20678 0.55598 0.45509 0.0
C280 C 0.23035 0.59645 0.4056 0.0
H281 H 0.29712 0.56592 0.69675 0.0
H282 H 0.33721 0.52963 0.55683 0.0
H283 H 0.32182 0.5732 0.46874 0.0
H284 H 0.30557 0.55913 0.41238 0.0
H285 H 0.32676 0.54579 0.44883 0.0
H286 H 0.28701 0.50399 0.54927 0.0
H287 H 0.30336 0.50784 0.48139 0.0
H288 H 0.2752 0.51042 0.47773 0.0
H289 H 0.22248 0.58509 0.72832 0.0
H290 H 0.18338 0.60681 0.57605 0.0
H291 H 0.20901 0.59945 0.50462 0.0
H292 H 0.23613 0.54058 0.68438 0.0
H293 H 0.24721 0.5573 0.74488 0.0
H294 H 0.26408 0.54362 0.70287 0.0
H295 H 0.26766 0.61434 0.66096 0.0
H296 H 0.2886 0.59902 0.65348 0.0
H297 H 0.27373 0.59426 0.72505 0.0
H298 H 0.3308 0.55473 0.7302 0.0
C299 C 0.30539 0.55824 0.66527 0.0
C300 C 0.09106 0.24329 0.65122 0.0
C301 C 0.09495 0.22063 0.64637 0.0
C302 C 0.1082 0.21794 0.59803 0.0
C303 C 0.10628 0.25724 0.54986 0.0
C304 C 0.09716 0.26156 0.60235 0.0
C305 C 0.09238 0.28608 0.59517 0.0
H306 H 0.04925 0.36663 0.4406 0.0
C307 C 0.10352 0.27584 0.49985 0.0
C308 C 0.09749 0.294 0.52668 0.0
H309 H 0.09245 0.37677 0.59532 0.0
H310 H 0.10768 0.34319 0.57503 0.0
H311 H 0.0918 0.35344 0.35851 0.0
H312 H 0.03652 0.30521 0.45399 0.0
H313 H 0.03967 0.30037 0.37711 0.0
H314 H 0.0326 0.3275 0.3918 0.0
H315 H 0.06434 0.35501 0.33653 0.0
H316 H 0.07698 0.33259 0.31317 0.0
C317 C 0.10757 0.30084 0.63821 0.0
C318 C 0.06816 0.28467 0.61006 0.0
C319 C 0.08597 0.24606 0.29573 0.0
C320 C 0.07201 0.25115 0.24779 0.0
C321 C 0.0617 0.27051 0.24867 0.0
C322 C 0.06562 0.28467 0.29683 0.0
C323 C 0.07938 0.27886 0.34543 0.0
C324 C 0.08885 0.25943 0.34449 0.0
C325 C 0.10046 0.25329 0.40263 0.0
C326 C 0.09765 0.27315 0.43801 0.0
C327 C 0.0855 0.28845 0.40423 0.0
C328 C 0.12469 0.25507 0.38731 0.0
C329 C 0.08878 0.22807 0.43334 0.0
C330 C 0.06124 0.36097 0.47197 0.0
C331 C 0.06878 0.37358 0.5218 0.0
C332 C 0.08564 0.36681 0.55881 0.0
C333 C 0.09368 0.34693 0.54979 0.0
C334 C 0.08412 0.33314 0.5056 0.0
C335 C 0.06988 0.34102 0.46356 0.0
C336 C 0.06682 0.32625 0.41064 0.0
C337 C 0.08116 0.30816 0.43078 0.0
C338 C 0.08955 0.31185 0.48884 0.0
C339 C 0.07534 0.34262 0.3512 0.0
C340 C 0.04258 0.31418 0.40779 0.0
H341 H 0.1238 0.2338 0.51276 0.0
H342 H 0.08183 0.246 0.68961 0.0
H343 H 0.05738 0.27314 0.58064 0.0
H344 H 0.06413 0.30254 0.6025 0.0
H345 H 0.06434 0.27738 0.65885 0.0
H346 H 0.11013 0.28974 0.68203 0.0
H347 H 0.10035 0.3152 0.65191 0.0
H348 H 0.12379 0.3085 0.61655 0.0
H349 H 0.09352 0.23083 0.29729 0.0
H350 H 0.05061 0.27457 0.21239 0.0
H351 H 0.0574 0.29915 0.29545 0.0
H352 H 0.13109 0.27145 0.35492 0.0
H353 H 0.12683 0.23951 0.36569 0.0
H354 H 0.13506 0.2562 0.42844 0.0
H355 H 0.07872 0.22901 0.47343 0.0
H356 H 0.10046 0.21649 0.44759 0.0
H357 H 0.07737 0.21811 0.40215 0.0
H358 H 0.1121 0.20088 0.59429 0.0
C359 C 0.11426 0.23651 0.54994 0.0
C360 C 0.30346 0.01942 0.38307 0.0
C361 C 0.32316 0.01479 0.36313 0.0
C362 C 0.33261 0.9976 0.39877 0.0
C363 C 0.30471 0.99183 0.47628 0.0
C364 C 0.29454 1.00772 0.44028 0.0
C365 C 0.27412 0.01053 0.47126 0.0
H366 H 0.2132 0.98995 0.73319 0.0
C367 C 0.29291 0.98433 0.53515 0.0
C368 C 0.27491 0.99516 0.53318 0.0
H369 H 0.19725 0.02316 0.55438 0.0
H370 H 0.23097 0.01794 0.51324 0.0
H371 H 0.22626 0.94638 0.68117 0.0
H372 H 0.26486 0.01184 0.72938 0.0
H373 H 0.27875 0.98907 0.75497 0.0
H374 H 0.25219 0.98797 0.78628 0.0
H375 H 0.22968 0.95235 0.75905 0.0
H376 H 0.24898 0.9397 0.7224 0.0
C377 C 0.25426 1.00037 0.43303 0.0
C378 C 0.27622 0.03702 0.47822 0.0
C379 C 0.327 0.9362 0.70399 0.0
C380 C 0.32349 0.93075 0.76759 0.0
C381 C 0.30495 0.936 0.79307 0.0
C382 C 0.29063 0.94728 0.75573 0.0
C383 C 0.29512 0.9537 0.69247 0.0
C384 C 0.31299 0.94789 0.66786 0.0
C385 C 0.31681 0.958 0.60166 0.0
C386 C 0.29805 0.97063 0.5898 0.0
C387 C 0.28528 0.96795 0.64273 0.0
C388 C 0.31463 0.93693 0.56412 0.0
C389 C 0.33933 0.97559 0.59593 0.0
C390 C 0.21666 0.99596 0.68498 0.0
C391 C 0.20221 1.00697 0.64742 0.0
C392 C 0.20804 0.01496 0.58514 0.0
C393 C 0.22753 0.01163 0.56088 0.0
C394 C 0.2413 0.99986 0.59882 0.0
C395 C 0.23563 0.99211 0.65968 0.0
C396 C 0.25122 0.97839 0.6925 0.0
C397 C 0.26696 0.97872 0.64112 0.0
C398 C 0.26148 0.99184 0.58645 0.0
C399 C 0.23851 0.95287 0.71554 0.0
C400 C 0.26232 0.99231 0.74386 0.0
H401 H 0.33182 0.9735 0.47968 0.0
H402 H 0.29567 0.03227 0.35589 0.0
H403 H 0.29227 0.04416 0.49815 0.0
H404 H 0.26377 0.03997 0.5091 0.0
H405 H 0.27495 0.04778 0.43297 0.0
H406 H 0.25736 0.98546 0.41011 0.0
H407 H 0.25049 0.0142 0.39674 0.0
H408 H 0.23958 0.9926 0.46159 0.0
H409 H 0.34152 0.93336 0.68305 0.0
H410 H 0.30201 0.93219 0.84209 0.0
H411 H 0.27707 0.9513 0.77788 0.0
H412 H 0.30163 0.92172 0.58365 0.0
H413 H 0.33006 0.93044 0.56445 0.0
H414 H 0.30972 0.94136 0.51613 0.0
H415 H 0.34431 0.9825 0.63994 0.0
H416 H 0.33929 0.9918 0.56304 0.0
H417 H 0.35233 0.96691 0.58256 0.0
H418 H 0.34742 0.9933 0.38353 0.0
C419 C 0.32349 0.98608 0.45475 0.0
C420 C 0.46139 0.2861 0.1825 0.0
C421 C 0.45048 0.30438 0.15884 0.0
C422 C 0.43039 0.30499 0.18512 0.0
C423 C 0.43422 0.27271 0.26329 0.0
C424 C 0.45251 0.26994 0.23412 0.0
C425 C 0.46008 0.24794 0.26409 0.0
H426 H 0.45365 0.16319 0.51574 0.0
C427 C 0.42992 0.25515 0.31847 0.0
C428 C 0.44424 0.23954 0.31844 0.0
H429 H 0.49495 0.17092 0.35721 0.0
H430 H 0.47855 0.20325 0.30778 0.0
H431 H 0.45869 0.20729 0.53959 0.0
H432 H 0.40912 0.17008 0.43835 0.0
H433 H 0.3969 0.18717 0.48201 0.0
H434 H 0.41298 0.16715 0.51995 0.0
H435 H 0.43191 0.1997 0.57058 0.0
H436 H 0.44244 0.22869 0.52819 0.0
C437 C 0.48383 0.25544 0.28502 0.0
C438 C 0.45707 0.2298 0.21785 0.0
C439 C 0.39925 0.27926 0.50314 0.0
C440 C 0.39831 0.26886 0.56503 0.0
C441 C 0.39719 0.24419 0.5784 0.0
C442 C 0.4007 0.23111 0.53208 0.0
C443 C 0.4058 0.24297 0.47253 0.0
C444 C 0.40321 0.26605 0.45756 0.0
C445 C 0.40832 0.27533 0.39097 0.0
C446 C 0.41736 0.25496 0.37135 0.0
C447 C 0.41642 0.2365 0.42014 0.0
C448 C 0.42574 0.29878 0.3864 0.0
C449 C 0.38681 0.27852 0.3581 0.0
C450 C 0.4591 0.17178 0.4702 0.0
C451 C 0.47568 0.16481 0.44052 0.0
C452 C 0.4822 0.17615 0.38096 0.0
C453 C 0.4727 0.19487 0.35255 0.0
C454 C 0.45646 0.20211 0.38399 0.0
C455 C 0.44983 0.19025 0.44156 0.0
C456 C 0.43263 0.19992 0.46948 0.0
C457 C 0.42966 0.21955 0.41897 0.0
C458 C 0.44371 0.22103 0.3688 0.0
C459 C 0.4417 0.20936 0.52995 0.0
C460 C 0.41177 0.18007 0.47845 0.0
H461 H 0.40663 0.28981 0.25447 0.0
H462 H 0.47633 0.28452 0.16142 0.0
H463 H 0.44179 0.22999 0.19145 0.0
H464 H 0.45543 0.21133 0.24046 0.0
H465 H 0.47082 0.23404 0.1845 0.0
H466 H 0.48548 0.27057 0.31194 0.0
H467 H 0.49503 0.26118 0.24486 0.0
H468 H 0.48945 0.24105 0.31479 0.0
H469 H 0.39952 0.29801 0.49114 0.0
H470 H 0.39555 0.2355 0.62538 0.0
H471 H 0.40071 0.21265 0.54497 0.0
H472 H 0.44032 0.29609 0.41375 0.0
H473 H 0.41925 0.31306 0.40352 0.0
H474 H 0.43119 0.30565 0.33882 0.0
H475 H 0.37288 0.27569 0.39056 0.0
H476 H 0.38195 0.26563 0.32487 0.0
H477 H 0.3882 0.29682 0.33351 0.0
H478 H 0.4214 0.3184 0.167 0.0
C479 C 0.42209 0.28899 0.23659 0.0
Nd480 Nd 0.00471 1.00183 0.77407 0.0
Nd481 Nd 0.02459 0.01384 0.89329 0.0
C482 C 0.98128 0.98645 0.68142 0.0
C483 C 0.97853 0.96346 0.65626 0.0
C484 C 0.96984 0.94168 0.69257 0.0
C485 C 0.96857 0.92005 0.66994 0.0
C486 C 0.97614 0.91946 0.61053 0.0
C487 C 0.98472 0.9413 0.57417 0.0
C488 C 0.98583 0.96298 0.59668 0.0
C489 C 0.04815 1.00007 0.78078 0.0
C490 C 0.01429 0.95966 0.87494 0.0
C491 C 0.0462 0.03512 0.98244 0.0
C492 C 0.04891 0.05905 1.00159 0.0
C493 C 0.06678 0.06782 0.03717 0.0
C494 C 0.06888 0.09 0.05777 0.0
C495 C 0.05319 0.10397 0.04284 0.0
C496 C 0.03548 0.09525 0.00627 0.0
C497 C 0.03331 0.073 0.9862 0.0
C498 C 0.98017 0.99833 0.89848 0.0
C499 C 0.01546 0.05727 0.7905 0.0
O500 O 0.97302 0.98561 0.73608 0.0
O501 O 0.00049 1.00069 0.67381 0.0
O502 O 0.0333 0.9849 0.75736 0.0
O503 O 0.03993 0.01581 0.80004 0.0
O504 O 1.00003 0.9663 0.83537 0.0
O505 O 0.02894 0.97533 0.89995 0.0
O506 O 0.05529 0.03377 0.93055 0.0
O507 O 0.02669 0.02178 0.98906 0.0
O508 O 0.99335 0.99118 0.93949 0.0
O509 O 0.99052 0.01299 0.85588 0.0
O510 O 0.01978 0.05013 0.84795 0.0
O511 O 0.00982 0.04223 0.75037 0.0
H512 H 0.96417 0.94124 0.73891 0.0
H513 H 0.96149 0.90376 0.6991 0.0
H514 H 0.99103 0.9417 0.52858 0.0
H515 H 0.99278 0.97941 0.56779 0.0
H516 H 0.07901 0.05739 0.04966 0.0
H517 H 0.08283 0.09626 0.08534 0.0
H518 H 0.02295 0.10534 0.99458 0.0
H519 H 0.0192 0.06648 0.95954 0.0
Nd520 Nd 0.52653 0.99314 0.80597 0.0
Nd521 Nd 0.50421 0.02642 0.86417 0.0
C522 C 0.54545 0.96099 0.76832 0.0
C523 C 0.56517 0.96261 0.73136 0.0
C524 C 0.5784 0.94593 0.7453 0.0
C525 C 0.59762 0.94799 0.71195 0.0
C526 C 0.60399 0.96682 0.664 0.0
C527 C 0.59055 0.98341 0.65016 0.0
C528 C 0.57147 0.98141 0.68365 0.0
C529 C 0.5188 0.03145 0.72589 0.0
C530 C 0.55654 0.04114 0.83961 0.0
C531 C 0.48532 0.0582 0.90393 0.0
C532 C 0.46652 0.05653 0.94482 0.0
C533 C 0.45031 0.06937 0.92677 0.0
C534 C 0.43196 0.06705 0.96407 0.0
C535 C 0.42948 0.05183 0.02025 0.0
C536 C 0.44594 0.03924 0.03836 0.0
C537 C 0.46413 0.04143 1.00099 0.0
C538 C 0.5119 0.98798 0.94391 0.0
C539 C 0.47419 0.97888 0.82863 0.0
O540 O 0.54879 0.96788 0.82245 0.0
O541 O 0.52918 0.96845 0.73963 0.0
O542 O 0.53616 0.02285 0.72419 0.0
O543 O 0.50585 0.0193 0.76684 0.0
O544 O 0.55612 0.01867 0.83555 0.0
O545 O 0.5386 0.04943 0.842 0.0
O546 O 0.48082 0.05055 0.85103 0.0
O547 O 0.5026 0.05183 0.92935 0.0
O548 O 0.49445 0.99645 0.94536 0.0
O549 O 0.52489 1.00032 0.90331 0.0
O550 O 0.47488 1.00154 0.83077 0.0
O551 O 0.49207 0.9703 0.82911 0.0
H552 H 0.57395 0.93143 0.78239 0.0
H553 H 0.60765 0.93503 0.72433 0.0
H554 H 0.59464 0.99788 0.61289 0.0
H555 H 0.56165 0.99464 0.67225 0.0
H556 H 0.45173 0.08099 0.88343 0.0
H557 H 0.41956 0.07686 0.94837 0.0
H558 H 0.44488 0.02774 0.0818 0.0
H559 H 0.47628 0.03117 0.01608 0.0
Nd560 Nd 0.50977 0.51776 0.87518 0.0
Nd561 Nd 0.52589 0.49802 0.7749 0.0
C562 C 0.49639 0.54697 0.93894 0.0
C563 C 0.50985 0.57039 0.94529 0.0
C564 C 0.50108 0.58873 0.96297 0.0
C565 C 0.51444 0.61128 0.96429 0.0
C566 C 0.53658 0.61569 0.94713 0.0
C567 C 0.54511 0.59722 0.92915 0.0
C568 C 0.53191 0.57484 0.92837 0.0
C569 C 0.55057 0.50869 0.8976 0.0
C570 C 0.53615 0.55418 0.75928 0.0
C571 C 0.54018 0.47066 0.70625 0.0
C572 C 0.52968 0.44638 0.69475 0.0
C573 C 0.52777 0.42703 0.7419 0.0
C574 C 0.51324 0.40564 0.73649 0.0
C575 C 0.50057 0.40311 0.68365 0.0
C576 C 0.50384 0.42172 0.63446 0.0
C577 C 0.5183 0.44314 0.63991 0.0
C578 C 0.48521 0.50776 0.75408 0.0
C579 C 0.49945 0.46161 0.89166 0.0
O580 O 0.48978 0.54452 0.88304 0.0
O581 O 0.50438 0.529 0.96486 0.0
O582 O 0.5355 0.5054 0.93884 0.0
O583 O 0.54455 0.51784 0.84645 0.0
O584 O 0.52091 0.55045 0.80181 0.0
O585 O 0.54415 0.53632 0.7453 0.0
O586 O 0.54713 0.47301 0.76195 0.0
O587 O 0.53 0.48735 0.68379 0.0
O588 O 0.50046 0.51228 0.71296 0.0
O589 O 0.49128 0.49777 0.80403 0.0
O590 O 0.5143 0.46506 0.84786 0.0
O591 O 0.49169 0.4796 0.90592 0.0
H592 H 0.48402 0.58567 0.97526 0.0
H593 H 0.50748 0.6253 0.97823 0.0
H594 H 0.56213 0.59994 0.9167 0.0
H595 H 0.53895 0.56093 0.914 0.0
H596 H 0.5366 0.42876 0.78438 0.0
H597 H 0.51141 0.39132 0.77435 0.0
H598 H 0.49432 0.42024 0.59303 0.0
H599 H 0.51955 0.45767 0.60267 0.0
Nd600 Nd 0.00101 0.52664 0.7954 0.0
Nd601 Nd 0.02853 0.49003 0.88142 0.0
C602 C 0.97078 0.55106 0.76395 0.0
C603 C 0.95002 0.5432 0.73326 0.0
C604 C 0.93422 0.55715 0.72586 0.0
C605 C 0.91446 0.54898 0.69709 0.0
C606 C 0.91023 0.5267 0.67558 0.0
C607 C 0.92614 0.51277 0.68407 0.0
C608 C 0.94575 0.52091 0.71265 0.0
C609 C 0.0145 0.49448 0.73024 0.0
C610 C 0.97687 0.47152 0.85507 0.0
C611 C 0.05738 0.46399 0.91553 0.0
C612 C 0.07705 0.46885 0.9531 0.0
C613 C 0.09386 0.45658 0.94949 0.0
C614 C 0.11292 0.46216 0.98354 0.0
C615 C 0.11534 0.48003 0.02185 0.0
C616 C 0.09846 0.49233 0.02486 0.0
C617 C 0.07956 0.48687 0.99066 0.0
C618 C 0.01508 0.52218 0.94669 0.0
C619 C 0.05287 0.54485 0.81766 0.0
O620 O 0.97221 0.53993 0.81947 0.0
O621 O 0.98835 0.55319 0.7305 0.0
O622 O 0.0049 0.51113 0.7047 0.0
O623 O 0.01624 0.49622 0.78643 0.0
O624 O 0.9755 0.4932 0.82978 0.0
O625 O 0.99517 0.46515 0.87469 0.0
O626 O 0.05827 0.47741 0.86218 0.0
O627 O 0.03877 0.46134 0.94457 0.0
O628 O 0.02479 0.50562 0.97214 0.0
O629 O 0.01303 0.52021 0.8907 0.0
O630 O 0.05417 0.52331 0.84479 0.0
O631 O 0.03452 0.55126 0.79843 0.0
H632 H 0.93717 0.5743 0.74216 0.0
H633 H 0.9025 0.56008 0.69175 0.0
H634 H 0.92374 0.49576 0.66717 0.0
H635 H 0.95772 0.50981 0.71823 0.0
H636 H 0.09229 0.44281 0.92015 0.0
H637 H 0.12566 0.45237 0.98043 0.0
H638 H 0.09999 0.50648 0.05301 0.0
H639 H 0.06696 0.49689 0.99315 0.0
C640 C 0.16976 0.99089 0.71761 0.0
C641 C 0.18069 0.00872 0.67238 0.0
C642 C 0.1492 0.99158 0.73998 0.0
C643 C 0.13876 0.01007 0.71518 0.0
C644 C 0.14971 0.02836 0.67036 0.0
C645 C 0.17062 0.02763 0.65009 0.0
C646 C 0.13826 0.97189 0.7885 0.0
C647 C 0.13896 0.04813 0.64183 0.0
C648 C 0.07716 0.99214 0.71666 0.0
C649 C 0.07141 1.00317 0.7648 0.0
C650 C 0.09893 0.99498 0.69893 0.0
C651 C 0.11554 0.00865 0.73128 0.0
C652 C 0.10989 0.01981 0.7802 0.0
C653 C 0.0878 0.01719 0.7959 0.0
C654 C 0.10413 0.98319 0.64566 0.0
C655 C 0.12717 0.03401 0.81675 0.0
H656 H 0.17688 0.97582 0.7345 0.0
H657 H 0.17893 0.04179 0.61614 0.0
H658 H 0.13159 0.97939 0.82581 0.0
H659 H 0.12442 0.96034 0.76805 0.0
H660 H 0.14961 0.96066 0.80879 0.0
H661 H 0.15018 0.06193 0.61092 0.0
H662 H 0.12465 0.04065 0.61492 0.0
H663 H 0.1329 0.05673 0.67794 0.0
H664 H 0.06455 0.98146 0.69199 0.0
H665 H 0.08337 0.02571 0.83313 0.0
H666 H 0.11363 0.96948 0.66192 0.0
H667 H 0.11432 0.99649 0.61122 0.0
H668 H 0.08924 0.97456 0.62271 0.0
H669 H 0.13769 0.02231 0.83962 0.0
H670 H 0.1201 0.0421 0.85227 0.0
H671 H 0.13778 0.04836 0.78588 0.0
C672 C 0.48407 0.12403 0.45403 0.0
C673 C 0.48617 0.14625 0.47409 0.0
C674 C 0.49046 0.10502 0.49171 0.0
C675 C 0.49936 0.10848 0.55039 0.0
C676 C 0.50252 0.1313 0.56921 0.0
C677 C 0.49574 0.14982 0.53106 0.0
C678 C 0.48669 0.08096 0.47007 0.0
C679 C 0.5122 0.13594 0.63086 0.0
C680 C 0.49308 0.05648 0.67954 0.0
C681 C 0.51373 0.05091 0.68061 0.0
C682 C 0.48806 0.0748 0.63651 0.0
C683 C 0.50416 0.08806 0.59382 0.0
C684 C 0.52505 0.08244 0.59471 0.0
C685 C 0.52956 0.06389 0.63796 0.0
C686 C 0.46557 0.08013 0.63712 0.0
C687 C 0.54274 0.09627 0.5506 0.0
H688 H 0.4764 0.1212 0.41033 0.0
H689 H 0.4973 0.16702 0.5466 0.0
H690 H 0.50181 0.07388 0.4744 0.0
H691 H 0.47411 0.06826 0.49944 0.0
H692 H 0.48122 0.08159 0.42166 0.0
H693 H 0.51521 0.15507 0.63645 0.0
H694 H 0.50096 0.1257 0.66792 0.0
H695 H 0.52779 0.12983 0.637 0.0
H696 H 0.48077 0.04645 0.71232 0.0
H697 H 0.54558 0.05969 0.63872 0.0
H698 H 0.4581 0.0792 0.59116 0.0
H699 H 0.46665 0.09847 0.64771 0.0
H700 H 0.45464 0.06757 0.6715 0.0
H701 H 0.53707 0.09568 0.50266 0.0
H702 H 0.55793 0.08929 0.55606 0.0
H703 H 0.54656 0.11522 0.55794 0.0
C704 C 0.37323 0.55147 0.69579 0.0
C705 C 0.35794 0.53545 0.66643 0.0
C706 C 0.39357 0.54652 0.71345 0.0
C707 C 0.39878 0.52499 0.70159 0.0
C708 C 0.38326 0.50853 0.67306 0.0
C709 C 0.36306 0.51399 0.65566 0.0
C710 C 0.40972 0.56462 0.74331 0.0
C711 C 0.38816 0.48533 0.65993 0.0
C712 C 0.45848 0.52372 0.68432 0.0
C713 C 0.46307 0.51202 0.74159 0.0
C714 C 0.43764 0.52803 0.67085 0.0
C715 C 0.42092 0.52037 0.71571 0.0
C716 C 0.42545 0.50853 0.77374 0.0
C717 C 0.44654 0.50456 0.7861 0.0
C718 C 0.43355 0.54086 0.60859 0.0
C719 C 0.40802 0.50008 0.82266 0.0
H720 H 0.36949 0.56822 0.70359 0.0
H721 H 0.35121 0.5014 0.63372 0.0
H722 H 0.41534 0.55621 0.78736 0.0
H723 H 0.42426 0.57148 0.71325 0.0
H724 H 0.40275 0.57991 0.75226 0.0
H725 H 0.37396 0.47391 0.64041 0.0
H726 H 0.40197 0.48892 0.62701 0.0
H727 H 0.39315 0.47535 0.70263 0.0
H728 H 0.47125 0.52961 0.64986 0.0
H729 H 0.45006 0.49554 0.83046 0.0
H730 H 0.42789 0.55733 0.61391 0.0
H731 H 0.42047 0.52949 0.58492 0.0
H732 H 0.44833 0.54571 0.57892 0.0
H733 H 0.40171 0.51538 0.83439 0.0
H734 H 0.41412 0.49097 0.86515 0.0
H735 H 0.39412 0.48762 0.8052 0.0
C736 C 0.07325 0.41477 0.54858 0.0
C737 C 0.05937 0.39341 0.53802 0.0
C738 C 0.06562 0.43172 0.57707 0.0
C739 C 0.04355 0.42719 0.5959 0.0
C740 C 0.0292 0.40616 0.58259 0.0
C741 C 0.03727 0.38954 0.55358 0.0
C742 C 0.08144 0.45399 0.58943 0.0
C743 C 0.00555 0.40067 0.60168 0.0
C744 C 0.03039 0.45829 0.72812 0.0
C745 C 0.02222 0.47725 0.6969 0.0
C746 C 0.03719 0.44173 0.69591 0.0
C747 C 0.03575 0.44418 0.63096 0.0
C748 C 0.02741 0.46328 0.59942 0.0
C749 C 0.02073 0.47952 0.63274 0.0
C750 C 0.04595 0.4216 0.73137 0.0
C751 C 0.02568 0.46668 0.53038 0.0
H752 H 0.09036 0.41779 0.53667 0.0
H753 H 0.02658 0.3729 0.54635 0.0
H754 H 0.07503 0.46997 0.57123 0.0
H755 H 0.08344 0.45397 0.63964 0.0
H756 H 0.09771 0.45556 0.56855 0.0
H757 H 0.99621 0.38443 0.58444 0.0
H758 H 0.0043 0.39803 0.65247 0.0
H759 H 0.99786 0.41583 0.58451 0.0
H760 H 0.03127 0.45629 0.77771 0.0
H761 H 0.01433 0.4941 0.60834 0.0
H762 H 0.06291 0.42254 0.71656 0.0
H763 H 0.03612 0.4043 0.72157 0.0
H764 H 0.04579 0.42201 0.78167 0.0
H765 H 0.04205 0.46923 0.50938 0.0
H766 H 0.01852 0.48223 0.51282 0.0
H767 H 0.01547 0.45055 0.51493 0.0
C768 C 0.86876 1.00724 0.04173 0.0
C769 C 0.85011 0.99809 0.00964 0.0
C770 C 0.88948 1.00525 0.02322 0.0
C771 C 0.89151 0.99342 0.97213 0.0
C772 C 0.87257 0.98299 0.94177 0.0
C773 C 0.8521 0.9857 0.96045 0.0
C774 C 0.90927 0.01686 0.05643 0.0
C775 C 0.87397 0.9697 0.88822 0.0
C776 C 0.94527 0.01252 0.88452 0.0
C777 C 0.95672 0.99552 0.91131 0.0
C778 C 0.92384 0.01176 0.90308 0.0
C779 C 0.91352 0.99325 0.94846 0.0
C780 C 0.92467 0.97532 0.97315 0.0
C781 C 0.94625 0.97683 0.95476 0.0
C782 C 0.91261 0.03136 0.87607 0.0
C783 C 0.91407 0.95495 0.02031 0.0
H784 H 0.86723 0.01706 0.0793 0.0
H785 H 0.83764 0.97855 0.93577 0.0
H786 H 0.91944 1.00375 0.07217 0.0
H787 H 0.9194 0.03129 0.02455 0.0
H788 H 0.90488 0.02452 0.09675 0.0
H789 H 0.85768 0.96054 0.87384 0.0
H790 H 0.88186 0.98228 0.8486 0.0
H791 H 0.88418 0.9563 0.90011 0.0
H792 H 0.95338 0.02703 0.85109 0.0
H793 H 0.95507 0.96357 0.9752 0.0
H794 H 0.90909 0.04134 0.91285 0.0
H795 H 0.8968 0.02371 0.85593 0.0
H796 H 0.92261 0.04406 0.83999 0.0
H797 H 0.91156 0.96175 0.06369 0.0
H798 H 0.92408 0.94123 0.03019 0.0
H799 H 0.89782 0.94642 1.00435 0.0
C800 C 0.53449 0.86877 0.13526 0.0
C801 C 0.54406 0.87205 0.19239 0.0
C802 C 0.52772 0.88744 0.09773 0.0
C803 C 0.53085 0.91011 0.1174 0.0
C804 C 0.53965 0.91325 0.17634 0.0
C805 C 0.54609 0.8941 0.21334 0.0
C806 C 0.51816 0.88316 0.03574 0.0
C807 C 0.54334 0.93713 0.19894 0.0
C808 C 0.53751 0.96275 0.98993 0.0
C809 C 0.51685 0.96832 0.98869 0.0
C810 C 0.54239 0.94421 0.03246 0.0
C811 C 0.52617 0.93075 0.07452 0.0
C812 C 0.50528 0.93636 0.07345 0.0
C813 C 0.50089 0.95511 0.03067 0.0
C814 C 0.56488 0.93886 0.03198 0.0
C815 C 0.48745 0.92232 0.11688 0.0
H816 H 0.53301 0.85171 0.11901 0.0
H817 H 0.55377 0.89671 0.25714 0.0
H818 H 0.50261 0.88934 0.02958 0.0
H819 H 0.5295 0.89352 0.99907 0.0
H820 H 0.51511 0.86408 0.0295 0.0
H821 H 0.54862 0.9362 0.24753 0.0
H822 H 0.55603 0.94996 0.17024 0.0
H823 H 0.52823 0.94425 0.1945 0.0
H824 H 0.54992 0.97295 0.95767 0.0
H825 H 0.48486 0.95931 0.02976 0.0
H826 H 0.56381 0.9206 0.02083 0.0
H827 H 0.57224 0.93956 0.07814 0.0
H828 H 0.5759 0.95154 0.99806 0.0
H829 H 0.48363 0.90346 0.10874 0.0
H830 H 0.4723 0.92937 0.11146 0.0
H831 H 0.49299 0.9226 0.16501 0.0
C832 C 0.67503 0.50547 0.98721 0.0
C833 C 0.67458 0.48471 0.02835 0.0
C834 C 0.6557 0.51085 0.96145 0.0
C835 C 0.63562 0.49474 0.97618 0.0
C836 C 0.63528 0.47342 0.01659 0.0
C837 C 0.65477 0.46881 0.04281 0.0
C838 C 0.65668 0.53401 0.91986 0.0
C839 C 0.6143 0.45555 0.03255 0.0
C840 C 0.58171 0.51446 0.96903 0.0
C841 C 0.57324 0.50754 0.91344 0.0
C842 C 0.60252 0.51158 0.98825 0.0
C843 C 0.61478 0.50061 0.95215 0.0
C844 C 0.60643 0.49399 0.89526 0.0
C845 C 0.58586 0.49799 0.87598 0.0
C846 C 0.6111 0.51967 0.04808 0.0
C847 C 0.6187 0.48162 0.85634 0.0
H848 H 0.69048 0.51768 0.97624 0.0
H849 H 0.65459 0.45267 0.07432 0.0
H850 H 0.64925 0.53062 0.87495 0.0
H851 H 0.64711 0.54505 0.94042 0.0
H852 H 0.67363 0.54433 0.91188 0.0
H853 H 0.61705 0.4391 0.06097 0.0
H854 H 0.60333 0.46351 0.0582 0.0
H855 H 0.60574 0.45068 0.99006 0.0
H856 H 0.57196 0.52206 0.99772 0.0
H857 H 0.5792 0.49256 0.83316 0.0
H858 H 0.62781 0.53072 0.04154 0.0
H859 H 0.61205 0.50399 0.08225 0.0
H860 H 0.6006 0.53014 0.06723 0.0
H861 H 0.63546 0.49214 0.84685 0.0
H862 H 0.6105 0.4787 0.81201 0.0
H863 H 0.62013 0.46411 0.88168 0.0
C864 C 0.99279 0.62797 0.12092 0.0
C865 C 0.97059 0.62449 0.13485 0.0
C866 C 0.00091 0.61103 0.09333 0.0
C867 C 0.98649 0.5901 0.07972 0.0
C868 C 0.9643 0.58593 0.09715 0.0
C869 C 0.95664 0.60316 0.12435 0.0
C870 C 0.0247 0.61613 0.07582 0.0
C871 C 0.94838 0.56378 0.08433 0.0
C872 C 0.99997 0.55888 0.94824 0.0
C873 C 0.00759 0.5396 0.97982 0.0
C874 C 0.99326 0.57558 0.98013 0.0
C875 C 0.99429 0.57298 0.04514 0.0
C876 C 0.00215 0.55361 0.07707 0.0
C877 C 0.00872 0.53721 0.04405 0.0
C878 C 0.98502 0.59598 0.94423 0.0
C879 C 0.00346 0.55009 0.14619 0.0
H880 H 0.00355 0.64457 0.12817 0.0
H881 H 0.93945 0.60042 0.1351 0.0
H882 H 0.03202 0.60072 0.09329 0.0
H883 H 0.02636 0.61893 0.02511 0.0
H884 H 0.03409 0.63216 0.09386 0.0
H885 H 0.93203 0.56243 0.10446 0.0
H886 H 0.94664 0.56382 0.03405 0.0
H887 H 0.95454 0.54769 0.10296 0.0
H888 H 0.99949 0.56105 0.89862 0.0
H889 H 0.01471 0.5224 0.06871 0.0
H890 H 0.995 0.61314 0.95455 0.0
H891 H 0.96802 0.59534 0.95818 0.0
H892 H 0.98546 0.59564 0.89395 0.0
H893 H 0.01369 0.56611 0.16215 0.0
H894 H 0.01038 0.5344 0.16407 0.0
H895 H 0.98699 0.5477 0.16639 0.0
C896 C 0.05885 0.19697 0.6836 0.0
C897 C 0.08154 0.19926 0.68202 0.0
C898 C 0.04511 0.17513 0.70446 0.0
C899 C 0.05431 0.15524 0.72456 0.0
C900 C 0.07724 0.15784 0.72715 0.0
C901 C 0.09062 0.17985 0.7053 0.0
C902 C 0.02075 0.17304 0.70167 0.0
C903 C 0.0876 0.1371 0.75024 0.0
C904 C 0.02283 0.09874 0.81474 0.0
C905 C 0.0201 0.08315 0.77048 0.0
C906 C 0.03283 0.12272 0.79984 0.0
C907 C 0.04012 0.13131 0.73906 0.0
C908 C 0.03551 0.11623 0.69292 0.0
C909 C 0.02553 0.09223 0.70923 0.0
C910 C 0.03716 0.13812 0.85052 0.0
C911 C 0.04255 0.125 0.62716 0.0
H912 H 0.05173 0.21186 0.66473 0.0
H913 H 0.10814 0.18166 0.70428 0.0
H914 H 0.01385 0.16162 0.66658 0.0
H915 H 0.01309 0.16441 0.74631 0.0
H916 H 0.01624 0.19061 0.6899 0.0
H917 H 0.10558 0.1425 0.75351 0.0
H918 H 0.08091 0.1287 0.79616 0.0
H919 H 0.08368 0.12343 0.71884 0.0
H920 H 0.01826 0.09194 0.862 0.0
H921 H 0.02339 0.0803 0.67478 0.0
H922 H 0.03666 0.15692 0.83383 0.0
H923 H 0.05363 0.13766 0.86926 0.0
H924 H 0.02516 0.1315 0.88856 0.0
H925 H 0.03754 0.14203 0.6112 0.0
H926 H 0.03561 0.11192 0.59586 0.0
H927 H 0.06057 0.12842 0.62387 0.0
C928 C 0.35002 0.938 0.85191 0.0
C929 C 0.34154 0.92419 0.80612 0.0
C930 C 0.37183 0.93993 0.86971 0.0
C931 C 0.38528 0.92805 0.84023 0.0
C932 C 0.37572 0.91085 0.80261 0.0
C933 C 0.35379 0.90897 0.78632 0.0
C934 C 0.3812 0.95751 0.91272 0.0
C935 C 0.3893 0.8972 0.77184 0.0
C936 C 0.43746 0.97049 0.78498 0.0
C937 C 0.45266 0.96324 0.82647 0.0
C938 C 0.41575 0.95829 0.78737 0.0
C939 C 0.40894 0.93868 0.83373 0.0
C940 C 0.42446 0.93071 0.87454 0.0
C941 C 0.44632 0.94307 0.87009 0.0
C942 C 0.39995 0.96714 0.74175 0.0
C943 C 0.41791 0.91021 0.92516 0.0
H944 H 0.34058 0.94955 0.86831 0.0
H945 H 0.34702 0.89767 0.75232 0.0
H946 H 0.39367 0.95093 0.94275 0.0
H947 H 0.38919 0.97458 0.88552 0.0
H948 H 0.36834 0.96104 0.94184 0.0
H949 H 0.37912 0.88093 0.75679 0.0
H950 H 0.39742 0.90866 0.73073 0.0
H951 H 0.40216 0.89207 0.80289 0.0
H952 H 0.44252 0.98615 0.75139 0.0
H953 H 0.45813 0.93779 0.90283 0.0
H954 H 0.38799 0.97428 0.76598 0.0
H955 H 0.39074 0.95232 0.7187 0.0
H956 H 0.40825 0.98142 0.70598 0.0
H957 H 0.41202 0.91688 0.96513 0.0
H958 H 0.43193 0.90201 0.94035 0.0
H959 H 0.40454 0.89631 0.91083 0.0
C960 C 0.39856 0.30659 0.6086 0.0
C961 C 0.40477 0.28459 0.61304 0.0
C962 C 0.41123 0.32543 0.63538 0.0
C963 C 0.43037 0.32198 0.66718 0.0
C964 C 0.43456 0.29885 0.68033 0.0
C965 C 0.42167 0.28035 0.65307 0.0
C966 C 0.40567 0.34967 0.62301 0.0
C967 C 0.4544 0.29427 0.71588 0.0
C968 C 0.4803 0.37077 0.62786 0.0
C969 C 0.48308 0.38175 0.68098 0.0
C970 C 0.46316 0.35135 0.62321 0.0
C971 C 0.4483 0.34277 0.67287 0.0
C972 C 0.451 0.35377 0.7268 0.0
C973 C 0.46852 0.37304 0.73041 0.0
C974 C 0.46099 0.34002 0.56492 0.0
C975 C 0.43567 0.34523 0.78092 0.0
H976 H 0.3851 0.30978 0.5793 0.0
H977 H 0.42658 0.2634 0.65749 0.0
H978 H 0.40875 0.35897 0.6641 0.0
H979 H 0.41617 0.36059 0.58519 0.0
H980 H 0.3884 0.34851 0.60931 0.0
H981 H 0.45317 0.27501 0.73175 0.0
H982 H 0.46904 0.30077 0.68603 0.0
H983 H 0.45678 0.30399 0.75625 0.0
H984 H 0.49166 0.37734 0.5899 0.0
H985 H 0.47052 0.38165 0.77144 0.0
H986 H 0.44496 0.34089 0.54358 0.0
H987 H 0.46175 0.32097 0.57555 0.0
H988 H 0.47396 0.34883 0.53082 0.0
H989 H 0.41871 0.33884 0.76615 0.0
H990 H 0.43586 0.35948 0.8099 0.0
H991 H 0.44088 0.3302 0.80977 0.0
C992 C 0.17117 0.57086 0.72262 0.0
C993 C 0.18205 0.59373 0.69831 0.0
C994 C 0.15038 0.56697 0.74865 0.0
C995 C 0.14058 0.5866 0.75226 0.0
C996 C 0.15236 0.60999 0.73261 0.0
C997 C 0.17283 0.61326 0.70428 0.0
C998 C 0.13827 0.54167 0.76772 0.0
C999 C 0.14295 0.63143 0.73854 0.0
C1000 C 0.07938 0.56916 0.74095 0.0
C1001 C 0.07365 0.5615 0.80253 0.0
C1002 C 0.1011 0.57905 0.7239 0.0
C1003 C 0.11721 0.58206 0.76995 0.0
C1004 C 0.11096 0.57672 0.83256 0.0
C1005 C 0.08928 0.56587 0.84814 0.0
C1006 C 0.10709 0.58388 0.65658 0.0
C1007 C 0.12739 0.58076 0.88303 0.0
H1008 H 0.17827 0.55579 0.71699 0.0
H1009 H 0.1813 0.63094 0.68507 0.0
H1010 H 0.13288 0.53921 0.81621 0.0
H1011 H 0.12348 0.53777 0.73931 0.0
H1012 H 0.14838 0.52848 0.76261 0.0
H1013 H 0.1558 0.64795 0.73515 0.0
H1014 H 0.13111 0.63369 0.70125 0.0
H1015 H 0.13416 0.62913 0.78288 0.0
H1016 H 0.06724 0.5654 0.70587 0.0
H1017 H 0.08473 0.55985 0.89586 0.0
H1018 H 0.11678 0.571 0.64589 0.0
H1019 H 0.11732 0.60195 0.64505 0.0
H1020 H 0.09252 0.58228 0.62672 0.0
H1021 H 0.13618 0.56594 0.8902 0.0
H1022 H 0.11941 0.58151 0.92706 0.0
H1023 H 0.13961 0.59753 0.87068 0.0
C1024 C 0.97273 0.81986 0.97194 0.0
C1025 C 0.95022 0.81852 0.97654 0.0
C1026 C 0.98696 0.84138 0.95106 0.0
C1027 C 0.97845 0.86202 0.9348 0.0
C1028 C 0.95564 0.86046 0.93515 0.0
C1029 C 0.94177 0.83867 0.95597 0.0
C1030 C 0.01115 0.84231 0.95017 0.0
C1031 C 0.94595 0.88209 0.91684 0.0
C1032 C 0.00887 0.92402 0.95366 0.0
C1033 C 0.01209 0.93405 0.89231 0.0
C1034 C 0.99934 0.89981 0.96872 0.0
C1035 C 0.99324 0.88563 0.92108 0.0
C1036 C 0.99874 0.89526 0.85958 0.0
C1037 C 0.00795 0.91949 0.84589 0.0
C1038 C 0.99387 0.89003 0.03497 0.0
C1039 C 0.99302 0.88069 0.80758 0.0
H1040 H 0.97946 0.80445 0.98856 0.0
H1041 H 0.92438 0.83763 0.95883 0.0
H1042 H 0.01862 0.85252 0.90674 0.0
H1043 H 0.01895 0.85159 0.98827 0.0
H1044 H 0.01486 0.82427 0.95548 0.0
H1045 H 0.92787 0.87761 0.9167 0.0
H1046 H 0.95132 0.89518 0.94924 0.0
H1047 H 0.9518 0.89086 0.87045 0.0
H1048 H 0.01187 0.93546 0.98927 0.0
H1049 H 0.01048 0.92744 0.7983 0.0
H1050 H 0.99857 0.8726 0.047 0.0
H1051 H 0.97601 0.88712 0.0421 0.0
H1052 H 0.00211 0.90232 0.06675 0.0
H1053 H 0.99575 0.86239 0.82035 0.0
H1054 H 0.00271 0.88904 0.76565 0.0
H1055 H 0.97553 0.8793 0.79652 0.0
C1056 C 0.67854 0.10371 0.90395 0.0
C1057 C 0.68873 0.08431 0.90652 0.0
C1058 C 0.65764 0.10256 0.87912 0.0
C1059 C 0.64669 0.08136 0.85768 0.0
C1060 C 0.65806 0.06304 0.85299 0.0
C1061 C 0.67906 0.06482 0.87718 0.0
C1062 C 0.64643 0.12292 0.88214 0.0
C1063 C 0.64711 0.0402 0.82981 0.0
C1064 C 0.58807 0.05522 0.90232 0.0
C1065 C 0.57785 0.05659 0.84547 0.0
C1066 C 0.61032 0.06478 0.90732 0.0
C1067 C 0.62255 0.0759 0.85385 0.0
C1068 C 0.61186 0.0788 0.79685 0.0
C1069 C 0.58953 0.06881 0.7932 0.0
C1070 C 0.621 0.06126 0.96912 0.0
C1071 C 0.62415 0.09089 0.73906 0.0
H1072 H 0.68618 0.11899 0.92571 0.0
H1073 H 0.68685 0.04976 0.87903 0.0
H1074 H 0.63615 0.12552 0.84116 0.0
H1075 H 0.63564 0.11887 0.92317 0.0
H1076 H 0.65836 0.13977 0.88566 0.0
H1077 H 0.65896 0.02927 0.82107 0.0
H1078 H 0.63509 0.02957 0.86452 0.0
H1079 H 0.63815 0.04395 0.78689 0.0
H1080 H 0.57891 0.04539 0.94232 0.0
H1081 H 0.58151 0.06944 0.74906 0.0
H1082 H 0.6306 0.07843 0.98039 0.0
H1083 H 0.6324 0.0491 0.9678 0.0
H1084 H 0.60894 0.05357 0.00654 0.0
H1085 H 0.63738 0.10589 0.74854 0.0
H1086 H 0.61314 0.09765 0.70406 0.0
H1087 H 0.63169 0.07791 0.71933 0.0
C1088 C 0.60857 0.74141 0.99819 0.0
C1089 C 0.62502 0.73648 0.0391 0.0
C1090 C 0.59622 0.72361 0.96746 0.0
C1091 C 0.60036 0.70041 0.97835 0.0
C1092 C 0.61894 0.69631 0.01211 0.0
C1093 C 0.63119 0.7145 0.04192 0.0
C1094 C 0.57706 0.72892 0.92969 0.0
C1095 C 0.62434 0.67196 0.02287 0.0
C1096 C 0.55129 0.64962 0.00444 0.0
C1097 C 0.5513 0.63893 0.9513 0.0
C1098 C 0.56697 0.66993 0.0129 0.0
C1099 C 0.58295 0.67991 0.96675 0.0
C1100 C 0.58243 0.66985 0.91165 0.0
C1101 C 0.56668 0.64933 0.90479 0.0
C1102 C 0.56686 0.68021 0.07231 0.0
C1103 C 0.5989 0.68003 0.86092 0.0
H1104 H 0.60366 0.75834 0.99507 0.0
H1105 H 0.64432 0.71081 0.07193 0.0
H1106 H 0.57532 0.71981 0.88821 0.0
H1107 H 0.56191 0.72223 0.95736 0.0
H1108 H 0.57864 0.74832 0.91532 0.0
H1109 H 0.64106 0.67259 0.04104 0.0
H1110 H 0.61262 0.66019 0.05661 0.0
H1111 H 0.62285 0.66389 0.97977 0.0
H1112 H 0.5396 0.64147 0.04071 0.0
H1113 H 0.56664 0.64115 0.86339 0.0
H1114 H 0.56579 0.69919 0.0627 0.0
H1115 H 0.58229 0.67938 0.09722 0.0
H1116 H 0.55306 0.67059 0.10289 0.0
H1117 H 0.60357 0.6997 0.85684 0.0
H1118 H 0.5926 0.67499 0.81602 0.0
H1119 H 0.61383 0.67289 0.87116 0.0
C1120 C 0.85451 0.44644 0.88763 0.0
C1121 C 0.84353 0.4247 0.919 0.0
C1122 C 0.87629 0.44963 0.86943 0.0
C1123 C 0.88708 0.43038 0.88178 0.0
C1124 C 0.87525 0.40767 0.90708 0.0
C1125 C 0.85366 0.40519 0.92667 0.0
C1126 C 0.88828 0.47421 0.84274 0.0
C1127 C 0.88582 0.38644 0.9175 0.0
C1128 C 0.94411 0.44681 0.81472 0.0
C1129 C 0.9561 0.4545 0.86516 0.0
C1130 C 0.92179 0.43661 0.82057 0.0
C1131 C 0.91123 0.43518 0.87755 0.0
C1132 C 0.92368 0.44167 0.92943 0.0
C1133 C 0.94609 0.451 0.92263 0.0
C1134 C 0.90938 0.42916 0.76462 0.0
C1135 C 0.91304 0.44098 0.99075 0.0
H1136 H 0.8467 0.46156 0.88227 0.0
H1137 H 0.84507 0.38836 0.9508 0.0
H1138 H 0.90048 0.48147 0.87616 0.0
H1139 H 0.89721 0.4735 0.80042 0.0
H1140 H 0.87715 0.48672 0.83159 0.0
H1141 H 0.87353 0.36947 0.9249 0.0
H1142 H 0.89634 0.38617 0.87784 0.0
H1143 H 0.8963 0.38753 0.95863 0.0
H1144 H 0.95192 0.44998 0.77 0.0
H1145 H 0.9554 0.45754 0.96106 0.0
H1146 H 0.90272 0.44423 0.74096 0.0
H1147 H 0.89556 0.41393 0.77712 0.0
H1148 H 0.92018 0.42418 0.73162 0.0
H1149 H 0.90213 0.45386 0.98648 0.0
H1150 H 0.92516 0.4455 0.02704 0.0
H1151 H 0.9029 0.4231 0.00566 0.0
C1152 C 0.0464 0.22037 0.19727 0.0
C1153 C 0.06729 0.23449 0.20123 0.0
C1154 C 0.04291 0.20034 0.16585 0.0
C1155 C 0.0607 0.19443 0.13731 0.0
C1156 C 0.08151 0.2097 0.13756 0.0
C1157 C 0.08457 0.22939 0.16986 0.0
C1158 C 0.02049 0.18456 0.16701 0.0
C1159 C 0.1009 0.20439 0.10712 0.0
C1160 C 0.06054 0.12925 0.1281 0.0
C1161 C 0.05497 0.1272 0.06672 0.0
C1162 C 0.06208 0.15087 0.15164 0.0
C1163 C 0.05818 0.17116 0.11285 0.0
C1164 C 0.05252 0.16922 0.05082 0.0
C1165 C 0.05088 0.14728 0.02865 0.0
C1166 C 0.06797 0.15199 0.21819 0.0
C1167 C 0.04849 0.1904 0.00765 0.0
H1168 H 0.03309 0.22402 0.22233 0.0
H1169 H 0.10077 0.24019 0.17324 0.0
H1170 H 0.01578 0.1802 0.12044 0.0
H1171 H 0.02057 0.16755 0.19696 0.0
H1172 H 0.00796 0.19295 0.18462 0.0
H1173 H 0.11523 0.21942 0.1049 0.0
H1174 H 0.10549 0.18843 0.13325 0.0
H1175 H 0.0968 0.2004 0.05991 0.0
H1176 H 0.0634 0.11379 0.15815 0.0
H1177 H 0.04675 0.14595 0.9811 0.0
H1178 H 0.0552 0.15811 0.24189 0.0
H1179 H 0.08345 0.16508 0.22157 0.0
H1180 H 0.06986 0.1345 0.24276 0.0
H1181 H 0.03537 0.19763 0.02615 0.0
H1182 H 0.04383 0.18588 0.96109 0.0
H1183 H 0.06338 0.20473 1.00366 0.0
C1184 C 0.32545 0.02658 0.24884 0.0
C1185 C 0.33492 0.02779 0.3068 0.0
C1186 C 0.33837 0.0337 0.19522 0.0
C1187 C 0.36118 0.04192 0.20022 0.0
C1188 C 0.37036 0.04503 0.25857 0.0
C1189 C 0.35709 0.03806 0.31097 0.0
C1190 C 0.32787 0.03076 0.13376 0.0
C1191 C 0.39454 0.0537 0.26638 0.0
C1192 C 0.40085 0.02665 0.09284 0.0
C1193 C 0.41 0.049 0.06044 0.0
C1194 C 0.38416 0.02396 0.13616 0.0
C1195 C 0.37601 0.04402 0.14678 0.0
C1196 C 0.38408 0.06632 0.11131 0.0
C1197 C 0.4011 0.06861 0.06889 0.0
C1198 C 0.3761 0.99981 0.17297 0.0
C1199 C 0.37551 0.08803 0.12025 0.0
H1200 H 0.3083 0.01863 0.24555 0.0
H1201 H 0.36436 0.0392 0.35589 0.0
H1202 H 0.3347 0.04612 0.09892 0.0
H1203 H 0.33124 0.01455 0.11792 0.0
H1204 H 0.30993 0.02893 0.13621 0.0
H1205 H 0.39876 0.05725 0.31395 0.0
H1206 H 0.40328 0.04006 0.25517 0.0
H1207 H 0.4006 0.07021 0.23447 0.0
H1208 H 0.40711 0.01124 0.08538 0.0
H1209 H 0.408 0.08597 0.04421 0.0
H1210 H 0.35811 0.99464 0.17068 0.0
H1211 H 0.38047 1.00055 0.22188 0.0
H1212 H 0.38317 0.98575 0.1566 0.0
H1213 H 0.35749 0.08367 0.12399 0.0
H1214 H 0.38046 0.10275 0.08206 0.0
H1215 H 0.38194 0.0944 0.16363 0.0
C1216 C 0.44725 0.33041 0.05977 0.0
C1217 C 0.46002 0.32387 0.1097 0.0
C1218 C 0.45417 0.35168 0.01981 0.0
C1219 C 0.47417 0.36702 0.03063 0.0
C1220 C 0.4877 0.35981 0.07882 0.0
C1221 C 0.48051 0.33825 0.11763 0.0
C1222 C 0.43966 0.3582 0.96757 0.0
C1223 C 0.50938 0.37538 0.09096 0.0
C1224 C 0.49867 0.41777 0.90645 0.0
C1225 C 0.49216 0.43729 0.92594 0.0
C1226 C 0.493 0.39485 0.93976 0.0
C1227 C 0.48032 0.39119 0.994 0.0
C1228 C 0.47346 0.41076 0.01359 0.0
C1229 C 0.47941 0.43352 0.97933 0.0
C1230 C 0.50037 0.37462 0.91589 0.0
C1231 C 0.45999 0.40769 0.07124 0.0
H1232 H 0.43144 0.31925 0.05329 0.0
H1233 H 0.49035 0.33335 0.15639 0.0
H1234 H 0.43355 0.37413 0.97553 0.0
H1235 H 0.44907 0.36282 0.92392 0.0
H1236 H 0.42549 0.34355 0.96233 0.0
H1237 H 0.5185 0.36672 0.12798 0.0
H1238 H 0.5195 0.37988 0.04857 0.0
H1239 H 0.5068 0.39233 0.10435 0.0
H1240 H 0.50834 0.42035 0.86506 0.0
H1241 H 0.47432 0.44843 0.99498 0.0
H1242 H 0.504 0.36128 0.95361 0.0
H1243 H 0.51511 0.38116 0.88641 0.0
H1244 H 0.48719 0.36552 0.88779 0.0
H1245 H 0.44458 0.39453 0.06746 0.0
H1246 H 0.45598 0.42464 0.08039 0.0
H1247 H 0.46894 0.40065 0.11116 0.0
C1248 C 0.21881 0.50414 0.24334 0.0
C1249 C 0.22407 0.52858 0.24721 0.0
C1250 C 0.20315 0.49491 0.20156 0.0
C1251 C 0.19261 0.51054 0.16274 0.0
C1252 C 0.19908 0.53539 0.16338 0.0
C1253 C 0.2147 0.54409 0.20569 0.0
C1254 C 0.19678 0.46833 0.20221 0.0
C1255 C 0.18843 0.55271 0.12237 0.0
C1256 C 0.15608 0.48951 0.03222 0.0
C1257 C 0.13534 0.48609 0.05869 0.0
C1258 C 0.17499 0.49696 0.06582 0.0
C1259 C 0.17306 0.50094 0.1273 0.0
C1260 C 0.15216 0.4968 0.15469 0.0
C1261 C 0.1336 0.48946 0.12007 0.0
C1262 C 0.19697 0.50125 0.03503 0.0
C1263 C 0.14935 0.50064 0.22028 0.0
H1264 H 0.22588 0.49205 0.27565 0.0
H1265 H 0.21891 0.56303 0.20813 0.0
H1266 H 0.18045 0.46162 0.22381 0.0
H1267 H 0.19568 0.46376 0.1548 0.0
H1268 H 0.20851 0.45894 0.2283 0.0
H1269 H 0.19706 0.57144 0.1231 0.0
H1270 H 0.1879 0.54879 0.07439 0.0
H1271 H 0.17137 0.55083 0.13778 0.0
H1272 H 0.1575 0.4871 0.98464 0.0
H1273 H 0.11762 0.48649 0.141 0.0
H1274 H 0.20791 0.4915 0.06336 0.0
H1275 H 0.20464 0.52045 0.03067 0.0
H1276 H 0.1958 0.49565 0.98861 0.0
H1277 H 0.15889 0.49003 0.25141 0.0
H1278 H 0.13205 0.49566 0.23548 0.0
H1279 H 0.15566 0.51963 0.22519 0.0
C1280 C 0.98362 0.80139 0.4624 0.0
C1281 C 0.96261 0.7876 0.45785 0.0
C1282 C 0.9872 0.8218 0.4924 0.0
C1283 C 0.96937 0.82845 0.51879 0.0
C1284 C 0.9484 0.81356 0.51793 0.0
C1285 C 0.94527 0.79346 0.48719 0.0
C1286 C 0.00981 0.83713 0.49206 0.0
C1287 C 0.92895 0.81967 0.54609 0.0
C1288 C 0.97852 0.87607 0.62585 0.0
C1289 C 0.97504 0.89622 0.58673 0.0
C1290 C 0.97703 0.85402 0.60446 0.0
C1291 C 0.97212 0.85195 0.54212 0.0
C1292 C 0.96893 0.87226 0.50213 0.0
C1293 C 0.97031 0.89401 0.52487 0.0
C1294 C 0.98045 0.83287 0.64881 0.0
C1295 C 0.96368 0.87093 0.43527 0.0
H1296 H 0.99699 0.79716 0.43891 0.0
H1297 H 0.92898 0.78291 0.48339 0.0
H1298 H 0.01027 0.85399 0.46094 0.0
H1299 H 0.01419 0.84183 0.53851 0.0
H1300 H 0.02227 0.8282 0.47631 0.0
H1301 H 0.91432 0.80502 0.54756 0.0
H1302 H 0.93266 0.82376 0.59341 0.0
H1303 H 0.92504 0.8358 0.51891 0.0
H1304 H 0.98252 0.87749 0.6734 0.0
H1305 H 0.96723 0.90921 0.4942 0.0
H1306 H 0.99369 0.82537 0.63192 0.0
H1307 H 0.96545 0.81869 0.65196 0.0
H1308 H 0.98464 0.8375 0.69552 0.0
H1309 H 0.97631 0.86398 0.41332 0.0
H1310 H 0.96265 0.88851 0.40953 0.0
H1311 H 0.94791 0.8584 0.43115 0.0
C1312 C 0.7138 0.98599 0.45878 0.0
C1313 C 0.70657 0.98976 0.39821 0.0
C1314 C 0.69885 0.97984 0.50821 0.0
C1315 C 0.67626 0.97759 0.49657 0.0
C1316 C 0.66892 0.9802 0.4353 0.0
C1317 C 0.6841 0.986 0.3871 0.0
C1318 C 0.70726 0.97669 0.57286 0.0
C1319 C 0.64503 0.97798 0.42052 0.0
C1320 C 0.63033 0.94907 0.60995 0.0
C1321 C 0.6243 0.96916 0.62762 0.0
C1322 C 0.64822 0.9514 0.57056 0.0
C1323 C 0.66021 0.97435 0.54761 0.0
C1324 C 0.65489 0.99458 0.56778 0.0
C1325 C 0.63716 0.99173 0.6078 0.0
C1326 C 0.65355 0.92935 0.55095 0.0
C1327 C 0.66715 0.01941 0.54433 0.0
H1328 H 0.73112 0.98876 0.46767 0.0
H1329 H 0.67836 0.98823 0.34029 0.0
H1330 H 0.7052 0.99183 0.59625 0.0
H1331 H 0.6978 0.96022 0.59944 0.0
H1332 H 0.72477 0.97586 0.57397 0.0
H1333 H 0.64195 0.97957 0.37039 0.0
H1334 H 0.63555 0.96061 0.44242 0.0
H1335 H 0.63878 0.99209 0.43925 0.0
H1336 H 0.62053 0.93155 0.62474 0.0
H1337 H 0.63304 1.00732 0.62248 0.0
H1338 H 0.67136 0.93023 0.55282 0.0
H1339 H 0.64843 0.9281 0.50277 0.0
H1340 H 0.64515 0.91291 0.58009 0.0
H1341 H 0.68492 0.02072 0.55004 0.0
H1342 H 0.6622 0.0331 0.56828 0.0
H1343 H 0.66409 0.02348 0.49456 0.0
C1344 C 0.58782 0.68626 0.59525 0.0
C1345 C 0.57418 0.69341 0.5482 0.0
C1346 C 0.58142 0.66473 0.63454 0.0
C1347 C 0.56094 0.64979 0.62627 0.0
C1348 C 0.54656 0.65761 0.58128 0.0
C1349 C 0.55333 0.67939 0.54294 0.0
C1350 C 0.59716 0.65739 0.68242 0.0
C1351 C 0.52453 0.64234 0.57121 0.0
C1352 C 0.55531 0.58287 0.67133 0.0
C1353 C 0.54357 0.57871 0.72659 0.0
C1354 C 0.56109 0.6059 0.63844 0.0
C1355 C 0.55521 0.62534 0.6616 0.0
C1356 C 0.54387 0.62133 0.71822 0.0
C1357 C 0.53806 0.5981 0.7497 0.0
C1358 C 0.57325 0.60939 0.57836 0.0
C1359 C 0.5377 0.64154 0.74535 0.0
H1360 H 0.60393 0.6971 0.59974 0.0
H1361 H 0.54281 0.6847 0.50634 0.0
H1362 H 0.58866 0.64976 0.72658 0.0
H1363 H 0.60452 0.64341 0.66692 0.0
H1364 H 0.61049 0.67256 0.69047 0.0
H1365 H 0.51458 0.65173 0.53806 0.0
H1366 H 0.52665 0.62599 0.55343 0.0
H1367 H 0.51543 0.6367 0.61524 0.0
H1368 H 0.55958 0.56803 0.65303 0.0
H1369 H 0.5291 0.59516 0.79255 0.0
H1370 H 0.58893 0.62229 0.58054 0.0
H1371 H 0.56364 0.61696 0.54081 0.0
H1372 H 0.57666 0.59251 0.56663 0.0
H1373 H 0.55237 0.65563 0.75 0.0
H1374 H 0.52978 0.63563 0.79114 0.0
H1375 H 0.52637 0.64968 0.71422 0.0
C1376 C 0.84425 0.47793 0.407 0.0
C1377 C 0.82139 0.47217 0.40734 0.0
C1378 C 0.85591 0.4872 0.4561 0.0
C1379 C 0.84454 0.49154 0.50666 0.0
C1380 C 0.82146 0.4865 0.50686 0.0
C1381 C 0.81013 0.47673 0.45729 0.0
C1382 C 0.88051 0.49221 0.45389 0.0
C1383 C 0.80881 0.4913 0.5595 0.0
C1384 C 0.88012 0.49414 0.64738 0.0
C1385 C 0.89009 0.51839 0.64083 0.0
C1386 C 0.86393 0.48528 0.60673 0.0
C1387 C 0.85722 0.50111 0.55896 0.0
C1388 C 0.86568 0.52587 0.55581 0.0
C1389 C 0.88214 0.53421 0.59647 0.0
C1390 C 0.85543 0.45876 0.6118 0.0
C1391 C 0.85866 0.54341 0.50639 0.0
H1392 H 0.85318 0.47529 0.36787 0.0
H1393 H 0.79249 0.47237 0.45811 0.0
H1394 H 0.88717 0.51138 0.45556 0.0
H1395 H 0.88679 0.48213 0.49442 0.0
H1396 H 0.88685 0.4873 0.41182 0.0
H1397 H 0.79099 0.48763 0.55124 0.0
H1398 H 0.81207 0.48008 0.60224 0.0
H1399 H 0.81419 0.51012 0.56727 0.0
H1400 H 0.8857 0.48186 0.68265 0.0
H1401 H 0.88968 0.55297 0.59087 0.0
H1402 H 0.86244 0.4518 0.57405 0.0
H1403 H 0.83748 0.45455 0.60702 0.0
H1404 H 0.85983 0.44929 0.65614 0.0
H1405 H 0.86631 0.54244 0.46211 0.0
H1406 H 0.86354 0.56196 0.51689 0.0
H1407 H 0.84075 0.53906 0.50033 0.0
loop_
_geom_bond_atom_site_label_1
_geom_bond_atom_site_label_2
_geom_bond_distance
_geom_bond_site_symmetry_2
_ccdc_geom_bond_type
C0 C1 1.391 . S
C0 C4 1.391 . S
C0 H42 0.948 . S
C1 C0 1.391 . S
C1 C2 1.391 . S
C2 C1 1.391 . S
C2 H58 0.947 . S
C2 C59 1.392 . S
C3 C4 1.391 . S
C3 C7 1.397 . S
C3 C59 1.419 . S
C4 C0 1.391 . S
C4 C3 1.391 . S
C4 C5 1.399 . S
C5 C4 1.399 . S
C5 C8 1.396 . S
C5 C17 1.453 . S
C5 C18 1.684 . S
H6 C30 0.948 . S
C7 C3 1.397 . S
C7 C8 1.394 . S
C7 C26 1.723 . S
C8 C5 1.396 . S
C8 C7 1.394 . S
C8 C38 1.723 . S
H9 C32 0.947 . S
H10 C33 0.948 . S
H11 C39 0.982 . S
H12 C40 0.979 . S
H13 C40 0.980 . S
H14 C40 0.983 . S
H15 C39 0.979 . S
H16 C39 0.977 . S
C17 C5 1.453 . S
C17 H46 0.982 . S
C17 H47 0.979 . S
C17 H48 0.977 . S
C18 C5 1.684 . S
C18 H43 0.979 . S
C18 H44 0.980 . S
C18 H45 0.983 . S
C19 C20 1.391 . S
C19 C24 1.391 . S
C19 H49 0.948 . S
C20 C19 1.391 . S
C20 C21 1.391 . S
C21 C20 1.391 . S
C21 C22 1.392 . S
C21 H50 0.947 . S
C22 C21 1.392 . S
C22 C23 1.419 . S
C22 H51 0.948 . S
C23 C22 1.419 . S
C23 C24 1.391 . S
C23 C27 1.397 1_556 S
C24 C19 1.391 . S
C24 C23 1.391 . S
C24 C25 1.399 1_556 S
C25 C24 1.399 1_554 S
C25 C26 1.396 . S
C25 C28 1.453 . S
C25 C29 1.684 . S
C26 C7 1.723 . S
C26 C25 1.396 . S
C26 C27 1.394 . S
C27 C23 1.397 1_554 S
C27 C26 1.394 . S
C27 C37 1.723 . S
C28 C25 1.453 . S
C28 H52 0.982 . S
C28 H53 0.979 . S
C28 H54 0.977 . S
C29 C25 1.684 . S
C29 H55 0.979 . S
C29 H56 0.980 . S
C29 H57 0.983 . S
C30 H6 0.948 . S
C30 C31 1.391 1_556 S
C30 C35 1.391 . S
C31 C30 1.391 1_554 S
C31 C32 1.391 . S
C32 H9 0.947 . S
C32 C31 1.391 . S
C32 C33 1.392 . S
C33 H10 0.948 . S
C33 C32 1.392 . S
C33 C34 1.419 . S
C34 C33 1.419 . S
C34 C35 1.391 1_554 S
C34 C38 1.397 . S
C35 C30 1.391 . S
C35 C34 1.391 1_556 S
C35 C36 1.399 . S
C36 C35 1.399 . S
C36 C37 1.396 1_556 S
C36 C39 1.453 . S
C36 C40 1.684 . S
C37 C27 1.723 . S
C37 C36 1.396 1_554 S
C37 C38 1.394 . S
C38 C8 1.723 . S
C38 C34 1.397 . S
C38 C37 1.394 . S
C39 H11 0.982 . S
C39 H15 0.979 . S
C39 H16 0.977 . S
C39 C36 1.453 . S
C40 H12 0.979 . S
C40 H13 0.980 . S
C40 H14 0.983 . S
C40 C36 1.684 . S
H41 C59 0.948 . S
H42 C0 0.948 . S
H43 C18 0.979 . S
H44 C18 0.980 . S
H45 C18 0.983 . S
H46 C17 0.982 . S
H47 C17 0.979 . S
H48 C17 0.977 . S
H49 C19 0.948 . S
H50 C21 0.947 . S
H51 C22 0.948 . S
H52 C28 0.982 . S
H53 C28 0.979 . S
H54 C28 0.977 . S
H55 C29 0.979 . S
H56 C29 0.980 . S
H57 C29 0.983 . S
H58 C2 0.947 . S
C59 C2 1.392 . S
C59 C3 1.419 . S
C59 H41 0.948 . S
C60 C61 1.391 . S
C60 C64 1.391 . S
C60 H102 0.948 . S
C61 C60 1.391 . S
C61 C62 1.391 . S
C62 C61 1.391 . S
C62 H118 0.947 . S
C62 C119 1.392 . S
C63 C64 1.391 . S
C63 C67 1.397 1_556 S
C63 C119 1.419 . S
C64 C60 1.391 . S
C64 C63 1.391 . S
C64 C65 1.399 . S
C65 C64 1.399 . S
C65 C68 1.410 . S
C65 C77 1.453 . S
C65 C78 1.684 . S
H66 C90 0.948 . S
C67 C63 1.397 1_554 S
C67 C68 1.385 1_554 S
C67 C86 1.723 . S
C68 C65 1.410 . S
C68 C67 1.385 1_556 S
C68 C98 1.715 1_556 S
H69 C92 0.947 . S
H70 C93 0.948 . S
H71 C99 0.982 . S
H72 C100 0.979 . S
H73 C100 0.980 . S
H74 C100 0.983 . S
H75 C99 0.979 . S
H76 C99 0.977 . S
C77 C65 1.453 . S
C77 H106 0.982 . S
C77 H107 0.979 . S
C77 H108 0.977 . S
C78 C65 1.684 . S
C78 H103 0.979 . S
C78 H104 0.980 . S
C78 H105 0.983 . S
C79 C80 1.391 . S
C79 C84 1.391 . S
C79 H109 0.948 . S
C80 C79 1.391 . S
C80 C81 1.391 . S
C81 C80 1.391 . S
C81 C82 1.392 . S
C81 H110 0.947 . S
C82 C81 1.392 . S
C82 C83 1.419 . S
C82 H111 0.948 . S
C83 C82 1.419 . S
C83 C84 1.391 . S
C83 C87 1.397 . S
C84 C79 1.391 . S
C84 C83 1.391 . S
C84 C85 1.399 . S
C85 C84 1.399 . S
C85 C86 1.396 . S
C85 C88 1.453 . S
C85 C89 1.684 . S
C86 C67 1.723 . S
C86 C85 1.396 . S
C86 C87 1.394 . S
C87 C83 1.397 . S
C87 C86 1.394 . S
C87 C97 1.723 . S
C88 C85 1.453 . S
C88 H112 0.982 . S
C88 H113 0.979 . S
C88 H114 0.977 . S
C89 C85 1.684 . S
C89 H115 0.979 . S
C89 H116 0.980 . S
C89 H117 0.983 . S
C90 H66 0.948 . S
C90 C91 1.391 . S
C90 C95 1.391 . S
C91 C90 1.391 . S
C91 C92 1.391 1_554 S
C92 H69 0.947 . S
C92 C91 1.391 1_556 S
C92 C93 1.392 . S
C93 H70 0.948 . S
C93 C92 1.392 . S
C93 C94 1.419 1_556 S
C94 C93 1.419 1_554 S
C94 C95 1.391 . S
C94 C98 1.397 . S
C95 C90 1.391 . S
C95 C94 1.391 . S
C95 C96 1.399 . S
C96 C95 1.399 . S
C96 C97 1.396 . S
C96 C99 1.453 . S
C96 C100 1.684 . S
C97 C87 1.723 . S
C97 C96 1.396 . S
C97 C98 1.394 . S
C98 C68 1.715 1_554 S
C98 C94 1.397 . S
C98 C97 1.394 . S
C99 H71 0.982 . S
C99 H75 0.979 . S
C99 H76 0.977 . S
C99 C96 1.453 . S
C100 H72 0.979 . S
C100 H73 0.980 . S
C100 H74 0.983 . S
C100 C96 1.684 . S
H101 C119 0.948 1_554 S
H102 C60 0.948 . S
H103 C78 0.979 . S
H104 C78 0.980 . S
H105 C78 0.983 . S
H106 C77 0.982 . S
H107 C77 0.979 . S
H108 C77 0.977 . S
H109 C79 0.948 . S
H110 C81 0.947 . S
H111 C82 0.948 . S
H112 C88 0.982 . S
H113 C88 0.979 . S
H114 C88 0.977 . S
H115 C89 0.979 . S
H116 C89 0.980 . S
H117 C89 0.983 . S
H118 C62 0.947 . S
C119 C62 1.392 . S
C119 C63 1.419 . S
C119 H101 0.948 1_556 S
C120 C121 1.391 . S
C120 C124 1.391 1_556 S
C120 H162 0.948 1_556 S
C121 C120 1.391 . S
C121 C122 1.391 . S
C122 C121 1.391 . S
C122 H178 0.947 . S
C122 C179 1.392 . S
C123 C124 1.391 1_556 S
C123 C127 1.398 1_565 S
C123 C179 1.419 . S
C124 C120 1.391 1_554 S
C124 C123 1.391 1_554 S
C124 C125 1.399 . S
C125 C124 1.399 . S
C125 C128 1.396 1_565 S
C125 C137 1.453 1_565 S
C125 C138 1.684 . S
H126 C150 0.948 . S
C127 C123 1.398 1_545 S
C127 C128 1.394 1_556 S
C127 C146 1.723 . S
C128 C125 1.396 1_545 S
C128 C127 1.394 1_554 S
C128 C158 1.724 . S
H129 C152 0.947 . S
H130 C153 0.948 . S
H131 C159 0.982 . S
H132 C160 0.979 . S
H133 C160 0.980 . S
H134 C160 0.983 . S
H135 C159 0.979 . S
H136 C159 0.977 . S
C137 C125 1.453 1_545 S
C137 H166 0.982 . S
C137 H167 0.979 . S
C137 H168 0.977 . S
C138 C125 1.684 . S
C138 H163 0.979 . S
C138 H164 0.980 . S
C138 H165 0.983 . S
C139 C140 1.391 . S
C139 C144 1.391 . S
C139 H169 0.948 . S
C140 C139 1.391 . S
C140 C141 1.391 . S
C141 C140 1.391 . S
C141 C142 1.392 . S
C141 H170 0.947 . S
C142 C141 1.392 . S
C142 C143 1.419 . S
C142 H171 0.948 . S
C143 C142 1.419 . S
C143 C144 1.391 . S
C143 C147 1.397 1_565 S
C144 C139 1.391 . S
C144 C143 1.391 . S
C144 C145 1.399 . S
C145 C144 1.399 . S
C145 C146 1.396 1_565 S
C145 C148 1.453 1_565 S
C145 C149 1.684 . S
C146 C127 1.723 . S
C146 C145 1.396 1_545 S
C146 C147 1.395 . S
C147 C143 1.397 1_545 S
C147 C146 1.395 . S
C147 C157 1.722 1_556 S
C148 C145 1.453 1_545 S
C148 H172 0.982 . S
C148 H173 0.979 . S
C148 H174 0.977 . S
C149 C145 1.684 . S
C149 H175 0.979 . S
C149 H176 0.980 . S
C149 H177 0.983 . S
C150 H126 0.948 . S
C150 C151 1.391 . S
C150 C155 1.391 . S
C151 C150 1.391 . S
C151 C152 1.391 . S
C152 H129 0.947 . S
C152 C151 1.391 . S
C152 C153 1.392 . S
C153 H130 0.948 . S
C153 C152 1.392 . S
C153 C154 1.419 . S
C154 C153 1.419 . S
C154 C155 1.391 . S
C154 C158 1.396 1_565 S
C155 C150 1.391 . S
C155 C154 1.391 . S
C155 C156 1.399 . S
C156 C155 1.399 . S
C156 C157 1.396 1_565 S
C156 C159 1.453 1_565 S
C156 C160 1.684 . S
C157 C147 1.722 1_554 S
C157 C156 1.396 1_545 S
C157 C158 1.394 . S
C158 C128 1.724 . S
C158 C154 1.396 1_545 S
C158 C157 1.394 . S
C159 H131 0.982 . S
C159 H135 0.979 . S
C159 H136 0.977 . S
C159 C156 1.453 1_545 S
C160 H132 0.979 . S
C160 H133 0.980 . S
C160 H134 0.983 . S
C160 C156 1.684 . S
H161 C179 0.948 . S
H162 C120 0.948 1_554 S
H163 C138 0.979 . S
H164 C138 0.980 . S
H165 C138 0.983 . S
H166 C137 0.982 . S
H167 C137 0.979 . S
H168 C137 0.977 . S
H169 C139 0.948 . S
H170 C141 0.947 . S
H171 C142 0.948 . S
H172 C148 0.982 . S
H173 C148 0.979 . S
H174 C148 0.977 . S
H175 C149 0.979 . S
H176 C149 0.980 . S
H177 C149 0.983 . S
H178 C122 0.947 . S
C179 C122 1.392 . S
C179 C123 1.419 . S
C179 H161 0.948 . S
C180 C181 1.391 . S
C180 C184 1.391 . S
C180 H222 0.948 . S
C181 C180 1.391 . S
C181 C182 1.391 . S
C182 C181 1.391 . S
C182 H238 0.947 . S
C182 C239 1.392 . S
C183 C184 1.391 . S
C183 C187 1.397 . S
C183 C239 1.419 . S
C184 C180 1.391 . S
C184 C183 1.391 . S
C184 C185 1.399 . S
C185 C184 1.399 . S
C185 C188 1.396 . S
C185 C197 1.453 . S
C185 C198 1.684 . S
H186 C210 0.948 . S
C187 C183 1.397 . S
C187 C188 1.394 . S
C187 C206 1.723 . S
C188 C185 1.396 . S
C188 C187 1.394 . S
C188 C218 1.723 . S
H189 C212 0.947 . S
H190 C213 0.948 . S
H191 C219 0.982 . S
H192 C220 0.979 . S
H193 C220 0.980 . S
H194 C220 0.983 . S
H195 C219 0.979 . S
H196 C219 0.977 . S
C197 C185 1.453 . S
C197 H226 0.982 . S
C197 H227 0.979 . S
C197 H228 0.977 . S
C198 C185 1.684 . S
C198 H223 0.979 . S
C198 H224 0.980 . S
C198 H225 0.983 . S
C199 C200 1.391 . S
C199 C204 1.391 . S
C199 H229 0.948 . S
C200 C199 1.391 . S
C200 C201 1.391 . S
C201 C200 1.391 . S
C201 C202 1.392 . S
C201 H230 0.947 . S
C202 C201 1.392 . S
C202 C203 1.419 . S
C202 H231 0.948 . S
C203 C202 1.419 . S
C203 C204 1.391 . S
C203 C207 1.397 . S
C204 C199 1.391 . S
C204 C203 1.391 . S
C204 C205 1.399 . S
C205 C204 1.399 . S
C205 C206 1.396 . S
C205 C208 1.453 . S
C205 C209 1.684 . S
C206 C187 1.723 . S
C206 C205 1.396 . S
C206 C207 1.394 . S
C207 C203 1.397 . S
C207 C206 1.394 . S
C207 C217 1.723 . S
C208 C205 1.453 . S
C208 H232 0.982 . S
C208 H233 0.979 . S
C208 H234 0.977 . S
C209 C205 1.684 . S
C209 H235 0.979 . S
C209 H236 0.980 . S
C209 H237 0.983 . S
C210 H186 0.948 . S
C210 C211 1.391 . S
C210 C215 1.391 . S
C211 C210 1.391 . S
C211 C212 1.391 . S
C212 H189 0.947 . S
C212 C211 1.391 . S
C212 C213 1.392 . S
C213 H190 0.948 . S
C213 C212 1.392 . S
C213 C214 1.419 . S
C214 C213 1.419 . S
C214 C215 1.391 . S
C214 C218 1.397 . S
C215 C210 1.391 . S
C215 C214 1.391 . S
C215 C216 1.399 . S
C216 C215 1.399 . S
C216 C217 1.396 . S
C216 C219 1.453 . S
C216 C220 1.684 . S
C217 C207 1.723 . S
C217 C216 1.396 . S
C217 C218 1.394 . S
C218 C188 1.723 . S
C218 C214 1.397 . S
C218 C217 1.394 . S
C219 H191 0.982 . S
C219 H195 0.979 . S
C219 H196 0.977 . S
C219 C216 1.453 . S
C220 H192 0.979 . S
C220 H193 0.980 . S
C220 H194 0.983 . S
C220 C216 1.684 . S
H221 C239 0.948 . S
H222 C180 0.948 . S
H223 C198 0.979 . S
H224 C198 0.980 . S
H225 C198 0.983 . S
H226 C197 0.982 . S
H227 C197 0.979 . S
H228 C197 0.977 . S
H229 C199 0.948 . S
H230 C201 0.947 . S
H231 C202 0.948 . S
H232 C208 0.982 . S
H233 C208 0.979 . S
H234 C208 0.977 . S
H235 C209 0.979 . S
H236 C209 0.980 . S
H237 C209 0.983 . S
H238 C182 0.947 . S
C239 C182 1.392 . S
C239 C183 1.419 . S
C239 H221 0.948 . S
C240 C241 1.391 . S
C240 C244 1.391 . S
C240 H282 0.948 . S
C241 C240 1.391 . S
C241 C242 1.391 . S
C242 C241 1.391 . S
C242 H298 0.947 . S
C242 C299 1.392 . S
C243 C244 1.391 . S
C243 C247 1.397 . S
C243 C299 1.419 . S
C244 C240 1.391 . S
C244 C243 1.391 . S
C244 C245 1.399 . S
C245 C244 1.399 . S
C245 C248 1.396 . S
C245 C257 1.453 . S
C245 C258 1.684 . S
H246 C270 0.948 . S
C247 C243 1.397 . S
C247 C248 1.394 . S
C247 C266 1.723 . S
C248 C245 1.396 . S
C248 C247 1.394 . S
C248 C278 1.723 . S
H249 C272 0.947 . S
H250 C273 0.948 . S
H251 C279 0.982 . S
H252 C280 0.979 . S
H253 C280 0.980 . S
H254 C280 0.983 . S
H255 C279 0.979 . S
H256 C279 0.977 . S
C257 C245 1.453 . S
C257 H286 0.982 . S
C257 H287 0.979 . S
C257 H288 0.977 . S
C258 C245 1.684 . S
C258 H283 0.979 . S
C258 H284 0.980 . S
C258 H285 0.983 . S
C259 C260 1.391 . S
C259 C264 1.391 . S
C259 H289 0.948 . S
C260 C259 1.391 . S
C260 C261 1.391 . S
C261 C260 1.391 . S
C261 C262 1.392 . S
C261 H290 0.947 . S
C262 C261 1.392 . S
C262 C263 1.419 . S
C262 H291 0.948 . S
C263 C262 1.419 . S
C263 C264 1.391 . S
C263 C267 1.397 . S
C264 C259 1.391 . S
C264 C263 1.391 . S
C264 C265 1.399 . S
C265 C264 1.399 . S
C265 C266 1.396 . S
C265 C268 1.453 . S
C265 C269 1.684 . S
C266 C247 1.723 . S
C266 C265 1.396 . S
C266 C267 1.394 . S
C267 C263 1.397 . S
C267 C266 1.394 . S
C267 C277 1.723 . S
C268 C265 1.453 . S
C268 H292 0.982 . S
C268 H293 0.979 . S
C268 H294 0.977 . S
C269 C265 1.684 . S
C269 H295 0.979 . S
C269 H296 0.980 . S
C269 H297 0.983 . S
C270 H246 0.948 . S
C270 C271 1.391 . S
C270 C275 1.391 . S
C271 C270 1.391 . S
C271 C272 1.391 . S
C272 H249 0.947 . S
C272 C271 1.391 . S
C272 C273 1.392 . S
C273 H250 0.948 . S
C273 C272 1.392 . S
C273 C274 1.419 . S
C274 C273 1.419 . S
C274 C275 1.391 . S
C274 C278 1.397 . S
C275 C270 1.391 . S
C275 C274 1.391 . S
C275 C276 1.399 . S
C276 C275 1.399 . S
C276 C277 1.396 . S
C276 C279 1.453 . S
C276 C280 1.684 . S
C277 C267 1.723 . S
C277 C276 1.396 . S
C277 C278 1.394 . S
C278 C248 1.723 . S
C278 C274 1.397 . S
C278 C277 1.394 . S
C279 H251 0.982 . S
C279 H255 0.979 . S
C279 H256 0.977 . S
C279 C276 1.453 . S
C280 H252 0.979 . S
C280 H253 0.980 . S
C280 H254 0.983 . S
C280 C276 1.684 . S
H281 C299 0.948 . S
H282 C240 0.948 . S
H283 C258 0.979 . S
H284 C258 0.980 . S
H285 C258 0.983 . S
H286 C257 0.982 . S
H287 C257 0.979 . S
H288 C257 0.977 . S
H289 C259 0.948 . S
H290 C261 0.947 . S
H291 C262 0.948 . S
H292 C268 0.982 . S
H293 C268 0.979 . S
H294 C268 0.977 . S
H295 C269 0.979 . S
H296 C269 0.980 . S
H297 C269 0.983 . S
H298 C242 0.947 . S
C299 C242 1.392 . S
C299 C243 1.419 . S
C299 H281 0.948 . S
C300 C301 1.391 . S
C300 C304 1.391 . S
C300 H342 0.948 . S
C301 C300 1.391 . S
C301 C302 1.391 . S
C302 C301 1.391 . S
C302 H358 0.947 . S
C302 C359 1.392 . S
C303 C304 1.391 . S
C303 C307 1.397 . S
C303 C359 1.419 . S
C304 C300 1.391 . S
C304 C303 1.391 . S
C304 C305 1.399 . S
C305 C304 1.399 . S
C305 C308 1.396 . S
C305 C317 1.453 . S
C305 C318 1.684 . S
H306 C330 0.948 . S
C307 C303 1.397 . S
C307 C308 1.394 . S
C307 C326 1.723 . S
C308 C305 1.396 . S
C308 C307 1.394 . S
C308 C338 1.723 . S
H309 C332 0.947 . S
H310 C333 0.948 . S
H311 C339 0.982 . S
H312 C340 0.979 . S
H313 C340 0.980 . S
H314 C340 0.983 . S
H315 C339 0.979 . S
H316 C339 0.977 . S
C317 C305 1.453 . S
C317 H346 0.982 . S
C317 H347 0.979 . S
C317 H348 0.977 . S
C318 C305 1.684 . S
C318 H343 0.979 . S
C318 H344 0.980 . S
C318 H345 0.983 . S
C319 C320 1.391 . S
C319 C324 1.391 . S
C319 H349 0.948 . S
C320 C319 1.391 . S
C320 C321 1.391 . S
C321 C320 1.391 . S
C321 C322 1.392 . S
C321 H350 0.947 . S
C322 C321 1.392 . S
C322 C323 1.419 . S
C322 H351 0.948 . S
C323 C322 1.419 . S
C323 C324 1.391 . S
C323 C327 1.397 . S
C324 C319 1.391 . S
C324 C323 1.391 . S
C324 C325 1.399 . S
C325 C324 1.399 . S
C325 C326 1.396 . S
C325 C328 1.453 . S
C325 C329 1.684 . S
C326 C307 1.723 . S
C326 C325 1.396 . S
C326 C327 1.394 . S
C327 C323 1.397 . S
C327 C326 1.394 . S
C327 C337 1.723 . S
C328 C325 1.453 . S
C328 H352 0.982 . S
C328 H353 0.979 . S
C328 H354 0.977 . S
C329 C325 1.684 . S
C329 H355 0.979 . S
C329 H356 0.980 . S
C329 H357 0.983 . S
C330 H306 0.948 . S
C330 C331 1.391 . S
C330 C335 1.391 . S
C331 C330 1.391 . S
C331 C332 1.391 . S
C332 H309 0.947 . S
C332 C331 1.391 . S
C332 C333 1.392 . S
C333 H310 0.948 . S
C333 C332 1.392 . S
C333 C334 1.419 . S
C334 C333 1.419 . S
C334 C335 1.391 . S
C334 C338 1.397 . S
C335 C330 1.391 . S
C335 C334 1.391 . S
C335 C336 1.399 . S
C336 C335 1.399 . S
C336 C337 1.396 . S
C336 C339 1.453 . S
C336 C340 1.684 . S
C337 C327 1.723 . S
C337 C336 1.396 . S
C337 C338 1.394 . S
C338 C308 1.723 . S
C338 C334 1.397 . S
C338 C337 1.394 . S
C339 H311 0.982 . S
C339 H315 0.979 . S
C339 H316 0.977 . S
C339 C336 1.453 . S
C340 H312 0.979 . S
C340 H313 0.980 . S
C340 H314 0.983 . S
C340 C336 1.684 . S
H341 C359 0.948 . S
H342 C300 0.948 . S
H343 C318 0.979 . S
H344 C318 0.980 . S
H345 C318 0.983 . S
H346 C317 0.982 . S
H347 C317 0.979 . S
H348 C317 0.977 . S
H349 C319 0.948 . S
H350 C321 0.947 . S
H351 C322 0.948 . S
H352 C328 0.982 . S
H353 C328 0.979 . S
H354 C328 0.977 . S
H355 C329 0.979 . S
H356 C329 0.980 . S
H357 C329 0.983 . S
H358 C302 0.947 . S
C359 C302 1.392 . S
C359 C303 1.419 . S
C359 H341 0.948 . S
C360 C361 1.391 . S
C360 C364 1.391 . S
C360 H402 0.948 . S
C361 C360 1.391 . S
C361 C362 1.391 . S
C362 C361 1.391 . S
C362 H418 0.947 . S
C362 C419 1.392 . S
C363 C364 1.391 . S
C363 C367 1.396 1_545 S
C363 C419 1.419 . S
C364 C360 1.391 . S
C364 C363 1.391 . S
C364 C365 1.399 . S
C365 C364 1.399 . S
C365 C368 1.396 1_545 S
C365 C377 1.453 1_545 S
C365 C378 1.684 . S
H366 C390 0.948 . S
C367 C363 1.396 1_565 S
C367 C368 1.395 . S
C367 C386 1.723 . S
C368 C365 1.396 1_565 S
C368 C367 1.395 . S
C368 C398 1.722 . S
H369 C392 0.947 . S
H370 C393 0.948 . S
H371 C399 0.982 . S
H372 C400 0.979 . S
H373 C400 0.980 . S
H374 C400 0.983 . S
H375 C399 0.979 . S
H376 C399 0.977 . S
C377 C365 1.453 1_565 S
C377 H406 0.982 . S
C377 H407 0.979 . S
C377 H408 0.977 . S
C378 C365 1.684 . S
C378 H403 0.979 . S
C378 H404 0.980 . S
C378 H405 0.983 . S
C379 C380 1.391 . S
C379 C384 1.391 . S
C379 H409 0.948 . S
C380 C379 1.391 . S
C380 C381 1.391 . S
C381 C380 1.391 . S
C381 C382 1.392 . S
C381 H410 0.947 . S
C382 C381 1.392 . S
C382 C383 1.419 . S
C382 H411 0.948 . S
C383 C382 1.419 . S
C383 C384 1.391 . S
C383 C387 1.397 1_545 S
C384 C379 1.391 . S
C384 C383 1.391 . S
C384 C385 1.399 . S
C385 C384 1.399 . S
C385 C386 1.396 1_545 S
C385 C388 1.453 1_545 S
C385 C389 1.684 . S
C386 C367 1.723 . S
C386 C385 1.396 1_565 S
C386 C387 1.393 . S
C387 C383 1.397 1_565 S
C387 C386 1.393 . S
C387 C397 1.723 . S
C388 C385 1.453 1_565 S
C388 H412 0.982 . S
C388 H413 0.979 . S
C388 H414 0.977 . S
C389 C385 1.684 . S
C389 H415 0.979 . S
C389 H416 0.980 . S
C389 H417 0.983 . S
C390 H366 0.948 . S
C390 C391 1.391 . S
C390 C395 1.391 . S
C391 C390 1.391 . S
C391 C392 1.391 . S
C392 H369 0.947 . S
C392 C391 1.391 . S
C392 C393 1.392 . S
C393 H370 0.948 . S
C393 C392 1.392 . S
C393 C394 1.419 . S
C394 C393 1.419 . S
C394 C395 1.391 . S
C394 C398 1.398 1_545 S
C395 C390 1.391 . S
C395 C394 1.391 . S
C395 C396 1.399 . S
C396 C395 1.399 . S
C396 C397 1.396 1_545 S
C396 C399 1.453 1_545 S
C396 C400 1.684 . S
C397 C387 1.723 . S
C397 C396 1.396 1_565 S
C397 C398 1.394 . S
C398 C368 1.722 . S
C398 C394 1.398 1_565 S
C398 C397 1.394 . S
C399 H371 0.982 . S
C399 H375 0.979 . S
C399 H376 0.977 . S
C399 C396 1.453 1_565 S
C400 H372 0.979 . S
C400 H373 0.980 . S
C400 H374 0.983 . S
C400 C396 1.684 . S
H401 C419 0.948 . S
H402 C360 0.948 . S
H403 C378 0.979 . S
H404 C378 0.980 . S
H405 C378 0.983 . S
H406 C377 0.982 . S
H407 C377 0.979 . S
H408 C377 0.977 . S
H409 C379 0.948 . S
H410 C381 0.947 . S
H411 C382 0.948 . S
H412 C388 0.982 . S
H413 C388 0.979 . S
H414 C388 0.977 . S
H415 C389 0.979 . S
H416 C389 0.980 . S
H417 C389 0.983 . S
H418 C362 0.947 . S
C419 C362 1.392 . S
C419 C363 1.419 . S
C419 H401 0.948 . S
C420 C421 1.391 . S
C420 C424 1.391 . S
C420 H462 0.948 . S
C421 C420 1.391 . S
C421 C422 1.391 . S
C422 C421 1.391 . S
C422 H478 0.947 . S
C422 C479 1.392 . S
C423 C424 1.391 . S
C423 C427 1.397 . S
C423 C479 1.419 . S
C424 C420 1.391 . S
C424 C423 1.391 . S
C424 C425 1.399 . S
C425 C424 1.399 . S
C425 C428 1.396 . S
C425 C437 1.453 . S
C425 C438 1.684 . S
H426 C450 0.948 . S
C427 C423 1.397 . S
C427 C428 1.394 . S
C427 C446 1.723 . S
C428 C425 1.396 . S
C428 C427 1.394 . S
C428 C458 1.723 . S
H429 C452 0.947 . S
H430 C453 0.948 . S
H431 C459 0.982 . S
H432 C460 0.979 . S
H433 C460 0.980 . S
H434 C460 0.983 . S
H435 C459 0.979 . S
H436 C459 0.977 . S
C437 C425 1.453 . S
C437 H466 0.982 . S
C437 H467 0.979 . S
C437 H468 0.977 . S
C438 C425 1.684 . S
C438 H463 0.979 . S
C438 H464 0.980 . S
C438 H465 0.983 . S
C439 C440 1.391 . S
C439 C444 1.391 . S
C439 H469 0.948 . S
C440 C439 1.391 . S
C440 C441 1.391 . S
C441 C440 1.391 . S
C441 C442 1.392 . S
C441 H470 0.947 . S
C442 C441 1.392 . S
C442 C443 1.419 . S
C442 H471 0.948 . S
C443 C442 1.419 . S
C443 C444 1.391 . S
C443 C447 1.397 . S
C444 C439 1.391 . S
C444 C443 1.391 . S
C444 C445 1.399 . S
C445 C444 1.399 . S
C445 C446 1.396 . S
C445 C448 1.453 . S
C445 C449 1.684 . S
C446 C427 1.723 . S
C446 C445 1.396 . S
C446 C447 1.394 . S
C447 C443 1.397 . S
C447 C446 1.394 . S
C447 C457 1.723 . S
C448 C445 1.453 . S
C448 H472 0.982 . S
C448 H473 0.979 . S
C448 H474 0.977 . S
C449 C445 1.684 . S
C449 H475 0.979 . S
C449 H476 0.980 . S
C449 H477 0.983 . S
C450 H426 0.948 . S
C450 C451 1.391 . S
C450 C455 1.391 . S
C451 C450 1.391 . S
C451 C452 1.391 . S
C452 H429 0.947 . S
C452 C451 1.391 . S
C452 C453 1.392 . S
C453 H430 0.948 . S
C453 C452 1.392 . S
C453 C454 1.419 . S
C454 C453 1.419 . S
C454 C455 1.391 . S
C454 C458 1.397 . S
C455 C450 1.391 . S
C455 C454 1.391 . S
C455 C456 1.399 . S
C456 C455 1.399 . S
C456 C457 1.396 . S
C456 C459 1.453 . S
C456 C460 1.684 . S
C457 C447 1.723 . S
C457 C456 1.396 . S
C457 C458 1.394 . S
C458 C428 1.723 . S
C458 C454 1.397 . S
C458 C457 1.394 . S
C459 H431 0.982 . S
C459 H435 0.979 . S
C459 H436 0.977 . S
C459 C456 1.453 . S
C460 H432 0.979 . S
C460 H433 0.980 . S
C460 H434 0.983 . S
C460 C456 1.684 . S
H461 C479 0.948 . S
H462 C420 0.948 . S
H463 C438 0.979 . S
H464 C438 0.980 . S
H465 C438 0.983 . S
H466 C437 0.982 . S
H467 C437 0.979 . S
H468 C437 0.977 . S
H469 C439 0.948 . S
H470 C441 0.947 . S
H471 C442 0.948 . S
H472 C448 0.982 . S
H473 C448 0.979 . S
H474 C448 0.977 . S
H475 C449 0.979 . S
H476 C449 0.980 . S
H477 C449 0.983 . S
H478 C422 0.947 . S
C479 C422 1.392 . S
C479 C423 1.419 . S
C479 H461 0.948 . S
Nd480 C482 2.836 1_455 S
Nd480 O500 2.500 1_455 S
Nd480 O501 2.492 . S
Nd480 O502 2.487 . S
Nd480 O503 2.682 1_565 S
Nd480 O504 2.410 . S
Nd480 O509 2.430 1_455 S
Nd480 O511 2.424 1_565 S
Nd481 C491 2.836 . S
Nd481 O503 2.414 . S
Nd481 O505 2.424 1_545 S
Nd481 O506 2.500 . S
Nd481 O507 2.492 . S
Nd481 O508 2.487 1_455 S
Nd481 O509 2.678 1_445 S
Nd481 O510 2.410 . S
C482 Nd480 2.836 1_655 S
C482 C483 1.498 . S
C482 O500 1.258 . S
C482 O501 1.239 1_655 S
C483 C482 1.498 . S
C483 C484 1.366 . S
C483 C488 1.407 . S
C484 C483 1.366 . S
C484 C485 1.392 . S
C484 H512 0.930 . S
C485 C484 1.392 . S
C485 C486 1.398 . S
C485 H513 0.929 . S
C486 C485 1.398 . S
C486 C487 1.352 . S
C487 C486 1.352 . S
C487 C488 1.384 . S
C487 H514 0.930 . S
C488 C483 1.407 . S
C488 C487 1.384 . S
C488 H515 0.929 1_655 S
C489 O502 1.241 . S
C489 O503 1.273 1_565 S
C490 O504 1.251 . S
C490 O505 1.268 . S
C491 Nd481 2.836 . S
C491 C492 1.498 1_556 S
C491 O506 1.258 . S
C491 O507 1.239 . S
C492 C491 1.498 1_554 S
C492 C493 1.366 1_554 S
C492 C497 1.407 . S
C493 C492 1.366 1_556 S
C493 C494 1.392 1_556 S
C493 H516 0.930 . S
C494 C493 1.392 1_554 S
C494 C495 1.398 . S
C494 H517 0.929 . S
C495 C494 1.398 . S
C495 C496 1.352 . S
C496 C495 1.352 . S
C496 C497 1.384 . S
C496 H518 0.930 . S
C497 C492 1.407 . S
C497 C496 1.384 . S
C497 H519 0.929 . S
C498 O508 1.241 . S
C498 O509 1.250 1_545 S
C499 O510 1.251 . S
C499 O511 1.268 . S
O500 Nd480 2.500 1_655 S
O500 C482 1.258 . S
O501 Nd480 2.492 . S
O501 C482 1.239 1_455 S
O502 Nd480 2.487 . S
O502 C489 1.241 . S
O503 Nd480 2.682 1_545 S
O503 Nd481 2.414 . S
O503 C489 1.273 1_545 S
O504 Nd480 2.410 . S
O504 C490 1.251 . S
O505 Nd481 2.424 1_565 S
O505 C490 1.268 . S
O506 Nd481 2.500 . S
O506 C491 1.258 . S
O507 Nd481 2.492 . S
O507 C491 1.239 . S
O508 Nd481 2.487 1_655 S
O508 C498 1.241 . S
O509 Nd480 2.430 1_655 S
O509 Nd481 2.678 1_665 S
O509 C498 1.250 1_565 S
O510 Nd481 2.410 . S
O510 C499 1.251 . S
O511 Nd480 2.424 1_545 S
O511 C499 1.268 . S
H512 C484 0.930 . S
H513 C485 0.929 . S
H514 C487 0.930 . S
H515 C488 0.929 1_455 S
H516 C493 0.930 . S
H517 C494 0.929 . S
H518 C496 0.930 . S
H519 C497 0.929 . S
Nd520 C522 2.836 . S
Nd520 O540 2.500 . S
Nd520 O541 2.492 . S
Nd520 O542 2.487 1_565 S
Nd520 O543 2.682 1_565 S
Nd520 O544 2.410 1_565 S
Nd520 O549 2.414 . S
Nd520 O551 2.424 . S
Nd521 C531 2.836 . S
Nd521 O543 2.414 . S
Nd521 O545 2.424 . S
Nd521 O546 2.500 . S
Nd521 O547 2.503 . S
Nd521 O548 2.487 1_545 S
Nd521 O549 2.682 1_545 S
Nd521 O550 2.410 1_545 S
C522 Nd520 2.836 . S
C522 C523 1.498 . S
C522 O540 1.258 . S
C522 O541 1.239 . S
C523 C522 1.498 . S
C523 C524 1.366 . S
C523 C528 1.407 . S
C524 C523 1.366 . S
C524 C525 1.392 . S
C524 H552 0.930 . S
C525 C524 1.392 . S
C525 C526 1.398 . S
C525 H553 0.929 . S
C526 C525 1.398 . S
C526 C527 1.352 . S
C527 C526 1.352 . S
C527 C528 1.384 . S
C527 H554 0.930 . S
C528 C523 1.407 . S
C528 C527 1.384 . S
C528 H555 0.929 1_565 S
C529 O542 1.241 . S
C529 O543 1.273 . S
C530 O544 1.251 . S
C530 O545 1.268 . S
C531 Nd521 2.836 . S
C531 C532 1.498 1_556 S
C531 O546 1.258 . S
C531 O547 1.243 . S
C532 C531 1.498 1_554 S
C532 C533 1.366 1_554 S
C532 C537 1.407 . S
C533 C532 1.366 1_556 S
C533 C534 1.392 1_556 S
C533 H556 0.930 . S
C534 C533 1.392 1_554 S
C534 C535 1.398 . S
C534 H557 0.929 . S
C535 C534 1.398 . S
C535 C536 1.352 . S
C536 C535 1.352 . S
C536 C537 1.384 . S
C536 H558 0.930 . S
C537 C532 1.407 . S
C537 C536 1.384 . S
C537 H559 0.929 1_545 S
C538 O548 1.241 . S
C538 O549 1.273 . S
C539 O550 1.251 . S
C539 O551 1.268 . S
O540 Nd520 2.500 . S
O540 C522 1.258 . S
O541 Nd520 2.492 . S
O541 C522 1.239 . S
O542 Nd520 2.487 1_545 S
O542 C529 1.241 . S
O543 Nd520 2.682 1_545 S
O543 Nd521 2.414 . S
O543 C529 1.273 . S
O544 Nd520 2.410 1_545 S
O544 C530 1.251 . S
O545 Nd521 2.424 . S
O545 C530 1.268 . S
O546 Nd521 2.500 . S
O546 C531 1.258 . S
O547 Nd521 2.503 . S
O547 C531 1.243 . S
O548 Nd521 2.487 1_565 S
O548 C538 1.241 . S
O549 Nd520 2.414 . S
O549 Nd521 2.682 1_565 S
O549 C538 1.273 . S
O550 Nd521 2.410 1_565 S
O550 C539 1.251 . S
O551 Nd520 2.424 . S
O551 C539 1.268 . S
H552 C524 0.930 . S
H553 C525 0.929 . S
H554 C527 0.930 . S
H555 C528 0.929 1_545 S
H556 C533 0.930 . S
H557 C534 0.929 . S
H558 C536 0.930 . S
H559 C537 0.929 1_565 S
Nd560 C562 2.836 . S
Nd560 O580 2.500 . S
Nd560 O581 2.492 . S
Nd560 O582 2.487 . S
Nd560 O583 2.682 . S
Nd560 O584 2.410 . S
Nd560 O589 2.414 . S
Nd560 O591 2.424 . S
Nd561 C571 2.836 . S
Nd561 O583 2.414 . S
Nd561 O585 2.424 . S
Nd561 O586 2.500 . S
Nd561 O587 2.492 . S
Nd561 O588 2.487 . S
Nd561 O589 2.682 . S
Nd561 O590 2.410 . S
C562 Nd560 2.836 . S
C562 C563 1.498 . S
C562 O580 1.258 . S
C562 O581 1.239 . S
C563 C562 1.498 . S
C563 C564 1.366 . S
C563 C568 1.407 . S
C564 C563 1.366 . S
C564 C565 1.392 . S
C564 H592 0.930 . S
C565 C564 1.392 . S
C565 C566 1.398 . S
C565 H593 0.929 . S
C566 C565 1.398 . S
C566 C567 1.352 1_556 S
C567 C566 1.352 1_554 S
C567 C568 1.384 1_554 S
C567 H594 0.930 . S
C568 C563 1.407 . S
C568 C567 1.384 1_556 S
C568 H595 0.929 1_556 S
C569 O582 1.241 . S
C569 O583 1.273 . S
C570 O584 1.251 . S
C570 O585 1.268 . S
C571 Nd561 2.836 . S
C571 C572 1.498 . S
C571 O586 1.258 . S
C571 O587 1.239 . S
C572 C571 1.498 . S
C572 C573 1.366 . S
C572 C577 1.407 . S
C573 C572 1.366 . S
C573 C574 1.392 . S
C573 H596 0.930 . S
C574 C573 1.392 . S
C574 C575 1.398 . S
C574 H597 0.929 . S
C575 C574 1.398 . S
C575 C576 1.352 . S
C576 C575 1.352 . S
C576 C577 1.384 . S
C576 H598 0.930 . S
C577 C572 1.407 . S
C577 C576 1.384 . S
C577 H599 0.929 . S
C578 O588 1.241 . S
C578 O589 1.273 . S
C579 O590 1.251 . S
C579 O591 1.268 . S
O580 Nd560 2.500 . S
O580 C562 1.258 . S
O581 Nd560 2.492 . S
O581 C562 1.239 . S
O582 Nd560 2.487 . S
O582 C569 1.241 . S
O583 Nd560 2.682 . S
O583 Nd561 2.414 . S
O583 C569 1.273 . S
O584 Nd560 2.410 . S
O584 C570 1.251 . S
O585 Nd561 2.424 . S
O585 C570 1.268 . S
O586 Nd561 2.500 . S
O586 C571 1.258 . S
O587 Nd561 2.492 . S
O587 C571 1.239 . S
O588 Nd561 2.487 . S
O588 C578 1.241 . S
O589 Nd560 2.414 . S
O589 Nd561 2.682 . S
O589 C578 1.273 . S
O590 Nd561 2.410 . S
O590 C579 1.251 . S
O591 Nd560 2.424 . S
O591 C579 1.268 . S
H592 C564 0.930 . S
H593 C565 0.929 . S
H594 C567 0.930 . S
H595 C568 0.929 1_554 S
H596 C573 0.930 . S
H597 C574 0.929 . S
H598 C576 0.930 . S
H599 C577 0.929 . S
Nd600 C602 2.836 1_455 S
Nd600 O620 2.500 1_455 S
Nd600 O621 2.492 1_455 S
Nd600 O622 2.487 . S
Nd600 O623 2.682 . S
Nd600 O624 2.410 1_455 S
Nd600 O629 2.414 . S
Nd600 O631 2.424 . S
Nd601 C611 2.836 . S
Nd601 O623 2.414 . S
Nd601 O625 2.424 1_455 S
Nd601 O626 2.500 . S
Nd601 O627 2.492 . S
Nd601 O628 2.487 . S
Nd601 O629 2.682 . S
Nd601 O630 2.410 . S
C602 Nd600 2.836 1_655 S
C602 C603 1.498 . S
C602 O620 1.258 . S
C602 O621 1.239 . S
C603 C602 1.498 . S
C603 C604 1.366 . S
C603 C608 1.407 . S
C604 C603 1.366 . S
C604 C605 1.392 . S
C604 H632 0.930 . S
C605 C604 1.392 . S
C605 C606 1.398 . S
C605 H633 0.929 . S
C606 C605 1.398 . S
C606 C607 1.352 . S
C607 C606 1.352 . S
C607 C608 1.384 . S
C607 H634 0.930 . S
C608 C603 1.407 . S
C608 C607 1.384 . S
C608 H635 0.929 . S
C609 O622 1.241 . S
C609 O623 1.273 . S
C610 O624 1.251 . S
C610 O625 1.268 . S
C611 Nd601 2.836 . S
C611 C612 1.498 1_556 S
C611 O626 1.258 . S
C611 O627 1.239 . S
C612 C611 1.498 1_554 S
C612 C613 1.366 . S
C612 C617 1.407 . S
C613 C612 1.366 . S
C613 C614 1.392 . S
C613 H636 0.930 1_554 S
C614 C613 1.392 . S
C614 C615 1.398 . S
C614 H637 0.929 . S
C615 C614 1.398 . S
C615 C616 1.352 . S
C616 C615 1.352 . S
C616 C617 1.384 . S
C616 H638 0.930 . S
C617 C612 1.407 . S
C617 C616 1.384 . S
C617 H639 0.929 . S
C618 O628 1.241 . S
C618 O629 1.273 . S
C619 O630 1.251 . S
C619 O631 1.268 . S
O620 Nd600 2.500 1_655 S
O620 C602 1.258 . S
O621 Nd600 2.492 1_655 S
O621 C602 1.239 . S
O622 Nd600 2.487 . S
O622 C609 1.241 . S
O623 Nd600 2.682 . S
O623 Nd601 2.414 . S
O623 C609 1.273 . S
O624 Nd600 2.410 1_655 S
O624 C610 1.251 . S
O625 Nd601 2.424 1_655 S
O625 C610 1.268 . S
O626 Nd601 2.500 . S
O626 C611 1.258 . S
O627 Nd601 2.492 . S
O627 C611 1.239 . S
O628 Nd601 2.487 . S
O628 C618 1.241 . S
O629 Nd600 2.414 . S
O629 Nd601 2.682 . S
O629 C618 1.273 . S
O630 Nd601 2.410 . S
O630 C619 1.251 . S
O631 Nd600 2.424 . S
O631 C619 1.268 . S
H632 C604 0.930 . S
H633 C605 0.929 . S
H634 C607 0.930 . S
H635 C608 0.929 . S
H636 C613 0.930 1_556 S
H637 C614 0.929 . S
H638 C616 0.930 . S
H639 C617 0.929 . S
C640 C641 1.397 . S
C640 C642 1.394 . S
C640 H656 0.931 . S
C641 C640 1.397 . S
C641 C645 1.368 1_565 S
C642 C640 1.394 . S
C642 C643 1.369 . S
C642 C646 1.531 . S
C643 C642 1.369 . S
C643 C644 1.410 1_565 S
C643 C651 1.503 . S
C644 C643 1.410 1_545 S
C644 C645 1.392 . S
C644 C647 1.511 . S
C645 C641 1.368 1_545 S
C645 C644 1.392 . S
C645 H657 0.929 . S
C646 C642 1.531 . S
C646 H658 0.960 . S
C646 H659 0.962 . S
C646 H660 0.960 . S
C647 C644 1.511 . S
C647 H661 0.961 . S
C647 H662 0.961 . S
C647 H663 0.961 . S
C648 C649 1.370 . S
C648 C650 1.361 . S
C648 H664 0.931 1_565 S
C649 C648 1.370 . S
C649 C653 1.408 . S
C650 C648 1.361 . S
C650 C651 1.372 . S
C650 C654 1.525 1_565 S
C651 C643 1.503 . S
C651 C650 1.372 . S
C651 C652 1.403 . S
C652 C651 1.403 . S
C652 C653 1.404 . S
C652 C655 1.539 . S
C653 C649 1.408 . S
C653 C652 1.404 . S
C653 H665 0.930 . S
C654 C650 1.525 1_545 S
C654 H666 0.956 1_545 S
C654 H667 0.961 . S
C654 H668 0.961 . S
C655 C652 1.539 . S
C655 H669 0.958 . S
C655 H670 0.978 . S
C655 H671 0.952 1_565 S
H656 C640 0.931 . S
H657 C645 0.929 . S
H658 C646 0.960 . S
H659 C646 0.962 . S
H660 C646 0.960 . S
H661 C647 0.961 . S
H662 C647 0.961 . S
H663 C647 0.961 . S
H664 C648 0.931 1_545 S
H665 C653 0.930 . S
H666 C654 0.956 1_565 S
H667 C654 0.961 . S
H668 C654 0.961 . S
H669 C655 0.958 . S
H670 C655 0.978 . S
H671 C655 0.952 1_545 S
C672 C673 1.391 . S
C672 C674 1.394 . S
C672 H688 0.931 . S
C673 C672 1.391 . S
C673 C677 1.376 . S
C674 C672 1.394 . S
C674 C675 1.369 . S
C674 C678 1.531 . S
C675 C674 1.369 . S
C675 C676 1.410 . S
C675 C683 1.503 . S
C676 C675 1.410 . S
C676 C677 1.392 . S
C676 C679 1.511 . S
C677 C673 1.376 . S
C677 C676 1.392 . S
C677 H689 0.929 . S
C678 C674 1.531 . S
C678 H690 0.960 . S
C678 H691 0.962 . S
C678 H692 0.960 . S
C679 C676 1.511 . S
C679 H693 0.961 . S
C679 H694 0.961 . S
C679 H695 0.961 . S
C680 C681 1.370 . S
C680 C682 1.363 . S
C680 H696 0.931 . S
C681 C680 1.370 . S
C681 C685 1.408 . S
C682 C680 1.363 . S
C682 C683 1.370 . S
C682 C686 1.524 . S
C683 C675 1.503 . S
C683 C682 1.370 . S
C683 C684 1.403 . S
C684 C683 1.403 . S
C684 C685 1.404 . S
C684 C687 1.539 . S
C685 C681 1.408 . S
C685 C684 1.404 . S
C685 H697 0.930 . S
C686 C682 1.524 . S
C686 H698 0.956 . S
C686 H699 0.961 . S
C686 H700 0.961 . S
C687 C684 1.539 . S
C687 H701 0.958 . S
C687 H702 0.961 . S
C687 H703 0.960 . S
H688 C672 0.931 . S
H689 C677 0.929 . S
H690 C678 0.960 . S
H691 C678 0.962 . S
H692 C678 0.960 . S
H693 C679 0.961 . S
H694 C679 0.961 . S
H695 C679 0.961 . S
H696 C680 0.931 . S
H697 C685 0.930 . S
H698 C686 0.956 . S
H699 C686 0.961 . S
H700 C686 0.961 . S
H701 C687 0.958 . S
H702 C687 0.961 . S
H703 C687 0.960 . S
C704 C705 1.391 . S
C704 C706 1.394 . S
C704 H720 0.931 . S
C705 C704 1.391 . S
C705 C709 1.376 . S
C706 C704 1.394 . S
C706 C707 1.369 . S
C706 C710 1.531 . S
C707 C706 1.369 . S
C707 C708 1.410 . S
C707 C715 1.503 . S
C708 C707 1.410 . S
C708 C709 1.392 . S
C708 C711 1.511 . S
C709 C705 1.376 . S
C709 C708 1.392 . S
C709 H721 0.929 . S
C710 C706 1.531 . S
C710 H722 0.960 . S
C710 H723 0.962 . S
C710 H724 0.960 . S
C711 C708 1.511 . S
C711 H725 0.961 . S
C711 H726 0.961 . S
C711 H727 0.961 . S
C712 C713 1.370 . S
C712 C714 1.363 . S
C712 H728 0.931 . S
C713 C712 1.370 . S
C713 C717 1.408 . S
C714 C712 1.363 . S
C714 C715 1.370 . S
C714 C718 1.524 . S
C715 C707 1.503 . S
C715 C714 1.370 . S
C715 C716 1.403 . S
C716 C715 1.403 . S
C716 C717 1.404 . S
C716 C719 1.539 . S
C717 C713 1.408 . S
C717 C716 1.404 . S
C717 H729 0.930 . S
C718 C714 1.524 . S
C718 H730 0.956 . S
C718 H731 0.961 . S
C718 H732 0.961 . S
C719 C716 1.539 . S
C719 H733 0.958 . S
C719 H734 0.961 . S
C719 H735 0.960 . S
H720 C704 0.931 . S
H721 C709 0.929 . S
H722 C710 0.960 . S
H723 C710 0.962 . S
H724 C710 0.960 . S
H725 C711 0.961 . S
H726 C711 0.961 . S
H727 C711 0.961 . S
H728 C712 0.931 . S
H729 C717 0.930 . S
H730 C718 0.956 . S
H731 C718 0.961 . S
H732 C718 0.961 . S
H733 C719 0.958 . S
H734 C719 0.961 . S
H735 C719 0.960 . S
C736 C737 1.391 . S
C736 C738 1.394 . S
C736 H752 0.931 . S
C737 C736 1.391 . S
C737 C741 1.376 . S
C738 C736 1.394 . S
C738 C739 1.369 . S
C738 C742 1.531 . S
C739 C738 1.369 . S
C739 C740 1.410 . S
C739 C747 1.503 . S
C740 C739 1.410 . S
C740 C741 1.392 . S
C740 C743 1.511 . S
C741 C737 1.376 . S
C741 C740 1.392 . S
C741 H753 0.929 . S
C742 C738 1.531 . S
C742 H754 0.960 . S
C742 H755 0.962 . S
C742 H756 0.960 . S
C743 C740 1.511 . S
C743 H757 0.961 . S
C743 H758 0.961 . S
C743 H759 0.961 . S
C744 C745 1.370 . S
C744 C746 1.363 . S
C744 H760 0.931 . S
C745 C744 1.370 . S
C745 C749 1.408 . S
C746 C744 1.363 . S
C746 C747 1.370 . S
C746 C750 1.524 . S
C747 C739 1.503 . S
C747 C746 1.370 . S
C747 C748 1.403 . S
C748 C747 1.403 . S
C748 C749 1.404 . S
C748 C751 1.539 . S
C749 C745 1.408 . S
C749 C748 1.404 . S
C749 H761 0.930 . S
C750 C746 1.524 . S
C750 H762 0.956 . S
C750 H763 0.961 . S
C750 H764 0.961 . S
C751 C748 1.539 . S
C751 H765 0.958 . S
C751 H766 0.961 . S
C751 H767 0.960 . S
H752 C736 0.931 . S
H753 C741 0.929 . S
H754 C742 0.960 . S
H755 C742 0.962 . S
H756 C742 0.960 . S
H757 C743 0.961 . S
H758 C743 0.961 . S
H759 C743 0.961 . S
H760 C744 0.931 . S
H761 C749 0.930 . S
H762 C750 0.956 . S
H763 C750 0.961 . S
H764 C750 0.961 . S
H765 C751 0.958 . S
H766 C751 0.961 . S
H767 C751 0.960 . S
C768 C769 1.416 . S
C768 C770 1.394 . S
C768 H784 0.931 . S
C769 C768 1.416 . S
C769 C773 1.345 1_545 S
C770 C768 1.394 . S
C770 C771 1.369 . S
C770 C774 1.531 . S
C771 C770 1.369 . S
C771 C772 1.410 1_545 S
C771 C779 1.503 . S
C772 C771 1.410 1_565 S
C772 C773 1.392 . S
C772 C775 1.511 . S
C773 C769 1.345 1_565 S
C773 C772 1.392 . S
C773 H785 0.929 . S
C774 C770 1.531 . S
C774 H786 0.960 . S
C774 H787 0.962 . S
C774 H788 0.960 . S
C775 C772 1.511 . S
C775 H789 0.961 . S
C775 H790 0.961 . S
C775 H791 0.961 1_556 S
C776 C777 1.370 1_565 S
C776 C778 1.363 . S
C776 H792 0.931 . S
C777 C776 1.370 1_545 S
C777 C781 1.408 . S
C778 C776 1.363 . S
C778 C779 1.370 1_565 S
C778 C782 1.524 . S
C779 C771 1.503 . S
C779 C778 1.370 1_545 S
C779 C780 1.403 . S
C780 C779 1.403 . S
C780 C781 1.404 . S
C780 C783 1.539 . S
C781 C777 1.408 . S
C781 C780 1.404 . S
C781 H793 0.930 . S
C782 C778 1.524 . S
C782 H794 0.956 1_565 S
C782 H795 0.961 . S
C782 H796 0.961 . S
C783 C780 1.539 . S
C783 H797 0.958 . S
C783 H798 0.961 1_556 S
C783 H799 0.960 1_556 S
H784 C768 0.931 . S
H785 C773 0.929 . S
H786 C774 0.960 . S
H787 C774 0.962 . S
H788 C774 0.960 . S
H789 C775 0.961 . S
H790 C775 0.961 . S
H791 C775 0.961 1_554 S
H792 C776 0.931 . S
H793 C781 0.930 . S
H794 C782 0.956 1_545 S
H795 C782 0.961 . S
H796 C782 0.961 . S
H797 C783 0.958 . S
H798 C783 0.961 1_554 S
H799 C783 0.960 1_554 S
C800 C801 1.391 . S
C800 C802 1.394 . S
C800 H816 0.931 . S
C801 C800 1.391 . S
C801 C805 1.376 . S
C802 C800 1.394 . S
C802 C803 1.369 . S
C802 C806 1.531 . S
C803 C802 1.369 . S
C803 C804 1.410 . S
C803 C811 1.503 . S
C804 C803 1.410 . S
C804 C805 1.392 . S
C804 C807 1.511 . S
C805 C801 1.376 . S
C805 C804 1.392 . S
C805 H817 0.929 . S
C806 C802 1.531 . S
C806 H818 0.960 . S
C806 H819 0.962 . S
C806 H820 0.960 . S
C807 C804 1.511 . S
C807 H821 0.961 . S
C807 H822 0.961 . S
C807 H823 0.961 . S
C808 C809 1.370 . S
C808 C810 1.363 1_556 S
C808 H824 0.931 . S
C809 C808 1.370 . S
C809 C813 1.408 1_556 S
C810 C808 1.363 1_554 S
C810 C811 1.370 . S
C810 C814 1.524 . S
C811 C803 1.503 . S
C811 C810 1.370 . S
C811 C812 1.403 . S
C812 C811 1.403 . S
C812 C813 1.404 . S
C812 C815 1.539 . S
C813 C809 1.408 1_554 S
C813 C812 1.404 . S
C813 H825 0.930 1_554 S
C814 C810 1.524 . S
C814 H826 0.956 . S
C814 H827 0.961 . S
C814 H828 0.961 1_554 S
C815 C812 1.539 . S
C815 H829 0.958 . S
C815 H830 0.961 . S
C815 H831 0.960 . S
H816 C800 0.931 . S
H817 C805 0.929 . S
H818 C806 0.960 . S
H819 C806 0.962 . S
H820 C806 0.960 . S
H821 C807 0.961 . S
H822 C807 0.961 . S
H823 C807 0.961 . S
H824 C808 0.931 . S
H825 C813 0.930 1_556 S
H826 C814 0.956 . S
H827 C814 0.961 . S
H828 C814 0.961 1_556 S
H829 C815 0.958 . S
H830 C815 0.961 . S
H831 C815 0.960 . S
C832 C833 1.391 . S
C832 C834 1.394 . S
C832 H848 0.931 . S
C833 C832 1.391 . S
C833 C837 1.376 1_556 S
C834 C832 1.394 . S
C834 C835 1.369 . S
C834 C838 1.531 . S
C835 C834 1.369 . S
C835 C836 1.410 . S
C835 C843 1.503 . S
C836 C835 1.410 . S
C836 C837 1.392 1_556 S
C836 C839 1.511 1_556 S
C837 C833 1.376 1_554 S
C837 C836 1.392 1_554 S
C837 H849 0.929 . S
C838 C834 1.531 . S
C838 H850 0.960 . S
C838 H851 0.962 . S
C838 H852 0.960 . S
C839 C836 1.511 1_554 S
C839 H853 0.961 . S
C839 H854 0.961 . S
C839 H855 0.961 1_554 S
C840 C841 1.370 . S
C840 C842 1.363 . S
C840 H856 0.931 . S
C841 C840 1.370 . S
C841 C845 1.408 . S
C842 C840 1.363 . S
C842 C843 1.370 . S
C842 C846 1.524 . S
C843 C835 1.503 . S
C843 C842 1.370 . S
C843 C844 1.403 . S
C844 C843 1.403 . S
C844 C845 1.404 . S
C844 C847 1.539 . S
C845 C841 1.408 . S
C845 C844 1.404 . S
C845 H857 0.930 . S
C846 C842 1.524 . S
C846 H858 0.956 . S
C846 H859 0.961 1_556 S
C846 H860 0.961 1_556 S
C847 C844 1.539 . S
C847 H861 0.958 . S
C847 H862 0.961 . S
C847 H863 0.960 . S
H848 C832 0.931 . S
H849 C837 0.929 . S
H850 C838 0.960 . S
H851 C838 0.962 . S
H852 C838 0.960 . S
H853 C839 0.961 . S
H854 C839 0.961 . S
H855 C839 0.961 1_556 S
H856 C840 0.931 . S
H857 C845 0.930 . S
H858 C846 0.956 . S
H859 C846 0.961 1_554 S
H860 C846 0.961 1_554 S
H861 C847 0.958 . S
H862 C847 0.961 . S
H863 C847 0.960 . S
C864 C865 1.384 1_556 S
C864 C866 1.394 . S
C864 H880 0.931 . S
C865 C864 1.384 1_554 S
C865 C869 1.378 . S
C866 C864 1.394 . S
C866 C867 1.369 . S
C866 C870 1.531 . S
C867 C866 1.369 . S
C867 C868 1.410 1_556 S
C867 C875 1.503 . S
C868 C867 1.410 1_554 S
C868 C869 1.392 . S
C868 C871 1.511 . S
C869 C865 1.378 . S
C869 C868 1.392 . S
C869 H881 0.929 . S
C870 C866 1.531 . S
C870 H882 0.960 . S
C870 H883 0.962 . S
C870 H884 0.960 . S
C871 C868 1.511 . S
C871 H885 0.961 . S
C871 H886 0.961 1_554 S
C871 H887 0.961 . S
C872 C873 1.370 . S
C872 C874 1.363 . S
C872 H888 0.931 . S
C873 C872 1.370 . S
C873 C877 1.408 . S
C874 C872 1.363 . S
C874 C875 1.370 . S
C874 C878 1.524 . S
C875 C867 1.503 . S
C875 C874 1.370 . S
C875 C876 1.403 . S
C876 C875 1.403 . S
C876 C877 1.404 . S
C876 C879 1.539 1_556 S
C877 C873 1.408 . S
C877 C876 1.404 . S
C877 H889 0.930 1_655 S
C878 C874 1.524 . S
C878 H890 0.956 . S
C878 H891 0.961 . S
C878 H892 0.961 . S
C879 C876 1.539 1_554 S
C879 H893 0.958 . S
C879 H894 0.961 . S
C879 H895 0.960 . S
H880 C864 0.931 . S
H881 C869 0.929 . S
H882 C870 0.960 . S
H883 C870 0.962 . S
H884 C870 0.960 . S
H885 C871 0.961 . S
H886 C871 0.961 1_556 S
H887 C871 0.961 . S
H888 C872 0.931 . S
H889 C877 0.930 1_455 S
H890 C878 0.956 . S
H891 C878 0.961 . S
H892 C878 0.961 . S
H893 C879 0.958 . S
H894 C879 0.961 . S
H895 C879 0.960 . S
C896 C897 1.391 . S
C896 C898 1.394 . S
C896 H912 0.931 . S
C897 C896 1.391 . S
C897 C901 1.376 . S
C898 C896 1.394 . S
C898 C899 1.369 . S
C898 C902 1.531 . S
C899 C898 1.369 . S
C899 C900 1.410 . S
C899 C907 1.503 . S
C900 C899 1.410 . S
C900 C901 1.392 . S
C900 C903 1.511 . S
C901 C897 1.376 . S
C901 C900 1.392 . S
C901 H913 0.929 . S
C902 C898 1.531 . S
C902 H914 0.960 . S
C902 H915 0.962 . S
C902 H916 0.960 . S
C903 C900 1.511 . S
C903 H917 0.961 . S
C903 H918 0.961 . S
C903 H919 0.961 . S
C904 C905 1.370 . S
C904 C906 1.363 . S
C904 H920 0.931 . S
C905 C904 1.370 . S
C905 C909 1.408 . S
C906 C904 1.363 . S
C906 C907 1.370 . S
C906 C910 1.524 . S
C907 C899 1.503 . S
C907 C906 1.370 . S
C907 C908 1.403 . S
C908 C907 1.403 . S
C908 C909 1.404 . S
C908 C911 1.539 . S
C909 C905 1.408 . S
C909 C908 1.404 . S
C909 H921 0.930 . S
C910 C906 1.524 . S
C910 H922 0.956 . S
C910 H923 0.961 . S
C910 H924 0.961 . S
C911 C908 1.539 . S
C911 H925 0.958 . S
C911 H926 0.961 . S
C911 H927 0.960 . S
H912 C896 0.931 . S
H913 C901 0.929 . S
H914 C902 0.960 . S
H915 C902 0.962 . S
H916 C902 0.960 . S
H917 C903 0.961 . S
H918 C903 0.961 . S
H919 C903 0.961 . S
H920 C904 0.931 . S
H921 C909 0.930 . S
H922 C910 0.956 . S
H923 C910 0.961 . S
H924 C910 0.961 . S
H925 C911 0.958 . S
H926 C911 0.961 . S
H927 C911 0.960 . S
C928 C929 1.391 . S
C928 C930 1.394 . S
C928 H944 0.931 . S
C929 C928 1.391 . S
C929 C933 1.376 1_545 S
C930 C928 1.394 . S
C930 C931 1.369 1_545 S
C930 C934 1.531 . S
C931 C930 1.369 1_565 S
C931 C932 1.410 . S
C931 C939 1.503 . S
C932 C931 1.410 . S
C932 C933 1.392 . S
C932 C935 1.511 . S
C933 C929 1.376 1_565 S
C933 C932 1.392 . S
C933 H945 0.929 . S
C934 C930 1.531 . S
C934 H946 0.960 . S
C934 H947 0.962 1_545 S
C934 H948 0.960 . S
C935 C932 1.511 . S
C935 H949 0.961 . S
C935 H950 0.961 . S
C935 H951 0.948 1_565 S
C936 C937 1.370 . S
C936 C938 1.363 . S
C936 H952 0.931 . S
C937 C936 1.370 . S
C937 C941 1.408 1_565 S
C938 C936 1.363 . S
C938 C939 1.370 . S
C938 C942 1.524 . S
C939 C931 1.503 . S
C939 C938 1.370 . S
C939 C940 1.403 1_565 S
C940 C939 1.403 1_545 S
C940 C941 1.404 . S
C940 C943 1.539 . S
C941 C937 1.408 1_545 S
C941 C940 1.404 . S
C941 H953 0.930 . S
C942 C938 1.524 . S
C942 H954 0.956 . S
C942 H955 0.961 . S
C942 H956 0.961 . S
C943 C940 1.539 . S
C943 H957 0.958 . S
C943 H958 0.961 . S
C943 H959 0.960 . S
H944 C928 0.931 . S
H945 C933 0.929 . S
H946 C934 0.960 . S
H947 C934 0.962 1_565 S
H948 C934 0.960 . S
H949 C935 0.961 . S
H950 C935 0.961 . S
H951 C935 0.948 1_545 S
H952 C936 0.931 . S
H953 C941 0.930 . S
H954 C942 0.956 . S
H955 C942 0.961 . S
H956 C942 0.961 . S
H957 C943 0.958 . S
H958 C943 0.961 . S
H959 C943 0.960 . S
C960 C961 1.391 . S
C960 C962 1.394 . S
C960 H976 0.931 . S
C961 C960 1.391 . S
C961 C965 1.376 . S
C962 C960 1.394 . S
C962 C963 1.369 . S
C962 C966 1.531 . S
C963 C962 1.369 . S
C963 C964 1.410 . S
C963 C971 1.503 . S
C964 C963 1.410 . S
C964 C965 1.392 . S
C964 C967 1.511 . S
C965 C961 1.376 . S
C965 C964 1.392 . S
C965 H977 0.929 . S
C966 C962 1.531 . S
C966 H978 0.960 . S
C966 H979 0.962 . S
C966 H980 0.960 . S
C967 C964 1.511 . S
C967 H981 0.961 . S
C967 H982 0.961 . S
C967 H983 0.961 . S
C968 C969 1.370 . S
C968 C970 1.363 . S
C968 H984 0.931 . S
C969 C968 1.370 . S
C969 C973 1.408 . S
C970 C968 1.363 . S
C970 C971 1.370 . S
C970 C974 1.524 . S
C971 C963 1.503 . S
C971 C970 1.370 . S
C971 C972 1.403 . S
C972 C971 1.403 . S
C972 C973 1.404 . S
C972 C975 1.539 . S
C973 C969 1.408 . S
C973 C972 1.404 . S
C973 H985 0.930 . S
C974 C970 1.524 . S
C974 H986 0.956 . S
C974 H987 0.961 . S
C974 H988 0.961 . S
C975 C972 1.539 . S
C975 H989 0.958 . S
C975 H990 0.961 . S
C975 H991 0.960 . S
H976 C960 0.931 . S
H977 C965 0.929 . S
H978 C966 0.960 . S
H979 C966 0.962 . S
H980 C966 0.960 . S
H981 C967 0.961 . S
H982 C967 0.961 . S
H983 C967 0.961 . S
H984 C968 0.931 . S
H985 C973 0.930 . S
H986 C974 0.956 . S
H987 C974 0.961 . S
H988 C974 0.961 . S
H989 C975 0.958 . S
H990 C975 0.961 . S
H991 C975 0.960 . S
C992 C993 1.391 . S
C992 C994 1.394 . S
C992 H1008 0.931 . S
C993 C992 1.391 . S
C993 C997 1.376 . S
C994 C992 1.394 . S
C994 C995 1.369 . S
C994 C998 1.531 . S
C995 C994 1.369 . S
C995 C996 1.410 . S
C995 C1003 1.503 . S
C996 C995 1.410 . S
C996 C997 1.392 . S
C996 C999 1.511 . S
C997 C993 1.376 . S
C997 C996 1.392 . S
C997 H1009 0.929 . S
C998 C994 1.531 . S
C998 H1010 0.960 . S
C998 H1011 0.962 . S
C998 H1012 0.960 . S
C999 C996 1.511 . S
C999 H1013 0.961 . S
C999 H1014 0.961 . S
C999 H1015 0.961 . S
C1000 C1001 1.370 . S
C1000 C1002 1.363 . S
C1000 H1016 0.931 . S
C1001 C1000 1.370 . S
C1001 C1005 1.408 . S
C1002 C1000 1.363 . S
C1002 C1003 1.370 . S
C1002 C1006 1.524 . S
C1003 C995 1.503 . S
C1003 C1002 1.370 . S
C1003 C1004 1.403 . S
C1004 C1003 1.403 . S
C1004 C1005 1.404 . S
C1004 C1007 1.539 . S
C1005 C1001 1.408 . S
C1005 C1004 1.404 . S
C1005 H1017 0.930 . S
C1006 C1002 1.524 . S
C1006 H1018 0.956 . S
C1006 H1019 0.961 . S
C1006 H1020 0.961 . S
C1007 C1004 1.539 . S
C1007 H1021 0.958 . S
C1007 H1022 0.961 . S
C1007 H1023 0.960 . S
H1008 C992 0.931 . S
H1009 C997 0.929 . S
H1010 C998 0.960 . S
H1011 C998 0.962 . S
H1012 C998 0.960 . S
H1013 C999 0.961 . S
H1014 C999 0.961 . S
H1015 C999 0.961 . S
H1016 C1000 0.931 . S
H1017 C1005 0.930 . S
H1018 C1006 0.956 . S
H1019 C1006 0.961 . S
H1020 C1006 0.961 . S
H1021 C1007 0.958 . S
H1022 C1007 0.961 . S
H1023 C1007 0.960 . S
C1024 C1025 1.391 . S
C1024 C1026 1.394 . S
C1024 H1040 0.931 . S
C1025 C1024 1.391 . S
C1025 C1029 1.376 . S
C1026 C1024 1.394 . S
C1026 C1027 1.369 . S
C1026 C1030 1.531 . S
C1027 C1026 1.369 . S
C1027 C1028 1.410 . S
C1027 C1035 1.503 . S
C1028 C1027 1.410 . S
C1028 C1029 1.392 . S
C1028 C1031 1.511 . S
C1029 C1025 1.376 . S
C1029 C1028 1.392 . S
C1029 H1041 0.929 . S
C1030 C1026 1.531 . S
C1030 H1042 0.960 . S
C1030 H1043 0.962 . S
C1030 H1044 0.960 . S
C1031 C1028 1.511 . S
C1031 H1045 0.961 . S
C1031 H1046 0.961 . S
C1031 H1047 0.961 . S
C1032 C1033 1.370 . S
C1032 C1034 1.363 . S
C1032 H1048 0.931 . S
C1033 C1032 1.370 . S
C1033 C1037 1.408 . S
C1034 C1032 1.363 . S
C1034 C1035 1.370 . S
C1034 C1038 1.524 . S
C1035 C1027 1.503 . S
C1035 C1034 1.370 . S
C1035 C1036 1.403 . S
C1036 C1035 1.403 . S
C1036 C1037 1.404 . S
C1036 C1039 1.539 . S
C1037 C1033 1.408 . S
C1037 C1036 1.404 . S
C1037 H1049 0.930 1_655 S
C1038 C1034 1.524 . S
C1038 H1050 0.956 . S
C1038 H1051 0.961 . S
C1038 H1052 0.961 . S
C1039 C1036 1.539 . S
C1039 H1053 0.958 . S
C1039 H1054 0.961 . S
C1039 H1055 0.960 . S
H1040 C1024 0.931 . S
H1041 C1029 0.929 . S
H1042 C1030 0.960 . S
H1043 C1030 0.962 . S
H1044 C1030 0.960 . S
H1045 C1031 0.961 . S
H1046 C1031 0.961 . S
H1047 C1031 0.961 . S
H1048 C1032 0.931 . S
H1049 C1037 0.930 1_455 S
H1050 C1038 0.956 . S
H1051 C1038 0.961 . S
H1052 C1038 0.961 . S
H1053 C1039 0.958 . S
H1054 C1039 0.961 . S
H1055 C1039 0.960 . S
C1056 C1057 1.391 1_545 S
C1056 C1058 1.394 . S
C1056 H1072 0.931 . S
C1057 C1056 1.391 1_565 S
C1057 C1061 1.376 . S
C1058 C1056 1.394 . S
C1058 C1059 1.369 . S
C1058 C1062 1.531 . S
C1059 C1058 1.369 . S
C1059 C1060 1.410 1_545 S
C1059 C1067 1.503 . S
C1060 C1059 1.410 1_565 S
C1060 C1061 1.392 . S
C1060 C1063 1.511 . S
C1061 C1057 1.376 . S
C1061 C1060 1.392 . S
C1061 H1073 0.929 . S
C1062 C1058 1.531 . S
C1062 H1074 0.960 . S
C1062 H1075 0.962 . S
C1062 H1076 0.960 . S
C1063 C1060 1.511 . S
C1063 H1077 0.961 . S
C1063 H1078 0.961 . S
C1063 H1079 0.961 . S
C1064 C1065 1.370 . S
C1064 C1066 1.363 . S
C1064 H1080 0.931 . S
C1065 C1064 1.370 . S
C1065 C1069 1.408 1_545 S
C1066 C1064 1.363 . S
C1066 C1067 1.370 . S
C1066 C1070 1.524 . S
C1067 C1059 1.503 . S
C1067 C1066 1.370 . S
C1067 C1068 1.403 1_545 S
C1068 C1067 1.403 1_565 S
C1068 C1069 1.404 . S
C1068 C1071 1.539 . S
C1069 C1065 1.408 1_565 S
C1069 C1068 1.404 . S
C1069 H1081 0.930 . S
C1070 C1066 1.524 . S
C1070 H1082 0.956 . S
C1070 H1083 0.961 . S
C1070 H1084 0.961 . S
C1071 C1068 1.539 . S
C1071 H1085 0.958 . S
C1071 H1086 0.961 . S
C1071 H1087 0.960 . S
H1072 C1056 0.931 . S
H1073 C1061 0.929 . S
H1074 C1062 0.960 . S
H1075 C1062 0.962 . S
H1076 C1062 0.960 . S
H1077 C1063 0.961 . S
H1078 C1063 0.961 . S
H1079 C1063 0.961 . S
H1080 C1064 0.931 . S
H1081 C1069 0.930 . S
H1082 C1070 0.956 . S
H1083 C1070 0.961 . S
H1084 C1070 0.961 . S
H1085 C1071 0.958 . S
H1086 C1071 0.961 . S
H1087 C1071 0.960 . S
C1088 C1089 1.391 . S
C1088 C1090 1.394 . S
C1088 H1104 0.931 . S
C1089 C1088 1.391 . S
C1089 C1093 1.376 . S
C1090 C1088 1.394 . S
C1090 C1091 1.369 . S
C1090 C1094 1.531 1_554 S
C1091 C1090 1.369 . S
C1091 C1092 1.410 . S
C1091 C1099 1.503 . S
C1092 C1091 1.410 . S
C1092 C1093 1.392 . S
C1092 C1095 1.511 . S
C1093 C1089 1.376 . S
C1093 C1092 1.392 . S
C1093 H1105 0.929 . S
C1094 C1090 1.531 1_556 S
C1094 H1106 0.960 . S
C1094 H1107 0.962 . S
C1094 H1108 0.960 . S
C1095 C1092 1.511 . S
C1095 H1109 0.961 . S
C1095 H1110 0.961 . S
C1095 H1111 0.961 . S
C1096 C1097 1.370 . S
C1096 C1098 1.363 . S
C1096 H1112 0.931 . S
C1097 C1096 1.370 . S
C1097 C1101 1.409 . S
C1098 C1096 1.363 . S
C1098 C1099 1.370 . S
C1098 C1102 1.524 . S
C1099 C1091 1.503 . S
C1099 C1098 1.370 . S
C1099 C1100 1.403 . S
C1100 C1099 1.403 . S
C1100 C1101 1.408 . S
C1100 C1103 1.539 . S
C1101 C1097 1.409 . S
C1101 C1100 1.408 . S
C1101 H1113 0.926 1_554 S
C1102 C1098 1.524 . S
C1102 H1114 0.956 . S
C1102 H1115 0.961 . S
C1102 H1116 0.961 . S
C1103 C1100 1.539 . S
C1103 H1117 0.958 1_554 S
C1103 H1118 0.961 . S
C1103 H1119 0.960 . S
H1104 C1088 0.931 . S
H1105 C1093 0.929 . S
H1106 C1094 0.960 . S
H1107 C1094 0.962 . S
H1108 C1094 0.960 . S
H1109 C1095 0.961 . S
H1110 C1095 0.961 . S
H1111 C1095 0.961 . S
H1112 C1096 0.931 . S
H1113 C1101 0.926 1_556 S
H1114 C1102 0.956 . S
H1115 C1102 0.961 . S
H1116 C1102 0.961 . S
H1117 C1103 0.958 1_556 S
H1118 C1103 0.961 . S
H1119 C1103 0.960 . S
C1120 C1121 1.391 . S
C1120 C1122 1.394 . S
C1120 H1136 0.931 . S
C1121 C1120 1.391 . S
C1121 C1125 1.376 . S
C1122 C1120 1.394 . S
C1122 C1123 1.369 . S
C1122 C1126 1.531 . S
C1123 C1122 1.369 . S
C1123 C1124 1.410 . S
C1123 C1131 1.503 . S
C1124 C1123 1.410 . S
C1124 C1125 1.392 . S
C1124 C1127 1.511 . S
C1125 C1121 1.376 . S
C1125 C1124 1.392 . S
C1125 H1137 0.929 . S
C1126 C1122 1.531 . S
C1126 H1138 0.960 . S
C1126 H1139 0.962 . S
C1126 H1140 0.960 . S
C1127 C1124 1.511 . S
C1127 H1141 0.961 . S
C1127 H1142 0.961 . S
C1127 H1143 0.960 1_556 S
C1128 C1129 1.370 . S
C1128 C1130 1.363 . S
C1128 H1144 0.931 . S
C1129 C1128 1.370 . S
C1129 C1133 1.408 . S
C1130 C1128 1.363 . S
C1130 C1131 1.370 . S
C1130 C1134 1.524 . S
C1131 C1123 1.503 . S
C1131 C1130 1.370 . S
C1131 C1132 1.403 . S
C1132 C1131 1.403 . S
C1132 C1133 1.404 . S
C1132 C1135 1.539 . S
C1133 C1129 1.408 . S
C1133 C1132 1.404 . S
C1133 H1145 0.930 . S
C1134 C1130 1.524 . S
C1134 H1146 0.956 . S
C1134 H1147 0.961 . S
C1134 H1148 0.961 . S
C1135 C1132 1.539 . S
C1135 H1149 0.958 . S
C1135 H1150 0.961 . S
C1135 H1151 0.960 . S
H1136 C1120 0.931 . S
H1137 C1125 0.929 . S
H1138 C1126 0.960 . S
H1139 C1126 0.962 . S
H1140 C1126 0.960 . S
H1141 C1127 0.961 . S
H1142 C1127 0.961 . S
H1143 C1127 0.960 1_554 S
H1144 C1128 0.931 . S
H1145 C1133 0.930 . S
H1146 C1134 0.956 . S
H1147 C1134 0.961 . S
H1148 C1134 0.961 . S
H1149 C1135 0.958 . S
H1150 C1135 0.961 . S
H1151 C1135 0.960 . S
C1152 C1153 1.391 . S
C1152 C1154 1.394 . S
C1152 H1168 0.931 . S
C1153 C1152 1.391 . S
C1153 C1157 1.376 . S
C1154 C1152 1.394 . S
C1154 C1155 1.369 . S
C1154 C1158 1.531 . S
C1155 C1154 1.369 . S
C1155 C1156 1.410 . S
C1155 C1163 1.503 . S
C1156 C1155 1.410 . S
C1156 C1157 1.392 . S
C1156 C1159 1.511 . S
C1157 C1153 1.376 . S
C1157 C1156 1.392 . S
C1157 H1169 0.929 . S
C1158 C1154 1.531 . S
C1158 H1170 0.960 . S
C1158 H1171 0.962 . S
C1158 H1172 0.960 . S
C1159 C1156 1.511 . S
C1159 H1173 0.961 . S
C1159 H1174 0.961 . S
C1159 H1175 0.961 . S
C1160 C1161 1.370 . S
C1160 C1162 1.363 . S
C1160 H1176 0.931 . S
C1161 C1160 1.370 . S
C1161 C1165 1.408 . S
C1162 C1160 1.363 . S
C1162 C1163 1.370 . S
C1162 C1166 1.524 . S
C1163 C1155 1.503 . S
C1163 C1162 1.370 . S
C1163 C1164 1.403 . S
C1164 C1163 1.403 . S
C1164 C1165 1.404 . S
C1164 C1167 1.539 . S
C1165 C1161 1.408 . S
C1165 C1164 1.404 . S
C1165 H1177 0.930 . S
C1166 C1162 1.524 . S
C1166 H1178 0.956 . S
C1166 H1179 0.961 . S
C1166 H1180 0.961 . S
C1167 C1164 1.539 . S
C1167 H1181 0.958 . S
C1167 H1182 0.961 . S
C1167 H1183 0.960 . S
H1168 C1152 0.931 . S
H1169 C1157 0.929 . S
H1170 C1158 0.960 . S
H1171 C1158 0.962 . S
H1172 C1158 0.960 . S
H1173 C1159 0.961 . S
H1174 C1159 0.961 . S
H1175 C1159 0.961 . S
H1176 C1160 0.931 . S
H1177 C1165 0.930 . S
H1178 C1166 0.956 . S
H1179 C1166 0.961 . S
H1180 C1166 0.961 . S
H1181 C1167 0.958 . S
H1182 C1167 0.961 . S
H1183 C1167 0.960 . S
C1184 C1185 1.391 . S
C1184 C1186 1.394 . S
C1184 H1200 0.931 . S
C1185 C1184 1.391 . S
C1185 C1189 1.376 . S
C1186 C1184 1.394 . S
C1186 C1187 1.369 . S
C1186 C1190 1.531 . S
C1187 C1186 1.369 . S
C1187 C1188 1.410 . S
C1187 C1195 1.503 . S
C1188 C1187 1.410 . S
C1188 C1189 1.392 . S
C1188 C1191 1.511 . S
C1189 C1185 1.376 . S
C1189 C1188 1.392 . S
C1189 H1201 0.929 . S
C1190 C1186 1.531 . S
C1190 H1202 0.960 . S
C1190 H1203 0.962 1_545 S
C1190 H1204 0.960 . S
C1191 C1188 1.511 . S
C1191 H1205 0.961 . S
C1191 H1206 0.961 . S
C1191 H1207 0.961 . S
C1192 C1193 1.370 . S
C1192 C1194 1.366 1_545 S
C1192 H1208 0.931 1_545 S
C1193 C1192 1.370 . S
C1193 C1197 1.408 . S
C1194 C1192 1.366 1_565 S
C1194 C1195 1.354 1_565 S
C1194 C1198 1.538 . S
C1195 C1187 1.503 . S
C1195 C1194 1.354 1_545 S
C1195 C1196 1.403 . S
C1196 C1195 1.403 . S
C1196 C1197 1.404 . S
C1196 C1199 1.539 . S
C1197 C1193 1.408 . S
C1197 C1196 1.404 . S
C1197 H1209 0.930 . S
C1198 C1194 1.538 . S
C1198 H1210 0.956 . S
C1198 H1211 0.961 . S
C1198 H1212 0.961 . S
C1199 C1196 1.539 . S
C1199 H1213 0.958 . S
C1199 H1214 0.961 . S
C1199 H1215 0.960 . S
H1200 C1184 0.931 . S
H1201 C1189 0.929 . S
H1202 C1190 0.960 . S
H1203 C1190 0.962 1_565 S
H1204 C1190 0.960 . S
H1205 C1191 0.961 . S
H1206 C1191 0.961 . S
H1207 C1191 0.961 . S
H1208 C1192 0.931 1_565 S
H1209 C1197 0.930 . S
H1210 C1198 0.956 . S
H1211 C1198 0.961 . S
H1212 C1198 0.961 . S
H1213 C1199 0.958 . S
H1214 C1199 0.961 . S
H1215 C1199 0.960 . S
C1216 C1217 1.391 . S
C1216 C1218 1.394 1_554 S
C1216 H1232 0.931 . S
C1217 C1216 1.391 . S
C1217 C1221 1.376 . S
C1218 C1216 1.394 1_556 S
C1218 C1219 1.369 . S
C1218 C1222 1.531 . S
C1219 C1218 1.369 . S
C1219 C1220 1.409 1_556 S
C1219 C1227 1.503 . S
C1220 C1219 1.409 1_554 S
C1220 C1221 1.393 . S
C1220 C1223 1.512 1_554 S
C1221 C1217 1.376 . S
C1221 C1220 1.393 . S
C1221 H1233 0.929 . S
C1222 C1218 1.531 . S
C1222 H1234 0.960 . S
C1222 H1235 0.962 . S
C1222 H1236 0.960 1_556 S
C1223 C1220 1.512 1_556 S
C1223 H1237 0.963 . S
C1223 H1238 0.964 . S
C1223 H1239 0.955 1_556 S
C1224 C1225 1.370 . S
C1224 C1226 1.363 . S
C1224 H1240 0.931 . S
C1225 C1224 1.370 . S
C1225 C1229 1.408 . S
C1226 C1224 1.363 . S
C1226 C1227 1.370 . S
C1226 C1230 1.524 . S
C1227 C1219 1.503 . S
C1227 C1226 1.370 . S
C1227 C1228 1.403 1_556 S
C1228 C1227 1.403 1_554 S
C1228 C1229 1.404 1_554 S
C1228 C1231 1.539 . S
C1229 C1225 1.408 . S
C1229 C1228 1.404 1_556 S
C1229 H1241 0.930 1_556 S
C1230 C1226 1.524 . S
C1230 H1242 0.956 . S
C1230 H1243 0.961 . S
C1230 H1244 0.961 . S
C1231 C1228 1.539 . S
C1231 H1245 0.958 . S
C1231 H1246 0.961 . S
C1231 H1247 0.960 . S
H1232 C1216 0.931 . S
H1233 C1221 0.929 . S
H1234 C1222 0.960 . S
H1235 C1222 0.962 . S
H1236 C1222 0.960 1_554 S
H1237 C1223 0.963 . S
H1238 C1223 0.964 . S
H1239 C1223 0.955 1_554 S
H1240 C1224 0.931 . S
H1241 C1229 0.930 1_554 S
H1242 C1230 0.956 . S
H1243 C1230 0.961 . S
H1244 C1230 0.961 . S
H1245 C1231 0.958 . S
H1246 C1231 0.961 . S
H1247 C1231 0.960 . S
C1248 C1249 1.391 . S
C1248 C1250 1.394 . S
C1248 H1264 0.931 . S
C1249 C1248 1.391 . S
C1249 C1253 1.376 . S
C1250 C1248 1.394 . S
C1250 C1251 1.369 . S
C1250 C1254 1.531 . S
C1251 C1250 1.369 . S
C1251 C1252 1.410 . S
C1251 C1259 1.503 . S
C1252 C1251 1.410 . S
C1252 C1253 1.392 . S
C1252 C1255 1.511 . S
C1253 C1249 1.376 . S
C1253 C1252 1.392 . S
C1253 H1265 0.929 . S
C1254 C1250 1.531 . S
C1254 H1266 0.960 . S
C1254 H1267 0.962 . S
C1254 H1268 0.960 . S
C1255 C1252 1.511 . S
C1255 H1269 0.961 . S
C1255 H1270 0.961 . S
C1255 H1271 0.961 . S
C1256 C1257 1.370 . S
C1256 C1258 1.363 . S
C1256 H1272 0.931 . S
C1257 C1256 1.370 . S
C1257 C1261 1.408 . S
C1258 C1256 1.363 . S
C1258 C1259 1.370 . S
C1258 C1262 1.524 . S
C1259 C1251 1.503 . S
C1259 C1258 1.370 . S
C1259 C1260 1.403 . S
C1260 C1259 1.403 . S
C1260 C1261 1.404 . S
C1260 C1263 1.539 . S
C1261 C1257 1.408 . S
C1261 C1260 1.404 . S
C1261 H1273 0.930 . S
C1262 C1258 1.524 . S
C1262 H1274 0.956 . S
C1262 H1275 0.961 . S
C1262 H1276 0.961 . S
C1263 C1260 1.539 . S
C1263 H1277 0.958 . S
C1263 H1278 0.961 . S
C1263 H1279 0.960 . S
H1264 C1248 0.931 . S
H1265 C1253 0.929 . S
H1266 C1254 0.960 . S
H1267 C1254 0.962 . S
H1268 C1254 0.960 . S
H1269 C1255 0.961 . S
H1270 C1255 0.961 . S
H1271 C1255 0.961 . S
H1272 C1256 0.931 . S
H1273 C1261 0.930 . S
H1274 C1262 0.956 . S
H1275 C1262 0.961 . S
H1276 C1262 0.961 . S
H1277 C1263 0.958 . S
H1278 C1263 0.961 . S
H1279 C1263 0.960 . S
C1280 C1281 1.391 . S
C1280 C1282 1.394 . S
C1280 H1296 0.931 . S
C1281 C1280 1.391 . S
C1281 C1285 1.376 . S
C1282 C1280 1.394 . S
C1282 C1283 1.369 . S
C1282 C1286 1.531 . S
C1283 C1282 1.369 . S
C1283 C1284 1.410 . S
C1283 C1291 1.503 . S
C1284 C1283 1.410 . S
C1284 C1285 1.392 . S
C1284 C1287 1.511 . S
C1285 C1281 1.376 . S
C1285 C1284 1.392 . S
C1285 H1297 0.929 . S
C1286 C1282 1.531 . S
C1286 H1298 0.960 . S
C1286 H1299 0.962 . S
C1286 H1300 0.960 . S
C1287 C1284 1.511 . S
C1287 H1301 0.961 . S
C1287 H1302 0.961 . S
C1287 H1303 0.961 . S
C1288 C1289 1.370 . S
C1288 C1290 1.363 . S
C1288 H1304 0.931 . S
C1289 C1288 1.370 . S
C1289 C1293 1.408 . S
C1290 C1288 1.363 . S
C1290 C1291 1.370 . S
C1290 C1294 1.524 . S
C1291 C1283 1.503 . S
C1291 C1290 1.370 . S
C1291 C1292 1.403 . S
C1292 C1291 1.403 . S
C1292 C1293 1.404 . S
C1292 C1295 1.539 . S
C1293 C1289 1.408 . S
C1293 C1292 1.404 . S
C1293 H1305 0.930 . S
C1294 C1290 1.524 . S
C1294 H1306 0.956 . S
C1294 H1307 0.961 . S
C1294 H1308 0.961 . S
C1295 C1292 1.539 . S
C1295 H1309 0.958 . S
C1295 H1310 0.961 . S
C1295 H1311 0.960 . S
H1296 C1280 0.931 . S
H1297 C1285 0.929 . S
H1298 C1286 0.960 . S
H1299 C1286 0.962 . S
H1300 C1286 0.960 . S
H1301 C1287 0.961 . S
H1302 C1287 0.961 . S
H1303 C1287 0.961 . S
H1304 C1288 0.931 . S
H1305 C1293 0.930 . S
H1306 C1294 0.956 . S
H1307 C1294 0.961 . S
H1308 C1294 0.961 . S
H1309 C1295 0.958 . S
H1310 C1295 0.961 . S
H1311 C1295 0.960 . S
C1312 C1313 1.382 1_545 S
C1312 C1314 1.391 . S
C1312 H1328 0.931 . S
C1313 C1312 1.382 1_565 S
C1313 C1317 1.378 . S
C1314 C1312 1.391 . S
C1314 C1315 1.368 1_545 S
C1314 C1318 1.535 . S
C1315 C1314 1.368 1_565 S
C1315 C1316 1.410 . S
C1315 C1323 1.503 . S
C1316 C1315 1.410 . S
C1316 C1317 1.392 . S
C1316 C1319 1.511 . S
C1317 C1313 1.378 . S
C1317 C1316 1.392 . S
C1317 H1329 0.929 . S
C1318 C1314 1.535 . S
C1318 H1330 0.960 . S
C1318 H1331 0.962 1_545 S
C1318 H1332 0.960 . S
C1319 C1316 1.511 . S
C1319 H1333 0.961 . S
C1319 H1334 0.961 . S
C1319 H1335 0.920 1_565 S
C1320 C1321 1.370 . S
C1320 C1322 1.363 . S
C1320 H1336 0.931 . S
C1321 C1320 1.370 . S
C1321 C1325 1.408 1_565 S
C1322 C1320 1.363 . S
C1322 C1323 1.370 . S
C1322 C1326 1.524 . S
C1323 C1315 1.503 . S
C1323 C1322 1.370 . S
C1323 C1324 1.403 1_565 S
C1324 C1323 1.403 1_545 S
C1324 C1325 1.404 . S
C1324 C1327 1.539 . S
C1325 C1321 1.408 1_545 S
C1325 C1324 1.404 . S
C1325 H1337 0.930 . S
C1326 C1322 1.524 . S
C1326 H1338 0.956 . S
C1326 H1339 0.961 . S
C1326 H1340 0.961 . S
C1327 C1324 1.539 . S
C1327 H1341 0.958 . S
C1327 H1342 0.961 . S
C1327 H1343 0.960 . S
H1328 C1312 0.931 . S
H1329 C1317 0.929 . S
H1330 C1318 0.960 . S
H1331 C1318 0.962 1_565 S
H1332 C1318 0.960 . S
H1333 C1319 0.961 . S
H1334 C1319 0.961 . S
H1335 C1319 0.920 1_545 S
H1336 C1320 0.931 . S
H1337 C1325 0.930 . S
H1338 C1326 0.956 . S
H1339 C1326 0.961 . S
H1340 C1326 0.961 . S
H1341 C1327 0.958 . S
H1342 C1327 0.961 . S
H1343 C1327 0.960 . S
C1344 C1345 1.391 . S
C1344 C1346 1.394 . S
C1344 H1360 0.931 . S
C1345 C1344 1.391 . S
C1345 C1349 1.376 . S
C1346 C1344 1.394 . S
C1346 C1347 1.369 . S
C1346 C1350 1.531 . S
C1347 C1346 1.369 . S
C1347 C1348 1.410 . S
C1347 C1355 1.503 . S
C1348 C1347 1.410 . S
C1348 C1349 1.392 . S
C1348 C1351 1.511 . S
C1349 C1345 1.376 . S
C1349 C1348 1.392 . S
C1349 H1361 0.929 . S
C1350 C1346 1.531 . S
C1350 H1362 0.960 . S
C1350 H1363 0.962 . S
C1350 H1364 0.960 . S
C1351 C1348 1.511 . S
C1351 H1365 0.961 . S
C1351 H1366 0.961 . S
C1351 H1367 0.961 . S
C1352 C1353 1.370 . S
C1352 C1354 1.363 . S
C1352 H1368 0.931 . S
C1353 C1352 1.370 . S
C1353 C1357 1.408 . S
C1354 C1352 1.363 . S
C1354 C1355 1.370 . S
C1354 C1358 1.524 . S
C1355 C1347 1.503 . S
C1355 C1354 1.370 . S
C1355 C1356 1.403 . S
C1356 C1355 1.403 . S
C1356 C1357 1.404 . S
C1356 C1359 1.539 . S
C1357 C1353 1.408 . S
C1357 C1356 1.404 . S
C1357 H1369 0.930 . S
C1358 C1354 1.524 . S
C1358 H1370 0.956 . S
C1358 H1371 0.961 . S
C1358 H1372 0.961 . S
C1359 C1356 1.539 . S
C1359 H1373 0.958 . S
C1359 H1374 0.961 . S
C1359 H1375 0.960 . S
H1360 C1344 0.931 . S
H1361 C1349 0.929 . S
H1362 C1350 0.960 . S
H1363 C1350 0.962 . S
H1364 C1350 0.960 . S
H1365 C1351 0.961 . S
H1366 C1351 0.961 . S
H1367 C1351 0.961 . S
H1368 C1352 0.931 . S
H1369 C1357 0.930 . S
H1370 C1358 0.956 . S
H1371 C1358 0.961 . S
H1372 C1358 0.961 . S
H1373 C1359 0.958 . S
H1374 C1359 0.961 . S
H1375 C1359 0.960 . S
C1376 C1377 1.391 . S
C1376 C1378 1.394 . S
C1376 H1392 0.931 . S
C1377 C1376 1.391 . S
C1377 C1381 1.376 . S
C1378 C1376 1.394 . S
C1378 C1379 1.369 . S
C1378 C1382 1.531 . S
C1379 C1378 1.369 . S
C1379 C1380 1.410 . S
C1379 C1387 1.503 . S
C1380 C1379 1.410 . S
C1380 C1381 1.392 . S
C1380 C1383 1.511 . S
C1381 C1377 1.376 . S
C1381 C1380 1.392 . S
C1381 H1393 0.929 . S
C1382 C1378 1.531 . S
C1382 H1394 0.960 . S
C1382 H1395 0.962 . S
C1382 H1396 0.960 . S
C1383 C1380 1.511 . S
C1383 H1397 0.961 . S
C1383 H1398 0.961 . S
C1383 H1399 0.961 . S
C1384 C1385 1.370 . S
C1384 C1386 1.363 . S
C1384 H1400 0.931 . S
C1385 C1384 1.370 . S
C1385 C1389 1.408 . S
C1386 C1384 1.363 . S
C1386 C1387 1.370 . S
C1386 C1390 1.524 . S
C1387 C1379 1.503 . S
C1387 C1386 1.370 . S
C1387 C1388 1.403 . S
C1388 C1387 1.403 . S
C1388 C1389 1.404 . S
C1388 C1391 1.539 . S
C1389 C1385 1.408 . S
C1389 C1388 1.404 . S
C1389 H1401 0.930 . S
C1390 C1386 1.524 . S
C1390 H1402 0.956 . S
C1390 H1403 0.961 . S
C1390 H1404 0.961 . S
C1391 C1388 1.539 . S
C1391 H1405 0.958 . S
C1391 H1406 0.961 . S
C1391 H1407 0.960 . S
H1392 C1376 0.931 . S
H1393 C1381 0.929 . S
H1394 C1382 0.960 . S
H1395 C1382 0.962 . S
H1396 C1382 0.960 . S
H1397 C1383 0.961 . S
H1398 C1383 0.961 . S
H1399 C1383 0.961 . S
H1400 C1384 0.931 . S
H1401 C1389 0.930 . S
H1402 C1390 0.956 . S
H1403 C1390 0.961 . S
H1404 C1390 0.961 . S
H1405 C1391 0.958 . S
H1406 C1391 0.961 . S
H1407 C1391 0.960 . S
C641 C391 0.948 1_565 S
C649 C489 0.926 . S
C681 C529 1.945 . S
C673 C451 2.143 . S
C713 C578 1.695 . S
C705 C241 1.667 . S
C745 C609 2.179 . S
C737 C331 2.042 . S
C777 C498 0.879 . S
C769 C121 0.952 1_545 S
C801 C211 2.047 . S
C809 C538 1.946 . S
C833 C31 1.723 1_556 S
C841 C569 1.690 . S
C865 C91 2.183 . S
C873 C618 2.174 1_655 S
C905 C499 1.477 . S
C897 C301 1.063 . S
C937 C539 0.908 . S
C929 C380 0.906 . S
C969 C575 0.628 . S
C961 C440 0.637 . S
C993 C260 1.315 . S
C1001 C619 1.552 . S
C1025 C61 1.261 . S
C1033 C490 1.480 1_655 S
C1065 C530 0.910 . S
C1057 C140 0.844 . S
C1097 C566 0.602 1_554 S
C1089 C200 0.743 . S
C1121 C20 1.448 . S
C1129 C610 1.557 . S
C1153 C320 2.109 . S
C1161 C495 2.210 . S
C1185 C361 1.583 . S
C1193 C535 1.746 . S
C1225 C579 2.933 . S
C1217 C421 2.443 . S
C1257 C615 1.814 . S
C1249 C271 1.788 . S
C1281 C80 2.160 . S
C1289 C486 2.218 . S
C1321 C526 1.733 . S
C1313 C151 1.752 . S
C1353 C570 2.933 . S
C1345 C181 2.371 . S
C1377 C1 1.683 . S
C1385 C606 1.821 . S
