# Generated by pormake.
# Topology zzz, (3,6)-cn, num edge types: 1
# Building blocks:
#     Node 0, Type 0, BuildingBlock: BETDAH_clean_linker_0, # of connection points: 3
#     Node 1, Type 0, BuildingBlock: BETDAH_clean_linker_0, # of connection points: 3
#     Node 2, Type 0, BuildingBlock: BETDAH_clean_linker_0, # of connection points: 3
#     Node 3, Type 0, BuildingBlock: BETDAH_clean_linker_0, # of connection points: 3
#     Node 4, Type 0, BuildingBlock: BETDAH_clean_linker_0, # of connection points: 3
#     Node 5, Type 0, BuildingBlock: BETDAH_clean_linker_0, # of connection points: 3
#     Node 6, Type 0, BuildingBlock: BETDAH_clean_linker_0, # of connection points: 3
#     Node 7, Type 0, BuildingBlock: BETDAH_clean_linker_0, # of connection points: 3
#     Node 8, Type 1, BuildingBlock: BETGAK_clean_sbu_0, # of connection points: 6
#     Node 9, Type 1, BuildingBlock: BETGAK_clean_sbu_0, # of connection points: 6
#     Node 10, Type 1, BuildingBlock: BETGAK_clean_sbu_0, # of connection points: 6
#     Node 11, Type 1, BuildingBlock: BETGAK_clean_sbu_0, # of connection points: 6
#     Edge 12, Type (0, 1), BuildingBlock: TEMPAE_clean_linker_10, # of connection points: 2
#     Edge 13, Type (0, 1), BuildingBlock: TEMPAE_clean_linker_10, # of connection points: 2
#     Edge 14, Type (0, 1), BuildingBlock: TEMPAE_clean_linker_10, # of connection points: 2
#     Edge 15, Type (0, 1), BuildingBlock: TEMPAE_clean_linker_10, # of connection points: 2
#     Edge 16, Type (0, 1), BuildingBlock: TEMPAE_clean_linker_10, # of connection points: 2
#     Edge 17, Type (0, 1), BuildingBlock: TEMPAE_clean_linker_10, # of connection points: 2
#     Edge 18, Type (0, 1), BuildingBlock: TEMPAE_clean_linker_10, # of connection points: 2
#     Edge 19, Type (0, 1), BuildingBlock: TEMPAE_clean_linker_10, # of connection points: 2
#     Edge 20, Type (0, 1), BuildingBlock: TEMPAE_clean_linker_10, # of connection points: 2
#     Edge 21, Type (0, 1), BuildingBlock: TEMPAE_clean_linker_10, # of connection points: 2
#     Edge 22, Type (0, 1), BuildingBlock: TEMPAE_clean_linker_10, # of connection points: 2
#     Edge 23, Type (0, 1), BuildingBlock: TEMPAE_clean_linker_10, # of connection points: 2
#     Edge 24, Type (0, 1), BuildingBlock: TEMPAE_clean_linker_10, # of connection points: 2
#     Edge 25, Type (0, 1), BuildingBlock: TEMPAE_clean_linker_10, # of connection points: 2
#     Edge 26, Type (0, 1), BuildingBlock: TEMPAE_clean_linker_10, # of connection points: 2
#     Edge 27, Type (0, 1), BuildingBlock: TEMPAE_clean_linker_10, # of connection points: 2
#     Edge 28, Type (0, 1), BuildingBlock: TEMPAE_clean_linker_10, # of connection points: 2
#     Edge 29, Type (0, 1), BuildingBlock: TEMPAE_clean_linker_10, # of connection points: 2
#     Edge 30, Type (0, 1), BuildingBlock: TEMPAE_clean_linker_10, # of connection points: 2
#     Edge 31, Type (0, 1), BuildingBlock: TEMPAE_clean_linker_10, # of connection points: 2
#     Edge 32, Type (0, 1), BuildingBlock: TEMPAE_clean_linker_10, # of connection points: 2
#     Edge 33, Type (0, 1), BuildingBlock: TEMPAE_clean_linker_10, # of connection points: 2
#     Edge 34, Type (0, 1), BuildingBlock: TEMPAE_clean_linker_10, # of connection points: 2
#     Edge 35, Type (0, 1), BuildingBlock: TEMPAE_clean_linker_10, # of connection points: 2
# Relax obj value: 0.280
# Max RMSD: 0.193
# Mean RMSD: 0.162
data_MOF--net-zzz--node1-BETGAK_clean_sbu_0--node2-BETDAH_clean_linker_0--edge1-TEMPAE_clean_linker_10
_symmetry_space_group_name_H-M    P1
_symmetry_Int_Tables_number       1
_symmetry_cell_setting            triclinic
loop_
_symmetry_equiv_pos_as_xyz
'x, y, z'
_cell_length_a     53.126897
_cell_length_b     53.161286
_cell_length_c     13.694448
_cell_angle_alpha  89.707461
_cell_angle_beta   90.120815
_cell_angle_gamma 90.050046
loop_
_atom_site_label
_atom_site_type_symbol
_atom_site_fract_x
_atom_site_fract_y
_atom_site_fract_z
_atom_type_partial_charge
H0 H 0.80366 0.56273 0.37021 0.0
H1 H 0.73124 0.54536 0.24919 0.0
H2 H 0.75792 0.50615 0.50625 0.0
C3 C 0.78587 0.55286 0.37514 0.0
C4 C 0.78317 0.53452 0.44795 0.0
C5 C 0.76785 0.55606 0.3008 0.0
C6 C 0.74506 0.54286 0.30666 0.0
C7 C 0.74089 0.52527 0.38205 0.0
C8 C 0.76041 0.52061 0.45111 0.0
N9 N 0.71793 0.5112 0.38638 0.0
C10 C 0.69807 0.51335 0.31883 0.0
H11 H 0.05445 0.80355 0.36246 0.0
H12 H 0.03474 0.73475 0.22208 0.0
H13 H 0.99717 0.7566 0.48867 0.0
C14 C 0.04384 0.78619 0.36378 0.0
C15 C 0.02575 0.78249 0.43639 0.0
C16 C 0.0468 0.76942 0.28638 0.0
C17 C 0.03263 0.74728 0.28356 0.0
C18 C 1.01522 0.74194 0.35838 0.0
C19 C 1.01131 0.76005 0.43332 0.0
N20 N 1.00095 0.71909 0.35823 0.0
C21 C 1.00357 0.69953 0.29031 0.0
H22 H 0.71655 0.04995 0.34263 0.0
H23 H 0.7896 0.03483 0.22714 0.0
H24 H 0.76646 1.0011 0.50147 0.0
C25 C 0.73477 0.04116 0.35167 0.0
C26 C 0.73899 0.02557 0.43238 0.0
C27 C 0.75265 0.04428 0.27793 0.0
C28 C 0.77607 0.03247 0.28551 0.0
C29 C 0.78156 0.0172 0.36734 0.0
C30 C 0.76266 1.01336 0.43979 0.0
N31 N 0.80556 1.00522 0.37745 0.0
C32 C 0.82561 1.00753 0.31119 0.0
H33 H 0.55117 0.72303 0.37964 0.0
H34 H 0.53562 0.79622 0.26063 0.0
H35 H 0.49884 0.7712 0.525 0.0
C36 C 0.54227 0.74127 0.38584 0.0
C37 C 0.52506 0.74471 0.46147 0.0
C38 C 0.54519 0.75911 0.31058 0.0
C39 C 0.53333 0.78254 0.31882 0.0
C40 C 0.51716 0.78754 0.39761 0.0
C41 C 0.5124 0.76813 0.46735 0.0
N42 N 0.50451 0.81125 0.40475 0.0
C43 C 0.50681 0.83118 0.33728 0.0
H44 H 0.21947 0.54757 0.16647 0.0
H45 H 0.29358 0.53347 0.27601 0.0
H46 H 0.26924 0.49961 0.00465 0.0
C47 C 0.23779 0.53902 0.15623 0.0
C48 C 0.24185 0.52368 0.07511 0.0
C49 C 0.2562 0.54234 0.22815 0.0
C50 C 0.2797 0.5309 0.21887 0.0
C51 C 0.28484 0.51562 0.13759 0.0
C52 C 0.26562 0.51173 0.06639 0.0
N53 N 0.30884 0.50372 0.12711 0.0
C54 C 0.32891 0.50599 0.19355 0.0
H55 H 0.97528 0.21537 0.15909 0.0
H56 H 0.99424 0.28615 0.28591 0.0
H57 H 0.02832 0.26347 0.01318 0.0
C58 C 0.98517 0.23309 0.15332 0.0
C59 C 1.00174 0.23696 0.07566 0.0
C60 C 0.98273 0.25042 0.22911 0.0
C61 C 0.99598 0.27312 0.22582 0.0
C62 C 1.01198 0.27845 0.14632 0.0
C63 C 1.01533 0.25992 0.07253 0.0
N64 N 0.0253 0.30181 0.14024 0.0
C65 C 0.02308 0.32179 0.20651 0.0
H66 H 0.30353 0.96632 0.11162 0.0
H67 H 0.23305 0.97767 0.25668 0.0
H68 H 0.26043 0.0325 0.04799 0.0
C69 C 0.2865 0.97719 0.12064 0.0
C70 C 0.28466 1.00041 0.07314 0.0
C71 C 0.2685 0.96924 0.18867 0.0
C72 C 0.24662 0.98357 0.20226 0.0
C73 C 0.24289 1.0059 0.14793 0.0
C74 C 0.26233 1.01451 0.08472 0.0
N75 N 0.2206 0.02069 0.15892 0.0
C76 C 0.2006 1.01549 0.22279 0.0
H77 H 0.54338 0.30547 0.16198 0.0
H78 H 0.53195 0.2298 0.25973 0.0
H79 H 0.50309 0.25386 0.97818 0.0
C80 C 0.53626 0.28675 0.1474 0.0
C81 C 0.52334 0.28227 0.06021 0.0
C82 C 0.53912 0.26806 0.2188 0.0
C83 C 0.52967 0.24393 0.20314 0.0
C84 C 0.5168 0.23836 0.11586 0.0
C85 C 0.51332 0.25782 0.04485 0.0
N86 N 0.50702 0.21364 0.09893 0.0
C87 C 0.50896 0.19335 0.16492 0.0
La88 La 0.02533 1.00235 0.86305 0.0
La89 La 0.99894 1.01589 0.65983 0.0
C90 C 0.03498 0.9902 0.03568 0.0
C91 C 0.05242 0.97141 0.07572 0.0
C92 C 0.07559 0.9666 0.03002 0.0
C93 C 0.08913 0.94483 0.05277 0.0
C94 C 0.07954 0.92742 0.12069 0.0
C95 C 0.05732 0.93347 0.17173 0.0
C96 C 0.04397 0.9553 0.14958 0.0
C97 C 0.05872 1.0048 0.71543 0.0
C98 C 1.01203 0.95847 0.71317 0.0
C99 C 0.98922 0.02846 0.48767 0.0
C100 C 0.97224 0.04781 0.44888 0.0
C101 C 0.94989 0.05392 0.49819 0.0
C102 C 0.93731 0.07635 0.47704 0.0
C103 C 0.94706 0.09312 0.4071 0.0
C104 C 0.9683 0.0858 0.35248 0.0
C105 C 0.98069 0.06331 0.37309 0.0
C106 C 0.9656 1.01324 0.80792 0.0
C107 C 1.01258 0.05986 0.80851 0.0
O108 O 0.04521 1.00974 0.99207 0.0
O109 O 1.01614 0.98065 0.98578 0.0
O110 O 0.06421 0.99937 0.80525 0.0
O111 O 0.03536 1.00865 0.71517 0.0
O112 O 0.01666 0.96465 0.80568 0.0
O113 O 1.00752 0.97564 0.64418 0.0
O114 O 0.97858 1.00913 0.53125 0.0
O115 O 1.00837 0.03748 0.53723 0.0
O116 O 0.96001 0.01843 0.71799 0.0
O117 O 0.98899 1.00973 0.80794 0.0
O118 O 1.00768 0.05357 0.71642 0.0
O119 O 0.01712 0.04276 0.87778 0.0
H120 H 0.08254 0.97884 0.97268 0.0
H121 H 0.10635 0.94098 0.01341 0.0
H122 H 0.04902 0.92043 0.22347 0.0
H123 H 0.02607 0.95861 0.18508 0.0
H124 H 0.94299 0.04218 0.55716 0.0
H125 H 0.9208 0.08119 0.51918 0.0
H126 H 0.97669 0.0983 0.29901 0.0
H127 H 0.998 0.05901 0.33491 0.0
La128 La 0.51778 0.02733 0.84595 0.0
La129 La 0.50409 0.99697 0.65276 0.0
C130 C 0.53054 0.03942 0.01527 0.0
C131 C 0.55058 0.05609 0.05045 0.0
C132 C 0.55731 0.07783 0.99776 0.0
C133 C 0.57991 0.09023 0.018 0.0
C134 C 0.59625 0.08085 0.09025 0.0
C135 C 0.58838 0.06016 0.14754 0.0
C136 C 0.56571 0.048 0.12798 0.0
C137 C 0.51592 0.05766 0.68797 0.0
C138 C 0.56161 1.01119 0.69953 0.0
C139 C 0.4893 0.98407 0.4869 0.0
C140 C 0.46887 0.96687 0.46024 0.0
C141 C 0.4642 0.96111 0.36246 0.0
C142 C 0.44273 0.94741 0.33697 0.0
C143 C 0.42522 0.93987 0.4088 0.0
C144 C 0.43099 0.94435 0.50749 0.0
C145 C 0.4527 0.9576 0.5329 0.0
C146 C 0.5074 0.96628 0.80949 0.0
C147 C 0.46022 1.01433 0.79758 0.0
O148 O 0.51192 0.05023 0.96791 0.0
O149 O 0.53865 0.01901 0.97179 0.0
O150 O 0.52177 0.06476 0.77554 0.0
O151 O 0.51151 0.03443 0.69528 0.0
O152 O 0.55537 0.01784 0.78996 0.0
O153 O 0.54448 1.00496 0.63251 0.0
O154 O 0.50863 0.97362 0.531 0.0
O155 O 0.48183 1.00474 0.53023 0.0
O156 O 0.5028 0.95916 0.72099 0.0
O157 O 0.51011 0.98982 0.80393 0.0
O158 O 0.46644 1.00524 0.7107 0.0
O159 O 0.47703 0.02218 0.8626 0.0
H160 H 0.54588 0.08444 0.93735 0.0
H161 H 0.58515 0.10633 0.97374 0.0
H162 H 0.60052 0.05203 0.20286 0.0
H163 H 0.56089 0.03117 0.16891 0.0
H164 H 0.47651 0.96813 0.30562 0.0
H165 H 0.43916 0.94396 0.26041 0.0
H166 H 0.41797 0.9392 0.56493 0.0
H167 H 0.45615 0.96176 0.60911 0.0
La168 La 0.50047 0.51817 0.8515 0.0
La169 La 0.52898 0.50751 0.66227 0.0
C170 C 0.49489 0.53249 0.0243 0.0
C171 C 0.49038 0.55773 0.06164 0.0
C172 C 0.47924 0.57573 0.99991 0.0
C173 C 0.4839 0.6012 0.01464 0.0
C174 C 0.4998 0.60882 0.09057 0.0
C175 C 0.50844 0.59107 0.159 0.0
C176 C 0.50375 0.56554 0.14445 0.0
C177 C 0.46766 0.5158 0.70355 0.0
C178 C 0.51307 0.5634 0.70028 0.0
C179 C 0.54621 0.48941 0.5072 0.0
C180 C 0.55549 0.46385 0.48825 0.0
C181 C 0.58005 0.46021 0.4532 0.0
C182 C 0.5903 0.43598 0.44951 0.0
C183 C 0.57624 0.41534 0.48308 0.0
C184 C 0.55155 0.41896 0.51563 0.0
C185 C 0.54117 0.44294 0.51733 0.0
C186 C 0.5569 0.51883 0.81705 0.0
C187 C 0.51103 0.4611 0.80244 0.0
O188 O 0.47675 0.52204 0.97348 0.0
O189 O 0.51676 0.5306 0.98123 0.0
O190 O 0.46162 0.51934 0.79422 0.0
O191 O 0.4913 0.51345 0.70179 0.0
O192 O 0.50857 0.55647 0.79248 0.0
O193 O 0.51836 0.5465 0.63234 0.0
O194 O 0.55983 0.50208 0.56941 0.0
O195 O 0.52206 0.49174 0.52449 0.0
O196 O 0.56148 0.52639 0.7288 0.0
O197 O 0.53739 0.50524 0.81495 0.0
O198 O 0.52162 0.46884 0.7192 0.0
O199 O 0.50192 0.47725 0.86688 0.0
H200 H 0.46903 0.57008 0.93504 0.0
H201 H 0.47648 0.61478 0.96312 0.0
H202 H 0.52063 0.59672 0.21855 0.0
H203 H 0.51273 0.55186 0.19199 0.0
H204 H 0.59143 0.47613 0.43056 0.0
H205 H 0.60915 0.43335 0.42134 0.0
H206 H 0.54009 0.40307 0.5378 0.0
H207 H 0.52206 0.44514 0.54299 0.0
La208 La 1.00837 0.49894 0.82389 0.0
La209 La 0.02004 0.52695 0.65218 0.0
C210 C 0.98664 0.48687 0.97879 0.0
C211 C 0.96352 0.49898 0.01344 0.0
C212 C 0.94284 0.48438 0.04194 0.0
C213 C 0.91934 0.49567 0.05476 0.0
C214 C 0.91627 0.52165 0.03831 0.0
C215 C 0.93714 0.53631 0.01273 0.0
C216 C 0.96055 0.52511 1.00063 0.0
C217 C 0.02104 0.4693 0.67654 0.0
C218 C 0.96392 0.51648 0.68203 0.0
C219 C 0.03936 0.54525 0.49996 0.0
C220 C 0.06395 0.55756 0.48674 0.0
C221 C 0.06559 0.58147 0.44307 0.0
C222 C 0.08871 0.59414 0.43962 0.0
C223 C 0.11018 0.58328 0.48236 0.0
C224 C 0.10845 0.55941 0.52572 0.0
C225 C 0.08567 0.54657 0.52662 0.0
C226 C 1.00747 0.55602 0.80251 0.0
C227 C 0.06523 0.50963 0.79755 0.0
O228 O 0.98396 0.47421 0.89788 0.0
O229 O 1.00658 0.50129 0.97667 0.0
O230 O 0.02691 0.46544 0.7673 0.0
O231 O 1.00752 0.48889 0.671 0.0
O232 O 0.97127 0.51341 0.77377 0.0
O233 O 0.98115 0.51839 0.61322 0.0
O234 O 0.02369 0.55751 0.55529 0.0
O235 O 0.03973 0.5212 0.52137 0.0
O236 O 1.00076 0.55985 0.71297 0.0
O237 O 0.02124 0.53671 0.80473 0.0
O238 O 0.05836 0.51857 0.71073 0.0
O239 O 0.0481 0.50185 0.86033 0.0
H240 H 0.94462 0.46418 0.05013 0.0
H241 H 0.9034 0.48398 0.07429 0.0
H242 H 0.93531 0.55641 1.00107 0.0
H243 H 0.97606 0.53681 0.97695 0.0
H244 H 0.04901 0.59032 0.41203 0.0
H245 H 0.0899 0.61226 0.40332 0.0
H246 H 0.125 0.55024 0.5556 0.0
H247 H 0.0851 0.52797 0.55831 0.0
C248 C 0.16352 0.99163 0.28616 0.0
C249 C 0.17884 1.01311 0.28746 0.0
C250 C 0.14229 0.98956 0.34789 0.0
C251 C 0.1362 1.00947 0.41257 0.0
C252 C 0.1515 0.03139 0.41223 0.0
C253 C 0.17257 0.0329 0.34992 0.0
C254 C 0.12664 0.96586 0.3452 0.0
C255 C 0.14586 0.05314 0.47909 0.0
C256 C 0.07162 1.01364 0.53929 0.0
C257 C 0.07733 1.00487 0.63354 0.0
C258 C 0.09034 1.0148 0.46571 0.0
C259 C 0.11531 1.00671 0.48642 0.0
C260 C 0.1208 0.99707 0.58069 0.0
C261 C 0.10192 0.99642 0.65259 0.0
C262 C 0.08353 0.02525 0.36654 0.0
C263 C 0.14688 0.98786 0.60661 0.0
H264 H 0.16821 0.97638 0.23717 0.0
H265 H 0.18426 0.04964 0.35034 0.0
H266 H 0.12776 0.95609 0.41688 0.0
H267 H 0.10657 0.97055 0.33216 0.0
H268 H 0.13296 0.95269 0.28747 0.0
H269 H 0.15848 0.06947 0.46573 0.0
H270 H 0.12607 0.05933 0.46927 0.0
H271 H 0.14805 0.04708 0.55628 0.0
H272 H 0.05275 0.02004 0.52351 0.0
H273 H 0.10658 0.9894 0.72486 0.0
H274 H 0.08833 1.01149 0.30891 0.0
H275 H 0.09467 0.04252 0.3519 0.0
H276 H 0.0632 0.02992 0.3606 0.0
H277 H 0.1531 0.97349 0.55342 0.0
H278 H 0.14778 0.97956 0.68115 0.0
H279 H 0.16043 1.00372 0.60258 0.0
C280 C 0.49094 0.16799 0.30082 0.0
C281 C 0.51009 0.17186 0.23222 0.0
C282 C 0.49177 0.14757 0.36719 0.0
C283 C 0.51234 0.1305 0.36561 0.0
C284 C 0.5315 0.13412 0.29459 0.0
C285 C 0.53013 0.15472 0.22889 0.0
C286 C 0.47084 0.14459 0.4407 0.0
C287 C 0.55377 0.11656 0.28939 0.0
C288 C 0.52701 0.09876 0.61043 0.0
C289 C 0.51635 0.0747 0.60043 0.0
C290 C 0.52655 0.11654 0.5339 0.0
C291 C 0.51482 0.11051 0.444 0.0
C292 C 0.50452 0.08599 0.43221 0.0
C293 C 0.50552 0.06835 0.5103 0.0
C294 C 0.53817 0.14212 0.55039 0.0
C295 C 0.49182 0.07862 0.33802 0.0
H296 H 0.47534 0.18111 0.30318 0.0
H297 H 0.5449 0.15756 0.17541 0.0
H298 H 0.46307 0.12523 0.43785 0.0
H299 H 0.47836 0.14749 0.51545 0.0
H300 H 0.45529 0.15819 0.42801 0.0
H301 H 0.56657 0.12128 0.22788 0.0
H302 H 0.56463 0.11742 0.35859 0.0
H303 H 0.54724 0.09688 0.28067 0.0
H304 H 0.5356 0.10392 0.67938 0.0
H305 H 0.49723 0.04992 0.50157 0.0
H306 H 0.52336 0.1568 0.54705 0.0
H307 H 0.55198 0.14641 0.49195 0.0
H308 H 0.54786 0.14342 0.62216 0.0
H309 H 0.47507 0.09069 0.32561 0.0
H310 H 0.48572 0.05862 0.3384 0.0
H311 H 0.50474 0.08171 0.27558 0.0
C312 C 0.36121 0.53065 0.28412 0.0
C313 C 0.3503 0.50743 0.2608 0.0
C314 C 0.38172 0.53223 0.34978 0.0
C315 C 0.39161 0.51005 0.39357 0.0
C316 C 0.38079 0.4865 0.36849 0.0
C317 C 0.36032 0.48549 0.30258 0.0
C318 C 0.39246 0.55774 0.37395 0.0
C319 C 0.39049 0.46236 0.41305 0.0
C320 C 0.45609 0.51163 0.52364 0.0
C321 C 0.449 0.5141 0.62179 0.0
C322 C 0.43776 0.51036 0.44836 0.0
C323 C 0.41169 0.51161 0.47157 0.0
C324 C 0.40461 0.51419 0.57069 0.0
C325 C 0.42321 0.51541 0.64388 0.0
C326 C 0.44627 0.50771 0.34393 0.0
C327 C 0.37725 0.51567 0.59984 0.0
H328 H 0.35354 0.54764 0.2516 0.0
H329 H 0.35198 0.46749 0.28434 0.0
H330 H 0.38927 0.56188 0.45228 0.0
H331 H 0.4131 0.55787 0.36182 0.0
H332 H 0.38383 0.573 0.32944 0.0
H333 H 0.38117 0.44549 0.38181 0.0
H334 H 0.41109 0.46077 0.4015 0.0
H335 H 0.38724 0.46247 0.49305 0.0
H336 H 0.47589 0.51087 0.50559 0.0
H337 H 0.41744 0.5174 0.71932 0.0
H338 H 0.43929 0.52382 0.29982 0.0
H339 H 0.43815 0.49037 0.31187 0.0
H340 H 0.4671 0.50688 0.33758 0.0
H341 H 0.36809 0.53184 0.56262 0.0
H342 H 0.3748 0.51781 0.67991 0.0
H343 H 0.36721 0.4984 0.57638 0.0
C344 C 0.0408 0.36242 0.26315 0.0
C345 C 0.02234 0.34367 0.27088 0.0
C346 C 0.04064 0.38366 0.32475 0.0
C347 C 0.02154 0.3863 0.39629 0.0
C348 C 1.00268 0.3674 0.40343 0.0
C349 C 1.00331 0.34636 0.34072 0.0
C350 C 0.06114 0.40314 0.31402 0.0
C351 C 0.98196 0.36927 0.47822 0.0
C352 C 0.03494 0.42644 0.62235 0.0
C353 C 0.02202 0.4489 0.60164 0.0
C354 C 0.03505 0.40618 0.55625 0.0
C355 C 0.02192 0.40818 0.46628 0.0
C356 C 1.00915 0.431 0.44413 0.0
C357 C 1.00937 0.45104 0.51182 0.0
C358 C 0.04905 0.38244 0.58343 0.0
C359 C 0.99497 0.43413 0.34928 0.0
H360 H 0.05551 0.36042 0.20896 0.0
H361 H 0.98894 0.33194 0.34667 0.0
H362 H 0.05274 0.42197 0.30114 0.0
H363 H 0.07224 0.40424 0.3826 0.0
H364 H 0.07415 0.39884 0.25293 0.0
H365 H 0.96827 0.35353 0.47267 0.0
H366 H 0.99018 0.36918 0.55276 0.0
H367 H 0.9717 0.3873 0.469 0.0
H368 H 0.04485 0.42455 0.69128 0.0
H369 H 0.99932 0.46826 0.49499 0.0
H370 H 0.06335 0.37814 0.52703 0.0
H371 H 0.03578 0.36633 0.58614 0.0
H372 H 0.05865 0.38393 0.65532 0.0
H373 H 1.00781 0.43103 0.28672 0.0
H374 H 0.9864 0.4531 0.34184 0.0
H375 H 0.97983 0.4198 0.3445 0.0
C376 C 0.85438 0.9872 0.19269 0.0
C377 C 0.84726 1.00856 0.24533 0.0
C378 C 0.87518 0.98775 0.12864 0.0
C379 C 0.8893 1.01025 0.1164 0.0
C380 C 0.88239 0.03175 0.17139 0.0
C381 C 0.86148 0.03064 0.23506 0.0
C382 C 0.88175 0.96432 0.07243 0.0
C383 C 0.89673 0.05614 0.16131 0.0
C384 C 0.95362 1.00687 0.9867 0.0
C385 C 0.94704 1.01287 0.89006 0.0
C386 C 0.93521 1.00613 0.06158 0.0
C387 C 0.90964 1.01182 0.03968 0.0
C388 C 0.90317 0.01841 0.94246 0.0
C389 C 0.92179 0.01874 0.86948 0.0
C390 C 0.94309 0.99901 0.16392 0.0
C391 C 0.8764 0.02495 0.91495 0.0
H392 H 0.84354 0.97004 0.2011 0.0
H393 H 0.85612 0.04714 0.27632 0.0
H394 H 0.87879 0.96768 0.99321 0.0
H395 H 0.90192 0.95962 0.08301 0.0
H396 H 0.87018 0.94788 0.09504 0.0
H397 H 0.88998 0.07071 0.21289 0.0
H398 H 0.91709 0.05294 0.17457 0.0
H399 H 0.89475 0.06349 0.0857 0.0
H400 H 0.97304 1.00263 0.00374 0.0
H401 H 0.91644 0.02359 0.7953 0.0
H402 H 0.9324 0.9822 0.18857 0.0
H403 H 0.93856 1.0145 0.21491 0.0
H404 H 0.96354 0.99487 0.1692 0.0
H405 H 0.86395 1.00855 0.92858 0.0
H406 H 0.87456 0.03057 0.83701 0.0
H407 H 0.86952 0.04061 0.96099 0.0
C408 C 0.53079 0.85988 0.22659 0.0
C409 C 0.50793 0.85246 0.26891 0.0
C410 C 0.53188 0.88004 0.15883 0.0
C411 C 0.50957 0.89315 0.1322 0.0
C412 C 0.48655 0.88598 0.17711 0.0
C413 C 0.48602 0.86577 0.24452 0.0
C414 C 0.55686 0.88695 0.11387 0.0
C415 C 0.46223 0.89908 0.15149 0.0
C416 C 0.51274 0.95635 0.99156 0.0
C417 C 0.5088 0.94856 0.89494 0.0
C418 C 0.51331 0.93866 0.06965 0.0
C419 C 0.50982 0.91255 0.05094 0.0
C420 C 0.50589 0.90479 0.95334 0.0
C421 C 0.50547 0.92272 0.87741 0.0
C422 C 0.51789 0.94792 0.17199 0.0
C423 C 0.5019 0.8774 0.92875 0.0
H424 H 0.5478 0.84972 0.24564 0.0
H425 H 0.46831 0.86016 0.27733 0.0
H426 H 0.5563 0.88334 0.03416 0.0
H427 H 0.56058 0.90732 0.12373 0.0
H428 H 0.57269 0.8761 0.14626 0.0
H429 H 0.4472 0.89504 0.20568 0.0
H430 H 0.46503 0.91973 0.14665 0.0
H431 H 0.45569 0.89258 0.07887 0.0
H432 H 0.51517 0.97618 0.00634 0.0
H433 H 0.50234 0.91636 0.80329 0.0
H434 H 0.53751 0.9434 0.19372 0.0
H435 H 0.5052 0.93835 0.22461 0.0
H436 H 0.51522 0.96859 0.17775 0.0
H437 H 0.51816 0.86608 0.95461 0.0
H438 H 0.49951 0.87432 0.8491 0.0
H439 H 0.48492 0.8702 0.96678 0.0
C440 C 0.65781 0.53235 0.26128 0.0
C441 C 0.67704 0.51459 0.24977 0.0
C442 C 0.63728 0.53352 0.19552 0.0
C443 C 0.63589 0.5165 0.11606 0.0
C444 C 0.65533 0.49841 0.10494 0.0
C445 C 0.67562 0.4977 0.17177 0.0
C446 C 0.61715 0.55311 0.21068 0.0
C447 C 0.65479 0.47987 0.02188 0.0
C448 C 0.57322 0.50473 0.98246 0.0
C449 C 0.57599 0.51942 0.89758 0.0
C450 C 0.59224 0.50393 0.05492 0.0
C451 C 0.61471 0.51813 0.04256 0.0
C452 C 0.61726 0.53339 0.95788 0.0
C453 C 0.59799 0.53383 0.88686 0.0
C454 C 0.58853 0.48746 0.14382 0.0
C455 C 0.64066 0.54895 0.94117 0.0
H456 H 0.65883 0.54539 0.32181 0.0
H457 H 0.69043 0.48388 0.16292 0.0
H458 H 0.61626 0.56586 0.14635 0.0
H459 H 0.59847 0.54392 0.21742 0.0
H460 H 0.62059 0.56459 0.27695 0.0
H461 H 0.67093 0.46661 0.02447 0.0
H462 H 0.63705 0.46887 0.02394 0.0
H463 H 0.65522 0.49011 0.95109 0.0
H464 H 0.55638 0.49342 0.99139 0.0
H465 H 0.60035 0.54526 0.82176 0.0
H466 H 0.59084 0.49871 0.21127 0.0
H467 H 0.60308 0.47251 0.14552 0.0
H468 H 0.56966 0.47844 0.14496 0.0
H469 H 0.64392 0.56162 0.00406 0.0
H470 H 0.63945 0.56052 0.87355 0.0
H471 H 0.65729 0.53643 0.93567 0.0
C472 C 0.02332 0.67656 0.15186 0.0
C473 C 1.00463 0.67812 0.22362 0.0
C474 C 0.02418 0.65607 0.08654 0.0
C475 C 1.00593 0.63657 0.09294 0.0
C476 C 0.98719 0.63805 0.16646 0.0
C477 C 0.98678 0.65876 0.23067 0.0
C478 C 0.04449 0.65543 0.00974 0.0
C479 C 0.96735 0.61786 0.17655 0.0
C480 C 0.99252 0.59796 0.86291 0.0
C481 C 1.00635 0.57585 0.87958 0.0
C482 C 0.99208 0.6176 0.93172 0.0
C483 C 1.00579 0.61529 0.02031 0.0
C484 C 0.01946 0.59277 0.03842 0.0
C485 C 0.01957 0.57337 0.96803 0.0
C486 C 0.97711 0.64104 0.90889 0.0
C487 C 0.03421 0.58928 0.13178 0.0
H488 H 0.03721 0.69144 0.14637 0.0
H489 H 0.97233 0.65989 0.28631 0.0
H490 H 0.05535 0.63767 0.01591 0.0
H491 H 0.03582 0.65583 0.93596 0.0
H492 H 0.05772 0.67154 0.01593 0.0
H493 H 0.9546 0.62125 0.23931 0.0
H494 H 0.95587 0.61697 0.10887 0.0
H495 H 0.97639 0.59921 0.18626 0.0
H496 H 0.98215 0.60005 0.79511 0.0
H497 H 0.03027 0.55635 0.98179 0.0
H498 H 0.98981 0.65762 0.90722 0.0
H499 H 0.963 0.64435 0.96702 0.0
H500 H 0.96716 0.63984 0.83763 0.0
H501 H 0.04891 0.60404 0.13739 0.0
H502 H 0.04343 0.57055 0.13605 0.0
H503 H 0.02161 0.59141 0.1957 0.0
C504 C 0.98353 0.22534 0.37779 0.0
C505 C 0.96965 0.2414 0.31707 0.0
C506 C 0.97239 0.20361 0.41655 0.0
C507 C 0.94654 0.19897 0.39813 0.0
C508 C 0.93149 0.21829 0.35732 0.0
C509 C 0.94338 0.23919 0.31435 0.0
C510 C 0.98913 0.184 0.46343 0.0
C511 C 0.90345 0.21514 0.34615 0.0
C512 C 0.93938 0.13237 0.31158 0.0
C513 C 0.93805 0.11953 0.40075 0.0
C514 C 0.93995 0.15863 0.30834 0.0
C515 C 0.93763 0.17246 0.39646 0.0
C516 C 0.93191 0.15957 0.48429 0.0
C517 C 0.93271 0.13317 0.48594 0.0
C518 C 0.94682 0.1709 0.21229 0.0
C519 C 0.92717 0.17327 0.57869 0.0
H520 H 1.00384 0.22735 0.38055 0.0
H521 H 0.93257 0.25187 0.26835 0.0
H522 H 0.98119 0.17792 0.53442 0.0
H523 H 0.99021 0.16719 0.41579 0.0
H524 H 1.00854 0.19107 0.47617 0.0
H525 H 0.89392 0.23369 0.34016 0.0
H526 H 0.89934 0.20441 0.27871 0.0
H527 H 0.89549 0.20455 0.40901 0.0
H528 H 0.94245 0.12187 0.24497 0.0
H529 H 0.93117 0.12351 0.55556 0.0
H530 H 0.96735 0.17475 0.2125 0.0
H531 H 0.93671 0.18885 0.20063 0.0
H532 H 0.94273 0.15846 0.14925 0.0
H533 H 0.94396 0.17163 0.62664 0.0
H534 H 0.91125 0.16433 0.61828 0.0
H535 H 0.9228 0.19347 0.56706 0.0
C536 C 0.28626 0.95874 0.34866 0.0
C537 C 0.27683 0.94993 0.25964 0.0
C538 C 0.30777 0.94776 0.39037 0.0
C539 C 0.31934 0.9272 0.34271 0.0
C540 C 0.30616 0.91477 0.26716 0.0
C541 C 0.28512 0.92659 0.22484 0.0
C542 C 0.32046 0.96092 0.47453 0.0
C543 C 0.31659 0.89137 0.22068 0.0
C544 C 0.38761 0.94298 0.30071 0.0
C545 C 0.39943 0.93151 0.38074 0.0
C546 C 0.36192 0.9398 0.28325 0.0
C547 C 0.34728 0.92497 0.34818 0.0
C548 C 0.35941 0.91142 0.424 0.0
C549 C 0.38539 0.91491 0.43966 0.0
C550 C 0.35025 0.95418 0.19945 0.0
C551 C 0.34507 0.89428 0.49209 0.0
H552 H 0.27959 0.97659 0.37656 0.0
H553 H 0.27752 0.91945 0.15685 0.0
H554 H 0.32771 0.94704 0.52826 0.0
H555 H 0.33671 0.97197 0.44678 0.0
H556 H 0.30743 0.97397 0.51242 0.0
H557 H 0.30136 0.88011 0.18635 0.0
H558 H 0.33019 0.89673 0.16281 0.0
H559 H 0.32663 0.87956 0.27532 0.0
H560 H 0.39796 0.95607 0.25509 0.0
H561 H 0.39443 0.90535 0.50035 0.0
H562 H 0.3374 0.96871 0.22876 0.0
H563 H 0.33924 0.94133 0.15241 0.0
H564 H 0.36452 0.96356 0.15276 0.0
H565 H 0.34121 0.90437 0.56118 0.0
H566 H 0.35656 0.87748 0.51088 0.0
H567 H 0.32692 0.88795 0.4604 0.0
C568 C 0.53517 0.29119 0.37153 0.0
C569 C 0.54993 0.2757 0.3128 0.0
C570 C 0.54641 0.30966 0.42934 0.0
C571 C 0.57301 0.3119 0.42962 0.0
C572 C 0.58778 0.29272 0.38729 0.0
C573 C 0.57604 0.27507 0.32627 0.0
C574 C 0.52974 0.32891 0.47779 0.0
C575 C 0.61607 0.29288 0.3956 0.0
C576 C 0.58684 0.37967 0.37814 0.0
C577 C 0.58531 0.38944 0.47214 0.0
C578 C 0.58571 0.35372 0.36316 0.0
C579 C 0.58396 0.33726 0.44513 0.0
C580 C 0.58647 0.34709 0.54053 0.0
C581 C 0.58643 0.37326 0.55314 0.0
C582 C 0.58244 0.34455 0.25959 0.0
C583 C 0.58685 0.33038 0.62987 0.0
H584 H 0.51491 0.29123 0.36145 0.0
H585 H 0.58742 0.26273 0.28161 0.0
H586 H 0.53437 0.33003 0.5565 0.0
H587 H 0.53296 0.34779 0.44504 0.0
H588 H 0.50943 0.32426 0.47067 0.0
H589 H 0.62372 0.2735 0.39005 0.0
H590 H 0.6242 0.30421 0.33517 0.0
H591 H 0.62222 0.30128 0.46581 0.0
H592 H 0.58585 0.39239 0.31602 0.0
H593 H 0.5855 0.38101 0.62617 0.0
H594 H 0.56261 0.33867 0.24874 0.0
H595 H 0.59466 0.32815 0.24494 0.0
H596 H 0.58683 0.35939 0.20478 0.0
H597 H 0.56836 0.33124 0.66716 0.0
H598 H 0.60113 0.33731 0.68266 0.0
H599 H 0.59111 0.3105 0.61193 0.0
C600 C 0.24968 0.58154 0.32227 0.0
C601 C 0.24853 0.55526 0.31774 0.0
C602 C 0.23222 0.59485 0.37896 0.0
C603 C 0.21263 0.58142 0.42581 0.0
C604 C 0.2142 0.55485 0.434 0.0
C605 C 0.23255 0.5421 0.38069 0.0
C606 C 0.23293 0.62318 0.37853 0.0
C607 C 0.19436 0.53959 0.48666 0.0
C608 C 0.15175 0.597 0.54759 0.0
C609 C 0.13542 0.59404 0.46791 0.0
C610 C 0.17791 0.59729 0.53376 0.0
C611 C 0.18757 0.59326 0.4389 0.0
C612 C 0.17096 0.59379 0.35735 0.0
C613 C 0.14499 0.59464 0.3732 0.0
C614 C 0.19478 0.59914 0.62211 0.0
C615 C 0.18004 0.58929 0.25438 0.0
H616 H 0.26239 0.5917 0.27436 0.0
H617 H 0.23204 0.52171 0.37732 0.0
H618 H 0.22339 0.63047 0.31208 0.0
H619 H 0.22335 0.63103 0.44361 0.0
H620 H 0.25269 0.63001 0.37687 0.0
H621 H 0.19877 0.51916 0.48772 0.0
H622 H 0.19266 0.54602 0.56311 0.0
H623 H 0.17578 0.54221 0.45074 0.0
H624 H 0.14419 0.59694 0.62111 0.0
H625 H 0.13222 0.59239 0.31194 0.0
H626 H 0.21477 0.60241 0.60233 0.0
H627 H 0.19335 0.58161 0.66611 0.0
H628 H 0.18834 0.61476 0.66948 0.0
H629 H 0.19618 0.60165 0.23648 0.0
H630 H 0.16503 0.59264 0.19921 0.0
H631 H 0.18634 0.56949 0.24779 0.0
C632 C 0.04758 0.79472 0.13825 0.0
C633 C 0.06094 0.77891 0.20166 0.0
C634 C 0.05875 0.81674 0.10222 0.0
C635 C 0.08419 0.82194 0.12623 0.0
C636 C 0.09909 0.80289 0.16972 0.0
C637 C 0.08709 0.7817 0.20993 0.0
C638 C 0.04224 0.83601 0.05199 0.0
C639 C 0.12688 0.80659 0.18641 0.0
C640 C 0.09692 0.88834 0.04367 0.0
C641 C 0.08989 0.90152 0.12811 0.0
C642 C 0.09879 0.86199 0.0447 0.0
C643 C 0.09238 0.84866 0.1308 0.0
C644 C 0.08848 0.86215 0.21887 0.0
C645 C 0.08809 0.88842 0.21658 0.0
C646 C 0.10535 0.84873 0.95104 0.0
C647 C 0.08086 0.84937 0.31303 0.0
H648 H 0.02739 0.79223 0.13108 0.0
H649 H 0.09754 0.7692 0.2579 0.0
H650 H 0.04032 0.85287 0.0989 0.0
H651 H 0.05089 0.84209 0.98226 0.0
H652 H 0.02311 0.82861 0.03604 0.0
H653 H 0.13673 0.78823 0.19288 0.0
H654 H 0.13539 0.81766 0.1259 0.0
H655 H 0.12992 0.81706 0.25532 0.0
H656 H 0.09893 0.89822 0.97472 0.0
H657 H 0.08378 0.89862 0.28286 0.0
H658 H 0.08925 0.84997 0.89947 0.0
H659 H 0.1102 0.82864 0.96288 0.0
H660 H 0.12153 0.85828 0.91543 0.0
H661 H 0.08338 0.86187 0.37711 0.0
H662 H 0.09173 0.83196 0.3265 0.0
H663 H 0.0606 0.84444 0.30823 0.0
C664 C 0.74214 0.08345 0.18964 0.0
C665 C 0.74401 0.05716 0.18878 0.0
C666 C 0.72152 0.09546 0.14511 0.0
C667 C 0.70212 0.08053 0.10461 0.0
C668 C 0.70647 0.05459 0.08818 0.0
C669 C 0.72793 0.04332 0.12848 0.0
C670 C 0.7187 0.12354 0.15434 0.0
C671 C 0.68678 0.03797 0.04162 0.0
C672 C 0.63522 0.08869 0.18712 0.0
C673 C 0.62275 0.08968 0.09715 0.0
C674 C 0.66148 0.08792 0.19184 0.0
C675 C 0.67571 0.08977 0.10428 0.0
C676 C 0.66323 0.09525 0.01532 0.0
C677 C 0.63682 0.09459 0.01227 0.0
C678 C 0.67325 0.08132 0.28917 0.0
C679 C 0.67739 0.09959 0.92134 0.0
H680 H 0.75483 0.09423 0.23534 0.0
H681 H 0.7297 0.02299 0.12719 0.0
H682 H 0.70843 0.13146 0.09052 0.0
H683 H 0.70777 0.12794 0.22103 0.0
H684 H 0.73736 0.13287 0.16053 0.0
H685 H 0.69356 0.0184 0.03122 0.0
H686 H 0.66969 0.03738 0.08814 0.0
H687 H 0.68123 0.04567 0.96946 0.0
H688 H 0.62441 0.08603 0.25347 0.0
H689 H 0.62749 0.09591 0.942 0.0
H690 H 0.69157 0.09078 0.30026 0.0
H691 H 0.67626 0.06068 0.29196 0.0
H692 H 0.66077 0.08634 0.35111 0.0
H693 H 0.66879 0.11547 0.88019 0.0
H694 H 0.67577 0.08269 0.87447 0.0
H695 H 0.69761 0.10381 0.93371 0.0
C696 C 0.53612 0.75013 0.13848 0.0
C697 C 0.55388 0.74977 0.21447 0.0
C698 C 0.53188 0.72837 0.08355 0.0
C699 C 0.54612 0.70659 0.10546 0.0
C700 C 0.56837 0.70885 0.16171 0.0
C701 C 0.5726 0.73117 0.21325 0.0
C702 C 0.50904 0.72723 0.01821 0.0
C703 C 0.58492 0.68645 0.18309 0.0
C704 C 0.50697 0.64958 0.17254 0.0
C705 C 0.51019 0.63441 0.09102 0.0
C706 C 0.51829 0.67328 0.17699 0.0
C707 C 0.53371 0.68168 0.09847 0.0
C708 C 0.53721 0.66619 0.01611 0.0
C709 C 0.52511 0.64273 0.0129 0.0
C710 C 0.51442 0.68864 0.26817 0.0
C711 C 0.5539 0.67409 0.93231 0.0
H712 H 0.52239 0.76519 0.1345 0.0
H713 H 0.58736 0.73163 0.26806 0.0
H714 H 0.51224 0.71447 0.95565 0.0
H715 H 0.49285 0.71982 0.06073 0.0
H716 H 0.50395 0.74619 0.99002 0.0
H717 H 0.60428 0.69245 0.20307 0.0
H718 H 0.57694 0.6758 0.24576 0.0
H719 H 0.58588 0.67358 0.11976 0.0
H720 H 0.4957 0.64276 0.23312 0.0
H721 H 0.52791 0.63053 0.95063 0.0
H722 H 0.51081 0.70867 0.25055 0.0
H723 H 0.53166 0.68743 0.31366 0.0
H724 H 0.49841 0.68155 0.31251 0.0
H725 H 0.5439 0.68811 0.88631 0.0
H726 H 0.55909 0.65783 0.88597 0.0
H727 H 0.57141 0.68316 0.95888 0.0
C728 C 0.79368 0.58716 0.20901 0.0
C729 C 0.77647 0.56713 0.2069 0.0
C730 C 0.81499 0.5866 0.1489 0.0
C731 C 0.81806 0.56615 0.08441 0.0
C732 C 0.79715 0.55067 0.06283 0.0
C733 C 0.77623 0.55139 0.12488 0.0
C734 C 0.83614 0.60482 0.16825 0.0
C735 C 0.79895 0.52991 0.98865 0.0
C736 C 0.882 0.55001 0.97718 0.0
C737 C 0.89137 0.5335 0.04885 0.0
C738 C 0.8582 0.56117 0.98727 0.0
C739 C 0.84365 0.55561 0.07104 0.0
C740 C 0.85341 0.53918 0.14418 0.0
C741 C 0.8771 0.52839 0.13192 0.0
C742 C 0.84868 0.57832 0.90723 0.0
C743 C 0.83928 0.53332 0.23725 0.0
H744 H 0.79308 0.60034 0.26916 0.0
H745 H 0.76226 0.53658 0.11925 0.0
H746 H 0.8491 0.59654 0.22339 0.0
H747 H 0.84709 0.60862 0.10084 0.0
H748 H 0.82888 0.62286 0.19747 0.0
H749 H 0.78 0.52368 0.96429 0.0
H750 H 0.80996 0.53608 0.9241 0.0
H751 H 0.80873 0.51353 0.02207 0.0
H752 H 0.89308 0.55383 0.91236 0.0
H753 H 0.88469 0.51613 0.18825 0.0
H754 H 0.83604 0.59316 0.93572 0.0
H755 H 0.83789 0.56704 0.8536 0.0
H756 H 0.86452 0.58744 0.86771 0.0
H757 H 0.84819 0.51793 0.2802 0.0
H758 H 0.8196 0.52773 0.22155 0.0
H759 H 0.83903 0.55038 0.28337 0.0
C760 C 0.02894 0.20457 0.99045 0.0
C761 C 1.00519 0.21539 0.00589 0.0
C762 C 0.03138 0.1804 0.94808 0.0
C763 C 1.00957 0.16648 0.92134 0.0
C764 C 0.9857 0.17807 0.9311 0.0
C765 C 0.98387 0.20229 0.97192 0.0
C766 C 0.05726 0.16916 0.93731 0.0
C767 C 0.96182 0.16422 0.90488 0.0
C768 C 1.01284 0.10644 0.76545 0.0
C769 C 1.01236 0.08722 0.83655 0.0
C770 C 1.01253 0.13218 0.7916 0.0
C771 C 1.01134 0.13916 0.89145 0.0
C772 C 1.0107 0.11984 0.96341 0.0
C773 C 1.01144 0.09432 0.93532 0.0
C774 C 1.01334 0.15193 0.71212 0.0
C775 C 1.0087 0.12612 0.07058 0.0
H776 H 0.04553 0.21424 0.01718 0.0
H777 H 0.96539 0.21042 0.98318 0.0
H778 H 0.05971 0.15372 0.99132 0.0
H779 H 0.05952 0.16091 0.86356 0.0
H780 H 0.07236 0.18329 0.94913 0.0
H781 H 0.94492 0.17645 0.9095 0.0
H782 H 0.96305 0.15655 0.82988 0.0
H783 H 0.95924 0.14804 0.95544 0.0
H784 H 1.0136 0.10138 0.68895 0.0
H785 H 1.01084 0.07984 0.99128 0.0
H786 H 0.02953 0.16474 0.72427 0.0
H787 H 0.99603 0.16357 0.7144 0.0
H788 H 1.01498 0.14359 0.63819 0.0
H789 H 0.0247 0.13825 0.09276 0.0
H790 H 1.00859 0.10905 0.11773 0.0
H791 H 0.99116 0.13686 0.08412 0.0
C792 C 0.31024 1.01235 0.92333 0.0
C793 C 0.30809 1.01016 0.0251 0.0
C794 C 0.33406 1.01563 0.87846 0.0
C795 C 0.35633 0.01607 0.93644 0.0
C796 C 0.35396 1.01505 0.03945 0.0
C797 C 0.33 1.01249 0.08207 0.0
C798 C 0.33547 0.01763 0.76873 0.0
C799 C 0.37687 1.01534 0.10503 0.0
C800 C 0.41901 0.99281 0.83129 0.0
C801 C 0.43311 1.01506 0.82528 0.0
C802 C 0.39393 0.99293 0.86555 0.0
C803 C 0.38218 0.01602 0.89071 0.0
C804 C 0.39609 0.03868 0.87996 0.0
C805 C 0.4215 0.03786 0.84974 0.0
C806 C 0.38042 0.96818 0.87914 0.0
C807 C 0.38428 0.06383 0.90173 0.0
H808 H 0.2935 1.01032 0.87866 0.0
H809 H 0.32845 1.01088 0.16079 0.0
H810 H 0.34837 0.03308 0.74685 0.0
H811 H 0.34314 0.99991 0.7385 0.0
H812 H 0.31669 0.02105 0.73542 0.0
H813 H 0.37194 1.01287 0.1833 0.0
H814 H 0.39004 1.00012 0.08393 0.0
H815 H 0.38707 0.03341 0.09654 0.0
H816 H 0.42797 0.97514 0.81307 0.0
H817 H 0.43229 0.05513 0.84465 0.0
H818 H 0.36246 0.96823 0.83777 0.0
H819 H 0.3757 0.9655 0.95744 0.0
H820 H 0.39191 0.95194 0.85477 0.0
H821 H 0.36526 0.06509 0.86834 0.0
H822 H 0.39591 0.07972 0.87426 0.0
H823 H 0.38202 0.06599 0.9817 0.0
C824 C 0.54154 0.31875 0.9662 0.0
C825 C 0.52028 0.3043 0.99146 0.0
C826 C 0.53932 0.34307 0.92531 0.0
C827 C 0.51519 0.35362 0.90855 0.0
C828 C 0.49365 0.33841 0.92699 0.0
C829 C 0.49641 0.31405 0.96851 0.0
C830 C 0.56291 0.35805 0.90519 0.0
C831 C 0.46758 0.34835 0.90681 0.0
C832 C 0.5097 0.42559 0.92621 0.0
C833 C 0.51092 0.43347 0.82812 0.0
C834 C 0.51078 0.39986 0.95268 0.0
C835 C 0.51263 0.38108 0.8796 0.0
C836 C 0.51322 0.38888 0.78021 0.0
C837 C 0.51261 0.41482 0.75604 0.0
C838 C 0.51061 0.39281 0.05962 0.0
C839 C 0.51525 0.37006 0.69854 0.0
H840 H 0.56008 0.31147 0.98366 0.0
H841 H 0.47985 0.30329 0.98845 0.0
H842 H 0.56287 0.36491 0.82854 0.0
H843 H 0.56345 0.3748 0.95322 0.0
H844 H 0.58027 0.34685 0.91771 0.0
H845 H 0.45294 0.33357 0.91535 0.0
H846 H 0.46333 0.36392 0.95782 0.0
H847 H 0.46654 0.35613 0.83151 0.0
H848 H 0.50857 0.43964 0.98309 0.0
H849 H 0.51321 0.42042 0.68019 0.0
H850 H 0.52832 0.38285 0.07871 0.0
H851 H 0.49482 0.37971 0.07501 0.0
H852 H 0.50873 0.40947 0.1077 0.0
H853 H 0.5065 0.37739 0.63036 0.0
H854 H 0.50625 0.35184 0.71749 0.0
H855 H 0.53543 0.36655 0.68327 0.0
C856 C 0.20598 0.54106 0.97525 0.0
C857 C 0.22004 0.52001 0.00608 0.0
C858 C 0.18196 0.53856 0.93244 0.0
C859 C 0.17143 0.51433 0.91848 0.0
C860 C 0.18626 0.49292 0.94282 0.0
C861 C 0.21029 0.496 0.98652 0.0
C862 C 0.16719 0.56203 0.90802 0.0
C863 C 0.17618 0.46671 0.9276 0.0
C864 C 0.09928 0.50964 0.92673 0.0
C865 C 0.09252 0.50966 0.8274 0.0
C866 C 0.12472 0.5108 0.95686 0.0
C867 C 0.14427 0.51165 0.88636 0.0
C868 C 0.13761 0.51113 0.78592 0.0
C869 C 0.11197 0.5102 0.75789 0.0
C870 C 0.13063 0.51175 0.06467 0.0
C871 C 0.15759 0.51188 0.70781 0.0
H872 H 0.2133 0.55973 0.98967 0.0
H873 H 0.22075 0.4796 0.01075 0.0
H874 H 0.1599 0.56119 0.83216 0.0
H875 H 0.1507 0.56341 0.95732 0.0
H876 H 0.17867 0.57938 0.91591 0.0
H877 H 0.19092 0.45215 0.93851 0.0
H878 H 0.16068 0.46304 0.97993 0.0
H879 H 0.16828 0.46483 0.85292 0.0
H880 H 0.08459 0.50933 0.9815 0.0
H881 H 0.10721 0.50962 0.68124 0.0
H882 H 0.1405 0.52959 0.08192 0.0
H883 H 0.14344 0.49611 0.08498 0.0
H884 H 0.11344 0.51045 0.11049 0.0
H885 H 0.14958 0.50975 0.63331 0.0
H886 H 0.17158 0.49673 0.72059 0.0
H887 H 0.16785 0.53004 0.71105 0.0
C888 C 0.99769 0.81467 0.51897 0.0
C889 C 0.02158 0.80383 0.50677 0.0
C890 C 0.99483 0.83859 0.56293 0.0
C891 C 0.01634 0.85231 0.59453 0.0
C892 C 0.04027 0.84068 0.58796 0.0
C893 C 0.04251 0.81666 0.5457 0.0
C894 C 0.96886 0.84984 0.5703 0.0
C895 C 0.06386 0.85434 0.61914 0.0
C896 C 1.0146 0.92449 0.58493 0.0
C897 C 1.01264 0.9312 0.6839 0.0
C898 C 1.01568 0.8991 0.55539 0.0
C899 C 1.01428 0.87949 0.62596 0.0
C900 C 1.01206 0.88607 0.72601 0.0
C901 C 1.01148 0.91171 0.7537 0.0
C902 C 0.01883 0.89328 0.44825 0.0
C903 C 1.01037 0.86599 0.80402 0.0
H904 H 0.9814 0.80521 0.48865 0.0
H905 H 0.06107 0.8085 0.53745 0.0
H906 H 0.96583 0.85776 0.64416 0.0
H907 H 0.96701 0.86551 0.51698 0.0
H908 H 0.95388 0.83579 0.55513 0.0
H909 H 0.08079 0.84211 0.61618 0.0
H910 H 0.06699 0.87079 0.57042 0.0
H911 H 0.06185 0.86158 0.69451 0.0
H912 H 1.01576 0.93919 0.52998 0.0
H913 H 1.00992 0.91647 0.8303 0.0
H914 H 1.00305 0.88132 0.42262 0.0
H915 H 0.03648 0.88252 0.43693 0.0
H916 H 0.01953 0.91055 0.40227 0.0
H917 H 1.00781 0.87402 0.87807 0.0
H918 H 0.02774 0.85442 0.80422 0.0
H919 H 0.99439 0.85318 0.78816 0.0
C920 C 0.70734 0.99786 0.52099 0.0
C921 C 0.71725 0.02186 0.50158 0.0
C922 C 0.68313 0.99483 0.563 0.0
C923 C 0.66822 0.01627 0.58522 0.0
C924 C 0.67885 0.04048 0.57125 0.0
C925 C 0.70314 0.04292 0.53099 0.0
C926 C 0.67293 0.96864 0.57849 0.0
C927 C 0.66393 0.06398 0.59245 0.0
C928 C 0.5961 1.01144 0.57205 0.0
C929 C 0.58898 1.01156 0.67091 0.0
C930 C 0.62164 1.01271 0.54365 0.0
C931 C 0.64094 1.01365 0.61549 0.0
C932 C 0.63392 1.01339 0.71549 0.0
C933 C 0.60817 1.01256 0.74183 0.0
C934 C 0.62793 1.01368 0.43619 0.0
C935 C 0.65364 1.01424 0.79493 0.0
H936 H 0.7178 0.98145 0.49779 0.0
H937 H 0.71055 0.06158 0.51661 0.0
H938 H 0.66466 0.96681 0.65254 0.0
H939 H 0.65768 0.96498 0.52493 0.0
H940 H 0.6877 0.95406 0.56957 0.0
H941 H 0.67543 0.08133 0.5843 0.0
H942 H 0.64771 0.06522 0.54146 0.0
H943 H 0.65624 0.06331 0.66762 0.0
H944 H 0.58163 1.0109 0.51621 0.0
H945 H 0.6031 1.01263 0.81844 0.0
H946 H 0.64073 0.99797 0.41731 0.0
H947 H 0.63797 0.03147 0.41897 0.0
H948 H 0.6109 1.01251 0.3892 0.0
H949 H 0.64533 1.01262 0.86908 0.0
H950 H 0.66426 0.03218 0.79036 0.0
H951 H 0.66738 0.99877 0.78488 0.0
C952 C 0.49649 0.7088 0.51035 0.0
C953 C 0.51922 0.72192 0.52316 0.0
C954 C 0.49362 0.68358 0.54289 0.0
C955 C 0.51393 0.67095 0.58992 0.0
C956 C 0.53643 0.68466 0.60744 0.0
C957 C 0.53882 0.70969 0.57352 0.0
C958 C 0.46938 0.66996 0.52084 0.0
C959 C 0.55891 0.67246 0.65559 0.0
C960 C 0.50414 0.60958 0.73675 0.0
C961 C 0.51246 0.59094 0.67166 0.0
C962 C 0.50378 0.63541 0.71019 0.0
C963 C 0.51228 0.64322 0.6166 0.0
C964 C 0.52044 0.6245 0.55024 0.0
C965 C 0.52033 0.59882 0.57815 0.0
C966 C 0.49446 0.65455 0.78248 0.0
C967 C 0.52953 0.63164 0.44948 0.0
H968 H 0.48154 0.71764 0.46859 0.0
H969 H 0.55672 0.7193 0.58144 0.0
H970 H 0.47271 0.65595 0.46248 0.0
H971 H 0.46264 0.65954 0.58613 0.0
H972 H 0.45434 0.68302 0.49594 0.0
H973 H 0.57144 0.68667 0.6898 0.0
H974 H 0.55319 0.6586 0.71201 0.0
H975 H 0.56992 0.66232 0.5994 0.0
H976 H 0.49785 0.60399 0.80871 0.0
H977 H 0.52676 0.58487 0.52647 0.0
H978 H 0.47845 0.66521 0.75073 0.0
H979 H 0.50957 0.66833 0.79824 0.0
H980 H 0.48822 0.64585 0.85197 0.0
H981 H 0.51458 0.64211 0.41001 0.0
H982 H 0.53487 0.61499 0.40544 0.0
H983 H 0.54608 0.64431 0.45516 0.0
C984 C 0.81909 0.54875 0.55471 0.0
C985 C 0.80598 0.52889 0.50985 0.0
C986 C 0.84384 0.54574 0.59055 0.0
C987 C 0.85623 0.52223 0.58164 0.0
C988 C 0.84256 0.50168 0.54177 0.0
C989 C 0.81772 0.50524 0.50632 0.0
C990 C 0.85734 0.56834 0.63161 0.0
C991 C 0.85467 0.47619 0.53137 0.0
C992 C 0.92842 0.5235 0.56108 0.0
C993 C 0.93633 0.51771 0.65666 0.0
C994 C 0.90262 0.52479 0.53588 0.0
C995 C 0.88389 0.51985 0.60734 0.0
C996 C 0.89174 0.51368 0.70374 0.0
C997 C 0.9177 0.51287 0.72731 0.0
C998 C 0.89541 0.53151 0.43226 0.0
C999 C 0.87265 0.50796 0.7822 0.0
H1000 H 0.81039 0.56718 0.55691 0.0
H1001 H 0.80809 0.48989 0.47014 0.0
H1002 H 0.86802 0.56325 0.6985 0.0
H1003 H 0.87109 0.57539 0.57704 0.0
H1004 H 0.84412 0.58384 0.64929 0.0
H1005 H 0.84074 0.46141 0.51215 0.0
H1006 H 0.86912 0.47701 0.47309 0.0
H1007 H 0.86432 0.47067 0.60012 0.0
H1008 H 0.94245 0.52725 0.50554 0.0
H1009 H 0.92338 0.50826 0.80133 0.0
H1010 H 0.88252 0.54792 0.43159 0.0
H1011 H 0.88519 0.51555 0.39858 0.0
H1012 H 0.91204 0.53603 0.38631 0.0
H1013 H 0.86057 0.52466 0.79442 0.0
H1014 H 0.88163 0.50252 0.85251 0.0
H1015 H 0.86013 0.49244 0.75838 0.0
loop_
_geom_bond_atom_site_label_1
_geom_bond_atom_site_label_2
_geom_bond_distance
_geom_bond_site_symmetry_2
_ccdc_geom_bond_type
H0 C3 0.929 . S
H1 C6 0.929 . S
H2 C8 0.930 . S
C3 H0 0.929 . S
C3 C4 1.398 . S
C3 C5 1.396 . S
C4 C3 1.398 . S
C4 C8 1.407 . S
C5 C3 1.396 . S
C5 C6 1.394 . S
C6 H1 0.929 . S
C6 C5 1.394 . S
C6 C7 1.382 . S
C7 C6 1.382 . S
C7 C8 1.392 . S
C7 N9 1.420 . S
C8 H2 0.930 . S
C8 C4 1.407 . S
C8 C7 1.392 . S
N9 C7 1.420 . S
N9 C10 1.244 . S
C10 N9 1.244 . S
H11 C14 0.929 . S
H12 C17 0.929 . S
H13 C19 0.930 . S
C14 H11 0.929 . S
C14 C15 1.395 1_655 S
C14 C16 1.395 1_655 S
C15 C14 1.395 1_455 S
C15 C19 1.413 . S
C16 C14 1.395 1_455 S
C16 C17 1.397 . S
C17 H12 0.929 . S
C17 C16 1.397 . S
C17 C18 1.382 . S
C18 C17 1.382 . S
C18 C19 1.392 . S
C18 N20 1.420 . S
C19 H13 0.930 . S
C19 C15 1.413 . S
C19 C18 1.392 . S
N20 C18 1.420 . S
N20 C21 1.232 1_455 S
C21 N20 1.232 1_655 S
H22 C25 0.929 . S
H23 C28 0.929 . S
H24 C30 0.930 . S
C25 H22 0.929 . S
C25 C26 1.395 1_565 S
C25 C27 1.395 1_565 S
C26 C25 1.395 1_545 S
C26 C30 1.413 . S
C27 C25 1.395 1_545 S
C27 C28 1.397 . S
C28 H23 0.929 . S
C28 C27 1.397 . S
C28 C29 1.382 . S
C29 C28 1.382 . S
C29 C30 1.392 . S
C29 N31 1.420 . S
C30 H24 0.930 . S
C30 C26 1.413 . S
C30 C29 1.392 . S
N31 C29 1.420 . S
N31 C32 1.232 1_545 S
C32 N31 1.232 1_565 S
H33 C36 0.929 . S
H34 C39 0.929 . S
H35 C41 0.930 . S
C36 H33 0.929 . S
C36 C37 1.398 . S
C36 C38 1.396 . S
C37 C36 1.398 . S
C37 C41 1.407 . S
C38 C36 1.396 . S
C38 C39 1.394 . S
C39 H34 0.929 . S
C39 C38 1.394 . S
C39 C40 1.382 . S
C40 C39 1.382 . S
C40 C41 1.392 . S
C40 N42 1.420 . S
C41 H35 0.930 . S
C41 C37 1.407 . S
C41 C40 1.392 . S
N42 C40 1.420 . S
N42 C43 1.244 . S
C43 N42 1.244 . S
H44 C47 0.929 . S
H45 C50 0.929 . S
H46 C52 0.930 . S
C47 H44 0.929 . S
C47 C48 1.398 1_554 S
C47 C49 1.396 . S
C48 C47 1.398 1_556 S
C48 C52 1.407 . S
C49 C47 1.396 . S
C49 C50 1.394 . S
C50 H45 0.929 . S
C50 C49 1.394 . S
C50 C51 1.382 . S
C51 C50 1.382 . S
C51 C52 1.392 1_554 S
C51 N53 1.420 . S
C52 H46 0.930 . S
C52 C48 1.407 . S
C52 C51 1.392 1_556 S
N53 C51 1.420 . S
N53 C54 1.244 . S
C54 N53 1.244 . S
H55 C58 0.929 . S
H56 C61 0.929 . S
H57 C63 0.930 . S
C58 H55 0.929 . S
C58 C59 1.395 1_654 S
C58 C60 1.394 1_655 S
C59 C58 1.395 1_456 S
C59 C63 1.416 . S
C60 C58 1.394 1_455 S
C60 C61 1.398 . S
C61 H56 0.929 . S
C61 C60 1.398 . S
C61 C62 1.382 . S
C62 C61 1.382 . S
C62 C63 1.392 1_554 S
C62 N64 1.420 . S
C63 H57 0.930 . S
C63 C59 1.416 . S
C63 C62 1.392 1_556 S
N64 C62 1.420 . S
N64 C65 1.237 1_455 S
C65 N64 1.237 1_655 S
H66 C69 0.929 . S
H67 C72 0.929 . S
H68 C74 0.930 . S
C69 H66 0.929 . S
C69 C70 1.395 1_564 S
C69 C71 1.394 1_565 S
C70 C69 1.395 1_546 S
C70 C74 1.416 . S
C71 C69 1.394 1_545 S
C71 C72 1.398 . S
C72 H67 0.929 . S
C72 C71 1.398 . S
C72 C73 1.382 . S
C73 C72 1.382 . S
C73 C74 1.392 1_554 S
C73 N75 1.420 . S
C74 H68 0.930 . S
C74 C70 1.416 . S
C74 C73 1.392 1_556 S
N75 C73 1.420 . S
N75 C76 1.237 1_545 S
C76 N75 1.237 1_565 S
H77 C80 0.929 . S
H78 C83 0.929 . S
H79 C85 0.930 . S
C80 H77 0.929 . S
C80 C81 1.398 1_554 S
C80 C82 1.396 . S
C81 C80 1.398 1_556 S
C81 C85 1.407 . S
C82 C80 1.396 . S
C82 C83 1.394 . S
C83 H78 0.929 . S
C83 C82 1.394 . S
C83 C84 1.382 . S
C84 C83 1.382 . S
C84 C85 1.392 1_554 S
C84 N86 1.420 . S
C85 H79 0.930 . S
C85 C81 1.407 . S
C85 C84 1.392 1_556 S
N86 C84 1.420 . S
N86 C87 1.244 . S
C87 N86 1.244 . S
La88 C90 2.928 . S
La88 O108 2.521 . S
La88 O109 2.628 . S
La88 O110 2.554 . S
La88 O111 2.757 1_565 S
La88 O112 2.470 . S
La88 O117 2.482 1_455 S
La88 O119 2.503 1_565 S
La89 C99 2.928 . S
La89 O111 2.482 1_655 S
La89 O113 2.503 1_545 S
La89 O114 2.521 . S
La89 O115 2.628 . S
La89 O116 2.554 . S
La89 O117 2.757 1_545 S
La89 O118 2.470 . S
C90 La88 2.928 . S
C90 C91 1.503 1_556 S
C90 O108 1.261 . S
C90 O109 1.243 . S
C91 C90 1.503 1_554 S
C91 C92 1.394 . S
C91 C96 1.373 . S
C92 C91 1.394 . S
C92 C93 1.380 . S
C92 H120 0.930 . S
C93 C92 1.380 . S
C93 C94 1.376 . S
C93 H121 0.930 . S
C94 C93 1.376 . S
C94 C95 1.370 . S
C95 C94 1.370 . S
C95 C96 1.396 . S
C95 H122 0.929 1_455 S
C96 C91 1.373 . S
C96 C95 1.396 . S
C96 H123 0.929 1_455 S
C97 O110 1.240 . S
C97 O111 1.289 1_565 S
C98 O112 1.258 1_655 S
C98 O113 1.256 . S
C99 La89 2.928 . S
C99 C100 1.503 . S
C99 O114 1.261 . S
C99 O115 1.243 . S
C100 C99 1.503 . S
C100 C101 1.394 . S
C100 C105 1.373 . S
C101 C100 1.394 . S
C101 C102 1.380 . S
C101 H124 0.930 . S
C102 C101 1.380 . S
C102 C103 1.376 . S
C102 H125 0.930 . S
C103 C102 1.376 . S
C103 C104 1.370 . S
C104 C103 1.370 . S
C104 C105 1.396 . S
C104 H126 0.929 1_655 S
C105 C100 1.373 . S
C105 C104 1.396 . S
C105 H127 0.929 1_655 S
C106 O116 1.240 . S
C106 O117 1.289 1_545 S
C107 O118 1.258 1_455 S
C107 O119 1.256 . S
O108 La88 2.521 . S
O108 C90 1.261 . S
O109 La88 2.628 . S
O109 C90 1.243 . S
O110 La88 2.554 . S
O110 C97 1.240 . S
O111 La88 2.757 1_545 S
O111 La89 2.482 1_455 S
O111 C97 1.289 1_545 S
O112 La88 2.470 . S
O112 C98 1.258 1_455 S
O113 La89 2.503 1_565 S
O113 C98 1.256 . S
O114 La89 2.521 . S
O114 C99 1.261 . S
O115 La89 2.628 . S
O115 C99 1.243 . S
O116 La89 2.554 . S
O116 C106 1.240 . S
O117 La88 2.482 1_655 S
O117 La89 2.757 1_565 S
O117 C106 1.289 1_565 S
O118 La89 2.470 . S
O118 C107 1.258 1_655 S
O119 La88 2.503 1_545 S
O119 C107 1.256 . S
H120 C92 0.930 . S
H121 C93 0.930 . S
H122 C95 0.929 1_655 S
H123 C96 0.929 1_655 S
H124 C101 0.930 . S
H125 C102 0.930 . S
H126 C104 0.929 1_455 S
H127 C105 0.929 1_455 S
La128 C130 2.928 . S
La128 O148 2.521 . S
La128 O149 2.628 . S
La128 O150 2.554 . S
La128 O151 2.757 . S
La128 O152 2.470 . S
La128 O157 2.482 1_545 S
La128 O159 2.503 . S
La129 C139 2.928 . S
La129 O151 2.482 1_565 S
La129 O153 2.503 . S
La129 O154 2.521 . S
La129 O155 2.628 . S
La129 O156 2.554 . S
La129 O157 2.757 . S
La129 O158 2.470 . S
C130 La128 2.928 . S
C130 C131 1.503 1_556 S
C130 O148 1.261 . S
C130 O149 1.243 . S
C131 C130 1.503 1_554 S
C131 C132 1.394 . S
C131 C136 1.373 . S
C132 C131 1.394 . S
C132 C133 1.380 . S
C132 H160 0.930 . S
C133 C132 1.380 . S
C133 C134 1.376 . S
C133 H161 0.930 . S
C134 C133 1.376 . S
C134 C135 1.370 . S
C135 C134 1.370 . S
C135 C136 1.396 . S
C135 H162 0.929 1_545 S
C136 C131 1.373 . S
C136 C135 1.396 . S
C136 H163 0.929 1_545 S
C137 O150 1.240 . S
C137 O151 1.289 . S
C138 O152 1.258 1_565 S
C138 O153 1.256 . S
C139 La129 2.928 . S
C139 C140 1.503 . S
C139 O154 1.261 . S
C139 O155 1.243 . S
C140 C139 1.503 . S
C140 C141 1.394 . S
C140 C145 1.373 . S
C141 C140 1.394 . S
C141 C142 1.380 . S
C141 H164 0.930 . S
C142 C141 1.380 . S
C142 C143 1.376 . S
C142 H165 0.930 . S
C143 C142 1.376 . S
C143 C144 1.370 . S
C144 C143 1.370 . S
C144 C145 1.396 . S
C144 H166 0.929 1_565 S
C145 C140 1.373 . S
C145 C144 1.396 . S
C145 H167 0.929 1_565 S
C146 O156 1.240 . S
C146 O157 1.289 . S
C147 O158 1.258 1_545 S
C147 O159 1.256 . S
O148 La128 2.521 . S
O148 C130 1.261 . S
O149 La128 2.628 . S
O149 C130 1.243 . S
O150 La128 2.554 . S
O150 C137 1.240 . S
O151 La128 2.757 . S
O151 La129 2.482 1_545 S
O151 C137 1.289 . S
O152 La128 2.470 . S
O152 C138 1.258 1_545 S
O153 La129 2.503 . S
O153 C138 1.256 . S
O154 La129 2.521 . S
O154 C139 1.261 . S
O155 La129 2.628 . S
O155 C139 1.243 . S
O156 La129 2.554 . S
O156 C146 1.240 . S
O157 La128 2.482 1_565 S
O157 La129 2.757 . S
O157 C146 1.289 . S
O158 La129 2.470 . S
O158 C147 1.258 1_565 S
O159 La128 2.503 . S
O159 C147 1.256 . S
H160 C132 0.930 . S
H161 C133 0.930 . S
H162 C135 0.929 1_565 S
H163 C136 0.929 1_565 S
H164 C141 0.930 . S
H165 C142 0.930 . S
H166 C144 0.929 1_545 S
H167 C145 0.929 1_545 S
La168 C170 2.928 . S
La168 O188 2.521 . S
La168 O189 2.628 . S
La168 O190 2.554 . S
La168 O191 2.757 . S
La168 O192 2.470 . S
La168 O197 2.482 . S
La168 O199 2.503 . S
La169 C179 2.928 . S
La169 O191 2.482 . S
La169 O193 2.503 . S
La169 O194 2.521 . S
La169 O195 2.628 . S
La169 O196 2.554 . S
La169 O197 2.757 . S
La169 O198 2.470 . S
C170 La168 2.928 . S
C170 C171 1.503 1_556 S
C170 O188 1.261 . S
C170 O189 1.243 . S
C171 C170 1.503 1_554 S
C171 C172 1.394 . S
C171 C176 1.373 . S
C172 C171 1.394 . S
C172 C173 1.380 . S
C172 H200 0.930 . S
C173 C172 1.380 . S
C173 C174 1.376 . S
C173 H201 0.930 . S
C174 C173 1.376 . S
C174 C175 1.370 . S
C175 C174 1.370 . S
C175 C176 1.396 . S
C175 H202 0.929 . S
C176 C171 1.373 . S
C176 C175 1.396 . S
C176 H203 0.929 . S
C177 O190 1.240 . S
C177 O191 1.289 . S
C178 O192 1.258 . S
C178 O193 1.256 . S
C179 La169 2.928 . S
C179 C180 1.503 . S
C179 O194 1.261 . S
C179 O195 1.243 . S
C180 C179 1.503 . S
C180 C181 1.394 . S
C180 C185 1.373 . S
C181 C180 1.394 . S
C181 C182 1.380 . S
C181 H204 0.930 . S
C182 C181 1.380 . S
C182 C183 1.376 . S
C182 H205 0.930 . S
C183 C182 1.376 . S
C183 C184 1.370 . S
C184 C183 1.370 . S
C184 C185 1.396 . S
C184 H206 0.929 . S
C185 C180 1.373 . S
C185 C184 1.396 . S
C185 H207 0.929 . S
C186 O196 1.240 . S
C186 O197 1.289 . S
C187 O198 1.258 . S
C187 O199 1.256 . S
O188 La168 2.521 . S
O188 C170 1.261 . S
O189 La168 2.628 . S
O189 C170 1.243 . S
O190 La168 2.554 . S
O190 C177 1.240 . S
O191 La168 2.757 . S
O191 La169 2.482 . S
O191 C177 1.289 . S
O192 La168 2.470 . S
O192 C178 1.258 . S
O193 La169 2.503 . S
O193 C178 1.256 . S
O194 La169 2.521 . S
O194 C179 1.261 . S
O195 La169 2.628 . S
O195 C179 1.243 . S
O196 La169 2.554 . S
O196 C186 1.240 . S
O197 La168 2.482 . S
O197 La169 2.757 . S
O197 C186 1.289 . S
O198 La169 2.470 . S
O198 C187 1.258 . S
O199 La168 2.503 . S
O199 C187 1.256 . S
H200 C172 0.930 . S
H201 C173 0.930 . S
H202 C175 0.929 . S
H203 C176 0.929 . S
H204 C181 0.930 . S
H205 C182 0.930 . S
H206 C184 0.929 . S
H207 C185 0.929 . S
La208 C210 2.928 . S
La208 O228 2.521 . S
La208 O229 2.628 . S
La208 O230 2.554 . S
La208 O231 2.757 1_655 S
La208 O232 2.470 . S
La208 O237 2.482 . S
La208 O239 2.503 1_655 S
La209 C219 2.928 . S
La209 O231 2.482 . S
La209 O233 2.503 1_455 S
La209 O234 2.521 . S
La209 O235 2.628 . S
La209 O236 2.554 . S
La209 O237 2.757 1_455 S
La209 O238 2.470 . S
C210 La208 2.928 . S
C210 C211 1.503 1_556 S
C210 O228 1.261 . S
C210 O229 1.243 . S
C211 C210 1.503 1_554 S
C211 C212 1.394 . S
C211 C216 1.373 . S
C212 C211 1.394 . S
C212 C213 1.380 . S
C212 H240 0.930 . S
C213 C212 1.380 . S
C213 C214 1.376 . S
C213 H241 0.930 . S
C214 C213 1.376 . S
C214 C215 1.370 . S
C215 C214 1.370 . S
C215 C216 1.396 . S
C215 H242 0.929 . S
C216 C211 1.373 . S
C216 C215 1.396 . S
C216 H243 0.929 . S
C217 O230 1.257 . S
C217 O231 1.279 1_655 S
C218 O232 1.258 . S
C218 O233 1.256 . S
C219 La209 2.928 . S
C219 C220 1.503 . S
C219 O234 1.261 . S
C219 O235 1.243 . S
C220 C219 1.503 . S
C220 C221 1.394 . S
C220 C225 1.373 . S
C221 C220 1.394 . S
C221 C222 1.380 . S
C221 H244 0.930 . S
C222 C221 1.380 . S
C222 C223 1.376 . S
C222 H245 0.930 . S
C223 C222 1.376 . S
C223 C224 1.370 . S
C224 C223 1.370 . S
C224 C225 1.396 . S
C224 H246 0.929 . S
C225 C220 1.373 . S
C225 C224 1.396 . S
C225 H247 0.929 . S
C226 O236 1.263 . S
C226 O237 1.276 1_455 S
C227 O238 1.258 . S
C227 O239 1.256 . S
O228 La208 2.521 . S
O228 C210 1.261 . S
O229 La208 2.628 . S
O229 C210 1.243 . S
O230 La208 2.554 . S
O230 C217 1.257 . S
O231 La208 2.757 1_455 S
O231 La209 2.482 . S
O231 C217 1.279 1_455 S
O232 La208 2.470 . S
O232 C218 1.258 . S
O233 La209 2.503 1_655 S
O233 C218 1.256 . S
O234 La209 2.521 . S
O234 C219 1.261 . S
O235 La209 2.628 . S
O235 C219 1.243 . S
O236 La209 2.554 . S
O236 C226 1.263 . S
O237 La208 2.482 . S
O237 La209 2.757 1_655 S
O237 C226 1.276 1_655 S
O238 La209 2.470 . S
O238 C227 1.258 . S
O239 La208 2.503 1_455 S
O239 C227 1.256 . S
H240 C212 0.930 . S
H241 C213 0.930 . S
H242 C215 0.929 . S
H243 C216 0.929 . S
H244 C221 0.930 . S
H245 C222 0.930 . S
H246 C224 0.929 . S
H247 C225 0.929 . S
C248 C249 1.391 . S
C248 C250 1.394 . S
C248 H264 0.931 . S
C249 C248 1.391 . S
C249 C253 1.376 1_565 S
C250 C248 1.394 . S
C250 C251 1.369 . S
C250 C254 1.531 . S
C251 C250 1.369 . S
C251 C252 1.410 1_565 S
C251 C259 1.503 . S
C252 C251 1.410 1_545 S
C252 C253 1.392 . S
C252 C255 1.511 . S
C253 C249 1.376 1_545 S
C253 C252 1.392 . S
C253 H265 0.929 . S
C254 C250 1.531 . S
C254 H266 0.960 . S
C254 H267 0.962 . S
C254 H268 0.960 . S
C255 C252 1.511 . S
C255 H269 0.961 . S
C255 H270 0.961 . S
C255 H271 0.961 . S
C256 C257 1.383 . S
C256 C258 1.363 . S
C256 H272 0.931 . S
C257 C256 1.383 . S
C257 C261 1.393 1_545 S
C258 C256 1.363 . S
C258 C259 1.370 1_545 S
C258 C262 1.524 . S
C259 C251 1.503 . S
C259 C258 1.370 1_565 S
C259 C260 1.403 . S
C260 C259 1.403 . S
C260 C261 1.404 . S
C260 C263 1.539 . S
C261 C257 1.393 1_565 S
C261 C260 1.404 . S
C261 H273 0.930 . S
C262 C258 1.524 . S
C262 H274 0.956 . S
C262 H275 0.961 . S
C262 H276 0.961 . S
C263 C260 1.539 . S
C263 H277 0.958 . S
C263 H278 0.961 . S
C263 H279 0.960 . S
H264 C248 0.931 . S
H265 C253 0.929 . S
H266 C254 0.960 . S
H267 C254 0.962 . S
H268 C254 0.960 . S
H269 C255 0.961 . S
H270 C255 0.961 . S
H271 C255 0.961 . S
H272 C256 0.931 . S
H273 C261 0.930 . S
H274 C262 0.956 . S
H275 C262 0.961 . S
H276 C262 0.961 . S
H277 C263 0.958 . S
H278 C263 0.961 . S
H279 C263 0.960 . S
C280 C281 1.391 . S
C280 C282 1.394 . S
C280 H296 0.931 . S
C281 C280 1.391 . S
C281 C285 1.376 . S
C282 C280 1.394 . S
C282 C283 1.369 . S
C282 C286 1.531 . S
C283 C282 1.369 . S
C283 C284 1.410 . S
C283 C291 1.503 . S
C284 C283 1.410 . S
C284 C285 1.392 . S
C284 C287 1.511 . S
C285 C281 1.376 . S
C285 C284 1.392 . S
C285 H297 0.929 . S
C286 C282 1.531 . S
C286 H298 0.960 . S
C286 H299 0.962 . S
C286 H300 0.960 . S
C287 C284 1.511 . S
C287 H301 0.961 . S
C287 H302 0.961 . S
C287 H303 0.961 . S
C288 C289 1.370 . S
C288 C290 1.363 . S
C288 H304 0.931 . S
C289 C288 1.370 . S
C289 C293 1.408 . S
C290 C288 1.363 . S
C290 C291 1.370 . S
C290 C294 1.524 . S
C291 C283 1.503 . S
C291 C290 1.370 . S
C291 C292 1.403 . S
C292 C291 1.403 . S
C292 C293 1.404 . S
C292 C295 1.539 . S
C293 C289 1.408 . S
C293 C292 1.404 . S
C293 H305 0.930 . S
C294 C290 1.524 . S
C294 H306 0.956 . S
C294 H307 0.961 . S
C294 H308 0.961 . S
C295 C292 1.539 . S
C295 H309 0.958 . S
C295 H310 0.961 . S
C295 H311 0.960 . S
H296 C280 0.931 . S
H297 C285 0.929 . S
H298 C286 0.960 . S
H299 C286 0.962 . S
H300 C286 0.960 . S
H301 C287 0.961 . S
H302 C287 0.961 . S
H303 C287 0.961 . S
H304 C288 0.931 . S
H305 C293 0.930 . S
H306 C294 0.956 . S
H307 C294 0.961 . S
H308 C294 0.961 . S
H309 C295 0.958 . S
H310 C295 0.961 . S
H311 C295 0.960 . S
C312 C313 1.391 . S
C312 C314 1.394 . S
C312 H328 0.931 . S
C313 C312 1.391 . S
C313 C317 1.376 . S
C314 C312 1.394 . S
C314 C315 1.369 . S
C314 C318 1.531 . S
C315 C314 1.369 . S
C315 C316 1.410 . S
C315 C323 1.503 . S
C316 C315 1.410 . S
C316 C317 1.392 . S
C316 C319 1.511 . S
C317 C313 1.376 . S
C317 C316 1.392 . S
C317 H329 0.929 . S
C318 C314 1.531 . S
C318 H330 0.960 . S
C318 H331 0.962 . S
C318 H332 0.960 . S
C319 C316 1.511 . S
C319 H333 0.961 . S
C319 H334 0.961 . S
C319 H335 0.961 . S
C320 C321 1.370 . S
C320 C322 1.363 . S
C320 H336 0.931 . S
C321 C320 1.370 . S
C321 C325 1.408 . S
C322 C320 1.363 . S
C322 C323 1.370 . S
C322 C326 1.524 . S
C323 C315 1.503 . S
C323 C322 1.370 . S
C323 C324 1.403 . S
C324 C323 1.403 . S
C324 C325 1.404 . S
C324 C327 1.539 . S
C325 C321 1.408 . S
C325 C324 1.404 . S
C325 H337 0.930 . S
C326 C322 1.524 . S
C326 H338 0.956 . S
C326 H339 0.961 . S
C326 H340 0.961 . S
C327 C324 1.539 . S
C327 H341 0.958 . S
C327 H342 0.961 . S
C327 H343 0.960 . S
H328 C312 0.931 . S
H329 C317 0.929 . S
H330 C318 0.960 . S
H331 C318 0.962 . S
H332 C318 0.960 . S
H333 C319 0.961 . S
H334 C319 0.961 . S
H335 C319 0.961 . S
H336 C320 0.931 . S
H337 C325 0.930 . S
H338 C326 0.956 . S
H339 C326 0.961 . S
H340 C326 0.961 . S
H341 C327 0.958 . S
H342 C327 0.961 . S
H343 C327 0.960 . S
C344 C345 1.377 1_455 S
C344 C346 1.394 . S
C344 H360 0.931 . S
C345 C344 1.377 1_655 S
C345 C349 1.390 . S
C346 C344 1.394 . S
C346 C347 1.340 1_455 S
C346 C350 1.531 . S
C347 C346 1.340 1_655 S
C347 C348 1.439 . S
C347 C355 1.503 . S
C348 C347 1.439 . S
C348 C349 1.392 . S
C348 C351 1.511 . S
C349 C345 1.390 . S
C349 C348 1.392 . S
C349 H361 0.929 . S
C350 C346 1.531 . S
C350 H362 0.960 . S
C350 H363 0.962 . S
C350 H364 0.960 . S
C351 C348 1.511 . S
C351 H365 0.961 . S
C351 H366 0.961 . S
C351 H367 0.961 . S
C352 C353 1.370 . S
C352 C354 1.363 . S
C352 H368 0.931 . S
C353 C352 1.370 . S
C353 C357 1.408 1_455 S
C354 C352 1.363 . S
C354 C355 1.370 1_455 S
C354 C358 1.524 . S
C355 C347 1.503 . S
C355 C354 1.370 1_655 S
C355 C356 1.403 . S
C356 C355 1.403 . S
C356 C357 1.404 . S
C356 C359 1.539 . S
C357 C353 1.408 1_655 S
C357 C356 1.404 . S
C357 H369 0.930 . S
C358 C354 1.524 . S
C358 H370 0.956 . S
C358 H371 0.961 . S
C358 H372 0.961 . S
C359 C356 1.539 . S
C359 H373 0.958 . S
C359 H374 0.961 . S
C359 H375 0.960 . S
H360 C344 0.931 . S
H361 C349 0.929 . S
H362 C350 0.960 . S
H363 C350 0.962 . S
H364 C350 0.960 . S
H365 C351 0.961 . S
H366 C351 0.961 . S
H367 C351 0.961 . S
H368 C352 0.931 . S
H369 C357 0.930 . S
H370 C358 0.956 . S
H371 C358 0.961 . S
H372 C358 0.961 . S
H373 C359 0.958 . S
H374 C359 0.961 . S
H375 C359 0.960 . S
C376 C377 1.391 1_565 S
C376 C378 1.394 . S
C376 H392 0.931 . S
C377 C376 1.391 1_545 S
C377 C381 1.376 . S
C378 C376 1.394 . S
C378 C379 1.369 1_565 S
C378 C382 1.531 . S
C379 C378 1.369 1_545 S
C379 C380 1.410 . S
C379 C387 1.503 . S
C380 C379 1.410 . S
C380 C381 1.392 . S
C380 C383 1.511 . S
C381 C377 1.376 . S
C381 C380 1.392 . S
C381 H393 0.929 . S
C382 C378 1.531 . S
C382 H394 0.960 . S
C382 H395 0.962 . S
C382 H396 0.960 . S
C383 C380 1.511 . S
C383 H397 0.961 . S
C383 H398 0.961 . S
C383 H399 0.961 . S
C384 C385 1.376 1_554 S
C384 C386 1.363 . S
C384 H400 0.931 . S
C385 C384 1.376 1_556 S
C385 C389 1.403 1_565 S
C386 C384 1.363 . S
C386 C387 1.370 1_565 S
C386 C390 1.524 . S
C387 C379 1.503 . S
C387 C386 1.370 1_545 S
C387 C388 1.403 1_554 S
C388 C387 1.403 1_556 S
C388 C389 1.404 . S
C388 C391 1.539 . S
C389 C385 1.403 1_545 S
C389 C388 1.404 . S
C389 H401 0.930 . S
C390 C386 1.524 . S
C390 H402 0.956 . S
C390 H403 0.961 . S
C390 H404 0.961 . S
C391 C388 1.539 . S
C391 H405 0.958 . S
C391 H406 0.961 . S
C391 H407 0.960 1_556 S
H392 C376 0.931 . S
H393 C381 0.929 . S
H394 C382 0.960 . S
H395 C382 0.962 . S
H396 C382 0.960 . S
H397 C383 0.961 . S
H398 C383 0.961 . S
H399 C383 0.961 . S
H400 C384 0.931 . S
H401 C389 0.930 . S
H402 C390 0.956 . S
H403 C390 0.961 . S
H404 C390 0.961 . S
H405 C391 0.958 . S
H406 C391 0.961 . S
H407 C391 0.960 1_554 S
C408 C409 1.391 . S
C408 C410 1.394 . S
C408 H424 0.931 . S
C409 C408 1.391 . S
C409 C413 1.376 . S
C410 C408 1.394 . S
C410 C411 1.369 . S
C410 C414 1.531 . S
C411 C410 1.369 . S
C411 C412 1.410 . S
C411 C419 1.503 . S
C412 C411 1.410 . S
C412 C413 1.392 . S
C412 C415 1.511 . S
C413 C409 1.376 . S
C413 C412 1.392 . S
C413 H425 0.929 . S
C414 C410 1.531 . S
C414 H426 0.960 . S
C414 H427 0.962 . S
C414 H428 0.960 . S
C415 C412 1.511 . S
C415 H429 0.961 . S
C415 H430 0.961 . S
C415 H431 0.961 . S
C416 C417 1.370 1_554 S
C416 C418 1.363 . S
C416 H432 0.931 . S
C417 C416 1.370 1_556 S
C417 C421 1.408 . S
C418 C416 1.363 . S
C418 C419 1.370 . S
C418 C422 1.524 . S
C419 C411 1.503 . S
C419 C418 1.370 . S
C419 C420 1.403 1_554 S
C420 C419 1.403 1_556 S
C420 C421 1.404 . S
C420 C423 1.539 . S
C421 C417 1.408 . S
C421 C420 1.404 . S
C421 H433 0.930 . S
C422 C418 1.524 . S
C422 H434 0.956 . S
C422 H435 0.961 . S
C422 H436 0.961 . S
C423 C420 1.539 . S
C423 H437 0.958 . S
C423 H438 0.961 . S
C423 H439 0.961 . S
H424 C408 0.931 . S
H425 C413 0.929 . S
H426 C414 0.960 . S
H427 C414 0.962 . S
H428 C414 0.960 . S
H429 C415 0.961 . S
H430 C415 0.961 . S
H431 C415 0.961 . S
H432 C416 0.931 . S
H433 C421 0.930 . S
H434 C422 0.956 . S
H435 C422 0.961 . S
H436 C422 0.961 . S
H437 C423 0.958 . S
H438 C423 0.961 . S
H439 C423 0.961 . S
C440 C441 1.391 . S
C440 C442 1.394 . S
C440 H456 0.931 . S
C441 C440 1.391 . S
C441 C445 1.376 . S
C442 C440 1.394 . S
C442 C443 1.369 . S
C442 C446 1.531 . S
C443 C442 1.369 . S
C443 C444 1.410 . S
C443 C451 1.503 . S
C444 C443 1.410 . S
C444 C445 1.392 . S
C444 C447 1.511 . S
C445 C441 1.376 . S
C445 C444 1.392 . S
C445 H457 0.929 . S
C446 C442 1.531 . S
C446 H458 0.960 . S
C446 H459 0.962 . S
C446 H460 0.960 . S
C447 C444 1.511 . S
C447 H461 0.961 . S
C447 H462 0.961 . S
C447 H463 0.961 . S
C448 C449 1.370 1_554 S
C448 C450 1.363 . S
C448 H464 0.931 . S
C449 C448 1.370 1_556 S
C449 C453 1.408 . S
C450 C448 1.363 . S
C450 C451 1.370 . S
C450 C454 1.524 . S
C451 C443 1.503 . S
C451 C450 1.370 . S
C451 C452 1.403 . S
C452 C451 1.403 . S
C452 C453 1.404 1_554 S
C452 C455 1.539 . S
C453 C449 1.408 . S
C453 C452 1.404 1_556 S
C453 H465 0.930 . S
C454 C450 1.524 . S
C454 H466 0.956 . S
C454 H467 0.961 . S
C454 H468 0.961 . S
C455 C452 1.539 . S
C455 H469 0.958 . S
C455 H470 0.961 1_554 S
C455 H471 0.960 . S
H456 C440 0.931 . S
H457 C445 0.929 . S
H458 C446 0.960 . S
H459 C446 0.962 . S
H460 C446 0.960 . S
H461 C447 0.961 . S
H462 C447 0.961 . S
H463 C447 0.961 . S
H464 C448 0.931 . S
H465 C453 0.930 . S
H466 C454 0.956 . S
H467 C454 0.961 . S
H468 C454 0.961 . S
H469 C455 0.958 . S
H470 C455 0.961 1_556 S
H471 C455 0.960 . S
C472 C473 1.389 . S
C472 C474 1.394 . S
C472 H488 0.931 . S
C473 C472 1.389 . S
C473 C477 1.378 1_455 S
C474 C472 1.394 . S
C474 C475 1.392 . S
C474 C478 1.531 . S
C475 C474 1.392 . S
C475 C476 1.386 1_455 S
C475 C483 1.503 1_455 S
C476 C475 1.386 1_655 S
C476 C477 1.392 . S
C476 C479 1.511 . S
C477 C473 1.378 1_655 S
C477 C476 1.392 . S
C477 H489 0.929 . S
C478 C474 1.531 . S
C478 H490 0.960 . S
C478 H491 0.962 . S
C478 H492 0.960 . S
C479 C476 1.511 . S
C479 H493 0.961 . S
C479 H494 0.961 . S
C479 H495 0.961 . S
C480 C481 1.370 . S
C480 C482 1.363 1_556 S
C480 H496 0.931 . S
C481 C480 1.370 . S
C481 C485 1.408 1_656 S
C482 C480 1.363 1_554 S
C482 C483 1.371 . S
C482 C486 1.524 1_554 S
C483 C475 1.503 1_655 S
C483 C482 1.371 . S
C483 C484 1.402 1_655 S
C484 C483 1.402 1_455 S
C484 C485 1.404 . S
C484 C487 1.539 . S
C485 C481 1.408 1_454 S
C485 C484 1.404 . S
C485 H497 0.930 . S
C486 C482 1.524 1_556 S
C486 H498 0.956 1_656 S
C486 H499 0.961 1_556 S
C486 H500 0.961 . S
C487 C484 1.539 . S
C487 H501 0.958 . S
C487 H502 0.965 . S
C487 H503 0.948 1_455 S
H488 C472 0.931 . S
H489 C477 0.929 . S
H490 C478 0.960 . S
H491 C478 0.962 . S
H492 C478 0.960 . S
H493 C479 0.961 . S
H494 C479 0.961 . S
H495 C479 0.961 . S
H496 C480 0.931 . S
H497 C485 0.930 . S
H498 C486 0.956 1_454 S
H499 C486 0.961 1_554 S
H500 C486 0.961 . S
H501 C487 0.958 . S
H502 C487 0.965 . S
H503 C487 0.948 1_655 S
C504 C505 1.391 . S
C504 C506 1.394 . S
C504 H520 0.931 . S
C505 C504 1.391 . S
C505 C509 1.376 1_455 S
C506 C504 1.394 . S
C506 C507 1.369 1_455 S
C506 C510 1.531 . S
C507 C506 1.369 1_655 S
C507 C508 1.410 . S
C507 C515 1.503 . S
C508 C507 1.410 . S
C508 C509 1.392 . S
C508 C511 1.511 . S
C509 C505 1.376 1_655 S
C509 C508 1.392 . S
C509 H521 0.929 . S
C510 C506 1.531 . S
C510 H522 0.960 . S
C510 H523 0.962 . S
C510 H524 0.960 . S
C511 C508 1.511 . S
C511 H525 0.961 . S
C511 H526 0.961 . S
C511 H527 0.961 . S
C512 C513 1.370 . S
C512 C514 1.363 . S
C512 H528 0.931 . S
C513 C512 1.370 . S
C513 C517 1.408 . S
C514 C512 1.363 . S
C514 C515 1.370 . S
C514 C518 1.524 . S
C515 C507 1.503 . S
C515 C514 1.370 . S
C515 C516 1.403 . S
C516 C515 1.403 . S
C516 C517 1.404 . S
C516 C519 1.539 . S
C517 C513 1.408 . S
C517 C516 1.404 . S
C517 H529 0.930 . S
C518 C514 1.524 . S
C518 H530 0.960 1_655 S
C518 H531 0.961 . S
C518 H532 0.961 . S
C519 C516 1.539 . S
C519 H533 0.958 . S
C519 H534 0.961 . S
C519 H535 0.960 . S
H520 C504 0.931 . S
H521 C509 0.929 . S
H522 C510 0.960 . S
H523 C510 0.962 . S
H524 C510 0.960 . S
H525 C511 0.961 . S
H526 C511 0.961 . S
H527 C511 0.961 . S
H528 C512 0.931 . S
H529 C517 0.930 . S
H530 C518 0.960 1_455 S
H531 C518 0.961 . S
H532 C518 0.961 . S
H533 C519 0.958 . S
H534 C519 0.961 . S
H535 C519 0.960 . S
C536 C537 1.391 . S
C536 C538 1.394 . S
C536 H552 0.931 . S
C537 C536 1.391 . S
C537 C541 1.376 1_545 S
C538 C536 1.394 . S
C538 C539 1.369 1_545 S
C538 C542 1.531 . S
C539 C538 1.369 1_565 S
C539 C540 1.410 . S
C539 C547 1.503 . S
C540 C539 1.410 . S
C540 C541 1.392 . S
C540 C543 1.511 . S
C541 C537 1.376 1_565 S
C541 C540 1.392 . S
C541 H553 0.929 . S
C542 C538 1.531 . S
C542 H554 0.960 . S
C542 H555 0.962 . S
C542 H556 0.960 . S
C543 C540 1.511 . S
C543 H557 0.961 . S
C543 H558 0.961 . S
C543 H559 0.961 . S
C544 C545 1.370 . S
C544 C546 1.363 . S
C544 H560 0.931 . S
C545 C544 1.370 . S
C545 C549 1.408 . S
C546 C544 1.363 . S
C546 C547 1.370 . S
C546 C550 1.524 . S
C547 C539 1.503 . S
C547 C546 1.370 . S
C547 C548 1.403 . S
C548 C547 1.403 . S
C548 C549 1.404 . S
C548 C551 1.539 1_565 S
C549 C545 1.408 . S
C549 C548 1.404 . S
C549 H561 0.930 . S
C550 C546 1.524 . S
C550 H562 0.956 . S
C550 H563 0.961 . S
C550 H564 0.961 . S
C551 C548 1.539 1_545 S
C551 H565 0.958 . S
C551 H566 0.961 1_545 S
C551 H567 0.957 1_545 S
H552 C536 0.931 . S
H553 C541 0.929 . S
H554 C542 0.960 . S
H555 C542 0.962 . S
H556 C542 0.960 . S
H557 C543 0.961 . S
H558 C543 0.961 . S
H559 C543 0.961 . S
H560 C544 0.931 . S
H561 C549 0.930 . S
H562 C550 0.956 . S
H563 C550 0.961 . S
H564 C550 0.961 . S
H565 C551 0.958 . S
H566 C551 0.961 1_565 S
H567 C551 0.957 1_565 S
C568 C569 1.391 . S
C568 C570 1.394 . S
C568 H584 0.931 . S
C569 C568 1.391 . S
C569 C573 1.376 . S
C570 C568 1.394 . S
C570 C571 1.369 . S
C570 C574 1.531 . S
C571 C570 1.369 . S
C571 C572 1.410 . S
C571 C579 1.503 . S
C572 C571 1.410 . S
C572 C573 1.392 . S
C572 C575 1.511 . S
C573 C569 1.376 . S
C573 C572 1.392 . S
C573 H585 0.929 . S
C574 C570 1.531 . S
C574 H586 0.960 . S
C574 H587 0.962 . S
C574 H588 0.960 . S
C575 C572 1.511 . S
C575 H589 0.961 . S
C575 H590 0.961 . S
C575 H591 0.961 . S
C576 C577 1.370 . S
C576 C578 1.363 . S
C576 H592 0.931 . S
C577 C576 1.370 . S
C577 C581 1.408 . S
C578 C576 1.363 . S
C578 C579 1.370 . S
C578 C582 1.524 . S
C579 C571 1.503 . S
C579 C578 1.370 . S
C579 C580 1.403 . S
C580 C579 1.403 . S
C580 C581 1.404 . S
C580 C583 1.539 . S
C581 C577 1.408 . S
C581 C580 1.404 . S
C581 H593 0.930 . S
C582 C578 1.524 . S
C582 H594 0.956 . S
C582 H595 0.961 . S
C582 H596 0.961 . S
C583 C580 1.539 . S
C583 H597 0.958 . S
C583 H598 0.961 . S
C583 H599 0.960 . S
H584 C568 0.931 . S
H585 C573 0.929 . S
H586 C574 0.960 . S
H587 C574 0.962 . S
H588 C574 0.960 . S
H589 C575 0.961 . S
H590 C575 0.961 . S
H591 C575 0.961 . S
H592 C576 0.931 . S
H593 C581 0.930 . S
H594 C582 0.956 . S
H595 C582 0.961 . S
H596 C582 0.961 . S
H597 C583 0.958 . S
H598 C583 0.961 . S
H599 C583 0.960 . S
C600 C601 1.391 . S
C600 C602 1.394 . S
C600 H616 0.931 . S
C601 C600 1.391 . S
C601 C605 1.376 . S
C602 C600 1.394 . S
C602 C603 1.369 . S
C602 C606 1.531 . S
C603 C602 1.369 . S
C603 C604 1.410 . S
C603 C611 1.503 . S
C604 C603 1.410 . S
C604 C605 1.392 . S
C604 C607 1.511 . S
C605 C601 1.376 . S
C605 C604 1.392 . S
C605 H617 0.929 . S
C606 C602 1.531 . S
C606 H618 0.960 . S
C606 H619 0.962 . S
C606 H620 0.960 . S
C607 C604 1.511 . S
C607 H621 0.961 . S
C607 H622 0.961 . S
C607 H623 0.961 . S
C608 C609 1.370 . S
C608 C610 1.363 . S
C608 H624 0.931 . S
C609 C608 1.370 . S
C609 C613 1.408 . S
C610 C608 1.363 . S
C610 C611 1.370 . S
C610 C614 1.524 . S
C611 C603 1.503 . S
C611 C610 1.370 . S
C611 C612 1.403 . S
C612 C611 1.403 . S
C612 C613 1.404 . S
C612 C615 1.539 . S
C613 C609 1.408 . S
C613 C612 1.404 . S
C613 H625 0.930 . S
C614 C610 1.524 . S
C614 H626 0.956 . S
C614 H627 0.961 . S
C614 H628 0.961 . S
C615 C612 1.539 . S
C615 H629 0.958 . S
C615 H630 0.961 . S
C615 H631 0.960 . S
H616 C600 0.931 . S
H617 C605 0.929 . S
H618 C606 0.960 . S
H619 C606 0.962 . S
H620 C606 0.960 . S
H621 C607 0.961 . S
H622 C607 0.961 . S
H623 C607 0.961 . S
H624 C608 0.931 . S
H625 C613 0.930 . S
H626 C614 0.956 . S
H627 C614 0.961 . S
H628 C614 0.961 . S
H629 C615 0.958 . S
H630 C615 0.961 . S
H631 C615 0.960 . S
C632 C633 1.391 . S
C632 C634 1.394 . S
C632 H648 0.931 . S
C633 C632 1.391 . S
C633 C637 1.376 1_655 S
C634 C632 1.394 . S
C634 C635 1.369 1_655 S
C634 C638 1.531 . S
C635 C634 1.369 1_455 S
C635 C636 1.410 . S
C635 C643 1.503 . S
C636 C635 1.410 . S
C636 C637 1.392 . S
C636 C639 1.511 . S
C637 C633 1.376 1_455 S
C637 C636 1.392 . S
C637 H649 0.929 . S
C638 C634 1.531 . S
C638 H650 0.960 . S
C638 H651 0.962 . S
C638 H652 0.960 . S
C639 C636 1.511 . S
C639 H653 0.961 . S
C639 H654 0.961 . S
C639 H655 0.961 . S
C640 C641 1.370 . S
C640 C642 1.363 . S
C640 H656 0.931 . S
C641 C640 1.370 . S
C641 C645 1.408 . S
C642 C640 1.363 . S
C642 C643 1.370 . S
C642 C646 1.524 . S
C643 C635 1.503 . S
C643 C642 1.370 . S
C643 C644 1.403 . S
C644 C643 1.403 . S
C644 C645 1.404 . S
C644 C647 1.539 . S
C645 C641 1.408 . S
C645 C644 1.404 . S
C645 H657 0.930 . S
C646 C642 1.524 . S
C646 H658 0.956 1_455 S
C646 H659 0.961 . S
C646 H660 0.961 . S
C647 C644 1.539 . S
C647 H661 0.958 . S
C647 H662 0.961 . S
C647 H663 0.960 . S
H648 C632 0.931 . S
H649 C637 0.929 . S
H650 C638 0.960 . S
H651 C638 0.962 . S
H652 C638 0.960 . S
H653 C639 0.961 . S
H654 C639 0.961 . S
H655 C639 0.961 . S
H656 C640 0.931 . S
H657 C645 0.930 . S
H658 C646 0.956 1_655 S
H659 C646 0.961 . S
H660 C646 0.961 . S
H661 C647 0.958 . S
H662 C647 0.961 . S
H663 C647 0.960 . S
C664 C665 1.393 . S
C664 C666 1.394 . S
C664 H680 0.931 . S
C665 C664 1.393 . S
C665 C669 1.375 1_545 S
C666 C664 1.394 . S
C666 C667 1.369 . S
C666 C670 1.531 . S
C667 C666 1.369 . S
C667 C668 1.410 . S
C667 C675 1.503 . S
C668 C667 1.410 . S
C668 C669 1.392 1_545 S
C668 C671 1.511 1_545 S
C669 C665 1.375 1_565 S
C669 C668 1.392 1_565 S
C669 H681 0.929 . S
C670 C666 1.531 . S
C670 H682 0.960 . S
C670 H683 0.962 . S
C670 H684 0.960 . S
C671 C668 1.511 1_565 S
C671 H685 0.961 . S
C671 H686 0.961 . S
C671 H687 0.961 1_565 S
C672 C673 1.370 . S
C672 C674 1.363 . S
C672 H688 0.931 . S
C673 C672 1.370 . S
C673 C677 1.408 . S
C674 C672 1.363 . S
C674 C675 1.370 . S
C674 C678 1.524 1_545 S
C675 C667 1.503 . S
C675 C674 1.370 . S
C675 C676 1.403 . S
C676 C675 1.403 . S
C676 C677 1.404 . S
C676 C679 1.539 . S
C677 C673 1.408 . S
C677 C676 1.404 . S
C677 H689 0.930 . S
C678 C674 1.524 1_565 S
C678 H690 0.956 . S
C678 H691 0.961 . S
C678 H692 0.961 . S
C679 C676 1.539 . S
C679 H693 0.958 . S
C679 H694 0.961 . S
C679 H695 0.960 . S
H680 C664 0.931 . S
H681 C669 0.929 . S
H682 C670 0.960 . S
H683 C670 0.962 . S
H684 C670 0.960 . S
H685 C671 0.961 . S
H686 C671 0.961 . S
H687 C671 0.961 1_545 S
H688 C672 0.931 . S
H689 C677 0.930 . S
H690 C678 0.956 . S
H691 C678 0.961 . S
H692 C678 0.961 . S
H693 C679 0.958 . S
H694 C679 0.961 . S
H695 C679 0.960 . S
C696 C697 1.391 . S
C696 C698 1.394 . S
C696 H712 0.931 . S
C697 C696 1.391 . S
C697 C701 1.376 . S
C698 C696 1.394 . S
C698 C699 1.369 . S
C698 C702 1.531 . S
C699 C698 1.369 . S
C699 C700 1.410 . S
C699 C707 1.503 . S
C700 C699 1.410 . S
C700 C701 1.392 . S
C700 C703 1.511 . S
C701 C697 1.376 . S
C701 C700 1.392 . S
C701 H713 0.929 . S
C702 C698 1.531 . S
C702 H714 0.960 . S
C702 H715 0.962 . S
C702 H716 0.960 . S
C703 C700 1.511 . S
C703 H717 0.961 . S
C703 H718 0.961 . S
C703 H719 0.961 . S
C704 C705 1.370 . S
C704 C706 1.363 . S
C704 H720 0.931 . S
C705 C704 1.370 . S
C705 C709 1.408 . S
C706 C704 1.363 . S
C706 C707 1.370 . S
C706 C710 1.524 . S
C707 C699 1.503 . S
C707 C706 1.370 . S
C707 C708 1.403 . S
C708 C707 1.403 . S
C708 C709 1.404 . S
C708 C711 1.539 . S
C709 C705 1.408 . S
C709 C708 1.404 . S
C709 H721 0.930 . S
C710 C706 1.524 . S
C710 H722 0.956 . S
C710 H723 0.961 . S
C710 H724 0.961 . S
C711 C708 1.539 . S
C711 H725 0.958 . S
C711 H726 0.961 . S
C711 H727 0.960 . S
H712 C696 0.931 . S
H713 C701 0.929 . S
H714 C702 0.960 . S
H715 C702 0.962 . S
H716 C702 0.960 . S
H717 C703 0.961 . S
H718 C703 0.961 . S
H719 C703 0.961 . S
H720 C704 0.931 . S
H721 C709 0.930 . S
H722 C710 0.956 . S
H723 C710 0.961 . S
H724 C710 0.961 . S
H725 C711 0.958 . S
H726 C711 0.961 . S
H727 C711 0.960 . S
C728 C729 1.391 . S
C728 C730 1.394 . S
C728 H744 0.931 . S
C729 C728 1.391 . S
C729 C733 1.376 . S
C730 C728 1.394 . S
C730 C731 1.369 . S
C730 C734 1.531 . S
C731 C730 1.369 . S
C731 C732 1.410 . S
C731 C739 1.503 . S
C732 C731 1.410 . S
C732 C733 1.392 . S
C732 C735 1.511 . S
C733 C729 1.376 . S
C733 C732 1.392 . S
C733 H745 0.929 . S
C734 C730 1.531 . S
C734 H746 0.960 . S
C734 H747 0.962 . S
C734 H748 0.960 . S
C735 C732 1.511 . S
C735 H749 0.961 . S
C735 H750 0.961 . S
C735 H751 0.961 . S
C736 C737 1.370 . S
C736 C738 1.363 . S
C736 H752 0.931 . S
C737 C736 1.370 . S
C737 C741 1.408 . S
C738 C736 1.363 . S
C738 C739 1.370 . S
C738 C742 1.524 . S
C739 C731 1.503 . S
C739 C738 1.370 . S
C739 C740 1.403 . S
C740 C739 1.403 . S
C740 C741 1.404 . S
C740 C743 1.539 . S
C741 C737 1.408 . S
C741 C740 1.404 . S
C741 H753 0.930 . S
C742 C738 1.524 . S
C742 H754 0.956 . S
C742 H755 0.961 . S
C742 H756 0.961 . S
C743 C740 1.539 . S
C743 H757 0.958 . S
C743 H758 0.961 . S
C743 H759 0.960 . S
H744 C728 0.931 . S
H745 C733 0.929 . S
H746 C734 0.960 . S
H747 C734 0.962 . S
H748 C734 0.960 . S
H749 C735 0.961 . S
H750 C735 0.961 . S
H751 C735 0.961 . S
H752 C736 0.931 . S
H753 C741 0.930 . S
H754 C742 0.956 . S
H755 C742 0.961 . S
H756 C742 0.961 . S
H757 C743 0.958 . S
H758 C743 0.961 . S
H759 C743 0.960 . S
C760 C761 1.391 . S
C760 C762 1.394 . S
C760 H776 0.931 . S
C761 C760 1.391 . S
C761 C765 1.376 1_455 S
C762 C760 1.394 . S
C762 C763 1.369 . S
C762 C766 1.531 . S
C763 C762 1.369 . S
C763 C764 1.410 1_455 S
C763 C771 1.503 . S
C764 C763 1.410 1_655 S
C764 C765 1.392 . S
C764 C767 1.511 . S
C765 C761 1.376 1_655 S
C765 C764 1.392 . S
C765 H777 0.929 . S
C766 C762 1.531 . S
C766 H778 0.960 . S
C766 H779 0.962 . S
C766 H780 0.960 . S
C767 C764 1.511 . S
C767 H781 0.961 . S
C767 H782 0.961 . S
C767 H783 0.961 . S
C768 C769 1.370 . S
C768 C770 1.363 . S
C768 H784 0.931 . S
C769 C768 1.370 . S
C769 C773 1.408 . S
C770 C768 1.363 . S
C770 C771 1.370 . S
C770 C774 1.524 . S
C771 C763 1.503 . S
C771 C770 1.370 . S
C771 C772 1.403 . S
C772 C771 1.403 . S
C772 C773 1.404 . S
C772 C775 1.539 1_556 S
C773 C769 1.408 . S
C773 C772 1.404 . S
C773 H785 0.930 . S
C774 C770 1.524 . S
C774 H786 0.956 . S
C774 H787 0.961 1_455 S
C774 H788 0.967 . S
C775 C772 1.539 1_554 S
C775 H789 0.958 . S
C775 H790 0.961 . S
C775 H791 0.960 . S
H776 C760 0.931 . S
H777 C765 0.929 . S
H778 C766 0.960 . S
H779 C766 0.962 . S
H780 C766 0.960 . S
H781 C767 0.961 . S
H782 C767 0.961 . S
H783 C767 0.961 . S
H784 C768 0.931 . S
H785 C773 0.930 . S
H786 C774 0.956 . S
H787 C774 0.961 1_655 S
H788 C774 0.967 . S
H789 C775 0.958 . S
H790 C775 0.961 . S
H791 C775 0.960 . S
C792 C793 1.391 . S
C792 C794 1.394 . S
C792 H808 0.931 . S
C793 C792 1.391 . S
C793 C797 1.376 . S
C794 C792 1.394 . S
C794 C795 1.369 . S
C794 C798 1.531 . S
C795 C794 1.369 . S
C795 C796 1.410 . S
C795 C803 1.503 . S
C796 C795 1.410 . S
C796 C797 1.392 . S
C796 C799 1.511 1_556 S
C797 C793 1.376 . S
C797 C796 1.392 . S
C797 H809 0.929 1_546 S
C798 C794 1.531 . S
C798 H810 0.960 . S
C798 H811 0.962 . S
C798 H812 0.960 . S
C799 C796 1.511 1_554 S
C799 H813 0.961 1_545 S
C799 H814 0.961 1_545 S
C799 H815 0.961 . S
C800 C801 1.370 1_565 S
C800 C802 1.363 . S
C800 H816 0.931 . S
C801 C800 1.370 1_545 S
C801 C805 1.408 . S
C802 C800 1.363 . S
C802 C803 1.370 1_565 S
C802 C806 1.524 . S
C803 C795 1.503 . S
C803 C802 1.370 1_545 S
C803 C804 1.403 . S
C804 C803 1.403 . S
C804 C805 1.404 . S
C804 C807 1.539 . S
C805 C801 1.408 . S
C805 C804 1.404 . S
C805 H817 0.930 . S
C806 C802 1.524 . S
C806 H818 0.956 . S
C806 H819 0.961 . S
C806 H820 0.961 . S
C807 C804 1.539 . S
C807 H821 0.958 . S
C807 H822 0.961 . S
C807 H823 0.960 . S
H808 C792 0.931 . S
H809 C797 0.929 1_564 S
H810 C798 0.960 . S
H811 C798 0.962 . S
H812 C798 0.960 . S
H813 C799 0.961 1_565 S
H814 C799 0.961 1_565 S
H815 C799 0.961 . S
H816 C800 0.931 . S
H817 C805 0.930 . S
H818 C806 0.956 . S
H819 C806 0.961 . S
H820 C806 0.961 . S
H821 C807 0.958 . S
H822 C807 0.961 . S
H823 C807 0.960 . S
C824 C825 1.391 . S
C824 C826 1.394 . S
C824 H840 0.931 . S
C825 C824 1.391 . S
C825 C829 1.376 . S
C826 C824 1.394 . S
C826 C827 1.369 . S
C826 C830 1.531 . S
C827 C826 1.369 . S
C827 C828 1.410 . S
C827 C835 1.503 . S
C828 C827 1.410 . S
C828 C829 1.392 . S
C828 C831 1.511 . S
C829 C825 1.376 . S
C829 C828 1.392 . S
C829 H841 0.929 . S
C830 C826 1.531 . S
C830 H842 0.960 . S
C830 H843 0.962 . S
C830 H844 0.960 . S
C831 C828 1.511 . S
C831 H845 0.961 1_556 S
C831 H846 0.961 . S
C831 H847 0.961 . S
C832 C833 1.370 . S
C832 C834 1.363 . S
C832 H848 0.931 . S
C833 C832 1.370 . S
C833 C837 1.408 . S
C834 C832 1.363 . S
C834 C835 1.370 . S
C834 C838 1.524 . S
C835 C827 1.503 . S
C835 C834 1.370 . S
C835 C836 1.403 . S
C836 C835 1.403 . S
C836 C837 1.404 . S
C836 C839 1.539 . S
C837 C833 1.408 . S
C837 C836 1.404 . S
C837 H849 0.930 . S
C838 C834 1.524 . S
C838 H850 0.956 . S
C838 H851 0.961 1_556 S
C838 H852 0.961 1_556 S
C839 C836 1.539 . S
C839 H853 0.958 . S
C839 H854 0.961 . S
C839 H855 0.960 . S
H840 C824 0.931 . S
H841 C829 0.929 . S
H842 C830 0.960 . S
H843 C830 0.962 . S
H844 C830 0.960 . S
H845 C831 0.961 1_554 S
H846 C831 0.961 . S
H847 C831 0.961 . S
H848 C832 0.931 . S
H849 C837 0.930 . S
H850 C838 0.956 . S
H851 C838 0.961 1_554 S
H852 C838 0.961 1_554 S
H853 C839 0.958 . S
H854 C839 0.961 . S
H855 C839 0.960 . S
C856 C857 1.391 . S
C856 C858 1.394 . S
C856 H872 0.931 . S
C857 C856 1.391 . S
C857 C861 1.376 . S
C858 C856 1.394 . S
C858 C859 1.369 . S
C858 C862 1.531 . S
C859 C858 1.369 . S
C859 C860 1.410 . S
C859 C867 1.503 . S
C860 C859 1.410 . S
C860 C861 1.392 . S
C860 C863 1.511 . S
C861 C857 1.376 . S
C861 C860 1.392 . S
C861 H873 0.929 . S
C862 C858 1.531 . S
C862 H874 0.960 . S
C862 H875 0.962 . S
C862 H876 0.960 . S
C863 C860 1.511 . S
C863 H877 0.961 1_556 S
C863 H878 0.961 . S
C863 H879 0.961 . S
C864 C865 1.370 . S
C864 C866 1.363 . S
C864 H880 0.931 . S
C865 C864 1.370 . S
C865 C869 1.408 . S
C866 C864 1.363 . S
C866 C867 1.370 . S
C866 C870 1.524 . S
C867 C859 1.503 . S
C867 C866 1.370 . S
C867 C868 1.403 . S
C868 C867 1.403 . S
C868 C869 1.404 . S
C868 C871 1.539 . S
C869 C865 1.408 . S
C869 C868 1.404 . S
C869 H881 0.930 . S
C870 C866 1.524 . S
C870 H882 0.956 . S
C870 H883 0.961 . S
C870 H884 0.961 . S
C871 C868 1.539 . S
C871 H885 0.958 . S
C871 H886 0.961 . S
C871 H887 0.960 . S
H872 C856 0.931 . S
H873 C861 0.929 . S
H874 C862 0.960 . S
H875 C862 0.962 . S
H876 C862 0.960 . S
H877 C863 0.961 1_554 S
H878 C863 0.961 . S
H879 C863 0.961 . S
H880 C864 0.931 . S
H881 C869 0.930 . S
H882 C870 0.956 . S
H883 C870 0.961 . S
H884 C870 0.961 . S
H885 C871 0.958 . S
H886 C871 0.961 . S
H887 C871 0.960 . S
C888 C889 1.391 . S
C888 C890 1.394 . S
C888 H904 0.931 . S
C889 C888 1.391 . S
C889 C893 1.376 1_655 S
C890 C888 1.394 . S
C890 C891 1.369 . S
C890 C894 1.531 . S
C891 C890 1.369 . S
C891 C892 1.410 1_655 S
C891 C899 1.503 . S
C892 C891 1.410 1_455 S
C892 C893 1.392 . S
C892 C895 1.511 . S
C893 C889 1.376 1_455 S
C893 C892 1.392 . S
C893 H905 0.929 . S
C894 C890 1.531 . S
C894 H906 0.960 . S
C894 H907 0.962 . S
C894 H908 0.960 . S
C895 C892 1.511 . S
C895 H909 0.961 . S
C895 H910 0.961 . S
C895 H911 0.961 . S
C896 C897 1.370 . S
C896 C898 1.363 . S
C896 H912 0.931 . S
C897 C896 1.370 . S
C897 C901 1.408 . S
C898 C896 1.363 . S
C898 C899 1.370 . S
C898 C902 1.524 . S
C899 C891 1.503 . S
C899 C898 1.370 . S
C899 C900 1.403 . S
C900 C899 1.403 . S
C900 C901 1.404 . S
C900 C903 1.539 1_655 S
C901 C897 1.408 . S
C901 C900 1.404 . S
C901 H913 0.930 . S
C902 C898 1.524 . S
C902 H914 0.956 . S
C902 H915 0.960 1_655 S
C902 H916 0.961 . S
C903 C900 1.539 1_455 S
C903 H917 0.958 1_455 S
C903 H918 0.961 . S
C903 H919 0.960 . S
H904 C888 0.931 . S
H905 C893 0.929 . S
H906 C894 0.960 . S
H907 C894 0.962 . S
H908 C894 0.960 . S
H909 C895 0.961 . S
H910 C895 0.961 . S
H911 C895 0.961 . S
H912 C896 0.931 . S
H913 C901 0.930 . S
H914 C902 0.956 . S
H915 C902 0.960 1_455 S
H916 C902 0.961 . S
H917 C903 0.958 1_655 S
H918 C903 0.961 . S
H919 C903 0.960 . S
C920 C921 1.423 . S
C920 C922 1.394 . S
C920 H936 0.931 . S
C921 C920 1.423 . S
C921 C925 1.345 1_565 S
C922 C920 1.394 . S
C922 C923 1.369 . S
C922 C926 1.531 . S
C923 C922 1.369 . S
C923 C924 1.410 1_565 S
C923 C931 1.503 . S
C924 C923 1.410 1_545 S
C924 C925 1.392 . S
C924 C927 1.511 . S
C925 C921 1.345 1_545 S
C925 C924 1.392 . S
C925 H937 0.929 . S
C926 C922 1.531 . S
C926 H938 0.960 . S
C926 H939 0.962 . S
C926 H940 0.960 . S
C927 C924 1.511 . S
C927 H941 0.961 . S
C927 H942 0.961 . S
C927 H943 0.961 . S
C928 C929 1.370 . S
C928 C930 1.363 . S
C928 H944 0.931 . S
C929 C928 1.370 . S
C929 C933 1.408 1_565 S
C930 C928 1.363 . S
C930 C931 1.370 . S
C930 C934 1.524 . S
C931 C923 1.503 . S
C931 C930 1.370 . S
C931 C932 1.403 1_565 S
C932 C931 1.403 1_545 S
C932 C933 1.404 . S
C932 C935 1.539 . S
C933 C929 1.408 1_545 S
C933 C932 1.404 . S
C933 H945 0.930 . S
C934 C930 1.524 . S
C934 H946 0.956 . S
C934 H947 0.961 . S
C934 H948 0.961 . S
C935 C932 1.539 . S
C935 H949 0.958 . S
C935 H950 0.961 . S
C935 H951 0.960 . S
H936 C920 0.931 . S
H937 C925 0.929 . S
H938 C926 0.960 . S
H939 C926 0.962 . S
H940 C926 0.960 . S
H941 C927 0.961 . S
H942 C927 0.961 . S
H943 C927 0.961 . S
H944 C928 0.931 . S
H945 C933 0.930 . S
H946 C934 0.956 . S
H947 C934 0.961 . S
H948 C934 0.961 . S
H949 C935 0.958 . S
H950 C935 0.961 . S
H951 C935 0.960 . S
C952 C953 1.391 . S
C952 C954 1.394 . S
C952 H968 0.931 . S
C953 C952 1.391 . S
C953 C957 1.376 . S
C954 C952 1.394 . S
C954 C955 1.369 . S
C954 C958 1.531 . S
C955 C954 1.369 . S
C955 C956 1.410 . S
C955 C963 1.503 . S
C956 C955 1.410 . S
C956 C957 1.392 . S
C956 C959 1.511 . S
C957 C953 1.376 . S
C957 C956 1.392 . S
C957 H969 0.929 . S
C958 C954 1.531 . S
C958 H970 0.960 . S
C958 H971 0.962 . S
C958 H972 0.960 . S
C959 C956 1.511 . S
C959 H973 0.961 . S
C959 H974 0.961 . S
C959 H975 0.961 . S
C960 C961 1.370 . S
C960 C962 1.363 . S
C960 H976 0.931 . S
C961 C960 1.370 . S
C961 C965 1.408 . S
C962 C960 1.363 . S
C962 C963 1.370 . S
C962 C966 1.524 . S
C963 C955 1.503 . S
C963 C962 1.370 . S
C963 C964 1.403 . S
C964 C963 1.403 . S
C964 C965 1.404 . S
C964 C967 1.539 . S
C965 C961 1.408 . S
C965 C964 1.404 . S
C965 H977 0.930 . S
C966 C962 1.524 . S
C966 H978 0.956 . S
C966 H979 0.961 . S
C966 H980 0.961 . S
C967 C964 1.539 . S
C967 H981 0.958 . S
C967 H982 0.961 . S
C967 H983 0.960 . S
H968 C952 0.931 . S
H969 C957 0.929 . S
H970 C958 0.960 . S
H971 C958 0.962 . S
H972 C958 0.960 . S
H973 C959 0.961 . S
H974 C959 0.961 . S
H975 C959 0.961 . S
H976 C960 0.931 . S
H977 C965 0.930 . S
H978 C966 0.956 . S
H979 C966 0.961 . S
H980 C966 0.961 . S
H981 C967 0.958 . S
H982 C967 0.961 . S
H983 C967 0.960 . S
C984 C985 1.391 . S
C984 C986 1.394 . S
C984 H1000 0.931 . S
C985 C984 1.391 . S
C985 C989 1.376 . S
C986 C984 1.394 . S
C986 C987 1.369 . S
C986 C990 1.531 . S
C987 C986 1.369 . S
C987 C988 1.410 . S
C987 C995 1.503 . S
C988 C987 1.410 . S
C988 C989 1.392 . S
C988 C991 1.511 . S
C989 C985 1.376 . S
C989 C988 1.392 . S
C989 H1001 0.929 . S
C990 C986 1.531 . S
C990 H1002 0.960 . S
C990 H1003 0.962 . S
C990 H1004 0.960 . S
C991 C988 1.511 . S
C991 H1005 0.961 . S
C991 H1006 0.961 . S
C991 H1007 0.961 . S
C992 C993 1.370 . S
C992 C994 1.363 . S
C992 H1008 0.931 . S
C993 C992 1.370 . S
C993 C997 1.408 . S
C994 C992 1.363 . S
C994 C995 1.370 . S
C994 C998 1.524 . S
C995 C987 1.503 . S
C995 C994 1.370 . S
C995 C996 1.403 . S
C996 C995 1.403 . S
C996 C997 1.404 . S
C996 C999 1.539 . S
C997 C993 1.408 . S
C997 C996 1.404 . S
C997 H1009 0.930 . S
C998 C994 1.524 . S
C998 H1010 0.956 . S
C998 H1011 0.961 . S
C998 H1012 0.961 . S
C999 C996 1.539 . S
C999 H1013 0.958 . S
C999 H1014 0.961 . S
C999 H1015 0.960 . S
H1000 C984 0.931 . S
H1001 C989 0.929 . S
H1002 C990 0.960 . S
H1003 C990 0.962 . S
H1004 C990 0.960 . S
H1005 C991 0.961 . S
H1006 C991 0.961 . S
H1007 C991 0.961 . S
H1008 C992 0.931 . S
H1009 C997 0.930 . S
H1010 C998 0.956 . S
H1011 C998 0.961 . S
H1012 C998 0.961 . S
H1013 C999 0.958 . S
H1014 C999 0.961 . S
H1015 C999 0.960 . S
C249 C76 1.807 . S
C257 C97 1.952 1_545 S
C289 C137 1.973 . S
C281 C87 1.851 . S
C321 C177 1.970 . S
C313 C54 1.806 . S
C353 C217 1.964 1_455 S
C345 C65 1.861 . S
C385 C106 1.957 1_565 S
C377 C32 1.802 1_545 S
C409 C43 1.796 . S
C417 C146 1.969 . S
C441 C10 1.813 . S
C449 C186 1.974 . S
C473 C21 1.864 1_455 S
C481 C226 1.967 1_655 S
C513 C103 0.509 . S
C505 C60 0.585 . S
C545 C143 0.492 . S
C537 C71 0.607 . S
C577 C183 0.486 . S
C569 C82 0.597 . S
C601 C49 0.444 . S
C609 C223 0.529 . S
C633 C16 0.433 1_655 S
C641 C94 0.516 . S
C673 C134 0.530 . S
C665 C27 0.527 . S
C705 C174 0.479 . S
C697 C38 0.608 . S
C729 C5 0.442 . S
C737 C214 0.540 . S
C761 C59 2.003 . S
C769 C107 2.272 . S
C793 C70 2.013 . S
C801 C147 2.265 . S
C833 C187 2.255 . S
C825 C81 2.038 . S
C865 C227 2.276 . S
C857 C48 2.043 . S
C889 C15 2.080 1_655 S
C897 C98 2.284 . S
C929 C138 2.255 . S
C921 C26 2.056 1_565 S
C961 C178 2.253 . S
C953 C37 1.987 . S
C985 C4 2.066 . S
C993 C218 2.270 . S
