# Generated by pormake.
# Topology dag, (6,3)-cn, num edge types: 1
# Building blocks:
#     Node 0, Type 0, BuildingBlock: OJICUG_clean_sbu_0, # of connection points: 6
#     Node 1, Type 0, BuildingBlock: OJICUG_clean_sbu_0, # of connection points: 6
#     Node 2, Type 0, BuildingBlock: OJICUG_clean_sbu_0, # of connection points: 6
#     Node 3, Type 0, BuildingBlock: OJICUG_clean_sbu_0, # of connection points: 6
#     Node 4, Type 1, BuildingBlock: KAKCAD_clean_linker_0, # of connection points: 3
#     Node 5, Type 1, BuildingBlock: KAKCAD_clean_linker_0, # of connection points: 3
#     Node 6, Type 1, BuildingBlock: KAKCAD_clean_linker_0, # of connection points: 3
#     Node 7, Type 1, BuildingBlock: KAKCAD_clean_linker_0, # of connection points: 3
#     Node 8, Type 1, BuildingBlock: KAKCAD_clean_linker_0, # of connection points: 3
#     Node 9, Type 1, BuildingBlock: KAKCAD_clean_linker_0, # of connection points: 3
#     Node 10, Type 1, BuildingBlock: KAKCAD_clean_linker_0, # of connection points: 3
#     Node 11, Type 1, BuildingBlock: KAKCAD_clean_linker_0, # of connection points: 3
#     Edge 12, Type (0, 1), BuildingBlock: UVAHIK_clean_linker_0, # of connection points: 2
#     Edge 13, Type (0, 1), BuildingBlock: UVAHIK_clean_linker_0, # of connection points: 2
#     Edge 14, Type (0, 1), BuildingBlock: UVAHIK_clean_linker_0, # of connection points: 2
#     Edge 15, Type (0, 1), BuildingBlock: UVAHIK_clean_linker_0, # of connection points: 2
#     Edge 16, Type (0, 1), BuildingBlock: UVAHIK_clean_linker_0, # of connection points: 2
#     Edge 17, Type (0, 1), BuildingBlock: UVAHIK_clean_linker_0, # of connection points: 2
#     Edge 18, Type (0, 1), BuildingBlock: UVAHIK_clean_linker_0, # of connection points: 2
#     Edge 19, Type (0, 1), BuildingBlock: UVAHIK_clean_linker_0, # of connection points: 2
#     Edge 20, Type (0, 1), BuildingBlock: UVAHIK_clean_linker_0, # of connection points: 2
#     Edge 21, Type (0, 1), BuildingBlock: UVAHIK_clean_linker_0, # of connection points: 2
#     Edge 22, Type (0, 1), BuildingBlock: UVAHIK_clean_linker_0, # of connection points: 2
#     Edge 23, Type (0, 1), BuildingBlock: UVAHIK_clean_linker_0, # of connection points: 2
#     Edge 24, Type (0, 1), BuildingBlock: UVAHIK_clean_linker_0, # of connection points: 2
#     Edge 25, Type (0, 1), BuildingBlock: UVAHIK_clean_linker_0, # of connection points: 2
#     Edge 26, Type (0, 1), BuildingBlock: UVAHIK_clean_linker_0, # of connection points: 2
#     Edge 27, Type (0, 1), BuildingBlock: UVAHIK_clean_linker_0, # of connection points: 2
#     Edge 28, Type (0, 1), BuildingBlock: UVAHIK_clean_linker_0, # of connection points: 2
#     Edge 29, Type (0, 1), BuildingBlock: UVAHIK_clean_linker_0, # of connection points: 2
#     Edge 30, Type (0, 1), BuildingBlock: UVAHIK_clean_linker_0, # of connection points: 2
#     Edge 31, Type (0, 1), BuildingBlock: UVAHIK_clean_linker_0, # of connection points: 2
#     Edge 32, Type (0, 1), BuildingBlock: UVAHIK_clean_linker_0, # of connection points: 2
#     Edge 33, Type (0, 1), BuildingBlock: UVAHIK_clean_linker_0, # of connection points: 2
#     Edge 34, Type (0, 1), BuildingBlock: UVAHIK_clean_linker_0, # of connection points: 2
#     Edge 35, Type (0, 1), BuildingBlock: UVAHIK_clean_linker_0, # of connection points: 2
# Relax obj value: 0.252
# Max RMSD: 0.198
# Mean RMSD: 0.164
data_MOF--net-dag--node1-OJICUG_clean_sbu_0--node2-KAKCAD_clean_linker_0--edge1-UVAHIK_clean_linker_0
_symmetry_space_group_name_H-M    P1
_symmetry_Int_Tables_number       1
_symmetry_cell_setting            triclinic
loop_
_symmetry_equiv_pos_as_xyz
'x, y, z'
_cell_length_a     54.23995
_cell_length_b     56.690135
_cell_length_c     55.689497
_cell_angle_alpha  95.15922
_cell_angle_beta   90.09408
_cell_angle_gamma 90.058731
loop_
_atom_site_label
_atom_site_type_symbol
_atom_site_fract_x
_atom_site_fract_y
_atom_site_fract_z
_atom_type_partial_charge
Sc0 Sc 0.1338 0.84914 0.04064 0.0
Sc1 Sc 0.14547 0.78847 0.04451 0.0
Sc2 Sc 0.18452 0.83202 0.07429 0.0
O3 O 0.15463 0.82317 0.05314 0.0
C4 C 0.18792 0.87058 0.03624 0.0
C5 C 0.13576 0.81128 0.99478 0.0
C6 C 0.20431 0.78767 0.04028 0.0
C7 C 0.0925 0.81185 0.05327 0.0
C8 C 0.14456 0.86996 0.09485 0.0
C9 C 0.16208 0.78828 0.09947 0.0
O10 O 0.16525 0.86902 0.03061 0.0
O11 O 0.1393 0.79352 0.00682 0.0
O12 O 0.20775 0.80666 0.05389 0.0
O13 O 0.09975 0.83231 0.04879 0.0
O14 O 0.16426 0.85813 0.09686 0.0
O15 O 0.15061 0.77926 0.08095 0.0
O16 O 0.13167 0.86855 0.07567 0.0
O17 O 0.1069 0.79414 0.05299 0.0
O18 O 0.1749 0.80705 0.09957 0.0
O19 O 0.13383 0.83231 0.00459 0.0
O20 O 0.19771 0.85845 0.05182 0.0
O21 O 0.183 0.77907 0.03543 0.0
Sc22 Sc 0.68512 0.66815 0.47701 0.0
Sc23 Sc 0.64626 0.7122 0.50567 0.0
Sc24 Sc 0.63537 0.65197 0.51213 0.0
O25 O 0.65563 0.67749 0.49826 0.0
C26 C 0.64464 0.62938 0.45864 0.0
C27 C 0.66245 0.71051 0.45032 0.0
C28 C 0.59358 0.68867 0.49869 0.0
C29 C 0.70485 0.71376 0.50971 0.0
C30 C 0.68981 0.63076 0.5158 0.0
C31 C 0.63759 0.69088 0.55642 0.0
O32 O 0.66505 0.64011 0.45643 0.0
O33 O 0.65245 0.7207 0.46911 0.0
O34 O 0.60091 0.66911 0.50566 0.0
O35 O 0.70809 0.6952 0.4954 0.0
O36 O 0.6669 0.63127 0.52049 0.0
O37 O 0.63863 0.70816 0.54334 0.0
O38 O 0.69963 0.64396 0.50123 0.0
O39 O 0.68359 0.72174 0.51569 0.0
O40 O 0.63796 0.66934 0.54788 0.0
O41 O 0.67409 0.69108 0.45029 0.0
O42 O 0.63132 0.6325 0.47743 0.0
O43 O 0.60809 0.70588 0.4961 0.0
Sc44 Sc 0.85594 0.21453 0.00755 0.0
Sc45 Sc 0.81521 0.17319 0.97714 0.0
Sc46 Sc 0.86716 0.15314 0.00691 0.0
O47 O 0.84612 0.18032 0.99722 0.0
C48 C 0.9083 0.19071 0.9952 0.0
C49 C 0.83703 0.21856 0.95399 0.0
C50 C 0.85323 0.1358 0.95232 0.0
C51 C 0.79718 0.2157 0.0141 0.0
C52 C 0.86739 0.18869 0.05494 0.0
C53 C 0.81324 0.13184 0.01241 0.0
O54 O 0.89445 0.20873 0.99908 0.0
O55 O 0.82299 0.20064 0.95422 0.0
O56 O 0.86639 0.13518 0.97117 0.0
O57 O 0.81864 0.22451 0.01748 0.0
O58 O 0.8702 0.1684 0.04355 0.0
O59 O 0.80345 0.1448 0.99758 0.0
O60 O 0.86194 0.20709 0.04452 0.0
O61 O 0.79315 0.19675 0.00066 0.0
O62 O 0.83594 0.13322 0.01806 0.0
O63 O 0.85099 0.22556 0.97161 0.0
O64 O 0.90082 0.16968 0.99683 0.0
O65 O 0.83426 0.14888 0.95152 0.0
Sc66 Sc 0.36871 0.34334 0.53774 0.0
Sc67 Sc 0.31828 0.32445 0.57051 0.0
Sc68 Sc 0.35941 0.28235 0.54215 0.0
O69 O 0.3488 0.31667 0.55015 0.0
C70 C 0.36752 0.30541 0.49215 0.0
C71 C 0.31362 0.363 0.53297 0.0
C72 C 0.30083 0.27884 0.53692 0.0
C73 C 0.35687 0.36398 0.59135 0.0
C74 C 0.41153 0.30735 0.5502 0.0
C75 C 0.34213 0.28233 0.59704 0.0
O76 O 0.36796 0.32667 0.50165 0.0
O77 O 0.30403 0.34919 0.54704 0.0
O78 O 0.32252 0.27145 0.53197 0.0
O79 O 0.37102 0.36198 0.57309 0.0
O80 O 0.39752 0.28949 0.55121 0.0
O81 O 0.32891 0.30072 0.59635 0.0
O82 O 0.40365 0.3273 0.54478 0.0
O83 O 0.33682 0.35244 0.5925 0.0
O84 O 0.35414 0.27323 0.57887 0.0
O85 O 0.33661 0.36326 0.52863 0.0
O86 O 0.36577 0.2876 0.5045 0.0
O87 O 0.29644 0.29739 0.55083 0.0
C88 C 0.98154 0.1789 0.29661 0.0
C89 C 0.96004 0.1676 0.2873 0.0
C90 C 0.9973 0.16748 0.31169 0.0
C91 C 0.99188 0.14451 0.31781 0.0
C92 C 0.96963 0.13382 0.30969 0.0
C93 C 0.95387 0.14524 0.2946 0.0
C94 C 0.01048 0.13092 0.33049 0.0
C95 C 0.02474 0.14198 0.34935 0.0
C96 C 0.04422 0.12987 0.35941 0.0
C97 C 0.04921 0.10634 0.35073 0.0
C98 C 0.03542 0.0951 0.33161 0.0
C99 C 0.01587 0.10743 0.32188 0.0
C100 C 0.04323 0.07181 0.31965 0.0
C101 C 0.06829 0.06735 0.31469 0.0
C102 C 0.02565 0.05485 0.31103 0.0
C103 C 0.03287 0.03446 0.29682 0.0
C104 C 0.05783 0.03057 0.29093 0.0
C105 C 0.06129 0.14261 0.37682 0.0
C106 C 0.07203 0.16399 0.37124 0.0
C107 C 0.06838 0.13277 0.39805 0.0
C108 C 0.08625 0.14397 0.41325 0.0
C109 C 0.09763 0.16487 0.40712 0.0
C110 C 0.09016 0.17492 0.38616 0.0
C111 C 0.0755 0.04696 0.30052 0.0
H112 H 0.98664 0.19625 0.29156 0.0
H113 H 0.01437 0.17616 0.31748 0.0
H114 H 0.96482 0.11624 0.31433 0.0
H115 H 0.93755 0.13596 0.28763 0.0
H116 H 0.02104 0.16022 0.35589 0.0
H117 H 0.00595 0.09931 0.30636 0.0
H118 H 0.06466 0.0972 0.35806 0.0
H119 H 0.08228 0.08021 0.32069 0.0
H120 H 0.00624 0.05764 0.31481 0.0
H121 H 0.01886 0.02196 0.29001 0.0
H122 H 0.06708 0.17179 0.35484 0.0
H123 H 0.06034 0.11628 0.40269 0.0
H124 H 0.09484 0.04468 0.29608 0.0
H125 H 0.09864 0.19109 0.38116 0.0
H126 H 0.09183 0.13588 0.42929 0.0
C127 C 0.41527 0.55306 0.79471 0.0
C128 C 0.43197 0.53868 0.78074 0.0
C129 C 0.42336 0.5733 0.80865 0.0
C130 C 0.44852 0.57944 0.80962 0.0
C131 C 0.4654 0.56426 0.79681 0.0
C132 C 0.45723 0.54435 0.78234 0.0
C133 C 0.4568 0.60231 0.82256 0.0
C134 C 0.44415 0.61229 0.84298 0.0
C135 C 0.44968 0.63525 0.85328 0.0
C136 C 0.4694 0.64773 0.84402 0.0
C137 C 0.4829 0.63772 0.82412 0.0
C138 C 0.47618 0.61525 0.81335 0.0
C139 C 0.50289 0.65109 0.81311 0.0
C140 C 0.49986 0.67504 0.80908 0.0
C141 C 0.52426 0.63923 0.80446 0.0
C142 C 0.54135 0.65047 0.79068 0.0
C143 C 0.53768 0.67401 0.78536 0.0
C144 C 0.43333 0.64671 0.87227 0.0
C145 C 0.40764 0.64414 0.86991 0.0
C146 C 0.44288 0.66052 0.8924 0.0
C147 C 0.42699 0.67127 0.90995 0.0
C148 C 0.4013 0.66838 0.90763 0.0
C149 C 0.39187 0.6548 0.88734 0.0
C150 C 0.51711 0.6864 0.79538 0.0
H151 H 0.39576 0.54903 0.79459 0.0
H152 H 0.40962 0.58452 0.81794 0.0
H153 H 0.48499 0.56798 0.79749 0.0
H154 H 0.47076 0.53395 0.7718 0.0
H155 H 0.42953 0.60239 0.85071 0.0
H156 H 0.48538 0.60837 0.79695 0.0
H157 H 0.47379 0.66543 0.85183 0.0
H158 H 0.48356 0.68468 0.81544 0.0
H159 H 0.52732 0.62087 0.80758 0.0
H160 H 0.55675 0.64019 0.78313 0.0
H161 H 0.39964 0.63416 0.8543 0.0
H162 H 0.46259 0.66277 0.89473 0.0
H163 H 0.51388 0.70466 0.79199 0.0
H164 H 0.37218 0.65273 0.88465 0.0
H165 H 0.4348 0.68158 0.92543 0.0
C166 C 0.81913 0.79925 0.11833 0.0
C167 C 0.8362 0.81753 0.11558 0.0
C168 C 0.7946 0.80459 0.12458 0.0
C169 C 0.78676 0.82828 0.12803 0.0
C170 C 0.80399 0.84645 0.12594 0.0
C171 C 0.82838 0.84117 0.11988 0.0
C172 C 0.76074 0.83445 0.1337 0.0
C173 C 0.74839 0.82471 0.1526 0.0
C174 C 0.72475 0.83285 0.15992 0.0
C175 C 0.71363 0.8509 0.14784 0.0
C176 C 0.7258 0.86057 0.12882 0.0
C177 C 0.74907 0.85199 0.1216 0.0
C178 C 0.71626 0.88181 0.11841 0.0
C179 C 0.71396 0.88207 0.09336 0.0
C180 C 0.71367 0.90302 0.13318 0.0
C181 C 0.711 0.92449 0.12295 0.0
C182 C 0.71055 0.92509 0.09772 0.0
C183 C 0.71269 0.82373 0.18128 0.0
C184 C 0.71565 0.79999 0.18615 0.0
C185 C 0.69909 0.83897 0.19762 0.0
C186 C 0.68922 0.83081 0.2185 0.0
C187 C 0.69305 0.80731 0.22387 0.0
C188 C 0.70616 0.79194 0.20724 0.0
C189 C 0.71079 0.90347 0.08312 0.0
H190 H 0.82458 0.78087 0.11512 0.0
H191 H 0.78165 0.79026 0.12616 0.0
H192 H 0.79863 0.86487 0.12912 0.0
H193 H 0.84117 0.85569 0.11865 0.0
H194 H 0.75787 0.81183 0.16249 0.0
H195 H 0.75869 0.85989 0.10726 0.0
H196 H 0.69564 0.85771 0.15329 0.0
H197 H 0.71584 0.86584 0.08166 0.0
H198 H 0.71568 0.90323 0.15257 0.0
H199 H 0.71111 0.94068 0.13485 0.0
H200 H 0.72563 0.7876 0.17382 0.0
H201 H 0.69663 0.85745 0.19475 0.0
H202 H 0.70978 0.90314 0.06367 0.0
H203 H 0.70979 0.7738 0.21078 0.0
H204 H 0.67883 0.84309 0.23058 0.0
C205 C 0.67652 0.30973 0.62865 0.0
C206 C 0.6703 0.30992 0.60417 0.0
C207 C 0.70024 0.316 0.63673 0.0
C208 C 0.71835 0.32247 0.62048 0.0
C209 C 0.71236 0.32179 0.59584 0.0
C210 C 0.68858 0.31566 0.5878 0.0
C211 C 0.74282 0.33136 0.62946 0.0
C212 C 0.75455 0.32134 0.64856 0.0
C213 C 0.77617 0.3314 0.659 0.0
C214 C 0.7869 0.35097 0.64921 0.0
C215 C 0.77549 0.3613 0.63 0.0
C216 C 0.75341 0.35132 0.62036 0.0
C217 C 0.78481 0.38391 0.62156 0.0
C218 C 0.79475 0.40178 0.63795 0.0
C219 C 0.78157 0.38876 0.59744 0.0
C220 C 0.78581 0.41143 0.59043 0.0
C221 C 0.7941 0.42982 0.6072 0.0
C222 C 0.78582 0.32301 0.6817 0.0
C223 C 0.76927 0.31833 0.70005 0.0
C224 C 0.81126 0.32045 0.6857 0.0
C225 C 0.81987 0.31305 0.70756 0.0
C226 C 0.80317 0.30811 0.72574 0.0
C227 C 0.77782 0.311 0.72175 0.0
C228 C 0.79962 0.42433 0.63078 0.0
H229 H 0.66276 0.3057 0.64176 0.0
H230 H 0.70404 0.31671 0.65587 0.0
H231 H 0.72597 0.32632 0.5828 0.0
H232 H 0.68441 0.31565 0.56877 0.0
H233 H 0.74652 0.30594 0.65574 0.0
H234 H 0.74356 0.35995 0.60667 0.0
H235 H 0.80354 0.35874 0.65727 0.0
H236 H 0.79753 0.39889 0.65671 0.0
H237 H 0.77465 0.37529 0.58409 0.0
H238 H 0.78115 0.41471 0.57213 0.0
H239 H 0.74962 0.3208 0.69786 0.0
H240 H 0.82445 0.32393 0.67187 0.0
H241 H 0.80676 0.4377 0.64409 0.0
H242 H 0.76449 0.30796 0.73561 0.0
H243 H 0.83951 0.31091 0.7101 0.0
C244 C 0.55987 0.45405 0.24969 0.0
C245 C 0.5562 0.45521 0.27476 0.0
C246 C 0.55232 0.43407 0.23485 0.0
C247 C 0.54102 0.41486 0.24484 0.0
C248 C 0.53754 0.41606 0.26993 0.0
C249 C 0.54496 0.43597 0.28466 0.0
C250 C 0.53356 0.39317 0.22954 0.0
C251 C 0.54924 0.38308 0.21136 0.0
C252 C 0.54369 0.36098 0.19892 0.0
C253 C 0.52214 0.34897 0.20493 0.0
C254 C 0.5062 0.35901 0.22279 0.0
C255 C 0.51175 0.38125 0.23462 0.0
C256 C 0.48539 0.34534 0.23159 0.0
C257 C 0.46179 0.35538 0.23374 0.0
C258 C 0.48994 0.32378 0.24131 0.0
C259 C 0.4718 0.31346 0.25479 0.0
C260 C 0.44864 0.32438 0.25852 0.0
C261 C 0.56129 0.34981 0.18088 0.0
C262 C 0.5736 0.36354 0.16481 0.0
C263 C 0.5666 0.32549 0.18021 0.0
C264 C 0.58405 0.31521 0.1641 0.0
C265 C 0.5967 0.32903 0.1484 0.0
C266 C 0.59117 0.35327 0.14879 0.0
C267 C 0.44348 0.34483 0.24681 0.0
H268 H 0.56837 0.46867 0.24153 0.0
H269 H 0.55516 0.43372 0.21558 0.0
H270 H 0.52954 0.40135 0.27834 0.0
H271 H 0.54239 0.43605 0.30396 0.0
H272 H 0.56649 0.39179 0.20787 0.0
H273 H 0.49956 0.38876 0.24871 0.0
H274 H 0.51778 0.33173 0.19589 0.0
H275 H 0.45786 0.37195 0.22622 0.0
H276 H 0.50811 0.31585 0.24006 0.0
H277 H 0.47665 0.29788 0.26365 0.0
H278 H 0.56968 0.38225 0.16463 0.0
H279 H 0.55782 0.31447 0.19262 0.0
H280 H 0.42567 0.35339 0.24869 0.0
H281 H 0.6004 0.3643 0.13668 0.0
H282 H 0.58818 0.29655 0.16446 0.0
C283 C 0.17428 0.19242 0.9156 0.0
C284 C 0.16639 0.19455 0.93969 0.0
C285 C 0.19893 0.18766 0.90995 0.0
C286 C 0.21623 0.18475 0.92827 0.0
C287 C 0.20851 0.18763 0.95245 0.0
C288 C 0.18382 0.19268 0.95813 0.0
C289 C 0.24158 0.17668 0.92177 0.0
C290 C 0.25424 0.18636 0.90305 0.0
C291 C 0.27609 0.17597 0.89356 0.0
C292 C 0.28592 0.15632 0.90394 0.0
C293 C 0.27365 0.14656 0.92298 0.0
C294 C 0.25163 0.15706 0.93192 0.0
C295 C 0.28151 0.1235 0.93125 0.0
C296 C 0.28826 0.1047 0.91435 0.0
C297 C 0.27932 0.1192 0.95562 0.0
C298 C 0.28182 0.09626 0.96262 0.0
C299 C 0.28664 0.07715 0.94539 0.0
C300 C 0.28681 0.18398 0.87112 0.0
C301 C 0.27107 0.18963 0.85241 0.0
C302 C 0.31248 0.18527 0.86771 0.0
C303 C 0.32209 0.19238 0.84613 0.0
C304 C 0.30618 0.19844 0.82772 0.0
C305 C 0.28061 0.19683 0.83107 0.0
C306 C 0.29086 0.08179 0.92136 0.0
H307 H 0.16125 0.19395 0.90106 0.0
H308 H 0.20421 0.18524 0.89114 0.0
H309 H 0.22148 0.18553 0.96692 0.0
H310 H 0.17816 0.19415 0.97684 0.0
H311 H 0.24651 0.20155 0.89524 0.0
H312 H 0.2412 0.14881 0.9455 0.0
H313 H 0.30242 0.14785 0.89639 0.0
H314 H 0.28995 0.1073 0.8954 0.0
H315 H 0.27448 0.13338 0.96912 0.0
H316 H 0.27836 0.09332 0.98127 0.0
H317 H 0.25124 0.18809 0.85403 0.0
H318 H 0.32509 0.18103 0.88178 0.0
H319 H 0.29499 0.0675 0.90773 0.0
H320 H 0.26789 0.20081 0.81697 0.0
H321 H 0.34189 0.19349 0.84399 0.0
C322 C 0.3204 0.69564 0.43038 0.0
C323 C 0.33732 0.67758 0.43431 0.0
C324 C 0.29603 0.69003 0.42361 0.0
C325 C 0.28821 0.66629 0.42074 0.0
C326 C 0.30534 0.64831 0.42405 0.0
C327 C 0.32956 0.65387 0.4307 0.0
C328 C 0.26234 0.65989 0.41435 0.0
C329 C 0.25037 0.66963 0.39519 0.0
C330 C 0.22685 0.6615 0.38737 0.0
C331 C 0.21547 0.64339 0.39915 0.0
C332 C 0.22726 0.63366 0.41836 0.0
C333 C 0.25039 0.64229 0.42614 0.0
C334 C 0.21746 0.61233 0.42842 0.0
C335 C 0.2148 0.61181 0.4534 0.0
C336 C 0.21478 0.59128 0.41338 0.0
C337 C 0.21162 0.56971 0.4233 0.0
C338 C 0.21075 0.56883 0.44849 0.0
C339 C 0.21509 0.67077 0.36591 0.0
C340 C 0.21817 0.69458 0.36127 0.0
C341 C 0.20152 0.65568 0.34934 0.0
C342 C 0.19167 0.66405 0.32853 0.0
C343 C 0.19553 0.68763 0.32345 0.0
C344 C 0.20872 0.70284 0.34024 0.0
C345 C 0.21114 0.59031 0.46333 0.0
H346 H 0.32583 0.71408 0.43306 0.0
H347 H 0.28319 0.70424 0.42114 0.0
H348 H 0.30006 0.62983 0.42133 0.0
H349 H 0.34228 0.6395 0.43289 0.0
H350 H 0.26004 0.68257 0.38553 0.0
H351 H 0.25966 0.6344 0.44072 0.0
H352 H 0.19755 0.63659 0.39334 0.0
H353 H 0.21672 0.62791 0.46531 0.0
H354 H 0.21705 0.59126 0.39405 0.0
H355 H 0.21166 0.55365 0.41123 0.0
H356 H 0.22813 0.70686 0.37377 0.0
H357 H 0.19899 0.63715 0.35201 0.0
H358 H 0.20981 0.59045 0.48274 0.0
H359 H 0.21239 0.72103 0.33691 0.0
H360 H 0.18124 0.65189 0.31632 0.0
C361 C 0.04946 0.84997 0.75101 0.0
C362 C 0.0443 0.82987 0.76329 0.0
C363 C 0.03127 0.8599 0.73729 0.0
C364 C 0.00776 0.84962 0.73505 0.0
C365 C 0.00315 0.82847 0.74553 0.0
C366 C 0.02119 0.81874 0.75965 0.0
C367 C 0.98715 0.8627 0.72506 0.0
C368 C 0.97197 0.85202 0.70675 0.0
C369 C 0.95087 0.86381 0.69929 0.0
C370 C 0.9451 0.88638 0.71044 0.0
C371 C 0.95986 0.89699 0.72911 0.0
C372 C 0.98112 0.88522 0.73596 0.0
C373 C 0.95166 0.91907 0.74313 0.0
C374 C 0.94254 0.93831 0.73155 0.0
C375 C 0.95167 0.92042 0.76844 0.0
C376 C 0.94233 0.94034 0.7819 0.0
C377 C 0.93284 0.95942 0.77038 0.0
C378 C 0.93385 0.85203 0.68109 0.0
C379 C 0.94284 0.84021 0.65963 0.0
C380 C 0.9083 0.8526 0.6852 0.0
C381 C 0.89206 0.84185 0.66813 0.0
C382 C 0.90092 0.83032 0.64645 0.0
C383 C 0.92653 0.8295 0.64244 0.0
C384 C 0.93336 0.9584 0.74508 0.0
H385 H 0.06723 0.85866 0.75284 0.0
H386 H 0.03523 0.87618 0.72921 0.0
H387 H 0.98504 0.82037 0.74422 0.0
H388 H 0.01637 0.80341 0.76893 0.0
H389 H 0.97618 0.8343 0.69887 0.0
H390 H 0.99247 0.89316 0.75058 0.0
H391 H 0.92854 0.89531 0.7052 0.0
H392 H 0.94238 0.93775 0.71206 0.0
H393 H 0.95828 0.90576 0.77788 0.0
H394 H 0.94244 0.94076 0.80139 0.0
H395 H 0.96245 0.83961 0.65596 0.0
H396 H 0.90085 0.86113 0.7018 0.0
H397 H 0.92609 0.97286 0.73575 0.0
H398 H 0.93395 0.82092 0.62585 0.0
H399 H 0.87251 0.84232 0.6721 0.0
C400 C 0.14957 0.88784 0.13754 0.0
C401 C 0.13585 0.88553 0.11598 0.0
C402 C 0.14099 0.90199 0.15764 0.0
C403 C 0.08421 0.92887 0.18435 0.0
H404 H 0.12941 0.97093 0.22136 0.0
C405 C 0.05142 0.00515 0.25221 0.0
C406 C 0.0653 0.0106 0.27333 0.0
C407 C 0.0596 0.98801 0.23443 0.0
C408 C 0.11661 0.95901 0.21148 0.0
H409 H 0.10233 0.8965 0.09875 0.0
H410 H 0.08756 0.92129 0.13371 0.0
H411 H 0.14479 0.94505 0.18738 0.0
H412 H 0.09811 0.00155 0.29279 0.0
H413 H 0.11236 0.9715 0.26176 0.0
H414 H 0.05598 0.94297 0.20831 0.0
C415 C 0.10481 0.91191 0.13514 0.0
C416 C 0.12542 0.94421 0.19196 0.0
C417 C 0.1134 0.89782 0.11502 0.0
C418 C 0.08717 0.99798 0.27658 0.0
C419 C 0.09535 0.98081 0.25879 0.0
C420 C 0.0754 0.94364 0.20389 0.0
C421 C 0.11847 0.91411 0.15669 0.0
C422 C 0.10928 0.92915 0.17802 0.0
C423 C 0.08186 0.9759 0.23734 0.0
C424 C 0.09145 0.95906 0.21754 0.0
H425 H 0.16689 0.87859 0.139 0.0
H426 H 0.15183 0.90316 0.17406 0.0
H427 H 0.07138 0.91716 0.17422 0.0
H428 H 0.0347 0.0148 0.24894 0.0
H429 H 0.04893 0.98493 0.218 0.0
C430 C 0.61807 0.71319 0.59218 0.0
C431 C 0.63456 0.69574 0.58269 0.0
C432 C 0.61242 0.71527 0.61679 0.0
C433 C 0.61453 0.67876 0.66908 0.0
H434 H 0.58889 0.736 0.70351 0.0
C435 C 0.57898 0.67846 0.76565 0.0
C436 C 0.55381 0.68442 0.7674 0.0
C437 C 0.59292 0.68424 0.74593 0.0
C438 C 0.59621 0.71996 0.69412 0.0
H439 H 0.6596 0.66809 0.59147 0.0
H440 H 0.65114 0.67266 0.63453 0.0
H441 H 0.60698 0.73778 0.66351 0.0
H442 H 0.52421 0.70281 0.75053 0.0
H443 H 0.54883 0.71347 0.7166 0.0
H444 H 0.60388 0.66107 0.69977 0.0
C445 C 0.64146 0.68398 0.62303 0.0
C446 C 0.60639 0.72088 0.67112 0.0
C447 C 0.64655 0.68148 0.59837 0.0
C448 C 0.54355 0.69809 0.75 0.0
C449 C 0.55763 0.70417 0.73047 0.0
C450 C 0.60487 0.67799 0.69218 0.0
C451 C 0.6236 0.70027 0.6325 0.0
C452 C 0.61523 0.70016 0.65804 0.0
C453 C 0.58213 0.69648 0.72779 0.0
C454 C 0.59519 0.69844 0.70473 0.0
H455 H 0.60848 0.72431 0.58038 0.0
H456 H 0.59837 0.72784 0.62317 0.0
H457 H 0.62047 0.66227 0.65957 0.0
H458 H 0.58769 0.66847 0.77901 0.0
H459 H 0.61189 0.67835 0.74437 0.0
C460 C 0.77397 0.10854 0.01348 0.0
C461 C 0.79768 0.1138 0.0228 0.0
C462 C 0.75991 0.09045 0.0221 0.0
C463 C 0.75321 0.05327 0.07274 0.0
H464 H 0.72677 0.00653 0.02428 0.0
C465 C 0.72808 0.94948 0.06638 0.0
C466 C 0.71309 0.94805 0.08682 0.0
C467 C 0.73344 0.97132 0.0579 0.0
C468 C 0.73386 0.01955 0.038 0.0
H469 H 0.82474 0.10471 0.0492 0.0
H470 H 0.80011 0.07319 0.06426 0.0
H471 H 0.74619 0.04237 0.01186 0.0
H472 H 0.69087 0.96867 0.11346 0.0
H473 H 0.70094 0.00697 0.09896 0.0
H474 H 0.74158 0.03003 0.09882 0.0
C475 C 0.79244 0.08312 0.05028 0.0
C476 C 0.74484 0.04011 0.03093 0.0
C477 C 0.80662 0.10107 0.04152 0.0
C478 C 0.70282 0.96907 0.09795 0.0
C479 C 0.70849 0.99101 0.08963 0.0
C480 C 0.742 0.0328 0.07983 0.0
C481 C 0.76911 0.07739 0.0404 0.0
C482 C 0.75512 0.05692 0.04819 0.0
C483 C 0.72421 0.99234 0.06978 0.0
C484 C 0.73274 0.01549 0.06249 0.0
H485 H 0.76644 0.118 0.99909 0.0
H486 H 0.74189 0.08654 0.0143 0.0
H487 H 0.7608 0.06604 0.08642 0.0
H488 H 0.73683 0.93388 0.05757 0.0
H489 H 0.74589 0.97182 0.04276 0.0
C490 C 0.4549 0.32228 0.5486 0.0
C491 C 0.43825 0.30487 0.555 0.0
C492 C 0.48014 0.31995 0.55264 0.0
C493 C 0.52497 0.29274 0.59048 0.0
H494 H 0.57115 0.30633 0.54043 0.0
C495 C 0.63037 0.28741 0.60473 0.0
C496 C 0.64446 0.30567 0.59609 0.0
C497 C 0.60552 0.28455 0.59831 0.0
C498 C 0.55853 0.30267 0.55468 0.0
H499 H 0.43518 0.27143 0.57093 0.0
H500 H 0.47943 0.26758 0.57831 0.0
H501 H 0.527 0.3068 0.53227 0.0
H502 H 0.64355 0.33522 0.57396 0.0
H503 H 0.6003 0.3305 0.56305 0.0
H504 H 0.55638 0.2894 0.6132 0.0
C505 C 0.47279 0.28296 0.57005 0.0
C506 C 0.53325 0.30288 0.54997 0.0
C507 C 0.44749 0.28514 0.56574 0.0
C508 C 0.6333 0.32073 0.58059 0.0
C509 C 0.60847 0.31798 0.57431 0.0
C510 C 0.55029 0.29274 0.59529 0.0
C511 C 0.48936 0.30029 0.5634 0.0
C512 C 0.51619 0.29825 0.56791 0.0
C513 C 0.59418 0.29998 0.58324 0.0
C514 C 0.56738 0.29806 0.57755 0.0
H515 H 0.44849 0.33769 0.54025 0.0
H516 H 0.49244 0.33374 0.54762 0.0
H517 H 0.51222 0.2893 0.60471 0.0
H518 H 0.63855 0.27537 0.61651 0.0
H519 H 0.5952 0.27026 0.60521 0.0
C520 C 0.61236 0.60215 0.43947 0.0
C521 C 0.63583 0.61258 0.43847 0.0
C522 C 0.60396 0.58623 0.42067 0.0
C523 C 0.61412 0.566 0.35643 0.0
H524 H 0.57832 0.51064 0.37337 0.0
C525 C 0.58783 0.48617 0.28803 0.0
C526 C 0.56448 0.476 0.29089 0.0
C527 C 0.59651 0.50413 0.30483 0.0
C528 C 0.58803 0.52615 0.36831 0.0
H529 H 0.66877 0.61452 0.41663 0.0
H530 H 0.65418 0.58637 0.38394 0.0
H531 H 0.59394 0.53901 0.4051 0.0
H532 H 0.53131 0.47774 0.31266 0.0
H533 H 0.54641 0.50898 0.34189 0.0
H534 H 0.60832 0.55282 0.31952 0.0
C535 C 0.64219 0.5908 0.39921 0.0
C536 C 0.59699 0.54243 0.38651 0.0
C537 C 0.6506 0.60683 0.41803 0.0
C538 C 0.54959 0.48487 0.31025 0.0
C539 C 0.55825 0.50274 0.327 0.0
C540 C 0.6052 0.54961 0.33816 0.0
C541 C 0.61882 0.5802 0.40039 0.0
C542 C 0.60996 0.56266 0.38083 0.0
C543 C 0.582 0.51221 0.3248 0.0
C544 C 0.59187 0.52962 0.34393 0.0
H545 H 0.60035 0.6063 0.45478 0.0
H546 H 0.58568 0.57875 0.42198 0.0
H547 H 0.62384 0.58152 0.35143 0.0
H548 H 0.59979 0.47959 0.27338 0.0
H549 H 0.61494 0.511 0.30272 0.0
C550 C 0.94677 0.21545 0.99591 0.0
C551 C 0.93437 0.19421 0.98859 0.0
C552 C 0.97173 0.21817 0.99041 0.0
C553 C 0.0193 0.1975 0.94758 0.0
H554 H 0.06628 0.21212 -0.00064 0.0
C555 C 0.12271 0.18185 0.93286 0.0
C556 C 0.13978 0.19707 0.94528 0.0
C557 C 0.0976 0.18376 0.93801 0.0
C558 C 0.05344 0.20849 0.98458 0.0
H559 H 0.93818 0.15944 0.96924 0.0
H560 H 0.98152 0.1645 0.95912 0.0
H561 H 0.02218 0.21207 0.00822 0.0
H562 H 0.14406 0.22632 0.97275 0.0
H563 H 0.09994 0.23026 0.98134 0.0
H564 H 0.05016 0.19425 0.92379 0.0
C565 C 0.972 0.17889 0.96933 0.0
C566 C 0.02819 0.20838 0.98973 0.0
C567 C 0.94726 0.17597 0.97523 0.0
C568 C 0.13124 0.2143 0.963 0.0
C569 C 0.10599 0.21646 0.96795 0.0
C570 C 0.04444 0.19798 0.94236 0.0
C571 C 0.98451 0.19992 0.97702 0.0
C572 C 0.01097 0.2024 0.97133 0.0
C573 C 0.08882 0.20119 0.9555 0.0
C574 C 0.06193 0.20292 0.96087 0.0
H575 H 0.93732 0.22976 0.00631 0.0
H576 H 0.98101 0.23457 0.99647 0.0
H577 H 0.00631 0.19313 0.93305 0.0
H578 H 0.12884 0.16811 0.91942 0.0
H579 H 0.08514 0.17123 0.9285 0.0
C580 C 0.30637 0.39355 0.50379 0.0
C581 C 0.29749 0.38028 0.52211 0.0
C582 C 0.29176 0.41108 0.49486 0.0
C583 C 0.2429 0.45247 0.51385 0.0
H584 H 0.24088 0.46397 0.44626 0.0
C585 C 0.20236 0.5249 0.44751 0.0
C586 C 0.2127 0.54569 0.45914 0.0
C587 C 0.20762 0.50276 0.45557 0.0
C588 C 0.24094 0.46078 0.46515 0.0
H589 H 0.26592 0.37459 0.54484 0.0
H590 H 0.24059 0.40539 0.52936 0.0
H591 H 0.2602 0.42787 0.45829 0.0
H592 H 0.23604 0.55925 0.48906 0.0
H593 H 0.24435 0.52097 0.50342 0.0
H594 H 0.22448 0.48579 0.52079 0.0
C595 C 0.25888 0.40219 0.52199 0.0
C596 C 0.25219 0.44026 0.47204 0.0
C597 C 0.27338 0.38449 0.53077 0.0
C598 C 0.22725 0.54384 0.47985 0.0
C599 C 0.23218 0.52181 0.48807 0.0
C600 C 0.2319 0.4731 0.50698 0.0
C601 C 0.26805 0.41587 0.50418 0.0
C602 C 0.25371 0.43614 0.4965 0.0
C603 C 0.22296 0.50101 0.47567 0.0
C604 C 0.23125 0.47768 0.48262 0.0
H605 H 0.32479 0.39071 0.49663 0.0
H606 H 0.29939 0.42151 0.48128 0.0
H607 H 0.24394 0.44984 0.53285 0.0
H608 H 0.1907 0.52562 0.43179 0.0
H609 H 0.20008 0.48697 0.44583 0.0
C610 C 0.12827 0.7851 0.95644 0.0
C611 C 0.13333 0.80761 0.96819 0.0
C612 C 0.12423 0.78235 0.93148 0.0
C613 C 0.13231 0.81275 0.87559 0.0
H614 H 0.07176 0.78074 0.85467 0.0
C615 C 0.07452 0.83952 0.79688 0.0
C616 C 0.06161 0.82234 0.78197 0.0
C617 C 0.08833 0.83314 0.8164 0.0
C618 C 0.08904 0.78928 0.86003 0.0
H619 H 0.13921 0.84464 0.96271 0.0
H620 H 0.13213 0.83985 0.91956 0.0
H621 H 0.08701 0.77763 0.89551 0.0
H622 H 0.05435 0.78464 0.77536 0.0
H623 H 0.07813 0.77359 0.80999 0.0
H624 H 0.1337 0.82533 0.84051 0.0
C625 C 0.13137 0.82428 0.92948 0.0
C626 C 0.09777 0.7875 0.88345 0.0
C627 C 0.13517 0.82707 0.95432 0.0
C628 C 0.06371 0.79841 0.78665 0.0
C629 C 0.07738 0.79204 0.80642 0.0
C630 C 0.12358 0.81455 0.85223 0.0
C631 C 0.12551 0.80198 0.91778 0.0
C632 C 0.11899 0.79997 0.89176 0.0
C633 C 0.08949 0.80942 0.82174 0.0
C634 C 0.10136 0.80356 0.8445 0.0
H635 H 0.12676 0.76974 0.9666 0.0
H636 H 0.11985 0.76492 0.92293 0.0
H637 H 0.149 0.82216 0.88132 0.0
H638 H 0.07298 0.85817 0.79432 0.0
H639 H 0.09704 0.84703 0.8281 0.0
C640 C 0.88331 0.10886 0.92947 0.0
C641 C 0.86045 0.12059 0.93041 0.0
C642 C 0.89007 0.09416 0.9091 0.0
C643 C 0.86367 0.05728 0.85831 0.0
H644 H 0.93101 0.05579 0.83484 0.0
C645 C 0.92826 0.00329 0.78051 0.0
C646 C 0.92202 0.98001 0.78493 0.0
C647 C 0.91916 0.02253 0.79539 0.0
C648 C 0.91205 0.0562 0.84094 0.0
H649 H 0.82692 0.12628 0.91039 0.0
H650 H 0.83875 0.10041 0.87483 0.0
H651 H 0.91859 0.08632 0.86621 0.0
H652 H 0.90051 0.95863 0.80758 0.0
H653 H 0.88474 0.99209 0.83354 0.0
H654 H 0.85726 0.02689 0.83337 0.0
C655 C 0.85135 0.1026 0.88997 0.0
C656 C 0.90501 0.07352 0.85907 0.0
C657 C 0.84464 0.11748 0.91032 0.0
C658 C 0.90586 0.97637 0.80394 0.0
C659 C 0.89662 0.99555 0.81864 0.0
C660 C 0.87075 0.03987 0.84029 0.0
C661 C 0.87411 0.09073 0.88921 0.0
C662 C 0.88088 0.07396 0.86826 0.0
C663 C 0.90341 0.01882 0.81474 0.0
C664 C 0.89514 0.03887 0.83175 0.0
H665 H 0.89602 0.1109 0.94454 0.0
H666 H 0.90759 0.08501 0.90919 0.0
H667 H 0.84498 0.05708 0.86512 0.0
H668 H 0.94074 0.00658 0.76601 0.0
H669 H 0.92458 0.04029 0.79187 0.0
C670 C 0.36617 0.32073 0.45148 0.0
C671 C 0.3692 0.30153 0.46552 0.0
C672 C 0.36874 0.31769 0.4265 0.0
C673 C 0.3649 0.30539 0.37288 0.0
H674 H 0.42501 0.27451 0.34933 0.0
C675 C 0.42972 0.29234 0.28143 0.0
C676 C 0.43143 0.31637 0.27702 0.0
C677 C 0.41672 0.2856 0.30142 0.0
C678 C 0.40783 0.28269 0.35544 0.0
H679 H 0.37671 0.26384 0.46412 0.0
H680 H 0.38145 0.25858 0.42022 0.0
H681 H 0.4122 0.2715 0.39091 0.0
H682 H 0.4198 0.35195 0.28992 0.0
H683 H 0.39685 0.34016 0.32404 0.0
H684 H 0.36122 0.3176 0.33778 0.0
C685 C 0.37709 0.276 0.42874 0.0
C686 C 0.4005 0.28098 0.37929 0.0
C687 C 0.37432 0.27902 0.45385 0.0
C688 C 0.41857 0.33324 0.29228 0.0
C689 C 0.40541 0.32648 0.31201 0.0
C690 C 0.37224 0.30713 0.34909 0.0
C691 C 0.3745 0.29538 0.41484 0.0
C692 C 0.37948 0.29311 0.38852 0.0
C693 C 0.40489 0.3027 0.31721 0.0
C694 C 0.39429 0.29657 0.3404 0.0
H695 H 0.36207 0.3383 0.45978 0.0
H696 H 0.36703 0.33307 0.41641 0.0
H697 H 0.34832 0.31451 0.37934 0.0
H698 H 0.43901 0.2788 0.26985 0.0
H699 H 0.41643 0.2671 0.30488 0.0
C700 C 0.19629 0.89458 0.00177 0.0
C701 C 0.20314 0.88784 0.0245 0.0
C702 C 0.20908 0.91244 0.99143 0.0
C703 C 0.26554 0.95023 0.99658 0.0
H704 H 0.22346 0.99319 0.96485 0.0
C705 C 0.29205 0.04565 0.97417 0.0
C706 C 0.28383 0.05241 0.95181 0.0
C707 C 0.28578 0.02345 0.98155 0.0
C708 C 0.23553 0.9812 0.97337 0.0
H709 H 0.22933 0.89389 0.05384 0.0
H710 H 0.2512 0.92581 0.03617 0.0
H711 H 0.2056 0.95858 0.98064 0.0
H712 H 0.26348 0.04069 0.91929 0.0
H713 H 0.25289 0.00209 0.93205 0.0
H714 H 0.29534 0.97377 0.98991 0.0
C715 C 0.23626 0.91694 0.02608 0.0
C716 C 0.22531 0.96125 0.98237 0.0
C717 C 0.22367 0.89872 0.03627 0.0
C718 C 0.27037 0.03602 0.9365 0.0
C719 C 0.26405 0.01398 0.9439 0.0
C720 C 0.27576 0.97044 0.98774 0.0
C721 C 0.22874 0.92438 0.00376 0.0
C722 C 0.24015 0.9454 0.99398 0.0
C723 C 0.27103 0.00775 0.96678 0.0
C724 C 0.26083 0.98602 0.97593 0.0
H725 H 0.18081 0.88621 0.99206 0.0
H726 H 0.20322 0.91718 0.9739 0.0
H727 H 0.27755 0.93832 0.00526 0.0
H728 H 0.30264 0.0578 0.98627 0.0
H729 H 0.29136 0.01909 -0.00069 0.0
C730 C 0.55013 0.67432 0.50039 0.0
C731 C 0.56706 0.69097 0.49295 0.0
C732 C 0.52535 0.67533 0.49398 0.0
C733 C 0.47692 0.71368 0.47153 0.0
H734 H 0.44545 0.6531 0.45394 0.0
C735 C 0.37705 0.70046 0.43209 0.0
C736 C 0.36301 0.68304 0.44232 0.0
C737 C 0.40197 0.70376 0.43823 0.0
C738 C 0.45394 0.67015 0.45893 0.0
H739 H 0.57098 0.72217 0.47339 0.0
H740 H 0.5275 0.72367 0.46177 0.0
H741 H 0.48902 0.6544 0.46417 0.0
H742 H 0.36362 0.65672 0.4683 0.0
H743 H 0.40694 0.66223 0.47864 0.0
H744 H 0.44151 0.72929 0.46593 0.0
C745 C 0.5335 0.70998 0.47283 0.0
C746 C 0.4789 0.67091 0.46488 0.0
C747 C 0.55841 0.70908 0.47942 0.0
C748 C 0.37407 0.66982 0.45959 0.0
C749 C 0.39887 0.67301 0.46558 0.0
C750 C 0.45184 0.71291 0.46536 0.0
C751 C 0.51678 0.69286 0.47973 0.0
C752 C 0.4906 0.69261 0.47176 0.0
C753 C 0.41321 0.68962 0.45459 0.0
C754 C 0.44005 0.69106 0.45949 0.0
H755 H 0.55603 0.66033 0.51113 0.0
H756 H 0.51288 0.66223 0.50016 0.0
H757 H 0.48537 0.73067 0.47681 0.0
H758 H 0.36907 0.71087 0.41868 0.0
H759 H 0.41266 0.71668 0.4295 0.0
C760 C 0.34596 0.39194 0.62705 0.0
C761 C 0.36405 0.38051 0.61219 0.0
C762 C 0.35276 0.40811 0.64635 0.0
C763 C 0.39896 0.42355 0.69074 0.0
H764 H 0.38027 0.48917 0.68755 0.0
C765 C 0.43747 0.49848 0.75784 0.0
C766 C 0.42295 0.51876 0.76358 0.0
C767 C 0.42974 0.48078 0.74033 0.0
C768 C 0.38523 0.47089 0.68913 0.0
H769 H 0.40339 0.37645 0.60625 0.0
H770 H 0.41524 0.40425 0.64061 0.0
H771 H 0.3673 0.45947 0.65575 0.0
H772 H 0.38839 0.53575 0.7554 0.0
H773 H 0.37418 0.50431 0.72661 0.0
H774 H 0.4161 0.43451 0.72449 0.0
C775 C 0.39586 0.40088 0.63698 0.0
C776 C 0.37794 0.45396 0.67075 0.0
C777 C 0.38907 0.38514 0.61732 0.0
C778 C 0.40005 0.52035 0.75191 0.0
C779 C 0.39206 0.50242 0.73486 0.0
C780 C 0.4058 0.44039 0.70948 0.0
C781 C 0.37774 0.41264 0.65145 0.0
C782 C 0.38489 0.43024 0.67134 0.0
C783 C 0.407 0.4826 0.72841 0.0
C784 C 0.39916 0.46436 0.70887 0.0
H785 H 0.32655 0.38876 0.62345 0.0
H786 H 0.33854 0.41707 0.65734 0.0
H787 H 0.40439 0.40525 0.69153 0.0
H788 H 0.45499 0.49627 0.76669 0.0
H789 H 0.44194 0.46596 0.73579 0.0
C790 C 0.0577 0.78925 0.07058 0.0
C791 C 0.06613 0.80897 0.05931 0.0
C792 C 0.03292 0.78763 0.07739 0.0
C793 C 0.97844 0.82598 0.09033 0.0
H794 H 0.94072 0.76764 0.08206 0.0
C795 C 0.87366 0.8266 0.09195 0.0
C796 C 0.86207 0.81242 0.10805 0.0
C797 C 0.89859 0.82371 0.08657 0.0
C798 C 0.95117 0.78396 0.08467 0.0
H799 H 0.05487 0.84186 0.04535 0.0
H800 H 0.01198 0.83877 0.05662 0.0
H801 H 0.98468 0.76733 0.0716 0.0
H802 H 0.86736 0.78315 0.1301 0.0
H803 H 0.91121 0.77781 0.12017 0.0
H804 H 0.94494 0.84275 0.10266 0.0
C805 C 0.02451 0.82489 0.06094 0.0
C806 C 0.97629 0.78381 0.07875 0.0
C807 C 0.04915 0.8266 0.05433 0.0
C808 C 0.87574 0.79433 0.1176 0.0
C809 C 0.9008 0.7913 0.11199 0.0
C810 C 0.95345 0.82616 0.09597 0.0
C811 C 0.01614 0.80565 0.07295 0.0
C812 C 0.99006 0.80496 0.08104 0.0
C813 C 0.91253 0.80641 0.09692 0.0
C814 C 0.93946 0.80529 0.09276 0.0
H815 H 0.07033 0.77537 0.07467 0.0
H816 H 0.02707 0.7726 0.08667 0.0
H817 H 0.98863 0.84245 0.09301 0.0
H818 H 0.86353 0.84023 0.08372 0.0
H819 H 0.90711 0.83528 0.0745 0.0
C820 C 0.6942 0.59546 0.53925 0.0
C821 C 0.70536 0.61361 0.52751 0.0
C822 C 0.70849 0.5789 0.54997 0.0
C823 C 0.77074 0.55245 0.54971 0.0
H824 H 0.74483 0.52646 0.60653 0.0
C825 C 0.79763 0.46027 0.57692 0.0
C826 C 0.79403 0.45488 0.60085 0.0
C827 C 0.79237 0.48288 0.5701 0.0
C828 C 0.75284 0.53374 0.59101 0.0
H829 H 0.74044 0.6287 0.51809 0.0
H830 H 0.76551 0.59994 0.5374 0.0
H831 H 0.72485 0.56017 0.59144 0.0
H832 H 0.78436 0.47023 0.63682 0.0
H833 H 0.77724 0.50969 0.62534 0.0
H834 H 0.79911 0.52623 0.54966 0.0
C835 C 0.74563 0.59834 0.5379 0.0
C836 C 0.74099 0.55291 0.58204 0.0
C837 C 0.73126 0.61488 0.52691 0.0
C838 C 0.78746 0.47341 0.6182 0.0
C839 C 0.78284 0.49612 0.6115 0.0
C840 C 0.78288 0.53342 0.55892 0.0
C841 C 0.73438 0.58014 0.54957 0.0
C842 C 0.74924 0.562 0.56082 0.0
C843 C 0.78395 0.50087 0.58717 0.0
C844 C 0.77365 0.52334 0.57931 0.0
H845 H 0.67433 0.59374 0.53986 0.0
H846 H 0.69913 0.5648 0.55821 0.0
H847 H 0.77763 0.55899 0.53331 0.0
H848 H 0.80348 0.44679 0.56312 0.0
H849 H 0.79356 0.48571 0.55118 0.0
C850 C 0.87559 0.17042 0.09343 0.0
C851 C 0.87104 0.19078 0.08146 0.0
C852 C 0.8801 0.17217 0.11817 0.0
C853 C 0.90348 0.21346 0.16727 0.0
H854 H 0.88251 0.16356 0.20597 0.0
C855 C 0.91973 0.17602 0.26728 0.0
C856 C 0.94558 0.17779 0.26805 0.0
C857 C 0.90661 0.18263 0.2473 0.0
C858 C 0.88817 0.17795 0.19567 0.0
H859 H 0.86704 0.22901 0.08641 0.0
H860 H 0.87492 0.23203 0.12982 0.0
H861 H 0.86568 0.16524 0.16567 0.0
H862 H 0.9778 0.18867 0.24878 0.0
H863 H 0.95509 0.19998 0.2141 0.0
H864 H 0.9262 0.226 0.19721 0.0
C865 C 0.87517 0.21472 0.11987 0.0
C866 C 0.87875 0.17872 0.17241 0.0
C867 C 0.87058 0.21296 0.09502 0.0
C868 C 0.95788 0.18741 0.24898 0.0
C869 C 0.9448 0.19394 0.22903 0.0
C870 C 0.91285 0.21274 0.1906 0.0
C871 C 0.88016 0.19433 0.13168 0.0
C872 C 0.88694 0.19597 0.15764 0.0
C873 C 0.91908 0.19107 0.22765 0.0
C874 C 0.90593 0.19451 0.20477 0.0
H875 H 0.87605 0.15302 0.08366 0.0
H876 H 0.88431 0.15615 0.12658 0.0
H877 H 0.91021 0.22697 0.15637 0.0
H878 H 0.90971 0.16899 0.28185 0.0
H879 H 0.88676 0.18056 0.24697 0.0
C880 C 0.15656 0.75196 0.12148 0.0
C881 C 0.16065 0.77649 0.12203 0.0
C882 C 0.15666 0.74076 0.14285 0.0
C883 C 0.14817 0.75039 0.20799 0.0
H884 H 0.19599 0.70016 0.21218 0.0
C885 C 0.17914 0.71963 0.29914 0.0
C886 C 0.18682 0.69606 0.3003 0.0
C887 C 0.17284 0.72798 0.27709 0.0
C888 C 0.18211 0.71375 0.21128 0.0
H889 H 0.16701 0.80867 0.14538 0.0
H890 H 0.16662 0.78913 0.18271 0.0
H891 H 0.18973 0.71706 0.174 0.0
H892 H 0.19314 0.66266 0.27889 0.0
H893 H 0.18074 0.67676 0.2409 0.0
H894 H 0.14019 0.74701 0.24509 0.0
C895 C 0.1636 0.77859 0.16574 0.0
C896 C 0.17864 0.72349 0.18938 0.0
C897 C 0.164 0.7897 0.14438 0.0
C898 C 0.18708 0.68084 0.27889 0.0
C899 C 0.18036 0.68908 0.25692 0.0
C900 C 0.15128 0.74036 0.22982 0.0
C901 C 0.16028 0.754 0.16514 0.0
C902 C 0.16198 0.74216 0.18766 0.0
C903 C 0.17363 0.71288 0.25562 0.0
C904 C 0.16865 0.72221 0.2319 0.0
H905 H 0.15397 0.74134 0.1045 0.0
H906 H 0.15403 0.72176 0.142 0.0
H907 H 0.13506 0.76468 0.20701 0.0
H908 H 0.17822 0.7318 0.31525 0.0
H909 H 0.16805 0.74649 0.27689 0.0
C910 C 0.75027 0.71568 0.5184 0.0
C911 C 0.72684 0.72631 0.5203 0.0
C912 C 0.77082 0.72711 0.52925 0.0
C913 C 0.79433 0.78551 0.55322 0.0
H914 H 0.83626 0.7495 0.59293 0.0
C915 C 0.86084 0.8302 0.62391 0.0
C916 C 0.88335 0.8191 0.62835 0.0
C917 C 0.84352 0.81907 0.60815 0.0
C918 C 0.82506 0.75975 0.58156 0.0
H919 H 0.70682 0.75757 0.5347 0.0
H920 H 0.74272 0.77748 0.55353 0.0
H921 H 0.8027 0.72969 0.57 0.0
H922 H 0.90557 0.78781 0.61911 0.0
H923 H 0.87559 0.76865 0.59103 0.0
H924 H 0.81657 0.81559 0.56479 0.0
C925 C 0.74515 0.76033 0.54357 0.0
C926 C 0.80578 0.74838 0.56847 0.0
C927 C 0.72456 0.74883 0.53291 0.0
C928 C 0.88847 0.79691 0.61601 0.0
C929 C 0.87115 0.7858 0.60013 0.0
C930 C 0.81372 0.79685 0.56616 0.0
C931 C 0.76845 0.7495 0.54203 0.0
C932 C 0.78998 0.76122 0.55447 0.0
C933 C 0.84832 0.79662 0.59626 0.0
C934 C 0.82908 0.78419 0.58081 0.0
H935 H 0.75272 0.69834 0.50885 0.0
H936 H 0.7886 0.71842 0.52763 0.0
H937 H 0.78266 0.79577 0.54227 0.0
H938 H 0.85646 0.84746 0.6328 0.0
H939 H 0.82606 0.82784 0.60584 0.0
C940 C 0.779 0.25013 0.0396 0.0
C941 C 0.77597 0.22791 0.02651 0.0
C942 C 0.75903 0.26148 0.05149 0.0
C943 C 0.69859 0.24944 0.07739 0.0
H944 H 0.68781 0.31675 0.07464 0.0
C945 C 0.61262 0.29599 0.1196 0.0
C946 C 0.61619 0.31829 0.13228 0.0
C947 C 0.63146 0.28536 0.1054 0.0
C948 C 0.69071 0.29799 0.07579 0.0
H949 H 0.74939 0.20029 0.01564 0.0
H950 H 0.71464 0.22011 0.0364 0.0
H951 H 0.72218 0.29742 0.05256 0.0
H952 H 0.64228 0.34698 0.13997 0.0
H953 H 0.67527 0.32837 0.11541 0.0
H954 H 0.66745 0.24998 0.10091 0.0
C955 C 0.73253 0.22866 0.03755 0.0
C956 C 0.71038 0.28693 0.06312 0.0
C957 C 0.75245 0.21737 0.02554 0.0
C958 C 0.63887 0.32992 0.13015 0.0
C959 C 0.65776 0.31925 0.11604 0.0
C960 C 0.67901 0.2605 0.09015 0.0
C961 C 0.73561 0.2508 0.05069 0.0
C962 C 0.71455 0.26254 0.06383 0.0
C963 C 0.65436 0.29675 0.10366 0.0
C964 C 0.67485 0.28493 0.08955 0.0
H965 H 0.79683 0.2588 0.04074 0.0
H966 H 0.76201 0.27843 0.06169 0.0
H967 H 0.70155 0.23068 0.07857 0.0
H968 H 0.59521 0.28675 0.12064 0.0
H969 H 0.62806 0.26822 0.09574 0.0
C970 C 0.35759 0.25122 0.62326 0.0
C971 C 0.34265 0.27101 0.62005 0.0
C972 C 0.35689 0.24047 0.64501 0.0
C973 C 0.31495 0.2332 0.69508 0.0
H974 H 0.3723 0.22317 0.73459 0.0
C975 C 0.30458 0.22569 0.79505 0.0
C976 C 0.31571 0.20636 0.80484 0.0
C977 C 0.31082 0.23143 0.77206 0.0
C978 C 0.3562 0.22557 0.72355 0.0
H979 H 0.31578 0.29528 0.63756 0.0
H980 H 0.31458 0.2766 0.67485 0.0
H981 H 0.37771 0.23624 0.69396 0.0
H982 H 0.34324 0.17877 0.79886 0.0
H983 H 0.35437 0.18905 0.75831 0.0
H984 H 0.29335 0.22327 0.72456 0.0
C985 C 0.32663 0.26924 0.66059 0.0
C986 C 0.35929 0.23296 0.70036 0.0
C987 C 0.32745 0.28 0.63916 0.0
C988 C 0.33439 0.19377 0.79172 0.0
C989 C 0.34071 0.1996 0.76856 0.0
C990 C 0.31189 0.22589 0.71807 0.0
C991 C 0.34103 0.2492 0.66366 0.0
C992 C 0.3386 0.23758 0.6863 0.0
C993 C 0.32837 0.21803 0.75828 0.0
C994 C 0.33239 0.22277 0.73286 0.0
H995 H 0.36961 0.24393 0.60897 0.0
H996 H 0.36822 0.22505 0.64703 0.0
H997 H 0.29871 0.23619 0.68441 0.0
H998 H 0.29053 0.23603 0.80497 0.0
H999 H 0.30147 0.24612 0.76481 0.0
C1000 C 0.66321 0.70803 0.40529 0.0
C1001 C 0.66079 0.72178 0.42746 0.0
C1002 C 0.66264 0.71868 0.38365 0.0
C1003 C 0.67837 0.77314 0.35864 0.0
H1004 H 0.63873 0.74906 0.30379 0.0
C1005 C 0.68514 0.81465 0.26843 0.0
C1006 C 0.68455 0.79919 0.24721 0.0
C1007 C 0.67878 0.80669 0.29061 0.0
C1008 C 0.65015 0.75586 0.31882 0.0
H1009 H 0.65558 0.75742 0.44433 0.0
H1010 H 0.65528 0.77612 0.40636 0.0
H1011 H 0.63414 0.73205 0.34229 0.0
H1012 H 0.6757 0.76332 0.23277 0.0
H1013 H 0.66609 0.74911 0.27149 0.0
H1014 H 0.69543 0.79601 0.33519 0.0
C1015 C 0.65735 0.75708 0.40586 0.0
C1016 C 0.64736 0.7462 0.34088 0.0
C1017 C 0.65745 0.74638 0.42752 0.0
C1018 C 0.67686 0.77567 0.24874 0.0
C1019 C 0.67091 0.76759 0.27099 0.0
C1020 C 0.68148 0.78252 0.33651 0.0
C1021 C 0.66007 0.74332 0.38376 0.0
C1022 C 0.66159 0.75464 0.36091 0.0
C1023 C 0.67208 0.78292 0.29228 0.0
C1024 C 0.66757 0.77388 0.31621 0.0
H1025 H 0.66563 0.68902 0.40465 0.0
H1026 H 0.66496 0.70773 0.36684 0.0
H1027 H 0.68979 0.77973 0.37376 0.0
H1028 H 0.69122 0.83282 0.26815 0.0
H1029 H 0.67944 0.81917 0.30649 0.0
C1030 C 0.8178 0.2268 0.91495 0.0
C1031 C 0.83655 0.23168 0.93214 0.0
C1032 C 0.81691 0.23864 0.89417 0.0
C1033 C 0.85387 0.26933 0.85236 0.0
H1034 H 0.78941 0.28865 0.83112 0.0
C1035 C 0.83184 0.31099 0.76159 0.0
C1036 C 0.8117 0.30012 0.74902 0.0
C1037 C 0.83779 0.30506 0.78481 0.0
C1038 C 0.80754 0.28339 0.83684 0.0
H1039 H 0.86927 0.25284 0.94077 0.0
H1040 H 0.86773 0.27363 0.90392 0.0
H1041 H 0.79417 0.27523 0.87117 0.0
H1042 H 0.7833 0.27326 0.75014 0.0
H1043 H 0.79342 0.26328 0.79055 0.0
H1044 H 0.86697 0.2771 0.8175 0.0
C1045 C 0.85373 0.26056 0.90684 0.0
C1046 C 0.81028 0.27574 0.85974 0.0
C1047 C 0.85452 0.24875 0.92793 0.0
C1048 C 0.7985 0.28241 0.75959 0.0
C1049 C 0.8043 0.27666 0.7827 0.0
C1050 C 0.85113 0.27715 0.82932 0.0
C1051 C 0.83476 0.25569 0.88988 0.0
C1052 C 0.83325 0.2678 0.86742 0.0
C1053 C 0.82357 0.28832 0.79578 0.0
C1054 C 0.82773 0.28343 0.82111 0.0
H1055 H 0.80362 0.21379 0.9175 0.0
H1056 H 0.80232 0.23418 0.88123 0.0
H1057 H 0.87178 0.26327 0.85784 0.0
H1058 H 0.84232 0.32474 0.75392 0.0
H1059 H 0.8528 0.31422 0.79455 0.0
C1060 C 0.28313 0.25173 0.50336 0.0
C1061 C 0.27979 0.26573 0.52525 0.0
C1062 C 0.26308 0.24039 0.49156 0.0
C1063 C 0.20216 0.21616 0.4998 0.0
H1064 H 0.19083 0.22897 0.43346 0.0
C1065 C 0.11549 0.18171 0.44654 0.0
C1066 C 0.1182 0.17558 0.42171 0.0
C1067 C 0.13489 0.19261 0.45994 0.0
C1068 C 0.1939 0.2248 0.45182 0.0
H1069 H 0.25296 0.27822 0.55231 0.0
H1070 H 0.21793 0.25779 0.53183 0.0
H1071 H 0.22565 0.24733 0.45552 0.0
H1072 H 0.14335 0.17498 0.39154 0.0
H1073 H 0.17751 0.19293 0.41492 0.0
H1074 H 0.171 0.19296 0.49598 0.0
C1075 C 0.23608 0.25589 0.52381 0.0
C1076 C 0.21378 0.23548 0.46447 0.0
C1077 C 0.25607 0.26763 0.53541 0.0
C1078 C 0.14074 0.17991 0.41062 0.0
C1079 C 0.16023 0.19036 0.42403 0.0
C1080 C 0.18248 0.20508 0.487 0.0
C1081 C 0.23939 0.24246 0.50163 0.0
C1082 C 0.21811 0.23122 0.48852 0.0
C1083 C 0.1575 0.19718 0.44882 0.0
C1084 C 0.17814 0.2092 0.46278 0.0
H1085 H 0.30115 0.25 0.49502 0.0
H1086 H 0.26606 0.23001 0.47451 0.0
H1087 H 0.20527 0.21254 0.51834 0.0
H1088 H 0.09819 0.17859 0.45542 0.0
H1089 H 0.13194 0.19785 0.47889 0.0
C1090 C 0.24905 0.7864 0.02864 0.0
C1091 C 0.22601 0.77507 0.02932 0.0
C1092 C 0.26921 0.77469 0.01739 0.0
C1093 C 0.28364 0.72438 0.97252 0.0
H1094 H 0.3503 0.7328 0.99716 0.0
C1095 C 0.36299 0.66746 0.93254 0.0
C1096 C 0.38403 0.67976 0.92582 0.0
C1097 C 0.34506 0.67886 0.94725 0.0
C1098 C 0.33178 0.73041 0.99005 0.0
H1099 H 0.20638 0.74223 0.0195 0.0
H1100 H 0.24155 0.72169 0.00055 0.0
H1101 H 0.3161 0.75308 0.01888 0.0
H1102 H 0.40335 0.71339 0.93034 0.0
H1103 H 0.37198 0.7333 0.9564 0.0
H1104 H 0.29922 0.70155 0.94388 0.0
C1105 C 0.24394 0.73985 0.00804 0.0
C1106 C 0.3122 0.74206 0.00241 0.0
C1107 C 0.22376 0.7516 0.01904 0.0
C1108 C 0.38741 0.70339 0.93529 0.0
C1109 C 0.36945 0.7148 0.95016 0.0
C1110 C 0.30311 0.71261 0.96035 0.0
C1111 C 0.26684 0.75133 0.00677 0.0
C1112 C 0.28786 0.73911 0.99381 0.0
C1113 C 0.3478 0.7028 0.95573 0.0
C1114 C 0.32736 0.71542 0.969 0.0
H1115 H 0.2514 0.8045 0.03631 0.0
H1116 H 0.28648 0.78418 0.01652 0.0
H1117 H 0.26527 0.72214 0.965 0.0
H1118 H 0.36012 0.64908 0.92602 0.0
H1119 H 0.32879 0.66904 0.95167 0.0
loop_
_geom_bond_atom_site_label_1
_geom_bond_atom_site_label_2
_geom_bond_distance
_geom_bond_site_symmetry_2
_ccdc_geom_bond_type
Sc0 O3 2.025 . S
Sc0 O10 2.105 . S
Sc0 O13 2.105 . S
Sc0 O16 2.105 . S
Sc0 O19 2.105 . S
Sc1 O3 2.025 . S
Sc1 O11 2.105 . S
Sc1 O15 2.105 . S
Sc1 O17 2.105 . S
Sc1 O21 2.105 . S
Sc2 O3 2.025 . S
Sc2 O12 2.105 . S
Sc2 O14 2.105 . S
Sc2 O18 2.105 . S
Sc2 O20 2.105 . S
O3 Sc0 2.025 . S
O3 Sc1 2.025 . S
O3 Sc2 2.025 . S
C4 O10 1.268 . S
C4 O20 1.268 . S
C5 O11 1.268 1_556 S
C5 O19 1.268 1_556 S
C6 O12 1.268 . S
C6 O21 1.268 . S
C7 O13 1.268 . S
C7 O17 1.268 . S
C8 O14 1.268 . S
C8 O16 1.268 . S
C9 O15 1.268 . S
C9 O18 1.268 . S
O10 Sc0 2.105 . S
O10 C4 1.268 . S
O11 Sc1 2.105 . S
O11 C5 1.268 1_554 S
O12 Sc2 2.105 . S
O12 C6 1.268 . S
O13 Sc0 2.105 . S
O13 C7 1.268 . S
O14 Sc2 2.105 . S
O14 C8 1.268 . S
O15 Sc1 2.105 . S
O15 C9 1.268 . S
O16 Sc0 2.105 . S
O16 C8 1.268 . S
O17 Sc1 2.105 . S
O17 C7 1.268 . S
O18 Sc2 2.105 . S
O18 C9 1.268 . S
O19 Sc0 2.105 . S
O19 C5 1.268 1_554 S
O20 Sc2 2.105 . S
O20 C4 1.268 . S
O21 Sc1 2.105 . S
O21 C6 1.268 . S
Sc22 O25 2.025 . S
Sc22 O32 2.105 . S
Sc22 O35 2.105 . S
Sc22 O38 2.105 . S
Sc22 O41 2.105 . S
Sc23 O25 2.025 . S
Sc23 O33 2.105 . S
Sc23 O37 2.105 . S
Sc23 O39 2.105 . S
Sc23 O43 2.105 . S
Sc24 O25 2.025 . S
Sc24 O34 2.105 . S
Sc24 O36 2.105 . S
Sc24 O40 2.105 . S
Sc24 O42 2.105 . S
O25 Sc22 2.025 . S
O25 Sc23 2.025 . S
O25 Sc24 2.025 . S
C26 O32 1.268 . S
C26 O42 1.268 . S
C27 O33 1.268 . S
C27 O41 1.268 . S
C28 O34 1.268 . S
C28 O43 1.268 . S
C29 O35 1.268 . S
C29 O39 1.268 . S
C30 O36 1.268 . S
C30 O38 1.268 . S
C31 O37 1.268 . S
C31 O40 1.268 . S
O32 Sc22 2.105 . S
O32 C26 1.268 . S
O33 Sc23 2.105 . S
O33 C27 1.268 . S
O34 Sc24 2.105 . S
O34 C28 1.268 . S
O35 Sc22 2.105 . S
O35 C29 1.268 . S
O36 Sc24 2.105 . S
O36 C30 1.268 . S
O37 Sc23 2.105 . S
O37 C31 1.268 . S
O38 Sc22 2.105 . S
O38 C30 1.268 . S
O39 Sc23 2.105 . S
O39 C29 1.268 . S
O40 Sc24 2.105 . S
O40 C31 1.268 . S
O41 Sc22 2.105 . S
O41 C27 1.268 . S
O42 Sc24 2.105 . S
O42 C26 1.268 . S
O43 Sc23 2.105 . S
O43 C28 1.268 . S
Sc44 O47 2.025 . S
Sc44 O54 2.105 1_554 S
Sc44 O57 2.105 . S
Sc44 O60 2.105 . S
Sc44 O63 2.105 1_554 S
Sc45 O47 2.025 1_556 S
Sc45 O55 2.105 . S
Sc45 O59 2.105 1_556 S
Sc45 O61 2.105 1_556 S
Sc45 O65 2.105 . S
Sc46 O47 2.025 . S
Sc46 O56 2.105 1_554 S
Sc46 O58 2.105 . S
Sc46 O62 2.105 . S
Sc46 O64 2.105 1_554 S
O47 Sc44 2.025 . S
O47 Sc45 2.025 1_554 S
O47 Sc46 2.025 . S
C48 O54 1.268 . S
C48 O64 1.268 . S
C49 O55 1.268 . S
C49 O63 1.268 . S
C50 O56 1.268 . S
C50 O65 1.268 . S
C51 O57 1.268 . S
C51 O61 1.268 . S
C52 O58 1.268 . S
C52 O60 1.268 . S
C53 O59 1.268 . S
C53 O62 1.268 . S
O54 Sc44 2.105 1_556 S
O54 C48 1.268 . S
O55 Sc45 2.105 . S
O55 C49 1.268 . S
O56 Sc46 2.105 1_556 S
O56 C50 1.268 . S
O57 Sc44 2.105 . S
O57 C51 1.268 . S
O58 Sc46 2.105 . S
O58 C52 1.268 . S
O59 Sc45 2.105 1_554 S
O59 C53 1.268 . S
O60 Sc44 2.105 . S
O60 C52 1.268 . S
O61 Sc45 2.105 1_554 S
O61 C51 1.268 . S
O62 Sc46 2.105 . S
O62 C53 1.268 . S
O63 Sc44 2.105 1_556 S
O63 C49 1.268 . S
O64 Sc46 2.105 1_556 S
O64 C48 1.268 . S
O65 Sc45 2.105 . S
O65 C50 1.268 . S
Sc66 O69 2.025 . S
Sc66 O76 2.105 . S
Sc66 O79 2.105 . S
Sc66 O82 2.105 . S
Sc66 O85 2.105 . S
Sc67 O69 2.025 . S
Sc67 O77 2.105 . S
Sc67 O81 2.105 . S
Sc67 O83 2.105 . S
Sc67 O87 2.105 . S
Sc68 O69 2.025 . S
Sc68 O78 2.105 . S
Sc68 O80 2.105 . S
Sc68 O84 2.105 . S
Sc68 O86 2.105 . S
O69 Sc66 2.025 . S
O69 Sc67 2.025 . S
O69 Sc68 2.025 . S
C70 O76 1.268 . S
C70 O86 1.268 . S
C71 O77 1.268 . S
C71 O85 1.268 . S
C72 O78 1.268 . S
C72 O87 1.268 . S
C73 O79 1.268 . S
C73 O83 1.268 . S
C74 O80 1.268 . S
C74 O82 1.268 . S
C75 O81 1.268 . S
C75 O84 1.268 . S
O76 Sc66 2.105 . S
O76 C70 1.268 . S
O77 Sc67 2.105 . S
O77 C71 1.268 . S
O78 Sc68 2.105 . S
O78 C72 1.268 . S
O79 Sc66 2.105 . S
O79 C73 1.268 . S
O80 Sc68 2.105 . S
O80 C74 1.268 . S
O81 Sc67 2.105 . S
O81 C75 1.268 . S
O82 Sc66 2.105 . S
O82 C74 1.268 . S
O83 Sc67 2.105 . S
O83 C73 1.268 . S
O84 Sc68 2.105 . S
O84 C75 1.268 . S
O85 Sc66 2.105 . S
O85 C71 1.268 . S
O86 Sc68 2.105 . S
O86 C70 1.268 . S
O87 Sc67 2.105 . S
O87 C72 1.268 . S
C88 C89 1.367 1_455 S
C88 C90 1.415 . S
C88 H112 0.932 . S
C89 C88 1.367 1_655 S
C89 C93 1.397 . S
C90 C88 1.415 . S
C90 C91 1.384 . S
C90 H113 0.930 . S
C91 C90 1.384 . S
C91 C92 1.377 1_455 S
C91 C94 1.481 . S
C92 C91 1.377 1_655 S
C92 C93 1.389 . S
C92 H114 0.929 . S
C93 C89 1.397 . S
C93 C92 1.389 . S
C93 H115 0.931 . S
C94 C91 1.481 . S
C94 C95 1.387 . S
C94 C99 1.390 . S
C95 C94 1.387 . S
C95 C96 1.401 . S
C95 H116 0.930 . S
C96 C95 1.401 . S
C96 C97 1.376 . S
C96 C105 1.511 . S
C97 C96 1.376 . S
C97 C98 1.392 . S
C97 H118 0.931 . S
C98 C97 1.392 . S
C98 C99 1.361 . S
C98 C100 1.500 . S
C99 C94 1.390 . S
C99 C98 1.361 . S
C99 H117 0.931 . S
C100 C98 1.500 . S
C100 C101 1.371 . S
C100 C102 1.365 . S
C101 C100 1.371 . S
C101 C111 1.386 . S
C101 H119 0.931 . S
C102 C100 1.365 . S
C102 C103 1.409 . S
C102 H120 0.929 . S
C103 C102 1.409 . S
C103 C104 1.380 . S
C103 H121 0.930 . S
C104 C103 1.380 . S
C104 C111 1.357 . S
C105 C96 1.511 . S
C105 C106 1.341 . S
C105 C107 1.371 . S
C106 C105 1.341 . S
C106 C110 1.394 . S
C106 H122 0.930 . S
C107 C105 1.371 . S
C107 C108 1.392 . S
C107 H123 0.931 . S
C108 C107 1.392 . S
C108 C109 1.331 . S
C108 H126 0.932 . S
C109 C108 1.331 . S
C109 C110 1.336 . S
C110 C106 1.394 . S
C110 C109 1.336 . S
C110 H125 0.929 . S
C111 C101 1.386 . S
C111 C104 1.357 . S
C111 H124 0.928 . S
H112 C88 0.932 . S
H113 C90 0.930 . S
H114 C92 0.929 . S
H115 C93 0.931 . S
H116 C95 0.930 . S
H117 C99 0.931 . S
H118 C97 0.931 . S
H119 C101 0.931 . S
H120 C102 0.929 . S
H121 C103 0.930 . S
H122 C106 0.930 . S
H123 C107 0.931 . S
H124 C111 0.928 . S
H125 C110 0.929 . S
H126 C108 0.932 . S
C127 C128 1.386 . S
C127 C129 1.397 . S
C127 H151 0.931 . S
C128 C127 1.386 . S
C128 C132 1.397 . S
C129 C127 1.397 . S
C129 C130 1.384 . S
C129 H152 0.930 . S
C130 C129 1.384 . S
C130 C131 1.377 . S
C130 C133 1.481 . S
C131 C130 1.377 . S
C131 C132 1.389 . S
C131 H153 0.929 . S
C132 C128 1.397 . S
C132 C131 1.389 . S
C132 H154 0.931 . S
C133 C130 1.481 . S
C133 C134 1.387 . S
C133 C138 1.390 . S
C134 C133 1.387 . S
C134 C135 1.401 . S
C134 H155 0.930 . S
C135 C134 1.401 . S
C135 C136 1.376 . S
C135 C144 1.511 . S
C136 C135 1.376 . S
C136 C137 1.392 . S
C136 H157 0.931 . S
C137 C136 1.392 . S
C137 C138 1.361 . S
C137 C139 1.500 . S
C138 C133 1.390 . S
C138 C137 1.361 . S
C138 H156 0.931 . S
C139 C137 1.500 . S
C139 C140 1.371 . S
C139 C141 1.365 . S
C140 C139 1.371 . S
C140 C150 1.386 . S
C140 H158 0.931 . S
C141 C139 1.365 . S
C141 C142 1.409 . S
C141 H159 0.929 . S
C142 C141 1.409 . S
C142 C143 1.380 . S
C142 H160 0.930 . S
C143 C142 1.380 . S
C143 C150 1.357 . S
C144 C135 1.511 . S
C144 C145 1.341 . S
C144 C146 1.371 . S
C145 C144 1.341 . S
C145 C149 1.394 . S
C145 H161 0.930 . S
C146 C144 1.371 . S
C146 C147 1.392 . S
C146 H162 0.931 . S
C147 C146 1.392 . S
C147 C148 1.331 . S
C147 H165 0.932 . S
C148 C147 1.331 . S
C148 C149 1.336 . S
C149 C145 1.394 . S
C149 C148 1.336 . S
C149 H164 0.929 . S
C150 C140 1.386 . S
C150 C143 1.357 . S
C150 H163 0.928 . S
H151 C127 0.931 . S
H152 C129 0.930 . S
H153 C131 0.929 . S
H154 C132 0.931 . S
H155 C134 0.930 . S
H156 C138 0.931 . S
H157 C136 0.931 . S
H158 C140 0.931 . S
H159 C141 0.929 . S
H160 C142 0.930 . S
H161 C145 0.930 . S
H162 C146 0.931 . S
H163 C150 0.928 . S
H164 C149 0.929 . S
H165 C147 0.932 . S
C166 C167 1.386 . S
C166 C168 1.397 . S
C166 H190 0.931 . S
C167 C166 1.386 . S
C167 C171 1.397 . S
C168 C166 1.397 . S
C168 C169 1.384 . S
C168 H191 0.930 . S
C169 C168 1.384 . S
C169 C170 1.377 . S
C169 C172 1.481 . S
C170 C169 1.377 . S
C170 C171 1.389 . S
C170 H192 0.929 . S
C171 C167 1.397 . S
C171 C170 1.389 . S
C171 H193 0.931 . S
C172 C169 1.481 . S
C172 C173 1.387 . S
C172 C177 1.390 . S
C173 C172 1.387 . S
C173 C174 1.401 . S
C173 H194 0.930 . S
C174 C173 1.401 . S
C174 C175 1.376 . S
C174 C183 1.511 . S
C175 C174 1.376 . S
C175 C176 1.392 . S
C175 H196 0.931 . S
C176 C175 1.392 . S
C176 C177 1.361 . S
C176 C178 1.500 . S
C177 C172 1.390 . S
C177 C176 1.361 . S
C177 H195 0.931 . S
C178 C176 1.500 . S
C178 C179 1.371 . S
C178 C180 1.365 . S
C179 C178 1.371 . S
C179 C189 1.386 . S
C179 H197 0.931 . S
C180 C178 1.365 . S
C180 C181 1.409 . S
C180 H198 0.929 . S
C181 C180 1.409 . S
C181 C182 1.380 . S
C181 H199 0.930 . S
C182 C181 1.380 . S
C182 C189 1.357 . S
C183 C174 1.511 . S
C183 C184 1.341 . S
C183 C185 1.371 . S
C184 C183 1.341 . S
C184 C188 1.394 . S
C184 H200 0.930 . S
C185 C183 1.371 . S
C185 C186 1.392 . S
C185 H201 0.931 . S
C186 C185 1.392 . S
C186 C187 1.331 . S
C186 H204 0.932 . S
C187 C186 1.331 . S
C187 C188 1.336 . S
C188 C184 1.394 . S
C188 C187 1.336 . S
C188 H203 0.929 . S
C189 C179 1.386 . S
C189 C182 1.357 . S
C189 H202 0.928 . S
H190 C166 0.931 . S
H191 C168 0.930 . S
H192 C170 0.929 . S
H193 C171 0.931 . S
H194 C173 0.930 . S
H195 C177 0.931 . S
H196 C175 0.931 . S
H197 C179 0.931 . S
H198 C180 0.929 . S
H199 C181 0.930 . S
H200 C184 0.930 . S
H201 C185 0.931 . S
H202 C189 0.928 . S
H203 C188 0.929 . S
H204 C186 0.932 . S
C205 C206 1.386 . S
C205 C207 1.397 . S
C205 H229 0.931 . S
C206 C205 1.386 . S
C206 C210 1.397 . S
C207 C205 1.397 . S
C207 C208 1.384 . S
C207 H230 0.930 . S
C208 C207 1.384 . S
C208 C209 1.377 . S
C208 C211 1.481 . S
C209 C208 1.377 . S
C209 C210 1.389 . S
C209 H231 0.929 . S
C210 C206 1.397 . S
C210 C209 1.389 . S
C210 H232 0.931 . S
C211 C208 1.481 . S
C211 C212 1.387 . S
C211 C216 1.390 . S
C212 C211 1.387 . S
C212 C213 1.401 . S
C212 H233 0.930 . S
C213 C212 1.401 . S
C213 C214 1.376 . S
C213 C222 1.511 . S
C214 C213 1.376 . S
C214 C215 1.392 . S
C214 H235 0.931 . S
C215 C214 1.392 . S
C215 C216 1.361 . S
C215 C217 1.500 . S
C216 C211 1.390 . S
C216 C215 1.361 . S
C216 H234 0.931 . S
C217 C215 1.500 . S
C217 C218 1.371 . S
C217 C219 1.365 . S
C218 C217 1.371 . S
C218 C228 1.386 . S
C218 H236 0.931 . S
C219 C217 1.365 . S
C219 C220 1.409 . S
C219 H237 0.929 . S
C220 C219 1.409 . S
C220 C221 1.380 . S
C220 H238 0.930 . S
C221 C220 1.380 . S
C221 C228 1.357 . S
C222 C213 1.511 . S
C222 C223 1.341 . S
C222 C224 1.371 . S
C223 C222 1.341 . S
C223 C227 1.394 . S
C223 H239 0.930 . S
C224 C222 1.371 . S
C224 C225 1.392 . S
C224 H240 0.931 . S
C225 C224 1.392 . S
C225 C226 1.331 . S
C225 H243 0.932 . S
C226 C225 1.331 . S
C226 C227 1.336 . S
C227 C223 1.394 . S
C227 C226 1.336 . S
C227 H242 0.929 . S
C228 C218 1.386 . S
C228 C221 1.357 . S
C228 H241 0.928 . S
H229 C205 0.931 . S
H230 C207 0.930 . S
H231 C209 0.929 . S
H232 C210 0.931 . S
H233 C212 0.930 . S
H234 C216 0.931 . S
H235 C214 0.931 . S
H236 C218 0.931 . S
H237 C219 0.929 . S
H238 C220 0.930 . S
H239 C223 0.930 . S
H240 C224 0.931 . S
H241 C228 0.928 . S
H242 C227 0.929 . S
H243 C225 0.932 . S
C244 C245 1.386 . S
C244 C246 1.397 . S
C244 H268 0.931 . S
C245 C244 1.386 . S
C245 C249 1.397 . S
C246 C244 1.397 . S
C246 C247 1.384 . S
C246 H269 0.930 . S
C247 C246 1.384 . S
C247 C248 1.377 . S
C247 C250 1.481 . S
C248 C247 1.377 . S
C248 C249 1.389 . S
C248 H270 0.929 . S
C249 C245 1.397 . S
C249 C248 1.389 . S
C249 H271 0.931 . S
C250 C247 1.481 . S
C250 C251 1.387 . S
C250 C255 1.390 . S
C251 C250 1.387 . S
C251 C252 1.401 . S
C251 H272 0.930 . S
C252 C251 1.401 . S
C252 C253 1.376 . S
C252 C261 1.511 . S
C253 C252 1.376 . S
C253 C254 1.392 . S
C253 H274 0.931 . S
C254 C253 1.392 . S
C254 C255 1.361 . S
C254 C256 1.500 . S
C255 C250 1.390 . S
C255 C254 1.361 . S
C255 H273 0.931 . S
C256 C254 1.500 . S
C256 C257 1.371 . S
C256 C258 1.365 . S
C257 C256 1.371 . S
C257 C267 1.386 . S
C257 H275 0.931 . S
C258 C256 1.365 . S
C258 C259 1.409 . S
C258 H276 0.929 . S
C259 C258 1.409 . S
C259 C260 1.380 . S
C259 H277 0.930 . S
C260 C259 1.380 . S
C260 C267 1.357 . S
C261 C252 1.511 . S
C261 C262 1.341 . S
C261 C263 1.371 . S
C262 C261 1.341 . S
C262 C266 1.394 . S
C262 H278 0.930 . S
C263 C261 1.371 . S
C263 C264 1.392 . S
C263 H279 0.931 . S
C264 C263 1.392 . S
C264 C265 1.331 . S
C264 H282 0.932 . S
C265 C264 1.331 . S
C265 C266 1.336 . S
C266 C262 1.394 . S
C266 C265 1.336 . S
C266 H281 0.929 . S
C267 C257 1.386 . S
C267 C260 1.357 . S
C267 H280 0.928 . S
H268 C244 0.931 . S
H269 C246 0.930 . S
H270 C248 0.929 . S
H271 C249 0.931 . S
H272 C251 0.930 . S
H273 C255 0.931 . S
H274 C253 0.931 . S
H275 C257 0.931 . S
H276 C258 0.929 . S
H277 C259 0.930 . S
H278 C262 0.930 . S
H279 C263 0.931 . S
H280 C267 0.928 . S
H281 C266 0.929 . S
H282 C264 0.932 . S
C283 C284 1.386 . S
C283 C285 1.397 . S
C283 H307 0.931 . S
C284 C283 1.386 . S
C284 C288 1.397 . S
C285 C283 1.397 . S
C285 C286 1.384 . S
C285 H308 0.930 . S
C286 C285 1.384 . S
C286 C287 1.377 . S
C286 C289 1.481 . S
C287 C286 1.377 . S
C287 C288 1.389 . S
C287 H309 0.929 . S
C288 C284 1.397 . S
C288 C287 1.389 . S
C288 H310 0.931 . S
C289 C286 1.481 . S
C289 C290 1.387 . S
C289 C294 1.390 . S
C290 C289 1.387 . S
C290 C291 1.401 . S
C290 H311 0.930 . S
C291 C290 1.401 . S
C291 C292 1.376 . S
C291 C300 1.511 . S
C292 C291 1.376 . S
C292 C293 1.392 . S
C292 H313 0.931 . S
C293 C292 1.392 . S
C293 C294 1.361 . S
C293 C295 1.500 . S
C294 C289 1.390 . S
C294 C293 1.361 . S
C294 H312 0.931 . S
C295 C293 1.500 . S
C295 C296 1.371 . S
C295 C297 1.365 . S
C296 C295 1.371 . S
C296 C306 1.386 . S
C296 H314 0.931 . S
C297 C295 1.365 . S
C297 C298 1.409 . S
C297 H315 0.929 . S
C298 C297 1.409 . S
C298 C299 1.380 . S
C298 H316 0.930 . S
C299 C298 1.380 . S
C299 C306 1.357 . S
C300 C291 1.511 . S
C300 C301 1.341 . S
C300 C302 1.371 . S
C301 C300 1.341 . S
C301 C305 1.394 . S
C301 H317 0.930 . S
C302 C300 1.371 . S
C302 C303 1.392 . S
C302 H318 0.931 . S
C303 C302 1.392 . S
C303 C304 1.331 . S
C303 H321 0.932 . S
C304 C303 1.331 . S
C304 C305 1.336 . S
C305 C301 1.394 . S
C305 C304 1.336 . S
C305 H320 0.929 . S
C306 C296 1.386 . S
C306 C299 1.357 . S
C306 H319 0.928 . S
H307 C283 0.931 . S
H308 C285 0.930 . S
H309 C287 0.929 . S
H310 C288 0.931 . S
H311 C290 0.930 . S
H312 C294 0.931 . S
H313 C292 0.931 . S
H314 C296 0.931 . S
H315 C297 0.929 . S
H316 C298 0.930 . S
H317 C301 0.930 . S
H318 C302 0.931 . S
H319 C306 0.928 . S
H320 C305 0.929 . S
H321 C303 0.932 . S
C322 C323 1.386 . S
C322 C324 1.397 . S
C322 H346 0.931 . S
C323 C322 1.386 . S
C323 C327 1.397 . S
C324 C322 1.397 . S
C324 C325 1.384 . S
C324 H347 0.930 . S
C325 C324 1.384 . S
C325 C326 1.377 . S
C325 C328 1.481 . S
C326 C325 1.377 . S
C326 C327 1.389 . S
C326 H348 0.929 . S
C327 C323 1.397 . S
C327 C326 1.389 . S
C327 H349 0.931 . S
C328 C325 1.481 . S
C328 C329 1.387 . S
C328 C333 1.390 . S
C329 C328 1.387 . S
C329 C330 1.401 . S
C329 H350 0.930 . S
C330 C329 1.401 . S
C330 C331 1.376 . S
C330 C339 1.511 . S
C331 C330 1.376 . S
C331 C332 1.392 . S
C331 H352 0.931 . S
C332 C331 1.392 . S
C332 C333 1.361 . S
C332 C334 1.500 . S
C333 C328 1.390 . S
C333 C332 1.361 . S
C333 H351 0.931 . S
C334 C332 1.500 . S
C334 C335 1.371 . S
C334 C336 1.365 . S
C335 C334 1.371 . S
C335 C345 1.386 . S
C335 H353 0.931 . S
C336 C334 1.365 . S
C336 C337 1.409 . S
C336 H354 0.929 . S
C337 C336 1.409 . S
C337 C338 1.380 . S
C337 H355 0.930 . S
C338 C337 1.380 . S
C338 C345 1.357 . S
C339 C330 1.511 . S
C339 C340 1.341 . S
C339 C341 1.371 . S
C340 C339 1.341 . S
C340 C344 1.394 . S
C340 H356 0.930 . S
C341 C339 1.371 . S
C341 C342 1.392 . S
C341 H357 0.931 . S
C342 C341 1.392 . S
C342 C343 1.331 . S
C342 H360 0.932 . S
C343 C342 1.331 . S
C343 C344 1.336 . S
C344 C340 1.394 . S
C344 C343 1.336 . S
C344 H359 0.929 . S
C345 C335 1.386 . S
C345 C338 1.357 . S
C345 H358 0.928 . S
H346 C322 0.931 . S
H347 C324 0.930 . S
H348 C326 0.929 . S
H349 C327 0.931 . S
H350 C329 0.930 . S
H351 C333 0.931 . S
H352 C331 0.931 . S
H353 C335 0.931 . S
H354 C336 0.929 . S
H355 C337 0.930 . S
H356 C340 0.930 . S
H357 C341 0.931 . S
H358 C345 0.928 . S
H359 C344 0.929 . S
H360 C342 0.932 . S
C361 C362 1.386 . S
C361 C363 1.397 1_455 S
C361 H385 0.931 . S
C362 C361 1.386 . S
C362 C366 1.397 . S
C363 C361 1.397 1_655 S
C363 C364 1.384 . S
C363 H386 0.930 . S
C364 C363 1.384 . S
C364 C365 1.377 . S
C364 C367 1.481 . S
C365 C364 1.377 . S
C365 C366 1.389 1_655 S
C365 H387 0.929 . S
C366 C362 1.397 . S
C366 C365 1.389 1_455 S
C366 H388 0.931 . S
C367 C364 1.481 . S
C367 C368 1.387 . S
C367 C372 1.390 . S
C368 C367 1.387 . S
C368 C369 1.401 . S
C368 H389 0.930 . S
C369 C368 1.401 . S
C369 C370 1.376 . S
C369 C378 1.511 . S
C370 C369 1.376 . S
C370 C371 1.392 . S
C370 H391 0.931 . S
C371 C370 1.392 . S
C371 C372 1.361 . S
C371 C373 1.500 . S
C372 C367 1.390 . S
C372 C371 1.361 . S
C372 H390 0.931 . S
C373 C371 1.500 . S
C373 C374 1.371 . S
C373 C375 1.365 . S
C374 C373 1.371 . S
C374 C384 1.386 . S
C374 H392 0.931 . S
C375 C373 1.365 . S
C375 C376 1.409 . S
C375 H393 0.929 . S
C376 C375 1.409 . S
C376 C377 1.380 . S
C376 H394 0.930 . S
C377 C376 1.380 . S
C377 C384 1.357 . S
C378 C369 1.511 . S
C378 C379 1.341 . S
C378 C380 1.371 . S
C379 C378 1.341 . S
C379 C383 1.394 . S
C379 H395 0.930 . S
C380 C378 1.371 . S
C380 C381 1.392 . S
C380 H396 0.931 . S
C381 C380 1.392 . S
C381 C382 1.331 . S
C381 H399 0.932 . S
C382 C381 1.331 . S
C382 C383 1.336 . S
C383 C379 1.394 . S
C383 C382 1.336 . S
C383 H398 0.929 . S
C384 C374 1.386 . S
C384 C377 1.357 . S
C384 H397 0.928 . S
H385 C361 0.931 . S
H386 C363 0.930 . S
H387 C365 0.929 . S
H388 C366 0.931 . S
H389 C368 0.930 . S
H390 C372 0.931 . S
H391 C370 0.931 . S
H392 C374 0.931 . S
H393 C375 0.929 . S
H394 C376 0.930 . S
H395 C379 0.930 . S
H396 C380 0.931 . S
H397 C384 0.928 . S
H398 C383 0.929 . S
H399 C381 0.932 . S
C400 C401 1.349 . S
C400 C402 1.327 . S
C400 H425 0.950 . S
C401 C400 1.349 . S
C401 C417 1.349 . S
C402 C400 1.327 . S
C402 C421 1.429 . S
C402 H426 0.950 . S
C403 C420 1.574 . S
C403 C422 1.368 . S
C403 H427 0.949 . S
H404 C408 0.949 . S
C405 C406 1.349 . S
C405 C407 1.327 1_545 S
C405 H428 0.950 . S
C406 C405 1.349 . S
C406 C418 1.349 1_545 S
C407 C405 1.327 1_565 S
C407 C423 1.429 . S
C407 H429 0.962 . S
C408 H404 0.949 . S
C408 C416 1.574 . S
C408 C424 1.368 . S
H409 C417 0.950 . S
H410 C415 0.950 . S
H411 C416 0.949 . S
H412 C418 0.950 . S
H413 C419 0.950 . S
H414 C420 0.949 . S
C415 H410 0.950 . S
C415 C417 1.327 . S
C415 C421 1.429 . S
C416 C408 1.574 . S
C416 H411 0.949 . S
C416 C422 1.368 . S
C417 C401 1.349 . S
C417 H409 0.950 . S
C417 C415 1.327 . S
C418 C406 1.349 1_565 S
C418 H412 0.950 . S
C418 C419 1.327 . S
C419 H413 0.950 . S
C419 C418 1.327 . S
C419 C423 1.429 . S
C420 C403 1.574 . S
C420 H414 0.949 . S
C420 C424 1.368 . S
C421 C402 1.429 . S
C421 C415 1.429 . S
C421 C422 1.523 . S
C422 C403 1.368 . S
C422 C416 1.368 . S
C422 C421 1.523 . S
C423 C407 1.429 . S
C423 C419 1.429 . S
C423 C424 1.523 . S
C424 C408 1.368 . S
C424 C420 1.368 . S
C424 C423 1.523 . S
H425 C400 0.950 . S
H426 C402 0.950 . S
H427 C403 0.949 . S
H428 C405 0.950 . S
H429 C407 0.962 . S
C430 C431 1.349 . S
C430 C432 1.327 . S
C430 H455 0.950 . S
C431 C430 1.349 . S
C431 C447 1.349 . S
C432 C430 1.327 . S
C432 C451 1.429 . S
C432 H456 0.950 . S
C433 C450 1.574 . S
C433 C452 1.368 . S
C433 H457 0.949 . S
H434 C438 0.949 . S
C435 C436 1.349 . S
C435 C437 1.327 . S
C435 H458 0.950 . S
C436 C435 1.349 . S
C436 C448 1.349 . S
C437 C435 1.327 . S
C437 C453 1.429 . S
C437 H459 0.950 . S
C438 H434 0.949 . S
C438 C446 1.574 . S
C438 C454 1.368 . S
H439 C447 0.950 . S
H440 C445 0.950 . S
H441 C446 0.949 . S
H442 C448 0.950 . S
H443 C449 0.950 . S
H444 C450 0.949 . S
C445 H440 0.950 . S
C445 C447 1.327 . S
C445 C451 1.429 . S
C446 C438 1.574 . S
C446 H441 0.949 . S
C446 C452 1.368 . S
C447 C431 1.349 . S
C447 H439 0.950 . S
C447 C445 1.327 . S
C448 C436 1.349 . S
C448 H442 0.950 . S
C448 C449 1.327 . S
C449 H443 0.950 . S
C449 C448 1.327 . S
C449 C453 1.429 . S
C450 C433 1.574 . S
C450 H444 0.949 . S
C450 C454 1.368 . S
C451 C432 1.429 . S
C451 C445 1.429 . S
C451 C452 1.523 . S
C452 C433 1.368 . S
C452 C446 1.368 . S
C452 C451 1.523 . S
C453 C437 1.429 . S
C453 C449 1.429 . S
C453 C454 1.523 . S
C454 C438 1.368 . S
C454 C450 1.368 . S
C454 C453 1.523 . S
H455 C430 0.950 . S
H456 C432 0.950 . S
H457 C433 0.949 . S
H458 C435 0.950 . S
H459 C437 0.950 . S
C460 C461 1.349 . S
C460 C462 1.327 . S
C460 H485 0.950 . S
C461 C460 1.349 . S
C461 C477 1.349 . S
C462 C460 1.327 . S
C462 C481 1.429 . S
C462 H486 0.950 . S
C463 C480 1.574 . S
C463 C482 1.368 . S
C463 H487 0.949 . S
H464 C468 0.949 . S
C465 C466 1.349 . S
C465 C467 1.327 . S
C465 H488 0.950 . S
C466 C465 1.349 . S
C466 C478 1.349 . S
C467 C465 1.327 . S
C467 C483 1.429 . S
C467 H489 0.950 . S
C468 H464 0.949 . S
C468 C476 1.574 . S
C468 C484 1.368 . S
H469 C477 0.950 . S
H470 C475 0.950 . S
H471 C476 0.949 . S
H472 C478 0.950 . S
H473 C479 0.950 1_545 S
H474 C480 0.949 1_565 S
C475 H470 0.950 . S
C475 C477 1.327 . S
C475 C481 1.429 . S
C476 C468 1.574 . S
C476 H471 0.949 . S
C476 C482 1.368 . S
C477 C461 1.349 . S
C477 H469 0.950 . S
C477 C475 1.327 . S
C478 C466 1.349 . S
C478 H472 0.950 . S
C478 C479 1.327 . S
C479 H473 0.950 1_565 S
C479 C478 1.327 . S
C479 C483 1.429 . S
C480 C463 1.574 . S
C480 H474 0.949 1_545 S
C480 C484 1.368 . S
C481 C462 1.429 . S
C481 C475 1.429 . S
C481 C482 1.523 . S
C482 C463 1.368 . S
C482 C476 1.368 . S
C482 C481 1.523 . S
C483 C467 1.429 . S
C483 C479 1.429 . S
C483 C484 1.523 1_565 S
C484 C468 1.368 . S
C484 C480 1.368 . S
C484 C483 1.523 1_545 S
H485 C460 0.950 . S
H486 C462 0.950 . S
H487 C463 0.949 . S
H488 C465 0.950 . S
H489 C467 0.950 . S
C490 C491 1.349 . S
C490 C492 1.327 . S
C490 H515 0.950 . S
C491 C490 1.349 . S
C491 C507 1.349 . S
C492 C490 1.327 . S
C492 C511 1.429 . S
C492 H516 0.950 . S
C493 C510 1.574 . S
C493 C512 1.368 . S
C493 H517 0.949 . S
H494 C498 0.949 . S
C495 C496 1.349 . S
C495 C497 1.327 . S
C495 H518 0.950 . S
C496 C495 1.349 . S
C496 C508 1.349 . S
C497 C495 1.327 . S
C497 C513 1.429 . S
C497 H519 0.950 . S
C498 H494 0.949 . S
C498 C506 1.574 . S
C498 C514 1.368 . S
H499 C507 0.950 . S
H500 C505 0.950 . S
H501 C506 0.949 . S
H502 C508 0.950 . S
H503 C509 0.950 . S
H504 C510 0.949 . S
C505 H500 0.950 . S
C505 C507 1.327 . S
C505 C511 1.429 . S
C506 C498 1.574 . S
C506 H501 0.949 . S
C506 C512 1.368 . S
C507 C491 1.349 . S
C507 H499 0.950 . S
C507 C505 1.327 . S
C508 C496 1.349 . S
C508 H502 0.950 . S
C508 C509 1.327 . S
C509 H503 0.950 . S
C509 C508 1.327 . S
C509 C513 1.429 . S
C510 C493 1.574 . S
C510 H504 0.949 . S
C510 C514 1.368 . S
C511 C492 1.429 . S
C511 C505 1.429 . S
C511 C512 1.523 . S
C512 C493 1.368 . S
C512 C506 1.368 . S
C512 C511 1.523 . S
C513 C497 1.429 . S
C513 C509 1.429 . S
C513 C514 1.523 . S
C514 C498 1.368 . S
C514 C510 1.368 . S
C514 C513 1.523 . S
H515 C490 0.950 . S
H516 C492 0.950 . S
H517 C493 0.949 . S
H518 C495 0.950 . S
H519 C497 0.950 . S
C520 C521 1.349 . S
C520 C522 1.327 . S
C520 H545 0.950 . S
C521 C520 1.349 . S
C521 C537 1.349 . S
C522 C520 1.327 . S
C522 C541 1.429 . S
C522 H546 0.950 . S
C523 C540 1.574 . S
C523 C542 1.368 . S
C523 H547 0.949 . S
H524 C528 0.949 . S
C525 C526 1.349 . S
C525 C527 1.327 . S
C525 H548 0.950 . S
C526 C525 1.349 . S
C526 C538 1.349 . S
C527 C525 1.327 . S
C527 C543 1.429 . S
C527 H549 0.950 . S
C528 H524 0.949 . S
C528 C536 1.574 . S
C528 C544 1.368 . S
H529 C537 0.950 . S
H530 C535 0.950 . S
H531 C536 0.949 . S
H532 C538 0.950 . S
H533 C539 0.950 . S
H534 C540 0.949 . S
C535 H530 0.950 . S
C535 C537 1.327 . S
C535 C541 1.429 . S
C536 C528 1.574 . S
C536 H531 0.949 . S
C536 C542 1.368 . S
C537 C521 1.349 . S
C537 H529 0.950 . S
C537 C535 1.327 . S
C538 C526 1.349 . S
C538 H532 0.950 . S
C538 C539 1.327 . S
C539 H533 0.950 . S
C539 C538 1.327 . S
C539 C543 1.429 . S
C540 C523 1.574 . S
C540 H534 0.949 . S
C540 C544 1.368 . S
C541 C522 1.429 . S
C541 C535 1.429 . S
C541 C542 1.523 . S
C542 C523 1.368 . S
C542 C536 1.368 . S
C542 C541 1.523 . S
C543 C527 1.429 . S
C543 C539 1.429 . S
C543 C544 1.523 . S
C544 C528 1.368 . S
C544 C540 1.368 . S
C544 C543 1.523 . S
H545 C520 0.950 . S
H546 C522 0.950 . S
H547 C523 0.949 . S
H548 C525 0.950 . S
H549 C527 0.950 . S
C550 C551 1.349 . S
C550 C552 1.327 . S
C550 H575 0.950 1_556 S
C551 C550 1.349 . S
C551 C567 1.349 . S
C552 C550 1.327 . S
C552 C571 1.429 . S
C552 H576 0.916 1_556 S
C553 C570 1.574 . S
C553 C572 1.368 . S
C553 H577 0.949 1_455 S
H554 C558 0.949 . S
C555 C556 1.349 . S
C555 C557 1.327 . S
C555 H578 0.950 . S
C556 C555 1.349 . S
C556 C568 1.349 . S
C557 C555 1.327 . S
C557 C573 1.429 . S
C557 H579 0.950 . S
C558 H554 0.949 . S
C558 C566 1.574 . S
C558 C574 1.368 . S
H559 C567 0.950 . S
H560 C565 0.950 . S
H561 C566 0.949 . S
H562 C568 0.950 . S
H563 C569 0.950 . S
H564 C570 0.949 . S
C565 H560 0.950 . S
C565 C567 1.327 . S
C565 C571 1.429 . S
C566 C558 1.574 . S
C566 H561 0.949 . S
C566 C572 1.368 . S
C567 C551 1.349 . S
C567 H559 0.950 . S
C567 C565 1.327 . S
C568 C556 1.349 . S
C568 H562 0.950 . S
C568 C569 1.327 . S
C569 H563 0.950 . S
C569 C568 1.327 . S
C569 C573 1.429 . S
C570 C553 1.574 . S
C570 H564 0.949 . S
C570 C574 1.368 . S
C571 C552 1.429 . S
C571 C565 1.429 . S
C571 C572 1.523 1_655 S
C572 C553 1.368 . S
C572 C566 1.368 . S
C572 C571 1.523 1_455 S
C573 C557 1.429 . S
C573 C569 1.429 . S
C573 C574 1.523 . S
C574 C558 1.368 . S
C574 C570 1.368 . S
C574 C573 1.523 . S
H575 C550 0.950 1_554 S
H576 C552 0.916 1_554 S
H577 C553 0.949 1_655 S
H578 C555 0.950 . S
H579 C557 0.950 . S
C580 C581 1.349 . S
C580 C582 1.327 . S
C580 H605 0.950 . S
C581 C580 1.349 . S
C581 C597 1.349 . S
C582 C580 1.327 . S
C582 C601 1.429 . S
C582 H606 0.950 . S
C583 C600 1.574 . S
C583 C602 1.368 . S
C583 H607 0.949 . S
H584 C588 0.949 . S
C585 C586 1.349 . S
C585 C587 1.327 . S
C585 H608 0.950 . S
C586 C585 1.349 . S
C586 C598 1.349 . S
C587 C585 1.327 . S
C587 C603 1.429 . S
C587 H609 0.950 . S
C588 H584 0.949 . S
C588 C596 1.574 . S
C588 C604 1.368 . S
H589 C597 0.950 . S
H590 C595 0.950 . S
H591 C596 0.949 . S
H592 C598 0.950 . S
H593 C599 0.950 . S
H594 C600 0.949 . S
C595 H590 0.950 . S
C595 C597 1.327 . S
C595 C601 1.429 . S
C596 C588 1.574 . S
C596 H591 0.949 . S
C596 C602 1.368 . S
C597 C581 1.349 . S
C597 H589 0.950 . S
C597 C595 1.327 . S
C598 C586 1.349 . S
C598 H592 0.950 . S
C598 C599 1.327 . S
C599 H593 0.950 . S
C599 C598 1.327 . S
C599 C603 1.429 . S
C600 C583 1.574 . S
C600 H594 0.949 . S
C600 C604 1.368 . S
C601 C582 1.429 . S
C601 C595 1.429 . S
C601 C602 1.523 . S
C602 C583 1.368 . S
C602 C596 1.368 . S
C602 C601 1.523 . S
C603 C587 1.429 . S
C603 C599 1.429 . S
C603 C604 1.523 . S
C604 C588 1.368 . S
C604 C600 1.368 . S
C604 C603 1.523 . S
H605 C580 0.950 . S
H606 C582 0.950 . S
H607 C583 0.949 . S
H608 C585 0.950 . S
H609 C587 0.950 . S
C610 C611 1.349 . S
C610 C612 1.327 . S
C610 H635 0.950 . S
C611 C610 1.349 . S
C611 C627 1.349 . S
C612 C610 1.327 . S
C612 C631 1.429 . S
C612 H636 0.950 . S
C613 C630 1.574 . S
C613 C632 1.368 . S
C613 H637 0.949 . S
H614 C618 0.949 . S
C615 C616 1.349 . S
C615 C617 1.327 . S
C615 H638 0.950 . S
C616 C615 1.349 . S
C616 C628 1.349 . S
C617 C615 1.327 . S
C617 C633 1.429 . S
C617 H639 0.950 . S
C618 H614 0.949 . S
C618 C626 1.574 . S
C618 C634 1.368 . S
H619 C627 0.950 . S
H620 C625 0.950 . S
H621 C626 0.949 . S
H622 C628 0.950 . S
H623 C629 0.950 . S
H624 C630 0.949 . S
C625 H620 0.950 . S
C625 C627 1.327 . S
C625 C631 1.429 . S
C626 C618 1.574 . S
C626 H621 0.949 . S
C626 C632 1.368 . S
C627 C611 1.349 . S
C627 H619 0.950 . S
C627 C625 1.327 . S
C628 C616 1.349 . S
C628 H622 0.950 . S
C628 C629 1.327 . S
C629 H623 0.950 . S
C629 C628 1.327 . S
C629 C633 1.429 . S
C630 C613 1.574 . S
C630 H624 0.949 . S
C630 C634 1.368 . S
C631 C612 1.429 . S
C631 C625 1.429 . S
C631 C632 1.523 . S
C632 C613 1.368 . S
C632 C626 1.368 . S
C632 C631 1.523 . S
C633 C617 1.429 . S
C633 C629 1.429 . S
C633 C634 1.523 . S
C634 C618 1.368 . S
C634 C630 1.368 . S
C634 C633 1.523 . S
H635 C610 0.950 . S
H636 C612 0.950 . S
H637 C613 0.949 . S
H638 C615 0.950 . S
H639 C617 0.950 . S
C640 C641 1.349 . S
C640 C642 1.327 . S
C640 H665 0.950 . S
C641 C640 1.349 . S
C641 C657 1.349 . S
C642 C640 1.327 . S
C642 C661 1.429 . S
C642 H666 0.950 . S
C643 C660 1.574 . S
C643 C662 1.368 . S
C643 H667 0.949 . S
H644 C648 0.949 . S
C645 C646 1.349 1_545 S
C645 C647 1.327 . S
C645 H668 0.950 . S
C646 C645 1.349 1_565 S
C646 C658 1.349 . S
C647 C645 1.327 . S
C647 C663 1.429 . S
C647 H669 0.950 . S
C648 H644 0.949 . S
C648 C656 1.574 . S
C648 C664 1.368 . S
H649 C657 0.950 . S
H650 C655 0.950 . S
H651 C656 0.949 . S
H652 C658 0.950 . S
H653 C659 0.950 . S
H654 C660 0.949 . S
C655 H650 0.950 . S
C655 C657 1.327 . S
C655 C661 1.429 . S
C656 C648 1.574 . S
C656 H651 0.949 . S
C656 C662 1.368 . S
C657 C641 1.349 . S
C657 H649 0.950 . S
C657 C655 1.327 . S
C658 C646 1.349 . S
C658 H652 0.950 . S
C658 C659 1.327 . S
C659 H653 0.950 . S
C659 C658 1.327 . S
C659 C663 1.429 1_565 S
C660 C643 1.574 . S
C660 H654 0.949 . S
C660 C664 1.368 . S
C661 C642 1.429 . S
C661 C655 1.429 . S
C661 C662 1.523 . S
C662 C643 1.368 . S
C662 C656 1.368 . S
C662 C661 1.523 . S
C663 C647 1.429 . S
C663 C659 1.429 1_545 S
C663 C664 1.523 . S
C664 C648 1.368 . S
C664 C660 1.368 . S
C664 C663 1.523 . S
H665 C640 0.950 . S
H666 C642 0.950 . S
H667 C643 0.949 . S
H668 C645 0.950 . S
H669 C647 0.950 . S
C670 C671 1.349 . S
C670 C672 1.327 . S
C670 H695 0.950 . S
C671 C670 1.349 . S
C671 C687 1.349 . S
C672 C670 1.327 . S
C672 C691 1.429 . S
C672 H696 0.950 . S
C673 C690 1.574 . S
C673 C692 1.368 . S
C673 H697 0.949 . S
H674 C678 0.949 . S
C675 C676 1.349 . S
C675 C677 1.327 . S
C675 H698 0.950 . S
C676 C675 1.349 . S
C676 C688 1.349 . S
C677 C675 1.327 . S
C677 C693 1.429 . S
C677 H699 0.950 . S
C678 H674 0.949 . S
C678 C686 1.574 . S
C678 C694 1.368 . S
H679 C687 0.950 . S
H680 C685 0.950 . S
H681 C686 0.949 . S
H682 C688 0.950 . S
H683 C689 0.950 . S
H684 C690 0.949 . S
C685 H680 0.950 . S
C685 C687 1.327 . S
C685 C691 1.429 . S
C686 C678 1.574 . S
C686 H681 0.949 . S
C686 C692 1.368 . S
C687 C671 1.349 . S
C687 H679 0.950 . S
C687 C685 1.327 . S
C688 C676 1.349 . S
C688 H682 0.950 . S
C688 C689 1.327 . S
C689 H683 0.950 . S
C689 C688 1.327 . S
C689 C693 1.429 . S
C690 C673 1.574 . S
C690 H684 0.949 . S
C690 C694 1.368 . S
C691 C672 1.429 . S
C691 C685 1.429 . S
C691 C692 1.523 . S
C692 C673 1.368 . S
C692 C686 1.368 . S
C692 C691 1.523 . S
C693 C677 1.429 . S
C693 C689 1.429 . S
C693 C694 1.523 . S
C694 C678 1.368 . S
C694 C690 1.368 . S
C694 C693 1.523 . S
H695 C670 0.950 . S
H696 C672 0.950 . S
H697 C673 0.949 . S
H698 C675 0.950 . S
H699 C677 0.950 . S
C700 C701 1.349 . S
C700 C702 1.327 1_554 S
C700 H725 0.950 . S
C701 C700 1.349 . S
C701 C717 1.349 . S
C702 C700 1.327 1_556 S
C702 C721 1.429 . S
C702 H726 0.950 . S
C703 C720 1.574 . S
C703 C722 1.368 . S
C703 H727 0.949 . S
H704 C708 0.949 1_545 S
C705 C706 1.349 . S
C705 C707 1.327 . S
C705 H728 0.950 . S
C706 C705 1.349 . S
C706 C718 1.349 . S
C707 C705 1.327 . S
C707 C723 1.429 . S
C707 H729 0.932 1_545 S
C708 H704 0.949 1_565 S
C708 C716 1.574 . S
C708 C724 1.368 . S
H709 C717 0.950 . S
H710 C715 0.950 . S
H711 C716 0.949 . S
H712 C718 0.950 . S
H713 C719 0.950 . S
H714 C720 0.949 . S
C715 H710 0.950 . S
C715 C717 1.327 1_556 S
C715 C721 1.429 . S
C716 C708 1.574 . S
C716 H711 0.949 . S
C716 C722 1.368 . S
C717 C701 1.349 . S
C717 H709 0.950 . S
C717 C715 1.327 1_554 S
C718 C706 1.349 . S
C718 H712 0.950 . S
C718 C719 1.327 . S
C719 H713 0.950 . S
C719 C718 1.327 . S
C719 C723 1.429 . S
C720 C703 1.574 . S
C720 H714 0.949 . S
C720 C724 1.368 . S
C721 C702 1.429 . S
C721 C715 1.429 . S
C721 C722 1.523 . S
C722 C703 1.368 . S
C722 C716 1.368 . S
C722 C721 1.523 . S
C723 C707 1.429 . S
C723 C719 1.429 . S
C723 C724 1.523 1_545 S
C724 C708 1.368 . S
C724 C720 1.368 . S
C724 C723 1.523 1_565 S
H725 C700 0.950 . S
H726 C702 0.950 . S
H727 C703 0.949 . S
H728 C705 0.950 . S
H729 C707 0.932 1_565 S
C730 C731 1.349 . S
C730 C732 1.327 . S
C730 H755 0.950 . S
C731 C730 1.349 . S
C731 C747 1.349 . S
C732 C730 1.327 . S
C732 C751 1.429 . S
C732 H756 0.950 . S
C733 C750 1.574 . S
C733 C752 1.368 . S
C733 H757 0.949 . S
H734 C738 0.949 . S
C735 C736 1.349 . S
C735 C737 1.327 . S
C735 H758 0.950 . S
C736 C735 1.349 . S
C736 C748 1.349 . S
C737 C735 1.327 . S
C737 C753 1.429 . S
C737 H759 0.950 . S
C738 H734 0.949 . S
C738 C746 1.574 . S
C738 C754 1.368 . S
H739 C747 0.950 . S
H740 C745 0.950 . S
H741 C746 0.949 . S
H742 C748 0.950 . S
H743 C749 0.950 . S
H744 C750 0.949 . S
C745 H740 0.950 . S
C745 C747 1.327 . S
C745 C751 1.429 . S
C746 C738 1.574 . S
C746 H741 0.949 . S
C746 C752 1.368 . S
C747 C731 1.349 . S
C747 H739 0.950 . S
C747 C745 1.327 . S
C748 C736 1.349 . S
C748 H742 0.950 . S
C748 C749 1.327 . S
C749 H743 0.950 . S
C749 C748 1.327 . S
C749 C753 1.429 . S
C750 C733 1.574 . S
C750 H744 0.949 . S
C750 C754 1.368 . S
C751 C732 1.429 . S
C751 C745 1.429 . S
C751 C752 1.523 . S
C752 C733 1.368 . S
C752 C746 1.368 . S
C752 C751 1.523 . S
C753 C737 1.429 . S
C753 C749 1.429 . S
C753 C754 1.523 . S
C754 C738 1.368 . S
C754 C750 1.368 . S
C754 C753 1.523 . S
H755 C730 0.950 . S
H756 C732 0.950 . S
H757 C733 0.949 . S
H758 C735 0.950 . S
H759 C737 0.950 . S
C760 C761 1.349 . S
C760 C762 1.327 . S
C760 H785 0.950 . S
C761 C760 1.349 . S
C761 C777 1.349 . S
C762 C760 1.327 . S
C762 C781 1.429 . S
C762 H786 0.950 . S
C763 C780 1.574 . S
C763 C782 1.368 . S
C763 H787 0.949 . S
H764 C768 0.949 . S
C765 C766 1.349 . S
C765 C767 1.327 . S
C765 H788 0.950 . S
C766 C765 1.349 . S
C766 C778 1.349 . S
C767 C765 1.327 . S
C767 C783 1.429 . S
C767 H789 0.950 . S
C768 H764 0.949 . S
C768 C776 1.574 . S
C768 C784 1.368 . S
H769 C777 0.950 . S
H770 C775 0.950 . S
H771 C776 0.949 . S
H772 C778 0.950 . S
H773 C779 0.950 . S
H774 C780 0.949 . S
C775 H770 0.950 . S
C775 C777 1.327 . S
C775 C781 1.429 . S
C776 C768 1.574 . S
C776 H771 0.949 . S
C776 C782 1.368 . S
C777 C761 1.349 . S
C777 H769 0.950 . S
C777 C775 1.327 . S
C778 C766 1.349 . S
C778 H772 0.950 . S
C778 C779 1.327 . S
C779 H773 0.950 . S
C779 C778 1.327 . S
C779 C783 1.429 . S
C780 C763 1.574 . S
C780 H774 0.949 . S
C780 C784 1.368 . S
C781 C762 1.429 . S
C781 C775 1.429 . S
C781 C782 1.523 . S
C782 C763 1.368 . S
C782 C776 1.368 . S
C782 C781 1.523 . S
C783 C767 1.429 . S
C783 C779 1.429 . S
C783 C784 1.523 . S
C784 C768 1.368 . S
C784 C780 1.368 . S
C784 C783 1.523 . S
H785 C760 0.950 . S
H786 C762 0.950 . S
H787 C763 0.949 . S
H788 C765 0.950 . S
H789 C767 0.950 . S
C790 C791 1.349 . S
C790 C792 1.327 . S
C790 H815 0.950 . S
C791 C790 1.349 . S
C791 C807 1.349 . S
C792 C790 1.327 . S
C792 C811 1.429 . S
C792 H816 0.950 . S
C793 C810 1.574 . S
C793 C812 1.368 . S
C793 H817 0.949 . S
H794 C798 0.949 . S
C795 C796 1.349 . S
C795 C797 1.327 . S
C795 H818 0.950 . S
C796 C795 1.349 . S
C796 C808 1.349 . S
C797 C795 1.327 . S
C797 C813 1.429 . S
C797 H819 0.950 . S
C798 H794 0.949 . S
C798 C806 1.574 . S
C798 C814 1.368 . S
H799 C807 0.950 . S
H800 C805 0.950 . S
H801 C806 0.949 1_455 S
H802 C808 0.950 . S
H803 C809 0.950 . S
H804 C810 0.949 . S
C805 H800 0.950 . S
C805 C807 1.327 . S
C805 C811 1.429 . S
C806 C798 1.574 . S
C806 H801 0.949 1_655 S
C806 C812 1.368 . S
C807 C791 1.349 . S
C807 H799 0.950 . S
C807 C805 1.327 . S
C808 C796 1.349 . S
C808 H802 0.950 . S
C808 C809 1.327 . S
C809 H803 0.950 . S
C809 C808 1.327 . S
C809 C813 1.429 . S
C810 C793 1.574 . S
C810 H804 0.949 . S
C810 C814 1.368 . S
C811 C792 1.429 . S
C811 C805 1.429 . S
C811 C812 1.523 1_455 S
C812 C793 1.368 . S
C812 C806 1.368 . S
C812 C811 1.523 1_655 S
C813 C797 1.429 . S
C813 C809 1.429 . S
C813 C814 1.523 . S
C814 C798 1.368 . S
C814 C810 1.368 . S
C814 C813 1.523 . S
H815 C790 0.950 . S
H816 C792 0.950 . S
H817 C793 0.949 . S
H818 C795 0.950 . S
H819 C797 0.950 . S
C820 C821 1.349 . S
C820 C822 1.327 . S
C820 H845 0.950 . S
C821 C820 1.349 . S
C821 C837 1.349 . S
C822 C820 1.327 . S
C822 C841 1.429 . S
C822 H846 0.950 . S
C823 C840 1.574 . S
C823 C842 1.368 . S
C823 H847 0.949 . S
H824 C828 0.949 . S
C825 C826 1.349 . S
C825 C827 1.327 . S
C825 H848 0.950 . S
C826 C825 1.349 . S
C826 C838 1.349 . S
C827 C825 1.327 . S
C827 C843 1.429 . S
C827 H849 0.950 . S
C828 H824 0.949 . S
C828 C836 1.574 . S
C828 C844 1.368 . S
H829 C837 0.950 . S
H830 C835 0.950 . S
H831 C836 0.949 . S
H832 C838 0.950 . S
H833 C839 0.950 . S
H834 C840 0.949 . S
C835 H830 0.950 . S
C835 C837 1.327 . S
C835 C841 1.429 . S
C836 C828 1.574 . S
C836 H831 0.949 . S
C836 C842 1.368 . S
C837 C821 1.349 . S
C837 H829 0.950 . S
C837 C835 1.327 . S
C838 C826 1.349 . S
C838 H832 0.950 . S
C838 C839 1.327 . S
C839 H833 0.950 . S
C839 C838 1.327 . S
C839 C843 1.429 . S
C840 C823 1.574 . S
C840 H834 0.949 . S
C840 C844 1.368 . S
C841 C822 1.429 . S
C841 C835 1.429 . S
C841 C842 1.523 . S
C842 C823 1.368 . S
C842 C836 1.368 . S
C842 C841 1.523 . S
C843 C827 1.429 . S
C843 C839 1.429 . S
C843 C844 1.523 . S
C844 C828 1.368 . S
C844 C840 1.368 . S
C844 C843 1.523 . S
H845 C820 0.950 . S
H846 C822 0.950 . S
H847 C823 0.949 . S
H848 C825 0.950 . S
H849 C827 0.950 . S
C850 C851 1.349 . S
C850 C852 1.327 . S
C850 H875 0.950 . S
C851 C850 1.349 . S
C851 C867 1.349 . S
C852 C850 1.327 . S
C852 C871 1.429 . S
C852 H876 0.950 . S
C853 C870 1.574 . S
C853 C872 1.368 . S
C853 H877 0.949 . S
H854 C858 0.949 . S
C855 C856 1.349 . S
C855 C857 1.327 . S
C855 H878 0.950 . S
C856 C855 1.349 . S
C856 C868 1.349 . S
C857 C855 1.327 . S
C857 C873 1.429 . S
C857 H879 0.950 . S
C858 H854 0.949 . S
C858 C866 1.574 . S
C858 C874 1.368 . S
H859 C867 0.950 . S
H860 C865 0.950 . S
H861 C866 0.949 . S
H862 C868 0.950 . S
H863 C869 0.950 . S
H864 C870 0.949 . S
C865 H860 0.950 . S
C865 C867 1.327 . S
C865 C871 1.429 . S
C866 C858 1.574 . S
C866 H861 0.949 . S
C866 C872 1.368 . S
C867 C851 1.349 . S
C867 H859 0.950 . S
C867 C865 1.327 . S
C868 C856 1.349 . S
C868 H862 0.950 . S
C868 C869 1.327 . S
C869 H863 0.950 . S
C869 C868 1.327 . S
C869 C873 1.429 . S
C870 C853 1.574 . S
C870 H864 0.949 . S
C870 C874 1.368 . S
C871 C852 1.429 . S
C871 C865 1.429 . S
C871 C872 1.523 . S
C872 C853 1.368 . S
C872 C866 1.368 . S
C872 C871 1.523 . S
C873 C857 1.429 . S
C873 C869 1.429 . S
C873 C874 1.523 . S
C874 C858 1.368 . S
C874 C870 1.368 . S
C874 C873 1.523 . S
H875 C850 0.950 . S
H876 C852 0.950 . S
H877 C853 0.949 . S
H878 C855 0.950 . S
H879 C857 0.950 . S
C880 C881 1.349 . S
C880 C882 1.327 . S
C880 H905 0.950 . S
C881 C880 1.349 . S
C881 C897 1.349 . S
C882 C880 1.327 . S
C882 C901 1.429 . S
C882 H906 0.950 . S
C883 C900 1.574 . S
C883 C902 1.368 . S
C883 H907 0.949 . S
H884 C888 0.949 . S
C885 C886 1.349 . S
C885 C887 1.327 . S
C885 H908 0.950 . S
C886 C885 1.349 . S
C886 C898 1.349 . S
C887 C885 1.327 . S
C887 C903 1.429 . S
C887 H909 0.950 . S
C888 H884 0.949 . S
C888 C896 1.574 . S
C888 C904 1.368 . S
H889 C897 0.950 . S
H890 C895 0.950 . S
H891 C896 0.949 . S
H892 C898 0.950 . S
H893 C899 0.950 . S
H894 C900 0.949 . S
C895 H890 0.950 . S
C895 C897 1.327 . S
C895 C901 1.429 . S
C896 C888 1.574 . S
C896 H891 0.949 . S
C896 C902 1.368 . S
C897 C881 1.349 . S
C897 H889 0.950 . S
C897 C895 1.327 . S
C898 C886 1.349 . S
C898 H892 0.950 . S
C898 C899 1.327 . S
C899 H893 0.950 . S
C899 C898 1.327 . S
C899 C903 1.429 . S
C900 C883 1.574 . S
C900 H894 0.949 . S
C900 C904 1.368 . S
C901 C882 1.429 . S
C901 C895 1.429 . S
C901 C902 1.523 . S
C902 C883 1.368 . S
C902 C896 1.368 . S
C902 C901 1.523 . S
C903 C887 1.429 . S
C903 C899 1.429 . S
C903 C904 1.523 . S
C904 C888 1.368 . S
C904 C900 1.368 . S
C904 C903 1.523 . S
H905 C880 0.950 . S
H906 C882 0.950 . S
H907 C883 0.949 . S
H908 C885 0.950 . S
H909 C887 0.950 . S
C910 C911 1.349 . S
C910 C912 1.327 . S
C910 H935 0.950 . S
C911 C910 1.349 . S
C911 C927 1.349 . S
C912 C910 1.327 . S
C912 C931 1.429 . S
C912 H936 0.950 . S
C913 C930 1.574 . S
C913 C932 1.368 . S
C913 H937 0.949 . S
H914 C918 0.949 . S
C915 C916 1.349 . S
C915 C917 1.327 . S
C915 H938 0.950 . S
C916 C915 1.349 . S
C916 C928 1.349 . S
C917 C915 1.327 . S
C917 C933 1.429 . S
C917 H939 0.950 . S
C918 H914 0.949 . S
C918 C926 1.574 . S
C918 C934 1.368 . S
H919 C927 0.950 . S
H920 C925 0.950 . S
H921 C926 0.949 . S
H922 C928 0.950 . S
H923 C929 0.950 . S
H924 C930 0.949 . S
C925 H920 0.950 . S
C925 C927 1.327 . S
C925 C931 1.429 . S
C926 C918 1.574 . S
C926 H921 0.949 . S
C926 C932 1.368 . S
C927 C911 1.349 . S
C927 H919 0.950 . S
C927 C925 1.327 . S
C928 C916 1.349 . S
C928 H922 0.950 . S
C928 C929 1.327 . S
C929 H923 0.950 . S
C929 C928 1.327 . S
C929 C933 1.429 . S
C930 C913 1.574 . S
C930 H924 0.949 . S
C930 C934 1.368 . S
C931 C912 1.429 . S
C931 C925 1.429 . S
C931 C932 1.523 . S
C932 C913 1.368 . S
C932 C926 1.368 . S
C932 C931 1.523 . S
C933 C917 1.429 . S
C933 C929 1.429 . S
C933 C934 1.523 . S
C934 C918 1.368 . S
C934 C930 1.368 . S
C934 C933 1.523 . S
H935 C910 0.950 . S
H936 C912 0.950 . S
H937 C913 0.949 . S
H938 C915 0.950 . S
H939 C917 0.950 . S
C940 C941 1.349 . S
C940 C942 1.327 . S
C940 H965 0.950 . S
C941 C940 1.349 . S
C941 C957 1.349 . S
C942 C940 1.327 . S
C942 C961 1.429 . S
C942 H966 0.950 . S
C943 C960 1.574 . S
C943 C962 1.368 . S
C943 H967 0.949 . S
H944 C948 0.949 . S
C945 C946 1.349 . S
C945 C947 1.327 . S
C945 H968 0.950 . S
C946 C945 1.349 . S
C946 C958 1.349 . S
C947 C945 1.327 . S
C947 C963 1.429 . S
C947 H969 0.950 . S
C948 H944 0.949 . S
C948 C956 1.574 . S
C948 C964 1.368 . S
H949 C957 0.950 . S
H950 C955 0.950 . S
H951 C956 0.949 . S
H952 C958 0.950 . S
H953 C959 0.950 . S
H954 C960 0.949 . S
C955 H950 0.950 . S
C955 C957 1.327 . S
C955 C961 1.429 . S
C956 C948 1.574 . S
C956 H951 0.949 . S
C956 C962 1.368 . S
C957 C941 1.349 . S
C957 H949 0.950 . S
C957 C955 1.327 . S
C958 C946 1.349 . S
C958 H952 0.950 . S
C958 C959 1.327 . S
C959 H953 0.950 . S
C959 C958 1.327 . S
C959 C963 1.429 . S
C960 C943 1.574 . S
C960 H954 0.949 . S
C960 C964 1.368 . S
C961 C942 1.429 . S
C961 C955 1.429 . S
C961 C962 1.523 . S
C962 C943 1.368 . S
C962 C956 1.368 . S
C962 C961 1.523 . S
C963 C947 1.429 . S
C963 C959 1.429 . S
C963 C964 1.523 . S
C964 C948 1.368 . S
C964 C960 1.368 . S
C964 C963 1.523 . S
H965 C940 0.950 . S
H966 C942 0.950 . S
H967 C943 0.949 . S
H968 C945 0.950 . S
H969 C947 0.950 . S
C970 C971 1.349 . S
C970 C972 1.327 . S
C970 H995 0.950 . S
C971 C970 1.349 . S
C971 C987 1.349 . S
C972 C970 1.327 . S
C972 C991 1.429 . S
C972 H996 0.950 . S
C973 C990 1.574 . S
C973 C992 1.368 . S
C973 H997 0.949 . S
H974 C978 0.949 . S
C975 C976 1.349 . S
C975 C977 1.327 . S
C975 H998 0.950 . S
C976 C975 1.349 . S
C976 C988 1.349 . S
C977 C975 1.327 . S
C977 C993 1.429 . S
C977 H999 0.950 . S
C978 H974 0.949 . S
C978 C986 1.574 . S
C978 C994 1.368 . S
H979 C987 0.950 . S
H980 C985 0.950 . S
H981 C986 0.949 . S
H982 C988 0.950 . S
H983 C989 0.950 . S
H984 C990 0.949 . S
C985 H980 0.950 . S
C985 C987 1.327 . S
C985 C991 1.429 . S
C986 C978 1.574 . S
C986 H981 0.949 . S
C986 C992 1.368 . S
C987 C971 1.349 . S
C987 H979 0.950 . S
C987 C985 1.327 . S
C988 C976 1.349 . S
C988 H982 0.950 . S
C988 C989 1.327 . S
C989 H983 0.950 . S
C989 C988 1.327 . S
C989 C993 1.429 . S
C990 C973 1.574 . S
C990 H984 0.949 . S
C990 C994 1.368 . S
C991 C972 1.429 . S
C991 C985 1.429 . S
C991 C992 1.523 . S
C992 C973 1.368 . S
C992 C986 1.368 . S
C992 C991 1.523 . S
C993 C977 1.429 . S
C993 C989 1.429 . S
C993 C994 1.523 . S
C994 C978 1.368 . S
C994 C990 1.368 . S
C994 C993 1.523 . S
H995 C970 0.950 . S
H996 C972 0.950 . S
H997 C973 0.949 . S
H998 C975 0.950 . S
H999 C977 0.950 . S
C1000 C1001 1.349 . S
C1000 C1002 1.327 . S
C1000 H1025 0.950 . S
C1001 C1000 1.349 . S
C1001 C1017 1.349 . S
C1002 C1000 1.327 . S
C1002 C1021 1.429 . S
C1002 H1026 0.950 . S
C1003 C1020 1.574 . S
C1003 C1022 1.368 . S
C1003 H1027 0.949 . S
H1004 C1008 0.949 . S
C1005 C1006 1.349 . S
C1005 C1007 1.327 . S
C1005 H1028 0.950 . S
C1006 C1005 1.349 . S
C1006 C1018 1.349 . S
C1007 C1005 1.327 . S
C1007 C1023 1.429 . S
C1007 H1029 0.950 . S
C1008 H1004 0.949 . S
C1008 C1016 1.574 . S
C1008 C1024 1.368 . S
H1009 C1017 0.950 . S
H1010 C1015 0.950 . S
H1011 C1016 0.949 . S
H1012 C1018 0.950 . S
H1013 C1019 0.950 . S
H1014 C1020 0.949 . S
C1015 H1010 0.950 . S
C1015 C1017 1.327 . S
C1015 C1021 1.429 . S
C1016 C1008 1.574 . S
C1016 H1011 0.949 . S
C1016 C1022 1.368 . S
C1017 C1001 1.349 . S
C1017 H1009 0.950 . S
C1017 C1015 1.327 . S
C1018 C1006 1.349 . S
C1018 H1012 0.950 . S
C1018 C1019 1.327 . S
C1019 H1013 0.950 . S
C1019 C1018 1.327 . S
C1019 C1023 1.429 . S
C1020 C1003 1.574 . S
C1020 H1014 0.949 . S
C1020 C1024 1.368 . S
C1021 C1002 1.429 . S
C1021 C1015 1.429 . S
C1021 C1022 1.523 . S
C1022 C1003 1.368 . S
C1022 C1016 1.368 . S
C1022 C1021 1.523 . S
C1023 C1007 1.429 . S
C1023 C1019 1.429 . S
C1023 C1024 1.523 . S
C1024 C1008 1.368 . S
C1024 C1020 1.368 . S
C1024 C1023 1.523 . S
H1025 C1000 0.950 . S
H1026 C1002 0.950 . S
H1027 C1003 0.949 . S
H1028 C1005 0.950 . S
H1029 C1007 0.950 . S
C1030 C1031 1.349 . S
C1030 C1032 1.327 . S
C1030 H1055 0.950 . S
C1031 C1030 1.349 . S
C1031 C1047 1.349 . S
C1032 C1030 1.327 . S
C1032 C1051 1.429 . S
C1032 H1056 0.950 . S
C1033 C1050 1.574 . S
C1033 C1052 1.368 . S
C1033 H1057 0.949 . S
H1034 C1038 0.949 . S
C1035 C1036 1.349 . S
C1035 C1037 1.327 . S
C1035 H1058 0.950 . S
C1036 C1035 1.349 . S
C1036 C1048 1.349 . S
C1037 C1035 1.327 . S
C1037 C1053 1.429 . S
C1037 H1059 0.950 . S
C1038 H1034 0.949 . S
C1038 C1046 1.574 . S
C1038 C1054 1.368 . S
H1039 C1047 0.950 . S
H1040 C1045 0.950 . S
H1041 C1046 0.949 . S
H1042 C1048 0.950 . S
H1043 C1049 0.950 . S
H1044 C1050 0.949 . S
C1045 H1040 0.950 . S
C1045 C1047 1.327 . S
C1045 C1051 1.429 . S
C1046 C1038 1.574 . S
C1046 H1041 0.949 . S
C1046 C1052 1.368 . S
C1047 C1031 1.349 . S
C1047 H1039 0.950 . S
C1047 C1045 1.327 . S
C1048 C1036 1.349 . S
C1048 H1042 0.950 . S
C1048 C1049 1.327 . S
C1049 H1043 0.950 . S
C1049 C1048 1.327 . S
C1049 C1053 1.429 . S
C1050 C1033 1.574 . S
C1050 H1044 0.949 . S
C1050 C1054 1.368 . S
C1051 C1032 1.429 . S
C1051 C1045 1.429 . S
C1051 C1052 1.523 . S
C1052 C1033 1.368 . S
C1052 C1046 1.368 . S
C1052 C1051 1.523 . S
C1053 C1037 1.429 . S
C1053 C1049 1.429 . S
C1053 C1054 1.523 . S
C1054 C1038 1.368 . S
C1054 C1050 1.368 . S
C1054 C1053 1.523 . S
H1055 C1030 0.950 . S
H1056 C1032 0.950 . S
H1057 C1033 0.949 . S
H1058 C1035 0.950 . S
H1059 C1037 0.950 . S
C1060 C1061 1.349 . S
C1060 C1062 1.327 . S
C1060 H1085 0.950 . S
C1061 C1060 1.349 . S
C1061 C1077 1.349 . S
C1062 C1060 1.327 . S
C1062 C1081 1.429 . S
C1062 H1086 0.950 . S
C1063 C1080 1.574 . S
C1063 C1082 1.368 . S
C1063 H1087 0.949 . S
H1064 C1068 0.949 . S
C1065 C1066 1.349 . S
C1065 C1067 1.327 . S
C1065 H1088 0.950 . S
C1066 C1065 1.349 . S
C1066 C1078 1.349 . S
C1067 C1065 1.327 . S
C1067 C1083 1.429 . S
C1067 H1089 0.950 . S
C1068 H1064 0.949 . S
C1068 C1076 1.574 . S
C1068 C1084 1.368 . S
H1069 C1077 0.950 . S
H1070 C1075 0.950 . S
H1071 C1076 0.949 . S
H1072 C1078 0.950 . S
H1073 C1079 0.950 . S
H1074 C1080 0.949 . S
C1075 H1070 0.950 . S
C1075 C1077 1.327 . S
C1075 C1081 1.429 . S
C1076 C1068 1.574 . S
C1076 H1071 0.949 . S
C1076 C1082 1.368 . S
C1077 C1061 1.349 . S
C1077 H1069 0.950 . S
C1077 C1075 1.327 . S
C1078 C1066 1.349 . S
C1078 H1072 0.950 . S
C1078 C1079 1.327 . S
C1079 H1073 0.950 . S
C1079 C1078 1.327 . S
C1079 C1083 1.429 . S
C1080 C1063 1.574 . S
C1080 H1074 0.949 . S
C1080 C1084 1.368 . S
C1081 C1062 1.429 . S
C1081 C1075 1.429 . S
C1081 C1082 1.523 . S
C1082 C1063 1.368 . S
C1082 C1076 1.368 . S
C1082 C1081 1.523 . S
C1083 C1067 1.429 . S
C1083 C1079 1.429 . S
C1083 C1084 1.523 . S
C1084 C1068 1.368 . S
C1084 C1080 1.368 . S
C1084 C1083 1.523 . S
H1085 C1060 0.950 . S
H1086 C1062 0.950 . S
H1087 C1063 0.949 . S
H1088 C1065 0.950 . S
H1089 C1067 0.950 . S
C1090 C1091 1.349 . S
C1090 C1092 1.327 1_554 S
C1090 H1115 0.950 . S
C1091 C1090 1.349 . S
C1091 C1107 1.339 1_554 S
C1092 C1090 1.327 1_556 S
C1092 C1111 1.429 . S
C1092 H1116 0.950 . S
C1093 C1110 1.574 . S
C1093 C1112 1.368 . S
C1093 H1117 0.949 . S
H1094 C1098 0.949 . S
C1095 C1096 1.349 . S
C1095 C1097 1.327 . S
C1095 H1118 0.950 . S
C1096 C1095 1.349 . S
C1096 C1108 1.349 . S
C1097 C1095 1.327 . S
C1097 C1113 1.429 . S
C1097 H1119 0.950 . S
C1098 H1094 0.949 . S
C1098 C1106 1.574 . S
C1098 C1114 1.368 . S
H1099 C1107 0.943 1_554 S
H1100 C1105 0.950 . S
H1101 C1106 0.949 . S
H1102 C1108 0.950 . S
H1103 C1109 0.950 . S
H1104 C1110 0.949 . S
C1105 H1100 0.950 . S
C1105 C1107 1.342 . S
C1105 C1111 1.429 . S
C1106 C1098 1.574 . S
C1106 H1101 0.949 . S
C1106 C1112 1.368 . S
C1107 C1091 1.339 1_556 S
C1107 H1099 0.943 1_556 S
C1107 C1105 1.342 . S
C1108 C1096 1.349 . S
C1108 H1102 0.950 . S
C1108 C1109 1.327 . S
C1109 H1103 0.950 . S
C1109 C1108 1.327 . S
C1109 C1113 1.429 . S
C1110 C1093 1.574 . S
C1110 H1104 0.949 . S
C1110 C1114 1.368 . S
C1111 C1092 1.429 . S
C1111 C1105 1.429 . S
C1111 C1112 1.523 . S
C1112 C1093 1.368 . S
C1112 C1106 1.368 . S
C1112 C1111 1.523 . S
C1113 C1097 1.429 . S
C1113 C1109 1.429 . S
C1113 C1114 1.523 . S
C1114 C1098 1.368 . S
C1114 C1110 1.368 . S
C1114 C1113 1.523 . S
H1115 C1090 0.950 . S
H1116 C1092 0.950 . S
H1117 C1093 0.949 . S
H1118 C1095 0.950 . S
H1119 C1097 0.950 . S
C401 C8 1.489 . S
C406 C104 1.449 . S
C431 C31 1.334 . S
C436 C143 1.274 . S
C461 C53 1.664 . S
C466 C182 1.590 . S
C496 C206 1.355 . S
C491 C74 1.354 . S
C526 C245 1.448 . S
C521 C26 1.484 . S
C551 C48 1.357 . S
C556 C284 1.357 . S
C581 C71 1.654 . S
C586 C338 1.579 . S
C611 C5 1.335 . S
C616 C362 1.278 . S
C641 C50 1.489 . S
C646 C377 1.445 . S
C676 C260 1.271 . S
C671 C70 1.334 . S
C706 C299 1.594 . S
C701 C4 1.664 . S
C731 C28 1.354 . S
C736 C323 1.359 . S
C766 C128 1.442 . S
C761 C73 1.484 . S
C791 C7 1.357 . S
C796 C167 1.362 . S
C826 C221 1.583 . S
C821 C30 1.654 . S
C856 C89 1.272 . S
C851 C52 1.335 . S
C886 C343 1.403 . S
C881 C9 1.437 . S
C916 C382 1.292 . S
C911 C29 1.298 . S
C941 C51 1.293 . S
C946 C265 1.289 . S
C976 C304 1.401 . S
C971 C75 1.447 . S
C1006 C187 1.413 . S
C1001 C27 1.447 . S
C1031 C49 1.437 . S
C1036 C226 1.391 . S
C1066 C109 1.282 . S
C1061 C72 1.298 . S
C1096 C148 1.279 . S
C1091 C6 1.292 . S
