# Generated by pormake.
# Topology ctn, (3,4)-cn, num edge types: 1
# Building blocks:
#     Node 0, Type 0, BuildingBlock: BETDAH_clean_linker_0, # of connection points: 3
#     Node 1, Type 0, BuildingBlock: BETDAH_clean_linker_0, # of connection points: 3
#     Node 2, Type 0, BuildingBlock: BETDAH_clean_linker_0, # of connection points: 3
#     Node 3, Type 0, BuildingBlock: BETDAH_clean_linker_0, # of connection points: 3
#     Node 4, Type 0, BuildingBlock: BETDAH_clean_linker_0, # of connection points: 3
#     Node 5, Type 0, BuildingBlock: BETDAH_clean_linker_0, # of connection points: 3
#     Node 6, Type 0, BuildingBlock: BETDAH_clean_linker_0, # of connection points: 3
#     Node 7, Type 0, BuildingBlock: BETDAH_clean_linker_0, # of connection points: 3
#     Node 8, Type 0, BuildingBlock: BETDAH_clean_linker_0, # of connection points: 3
#     Node 9, Type 0, BuildingBlock: BETDAH_clean_linker_0, # of connection points: 3
#     Node 10, Type 0, BuildingBlock: BETDAH_clean_linker_0, # of connection points: 3
#     Node 11, Type 0, BuildingBlock: BETDAH_clean_linker_0, # of connection points: 3
#     Node 12, Type 0, BuildingBlock: BETDAH_clean_linker_0, # of connection points: 3
#     Node 13, Type 0, BuildingBlock: BETDAH_clean_linker_0, # of connection points: 3
#     Node 14, Type 0, BuildingBlock: BETDAH_clean_linker_0, # of connection points: 3
#     Node 15, Type 0, BuildingBlock: BETDAH_clean_linker_0, # of connection points: 3
#     Node 16, Type 1, BuildingBlock: QUQFOY_clean_sbu_1, # of connection points: 4
#     Node 17, Type 1, BuildingBlock: QUQFOY_clean_sbu_1, # of connection points: 4
#     Node 18, Type 1, BuildingBlock: QUQFOY_clean_sbu_1, # of connection points: 4
#     Node 19, Type 1, BuildingBlock: QUQFOY_clean_sbu_1, # of connection points: 4
#     Node 20, Type 1, BuildingBlock: QUQFOY_clean_sbu_1, # of connection points: 4
#     Node 21, Type 1, BuildingBlock: QUQFOY_clean_sbu_1, # of connection points: 4
#     Node 22, Type 1, BuildingBlock: QUQFOY_clean_sbu_1, # of connection points: 4
#     Node 23, Type 1, BuildingBlock: QUQFOY_clean_sbu_1, # of connection points: 4
#     Node 24, Type 1, BuildingBlock: QUQFOY_clean_sbu_1, # of connection points: 4
#     Node 25, Type 1, BuildingBlock: QUQFOY_clean_sbu_1, # of connection points: 4
#     Node 26, Type 1, BuildingBlock: QUQFOY_clean_sbu_1, # of connection points: 4
#     Node 27, Type 1, BuildingBlock: QUQFOY_clean_sbu_1, # of connection points: 4
#     Edge 28, Type (0, 1), BuildingBlock: XUDNAN_clean_linker_2, # of connection points: 2
#     Edge 29, Type (0, 1), BuildingBlock: XUDNAN_clean_linker_2, # of connection points: 2
#     Edge 30, Type (0, 1), BuildingBlock: XUDNAN_clean_linker_2, # of connection points: 2
#     Edge 31, Type (0, 1), BuildingBlock: XUDNAN_clean_linker_2, # of connection points: 2
#     Edge 32, Type (0, 1), BuildingBlock: XUDNAN_clean_linker_2, # of connection points: 2
#     Edge 33, Type (0, 1), BuildingBlock: XUDNAN_clean_linker_2, # of connection points: 2
#     Edge 34, Type (0, 1), BuildingBlock: XUDNAN_clean_linker_2, # of connection points: 2
#     Edge 35, Type (0, 1), BuildingBlock: XUDNAN_clean_linker_2, # of connection points: 2
#     Edge 36, Type (0, 1), BuildingBlock: XUDNAN_clean_linker_2, # of connection points: 2
#     Edge 37, Type (0, 1), BuildingBlock: XUDNAN_clean_linker_2, # of connection points: 2
#     Edge 38, Type (0, 1), BuildingBlock: XUDNAN_clean_linker_2, # of connection points: 2
#     Edge 39, Type (0, 1), BuildingBlock: XUDNAN_clean_linker_2, # of connection points: 2
#     Edge 40, Type (0, 1), BuildingBlock: XUDNAN_clean_linker_2, # of connection points: 2
#     Edge 41, Type (0, 1), BuildingBlock: XUDNAN_clean_linker_2, # of connection points: 2
#     Edge 42, Type (0, 1), BuildingBlock: XUDNAN_clean_linker_2, # of connection points: 2
#     Edge 43, Type (0, 1), BuildingBlock: XUDNAN_clean_linker_2, # of connection points: 2
#     Edge 44, Type (0, 1), BuildingBlock: XUDNAN_clean_linker_2, # of connection points: 2
#     Edge 45, Type (0, 1), BuildingBlock: XUDNAN_clean_linker_2, # of connection points: 2
#     Edge 46, Type (0, 1), BuildingBlock: XUDNAN_clean_linker_2, # of connection points: 2
#     Edge 47, Type (0, 1), BuildingBlock: XUDNAN_clean_linker_2, # of connection points: 2
#     Edge 48, Type (0, 1), BuildingBlock: XUDNAN_clean_linker_2, # of connection points: 2
#     Edge 49, Type (0, 1), BuildingBlock: XUDNAN_clean_linker_2, # of connection points: 2
#     Edge 50, Type (0, 1), BuildingBlock: XUDNAN_clean_linker_2, # of connection points: 2
#     Edge 51, Type (0, 1), BuildingBlock: XUDNAN_clean_linker_2, # of connection points: 2
#     Edge 52, Type (0, 1), BuildingBlock: XUDNAN_clean_linker_2, # of connection points: 2
#     Edge 53, Type (0, 1), BuildingBlock: XUDNAN_clean_linker_2, # of connection points: 2
#     Edge 54, Type (0, 1), BuildingBlock: XUDNAN_clean_linker_2, # of connection points: 2
#     Edge 55, Type (0, 1), BuildingBlock: XUDNAN_clean_linker_2, # of connection points: 2
#     Edge 56, Type (0, 1), BuildingBlock: XUDNAN_clean_linker_2, # of connection points: 2
#     Edge 57, Type (0, 1), BuildingBlock: XUDNAN_clean_linker_2, # of connection points: 2
#     Edge 58, Type (0, 1), BuildingBlock: XUDNAN_clean_linker_2, # of connection points: 2
#     Edge 59, Type (0, 1), BuildingBlock: XUDNAN_clean_linker_2, # of connection points: 2
#     Edge 60, Type (0, 1), BuildingBlock: XUDNAN_clean_linker_2, # of connection points: 2
#     Edge 61, Type (0, 1), BuildingBlock: XUDNAN_clean_linker_2, # of connection points: 2
#     Edge 62, Type (0, 1), BuildingBlock: XUDNAN_clean_linker_2, # of connection points: 2
#     Edge 63, Type (0, 1), BuildingBlock: XUDNAN_clean_linker_2, # of connection points: 2
#     Edge 64, Type (0, 1), BuildingBlock: XUDNAN_clean_linker_2, # of connection points: 2
#     Edge 65, Type (0, 1), BuildingBlock: XUDNAN_clean_linker_2, # of connection points: 2
#     Edge 66, Type (0, 1), BuildingBlock: XUDNAN_clean_linker_2, # of connection points: 2
#     Edge 67, Type (0, 1), BuildingBlock: XUDNAN_clean_linker_2, # of connection points: 2
#     Edge 68, Type (0, 1), BuildingBlock: XUDNAN_clean_linker_2, # of connection points: 2
#     Edge 69, Type (0, 1), BuildingBlock: XUDNAN_clean_linker_2, # of connection points: 2
#     Edge 70, Type (0, 1), BuildingBlock: XUDNAN_clean_linker_2, # of connection points: 2
#     Edge 71, Type (0, 1), BuildingBlock: XUDNAN_clean_linker_2, # of connection points: 2
#     Edge 72, Type (0, 1), BuildingBlock: XUDNAN_clean_linker_2, # of connection points: 2
#     Edge 73, Type (0, 1), BuildingBlock: XUDNAN_clean_linker_2, # of connection points: 2
#     Edge 74, Type (0, 1), BuildingBlock: XUDNAN_clean_linker_2, # of connection points: 2
#     Edge 75, Type (0, 1), BuildingBlock: XUDNAN_clean_linker_2, # of connection points: 2
# Relax obj value: 0.075
# Max RMSD: 0.181
# Mean RMSD: 0.121
data_MOF--net-ctn--node1-QUQFOY_clean_sbu_1--node2-BETDAH_clean_linker_0--edge1-XUDNAN_clean_linker_2
_symmetry_space_group_name_H-M    P1
_symmetry_Int_Tables_number       1
_symmetry_cell_setting            triclinic
loop_
_symmetry_equiv_pos_as_xyz
'x, y, z'
_cell_length_a     54.006482
_cell_length_b     53.645703
_cell_length_c     55.119227
_cell_angle_alpha  101.98972
_cell_angle_beta   90.133998
_cell_angle_gamma 99.957132
loop_
_atom_site_label
_atom_site_type_symbol
_atom_site_fract_x
_atom_site_fract_y
_atom_site_fract_z
_atom_type_partial_charge
H0 H 0.06315 0.06349 0.12301 0.0
H1 H 0.08555 0.10315 0.06392 0.0
H2 H 0.04755 0.14005 0.12544 0.0
C3 C 0.0641 0.08033 0.11486 0.0
C4 C 0.05401 0.10177 0.12737 0.0
C5 C 0.07537 0.08045 0.09181 0.0
C6 C 0.07645 0.10245 0.08131 0.0
C7 C 0.06663 0.12398 0.09376 0.0
C8 C 0.05556 0.12346 0.11653 0.0
N9 N 0.06803 0.14692 0.08446 0.0
C10 C 0.071 0.14862 0.0598 0.0
H11 H 0.32424 0.70136 0.25737 0.0
H12 H 0.36752 0.76736 0.23515 0.0
H13 H 0.2903 0.74193 0.21025 0.0
C14 C 0.32557 0.71679 0.24731 0.0
C15 C 0.30443 0.71911 0.23345 0.0
C16 C 0.34834 0.73431 0.24863 0.0
C17 C 0.35002 0.75396 0.23506 0.0
C18 C 0.32932 0.75677 0.22122 0.0
C19 C 0.30646 0.73942 0.22053 0.0
N20 N 0.33235 0.77755 0.20855 0.0
C21 C 0.31387 0.78318 0.19399 0.0
H22 H 0.00282 0.46353 0.05649 0.0
H23 H 0.94087 0.50304 0.07993 0.0
H24 H 0.93849 0.45397 0.00749 0.0
C25 C 0.98432 0.46771 0.05321 0.0
C26 C 0.97187 0.45684 0.03017 0.0
C27 C 0.97344 0.4845 0.07152 0.0
C28 C 0.9499 0.49051 0.06609 0.0
C29 C 0.93735 0.47946 0.04302 0.0
C30 C 0.94826 0.46249 0.02527 0.0
N31 N 0.91322 0.4843 0.03766 0.0
C32 C 0.90837 0.50915 0.0392 0.0
H33 H 0.79265 0.85218 0.20443 0.0
H34 H 0.71968 0.80615 0.18065 0.0
H35 H 0.72734 0.86524 0.24657 0.0
C36 C 0.77263 0.84751 0.20683 0.0
C37 C 0.7618 0.86192 0.22711 0.0
C38 C 0.7578 0.82711 0.18982 0.0
C39 C 0.73192 0.82104 0.19375 0.0
C40 C 0.72132 0.8338 0.21473 0.0
C41 C 0.73615 0.85442 0.23123 0.0
N42 N 0.69549 0.82576 0.21849 0.0
C43 C 0.68584 0.82712 0.24195 0.0
H44 H 0.08117 0.03983 0.47009 0.0
H45 H 0.087 0.97309 0.50047 0.0
H46 H 0.01797 0.9779 0.4642 0.0
C47 C 0.07269 0.02148 0.47438 0.0
C48 C 0.04781 0.01076 0.46628 0.0
C49 C 0.08717 0.00782 0.48634 0.0
C50 C 0.07601 0.98374 0.49125 0.0
C51 C 0.05089 0.9731 0.48345 0.0
C52 C 0.03718 0.98642 0.47057 0.0
N53 N 0.03902 0.94863 0.48731 0.0
C54 C 0.04562 0.93742 0.50637 0.0
H55 H 0.29291 0.76763 0.85333 0.0
H56 H 0.23524 0.78011 0.80502 0.0
H57 H 0.29375 0.74019 0.7744 0.0
C58 C 0.28439 0.76554 0.83506 0.0
C59 C 0.29548 0.75224 0.81438 0.0
C60 C 0.26291 0.77652 0.83199 0.0
C61 C 0.25236 0.773 0.80782 0.0
C62 C 0.2638 0.76042 0.78706 0.0
C63 C 0.28544 0.75047 0.79047 0.0
N64 N 0.25382 0.75718 0.76252 0.0
C65 C 0.2292 0.75935 0.75736 0.0
H66 H 0.94482 0.55745 0.52314 0.0
H67 H 0.99642 0.54682 0.46436 0.0
H68 H 0.93137 0.48812 0.46579 0.0
C69 C 0.95044 0.54558 0.50637 0.0
C70 C 0.9353 0.52173 0.49593 0.0
C71 C 0.97237 0.55471 0.49501 0.0
C72 C 0.97955 0.53958 0.47314 0.0
C73 C 0.96494 0.51523 0.46281 0.0
C74 C 0.94291 0.50651 0.47426 0.0
N75 N 0.97153 0.49924 0.44073 0.0
C76 C 0.99294 0.5057 0.42782 0.0
H77 H 0.84638 0.77727 0.80371 0.0
H78 H 0.8122 0.80269 0.74493 0.0
H79 H 0.78201 0.81479 0.81782 0.0
C80 C 0.83216 0.78665 0.79727 0.0
C81 C 0.81437 0.7957 0.8138 0.0
C82 C 0.83167 0.78908 0.77245 0.0
C83 C 0.81306 0.80094 0.76414 0.0
C84 C 0.79541 0.8106 0.78043 0.0
C85 C 0.79597 0.80788 0.80532 0.0
N86 N 0.77676 0.82199 0.77086 0.0
C87 C 0.76724 0.84293 0.78426 0.0
H88 H 0.32728 0.26966 0.31354 0.0
H89 H 0.31413 0.33672 0.28696 0.0
H90 H 0.28119 0.32052 0.35383 0.0
C91 C 0.31857 0.28663 0.31532 0.0
C92 C 0.3029 0.29241 0.33525 0.0
C93 C 0.32307 0.30254 0.29777 0.0
C94 C 0.3113 0.32445 0.30038 0.0
C95 C 0.29622 0.33078 0.32069 0.0
C96 C 0.29252 0.31504 0.33807 0.0
N97 N 0.28498 0.35325 0.32497 0.0
C98 C 0.27898 0.36618 0.30699 0.0
H99 H 0.4954 0.95127 0.59316 0.0
H100 H 0.45927 0.00883 0.63866 0.0
H101 H 0.44151 0.98605 0.56029 0.0
C102 C 0.48186 0.96425 0.59526 0.0
C103 C 0.46814 0.9661 0.57424 0.0
C104 C 0.47924 0.97984 0.61857 0.0
C105 C 0.46203 0.99698 0.62074 0.0
C106 C 0.44882 0.99969 0.59983 0.0
C107 C 0.45203 0.98436 0.57646 0.0
N108 N 0.43215 0.01773 0.60314 0.0
C109 C 0.42726 0.0316 0.58555 0.0
H110 H 0.31275 0.33261 0.70586 0.0
H111 H 0.29744 0.26196 0.73262 0.0
H112 H 0.29002 0.33389 0.78102 0.0
C113 C 0.30703 0.32259 0.72066 0.0
C114 C 0.30201 0.3367 0.74407 0.0
C115 C 0.30536 0.29567 0.71641 0.0
C116 C 0.29862 0.28277 0.73569 0.0
C117 C 0.29228 0.2963 0.75866 0.0
C118 C 0.29383 0.3233 0.76285 0.0
N119 N 0.28544 0.28233 0.77749 0.0
C120 C 0.26638 0.28726 0.79368 0.0
H121 H 0.83627 0.19829 0.761 0.0
H122 H 0.87198 0.26622 0.73629 0.0
H123 H 0.7927 0.23923 0.72267 0.0
C124 C 0.83523 0.21401 0.75175 0.0
C125 C 0.81183 0.21636 0.742 0.0
C126 C 0.85719 0.23181 0.74999 0.0
C127 C 0.85539 0.2523 0.73818 0.0
C128 C 0.83238 0.25492 0.72812 0.0
C129 C 0.8106 0.23684 0.7299 0.0
N130 N 0.83184 0.27654 0.71713 0.0
C131 C 0.81378 0.2778 0.69962 0.0
H132 H 0.56504 0.56564 0.61395 0.0
H133 H 0.60672 0.6134 0.56851 0.0
H134 H 0.56265 0.64726 0.62636 0.0
C135 C 0.57083 0.58443 0.6094 0.0
C136 C 0.56112 0.60596 0.62236 0.0
C137 C 0.58746 0.58683 0.58999 0.0
C138 C 0.59377 0.611 0.58318 0.0
C139 C 0.5846 0.63261 0.59626 0.0
C140 C 0.56893 0.63013 0.61605 0.0
N141 N 0.59213 0.65744 0.59086 0.0
C142 C 0.58932 0.66244 0.56735 0.0
H143 H 0.57189 0.53069 0.95693 0.0
H144 H 0.59119 0.52511 0.03106 0.0
H145 H 0.51489 0.5263 0.01145 0.0
C146 C 0.56607 0.52873 0.97531 0.0
C147 C 0.54063 0.52786 0.98134 0.0
C148 C 0.58452 0.5286 0.99328 0.0
C149 C 0.57717 0.52525 0.017 0.0
C150 C 0.55188 0.52371 0.02311 0.0
C151 C 0.53398 0.52588 0.00566 0.0
N152 N 0.54442 0.52224 0.04744 0.0
C153 C 0.54787 0.50179 0.05815 0.0
H154 H 0.77367 0.25828 0.35123 0.0
H155 H 0.7135 0.27236 0.30711 0.0
H156 H 0.76655 0.22673 0.27267 0.0
C157 C 0.76359 0.25558 0.33361 0.0
C158 C 0.7724 0.24079 0.31232 0.0
C159 C 0.74249 0.26754 0.33199 0.0
C160 C 0.7302 0.26409 0.30863 0.0
C161 C 0.73918 0.24979 0.28721 0.0
C162 C 0.76008 0.23817 0.28924 0.0
N163 N 0.72769 0.24671 0.26331 0.0
C164 C 0.70774 0.25852 0.25864 0.0
H165 H 0.42659 0.09097 0.03319 0.0
H166 H 0.48816 0.07994 0.98508 0.0
H167 H 0.42556 0.01792 0.98266 0.0
C168 C 0.43516 0.07893 0.0185 0.0
C169 C 0.42308 0.0534 0.00888 0.0
C170 C 0.4587 0.08865 0.01008 0.0
C171 C 0.4701 0.07249 0.99173 0.0
C172 C 0.45814 0.04688 0.98193 0.0
C173 C 0.43475 0.03757 0.99055 0.0
N174 N 0.46904 0.02989 0.96348 0.0
C175 C 0.49218 0.0367 0.95351 0.0
O176 O 0.23416 0.87047 0.00821 0.0
Cd177 Cd 0.24438 0.89177 0.0435 0.0
Cd178 Cd 0.21099 0.92459 0.02759 0.0
O179 O 0.20874 0.89451 0.99679 0.0
O180 O 0.26435 0.86957 0.05729 0.0
O181 O 0.22974 0.88052 0.07415 0.0
C182 C 0.24838 0.8684 0.07448 0.0
C183 C 0.1762 0.94596 0.03418 0.0
C184 C 0.21973 0.87498 0.99202 0.0
C185 C 0.2662 0.94724 0.04152 0.0
O186 O 0.24463 0.95007 0.03452 0.0
O187 O 0.26977 0.92582 0.04605 0.0
O188 O 0.18955 0.94637 0.01497 0.0
O189 O 0.18201 0.93272 0.04971 0.0
O190 O 0.18119 0.56182 0.26482 0.0
Cd191 Cd 0.16476 0.52783 0.27451 0.0
Cd192 Cd 0.11925 0.5415 0.25028 0.0
O193 O 0.14874 0.56969 0.24483 0.0
O194 O 0.19357 0.51441 0.28673 0.0
O195 O 0.16938 0.49312 0.25402 0.0
C196 C 0.18813 0.49422 0.26904 0.0
C197 C 0.08683 0.53365 0.21985 0.0
C198 C 0.17171 0.57539 0.25221 0.0
C199 C 0.11786 0.53312 0.30394 0.0
O200 O 0.10724 0.53806 0.2853 0.0
O201 O 0.14033 0.52896 0.30317 0.0
O202 O 0.09067 0.55435 0.23699 0.0
O203 O 0.10124 0.51683 0.22008 0.0
O204 O 0.77762 0.70545 0.96259 0.0
Cd205 Cd 0.77247 0.68834 0.99292 0.0
Cd206 Cd 0.79948 0.65552 0.96796 0.0
O207 O 0.80874 0.6852 0.94891 0.0
O208 O 0.76012 0.71336 0.01987 0.0
O209 O 0.79759 0.70198 0.02161 0.0
C210 C 0.78119 0.71535 0.03174 0.0
C211 C 0.82979 0.63991 0.98778 0.0
C212 C 0.79568 0.70264 0.94814 0.0
C213 C 0.74677 0.63339 0.97515 0.0
O214 O 0.7652 0.63046 0.96119 0.0
O215 O 0.74711 0.65456 0.99066 0.0
O216 O 0.82584 0.63334 0.96401 0.0
O217 O 0.81733 0.65652 0.00019 0.0
O218 O 0.94317 0.05326 0.32887 0.0
Cd219 Cd 0.9238 0.05514 0.29717 0.0
Cd220 Cd 0.89487 0.07835 0.33111 0.0
O221 O 0.92405 0.07943 0.35573 0.0
O222 O 0.94659 0.0471 0.26927 0.0
O223 O 0.93507 0.08531 0.28106 0.0
C224 C 0.94789 0.07058 0.2666 0.0
C225 C 0.88077 0.11599 0.32703 0.0
C226 C 0.94118 0.06581 0.35083 0.0
C227 C 0.87189 0.02658 0.30043 0.0
O228 O 0.87036 0.04354 0.32 0.0
O229 O 0.89098 0.02893 0.28712 0.0
O230 O 0.87438 0.10507 0.34541 0.0
O231 O 0.89571 0.10574 0.3112 0.0
O232 O 0.2823 0.18572 0.47729 0.0
Cd233 Cd 0.28092 0.16869 0.50751 0.0
Cd234 Cd 0.30433 0.13506 0.47529 0.0
O235 O 0.30448 0.16116 0.45206 0.0
O236 O 0.27344 0.19539 0.53635 0.0
O237 O 0.30815 0.17856 0.53432 0.0
C238 C 0.29458 0.19409 0.5465 0.0
C239 C 0.34034 0.1255 0.4917 0.0
C240 C 0.29295 0.18032 0.45678 0.0
C241 C 0.25338 0.11422 0.49262 0.0
O242 O 0.27131 0.10987 0.47832 0.0
O243 O 0.25382 0.13647 0.50635 0.0
O244 O 0.33171 0.11381 0.46963 0.0
O245 O 0.32925 0.14349 0.50373 0.0
O246 O 0.44959 0.55489 0.82609 0.0
Cd247 Cd 0.43299 0.55106 0.79128 0.0
Cd248 Cd 0.39639 0.57113 0.81748 0.0
O249 O 0.41689 0.56592 0.84695 0.0
O250 O 0.45983 0.54711 0.76648 0.0
O251 O 0.43858 0.57949 0.77223 0.0
C252 C 0.45549 0.56798 0.76042 0.0
C253 C 0.38641 0.61184 0.81785 0.0
C254 C 0.4386 0.55978 0.84647 0.0
C255 C 0.38055 0.51911 0.78474 0.0
O256 O 0.37318 0.53841 0.79837 0.0
O257 O 0.40373 0.52006 0.78006 0.0
O258 O 0.37459 0.59681 0.83114 0.0
O259 O 0.40404 0.60369 0.80427 0.0
O260 O 0.72956 0.36176 0.51098 0.0
Cd261 Cd 0.74587 0.38035 0.5452 0.0
Cd262 Cd 0.71702 0.4214 0.53257 0.0
O263 O 0.70998 0.39162 0.50143 0.0
O264 O 0.7634 0.3527 0.55249 0.0
O265 O 0.73576 0.36923 0.57743 0.0
C266 C 0.75114 0.35309 0.57247 0.0
C267 C 0.68701 0.44927 0.53824 0.0
C268 C 0.7165 0.36951 0.49581 0.0
C269 C 0.77433 0.43383 0.54298 0.0
O270 O 0.75364 0.44091 0.53911 0.0
O271 O 0.77501 0.41087 0.54536 0.0
O272 O 0.70152 0.44768 0.51978 0.0
O273 O 0.68922 0.43486 0.55388 0.0
O274 O 0.69627 0.06888 0.80198 0.0
Cd275 Cd 0.67904 0.03882 0.81765 0.0
Cd276 Cd 0.63709 0.04066 0.78589 0.0
O277 O 0.66471 0.06815 0.77612 0.0
O278 O 0.70583 0.02445 0.83222 0.0
O279 O 0.6801 0.00193 0.80097 0.0
C280 C 0.69844 0.00296 0.81649 0.0
C281 C 0.60714 0.02016 0.75402 0.0
C282 C 0.687 0.07738 0.78475 0.0
C283 C 0.63107 0.04808 0.84205 0.0
O284 O 0.62188 0.04661 0.82046 0.0
O285 O 0.65383 0.04585 0.84515 0.0
O286 O 0.6083 0.04395 0.76503 0.0
O287 O 0.62326 0.00762 0.761 0.0
O288 O 0.03025 0.29889 0.92185 0.0
Cd289 Cd 0.03409 0.26226 0.90239 0.0
Cd290 Cd 0.05885 0.29036 0.87188 0.0
O291 O 0.05167 0.32165 0.8973 0.0
O292 O 0.02436 0.23898 0.92601 0.0
O293 O 0.06248 0.24546 0.91144 0.0
C294 C 0.04702 0.2344 0.92546 0.0
C295 C 0.10032 0.28745 0.86251 0.0
C296 C 0.03891 0.32062 0.91649 0.0
C297 C 0.0121 0.25403 0.85053 0.0
O298 O 0.02963 0.2719 0.84711 0.0
O299 O 0.01105 0.24631 0.87087 0.0
O300 O 0.08836 0.30215 0.85291 0.0
O301 O 0.08849 0.27409 0.87728 0.0
O302 O 0.50399 0.80893 0.44487 0.0
Cd303 Cd 0.51047 0.77371 0.42414 0.0
Cd304 Cd 0.53182 0.80507 0.39388 0.0
O305 O 0.52456 0.83412 0.42187 0.0
O306 O 0.50757 0.7494 0.44734 0.0
O307 O 0.54299 0.76167 0.42957 0.0
C308 C 0.53111 0.74848 0.44445 0.0
C309 C 0.56972 0.81133 0.37385 0.0
C310 C 0.5118 0.83139 0.44074 0.0
C311 C 0.48583 0.76541 0.37396 0.0
O312 O 0.50152 0.78512 0.37137 0.0
O313 O 0.48677 0.75616 0.39333 0.0
O314 O 0.55203 0.82391 0.37111 0.0
O315 O 0.56619 0.79538 0.38865 0.0
O316 O 0.99477 0.75107 0.67572 0.0
Cd317 Cd 0.02814 0.74747 0.65884 0.0
Cd318 Cd 0.0086 0.77587 0.62848 0.0
O319 O 0.98007 0.77562 0.65365 0.0
O320 O 0.04574 0.73288 0.6828 0.0
O321 O 0.06126 0.76993 0.67234 0.0
C322 C 0.06342 0.75274 0.68513 0.0
C323 C 0.02206 0.81392 0.61432 0.0
C324 C 0.97785 0.76339 0.67118 0.0
C325 C 0.01847 0.72224 0.60516 0.0
O326 O 0.01037 0.74239 0.60238 0.0
O327 O 0.02663 0.72052 0.62625 0.0
O328 O 0.00038 0.79971 0.60778 0.0
O329 O 0.03618 0.8069 0.62967 0.0
O330 O 0.48132 0.28467 0.18752 0.0
Cd331 Cd 0.51516 0.28599 0.16985 0.0
Cd332 Cd 0.48983 0.30972 0.14091 0.0
O333 O 0.46352 0.30952 0.16806 0.0
O334 O 0.53597 0.27133 0.19122 0.0
O335 O 0.54699 0.31064 0.18407 0.0
C336 C 0.55216 0.29245 0.19428 0.0
C337 C 0.50764 0.34834 0.12984 0.0
C338 C 0.46325 0.29632 0.18474 0.0
C339 C 0.50327 0.25918 0.11646 0.0
O340 O 0.48955 0.27578 0.11475 0.0
O341 O 0.51611 0.26107 0.13626 0.0
O342 O 0.48514 0.33671 0.12231 0.0
O343 O 0.51999 0.33818 0.14422 0.0
H344 H 0.26263 0.77197 0.88151 0.0
H345 H 0.23858 0.81773 0.83223 0.0
H346 H 0.21961 0.84304 0.86702 0.0
H347 H 0.21066 0.7738 0.9236 0.0
H348 H 0.23071 0.77833 0.95093 0.0
H349 H 0.23941 0.76083 0.92155 0.0
H350 H 0.28226 0.79206 0.92537 0.0
H351 H 0.27379 0.80944 0.95484 0.0
H352 H 0.28278 0.82644 0.93036 0.0
H353 H 0.20458 0.8649 0.90703 0.0
H354 H 0.19997 0.88589 0.95053 0.0
H355 H 0.23758 0.82958 0.97503 0.0
C356 C 0.25343 0.78726 0.87784 0.0
C357 C 0.25167 0.79207 0.8536 0.0
C358 C 0.2394 0.81255 0.85012 0.0
C359 C 0.22863 0.82732 0.86991 0.0
C360 C 0.23063 0.82192 0.89335 0.0
C361 C 0.24311 0.80273 0.89755 0.0
C362 C 0.24493 0.80286 0.92506 0.0
C363 C 0.23057 0.77744 0.9306 0.0
C364 C 0.27258 0.80802 0.93445 0.0
C365 C 0.23192 0.82544 0.9356 0.0
C366 C 0.22329 0.8357 0.91688 0.0
C367 C 0.2112 0.85703 0.92188 0.0
C368 C 0.20859 0.86876 0.9467 0.0
C369 C 0.21844 0.85946 0.96628 0.0
C370 C 0.22974 0.83711 0.96054 0.0
H371 H 0.99427 0.51755 0.38254 0.0
H372 H 0.04092 0.50684 0.44225 0.0
H373 H 0.07887 0.51506 0.41778 0.0
H374 H 0.02671 0.48593 0.33304 0.0
H375 H 0.02336 0.50778 0.31293 0.0
H376 H 0.00033 0.50271 0.33577 0.0
H377 H 0.00768 0.55209 0.35414 0.0
H378 H 0.03073 0.55732 0.3313 0.0
H379 H 0.03907 0.56907 0.36386 0.0
H380 H 0.11109 0.52195 0.38575 0.0
H381 H 0.13553 0.5274 0.34883 0.0
H382 H 0.06759 0.53408 0.31017 0.0
C383 C 0.01257 0.51725 0.39046 0.0
C384 C 0.01502 0.51171 0.41412 0.0
C385 C 0.03898 0.51118 0.42407 0.0
C386 C 0.06052 0.51584 0.41035 0.0
C387 C 0.05758 0.52106 0.38685 0.0
C388 C 0.03422 0.52191 0.37702 0.0
C389 C 0.03608 0.52708 0.35105 0.0
C390 C 0.02071 0.50453 0.33209 0.0
C391 C 0.02791 0.55293 0.35004 0.0
C392 C 0.06406 0.52857 0.34762 0.0
C393 C 0.07615 0.52517 0.3685 0.0
C394 C 0.10187 0.52485 0.36937 0.0
C395 C 0.11557 0.52792 0.34827 0.0
C396 C 0.10353 0.53126 0.32658 0.0
C397 C 0.07744 0.5318 0.32647 0.0
H398 H 0.77491 0.77442 0.8388 0.0
H399 H 0.8551 0.80433 0.84565 0.0
H400 H 0.8583 0.78628 0.88293 0.0
H401 H 0.76503 0.78459 0.90816 0.0
H402 H 0.74194 0.7553 0.90413 0.0
H403 H 0.74528 0.77392 0.88023 0.0
H404 H 0.75193 0.73309 0.84827 0.0
H405 H 0.74917 0.71448 0.87207 0.0
H406 H 0.77687 0.71633 0.8539 0.0
H407 H 0.85449 0.75805 0.91364 0.0
H408 H 0.84249 0.7272 0.94107 0.0
H409 H 0.76427 0.7183 0.91744 0.0
C410 C 0.79291 0.77809 0.84878 0.0
C411 C 0.81479 0.79066 0.83929 0.0
C412 C 0.83815 0.79458 0.85252 0.0
C413 C 0.84015 0.78443 0.87372 0.0
C414 C 0.81852 0.77087 0.88182 0.0
C415 C 0.79519 0.76829 0.87025 0.0
C416 C 0.77522 0.75151 0.88202 0.0
C417 C 0.75571 0.76728 0.89437 0.0
C418 C 0.76257 0.72743 0.86292 0.0
C419 C 0.79119 0.74422 0.90122 0.0
C420 C 0.81614 0.75555 0.90069 0.0
C421 C 0.83493 0.74965 0.91479 0.0
C422 C 0.82801 0.73196 0.9301 0.0
C423 C 0.8025 0.72075 0.93149 0.0
C424 C 0.78385 0.7271 0.91702 0.0
H425 H 0.02585 0.99262 0.42009 0.0
H426 H 0.03731 0.05952 0.48107 0.0
H427 H 0.01171 0.08178 0.45792 0.0
H428 H 0.03028 0.02894 0.37117 0.0
H429 H 0.0068 0.0056 0.35132 0.0
H430 H 0.02591 0.99525 0.37282 0.0
H431 H 0.98569 0.97468 0.39202 0.0
H432 H 0.96646 0.98495 0.37058 0.0
H433 H 0.96258 0.99433 0.40351 0.0
H434 H 0.98247 0.09522 0.42886 0.0
H435 H 0.95477 0.10026 0.39496 0.0
H436 H 0.96532 0.02553 0.35219 0.0
C437 C 0.02291 0.01195 0.42851 0.0
C438 C 0.03323 0.0244 0.45234 0.0
C439 C 0.02943 0.0498 0.46277 0.0
C440 C 0.01494 0.06249 0.4498 0.0
C441 C 0.00483 0.0496 0.42632 0.0
C442 C 0.00894 0.02502 0.41566 0.0
C443 C 0.99641 0.01553 0.39007 0.0
C444 C 0.01602 0.01108 0.37017 0.0
C445 C 0.97661 0.99092 0.389 0.0
C446 C 0.98426 0.03842 0.38809 0.0
C447 C 0.98915 0.05783 0.40922 0.0
C448 C 0.97879 0.0803 0.41209 0.0
C449 C 0.96306 0.08297 0.39281 0.0
C450 C 0.95819 0.06343 0.37089 0.0
C451 C 0.96909 0.041 0.36855 0.0
H452 H 0.2817 0.2944 0.67241 0.0
H453 H 0.33907 0.26292 0.70522 0.0
H454 H 0.34513 0.23588 0.66415 0.0
H455 H 0.25343 0.23558 0.63391 0.0
H456 H 0.24599 0.24958 0.60837 0.0
H457 H 0.24836 0.26861 0.63955 0.0
H458 H 0.28177 0.30366 0.62638 0.0
H459 H 0.27945 0.28475 0.59509 0.0
H460 H 0.30957 0.29459 0.61158 0.0
H461 H 0.34345 0.21097 0.61999 0.0
H462 H 0.33236 0.18788 0.57665 0.0
H463 H 0.27446 0.23417 0.57337 0.0
C464 C 0.29588 0.28218 0.67074 0.0
C465 C 0.31018 0.28084 0.69171 0.0
C466 C 0.32809 0.26419 0.68919 0.0
C467 C 0.3317 0.2489 0.66599 0.0
C468 C 0.31707 0.2504 0.64564 0.0
C469 C 0.29942 0.26652 0.64782 0.0
C470 C 0.28466 0.26294 0.6236 0.0
C471 C 0.25645 0.25362 0.62655 0.0
C472 C 0.28914 0.28797 0.61357 0.0
C473 C 0.29648 0.24201 0.60755 0.0
C474 C 0.31541 0.23534 0.62047 0.0
C475 C 0.32874 0.2161 0.60964 0.0
C476 C 0.32232 0.20312 0.58503 0.0
C477 C 0.30252 0.20921 0.5717 0.0
C478 C 0.28967 0.22909 0.5831 0.0
H479 H 0.55903 0.57527 0.65731 0.0
H480 H 0.52066 0.63065 0.63207 0.0
H481 H 0.49078 0.62814 0.66544 0.0
H482 H 0.50235 0.53497 0.6715 0.0
H483 H 0.51654 0.52771 0.69825 0.0
H484 H 0.53563 0.53455 0.67287 0.0
H485 H 0.56495 0.57111 0.70329 0.0
H486 H 0.54586 0.56449 0.72875 0.0
H487 H 0.55176 0.59665 0.72257 0.0
H488 H 0.4653 0.62034 0.70191 0.0
H489 H 0.44415 0.60524 0.73725 0.0
H490 H 0.49722 0.55299 0.73737 0.0
C491 C 0.54424 0.58672 0.6586 0.0
C492 C 0.54257 0.60348 0.64215 0.0
C493 C 0.5229 0.61819 0.64476 0.0
C494 C 0.50566 0.61679 0.66359 0.0
C495 C 0.50803 0.60034 0.67959 0.0
C496 C 0.52664 0.58535 0.67717 0.0
C497 C 0.52453 0.56872 0.69646 0.0
C498 C 0.51945 0.53977 0.68403 0.0
C499 C 0.54818 0.57567 0.71379 0.0
C500 C 0.50184 0.57672 0.71005 0.0
C501 C 0.49277 0.59516 0.70015 0.0
C502 C 0.47216 0.60581 0.70977 0.0
C503 C 0.46031 0.59717 0.72989 0.0
C504 C 0.46895 0.57789 0.74003 0.0
C505 C 0.49008 0.56767 0.72997 0.0
H506 H 0.79046 0.31844 0.6989 0.0
H507 H 0.80444 0.24579 0.65487 0.0
H508 H 0.78476 0.25512 0.61788 0.0
H509 H 0.72912 0.31873 0.66592 0.0
H510 H 0.73631 0.35328 0.66843 0.0
H511 H 0.74783 0.33903 0.69211 0.0
H512 H 0.7933 0.36087 0.68573 0.0
H513 H 0.78201 0.37497 0.66193 0.0
H514 H 0.80589 0.35511 0.6552 0.0
H515 H 0.77048 0.27542 0.58493 0.0
H516 H 0.75967 0.30398 0.55824 0.0
H517 H 0.75266 0.36299 0.62349 0.0
C518 C 0.78848 0.30417 0.68162 0.0
C519 C 0.79843 0.28122 0.67955 0.0
C520 C 0.79643 0.26324 0.65668 0.0
C521 C 0.78534 0.26842 0.63565 0.0
C522 C 0.77621 0.29157 0.63801 0.0
C523 C 0.77728 0.30901 0.66048 0.0
C524 C 0.76793 0.33336 0.6575 0.0
C525 C 0.74386 0.33626 0.67184 0.0
C526 C 0.78851 0.35749 0.66556 0.0
C527 C 0.76244 0.32734 0.6297 0.0
C528 C 0.76722 0.30306 0.61888 0.0
C529 C 0.76604 0.29417 0.59322 0.0
C530 C 0.76001 0.31055 0.57822 0.0
C531 C 0.75496 0.33544 0.58887 0.0
C532 C 0.75576 0.34375 0.61495 0.0
H533 H 0.50208 0.02142 0.6537 0.0
H534 H 0.4947 0.93785 0.63164 0.0
H535 H 0.52617 0.93856 0.66453 0.0
H536 H 0.5668 0.03531 0.66621 0.0
H537 H 0.56589 0.06114 0.69279 0.0
H538 H 0.54171 0.05381 0.66858 0.0
H539 H 0.50742 0.04752 0.70069 0.0
H540 H 0.53148 0.05516 0.72509 0.0
H541 H 0.50936 0.02514 0.72062 0.0
H542 H 0.56103 0.94919 0.69824 0.0
H543 H 0.59405 0.9686 0.73136 0.0
H544 H 0.57656 0.04462 0.73156 0.0
C545 C 0.5065 0.00313 0.65613 0.0
C546 C 0.49587 0.97959 0.64003 0.0
C547 C 0.50279 0.9562 0.64355 0.0
C548 C 0.52056 0.95638 0.66226 0.0
C549 C 0.53104 0.98006 0.67744 0.0
C550 C 0.524 0.00294 0.67474 0.0
C551 C 0.53844 0.02592 0.69292 0.0
C552 C 0.55414 0.04516 0.6793 0.0
C553 C 0.52061 0.03921 0.7109 0.0
C554 C 0.55502 0.01248 0.70604 0.0
C555 C 0.55057 0.98604 0.69693 0.0
C556 C 0.56446 0.96985 0.7057 0.0
C557 C 0.58322 0.98102 0.72441 0.0
C558 C 0.58778 0.00807 0.73411 0.0
C559 C 0.57341 0.02384 0.72472 0.0
H560 H 0.89575 0.27091 0.77204 0.0
H561 H 0.87454 0.18704 0.75344 0.0
H562 H 0.91281 0.18327 0.7757 0.0
H563 H 0.96353 0.27132 0.76329 0.0
H564 H 0.97234 0.29925 0.78818 0.0
H565 H 0.94343 0.29523 0.77026 0.0
H566 H 0.91864 0.29902 0.81068 0.0
H567 H 0.94739 0.30288 0.82869 0.0
H568 H 0.92155 0.27745 0.8312 0.0
H569 H 0.95096 0.18901 0.80444 0.0
H570 H 0.98853 0.20395 0.83318 0.0
H571 H 0.98748 0.28317 0.82775 0.0
C572 C 0.8993 0.25166 0.77197 0.0
C573 C 0.88165 0.22933 0.76119 0.0
C574 C 0.88718 0.20459 0.76214 0.0
C575 C 0.90908 0.20218 0.77453 0.0
C576 C 0.92571 0.22462 0.78533 0.0
C577 C 0.92135 0.24885 0.78367 0.0
C578 C 0.94214 0.26997 0.79692 0.0
C579 C 0.95619 0.28481 0.77856 0.0
C580 C 0.9318 0.2884 0.81813 0.0
C581 C 0.95856 0.25386 0.80681 0.0
C582 C 0.94868 0.22774 0.80015 0.0
C583 C 0.95926 0.20934 0.80922 0.0
C584 C 0.98049 0.21793 0.82552 0.0
C585 C 0.9911 0.24454 0.83203 0.0
C586 C 0.98014 0.26261 0.82233 0.0
H587 H 0.46638 0.91391 0.56467 0.0
H588 H 0.47807 0.98015 0.52975 0.0
H589 H 0.48899 0.95231 0.49092 0.0
H590 H 0.51696 0.88627 0.53931 0.0
H591 H 0.50102 0.85315 0.53501 0.0
H592 H 0.49182 0.87761 0.55912 0.0
H593 H 0.44588 0.8656 0.54121 0.0
H594 H 0.45486 0.84085 0.51718 0.0
H595 H 0.43964 0.86553 0.50905 0.0
H596 H 0.50289 0.91828 0.45775 0.0
H597 H 0.51505 0.87976 0.43104 0.0
H598 H 0.49325 0.83545 0.48754 0.0
C599 C 0.47089 0.92244 0.5487 0.0
C600 C 0.47145 0.94911 0.55008 0.0
C601 C 0.47734 0.95967 0.52889 0.0
C602 C 0.48367 0.94406 0.50687 0.0
C603 C 0.48366 0.91794 0.50637 0.0
C604 C 0.47704 0.90713 0.52661 0.0
C605 C 0.47921 0.87877 0.52158 0.0
C606 C 0.4984 0.87366 0.53984 0.0
C607 C 0.45336 0.86168 0.52229 0.0
C608 C 0.48872 0.87541 0.49552 0.0
C609 C 0.49116 0.89823 0.48709 0.0
C610 C 0.50073 0.90023 0.46402 0.0
C611 C 0.50774 0.87826 0.44906 0.0
C612 C 0.50503 0.85455 0.45717 0.0
C613 C 0.49535 0.85321 0.48073 0.0
H614 H 0.22605 0.30951 0.78794 0.0
H615 H 0.25896 0.26649 0.83398 0.0
H616 H 0.22038 0.26341 0.85825 0.0
H617 H 0.19176 0.34557 0.83759 0.0
H618 H 0.16514 0.34372 0.81709 0.0
H619 H 0.19617 0.34445 0.805 0.0
H620 H 0.17997 0.30186 0.77306 0.0
H621 H 0.149 0.30084 0.78521 0.0
H622 H 0.16488 0.2737 0.78387 0.0
H623 H 0.17697 0.26176 0.87489 0.0
H624 H 0.13255 0.26366 0.88437 0.0
H625 H 0.12812 0.30835 0.82774 0.0
C626 C 0.22521 0.30001 0.80353 0.0
C627 C 0.2453 0.28849 0.80951 0.0
C628 C 0.24368 0.27568 0.82953 0.0
C629 C 0.22189 0.2738 0.8433 0.0
C630 C 0.20206 0.28494 0.83675 0.0
C631 C 0.20361 0.29804 0.8175 0.0
C632 C 0.17924 0.30729 0.81358 0.0
C633 C 0.18333 0.33702 0.81862 0.0
C634 C 0.16759 0.29519 0.78738 0.0
C635 C 0.1636 0.29689 0.83325 0.0
C636 C 0.17711 0.28412 0.84645 0.0
C637 C 0.16629 0.27198 0.86488 0.0
C638 C 0.14102 0.27306 0.87006 0.0
C639 C 0.1269 0.28623 0.85687 0.0
C640 C 0.13846 0.29831 0.83829 0.0
H641 H 0.54528 0.67114 0.55104 0.0
H642 H 0.62387 0.67453 0.53414 0.0
H643 H 0.61711 0.69455 0.49842 0.0
H644 H 0.52009 0.6577 0.48629 0.0
H645 H 0.4965 0.67769 0.49435 0.0
H646 H 0.50723 0.66134 0.51672 0.0
H647 H 0.51876 0.70522 0.5481 0.0
H648 H 0.50824 0.72171 0.52581 0.0
H649 H 0.5398 0.73149 0.53922 0.0
H650 H 0.60213 0.71769 0.46681 0.0
H651 H 0.58025 0.74106 0.44159 0.0
H652 H 0.51143 0.72215 0.47954 0.0
C653 C 0.56086 0.67556 0.53938 0.0
C654 C 0.58498 0.67108 0.54485 0.0
C655 C 0.60519 0.67757 0.5298 0.0
C656 C 0.6015 0.68896 0.50958 0.0
C657 C 0.57749 0.69359 0.5048 0.0
C658 C 0.55747 0.6869 0.5192 0.0
C659 C 0.5339 0.6952 0.51115 0.0
C660 C 0.51321 0.67157 0.50155 0.0
C661 C 0.52465 0.71456 0.53233 0.0
C662 C 0.54383 0.70809 0.4903 0.0
C663 C 0.56895 0.70686 0.48678 0.0
C664 C 0.58238 0.71849 0.46923 0.0
C665 C 0.56981 0.73177 0.45503 0.0
C666 C 0.5441 0.73336 0.45848 0.0
C667 C 0.53102 0.72113 0.47625 0.0
H668 H 0.85897 0.81286 0.73879 0.0
H669 H 0.84766 0.74285 0.76821 0.0
H670 H 0.88274 0.72819 0.74408 0.0
H671 H 0.87613 0.78188 0.67592 0.0
H672 H 0.8992 0.80966 0.67318 0.0
H673 H 0.87194 0.81388 0.69136 0.0
H674 H 0.90101 0.83852 0.72933 0.0
H675 H 0.92833 0.83416 0.71139 0.0
H676 H 0.9248 0.82316 0.74015 0.0
H677 H 0.92118 0.7231 0.72062 0.0
H678 H 0.95915 0.72594 0.696 0.0
H679 H 0.94497 0.79808 0.67959 0.0
C680 C 0.86352 0.79417 0.73967 0.0
C681 C 0.85072 0.77908 0.75554 0.0
C682 C 0.85746 0.75491 0.75648 0.0
C683 C 0.87726 0.74634 0.74275 0.0
C684 C 0.88996 0.762 0.72789 0.0
C685 C 0.88321 0.78522 0.72592 0.0
C686 C 0.90063 0.79864 0.70917 0.0
C687 C 0.8861 0.80116 0.68603 0.0
C688 C 0.91451 0.82519 0.72337 0.0
C689 C 0.91852 0.77959 0.70252 0.0
C690 C 0.91195 0.75863 0.7136 0.0
C691 C 0.92632 0.73919 0.71153 0.0
C692 C 0.94795 0.74108 0.69763 0.0
C693 C 0.95494 0.76216 0.6858 0.0
C694 C 0.93989 0.78158 0.68818 0.0
H695 H 0.008 0.90652 0.52224 0.0
H696 H 0.08784 0.93657 0.53324 0.0
H697 H 0.09045 0.9104 0.56526 0.0
H698 H 0.99498 0.90386 0.58675 0.0
H699 H 0.97244 0.87423 0.57817 0.0
H700 H 0.97699 0.89675 0.55778 0.0
H701 H 0.98651 0.86039 0.5219 0.0
H702 H 0.98193 0.83779 0.54214 0.0
H703 H 0.01102 0.84266 0.5264 0.0
H704 H 0.08393 0.87861 0.5946 0.0
H705 H 0.06949 0.84358 0.61714 0.0
H706 H 0.99394 0.83518 0.58589 0.0
C707 C 0.02595 0.90776 0.53167 0.0
C708 C 0.04771 0.92342 0.52565 0.0
C709 C 0.071 0.9246 0.53792 0.0
C710 C 0.07259 0.9099 0.55608 0.0
C711 C 0.05067 0.89436 0.56158 0.0
C712 C 0.0278 0.89329 0.54968 0.0
C713 C 0.00721 0.87426 0.55782 0.0
C714 C 0.9867 0.88811 0.57091 0.0
C715 C 0.99603 0.85249 0.53575 0.0
C716 C 0.02205 0.86431 0.57585 0.0
C717 C 0.04702 0.87623 0.57806 0.0
C718 C 0.06437 0.86933 0.59313 0.0
C719 C 0.05601 0.84947 0.60589 0.0
C720 C 0.0306 0.83667 0.60328 0.0
C721 C 0.01347 0.8446 0.58835 0.0
H722 H 0.20953 0.78169 0.72373 0.0
H723 H 0.19046 0.7368 0.78006 0.0
H724 H 0.14513 0.73367 0.77011 0.0
H725 H 0.15575 0.81719 0.73309 0.0
H726 H 0.15174 0.8162 0.70041 0.0
H727 H 0.18252 0.81706 0.71361 0.0
H728 H 0.18678 0.77527 0.6817 0.0
H729 H 0.15605 0.77425 0.66846 0.0
H730 H 0.16297 0.74675 0.67949 0.0
H731 H 0.10281 0.73136 0.75116 0.0
H732 H 0.06544 0.73104 0.72524 0.0
H733 H 0.11135 0.77887 0.68186 0.0
C734 C 0.19567 0.77166 0.7342 0.0
C735 C 0.20306 0.75954 0.75268 0.0
C736 C 0.18481 0.74625 0.76591 0.0
C737 C 0.15915 0.74444 0.76043 0.0
C738 C 0.15226 0.75628 0.74182 0.0
C739 C 0.16994 0.76983 0.72902 0.0
C740 C 0.15748 0.77951 0.70898 0.0
C741 C 0.16215 0.80926 0.71435 0.0
C742 C 0.16635 0.76826 0.68314 0.0
C743 C 0.13012 0.76858 0.712 0.0
C744 C 0.12758 0.75539 0.73116 0.0
C745 C 0.10447 0.742 0.7364 0.0
C746 C 0.08339 0.74184 0.72152 0.0
C747 C 0.08553 0.75512 0.70174 0.0
C748 C 0.10913 0.76901 0.69719 0.0
H749 H 0.99056 0.5733 0.54257 0.0
H750 H 0.98488 0.59499 0.4716 0.0
H751 H 0.00121 0.64077 0.49146 0.0
H752 H 0.96852 0.62414 0.57754 0.0
H753 H 0.98919 0.6286 0.60441 0.0
H754 H 0.98146 0.5973 0.58402 0.0
H755 H 0.02881 0.59616 0.57757 0.0
H756 H 0.03676 0.62742 0.59826 0.0
H757 H 0.04838 0.62249 0.56731 0.0
H758 H 0.01048 0.68455 0.52043 0.0
H759 H 0.01584 0.7225 0.55551 0.0
H760 H 0.0172 0.67172 0.60715 0.0
C761 C 0.99354 0.58763 0.53114 0.0
C762 C 0.98666 0.5808 0.50562 0.0
C763 C 0.99043 0.59993 0.49114 0.0
C764 C 0.9996 0.62593 0.50228 0.0
C765 C 0.0053 0.63223 0.52776 0.0
C766 C 0.00291 0.61351 0.54191 0.0
C767 C 0.00839 0.62542 0.56916 0.0
C768 C 0.98553 0.61845 0.58468 0.0
C769 C 0.032 0.6174 0.57863 0.0
C770 C 0.01309 0.65383 0.56835 0.0
C771 C 0.01139 0.65742 0.54432 0.0
C772 C 0.01251 0.682 0.53925 0.0
C773 C 0.01539 0.7034 0.55928 0.0
C774 C 0.01723 0.70004 0.58399 0.0
C775 C 0.01644 0.67494 0.58843 0.0
H776 H 0.79879 0.89754 0.21293 0.0
H777 H 0.75889 0.88025 0.2775 0.0
H778 H 0.78136 0.92141 0.30285 0.0
H779 H 0.85863 0.925 0.24607 0.0
H780 H 0.86648 0.94883 0.2273 0.0
H781 H 0.84682 0.9182 0.21432 0.0
H782 H 0.81249 0.94232 0.20243 0.0
H783 H 0.83189 0.97302 0.21566 0.0
H784 H 0.80046 0.96522 0.22614 0.0
H785 H 0.80711 0.96547 0.32078 0.0
H786 H 0.83742 0.00669 0.33091 0.0
H787 H 0.86234 0.99326 0.25523 0.0
C788 C 0.79503 0.90203 0.23249 0.0
C789 C 0.77684 0.88557 0.24308 0.0
C790 C 0.77232 0.89267 0.26873 0.0
C791 C 0.78508 0.91599 0.28335 0.0
C792 C 0.80255 0.93187 0.27215 0.0
C793 C 0.80781 0.92498 0.2474 0.0
C794 C 0.82785 0.94514 0.23995 0.0
C795 C 0.85134 0.9336 0.23141 0.0
C796 C 0.81754 0.95713 0.21986 0.0
C797 C 0.83299 0.96451 0.26438 0.0
C798 C 0.81802 0.95667 0.28267 0.0
C799 C 0.81906 0.97171 0.30665 0.0
C800 C 0.83622 0.99516 0.31218 0.0
C801 C 0.85229 0.00312 0.29389 0.0
C802 C 0.85042 0.98762 0.26965 0.0
H803 H 0.78079 0.21086 0.3452 0.0
H804 H 0.81268 0.24028 0.28237 0.0
H805 H 0.84628 0.21422 0.28161 0.0
H806 H 0.8415 0.20703 0.37513 0.0
H807 H 0.82839 0.17745 0.38459 0.0
H808 H 0.80868 0.20076 0.38203 0.0
H809 H 0.77795 0.16524 0.35197 0.0
H810 H 0.7976 0.1419 0.35428 0.0
H811 H 0.78972 0.14746 0.32429 0.0
H812 H 0.87373 0.18177 0.28493 0.0
H813 H 0.89343 0.14569 0.29254 0.0
H814 H 0.84396 0.13756 0.35344 0.0
C815 C 0.79526 0.21234 0.33175 0.0
C816 C 0.7942 0.22762 0.31388 0.0
C817 C 0.8131 0.22858 0.29614 0.0
C818 C 0.83232 0.21397 0.29565 0.0
C819 C 0.83246 0.19856 0.31309 0.0
C820 C 0.81455 0.19778 0.33094 0.0
C821 C 0.81792 0.17823 0.3464 0.0
C822 C 0.82452 0.19167 0.37366 0.0
C823 C 0.7944 0.15695 0.34408 0.0
C824 C 0.84009 0.16766 0.33403 0.0
C825 C 0.84835 0.17982 0.31502 0.0
C826 C 0.86766 0.17236 0.3 0.0
C827 C 0.8787 0.15179 0.30442 0.0
C828 C 0.87035 0.13889 0.32366 0.0
C829 C 0.85099 0.14723 0.33879 0.0
H830 H 0.40764 0.0058 0.02007 0.0
H831 H 0.38245 0.07784 0.01769 0.0
H832 H 0.34043 0.05996 0.03049 0.0
H833 H 0.3525 0.96461 0.9938 0.0
H834 H 0.35348 0.94106 0.01267 0.0
H835 H 0.38219 0.96058 0.00606 0.0
H836 H 0.39307 0.97634 0.05321 0.0
H837 H 0.36428 0.95689 0.05997 0.0
H838 H 0.37087 0.99115 0.07315 0.0
H839 H 0.3002 0.03275 0.03919 0.0
H840 H 0.26469 0.9983 0.04327 0.0
H841 H 0.31629 0.94414 0.04041 0.0
C842 C 0.39333 0.01788 0.0224 0.0
C843 C 0.3983 0.04322 0.01791 0.0
C844 C 0.37914 0.05849 0.02134 0.0
C845 C 0.35522 0.04849 0.02856 0.0
C846 C 0.35087 0.02329 0.03251 0.0
C847 C 0.36943 0.00824 0.02967 0.0
C848 C 0.35952 0.98126 0.0336 0.0
C849 C 0.36207 0.96068 0.01013 0.0
C850 C 0.37272 0.97612 0.05634 0.0
C851 C 0.33226 0.98321 0.03832 0.0
C852 C 0.32771 0.00769 0.03784 0.0
C853 C 0.3036 0.01363 0.03999 0.0
C854 C 0.28355 0.99392 0.04224 0.0
C855 C 0.28775 0.96859 0.04235 0.0
C856 C 0.31253 0.96341 0.04087 0.0
H857 H 0.28337 0.41775 0.31908 0.0
H858 H 0.25035 0.3499 0.26428 0.0
H859 H 0.22636 0.37675 0.24491 0.0
H860 H 0.2297 0.44321 0.32963 0.0
H861 H 0.24432 0.47675 0.33388 0.0
H862 H 0.26217 0.45339 0.34036 0.0
H863 H 0.29574 0.46659 0.30967 0.0
H864 H 0.27813 0.4903 0.30329 0.0
H865 H 0.28621 0.46606 0.27818 0.0
H866 H 0.20185 0.41025 0.23537 0.0
H867 H 0.17966 0.44711 0.23607 0.0
H868 H 0.22882 0.49255 0.29775 0.0
C869 C 0.27182 0.40884 0.3024 0.0
C870 C 0.26899 0.38207 0.29266 0.0
C871 C 0.25306 0.37061 0.2715 0.0
C872 C 0.23937 0.38569 0.26049 0.0
C873 C 0.24197 0.41211 0.27097 0.0
C874 C 0.25804 0.4236 0.29133 0.0
C875 C 0.25571 0.45165 0.30065 0.0
C876 C 0.24748 0.45651 0.32772 0.0
C877 C 0.28041 0.46972 0.29777 0.0
C878 C 0.23519 0.45398 0.28297 0.0
C879 C 0.22769 0.43114 0.26574 0.0
C880 C 0.20787 0.42834 0.24853 0.0
C881 C 0.19534 0.44936 0.24909 0.0
C882 C 0.20253 0.47275 0.26691 0.0
C883 C 0.22296 0.47504 0.28376 0.0
H884 H 0.10978 0.0573 0.50756 0.0
H885 H 0.12593 0.98125 0.47519 0.0
H886 H 0.17129 0.99962 0.47664 0.0
H887 H 0.15125 0.09145 0.47397 0.0
H888 H 0.16092 0.11943 0.4986 0.0
H889 H 0.13036 0.0998 0.49863 0.0
H890 H 0.14029 0.0929 0.54255 0.0
H891 H 0.17084 0.11284 0.54281 0.0
H892 H 0.16824 0.08044 0.54808 0.0
H893 H 0.21376 0.02742 0.47571 0.0
H894 H 0.25069 0.06192 0.47598 0.0
H895 H 0.20675 0.11958 0.50981 0.0
C896 C 0.12296 0.04444 0.50135 0.0
C897 C 0.11442 0.01786 0.49137 0.0
C898 C 0.13214 0.0016 0.48327 0.0
C899 C 0.15791 0.01189 0.4839 0.0
C900 C 0.16561 0.03838 0.493 0.0
C901 C 0.14869 0.05435 0.50199 0.0
C902 C 0.16152 0.08238 0.5093 0.0
C903 C 0.15035 0.09924 0.49422 0.0
C904 C 0.16014 0.09274 0.53735 0.0
C905 C 0.18813 0.07982 0.50219 0.0
C906 C 0.19017 0.0543 0.49291 0.0
C907 C 0.21252 0.04742 0.48341 0.0
C908 C 0.23333 0.06715 0.48349 0.0
C909 C 0.23164 0.0934 0.49309 0.0
C910 C 0.20876 0.09966 0.50272 0.0
H911 H 0.79966 0.19409 0.78207 0.0
H912 H 0.77222 0.19509 0.70819 0.0
H913 H 0.73606 0.16111 0.71193 0.0
H914 H 0.78635 0.12598 0.77476 0.0
H915 H 0.77775 0.12674 0.80645 0.0
H916 H 0.79984 0.15303 0.79904 0.0
H917 H 0.77193 0.18563 0.81969 0.0
H918 H 0.74977 0.15945 0.82727 0.0
H919 H 0.73933 0.18077 0.80967 0.0
H920 H 0.70384 0.12555 0.72322 0.0
H921 H 0.67866 0.0909 0.74062 0.0
H922 H 0.72939 0.11121 0.80567 0.0
C923 C 0.78616 0.18719 0.76655 0.0
C924 C 0.78895 0.19731 0.74476 0.0
C925 C 0.77041 0.18798 0.72522 0.0
C926 C 0.74988 0.16854 0.72711 0.0
C927 C 0.74819 0.15857 0.74861 0.0
C928 C 0.76587 0.16759 0.76796 0.0
C929 C 0.76061 0.15277 0.7885 0.0
C930 C 0.78243 0.1388 0.7924 0.0
C931 C 0.75508 0.17073 0.81271 0.0
C932 C 0.73729 0.13374 0.7776 0.0
C933 C 0.73023 0.13759 0.75471 0.0
C934 C 0.70919 0.12239 0.74112 0.0
C935 C 0.69502 0.10276 0.75118 0.0
C936 C 0.70212 0.09827 0.77447 0.0
C937 C 0.72358 0.11402 0.78776 0.0
H938 H 0.40057 0.0202 0.54148 0.0
H939 H 0.44063 0.08312 0.59762 0.0
H940 H 0.42705 0.11491 0.5761 0.0
H941 H 0.4123 0.05372 0.48791 0.0
H942 H 0.38139 0.03993 0.47407 0.0
H943 H 0.39712 0.02223 0.49191 0.0
H944 H 0.35887 0.01845 0.52004 0.0
H945 H 0.34309 0.03612 0.50237 0.0
H946 H 0.34802 0.04744 0.53546 0.0
H947 H 0.40397 0.13927 0.55263 0.0
H948 H 0.37428 0.1548 0.52752 0.0
H949 H 0.35076 0.07657 0.48489 0.0
C950 C 0.40699 0.0407 0.54871 0.0
C951 C 0.4218 0.04948 0.57091 0.0
C952 C 0.42949 0.07626 0.58039 0.0
C953 C 0.42191 0.09439 0.5683 0.0
C954 C 0.40686 0.08528 0.54662 0.0
C955 C 0.39971 0.05908 0.53669 0.0
C956 C 0.38193 0.05448 0.51425 0.0
C957 C 0.39391 0.04184 0.49063 0.0
C958 C 0.35648 0.03817 0.51829 0.0
C959 C 0.3794 0.08209 0.51376 0.0
C960 C 0.39409 0.09956 0.53249 0.0
C961 C 0.3929 0.12589 0.53746 0.0
C962 C 0.37598 0.13454 0.52317 0.0
C963 C 0.36069 0.11696 0.50399 0.0
C964 C 0.36286 0.09053 0.49891 0.0
H965 H 0.6068 0.55154 0.61092 0.0
H966 H 0.59415 0.57173 0.54018 0.0
H967 H 0.61591 0.53685 0.51921 0.0
H968 H 0.66786 0.53836 0.60012 0.0
H969 H 0.6644 0.51141 0.61542 0.0
H970 H 0.64615 0.53662 0.62476 0.0
H971 H 0.60508 0.50259 0.61693 0.0
H972 H 0.62322 0.47721 0.60763 0.0
H973 H 0.59877 0.4809 0.58702 0.0
H974 H 0.64164 0.5024 0.50636 0.0
H975 H 0.66919 0.46977 0.50209 0.0
H976 H 0.66452 0.47041 0.58082 0.0
C977 C 0.60813 0.54825 0.59094 0.0
C978 C 0.59875 0.56442 0.57718 0.0
C979 C 0.60138 0.55981 0.55114 0.0
C980 C 0.61358 0.53993 0.53905 0.0
C981 C 0.62295 0.52466 0.55319 0.0
C982 C 0.62026 0.52843 0.57854 0.0
C983 C 0.63313 0.51001 0.58948 0.0
C984 C 0.65413 0.525 0.60857 0.0
C985 C 0.6139 0.49158 0.60094 0.0
C986 C 0.64385 0.49561 0.56637 0.0
C987 C 0.63762 0.50437 0.54566 0.0
C988 C 0.64638 0.49515 0.52237 0.0
C989 C 0.6621 0.47666 0.52016 0.0
C990 C 0.66888 0.4674 0.54108 0.0
C991 C 0.65933 0.4768 0.56443 0.0
H992 H 0.74384 0.2623 0.381 0.0
H993 H 0.72164 0.31128 0.33411 0.0
H994 H 0.70677 0.3386 0.37054 0.0
H995 H 0.69447 0.26847 0.42602 0.0
H996 H 0.7155 0.27055 0.45209 0.0
H997 H 0.72133 0.2524 0.42191 0.0
H998 H 0.76611 0.27973 0.42379 0.0
H999 H 0.76051 0.2977 0.45403 0.0
H1000 H 0.76986 0.31453 0.42951 0.0
H1001 H 0.69645 0.3623 0.41207 0.0
H1002 H 0.69615 0.38358 0.45618 0.0
H1003 H 0.72795 0.32144 0.47667 0.0
C1004 C 0.73585 0.27871 0.37825 0.0
C1005 C 0.73353 0.2841 0.35433 0.0
C1006 C 0.7229 0.30595 0.3519 0.0
C1007 C 0.71447 0.32178 0.37258 0.0
C1008 C 0.71701 0.31584 0.39575 0.0
C1009 C 0.72775 0.29506 0.39878 0.0
C1010 C 0.73058 0.29449 0.42602 0.0
C1011 C 0.71451 0.27002 0.43184 0.0
C1012 C 0.75842 0.29676 0.43379 0.0
C1013 C 0.72029 0.31856 0.43779 0.0
C1014 C 0.71205 0.33024 0.41996 0.0
C1015 C 0.70269 0.35327 0.42623 0.0
C1016 C 0.70253 0.36517 0.45139 0.0
C1017 C 0.71204 0.35424 0.46999 0.0
C1018 C 0.72038 0.33023 0.463 0.0
H1019 H 0.49891 0.04036 0.90597 0.0
H1020 H 0.53838 0.04542 0.97577 0.0
H1021 H 0.57927 0.05236 0.95546 0.0
H1022 H 0.53826 0.00489 0.86798 0.0
H1023 H 0.53676 0.02097 0.8425 0.0
H1024 H 0.51106 0.01882 0.8631 0.0
H1025 H 0.51483 0.06876 0.87234 0.0
H1026 H 0.54057 0.07105 0.8517 0.0
H1027 H 0.54462 0.08895 0.88339 0.0
H1028 H 0.61543 0.05523 0.9265 0.0
H1029 H 0.64406 0.0541 0.89149 0.0
H1030 H 0.58037 0.04765 0.84093 0.0
C1031 C 0.51625 0.04338 0.91696 0.0
C1032 C 0.51588 0.04257 0.94229 0.0
C1033 C 0.53862 0.04618 0.95627 0.0
C1034 C 0.56181 0.05015 0.94492 0.0
C1035 C 0.56167 0.05056 0.91969 0.0
C1036 C 0.53946 0.0474 0.90592 0.0
C1037 C 0.54433 0.0473 0.8789 0.0
C1038 C 0.53187 0.02146 0.86215 0.0
C1039 C 0.53557 0.0704 0.87114 0.0
C1040 C 0.5727 0.0503 0.87946 0.0
C1041 C 0.58241 0.05233 0.90314 0.0
C1042 C 0.60807 0.05397 0.90792 0.0
C1043 C 0.62417 0.05327 0.88791 0.0
C1044 C 0.61451 0.0509 0.86346 0.0
C1045 C 0.58845 0.04975 0.85939 0.0
H1046 H 0.33389 0.26415 0.35426 0.0
H1047 H 0.25759 0.28003 0.35582 0.0
H1048 H 0.2471 0.25244 0.38607 0.0
H1049 H 0.31571 0.19597 0.35807 0.0
H1050 H 0.34292 0.1964 0.37725 0.0
H1051 H 0.34474 0.21743 0.35547 0.0
H1052 H 0.35985 0.25713 0.39108 0.0
H1053 H 0.358 0.23627 0.41297 0.0
H1054 H 0.34105 0.26292 0.41798 0.0
H1055 H 0.24527 0.22587 0.4178 0.0
H1056 H 0.25137 0.19898 0.44774 0.0
H1057 H 0.32756 0.19651 0.4238 0.0
C1058 C 0.31487 0.26156 0.36066 0.0
C1059 C 0.2967 0.27471 0.35282 0.0
C1060 C 0.2721 0.27086 0.36195 0.0
C1061 C 0.26584 0.25499 0.37899 0.0
C1062 C 0.28422 0.24265 0.38651 0.0
C1063 C 0.30814 0.24542 0.3775 0.0
C1064 C 0.32425 0.22984 0.38879 0.0
C1065 C 0.33238 0.20865 0.3687 0.0
C1066 C 0.34714 0.24761 0.40358 0.0
C1067 C 0.30569 0.21823 0.40582 0.0
C1068 C 0.28277 0.22608 0.40421 0.0
C1069 C 0.26299 0.21929 0.41902 0.0
C1070 C 0.26668 0.20411 0.43603 0.0
C1071 C 0.28984 0.19555 0.43791 0.0
C1072 C 0.30954 0.20247 0.42241 0.0
H1073 H 0.54715 0.55351 0.94217 0.0
H1074 H 0.48985 0.50727 0.97771 0.0
H1075 H 0.45771 0.51339 0.94903 0.0
H1076 H 0.51098 0.59778 0.927 0.0
H1077 H 0.5237 0.59758 0.89677 0.0
H1078 H 0.54238 0.5914 0.92127 0.0
H1079 H 0.54853 0.54773 0.89359 0.0
H1080 H 0.53014 0.5539 0.8689 0.0
H1081 H 0.52134 0.52442 0.88003 0.0
H1082 H 0.43138 0.52601 0.91775 0.0
H1083 H 0.41345 0.53818 0.88156 0.0
H1084 H 0.48836 0.57029 0.86237 0.0
C1085 C 0.52802 0.54417 0.94388 0.0
C1086 C 0.5213 0.53025 0.96284 0.0
C1087 C 0.49569 0.51885 0.96416 0.0
C1088 C 0.47719 0.52201 0.94775 0.0
C1089 C 0.48455 0.53603 0.9296 0.0
C1090 C 0.5094 0.54637 0.92715 0.0
C1091 C 0.5125 0.55905 0.90492 0.0
C1092 C 0.52301 0.58818 0.91299 0.0
C1093 C 0.5291 0.54546 0.88573 0.0
C1094 C 0.48541 0.55431 0.89535 0.0
C1095 C 0.46957 0.54148 0.91022 0.0
C1096 C 0.44361 0.5358 0.90581 0.0
C1097 C 0.4336 0.54294 0.88533 0.0
C1098 C 0.44957 0.55506 0.86923 0.0
C1099 C 0.4758 0.56089 0.87436 0.0
H1100 H 0.74297 0.77597 0.16623 0.0
H1101 H 0.79762 0.84475 0.16255 0.0
H1102 H 0.81377 0.82091 0.12458 0.0
H1103 H 0.77928 0.72659 0.13843 0.0
H1104 H 0.75228 0.70631 0.12094 0.0
H1105 H 0.74828 0.72699 0.15039 0.0
H1106 H 0.71669 0.74812 0.12948 0.0
H1107 H 0.7205 0.72746 0.10007 0.0
H1108 H 0.72614 0.76211 0.10317 0.0
H1109 H 0.82204 0.79026 0.08499 0.0
H1110 H 0.81819 0.75758 0.04535 0.0
H1111 H 0.75432 0.7121 0.0726 0.0
C1112 C 0.75832 0.78626 0.15761 0.0
C1113 C 0.76896 0.8124 0.16775 0.0
C1114 C 0.78939 0.82461 0.15575 0.0
C1115 C 0.79868 0.81123 0.13401 0.0
C1116 C 0.7872 0.78575 0.12426 0.0
C1117 C 0.76726 0.77354 0.13558 0.0
C1118 C 0.75601 0.74735 0.11991 0.0
C1119 C 0.75916 0.72552 0.13322 0.0
C1120 C 0.7282 0.74621 0.11273 0.0
C1121 C 0.77234 0.74696 0.09767 0.0
C1122 C 0.79075 0.7689 0.1008 0.0
C1123 C 0.80779 0.77297 0.08241 0.0
C1124 C 0.80555 0.75437 0.06007 0.0
C1125 C 0.78604 0.73255 0.05626 0.0
C1126 C 0.76947 0.72866 0.07533 0.0
H1127 H 0.02435 0.06063 0.14232 0.0
H1128 H 0.05479 0.14258 0.16715 0.0
H1129 H 0.03016 0.14366 0.20472 0.0
H1130 H 0.96319 0.06153 0.16408 0.0
H1131 H 0.96026 0.03148 0.17448 0.0
H1132 H 0.98034 0.03685 0.14935 0.0
H1133 H 0.01817 0.02782 0.1731 0.0
H1134 H 0.99813 0.02207 0.19818 0.0
H1135 H 0.02656 0.04594 0.20426 0.0
H1136 H 0.99977 0.13668 0.23814 0.0
H1137 H 0.97009 0.12063 0.26791 0.0
H1138 H 0.96275 0.04263 0.22351 0.0
C1139 C 0.0263 0.07873 0.15581 0.0
C1140 C 0.04126 0.10162 0.15136 0.0
C1141 C 0.04293 0.1249 0.1696 0.0
C1142 C 0.02914 0.12571 0.19116 0.0
C1143 C 0.01411 0.10299 0.19458 0.0
C1144 C 0.01303 0.07981 0.1777 0.0
C1145 C 0.99581 0.05805 0.18613 0.0
C1146 C 0.97359 0.04629 0.16739 0.0
C1147 C 0.01055 0.03724 0.1907 0.0
C1148 C 0.98715 0.07271 0.21021 0.0
C1149 C 0.9977 0.09868 0.21459 0.0
C1150 C 0.99165 0.11633 0.23509 0.0
C1151 C 0.97468 0.10709 0.25179 0.0
C1152 C 0.96433 0.08042 0.24806 0.0
C1153 C 0.97063 0.06309 0.22694 0.0
H1154 H 0.32409 0.79111 0.14835 0.0
H1155 H 0.26823 0.79652 0.2045 0.0
H1156 H 0.24323 0.81682 0.17866 0.0
H1157 H 0.32352 0.85138 0.13396 0.0
H1158 H 0.32771 0.84103 0.1012 0.0
H1159 H 0.33948 0.82457 0.12284 0.0
H1160 H 0.31378 0.78085 0.0992 0.0
H1161 H 0.30206 0.79717 0.07732 0.0
H1162 H 0.28036 0.77788 0.09383 0.0
H1163 H 0.22638 0.8398 0.14767 0.0
H1164 H 0.21883 0.8626 0.11433 0.0
H1165 H 0.28628 0.84181 0.07905 0.0
C1166 C 0.30628 0.79605 0.15485 0.0
C1167 C 0.29771 0.79208 0.17806 0.0
C1168 C 0.27474 0.79922 0.18649 0.0
C1169 C 0.26053 0.81075 0.17198 0.0
C1170 C 0.26967 0.81488 0.14919 0.0
C1171 C 0.29197 0.80755 0.14064 0.0
C1172 C 0.29852 0.81535 0.11628 0.0
C1173 C 0.3238 0.8342 0.11873 0.0
C1174 C 0.29868 0.79138 0.09542 0.0
C1175 C 0.27673 0.82867 0.11262 0.0
C1176 C 0.26015 0.8281 0.13164 0.0
C1177 C 0.23911 0.84011 0.13256 0.0
C1178 C 0.23499 0.85306 0.11358 0.0
C1179 C 0.25191 0.85395 0.09404 0.0
C1180 C 0.27289 0.84139 0.09362 0.0
H1181 H 0.00256 0.46137 0.09819 0.0
H1182 H 0.97532 0.53339 0.10026 0.0
H1183 H 0.99914 0.55254 0.13988 0.0
H1184 H 0.00392 0.46375 0.16448 0.0
H1185 H 0.03273 0.45101 0.16402 0.0
H1186 H 0.01163 0.44208 0.13704 0.0
H1187 H 0.04784 0.45818 0.11022 0.0
H1188 H 0.06905 0.46714 0.13708 0.0
H1189 H 0.06487 0.49089 0.11931 0.0
H1190 H 0.02731 0.56453 0.17817 0.0
H1191 H 0.05896 0.56916 0.2118 0.0
H1192 H 0.07003 0.49023 0.18343 0.0
C1193 C 0.00158 0.48121 0.10685 0.0
C1194 C 0.9869 0.4958 0.096 0.0
C1195 C 0.98597 0.52158 0.10832 0.0
C1196 C 0.99958 0.53271 0.13079 0.0
C1197 C 0.01412 0.51787 0.14068 0.0
C1198 C 0.01528 0.49272 0.12908 0.0
C1199 C 0.03342 0.48142 0.14286 0.0
C1200 C 0.01959 0.45819 0.15269 0.0
C1201 C 0.05507 0.47398 0.12638 0.0
C1202 C 0.04259 0.50433 0.16387 0.0
C1203 C 0.03096 0.52503 0.16241 0.0
C1204 C 0.03648 0.54844 0.17955 0.0
C1205 C 0.0545 0.55085 0.1986 0.0
C1206 C 0.06701 0.53006 0.20024 0.0
C1207 C 0.06081 0.50646 0.18267 0.0
H1208 H 0.3827 0.77467 0.27539 0.0
H1209 H 0.3629 0.69069 0.2597 0.0
H1210 H 0.39562 0.68916 0.29033 0.0
H1211 H 0.45046 0.77629 0.28066 0.0
H1212 H 0.45508 0.80541 0.30458 0.0
H1213 H 0.42995 0.79961 0.28146 0.0
H1214 H 0.39791 0.80503 0.31629 0.0
H1215 H 0.42286 0.81054 0.3395 0.0
H1216 H 0.39619 0.78505 0.33902 0.0
H1217 H 0.42869 0.69743 0.32565 0.0
H1218 H 0.4625 0.71464 0.35852 0.0
H1219 H 0.46301 0.79217 0.34677 0.0
C1220 C 0.38547 0.75582 0.27779 0.0
C1221 C 0.36978 0.73285 0.26516 0.0
C1222 C 0.37406 0.70872 0.26952 0.0
C1223 C 0.39279 0.70758 0.28678 0.0
C1224 C 0.40752 0.73068 0.29916 0.0
C1225 C 0.40439 0.75427 0.29444 0.0
C1226 C 0.42287 0.77631 0.30982 0.0
C1227 C 0.44065 0.79022 0.29313 0.0
C1228 C 0.40913 0.79534 0.32718 0.0
C1229 C 0.43666 0.76149 0.32423 0.0
C1230 C 0.42743 0.73521 0.31812 0.0
C1231 C 0.43635 0.71793 0.33027 0.0
C1232 C 0.45541 0.72782 0.34894 0.0
C1233 C 0.46552 0.7546 0.35483 0.0
C1234 C 0.45596 0.77151 0.34226 0.0
H1235 H 0.97914 0.40757 0.02908 0.0
H1236 H 0.99142 0.469 0.98803 0.0
H1237 H 0.0123 0.44152 0.95549 0.0
H1238 H 0.03707 0.38302 0.0144 0.0
H1239 H 0.02245 0.34958 0.0111 0.0
H1240 H 0.00979 0.37455 0.03177 0.0
H1241 H 0.9662 0.35846 0.00882 0.0
H1242 H 0.97869 0.33339 0.98817 0.0
H1243 H 0.96371 0.35582 0.97573 0.0
H1244 H 0.03166 0.40762 0.9278 0.0
H1245 H 0.04511 0.36815 0.90448 0.0
H1246 H 0.01825 0.32763 0.9625 0.0
C1247 C 0.9864 0.41514 0.01325 0.0
C1248 C 0.98398 0.44027 0.01086 0.0
C1249 C 0.99328 0.4497 0.98995 0.0
C1250 C 0.00519 0.43432 0.97154 0.0
C1251 C 0.00734 0.40954 0.97434 0.0
C1252 C 0.99798 0.39987 0.99451 0.0
C1253 C 0.00153 0.3721 0.99233 0.0
C1254 C 0.01874 0.36968 0.01367 0.0
C1255 C 0.97601 0.35387 0.99119 0.0
C1256 C 0.01426 0.36764 0.96773 0.0
C1257 C 0.01772 0.38961 0.95787 0.0
C1258 C 0.02904 0.39028 0.9353 0.0
C1259 C 0.03668 0.36776 0.92224 0.0
C1260 C 0.0327 0.34476 0.93163 0.0
C1261 C 0.02153 0.34487 0.95481 0.0
H1262 H 0.64685 0.84916 0.26062 0.0
H1263 H 0.69992 0.80174 0.27551 0.0
H1264 H 0.6782 0.79566 0.31405 0.0
H1265 H 0.63856 0.88002 0.32635 0.0
H1266 H 0.60552 0.87936 0.32081 0.0
H1267 H 0.62714 0.88238 0.2963 0.0
H1268 H 0.60035 0.84207 0.26789 0.0
H1269 H 0.57876 0.83887 0.29229 0.0
H1270 H 0.5937 0.81206 0.27845 0.0
H1271 H 0.64773 0.791 0.34826 0.0
H1272 H 0.61153 0.78875 0.37569 0.0
H1273 H 0.57907 0.83991 0.33834 0.0
C1274 C 0.65417 0.83806 0.27241 0.0
C1275 C 0.67503 0.82609 0.26559 0.0
C1276 C 0.684 0.81121 0.28087 0.0
C1277 C 0.67183 0.80771 0.3027 0.0
C1278 C 0.65089 0.8194 0.30885 0.0
C1279 C 0.64227 0.83446 0.29424 0.0
C1280 C 0.61843 0.84341 0.30394 0.0
C1281 C 0.62268 0.87305 0.31235 0.0
C1282 C 0.59653 0.8335 0.28449 0.0
C1283 C 0.61452 0.8304 0.32583 0.0
C1284 C 0.63351 0.81682 0.32855 0.0
C1285 C 0.63296 0.80191 0.34656 0.0
C1286 C 0.61233 0.8007 0.36202 0.0
C1287 C 0.59257 0.81426 0.35926 0.0
C1288 C 0.59401 0.82956 0.34115 0.0
H1289 H 0.03221 0.15818 0.03509 0.0
H1290 H 0.11173 0.15533 0.03153 0.0
H1291 H 0.11372 0.17345 0.99344 0.0
H1292 H 0.01767 0.14362 0.96688 0.0
H1293 H 0.99578 0.16584 0.97026 0.0
H1294 H 0.00021 0.14919 0.99474 0.0
H1295 H 0.01083 0.19327 0.02595 0.0
H1296 H 0.00669 0.21005 0.0016 0.0
H1297 H 0.03592 0.21769 0.01964 0.0
H1298 H 0.10755 0.19656 0.95859 0.0
H1299 H 0.0939 0.22192 0.9299 0.0
H1300 H 0.01835 0.20962 0.95707 0.0
C1301 C 0.04981 0.16062 0.02574 0.0
C1302 C 0.07173 0.15502 0.03566 0.0
C1303 C 0.0947 0.15914 0.02369 0.0
C1304 C 0.09596 0.16944 0.00216 0.0
C1305 C 0.07404 0.17539 0.99302 0.0
C1306 C 0.05134 0.1709 0.00437 0.0
C1307 C 0.03099 0.1809 0.99229 0.0
C1308 C 0.00992 0.15855 0.98033 0.0
C1309 C 0.02051 0.20171 0.01098 0.0
C1310 C 0.04587 0.19242 0.97282 0.0
C1311 C 0.07059 0.18885 0.97329 0.0
C1312 C 0.08815 0.19914 0.95784 0.0
C1313 C 0.08024 0.21356 0.94165 0.0
C1314 C 0.05505 0.21769 0.94117 0.0
C1315 C 0.03769 0.20666 0.9568 0.0
H1316 H 0.35638 0.33673 0.27691 0.0
H1317 H 0.32971 0.25451 0.27198 0.0
H1318 H 0.36236 0.2444 0.24241 0.0
H1319 H 0.36958 0.32974 0.21009 0.0
H1320 H 0.39667 0.35533 0.21607 0.0
H1321 H 0.37068 0.3562 0.23651 0.0
H1322 H 0.40122 0.35988 0.27389 0.0
H1323 H 0.42724 0.35868 0.25358 0.0
H1324 H 0.42063 0.33559 0.27329 0.0
H1325 H 0.40072 0.24317 0.2174 0.0
H1326 H 0.4388 0.25075 0.19327 0.0
H1327 H 0.43763 0.33315 0.20986 0.0
C1328 C 0.3569 0.31656 0.26922 0.0
C1329 C 0.34064 0.29648 0.27736 0.0
C1330 C 0.34237 0.27037 0.26683 0.0
C1331 C 0.36074 0.26436 0.24979 0.0
C1332 C 0.37689 0.28461 0.24284 0.0
C1333 C 0.37478 0.31016 0.2517 0.0
C1334 C 0.39452 0.32821 0.24101 0.0
C1335 C 0.38212 0.34326 0.22496 0.0
C1336 C 0.41193 0.34667 0.26168 0.0
C1337 C 0.40841 0.30879 0.22527 0.0
C1338 C 0.39805 0.28376 0.22684 0.0
C1339 C 0.4087 0.2626 0.21557 0.0
C1340 C 0.43037 0.26709 0.20208 0.0
C1341 C 0.44083 0.29244 0.19958 0.0
C1342 C 0.42965 0.31354 0.21119 0.0
H1343 H 0.51002 0.46173 0.05608 0.0
H1344 H 0.58559 0.49347 0.08646 0.0
H1345 H 0.58413 0.45701 0.10818 0.0
H1346 H 0.48551 0.441 0.10974 0.0
H1347 H 0.46589 0.41195 0.0927 0.0
H1348 H 0.47357 0.43977 0.07886 0.0
H1349 H 0.49158 0.41188 0.04117 0.0
H1350 H 0.4838 0.38393 0.05482 0.0
H1351 H 0.51563 0.39384 0.0463 0.0
H1352 H 0.57333 0.41736 0.12749 0.0
H1353 H 0.55468 0.37783 0.1421 0.0
H1354 H 0.48607 0.37291 0.09885 0.0
C1355 C 0.52631 0.46076 0.06713 0.0
C1356 C 0.54798 0.48002 0.06965 0.0
C1357 C 0.56893 0.47858 0.08433 0.0
C1358 C 0.56821 0.45803 0.0967 0.0
C1359 C 0.54637 0.43929 0.09406 0.0
C1360 C 0.52585 0.44047 0.07954 0.0
C1361 C 0.50446 0.41832 0.08006 0.0
C1362 C 0.48098 0.42837 0.091 0.0
C1363 C 0.49853 0.40096 0.05404 0.0
C1364 C 0.516 0.40453 0.0973 0.0
C1365 C 0.54019 0.41681 0.10517 0.0
C1366 C 0.55442 0.40757 0.12137 0.0
C1367 C 0.54367 0.38514 0.12961 0.0
C1368 C 0.51891 0.37228 0.12166 0.0
C1369 C 0.50502 0.38225 0.10532 0.0
H1370 H 0.65918 0.23537 0.25204 0.0
H1371 H 0.7099 0.30715 0.25143 0.0
H1372 H 0.67438 0.32579 0.23823 0.0
H1373 H 0.6238 0.23363 0.19833 0.0
H1374 H 0.59412 0.22026 0.20945 0.0
H1375 H 0.62296 0.21387 0.22119 0.0
H1376 H 0.61123 0.23219 0.26616 0.0
H1377 H 0.58228 0.23863 0.25453 0.0
H1378 H 0.60394 0.26439 0.27402 0.0
H1379 H 0.6337 0.33488 0.22163 0.0
H1380 H 0.59163 0.33363 0.20295 0.0
H1381 H 0.56796 0.25581 0.21515 0.0
C1382 C 0.66259 0.25516 0.24952 0.0
C1383 C 0.68694 0.27005 0.25279 0.0
C1384 C 0.69113 0.29568 0.24907 0.0
C1385 C 0.67112 0.30636 0.24165 0.0
C1386 C 0.64717 0.29108 0.23823 0.0
C1387 C 0.64285 0.26606 0.24217 0.0
C1388 C 0.61579 0.25312 0.23585 0.0
C1389 C 0.61408 0.22879 0.21496 0.0
C1390 C 0.60253 0.24672 0.25903 0.0
C1391 C 0.60567 0.27448 0.22713 0.0
C1392 C 0.62392 0.29633 0.22881 0.0
C1393 C 0.61917 0.31799 0.22052 0.0
C1394 C 0.59524 0.31712 0.20994 0.0
C1395 C 0.57647 0.2947 0.2077 0.0
C1396 C 0.58178 0.27336 0.21681 0.0
H1397 H 0.43818 0.13283 0.02174 0.0
H1398 H 0.50841 0.1044 0.02464 0.0
H1399 H 0.52911 0.14762 0.04736 0.0
H1400 H 0.46636 0.20013 0.0167 0.0
H1401 H 0.44335 0.21386 0.03633 0.0
H1402 H 0.43504 0.18192 0.01695 0.0
H1403 H 0.42103 0.16339 0.05556 0.0
H1404 H 0.42928 0.19518 0.07501 0.0
H1405 H 0.44289 0.16881 0.08168 0.0
H1406 H 0.54037 0.19121 0.07499 0.0
H1407 H 0.54176 0.23276 0.10478 0.0
H1408 H 0.46461 0.23365 0.0835 0.0
C1409 C 0.45802 0.13583 0.02681 0.0
C1410 C 0.47172 0.11528 0.02134 0.0
C1411 C 0.49765 0.11995 0.02827 0.0
C1412 C 0.50955 0.14443 0.04123 0.0
C1413 C 0.49535 0.16408 0.04686 0.0
C1414 C 0.47021 0.16015 0.03968 0.0
C1415 C 0.45869 0.18385 0.04983 0.0
C1416 C 0.45038 0.19564 0.02869 0.0
C1417 C 0.43669 0.17741 0.06651 0.0
C1418 C 0.48101 0.20133 0.06474 0.0
C1419 C 0.50205 0.18964 0.06253 0.0
C1420 C 0.52423 0.20083 0.07643 0.0
C1421 C 0.52481 0.22436 0.09335 0.0
C1422 C 0.5034 0.23649 0.09614 0.0
C1423 C 0.48144 0.22511 0.08122 0.0
H1424 H 0.34387 0.36764 0.73256 0.0
H1425 H 0.27261 0.37045 0.76819 0.0
H1426 H 0.28315 0.41838 0.77872 0.0
H1427 H 0.37964 0.41662 0.7767 0.0
H1428 H 0.40004 0.42969 0.75482 0.0
H1429 H 0.38554 0.39608 0.74777 0.0
H1430 H 0.36617 0.40205 0.70672 0.0
H1431 H 0.38063 0.43575 0.71367 0.0
H1432 H 0.34713 0.42667 0.70755 0.0
H1433 H 0.30287 0.46582 0.78745 0.0
H1434 H 0.33096 0.50838 0.79625 0.0
H1435 H 0.38956 0.47391 0.75528 0.0
C1436 C 0.3302 0.37836 0.74204 0.0
C1437 C 0.30728 0.36541 0.7493 0.0
C1438 C 0.29025 0.38006 0.76243 0.0
C1439 C 0.29601 0.40724 0.76832 0.0
C1440 C 0.31888 0.41939 0.76098 0.0
C1441 C 0.33572 0.40538 0.74818 0.0
C1442 C 0.35989 0.4228 0.74419 0.0
C1443 C 0.3826 0.41588 0.75662 0.0
C1444 C 0.36367 0.42175 0.71638 0.0
C1445 C 0.35431 0.44882 0.75724 0.0
C1446 C 0.33043 0.44654 0.76645 0.0
C1447 C 0.32151 0.46785 0.78014 0.0
C1448 C 0.33764 0.49197 0.785 0.0
C1449 C 0.36251 0.49455 0.77645 0.0
C1450 C 0.37064 0.47269 0.76195 0.0
H1451 H 0.29699 0.71682 0.8431 0.0
H1452 H 0.34008 0.75521 0.79091 0.0
H1453 H 0.37112 0.7261 0.78971 0.0
H1454 H 0.35177 0.70144 0.8761 0.0
H1455 H 0.33421 0.67044 0.87887 0.0
H1456 H 0.31815 0.69727 0.87907 0.0
H1457 H 0.28878 0.66951 0.84253 0.0
H1458 H 0.30491 0.64277 0.84195 0.0
H1459 H 0.30234 0.65524 0.81427 0.0
H1460 H 0.39404 0.68921 0.78978 0.0
H1461 H 0.40759 0.64796 0.79178 0.0
H1462 H 0.34909 0.63317 0.84347 0.0
C1463 C 0.31352 0.71971 0.83222 0.0
C1464 C 0.31641 0.73842 0.81735 0.0
C1465 C 0.33772 0.74109 0.80257 0.0
C1466 C 0.35543 0.72468 0.80182 0.0
C1467 C 0.35155 0.70574 0.81598 0.0
C1468 C 0.33123 0.70332 0.8311 0.0
C1469 C 0.32992 0.67973 0.84242 0.0
C1470 C 0.33375 0.6877 0.8708 0.0
C1471 C 0.30502 0.6607 0.83483 0.0
C1472 C 0.3521 0.66874 0.83063 0.0
C1473 C 0.36456 0.68421 0.81573 0.0
C1474 C 0.38468 0.67717 0.80172 0.0
C1475 C 0.39219 0.65365 0.80289 0.0
C1476 C 0.37946 0.63736 0.81782 0.0
C1477 C 0.35936 0.64527 0.83204 0.0
H1478 H 0.91467 0.47314 0.50291 0.0
H1479 H 0.90056 0.55186 0.51336 0.0
H1480 H 0.85966 0.53864 0.53086 0.0
H1481 H 0.85276 0.4424 0.48285 0.0
H1482 H 0.85258 0.4158 0.49821 0.0
H1483 H 0.88179 0.43195 0.48866 0.0
H1484 H 0.90019 0.44108 0.53376 0.0
H1485 H 0.87091 0.42507 0.54347 0.0
H1486 H 0.88384 0.45788 0.55872 0.0
H1487 H 0.81901 0.51651 0.54377 0.0
H1488 H 0.78085 0.48655 0.55067 0.0
H1489 H 0.82111 0.42213 0.53235 0.0
C1490 C 0.90303 0.48761 0.50901 0.0
C1491 C 0.91096 0.5136 0.50699 0.0
C1492 C 0.89515 0.53196 0.51519 0.0
C1493 C 0.87183 0.52463 0.52509 0.0
C1494 C 0.86458 0.49889 0.5268 0.0
C1495 C 0.87967 0.48064 0.51902 0.0
C1496 C 0.86677 0.45397 0.52167 0.0
C1497 C 0.86326 0.43492 0.49634 0.0
C1498 C 0.8813 0.44392 0.54053 0.0
C1499 C 0.84182 0.46001 0.53152 0.0
C1500 C 0.84106 0.48608 0.53453 0.0
C1501 C 0.81946 0.4961 0.54183 0.0
C1502 C 0.79788 0.47894 0.54567 0.0
C1503 C 0.79807 0.45206 0.54227 0.0
C1504 C 0.82053 0.44264 0.53561 0.0
H1505 H 0.7302 0.86171 0.76518 0.0
H1506 H 0.78427 0.87677 0.82691 0.0
H1507 H 0.77125 0.91914 0.84302 0.0
H1508 H 0.73971 0.92509 0.75463 0.0
H1509 H 0.70721 0.92484 0.74688 0.0
H1510 H 0.71924 0.89498 0.74145 0.0
H1511 H 0.68462 0.87561 0.76812 0.0
H1512 H 0.67233 0.90536 0.77347 0.0
H1513 H 0.68115 0.89265 0.79941 0.0
H1514 H 0.75437 0.96087 0.85049 0.0
H1515 H 0.73393 0.99848 0.84999 0.0
H1516 H 0.69047 0.95603 0.78327 0.0
C1517 C 0.73886 0.87379 0.78236 0.0
C1518 C 0.75793 0.86618 0.79512 0.0
C1519 C 0.76938 0.8824 0.81719 0.0
C1520 C 0.76214 0.90642 0.82638 0.0
C1521 C 0.74345 0.91368 0.81318 0.0
C1522 C 0.73182 0.89776 0.79175 0.0
C1523 C 0.713 0.91053 0.78055 0.0
C1524 C 0.72024 0.91407 0.75433 0.0
C1525 C 0.68618 0.89512 0.78039 0.0
C1526 C 0.71612 0.93631 0.79879 0.0
C1527 C 0.73372 0.9377 0.8175 0.0
C1528 C 0.7404 0.95991 0.83606 0.0
C1529 C 0.72873 0.98121 0.83555 0.0
C1530 C 0.71055 0.98021 0.81662 0.0
C1531 C 0.70418 0.95737 0.79806 0.0
H1532 H 0.61868 0.56622 0.0219 0.0
H1533 H 0.61032 0.50929 0.95264 0.0
H1534 H 0.65312 0.52764 0.94161 0.0
H1535 H 0.64646 0.61746 0.99748 0.0
H1536 H 0.66745 0.63301 0.02381 0.0
H1537 H 0.63832 0.61275 0.02811 0.0
H1538 H 0.66239 0.58451 0.04908 0.0
H1539 H 0.69166 0.60496 0.0452 0.0
H1540 H 0.68744 0.57054 0.03312 0.0
H1541 H 0.6955 0.55526 0.93673 0.0
H1542 H 0.73292 0.58969 0.93823 0.0
H1543 H 0.71158 0.62903 0.01002 0.0
C1544 C 0.62624 0.55697 0.00485 0.0
C1545 C 0.61145 0.53607 0.98831 0.0
C1546 C 0.62154 0.52516 0.96567 0.0
C1547 C 0.64579 0.53544 0.95929 0.0
C1548 C 0.6596 0.55664 0.97574 0.0
C1549 C 0.65016 0.56717 0.99812 0.0
C1550 C 0.66744 0.59142 0.01147 0.0
C1551 C 0.65412 0.61504 0.01543 0.0
C1552 C 0.67785 0.58762 0.03618 0.0
C1553 C 0.68781 0.59333 0.99286 0.0
C1554 C 0.68327 0.57294 0.97254 0.0
C1555 C 0.69932 0.57118 0.95267 0.0
C1556 C 0.72047 0.59083 0.95364 0.0
C1557 C 0.72508 0.61211 0.97415 0.0
C1558 C 0.70854 0.61312 0.994 0.0
H1559 H 0.28504 0.69447 0.27035 0.0
H1560 H 0.26952 0.69995 0.19437 0.0
H1561 H 0.23179 0.6662 0.19218 0.0
H1562 H 0.27159 0.6262 0.25786 0.0
H1563 H 0.25861 0.6244 0.28767 0.0
H1564 H 0.2821 0.65165 0.28459 0.0
H1565 H 0.2521 0.68296 0.30306 0.0
H1566 H 0.22849 0.65579 0.30623 0.0
H1567 H 0.22107 0.67886 0.28903 0.0
H1568 H 0.19643 0.6304 0.19788 0.0
H1569 H 0.16845 0.59358 0.20982 0.0
H1570 H 0.21094 0.60811 0.27972 0.0
C1571 C 0.27396 0.68863 0.25309 0.0
C1572 C 0.28053 0.70009 0.23252 0.0
C1573 C 0.26482 0.69201 0.21063 0.0
C1574 C 0.24338 0.67266 0.20912 0.0
C1575 C 0.23803 0.66133 0.22952 0.0
C1576 C 0.25303 0.66889 0.251 0.0
C1577 C 0.24462 0.65222 0.26952 0.0
C1578 C 0.26547 0.63776 0.27523 0.0
C1579 C 0.23606 0.66843 0.29337 0.0
C1580 C 0.22266 0.63382 0.255 0.0
C1581 C 0.2188 0.63972 0.23218 0.0
C1582 C 0.19933 0.62558 0.21567 0.0
C1583 C 0.18355 0.60477 0.22261 0.0
C1584 C 0.18774 0.59798 0.24558 0.0
C1585 C 0.20751 0.61275 0.26194 0.0
H1586 H 0.90045 0.52426 0.99695 0.0
H1587 H 0.89978 0.54776 0.07693 0.0
H1588 H 0.88376 0.58745 0.07266 0.0
H1589 H 0.91808 0.59 0.98376 0.0
H1590 H 0.89784 0.58174 0.95616 0.0
H1591 H 0.91212 0.55723 0.96585 0.0
H1592 H 0.86808 0.52892 0.96605 0.0
H1593 H 0.85371 0.55328 0.95641 0.0
H1594 H 0.84397 0.54233 0.98425 0.0
H1595 H 0.86376 0.62207 0.05909 0.0
H1596 H 0.84094 0.6481 0.03779 0.0
H1597 H 0.85513 0.60148 0.96661 0.0
C1598 C 0.89745 0.53815 0.01351 0.0
C1599 C 0.90148 0.53344 0.03724 0.0
C1600 C 0.89696 0.55145 0.05862 0.0
C1601 C 0.88794 0.57396 0.05633 0.0
C1602 C 0.88374 0.57799 0.03253 0.0
C1603 C 0.88849 0.56059 0.0115 0.0
C1604 C 0.88064 0.56821 0.98809 0.0
C1605 C 0.90354 0.57468 0.97255 0.0
C1606 C 0.8604 0.54692 0.97282 0.0
C1607 C 0.87002 0.59219 0.99915 0.0
C1608 C 0.87223 0.59776 0.02478 0.0
C1609 C 0.86227 0.6181 0.03902 0.0
C1610 C 0.84934 0.63279 0.02675 0.0
C1611 C 0.84636 0.62694 0.00052 0.0
C1612 C 0.85734 0.60669 0.98665 0.0
H1613 H 0.10285 0.0505 0.11221 0.0
H1614 H 0.07265 0.05912 0.04193 0.0
H1615 H 0.09235 0.02305 0.02003 0.0
H1616 H 0.1613 0.03698 0.09116 0.0
H1617 H 0.16335 0.01336 0.1097 0.0
H1618 H 0.14549 0.0387 0.12008 0.0
H1619 H 0.10613 0.00439 0.12313 0.0
H1620 H 0.12389 0.97889 0.11273 0.0
H1621 H 0.09504 0.97919 0.09636 0.0
H1622 H 0.11806 0.98882 0.00544 0.0
H1623 H 0.14797 0.9583 0.9991 0.0
H1624 H 0.15984 0.96983 0.07879 0.0
C1625 C 0.09991 0.04448 0.09227 0.0
C1626 C 0.0862 0.05777 0.07881 0.0
C1627 C 0.08333 0.04955 0.05265 0.0
C1628 C 0.09426 0.0289 0.04005 0.0
C1629 C 0.10781 0.01643 0.05385 0.0
C1630 C 0.11057 0.02377 0.07939 0.0
C1631 C 0.12705 0.00785 0.08966 0.0
C1632 C 0.1507 0.02526 0.10345 0.0
C1633 C 0.11213 0.99162 0.10647 0.0
C1634 C 0.1336 0.99082 0.06583 0.0
C1635 C 0.12218 0.99605 0.04542 0.0
C1636 C 0.12677 0.98423 0.02128 0.0
C1637 C 0.1438 0.96696 0.01787 0.0
C1638 C 0.1559 0.96146 0.03846 0.0
C1639 C 0.15034 0.97319 0.06276 0.0
loop_
_geom_bond_atom_site_label_1
_geom_bond_atom_site_label_2
_geom_bond_distance
_geom_bond_site_symmetry_2
_ccdc_geom_bond_type
H0 C3 0.929 . S
H1 C6 0.929 . S
H2 C8 0.930 . S
C3 H0 0.929 . S
C3 C4 1.398 . S
C3 C5 1.396 . S
C4 C3 1.398 . S
C4 C8 1.407 . S
C5 C3 1.396 . S
C5 C6 1.394 . S
C6 H1 0.929 . S
C6 C5 1.394 . S
C6 C7 1.382 . S
C7 C6 1.382 . S
C7 C8 1.392 . S
C7 N9 1.420 . S
C8 H2 0.930 . S
C8 C4 1.407 . S
C8 C7 1.392 . S
N9 C7 1.420 . S
N9 C10 1.244 . S
C10 N9 1.244 . S
H11 C14 0.929 . S
H12 C17 0.929 . S
H13 C19 0.930 . S
C14 H11 0.929 . S
C14 C15 1.398 . S
C14 C16 1.396 . S
C15 C14 1.398 . S
C15 C19 1.407 . S
C16 C14 1.396 . S
C16 C17 1.394 . S
C17 H12 0.929 . S
C17 C16 1.394 . S
C17 C18 1.382 . S
C18 C17 1.382 . S
C18 C19 1.392 . S
C18 N20 1.420 . S
C19 H13 0.930 . S
C19 C15 1.407 . S
C19 C18 1.392 . S
N20 C18 1.420 . S
N20 C21 1.244 . S
C21 N20 1.244 . S
H22 C25 0.929 . S
H23 C28 0.929 . S
H24 C30 0.930 . S
C25 H22 0.929 . S
C25 C26 1.398 . S
C25 C27 1.396 . S
C26 C25 1.398 . S
C26 C30 1.407 . S
C27 C25 1.396 . S
C27 C28 1.394 . S
C28 H23 0.929 . S
C28 C27 1.394 . S
C28 C29 1.382 . S
C29 C28 1.382 . S
C29 C30 1.392 . S
C29 N31 1.420 . S
C30 H24 0.930 . S
C30 C26 1.407 . S
C30 C29 1.392 . S
N31 C29 1.420 . S
N31 C32 1.244 . S
C32 N31 1.244 . S
H33 C36 0.929 . S
H34 C39 0.929 . S
H35 C41 0.930 . S
C36 H33 0.929 . S
C36 C37 1.398 . S
C36 C38 1.396 . S
C37 C36 1.398 . S
C37 C41 1.407 . S
C38 C36 1.396 . S
C38 C39 1.394 . S
C39 H34 0.929 . S
C39 C38 1.394 . S
C39 C40 1.382 . S
C40 C39 1.382 . S
C40 C41 1.392 . S
C40 N42 1.420 . S
C41 H35 0.930 . S
C41 C37 1.407 . S
C41 C40 1.392 . S
N42 C40 1.420 . S
N42 C43 1.244 . S
C43 N42 1.244 . S
H44 C47 0.929 . S
H45 C50 0.929 . S
H46 C52 0.930 . S
C47 H44 0.929 . S
C47 C48 1.398 . S
C47 C49 1.396 . S
C48 C47 1.398 . S
C48 C52 1.407 . S
C49 C47 1.396 . S
C49 C50 1.394 . S
C50 H45 0.929 . S
C50 C49 1.394 . S
C50 C51 1.382 . S
C51 C50 1.382 . S
C51 C52 1.392 . S
C51 N53 1.420 . S
C52 H46 0.930 . S
C52 C48 1.407 . S
C52 C51 1.392 . S
N53 C51 1.420 . S
N53 C54 1.244 . S
C54 N53 1.244 . S
H55 C58 0.929 . S
H56 C61 0.929 . S
H57 C63 0.930 . S
C58 H55 0.929 . S
C58 C59 1.398 . S
C58 C60 1.396 . S
C59 C58 1.398 . S
C59 C63 1.407 . S
C60 C58 1.396 . S
C60 C61 1.394 . S
C61 H56 0.929 . S
C61 C60 1.394 . S
C61 C62 1.382 . S
C62 C61 1.382 . S
C62 C63 1.392 . S
C62 N64 1.420 . S
C63 H57 0.930 . S
C63 C59 1.407 . S
C63 C62 1.392 . S
N64 C62 1.420 . S
N64 C65 1.244 . S
C65 N64 1.244 . S
H66 C69 0.929 . S
H67 C72 0.929 . S
H68 C74 0.930 . S
C69 H66 0.929 . S
C69 C70 1.398 . S
C69 C71 1.396 . S
C70 C69 1.398 . S
C70 C74 1.407 . S
C71 C69 1.396 . S
C71 C72 1.394 . S
C72 H67 0.929 . S
C72 C71 1.394 . S
C72 C73 1.382 . S
C73 C72 1.382 . S
C73 C74 1.392 . S
C73 N75 1.420 . S
C74 H68 0.930 . S
C74 C70 1.407 . S
C74 C73 1.392 . S
N75 C73 1.420 . S
N75 C76 1.244 . S
C76 N75 1.244 . S
H77 C80 0.929 . S
H78 C83 0.929 . S
H79 C85 0.930 . S
C80 H77 0.929 . S
C80 C81 1.398 . S
C80 C82 1.396 . S
C81 C80 1.398 . S
C81 C85 1.407 . S
C82 C80 1.396 . S
C82 C83 1.394 . S
C83 H78 0.929 . S
C83 C82 1.394 . S
C83 C84 1.382 . S
C84 C83 1.382 . S
C84 C85 1.392 . S
C84 N86 1.420 . S
C85 H79 0.930 . S
C85 C81 1.407 . S
C85 C84 1.392 . S
N86 C84 1.420 . S
N86 C87 1.244 . S
C87 N86 1.244 . S
H88 C91 0.929 . S
H89 C94 0.929 . S
H90 C96 0.930 . S
C91 H88 0.929 . S
C91 C92 1.398 . S
C91 C93 1.396 . S
C92 C91 1.398 . S
C92 C96 1.407 . S
C93 C91 1.396 . S
C93 C94 1.394 . S
C94 H89 0.929 . S
C94 C93 1.394 . S
C94 C95 1.382 . S
C95 C94 1.382 . S
C95 C96 1.392 . S
C95 N97 1.420 . S
C96 H90 0.930 . S
C96 C92 1.407 . S
C96 C95 1.392 . S
N97 C95 1.420 . S
N97 C98 1.244 . S
C98 N97 1.244 . S
H99 C102 0.929 . S
H100 C105 0.929 . S
H101 C107 0.930 . S
C102 H99 0.929 . S
C102 C103 1.398 . S
C102 C104 1.396 . S
C103 C102 1.398 . S
C103 C107 1.407 . S
C104 C102 1.396 . S
C104 C105 1.394 . S
C105 H100 0.929 . S
C105 C104 1.394 . S
C105 C106 1.382 . S
C106 C105 1.382 . S
C106 C107 1.392 . S
C106 N108 1.420 . S
C107 H101 0.930 . S
C107 C103 1.407 . S
C107 C106 1.392 . S
N108 C106 1.420 . S
N108 C109 1.244 . S
C109 N108 1.244 . S
H110 C113 0.929 . S
H111 C116 0.929 . S
H112 C118 0.930 . S
C113 H110 0.929 . S
C113 C114 1.398 . S
C113 C115 1.396 . S
C114 C113 1.398 . S
C114 C118 1.407 . S
C115 C113 1.396 . S
C115 C116 1.394 . S
C116 H111 0.929 . S
C116 C115 1.394 . S
C116 C117 1.382 . S
C117 C116 1.382 . S
C117 C118 1.392 . S
C117 N119 1.420 . S
C118 H112 0.930 . S
C118 C114 1.407 . S
C118 C117 1.392 . S
N119 C117 1.420 . S
N119 C120 1.244 . S
C120 N119 1.244 . S
H121 C124 0.929 . S
H122 C127 0.929 . S
H123 C129 0.930 . S
C124 H121 0.929 . S
C124 C125 1.398 . S
C124 C126 1.396 . S
C125 C124 1.398 . S
C125 C129 1.407 . S
C126 C124 1.396 . S
C126 C127 1.394 . S
C127 H122 0.929 . S
C127 C126 1.394 . S
C127 C128 1.382 . S
C128 C127 1.382 . S
C128 C129 1.392 . S
C128 N130 1.420 . S
C129 H123 0.930 . S
C129 C125 1.407 . S
C129 C128 1.392 . S
N130 C128 1.420 . S
N130 C131 1.244 . S
C131 N130 1.244 . S
H132 C135 0.929 . S
H133 C138 0.929 . S
H134 C140 0.930 . S
C135 H132 0.929 . S
C135 C136 1.398 . S
C135 C137 1.396 . S
C136 C135 1.398 . S
C136 C140 1.407 . S
C137 C135 1.396 . S
C137 C138 1.394 . S
C138 H133 0.929 . S
C138 C137 1.394 . S
C138 C139 1.382 . S
C139 C138 1.382 . S
C139 C140 1.392 . S
C139 N141 1.420 . S
C140 H134 0.930 . S
C140 C136 1.407 . S
C140 C139 1.392 . S
N141 C139 1.420 . S
N141 C142 1.244 . S
C142 N141 1.244 . S
H143 C146 0.929 . S
H144 C149 0.929 . S
H145 C151 0.930 . S
C146 H143 0.929 . S
C146 C147 1.398 . S
C146 C148 1.396 . S
C147 C146 1.398 . S
C147 C151 1.407 . S
C148 C146 1.396 . S
C148 C149 1.394 . S
C149 H144 0.929 . S
C149 C148 1.394 . S
C149 C150 1.382 . S
C150 C149 1.382 . S
C150 C151 1.392 . S
C150 N152 1.420 . S
C151 H145 0.930 . S
C151 C147 1.407 . S
C151 C150 1.392 . S
N152 C150 1.420 . S
N152 C153 1.244 . S
C153 N152 1.244 . S
H154 C157 0.929 . S
H155 C160 0.929 . S
H156 C162 0.930 . S
C157 H154 0.929 . S
C157 C158 1.398 . S
C157 C159 1.396 . S
C158 C157 1.398 . S
C158 C162 1.407 . S
C159 C157 1.396 . S
C159 C160 1.394 . S
C160 H155 0.929 . S
C160 C159 1.394 . S
C160 C161 1.382 . S
C161 C160 1.382 . S
C161 C162 1.392 . S
C161 N163 1.420 . S
C162 H156 0.930 . S
C162 C158 1.407 . S
C162 C161 1.392 . S
N163 C161 1.420 . S
N163 C164 1.244 . S
C164 N163 1.244 . S
H165 C168 0.929 . S
H166 C171 0.929 . S
H167 C173 0.930 . S
C168 H165 0.929 . S
C168 C169 1.398 . S
C168 C170 1.396 . S
C169 C168 1.398 . S
C169 C173 1.407 . S
C170 C168 1.396 . S
C170 C171 1.394 . S
C171 H166 0.929 . S
C171 C170 1.394 . S
C171 C172 1.382 . S
C172 C171 1.382 . S
C172 C173 1.392 . S
C172 N174 1.420 . S
C173 H167 0.930 . S
C173 C169 1.407 . S
C173 C172 1.392 . S
N174 C172 1.420 . S
N174 C175 1.244 . S
C175 N174 1.244 . S
O176 Cd177 2.223 . S
O176 C184 1.315 . S
Cd177 O176 2.223 . S
Cd177 O180 2.297 . S
Cd177 O181 2.439 . S
Cd177 O187 2.240 . S
Cd178 O179 2.240 . S
Cd178 O186 2.223 . S
Cd178 O188 2.297 . S
Cd178 O189 2.439 . S
O179 Cd178 2.240 . S
O179 C184 1.279 . S
O180 Cd177 2.297 . S
O180 C182 1.247 . S
O181 Cd177 2.439 . S
O181 C182 1.208 . S
C182 O180 1.247 . S
C182 O181 1.208 . S
C183 O188 1.247 . S
C183 O189 1.208 . S
C184 O176 1.315 . S
C184 O179 1.279 . S
C185 O186 1.315 . S
C185 O187 1.279 . S
O186 Cd178 2.223 . S
O186 C185 1.315 . S
O187 Cd177 2.240 . S
O187 C185 1.279 . S
O188 Cd178 2.297 . S
O188 C183 1.247 . S
O189 Cd178 2.439 . S
O189 C183 1.208 . S
O190 Cd191 2.223 . S
O190 C198 1.315 . S
Cd191 O190 2.223 . S
Cd191 O194 2.297 . S
Cd191 O195 2.439 . S
Cd191 O201 2.240 . S
Cd192 O193 2.240 . S
Cd192 O200 2.223 . S
Cd192 O202 2.297 . S
Cd192 O203 2.439 . S
O193 Cd192 2.240 . S
O193 C198 1.279 . S
O194 Cd191 2.297 . S
O194 C196 1.247 . S
O195 Cd191 2.439 . S
O195 C196 1.208 . S
C196 O194 1.247 . S
C196 O195 1.208 . S
C197 O202 1.247 . S
C197 O203 1.208 . S
C198 O190 1.315 . S
C198 O193 1.279 . S
C199 O200 1.315 . S
C199 O201 1.279 . S
O200 Cd192 2.223 . S
O200 C199 1.315 . S
O201 Cd191 2.240 . S
O201 C199 1.279 . S
O202 Cd192 2.297 . S
O202 C197 1.247 . S
O203 Cd192 2.439 . S
O203 C197 1.208 . S
O204 Cd205 2.223 1_556 S
O204 C212 1.315 . S
Cd205 O204 2.223 1_554 S
Cd205 O208 2.297 . S
Cd205 O209 2.439 . S
Cd205 O215 2.240 1_554 S
Cd206 O207 2.240 . S
Cd206 O214 2.223 . S
Cd206 O216 2.297 . S
Cd206 O217 2.439 1_556 S
O207 Cd206 2.240 . S
O207 C212 1.279 . S
O208 Cd205 2.297 . S
O208 C210 1.247 . S
O209 Cd205 2.439 . S
O209 C210 1.208 . S
C210 O208 1.247 . S
C210 O209 1.208 . S
C211 O216 1.247 1_554 S
C211 O217 1.208 . S
C212 O204 1.315 . S
C212 O207 1.279 . S
C213 O214 1.315 . S
C213 O215 1.279 . S
O214 Cd206 2.223 . S
O214 C213 1.315 . S
O215 Cd205 2.240 1_556 S
O215 C213 1.279 . S
O216 Cd206 2.297 . S
O216 C211 1.247 1_556 S
O217 Cd206 2.439 1_554 S
O217 C211 1.208 . S
O218 Cd219 2.223 . S
O218 C226 1.315 . S
Cd219 O218 2.223 . S
Cd219 O222 2.297 . S
Cd219 O223 2.439 . S
Cd219 O229 2.240 . S
Cd220 O221 2.240 . S
Cd220 O228 2.223 . S
Cd220 O230 2.297 . S
Cd220 O231 2.439 . S
O221 Cd220 2.240 . S
O221 C226 1.279 . S
O222 Cd219 2.297 . S
O222 C224 1.247 . S
O223 Cd219 2.439 . S
O223 C224 1.208 . S
C224 O222 1.247 . S
C224 O223 1.208 . S
C225 O230 1.247 . S
C225 O231 1.208 . S
C226 O218 1.315 . S
C226 O221 1.279 . S
C227 O228 1.315 . S
C227 O229 1.279 . S
O228 Cd220 2.223 . S
O228 C227 1.315 . S
O229 Cd219 2.240 . S
O229 C227 1.279 . S
O230 Cd220 2.297 . S
O230 C225 1.247 . S
O231 Cd220 2.439 . S
O231 C225 1.208 . S
O232 Cd233 2.223 . S
O232 C240 1.315 . S
Cd233 O232 2.223 . S
Cd233 O236 2.297 . S
Cd233 O237 2.439 . S
Cd233 O243 2.240 . S
Cd234 O235 2.240 . S
Cd234 O242 2.223 . S
Cd234 O244 2.297 . S
Cd234 O245 2.439 . S
O235 Cd234 2.240 . S
O235 C240 1.279 . S
O236 Cd233 2.297 . S
O236 C238 1.247 . S
O237 Cd233 2.439 . S
O237 C238 1.208 . S
C238 O236 1.247 . S
C238 O237 1.208 . S
C239 O244 1.247 . S
C239 O245 1.208 . S
C240 O232 1.315 . S
C240 O235 1.279 . S
C241 O242 1.315 . S
C241 O243 1.279 . S
O242 Cd234 2.223 . S
O242 C241 1.315 . S
O243 Cd233 2.240 . S
O243 C241 1.279 . S
O244 Cd234 2.297 . S
O244 C239 1.247 . S
O245 Cd234 2.439 . S
O245 C239 1.208 . S
O246 Cd247 2.223 . S
O246 C254 1.315 . S
Cd247 O246 2.223 . S
Cd247 O250 2.297 . S
Cd247 O251 2.439 . S
Cd247 O257 2.240 . S
Cd248 O249 2.240 . S
Cd248 O256 2.223 . S
Cd248 O258 2.297 . S
Cd248 O259 2.439 . S
O249 Cd248 2.240 . S
O249 C254 1.279 . S
O250 Cd247 2.297 . S
O250 C252 1.247 . S
O251 Cd247 2.439 . S
O251 C252 1.208 . S
C252 O250 1.247 . S
C252 O251 1.208 . S
C253 O258 1.247 . S
C253 O259 1.208 . S
C254 O246 1.315 . S
C254 O249 1.279 . S
C255 O256 1.315 . S
C255 O257 1.279 . S
O256 Cd248 2.223 . S
O256 C255 1.315 . S
O257 Cd247 2.240 . S
O257 C255 1.279 . S
O258 Cd248 2.297 . S
O258 C253 1.247 . S
O259 Cd248 2.439 . S
O259 C253 1.208 . S
O260 Cd261 2.223 . S
O260 C268 1.315 . S
Cd261 O260 2.223 . S
Cd261 O264 2.297 . S
Cd261 O265 2.439 . S
Cd261 O271 2.240 . S
Cd262 O263 2.240 . S
Cd262 O270 2.223 . S
Cd262 O272 2.297 . S
Cd262 O273 2.439 . S
O263 Cd262 2.240 . S
O263 C268 1.279 . S
O264 Cd261 2.297 . S
O264 C266 1.247 . S
O265 Cd261 2.439 . S
O265 C266 1.208 . S
C266 O264 1.247 . S
C266 O265 1.208 . S
C267 O272 1.247 . S
C267 O273 1.208 . S
C268 O260 1.315 . S
C268 O263 1.279 . S
C269 O270 1.315 . S
C269 O271 1.279 . S
O270 Cd262 2.223 . S
O270 C269 1.315 . S
O271 Cd261 2.240 . S
O271 C269 1.279 . S
O272 Cd262 2.297 . S
O272 C267 1.247 . S
O273 Cd262 2.439 . S
O273 C267 1.208 . S
O274 Cd275 2.223 1_545 S
O274 C282 1.315 . S
Cd275 O274 2.223 1_565 S
Cd275 O278 2.297 . S
Cd275 O279 2.439 . S
Cd275 O285 2.240 1_565 S
Cd276 O277 2.240 . S
Cd276 O284 2.223 . S
Cd276 O286 2.297 . S
Cd276 O287 2.439 1_545 S
O277 Cd276 2.240 . S
O277 C282 1.279 . S
O278 Cd275 2.297 . S
O278 C280 1.247 . S
O279 Cd275 2.439 . S
O279 C280 1.208 . S
C280 O278 1.247 . S
C280 O279 1.208 . S
C281 O286 1.247 1_565 S
C281 O287 1.208 . S
C282 O274 1.315 . S
C282 O277 1.279 . S
C283 O284 1.315 . S
C283 O285 1.279 . S
O284 Cd276 2.223 . S
O284 C283 1.315 . S
O285 Cd275 2.240 1_545 S
O285 C283 1.279 . S
O286 Cd276 2.297 . S
O286 C281 1.247 1_545 S
O287 Cd276 2.439 1_565 S
O287 C281 1.208 . S
O288 Cd289 2.223 . S
O288 C296 1.315 . S
Cd289 O288 2.223 . S
Cd289 O292 2.297 1_655 S
Cd289 O293 2.439 1_655 S
Cd289 O299 2.240 . S
Cd290 O291 2.240 . S
Cd290 O298 2.223 1_455 S
Cd290 O300 2.297 . S
Cd290 O301 2.439 . S
O291 Cd290 2.240 . S
O291 C296 1.279 1_455 S
O292 Cd289 2.297 1_455 S
O292 C294 1.247 . S
O293 Cd289 2.439 1_455 S
O293 C294 1.208 . S
C294 O292 1.247 . S
C294 O293 1.208 . S
C295 O300 1.247 . S
C295 O301 1.208 . S
C296 O288 1.315 . S
C296 O291 1.279 1_655 S
C297 O298 1.315 . S
C297 O299 1.279 . S
O298 Cd290 2.223 1_655 S
O298 C297 1.315 . S
O299 Cd289 2.240 . S
O299 C297 1.279 . S
O300 Cd290 2.297 . S
O300 C295 1.247 . S
O301 Cd290 2.439 . S
O301 C295 1.208 . S
O302 Cd303 2.223 . S
O302 C310 1.315 . S
Cd303 O302 2.223 . S
Cd303 O306 2.297 . S
Cd303 O307 2.439 . S
Cd303 O313 2.240 . S
Cd304 O305 2.240 . S
Cd304 O312 2.223 . S
Cd304 O314 2.297 . S
Cd304 O315 2.439 . S
O305 Cd304 2.240 . S
O305 C310 1.279 . S
O306 Cd303 2.297 . S
O306 C308 1.247 . S
O307 Cd303 2.439 . S
O307 C308 1.208 . S
C308 O306 1.247 . S
C308 O307 1.208 . S
C309 O314 1.247 . S
C309 O315 1.208 . S
C310 O302 1.315 . S
C310 O305 1.279 . S
C311 O312 1.315 . S
C311 O313 1.279 . S
O312 Cd304 2.223 . S
O312 C311 1.315 . S
O313 Cd303 2.240 . S
O313 C311 1.279 . S
O314 Cd304 2.297 . S
O314 C309 1.247 . S
O315 Cd304 2.439 . S
O315 C309 1.208 . S
O316 Cd317 2.223 1_655 S
O316 C324 1.315 . S
Cd317 O316 2.223 1_455 S
Cd317 O320 2.297 . S
Cd317 O321 2.439 . S
Cd317 O327 2.240 . S
Cd318 O319 2.240 . S
Cd318 O326 2.223 . S
Cd318 O328 2.297 1_655 S
Cd318 O329 2.439 1_655 S
O319 Cd318 2.240 . S
O319 C324 1.279 . S
O320 Cd317 2.297 . S
O320 C322 1.247 . S
O321 Cd317 2.439 . S
O321 C322 1.208 . S
C322 O320 1.247 . S
C322 O321 1.208 . S
C323 O328 1.247 . S
C323 O329 1.208 . S
C324 O316 1.315 . S
C324 O319 1.279 . S
C325 O326 1.315 . S
C325 O327 1.279 1_655 S
O326 Cd318 2.223 . S
O326 C325 1.315 . S
O327 Cd317 2.240 . S
O327 C325 1.279 1_455 S
O328 Cd318 2.297 1_455 S
O328 C323 1.247 . S
O329 Cd318 2.439 1_455 S
O329 C323 1.208 . S
O330 Cd331 2.223 . S
O330 C338 1.315 . S
Cd331 O330 2.223 . S
Cd331 O334 2.297 . S
Cd331 O335 2.439 . S
Cd331 O341 2.240 . S
Cd332 O333 2.240 . S
Cd332 O340 2.223 . S
Cd332 O342 2.297 . S
Cd332 O343 2.439 . S
O333 Cd332 2.240 . S
O333 C338 1.279 . S
O334 Cd331 2.297 . S
O334 C336 1.247 . S
O335 Cd331 2.439 . S
O335 C336 1.208 . S
C336 O334 1.247 . S
C336 O335 1.208 . S
C337 O342 1.247 . S
C337 O343 1.208 . S
C338 O330 1.315 . S
C338 O333 1.279 . S
C339 O340 1.315 . S
C339 O341 1.279 . S
O340 Cd332 2.223 . S
O340 C339 1.315 . S
O341 Cd331 2.240 . S
O341 C339 1.279 . S
O342 Cd332 2.297 . S
O342 C337 1.247 . S
O343 Cd332 2.439 . S
O343 C337 1.208 . S
H344 C356 0.930 . S
H345 C358 0.930 . S
H346 C359 0.930 . S
H347 C363 0.959 . S
H348 C363 0.959 . S
H349 C363 0.961 . S
H350 C364 0.960 . S
H351 C364 0.961 . S
H352 C364 0.959 . S
H353 C367 0.929 . S
H354 C368 0.931 . S
H355 C370 0.930 . S
C356 H344 0.930 . S
C356 C357 1.399 . S
C356 C361 1.399 . S
C357 C356 1.399 . S
C357 C358 1.376 . S
C358 H345 0.930 . S
C358 C357 1.376 . S
C358 C359 1.388 . S
C359 H346 0.930 . S
C359 C358 1.388 . S
C359 C360 1.390 . S
C360 C359 1.390 . S
C360 C361 1.394 . S
C360 C366 1.465 . S
C361 C356 1.399 . S
C361 C360 1.394 . S
C361 C362 1.516 . S
C362 C361 1.516 . S
C362 C363 1.502 . S
C362 C364 1.561 . S
C362 C365 1.526 . S
C363 H347 0.959 . S
C363 H348 0.959 . S
C363 H349 0.961 . S
C363 C362 1.502 . S
C364 H350 0.960 . S
C364 H351 0.961 . S
C364 H352 0.959 . S
C364 C362 1.561 . S
C365 C362 1.526 . S
C365 C366 1.396 . S
C365 C370 1.390 1_556 S
C366 C360 1.465 . S
C366 C365 1.396 . S
C366 C367 1.399 . S
C367 H353 0.929 . S
C367 C366 1.399 . S
C367 C368 1.385 . S
C368 H354 0.931 . S
C368 C367 1.385 . S
C368 C369 1.389 1_556 S
C369 C368 1.389 1_554 S
C369 C370 1.387 . S
C370 H355 0.930 . S
C370 C365 1.390 1_554 S
C370 C369 1.387 . S
H371 C383 0.930 . S
H372 C385 0.930 . S
H373 C386 0.930 . S
H374 C390 0.959 . S
H375 C390 0.959 . S
H376 C390 0.961 . S
H377 C391 0.960 . S
H378 C391 0.961 . S
H379 C391 0.959 . S
H380 C394 0.929 . S
H381 C395 0.931 . S
H382 C397 0.930 . S
C383 H371 0.930 . S
C383 C384 1.399 1_455 S
C383 C388 1.399 . S
C384 C383 1.399 1_655 S
C384 C385 1.376 . S
C385 H372 0.930 . S
C385 C384 1.376 . S
C385 C386 1.388 . S
C386 H373 0.930 . S
C386 C385 1.388 . S
C386 C387 1.390 1_655 S
C387 C386 1.390 1_455 S
C387 C388 1.394 . S
C387 C393 1.465 . S
C388 C383 1.399 . S
C388 C387 1.394 . S
C388 C389 1.516 . S
C389 C388 1.516 . S
C389 C390 1.502 . S
C389 C391 1.561 . S
C389 C392 1.526 . S
C390 H374 0.959 . S
C390 H375 0.959 . S
C390 H376 0.961 . S
C390 C389 1.502 . S
C391 H377 0.960 . S
C391 H378 0.961 . S
C391 H379 0.959 . S
C391 C389 1.561 . S
C392 C389 1.526 . S
C392 C393 1.396 . S
C392 C397 1.390 . S
C393 C387 1.465 . S
C393 C392 1.396 . S
C393 C394 1.399 . S
C394 H380 0.929 . S
C394 C393 1.399 . S
C394 C395 1.385 . S
C395 H381 0.931 . S
C395 C394 1.385 . S
C395 C396 1.389 . S
C396 C395 1.389 . S
C396 C397 1.387 . S
C397 H382 0.930 . S
C397 C392 1.390 . S
C397 C396 1.387 . S
H398 C410 0.930 . S
H399 C412 0.930 . S
H400 C413 0.930 . S
H401 C417 0.959 . S
H402 C417 0.959 . S
H403 C417 0.961 . S
H404 C418 0.960 . S
H405 C418 0.961 . S
H406 C418 0.959 . S
H407 C421 0.929 . S
H408 C422 0.931 . S
H409 C424 0.930 . S
C410 H398 0.930 . S
C410 C411 1.399 . S
C410 C415 1.399 . S
C411 C410 1.399 . S
C411 C412 1.376 . S
C412 H399 0.930 . S
C412 C411 1.376 . S
C412 C413 1.388 . S
C413 H400 0.930 . S
C413 C412 1.388 . S
C413 C414 1.390 . S
C414 C413 1.390 . S
C414 C415 1.394 . S
C414 C420 1.465 . S
C415 C410 1.399 . S
C415 C414 1.394 . S
C415 C416 1.516 . S
C416 C415 1.516 . S
C416 C417 1.502 . S
C416 C418 1.561 . S
C416 C419 1.526 . S
C417 H401 0.959 . S
C417 H402 0.959 . S
C417 H403 0.961 . S
C417 C416 1.502 . S
C418 H404 0.960 . S
C418 H405 0.961 . S
C418 H406 0.959 . S
C418 C416 1.561 . S
C419 C416 1.526 . S
C419 C420 1.396 . S
C419 C424 1.390 . S
C420 C414 1.465 . S
C420 C419 1.396 . S
C420 C421 1.399 . S
C421 H407 0.929 . S
C421 C420 1.399 . S
C421 C422 1.385 . S
C422 H408 0.931 . S
C422 C421 1.385 . S
C422 C423 1.389 . S
C423 C422 1.389 . S
C423 C424 1.387 . S
C424 H409 0.930 . S
C424 C419 1.390 . S
C424 C423 1.387 . S
H425 C437 0.930 . S
H426 C439 0.930 . S
H427 C440 0.930 . S
H428 C444 0.938 1_545 S
H429 C444 0.953 . S
H430 C444 0.983 . S
H431 C445 0.960 . S
H432 C445 0.982 . S
H433 C445 0.959 1_655 S
H434 C448 0.929 . S
H435 C449 0.931 . S
H436 C451 0.930 . S
C437 H425 0.930 . S
C437 C438 1.399 . S
C437 C442 1.399 . S
C438 C437 1.399 . S
C438 C439 1.376 . S
C439 H426 0.930 . S
C439 C438 1.376 . S
C439 C440 1.388 1_565 S
C440 H427 0.930 . S
C440 C439 1.388 1_545 S
C440 C441 1.390 . S
C441 C440 1.390 . S
C441 C442 1.394 1_545 S
C441 C447 1.465 . S
C442 C437 1.399 . S
C442 C441 1.394 1_565 S
C442 C443 1.516 . S
C443 C442 1.516 . S
C443 C444 1.508 . S
C443 C445 1.561 . S
C443 C446 1.526 1_565 S
C444 H428 0.938 1_565 S
C444 H429 0.953 . S
C444 H430 0.983 . S
C444 C443 1.508 . S
C445 H431 0.960 . S
C445 H432 0.982 . S
C445 H433 0.959 1_455 S
C445 C443 1.561 . S
C446 C443 1.526 1_545 S
C446 C447 1.396 . S
C446 C451 1.390 1_455 S
C447 C441 1.465 . S
C447 C446 1.396 . S
C447 C448 1.399 1_455 S
C448 H434 0.929 . S
C448 C447 1.399 1_655 S
C448 C449 1.385 . S
C449 H435 0.931 . S
C449 C448 1.385 . S
C449 C450 1.389 . S
C450 C449 1.389 . S
C450 C451 1.387 . S
C451 H436 0.930 . S
C451 C446 1.390 1_655 S
C451 C450 1.387 . S
H452 C464 0.930 . S
H453 C466 0.930 . S
H454 C467 0.930 . S
H455 C471 0.959 . S
H456 C471 0.959 . S
H457 C471 0.961 . S
H458 C472 0.960 . S
H459 C472 0.961 . S
H460 C472 0.959 . S
H461 C475 0.929 . S
H462 C476 0.931 . S
H463 C478 0.930 . S
C464 H452 0.930 . S
C464 C465 1.399 . S
C464 C469 1.399 . S
C465 C464 1.399 . S
C465 C466 1.376 . S
C466 H453 0.930 . S
C466 C465 1.376 . S
C466 C467 1.388 . S
C467 H454 0.930 . S
C467 C466 1.388 . S
C467 C468 1.390 . S
C468 C467 1.390 . S
C468 C469 1.394 . S
C468 C474 1.465 . S
C469 C464 1.399 . S
C469 C468 1.394 . S
C469 C470 1.516 . S
C470 C469 1.516 . S
C470 C471 1.502 . S
C470 C472 1.561 . S
C470 C473 1.526 . S
C471 H455 0.959 . S
C471 H456 0.959 . S
C471 H457 0.961 . S
C471 C470 1.502 . S
C472 H458 0.960 . S
C472 H459 0.961 . S
C472 H460 0.959 . S
C472 C470 1.561 . S
C473 C470 1.526 . S
C473 C474 1.396 . S
C473 C478 1.390 . S
C474 C468 1.465 . S
C474 C473 1.396 . S
C474 C475 1.399 . S
C475 H461 0.929 . S
C475 C474 1.399 . S
C475 C476 1.385 . S
C476 H462 0.931 . S
C476 C475 1.385 . S
C476 C477 1.389 . S
C477 C476 1.389 . S
C477 C478 1.387 . S
C478 H463 0.930 . S
C478 C473 1.390 . S
C478 C477 1.387 . S
H479 C491 0.930 . S
H480 C493 0.930 . S
H481 C494 0.930 . S
H482 C498 0.959 . S
H483 C498 0.959 . S
H484 C498 0.961 . S
H485 C499 0.960 . S
H486 C499 0.961 . S
H487 C499 0.959 . S
H488 C502 0.929 . S
H489 C503 0.931 . S
H490 C505 0.930 . S
C491 H479 0.930 . S
C491 C492 1.399 . S
C491 C496 1.399 . S
C492 C491 1.399 . S
C492 C493 1.376 . S
C493 H480 0.930 . S
C493 C492 1.376 . S
C493 C494 1.388 . S
C494 H481 0.930 . S
C494 C493 1.388 . S
C494 C495 1.390 . S
C495 C494 1.390 . S
C495 C496 1.394 . S
C495 C501 1.465 . S
C496 C491 1.399 . S
C496 C495 1.394 . S
C496 C497 1.516 . S
C497 C496 1.516 . S
C497 C498 1.502 . S
C497 C499 1.561 . S
C497 C500 1.526 . S
C498 H482 0.959 . S
C498 H483 0.959 . S
C498 H484 0.961 . S
C498 C497 1.502 . S
C499 H485 0.960 . S
C499 H486 0.961 . S
C499 H487 0.959 . S
C499 C497 1.561 . S
C500 C497 1.526 . S
C500 C501 1.396 . S
C500 C505 1.390 . S
C501 C495 1.465 . S
C501 C500 1.396 . S
C501 C502 1.399 . S
C502 H488 0.929 . S
C502 C501 1.399 . S
C502 C503 1.385 . S
C503 H489 0.931 . S
C503 C502 1.385 . S
C503 C504 1.389 . S
C504 C503 1.389 . S
C504 C505 1.387 . S
C505 H490 0.930 . S
C505 C500 1.390 . S
C505 C504 1.387 . S
H506 C518 0.930 . S
H507 C520 0.930 . S
H508 C521 0.930 . S
H509 C525 0.959 . S
H510 C525 0.959 . S
H511 C525 0.961 . S
H512 C526 0.960 . S
H513 C526 0.961 . S
H514 C526 0.959 . S
H515 C529 0.929 . S
H516 C530 0.931 . S
H517 C532 0.930 . S
C518 H506 0.930 . S
C518 C519 1.399 . S
C518 C523 1.399 . S
C519 C518 1.399 . S
C519 C520 1.376 . S
C520 H507 0.930 . S
C520 C519 1.376 . S
C520 C521 1.388 . S
C521 H508 0.930 . S
C521 C520 1.388 . S
C521 C522 1.390 . S
C522 C521 1.390 . S
C522 C523 1.394 . S
C522 C528 1.465 . S
C523 C518 1.399 . S
C523 C522 1.394 . S
C523 C524 1.516 . S
C524 C523 1.516 . S
C524 C525 1.502 . S
C524 C526 1.561 . S
C524 C527 1.526 . S
C525 H509 0.959 . S
C525 H510 0.959 . S
C525 H511 0.961 . S
C525 C524 1.502 . S
C526 H512 0.960 . S
C526 H513 0.961 . S
C526 H514 0.959 . S
C526 C524 1.561 . S
C527 C524 1.526 . S
C527 C528 1.396 . S
C527 C532 1.390 . S
C528 C522 1.465 . S
C528 C527 1.396 . S
C528 C529 1.399 . S
C529 H515 0.929 . S
C529 C528 1.399 . S
C529 C530 1.385 . S
C530 H516 0.931 . S
C530 C529 1.385 . S
C530 C531 1.389 . S
C531 C530 1.389 . S
C531 C532 1.387 . S
C532 H517 0.930 . S
C532 C527 1.390 . S
C532 C531 1.387 . S
H533 C545 0.930 . S
H534 C547 0.930 . S
H535 C548 0.930 . S
H536 C552 0.959 1_565 S
H537 C552 0.959 . S
H538 C552 0.961 . S
H539 C553 0.960 1_545 S
H540 C553 0.961 1_545 S
H541 C553 0.959 . S
H542 C556 0.929 . S
H543 C557 0.931 . S
H544 C559 0.930 . S
C545 H533 0.930 . S
C545 C546 1.399 . S
C545 C550 1.399 . S
C546 C545 1.399 . S
C546 C547 1.376 . S
C547 H534 0.930 . S
C547 C546 1.376 . S
C547 C548 1.388 . S
C548 H535 0.930 . S
C548 C547 1.388 . S
C548 C549 1.390 . S
C549 C548 1.390 . S
C549 C550 1.394 . S
C549 C555 1.465 . S
C550 C545 1.399 . S
C550 C549 1.394 . S
C550 C551 1.516 . S
C551 C550 1.516 . S
C551 C552 1.502 1_565 S
C551 C553 1.561 . S
C551 C554 1.526 . S
C552 H536 0.959 1_545 S
C552 H537 0.959 . S
C552 H538 0.961 . S
C552 C551 1.502 1_545 S
C553 H539 0.960 1_565 S
C553 H540 0.961 1_565 S
C553 H541 0.959 . S
C553 C551 1.561 . S
C554 C551 1.526 . S
C554 C555 1.396 . S
C554 C559 1.390 . S
C555 C549 1.465 . S
C555 C554 1.396 . S
C555 C556 1.399 . S
C556 H542 0.929 . S
C556 C555 1.399 . S
C556 C557 1.385 . S
C557 H543 0.931 . S
C557 C556 1.385 . S
C557 C558 1.389 . S
C558 C557 1.389 . S
C558 C559 1.387 . S
C559 H544 0.930 . S
C559 C554 1.390 . S
C559 C558 1.387 . S
H560 C572 0.930 . S
H561 C574 0.930 . S
H562 C575 0.930 . S
H563 C579 0.959 . S
H564 C579 0.959 . S
H565 C579 0.961 . S
H566 C580 0.960 . S
H567 C580 0.961 . S
H568 C580 0.959 . S
H569 C583 0.929 . S
H570 C584 0.931 . S
H571 C586 0.930 . S
C572 H560 0.930 . S
C572 C573 1.399 . S
C572 C577 1.399 . S
C573 C572 1.399 . S
C573 C574 1.376 . S
C574 H561 0.930 . S
C574 C573 1.376 . S
C574 C575 1.388 . S
C575 H562 0.930 . S
C575 C574 1.388 . S
C575 C576 1.390 . S
C576 C575 1.390 . S
C576 C577 1.394 . S
C576 C582 1.465 . S
C577 C572 1.399 . S
C577 C576 1.394 . S
C577 C578 1.516 . S
C578 C577 1.516 . S
C578 C579 1.502 . S
C578 C580 1.561 . S
C578 C581 1.526 . S
C579 H563 0.959 . S
C579 H564 0.959 . S
C579 H565 0.961 . S
C579 C578 1.502 . S
C580 H566 0.960 . S
C580 H567 0.961 . S
C580 H568 0.959 . S
C580 C578 1.561 . S
C581 C578 1.526 . S
C581 C582 1.396 . S
C581 C586 1.390 . S
C582 C576 1.465 . S
C582 C581 1.396 . S
C582 C583 1.399 . S
C583 H569 0.929 . S
C583 C582 1.399 . S
C583 C584 1.385 . S
C584 H570 0.931 . S
C584 C583 1.385 . S
C584 C585 1.389 . S
C585 C584 1.389 . S
C585 C586 1.387 . S
C586 H571 0.930 . S
C586 C581 1.390 . S
C586 C585 1.387 . S
H587 C599 0.930 . S
H588 C601 0.930 . S
H589 C602 0.930 . S
H590 C606 0.959 . S
H591 C606 0.959 . S
H592 C606 0.961 . S
H593 C607 0.960 . S
H594 C607 0.961 . S
H595 C607 0.959 . S
H596 C610 0.929 . S
H597 C611 0.931 . S
H598 C613 0.930 . S
C599 H587 0.930 . S
C599 C600 1.399 . S
C599 C604 1.399 . S
C600 C599 1.399 . S
C600 C601 1.376 . S
C601 H588 0.930 . S
C601 C600 1.376 . S
C601 C602 1.388 . S
C602 H589 0.930 . S
C602 C601 1.388 . S
C602 C603 1.390 . S
C603 C602 1.390 . S
C603 C604 1.394 . S
C603 C609 1.465 . S
C604 C599 1.399 . S
C604 C603 1.394 . S
C604 C605 1.516 . S
C605 C604 1.516 . S
C605 C606 1.502 . S
C605 C607 1.561 . S
C605 C608 1.526 . S
C606 H590 0.959 . S
C606 H591 0.959 . S
C606 H592 0.961 . S
C606 C605 1.502 . S
C607 H593 0.960 . S
C607 H594 0.961 . S
C607 H595 0.959 . S
C607 C605 1.561 . S
C608 C605 1.526 . S
C608 C609 1.396 . S
C608 C613 1.390 . S
C609 C603 1.465 . S
C609 C608 1.396 . S
C609 C610 1.399 . S
C610 H596 0.929 . S
C610 C609 1.399 . S
C610 C611 1.385 . S
C611 H597 0.931 . S
C611 C610 1.385 . S
C611 C612 1.389 . S
C612 C611 1.389 . S
C612 C613 1.387 . S
C613 H598 0.930 . S
C613 C608 1.390 . S
C613 C612 1.387 . S
H614 C626 0.930 . S
H615 C628 0.930 . S
H616 C629 0.930 . S
H617 C633 0.959 . S
H618 C633 0.959 . S
H619 C633 0.961 . S
H620 C634 0.960 . S
H621 C634 0.961 . S
H622 C634 0.959 . S
H623 C637 0.929 . S
H624 C638 0.931 . S
H625 C640 0.930 . S
C626 H614 0.930 . S
C626 C627 1.399 . S
C626 C631 1.399 . S
C627 C626 1.399 . S
C627 C628 1.376 . S
C628 H615 0.930 . S
C628 C627 1.376 . S
C628 C629 1.388 . S
C629 H616 0.930 . S
C629 C628 1.388 . S
C629 C630 1.390 . S
C630 C629 1.390 . S
C630 C631 1.394 . S
C630 C636 1.465 . S
C631 C626 1.399 . S
C631 C630 1.394 . S
C631 C632 1.516 . S
C632 C631 1.516 . S
C632 C633 1.502 . S
C632 C634 1.561 . S
C632 C635 1.526 . S
C633 H617 0.959 . S
C633 H618 0.959 . S
C633 H619 0.961 . S
C633 C632 1.502 . S
C634 H620 0.960 . S
C634 H621 0.961 . S
C634 H622 0.959 . S
C634 C632 1.561 . S
C635 C632 1.526 . S
C635 C636 1.396 . S
C635 C640 1.390 . S
C636 C630 1.465 . S
C636 C635 1.396 . S
C636 C637 1.399 . S
C637 H623 0.929 . S
C637 C636 1.399 . S
C637 C638 1.385 . S
C638 H624 0.931 . S
C638 C637 1.385 . S
C638 C639 1.389 . S
C639 C638 1.389 . S
C639 C640 1.387 . S
C640 H625 0.930 . S
C640 C635 1.390 . S
C640 C639 1.387 . S
H641 C653 0.930 . S
H642 C655 0.930 . S
H643 C656 0.930 . S
H644 C660 0.959 . S
H645 C660 0.959 . S
H646 C660 0.961 . S
H647 C661 0.960 . S
H648 C661 0.961 . S
H649 C661 0.959 . S
H650 C664 0.929 . S
H651 C665 0.931 . S
H652 C667 0.930 . S
C653 H641 0.930 . S
C653 C654 1.399 . S
C653 C658 1.399 . S
C654 C653 1.399 . S
C654 C655 1.376 . S
C655 H642 0.930 . S
C655 C654 1.376 . S
C655 C656 1.388 . S
C656 H643 0.930 . S
C656 C655 1.388 . S
C656 C657 1.390 . S
C657 C656 1.390 . S
C657 C658 1.394 . S
C657 C663 1.465 . S
C658 C653 1.399 . S
C658 C657 1.394 . S
C658 C659 1.516 . S
C659 C658 1.516 . S
C659 C660 1.502 . S
C659 C661 1.561 . S
C659 C662 1.526 . S
C660 H644 0.959 . S
C660 H645 0.959 . S
C660 H646 0.961 . S
C660 C659 1.502 . S
C661 H647 0.960 . S
C661 H648 0.961 . S
C661 H649 0.959 . S
C661 C659 1.561 . S
C662 C659 1.526 . S
C662 C663 1.396 . S
C662 C667 1.390 . S
C663 C657 1.465 . S
C663 C662 1.396 . S
C663 C664 1.399 . S
C664 H650 0.929 . S
C664 C663 1.399 . S
C664 C665 1.385 . S
C665 H651 0.931 . S
C665 C664 1.385 . S
C665 C666 1.389 . S
C666 C665 1.389 . S
C666 C667 1.387 . S
C667 H652 0.930 . S
C667 C662 1.390 . S
C667 C666 1.387 . S
H668 C680 0.930 . S
H669 C682 0.930 . S
H670 C683 0.930 . S
H671 C687 0.959 . S
H672 C687 0.959 . S
H673 C687 0.961 . S
H674 C688 0.960 . S
H675 C688 0.961 . S
H676 C688 0.959 . S
H677 C691 0.929 . S
H678 C692 0.931 . S
H679 C694 0.930 . S
C680 H668 0.930 . S
C680 C681 1.399 . S
C680 C685 1.399 . S
C681 C680 1.399 . S
C681 C682 1.376 . S
C682 H669 0.930 . S
C682 C681 1.376 . S
C682 C683 1.388 . S
C683 H670 0.930 . S
C683 C682 1.388 . S
C683 C684 1.390 . S
C684 C683 1.390 . S
C684 C685 1.394 . S
C684 C690 1.465 . S
C685 C680 1.399 . S
C685 C684 1.394 . S
C685 C686 1.516 . S
C686 C685 1.516 . S
C686 C687 1.502 . S
C686 C688 1.561 . S
C686 C689 1.526 . S
C687 H671 0.959 . S
C687 H672 0.959 . S
C687 H673 0.961 . S
C687 C686 1.502 . S
C688 H674 0.960 . S
C688 H675 0.961 . S
C688 H676 0.959 . S
C688 C686 1.561 . S
C689 C686 1.526 . S
C689 C690 1.396 . S
C689 C694 1.390 . S
C690 C684 1.465 . S
C690 C689 1.396 . S
C690 C691 1.399 . S
C691 H677 0.929 . S
C691 C690 1.399 . S
C691 C692 1.385 . S
C692 H678 0.931 . S
C692 C691 1.385 . S
C692 C693 1.389 . S
C693 C692 1.389 . S
C693 C694 1.387 . S
C694 H679 0.930 . S
C694 C689 1.390 . S
C694 C693 1.387 . S
H695 C707 0.930 . S
H696 C709 0.930 . S
H697 C710 0.930 . S
H698 C714 0.959 . S
H699 C714 0.959 . S
H700 C714 0.961 . S
H701 C715 0.960 . S
H702 C715 0.961 . S
H703 C715 0.959 . S
H704 C718 0.929 . S
H705 C719 0.931 . S
H706 C721 0.930 . S
C707 H695 0.930 . S
C707 C708 1.399 . S
C707 C712 1.399 . S
C708 C707 1.399 . S
C708 C709 1.376 . S
C709 H696 0.930 . S
C709 C708 1.376 . S
C709 C710 1.388 . S
C710 H697 0.930 . S
C710 C709 1.388 . S
C710 C711 1.390 . S
C711 C710 1.390 . S
C711 C712 1.394 . S
C711 C717 1.465 . S
C712 C707 1.399 . S
C712 C711 1.394 . S
C712 C713 1.516 . S
C713 C712 1.516 . S
C713 C714 1.502 . S
C713 C715 1.561 . S
C713 C716 1.526 . S
C714 H698 0.959 . S
C714 H699 0.959 . S
C714 H700 0.961 . S
C714 C713 1.502 . S
C715 H701 0.960 . S
C715 H702 0.961 . S
C715 H703 0.959 . S
C715 C713 1.561 . S
C716 C713 1.526 . S
C716 C717 1.396 . S
C716 C721 1.390 . S
C717 C711 1.465 . S
C717 C716 1.396 . S
C717 C718 1.399 . S
C718 H704 0.929 . S
C718 C717 1.399 . S
C718 C719 1.385 . S
C719 H705 0.931 . S
C719 C718 1.385 . S
C719 C720 1.389 . S
C720 C719 1.389 . S
C720 C721 1.387 . S
C721 H706 0.930 . S
C721 C716 1.390 . S
C721 C720 1.387 . S
H722 C734 0.930 . S
H723 C736 0.930 . S
H724 C737 0.930 . S
H725 C741 0.959 . S
H726 C741 0.959 . S
H727 C741 0.961 . S
H728 C742 0.960 . S
H729 C742 0.961 . S
H730 C742 0.959 . S
H731 C745 0.929 . S
H732 C746 0.931 . S
H733 C748 0.930 . S
C734 H722 0.930 . S
C734 C735 1.399 . S
C734 C739 1.399 . S
C735 C734 1.399 . S
C735 C736 1.376 . S
C736 H723 0.930 . S
C736 C735 1.376 . S
C736 C737 1.388 . S
C737 H724 0.930 . S
C737 C736 1.388 . S
C737 C738 1.390 . S
C738 C737 1.390 . S
C738 C739 1.394 . S
C738 C744 1.465 . S
C739 C734 1.399 . S
C739 C738 1.394 . S
C739 C740 1.516 . S
C740 C739 1.516 . S
C740 C741 1.502 . S
C740 C742 1.561 . S
C740 C743 1.526 . S
C741 H725 0.959 . S
C741 H726 0.959 . S
C741 H727 0.961 . S
C741 C740 1.502 . S
C742 H728 0.960 . S
C742 H729 0.961 . S
C742 H730 0.959 . S
C742 C740 1.561 . S
C743 C740 1.526 . S
C743 C744 1.396 . S
C743 C748 1.390 . S
C744 C738 1.465 . S
C744 C743 1.396 . S
C744 C745 1.399 . S
C745 H731 0.929 . S
C745 C744 1.399 . S
C745 C746 1.385 . S
C746 H732 0.931 . S
C746 C745 1.385 . S
C746 C747 1.389 . S
C747 C746 1.389 . S
C747 C748 1.387 . S
C748 H733 0.930 . S
C748 C743 1.390 . S
C748 C747 1.387 . S
H749 C761 0.930 . S
H750 C763 0.930 . S
H751 C764 0.930 . S
H752 C768 0.959 . S
H753 C768 0.959 . S
H754 C768 0.961 . S
H755 C769 0.960 . S
H756 C769 0.961 . S
H757 C769 0.995 . S
H758 C772 0.929 . S
H759 C773 0.931 . S
H760 C775 0.930 . S
C761 H749 0.930 . S
C761 C762 1.399 . S
C761 C766 1.399 . S
C762 C761 1.399 . S
C762 C763 1.376 . S
C763 H750 0.930 . S
C763 C762 1.376 . S
C763 C764 1.388 . S
C764 H751 0.930 . S
C764 C763 1.388 . S
C764 C765 1.390 . S
C765 C764 1.390 . S
C765 C766 1.394 . S
C765 C771 1.465 . S
C766 C761 1.399 . S
C766 C765 1.394 . S
C766 C767 1.516 . S
C767 C766 1.516 . S
C767 C768 1.502 . S
C767 C769 1.561 . S
C767 C770 1.526 . S
C768 H752 0.959 . S
C768 H753 0.959 . S
C768 H754 0.961 . S
C768 C767 1.502 . S
C769 H755 0.960 . S
C769 H756 0.961 . S
C769 H757 0.995 . S
C769 C767 1.561 . S
C770 C767 1.526 . S
C770 C771 1.396 . S
C770 C775 1.390 . S
C771 C765 1.465 . S
C771 C770 1.396 . S
C771 C772 1.399 . S
C772 H758 0.929 . S
C772 C771 1.399 . S
C772 C773 1.385 . S
C773 H759 0.931 . S
C773 C772 1.385 . S
C773 C774 1.389 . S
C774 C773 1.389 . S
C774 C775 1.387 . S
C775 H760 0.930 . S
C775 C770 1.390 . S
C775 C774 1.387 . S
H776 C788 0.930 . S
H777 C790 0.930 . S
H778 C791 0.930 . S
H779 C795 0.959 . S
H780 C795 0.959 . S
H781 C795 0.961 . S
H782 C796 0.960 . S
H783 C796 0.961 . S
H784 C796 0.959 . S
H785 C799 0.929 . S
H786 C800 0.931 . S
H787 C802 0.937 . S
C788 H776 0.930 . S
C788 C789 1.399 . S
C788 C793 1.399 . S
C789 C788 1.399 . S
C789 C790 1.376 . S
C790 H777 0.930 . S
C790 C789 1.376 . S
C790 C791 1.388 . S
C791 H778 0.930 . S
C791 C790 1.388 . S
C791 C792 1.390 . S
C792 C791 1.390 . S
C792 C793 1.394 . S
C792 C798 1.465 . S
C793 C788 1.399 . S
C793 C792 1.394 . S
C793 C794 1.516 . S
C794 C793 1.516 . S
C794 C795 1.502 . S
C794 C796 1.561 . S
C794 C797 1.526 . S
C795 H779 0.959 . S
C795 H780 0.959 . S
C795 H781 0.961 . S
C795 C794 1.502 . S
C796 H782 0.960 . S
C796 H783 0.961 . S
C796 H784 0.959 . S
C796 C794 1.561 . S
C797 C794 1.526 . S
C797 C798 1.396 . S
C797 C802 1.390 . S
C798 C792 1.465 . S
C798 C797 1.396 . S
C798 C799 1.399 . S
C799 H785 0.929 . S
C799 C798 1.399 . S
C799 C800 1.385 1_565 S
C800 H786 0.931 . S
C800 C799 1.385 1_545 S
C800 C801 1.389 . S
C801 C800 1.389 . S
C801 C802 1.387 1_545 S
C802 H787 0.937 . S
C802 C797 1.390 . S
C802 C801 1.387 1_565 S
H803 C815 0.930 . S
H804 C817 0.930 . S
H805 C818 0.930 . S
H806 C822 0.959 . S
H807 C822 0.959 . S
H808 C822 0.961 . S
H809 C823 0.960 . S
H810 C823 0.961 . S
H811 C823 0.959 . S
H812 C826 0.929 . S
H813 C827 0.931 . S
H814 C829 0.930 . S
C815 H803 0.930 . S
C815 C816 1.399 . S
C815 C820 1.399 . S
C816 C815 1.399 . S
C816 C817 1.376 . S
C817 H804 0.930 . S
C817 C816 1.376 . S
C817 C818 1.388 . S
C818 H805 0.930 . S
C818 C817 1.388 . S
C818 C819 1.390 . S
C819 C818 1.390 . S
C819 C820 1.394 . S
C819 C825 1.465 . S
C820 C815 1.399 . S
C820 C819 1.394 . S
C820 C821 1.516 . S
C821 C820 1.516 . S
C821 C822 1.502 . S
C821 C823 1.561 . S
C821 C824 1.526 . S
C822 H806 0.959 . S
C822 H807 0.959 . S
C822 H808 0.961 . S
C822 C821 1.502 . S
C823 H809 0.960 . S
C823 H810 0.961 . S
C823 H811 0.959 . S
C823 C821 1.561 . S
C824 C821 1.526 . S
C824 C825 1.396 . S
C824 C829 1.390 . S
C825 C819 1.465 . S
C825 C824 1.396 . S
C825 C826 1.399 . S
C826 H812 0.929 . S
C826 C825 1.399 . S
C826 C827 1.385 . S
C827 H813 0.931 . S
C827 C826 1.385 . S
C827 C828 1.389 . S
C828 C827 1.389 . S
C828 C829 1.387 . S
C829 H814 0.930 . S
C829 C824 1.390 . S
C829 C828 1.387 . S
H830 C842 0.930 . S
H831 C844 0.930 . S
H832 C845 0.930 . S
H833 C849 0.959 . S
H834 C849 0.960 . S
H835 C849 0.961 . S
H836 C850 0.960 . S
H837 C850 0.961 . S
H838 C850 0.959 . S
H839 C853 0.929 . S
H840 C854 0.931 . S
H841 C856 0.930 . S
C842 H830 0.930 . S
C842 C843 1.399 . S
C842 C847 1.399 . S
C843 C842 1.399 . S
C843 C844 1.376 . S
C844 H831 0.930 . S
C844 C843 1.376 . S
C844 C845 1.388 . S
C845 H832 0.930 . S
C845 C844 1.388 . S
C845 C846 1.390 . S
C846 C845 1.390 . S
C846 C847 1.394 . S
C846 C852 1.465 1_556 S
C847 C842 1.399 . S
C847 C846 1.394 . S
C847 C848 1.516 1_556 S
C848 C847 1.516 1_554 S
C848 C849 1.502 1_544 S
C848 C850 1.561 . S
C848 C851 1.526 . S
C849 H833 0.959 . S
C849 H834 0.960 . S
C849 H835 0.961 . S
C849 C848 1.502 1_566 S
C850 H836 0.960 . S
C850 H837 0.961 . S
C850 H838 0.959 . S
C850 C848 1.561 . S
C851 C848 1.526 . S
C851 C852 1.396 . S
C851 C856 1.390 1_545 S
C852 C846 1.465 1_554 S
C852 C851 1.396 . S
C852 C853 1.399 . S
C853 H839 0.929 . S
C853 C852 1.399 . S
C853 C854 1.385 . S
C854 H840 0.931 . S
C854 C853 1.385 . S
C854 C855 1.389 1_545 S
C855 C854 1.389 1_565 S
C855 C856 1.387 . S
C856 H841 0.930 . S
C856 C851 1.390 1_565 S
C856 C855 1.387 . S
H857 C869 0.930 . S
H858 C871 0.930 . S
H859 C872 0.930 . S
H860 C876 0.959 . S
H861 C876 0.959 . S
H862 C876 0.961 . S
H863 C877 0.960 . S
H864 C877 0.961 . S
H865 C877 0.959 . S
H866 C880 0.929 . S
H867 C881 0.931 . S
H868 C883 0.930 . S
C869 H857 0.930 . S
C869 C870 1.399 . S
C869 C874 1.399 . S
C870 C869 1.399 . S
C870 C871 1.376 . S
C871 H858 0.930 . S
C871 C870 1.376 . S
C871 C872 1.388 . S
C872 H859 0.930 . S
C872 C871 1.388 . S
C872 C873 1.390 . S
C873 C872 1.390 . S
C873 C874 1.394 . S
C873 C879 1.465 . S
C874 C869 1.399 . S
C874 C873 1.394 . S
C874 C875 1.516 . S
C875 C874 1.516 . S
C875 C876 1.502 . S
C875 C877 1.561 . S
C875 C878 1.526 . S
C876 H860 0.959 . S
C876 H861 0.959 . S
C876 H862 0.961 . S
C876 C875 1.502 . S
C877 H863 0.960 . S
C877 H864 0.961 . S
C877 H865 0.959 . S
C877 C875 1.561 . S
C878 C875 1.526 . S
C878 C879 1.396 . S
C878 C883 1.390 . S
C879 C873 1.465 . S
C879 C878 1.396 . S
C879 C880 1.399 . S
C880 H866 0.929 . S
C880 C879 1.399 . S
C880 C881 1.385 . S
C881 H867 0.931 . S
C881 C880 1.385 . S
C881 C882 1.389 . S
C882 C881 1.389 . S
C882 C883 1.387 . S
C883 H868 0.930 . S
C883 C878 1.390 . S
C883 C882 1.387 . S
H884 C896 0.930 . S
H885 C898 0.930 . S
H886 C899 0.930 . S
H887 C903 0.959 . S
H888 C903 0.959 . S
H889 C903 0.961 . S
H890 C904 0.960 . S
H891 C904 0.961 . S
H892 C904 0.959 . S
H893 C907 0.929 . S
H894 C908 0.931 . S
H895 C910 0.930 . S
C896 H884 0.930 . S
C896 C897 1.389 1_545 S
C896 C901 1.399 . S
C897 C896 1.389 1_565 S
C897 C898 1.377 . S
C898 H885 0.930 . S
C898 C897 1.377 . S
C898 C899 1.388 1_565 S
C899 H886 0.930 . S
C899 C898 1.388 1_545 S
C899 C900 1.390 . S
C900 C899 1.390 . S
C900 C901 1.394 . S
C900 C906 1.465 . S
C901 C896 1.399 . S
C901 C900 1.394 . S
C901 C902 1.516 . S
C902 C901 1.516 . S
C902 C903 1.502 . S
C902 C904 1.561 . S
C902 C905 1.526 . S
C903 H887 0.959 . S
C903 H888 0.959 . S
C903 H889 0.961 . S
C903 C902 1.502 . S
C904 H890 0.960 . S
C904 H891 0.961 . S
C904 H892 0.959 . S
C904 C902 1.561 . S
C905 C902 1.526 . S
C905 C906 1.396 . S
C905 C910 1.390 . S
C906 C900 1.465 . S
C906 C905 1.396 . S
C906 C907 1.399 . S
C907 H893 0.929 . S
C907 C906 1.399 . S
C907 C908 1.385 . S
C908 H894 0.931 . S
C908 C907 1.385 . S
C908 C909 1.389 . S
C909 C908 1.389 . S
C909 C910 1.387 . S
C910 H895 0.930 . S
C910 C905 1.390 . S
C910 C909 1.387 . S
H911 C923 0.930 . S
H912 C925 0.930 . S
H913 C926 0.930 . S
H914 C930 0.959 . S
H915 C930 0.959 . S
H916 C930 0.961 . S
H917 C931 0.960 . S
H918 C931 0.961 . S
H919 C931 0.959 . S
H920 C934 0.929 . S
H921 C935 0.931 . S
H922 C937 0.930 . S
C923 H911 0.930 . S
C923 C924 1.399 . S
C923 C928 1.399 . S
C924 C923 1.399 . S
C924 C925 1.376 . S
C925 H912 0.930 . S
C925 C924 1.376 . S
C925 C926 1.388 . S
C926 H913 0.930 . S
C926 C925 1.388 . S
C926 C927 1.390 . S
C927 C926 1.390 . S
C927 C928 1.394 . S
C927 C933 1.465 . S
C928 C923 1.399 . S
C928 C927 1.394 . S
C928 C929 1.516 . S
C929 C928 1.516 . S
C929 C930 1.502 . S
C929 C931 1.561 . S
C929 C932 1.526 . S
C930 H914 0.959 . S
C930 H915 0.959 . S
C930 H916 0.961 . S
C930 C929 1.502 . S
C931 H917 0.960 . S
C931 H918 0.961 . S
C931 H919 0.959 . S
C931 C929 1.561 . S
C932 C929 1.526 . S
C932 C933 1.396 . S
C932 C937 1.390 . S
C933 C927 1.465 . S
C933 C932 1.396 . S
C933 C934 1.399 . S
C934 H920 0.929 . S
C934 C933 1.399 . S
C934 C935 1.385 . S
C935 H921 0.931 . S
C935 C934 1.385 . S
C935 C936 1.389 . S
C936 C935 1.389 . S
C936 C937 1.387 . S
C937 H922 0.930 . S
C937 C932 1.390 . S
C937 C936 1.387 . S
H938 C950 0.930 . S
H939 C952 0.930 . S
H940 C953 0.930 . S
H941 C957 0.959 . S
H942 C957 0.959 . S
H943 C957 0.961 . S
H944 C958 0.928 1_565 S
H945 C958 0.961 . S
H946 C958 0.959 . S
H947 C961 0.929 . S
H948 C962 0.931 . S
H949 C964 0.930 . S
C950 H938 0.930 . S
C950 C951 1.399 . S
C950 C955 1.399 1_565 S
C951 C950 1.399 . S
C951 C952 1.376 1_565 S
C952 H939 0.930 . S
C952 C951 1.376 1_545 S
C952 C953 1.388 . S
C953 H940 0.930 . S
C953 C952 1.388 . S
C953 C954 1.390 . S
C954 C953 1.390 . S
C954 C955 1.394 . S
C954 C960 1.465 . S
C955 C950 1.399 1_545 S
C955 C954 1.394 . S
C955 C956 1.516 . S
C956 C955 1.516 . S
C956 C957 1.502 . S
C956 C958 1.561 . S
C956 C959 1.526 . S
C957 H941 0.959 . S
C957 H942 0.959 . S
C957 H943 0.961 . S
C957 C956 1.502 . S
C958 H944 0.928 1_545 S
C958 H945 0.961 . S
C958 H946 0.959 . S
C958 C956 1.561 . S
C959 C956 1.526 . S
C959 C960 1.396 . S
C959 C964 1.390 . S
C960 C954 1.465 . S
C960 C959 1.396 . S
C960 C961 1.399 . S
C961 H947 0.929 . S
C961 C960 1.399 . S
C961 C962 1.385 . S
C962 H948 0.931 . S
C962 C961 1.385 . S
C962 C963 1.389 . S
C963 C962 1.389 . S
C963 C964 1.387 . S
C964 H949 0.930 . S
C964 C959 1.390 . S
C964 C963 1.387 . S
H965 C977 0.930 . S
H966 C979 0.930 . S
H967 C980 0.930 . S
H968 C984 0.959 . S
H969 C984 0.959 . S
H970 C984 0.961 . S
H971 C985 0.960 . S
H972 C985 0.961 . S
H973 C985 0.959 . S
H974 C988 0.929 . S
H975 C989 0.931 . S
H976 C991 0.930 . S
C977 H965 0.930 . S
C977 C978 1.399 . S
C977 C982 1.399 . S
C978 C977 1.399 . S
C978 C979 1.376 . S
C979 H966 0.930 . S
C979 C978 1.376 . S
C979 C980 1.388 . S
C980 H967 0.930 . S
C980 C979 1.388 . S
C980 C981 1.390 . S
C981 C980 1.390 . S
C981 C982 1.394 . S
C981 C987 1.465 . S
C982 C977 1.399 . S
C982 C981 1.394 . S
C982 C983 1.516 . S
C983 C982 1.516 . S
C983 C984 1.502 . S
C983 C985 1.561 . S
C983 C986 1.526 . S
C984 H968 0.959 . S
C984 H969 0.959 . S
C984 H970 0.961 . S
C984 C983 1.502 . S
C985 H971 0.960 . S
C985 H972 0.961 . S
C985 H973 0.959 . S
C985 C983 1.561 . S
C986 C983 1.526 . S
C986 C987 1.396 . S
C986 C991 1.390 . S
C987 C981 1.465 . S
C987 C986 1.396 . S
C987 C988 1.399 . S
C988 H974 0.929 . S
C988 C987 1.399 . S
C988 C989 1.385 . S
C989 H975 0.931 . S
C989 C988 1.385 . S
C989 C990 1.389 . S
C990 C989 1.389 . S
C990 C991 1.387 . S
C991 H976 0.930 . S
C991 C986 1.390 . S
C991 C990 1.387 . S
H992 C1004 0.930 . S
H993 C1006 0.930 . S
H994 C1007 0.930 . S
H995 C1011 0.959 . S
H996 C1011 0.959 . S
H997 C1011 0.961 . S
H998 C1012 0.960 . S
H999 C1012 0.961 . S
H1000 C1012 0.959 . S
H1001 C1015 0.929 . S
H1002 C1016 0.931 . S
H1003 C1018 0.930 . S
C1004 H992 0.930 . S
C1004 C1005 1.399 . S
C1004 C1009 1.399 . S
C1005 C1004 1.399 . S
C1005 C1006 1.376 . S
C1006 H993 0.930 . S
C1006 C1005 1.376 . S
C1006 C1007 1.388 . S
C1007 H994 0.930 . S
C1007 C1006 1.388 . S
C1007 C1008 1.390 . S
C1008 C1007 1.390 . S
C1008 C1009 1.394 . S
C1008 C1014 1.465 . S
C1009 C1004 1.399 . S
C1009 C1008 1.394 . S
C1009 C1010 1.516 . S
C1010 C1009 1.516 . S
C1010 C1011 1.502 . S
C1010 C1012 1.561 . S
C1010 C1013 1.526 . S
C1011 H995 0.959 . S
C1011 H996 0.959 . S
C1011 H997 0.961 . S
C1011 C1010 1.502 . S
C1012 H998 0.960 . S
C1012 H999 0.961 . S
C1012 H1000 0.959 . S
C1012 C1010 1.561 . S
C1013 C1010 1.526 . S
C1013 C1014 1.396 . S
C1013 C1018 1.390 . S
C1014 C1008 1.465 . S
C1014 C1013 1.396 . S
C1014 C1015 1.399 . S
C1015 H1001 0.929 . S
C1015 C1014 1.399 . S
C1015 C1016 1.385 . S
C1016 H1002 0.931 . S
C1016 C1015 1.385 . S
C1016 C1017 1.389 . S
C1017 C1016 1.389 . S
C1017 C1018 1.387 . S
C1018 H1003 0.930 . S
C1018 C1013 1.390 . S
C1018 C1017 1.387 . S
H1019 C1031 0.930 . S
H1020 C1033 0.930 . S
H1021 C1034 0.930 . S
H1022 C1038 0.959 . S
H1023 C1038 0.959 . S
H1024 C1038 0.961 . S
H1025 C1039 0.960 . S
H1026 C1039 0.961 . S
H1027 C1039 0.959 . S
H1028 C1042 0.929 . S
H1029 C1043 0.931 . S
H1030 C1045 0.930 . S
C1031 H1019 0.930 . S
C1031 C1032 1.399 . S
C1031 C1036 1.399 . S
C1032 C1031 1.399 . S
C1032 C1033 1.376 . S
C1033 H1020 0.930 . S
C1033 C1032 1.376 . S
C1033 C1034 1.388 . S
C1034 H1021 0.930 . S
C1034 C1033 1.388 . S
C1034 C1035 1.390 . S
C1035 C1034 1.390 . S
C1035 C1036 1.394 . S
C1035 C1041 1.465 . S
C1036 C1031 1.399 . S
C1036 C1035 1.394 . S
C1036 C1037 1.516 . S
C1037 C1036 1.516 . S
C1037 C1038 1.502 . S
C1037 C1039 1.561 . S
C1037 C1040 1.526 . S
C1038 H1022 0.959 . S
C1038 H1023 0.959 . S
C1038 H1024 0.961 . S
C1038 C1037 1.502 . S
C1039 H1025 0.960 . S
C1039 H1026 0.961 . S
C1039 H1027 0.959 . S
C1039 C1037 1.561 . S
C1040 C1037 1.526 . S
C1040 C1041 1.396 . S
C1040 C1045 1.390 . S
C1041 C1035 1.465 . S
C1041 C1040 1.396 . S
C1041 C1042 1.399 . S
C1042 H1028 0.929 . S
C1042 C1041 1.399 . S
C1042 C1043 1.385 . S
C1043 H1029 0.931 . S
C1043 C1042 1.385 . S
C1043 C1044 1.389 . S
C1044 C1043 1.389 . S
C1044 C1045 1.387 . S
C1045 H1030 0.930 . S
C1045 C1040 1.390 . S
C1045 C1044 1.387 . S
H1046 C1058 0.930 . S
H1047 C1060 0.930 . S
H1048 C1061 0.930 . S
H1049 C1065 0.959 . S
H1050 C1065 0.959 . S
H1051 C1065 0.961 . S
H1052 C1066 0.960 . S
H1053 C1066 0.961 . S
H1054 C1066 0.959 . S
H1055 C1069 0.929 . S
H1056 C1070 0.931 . S
H1057 C1072 0.930 . S
C1058 H1046 0.930 . S
C1058 C1059 1.399 . S
C1058 C1063 1.399 . S
C1059 C1058 1.399 . S
C1059 C1060 1.376 . S
C1060 H1047 0.930 . S
C1060 C1059 1.376 . S
C1060 C1061 1.388 . S
C1061 H1048 0.930 . S
C1061 C1060 1.388 . S
C1061 C1062 1.390 . S
C1062 C1061 1.390 . S
C1062 C1063 1.394 . S
C1062 C1068 1.465 . S
C1063 C1058 1.399 . S
C1063 C1062 1.394 . S
C1063 C1064 1.516 . S
C1064 C1063 1.516 . S
C1064 C1065 1.502 . S
C1064 C1066 1.561 . S
C1064 C1067 1.526 . S
C1065 H1049 0.959 . S
C1065 H1050 0.959 . S
C1065 H1051 0.961 . S
C1065 C1064 1.502 . S
C1066 H1052 0.960 . S
C1066 H1053 0.961 . S
C1066 H1054 0.959 . S
C1066 C1064 1.561 . S
C1067 C1064 1.526 . S
C1067 C1068 1.396 . S
C1067 C1072 1.390 . S
C1068 C1062 1.465 . S
C1068 C1067 1.396 . S
C1068 C1069 1.399 . S
C1069 H1055 0.929 . S
C1069 C1068 1.399 . S
C1069 C1070 1.385 . S
C1070 H1056 0.931 . S
C1070 C1069 1.385 . S
C1070 C1071 1.389 . S
C1071 C1070 1.389 . S
C1071 C1072 1.387 . S
C1072 H1057 0.930 . S
C1072 C1067 1.390 . S
C1072 C1071 1.387 . S
H1073 C1085 0.930 . S
H1074 C1087 0.930 . S
H1075 C1088 0.930 . S
H1076 C1092 0.959 . S
H1077 C1092 0.959 . S
H1078 C1092 0.961 . S
H1079 C1093 0.960 . S
H1080 C1093 0.961 . S
H1081 C1093 0.959 . S
H1082 C1096 0.929 . S
H1083 C1097 0.931 . S
H1084 C1099 0.930 . S
C1085 H1073 0.930 . S
C1085 C1086 1.399 . S
C1085 C1090 1.399 . S
C1086 C1085 1.399 . S
C1086 C1087 1.376 . S
C1087 H1074 0.930 . S
C1087 C1086 1.376 . S
C1087 C1088 1.388 . S
C1088 H1075 0.930 . S
C1088 C1087 1.388 . S
C1088 C1089 1.390 . S
C1089 C1088 1.390 . S
C1089 C1090 1.394 . S
C1089 C1095 1.465 . S
C1090 C1085 1.399 . S
C1090 C1089 1.394 . S
C1090 C1091 1.516 . S
C1091 C1090 1.516 . S
C1091 C1092 1.502 . S
C1091 C1093 1.561 . S
C1091 C1094 1.526 . S
C1092 H1076 0.959 . S
C1092 H1077 0.959 . S
C1092 H1078 0.961 . S
C1092 C1091 1.502 . S
C1093 H1079 0.960 . S
C1093 H1080 0.961 . S
C1093 H1081 0.959 . S
C1093 C1091 1.561 . S
C1094 C1091 1.526 . S
C1094 C1095 1.396 . S
C1094 C1099 1.390 . S
C1095 C1089 1.465 . S
C1095 C1094 1.396 . S
C1095 C1096 1.399 . S
C1096 H1082 0.929 . S
C1096 C1095 1.399 . S
C1096 C1097 1.385 . S
C1097 H1083 0.931 . S
C1097 C1096 1.385 . S
C1097 C1098 1.389 . S
C1098 C1097 1.389 . S
C1098 C1099 1.387 . S
C1099 H1084 0.930 . S
C1099 C1094 1.390 . S
C1099 C1098 1.387 . S
H1100 C1112 0.930 . S
H1101 C1114 0.930 . S
H1102 C1115 0.930 . S
H1103 C1119 0.959 . S
H1104 C1119 0.959 . S
H1105 C1119 0.961 . S
H1106 C1120 0.960 . S
H1107 C1120 0.961 . S
H1108 C1120 0.959 . S
H1109 C1123 0.929 . S
H1110 C1124 0.931 . S
H1111 C1126 0.930 . S
C1112 H1100 0.930 . S
C1112 C1113 1.399 . S
C1112 C1117 1.399 . S
C1113 C1112 1.399 . S
C1113 C1114 1.376 . S
C1114 H1101 0.930 . S
C1114 C1113 1.376 . S
C1114 C1115 1.388 . S
C1115 H1102 0.930 . S
C1115 C1114 1.388 . S
C1115 C1116 1.390 . S
C1116 C1115 1.390 . S
C1116 C1117 1.394 . S
C1116 C1122 1.465 . S
C1117 C1112 1.399 . S
C1117 C1116 1.394 . S
C1117 C1118 1.516 . S
C1118 C1117 1.516 . S
C1118 C1119 1.502 . S
C1118 C1120 1.561 . S
C1118 C1121 1.526 . S
C1119 H1103 0.959 . S
C1119 H1104 0.959 . S
C1119 H1105 0.961 . S
C1119 C1118 1.502 . S
C1120 H1106 0.960 . S
C1120 H1107 0.961 . S
C1120 H1108 0.959 . S
C1120 C1118 1.561 . S
C1121 C1118 1.526 . S
C1121 C1122 1.396 . S
C1121 C1126 1.390 . S
C1122 C1116 1.465 . S
C1122 C1121 1.396 . S
C1122 C1123 1.399 . S
C1123 H1109 0.929 . S
C1123 C1122 1.399 . S
C1123 C1124 1.385 . S
C1124 H1110 0.931 . S
C1124 C1123 1.385 . S
C1124 C1125 1.389 . S
C1125 C1124 1.389 . S
C1125 C1126 1.387 . S
C1126 H1111 0.930 . S
C1126 C1121 1.390 . S
C1126 C1125 1.387 . S
H1127 C1139 0.930 . S
H1128 C1141 0.930 . S
H1129 C1142 0.930 . S
H1130 C1146 0.959 . S
H1131 C1146 0.959 . S
H1132 C1146 0.961 . S
H1133 C1147 0.960 . S
H1134 C1147 0.961 . S
H1135 C1147 0.959 . S
H1136 C1150 0.929 . S
H1137 C1151 0.931 . S
H1138 C1153 0.930 1_655 S
C1139 H1127 0.930 . S
C1139 C1140 1.399 . S
C1139 C1144 1.399 . S
C1140 C1139 1.399 . S
C1140 C1141 1.376 . S
C1141 H1128 0.930 . S
C1141 C1140 1.376 . S
C1141 C1142 1.388 . S
C1142 H1129 0.930 . S
C1142 C1141 1.388 . S
C1142 C1143 1.390 . S
C1143 C1142 1.390 . S
C1143 C1144 1.394 . S
C1143 C1149 1.465 . S
C1144 C1139 1.399 . S
C1144 C1143 1.394 . S
C1144 C1145 1.516 . S
C1145 C1144 1.516 . S
C1145 C1146 1.502 . S
C1145 C1147 1.561 . S
C1145 C1148 1.526 . S
C1146 H1130 0.959 . S
C1146 H1131 0.959 . S
C1146 H1132 0.961 . S
C1146 C1145 1.502 . S
C1147 H1133 0.960 . S
C1147 H1134 0.961 . S
C1147 H1135 0.959 . S
C1147 C1145 1.561 . S
C1148 C1145 1.526 . S
C1148 C1149 1.396 . S
C1148 C1153 1.390 . S
C1149 C1143 1.465 . S
C1149 C1148 1.396 . S
C1149 C1150 1.399 . S
C1150 H1136 0.929 . S
C1150 C1149 1.399 . S
C1150 C1151 1.385 . S
C1151 H1137 0.931 . S
C1151 C1150 1.385 . S
C1151 C1152 1.389 . S
C1152 C1151 1.389 . S
C1152 C1153 1.387 . S
C1153 H1138 0.930 1_455 S
C1153 C1148 1.390 . S
C1153 C1152 1.387 . S
H1154 C1166 0.930 . S
H1155 C1168 0.930 . S
H1156 C1169 0.930 . S
H1157 C1173 0.959 . S
H1158 C1173 0.959 . S
H1159 C1173 0.961 . S
H1160 C1174 0.960 . S
H1161 C1174 0.961 . S
H1162 C1174 0.959 . S
H1163 C1177 0.929 . S
H1164 C1178 0.931 . S
H1165 C1180 0.930 . S
C1166 H1154 0.930 . S
C1166 C1167 1.399 . S
C1166 C1171 1.399 . S
C1167 C1166 1.399 . S
C1167 C1168 1.376 . S
C1168 H1155 0.930 . S
C1168 C1167 1.376 . S
C1168 C1169 1.388 . S
C1169 H1156 0.930 . S
C1169 C1168 1.388 . S
C1169 C1170 1.390 . S
C1170 C1169 1.390 . S
C1170 C1171 1.394 . S
C1170 C1176 1.465 . S
C1171 C1166 1.399 . S
C1171 C1170 1.394 . S
C1171 C1172 1.516 . S
C1172 C1171 1.516 . S
C1172 C1173 1.502 . S
C1172 C1174 1.561 . S
C1172 C1175 1.526 . S
C1173 H1157 0.959 . S
C1173 H1158 0.959 . S
C1173 H1159 0.961 . S
C1173 C1172 1.502 . S
C1174 H1160 0.960 . S
C1174 H1161 0.961 . S
C1174 H1162 0.959 . S
C1174 C1172 1.561 . S
C1175 C1172 1.526 . S
C1175 C1176 1.396 . S
C1175 C1180 1.390 . S
C1176 C1170 1.465 . S
C1176 C1175 1.396 . S
C1176 C1177 1.399 . S
C1177 H1163 0.929 . S
C1177 C1176 1.399 . S
C1177 C1178 1.385 . S
C1178 H1164 0.931 . S
C1178 C1177 1.385 . S
C1178 C1179 1.389 . S
C1179 C1178 1.389 . S
C1179 C1180 1.387 . S
C1180 H1165 0.930 . S
C1180 C1175 1.390 . S
C1180 C1179 1.387 . S
H1181 C1193 0.930 . S
H1182 C1195 0.930 . S
H1183 C1196 0.929 . S
H1184 C1200 0.959 . S
H1185 C1200 0.959 . S
H1186 C1200 0.961 . S
H1187 C1201 0.960 . S
H1188 C1201 0.961 1_455 S
H1189 C1201 0.959 1_455 S
H1190 C1204 0.929 . S
H1191 C1205 0.931 . S
H1192 C1207 0.930 . S
C1193 H1181 0.930 . S
C1193 C1194 1.399 . S
C1193 C1198 1.399 . S
C1194 C1193 1.399 . S
C1194 C1195 1.376 . S
C1195 H1182 0.930 . S
C1195 C1194 1.376 . S
C1195 C1196 1.388 . S
C1196 H1183 0.929 . S
C1196 C1195 1.388 . S
C1196 C1197 1.390 . S
C1197 C1196 1.390 . S
C1197 C1198 1.394 . S
C1197 C1203 1.465 1_655 S
C1198 C1193 1.399 . S
C1198 C1197 1.394 . S
C1198 C1199 1.516 . S
C1199 C1198 1.516 . S
C1199 C1200 1.502 . S
C1199 C1201 1.561 . S
C1199 C1202 1.526 1_655 S
C1200 H1184 0.959 . S
C1200 H1185 0.959 . S
C1200 H1186 0.961 . S
C1200 C1199 1.502 . S
C1201 H1187 0.960 . S
C1201 H1188 0.961 1_655 S
C1201 H1189 0.959 1_655 S
C1201 C1199 1.561 . S
C1202 C1199 1.526 1_455 S
C1202 C1203 1.396 . S
C1202 C1207 1.390 . S
C1203 C1197 1.465 1_455 S
C1203 C1202 1.396 . S
C1203 C1204 1.399 . S
C1204 H1190 0.929 . S
C1204 C1203 1.399 . S
C1204 C1205 1.385 . S
C1205 H1191 0.931 . S
C1205 C1204 1.385 . S
C1205 C1206 1.389 . S
C1206 C1205 1.389 . S
C1206 C1207 1.387 . S
C1207 H1192 0.930 . S
C1207 C1202 1.390 . S
C1207 C1206 1.387 . S
H1208 C1220 0.930 . S
H1209 C1222 0.930 . S
H1210 C1223 0.930 . S
H1211 C1227 0.959 . S
H1212 C1227 0.959 . S
H1213 C1227 0.961 . S
H1214 C1228 0.960 . S
H1215 C1228 0.961 . S
H1216 C1228 0.959 . S
H1217 C1231 0.929 . S
H1218 C1232 0.931 . S
H1219 C1234 0.930 . S
C1220 H1208 0.930 . S
C1220 C1221 1.399 . S
C1220 C1225 1.399 . S
C1221 C1220 1.399 . S
C1221 C1222 1.376 . S
C1222 H1209 0.930 . S
C1222 C1221 1.376 . S
C1222 C1223 1.388 . S
C1223 H1210 0.930 . S
C1223 C1222 1.388 . S
C1223 C1224 1.390 . S
C1224 C1223 1.390 . S
C1224 C1225 1.394 . S
C1224 C1230 1.465 . S
C1225 C1220 1.399 . S
C1225 C1224 1.394 . S
C1225 C1226 1.516 . S
C1226 C1225 1.516 . S
C1226 C1227 1.502 . S
C1226 C1228 1.561 . S
C1226 C1229 1.526 . S
C1227 H1211 0.959 . S
C1227 H1212 0.959 . S
C1227 H1213 0.961 . S
C1227 C1226 1.502 . S
C1228 H1214 0.960 . S
C1228 H1215 0.961 . S
C1228 H1216 0.959 . S
C1228 C1226 1.561 . S
C1229 C1226 1.526 . S
C1229 C1230 1.396 . S
C1229 C1234 1.390 . S
C1230 C1224 1.465 . S
C1230 C1229 1.396 . S
C1230 C1231 1.399 . S
C1231 H1217 0.929 . S
C1231 C1230 1.399 . S
C1231 C1232 1.385 . S
C1232 H1218 0.931 . S
C1232 C1231 1.385 . S
C1232 C1233 1.389 . S
C1233 C1232 1.389 . S
C1233 C1234 1.387 . S
C1234 H1219 0.930 . S
C1234 C1229 1.390 . S
C1234 C1233 1.387 . S
H1235 C1247 0.930 . S
H1236 C1249 0.930 . S
H1237 C1250 0.930 . S
H1238 C1254 0.959 . S
H1239 C1254 0.959 . S
H1240 C1254 0.961 . S
H1241 C1255 0.960 . S
H1242 C1255 0.961 . S
H1243 C1255 0.959 1_556 S
H1244 C1258 0.929 . S
H1245 C1259 0.931 . S
H1246 C1261 0.930 . S
C1247 H1235 0.930 . S
C1247 C1248 1.399 . S
C1247 C1252 1.399 . S
C1248 C1247 1.399 . S
C1248 C1249 1.376 . S
C1249 H1236 0.930 . S
C1249 C1248 1.376 . S
C1249 C1250 1.388 1_554 S
C1250 H1237 0.930 . S
C1250 C1249 1.388 1_556 S
C1250 C1251 1.390 . S
C1251 C1250 1.390 . S
C1251 C1252 1.394 1_556 S
C1251 C1257 1.465 . S
C1252 C1247 1.399 . S
C1252 C1251 1.394 1_554 S
C1252 C1253 1.516 . S
C1253 C1252 1.516 . S
C1253 C1254 1.502 . S
C1253 C1255 1.561 . S
C1253 C1256 1.526 1_554 S
C1254 H1238 0.959 . S
C1254 H1239 0.959 . S
C1254 H1240 0.961 . S
C1254 C1253 1.502 . S
C1255 H1241 0.960 . S
C1255 H1242 0.961 . S
C1255 H1243 0.959 1_554 S
C1255 C1253 1.561 . S
C1256 C1253 1.526 1_556 S
C1256 C1257 1.396 . S
C1256 C1261 1.390 . S
C1257 C1251 1.465 . S
C1257 C1256 1.396 . S
C1257 C1258 1.399 . S
C1258 H1244 0.929 . S
C1258 C1257 1.399 . S
C1258 C1259 1.385 . S
C1259 H1245 0.931 . S
C1259 C1258 1.385 . S
C1259 C1260 1.389 . S
C1260 C1259 1.389 . S
C1260 C1261 1.387 . S
C1261 H1246 0.930 . S
C1261 C1256 1.390 . S
C1261 C1260 1.387 . S
H1262 C1274 0.930 . S
H1263 C1276 0.930 . S
H1264 C1277 0.930 . S
H1265 C1281 0.959 . S
H1266 C1281 0.959 . S
H1267 C1281 0.961 . S
H1268 C1282 0.960 . S
H1269 C1282 0.961 . S
H1270 C1282 0.959 . S
H1271 C1285 0.929 . S
H1272 C1286 0.931 . S
H1273 C1288 0.930 . S
C1274 H1262 0.930 . S
C1274 C1275 1.399 . S
C1274 C1279 1.399 . S
C1275 C1274 1.399 . S
C1275 C1276 1.376 . S
C1276 H1263 0.930 . S
C1276 C1275 1.376 . S
C1276 C1277 1.388 . S
C1277 H1264 0.930 . S
C1277 C1276 1.388 . S
C1277 C1278 1.390 . S
C1278 C1277 1.390 . S
C1278 C1279 1.394 . S
C1278 C1284 1.465 . S
C1279 C1274 1.399 . S
C1279 C1278 1.394 . S
C1279 C1280 1.516 . S
C1280 C1279 1.516 . S
C1280 C1281 1.502 . S
C1280 C1282 1.561 . S
C1280 C1283 1.526 . S
C1281 H1265 0.959 . S
C1281 H1266 0.959 . S
C1281 H1267 0.961 . S
C1281 C1280 1.502 . S
C1282 H1268 0.960 . S
C1282 H1269 0.961 . S
C1282 H1270 0.959 . S
C1282 C1280 1.561 . S
C1283 C1280 1.526 . S
C1283 C1284 1.396 . S
C1283 C1288 1.390 . S
C1284 C1278 1.465 . S
C1284 C1283 1.396 . S
C1284 C1285 1.399 . S
C1285 H1271 0.929 . S
C1285 C1284 1.399 . S
C1285 C1286 1.385 . S
C1286 H1272 0.931 . S
C1286 C1285 1.385 . S
C1286 C1287 1.389 . S
C1287 C1286 1.389 . S
C1287 C1288 1.387 . S
C1288 H1273 0.930 . S
C1288 C1283 1.390 . S
C1288 C1287 1.387 . S
H1289 C1301 0.930 . S
H1290 C1303 0.930 . S
H1291 C1304 0.930 . S
H1292 C1308 0.959 . S
H1293 C1308 0.959 . S
H1294 C1308 0.961 . S
H1295 C1309 0.960 . S
H1296 C1309 0.961 . S
H1297 C1309 0.959 . S
H1298 C1312 0.929 . S
H1299 C1313 0.931 . S
H1300 C1315 0.930 . S
C1301 H1289 0.930 . S
C1301 C1302 1.399 . S
C1301 C1306 1.399 . S
C1302 C1301 1.399 . S
C1302 C1303 1.376 . S
C1303 H1290 0.930 . S
C1303 C1302 1.376 . S
C1303 C1304 1.388 . S
C1304 H1291 0.930 . S
C1304 C1303 1.388 . S
C1304 C1305 1.390 . S
C1305 C1304 1.390 . S
C1305 C1306 1.394 . S
C1305 C1311 1.501 . S
C1306 C1301 1.399 . S
C1306 C1305 1.394 . S
C1306 C1307 1.516 . S
C1307 C1306 1.516 . S
C1307 C1308 1.502 . S
C1307 C1309 1.561 . S
C1307 C1310 1.526 . S
C1308 H1292 0.959 . S
C1308 H1293 0.959 . S
C1308 H1294 0.961 . S
C1308 C1307 1.502 . S
C1309 H1295 0.960 . S
C1309 H1296 0.961 . S
C1309 H1297 0.959 . S
C1309 C1307 1.561 . S
C1310 C1307 1.526 . S
C1310 C1311 1.402 . S
C1310 C1315 1.390 1_554 S
C1311 C1305 1.501 . S
C1311 C1310 1.402 . S
C1311 C1312 1.362 1_554 S
C1312 H1298 0.929 . S
C1312 C1311 1.362 1_556 S
C1312 C1313 1.385 . S
C1313 H1299 0.931 . S
C1313 C1312 1.385 . S
C1313 C1314 1.389 . S
C1314 C1313 1.389 . S
C1314 C1315 1.387 . S
C1315 H1300 0.930 . S
C1315 C1310 1.390 1_556 S
C1315 C1314 1.387 . S
H1316 C1328 0.930 . S
H1317 C1330 0.930 . S
H1318 C1331 0.930 . S
H1319 C1335 0.959 . S
H1320 C1335 0.959 . S
H1321 C1335 0.961 . S
H1322 C1336 0.960 . S
H1323 C1336 0.961 . S
H1324 C1336 0.959 . S
H1325 C1339 0.929 . S
H1326 C1340 0.931 . S
H1327 C1342 0.930 . S
C1328 H1316 0.930 . S
C1328 C1329 1.399 . S
C1328 C1333 1.399 . S
C1329 C1328 1.399 . S
C1329 C1330 1.376 . S
C1330 H1317 0.930 . S
C1330 C1329 1.376 . S
C1330 C1331 1.388 . S
C1331 H1318 0.930 . S
C1331 C1330 1.388 . S
C1331 C1332 1.390 . S
C1332 C1331 1.390 . S
C1332 C1333 1.394 . S
C1332 C1338 1.465 . S
C1333 C1328 1.399 . S
C1333 C1332 1.394 . S
C1333 C1334 1.516 . S
C1334 C1333 1.516 . S
C1334 C1335 1.502 . S
C1334 C1336 1.561 . S
C1334 C1337 1.526 . S
C1335 H1319 0.959 . S
C1335 H1320 0.959 . S
C1335 H1321 0.961 . S
C1335 C1334 1.502 . S
C1336 H1322 0.960 . S
C1336 H1323 0.961 . S
C1336 H1324 0.959 . S
C1336 C1334 1.561 . S
C1337 C1334 1.526 . S
C1337 C1338 1.396 . S
C1337 C1342 1.390 . S
C1338 C1332 1.465 . S
C1338 C1337 1.396 . S
C1338 C1339 1.399 . S
C1339 H1325 0.929 . S
C1339 C1338 1.399 . S
C1339 C1340 1.385 . S
C1340 H1326 0.931 . S
C1340 C1339 1.385 . S
C1340 C1341 1.389 . S
C1341 C1340 1.389 . S
C1341 C1342 1.387 . S
C1342 H1327 0.930 . S
C1342 C1337 1.390 . S
C1342 C1341 1.387 . S
H1343 C1355 0.930 . S
H1344 C1357 0.930 . S
H1345 C1358 0.930 . S
H1346 C1362 0.959 1_554 S
H1347 C1362 0.959 1_554 S
H1348 C1362 0.961 . S
H1349 C1363 0.960 1_556 S
H1350 C1363 0.961 . S
H1351 C1363 0.959 . S
H1352 C1366 0.929 . S
H1353 C1367 0.931 . S
H1354 C1369 0.930 . S
C1355 H1343 0.930 . S
C1355 C1356 1.399 . S
C1355 C1360 1.399 1_556 S
C1356 C1355 1.399 . S
C1356 C1357 1.376 1_556 S
C1357 H1344 0.930 . S
C1357 C1356 1.376 1_554 S
C1357 C1358 1.388 . S
C1358 H1345 0.930 . S
C1358 C1357 1.388 . S
C1358 C1359 1.390 . S
C1359 C1358 1.390 . S
C1359 C1360 1.394 . S
C1359 C1365 1.465 . S
C1360 C1355 1.399 1_554 S
C1360 C1359 1.394 . S
C1360 C1361 1.516 . S
C1361 C1360 1.516 . S
C1361 C1362 1.502 1_554 S
C1361 C1363 1.561 . S
C1361 C1364 1.526 . S
C1362 H1346 0.959 1_556 S
C1362 H1347 0.959 1_556 S
C1362 H1348 0.961 . S
C1362 C1361 1.502 1_556 S
C1363 H1349 0.960 1_554 S
C1363 H1350 0.961 . S
C1363 H1351 0.959 . S
C1363 C1361 1.561 . S
C1364 C1361 1.526 . S
C1364 C1365 1.396 . S
C1364 C1369 1.390 . S
C1365 C1359 1.465 . S
C1365 C1364 1.396 . S
C1365 C1366 1.399 . S
C1366 H1352 0.929 . S
C1366 C1365 1.399 . S
C1366 C1367 1.385 . S
C1367 H1353 0.931 . S
C1367 C1366 1.385 . S
C1367 C1368 1.389 . S
C1368 C1367 1.389 . S
C1368 C1369 1.387 . S
C1369 H1354 0.930 . S
C1369 C1364 1.390 . S
C1369 C1368 1.387 . S
H1370 C1382 0.930 . S
H1371 C1384 0.930 . S
H1372 C1385 0.930 . S
H1373 C1389 0.959 . S
H1374 C1389 0.959 . S
H1375 C1389 0.961 . S
H1376 C1390 0.960 . S
H1377 C1390 0.961 . S
H1378 C1390 0.959 . S
H1379 C1393 0.929 . S
H1380 C1394 0.931 . S
H1381 C1396 0.930 . S
C1382 H1370 0.930 . S
C1382 C1383 1.399 . S
C1382 C1387 1.399 . S
C1383 C1382 1.399 . S
C1383 C1384 1.376 . S
C1384 H1371 0.930 . S
C1384 C1383 1.376 . S
C1384 C1385 1.388 . S
C1385 H1372 0.930 . S
C1385 C1384 1.388 . S
C1385 C1386 1.390 . S
C1386 C1385 1.390 . S
C1386 C1387 1.394 . S
C1386 C1392 1.465 . S
C1387 C1382 1.399 . S
C1387 C1386 1.394 . S
C1387 C1388 1.516 . S
C1388 C1387 1.516 . S
C1388 C1389 1.502 . S
C1388 C1390 1.561 . S
C1388 C1391 1.526 . S
C1389 H1373 0.959 . S
C1389 H1374 0.959 . S
C1389 H1375 0.961 . S
C1389 C1388 1.502 . S
C1390 H1376 0.960 . S
C1390 H1377 0.961 . S
C1390 H1378 0.959 . S
C1390 C1388 1.561 . S
C1391 C1388 1.526 . S
C1391 C1392 1.396 . S
C1391 C1396 1.390 . S
C1392 C1386 1.465 . S
C1392 C1391 1.396 . S
C1392 C1393 1.399 . S
C1393 H1379 0.929 . S
C1393 C1392 1.399 . S
C1393 C1394 1.385 . S
C1394 H1380 0.931 . S
C1394 C1393 1.385 . S
C1394 C1395 1.389 . S
C1395 C1394 1.389 . S
C1395 C1396 1.387 . S
C1396 H1381 0.930 . S
C1396 C1391 1.390 . S
C1396 C1395 1.387 . S
H1397 C1409 0.930 . S
H1398 C1411 0.930 . S
H1399 C1412 0.930 . S
H1400 C1416 0.959 . S
H1401 C1416 0.959 . S
H1402 C1416 0.961 . S
H1403 C1417 0.960 . S
H1404 C1417 0.961 . S
H1405 C1417 0.959 . S
H1406 C1420 0.929 . S
H1407 C1421 0.931 . S
H1408 C1423 0.930 . S
C1409 H1397 0.930 . S
C1409 C1410 1.399 . S
C1409 C1414 1.399 1_556 S
C1410 C1409 1.399 . S
C1410 C1411 1.376 . S
C1411 H1398 0.930 . S
C1411 C1410 1.376 . S
C1411 C1412 1.388 . S
C1412 H1399 0.930 . S
C1412 C1411 1.388 . S
C1412 C1413 1.390 1_556 S
C1413 C1412 1.390 1_554 S
C1413 C1414 1.394 . S
C1413 C1419 1.465 . S
C1414 C1409 1.399 1_554 S
C1414 C1413 1.394 . S
C1414 C1415 1.516 . S
C1415 C1414 1.516 . S
C1415 C1416 1.502 . S
C1415 C1417 1.561 . S
C1415 C1418 1.526 . S
C1416 H1400 0.959 . S
C1416 H1401 0.959 . S
C1416 H1402 0.961 . S
C1416 C1415 1.502 . S
C1417 H1403 0.960 . S
C1417 H1404 0.961 . S
C1417 H1405 0.959 . S
C1417 C1415 1.561 . S
C1418 C1415 1.526 . S
C1418 C1419 1.396 . S
C1418 C1423 1.390 . S
C1419 C1413 1.465 . S
C1419 C1418 1.396 . S
C1419 C1420 1.399 . S
C1420 H1406 0.929 . S
C1420 C1419 1.399 . S
C1420 C1421 1.385 . S
C1421 H1407 0.931 . S
C1421 C1420 1.385 . S
C1421 C1422 1.389 . S
C1422 C1421 1.389 . S
C1422 C1423 1.387 . S
C1423 H1408 0.930 . S
C1423 C1418 1.390 . S
C1423 C1422 1.387 . S
H1424 C1436 0.930 . S
H1425 C1438 0.930 . S
H1426 C1439 0.930 . S
H1427 C1443 0.959 . S
H1428 C1443 0.959 . S
H1429 C1443 0.961 . S
H1430 C1444 0.960 . S
H1431 C1444 0.961 . S
H1432 C1444 0.959 . S
H1433 C1447 0.929 . S
H1434 C1448 0.931 . S
H1435 C1450 0.930 . S
C1436 H1424 0.930 . S
C1436 C1437 1.399 . S
C1436 C1441 1.399 . S
C1437 C1436 1.399 . S
C1437 C1438 1.376 . S
C1438 H1425 0.930 . S
C1438 C1437 1.376 . S
C1438 C1439 1.388 . S
C1439 H1426 0.930 . S
C1439 C1438 1.388 . S
C1439 C1440 1.390 . S
C1440 C1439 1.390 . S
C1440 C1441 1.394 . S
C1440 C1446 1.465 . S
C1441 C1436 1.399 . S
C1441 C1440 1.394 . S
C1441 C1442 1.516 . S
C1442 C1441 1.516 . S
C1442 C1443 1.502 . S
C1442 C1444 1.561 . S
C1442 C1445 1.526 . S
C1443 H1427 0.959 . S
C1443 H1428 0.959 . S
C1443 H1429 0.961 . S
C1443 C1442 1.502 . S
C1444 H1430 0.960 . S
C1444 H1431 0.961 . S
C1444 H1432 0.959 . S
C1444 C1442 1.561 . S
C1445 C1442 1.526 . S
C1445 C1446 1.396 . S
C1445 C1450 1.390 . S
C1446 C1440 1.465 . S
C1446 C1445 1.396 . S
C1446 C1447 1.399 . S
C1447 H1433 0.929 . S
C1447 C1446 1.399 . S
C1447 C1448 1.385 . S
C1448 H1434 0.931 . S
C1448 C1447 1.385 . S
C1448 C1449 1.389 . S
C1449 C1448 1.389 . S
C1449 C1450 1.387 . S
C1450 H1435 0.930 . S
C1450 C1445 1.390 . S
C1450 C1449 1.387 . S
H1451 C1463 0.930 . S
H1452 C1465 0.930 . S
H1453 C1466 0.930 . S
H1454 C1470 0.959 . S
H1455 C1470 0.959 . S
H1456 C1470 0.961 . S
H1457 C1471 0.960 . S
H1458 C1471 0.961 . S
H1459 C1471 0.959 . S
H1460 C1474 0.929 . S
H1461 C1475 0.931 . S
H1462 C1477 0.930 . S
C1463 H1451 0.930 . S
C1463 C1464 1.399 . S
C1463 C1468 1.399 . S
C1464 C1463 1.399 . S
C1464 C1465 1.376 . S
C1465 H1452 0.930 . S
C1465 C1464 1.376 . S
C1465 C1466 1.388 . S
C1466 H1453 0.930 . S
C1466 C1465 1.388 . S
C1466 C1467 1.390 . S
C1467 C1466 1.390 . S
C1467 C1468 1.394 . S
C1467 C1473 1.465 . S
C1468 C1463 1.399 . S
C1468 C1467 1.394 . S
C1468 C1469 1.516 . S
C1469 C1468 1.516 . S
C1469 C1470 1.502 . S
C1469 C1471 1.561 . S
C1469 C1472 1.526 . S
C1470 H1454 0.959 . S
C1470 H1455 0.959 . S
C1470 H1456 0.961 . S
C1470 C1469 1.502 . S
C1471 H1457 0.960 . S
C1471 H1458 0.961 . S
C1471 H1459 0.959 . S
C1471 C1469 1.561 . S
C1472 C1469 1.526 . S
C1472 C1473 1.396 . S
C1472 C1477 1.390 . S
C1473 C1467 1.465 . S
C1473 C1472 1.396 . S
C1473 C1474 1.399 . S
C1474 H1460 0.929 . S
C1474 C1473 1.399 . S
C1474 C1475 1.385 . S
C1475 H1461 0.931 . S
C1475 C1474 1.385 . S
C1475 C1476 1.389 . S
C1476 C1475 1.389 . S
C1476 C1477 1.387 . S
C1477 H1462 0.930 . S
C1477 C1472 1.390 . S
C1477 C1476 1.387 . S
H1478 C1490 0.930 . S
H1479 C1492 0.930 . S
H1480 C1493 0.930 . S
H1481 C1497 0.959 . S
H1482 C1497 0.959 . S
H1483 C1497 0.961 . S
H1484 C1498 0.960 . S
H1485 C1498 0.961 . S
H1486 C1498 0.959 . S
H1487 C1501 0.929 . S
H1488 C1502 0.931 . S
H1489 C1504 0.930 . S
C1490 H1478 0.930 . S
C1490 C1491 1.399 . S
C1490 C1495 1.399 . S
C1491 C1490 1.399 . S
C1491 C1492 1.376 . S
C1492 H1479 0.930 . S
C1492 C1491 1.376 . S
C1492 C1493 1.388 . S
C1493 H1480 0.930 . S
C1493 C1492 1.388 . S
C1493 C1494 1.390 . S
C1494 C1493 1.390 . S
C1494 C1495 1.394 . S
C1494 C1500 1.465 . S
C1495 C1490 1.399 . S
C1495 C1494 1.394 . S
C1495 C1496 1.516 . S
C1496 C1495 1.516 . S
C1496 C1497 1.502 . S
C1496 C1498 1.561 . S
C1496 C1499 1.526 . S
C1497 H1481 0.959 . S
C1497 H1482 0.959 . S
C1497 H1483 0.961 . S
C1497 C1496 1.502 . S
C1498 H1484 0.960 . S
C1498 H1485 0.961 . S
C1498 H1486 0.959 . S
C1498 C1496 1.561 . S
C1499 C1496 1.526 . S
C1499 C1500 1.396 . S
C1499 C1504 1.390 . S
C1500 C1494 1.465 . S
C1500 C1499 1.396 . S
C1500 C1501 1.399 . S
C1501 H1487 0.929 . S
C1501 C1500 1.399 . S
C1501 C1502 1.385 . S
C1502 H1488 0.931 . S
C1502 C1501 1.385 . S
C1502 C1503 1.389 . S
C1503 C1502 1.389 . S
C1503 C1504 1.387 . S
C1504 H1489 0.930 . S
C1504 C1499 1.390 . S
C1504 C1503 1.387 . S
H1505 C1517 0.930 . S
H1506 C1519 0.930 . S
H1507 C1520 0.930 . S
H1508 C1524 0.959 . S
H1509 C1524 0.959 . S
H1510 C1524 0.961 . S
H1511 C1525 0.960 . S
H1512 C1525 0.961 . S
H1513 C1525 0.959 . S
H1514 C1528 0.929 . S
H1515 C1529 0.931 . S
H1516 C1531 0.930 . S
C1517 H1505 0.930 . S
C1517 C1518 1.399 . S
C1517 C1522 1.399 . S
C1518 C1517 1.399 . S
C1518 C1519 1.376 . S
C1519 H1506 0.930 . S
C1519 C1518 1.376 . S
C1519 C1520 1.388 . S
C1520 H1507 0.930 . S
C1520 C1519 1.388 . S
C1520 C1521 1.390 . S
C1521 C1520 1.390 . S
C1521 C1522 1.394 . S
C1521 C1527 1.465 . S
C1522 C1517 1.399 . S
C1522 C1521 1.394 . S
C1522 C1523 1.516 . S
C1523 C1522 1.516 . S
C1523 C1524 1.502 . S
C1523 C1525 1.561 . S
C1523 C1526 1.526 . S
C1524 H1508 0.959 . S
C1524 H1509 0.959 . S
C1524 H1510 0.961 . S
C1524 C1523 1.502 . S
C1525 H1511 0.960 . S
C1525 H1512 0.961 . S
C1525 H1513 0.959 . S
C1525 C1523 1.561 . S
C1526 C1523 1.526 . S
C1526 C1527 1.396 . S
C1526 C1531 1.390 . S
C1527 C1521 1.465 . S
C1527 C1526 1.396 . S
C1527 C1528 1.399 . S
C1528 H1514 0.929 . S
C1528 C1527 1.399 . S
C1528 C1529 1.385 . S
C1529 H1515 0.931 . S
C1529 C1528 1.385 . S
C1529 C1530 1.389 . S
C1530 C1529 1.389 . S
C1530 C1531 1.387 . S
C1531 H1516 0.930 . S
C1531 C1526 1.390 . S
C1531 C1530 1.387 . S
H1532 C1544 0.930 . S
H1533 C1546 0.930 . S
H1534 C1547 0.930 . S
H1535 C1551 0.959 1_556 S
H1536 C1551 0.959 . S
H1537 C1551 0.961 . S
H1538 C1552 0.984 . S
H1539 C1552 0.961 1_554 S
H1540 C1552 0.959 . S
H1541 C1555 0.929 . S
H1542 C1556 0.931 . S
H1543 C1558 0.930 . S
C1544 H1532 0.930 . S
C1544 C1545 1.399 . S
C1544 C1549 1.399 . S
C1545 C1544 1.399 . S
C1545 C1546 1.376 . S
C1546 H1533 0.930 . S
C1546 C1545 1.376 . S
C1546 C1547 1.388 . S
C1547 H1534 0.930 . S
C1547 C1546 1.388 . S
C1547 C1548 1.390 . S
C1548 C1547 1.390 . S
C1548 C1549 1.394 . S
C1548 C1554 1.465 . S
C1549 C1544 1.399 . S
C1549 C1548 1.394 . S
C1549 C1550 1.516 . S
C1550 C1549 1.516 . S
C1550 C1551 1.502 1_556 S
C1550 C1552 1.561 . S
C1550 C1553 1.526 . S
C1551 H1535 0.959 1_554 S
C1551 H1536 0.959 . S
C1551 H1537 0.961 . S
C1551 C1550 1.502 1_554 S
C1552 H1538 0.984 . S
C1552 H1539 0.961 1_556 S
C1552 H1540 0.959 . S
C1552 C1550 1.561 . S
C1553 C1550 1.526 . S
C1553 C1554 1.396 . S
C1553 C1558 1.390 . S
C1554 C1548 1.465 . S
C1554 C1553 1.396 . S
C1554 C1555 1.399 . S
C1555 H1541 0.929 . S
C1555 C1554 1.399 . S
C1555 C1556 1.385 . S
C1556 H1542 0.931 . S
C1556 C1555 1.385 . S
C1556 C1557 1.389 . S
C1557 C1556 1.389 . S
C1557 C1558 1.387 . S
C1558 H1543 0.930 . S
C1558 C1553 1.390 . S
C1558 C1557 1.387 . S
H1559 C1571 0.930 . S
H1560 C1573 0.930 . S
H1561 C1574 0.930 . S
H1562 C1578 0.959 . S
H1563 C1578 0.959 . S
H1564 C1578 0.961 . S
H1565 C1579 0.960 . S
H1566 C1579 0.961 . S
H1567 C1579 0.959 . S
H1568 C1582 0.929 . S
H1569 C1583 0.931 . S
H1570 C1585 0.930 . S
C1571 H1559 0.930 . S
C1571 C1572 1.399 . S
C1571 C1576 1.399 . S
C1572 C1571 1.399 . S
C1572 C1573 1.376 . S
C1573 H1560 0.930 . S
C1573 C1572 1.376 . S
C1573 C1574 1.388 . S
C1574 H1561 0.930 . S
C1574 C1573 1.388 . S
C1574 C1575 1.390 . S
C1575 C1574 1.390 . S
C1575 C1576 1.394 . S
C1575 C1581 1.465 . S
C1576 C1571 1.399 . S
C1576 C1575 1.394 . S
C1576 C1577 1.516 . S
C1577 C1576 1.516 . S
C1577 C1578 1.502 . S
C1577 C1579 1.561 . S
C1577 C1580 1.526 . S
C1578 H1562 0.959 . S
C1578 H1563 0.959 . S
C1578 H1564 0.961 . S
C1578 C1577 1.502 . S
C1579 H1565 0.960 . S
C1579 H1566 0.961 . S
C1579 H1567 0.959 . S
C1579 C1577 1.561 . S
C1580 C1577 1.526 . S
C1580 C1581 1.396 . S
C1580 C1585 1.390 . S
C1581 C1575 1.465 . S
C1581 C1580 1.396 . S
C1581 C1582 1.399 . S
C1582 H1568 0.929 . S
C1582 C1581 1.399 . S
C1582 C1583 1.385 . S
C1583 H1569 0.931 . S
C1583 C1582 1.385 . S
C1583 C1584 1.389 . S
C1584 C1583 1.389 . S
C1584 C1585 1.387 . S
C1585 H1570 0.930 . S
C1585 C1580 1.390 . S
C1585 C1584 1.387 . S
H1586 C1598 0.930 . S
H1587 C1600 0.930 . S
H1588 C1601 0.930 . S
H1589 C1605 0.968 . S
H1590 C1605 0.945 1_556 S
H1591 C1605 0.960 1_556 S
H1592 C1606 0.960 . S
H1593 C1606 0.961 . S
H1594 C1606 0.947 1_554 S
H1595 C1609 0.929 . S
H1596 C1610 0.931 . S
H1597 C1612 0.930 1_556 S
C1598 H1586 0.930 . S
C1598 C1599 1.399 . S
C1598 C1603 1.399 . S
C1599 C1598 1.399 . S
C1599 C1600 1.376 . S
C1600 H1587 0.930 . S
C1600 C1599 1.376 . S
C1600 C1601 1.388 . S
C1601 H1588 0.930 . S
C1601 C1600 1.388 . S
C1601 C1602 1.390 . S
C1602 C1601 1.390 . S
C1602 C1603 1.394 . S
C1602 C1608 1.465 . S
C1603 C1598 1.399 . S
C1603 C1602 1.394 . S
C1603 C1604 1.516 . S
C1604 C1603 1.516 . S
C1604 C1605 1.509 . S
C1604 C1606 1.561 1_554 S
C1604 C1607 1.526 . S
C1605 H1589 0.968 . S
C1605 H1590 0.945 1_554 S
C1605 H1591 0.960 1_554 S
C1605 C1604 1.509 . S
C1606 H1592 0.960 . S
C1606 H1593 0.961 . S
C1606 H1594 0.947 1_556 S
C1606 C1604 1.561 1_556 S
C1607 C1604 1.526 . S
C1607 C1608 1.396 . S
C1607 C1612 1.390 . S
C1608 C1602 1.465 . S
C1608 C1607 1.396 . S
C1608 C1609 1.399 . S
C1609 H1595 0.929 . S
C1609 C1608 1.399 . S
C1609 C1610 1.385 . S
C1610 H1596 0.931 . S
C1610 C1609 1.385 . S
C1610 C1611 1.389 . S
C1611 C1610 1.389 . S
C1611 C1612 1.387 . S
C1612 H1597 0.930 1_554 S
C1612 C1607 1.390 . S
C1612 C1611 1.387 . S
H1613 C1625 0.930 . S
H1614 C1627 0.930 . S
H1615 C1628 0.930 . S
H1616 C1632 0.959 . S
H1617 C1632 0.959 . S
H1618 C1632 0.961 . S
H1619 C1633 0.960 . S
H1620 C1633 0.961 . S
H1621 C1633 0.959 . S
H1622 C1636 0.929 . S
H1623 C1637 0.945 . S
H1624 C1639 0.930 . S
C1625 H1613 0.930 . S
C1625 C1626 1.399 . S
C1625 C1630 1.399 . S
C1626 C1625 1.399 . S
C1626 C1627 1.376 . S
C1627 H1614 0.930 . S
C1627 C1626 1.376 . S
C1627 C1628 1.388 . S
C1628 H1615 0.930 . S
C1628 C1627 1.388 . S
C1628 C1629 1.390 . S
C1629 C1628 1.390 . S
C1629 C1630 1.394 . S
C1629 C1635 1.465 . S
C1630 C1625 1.399 . S
C1630 C1629 1.394 . S
C1630 C1631 1.516 . S
C1631 C1630 1.516 . S
C1631 C1632 1.502 . S
C1631 C1633 1.561 . S
C1631 C1634 1.526 . S
C1632 H1616 0.959 . S
C1632 H1617 0.959 . S
C1632 H1618 0.961 . S
C1632 C1631 1.502 . S
C1633 H1619 0.960 . S
C1633 H1620 0.961 . S
C1633 H1621 0.959 . S
C1633 C1631 1.561 . S
C1634 C1631 1.526 . S
C1634 C1635 1.396 . S
C1634 C1639 1.390 . S
C1635 C1629 1.465 . S
C1635 C1634 1.396 . S
C1635 C1636 1.399 . S
C1636 H1622 0.929 . S
C1636 C1635 1.399 . S
C1636 C1637 1.385 . S
C1637 H1623 0.945 . S
C1637 C1636 1.385 . S
C1637 C1638 1.389 . S
C1638 C1637 1.389 . S
C1638 C1639 1.387 . S
C1639 H1624 0.930 . S
C1639 C1634 1.390 . S
C1639 C1638 1.387 . S
C369 C184 1.730 . S
C357 C60 1.721 . S
C396 C199 1.549 . S
C384 C76 1.568 . S
C411 C81 1.810 . S
C423 C212 1.811 . S
C450 C226 1.574 . S
C438 C48 1.536 . S
C477 C238 1.676 . S
C465 C115 1.753 . S
C504 C252 1.387 . S
C492 C136 1.397 . S
C519 C131 1.558 . S
C531 C266 1.518 . S
C558 C281 1.426 . S
C546 C104 1.409 . S
C573 C126 1.594 . S
C585 C297 1.610 . S
C612 C310 1.404 . S
C600 C103 1.363 . S
C627 C120 1.511 . S
C639 C295 1.486 . S
C666 C308 1.547 . S
C654 C142 1.521 . S
C681 C82 1.843 . S
C693 C324 1.839 . S
C708 C54 1.756 . S
C720 C323 1.757 . S
C735 C65 1.624 . S
C747 C322 1.576 . S
C762 C71 1.347 . S
C774 C325 1.276 . S
C789 C37 1.722 . S
C801 C227 1.706 . S
C816 C158 1.822 . S
C828 C225 1.805 . S
C855 C185 1.352 . S
C843 C169 1.419 . S
C882 C196 1.534 . S
C870 C98 1.512 . S
C897 C49 1.715 . S
C909 C241 1.680 . S
C936 C282 1.875 . S
C924 C125 1.868 . S
C963 C239 1.515 . S
C951 C109 1.491 . S
C990 C267 1.625 . S
C978 C137 1.658 . S
C1017 C268 1.732 . S
C1005 C159 1.722 . S
C1032 C175 1.550 . S
C1044 C283 1.581 . S
C1059 C92 1.816 . S
C1071 C240 1.791 . S
C1098 C254 1.526 . S
C1086 C147 1.585 . S
C1113 C38 1.753 . S
C1125 C210 1.700 . S
C1152 C224 1.408 1_455 S
C1140 C4 1.422 . S
C1179 C182 1.557 . S
C1167 C21 1.569 . S
C1206 C197 1.354 . S
C1194 C27 1.374 . S
C1221 C16 1.595 . S
C1233 C311 1.611 . S
C1248 C26 1.360 . S
C1260 C296 1.404 . S
C1275 C43 1.527 . S
C1287 C309 1.446 . S
C1302 C10 1.498 . S
C1314 C294 1.548 . S
C1341 C338 1.839 . S
C1329 C93 1.843 . S
C1368 C337 1.755 . S
C1356 C153 1.755 . S
C1395 C336 1.602 . S
C1383 C164 1.616 . S
C1410 C170 1.310 . S
C1422 C339 1.300 . S
C1437 C114 1.723 . S
C1449 C255 1.705 . S
C1476 C253 1.815 . S
C1464 C59 1.816 . S
C1503 C269 1.350 . S
C1491 C70 1.424 . S
C1530 C280 1.468 . S
C1518 C87 1.555 . S
C1545 C148 1.697 . S
C1557 C213 1.693 . S
C1584 C198 1.879 . S
C1572 C15 1.874 . S
C1599 C32 1.505 . S
C1611 C211 1.506 . S
C1638 C183 1.622 1_545 S
C1626 C5 1.660 . S
