# Generated by pormake.
# Topology anh, (6,3)-cn, num edge types: 1
# Building blocks:
#     Node 0, Type 0, BuildingBlock: PAMTOO_clean_sbu_0, # of connection points: 6
#     Node 1, Type 0, BuildingBlock: PAMTOO_clean_sbu_0, # of connection points: 6
#     Node 2, Type 0, BuildingBlock: PAMTOO_clean_sbu_0, # of connection points: 6
#     Node 3, Type 1, BuildingBlock: BELTOD_clean_linker_0, # of connection points: 3
#     Node 4, Type 1, BuildingBlock: BELTOD_clean_linker_0, # of connection points: 3
#     Node 5, Type 1, BuildingBlock: BELTOD_clean_linker_0, # of connection points: 3
#     Node 6, Type 1, BuildingBlock: BELTOD_clean_linker_0, # of connection points: 3
#     Node 7, Type 1, BuildingBlock: BELTOD_clean_linker_0, # of connection points: 3
#     Node 8, Type 1, BuildingBlock: BELTOD_clean_linker_0, # of connection points: 3
#     Edge 9, Type (0, 1), BuildingBlock: UVAHIK_clean_linker_0, # of connection points: 2
#     Edge 10, Type (0, 1), BuildingBlock: UVAHIK_clean_linker_0, # of connection points: 2
#     Edge 11, Type (0, 1), BuildingBlock: UVAHIK_clean_linker_0, # of connection points: 2
#     Edge 12, Type (0, 1), BuildingBlock: UVAHIK_clean_linker_0, # of connection points: 2
#     Edge 13, Type (0, 1), BuildingBlock: UVAHIK_clean_linker_0, # of connection points: 2
#     Edge 14, Type (0, 1), BuildingBlock: UVAHIK_clean_linker_0, # of connection points: 2
#     Edge 15, Type (0, 1), BuildingBlock: UVAHIK_clean_linker_0, # of connection points: 2
#     Edge 16, Type (0, 1), BuildingBlock: UVAHIK_clean_linker_0, # of connection points: 2
#     Edge 17, Type (0, 1), BuildingBlock: UVAHIK_clean_linker_0, # of connection points: 2
#     Edge 18, Type (0, 1), BuildingBlock: UVAHIK_clean_linker_0, # of connection points: 2
#     Edge 19, Type (0, 1), BuildingBlock: UVAHIK_clean_linker_0, # of connection points: 2
#     Edge 20, Type (0, 1), BuildingBlock: UVAHIK_clean_linker_0, # of connection points: 2
#     Edge 21, Type (0, 1), BuildingBlock: UVAHIK_clean_linker_0, # of connection points: 2
#     Edge 22, Type (0, 1), BuildingBlock: UVAHIK_clean_linker_0, # of connection points: 2
#     Edge 23, Type (0, 1), BuildingBlock: UVAHIK_clean_linker_0, # of connection points: 2
#     Edge 24, Type (0, 1), BuildingBlock: UVAHIK_clean_linker_0, # of connection points: 2
#     Edge 25, Type (0, 1), BuildingBlock: UVAHIK_clean_linker_0, # of connection points: 2
#     Edge 26, Type (0, 1), BuildingBlock: UVAHIK_clean_linker_0, # of connection points: 2
# Relax obj value: 0.155
# Max RMSD: 0.183
# Mean RMSD: 0.142
data_MOF--net-anh--node1-PAMTOO_clean_sbu_0--node2-BELTOD_clean_linker_0--edge1-UVAHIK_clean_linker_0
_symmetry_space_group_name_H-M    P1
_symmetry_Int_Tables_number       1
_symmetry_cell_setting            triclinic
loop_
_symmetry_equiv_pos_as_xyz
'x, y, z'
_cell_length_a     43.573027
_cell_length_b     41.959685
_cell_length_c     76.29642
_cell_angle_alpha  90.244659
_cell_angle_beta   95.647396
_cell_angle_gamma 108.67743
loop_
_atom_site_label
_atom_site_type_symbol
_atom_site_fract_x
_atom_site_fract_y
_atom_site_fract_z
_atom_type_partial_charge
Dy0 Dy 0.03866 0.59835 0.15183 0.0
Dy1 Dy 1.00937 0.51867 0.13763 0.0
C2 C 1.03132 0.57872 0.11074 0.0
O3 O 0.9852 0.58951 0.14402 0.0
O4 O 0.96613 0.53182 0.14513 0.0
O5 O 0.047 0.65152 0.14834 0.0
O6 O 0.06398 0.63414 0.17297 0.0
O7 O 1.0212 0.51871 0.1668 0.0
O8 O 1.0157 0.56927 0.17409 0.0
O9 O 0.06268 0.53396 0.13393 0.0
O10 O 0.08164 0.57909 0.15376 0.0
O11 O 1.01001 0.46741 0.13912 0.0
O12 O 0.97442 0.47936 0.12089 0.0
C13 C 0.96094 0.56105 0.14429 0.0
O14 O 0.0486 0.59903 0.1238 0.0
O15 O 1.01124 0.54865 0.11335 0.0
C16 C 0.09574 0.68668 0.16389 0.0
C17 C 0.15748 0.73674 0.1669 0.0
C18 C 0.15304 0.70484 0.15916 0.0
C19 C 0.12241 0.67999 0.15768 0.0
C20 C 0.09982 0.71859 0.17121 0.0
C21 C 0.13038 0.74344 0.17269 0.0
C22 C 0.06406 0.66014 0.16366 0.0
C23 C 1.01727 0.53968 0.17848 0.0
C24 C 0.08688 0.55626 0.14358 0.0
C25 C 0.95748 0.42763 0.13473 0.0
C26 C 0.90708 0.37417 0.14683 0.0
C27 C 0.9132 0.40743 0.15313 0.0
C28 C 0.93822 0.4339 0.14717 0.0
C29 C 0.9516 0.39459 0.12843 0.0
C30 C 0.92665 0.36805 0.13444 0.0
C31 C 0.98357 0.4555 0.12831 0.0
H32 H 0.17342 0.69871 0.15473 0.0
H33 H 0.11965 0.65537 0.15203 0.0
H34 H 0.07945 0.72415 0.17604 0.0
H35 H 0.13283 0.76787 0.17846 0.0
H36 H 0.8989 0.41295 0.16285 0.0
H37 H 0.94255 0.45928 0.15226 0.0
H38 H 0.96624 0.38934 0.11881 0.0
H39 H 0.92238 0.3428 0.12919 0.0
Dy40 Dy 0.51635 0.01504 0.5173 0.0
Dy41 Dy 0.59662 0.03826 0.51999 0.0
C42 C 0.55914 0.02369 0.55382 0.0
O43 O 0.53159 0.07073 0.51433 0.0
O44 O 0.58531 0.08523 0.52583 0.0
O45 O 0.47191 0.99216 0.52921 0.0
O46 O 0.46998 0.01154 0.503 0.0
O47 O 0.57875 0.04972 0.49317 0.0
O48 O 0.53067 0.00658 0.49074 0.0
O49 O 0.58009 0.98303 0.51333 0.0
O50 O 0.52821 0.96751 0.52173 0.0
O51 O 0.64068 0.03909 0.50911 0.0
O52 O 0.64335 0.0632 0.5347 0.0
C53 C 0.55927 0.09336 0.5205 0.0
O54 O 0.53606 0.03282 0.54505 0.0
O55 O 0.58119 0.01648 0.54553 0.0
C56 C 0.42774 0.96262 0.50902 0.0
C57 C 0.37943 0.90032 0.49942 0.0
C58 C 0.37284 0.9243 0.5101 0.0
C59 C 0.39681 0.95517 0.51485 0.0
C60 C 0.43443 0.93903 0.49823 0.0
C61 C 0.41045 0.90822 0.49341 0.0
C62 C 0.45334 0.99414 0.51507 0.0
C63 C 0.55421 0.0285 0.48342 0.0
C64 C 0.55351 0.95991 0.51733 0.0
C65 C 0.6857 0.08793 0.5171 0.0
C66 C 0.73723 0.14359 0.50782 0.0
C67 C 0.7071 0.13304 0.49729 0.0
C68 C 0.68151 0.10552 0.50192 0.0
C69 C 0.71543 0.09868 0.52779 0.0
C70 C 0.74092 0.12628 0.52324 0.0
C71 C 0.65954 0.05832 0.52201 0.0
H72 H 0.34944 0.91889 0.51519 0.0
H73 H 0.39138 0.973 0.52333 0.0
H74 H 0.4583 0.9443 0.4937 0.0
H75 H 0.41624 0.89059 0.48497 0.0
H76 H 0.70347 0.14554 0.48525 0.0
H77 H 0.65862 0.09777 0.49354 0.0
H78 H 0.71899 0.08561 0.53964 0.0
H79 H 0.76353 0.13408 0.53184 0.0
Dy80 Dy 0.54786 0.4725 0.84819 0.0
Dy81 Dy 0.46952 0.44601 0.83646 0.0
C82 C 0.52001 0.46542 0.80777 0.0
O83 O 0.53126 0.51656 0.85352 0.0
O84 O 0.48518 0.50178 0.83391 0.0
O85 O 0.59424 0.51188 0.8518 0.0
O86 O 0.5908 0.46105 0.85891 0.0
O87 O 0.47654 0.46443 0.86465 0.0
O88 O 0.52386 0.45314 0.87222 0.0
O89 O 0.48341 0.40035 0.84321 0.0
O90 O 0.53547 0.42091 0.83586 0.0
O91 O 0.42034 0.42116 0.84266 0.0
O92 O 0.42907 0.4396 0.81658 0.0
C93 C 0.50824 0.52449 0.84386 0.0
O94 O 0.54198 0.48399 0.81987 0.0
O95 O 0.49316 0.44307 0.81199 0.0
C96 C 0.63801 0.49334 0.84683 0.0
C97 C 0.69264 0.50219 0.82829 0.0
C98 C 0.66147 0.49521 0.81912 0.0
C99 C 0.63431 0.49069 0.82834 0.0
C100 C 0.6688 0.49931 0.85603 0.0
C101 C 0.69593 0.50366 0.84684 0.0
C102 C 0.61014 0.49127 0.85656 0.0
C103 C 0.49771 0.45877 0.87666 0.0
C104 C 0.51001 0.39541 0.83891 0.0
C105 C 0.38526 0.44782 0.82877 0.0
C106 C 0.34544 0.48891 0.82853 0.0
C107 C 0.37739 0.5003 0.83694 0.0
C108 C 0.39709 0.47992 0.83708 0.0
C109 C 0.35328 0.436 0.82059 0.0
C110 C 0.33335 0.45638 0.82055 0.0
C111 C 0.40747 0.42828 0.82763 0.0
H112 H 0.65819 0.49375 0.80484 0.0
H113 H 0.61054 0.48588 0.82105 0.0
H114 H 0.672 0.50144 0.8703 0.0
H115 H 0.71967 0.50956 0.85428 0.0
H116 H 0.38716 0.525 0.84347 0.0
H117 H 0.42179 0.48942 0.84345 0.0
H118 H 0.34396 0.41136 0.81399 0.0
H119 H 0.30882 0.44706 0.81396 0.0
P120 P 0.58846 0.00549 0.23769 0.0
H121 H 0.55925 0.95204 0.21055 0.0
H122 H 0.50344 0.92622 0.19717 0.0
H123 H 0.47405 0.0003 0.22456 0.0
H124 H 0.53004 0.02555 0.23824 0.0
H125 H 0.65578 0.04425 0.24821 0.0
H126 H 0.69411 0.0933 0.23626 0.0
H127 H 0.61803 0.09902 0.19678 0.0
H128 H 0.57966 0.05002 0.20897 0.0
H129 H 0.56912 0.95716 0.26488 0.0
H130 H 0.59518 0.06476 0.26052 0.0
O131 O 0.60645 0.97608 0.2362 0.0
H132 H 0.56116 0.96271 0.29586 0.0
H133 H 0.587 0.07056 0.29154 0.0
C134 C 0.54861 0.99032 0.22561 0.0
C135 C 0.54089 0.96297 0.21353 0.0
C136 C 0.50893 0.94834 0.20579 0.0
C137 C 0.48411 0.96095 0.20992 0.0
C138 C 0.49242 0.98956 0.22135 0.0
C139 C 0.52443 0.00415 0.2291 0.0
C140 C 0.61497 0.0435 0.22947 0.0
C141 C 0.6473 0.05625 0.23707 0.0
C142 C 0.66922 0.08414 0.23015 0.0
C143 C 0.6592 0.09988 0.21546 0.0
C144 C 0.62644 0.08758 0.20817 0.0
C145 C 0.6045 0.0595 0.21509 0.0
C146 C 0.58345 0.01058 0.26055 0.0
C147 C 0.57328 0.98202 0.27065 0.0
C148 C 0.56845 0.98521 0.2883 0.0
C149 C 0.57353 0.0171 0.29619 0.0
C150 C 0.58336 0.04571 0.28593 0.0
C151 C 0.58805 0.04243 0.2682 0.0
P152 P 0.61856 0.54799 0.57199 0.0
H153 H 0.65185 0.52067 0.5474 0.0
H154 H 0.63965 0.4644 0.53412 0.0
H155 H 0.5454 0.43438 0.55403 0.0
H156 H 0.55741 0.49121 0.5667 0.0
H157 H 0.65574 0.61743 0.56561 0.0
H158 H 0.64036 0.66449 0.55383 0.0
H159 H 0.54037 0.5999 0.54359 0.0
H160 H 0.55608 0.55265 0.55586 0.0
H161 H 0.60868 0.4904 0.59456 0.0
H162 H 0.59614 0.58825 0.59644 0.0
O163 O 0.65908 0.56025 0.57601 0.0
H164 H 0.59041 0.47973 0.62385 0.0
H165 H 0.57827 0.57781 0.62594 0.0
C166 C 0.6059 0.50977 0.55845 0.0
C167 C 0.62827 0.5022 0.54857 0.0
C168 C 0.62134 0.46989 0.54109 0.0
C169 C 0.59191 0.44453 0.54343 0.0
C170 C 0.56834 0.45319 0.55199 0.0
C171 C 0.57522 0.48568 0.55933 0.0
C172 C 0.60713 0.5814 0.56139 0.0
C173 C 0.63057 0.61314 0.56061 0.0
C174 C 0.62173 0.64012 0.55378 0.0
C175 C 0.58914 0.63601 0.54762 0.0
C176 C 0.56565 0.60399 0.5483 0.0
C177 C 0.5746 0.5769 0.55516 0.0
C178 C 0.60275 0.53966 0.59304 0.0
C179 C 0.60136 0.50933 0.60111 0.0
C180 C 0.59097 0.50325 0.61787 0.0
C181 C 0.58261 0.5278 0.62708 0.0
C182 C 0.58449 0.55842 0.6191 0.0
C183 C 0.5945 0.5643 0.6022 0.0
P184 P 0.08774 0.74698 0.88133 0.0
H185 H 0.13313 0.76776 0.85474 0.0
H186 H 0.17587 0.74628 0.84618 0.0
H187 H 0.16278 0.68181 0.89075 0.0
H188 H 0.12058 0.70311 0.89913 0.0
H189 H 1.03058 0.75947 0.86304 0.0
H190 H 0.98559 0.72472 0.84237 0.0
H191 H 1.03149 0.64736 0.84259 0.0
H192 H 0.07548 0.68153 0.86357 0.0
H193 H 0.1204 0.77009 0.91636 0.0
H194 H 1.03074 0.69653 0.89408 0.0
O195 O 0.09409 0.78811 0.87934 0.0
H196 H 0.10956 0.74908 0.94569 0.0
H197 H 1.01911 0.67628 0.92331 0.0
C198 C 0.12419 0.73767 0.87778 0.0
C199 C 0.14029 0.74981 0.86295 0.0
C200 C 0.16443 0.7373 0.85799 0.0
C201 C 0.17273 0.71244 0.86783 0.0
C202 C 0.15745 0.70145 0.8831 0.0
C203 C 0.13325 0.71375 0.88795 0.0
C204 C 0.0566 0.72336 0.86462 0.0
C205 C 1.03113 0.73526 0.8584 0.0
C206 C 1.00556 0.71544 0.84651 0.0
C207 C 1.00503 0.6833 0.84078 0.0
C208 C 1.03104 0.67187 0.84682 0.0
C209 C 0.0564 0.69158 0.85874 0.0
C210 C 0.07648 0.73494 0.90304 0.0
C211 C 0.09802 0.74993 0.91785 0.0
C212 C 0.09172 0.7379 0.93462 0.0
C213 C 0.06353 0.71077 0.9369 0.0
C214 C 0.04137 0.69672 0.92203 0.0
C215 C 0.04787 0.70857 0.90526 0.0
P216 P 0.09629 0.46947 0.4208 0.0
H217 H 0.14607 0.48948 0.45069 0.0
H218 H 0.1766 0.54393 0.46521 0.0
H219 H 0.11948 0.5912 0.43143 0.0
H220 H 0.08802 0.53632 0.41767 0.0
H221 H 0.07524 0.39764 0.42678 0.0
H222 H 1.02953 0.36044 0.44048 0.0
H223 H 0.99899 0.44555 0.45294 0.0
H224 H 0.04478 0.48269 0.43879 0.0
H225 H 0.12556 0.51613 0.3943 0.0
H226 H 0.03639 0.4343 0.39776 0.0
O227 O 0.12437 0.45045 0.41971 0.0
H228 H 0.10796 0.52271 0.36347 0.0
H229 H 1.01887 0.4406 0.36691 0.0
C230 C 0.11557 0.5091 0.43274 0.0
C231 C 0.13995 0.51156 0.44655 0.0
C232 C 0.15753 0.54278 0.45475 0.0
C233 C 0.15109 0.5722 0.44923 0.0
C234 C 0.12519 0.56919 0.43606 0.0
C235 C 0.10737 0.53782 0.42801 0.0
C236 C 0.06376 0.44298 0.43213 0.0
C237 C 0.059 0.4084 0.43267 0.0
C238 C 1.03284 0.38715 0.44056 0.0
C239 C 1.01077 0.40005 0.448 0.0
C240 C 1.01549 0.43481 0.4473 0.0
C241 C 0.04177 0.4561 0.43936 0.0
C242 C 0.08196 0.47535 0.39848 0.0
C243 C 0.10199 0.49993 0.38852 0.0
C244 C 0.09192 0.50366 0.37091 0.0
C245 C 0.06195 0.48231 0.36285 0.0
C246 C 0.04211 0.45737 0.3728 0.0
C247 C 0.05204 0.45393 0.39048 0.0
P248 P 0.58323 0.98436 0.80304 0.0
H249 H 0.6135 0.04412 0.82632 0.0
H250 H 0.59466 0.09025 0.83461 0.0
H251 H 0.49871 0.03702 0.80897 0.0
H252 H 0.51793 0.99067 0.80063 0.0
H253 H 0.60008 0.94862 0.83323 0.0
H254 H 0.58087 0.88956 0.841 0.0
H255 H 0.50678 0.86821 0.79662 0.0
H256 H 0.52601 0.92755 0.789 0.0
H257 H 0.5712 0.03503 0.77915 0.0
H258 H 0.58667 0.93889 0.77462 0.0
O259 O 0.62325 0.99571 0.80903 0.0
H260 H 0.566 0.03807 0.74722 0.0
H261 H 0.58114 0.94168 0.74248 0.0
C262 C 0.56711 0.01399 0.81282 0.0
C263 C 0.58819 0.04189 0.82284 0.0
C264 C 0.57734 0.0683 0.82763 0.0
C265 C 0.54524 0.06745 0.82234 0.0
C266 C 0.52368 0.03857 0.81308 0.0
C267 C 0.53451 0.01196 0.80845 0.0
C268 C 0.56504 0.94224 0.81027 0.0
C269 C 0.57941 0.93134 0.82531 0.0
C270 C 0.56831 0.89757 0.82979 0.0
C271 C 0.54261 0.87409 0.81928 0.0
C272 C 0.52702 0.88558 0.80479 0.0
C273 C 0.53794 0.91948 0.80044 0.0
C274 C 0.57808 0.98606 0.77933 0.0
C275 C 0.5728 0.01417 0.77132 0.0
C276 C 0.56986 0.01595 0.75299 0.0
C277 C 0.57274 0.98993 0.74228 0.0
C278 C 0.57881 0.96215 0.75036 0.0
C279 C 0.58166 0.96037 0.76872 0.0
P280 P 0.50924 0.51563 0.12503 0.0
H281 H 0.55192 0.51835 0.15774 0.0
H282 H 0.61096 0.53361 0.16339 0.0
H283 H 0.62044 0.57656 0.11197 0.0
H284 H 0.5618 0.56378 0.10723 0.0
H285 H 0.45151 0.47924 0.14202 0.0
H286 H 0.40107 0.48988 0.14587 0.0
H287 H 0.44047 0.59002 0.1269 0.0
H288 H 0.4919 0.57916 0.12315 0.0
H289 H 0.54539 0.49202 0.10082 0.0
H290 H 0.46026 0.52398 0.09683 0.0
O291 O 0.50443 0.47722 0.13255 0.0
H292 H 0.54009 0.48418 0.06894 0.0
H293 H 0.45375 0.51449 0.06502 0.0
C294 C 0.55197 0.53927 0.13192 0.0
C295 C 0.56679 0.53226 0.14796 0.0
C296 C 0.60086 0.54036 0.15099 0.0
C297 C 0.62124 0.55525 0.1379 0.0
C298 C 0.60629 0.56502 0.12249 0.0
C299 C 0.57227 0.55758 0.11969 0.0
C300 C 0.47608 0.52846 0.13243 0.0
C301 C 0.44999 0.50392 0.13907 0.0
C302 C 0.42066 0.50987 0.14106 0.0
C303 C 0.41616 0.54059 0.1364 0.0
C304 C 0.44294 0.56604 0.13067 0.0
C305 C 0.47253 0.55997 0.12863 0.0
C306 C 0.50387 0.50954 0.10129 0.0
C307 C 0.52553 0.49739 0.09308 0.0
C308 C 0.52218 0.49248 0.0748 0.0
C309 C 0.49646 0.49871 0.06427 0.0
C310 C 0.47427 0.51012 0.0726 0.0
C311 C 0.47795 0.51549 0.09092 0.0
C312 C 0.1481 0.58228 0.15071 0.0
C313 C 0.12113 0.55587 0.14288 0.0
C314 C 0.18019 0.58211 0.14983 0.0
C315 C 0.22924 0.54037 0.12544 0.0
H316 H 0.29612 0.57906 0.164 0.0
C317 C 0.35469 0.51807 0.13067 0.0
C318 C 0.38307 0.54474 0.13665 0.0
C319 C 0.32357 0.52098 0.13116 0.0
C320 C 0.27789 0.56846 0.153 0.0
H321 H 0.10739 0.50826 0.12814 0.0
H322 H 0.16278 0.50744 0.12701 0.0
H323 H 0.2409 0.58051 0.16561 0.0
H324 H 0.40034 0.59573 0.14777 0.0
H325 H 0.34592 0.60084 0.14868 0.0
H326 H 0.26612 0.52779 0.113 0.0
C327 C 0.1594 0.52888 0.13349 0.0
C328 C 0.246 0.56932 0.1539 0.0
C329 C 0.12736 0.5292 0.13425 0.0
C330 C 0.37919 0.57467 0.143 0.0
C331 C 0.34789 0.57747 0.14366 0.0
C332 C 0.26099 0.53929 0.12462 0.0
C333 C 0.18651 0.5554 0.14119 0.0
C334 C 0.22097 0.55512 0.14017 0.0
C335 C 0.31953 0.55063 0.13773 0.0
C336 C 0.28586 0.55313 0.13841 0.0
H337 H 0.1445 0.60343 0.15739 0.0
H338 H 0.20006 0.60333 0.15572 0.0
H339 H 0.21124 0.52985 0.11434 0.0
H340 H 0.35648 0.49476 0.12545 0.0
H341 H 0.30254 0.4996 0.12661 0.0
C342 C 0.76005 0.20048 0.49486 0.0
C343 C 0.76503 0.17185 0.50252 0.0
C344 C 0.78624 0.22654 0.48953 0.0
C345 C 0.87027 0.24349 0.47769 0.0
H346 H 0.87683 0.33722 0.48435 0.0
C347 C 0.98652 0.35025 0.46612 0.0
C348 C 0.98262 0.37692 0.45603 0.0
C349 C 0.95973 0.32673 0.47246 0.0
C350 C 0.87516 0.31114 0.48229 0.0
H351 H 0.80161 0.1483 0.51051 0.0
H352 H 0.84717 0.19401 0.50179 0.0
H353 H 0.83037 0.29308 0.49405 0.0
H354 H 0.94754 0.40032 0.44518 0.0
H355 H 0.90069 0.35928 0.45644 0.0
H356 H 0.91509 0.26146 0.46608 0.0
C357 C 0.82299 0.19616 0.49962 0.0
C358 C 0.84854 0.28584 0.48781 0.0
C359 C 0.79686 0.1701 0.50487 0.0
C360 C 0.95143 0.38025 0.45303 0.0
C361 C 0.92459 0.35672 0.45945 0.0
C362 C 0.89689 0.26871 0.47229 0.0
C363 C 0.81801 0.22459 0.49175 0.0
C364 C 0.84588 0.2517 0.48565 0.0
C365 C 0.92839 0.32935 0.46894 0.0
C366 C 0.89975 0.30281 0.47461 0.0
H367 H 0.73593 0.20285 0.49303 0.0
H368 H 0.78147 0.24794 0.48339 0.0
H369 H 0.86867 0.21748 0.47544 0.0
H370 H 1.0103 0.34737 0.46901 0.0
H371 H 0.96354 0.3063 0.48005 0.0
C372 C 0.53711 0.58638 0.84966 0.0
C373 C 0.5087 0.55999 0.84366 0.0
C374 C 0.53818 0.61996 0.84822 0.0
C375 C 0.49589 0.67289 0.82349 0.0
H376 H 0.54948 0.74225 0.85742 0.0
C377 C 0.52969 0.81405 0.80878 0.0
C378 C 0.53378 0.83754 0.82271 0.0
C379 C 0.52413 0.78 0.81204 0.0
C380 C 0.534 0.72322 0.84791 0.0
H381 H 0.45863 0.54823 0.83213 0.0
H382 H 0.4601 0.60654 0.83016 0.0
H383 H 0.54389 0.68359 0.86255 0.0
H384 H 0.5341 0.84347 0.85095 0.0
H385 H 0.52353 0.78389 0.85665 0.0
H386 H 0.48522 0.71236 0.80911 0.0
C387 C 0.48198 0.60148 0.83547 0.0
C388 C 0.53119 0.6895 0.85073 0.0
C389 C 0.48105 0.56794 0.83672 0.0
C390 C 0.53136 0.82602 0.83996 0.0
C391 C 0.52547 0.79186 0.84321 0.0
C392 C 0.49845 0.70655 0.82076 0.0
C393 C 0.51072 0.62803 0.84093 0.0
C394 C 0.5124 0.66386 0.83846 0.0
C395 C 0.52221 0.76841 0.82932 0.0
C396 C 0.51787 0.73228 0.83281 0.0
H397 H 0.55891 0.58114 0.85498 0.0
H398 H 0.56091 0.63958 0.85234 0.0
H399 H 0.48149 0.65406 0.8136 0.0
H400 H 0.53196 0.82219 0.79538 0.0
H401 H 0.52239 0.76297 0.80101 0.0
C402 C 0.9198 0.59104 0.14842 0.0
C403 C 0.92659 0.56165 0.14382 0.0
C404 C 0.88746 0.59115 0.14822 0.0
C405 C 0.8002 0.53224 0.14535 0.0
H406 H 0.78027 0.61497 0.13784 0.0
C407 C 0.66877 0.53569 0.14985 0.0
C408 C 0.65714 0.55838 0.13977 0.0
C409 C 0.70161 0.53721 0.15088 0.0
C410 C 0.78501 0.59137 0.13972 0.0
H411 H 0.90418 0.50947 0.13496 0.0
H412 H 0.84844 0.50996 0.13372 0.0
H413 H 0.83587 0.61505 0.13764 0.0
H414 H 0.6728 0.60132 0.12314 0.0
H415 H 0.72888 0.60256 0.12401 0.0
H416 H 0.7492 0.50809 0.14635 0.0
C417 C 0.86778 0.53281 0.13822 0.0
C418 C 0.81744 0.59155 0.13994 0.0
C419 C 0.90005 0.53254 0.13877 0.0
C420 C 0.68003 0.58285 0.13085 0.0
C421 C 0.7128 0.58395 0.13161 0.0
C422 C 0.76775 0.53193 0.1448 0.0
C423 C 0.8607 0.56203 0.14307 0.0
C424 C 0.82579 0.56199 0.1428 0.0
C425 C 0.7243 0.56102 0.14157 0.0
C426 C 0.75939 0.5615 0.14207 0.0
H427 H 0.93952 0.61391 0.1525 0.0
H428 H 0.88363 0.61412 0.1524 0.0
H429 H 0.80504 0.50888 0.14794 0.0
H430 H 0.65243 0.51595 0.15675 0.0
H431 H 0.70903 0.51944 0.15908 0.0
C432 C 0.36336 0.83757 0.49471 0.0
C433 C 0.35438 0.86689 0.49498 0.0
C434 C 0.33991 0.8061 0.49078 0.0
C435 C 0.25589 0.76526 0.46972 0.0
H436 H 0.26494 0.68762 0.4944 0.0
C437 C 0.15984 0.63225 0.45913 0.0
C438 C 0.17253 0.60592 0.45641 0.0
C439 C 0.18052 0.66432 0.46495 0.0
C440 C 0.26217 0.70906 0.48736 0.0
H441 H 0.31352 0.88597 0.49112 0.0
H442 H 0.27249 0.83094 0.48474 0.0
H443 H 0.30378 0.74327 0.50237 0.0
H444 H 0.21716 0.59305 0.4576 0.0
H445 H 0.25287 0.64855 0.46807 0.0
H446 H 0.21418 0.73084 0.45474 0.0
C447 C 0.29778 0.83236 0.48735 0.0
C448 C 0.28449 0.74094 0.49186 0.0
C449 C 0.32129 0.8639 0.49121 0.0
C450 C 0.20634 0.61239 0.45992 0.0
C451 C 0.2269 0.64429 0.46587 0.0
C452 C 0.23342 0.73335 0.4653 0.0
C453 C 0.3068 0.80304 0.48711 0.0
C454 C 0.28193 0.7694 0.48293 0.0
C455 C 0.21429 0.67068 0.46833 0.0
C456 C 0.2366 0.70486 0.4739 0.0
H457 H 0.38853 0.83882 0.49777 0.0
H458 H 0.34784 0.78416 0.49046 0.0
H459 H 0.25338 0.78652 0.46242 0.0
H460 H 0.13392 0.62811 0.4568 0.0
H461 H 0.17009 0.68412 0.4669 0.0
C462 C 0.4861 0.33314 0.84263 0.0
C463 C 0.51126 0.36061 0.83729 0.0
C464 C 0.48753 0.30038 0.84126 0.0
C465 C 0.52517 0.24846 0.81749 0.0
H466 H 0.50421 0.18835 0.85622 0.0
C467 C 0.51869 0.10947 0.8112 0.0
C468 C 0.53549 0.09785 0.82509 0.0
C469 C 0.51292 0.14019 0.81296 0.0
C470 C 0.51016 0.20487 0.84531 0.0
H471 H 0.55763 0.37508 0.82628 0.0
H472 H 0.55999 0.31798 0.82383 0.0
H473 H 0.50051 0.24514 0.85868 0.0
H474 H 0.55806 0.10866 0.85201 0.0
H475 H 0.54796 0.16235 0.85509 0.0
H476 H 0.53526 0.20848 0.8042 0.0
C477 C 0.53908 0.32177 0.829 0.0
C478 C 0.50779 0.23727 0.84665 0.0
C479 C 0.5378 0.35453 0.83049 0.0
C480 C 0.54525 0.11704 0.84103 0.0
C481 C 0.53926 0.14767 0.84283 0.0
C482 C 0.52726 0.21601 0.81608 0.0
C483 C 0.51399 0.29432 0.83438 0.0
C484 C 0.51552 0.25952 0.83281 0.0
C485 C 0.52362 0.15992 0.82869 0.0
C486 C 0.51997 0.19389 0.83001 0.0
H487 H 0.46532 0.33691 0.84794 0.0
H488 H 0.46769 0.27973 0.84538 0.0
H489 H 0.531 0.26488 0.80652 0.0
H490 H 0.51115 0.0955 0.79869 0.0
H491 H 0.50048 0.14876 0.8019 0.0
C492 C 0.52635 0.89938 0.524 0.0
C493 C 0.5526 0.92424 0.51765 0.0
C494 C 0.52649 0.86618 0.52535 0.0
C495 C 0.56471 0.80578 0.50966 0.0
H496 H 0.54303 0.76258 0.55367 0.0
C497 C 0.60051 0.68974 0.53124 0.0
C498 C 0.57989 0.66553 0.54124 0.0
C499 C 0.59364 0.71915 0.52669 0.0
C500 C 0.54858 0.77392 0.54116 0.0
H501 H 0.59913 0.93329 0.50725 0.0
H502 H 0.59929 0.87545 0.50961 0.0
H503 H 0.53745 0.81785 0.54873 0.0
H504 H 0.53516 0.6529 0.55377 0.0
H505 H 0.52266 0.70379 0.54541 0.0
H506 H 0.57607 0.76199 0.50212 0.0
C507 C 0.57855 0.88163 0.51348 0.0
C508 C 0.54544 0.8057 0.53834 0.0
C509 C 0.57853 0.91487 0.51223 0.0
C510 C 0.55149 0.67088 0.54597 0.0
C511 C 0.54454 0.7003 0.54137 0.0
C512 C 0.56768 0.77391 0.51243 0.0
C513 C 0.55273 0.85698 0.52026 0.0
C514 C 0.5539 0.8222 0.52267 0.0
C515 C 0.56583 0.7251 0.53193 0.0
C516 C 0.56011 0.75776 0.52833 0.0
H517 H 0.5059 0.90562 0.52824 0.0
H518 H 0.50605 0.8477 0.53044 0.0
H519 H 0.57095 0.81761 0.49733 0.0
H520 H 0.62235 0.68624 0.52713 0.0
H521 H 0.61078 0.73773 0.51956 0.0
C522 C 0.72583 0.53386 0.80513 0.0
C523 C 0.72212 0.51093 0.81876 0.0
C524 C 0.75601 0.5475 0.79862 0.0
C525 C 0.8409 0.54384 0.80144 0.0
H526 H 0.86424 0.64082 0.80709 0.0
C527 C 0.96345 0.62663 0.834 0.0
C528 C 0.97617 0.66063 0.82986 0.0
C529 C 0.93415 0.606 0.82529 0.0
C530 C 0.85824 0.6139 0.80492 0.0
H531 H 0.74594 0.48156 0.83491 0.0
H532 H 0.79868 0.50581 0.8239 0.0
H533 H 0.8074 0.60663 0.80422 0.0
H534 H 0.9693 0.699 0.81243 0.0
H535 H 0.91779 0.66285 0.79718 0.0
H536 H 0.89209 0.55122 0.80323 0.0
C537 C 0.77841 0.51325 0.81812 0.0
C538 C 0.82548 0.59419 0.80327 0.0
C539 C 0.74828 0.49965 0.82462 0.0
C540 C 0.95979 0.67305 0.81611 0.0
C541 C 0.9304 0.65233 0.80735 0.0
C542 C 0.87373 0.5636 0.80306 0.0
C543 C 0.78299 0.53845 0.80562 0.0
C544 C 0.81653 0.55887 0.8024 0.0
C545 C 0.91678 0.61883 0.81221 0.0
C546 C 0.88276 0.59873 0.80573 0.0
H547 H 0.7061 0.54305 0.80033 0.0
H548 H 0.7587 0.56655 0.78882 0.0
H549 H 0.8347 0.5167 0.80045 0.0
H550 H 0.97517 0.61634 0.84468 0.0
H551 H 0.92414 0.58055 0.82963 0.0
C552 C 0.20067 0.78206 0.18535 0.0
C553 C 0.19039 0.76254 0.16954 0.0
C554 C 0.23176 0.80584 0.1881 0.0
C555 C 0.31385 0.82762 0.17333 0.0
H556 H 0.32692 0.91274 0.19796 0.0
C557 C 0.44107 0.92828 0.18613 0.0
C558 C 0.44951 0.94286 0.2033 0.0
C559 C 0.40895 0.90876 0.18052 0.0
C560 C 0.3237 0.88901 0.19115 0.0
H561 H 0.20468 0.75318 0.14408 0.0
H562 H 0.25905 0.79478 0.14888 0.0
H563 H 0.27184 0.87378 0.19089 0.0
H564 H 0.43049 0.94855 0.22794 0.0
H565 H 0.37461 0.91481 0.21815 0.0
H566 H 0.36574 0.84268 0.1738 0.0
C567 C 0.24312 0.79135 0.15925 0.0
C568 C 0.29213 0.86665 0.18711 0.0
C569 C 0.21197 0.76751 0.1565 0.0
C570 C 0.42483 0.93822 0.21454 0.0
C571 C 0.39273 0.91879 0.20892 0.0
C572 C 0.34543 0.85001 0.17735 0.0
C573 C 0.25342 0.81076 0.17511 0.0
C574 C 0.28684 0.83548 0.17836 0.0
C575 C 0.38447 0.90343 0.19194 0.0
C576 C 0.35076 0.88078 0.18652 0.0
H577 H 0.18494 0.77845 0.19582 0.0
H578 H 0.23908 0.81984 0.20061 0.0
H579 H 0.31071 0.80367 0.16678 0.0
H580 H 0.45937 0.93174 0.17704 0.0
H581 H 0.40329 0.8977 0.16726 0.0
C582 C 0.53378 0.13931 0.51696 0.0
C583 C 0.56127 0.1293 0.52172 0.0
C584 C 0.53577 0.17321 0.5185 0.0
C585 C 0.58547 0.25307 0.54197 0.0
H586 H 0.54375 0.29491 0.50595 0.0
C587 C 0.61361 0.39611 0.54207 0.0
C588 C 0.58741 0.4087 0.5387 0.0
C589 C 0.60927 0.36203 0.53917 0.0
C590 C 0.55524 0.28348 0.51621 0.0
H591 H 0.6126 0.1474 0.5315 0.0
H592 H 0.61607 0.20622 0.53401 0.0
H593 H 0.5382 0.23524 0.50255 0.0
H594 H 0.53618 0.39521 0.52911 0.0
H595 H 0.52849 0.33532 0.52424 0.0
H596 H 0.60257 0.30108 0.55562 0.0
C597 C 0.59281 0.18784 0.52937 0.0
C598 C 0.55206 0.2493 0.51427 0.0
C599 C 0.59084 0.15405 0.52784 0.0
C600 C 0.55683 0.38633 0.53196 0.0
C601 C 0.55248 0.35208 0.52903 0.0
C602 C 0.58865 0.28711 0.5439 0.0
C603 C 0.56527 0.19784 0.52486 0.0
C604 C 0.56745 0.2338 0.52706 0.0
C605 C 0.57857 0.33947 0.53289 0.0
C606 C 0.57391 0.30285 0.53096 0.0
H607 H 0.5106 0.12095 0.5122 0.0
H608 H 0.51404 0.18002 0.51504 0.0
H609 H 0.59702 0.24178 0.55227 0.0
H610 H 0.6374 0.41239 0.54752 0.0
H611 H 0.63001 0.35327 0.54202 0.0
C612 C 0.33834 0.54536 0.82478 0.0
C613 C 0.32503 0.51112 0.82835 0.0
C614 C 0.32046 0.56726 0.82645 0.0
C615 C 0.25682 0.57682 0.85144 0.0
H616 H 0.25847 0.6506 0.82066 0.0
C617 C 0.21698 0.68652 0.87336 0.0
C618 C 0.19465 0.69533 0.86142 0.0
C619 C 0.23375 0.66562 0.86789 0.0
C620 C 0.25772 0.63003 0.82931 0.0
H621 H 0.28212 0.47259 0.83564 0.0
H622 H 0.25068 0.51094 0.83848 0.0
H623 H 0.28325 0.6086 0.81253 0.0
H624 H 0.17353 0.69045 0.83418 0.0
H625 H 0.20317 0.65416 0.82458 0.0
H626 H 0.23139 0.59807 0.86821 0.0
C627 C 0.27508 0.52083 0.83455 0.0
C628 C 0.27198 0.60612 0.82471 0.0
C629 C 0.29293 0.49886 0.8328 0.0
C630 C 0.19085 0.68441 0.84365 0.0
C631 C 0.20772 0.66353 0.83816 0.0
C632 C 0.24278 0.60076 0.85607 0.0
C633 C 0.28896 0.55537 0.83177 0.0
C634 C 0.27182 0.5794 0.8358 0.0
C635 C 0.22858 0.65315 0.85036 0.0
C636 C 0.24335 0.62778 0.84515 0.0
H637 H 0.3629 0.55537 0.82108 0.0
H638 H 0.33186 0.59376 0.82432 0.0
H639 H 0.25667 0.55676 0.86035 0.0
H640 H 0.22077 0.695 0.88708 0.0
H641 H 0.25024 0.65859 0.87749 0.0
C642 C 0.88522 0.31516 0.15723 0.0
C643 C 0.88045 0.34599 0.15318 0.0
C644 C 0.86028 0.28876 0.16331 0.0
C645 C 0.78318 0.2706 0.18394 0.0
H646 H 0.77096 0.17877 0.16854 0.0
C647 C 0.6754 0.15694 0.20209 0.0
C648 C 0.68323 0.12824 0.20751 0.0
C649 C 0.6984 0.18367 0.19484 0.0
C650 C 0.77421 0.20426 0.17307 0.0
H651 H 0.84543 0.373 0.15206 0.0
H652 H 0.80184 0.32688 0.16254 0.0
H653 H 0.81299 0.225 0.15707 0.0
H654 H 0.7211 0.10482 0.20917 0.0
H655 H 0.76119 0.15143 0.19673 0.0
H656 H 0.7443 0.24971 0.19993 0.0
C657 C 0.82508 0.32329 0.16133 0.0
C658 C 0.79836 0.23078 0.16652 0.0
C659 C 0.85007 0.34974 0.15531 0.0
C660 C 0.71441 0.12673 0.20533 0.0
C661 C 0.73728 0.15329 0.19801 0.0
C662 C 0.75892 0.24404 0.19044 0.0
C663 C 0.82986 0.29245 0.16543 0.0
C664 C 0.80338 0.2643 0.17198 0.0
C665 C 0.72962 0.18213 0.19272 0.0
C666 C 0.75435 0.21053 0.1852 0.0
H667 H 0.90848 0.31161 0.156 0.0
H668 H 0.86507 0.26561 0.16663 0.0
H669 H 0.78661 0.29603 0.18862 0.0
H670 H 0.65164 0.15893 0.20367 0.0
H671 H 0.69166 0.20544 0.19077 0.0
C672 C 1.02019 0.56861 0.07787 0.0
C673 C 0.03425 0.59067 0.09254 0.0
C674 C 1.02236 0.58044 0.06076 0.0
C675 C 1.0333 0.65767 0.03625 0.0
H676 H 0.05955 0.61054 -0.00031 0.0
C677 C 0.06648 0.71734 0.96989 0.0
C678 C 0.05791 0.69637 0.95456 0.0
C679 C 0.06233 0.70364 0.9865 0.0
C680 C 0.05168 0.62376 0.00965 0.0
H681 H 0.06177 0.64245 0.10069 0.0
H682 H 0.06529 0.66294 0.07093 0.0
H683 H 0.0544 0.58758 0.029 0.0
H684 H 0.03825 0.64436 0.94479 0.0
H685 H 1.02984 0.62066 0.97364 0.0
H686 H 1.03012 0.69362 0.01699 0.0
C687 C 0.05251 0.63657 0.07266 0.0
C688 C 0.04883 0.61061 0.02645 0.0
C689 C 0.05066 0.62472 0.08971 0.0
C690 C 0.04471 0.66137 0.95627 0.0
C691 C 0.04034 0.64769 0.97287 0.0
C692 C 0.03584 0.67065 0.01943 0.0
C693 C 0.03827 0.61462 0.05801 0.0
C694 C 0.03995 0.62763 0.03996 0.0
C695 C 0.04927 0.66863 0.98822 0.0
C696 C 0.04538 0.65406 0.00595 0.0
H697 H 1.00743 0.54222 0.07958 0.0
H698 H 1.01104 0.56301 0.04969 0.0
H699 H 1.0259 0.67105 0.04634 0.0
H700 H 0.07638 0.74441 0.9691 0.0
H701 H 0.06989 0.72055 0.99802 0.0
C702 C 0.57879 0.05225 0.45602 0.0
C703 C 0.55372 0.02876 0.46397 0.0
C704 C 0.57893 0.052 0.43772 0.0
C705 C 0.5473 0.99636 0.39807 0.0
H706 H 0.57296 0.0798 0.37331 0.0
C707 C 0.54239 -0.00262 0.32226 0.0
C708 C 0.56888 0.02033 0.31508 0.0
C709 C 0.53882 -0.00064 0.3402 0.0
C710 C 0.56603 0.05628 0.38005 0.0
H711 H 0.50887 0.98685 0.45883 0.0
H712 H 0.50908 0.98654 0.42685 0.0
H713 H 0.56975 0.08142 0.40504 0.0
H714 H 0.61225 0.06354 0.32112 0.0
H715 H 0.60616 0.06692 0.35245 0.0
H716 H 0.54396 0.9712 0.37317 0.0
C717 C 0.52881 0.00493 0.43483 0.0
C718 C 0.56417 0.05721 0.39823 0.0
C719 C 0.52861 0.00523 0.45315 0.0
C720 C 0.59138 0.04572 0.3262 0.0
C721 C 0.58786 0.04766 0.34416 0.0
C722 C 0.54921 0.99543 0.3799 0.0
C723 C 0.55406 0.02822 0.4269 0.0
C724 C 0.55494 0.02726 0.40747 0.0
C725 C 0.56169 0.0243 0.35142 0.0
C726 C 0.55875 0.02538 0.37067 0.0
H727 H 0.59856 0.07071 0.46394 0.0
H728 H 0.59896 0.07001 0.43206 0.0
H729 H 0.5406 0.97285 0.40482 0.0
H730 H 0.52431 0.97788 0.31399 0.0
H731 H 0.51805 0.98136 0.34527 0.0
C732 C 0.55118 0.49823 0.78431 0.0
C733 C 0.52572 0.47041 0.78902 0.0
C734 C 0.55634 0.50379 0.76667 0.0
C735 C 0.51585 0.48076 0.72112 0.0
H736 H 0.60431 0.51851 0.70891 0.0
C737 C 0.55106 0.49106 0.6494 0.0
C738 C 0.57339 0.52188 0.64527 0.0
C739 C 0.54388 0.48473 0.66676 0.0
C740 C 0.57946 0.50822 0.71215 0.0
H741 H 0.48594 0.42629 0.77884 0.0
H742 H 0.49554 0.43542 0.748 0.0
H743 H 0.59491 0.50618 0.73944 0.0
H744 H 0.60553 0.57028 0.65601 0.0
H745 H 0.59315 0.55912 0.6864 0.0
H746 H 0.50065 0.48219 0.69361 0.0
C747 C 0.51107 0.45343 0.75795 0.0
C748 C 0.57402 0.50121 0.72966 0.0
C749 C 0.50569 0.44805 0.77565 0.0
C750 C 0.58804 0.54642 0.6588 0.0
C751 C 0.58118 0.53992 0.67619 0.0
C752 C 0.52135 0.48742 0.70354 0.0
C753 C 0.53643 0.48146 0.75323 0.0
C754 C 0.54213 0.48767 0.73443 0.0
C755 C 0.55924 0.50891 0.68036 0.0
C756 C 0.55321 0.50148 0.69892 0.0
H757 H 0.56694 0.51614 0.79425 0.0
H758 H 0.57568 0.526 0.76358 0.0
H759 H 0.49095 0.47082 0.7243 0.0
H760 H 0.53928 0.47179 0.6392 0.0
H761 H 0.52698 0.46056 0.66963 0.0
C762 C 0.58376 0.00938 0.58253 0.0
C763 C 0.56001 0.0207 0.57319 0.0
C764 C 0.5843 0.00578 0.60074 0.0
C765 C 0.55679 0.03369 0.6405 0.0
H766 H 0.57268 0.95494 0.66057 0.0
C767 C 0.54617 0.00411 0.71399 0.0
C768 C 0.57001 0.99219 0.72278 0.0
C769 C 0.54408 0.00704 0.6957 0.0
C770 C 0.56857 0.97726 0.65521 0.0
H771 H 0.51831 0.03734 0.57573 0.0
H772 H 0.51923 0.03095 0.60755 0.0
H773 H 0.57078 0.96144 0.6288 0.0
H774 H 0.61052 0.97424 0.71922 0.0
H775 H 0.60698 0.97944 0.68733 0.0
H776 H 0.5548 0.04963 0.66693 0.0
C777 C 0.53758 0.0251 0.60077 0.0
C778 C 0.56746 0.98097 0.63699 0.0
C779 C 0.53697 0.02861 0.58252 0.0
C780 C 0.59157 0.98303 0.71283 0.0
C781 C 0.58952 0.98601 0.69454 0.0
C782 C 0.55797 0.03001 0.65874 0.0
C783 C 0.56116 0.01348 0.61007 0.0
C784 C 0.56169 0.00929 0.62943 0.0
C785 C 0.56582 -0.00185 0.68576 0.0
C786 C 0.56398 0.0018 0.66632 0.0
H787 H 0.60194 0.00313 0.5758 0.0
H788 H 0.60308 -0.00275 0.60755 0.0
H789 H 0.55272 0.05601 0.63511 0.0
H790 H 0.52888 0.01091 0.72125 0.0
H791 H 0.52519 0.01594 0.68934 0.0
C792 C 0.47475 0.47919 0.90172 0.0
C793 C 0.49335 0.46047 0.89558 0.0
C794 C 0.47311 0.48294 0.91983 0.0
C795 C 0.5173 0.47484 0.96314 0.0
H796 H 0.44006 0.48173 0.98194 0.0
C797 C 0.50149 0.46708 0.03715 0.0
C798 C 0.49301 0.49334 0.04472 0.0
C799 C 0.49999 0.46304 0.01887 0.0
C800 C 0.46182 0.48002 0.97682 0.0
H801 H 0.52343 0.4296 0.90345 0.0
H802 H 0.51944 0.43476 0.93479 0.0
H803 H 0.43976 0.47375 0.95015 0.0
H804 H 0.47563 0.53557 0.03872 0.0
H805 H 0.47201 0.52765 0.00675 0.0
H806 H 0.53893 0.48014 0.98988 0.0
C807 C 0.50716 0.4478 0.92582 0.0
C808 C 0.46176 0.47559 0.9586 0.0
C809 C 0.50924 0.44456 0.9078 0.0
C810 C 0.48196 0.5148 0.03344 0.0
C811 C 0.48 0.5104 0.01511 0.0
C812 C 0.51714 0.47871 0.98131 0.0
C813 C 0.48965 0.46762 0.93215 0.0
C814 C 0.48948 0.47277 0.95152 0.0
C815 C 0.48946 0.48479 0.00768 0.0
C816 C 0.48941 0.48122 0.98834 0.0
H817 H 0.46238 0.4919 0.89259 0.0
H818 H 0.45966 0.49867 0.92415 0.0
H819 H 0.53945 0.47378 0.95824 0.0
H820 H 0.50928 0.44948 0.04532 0.0
H821 H 0.50698 0.44278 0.01346 0.0
C822 C 1.0188 0.55514 0.21032 0.0
C823 C 1.01597 0.53052 0.19717 0.0
C824 C 1.01954 0.54723 0.22808 0.0
C825 C 0.03714 0.48513 0.25831 0.0
H826 H 1.00063 0.52922 0.2916 0.0
C827 C 0.04022 0.45696 0.33252 0.0
C828 C 0.05193 0.48554 0.34398 0.0
C829 C 1.03239 0.46023 0.31454 0.0
C830 C 1.01099 0.51679 0.28245 0.0
H831 H 1.01058 0.47794 0.19232 0.0
H832 H 1.01107 0.46389 0.22332 0.0
H833 H 0.99222 0.53815 0.26017 0.0
H834 H 0.06373 0.53977 0.34577 0.0
H835 H 0.04987 0.54548 0.31437 0.0
H836 H 0.0558 0.46373 0.28069 0.0
C837 C 1.01351 0.48956 0.21993 0.0
C838 C 1.00629 0.52197 0.26444 0.0
C839 C 1.01305 0.49756 0.20215 0.0
C840 C 0.05496 0.51736 0.3372 0.0
C841 C 0.04678 0.52058 0.31928 0.0
C842 C 0.04154 0.47969 0.27631 0.0
C843 C 1.01715 0.5144 0.23314 0.0
C844 C 1.01978 0.50666 0.25216 0.0
C845 C 0.03575 0.49209 0.30774 0.0
C846 C 1.02895 0.49589 0.28858 0.0
H847 H 1.02129 0.58085 0.20697 0.0
H848 H 1.02295 0.56719 0.23785 0.0
H849 H 0.04831 0.47332 0.24931 0.0
H850 H 0.03786 0.43215 0.33737 0.0
H851 H 1.02377 0.43784 0.30595 0.0
loop_
_geom_bond_atom_site_label_1
_geom_bond_atom_site_label_2
_geom_bond_distance
_geom_bond_site_symmetry_2
_ccdc_geom_bond_type
Dy0 O3 2.307 1_455 S
Dy0 O5 2.395 . S
Dy0 O6 2.379 . S
Dy0 O8 2.339 . S
Dy0 O10 2.298 . S
Dy0 O14 2.275 . S
Dy0 C22 2.738 . S
Dy1 O4 2.298 . S
Dy1 O7 2.275 1_655 S
Dy1 O9 2.307 1_655 S
Dy1 O11 2.395 . S
Dy1 O12 2.379 . S
Dy1 O15 2.339 . S
Dy1 C31 2.738 . S
C2 O14 1.254 . S
C2 O15 1.257 1_455 S
O3 Dy0 2.307 1_655 S
O3 C13 1.266 . S
O4 Dy1 2.298 . S
O4 C13 1.236 . S
O5 Dy0 2.395 . S
O5 C22 1.255 . S
O6 Dy0 2.379 . S
O6 C22 1.249 . S
O7 Dy1 2.275 1_455 S
O7 C23 1.254 . S
O8 Dy0 2.339 . S
O8 C23 1.257 . S
O9 Dy1 2.307 1_455 S
O9 C24 1.266 . S
O10 Dy0 2.298 . S
O10 C24 1.236 . S
O11 Dy1 2.395 . S
O11 C31 1.255 . S
O12 Dy1 2.379 . S
O12 C31 1.249 . S
C13 O3 1.266 . S
C13 O4 1.236 . S
O14 Dy0 2.275 . S
O14 C2 1.254 . S
O15 Dy1 2.339 . S
O15 C2 1.257 1_655 S
C16 C19 1.344 . S
C16 C20 1.328 . S
C16 C22 1.516 . S
C17 C18 1.304 . S
C17 C21 1.323 . S
C18 C17 1.304 . S
C18 C19 1.371 . S
C18 H32 0.930 . S
C19 C16 1.344 . S
C19 C18 1.371 . S
C19 H33 0.931 . S
C20 C16 1.328 . S
C20 C21 1.433 . S
C20 H34 0.931 . S
C21 C17 1.323 . S
C21 C20 1.433 . S
C21 H35 0.933 . S
C22 Dy0 2.738 . S
C22 O5 1.255 . S
C22 O6 1.249 . S
C22 C16 1.516 . S
C23 O7 1.254 . S
C23 O8 1.257 . S
C24 O9 1.266 . S
C24 O10 1.236 . S
C25 C28 1.344 . S
C25 C29 1.328 . S
C25 C31 1.516 . S
C26 C27 1.304 . S
C26 C30 1.323 . S
C27 C26 1.304 . S
C27 C28 1.371 . S
C27 H36 0.930 . S
C28 C25 1.344 . S
C28 C27 1.371 . S
C28 H37 0.931 . S
C29 C25 1.328 . S
C29 C30 1.433 . S
C29 H38 0.931 . S
C30 C26 1.323 . S
C30 C29 1.433 . S
C30 H39 0.933 . S
C31 Dy1 2.738 . S
C31 O11 1.255 . S
C31 O12 1.249 . S
C31 C25 1.516 . S
H32 C18 0.930 . S
H33 C19 0.931 . S
H34 C20 0.931 . S
H35 C21 0.933 . S
H36 C27 0.930 . S
H37 C28 0.931 . S
H38 C29 0.931 . S
H39 C30 0.933 . S
Dy40 O43 2.307 . S
Dy40 O45 2.395 1_545 S
Dy40 O46 2.379 1_545 S
Dy40 O48 2.339 . S
Dy40 O50 2.298 1_545 S
Dy40 O54 2.275 . S
Dy40 C62 2.738 1_545 S
Dy41 O44 2.298 . S
Dy41 O47 2.275 . S
Dy41 O49 2.307 1_545 S
Dy41 O51 2.395 . S
Dy41 O52 2.379 . S
Dy41 O55 2.339 . S
Dy41 C71 2.738 . S
C42 O54 1.254 . S
C42 O55 1.257 . S
O43 Dy40 2.307 . S
O43 C53 1.266 . S
O44 Dy41 2.298 . S
O44 C53 1.236 . S
O45 Dy40 2.395 1_565 S
O45 C62 1.255 . S
O46 Dy40 2.379 1_565 S
O46 C62 1.249 . S
O47 Dy41 2.275 . S
O47 C63 1.254 . S
O48 Dy40 2.339 . S
O48 C63 1.257 . S
O49 Dy41 2.307 1_565 S
O49 C64 1.266 . S
O50 Dy40 2.298 1_565 S
O50 C64 1.236 . S
O51 Dy41 2.395 . S
O51 C71 1.255 . S
O52 Dy41 2.379 . S
O52 C71 1.249 . S
C53 O43 1.266 . S
C53 O44 1.236 . S
O54 Dy40 2.275 . S
O54 C42 1.254 . S
O55 Dy41 2.339 . S
O55 C42 1.257 . S
C56 C59 1.344 . S
C56 C60 1.328 . S
C56 C62 1.516 . S
C57 C58 1.304 . S
C57 C61 1.323 . S
C58 C57 1.304 . S
C58 C59 1.371 . S
C58 H72 0.930 . S
C59 C56 1.344 . S
C59 C58 1.371 . S
C59 H73 0.931 . S
C60 C56 1.328 . S
C60 C61 1.433 . S
C60 H74 0.931 . S
C61 C57 1.323 . S
C61 C60 1.433 . S
C61 H75 0.933 . S
C62 Dy40 2.738 1_565 S
C62 O45 1.255 . S
C62 O46 1.249 . S
C62 C56 1.516 . S
C63 O47 1.254 . S
C63 O48 1.257 . S
C64 O49 1.266 . S
C64 O50 1.236 . S
C65 C68 1.344 . S
C65 C69 1.328 . S
C65 C71 1.516 . S
C66 C67 1.304 . S
C66 C70 1.323 . S
C67 C66 1.304 . S
C67 C68 1.371 . S
C67 H76 0.930 . S
C68 C65 1.344 . S
C68 C67 1.371 . S
C68 H77 0.931 . S
C69 C65 1.328 . S
C69 C70 1.433 . S
C69 H78 0.931 . S
C70 C66 1.323 . S
C70 C69 1.433 . S
C70 H79 0.933 . S
C71 Dy41 2.738 . S
C71 O51 1.255 . S
C71 O52 1.249 . S
C71 C65 1.516 . S
H72 C58 0.930 . S
H73 C59 0.931 . S
H74 C60 0.931 . S
H75 C61 0.933 . S
H76 C67 0.930 . S
H77 C68 0.931 . S
H78 C69 0.931 . S
H79 C70 0.933 . S
Dy80 O83 2.307 . S
Dy80 O85 2.395 . S
Dy80 O86 2.379 . S
Dy80 O88 2.339 . S
Dy80 O90 2.298 . S
Dy80 O94 2.275 . S
Dy80 C102 2.738 . S
Dy81 O84 2.298 . S
Dy81 O87 2.275 . S
Dy81 O89 2.307 . S
Dy81 O91 2.395 . S
Dy81 O92 2.379 . S
Dy81 O95 2.339 . S
Dy81 C111 2.738 . S
C82 O94 1.254 . S
C82 O95 1.257 . S
O83 Dy80 2.307 . S
O83 C93 1.266 . S
O84 Dy81 2.298 . S
O84 C93 1.236 . S
O85 Dy80 2.395 . S
O85 C102 1.255 . S
O86 Dy80 2.379 . S
O86 C102 1.249 . S
O87 Dy81 2.275 . S
O87 C103 1.254 . S
O88 Dy80 2.339 . S
O88 C103 1.257 . S
O89 Dy81 2.307 . S
O89 C104 1.266 . S
O90 Dy80 2.298 . S
O90 C104 1.236 . S
O91 Dy81 2.395 . S
O91 C111 1.255 . S
O92 Dy81 2.379 . S
O92 C111 1.249 . S
C93 O83 1.266 . S
C93 O84 1.236 . S
O94 Dy80 2.275 . S
O94 C82 1.254 . S
O95 Dy81 2.339 . S
O95 C82 1.257 . S
C96 C99 1.344 . S
C96 C100 1.328 . S
C96 C102 1.516 . S
C97 C98 1.304 . S
C97 C101 1.323 . S
C98 C97 1.304 . S
C98 C99 1.371 . S
C98 H112 0.930 . S
C99 C96 1.344 . S
C99 C98 1.371 . S
C99 H113 0.931 . S
C100 C96 1.328 . S
C100 C101 1.433 . S
C100 H114 0.931 . S
C101 C97 1.323 . S
C101 C100 1.433 . S
C101 H115 0.933 . S
C102 Dy80 2.738 . S
C102 O85 1.255 . S
C102 O86 1.249 . S
C102 C96 1.516 . S
C103 O87 1.254 . S
C103 O88 1.257 . S
C104 O89 1.266 . S
C104 O90 1.236 . S
C105 C108 1.344 . S
C105 C109 1.328 . S
C105 C111 1.516 . S
C106 C107 1.304 . S
C106 C110 1.323 . S
C107 C106 1.304 . S
C107 C108 1.371 . S
C107 H116 0.930 . S
C108 C105 1.344 . S
C108 C107 1.371 . S
C108 H117 0.931 . S
C109 C105 1.328 . S
C109 C110 1.433 . S
C109 H118 0.931 . S
C110 C106 1.323 . S
C110 C109 1.433 . S
C110 H119 0.933 . S
C111 Dy81 2.738 . S
C111 O91 1.255 . S
C111 O92 1.249 . S
C111 C105 1.516 . S
H112 C98 0.930 . S
H113 C99 0.931 . S
H114 C100 0.931 . S
H115 C101 0.933 . S
H116 C107 0.930 . S
H117 C108 0.931 . S
H118 C109 0.931 . S
H119 C110 0.933 . S
P120 O131 1.490 . S
P120 C134 1.812 . S
P120 C140 1.803 . S
P120 C146 1.819 . S
H121 C135 0.941 . S
H122 C136 0.939 . S
H123 C138 0.940 . S
H124 C139 0.940 . S
H125 C141 0.939 . S
H126 C142 0.942 . S
H127 C144 0.940 . S
H128 C145 0.939 . S
H129 C147 0.941 1_565 S
H130 C151 0.939 . S
O131 P120 1.490 . S
H132 C148 0.939 . S
H133 C150 0.940 . S
C134 P120 1.812 . S
C134 C135 1.389 1_545 S
C134 C139 1.391 . S
C135 H121 0.941 . S
C135 C134 1.389 1_565 S
C135 C136 1.397 . S
C136 H122 0.939 . S
C136 C135 1.397 . S
C136 C137 1.378 . S
C137 C136 1.378 . S
C137 C138 1.378 1_565 S
C138 H123 0.940 . S
C138 C137 1.378 1_545 S
C138 C139 1.396 . S
C139 H124 0.940 . S
C139 C134 1.391 . S
C139 C138 1.396 . S
C140 P120 1.803 . S
C140 C141 1.378 . S
C140 C145 1.400 . S
C141 H125 0.939 . S
C141 C140 1.378 . S
C141 C142 1.361 . S
C142 H126 0.942 . S
C142 C141 1.361 . S
C142 C143 1.369 . S
C143 C142 1.369 . S
C143 C144 1.404 . S
C144 H127 0.940 . S
C144 C143 1.404 . S
C144 C145 1.389 . S
C145 H128 0.939 . S
C145 C140 1.400 . S
C145 C144 1.389 . S
C146 P120 1.819 . S
C146 C147 1.391 . S
C146 C151 1.391 . S
C147 H129 0.941 1_545 S
C147 C146 1.391 . S
C147 C148 1.396 . S
C148 H132 0.939 . S
C148 C147 1.396 . S
C148 C149 1.397 . S
C149 C148 1.397 . S
C149 C150 1.385 . S
C150 H133 0.940 . S
C150 C149 1.385 . S
C150 C151 1.388 . S
C151 H130 0.939 . S
C151 C146 1.391 . S
C151 C150 1.388 . S
P152 O163 1.490 . S
P152 C166 1.812 . S
P152 C172 1.803 . S
P152 C178 1.819 . S
H153 C167 0.941 . S
H154 C168 0.939 . S
H155 C170 0.940 . S
H156 C171 0.940 . S
H157 C173 0.939 . S
H158 C174 0.942 . S
H159 C176 0.940 . S
H160 C177 0.939 . S
H161 C179 0.941 . S
H162 C183 0.939 . S
O163 P152 1.490 . S
H164 C180 0.939 . S
H165 C182 0.940 . S
C166 P152 1.812 . S
C166 C167 1.389 . S
C166 C171 1.391 . S
C167 H153 0.941 . S
C167 C166 1.389 . S
C167 C168 1.397 . S
C168 H154 0.939 . S
C168 C167 1.397 . S
C168 C169 1.378 . S
C169 C168 1.378 . S
C169 C170 1.378 . S
C170 H155 0.940 . S
C170 C169 1.378 . S
C170 C171 1.396 . S
C171 H156 0.940 . S
C171 C166 1.391 . S
C171 C170 1.396 . S
C172 P152 1.803 . S
C172 C173 1.378 . S
C172 C177 1.400 . S
C173 H157 0.939 . S
C173 C172 1.378 . S
C173 C174 1.361 . S
C174 H158 0.942 . S
C174 C173 1.361 . S
C174 C175 1.369 . S
C175 C174 1.369 . S
C175 C176 1.404 . S
C176 H159 0.940 . S
C176 C175 1.404 . S
C176 C177 1.389 . S
C177 H160 0.939 . S
C177 C172 1.400 . S
C177 C176 1.389 . S
C178 P152 1.819 . S
C178 C179 1.391 . S
C178 C183 1.391 . S
C179 H161 0.941 . S
C179 C178 1.391 . S
C179 C180 1.396 . S
C180 H164 0.939 . S
C180 C179 1.396 . S
C180 C181 1.397 . S
C181 C180 1.397 . S
C181 C182 1.385 . S
C182 H165 0.940 . S
C182 C181 1.385 . S
C182 C183 1.388 . S
C183 H162 0.939 . S
C183 C178 1.391 . S
C183 C182 1.388 . S
P184 O195 1.490 . S
P184 C198 1.812 . S
P184 C204 1.803 1_455 S
P184 C210 1.819 . S
H185 C199 0.941 . S
H186 C200 0.939 . S
H187 C202 0.940 . S
H188 C203 0.940 . S
H189 C205 0.939 . S
H190 C206 0.942 . S
H191 C208 0.940 . S
H192 C209 0.939 . S
H193 C211 0.941 . S
H194 C215 0.939 1_655 S
O195 P184 1.490 . S
H196 C212 0.939 . S
H197 C214 0.940 1_655 S
C198 P184 1.812 . S
C198 C199 1.389 . S
C198 C203 1.391 . S
C199 H185 0.941 . S
C199 C198 1.389 . S
C199 C200 1.397 . S
C200 H186 0.939 . S
C200 C199 1.397 . S
C200 C201 1.378 . S
C201 C200 1.378 . S
C201 C202 1.378 . S
C202 H187 0.940 . S
C202 C201 1.378 . S
C202 C203 1.396 . S
C203 H188 0.940 . S
C203 C198 1.391 . S
C203 C202 1.396 . S
C204 P184 1.803 1_655 S
C204 C205 1.378 . S
C204 C209 1.400 . S
C205 H189 0.939 . S
C205 C204 1.378 . S
C205 C206 1.361 . S
C206 H190 0.942 . S
C206 C205 1.361 . S
C206 C207 1.369 . S
C207 C206 1.369 . S
C207 C208 1.404 . S
C208 H191 0.940 . S
C208 C207 1.404 . S
C208 C209 1.389 . S
C209 H192 0.939 . S
C209 C204 1.400 . S
C209 C208 1.389 . S
C210 P184 1.819 . S
C210 C211 1.391 . S
C210 C215 1.391 . S
C211 H193 0.941 . S
C211 C210 1.391 . S
C211 C212 1.396 . S
C212 H196 0.939 . S
C212 C211 1.396 . S
C212 C213 1.397 . S
C213 C212 1.397 . S
C213 C214 1.385 . S
C214 H197 0.940 1_455 S
C214 C213 1.385 . S
C214 C215 1.388 . S
C215 H194 0.939 1_455 S
C215 C210 1.391 . S
C215 C214 1.388 . S
P216 O227 1.490 . S
P216 C230 1.812 . S
P216 C236 1.803 1_455 S
P216 C242 1.819 . S
H217 C231 0.941 . S
H218 C232 0.939 . S
H219 C234 0.940 . S
H220 C235 0.940 . S
H221 C237 0.939 . S
H222 C238 0.942 . S
H223 C240 0.940 . S
H224 C241 0.939 . S
H225 C243 0.941 . S
H226 C247 0.939 . S
O227 P216 1.490 . S
H228 C244 0.939 . S
H229 C246 0.940 . S
C230 P216 1.812 . S
C230 C231 1.389 . S
C230 C235 1.391 . S
C231 H217 0.941 . S
C231 C230 1.389 . S
C231 C232 1.397 . S
C232 H218 0.939 . S
C232 C231 1.397 . S
C232 C233 1.378 . S
C233 C232 1.378 . S
C233 C234 1.378 . S
C234 H219 0.940 . S
C234 C233 1.378 . S
C234 C235 1.396 . S
C235 H220 0.940 . S
C235 C230 1.391 . S
C235 C234 1.396 . S
C236 P216 1.803 1_655 S
C236 C237 1.378 . S
C236 C241 1.400 . S
C237 H221 0.939 . S
C237 C236 1.378 . S
C237 C238 1.361 . S
C238 H222 0.942 . S
C238 C237 1.361 . S
C238 C239 1.369 . S
C239 C238 1.369 . S
C239 C240 1.404 . S
C240 H223 0.940 . S
C240 C239 1.404 . S
C240 C241 1.389 . S
C241 H224 0.939 . S
C241 C236 1.400 . S
C241 C240 1.389 . S
C242 P216 1.819 . S
C242 C243 1.391 . S
C242 C247 1.391 1_455 S
C243 H225 0.941 . S
C243 C242 1.391 . S
C243 C244 1.396 . S
C244 H228 0.939 . S
C244 C243 1.396 . S
C244 C245 1.397 . S
C245 C244 1.397 . S
C245 C246 1.385 1_455 S
C246 H229 0.940 . S
C246 C245 1.385 1_655 S
C246 C247 1.388 . S
C247 H226 0.939 . S
C247 C242 1.391 1_655 S
C247 C246 1.388 . S
P248 O259 1.490 . S
P248 C262 1.812 . S
P248 C268 1.803 1_545 S
P248 C274 1.819 . S
H249 C263 0.941 . S
H250 C264 0.939 . S
H251 C266 0.940 . S
H252 C267 0.940 . S
H253 C269 0.939 . S
H254 C270 0.942 . S
H255 C272 0.940 . S
H256 C273 0.939 . S
H257 C275 0.941 . S
H258 C279 0.939 . S
O259 P248 1.490 . S
H260 C276 0.939 . S
H261 C278 0.940 . S
C262 P248 1.812 . S
C262 C263 1.389 . S
C262 C267 1.391 . S
C263 H249 0.941 . S
C263 C262 1.389 . S
C263 C264 1.397 . S
C264 H250 0.939 . S
C264 C263 1.397 . S
C264 C265 1.378 . S
C265 C264 1.378 . S
C265 C266 1.378 . S
C266 H251 0.940 . S
C266 C265 1.378 . S
C266 C267 1.396 . S
C267 H252 0.940 . S
C267 C262 1.391 . S
C267 C266 1.396 . S
C268 P248 1.803 1_565 S
C268 C269 1.378 . S
C268 C273 1.400 . S
C269 H253 0.939 . S
C269 C268 1.378 . S
C269 C270 1.361 . S
C270 H254 0.942 . S
C270 C269 1.361 . S
C270 C271 1.369 . S
C271 C270 1.369 . S
C271 C272 1.404 . S
C272 H255 0.940 . S
C272 C271 1.404 . S
C272 C273 1.389 . S
C273 H256 0.939 . S
C273 C268 1.400 . S
C273 C272 1.389 . S
C274 P248 1.819 . S
C274 C275 1.391 . S
C274 C279 1.391 1_545 S
C275 H257 0.941 . S
C275 C274 1.391 . S
C275 C276 1.396 . S
C276 H260 0.939 . S
C276 C275 1.396 . S
C276 C277 1.397 . S
C277 C276 1.397 . S
C277 C278 1.385 1_545 S
C278 H261 0.940 . S
C278 C277 1.385 1_565 S
C278 C279 1.388 . S
C279 H258 0.939 . S
C279 C274 1.391 1_565 S
C279 C278 1.388 . S
P280 O291 1.490 . S
P280 C294 1.812 . S
P280 C300 1.803 . S
P280 C306 1.819 . S
H281 C295 0.941 . S
H282 C296 0.939 . S
H283 C298 0.940 . S
H284 C299 0.940 . S
H285 C301 0.939 . S
H286 C302 0.942 . S
H287 C304 0.940 . S
H288 C305 0.939 . S
H289 C307 0.941 . S
H290 C311 0.939 . S
O291 P280 1.490 . S
H292 C308 0.939 . S
H293 C310 0.940 . S
C294 P280 1.812 . S
C294 C295 1.389 . S
C294 C299 1.391 . S
C295 H281 0.941 . S
C295 C294 1.389 . S
C295 C296 1.397 . S
C296 H282 0.939 . S
C296 C295 1.397 . S
C296 C297 1.378 . S
C297 C296 1.378 . S
C297 C298 1.378 . S
C298 H283 0.940 . S
C298 C297 1.378 . S
C298 C299 1.396 . S
C299 H284 0.940 . S
C299 C294 1.391 . S
C299 C298 1.396 . S
C300 P280 1.803 . S
C300 C301 1.378 . S
C300 C305 1.400 . S
C301 H285 0.939 . S
C301 C300 1.378 . S
C301 C302 1.361 . S
C302 H286 0.942 . S
C302 C301 1.361 . S
C302 C303 1.369 . S
C303 C302 1.369 . S
C303 C304 1.404 . S
C304 H287 0.940 . S
C304 C303 1.404 . S
C304 C305 1.389 . S
C305 H288 0.939 . S
C305 C300 1.400 . S
C305 C304 1.389 . S
C306 P280 1.819 . S
C306 C307 1.391 . S
C306 C311 1.391 . S
C307 H289 0.941 . S
C307 C306 1.391 . S
C307 C308 1.396 . S
C308 H292 0.939 . S
C308 C307 1.396 . S
C308 C309 1.397 . S
C309 C308 1.397 . S
C309 C310 1.385 . S
C310 H293 0.940 . S
C310 C309 1.385 . S
C310 C311 1.388 . S
C311 H290 0.939 . S
C311 C306 1.391 . S
C311 C310 1.388 . S
C312 C313 1.349 . S
C312 C314 1.327 . S
C312 H337 0.950 . S
C313 C312 1.349 . S
C313 C329 1.349 . S
C314 C312 1.327 . S
C314 C333 1.429 . S
C314 H338 0.950 . S
C315 C332 1.574 . S
C315 C334 1.368 . S
C315 H339 0.949 . S
H316 C320 0.949 . S
C317 C318 1.349 . S
C317 C319 1.327 . S
C317 H340 0.950 . S
C318 C317 1.349 . S
C318 C330 1.349 . S
C319 C317 1.327 . S
C319 C335 1.429 . S
C319 H341 0.950 . S
C320 H316 0.949 . S
C320 C328 1.574 . S
C320 C336 1.368 . S
H321 C329 0.950 . S
H322 C327 0.950 . S
H323 C328 0.949 . S
H324 C330 0.950 . S
H325 C331 0.950 . S
H326 C332 0.949 . S
C327 H322 0.950 . S
C327 C329 1.327 . S
C327 C333 1.429 . S
C328 C320 1.574 . S
C328 H323 0.949 . S
C328 C334 1.368 . S
C329 C313 1.349 . S
C329 H321 0.950 . S
C329 C327 1.327 . S
C330 C318 1.349 . S
C330 H324 0.950 . S
C330 C331 1.327 . S
C331 H325 0.950 . S
C331 C330 1.327 . S
C331 C335 1.429 . S
C332 C315 1.574 . S
C332 H326 0.949 . S
C332 C336 1.368 . S
C333 C314 1.429 . S
C333 C327 1.429 . S
C333 C334 1.523 . S
C334 C315 1.368 . S
C334 C328 1.368 . S
C334 C333 1.523 . S
C335 C319 1.429 . S
C335 C331 1.429 . S
C335 C336 1.523 . S
C336 C320 1.368 . S
C336 C332 1.368 . S
C336 C335 1.523 . S
H337 C312 0.950 . S
H338 C314 0.950 . S
H339 C315 0.949 . S
H340 C317 0.950 . S
H341 C319 0.950 . S
C342 C343 1.349 . S
C342 C344 1.327 . S
C342 H367 0.950 . S
C343 C342 1.349 . S
C343 C359 1.349 . S
C344 C342 1.327 . S
C344 C363 1.429 . S
C344 H368 0.950 . S
C345 C362 1.574 . S
C345 C364 1.368 . S
C345 H369 0.949 . S
H346 C350 0.949 . S
C347 C348 1.349 . S
C347 C349 1.327 . S
C347 H370 0.950 . S
C348 C347 1.349 . S
C348 C360 1.349 . S
C349 C347 1.327 . S
C349 C365 1.429 . S
C349 H371 0.950 . S
C350 H346 0.949 . S
C350 C358 1.574 . S
C350 C366 1.368 . S
H351 C359 0.950 . S
H352 C357 0.950 . S
H353 C358 0.949 . S
H354 C360 0.950 . S
H355 C361 0.950 . S
H356 C362 0.949 . S
C357 H352 0.950 . S
C357 C359 1.327 . S
C357 C363 1.429 . S
C358 C350 1.574 . S
C358 H353 0.949 . S
C358 C364 1.368 . S
C359 C343 1.349 . S
C359 H351 0.950 . S
C359 C357 1.327 . S
C360 C348 1.349 . S
C360 H354 0.950 . S
C360 C361 1.327 . S
C361 H355 0.950 . S
C361 C360 1.327 . S
C361 C365 1.429 . S
C362 C345 1.574 . S
C362 H356 0.949 . S
C362 C366 1.368 . S
C363 C344 1.429 . S
C363 C357 1.429 . S
C363 C364 1.523 . S
C364 C345 1.368 . S
C364 C358 1.368 . S
C364 C363 1.523 . S
C365 C349 1.429 . S
C365 C361 1.429 . S
C365 C366 1.523 . S
C366 C350 1.368 . S
C366 C362 1.368 . S
C366 C365 1.523 . S
H367 C342 0.950 . S
H368 C344 0.950 . S
H369 C345 0.949 . S
H370 C347 0.950 . S
H371 C349 0.950 . S
C372 C373 1.349 . S
C372 C374 1.327 . S
C372 H397 0.950 . S
C373 C372 1.349 . S
C373 C389 1.349 . S
C374 C372 1.327 . S
C374 C393 1.429 . S
C374 H398 0.950 . S
C375 C392 1.574 . S
C375 C394 1.368 . S
C375 H399 0.949 . S
H376 C380 0.949 . S
C377 C378 1.349 . S
C377 C379 1.327 . S
C377 H400 0.950 . S
C378 C377 1.349 . S
C378 C390 1.349 . S
C379 C377 1.327 . S
C379 C395 1.429 . S
C379 H401 0.950 . S
C380 H376 0.949 . S
C380 C388 1.574 . S
C380 C396 1.368 . S
H381 C389 0.950 . S
H382 C387 0.950 . S
H383 C388 0.949 . S
H384 C390 0.950 . S
H385 C391 0.950 . S
H386 C392 0.949 . S
C387 H382 0.950 . S
C387 C389 1.327 . S
C387 C393 1.429 . S
C388 C380 1.574 . S
C388 H383 0.949 . S
C388 C394 1.368 . S
C389 C373 1.349 . S
C389 H381 0.950 . S
C389 C387 1.327 . S
C390 C378 1.349 . S
C390 H384 0.950 . S
C390 C391 1.327 . S
C391 H385 0.950 . S
C391 C390 1.327 . S
C391 C395 1.429 . S
C392 C375 1.574 . S
C392 H386 0.949 . S
C392 C396 1.368 . S
C393 C374 1.429 . S
C393 C387 1.429 . S
C393 C394 1.523 . S
C394 C375 1.368 . S
C394 C388 1.368 . S
C394 C393 1.523 . S
C395 C379 1.429 . S
C395 C391 1.429 . S
C395 C396 1.523 . S
C396 C380 1.368 . S
C396 C392 1.368 . S
C396 C395 1.523 . S
H397 C372 0.950 . S
H398 C374 0.950 . S
H399 C375 0.949 . S
H400 C377 0.950 . S
H401 C379 0.950 . S
C402 C403 1.349 . S
C402 C404 1.327 . S
C402 H427 0.950 . S
C403 C402 1.349 . S
C403 C419 1.349 . S
C404 C402 1.327 . S
C404 C423 1.429 . S
C404 H428 0.950 . S
C405 C422 1.574 . S
C405 C424 1.368 . S
C405 H429 0.949 . S
H406 C410 0.949 . S
C407 C408 1.349 . S
C407 C409 1.327 . S
C407 H430 0.950 . S
C408 C407 1.349 . S
C408 C420 1.349 . S
C409 C407 1.327 . S
C409 C425 1.429 . S
C409 H431 0.950 . S
C410 H406 0.949 . S
C410 C418 1.574 . S
C410 C426 1.368 . S
H411 C419 0.950 . S
H412 C417 0.950 . S
H413 C418 0.949 . S
H414 C420 0.950 . S
H415 C421 0.950 . S
H416 C422 0.949 . S
C417 H412 0.950 . S
C417 C419 1.327 . S
C417 C423 1.429 . S
C418 C410 1.574 . S
C418 H413 0.949 . S
C418 C424 1.368 . S
C419 C403 1.349 . S
C419 H411 0.950 . S
C419 C417 1.327 . S
C420 C408 1.349 . S
C420 H414 0.950 . S
C420 C421 1.327 . S
C421 H415 0.950 . S
C421 C420 1.327 . S
C421 C425 1.429 . S
C422 C405 1.574 . S
C422 H416 0.949 . S
C422 C426 1.368 . S
C423 C404 1.429 . S
C423 C417 1.429 . S
C423 C424 1.523 . S
C424 C405 1.368 . S
C424 C418 1.368 . S
C424 C423 1.523 . S
C425 C409 1.429 . S
C425 C421 1.429 . S
C425 C426 1.523 . S
C426 C410 1.368 . S
C426 C422 1.368 . S
C426 C425 1.523 . S
H427 C402 0.950 . S
H428 C404 0.950 . S
H429 C405 0.949 . S
H430 C407 0.950 . S
H431 C409 0.950 . S
C432 C433 1.349 . S
C432 C434 1.327 . S
C432 H457 0.950 . S
C433 C432 1.349 . S
C433 C449 1.349 . S
C434 C432 1.327 . S
C434 C453 1.429 . S
C434 H458 0.950 . S
C435 C452 1.574 . S
C435 C454 1.368 . S
C435 H459 0.949 . S
H436 C440 0.949 . S
C437 C438 1.349 . S
C437 C439 1.327 . S
C437 H460 0.950 . S
C438 C437 1.349 . S
C438 C450 1.349 . S
C439 C437 1.327 . S
C439 C455 1.429 . S
C439 H461 0.950 . S
C440 H436 0.949 . S
C440 C448 1.574 . S
C440 C456 1.368 . S
H441 C449 0.950 . S
H442 C447 0.950 . S
H443 C448 0.949 . S
H444 C450 0.950 . S
H445 C451 0.950 . S
H446 C452 0.949 . S
C447 H442 0.950 . S
C447 C449 1.327 . S
C447 C453 1.429 . S
C448 C440 1.574 . S
C448 H443 0.949 . S
C448 C454 1.368 . S
C449 C433 1.349 . S
C449 H441 0.950 . S
C449 C447 1.327 . S
C450 C438 1.349 . S
C450 H444 0.950 . S
C450 C451 1.327 . S
C451 H445 0.950 . S
C451 C450 1.327 . S
C451 C455 1.429 . S
C452 C435 1.574 . S
C452 H446 0.949 . S
C452 C456 1.368 . S
C453 C434 1.429 . S
C453 C447 1.429 . S
C453 C454 1.523 . S
C454 C435 1.368 . S
C454 C448 1.368 . S
C454 C453 1.523 . S
C455 C439 1.429 . S
C455 C451 1.429 . S
C455 C456 1.523 . S
C456 C440 1.368 . S
C456 C452 1.368 . S
C456 C455 1.523 . S
H457 C432 0.950 . S
H458 C434 0.950 . S
H459 C435 0.949 . S
H460 C437 0.950 . S
H461 C439 0.950 . S
C462 C463 1.349 . S
C462 C464 1.327 . S
C462 H487 0.950 . S
C463 C462 1.349 . S
C463 C479 1.349 . S
C464 C462 1.327 . S
C464 C483 1.429 . S
C464 H488 0.950 . S
C465 C482 1.574 . S
C465 C484 1.368 . S
C465 H489 0.949 . S
H466 C470 0.949 . S
C467 C468 1.349 . S
C467 C469 1.327 . S
C467 H490 0.950 . S
C468 C467 1.349 . S
C468 C480 1.349 . S
C469 C467 1.327 . S
C469 C485 1.429 . S
C469 H491 0.950 . S
C470 H466 0.949 . S
C470 C478 1.574 . S
C470 C486 1.368 . S
H471 C479 0.950 . S
H472 C477 0.950 . S
H473 C478 0.949 . S
H474 C480 0.950 . S
H475 C481 0.950 . S
H476 C482 0.949 . S
C477 H472 0.950 . S
C477 C479 1.327 . S
C477 C483 1.429 . S
C478 C470 1.574 . S
C478 H473 0.949 . S
C478 C484 1.368 . S
C479 C463 1.349 . S
C479 H471 0.950 . S
C479 C477 1.327 . S
C480 C468 1.349 . S
C480 H474 0.950 . S
C480 C481 1.327 . S
C481 H475 0.950 . S
C481 C480 1.327 . S
C481 C485 1.429 . S
C482 C465 1.574 . S
C482 H476 0.949 . S
C482 C486 1.368 . S
C483 C464 1.429 . S
C483 C477 1.429 . S
C483 C484 1.523 . S
C484 C465 1.368 . S
C484 C478 1.368 . S
C484 C483 1.523 . S
C485 C469 1.429 . S
C485 C481 1.429 . S
C485 C486 1.523 . S
C486 C470 1.368 . S
C486 C482 1.368 . S
C486 C485 1.523 . S
H487 C462 0.950 . S
H488 C464 0.950 . S
H489 C465 0.949 . S
H490 C467 0.950 . S
H491 C469 0.950 . S
C492 C493 1.349 . S
C492 C494 1.327 . S
C492 H517 0.950 . S
C493 C492 1.349 . S
C493 C509 1.349 . S
C494 C492 1.327 . S
C494 C513 1.429 . S
C494 H518 0.950 . S
C495 C512 1.574 . S
C495 C514 1.368 . S
C495 H519 0.949 . S
H496 C500 0.949 . S
C497 C498 1.349 . S
C497 C499 1.327 . S
C497 H520 0.950 . S
C498 C497 1.349 . S
C498 C510 1.349 . S
C499 C497 1.327 . S
C499 C515 1.429 . S
C499 H521 0.950 . S
C500 H496 0.949 . S
C500 C508 1.574 . S
C500 C516 1.368 . S
H501 C509 0.950 . S
H502 C507 0.950 . S
H503 C508 0.949 . S
H504 C510 0.950 . S
H505 C511 0.950 . S
H506 C512 0.949 . S
C507 H502 0.950 . S
C507 C509 1.327 . S
C507 C513 1.429 . S
C508 C500 1.574 . S
C508 H503 0.949 . S
C508 C514 1.368 . S
C509 C493 1.349 . S
C509 H501 0.950 . S
C509 C507 1.327 . S
C510 C498 1.349 . S
C510 H504 0.950 . S
C510 C511 1.327 . S
C511 H505 0.950 . S
C511 C510 1.327 . S
C511 C515 1.429 . S
C512 C495 1.574 . S
C512 H506 0.949 . S
C512 C516 1.368 . S
C513 C494 1.429 . S
C513 C507 1.429 . S
C513 C514 1.523 . S
C514 C495 1.368 . S
C514 C508 1.368 . S
C514 C513 1.523 . S
C515 C499 1.429 . S
C515 C511 1.429 . S
C515 C516 1.523 . S
C516 C500 1.368 . S
C516 C512 1.368 . S
C516 C515 1.523 . S
H517 C492 0.950 . S
H518 C494 0.950 . S
H519 C495 0.949 . S
H520 C497 0.950 . S
H521 C499 0.950 . S
C522 C523 1.349 . S
C522 C524 1.327 . S
C522 H547 0.950 . S
C523 C522 1.349 . S
C523 C539 1.349 . S
C524 C522 1.327 . S
C524 C543 1.429 . S
C524 H548 0.950 . S
C525 C542 1.574 . S
C525 C544 1.368 . S
C525 H549 0.949 . S
H526 C530 0.949 . S
C527 C528 1.349 . S
C527 C529 1.327 . S
C527 H550 0.950 . S
C528 C527 1.349 . S
C528 C540 1.349 . S
C529 C527 1.327 . S
C529 C545 1.429 . S
C529 H551 0.950 . S
C530 H526 0.949 . S
C530 C538 1.574 . S
C530 C546 1.368 . S
H531 C539 0.950 . S
H532 C537 0.950 . S
H533 C538 0.949 . S
H534 C540 0.950 . S
H535 C541 0.950 . S
H536 C542 0.949 . S
C537 H532 0.950 . S
C537 C539 1.327 . S
C537 C543 1.429 . S
C538 C530 1.574 . S
C538 H533 0.949 . S
C538 C544 1.368 . S
C539 C523 1.349 . S
C539 H531 0.950 . S
C539 C537 1.327 . S
C540 C528 1.349 . S
C540 H534 0.950 . S
C540 C541 1.327 . S
C541 H535 0.950 . S
C541 C540 1.327 . S
C541 C545 1.429 . S
C542 C525 1.574 . S
C542 H536 0.949 . S
C542 C546 1.368 . S
C543 C524 1.429 . S
C543 C537 1.429 . S
C543 C544 1.523 . S
C544 C525 1.368 . S
C544 C538 1.368 . S
C544 C543 1.523 . S
C545 C529 1.429 . S
C545 C541 1.429 . S
C545 C546 1.523 . S
C546 C530 1.368 . S
C546 C542 1.368 . S
C546 C545 1.523 . S
H547 C522 0.950 . S
H548 C524 0.950 . S
H549 C525 0.949 . S
H550 C527 0.950 . S
H551 C529 0.950 . S
C552 C553 1.349 . S
C552 C554 1.327 . S
C552 H577 0.950 . S
C553 C552 1.349 . S
C553 C569 1.349 . S
C554 C552 1.327 . S
C554 C573 1.429 . S
C554 H578 0.950 . S
C555 C572 1.574 . S
C555 C574 1.368 . S
C555 H579 0.949 . S
H556 C560 0.949 . S
C557 C558 1.349 . S
C557 C559 1.327 . S
C557 H580 0.950 . S
C558 C557 1.349 . S
C558 C570 1.349 . S
C559 C557 1.327 . S
C559 C575 1.429 . S
C559 H581 0.950 . S
C560 H556 0.949 . S
C560 C568 1.574 . S
C560 C576 1.368 . S
H561 C569 0.950 . S
H562 C567 0.950 . S
H563 C568 0.949 . S
H564 C570 0.950 . S
H565 C571 0.950 . S
H566 C572 0.949 . S
C567 H562 0.950 . S
C567 C569 1.327 . S
C567 C573 1.429 . S
C568 C560 1.574 . S
C568 H563 0.949 . S
C568 C574 1.368 . S
C569 C553 1.349 . S
C569 H561 0.950 . S
C569 C567 1.327 . S
C570 C558 1.349 . S
C570 H564 0.950 . S
C570 C571 1.327 . S
C571 H565 0.950 . S
C571 C570 1.327 . S
C571 C575 1.429 . S
C572 C555 1.574 . S
C572 H566 0.949 . S
C572 C576 1.368 . S
C573 C554 1.429 . S
C573 C567 1.429 . S
C573 C574 1.523 . S
C574 C555 1.368 . S
C574 C568 1.368 . S
C574 C573 1.523 . S
C575 C559 1.429 . S
C575 C571 1.429 . S
C575 C576 1.523 . S
C576 C560 1.368 . S
C576 C572 1.368 . S
C576 C575 1.523 . S
H577 C552 0.950 . S
H578 C554 0.950 . S
H579 C555 0.949 . S
H580 C557 0.950 . S
H581 C559 0.950 . S
C582 C583 1.349 . S
C582 C584 1.327 . S
C582 H607 0.950 . S
C583 C582 1.349 . S
C583 C599 1.349 . S
C584 C582 1.327 . S
C584 C603 1.429 . S
C584 H608 0.950 . S
C585 C602 1.574 . S
C585 C604 1.368 . S
C585 H609 0.949 . S
H586 C590 0.949 . S
C587 C588 1.349 . S
C587 C589 1.327 . S
C587 H610 0.950 . S
C588 C587 1.349 . S
C588 C600 1.349 . S
C589 C587 1.327 . S
C589 C605 1.429 . S
C589 H611 0.950 . S
C590 H586 0.949 . S
C590 C598 1.574 . S
C590 C606 1.368 . S
H591 C599 0.950 . S
H592 C597 0.950 . S
H593 C598 0.949 . S
H594 C600 0.950 . S
H595 C601 0.950 . S
H596 C602 0.949 . S
C597 H592 0.950 . S
C597 C599 1.327 . S
C597 C603 1.429 . S
C598 C590 1.574 . S
C598 H593 0.949 . S
C598 C604 1.368 . S
C599 C583 1.349 . S
C599 H591 0.950 . S
C599 C597 1.327 . S
C600 C588 1.349 . S
C600 H594 0.950 . S
C600 C601 1.327 . S
C601 H595 0.950 . S
C601 C600 1.327 . S
C601 C605 1.429 . S
C602 C585 1.574 . S
C602 H596 0.949 . S
C602 C606 1.368 . S
C603 C584 1.429 . S
C603 C597 1.429 . S
C603 C604 1.523 . S
C604 C585 1.368 . S
C604 C598 1.368 . S
C604 C603 1.523 . S
C605 C589 1.429 . S
C605 C601 1.429 . S
C605 C606 1.523 . S
C606 C590 1.368 . S
C606 C602 1.368 . S
C606 C605 1.523 . S
H607 C582 0.950 . S
H608 C584 0.950 . S
H609 C585 0.949 . S
H610 C587 0.950 . S
H611 C589 0.950 . S
C612 C613 1.349 . S
C612 C614 1.327 . S
C612 H637 0.950 . S
C613 C612 1.349 . S
C613 C629 1.349 . S
C614 C612 1.327 . S
C614 C633 1.429 . S
C614 H638 0.950 . S
C615 C632 1.574 . S
C615 C634 1.368 . S
C615 H639 0.949 . S
H616 C620 0.949 . S
C617 C618 1.349 . S
C617 C619 1.327 . S
C617 H640 0.950 . S
C618 C617 1.349 . S
C618 C630 1.349 . S
C619 C617 1.327 . S
C619 C635 1.429 . S
C619 H641 0.950 . S
C620 H616 0.949 . S
C620 C628 1.574 . S
C620 C636 1.368 . S
H621 C629 0.950 . S
H622 C627 0.950 . S
H623 C628 0.949 . S
H624 C630 0.950 . S
H625 C631 0.950 . S
H626 C632 0.949 . S
C627 H622 0.950 . S
C627 C629 1.327 . S
C627 C633 1.429 . S
C628 C620 1.574 . S
C628 H623 0.949 . S
C628 C634 1.368 . S
C629 C613 1.349 . S
C629 H621 0.950 . S
C629 C627 1.327 . S
C630 C618 1.349 . S
C630 H624 0.950 . S
C630 C631 1.327 . S
C631 H625 0.950 . S
C631 C630 1.327 . S
C631 C635 1.429 . S
C632 C615 1.574 . S
C632 H626 0.949 . S
C632 C636 1.368 . S
C633 C614 1.429 . S
C633 C627 1.429 . S
C633 C634 1.523 . S
C634 C615 1.368 . S
C634 C628 1.368 . S
C634 C633 1.523 . S
C635 C619 1.429 . S
C635 C631 1.429 . S
C635 C636 1.523 . S
C636 C620 1.368 . S
C636 C632 1.368 . S
C636 C635 1.523 . S
H637 C612 0.950 . S
H638 C614 0.950 . S
H639 C615 0.949 . S
H640 C617 0.950 . S
H641 C619 0.950 . S
C642 C643 1.349 . S
C642 C644 1.327 . S
C642 H667 0.950 . S
C643 C642 1.349 . S
C643 C659 1.349 . S
C644 C642 1.327 . S
C644 C663 1.429 . S
C644 H668 0.950 . S
C645 C662 1.574 . S
C645 C664 1.368 . S
C645 H669 0.949 . S
H646 C650 0.949 . S
C647 C648 1.349 . S
C647 C649 1.327 . S
C647 H670 0.950 . S
C648 C647 1.349 . S
C648 C660 1.349 . S
C649 C647 1.327 . S
C649 C665 1.429 . S
C649 H671 0.950 . S
C650 H646 0.949 . S
C650 C658 1.574 . S
C650 C666 1.368 . S
H651 C659 0.950 . S
H652 C657 0.950 . S
H653 C658 0.949 . S
H654 C660 0.950 . S
H655 C661 0.950 . S
H656 C662 0.949 . S
C657 H652 0.950 . S
C657 C659 1.327 . S
C657 C663 1.429 . S
C658 C650 1.574 . S
C658 H653 0.949 . S
C658 C664 1.368 . S
C659 C643 1.349 . S
C659 H651 0.950 . S
C659 C657 1.327 . S
C660 C648 1.349 . S
C660 H654 0.950 . S
C660 C661 1.327 . S
C661 H655 0.950 . S
C661 C660 1.327 . S
C661 C665 1.429 . S
C662 C645 1.574 . S
C662 H656 0.949 . S
C662 C666 1.368 . S
C663 C644 1.429 . S
C663 C657 1.429 . S
C663 C664 1.523 . S
C664 C645 1.368 . S
C664 C658 1.368 . S
C664 C663 1.523 . S
C665 C649 1.429 . S
C665 C661 1.429 . S
C665 C666 1.523 . S
C666 C650 1.368 . S
C666 C662 1.368 . S
C666 C665 1.523 . S
H667 C642 0.950 . S
H668 C644 0.950 . S
H669 C645 0.949 . S
H670 C647 0.950 . S
H671 C649 0.950 . S
C672 C673 1.349 1_655 S
C672 C674 1.327 . S
C672 H697 0.950 . S
C673 C672 1.349 1_455 S
C673 C689 1.349 . S
C674 C672 1.327 . S
C674 C693 1.429 1_655 S
C674 H698 0.950 . S
C675 C692 1.574 . S
C675 C694 1.368 . S
C675 H699 0.949 . S
H676 C680 0.949 . S
C677 C678 1.349 . S
C677 C679 1.327 . S
C677 H700 0.950 . S
C678 C677 1.349 . S
C678 C690 1.349 . S
C679 C677 1.327 . S
C679 C695 1.429 1_556 S
C679 H701 0.950 1_556 S
C680 H676 0.949 . S
C680 C688 1.574 . S
C680 C696 1.368 1_655 S
H681 C689 0.950 . S
H682 C687 0.950 . S
H683 C688 0.949 . S
H684 C690 0.950 1_655 S
H685 C691 0.948 . S
H686 C692 0.949 . S
C687 H682 0.950 . S
C687 C689 1.327 . S
C687 C693 1.429 . S
C688 C680 1.574 . S
C688 H683 0.949 . S
C688 C694 1.368 1_655 S
C689 C673 1.349 . S
C689 H681 0.950 . S
C689 C687 1.327 . S
C690 C678 1.349 . S
C690 H684 0.950 1_455 S
C690 C691 1.327 1_455 S
C691 H685 0.948 . S
C691 C690 1.327 1_655 S
C691 C695 1.430 1_656 S
C692 C675 1.574 . S
C692 H686 0.949 . S
C692 C696 1.368 . S
C693 C674 1.429 1_455 S
C693 C687 1.429 . S
C693 C694 1.523 . S
C694 C675 1.368 . S
C694 C688 1.368 1_455 S
C694 C693 1.523 . S
C695 C679 1.429 1_554 S
C695 C691 1.430 1_454 S
C695 C696 1.523 . S
C696 C680 1.368 1_455 S
C696 C692 1.368 . S
C696 C695 1.523 . S
H697 C672 0.950 . S
H698 C674 0.950 . S
H699 C675 0.949 . S
H700 C677 0.950 . S
H701 C679 0.950 1_554 S
C702 C703 1.349 . S
C702 C704 1.327 . S
C702 H727 0.950 . S
C703 C702 1.349 . S
C703 C719 1.349 . S
C704 C702 1.327 . S
C704 C723 1.429 . S
C704 H728 0.950 . S
C705 C722 1.574 . S
C705 C724 1.368 . S
C705 H729 0.949 . S
H706 C710 0.949 . S
C707 C708 1.349 . S
C707 C709 1.327 . S
C707 H730 0.950 . S
C708 C707 1.349 . S
C708 C720 1.349 . S
C709 C707 1.327 . S
C709 C725 1.429 . S
C709 H731 0.950 . S
C710 H706 0.949 . S
C710 C718 1.574 . S
C710 C726 1.368 . S
H711 C719 0.950 1_565 S
H712 C717 0.948 1_565 S
H713 C718 0.949 . S
H714 C720 0.950 . S
H715 C721 0.950 . S
H716 C722 0.949 . S
C717 H712 0.948 1_545 S
C717 C719 1.327 . S
C717 C723 1.429 . S
C718 C710 1.574 . S
C718 H713 0.949 . S
C718 C724 1.368 . S
C719 C703 1.349 . S
C719 H711 0.950 1_545 S
C719 C717 1.327 . S
C720 C708 1.349 . S
C720 H714 0.950 . S
C720 C721 1.327 . S
C721 H715 0.950 . S
C721 C720 1.327 . S
C721 C725 1.429 . S
C722 C705 1.574 . S
C722 H716 0.949 . S
C722 C726 1.368 . S
C723 C704 1.429 . S
C723 C717 1.429 . S
C723 C724 1.523 . S
C724 C705 1.368 . S
C724 C718 1.368 . S
C724 C723 1.523 . S
C725 C709 1.429 . S
C725 C721 1.429 . S
C725 C726 1.523 . S
C726 C710 1.368 . S
C726 C722 1.368 . S
C726 C725 1.523 . S
H727 C702 0.950 . S
H728 C704 0.950 . S
H729 C705 0.949 . S
H730 C707 0.950 . S
H731 C709 0.950 . S
C732 C733 1.349 . S
C732 C734 1.327 . S
C732 H757 0.950 . S
C733 C732 1.349 . S
C733 C749 1.349 . S
C734 C732 1.327 . S
C734 C753 1.429 . S
C734 H758 0.950 . S
C735 C752 1.574 . S
C735 C754 1.368 . S
C735 H759 0.949 . S
H736 C740 0.949 . S
C737 C738 1.349 . S
C737 C739 1.327 . S
C737 H760 0.950 . S
C738 C737 1.349 . S
C738 C750 1.349 . S
C739 C737 1.327 . S
C739 C755 1.429 . S
C739 H761 0.950 . S
C740 H736 0.949 . S
C740 C748 1.574 . S
C740 C756 1.368 . S
H741 C749 0.950 . S
H742 C747 0.950 . S
H743 C748 0.949 . S
H744 C750 0.950 . S
H745 C751 0.950 . S
H746 C752 0.949 . S
C747 H742 0.950 . S
C747 C749 1.327 . S
C747 C753 1.429 . S
C748 C740 1.574 . S
C748 H743 0.949 . S
C748 C754 1.368 . S
C749 C733 1.349 . S
C749 H741 0.950 . S
C749 C747 1.327 . S
C750 C738 1.349 . S
C750 H744 0.950 . S
C750 C751 1.327 . S
C751 H745 0.950 . S
C751 C750 1.327 . S
C751 C755 1.429 . S
C752 C735 1.574 . S
C752 H746 0.949 . S
C752 C756 1.368 . S
C753 C734 1.429 . S
C753 C747 1.429 . S
C753 C754 1.523 . S
C754 C735 1.368 . S
C754 C748 1.368 . S
C754 C753 1.523 . S
C755 C739 1.429 . S
C755 C751 1.429 . S
C755 C756 1.523 . S
C756 C740 1.368 . S
C756 C752 1.368 . S
C756 C755 1.523 . S
H757 C732 0.950 . S
H758 C734 0.950 . S
H759 C735 0.949 . S
H760 C737 0.950 . S
H761 C739 0.950 . S
C762 C763 1.349 1_565 S
C762 C764 1.327 . S
C762 H787 0.950 . S
C763 C762 1.349 1_545 S
C763 C779 1.349 . S
C764 C762 1.327 . S
C764 C783 1.429 1_565 S
C764 H788 0.950 . S
C765 C782 1.574 . S
C765 C784 1.368 . S
C765 H789 0.949 . S
H766 C770 0.949 . S
C767 C768 1.349 . S
C767 C769 1.327 . S
C767 H790 0.950 . S
C768 C767 1.349 . S
C768 C780 1.349 1_545 S
C769 C767 1.327 . S
C769 C785 1.429 . S
C769 H791 0.950 . S
C770 H766 0.949 . S
C770 C778 1.574 . S
C770 C786 1.368 1_565 S
H771 C779 0.950 . S
H772 C777 0.950 . S
H773 C778 0.949 . S
H774 C780 0.950 . S
H775 C781 0.950 . S
H776 C782 0.949 . S
C777 H772 0.950 . S
C777 C779 1.327 . S
C777 C783 1.429 . S
C778 C770 1.574 . S
C778 H773 0.949 . S
C778 C784 1.368 1_565 S
C779 C763 1.349 . S
C779 H771 0.950 . S
C779 C777 1.327 . S
C780 C768 1.349 1_565 S
C780 H774 0.950 . S
C780 C781 1.327 . S
C781 H775 0.950 . S
C781 C780 1.327 . S
C781 C785 1.429 1_565 S
C782 C765 1.574 . S
C782 H776 0.949 . S
C782 C786 1.368 . S
C783 C764 1.429 1_545 S
C783 C777 1.429 . S
C783 C784 1.523 . S
C784 C765 1.368 . S
C784 C778 1.368 1_545 S
C784 C783 1.523 . S
C785 C769 1.429 . S
C785 C781 1.429 1_545 S
C785 C786 1.523 . S
C786 C770 1.368 1_545 S
C786 C782 1.368 . S
C786 C785 1.523 . S
H787 C762 0.950 . S
H788 C764 0.950 . S
H789 C765 0.949 . S
H790 C767 0.950 . S
H791 C769 0.950 . S
C792 C793 1.349 . S
C792 C794 1.327 . S
C792 H817 0.950 . S
C793 C792 1.349 . S
C793 C809 1.349 . S
C794 C792 1.327 . S
C794 C813 1.429 . S
C794 H818 0.950 . S
C795 C812 1.574 . S
C795 C814 1.368 . S
C795 H819 0.949 . S
H796 C800 0.949 . S
C797 C798 1.349 . S
C797 C799 1.327 . S
C797 H820 0.950 . S
C798 C797 1.349 . S
C798 C810 1.349 . S
C799 C797 1.327 . S
C799 C815 1.429 1_554 S
C799 H821 0.946 1_554 S
C800 H796 0.949 . S
C800 C808 1.574 . S
C800 C816 1.368 . S
H801 C809 0.950 . S
H802 C807 0.950 . S
H803 C808 0.949 . S
H804 C810 0.950 . S
H805 C811 0.950 1_556 S
H806 C812 0.949 . S
C807 H802 0.950 . S
C807 C809 1.327 . S
C807 C813 1.429 . S
C808 C800 1.574 . S
C808 H803 0.949 . S
C808 C814 1.368 . S
C809 C793 1.349 . S
C809 H801 0.950 . S
C809 C807 1.327 . S
C810 C798 1.349 . S
C810 H804 0.950 . S
C810 C811 1.327 . S
C811 H805 0.950 1_554 S
C811 C810 1.327 . S
C811 C815 1.429 1_554 S
C812 C795 1.574 . S
C812 H806 0.949 . S
C812 C816 1.368 . S
C813 C794 1.429 . S
C813 C807 1.429 . S
C813 C814 1.523 . S
C814 C795 1.368 . S
C814 C808 1.368 . S
C814 C813 1.523 . S
C815 C799 1.429 1_556 S
C815 C811 1.429 1_556 S
C815 C816 1.523 . S
C816 C800 1.368 . S
C816 C812 1.368 . S
C816 C815 1.523 . S
H817 C792 0.950 . S
H818 C794 0.950 . S
H819 C795 0.949 . S
H820 C797 0.950 . S
H821 C799 0.946 1_556 S
C822 C823 1.349 . S
C822 C824 1.331 . S
C822 H847 0.950 1_455 S
C823 C822 1.349 . S
C823 C839 1.349 . S
C824 C822 1.331 . S
C824 C843 1.442 . S
C824 H848 0.933 1_455 S
C825 C842 1.574 . S
C825 C844 1.368 . S
C825 H849 0.949 . S
H826 C830 0.949 . S
C827 C828 1.349 . S
C827 C829 1.327 . S
C827 H850 0.950 . S
C828 C827 1.349 . S
C828 C840 1.349 1_455 S
C829 C827 1.327 . S
C829 C845 1.429 . S
C829 H851 0.950 . S
C830 H826 0.949 . S
C830 C838 1.576 . S
C830 C846 1.368 1_655 S
H831 C839 0.950 . S
H832 C837 0.950 . S
H833 C838 0.958 . S
H834 C840 0.950 . S
H835 C841 0.950 . S
H836 C842 0.949 . S
C837 H832 0.950 . S
C837 C839 1.327 . S
C837 C843 1.429 . S
C838 C830 1.576 . S
C838 H833 0.958 . S
C838 C844 1.357 1_655 S
C839 C823 1.349 . S
C839 H831 0.950 . S
C839 C837 1.327 . S
C840 C828 1.349 1_655 S
C840 H834 0.950 . S
C840 C841 1.327 . S
C841 H835 0.950 . S
C841 C840 1.327 . S
C841 C845 1.429 1_655 S
C842 C825 1.574 . S
C842 H836 0.949 . S
C842 C846 1.368 . S
C843 C824 1.442 . S
C843 C837 1.429 . S
C843 C844 1.523 . S
C844 C825 1.368 . S
C844 C838 1.357 1_455 S
C844 C843 1.523 . S
C845 C829 1.429 . S
C845 C841 1.429 1_455 S
C845 C846 1.523 . S
C846 C830 1.368 1_455 S
C846 C842 1.368 . S
C846 C845 1.523 . S
H847 C822 0.950 1_655 S
H848 C824 0.933 1_655 S
H849 C825 0.949 . S
H850 C827 0.950 . S
H851 C829 0.950 . S
C313 C24 2.815 . S
C318 C303 2.748 . S
C343 C66 1.050 . S
C348 C239 1.047 . S
C373 C93 1.707 . S
C378 C271 1.667 . S
C403 C13 2.991 . S
C408 C297 2.947 . S
C438 C233 1.179 . S
C433 C57 1.201 . S
C468 C265 1.805 . S
C463 C104 1.860 . S
C493 C64 1.869 . S
C498 C175 1.818 . S
C523 C97 0.351 . S
C528 C207 0.330 . S
C553 C17 1.196 . S
C558 C137 1.194 . S
C588 C169 1.673 . S
C583 C53 1.697 . S
C618 C201 0.199 . S
C613 C106 0.320 . S
C643 C26 1.068 . S
C648 C143 1.062 . S
C678 C213 1.096 . S
C673 C2 1.091 . S
C703 C63 1.460 . S
C708 C149 1.469 . S
C733 C82 1.378 . S
C738 C181 1.377 . S
C768 C277 1.373 . S
C763 C42 1.388 . S
C798 C309 1.735 . S
C793 C103 1.722 . S
C823 C23 1.470 . S
C828 C245 1.466 . S
