# Generated by pormake.
# Topology zzz, (3,6)-cn, num edge types: 1
# Building blocks:
#     Node 0, Type 0, BuildingBlock: CUQRIR_clean_linker_1, # of connection points: 3
#     Node 1, Type 0, BuildingBlock: CUQRIR_clean_linker_1, # of connection points: 3
#     Node 2, Type 0, BuildingBlock: CUQRIR_clean_linker_1, # of connection points: 3
#     Node 3, Type 0, BuildingBlock: CUQRIR_clean_linker_1, # of connection points: 3
#     Node 4, Type 0, BuildingBlock: CUQRIR_clean_linker_1, # of connection points: 3
#     Node 5, Type 0, BuildingBlock: CUQRIR_clean_linker_1, # of connection points: 3
#     Node 6, Type 0, BuildingBlock: CUQRIR_clean_linker_1, # of connection points: 3
#     Node 7, Type 0, BuildingBlock: CUQRIR_clean_linker_1, # of connection points: 3
#     Node 8, Type 1, BuildingBlock: KUMJIN_clean_sbu_0, # of connection points: 6
#     Node 9, Type 1, BuildingBlock: KUMJIN_clean_sbu_0, # of connection points: 6
#     Node 10, Type 1, BuildingBlock: KUMJIN_clean_sbu_0, # of connection points: 6
#     Node 11, Type 1, BuildingBlock: KUMJIN_clean_sbu_0, # of connection points: 6
#     Edge 12, Type (0, 1), BuildingBlock: CIFDUS_clean_linker_0, # of connection points: 2
#     Edge 13, Type (0, 1), BuildingBlock: CIFDUS_clean_linker_0, # of connection points: 2
#     Edge 14, Type (0, 1), BuildingBlock: CIFDUS_clean_linker_0, # of connection points: 2
#     Edge 15, Type (0, 1), BuildingBlock: CIFDUS_clean_linker_0, # of connection points: 2
#     Edge 16, Type (0, 1), BuildingBlock: CIFDUS_clean_linker_0, # of connection points: 2
#     Edge 17, Type (0, 1), BuildingBlock: CIFDUS_clean_linker_0, # of connection points: 2
#     Edge 18, Type (0, 1), BuildingBlock: CIFDUS_clean_linker_0, # of connection points: 2
#     Edge 19, Type (0, 1), BuildingBlock: CIFDUS_clean_linker_0, # of connection points: 2
#     Edge 20, Type (0, 1), BuildingBlock: CIFDUS_clean_linker_0, # of connection points: 2
#     Edge 21, Type (0, 1), BuildingBlock: CIFDUS_clean_linker_0, # of connection points: 2
#     Edge 22, Type (0, 1), BuildingBlock: CIFDUS_clean_linker_0, # of connection points: 2
#     Edge 23, Type (0, 1), BuildingBlock: CIFDUS_clean_linker_0, # of connection points: 2
#     Edge 24, Type (0, 1), BuildingBlock: CIFDUS_clean_linker_0, # of connection points: 2
#     Edge 25, Type (0, 1), BuildingBlock: CIFDUS_clean_linker_0, # of connection points: 2
#     Edge 26, Type (0, 1), BuildingBlock: CIFDUS_clean_linker_0, # of connection points: 2
#     Edge 27, Type (0, 1), BuildingBlock: CIFDUS_clean_linker_0, # of connection points: 2
#     Edge 28, Type (0, 1), BuildingBlock: CIFDUS_clean_linker_0, # of connection points: 2
#     Edge 29, Type (0, 1), BuildingBlock: CIFDUS_clean_linker_0, # of connection points: 2
#     Edge 30, Type (0, 1), BuildingBlock: CIFDUS_clean_linker_0, # of connection points: 2
#     Edge 31, Type (0, 1), BuildingBlock: CIFDUS_clean_linker_0, # of connection points: 2
#     Edge 32, Type (0, 1), BuildingBlock: CIFDUS_clean_linker_0, # of connection points: 2
#     Edge 33, Type (0, 1), BuildingBlock: CIFDUS_clean_linker_0, # of connection points: 2
#     Edge 34, Type (0, 1), BuildingBlock: CIFDUS_clean_linker_0, # of connection points: 2
#     Edge 35, Type (0, 1), BuildingBlock: CIFDUS_clean_linker_0, # of connection points: 2
# Relax obj value: 0.239
# Max RMSD: 0.180
# Mean RMSD: 0.121
data_MOF--net-zzz--node1-KUMJIN_clean_sbu_0--node2-CUQRIR_clean_linker_1--edge1-CIFDUS_clean_linker_0
_symmetry_space_group_name_H-M    P1
_symmetry_Int_Tables_number       1
_symmetry_cell_setting            triclinic
loop_
_symmetry_equiv_pos_as_xyz
'x, y, z'
_cell_length_a     41.212264
_cell_length_b     41.147134
_cell_length_c     11.819987
_cell_angle_alpha  91.073221
_cell_angle_beta   89.720294
_cell_angle_gamma 90.019753
loop_
_atom_site_label
_atom_site_type_symbol
_atom_site_fract_x
_atom_site_fract_y
_atom_site_fract_z
_atom_type_partial_charge
C0 C 0.7416 0.54175 0.29346 0.0
N1 N 0.77364 0.55171 0.3023 0.0
N2 N 0.72543 0.55678 0.20608 0.0
C3 C 0.72616 0.51757 0.36978 0.0
C4 C 0.7492 0.57573 0.16226 0.0
N5 N 0.77763 0.57268 0.21879 0.0
C6 C 0.74479 0.5968 0.05996 0.0
H7 H 0.69959 0.52174 0.37591 0.0
H8 H 0.73725 0.51898 0.45512 0.0
H9 H 0.73035 0.49279 0.33406 0.0
H10 H 0.73256 0.61971 0.08644 0.0
H11 H 0.72934 0.58423 0.99611 0.0
H12 H 0.76801 0.60379 0.01983 0.0
C13 C 1.00149 0.7542 0.32347 0.0
N14 N 1.01274 0.7859 0.32791 0.0
N15 N 1.00679 0.73923 0.21883 0.0
C16 C 0.98826 0.7369 0.42388 0.0
C17 C 0.02259 0.76291 0.16258 0.0
N18 N 0.02732 0.79008 0.2282 0.0
C19 C 0.03474 0.75866 0.04279 0.0
H20 H 0.97318 0.71584 0.39662 0.0
H21 H 0.97381 0.75389 0.47798 0.0
H22 H 1.00881 0.72785 0.47479 0.0
H23 H 0.01572 0.74692 0.98988 0.0
H24 H 0.05612 0.74227 0.04149 0.0
H25 H 0.04146 0.78229 1.00552 0.0
C26 C 0.78705 1.00086 0.3306 0.0
N27 N 0.75932 0.01945 0.34905 0.0
N28 N 0.81068 0.01764 0.27293 0.0
C29 C 0.79106 0.9661 0.3628 0.0
C30 C 0.79664 0.04676 0.25812 0.0
N31 N 0.76585 0.04764 0.29943 0.0
C32 C 0.81144 0.07311 0.18716 0.0
H33 H 0.78391 0.96287 0.45252 0.0
H34 H 0.81639 0.95796 0.34908 0.0
H35 H 0.77552 0.95057 0.3078 0.0
H36 H 0.80668 0.06751 0.09653 0.0
H37 H 0.83809 0.07437 0.19897 0.0
H38 H 0.80081 0.0972 0.20886 0.0
C39 C 0.54471 0.79156 0.32948 0.0
N40 N 0.55506 0.7598 0.32671 0.0
N41 N 0.55424 0.80791 0.23424 0.0
C42 C 0.52452 0.8062 0.4228 0.0
C43 C 0.57004 0.78458 0.17348 0.0
N44 N 0.57044 0.75578 0.22773 0.0
C45 C 0.5823 0.78914 0.05462 0.0
H46 H 0.52291 0.83299 0.41506 0.0
H47 H 0.53501 0.79995 0.50592 0.0
H48 H 0.49976 0.79568 0.41879 0.0
H49 H 0.59501 0.81282 0.04828 0.0
H50 H 0.56136 0.78949 0.99595 0.0
H51 H 0.59908 0.7693 0.02818 0.0
C52 C 0.28158 0.50841 0.14531 0.0
N53 N 0.25074 0.49538 0.13808 0.0
N54 N 0.2998 0.49521 0.23192 0.0
C55 C 0.29388 0.53362 0.06593 0.0
C56 C 0.27812 0.47393 0.27691 0.0
N57 N 0.24912 0.47421 0.22186 0.0
C58 C 0.2843 0.45418 0.38118 0.0
H59 H 0.28211 0.53073 0.98207 0.0
H60 H 0.32061 0.53184 0.0558 0.0
H61 H 0.28761 0.5581 0.10045 0.0
H62 H 0.29675 0.46913 0.4469 0.0
H63 H 0.29985 0.43312 0.35784 0.0
H64 H 0.26189 0.44391 0.41808 0.0
C65 C 1.01093 0.28076 0.15574 0.0
N66 N 0.03079 0.25769 0.10422 0.0
N67 N 0.02776 0.3085 0.18965 0.0
C68 C 0.97541 0.27572 0.17563 0.0
C69 C 0.05794 0.30162 0.14926 0.0
N70 N 0.06059 0.2707 0.10676 0.0
C71 C 0.08482 0.32627 0.13901 0.0
H72 H 0.96917 0.24949 0.17128 0.0
H73 H 0.96161 0.28845 0.10938 0.0
H74 H 0.96819 0.28611 0.25933 0.0
H75 H 0.09948 0.32745 0.21723 0.0
H76 H 0.07467 0.35081 0.12421 0.0
H77 H 0.1013 0.31935 0.06799 0.0
C78 C 0.26865 1.00167 0.13297 0.0
N79 N 0.29258 0.02305 0.10203 0.0
N80 N 0.2403 0.01725 0.16263 0.0
C81 C 0.27345 0.96576 0.14271 0.0
C82 C 0.24824 0.04873 0.14468 0.0
N83 N 0.28069 0.05266 0.1255 0.0
C84 C 0.22563 0.07676 0.16988 0.0
H85 H 0.28848 0.95632 0.07122 0.0
H86 H 0.24979 0.95294 0.14465 0.0
H87 H 0.28634 0.96086 0.22277 0.0
H88 H 0.21603 0.0755 0.25755 0.0
H89 H 0.20464 0.07529 0.11162 0.0
H90 H 0.23804 0.10042 0.15815 0.0
C91 C 0.51957 0.25543 0.10902 0.0
N92 N 0.50256 0.28382 0.09635 0.0
N93 N 0.50368 0.23422 0.17884 0.0
C94 C 0.55244 0.2492 0.0587 0.0
C95 C 0.47685 0.25134 0.20959 0.0
N96 N 0.47655 0.28134 0.16322 0.0
C97 C 0.45299 0.24041 0.29822 0.0
H98 H 0.55455 0.26081 0.97499 0.0
H99 H 0.55711 0.2227 0.0501 0.0
H100 H 0.57107 0.26008 0.11533 0.0
H101 H 0.46591 0.23631 0.37889 0.0
H102 H 0.44185 0.21704 0.2711 0.0
H103 H 0.43326 0.25837 0.31256 0.0
Eu104 Eu 0.0499 1.00953 0.82822 0.0
C105 C 0.92522 0.99986 0.54263 0.0
C106 C 0.93336 0.9577 0.3999 0.0
C107 C 0.8798 0.9664 0.48124 0.0
C108 C 0.94591 0.98222 0.47265 0.0
C109 C 0.89175 0.9928 0.5451 0.0
C110 C 0.9004 0.94928 0.40691 0.0
C111 C 0.88387 0.0405 0.66413 0.0
N112 N 0.93758 0.0249 0.60467 0.0
C113 C 0.91728 0.04633 0.65996 0.0
C114 C 0.87112 1.01316 0.60864 0.0
Eu115 Eu 0.99496 0.03002 0.60789 0.0
N116 N 0.97808 0.98953 0.47335 0.0
C117 C 0.99837 0.97524 0.39494 0.0
C118 C 0.95427 0.94247 0.32207 0.0
C119 C 0.9868 0.95168 0.31844 0.0
H120 H 0.92703 0.06705 0.70565 0.0
H121 H 1.00309 0.94044 0.25718 0.0
H122 H 0.89053 0.9299 0.35411 0.0
H123 H 0.86805 0.05688 0.71118 0.0
H124 H 0.02356 0.98165 0.38891 0.0
H125 H 0.01928 0.03857 0.26983 0.0
H126 H 0.94551 0.92382 0.26392 0.0
H127 H 0.07569 0.06633 0.63047 0.0
H128 H 0.01614 1.00694 0.09392 0.0
H129 H 0.11128 0.11387 0.63284 0.0
H130 H 0.85447 0.95981 0.48625 0.0
H131 H 0.059 0.08341 0.28732 0.0
H132 H 0.10368 0.11595 0.20011 0.0
H133 H 0.84524 1.0086 0.61215 0.0
H134 H 0.1299 0.13553 0.02696 0.0
N135 N 0.04697 0.03887 1.00113 0.0
C136 C 0.03051 0.02885 0.09506 0.0
C137 C 0.05548 0.07145 0.2065 0.0
C138 C 0.07389 0.08026 0.11255 0.0
C139 C 0.03304 0.04619 0.19687 0.0
C140 C 0.06814 0.06421 0.00832 0.0
H141 H 0.1307 0.13688 0.81506 0.0
N142 N 0.07522 0.06106 0.80956 0.0
C143 C 0.1041 0.10285 0.71157 0.0
C144 C 0.08298 0.07531 0.91035 0.0
C145 C 0.08415 0.07539 0.7106 0.0
C146 C 0.11492 0.11581 0.81446 0.0
C147 C 0.10393 0.10241 0.91551 0.0
O148 O 0.10217 1.00188 0.85066 0.0
O149 O 0.02115 0.9879 0.68313 0.0
O150 O 0.96365 1.01088 0.75409 0.0
O151 O 0.99825 1.00369 0.90745 0.0
O152 O 0.04276 0.95494 0.78299 0.0
O153 O 0.06636 0.98018 0.96662 0.0
O154 O 0.97253 0.06183 0.48469 0.0
O155 O 0.01931 0.04993 0.76583 0.0
O156 O 0.08259 1.00661 0.67087 0.0
O157 O 0.04498 1.01441 0.52826 0.0
O158 O 0.98585 0.07959 0.70138 0.0
O159 O 0.02484 0.06036 0.50089 0.0
C160 C 0.02512 0.95697 0.6935 0.0
C161 C 0.12319 0.97067 0.00778 0.0
C162 C 0.13792 0.93652 0.16529 0.0
C163 C 0.11474 0.95358 0.10375 0.0
C164 C 0.17064 0.93803 0.13204 0.0
C165 C 0.15594 0.97259 0.97559 0.0
C166 C 0.17958 0.95642 0.03815 0.0
C167 C 0.96852 1.0048 0.86286 0.0
C168 C 0.09697 0.98496 0.94132 0.0
C169 C 0.1126 0.11573 0.02102 0.0
C170 C 0.09753 0.10473 0.11948 0.0
C171 C 1.00646 0.07826 0.78233 0.0
C172 C 1.00136 0.11176 0.47919 0.0
C173 C 0.03114 0.12767 0.4657 0.0
C174 C 0.03352 0.16132 0.48085 0.0
C175 C 1.00614 0.17899 0.51804 0.0
C176 C 0.97401 0.12978 0.5145 0.0
C177 C 0.97663 0.16316 0.53568 0.0
C178 C 0.0753 1.00811 0.5622 0.0
C179 C 0.99998 0.07624 0.46264 0.0
H180 H 0.08927 0.95157 0.12579 0.0
H181 H 0.18892 0.92438 0.17633 0.0
H182 H 0.16316 0.98599 0.9016 0.0
H183 H 0.20474 0.95753 0.01202 0.0
H184 H 0.05259 0.11406 0.44142 0.0
H185 H 1.00711 0.20518 0.52849 0.0
H186 H 0.95076 0.1181 0.52741 0.0
H187 H 0.95556 0.17693 0.56318 0.0
Eu188 Eu 0.53433 0.05128 0.81233 0.0
C189 C 0.56372 0.93307 0.52858 0.0
C190 C 0.60103 0.95467 0.39037 0.0
C191 C 0.60501 0.89807 0.44231 0.0
C192 C 0.57502 0.95902 0.4678 0.0
C193 C 0.57816 0.90207 0.51464 0.0
C194 C 0.6164 0.92433 0.38018 0.0
C195 C 0.53632 0.88024 0.63434 0.0
N196 N 0.53736 0.93759 0.59601 0.0
C197 C 0.5226 0.91121 0.64392 0.0
C198 C 0.56455 0.87572 0.57075 0.0
Eu199 Eu 0.5149 0.99133 0.61004 0.0
N200 N 0.55998 0.98822 0.48118 0.0
C201 C 0.56917 1.01363 0.4151 0.0
C202 C 0.61076 0.98089 0.32494 0.0
C203 C 0.59462 1.01046 0.33705 0.0
H204 H 0.50017 0.91421 0.69096 0.0
H205 H 0.60171 0.03088 0.28609 0.0
H206 H 0.63675 0.92077 0.3229 0.0
H207 H 0.52487 0.85981 0.67489 0.0
H208 H 0.55713 0.03662 0.42079 0.0
H209 H 0.52412 1.00911 0.25139 0.0
H210 H 0.63053 0.97851 0.2646 0.0
H211 H 0.48385 0.10309 0.67729 0.0
H212 H 0.55365 0.02372 0.07875 0.0
H213 H 0.43209 0.13023 0.70773 0.0
H214 H 0.61655 0.87456 0.43142 0.0
H215 H 0.46706 0.02585 0.27788 0.0
H216 H 0.42052 0.05819 0.21144 0.0
H217 H 0.57497 0.85162 0.56223 0.0
H218 H 0.39668 0.09388 0.06692 0.0
N219 N 0.51172 0.04293 0.99684 0.0
C220 C 0.52812 0.02958 0.08551 0.0
C221 C 0.47972 0.03151 0.20037 0.0
C222 C 0.46475 0.04978 0.11735 0.0
C223 C 0.51187 0.02208 0.18565 0.0
C224 C 0.4815 0.0552 0.01499 0.0
H225 H 0.40131 0.12173 0.88444 0.0
N226 N 0.48291 0.07716 0.83179 0.0
C227 C 0.44146 0.11413 0.77116 0.0
C228 C 0.46746 0.07404 0.93261 0.0
C229 C 0.47082 0.09788 0.75312 0.0
C230 C 0.42437 0.10956 0.87128 0.0
C231 C 0.43725 0.0893 0.95327 0.0
O232 O 0.54261 0.103 0.78826 0.0
O233 O 0.55606 0.02501 0.65965 0.0
O234 O 0.52612 0.96384 0.77267 0.0
O235 O 0.54758 1.00246 0.89535 0.0
O236 O 0.58541 0.02954 0.79764 0.0
O237 O 0.56211 0.08004 0.93528 0.0
O238 O 0.48529 0.95505 0.52001 0.0
O239 O 0.49059 0.02551 0.7385 0.0
O240 O 0.53626 0.07681 0.64085 0.0
O241 O 0.50679 0.04143 0.52742 0.0
O242 O 0.4765 0.97783 0.74289 0.0
O243 O 0.48233 1.00497 0.47483 0.0
C244 C 0.58488 0.01855 0.69408 0.0
C245 C 0.59077 0.12479 0.85905 0.0
C246 C 0.64924 0.12855 0.87412 0.0
C247 C 0.6206 0.11054 0.88193 0.0
C248 C 0.64824 0.16085 0.83869 0.0
C249 C 0.58975 0.15699 0.82169 0.0
C250 C 0.61848 0.17482 0.81053 0.0
C251 C 0.53943 0.97194 0.87046 0.0
C252 C 0.56068 0.10656 0.87682 0.0
C253 C 0.42034 0.08324 0.05339 0.0
C254 C 0.43379 0.06302 0.13454 0.0
C255 C 0.47092 1.006 0.78833 0.0
C256 C 0.43323 0.97615 0.49064 0.0
C257 C 0.41598 1.00539 0.50438 0.0
C258 C 0.38262 1.00539 0.52833 0.0
C259 C 0.36703 0.97525 0.54456 0.0
C260 C 0.4171 0.9465 0.50548 0.0
C261 C 0.38426 0.94616 0.5339 0.0
C262 C 0.51993 0.07056 0.54675 0.0
C263 C 0.4684 0.97675 0.46896 0.0
H264 H 0.62151 0.08583 0.91218 0.0
H265 H 0.67022 0.17524 0.83487 0.0
H266 H 0.56677 0.1684 0.80269 0.0
H267 H 0.61758 0.19974 0.78297 0.0
H268 H 0.42856 0.0283 0.49552 0.0
H269 H 0.34119 0.97377 0.56001 0.0
H270 H 0.42998 0.92364 0.4965 0.0
H271 H 0.37191 0.92322 0.54522 0.0
Eu272 Eu 0.54124 0.51349 0.60496 0.0
C273 C 0.41117 0.51449 0.80282 0.0
C274 C 0.38263 0.56005 0.72394 0.0
C275 C 0.35195 0.51427 0.7924 0.0
C276 C 0.41193 0.54491 0.75688 0.0
C277 C 0.38106 0.4984 0.81763 0.0
C278 C 0.35273 0.54518 0.74615 0.0
C279 C 0.41024 0.4515 0.87797 0.0
N280 N 0.43982 0.49983 0.82681 0.0
C281 C 0.4392 0.46882 0.8672 0.0
C282 C 0.38096 0.4665 0.85492 0.0
Eu283 Eu 0.48787 0.53363 0.82448 0.0
N284 N 0.44135 0.55785 0.73169 0.0
C285 C 0.44229 0.58265 0.65629 0.0
C286 C 0.38423 0.58864 0.66282 0.0
C287 C 0.41425 0.59937 0.62543 0.0
H288 H 0.46039 0.4571 0.89693 0.0
H289 H 0.41575 0.61932 0.56723 0.0
H290 H 0.33015 0.55669 0.7228 0.0
H291 H 0.41048 0.4268 0.90771 0.0
H292 H 0.46376 0.58768 0.60952 0.0
H293 H 0.61196 0.40913 0.75571 0.0
H294 H 0.36241 0.6009 0.63574 0.0
H295 H 0.57692 0.58002 0.4836 0.0
H296 H 0.56637 0.43587 0.66818 0.0
H297 H 0.62692 0.61181 0.49847 0.0
H298 H 0.32875 0.50245 0.80527 0.0
H299 H 0.66162 0.44002 0.8019 0.0
H300 H 0.69229 0.4921 0.79436 0.0
H301 H 0.35847 0.45323 0.86585 0.0
H302 H 0.69575 0.54831 0.72978 0.0
N303 N 0.58658 0.48388 0.67903 0.0
C304 C 0.58635 0.4509 0.69478 0.0
C305 C 0.64094 0.45244 0.7665 0.0
C306 C 0.64251 0.48535 0.74043 0.0
C307 C 0.61292 0.43503 0.7414 0.0
C308 C 0.61473 0.50057 0.69508 0.0
H309 H 0.67179 0.59294 0.61792 0.0
N310 N 0.59056 0.54523 0.60661 0.0
C311 C 0.62412 0.58995 0.5471 0.0
C312 C 0.61657 0.53233 0.65986 0.0
C313 C 0.59537 0.57202 0.54107 0.0
C314 C 0.64935 0.57923 0.61438 0.0
C315 C 0.64636 0.54941 0.66775 0.0
O316 O 0.55575 0.52071 0.42992 0.0
O317 O 0.48754 0.50981 0.65139 0.0
O318 O 0.50858 0.48203 0.85414 0.0
O319 O 0.51884 0.46545 0.67123 0.0
O320 O 0.49772 0.52976 0.49811 0.0
O321 O 0.55158 0.47206 0.49396 0.0
O322 O 0.48247 0.51546 0.99553 0.0
O323 O 0.54083 0.52013 0.79375 0.0
O324 O 0.53468 0.5698 0.6054 0.0
O325 O 0.50182 0.58483 0.75688 0.0
O326 O 0.53311 0.5631 0.8787 0.0
O327 O 0.46682 0.56381 0.96101 0.0
C328 C 0.47417 0.52042 0.5619 0.0
C329 C 0.53622 0.48089 0.30741 0.0
C330 C 0.48909 0.45375 0.22674 0.0
C331 C 0.50551 0.46673 0.32073 0.0
C332 C 0.5028 0.45824 0.11895 0.0
C333 C 0.54917 0.48553 0.19993 0.0
C334 C 0.53217 0.47462 0.10597 0.0
C335 C 0.51391 0.45818 0.77918 0.0
C336 C 0.55546 0.4899 0.4053 0.0
C337 C 0.67302 0.53526 0.72117 0.0
C338 C 0.67113 0.50321 0.75716 0.0
C339 C 0.55554 0.54263 0.84883 0.0
C340 C 0.48736 0.55435 0.14279 0.0
C341 C 0.52069 0.56108 0.14252 0.0
C342 C 0.53408 0.58181 0.22483 0.0
C343 C 0.51545 0.59026 0.3205 0.0
C344 C 0.46851 0.56418 0.23618 0.0
C345 C 0.48285 0.58142 0.32606 0.0
C346 C 0.52047 0.59279 0.66871 0.0
C347 C 0.47148 0.5424 0.03889 0.0
H348 H 0.4956 0.46376 0.40493 0.0
H349 H 0.49184 0.44749 0.04488 0.0
H350 H 0.5726 0.49707 0.18896 0.0
H351 H 0.5425 0.47774 0.02329 0.0
H352 H 0.5355 0.5538 0.07184 0.0
H353 H 0.52491 0.607 0.384 0.0
H354 H 0.4426 0.55985 0.2369 0.0
H355 H 0.4683 0.59048 0.39598 0.0
Eu356 Eu 0.02357 0.54411 0.61554 0.0
C357 C 1.00941 0.42109 0.76381 0.0
C358 C 0.95982 0.40053 0.67929 0.0
C359 C 1.00641 0.36499 0.69351 0.0
C360 C 0.97771 0.42629 0.73016 0.0
C361 C 0.02366 0.38996 0.74868 0.0
C362 C 0.97462 0.37032 0.65835 0.0
C363 C 0.07043 0.40942 0.84997 0.0
N364 N 0.02604 0.44595 0.81414 0.0
C365 C 0.05537 0.43964 0.8634 0.0
C366 C 0.05481 0.38463 0.79034 0.0
Eu367 Eu 0.9987 0.49731 0.832 0.0
N368 N 0.96384 0.4558 0.75166 0.0
C369 C 0.93081 0.45881 0.74017 0.0
C370 C 0.92717 0.40544 0.65415 0.0
C371 C 0.91241 0.43442 0.68757 0.0
H372 H 0.0672 0.45711 0.9173 0.0
H373 H 0.8866 0.43773 0.67564 0.0
H374 H 0.96135 0.35059 0.61791 0.0
H375 H 0.0939 0.40514 0.88766 0.0
H376 H 0.91767 0.47941 0.77418 0.0
H377 H 0.13592 0.60306 0.77357 0.0
H378 H 0.91274 0.38637 0.61475 0.0
H379 H 0.9555 0.58472 0.52948 0.0
H380 H 0.10476 0.5617 0.67387 0.0
H381 H 0.92937 0.63708 0.55654 0.0
H382 H 0.01727 0.34126 0.67939 0.0
H383 H 0.11002 0.65453 0.83453 0.0
H384 H 0.06175 0.69075 0.82963 0.0
H385 H 0.0665 0.36115 0.78035 0.0
H386 H 1.00623 0.70063 0.76509 0.0
N387 N 0.05866 0.58549 0.6962 0.0
C388 C 0.09167 0.58232 0.70803 0.0
C389 C 0.09553 0.63558 0.79475 0.0
C390 C 0.06298 0.64074 0.76874 0.0
C391 C 0.11015 0.60654 0.76126 0.0
C392 C 0.045 0.61512 0.71737 0.0
H393 H 0.95714 0.68111 0.66244 0.0
N394 N 0.99677 0.59582 0.63194 0.0
C395 C 0.95277 0.63268 0.59453 0.0
C396 C 1.0135 0.62059 0.68235 0.0
C397 C 0.96753 0.60227 0.5824 0.0
C398 C 0.96859 0.65749 0.65345 0.0
C399 C 0.99956 0.65191 0.69623 0.0
O400 O 0.01602 0.56134 0.44397 0.0
O401 O 0.0246 0.49047 0.6638 0.0
O402 O 0.05232 0.509 0.874 0.0
O403 O 0.06973 0.51941 0.69441 0.0
O404 O 1.00545 0.50121 0.50875 0.0
O405 O 0.06447 0.55134 0.50247 0.0
O406 O 1.00675 0.47935 1.0023 0.0
O407 O 0.99726 0.5509 0.78318 0.0
O408 O 0.96982 0.53287 0.57411 0.0
O409 O 0.95237 0.52194 0.75341 0.0
O410 O 0.017 0.54042 0.93735 0.0
O411 O 0.95818 0.4899 0.94683 0.0
C412 C 1.01288 0.47745 0.57271 0.0
C413 C 0.05241 0.53744 0.31554 0.0
C414 C 0.07579 0.48787 0.23428 0.0
C415 C 0.06142 0.50474 0.32579 0.0
C416 C 0.07641 0.50299 0.12858 0.0
C417 C 0.05367 0.55217 0.21084 0.0
C418 C 0.06547 0.53486 0.11759 0.0
C419 C 0.07662 0.51378 0.80268 0.0
C420 C 0.04625 0.55749 0.41604 0.0
C421 C 0.01687 0.67677 0.75182 0.0
C422 C 0.04842 0.67112 0.78879 0.0
C423 C 1.00893 0.56409 0.87392 0.0
C424 C 0.97107 0.50265 0.13394 0.0
C425 C 0.96391 0.53581 0.1255 0.0
C426 C 0.94989 0.55294 0.21682 0.0
C427 C 0.94768 0.53729 0.32129 0.0
C428 C 0.96842 0.48741 0.23755 0.0
C429 C 0.95699 0.50485 0.33117 0.0
C430 C 0.9455 0.52799 0.64532 0.0
C431 C 0.97666 0.48307 0.03198 0.0
H432 H 0.0612 0.49389 0.40839 0.0
H433 H 0.08844 0.49156 0.05717 0.0
H434 H 0.04717 0.57749 0.20312 0.0
H435 H 0.06839 0.5471 0.03863 0.0
H436 H 0.965 0.54704 0.0438 0.0
H437 H 0.9357 0.54896 0.39227 0.0
H438 H 0.97356 0.46172 0.24418 0.0
H439 H 0.95324 0.49247 0.40955 0.0
H440 H 0.17353 0.02615 0.14431 0.0
H441 H 0.22163 0.99865 0.30324 0.0
H442 H 0.19717 0.97862 0.5257 0.0
H443 H 0.14084 0.98945 0.58402 0.0
H444 H 0.07244 0.02159 0.3392 0.0
H445 H 0.11558 0.0273 0.19844 0.0
C446 C 0.17918 0.01578 0.2254 0.0
C447 C 0.21381 1.00662 0.25084 0.0
C448 C 0.15416 1.01127 0.30743 0.0
C449 C 0.21969 0.99092 0.36956 0.0
C450 C 0.19275 0.98877 0.44332 0.0
C451 C 0.13534 0.99755 0.49954 0.0
C452 C 0.10282 1.00654 0.47429 0.0
C453 C 0.16094 0.99915 0.41656 0.0
C454 C 0.09682 0.01597 0.36293 0.0
C455 C 0.12177 0.01897 0.28201 0.0
H456 H 0.4742 0.17479 0.1818 0.0
H457 H 0.55734 0.22679 0.30878 0.0
H458 H 0.57051 0.18107 0.43146 0.0
H459 H 0.55614 0.12718 0.5143 0.0
H460 H 0.47178 0.07638 0.3893 0.0
H461 H 0.46142 0.12013 0.25708 0.0
C462 C 0.4955 0.17596 0.23513 0.0
C463 C 0.51487 0.20452 0.23436 0.0
C464 C 0.50257 0.14955 0.30766 0.0
C465 C 0.54231 0.20522 0.30499 0.0
C466 C 0.54959 0.17906 0.3766 0.0
C467 C 0.53562 0.12545 0.45749 0.0
C468 C 0.51512 0.09763 0.46185 0.0
C469 C 0.52959 0.15123 0.38061 0.0
C470 C 0.48861 0.09654 0.387 0.0
C471 C 0.48246 0.1219 0.31141 0.0
H472 H 0.3479 0.45566 0.32504 0.0
H473 H 0.3272 0.55602 0.25382 0.0
H474 H 0.37821 0.57194 0.34359 0.0
H475 H 0.4284 0.55811 0.44818 0.0
H476 H 0.44415 0.45998 0.5534 0.0
H477 H 0.39499 0.4429 0.45093 0.0
C478 C 0.35349 0.48124 0.33144 0.0
C479 C 0.33218 0.50434 0.28013 0.0
C480 C 0.38226 0.49082 0.39206 0.0
C481 C 0.34235 0.53711 0.28738 0.0
C482 C 0.37167 0.54643 0.34139 0.0
C483 C 0.42116 0.53308 0.45136 0.0
C484 C 0.44087 0.51074 0.51152 0.0
C485 C 0.39177 0.52363 0.39512 0.0
C486 C 0.42999 0.47822 0.51092 0.0
C487 C 0.4017 0.46835 0.45091 0.0
H488 H 0.06317 0.34016 0.35794 0.0
H489 H 0.97157 0.34516 0.18459 0.0
H490 H 0.95845 0.39523 0.29152 0.0
H491 H 0.97345 0.4396 0.43131 0.0
H492 H 0.06782 0.43815 0.58523 0.0
H493 H 0.07945 0.386 0.48841 0.0
C494 C 0.04053 0.3523 0.34058 0.0
C495 C 0.01867 0.33785 0.25965 0.0
C496 C 0.03359 0.38239 0.39994 0.0
C497 C 0.98897 0.35435 0.24542 0.0
C498 C 0.98156 0.38358 0.30651 0.0
C499 C 0.9968 0.42823 0.44301 0.0
C500 C 0.01946 0.44352 0.51851 0.0
C501 C 1.00374 0.39816 0.38342 0.0
C502 C 0.04938 0.4274 0.53134 0.0
C503 C 0.05613 0.39736 0.47466 0.0
H504 H 0.82439 0.98924 0.06712 0.0
H505 H 0.86932 0.03086 0.36265 0.0
H506 H 0.92268 0.02804 0.26968 0.0
H507 H 0.9566 0.01871 0.09478 0.0
H508 H 0.91023 0.97974 0.79555 0.0
H509 H 0.85865 0.97689 0.89666 0.0
C510 C 0.84604 0.99648 0.11273 0.0
C511 C 0.84265 1.00846 0.22565 0.0
C512 C 0.87684 0.99607 0.05575 0.0
C513 C 0.87112 0.01965 0.27937 0.0
C514 C 0.90172 0.0187 0.22461 0.0
C515 C 0.93547 1.00891 0.052 0.0
C516 C 0.93809 0.99953 0.9356 0.0
C517 C 0.90503 1.00749 0.11163 0.0
C518 C 0.90961 0.98753 0.88352 0.0
C519 C 0.87976 0.98576 0.94197 0.0
H520 H 0.5889 0.8645 0.21953 0.0
H521 H 0.49763 0.8206 0.13095 0.0
H522 H 0.48485 0.86682 0.01049 0.0
H523 H 0.50127 0.91838 0.91793 0.0
H524 H 0.59081 0.96464 0.01658 0.0
H525 H 0.60263 0.9195 0.14251 0.0
C526 C 0.5657 0.86564 0.17716 0.0
C527 C 0.54383 0.8391 0.18766 0.0
C528 C 0.55847 0.89272 0.10721 0.0
C529 C 0.51444 0.84079 0.12794 0.0
C530 C 0.50736 0.86717 0.05744 0.0
C531 C 0.5233 0.91881 0.9677 0.0
C532 C 0.54531 0.94515 0.95527 0.0
C533 C 0.52942 0.89306 0.04431 0.0
C534 C 0.57337 0.94505 0.0229 0.0
C535 C 0.58011 0.91908 0.09586 0.0
H536 H 0.68665 0.50529 0.12464 0.0
H537 H 0.68564 0.60857 0.19063 0.0
H538 H 0.637 0.61401 0.0761 0.0
H539 H 0.59345 0.59033 0.95462 0.0
H540 H 0.58781 0.48647 0.91461 0.0
H541 H 0.63764 0.48045 0.0244 0.0
C542 C 0.67525 0.52887 0.11782 0.0
C543 C 0.6912 0.55669 0.1661 0.0
C544 C 0.64517 0.53185 0.05609 0.0
C545 C 0.6751 0.58675 0.15386 0.0
C546 C 0.64679 0.58993 0.0883 0.0
C547 C 0.60304 0.56626 0.96918 0.0
C548 C 0.58684 0.53899 0.91946 0.0
C549 C 0.63155 0.56282 0.03764 0.0
C550 C 0.5997 0.50823 0.94595 0.0
C551 C 0.62846 0.5047 0.01045 0.0
H552 H 0.96361 0.70541 0.07919 0.0
H553 H 0.05311 0.69482 0.26067 0.0
H554 H 0.06241 0.64202 0.16631 0.0
H555 H 0.04735 0.59972 0.02201 0.0
H556 H 0.95514 0.60563 0.85556 0.0
H557 H 0.94506 0.65859 0.95025 0.0
C558 C 0.98463 0.69111 0.10119 0.0
C559 C 1.00721 0.70449 0.18151 0.0
C560 C 0.98979 0.65984 0.04601 0.0
C561 C 0.03477 0.68538 0.20362 0.0
C562 C 0.04032 0.65512 0.14778 0.0
C563 C 0.02464 0.61205 0.00785 0.0
C564 C 1.00244 0.59803 0.92844 0.0
C565 C 0.01834 0.64215 0.06748 0.0
C566 C 0.97337 0.61547 0.91227 0.0
C567 C 0.96744 0.64593 0.96806 0.0
H568 H 0.09979 0.27669 0.29192 0.0
H569 H 0.08877 0.21865 0.99005 0.0
H570 H 0.08571 0.17014 0.10201 0.0
H571 H 0.06289 0.15054 0.28063 0.0
H572 H 0.06732 0.21144 0.58095 0.0
H573 H 0.09717 0.25253 0.47633 0.0
C574 C 0.09876 0.25325 0.24917 0.0
C575 C 0.08845 0.25107 0.13547 0.0
C576 C 0.09508 0.22593 0.31642 0.0
C577 C 0.09234 0.22089 0.08044 0.0
C578 C 0.09074 0.19286 0.14502 0.0
C579 C 0.07226 0.1718 0.32511 0.0
C580 C 0.06219 0.17859 0.43698 0.0
C581 C 0.08796 0.19581 0.2632 0.0
C582 C 0.07409 0.20633 0.49374 0.0
C583 C 0.09118 0.22974 0.43393 0.0
H584 H 0.26582 0.06257 0.347 0.0
H585 H 0.33578 0.08913 0.0923 0.0
H586 H 0.37751 0.09269 0.24119 0.0
H587 H 0.39561 0.05779 0.39407 0.0
H588 H 0.3255 0.02346 0.63697 0.0
H589 H 0.28267 0.05175 0.53782 0.0
C590 C 0.28989 0.0703 0.32225 0.0
C591 C 0.29827 0.07283 0.20621 0.0
C592 C 0.31427 0.06779 0.40269 0.0
C593 C 0.32919 0.08465 0.17931 0.0
C594 C 0.35313 0.08577 0.26292 0.0
C595 C 0.37138 0.05747 0.42948 0.0
C596 C 0.36314 0.03564 0.51579 0.0
C597 C 0.34665 0.07245 0.36889 0.0
C598 C 0.33198 0.03782 0.56439 0.0
C599 C 0.30745 0.05413 0.50793 0.0
H600 H 0.43628 0.3259 0.07588 0.0
H601 H 0.48713 0.29949 0.37771 0.0
H602 H 0.48274 0.35474 0.45209 0.0
H603 H 0.48267 0.4108 0.3982 0.0
H604 H 0.43656 0.43978 0.09029 0.0
H605 H 0.42007 0.38349 0.05167 0.0
C606 C 0.44525 0.33227 0.15942 0.0
C607 C 0.46282 0.30929 0.22002 0.0
C608 C 0.44435 0.36464 0.19862 0.0
C609 C 0.47371 0.3171 0.32961 0.0
C610 C 0.4715 0.34876 0.37159 0.0
C611 C 0.46764 0.40548 0.32523 0.0
C612 C 0.46339 0.42875 0.24108 0.0
C613 C 0.45954 0.3731 0.30218 0.0
C614 C 0.44219 0.42146 0.15134 0.0
C615 C 0.43288 0.38933 0.12926 0.0
H616 H 0.20631 0.43229 0.12818 0.0
H617 H 0.2245 0.49265 0.42233 0.0
H618 H 0.16829 0.48723 0.48264 0.0
H619 H 0.11379 0.48165 0.41903 0.0
H620 H 0.0928 0.43458 0.09848 0.0
H621 H 0.14942 0.41741 0.08161 0.0
C622 C 0.19775 0.44378 0.2059 0.0
C623 C 0.21896 0.46344 0.26957 0.0
C624 C 0.16464 0.4433 0.23373 0.0
C625 C 0.20836 0.47744 0.37234 0.0
C626 C 0.17621 0.47454 0.40616 0.0
C627 C 0.12088 0.46646 0.34724 0.0
C628 C 0.09962 0.46155 0.2558 0.0
C629 C 0.1538 0.45983 0.33284 0.0
C630 C 0.10923 0.44023 0.16729 0.0
C631 C 0.14174 0.43079 0.15692 0.0
H632 H 0.02433 0.85499 0.2626 0.0
H633 H 0.08911 0.77733 0.16234 0.0
H634 H 0.13419 0.81568 0.15431 0.0
H635 H 0.1535 0.87252 0.16802 0.0
H636 H 0.09279 0.9442 0.33442 0.0
H637 H 0.04835 0.90533 0.34258 0.0
C638 C 0.04844 0.8461 0.24316 0.0
C639 C 0.05301 0.81341 0.21152 0.0
C640 C 0.07511 0.86673 0.25698 0.0
C641 C 0.08445 0.80265 0.18225 0.0
C642 C 0.1105 0.82429 0.18145 0.0
C643 C 0.1313 0.87914 0.21241 0.0
C644 C 0.12535 0.91173 0.24274 0.0
C645 C 0.10607 0.85643 0.21915 0.0
C646 C 0.09725 0.91942 0.30603 0.0
C647 C 0.07147 0.89755 0.30751 0.0
H648 H 0.73848 0.03012 0.1082 0.0
H649 H 0.7445 0.1079 0.35465 0.0
H650 H 0.71202 0.14305 0.23297 0.0
H651 H 0.68121 0.15036 0.05687 0.0
H652 H 0.67951 0.07334 0.8047 0.0
H653 H 0.71306 0.03935 0.92479 0.0
C654 C 0.73182 0.05456 0.13544 0.0
C655 C 0.74205 0.0662 0.24133 0.0
C656 C 0.71548 0.07493 0.06208 0.0
C657 C 0.73526 0.0983 0.27521 0.0
C658 C 0.71747 0.11843 0.2048 0.0
C659 C 0.68937 0.12665 0.02681 0.0
C660 C 0.67836 0.11422 0.92265 0.0
C661 C 0.7077 0.10702 0.09762 0.0
C662 C 0.68831 0.08329 0.88439 0.0
C663 C 0.70681 0.06372 0.95378 0.0
H664 H 0.61316 0.70696 0.26558 0.0
H665 H 0.53333 0.73525 0.05601 0.0
H666 H 0.52436 0.67876 0.99902 0.0
H667 H 0.52688 0.62298 0.05857 0.0
H668 H 0.59501 0.59458 0.31245 0.0
H669 H 0.62001 0.64875 0.30964 0.0
C670 C 0.59356 0.70054 0.209 0.0
C671 C 0.57269 0.72476 0.1701 0.0
C672 C 0.58587 0.66778 0.18853 0.0
C673 C 0.54929 0.71675 0.0884 0.0
C674 C 0.54392 0.68446 0.05709 0.0
C675 C 0.54817 0.62821 0.10958 0.0
C676 C 0.55855 0.60556 0.18884 0.0
C677 C 0.56028 0.65983 0.11369 0.0
C678 C 0.58591 0.6124 0.25492 0.0
C679 C 0.60012 0.64326 0.25277 0.0
H680 H 0.82145 0.61224 0.31845 0.0
H681 H 0.80295 0.55364 0.02035 0.0
H682 H 0.85955 0.55795 0.96286 0.0
H683 H 0.91383 0.56221 0.0287 0.0
H684 H 0.93469 0.60663 0.3535 0.0
H685 H 0.8785 0.62533 0.36887 0.0
C686 C 0.83008 0.60075 0.24084 0.0
C687 C 0.80871 0.58194 0.17497 0.0
C688 C 0.86326 0.60058 0.21454 0.0
C689 C 0.81934 0.56808 0.07209 0.0
C690 C 0.85164 0.57043 0.03976 0.0
C691 C 0.90686 0.57708 0.1014 0.0
C692 C 0.9277 0.5806 0.19468 0.0
C693 C 0.87408 0.58434 0.11483 0.0
C694 C 0.91839 0.60183 0.28372 0.0
C695 C 0.88614 0.61214 0.29312 0.0
H696 H 1.0129 0.19435 0.17183 0.0
H697 H 0.0322 0.25124 0.87695 0.0
H698 H 0.02923 0.20216 0.75699 0.0
H699 H 0.0227 0.14197 0.73109 0.0
H700 H 0.99848 0.0846 0.01893 0.0
H701 H 1.00293 0.13313 0.14285 0.0
C702 C 0.01571 0.1963 0.08107 0.0
C703 C 0.02236 0.22784 0.0351 0.0
C704 C 0.0143 0.16696 0.01006 0.0
C705 C 0.02652 0.22838 0.9164 0.0
C706 C 0.02523 0.19984 0.8471 0.0
C707 C 0.01888 0.13971 0.82128 0.0
C708 C 1.01267 0.10792 0.86433 0.0
C709 C 0.0196 0.16877 0.89222 0.0
C710 C 1.00601 0.1072 0.98186 0.0
C711 C 1.00769 0.13565 0.05323 0.0
H712 H 0.32285 0.04741 0.91382 0.0
H713 H 0.33987 0.9846 0.19445 0.0
H714 H 0.39505 0.97374 0.12426 0.0
H715 H 0.43982 0.98159 0.98064 0.0
H716 H 0.4231 0.04574 0.70364 0.0
H717 H 0.36786 0.05615 0.77312 0.0
C718 C 0.33852 0.03117 0.95963 0.0
C719 C 0.32606 0.01636 0.05928 0.0
C720 C 0.37094 0.02511 0.91844 0.0
C721 C 0.34758 0.99573 0.11664 0.0
C722 C 0.3796 0.98968 0.07641 0.0
C723 C 0.42419 0.998 0.93537 0.0
C724 C 0.43679 1.01344 0.83699 0.0
C725 C 0.39174 1.00405 0.97692 0.0
C726 C 0.41514 0.0339 0.77982 0.0
C727 C 0.38311 0.03974 0.8197 0.0
H728 H 0.47552 0.31129 0.90933 0.0
H729 H 0.55001 0.32659 0.15805 0.0
H730 H 0.56134 0.38061 0.08086 0.0
H731 H 0.54902 0.42504 0.9447 0.0
H732 H 0.47367 0.41002 0.69836 0.0
H733 H 0.46456 0.35501 0.76881 0.0
C734 C 0.49468 0.32618 0.94536 0.0
C735 C 0.51228 0.31409 0.03918 0.0
C736 C 0.5009 0.35776 0.90037 0.0
C737 C 0.53654 0.33446 0.0851 0.0
C738 C 0.54281 0.36568 0.0411 0.0
C739 C 0.53036 0.40995 0.90683 0.0
C740 C 0.51161 0.42267 0.81669 0.0
C741 C 0.52499 0.37789 0.94923 0.0
C742 C 0.48854 0.40156 0.76716 0.0
C743 C 0.48314 0.3699 0.80838 0.0
H744 H 0.21869 0.4631 0.96229 0.0
H745 H 0.21531 0.551 0.1646 0.0
H746 H 0.16331 0.56549 0.07739 0.0
H747 H 0.11654 0.5525 0.94748 0.0
H748 H 0.11862 0.46323 0.75182 0.0
H749 H 0.17218 0.45058 0.82966 0.0
C750 C 0.20685 0.48566 0.98679 0.0
C751 C 0.22202 0.50602 0.07099 0.0
C752 C 0.17593 0.49362 0.937 0.0
C753 C 0.20535 0.53498 0.09992 0.0
C754 C 0.17511 0.54313 0.05018 0.0
C755 C 0.12833 0.53003 0.92215 0.0
C756 C 0.11209 0.50863 0.84364 0.0
C757 C 0.15971 0.52255 0.96938 0.0
C758 C 0.12948 0.48037 0.81109 0.0
C759 C 0.16046 0.47299 0.85661 0.0
H760 H 0.96833 0.83336 0.39943 0.0
H761 H 0.06396 0.79668 0.46677 0.0
H762 H 0.07656 0.84629 0.57587 0.0
H763 H 0.06267 0.90294 0.64089 0.0
H764 H 0.96489 0.93645 0.60626 0.0
H765 H 0.95126 0.88695 0.49574 0.0
C766 C 0.99151 0.83547 0.44167 0.0
C767 C 0.015 0.81001 0.4239 0.0
C768 C 0.99885 0.86489 0.50612 0.0
C769 C 0.04501 0.81463 0.47924 0.0
C770 C 0.05249 0.84366 0.5405 0.0
C771 C 0.03837 0.89988 0.60774 0.0
C772 C 0.0158 0.92619 0.62221 0.0
C773 C 0.03005 0.86952 0.55201 0.0
C774 C 0.98399 0.91948 0.58508 0.0
C775 C 0.97593 0.89014 0.52516 0.0
H776 H 0.71715 0.06331 0.45217 0.0
H777 H 0.72786 0.96012 0.39195 0.0
H778 H 0.6782 0.95069 0.49768 0.0
H779 H 0.62947 0.97152 0.60901 0.0
H780 H 0.61331 0.07486 0.62794 0.0
H781 H 0.66562 0.08411 0.5348 0.0
C782 C 0.70853 0.03864 0.45684 0.0
C783 C 0.72816 1.0128 0.41092 0.0
C784 C 0.67783 0.03324 0.51119 0.0
C785 C 0.71561 0.9811 0.42686 0.0
C786 C 0.6862 0.97553 0.48696 0.0
C787 C 0.63677 0.99608 0.58953 0.0
C788 C 0.61608 0.02241 0.62347 0.0
C789 C 0.66682 1.00136 0.52962 0.0
C790 C 0.62758 0.05395 0.60119 0.0
C791 C 0.65787 0.05929 0.54788 0.0
H792 H 0.50023 0.72965 0.41719 0.0
H793 H 0.60433 0.73164 0.43763 0.0
H794 H 0.60406 0.67985 0.53675 0.0
H795 H 0.57413 0.63157 0.6102 0.0
H796 H 0.47071 0.63923 0.64675 0.0
H797 H 0.47063 0.68849 0.53763 0.0
C798 C 0.52286 0.71923 0.4453 0.0
C799 C 0.5526 0.73412 0.4128 0.0
C800 C 0.52251 0.69016 0.51142 0.0
C801 C 0.58124 0.72024 0.45539 0.0
C802 C 0.58109 0.69048 0.51304 0.0
C803 C 0.55144 0.64349 0.59294 0.0
C804 C 0.522 0.62833 0.62731 0.0
C805 C 0.55186 0.67452 0.53916 0.0
C806 C 0.49355 0.64707 0.61287 0.0
C807 C 0.49354 0.67635 0.55175 0.0
H808 H 0.80514 0.58226 0.48255 0.0
H809 H 0.80694 0.49469 0.2784 0.0
H810 H 0.85805 0.47853 0.36826 0.0
H811 H 0.9048 0.49015 0.50004 0.0
H812 H 0.90448 0.57929 0.69654 0.0
H813 H 0.85141 0.59329 0.6176 0.0
C814 C 0.81633 0.55932 0.45863 0.0
C815 C 0.80094 0.53957 0.37317 0.0
C816 C 0.84684 0.55045 0.50965 0.0
C817 C 0.81695 0.51022 0.3444 0.0
C818 C 0.84674 0.50112 0.39554 0.0
C819 C 0.89349 0.51285 0.52542 0.0
C820 C 0.91009 0.53379 0.60454 0.0
C821 C 0.8624 0.52116 0.47738 0.0
C822 C 0.89332 0.56244 0.63696 0.0
C823 C 0.86262 0.5706 0.59077 0.0
loop_
_geom_bond_atom_site_label_1
_geom_bond_atom_site_label_2
_geom_bond_distance
_geom_bond_site_symmetry_2
_ccdc_geom_bond_type
C0 N1 1.317 . S
C0 N2 1.348 . S
C0 C3 1.485 . S
N1 C0 1.317 . S
N1 N5 1.370 . S
N2 C0 1.348 . S
N2 C4 1.346 . S
C3 C0 1.485 . S
C3 H7 0.960 . S
C3 H8 0.961 . S
C3 H9 0.960 . S
C4 N2 1.346 . S
C4 N5 1.307 . S
C4 C6 1.486 . S
N5 N1 1.370 . S
N5 C4 1.307 . S
C6 C4 1.486 . S
C6 H10 0.960 . S
C6 H11 0.960 . S
C6 H12 0.959 . S
H7 C3 0.960 . S
H8 C3 0.961 . S
H9 C3 0.960 . S
H10 C6 0.960 . S
H11 C6 0.960 . S
H12 C6 0.959 . S
C13 N14 1.317 . S
C13 N15 1.348 . S
C13 C16 1.485 . S
N14 C13 1.317 . S
N14 N18 1.370 . S
N15 C13 1.348 . S
N15 C17 1.346 . S
C16 C13 1.485 . S
C16 H20 0.960 . S
C16 H21 0.961 . S
C16 H22 0.960 . S
C17 N15 1.346 . S
C17 N18 1.307 . S
C17 C19 1.486 . S
N18 N14 1.370 . S
N18 C17 1.307 . S
C19 C17 1.486 . S
C19 H23 0.960 . S
C19 H24 0.960 . S
C19 H25 0.959 . S
H20 C16 0.960 . S
H21 C16 0.961 . S
H22 C16 0.960 . S
H23 C19 0.960 . S
H24 C19 0.960 . S
H25 C19 0.959 . S
C26 N27 1.317 . S
C26 N28 1.348 . S
C26 C29 1.485 . S
N27 C26 1.317 . S
N27 N31 1.370 . S
N28 C26 1.348 . S
N28 C30 1.346 . S
C29 C26 1.485 . S
C29 H33 0.960 . S
C29 H34 0.961 . S
C29 H35 0.960 . S
C30 N28 1.346 . S
C30 N31 1.307 . S
C30 C32 1.486 . S
N31 N27 1.370 . S
N31 C30 1.307 . S
C32 C30 1.486 . S
C32 H36 0.960 . S
C32 H37 0.960 . S
C32 H38 0.959 . S
H33 C29 0.960 . S
H34 C29 0.961 . S
H35 C29 0.960 . S
H36 C32 0.960 . S
H37 C32 0.960 . S
H38 C32 0.959 . S
C39 N40 1.317 . S
C39 N41 1.348 . S
C39 C42 1.485 . S
N40 C39 1.317 . S
N40 N44 1.370 . S
N41 C39 1.348 . S
N41 C43 1.346 . S
C42 C39 1.485 . S
C42 H46 0.960 . S
C42 H47 0.961 . S
C42 H48 0.960 . S
C43 N41 1.346 . S
C43 N44 1.307 . S
C43 C45 1.486 . S
N44 N40 1.370 . S
N44 C43 1.307 . S
C45 C43 1.486 . S
C45 H49 0.960 . S
C45 H50 0.960 . S
C45 H51 0.959 . S
H46 C42 0.960 . S
H47 C42 0.961 . S
H48 C42 0.960 . S
H49 C45 0.960 . S
H50 C45 0.960 . S
H51 C45 0.959 . S
C52 N53 1.317 . S
C52 N54 1.348 1_556 S
C52 C55 1.485 . S
N53 C52 1.317 . S
N53 N57 1.370 1_556 S
N54 C52 1.348 1_554 S
N54 C56 1.346 . S
C55 C52 1.485 . S
C55 H59 0.960 . S
C55 H60 0.961 . S
C55 H61 0.960 . S
C56 N54 1.346 . S
C56 N57 1.307 . S
C56 C58 1.486 . S
N57 N53 1.370 1_554 S
N57 C56 1.307 . S
C58 C56 1.486 . S
C58 H62 0.960 . S
C58 H63 0.960 . S
C58 H64 0.959 . S
H59 C55 0.960 . S
H60 C55 0.961 . S
H61 C55 0.960 . S
H62 C58 0.960 . S
H63 C58 0.960 . S
H64 C58 0.959 . S
C65 N66 1.317 . S
C65 N67 1.348 1_556 S
C65 C68 1.485 . S
N66 C65 1.317 . S
N66 N70 1.370 1_556 S
N67 C65 1.348 1_554 S
N67 C69 1.346 . S
C68 C65 1.485 . S
C68 H72 0.960 . S
C68 H73 0.961 . S
C68 H74 0.960 . S
C69 N67 1.346 . S
C69 N70 1.307 . S
C69 C71 1.486 . S
N70 N66 1.370 1_554 S
N70 C69 1.307 . S
C71 C69 1.486 . S
C71 H75 0.960 . S
C71 H76 0.960 . S
C71 H77 0.959 . S
H72 C68 0.960 . S
H73 C68 0.961 . S
H74 C68 0.960 . S
H75 C71 0.960 . S
H76 C71 0.960 . S
H77 C71 0.959 . S
C78 N79 1.317 . S
C78 N80 1.348 1_556 S
C78 C81 1.485 . S
N79 C78 1.317 . S
N79 N83 1.370 1_556 S
N80 C78 1.348 1_554 S
N80 C82 1.346 . S
C81 C78 1.485 . S
C81 H85 0.960 . S
C81 H86 0.961 . S
C81 H87 0.960 . S
C82 N80 1.346 . S
C82 N83 1.307 . S
C82 C84 1.486 . S
N83 N79 1.370 1_554 S
N83 C82 1.307 . S
C84 C82 1.486 . S
C84 H88 0.960 . S
C84 H89 0.960 . S
C84 H90 0.959 . S
H85 C81 0.960 . S
H86 C81 0.961 . S
H87 C81 0.960 . S
H88 C84 0.960 . S
H89 C84 0.960 . S
H90 C84 0.959 . S
C91 N92 1.317 . S
C91 N93 1.348 1_556 S
C91 C94 1.485 . S
N92 C91 1.317 . S
N92 N96 1.370 1_556 S
N93 C91 1.348 1_554 S
N93 C95 1.346 . S
C94 C91 1.485 . S
C94 H98 0.960 . S
C94 H99 0.961 . S
C94 H100 0.960 . S
C95 N93 1.346 . S
C95 N96 1.307 . S
C95 C97 1.486 . S
N96 N92 1.370 1_554 S
N96 C95 1.307 . S
C97 C95 1.486 . S
C97 H101 0.960 . S
C97 H102 0.960 . S
C97 H103 0.959 . S
H98 C94 0.960 . S
H99 C94 0.961 . S
H100 C94 0.960 . S
H101 C97 0.960 . S
H102 C97 0.960 . S
H103 C97 0.959 . S
Eu104 N135 2.657 1_566 S
Eu104 N142 2.609 1_565 S
Eu104 O148 2.558 . S
Eu104 O149 2.612 1_455 S
Eu104 O151 2.339 1_455 S
Eu104 O152 2.563 . S
Eu104 O153 2.419 . S
Eu104 O155 2.380 1_565 S
Eu104 O156 2.432 . S
Eu104 C168 2.848 . S
C105 C108 1.429 . S
C105 C109 1.411 . S
C105 N112 1.377 1_565 S
C106 C108 1.420 . S
C106 C110 1.423 . S
C106 C118 1.392 . S
C107 C109 1.420 . S
C107 C110 1.351 . S
C107 H130 0.931 . S
C108 C105 1.429 . S
C108 C106 1.420 . S
C108 N116 1.362 . S
C109 C105 1.411 . S
C109 C107 1.420 . S
C109 C114 1.395 1_565 S
C110 C106 1.423 . S
C110 C107 1.351 . S
C110 H122 0.930 . S
C111 C113 1.400 . S
C111 C114 1.386 . S
C111 H123 0.930 . S
N112 C105 1.377 1_545 S
N112 C113 1.321 . S
N112 Eu115 2.609 . S
C113 C111 1.400 . S
C113 N112 1.321 . S
C113 H120 0.930 . S
C114 C109 1.395 1_545 S
C114 C111 1.386 . S
C114 H133 0.930 . S
Eu115 N112 2.609 . S
Eu115 N116 2.657 1_545 S
Eu115 O149 2.380 1_545 S
Eu115 O150 2.432 . S
Eu115 O154 2.558 . S
Eu115 O155 2.612 1_655 S
Eu115 O157 2.339 1_655 S
Eu115 O158 2.563 1_655 S
Eu115 O159 2.419 . S
Eu115 C179 2.848 . S
N116 C108 1.362 . S
N116 Eu115 2.657 1_565 S
N116 C117 1.334 1_655 S
C117 N116 1.334 1_455 S
C117 C119 1.413 . S
C117 H124 0.929 . S
C118 C106 1.392 . S
C118 C119 1.367 1_655 S
C118 H126 0.930 . S
C119 C117 1.413 . S
C119 C118 1.367 1_455 S
C119 H121 0.930 . S
H120 C113 0.930 . S
H121 C119 0.930 . S
H122 C110 0.930 . S
H123 C111 0.930 . S
H124 C117 0.929 . S
H125 C139 0.930 1_655 S
H126 C118 0.930 . S
H127 C145 0.930 . S
H128 C136 0.929 1_655 S
H129 C143 0.930 . S
H130 C107 0.931 . S
H131 C137 0.930 . S
H132 C170 0.930 . S
H133 C114 0.930 . S
H134 C169 0.931 . S
N135 Eu104 2.657 1_544 S
N135 C136 1.334 . S
N135 C140 1.362 . S
C136 H128 0.929 1_455 S
C136 N135 1.334 . S
C136 C139 1.413 . S
C137 H131 0.930 . S
C137 C138 1.392 . S
C137 C139 1.367 . S
C138 C137 1.392 . S
C138 C140 1.420 . S
C138 C170 1.423 . S
C139 H125 0.930 1_455 S
C139 C136 1.413 . S
C139 C137 1.367 . S
C140 N135 1.362 . S
C140 C138 1.420 . S
C140 C144 1.429 . S
H141 C146 0.930 . S
N142 Eu104 2.609 1_545 S
N142 C144 1.377 1_556 S
N142 C145 1.321 1_545 S
C143 H129 0.930 . S
C143 C145 1.400 . S
C143 C146 1.386 1_566 S
C144 C140 1.429 . S
C144 N142 1.377 1_554 S
C144 C147 1.411 . S
C145 H127 0.930 . S
C145 N142 1.321 1_565 S
C145 C143 1.400 . S
C146 H141 0.930 . S
C146 C143 1.386 1_544 S
C146 C147 1.395 . S
C147 C144 1.411 . S
C147 C146 1.395 . S
C147 C169 1.420 . S
O148 Eu104 2.558 . S
O148 C168 1.257 . S
O149 Eu104 2.612 1_655 S
O149 Eu115 2.380 1_565 S
O149 C160 1.276 . S
O150 Eu115 2.432 . S
O150 C167 1.264 . S
O151 Eu104 2.339 1_655 S
O151 C167 1.254 1_565 S
O152 Eu104 2.563 . S
O152 C160 1.235 1_455 S
O153 Eu104 2.419 . S
O153 C168 1.249 . S
O154 Eu115 2.558 . S
O154 C179 1.257 . S
O155 Eu104 2.380 1_545 S
O155 Eu115 2.612 1_455 S
O155 C171 1.276 . S
O156 Eu104 2.432 . S
O156 C178 1.264 1_565 S
O157 Eu115 2.339 1_455 S
O157 C178 1.254 . S
O158 Eu115 2.563 1_455 S
O158 C171 1.235 . S
O159 Eu115 2.419 . S
O159 C179 1.249 . S
C160 O149 1.276 . S
C160 O152 1.235 1_655 S
C161 C163 1.393 . S
C161 C165 1.395 . S
C161 C168 1.492 1_554 S
C162 C163 1.392 . S
C162 C164 1.386 . S
C163 C161 1.393 . S
C163 C162 1.392 . S
C163 H180 0.930 . S
C164 C162 1.386 . S
C164 C166 1.395 . S
C164 H181 0.930 . S
C165 C161 1.395 . S
C165 C166 1.379 . S
C165 H182 0.930 . S
C166 C164 1.395 . S
C166 C165 1.379 . S
C166 H183 0.930 . S
C167 O150 1.264 . S
C167 O151 1.254 1_545 S
C168 Eu104 2.848 . S
C168 O148 1.257 . S
C168 O153 1.249 . S
C168 C161 1.492 1_556 S
C169 H134 0.931 . S
C169 C147 1.420 . S
C169 C170 1.351 . S
C170 H132 0.930 . S
C170 C138 1.423 . S
C170 C169 1.351 . S
C171 O155 1.276 . S
C171 O158 1.235 . S
C172 C173 1.393 . S
C172 C176 1.395 . S
C172 C179 1.492 . S
C173 C172 1.393 . S
C173 C174 1.392 . S
C173 H184 0.930 1_655 S
C174 C173 1.392 . S
C174 C175 1.386 . S
C175 C174 1.386 . S
C175 C177 1.395 . S
C175 H185 0.930 . S
C176 C172 1.395 . S
C176 C177 1.379 . S
C176 H186 0.930 . S
C177 C175 1.395 . S
C177 C176 1.379 . S
C177 H187 0.930 . S
C178 O156 1.264 1_545 S
C178 O157 1.254 . S
C179 Eu115 2.848 . S
C179 O154 1.257 . S
C179 O159 1.249 . S
C179 C172 1.492 . S
H180 C163 0.930 . S
H181 C164 0.930 . S
H182 C165 0.930 . S
H183 C166 0.930 . S
H184 C173 0.930 1_455 S
H185 C175 0.930 . S
H186 C176 0.930 . S
H187 C177 0.930 . S
Eu188 N219 2.657 1_556 S
Eu188 N226 2.609 . S
Eu188 O232 2.558 . S
Eu188 O233 2.612 1_545 S
Eu188 O235 2.339 1_545 S
Eu188 O236 2.563 . S
Eu188 O237 2.419 . S
Eu188 O239 2.380 . S
Eu188 O240 2.432 . S
Eu188 C252 2.848 . S
C189 C192 1.429 . S
C189 C193 1.411 . S
C189 N196 1.377 . S
C190 C192 1.420 . S
C190 C194 1.423 . S
C190 C202 1.392 . S
C191 C193 1.420 . S
C191 C194 1.351 . S
C191 H214 0.931 . S
C192 C189 1.429 . S
C192 C190 1.420 . S
C192 N200 1.362 . S
C193 C189 1.411 . S
C193 C191 1.420 . S
C193 C198 1.395 . S
C194 C190 1.423 . S
C194 C191 1.351 . S
C194 H206 0.930 . S
C195 C197 1.400 . S
C195 C198 1.386 . S
C195 H207 0.930 . S
N196 C189 1.377 . S
N196 C197 1.321 . S
N196 Eu199 2.609 . S
C197 C195 1.400 . S
C197 N196 1.321 . S
C197 H204 0.930 . S
C198 C193 1.395 . S
C198 C195 1.386 . S
C198 H217 0.930 . S
Eu199 N196 2.609 . S
Eu199 N200 2.657 . S
Eu199 O233 2.380 . S
Eu199 O234 2.432 . S
Eu199 O238 2.558 . S
Eu199 O239 2.612 1_565 S
Eu199 O241 2.339 1_565 S
Eu199 O242 2.563 1_565 S
Eu199 O243 2.419 . S
Eu199 C263 2.848 . S
N200 C192 1.362 . S
N200 Eu199 2.657 . S
N200 C201 1.334 1_565 S
C201 N200 1.334 1_545 S
C201 C203 1.413 . S
C201 H208 0.929 . S
C202 C190 1.392 . S
C202 C203 1.367 1_565 S
C202 H210 0.930 . S
C203 C201 1.413 . S
C203 C202 1.367 1_545 S
C203 H205 0.930 . S
H204 C197 0.930 . S
H205 C203 0.930 . S
H206 C194 0.930 . S
H207 C195 0.930 . S
H208 C201 0.929 . S
H209 C223 0.930 1_565 S
H210 C202 0.930 . S
H211 C229 0.930 . S
H212 C220 0.929 1_565 S
H213 C227 0.930 . S
H214 C191 0.931 . S
H215 C221 0.930 . S
H216 C254 0.930 . S
H217 C198 0.930 . S
H218 C253 0.931 . S
N219 Eu188 2.657 1_554 S
N219 C220 1.334 . S
N219 C224 1.362 . S
C220 H212 0.929 1_545 S
C220 N219 1.334 . S
C220 C223 1.413 . S
C221 H215 0.930 . S
C221 C222 1.392 . S
C221 C223 1.367 . S
C222 C221 1.392 . S
C222 C224 1.420 . S
C222 C254 1.423 . S
C223 H209 0.930 1_545 S
C223 C220 1.413 . S
C223 C221 1.367 . S
C224 N219 1.362 . S
C224 C222 1.420 . S
C224 C228 1.429 . S
H225 C230 0.930 . S
N226 Eu188 2.609 . S
N226 C228 1.377 1_556 S
N226 C229 1.321 . S
C227 H213 0.930 . S
C227 C229 1.400 . S
C227 C230 1.386 1_556 S
C228 C224 1.429 . S
C228 N226 1.377 1_554 S
C228 C231 1.411 . S
C229 H211 0.930 . S
C229 N226 1.321 . S
C229 C227 1.400 . S
C230 H225 0.930 . S
C230 C227 1.386 1_554 S
C230 C231 1.395 . S
C231 C228 1.411 . S
C231 C230 1.395 . S
C231 C253 1.420 . S
O232 Eu188 2.558 . S
O232 C252 1.257 . S
O233 Eu188 2.612 1_565 S
O233 Eu199 2.380 . S
O233 C244 1.276 . S
O234 Eu199 2.432 . S
O234 C251 1.264 . S
O235 Eu188 2.339 1_565 S
O235 C251 1.254 . S
O236 Eu188 2.563 . S
O236 C244 1.235 1_545 S
O237 Eu188 2.419 . S
O237 C252 1.249 . S
O238 Eu199 2.558 . S
O238 C263 1.257 . S
O239 Eu188 2.380 . S
O239 Eu199 2.612 1_545 S
O239 C255 1.276 . S
O240 Eu188 2.432 . S
O240 C262 1.264 . S
O241 Eu199 2.339 1_545 S
O241 C262 1.254 . S
O242 Eu199 2.563 1_545 S
O242 C255 1.235 . S
O243 Eu199 2.419 . S
O243 C263 1.249 . S
C244 O233 1.276 . S
C244 O236 1.235 1_565 S
C245 C247 1.393 . S
C245 C249 1.395 . S
C245 C252 1.492 1_554 S
C246 C247 1.392 . S
C246 C248 1.386 . S
C247 C245 1.393 . S
C247 C246 1.392 . S
C247 H264 0.930 . S
C248 C246 1.386 . S
C248 C250 1.395 . S
C248 H265 0.930 . S
C249 C245 1.395 . S
C249 C250 1.379 . S
C249 H266 0.930 . S
C250 C248 1.395 . S
C250 C249 1.379 . S
C250 H267 0.930 . S
C251 O234 1.264 . S
C251 O235 1.254 . S
C252 Eu188 2.848 . S
C252 O232 1.257 . S
C252 O237 1.249 . S
C252 C245 1.492 1_556 S
C253 H218 0.931 . S
C253 C231 1.420 . S
C253 C254 1.351 . S
C254 H216 0.930 . S
C254 C222 1.423 . S
C254 C253 1.351 . S
C255 O239 1.276 . S
C255 O242 1.235 . S
C256 C257 1.393 . S
C256 C260 1.395 . S
C256 C263 1.492 . S
C257 C256 1.393 . S
C257 C258 1.392 . S
C257 H268 0.930 1_565 S
C258 C257 1.392 . S
C258 C259 1.386 . S
C259 C258 1.386 . S
C259 C261 1.395 . S
C259 H269 0.930 . S
C260 C256 1.395 . S
C260 C261 1.379 . S
C260 H270 0.930 . S
C261 C259 1.395 . S
C261 C260 1.379 . S
C261 H271 0.930 . S
C262 O240 1.264 . S
C262 O241 1.254 . S
C263 Eu199 2.848 . S
C263 O238 1.257 . S
C263 O243 1.249 . S
C263 C256 1.492 . S
H264 C247 0.930 . S
H265 C248 0.930 . S
H266 C249 0.930 . S
H267 C250 0.930 . S
H268 C257 0.930 1_545 S
H269 C259 0.930 . S
H270 C260 0.930 . S
H271 C261 0.930 . S
Eu272 N303 2.657 . S
Eu272 N310 2.609 . S
Eu272 O316 2.558 . S
Eu272 O317 2.612 . S
Eu272 O319 2.339 . S
Eu272 O320 2.563 . S
Eu272 O321 2.419 . S
Eu272 O323 2.380 . S
Eu272 O324 2.432 . S
Eu272 C336 2.848 . S
C273 C276 1.429 . S
C273 C277 1.411 . S
C273 N280 1.377 . S
C274 C276 1.420 . S
C274 C278 1.423 . S
C274 C286 1.392 . S
C275 C277 1.420 . S
C275 C278 1.351 . S
C275 H298 0.931 . S
C276 C273 1.429 . S
C276 C274 1.420 . S
C276 N284 1.362 . S
C277 C273 1.411 . S
C277 C275 1.420 . S
C277 C282 1.395 1_556 S
C278 C274 1.423 . S
C278 C275 1.351 . S
C278 H290 0.930 . S
C279 C281 1.400 1_554 S
C279 C282 1.386 . S
C279 H291 0.930 . S
N280 C273 1.377 . S
N280 C281 1.321 . S
N280 Eu283 2.609 . S
C281 C279 1.400 1_556 S
C281 N280 1.321 . S
C281 H288 0.930 1_556 S
C282 C277 1.395 1_554 S
C282 C279 1.386 . S
C282 H301 0.930 . S
Eu283 N280 2.609 . S
Eu283 N284 2.657 . S
Eu283 O317 2.380 . S
Eu283 O318 2.432 . S
Eu283 O322 2.558 1_556 S
Eu283 O323 2.612 . S
Eu283 O325 2.339 . S
Eu283 O326 2.563 . S
Eu283 O327 2.419 . S
Eu283 C347 2.848 1_556 S
N284 C276 1.362 . S
N284 Eu283 2.657 . S
N284 C285 1.334 . S
C285 N284 1.334 . S
C285 C287 1.413 . S
C285 H292 0.929 . S
C286 C274 1.392 . S
C286 C287 1.367 . S
C286 H294 0.930 . S
C287 C285 1.413 . S
C287 C286 1.367 . S
C287 H289 0.930 . S
H288 C281 0.930 1_554 S
H289 C287 0.930 . S
H290 C278 0.930 . S
H291 C279 0.930 . S
H292 C285 0.929 . S
H293 C307 0.930 . S
H294 C286 0.930 . S
H295 C313 0.930 . S
H296 C304 0.929 . S
H297 C311 0.930 . S
H298 C275 0.931 . S
H299 C305 0.930 . S
H300 C338 0.930 . S
H301 C282 0.930 . S
H302 C337 0.931 . S
N303 Eu272 2.657 . S
N303 C304 1.334 . S
N303 C308 1.362 . S
C304 H296 0.929 . S
C304 N303 1.334 . S
C304 C307 1.413 . S
C305 H299 0.930 . S
C305 C306 1.392 . S
C305 C307 1.367 . S
C306 C305 1.392 . S
C306 C308 1.420 . S
C306 C338 1.423 . S
C307 H293 0.930 . S
C307 C304 1.413 . S
C307 C305 1.367 . S
C308 N303 1.362 . S
C308 C306 1.420 . S
C308 C312 1.429 . S
H309 C314 0.930 . S
N310 Eu272 2.609 . S
N310 C312 1.377 . S
N310 C313 1.321 . S
C311 H297 0.930 . S
C311 C313 1.400 . S
C311 C314 1.386 . S
C312 C308 1.429 . S
C312 N310 1.377 . S
C312 C315 1.411 . S
C313 H295 0.930 . S
C313 N310 1.321 . S
C313 C311 1.400 . S
C314 H309 0.930 . S
C314 C311 1.386 . S
C314 C315 1.395 . S
C315 C312 1.411 . S
C315 C314 1.395 . S
C315 C337 1.420 . S
O316 Eu272 2.558 . S
O316 C336 1.257 . S
O317 Eu272 2.612 . S
O317 Eu283 2.380 . S
O317 C328 1.276 . S
O318 Eu283 2.432 . S
O318 C335 1.264 . S
O319 Eu272 2.339 . S
O319 C335 1.254 . S
O320 Eu272 2.563 . S
O320 C328 1.235 . S
O321 Eu272 2.419 . S
O321 C336 1.249 . S
O322 Eu283 2.558 1_554 S
O322 C347 1.257 . S
O323 Eu272 2.380 . S
O323 Eu283 2.612 . S
O323 C339 1.276 . S
O324 Eu272 2.432 . S
O324 C346 1.264 . S
O325 Eu283 2.339 . S
O325 C346 1.254 . S
O326 Eu283 2.563 . S
O326 C339 1.235 . S
O327 Eu283 2.419 . S
O327 C347 1.249 1_556 S
C328 O317 1.276 . S
C328 O320 1.235 . S
C329 C331 1.393 . S
C329 C333 1.395 . S
C329 C336 1.492 . S
C330 C331 1.392 . S
C330 C332 1.386 . S
C331 C329 1.393 . S
C331 C330 1.392 . S
C331 H348 0.930 . S
C332 C330 1.386 . S
C332 C334 1.395 . S
C332 H349 0.930 . S
C333 C329 1.395 . S
C333 C334 1.379 . S
C333 H350 0.930 . S
C334 C332 1.395 . S
C334 C333 1.379 . S
C334 H351 0.930 . S
C335 O318 1.264 . S
C335 O319 1.254 . S
C336 Eu272 2.848 . S
C336 O316 1.257 . S
C336 O321 1.249 . S
C336 C329 1.492 . S
C337 H302 0.931 . S
C337 C315 1.420 . S
C337 C338 1.351 . S
C338 H300 0.930 . S
C338 C306 1.423 . S
C338 C337 1.351 . S
C339 O323 1.276 . S
C339 O326 1.235 . S
C340 C341 1.393 . S
C340 C344 1.395 . S
C340 C347 1.492 . S
C341 C340 1.393 . S
C341 C342 1.392 . S
C341 H352 0.930 . S
C342 C341 1.392 . S
C342 C343 1.386 . S
C343 C342 1.386 . S
C343 C345 1.395 . S
C343 H353 0.930 . S
C344 C340 1.395 . S
C344 C345 1.379 . S
C344 H354 0.930 . S
C345 C343 1.395 . S
C345 C344 1.379 . S
C345 H355 0.930 . S
C346 O324 1.264 . S
C346 O325 1.254 . S
C347 Eu283 2.848 1_554 S
C347 O322 1.257 . S
C347 O327 1.249 1_554 S
C347 C340 1.492 . S
H348 C331 0.930 . S
H349 C332 0.930 . S
H350 C333 0.930 . S
H351 C334 0.930 . S
H352 C341 0.930 . S
H353 C343 0.930 . S
H354 C344 0.930 . S
H355 C345 0.930 . S
Eu356 N387 2.657 . S
Eu356 N394 2.609 . S
Eu356 O400 2.558 . S
Eu356 O401 2.612 . S
Eu356 O403 2.339 . S
Eu356 O404 2.563 . S
Eu356 O405 2.419 . S
Eu356 O407 2.380 . S
Eu356 O408 2.432 1_455 S
Eu356 C420 2.848 . S
C357 C360 1.429 . S
C357 C361 1.411 . S
C357 N364 1.370 1_655 S
C358 C360 1.420 . S
C358 C362 1.423 . S
C358 C370 1.392 . S
C359 C361 1.420 . S
C359 C362 1.351 . S
C359 H382 0.931 . S
C360 C357 1.429 . S
C360 C358 1.420 . S
C360 N368 1.362 . S
C361 C357 1.411 . S
C361 C359 1.420 . S
C361 C366 1.395 1_656 S
C362 C358 1.423 . S
C362 C359 1.351 . S
C362 H374 0.930 . S
C363 C365 1.400 1_554 S
C363 C366 1.386 . S
C363 H375 0.930 . S
N364 C357 1.370 1_455 S
N364 C365 1.330 . S
N364 Eu367 2.606 1_455 S
C365 C363 1.400 1_556 S
C365 N364 1.330 . S
C365 H372 0.930 1_556 S
C366 C361 1.395 1_454 S
C366 C363 1.386 . S
C366 H385 0.930 . S
Eu367 N364 2.606 1_655 S
Eu367 N368 2.657 . S
Eu367 O401 2.380 1_655 S
Eu367 O402 2.432 1_655 S
Eu367 O406 2.558 1_556 S
Eu367 O407 2.612 1_655 S
Eu367 O409 2.339 . S
Eu367 O410 2.563 . S
Eu367 O411 2.419 . S
Eu367 C431 2.848 1_556 S
N368 C360 1.362 . S
N368 Eu367 2.657 . S
N368 C369 1.334 . S
C369 N368 1.334 . S
C369 C371 1.413 . S
C369 H376 0.929 . S
C370 C358 1.392 . S
C370 C371 1.367 . S
C370 H378 0.930 . S
C371 C369 1.413 . S
C371 C370 1.367 . S
C371 H373 0.930 . S
H372 C365 0.930 1_554 S
H373 C371 0.930 . S
H374 C362 0.930 . S
H375 C363 0.930 . S
H376 C369 0.929 . S
H377 C391 0.930 . S
H378 C370 0.930 . S
H379 C397 0.930 . S
H380 C388 0.929 . S
H381 C395 0.930 . S
H382 C359 0.931 . S
H383 C389 0.930 . S
H384 C422 0.930 . S
H385 C366 0.930 . S
H386 C421 0.931 . S
N387 Eu356 2.657 . S
N387 C388 1.334 . S
N387 C392 1.362 . S
C388 H380 0.929 . S
C388 N387 1.334 . S
C388 C391 1.413 . S
C389 H383 0.930 . S
C389 C390 1.392 . S
C389 C391 1.367 . S
C390 C389 1.392 . S
C390 C392 1.420 . S
C390 C422 1.423 . S
C391 H377 0.930 . S
C391 C388 1.413 . S
C391 C389 1.367 . S
C392 N387 1.362 . S
C392 C390 1.420 . S
C392 C396 1.429 . S
H393 C398 0.935 . S
N394 Eu356 2.609 . S
N394 C396 1.377 . S
N394 C397 1.321 1_455 S
C395 H381 0.930 . S
C395 C397 1.400 . S
C395 C398 1.386 1_655 S
C396 C392 1.429 . S
C396 N394 1.377 . S
C396 C399 1.411 . S
C397 H379 0.930 . S
C397 N394 1.321 1_655 S
C397 C395 1.400 . S
C398 H393 0.935 . S
C398 C395 1.386 1_455 S
C398 C399 1.395 . S
C399 C396 1.411 . S
C399 C398 1.395 . S
C399 C421 1.420 . S
O400 Eu356 2.558 . S
O400 C420 1.257 . S
O401 Eu356 2.612 . S
O401 Eu367 2.380 1_455 S
O401 C412 1.276 . S
O402 Eu367 2.432 1_455 S
O402 C419 1.264 . S
O403 Eu356 2.339 . S
O403 C419 1.254 . S
O404 Eu356 2.563 . S
O404 C412 1.235 . S
O405 Eu356 2.419 . S
O405 C420 1.249 . S
O406 Eu367 2.558 1_554 S
O406 C431 1.257 . S
O407 Eu356 2.380 . S
O407 Eu367 2.612 1_455 S
O407 C423 1.276 1_455 S
O408 Eu356 2.432 1_655 S
O408 C430 1.264 . S
O409 Eu367 2.339 . S
O409 C430 1.254 . S
O410 Eu367 2.563 . S
O410 C423 1.235 . S
O411 Eu367 2.419 . S
O411 C431 1.249 1_556 S
C412 O401 1.276 . S
C412 O404 1.235 . S
C413 C415 1.393 . S
C413 C417 1.395 . S
C413 C420 1.492 . S
C414 C415 1.392 . S
C414 C416 1.386 . S
C415 C413 1.393 . S
C415 C414 1.392 . S
C415 H432 0.930 . S
C416 C414 1.386 . S
C416 C418 1.395 . S
C416 H433 0.930 . S
C417 C413 1.395 . S
C417 C418 1.379 . S
C417 H434 0.930 . S
C418 C416 1.395 . S
C418 C417 1.379 . S
C418 H435 0.930 . S
C419 O402 1.264 . S
C419 O403 1.254 . S
C420 Eu356 2.848 . S
C420 O400 1.257 . S
C420 O405 1.249 . S
C420 C413 1.492 . S
C421 H386 0.931 . S
C421 C399 1.420 . S
C421 C422 1.351 . S
C422 H384 0.930 . S
C422 C390 1.423 . S
C422 C421 1.351 . S
C423 O407 1.276 1_655 S
C423 O410 1.235 . S
C424 C425 1.393 . S
C424 C428 1.395 . S
C424 C431 1.492 . S
C425 C424 1.393 . S
C425 C426 1.392 . S
C425 H436 0.930 . S
C426 C425 1.392 . S
C426 C427 1.386 . S
C427 C426 1.386 . S
C427 C429 1.395 . S
C427 H437 0.930 . S
C428 C424 1.395 . S
C428 C429 1.379 . S
C428 H438 0.930 . S
C429 C427 1.395 . S
C429 C428 1.379 . S
C429 H439 0.930 . S
C430 O408 1.264 . S
C430 O409 1.254 . S
C431 Eu367 2.848 1_554 S
C431 O406 1.257 . S
C431 O411 1.249 1_554 S
C431 C424 1.492 . S
H432 C415 0.930 . S
H433 C416 0.930 . S
H434 C417 0.930 . S
H435 C418 0.930 . S
H436 C425 0.930 . S
H437 C427 0.930 . S
H438 C428 0.930 . S
H439 C429 0.930 . S
H440 C446 0.930 . S
H441 C449 0.930 . S
H442 C450 0.930 . S
H443 C451 0.930 . S
H444 C454 0.930 . S
H445 C455 0.930 . S
C446 H440 0.930 . S
C446 C447 1.355 . S
C446 C448 1.415 . S
C447 C446 1.355 . S
C447 C449 1.419 . S
C448 C446 1.415 . S
C448 C453 1.425 . S
C448 C455 1.409 . S
C449 H441 0.930 . S
C449 C447 1.419 . S
C449 C450 1.362 . S
C450 H442 0.930 . S
C450 C449 1.362 . S
C450 C453 1.409 . S
C451 H443 0.930 . S
C451 C452 1.355 . S
C451 C453 1.415 . S
C452 C451 1.355 . S
C452 C454 1.419 . S
C453 C448 1.425 . S
C453 C450 1.409 . S
C453 C451 1.415 . S
C454 H444 0.930 . S
C454 C452 1.419 . S
C454 C455 1.362 . S
C455 H445 0.930 . S
C455 C448 1.409 . S
C455 C454 1.362 . S
H456 C462 0.930 . S
H457 C465 0.930 . S
H458 C466 0.930 . S
H459 C467 0.930 . S
H460 C470 0.930 . S
H461 C471 0.930 . S
C462 H456 0.930 . S
C462 C463 1.355 . S
C462 C464 1.415 . S
C463 C462 1.355 . S
C463 C465 1.419 . S
C464 C462 1.415 . S
C464 C469 1.425 . S
C464 C471 1.409 . S
C465 H457 0.930 . S
C465 C463 1.419 . S
C465 C466 1.362 . S
C466 H458 0.930 . S
C466 C465 1.362 . S
C466 C469 1.409 . S
C467 H459 0.930 . S
C467 C468 1.355 . S
C467 C469 1.415 . S
C468 C467 1.355 . S
C468 C470 1.419 . S
C469 C464 1.425 . S
C469 C466 1.409 . S
C469 C467 1.415 . S
C470 H460 0.930 . S
C470 C468 1.419 . S
C470 C471 1.362 . S
C471 H461 0.930 . S
C471 C464 1.409 . S
C471 C470 1.362 . S
H472 C478 0.930 . S
H473 C481 0.930 . S
H474 C482 0.930 . S
H475 C483 0.930 . S
H476 C486 0.930 . S
H477 C487 0.930 . S
C478 H472 0.930 . S
C478 C479 1.355 . S
C478 C480 1.415 . S
C479 C478 1.355 . S
C479 C481 1.419 . S
C480 C478 1.415 . S
C480 C485 1.425 . S
C480 C487 1.409 . S
C481 H473 0.930 . S
C481 C479 1.419 . S
C481 C482 1.362 . S
C482 H474 0.930 . S
C482 C481 1.362 . S
C482 C485 1.409 . S
C483 H475 0.930 . S
C483 C484 1.355 . S
C483 C485 1.415 . S
C484 C483 1.355 . S
C484 C486 1.419 . S
C485 C480 1.425 . S
C485 C482 1.409 . S
C485 C483 1.415 . S
C486 H476 0.930 . S
C486 C484 1.419 . S
C486 C487 1.362 . S
C487 H477 0.930 . S
C487 C480 1.409 . S
C487 C486 1.362 . S
H488 C494 0.930 . S
H489 C497 0.930 . S
H490 C498 0.930 . S
H491 C499 0.930 . S
H492 C502 0.930 . S
H493 C503 0.930 . S
C494 H488 0.930 . S
C494 C495 1.355 . S
C494 C496 1.415 . S
C495 C494 1.355 . S
C495 C497 1.419 . S
C496 C494 1.415 . S
C496 C501 1.425 . S
C496 C503 1.409 . S
C497 H489 0.930 . S
C497 C495 1.419 . S
C497 C498 1.362 . S
C498 H490 0.930 . S
C498 C497 1.362 . S
C498 C501 1.409 . S
C499 H491 0.930 . S
C499 C500 1.355 . S
C499 C501 1.415 . S
C500 C499 1.355 . S
C500 C502 1.419 . S
C501 C496 1.425 . S
C501 C498 1.409 . S
C501 C499 1.415 . S
C502 H492 0.930 . S
C502 C500 1.419 . S
C502 C503 1.362 . S
C503 H493 0.930 . S
C503 C496 1.409 . S
C503 C502 1.362 . S
H504 C510 0.930 . S
H505 C513 0.918 1_545 S
H506 C514 0.930 . S
H507 C515 0.930 . S
H508 C518 0.930 . S
H509 C519 0.930 1_556 S
C510 H504 0.930 . S
C510 C511 1.355 . S
C510 C512 1.415 . S
C511 C510 1.355 . S
C511 C513 1.439 . S
C512 C510 1.415 . S
C512 C517 1.425 . S
C512 C519 1.410 . S
C513 H505 0.918 1_565 S
C513 C511 1.439 . S
C513 C514 1.355 1_565 S
C514 H506 0.930 . S
C514 C513 1.355 1_545 S
C514 C517 1.409 1_545 S
C515 H507 0.930 . S
C515 C516 1.355 1_544 S
C515 C517 1.415 1_545 S
C516 C515 1.355 1_566 S
C516 C518 1.419 . S
C517 C512 1.425 . S
C517 C514 1.409 1_565 S
C517 C515 1.415 1_565 S
C518 H508 0.930 . S
C518 C516 1.419 . S
C518 C519 1.362 1_556 S
C519 H509 0.930 1_554 S
C519 C512 1.410 . S
C519 C518 1.362 1_554 S
H520 C526 0.930 . S
H521 C529 0.930 . S
H522 C530 0.930 . S
H523 C531 0.930 . S
H524 C534 0.930 1_556 S
H525 C535 0.930 . S
C526 H520 0.930 . S
C526 C527 1.355 . S
C526 C528 1.415 . S
C527 C526 1.355 . S
C527 C529 1.419 . S
C528 C526 1.415 . S
C528 C533 1.425 . S
C528 C535 1.409 . S
C529 H521 0.930 . S
C529 C527 1.419 . S
C529 C530 1.362 . S
C530 H522 0.930 . S
C530 C529 1.362 . S
C530 C533 1.409 . S
C531 H523 0.930 . S
C531 C532 1.355 . S
C531 C533 1.415 1_556 S
C532 C531 1.355 . S
C532 C534 1.419 1_556 S
C533 C528 1.425 . S
C533 C530 1.409 . S
C533 C531 1.415 1_554 S
C534 H524 0.930 1_554 S
C534 C532 1.419 1_554 S
C534 C535 1.362 . S
C535 H525 0.930 . S
C535 C528 1.409 . S
C535 C534 1.362 . S
H536 C542 0.930 . S
H537 C545 0.930 . S
H538 C546 0.930 . S
H539 C547 0.930 . S
H540 C550 0.930 . S
H541 C551 0.930 . S
C542 H536 0.930 . S
C542 C543 1.355 . S
C542 C544 1.415 . S
C543 C542 1.355 . S
C543 C545 1.419 . S
C544 C542 1.415 . S
C544 C549 1.425 . S
C544 C551 1.409 . S
C545 H537 0.930 . S
C545 C543 1.419 . S
C545 C546 1.362 . S
C546 H538 0.930 . S
C546 C545 1.362 . S
C546 C549 1.409 . S
C547 H539 0.930 . S
C547 C548 1.355 . S
C547 C549 1.415 1_556 S
C548 C547 1.355 . S
C548 C550 1.419 1_556 S
C549 C544 1.425 . S
C549 C546 1.409 . S
C549 C547 1.415 1_554 S
C550 H540 0.930 . S
C550 C548 1.419 1_554 S
C550 C551 1.362 . S
C551 H541 0.930 . S
C551 C544 1.409 . S
C551 C550 1.362 . S
H552 C558 0.930 . S
H553 C561 0.930 . S
H554 C562 0.930 1_455 S
H555 C563 0.930 1_455 S
H556 C566 0.930 . S
H557 C567 0.930 . S
C558 H552 0.930 . S
C558 C559 1.355 . S
C558 C560 1.415 . S
C559 C558 1.355 . S
C559 C561 1.419 . S
C560 C558 1.415 . S
C560 C565 1.425 . S
C560 C567 1.409 1_554 S
C561 H553 0.930 . S
C561 C559 1.419 . S
C561 C562 1.362 . S
C562 H554 0.930 1_655 S
C562 C561 1.362 . S
C562 C565 1.409 . S
C563 H555 0.930 1_655 S
C563 C564 1.355 1_554 S
C563 C565 1.415 . S
C564 C563 1.355 1_556 S
C564 C566 1.419 . S
C565 C560 1.425 . S
C565 C562 1.409 . S
C565 C563 1.415 . S
C566 H556 0.930 . S
C566 C564 1.419 . S
C566 C567 1.362 . S
C567 H557 0.930 . S
C567 C560 1.409 1_556 S
C567 C566 1.362 . S
H568 C574 0.930 . S
H569 C577 0.930 1_556 S
H570 C578 0.930 1_556 S
H571 C579 0.930 . S
H572 C582 0.930 . S
H573 C583 0.930 . S
C574 H568 0.930 . S
C574 C575 1.355 . S
C574 C576 1.415 . S
C575 C574 1.355 . S
C575 C577 1.419 . S
C576 C574 1.415 . S
C576 C581 1.425 . S
C576 C583 1.409 . S
C577 H569 0.930 1_554 S
C577 C575 1.419 . S
C577 C578 1.362 . S
C578 H570 0.930 1_554 S
C578 C577 1.362 . S
C578 C581 1.409 . S
C579 H571 0.930 . S
C579 C580 1.355 1_455 S
C579 C581 1.415 . S
C580 C579 1.355 1_655 S
C580 C582 1.419 . S
C581 C576 1.425 . S
C581 C578 1.409 . S
C581 C579 1.415 . S
C582 H572 0.930 . S
C582 C580 1.419 . S
C582 C583 1.362 1_655 S
C583 H573 0.930 . S
C583 C576 1.409 . S
C583 C582 1.362 1_455 S
H584 C590 0.930 . S
H585 C593 0.930 . S
H586 C594 0.930 . S
H587 C595 0.930 . S
H588 C598 0.930 . S
H589 C599 0.930 . S
C590 H584 0.930 . S
C590 C591 1.355 . S
C590 C592 1.415 . S
C591 C590 1.355 . S
C591 C593 1.419 . S
C592 C590 1.415 . S
C592 C597 1.425 . S
C592 C599 1.409 1_545 S
C593 H585 0.930 . S
C593 C591 1.419 . S
C593 C594 1.362 . S
C594 H586 0.930 . S
C594 C593 1.362 . S
C594 C597 1.409 . S
C595 H587 0.930 . S
C595 C596 1.355 1_545 S
C595 C597 1.415 . S
C596 C595 1.355 1_565 S
C596 C598 1.419 . S
C597 C592 1.425 . S
C597 C594 1.409 . S
C597 C595 1.415 . S
C598 H588 0.930 . S
C598 C596 1.419 . S
C598 C599 1.362 . S
C599 H589 0.930 . S
C599 C592 1.409 1_565 S
C599 C598 1.362 . S
H600 C606 0.930 . S
H601 C609 0.930 . S
H602 C610 0.930 . S
H603 C611 0.930 . S
H604 C614 0.930 . S
H605 C615 0.930 . S
C606 H600 0.930 . S
C606 C607 1.355 . S
C606 C608 1.415 . S
C607 C606 1.355 . S
C607 C609 1.419 . S
C608 C606 1.415 . S
C608 C613 1.425 . S
C608 C615 1.409 . S
C609 H601 0.930 . S
C609 C607 1.419 . S
C609 C610 1.362 . S
C610 H602 0.930 . S
C610 C609 1.362 . S
C610 C613 1.409 . S
C611 H603 0.930 . S
C611 C612 1.355 . S
C611 C613 1.415 . S
C612 C611 1.355 . S
C612 C614 1.419 . S
C613 C608 1.425 . S
C613 C610 1.409 . S
C613 C611 1.415 . S
C614 H604 0.930 . S
C614 C612 1.419 . S
C614 C615 1.362 . S
C615 H605 0.930 . S
C615 C608 1.409 . S
C615 C614 1.362 . S
H616 C622 0.930 . S
H617 C625 0.930 . S
H618 C626 0.930 . S
H619 C627 0.930 . S
H620 C630 0.930 . S
H621 C631 0.930 . S
C622 H616 0.930 . S
C622 C623 1.355 . S
C622 C624 1.415 . S
C623 C622 1.355 . S
C623 C625 1.419 . S
C624 C622 1.415 . S
C624 C629 1.425 . S
C624 C631 1.409 . S
C625 H617 0.930 . S
C625 C623 1.419 . S
C625 C626 1.362 . S
C626 H618 0.930 . S
C626 C625 1.362 . S
C626 C629 1.409 . S
C627 H619 0.930 . S
C627 C628 1.355 . S
C627 C629 1.415 . S
C628 C627 1.355 . S
C628 C630 1.419 . S
C629 C624 1.425 . S
C629 C626 1.409 . S
C629 C627 1.415 . S
C630 H620 0.930 . S
C630 C628 1.419 . S
C630 C631 1.362 . S
C631 H621 0.930 . S
C631 C624 1.409 . S
C631 C630 1.362 . S
H632 C638 0.930 . S
H633 C641 0.930 1_455 S
H634 C642 0.930 . S
H635 C643 0.930 . S
H636 C646 0.930 . S
H637 C647 0.930 . S
C638 H632 0.930 . S
C638 C639 1.355 . S
C638 C640 1.415 . S
C639 C638 1.355 . S
C639 C641 1.419 . S
C640 C638 1.415 . S
C640 C645 1.425 1_655 S
C640 C647 1.409 . S
C641 H633 0.930 1_655 S
C641 C639 1.419 . S
C641 C642 1.362 1_655 S
C642 H634 0.930 . S
C642 C641 1.362 1_455 S
C642 C645 1.409 . S
C643 H635 0.930 . S
C643 C644 1.355 . S
C643 C645 1.415 . S
C644 C643 1.355 . S
C644 C646 1.419 1_455 S
C645 C640 1.425 1_455 S
C645 C642 1.409 . S
C645 C643 1.415 . S
C646 H636 0.930 . S
C646 C644 1.419 1_655 S
C646 C647 1.362 . S
C647 H637 0.930 . S
C647 C640 1.409 . S
C647 C646 1.362 . S
H648 C654 0.930 . S
H649 C657 0.930 . S
H650 C658 0.925 1_545 S
H651 C659 0.930 . S
H652 C662 0.930 1_556 S
H653 C663 0.930 . S
C654 H648 0.930 . S
C654 C655 1.355 . S
C654 C656 1.415 . S
C655 C654 1.355 . S
C655 C657 1.419 . S
C656 C654 1.415 . S
C656 C661 1.419 1_565 S
C656 C663 1.409 . S
C657 H649 0.930 . S
C657 C655 1.419 . S
C657 C658 1.362 . S
C658 H650 0.925 1_565 S
C658 C657 1.362 . S
C658 C661 1.405 1_565 S
C659 H651 0.930 . S
C659 C660 1.355 . S
C659 C661 1.425 . S
C660 C659 1.355 . S
C660 C662 1.419 . S
C661 C656 1.419 1_545 S
C661 C658 1.405 1_545 S
C661 C659 1.425 . S
C662 H652 0.930 1_554 S
C662 C660 1.419 . S
C662 C663 1.362 1_545 S
C663 H653 0.930 . S
C663 C656 1.409 . S
C663 C662 1.362 1_565 S
H664 C670 0.930 . S
H665 C673 0.930 . S
H666 C674 0.930 . S
H667 C675 0.930 . S
H668 C678 0.930 . S
H669 C679 0.930 . S
C670 H664 0.930 . S
C670 C671 1.355 . S
C670 C672 1.415 . S
C671 C670 1.355 . S
C671 C673 1.419 . S
C672 C670 1.415 . S
C672 C677 1.425 . S
C672 C679 1.409 . S
C673 H665 0.930 . S
C673 C671 1.419 . S
C673 C674 1.362 . S
C674 H666 0.930 . S
C674 C673 1.362 . S
C674 C677 1.409 . S
C675 H667 0.930 . S
C675 C676 1.355 . S
C675 C677 1.415 . S
C676 C675 1.355 . S
C676 C678 1.419 . S
C677 C672 1.425 . S
C677 C674 1.409 . S
C677 C675 1.415 . S
C678 H668 0.930 . S
C678 C676 1.419 . S
C678 C679 1.362 . S
C679 H669 0.930 . S
C679 C672 1.409 . S
C679 C678 1.362 . S
H680 C686 0.930 . S
H681 C689 0.930 . S
H682 C690 0.930 . S
H683 C691 0.930 . S
H684 C694 0.930 . S
H685 C695 0.930 . S
C686 H680 0.930 . S
C686 C687 1.355 . S
C686 C688 1.415 . S
C687 C686 1.355 . S
C687 C689 1.419 . S
C688 C686 1.415 . S
C688 C693 1.425 . S
C688 C695 1.409 . S
C689 H681 0.930 . S
C689 C687 1.419 . S
C689 C690 1.362 . S
C690 H682 0.930 . S
C690 C689 1.362 . S
C690 C693 1.409 . S
C691 H683 0.930 . S
C691 C692 1.355 . S
C691 C693 1.415 . S
C692 C691 1.355 . S
C692 C694 1.419 . S
C693 C688 1.425 . S
C693 C690 1.409 . S
C693 C691 1.415 . S
C694 H684 0.930 . S
C694 C692 1.419 . S
C694 C695 1.362 . S
C695 H685 0.930 . S
C695 C688 1.409 . S
C695 C694 1.362 . S
H696 C702 0.930 1_554 S
H697 C705 0.930 . S
H698 C706 0.930 . S
H699 C707 0.930 . S
H700 C710 0.930 . S
H701 C711 0.930 1_554 S
C702 H696 0.930 1_556 S
C702 C703 1.355 . S
C702 C704 1.415 . S
C703 C702 1.355 . S
C703 C705 1.419 . S
C704 C702 1.415 . S
C704 C709 1.425 . S
C704 C711 1.409 . S
C705 H697 0.930 . S
C705 C703 1.419 . S
C705 C706 1.362 . S
C706 H698 0.930 . S
C706 C705 1.362 . S
C706 C709 1.409 . S
C707 H699 0.930 . S
C707 C708 1.355 . S
C707 C709 1.415 . S
C708 C707 1.355 . S
C708 C710 1.419 . S
C709 C704 1.425 . S
C709 C706 1.409 . S
C709 C707 1.415 . S
C710 H700 0.930 . S
C710 C708 1.419 . S
C710 C711 1.362 . S
C711 H701 0.930 1_556 S
C711 C704 1.409 . S
C711 C710 1.362 . S
H712 C718 0.930 . S
H713 C721 0.930 1_554 S
H714 C722 0.939 1_554 S
H715 C723 0.930 . S
H716 C726 0.930 . S
H717 C727 0.930 . S
C718 H712 0.930 . S
C718 C719 1.355 . S
C718 C720 1.415 . S
C719 C718 1.355 . S
C719 C721 1.419 . S
C720 C718 1.415 . S
C720 C725 1.425 . S
C720 C727 1.409 . S
C721 H713 0.930 1_556 S
C721 C719 1.419 . S
C721 C722 1.362 . S
C722 H714 0.939 1_556 S
C722 C721 1.362 . S
C722 C725 1.409 . S
C723 H715 0.930 . S
C723 C724 1.355 . S
C723 C725 1.415 . S
C724 C723 1.355 . S
C724 C726 1.419 . S
C725 C720 1.425 . S
C725 C722 1.409 . S
C725 C723 1.415 . S
C726 H716 0.930 . S
C726 C724 1.419 . S
C726 C727 1.362 . S
C727 H717 0.930 . S
C727 C720 1.409 . S
C727 C726 1.362 . S
H728 C734 0.930 . S
H729 C737 0.930 . S
H730 C738 0.930 . S
H731 C739 0.930 . S
H732 C742 0.930 . S
H733 C743 0.930 . S
C734 H728 0.930 . S
C734 C735 1.355 . S
C734 C736 1.415 . S
C735 C734 1.355 . S
C735 C737 1.419 1_556 S
C736 C734 1.415 . S
C736 C741 1.425 . S
C736 C743 1.409 . S
C737 H729 0.930 . S
C737 C735 1.419 1_554 S
C737 C738 1.362 . S
C738 H730 0.930 . S
C738 C737 1.362 . S
C738 C741 1.409 1_554 S
C739 H731 0.930 . S
C739 C740 1.355 . S
C739 C741 1.415 . S
C740 C739 1.355 . S
C740 C742 1.419 . S
C741 C736 1.425 . S
C741 C738 1.409 1_556 S
C741 C739 1.415 . S
C742 H732 0.930 . S
C742 C740 1.419 . S
C742 C743 1.362 . S
C743 H733 0.930 . S
C743 C736 1.409 . S
C743 C742 1.362 . S
H744 C750 0.930 . S
H745 C753 0.930 1_554 S
H746 C754 0.931 1_554 S
H747 C755 0.930 . S
H748 C758 0.930 . S
H749 C759 0.930 . S
C750 H744 0.930 . S
C750 C751 1.355 . S
C750 C752 1.415 . S
C751 C750 1.355 . S
C751 C753 1.419 . S
C752 C750 1.415 . S
C752 C757 1.425 . S
C752 C759 1.409 . S
C753 H745 0.930 1_556 S
C753 C751 1.419 . S
C753 C754 1.362 . S
C754 H746 0.931 1_556 S
C754 C753 1.362 . S
C754 C757 1.409 . S
C755 H747 0.930 . S
C755 C756 1.355 . S
C755 C757 1.415 . S
C756 C755 1.355 . S
C756 C758 1.419 . S
C757 C752 1.425 . S
C757 C754 1.409 . S
C757 C755 1.415 . S
C758 H748 0.930 . S
C758 C756 1.419 . S
C758 C759 1.362 . S
C759 H749 0.930 . S
C759 C752 1.409 . S
C759 C758 1.362 . S
H760 C766 0.930 . S
H761 C769 0.920 1_455 S
H762 C770 0.930 . S
H763 C771 0.930 1_455 S
H764 C774 0.930 . S
H765 C775 0.930 . S
C766 H760 0.930 . S
C766 C767 1.355 . S
C766 C768 1.415 . S
C767 C766 1.355 . S
C767 C769 1.433 . S
C768 C766 1.415 . S
C768 C773 1.425 . S
C768 C775 1.409 . S
C769 H761 0.920 1_655 S
C769 C767 1.433 . S
C769 C770 1.358 1_655 S
C770 H762 0.930 . S
C770 C769 1.358 1_455 S
C770 C773 1.409 1_455 S
C771 H763 0.930 1_655 S
C771 C772 1.355 . S
C771 C773 1.415 . S
C772 C771 1.355 . S
C772 C774 1.419 . S
C773 C768 1.425 . S
C773 C770 1.409 1_655 S
C773 C771 1.415 . S
C774 H764 0.930 . S
C774 C772 1.419 . S
C774 C775 1.362 . S
C775 H765 0.930 . S
C775 C768 1.409 . S
C775 C774 1.362 . S
H776 C782 0.930 1_545 S
H777 C785 0.930 . S
H778 C786 0.930 . S
H779 C787 0.930 . S
H780 C790 0.930 . S
H781 C791 0.930 . S
C782 H776 0.930 1_565 S
C782 C783 1.355 . S
C782 C784 1.415 . S
C783 C782 1.355 . S
C783 C785 1.419 . S
C784 C782 1.415 . S
C784 C789 1.425 . S
C784 C791 1.409 1_565 S
C785 H777 0.930 . S
C785 C783 1.419 . S
C785 C786 1.362 . S
C786 H778 0.930 . S
C786 C785 1.362 . S
C786 C789 1.409 . S
C787 H779 0.930 . S
C787 C788 1.355 . S
C787 C789 1.415 . S
C788 C787 1.355 . S
C788 C790 1.419 1_565 S
C789 C784 1.425 . S
C789 C786 1.409 . S
C789 C787 1.415 . S
C790 H780 0.930 . S
C790 C788 1.419 1_545 S
C790 C791 1.362 . S
C791 H781 0.930 . S
C791 C784 1.409 1_545 S
C791 C790 1.362 . S
H792 C798 0.930 . S
H793 C801 0.930 . S
H794 C802 0.930 . S
H795 C803 0.930 . S
H796 C806 0.930 . S
H797 C807 0.930 . S
C798 H792 0.930 . S
C798 C799 1.355 . S
C798 C800 1.415 . S
C799 C798 1.355 . S
C799 C801 1.419 . S
C800 C798 1.415 . S
C800 C805 1.425 . S
C800 C807 1.409 . S
C801 H793 0.930 . S
C801 C799 1.419 . S
C801 C802 1.362 . S
C802 H794 0.930 . S
C802 C801 1.362 . S
C802 C805 1.409 . S
C803 H795 0.930 . S
C803 C804 1.355 . S
C803 C805 1.415 . S
C804 C803 1.355 . S
C804 C806 1.419 . S
C805 C800 1.425 . S
C805 C802 1.409 . S
C805 C803 1.415 . S
C806 H796 0.930 . S
C806 C804 1.419 . S
C806 C807 1.362 . S
C807 H797 0.930 . S
C807 C800 1.409 . S
C807 C806 1.362 . S
H808 C814 0.930 . S
H809 C817 0.930 . S
H810 C818 0.930 . S
H811 C819 0.930 . S
H812 C822 0.930 . S
H813 C823 0.930 . S
C814 H808 0.930 . S
C814 C815 1.355 . S
C814 C816 1.415 . S
C815 C814 1.355 . S
C815 C817 1.419 . S
C816 C814 1.415 . S
C816 C821 1.425 . S
C816 C823 1.409 . S
C817 H809 0.930 . S
C817 C815 1.419 . S
C817 C818 1.362 . S
C818 H810 0.930 . S
C818 C817 1.362 . S
C818 C821 1.409 . S
C819 H811 0.930 . S
C819 C820 1.355 . S
C819 C821 1.415 . S
C820 C819 1.355 . S
C820 C822 1.419 . S
C821 C816 1.425 . S
C821 C818 1.409 . S
C821 C819 1.415 . S
C822 H812 0.930 . S
C822 C820 1.419 . S
C822 C823 1.362 . S
C823 H813 0.930 . S
C823 C816 1.409 . S
C823 C822 1.362 . S
C447 N80 1.962 . S
C452 C178 2.003 . S
C468 C262 2.015 . S
C463 N93 1.965 . S
C484 C328 1.972 . S
C479 N54 2.036 . S
C500 C412 1.983 . S
C495 N67 2.046 . S
C516 C167 2.002 1_565 S
C511 N28 1.977 . S
C527 N41 1.949 . S
C532 C251 2.002 . S
C543 N2 2.012 . S
C548 C339 1.919 . S
C559 N15 2.059 . S
C564 C423 1.986 . S
C580 C174 0.662 . S
C575 N70 0.735 . S
C596 C258 0.599 . S
C591 N83 0.739 . S
C612 C330 0.690 . S
C607 N96 0.576 . S
C623 N57 0.607 . S
C628 C414 0.720 . S
C639 N18 0.627 . S
C644 C162 0.742 . S
C660 C246 0.693 . S
C655 N31 0.648 . S
C676 C342 0.645 . S
C671 N44 0.585 . S
C687 N5 0.651 . S
C692 C426 0.626 . S
C703 N66 2.169 . S
C708 C171 2.088 . S
C719 N79 2.100 . S
C724 C255 2.084 . S
C740 C335 2.115 . S
C735 N92 2.000 . S
C756 C419 2.140 . S
C751 N53 2.024 . S
C767 N14 2.154 . S
C772 C160 2.120 . S
C788 C244 2.040 . S
C783 N27 2.128 . S
C804 C346 2.078 . S
C799 N40 2.041 . S
C815 N1 2.038 . S
C820 C430 2.117 . S
