# Generated by pormake.
# Topology eea, (3,6)-cn, num edge types: 1
# Building blocks:
#     Node 0, Type 0, BuildingBlock: MIDCAF_clean_linker_0, # of connection points: 3
#     Node 1, Type 0, BuildingBlock: MIDCAF_clean_linker_0, # of connection points: 3
#     Node 2, Type 0, BuildingBlock: MIDCAF_clean_linker_0, # of connection points: 3
#     Node 3, Type 0, BuildingBlock: MIDCAF_clean_linker_0, # of connection points: 3
#     Node 4, Type 0, BuildingBlock: MIDCAF_clean_linker_0, # of connection points: 3
#     Node 5, Type 0, BuildingBlock: MIDCAF_clean_linker_0, # of connection points: 3
#     Node 6, Type 0, BuildingBlock: MIDCAF_clean_linker_0, # of connection points: 3
#     Node 7, Type 0, BuildingBlock: MIDCAF_clean_linker_0, # of connection points: 3
#     Node 8, Type 0, BuildingBlock: MIDCAF_clean_linker_0, # of connection points: 3
#     Node 9, Type 0, BuildingBlock: MIDCAF_clean_linker_0, # of connection points: 3
#     Node 10, Type 0, BuildingBlock: MIDCAF_clean_linker_0, # of connection points: 3
#     Node 11, Type 0, BuildingBlock: MIDCAF_clean_linker_0, # of connection points: 3
#     Node 12, Type 0, BuildingBlock: MIDCAF_clean_linker_0, # of connection points: 3
#     Node 13, Type 0, BuildingBlock: MIDCAF_clean_linker_0, # of connection points: 3
#     Node 14, Type 0, BuildingBlock: MIDCAF_clean_linker_0, # of connection points: 3
#     Node 15, Type 0, BuildingBlock: MIDCAF_clean_linker_0, # of connection points: 3
#     Node 16, Type 0, BuildingBlock: MIDCAF_clean_linker_0, # of connection points: 3
#     Node 17, Type 0, BuildingBlock: MIDCAF_clean_linker_0, # of connection points: 3
#     Node 18, Type 1, BuildingBlock: NUHQIS_clean_sbu_0, # of connection points: 6
#     Node 19, Type 1, BuildingBlock: NUHQIS_clean_sbu_0, # of connection points: 6
#     Node 20, Type 1, BuildingBlock: NUHQIS_clean_sbu_0, # of connection points: 6
#     Node 21, Type 1, BuildingBlock: NUHQIS_clean_sbu_0, # of connection points: 6
#     Node 22, Type 1, BuildingBlock: NUHQIS_clean_sbu_0, # of connection points: 6
#     Node 23, Type 1, BuildingBlock: NUHQIS_clean_sbu_0, # of connection points: 6
#     Node 24, Type 1, BuildingBlock: NUHQIS_clean_sbu_0, # of connection points: 6
#     Node 25, Type 1, BuildingBlock: NUHQIS_clean_sbu_0, # of connection points: 6
#     Node 26, Type 1, BuildingBlock: NUHQIS_clean_sbu_0, # of connection points: 6
#     Edge 27, Type (0, 1), BuildingBlock: KIFKEQ_clean_linker_1, # of connection points: 2
#     Edge 28, Type (0, 1), BuildingBlock: KIFKEQ_clean_linker_1, # of connection points: 2
#     Edge 29, Type (0, 1), BuildingBlock: KIFKEQ_clean_linker_1, # of connection points: 2
#     Edge 30, Type (0, 1), BuildingBlock: KIFKEQ_clean_linker_1, # of connection points: 2
#     Edge 31, Type (0, 1), BuildingBlock: KIFKEQ_clean_linker_1, # of connection points: 2
#     Edge 32, Type (0, 1), BuildingBlock: KIFKEQ_clean_linker_1, # of connection points: 2
#     Edge 33, Type (0, 1), BuildingBlock: KIFKEQ_clean_linker_1, # of connection points: 2
#     Edge 34, Type (0, 1), BuildingBlock: KIFKEQ_clean_linker_1, # of connection points: 2
#     Edge 35, Type (0, 1), BuildingBlock: KIFKEQ_clean_linker_1, # of connection points: 2
#     Edge 36, Type (0, 1), BuildingBlock: KIFKEQ_clean_linker_1, # of connection points: 2
#     Edge 37, Type (0, 1), BuildingBlock: KIFKEQ_clean_linker_1, # of connection points: 2
#     Edge 38, Type (0, 1), BuildingBlock: KIFKEQ_clean_linker_1, # of connection points: 2
#     Edge 39, Type (0, 1), BuildingBlock: KIFKEQ_clean_linker_1, # of connection points: 2
#     Edge 40, Type (0, 1), BuildingBlock: KIFKEQ_clean_linker_1, # of connection points: 2
#     Edge 41, Type (0, 1), BuildingBlock: KIFKEQ_clean_linker_1, # of connection points: 2
#     Edge 42, Type (0, 1), BuildingBlock: KIFKEQ_clean_linker_1, # of connection points: 2
#     Edge 43, Type (0, 1), BuildingBlock: KIFKEQ_clean_linker_1, # of connection points: 2
#     Edge 44, Type (0, 1), BuildingBlock: KIFKEQ_clean_linker_1, # of connection points: 2
#     Edge 45, Type (0, 1), BuildingBlock: KIFKEQ_clean_linker_1, # of connection points: 2
#     Edge 46, Type (0, 1), BuildingBlock: KIFKEQ_clean_linker_1, # of connection points: 2
#     Edge 47, Type (0, 1), BuildingBlock: KIFKEQ_clean_linker_1, # of connection points: 2
#     Edge 48, Type (0, 1), BuildingBlock: KIFKEQ_clean_linker_1, # of connection points: 2
#     Edge 49, Type (0, 1), BuildingBlock: KIFKEQ_clean_linker_1, # of connection points: 2
#     Edge 50, Type (0, 1), BuildingBlock: KIFKEQ_clean_linker_1, # of connection points: 2
#     Edge 51, Type (0, 1), BuildingBlock: KIFKEQ_clean_linker_1, # of connection points: 2
#     Edge 52, Type (0, 1), BuildingBlock: KIFKEQ_clean_linker_1, # of connection points: 2
#     Edge 53, Type (0, 1), BuildingBlock: KIFKEQ_clean_linker_1, # of connection points: 2
#     Edge 54, Type (0, 1), BuildingBlock: KIFKEQ_clean_linker_1, # of connection points: 2
#     Edge 55, Type (0, 1), BuildingBlock: KIFKEQ_clean_linker_1, # of connection points: 2
#     Edge 56, Type (0, 1), BuildingBlock: KIFKEQ_clean_linker_1, # of connection points: 2
#     Edge 57, Type (0, 1), BuildingBlock: KIFKEQ_clean_linker_1, # of connection points: 2
#     Edge 58, Type (0, 1), BuildingBlock: KIFKEQ_clean_linker_1, # of connection points: 2
#     Edge 59, Type (0, 1), BuildingBlock: KIFKEQ_clean_linker_1, # of connection points: 2
#     Edge 60, Type (0, 1), BuildingBlock: KIFKEQ_clean_linker_1, # of connection points: 2
#     Edge 61, Type (0, 1), BuildingBlock: KIFKEQ_clean_linker_1, # of connection points: 2
#     Edge 62, Type (0, 1), BuildingBlock: KIFKEQ_clean_linker_1, # of connection points: 2
#     Edge 63, Type (0, 1), BuildingBlock: KIFKEQ_clean_linker_1, # of connection points: 2
#     Edge 64, Type (0, 1), BuildingBlock: KIFKEQ_clean_linker_1, # of connection points: 2
#     Edge 65, Type (0, 1), BuildingBlock: KIFKEQ_clean_linker_1, # of connection points: 2
#     Edge 66, Type (0, 1), BuildingBlock: KIFKEQ_clean_linker_1, # of connection points: 2
#     Edge 67, Type (0, 1), BuildingBlock: KIFKEQ_clean_linker_1, # of connection points: 2
#     Edge 68, Type (0, 1), BuildingBlock: KIFKEQ_clean_linker_1, # of connection points: 2
#     Edge 69, Type (0, 1), BuildingBlock: KIFKEQ_clean_linker_1, # of connection points: 2
#     Edge 70, Type (0, 1), BuildingBlock: KIFKEQ_clean_linker_1, # of connection points: 2
#     Edge 71, Type (0, 1), BuildingBlock: KIFKEQ_clean_linker_1, # of connection points: 2
#     Edge 72, Type (0, 1), BuildingBlock: KIFKEQ_clean_linker_1, # of connection points: 2
#     Edge 73, Type (0, 1), BuildingBlock: KIFKEQ_clean_linker_1, # of connection points: 2
#     Edge 74, Type (0, 1), BuildingBlock: KIFKEQ_clean_linker_1, # of connection points: 2
#     Edge 75, Type (0, 1), BuildingBlock: KIFKEQ_clean_linker_1, # of connection points: 2
#     Edge 76, Type (0, 1), BuildingBlock: KIFKEQ_clean_linker_1, # of connection points: 2
#     Edge 77, Type (0, 1), BuildingBlock: KIFKEQ_clean_linker_1, # of connection points: 2
#     Edge 78, Type (0, 1), BuildingBlock: KIFKEQ_clean_linker_1, # of connection points: 2
#     Edge 79, Type (0, 1), BuildingBlock: KIFKEQ_clean_linker_1, # of connection points: 2
#     Edge 80, Type (0, 1), BuildingBlock: KIFKEQ_clean_linker_1, # of connection points: 2
# Relax obj value: 0.035
# Max RMSD: 0.133
# Mean RMSD: 0.075
data_MOF--net-eea--node1-NUHQIS_clean_sbu_0--node2-MIDCAF_clean_linker_0--edge1-KIFKEQ_clean_linker_1
_symmetry_space_group_name_H-M    P1
_symmetry_Int_Tables_number       1
_symmetry_cell_setting            triclinic
loop_
_symmetry_equiv_pos_as_xyz
'x, y, z'
_cell_length_a     63.346127
_cell_length_b     63.193111
_cell_length_c     90.437268
_cell_angle_alpha  93.318612
_cell_angle_beta   93.627908
_cell_angle_gamma 119.73561
loop_
_atom_site_label
_atom_site_type_symbol
_atom_site_fract_x
_atom_site_fract_y
_atom_site_fract_z
_atom_type_partial_charge
C0 C 0.27829 0.06488 0.40647 0.0
C1 C 0.26886 0.05911 0.39138 0.0
C2 C 0.26796 0.07732 0.38358 0.0
C3 C 0.27545 0.10044 0.39085 0.0
H4 H 0.27366 0.1646 0.38619 0.0
H5 H 0.25712 0.18828 0.37521 0.0
H6 H 0.26455 0.22488 0.41872 0.0
H7 H 0.28181 0.20181 0.42963 0.0
H8 H 0.31467 0.19562 0.45617 0.0
H9 H 0.32757 0.202 0.48281 0.0
H10 H 0.32385 0.13171 0.48032 0.0
H11 H 0.31174 0.12562 0.45378 0.0
H12 H 0.29246 0.09145 0.42544 0.0
H13 H 0.27893 0.05124 0.41291 0.0
H14 H 0.26119 0.07362 0.37188 0.0
H15 H 0.27401 0.11385 0.38459 0.0
N16 N 0.28385 0.14485 0.40777 0.0
N17 N 0.29682 0.1706 0.43018 0.0
N18 N 0.29933 0.13481 0.42873 0.0
C19 C 0.28731 0.16551 0.41566 0.0
C20 C 0.30301 0.15537 0.43677 0.0
C21 C 0.28985 0.12942 0.41424 0.0
C22 C 0.27897 0.18119 0.40881 0.0
C23 C 0.27195 0.17783 0.39341 0.0
C24 C 0.26231 0.19131 0.38712 0.0
C25 C 0.25929 0.20835 0.39609 0.0
C26 C 0.26688 0.21213 0.41144 0.0
C27 C 0.2767 0.1988 0.41771 0.0
C28 C 0.31208 0.16008 0.45279 0.0
C29 C 0.31679 0.18161 0.46128 0.0
C30 C 0.32405 0.18522 0.47658 0.0
C31 C 0.32669 0.16734 0.48371 0.0
C32 C 0.32238 0.14604 0.47516 0.0
C33 C 0.31526 0.14249 0.4599 0.0
C34 C 0.28412 0.10589 0.40607 0.0
C35 C 0.28593 0.08799 0.4137 0.0
C36 C 0.96598 0.19864 0.41617 0.0
C37 C 0.96576 0.19668 0.40055 0.0
C38 C 0.94348 0.18077 0.39187 0.0
C39 C 0.92222 0.16678 0.3986 0.0
H40 H 0.8582 0.10002 0.39024 0.0
H41 H 0.82755 0.06067 0.37708 0.0
H42 H 0.79262 0.03937 0.41746 0.0
H43 H 0.82263 0.07876 0.43045 0.0
H44 H 0.84134 0.11346 0.45837 0.0
H45 H 0.83397 0.12266 0.48318 0.0
H46 H 0.89629 0.19573 0.48531 0.0
H47 H 0.90415 0.18632 0.4603 0.0
H48 H 0.94548 0.18653 0.43494 0.0
H49 H 0.9828 0.21041 0.42326 0.0
H50 H 0.94236 0.17917 0.37983 0.0
H51 H 0.90548 0.15459 0.39153 0.0
N52 N 0.8823 0.13149 0.41341 0.0
N53 N 0.85949 0.12221 0.43382 0.0
N54 N 0.89742 0.15846 0.43542 0.0
C55 C 0.86194 0.11614 0.41967 0.0
C56 C 0.87696 0.14328 0.44178 0.0
C57 C 0.90014 0.15263 0.42118 0.0
C58 C 0.84295 0.09261 0.41142 0.0
C59 C 0.8439 0.087 0.39629 0.0
C60 C 0.82638 0.06437 0.38875 0.0
C61 C 0.8076 0.04681 0.3962 0.0
C62 C 0.80654 0.05258 0.41128 0.0
C63 C 0.82392 0.07519 0.41878 0.0
C64 C 0.8733 0.1492 0.45721 0.0
C65 C 0.85357 0.13156 0.46403 0.0
C66 C 0.84919 0.13688 0.47829 0.0
C67 C 0.8643 0.16005 0.48619 0.0
C68 C 0.88434 0.17766 0.47955 0.0
C69 C 0.8888 0.17228 0.46519 0.0
C70 C 0.92253 0.16856 0.41419 0.0
C71 C 0.94458 0.18488 0.4229 0.0
C72 C 0.81372 0.77051 0.42237 0.0
C73 C 0.8175 0.78114 0.40884 0.0
C74 C 0.83935 0.78732 0.40256 0.0
C75 C 0.85695 0.78298 0.40962 0.0
H76 H 0.92257 0.78835 0.40477 0.0
H77 H 0.95915 0.79825 0.39285 0.0
H78 H 0.9843 0.77105 0.42861 0.0
H79 H 0.94774 0.76156 0.44081 0.0
H80 H 0.91006 0.73548 0.46682 0.0
H81 H 0.90261 0.71972 0.49123 0.0
H82 H 0.84458 0.73651 0.49367 0.0
H83 H 0.8519 0.75221 0.46951 0.0
H84 H 0.82768 0.75793 0.43982 0.0
H85 H 0.79698 0.76519 0.42743 0.0
H86 H 0.84306 0.79585 0.39227 0.0
H87 H 0.87357 0.78808 0.40445 0.0
N88 N 0.8924 0.77255 0.42429 0.0
N89 N 0.90607 0.75938 0.44464 0.0
N90 N 0.86875 0.75893 0.4442 0.0
C91 C 0.9096 0.76842 0.43111 0.0
C92 C 0.88564 0.75464 0.45127 0.0
C93 C 0.8719 0.76782 0.43072 0.0
C94 C 0.93204 0.77409 0.42381 0.0
C95 C 0.9358 0.7844 0.41015 0.0
C96 C 0.95681 0.78997 0.40322 0.0
C97 C 0.97473 0.78539 0.40969 0.0
C98 C 0.97104 0.7751 0.42336 0.0
C99 C 0.94996 0.76951 0.43033 0.0
C100 C 0.88162 0.74516 0.46614 0.0
C101 C 0.89576 0.73587 0.47258 0.0
C102 C 0.89141 0.72671 0.48653 0.0
C103 C 0.87307 0.72696 0.49442 0.0
C104 C 0.85905 0.73633 0.48799 0.0
C105 C 0.86319 0.7452 0.47405 0.0
C106 C 0.85319 0.77238 0.42316 0.0
C107 C 0.83133 0.76621 0.42944 0.0
C108 C 0.03203 0.23089 0.60151 0.0
C109 C 0.02703 0.21818 0.61429 0.0
C110 C 0.04349 0.211 0.61983 0.0
C111 C 0.06442 0.21643 0.61285 0.0
H112 H 0.1212 0.20204 0.61337 0.0
H113 H 0.15008 0.19139 0.62467 0.0
H114 H 0.20598 0.24228 0.59937 0.0
H115 H 0.17673 0.25211 0.5876 0.0
H116 H 0.15477 0.26091 0.55672 0.0
H117 H 0.16258 0.27894 0.53333 0.0
H118 H 0.09903 0.28733 0.53462 0.0
H119 H 0.09073 0.26855 0.55799 0.0
H120 H 0.05628 0.24623 0.58473 0.0
H121 H 0.01991 0.23698 0.59703 0.0
H122 H 0.04007 0.20084 0.62949 0.0
H123 H 0.07656 0.21049 0.61749 0.0
N124 N 0.10823 0.2291 0.59899 0.0
N125 N 0.13323 0.24555 0.57993 0.0
N126 N 0.0965 0.24619 0.58002 0.0
C127 C 0.12893 0.23436 0.59266 0.0
C128 C 0.11713 0.25147 0.57348 0.0
C129 C 0.09193 0.23499 0.59282 0.0
C130 C 0.14662 0.22795 0.59957 0.0
C131 C 0.13964 0.21095 0.6102 0.0
C132 C 0.1563 0.20494 0.61676 0.0
C133 C 0.1805 0.21602 0.61302 0.0
C134 C 0.18744 0.23303 0.60237 0.0
C135 C 0.17067 0.23881 0.59567 0.0
C136 C 0.12206 0.26319 0.55932 0.0
C137 C 0.14241 0.26661 0.55211 0.0
C138 C 0.14703 0.27716 0.53867 0.0
C139 C 0.13153 0.28475 0.53206 0.0
C140 C 0.11122 0.28146 0.53929 0.0
C141 C 0.10652 0.27079 0.55275 0.0
C142 C 0.06949 0.22918 0.60009 0.0
C143 C 0.05299 0.23632 0.59449 0.0
C144 C 0.73086 0.7868 0.61245 0.0
C145 C 0.73623 0.78975 0.62802 0.0
C146 C 0.73196 0.80634 0.63654 0.0
C147 C 0.72322 0.82012 0.62962 0.0
H148 H 0.72975 0.88957 0.63538 0.0
H149 H 0.74646 0.93194 0.64602 0.0
H150 H 0.72661 0.9501 0.60406 0.0
H151 H 0.70995 0.90806 0.59337 0.0
H152 H 0.69118 0.87257 0.56606 0.0
H153 H 0.67929 0.8645 0.53937 0.0
H154 H 0.66746 0.79121 0.54032 0.0
H155 H 0.67942 0.79914 0.5672 0.0
H156 H 0.71838 0.79787 0.59353 0.0
H157 H 0.73434 0.7746 0.60546 0.0
H158 H 0.73541 0.80876 0.64857 0.0
H159 H 0.7205 0.83302 0.63648 0.0
N160 N 0.71585 0.85502 0.61363 0.0
N161 N 0.70091 0.86409 0.59201 0.0
N162 N 0.70078 0.82701 0.59213 0.0
C163 C 0.71093 0.87058 0.6064 0.0
C164 C 0.69564 0.84234 0.58481 0.0
C165 C 0.71078 0.83318 0.60657 0.0
C166 C 0.71869 0.89541 0.61347 0.0
C167 C 0.72871 0.90252 0.62846 0.0
C168 C 0.73821 0.92673 0.63458 0.0
C169 C 0.73805 0.94427 0.62578 0.0
C170 C 0.72729 0.93699 0.611 0.0
C171 C 0.71761 0.91283 0.60493 0.0
C172 C 0.68645 0.83656 0.5688 0.0
C173 C 0.68588 0.85463 0.56068 0.0
C174 C 0.6792 0.8501 0.54536 0.0
C175 C 0.67271 0.82734 0.53781 0.0
C176 C 0.67236 0.80891 0.54592 0.0
C177 C 0.67929 0.81351 0.56128 0.0
C178 C 0.71824 0.81737 0.61405 0.0
C179 C 0.72179 0.80028 0.60557 0.0
C180 C 0.19328 0.93212 0.61138 0.0
C181 C 0.18542 0.94649 0.61914 0.0
C182 C 0.16016 0.93653 0.62008 0.0
C183 C 0.14335 0.91297 0.6135 0.0
H184 H 0.08797 0.84078 0.62548 0.0
H185 H 0.05078 0.81622 0.63696 0.0
H186 H 0.01465 0.7749 0.59444 0.0
H187 H 0.05209 0.79961 0.5828 0.0
H188 H 0.09165 0.804 0.55746 0.0
H189 H 0.09944 0.79432 0.53251 0.0
H190 H 0.16706 0.86364 0.53677 0.0
H191 H 0.1598 0.87297 0.56155 0.0
H192 H 0.18296 0.89833 0.59838 0.0
H193 H 0.21251 0.93872 0.61068 0.0
H194 H 0.15317 0.94706 0.6256 0.0
H195 H 0.12405 0.90595 0.61429 0.0
N196 N 0.11248 0.8601 0.60362 0.0
N197 N 0.09955 0.83116 0.58266 0.0
N198 N 0.13733 0.86767 0.58427 0.0
C199 C 0.09556 0.83811 0.59627 0.0
C200 C 0.12053 0.84595 0.5766 0.0
C201 C 0.1334 0.87488 0.5977 0.0
C202 C 0.07301 0.82225 0.60318 0.0
C203 C 0.07217 0.82644 0.61852 0.0
C204 C 0.05089 0.81225 0.62516 0.0
C205 C 0.02982 0.79365 0.61661 0.0
C206 C 0.03061 0.78926 0.60128 0.0
C207 C 0.05207 0.8033 0.59464 0.0
C208 C 0.12507 0.83925 0.56159 0.0
C209 C 0.10825 0.81707 0.5531 0.0
C210 C 0.11265 0.81158 0.53877 0.0
C211 C 0.13396 0.82814 0.53265 0.0
C212 C 0.15073 0.8502 0.5412 0.0
C213 C 0.14641 0.85563 0.55545 0.0
C214 C 0.15129 0.89906 0.60546 0.0
C215 C 0.17638 0.90883 0.60443 0.0
C216 C 0.94974 0.40628 0.73621 0.0
C217 C 0.92649 0.39317 0.72799 0.0
C218 C 0.9126 0.40486 0.72628 0.0
C219 C 0.9216 0.42879 0.73263 0.0
H220 H 0.93837 0.50175 0.72075 0.0
H221 H 0.9235 0.52665 0.70964 0.0
H222 H 0.93443 0.56582 0.75281 0.0
H223 H 0.95009 0.54144 0.76386 0.0
H224 H 0.98667 0.53602 0.78904 0.0
H225 H 0.00098 0.54352 0.81549 0.0
H226 H 0.99116 0.47069 0.8145 0.0
H227 H 0.97767 0.46346 0.78808 0.0
H228 H 0.97613 0.43945 0.74944 0.0
H229 H 0.96133 0.39829 0.73751 0.0
H230 H 0.8944 0.39539 0.7204 0.0
H231 H 0.91026 0.43709 0.7313 0.0
N232 N 0.94682 0.48139 0.74261 0.0
N233 N 0.96427 0.5091 0.76415 0.0
N234 N 0.96435 0.47195 0.76292 0.0
C235 C 0.95277 0.5032 0.75008 0.0
C236 C 0.97018 0.49357 0.77064 0.0
C237 C 0.95268 0.46579 0.74893 0.0
C238 C 0.94529 0.51949 0.74322 0.0
C239 C 0.93775 0.51577 0.72787 0.0
C240 C 0.92908 0.52997 0.7215 0.0
C241 C 0.92752 0.54809 0.73034 0.0
C242 C 0.93563 0.55222 0.74563 0.0
C243 C 0.94453 0.53815 0.75199 0.0
C244 C 0.98086 0.49908 0.78641 0.0
C245 C 0.98781 0.52169 0.79443 0.0
C246 C 0.99587 0.52595 0.80963 0.0
C247 C 0.99707 0.50766 0.81717 0.0
C248 C 0.99079 0.48533 0.80904 0.0
C249 C 0.98289 0.48113 0.79385 0.0
C250 C 0.94437 0.44139 0.74121 0.0
C251 C 0.95841 0.42999 0.74294 0.0
C252 C 0.63192 0.54576 0.74791 0.0
C253 C 0.63446 0.53685 0.73391 0.0
C254 C 0.61574 0.5139 0.7273 0.0
C255 C 0.59515 0.49998 0.7346 0.0
H256 H 0.52862 0.43624 0.72871 0.0
H257 H 0.49874 0.39488 0.71771 0.0
H258 H 0.46969 0.37723 0.76005 0.0
H259 H 0.4995 0.41837 0.77112 0.0
H260 H 0.52512 0.45504 0.79879 0.0
H261 H 0.52107 0.46595 0.8242 0.0
H262 H 0.56826 0.54251 0.81916 0.0
H263 H 0.57256 0.5316 0.79345 0.0
H264 H 0.61018 0.53905 0.76614 0.0
H265 H 0.64613 0.5633 0.75336 0.0
H266 H 0.61699 0.50668 0.71643 0.0
H267 H 0.58124 0.48228 0.72917 0.0
N268 N 0.55405 0.47055 0.75032 0.0
N269 N 0.53381 0.46294 0.7718 0.0
N270 N 0.56985 0.50038 0.77095 0.0
C271 C 0.53512 0.45544 0.75772 0.0
C272 C 0.55095 0.48533 0.77849 0.0
C273 C 0.57152 0.49303 0.75681 0.0
C274 C 0.51655 0.43065 0.75082 0.0
C275 C 0.51585 0.42359 0.73568 0.0
C276 C 0.49867 0.39995 0.72935 0.0
C277 C 0.48199 0.38286 0.73805 0.0
C278 C 0.48253 0.38996 0.75313 0.0
C279 C 0.49955 0.41361 0.75943 0.0
C280 C 0.54916 0.49247 0.79405 0.0
C281 C 0.53471 0.47424 0.80302 0.0
C282 C 0.5325 0.48045 0.81764 0.0
C283 C 0.54445 0.50504 0.82365 0.0
C284 C 0.55883 0.52339 0.81474 0.0
C285 C 0.56137 0.51714 0.80009 0.0
C286 C 0.59279 0.50861 0.74876 0.0
C287 C 0.61134 0.53179 0.75527 0.0
C288 C 0.48149 0.10028 0.75463 0.0
C289 C 0.48663 0.11316 0.74194 0.0
C290 C 0.5091 0.12039 0.73622 0.0
C291 C 0.52599 0.11483 0.74299 0.0
H292 H 0.59845 0.13095 0.74448 0.0
H293 H 0.6356 0.14145 0.73279 0.0
H294 H 0.64273 0.0861 0.75468 0.0
H295 H 0.60555 0.07566 0.76664 0.0
H296 H 0.57539 0.06061 0.79792 0.0
H297 H 0.56628 0.04189 0.82131 0.0
H298 H 0.50478 0.05366 0.82258 0.0
H299 H 0.51332 0.07154 0.79921 0.0
H300 H 0.49377 0.0849 0.7712 0.0
H301 H 0.46449 0.0947 0.75943 0.0
H302 H 0.51351 0.13009 0.72636 0.0
H303 H 0.54306 0.12064 0.73822 0.0
N304 N 0.55978 0.10159 0.75688 0.0
N305 N 0.57123 0.08459 0.77609 0.0
N306 N 0.53428 0.08487 0.77566 0.0
C307 C 0.57609 0.09593 0.76334 0.0
C308 C 0.55034 0.07913 0.78237 0.0
C309 C 0.53876 0.09601 0.76292 0.0
C310 C 0.59899 0.10243 0.75651 0.0
C311 C 0.6079 0.12099 0.74685 0.0
C312 C 0.62927 0.12713 0.7402 0.0
C313 C 0.64205 0.11461 0.74283 0.0
C314 C 0.63315 0.09596 0.75241 0.0
C315 C 0.61196 0.0901 0.75931 0.0
C316 C 0.54508 0.06756 0.79658 0.0
C317 C 0.55987 0.05911 0.80317 0.0
C318 C 0.55471 0.04847 0.81664 0.0
C319 C 0.53469 0.0461 0.82386 0.0
C320 C 0.52002 0.05464 0.81725 0.0
C321 C 0.52507 0.06511 0.80381 0.0
C322 C 0.52087 0.10198 0.7557 0.0
C323 C 0.4984 0.0948 0.76143 0.0
C324 C 0.69861 0.56444 0.93372 0.0
C325 C 0.69425 0.553 0.94699 0.0
C326 C 0.71167 0.54756 0.95324 0.0
C327 C 0.73282 0.55331 0.94642 0.0
H328 H 0.79291 0.54588 0.95087 0.0
H329 H 0.82233 0.53631 0.96265 0.0
H330 H 0.87194 0.57292 0.93006 0.0
H331 H 0.84229 0.58196 0.91801 0.0
H332 H 0.82097 0.5928 0.88909 0.0
H333 H 0.82966 0.6112 0.86587 0.0
H334 H 0.7694 0.62477 0.86804 0.0
H335 H 0.76016 0.60556 0.89127 0.0
H336 H 0.72248 0.57887 0.91663 0.0
H337 H 0.68547 0.56867 0.9285 0.0
H338 H 0.70914 0.53912 0.96356 0.0
H339 H 0.74574 0.54882 0.95166 0.0
N340 N 0.77638 0.56535 0.93246 0.0
N341 N 0.80115 0.58093 0.91321 0.0
N342 N 0.76418 0.58119 0.91293 0.0
C343 C 0.79711 0.57047 0.9262 0.0
C344 C 0.78486 0.58635 0.90647 0.0
C345 C 0.75981 0.57062 0.92596 0.0
C346 C 0.81514 0.56471 0.93345 0.0
C347 C 0.81007 0.55191 0.94618 0.0
C348 C 0.82704 0.54653 0.95301 0.0
C349 C 0.84958 0.55387 0.94734 0.0
C350 C 0.85465 0.56666 0.93462 0.0
C351 C 0.83764 0.57198 0.92775 0.0
C352 C 0.78986 0.59769 0.89217 0.0
C353 C 0.80951 0.59969 0.8847 0.0
C354 C 0.81464 0.61046 0.87136 0.0
C355 C 0.80042 0.61975 0.86507 0.0
C356 C 0.78064 0.61764 0.87246 0.0
C357 C 0.77539 0.6067 0.88584 0.0
C358 C 0.73721 0.56468 0.93312 0.0
C359 C 0.7198 0.57017 0.92686 0.0
C360 C 0.39626 0.12035 0.94532 0.0
C361 C 0.40589 0.12464 0.9603 0.0
C362 C 0.40547 0.14294 0.96964 0.0
C363 C 0.39621 0.15716 0.96399 0.0
H364 H 0.41302 0.23013 0.96789 0.0
H365 H 0.42894 0.27188 0.97929 0.0
H366 H 0.37531 0.27843 0.95112 0.0
H367 H 0.3594 0.23672 0.93953 0.0
H368 H 0.34361 0.20465 0.9071 0.0
H369 H 0.32995 0.19843 0.88064 0.0
H370 H 0.34059 0.13605 0.87564 0.0
H371 H 0.35367 0.14181 0.90212 0.0
H372 H 0.37982 0.13081 0.92803 0.0
H373 H 0.39611 0.10615 0.93793 0.0
H374 H 0.41293 0.14673 0.98122 0.0
H375 H 0.39657 0.17143 0.97143 0.0
N376 N 0.3838 0.19055 0.95057 0.0
N377 N 0.36576 0.20016 0.93059 0.0
N378 N 0.36718 0.16377 0.92862 0.0
C379 C 0.37735 0.20603 0.94462 0.0
C380 C 0.36058 0.17904 0.92252 0.0
C381 C 0.37862 0.16929 0.94268 0.0
C382 C 0.38504 0.23016 0.95272 0.0
C383 C 0.40436 0.2403 0.96425 0.0
C384 C 0.41358 0.26422 0.97073 0.0
C385 C 0.40342 0.27831 0.96599 0.0
C386 C 0.38338 0.26785 0.95499 0.0
C387 C 0.37439 0.24404 0.94832 0.0
C388 C 0.34997 0.17387 0.90676 0.0
C389 C 0.34281 0.18944 0.90042 0.0
C390 C 0.3351 0.18597 0.88521 0.0
C391 C 0.33442 0.1669 0.876 0.0
C392 C 0.34068 0.15078 0.88244 0.0
C393 C 0.34832 0.15419 0.89765 0.0
C394 C 0.38699 0.15322 0.94891 0.0
C395 C 0.38679 0.1344 0.93969 0.0
C396 C 0.85558 0.28042 0.93633 0.0
C397 C 0.85505 0.28737 0.95128 0.0
C398 C 0.83695 0.27036 0.95937 0.0
C399 C 0.81957 0.2471 0.9526 0.0
H400 H 0.75184 0.19014 0.95663 0.0
H401 H 0.71464 0.16665 0.96819 0.0
H402 H 0.68659 0.11054 0.93099 0.0
H403 H 0.72379 0.13439 0.91913 0.0
H404 H 0.75712 0.144 0.8906 0.0
H405 H 0.76453 0.13305 0.86578 0.0
H406 H 0.83369 0.20079 0.86978 0.0
H407 H 0.82677 0.21138 0.89432 0.0
H408 H 0.83924 0.25256 0.91801 0.0
H409 H 0.86899 0.29315 0.92969 0.0
H410 H 0.83625 0.27495 0.97099 0.0
H411 H 0.80584 0.23449 0.95914 0.0
N412 N 0.78094 0.20138 0.93667 0.0
N413 N 0.7667 0.17167 0.91602 0.0
N414 N 0.80434 0.20803 0.91669 0.0
C415 C 0.76346 0.1793 0.92968 0.0
C416 C 0.78726 0.18604 0.90948 0.0
C417 C 0.8014 0.21585 0.93024 0.0
C418 C 0.74091 0.16424 0.93687 0.0
C419 C 0.73784 0.17278 0.95085 0.0
C420 C 0.7165 0.15921 0.95758 0.0
C421 C 0.6976 0.13669 0.95055 0.0
C422 C 0.70067 0.12798 0.93663 0.0
C423 C 0.72208 0.1416 0.92987 0.0
C424 C 0.79131 0.17856 0.89453 0.0
C425 C 0.77395 0.15643 0.88619 0.0
C426 C 0.77815 0.15021 0.87195 0.0
C427 C 0.79981 0.16595 0.86584 0.0
C428 C 0.81706 0.18796 0.87423 0.0
C429 C 0.81293 0.19413 0.88835 0.0
C430 C 0.82005 0.24024 0.93762 0.0
C431 C 0.83838 0.25712 0.9296 0.0
C432 C 0.61706 0.73898 0.07167 0.0
C433 C 0.60096 0.73034 0.05852 0.0
C434 C 0.5946 0.74618 0.05184 0.0
C435 C 0.60354 0.76999 0.05842 0.0
H436 H 0.61572 0.84072 0.05059 0.0
H437 H 0.6005 0.86507 0.039 0.0
H438 H 0.60152 0.89798 0.08252 0.0
H439 H 0.61778 0.87453 0.09399 0.0
H440 H 0.6615 0.87443 0.11856 0.0
H441 H 0.67573 0.88334 0.14504 0.0
H442 H 0.65783 0.80812 0.14702 0.0
H443 H 0.64451 0.79946 0.12052 0.0
H444 H 0.63772 0.76863 0.0887 0.0
H445 H 0.62215 0.72708 0.0771 0.0
H446 H 0.58244 0.74005 0.04159 0.0
H447 H 0.59781 0.78151 0.05311 0.0
N448 N 0.62076 0.81829 0.07293 0.0
N449 N 0.63612 0.84569 0.09464 0.0
N450 N 0.63663 0.80881 0.094 0.0
C451 C 0.6257 0.83982 0.08032 0.0
C452 C 0.64177 0.83034 0.10153 0.0
C453 C 0.6262 0.80269 0.07967 0.0
C454 C 0.61795 0.85569 0.07321 0.0
C455 C 0.61289 0.85333 0.05765 0.0
C456 C 0.60398 0.86716 0.05102 0.0
C457 C 0.59961 0.88342 0.0598 0.0
C458 C 0.60504 0.88599 0.07535 0.0
C459 C 0.61429 0.87244 0.08196 0.0
C460 C 0.65179 0.8362 0.11741 0.0
C461 C 0.66079 0.85984 0.12463 0.0
C462 C 0.66882 0.86492 0.13984 0.0
C463 C 0.66784 0.84644 0.14821 0.0
C464 C 0.65925 0.82293 0.1409 0.0
C465 C 0.65146 0.81791 0.12568 0.0
C466 C 0.61886 0.77838 0.07192 0.0
C467 C 0.62586 0.76274 0.07835 0.0
C468 C 0.3038 0.88108 0.08465 0.0
C469 C 0.30447 0.87601 0.06937 0.0
C470 C 0.28309 0.85736 0.06104 0.0
C471 C 0.26182 0.84373 0.06784 0.0
H472 H 0.20421 0.77209 0.06464 0.0
H473 H 0.17465 0.73093 0.0534 0.0
H474 H 0.12631 0.72435 0.08671 0.0
H475 H 0.15606 0.76516 0.0982 0.0
H476 H 0.18162 0.79718 0.12865 0.0
H477 H 0.17489 0.80845 0.15316 0.0
H478 H 0.23382 0.88261 0.15188 0.0
H479 H 0.24116 0.87106 0.12725 0.0
H480 H 0.28265 0.87171 0.10327 0.0
H481 H 0.31997 0.89509 0.09149 0.0
H482 H 0.2827 0.85327 0.04919 0.0
H483 H 0.2458 0.82939 0.06104 0.0
N484 N 0.22152 0.81108 0.08334 0.0
N485 N 0.1984 0.80392 0.10354 0.0
N486 N 0.23587 0.84047 0.10416 0.0
C487 C 0.20119 0.79636 0.08984 0.0
C488 C 0.21553 0.82587 0.11079 0.0
C489 C 0.23892 0.83315 0.09037 0.0
C490 C 0.18264 0.77193 0.0824 0.0
C491 C 0.18723 0.76194 0.06954 0.0
C492 C 0.17021 0.73835 0.06304 0.0
C493 C 0.14814 0.72426 0.0692 0.0
C494 C 0.14331 0.7345 0.08184 0.0
C495 C 0.16036 0.758 0.08838 0.0
C496 C 0.21189 0.83324 0.12588 0.0
C497 C 0.19319 0.81595 0.13349 0.0
C498 C 0.18918 0.82247 0.14758 0.0
C499 C 0.20357 0.84654 0.15446 0.0
C500 C 0.22247 0.86387 0.14694 0.0
C501 C 0.22662 0.85727 0.1328 0.0
C502 C 0.26125 0.84855 0.08314 0.0
C503 C 0.2824 0.86759 0.09144 0.0
C504 C 0.15385 0.44486 0.0915 0.0
C505 C 0.15483 0.45006 0.07658 0.0
C506 C 0.1728 0.44924 0.06861 0.0
C507 C 0.18956 0.44357 0.07544 0.0
H508 H 0.2508 0.43948 0.06867 0.0
H509 H 0.28721 0.4492 0.05657 0.0
H510 H 0.32243 0.44439 0.09772 0.0
H511 H 0.28552 0.43385 0.10977 0.0
H512 H 0.24322 0.3984 0.1333 0.0
H513 H 0.23534 0.38199 0.15747 0.0
H514 H 0.17891 0.40095 0.16066 0.0
H515 H 0.18673 0.41739 0.13672 0.0
H516 H 0.16915 0.4351 0.10983 0.0
H517 H 0.14006 0.4451 0.09789 0.0
H518 H 0.17415 0.45336 0.05713 0.0
H519 H 0.20323 0.44325 0.06897 0.0
N520 N 0.22643 0.43604 0.09099 0.0
N521 N 0.23973 0.42254 0.11133 0.0
N522 N 0.20341 0.42403 0.11129 0.0
C523 C 0.24317 0.43118 0.0977 0.0
C524 C 0.21978 0.41884 0.11818 0.0
C525 C 0.20654 0.43257 0.09771 0.0
C526 C 0.26519 0.43599 0.09026 0.0
C527 C 0.26625 0.44041 0.07518 0.0
C528 C 0.28727 0.44617 0.06823 0.0
C529 C 0.30798 0.4479 0.07617 0.0
C530 C 0.30679 0.44302 0.09119 0.0
C531 C 0.28562 0.43705 0.09813 0.0
C532 C 0.21563 0.40925 0.133 0.0
C533 C 0.2292 0.39917 0.13918 0.0
C534 C 0.2246 0.38962 0.15299 0.0
C535 C 0.20653 0.39022 0.161 0.0
C536 C 0.19315 0.40047 0.15487 0.0
C537 C 0.19757 0.40977 0.14106 0.0
C538 C 0.18861 0.43837 0.09039 0.0
C539 C 0.17046 0.43898 0.09831 0.0
C540 C 0.35929 0.88933 0.26304 0.0
C541 C 0.35734 0.88322 0.27783 0.0
C542 C 0.37738 0.88339 0.28563 0.0
C543 C 0.39852 0.88909 0.27882 0.0
H544 H 0.45253 0.86724 0.27727 0.0
H545 H 0.48212 0.85702 0.28847 0.0
H546 H 0.53802 0.9103 0.26438 0.0
H547 H 0.50852 0.92036 0.25302 0.0
H548 H 0.48453 0.92307 0.22033 0.0
H549 H 0.49365 0.94155 0.19717 0.0
H550 H 0.43316 0.95486 0.19872 0.0
H551 H 0.42347 0.93556 0.22192 0.0
H552 H 0.38134 0.89967 0.24483 0.0
H553 H 0.3442 0.88911 0.25658 0.0
H554 H 0.3769 0.87936 0.29712 0.0
H555 H 0.41346 0.88897 0.28525 0.0
N556 N 0.43944 0.89536 0.26338 0.0
N557 N 0.46435 0.91111 0.2442 0.0
N558 N 0.42734 0.91126 0.2438 0.0
C559 C 0.4602 0.90053 0.25714 0.0
C560 C 0.44809 0.91649 0.2374 0.0
C561 C 0.42294 0.90073 0.25685 0.0
C562 C 0.47814 0.8946 0.26423 0.0
C563 C 0.47114 0.87682 0.27438 0.0
C564 C 0.48801 0.87085 0.28072 0.0
C565 C 0.51232 0.88286 0.27726 0.0
C566 C 0.51941 0.90085 0.26729 0.0
C567 C 0.50247 0.9065 0.26074 0.0
C568 C 0.45326 0.92784 0.22311 0.0
C569 C 0.47309 0.92993 0.21582 0.0
C570 C 0.47848 0.94073 0.20251 0.0
C571 C 0.46434 0.95 0.19608 0.0
C572 C 0.44435 0.94777 0.20327 0.0
C573 C 0.43885 0.93679 0.21663 0.0
C574 C 0.40043 0.89505 0.26402 0.0
C575 C 0.3806 0.89527 0.25625 0.0
C576 C 0.06066 0.44863 0.28084 0.0
C577 C 0.0745 0.45602 0.29484 0.0
C578 C 0.0779 0.47711 0.30318 0.0
C579 C 0.0681 0.49084 0.29751 0.0
H580 H 0.07127 0.55571 0.30591 0.0
H581 H 0.085 0.59629 0.31841 0.0
H582 H 0.04222 0.6084 0.28444 0.0
H583 H 0.0283 0.56781 0.27192 0.0
H584 H 0.02237 0.54139 0.23988 0.0
H585 H 0.01156 0.53688 0.21317 0.0
H586 H 0.00678 0.46618 0.20948 0.0
H587 H 0.01758 0.47052 0.23633 0.0
H588 H 0.04078 0.45651 0.26417 0.0
H589 H 0.05788 0.43251 0.27413 0.0
H590 H 0.08819 0.48303 0.31409 0.0
H591 H 0.0714 0.50718 0.3042 0.0
N592 N 0.04954 0.51994 0.28514 0.0
N593 N 0.03327 0.53043 0.26478 0.0
N594 N 0.03622 0.49487 0.26249 0.0
C595 C 0.04306 0.53537 0.27919 0.0
C596 C 0.02973 0.51023 0.25635 0.0
C597 C 0.04607 0.49958 0.27692 0.0
C598 C 0.04889 0.55859 0.2878 0.0
C599 C 0.06446 0.56682 0.3012 0.0
C600 C 0.07244 0.59011 0.30834 0.0
C601 C 0.06483 0.60551 0.30231 0.0
C602 C 0.04826 0.59683 0.28937 0.0
C603 C 0.04043 0.57363 0.28215 0.0
C604 C 0.02103 0.50638 0.24029 0.0
C605 C 0.01883 0.52474 0.23346 0.0
C606 C 0.01278 0.52227 0.21812 0.0
C607 C 0.00857 0.50131 0.20926 0.0
C608 C 0.00987 0.48251 0.21608 0.0
C609 C 0.01614 0.48506 0.23145 0.0
C610 C 0.0548 0.48389 0.28332 0.0
C611 C 0.05096 0.46245 0.27512 0.0
C612 C 0.51624 0.60117 0.26973 0.0
C613 C 0.51765 0.60642 0.28521 0.0
C614 C 0.50181 0.58775 0.29348 0.0
C615 C 0.48472 0.56461 0.28642 0.0
H616 H 0.41094 0.5118 0.28662 0.0
H617 H 0.37454 0.48723 0.29857 0.0
H618 H 0.35824 0.42368 0.26887 0.0
H619 H 0.39443 0.44874 0.25642 0.0
H620 H 0.42486 0.46069 0.22576 0.0
H621 H 0.4316 0.44963 0.20082 0.0
H622 H 0.49011 0.52401 0.19962 0.0
H623 H 0.48394 0.53483 0.2244 0.0
H624 H 0.49865 0.57465 0.25074 0.0
H625 H 0.52777 0.61516 0.26293 0.0
H626 H 0.50266 0.59093 0.30545 0.0
H627 H 0.47275 0.55071 0.29312 0.0
N628 N 0.44499 0.52003 0.2701 0.0
N629 N 0.43069 0.49065 0.24929 0.0
N630 N 0.46746 0.52789 0.24956 0.0
C631 C 0.42777 0.49782 0.26315 0.0
C632 C 0.45058 0.50571 0.24242 0.0
C633 C 0.46489 0.53512 0.2634 0.0
C634 C 0.40568 0.48226 0.27054 0.0
C635 C 0.3997 0.49256 0.28263 0.0
C636 C 0.37881 0.47837 0.28959 0.0
C637 C 0.36342 0.45335 0.28481 0.0
C638 C 0.36946 0.44295 0.27275 0.0
C639 C 0.39029 0.45729 0.26565 0.0
C640 C 0.45395 0.4986 0.22718 0.0
C641 C 0.43918 0.47464 0.22016 0.0
C642 C 0.44298 0.46832 0.20585 0.0
C643 C 0.46158 0.48586 0.19826 0.0
C644 C 0.47603 0.50985 0.20524 0.0
C645 C 0.47235 0.5161 0.21949 0.0
C646 C 0.48329 0.55947 0.27094 0.0
C647 C 0.49939 0.57794 0.2627 0.0
Tb648 Tb 0.49186 0.98619 0.9945 0.0
Eu649 Eu 0.5125 0.02108 0.0269 0.0
C650 C 0.52182 0.97679 0.01903 0.0
C651 C 0.46117 0.97165 0.02203 0.0
C652 C 0.48379 0.96999 0.9539 0.0
C653 C 0.49198 0.96227 0.92882 0.0
C654 C 0.48627 0.95484 0.94303 0.0
C655 C 0.48722 0.99278 0.95037 0.0
C656 C 0.49268 1.00011 0.93614 0.0
C657 C 0.49516 0.98496 0.9252 0.0
C658 C 0.47867 0.9624 0.96901 0.0
O659 O 0.49047 0.01909 0.99077 0.0
O660 O 0.48664 0.03022 0.01457 0.0
O661 O 0.53755 0.04461 0.01074 0.0
O662 O 0.53017 0.0129 0.99337 0.0
C663 C 0.48387 0.03081 1.00013 0.0
O664 O 0.50573 0.0401 0.04531 0.0
O665 O 0.53941 0.03911 0.04642 0.0
O666 O 0.53198 0.99979 0.02446 0.0
O667 O 0.50172 0.96634 0.00978 0.0
O668 O 0.46064 0.97294 1.00755 0.0
O669 O 0.4815 0.98448 0.0309 0.0
C670 C 0.54325 0.03598 0.99899 0.0
O671 O 0.49738 0.96549 0.97771 0.0
O672 O 0.46543 0.96944 0.97598 0.0
C673 C 0.52067 0.03584 0.06872 0.0
C674 C 0.5088 0.01863 0.09691 0.0
C675 C 0.51177 0.04152 0.09395 0.0
C676 C 0.51771 0.05005 0.08 0.0
C677 C 0.5177 0.01296 0.07162 0.0
C678 C 0.51198 0.00452 0.0856 0.0
C679 C 0.52509 0.04419 0.05374 0.0
H680 H 0.49362 0.95014 0.92061 0.0
H681 H 0.48389 0.93728 0.94557 0.0
H682 H 0.48583 0.00501 0.95864 0.0
H683 H 0.49536 0.01784 0.93377 0.0
H684 H 0.50964 0.0529 0.10246 0.0
H685 H 0.51968 0.06763 0.07794 0.0
H686 H 0.51945 0.00146 0.063 0.0
H687 H 0.5095 0.98668 0.08744 0.0
Tb688 Tb 0.01888 0.5105 0.99833 0.0
Eu689 Eu 0.98689 0.49658 0.02731 0.0
C690 C 0.03283 0.54976 0.02548 0.0
C691 C 0.03557 0.49373 0.02703 0.0
C692 C 0.03788 0.52026 0.95989 0.0
C693 C 0.05037 0.53832 0.93678 0.0
C694 C 0.05473 0.53896 0.95217 0.0
C695 C 0.01643 0.50092 0.95206 0.0
C696 C 0.01216 0.50015 0.93663 0.0
C697 C 0.02912 0.51883 0.92884 0.0
C698 C 0.04306 0.52133 0.97608 0.0
O699 O 0.98552 0.47625 0.99079 0.0
O700 O 0.97718 0.4617 0.01354 0.0
O701 O 0.96281 0.49821 0.00867 0.0
O702 O 0.99279 0.52327 0.99467 0.0
C703 C 0.97439 0.4581 0.99897 0.0
O704 O 0.96847 0.47055 0.04331 0.0
O705 O 0.96678 0.50398 0.0436 0.0
O706 O 0.01066 0.53759 0.0295 0.0
O707 O 0.04088 0.53969 0.01595 0.0
O708 O 0.03271 0.49213 0.01238 0.0
O709 O 0.02291 0.50014 0.03525 0.0
C710 C 0.97023 0.51319 0.99826 0.0
O711 O 0.03964 0.53685 0.98421 0.0
O712 O 0.03476 0.50044 0.98169 0.0
C713 C 0.96619 0.48745 0.06651 0.0
C714 C 0.9754 0.49106 0.09766 0.0
C715 C 0.95453 0.47068 0.09004 0.0
C716 C 0.94996 0.46893 0.07459 0.0
C717 C 0.98703 0.50791 0.07404 0.0
C718 C 0.99152 0.50977 0.08953 0.0
C719 C 0.96159 0.48441 0.05021 0.0
H720 H 0.06384 0.55284 0.93104 0.0
H721 H 0.07135 0.55404 0.95805 0.0
H722 H 0.00303 0.48641 0.95784 0.0
H723 H 0.9955 0.48507 0.9308 0.0
H724 H 0.94168 0.45612 0.09603 0.0
H725 H 0.93384 0.45297 0.06892 0.0
H726 H 0.99994 0.52226 0.06795 0.0
H727 H 0.00787 0.52555 0.09512 0.0
Tb728 Tb 0.5127 0.49994 0.02585 0.0
Eu729 Eu 0.48912 0.50925 0.99501 0.0
C730 C 0.48117 0.4576 1.00104 0.0
C731 C 0.54223 0.51347 0.99769 0.0
C732 C 0.51783 0.48625 0.06465 0.0
C733 C 0.51271 0.46479 0.08678 0.0
C734 C 0.52171 0.47016 0.07291 0.0
C735 C 0.5043 0.49643 0.07029 0.0
C736 C 0.4955 0.49126 0.08417 0.0
C737 C 0.49977 0.47555 0.0927 0.0
C738 C 0.52826 0.49268 0.05035 0.0
O739 O 0.53173 0.53908 0.02383 0.0
O740 O 0.50017 0.54123 0.0119 0.0
O741 O 0.45834 0.49305 0.00956 0.0
O742 O 0.48115 0.50206 0.03228 0.0
C743 C 0.52097 0.55158 0.02039 0.0
O744 O 0.49025 0.53451 0.97924 0.0
O745 O 0.4626 0.49607 0.97527 0.0
O746 O 0.48843 0.47351 0.9912 0.0
O747 O 0.48346 0.46481 0.01522 0.0
O748 O 0.53687 0.50082 0.00935 0.0
O749 O 0.52851 0.52195 0.99223 0.0
C750 C 0.46027 0.49497 0.02422 0.0
O751 O 0.51762 0.47595 0.03906 0.0
O752 O 0.53333 0.51418 0.04666 0.0
C753 C 0.48029 0.51674 0.95456 0.0
C754 C 0.49713 0.51917 0.92622 0.0
C755 C 0.48465 0.53158 0.93013 0.0
C756 C 0.47632 0.53037 0.9442 0.0
C757 C 0.49257 0.5042 0.95071 0.0
C758 C 0.50077 0.50528 0.93665 0.0
C759 C 0.47336 0.51713 0.96973 0.0
H760 H 0.51601 0.45229 0.09289 0.0
H761 H 0.53192 0.46195 0.0687 0.0
H762 H 0.50092 0.50882 0.0641 0.0
H763 H 0.48599 0.50023 0.08838 0.0
H764 H 0.4818 0.54268 0.92246 0.0
H765 H 0.46718 0.54045 0.94709 0.0
H766 H 0.49605 0.49379 0.95864 0.0
H767 H 0.50993 0.49516 0.93396 0.0
Tb768 Tb 0.15565 0.3125 0.32769 0.0
Eu769 Eu 0.17444 0.34628 0.36035 0.0
C770 C 0.17887 0.29895 0.35472 0.0
C771 C 0.12088 0.29881 0.35283 0.0
C772 C 0.14866 0.29944 0.28699 0.0
C773 C 0.15607 0.29467 0.26129 0.0
C774 C 0.15002 0.28523 0.27501 0.0
C775 C 0.15315 0.32315 0.28504 0.0
C776 C 0.15909 0.33256 0.27132 0.0
C777 C 0.16091 0.31857 0.25929 0.0
C778 C 0.14468 0.29032 0.30178 0.0
O779 O 0.14008 0.3364 0.32756 0.0
O780 O 0.16762 0.36865 0.34437 0.0
O781 O 0.20748 0.35771 0.34775 0.0
O782 O 0.18702 0.34741 0.32437 0.0
C783 C 0.15005 0.35931 0.33332 0.0
O784 O 0.16923 0.36757 0.3782 0.0
O785 O 0.20042 0.36218 0.38034 0.0
O786 O 0.17193 0.31041 0.364 0.0
O787 O 0.17832 0.30149 0.34042 0.0
O788 O 0.12888 0.29006 0.34238 0.0
O789 O 0.13372 0.32159 0.35886 0.0
C790 C 0.20739 0.35908 0.33331 0.0
O791 O 0.16455 0.296 0.31021 0.0
O792 O 0.12944 0.29378 0.30918 0.0
C793 C 0.18153 0.36192 0.40207 0.0
C794 C 0.16925 0.34682 0.43066 0.0
C795 C 0.17692 0.37112 0.42774 0.0
C796 C 0.18301 0.37857 0.41358 0.0
C797 C 0.1738 0.33766 0.40487 0.0
C798 C 0.16784 0.33022 0.41902 0.0
C799 C 0.18735 0.36969 0.38709 0.0
H800 H 0.15763 0.28348 0.25238 0.0
H801 H 0.14696 0.26703 0.27637 0.0
H802 H 0.15246 0.33454 0.29421 0.0
H803 H 0.16231 0.35086 0.27017 0.0
H804 H 0.17789 0.38433 0.43634 0.0
H805 H 0.18871 0.39731 0.41159 0.0
H806 H 0.17238 0.32444 0.3961 0.0
H807 H 0.16238 0.31149 0.42086 0.0
Tb808 Tb 0.6757 0.83056 0.32763 0.0
Eu809 Eu 0.64496 0.82144 0.35673 0.0
C810 C 0.69056 0.87281 0.35303 0.0
C811 C 0.6932 0.8161 0.35688 0.0
C812 C 0.69596 0.84358 0.28956 0.0
C813 C 0.71614 0.86513 0.26878 0.0
C814 C 0.71728 0.85983 0.2835 0.0
C815 C 0.67331 0.83333 0.28088 0.0
C816 C 0.67217 0.8384 0.26612 0.0
C817 C 0.69361 0.85405 0.2598 0.0
C818 C 0.69786 0.83651 0.3046 0.0
O819 O 0.65467 0.79141 0.3297 0.0
O820 O 0.62207 0.79164 0.33843 0.0
O821 O 0.63292 0.84155 0.34179 0.0
O822 O 0.64274 0.83108 0.31955 0.0
C823 C 0.63123 0.7802 0.33113 0.0
O824 O 0.62145 0.79568 0.37152 0.0
O825 O 0.63026 0.83365 0.37429 0.0
O826 O 0.68035 0.8566 0.36252 0.0
O827 O 0.6859 0.86646 0.33858 0.0
O828 O 0.69948 0.8286 0.34523 0.0
O829 O 0.67167 0.80828 0.36176 0.0
C830 C 0.631 0.83958 0.32717 0.0
O831 O 0.70478 0.85344 0.31566 0.0
O832 O 0.68 0.81561 0.30757 0.0
C833 C 0.62537 0.81306 0.39591 0.0
C834 C 0.6351 0.81259 0.42668 0.0
C835 C 0.61239 0.79513 0.41899 0.0
C836 C 0.60758 0.79542 0.40374 0.0
C837 C 0.64811 0.83045 0.40347 0.0
C838 C 0.65287 0.83031 0.41874 0.0
C839 C 0.62022 0.81255 0.37981 0.0
H840 H 0.73295 0.87765 0.26439 0.0
H841 H 0.73491 0.86805 0.29006 0.0
H842 H 0.65653 0.82084 0.28533 0.0
H843 H 0.65453 0.82928 0.25954 0.0
H844 H 0.59844 0.78101 0.4247 0.0
H845 H 0.59002 0.78171 0.39803 0.0
H846 H 0.66219 0.84413 0.39759 0.0
H847 H 0.67041 0.84425 0.42433 0.0
Tb848 Tb 0.17741 0.82915 0.35816 0.0
Eu849 Eu 0.15266 0.83775 0.32744 0.0
C850 C 0.1436 0.78589 0.33468 0.0
C851 C 0.20521 0.84107 0.32909 0.0
C852 C 0.1882 0.82155 0.39772 0.0
C853 C 0.18156 0.80301 0.42102 0.0
C854 C 0.18822 0.80404 0.40652 0.0
C855 C 0.18151 0.83816 0.40362 0.0
C856 C 0.17506 0.8373 0.41817 0.0
C857 C 0.17484 0.8196 0.42704 0.0
C858 C 0.19359 0.82114 0.38215 0.0
O859 O 0.18049 0.86485 0.36201 0.0
O860 O 0.18314 0.87415 0.33793 0.0
O861 O 0.12943 0.83819 0.34519 0.0
O862 O 0.14005 0.8186 0.36237 0.0
C863 C 0.18735 0.881 0.35226 0.0
O864 O 0.14722 0.8617 0.313 0.0
O865 O 0.13035 0.82291 0.3061 0.0
O866 O 0.13251 0.79777 0.33067 0.0
O867 O 0.16537 0.79748 0.34213 0.0
O868 O 0.20694 0.84349 0.34376 0.0
O869 O 0.18464 0.83444 0.32085 0.0
C870 C 0.1257 0.82669 0.35728 0.0
O871 O 0.17579 0.80411 0.37295 0.0
O872 O 0.20421 0.84211 0.37653 0.0
C873 C 0.14567 0.84978 0.28752 0.0
C874 C 0.16339 0.85913 0.25932 0.0
C875 C 0.15013 0.86981 0.26484 0.0
C876 C 0.1413 0.8651 0.27879 0.0
C877 C 0.15945 0.83964 0.28225 0.0
C878 C 0.16805 0.84411 0.26828 0.0
C879 C 0.13587 0.84438 0.30205 0.0
H880 H 0.18121 0.78886 0.42738 0.0
H881 H 0.19299 0.79084 0.40208 0.0
H882 H 0.18109 0.85168 0.39696 0.0
H883 H 0.17035 0.8506 0.42248 0.0
H884 H 0.14654 0.88181 0.25839 0.0
H885 H 0.13093 0.87332 0.28273 0.0
H886 H 0.16327 0.8279 0.28883 0.0
H887 H 0.17781 0.83521 0.26439 0.0
Tb888 Tb 0.82479 0.6542 0.66283 0.0
Eu889 Eu 0.84513 0.68885 0.69535 0.0
C890 C 0.85042 0.64195 0.68938 0.0
C891 C 0.79209 0.63939 0.68912 0.0
C892 C 0.81741 0.64086 0.62195 0.0
C893 C 0.82455 0.63518 0.59629 0.0
C894 C 0.81872 0.62628 0.61017 0.0
C895 C 0.82188 0.66447 0.61966 0.0
C896 C 0.82754 0.67331 0.60576 0.0
C897 C 0.82911 0.65884 0.59393 0.0
C898 C 0.81324 0.63207 0.63684 0.0
O899 O 0.80673 0.67581 0.66428 0.0
O900 O 0.83567 0.70965 0.67946 0.0
O901 O 0.87727 0.70109 0.68184 0.0
O902 O 0.85502 0.68948 0.65897 0.0
C903 C 0.8164 0.6989 0.66955 0.0
O904 O 0.83984 0.70969 0.71345 0.0
O905 O 0.87206 0.70594 0.71485 0.0
O906 O 0.84434 0.6538 0.69895 0.0
O907 O 0.8484 0.64366 0.67501 0.0
O908 O 0.799 0.63119 0.67775 0.0
O909 O 0.80507 0.66208 0.69533 0.0
C910 C 0.87599 0.70167 0.66733 0.0
O911 O 0.83291 0.6371 0.64526 0.0
O912 O 0.7985 0.63632 0.64425 0.0
C913 C 0.85344 0.70408 0.73701 0.0
C914 C 0.8419 0.68748 0.76538 0.0
C915 C 0.84492 0.71034 0.76226 0.0
C916 C 0.85071 0.71857 0.74821 0.0
C917 C 0.8502 0.68115 0.74004 0.0
C918 C 0.84464 0.67302 0.75409 0.0
C919 C 0.85853 0.71238 0.72203 0.0
H920 H 0.82541 0.6235 0.58738 0.0
H921 H 0.81556 0.60811 0.61176 0.0
H922 H 0.8214 0.67622 0.62869 0.0
H923 H 0.83127 0.69173 0.60438 0.0
H924 H 0.84308 0.72197 0.77074 0.0
H925 H 0.85292 0.73622 0.74607 0.0
H926 H 0.85178 0.66942 0.73151 0.0
H927 H 0.84208 0.65518 0.75605 0.0
Tb928 Tb 0.34866 0.17212 0.66469 0.0
Eu929 Eu 0.31672 0.15869 0.69376 0.0
C930 C 0.36347 0.21023 0.69285 0.0
C931 C 0.36458 0.15354 0.69272 0.0
C932 C 0.36924 0.18119 0.62656 0.0
C933 C 0.38259 0.19602 0.60284 0.0
C934 C 0.38689 0.19806 0.61831 0.0
C935 C 0.34724 0.16205 0.6192 0.0
C936 C 0.34296 0.15989 0.60368 0.0
C937 C 0.36055 0.17697 0.59532 0.0
C938 C 0.3737 0.18474 0.64284 0.0
O939 O 0.32418 0.13266 0.66081 0.0
O940 O 0.29445 0.12783 0.67596 0.0
O941 O 0.30466 0.17909 0.67899 0.0
O942 O 0.31381 0.1685 0.65666 0.0
C943 C 0.30247 0.11952 0.66537 0.0
O944 O 0.29397 0.13282 0.70872 0.0
O945 O 0.30086 0.17011 0.71103 0.0
O946 O 0.35241 0.19265 0.70136 0.0
O947 O 0.35909 0.20608 0.67829 0.0
O948 O 0.37151 0.16847 0.68222 0.0
O949 O 0.34272 0.14446 0.69727 0.0
C950 C 0.30184 0.1765 0.66437 0.0
O951 O 0.3655 0.19767 0.6494 0.0
O952 O 0.36917 0.1655 0.64963 0.0
C953 C 0.29562 0.15021 0.73278 0.0
C954 C 0.30355 0.15273 0.76396 0.0
C955 C 0.28157 0.14983 0.75712 0.0
C956 C 0.27766 0.14856 0.74165 0.0
C957 C 0.31762 0.15315 0.73948 0.0
C958 C 0.32154 0.15435 0.75496 0.0
C959 C 0.29125 0.1491 0.71659 0.0
H960 H 0.39633 0.20973 0.59681 0.0
H961 H 0.40386 0.2131 0.62388 0.0
H962 H 0.33333 0.14896 0.62545 0.0
H963 H 0.32591 0.14485 0.59823 0.0
H964 H 0.26753 0.14892 0.76373 0.0
H965 H 0.26064 0.14643 0.73662 0.0
H966 H 0.3317 0.15448 0.73273 0.0
H967 H 0.33854 0.15632 0.75986 0.0
Tb968 Tb 0.84368 0.1626 0.69184 0.0
Eu969 Eu 0.82152 0.17368 0.66086 0.0
C970 C 0.81605 0.12233 0.6649 0.0
C971 C 0.87496 0.17902 0.66461 0.0
C972 C 0.85283 0.15366 0.73148 0.0
C973 C 0.84139 0.13416 0.75431 0.0
C974 C 0.84752 0.13383 0.73976 0.0
C975 C 0.85216 0.17401 0.73801 0.0
C976 C 0.84631 0.17447 0.75264 0.0
C977 C 0.84065 0.15444 0.76088 0.0
C978 C 0.85722 0.15187 0.71578 0.0
O979 O 0.8595 0.20217 0.69357 0.0
O980 O 0.83219 0.20597 0.67739 0.0
O981 O 0.79053 0.15582 0.67526 0.0
O982 O 0.81337 0.16703 0.69803 0.0
C983 C 0.85022 0.215 0.68812 0.0
O984 O 0.82392 0.19864 0.64447 0.0
O985 O 0.79403 0.16107 0.64167 0.0
O986 O 0.82245 0.13912 0.65566 0.0
O987 O 0.81745 0.12793 0.67923 0.0
O988 O 0.86864 0.16493 0.67558 0.0
O989 O 0.86149 0.18787 0.6593 0.0
C990 C 0.79238 0.1589 0.68989 0.0
O991 O 0.83801 0.13658 0.70682 0.0
O992 O 0.87039 0.17225 0.70997 0.0
C993 C 0.8108 0.17939 0.61997 0.0
C994 C 0.82298 0.17725 0.59064 0.0
C995 C 0.82041 0.19691 0.59639 0.0
C996 C 0.81429 0.19791 0.61091 0.0
C997 C 0.81348 0.15978 0.61428 0.0
C998 C 0.81936 0.15865 0.59973 0.0
C999 C 0.80575 0.18146 0.63552 0.0
H1000 H 0.83734 0.11859 0.76045 0.0
H1001 H 0.84774 0.11789 0.73486 0.0
H1002 H 0.85579 0.18938 0.73175 0.0
H1003 H 0.84565 0.19024 0.75739 0.0
H1004 H 0.8229 0.2114 0.5896 0.0
H1005 H 0.8125 0.21328 0.61513 0.0
H1006 H 0.81129 0.14544 0.62113 0.0
H1007 H 0.82153 0.14344 0.59567 0.0
H1008 H 0.32207 0.85844 0.04778 0.0
H1009 H 0.33902 0.92489 0.07464 0.0
H1010 H 0.35954 0.881 0.036 0.0
H1011 H 0.37682 0.94717 0.06311 0.0
H1012 H 0.45444 0.97069 0.05154 0.0
H1013 H 0.41655 0.94737 0.0627 0.0
H1014 H 0.37792 0.91485 0.01906 0.0
H1015 H 0.41596 0.93824 1.00777 0.0
C1016 C 0.33362 0.87788 0.0511 0.0
C1017 C 0.32741 0.88981 0.06218 0.0
C1018 C 0.35515 0.89076 0.04436 0.0
C1019 C 0.37112 0.91581 0.04865 0.0
C1020 C 0.365 0.92778 0.05971 0.0
C1021 C 0.34336 0.91497 0.06635 0.0
C1022 C 0.43794 0.95848 0.04428 0.0
C1023 C 0.43826 0.95635 0.02873 0.0
C1024 C 0.41619 0.94526 0.0507 0.0
C1025 C 0.39426 0.92941 0.04175 0.0
C1026 C 0.3946 0.92685 0.02623 0.0
C1027 C 0.41636 0.94029 0.01977 0.0
H1028 H 0.1295 0.43319 0.04886 0.0
H1029 H 0.14045 0.48134 0.08803 0.0
H1030 H 0.10062 0.44358 0.03704 0.0
H1031 H 0.112 0.49221 0.07614 0.0
H1032 H 0.04152 0.48756 0.05644 0.0
H1033 H 0.06987 0.47666 0.06836 0.0
H1034 H 0.09845 0.47597 0.02629 0.0
H1035 H 0.06956 0.48607 0.01429 0.0
C1036 C 0.1259 0.44619 0.05488 0.0
C1037 C 0.13725 0.45643 0.06938 0.0
C1038 C 0.10938 0.45221 0.0481 0.0
C1039 C 0.10395 0.4688 0.0556 0.0
C1040 C 0.11538 0.47906 0.07011 0.0
C1041 C 0.13175 0.47288 0.07692 0.0
C1042 C 0.05386 0.4851 0.04973 0.0
C1043 C 0.0532 0.48764 0.03439 0.0
C1044 C 0.07025 0.47897 0.05659 0.0
C1045 C 0.08651 0.47539 0.04831 0.0
C1046 C 0.08593 0.47814 0.03299 0.0
C1047 C 0.06944 0.48409 0.02611 0.0
H1048 H 0.62364 0.70371 0.05375 0.0
H1049 H 0.55297 0.69862 0.04934 0.0
H1050 H 0.60475 0.6607 0.04396 0.0
H1051 H 0.53393 0.65558 0.03997 0.0
H1052 H 0.50997 0.5854 0.01063 0.0
H1053 H 0.53009 0.62889 0.01909 0.0
H1054 H 0.57879 0.62058 0.05083 0.0
H1055 H 0.55921 0.57725 0.04198 0.0
C1056 C 0.60405 0.69332 0.05074 0.0
C1057 C 0.58977 0.70448 0.05223 0.0
C1058 C 0.5932 0.66868 0.04519 0.0
C1059 C 0.56779 0.65464 0.04118 0.0
C1060 C 0.55358 0.66592 0.04267 0.0
C1061 C 0.56447 0.69058 0.04807 0.0
C1062 C 0.52497 0.59286 0.01942 0.0
C1063 C 0.53299 0.5779 0.02565 0.0
C1064 C 0.53645 0.61779 0.02432 0.0
C1065 C 0.55605 0.62826 0.03567 0.0
C1066 C 0.56403 0.61323 0.0419 0.0
C1067 C 0.5527 0.58835 0.03689 0.0
H1068 H 0.84702 0.31681 0.97075 0.0
H1069 H 0.90378 0.31483 0.94759 0.0
H1070 H 0.87637 0.358 0.9821 0.0
H1071 H 0.93293 0.35637 0.95868 0.0
H1072 H 0.9682 0.44105 0.96951 0.0
H1073 H 0.93959 0.39959 0.95782 0.0
H1074 H 0.91415 0.37729 1.00049 0.0
H1075 H 0.9425 0.41844 0.01218 0.0
C1076 C 0.86578 0.32504 0.96817 0.0
C1077 C 0.87303 0.31243 0.95829 0.0
C1078 C 0.88254 0.34868 0.97462 0.0
C1079 C 0.90688 0.36034 0.97125 0.0
C1080 C 0.91418 0.34789 0.96132 0.0
C1081 C 0.89746 0.32413 0.95497 0.0
C1082 C 0.95652 0.42728 0.97639 0.0
C1083 C 0.9576 0.43305 0.99176 0.0
C1084 C 0.94026 0.40356 0.96971 0.0
C1085 C 0.92462 0.38531 0.97826 0.0
C1086 C 0.9258 0.39108 0.99362 0.0
C1087 C 0.94217 0.41464 1.0003 0.0
H1088 H 0.66538 0.51148 0.96019 0.0
H1089 H 0.67217 0.58062 0.9506 0.0
H1090 H 0.62893 0.50164 0.97253 0.0
H1091 H 0.63578 0.57084 0.96297 0.0
H1092 H 0.55603 0.53474 0.97191 0.0
H1093 H 0.59224 0.54371 0.95976 0.0
H1094 H 0.61533 0.51316 0.99451 0.0
H1095 H 0.57862 0.50366 1.0066 0.0
C1096 C 0.65922 0.52469 0.96081 0.0
C1097 C 0.67175 0.54685 0.95437 0.0
C1098 C 0.63831 0.51905 0.96792 0.0
C1099 C 0.62934 0.53542 0.96877 0.0
C1100 C 0.64189 0.55759 0.96233 0.0
C1101 C 0.66278 0.56322 0.95521 0.0
C1102 C 0.56878 0.52992 0.97703 0.0
C1103 C 0.56438 0.51855 0.99031 0.0
C1104 C 0.58969 0.53521 0.97006 0.0
C1105 C 0.60687 0.52935 0.97618 0.0
C1106 C 0.60239 0.51774 0.9894 0.0
C1107 C 0.58138 0.51239 0.99638 0.0
H1108 H 0.43811 0.11468 0.94737 0.0
H1109 H 0.39901 0.10312 0.98626 0.0
H1110 H 0.4574 0.09247 0.95703 0.0
H1111 H 0.41782 0.08034 0.99582 0.0
H1112 H 0.47487 0.06333 0.01574 0.0
H1113 H 0.45628 0.08614 1.00607 0.0
H1114 H 0.44865 0.05228 0.96164 0.0
H1115 H 0.46795 0.03011 0.97123 0.0
C1116 C 0.43343 0.1071 0.95791 0.0
C1117 C 0.41705 0.11057 0.96606 0.0
C1118 C 0.44444 0.09433 0.96344 0.0
C1119 C 0.43916 0.08459 0.97721 0.0
C1120 C 0.42263 0.08796 0.98531 0.0
C1121 C 0.41177 0.10091 0.97982 0.0
C1122 C 0.46928 0.06081 1.0039 0.0
C1123 C 0.47293 0.04494 0.99425 0.0
C1124 C 0.45847 0.07376 0.99837 0.0
C1125 C 0.45089 0.071 0.98308 0.0
C1126 C 0.4546 0.05514 0.97344 0.0
C1127 C 0.46558 0.04234 0.97895 0.0
H1128 H 0.65048 0.1119 0.93723 0.0
H1129 H 0.69286 0.12968 0.98007 0.0
H1130 H 0.61299 0.08901 0.94894 0.0
H1131 H 0.65532 0.10691 0.99179 0.0
H1132 H 0.58083 0.08218 0.00944 0.0
H1133 H 0.61795 0.10754 0.99769 0.0
H1134 H 0.59286 0.05118 0.96084 0.0
H1135 H 0.55592 0.02618 0.97233 0.0
C1136 C 0.65183 0.11078 0.94912 0.0
C1137 C 0.67471 0.12257 0.95769 0.0
C1138 C 0.63033 0.09773 0.95585 0.0
C1139 C 0.63117 0.09616 0.97131 0.0
C1140 C 0.65402 0.1081 0.9799 0.0
C1141 C 0.67553 0.1211 0.97316 0.0
C1142 C 0.58321 0.07531 0.99879 0.0
C1143 C 0.56544 0.0521 0.99188 0.0
C1144 C 0.60452 0.08976 0.99211 0.0
C1145 C 0.60835 0.08136 0.97833 0.0
C1146 C 0.59038 0.05834 0.97136 0.0
C1147 C 0.56924 0.0439 0.97804 0.0
H1148 H 0.86129 0.55535 0.97725 0.0
H1149 H 0.87907 0.53965 0.93413 0.0
H1150 H 0.89044 0.54555 0.98928 0.0
H1151 H 0.90847 0.53015 0.94622 0.0
H1152 H 0.97685 0.54001 0.9744 0.0
H1153 H 0.94806 0.55012 0.96205 0.0
H1154 H 0.89506 0.50956 0.99209 0.0
H1155 H 0.92379 0.49967 1.00455 0.0
C1156 C 0.87126 0.54964 0.97031 0.0
C1157 C 0.86771 0.54822 0.95469 0.0
C1158 C 0.88802 0.54405 0.97723 0.0
C1159 C 0.90175 0.53701 0.96871 0.0
C1160 C 0.89841 0.53581 0.95311 0.0
C1161 C 0.88156 0.54129 0.94618 0.0
C1162 C 0.95906 0.53325 0.97838 0.0
C1163 C 0.9527 0.51907 0.99051 0.0
C1164 C 0.94251 0.53894 0.97124 0.0
C1165 C 0.91929 0.53072 0.97611 0.0
C1166 C 0.91292 0.51647 0.98819 0.0
C1167 C 0.92937 0.51066 0.99527 0.0
H1168 H 0.38078 0.30193 0.97729 0.0
H1169 H 0.45133 0.3133 0.96761 0.0
H1170 H 0.39957 0.34556 0.9861 0.0
H1171 H 0.47001 0.35684 0.97624 0.0
H1172 H 0.48414 0.43645 0.97469 0.0
H1173 H 0.46512 0.39271 0.96659 0.0
H1174 H 0.43265 0.37549 1.00795 0.0
H1175 H 0.45192 0.41922 0.0162 0.0
C1176 C 0.40028 0.31378 0.97709 0.0
C1177 C 0.41466 0.30435 0.97184 0.0
C1178 C 0.411 0.33862 0.98216 0.0
C1179 C 0.43618 0.35444 0.98178 0.0
C1180 C 0.45054 0.34499 0.97655 0.0
C1181 C 0.4399 0.32012 0.97173 0.0
C1182 C 0.47294 0.42334 0.98205 0.0
C1183 C 0.46954 0.43122 0.99608 0.0
C1184 C 0.46217 0.39836 0.97744 0.0
C1185 C 0.44748 0.38085 0.98668 0.0
C1186 C 0.44382 0.38869 1.00062 0.0
C1187 C 0.45494 0.41367 1.00535 0.0
H1188 H 0.12155 0.68418 0.08401 0.0
H1189 H 0.13485 0.70655 0.03968 0.0
H1190 H 0.09314 0.64224 0.07344 0.0
H1191 H 0.10667 0.66445 0.02913 0.0
H1192 H 0.07778 0.58215 0.01756 0.0
H1193 H 0.10505 0.62435 0.02808 0.0
H1194 H 0.05268 0.61774 0.05848 0.0
H1195 H 0.02538 0.57534 0.04807 0.0
C1196 C 0.11822 0.68023 0.07201 0.0
C1197 C 0.13049 0.69877 0.0627 0.0
C1198 C 0.10196 0.65617 0.06596 0.0
C1199 C 0.09771 0.65006 0.05046 0.0
C1200 C 0.10985 0.66856 0.04113 0.0
C1201 C 0.12602 0.69266 0.04718 0.0
C1202 C 0.07205 0.58963 0.02651 0.0
C1203 C 0.0494 0.57534 0.03199 0.0
C1204 C 0.08763 0.61388 0.03245 0.0
C1205 C 0.08097 0.62437 0.04407 0.0
C1206 C 0.05838 0.61008 0.04961 0.0
C1207 C 0.04271 0.58584 0.0436 0.0
H1208 H 0.34017 0.43074 0.07963 0.0
H1209 H 0.32763 0.48172 0.05603 0.0
H1210 H 0.37711 0.44253 0.06734 0.0
H1211 H 0.3642 0.49303 0.04358 0.0
H1212 H 0.41536 0.48586 0.01218 0.0
H1213 H 0.3789 0.47455 0.02488 0.0
H1214 H 0.41861 0.4784 0.0665 0.0
H1215 H 0.45503 0.48954 0.05384 0.0
C1216 C 0.34533 0.44457 0.07192 0.0
C1217 C 0.33074 0.45515 0.06881 0.0
C1218 C 0.3665 0.45129 0.06485 0.0
C1219 C 0.37354 0.46865 0.05442 0.0
C1220 C 0.35907 0.47931 0.05136 0.0
C1221 C 0.33803 0.47274 0.05849 0.0
C1222 C 0.41637 0.48436 0.02405 0.0
C1223 C 0.4382 0.4887 0.03197 0.0
C1224 C 0.39548 0.47798 0.03134 0.0
C1225 C 0.39584 0.47557 0.0467 0.0
C1226 C 0.41765 0.47987 0.05463 0.0
C1227 C 0.4386 0.48645 0.04737 0.0
H1228 H 0.56477 0.86785 0.0358 0.0
H1229 H 0.61001 0.93028 0.06809 0.0
H1230 H 0.54692 0.8903 0.02471 0.0
H1231 H 0.59076 0.95188 0.05782 0.0
H1232 H 0.56948 0.9946 0.02887 0.0
H1233 H 0.58886 0.972 0.03742 0.0
H1234 H 0.51945 0.90445 0.02891 0.0
H1235 H 0.50037 0.92716 0.01959 0.0
C1236 C 0.57099 0.88638 0.04052 0.0
C1237 C 0.5889 0.89722 0.05285 0.0
C1238 C 0.56043 0.89912 0.0343 0.0
C1239 C 0.5673 0.92292 0.04036 0.0
C1240 C 0.58525 0.93375 0.05267 0.0
C1241 C 0.59604 0.92117 0.05874 0.0
C1242 C 0.55839 0.9749 0.02877 0.0
C1243 C 0.53339 0.96262 0.02366 0.0
C1244 C 0.56946 0.96193 0.03377 0.0
C1245 C 0.5557 0.93639 0.03407 0.0
C1246 C 0.53071 0.92406 0.02869 0.0
C1247 C 0.51971 0.93704 0.02342 0.0
H1248 H 0.97988 0.18265 0.3754 0.0
H1249 H 0.00359 0.24338 0.40924 0.0
H1250 H 0.01614 0.20676 0.363 0.0
H1251 H 0.04069 0.26671 0.39752 0.0
H1252 H 0.09203 0.31315 0.36591 0.0
H1253 H 0.05443 0.28812 0.37678 0.0
H1254 H 0.05889 0.22351 0.36411 0.0
H1255 H 0.09619 0.24872 0.35256 0.0
C1256 C 0.9928 0.20113 0.38023 0.0
C1257 C 0.98856 0.21107 0.3933 0.0
C1258 C 0.01386 0.21485 0.37322 0.0
C1259 C 0.03142 0.2388 0.37916 0.0
C1260 C 0.02741 0.24853 0.3924 0.0
C1261 C 0.00622 0.23494 0.3993 0.0
C1262 C 0.08492 0.29357 0.36537 0.0
C1263 C 0.09713 0.28291 0.35844 0.0
C1264 C 0.06341 0.27919 0.37173 0.0
C1265 C 0.0537 0.25376 0.37159 0.0
C1266 C 0.06566 0.24299 0.36435 0.0
C1267 C 0.08708 0.25741 0.35775 0.0
H1268 H 0.78966 0.79788 0.42166 0.0
H1269 H 0.80276 0.77487 0.37896 0.0
H1270 H 0.75929 0.80581 0.4093 0.0
H1271 H 0.77257 0.783 0.36662 0.0
H1272 H 0.7381 0.82656 0.34898 0.0
H1273 H 0.76759 0.81793 0.36165 0.0
H1274 H 0.71858 0.78468 0.39509 0.0
H1275 H 0.68905 0.79363 0.38252 0.0
C1276 C 0.78592 0.79429 0.40965 0.0
C1277 C 0.79875 0.78578 0.40132 0.0
C1278 C 0.7685 0.79885 0.40256 0.0
C1279 C 0.76353 0.79511 0.38696 0.0
C1280 C 0.77623 0.78647 0.37864 0.0
C1281 C 0.79359 0.78183 0.38572 0.0
C1282 C 0.73354 0.81743 0.35904 0.0
C1283 C 0.71112 0.81078 0.3647 0.0
C1284 C 0.75043 0.81233 0.36626 0.0
C1285 C 0.74544 0.80052 0.37936 0.0
C1286 C 0.7231 0.79399 0.38509 0.0
C1287 C 0.70611 0.79901 0.37783 0.0
H1288 H 0.28674 0.02787 0.39488 0.0
H1289 H 0.22772 0.03279 0.37171 0.0
H1290 H 0.26761 0.9849 0.38503 0.0
H1291 H 0.2091 0.99007 0.36156 0.0
H1292 H 0.19646 0.91893 0.33576 0.0
H1293 H 0.21756 0.96256 0.34435 0.0
H1294 H 0.22816 0.9464 0.38905 0.0
H1295 H 0.20705 0.90273 0.38052 0.0
C1296 C 0.26976 0.01985 0.38766 0.0
C1297 C 0.2587 0.03377 0.38417 0.0
C1298 C 0.25885 0.99528 0.38201 0.0
C1299 C 0.23683 0.98419 0.37262 0.0
C1300 C 0.2262 0.99826 0.36868 0.0
C1301 C 0.23696 0.02277 0.37445 0.0
C1302 C 0.20332 0.92466 0.34742 0.0
C1303 C 0.20006 0.90739 0.35747 0.0
C1304 C 0.21531 0.94962 0.35232 0.0
C1305 C 0.22452 0.9578 0.36734 0.0
C1306 C 0.22145 0.94057 0.37737 0.0
C1307 C 0.20922 0.91559 0.37251 0.0
H1308 H 0.51069 0.63148 0.3084 0.0
H1309 H 0.56423 0.63822 0.27881 0.0
H1310 H 0.53879 0.67249 0.32019 0.0
H1311 H 0.59159 0.68 0.28983 0.0
H1312 H 0.64448 0.74708 0.32143 0.0
H1313 H 0.61762 0.7046 0.31115 0.0
H1314 H 0.55476 0.71348 0.31545 0.0
H1315 H 0.58154 0.75545 0.32631 0.0
C1316 C 0.52848 0.64163 0.30442 0.0
C1317 C 0.53511 0.63143 0.29261 0.0
C1318 C 0.54449 0.66539 0.31103 0.0
C1319 C 0.56743 0.67975 0.30589 0.0
C1320 C 0.5742 0.66946 0.2942 0.0
C1321 C 0.5583 0.64557 0.2877 0.0
C1322 C 0.62491 0.73988 0.3202 0.0
C1323 C 0.61511 0.75455 0.32473 0.0
C1324 C 0.60949 0.71556 0.31423 0.0
C1325 C 0.58395 0.7055 0.31247 0.0
C1326 C 0.57426 0.72036 0.31692 0.0
C1327 C 0.58964 0.74452 0.32306 0.0
H1328 H 0.3269 0.90254 0.27478 0.0
H1329 H 0.33595 0.84876 0.29749 0.0
H1330 H 0.29007 0.89187 0.28692 0.0
H1331 H 0.29956 0.8387 0.30989 0.0
H1332 H 0.24931 0.84823 0.34138 0.0
H1333 H 0.28575 0.85823 0.32889 0.0
H1334 H 0.24767 0.85661 0.28715 0.0
H1335 H 0.21127 0.84667 0.29957 0.0
C1336 C 0.32101 0.88832 0.28225 0.0
C1337 C 0.3346 0.87661 0.28513 0.0
C1338 C 0.2999 0.88227 0.28925 0.0
C1339 C 0.29192 0.8645 0.29942 0.0
C1340 C 0.30542 0.85274 0.3023 0.0
C1341 C 0.32637 0.85861 0.2952 0.0
C1342 C 0.24866 0.84995 0.32953 0.0
C1343 C 0.22729 0.84658 0.3215 0.0
C1344 C 0.26953 0.85557 0.32236 0.0
C1345 C 0.26963 0.85824 0.30702 0.0
C1346 C 0.24828 0.85492 0.299 0.0
C1347 C 0.22734 0.84904 0.30612 0.0
H1348 H 0.05369 0.40642 0.29474 0.0
H1349 H 0.12106 0.47436 0.30788 0.0
H1350 H 0.07258 0.38362 0.30408 0.0
H1351 H 0.14015 0.45161 0.31701 0.0
H1352 H 0.1575 0.40339 0.3457 0.0
H1353 H 0.1393 0.42693 0.33654 0.0
H1354 H 0.10298 0.37323 0.29825 0.0
H1355 H 0.12058 0.34945 0.30758 0.0
C1356 C 0.0726 0.41644 0.29952 0.0
C1357 C 0.08589 0.44214 0.3006 0.0
C1358 C 0.08346 0.40341 0.30484 0.0
C1359 C 0.10792 0.41579 0.31125 0.0
C1360 C 0.12118 0.44152 0.31234 0.0
C1361 C 0.11027 0.45455 0.3071 0.0
C1362 C 0.14573 0.3967 0.3353 0.0
C1363 C 0.14035 0.37448 0.32743 0.0
C1364 C 0.13535 0.41022 0.33002 0.0
C1365 C 0.11953 0.40187 0.31671 0.0
C1366 C 0.11465 0.37993 0.3087 0.0
C1367 C 0.12487 0.36636 0.31401 0.0
H1368 H 0.35728 0.45646 0.31449 0.0
H1369 H 0.31852 0.41645 0.27204 0.0
H1370 H 0.31994 0.43469 0.32629 0.0
H1371 H 0.28161 0.3933 0.28407 0.0
H1372 H 0.21312 0.3753 0.30577 0.0
H1373 H 0.25087 0.39773 0.29442 0.0
H1374 H 0.29187 0.39715 0.33434 0.0
H1375 H 0.25403 0.37563 0.34594 0.0
C1376 C 0.34083 0.44294 0.30766 0.0
C1377 C 0.34097 0.43848 0.29224 0.0
C1378 C 0.31942 0.43014 0.3145 0.0
C1379 C 0.29759 0.41225 0.30617 0.0
C1380 C 0.2979 0.40727 0.29083 0.0
C1381 C 0.31925 0.4203 0.28394 0.0
C1382 C 0.23021 0.3801 0.31217 0.0
C1383 C 0.23059 0.37373 0.32678 0.0
C1384 C 0.2519 0.39278 0.30559 0.0
C1385 C 0.27453 0.39913 0.31337 0.0
C1386 C 0.27488 0.39291 0.32806 0.0
C1387 C 0.25316 0.38049 0.33471 0.0
H1388 H 0.55793 0.91442 0.29118 0.0
H1389 H 0.50727 0.83752 0.27865 0.0
H1390 H 0.58749 0.90437 0.30267 0.0
H1391 H 0.53697 0.82748 0.29002 0.0
H1392 H 0.60945 0.82502 0.29837 0.0
H1393 H 0.58101 0.83562 0.28578 0.0
H1394 H 0.58753 0.8809 0.32535 0.0
H1395 H 0.61554 0.87012 0.33801 0.0
C1396 C 0.55321 0.8954 0.29081 0.0
C1397 C 0.53031 0.87674 0.28407 0.0
C1398 C 0.57005 0.88965 0.29743 0.0
C1399 C 0.5645 0.86516 0.2972 0.0
C1400 C 0.54176 0.84652 0.29025 0.0
C1401 C 0.52473 0.85224 0.28386 0.0
C1402 C 0.60487 0.83731 0.30435 0.0
C1403 C 0.61467 0.84667 0.3192 0.0
C1404 C 0.58853 0.84326 0.29717 0.0
C1405 C 0.58209 0.85906 0.30461 0.0
C1406 C 0.59229 0.86879 0.31934 0.0
C1407 C 0.60823 0.86251 0.32659 0.0
H1408 H 0.11283 0.63816 0.31072 0.0
H1409 H 0.04121 0.63093 0.30812 0.0
H1410 H 0.13133 0.68145 0.31925 0.0
H1411 H 0.05964 0.67427 0.31706 0.0
H1412 H 0.10332 0.75729 0.31489 0.0
H1413 H 0.08376 0.7133 0.30816 0.0
H1414 H 0.13637 0.71 0.3394 0.0
H1415 H 0.15643 0.75412 0.34572 0.0
C1416 C 0.10102 0.64577 0.31229 0.0
C1417 C 0.0756 0.63123 0.30878 0.0
C1418 C 0.1116 0.67058 0.31719 0.0
C1419 C 0.09699 0.68138 0.31881 0.0
C1420 C 0.07146 0.66663 0.31567 0.0
C1421 C 0.06089 0.64182 0.31064 0.0
C1422 C 0.11068 0.74716 0.32033 0.0
C1423 C 0.1315 0.75918 0.33075 0.0
C1424 C 0.09936 0.7219 0.31656 0.0
C1425 C 0.10847 0.70808 0.32324 0.0
C1426 C 0.12911 0.72012 0.33385 0.0
C1427 C 0.14057 0.74541 0.33751 0.0
H1428 H 0.81587 0.01816 0.37616 0.0
H1429 H 0.75854 0.01972 0.39887 0.0
H1430 H 0.78688 0.9767 0.36493 0.0
H1431 H 0.72979 0.97807 0.38789 0.0
H1432 H 0.6978 0.89409 0.38144 0.0
H1433 H 0.72543 0.93681 0.39091 0.0
H1434 H 0.74844 0.95315 0.34704 0.0
H1435 H 0.72079 0.91033 0.33749 0.0
C1436 C 0.79703 0.00984 0.37859 0.0
C1437 C 0.7896 0.02225 0.38851 0.0
C1438 C 0.78046 0.98606 0.37218 0.0
C1439 C 0.75615 0.97412 0.37563 0.0
C1440 C 0.74853 0.9867 0.38523 0.0
C1441 C 0.76503 0.01053 0.39154 0.0
C1442 C 0.70871 0.90676 0.37379 0.0
C1443 C 0.70711 0.8988 0.35871 0.0
C1444 C 0.72441 0.93127 0.3792 0.0
C1445 C 0.73902 0.94829 0.3697 0.0
C1446 C 0.73748 0.94037 0.35463 0.0
C1447 C 0.72157 0.91589 0.34916 0.0
H1448 H 0.97828 0.77937 0.37983 0.0
H1449 H 0.02205 0.80518 0.42248 0.0
H1450 H 0.01485 0.79018 0.36745 0.0
H1451 H 0.05866 0.81586 0.41008 0.0
H1452 H 0.11403 0.80678 0.38373 0.0
H1453 H 0.07795 0.797 0.39637 0.0
H1454 H 0.05232 0.82574 0.3618 0.0
H1455 H 0.08828 0.8352 0.34896 0.0
C1456 C 0.99572 0.78754 0.38658 0.0
C1457 C 0.99713 0.79145 0.40218 0.0
C1458 C 0.01673 0.79376 0.37946 0.0
C1459 C 0.03977 0.804 0.38774 0.0
C1460 C 0.04119 0.80774 0.40335 0.0
C1461 C 0.02016 0.80156 0.41048 0.0
C1462 C 0.10075 0.81107 0.37879 0.0
C1463 C 0.10409 0.82171 0.36525 0.0
C1464 C 0.08009 0.80558 0.38612 0.0
C1465 C 0.06214 0.8105 0.38011 0.0
C1466 C 0.06559 0.82138 0.36665 0.0
C1467 C 0.08632 0.82697 0.35933 0.0
H1468 H 0.22041 0.19034 0.37457 0.0
H1469 H 0.27139 0.25614 0.40293 0.0
H1470 H 0.20041 0.2116 0.36437 0.0
H1471 H 0.25094 0.27713 0.39295 0.0
H1472 H 0.19061 0.29628 0.38389 0.0
H1473 H 0.20988 0.27408 0.39363 0.0
H1474 H 0.21001 0.2465 0.34884 0.0
H1475 H 0.19064 0.26863 0.33901 0.0
C1476 C 0.22754 0.20939 0.37852 0.0
C1477 C 0.24754 0.22152 0.38958 0.0
C1478 C 0.216 0.22151 0.37272 0.0
C1479 C 0.22406 0.24595 0.37793 0.0
C1480 C 0.24411 0.25816 0.3889 0.0
C1481 C 0.25579 0.24611 0.39462 0.0
C1482 C 0.19457 0.28535 0.3761 0.0
C1483 C 0.18913 0.28426 0.36066 0.0
C1484 C 0.20577 0.27279 0.38169 0.0
C1485 C 0.21157 0.25871 0.37198 0.0
C1486 C 0.20562 0.25713 0.35658 0.0
C1487 C 0.19461 0.26987 0.35096 0.0
H1488 H 0.66089 0.52013 0.71947 0.0
H1489 H 0.6584 0.58601 0.73126 0.0
H1490 H 0.69851 0.54403 0.708 0.0
H1491 H 0.69581 0.60986 0.71969 0.0
H1492 H 0.77675 0.64824 0.71495 0.0
H1493 H 0.73846 0.62295 0.72497 0.0
H1494 H 0.71597 0.56839 0.68732 0.0
H1495 H 0.75492 0.59372 0.67731 0.0
C1496 C 0.66821 0.53968 0.71944 0.0
C1497 C 0.65676 0.55122 0.72637 0.0
C1498 C 0.68975 0.55336 0.71284 0.0
C1499 C 0.70029 0.57888 0.71302 0.0
C1500 C 0.68847 0.5903 0.71963 0.0
C1501 C 0.66702 0.57665 0.72626 0.0
C1502 C 0.76371 0.63088 0.70873 0.0
C1503 C 0.76888 0.6231 0.69524 0.0
C1504 C 0.74162 0.61641 0.71447 0.0
C1505 C 0.72397 0.59379 0.70686 0.0
C1506 C 0.72924 0.5857 0.69349 0.0
C1507 C 0.75151 0.60022 0.68773 0.0
H1508 H 0.49558 0.15612 0.73115 0.0
H1509 H 0.43695 0.08352 0.73646 0.0
H1510 H 0.46613 0.16586 0.71945 0.0
H1511 H 0.40748 0.09315 0.72465 0.0
H1512 H 0.35928 0.12739 0.71675 0.0
H1513 H 0.3887 0.11788 0.72874 0.0
H1514 H 0.43931 0.15605 0.69694 0.0
H1515 H 0.4102 0.16604 0.68517 0.0
C1516 C 0.47642 0.14216 0.72969 0.0
C1517 C 0.46864 0.11904 0.73474 0.0
C1518 C 0.45952 0.14772 0.72297 0.0
C1519 C 0.4344 0.13029 0.72108 0.0
C1520 C 0.42662 0.10716 0.72613 0.0
C1521 C 0.44353 0.10162 0.73289 0.0
C1522 C 0.37668 0.13376 0.71231 0.0
C1523 C 0.38235 0.14752 0.7 0.0
C1524 C 0.39352 0.12818 0.71914 0.0
C1525 C 0.41642 0.13619 0.71382 0.0
C1526 C 0.42203 0.1499 0.70149 0.0
C1527 C 0.40523 0.15552 0.69468 0.0
H1528 H 0.89512 0.36925 0.70249 0.0
H1529 H 0.93469 0.35782 0.739 0.0
H1530 H 0.87584 0.32644 0.69351 0.0
H1531 H 0.91783 0.31572 0.72888 0.0
H1532 H 0.86584 0.23488 0.71688 0.0
H1533 H 0.884 0.2778 0.7264 0.0
H1534 H 0.87953 0.29632 0.68136 0.0
H1535 H 0.85946 0.25316 0.67224 0.0
C1536 C 0.89991 0.35773 0.7086 0.0
C1537 C 0.91637 0.36724 0.72164 0.0
C1538 C 0.88916 0.33308 0.70321 0.0
C1539 C 0.89513 0.31728 0.71041 0.0
C1540 C 0.91222 0.32698 0.72316 0.0
C1541 C 0.92241 0.35148 0.72882 0.0
C1542 C 0.86864 0.24826 0.70911 0.0
C1543 C 0.86115 0.24087 0.69389 0.0
C1544 C 0.8793 0.27293 0.71451 0.0
C1545 C 0.88345 0.29086 0.7047 0.0
C1546 C 0.87617 0.28322 0.68938 0.0
C1547 C 0.86479 0.25847 0.68408 0.0
H1548 H 0.18254 0.97092 0.64445 0.0
H1549 H 0.22923 0.97989 0.6096 0.0
H1550 H 0.21027 0.01259 0.65481 0.0
H1551 H 0.25852 0.02061 0.62108 0.0
H1552 H 0.29587 0.10207 0.63616 0.0
H1553 H 0.2676 0.06046 0.62487 0.0
H1554 H 0.24645 0.03825 0.66848 0.0
H1555 H 0.27316 0.08019 0.67934 0.0
C1556 C 0.19875 0.98165 0.63898 0.0
C1557 C 0.20335 0.97179 0.62605 0.0
C1558 C 0.21507 0.00558 0.64517 0.0
C1559 C 0.23693 0.02021 0.63892 0.0
C1560 C 0.24177 0.01022 0.62614 0.0
C1561 C 0.22509 0.9865 0.6197 0.0
C1562 C 0.28505 0.08816 0.64323 0.0
C1563 C 0.28644 0.09424 0.65855 0.0
C1564 C 0.26895 0.06423 0.63682 0.0
C1565 C 0.25445 0.04573 0.64569 0.0
C1566 C 0.2566 0.05193 0.66114 0.0
C1567 C 0.2721 0.07596 0.66744 0.0
H1568 H 0.98077 0.20306 0.60136 0.0
H1569 H 0.02269 0.21993 0.64429 0.0
H1570 H 0.94431 0.19331 0.61365 0.0
H1571 H 0.98615 0.21002 0.65657 0.0
H1572 H 0.9095 0.16623 0.67255 0.0
H1573 H 0.94613 0.17531 0.66046 0.0
H1574 H 0.92815 0.21398 0.62875 0.0
H1575 H 0.89157 0.2047 0.64059 0.0
C1576 C 0.98228 0.2049 0.61342 0.0
C1577 C 0.00473 0.21233 0.62181 0.0
C1578 C 0.96135 0.19926 0.62048 0.0
C1579 C 0.96229 0.20088 0.63611 0.0
C1580 C 0.98469 0.20822 0.64451 0.0
C1581 C 0.00565 0.21391 0.63746 0.0
C1582 C 0.91337 0.17666 0.663 0.0
C1583 C 0.89752 0.18468 0.65756 0.0
C1584 C 0.93443 0.18197 0.65611 0.0
C1585 C 0.94005 0.19531 0.64359 0.0
C1586 C 0.92422 0.20336 0.63822 0.0
C1587 C 0.90328 0.19815 0.64511 0.0
H1588 H 0.72598 0.74281 0.62012 0.0
H1589 H 0.77088 0.8057 0.65218 0.0
H1590 H 0.74574 0.72174 0.63043 0.0
H1591 H 0.78917 0.78372 0.66337 0.0
H1592 H 0.83689 0.74838 0.66879 0.0
H1593 H 0.81707 0.77032 0.65933 0.0
H1594 H 0.74858 0.70184 0.65054 0.0
H1595 H 0.76876 0.68002 0.65917 0.0
C1596 C 0.73997 0.75213 0.62944 0.0
C1597 C 0.74692 0.77609 0.6352 0.0
C1598 C 0.75106 0.73984 0.63555 0.0
C1599 C 0.76909 0.75095 0.6478 0.0
C1600 C 0.77564 0.77469 0.65381 0.0
C1601 C 0.76481 0.78716 0.64753 0.0
C1602 C 0.8176 0.73812 0.66483 0.0
C1603 C 0.80442 0.71252 0.66456 0.0
C1604 C 0.80616 0.75067 0.6595 0.0
C1605 C 0.78119 0.73788 0.65405 0.0
C1606 C 0.76794 0.71229 0.65425 0.0
C1607 C 0.77948 0.69976 0.65929 0.0
H1608 H 0.98357 0.78263 0.6066 0.0
H1609 H 0.02473 0.77286 0.64276 0.0
H1610 H 0.94653 0.7614 0.61899 0.0
H1611 H 0.98764 0.75101 0.65502 0.0
H1612 H 0.92226 0.73454 0.6804 0.0
H1613 H 0.95921 0.75693 0.66805 0.0
H1614 H 0.91747 0.72243 0.62532 0.0
H1615 H 0.88059 0.70088 0.63756 0.0
C1616 C 0.98459 0.7756 0.6171 0.0
C1617 C 0.00702 0.77941 0.62371 0.0
C1618 C 0.96337 0.76341 0.62422 0.0
C1619 C 0.96403 0.75451 0.63807 0.0
C1620 C 0.98648 0.75803 0.64454 0.0
C1621 C 0.00772 0.77042 0.63748 0.0
C1622 C 0.92098 0.73189 0.66837 0.0
C1623 C 0.89845 0.716 0.65999 0.0
C1624 C 0.9422 0.74457 0.66128 0.0
C1625 C 0.94141 0.74148 0.64566 0.0
C1626 C 0.91879 0.72564 0.63732 0.0
C1627 C 0.89759 0.71316 0.64438 0.0
H1628 H 0.21717 0.21199 0.60072 0.0
H1629 H 0.18467 0.20654 0.64197 0.0
H1630 H 0.2471 0.20349 0.61293 0.0
H1631 H 0.21333 0.19622 0.65382 0.0
H1632 H 0.28284 0.20355 0.6758 0.0
H1633 H 0.25438 0.21353 0.6632 0.0
H1634 H 0.25258 0.17251 0.6227 0.0
H1635 H 0.282 0.16345 0.63522 0.0
C1636 C 0.21634 0.20896 0.61238 0.0
C1637 C 0.19844 0.21006 0.62033 0.0
C1638 C 0.23332 0.20369 0.61934 0.0
C1639 C 0.23275 0.19915 0.6344 0.0
C1640 C 0.21468 0.2 0.64229 0.0
C1641 C 0.1979 0.20553 0.63539 0.0
C1642 C 0.2764 0.19668 0.6642 0.0
C1643 C 0.28465 0.18265 0.65653 0.0
C1644 C 0.25991 0.20227 0.65697 0.0
C1645 C 0.25092 0.19369 0.64192 0.0
C1646 C 0.25931 0.17974 0.63423 0.0
C1647 C 0.27609 0.17441 0.64143 0.0
H1648 H 0.73294 0.9634 0.65228 0.0
H1649 H 0.77013 0.98375 0.61267 0.0
H1650 H 0.75207 0.0066 0.66171 0.0
H1651 H 0.78984 0.02682 0.62219 0.0
H1652 H 0.79992 0.10194 0.63607 0.0
H1653 H 0.78097 0.05884 0.62679 0.0
H1654 H 0.79036 0.0412 0.67133 0.0
H1655 H 0.80846 0.08414 0.68067 0.0
C1656 C 0.74539 0.97715 0.64568 0.0
C1657 C 0.74995 0.97033 0.63173 0.0
C1658 C 0.75643 0.00187 0.65108 0.0
C1659 C 0.77246 0.02021 0.64268 0.0
C1660 C 0.77722 0.01324 0.62881 0.0
C1661 C 0.766 0.98858 0.62337 0.0
C1662 C 0.79799 0.08886 0.64386 0.0
C1663 C 0.8056 0.09641 0.6591 0.0
C1664 C 0.78723 0.06415 0.63854 0.0
C1665 C 0.78409 0.04652 0.64832 0.0
C1666 C 0.79206 0.0542 0.66354 0.0
C1667 C 0.8026 0.07885 0.66887 0.0
H1668 H 0.4531 0.36843 0.71157 0.0
H1669 H 0.47101 0.34026 0.74982 0.0
H1670 H 0.42389 0.32671 0.70086 0.0
H1671 H 0.44225 0.29852 0.73902 0.0
H1672 H 0.37145 0.22812 0.72221 0.0
H1673 H 0.39946 0.26995 0.73319 0.0
H1674 H 0.42285 0.29087 0.68986 0.0
H1675 H 0.39437 0.24937 0.67884 0.0
C1676 C 0.45091 0.35327 0.71761 0.0
C1677 C 0.46428 0.35755 0.73152 0.0
C1678 C 0.43424 0.32938 0.71148 0.0
C1679 C 0.43074 0.30924 0.71907 0.0
C1680 C 0.44417 0.31359 0.73299 0.0
C1681 C 0.4607 0.33749 0.73917 0.0
C1682 C 0.38256 0.24167 0.71504 0.0
C1683 C 0.38063 0.23544 0.69965 0.0
C1684 C 0.39871 0.26562 0.72134 0.0
C1685 C 0.41339 0.2838 0.71241 0.0
C1686 C 0.41151 0.27747 0.69703 0.0
C1687 C 0.39526 0.2536 0.69073 0.0
H1688 H 0.65308 0.08362 0.72721 0.0
H1689 H 0.68149 0.16004 0.7417 0.0
H1690 H 0.68942 0.09446 0.71423 0.0
H1691 H 0.71787 0.17085 0.72886 0.0
H1692 H 0.79053 0.17396 0.71849 0.0
H1693 H 0.75431 0.16315 0.73139 0.0
H1694 H 0.70809 0.11894 0.69175 0.0
H1695 H 0.74432 0.12997 0.67871 0.0
C1696 C 0.66719 0.10269 0.72771 0.0
C1697 C 0.66448 0.12099 0.73545 0.0
C1698 C 0.68785 0.10891 0.7202 0.0
C1699 C 0.70643 0.1335 0.72052 0.0
C1700 C 0.7039 0.15174 0.72848 0.0
C1701 C 0.68305 0.14558 0.73576 0.0
C1702 C 0.77266 0.162 0.71248 0.0
C1703 C 0.77032 0.15288 0.69754 0.0
C1704 C 0.75193 0.15589 0.71987 0.0
C1705 C 0.7284 0.14017 0.71258 0.0
C1706 C 0.72602 0.13096 0.69767 0.0
C1707 C 0.74676 0.13742 0.69019 0.0
H1708 H 0.88821 0.53098 0.70923 0.0
H1709 H 0.94222 0.59673 0.73651 0.0
H1710 H 0.86975 0.55351 0.69887 0.0
H1711 H 0.92329 0.61902 0.72637 0.0
H1712 H 0.86419 0.64037 0.71832 0.0
H1713 H 0.88315 0.61777 0.72774 0.0
H1714 H 0.88 0.58818 0.68288 0.0
H1715 H 0.86088 0.61078 0.67335 0.0
C1716 C 0.89635 0.55029 0.7129 0.0
C1717 C 0.91673 0.56204 0.72372 0.0
C1718 C 0.88569 0.56315 0.70699 0.0
C1719 C 0.89504 0.58796 0.71186 0.0
C1720 C 0.91551 0.5998 0.72257 0.0
C1721 C 0.9263 0.587 0.72839 0.0
C1722 C 0.86741 0.62899 0.71043 0.0
C1723 C 0.86103 0.62739 0.69507 0.0
C1724 C 0.87845 0.61619 0.71585 0.0
C1725 C 0.88317 0.60136 0.70604 0.0
C1726 C 0.87645 0.59941 0.69069 0.0
C1727 C 0.86559 0.6124 0.68525 0.0
H1728 H 0.43307 0.94663 0.17229 0.0
H1729 H 0.50988 0.98016 0.1877 0.0
H1730 H 0.44369 0.96408 0.14861 0.0
H1731 H 0.52035 0.99708 0.16398 0.0
H1732 H 0.5282 0.99657 0.11375 0.0
H1733 H 0.51708 0.98084 0.13779 0.0
H1734 H 0.46354 0.00419 0.13763 0.0
H1735 H 0.47443 0.01964 0.11344 0.0
C1736 C 0.45219 0.95792 0.17073 0.0
C1737 C 0.47059 0.96174 0.18191 0.0
C1738 C 0.45827 0.96787 0.15713 0.0
C1739 C 0.48287 0.98176 0.15435 0.0
C1740 C 0.50123 0.98606 0.16565 0.0
C1741 C 0.49518 0.97628 0.17925 0.0
C1742 C 0.51398 0.99825 0.11881 0.0
C1743 C 0.50221 0.00937 0.11168 0.0
C1744 C 0.50775 0.98943 0.13265 0.0
C1745 C 0.48946 0.99132 0.13965 0.0
C1746 C 0.47759 0.00232 0.13249 0.0
C1747 C 0.48399 0.01137 0.1187 0.0
H1748 H 0.03316 0.53625 0.19088 0.0
H1749 H 0.97309 0.46237 0.19073 0.0
H1750 H 0.02542 0.53367 0.16393 0.0
H1751 H 0.96483 0.4599 0.16375 0.0
H1752 H 0.97292 0.45518 0.11407 0.0
H1753 H 0.98109 0.4575 0.14099 0.0
H1754 H 0.99679 0.53257 0.14507 0.0
H1755 H 0.98917 0.53031 0.11809 0.0
C1756 C 0.01811 0.51954 0.18506 0.0
C1757 C 0.00366 0.49954 0.19287 0.0
C1758 C 0.01362 0.51807 0.16963 0.0
C1759 C 0.99443 0.49662 0.16165 0.0
C1760 C 0.97999 0.47657 0.1695 0.0
C1761 C 0.98464 0.47798 0.18495 0.0
C1762 C 0.97802 0.47212 0.12076 0.0
C1763 C 0.98041 0.49257 0.11402 0.0
C1764 C 0.98263 0.47345 0.13619 0.0
C1765 C 0.98956 0.4952 0.14523 0.0
C1766 C 0.99189 0.51564 0.13844 0.0
C1767 C 0.98748 0.51437 0.12299 0.0
H1768 H 0.50556 0.50121 0.18727 0.0
H1769 H 0.42775 0.45633 0.17482 0.0
H1770 H 0.51309 0.49519 0.16186 0.0
H1771 H 0.43536 0.44896 0.14944 0.0
H1772 H 0.45788 0.47141 0.10266 0.0
H1773 H 0.44788 0.4706 0.12819 0.0
H1774 H 0.51285 0.46818 0.14286 0.0
H1775 H 0.5238 0.47084 0.11751 0.0
C1776 C 0.49002 0.48984 0.17912 0.0
C1777 C 0.46602 0.47959 0.18307 0.0
C1778 C 0.49437 0.48605 0.16454 0.0
C1779 C 0.47485 0.47162 0.1535 0.0
C1780 C 0.45084 0.46049 0.15758 0.0
C1781 C 0.44648 0.46446 0.17219 0.0
C1782 C 0.47013 0.47083 0.11133 0.0
C1783 C 0.49188 0.4716 0.10798 0.0
C1784 C 0.46417 0.46997 0.12599 0.0
C1785 C 0.47966 0.46957 0.13769 0.0
C1786 C 0.50072 0.46898 0.13422 0.0
C1787 C 0.50683 0.47014 0.11959 0.0
H1788 H 0.02493 0.4929 0.83309 0.0
H1789 H 0.98398 0.53039 0.83842 0.0
H1790 H 0.03303 0.49607 0.86009 0.0
H1791 H 0.99264 0.53402 0.86538 0.0
H1792 H 0.03442 0.55592 0.91254 0.0
H1793 H 0.02807 0.55447 0.88546 0.0
H1794 H 0.00766 0.47809 0.88116 0.0
H1795 H 0.0143 0.47961 0.9082 0.0
C1796 C 0.01766 0.50182 0.83999 0.0
C1797 C 0.0037 0.51129 0.83356 0.0
C1798 C 0.02234 0.50365 0.85545 0.0
C1799 C 0.01336 0.51518 0.86482 0.0
C1800 C 0.99998 0.52524 0.85842 0.0
C1801 C 0.99512 0.52324 0.84296 0.0
C1802 C 0.02869 0.53887 0.90578 0.0
C1803 C 0.02485 0.51787 0.91245 0.0
C1804 C 0.0249 0.53801 0.89032 0.0
C1805 C 0.01745 0.51619 0.88122 0.0
C1806 C 0.01365 0.49521 0.8879 0.0
C1807 C 0.01721 0.49602 0.90336 0.0
H1808 H 0.53217 0.53873 0.83378 0.0
H1809 H 0.54939 0.48467 0.84836 0.0
H1810 H 0.52282 0.54533 0.85897 0.0
H1811 H 0.53994 0.49107 0.87338 0.0
H1812 H 0.54041 0.52283 0.9197 0.0
H1813 H 0.55446 0.52261 0.89525 0.0
H1814 H 0.48941 0.51938 0.87466 0.0
H1815 H 0.47501 0.51907 0.89909 0.0
C1816 C 0.53431 0.52857 0.84243 0.0
C1817 C 0.54139 0.51113 0.83915 0.0
C1818 C 0.52877 0.53217 0.85678 0.0
C1819 C 0.53057 0.51865 0.86812 0.0
C1820 C 0.53857 0.50191 0.86492 0.0
C1821 C 0.54382 0.49812 0.85058 0.0
C1822 C 0.52899 0.52193 0.90997 0.0
C1823 C 0.50641 0.52068 0.91138 0.0
C1824 C 0.53713 0.52193 0.89597 0.0
C1825 C 0.523 0.5209 0.88305 0.0
C1826 C 0.50083 0.52048 0.88445 0.0
C1827 C 0.49259 0.5203 0.89845 0.0
H1828 H 0.56695 0.05126 0.84757 0.0
H1829 H 0.48969 0.01594 0.83297 0.0
H1830 H 0.55745 0.03531 0.87172 0.0
H1831 H 0.48033 1.00057 0.85718 0.0
H1832 H 0.47484 0.00544 0.90772 0.0
H1833 H 0.48467 0.01905 0.88309 0.0
H1834 H 0.53832 0.99582 0.88372 0.0
H1835 H 0.52864 0.9824 0.90851 0.0
C1836 C 0.54796 0.03988 0.84941 0.0
C1837 C 0.52911 0.03513 0.8383 0.0
C1838 C 0.54253 0.03079 0.86328 0.0
C1839 C 0.51814 0.01687 0.86641 0.0
C1840 C 0.49931 0.01162 0.85521 0.0
C1841 C 0.50472 0.02051 0.84133 0.0
C1842 C 0.4888 0.00332 0.90263 0.0
C1843 C 0.50097 0.99286 0.91008 0.0
C1844 C 0.49428 0.01092 0.88846 0.0
C1845 C 0.51224 0.00846 0.88143 0.0
C1846 C 0.5245 0.99809 0.88888 0.0
C1847 C 0.51881 0.99022 0.90301 0.0
H1848 H 0.09842 0.27747 0.50839 0.0
H1849 H 0.17586 0.31667 0.52283 0.0
H1850 H 0.10675 0.29389 0.48436 0.0
H1851 H 0.18426 0.33197 0.49859 0.0
H1852 H 0.19159 0.37258 0.45794 0.0
H1853 H 0.18147 0.35921 0.48252 0.0
H1854 H 0.12306 0.28899 0.46218 0.0
H1855 H 0.13229 0.30284 0.43764 0.0
C1856 C 0.11722 0.28969 0.5065 0.0
C1857 C 0.13646 0.29561 0.51758 0.0
C1858 C 0.12203 0.29887 0.49262 0.0
C1859 C 0.14621 0.31416 0.48944 0.0
C1860 C 0.16539 0.32046 0.50064 0.0
C1861 C 0.16059 0.31138 0.51451 0.0
C1862 C 0.17633 0.35443 0.45869 0.0
C1863 C 0.16283 0.3388 0.44574 0.0
C1864 C 0.17071 0.34662 0.47282 0.0
C1865 C 0.1515 0.32294 0.4744 0.0
C1866 C 0.1378 0.30744 0.46145 0.0
C1867 C 0.14335 0.31528 0.44733 0.0
H1868 H 0.63389 0.78842 0.52109 0.0
H1869 H 0.6993 0.85733 0.51766 0.0
H1870 H 0.6245 0.78285 0.49394 0.0
H1871 H 0.68989 0.85188 0.49066 0.0
H1872 H 0.67789 0.8215 0.44196 0.0
H1873 H 0.6869 0.82344 0.46878 0.0
H1874 H 0.61282 0.80472 0.47497 0.0
H1875 H 0.60387 0.80338 0.44819 0.0
C1876 C 0.64629 0.80225 0.51451 0.0
C1877 C 0.66723 0.82335 0.52142 0.0
C1878 C 0.64086 0.79915 0.49904 0.0
C1879 C 0.65649 0.81694 0.49024 0.0
C1880 C 0.67765 0.83779 0.49716 0.0
C1881 C 0.68291 0.84101 0.5126 0.0
C1882 C 0.66355 0.81797 0.44903 0.0
C1883 C 0.64021 0.81248 0.44292 0.0
C1884 C 0.6687 0.81897 0.46437 0.0
C1885 C 0.65056 0.81427 0.47392 0.0
C1886 C 0.62705 0.80813 0.46783 0.0
C1887 C 0.62195 0.80735 0.45249 0.0
H1888 H 0.17756 0.83777 0.52288 0.0
H1889 H 0.1011 0.80719 0.50758 0.0
H1890 H 0.18639 0.83422 0.49744 0.0
H1891 H 0.1097 0.80219 0.4821 0.0
H1892 H 0.13903 0.82716 0.43739 0.0
H1893 H 0.12849 0.82699 0.46278 0.0
H1894 H 0.18243 0.80736 0.47691 0.0
H1895 H 0.19412 0.80919 0.45174 0.0
C1896 C 0.16256 0.83007 0.51409 0.0
C1897 C 0.13866 0.82308 0.51728 0.0
C1898 C 0.16758 0.8277 0.49947 0.0
C1899 C 0.14879 0.81802 0.48763 0.0
C1900 C 0.12471 0.81012 0.49089 0.0
C1901 C 0.1197 0.81265 0.50554 0.0
C1902 C 0.14887 0.8231 0.44593 0.0
C1903 C 0.1676 0.8184 0.44247 0.0
C1904 C 0.14251 0.82258 0.46049 0.0
C1905 C 0.15458 0.81716 0.47196 0.0
C1906 C 0.17295 0.81195 0.46843 0.0
C1907 C 0.17946 0.81268 0.45391 0.0
H1908 H 0.65944 0.87491 0.16833 0.0
H1909 H 0.69187 0.82883 0.16525 0.0
H1910 H 0.66875 0.88092 0.19527 0.0
H1911 H 0.69959 0.83342 0.1922 0.0
H1912 H 0.72632 0.85779 0.24022 0.0
H1913 H 0.72306 0.86013 0.21354 0.0
H1914 H 0.65425 0.85835 0.21591 0.0
H1915 H 0.65842 0.85785 0.24276 0.0
C1916 C 0.66874 0.86621 0.17337 0.0
C1917 C 0.6748 0.85128 0.16459 0.0
C1918 C 0.67376 0.86938 0.18886 0.0
C1919 C 0.68476 0.85752 0.19596 0.0
C1920 C 0.69136 0.84309 0.18715 0.0
C1921 C 0.68657 0.84013 0.17166 0.0
C1922 C 0.71081 0.85856 0.23514 0.0
C1923 C 0.69256 0.8575 0.24369 0.0
C1924 C 0.70874 0.85951 0.21977 0.0
C1925 C 0.68825 0.85911 0.2125 0.0
C1926 C 0.67041 0.85888 0.2211 0.0
C1927 C 0.67261 0.85822 0.23651 0.0
H1928 H 0.15927 0.83136 0.16499 0.0
H1929 H 0.2369 0.87662 0.17796 0.0
H1930 H 0.15116 0.83782 0.19016 0.0
H1931 H 0.2287 0.88453 0.20307 0.0
H1932 H 0.20563 0.86345 0.24983 0.0
H1933 H 0.21601 0.86363 0.22444 0.0
H1934 H 0.15071 0.86478 0.2088 0.0
H1935 H 0.13935 0.86264 0.23404 0.0
C1936 C 0.17465 0.8429 0.17319 0.0
C1937 C 0.19877 0.85311 0.16947 0.0
C1938 C 0.16996 0.84697 0.18764 0.0
C1939 C 0.18926 0.86166 0.19876 0.0
C1940 C 0.21338 0.87278 0.19488 0.0
C1941 C 0.21809 0.86851 0.18041 0.0
C1942 C 0.19337 0.86357 0.24098 0.0
C1943 C 0.17141 0.8626 0.24404 0.0
C1944 C 0.19956 0.8641 0.22639 0.0
C1945 C 0.18411 0.86398 0.21446 0.0
C1946 C 0.16282 0.86435 0.21763 0.0
C1947 C 0.15647 0.86351 0.2322 0.0
H1948 H 0.1993 0.41049 0.18633 0.0
H1949 H 0.20192 0.34692 0.16877 0.0
H1950 H 0.18874 0.39305 0.20996 0.0
H1951 H 0.19175 0.32961 0.19256 0.0
H1952 H 0.14383 0.29532 0.23088 0.0
H1953 H 0.15608 0.31261 0.20736 0.0
H1954 H 0.20689 0.3829 0.23142 0.0
H1955 H 0.19504 0.36561 0.25493 0.0
C1956 C 0.19767 0.3928 0.18753 0.0
C1957 C 0.20138 0.38006 0.17565 0.0
C1958 C 0.19182 0.3829 0.20112 0.0
C1959 C 0.18936 0.35992 0.20315 0.0
C1960 C 0.19328 0.34725 0.19131 0.0
C1961 C 0.19935 0.35727 0.17774 0.0
C1962 C 0.15782 0.31439 0.23119 0.0
C1963 C 0.16833 0.32905 0.24486 0.0
C1964 C 0.16484 0.3243 0.21769 0.0
C1965 C 0.18243 0.34915 0.21751 0.0
C1966 C 0.19302 0.36378 0.23116 0.0
C1967 C 0.18613 0.35385 0.24465 0.0
H1968 H 0.8457 0.64964 0.85622 0.0
H1969 H 0.76864 0.61652 0.84163 0.0
H1970 H 0.85555 0.66659 0.83247 0.0
H1971 H 0.77865 0.634 0.81792 0.0
H1972 H 0.80837 0.68915 0.78247 0.0
H1973 H 0.79827 0.67403 0.80684 0.0
H1974 H 0.85151 0.65034 0.80622 0.0
H1975 H 0.86183 0.66573 0.78204 0.0
C1976 C 0.83081 0.64586 0.84795 0.0
C1977 C 0.80633 0.63143 0.85085 0.0
C1978 C 0.83651 0.65565 0.83432 0.0
C1979 C 0.8179 0.6515 0.82325 0.0
C1980 C 0.79342 0.6377 0.82626 0.0
C1981 C 0.7877 0.62773 0.83989 0.0
C1982 C 0.81804 0.68089 0.78761 0.0
C1983 C 0.83591 0.67865 0.78031 0.0
C1984 C 0.8121 0.67204 0.8015 0.0
C1985 C 0.8241 0.661 0.80848 0.0
C1986 C 0.84209 0.65895 0.80122 0.0
C1987 C 0.84785 0.66757 0.7873 0.0
H1988 H 0.30659 0.12491 0.85712 0.0
H1989 H 0.3491 0.20368 0.85782 0.0
H1990 H 0.29925 0.1212 0.83005 0.0
H1991 H 0.34082 0.20003 0.83088 0.0
H1992 H 0.34564 0.18338 0.782 0.0
H1993 H 0.35247 0.18622 0.80902 0.0
H1994 H 0.27747 0.12937 0.81026 0.0
H1995 H 0.27095 0.12575 0.78317 0.0
C1996 C 0.31426 0.14143 0.85151 0.0
C1997 C 0.32846 0.16458 0.85963 0.0
C1998 C 0.30984 0.13932 0.83601 0.0
C1999 C 0.31952 0.16031 0.8283 0.0
C2000 C 0.33338 0.18347 0.83646 0.0
C2001 C 0.33783 0.18558 0.85193 0.0
C2002 C 0.3307 0.17127 0.78802 0.0
C2003 C 0.30775 0.15433 0.78042 0.0
C2004 C 0.33452 0.17312 0.80352 0.0
C2005 C 0.31547 0.15812 0.8118 0.0
C2006 C 0.29257 0.14106 0.80421 0.0
C2007 C 0.28876 0.13918 0.78869 0.0
H2008 H 0.84291 0.17293 0.85668 0.0
H2009 H 0.7674 0.14613 0.84051 0.0
H2010 H 0.85215 0.16892 0.83128 0.0
H2011 H 0.77666 0.14158 0.81505 0.0
H2012 H 0.80225 0.11808 0.77296 0.0
H2013 H 0.79146 0.11835 0.79849 0.0
H2014 H 0.85305 0.19158 0.80893 0.0
H2015 H 0.86387 0.19126 0.7835 0.0
C2016 C 0.82824 0.16608 0.84772 0.0
C2017 C 0.80448 0.16021 0.85062 0.0
C2018 C 0.83356 0.16378 0.83318 0.0
C2019 C 0.8152 0.15527 0.82119 0.0
C2020 C 0.79115 0.14814 0.82411 0.0
C2021 C 0.78585 0.15066 0.83869 0.0
C2022 C 0.81351 0.13417 0.78076 0.0
C2023 C 0.83393 0.15465 0.77628 0.0
C2024 C 0.80724 0.13437 0.7953 0.0
C2025 C 0.82149 0.15493 0.80569 0.0
C2026 C 0.8419 0.17538 0.8012 0.0
C2027 C 0.84797 0.17529 0.78662 0.0
H2028 H 0.35722 0.15527 0.49908 0.0
H2029 H 0.31045 0.18603 0.50542 0.0
H2030 H 0.36506 0.1571 0.52593 0.0
H2031 H 0.31943 0.18918 0.5323 0.0
H2032 H 0.31762 0.16498 0.57884 0.0
H2033 H 0.31008 0.163 0.55193 0.0
H2034 H 0.38564 0.18491 0.54777 0.0
H2035 H 0.39281 0.18548 0.57457 0.0
C2036 C 0.34871 0.16255 0.50621 0.0
C2037 C 0.33308 0.17036 0.50008 0.0
C2038 C 0.35345 0.16388 0.52162 0.0
C2039 C 0.34281 0.17321 0.53129 0.0
C2040 C 0.32762 0.18154 0.52517 0.0
C2041 C 0.32276 0.18008 0.50975 0.0
C2042 C 0.33253 0.169 0.57217 0.0
C2043 C 0.35581 0.17535 0.57888 0.0
C2044 C 0.3283 0.16824 0.55675 0.0
C2045 C 0.34729 0.17394 0.54769 0.0
C2046 C 0.37054 0.18018 0.5544 0.0
C2047 C 0.37472 0.1808 0.5698 0.0
H2048 H 0.89662 0.1855 0.51106 0.0
H2049 H 0.81959 0.14689 0.49548 0.0
H2050 H 0.88696 0.19116 0.53624 0.0
H2051 H 0.81002 0.15219 0.52059 0.0
H2052 H 0.80221 0.13771 0.56969 0.0
H2053 H 0.81284 0.13539 0.54442 0.0
H2054 H 0.86868 0.21181 0.55133 0.0
H2055 H 0.85822 0.21405 0.57677 0.0
C2056 C 0.87768 0.17851 0.51295 0.0
C2057 C 0.85887 0.16545 0.50128 0.0
C2058 C 0.87215 0.18171 0.52737 0.0
C2059 C 0.84771 0.17183 0.53042 0.0
C2060 C 0.829 0.15955 0.51866 0.0
C2061 C 0.83451 0.15649 0.50427 0.0
C2062 C 0.81683 0.15398 0.56584 0.0
C2063 C 0.82937 0.17605 0.57521 0.0
C2064 C 0.82277 0.15272 0.55133 0.0
C2065 C 0.84153 0.17345 0.54587 0.0
C2066 C 0.85422 0.19551 0.55525 0.0
C2067 C 0.84809 0.19684 0.56975 0.0
H2068 H 0.86567 0.7479 0.51936 0.0
H2069 H 0.86953 0.6845 0.50304 0.0
H2070 H 0.85578 0.73164 0.5433 0.0
H2071 H 0.85904 0.6678 0.52692 0.0
H2072 H 0.86119 0.65541 0.57634 0.0
H2073 H 0.87285 0.67212 0.55261 0.0
H2074 H 0.82339 0.70053 0.55451 0.0
H2075 H 0.81223 0.68428 0.57835 0.0
C2076 C 0.86426 0.73038 0.52087 0.0
C2077 C 0.86828 0.71744 0.50926 0.0
C2078 C 0.85847 0.72097 0.5346 0.0
C2079 C 0.85633 0.69823 0.53708 0.0
C2080 C 0.86078 0.68548 0.52553 0.0
C2081 C 0.86678 0.69503 0.51181 0.0
C2082 C 0.85271 0.6651 0.57162 0.0
C2083 C 0.83581 0.66855 0.57926 0.0
C2084 C 0.85937 0.67467 0.55799 0.0
C2085 C 0.84918 0.68781 0.55158 0.0
C2086 C 0.83206 0.691 0.55919 0.0
C2087 C 0.82556 0.6816 0.57287 0.0
loop_
_geom_bond_atom_site_label_1
_geom_bond_atom_site_label_2
_geom_bond_distance
_geom_bond_site_symmetry_2
_ccdc_geom_bond_type
C0 C1 1.384 . S
C0 H13 0.947 . S
C0 C35 1.382 . S
C1 C0 1.384 . S
C1 C2 1.378 . S
C2 C1 1.378 . S
C2 C3 1.378 . S
C2 H14 0.952 . S
C3 C2 1.378 . S
C3 H15 0.950 . S
C3 C34 1.383 . S
H4 C23 0.947 . S
H5 C24 0.946 . S
H6 C26 0.953 . S
H7 C27 0.945 . S
H8 C29 0.952 . S
H9 C30 0.949 . S
H10 C32 0.950 . S
H11 C33 0.948 . S
H12 C35 0.951 . S
H13 C0 0.947 . S
H14 C2 0.952 . S
H15 C3 0.950 . S
N16 C19 1.382 . S
N16 C21 1.363 . S
N17 C19 1.371 . S
N17 C20 1.372 . S
N18 C20 1.361 . S
N18 C21 1.377 . S
C19 N16 1.382 . S
C19 N17 1.371 . S
C19 C22 1.480 . S
C20 N17 1.372 . S
C20 N18 1.361 . S
C20 C28 1.457 . S
C21 N16 1.363 . S
C21 N18 1.377 . S
C21 C34 1.479 . S
C22 C19 1.480 . S
C22 C23 1.383 . S
C22 C27 1.385 . S
C23 H4 0.947 . S
C23 C22 1.383 . S
C23 C24 1.388 . S
C24 H5 0.946 . S
C24 C23 1.388 . S
C24 C25 1.384 . S
C25 C24 1.384 . S
C25 C26 1.377 . S
C26 H6 0.953 . S
C26 C25 1.377 . S
C26 C27 1.369 . S
C27 H7 0.945 . S
C27 C22 1.385 . S
C27 C26 1.369 . S
C28 C20 1.457 . S
C28 C29 1.372 . S
C28 C33 1.364 . S
C29 H8 0.952 . S
C29 C28 1.372 . S
C29 C30 1.389 . S
C30 H9 0.949 . S
C30 C29 1.389 . S
C30 C31 1.387 . S
C31 C30 1.387 . S
C31 C32 1.372 . S
C32 H10 0.950 . S
C32 C31 1.372 . S
C32 C33 1.379 . S
C33 H11 0.948 . S
C33 C28 1.364 . S
C33 C32 1.379 . S
C34 C3 1.383 . S
C34 C21 1.479 . S
C34 C35 1.398 . S
C35 C0 1.382 . S
C35 H12 0.951 . S
C35 C34 1.398 . S
C36 C37 1.384 . S
C36 H49 0.947 . S
C36 C71 1.382 . S
C37 C36 1.384 . S
C37 C38 1.378 . S
C38 C37 1.378 . S
C38 C39 1.378 . S
C38 H50 0.952 . S
C39 C38 1.378 . S
C39 H51 0.950 . S
C39 C70 1.383 . S
H40 C59 0.947 . S
H41 C60 0.946 . S
H42 C62 0.953 . S
H43 C63 0.945 . S
H44 C65 0.952 . S
H45 C66 0.949 . S
H46 C68 0.950 . S
H47 C69 0.948 . S
H48 C71 0.951 . S
H49 C36 0.947 . S
H50 C38 0.952 . S
H51 C39 0.950 . S
N52 C55 1.382 . S
N52 C57 1.363 . S
N53 C55 1.371 . S
N53 C56 1.372 . S
N54 C56 1.361 . S
N54 C57 1.377 . S
C55 N52 1.382 . S
C55 N53 1.371 . S
C55 C58 1.480 . S
C56 N53 1.372 . S
C56 N54 1.361 . S
C56 C64 1.457 . S
C57 N52 1.363 . S
C57 N54 1.377 . S
C57 C70 1.479 . S
C58 C55 1.480 . S
C58 C59 1.383 . S
C58 C63 1.385 . S
C59 H40 0.947 . S
C59 C58 1.383 . S
C59 C60 1.388 . S
C60 H41 0.946 . S
C60 C59 1.388 . S
C60 C61 1.384 . S
C61 C60 1.384 . S
C61 C62 1.377 . S
C62 H42 0.953 . S
C62 C61 1.377 . S
C62 C63 1.369 . S
C63 H43 0.945 . S
C63 C58 1.385 . S
C63 C62 1.369 . S
C64 C56 1.457 . S
C64 C65 1.372 . S
C64 C69 1.364 . S
C65 H44 0.952 . S
C65 C64 1.372 . S
C65 C66 1.389 . S
C66 H45 0.949 . S
C66 C65 1.389 . S
C66 C67 1.387 . S
C67 C66 1.387 . S
C67 C68 1.372 . S
C68 H46 0.950 . S
C68 C67 1.372 . S
C68 C69 1.379 . S
C69 H47 0.948 . S
C69 C64 1.364 . S
C69 C68 1.379 . S
C70 C39 1.383 . S
C70 C57 1.479 . S
C70 C71 1.398 . S
C71 C36 1.382 . S
C71 H48 0.951 . S
C71 C70 1.398 . S
C72 C73 1.384 . S
C72 H85 0.947 . S
C72 C107 1.382 . S
C73 C72 1.384 . S
C73 C74 1.378 . S
C74 C73 1.378 . S
C74 C75 1.378 . S
C74 H86 0.952 . S
C75 C74 1.378 . S
C75 H87 0.950 . S
C75 C106 1.383 . S
H76 C95 0.947 . S
H77 C96 0.946 . S
H78 C98 0.953 . S
H79 C99 0.945 . S
H80 C101 0.952 . S
H81 C102 0.949 . S
H82 C104 0.950 . S
H83 C105 0.948 . S
H84 C107 0.951 . S
H85 C72 0.947 . S
H86 C74 0.952 . S
H87 C75 0.950 . S
N88 C91 1.382 . S
N88 C93 1.363 . S
N89 C91 1.371 . S
N89 C92 1.372 . S
N90 C92 1.361 . S
N90 C93 1.377 . S
C91 N88 1.382 . S
C91 N89 1.371 . S
C91 C94 1.480 . S
C92 N89 1.372 . S
C92 N90 1.361 . S
C92 C100 1.457 . S
C93 N88 1.363 . S
C93 N90 1.377 . S
C93 C106 1.479 . S
C94 C91 1.480 . S
C94 C95 1.383 . S
C94 C99 1.385 . S
C95 H76 0.947 . S
C95 C94 1.383 . S
C95 C96 1.388 . S
C96 H77 0.946 . S
C96 C95 1.388 . S
C96 C97 1.384 . S
C97 C96 1.384 . S
C97 C98 1.377 . S
C98 H78 0.953 . S
C98 C97 1.377 . S
C98 C99 1.369 . S
C99 H79 0.945 . S
C99 C94 1.385 . S
C99 C98 1.369 . S
C100 C92 1.457 . S
C100 C101 1.372 . S
C100 C105 1.364 . S
C101 H80 0.952 . S
C101 C100 1.372 . S
C101 C102 1.389 . S
C102 H81 0.949 . S
C102 C101 1.389 . S
C102 C103 1.387 . S
C103 C102 1.387 . S
C103 C104 1.372 . S
C104 H82 0.950 . S
C104 C103 1.372 . S
C104 C105 1.379 . S
C105 H83 0.948 . S
C105 C100 1.364 . S
C105 C104 1.379 . S
C106 C75 1.383 . S
C106 C93 1.479 . S
C106 C107 1.398 . S
C107 C72 1.382 . S
C107 H84 0.951 . S
C107 C106 1.398 . S
C108 C109 1.384 . S
C108 H121 0.947 . S
C108 C143 1.382 . S
C109 C108 1.384 . S
C109 C110 1.378 . S
C110 C109 1.378 . S
C110 C111 1.378 . S
C110 H122 0.952 . S
C111 C110 1.378 . S
C111 H123 0.950 . S
C111 C142 1.383 . S
H112 C131 0.947 . S
H113 C132 0.946 . S
H114 C134 0.953 . S
H115 C135 0.945 . S
H116 C137 0.952 . S
H117 C138 0.949 . S
H118 C140 0.950 . S
H119 C141 0.948 . S
H120 C143 0.951 . S
H121 C108 0.947 . S
H122 C110 0.952 . S
H123 C111 0.950 . S
N124 C127 1.382 . S
N124 C129 1.363 . S
N125 C127 1.371 . S
N125 C128 1.372 . S
N126 C128 1.361 . S
N126 C129 1.377 . S
C127 N124 1.382 . S
C127 N125 1.371 . S
C127 C130 1.480 . S
C128 N125 1.372 . S
C128 N126 1.361 . S
C128 C136 1.457 . S
C129 N124 1.363 . S
C129 N126 1.377 . S
C129 C142 1.479 . S
C130 C127 1.480 . S
C130 C131 1.383 . S
C130 C135 1.385 . S
C131 H112 0.947 . S
C131 C130 1.383 . S
C131 C132 1.388 . S
C132 H113 0.946 . S
C132 C131 1.388 . S
C132 C133 1.384 . S
C133 C132 1.384 . S
C133 C134 1.377 . S
C134 H114 0.953 . S
C134 C133 1.377 . S
C134 C135 1.369 . S
C135 H115 0.945 . S
C135 C130 1.385 . S
C135 C134 1.369 . S
C136 C128 1.457 . S
C136 C137 1.372 . S
C136 C141 1.364 . S
C137 H116 0.952 . S
C137 C136 1.372 . S
C137 C138 1.389 . S
C138 H117 0.949 . S
C138 C137 1.389 . S
C138 C139 1.387 . S
C139 C138 1.387 . S
C139 C140 1.372 . S
C140 H118 0.950 . S
C140 C139 1.372 . S
C140 C141 1.379 . S
C141 H119 0.948 . S
C141 C136 1.364 . S
C141 C140 1.379 . S
C142 C111 1.383 . S
C142 C129 1.479 . S
C142 C143 1.398 . S
C143 C108 1.382 . S
C143 H120 0.951 . S
C143 C142 1.398 . S
C144 C145 1.384 . S
C144 H157 0.947 . S
C144 C179 1.382 . S
C145 C144 1.384 . S
C145 C146 1.378 . S
C146 C145 1.378 . S
C146 C147 1.378 . S
C146 H158 0.952 . S
C147 C146 1.378 . S
C147 H159 0.950 . S
C147 C178 1.383 . S
H148 C167 0.947 . S
H149 C168 0.946 . S
H150 C170 0.953 . S
H151 C171 0.945 . S
H152 C173 0.952 . S
H153 C174 0.949 . S
H154 C176 0.950 . S
H155 C177 0.948 . S
H156 C179 0.951 . S
H157 C144 0.947 . S
H158 C146 0.952 . S
H159 C147 0.950 . S
N160 C163 1.382 . S
N160 C165 1.363 . S
N161 C163 1.371 . S
N161 C164 1.372 . S
N162 C164 1.361 . S
N162 C165 1.377 . S
C163 N160 1.382 . S
C163 N161 1.371 . S
C163 C166 1.480 . S
C164 N161 1.372 . S
C164 N162 1.361 . S
C164 C172 1.457 . S
C165 N160 1.363 . S
C165 N162 1.377 . S
C165 C178 1.479 . S
C166 C163 1.480 . S
C166 C167 1.383 . S
C166 C171 1.385 . S
C167 H148 0.947 . S
C167 C166 1.383 . S
C167 C168 1.388 . S
C168 H149 0.946 . S
C168 C167 1.388 . S
C168 C169 1.384 . S
C169 C168 1.384 . S
C169 C170 1.377 . S
C170 H150 0.953 . S
C170 C169 1.377 . S
C170 C171 1.369 . S
C171 H151 0.945 . S
C171 C166 1.385 . S
C171 C170 1.369 . S
C172 C164 1.457 . S
C172 C173 1.372 . S
C172 C177 1.364 . S
C173 H152 0.952 . S
C173 C172 1.372 . S
C173 C174 1.389 . S
C174 H153 0.949 . S
C174 C173 1.389 . S
C174 C175 1.387 . S
C175 C174 1.387 . S
C175 C176 1.372 . S
C176 H154 0.950 . S
C176 C175 1.372 . S
C176 C177 1.379 . S
C177 H155 0.948 . S
C177 C172 1.364 . S
C177 C176 1.379 . S
C178 C147 1.383 . S
C178 C165 1.479 . S
C178 C179 1.398 . S
C179 C144 1.382 . S
C179 H156 0.951 . S
C179 C178 1.398 . S
C180 C181 1.384 . S
C180 H193 0.947 . S
C180 C215 1.382 . S
C181 C180 1.384 . S
C181 C182 1.378 . S
C182 C181 1.378 . S
C182 C183 1.378 . S
C182 H194 0.952 . S
C183 C182 1.378 . S
C183 H195 0.950 . S
C183 C214 1.383 . S
H184 C203 0.947 . S
H185 C204 0.946 . S
H186 C206 0.953 . S
H187 C207 0.945 . S
H188 C209 0.952 . S
H189 C210 0.949 . S
H190 C212 0.950 . S
H191 C213 0.948 . S
H192 C215 0.951 . S
H193 C180 0.947 . S
H194 C182 0.952 . S
H195 C183 0.950 . S
N196 C199 1.382 . S
N196 C201 1.363 . S
N197 C199 1.371 . S
N197 C200 1.372 . S
N198 C200 1.361 . S
N198 C201 1.377 . S
C199 N196 1.382 . S
C199 N197 1.371 . S
C199 C202 1.480 . S
C200 N197 1.372 . S
C200 N198 1.361 . S
C200 C208 1.457 . S
C201 N196 1.363 . S
C201 N198 1.377 . S
C201 C214 1.479 . S
C202 C199 1.480 . S
C202 C203 1.383 . S
C202 C207 1.385 . S
C203 H184 0.947 . S
C203 C202 1.383 . S
C203 C204 1.388 . S
C204 H185 0.946 . S
C204 C203 1.388 . S
C204 C205 1.384 . S
C205 C204 1.384 . S
C205 C206 1.377 . S
C206 H186 0.953 . S
C206 C205 1.377 . S
C206 C207 1.369 . S
C207 H187 0.945 . S
C207 C202 1.385 . S
C207 C206 1.369 . S
C208 C200 1.457 . S
C208 C209 1.372 . S
C208 C213 1.364 . S
C209 H188 0.952 . S
C209 C208 1.372 . S
C209 C210 1.389 . S
C210 H189 0.949 . S
C210 C209 1.389 . S
C210 C211 1.387 . S
C211 C210 1.387 . S
C211 C212 1.372 . S
C212 H190 0.950 . S
C212 C211 1.372 . S
C212 C213 1.379 . S
C213 H191 0.948 . S
C213 C208 1.364 . S
C213 C212 1.379 . S
C214 C183 1.383 . S
C214 C201 1.479 . S
C214 C215 1.398 . S
C215 C180 1.382 . S
C215 H192 0.951 . S
C215 C214 1.398 . S
C216 C217 1.384 . S
C216 H229 0.947 . S
C216 C251 1.382 . S
C217 C216 1.384 . S
C217 C218 1.378 . S
C218 C217 1.378 . S
C218 C219 1.378 . S
C218 H230 0.952 . S
C219 C218 1.378 . S
C219 H231 0.950 . S
C219 C250 1.383 . S
H220 C239 0.947 . S
H221 C240 0.946 . S
H222 C242 0.953 . S
H223 C243 0.945 . S
H224 C245 0.952 . S
H225 C246 0.949 . S
H226 C248 0.950 . S
H227 C249 0.948 . S
H228 C251 0.951 . S
H229 C216 0.947 . S
H230 C218 0.952 . S
H231 C219 0.950 . S
N232 C235 1.382 . S
N232 C237 1.363 . S
N233 C235 1.371 . S
N233 C236 1.372 . S
N234 C236 1.361 . S
N234 C237 1.377 . S
C235 N232 1.382 . S
C235 N233 1.371 . S
C235 C238 1.480 . S
C236 N233 1.372 . S
C236 N234 1.361 . S
C236 C244 1.457 . S
C237 N232 1.363 . S
C237 N234 1.377 . S
C237 C250 1.479 . S
C238 C235 1.480 . S
C238 C239 1.383 . S
C238 C243 1.385 . S
C239 H220 0.947 . S
C239 C238 1.383 . S
C239 C240 1.388 . S
C240 H221 0.946 . S
C240 C239 1.388 . S
C240 C241 1.384 . S
C241 C240 1.384 . S
C241 C242 1.377 . S
C242 H222 0.953 . S
C242 C241 1.377 . S
C242 C243 1.369 . S
C243 H223 0.945 . S
C243 C238 1.385 . S
C243 C242 1.369 . S
C244 C236 1.457 . S
C244 C245 1.372 . S
C244 C249 1.364 . S
C245 H224 0.952 . S
C245 C244 1.372 . S
C245 C246 1.389 . S
C246 H225 0.949 . S
C246 C245 1.389 . S
C246 C247 1.387 . S
C247 C246 1.387 . S
C247 C248 1.372 . S
C248 H226 0.950 . S
C248 C247 1.372 . S
C248 C249 1.379 . S
C249 H227 0.948 . S
C249 C244 1.364 . S
C249 C248 1.379 . S
C250 C219 1.383 . S
C250 C237 1.479 . S
C250 C251 1.398 . S
C251 C216 1.382 . S
C251 H228 0.951 . S
C251 C250 1.398 . S
C252 C253 1.384 . S
C252 H265 0.947 . S
C252 C287 1.382 . S
C253 C252 1.384 . S
C253 C254 1.378 . S
C254 C253 1.378 . S
C254 C255 1.378 . S
C254 H266 0.952 . S
C255 C254 1.378 . S
C255 H267 0.950 . S
C255 C286 1.383 . S
H256 C275 0.947 . S
H257 C276 0.946 . S
H258 C278 0.953 . S
H259 C279 0.945 . S
H260 C281 0.952 . S
H261 C282 0.949 . S
H262 C284 0.950 . S
H263 C285 0.948 . S
H264 C287 0.951 . S
H265 C252 0.947 . S
H266 C254 0.952 . S
H267 C255 0.950 . S
N268 C271 1.382 . S
N268 C273 1.363 . S
N269 C271 1.371 . S
N269 C272 1.372 . S
N270 C272 1.361 . S
N270 C273 1.377 . S
C271 N268 1.382 . S
C271 N269 1.371 . S
C271 C274 1.480 . S
C272 N269 1.372 . S
C272 N270 1.361 . S
C272 C280 1.457 . S
C273 N268 1.363 . S
C273 N270 1.377 . S
C273 C286 1.479 . S
C274 C271 1.480 . S
C274 C275 1.383 . S
C274 C279 1.385 . S
C275 H256 0.947 . S
C275 C274 1.383 . S
C275 C276 1.388 . S
C276 H257 0.946 . S
C276 C275 1.388 . S
C276 C277 1.384 . S
C277 C276 1.384 . S
C277 C278 1.377 . S
C278 H258 0.953 . S
C278 C277 1.377 . S
C278 C279 1.369 . S
C279 H259 0.945 . S
C279 C274 1.385 . S
C279 C278 1.369 . S
C280 C272 1.457 . S
C280 C281 1.372 . S
C280 C285 1.364 . S
C281 H260 0.952 . S
C281 C280 1.372 . S
C281 C282 1.389 . S
C282 H261 0.949 . S
C282 C281 1.389 . S
C282 C283 1.387 . S
C283 C282 1.387 . S
C283 C284 1.372 . S
C284 H262 0.950 . S
C284 C283 1.372 . S
C284 C285 1.379 . S
C285 H263 0.948 . S
C285 C280 1.364 . S
C285 C284 1.379 . S
C286 C255 1.383 . S
C286 C273 1.479 . S
C286 C287 1.398 . S
C287 C252 1.382 . S
C287 H264 0.951 . S
C287 C286 1.398 . S
C288 C289 1.384 . S
C288 H301 0.947 . S
C288 C323 1.382 . S
C289 C288 1.384 . S
C289 C290 1.378 . S
C290 C289 1.378 . S
C290 C291 1.378 . S
C290 H302 0.952 . S
C291 C290 1.378 . S
C291 H303 0.950 . S
C291 C322 1.383 . S
H292 C311 0.947 . S
H293 C312 0.946 . S
H294 C314 0.953 . S
H295 C315 0.945 . S
H296 C317 0.952 . S
H297 C318 0.949 . S
H298 C320 0.950 . S
H299 C321 0.948 . S
H300 C323 0.951 . S
H301 C288 0.947 . S
H302 C290 0.952 . S
H303 C291 0.950 . S
N304 C307 1.382 . S
N304 C309 1.363 . S
N305 C307 1.371 . S
N305 C308 1.372 . S
N306 C308 1.361 . S
N306 C309 1.377 . S
C307 N304 1.382 . S
C307 N305 1.371 . S
C307 C310 1.480 . S
C308 N305 1.372 . S
C308 N306 1.361 . S
C308 C316 1.457 . S
C309 N304 1.363 . S
C309 N306 1.377 . S
C309 C322 1.479 . S
C310 C307 1.480 . S
C310 C311 1.383 . S
C310 C315 1.385 . S
C311 H292 0.947 . S
C311 C310 1.383 . S
C311 C312 1.388 . S
C312 H293 0.946 . S
C312 C311 1.388 . S
C312 C313 1.384 . S
C313 C312 1.384 . S
C313 C314 1.377 . S
C314 H294 0.953 . S
C314 C313 1.377 . S
C314 C315 1.369 . S
C315 H295 0.945 . S
C315 C310 1.385 . S
C315 C314 1.369 . S
C316 C308 1.457 . S
C316 C317 1.372 . S
C316 C321 1.364 . S
C317 H296 0.952 . S
C317 C316 1.372 . S
C317 C318 1.389 . S
C318 H297 0.949 . S
C318 C317 1.389 . S
C318 C319 1.387 . S
C319 C318 1.387 . S
C319 C320 1.372 . S
C320 H298 0.950 . S
C320 C319 1.372 . S
C320 C321 1.379 . S
C321 H299 0.948 . S
C321 C316 1.364 . S
C321 C320 1.379 . S
C322 C291 1.383 . S
C322 C309 1.479 . S
C322 C323 1.398 . S
C323 C288 1.382 . S
C323 H300 0.951 . S
C323 C322 1.398 . S
C324 C325 1.384 . S
C324 H337 0.947 . S
C324 C359 1.382 . S
C325 C324 1.384 . S
C325 C326 1.378 . S
C326 C325 1.378 . S
C326 C327 1.378 . S
C326 H338 0.952 . S
C327 C326 1.378 . S
C327 H339 0.950 . S
C327 C358 1.383 . S
H328 C347 0.947 . S
H329 C348 0.946 . S
H330 C350 0.953 . S
H331 C351 0.945 . S
H332 C353 0.952 . S
H333 C354 0.949 . S
H334 C356 0.950 . S
H335 C357 0.948 . S
H336 C359 0.951 . S
H337 C324 0.947 . S
H338 C326 0.952 . S
H339 C327 0.950 . S
N340 C343 1.382 . S
N340 C345 1.363 . S
N341 C343 1.371 . S
N341 C344 1.372 . S
N342 C344 1.361 . S
N342 C345 1.377 . S
C343 N340 1.382 . S
C343 N341 1.371 . S
C343 C346 1.480 . S
C344 N341 1.372 . S
C344 N342 1.361 . S
C344 C352 1.457 . S
C345 N340 1.363 . S
C345 N342 1.377 . S
C345 C358 1.479 . S
C346 C343 1.480 . S
C346 C347 1.383 . S
C346 C351 1.385 . S
C347 H328 0.947 . S
C347 C346 1.383 . S
C347 C348 1.388 . S
C348 H329 0.946 . S
C348 C347 1.388 . S
C348 C349 1.384 . S
C349 C348 1.384 . S
C349 C350 1.377 . S
C350 H330 0.953 . S
C350 C349 1.377 . S
C350 C351 1.369 . S
C351 H331 0.945 . S
C351 C346 1.385 . S
C351 C350 1.369 . S
C352 C344 1.457 . S
C352 C353 1.372 . S
C352 C357 1.364 . S
C353 H332 0.952 . S
C353 C352 1.372 . S
C353 C354 1.389 . S
C354 H333 0.949 . S
C354 C353 1.389 . S
C354 C355 1.387 . S
C355 C354 1.387 . S
C355 C356 1.372 . S
C356 H334 0.950 . S
C356 C355 1.372 . S
C356 C357 1.379 . S
C357 H335 0.948 . S
C357 C352 1.364 . S
C357 C356 1.379 . S
C358 C327 1.383 . S
C358 C345 1.479 . S
C358 C359 1.398 . S
C359 C324 1.382 . S
C359 H336 0.951 . S
C359 C358 1.398 . S
C360 C361 1.384 . S
C360 H373 0.947 . S
C360 C395 1.382 . S
C361 C360 1.384 . S
C361 C362 1.378 . S
C362 C361 1.378 . S
C362 C363 1.378 . S
C362 H374 0.952 . S
C363 C362 1.378 . S
C363 H375 0.950 . S
C363 C394 1.383 . S
H364 C383 0.947 . S
H365 C384 0.946 . S
H366 C386 0.953 . S
H367 C387 0.945 . S
H368 C389 0.952 . S
H369 C390 0.949 . S
H370 C392 0.950 . S
H371 C393 0.948 . S
H372 C395 0.951 . S
H373 C360 0.947 . S
H374 C362 0.952 . S
H375 C363 0.950 . S
N376 C379 1.382 . S
N376 C381 1.363 . S
N377 C379 1.371 . S
N377 C380 1.372 . S
N378 C380 1.361 . S
N378 C381 1.377 . S
C379 N376 1.382 . S
C379 N377 1.371 . S
C379 C382 1.480 . S
C380 N377 1.372 . S
C380 N378 1.361 . S
C380 C388 1.457 . S
C381 N376 1.363 . S
C381 N378 1.377 . S
C381 C394 1.479 . S
C382 C379 1.480 . S
C382 C383 1.383 . S
C382 C387 1.385 . S
C383 H364 0.947 . S
C383 C382 1.383 . S
C383 C384 1.388 . S
C384 H365 0.946 . S
C384 C383 1.388 . S
C384 C385 1.384 . S
C385 C384 1.384 . S
C385 C386 1.377 . S
C386 H366 0.953 . S
C386 C385 1.377 . S
C386 C387 1.369 . S
C387 H367 0.945 . S
C387 C382 1.385 . S
C387 C386 1.369 . S
C388 C380 1.457 . S
C388 C389 1.372 . S
C388 C393 1.364 . S
C389 H368 0.952 . S
C389 C388 1.372 . S
C389 C390 1.389 . S
C390 H369 0.949 . S
C390 C389 1.389 . S
C390 C391 1.387 . S
C391 C390 1.387 . S
C391 C392 1.372 . S
C392 H370 0.950 . S
C392 C391 1.372 . S
C392 C393 1.379 . S
C393 H371 0.948 . S
C393 C388 1.364 . S
C393 C392 1.379 . S
C394 C363 1.383 . S
C394 C381 1.479 . S
C394 C395 1.398 . S
C395 C360 1.382 . S
C395 H372 0.951 . S
C395 C394 1.398 . S
C396 C397 1.384 . S
C396 H409 0.947 . S
C396 C431 1.382 . S
C397 C396 1.384 . S
C397 C398 1.378 . S
C398 C397 1.378 . S
C398 C399 1.378 . S
C398 H410 0.952 . S
C399 C398 1.378 . S
C399 H411 0.950 . S
C399 C430 1.383 . S
H400 C419 0.947 . S
H401 C420 0.946 . S
H402 C422 0.953 . S
H403 C423 0.945 . S
H404 C425 0.952 . S
H405 C426 0.949 . S
H406 C428 0.950 . S
H407 C429 0.948 . S
H408 C431 0.951 . S
H409 C396 0.947 . S
H410 C398 0.952 . S
H411 C399 0.950 . S
N412 C415 1.382 . S
N412 C417 1.363 . S
N413 C415 1.371 . S
N413 C416 1.372 . S
N414 C416 1.361 . S
N414 C417 1.377 . S
C415 N412 1.382 . S
C415 N413 1.371 . S
C415 C418 1.480 . S
C416 N413 1.372 . S
C416 N414 1.361 . S
C416 C424 1.457 . S
C417 N412 1.363 . S
C417 N414 1.377 . S
C417 C430 1.479 . S
C418 C415 1.480 . S
C418 C419 1.383 . S
C418 C423 1.385 . S
C419 H400 0.947 . S
C419 C418 1.383 . S
C419 C420 1.388 . S
C420 H401 0.946 . S
C420 C419 1.388 . S
C420 C421 1.384 . S
C421 C420 1.384 . S
C421 C422 1.377 . S
C422 H402 0.953 . S
C422 C421 1.377 . S
C422 C423 1.369 . S
C423 H403 0.945 . S
C423 C418 1.385 . S
C423 C422 1.369 . S
C424 C416 1.457 . S
C424 C425 1.372 . S
C424 C429 1.364 . S
C425 H404 0.952 . S
C425 C424 1.372 . S
C425 C426 1.389 . S
C426 H405 0.949 . S
C426 C425 1.389 . S
C426 C427 1.387 . S
C427 C426 1.387 . S
C427 C428 1.372 . S
C428 H406 0.950 . S
C428 C427 1.372 . S
C428 C429 1.379 . S
C429 H407 0.948 . S
C429 C424 1.364 . S
C429 C428 1.379 . S
C430 C399 1.383 . S
C430 C417 1.479 . S
C430 C431 1.398 . S
C431 C396 1.382 . S
C431 H408 0.951 . S
C431 C430 1.398 . S
C432 C433 1.384 . S
C432 H445 0.947 . S
C432 C467 1.382 . S
C433 C432 1.384 . S
C433 C434 1.378 . S
C434 C433 1.378 . S
C434 C435 1.378 . S
C434 H446 0.952 . S
C435 C434 1.378 . S
C435 H447 0.950 . S
C435 C466 1.383 . S
H436 C455 0.947 . S
H437 C456 0.946 . S
H438 C458 0.953 . S
H439 C459 0.945 . S
H440 C461 0.952 . S
H441 C462 0.949 . S
H442 C464 0.950 . S
H443 C465 0.948 . S
H444 C467 0.951 . S
H445 C432 0.947 . S
H446 C434 0.952 . S
H447 C435 0.950 . S
N448 C451 1.382 . S
N448 C453 1.363 . S
N449 C451 1.371 . S
N449 C452 1.372 . S
N450 C452 1.361 . S
N450 C453 1.377 . S
C451 N448 1.382 . S
C451 N449 1.371 . S
C451 C454 1.480 . S
C452 N449 1.372 . S
C452 N450 1.361 . S
C452 C460 1.457 . S
C453 N448 1.363 . S
C453 N450 1.377 . S
C453 C466 1.479 . S
C454 C451 1.480 . S
C454 C455 1.383 . S
C454 C459 1.385 . S
C455 H436 0.947 . S
C455 C454 1.383 . S
C455 C456 1.388 . S
C456 H437 0.946 . S
C456 C455 1.388 . S
C456 C457 1.384 . S
C457 C456 1.384 . S
C457 C458 1.377 . S
C458 H438 0.953 . S
C458 C457 1.377 . S
C458 C459 1.369 . S
C459 H439 0.945 . S
C459 C454 1.385 . S
C459 C458 1.369 . S
C460 C452 1.457 . S
C460 C461 1.372 . S
C460 C465 1.364 . S
C461 H440 0.952 . S
C461 C460 1.372 . S
C461 C462 1.389 . S
C462 H441 0.949 . S
C462 C461 1.389 . S
C462 C463 1.387 . S
C463 C462 1.387 . S
C463 C464 1.372 . S
C464 H442 0.950 . S
C464 C463 1.372 . S
C464 C465 1.379 . S
C465 H443 0.948 . S
C465 C460 1.364 . S
C465 C464 1.379 . S
C466 C435 1.383 . S
C466 C453 1.479 . S
C466 C467 1.398 . S
C467 C432 1.382 . S
C467 H444 0.951 . S
C467 C466 1.398 . S
C468 C469 1.384 . S
C468 H481 0.947 . S
C468 C503 1.382 . S
C469 C468 1.384 . S
C469 C470 1.378 . S
C470 C469 1.378 . S
C470 C471 1.378 . S
C470 H482 0.952 . S
C471 C470 1.378 . S
C471 H483 0.950 . S
C471 C502 1.383 . S
H472 C491 0.947 . S
H473 C492 0.946 . S
H474 C494 0.953 . S
H475 C495 0.945 . S
H476 C497 0.952 . S
H477 C498 0.949 . S
H478 C500 0.950 . S
H479 C501 0.948 . S
H480 C503 0.951 . S
H481 C468 0.947 . S
H482 C470 0.952 . S
H483 C471 0.950 . S
N484 C487 1.382 . S
N484 C489 1.363 . S
N485 C487 1.371 . S
N485 C488 1.372 . S
N486 C488 1.361 . S
N486 C489 1.377 . S
C487 N484 1.382 . S
C487 N485 1.371 . S
C487 C490 1.480 . S
C488 N485 1.372 . S
C488 N486 1.361 . S
C488 C496 1.457 . S
C489 N484 1.363 . S
C489 N486 1.377 . S
C489 C502 1.479 . S
C490 C487 1.480 . S
C490 C491 1.383 . S
C490 C495 1.385 . S
C491 H472 0.947 . S
C491 C490 1.383 . S
C491 C492 1.388 . S
C492 H473 0.946 . S
C492 C491 1.388 . S
C492 C493 1.384 . S
C493 C492 1.384 . S
C493 C494 1.377 . S
C494 H474 0.953 . S
C494 C493 1.377 . S
C494 C495 1.369 . S
C495 H475 0.945 . S
C495 C490 1.385 . S
C495 C494 1.369 . S
C496 C488 1.457 . S
C496 C497 1.372 . S
C496 C501 1.364 . S
C497 H476 0.952 . S
C497 C496 1.372 . S
C497 C498 1.389 . S
C498 H477 0.949 . S
C498 C497 1.389 . S
C498 C499 1.387 . S
C499 C498 1.387 . S
C499 C500 1.372 . S
C500 H478 0.950 . S
C500 C499 1.372 . S
C500 C501 1.379 . S
C501 H479 0.948 . S
C501 C496 1.364 . S
C501 C500 1.379 . S
C502 C471 1.383 . S
C502 C489 1.479 . S
C502 C503 1.398 . S
C503 C468 1.382 . S
C503 H480 0.951 . S
C503 C502 1.398 . S
C504 C505 1.384 . S
C504 H517 0.947 . S
C504 C539 1.382 . S
C505 C504 1.384 . S
C505 C506 1.378 . S
C506 C505 1.378 . S
C506 C507 1.378 . S
C506 H518 0.952 . S
C507 C506 1.378 . S
C507 H519 0.950 . S
C507 C538 1.383 . S
H508 C527 0.947 . S
H509 C528 0.946 . S
H510 C530 0.953 . S
H511 C531 0.945 . S
H512 C533 0.952 . S
H513 C534 0.949 . S
H514 C536 0.950 . S
H515 C537 0.948 . S
H516 C539 0.951 . S
H517 C504 0.947 . S
H518 C506 0.952 . S
H519 C507 0.950 . S
N520 C523 1.382 . S
N520 C525 1.363 . S
N521 C523 1.371 . S
N521 C524 1.372 . S
N522 C524 1.361 . S
N522 C525 1.377 . S
C523 N520 1.382 . S
C523 N521 1.371 . S
C523 C526 1.480 . S
C524 N521 1.372 . S
C524 N522 1.361 . S
C524 C532 1.457 . S
C525 N520 1.363 . S
C525 N522 1.377 . S
C525 C538 1.479 . S
C526 C523 1.480 . S
C526 C527 1.383 . S
C526 C531 1.385 . S
C527 H508 0.947 . S
C527 C526 1.383 . S
C527 C528 1.388 . S
C528 H509 0.946 . S
C528 C527 1.388 . S
C528 C529 1.384 . S
C529 C528 1.384 . S
C529 C530 1.377 . S
C530 H510 0.953 . S
C530 C529 1.377 . S
C530 C531 1.369 . S
C531 H511 0.945 . S
C531 C526 1.385 . S
C531 C530 1.369 . S
C532 C524 1.457 . S
C532 C533 1.372 . S
C532 C537 1.364 . S
C533 H512 0.952 . S
C533 C532 1.372 . S
C533 C534 1.389 . S
C534 H513 0.949 . S
C534 C533 1.389 . S
C534 C535 1.387 . S
C535 C534 1.387 . S
C535 C536 1.372 . S
C536 H514 0.950 . S
C536 C535 1.372 . S
C536 C537 1.379 . S
C537 H515 0.948 . S
C537 C532 1.364 . S
C537 C536 1.379 . S
C538 C507 1.383 . S
C538 C525 1.479 . S
C538 C539 1.398 . S
C539 C504 1.382 . S
C539 H516 0.951 . S
C539 C538 1.398 . S
C540 C541 1.384 . S
C540 H553 0.947 . S
C540 C575 1.382 . S
C541 C540 1.384 . S
C541 C542 1.378 . S
C542 C541 1.378 . S
C542 C543 1.378 . S
C542 H554 0.952 . S
C543 C542 1.378 . S
C543 H555 0.950 . S
C543 C574 1.383 . S
H544 C563 0.947 . S
H545 C564 0.946 . S
H546 C566 0.953 . S
H547 C567 0.945 . S
H548 C569 0.952 . S
H549 C570 0.949 . S
H550 C572 0.950 . S
H551 C573 0.948 . S
H552 C575 0.951 . S
H553 C540 0.947 . S
H554 C542 0.952 . S
H555 C543 0.950 . S
N556 C559 1.382 . S
N556 C561 1.363 . S
N557 C559 1.371 . S
N557 C560 1.372 . S
N558 C560 1.361 . S
N558 C561 1.377 . S
C559 N556 1.382 . S
C559 N557 1.371 . S
C559 C562 1.480 . S
C560 N557 1.372 . S
C560 N558 1.361 . S
C560 C568 1.457 . S
C561 N556 1.363 . S
C561 N558 1.377 . S
C561 C574 1.479 . S
C562 C559 1.480 . S
C562 C563 1.383 . S
C562 C567 1.385 . S
C563 H544 0.947 . S
C563 C562 1.383 . S
C563 C564 1.388 . S
C564 H545 0.946 . S
C564 C563 1.388 . S
C564 C565 1.384 . S
C565 C564 1.384 . S
C565 C566 1.377 . S
C566 H546 0.953 . S
C566 C565 1.377 . S
C566 C567 1.369 . S
C567 H547 0.945 . S
C567 C562 1.385 . S
C567 C566 1.369 . S
C568 C560 1.457 . S
C568 C569 1.372 . S
C568 C573 1.364 . S
C569 H548 0.952 . S
C569 C568 1.372 . S
C569 C570 1.389 . S
C570 H549 0.949 . S
C570 C569 1.389 . S
C570 C571 1.387 . S
C571 C570 1.387 . S
C571 C572 1.372 . S
C572 H550 0.950 . S
C572 C571 1.372 . S
C572 C573 1.379 . S
C573 H551 0.948 . S
C573 C568 1.364 . S
C573 C572 1.379 . S
C574 C543 1.383 . S
C574 C561 1.479 . S
C574 C575 1.398 . S
C575 C540 1.382 . S
C575 H552 0.951 . S
C575 C574 1.398 . S
C576 C577 1.384 . S
C576 H589 0.947 . S
C576 C611 1.382 . S
C577 C576 1.384 . S
C577 C578 1.378 . S
C578 C577 1.378 . S
C578 C579 1.378 . S
C578 H590 0.952 . S
C579 C578 1.378 . S
C579 H591 0.950 . S
C579 C610 1.383 . S
H580 C599 0.947 . S
H581 C600 0.946 . S
H582 C602 0.953 . S
H583 C603 0.945 . S
H584 C605 0.952 . S
H585 C606 0.949 . S
H586 C608 0.950 . S
H587 C609 0.948 . S
H588 C611 0.951 . S
H589 C576 0.947 . S
H590 C578 0.952 . S
H591 C579 0.950 . S
N592 C595 1.382 . S
N592 C597 1.363 . S
N593 C595 1.371 . S
N593 C596 1.372 . S
N594 C596 1.361 . S
N594 C597 1.377 . S
C595 N592 1.382 . S
C595 N593 1.371 . S
C595 C598 1.480 . S
C596 N593 1.372 . S
C596 N594 1.361 . S
C596 C604 1.457 . S
C597 N592 1.363 . S
C597 N594 1.377 . S
C597 C610 1.479 . S
C598 C595 1.480 . S
C598 C599 1.383 . S
C598 C603 1.385 . S
C599 H580 0.947 . S
C599 C598 1.383 . S
C599 C600 1.388 . S
C600 H581 0.946 . S
C600 C599 1.388 . S
C600 C601 1.384 . S
C601 C600 1.384 . S
C601 C602 1.377 . S
C602 H582 0.953 . S
C602 C601 1.377 . S
C602 C603 1.369 . S
C603 H583 0.945 . S
C603 C598 1.385 . S
C603 C602 1.369 . S
C604 C596 1.457 . S
C604 C605 1.372 . S
C604 C609 1.364 . S
C605 H584 0.952 . S
C605 C604 1.372 . S
C605 C606 1.389 . S
C606 H585 0.949 . S
C606 C605 1.389 . S
C606 C607 1.387 . S
C607 C606 1.387 . S
C607 C608 1.372 . S
C608 H586 0.950 . S
C608 C607 1.372 . S
C608 C609 1.379 . S
C609 H587 0.948 . S
C609 C604 1.364 . S
C609 C608 1.379 . S
C610 C579 1.383 . S
C610 C597 1.479 . S
C610 C611 1.398 . S
C611 C576 1.382 . S
C611 H588 0.951 . S
C611 C610 1.398 . S
C612 C613 1.384 . S
C612 H625 0.947 . S
C612 C647 1.382 . S
C613 C612 1.384 . S
C613 C614 1.378 . S
C614 C613 1.378 . S
C614 C615 1.378 . S
C614 H626 0.952 . S
C615 C614 1.378 . S
C615 H627 0.950 . S
C615 C646 1.383 . S
H616 C635 0.947 . S
H617 C636 0.946 . S
H618 C638 0.953 . S
H619 C639 0.945 . S
H620 C641 0.952 . S
H621 C642 0.949 . S
H622 C644 0.950 . S
H623 C645 0.948 . S
H624 C647 0.951 . S
H625 C612 0.947 . S
H626 C614 0.952 . S
H627 C615 0.950 . S
N628 C631 1.382 . S
N628 C633 1.363 . S
N629 C631 1.371 . S
N629 C632 1.372 . S
N630 C632 1.361 . S
N630 C633 1.377 . S
C631 N628 1.382 . S
C631 N629 1.371 . S
C631 C634 1.480 . S
C632 N629 1.372 . S
C632 N630 1.361 . S
C632 C640 1.457 . S
C633 N628 1.363 . S
C633 N630 1.377 . S
C633 C646 1.479 . S
C634 C631 1.480 . S
C634 C635 1.383 . S
C634 C639 1.385 . S
C635 H616 0.947 . S
C635 C634 1.383 . S
C635 C636 1.388 . S
C636 H617 0.946 . S
C636 C635 1.388 . S
C636 C637 1.384 . S
C637 C636 1.384 . S
C637 C638 1.377 . S
C638 H618 0.953 . S
C638 C637 1.377 . S
C638 C639 1.369 . S
C639 H619 0.945 . S
C639 C634 1.385 . S
C639 C638 1.369 . S
C640 C632 1.457 . S
C640 C641 1.372 . S
C640 C645 1.364 . S
C641 H620 0.952 . S
C641 C640 1.372 . S
C641 C642 1.389 . S
C642 H621 0.949 . S
C642 C641 1.389 . S
C642 C643 1.387 . S
C643 C642 1.387 . S
C643 C644 1.372 . S
C644 H622 0.950 . S
C644 C643 1.372 . S
C644 C645 1.379 . S
C645 H623 0.948 . S
C645 C640 1.364 . S
C645 C644 1.379 . S
C646 C615 1.383 . S
C646 C633 1.479 . S
C646 C647 1.398 . S
C647 C612 1.382 . S
C647 H624 0.951 . S
C647 C646 1.398 . S
Tb648 C658 2.825 . S
Tb648 O659 2.347 1_565 S
Tb648 O662 2.366 1_565 S
Tb648 O667 2.418 . S
Tb648 O668 2.360 1_556 S
Tb648 O671 2.479 . S
Tb648 O672 2.443 1_565 S
Eu649 O660 2.418 . S
Eu649 O661 2.384 . S
Eu649 O664 2.479 . S
Eu649 O665 2.457 1_545 S
Eu649 O666 2.347 1_545 S
Eu649 O669 2.366 1_545 S
Eu649 C679 2.825 . S
C650 O666 1.259 . S
C650 O667 1.265 1_554 S
C651 O668 1.284 . S
C651 O669 1.265 . S
C652 C654 1.380 . S
C652 C655 1.374 1_565 S
C652 C658 1.507 . S
C653 C654 1.384 . S
C653 C657 1.387 1_565 S
C653 H680 0.930 . S
C654 C652 1.380 . S
C654 C653 1.384 . S
C654 H681 0.931 . S
C655 C652 1.374 1_545 S
C655 C656 1.390 . S
C655 H682 0.930 . S
C656 C655 1.390 . S
C656 C657 1.391 . S
C656 H683 0.930 . S
C657 C653 1.387 1_545 S
C657 C656 1.391 . S
C658 Tb648 2.825 . S
C658 C652 1.507 . S
C658 O671 1.238 . S
C658 O672 1.204 1_565 S
O659 Tb648 2.347 1_545 S
O659 C663 1.261 . S
O660 Eu649 2.418 . S
O660 C663 1.257 1_554 S
O661 Eu649 2.384 . S
O661 C670 1.255 1_554 S
O662 Tb648 2.366 1_545 S
O662 C670 1.265 . S
C663 O659 1.261 . S
C663 O660 1.257 1_556 S
O664 Eu649 2.479 . S
O664 C679 1.238 . S
O665 Eu649 2.457 1_565 S
O665 C679 1.226 1_565 S
O666 Eu649 2.347 1_565 S
O666 C650 1.259 . S
O667 Tb648 2.418 . S
O667 C650 1.265 1_556 S
O668 Tb648 2.360 1_554 S
O668 C651 1.284 . S
O669 Eu649 2.366 1_565 S
O669 C651 1.265 . S
C670 O661 1.255 1_556 S
C670 O662 1.265 . S
O671 Tb648 2.479 . S
O671 C658 1.238 . S
O672 Tb648 2.443 1_545 S
O672 C658 1.204 1_545 S
C673 C676 1.380 . S
C673 C677 1.374 1_545 S
C673 C679 1.507 . S
C674 C675 1.387 1_565 S
C674 C678 1.391 . S
C675 C674 1.387 1_545 S
C675 C676 1.384 . S
C675 H684 0.930 . S
C676 C673 1.380 . S
C676 C675 1.384 . S
C676 H685 0.931 . S
C677 C673 1.374 1_565 S
C677 C678 1.390 . S
C677 H686 0.930 . S
C678 C674 1.391 . S
C678 C677 1.390 . S
C678 H687 0.930 . S
C679 Eu649 2.825 . S
C679 O664 1.238 . S
C679 O665 1.226 1_545 S
C679 C673 1.507 . S
H680 C653 0.930 . S
H681 C654 0.931 . S
H682 C655 0.930 . S
H683 C656 0.930 . S
H684 C675 0.930 . S
H685 C676 0.931 . S
H686 C677 0.930 . S
H687 C678 0.930 . S
Tb688 C698 2.825 . S
Tb688 O699 2.347 1_455 S
Tb688 O702 2.366 1_455 S
Tb688 O707 2.418 . S
Tb688 O708 2.384 1_556 S
Tb688 O711 2.479 . S
Tb688 O712 2.471 1_455 S
Eu689 O700 2.418 . S
Eu689 O701 2.421 . S
Eu689 O704 2.479 . S
Eu689 O705 2.471 1_655 S
Eu689 O706 2.347 1_655 S
Eu689 O709 2.366 1_655 S
Eu689 C719 2.825 . S
C690 O706 1.259 . S
C690 O707 1.265 1_554 S
C691 O708 1.255 . S
C691 O709 1.265 . S
C692 C694 1.380 . S
C692 C695 1.374 1_455 S
C692 C698 1.507 . S
C693 C694 1.384 . S
C693 C697 1.387 1_455 S
C693 H720 0.930 . S
C694 C692 1.380 . S
C694 C693 1.384 . S
C694 H721 0.931 . S
C695 C692 1.374 1_655 S
C695 C696 1.390 . S
C695 H722 0.930 . S
C696 C695 1.390 . S
C696 C697 1.391 . S
C696 H723 0.930 . S
C697 C693 1.387 1_655 S
C697 C696 1.391 . S
C698 Tb688 2.825 . S
C698 C692 1.507 . S
C698 O711 1.238 . S
C698 O712 1.247 1_455 S
O699 Tb688 2.347 1_655 S
O699 C703 1.259 . S
O700 Eu689 2.418 . S
O700 C703 1.265 1_554 S
O701 Eu689 2.421 . S
O701 C710 1.211 1_554 S
O702 Tb688 2.366 1_655 S
O702 C710 1.265 . S
C703 O699 1.259 . S
C703 O700 1.265 1_556 S
O704 Eu689 2.479 . S
O704 C719 1.238 . S
O705 Eu689 2.471 1_455 S
O705 C719 1.247 1_455 S
O706 Eu689 2.347 1_455 S
O706 C690 1.259 . S
O707 Tb688 2.418 . S
O707 C690 1.265 1_556 S
O708 Tb688 2.384 1_554 S
O708 C691 1.255 . S
O709 Eu689 2.366 1_455 S
O709 C691 1.265 . S
C710 O701 1.211 1_556 S
C710 O702 1.265 . S
O711 Tb688 2.479 . S
O711 C698 1.238 . S
O712 Tb688 2.471 1_655 S
O712 C698 1.247 1_655 S
C713 C716 1.380 . S
C713 C717 1.374 1_655 S
C713 C719 1.507 . S
C714 C715 1.387 1_455 S
C714 C718 1.391 . S
C715 C714 1.387 1_655 S
C715 C716 1.384 . S
C715 H724 0.930 . S
C716 C713 1.380 . S
C716 C715 1.384 . S
C716 H725 0.931 . S
C717 C713 1.374 1_455 S
C717 C718 1.390 . S
C717 H726 0.930 . S
C718 C714 1.391 . S
C718 C717 1.390 . S
C718 H727 0.930 . S
C719 Eu689 2.825 . S
C719 O704 1.238 . S
C719 O705 1.247 1_655 S
C719 C713 1.507 . S
H720 C693 0.930 . S
H721 C694 0.931 . S
H722 C695 0.930 . S
H723 C696 0.930 . S
H724 C715 0.930 . S
H725 C716 0.931 . S
H726 C717 0.930 . S
H727 C718 0.930 . S
Tb728 C738 2.825 . S
Tb728 O739 2.347 . S
Tb728 O742 2.366 . S
Tb728 O747 2.418 . S
Tb728 O748 2.384 . S
Tb728 O751 2.479 . S
Tb728 O752 2.471 . S
Eu729 O740 2.418 . S
Eu729 O741 2.384 1_556 S
Eu729 O744 2.479 . S
Eu729 O745 2.471 . S
Eu729 O746 2.347 . S
Eu729 O749 2.366 . S
Eu729 C759 2.825 . S
C730 O746 1.259 . S
C730 O747 1.265 1_556 S
C731 O748 1.255 1_556 S
C731 O749 1.265 . S
C732 C734 1.380 . S
C732 C735 1.374 . S
C732 C738 1.507 . S
C733 C734 1.384 . S
C733 C737 1.387 . S
C733 H760 0.930 . S
C734 C732 1.380 . S
C734 C733 1.384 . S
C734 H761 0.931 . S
C735 C732 1.374 . S
C735 C736 1.390 . S
C735 H762 0.930 . S
C736 C735 1.390 . S
C736 C737 1.391 . S
C736 H763 0.930 . S
C737 C733 1.387 . S
C737 C736 1.391 . S
C738 Tb728 2.825 . S
C738 C732 1.507 . S
C738 O751 1.238 . S
C738 O752 1.247 . S
O739 Tb728 2.347 . S
O739 C743 1.259 . S
O740 Eu729 2.418 . S
O740 C743 1.265 1_556 S
O741 Eu729 2.384 1_554 S
O741 C750 1.255 . S
O742 Tb728 2.366 . S
O742 C750 1.265 . S
C743 O739 1.259 . S
C743 O740 1.265 1_554 S
O744 Eu729 2.479 . S
O744 C759 1.238 . S
O745 Eu729 2.471 . S
O745 C759 1.247 . S
O746 Eu729 2.347 . S
O746 C730 1.259 . S
O747 Tb728 2.418 . S
O747 C730 1.265 1_554 S
O748 Tb728 2.384 . S
O748 C731 1.255 1_554 S
O749 Eu729 2.366 . S
O749 C731 1.265 . S
C750 O741 1.255 . S
C750 O742 1.265 . S
O751 Tb728 2.479 . S
O751 C738 1.238 . S
O752 Tb728 2.471 . S
O752 C738 1.247 . S
C753 C756 1.380 . S
C753 C757 1.374 . S
C753 C759 1.507 . S
C754 C755 1.387 . S
C754 C758 1.391 . S
C755 C754 1.387 . S
C755 C756 1.384 . S
C755 H764 0.930 . S
C756 C753 1.380 . S
C756 C755 1.384 . S
C756 H765 0.931 . S
C757 C753 1.374 . S
C757 C758 1.390 . S
C757 H766 0.930 . S
C758 C754 1.391 . S
C758 C757 1.390 . S
C758 H767 0.930 . S
C759 Eu729 2.825 . S
C759 O744 1.238 . S
C759 O745 1.247 . S
C759 C753 1.507 . S
H760 C733 0.930 . S
H761 C734 0.931 . S
H762 C735 0.930 . S
H763 C736 0.930 . S
H764 C755 0.930 . S
H765 C756 0.931 . S
H766 C757 0.930 . S
H767 C758 0.930 . S
Tb768 C778 2.825 . S
Tb768 O779 2.347 . S
Tb768 O782 2.366 . S
Tb768 O787 2.418 . S
Tb768 O788 2.384 . S
Tb768 O791 2.479 . S
Tb768 O792 2.471 . S
Eu769 O780 2.418 . S
Eu769 O781 2.384 . S
Eu769 O784 2.479 . S
Eu769 O785 2.471 . S
Eu769 O786 2.347 . S
Eu769 O789 2.366 . S
Eu769 C799 2.825 . S
C770 O786 1.259 . S
C770 O787 1.265 . S
C771 O788 1.255 . S
C771 O789 1.265 . S
C772 C774 1.380 . S
C772 C775 1.374 . S
C772 C778 1.507 . S
C773 C774 1.384 . S
C773 C777 1.387 . S
C773 H800 0.930 . S
C774 C772 1.380 . S
C774 C773 1.384 . S
C774 H801 0.931 . S
C775 C772 1.374 . S
C775 C776 1.390 . S
C775 H802 0.930 . S
C776 C775 1.390 . S
C776 C777 1.391 . S
C776 H803 0.930 . S
C777 C773 1.387 . S
C777 C776 1.391 . S
C778 Tb768 2.825 . S
C778 C772 1.507 . S
C778 O791 1.238 . S
C778 O792 1.247 . S
O779 Tb768 2.347 . S
O779 C783 1.259 . S
O780 Eu769 2.418 . S
O780 C783 1.265 . S
O781 Eu769 2.384 . S
O781 C790 1.255 . S
O782 Tb768 2.366 . S
O782 C790 1.265 . S
C783 O779 1.259 . S
C783 O780 1.265 . S
O784 Eu769 2.479 . S
O784 C799 1.238 . S
O785 Eu769 2.471 . S
O785 C799 1.247 . S
O786 Eu769 2.347 . S
O786 C770 1.259 . S
O787 Tb768 2.418 . S
O787 C770 1.265 . S
O788 Tb768 2.384 . S
O788 C771 1.255 . S
O789 Eu769 2.366 . S
O789 C771 1.265 . S
C790 O781 1.255 . S
C790 O782 1.265 . S
O791 Tb768 2.479 . S
O791 C778 1.238 . S
O792 Tb768 2.471 . S
O792 C778 1.247 . S
C793 C796 1.380 . S
C793 C797 1.374 . S
C793 C799 1.507 . S
C794 C795 1.387 . S
C794 C798 1.391 . S
C795 C794 1.387 . S
C795 C796 1.384 . S
C795 H804 0.930 . S
C796 C793 1.380 . S
C796 C795 1.384 . S
C796 H805 0.931 . S
C797 C793 1.374 . S
C797 C798 1.390 . S
C797 H806 0.930 . S
C798 C794 1.391 . S
C798 C797 1.390 . S
C798 H807 0.930 . S
C799 Eu769 2.825 . S
C799 O784 1.238 . S
C799 O785 1.247 . S
C799 C793 1.507 . S
H800 C773 0.930 . S
H801 C774 0.931 . S
H802 C775 0.930 . S
H803 C776 0.930 . S
H804 C795 0.930 . S
H805 C796 0.931 . S
H806 C797 0.930 . S
H807 C798 0.930 . S
Tb808 C818 2.825 . S
Tb808 O819 2.347 . S
Tb808 O822 2.366 . S
Tb808 O827 2.418 . S
Tb808 O828 2.384 . S
Tb808 O831 2.479 . S
Tb808 O832 2.471 . S
Eu809 O820 2.418 . S
Eu809 O821 2.384 . S
Eu809 O824 2.479 . S
Eu809 O825 2.471 . S
Eu809 O826 2.347 . S
Eu809 O829 2.366 . S
Eu809 C839 2.825 . S
C810 O826 1.259 . S
C810 O827 1.265 . S
C811 O828 1.255 . S
C811 O829 1.265 . S
C812 C814 1.380 . S
C812 C815 1.374 . S
C812 C818 1.507 . S
C813 C814 1.384 . S
C813 C817 1.387 . S
C813 H840 0.930 . S
C814 C812 1.380 . S
C814 C813 1.384 . S
C814 H841 0.931 . S
C815 C812 1.374 . S
C815 C816 1.390 . S
C815 H842 0.930 . S
C816 C815 1.390 . S
C816 C817 1.391 . S
C816 H843 0.930 . S
C817 C813 1.387 . S
C817 C816 1.391 . S
C818 Tb808 2.825 . S
C818 C812 1.507 . S
C818 O831 1.238 . S
C818 O832 1.247 . S
O819 Tb808 2.347 . S
O819 C823 1.259 . S
O820 Eu809 2.418 . S
O820 C823 1.265 . S
O821 Eu809 2.384 . S
O821 C830 1.255 . S
O822 Tb808 2.366 . S
O822 C830 1.265 . S
C823 O819 1.259 . S
C823 O820 1.265 . S
O824 Eu809 2.479 . S
O824 C839 1.238 . S
O825 Eu809 2.471 . S
O825 C839 1.247 . S
O826 Eu809 2.347 . S
O826 C810 1.259 . S
O827 Tb808 2.418 . S
O827 C810 1.265 . S
O828 Tb808 2.384 . S
O828 C811 1.255 . S
O829 Eu809 2.366 . S
O829 C811 1.265 . S
C830 O821 1.255 . S
C830 O822 1.265 . S
O831 Tb808 2.479 . S
O831 C818 1.238 . S
O832 Tb808 2.471 . S
O832 C818 1.247 . S
C833 C836 1.380 . S
C833 C837 1.374 . S
C833 C839 1.507 . S
C834 C835 1.387 . S
C834 C838 1.391 . S
C835 C834 1.387 . S
C835 C836 1.384 . S
C835 H844 0.930 . S
C836 C833 1.380 . S
C836 C835 1.384 . S
C836 H845 0.931 . S
C837 C833 1.374 . S
C837 C838 1.390 . S
C837 H846 0.930 . S
C838 C834 1.391 . S
C838 C837 1.390 . S
C838 H847 0.930 . S
C839 Eu809 2.825 . S
C839 O824 1.238 . S
C839 O825 1.247 . S
C839 C833 1.507 . S
H840 C813 0.930 . S
H841 C814 0.931 . S
H842 C815 0.930 . S
H843 C816 0.930 . S
H844 C835 0.930 . S
H845 C836 0.931 . S
H846 C837 0.930 . S
H847 C838 0.930 . S
Tb848 C858 2.825 . S
Tb848 O859 2.347 . S
Tb848 O862 2.366 . S
Tb848 O867 2.418 . S
Tb848 O868 2.384 . S
Tb848 O871 2.479 . S
Tb848 O872 2.471 . S
Eu849 O860 2.418 . S
Eu849 O861 2.384 . S
Eu849 O864 2.479 . S
Eu849 O865 2.471 . S
Eu849 O866 2.347 . S
Eu849 O869 2.366 . S
Eu849 C879 2.825 . S
C850 O866 1.259 . S
C850 O867 1.265 . S
C851 O868 1.255 . S
C851 O869 1.265 . S
C852 C854 1.380 . S
C852 C855 1.374 . S
C852 C858 1.507 . S
C853 C854 1.384 . S
C853 C857 1.387 . S
C853 H880 0.930 . S
C854 C852 1.380 . S
C854 C853 1.384 . S
C854 H881 0.931 . S
C855 C852 1.374 . S
C855 C856 1.390 . S
C855 H882 0.930 . S
C856 C855 1.390 . S
C856 C857 1.391 . S
C856 H883 0.930 . S
C857 C853 1.387 . S
C857 C856 1.391 . S
C858 Tb848 2.825 . S
C858 C852 1.507 . S
C858 O871 1.238 . S
C858 O872 1.247 . S
O859 Tb848 2.347 . S
O859 C863 1.259 . S
O860 Eu849 2.418 . S
O860 C863 1.265 . S
O861 Eu849 2.384 . S
O861 C870 1.255 . S
O862 Tb848 2.366 . S
O862 C870 1.265 . S
C863 O859 1.259 . S
C863 O860 1.265 . S
O864 Eu849 2.479 . S
O864 C879 1.238 . S
O865 Eu849 2.471 . S
O865 C879 1.247 . S
O866 Eu849 2.347 . S
O866 C850 1.259 . S
O867 Tb848 2.418 . S
O867 C850 1.265 . S
O868 Tb848 2.384 . S
O868 C851 1.255 . S
O869 Eu849 2.366 . S
O869 C851 1.265 . S
C870 O861 1.255 . S
C870 O862 1.265 . S
O871 Tb848 2.479 . S
O871 C858 1.238 . S
O872 Tb848 2.471 . S
O872 C858 1.247 . S
C873 C876 1.380 . S
C873 C877 1.374 . S
C873 C879 1.507 . S
C874 C875 1.387 . S
C874 C878 1.391 . S
C875 C874 1.387 . S
C875 C876 1.384 . S
C875 H884 0.930 . S
C876 C873 1.380 . S
C876 C875 1.384 . S
C876 H885 0.931 . S
C877 C873 1.374 . S
C877 C878 1.390 . S
C877 H886 0.930 . S
C878 C874 1.391 . S
C878 C877 1.390 . S
C878 H887 0.930 . S
C879 Eu849 2.825 . S
C879 O864 1.238 . S
C879 O865 1.247 . S
C879 C873 1.507 . S
H880 C853 0.930 . S
H881 C854 0.931 . S
H882 C855 0.930 . S
H883 C856 0.930 . S
H884 C875 0.930 . S
H885 C876 0.931 . S
H886 C877 0.930 . S
H887 C878 0.930 . S
Tb888 C898 2.825 . S
Tb888 O899 2.347 . S
Tb888 O902 2.366 . S
Tb888 O907 2.418 . S
Tb888 O908 2.384 . S
Tb888 O911 2.479 . S
Tb888 O912 2.471 . S
Eu889 O900 2.418 . S
Eu889 O901 2.384 . S
Eu889 O904 2.479 . S
Eu889 O905 2.471 . S
Eu889 O906 2.347 . S
Eu889 O909 2.366 . S
Eu889 C919 2.825 . S
C890 O906 1.259 . S
C890 O907 1.265 . S
C891 O908 1.255 . S
C891 O909 1.265 . S
C892 C894 1.380 . S
C892 C895 1.374 . S
C892 C898 1.507 . S
C893 C894 1.384 . S
C893 C897 1.387 . S
C893 H920 0.930 . S
C894 C892 1.380 . S
C894 C893 1.384 . S
C894 H921 0.931 . S
C895 C892 1.374 . S
C895 C896 1.390 . S
C895 H922 0.930 . S
C896 C895 1.390 . S
C896 C897 1.391 . S
C896 H923 0.930 . S
C897 C893 1.387 . S
C897 C896 1.391 . S
C898 Tb888 2.825 . S
C898 C892 1.507 . S
C898 O911 1.238 . S
C898 O912 1.247 . S
O899 Tb888 2.347 . S
O899 C903 1.259 . S
O900 Eu889 2.418 . S
O900 C903 1.265 . S
O901 Eu889 2.384 . S
O901 C910 1.255 . S
O902 Tb888 2.366 . S
O902 C910 1.265 . S
C903 O899 1.259 . S
C903 O900 1.265 . S
O904 Eu889 2.479 . S
O904 C919 1.238 . S
O905 Eu889 2.471 . S
O905 C919 1.247 . S
O906 Eu889 2.347 . S
O906 C890 1.259 . S
O907 Tb888 2.418 . S
O907 C890 1.265 . S
O908 Tb888 2.384 . S
O908 C891 1.255 . S
O909 Eu889 2.366 . S
O909 C891 1.265 . S
C910 O901 1.255 . S
C910 O902 1.265 . S
O911 Tb888 2.479 . S
O911 C898 1.238 . S
O912 Tb888 2.471 . S
O912 C898 1.247 . S
C913 C916 1.380 . S
C913 C917 1.374 . S
C913 C919 1.507 . S
C914 C915 1.387 . S
C914 C918 1.391 . S
C915 C914 1.387 . S
C915 C916 1.384 . S
C915 H924 0.930 . S
C916 C913 1.380 . S
C916 C915 1.384 . S
C916 H925 0.931 . S
C917 C913 1.374 . S
C917 C918 1.390 . S
C917 H926 0.930 . S
C918 C914 1.391 . S
C918 C917 1.390 . S
C918 H927 0.930 . S
C919 Eu889 2.825 . S
C919 O904 1.238 . S
C919 O905 1.247 . S
C919 C913 1.507 . S
H920 C893 0.930 . S
H921 C894 0.931 . S
H922 C895 0.930 . S
H923 C896 0.930 . S
H924 C915 0.930 . S
H925 C916 0.931 . S
H926 C917 0.930 . S
H927 C918 0.930 . S
Tb928 C938 2.825 . S
Tb928 O939 2.347 . S
Tb928 O942 2.366 . S
Tb928 O947 2.418 . S
Tb928 O948 2.384 . S
Tb928 O951 2.479 . S
Tb928 O952 2.471 . S
Eu929 O940 2.418 . S
Eu929 O941 2.384 . S
Eu929 O944 2.479 . S
Eu929 O945 2.471 . S
Eu929 O946 2.347 . S
Eu929 O949 2.366 . S
Eu929 C959 2.825 . S
C930 O946 1.259 . S
C930 O947 1.265 . S
C931 O948 1.255 . S
C931 O949 1.265 . S
C932 C934 1.380 . S
C932 C935 1.374 . S
C932 C938 1.507 . S
C933 C934 1.384 . S
C933 C937 1.387 . S
C933 H960 0.930 . S
C934 C932 1.380 . S
C934 C933 1.384 . S
C934 H961 0.931 . S
C935 C932 1.374 . S
C935 C936 1.390 . S
C935 H962 0.930 . S
C936 C935 1.390 . S
C936 C937 1.391 . S
C936 H963 0.930 . S
C937 C933 1.387 . S
C937 C936 1.391 . S
C938 Tb928 2.825 . S
C938 C932 1.507 . S
C938 O951 1.238 . S
C938 O952 1.247 . S
O939 Tb928 2.347 . S
O939 C943 1.259 . S
O940 Eu929 2.418 . S
O940 C943 1.265 . S
O941 Eu929 2.384 . S
O941 C950 1.255 . S
O942 Tb928 2.366 . S
O942 C950 1.265 . S
C943 O939 1.259 . S
C943 O940 1.265 . S
O944 Eu929 2.479 . S
O944 C959 1.238 . S
O945 Eu929 2.471 . S
O945 C959 1.247 . S
O946 Eu929 2.347 . S
O946 C930 1.259 . S
O947 Tb928 2.418 . S
O947 C930 1.265 . S
O948 Tb928 2.384 . S
O948 C931 1.255 . S
O949 Eu929 2.366 . S
O949 C931 1.265 . S
C950 O941 1.255 . S
C950 O942 1.265 . S
O951 Tb928 2.479 . S
O951 C938 1.238 . S
O952 Tb928 2.471 . S
O952 C938 1.247 . S
C953 C956 1.380 . S
C953 C957 1.374 . S
C953 C959 1.507 . S
C954 C955 1.387 . S
C954 C958 1.391 . S
C955 C954 1.387 . S
C955 C956 1.384 . S
C955 H964 0.930 . S
C956 C953 1.380 . S
C956 C955 1.384 . S
C956 H965 0.931 . S
C957 C953 1.374 . S
C957 C958 1.390 . S
C957 H966 0.930 . S
C958 C954 1.391 . S
C958 C957 1.390 . S
C958 H967 0.930 . S
C959 Eu929 2.825 . S
C959 O944 1.238 . S
C959 O945 1.247 . S
C959 C953 1.507 . S
H960 C933 0.930 . S
H961 C934 0.931 . S
H962 C935 0.930 . S
H963 C936 0.930 . S
H964 C955 0.930 . S
H965 C956 0.931 . S
H966 C957 0.930 . S
H967 C958 0.930 . S
Tb968 C978 2.825 . S
Tb968 O979 2.347 . S
Tb968 O982 2.366 . S
Tb968 O987 2.418 . S
Tb968 O988 2.384 . S
Tb968 O991 2.479 . S
Tb968 O992 2.471 . S
Eu969 O980 2.418 . S
Eu969 O981 2.384 . S
Eu969 O984 2.479 . S
Eu969 O985 2.471 . S
Eu969 O986 2.347 . S
Eu969 O989 2.366 . S
Eu969 C999 2.825 . S
C970 O986 1.259 . S
C970 O987 1.265 . S
C971 O988 1.255 . S
C971 O989 1.265 . S
C972 C974 1.380 . S
C972 C975 1.374 . S
C972 C978 1.507 . S
C973 C974 1.384 . S
C973 C977 1.387 . S
C973 H1000 0.930 . S
C974 C972 1.380 . S
C974 C973 1.384 . S
C974 H1001 0.931 . S
C975 C972 1.374 . S
C975 C976 1.390 . S
C975 H1002 0.930 . S
C976 C975 1.390 . S
C976 C977 1.391 . S
C976 H1003 0.930 . S
C977 C973 1.387 . S
C977 C976 1.391 . S
C978 Tb968 2.825 . S
C978 C972 1.507 . S
C978 O991 1.238 . S
C978 O992 1.247 . S
O979 Tb968 2.347 . S
O979 C983 1.259 . S
O980 Eu969 2.418 . S
O980 C983 1.265 . S
O981 Eu969 2.384 . S
O981 C990 1.255 . S
O982 Tb968 2.366 . S
O982 C990 1.265 . S
C983 O979 1.259 . S
C983 O980 1.265 . S
O984 Eu969 2.479 . S
O984 C999 1.238 . S
O985 Eu969 2.471 . S
O985 C999 1.247 . S
O986 Eu969 2.347 . S
O986 C970 1.259 . S
O987 Tb968 2.418 . S
O987 C970 1.265 . S
O988 Tb968 2.384 . S
O988 C971 1.255 . S
O989 Eu969 2.366 . S
O989 C971 1.265 . S
C990 O981 1.255 . S
C990 O982 1.265 . S
O991 Tb968 2.479 . S
O991 C978 1.238 . S
O992 Tb968 2.471 . S
O992 C978 1.247 . S
C993 C996 1.380 . S
C993 C997 1.374 . S
C993 C999 1.507 . S
C994 C995 1.387 . S
C994 C998 1.391 . S
C995 C994 1.387 . S
C995 C996 1.384 . S
C995 H1004 0.930 . S
C996 C993 1.380 . S
C996 C995 1.384 . S
C996 H1005 0.931 . S
C997 C993 1.374 . S
C997 C998 1.390 . S
C997 H1006 0.930 . S
C998 C994 1.391 . S
C998 C997 1.390 . S
C998 H1007 0.930 . S
C999 Eu969 2.825 . S
C999 O984 1.238 . S
C999 O985 1.247 . S
C999 C993 1.507 . S
H1000 C973 0.930 . S
H1001 C974 0.931 . S
H1002 C975 0.930 . S
H1003 C976 0.930 . S
H1004 C995 0.930 . S
H1005 C996 0.931 . S
H1006 C997 0.930 . S
H1007 C998 0.930 . S
H1008 C1016 0.950 . S
H1009 C1021 0.950 . S
H1010 C1018 0.950 . S
H1011 C1020 0.950 . S
H1012 C1022 0.950 . S
H1013 C1024 0.950 . S
H1014 C1026 0.950 . S
H1015 C1027 0.950 . S
C1016 H1008 0.950 . S
C1016 C1017 1.386 . S
C1016 C1018 1.391 . S
C1017 C1016 1.386 . S
C1017 C1021 1.393 . S
C1018 H1010 0.950 . S
C1018 C1016 1.391 . S
C1018 C1019 1.400 . S
C1019 C1018 1.400 . S
C1019 C1020 1.398 . S
C1019 C1025 1.491 . S
C1020 H1011 0.950 . S
C1020 C1019 1.398 . S
C1020 C1021 1.391 . S
C1021 H1009 0.950 . S
C1021 C1017 1.393 . S
C1021 C1020 1.391 . S
C1022 H1012 0.950 . S
C1022 C1023 1.386 . S
C1022 C1024 1.391 . S
C1023 C1022 1.386 . S
C1023 C1027 1.393 . S
C1024 H1013 0.950 . S
C1024 C1022 1.391 . S
C1024 C1025 1.400 . S
C1025 C1019 1.491 . S
C1025 C1024 1.400 . S
C1025 C1026 1.398 . S
C1026 H1014 0.950 . S
C1026 C1025 1.398 . S
C1026 C1027 1.391 . S
C1027 H1015 0.950 . S
C1027 C1023 1.393 . S
C1027 C1026 1.391 . S
H1028 C1036 0.950 . S
H1029 C1041 0.950 . S
H1030 C1038 0.950 . S
H1031 C1040 0.950 . S
H1032 C1042 0.950 . S
H1033 C1044 0.950 . S
H1034 C1046 0.950 . S
H1035 C1047 0.950 . S
C1036 H1028 0.950 . S
C1036 C1037 1.386 . S
C1036 C1038 1.391 . S
C1037 C1036 1.386 . S
C1037 C1041 1.393 . S
C1038 H1030 0.950 . S
C1038 C1036 1.391 . S
C1038 C1039 1.400 . S
C1039 C1038 1.400 . S
C1039 C1040 1.398 . S
C1039 C1045 1.491 . S
C1040 H1031 0.950 . S
C1040 C1039 1.398 . S
C1040 C1041 1.391 . S
C1041 H1029 0.950 . S
C1041 C1037 1.393 . S
C1041 C1040 1.391 . S
C1042 H1032 0.950 . S
C1042 C1043 1.386 . S
C1042 C1044 1.391 . S
C1043 C1042 1.386 . S
C1043 C1047 1.393 . S
C1044 H1033 0.950 . S
C1044 C1042 1.391 . S
C1044 C1045 1.400 . S
C1045 C1039 1.491 . S
C1045 C1044 1.400 . S
C1045 C1046 1.398 . S
C1046 H1034 0.950 . S
C1046 C1045 1.398 . S
C1046 C1047 1.391 . S
C1047 H1035 0.950 . S
C1047 C1043 1.393 . S
C1047 C1046 1.391 . S
H1048 C1056 0.950 . S
H1049 C1061 0.950 . S
H1050 C1058 0.950 . S
H1051 C1060 0.950 . S
H1052 C1062 0.950 1_556 S
H1053 C1064 0.913 1_556 S
H1054 C1066 0.950 . S
H1055 C1067 0.950 . S
C1056 H1048 0.950 . S
C1056 C1057 1.386 . S
C1056 C1058 1.391 . S
C1057 C1056 1.386 . S
C1057 C1061 1.393 . S
C1058 H1050 0.950 . S
C1058 C1056 1.391 . S
C1058 C1059 1.400 . S
C1059 C1058 1.400 . S
C1059 C1060 1.398 . S
C1059 C1065 1.491 . S
C1060 H1051 0.950 . S
C1060 C1059 1.398 . S
C1060 C1061 1.391 . S
C1061 H1049 0.950 . S
C1061 C1057 1.393 . S
C1061 C1060 1.391 . S
C1062 H1052 0.950 1_554 S
C1062 C1063 1.386 . S
C1062 C1064 1.391 . S
C1063 C1062 1.386 . S
C1063 C1067 1.393 . S
C1064 H1053 0.913 1_554 S
C1064 C1062 1.391 . S
C1064 C1065 1.400 . S
C1065 C1059 1.491 . S
C1065 C1064 1.400 . S
C1065 C1066 1.398 . S
C1066 H1054 0.950 . S
C1066 C1065 1.398 . S
C1066 C1067 1.391 . S
C1067 H1055 0.950 . S
C1067 C1063 1.393 . S
C1067 C1066 1.391 . S
H1068 C1076 0.950 . S
H1069 C1081 0.950 . S
H1070 C1078 0.950 . S
H1071 C1080 0.950 . S
H1072 C1082 0.950 . S
H1073 C1084 0.950 . S
H1074 C1086 0.950 1_554 S
H1075 C1087 0.895 1_554 S
C1076 H1068 0.950 . S
C1076 C1077 1.386 . S
C1076 C1078 1.391 . S
C1077 C1076 1.386 . S
C1077 C1081 1.393 . S
C1078 H1070 0.950 . S
C1078 C1076 1.391 . S
C1078 C1079 1.400 . S
C1079 C1078 1.400 . S
C1079 C1080 1.398 . S
C1079 C1085 1.491 . S
C1080 H1071 0.950 . S
C1080 C1079 1.398 . S
C1080 C1081 1.391 . S
C1081 H1069 0.950 . S
C1081 C1077 1.393 . S
C1081 C1080 1.391 . S
C1082 H1072 0.950 . S
C1082 C1083 1.386 . S
C1082 C1084 1.391 . S
C1083 C1082 1.386 . S
C1083 C1087 1.439 . S
C1084 H1073 0.950 . S
C1084 C1082 1.391 . S
C1084 C1085 1.400 . S
C1085 C1079 1.491 . S
C1085 C1084 1.400 . S
C1085 C1086 1.398 . S
C1086 H1074 0.950 1_556 S
C1086 C1085 1.398 . S
C1086 C1087 1.401 . S
C1087 H1075 0.895 1_556 S
C1087 C1083 1.439 . S
C1087 C1086 1.401 . S
H1088 C1096 0.950 . S
H1089 C1101 0.950 . S
H1090 C1098 0.950 . S
H1091 C1100 0.950 . S
H1092 C1102 0.950 . S
H1093 C1104 0.950 . S
H1094 C1106 0.950 . S
H1095 C1107 0.950 . S
C1096 H1088 0.950 . S
C1096 C1097 1.386 . S
C1096 C1098 1.391 . S
C1097 C1096 1.386 . S
C1097 C1101 1.393 . S
C1098 H1090 0.950 . S
C1098 C1096 1.391 . S
C1098 C1099 1.400 . S
C1099 C1098 1.400 . S
C1099 C1100 1.398 . S
C1099 C1105 1.491 . S
C1100 H1091 0.950 . S
C1100 C1099 1.398 . S
C1100 C1101 1.391 . S
C1101 H1089 0.950 . S
C1101 C1097 1.393 . S
C1101 C1100 1.391 . S
C1102 H1092 0.950 . S
C1102 C1103 1.386 . S
C1102 C1104 1.391 . S
C1103 C1102 1.386 . S
C1103 C1107 1.393 . S
C1104 H1093 0.950 . S
C1104 C1102 1.391 . S
C1104 C1105 1.400 . S
C1105 C1099 1.491 . S
C1105 C1104 1.400 . S
C1105 C1106 1.398 . S
C1106 H1094 0.950 . S
C1106 C1105 1.398 . S
C1106 C1107 1.391 . S
C1107 H1095 0.950 . S
C1107 C1103 1.393 . S
C1107 C1106 1.391 . S
H1108 C1116 0.950 . S
H1109 C1121 0.950 . S
H1110 C1118 0.950 . S
H1111 C1120 0.950 1_554 S
H1112 C1122 0.950 . S
H1113 C1124 0.951 1_554 S
H1114 C1126 0.950 . S
H1115 C1127 0.950 . S
C1116 H1108 0.950 . S
C1116 C1117 1.386 . S
C1116 C1118 1.391 . S
C1117 C1116 1.386 . S
C1117 C1121 1.393 . S
C1118 H1110 0.950 . S
C1118 C1116 1.391 . S
C1118 C1119 1.400 . S
C1119 C1118 1.400 . S
C1119 C1120 1.398 . S
C1119 C1125 1.491 . S
C1120 H1111 0.950 1_556 S
C1120 C1119 1.398 . S
C1120 C1121 1.391 . S
C1121 H1109 0.950 . S
C1121 C1117 1.393 . S
C1121 C1120 1.391 . S
C1122 H1112 0.950 . S
C1122 C1123 1.386 1_554 S
C1122 C1124 1.392 1_554 S
C1123 C1122 1.386 1_556 S
C1123 C1127 1.393 . S
C1124 H1113 0.951 1_556 S
C1124 C1122 1.392 1_556 S
C1124 C1125 1.398 . S
C1125 C1119 1.491 . S
C1125 C1124 1.398 . S
C1125 C1126 1.398 . S
C1126 H1114 0.950 . S
C1126 C1125 1.398 . S
C1126 C1127 1.391 . S
C1127 H1115 0.950 . S
C1127 C1123 1.393 . S
C1127 C1126 1.391 . S
H1128 C1136 0.950 . S
H1129 C1141 0.950 . S
H1130 C1138 0.950 . S
H1131 C1140 0.950 . S
H1132 C1142 0.950 1_554 S
H1133 C1144 0.950 . S
H1134 C1146 0.950 . S
H1135 C1147 0.950 . S
C1136 H1128 0.950 . S
C1136 C1137 1.386 . S
C1136 C1138 1.391 . S
C1137 C1136 1.386 . S
C1137 C1141 1.393 . S
C1138 H1130 0.950 . S
C1138 C1136 1.391 . S
C1138 C1139 1.400 . S
C1139 C1138 1.400 . S
C1139 C1140 1.398 . S
C1139 C1145 1.491 . S
C1140 H1131 0.950 . S
C1140 C1139 1.398 . S
C1140 C1141 1.391 . S
C1141 H1129 0.950 . S
C1141 C1137 1.393 . S
C1141 C1140 1.391 . S
C1142 H1132 0.950 1_556 S
C1142 C1143 1.386 . S
C1142 C1144 1.391 . S
C1143 C1142 1.386 . S
C1143 C1147 1.393 . S
C1144 H1133 0.950 . S
C1144 C1142 1.391 . S
C1144 C1145 1.400 . S
C1145 C1139 1.491 . S
C1145 C1144 1.400 . S
C1145 C1146 1.398 . S
C1146 H1134 0.950 . S
C1146 C1145 1.398 . S
C1146 C1147 1.391 . S
C1147 H1135 0.950 . S
C1147 C1143 1.393 . S
C1147 C1146 1.391 . S
H1148 C1156 0.950 . S
H1149 C1161 0.950 . S
H1150 C1158 0.950 . S
H1151 C1160 0.950 . S
H1152 C1162 0.950 . S
H1153 C1164 0.950 . S
H1154 C1166 0.950 . S
H1155 C1167 0.874 1_554 S
C1156 H1148 0.950 . S
C1156 C1157 1.386 . S
C1156 C1158 1.391 . S
C1157 C1156 1.386 . S
C1157 C1161 1.393 . S
C1158 H1150 0.950 . S
C1158 C1156 1.391 . S
C1158 C1159 1.400 . S
C1159 C1158 1.400 . S
C1159 C1160 1.398 . S
C1159 C1165 1.491 . S
C1160 H1151 0.950 . S
C1160 C1159 1.398 . S
C1160 C1161 1.391 . S
C1161 H1149 0.950 . S
C1161 C1157 1.393 . S
C1161 C1160 1.391 . S
C1162 H1152 0.950 . S
C1162 C1163 1.386 . S
C1162 C1164 1.391 . S
C1163 C1162 1.386 . S
C1163 C1167 1.393 . S
C1164 H1153 0.950 . S
C1164 C1162 1.391 . S
C1164 C1165 1.400 . S
C1165 C1159 1.491 . S
C1165 C1164 1.400 . S
C1165 C1166 1.398 . S
C1166 H1154 0.950 . S
C1166 C1165 1.398 . S
C1166 C1167 1.391 . S
C1167 H1155 0.874 1_556 S
C1167 C1163 1.393 . S
C1167 C1166 1.391 . S
H1168 C1176 0.950 . S
H1169 C1181 0.950 . S
H1170 C1178 0.950 . S
H1171 C1180 0.950 . S
H1172 C1182 0.950 . S
H1173 C1184 0.950 . S
H1174 C1186 0.950 . S
H1175 C1187 0.950 1_554 S
C1176 H1168 0.950 . S
C1176 C1177 1.386 . S
C1176 C1178 1.391 . S
C1177 C1176 1.386 . S
C1177 C1181 1.393 . S
C1178 H1170 0.950 . S
C1178 C1176 1.391 . S
C1178 C1179 1.400 . S
C1179 C1178 1.400 . S
C1179 C1180 1.398 . S
C1179 C1185 1.491 . S
C1180 H1171 0.950 . S
C1180 C1179 1.398 . S
C1180 C1181 1.391 . S
C1181 H1169 0.950 . S
C1181 C1177 1.393 . S
C1181 C1180 1.391 . S
C1182 H1172 0.950 . S
C1182 C1183 1.386 . S
C1182 C1184 1.391 . S
C1183 C1182 1.386 . S
C1183 C1187 1.393 . S
C1184 H1173 0.950 . S
C1184 C1182 1.391 . S
C1184 C1185 1.400 . S
C1185 C1179 1.491 . S
C1185 C1184 1.400 . S
C1185 C1186 1.398 . S
C1186 H1174 0.950 . S
C1186 C1185 1.398 . S
C1186 C1187 1.391 . S
C1187 H1175 0.950 1_556 S
C1187 C1183 1.393 . S
C1187 C1186 1.391 . S
H1188 C1196 0.950 . S
H1189 C1201 0.950 . S
H1190 C1198 0.950 . S
H1191 C1200 0.950 . S
H1192 C1202 0.950 1_556 S
H1193 C1204 0.950 . S
H1194 C1206 0.950 . S
H1195 C1207 0.950 . S
C1196 H1188 0.950 . S
C1196 C1197 1.386 . S
C1196 C1198 1.391 . S
C1197 C1196 1.386 . S
C1197 C1201 1.393 . S
C1198 H1190 0.950 . S
C1198 C1196 1.391 . S
C1198 C1199 1.400 . S
C1199 C1198 1.400 . S
C1199 C1200 1.398 . S
C1199 C1205 1.491 . S
C1200 H1191 0.950 . S
C1200 C1199 1.398 . S
C1200 C1201 1.391 . S
C1201 H1189 0.950 . S
C1201 C1197 1.393 . S
C1201 C1200 1.391 . S
C1202 H1192 0.950 1_554 S
C1202 C1203 1.386 . S
C1202 C1204 1.391 . S
C1203 C1202 1.386 . S
C1203 C1207 1.393 . S
C1204 H1193 0.950 . S
C1204 C1202 1.391 . S
C1204 C1205 1.400 . S
C1205 C1199 1.491 . S
C1205 C1204 1.400 . S
C1205 C1206 1.398 . S
C1206 H1194 0.950 . S
C1206 C1205 1.398 . S
C1206 C1207 1.391 . S
C1207 H1195 0.950 . S
C1207 C1203 1.393 . S
C1207 C1206 1.391 . S
H1208 C1216 0.950 . S
H1209 C1221 0.950 . S
H1210 C1218 0.950 . S
H1211 C1220 0.950 . S
H1212 C1222 0.950 . S
H1213 C1224 0.950 . S
H1214 C1226 0.950 . S
H1215 C1227 0.950 . S
C1216 H1208 0.950 . S
C1216 C1217 1.386 . S
C1216 C1218 1.391 . S
C1217 C1216 1.386 . S
C1217 C1221 1.393 . S
C1218 H1210 0.950 . S
C1218 C1216 1.391 . S
C1218 C1219 1.400 . S
C1219 C1218 1.400 . S
C1219 C1220 1.398 . S
C1219 C1225 1.491 . S
C1220 H1211 0.950 . S
C1220 C1219 1.398 . S
C1220 C1221 1.391 . S
C1221 H1209 0.950 . S
C1221 C1217 1.393 . S
C1221 C1220 1.391 . S
C1222 H1212 0.950 . S
C1222 C1223 1.386 . S
C1222 C1224 1.391 . S
C1223 C1222 1.386 . S
C1223 C1227 1.393 . S
C1224 H1213 0.950 . S
C1224 C1222 1.391 . S
C1224 C1225 1.400 . S
C1225 C1219 1.491 . S
C1225 C1224 1.400 . S
C1225 C1226 1.398 . S
C1226 H1214 0.950 . S
C1226 C1225 1.398 . S
C1226 C1227 1.391 . S
C1227 H1215 0.950 . S
C1227 C1223 1.393 . S
C1227 C1226 1.391 . S
H1228 C1236 0.950 . S
H1229 C1241 0.950 . S
H1230 C1238 0.950 . S
H1231 C1240 0.950 . S
H1232 C1242 0.950 . S
H1233 C1244 0.950 . S
H1234 C1246 0.950 . S
H1235 C1247 0.950 . S
C1236 H1228 0.950 . S
C1236 C1237 1.386 . S
C1236 C1238 1.391 . S
C1237 C1236 1.386 . S
C1237 C1241 1.393 . S
C1238 H1230 0.950 . S
C1238 C1236 1.391 . S
C1238 C1239 1.400 . S
C1239 C1238 1.400 . S
C1239 C1240 1.398 . S
C1239 C1245 1.491 . S
C1240 H1231 0.950 . S
C1240 C1239 1.398 . S
C1240 C1241 1.391 . S
C1241 H1229 0.950 . S
C1241 C1237 1.393 . S
C1241 C1240 1.391 . S
C1242 H1232 0.950 . S
C1242 C1243 1.386 . S
C1242 C1244 1.391 . S
C1243 C1242 1.386 . S
C1243 C1247 1.393 . S
C1244 H1233 0.950 . S
C1244 C1242 1.391 . S
C1244 C1245 1.400 . S
C1245 C1239 1.491 . S
C1245 C1244 1.400 . S
C1245 C1246 1.398 . S
C1246 H1234 0.950 . S
C1246 C1245 1.398 . S
C1246 C1247 1.391 . S
C1247 H1235 0.950 . S
C1247 C1243 1.393 . S
C1247 C1246 1.391 . S
H1248 C1256 0.950 . S
H1249 C1261 0.950 . S
H1250 C1258 0.950 . S
H1251 C1260 0.950 . S
H1252 C1262 0.950 . S
H1253 C1264 0.950 . S
H1254 C1266 0.950 . S
H1255 C1267 0.950 . S
C1256 H1248 0.950 . S
C1256 C1257 1.386 . S
C1256 C1258 1.391 1_655 S
C1257 C1256 1.386 . S
C1257 C1261 1.393 . S
C1258 H1250 0.950 . S
C1258 C1256 1.391 1_455 S
C1258 C1259 1.400 . S
C1259 C1258 1.400 . S
C1259 C1260 1.398 . S
C1259 C1265 1.491 . S
C1260 H1251 0.950 . S
C1260 C1259 1.398 . S
C1260 C1261 1.391 1_455 S
C1261 H1249 0.950 . S
C1261 C1257 1.393 . S
C1261 C1260 1.391 1_655 S
C1262 H1252 0.950 . S
C1262 C1263 1.386 . S
C1262 C1264 1.391 . S
C1263 C1262 1.386 . S
C1263 C1267 1.393 . S
C1264 H1253 0.950 . S
C1264 C1262 1.391 . S
C1264 C1265 1.400 . S
C1265 C1259 1.491 . S
C1265 C1264 1.400 . S
C1265 C1266 1.398 . S
C1266 H1254 0.950 . S
C1266 C1265 1.398 . S
C1266 C1267 1.391 . S
C1267 H1255 0.950 . S
C1267 C1263 1.393 . S
C1267 C1266 1.391 . S
H1268 C1276 0.950 . S
H1269 C1281 0.950 . S
H1270 C1278 0.950 . S
H1271 C1280 0.950 . S
H1272 C1282 0.950 . S
H1273 C1284 0.950 . S
H1274 C1286 0.950 . S
H1275 C1287 0.950 . S
C1276 H1268 0.950 . S
C1276 C1277 1.386 . S
C1276 C1278 1.391 . S
C1277 C1276 1.386 . S
C1277 C1281 1.393 . S
C1278 H1270 0.950 . S
C1278 C1276 1.391 . S
C1278 C1279 1.400 . S
C1279 C1278 1.400 . S
C1279 C1280 1.398 . S
C1279 C1285 1.491 . S
C1280 H1271 0.950 . S
C1280 C1279 1.398 . S
C1280 C1281 1.391 . S
C1281 H1269 0.950 . S
C1281 C1277 1.393 . S
C1281 C1280 1.391 . S
C1282 H1272 0.950 . S
C1282 C1283 1.386 . S
C1282 C1284 1.391 . S
C1283 C1282 1.386 . S
C1283 C1287 1.393 . S
C1284 H1273 0.950 . S
C1284 C1282 1.391 . S
C1284 C1285 1.400 . S
C1285 C1279 1.491 . S
C1285 C1284 1.400 . S
C1285 C1286 1.398 . S
C1286 H1274 0.950 . S
C1286 C1285 1.398 . S
C1286 C1287 1.391 . S
C1287 H1275 0.950 . S
C1287 C1283 1.393 . S
C1287 C1286 1.391 . S
H1288 C1296 0.950 . S
H1289 C1301 0.950 . S
H1290 C1298 0.950 1_565 S
H1291 C1300 0.950 1_565 S
H1292 C1302 0.950 . S
H1293 C1304 0.950 . S
H1294 C1306 0.950 . S
H1295 C1307 0.950 . S
C1296 H1288 0.950 . S
C1296 C1297 1.386 . S
C1296 C1298 1.391 . S
C1297 C1296 1.386 . S
C1297 C1301 1.393 . S
C1298 H1290 0.950 1_545 S
C1298 C1296 1.391 . S
C1298 C1299 1.400 1_545 S
C1299 C1298 1.400 1_565 S
C1299 C1300 1.398 1_565 S
C1299 C1305 1.491 . S
C1300 H1291 0.950 1_545 S
C1300 C1299 1.398 1_545 S
C1300 C1301 1.391 . S
C1301 H1289 0.950 . S
C1301 C1297 1.393 . S
C1301 C1300 1.391 . S
C1302 H1292 0.950 . S
C1302 C1303 1.386 . S
C1302 C1304 1.391 . S
C1303 C1302 1.386 . S
C1303 C1307 1.393 . S
C1304 H1293 0.950 . S
C1304 C1302 1.391 . S
C1304 C1305 1.400 . S
C1305 C1299 1.491 . S
C1305 C1304 1.400 . S
C1305 C1306 1.398 . S
C1306 H1294 0.950 . S
C1306 C1305 1.398 . S
C1306 C1307 1.391 . S
C1307 H1295 0.950 . S
C1307 C1303 1.393 . S
C1307 C1306 1.391 . S
H1308 C1316 0.950 . S
H1309 C1321 0.950 . S
H1310 C1318 0.950 . S
H1311 C1320 0.950 . S
H1312 C1322 0.950 . S
H1313 C1324 0.950 . S
H1314 C1326 0.950 . S
H1315 C1327 0.950 . S
C1316 H1308 0.950 . S
C1316 C1317 1.386 . S
C1316 C1318 1.391 . S
C1317 C1316 1.386 . S
C1317 C1321 1.393 . S
C1318 H1310 0.950 . S
C1318 C1316 1.391 . S
C1318 C1319 1.400 . S
C1319 C1318 1.400 . S
C1319 C1320 1.398 . S
C1319 C1325 1.491 . S
C1320 H1311 0.950 . S
C1320 C1319 1.398 . S
C1320 C1321 1.391 . S
C1321 H1309 0.950 . S
C1321 C1317 1.393 . S
C1321 C1320 1.391 . S
C1322 H1312 0.950 . S
C1322 C1323 1.386 . S
C1322 C1324 1.391 . S
C1323 C1322 1.386 . S
C1323 C1327 1.393 . S
C1324 H1313 0.950 . S
C1324 C1322 1.391 . S
C1324 C1325 1.400 . S
C1325 C1319 1.491 . S
C1325 C1324 1.400 . S
C1325 C1326 1.398 . S
C1326 H1314 0.950 . S
C1326 C1325 1.398 . S
C1326 C1327 1.391 . S
C1327 H1315 0.950 . S
C1327 C1323 1.393 . S
C1327 C1326 1.391 . S
H1328 C1336 0.950 . S
H1329 C1341 0.950 . S
H1330 C1338 0.950 . S
H1331 C1340 0.950 . S
H1332 C1342 0.950 . S
H1333 C1344 0.950 . S
H1334 C1346 0.950 . S
H1335 C1347 0.950 . S
C1336 H1328 0.950 . S
C1336 C1337 1.386 . S
C1336 C1338 1.391 . S
C1337 C1336 1.386 . S
C1337 C1341 1.393 . S
C1338 H1330 0.950 . S
C1338 C1336 1.391 . S
C1338 C1339 1.400 . S
C1339 C1338 1.400 . S
C1339 C1340 1.398 . S
C1339 C1345 1.491 . S
C1340 H1331 0.950 . S
C1340 C1339 1.398 . S
C1340 C1341 1.391 . S
C1341 H1329 0.950 . S
C1341 C1337 1.393 . S
C1341 C1340 1.391 . S
C1342 H1332 0.950 . S
C1342 C1343 1.386 . S
C1342 C1344 1.391 . S
C1343 C1342 1.386 . S
C1343 C1347 1.393 . S
C1344 H1333 0.950 . S
C1344 C1342 1.391 . S
C1344 C1345 1.400 . S
C1345 C1339 1.491 . S
C1345 C1344 1.400 . S
C1345 C1346 1.398 . S
C1346 H1334 0.950 . S
C1346 C1345 1.398 . S
C1346 C1347 1.391 . S
C1347 H1335 0.950 . S
C1347 C1343 1.393 . S
C1347 C1346 1.391 . S
H1348 C1356 0.950 . S
H1349 C1361 0.950 . S
H1350 C1358 0.950 . S
H1351 C1360 0.950 . S
H1352 C1362 0.950 . S
H1353 C1364 0.950 . S
H1354 C1366 0.950 . S
H1355 C1367 0.950 . S
C1356 H1348 0.950 . S
C1356 C1357 1.386 . S
C1356 C1358 1.391 . S
C1357 C1356 1.386 . S
C1357 C1361 1.393 . S
C1358 H1350 0.950 . S
C1358 C1356 1.391 . S
C1358 C1359 1.400 . S
C1359 C1358 1.400 . S
C1359 C1360 1.398 . S
C1359 C1365 1.491 . S
C1360 H1351 0.950 . S
C1360 C1359 1.398 . S
C1360 C1361 1.391 . S
C1361 H1349 0.950 . S
C1361 C1357 1.393 . S
C1361 C1360 1.391 . S
C1362 H1352 0.950 . S
C1362 C1363 1.386 . S
C1362 C1364 1.391 . S
C1363 C1362 1.386 . S
C1363 C1367 1.393 . S
C1364 H1353 0.950 . S
C1364 C1362 1.391 . S
C1364 C1365 1.400 . S
C1365 C1359 1.491 . S
C1365 C1364 1.400 . S
C1365 C1366 1.398 . S
C1366 H1354 0.950 . S
C1366 C1365 1.398 . S
C1366 C1367 1.391 . S
C1367 H1355 0.950 . S
C1367 C1363 1.393 . S
C1367 C1366 1.391 . S
H1368 C1376 0.950 . S
H1369 C1381 0.950 . S
H1370 C1378 0.950 . S
H1371 C1380 0.950 . S
H1372 C1382 0.950 . S
H1373 C1384 0.950 . S
H1374 C1386 0.950 . S
H1375 C1387 0.950 . S
C1376 H1368 0.950 . S
C1376 C1377 1.386 . S
C1376 C1378 1.391 . S
C1377 C1376 1.386 . S
C1377 C1381 1.393 . S
C1378 H1370 0.950 . S
C1378 C1376 1.391 . S
C1378 C1379 1.400 . S
C1379 C1378 1.400 . S
C1379 C1380 1.398 . S
C1379 C1385 1.491 . S
C1380 H1371 0.950 . S
C1380 C1379 1.398 . S
C1380 C1381 1.391 . S
C1381 H1369 0.950 . S
C1381 C1377 1.393 . S
C1381 C1380 1.391 . S
C1382 H1372 0.950 . S
C1382 C1383 1.386 . S
C1382 C1384 1.391 . S
C1383 C1382 1.386 . S
C1383 C1387 1.393 . S
C1384 H1373 0.950 . S
C1384 C1382 1.391 . S
C1384 C1385 1.400 . S
C1385 C1379 1.491 . S
C1385 C1384 1.400 . S
C1385 C1386 1.398 . S
C1386 H1374 0.950 . S
C1386 C1385 1.398 . S
C1386 C1387 1.391 . S
C1387 H1375 0.950 . S
C1387 C1383 1.393 . S
C1387 C1386 1.391 . S
H1388 C1396 0.950 . S
H1389 C1401 0.950 . S
H1390 C1398 0.950 . S
H1391 C1400 0.950 . S
H1392 C1402 0.950 . S
H1393 C1404 0.950 . S
H1394 C1406 0.950 . S
H1395 C1407 0.950 . S
C1396 H1388 0.950 . S
C1396 C1397 1.386 . S
C1396 C1398 1.391 . S
C1397 C1396 1.386 . S
C1397 C1401 1.393 . S
C1398 H1390 0.950 . S
C1398 C1396 1.391 . S
C1398 C1399 1.400 . S
C1399 C1398 1.400 . S
C1399 C1400 1.398 . S
C1399 C1405 1.491 . S
C1400 H1391 0.950 . S
C1400 C1399 1.398 . S
C1400 C1401 1.391 . S
C1401 H1389 0.950 . S
C1401 C1397 1.393 . S
C1401 C1400 1.391 . S
C1402 H1392 0.950 . S
C1402 C1403 1.386 . S
C1402 C1404 1.391 . S
C1403 C1402 1.386 . S
C1403 C1407 1.393 . S
C1404 H1393 0.950 . S
C1404 C1402 1.391 . S
C1404 C1405 1.400 . S
C1405 C1399 1.491 . S
C1405 C1404 1.400 . S
C1405 C1406 1.398 . S
C1406 H1394 0.950 . S
C1406 C1405 1.398 . S
C1406 C1407 1.391 . S
C1407 H1395 0.950 . S
C1407 C1403 1.393 . S
C1407 C1406 1.391 . S
H1408 C1416 0.950 . S
H1409 C1421 0.950 . S
H1410 C1418 0.950 . S
H1411 C1420 0.950 . S
H1412 C1422 0.950 . S
H1413 C1424 0.950 . S
H1414 C1426 0.950 . S
H1415 C1427 0.950 . S
C1416 H1408 0.950 . S
C1416 C1417 1.386 . S
C1416 C1418 1.391 . S
C1417 C1416 1.386 . S
C1417 C1421 1.393 . S
C1418 H1410 0.950 . S
C1418 C1416 1.391 . S
C1418 C1419 1.400 . S
C1419 C1418 1.400 . S
C1419 C1420 1.398 . S
C1419 C1425 1.491 . S
C1420 H1411 0.950 . S
C1420 C1419 1.398 . S
C1420 C1421 1.391 . S
C1421 H1409 0.950 . S
C1421 C1417 1.393 . S
C1421 C1420 1.391 . S
C1422 H1412 0.950 . S
C1422 C1423 1.386 . S
C1422 C1424 1.391 . S
C1423 C1422 1.386 . S
C1423 C1427 1.393 . S
C1424 H1413 0.950 . S
C1424 C1422 1.391 . S
C1424 C1425 1.400 . S
C1425 C1419 1.491 . S
C1425 C1424 1.400 . S
C1425 C1426 1.398 . S
C1426 H1414 0.950 . S
C1426 C1425 1.398 . S
C1426 C1427 1.391 . S
C1427 H1415 0.950 . S
C1427 C1423 1.393 . S
C1427 C1426 1.391 . S
H1428 C1436 0.950 . S
H1429 C1441 0.950 . S
H1430 C1438 0.950 . S
H1431 C1440 0.950 . S
H1432 C1442 0.950 . S
H1433 C1444 0.950 . S
H1434 C1446 0.950 . S
H1435 C1447 0.950 . S
C1436 H1428 0.950 . S
C1436 C1437 1.386 . S
C1436 C1438 1.391 1_545 S
C1437 C1436 1.386 . S
C1437 C1441 1.393 . S
C1438 H1430 0.950 . S
C1438 C1436 1.391 1_565 S
C1438 C1439 1.400 . S
C1439 C1438 1.400 . S
C1439 C1440 1.440 . S
C1439 C1445 1.491 . S
C1440 H1431 0.950 . S
C1440 C1439 1.440 . S
C1440 C1441 1.351 1_565 S
C1441 H1429 0.950 . S
C1441 C1437 1.393 . S
C1441 C1440 1.351 1_545 S
C1442 H1432 0.950 . S
C1442 C1443 1.386 . S
C1442 C1444 1.391 . S
C1443 C1442 1.386 . S
C1443 C1447 1.393 . S
C1444 H1433 0.950 . S
C1444 C1442 1.391 . S
C1444 C1445 1.400 . S
C1445 C1439 1.491 . S
C1445 C1444 1.400 . S
C1445 C1446 1.398 . S
C1446 H1434 0.950 . S
C1446 C1445 1.398 . S
C1446 C1447 1.391 . S
C1447 H1435 0.950 . S
C1447 C1443 1.393 . S
C1447 C1446 1.391 . S
H1448 C1456 0.950 . S
H1449 C1461 0.950 . S
H1450 C1458 0.950 . S
H1451 C1460 0.950 . S
H1452 C1462 0.950 . S
H1453 C1464 0.950 . S
H1454 C1466 0.950 . S
H1455 C1467 0.950 . S
C1456 H1448 0.950 . S
C1456 C1457 1.386 . S
C1456 C1458 1.391 1_655 S
C1457 C1456 1.386 . S
C1457 C1461 1.393 1_655 S
C1458 H1450 0.950 . S
C1458 C1456 1.391 1_455 S
C1458 C1459 1.400 . S
C1459 C1458 1.400 . S
C1459 C1460 1.398 . S
C1459 C1465 1.491 . S
C1460 H1451 0.950 . S
C1460 C1459 1.398 . S
C1460 C1461 1.391 . S
C1461 H1449 0.950 . S
C1461 C1457 1.393 1_455 S
C1461 C1460 1.391 . S
C1462 H1452 0.950 . S
C1462 C1463 1.386 . S
C1462 C1464 1.391 . S
C1463 C1462 1.386 . S
C1463 C1467 1.393 . S
C1464 H1453 0.950 . S
C1464 C1462 1.391 . S
C1464 C1465 1.400 . S
C1465 C1459 1.491 . S
C1465 C1464 1.400 . S
C1465 C1466 1.398 . S
C1466 H1454 0.950 . S
C1466 C1465 1.398 . S
C1466 C1467 1.391 . S
C1467 H1455 0.950 . S
C1467 C1463 1.393 . S
C1467 C1466 1.391 . S
H1468 C1476 0.950 . S
H1469 C1481 0.950 . S
H1470 C1478 0.950 . S
H1471 C1480 0.950 . S
H1472 C1482 0.950 . S
H1473 C1484 0.950 . S
H1474 C1486 0.950 . S
H1475 C1487 0.950 . S
C1476 H1468 0.950 . S
C1476 C1477 1.386 . S
C1476 C1478 1.391 . S
C1477 C1476 1.386 . S
C1477 C1481 1.393 . S
C1478 H1470 0.950 . S
C1478 C1476 1.391 . S
C1478 C1479 1.400 . S
C1479 C1478 1.400 . S
C1479 C1480 1.398 . S
C1479 C1485 1.491 . S
C1480 H1471 0.950 . S
C1480 C1479 1.398 . S
C1480 C1481 1.391 . S
C1481 H1469 0.950 . S
C1481 C1477 1.393 . S
C1481 C1480 1.391 . S
C1482 H1472 0.950 . S
C1482 C1483 1.386 . S
C1482 C1484 1.391 . S
C1483 C1482 1.386 . S
C1483 C1487 1.393 . S
C1484 H1473 0.950 . S
C1484 C1482 1.391 . S
C1484 C1485 1.400 . S
C1485 C1479 1.491 . S
C1485 C1484 1.400 . S
C1485 C1486 1.398 . S
C1486 H1474 0.950 . S
C1486 C1485 1.398 . S
C1486 C1487 1.391 . S
C1487 H1475 0.950 . S
C1487 C1483 1.393 . S
C1487 C1486 1.391 . S
H1488 C1496 0.950 . S
H1489 C1501 0.950 . S
H1490 C1498 0.950 . S
H1491 C1500 0.950 . S
H1492 C1502 0.950 . S
H1493 C1504 0.950 . S
H1494 C1506 0.950 . S
H1495 C1507 0.950 . S
C1496 H1488 0.950 . S
C1496 C1497 1.386 . S
C1496 C1498 1.391 . S
C1497 C1496 1.386 . S
C1497 C1501 1.393 . S
C1498 H1490 0.950 . S
C1498 C1496 1.391 . S
C1498 C1499 1.400 . S
C1499 C1498 1.400 . S
C1499 C1500 1.398 . S
C1499 C1505 1.491 . S
C1500 H1491 0.950 . S
C1500 C1499 1.398 . S
C1500 C1501 1.391 . S
C1501 H1489 0.950 . S
C1501 C1497 1.393 . S
C1501 C1500 1.391 . S
C1502 H1492 0.950 . S
C1502 C1503 1.386 . S
C1502 C1504 1.391 . S
C1503 C1502 1.386 . S
C1503 C1507 1.393 . S
C1504 H1493 0.950 . S
C1504 C1502 1.391 . S
C1504 C1505 1.400 . S
C1505 C1499 1.491 . S
C1505 C1504 1.400 . S
C1505 C1506 1.398 . S
C1506 H1494 0.950 . S
C1506 C1505 1.398 . S
C1506 C1507 1.391 . S
C1507 H1495 0.950 . S
C1507 C1503 1.393 . S
C1507 C1506 1.391 . S
H1508 C1516 0.950 . S
H1509 C1521 0.950 . S
H1510 C1518 0.950 . S
H1511 C1520 0.950 . S
H1512 C1522 0.950 . S
H1513 C1524 0.950 . S
H1514 C1526 0.950 . S
H1515 C1527 0.950 . S
C1516 H1508 0.950 . S
C1516 C1517 1.386 . S
C1516 C1518 1.391 . S
C1517 C1516 1.386 . S
C1517 C1521 1.393 . S
C1518 H1510 0.950 . S
C1518 C1516 1.391 . S
C1518 C1519 1.400 . S
C1519 C1518 1.400 . S
C1519 C1520 1.398 . S
C1519 C1525 1.491 . S
C1520 H1511 0.950 . S
C1520 C1519 1.398 . S
C1520 C1521 1.391 . S
C1521 H1509 0.950 . S
C1521 C1517 1.393 . S
C1521 C1520 1.391 . S
C1522 H1512 0.950 . S
C1522 C1523 1.386 . S
C1522 C1524 1.391 . S
C1523 C1522 1.386 . S
C1523 C1527 1.393 . S
C1524 H1513 0.950 . S
C1524 C1522 1.391 . S
C1524 C1525 1.400 . S
C1525 C1519 1.491 . S
C1525 C1524 1.400 . S
C1525 C1526 1.398 . S
C1526 H1514 0.950 . S
C1526 C1525 1.398 . S
C1526 C1527 1.391 . S
C1527 H1515 0.950 . S
C1527 C1523 1.393 . S
C1527 C1526 1.391 . S
H1528 C1536 0.950 . S
H1529 C1541 0.950 . S
H1530 C1538 0.950 . S
H1531 C1540 0.950 . S
H1532 C1542 0.950 . S
H1533 C1544 0.950 . S
H1534 C1546 0.950 . S
H1535 C1547 0.950 . S
C1536 H1528 0.950 . S
C1536 C1537 1.386 . S
C1536 C1538 1.391 . S
C1537 C1536 1.386 . S
C1537 C1541 1.393 . S
C1538 H1530 0.950 . S
C1538 C1536 1.391 . S
C1538 C1539 1.400 . S
C1539 C1538 1.400 . S
C1539 C1540 1.398 . S
C1539 C1545 1.491 . S
C1540 H1531 0.950 . S
C1540 C1539 1.398 . S
C1540 C1541 1.391 . S
C1541 H1529 0.950 . S
C1541 C1537 1.393 . S
C1541 C1540 1.391 . S
C1542 H1532 0.950 . S
C1542 C1543 1.386 . S
C1542 C1544 1.391 . S
C1543 C1542 1.386 . S
C1543 C1547 1.393 . S
C1544 H1533 0.950 . S
C1544 C1542 1.391 . S
C1544 C1545 1.400 . S
C1545 C1539 1.491 . S
C1545 C1544 1.400 . S
C1545 C1546 1.398 . S
C1546 H1534 0.950 . S
C1546 C1545 1.398 . S
C1546 C1547 1.391 . S
C1547 H1535 0.950 . S
C1547 C1543 1.393 . S
C1547 C1546 1.391 . S
H1548 C1556 0.950 . S
H1549 C1561 0.950 . S
H1550 C1558 0.950 1_545 S
H1551 C1560 0.950 . S
H1552 C1562 0.950 . S
H1553 C1564 0.950 . S
H1554 C1566 0.950 . S
H1555 C1567 0.950 . S
C1556 H1548 0.950 . S
C1556 C1557 1.386 . S
C1556 C1558 1.391 . S
C1557 C1556 1.386 . S
C1557 C1561 1.393 . S
C1558 H1550 0.950 1_565 S
C1558 C1556 1.391 . S
C1558 C1559 1.400 1_565 S
C1559 C1558 1.400 1_545 S
C1559 C1560 1.398 . S
C1559 C1565 1.491 . S
C1560 H1551 0.950 . S
C1560 C1559 1.398 . S
C1560 C1561 1.391 1_545 S
C1561 H1549 0.950 . S
C1561 C1557 1.393 . S
C1561 C1560 1.391 1_565 S
C1562 H1552 0.950 . S
C1562 C1563 1.386 . S
C1562 C1564 1.391 . S
C1563 C1562 1.386 . S
C1563 C1567 1.393 . S
C1564 H1553 0.950 . S
C1564 C1562 1.391 . S
C1564 C1565 1.400 . S
C1565 C1559 1.491 . S
C1565 C1564 1.400 . S
C1565 C1566 1.398 . S
C1566 H1554 0.950 . S
C1566 C1565 1.398 . S
C1566 C1567 1.391 . S
C1567 H1555 0.950 . S
C1567 C1563 1.393 . S
C1567 C1566 1.391 . S
H1568 C1576 0.950 . S
H1569 C1581 0.950 . S
H1570 C1578 0.950 . S
H1571 C1580 0.950 . S
H1572 C1582 0.950 . S
H1573 C1584 0.950 . S
H1574 C1586 0.950 . S
H1575 C1587 0.950 . S
C1576 H1568 0.950 . S
C1576 C1577 1.386 1_655 S
C1576 C1578 1.391 . S
C1577 C1576 1.386 1_455 S
C1577 C1581 1.393 . S
C1578 H1570 0.950 . S
C1578 C1576 1.391 . S
C1578 C1579 1.400 . S
C1579 C1578 1.400 . S
C1579 C1580 1.398 . S
C1579 C1585 1.491 . S
C1580 H1571 0.950 . S
C1580 C1579 1.398 . S
C1580 C1581 1.391 1_655 S
C1581 H1569 0.950 . S
C1581 C1577 1.393 . S
C1581 C1580 1.391 1_455 S
C1582 H1572 0.950 . S
C1582 C1583 1.386 . S
C1582 C1584 1.391 . S
C1583 C1582 1.386 . S
C1583 C1587 1.393 . S
C1584 H1573 0.950 . S
C1584 C1582 1.391 . S
C1584 C1585 1.400 . S
C1585 C1579 1.491 . S
C1585 C1584 1.400 . S
C1585 C1586 1.398 . S
C1586 H1574 0.950 . S
C1586 C1585 1.398 . S
C1586 C1587 1.391 . S
C1587 H1575 0.950 . S
C1587 C1583 1.393 . S
C1587 C1586 1.391 . S
H1588 C1596 0.950 . S
H1589 C1601 0.950 . S
H1590 C1598 0.950 . S
H1591 C1600 0.950 . S
H1592 C1602 0.950 . S
H1593 C1604 0.950 . S
H1594 C1606 0.950 . S
H1595 C1607 0.950 . S
C1596 H1588 0.950 . S
C1596 C1597 1.386 . S
C1596 C1598 1.391 . S
C1597 C1596 1.386 . S
C1597 C1601 1.393 . S
C1598 H1590 0.950 . S
C1598 C1596 1.391 . S
C1598 C1599 1.400 . S
C1599 C1598 1.400 . S
C1599 C1600 1.398 . S
C1599 C1605 1.491 . S
C1600 H1591 0.950 . S
C1600 C1599 1.398 . S
C1600 C1601 1.391 . S
C1601 H1589 0.950 . S
C1601 C1597 1.393 . S
C1601 C1600 1.391 . S
C1602 H1592 0.950 . S
C1602 C1603 1.386 . S
C1602 C1604 1.391 . S
C1603 C1602 1.386 . S
C1603 C1607 1.393 . S
C1604 H1593 0.950 . S
C1604 C1602 1.391 . S
C1604 C1605 1.400 . S
C1605 C1599 1.491 . S
C1605 C1604 1.400 . S
C1605 C1606 1.398 . S
C1606 H1594 0.950 . S
C1606 C1605 1.398 . S
C1606 C1607 1.391 . S
C1607 H1595 0.950 . S
C1607 C1603 1.393 . S
C1607 C1606 1.391 . S
H1608 C1616 0.950 . S
H1609 C1621 0.950 . S
H1610 C1618 0.950 . S
H1611 C1620 0.950 . S
H1612 C1622 0.950 . S
H1613 C1624 0.950 . S
H1614 C1626 0.950 . S
H1615 C1627 0.950 . S
C1616 H1608 0.950 . S
C1616 C1617 1.386 . S
C1616 C1618 1.391 1_455 S
C1617 C1616 1.386 . S
C1617 C1621 1.393 . S
C1618 H1610 0.950 . S
C1618 C1616 1.391 1_655 S
C1618 C1619 1.400 . S
C1619 C1618 1.400 . S
C1619 C1620 1.398 . S
C1619 C1625 1.491 . S
C1620 H1611 0.950 . S
C1620 C1619 1.398 . S
C1620 C1621 1.391 1_655 S
C1621 H1609 0.950 . S
C1621 C1617 1.393 . S
C1621 C1620 1.391 1_455 S
C1622 H1612 0.950 . S
C1622 C1623 1.386 . S
C1622 C1624 1.391 . S
C1623 C1622 1.386 . S
C1623 C1627 1.393 . S
C1624 H1613 0.950 . S
C1624 C1622 1.391 . S
C1624 C1625 1.400 . S
C1625 C1619 1.491 . S
C1625 C1624 1.400 . S
C1625 C1626 1.398 . S
C1626 H1614 0.950 . S
C1626 C1625 1.398 . S
C1626 C1627 1.391 . S
C1627 H1615 0.950 . S
C1627 C1623 1.393 . S
C1627 C1626 1.391 . S
H1628 C1636 0.950 . S
H1629 C1641 0.950 . S
H1630 C1638 0.950 . S
H1631 C1640 0.950 . S
H1632 C1642 0.950 . S
H1633 C1644 0.950 . S
H1634 C1646 0.950 . S
H1635 C1647 0.950 . S
C1636 H1628 0.950 . S
C1636 C1637 1.386 . S
C1636 C1638 1.391 . S
C1637 C1636 1.386 . S
C1637 C1641 1.393 . S
C1638 H1630 0.950 . S
C1638 C1636 1.391 . S
C1638 C1639 1.400 . S
C1639 C1638 1.400 . S
C1639 C1640 1.398 . S
C1639 C1645 1.491 . S
C1640 H1631 0.950 . S
C1640 C1639 1.398 . S
C1640 C1641 1.391 . S
C1641 H1629 0.950 . S
C1641 C1637 1.393 . S
C1641 C1640 1.391 . S
C1642 H1632 0.950 . S
C1642 C1643 1.386 . S
C1642 C1644 1.391 . S
C1643 C1642 1.386 . S
C1643 C1647 1.393 . S
C1644 H1633 0.950 . S
C1644 C1642 1.391 . S
C1644 C1645 1.400 . S
C1645 C1639 1.491 . S
C1645 C1644 1.400 . S
C1645 C1646 1.398 . S
C1646 H1634 0.950 . S
C1646 C1645 1.398 . S
C1646 C1647 1.391 . S
C1647 H1635 0.950 . S
C1647 C1643 1.393 . S
C1647 C1646 1.391 . S
H1648 C1656 0.950 . S
H1649 C1661 0.950 . S
H1650 C1658 0.950 1_545 S
H1651 C1660 0.950 1_545 S
H1652 C1662 0.950 . S
H1653 C1664 0.950 . S
H1654 C1666 0.950 . S
H1655 C1667 0.950 . S
C1656 H1648 0.950 . S
C1656 C1657 1.386 . S
C1656 C1658 1.391 . S
C1657 C1656 1.386 . S
C1657 C1661 1.393 . S
C1658 H1650 0.950 1_565 S
C1658 C1656 1.391 . S
C1658 C1659 1.400 1_565 S
C1659 C1658 1.400 1_545 S
C1659 C1660 1.398 1_545 S
C1659 C1665 1.491 . S
C1660 H1651 0.950 1_565 S
C1660 C1659 1.398 1_565 S
C1660 C1661 1.391 . S
C1661 H1649 0.950 . S
C1661 C1657 1.393 . S
C1661 C1660 1.391 . S
C1662 H1652 0.950 . S
C1662 C1663 1.386 . S
C1662 C1664 1.391 . S
C1663 C1662 1.386 . S
C1663 C1667 1.393 . S
C1664 H1653 0.950 . S
C1664 C1662 1.391 . S
C1664 C1665 1.400 . S
C1665 C1659 1.491 . S
C1665 C1664 1.400 . S
C1665 C1666 1.398 . S
C1666 H1654 0.950 . S
C1666 C1665 1.398 . S
C1666 C1667 1.391 . S
C1667 H1655 0.950 . S
C1667 C1663 1.393 . S
C1667 C1666 1.391 . S
H1668 C1676 0.950 . S
H1669 C1681 0.950 . S
H1670 C1678 0.950 . S
H1671 C1680 0.950 . S
H1672 C1682 0.950 . S
H1673 C1684 0.950 . S
H1674 C1686 0.950 . S
H1675 C1687 0.950 . S
C1676 H1668 0.950 . S
C1676 C1677 1.386 . S
C1676 C1678 1.391 . S
C1677 C1676 1.386 . S
C1677 C1681 1.393 . S
C1678 H1670 0.950 . S
C1678 C1676 1.391 . S
C1678 C1679 1.400 . S
C1679 C1678 1.400 . S
C1679 C1680 1.398 . S
C1679 C1685 1.491 . S
C1680 H1671 0.950 . S
C1680 C1679 1.398 . S
C1680 C1681 1.391 . S
C1681 H1669 0.950 . S
C1681 C1677 1.393 . S
C1681 C1680 1.391 . S
C1682 H1672 0.950 . S
C1682 C1683 1.386 . S
C1682 C1684 1.391 . S
C1683 C1682 1.386 . S
C1683 C1687 1.393 . S
C1684 H1673 0.950 . S
C1684 C1682 1.391 . S
C1684 C1685 1.400 . S
C1685 C1679 1.491 . S
C1685 C1684 1.400 . S
C1685 C1686 1.398 . S
C1686 H1674 0.950 . S
C1686 C1685 1.398 . S
C1686 C1687 1.391 . S
C1687 H1675 0.950 . S
C1687 C1683 1.393 . S
C1687 C1686 1.391 . S
H1688 C1696 0.950 . S
H1689 C1701 0.950 . S
H1690 C1698 0.950 . S
H1691 C1700 0.950 . S
H1692 C1702 0.950 . S
H1693 C1704 0.950 . S
H1694 C1706 0.950 . S
H1695 C1707 0.950 . S
C1696 H1688 0.950 . S
C1696 C1697 1.386 . S
C1696 C1698 1.391 . S
C1697 C1696 1.386 . S
C1697 C1701 1.393 . S
C1698 H1690 0.950 . S
C1698 C1696 1.391 . S
C1698 C1699 1.400 . S
C1699 C1698 1.400 . S
C1699 C1700 1.398 . S
C1699 C1705 1.491 . S
C1700 H1691 0.950 . S
C1700 C1699 1.398 . S
C1700 C1701 1.391 . S
C1701 H1689 0.950 . S
C1701 C1697 1.393 . S
C1701 C1700 1.391 . S
C1702 H1692 0.950 . S
C1702 C1703 1.386 . S
C1702 C1704 1.391 . S
C1703 C1702 1.386 . S
C1703 C1707 1.393 . S
C1704 H1693 0.950 . S
C1704 C1702 1.391 . S
C1704 C1705 1.400 . S
C1705 C1699 1.491 . S
C1705 C1704 1.400 . S
C1705 C1706 1.398 . S
C1706 H1694 0.950 . S
C1706 C1705 1.398 . S
C1706 C1707 1.391 . S
C1707 H1695 0.950 . S
C1707 C1703 1.393 . S
C1707 C1706 1.391 . S
H1708 C1716 0.950 . S
H1709 C1721 0.950 . S
H1710 C1718 0.950 . S
H1711 C1720 0.950 . S
H1712 C1722 0.950 . S
H1713 C1724 0.950 . S
H1714 C1726 0.950 . S
H1715 C1727 0.950 . S
C1716 H1708 0.950 . S
C1716 C1717 1.386 . S
C1716 C1718 1.391 . S
C1717 C1716 1.386 . S
C1717 C1721 1.393 . S
C1718 H1710 0.950 . S
C1718 C1716 1.391 . S
C1718 C1719 1.400 . S
C1719 C1718 1.400 . S
C1719 C1720 1.398 . S
C1719 C1725 1.491 . S
C1720 H1711 0.950 . S
C1720 C1719 1.398 . S
C1720 C1721 1.391 . S
C1721 H1709 0.950 . S
C1721 C1717 1.393 . S
C1721 C1720 1.391 . S
C1722 H1712 0.950 . S
C1722 C1723 1.386 . S
C1722 C1724 1.391 . S
C1723 C1722 1.386 . S
C1723 C1727 1.393 . S
C1724 H1713 0.950 . S
C1724 C1722 1.391 . S
C1724 C1725 1.400 . S
C1725 C1719 1.491 . S
C1725 C1724 1.400 . S
C1725 C1726 1.398 . S
C1726 H1714 0.950 . S
C1726 C1725 1.398 . S
C1726 C1727 1.391 . S
C1727 H1715 0.950 . S
C1727 C1723 1.393 . S
C1727 C1726 1.391 . S
H1728 C1736 0.950 . S
H1729 C1741 0.950 . S
H1730 C1738 0.950 . S
H1731 C1740 0.950 . S
H1732 C1742 0.950 1_545 S
H1733 C1744 0.950 . S
H1734 C1746 0.950 . S
H1735 C1747 0.950 . S
C1736 H1728 0.950 . S
C1736 C1737 1.386 . S
C1736 C1738 1.391 . S
C1737 C1736 1.386 . S
C1737 C1741 1.393 . S
C1738 H1730 0.950 . S
C1738 C1736 1.391 . S
C1738 C1739 1.400 . S
C1739 C1738 1.400 . S
C1739 C1740 1.398 . S
C1739 C1745 1.491 . S
C1740 H1731 0.950 . S
C1740 C1739 1.398 . S
C1740 C1741 1.391 . S
C1741 H1729 0.950 . S
C1741 C1737 1.393 . S
C1741 C1740 1.391 . S
C1742 H1732 0.950 1_565 S
C1742 C1743 1.386 . S
C1742 C1744 1.391 . S
C1743 C1742 1.386 . S
C1743 C1747 1.393 . S
C1744 H1733 0.950 . S
C1744 C1742 1.391 . S
C1744 C1745 1.400 . S
C1745 C1739 1.491 . S
C1745 C1744 1.400 . S
C1745 C1746 1.398 . S
C1746 H1734 0.950 . S
C1746 C1745 1.398 . S
C1746 C1747 1.391 . S
C1747 H1735 0.950 . S
C1747 C1743 1.393 . S
C1747 C1746 1.391 . S
H1748 C1756 0.950 . S
H1749 C1761 0.950 . S
H1750 C1758 0.950 . S
H1751 C1760 0.950 . S
H1752 C1762 0.950 1_655 S
H1753 C1764 0.955 . S
H1754 C1766 0.950 . S
H1755 C1767 0.950 . S
C1756 H1748 0.950 . S
C1756 C1757 1.386 . S
C1756 C1758 1.391 . S
C1757 C1756 1.386 . S
C1757 C1761 1.393 1_455 S
C1758 H1750 0.950 . S
C1758 C1756 1.391 . S
C1758 C1759 1.400 . S
C1759 C1758 1.400 . S
C1759 C1760 1.398 1_455 S
C1759 C1765 1.491 . S
C1760 H1751 0.950 . S
C1760 C1759 1.398 1_655 S
C1760 C1761 1.391 . S
C1761 H1749 0.950 . S
C1761 C1757 1.393 1_655 S
C1761 C1760 1.391 . S
C1762 H1752 0.950 1_455 S
C1762 C1763 1.388 . S
C1762 C1764 1.386 1_455 S
C1763 C1762 1.388 . S
C1763 C1767 1.393 . S
C1764 H1753 0.955 . S
C1764 C1762 1.386 1_655 S
C1764 C1765 1.402 1_655 S
C1765 C1759 1.491 . S
C1765 C1764 1.402 1_455 S
C1765 C1766 1.398 . S
C1766 H1754 0.950 . S
C1766 C1765 1.398 . S
C1766 C1767 1.391 . S
C1767 H1755 0.950 . S
C1767 C1763 1.393 . S
C1767 C1766 1.391 . S
H1768 C1776 0.950 . S
H1769 C1781 0.950 . S
H1770 C1778 0.950 . S
H1771 C1780 0.950 . S
H1772 C1782 0.950 . S
H1773 C1784 0.950 . S
H1774 C1786 0.950 . S
H1775 C1787 0.950 . S
C1776 H1768 0.950 . S
C1776 C1777 1.386 . S
C1776 C1778 1.391 . S
C1777 C1776 1.386 . S
C1777 C1781 1.393 . S
C1778 H1770 0.950 . S
C1778 C1776 1.391 . S
C1778 C1779 1.400 . S
C1779 C1778 1.400 . S
C1779 C1780 1.398 . S
C1779 C1785 1.491 . S
C1780 H1771 0.950 . S
C1780 C1779 1.398 . S
C1780 C1781 1.391 . S
C1781 H1769 0.950 . S
C1781 C1777 1.393 . S
C1781 C1780 1.391 . S
C1782 H1772 0.950 . S
C1782 C1783 1.386 . S
C1782 C1784 1.391 . S
C1783 C1782 1.386 . S
C1783 C1787 1.393 . S
C1784 H1773 0.950 . S
C1784 C1782 1.391 . S
C1784 C1785 1.400 . S
C1785 C1779 1.491 . S
C1785 C1784 1.400 . S
C1785 C1786 1.398 . S
C1786 H1774 0.950 . S
C1786 C1785 1.398 . S
C1786 C1787 1.391 . S
C1787 H1775 0.950 . S
C1787 C1783 1.393 . S
C1787 C1786 1.391 . S
H1788 C1796 0.950 . S
H1789 C1801 0.950 . S
H1790 C1798 0.950 . S
H1791 C1800 0.950 . S
H1792 C1802 0.950 . S
H1793 C1804 0.950 . S
H1794 C1806 0.908 1_455 S
H1795 C1807 0.950 1_455 S
C1796 H1788 0.950 . S
C1796 C1797 1.386 1_455 S
C1796 C1798 1.391 . S
C1797 C1796 1.386 1_655 S
C1797 C1801 1.393 . S
C1798 H1790 0.950 . S
C1798 C1796 1.391 . S
C1798 C1799 1.400 1_455 S
C1799 C1798 1.400 1_655 S
C1799 C1800 1.398 . S
C1799 C1805 1.491 . S
C1800 H1791 0.950 . S
C1800 C1799 1.398 . S
C1800 C1801 1.391 . S
C1801 H1789 0.950 . S
C1801 C1797 1.393 . S
C1801 C1800 1.391 . S
C1802 H1792 0.950 . S
C1802 C1803 1.386 . S
C1802 C1804 1.391 . S
C1803 C1802 1.386 . S
C1803 C1807 1.393 . S
C1804 H1793 0.950 . S
C1804 C1802 1.391 . S
C1804 C1805 1.400 . S
C1805 C1799 1.491 . S
C1805 C1804 1.400 . S
C1805 C1806 1.434 . S
C1806 H1794 0.908 1_655 S
C1806 C1805 1.434 . S
C1806 C1807 1.398 . S
C1807 H1795 0.950 1_655 S
C1807 C1803 1.393 . S
C1807 C1806 1.398 . S
H1808 C1816 0.950 . S
H1809 C1821 0.950 . S
H1810 C1818 0.950 . S
H1811 C1820 0.950 . S
H1812 C1822 0.950 . S
H1813 C1824 0.950 . S
H1814 C1826 0.950 . S
H1815 C1827 0.950 . S
C1816 H1808 0.950 . S
C1816 C1817 1.386 . S
C1816 C1818 1.391 . S
C1817 C1816 1.386 . S
C1817 C1821 1.393 . S
C1818 H1810 0.950 . S
C1818 C1816 1.391 . S
C1818 C1819 1.400 . S
C1819 C1818 1.400 . S
C1819 C1820 1.398 . S
C1819 C1825 1.491 . S
C1820 H1811 0.950 . S
C1820 C1819 1.398 . S
C1820 C1821 1.391 . S
C1821 H1809 0.950 . S
C1821 C1817 1.393 . S
C1821 C1820 1.391 . S
C1822 H1812 0.950 . S
C1822 C1823 1.386 . S
C1822 C1824 1.391 . S
C1823 C1822 1.386 . S
C1823 C1827 1.393 . S
C1824 H1813 0.950 . S
C1824 C1822 1.391 . S
C1824 C1825 1.400 . S
C1825 C1819 1.491 . S
C1825 C1824 1.400 . S
C1825 C1826 1.398 . S
C1826 H1814 0.950 . S
C1826 C1825 1.398 . S
C1826 C1827 1.391 . S
C1827 H1815 0.950 . S
C1827 C1823 1.393 . S
C1827 C1826 1.391 . S
H1828 C1836 0.950 . S
H1829 C1841 0.950 . S
H1830 C1838 0.950 . S
H1831 C1840 0.950 . S
H1832 C1842 0.943 1_565 S
H1833 C1844 0.948 . S
H1834 C1846 0.950 . S
H1835 C1847 0.950 . S
C1836 H1828 0.950 . S
C1836 C1837 1.386 . S
C1836 C1838 1.391 . S
C1837 C1836 1.386 . S
C1837 C1841 1.393 . S
C1838 H1830 0.950 . S
C1838 C1836 1.391 . S
C1838 C1839 1.400 . S
C1839 C1838 1.400 . S
C1839 C1840 1.398 . S
C1839 C1845 1.491 . S
C1840 H1831 0.950 . S
C1840 C1839 1.398 . S
C1840 C1841 1.391 . S
C1841 H1829 0.950 . S
C1841 C1837 1.393 . S
C1841 C1840 1.391 . S
C1842 H1832 0.943 1_545 S
C1842 C1843 1.382 . S
C1842 C1844 1.405 . S
C1843 C1842 1.382 . S
C1843 C1847 1.393 . S
C1844 H1833 0.948 . S
C1844 C1842 1.405 . S
C1844 C1845 1.400 . S
C1845 C1839 1.491 . S
C1845 C1844 1.400 . S
C1845 C1846 1.398 . S
C1846 H1834 0.950 . S
C1846 C1845 1.398 . S
C1846 C1847 1.391 . S
C1847 H1835 0.950 . S
C1847 C1843 1.393 . S
C1847 C1846 1.391 . S
H1848 C1856 0.950 . S
H1849 C1861 0.950 . S
H1850 C1858 0.950 . S
H1851 C1860 0.950 . S
H1852 C1862 0.950 . S
H1853 C1864 0.950 . S
H1854 C1866 0.950 . S
H1855 C1867 0.950 . S
C1856 H1848 0.950 . S
C1856 C1857 1.386 . S
C1856 C1858 1.391 . S
C1857 C1856 1.386 . S
C1857 C1861 1.393 . S
C1858 H1850 0.950 . S
C1858 C1856 1.391 . S
C1858 C1859 1.400 . S
C1859 C1858 1.400 . S
C1859 C1860 1.398 . S
C1859 C1865 1.491 . S
C1860 H1851 0.950 . S
C1860 C1859 1.398 . S
C1860 C1861 1.391 . S
C1861 H1849 0.950 . S
C1861 C1857 1.393 . S
C1861 C1860 1.391 . S
C1862 H1852 0.950 . S
C1862 C1863 1.386 . S
C1862 C1864 1.391 . S
C1863 C1862 1.386 . S
C1863 C1867 1.393 . S
C1864 H1853 0.950 . S
C1864 C1862 1.391 . S
C1864 C1865 1.400 . S
C1865 C1859 1.491 . S
C1865 C1864 1.400 . S
C1865 C1866 1.398 . S
C1866 H1854 0.950 . S
C1866 C1865 1.398 . S
C1866 C1867 1.391 . S
C1867 H1855 0.950 . S
C1867 C1863 1.393 . S
C1867 C1866 1.391 . S
H1868 C1876 0.950 . S
H1869 C1881 0.950 . S
H1870 C1878 0.950 . S
H1871 C1880 0.950 . S
H1872 C1882 0.950 . S
H1873 C1884 0.950 . S
H1874 C1886 0.950 . S
H1875 C1887 0.950 . S
C1876 H1868 0.950 . S
C1876 C1877 1.386 . S
C1876 C1878 1.391 . S
C1877 C1876 1.386 . S
C1877 C1881 1.393 . S
C1878 H1870 0.950 . S
C1878 C1876 1.391 . S
C1878 C1879 1.400 . S
C1879 C1878 1.400 . S
C1879 C1880 1.398 . S
C1879 C1885 1.491 . S
C1880 H1871 0.950 . S
C1880 C1879 1.398 . S
C1880 C1881 1.391 . S
C1881 H1869 0.950 . S
C1881 C1877 1.393 . S
C1881 C1880 1.391 . S
C1882 H1872 0.950 . S
C1882 C1883 1.386 . S
C1882 C1884 1.391 . S
C1883 C1882 1.386 . S
C1883 C1887 1.393 . S
C1884 H1873 0.950 . S
C1884 C1882 1.391 . S
C1884 C1885 1.400 . S
C1885 C1879 1.491 . S
C1885 C1884 1.400 . S
C1885 C1886 1.398 . S
C1886 H1874 0.950 . S
C1886 C1885 1.398 . S
C1886 C1887 1.391 . S
C1887 H1875 0.950 . S
C1887 C1883 1.393 . S
C1887 C1886 1.391 . S
H1888 C1896 0.950 . S
H1889 C1901 0.950 . S
H1890 C1898 0.950 . S
H1891 C1900 0.950 . S
H1892 C1902 0.950 . S
H1893 C1904 0.950 . S
H1894 C1906 0.950 . S
H1895 C1907 0.950 . S
C1896 H1888 0.950 . S
C1896 C1897 1.386 . S
C1896 C1898 1.391 . S
C1897 C1896 1.386 . S
C1897 C1901 1.393 . S
C1898 H1890 0.950 . S
C1898 C1896 1.391 . S
C1898 C1899 1.400 . S
C1899 C1898 1.400 . S
C1899 C1900 1.398 . S
C1899 C1905 1.491 . S
C1900 H1891 0.950 . S
C1900 C1899 1.398 . S
C1900 C1901 1.391 . S
C1901 H1889 0.950 . S
C1901 C1897 1.393 . S
C1901 C1900 1.391 . S
C1902 H1892 0.950 . S
C1902 C1903 1.386 . S
C1902 C1904 1.391 . S
C1903 C1902 1.386 . S
C1903 C1907 1.393 . S
C1904 H1893 0.950 . S
C1904 C1902 1.391 . S
C1904 C1905 1.400 . S
C1905 C1899 1.491 . S
C1905 C1904 1.400 . S
C1905 C1906 1.398 . S
C1906 H1894 0.950 . S
C1906 C1905 1.398 . S
C1906 C1907 1.391 . S
C1907 H1895 0.950 . S
C1907 C1903 1.393 . S
C1907 C1906 1.391 . S
H1908 C1916 0.950 . S
H1909 C1921 0.950 . S
H1910 C1918 0.950 . S
H1911 C1920 0.950 . S
H1912 C1922 0.950 . S
H1913 C1924 0.950 . S
H1914 C1926 0.950 . S
H1915 C1927 0.950 . S
C1916 H1908 0.950 . S
C1916 C1917 1.386 . S
C1916 C1918 1.391 . S
C1917 C1916 1.386 . S
C1917 C1921 1.393 . S
C1918 H1910 0.950 . S
C1918 C1916 1.391 . S
C1918 C1919 1.400 . S
C1919 C1918 1.400 . S
C1919 C1920 1.398 . S
C1919 C1925 1.491 . S
C1920 H1911 0.950 . S
C1920 C1919 1.398 . S
C1920 C1921 1.391 . S
C1921 H1909 0.950 . S
C1921 C1917 1.393 . S
C1921 C1920 1.391 . S
C1922 H1912 0.950 . S
C1922 C1923 1.386 . S
C1922 C1924 1.391 . S
C1923 C1922 1.386 . S
C1923 C1927 1.393 . S
C1924 H1913 0.950 . S
C1924 C1922 1.391 . S
C1924 C1925 1.400 . S
C1925 C1919 1.491 . S
C1925 C1924 1.400 . S
C1925 C1926 1.398 . S
C1926 H1914 0.950 . S
C1926 C1925 1.398 . S
C1926 C1927 1.391 . S
C1927 H1915 0.950 . S
C1927 C1923 1.393 . S
C1927 C1926 1.391 . S
H1928 C1936 0.950 . S
H1929 C1941 0.950 . S
H1930 C1938 0.950 . S
H1931 C1940 0.950 . S
H1932 C1942 0.950 . S
H1933 C1944 0.950 . S
H1934 C1946 0.950 . S
H1935 C1947 0.950 . S
C1936 H1928 0.950 . S
C1936 C1937 1.386 . S
C1936 C1938 1.391 . S
C1937 C1936 1.386 . S
C1937 C1941 1.393 . S
C1938 H1930 0.950 . S
C1938 C1936 1.391 . S
C1938 C1939 1.400 . S
C1939 C1938 1.400 . S
C1939 C1940 1.398 . S
C1939 C1945 1.491 . S
C1940 H1931 0.950 . S
C1940 C1939 1.398 . S
C1940 C1941 1.391 . S
C1941 H1929 0.950 . S
C1941 C1937 1.393 . S
C1941 C1940 1.391 . S
C1942 H1932 0.950 . S
C1942 C1943 1.386 . S
C1942 C1944 1.391 . S
C1943 C1942 1.386 . S
C1943 C1947 1.393 . S
C1944 H1933 0.950 . S
C1944 C1942 1.391 . S
C1944 C1945 1.400 . S
C1945 C1939 1.491 . S
C1945 C1944 1.400 . S
C1945 C1946 1.398 . S
C1946 H1934 0.950 . S
C1946 C1945 1.398 . S
C1946 C1947 1.391 . S
C1947 H1935 0.950 . S
C1947 C1943 1.393 . S
C1947 C1946 1.391 . S
H1948 C1956 0.950 . S
H1949 C1961 0.950 . S
H1950 C1958 0.950 . S
H1951 C1960 0.950 . S
H1952 C1962 0.950 . S
H1953 C1964 0.950 . S
H1954 C1966 0.950 . S
H1955 C1967 0.950 . S
C1956 H1948 0.950 . S
C1956 C1957 1.386 . S
C1956 C1958 1.391 . S
C1957 C1956 1.386 . S
C1957 C1961 1.393 . S
C1958 H1950 0.950 . S
C1958 C1956 1.391 . S
C1958 C1959 1.400 . S
C1959 C1958 1.400 . S
C1959 C1960 1.398 . S
C1959 C1965 1.491 . S
C1960 H1951 0.950 . S
C1960 C1959 1.398 . S
C1960 C1961 1.391 . S
C1961 H1949 0.950 . S
C1961 C1957 1.393 . S
C1961 C1960 1.391 . S
C1962 H1952 0.950 . S
C1962 C1963 1.386 . S
C1962 C1964 1.391 . S
C1963 C1962 1.386 . S
C1963 C1967 1.393 . S
C1964 H1953 0.950 . S
C1964 C1962 1.391 . S
C1964 C1965 1.400 . S
C1965 C1959 1.491 . S
C1965 C1964 1.400 . S
C1965 C1966 1.398 . S
C1966 H1954 0.950 . S
C1966 C1965 1.398 . S
C1966 C1967 1.391 . S
C1967 H1955 0.950 . S
C1967 C1963 1.393 . S
C1967 C1966 1.391 . S
H1968 C1976 0.950 . S
H1969 C1981 0.950 . S
H1970 C1978 0.950 . S
H1971 C1980 0.950 . S
H1972 C1982 0.950 . S
H1973 C1984 0.950 . S
H1974 C1986 0.950 . S
H1975 C1987 0.950 . S
C1976 H1968 0.950 . S
C1976 C1977 1.386 . S
C1976 C1978 1.391 . S
C1977 C1976 1.386 . S
C1977 C1981 1.393 . S
C1978 H1970 0.950 . S
C1978 C1976 1.391 . S
C1978 C1979 1.400 . S
C1979 C1978 1.400 . S
C1979 C1980 1.398 . S
C1979 C1985 1.491 . S
C1980 H1971 0.950 . S
C1980 C1979 1.398 . S
C1980 C1981 1.391 . S
C1981 H1969 0.950 . S
C1981 C1977 1.393 . S
C1981 C1980 1.391 . S
C1982 H1972 0.950 . S
C1982 C1983 1.386 . S
C1982 C1984 1.391 . S
C1983 C1982 1.386 . S
C1983 C1987 1.393 . S
C1984 H1973 0.950 . S
C1984 C1982 1.391 . S
C1984 C1985 1.400 . S
C1985 C1979 1.491 . S
C1985 C1984 1.400 . S
C1985 C1986 1.398 . S
C1986 H1974 0.950 . S
C1986 C1985 1.398 . S
C1986 C1987 1.391 . S
C1987 H1975 0.950 . S
C1987 C1983 1.393 . S
C1987 C1986 1.391 . S
H1988 C1996 0.950 . S
H1989 C2001 0.950 . S
H1990 C1998 0.950 . S
H1991 C2000 0.950 . S
H1992 C2002 0.950 . S
H1993 C2004 0.950 . S
H1994 C2006 0.950 . S
H1995 C2007 0.950 . S
C1996 H1988 0.950 . S
C1996 C1997 1.386 . S
C1996 C1998 1.391 . S
C1997 C1996 1.386 . S
C1997 C2001 1.393 . S
C1998 H1990 0.950 . S
C1998 C1996 1.391 . S
C1998 C1999 1.400 . S
C1999 C1998 1.400 . S
C1999 C2000 1.398 . S
C1999 C2005 1.491 . S
C2000 H1991 0.950 . S
C2000 C1999 1.398 . S
C2000 C2001 1.391 . S
C2001 H1989 0.950 . S
C2001 C1997 1.393 . S
C2001 C2000 1.391 . S
C2002 H1992 0.950 . S
C2002 C2003 1.386 . S
C2002 C2004 1.391 . S
C2003 C2002 1.386 . S
C2003 C2007 1.393 . S
C2004 H1993 0.950 . S
C2004 C2002 1.391 . S
C2004 C2005 1.400 . S
C2005 C1999 1.491 . S
C2005 C2004 1.400 . S
C2005 C2006 1.398 . S
C2006 H1994 0.950 . S
C2006 C2005 1.398 . S
C2006 C2007 1.391 . S
C2007 H1995 0.950 . S
C2007 C2003 1.393 . S
C2007 C2006 1.391 . S
H2008 C2016 0.950 . S
H2009 C2021 0.950 . S
H2010 C2018 0.950 . S
H2011 C2020 0.950 . S
H2012 C2022 0.950 . S
H2013 C2024 0.950 . S
H2014 C2026 0.950 . S
H2015 C2027 0.950 . S
C2016 H2008 0.950 . S
C2016 C2017 1.386 . S
C2016 C2018 1.391 . S
C2017 C2016 1.386 . S
C2017 C2021 1.393 . S
C2018 H2010 0.950 . S
C2018 C2016 1.391 . S
C2018 C2019 1.400 . S
C2019 C2018 1.400 . S
C2019 C2020 1.398 . S
C2019 C2025 1.491 . S
C2020 H2011 0.950 . S
C2020 C2019 1.398 . S
C2020 C2021 1.391 . S
C2021 H2009 0.950 . S
C2021 C2017 1.393 . S
C2021 C2020 1.391 . S
C2022 H2012 0.950 . S
C2022 C2023 1.386 . S
C2022 C2024 1.391 . S
C2023 C2022 1.386 . S
C2023 C2027 1.393 . S
C2024 H2013 0.950 . S
C2024 C2022 1.391 . S
C2024 C2025 1.400 . S
C2025 C2019 1.491 . S
C2025 C2024 1.400 . S
C2025 C2026 1.398 . S
C2026 H2014 0.950 . S
C2026 C2025 1.398 . S
C2026 C2027 1.391 . S
C2027 H2015 0.950 . S
C2027 C2023 1.393 . S
C2027 C2026 1.391 . S
H2028 C2036 0.950 . S
H2029 C2041 0.950 . S
H2030 C2038 0.950 . S
H2031 C2040 0.950 . S
H2032 C2042 0.950 . S
H2033 C2044 0.950 . S
H2034 C2046 0.950 . S
H2035 C2047 0.950 . S
C2036 H2028 0.950 . S
C2036 C2037 1.386 . S
C2036 C2038 1.391 . S
C2037 C2036 1.386 . S
C2037 C2041 1.393 . S
C2038 H2030 0.950 . S
C2038 C2036 1.391 . S
C2038 C2039 1.400 . S
C2039 C2038 1.400 . S
C2039 C2040 1.398 . S
C2039 C2045 1.491 . S
C2040 H2031 0.950 . S
C2040 C2039 1.398 . S
C2040 C2041 1.391 . S
C2041 H2029 0.950 . S
C2041 C2037 1.393 . S
C2041 C2040 1.391 . S
C2042 H2032 0.950 . S
C2042 C2043 1.386 . S
C2042 C2044 1.391 . S
C2043 C2042 1.386 . S
C2043 C2047 1.393 . S
C2044 H2033 0.950 . S
C2044 C2042 1.391 . S
C2044 C2045 1.400 . S
C2045 C2039 1.491 . S
C2045 C2044 1.400 . S
C2045 C2046 1.398 . S
C2046 H2034 0.950 . S
C2046 C2045 1.398 . S
C2046 C2047 1.391 . S
C2047 H2035 0.950 . S
C2047 C2043 1.393 . S
C2047 C2046 1.391 . S
H2048 C2056 0.950 . S
H2049 C2061 0.950 . S
H2050 C2058 0.950 . S
H2051 C2060 0.950 . S
H2052 C2062 0.950 . S
H2053 C2064 0.950 . S
H2054 C2066 0.950 . S
H2055 C2067 0.950 . S
C2056 H2048 0.950 . S
C2056 C2057 1.386 . S
C2056 C2058 1.391 . S
C2057 C2056 1.386 . S
C2057 C2061 1.393 . S
C2058 H2050 0.950 . S
C2058 C2056 1.391 . S
C2058 C2059 1.400 . S
C2059 C2058 1.400 . S
C2059 C2060 1.398 . S
C2059 C2065 1.491 . S
C2060 H2051 0.950 . S
C2060 C2059 1.398 . S
C2060 C2061 1.391 . S
C2061 H2049 0.950 . S
C2061 C2057 1.393 . S
C2061 C2060 1.391 . S
C2062 H2052 0.950 . S
C2062 C2063 1.386 . S
C2062 C2064 1.391 . S
C2063 C2062 1.386 . S
C2063 C2067 1.393 . S
C2064 H2053 0.950 . S
C2064 C2062 1.391 . S
C2064 C2065 1.400 . S
C2065 C2059 1.491 . S
C2065 C2064 1.400 . S
C2065 C2066 1.398 . S
C2066 H2054 0.950 . S
C2066 C2065 1.398 . S
C2066 C2067 1.391 . S
C2067 H2055 0.950 . S
C2067 C2063 1.393 . S
C2067 C2066 1.391 . S
H2068 C2076 0.950 . S
H2069 C2081 0.950 . S
H2070 C2078 0.950 . S
H2071 C2080 0.950 . S
H2072 C2082 0.950 . S
H2073 C2084 0.950 . S
H2074 C2086 0.950 . S
H2075 C2087 0.950 . S
C2076 H2068 0.950 . S
C2076 C2077 1.386 . S
C2076 C2078 1.391 . S
C2077 C2076 1.386 . S
C2077 C2081 1.393 . S
C2078 H2070 0.950 . S
C2078 C2076 1.391 . S
C2078 C2079 1.400 . S
C2079 C2078 1.400 . S
C2079 C2080 1.398 . S
C2079 C2085 1.491 . S
C2080 H2071 0.950 . S
C2080 C2079 1.398 . S
C2080 C2081 1.391 . S
C2081 H2069 0.950 . S
C2081 C2077 1.393 . S
C2081 C2080 1.391 . S
C2082 H2072 0.950 . S
C2082 C2083 1.386 . S
C2082 C2084 1.391 . S
C2083 C2082 1.386 . S
C2083 C2087 1.393 . S
C2084 H2073 0.950 . S
C2084 C2082 1.391 . S
C2084 C2085 1.400 . S
C2085 C2079 1.491 . S
C2085 C2084 1.400 . S
C2085 C2086 1.398 . S
C2086 H2074 0.950 . S
C2086 C2085 1.398 . S
C2086 C2087 1.391 . S
C2087 H2075 0.950 . S
C2087 C2083 1.393 . S
C2087 C2086 1.391 . S
C1017 C469 1.694 . S
C1023 C651 1.699 . S
C1037 C505 1.807 . S
C1043 C691 1.799 . S
C1057 C433 1.755 . S
C1063 C743 1.751 . S
C1077 C397 1.590 . S
C1083 C703 1.569 . S
C1103 C731 1.478 . S
C1097 C325 1.472 . S
C1117 C361 1.420 . S
C1123 C663 1.438 . S
C1143 C670 1.699 . S
C1137 C421 1.700 . S
C1163 C710 1.797 . S
C1157 C349 1.801 . S
C1177 C385 1.761 . S
C1183 C730 1.763 . S
C1197 C493 1.587 . S
C1203 C690 1.572 . S
C1217 C529 1.478 . S
C1223 C750 1.475 . S
C1243 C650 1.431 . S
C1237 C457 1.427 . S
C1263 C771 1.697 . S
C1257 C37 1.691 . S
C1277 C73 1.803 . S
C1283 C811 1.798 . S
C1297 C1 1.755 . S
C1303 C863 1.749 . S
C1317 C613 1.588 . S
C1323 C823 1.577 . S
C1337 C541 1.465 . S
C1343 C851 1.470 . S
C1357 C577 1.421 . S
C1363 C783 1.429 . S
C1377 C637 1.690 . S
C1383 C790 1.688 . S
C1397 C565 1.805 . S
C1403 C830 1.802 . S
C1423 C850 1.746 . S
C1417 C601 1.748 . S
C1437 C61 1.574 . S
C1443 C810 1.559 . S
C1463 C870 1.470 . S
C1457 C97 1.474 . S
C1477 C25 1.425 . S
C1483 C770 1.431 . S
C1503 C891 1.698 . S
C1497 C253 1.691 . S
C1517 C289 1.808 . S
C1523 C931 1.803 . S
C1543 C983 1.755 . S
C1537 C217 1.769 . S
C1563 C943 1.568 . S
C1557 C181 1.590 . S
C1583 C971 1.470 . S
C1577 C109 1.464 . S
C1597 C145 1.430 . S
C1603 C903 1.431 . S
C1617 C205 1.701 . S
C1623 C910 1.700 . S
C1637 C133 1.802 . S
C1643 C950 1.800 . S
C1663 C970 1.758 . S
C1657 C169 1.755 . S
C1677 C277 1.581 . S
C1683 C930 1.574 . S
C1697 C313 1.476 . S
C1703 C990 1.474 . S
C1717 C241 1.424 . S
C1723 C890 1.431 . S
C1737 C571 1.318 . S
C1743 C674 1.310 . S
C1763 C714 1.853 . S
C1757 C607 1.880 . S
C1777 C643 1.583 . S
C1783 C737 1.575 . S
C1797 C247 1.886 . S
C1803 C697 1.862 . S
C1817 C283 1.583 . S
C1823 C754 1.581 . S
C1843 C657 1.316 . S
C1837 C319 1.321 . S
C1857 C139 1.318 . S
C1863 C794 1.306 . S
C1877 C175 1.885 . S
C1883 C834 1.866 . S
C1897 C211 1.584 . S
C1903 C857 1.577 . S
C1917 C463 1.879 . S
C1923 C817 1.859 . S
C1943 C874 1.579 . S
C1937 C499 1.582 . S
C1957 C535 1.318 . S
C1963 C777 1.317 . S
C1977 C355 1.323 . S
C1983 C914 1.312 . S
C1997 C391 1.888 . S
C2003 C954 1.868 . S
C2023 C977 1.580 . S
C2017 C427 1.583 . S
C2037 C31 1.884 . S
C2043 C937 1.856 . S
C2057 C67 1.587 . S
C2063 C994 1.582 . S
C2077 C103 1.318 . S
C2083 C897 1.310 . S
