# Generated by pormake.
# Topology pth, (4,4)-cn, num edge types: 1
# Building blocks:
#     Node 0, Type 0, BuildingBlock: GALJAG_clean_sbu_0, # of connection points: 4
#     Node 1, Type 0, BuildingBlock: GALJAG_clean_sbu_0, # of connection points: 4
#     Node 2, Type 0, BuildingBlock: GALJAG_clean_sbu_0, # of connection points: 4
#     Node 3, Type 1, BuildingBlock: AZAVOO_clean_linker_0, # of connection points: 4
#     Node 4, Type 1, BuildingBlock: AZAVOO_clean_linker_0, # of connection points: 4
#     Node 5, Type 1, BuildingBlock: AZAVOO_clean_linker_0, # of connection points: 4
#     Edge 6, Type (0, 1), BuildingBlock: XUDNAN_clean_linker_2, # of connection points: 2
#     Edge 7, Type (0, 1), BuildingBlock: XUDNAN_clean_linker_2, # of connection points: 2
#     Edge 8, Type (0, 1), BuildingBlock: XUDNAN_clean_linker_2, # of connection points: 2
#     Edge 9, Type (0, 1), BuildingBlock: XUDNAN_clean_linker_2, # of connection points: 2
#     Edge 10, Type (0, 1), BuildingBlock: XUDNAN_clean_linker_2, # of connection points: 2
#     Edge 11, Type (0, 1), BuildingBlock: XUDNAN_clean_linker_2, # of connection points: 2
#     Edge 12, Type (0, 1), BuildingBlock: XUDNAN_clean_linker_2, # of connection points: 2
#     Edge 13, Type (0, 1), BuildingBlock: XUDNAN_clean_linker_2, # of connection points: 2
#     Edge 14, Type (0, 1), BuildingBlock: XUDNAN_clean_linker_2, # of connection points: 2
#     Edge 15, Type (0, 1), BuildingBlock: XUDNAN_clean_linker_2, # of connection points: 2
#     Edge 16, Type (0, 1), BuildingBlock: XUDNAN_clean_linker_2, # of connection points: 2
#     Edge 17, Type (0, 1), BuildingBlock: XUDNAN_clean_linker_2, # of connection points: 2
# Relax obj value: 0.129
# Max RMSD: 0.233
# Mean RMSD: 0.161
data_MOF--net-pth--node1-GALJAG_clean_sbu_0--node2-AZAVOO_clean_linker_0--edge1-XUDNAN_clean_linker_2
_symmetry_space_group_name_H-M    P1
_symmetry_Int_Tables_number       1
_symmetry_cell_setting            triclinic
loop_
_symmetry_equiv_pos_as_xyz
'x, y, z'
_cell_length_a     26.795486
_cell_length_b     27.098407
_cell_length_c     69.31207
_cell_angle_alpha  93.144955
_cell_angle_beta   89.004645
_cell_angle_gamma 119.94903
loop_
_atom_site_label
_atom_site_type_symbol
_atom_site_fract_x
_atom_site_fract_y
_atom_site_fract_z
_atom_type_partial_charge
In0 In 0.09422 0.04891 0.06858 0.0
O1 O 0.04072 0.07824 0.08728 0.0
O2 O 0.13121 0.13322 0.08572 0.0
C3 C 0.01728 0.9725 0.04242 0.0
C4 C 0.18011 0.11658 0.04539 0.0
C5 C 0.10644 0.982 0.09311 0.0
O6 O 0.01535 0.01646 0.04837 0.0
O7 O 0.05682 0.96732 0.04986 0.0
O8 O 0.14231 0.00703 0.08002 0.0
O9 O 0.06498 0.99165 0.09407 0.0
C10 C 0.08415 0.12527 0.09261 0.0
O11 O 0.18836 0.09484 0.0598 0.0
O12 O 0.12844 0.10366 0.0426 0.0
In13 In 0.04146 0.04785 0.40015 0.0
O14 O 0.10057 0.13231 0.38674 0.0
O15 O 0.01601 0.08102 0.37481 0.0
C16 C 0.10283 0.03782 0.42816 0.0
C17 C 0.97791 0.07018 0.42567 0.0
C18 C 0.03126 0.95656 0.37951 0.0
O19 O 0.12637 0.07674 0.41621 0.0
O20 O 0.04927 0.00512 0.42582 0.0
O21 O 0.98709 0.95921 0.38482 0.0
O22 O 0.07891 0.00072 0.38356 0.0
C23 C 0.06344 0.12728 0.37459 0.0
O24 O 0.95564 0.02411 0.41523 0.0
O25 O 0.03019 0.10443 0.4224 0.0
In26 In 0.07487 0.07291 0.73774 0.0
O27 O 0.05194 0.99458 0.75469 0.0
O28 O 0.99815 0.03091 0.75815 0.0
C29 C 0.16478 0.06154 0.72508 0.0
C30 C 0.00014 0.05739 0.70925 0.0
C31 C 0.13344 0.18141 0.75256 0.0
O32 O 0.12202 0.04954 0.71446 0.0
O33 O 0.16206 0.07884 0.74211 0.0
O34 O 0.12923 0.16915 0.73461 0.0
O35 O 0.10622 0.13919 0.76289 0.0
C36 C 0.0082 0.99223 0.76259 0.0
O37 O 0.01682 0.09772 0.72199 0.0
O38 O 0.02158 0.0256 0.71082 0.0
H39 H 0.98109 0.40439 0.11123 0.0
H40 H 0.03638 0.85527 0.27468 0.0
H41 H 0.9196 0.37033 0.2121 0.0
H42 H 0.94025 0.30836 0.19062 0.0
H43 H 0.11589 0.3954 0.21194 0.0
H44 H 0.09587 0.45933 0.2323 0.0
H45 H 0.91986 0.46223 0.18722 0.0
H46 H 0.92909 0.43387 0.15377 0.0
H47 H 0.10869 0.49038 0.16461 0.0
H48 H 0.09899 0.5193 0.19789 0.0
H49 H 0.9285 0.57537 0.1991 0.0
H50 H 0.9568 0.64846 0.17526 0.0
H51 H 0.1361 0.70722 0.18765 0.0
H52 H 0.10729 0.63357 0.21094 0.0
H53 H 0.9013 0.58353 0.24094 0.0
H54 H 0.89808 0.66996 0.25105 0.0
H55 H 0.08168 0.75854 0.26231 0.0
H56 H 0.08421 0.67193 0.25203 0.0
H57 H 0.90223 0.52039 0.27607 0.0
H58 H 0.9062 0.57715 0.30536 0.0
H59 H 0.09132 0.65138 0.30739 0.0
H60 H 0.08651 0.59389 0.27852 0.0
H61 H 0.92093 0.39179 0.26858 0.0
H62 H 0.94129 0.34095 0.2927 0.0
H63 H 0.12371 0.45958 0.28741 0.0
H64 H 0.10238 0.51128 0.26438 0.0
O65 O 0.97872 0.41718 0.12435 0.0
O66 O 0.07043 0.44557 0.13085 0.0
O67 O 0.94285 0.77432 0.2633 0.0
O68 O 0.03651 0.82072 0.27041 0.0
C69 C 0.00048 0.4697 0.22999 0.0
C70 C 0.00166 0.5054 0.2156 0.0
C71 C 0.00033 0.55556 0.22089 0.0
C72 C 0.99421 0.56855 0.24039 0.0
C73 C 0.99401 0.53367 0.25488 0.0
C74 C -0.00074 0.48527 0.24973 0.0
C75 C 0.00615 0.41941 0.22382 0.0
C76 C 0.96181 0.37427 0.21276 0.0
C77 C 0.97378 0.33898 0.20043 0.0
C78 C 0.03013 0.34799 0.19922 0.0
C79 C 0.07238 0.38835 0.21221 0.0
C80 C 0.06066 0.42418 0.22426 0.0
C81 C 0.00861 0.49234 0.19496 0.0
C82 C 0.96125 0.46894 0.18225 0.0
C83 C 0.96662 0.45258 0.1632 0.0
C84 C 0.01954 0.45948 0.15656 0.0
C85 C 0.06727 0.48425 0.16927 0.0
C86 C 0.06187 0.50081 0.18827 0.0
C87 C 0.01595 0.59931 0.20658 0.0
C88 C 0.97376 0.60409 0.19655 0.0
C89 C 0.99006 0.64595 0.18307 0.0
C90 C 0.04874 0.68344 0.1795 0.0
C91 C 0.09062 0.67843 0.18978 0.0
C92 C 0.07432 0.63669 0.20316 0.0
C93 C 0.99291 0.62163 0.24582 0.0
C94 C 0.94075 0.62179 0.2455 0.0
C95 C 0.93906 0.67113 0.25132 0.0
C96 C 0.98964 0.72115 0.25754 0.0
C97 C 0.04194 0.72079 0.25765 0.0
C98 C 0.04356 0.67146 0.25177 0.0
C99 C 0.994 0.55247 0.27534 0.0
C100 C 0.94323 0.54704 0.2834 0.0
C101 C 0.94573 0.58021 0.29993 0.0
C102 C 0.99913 0.61939 0.30862 0.0
C103 C 0.04935 0.6212 0.3013 0.0
C104 C 0.04674 0.58799 0.28483 0.0
C105 C 0.01021 0.4551 0.2648 0.0
C106 C 0.96512 0.40688 0.27288 0.0
C107 C 0.97699 0.37767 0.28651 0.0
C108 C 0.03427 0.39599 0.29209 0.0
C109 C 0.07906 0.44469 0.28389 0.0
C110 C 0.06705 0.47415 0.27056 0.0
C111 C 0.02469 0.44048 0.1365 0.0
C112 C 0.98802 0.77352 0.2639 0.0
H113 H 0.62728 0.00778 0.44942 0.0
H114 H 0.25108 0.08847 0.61576 0.0
H115 H 0.62115 0.96552 0.5561 0.0
H116 H 0.70331 0.97785 0.53645 0.0
H117 H 0.76924 0.15989 0.5387 0.0
H118 H 0.68788 0.14702 0.55847 0.0
H119 H 0.54136 0.95743 0.52815 0.0
H120 H 0.57049 0.96116 0.49436 0.0
H121 H 0.62424 0.14071 0.49591 0.0
H122 H 0.59522 0.13633 0.52978 0.0
H123 H 0.42568 0.94848 0.53724 0.0
H124 H 0.35003 0.93973 0.51559 0.0
H125 H 0.40739 0.11867 0.52691 0.0
H126 H 0.48307 0.12697 0.54861 0.0
H127 H 0.37963 0.95124 0.57613 0.0
H128 H 0.29152 0.95065 0.58651 0.0
H129 H 0.39302 0.12764 0.60655 0.0
H130 H 0.48063 0.12777 0.59588 0.0
H131 H 0.44975 0.94606 0.60967 0.0
H132 H 0.40349 0.94451 0.64055 0.0
H133 H 0.52426 0.12411 0.65118 0.0
H134 H 0.57049 0.1251 0.62028 0.0
H135 H 0.57022 0.94977 0.60105 0.0
H136 H 0.64056 0.9431 0.62123 0.0
H137 H 0.75167 0.12586 0.62086 0.0
H138 H 0.68061 0.13203 0.60077 0.0
O139 O 0.61458 0.00693 0.46261 0.0
O140 O 0.64 0.09873 0.46395 0.0
O141 O 0.23494 0.99644 0.60105 0.0
O142 O 0.28521 0.08741 0.61159 0.0
C143 C 0.59327 0.04744 0.56583 0.0
C144 C 0.55336 0.04515 0.55227 0.0
C145 C 0.50176 0.04181 0.55864 0.0
C146 C 0.48968 0.04036 0.57853 0.0
C147 C 0.5285 0.04014 0.59206 0.0
C148 C 0.58054 0.04395 0.58571 0.0
C149 C 0.64904 0.05547 0.55875 0.0
C150 C 0.65459 0.00813 0.5529 0.0
C151 C 0.70099 0.01521 0.54147 0.0
C152 C 0.74242 0.06978 0.53585 0.0
C153 C 0.7385 0.11737 0.54292 0.0
C154 C 0.69217 0.11021 0.55427 0.0
C155 C 0.56622 0.0466 0.53133 0.0
C156 C 0.55899 0.99738 0.52109 0.0
C157 C 0.57583 -0.00031 0.50182 0.0
C158 C 0.59994 0.0513 0.49245 0.0
C159 C 0.60591 0.10031 0.5027 0.0
C160 C 0.58914 0.09792 0.522 0.0
C161 C 0.45945 0.03826 0.54444 0.0
C162 C 0.42218 0.98583 0.53486 0.0
C163 C 0.37898 0.98089 0.52263 0.0
C164 C 0.37282 0.02849 0.51971 0.0
C165 C 0.41154 0.08147 0.52885 0.0
C166 C 0.45447 0.08624 0.54124 0.0
C167 C 0.43634 0.03959 0.58521 0.0
C168 C 0.38264 0.98983 0.58272 0.0
C169 C 0.33245 0.98961 0.5887 0.0
C170 C 0.33522 0.0392 0.5973 0.0
C171 C 0.38932 0.08879 0.59994 0.0
C172 C 0.43942 0.08898 0.5939 0.0
C173 C 0.51325 0.03572 0.61277 0.0
C174 C 0.46759 0.98449 0.61903 0.0
C175 C 0.44094 0.98382 0.63656 0.0
C176 C 0.45974 0.03439 0.6481 0.0
C177 C 0.50905 0.08445 0.64264 0.0
C178 C 0.53562 0.0851 0.62503 0.0
C179 C 0.62045 0.04134 0.59953 0.0
C180 C 0.6094 0.98837 0.60558 0.0
C181 C 0.64977 0.98465 0.61695 0.0
C182 C 0.70181 0.03393 0.62249 0.0
C183 C 0.7118 0.08724 0.61693 0.0
C184 C 0.67146 0.09086 0.60544 0.0
C185 C 0.61935 0.05396 0.47215 0.0
C186 C 0.282 0.0395 0.60339 0.0
H187 H 0.65153 0.66783 0.02499 0.0
H188 H 0.25473 0.227 0.86766 0.0
H189 H 0.61478 0.71363 0.92747 0.0
H190 H 0.69898 0.77921 0.94711 0.0
H191 H 0.79775 0.71232 0.91749 0.0
H192 H 0.71219 0.64478 0.8986 0.0
H193 H 0.52704 0.61234 0.95127 0.0
H194 H 0.56583 0.63748 0.98432 0.0
H195 H 0.70293 0.60466 0.96707 0.0
H196 H 0.66306 0.57864 0.9342 0.0
H197 H 0.41986 0.50386 0.93348 0.0
H198 H 0.37252 0.43242 0.95771 0.0
H199 H 0.50758 0.38942 0.95217 0.0
H200 H 0.55508 0.46192 0.92844 0.0
H201 H 0.39496 0.50822 0.88768 0.0
H202 H 0.30562 0.4202 0.87857 0.0
H203 H 0.39418 0.32442 0.88263 0.0
H204 H 0.48314 0.41269 0.89165 0.0
H205 H 0.48129 0.60622 0.86141 0.0
H206 H 0.41988 0.56345 0.83236 0.0
H207 H 0.46818 0.43344 0.82796 0.0
H208 H 0.53021 0.47674 0.85661 0.0
H209 H 0.62306 0.72129 0.88008 0.0
H210 H 0.69965 0.78152 0.85816 0.0
H211 H 0.7089 0.63406 0.83597 0.0
H212 H 0.63489 0.5752 0.85854 0.0
O213 O 0.63618 0.6565 0.01195 0.0
O214 O 0.70631 0.63999 0.00224 0.0
O215 O 0.24331 0.31164 0.87327 0.0
O216 O 0.28941 0.26239 0.87123 0.0
C217 C 0.60268 0.62174 0.90582 0.0
C218 C 0.571 0.58253 0.92004 0.0
C219 C 0.52019 0.53148 0.91486 0.0
C220 C 0.4996 0.5202 0.89567 0.0
C221 C 0.53183 0.55859 0.8813 0.0
C222 C 0.5843 0.60878 0.88626 0.0
C223 C 0.6572 0.67394 0.91183 0.0
C224 C 0.65524 0.71473 0.92471 0.0
C225 C 0.70353 0.75223 0.93594 0.0
C226 C 0.75472 0.74996 0.93422 0.0
C227 C 0.75845 0.71399 0.91952 0.0
C228 C 0.70989 0.67598 0.90847 0.0
C229 C 0.59246 0.59405 0.94036 0.0
C230 C 0.56509 0.61006 0.95473 0.0
C231 C 0.5875 0.62463 0.97356 0.0
C232 C 0.63769 0.6234 0.97831 0.0
C233 C 0.66433 0.60623 0.9639 0.0
C234 C 0.64169 0.59138 0.94512 0.0
C235 C 0.49084 0.48799 0.92934 0.0
C236 C 0.43903 0.47892 0.93757 0.0
C237 C 0.412 0.43792 0.95129 0.0
C238 C 0.43634 0.40524 0.9569 0.0
C239 C 0.48818 0.41444 0.94844 0.0
C240 C 0.51522 0.45556 0.93482 0.0
C241 C 0.44528 0.46667 0.89042 0.0
C242 C 0.39485 0.46813 0.88663 0.0
C243 C 0.34395 0.41784 0.88145 0.0
C244 C 0.34275 0.36525 0.87995 0.0
C245 C 0.39359 0.36414 0.88368 0.0
C246 C 0.44437 0.41442 0.88891 0.0
C247 C 0.50993 0.54438 0.86111 0.0
C248 C 0.48063 0.57009 0.85364 0.0
C249 C 0.44552 0.54563 0.83716 0.0
C250 C 0.43944 0.49523 0.82816 0.0
C251 C 0.47254 0.47244 0.83472 0.0
C252 C 0.508 0.49718 0.85099 0.0
C253 C 0.62332 0.64382 0.87093 0.0
C254 C 0.64122 0.702 0.8703 0.0
C255 C 0.6848 0.73626 0.8577 0.0
C256 C 0.71095 0.71275 0.84546 0.0
C257 C 0.6906 0.65382 0.84547 0.0
C258 C 0.64759 0.61986 0.85816 0.0
C259 C 0.66226 0.64035 0.99819 0.0
C260 C 0.28876 0.31165 0.8746 0.0
H261 H -0.00076 0.10893 0.11883 0.0
H262 H 0.16495 0.23681 0.09766 0.0
H263 H 0.16731 0.30727 0.12215 0.0
H264 H 0.94312 0.20598 0.13111 0.0
H265 H 0.90832 0.17045 0.1527 0.0
H266 H 0.91708 0.13076 0.1325 0.0
H267 H 0.96959 0.09724 0.15487 0.0
H268 H 0.96144 0.13722 0.17509 0.0
H269 H 0.03205 0.14962 0.16856 0.0
H270 H 0.15444 0.36274 0.14918 0.0
H271 H 0.1266 0.40155 0.17753 0.0
H272 H 0.97073 0.23785 0.18278 0.0
C273 C 0.03542 0.15206 0.11918 0.0
C274 C 0.0818 0.16763 0.10631 0.0
C275 C 0.12898 0.22408 0.10739 0.0
C276 C 0.13071 0.26443 0.12123 0.0
C277 C 0.08504 0.24759 0.13396 0.0
C278 C 0.03815 0.19294 0.13311 0.0
C279 C 0.99622 0.18578 0.14919 0.0
C280 C 0.93772 0.17246 0.14088 0.0
C281 C 0.98945 0.13973 0.16273 0.0
C282 C 0.02733 0.24474 0.15926 0.0
C283 C 0.07827 0.27961 0.1501 0.0
C284 C 0.11482 0.33583 0.15658 0.0
C285 C 0.0989 0.35725 0.17287 0.0
C286 C 0.04704 0.32246 0.18267 0.0
C287 C 0.01072 0.26542 0.17567 0.0
H288 H 0.86511 0.00465 0.43739 0.0
H289 H 0.02548 0.1609 0.45149 0.0
H290 H 0.98301 0.17622 0.48128 0.0
H291 H 0.77078 0.05929 0.45615 0.0
H292 H 0.71846 0.99156 0.46513 0.0
H293 H 0.76066 0.99396 0.44431 0.0
H294 H 0.79471 0.93318 0.46154 0.0
H295 H 0.75343 0.93163 0.48252 0.0
H296 H 0.82962 0.95789 0.48489 0.0
H297 H 0.92704 0.17198 0.5105 0.0
H298 H 0.85571 0.15368 0.53611 0.0
H299 H 0.72931 0.00316 0.50285 0.0
C300 C 0.89085 0.04246 0.44662 0.0
C301 C 0.94863 0.08148 0.44212 0.0
C302 C 0.98109 0.13041 0.45459 0.0
C303 C 0.95747 0.13948 0.47162 0.0
C304 C 0.90105 0.09964 0.4759 0.0
C305 C 0.86763 0.05266 0.46366 0.0
C306 C 0.80793 0.01682 0.47184 0.0
C307 C 0.76174 0.01535 0.45857 0.0
C308 C 0.79574 0.9563 0.47541 0.0
C309 C 0.81377 0.0505 0.4907 0.0
C310 C 0.86794 0.09798 0.49273 0.0
C311 C 0.88415 0.13532 0.50901 0.0
C312 C 0.84337 0.12461 0.52346 0.0
C313 C 0.78693 0.07715 0.52147 0.0
C314 C 0.77232 0.03935 0.50493 0.0
H315 H 0.90365 0.96946 0.77745 0.0
H316 H 0.02925 0.91275 0.77706 0.0
H317 H 0.96711 0.8358 0.7984 0.0
H318 H 0.86068 0.94156 0.82719 0.0
H319 H 0.78582 0.91684 0.82222 0.0
H320 H 0.8407 0.96836 0.80724 0.0
H321 H 0.79183 0.90191 0.77686 0.0
H322 H 0.73683 0.85017 0.79174 0.0
H323 H 0.77849 0.82969 0.77604 0.0
H324 H 0.89206 0.76553 0.81967 0.0
H325 H 0.80803 0.70506 0.8393 0.0
H326 H 0.72889 0.80481 0.82502 0.0
C327 C 0.91817 0.94103 0.78196 0.0
C328 C 0.97133 0.94712 0.77568 0.0
C329 C 0.98869 0.90883 0.78173 0.0
C330 C 0.95374 0.86505 0.79385 0.0
C331 C 0.90149 0.86002 0.79971 0.0
C332 C 0.88361 0.89681 0.79396 0.0
C333 C 0.82491 0.88121 0.80204 0.0
C334 C 0.82826 0.92989 0.81547 0.0
C335 C 0.78039 0.86476 0.78569 0.0
C336 C 0.8127 0.82998 0.81326 0.0
C337 C 0.85752 0.81864 0.81173 0.0
C338 C 0.85648 0.77371 0.82088 0.0
C339 C 0.80827 0.7393 0.83187 0.0
C340 C 0.76142 0.74967 0.83356 0.0
C341 C 0.76401 0.79587 0.82412 0.0
H342 H 0.03737 0.92726 0.12336 0.0
H343 H 0.18372 0.94424 0.09029 0.0
H344 H 0.18558 0.87039 0.10913 0.0
H345 H 0.08466 0.90431 0.16954 0.0
H346 H 0.01248 0.85382 0.17657 0.0
H347 H 0.02453 0.90987 0.16105 0.0
H348 H 0.95374 0.83439 0.13569 0.0
H349 H 0.94192 0.7781 0.15103 0.0
H350 H 0.96605 0.77777 0.1266 0.0
H351 H 0.16796 0.79114 0.13013 0.0
H352 H 0.13555 0.71516 0.15322 0.0
H353 H 0.00241 0.75179 0.17329 0.0
C354 C 0.07019 0.91585 0.12023 0.0
C355 C 0.11043 0.94137 0.10539 0.0
C356 C 0.15263 0.9253 0.10166 0.0
C357 C 0.15395 0.88335 0.11224 0.0
C358 C 0.11305 0.85833 0.12656 0.0
C359 C 0.07233 0.87433 0.13072 0.0
C360 C 0.03286 0.8403 0.14669 0.0
C361 C 0.03903 0.87941 0.16452 0.0
C362 C 0.96993 0.80558 0.13957 0.0
C363 C 0.0571 0.80192 0.15062 0.0
C364 C 0.10339 0.8131 0.13887 0.0
C365 C 0.13221 0.78242 0.13957 0.0
C366 C 0.1136 0.73951 0.15278 0.0
C367 C 0.0667 0.72777 0.16516 0.0
C368 C 0.03807 0.75939 0.16394 0.0
H369 H 0.21862 0.10166 0.43715 0.0
H370 H 0.0587 0.95471 0.45392 0.0
H371 H 0.11047 0.93772 0.47934 0.0
H372 H 0.3091 0.04157 0.44424 0.0
H373 H 0.36933 0.10721 0.4538 0.0
H374 H 0.31976 0.10907 0.43703 0.0
H375 H 0.30124 0.17352 0.46165 0.0
H376 H 0.35081 0.1719 0.47849 0.0
H377 H 0.27805 0.15014 0.48569 0.0
H378 H 0.17861 0.93429 0.50214 0.0
H379 H 0.26018 0.94644 0.52187 0.0
H380 H 0.37645 0.09602 0.49096 0.0
C381 C 0.19459 0.06611 0.44624 0.0
C382 C 0.1347 0.02949 0.44357 0.0
C383 C 0.10463 0.98334 0.45571 0.0
C384 C 0.13359 0.97328 0.4702 0.0
C385 C 0.19259 0.00987 0.47241 0.0
C386 C 0.22287 0.05549 0.46087 0.0
C387 C 0.28629 0.08789 0.46631 0.0
C388 C 0.32329 0.08631 0.44933 0.0
C389 C 0.30519 0.14952 0.47346 0.0
C390 C 0.28673 0.05307 0.48262 0.0
C391 C 0.23217 0.00822 0.48583 0.0
C392 C 0.22158 0.96928 0.49982 0.0
C393 C 0.26812 0.97632 0.51085 0.0
C394 C 0.3244 0.02201 0.50786 0.0
C395 C 0.3337 0.06101 0.49362 0.0
H396 H 0.16248 0.21262 0.79051 0.0
H397 H 0.19589 0.27985 0.73344 0.0
H398 H 0.2726 0.37292 0.74723 0.0
H399 H 0.19401 0.34679 0.81779 0.0
H400 H 0.22841 0.33396 0.83742 0.0
H401 H 0.17047 0.27471 0.824 0.0
H402 H 0.23458 0.23039 0.81614 0.0
H403 H 0.293 0.28807 0.82974 0.0
H404 H 0.30333 0.2724 0.80488 0.0
H405 H 0.35285 0.4556 0.76699 0.0
H406 H 0.42955 0.51887 0.79087 0.0
H407 H 0.34438 0.39477 0.8342 0.0
C408 C 0.18478 0.24737 0.78098 0.0
C409 C 0.17298 0.23926 0.76095 0.0
C410 C 0.20398 0.2854 0.74888 0.0
C411 C 0.24757 0.33838 0.75658 0.0
C412 C 0.25939 0.34442 0.77636 0.0
C413 C 0.22855 0.30013 0.78839 0.0
C414 C 0.25261 0.31548 0.80878 0.0
C415 C 0.20874 0.31784 0.82283 0.0
C416 C 0.27203 0.27414 0.81525 0.0
C417 C 0.30334 0.37431 0.80619 0.0
C418 C 0.30603 0.39102 0.78753 0.0
C419 C 0.35076 0.44317 0.78168 0.0
C420 C 0.39404 0.47872 0.79524 0.0
C421 C 0.39239 0.46116 0.81417 0.0
C422 C 0.34622 0.40882 0.81973 0.0
H423 H 0.94198 0.11541 0.70418 0.0
H424 H 0.96215 0.97532 0.67991 0.0
H425 H 0.889 0.95509 0.6549 0.0
H426 H 0.78932 0.04686 0.69713 0.0
H427 H 0.78956 0.11076 0.691 0.0
H428 H 0.84481 0.11553 0.70671 0.0
H429 H 0.92337 0.18461 0.68387 0.0
H430 H 0.86835 0.18015 0.66811 0.0
H431 H 0.92148 0.16326 0.65867 0.0
H432 H 0.81231 0.94834 0.63311 0.0
H433 H 0.73795 0.9567 0.61543 0.0
H434 H 0.76687 0.10087 0.65378 0.0
C435 C 0.93125 0.08073 0.69352 0.0
C436 C 0.95776 0.04695 0.69395 0.0
C437 C 0.94237 0.00175 0.67983 0.0
C438 C 0.90089 0.98992 0.66558 0.0
C439 C 0.87523 0.0237 0.66563 0.0
C440 C 0.88983 0.06828 0.67917 0.0
C441 C 0.85502 0.0974 0.67614 0.0
C442 C 0.81745 0.09231 0.69379 0.0
C443 C 0.89442 0.16007 0.67141 0.0
C444 C 0.81856 0.06216 0.65879 0.0
C445 C 0.83089 0.01984 0.653 0.0
C446 C 0.80224 0.9813 0.6375 0.0
C447 C 0.75984 0.98616 0.62764 0.0
C448 C 0.74648 0.02926 0.63328 0.0
C449 C 0.77649 0.0678 0.64905 0.0
H450 H 0.9437 0.98336 0.01791 0.0
H451 H 0.00486 0.8687 0.03254 0.0
H452 H 0.94625 0.80113 0.006 0.0
H453 H 0.79754 0.8734 0.00458 0.0
H454 H 0.79243 0.91132 0.98483 0.0
H455 H 0.83791 0.95027 0.00541 0.0
H456 H 0.92485 0.00145 0.98269 0.0
H457 H 0.87973 0.96224 0.96206 0.0
H458 H 0.94439 0.95958 0.96653 0.0
H459 H 0.88248 0.74639 0.97814 0.0
H460 H 0.81397 0.70541 0.95085 0.0
H461 H 0.79586 0.85629 0.95292 0.0
C462 C 0.94418 0.94374 0.01562 0.0
C463 C 0.97868 0.93114 0.02729 0.0
C464 C 0.97875 0.8792 0.02376 0.0
C465 C 0.94567 0.84055 0.00871 0.0
C466 C 0.91291 0.85455 0.99727 0.0
C467 C 0.91158 0.90466 0.00052 0.0
C468 C 0.87302 0.90925 0.98581 0.0
C469 C 0.82221 0.91116 0.99576 0.0
C470 C 0.90758 0.96122 0.97355 0.0
C471 C 0.85297 0.85387 0.97387 0.0
C472 C 0.87664 0.82313 0.98077 0.0
C473 C 0.86403 0.77023 0.97246 0.0
C474 C 0.82553 0.74763 0.95678 0.0
C475 C 0.80019 0.77799 0.94945 0.0
C476 C 0.81459 0.83208 0.95811 0.0
H477 H 0.95651 0.87517 0.35247 0.0
H478 H 0.10221 0.91929 0.39006 0.0
H479 H 0.10229 0.83168 0.37853 0.0
H480 H 0.88485 0.71925 0.35525 0.0
H481 H 0.86523 0.70527 0.32998 0.0
H482 H 0.87177 0.7682 0.34262 0.0
H483 H 0.94562 0.83179 0.31745 0.0
H484 H 0.93834 0.76883 0.30472 0.0
H485 H 0.0085 0.82527 0.31267 0.0
H486 H 0.08907 0.74178 0.36265 0.0
H487 H 0.07073 0.66013 0.34044 0.0
H488 H 0.93922 0.67759 0.31084 0.0
C489 C 0.98777 0.86571 0.35838 0.0
C490 C 0.02911 0.90348 0.37222 0.0
C491 C 0.07029 0.89074 0.3794 0.0
C492 C 0.0704 0.84092 0.37307 0.0
C493 C 0.0295 0.80459 0.35933 0.0
C494 C 0.98945 0.81659 0.35181 0.0
C495 C 0.95411 0.77293 0.33581 0.0
C496 C 0.89019 0.73943 0.34125 0.0
C497 C 0.96217 0.80144 0.31652 0.0
C498 C 0.98117 0.73525 0.3354 0.0
C499 C 0.02372 0.75371 0.34938 0.0
C500 C 0.05587 0.72684 0.35161 0.0
C501 C 0.04534 0.68068 0.33885 0.0
C502 C 0.00368 0.66238 0.32383 0.0
C503 C 0.97054 0.6896 0.32238 0.0
H504 H 0.17236 0.00889 0.69135 0.0
H505 H 0.27018 0.10527 0.74267 0.0
H506 H 0.35576 0.10309 0.72973 0.0
H507 H 0.2384 0.91836 0.68546 0.0
H508 H 0.23693 0.91809 0.65947 0.0
H509 H 0.18271 0.92428 0.67339 0.0
H510 H 0.20866 0.01803 0.65702 0.0
H511 H 0.26203 0.0109 0.64303 0.0
H512 H 0.28242 0.07545 0.6576 0.0
H513 H 0.43295 0.0975 0.70962 0.0
H514 H 0.49394 0.08593 0.68452 0.0
H515 H 0.34381 0.99102 0.64715 0.0
C516 C 0.21162 0.02903 0.69995 0.0
C517 C 0.21481 0.05732 0.71797 0.0
C518 C 0.26687 0.08317 0.72883 0.0
C519 C 0.31563 0.08213 0.72161 0.0
C520 C 0.31124 0.05434 0.70366 0.0
C521 C 0.26033 0.02778 0.69308 0.0
C522 C 0.26712 0.00216 0.67398 0.0
C523 C 0.22903 0.93684 0.67303 0.0
C524 C 0.25432 0.02828 0.65692 0.0
C525 C 0.33026 0.02005 0.67515 0.0
C526 C 0.35503 0.0498 0.6924 0.0
C527 C 0.41381 0.07348 0.69618 0.0
C528 C 0.44812 0.0669 0.68186 0.0
C529 C 0.42339 0.03674 0.66407 0.0
C530 C 0.36363 0.01273 0.66085 0.0
H531 H 0.17149 0.16297 0.01246 0.0
H532 H 0.29563 0.16098 0.05135 0.0
H533 H 0.37516 0.2329 0.03236 0.0
H534 H 0.25414 0.1801 0.96837 0.0
H535 H 0.23185 0.22609 0.95831 0.0
H536 H 0.18504 0.1725 0.97446 0.0
H537 H 0.18042 0.25037 0.99659 0.0
H538 H 0.22752 0.30423 0.9806 0.0
H539 H 0.24637 0.31084 0.00582 0.0
H540 H 0.44066 0.3091 0.01033 0.0
H541 H 0.48781 0.38154 0.98607 0.0
H542 H 0.3206 0.33101 0.96097 0.0
C543 C 0.21542 0.17725 0.01687 0.0
C544 C 0.22754 0.15653 0.03336 0.0
C545 C 0.2855 0.17626 0.03871 0.0
C546 C 0.33089 0.2171 0.02804 0.0
C547 C 0.31745 0.23727 0.012 0.0
C548 C 0.26115 0.21767 0.00634 0.0
C549 C 0.25831 0.24695 0.98875 0.0
C550 C 0.23071 0.20383 0.97145 0.0
C551 C 0.22626 0.28006 0.99322 0.0
C552 C 0.3218 0.28689 0.98564 0.0
C553 C 0.3552 0.28056 -0.00084 0.0
C554 C 0.41501 0.31396 -0.00049 0.0
C555 C 0.44138 0.35481 0.98562 0.0
C556 C 0.40797 0.36181 0.97154 0.0
C557 C 0.34737 0.32714 0.97162 0.0
H558 H 0.99632 0.12297 0.34437 0.0
H559 H 0.15004 0.23808 0.378 0.0
H560 H 0.15933 0.31915 0.36049 0.0
H561 H 0.04739 0.19552 0.29892 0.0
H562 H 0.9769 0.18208 0.29209 0.0
H563 H 0.98394 0.13295 0.30675 0.0
H564 H 0.91865 0.14411 0.33257 0.0
H565 H 0.91207 0.19385 0.31813 0.0
H566 H 0.93816 0.21421 0.34271 0.0
H567 H 0.14697 0.38837 0.34148 0.0
H568 H 0.12043 0.44047 0.3197 0.0
H569 H 0.97861 0.2797 0.29662 0.0
C570 C 0.03237 0.16514 0.34785 0.0
C571 C 0.07249 0.17432 0.36254 0.0
C572 C 0.11902 0.23007 0.36672 0.0
C573 C 0.1245 0.27641 0.35692 0.0
C574 C 0.08352 0.26612 0.34282 0.0
C575 C 0.03893 0.21179 0.33803 0.0
C576 C 0.00079 0.21249 0.32227 0.0
C577 C 0.00238 0.17877 0.30392 0.0
C578 C 0.93875 0.18983 0.32935 0.0
C579 C 0.03033 0.27584 0.31921 0.0
C580 C 0.07774 0.30596 0.33129 0.0
C581 C 0.11061 0.36517 0.33167 0.0
C582 C 0.09529 0.39436 0.31913 0.0
C583 C 0.04787 0.36441 0.30612 0.0
C584 C 0.01487 0.30421 0.30637 0.0
loop_
_geom_bond_atom_site_label_1
_geom_bond_atom_site_label_2
_geom_bond_distance
_geom_bond_site_symmetry_2
_ccdc_geom_bond_type
In0 O1 2.294 . S
In0 O2 2.326 . S
In0 O6 2.266 1_445 S
In0 O7 2.326 1_545 S
In0 O8 2.266 1_545 S
In0 O9 2.326 1_545 S
In0 O11 2.294 . S
In0 O12 2.326 . S
O1 In0 2.294 . S
O1 C10 1.240 . S
O2 In0 2.326 . S
O2 C10 1.252 . S
C3 O6 1.252 . S
C3 O7 1.260 1_655 S
C4 O11 1.240 . S
C4 O12 1.252 . S
C5 O8 1.252 . S
C5 O9 1.260 . S
O6 In0 2.266 1_665 S
O6 C3 1.252 . S
O7 In0 2.326 1_565 S
O7 C3 1.260 1_455 S
O8 In0 2.266 1_565 S
O8 C5 1.252 . S
O9 In0 2.326 1_565 S
O9 C5 1.260 . S
C10 O1 1.240 . S
C10 O2 1.252 . S
O11 In0 2.294 . S
O11 C4 1.240 . S
O12 In0 2.326 . S
O12 C4 1.252 . S
In13 O14 2.294 . S
In13 O15 2.326 1_455 S
In13 O19 2.266 . S
In13 O20 2.326 1_545 S
In13 O21 2.266 1_445 S
In13 O22 2.326 1_545 S
In13 O24 2.294 1_445 S
In13 O25 2.326 . S
O14 In13 2.294 . S
O14 C23 1.240 . S
O15 In13 2.326 1_655 S
O15 C23 1.252 1_655 S
C16 O19 1.252 . S
C16 O20 1.260 1_545 S
C17 O24 1.240 1_545 S
C17 O25 1.252 1_655 S
C18 O21 1.252 1_455 S
C18 O22 1.260 . S
O19 In13 2.266 . S
O19 C16 1.252 . S
O20 In13 2.326 1_565 S
O20 C16 1.260 1_565 S
O21 In13 2.266 1_665 S
O21 C18 1.252 1_655 S
O22 In13 2.326 1_565 S
O22 C18 1.260 . S
C23 O14 1.240 . S
C23 O15 1.252 1_455 S
O24 In13 2.294 1_665 S
O24 C17 1.240 1_565 S
O25 In13 2.326 . S
O25 C17 1.252 1_455 S
In26 O27 2.294 1_545 S
In26 O28 2.326 . S
In26 O32 2.266 . S
In26 O33 2.326 . S
In26 O34 2.266 . S
In26 O35 2.326 . S
In26 O37 2.294 . S
In26 O38 2.326 . S
O27 In26 2.294 1_565 S
O27 C36 1.240 . S
O28 In26 2.326 . S
O28 C36 1.252 1_545 S
C29 O32 1.252 . S
C29 O33 1.260 . S
C30 O37 1.240 . S
C30 O38 1.252 . S
C31 O34 1.252 . S
C31 O35 1.260 . S
O32 In26 2.266 . S
O32 C29 1.252 . S
O33 In26 2.326 . S
O33 C29 1.260 . S
O34 In26 2.266 . S
O34 C31 1.252 . S
O35 In26 2.326 . S
O35 C31 1.260 . S
C36 O27 1.240 . S
C36 O28 1.252 1_565 S
O37 In26 2.294 . S
O37 C30 1.240 . S
O38 In26 2.326 . S
O38 C30 1.252 . S
H39 O65 0.856 . S
H40 O68 0.854 . S
H41 C76 0.930 . S
H42 C77 0.930 . S
H43 C79 0.930 . S
H44 C80 0.930 . S
H45 C82 0.931 1_655 S
H46 C83 0.930 1_655 S
H47 C85 0.930 . S
H48 C86 0.929 . S
H49 C88 0.930 1_655 S
H50 C89 0.931 1_655 S
H51 C91 0.930 . S
H52 C92 0.929 . S
H53 C94 0.931 1_655 S
H54 C95 0.930 1_655 S
H55 C97 0.930 . S
H56 C98 0.932 . S
H57 C100 0.930 . S
H58 C101 0.929 . S
H59 C103 0.931 . S
H60 C104 0.930 . S
H61 C106 0.929 . S
H62 C107 0.940 . S
H63 C109 0.930 . S
H64 C110 0.929 . S
O65 H39 0.856 . S
O65 C111 1.300 . S
O66 C111 1.209 . S
O67 C112 1.199 . S
O68 H40 0.854 . S
O68 C112 1.297 . S
C69 C70 1.404 . S
C69 C74 1.397 . S
C69 C75 1.492 . S
C70 C69 1.404 . S
C70 C71 1.396 . S
C70 C81 1.492 . S
C71 C70 1.396 . S
C71 C72 1.397 . S
C71 C87 1.509 . S
C72 C71 1.397 . S
C72 C73 1.412 . S
C72 C93 1.485 . S
C73 C72 1.412 . S
C73 C74 1.388 . S
C73 C99 1.490 . S
C74 C69 1.397 . S
C74 C73 1.388 . S
C74 C105 1.519 . S
C75 C69 1.492 . S
C75 C76 1.363 1_455 S
C75 C80 1.390 . S
C76 H41 0.930 . S
C76 C75 1.363 1_655 S
C76 C77 1.372 . S
C77 H42 0.930 . S
C77 C76 1.372 . S
C77 C78 1.383 1_655 S
C78 C77 1.383 1_455 S
C78 C79 1.395 . S
C79 H43 0.930 . S
C79 C78 1.395 . S
C79 C80 1.362 . S
C80 H44 0.930 . S
C80 C75 1.390 . S
C80 C79 1.362 . S
C81 C70 1.492 . S
C81 C82 1.377 . S
C81 C86 1.397 . S
C82 H45 0.931 1_455 S
C82 C81 1.377 . S
C82 C83 1.376 . S
C83 H46 0.930 1_455 S
C83 C82 1.376 . S
C83 C84 1.376 . S
C84 C83 1.376 . S
C84 C85 1.378 . S
C84 C111 1.486 . S
C85 H47 0.930 . S
C85 C84 1.378 . S
C85 C86 1.376 . S
C86 H48 0.929 . S
C86 C81 1.397 . S
C86 C85 1.376 . S
C87 C71 1.509 . S
C87 C88 1.391 . S
C87 C92 1.386 . S
C88 H49 0.930 1_455 S
C88 C87 1.391 . S
C88 C89 1.375 . S
C89 H50 0.931 1_455 S
C89 C88 1.375 . S
C89 C90 1.375 . S
C90 C89 1.375 . S
C90 C91 1.361 . S
C91 H51 0.930 . S
C91 C90 1.361 . S
C91 C92 1.399 . S
C92 H52 0.929 . S
C92 C87 1.386 . S
C92 C91 1.399 . S
C93 C72 1.485 . S
C93 C94 1.394 . S
C93 C98 1.360 . S
C94 H53 0.931 1_455 S
C94 C93 1.394 . S
C94 C95 1.372 . S
C95 H54 0.930 1_455 S
C95 C94 1.372 . S
C95 C96 1.397 . S
C96 C95 1.397 . S
C96 C97 1.390 . S
C96 C112 1.476 . S
C97 H55 0.930 . S
C97 C96 1.390 . S
C97 C98 1.366 . S
C98 H56 0.932 . S
C98 C93 1.360 . S
C98 C97 1.366 . S
C99 C73 1.490 . S
C99 C100 1.380 1_455 S
C99 C104 1.386 . S
C100 H57 0.930 . S
C100 C99 1.380 1_655 S
C100 C101 1.381 . S
C101 H58 0.929 . S
C101 C100 1.381 . S
C101 C102 1.371 1_655 S
C102 C101 1.371 1_455 S
C102 C103 1.380 . S
C103 H59 0.931 . S
C103 C102 1.380 . S
C103 C104 1.387 . S
C104 H60 0.930 . S
C104 C99 1.386 . S
C104 C103 1.387 . S
C105 C74 1.519 . S
C105 C106 1.377 1_455 S
C105 C110 1.361 . S
C106 H61 0.929 . S
C106 C105 1.377 1_655 S
C106 C107 1.395 . S
C107 H62 0.940 . S
C107 C106 1.395 . S
C107 C108 1.346 1_655 S
C108 C107 1.346 1_455 S
C108 C109 1.385 . S
C109 H63 0.930 . S
C109 C108 1.385 . S
C109 C110 1.396 . S
C110 H64 0.929 . S
C110 C105 1.361 . S
C110 C109 1.396 . S
C111 O65 1.300 . S
C111 O66 1.209 . S
C111 C84 1.486 . S
C112 O67 1.199 . S
C112 O68 1.297 . S
C112 C96 1.476 . S
H113 O139 0.856 . S
H114 O142 0.854 . S
H115 C150 0.930 . S
H116 C151 0.930 . S
H117 C153 0.930 . S
H118 C154 0.930 . S
H119 C156 0.931 1_565 S
H120 C157 0.930 1_565 S
H121 C159 0.930 . S
H122 C160 0.929 . S
H123 C162 0.930 1_565 S
H124 C163 0.931 1_565 S
H125 C165 0.930 . S
H126 C166 0.929 . S
H127 C168 0.931 1_565 S
H128 C169 0.930 1_565 S
H129 C171 0.930 . S
H130 C172 0.932 . S
H131 C174 0.930 1_565 S
H132 C175 0.929 1_565 S
H133 C177 0.931 . S
H134 C178 0.930 . S
H135 C180 0.929 1_565 S
H136 C181 0.931 1_565 S
H137 C183 0.930 . S
H138 C184 0.929 . S
O139 H113 0.856 . S
O139 C185 1.300 . S
O140 C185 1.209 . S
O141 C186 1.199 . S
O142 H114 0.854 . S
O142 C186 1.297 . S
C143 C144 1.404 . S
C143 C148 1.397 . S
C143 C149 1.492 . S
C144 C143 1.404 . S
C144 C145 1.396 . S
C144 C155 1.492 . S
C145 C144 1.396 . S
C145 C146 1.397 . S
C145 C161 1.509 . S
C146 C145 1.397 . S
C146 C147 1.412 . S
C146 C167 1.485 . S
C147 C146 1.412 . S
C147 C148 1.388 . S
C147 C173 1.490 . S
C148 C143 1.397 . S
C148 C147 1.388 . S
C148 C179 1.519 . S
C149 C143 1.492 . S
C149 C150 1.363 1_545 S
C149 C154 1.390 . S
C150 H115 0.930 . S
C150 C149 1.363 1_565 S
C150 C151 1.372 . S
C151 H116 0.930 . S
C151 C150 1.372 . S
C151 C152 1.383 1_565 S
C152 C151 1.383 1_545 S
C152 C153 1.395 . S
C153 H117 0.930 . S
C153 C152 1.395 . S
C153 C154 1.362 . S
C154 H118 0.930 . S
C154 C149 1.390 . S
C154 C153 1.362 . S
C155 C144 1.492 . S
C155 C156 1.377 . S
C155 C160 1.397 . S
C156 H119 0.931 1_545 S
C156 C155 1.377 . S
C156 C157 1.376 . S
C157 H120 0.930 1_545 S
C157 C156 1.376 . S
C157 C158 1.376 . S
C158 C157 1.376 . S
C158 C159 1.378 . S
C158 C185 1.486 . S
C159 H121 0.930 . S
C159 C158 1.378 . S
C159 C160 1.376 . S
C160 H122 0.929 . S
C160 C155 1.397 . S
C160 C159 1.376 . S
C161 C145 1.509 . S
C161 C162 1.391 . S
C161 C166 1.386 . S
C162 H123 0.930 1_545 S
C162 C161 1.391 . S
C162 C163 1.375 . S
C163 H124 0.931 1_545 S
C163 C162 1.375 . S
C163 C164 1.375 . S
C164 C163 1.375 . S
C164 C165 1.361 . S
C165 H125 0.930 . S
C165 C164 1.361 . S
C165 C166 1.399 . S
C166 H126 0.929 . S
C166 C161 1.386 . S
C166 C165 1.399 . S
C167 C146 1.485 . S
C167 C168 1.394 . S
C167 C172 1.360 . S
C168 H127 0.931 1_545 S
C168 C167 1.394 . S
C168 C169 1.372 . S
C169 H128 0.930 1_545 S
C169 C168 1.372 . S
C169 C170 1.397 . S
C170 C169 1.397 . S
C170 C171 1.390 . S
C170 C186 1.476 . S
C171 H129 0.930 . S
C171 C170 1.390 . S
C171 C172 1.366 . S
C172 H130 0.932 . S
C172 C167 1.360 . S
C172 C171 1.366 . S
C173 C147 1.490 . S
C173 C174 1.380 . S
C173 C178 1.386 . S
C174 H131 0.930 1_545 S
C174 C173 1.380 . S
C174 C175 1.381 . S
C175 H132 0.929 1_545 S
C175 C174 1.381 . S
C175 C176 1.371 . S
C176 C175 1.371 . S
C176 C177 1.380 . S
C177 H133 0.931 . S
C177 C176 1.380 . S
C177 C178 1.387 . S
C178 H134 0.930 . S
C178 C173 1.386 . S
C178 C177 1.387 . S
C179 C148 1.519 . S
C179 C180 1.377 . S
C179 C184 1.361 . S
C180 H135 0.929 1_545 S
C180 C179 1.377 . S
C180 C181 1.386 . S
C181 H136 0.931 1_545 S
C181 C180 1.386 . S
C181 C182 1.363 . S
C182 C181 1.363 . S
C182 C183 1.385 . S
C183 H137 0.930 . S
C183 C182 1.385 . S
C183 C184 1.396 . S
C184 H138 0.929 . S
C184 C179 1.361 . S
C184 C183 1.396 . S
C185 O139 1.300 . S
C185 O140 1.209 . S
C185 C158 1.486 . S
C186 O141 1.199 . S
C186 O142 1.297 . S
C186 C170 1.476 . S
H187 O213 0.856 . S
H188 O216 0.854 . S
H189 C224 0.930 . S
H190 C225 0.930 . S
H191 C227 0.930 . S
H192 C228 0.930 . S
H193 C230 0.931 . S
H194 C231 0.930 1_554 S
H195 C233 0.930 . S
H196 C234 0.929 . S
H197 C236 0.930 . S
H198 C237 0.931 . S
H199 C239 0.930 . S
H200 C240 0.929 . S
H201 C242 0.931 . S
H202 C243 0.930 . S
H203 C245 0.930 . S
H204 C246 0.932 . S
H205 C248 0.930 . S
H206 C249 0.929 . S
H207 C251 0.931 . S
H208 C252 0.930 . S
H209 C254 0.929 . S
H210 C255 0.931 . S
H211 C257 0.930 . S
H212 C258 0.929 . S
O213 H187 0.856 . S
O213 C259 1.300 . S
O214 C259 1.209 . S
O215 C260 1.199 . S
O216 H188 0.854 . S
O216 C260 1.297 . S
C217 C218 1.404 . S
C217 C222 1.397 . S
C217 C223 1.492 . S
C218 C217 1.404 . S
C218 C219 1.396 . S
C218 C229 1.492 . S
C219 C218 1.396 . S
C219 C220 1.397 . S
C219 C235 1.509 . S
C220 C219 1.397 . S
C220 C221 1.412 . S
C220 C241 1.485 . S
C221 C220 1.412 . S
C221 C222 1.388 . S
C221 C247 1.490 . S
C222 C217 1.397 . S
C222 C221 1.388 . S
C222 C253 1.519 . S
C223 C217 1.492 . S
C223 C224 1.363 . S
C223 C228 1.390 . S
C224 H189 0.930 . S
C224 C223 1.363 . S
C224 C225 1.372 . S
C225 H190 0.930 . S
C225 C224 1.372 . S
C225 C226 1.383 . S
C226 C225 1.383 . S
C226 C227 1.395 . S
C227 H191 0.930 . S
C227 C226 1.395 . S
C227 C228 1.362 . S
C228 H192 0.930 . S
C228 C223 1.390 . S
C228 C227 1.362 . S
C229 C218 1.492 . S
C229 C230 1.377 . S
C229 C234 1.397 . S
C230 H193 0.931 . S
C230 C229 1.377 . S
C230 C231 1.376 . S
C231 H194 0.930 1_556 S
C231 C230 1.376 . S
C231 C232 1.376 . S
C232 C231 1.376 . S
C232 C233 1.378 . S
C232 C259 1.486 1_556 S
C233 H195 0.930 . S
C233 C232 1.378 . S
C233 C234 1.376 . S
C234 H196 0.929 . S
C234 C229 1.397 . S
C234 C233 1.376 . S
C235 C219 1.509 . S
C235 C236 1.391 . S
C235 C240 1.386 . S
C236 H197 0.930 . S
C236 C235 1.391 . S
C236 C237 1.375 . S
C237 H198 0.931 . S
C237 C236 1.375 . S
C237 C238 1.375 . S
C238 C237 1.375 . S
C238 C239 1.361 . S
C239 H199 0.930 . S
C239 C238 1.361 . S
C239 C240 1.399 . S
C240 H200 0.929 . S
C240 C235 1.386 . S
C240 C239 1.399 . S
C241 C220 1.485 . S
C241 C242 1.394 . S
C241 C246 1.360 . S
C242 H201 0.931 . S
C242 C241 1.394 . S
C242 C243 1.372 . S
C243 H202 0.930 . S
C243 C242 1.372 . S
C243 C244 1.397 . S
C244 C243 1.397 . S
C244 C245 1.390 . S
C244 C260 1.476 . S
C245 H203 0.930 . S
C245 C244 1.390 . S
C245 C246 1.366 . S
C246 H204 0.932 . S
C246 C241 1.360 . S
C246 C245 1.366 . S
C247 C221 1.490 . S
C247 C248 1.380 . S
C247 C252 1.386 . S
C248 H205 0.930 . S
C248 C247 1.380 . S
C248 C249 1.381 . S
C249 H206 0.929 . S
C249 C248 1.381 . S
C249 C250 1.371 . S
C250 C249 1.371 . S
C250 C251 1.380 . S
C251 H207 0.931 . S
C251 C250 1.380 . S
C251 C252 1.387 . S
C252 H208 0.930 . S
C252 C247 1.386 . S
C252 C251 1.387 . S
C253 C222 1.519 . S
C253 C254 1.377 . S
C253 C258 1.361 . S
C254 H209 0.929 . S
C254 C253 1.377 . S
C254 C255 1.386 . S
C255 H210 0.931 . S
C255 C254 1.386 . S
C255 C256 1.363 . S
C256 C255 1.363 . S
C256 C257 1.385 . S
C257 H211 0.930 . S
C257 C256 1.385 . S
C257 C258 1.396 . S
C258 H212 0.929 . S
C258 C253 1.361 . S
C258 C257 1.396 . S
C259 O213 1.300 . S
C259 O214 1.209 . S
C259 C232 1.486 1_554 S
C260 O215 1.199 . S
C260 O216 1.297 . S
C260 C244 1.476 . S
H261 C273 0.927 1_655 S
H262 C275 0.930 . S
H263 C276 0.930 . S
H264 C280 0.959 . S
H265 C280 0.959 . S
H266 C280 0.961 . S
H267 C281 0.960 . S
H268 C281 0.961 . S
H269 C281 0.959 1_455 S
H270 C284 0.929 . S
H271 C285 0.931 . S
H272 C287 0.930 . S
C273 H261 0.927 1_455 S
C273 C274 1.399 . S
C273 C278 1.399 . S
C274 C273 1.399 . S
C274 C275 1.376 . S
C275 H262 0.930 . S
C275 C274 1.376 . S
C275 C276 1.388 . S
C276 H263 0.930 . S
C276 C275 1.388 . S
C276 C277 1.390 . S
C277 C276 1.390 . S
C277 C278 1.394 . S
C277 C283 1.465 . S
C278 C273 1.399 . S
C278 C277 1.394 . S
C278 C279 1.516 1_455 S
C279 C278 1.516 1_655 S
C279 C280 1.502 . S
C279 C281 1.561 . S
C279 C282 1.526 1_655 S
C280 H264 0.959 . S
C280 H265 0.959 . S
C280 H266 0.961 . S
C280 C279 1.502 . S
C281 H267 0.960 . S
C281 H268 0.961 . S
C281 H269 0.959 1_655 S
C281 C279 1.561 . S
C282 C279 1.526 1_455 S
C282 C283 1.396 . S
C282 C287 1.390 1_455 S
C283 C277 1.465 . S
C283 C282 1.396 . S
C283 C284 1.399 . S
C284 H270 0.929 . S
C284 C283 1.399 . S
C284 C285 1.385 . S
C285 H271 0.931 . S
C285 C284 1.385 . S
C285 C286 1.389 . S
C286 C285 1.389 . S
C286 C287 1.387 1_455 S
C287 H272 0.930 . S
C287 C282 1.390 1_655 S
C287 C286 1.387 1_655 S
H288 C300 0.930 . S
H289 C302 0.930 . S
H290 C303 0.930 . S
H291 C307 0.959 . S
H292 C307 0.959 . S
H293 C307 0.961 . S
H294 C308 0.960 . S
H295 C308 0.961 . S
H296 C308 0.959 . S
H297 C311 0.929 . S
H298 C312 0.931 . S
H299 C314 0.930 . S
C300 H288 0.930 . S
C300 C301 1.399 1_565 S
C300 C305 1.399 1_565 S
C301 C300 1.399 1_545 S
C301 C302 1.376 . S
C302 H289 0.930 . S
C302 C301 1.376 . S
C302 C303 1.388 . S
C303 H290 0.930 . S
C303 C302 1.388 . S
C303 C304 1.390 . S
C304 C303 1.390 . S
C304 C305 1.394 . S
C304 C310 1.465 . S
C305 C300 1.399 1_545 S
C305 C304 1.394 . S
C305 C306 1.516 1_545 S
C306 C305 1.516 1_565 S
C306 C307 1.502 . S
C306 C308 1.561 . S
C306 C309 1.526 1_565 S
C307 H291 0.959 . S
C307 H292 0.959 . S
C307 H293 0.961 . S
C307 C306 1.502 . S
C308 H294 0.960 . S
C308 H295 0.961 . S
C308 H296 0.959 . S
C308 C306 1.561 . S
C309 C306 1.526 1_545 S
C309 C310 1.396 . S
C309 C314 1.390 1_545 S
C310 C304 1.465 . S
C310 C309 1.396 . S
C310 C311 1.399 . S
C311 H297 0.929 . S
C311 C310 1.399 . S
C311 C312 1.385 . S
C312 H298 0.931 . S
C312 C311 1.385 . S
C312 C313 1.389 . S
C313 C312 1.389 . S
C313 C314 1.387 1_545 S
C314 H299 0.930 . S
C314 C309 1.390 1_565 S
C314 C313 1.387 1_565 S
H315 C327 0.930 . S
H316 C329 0.930 1_455 S
H317 C330 0.930 . S
H318 C334 0.959 . S
H319 C334 0.959 . S
H320 C334 0.961 . S
H321 C335 0.960 . S
H322 C335 0.961 . S
H323 C335 0.959 . S
H324 C338 0.929 . S
H325 C339 0.931 . S
H326 C341 0.930 . S
C327 H315 0.930 . S
C327 C328 1.399 . S
C327 C332 1.399 . S
C328 C327 1.399 . S
C328 C329 1.376 . S
C329 H316 0.930 1_655 S
C329 C328 1.376 . S
C329 C330 1.388 . S
C330 H317 0.930 . S
C330 C329 1.388 . S
C330 C331 1.390 . S
C331 C330 1.390 . S
C331 C332 1.394 . S
C331 C337 1.465 . S
C332 C327 1.399 . S
C332 C331 1.394 . S
C332 C333 1.516 . S
C333 C332 1.516 . S
C333 C334 1.502 . S
C333 C335 1.561 . S
C333 C336 1.526 . S
C334 H318 0.959 . S
C334 H319 0.959 . S
C334 H320 0.961 . S
C334 C333 1.502 . S
C335 H321 0.960 . S
C335 H322 0.961 . S
C335 H323 0.959 . S
C335 C333 1.561 . S
C336 C333 1.526 . S
C336 C337 1.396 . S
C336 C341 1.390 . S
C337 C331 1.465 . S
C337 C336 1.396 . S
C337 C338 1.399 . S
C338 H324 0.929 . S
C338 C337 1.399 . S
C338 C339 1.385 . S
C339 H325 0.931 . S
C339 C338 1.385 . S
C339 C340 1.389 . S
C340 C339 1.389 . S
C340 C341 1.387 . S
C341 H326 0.930 . S
C341 C336 1.390 . S
C341 C340 1.387 . S
H342 C354 0.930 . S
H343 C356 0.930 . S
H344 C357 0.930 . S
H345 C361 0.959 . S
H346 C361 0.959 . S
H347 C361 0.961 . S
H348 C362 0.960 . S
H349 C362 0.961 . S
H350 C362 0.959 . S
H351 C365 0.929 . S
H352 C366 0.931 . S
H353 C368 0.930 . S
C354 H342 0.930 . S
C354 C355 1.399 . S
C354 C359 1.399 . S
C355 C354 1.399 . S
C355 C356 1.376 . S
C356 H343 0.930 . S
C356 C355 1.376 . S
C356 C357 1.388 . S
C357 H344 0.930 . S
C357 C356 1.388 . S
C357 C358 1.390 . S
C358 C357 1.390 . S
C358 C359 1.394 . S
C358 C364 1.465 . S
C359 C354 1.399 . S
C359 C358 1.394 . S
C359 C360 1.516 . S
C360 C359 1.516 . S
C360 C361 1.502 . S
C360 C362 1.561 . S
C360 C363 1.526 . S
C361 H345 0.959 . S
C361 H346 0.959 . S
C361 H347 0.961 . S
C361 C360 1.502 . S
C362 H348 0.960 . S
C362 H349 0.961 . S
C362 H350 0.959 . S
C362 C360 1.561 . S
C363 C360 1.526 . S
C363 C364 1.396 . S
C363 C368 1.390 . S
C364 C358 1.465 . S
C364 C363 1.396 . S
C364 C365 1.399 . S
C365 H351 0.929 . S
C365 C364 1.399 . S
C365 C366 1.385 . S
C366 H352 0.931 . S
C366 C365 1.385 . S
C366 C367 1.389 . S
C367 C366 1.389 . S
C367 C368 1.387 . S
C368 H353 0.930 . S
C368 C363 1.390 . S
C368 C367 1.387 . S
H369 C381 0.930 . S
H370 C383 0.930 . S
H371 C384 0.930 . S
H372 C388 0.959 . S
H373 C388 0.959 . S
H374 C388 0.961 . S
H375 C389 0.960 . S
H376 C389 0.961 . S
H377 C389 0.959 . S
H378 C392 0.929 1_565 S
H379 C393 0.931 . S
H380 C395 0.930 . S
C381 H369 0.930 . S
C381 C382 1.399 . S
C381 C386 1.399 . S
C382 C381 1.399 . S
C382 C383 1.376 1_545 S
C383 H370 0.930 . S
C383 C382 1.376 1_565 S
C383 C384 1.388 . S
C384 H371 0.930 . S
C384 C383 1.388 . S
C384 C385 1.390 1_565 S
C385 C384 1.390 1_545 S
C385 C386 1.394 . S
C385 C391 1.465 . S
C386 C381 1.399 . S
C386 C385 1.394 . S
C386 C387 1.516 . S
C387 C386 1.516 . S
C387 C388 1.502 . S
C387 C389 1.561 . S
C387 C390 1.526 . S
C388 H372 0.959 . S
C388 H373 0.959 . S
C388 H374 0.961 . S
C388 C387 1.502 . S
C389 H375 0.960 . S
C389 H376 0.961 . S
C389 H377 0.959 . S
C389 C387 1.561 . S
C390 C387 1.526 . S
C390 C391 1.396 . S
C390 C395 1.390 . S
C391 C385 1.465 . S
C391 C390 1.396 . S
C391 C392 1.399 . S
C392 H378 0.929 1_545 S
C392 C391 1.399 . S
C392 C393 1.385 . S
C393 H379 0.931 . S
C393 C392 1.385 . S
C393 C394 1.389 . S
C394 C393 1.389 . S
C394 C395 1.387 . S
C395 H380 0.930 . S
C395 C390 1.390 . S
C395 C394 1.387 . S
H396 C408 0.930 . S
H397 C410 0.930 . S
H398 C411 0.930 . S
H399 C415 0.959 . S
H400 C415 0.959 . S
H401 C415 0.961 . S
H402 C416 0.960 . S
H403 C416 0.961 . S
H404 C416 0.959 . S
H405 C419 0.929 . S
H406 C420 0.931 . S
H407 C422 0.930 . S
C408 H396 0.930 . S
C408 C409 1.399 . S
C408 C413 1.399 . S
C409 C408 1.399 . S
C409 C410 1.376 . S
C410 H397 0.930 . S
C410 C409 1.376 . S
C410 C411 1.388 . S
C411 H398 0.930 . S
C411 C410 1.388 . S
C411 C412 1.390 . S
C412 C411 1.390 . S
C412 C413 1.394 . S
C412 C418 1.465 . S
C413 C408 1.399 . S
C413 C412 1.394 . S
C413 C414 1.516 . S
C414 C413 1.516 . S
C414 C415 1.502 . S
C414 C416 1.561 . S
C414 C417 1.526 . S
C415 H399 0.959 . S
C415 H400 0.959 . S
C415 H401 0.961 . S
C415 C414 1.502 . S
C416 H402 0.960 . S
C416 H403 0.961 . S
C416 H404 0.959 . S
C416 C414 1.561 . S
C417 C414 1.526 . S
C417 C418 1.396 . S
C417 C422 1.390 . S
C418 C412 1.465 . S
C418 C417 1.396 . S
C418 C419 1.399 . S
C419 H405 0.929 . S
C419 C418 1.399 . S
C419 C420 1.385 . S
C420 H406 0.931 . S
C420 C419 1.385 . S
C420 C421 1.389 . S
C421 C420 1.389 . S
C421 C422 1.387 . S
C422 H407 0.930 . S
C422 C417 1.390 . S
C422 C421 1.387 . S
H423 C435 0.930 . S
H424 C437 0.930 1_565 S
H425 C438 0.930 1_565 S
H426 C442 0.959 . S
H427 C442 0.959 . S
H428 C442 0.961 . S
H429 C443 0.960 . S
H430 C443 0.961 . S
H431 C443 0.959 . S
H432 C446 0.929 1_565 S
H433 C447 0.931 . S
H434 C449 0.930 . S
C435 H423 0.930 . S
C435 C436 1.399 . S
C435 C440 1.399 . S
C436 C435 1.399 . S
C436 C437 1.376 . S
C437 H424 0.930 1_545 S
C437 C436 1.376 . S
C437 C438 1.388 . S
C438 H425 0.930 1_545 S
C438 C437 1.388 . S
C438 C439 1.390 . S
C439 C438 1.390 . S
C439 C440 1.394 . S
C439 C445 1.465 . S
C440 C435 1.399 . S
C440 C439 1.394 . S
C440 C441 1.516 . S
C441 C440 1.516 . S
C441 C442 1.502 . S
C441 C443 1.561 . S
C441 C444 1.526 . S
C442 H426 0.959 . S
C442 H427 0.959 . S
C442 H428 0.961 . S
C442 C441 1.502 . S
C443 H429 0.960 . S
C443 H430 0.961 . S
C443 H431 0.959 . S
C443 C441 1.561 . S
C444 C441 1.526 . S
C444 C445 1.396 . S
C444 C449 1.390 . S
C445 C439 1.465 . S
C445 C444 1.396 . S
C445 C446 1.399 . S
C446 H432 0.929 1_545 S
C446 C445 1.399 . S
C446 C447 1.385 . S
C447 H433 0.931 . S
C447 C446 1.385 . S
C447 C448 1.389 . S
C448 C447 1.389 . S
C448 C449 1.387 . S
C449 H434 0.930 . S
C449 C444 1.390 . S
C449 C448 1.387 . S
H450 C462 0.930 . S
H451 C464 0.930 . S
H452 C465 0.930 . S
H453 C469 0.959 . S
H454 C469 0.959 1_556 S
H455 C469 0.961 . S
H456 C470 0.960 . S
H457 C470 0.961 . S
H458 C470 0.959 . S
H459 C473 0.929 . S
H460 C474 0.931 . S
H461 C476 0.930 . S
C462 H450 0.930 . S
C462 C463 1.399 . S
C462 C467 1.399 . S
C463 C462 1.399 . S
C463 C464 1.376 . S
C464 H451 0.930 . S
C464 C463 1.376 . S
C464 C465 1.388 . S
C465 H452 0.930 . S
C465 C464 1.388 . S
C465 C466 1.390 . S
C466 C465 1.390 . S
C466 C467 1.394 . S
C466 C472 1.465 1_554 S
C467 C462 1.399 . S
C467 C466 1.394 . S
C467 C468 1.516 1_554 S
C468 C467 1.516 1_556 S
C468 C469 1.502 1_556 S
C468 C470 1.561 . S
C468 C471 1.526 . S
C469 H453 0.959 . S
C469 H454 0.959 1_554 S
C469 H455 0.961 . S
C469 C468 1.502 1_554 S
C470 H456 0.960 . S
C470 H457 0.961 . S
C470 H458 0.959 . S
C470 C468 1.561 . S
C471 C468 1.526 . S
C471 C472 1.396 . S
C471 C476 1.390 . S
C472 C466 1.465 1_556 S
C472 C471 1.396 . S
C472 C473 1.399 . S
C473 H459 0.929 . S
C473 C472 1.399 . S
C473 C474 1.385 . S
C474 H460 0.931 . S
C474 C473 1.385 . S
C474 C475 1.389 . S
C475 C474 1.389 . S
C475 C476 1.387 . S
C476 H461 0.930 . S
C476 C471 1.390 . S
C476 C475 1.387 . S
H477 C489 0.930 . S
H478 C491 0.930 . S
H479 C492 0.930 . S
H480 C496 0.959 . S
H481 C496 0.959 . S
H482 C496 0.961 . S
H483 C497 0.960 . S
H484 C497 0.961 . S
H485 C497 0.959 . S
H486 C500 0.929 . S
H487 C501 0.931 . S
H488 C503 0.930 . S
C489 H477 0.930 . S
C489 C490 1.399 1_655 S
C489 C494 1.399 . S
C490 C489 1.399 1_455 S
C490 C491 1.376 . S
C491 H478 0.930 . S
C491 C490 1.376 . S
C491 C492 1.388 . S
C492 H479 0.930 . S
C492 C491 1.388 . S
C492 C493 1.390 . S
C493 C492 1.390 . S
C493 C494 1.394 1_455 S
C493 C499 1.465 . S
C494 C489 1.399 . S
C494 C493 1.394 1_655 S
C494 C495 1.516 . S
C495 C494 1.516 . S
C495 C496 1.502 . S
C495 C497 1.561 . S
C495 C498 1.526 . S
C496 H480 0.959 . S
C496 H481 0.959 . S
C496 H482 0.961 . S
C496 C495 1.502 . S
C497 H483 0.960 . S
C497 H484 0.961 . S
C497 H485 0.959 . S
C497 C495 1.561 . S
C498 C495 1.526 . S
C498 C499 1.396 1_655 S
C498 C503 1.390 . S
C499 C493 1.465 . S
C499 C498 1.396 1_455 S
C499 C500 1.399 . S
C500 H486 0.929 . S
C500 C499 1.399 . S
C500 C501 1.385 . S
C501 H487 0.931 . S
C501 C500 1.385 . S
C501 C502 1.389 . S
C502 C501 1.389 . S
C502 C503 1.387 1_455 S
C503 H488 0.930 . S
C503 C498 1.390 . S
C503 C502 1.387 1_655 S
H504 C516 0.930 1_565 S
H505 C518 0.930 . S
H506 C519 0.930 . S
H507 C523 0.959 . S
H508 C523 0.959 . S
H509 C523 0.961 . S
H510 C524 0.960 . S
H511 C524 0.961 . S
H512 C524 0.959 . S
H513 C527 0.929 . S
H514 C528 0.931 . S
H515 C530 0.930 1_565 S
C516 H504 0.930 1_545 S
C516 C517 1.399 . S
C516 C521 1.399 . S
C517 C516 1.399 . S
C517 C518 1.376 . S
C518 H505 0.930 . S
C518 C517 1.376 . S
C518 C519 1.388 . S
C519 H506 0.930 . S
C519 C518 1.388 . S
C519 C520 1.390 . S
C520 C519 1.390 . S
C520 C521 1.394 . S
C520 C526 1.465 . S
C521 C516 1.399 . S
C521 C520 1.394 . S
C521 C522 1.516 1_545 S
C522 C521 1.516 1_565 S
C522 C523 1.502 . S
C522 C524 1.561 . S
C522 C525 1.526 1_565 S
C523 H507 0.959 . S
C523 H508 0.959 . S
C523 H509 0.961 . S
C523 C522 1.502 . S
C524 H510 0.960 . S
C524 H511 0.961 . S
C524 H512 0.959 . S
C524 C522 1.561 . S
C525 C522 1.526 1_545 S
C525 C526 1.396 . S
C525 C530 1.390 . S
C526 C520 1.465 . S
C526 C525 1.396 . S
C526 C527 1.399 . S
C527 H513 0.929 . S
C527 C526 1.399 . S
C527 C528 1.385 . S
C528 H514 0.931 . S
C528 C527 1.385 . S
C528 C529 1.389 . S
C529 C528 1.389 . S
C529 C530 1.387 . S
C530 H515 0.930 1_545 S
C530 C525 1.390 . S
C530 C529 1.387 . S
H531 C543 0.930 . S
H532 C545 0.930 . S
H533 C546 0.930 . S
H534 C550 0.946 1_554 S
H535 C550 0.959 . S
H536 C550 0.961 . S
H537 C551 0.960 . S
H538 C551 0.961 . S
H539 C551 0.959 . S
H540 C554 0.929 . S
H541 C555 0.931 . S
H542 C557 0.930 . S
C543 H531 0.930 . S
C543 C544 1.399 . S
C543 C548 1.399 . S
C544 C543 1.399 . S
C544 C545 1.376 . S
C545 H532 0.930 . S
C545 C544 1.376 . S
C545 C546 1.388 . S
C546 H533 0.930 . S
C546 C545 1.388 . S
C546 C547 1.390 . S
C547 C546 1.390 . S
C547 C548 1.394 . S
C547 C553 1.465 . S
C548 C543 1.399 . S
C548 C547 1.394 . S
C548 C549 1.516 1_554 S
C549 C548 1.516 1_556 S
C549 C550 1.502 . S
C549 C551 1.561 . S
C549 C552 1.526 . S
C550 H534 0.946 1_556 S
C550 H535 0.959 . S
C550 H536 0.961 . S
C550 C549 1.502 . S
C551 H537 0.960 . S
C551 H538 0.961 . S
C551 H539 0.959 . S
C551 C549 1.561 . S
C552 C549 1.526 . S
C552 C553 1.396 1_556 S
C552 C557 1.390 . S
C553 C547 1.465 . S
C553 C552 1.396 1_554 S
C553 C554 1.399 . S
C554 H540 0.929 . S
C554 C553 1.399 . S
C554 C555 1.385 . S
C555 H541 0.931 . S
C555 C554 1.385 . S
C555 C556 1.389 1_554 S
C556 C555 1.389 1_556 S
C556 C557 1.387 . S
C557 H542 0.930 . S
C557 C552 1.390 . S
C557 C556 1.387 . S
H558 C570 0.930 . S
H559 C572 0.930 . S
H560 C573 0.930 . S
H561 C577 0.959 . S
H562 C577 0.959 . S
H563 C577 0.961 . S
H564 C578 0.960 . S
H565 C578 0.961 . S
H566 C578 0.959 . S
H567 C581 0.929 . S
H568 C582 0.931 . S
H569 C584 0.930 . S
C570 H558 0.930 . S
C570 C571 1.399 . S
C570 C575 1.399 . S
C571 C570 1.399 . S
C571 C572 1.376 . S
C572 H559 0.930 . S
C572 C571 1.376 . S
C572 C573 1.388 . S
C573 H560 0.930 . S
C573 C572 1.388 . S
C573 C574 1.390 . S
C574 C573 1.390 . S
C574 C575 1.394 . S
C574 C580 1.465 . S
C575 C570 1.399 . S
C575 C574 1.394 . S
C575 C576 1.516 . S
C576 C575 1.516 . S
C576 C577 1.502 . S
C576 C578 1.561 1_455 S
C576 C579 1.526 . S
C577 H561 0.959 . S
C577 H562 0.959 . S
C577 H563 0.961 . S
C577 C576 1.502 . S
C578 H564 0.960 . S
C578 H565 0.961 . S
C578 H566 0.959 . S
C578 C576 1.561 1_655 S
C579 C576 1.526 . S
C579 C580 1.396 . S
C579 C584 1.390 . S
C580 C574 1.465 . S
C580 C579 1.396 . S
C580 C581 1.399 . S
C581 H567 0.929 . S
C581 C580 1.399 . S
C581 C582 1.385 . S
C582 H568 0.931 . S
C582 C581 1.385 . S
C582 C583 1.389 . S
C583 C582 1.389 . S
C583 C584 1.387 . S
C584 H569 0.930 . S
C584 C579 1.390 . S
C584 C583 1.387 . S
C286 C78 1.417 . S
C274 C10 1.540 . S
C301 C17 1.434 . S
C313 C152 1.394 . S
C328 C36 2.169 1_655 S
C340 C256 2.173 . S
C355 C5 0.896 . S
C367 C90 0.892 . S
C394 C164 0.827 . S
C382 C16 0.874 . S
C409 C31 1.636 . S
C421 C250 1.543 . S
C448 C182 2.135 . S
C436 C30 2.151 1_655 S
C463 C3 1.516 . S
C475 C226 1.416 . S
C502 C102 1.513 . S
C490 C18 1.685 . S
C529 C176 1.467 . S
C517 C29 1.616 . S
C556 C238 0.870 . S
C544 C4 0.878 . S
C571 C23 2.218 . S
C583 C108 2.210 . S
