# Generated by pormake.
# Topology zzz, (3,6)-cn, num edge types: 1
# Building blocks:
#     Node 0, Type 0, BuildingBlock: ESEHIV_clean_linker_0, # of connection points: 3
#     Node 1, Type 0, BuildingBlock: ESEHIV_clean_linker_0, # of connection points: 3
#     Node 2, Type 0, BuildingBlock: ESEHIV_clean_linker_0, # of connection points: 3
#     Node 3, Type 0, BuildingBlock: ESEHIV_clean_linker_0, # of connection points: 3
#     Node 4, Type 0, BuildingBlock: ESEHIV_clean_linker_0, # of connection points: 3
#     Node 5, Type 0, BuildingBlock: ESEHIV_clean_linker_0, # of connection points: 3
#     Node 6, Type 0, BuildingBlock: ESEHIV_clean_linker_0, # of connection points: 3
#     Node 7, Type 0, BuildingBlock: ESEHIV_clean_linker_0, # of connection points: 3
#     Node 8, Type 1, BuildingBlock: NUHQIS_clean_sbu_0, # of connection points: 6
#     Node 9, Type 1, BuildingBlock: NUHQIS_clean_sbu_0, # of connection points: 6
#     Node 10, Type 1, BuildingBlock: NUHQIS_clean_sbu_0, # of connection points: 6
#     Node 11, Type 1, BuildingBlock: NUHQIS_clean_sbu_0, # of connection points: 6
#     Edge 12, Type (0, 1), BuildingBlock: OJICUG_clean_linker_0, # of connection points: 2
#     Edge 13, Type (0, 1), BuildingBlock: OJICUG_clean_linker_0, # of connection points: 2
#     Edge 14, Type (0, 1), BuildingBlock: OJICUG_clean_linker_0, # of connection points: 2
#     Edge 15, Type (0, 1), BuildingBlock: OJICUG_clean_linker_0, # of connection points: 2
#     Edge 16, Type (0, 1), BuildingBlock: OJICUG_clean_linker_0, # of connection points: 2
#     Edge 17, Type (0, 1), BuildingBlock: OJICUG_clean_linker_0, # of connection points: 2
#     Edge 18, Type (0, 1), BuildingBlock: OJICUG_clean_linker_0, # of connection points: 2
#     Edge 19, Type (0, 1), BuildingBlock: OJICUG_clean_linker_0, # of connection points: 2
#     Edge 20, Type (0, 1), BuildingBlock: OJICUG_clean_linker_0, # of connection points: 2
#     Edge 21, Type (0, 1), BuildingBlock: OJICUG_clean_linker_0, # of connection points: 2
#     Edge 22, Type (0, 1), BuildingBlock: OJICUG_clean_linker_0, # of connection points: 2
#     Edge 23, Type (0, 1), BuildingBlock: OJICUG_clean_linker_0, # of connection points: 2
#     Edge 24, Type (0, 1), BuildingBlock: OJICUG_clean_linker_0, # of connection points: 2
#     Edge 25, Type (0, 1), BuildingBlock: OJICUG_clean_linker_0, # of connection points: 2
#     Edge 26, Type (0, 1), BuildingBlock: OJICUG_clean_linker_0, # of connection points: 2
#     Edge 27, Type (0, 1), BuildingBlock: OJICUG_clean_linker_0, # of connection points: 2
#     Edge 28, Type (0, 1), BuildingBlock: OJICUG_clean_linker_0, # of connection points: 2
#     Edge 29, Type (0, 1), BuildingBlock: OJICUG_clean_linker_0, # of connection points: 2
#     Edge 30, Type (0, 1), BuildingBlock: OJICUG_clean_linker_0, # of connection points: 2
#     Edge 31, Type (0, 1), BuildingBlock: OJICUG_clean_linker_0, # of connection points: 2
#     Edge 32, Type (0, 1), BuildingBlock: OJICUG_clean_linker_0, # of connection points: 2
#     Edge 33, Type (0, 1), BuildingBlock: OJICUG_clean_linker_0, # of connection points: 2
#     Edge 34, Type (0, 1), BuildingBlock: OJICUG_clean_linker_0, # of connection points: 2
#     Edge 35, Type (0, 1), BuildingBlock: OJICUG_clean_linker_0, # of connection points: 2
# Relax obj value: 0.604
# Max RMSD: 0.237
# Mean RMSD: 0.233
data_MOF--net-zzz--node1-NUHQIS_clean_sbu_0--node2-ESEHIV_clean_linker_0--edge1-OJICUG_clean_linker_0
_symmetry_space_group_name_H-M    P1
_symmetry_Int_Tables_number       1
_symmetry_cell_setting            triclinic
loop_
_symmetry_equiv_pos_as_xyz
'x, y, z'
_cell_length_a     32.016388
_cell_length_b     32.005948
_cell_length_c     10.725971
_cell_angle_alpha  89.907376
_cell_angle_beta   89.777457
_cell_angle_gamma 89.999709
loop_
_atom_site_label
_atom_site_type_symbol
_atom_site_fract_x
_atom_site_fract_y
_atom_site_fract_z
_atom_type_partial_charge
H0 H 0.81889 0.43971 0.36349 0.0
H1 H 0.70283 0.44748 0.16476 0.0
H2 H 0.74885 0.55435 0.3666 0.0
C3 C 0.79098 0.4568 0.33797 0.0
C4 C 0.78682 0.49801 0.38064 0.0
C5 C 0.76153 0.43849 0.25762 0.0
C6 C 0.72632 0.46163 0.22374 0.0
C7 C 0.72141 0.50342 0.25981 0.0
C8 C 0.75217 0.52209 0.33803 0.0
H9 H 0.11294 0.81283 0.37428 0.0
H10 H 0.09637 0.7016 0.15888 0.0
H11 H 0.99523 0.7472 0.38957 0.0
C12 C 0.09374 0.78619 0.34953 0.0
C13 C 0.05296 0.78345 0.39779 0.0
C14 C 0.1091 0.75724 0.26248 0.0
C15 C 0.08422 0.72366 0.22672 0.0
C16 C 0.04333 0.71909 0.2717 0.0
C17 C 0.02703 0.74982 0.35584 0.0
H18 H 0.73065 0.112 0.38512 0.0
H19 H 0.84075 0.09556 0.16269 0.0
H20 H 0.79484 0.99352 0.38917 0.0
C21 C 0.75703 0.09276 0.35777 0.0
C22 C 0.75949 0.05163 0.4029 0.0
C23 C 0.78574 0.10836 0.27012 0.0
C24 C 0.81878 0.08327 0.2308 0.0
C25 C 0.82289 0.04203 0.27282 0.0
C26 C 0.79249 0.02558 0.35768 0.0
H27 H 0.42912 0.72965 0.377 0.0
H28 H 0.54721 0.79453 0.38062 0.0
H29 H 0.44527 0.83974 0.15459 0.0
C30 C 0.44828 0.75608 0.34949 0.0
C31 C 0.43263 0.7847 0.26204 0.0
C32 C 0.48934 0.75878 0.39436 0.0
C33 C 0.51523 0.79195 0.34917 0.0
C34 C 0.49874 0.82221 0.2644 0.0
C35 C 0.4576 0.81782 0.22247 0.0
H36 H 0.22565 0.59024 0.16369 0.0
H37 H 0.33936 0.58145 0.37353 0.0
H38 H 0.28996 0.47285 0.18926 0.0
C39 C 0.25286 0.5729 0.1936 0.0
C40 C 0.25533 0.53068 0.15964 0.0
C41 C 0.28217 0.59156 0.27347 0.0
C42 C 0.31603 0.56754 0.31369 0.0
C43 C 0.31941 0.52492 0.28592 0.0
C44 C 0.2885 0.50597 0.20903 0.0
H45 H 0.94829 0.22486 0.18287 0.0
H46 H 0.9564 0.34118 0.38025 0.0
H47 H 0.06343 0.2938 0.17932 0.0
C48 C 0.96541 0.25284 0.20729 0.0
C49 C 1.0067 0.25644 0.16457 0.0
C50 C 0.94707 0.28262 0.28676 0.0
C51 C 0.97042 0.31764 0.32076 0.0
C52 C 1.01236 0.32209 0.28485 0.0
C53 C 0.031 0.291 0.20692 0.0
H54 H 0.31323 0.95195 0.14848 0.0
H55 H 0.20185 0.96097 0.37085 0.0
H56 H 0.25017 0.0698 0.18277 0.0
C57 C 0.2864 0.96944 0.18108 0.0
C58 C 0.28405 1.01181 0.14825 0.0
C59 C 0.25779 0.95074 0.26374 0.0
C60 C 0.22459 0.9749 0.30839 0.0
C61 C 0.22122 1.01762 0.28145 0.0
C62 C 0.25157 0.03661 0.20175 0.0
H63 H 0.5941 0.31492 0.14562 0.0
H64 H 0.47636 0.25176 0.18337 0.0
H65 H 0.58509 0.2045 0.37184 0.0
C66 C 0.57664 0.28821 0.17934 0.0
C67 C 0.59536 0.26 0.26264 0.0
C68 C 0.53429 0.2856 0.14714 0.0
C69 C 0.50954 0.25332 0.20196 0.0
C70 C 0.52849 0.22343 0.28268 0.0
C71 C 0.57119 0.22699 0.30894 0.0
Tb72 Tb 0.05973 1.00469 0.89193 0.0
Eu73 Eu 0.98659 0.03047 0.70427 0.0
C74 C 0.08446 0.0366 0.61688 0.0
C75 C 0.02933 0.09954 0.89622 0.0
C76 C 0.14496 0.9468 0.05251 0.0
C77 C 0.18754 0.89289 0.95631 0.0
C78 C 0.16441 0.92989 0.94637 0.0
C79 C 0.15155 0.92876 0.16885 0.0
C80 C 0.1747 0.89235 0.17919 0.0
C81 C 0.19092 0.87242 0.07214 0.0
C82 C 0.11369 0.97982 0.0445 0.0
O83 O 1.00285 1.01607 1.00257 0.0
O84 O 0.95997 0.99003 0.85818 0.0
O85 O 1.00233 0.96665 0.6297 0.0
O86 O 0.04614 0.94574 0.78773 0.0
C87 C 0.9663 1.0005 0.97405 0.0
O88 O 0.91897 0.03785 0.69932 0.0
O89 O 0.95578 0.05263 0.53577 0.0
O90 O 0.04522 0.04572 0.59039 0.0
O91 O 0.095 1.01896 0.7231 0.0
O92 O 0.05804 0.07216 0.92807 0.0
O93 O 0.9989 0.08925 0.81964 0.0
C94 C 0.02537 0.93782 0.68322 0.0
O95 O 0.12037 1.00946 0.96351 0.0
O96 O 0.07496 0.96713 0.04499 0.0
C97 C 0.90023 0.09707 0.58791 0.0
C98 C 0.86824 0.17809 0.56105 0.0
C99 C 0.8427 0.14323 0.53767 0.0
C100 C 0.85868 0.10276 0.55138 0.0
C101 C 0.92411 0.13152 0.62364 0.0
C102 C 0.9082 0.17158 0.61188 0.0
C103 C 0.91936 0.05566 0.59041 0.0
H104 H 0.19938 0.87833 0.87221 0.0
H105 H 0.15938 0.94358 0.85521 0.0
H106 H 0.13658 0.94145 0.25138 0.0
H107 H 0.17589 0.87785 0.27037 0.0
H108 H 0.81165 0.14739 0.50065 0.0
H109 H 0.83941 0.07615 0.52841 0.0
H110 H 0.95609 0.12763 0.65351 0.0
H111 H 0.92918 0.19739 0.63015 0.0
Tb112 Tb 0.53767 0.06016 0.8911 0.0
Eu113 Eu 0.51121 0.98804 0.69982 0.0
C114 C 0.50742 0.08615 0.61607 0.0
C115 C 0.44208 0.03236 0.88826 0.0
C116 C 0.5957 0.14409 0.05831 0.0
C117 C 0.65006 0.18762 0.96768 0.0
C118 C 0.61313 0.16459 0.95454 0.0
C119 C 0.61324 0.14946 0.17571 0.0
C120 C 0.64965 0.17239 0.18914 0.0
C121 C 0.66996 0.18987 0.08432 0.0
C122 C 0.56236 0.11328 0.04669 0.0
O123 O 0.52476 1.00305 0.99891 0.0
O124 O 0.55096 0.96053 0.85315 0.0
O125 O 0.57545 1.00331 0.62773 0.0
O126 O 0.59684 0.04516 0.78989 0.0
C127 C 0.5402 0.9665 0.96916 0.0
O128 O 0.5006 0.92088 0.69599 0.0
O129 O 0.49173 0.95736 0.52823 0.0
O130 O 0.49633 0.04739 0.5896 0.0
O131 O 0.52619 0.09572 0.72122 0.0
O132 O 0.47003 0.06009 0.92279 0.0
O133 O 0.45192 1.00173 0.81149 0.0
C134 C 0.60461 0.025 0.68408 0.0
O135 O 0.5335 0.1207 0.96433 0.0
O136 O 0.57445 0.07435 0.04627 0.0
C137 C 0.44428 0.90332 0.57145 0.0
C138 C 0.36358 0.87246 0.53086 0.0
C139 C 0.39838 0.84635 0.51391 0.0
C140 C 0.43869 0.86172 0.53472 0.0
C141 C 0.40955 0.92809 0.59921 0.0
C142 C 0.36959 0.91279 0.57986 0.0
C143 C 0.48597 0.92134 0.58318 0.0
H144 H 0.66495 0.20042 0.8852 0.0
H145 H 0.59983 0.16058 0.86262 0.0
H146 H 0.60005 0.13384 0.25659 0.0
H147 H 0.66375 0.17268 0.28072 0.0
H148 H 0.3944 0.81507 0.47849 0.0
H149 H 0.4654 0.8418 0.51788 0.0
H150 H 0.41335 0.96006 0.62993 0.0
H151 H 0.34366 0.93414 0.59272 0.0
Tb152 Tb 0.48314 0.53778 0.8854 0.0
Eu153 Eu 0.5562 0.5117 0.69385 0.0
C154 C 0.45806 0.50619 0.61105 0.0
C155 C 0.51236 0.44258 0.88392 0.0
C156 C 0.39781 0.59479 0.05223 0.0
C157 C 0.35408 0.64875 0.96145 0.0
C158 C 0.37775 0.6122 0.94815 0.0
C159 C 0.39115 0.61177 0.17002 0.0
C160 C 0.36758 0.64784 0.18361 0.0
C161 C 0.35088 0.66841 0.07853 0.0
C162 C 0.42938 0.5621 0.04077 0.0
O163 O 0.54015 0.52576 0.99341 0.0
O164 O 0.58287 0.55192 0.84738 0.0
O165 O 0.54022 0.57567 0.62125 0.0
O166 O 0.49736 0.59675 0.78239 0.0
C167 C 0.57666 0.54139 0.96354 0.0
O168 O 0.62358 0.50239 0.68946 0.0
O169 O 0.58738 0.49166 0.52289 0.0
O170 O 0.49712 0.4962 0.58369 0.0
O171 O 0.44793 0.52461 0.71656 0.0
O172 O 0.48432 0.47028 0.91857 0.0
O173 O 0.54288 0.45254 0.80645 0.0
C174 C 0.51776 0.60459 0.67677 0.0
O175 O 0.4226 0.53283 0.95914 0.0
O176 O 0.46803 0.57501 0.03947 0.0
C177 C 0.64269 0.44581 0.56672 0.0
C178 C 0.67501 0.36551 0.52585 0.0
C179 C 0.70014 0.40083 0.50491 0.0
C180 C 0.68405 0.44094 0.52593 0.0
C181 C 0.61909 0.41066 0.59862 0.0
C182 C 0.6351 0.37094 0.5793 0.0
C183 C 0.62355 0.48713 0.57729 0.0
H184 H 0.34171 0.66369 0.87879 0.0
H185 H 0.38264 0.59925 0.85598 0.0
H186 H 0.40641 0.59858 0.25115 0.0
H187 H 0.36646 0.66164 0.27565 0.0
H188 H 0.73112 0.39731 0.46594 0.0
H189 H 0.70316 0.46801 0.50588 0.0
H190 H 0.58735 0.4139 0.63236 0.0
H191 H 0.61444 0.34467 0.59559 0.0
Tb192 Tb 1.00333 0.48391 0.87556 0.0
Eu193 Eu 0.03312 0.55851 0.69744 0.0
C194 C 0.03687 0.46326 0.59877 0.0
C195 C 0.09813 0.51205 0.89605 0.0
C196 C 0.93911 0.39407 0.96717 0.0
C197 C 0.89905 0.33327 1.02848 0.0
C198 C 0.93708 0.35481 1.02407 0.0
C199 C 0.90559 0.40763 0.89463 0.0
C200 C 0.86764 0.38655 0.89989 0.0
C201 C 0.86263 0.35196 0.98056 0.0
C202 C 0.97376 0.42266 0.99374 0.0
O203 O 1.01229 0.53778 1.00101 0.0
O204 O 0.99402 0.58487 0.85506 0.0
O205 O 0.96961 0.5473 0.61629 0.0
O206 O 0.94637 0.50224 0.76842 0.0
C207 C 1.00136 0.57615 0.97201 0.0
O208 O 0.03996 0.62632 0.69729 0.0
O209 O 0.06155 0.59041 0.53915 0.0
O210 O 0.03563 0.50288 0.56543 0.0
O211 O 0.03083 0.45188 0.71517 0.0
O212 O 0.06719 0.49037 0.94479 0.0
O213 O 0.09209 0.53697 0.79956 0.0
C214 C 0.93976 0.52459 0.66594 0.0
O215 O 1.0059 0.41993 0.91982 0.0
O216 O 0.96325 0.46145 1.01512 0.0
C217 C 0.10164 0.64786 0.60045 0.0
C218 C 0.18235 0.6786 0.55988 0.0
C219 C 0.14741 0.70325 0.53017 0.0
C220 C 0.10709 0.68767 0.54927 0.0
C221 C 0.13598 0.62654 0.64927 0.0
C222 C 0.17607 0.64188 0.63018 0.0
C223 C 0.06124 0.62681 0.59391 0.0
H224 H 0.89707 0.30486 0.08247 0.0
H225 H 0.96387 0.34249 0.07256 0.0
H226 H 0.90745 0.4367 0.84397 0.0
H227 H 0.84135 0.40141 0.85493 0.0
H228 H 0.15129 0.73241 0.48124 0.0
H229 H 0.0805 0.70528 0.51678 0.0
H230 H 0.13212 0.59626 0.69238 0.0
H231 H 0.2019 0.62195 0.65666 0.0
C232 C 0.19444 0.04546 0.48258 0.0
C233 C 0.18805 0.04017 0.35393 0.0
H234 H 0.16722 0.04842 0.665 0.0
C235 C 0.14656 0.04099 0.31037 0.0
H236 H 0.22578 0.04389 0.5201 0.0
C237 C 0.11241 0.04309 0.39419 0.0
C238 C 0.11906 0.044 0.524 0.0
H239 H 0.14053 0.03656 0.21235 0.0
H240 H 0.08099 0.04074 0.35779 0.0
C241 C 0.16061 0.04718 0.5661 0.0
C242 C 0.50185 0.19674 0.48567 0.0
C243 C 0.50586 0.19056 0.3564 0.0
H244 H 0.49927 0.16913 0.66741 0.0
C245 C 0.50319 0.14927 0.31158 0.0
H246 H 0.50476 0.22791 0.52401 0.0
C247 C 0.50053 0.11494 0.39455 0.0
C248 C 0.50086 0.12124 0.52462 0.0
H249 H 0.50648 0.14341 0.21296 0.0
H250 H 0.5014 0.08356 0.35704 0.0
C251 C 0.49956 0.16276 0.56824 0.0
C252 C 0.39441 0.50209 0.30883 0.0
C253 C 0.35317 0.50235 0.35538 0.0
H254 H 0.46025 0.50287 0.3516 0.0
C255 C 0.34754 0.49653 0.48433 0.0
H256 H 0.39984 0.50696 0.21051 0.0
C257 C 0.38184 0.4949 0.56535 0.0
C258 C 0.42312 0.49864 0.52036 0.0
H259 H 0.3164 0.49766 0.52414 0.0
H260 H 0.3758 0.49329 0.6647 0.0
C261 C 0.42906 0.50004 0.39014 0.0
C262 C 0.0504 0.35387 0.46367 0.0
C263 C 0.03466 0.3584 0.34228 0.0
H264 H 0.06368 0.38309 0.63879 0.0
C265 C 0.02621 0.39924 0.29967 0.0
H266 H 0.05594 0.32292 0.50124 0.0
C267 C 0.03033 0.43414 0.379 0.0
C268 C 0.04231 0.42896 0.50424 0.0
H269 H 1.0128 0.40371 0.20849 0.0
H270 H 1.02077 0.46456 0.34517 0.0
C271 C 0.05409 0.38852 0.54339 0.0
C272 C 0.89986 0.03024 0.25678 0.0
C273 C 0.85936 1.0185 0.22028 0.0
H274 H 0.96506 0.03336 0.21062 0.0
C275 C 0.85512 0.99622 0.10802 0.0
H276 H 0.90396 0.04939 0.33857 0.0
C277 C 0.89014 0.98804 0.03148 0.0
C278 C 0.93039 1.00204 0.06494 0.0
H279 H 0.8243 0.98819 0.07432 0.0
H280 H 0.88522 0.97286 0.94258 0.0
C281 C 0.93487 1.02177 0.18135 0.0
C282 C 0.51022 0.89929 0.25006 0.0
C283 C 0.52209 0.85889 0.21236 0.0
H284 H 0.50701 0.96461 0.20578 0.0
C285 C 0.54444 0.85496 0.09975 0.0
H286 H 0.49105 0.90318 0.33217 0.0
C287 C 0.5526 0.89018 1.02412 0.0
C288 C 0.53849 0.93033 0.05886 0.0
H289 H 0.55259 0.82423 0.06517 0.0
H290 H 0.56788 0.88551 0.93497 0.0
C291 C 0.51866 0.9345 0.17554 0.0
C292 C 0.68749 0.54866 0.09666 0.0
C293 C 0.68394 0.5253 0.20748 0.0
H294 H 0.65677 0.57213 0.93282 0.0
C295 C 0.64386 0.51164 0.24333 0.0
H296 H 0.71802 0.55828 0.06352 0.0
C297 C 0.60867 0.51939 0.16873 0.0
C298 C 0.61257 0.54024 0.05362 0.0
H299 H 0.64032 0.49176 0.32404 0.0
H300 H 0.5789 0.50644 0.19751 0.0
C301 C 0.65232 0.55601 1.02072 0.0
C302 C 0.03285 0.64154 0.25521 0.0
C303 C 1.0199 0.68211 0.22134 0.0
H304 H 0.03666 0.57649 0.20639 0.0
C305 C 0.99612 0.68631 0.11202 0.0
H306 H 0.05307 0.63742 0.33468 0.0
C307 C 0.98776 0.65148 0.03542 0.0
C308 C 1.00285 0.61124 0.06581 0.0
H309 H 0.98702 0.71711 0.08007 0.0
H310 H 0.97145 0.65659 0.94847 0.0
C311 C 0.02404 0.6066 0.17981 0.0
C312 C 0.90161 0.28145 0.478 0.0
C313 C 0.90661 0.27293 0.34988 0.0
H314 H 0.87929 0.25782 0.65218 0.0
C315 C 0.87842 0.24504 0.29395 0.0
H316 H 0.92116 0.30391 0.5253 0.0
C317 C 0.85601 0.21725 0.36832 0.0
C318 C 0.86051 0.21857 0.49839 0.0
H319 H 0.87892 0.23978 0.19425 0.0
H320 H 0.84291 0.19012 0.32328 0.0
C321 C 0.87718 0.25496 0.55173 0.0
C322 C 0.25958 0.90312 0.45061 0.0
C323 C 0.26813 0.90964 0.32279 0.0
H324 H 0.28386 0.88046 0.62295 0.0
C325 C 0.29682 0.88255 0.26459 0.0
H326 H 0.23649 0.92129 0.50032 0.0
C327 C 0.32516 0.86026 0.33721 0.0
C328 C 0.3236 0.86391 0.46752 0.0
H329 H 0.30169 0.88345 0.16468 0.0
H330 H 0.35246 0.84751 0.29136 0.0
C331 C 0.28679 0.8791 0.52232 0.0
C332 C 0.66377 0.2989 0.26057 0.0
C333 C 0.63657 0.27053 0.32019 0.0
H334 H 0.70071 0.35349 0.28555 0.0
C335 C 0.64364 0.26188 0.44754 0.0
H336 H 0.6626 0.30371 0.16072 0.0
C337 C 0.66852 0.28866 0.51786 0.0
C338 C 0.68374 0.32539 0.46252 0.0
H339 H 0.62549 0.23899 0.49827 0.0
H340 H 0.66767 0.2857 0.61852 0.0
C341 C 0.68716 0.32668 0.33205 0.0
C342 C 0.28325 0.63961 0.45968 0.0
C343 C 0.27244 0.63258 0.33388 0.0
H344 H 0.26367 0.66536 0.63389 0.0
C345 C 0.24335 0.65988 0.2791 0.0
H346 H 0.3067 0.62118 0.5066 0.0
C347 C 0.21723 0.68378 0.3548 0.0
C348 C 0.22133 0.68186 0.48518 0.0
H349 H 0.23668 0.65851 0.18033 0.0
H350 H 0.18974 0.69713 0.31225 0.0
C351 C 0.25842 0.66537 0.53412 0.0
C352 C 0.14486 0.77304 0.06285 0.0
C353 C 0.14769 0.7671 0.19231 0.0
H354 H 0.16249 0.81224 0.91146 0.0
C355 C 0.18321 0.782 0.25452 0.0
H356 H 0.11864 0.76071 1.01101 0.0
C357 C 0.21005 0.80976 0.19398 0.0
C358 C 0.19768 0.82655 0.07865 0.0
H359 H 0.18721 0.77696 0.35343 0.0
H360 H 0.23307 0.82568 0.24994 0.0
C361 C 0.1707 0.80238 1.00486 0.0
C362 C 0.77034 0.14563 0.07302 0.0
C363 C 0.77586 0.14742 0.20278 0.0
H364 H 0.73118 0.16375 0.92286 0.0
C365 C 0.7601 0.18206 0.26787 0.0
H366 H 0.78329 0.12011 1.01904 0.0
C367 C 0.73178 0.20869 0.20967 0.0
C368 C 0.71567 0.19712 0.0929 0.0
H369 H 0.76495 0.18519 0.36723 0.0
H370 H 0.71518 0.23069 0.26778 0.0
C371 C 0.74061 0.17132 1.01704 0.0
C372 C 0.35879 0.75937 0.26157 0.0
C373 C 0.3935 0.77481 0.19567 0.0
H374 H 0.3103 0.71409 0.26315 0.0
C375 C 0.39527 0.76897 0.06603 0.0
H376 H 0.35553 0.76477 0.36074 0.0
C377 C 0.3696 0.73907 1.01099 0.0
C378 C 0.34388 0.71422 0.08767 0.0
H379 H 0.42077 0.7818 1.01139 0.0
H380 H 0.37711 0.72955 0.91668 0.0
C381 C 0.33235 0.73058 0.20454 0.0
C382 C 0.76155 0.39201 0.06844 0.0
C383 C 0.77109 0.3979 0.19542 0.0
H384 H 0.78136 0.36521 0.89606 0.0
C385 C 0.79777 0.36886 0.25267 0.0
H386 H 0.73954 0.41194 1.02046 0.0
C387 C 0.82323 0.34346 0.17915 0.0
C388 C 0.82195 0.34719 0.04819 0.0
H389 H 0.80322 0.36974 0.35223 0.0
H390 H 0.84848 0.32744 0.22548 0.0
C391 C 0.78584 0.36503 0.99611 0.0
C392 C 0.99909 0.21295 0.97073 0.0
C393 C 0.02181 0.22178 0.08006 0.0
H394 H 0.98335 0.16866 0.82871 0.0
C395 C 0.05031 0.19126 0.12162 0.0
H396 H 0.97621 0.23519 0.93707 0.0
C397 C 0.05433 0.15246 0.05908 0.0
C398 C 0.02958 0.14276 0.95392 0.0
H399 H 0.06744 0.19624 0.20717 0.0
H400 H 0.0753 0.12922 0.09724 0.0
C401 C 1.00281 0.1743 0.90916 0.0
C402 C 0.35037 0.05393 0.11298 0.0
C403 C 0.31888 0.02768 0.06576 0.0
H404 H 0.4136 0.07624 0.09478 0.0
C405 C 0.32701 1.00694 0.95219 0.0
H406 H 0.34584 0.06945 0.20166 0.0
C407 C 0.36611 1.00986 0.89252 0.0
C408 C 0.3986 0.034 0.94338 0.0
H409 H 0.3039 0.98583 0.914 0.0
H410 H 0.37133 0.99173 0.80877 0.0
C411 C 0.38956 0.05727 0.05222 0.0
C412 C 0.49153 0.35132 0.11047 0.0
C413 C 0.5183 0.32005 0.06401 0.0
H414 H 0.46844 0.41419 0.09086 0.0
C415 C 0.53917 0.32806 0.95031 0.0
H416 H 0.47585 0.34686 0.19916 0.0
C417 C 0.53586 0.36692 0.88976 0.0
C418 C 0.5112 0.39926 0.93991 0.0
H419 H 0.56061 0.30508 0.91264 0.0
H420 H 0.55406 0.3721 0.80592 0.0
C421 C 0.48781 0.39027 0.04887 0.0
C422 C 0.21433 0.53222 0.96037 0.0
C423 C 0.22013 0.51477 0.07986 0.0
H424 H 0.17247 0.5449 0.8093 0.0
C425 C 0.18632 0.49295 0.13343 0.0
H426 H 0.2392 0.55027 0.91758 0.0
C427 C 0.1474 0.49039 0.07182 0.0
C428 C 0.14094 0.50999 0.95519 0.0
H429 H 0.18904 0.48037 0.22684 0.0
H430 H 0.12175 0.47482 0.11879 0.0
C431 C 0.17559 0.52977 0.89904 0.0
C432 C 1.00798 0.84668 0.45265 0.0
C433 C 0.03942 0.81803 0.48572 0.0
H434 H 0.97904 0.90627 0.48682 0.0
C435 C 0.06411 0.82791 0.59076 0.0
H436 H 0.98901 0.84092 0.37107 0.0
C437 C 0.05858 0.86557 0.65756 0.0
C438 C 0.0285 0.89527 0.62092 0.0
H439 H 0.08914 0.8071 0.6182 0.0
H440 H 0.07918 0.87213 0.73498 0.0
C441 C 1.00271 0.88462 0.51868 0.0
C442 C 0.71553 0.06162 0.59742 0.0
C443 C 0.72497 0.03774 0.49018 0.0
H444 H 0.67129 0.07645 0.74238 0.0
C445 C 0.69583 1.00722 0.45408 0.0
H446 H 0.73682 0.08595 0.62701 0.0
C447 C 0.65767 1.00223 0.51926 0.0
C448 C 0.64738 0.02741 0.62339 0.0
H449 H 0.70135 0.98894 0.37073 0.0
H450 H 0.63555 0.97939 0.48512 0.0
C451 C 0.67762 0.05639 0.6633 0.0
C452 C 0.47942 0.7147 0.58863 0.0
C453 C 0.50341 0.72439 0.48149 0.0
H454 H 0.46502 0.67047 0.73389 0.0
C455 C 0.53449 0.6957 0.44575 0.0
H456 H 0.45469 0.73565 0.61803 0.0
C457 C 0.53997 0.65771 0.51126 0.0
C458 C 0.51473 0.64717 0.61538 0.0
H459 H 0.5529 0.70141 0.36253 0.0
H460 H 0.56326 0.63592 0.47744 0.0
C461 C 0.48514 0.67699 0.65483 0.0
C462 C 0.85371 0.53849 0.41819 0.0
C463 C 0.82088 0.51378 0.46528 0.0
H464 H 0.91632 0.56125 0.44282 0.0
C465 C 0.82635 0.49537 0.58372 0.0
H466 H 0.85128 0.55207 0.32595 0.0
C467 C 0.86381 0.50036 0.65108 0.0
C468 C 0.89765 0.52327 0.60148 0.0
H469 H 0.80221 0.47528 0.62178 0.0
H470 H 0.86658 0.48504 0.74049 0.0
C471 C 0.89139 0.54323 0.48515 0.0
loop_
_geom_bond_atom_site_label_1
_geom_bond_atom_site_label_2
_geom_bond_distance
_geom_bond_site_symmetry_2
_ccdc_geom_bond_type
H0 C3 0.931 . S
H1 C6 0.928 . S
H2 C8 0.930 . S
C3 H0 0.931 . S
C3 C4 1.413 . S
C3 C5 1.360 . S
C4 C3 1.413 . S
C4 C8 1.429 . S
C5 C3 1.360 . S
C5 C6 1.372 . S
C6 H1 0.928 . S
C6 C5 1.372 . S
C6 C7 1.404 . S
C7 C6 1.404 . S
C7 C8 1.391 . S
C8 H2 0.930 . S
C8 C4 1.429 . S
C8 C7 1.391 . S
H9 C12 0.931 . S
H10 C15 0.928 . S
H11 C17 0.930 . S
C12 H9 0.931 . S
C12 C13 1.413 . S
C12 C14 1.360 . S
C13 C12 1.413 . S
C13 C17 1.429 1_655 S
C14 C12 1.360 . S
C14 C15 1.372 . S
C15 H10 0.928 . S
C15 C14 1.372 . S
C15 C16 1.404 . S
C16 C15 1.404 . S
C16 C17 1.390 1_655 S
C17 H11 0.930 . S
C17 C13 1.429 1_455 S
C17 C16 1.390 1_455 S
H18 C21 0.931 . S
H19 C24 0.928 . S
H20 C26 0.930 . S
C21 H18 0.931 . S
C21 C22 1.413 . S
C21 C23 1.360 . S
C22 C21 1.413 . S
C22 C26 1.429 1_565 S
C23 C21 1.360 . S
C23 C24 1.372 . S
C24 H19 0.928 . S
C24 C23 1.372 . S
C24 C25 1.404 . S
C25 C24 1.404 . S
C25 C26 1.390 1_565 S
C26 H20 0.930 . S
C26 C22 1.429 1_545 S
C26 C25 1.390 1_545 S
H27 C30 0.931 . S
H28 C33 0.928 . S
H29 C35 0.930 . S
C30 H27 0.931 . S
C30 C31 1.413 . S
C30 C32 1.360 . S
C31 C30 1.413 . S
C31 C35 1.429 . S
C32 C30 1.360 . S
C32 C33 1.372 . S
C33 H28 0.928 . S
C33 C32 1.372 . S
C33 C34 1.404 . S
C34 C33 1.404 . S
C34 C35 1.391 . S
C35 H29 0.930 . S
C35 C31 1.429 . S
C35 C34 1.391 . S
H36 C39 0.931 1_556 S
H37 C42 0.928 . S
H38 C44 0.930 . S
C39 H36 0.931 1_554 S
C39 C40 1.413 1_554 S
C39 C41 1.360 . S
C40 C39 1.413 1_556 S
C40 C44 1.429 . S
C41 C39 1.360 . S
C41 C42 1.372 . S
C42 H37 0.928 . S
C42 C41 1.372 . S
C42 C43 1.404 . S
C43 C42 1.404 . S
C43 C44 1.391 1_554 S
C44 H38 0.930 . S
C44 C40 1.429 . S
C44 C43 1.391 1_556 S
H45 C48 0.931 1_556 S
H46 C51 0.928 . S
H47 C53 0.930 . S
C48 H45 0.931 1_554 S
C48 C49 1.413 1_554 S
C48 C50 1.360 . S
C49 C48 1.413 1_556 S
C49 C53 1.429 1_655 S
C50 C48 1.360 . S
C50 C51 1.372 . S
C51 H46 0.928 . S
C51 C50 1.372 . S
C51 C52 1.404 . S
C52 C51 1.404 . S
C52 C53 1.391 1_654 S
C53 H47 0.930 . S
C53 C49 1.429 1_455 S
C53 C52 1.391 1_456 S
H54 C57 0.931 1_556 S
H55 C60 0.928 . S
H56 C62 0.930 . S
C57 H54 0.931 1_554 S
C57 C58 1.413 1_554 S
C57 C59 1.360 . S
C58 C57 1.413 1_556 S
C58 C62 1.429 1_565 S
C59 C57 1.360 . S
C59 C60 1.372 . S
C60 H55 0.928 . S
C60 C59 1.372 . S
C60 C61 1.404 . S
C61 C60 1.404 . S
C61 C62 1.391 1_564 S
C62 H56 0.930 . S
C62 C58 1.429 1_545 S
C62 C61 1.391 1_546 S
H63 C66 0.931 . S
H64 C69 0.928 . S
H65 C71 0.930 . S
C66 H63 0.931 . S
C66 C67 1.413 1_556 S
C66 C68 1.360 . S
C67 C66 1.413 1_554 S
C67 C71 1.429 . S
C68 C66 1.360 . S
C68 C69 1.372 . S
C69 H64 0.928 . S
C69 C68 1.372 . S
C69 C70 1.404 1_556 S
C70 C69 1.404 1_554 S
C70 C71 1.391 . S
C71 H65 0.930 . S
C71 C67 1.429 . S
C71 C70 1.391 . S
Tb72 C82 2.828 . S
Tb72 O83 2.347 1_455 S
Tb72 O86 2.366 . S
Tb72 O91 2.418 . S
Tb72 O92 2.384 1_565 S
Tb72 O95 2.479 . S
Tb72 O96 2.471 1_556 S
Eu73 O84 2.418 . S
Eu73 O85 2.384 1_545 S
Eu73 O88 2.479 . S
Eu73 O89 2.471 . S
Eu73 O90 2.347 1_655 S
Eu73 O93 2.366 . S
Eu73 C103 2.825 . S
C74 O90 1.259 1_565 S
C74 O91 1.265 . S
C75 O92 1.255 . S
C75 O93 1.265 1_455 S
C76 C78 1.380 . S
C76 C79 1.374 . S
C76 C82 1.504 1_554 S
C77 C78 1.384 . S
C77 C81 1.387 . S
C77 H104 0.930 . S
C78 C76 1.380 . S
C78 C77 1.384 . S
C78 H105 0.931 . S
C79 C76 1.374 . S
C79 C80 1.390 . S
C79 H106 0.930 . S
C80 C79 1.390 . S
C80 C81 1.391 . S
C80 H107 0.930 . S
C81 C77 1.387 . S
C81 C80 1.391 . S
C82 Tb72 2.828 . S
C82 C76 1.504 1_556 S
C82 O95 1.241 . S
C82 O96 1.246 1_556 S
O83 Tb72 2.347 1_655 S
O83 C87 1.259 1_565 S
O84 Eu73 2.418 . S
O84 C87 1.265 . S
O85 Eu73 2.384 1_565 S
O85 C94 1.255 . S
O86 Tb72 2.366 . S
O86 C94 1.265 1_455 S
C87 O83 1.259 1_545 S
C87 O84 1.265 . S
O88 Eu73 2.479 . S
O88 C103 1.238 . S
O89 Eu73 2.471 . S
O89 C103 1.247 . S
O90 Eu73 2.347 1_455 S
O90 C74 1.259 1_545 S
O91 Tb72 2.418 . S
O91 C74 1.265 . S
O92 Tb72 2.384 1_545 S
O92 C75 1.255 . S
O93 Eu73 2.366 . S
O93 C75 1.265 1_655 S
C94 O85 1.255 . S
C94 O86 1.265 1_655 S
O95 Tb72 2.479 . S
O95 C82 1.241 . S
O96 Tb72 2.471 1_554 S
O96 C82 1.246 1_554 S
C97 C100 1.380 . S
C97 C101 1.374 . S
C97 C103 1.507 . S
C98 C99 1.387 . S
C98 C102 1.391 . S
C99 C98 1.387 . S
C99 C100 1.384 . S
C99 H108 0.930 . S
C100 C97 1.380 . S
C100 C99 1.384 . S
C100 H109 0.931 . S
C101 C97 1.374 . S
C101 C102 1.390 . S
C101 H110 0.953 . S
C102 C98 1.391 . S
C102 C101 1.390 . S
C102 H111 0.930 . S
C103 Eu73 2.825 . S
C103 O88 1.238 . S
C103 O89 1.247 . S
C103 C97 1.507 . S
H104 C77 0.930 . S
H105 C78 0.931 . S
H106 C79 0.930 . S
H107 C80 0.930 . S
H108 C99 0.930 . S
H109 C100 0.931 . S
H110 C101 0.953 . S
H111 C102 0.930 . S
Tb112 C122 2.825 1_556 S
Tb112 O123 2.347 1_545 S
Tb112 O126 2.366 . S
Tb112 O131 2.418 . S
Tb112 O132 2.384 . S
Tb112 O135 2.479 . S
Tb112 O136 2.471 1_556 S
Eu113 O124 2.418 . S
Eu113 O125 2.384 . S
Eu113 O128 2.479 . S
Eu113 O129 2.471 . S
Eu113 O130 2.347 1_565 S
Eu113 O133 2.366 . S
Eu113 C143 2.825 . S
C114 O130 1.259 . S
C114 O131 1.265 . S
C115 O132 1.255 . S
C115 O133 1.265 1_545 S
C116 C118 1.380 . S
C116 C119 1.374 . S
C116 C122 1.507 . S
C117 C118 1.384 . S
C117 C121 1.387 . S
C117 H144 0.930 . S
C118 C116 1.380 . S
C118 C117 1.384 . S
C118 H145 0.931 . S
C119 C116 1.374 . S
C119 C120 1.390 . S
C119 H146 0.930 1_545 S
C120 C119 1.390 . S
C120 C121 1.391 . S
C120 H147 0.930 . S
C121 C117 1.387 . S
C121 C120 1.391 . S
C122 Tb112 2.825 1_554 S
C122 C116 1.507 . S
C122 O135 1.238 1_554 S
C122 O136 1.247 . S
O123 Tb112 2.347 1_565 S
O123 C127 1.259 . S
O124 Eu113 2.418 . S
O124 C127 1.265 . S
O125 Eu113 2.384 . S
O125 C134 1.255 . S
O126 Tb112 2.366 . S
O126 C134 1.265 1_545 S
C127 O123 1.259 . S
C127 O124 1.265 . S
O128 Eu113 2.479 . S
O128 C143 1.238 . S
O129 Eu113 2.471 . S
O129 C143 1.247 . S
O130 Eu113 2.347 1_545 S
O130 C114 1.259 . S
O131 Tb112 2.418 . S
O131 C114 1.265 . S
O132 Tb112 2.384 . S
O132 C115 1.255 . S
O133 Eu113 2.366 . S
O133 C115 1.265 1_565 S
C134 O125 1.255 . S
C134 O126 1.265 1_565 S
O135 Tb112 2.479 . S
O135 C122 1.238 1_556 S
O136 Tb112 2.471 1_554 S
O136 C122 1.247 . S
C137 C140 1.380 . S
C137 C141 1.374 . S
C137 C143 1.507 . S
C138 C139 1.387 . S
C138 C142 1.391 . S
C139 C138 1.387 . S
C139 C140 1.384 . S
C139 H148 0.930 . S
C140 C137 1.380 . S
C140 C139 1.384 . S
C140 H149 0.931 . S
C141 C137 1.374 . S
C141 C142 1.390 . S
C141 H150 0.930 1_565 S
C142 C138 1.391 . S
C142 C141 1.390 . S
C142 H151 0.930 . S
C143 Eu113 2.825 . S
C143 O128 1.238 . S
C143 O129 1.247 . S
C143 C137 1.507 . S
H144 C117 0.930 . S
H145 C118 0.931 . S
H146 C119 0.930 1_565 S
H147 C120 0.930 . S
H148 C139 0.930 . S
H149 C140 0.931 . S
H150 C141 0.930 1_545 S
H151 C142 0.930 . S
Tb152 C162 2.825 1_556 S
Tb152 O163 2.347 . S
Tb152 O166 2.366 . S
Tb152 O171 2.418 . S
Tb152 O172 2.384 . S
Tb152 O175 2.479 . S
Tb152 O176 2.471 1_556 S
Eu153 O164 2.418 . S
Eu153 O165 2.384 . S
Eu153 O168 2.479 . S
Eu153 O169 2.471 . S
Eu153 O170 2.347 . S
Eu153 O173 2.366 . S
Eu153 C183 2.825 . S
C154 O170 1.259 . S
C154 O171 1.265 . S
C155 O172 1.255 . S
C155 O173 1.265 . S
C156 C158 1.380 . S
C156 C159 1.374 . S
C156 C162 1.507 . S
C157 C158 1.384 . S
C157 C161 1.387 . S
C157 H184 0.930 . S
C158 C156 1.380 . S
C158 C157 1.384 . S
C158 H185 0.931 . S
C159 C156 1.374 . S
C159 C160 1.390 . S
C159 H186 0.930 . S
C160 C159 1.390 . S
C160 C161 1.391 . S
C160 H187 0.930 . S
C161 C157 1.387 . S
C161 C160 1.391 . S
C162 Tb152 2.825 1_554 S
C162 C156 1.507 . S
C162 O175 1.238 1_554 S
C162 O176 1.247 . S
O163 Tb152 2.347 . S
O163 C167 1.259 . S
O164 Eu153 2.418 . S
O164 C167 1.265 . S
O165 Eu153 2.384 . S
O165 C174 1.255 . S
O166 Tb152 2.366 . S
O166 C174 1.265 . S
C167 O163 1.259 . S
C167 O164 1.265 . S
O168 Eu153 2.479 . S
O168 C183 1.238 . S
O169 Eu153 2.471 . S
O169 C183 1.247 . S
O170 Eu153 2.347 . S
O170 C154 1.259 . S
O171 Tb152 2.418 . S
O171 C154 1.265 . S
O172 Tb152 2.384 . S
O172 C155 1.255 . S
O173 Eu153 2.366 . S
O173 C155 1.265 . S
C174 O165 1.255 . S
C174 O166 1.265 . S
O175 Tb152 2.479 . S
O175 C162 1.238 1_556 S
O176 Tb152 2.471 1_554 S
O176 C162 1.247 . S
C177 C180 1.380 . S
C177 C181 1.374 . S
C177 C183 1.507 . S
C178 C179 1.387 . S
C178 C182 1.391 . S
C179 C178 1.387 . S
C179 C180 1.384 . S
C179 H188 0.930 . S
C180 C177 1.380 . S
C180 C179 1.384 . S
C180 H189 0.931 . S
C181 C177 1.374 . S
C181 C182 1.390 . S
C181 H190 0.930 . S
C182 C178 1.391 . S
C182 C181 1.390 . S
C182 H191 0.930 . S
C183 Eu153 2.825 . S
C183 O168 1.238 . S
C183 O169 1.247 . S
C183 C177 1.507 . S
H184 C157 0.930 . S
H185 C158 0.931 . S
H186 C159 0.930 . S
H187 C160 0.930 . S
H188 C179 0.930 . S
H189 C180 0.931 . S
H190 C181 0.930 . S
H191 C182 0.930 . S
Tb192 C202 2.825 1_556 S
Tb192 O203 2.347 . S
Tb192 O206 2.366 . S
Tb192 O211 2.418 . S
Tb192 O212 2.384 1_655 S
Tb192 O215 2.479 . S
Tb192 O216 2.471 1_556 S
Eu193 O204 2.418 . S
Eu193 O205 2.384 1_455 S
Eu193 O208 2.479 . S
Eu193 O209 2.471 . S
Eu193 O210 2.347 . S
Eu193 O213 2.366 . S
Eu193 C223 2.825 . S
C194 O210 1.259 1_655 S
C194 O211 1.265 . S
C195 O212 1.255 . S
C195 O213 1.265 . S
C196 C198 1.380 . S
C196 C199 1.374 . S
C196 C202 1.507 . S
C197 C198 1.384 . S
C197 C201 1.387 . S
C197 H224 0.930 . S
C198 C196 1.380 . S
C198 C197 1.384 . S
C198 H225 0.931 . S
C199 C196 1.374 . S
C199 C200 1.390 . S
C199 H226 0.930 . S
C200 C199 1.390 . S
C200 C201 1.391 . S
C200 H227 0.930 . S
C201 C197 1.387 . S
C201 C200 1.391 . S
C202 Tb192 2.825 1_554 S
C202 C196 1.507 . S
C202 O215 1.238 1_554 S
C202 O216 1.247 . S
O203 Tb192 2.347 . S
O203 C207 1.259 1_655 S
O204 Eu193 2.418 . S
O204 C207 1.265 . S
O205 Eu193 2.384 1_655 S
O205 C214 1.255 . S
O206 Tb192 2.366 . S
O206 C214 1.265 . S
C207 O203 1.259 1_455 S
C207 O204 1.265 . S
O208 Eu193 2.479 . S
O208 C223 1.238 . S
O209 Eu193 2.471 . S
O209 C223 1.247 . S
O210 Eu193 2.347 . S
O210 C194 1.259 1_455 S
O211 Tb192 2.418 . S
O211 C194 1.265 . S
O212 Tb192 2.384 1_455 S
O212 C195 1.255 . S
O213 Eu193 2.366 . S
O213 C195 1.265 . S
C214 O205 1.255 . S
C214 O206 1.265 . S
O215 Tb192 2.479 . S
O215 C202 1.238 1_556 S
O216 Tb192 2.471 1_554 S
O216 C202 1.247 . S
C217 C220 1.380 . S
C217 C221 1.374 . S
C217 C223 1.507 . S
C218 C219 1.387 . S
C218 C222 1.391 . S
C219 C218 1.387 . S
C219 C220 1.384 . S
C219 H228 0.930 . S
C220 C217 1.380 . S
C220 C219 1.384 . S
C220 H229 0.931 . S
C221 C217 1.374 . S
C221 C222 1.390 . S
C221 H230 0.930 . S
C222 C218 1.391 . S
C222 C221 1.390 . S
C222 H231 0.930 . S
C223 Eu193 2.825 . S
C223 O208 1.238 . S
C223 O209 1.247 . S
C223 C217 1.507 . S
H224 C197 0.930 . S
H225 C198 0.931 . S
H226 C199 0.930 . S
H227 C200 0.930 . S
H228 C219 0.930 . S
H229 C220 0.931 . S
H230 C221 0.930 . S
H231 C222 0.930 . S
C232 C233 1.383 1_545 S
C232 H236 0.950 . S
C232 C241 1.390 . S
C233 C232 1.383 1_565 S
C233 C235 1.392 . S
H234 C241 0.950 . S
C235 C233 1.392 . S
C235 C237 1.390 . S
C235 H239 0.950 . S
H236 C232 0.950 . S
C237 C235 1.390 . S
C237 C238 1.411 . S
C237 H240 0.950 . S
C238 C237 1.411 . S
C238 C241 1.364 1_565 S
H239 C235 0.950 . S
H240 C237 0.950 . S
C241 C232 1.390 . S
C241 H234 0.950 . S
C241 C238 1.364 1_545 S
C242 C243 1.387 . S
C242 H246 0.950 . S
C242 C251 1.390 . S
C243 C242 1.387 . S
C243 C245 1.387 . S
H244 C251 0.950 . S
C245 C243 1.387 . S
C245 C247 1.390 . S
C245 H249 0.950 . S
H246 C242 0.950 . S
C247 C245 1.390 . S
C247 C248 1.387 . S
C247 H250 0.950 . S
C248 C247 1.387 . S
C248 C251 1.387 . S
H249 C245 0.950 . S
H250 C247 0.950 . S
C251 C242 1.390 . S
C251 H244 0.950 . S
C251 C248 1.387 . S
C252 C253 1.387 . S
C252 H256 0.950 . S
C252 C261 1.390 . S
C253 C252 1.387 . S
C253 C255 1.387 . S
H254 C261 0.950 . S
C255 C253 1.387 . S
C255 C257 1.390 . S
C255 H259 0.950 . S
H256 C252 0.950 . S
C257 C255 1.390 . S
C257 C258 1.387 . S
C257 H260 0.950 . S
C258 C257 1.387 . S
C258 C261 1.387 . S
H259 C255 0.950 . S
H260 C257 0.950 . S
C261 C252 1.390 . S
C261 H254 0.950 . S
C261 C258 1.387 . S
C262 C263 1.403 . S
C262 H266 0.950 . S
C262 C271 1.390 . S
C263 C262 1.403 . S
C263 C265 1.372 1_455 S
H264 C271 0.950 . S
C265 C263 1.372 1_655 S
C265 C267 1.390 . S
C265 H269 0.950 . S
H266 C262 0.950 . S
C267 C265 1.390 . S
C267 C268 1.387 1_655 S
C267 H270 0.950 . S
C268 C267 1.387 1_455 S
C268 C271 1.387 . S
H269 C265 0.950 . S
H270 C267 0.950 . S
C271 C262 1.390 . S
C271 H264 0.950 . S
C271 C268 1.387 . S
C272 C273 1.398 . S
C272 H276 0.950 . S
C272 C281 1.390 . S
C273 C272 1.398 . S
C273 C275 1.377 1_545 S
H274 C281 0.950 . S
C275 C273 1.377 1_565 S
C275 C277 1.390 . S
C275 H279 0.950 . S
H276 C272 0.950 . S
C277 C275 1.390 . S
C277 C278 1.387 1_565 S
C277 H280 0.950 . S
C278 C277 1.387 1_545 S
C278 C281 1.387 . S
H279 C275 0.950 . S
H280 C277 0.950 . S
C281 C272 1.390 . S
C281 H274 0.950 . S
C281 C278 1.387 . S
C282 C283 1.387 . S
C282 H286 0.950 . S
C282 C291 1.390 . S
C283 C282 1.387 . S
C283 C285 1.387 . S
H284 C291 0.950 . S
C285 C283 1.387 . S
C285 C287 1.390 . S
C285 H289 0.950 . S
H286 C282 0.950 . S
C287 C285 1.390 . S
C287 C288 1.387 . S
C287 H290 0.950 . S
C288 C287 1.387 . S
C288 C291 1.387 . S
H289 C285 0.950 . S
H290 C287 0.950 . S
C291 C282 1.390 . S
C291 H284 0.950 . S
C291 C288 1.387 . S
C292 C293 1.387 . S
C292 H296 0.950 . S
C292 C301 1.390 . S
C293 C292 1.387 . S
C293 C295 1.387 . S
H294 C301 0.950 . S
C295 C293 1.387 . S
C295 C297 1.390 . S
C295 H299 0.950 . S
H296 C292 0.950 . S
C297 C295 1.390 . S
C297 C298 1.387 . S
C297 H300 0.950 . S
C298 C297 1.387 . S
C298 C301 1.387 . S
H299 C295 0.950 . S
H300 C297 0.950 . S
C301 C292 1.390 . S
C301 H294 0.950 . S
C301 C298 1.387 . S
C302 C303 1.373 1_455 S
C302 H306 0.950 . S
C302 C311 1.390 . S
C303 C302 1.373 1_655 S
C303 C305 1.402 . S
H304 C311 0.950 . S
C305 C303 1.402 . S
C305 C307 1.390 . S
C305 H309 0.950 . S
H306 C302 0.950 . S
C307 C305 1.390 . S
C307 C308 1.387 . S
C307 H310 0.950 . S
C308 C307 1.387 . S
C308 C311 1.387 1_655 S
H309 C305 0.950 . S
H310 C307 0.950 . S
C311 C302 1.390 . S
C311 H304 0.950 . S
C311 C308 1.387 1_455 S
C312 C313 1.387 . S
C312 H316 0.950 . S
C312 C321 1.390 . S
C313 C312 1.387 . S
C313 C315 1.387 1_655 S
H314 C321 0.950 . S
C315 C313 1.387 1_455 S
C315 C317 1.387 1_455 S
C315 H319 0.954 . S
H316 C312 0.950 . S
C317 C315 1.387 1_655 S
C317 C318 1.387 . S
C317 H320 0.950 . S
C318 C317 1.387 . S
C318 C321 1.387 . S
H319 C315 0.954 . S
H320 C317 0.950 . S
C321 C312 1.390 . S
C321 H314 0.950 . S
C321 C318 1.387 . S
C322 C323 1.387 . S
C322 H326 0.950 . S
C322 C331 1.390 . S
C323 C322 1.387 . S
C323 C325 1.387 1_565 S
H324 C331 0.950 . S
C325 C323 1.387 1_545 S
C325 C327 1.390 1_545 S
C325 H329 0.950 . S
H326 C322 0.950 . S
C327 C325 1.390 1_565 S
C327 C328 1.387 . S
C327 H330 0.950 . S
C328 C327 1.387 . S
C328 C331 1.387 . S
H329 C325 0.950 . S
H330 C327 0.950 . S
C331 C322 1.390 . S
C331 H324 0.950 . S
C331 C328 1.387 . S
C332 C333 1.387 . S
C332 H336 0.950 . S
C332 C341 1.390 . S
C333 C332 1.387 . S
C333 C335 1.387 . S
H334 C341 0.950 . S
C335 C333 1.387 . S
C335 C337 1.390 . S
C335 H339 0.950 . S
H336 C332 0.950 . S
C337 C335 1.390 . S
C337 C338 1.387 . S
C337 H340 0.950 . S
C338 C337 1.387 . S
C338 C341 1.387 . S
H339 C335 0.950 . S
H340 C337 0.950 . S
C341 C332 1.390 . S
C341 H334 0.950 . S
C341 C338 1.387 . S
C342 C343 1.387 . S
C342 H346 0.950 . S
C342 C351 1.390 . S
C343 C342 1.387 . S
C343 C345 1.387 . S
H344 C351 0.950 . S
C345 C343 1.387 . S
C345 C347 1.390 . S
C345 H349 0.950 . S
H346 C342 0.950 . S
C347 C345 1.390 . S
C347 C348 1.387 . S
C347 H350 0.950 . S
C348 C347 1.387 . S
C348 C351 1.387 . S
H349 C345 0.950 . S
H350 C347 0.950 . S
C351 C342 1.390 . S
C351 H344 0.950 . S
C351 C348 1.387 . S
C352 C353 1.387 1_655 S
C352 H356 0.950 . S
C352 C361 1.390 1_655 S
C353 C352 1.387 1_455 S
C353 C355 1.387 . S
H354 C361 0.950 . S
C355 C353 1.387 . S
C355 C357 1.390 . S
C355 H359 0.950 . S
H356 C352 0.950 . S
C357 C355 1.390 . S
C357 C358 1.387 . S
C357 H360 0.950 . S
C358 C357 1.387 . S
C358 C361 1.387 . S
H359 C355 0.950 . S
H360 C357 0.950 . S
C361 C352 1.390 1_455 S
C361 H354 0.950 . S
C361 C358 1.387 . S
C362 C363 1.387 1_565 S
C362 H366 0.950 . S
C362 C371 1.390 1_565 S
C363 C362 1.387 1_545 S
C363 C365 1.387 . S
H364 C371 0.950 . S
C365 C363 1.387 . S
C365 C367 1.390 . S
C365 H369 0.950 . S
H366 C362 0.950 . S
C367 C365 1.390 . S
C367 C368 1.387 . S
C367 H370 0.950 . S
C368 C367 1.387 . S
C368 C371 1.387 . S
H369 C365 0.950 . S
H370 C367 0.950 . S
C371 C362 1.390 1_545 S
C371 H364 0.950 . S
C371 C368 1.387 . S
C372 C373 1.387 . S
C372 H376 0.950 . S
C372 C381 1.390 . S
C373 C372 1.387 . S
C373 C375 1.387 . S
H374 C381 0.950 . S
C375 C373 1.387 . S
C375 C377 1.390 . S
C375 H379 0.950 . S
H376 C372 0.950 . S
C377 C375 1.390 . S
C377 C378 1.387 . S
C377 H380 0.950 . S
C378 C377 1.387 . S
C378 C381 1.387 . S
H379 C375 0.950 . S
H380 C377 0.950 . S
C381 C372 1.390 . S
C381 H374 0.950 . S
C381 C378 1.387 . S
C382 C383 1.387 . S
C382 H386 0.950 . S
C382 C391 1.390 . S
C383 C382 1.387 . S
C383 C385 1.387 . S
H384 C391 0.950 . S
C385 C383 1.387 . S
C385 C387 1.390 . S
C385 H389 0.950 . S
H386 C382 0.950 . S
C387 C385 1.390 . S
C387 C388 1.387 . S
C387 H390 0.950 . S
C388 C387 1.387 . S
C388 C391 1.387 . S
H389 C385 0.950 . S
H390 C387 0.950 . S
C391 C382 1.390 . S
C391 H384 0.950 . S
C391 C388 1.387 . S
C392 C393 1.387 . S
C392 H396 0.950 . S
C392 C401 1.390 . S
C393 C392 1.387 . S
C393 C395 1.387 . S
H394 C401 0.950 . S
C395 C393 1.387 . S
C395 C397 1.390 . S
C395 H399 0.950 1_556 S
H396 C392 0.950 . S
C397 C395 1.390 . S
C397 C398 1.387 . S
C397 H400 0.950 1_556 S
C398 C397 1.387 . S
C398 C401 1.387 . S
H399 C395 0.950 1_554 S
H400 C397 0.950 1_554 S
C401 C392 1.390 . S
C401 H394 0.950 . S
C401 C398 1.387 . S
C402 C403 1.387 . S
C402 H406 0.950 1_556 S
C402 C411 1.390 . S
C403 C402 1.387 . S
C403 C405 1.387 1_545 S
H404 C411 0.950 . S
C405 C403 1.387 1_565 S
C405 C407 1.390 . S
C405 H409 0.950 . S
H406 C402 0.950 1_554 S
C407 C405 1.390 . S
C407 C408 1.387 1_565 S
C407 H410 0.950 . S
C408 C407 1.387 1_545 S
C408 C411 1.387 . S
H409 C405 0.950 . S
H410 C407 0.950 . S
C411 C402 1.390 . S
C411 H404 0.950 . S
C411 C408 1.387 . S
C412 C413 1.387 . S
C412 H416 0.950 1_556 S
C412 C421 1.390 . S
C413 C412 1.387 . S
C413 C415 1.387 . S
H414 C421 0.950 1_554 S
C415 C413 1.387 . S
C415 C417 1.390 . S
C415 H419 0.950 . S
H416 C412 0.950 1_554 S
C417 C415 1.390 . S
C417 C418 1.387 . S
C417 H420 0.950 . S
C418 C417 1.387 . S
C418 C421 1.387 . S
H419 C415 0.950 . S
H420 C417 0.950 . S
C421 C412 1.390 . S
C421 H414 0.950 1_556 S
C421 C418 1.387 . S
C422 C423 1.387 . S
C422 H426 0.950 . S
C422 C431 1.390 . S
C423 C422 1.387 . S
C423 C425 1.387 . S
H424 C431 0.950 . S
C425 C423 1.387 . S
C425 C427 1.390 . S
C425 H429 0.950 1_556 S
H426 C422 0.950 . S
C427 C425 1.390 . S
C427 C428 1.387 . S
C427 H430 0.950 1_556 S
C428 C427 1.387 . S
C428 C431 1.387 . S
H429 C425 0.950 1_554 S
H430 C427 0.950 1_554 S
C431 C422 1.390 . S
C431 H424 0.950 . S
C431 C428 1.387 . S
C432 C433 1.387 . S
C432 H436 0.950 . S
C432 C441 1.390 . S
C433 C432 1.387 . S
C433 C435 1.387 1_655 S
H434 C441 0.950 . S
C435 C433 1.387 1_455 S
C435 C437 1.390 1_455 S
C435 H439 0.950 . S
H436 C432 0.950 . S
C437 C435 1.390 1_655 S
C437 C438 1.387 . S
C437 H440 0.950 1_655 S
C438 C437 1.387 . S
C438 C441 1.387 . S
H439 C435 0.950 . S
H440 C437 0.950 1_455 S
C441 C432 1.390 . S
C441 H434 0.950 . S
C441 C438 1.387 . S
C442 C443 1.390 . S
C442 H446 0.946 1_565 S
C442 C451 1.392 . S
C443 C442 1.390 . S
C443 C445 1.387 . S
H444 C451 0.954 . S
C445 C443 1.387 . S
C445 C447 1.390 . S
C445 H449 0.950 . S
H446 C442 0.946 1_545 S
C447 C445 1.390 . S
C447 C448 1.387 . S
C447 H450 0.950 . S
C448 C447 1.387 . S
C448 C451 1.387 . S
H449 C445 0.950 . S
H450 C447 0.950 . S
C451 C442 1.392 . S
C451 H444 0.954 . S
C451 C448 1.387 . S
C452 C453 1.387 . S
C452 H456 0.950 . S
C452 C461 1.390 . S
C453 C452 1.387 . S
C453 C455 1.387 . S
H454 C461 0.950 . S
C455 C453 1.387 . S
C455 C457 1.390 . S
C455 H459 0.950 . S
H456 C452 0.950 . S
C457 C455 1.390 . S
C457 C458 1.387 . S
C457 H460 0.950 . S
C458 C457 1.387 . S
C458 C461 1.387 . S
H459 C455 0.950 . S
H460 C457 0.950 . S
C461 C452 1.390 . S
C461 H454 0.950 . S
C461 C458 1.387 . S
C462 C463 1.387 . S
C462 H466 0.950 . S
C462 C471 1.390 . S
C463 C462 1.387 . S
C463 C465 1.387 . S
H464 C471 0.950 . S
C465 C463 1.387 . S
C465 C467 1.390 . S
C465 H469 0.950 . S
H466 C462 0.950 . S
C467 C465 1.390 . S
C467 C468 1.387 . S
C467 H470 0.950 . S
C468 C467 1.387 . S
C468 C471 1.387 . S
H469 C465 0.950 . S
H470 C467 0.950 . S
C471 C462 1.390 . S
C471 H464 0.950 . S
C471 C468 1.387 . S
C233 C61 1.989 . S
C238 C74 2.258 . S
C248 C114 2.282 . S
C243 C70 2.033 . S
C258 C154 2.292 . S
C253 C43 2.036 . S
C268 C194 2.273 1_455 S
C263 C52 2.009 1_455 S
C278 C87 2.258 1_554 S
C273 C25 1.991 1_545 S
C283 C34 2.037 . S
C288 C127 2.283 1_554 S
C293 C7 2.033 . S
C298 C167 2.293 1_554 S
C303 C16 2.009 . S
C308 C207 2.274 1_654 S
C318 C98 0.857 . S
C313 C50 0.873 . S
C328 C138 0.840 . S
C323 C59 0.851 . S
C338 C178 0.816 . S
C333 C67 0.829 . S
C343 C41 0.852 . S
C348 C218 0.834 . S
C353 C14 0.876 1_455 S
C358 C81 0.859 . S
C368 C121 0.836 . S
C363 C23 0.850 1_545 S
C378 C161 0.822 . S
C373 C31 0.831 . S
C383 C5 0.849 . S
C388 C201 0.832 . S
C393 C49 2.288 1_455 S
C398 C75 2.620 . S
C403 C58 2.233 1_545 S
C408 C115 2.565 . S
C418 C155 2.551 . S
C413 C68 2.214 . S
C428 C195 2.605 . S
C423 C40 2.268 . S
C433 C13 2.287 . S
C438 C94 2.626 . S
C448 C134 2.565 . S
C443 C22 2.231 . S
C458 C174 2.551 . S
C453 C32 2.221 . S
C463 C4 2.268 . S
C468 C214 2.608 . S
