# Generated by pormake.
# Topology rtl, (3,6)-cn, num edge types: 1
# Building blocks:
#     Node 0, Type 0, BuildingBlock: ESEHIV_clean_linker_0, # of connection points: 3
#     Node 1, Type 0, BuildingBlock: ESEHIV_clean_linker_0, # of connection points: 3
#     Node 2, Type 0, BuildingBlock: ESEHIV_clean_linker_0, # of connection points: 3
#     Node 3, Type 0, BuildingBlock: ESEHIV_clean_linker_0, # of connection points: 3
#     Node 4, Type 1, BuildingBlock: FUNLAD_clean_sbu_0, # of connection points: 6
#     Node 5, Type 1, BuildingBlock: FUNLAD_clean_sbu_0, # of connection points: 6
#     Edge 6, Type (0, 1), BuildingBlock: EZIPEK_clean_linker_0, # of connection points: 2
#     Edge 7, Type (0, 1), BuildingBlock: EZIPEK_clean_linker_0, # of connection points: 2
#     Edge 8, Type (0, 1), BuildingBlock: EZIPEK_clean_linker_0, # of connection points: 2
#     Edge 9, Type (0, 1), BuildingBlock: EZIPEK_clean_linker_0, # of connection points: 2
#     Edge 10, Type (0, 1), BuildingBlock: EZIPEK_clean_linker_0, # of connection points: 2
#     Edge 11, Type (0, 1), BuildingBlock: EZIPEK_clean_linker_0, # of connection points: 2
#     Edge 12, Type (0, 1), BuildingBlock: EZIPEK_clean_linker_0, # of connection points: 2
#     Edge 13, Type (0, 1), BuildingBlock: EZIPEK_clean_linker_0, # of connection points: 2
#     Edge 14, Type (0, 1), BuildingBlock: EZIPEK_clean_linker_0, # of connection points: 2
#     Edge 15, Type (0, 1), BuildingBlock: EZIPEK_clean_linker_0, # of connection points: 2
#     Edge 16, Type (0, 1), BuildingBlock: EZIPEK_clean_linker_0, # of connection points: 2
#     Edge 17, Type (0, 1), BuildingBlock: EZIPEK_clean_linker_0, # of connection points: 2
# Relax obj value: 0.021
# Max RMSD: 0.128
# Mean RMSD: 0.102
data_MOF--net-rtl--node1-FUNLAD_clean_sbu_0--node2-ESEHIV_clean_linker_0--edge1-EZIPEK_clean_linker_0
_symmetry_space_group_name_H-M    P1
_symmetry_Int_Tables_number       1
_symmetry_cell_setting            triclinic
loop_
_symmetry_equiv_pos_as_xyz
'x, y, z'
_cell_length_a     29.621809
_cell_length_b     23.256869
_cell_length_c     15.395833
_cell_angle_alpha  89.67501
_cell_angle_beta   91.083992
_cell_angle_gamma 89.804363
loop_
_atom_site_label
_atom_site_type_symbol
_atom_site_fract_x
_atom_site_fract_y
_atom_site_fract_z
_atom_type_partial_charge
H0 H 0.05134 0.84346 0.01728 0.0
H1 H 0.15523 0.75314 0.15627 0.0
H2 H 0.1529 0.75018 0.87915 0.0
C3 C 0.07857 0.81252 0.01508 0.0
C4 C 0.0933 0.78995 0.93519 0.0
C5 C 0.10061 0.79946 0.09399 0.0
C6 C 0.13824 0.76331 0.09506 0.0
C7 C 0.15677 0.74534 0.01672 0.0
C8 C 0.13522 0.76045 0.93754 0.0
H9 H 0.56158 0.64314 0.52112 0.0
H10 H 0.65521 0.73858 0.36774 0.0
H11 H 0.6576 0.75516 0.64634 0.0
C12 C 0.58842 0.67461 0.51704 0.0
C13 C 0.60679 0.69852 0.59315 0.0
C14 C 0.60574 0.68902 0.43589 0.0
C15 C 0.64108 0.72854 0.43048 0.0
C16 C 0.66054 0.7517 0.50633 0.0
C17 C 0.64255 0.73766 0.58748 0.0
H18 H 0.95498 0.15419 0.00204 0.0
H19 H 0.86099 0.25282 0.15048 0.0
H20 H 0.85024 0.25053 0.87101 0.0
C21 C 0.9276 0.18522 0.00458 0.0
C22 C 0.90557 0.20232 0.92763 0.0
C23 C 0.91132 0.20253 0.08523 0.0
C24 C 0.87447 0.24058 0.08825 0.0
C25 C 0.85237 0.25843 0.01084 0.0
C26 C 0.86837 0.23939 0.93064 0.0
H27 H 0.44179 0.36248 0.48212 0.0
H28 H 0.34249 0.27582 0.63401 0.0
H29 H 0.34956 0.24412 0.35917 0.0
C30 C 0.41431 0.33193 0.4862 0.0
C31 C 0.39779 0.30515 0.41066 0.0
C32 C 0.39513 0.32051 0.56687 0.0
C33 C 0.35841 0.28304 0.57206 0.0
C34 C 0.3419 0.25531 0.49741 0.0
C35 C 0.36242 0.26528 0.41707 0.0
C36 C 0.03848 0.92674 0.39029 0.0
N37 N 0.09797 0.06106 0.53086 0.0
C38 C 0.13665 0.03158 0.5142 0.0
C39 C 0.17781 0.06034 0.51006 0.0
C40 C 0.17934 0.1195 0.52653 0.0
C41 C 0.13942 0.14835 0.54785 0.0
C42 C 0.09876 0.11837 0.54808 0.0
Zn43 Zn 0.03738 0.01961 0.52255 0.0
C44 C 0.97726 0.0725 0.38366 0.0
N45 N 0.91029 0.93523 0.49894 0.0
C46 C 0.90829 0.87861 0.52136 0.0
C47 C 0.87242 0.96491 0.47413 0.0
C48 C 0.83064 0.93747 0.47038 0.0
C49 C 0.82759 0.87977 0.49622 0.0
C50 C 0.86697 0.85031 0.52236 0.0
Zn51 Zn 0.97097 0.97647 0.50715 0.0
O52 O 0.06265 0.96561 0.425 0.0
C53 C 0.03168 0.92254 0.64435 0.0
O54 O -0.00184 0.91968 0.41473 0.0
H55 H 0.87436 0.01005 0.45779 0.0
H56 H 0.13559 0.98589 0.50203 0.0
H57 H 0.93866 0.85522 0.5392 0.0
O58 O 0.05957 0.96018 0.6193 0.0
O59 O 0.99231 0.92103 0.61033 0.0
H60 H 0.06773 0.14124 0.56003 0.0
O61 O 0.9434 0.03408 0.59589 0.0
O62 O 0.00972 0.07217 0.62208 0.0
O63 O 0.95165 0.0319 0.40685 0.0
O64 O 0.01522 0.07906 0.42242 0.0
C65 C 0.96781 0.06908 0.63833 0.0
H66 H 0.20805 0.03687 0.49338 0.0
H67 H 0.13953 0.19409 0.56083 0.0
H68 H 0.80085 0.96128 0.44936 0.0
H69 H 0.86578 0.80558 0.54222 0.0
C70 C 0.47033 0.43755 0.86594 0.0
N71 N 0.59779 0.43522 0.99021 0.0
C72 C 0.60069 0.37869 0.96852 0.0
C73 C 0.64253 0.35075 0.96959 0.0
C74 C 0.68142 0.38085 -0.00415 0.0
C75 C 0.67753 0.43906 0.01749 0.0
C76 C 0.63535 0.4658 0.01261 0.0
Zn77 Zn 0.53615 0.4752 0.99561 0.0
C78 C 0.53402 0.58178 0.88745 0.0
N79 N 0.41083 0.56637 0.01671 0.0
C80 C 0.37295 0.53604 0.03562 0.0
C81 C 0.40858 0.6239 -0.00011 0.0
C82 C 0.36716 0.65252 -0.0013 0.0
C83 C 0.32781 0.6224 0.01913 0.0
C84 C 0.33107 0.5636 0.03915 0.0
Zn85 Zn 0.47217 0.52491 0.01037 0.0
O86 O 0.51088 0.42771 0.89 0.0
C87 C 0.4755 0.41739 0.11835 0.0
O88 O 0.44705 0.47501 0.9052 0.0
H89 H 0.43881 0.64801 0.98693 0.0
H90 H 0.57049 0.35497 0.95155 0.0
H91 H 0.37492 0.49033 0.04762 0.0
O92 O 0.51315 0.41079 0.08171 0.0
O93 O 0.45164 0.46154 0.09993 0.0
H94 H 0.63268 0.5109 0.02814 0.0
O95 O 0.49663 0.57369 0.11358 0.0
O96 O 0.56 0.52521 0.10288 0.0
O97 O 0.49597 0.58771 0.92254 0.0
O98 O 0.55809 0.53822 0.90757 0.0
C99 C 0.53671 0.5637 0.13973 0.0
H100 H 0.64443 0.30572 0.95236 0.0
H101 H 0.70688 0.46354 0.03789 0.0
H102 H 0.36589 0.698 0.98322 0.0
H103 H 0.30136 0.53909 0.05551 0.0
C104 C 0.26061 0.23633 0.45956 0.0
C105 C 0.30101 0.21884 0.50298 0.0
C106 C 0.26069 0.13854 0.56919 0.0
C107 C 0.22204 0.15208 0.51686 0.0
N108 N 0.19033 0.20495 0.39433 0.0
N109 N 0.3419 0.14661 0.58602 0.0
C110 C 0.22356 0.19822 0.45635 0.0
C111 C 0.30184 0.16778 0.55384 0.0
N112 N 0.25652 0.29052 0.4257 0.0
N113 N 0.25773 0.09988 0.63599 0.0
H114 H 0.3728 0.16645 0.57482 0.0
H115 H 0.34484 0.10664 0.61654 0.0
H116 H 0.22779 0.07911 0.65155 0.0
H117 H 0.28382 0.09279 0.68117 0.0
H118 H 0.22626 0.30668 0.39975 0.0
H119 H 0.28156 0.3215 0.43365 0.0
H120 H 0.19227 0.23517 0.34428 0.0
H121 H 0.16347 0.17637 0.38714 0.0
C122 C 0.20375 0.65923 0.97581 0.0
C123 C 0.20048 0.7134 0.01735 0.0
C124 C 0.27807 0.70233 0.07201 0.0
C125 C 0.28347 0.65276 0.01985 0.0
N126 N 0.25348 0.5925 0.90497 0.0
N127 N 0.23943 0.79321 0.08522 0.0
C128 C 0.24688 0.63347 0.96674 0.0
C129 C 0.23907 0.73701 0.05983 0.0
N130 N 0.16576 0.63133 0.94755 0.0
N131 N 0.30929 0.71544 0.13523 0.0
H132 H 0.21261 0.82138 0.07264 0.0
H133 H 0.26835 0.81334 0.10966 0.0
H134 H 0.33725 0.68945 0.1495 0.0
H135 H 0.30456 0.74848 0.17967 0.0
H136 H 0.16636 0.5894 0.924 0.0
H137 H 0.13329 0.64749 0.95625 0.0
H138 H 0.22859 0.58108 0.85958 0.0
H139 H 0.28502 0.57456 0.89282 0.0
C140 C 0.74123 0.76227 0.46172 0.0
C141 C 0.70255 0.78609 0.50129 0.0
C142 C 0.74694 0.86998 0.54457 0.0
C143 C 0.78355 0.84944 0.49495 0.0
N144 N 0.80973 0.78347 0.38588 0.0
N145 N 0.66599 0.86921 0.56236 0.0
C146 C 0.77889 0.79789 0.44699 0.0
C147 C 0.70453 0.84208 0.53723 0.0
N148 N 0.74319 0.70506 0.44222 0.0
N149 N 0.75298 0.91406 0.60187 0.0
H150 H 0.63407 0.85084 0.55526 0.0
H151 H 0.66537 0.91208 0.58166 0.0
H152 H 0.78405 0.93389 0.61279 0.0
H153 H 0.72824 0.92671 0.64514 0.0
H154 H 0.77244 0.68527 0.42026 0.0
H155 H 0.71766 0.67615 0.45745 0.0
H156 H 0.8054 0.74859 0.34434 0.0
H157 H 0.83681 0.80989 0.37013 0.0
C158 C 0.80617 0.34527 0.9679 0.0
C159 C 0.80949 0.2919 0.01272 0.0
C160 C 0.73129 0.30267 0.05866 0.0
C161 C 0.72594 0.35108 0.00282 0.0
N162 N 0.75672 0.41149 0.89028 0.0
N163 N 0.7711 0.21324 0.08346 0.0
C164 C 0.763 0.37067 0.95359 0.0
C165 C 0.77096 0.2687 0.0536 0.0
N166 N 0.84428 0.37226 0.94044 0.0
N167 N 0.69921 0.28994 0.11835 0.0
H168 H 0.79846 0.18541 0.07695 0.0
H169 H 0.74222 0.19301 0.10609 0.0
H170 H 0.67042 0.3151 0.12668 0.0
H171 H 0.70372 0.25813 0.16574 0.0
H172 H 0.84401 0.41377 0.91458 0.0
H173 H 0.87662 0.35558 0.95174 0.0
H174 H 0.78183 0.42308 0.84709 0.0
H175 H 0.72525 0.42945 0.8749 0.0
C176 C 0.09563 0.89025 0.17892 0.0
C177 C 0.08751 0.83035 0.17375 0.0
C178 C 0.05369 0.83214 0.31771 0.0
C179 C 0.05614 0.89314 0.31692 0.0
N180 N 0.07097 0.98089 0.23697 0.0
N181 N 0.054 0.74462 0.23275 0.0
C182 C 0.07499 0.92248 0.24506 0.0
C183 C 0.06527 0.80123 0.24177 0.0
N184 N 0.12381 0.91629 0.1215 0.0
N185 N 0.042 0.80367 0.39183 0.0
H186 H 0.0623 0.72058 0.17829 0.0
H187 H 0.03345 0.72284 0.27602 0.0
H188 H 0.03452 0.82476 0.44945 0.0
H189 H 0.04395 0.75915 0.39872 0.0
H190 H 0.13452 0.95871 0.12805 0.0
H191 H 0.14018 0.894 0.07254 0.0
H192 H 0.07981 0.00327 0.18102 0.0
H193 H 0.05441 0.00658 0.2816 0.0
C194 C 0.61739 0.65107 0.74016 0.0
C195 C 0.58914 0.67975 0.67836 0.0
C196 C 0.52248 0.65169 0.7597 0.0
C197 C 0.55112 0.62427 0.82322 0.0
N198 N 0.62556 0.62215 0.89037 0.0
N199 N 0.51722 0.72463 0.64694 0.0
C200 C 0.59855 0.63206 0.81892 0.0
C201 C 0.54245 0.68596 0.69431 0.0
N202 N 0.66131 0.63842 0.7223 0.0
N203 N 0.47688 0.64282 0.75689 0.0
H204 H 0.5312 0.75114 0.59964 0.0
H205 H 0.48387 0.73471 0.66129 0.0
H206 H 0.45926 0.61858 0.80159 0.0
H207 H 0.45645 0.65628 0.70474 0.0
H208 H 0.68148 0.6127 0.76304 0.0
H209 H 0.67621 0.64827 0.66333 0.0
H210 H 0.66004 0.63108 0.89153 0.0
H211 H 0.61245 0.61227 0.95111 0.0
C212 C 0.92056 0.11146 0.17005 0.0
C213 C 0.9276 0.17158 0.16458 0.0
C214 C 0.96612 0.16888 0.307 0.0
C215 C 0.96374 0.10774 0.3066 0.0
N216 N 0.95079 0.02138 0.22267 0.0
N217 N 0.96338 0.2568 0.22115 0.0
C218 C 0.94455 0.07916 0.23362 0.0
C219 C 0.95228 0.20023 0.23113 0.0
N220 N 0.88986 0.08519 0.11618 0.0
N221 N 0.9795 0.19724 0.38044 0.0
H222 H 0.95348 0.28098 0.16673 0.0
H223 H 0.98537 0.27827 0.26333 0.0
H224 H 0.98911 0.17619 0.43767 0.0
H225 H 0.97726 0.24172 0.38691 0.0
H226 H 0.88079 0.04217 0.1232 0.0
H227 H 0.86974 0.10779 0.07132 0.0
H228 H 0.94077 -4e-05 0.16624 0.0
H229 H 0.97071 0.99623 0.26463 0.0
C230 C 0.43563 0.31775 0.71185 0.0
C231 C 0.41281 0.34981 0.64561 0.0
C232 C 0.43197 0.43932 0.71974 0.0
C233 C 0.45058 0.40711 0.79039 0.0
N234 N 0.46186 0.3153 0.86176 0.0
N235 N 0.3805 0.43988 0.59598 0.0
C236 C 0.45013 0.34612 0.78885 0.0
C237 C 0.40827 0.41029 0.65246 0.0
N238 N 0.44493 0.26075 0.70003 0.0
N239 N 0.43894 0.49728 0.71441 0.0
H240 H 0.36184 0.41991 0.54661 0.0
H241 H 0.37256 0.48322 0.60353 0.0
H242 H 0.45817 0.51975 0.76018 0.0
H243 H 0.42992 0.52186 0.65998 0.0
H244 H 0.46563 0.23688 0.74225 0.0
H245 H 0.43537 0.23849 0.64406 0.0
H246 H 0.45773 0.27095 0.86678 0.0
H247 H 0.47158 0.33452 0.92021 0.0
C248 C 0.56611 0.68745 0.29002 0.0
C249 C 0.58985 0.65789 0.35755 0.0
C250 C 0.57571 0.56626 0.2854 0.0
C251 C 0.55589 0.5962 0.21372 0.0
N252 N 0.54185 0.68642 0.13908 0.0
N253 N 0.6274 0.57127 0.40831 0.0
C254 C 0.5538 0.65722 0.21339 0.0
C255 C 0.59783 0.59789 0.35178 0.0
N256 N 0.55404 0.74376 0.30007 0.0
N257 N 0.57135 0.50796 0.29281 0.0
H258 H 0.64534 0.59325 0.45663 0.0
H259 H 0.6376 0.52864 0.40135 0.0
H260 H 0.55321 0.48336 0.24802 0.0
H261 H 0.58142 0.48499 0.34822 0.0
H262 H 0.53261 0.76554 0.2566 0.0
H263 H 0.56214 0.76725 0.3557 0.0
H264 H 0.54398 0.73097 0.13323 0.0
H265 H 0.53437 0.66596 0.08047 0.0
C266 C 0.94964 0.19525 0.79042 0.0
C267 C 0.91671 0.17258 0.84617 0.0
C268 C 0.91553 0.08245 0.76535 0.0
C269 C 0.94756 0.10569 0.70662 0.0
N270 N 0.9831 0.19081 0.64871 0.0
N271 N 0.85919 0.10198 0.87315 0.0
C272 C 0.96123 0.16409 0.71492 0.0
C273 C 0.89661 0.11865 0.82892 0.0
N274 N 0.97029 0.24609 0.81015 0.0
N275 N 0.90484 0.02526 0.7649 0.0
H276 H 0.84452 0.127 0.92106 0.0
H277 H 0.84001 0.06613 0.85629 0.0
H278 H 0.91687 0.99563 0.72077 0.0
H279 H 0.88675 0.00555 0.81415 0.0
H280 H -0.00169 0.26137 0.77736 0.0
H281 H 0.9612 0.27114 0.86311 0.0
H282 H 0.99037 0.2346 0.64819 0.0
H283 H 0.9891 0.17085 0.58968 0.0
C284 C 0.39024 0.34666 0.25849 0.0
C285 C 0.41737 0.32123 0.32543 0.0
C286 C 0.48561 0.34976 0.24879 0.0
C287 C 0.45805 0.37448 0.18138 0.0
N288 N 0.38588 0.3721 0.1063 0.0
N289 N 0.4896 0.28078 0.3674 0.0
C290 C 0.4109 0.36454 0.18092 0.0
C291 C 0.4647 0.31669 0.31466 0.0
N292 N 0.3456 0.35811 0.27058 0.0
N293 N 0.53092 0.36023 0.25418 0.0
H294 H 0.47494 0.25513 0.41497 0.0
H295 H 0.52363 0.27194 0.35755 0.0
H296 H 0.5487 0.38341 0.20834 0.0
H297 H 0.55066 0.34905 0.30848 0.0
H298 H 0.32595 0.3816 0.22596 0.0
H299 H 0.32947 0.34999 0.32865 0.0
H300 H 0.35177 0.36141 0.10147 0.0
H301 H 0.4006 0.3823 0.04709 0.0
C302 C 0.02682 0.83563 0.85266 0.0
C303 C 0.06837 0.80563 0.85079 0.0
C304 C 0.07815 0.83898 0.70113 0.0
C305 C 0.04408 0.8811 0.71414 0.0
N306 N 0.98731 0.92134 0.80699 0.0
N307 N 0.10619 0.74588 0.74807 0.0
C308 C 0.01814 0.8793 0.79054 0.0
C309 C 0.08724 0.79757 0.76775 0.0
N310 N 0.99408 0.81851 0.90812 0.0
N311 N 0.10153 0.83803 0.62555 0.0
H312 H 0.10422 0.7109 0.79068 0.0
H313 H 0.11714 0.73529 0.68626 0.0
H314 H 0.09408 0.86531 0.57316 0.0
H315 H 0.12986 0.81212 0.61711 0.0
H316 H 0.96161 0.83603 0.90682 0.0
H317 H -0.0016 0.78222 0.94779 0.0
H318 H 0.9702 0.92377 0.86547 0.0
H319 H 0.98303 0.95705 0.76658 0.0
loop_
_geom_bond_atom_site_label_1
_geom_bond_atom_site_label_2
_geom_bond_distance
_geom_bond_site_symmetry_2
_ccdc_geom_bond_type
H0 C3 0.931 . S
H1 C6 0.928 . S
H2 C8 0.930 . S
C3 H0 0.931 . S
C3 C4 1.413 1_554 S
C3 C5 1.360 . S
C4 C3 1.413 1_556 S
C4 C8 1.429 . S
C5 C3 1.360 . S
C5 C6 1.372 . S
C6 H1 0.928 . S
C6 C5 1.372 . S
C6 C7 1.404 . S
C7 C6 1.404 . S
C7 C8 1.391 1_554 S
C8 H2 0.930 . S
C8 C4 1.429 . S
C8 C7 1.391 1_556 S
H9 C12 0.931 . S
H10 C15 0.928 . S
H11 C17 0.930 . S
C12 H9 0.931 . S
C12 C13 1.413 . S
C12 C14 1.360 . S
C13 C12 1.413 . S
C13 C17 1.429 . S
C14 C12 1.360 . S
C14 C15 1.372 . S
C15 H10 0.928 . S
C15 C14 1.372 . S
C15 C16 1.404 . S
C16 C15 1.404 . S
C16 C17 1.391 . S
C17 H11 0.930 . S
C17 C13 1.429 . S
C17 C16 1.391 . S
H18 C21 0.931 . S
H19 C24 0.928 . S
H20 C26 0.930 . S
C21 H18 0.931 . S
C21 C22 1.413 1_554 S
C21 C23 1.360 . S
C22 C21 1.413 1_556 S
C22 C26 1.429 . S
C23 C21 1.360 . S
C23 C24 1.372 . S
C24 H19 0.928 . S
C24 C23 1.372 . S
C24 C25 1.404 . S
C25 C24 1.404 . S
C25 C26 1.391 1_554 S
C26 H20 0.930 . S
C26 C22 1.429 . S
C26 C25 1.391 1_556 S
H27 C30 0.931 . S
H28 C33 0.928 . S
H29 C35 0.930 . S
C30 H27 0.931 . S
C30 C31 1.413 . S
C30 C32 1.360 . S
C31 C30 1.413 . S
C31 C35 1.429 . S
C32 C30 1.360 . S
C32 C33 1.372 . S
C33 H28 0.928 . S
C33 C32 1.372 . S
C33 C34 1.404 . S
C34 C33 1.404 . S
C34 C35 1.391 . S
C35 H29 0.930 . S
C35 C31 1.429 . S
C35 C34 1.391 . S
C36 O52 1.251 . S
C36 O54 1.254 1_455 S
N37 C38 1.333 . S
N37 C42 1.307 . S
N37 Zn43 2.020 . S
C38 N37 1.333 . S
C38 C39 1.379 . S
C38 H56 0.952 . S
C39 C38 1.379 . S
C39 C40 1.390 . S
C39 H66 0.949 . S
C40 C39 1.390 . S
C40 C41 1.357 . S
C41 C40 1.357 . S
C41 C42 1.370 . S
C41 H67 0.950 . S
C42 N37 1.307 . S
C42 C41 1.370 . S
C42 H60 0.948 . S
Zn43 N37 2.020 . S
Zn43 O52 2.039 1_545 S
Zn43 O58 2.034 1_545 S
Zn43 O62 2.025 . S
Zn43 O64 2.024 . S
C44 O63 1.246 . S
C44 O64 1.249 1_655 S
N45 C46 1.307 . S
N45 C47 1.333 . S
N45 Zn51 2.020 . S
C46 N45 1.307 . S
C46 C50 1.370 . S
C46 H57 0.948 . S
C47 N45 1.333 . S
C47 C48 1.379 . S
C47 H55 0.952 . S
C48 C47 1.379 . S
C48 C49 1.390 . S
C48 H68 0.949 . S
C49 C48 1.390 . S
C49 C50 1.357 . S
C50 C46 1.370 . S
C50 C49 1.357 . S
C50 H69 0.950 . S
Zn51 N45 2.020 . S
Zn51 O54 2.025 . S
Zn51 O59 2.024 . S
Zn51 O61 2.039 1_565 S
Zn51 O63 2.034 1_565 S
O52 C36 1.251 . S
O52 Zn43 2.039 1_565 S
C53 O58 1.246 . S
C53 O59 1.249 1_455 S
O54 C36 1.254 1_655 S
O54 Zn51 2.025 . S
H55 C47 0.952 . S
H56 C38 0.952 . S
H57 C46 0.948 . S
O58 Zn43 2.034 1_565 S
O58 C53 1.246 . S
O59 Zn51 2.024 . S
O59 C53 1.249 1_655 S
H60 C42 0.948 . S
O61 Zn51 2.039 1_545 S
O61 C65 1.251 . S
O62 Zn43 2.025 . S
O62 C65 1.254 1_455 S
O63 C44 1.246 . S
O63 Zn51 2.034 1_545 S
O64 Zn43 2.024 . S
O64 C44 1.249 1_455 S
C65 O61 1.251 . S
C65 O62 1.254 1_655 S
H66 C39 0.949 . S
H67 C41 0.950 . S
H68 C48 0.949 . S
H69 C50 0.950 . S
C70 O86 1.251 . S
C70 O88 1.254 . S
N71 C72 1.333 1_554 S
N71 C76 1.307 . S
N71 Zn77 2.020 . S
C72 N71 1.333 1_556 S
C72 C73 1.379 . S
C72 H90 0.952 . S
C73 C72 1.379 . S
C73 C74 1.390 1_556 S
C73 H100 0.949 . S
C74 C73 1.390 1_554 S
C74 C75 1.357 . S
C75 C74 1.357 . S
C75 C76 1.370 . S
C75 H101 0.950 . S
C76 N71 1.307 . S
C76 C75 1.370 . S
C76 H94 0.948 . S
Zn77 N71 2.020 . S
Zn77 O86 2.039 1_554 S
Zn77 O92 2.034 . S
Zn77 O96 2.025 . S
Zn77 O98 2.024 1_554 S
C78 O97 1.246 . S
C78 O98 1.249 . S
N79 C80 1.307 1_554 S
N79 C81 1.333 . S
N79 Zn85 2.020 . S
C80 N79 1.307 1_556 S
C80 C84 1.370 . S
C80 H91 0.948 . S
C81 N79 1.333 . S
C81 C82 1.379 . S
C81 H89 0.952 . S
C82 C81 1.379 . S
C82 C83 1.390 . S
C82 H102 0.949 . S
C83 C82 1.390 . S
C83 C84 1.357 1_554 S
C84 C80 1.370 . S
C84 C83 1.357 1_556 S
C84 H103 0.950 . S
Zn85 N79 2.020 . S
Zn85 O88 2.025 1_554 S
Zn85 O93 2.024 . S
Zn85 O95 2.039 . S
Zn85 O97 2.034 1_554 S
O86 C70 1.251 . S
O86 Zn77 2.039 1_556 S
C87 O92 1.246 . S
C87 O93 1.249 . S
O88 C70 1.254 . S
O88 Zn85 2.025 1_556 S
H89 C81 0.952 . S
H90 C72 0.952 . S
H91 C80 0.948 . S
O92 Zn77 2.034 . S
O92 C87 1.246 . S
O93 Zn85 2.024 . S
O93 C87 1.249 . S
H94 C76 0.948 . S
O95 Zn85 2.039 . S
O95 C99 1.251 . S
O96 Zn77 2.025 . S
O96 C99 1.254 . S
O97 C78 1.246 . S
O97 Zn85 2.034 1_556 S
O98 Zn77 2.024 1_556 S
O98 C78 1.249 . S
C99 O95 1.251 . S
C99 O96 1.254 . S
H100 C73 0.949 . S
H101 C75 0.950 . S
H102 C82 0.949 . S
H103 C84 0.950 . S
C104 C105 1.363 . S
C104 C110 1.379 . S
C104 N112 1.356 . S
C105 C104 1.363 . S
C105 C111 1.363 . S
C106 C107 1.363 . S
C106 C111 1.379 . S
C106 N113 1.356 . S
C107 C106 1.363 . S
C107 C110 1.363 . S
N108 C110 1.356 . S
N108 H120 0.984 . S
N108 H121 0.985 . S
N109 C111 1.356 . S
N109 H114 0.984 . S
N109 H115 0.985 . S
C110 C104 1.379 . S
C110 C107 1.363 . S
C110 N108 1.356 . S
C111 C105 1.363 . S
C111 C106 1.379 . S
C111 N109 1.356 . S
N112 C104 1.356 . S
N112 H118 0.984 . S
N112 H119 0.984 . S
N113 C106 1.356 . S
N113 H116 0.984 . S
N113 H117 0.985 . S
H114 N109 0.984 . S
H115 N109 0.985 . S
H116 N113 0.984 . S
H117 N113 0.985 . S
H118 N112 0.984 . S
H119 N112 0.984 . S
H120 N108 0.984 . S
H121 N108 0.985 . S
C122 C123 1.363 1_556 S
C122 C128 1.379 . S
C122 N130 1.356 . S
C123 C122 1.363 1_554 S
C123 C129 1.363 . S
C124 C125 1.363 . S
C124 C129 1.379 . S
C124 N131 1.356 . S
C125 C124 1.363 . S
C125 C128 1.363 1_554 S
N126 C128 1.356 . S
N126 H138 0.984 . S
N126 H139 0.985 . S
N127 C129 1.356 . S
N127 H132 0.984 . S
N127 H133 0.985 . S
C128 C122 1.379 . S
C128 C125 1.363 1_556 S
C128 N126 1.356 . S
C129 C123 1.363 . S
C129 C124 1.379 . S
C129 N127 1.356 . S
N130 C122 1.356 . S
N130 H136 0.984 . S
N130 H137 0.984 . S
N131 C124 1.356 . S
N131 H134 0.984 . S
N131 H135 0.985 . S
H132 N127 0.984 . S
H133 N127 0.985 . S
H134 N131 0.984 . S
H135 N131 0.985 . S
H136 N130 0.984 . S
H137 N130 0.984 . S
H138 N126 0.984 . S
H139 N126 0.985 . S
C140 C141 1.363 . S
C140 C146 1.379 . S
C140 N148 1.356 . S
C141 C140 1.363 . S
C141 C147 1.363 . S
C142 C143 1.363 . S
C142 C147 1.379 . S
C142 N149 1.356 . S
C143 C142 1.363 . S
C143 C146 1.363 . S
N144 C146 1.356 . S
N144 H156 0.984 . S
N144 H157 0.985 . S
N145 C147 1.356 . S
N145 H150 0.984 . S
N145 H151 0.985 . S
C146 C140 1.379 . S
C146 C143 1.363 . S
C146 N144 1.356 . S
C147 C141 1.363 . S
C147 C142 1.379 . S
C147 N145 1.356 . S
N148 C140 1.356 . S
N148 H154 0.984 . S
N148 H155 0.984 . S
N149 C142 1.356 . S
N149 H152 0.984 . S
N149 H153 0.985 . S
H150 N145 0.984 . S
H151 N145 0.985 . S
H152 N149 0.984 . S
H153 N149 0.985 . S
H154 N148 0.984 . S
H155 N148 0.984 . S
H156 N144 0.984 . S
H157 N144 0.985 . S
C158 C159 1.363 1_556 S
C158 C164 1.379 . S
C158 N166 1.356 . S
C159 C158 1.363 1_554 S
C159 C165 1.363 . S
C160 C161 1.363 . S
C160 C165 1.379 . S
C160 N167 1.356 . S
C161 C160 1.363 . S
C161 C164 1.363 1_554 S
N162 C164 1.356 . S
N162 H174 0.984 . S
N162 H175 0.985 . S
N163 C165 1.356 . S
N163 H168 0.984 . S
N163 H169 0.985 . S
C164 C158 1.379 . S
C164 C161 1.363 1_556 S
C164 N162 1.356 . S
C165 C159 1.363 . S
C165 C160 1.379 . S
C165 N163 1.356 . S
N166 C158 1.356 . S
N166 H172 0.984 . S
N166 H173 0.984 . S
N167 C160 1.356 . S
N167 H170 0.984 . S
N167 H171 0.985 . S
H168 N163 0.984 . S
H169 N163 0.985 . S
H170 N167 0.984 . S
H171 N167 0.985 . S
H172 N166 0.984 . S
H173 N166 0.984 . S
H174 N162 0.984 . S
H175 N162 0.985 . S
C176 C177 1.363 . S
C176 C182 1.379 . S
C176 N184 1.356 . S
C177 C176 1.363 . S
C177 C183 1.363 . S
C178 C179 1.363 . S
C178 C183 1.379 . S
C178 N185 1.356 1_455 S
C179 C178 1.363 . S
C179 C182 1.363 . S
N180 C182 1.356 . S
N180 H192 0.984 . S
N180 H193 0.985 . S
N181 C183 1.356 . S
N181 H186 0.984 . S
N181 H187 0.985 1_455 S
C182 C176 1.379 . S
C182 C179 1.363 . S
C182 N180 1.356 . S
C183 C177 1.363 . S
C183 C178 1.379 . S
C183 N181 1.356 . S
N184 C176 1.356 . S
N184 H190 0.984 . S
N184 H191 0.984 . S
N185 C178 1.356 1_655 S
N185 H188 0.984 . S
N185 H189 0.985 . S
H186 N181 0.984 . S
H187 N181 0.985 1_655 S
H188 N185 0.984 . S
H189 N185 0.985 . S
H190 N184 0.984 . S
H191 N184 0.984 . S
H192 N180 0.984 . S
H193 N180 0.985 . S
C194 C195 1.363 . S
C194 C200 1.379 . S
C194 N202 1.356 . S
C195 C194 1.363 . S
C195 C201 1.363 . S
C196 C197 1.363 . S
C196 C201 1.379 . S
C196 N203 1.356 . S
C197 C196 1.363 . S
C197 C200 1.363 . S
N198 C200 1.356 . S
N198 H210 0.984 . S
N198 H211 0.985 . S
N199 C201 1.356 . S
N199 H204 0.984 . S
N199 H205 0.985 . S
C200 C194 1.379 . S
C200 C197 1.363 . S
C200 N198 1.356 . S
C201 C195 1.363 . S
C201 C196 1.379 . S
C201 N199 1.356 . S
N202 C194 1.356 . S
N202 H208 0.984 . S
N202 H209 0.984 . S
N203 C196 1.356 . S
N203 H206 0.984 . S
N203 H207 0.985 . S
H204 N199 0.984 . S
H205 N199 0.985 . S
H206 N203 0.984 . S
H207 N203 0.985 . S
H208 N202 0.984 . S
H209 N202 0.984 . S
H210 N198 0.984 . S
H211 N198 0.985 . S
C212 C213 1.363 . S
C212 C218 1.379 . S
C212 N220 1.356 . S
C213 C212 1.363 . S
C213 C219 1.363 . S
C214 C215 1.363 . S
C214 C219 1.379 . S
C214 N221 1.356 . S
C215 C214 1.363 . S
C215 C218 1.363 . S
N216 C218 1.356 . S
N216 H228 0.976 1_545 S
N216 H229 0.985 . S
N217 C219 1.356 . S
N217 H222 0.984 . S
N217 H223 0.985 . S
C218 C212 1.379 . S
C218 C215 1.363 . S
C218 N216 1.356 . S
C219 C213 1.363 . S
C219 C214 1.379 . S
C219 N217 1.356 . S
N220 C212 1.356 . S
N220 H226 0.984 . S
N220 H227 0.984 . S
N221 C214 1.356 . S
N221 H224 0.984 . S
N221 H225 0.980 1_655 S
H222 N217 0.984 . S
H223 N217 0.985 . S
H224 N221 0.984 . S
H225 N221 0.980 1_455 S
H226 N220 0.984 . S
H227 N220 0.984 . S
H228 N216 0.976 1_565 S
H229 N216 0.985 . S
C230 C231 1.363 . S
C230 C236 1.379 . S
C230 N238 1.356 . S
C231 C230 1.363 . S
C231 C237 1.363 . S
C232 C233 1.363 . S
C232 C237 1.379 . S
C232 N239 1.356 . S
C233 C232 1.363 . S
C233 C236 1.363 . S
N234 C236 1.356 . S
N234 H246 0.984 . S
N234 H247 0.985 . S
N235 C237 1.356 . S
N235 H240 0.984 . S
N235 H241 0.985 . S
C236 C230 1.379 . S
C236 C233 1.363 . S
C236 N234 1.356 . S
C237 C231 1.363 . S
C237 C232 1.379 . S
C237 N235 1.356 . S
N238 C230 1.356 . S
N238 H244 0.984 . S
N238 H245 0.984 . S
N239 C232 1.356 . S
N239 H242 0.984 . S
N239 H243 0.985 . S
H240 N235 0.984 . S
H241 N235 0.985 . S
H242 N239 0.984 . S
H243 N239 0.985 . S
H244 N238 0.984 . S
H245 N238 0.984 . S
H246 N234 0.984 . S
H247 N234 0.985 . S
C248 C249 1.363 . S
C248 C254 1.379 . S
C248 N256 1.356 . S
C249 C248 1.363 . S
C249 C255 1.363 . S
C250 C251 1.363 . S
C250 C255 1.379 . S
C250 N257 1.356 . S
C251 C250 1.363 . S
C251 C254 1.363 . S
N252 C254 1.356 . S
N252 H264 0.984 . S
N252 H265 0.985 . S
N253 C255 1.356 . S
N253 H258 0.984 . S
N253 H259 0.985 . S
C254 C248 1.379 . S
C254 C251 1.363 . S
C254 N252 1.356 . S
C255 C249 1.363 . S
C255 C250 1.379 . S
C255 N253 1.356 . S
N256 C248 1.356 . S
N256 H262 0.984 . S
N256 H263 0.984 . S
N257 C250 1.356 . S
N257 H260 0.984 . S
N257 H261 0.985 . S
H258 N253 0.984 . S
H259 N253 0.985 . S
H260 N257 0.984 . S
H261 N257 0.985 . S
H262 N256 0.984 . S
H263 N256 0.984 . S
H264 N252 0.984 . S
H265 N252 0.985 . S
C266 C267 1.363 . S
C266 C272 1.379 . S
C266 N274 1.356 . S
C267 C266 1.363 . S
C267 C273 1.363 . S
C268 C269 1.363 . S
C268 C273 1.379 . S
C268 N275 1.356 . S
C269 C268 1.363 . S
C269 C272 1.363 . S
N270 C272 1.356 . S
N270 H282 0.984 . S
N270 H283 0.985 . S
N271 C273 1.356 . S
N271 H276 0.984 . S
N271 H277 0.985 . S
C272 C266 1.379 . S
C272 C269 1.363 . S
C272 N270 1.356 . S
C273 C267 1.363 . S
C273 C268 1.379 . S
C273 N271 1.356 . S
N274 C266 1.356 . S
N274 H280 0.984 . S
N274 H281 0.984 . S
N275 C268 1.356 . S
N275 H278 0.984 . S
N275 H279 0.985 . S
H276 N271 0.984 . S
H277 N271 0.985 . S
H278 N275 0.984 . S
H279 N275 0.985 . S
H280 N274 0.984 . S
H281 N274 0.984 . S
H282 N270 0.984 . S
H283 N270 0.985 . S
C284 C285 1.363 . S
C284 C290 1.379 . S
C284 N292 1.356 . S
C285 C284 1.363 . S
C285 C291 1.363 . S
C286 C287 1.363 . S
C286 C291 1.379 . S
C286 N293 1.356 . S
C287 C286 1.363 . S
C287 C290 1.363 . S
N288 C290 1.356 . S
N288 H300 0.984 . S
N288 H301 0.985 . S
N289 C291 1.356 . S
N289 H294 0.984 . S
N289 H295 0.985 . S
C290 C284 1.379 . S
C290 C287 1.363 . S
C290 N288 1.356 . S
C291 C285 1.363 . S
C291 C286 1.379 . S
C291 N289 1.356 . S
N292 C284 1.356 . S
N292 H298 0.984 . S
N292 H299 0.984 . S
N293 C286 1.356 . S
N293 H296 0.984 . S
N293 H297 0.985 . S
H294 N289 0.984 . S
H295 N289 0.985 . S
H296 N293 0.984 . S
H297 N293 0.985 . S
H298 N292 0.984 . S
H299 N292 0.984 . S
H300 N288 0.984 . S
H301 N288 0.985 . S
C302 C303 1.363 . S
C302 C308 1.379 . S
C302 N310 1.356 . S
C303 C302 1.363 . S
C303 C309 1.363 . S
C304 C305 1.363 . S
C304 C309 1.379 . S
C304 N311 1.356 . S
C305 C304 1.363 . S
C305 C308 1.363 . S
N306 C308 1.356 . S
N306 H318 0.984 1_455 S
N306 H319 0.985 . S
N307 C309 1.356 . S
N307 H312 0.984 . S
N307 H313 0.985 . S
C308 C302 1.379 . S
C308 C305 1.363 . S
C308 N306 1.356 . S
C309 C303 1.363 . S
C309 C304 1.379 . S
C309 N307 1.356 . S
N310 C302 1.356 . S
N310 H316 0.984 . S
N310 H317 0.984 . S
N311 C304 1.356 . S
N311 H314 0.984 . S
N311 H315 0.985 . S
H312 N307 0.984 . S
H313 N307 0.985 . S
H314 N311 0.984 . S
H315 N311 0.985 . S
H316 N310 0.984 . S
H317 N310 0.984 . S
H318 N306 0.984 1_655 S
H319 N306 0.985 . S
C107 C40 1.537 . S
C105 C34 1.524 . S
C123 C7 1.502 . S
C125 C83 1.510 . S
C141 C16 1.519 . S
C143 C49 1.537 . S
C159 C25 1.502 . S
C161 C74 1.510 . S
C179 C36 1.533 . S
C177 C5 1.510 . S
C197 C78 1.578 . S
C195 C13 1.545 . S
C213 C23 1.509 . S
C215 C44 1.529 . S
C231 C32 1.549 . S
C233 C70 1.575 . S
C251 C99 1.574 . S
C249 C14 1.539 . S
C269 C65 1.531 . S
C267 C22 1.509 . S
C287 C87 1.576 . S
C285 C31 1.547 . S
C303 C4 1.508 . S
C305 C53 1.527 . S
