# Generated by pormake.
# Topology wbl, (4,4)-cn, num edge types: 1
# Building blocks:
#     Node 0, Type 0, BuildingBlock: NAWXER_clean_linker_0, # of connection points: 4
#     Node 1, Type 0, BuildingBlock: NAWXER_clean_linker_0, # of connection points: 4
#     Node 2, Type 0, BuildingBlock: NAWXER_clean_linker_0, # of connection points: 4
#     Node 3, Type 0, BuildingBlock: NAWXER_clean_linker_0, # of connection points: 4
#     Node 4, Type 0, BuildingBlock: NAWXER_clean_linker_0, # of connection points: 4
#     Node 5, Type 0, BuildingBlock: NAWXER_clean_linker_0, # of connection points: 4
#     Node 6, Type 0, BuildingBlock: NAWXER_clean_linker_0, # of connection points: 4
#     Node 7, Type 0, BuildingBlock: NAWXER_clean_linker_0, # of connection points: 4
#     Node 8, Type 1, BuildingBlock: TATPOV_clean_sbu_0, # of connection points: 4
#     Node 9, Type 1, BuildingBlock: TATPOV_clean_sbu_0, # of connection points: 4
#     Node 10, Type 1, BuildingBlock: TATPOV_clean_sbu_0, # of connection points: 4
#     Node 11, Type 1, BuildingBlock: TATPOV_clean_sbu_0, # of connection points: 4
#     Node 12, Type 1, BuildingBlock: TATPOV_clean_sbu_0, # of connection points: 4
#     Node 13, Type 1, BuildingBlock: TATPOV_clean_sbu_0, # of connection points: 4
#     Node 14, Type 1, BuildingBlock: TATPOV_clean_sbu_0, # of connection points: 4
#     Node 15, Type 1, BuildingBlock: TATPOV_clean_sbu_0, # of connection points: 4
#     Edge 16, Type (0, 1), None
#     Edge 17, Type (0, 1), None
#     Edge 18, Type (0, 1), None
#     Edge 19, Type (0, 1), None
#     Edge 20, Type (0, 1), None
#     Edge 21, Type (0, 1), None
#     Edge 22, Type (0, 1), None
#     Edge 23, Type (0, 1), None
#     Edge 24, Type (0, 1), None
#     Edge 25, Type (0, 1), None
#     Edge 26, Type (0, 1), None
#     Edge 27, Type (0, 1), None
#     Edge 28, Type (0, 1), None
#     Edge 29, Type (0, 1), None
#     Edge 30, Type (0, 1), None
#     Edge 31, Type (0, 1), None
#     Edge 32, Type (0, 1), None
#     Edge 33, Type (0, 1), None
#     Edge 34, Type (0, 1), None
#     Edge 35, Type (0, 1), None
#     Edge 36, Type (0, 1), None
#     Edge 37, Type (0, 1), None
#     Edge 38, Type (0, 1), None
#     Edge 39, Type (0, 1), None
#     Edge 40, Type (0, 1), None
#     Edge 41, Type (0, 1), None
#     Edge 42, Type (0, 1), None
#     Edge 43, Type (0, 1), None
#     Edge 44, Type (0, 1), None
#     Edge 45, Type (0, 1), None
#     Edge 46, Type (0, 1), None
#     Edge 47, Type (0, 1), None
# Relax obj value: 0.174
# Max RMSD: 0.175
# Mean RMSD: 0.138
data_MOF--net-wbl--node1-TATPOV_clean_sbu_0--node2-NAWXER_clean_linker_0--edge1-none
_symmetry_space_group_name_H-M    P1
_symmetry_Int_Tables_number       1
_symmetry_cell_setting            triclinic
loop_
_symmetry_equiv_pos_as_xyz
'x, y, z'
_cell_length_a     24.334342
_cell_length_b     24.298624
_cell_length_c     40.808198
_cell_angle_alpha  91.080043
_cell_angle_beta   91.45221
_cell_angle_gamma 90.255372
loop_
_atom_site_label
_atom_site_type_symbol
_atom_site_fract_x
_atom_site_fract_y
_atom_site_fract_z
_atom_type_partial_charge
C0 C 0.14363 0.86265 0.40274 0.0
C1 C 0.17885 0.88183 0.42821 0.0
C2 C 0.11492 0.89991 0.38312 0.0
C3 C 0.12308 0.95694 0.38749 0.0
C4 C 0.18639 0.93874 0.43305 0.0
C5 C 0.15908 0.97592 0.41272 0.0
C6 C 0.08921 -0.00292 0.36907 0.0
C7 C 0.19875 0.93429 0.29014 0.0
C8 C 0.18027 0.88029 0.28318 0.0
C9 C 0.16469 0.97208 0.30564 0.0
C10 C 0.1111 0.95713 0.31347 0.0
C11 C 0.1252 0.86662 0.2889 0.0
C12 C 0.09028 0.90551 0.30315 0.0
C13 C 0.07948 0.99415 0.33478 0.0
C14 C 0.9496 0.19858 0.30532 0.0
C15 C 0.90073 0.17516 0.29239 0.0
C16 C 0.98924 0.16501 0.32036 0.0
C17 C 0.98078 0.1078 0.32159 0.0
C18 C 0.89287 0.11796 0.29347 0.0
C19 C 0.93294 0.08449 0.30747 0.0
C20 C 0.02016 0.07159 0.33848 0.0
C21 C 0.92067 0.14976 0.41946 0.0
C22 C 0.95217 0.17793 0.44389 0.0
C23 C 0.94618 0.1184 0.39525 0.0
C24 C 0.00372 0.11522 0.39464 0.0
C25 C 0.00979 0.17619 0.44259 0.0
C26 C 0.03528 0.14483 0.4183 0.0
C27 C 0.03094 0.07545 0.37257 0.0
H28 H 0.13629 0.81894 0.39901 0.0
H29 H 0.0844 0.88391 0.36578 0.0
H30 H 0.2134 0.95451 0.45259 0.0
H31 H 0.16527 0.01965 0.41712 0.0
H32 H 0.24107 0.94602 0.28626 0.0
H33 H 0.18108 0.0121 0.31301 0.0
H34 H 0.11003 0.82528 0.28382 0.0
H35 H 0.04851 0.89381 0.30855 0.0
H36 H 0.95633 0.24263 0.30462 0.0
H37 H 0.02621 0.18352 0.33111 0.0
H38 H 0.85561 0.09905 0.28333 0.0
H39 H 0.9258 0.04047 0.30823 0.0
H40 H 0.87618 0.15001 0.41979 0.0
H41 H 0.92074 0.09445 0.37809 0.0
H42 H 0.03526 0.19732 0.46104 0.0
H43 H 0.07974 0.14239 0.41855 0.0
N44 N 0.06503 0.03804 0.38649 0.0
N45 N 0.04513 0.03134 0.32071 0.0
C46 C 0.87699 0.48404 0.68989 0.0
C47 C 0.87291 0.42631 0.68809 0.0
C48 C 0.90611 0.51276 0.66652 0.0
C49 C 0.93109 0.48459 0.64058 0.0
C50 C 0.89687 0.39817 0.6616 0.0
C51 C 0.92591 0.42704 0.63815 0.0
C52 C 0.96779 0.51511 0.61881 0.0
C53 C 0.90351 0.40321 0.52799 0.0
C54 C 0.85073 0.39721 0.54077 0.0
C55 C 0.93909 0.44399 0.54051 0.0
C56 C 0.9223 0.47962 0.56573 0.0
C57 C 0.83157 0.43772 0.56268 0.0
C58 C 0.86702 0.47907 0.57482 0.0
C59 C 0.9642 0.51287 0.58412 0.0
C60 C 0.18323 0.6113 0.54853 0.0
C61 C 0.16635 0.65369 0.5278 0.0
C62 C 0.14402 0.58076 0.5651 0.0
C63 C 0.0877 0.59255 0.56107 0.0
C64 C 0.11007 0.66344 0.52252 0.0
C65 C 0.07098 0.63262 0.53872 0.0
C66 C 0.04626 0.56675 0.58182 0.0
C67 C 0.15063 0.6806 0.64583 0.0
C68 C 0.17272 0.65641 0.67417 0.0
C69 C 0.10977 0.65337 0.62709 0.0
C70 C 0.09231 0.60037 0.63552 0.0
C71 C 0.15413 0.60433 0.68324 0.0
C72 C 0.11463 0.57636 0.66391 0.0
C73 C 0.04868 0.57053 0.61642 0.0
H74 H 0.85916 0.50706 0.70993 0.0
H75 H 0.91013 0.55707 0.6691 0.0
H76 H 0.89465 0.35371 0.65951 0.0
H77 H 0.9459 0.40424 0.61878 0.0
H78 H 0.91939 0.37326 0.5107 0.0
H79 H 0.98116 0.44456 0.53241 0.0
H80 H 0.79071 0.43495 0.57248 0.0
H81 H 0.8523 0.50805 0.59305 0.0
H82 H 0.22654 0.60356 0.55304 0.0
H83 H 0.15765 0.54956 0.58205 0.0
H84 H 0.09643 0.69625 0.50668 0.0
H85 H 0.02781 0.6422 0.53521 0.0
H86 H 0.16348 0.72142 0.63887 0.0
H87 H 0.09134 0.67428 0.60641 0.0
H88 H 0.17037 0.58513 0.70516 0.0
H89 H 0.10136 0.53588 0.67124 0.0
N90 N 0.00952 0.54429 0.63343 0.0
N91 N 0.00383 0.53856 0.56698 0.0
C92 C 0.55684 0.35363 0.92877 0.0
C93 C 0.61446 0.35233 0.93166 0.0
C94 C 0.53105 0.38171 0.90309 0.0
C95 C 0.5623 0.40796 0.87947 0.0
C96 C 0.64569 0.37688 0.90724 0.0
C97 C 0.61983 0.40448 0.88139 0.0
C98 C 0.53517 0.44653 0.85672 0.0
C99 C 0.65064 0.38465 0.76884 0.0
C100 C 0.65292 0.33031 0.78004 0.0
C101 C 0.61218 0.42144 0.78127 0.0
C102 C 0.57508 0.40451 0.80489 0.0
C103 C 0.61146 0.31176 0.80062 0.0
C104 C 0.57247 0.34848 0.81267 0.0
C105 C 0.54225 0.44648 0.82239 0.0
C106 C 0.44932 0.67286 0.7923 0.0
C107 C 0.41274 0.65858 0.76649 0.0
C108 C 0.48038 0.63201 0.80766 0.0
C109 C 0.47276 0.57633 0.79838 0.0
C110 C 0.40998 0.60397 0.7548 0.0
C111 C 0.43983 0.56302 0.77067 0.0
C112 C 0.49361 0.53153 0.81924 0.0
C113 C 0.37762 0.63419 0.87993 0.0
C114 C 0.40167 0.65369 0.90956 0.0
C115 C 0.40387 0.59336 0.86153 0.0
C116 C 0.4556 0.57348 0.87185 0.0
C117 C 0.45269 0.63308 0.92012 0.0
C118 C 0.47958 0.59369 0.90131 0.0
C119 C 0.4847 0.53013 0.85329 0.0
H120 H 0.53162 0.33517 0.94713 0.0
H121 H 0.48662 0.3846 0.9023 0.0
H122 H 0.69019 0.37639 0.90867 0.0
H123 H 0.64483 0.42548 0.86388 0.0
H124 H 0.68154 0.40029 0.75273 0.0
H125 H 0.6142 0.46413 0.77415 0.0
H126 H 0.61142 0.26987 0.80924 0.0
H127 H 0.54228 0.33362 0.82947 0.0
H128 H 0.45176 0.71487 0.80161 0.0
H129 H 0.50711 0.64339 0.82834 0.0
H130 H 0.38159 0.59236 0.73494 0.0
H131 H 0.43398 0.52051 0.7628 0.0
H132 H 0.33756 0.64863 0.87182 0.0
H133 H 0.38355 0.57704 0.8395 0.0
H134 H 0.47161 0.64721 0.94311 0.0
H135 H 0.51915 0.5787 0.90995 0.0
N136 N 0.50628 0.488 0.87059 0.0
N137 N 0.52129 0.48923 0.80501 0.0
C138 C 0.43496 0.85275 0.05144 0.0
C139 C 0.40305 0.87103 0.02459 0.0
C140 C 0.4711 0.88835 0.06822 0.0
C141 C 0.47525 0.94355 0.05922 0.0
C142 C 0.40819 0.92606 0.01496 0.0
C143 C 0.44419 0.96208 0.03217 0.0
C144 C 0.51277 0.98113 0.07791 0.0
C145 C 0.38022 0.93126 0.14789 0.0
C146 C 0.40032 0.90555 0.17634 0.0
C147 C 0.41643 0.9571 0.12682 0.0
C148 C 0.47341 0.95655 0.13352 0.0
C149 C 0.45721 0.90589 0.18314 0.0
C150 C 0.49322 0.93104 0.162 0.0
C151 C 0.51313 0.98486 0.11252 0.0
C152 C 0.67689 0.16173 0.14841 0.0
C153 C 0.69468 0.13911 0.17825 0.0
C154 C 0.64475 0.13035 0.12607 0.0
C155 C 0.63213 0.07516 0.13264 0.0
C156 C 0.68246 0.08407 0.18472 0.0
C157 C 0.65201 0.05226 0.16199 0.0
C158 C 0.59247 0.04269 0.11195 0.0
C159 C 0.72658 0.10271 0.05274 0.0
C160 C 0.70759 0.14403 0.03164 0.0
C161 C 0.68975 0.06475 0.0654 0.0
C162 C 0.63331 0.06818 0.05759 0.0
C163 C 0.65248 0.14196 0.02023 0.0
C164 C 0.61561 0.10436 0.03319 0.0
C165 C 0.59214 0.0394 0.07726 0.0
H166 H 0.43295 0.81044 0.05924 0.0
H167 H 0.49598 0.87258 0.08831 0.0
H168 H 0.38465 0.94117 0.99415 0.0
H169 H 0.44739 0.00444 0.0246 0.0
H170 H 0.33654 0.93201 0.14212 0.0
H171 H 0.39983 0.97797 0.10558 0.0
H172 H 0.47417 0.88636 0.20476 0.0
H173 H 0.53689 0.93034 0.1679 0.0
H174 H 0.68512 0.20452 0.14324 0.0
H175 H 0.6281 0.14996 0.10442 0.0
H176 H 0.69572 0.06591 0.20763 0.0
H177 H 0.6424 0.01004 0.16786 0.0
H178 H 0.7689 0.10248 0.06162 0.0
H179 H 0.70464 0.03568 0.08333 0.0
H180 H 0.63648 0.17267 1.00366 0.0
H181 H 0.57243 0.10687 0.02624 0.0
N182 N 0.55191 0.00905 0.06151 0.0
N183 N 0.55306 0.01522 0.12793 0.0
C184 C 0.06854 0.66837 0.82891 0.0
C185 C 0.12616 0.67307 0.83058 0.0
C186 C 0.0406 0.63834 0.85221 0.0
C187 C 0.06947 0.61302 0.87796 0.0
C188 C 0.15503 0.64855 0.8568 0.0
C189 C 0.12695 0.61856 0.88019 0.0
C190 C 0.03958 0.57624 0.90002 0.0
C191 C 0.15265 0.64083 0.99034 0.0
C192 C 0.15915 0.69341 0.97707 0.0
C193 C 0.11147 0.60545 0.97812 0.0
C194 C 0.07584 0.62224 0.95273 0.0
C195 C 0.11873 0.7127 0.95494 0.0
C196 C 0.07688 0.67748 0.94315 0.0
C197 C 0.04219 0.58026 0.93466 0.0
C198 C 0.93783 0.36327 0.97217 0.0
C199 C 0.9002 0.38263 0.99509 0.0
C200 C 0.9689 0.40067 0.95446 0.0
C201 C 0.96168 0.45776 0.95908 0.0
C202 C 0.89565 0.43941 1.00114 0.0
C203 C 0.92647 0.47667 0.98348 0.0
C204 C 0.98799 0.49826 0.93768 0.0
C205 C 0.87277 0.39494 0.87323 0.0
C206 C 0.89659 0.373 0.84489 0.0
C207 C 0.90059 0.43511 0.89222 0.0
C208 C 0.95379 0.45193 0.88403 0.0
C209 C 0.94891 0.3909 0.83613 0.0
C210 C 0.97746 0.42962 0.8557 0.0
C211 C 0.98404 0.49538 0.90304 0.0
H212 H 0.04497 0.68658 0.80906 0.0
H213 H -0.00367 0.63409 0.8498 0.0
H214 H 0.19944 0.65118 0.85878 0.0
H215 H 0.15026 0.59835 0.89942 0.0
H216 H 0.1824 0.62491 0.00789 0.0
H217 H 0.11054 0.56349 0.98662 0.0
H218 H 0.12183 0.75342 0.94478 0.0
H219 H 0.04788 0.69229 0.92482 0.0
H220 H 0.94146 0.31956 0.967 0.0
H221 H -0.00325 0.38514 0.93623 0.0
H222 H 0.86639 0.45503 0.01856 0.0
H223 H 0.92058 0.52039 0.98767 0.0
H224 H 0.83181 0.38257 0.87998 0.0
H225 H 0.88006 0.4535 0.91291 0.0
H226 H 0.96785 0.37475 0.81423 0.0
H227 H 0.01807 0.44243 0.84854 0.0
N228 N 0.01021 0.53435 0.88575 0.0
N229 N 0.01651 0.5409 0.9521 0.0
C230 C 0.34551 0.57599 0.10882 0.0
C231 C 0.36964 0.60273 0.08246 0.0
C232 C 0.37822 0.54674 0.13121 0.0
C233 C 0.43554 0.5445 0.12773 0.0
C234 C 0.42674 0.59885 0.07866 0.0
C235 C 0.45915 0.57009 0.10095 0.0
C236 C 0.47233 0.51613 0.15138 0.0
C237 C 0.40118 0.65807 0.20455 0.0
C238 C 0.36801 0.64515 0.23108 0.0
C239 C 0.4341 0.61827 0.19018 0.0
C240 C 0.43346 0.5639 0.20111 0.0
C241 C 0.36731 0.59063 0.24218 0.0
C242 C 0.4 0.55028 0.22732 0.0
C243 C 0.46989 0.52278 0.18577 0.0
C244 C 0.68832 0.42534 0.22741 0.0
C245 C 0.67316 0.38039 0.24655 0.0
C246 C 0.64818 0.45696 0.21163 0.0
C247 C 0.5923 0.44393 0.21457 0.0
C248 C 0.61706 0.37213 0.25272 0.0
C249 C 0.57692 0.40375 0.23681 0.0
C250 C 0.55054 0.4677 0.19209 0.0
C251 C 0.66004 0.35926 0.12818 0.0
C252 C 0.67743 0.38465 0.09952 0.0
C253 C 0.62047 0.38444 0.14775 0.0
C254 C 0.59952 0.43644 0.13963 0.0
C255 C 0.65664 0.43642 0.09148 0.0
C256 C 0.61866 0.46226 0.1115 0.0
C257 C 0.55394 0.46292 0.15754 0.0
H258 H 0.30157 0.5779 0.11225 0.0
H259 H 0.35885 0.52624 0.15126 0.0
H260 H 0.44683 0.61868 0.05861 0.0
H261 H 0.50317 0.56893 0.09758 0.0
H262 H 0.4035 0.69964 0.19552 0.0
H263 H 0.46093 0.6304 0.17078 0.0
H264 H 0.34281 0.57952 0.26285 0.0
H265 H 0.39949 0.50868 0.23639 0.0
H266 H 0.7311 0.43337 0.22244 0.0
H267 H 0.66084 0.48893 0.19524 0.0
H268 H 0.60384 0.33817 0.26748 0.0
H269 H 0.53393 0.39378 0.23985 0.0
H270 H 0.6749 0.31876 0.13451 0.0
H271 H 0.60512 0.36238 0.16844 0.0
H272 H 0.6694 0.45672 0.06949 0.0
H273 H 0.60317 0.5022 0.10447 0.0
N274 N 0.51433 0.48689 0.13889 0.0
N275 N 0.50853 0.49741 0.20494 0.0
C276 C 0.46908 0.85416 0.34791 0.0
C277 C 0.41461 0.84101 0.35517 0.0
C278 C 0.50041 0.88783 0.36915 0.0
C279 C 0.47771 0.90935 0.39786 0.0
C280 C 0.39246 0.86042 0.38463 0.0
C281 C 0.42351 0.89531 0.40558 0.0
C282 C 0.50953 0.95077 0.41732 0.0
C283 C 0.42418 0.88372 0.51037 0.0
C284 C 0.41846 0.83042 0.49649 0.0
C285 C 0.46197 0.9208 0.4979 0.0
C286 C 0.495 0.9049 0.47176 0.0
C287 C 0.45773 0.81215 0.47409 0.0
C288 C 0.49639 0.84905 0.46216 0.0
C289 C 0.5196 0.94814 0.4515 0.0
C290 C 0.62767 0.16976 0.48204 0.0
C291 C 0.66956 0.15115 0.5032 0.0
C292 C 0.5937 0.13173 0.465 0.0
C293 C 0.60211 0.07486 0.46864 0.0
C294 C 0.67652 0.09463 0.50777 0.0
C295 C 0.64284 0.05679 0.4908 0.0
C296 C 0.56901 0.03333 0.44996 0.0
C297 C 0.65518 0.12495 0.36801 0.0
C298 C 0.61848 0.14857 0.34506 0.0
C299 C 0.63583 0.09052 0.39238 0.0
C300 C 0.57942 0.07925 0.3943 0.0
C301 C 0.56188 0.13888 0.34793 0.0
C302 C 0.54266 0.10424 0.37212 0.0
C303 C 0.55883 0.03564 0.41574 0.0
H304 H 0.48684 0.8399 0.32521 0.0
H305 H 0.54196 0.89855 0.36262 0.0
H306 H 0.35011 0.85167 0.39037 0.0
H307 H 0.40458 0.91278 0.42711 0.0
H308 H 0.39535 0.89899 0.52814 0.0
H309 H 0.46116 0.96333 0.50635 0.0
H310 H 0.45525 0.77103 0.46342 0.0
H311 H 0.5233 0.83529 0.44295 0.0
H312 H 0.62218 0.21338 0.47813 0.0
H313 H 0.56144 0.1467 0.44877 0.0
H314 H 0.70914 0.07972 0.52382 0.0
H315 H 0.64981 0.01323 0.49422 0.0
H316 H 0.69908 0.13164 0.36655 0.0
H317 H 0.66512 0.0708 0.40873 0.0
H318 H 0.53248 0.15636 0.33073 0.0
H319 H 0.49898 0.09565 0.37294 0.0
N320 N 0.52959 0.99419 0.40095 0.0
N321 N 0.54875 0.98977 0.46652 0.0
C322 C 0.2057 0.99491 0.59286 0.0
C323 C 0.2081 0.93715 0.59143 0.0
C324 C 0.17561 0.0216 0.61711 0.0
C325 C 0.14824 0.99114 0.64066 0.0
C326 C 0.1825 0.90684 0.61588 0.0
C327 C 0.15263 0.93358 0.64017 0.0
C328 C 0.10834 0.01886 0.662 0.0
C329 C 0.16382 0.90008 0.74978 0.0
C330 C 0.2189 0.8988 0.74015 0.0
C331 C 0.12782 0.93943 0.73716 0.0
C332 C 0.14636 0.97833 0.71493 0.0
C333 C 0.23882 0.94203 0.72125 0.0
C334 C 0.20291 0.98188 0.70904 0.0
C335 C 0.1057 0.01138 0.69622 0.0
C336 C 0.87822 0.10552 0.72065 0.0
C337 C 0.891 0.13715 0.74887 0.0
C338 C 0.91953 0.07588 0.70506 0.0
C339 C 0.97452 0.08064 0.71642 0.0
C340 C 0.94452 0.13649 0.76239 0.0
C341 C 0.9861 0.10857 0.7462 0.0
C342 C 0.02072 0.06036 0.69669 0.0
C343 C 0.92306 0.17817 0.6339 0.0
C344 C 0.90544 0.15523 0.60356 0.0
C345 C 0.96307 0.15165 0.653 0.0
C346 C 0.98394 0.10043 0.64277 0.0
C347 C 0.92811 0.10541 0.59267 0.0
C348 C 0.96663 0.07807 0.61222 0.0
C349 C 0.02506 0.07012 0.66274 0.0
H350 H 0.2249 0.01943 0.5744 0.0
H351 H 0.17211 0.06603 0.61681 0.0
H352 H 0.18365 0.86227 0.61552 0.0
H353 H 0.13075 0.90909 0.65756 0.0
H354 H 0.14713 0.86773 0.76455 0.0
H355 H 0.08463 0.93661 0.74277 0.0
H356 H 0.28126 0.9428 0.71387 0.0
H357 H 0.21879 0.01325 0.69328 0.0
H358 H 0.83703 0.1057 0.70993 0.0
H359 H 0.90914 0.0524 0.68294 0.0
H360 H 0.95507 0.16109 0.78409 0.0
H361 H 0.02791 0.1119 0.75583 0.0
H362 H 0.90701 0.21729 0.64241 0.0
H363 H 0.97738 0.171 0.67579 0.0
H364 H 0.91549 0.08721 0.56922 0.0
H365 H 0.98266 0.03906 0.60351 0.0
N366 N 0.06838 0.04837 0.64685 0.0
N367 N 0.06167 0.03212 0.71216 0.0
Zn368 Zn 0.30375 0.78219 0.95227 0.0
Zn369 Zn 0.33327 0.70954 1.00119 0.0
O370 O 0.2511 0.69893 0.99735 0.0
O371 O 0.22432 0.76024 0.96125 0.0
O372 O 0.36113 0.65938 0.03605 0.0
O373 O 0.34571 0.84302 0.97857 0.0
O374 O 0.3635 0.7826 0.0168 0.0
C375 C 0.21308 0.72148 0.98045 0.0
C376 C 0.37147 0.6905 0.93149 0.0
O377 O 0.37119 0.67943 0.96175 0.0
O378 O 0.34495 0.73128 0.92044 0.0
C379 C 0.33673 0.63563 0.05906 0.0
O380 O 0.28359 0.64214 0.06238 0.0
C381 C 0.36776 0.83104 0.006 0.0
Zn382 Zn 0.28855 0.7488 0.30164 0.0
Zn383 Zn 0.34102 0.81638 0.25873 0.0
O384 O 0.26611 0.85129 0.26336 0.0
O385 O 0.21815 0.79202 0.29139 0.0
O386 O 0.38161 0.86123 0.22631 0.0
O387 O 0.31464 0.68148 0.27502 0.0
O388 O 0.34965 0.73951 0.24046 0.0
C389 C 0.22153 0.83741 0.27666 0.0
C390 C 0.37909 0.81486 0.32974 0.0
O391 O 0.38544 0.82872 0.30021 0.0
O392 O 0.33998 0.78321 0.3373 0.0
C393 C 0.3629 0.87784 0.19889 0.0
O394 O 0.31134 0.86795 0.19034 0.0
C395 C 0.3406 0.6904 0.24909 0.0
Zn396 Zn 0.27039 0.745 0.46778 0.0
Zn397 Zn 0.24602 0.81434 0.51871 0.0
O398 O 0.32905 0.82091 0.51764 0.0
O399 O 0.35114 0.76637 0.47641 0.0
O400 O 0.22456 0.85718 0.5588 0.0
O401 O 0.23254 0.67999 0.48918 0.0
O402 O 0.20823 0.74098 0.52659 0.0
C403 C 0.36507 0.80126 0.49867 0.0
C404 C 0.2063 0.84292 0.45041 0.0
O405 O 0.21255 0.85581 0.48064 0.0
O406 O 0.22405 0.79737 0.43929 0.0
C407 C 0.23283 0.90843 0.56316 0.0
O408 O 0.25832 0.93612 0.54069 0.0
C409 C 0.20615 0.69238 0.51457 0.0
Zn410 Zn 0.30552 0.75884 0.71064 0.0
Zn411 Zn 0.24788 0.7257 0.76355 0.0
O412 O 0.23128 0.80783 0.7596 0.0
O413 O 0.28839 0.83796 0.72288 0.0
O414 O 0.20806 0.69991 0.80351 0.0
O415 O 0.3726 0.71765 0.72743 0.0
O416 O 0.32632 0.69941 0.77176 0.0
C417 C 0.25042 0.84709 0.74296 0.0
C418 C 0.21265 0.68675 0.69522 0.0
O419 O 0.20988 0.68326 0.72619 0.0
O420 O 0.24784 0.71785 0.68247 0.0
C421 C 0.15583 0.7002 0.8039 0.0
O422 O 0.12839 0.72049 0.77878 0.0
C423 C 0.37021 0.69681 0.75553 0.0
Zn424 Zn 0.76913 0.25164 0.56714 0.0
Zn425 Zn 0.83241 0.22296 0.51474 0.0
O426 O 0.84318 0.30568 0.51975 0.0
O427 O 0.78589 0.33162 0.55795 0.0
O428 O 0.87327 0.20012 0.47466 0.0
O429 O 0.70388 0.21039 0.54571 0.0
O430 O 0.75681 0.19198 0.50393 0.0
C431 C 0.82239 0.3434 0.53755 0.0
C432 C 0.86554 0.18423 0.58251 0.0
O433 O 0.87155 0.18324 0.55164 0.0
O434 O 0.82651 0.21096 0.59521 0.0
C435 C 0.92494 0.20484 0.47195 0.0
O436 O 0.95409 0.22834 0.49592 0.0
C437 C 0.7107 0.18891 0.51762 0.0
Zn438 Zn 0.79322 0.24174 0.80755 0.0
Zn439 Zn 0.82451 0.30177 0.75499 0.0
O440 O 0.74292 0.31813 0.75985 0.0
O441 O 0.71383 0.25965 0.79624 0.0
O442 O 0.84866 0.34347 0.71528 0.0
O443 O 0.83417 0.17574 0.78926 0.0
O444 O 0.84955 0.2236 0.74502 0.0
C445 C 0.70422 0.29849 0.77663 0.0
C446 C 0.86568 0.33394 0.82356 0.0
O447 O 0.86839 0.33791 0.7926 0.0
O448 O 0.83486 0.29828 0.83612 0.0
C449 C 0.84713 0.39575 0.71491 0.0
O450 O 0.82687 0.42247 0.74013 0.0
C451 C 0.85311 0.17906 0.76077 0.0
Zn452 Zn 0.80433 0.28359 0.05717 0.0
Zn453 Zn 0.73549 0.31653 0.00736 0.0
O454 O 0.7196 0.23441 0.01151 0.0
O455 O 0.78128 0.20421 0.04711 0.0
O456 O 0.69225 0.33979 0.96724 0.0
O457 O 0.86958 0.32218 0.0361 0.0
O458 O 0.81135 0.345 0.99655 0.0
C459 C 0.74016 0.1952 0.02799 0.0
C460 C 0.71347 0.35558 0.07658 0.0
O461 O 0.70297 0.35795 0.04589 0.0
O462 O 0.75291 0.32659 0.08748 0.0
C463 C 0.64191 0.32895 0.96103 0.0
O464 O 0.61392 0.30044 0.98204 0.0
C465 C 0.85957 0.34572 0.00919 0.0
Zn466 Zn 0.79557 0.26251 0.22936 0.0
Zn467 Zn 0.72851 0.21482 0.27352 0.0
O468 O 0.69811 0.29311 0.2682 0.0
O469 O 0.75748 0.33521 0.23731 0.0
O470 O 0.69052 0.18095 0.3118 0.0
O471 O 0.86567 0.23904 0.25384 0.0
O472 O 0.80764 0.1986 0.28616 0.0
C473 C 0.71327 0.33588 0.2531 0.0
C474 C 0.7214 0.17395 0.20382 0.0
O475 O 0.7066 0.16948 0.23336 0.0
O476 O 0.75683 0.20967 0.1961 0.0
C477 C 0.63935 0.18018 0.31715 0.0
O478 O 0.60526 0.20402 0.29642 0.0
C479 C 0.85659 0.20856 0.27792 0.0
loop_
_geom_bond_atom_site_label_1
_geom_bond_atom_site_label_2
_geom_bond_distance
_geom_bond_site_symmetry_2
_ccdc_geom_bond_type
C0 C1 1.384 . S
C0 C2 1.384 . S
C0 H28 0.931 . S
C1 C0 1.384 . S
C1 C4 1.382 . S
C2 C0 1.384 . S
C2 C3 1.381 . S
C2 H29 0.930 . S
C3 C2 1.381 . S
C3 C5 1.381 . S
C3 C6 1.487 . S
C4 C1 1.382 . S
C4 C5 1.387 . S
C4 H30 0.930 . S
C5 C3 1.381 . S
C5 C4 1.387 . S
C5 H31 0.931 1_565 S
C6 C3 1.487 . S
C6 C13 1.399 . S
C6 N44 1.343 1_565 S
C7 C8 1.384 . S
C7 C9 1.384 . S
C7 H32 0.931 . S
C8 C7 1.384 . S
C8 C11 1.382 . S
C9 C7 1.384 . S
C9 C10 1.381 . S
C9 H33 0.930 . S
C10 C9 1.381 . S
C10 C12 1.381 . S
C10 C13 1.487 . S
C11 C8 1.382 . S
C11 C12 1.387 . S
C11 H34 0.930 . S
C12 C10 1.381 . S
C12 C11 1.387 . S
C12 H35 0.931 . S
C13 C6 1.399 . S
C13 C10 1.487 . S
C13 N45 1.343 1_565 S
C14 C15 1.384 . S
C14 C16 1.384 . S
C14 H36 0.931 . S
C15 C14 1.384 . S
C15 C18 1.382 . S
C16 C14 1.384 . S
C16 C17 1.381 . S
C16 H37 0.930 1_655 S
C17 C16 1.381 . S
C17 C19 1.381 . S
C17 C20 1.487 1_655 S
C18 C15 1.382 . S
C18 C19 1.387 . S
C18 H38 0.930 . S
C19 C17 1.381 . S
C19 C18 1.387 . S
C19 H39 0.931 . S
C20 C17 1.487 1_455 S
C20 C27 1.399 . S
C20 N45 1.343 . S
C21 C22 1.384 . S
C21 C23 1.384 . S
C21 H40 0.931 . S
C22 C21 1.384 . S
C22 C25 1.382 . S
C23 C21 1.384 . S
C23 C24 1.380 1_655 S
C23 H41 0.930 . S
C24 C23 1.380 1_455 S
C24 C26 1.382 . S
C24 C27 1.488 . S
C25 C22 1.382 . S
C25 C26 1.387 1_655 S
C25 H42 0.930 . S
C26 C24 1.382 . S
C26 C25 1.387 1_455 S
C26 H43 0.931 . S
C27 C20 1.399 . S
C27 C24 1.488 . S
C27 N44 1.343 . S
H28 C0 0.931 . S
H29 C2 0.930 . S
H30 C4 0.930 . S
H31 C5 0.931 1_545 S
H32 C7 0.931 . S
H33 C9 0.930 . S
H34 C11 0.930 . S
H35 C12 0.931 . S
H36 C14 0.931 . S
H37 C16 0.930 1_455 S
H38 C18 0.930 . S
H39 C19 0.931 . S
H40 C21 0.931 . S
H41 C23 0.930 . S
H42 C25 0.930 . S
H43 C26 0.931 . S
N44 C6 1.343 1_545 S
N44 C27 1.343 . S
N45 C13 1.343 1_545 S
N45 C20 1.343 . S
C46 C47 1.384 . S
C46 C48 1.384 . S
C46 H74 0.931 . S
C47 C46 1.384 . S
C47 C50 1.382 . S
C48 C46 1.384 . S
C48 C49 1.381 . S
C48 H75 0.930 . S
C49 C48 1.381 . S
C49 C51 1.381 . S
C49 C52 1.487 . S
C50 C47 1.382 . S
C50 C51 1.387 . S
C50 H76 0.930 . S
C51 C49 1.381 . S
C51 C50 1.387 . S
C51 H77 0.931 1_655 S
C52 C49 1.487 . S
C52 C59 1.399 . S
C52 N90 1.343 1_655 S
C53 C54 1.384 . S
C53 C55 1.384 . S
C53 H78 0.931 . S
C54 C53 1.384 . S
C54 C57 1.382 . S
C55 C53 1.384 . S
C55 C56 1.381 . S
C55 H79 0.930 . S
C56 C55 1.381 . S
C56 C58 1.381 . S
C56 C59 1.487 . S
C57 C54 1.382 . S
C57 C58 1.387 . S
C57 H80 0.930 . S
C58 C56 1.381 . S
C58 C57 1.387 . S
C58 H81 0.931 . S
C59 C52 1.399 . S
C59 C56 1.487 . S
C59 N91 1.343 1_655 S
C60 C61 1.384 . S
C60 C62 1.384 . S
C60 H82 0.931 . S
C61 C60 1.384 . S
C61 C64 1.382 . S
C62 C60 1.384 . S
C62 C63 1.381 . S
C62 H83 0.930 . S
C63 C62 1.381 . S
C63 C65 1.381 . S
C63 C66 1.487 . S
C64 C61 1.382 . S
C64 C65 1.387 . S
C64 H84 0.930 . S
C65 C63 1.381 . S
C65 C64 1.387 . S
C65 H85 0.931 . S
C66 C63 1.487 . S
C66 C73 1.399 . S
C66 N91 1.343 . S
C67 C68 1.384 . S
C67 C69 1.384 . S
C67 H86 0.931 . S
C68 C67 1.384 . S
C68 C71 1.382 . S
C69 C67 1.384 . S
C69 C70 1.381 . S
C69 H87 0.930 . S
C70 C69 1.381 . S
C70 C72 1.381 . S
C70 C73 1.487 . S
C71 C68 1.382 . S
C71 C72 1.387 . S
C71 H88 0.930 . S
C72 C70 1.381 . S
C72 C71 1.387 . S
C72 H89 0.931 . S
C73 C66 1.399 . S
C73 C70 1.487 . S
C73 N90 1.343 . S
H74 C46 0.931 . S
H75 C48 0.930 . S
H76 C50 0.930 . S
H77 C51 0.931 1_455 S
H78 C53 0.931 . S
H79 C55 0.930 . S
H80 C57 0.930 . S
H81 C58 0.931 . S
H82 C60 0.931 . S
H83 C62 0.930 . S
H84 C64 0.930 . S
H85 C65 0.931 . S
H86 C67 0.931 . S
H87 C69 0.930 . S
H88 C71 0.930 . S
H89 C72 0.931 . S
N90 C52 1.343 1_455 S
N90 C73 1.343 . S
N91 C59 1.343 1_455 S
N91 C66 1.343 . S
C92 C93 1.384 . S
C92 C94 1.384 . S
C92 H120 0.931 . S
C93 C92 1.384 . S
C93 C96 1.382 . S
C94 C92 1.384 . S
C94 C95 1.381 . S
C94 H121 0.930 . S
C95 C94 1.381 . S
C95 C97 1.381 . S
C95 C98 1.487 . S
C96 C93 1.382 . S
C96 C97 1.387 . S
C96 H122 0.930 . S
C97 C95 1.381 . S
C97 C96 1.387 . S
C97 H123 0.931 . S
C98 C95 1.487 . S
C98 C105 1.399 . S
C98 N136 1.343 . S
C99 C100 1.384 . S
C99 C101 1.384 . S
C99 H124 0.931 . S
C100 C99 1.384 . S
C100 C103 1.382 . S
C101 C99 1.384 . S
C101 C102 1.381 . S
C101 H125 0.930 . S
C102 C101 1.381 . S
C102 C104 1.381 . S
C102 C105 1.487 . S
C103 C100 1.382 . S
C103 C104 1.387 . S
C103 H126 0.930 . S
C104 C102 1.381 . S
C104 C103 1.387 . S
C104 H127 0.931 . S
C105 C98 1.399 . S
C105 C102 1.487 . S
C105 N137 1.343 . S
C106 C107 1.384 . S
C106 C108 1.384 . S
C106 H128 0.931 . S
C107 C106 1.384 . S
C107 C110 1.382 . S
C108 C106 1.384 . S
C108 C109 1.381 . S
C108 H129 0.930 . S
C109 C108 1.381 . S
C109 C111 1.381 . S
C109 C112 1.487 . S
C110 C107 1.382 . S
C110 C111 1.387 . S
C110 H130 0.930 . S
C111 C109 1.381 . S
C111 C110 1.387 . S
C111 H131 0.931 . S
C112 C109 1.487 . S
C112 C119 1.399 . S
C112 N137 1.343 . S
C113 C114 1.384 . S
C113 C115 1.384 . S
C113 H132 0.931 . S
C114 C113 1.384 . S
C114 C117 1.382 . S
C115 C113 1.384 . S
C115 C116 1.381 . S
C115 H133 0.930 . S
C116 C115 1.381 . S
C116 C118 1.381 . S
C116 C119 1.487 . S
C117 C114 1.382 . S
C117 C118 1.387 . S
C117 H134 0.930 . S
C118 C116 1.381 . S
C118 C117 1.387 . S
C118 H135 0.931 . S
C119 C112 1.399 . S
C119 C116 1.487 . S
C119 N136 1.343 . S
H120 C92 0.931 . S
H121 C94 0.930 . S
H122 C96 0.930 . S
H123 C97 0.931 . S
H124 C99 0.931 . S
H125 C101 0.930 . S
H126 C103 0.930 . S
H127 C104 0.931 . S
H128 C106 0.931 . S
H129 C108 0.930 . S
H130 C110 0.930 . S
H131 C111 0.931 . S
H132 C113 0.931 . S
H133 C115 0.930 . S
H134 C117 0.930 . S
H135 C118 0.931 . S
N136 C98 1.343 . S
N136 C119 1.343 . S
N137 C105 1.343 . S
N137 C112 1.343 . S
C138 C139 1.384 . S
C138 C140 1.384 . S
C138 H166 0.931 . S
C139 C138 1.384 . S
C139 C142 1.382 . S
C140 C138 1.384 . S
C140 C141 1.381 . S
C140 H167 0.930 . S
C141 C140 1.381 . S
C141 C143 1.381 . S
C141 C144 1.487 . S
C142 C139 1.382 . S
C142 C143 1.387 . S
C142 H168 0.930 1_554 S
C143 C141 1.381 . S
C143 C142 1.387 . S
C143 H169 0.931 . S
C144 C141 1.487 . S
C144 C151 1.399 . S
C144 N182 1.343 1_565 S
C145 C146 1.384 . S
C145 C147 1.384 . S
C145 H170 0.931 . S
C146 C145 1.384 . S
C146 C149 1.382 . S
C147 C145 1.384 . S
C147 C148 1.381 . S
C147 H171 0.930 . S
C148 C147 1.381 . S
C148 C150 1.381 . S
C148 C151 1.487 . S
C149 C146 1.382 . S
C149 C150 1.387 . S
C149 H172 0.930 . S
C150 C148 1.381 . S
C150 C149 1.387 . S
C150 H173 0.931 . S
C151 C144 1.399 . S
C151 C148 1.487 . S
C151 N183 1.330 1_565 S
C152 C153 1.384 . S
C152 C154 1.384 . S
C152 H174 0.931 . S
C153 C152 1.384 . S
C153 C156 1.382 . S
C154 C152 1.384 . S
C154 C155 1.381 . S
C154 H175 0.930 . S
C155 C154 1.381 . S
C155 C157 1.381 . S
C155 C158 1.487 . S
C156 C153 1.382 . S
C156 C157 1.387 . S
C156 H176 0.930 . S
C157 C155 1.381 . S
C157 C156 1.387 . S
C157 H177 0.931 . S
C158 C155 1.487 . S
C158 C165 1.399 . S
C158 N183 1.359 . S
C159 C160 1.384 . S
C159 C161 1.384 . S
C159 H178 0.931 . S
C160 C159 1.384 . S
C160 C163 1.382 . S
C161 C159 1.384 . S
C161 C162 1.381 . S
C161 H179 0.930 . S
C162 C161 1.381 . S
C162 C164 1.381 . S
C162 C165 1.487 . S
C163 C160 1.382 . S
C163 C164 1.387 . S
C163 H180 0.930 1_554 S
C164 C162 1.381 . S
C164 C163 1.387 . S
C164 H181 0.931 . S
C165 C158 1.399 . S
C165 C162 1.487 . S
C165 N182 1.343 . S
H166 C138 0.931 . S
H167 C140 0.930 . S
H168 C142 0.930 1_556 S
H169 C143 0.931 . S
H170 C145 0.931 . S
H171 C147 0.930 . S
H172 C149 0.930 . S
H173 C150 0.931 . S
H174 C152 0.931 . S
H175 C154 0.930 . S
H176 C156 0.930 . S
H177 C157 0.931 . S
H178 C159 0.931 . S
H179 C161 0.930 . S
H180 C163 0.930 1_556 S
H181 C164 0.931 . S
N182 C144 1.343 1_545 S
N182 C165 1.343 . S
N183 C151 1.330 1_545 S
N183 C158 1.359 . S
C184 C185 1.384 . S
C184 C186 1.384 . S
C184 H212 0.931 . S
C185 C184 1.384 . S
C185 C188 1.382 . S
C186 C184 1.384 . S
C186 C187 1.381 . S
C186 H213 0.930 . S
C187 C186 1.381 . S
C187 C189 1.381 . S
C187 C190 1.487 . S
C188 C185 1.382 . S
C188 C189 1.387 . S
C188 H214 0.930 . S
C189 C187 1.381 . S
C189 C188 1.387 . S
C189 H215 0.931 . S
C190 C187 1.487 . S
C190 C197 1.399 . S
C190 N228 1.351 . S
C191 C192 1.384 1_556 S
C191 C193 1.384 . S
C191 H216 0.931 . S
C192 C191 1.384 1_554 S
C192 C195 1.382 . S
C193 C191 1.384 . S
C193 C194 1.381 . S
C193 H217 0.930 . S
C194 C193 1.381 . S
C194 C196 1.381 . S
C194 C197 1.487 . S
C195 C192 1.382 . S
C195 C196 1.387 1_554 S
C195 H218 0.930 . S
C196 C194 1.381 . S
C196 C195 1.387 1_556 S
C196 H219 0.931 1_556 S
C197 C190 1.399 . S
C197 C194 1.487 . S
C197 N229 1.349 . S
C198 C199 1.384 1_556 S
C198 C200 1.384 . S
C198 H220 0.931 . S
C199 C198 1.384 1_554 S
C199 C202 1.382 . S
C200 C198 1.384 . S
C200 C201 1.381 . S
C200 H221 0.930 . S
C201 C200 1.381 . S
C201 C203 1.381 . S
C201 C204 1.487 . S
C202 C199 1.382 . S
C202 C203 1.387 1_554 S
C202 H222 0.930 . S
C203 C201 1.381 . S
C203 C202 1.387 1_556 S
C203 H223 0.931 . S
C204 C201 1.487 . S
C204 C211 1.399 . S
C204 N229 1.337 1_655 S
C205 C206 1.384 . S
C205 C207 1.384 . S
C205 H224 0.931 . S
C206 C205 1.384 . S
C206 C209 1.382 . S
C207 C205 1.384 . S
C207 C208 1.381 . S
C207 H225 0.930 . S
C208 C207 1.381 . S
C208 C210 1.381 . S
C208 C211 1.487 . S
C209 C206 1.382 . S
C209 C210 1.387 . S
C209 H226 0.930 . S
C210 C208 1.381 . S
C210 C209 1.387 . S
C210 H227 0.931 . S
C211 C204 1.399 . S
C211 C208 1.487 . S
C211 N228 1.335 1_655 S
H212 C184 0.931 . S
H213 C186 0.930 . S
H214 C188 0.930 . S
H215 C189 0.931 . S
H216 C191 0.931 . S
H217 C193 0.930 . S
H218 C195 0.930 . S
H219 C196 0.931 1_554 S
H220 C198 0.931 . S
H221 C200 0.930 . S
H222 C202 0.930 . S
H223 C203 0.931 . S
H224 C205 0.931 . S
H225 C207 0.930 . S
H226 C209 0.930 . S
H227 C210 0.931 . S
N228 C190 1.351 . S
N228 C211 1.335 1_455 S
N229 C197 1.349 . S
N229 C204 1.337 1_455 S
C230 C231 1.384 . S
C230 C232 1.384 . S
C230 H258 0.931 . S
C231 C230 1.384 . S
C231 C234 1.382 . S
C232 C230 1.384 . S
C232 C233 1.381 . S
C232 H259 0.930 . S
C233 C232 1.381 . S
C233 C235 1.381 . S
C233 C236 1.487 . S
C234 C231 1.382 . S
C234 C235 1.387 . S
C234 H260 0.930 . S
C235 C233 1.381 . S
C235 C234 1.387 . S
C235 H261 0.931 . S
C236 C233 1.487 . S
C236 C243 1.399 . S
C236 N274 1.343 . S
C237 C238 1.384 . S
C237 C239 1.384 . S
C237 H262 0.931 . S
C238 C237 1.384 . S
C238 C241 1.382 . S
C239 C237 1.384 . S
C239 C240 1.381 . S
C239 H263 0.930 . S
C240 C239 1.381 . S
C240 C242 1.381 . S
C240 C243 1.487 . S
C241 C238 1.382 . S
C241 C242 1.387 . S
C241 H264 0.930 . S
C242 C240 1.381 . S
C242 C241 1.387 . S
C242 H265 0.931 . S
C243 C236 1.399 . S
C243 C240 1.487 . S
C243 N275 1.343 . S
C244 C245 1.384 . S
C244 C246 1.384 . S
C244 H266 0.931 . S
C245 C244 1.384 . S
C245 C248 1.382 . S
C246 C244 1.384 . S
C246 C247 1.381 . S
C246 H267 0.930 . S
C247 C246 1.381 . S
C247 C249 1.381 . S
C247 C250 1.487 . S
C248 C245 1.382 . S
C248 C249 1.387 . S
C248 H268 0.930 . S
C249 C247 1.381 . S
C249 C248 1.387 . S
C249 H269 0.931 . S
C250 C247 1.487 . S
C250 C257 1.399 . S
C250 N275 1.343 . S
C251 C252 1.384 . S
C251 C253 1.384 . S
C251 H270 0.931 . S
C252 C251 1.384 . S
C252 C255 1.382 . S
C253 C251 1.384 . S
C253 C254 1.381 . S
C253 H271 0.930 . S
C254 C253 1.381 . S
C254 C256 1.381 . S
C254 C257 1.487 . S
C255 C252 1.382 . S
C255 C256 1.387 . S
C255 H272 0.930 . S
C256 C254 1.381 . S
C256 C255 1.387 . S
C256 H273 0.931 . S
C257 C250 1.399 . S
C257 C254 1.487 . S
C257 N274 1.343 . S
H258 C230 0.931 . S
H259 C232 0.930 . S
H260 C234 0.930 . S
H261 C235 0.931 . S
H262 C237 0.931 . S
H263 C239 0.930 . S
H264 C241 0.930 . S
H265 C242 0.931 . S
H266 C244 0.931 . S
H267 C246 0.930 . S
H268 C248 0.930 . S
H269 C249 0.931 . S
H270 C251 0.931 . S
H271 C253 0.930 . S
H272 C255 0.930 . S
H273 C256 0.931 . S
N274 C236 1.343 . S
N274 C257 1.343 . S
N275 C243 1.343 . S
N275 C250 1.343 . S
C276 C277 1.384 . S
C276 C278 1.384 . S
C276 H304 0.931 . S
C277 C276 1.384 . S
C277 C280 1.382 . S
C278 C276 1.384 . S
C278 C279 1.381 . S
C278 H305 0.930 . S
C279 C278 1.381 . S
C279 C281 1.381 . S
C279 C282 1.487 . S
C280 C277 1.382 . S
C280 C281 1.387 . S
C280 H306 0.930 . S
C281 C279 1.381 . S
C281 C280 1.387 . S
C281 H307 0.931 . S
C282 C279 1.487 . S
C282 C289 1.399 . S
C282 N320 1.343 1_565 S
C283 C284 1.384 . S
C283 C285 1.384 . S
C283 H308 0.931 . S
C284 C283 1.384 . S
C284 C287 1.382 . S
C285 C283 1.384 . S
C285 C286 1.381 . S
C285 H309 0.930 . S
C286 C285 1.381 . S
C286 C288 1.381 . S
C286 C289 1.487 . S
C287 C284 1.382 . S
C287 C288 1.387 . S
C287 H310 0.930 . S
C288 C286 1.381 . S
C288 C287 1.387 . S
C288 H311 0.931 . S
C289 C282 1.399 . S
C289 C286 1.487 . S
C289 N321 1.336 1_565 S
C290 C291 1.384 . S
C290 C292 1.384 . S
C290 H312 0.931 . S
C291 C290 1.384 . S
C291 C294 1.382 . S
C292 C290 1.384 . S
C292 C293 1.381 . S
C292 H313 0.930 . S
C293 C292 1.381 . S
C293 C295 1.381 . S
C293 C296 1.487 . S
C294 C291 1.382 . S
C294 C295 1.387 . S
C294 H314 0.930 . S
C295 C293 1.381 . S
C295 C294 1.387 . S
C295 H315 0.931 . S
C296 C293 1.487 . S
C296 C303 1.399 . S
C296 N321 1.351 . S
C297 C298 1.384 . S
C297 C299 1.384 . S
C297 H316 0.931 . S
C298 C297 1.384 . S
C298 C301 1.382 . S
C299 C297 1.384 . S
C299 C300 1.381 . S
C299 H317 0.930 . S
C300 C299 1.381 . S
C300 C302 1.381 . S
C300 C303 1.487 . S
C301 C298 1.382 . S
C301 C302 1.387 . S
C301 H318 0.930 . S
C302 C300 1.381 . S
C302 C301 1.387 . S
C302 H319 0.931 . S
C303 C296 1.399 . S
C303 C300 1.487 . S
C303 N320 1.343 . S
H304 C276 0.931 . S
H305 C278 0.930 . S
H306 C280 0.930 . S
H307 C281 0.931 . S
H308 C283 0.931 . S
H309 C285 0.930 . S
H310 C287 0.930 . S
H311 C288 0.931 . S
H312 C290 0.931 . S
H313 C292 0.930 . S
H314 C294 0.930 . S
H315 C295 0.931 . S
H316 C297 0.931 . S
H317 C299 0.930 . S
H318 C301 0.930 . S
H319 C302 0.931 . S
N320 C282 1.343 1_545 S
N320 C303 1.343 . S
N321 C289 1.336 1_545 S
N321 C296 1.351 . S
C322 C323 1.384 . S
C322 C324 1.384 . S
C322 H350 0.931 . S
C323 C322 1.384 . S
C323 C326 1.382 . S
C324 C322 1.384 . S
C324 C325 1.381 . S
C324 H351 0.930 . S
C325 C324 1.381 . S
C325 C327 1.381 . S
C325 C328 1.487 1_565 S
C326 C323 1.382 . S
C326 C327 1.387 . S
C326 H352 0.930 . S
C327 C325 1.381 . S
C327 C326 1.387 . S
C327 H353 0.931 . S
C328 C325 1.487 1_545 S
C328 C335 1.399 . S
C328 N366 1.343 . S
C329 C330 1.384 . S
C329 C331 1.384 . S
C329 H354 0.931 . S
C330 C329 1.384 . S
C330 C333 1.382 . S
C331 C329 1.384 . S
C331 C332 1.381 . S
C331 H355 0.930 . S
C332 C331 1.381 . S
C332 C334 1.381 1_565 S
C332 C335 1.487 1_565 S
C333 C330 1.382 . S
C333 C334 1.387 1_565 S
C333 H356 0.930 . S
C334 C332 1.381 1_545 S
C334 C333 1.387 1_545 S
C334 H357 0.931 . S
C335 C328 1.399 . S
C335 C332 1.487 1_545 S
C335 N367 1.343 . S
C336 C337 1.384 . S
C336 C338 1.384 . S
C336 H358 0.931 . S
C337 C336 1.384 . S
C337 C340 1.382 . S
C338 C336 1.384 . S
C338 C339 1.381 . S
C338 H359 0.930 . S
C339 C338 1.381 . S
C339 C341 1.381 1_655 S
C339 C342 1.487 1_655 S
C340 C337 1.382 . S
C340 C341 1.387 1_655 S
C340 H360 0.930 1_655 S
C341 C339 1.381 1_455 S
C341 C340 1.387 1_455 S
C341 H361 0.931 . S
C342 C339 1.487 1_455 S
C342 C349 1.399 . S
C342 N367 1.343 . S
C343 C344 1.384 . S
C343 C345 1.376 1_655 S
C343 H362 0.931 . S
C344 C343 1.384 . S
C344 C347 1.382 . S
C345 C343 1.376 1_455 S
C345 C346 1.380 1_455 S
C345 H363 0.940 . S
C346 C345 1.380 1_655 S
C346 C348 1.381 . S
C346 C349 1.487 1_655 S
C347 C344 1.382 . S
C347 C348 1.387 . S
C347 H364 0.930 . S
C348 C346 1.381 . S
C348 C347 1.387 . S
C348 H365 0.931 . S
C349 C342 1.399 . S
C349 C346 1.487 1_455 S
C349 N366 1.343 . S
H350 C322 0.931 . S
H351 C324 0.930 . S
H352 C326 0.930 . S
H353 C327 0.931 . S
H354 C329 0.931 . S
H355 C331 0.930 . S
H356 C333 0.930 . S
H357 C334 0.931 . S
H358 C336 0.931 . S
H359 C338 0.930 . S
H360 C340 0.930 1_455 S
H361 C341 0.931 . S
H362 C343 0.931 . S
H363 C345 0.940 . S
H364 C347 0.930 . S
H365 C348 0.931 . S
N366 C328 1.343 . S
N366 C349 1.343 . S
N367 C335 1.343 . S
N367 C342 1.343 . S
Zn368 O371 2.031 . S
Zn368 O373 2.049 . S
Zn368 O378 2.067 . S
Zn369 O370 1.962 . S
Zn369 O372 1.986 . S
Zn369 O374 1.996 . S
Zn369 O377 1.943 1_554 S
O370 Zn369 1.962 . S
O370 C375 1.254 1_554 S
O371 Zn368 2.031 . S
O371 C375 1.269 . S
O372 Zn369 1.986 . S
O372 C379 1.262 . S
O373 Zn368 2.049 . S
O373 C381 1.260 1_556 S
O374 Zn369 1.996 . S
O374 C381 1.257 . S
C375 O370 1.254 1_556 S
C375 O371 1.269 . S
C376 O377 1.249 . S
C376 O378 1.270 . S
O377 Zn369 1.943 1_556 S
O377 C376 1.249 . S
O378 Zn368 2.067 . S
O378 C376 1.270 . S
C379 O372 1.262 . S
C379 O380 1.232 . S
O380 C379 1.232 . S
C381 O373 1.260 1_554 S
C381 O374 1.257 . S
Zn382 O385 2.031 . S
Zn382 O387 2.049 . S
Zn382 O392 2.067 . S
Zn383 O384 1.962 . S
Zn383 O386 1.986 . S
Zn383 O388 1.996 . S
Zn383 O391 1.943 . S
O384 Zn383 1.962 . S
O384 C389 1.254 . S
O385 Zn382 2.031 . S
O385 C389 1.269 . S
O386 Zn383 1.986 . S
O386 C393 1.262 . S
O387 Zn382 2.049 . S
O387 C395 1.260 . S
O388 Zn383 1.996 . S
O388 C395 1.257 . S
C389 O384 1.254 . S
C389 O385 1.269 . S
C390 O391 1.249 . S
C390 O392 1.270 . S
O391 Zn383 1.943 . S
O391 C390 1.249 . S
O392 Zn382 2.067 . S
O392 C390 1.270 . S
C393 O386 1.262 . S
C393 O394 1.232 . S
O394 C393 1.232 . S
C395 O387 1.260 . S
C395 O388 1.257 . S
Zn396 O399 2.031 . S
Zn396 O401 2.049 . S
Zn396 O406 2.067 . S
Zn397 O398 1.962 . S
Zn397 O400 1.986 . S
Zn397 O402 1.996 . S
Zn397 O405 1.943 . S
O398 Zn397 1.962 . S
O398 C403 1.254 . S
O399 Zn396 2.031 . S
O399 C403 1.269 . S
O400 Zn397 1.986 . S
O400 C407 1.262 . S
O401 Zn396 2.049 . S
O401 C409 1.260 . S
O402 Zn397 1.996 . S
O402 C409 1.257 . S
C403 O398 1.254 . S
C403 O399 1.269 . S
C404 O405 1.249 . S
C404 O406 1.270 . S
O405 Zn397 1.943 . S
O405 C404 1.249 . S
O406 Zn396 2.067 . S
O406 C404 1.270 . S
C407 O400 1.262 . S
C407 O408 1.232 . S
O408 C407 1.232 . S
C409 O401 1.260 . S
C409 O402 1.257 . S
Zn410 O413 2.031 . S
Zn410 O415 2.049 . S
Zn410 O420 2.067 . S
Zn411 O412 1.962 . S
Zn411 O414 1.986 . S
Zn411 O416 1.996 . S
Zn411 O419 1.943 . S
O412 Zn411 1.962 . S
O412 C417 1.254 . S
O413 Zn410 2.031 . S
O413 C417 1.269 . S
O414 Zn411 1.986 . S
O414 C421 1.262 . S
O415 Zn410 2.049 . S
O415 C423 1.260 . S
O416 Zn411 1.996 . S
O416 C423 1.257 . S
C417 O412 1.254 . S
C417 O413 1.269 . S
C418 O419 1.249 . S
C418 O420 1.270 . S
O419 Zn411 1.943 . S
O419 C418 1.249 . S
O420 Zn410 2.067 . S
O420 C418 1.270 . S
C421 O414 1.262 . S
C421 O422 1.232 . S
O422 C421 1.232 . S
C423 O415 1.260 . S
C423 O416 1.257 . S
Zn424 O427 2.031 . S
Zn424 O429 2.049 . S
Zn424 O434 2.067 . S
Zn425 O426 1.962 . S
Zn425 O428 1.986 . S
Zn425 O430 1.996 . S
Zn425 O433 1.943 . S
O426 Zn425 1.962 . S
O426 C431 1.254 . S
O427 Zn424 2.031 . S
O427 C431 1.269 . S
O428 Zn425 1.986 . S
O428 C435 1.262 . S
O429 Zn424 2.049 . S
O429 C437 1.260 . S
O430 Zn425 1.996 . S
O430 C437 1.257 . S
C431 O426 1.254 . S
C431 O427 1.269 . S
C432 O433 1.249 . S
C432 O434 1.270 . S
O433 Zn425 1.943 . S
O433 C432 1.249 . S
O434 Zn424 2.067 . S
O434 C432 1.270 . S
C435 O428 1.262 . S
C435 O436 1.232 . S
O436 C435 1.232 . S
C437 O429 1.260 . S
C437 O430 1.257 . S
Zn438 O441 2.031 . S
Zn438 O443 2.049 . S
Zn438 O448 2.067 . S
Zn439 O440 1.962 . S
Zn439 O442 1.986 . S
Zn439 O444 1.996 . S
Zn439 O447 1.943 . S
O440 Zn439 1.962 . S
O440 C445 1.254 . S
O441 Zn438 2.031 . S
O441 C445 1.269 . S
O442 Zn439 1.986 . S
O442 C449 1.262 . S
O443 Zn438 2.049 . S
O443 C451 1.260 . S
O444 Zn439 1.996 . S
O444 C451 1.257 . S
C445 O440 1.254 . S
C445 O441 1.269 . S
C446 O447 1.249 . S
C446 O448 1.270 . S
O447 Zn439 1.943 . S
O447 C446 1.249 . S
O448 Zn438 2.067 . S
O448 C446 1.270 . S
C449 O442 1.262 . S
C449 O450 1.232 . S
O450 C449 1.232 . S
C451 O443 1.260 . S
C451 O444 1.257 . S
Zn452 O455 2.031 . S
Zn452 O457 2.049 . S
Zn452 O462 2.067 . S
Zn453 O454 1.962 . S
Zn453 O456 1.986 . S
Zn453 O458 1.996 . S
Zn453 O461 1.943 1_556 S
O454 Zn453 1.962 . S
O454 C459 1.254 1_556 S
O455 Zn452 2.031 . S
O455 C459 1.269 . S
O456 Zn453 1.986 . S
O456 C463 1.262 . S
O457 Zn452 2.049 . S
O457 C465 1.273 . S
O458 Zn453 1.996 . S
O458 C465 1.253 1_556 S
C459 O454 1.254 1_554 S
C459 O455 1.269 . S
C460 O461 1.249 . S
C460 O462 1.270 . S
O461 Zn453 1.943 1_554 S
O461 C460 1.249 . S
O462 Zn452 2.067 . S
O462 C460 1.270 . S
C463 O456 1.262 . S
C463 O464 1.232 . S
O464 C463 1.232 . S
C465 O457 1.273 . S
C465 O458 1.253 1_554 S
Zn466 O469 2.031 . S
Zn466 O471 2.049 . S
Zn466 O476 2.067 . S
Zn467 O468 1.962 . S
Zn467 O470 1.986 . S
Zn467 O472 1.996 . S
Zn467 O475 1.943 . S
O468 Zn467 1.962 . S
O468 C473 1.254 . S
O469 Zn466 2.031 . S
O469 C473 1.269 . S
O470 Zn467 1.986 . S
O470 C477 1.262 . S
O471 Zn466 2.049 . S
O471 C479 1.260 . S
O472 Zn467 1.996 . S
O472 C479 1.257 . S
C473 O468 1.254 . S
C473 O469 1.269 . S
C474 O475 1.249 . S
C474 O476 1.270 . S
O475 Zn467 1.943 . S
O475 C474 1.249 . S
O476 Zn466 2.067 . S
O476 C474 1.270 . S
C477 O470 1.262 . S
C477 O478 1.232 . S
O478 C477 1.232 . S
C479 O471 1.260 . S
C479 O472 1.257 . S
C389 C8 1.914 . S
C409 C61 2.083 . S
C423 C107 2.003 . S
C139 C381 1.857 . S
C192 C375 2.161 1_554 S
C238 C395 1.778 . S
C403 C284 1.819 . S
C417 C330 2.016 . S
C100 C445 2.016 . S
C459 C160 1.825 . S
C15 C479 1.789 . S
C431 C54 2.161 . S
C291 C437 1.884 . S
C337 C451 2.003 . S
C465 C199 2.082 . S
C245 C473 1.937 . S
C404 C1 2.338 . S
C418 C68 2.409 . S
C114 C376 2.275 . S
C146 C393 1.948 . S
C185 C421 1.652 . S
C379 C231 1.681 . S
C390 C277 2.039 . S
C407 C323 1.763 . S
C463 C93 1.764 . S
C474 C153 2.004 . S
C22 C435 1.646 . S
C449 C47 1.652 . S
C477 C298 1.902 . S
C344 C432 2.275 . S
C446 C206 2.410 . S
C460 C252 2.291 . S
