# Generated by pormake.
# Topology pth, (4,4)-cn, num edge types: 1
# Building blocks:
#     Node 0, Type 0, BuildingBlock: CEKHIL_clean_sbu_0, # of connection points: 4
#     Node 1, Type 0, BuildingBlock: CEKHIL_clean_sbu_0, # of connection points: 4
#     Node 2, Type 0, BuildingBlock: CEKHIL_clean_sbu_0, # of connection points: 4
#     Node 3, Type 1, BuildingBlock: MUDLON_clean_linker_0, # of connection points: 4
#     Node 4, Type 1, BuildingBlock: MUDLON_clean_linker_0, # of connection points: 4
#     Node 5, Type 1, BuildingBlock: MUDLON_clean_linker_0, # of connection points: 4
#     Edge 6, Type (0, 1), BuildingBlock: EZIPEK_clean_linker_0, # of connection points: 2
#     Edge 7, Type (0, 1), BuildingBlock: EZIPEK_clean_linker_0, # of connection points: 2
#     Edge 8, Type (0, 1), BuildingBlock: EZIPEK_clean_linker_0, # of connection points: 2
#     Edge 9, Type (0, 1), BuildingBlock: EZIPEK_clean_linker_0, # of connection points: 2
#     Edge 10, Type (0, 1), BuildingBlock: EZIPEK_clean_linker_0, # of connection points: 2
#     Edge 11, Type (0, 1), BuildingBlock: EZIPEK_clean_linker_0, # of connection points: 2
#     Edge 12, Type (0, 1), BuildingBlock: EZIPEK_clean_linker_0, # of connection points: 2
#     Edge 13, Type (0, 1), BuildingBlock: EZIPEK_clean_linker_0, # of connection points: 2
#     Edge 14, Type (0, 1), BuildingBlock: EZIPEK_clean_linker_0, # of connection points: 2
#     Edge 15, Type (0, 1), BuildingBlock: EZIPEK_clean_linker_0, # of connection points: 2
#     Edge 16, Type (0, 1), BuildingBlock: EZIPEK_clean_linker_0, # of connection points: 2
#     Edge 17, Type (0, 1), BuildingBlock: EZIPEK_clean_linker_0, # of connection points: 2
# Relax obj value: 0.037
# Max RMSD: 0.091
# Mean RMSD: 0.088
data_MOF--net-pth--node1-CEKHIL_clean_sbu_0--node2-MUDLON_clean_linker_0--edge1-EZIPEK_clean_linker_0
_symmetry_space_group_name_H-M    P1
_symmetry_Int_Tables_number       1
_symmetry_cell_setting            triclinic
loop_
_symmetry_equiv_pos_as_xyz
'x, y, z'
_cell_length_a     26.627222
_cell_length_b     26.706055
_cell_length_c     55.102185
_cell_angle_alpha  91.011413
_cell_angle_beta   90.037703
_cell_angle_gamma 120.28047
loop_
_atom_site_label
_atom_site_type_symbol
_atom_site_fract_x
_atom_site_fract_y
_atom_site_fract_z
_atom_type_partial_charge
Co0 Co 0.0128 0.03152 0.05169 0.0
O1 O 0.97565 0.97274 0.07568 0.0
O2 O 0.05254 0.98738 0.05471 0.0
C3 C 0.01515 0.10233 0.07576 0.0
O4 O 0.0642 0.08997 0.02614 0.0
Co5 Co 0.94938 0.0911 0.03089 0.0
O6 O 0.02221 0.13984 0.01313 0.0
C7 C 0.91785 0.97448 0.01273 0.0
C8 C 0.01531 0.95926 0.07168 0.0
C9 C 0.06374 0.1292 0.01291 0.0
O10 O 0.9596 0.97664 0.02536 0.0
O11 O 0.90364 0.01364 0.01378 0.0
O12 O 0.0553 0.08866 0.07723 0.0
O13 O 0.97283 0.07088 0.06076 0.0
Co14 Co 0.00577 0.00988 0.36595 0.0
O15 O 0.97361 0.03008 0.33901 0.0
O16 O 0.04472 0.09353 0.36315 0.0
C17 C 0.01621 0.94064 0.34533 0.0
O18 O 0.05243 0.00587 0.3946 0.0
Co19 Co 0.9403 0.88963 0.38776 0.0
O20 O 0.01294 0.91341 0.40627 0.0
C21 C 0.90543 0.97376 0.40159 0.0
C22 C 0.0112 0.08375 0.34435 0.0
C23 C 0.05275 0.96645 0.40764 0.0
O24 O 0.94734 0.0118 0.38884 0.0
O25 O 0.89242 0.92078 0.40243 0.0
O26 O 0.05391 0.99545 0.34395 0.0
O27 O 0.96973 0.92945 0.35727 0.0
Co28 Co 0.99807 0.01384 0.69839 0.0
O29 O 0.05707 0.05393 0.67446 0.0
O30 O 0.04624 0.97858 0.69494 0.0
C31 C 0.92533 0.00804 0.67457 0.0
O32 O 0.94188 0.95936 0.72366 0.0
Co33 Co 0.92938 0.06637 0.7208 0.0
O34 O 0.88635 0.99342 0.73891 0.0
C35 C 0.04923 0.10828 0.73775 0.0
C36 C 0.0735 0.01661 0.67829 0.0
C37 C 0.90153 0.95531 0.73776 0.0
O38 O 0.05083 0.06835 0.72494 0.0
O39 O 0.00678 0.11789 0.73698 0.0
O40 O 0.9416 0.96983 0.67273 0.0
O41 O 0.95446 0.04991 0.69011 0.0
H42 H 0.8992 0.72174 0.21881 0.0
N43 N 0.96949 0.68613 0.2015 0.0
H44 H 0.91329 0.78167 0.25546 0.0
H45 H 0.0612 0.72787 0.23425 0.0
H46 H 0.07344 0.78472 0.27113 0.0
H47 H 0.07454 0.77996 0.18989 0.0
H48 H 0.09349 0.84339 0.15522 0.0
H49 H 0.89831 0.66925 0.16447 0.0
H50 H 0.91686 0.73349 0.13003 0.0
H51 H 0.89319 0.57486 0.20842 0.0
H52 H 0.07508 0.69265 0.19592 0.0
H53 H 0.91193 0.49449 0.21122 0.0
H54 H 0.09528 0.61431 0.20052 0.0
H55 H 0.95375 0.27158 0.23162 0.0
H56 H 0.94137 0.20832 0.26574 0.0
H57 H 0.12229 0.31784 0.28514 0.0
H58 H 0.13448 0.3814 0.25115 0.0
H59 H 0.1278 0.32959 0.19821 0.0
H60 H 0.11106 0.26666 0.16248 0.0
H61 H 0.9445 0.25314 0.15051 0.0
H62 H 0.96034 0.3143 0.18695 0.0
H63 H 0.9693 0.37247 0.2393 0.0
H64 H 0.94945 0.45124 0.23525 0.0
H65 H 0.08943 0.5327 0.18377 0.0
N66 N 0.05681 0.36273 0.21662 0.0
H67 H 0.11174 0.45581 0.18947 0.0
C68 C 0.97832 0.71919 0.22378 0.0
C69 C 0.93723 0.7352 0.2302 0.0
C70 C 0.94524 0.76929 0.25103 0.0
C71 C 0.99417 0.78719 0.26608 0.0
C72 C 0.03519 0.77098 0.25983 0.0
C73 C 0.02789 0.73809 0.23872 0.0
C74 C 0.98483 0.71965 0.17969 0.0
C75 C 0.04045 0.76836 0.17652 0.0
C76 C 0.05126 0.80458 0.15675 0.0
C77 C 0.00654 0.79304 0.14008 0.0
C78 C 0.95199 0.74288 0.14259 0.0
C79 C 0.94137 0.70644 0.16222 0.0
C80 C 0.98248 0.63977 0.20212 0.0
C81 C 0.93726 0.58334 0.20642 0.0
C82 C 0.94831 0.53758 0.20831 0.0
C83 C 0.00536 0.54743 0.20634 0.0
C84 C 0.05061 0.60427 0.20175 0.0
C85 C 0.03921 0.64967 0.19933 0.0
C86 C 0.04517 0.33145 0.23896 0.0
C87 C 0.99026 0.283 0.24366 0.0
C88 C 0.9832 0.24696 0.26308 0.0
C89 C 0.03094 0.25861 0.27792 0.0
C90 C 0.08491 0.3085 0.27399 0.0
C91 C 0.09184 0.34469 0.25469 0.0
C92 C 0.04577 0.32704 0.19507 0.0
C93 C 0.08773 0.31305 0.18787 0.0
C94 C 0.07817 0.27729 0.16756 0.0
C95 C 0.02659 0.25536 0.15387 0.0
C96 C 0.98455 0.26968 0.16087 0.0
C97 C 0.99367 0.30462 0.18156 0.0
C98 C 0.04287 0.4084 0.21489 0.0
C99 C 0.9963 0.40745 0.22736 0.0
C100 C 0.98442 0.45258 0.22475 0.0
C101 C 0.01777 0.499 0.20917 0.0
C102 C 0.06353 0.49892 0.19642 0.0
C103 C 0.07617 0.45462 0.19948 0.0
H104 H 0.821 0.14419 0.55838 0.0
N105 N 0.7197 0.07265 0.537 0.0
H106 H 0.86489 0.12497 0.59363 0.0
H107 H 0.66762 0.97579 0.56489 0.0
H108 H 0.71178 0.95618 0.60007 0.0
H109 H 0.70702 0.96675 0.52486 0.0
H110 H 0.74913 0.94522 0.48945 0.0
H111 H 0.76736 0.1389 0.49862 0.0
H112 H 0.80736 0.11633 0.46252 0.0
H113 H 0.70008 0.15597 0.5518 0.0
H114 H 0.61314 0.97923 0.52508 0.0
H115 H 0.60718 0.15328 0.55377 0.0
H116 H 0.51973 0.97654 0.52594 0.0
H117 H 0.34731 0.1483 0.57544 0.0
H118 H 0.28506 0.13 0.611 0.0
H119 H 0.20539 0.94584 0.59741 0.0
H120 H 0.26549 0.96428 0.56129 0.0
H121 H 0.31212 0.13955 0.52148 0.0
H122 H 0.24449 0.11497 0.48696 0.0
H123 H 0.22421 0.94441 0.48219 0.0
H124 H 0.29136 0.96884 0.51694 0.0
H125 H 0.44611 0.15514 0.53025 0.0
H126 H 0.53681 0.15341 0.5279 0.0
H127 H 0.44679 0.97582 0.55156 0.0
N128 N 0.34242 0.07076 0.54326 0.0
H129 H 0.35599 0.97738 0.55274 0.0
C130 C 0.74135 0.06159 0.55904 0.0
C131 C 0.79658 0.10349 0.56766 0.0
C132 C 0.82145 0.09255 0.5877 0.0
C133 C 0.79143 0.03928 0.59945 0.0
C134 C 0.73535 0.99769 0.59132 0.0
C135 C 0.71031 0.00882 0.57126 0.0
C136 C 0.73524 0.05512 0.51464 0.0
C137 C 0.72842 0.99962 0.51135 0.0
C138 C 0.75218 0.98716 0.49108 0.0
C139 C 0.78179 0.02941 0.47355 0.0
C140 C 0.7848 0.08328 0.47592 0.0
C141 C 0.76209 0.09612 0.49643 0.0
C142 C 0.66359 0.06827 0.53808 0.0
C143 C 0.66073 0.11668 0.5462 0.0
C144 C 0.60758 0.1151 0.54711 0.0
C145 C 0.55576 0.06494 0.53967 0.0
C146 C 0.55857 0.01581 0.53193 0.0
C147 C 0.612 0.01735 0.53124 0.0
C148 C 0.31164 0.05788 0.56589 0.0
C149 C 0.31723 0.10402 0.58045 0.0
C150 C 0.28186 0.09358 0.60068 0.0
C151 C 0.24069 0.03658 0.60684 0.0
C152 C 0.23717 0.99012 0.59303 0.0
C153 C 0.27176 1.00066 0.57249 0.0
C154 C 0.30691 0.05627 0.52166 0.0
C155 C 0.29368 0.09718 0.51276 0.0
C156 C 0.25529 0.08322 0.49314 0.0
C157 C 0.22975 0.02806 0.48204 0.0
C158 C 0.24397 0.98736 0.49048 0.0
C159 C 0.28214 0.00125 0.51027 0.0
C160 C 0.39448 0.06697 0.54198 0.0
C161 C 0.4461 0.11587 0.53487 0.0
C162 C 0.49795 0.11482 0.53372 0.0
C163 C 0.49954 0.06468 0.53988 0.0
C164 C 0.4473 0.01509 0.54656 0.0
C165 C 0.3952 0.0161 0.54749 0.0
H166 H 0.70538 0.7787 0.89089 0.0
N167 N 0.71759 0.68657 0.87615 0.0
H168 H 0.75342 0.84362 0.92572 0.0
H169 H 0.78322 0.67688 0.91018 0.0
H170 H 0.83188 0.74265 0.94524 0.0
H171 H 0.80674 0.69713 0.85046 0.0
H172 H 0.84953 0.75589 0.81426 0.0
H173 H 0.67431 0.7447 0.85124 0.0
H174 H 0.71884 0.80602 0.81586 0.0
H175 H 0.62284 0.68275 0.89876 0.0
H176 H 0.67544 0.58519 0.85284 0.0
H177 H 0.52425 0.60173 0.89866 0.0
H178 H 0.57527 0.50486 0.85109 0.0
H179 H 0.1971 0.32495 0.88771 0.0
H180 H 0.14656 0.2677 0.92329 0.0
H181 H 0.29952 0.26101 0.94336 0.0
H182 H 0.34921 0.31585 0.90721 0.0
H183 H 0.29876 0.25503 0.86005 0.0
H184 H 0.24488 0.19225 0.82489 0.0
H185 H 0.20646 0.32191 0.80044 0.0
H186 H 0.2593 0.38393 0.83574 0.0
H187 H 0.33975 0.46878 0.87679 0.0
H188 H 0.43959 0.54992 0.87671 0.0
H189 H 0.50198 0.42853 0.87153 0.0
N190 N 0.30363 0.3565 0.87292 0.0
H191 H 0.40148 0.34826 0.86973 0.0
C192 C 0.7406 0.72252 0.89786 0.0
C193 C 0.73222 0.76978 0.90268 0.0
C194 C 0.7595 0.80685 0.92264 0.0
C195 C 0.79598 0.79777 0.93806 0.0
C196 C 0.80351 0.75006 0.93364 0.0
C197 C 0.77587 0.71269 0.91371 0.0
C198 C 0.73818 0.71741 0.85376 0.0
C199 C 0.78685 0.72007 0.84273 0.0
C200 C 0.81114 0.75348 0.82216 0.0
C201 C 0.78775 0.78583 0.81256 0.0
C202 C 0.73773 0.78166 0.82307 0.0
C203 C 0.71266 0.74713 0.84336 0.0
C204 C 0.65749 0.64018 0.87598 0.0
C205 C 0.61349 0.64422 0.88844 0.0
C206 C 0.55628 0.59752 0.88814 0.0
C207 C 0.54101 0.54607 0.87487 0.0
C208 C 0.58502 0.54283 0.86202 0.0
C209 C 0.64241 0.58906 0.86276 0.0
C210 C 0.27711 0.32551 0.89483 0.0
C211 C 0.21977 0.31118 0.89978 0.0
C212 C 0.19093 0.27836 0.91994 0.0
C213 C 0.21922 0.25987 0.93583 0.0
C214 C 0.27692 0.27466 0.9312 0.0
C215 C 0.30539 0.30642 0.91062 0.0
C216 C 0.28237 0.32385 0.85049 0.0
C217 C 0.27998 0.27044 0.84678 0.0
C218 C 0.24947 0.23481 0.82676 0.0
C219 C 0.2219 0.25267 0.81013 0.0
C220 C 0.22785 0.3077 0.81299 0.0
C221 C 0.25779 0.34292 0.83306 0.0
C222 C 0.36335 0.40276 0.87367 0.0
C223 C 0.37522 0.46001 0.87565 0.0
C224 C 0.43251 0.50631 0.87581 0.0
C225 C 0.47962 0.49635 0.87437 0.0
C226 C 0.46729 0.43844 0.87235 0.0
C227 C 0.40976 0.39219 0.87167 0.0
C228 C 0.96923 0.12124 0.11212 0.0
C229 C 0.01293 0.14276 0.09402 0.0
C230 C 0.05606 0.24016 0.11246 0.0
C231 C 0.01752 0.21731 0.13225 0.0
N232 N 0.94269 0.13414 0.15287 0.0
N233 N 0.10488 0.2205 0.07997 0.0
C234 C 0.97492 0.15742 0.1325 0.0
C235 C 0.05828 0.20164 0.09501 0.0
N236 N 0.92326 0.06575 0.11042 0.0
N237 N 0.09006 0.29884 0.11018 0.0
H238 H 0.10886 0.19359 0.06717 0.0
H239 H 0.142 0.26136 0.08171 0.0
H240 H 0.08875 0.32837 0.12245 0.0
H241 H 0.11489 0.31807 0.09487 0.0
H242 H 0.88666 0.05044 0.12132 0.0
H243 H 0.91957 0.03567 0.09723 0.0
H244 H 0.91607 0.08975 0.1553 0.0
H245 H 0.94616 0.15867 0.16837 0.0
C246 C 0.90508 0.02715 0.43938 0.0
C247 C 0.87502 0.99334 0.41844 0.0
C248 C 0.78374 0.98413 0.43325 0.0
C249 C 0.81405 0.0189 0.45393 0.0
N250 N 0.90436 0.07988 0.47553 0.0
N251 N 0.78912 0.9475 0.39316 0.0
C252 C 0.87505 0.04258 0.45655 0.0
C253 C 0.8152 0.97402 0.41474 0.0
N254 N 0.96163 0.04183 0.44355 0.0
N255 N 0.72472 0.96004 0.43158 0.0
H256 H 0.81125 0.93989 0.37929 0.0
H257 H 0.74721 0.93703 0.38814 0.0
H258 H 0.70083 0.96893 0.44416 0.0
H259 H 0.69882 0.929 0.41852 0.0
H260 H 0.98367 0.05926 0.45991 0.0
H261 H 0.98606 0.03328 0.43118 0.0
H262 H 0.94949 0.10468 0.47676 0.0
H263 H 0.88379 0.08904 0.48956 0.0
C264 C 0.90527 0.91126 0.77685 0.0
C265 C 0.87475 0.90715 0.75513 0.0
C266 C 0.79025 0.81785 0.76944 0.0
C267 C 0.8179 0.82685 0.79247 0.0
N268 N 0.89783 0.8889 0.81948 0.0
N269 N 0.78687 0.85923 0.73098 0.0
C270 C 0.87455 0.87523 0.79653 0.0
C271 C 0.81676 0.86115 0.75148 0.0
N272 N 0.9637 0.94948 0.77873 0.0
N273 N 0.73972 0.76715 0.76447 0.0
H274 H 0.80604 0.88838 0.71691 0.0
H275 H 0.74243 0.83087 0.72853 0.0
H276 H 0.71968 0.73418 0.77704 0.0
H277 H 0.72042 0.75556 0.7473 0.0
H278 H 0.98916 0.95026 0.79326 0.0
H279 H 0.98789 0.97659 0.76471 0.0
H280 H 0.93618 0.9272 0.82387 0.0
H281 H 0.87606 0.86511 0.83466 0.0
C282 C 0.01525 0.86611 0.07981 0.0
C283 C 0.02132 0.91936 0.08835 0.0
C284 C 0.0167 0.88909 0.13042 0.0
C285 C 0.01413 0.83729 0.12208 0.0
N286 N 0.02107 0.78052 0.08919 0.0
N287 N 0.04411 0.98783 0.12158 0.0
C288 C 0.0166 0.82705 0.09683 0.0
C289 C 0.02705 0.93272 0.1136 0.0
N290 N 0.00552 0.85168 0.05567 0.0
N291 N 0.00644 0.89567 0.15426 0.0
H292 H 0.05412 0.02161 0.10981 0.0
H293 H 0.05466 0.00149 0.13963 0.0
H294 H 0.99759 0.8645 0.16729 0.0
H295 H 1.00115 0.92964 0.16068 0.0
H296 H 0.99426 0.81085 0.04864 0.0
H297 H 0.00477 0.87941 0.04277 0.0
H298 H 0.02871 0.77367 0.07125 0.0
H299 H 0.02189 0.75117 0.10121 0.0
C300 C 0.08283 0.97533 0.45135 0.0
C301 C 0.09874 0.98358 0.42649 0.0
C302 C 0.2014 0.02432 0.43811 0.0
C303 C 0.18477 0.01181 0.46273 0.0
N304 N 0.10963 0.96918 0.49279 0.0
N305 N 0.17133 0.00828 0.39569 0.0
C306 C 0.12542 0.98543 0.46933 0.0
C307 C 0.15764 0.00631 0.41971 0.0
N308 N 0.02743 0.96016 0.45787 0.0
N309 N 0.2591 0.05415 0.4324 0.0
H310 H 0.14046 0.99537 0.38176 0.0
H311 H 0.21228 0.01841 0.38955 0.0
H312 H 0.29215 0.066 0.44527 0.0
H313 H 0.27445 0.07051 0.41527 0.0
H314 H 0.01488 0.96036 0.47574 0.0
H315 H 0.99467 0.95192 0.44534 0.0
H316 H 0.06668 0.94341 0.49818 0.0
H317 H 0.13961 0.97787 0.50674 0.0
C318 C 0.07942 0.13728 0.78112 0.0
C319 C 0.09544 0.14116 0.75632 0.0
C320 C 0.19726 0.2097 0.76771 0.0
C321 C 0.17962 0.21108 0.79188 0.0
N322 N 0.10353 0.18039 0.82154 0.0
N323 N 0.16845 0.18376 0.7254 0.0
C324 C 0.12064 0.17575 0.7986 0.0
C325 C 0.15426 0.17761 0.74944 0.0
N326 N 0.02517 0.09544 0.78812 0.0
N327 N 0.25514 0.23882 0.76235 0.0
H328 H 0.1382 0.16117 0.71156 0.0
H329 H 0.20915 0.21415 0.71896 0.0
H330 H 0.28734 0.26342 0.77528 0.0
H331 H 0.27163 0.2351 0.74572 0.0
H332 H 0.01325 0.08574 0.80617 0.0
H333 H 0.99326 0.06657 0.77596 0.0
H334 H 0.06016 0.16172 0.82659 0.0
H335 H 0.13249 0.20622 0.83528 0.0
C336 C 0.90469 0.0161 0.63066 0.0
C337 C 0.8884 0.01262 0.65544 0.0
C338 C 0.80758 0.02704 0.64363 0.0
C339 C 0.82145 0.02583 0.61885 0.0
N340 N 0.87418 0.00513 0.58858 0.0
N341 N 0.81797 0.00385 0.68503 0.0
C342 C 0.86709 0.01574 0.61233 0.0
C343 C 0.83795 0.01499 0.66181 0.0
N344 N 0.9578 0.02366 0.62459 0.0
N345 N 0.76675 0.04149 0.64986 0.0
H346 H 0.83859 0.99384 0.69856 0.0
H347 H 0.77831 0.9992 0.6903 0.0
H348 H 0.74312 0.0497 0.63702 0.0
H349 H 0.75933 0.04946 0.66768 0.0
H350 H 0.97412 0.03242 0.60703 0.0
H351 H 0.9885 0.0278 0.63736 0.0
H352 H 0.90285 0.99143 0.58311 0.0
H353 H 0.84736 0.00436 0.57459 0.0
C354 C 0.84633 0.8708 1.00078 0.0
C355 C 0.88868 0.92774 0.99402 0.0
C356 C 0.8767 0.89608 0.95126 0.0
C357 C 0.82963 0.84113 0.95766 0.0
N358 N 0.76527 0.77711 0.98802 0.0
N359 N 0.94068 0.99689 0.96273 0.0
C360 C 0.81347 0.82852 0.98234 0.0
C361 C 0.90286 0.94102 0.96922 0.0
N362 N 0.83764 0.85721 0.02479 0.0
N363 N 0.89765 0.90467 0.92812 0.0
H364 H 0.9627 0.03086 0.97529 0.0
H365 H 0.94733 0.01056 0.94484 0.0
H366 H 0.87992 0.87264 0.91448 0.0
H367 H 0.93579 0.94151 0.92293 0.0
H368 H 0.81204 0.81511 0.03091 0.0
H369 H 0.85943 0.88765 0.03872 0.0
H370 H 0.74732 0.76772 0.00527 0.0
H371 H 0.74048 0.74508 0.97503 0.0
C372 C 0.97675 0.83699 0.32958 0.0
C373 C 0.01983 0.89665 0.32903 0.0
C374 C 0.05062 0.88213 0.28894 0.0
C375 C 0.00355 0.82412 0.28815 0.0
N376 N 0.92328 0.74407 0.30806 0.0
N377 N 0.11657 0.96263 0.3148 0.0
C378 C 0.96711 0.80073 0.30867 0.0
C379 C 0.06261 0.91553 0.31069 0.0
N380 N 0.94976 0.81413 0.35095 0.0
N381 N 0.08245 0.90653 0.2686 0.0
H382 H 0.12999 0.98243 0.3319 0.0
H383 H 0.15065 0.97573 0.30261 0.0
H384 H 0.07445 0.88424 0.25202 0.0
H385 H 0.11303 0.95058 0.26762 0.0
H386 H 0.91951 0.77059 0.35343 0.0
H387 H 0.96422 0.83784 0.36717 0.0
H388 H 0.89075 0.72588 0.32098 0.0
H389 H 0.91793 0.71518 0.29395 0.0
C390 C 0.09644 0.99012 0.63803 0.0
C391 C 0.11557 0.01326 0.66175 0.0
C392 C 0.21548 0.04117 0.65077 0.0
C393 C 0.19736 0.02603 0.62612 0.0
N394 N 0.12148 0.99591 0.59567 0.0
N395 N 0.19346 0.06444 0.69079 0.0
C396 C 0.13798 0.00277 0.61957 0.0
C397 C 0.17519 0.03953 0.66824 0.0
N398 N 0.03841 0.95521 0.63319 0.0
N399 N 0.27072 0.05588 0.6575 0.0
H400 H 0.16468 0.06222 0.70416 0.0
H401 H 0.2371 0.09007 0.69575 0.0
H402 H 0.30094 0.05685 0.64519 0.0
H403 H 0.28495 0.06217 0.67549 0.0
H404 H 0.02216 0.93276 0.61676 0.0
H405 H 0.00692 0.94371 0.64653 0.0
H406 H 0.07982 0.98513 0.58999 0.0
H407 H 0.15058 0.00664 0.58139 0.0
C408 C 0.1424 0.22413 0.99679 0.0
C409 C 0.11184 0.16242 0.99555 0.0
C410 C 0.16312 0.1657 0.95788 0.0
C411 C 0.18816 0.22686 0.95775 0.0
N412 N 0.20378 0.31544 0.97683 0.0
N413 N 0.08943 0.07383 0.97395 0.0
C414 C 0.17888 0.2564 0.97731 0.0
C415 C 0.12206 0.13297 0.97609 0.0
N416 N 0.13695 0.25187 0.01682 0.0
N417 N 0.17817 0.1388 0.94041 0.0
H418 H 0.05938 0.04778 0.98681 0.0
H419 H 0.08888 0.05032 0.9586 0.0
H420 H 0.20541 0.16072 0.92602 0.0
H421 H 0.16724 0.09554 0.94104 0.0
H422 H 0.16278 0.29613 0.02044 0.0
H423 H 0.1086 0.22996 0.03084 0.0
H424 H 0.19299 0.33942 0.98856 0.0
H425 H 0.23419 0.34085 0.96389 0.0
C426 C 0.03844 0.13152 0.30406 0.0
C427 C 0.01889 0.13078 0.32809 0.0
C428 C 0.01218 0.21746 0.32001 0.0
C429 C 0.02652 0.21475 0.2954 0.0
N430 N 0.04671 0.16565 0.263 0.0
N431 N 0.98127 0.16854 0.35857 0.0
C432 C 0.03775 0.17071 0.28715 0.0
C433 C 0.00449 0.17279 0.33605 0.0
N434 N 0.06009 0.09636 0.29769 0.0
N435 N 0.00671 0.26317 0.32806 0.0
H436 H 0.9756 0.13677 0.3708 0.0
H437 H 0.96393 0.19378 0.36457 0.0
H438 H 0.01032 0.2955 0.3166 0.0
H439 H 0.00247 0.27129 0.34627 0.0
H440 H 0.08104 0.09937 0.28138 0.0
H441 H 0.06212 0.06755 0.30961 0.0
H442 H 0.0478 0.13026 0.25539 0.0
H443 H 0.04888 0.19474 0.25008 0.0
loop_
_geom_bond_atom_site_label_1
_geom_bond_atom_site_label_2
_geom_bond_distance
_geom_bond_site_symmetry_2
_ccdc_geom_bond_type
Co0 O1 2.216 1_445 S
Co0 O2 2.091 1_545 S
Co0 O4 2.004 . S
Co0 O10 2.021 1_445 S
Co0 O12 2.137 . S
Co0 O13 2.244 1_455 S
O1 Co0 2.216 1_665 S
O1 C8 1.247 1_655 S
O2 Co0 2.091 1_565 S
O2 C8 1.261 . S
C3 O12 1.247 . S
C3 O13 1.272 1_455 S
O4 Co0 2.004 . S
O4 C9 1.259 . S
Co5 O6 2.066 1_655 S
Co5 O11 2.052 1_545 S
Co5 O13 2.135 . S
O6 Co5 2.066 1_455 S
O6 C9 1.238 . S
C7 O10 1.238 . S
C7 O11 1.241 . S
C8 O1 1.247 1_455 S
C8 O2 1.261 . S
C9 O4 1.259 . S
C9 O6 1.238 . S
O10 Co0 2.021 1_665 S
O10 C7 1.238 . S
O11 Co5 2.052 1_565 S
O11 C7 1.241 . S
O12 Co0 2.137 . S
O12 C3 1.247 . S
O13 Co0 2.244 1_655 S
O13 C3 1.272 1_655 S
O13 Co5 2.135 . S
Co14 O15 2.216 1_455 S
Co14 O16 2.091 . S
Co14 O18 2.004 . S
Co14 O24 2.021 1_455 S
Co14 O26 2.137 . S
Co14 O27 2.244 1_445 S
O15 Co14 2.216 1_655 S
O15 C22 1.247 1_655 S
O16 Co14 2.091 . S
O16 C22 1.261 . S
C17 O26 1.247 1_565 S
C17 O27 1.272 1_455 S
O18 Co14 2.004 . S
O18 C23 1.259 . S
Co19 O20 2.061 1_655 S
Co19 O25 2.052 . S
Co19 O27 2.135 . S
O20 Co19 2.061 1_455 S
O20 C23 1.235 1_565 S
C21 O24 1.238 . S
C21 O25 1.241 1_545 S
C22 O15 1.247 1_455 S
C22 O16 1.261 . S
C23 O18 1.259 . S
C23 O20 1.235 1_545 S
O24 Co14 2.021 1_655 S
O24 C21 1.238 . S
O25 Co19 2.052 . S
O25 C21 1.241 1_565 S
O26 Co14 2.137 . S
O26 C17 1.247 1_545 S
O27 Co14 2.244 1_665 S
O27 C17 1.272 1_655 S
O27 Co19 2.135 . S
Co28 O29 2.216 . S
Co28 O30 2.091 1_545 S
Co28 O32 2.004 1_445 S
Co28 O38 2.021 . S
Co28 O40 2.137 1_445 S
Co28 O41 2.244 1_455 S
O29 Co28 2.216 . S
O29 C36 1.247 . S
O30 Co28 2.091 1_565 S
O30 C36 1.261 1_565 S
C31 O40 1.247 1_545 S
C31 O41 1.272 . S
O32 Co28 2.004 1_665 S
O32 C37 1.259 . S
Co33 O34 2.061 1_545 S
Co33 O39 2.052 1_655 S
Co33 O41 2.135 . S
O34 Co33 2.061 1_565 S
O34 C37 1.235 . S
C35 O38 1.238 . S
C35 O39 1.241 . S
C36 O29 1.247 . S
C36 O30 1.261 1_545 S
C37 O32 1.259 . S
C37 O34 1.235 . S
O38 Co28 2.021 . S
O38 C35 1.238 . S
O39 Co33 2.052 1_455 S
O39 C35 1.241 . S
O40 Co28 2.137 1_665 S
O40 C31 1.247 1_565 S
O41 Co28 2.244 1_655 S
O41 C31 1.272 . S
O41 Co33 2.135 . S
H42 C69 0.929 . S
N43 C68 1.433 . S
N43 C74 1.435 . S
N43 C80 1.423 . S
H44 C70 0.930 . S
H45 C73 0.931 . S
H46 C72 0.929 . S
H47 C75 0.930 . S
H48 C76 0.932 . S
H49 C79 0.929 . S
H50 C78 0.931 . S
H51 C81 0.929 . S
H52 C85 0.932 . S
H53 C82 0.931 . S
H54 C84 0.929 1_455 S
H55 C87 0.929 . S
H56 C88 0.930 . S
H57 C90 0.929 . S
H58 C91 0.931 . S
H59 C93 0.930 . S
H60 C94 0.932 . S
H61 C96 0.931 . S
H62 C97 0.929 . S
H63 C99 0.929 . S
H64 C100 0.931 . S
H65 C102 0.929 1_455 S
N66 C86 1.433 . S
N66 C92 1.435 . S
N66 C98 1.423 . S
H67 C103 0.932 . S
C68 N43 1.433 . S
C68 C69 1.363 . S
C68 C73 1.370 1_655 S
C69 H42 0.929 . S
C69 C68 1.363 . S
C69 C70 1.385 . S
C70 H44 0.930 . S
C70 C69 1.385 . S
C70 C71 1.357 1_655 S
C71 C70 1.357 1_455 S
C71 C72 1.406 . S
C72 H46 0.929 . S
C72 C71 1.406 . S
C72 C73 1.391 . S
C73 H45 0.931 . S
C73 C68 1.370 1_455 S
C73 C72 1.391 . S
C74 N43 1.435 . S
C74 C75 1.358 1_655 S
C74 C79 1.371 . S
C75 H47 0.930 . S
C75 C74 1.358 1_455 S
C75 C76 1.405 . S
C76 H48 0.932 . S
C76 C75 1.405 . S
C76 C77 1.383 . S
C77 C76 1.383 . S
C77 C78 1.393 1_455 S
C78 H50 0.931 . S
C78 C77 1.393 1_655 S
C78 C79 1.382 . S
C79 H49 0.929 . S
C79 C74 1.371 . S
C79 C78 1.382 . S
C80 N43 1.423 . S
C80 C81 1.362 . S
C80 C85 1.388 1_655 S
C81 H51 0.929 . S
C81 C80 1.362 . S
C81 C82 1.376 . S
C82 H53 0.931 . S
C82 C81 1.376 . S
C82 C83 1.396 . S
C83 C82 1.396 . S
C83 C84 1.348 . S
C83 C101 1.472 . S
C84 H54 0.929 1_655 S
C84 C83 1.348 . S
C84 C85 1.443 1_655 S
C85 H52 0.932 . S
C85 C80 1.388 1_455 S
C85 C84 1.443 1_455 S
C86 N66 1.433 . S
C86 C87 1.363 . S
C86 C91 1.370 1_655 S
C87 H55 0.929 . S
C87 C86 1.363 . S
C87 C88 1.385 . S
C88 H56 0.930 . S
C88 C87 1.385 . S
C88 C89 1.357 1_655 S
C89 C88 1.357 1_455 S
C89 C90 1.406 . S
C90 H57 0.929 . S
C90 C89 1.406 . S
C90 C91 1.391 . S
C91 H58 0.931 . S
C91 C86 1.370 1_455 S
C91 C90 1.391 . S
C92 N66 1.435 . S
C92 C93 1.358 1_655 S
C92 C97 1.371 . S
C93 H59 0.930 . S
C93 C92 1.358 1_455 S
C93 C94 1.405 . S
C94 H60 0.932 . S
C94 C93 1.405 . S
C94 C95 1.383 . S
C95 C94 1.383 . S
C95 C96 1.393 1_455 S
C96 H61 0.931 . S
C96 C95 1.393 1_655 S
C96 C97 1.382 . S
C97 H62 0.929 . S
C97 C92 1.371 . S
C97 C96 1.382 . S
C98 N66 1.423 . S
C98 C99 1.362 . S
C98 C103 1.388 1_655 S
C99 H63 0.929 . S
C99 C98 1.362 . S
C99 C100 1.376 . S
C100 H64 0.931 . S
C100 C99 1.376 . S
C100 C101 1.396 . S
C101 C83 1.472 . S
C101 C100 1.396 . S
C101 C102 1.348 . S
C102 H65 0.929 1_655 S
C102 C101 1.348 . S
C102 C103 1.443 1_655 S
C103 H67 0.932 . S
C103 C98 1.388 1_455 S
C103 C102 1.443 1_455 S
H104 C131 0.929 . S
N105 C130 1.433 . S
N105 C136 1.435 . S
N105 C142 1.423 . S
H106 C132 0.930 . S
H107 C135 0.930 . S
H108 C134 0.929 . S
H109 C137 0.930 . S
H110 C138 0.932 . S
H111 C141 0.929 . S
H112 C140 0.931 . S
H113 C143 0.929 . S
H114 C147 0.932 1_565 S
H115 C144 0.931 . S
H116 C146 0.929 . S
H117 C149 0.929 . S
H118 C150 0.930 . S
H119 C152 0.929 . S
H120 C153 0.944 . S
H121 C155 0.930 . S
H122 C156 0.932 . S
H123 C158 0.931 . S
H124 C159 0.929 . S
H125 C161 0.929 . S
H126 C162 0.931 . S
H127 C164 0.929 . S
N128 C148 1.433 . S
N128 C154 1.435 . S
N128 C160 1.423 . S
H129 C165 0.932 1_565 S
C130 N105 1.433 . S
C130 C131 1.363 . S
C130 C135 1.366 1_545 S
C131 H104 0.929 . S
C131 C130 1.363 . S
C131 C132 1.385 . S
C132 H106 0.930 . S
C132 C131 1.385 . S
C132 C133 1.357 . S
C133 C132 1.357 . S
C133 C134 1.406 1_545 S
C134 H108 0.929 . S
C134 C133 1.406 1_565 S
C134 C135 1.397 . S
C135 H107 0.930 . S
C135 C130 1.366 1_565 S
C135 C134 1.397 . S
C136 N105 1.435 . S
C136 C137 1.358 1_545 S
C136 C141 1.371 . S
C137 H109 0.930 . S
C137 C136 1.358 1_565 S
C137 C138 1.405 . S
C138 H110 0.932 . S
C138 C137 1.405 . S
C138 C139 1.383 1_565 S
C139 C138 1.383 1_545 S
C139 C140 1.393 . S
C140 H112 0.931 . S
C140 C139 1.393 . S
C140 C141 1.382 . S
C141 H111 0.929 . S
C141 C136 1.371 . S
C141 C140 1.382 . S
C142 N105 1.423 . S
C142 C143 1.362 . S
C142 C147 1.388 . S
C143 H113 0.929 . S
C143 C142 1.362 . S
C143 C144 1.376 . S
C144 H115 0.931 . S
C144 C143 1.376 . S
C144 C145 1.396 . S
C145 C144 1.396 . S
C145 C146 1.348 . S
C145 C163 1.472 . S
C146 H116 0.929 . S
C146 C145 1.348 . S
C146 C147 1.443 . S
C147 H114 0.932 1_545 S
C147 C142 1.388 . S
C147 C146 1.443 . S
C148 N128 1.433 . S
C148 C149 1.363 . S
C148 C153 1.358 1_545 S
C149 H117 0.929 . S
C149 C148 1.363 . S
C149 C150 1.385 . S
C150 H118 0.930 . S
C150 C149 1.385 . S
C150 C151 1.357 . S
C151 C150 1.357 . S
C151 C152 1.406 1_545 S
C152 H119 0.929 . S
C152 C151 1.406 1_565 S
C152 C153 1.391 . S
C153 H120 0.944 . S
C153 C148 1.358 1_565 S
C153 C152 1.391 . S
C154 N128 1.435 . S
C154 C155 1.358 1_545 S
C154 C159 1.371 . S
C155 H121 0.930 . S
C155 C154 1.358 1_565 S
C155 C156 1.405 . S
C156 H122 0.932 . S
C156 C155 1.405 . S
C156 C157 1.383 1_565 S
C157 C156 1.383 1_545 S
C157 C158 1.393 . S
C158 H123 0.931 . S
C158 C157 1.393 . S
C158 C159 1.382 . S
C159 H124 0.929 . S
C159 C154 1.371 . S
C159 C158 1.382 . S
C160 N128 1.423 . S
C160 C161 1.362 . S
C160 C165 1.388 . S
C161 H125 0.929 . S
C161 C160 1.362 . S
C161 C162 1.376 . S
C162 H126 0.931 . S
C162 C161 1.376 . S
C162 C163 1.396 . S
C163 C145 1.472 . S
C163 C162 1.396 . S
C163 C164 1.348 . S
C164 H127 0.929 . S
C164 C163 1.348 . S
C164 C165 1.443 . S
C165 H129 0.932 1_545 S
C165 C160 1.388 . S
C165 C164 1.443 . S
H166 C193 0.929 . S
N167 C192 1.433 . S
N167 C198 1.435 . S
N167 C204 1.423 . S
H168 C194 0.930 . S
H169 C197 0.931 . S
H170 C196 0.929 . S
H171 C199 0.930 . S
H172 C200 0.932 . S
H173 C203 0.929 . S
H174 C202 0.931 . S
H175 C205 0.929 . S
H176 C209 0.932 . S
H177 C206 0.931 . S
H178 C208 0.929 . S
H179 C211 0.929 . S
H180 C212 0.930 . S
H181 C214 0.929 . S
H182 C215 0.931 . S
H183 C217 0.930 . S
H184 C218 0.932 . S
H185 C220 0.931 . S
H186 C221 0.929 . S
H187 C223 0.929 . S
H188 C224 0.931 . S
H189 C226 0.929 . S
N190 C210 1.433 . S
N190 C216 1.435 . S
N190 C222 1.423 . S
H191 C227 0.932 . S
C192 N167 1.433 . S
C192 C193 1.363 . S
C192 C197 1.370 . S
C193 H166 0.929 . S
C193 C192 1.363 . S
C193 C194 1.385 . S
C194 H168 0.930 . S
C194 C193 1.385 . S
C194 C195 1.357 . S
C195 C194 1.357 . S
C195 C196 1.406 . S
C196 H170 0.929 . S
C196 C195 1.406 . S
C196 C197 1.391 . S
C197 H169 0.931 . S
C197 C192 1.370 . S
C197 C196 1.391 . S
C198 N167 1.435 . S
C198 C199 1.358 . S
C198 C203 1.371 . S
C199 H171 0.930 . S
C199 C198 1.358 . S
C199 C200 1.405 . S
C200 H172 0.932 . S
C200 C199 1.405 . S
C200 C201 1.383 . S
C201 C200 1.383 . S
C201 C202 1.393 . S
C202 H174 0.931 . S
C202 C201 1.393 . S
C202 C203 1.382 . S
C203 H173 0.929 . S
C203 C198 1.371 . S
C203 C202 1.382 . S
C204 N167 1.423 . S
C204 C205 1.362 . S
C204 C209 1.388 . S
C205 H175 0.929 . S
C205 C204 1.362 . S
C205 C206 1.376 . S
C206 H177 0.931 . S
C206 C205 1.376 . S
C206 C207 1.396 . S
C207 C206 1.396 . S
C207 C208 1.348 . S
C207 C225 1.472 . S
C208 H178 0.929 . S
C208 C207 1.348 . S
C208 C209 1.443 . S
C209 H176 0.932 . S
C209 C204 1.388 . S
C209 C208 1.443 . S
C210 N190 1.433 . S
C210 C211 1.363 . S
C210 C215 1.370 . S
C211 H179 0.929 . S
C211 C210 1.363 . S
C211 C212 1.385 . S
C212 H180 0.930 . S
C212 C211 1.385 . S
C212 C213 1.357 . S
C213 C212 1.357 . S
C213 C214 1.406 . S
C214 H181 0.929 . S
C214 C213 1.406 . S
C214 C215 1.391 . S
C215 H182 0.931 . S
C215 C210 1.370 . S
C215 C214 1.391 . S
C216 N190 1.435 . S
C216 C217 1.358 . S
C216 C221 1.371 . S
C217 H183 0.930 . S
C217 C216 1.358 . S
C217 C218 1.405 . S
C218 H184 0.932 . S
C218 C217 1.405 . S
C218 C219 1.383 . S
C219 C218 1.383 . S
C219 C220 1.393 . S
C220 H185 0.931 . S
C220 C219 1.393 . S
C220 C221 1.382 . S
C221 H186 0.929 . S
C221 C216 1.371 . S
C221 C220 1.382 . S
C222 N190 1.423 . S
C222 C223 1.362 . S
C222 C227 1.388 . S
C223 H187 0.929 . S
C223 C222 1.362 . S
C223 C224 1.376 . S
C224 H188 0.931 . S
C224 C223 1.376 . S
C224 C225 1.396 . S
C225 C207 1.472 . S
C225 C224 1.396 . S
C225 C226 1.348 . S
C226 H189 0.929 . S
C226 C225 1.348 . S
C226 C227 1.443 . S
C227 H191 0.932 . S
C227 C222 1.388 . S
C227 C226 1.443 . S
C228 C229 1.363 1_655 S
C228 C234 1.379 . S
C228 N236 1.356 . S
C229 C228 1.363 1_455 S
C229 C235 1.363 . S
C230 C231 1.363 . S
C230 C235 1.379 . S
C230 N237 1.356 . S
C231 C230 1.363 . S
C231 C234 1.363 1_455 S
N232 C234 1.356 . S
N232 H244 0.984 . S
N232 H245 0.985 . S
N233 C235 1.356 . S
N233 H238 0.984 . S
N233 H239 0.985 . S
C234 C228 1.379 . S
C234 C231 1.363 1_655 S
C234 N232 1.356 . S
C235 C229 1.363 . S
C235 C230 1.379 . S
C235 N233 1.356 . S
N236 C228 1.356 . S
N236 H242 0.984 . S
N236 H243 0.984 . S
N237 C230 1.356 . S
N237 H240 0.984 . S
N237 H241 0.985 . S
H238 N233 0.984 . S
H239 N233 0.985 . S
H240 N237 0.984 . S
H241 N237 0.985 . S
H242 N236 0.984 . S
H243 N236 0.984 . S
H244 N232 0.984 . S
H245 N232 0.985 . S
C246 C247 1.363 . S
C246 C252 1.379 . S
C246 N254 1.356 . S
C247 C246 1.363 . S
C247 C253 1.363 1_545 S
C248 C249 1.363 1_565 S
C248 C253 1.379 . S
C248 N255 1.356 . S
C249 C248 1.363 1_545 S
C249 C252 1.363 . S
N250 C252 1.356 . S
N250 H262 0.984 . S
N250 H263 0.985 . S
N251 C253 1.356 . S
N251 H256 0.984 . S
N251 H257 0.985 . S
C252 C246 1.379 . S
C252 C249 1.363 . S
C252 N250 1.356 . S
C253 C247 1.363 1_565 S
C253 C248 1.379 . S
C253 N251 1.356 . S
N254 C246 1.356 . S
N254 H260 0.984 1_655 S
N254 H261 0.984 . S
N255 C248 1.356 . S
N255 H258 0.984 . S
N255 H259 0.985 . S
H256 N251 0.984 . S
H257 N251 0.985 . S
H258 N255 0.984 . S
H259 N255 0.985 . S
H260 N254 0.984 1_455 S
H261 N254 0.984 . S
H262 N250 0.984 . S
H263 N250 0.985 . S
C264 C265 1.363 . S
C264 C270 1.379 . S
C264 N272 1.356 . S
C265 C264 1.363 . S
C265 C271 1.363 . S
C266 C267 1.363 . S
C266 C271 1.379 . S
C266 N273 1.356 . S
C267 C266 1.363 . S
C267 C270 1.363 . S
N268 C270 1.356 . S
N268 H280 0.984 . S
N268 H281 0.985 . S
N269 C271 1.356 . S
N269 H274 0.984 . S
N269 H275 0.985 . S
C270 C264 1.379 . S
C270 C267 1.363 . S
C270 N268 1.356 . S
C271 C265 1.363 . S
C271 C266 1.379 . S
C271 N269 1.356 . S
N272 C264 1.356 . S
N272 H278 0.984 1_565 S
N272 H279 0.984 . S
N273 C266 1.356 . S
N273 H276 0.984 . S
N273 H277 0.985 . S
H274 N269 0.984 . S
H275 N269 0.985 . S
H276 N273 0.984 . S
H277 N273 0.985 . S
H278 N272 0.984 1_545 S
H279 N272 0.984 . S
H280 N268 0.984 . S
H281 N268 0.985 . S
C282 C283 1.363 . S
C282 C288 1.374 . S
C282 N290 1.357 . S
C283 C282 1.363 . S
C283 C289 1.363 . S
C284 C285 1.363 . S
C284 C289 1.379 . S
C284 N291 1.356 . S
C285 C284 1.363 . S
C285 C288 1.362 . S
N286 C288 1.362 1_655 S
N286 H298 0.984 . S
N286 H299 0.985 . S
N287 C289 1.356 . S
N287 H292 0.984 . S
N287 H293 0.985 1_565 S
C288 C282 1.374 . S
C288 C285 1.362 . S
C288 N286 1.362 1_455 S
C289 C283 1.363 . S
C289 C284 1.379 . S
C289 N287 1.356 . S
N290 C282 1.357 . S
N290 H296 0.989 1_455 S
N290 H297 0.980 . S
N291 C284 1.356 . S
N291 H294 0.984 . S
N291 H295 0.985 . S
H292 N287 0.984 . S
H293 N287 0.985 1_545 S
H294 N291 0.984 . S
H295 N291 0.985 . S
H296 N290 0.989 1_655 S
H297 N290 0.980 . S
H298 N286 0.984 . S
H299 N286 0.985 . S
C300 C301 1.363 1_565 S
C300 C306 1.379 . S
C300 N308 1.356 . S
C301 C300 1.363 1_545 S
C301 C307 1.363 . S
C302 C303 1.363 . S
C302 C307 1.379 . S
C302 N309 1.356 . S
C303 C302 1.363 . S
C303 C306 1.363 1_545 S
N304 C306 1.356 . S
N304 H316 0.984 . S
N304 H317 0.985 . S
N305 C307 1.356 . S
N305 H310 0.984 . S
N305 H311 0.985 . S
C306 C300 1.379 . S
C306 C303 1.363 1_565 S
C306 N304 1.356 . S
C307 C301 1.363 . S
C307 C302 1.379 . S
C307 N305 1.356 . S
N308 C300 1.356 . S
N308 H314 0.984 . S
N308 H315 0.984 . S
N309 C302 1.356 . S
N309 H312 0.984 . S
N309 H313 0.985 . S
H310 N305 0.984 . S
H311 N305 0.985 . S
H312 N309 0.984 . S
H313 N309 0.985 . S
H314 N308 0.984 . S
H315 N308 0.984 . S
H316 N304 0.984 . S
H317 N304 0.985 . S
C318 C319 1.363 . S
C318 C324 1.379 . S
C318 N326 1.356 . S
C319 C318 1.363 . S
C319 C325 1.363 . S
C320 C321 1.363 . S
C320 C325 1.379 . S
C320 N327 1.356 . S
C321 C320 1.363 . S
C321 C324 1.363 . S
N322 C324 1.356 . S
N322 H334 0.984 . S
N322 H335 0.985 . S
N323 C325 1.356 . S
N323 H328 0.984 . S
N323 H329 0.985 . S
C324 C318 1.379 . S
C324 C321 1.363 . S
C324 N322 1.356 . S
C325 C319 1.363 . S
C325 C320 1.379 . S
C325 N323 1.356 . S
N326 C318 1.356 . S
N326 H332 0.984 . S
N326 H333 0.984 . S
N327 C320 1.356 . S
N327 H330 0.984 . S
N327 H331 0.985 . S
H328 N323 0.984 . S
H329 N323 0.985 . S
H330 N327 0.984 . S
H331 N327 0.985 . S
H332 N326 0.984 . S
H333 N326 0.984 . S
H334 N322 0.984 . S
H335 N322 0.985 . S
C336 C337 1.363 1_565 S
C336 C342 1.379 . S
C336 N344 1.356 . S
C337 C336 1.363 1_545 S
C337 C343 1.363 . S
C338 C339 1.363 . S
C338 C343 1.379 . S
C338 N345 1.356 . S
C339 C338 1.363 . S
C339 C342 1.363 1_545 S
N340 C342 1.356 . S
N340 H352 0.984 . S
N340 H353 0.985 . S
N341 C343 1.356 . S
N341 H346 0.984 . S
N341 H347 0.985 . S
C342 C336 1.379 . S
C342 C339 1.363 1_565 S
C342 N340 1.356 . S
C343 C337 1.363 . S
C343 C338 1.379 . S
C343 N341 1.356 . S
N344 C336 1.356 . S
N344 H350 0.984 . S
N344 H351 0.984 . S
N345 C338 1.356 . S
N345 H348 0.984 . S
N345 H349 0.985 . S
H346 N341 0.984 . S
H347 N341 0.985 . S
H348 N345 0.984 . S
H349 N345 0.985 . S
H350 N344 0.984 . S
H351 N344 0.984 . S
H352 N340 0.984 . S
H353 N340 0.985 . S
C354 C355 1.363 . S
C354 C360 1.379 . S
C354 N362 1.356 1_556 S
C355 C354 1.363 . S
C355 C361 1.363 . S
C356 C357 1.363 . S
C356 C361 1.379 . S
C356 N363 1.356 . S
C357 C356 1.363 . S
C357 C360 1.363 . S
N358 C360 1.356 . S
N358 H370 0.984 1_556 S
N358 H371 0.985 . S
N359 C361 1.356 . S
N359 H364 0.984 . S
N359 H365 0.985 . S
C360 C354 1.379 . S
C360 C357 1.363 . S
C360 N358 1.356 . S
C361 C355 1.363 . S
C361 C356 1.379 . S
C361 N359 1.356 . S
N362 C354 1.356 1_554 S
N362 H368 0.984 . S
N362 H369 0.984 . S
N363 C356 1.356 . S
N363 H366 0.984 . S
N363 H367 0.985 . S
H364 N359 0.984 . S
H365 N359 0.985 . S
H366 N363 0.984 . S
H367 N363 0.985 . S
H368 N362 0.984 . S
H369 N362 0.984 . S
H370 N358 0.984 1_554 S
H371 N358 0.985 . S
C372 C373 1.363 1_655 S
C372 C378 1.379 . S
C372 N380 1.356 . S
C373 C372 1.363 1_455 S
C373 C379 1.363 . S
C374 C375 1.363 . S
C374 C379 1.379 . S
C374 N381 1.356 . S
C375 C374 1.363 . S
C375 C378 1.363 1_455 S
N376 C378 1.356 . S
N376 H388 0.984 . S
N376 H389 0.985 . S
N377 C379 1.356 . S
N377 H382 0.984 . S
N377 H383 0.985 . S
C378 C372 1.379 . S
C378 C375 1.363 1_655 S
C378 N376 1.356 . S
C379 C373 1.363 . S
C379 C374 1.379 . S
C379 N377 1.356 . S
N380 C372 1.356 . S
N380 H386 0.984 . S
N380 H387 0.984 . S
N381 C374 1.356 . S
N381 H384 0.984 . S
N381 H385 0.985 . S
H382 N377 0.984 . S
H383 N377 0.985 . S
H384 N381 0.984 . S
H385 N381 0.985 . S
H386 N380 0.984 . S
H387 N380 0.984 . S
H388 N376 0.984 . S
H389 N376 0.985 . S
C390 C391 1.363 1_565 S
C390 C396 1.379 . S
C390 N398 1.356 . S
C391 C390 1.363 1_545 S
C391 C397 1.363 . S
C392 C393 1.363 . S
C392 C397 1.379 . S
C392 N399 1.356 . S
C393 C392 1.363 . S
C393 C396 1.363 1_545 S
N394 C396 1.356 . S
N394 H406 0.984 . S
N394 H407 0.985 . S
N395 C397 1.356 . S
N395 H400 0.984 . S
N395 H401 0.985 . S
C396 C390 1.379 . S
C396 C393 1.363 1_565 S
C396 N394 1.356 . S
C397 C391 1.363 . S
C397 C392 1.379 . S
C397 N395 1.356 . S
N398 C390 1.356 . S
N398 H404 0.984 . S
N398 H405 0.984 . S
N399 C392 1.356 . S
N399 H402 0.984 . S
N399 H403 0.985 . S
H400 N395 0.984 . S
H401 N395 0.985 . S
H402 N399 0.984 . S
H403 N399 0.985 . S
H404 N398 0.984 . S
H405 N398 0.984 . S
H406 N394 0.984 . S
H407 N394 0.985 . S
C408 C409 1.363 . S
C408 C414 1.379 . S
C408 N416 1.356 1_556 S
C409 C408 1.363 . S
C409 C415 1.363 . S
C410 C411 1.363 . S
C410 C415 1.379 . S
C410 N417 1.356 . S
C411 C410 1.363 . S
C411 C414 1.363 . S
N412 C414 1.356 . S
N412 H424 0.984 1_556 S
N412 H425 0.985 . S
N413 C415 1.356 . S
N413 H418 0.984 . S
N413 H419 0.985 . S
C414 C408 1.379 . S
C414 C411 1.363 . S
C414 N412 1.356 . S
C415 C409 1.363 . S
C415 C410 1.379 . S
C415 N413 1.356 . S
N416 C408 1.356 1_554 S
N416 H422 0.984 . S
N416 H423 0.984 . S
N417 C410 1.356 . S
N417 H420 0.984 . S
N417 H421 0.985 . S
H418 N413 0.984 . S
H419 N413 0.985 . S
H420 N417 0.984 . S
H421 N417 0.985 . S
H422 N416 0.984 . S
H423 N416 0.984 . S
H424 N412 0.984 1_554 S
H425 N412 0.985 . S
C426 C427 1.363 1_655 S
C426 C432 1.379 . S
C426 N434 1.356 . S
C427 C426 1.363 1_455 S
C427 C433 1.363 . S
C428 C429 1.363 . S
C428 C433 1.379 . S
C428 N435 1.356 . S
C429 C428 1.363 . S
C429 C432 1.363 1_455 S
N430 C432 1.356 . S
N430 H442 0.984 . S
N430 H443 0.985 . S
N431 C433 1.356 . S
N431 H436 0.984 . S
N431 H437 0.985 . S
C432 C426 1.379 . S
C432 C429 1.363 1_655 S
C432 N430 1.356 . S
C433 C427 1.363 . S
C433 C428 1.379 . S
C433 N431 1.356 . S
N434 C426 1.356 . S
N434 H440 0.984 . S
N434 H441 0.984 . S
N435 C428 1.356 . S
N435 H438 0.984 . S
N435 H439 0.985 . S
H436 N431 0.984 . S
H437 N431 0.985 . S
H438 N435 0.984 . S
H439 N435 0.985 . S
H440 N434 0.984 . S
H441 N434 0.984 . S
H442 N430 0.984 . S
H443 N430 0.985 . S
C231 C95 1.449 . S
C229 C3 1.437 . S
C247 C21 1.450 . S
C249 C139 1.489 . S
C265 C37 1.439 . S
C267 C201 1.477 . S
C283 C8 1.452 . S
C285 C77 1.460 . S
C303 C157 1.462 . S
C301 C23 1.436 . S
C319 C35 1.431 . S
C321 C219 1.479 . S
C339 C133 1.580 . S
C337 C31 1.686 . S
C355 C7 1.702 1_556 S
C357 C195 1.619 . S
C375 C71 1.595 . S
C373 C17 1.704 . S
C393 C151 1.578 . S
C391 C36 1.693 . S
C411 C213 1.621 . S
C409 C9 1.693 1_556 S
C427 C22 1.713 . S
C429 C89 1.604 . S
