# Generated by pormake.
# Topology zzz, (3,6)-cn, num edge types: 1
# Building blocks:
#     Node 0, Type 0, BuildingBlock: ESEHIV_clean_linker_0, # of connection points: 3
#     Node 1, Type 0, BuildingBlock: ESEHIV_clean_linker_0, # of connection points: 3
#     Node 2, Type 0, BuildingBlock: ESEHIV_clean_linker_0, # of connection points: 3
#     Node 3, Type 0, BuildingBlock: ESEHIV_clean_linker_0, # of connection points: 3
#     Node 4, Type 0, BuildingBlock: ESEHIV_clean_linker_0, # of connection points: 3
#     Node 5, Type 0, BuildingBlock: ESEHIV_clean_linker_0, # of connection points: 3
#     Node 6, Type 0, BuildingBlock: ESEHIV_clean_linker_0, # of connection points: 3
#     Node 7, Type 0, BuildingBlock: ESEHIV_clean_linker_0, # of connection points: 3
#     Node 8, Type 1, BuildingBlock: PAMTOO_clean_sbu_0, # of connection points: 6
#     Node 9, Type 1, BuildingBlock: PAMTOO_clean_sbu_0, # of connection points: 6
#     Node 10, Type 1, BuildingBlock: PAMTOO_clean_sbu_0, # of connection points: 6
#     Node 11, Type 1, BuildingBlock: PAMTOO_clean_sbu_0, # of connection points: 6
#     Edge 12, Type (0, 1), BuildingBlock: MIFKUJ_clean_linker_0, # of connection points: 2
#     Edge 13, Type (0, 1), BuildingBlock: MIFKUJ_clean_linker_0, # of connection points: 2
#     Edge 14, Type (0, 1), BuildingBlock: MIFKUJ_clean_linker_0, # of connection points: 2
#     Edge 15, Type (0, 1), BuildingBlock: MIFKUJ_clean_linker_0, # of connection points: 2
#     Edge 16, Type (0, 1), BuildingBlock: MIFKUJ_clean_linker_0, # of connection points: 2
#     Edge 17, Type (0, 1), BuildingBlock: MIFKUJ_clean_linker_0, # of connection points: 2
#     Edge 18, Type (0, 1), BuildingBlock: MIFKUJ_clean_linker_0, # of connection points: 2
#     Edge 19, Type (0, 1), BuildingBlock: MIFKUJ_clean_linker_0, # of connection points: 2
#     Edge 20, Type (0, 1), BuildingBlock: MIFKUJ_clean_linker_0, # of connection points: 2
#     Edge 21, Type (0, 1), BuildingBlock: MIFKUJ_clean_linker_0, # of connection points: 2
#     Edge 22, Type (0, 1), BuildingBlock: MIFKUJ_clean_linker_0, # of connection points: 2
#     Edge 23, Type (0, 1), BuildingBlock: MIFKUJ_clean_linker_0, # of connection points: 2
#     Edge 24, Type (0, 1), BuildingBlock: MIFKUJ_clean_linker_0, # of connection points: 2
#     Edge 25, Type (0, 1), BuildingBlock: MIFKUJ_clean_linker_0, # of connection points: 2
#     Edge 26, Type (0, 1), BuildingBlock: MIFKUJ_clean_linker_0, # of connection points: 2
#     Edge 27, Type (0, 1), BuildingBlock: MIFKUJ_clean_linker_0, # of connection points: 2
#     Edge 28, Type (0, 1), BuildingBlock: MIFKUJ_clean_linker_0, # of connection points: 2
#     Edge 29, Type (0, 1), BuildingBlock: MIFKUJ_clean_linker_0, # of connection points: 2
#     Edge 30, Type (0, 1), BuildingBlock: MIFKUJ_clean_linker_0, # of connection points: 2
#     Edge 31, Type (0, 1), BuildingBlock: MIFKUJ_clean_linker_0, # of connection points: 2
#     Edge 32, Type (0, 1), BuildingBlock: MIFKUJ_clean_linker_0, # of connection points: 2
#     Edge 33, Type (0, 1), BuildingBlock: MIFKUJ_clean_linker_0, # of connection points: 2
#     Edge 34, Type (0, 1), BuildingBlock: MIFKUJ_clean_linker_0, # of connection points: 2
#     Edge 35, Type (0, 1), BuildingBlock: MIFKUJ_clean_linker_0, # of connection points: 2
# Relax obj value: 0.348
# Max RMSD: 0.275
# Mean RMSD: 0.218
data_MOF--net-zzz--node1-PAMTOO_clean_sbu_0--node2-ESEHIV_clean_linker_0--edge1-MIFKUJ_clean_linker_0
_symmetry_space_group_name_H-M    P1
_symmetry_Int_Tables_number       1
_symmetry_cell_setting            triclinic
loop_
_symmetry_equiv_pos_as_xyz
'x, y, z'
_cell_length_a     64.805008
_cell_length_b     56.85662
_cell_length_c     21.348563
_cell_angle_alpha  91.244796
_cell_angle_beta   82.151152
_cell_angle_gamma 84.333559
loop_
_atom_site_label
_atom_site_type_symbol
_atom_site_fract_x
_atom_site_fract_y
_atom_site_fract_z
_atom_type_partial_charge
H0 H 0.81519 0.53603 0.4183 0.0
H1 H 0.76493 0.54115 0.30619 0.0
H2 H 0.75206 0.53274 0.50788 0.0
C3 C 0.79854 0.53755 0.41512 0.0
C4 C 0.7846 0.53526 0.47012 0.0
C5 C 0.79173 0.53919 0.35585 0.0
C6 C 0.77028 0.54014 0.35214 0.0
C7 C 0.75575 0.53821 0.40655 0.0
C8 C 0.76297 0.53529 0.46602 0.0
H9 H 0.96326 0.76807 0.35812 0.0
H10 H 0.96798 0.70622 0.23633 0.0
H11 H 0.98731 0.70053 0.42086 0.0
C12 C 0.96691 0.74912 0.35004 0.0
C13 C 0.97506 0.73567 0.39698 0.0
C14 C 0.9648 0.73883 0.2914 0.0
C15 C 0.96921 0.71437 0.28188 0.0
C16 C 0.97693 0.70031 0.32831 0.0
C17 C 0.98047 0.71105 0.38578 0.0
H18 H 0.72468 0.98987 0.25752 0.0
H19 H 0.78424 0.99288 0.14414 0.0
H20 H 0.78101 0.98327 0.34511 0.0
C21 C 0.74162 0.98891 0.25351 0.0
C22 C 0.75123 0.98581 0.30813 0.0
C23 C 0.75336 0.99162 0.19449 0.0
C24 C 0.7751 0.99107 0.18999 0.0
C25 C 0.78533 0.98818 0.24351 0.0
C26 C 0.77334 0.98544 0.3033 0.0
H27 H 0.5413 0.70407 0.22553 0.0
H28 H 0.54124 0.77247 0.31689 0.0
H29 H 0.53924 0.76616 0.11599 0.0
C30 C 0.5418 0.72307 0.22271 0.0
C31 C 0.54088 0.73356 0.16463 0.0
C32 C 0.54159 0.73684 0.27805 0.0
C33 C 0.54172 0.76159 0.27433 0.0
C34 C 0.5413 0.77218 0.21518 0.0
C35 C 0.5406 0.75803 0.16092 0.0
H36 H 0.22192 0.45891 0.02767 0.0
H37 H 0.26887 0.45059 0.15142 0.0
H38 H 0.2715 0.50416 0.01113 0.0
C39 C 0.23664 0.46329 0.04134 0.0
C40 C 0.24621 0.48185 0.01145 0.0
C41 C 0.24431 0.45229 0.09275 0.0
C42 C 0.26292 0.45888 0.11129 0.0
C43 C 0.27305 0.47736 0.08193 0.0
C44 C 0.26437 0.48928 0.03245 0.0
H45 H 0.07079 0.22904 0.10149 0.0
H46 H 0.06706 0.2925 0.21621 0.0
H47 H 0.03735 0.29286 0.04735 0.0
C48 C 0.06639 0.2479 0.10858 0.0
C49 C 0.05463 0.25961 0.06596 0.0
C50 C 0.07045 0.25938 0.16359 0.0
C51 C 0.06399 0.2835 0.17361 0.0
C52 C 0.05221 0.2958 0.13203 0.0
C53 C 0.04711 0.28373 0.07841 0.0
H54 H 0.28924 0.01638 0.19366 0.0
H55 H 0.23031 0.01806 0.31335 0.0
H56 H 0.23308 0.00924 0.11087 0.0
C57 C 0.27234 0.01648 0.19893 0.0
C58 C 0.26269 0.01341 0.14491 0.0
C59 C 0.26086 0.01794 0.25957 0.0
C60 C 0.23921 0.01709 0.26628 0.0
C61 C 0.22894 0.01408 0.21339 0.0
C62 C 0.24072 0.01224 0.15196 0.0
H63 H 0.51277 0.30108 0.23035 0.0
H64 H 0.4958 0.23182 0.18923 0.0
H65 H 0.51715 0.24748 0.36736 0.0
C66 C 0.5106 0.28325 0.24516 0.0
C67 C 0.5157 0.27617 0.30391 0.0
C68 C 0.5033 0.26756 0.20397 0.0
C69 C 0.50111 0.2441 0.22155 0.0
C70 C 0.5065 0.23651 0.28046 0.0
C71 C 0.51357 0.25284 0.3213 0.0
Dy72 Dy 0.99292 0.00978 0.69269 0.0
Dy73 Dy 0.02546 0.9858 0.77981 0.0
C74 C 0.04152 0.00329 0.64171 0.0
O75 O 0.99983 0.9718 0.65891 0.0
O76 O 1.00668 0.95714 0.75286 0.0
O77 O 0.98297 0.01329 0.60066 0.0
O78 O 0.96542 0.03325 0.68151 0.0
O79 O 0.99515 0.99457 0.84481 0.0
O80 O 0.9725 0.99442 0.77158 0.0
O81 O 0.03128 0.02401 0.78307 0.0
O82 O 0.99934 0.03885 0.75806 0.0
O83 O 0.03765 0.98013 0.86847 0.0
O84 O 0.05159 0.95952 0.78416 0.0
C85 C 1.00184 0.95387 0.69599 0.0
O86 O 0.02452 0.01821 0.647 0.0
O87 O 0.0431 0.98622 0.68173 0.0
C88 C 0.97301 0.0531 0.58624 0.0
C89 C 0.99226 0.08889 0.51909 0.0
C90 C 0.98809 0.09055 0.58538 0.0
C91 C 0.97862 0.07277 0.61871 0.0
C92 C 0.97547 0.05252 0.51989 0.0
C93 C 0.98511 0.07026 0.4865 0.0
C94 C 0.96932 0.03127 0.61988 0.0
C95 C 0.97611 0.99354 0.83067 0.0
C96 C 0.01687 0.04183 0.7805 0.0
C97 C 0.04262 0.93848 0.87397 0.0
C98 C 0.02615 0.89472 0.89127 0.0
C99 C 0.01361 0.91593 0.90979 0.0
C100 C 0.02173 0.93755 0.90125 0.0
C101 C 0.05561 0.91726 0.85932 0.0
C102 C 0.04745 0.89548 0.86831 0.0
C103 C 0.04874 0.96059 0.84579 0.0
H104 H 0.99354 0.10464 0.61171 0.0
H105 H 0.97715 0.07364 0.66989 0.0
H106 H 0.97138 0.03746 0.49394 0.0
H107 H 0.9879 0.0688 0.43529 0.0
H108 H 0.99728 0.91586 0.92934 0.0
H109 H 1.01117 0.95354 0.91224 0.0
H110 H 0.07164 0.91755 0.83707 0.0
H111 H 0.05751 0.87934 0.85444 0.0
Dy112 Dy 0.50416 0.97854 0.69186 0.0
Dy113 Dy 0.51229 0.02004 0.78841 0.0
C114 C 0.49796 0.03265 0.65626 0.0
O115 O 0.53919 0.97592 0.68644 0.0
O116 O 0.54152 0.01424 0.71726 0.0
O117 O 0.50945 0.9607 0.59981 0.0
O118 O 0.48857 0.94757 0.67588 0.0
O119 O 0.52727 0.98672 0.82428 0.0
O120 O 0.50616 0.96198 0.78496 0.0
O121 O 0.48053 0.0092 0.82503 0.0
O122 O 0.47237 0.99706 0.72954 0.0
O123 O 0.51564 0.0331 0.88206 0.0
O124 O 0.5176 0.05647 0.80329 0.0
C125 C 0.55016 0.9941 0.68931 0.0
O126 O 0.50531 0.01118 0.63549 0.0
O127 O 0.49457 0.03801 0.71709 0.0
C128 C 0.47742 0.94924 0.5772 0.0
C129 C 0.4395 0.95547 0.52678 0.0
C130 C 0.45042 0.97497 0.53771 0.0
C131 C 0.46916 0.97189 0.5627 0.0
C132 C 0.46707 0.92957 0.56429 0.0
C133 C 0.44821 0.93265 0.53902 0.0
C134 C 0.49464 0.94707 0.61509 0.0
C135 C 0.51885 0.96665 0.82538 0.0
C136 C 0.4666 0.00382 0.78918 0.0
C137 C 0.54201 0.0587 0.87479 0.0
C138 C 0.58327 0.05873 0.90144 0.0
C139 C 0.57917 0.05931 0.83865 0.0
C140 C 0.55872 0.05918 0.82538 0.0
C141 C 0.54593 0.05993 0.93765 0.0
C142 C 0.56644 0.05991 0.95093 0.0
C143 C 0.52137 0.05317 0.86104 0.0
H144 H 0.44397 0.99283 0.53015 0.0
H145 H 0.47664 0.98739 0.57372 0.0
H146 H 0.4731 0.91202 0.57619 0.0
H147 H 0.44018 0.91729 0.53064 0.0
H148 H 0.59186 0.05818 0.79967 0.0
H149 H 0.55621 0.05805 0.77632 0.0
H150 H 0.53329 0.05949 0.97635 0.0
H151 H 0.56925 0.05968 0.9998 0.0
Dy152 Dy 0.53934 0.50443 0.777 0.0
Dy153 Dy 0.49524 0.49806 0.7092 0.0
C154 C 0.50944 0.46364 0.81691 0.0
O155 O 0.55115 0.48506 0.6851 0.0
O156 O 0.52023 0.47017 0.6691 0.0
O157 O 0.56755 0.49158 0.81504 0.0
O158 O 0.55681 0.52901 0.82193 0.0
O159 O 0.51259 0.52229 0.64516 0.0
O160 O 0.53737 0.53288 0.70645 0.0
O161 O 0.49216 0.53274 0.76186 0.0
O162 O 0.51002 0.51835 0.83913 0.0
O163 O 0.46156 0.50553 0.70741 0.0
O164 O 0.48055 0.48094 0.63883 0.0
C165 C 0.54058 0.47066 0.65606 0.0
O166 O 0.52859 0.46991 0.80713 0.0
O167 O 0.49358 0.47572 0.79531 0.0
C168 C 0.57909 0.51494 0.89676 0.0
C169 C 0.59974 0.51886 0.00555 0.0
C170 C 0.58877 0.49916 0.99547 0.0
C171 C 0.57861 0.49718 0.94163 0.0
C172 C 0.58951 0.53483 0.9076 0.0
C173 C 0.59968 0.53679 0.96101 0.0
C174 C 0.57078 0.51251 0.83558 0.0
C175 C 0.52722 0.53564 0.65719 0.0
C176 C 0.4974 0.53491 0.81858 0.0
C177 C 0.44907 0.4993 0.60709 0.0
C178 C 0.4226 0.50471 0.51128 0.0
C179 C 0.44448 0.50028 0.4954 0.0
C180 C 0.45754 0.49765 0.54261 0.0
C181 C 0.42732 0.50475 0.62302 0.0
C182 C 0.41426 0.50754 0.57578 0.0
C183 C 0.46199 0.49183 0.65721 0.0
H184 H 0.58812 0.48512 0.02893 0.0
H185 H 0.57074 0.48158 0.93462 0.0
H186 H 0.59035 0.54866 0.87347 0.0
H187 H 0.60817 0.55204 0.96596 0.0
H188 H 0.45151 0.49835 0.4463 0.0
H189 H 0.47421 0.49342 0.52842 0.0
H190 H 0.42029 0.50581 0.67218 0.0
H191 H 0.3975 0.51076 0.58992 0.0
Dy192 Dy 0.0227 0.5251 0.67635 0.0
Dy193 Dy 0.01616 0.47844 0.75869 0.0
C194 C 0.02751 0.47399 0.61015 0.0
O195 O 0.98786 0.52695 0.70246 0.0
O196 O 0.98488 0.48808 0.72658 0.0
O197 O 0.01245 0.55048 0.60999 0.0
O198 O 0.04261 0.55172 0.64119 0.0
O199 O 1.00181 0.50869 0.82526 0.0
O200 O 0.01959 0.53813 0.77723 0.0
O201 O 0.04587 0.49146 0.77968 0.0
O202 O 0.05493 0.50739 0.68464 0.0
O203 O 0.02315 0.45736 0.83739 0.0
O204 O 1.00606 0.44343 0.76721 0.0
C205 C 0.97659 0.50897 0.71173 0.0
O206 O 0.01917 0.49582 0.60874 0.0
O207 O 0.03294 0.46572 0.66307 0.0
C208 C 0.04175 0.55239 0.53206 0.0
C209 C 0.06962 0.52961 0.43099 0.0
C210 C 0.04927 0.52289 0.44563 0.0
C211 C 0.03544 0.5343 0.49524 0.0
C212 C 0.06109 0.56097 0.51296 0.0
C213 C 0.07484 0.54981 0.4624 0.0
C214 C 0.03108 0.55744 0.59727 0.0
C215 C 1.00871 0.52973 0.82697 0.0
C216 C 0.06003 0.49953 0.73845 0.0
C217 C 0.99717 0.43312 0.87374 0.0
C218 C 0.96735 0.42803 0.97982 0.0
C219 C 0.96115 0.43088 0.91957 0.0
C220 C 0.9759 0.43349 0.86705 0.0
C221 C 1.0036 0.42817 0.93265 0.0
C222 C 0.98879 0.42576 0.98545 0.0
C223 C 0.01237 0.44047 0.82223 0.0
H224 H 0.04454 0.50753 0.42273 0.0
H225 H 0.02054 0.52739 0.5083 0.0
H226 H 0.06628 0.57495 0.54037 0.0
H227 H 0.09011 0.55604 0.45086 0.0
H228 H 0.94474 0.43309 0.91363 0.0
H229 H 0.97046 0.43721 0.82217 0.0
H230 H 0.01998 0.42761 0.93862 0.0
H231 H 0.99404 0.42353 0.03116 0.0
H232 H 0.1957 0.04738 0.20907 0.0
H233 H 0.16034 0.04644 0.267 0.0
H234 H 0.17656 0.97434 0.31553 0.0
H235 H 0.21147 0.97514 0.25595 0.0
H236 H 0.13703 0.97911 0.30547 0.0
H237 H 0.18166 0.02397 0.41252 0.0
H238 H 0.2044 0.0556 0.42477 0.0
H239 H 0.1534 0.10814 0.4067 0.0
H240 H 0.13045 0.07678 0.39328 0.0
H241 H 0.07611 0.97172 0.60584 0.0
H242 H 0.10467 0.97449 0.51976 0.0
H243 H 0.07564 0.04202 0.47215 0.0
H244 H 0.0468 0.03934 0.55834 0.0
H245 H 0.11878 0.04193 0.47451 0.0
H246 H 0.07324 0.99464 0.37975 0.0
H247 H 0.05166 0.96152 0.37348 0.0
H248 H 0.10588 0.9118 0.37584 0.0
H249 H 0.12776 0.94463 0.38306 0.0
C250 C 0.19131 0.031 0.22947 0.0
C251 C 0.20621 0.01118 0.22687 0.0
C252 C 0.17121 0.03058 0.26373 0.0
C253 C 0.16579 0.0105 0.29741 0.0
C254 C 0.18018 0.99011 0.29042 0.0
C255 C 0.20014 0.99047 0.25575 0.0
C256 C 0.14614 0.01119 0.34422 0.0
C257 C 0.13315 0.99283 0.34249 0.0
C258 C 0.1407 0.02916 0.39261 0.0
C259 C 0.15442 0.04804 0.40113 0.0
C260 C 0.17534 0.04227 0.41073 0.0
C261 C 0.18826 0.06014 0.41791 0.0
C262 C 0.18036 0.08386 0.41634 0.0
C263 C 0.15951 0.08976 0.40775 0.0
C264 C 0.14654 0.07194 0.40033 0.0
C265 C 0.07572 0.98721 0.5772 0.0
C266 C 0.05904 0.00529 0.58928 0.0
C267 C 0.09208 0.98871 0.52763 0.0
C268 C 0.09231 0.00836 0.48879 0.0
C269 C 0.07585 0.02664 0.50119 0.0
C270 C 0.05932 0.02504 0.55051 0.0
C271 C 0.10988 0.00977 0.43592 0.0
C272 C 0.12251 0.02844 0.43683 0.0
C273 C 0.11518 0.99189 0.38746 0.0
C274 C 0.10211 0.97211 0.38241 0.0
C275 C 0.08054 0.97664 0.37936 0.0
C276 C 0.06826 0.95792 0.37558 0.0
C277 C 0.07738 0.93458 0.37438 0.0
C278 C 0.09883 0.9299 0.3768 0.0
C279 C 0.11119 0.94856 0.38066 0.0
H280 H 0.06784 0.92011 0.37149 0.0
H281 H 0.19039 0.09768 0.42194 0.0
H282 H 0.47467 0.20823 0.27246 0.0
H283 H 0.47076 0.16983 0.32097 0.0
H284 H 0.53087 0.17133 0.38575 0.0
H285 H 0.53522 0.20876 0.33515 0.0
H286 H 0.52696 0.12851 0.35562 0.0
H287 H 0.48243 0.1908 0.48028 0.0
H288 H 0.45401 0.22343 0.49935 0.0
H289 H 0.40976 0.17664 0.45313 0.0
H290 H 0.43799 0.14379 0.43304 0.0
H291 H 0.48851 0.08024 0.68095 0.0
H292 H 0.48721 0.11154 0.60471 0.0
H293 H 0.49869 0.05924 0.45121 0.0
H294 H 0.50046 0.02778 0.52725 0.0
H295 H 0.46449 0.12487 0.51635 0.0
H296 H 0.53004 0.08053 0.32765 0.0
H297 H 0.56111 0.0512 0.32021 0.0
H298 H 0.56741 0.06706 0.51382 0.0
H299 H 0.53659 0.09668 0.52212 0.0
C300 C 0.48723 0.20004 0.29574 0.0
C301 C 0.50509 0.21175 0.3009 0.0
C302 C 0.4849 0.17821 0.32405 0.0
C303 C 0.50031 0.16784 0.3584 0.0
C304 C 0.51867 0.17889 0.36 0.0
C305 C 0.52107 0.20047 0.33145 0.0
C306 C 0.4971 0.1464 0.39626 0.0
C307 C 0.51315 0.12762 0.39017 0.0
C308 C 0.4793 0.14524 0.44231 0.0
C309 C 0.46234 0.16494 0.45441 0.0
C310 C 0.46666 0.18753 0.47376 0.0
C311 C 0.45059 0.20605 0.48481 0.0
C312 C 0.43011 0.20213 0.47725 0.0
C313 C 0.42564 0.17966 0.4588 0.0
C314 C 0.44167 0.16109 0.44758 0.0
C315 C 0.49054 0.07533 0.63102 0.0
C316 C 0.49482 0.05147 0.61029 0.0
C317 C 0.48973 0.09329 0.58739 0.0
C318 C 0.49314 0.08783 0.52206 0.0
C319 C 0.49638 0.06395 0.50128 0.0
C320 C 0.49733 0.04597 0.5449 0.0
C321 C 0.49447 0.10721 0.47618 0.0
C322 C 0.47807 0.12553 0.48079 0.0
C323 C 0.51228 0.10834 0.43019 0.0
C324 C 0.53086 0.09059 0.42566 0.0
C325 C 0.53808 0.07777 0.36857 0.0
C326 C 0.55565 0.0611 0.36421 0.0
C327 C 0.56619 0.05724 0.41655 0.0
C328 C 0.5592 0.07002 0.47337 0.0
C329 C 0.54167 0.08673 0.47795 0.0
H330 H 0.57984 0.04442 0.41302 0.0
H331 H 0.41769 0.21649 0.48585 0.0
H332 H 0.27631 0.51877 0.14569 0.0
H333 H 0.30315 0.52643 0.21212 0.0
H334 H 0.33784 0.45961 0.14753 0.0
H335 H 0.3106 0.45169 0.08329 0.0
H336 H 0.33454 0.46191 0.26759 0.0
H337 H 0.35499 0.51655 0.10879 0.0
H338 H 0.35014 0.5499 0.0385 0.0
H339 H 0.32999 0.59701 0.19993 0.0
H340 H 0.33446 0.56387 0.27121 0.0
H341 H 0.42591 0.47465 0.40744 0.0
H342 H 0.40202 0.47319 0.32851 0.0
H343 H 0.36309 0.53299 0.42242 0.0
H344 H 0.38711 0.53471 0.50158 0.0
H345 H 0.36852 0.53554 0.28889 0.0
H346 H 0.34826 0.47997 0.44649 0.0
H347 H 0.35405 0.44633 0.51518 0.0
H348 H 0.37504 0.40048 0.35167 0.0
H349 H 0.36966 0.43395 0.28198 0.0
C350 C 0.29003 0.50614 0.1442 0.0
C351 C 0.29154 0.4848 0.10863 0.0
C352 C 0.30539 0.51046 0.1824 0.0
C353 C 0.32274 0.49366 0.1851 0.0
C354 C 0.32468 0.47287 0.14684 0.0
C355 C 0.30922 0.46844 0.10948 0.0
C356 C 0.33791 0.49663 0.23127 0.0
C357 C 0.3422 0.47792 0.27119 0.0
C358 C 0.34757 0.51772 0.23802 0.0
C359 C 0.34486 0.53767 0.19531 0.0
C360 C 0.34936 0.53398 0.12929 0.0
C361 C 0.34671 0.55286 0.08927 0.0
C362 C 0.3397 0.57555 0.11473 0.0
C363 C 0.33539 0.57942 0.18027 0.0
C364 C 0.338 0.5606 0.22051 0.0
C365 C 0.41245 0.48775 0.41094 0.0
C366 C 0.4085 0.50481 0.46111 0.0
C367 C 0.39869 0.48678 0.36589 0.0
C368 C 0.38062 0.50287 0.3696 0.0
C369 C 0.3769 0.52037 0.41848 0.0
C370 C 0.39058 0.52122 0.46401 0.0
C371 C 0.36527 0.50071 0.32392 0.0
C372 C 0.36088 0.51956 0.28465 0.0
C373 C 0.35561 0.4797 0.31726 0.0
C374 C 0.35875 0.45952 0.35905 0.0
C375 C 0.35427 0.46276 0.42519 0.0
C376 C 0.35745 0.44372 0.46431 0.0
C377 C 0.36496 0.4213 0.43781 0.0
C378 C 0.36925 0.41787 0.37213 0.0
C379 C 0.36612 0.43686 0.3328 0.0
H380 H 0.36741 0.40657 0.46817 0.0
H381 H 0.33766 0.59014 0.08366 0.0
H382 H 0.01631 0.31088 0.20844 0.0
H383 H 1.01016 0.34746 0.27346 0.0
H384 H 0.06513 0.3725 0.16945 0.0
H385 H 0.07153 0.33545 0.10573 0.0
H386 H 0.06891 0.37486 0.28522 0.0
H387 H 0.01384 0.40137 0.17332 0.0
H388 H 0.98165 0.40196 0.12352 0.0
H389 H 0.94562 0.39378 0.30441 0.0
H390 H 0.97758 0.39242 0.35514 0.0
H391 H 0.01581 0.48543 0.49534 0.0
H392 H 0.01896 0.46041 0.39971 0.0
H393 H 0.04627 0.40204 0.49699 0.0
H394 H 0.04379 0.42732 0.59268 0.0
H395 H 1.0025 0.42266 0.37069 0.0
H396 H 0.0824 0.36672 0.38944 0.0
H397 H 0.11504 0.37201 0.43299 0.0
H398 H 0.1027 0.44736 0.42416 0.0
H399 H 0.07081 0.44254 0.37673 0.0
C400 C 0.02642 0.32474 0.19736 0.0
C401 C 0.04413 0.32057 0.15116 0.0
C402 C 0.023 0.34567 0.23489 0.0
C403 C 0.03719 0.36293 0.22682 0.0
C404 C 0.05396 0.35953 0.17701 0.0
C405 C 0.05745 0.33851 0.1398 0.0
C406 C 0.03624 0.38249 0.27563 0.0
C407 C 0.05436 0.38537 0.30348 0.0
C408 C 0.01745 0.39679 0.29893 0.0
C409 C 0.99823 0.39661 0.26807 0.0
C410 C 0.99911 0.39936 0.20242 0.0
C411 C 0.98087 0.39992 0.17399 0.0
C412 C 0.96159 0.39798 0.21069 0.0
C413 C 0.96053 0.3953 0.2759 0.0
C414 C 0.97873 0.3946 0.30454 0.0
C415 C 0.02275 0.46736 0.49642 0.0
C416 C 0.02982 0.45854 0.55177 0.0
C417 C 0.02434 0.45297 0.44161 0.0
C418 C 0.03299 0.42932 0.4406 0.0
C419 C 0.03983 0.42033 0.49605 0.0
C420 C 0.03837 0.4348 0.5509 0.0
C421 C 0.03487 0.41411 0.38162 0.0
C422 C 0.017 0.41215 0.35197 0.0
C423 C 0.05403 0.40122 0.35527 0.0
C424 C 0.07396 0.40424 0.38032 0.0
C425 C 0.0868 0.38441 0.39585 0.0
C426 C 0.10526 0.38733 0.42094 0.0
C427 C 0.11099 0.41 0.43117 0.0
C428 C 0.09838 0.42979 0.4157 0.0
C429 C 0.08016 0.42697 0.3894 0.0
H430 H 0.12519 0.41223 0.4511 0.0
H431 H 0.94748 0.39857 0.18858 0.0
H432 H 0.8158 0.95114 0.24367 0.0
H433 H 0.85208 0.94977 0.19059 0.0
H434 H 0.84222 0.02425 0.15587 0.0
H435 H 0.80657 0.02565 0.21068 0.0
H436 H 0.8644 0.95474 0.0744 0.0
H437 H 0.88589 0.05017 0.12432 0.0
H438 H 0.88184 0.07931 0.21354 0.0
H439 H 0.87558 0.02361 0.3453 0.0
H440 H 0.87988 0.9941 0.25693 0.0
H441 H 0.93461 0.9906 0.8204 0.0
H442 H 0.90567 0.98744 0.90508 0.0
H443 H 0.94828 0.98812 0.04337 0.0
H444 H 0.97733 0.99153 0.95885 0.0
H445 H 0.91383 0.01545 0.08574 0.0
H446 H 0.92862 0.93684 0.00451 0.0
H447 H 0.93568 0.90434 0.92371 0.0
H448 H 0.8744 0.92049 0.87083 0.0
H449 H 0.86706 0.95331 0.95078 0.0
C450 C 0.82182 0.96741 0.22763 0.0
C451 C 0.80849 0.98863 0.2328 0.0
C452 C 0.84246 0.96657 0.19615 0.0
C453 C 0.85018 0.98692 0.1689 0.0
C454 C 0.83712 0.00835 0.17735 0.0
C455 C 0.81665 0.00921 0.20914 0.0
C456 C 0.87085 0.98548 0.12641 0.0
C457 C 0.87521 0.96798 0.0774 0.0
C458 C 0.88547 0.0023 0.1304 0.0
C459 C 0.88305 0.01993 0.18389 0.0
C460 C 0.88376 0.04412 0.17231 0.0
C461 C 0.88139 0.06071 0.22276 0.0
C462 C 0.8784 0.05332 0.28504 0.0
C463 C 0.87782 0.02931 0.29703 0.0
C464 C 0.88019 0.01265 0.24677 0.0
C465 C 0.9379 0.99003 0.86875 0.0
C466 C 0.95842 0.99132 0.88244 0.0
C467 C 0.92128 0.98811 0.91732 0.0
C468 C 0.92469 0.98728 0.98099 0.0
C469 C 0.94514 0.98871 0.99485 0.0
C470 C 0.96179 0.9906 0.94626 0.0
C471 C 0.90684 0.9853 0.03279 0.0
C472 C 0.90305 0.00214 0.0833 0.0
C473 C 0.89309 0.96744 0.03139 0.0
C474 C 0.89735 0.94767 0.98333 0.0
C475 C 0.91669 0.93357 0.97535 0.0
C476 C 0.92074 0.91507 0.92975 0.0
C477 C 0.90551 0.91038 0.89207 0.0
C478 C 0.88618 0.92415 0.90003 0.0
C479 C 0.88206 0.9427 0.94554 0.0
H480 H 0.90867 0.89605 0.85678 0.0
H481 H 0.87656 0.06619 0.32402 0.0
H482 H 0.50624 0.80104 0.20725 0.0
H483 H 0.50478 0.83916 0.15603 0.0
H484 H 0.57162 0.83879 0.1482 0.0
H485 H 0.57312 0.80035 0.19903 0.0
H486 H 0.5413 0.88823 0.16798 0.0
H487 H 0.56512 0.81803 0.02884 0.0
H488 H 0.56219 0.7767 0.99643 0.0
H489 H 0.49859 0.79547 0.96611 0.0
H490 H 0.50112 0.8369 0.99894 0.0
H491 H 0.55074 0.96306 0.89894 0.0
H492 H 0.55695 0.93344 0.97806 0.0
H493 H 0.50133 0.90219 0.94331 0.0
H494 H 0.49563 0.93089 0.86303 0.0
H495 H 0.52988 0.86892 0.94824 0.0
H496 H 0.50532 0.93874 0.08004 0.0
H497 H 0.5056 0.97982 0.11923 0.0
H498 H 0.56716 0.96285 0.16933 0.0
H499 H 0.56735 0.92173 0.12962 0.0
C500 C 0.52044 0.80971 0.19761 0.0
C501 C 0.53974 0.79803 0.20782 0.0
C502 C 0.51962 0.8314 0.16808 0.0
C503 C 0.5381 0.84174 0.14826 0.0
C504 C 0.55718 0.83121 0.16381 0.0
C505 C 0.55802 0.80935 0.19306 0.0
C506 C 0.53778 0.86055 0.10121 0.0
C507 C 0.53914 0.88411 0.1196 0.0
C508 C 0.53459 0.85513 0.03859 0.0
C509 C 0.53327 0.83047 0.01671 0.0
C510 C 0.5505 0.81331 0.01544 0.0
C511 C 0.54893 0.78989 0.99689 0.0
C512 C 0.5302 0.78345 0.97935 0.0
C513 C 0.51307 0.80048 0.97978 0.0
C514 C 0.51458 0.82393 0.99819 0.0
C515 C 0.53987 0.94985 0.90831 0.0
C516 C 0.52277 0.94925 0.87436 0.0
C517 C 0.54334 0.933 0.95388 0.0
C518 C 0.52952 0.91558 0.96735 0.0
C519 C 0.51234 0.91526 0.93379 0.0
C520 C 0.50908 0.93175 0.88775 0.0
C521 C 0.533 0.89712 0.01461 0.0
C522 C 0.53226 0.87336 0.99624 0.0
C523 C 0.53655 0.90254 0.0773 0.0
C524 C 0.53645 0.92724 0.10117 0.0
C525 C 0.51898 0.94382 0.09893 0.0
C526 C 0.51905 0.9671 0.12132 0.0
C527 C 0.53642 0.97396 0.14656 0.0
C528 C 0.55374 0.95753 0.14963 0.0
C529 C 0.55376 0.93423 0.12722 0.0
H530 H 0.53643 0.99199 0.16388 0.0
H531 H 0.52897 0.76528 0.96539 0.0
H532 H 0.73505 0.49899 0.40232 0.0
H533 H 0.70399 0.49528 0.35005 0.0
H534 H 0.69667 0.57075 0.32899 0.0
H535 H 0.72783 0.57439 0.38078 0.0
H536 H 0.65747 0.55072 0.3497 0.0
H537 H 0.7237 0.53958 0.21437 0.0
H538 H 0.75998 0.52155 0.18391 0.0
H539 H 0.73808 0.45297 0.17148 0.0
H540 H 0.70165 0.47058 0.20297 0.0
H541 H 0.60575 0.55847 0.07546 0.0
H542 H 0.62848 0.56132 0.15677 0.0
H543 H 0.64377 0.48565 0.14396 0.0
H544 H 0.62205 0.4828 0.05981 0.0
H545 H 0.67785 0.50499 0.14631 0.0
H546 H 0.6107 0.51691 0.27482 0.0
H547 H 0.57465 0.53535 0.30744 0.0
H548 H 0.59776 0.60254 0.33313 0.0
H549 H 0.63397 0.58463 0.29997 0.0
C550 C 0.72621 0.51487 0.38926 0.0
C551 C 0.73361 0.53702 0.39668 0.0
C552 C 0.70859 0.51273 0.35872 0.0
C553 C 0.69806 0.53272 0.33489 0.0
C554 C 0.70441 0.55509 0.3471 0.0
C555 C 0.72214 0.55719 0.3771 0.0
C556 C 0.68249 0.53 0.2902 0.0
C557 C 0.6619 0.54083 0.30506 0.0
C558 C 0.68817 0.51692 0.23212 0.0
C559 C 0.70998 0.50635 0.21168 0.0
C560 C 0.72664 0.52063 0.20554 0.0
C561 C 0.74722 0.5105 0.18809 0.0
C562 C 0.75134 0.48612 0.17597 0.0
C563 C 0.73486 0.47185 0.18101 0.0
C564 C 0.71424 0.48189 0.19864 0.0
C565 C 0.61399 0.54237 0.08954 0.0
C566 C 0.61201 0.52038 0.06023 0.0
C567 C 0.62682 0.54401 0.13703 0.0
C568 C 0.6378 0.52368 0.15758 0.0
C569 C 0.63551 0.50166 0.12939 0.0
C570 C 0.62283 0.50002 0.08148 0.0
C571 C 0.65251 0.52546 0.20574 0.0
C572 C 0.67314 0.51461 0.19123 0.0
C573 C 0.6468 0.53857 0.26403 0.0
C574 C 0.62506 0.54944 0.28437 0.0
C575 C 0.6081 0.53566 0.28703 0.0
C576 C 0.58764 0.54603 0.30569 0.0
C577 C 0.58393 0.57014 0.32222 0.0
C578 C 0.60068 0.58391 0.32027 0.0
C579 C 0.62118 0.57365 0.30164 0.0
H580 H 0.56808 0.57816 0.33666 0.0
H581 H 0.7673 0.4783 0.16254 0.0
H582 H 0.01547 0.67896 0.28233 0.0
H583 H 0.02191 0.64431 0.2094 0.0
H584 H 0.95714 0.63144 0.25234 0.0
H585 H 0.95076 0.66605 0.32538 0.0
H586 H 0.98364 0.58921 0.22175 0.0
H587 H 0.9691 0.66552 0.13395 0.0
H588 H 0.97387 0.70727 0.11298 0.0
H589 H 0.03755 0.68736 0.03049 0.0
H590 H 0.03315 0.64543 0.05077 0.0
H591 H 0.97572 0.53152 0.92371 0.0
H592 H 0.97042 0.55632 0.02125 0.0
H593 H 0.02987 0.58348 0.96543 0.0
H594 H 0.03442 0.56004 0.86676 0.0
H595 H 1.00471 0.61783 0.00689 0.0
H596 H 0.01834 0.54005 0.09205 0.0
H597 H 0.01188 0.49848 0.10968 0.0
H598 H 0.94895 0.52087 0.19544 0.0
H599 H 0.955 0.56256 0.17801 0.0
C600 C 1.00294 0.6679 0.27905 0.0
C601 C 0.9827 0.67496 0.3103 0.0
C602 C 1.00653 0.6483 0.23656 0.0
C603 C 0.9899 0.63552 0.22437 0.0
C604 C 0.97021 0.64099 0.26084 0.0
C605 C 0.96661 0.66063 0.30316 0.0
C606 C 0.99223 0.61913 0.16768 0.0
C607 C 0.98821 0.59542 0.17468 0.0
C608 C 0.99809 0.62718 0.10613 0.0
C609 C 1.00086 0.65239 0.09449 0.0
C610 C 0.98417 0.67007 0.11179 0.0
C611 C 0.98679 0.69376 0.09992 0.0
C612 C 1.00603 0.7 0.07083 0.0
C613 C 0.02267 0.68252 0.0532 0.0
C614 C 0.02011 0.65878 0.06468 0.0
C615 C 0.98761 0.54282 0.9325 0.0
C616 C 1.00539 0.54399 0.88731 0.0
C617 C 0.9847 0.55685 0.98866 0.0
C618 C 0.99988 0.57169 0.00183 0.0
C619 C 0.0178 0.5724 0.95685 0.0
C620 C 0.02041 0.55895 0.90021 0.0
C621 C 0.99696 0.5874 0.06044 0.0
C622 C 1.00053 0.61128 0.0538 0.0
C623 C 0.99065 0.57941 0.12206 0.0
C624 C 0.9871 0.55439 0.13339 0.0
C625 C 1.00311 0.53609 0.1145 0.0
C626 C 0.99953 0.51252 0.1245 0.0
C627 C 0.98002 0.50705 0.15363 0.0
C628 C 0.96406 0.52514 0.17296 0.0
C629 C 0.96758 0.54874 0.16317 0.0
H630 H 0.97729 0.4888 0.16137 0.0
H631 H 1.008 0.71836 0.06172 0.0
H632 H 0.10089 0.22176 0.15703 0.0
H633 H 0.10026 0.18944 0.23081 0.0
H634 H 0.05365 0.23162 0.3611 0.0
H635 H 0.05392 0.2636 0.28797 0.0
H636 H 0.07627 0.19759 0.42242 0.0
H637 H 0.03699 0.20405 0.24135 0.0
H638 H 0.03381 0.207 0.12778 0.0
H639 H 0.07508 0.14308 0.08647 0.0
H640 H 0.07854 0.13983 0.1999 0.0
H641 H 0.99047 0.13687 0.53525 0.0
H642 H 0.01493 0.16301 0.48394 0.0
H643 H 0.04997 0.10334 0.37675 0.0
H644 H 0.02551 0.07713 0.42773 0.0
H645 H 0.04236 0.1398 0.30354 0.0
H646 H 0.07003 0.12893 0.4979 0.0
H647 H 0.06752 0.12714 0.61397 0.0
H648 H 0.04457 0.20075 0.6335 0.0
H649 H 0.04666 0.20295 0.51762 0.0
C650 C 0.09119 0.22448 0.20261 0.0
C651 C 0.07695 0.24489 0.21578 0.0
C652 C 0.09091 0.20605 0.24478 0.0
C653 C 0.07643 0.20796 0.30032 0.0
C654 C 0.06483 0.22976 0.31818 0.0
C655 C 0.06504 0.24813 0.27609 0.0
C656 C 0.06941 0.18658 0.33104 0.0
C657 C 0.06909 0.18472 0.39656 0.0
C658 C 0.0601 0.1698 0.29697 0.0
C659 C 0.05825 0.17187 0.2288 0.0
C660 C 0.04549 0.19073 0.20794 0.0
C661 C 0.04359 0.19242 0.14368 0.0
C662 C 0.05431 0.17529 0.09994 0.0
C663 C 0.06686 0.15638 0.12041 0.0
C664 C 0.06878 0.15458 0.18464 0.0
C665 C 1.00341 0.12937 0.50078 0.0
C666 C 1.00603 0.10505 0.48507 0.0
C667 C 0.01745 0.14424 0.47194 0.0
C668 C 0.03449 0.13499 0.42756 0.0
C669 C 0.037 0.11076 0.41121 0.0
C670 C 0.0229 0.09589 0.43983 0.0
C671 C 0.04884 0.15096 0.39531 0.0
C672 C 0.05034 0.15192 0.32937 0.0
C673 C 0.0589 0.16704 0.4293 0.0
C674 C 0.05842 0.16607 0.49896 0.0
C675 C 0.06441 0.14474 0.52692 0.0
C676 C 0.06306 0.14365 0.59269 0.0
C677 C 0.05585 0.1638 0.63102 0.0
C678 C 0.05017 0.18516 0.6037 0.0
C679 C 0.05147 0.18635 0.53795 0.0
H680 H 0.0546 0.16285 0.68186 0.0
H681 H 0.05285 0.17662 0.05025 0.0
H682 H 0.25463 0.98994 0.36103 0.0
H683 H 0.27858 0.98118 0.43829 0.0
H684 H 0.31719 0.03374 0.3583 0.0
H685 H 0.29287 0.04318 0.28278 0.0
H686 H 0.31629 0.96187 0.39839 0.0
H687 H 0.3486 0.05152 0.45537 0.0
H688 H 0.33474 0.09265 0.4865 0.0
H689 H 0.27541 0.06958 0.56063 0.0
H690 H 0.28899 0.02825 0.53088 0.0
H691 H 0.42669 0.98634 0.44043 0.0
H692 H 0.3909 0.9973 0.42032 0.0
H693 H 0.36873 0.94474 0.54838 0.0
H694 H 0.4045 0.93418 0.57075 0.0
H695 H 0.3563 0.01419 0.51377 0.0
H696 H 0.32697 0.9242 0.4791 0.0
H697 H 0.34058 0.88299 0.44686 0.0
H698 H 0.39256 0.90756 0.3285 0.0
H699 H 0.37911 0.94888 0.35945 0.0
C700 C 0.26772 0.00035 0.36177 0.0
C701 C 0.2721 0.01703 0.3154 0.0
C702 C 0.28146 0.99522 0.40571 0.0
C703 C 0.2997 0.0067 0.40394 0.0
C704 C 0.30308 0.02483 0.36122 0.0
C705 C 0.28932 0.03004 0.31753 0.0
C706 C 0.31697 0.99707 0.43765 0.0
C707 C 0.32464 0.97319 0.42538 0.0
C708 C 0.32805 0.01187 0.47206 0.0
C709 C 0.31982 0.03673 0.49057 0.0
C710 C 0.33264 0.05517 0.47869 0.0
C711 C 0.32482 0.07854 0.49601 0.0
C712 C 0.3042 0.08373 0.52542 0.0
C713 C 0.29137 0.06554 0.53767 0.0
C714 C 0.29911 0.04214 0.52048 0.0
C715 C 0.41422 0.97711 0.4644 0.0
C716 C 0.41839 0.95953 0.50754 0.0
C717 C 0.39382 0.98341 0.45291 0.0
C718 C 0.37728 0.97198 0.48345 0.0
C719 C 0.38139 0.95371 0.52444 0.0
C720 C 0.40183 0.94756 0.53661 0.0
C721 C 0.35577 0.9795 0.47193 0.0
C722 C 0.34744 0.00286 0.48854 0.0
C723 C 0.34401 0.96428 0.44167 0.0
C724 C 0.3522 0.93956 0.42233 0.0
C725 C 0.34129 0.92077 0.44618 0.0
C726 C 0.34897 0.89741 0.42811 0.0
C727 C 0.36747 0.89266 0.38589 0.0
C728 C 0.37829 0.91126 0.36145 0.0
C729 C 0.37067 0.93464 0.37933 0.0
H730 H 0.37339 0.87456 0.37197 0.0
H731 H 0.29817 0.10184 0.53877 0.0
H732 H 0.50127 0.32254 0.32879 0.0
H733 H 0.51702 0.35204 0.38612 0.0
H734 H 0.56369 0.29831 0.43251 0.0
H735 H 0.54836 0.26855 0.37312 0.0
H736 H 0.54238 0.33336 0.53614 0.0
H737 H 0.58135 0.32954 0.32668 0.0
H738 H 0.58411 0.32764 0.21028 0.0
H739 H 0.54755 0.39501 0.21426 0.0
H740 H 0.54431 0.39717 0.33071 0.0
H741 H 0.57236 0.43674 0.67011 0.0
H742 H 0.58096 0.39989 0.60512 0.0
H743 H 0.53991 0.42736 0.47475 0.0
H744 H 0.53164 0.46383 0.53878 0.0
H745 H 0.57053 0.39895 0.41269 0.0
H746 H 0.52222 0.39839 0.60853 0.0
H747 H 0.51165 0.40066 0.72424 0.0
H748 H 0.55831 0.34344 0.74565 0.0
H749 H 0.56941 0.34114 0.63014 0.0
C750 C 0.51492 0.31694 0.35098 0.0
C751 C 0.52377 0.29328 0.34561 0.0
C752 C 0.52384 0.3338 0.38385 0.0
C753 C 0.54168 0.32733 0.41244 0.0
C754 C 0.54998 0.30356 0.41025 0.0
C755 C 0.54114 0.28662 0.37671 0.0
C756 C 0.55159 0.34589 0.44321 0.0
C757 C 0.54921 0.34738 0.50938 0.0
C758 C 0.56 0.3643 0.40781 0.0
C759 C 0.56258 0.36348 0.33753 0.0
C760 C 0.57386 0.34392 0.30275 0.0
C761 C 0.5755 0.3428 0.23674 0.0
C762 C 0.56601 0.36119 0.20488 0.0
C763 C 0.55493 0.3808 0.23896 0.0
C764 C 0.55323 0.382 0.30499 0.0
C765 C 0.56607 0.43521 0.62588 0.0
C766 C 0.55138 0.45291 0.60903 0.0
C767 C 0.57079 0.41413 0.58919 0.0
C768 C 0.56075 0.41071 0.53576 0.0
C769 C 0.54786 0.42953 0.51569 0.0
C770 C 0.54312 0.45039 0.55224 0.0
C771 C 0.56063 0.38694 0.50601 0.0
C772 C 0.56471 0.38446 0.43976 0.0
C773 C 0.55312 0.36794 0.54136 0.0
C774 C 0.54688 0.36985 0.61089 0.0
C775 C 0.5304 0.3865 0.63802 0.0
C776 C 0.52428 0.38777 0.70351 0.0
C777 C 0.53433 0.37222 0.74221 0.0
C778 C 0.55059 0.3555 0.71558 0.0
C779 C 0.55683 0.35425 0.65016 0.0
H780 H 0.52943 0.37299 0.79276 0.0
H781 H 0.56724 0.36023 0.1538 0.0
H782 H 0.23583 0.45575 0.22118 0.0
H783 H 0.20291 0.44847 0.28135 0.0
H784 H 0.18627 0.41165 0.11959 0.0
H785 H 0.21978 0.41857 0.05881 0.0
H786 H 0.16201 0.45117 0.1449 0.0
H787 H 0.17844 0.38705 0.26729 0.0
H788 H 0.19809 0.3602 0.33234 0.0
H789 H 0.19261 0.41465 0.47789 0.0
H790 H 0.17325 0.44199 0.41345 0.0
H791 H 0.06556 0.50196 0.32596 0.0
H792 H 0.09171 0.47218 0.26971 0.0
H793 H 0.13697 0.49168 0.38687 0.0
H794 H 0.11073 0.51998 0.44623 0.0
H795 H 0.13944 0.44569 0.37476 0.0
H796 H 0.13557 0.5111 0.22802 0.0
H797 H 0.11704 0.53834 0.16086 0.0
H798 H 0.09873 0.47923 0.06077 0.0
H799 H 0.11721 0.45165 0.12739 0.0
C800 C 0.22586 0.4448 0.19927 0.0
C801 C 0.2301 0.43847 0.13448 0.0
C802 C 0.20685 0.4406 0.23403 0.0
C803 C 0.19184 0.42995 0.2046 0.0
C804 C 0.19751 0.42016 0.14301 0.0
C805 C 0.21665 0.4242 0.10829 0.0
C806 C 0.16946 0.43535 0.2312 0.0
C807 C 0.15667 0.44907 0.1947 0.0
C808 C 0.16247 0.43284 0.2961 0.0
C809 C 0.17434 0.41662 0.3353 0.0
C810 C 0.18154 0.39339 0.31297 0.0
C811 C 0.19262 0.37806 0.34981 0.0
C812 C 0.19659 0.38571 0.40921 0.0
C813 C 0.18949 0.40873 0.4319 0.0
C814 C 0.17841 0.42414 0.39526 0.0
C815 C 0.08105 0.49987 0.34 0.0
C816 C 0.08599 0.51367 0.39051 0.0
C817 C 0.09603 0.48291 0.30739 0.0
C818 C 0.11635 0.47977 0.3238 0.0
C819 C 0.12138 0.49371 0.37344 0.0
C820 C 0.10639 0.51032 0.4066 0.0
C821 C 0.1328 0.46242 0.28922 0.0
C822 C 0.14428 0.4466 0.32436 0.0
C823 C 0.13857 0.46285 0.22301 0.0
C824 C 0.12752 0.47938 0.18305 0.0
C825 C 0.1275 0.50395 0.19185 0.0
C826 C 0.11706 0.51943 0.15381 0.0
C827 C 0.10669 0.51051 0.10664 0.0
C828 C 0.10678 0.48609 0.09731 0.0
C829 C 0.11726 0.47054 0.13508 0.0
H830 H 0.0986 0.52251 0.07725 0.0
H831 H 0.20517 0.37381 0.43766 0.0
H832 H 0.98108 0.78015 0.26319 0.0
H833 H 0.97992 0.80221 0.1677 0.0
H834 H 0.94195 0.75246 0.09634 0.0
H835 H 0.94179 0.73084 0.1948 0.0
H836 H 0.98233 0.76088 0.01709 0.0
H837 H 0.91819 0.80247 0.11407 0.0
H838 H 0.89436 0.82227 0.20385 0.0
H839 H 0.93676 0.87502 0.21729 0.0
H840 H 0.96098 0.85539 0.12818 0.0
H841 H 0.9892 0.88489 0.8543 0.0
H842 H 0.96979 0.85124 0.88479 0.0
H843 H 0.02212 0.82003 0.9702 0.0
H844 H 0.04151 0.85371 0.94029 0.0
H845 H 0.96068 0.84686 0.01164 0.0
H846 H 0.02114 0.76326 0.98087 0.0
H847 H 0.04709 0.74258 0.89753 0.0
H848 H 0.01331 0.77319 0.75468 0.0
H849 H 0.98719 0.79424 0.8372 0.0
C850 C 0.97162 0.77441 0.22885 0.0
C851 C 0.96131 0.75386 0.23715 0.0
C852 C 0.9712 0.78691 0.17383 0.0
C853 C 0.96078 0.77894 0.12541 0.0
C854 C 0.94998 0.75884 0.13361 0.0
C855 C 0.94999 0.74653 0.18963 0.0
C856 C 0.96325 0.79084 0.06474 0.0
C857 C 0.97722 0.77956 0.01469 0.0
C858 C 0.95623 0.81503 0.06188 0.0
C859 C 0.94137 0.82747 0.11414 0.0
C860 C 0.92244 0.81829 0.13616 0.0
C861 C 0.90887 0.82948 0.187 0.0
C862 C 0.91403 0.84991 0.21619 0.0
C863 C 0.93275 0.85924 0.19449 0.0
C864 C 0.94637 0.84813 0.14365 0.0
C865 C 0.99675 0.87054 0.87822 0.0
C866 C 0.01664 0.87212 0.89645 0.0
C867 C 0.98572 0.85124 0.89494 0.0
C868 C 0.99449 0.83317 0.9297 0.0
C869 C 0.01516 0.83363 0.94255 0.0
C870 C 0.0262 0.85296 0.92587 0.0
C871 C 0.9809 0.81728 0.9656 0.0
C872 C 0.96497 0.82793 0.01165 0.0
C873 C 0.98633 0.79259 0.96508 0.0
C874 C 1.00222 0.78036 0.91526 0.0
C875 C 0.01921 0.76557 0.93169 0.0
C876 C 0.034 0.75386 0.88459 0.0
C877 C 0.03188 0.75665 0.82085 0.0
C878 C 0.01497 0.77117 0.80409 0.0
C879 C 1.00024 0.7831 0.85099 0.0
H880 H 0.04331 0.74752 0.78445 0.0
H881 H 0.90354 0.85849 0.25569 0.0
H882 H 0.72078 0.97 0.15917 0.0
H883 H 0.69998 0.9815 0.07612 0.0
H884 H 0.74143 0.03433 0.01764 0.0
H885 H 0.76175 0.02367 0.10308 0.0
H886 H 0.70342 0.0536 0.03613 0.0
H887 H 0.73624 0.98701 0.91506 0.0
H888 H 0.75128 0.94578 0.89055 0.0
H889 H 0.6906 0.92174 0.93982 0.0
H890 H 0.67522 0.96276 0.96557 0.0
H891 H 0.618 0.0797 0.85222 0.0
H892 H 0.65437 0.06877 0.87014 0.0
H893 H 0.63359 0.01482 0.99589 0.0
H894 H 0.59753 0.02551 0.97823 0.0
H895 H 0.66953 -0.00037 0.90587 0.0
H896 H 0.6416 0.06579 0.05726 0.0
H897 H 0.62694 0.10716 0.0824 0.0
H898 H 0.68028 0.13165 0.97036 0.0
H899 H 0.69512 0.09037 0.944 0.0
C900 C 0.72558 0.98392 0.12827 0.0
C901 C 0.74272 0.99613 0.13816 0.0
C902 C 0.71389 0.99022 0.08002 0.0
C903 C 0.71929 0.00861 0.04004 0.0
C904 C 0.73708 0.02 0.04767 0.0
C905 C 0.74871 0.01381 0.09634 0.0
C906 C 0.70451 0.01801 0.99742 0.0
C907 C 0.69651 0.04192 0.00587 0.0
C908 C 0.69547 0.00286 0.95783 0.0
C909 C 0.70457 0.97805 0.94233 0.0
C910 C 0.72611 0.97294 0.92103 0.0
C911 C 0.73469 0.94959 0.90687 0.0
C912 C 0.7219 0.93115 0.91362 0.0
C913 C 0.70049 0.93604 0.93451 0.0
C914 C 0.69181 0.95936 0.94875 0.0
C915 C 0.62129 0.06557 0.88377 0.0
C916 C 0.605 0.05365 0.91461 0.0
C917 C 0.64198 0.05932 0.89369 0.0
C918 C 0.64655 0.04092 0.93394 0.0
C919 C 0.63032 0.02895 0.96427 0.0
C920 C 0.60973 0.03532 0.95494 0.0
C921 C 0.66797 0.03458 0.94806 0.0
C922 C 0.67715 0.01136 0.93397 0.0
C923 C 0.67823 0.05034 0.98201 0.0
C924 C 0.66931 0.07507 0.998 0.0
C925 C 0.6501 0.08001 0.03758 0.0
C926 C 0.64178 0.10343 0.05214 0.0
C927 C 0.65263 0.12203 0.0278 0.0
C928 C 0.67186 0.11724 0.98903 0.0
C929 C 0.68023 0.09384 0.97428 0.0
H930 H 0.64617 0.14014 0.03914 0.0
H931 H 0.72858 0.91309 0.90265 0.0
H932 H 0.50441 0.73331 0.11775 0.0
H933 H 0.49456 0.70208 0.05066 0.0
H934 H 0.55847 0.66971 0.02406 0.0
H935 H 0.56791 0.70023 0.09484 0.0
H936 H 0.50151 0.68337 0.94145 0.0
H937 H 0.56001 0.60997 0.02507 0.0
H938 H 0.5783 0.60101 0.11714 0.0
H939 H 0.53212 0.64761 0.23555 0.0
H940 H 0.51335 0.65649 0.14455 0.0
H941 H 0.50395 0.57634 0.76322 0.0
H942 H 0.50825 0.61358 0.81636 0.0
H943 H 0.48975 0.58379 0.99744 0.0
H944 H 0.48722 0.54583 0.94414 0.0
H945 H 0.52196 0.60205 0.00563 0.0
H946 H 0.45968 0.63106 0.92811 0.0
H947 H 0.43431 0.64076 0.85408 0.0
H948 H 0.47717 0.68339 0.74966 0.0
H949 H 0.503 0.67356 0.82227 0.0
C950 C 0.5164 0.71983 0.09605 0.0
C951 C 0.53684 0.71894 0.11106 0.0
C952 C 0.5108 0.70198 0.05785 0.0
C953 C 0.52565 0.68318 0.03366 0.0
C954 C 0.54661 0.68366 0.04372 0.0
C955 C 0.55208 0.70118 0.08334 0.0
C956 C 0.51878 0.66219 0.00306 0.0
C957 C 0.50601 0.66554 0.95524 0.0
C958 C 0.52399 0.63899 0.0228 0.0
C959 C 0.53541 0.63411 0.07772 0.0
C960 C 0.55376 0.6183 0.07076 0.0
C961 C 0.5642 0.6132 0.12278 0.0
C962 C 0.55641 0.62376 0.18212 0.0
C963 C 0.53818 0.63948 0.18954 0.0
C964 C 0.52764 0.64456 0.13773 0.0
C965 C 0.50026 0.578 0.8143 0.0
C966 C 0.49514 0.5584 0.8499 0.0
C967 C 0.50262 0.59935 0.84467 0.0
C968 C 0.49913 0.6017 0.91101 0.0
C969 C 0.49266 0.58244 0.94624 0.0
C970 C 0.49104 0.56083 0.91595 0.0
C971 C 0.50459 0.62309 0.9437 0.0
C972 C 0.51731 0.61981 0.99169 0.0
C973 C 0.49845 0.64637 0.92619 0.0
C974 C 0.48336 0.65142 0.88052 0.0
C975 C 0.46382 0.64226 0.88893 0.0
C976 C 0.44931 0.64786 0.84734 0.0
C977 C 0.45407 0.6628 0.79746 0.0
C978 C 0.47344 0.67196 0.78862 0.0
C979 C 0.48805 0.66632 0.82988 0.0
H980 H 0.4428 0.66717 0.76544 0.0
H981 H 0.56444 0.61964 0.22237 0.0
H982 H 0.82903 0.5582 0.3301 0.0
H983 H 0.85965 0.5394 0.26194 0.0
H984 H 0.82098 0.49212 0.18289 0.0
H985 H 0.79059 0.50976 0.25417 0.0
H986 H 0.84982 0.46791 0.23347 0.0
H987 H 0.85002 0.53271 0.09361 0.0
H988 H 0.8496 0.57421 0.06228 0.0
H989 H 0.90673 0.58035 0.13944 0.0
H990 H 0.90733 0.53901 0.17218 0.0
H991 H 0.92902 0.41109 0.001 0.0
H992 H 0.89895 0.42961 0.07234 0.0
H993 H 0.93926 0.47297 0.15797 0.0
H994 H 0.96922 0.45529 0.08493 0.0
H995 H 0.91032 0.4992 0.10676 0.0
H996 H 0.91028 0.43389 0.24451 0.0
H997 H 0.91083 0.39205 0.273 0.0
H998 H 0.85362 0.38663 0.19604 0.0
H999 H 0.85277 0.42835 0.1664 0.0
C1000 C 0.82695 0.54428 0.29674 0.0
C1001 C 0.80754 0.53504 0.29869 0.0
C1002 C 0.84447 0.53363 0.25741 0.0
C1003 C 0.84267 0.51409 0.21798 0.0
C1004 C 0.82275 0.50699 0.21365 0.0
C1005 C 0.80529 0.51734 0.25386 0.0
C1006 C 0.86164 0.49875 0.19006 0.0
C1007 C 0.8629 0.47469 0.20465 0.0
C1008 C 0.87905 0.50779 0.15501 0.0
C1009 C 0.87858 0.53279 0.13598 0.0
C1010 C 0.86237 0.54297 0.10453 0.0
C1011 C 0.86213 0.56647 0.08638 0.0
C1012 C 0.87809 0.57993 0.09904 0.0
C1013 C 0.89435 0.56992 0.12978 0.0
C1014 C 0.89465 0.54645 0.14811 0.0
C1015 C 0.93156 0.42403 0.03641 0.0
C1016 C 0.95134 0.43216 0.03636 0.0
C1017 C 0.91438 0.4345 0.07748 0.0
C1018 C 0.91687 0.4529 0.11979 0.0
C1019 C 0.93704 0.45894 0.12517 0.0
C1020 C 0.95419 0.44861 0.08375 0.0
C1021 C 0.89835 0.4684 0.14964 0.0
C1022 C 0.89721 0.49248 0.13561 0.0
C1023 C 0.88103 0.45938 0.18497 0.0
C1024 C 0.88154 0.43425 0.20283 0.0
C1025 C 0.89789 0.42375 0.2332 0.0
C1026 C 0.89825 0.40006 0.24965 0.0
C1027 C 0.88232 0.38669 0.2362 0.0
C1028 C 0.86595 0.397 0.20641 0.0
C1029 C 0.8655 0.42069 0.18988 0.0
H1030 H 0.88265 0.36835 0.24897 0.0
H1031 H 0.87788 0.59811 0.08488 0.0
H1032 H 0.08108 0.23243 0.97758 0.0
H1033 H 0.07275 0.19861 0.91755 0.0
H1034 H 1.00688 0.21799 0.97858 0.0
H1035 H 0.01543 0.25152 0.04131 0.0
H1036 H 0.01488 0.17445 1.00009 0.0
H1037 H 0.03118 0.2174 0.8139 0.0
H1038 H 0.05123 0.24167 0.73822 0.0
H1039 H 0.1031 0.18761 0.71534 0.0
H1040 H 0.08347 0.16314 0.79158 0.0
H1041 H 0.98745 0.07986 0.80976 0.0
H1042 H 0.99252 0.11942 0.84834 0.0
H1043 H 0.05857 0.09854 0.84134 0.0
H1044 H 0.0536 0.05865 0.80368 0.0
H1045 H 0.04834 0.14382 0.78728 0.0
H1046 H 0.03095 0.10211 0.97856 0.0
H1047 H 1.00935 0.07802 0.05054 0.0
H1048 H 0.95718 0.13133 0.05888 0.0
H1049 H 0.97841 0.1556 0.98618 0.0
C1050 C 0.06477 0.23002 0.97619 0.0
C1051 C 0.04891 0.2448 0.01374 0.0
C1052 C 0.05997 0.21059 0.94166 0.0
C1053 C 0.03912 0.20557 0.94275 0.0
C1054 C 0.02311 0.22135 0.97673 0.0
C1055 C 0.02795 0.24078 0.01183 0.0
C1056 C 0.03443 0.18256 0.91481 0.0
C1057 C 0.02183 0.16812 0.95287 0.0
C1058 C 0.04386 0.1737 0.85383 0.0
C1059 C 0.0559 0.18851 0.80882 0.0
C1060 C 0.04694 0.21078 0.79319 0.0
C1061 C 0.05822 0.22456 0.75013 0.0
C1062 C 0.07844 0.21621 0.72211 0.0
C1063 C 0.08745 0.19407 0.73717 0.0
C1064 C 0.07625 0.18024 0.78031 0.0
C1065 C 1.00309 0.0836 0.81644 0.0
C1066 C 0.02011 0.06594 0.80384 0.0
C1067 C 1.00594 0.10627 0.83862 0.0
C1068 C 0.02591 0.11198 0.848 0.0
C1069 C 0.04301 0.09456 0.83448 0.0
C1070 C 0.04013 0.07172 0.81324 0.0
C1071 C 0.02886 0.13605 0.8725 0.0
C1072 C 0.04119 0.15051 0.83398 0.0
C1073 C 0.01896 0.14509 0.93262 0.0
C1074 C 1.00619 0.13053 0.97634 0.0
C1075 C 0.01481 0.10859 0.99525 0.0
C1076 C 1.00265 0.09493 0.03629 0.0
C1077 C 0.98188 0.1031 0.05911 0.0
C1078 C 0.97325 0.125 0.04107 0.0
C1079 C 0.98535 0.13872 0.99999 0.0
H1080 H 0.97249 0.0925 0.09088 0.0
H1081 H 0.08712 0.22687 0.68861 0.0
H1082 H 0.28787 0.97372 0.1044 0.0
H1083 H 0.32043 0.97179 0.03039 0.0
H1084 H 0.30432 0.04332 0.97819 0.0
H1085 H 0.2718 0.04545 0.05363 0.0
H1086 H 0.32805 0.00573 0.8728 0.0
H1087 H 0.33128 0.04327 0.07959 0.0
H1088 H 0.3249 0.04409 0.19623 0.0
H1089 H 0.36259 0.97763 0.19698 0.0
H1090 H 0.36901 0.97632 0.08018 0.0
H1091 H 0.43238 0.02813 0.74938 0.0
H1092 H 0.39577 0.03034 0.79874 0.0
H1093 H 0.41369 0.9814 0.93857 0.0
H1094 H 0.45041 0.98125 0.89269 0.0
H1095 H 0.38711 0.0088 0.99709 0.0
H1096 H 0.38578 0.96965 0.79563 0.0
H1097 H 0.39146 0.96497 0.67917 0.0
H1098 H 0.35005 0.02787 0.66582 0.0
H1099 H 0.34439 0.03316 0.78216 0.0
C1100 C 0.29074 0.98862 0.07477 0.0
C1101 C 0.27699 0.00955 0.08386 0.0
C1102 C 0.30949 0.98758 0.03292 0.0
C1103 C 0.31494 0.00742 0.99876 0.0
C1104 C 0.30041 0.02771 0.00355 0.0
C1105 C 0.28169 0.02885 0.04622 0.0
C1106 C 0.33684 0.00797 0.966 0.0
C1107 C 0.34101 0.00667 0.89967 0.0
C1108 C 0.35383 0.00849 0.001 0.0
C1109 C 0.35047 0.00961 0.0712 0.0
C1110 C 0.3381 0.02877 0.10463 0.0
C1111 C 0.3345 0.02934 0.17077 0.0
C1112 C 0.34327 0.01088 0.20401 0.0
C1113 C 0.35578 0.9919 0.17116 0.0
C1114 C 0.35944 0.99126 0.10501 0.0
C1115 C 0.4284 0.01791 0.79075 0.0
C1116 C 0.44422 0.00452 0.81723 0.0
C1117 C 0.40734 0.01892 0.81874 0.0
C1118 C 0.40142 0.00559 0.87211 0.0
C1119 C 0.41744 0.99201 0.89785 0.0
C1120 C 0.43853 0.99179 0.87141 0.0
C1121 C 0.37886 0.0062 0.90263 0.0
C1122 C 0.37442 0.00777 0.96921 0.0
C1123 C 0.36173 0.00534 0.86754 0.0
C1124 C 0.36485 0.00194 0.79763 0.0
C1125 C 0.37797 0.98255 0.76785 0.0
C1126 C 0.38118 0.97979 0.70186 0.0
C1127 C 0.37118 0.99617 0.66517 0.0
C1128 C 0.35783 0.01524 0.69435 0.0
C1129 C 0.35461 0.01813 0.7603 0.0
H1130 H 0.37377 0.99413 0.61415 0.0
H1131 H 0.34044 0.01132 0.25519 0.0
H1132 H 0.46669 0.28869 0.1735 0.0
H1133 H 0.46423 0.31866 0.09298 0.0
H1134 H 0.52934 0.30011 0.02048 0.0
H1135 H 0.53167 0.26998 0.10008 0.0
H1136 H 0.51749 0.34762 0.07641 0.0
H1137 H 0.49738 0.2934 0.92411 0.0
H1138 H 0.47528 0.2647 0.88651 0.0
H1139 H 0.42196 0.31687 0.9166 0.0
H1140 H 0.44369 0.3458 0.95531 0.0
H1141 H 0.5394 0.43086 0.84909 0.0
H1142 H 0.53484 0.39478 0.90555 0.0
H1143 H 0.46774 0.40996 0.92193 0.0
H1144 H 0.47221 0.44624 0.86329 0.0
H1145 H 0.47767 0.36449 0.89712 0.0
H1146 H 0.49532 0.41849 0.04936 0.0
H1147 H 0.51513 0.44808 0.09403 0.0
H1148 H 0.56981 0.39788 0.07532 0.0
H1149 H 0.55042 0.36805 0.02982 0.0
C1150 C 0.48006 0.29003 0.13778 0.0
C1151 C 0.49927 0.27676 0.14211 0.0
C1152 C 0.47873 0.30732 0.09224 0.0
C1153 C 0.49665 0.31171 0.05105 0.0
C1154 C 0.51531 0.29695 0.05166 0.0
C1155 C 0.51658 0.27953 0.09659 0.0
C1156 C 0.49708 0.33401 0.01613 0.0
C1157 C 0.50904 0.35119 0.03654 0.0
C1158 C 0.48519 0.33909 0.96639 0.0
C1159 C 0.47211 0.32168 0.94332 0.0
C1160 C 0.48089 0.29868 0.92339 0.0
C1161 C 0.46844 0.28238 0.9017 0.0
C1162 C 0.44721 0.28893 0.89936 0.0
C1163 C 0.4384 0.31181 0.91855 0.0
C1164 C 0.45078 0.32817 0.94031 0.0
C1165 C 0.5236 0.42676 0.86491 0.0
C1166 C 0.50615 0.44175 0.85228 0.0
C1167 C 0.52103 0.40603 0.89757 0.0
C1168 C 0.50095 0.39977 0.91941 0.0
C1169 C 0.48342 0.41441 0.90589 0.0
C1170 C 0.48599 0.43521 0.87259 0.0
C1171 C 0.49857 0.37797 0.95635 0.0
C1172 C 0.48613 0.36099 0.93694 0.0
C1173 C 0.50968 0.37319 0.00823 0.0
C1174 C 0.52145 0.3911 0.03555 0.0
C1175 C 0.51162 0.41381 0.05429 0.0
C1176 C 0.52277 0.43062 0.07986 0.0
C1177 C 0.54373 0.42489 0.08732 0.0
C1178 C 0.55358 0.40231 0.06936 0.0
C1179 C 0.54251 0.38543 0.04378 0.0
H1180 H 0.55233 0.43792 0.10717 0.0
H1181 H 0.4376 0.27629 0.88252 0.0
H1182 H 0.24831 0.46996 0.88644 0.0
H1183 H 0.21956 0.47818 0.82351 0.0
H1184 H 0.18716 0.52638 0.97121 0.0
H1185 H 0.21608 0.51865 0.03328 0.0
H1186 H 0.17339 0.47218 0.91512 0.0
H1187 H 0.18629 0.55634 0.88539 0.0
H1188 H 0.20936 0.58636 0.84579 0.0
H1189 H 0.218 0.55339 0.65988 0.0
H1190 H 0.1952 0.52295 0.69879 0.0
H1191 H 0.07089 0.49961 0.85682 0.0
H1192 H 0.10531 0.50092 0.88884 0.0
H1193 H 0.13257 0.50329 0.69337 0.0
H1194 H 0.09753 0.50299 0.66087 0.0
H1195 H 0.15193 0.53066 0.76109 0.0
H1196 H 0.13541 0.45146 0.78067 0.0
H1197 H 0.11472 0.41856 0.81311 0.0
H1198 H 0.11614 0.43688 0.0085 0.0
H1199 H 0.13652 0.4702 0.97732 0.0
C1200 C 0.23571 0.48349 0.90348 0.0
C1201 C 0.23475 0.4942 0.96398 0.0
C1202 C 0.21915 0.48796 0.86785 0.0
C1203 C 0.20127 0.50309 0.8923 0.0
C1204 C 0.20097 0.51508 0.95068 0.0
C1205 C 0.21762 0.51084 0.98591 0.0
C1206 C 0.18157 0.50274 0.86364 0.0
C1207 C 0.16854 0.48511 0.88196 0.0
C1208 C 0.17572 0.51896 0.8184 0.0
C1209 C 0.18934 0.53721 0.79519 0.0
C1210 C 0.19334 0.55532 0.83631 0.0
C1211 C 0.20629 0.57246 0.81393 0.0
C1212 C 0.21522 0.57173 0.75041 0.0
C1213 C 0.21113 0.5539 0.7091 0.0
C1214 C 0.19819 0.53672 0.73128 0.0
C1215 C 0.08415 0.50035 0.82032 0.0
C1216 C 0.08141 0.50081 0.75605 0.0
C1217 C 0.10396 0.50103 0.83883 0.0
C1218 C 0.12183 0.50153 0.79366 0.0
C1219 C 0.11913 0.5027 0.72932 0.0
C1220 C 0.0991 0.50244 0.71069 0.0
C1221 C 0.1431 0.50055 0.81448 0.0
C1222 C 0.15661 0.51769 0.7943 0.0
C1223 C 0.1496 0.48356 0.85756 0.0
C1224 C 0.13731 0.46352 0.8766 0.0
C1225 C 0.13115 0.44863 0.83058 0.0
C1226 C 0.11949 0.42988 0.84875 0.0
C1227 C 0.11405 0.4257 0.91284 0.0
C1228 C 0.12031 0.4402 0.9589 0.0
C1229 C 0.13192 0.45902 0.94099 0.0
H1230 H 0.10504 0.41116 0.92681 0.0
H1231 H 0.22523 0.58501 0.73317 0.0
H1232 H 0.94656 0.75714 0.49078 0.0
H1233 H 0.95184 0.79123 0.5566 0.0
H1234 H 0.01811 0.78102 0.49054 0.0
H1235 H 0.0128 0.74666 0.42506 0.0
H1236 H 1.01 0.79996 0.61412 0.0
H1237 H 0.98876 0.81732 0.41135 0.0
H1238 H 0.96668 0.81617 0.32611 0.0
H1239 H 0.91327 0.84647 0.45376 0.0
H1240 H 0.93507 0.84795 0.53976 0.0
H1241 H 1.00247 0.93791 0.5739 0.0
H1242 H 0.99917 0.89784 0.53581 0.0
H1243 H 0.99056 0.87499 0.72831 0.0
H1244 H 0.99499 0.91485 0.76631 0.0
H1245 H 0.97037 0.87144 0.54379 0.0
H1246 H 1.00456 0.81693 0.73687 0.0
H1247 H 0.03083 0.81882 0.80999 0.0
H1248 H 0.0643 0.86473 0.68565 0.0
H1249 H 0.03865 0.86245 0.6108 0.0
C1250 C 0.96238 0.76143 0.49292 0.0
C1251 C 0.97931 0.74903 0.45355 0.0
C1252 C 0.96537 0.78113 0.52986 0.0
C1253 C 0.98532 0.78904 0.52763 0.0
C1254 C 1.00257 0.77531 0.49311 0.0
C1255 C 0.99957 0.75551 0.45616 0.0
C1256 C 0.98767 0.81305 0.55401 0.0
C1257 C 1.00127 0.8156 0.59907 0.0
C1258 C 0.9767 0.8336 0.5334 0.0
C1259 C 0.96348 0.83251 0.48211 0.0
C1260 C 0.97227 0.82357 0.42134 0.0
C1261 C 0.95983 0.8229 0.37287 0.0
C1262 C 0.93857 0.83107 0.3846 0.0
C1263 C 0.92973 0.84008 0.44478 0.0
C1264 C 0.94213 0.84092 0.49335 0.0
C1265 C 0.99991 0.92435 0.60816 0.0
C1266 C 0.99904 0.92962 0.67316 0.0
C1267 C 0.99798 0.90137 0.58632 0.0
C1268 C 0.99485 0.88306 0.62886 0.0
C1269 C 0.99351 0.88846 0.69407 0.0
C1270 C 0.99587 0.91137 0.71588 0.0
C1271 C 0.99268 0.8586 0.60452 0.0
C1272 C 0.97905 0.85591 0.55958 0.0
C1273 C 1.00409 0.83807 0.62405 0.0
C1274 C 0.01967 0.83952 0.66842 0.0
C1275 C 0.01765 0.82722 0.72494 0.0
C1276 C 0.03239 0.82838 0.76666 0.0
C1277 C 0.04917 0.84191 0.75255 0.0
C1278 C 0.05128 0.85426 0.69654 0.0
C1279 C 0.03668 0.85299 0.65436 0.0
H1280 H 0.06057 0.84275 0.78493 0.0
H1281 H 0.92897 0.83052 0.34699 0.0
H1282 H 0.73659 0.02003 0.39979 0.0
H1283 H 0.70449 0.02032 0.47587 0.0
H1284 H 0.6997 0.94767 0.42268 0.0
H1285 H 0.73161 0.94756 0.34648 0.0
H1286 H 0.66432 0.97356 0.41276 0.0
H1287 H 0.70926 0.96538 0.57353 0.0
H1288 H 0.73696 0.97548 0.63486 0.0
H1289 H 0.70318 0.04346 0.68676 0.0
H1290 H 0.67541 0.03391 0.62494 0.0
H1291 H 0.57362 0.95575 0.62523 0.0
H1292 H 0.60962 0.95332 0.57137 0.0
H1293 H 0.61357 0.02576 0.62839 0.0
H1294 H 0.57768 0.0282 0.68339 0.0
H1295 H 0.64958 0.00035 0.63841 0.0
H1296 H 0.60539 0.00958 0.47665 0.0
H1297 H 0.57728 0.00013 0.41608 0.0
H1298 H 0.60972 0.93148 0.36461 0.0
H1299 H 0.63783 0.9403 0.42593 0.0
C1300 C 0.72924 0.00381 0.40668 0.0
C1301 C 0.73698 0.98357 0.36833 0.0
C1302 C 0.71071 0.00402 0.44981 0.0
C1303 C 0.69945 0.98401 0.45537 0.0
C1304 C 0.70793 0.96338 0.41958 0.0
C1305 C 0.7264 0.96318 0.37664 0.0
C1306 C 0.67796 0.98515 0.49313 0.0
C1307 C 0.66125 0.97903 0.46244 0.0
C1308 C 0.67354 0.99312 0.55747 0.0
C1309 C 0.69036 0.99902 0.59397 0.0
C1310 C 0.70784 0.98258 0.59744 0.0
C1311 C 0.72353 0.98819 0.63243 0.0
C1312 C 0.72186 0.01012 0.66453 0.0
C1313 C 0.70448 0.02649 0.66177 0.0
C1314 C 0.68875 0.02098 0.62679 0.0
C1315 C 0.58213 0.97118 0.62667 0.0
C1316 C 0.57253 0.99223 0.65857 0.0
C1317 C 0.60278 0.9698 0.59544 0.0
C1318 C 0.61441 0.98947 0.59464 0.0
C1319 C 0.60506 0.01031 0.6279 0.0
C1320 C 0.58441 0.0117 0.65927 0.0
C1321 C 0.63608 0.98845 0.55815 0.0
C1322 C 0.65274 0.99475 0.58884 0.0
C1323 C 0.64048 0.98082 0.49357 0.0
C1324 C 0.62362 0.97552 0.45645 0.0
C1325 C 0.60645 0.9924 0.45285 0.0
C1326 C 0.59053 0.98717 0.41831 0.0
C1327 C 0.59171 0.96522 0.38659 0.0
C1328 C 0.60882 0.94846 0.38927 0.0
C1329 C 0.62475 0.95356 0.42392 0.0
H1330 H 0.57938 0.96122 0.35983 0.0
H1331 H 0.73401 0.01441 0.69167 0.0
H1332 H 0.5699 0.72811 0.36148 0.0
H1333 H 0.56875 0.69721 0.44042 0.0
H1334 H 0.50692 0.68469 0.40235 0.0
H1335 H 0.50773 0.71615 0.32681 0.0
H1336 H 0.50843 0.67562 0.51659 0.0
H1337 H 0.55462 0.65412 0.32296 0.0
H1338 H 0.58469 0.65789 0.24079 0.0
H1339 H 0.62671 0.64802 0.37927 0.0
H1340 H 0.59682 0.64462 0.46249 0.0
H1341 H 0.50478 0.55358 0.56567 0.0
H1342 H 0.50897 0.59022 0.50947 0.0
H1343 H 0.56259 0.60117 0.60168 0.0
H1344 H 0.5586 0.56459 0.65813 0.0
H1345 H 0.56728 0.61218 0.47028 0.0
H1346 H 0.51727 0.62794 0.6611 0.0
H1347 H 0.48542 0.61969 0.73084 0.0
H1348 H 0.44821 0.63727 0.58375 0.0
H1349 H 0.47989 0.64495 0.5123 0.0
C1350 C 0.55576 0.71946 0.37243 0.0
C1351 C 0.53887 0.72451 0.3385 0.0
C1352 C 0.5552 0.70151 0.41665 0.0
C1353 C 0.53798 0.68801 0.42612 0.0
C1354 C 0.52044 0.69462 0.39604 0.0
C1355 C 0.52086 0.71271 0.35295 0.0
C1356 C 0.53869 0.66573 0.46196 0.0
C1357 C 0.52133 0.66181 0.50628 0.0
C1358 C 0.55549 0.64751 0.44898 0.0
C1359 C 0.57348 0.6494 0.39901 0.0
C1360 C 0.57027 0.65291 0.33591 0.0
C1361 C 0.58727 0.65498 0.28917 0.0
C1362 C 0.60759 0.65325 0.30483 0.0
C1363 C 0.61095 0.64944 0.36726 0.0
C1364 C 0.59399 0.64745 0.41424 0.0
C1365 C 0.51768 0.56354 0.57338 0.0
C1366 C 0.53125 0.55616 0.61691 0.0
C1367 C 0.52 0.58454 0.54132 0.0
C1368 C 0.53593 0.59857 0.55205 0.0
C1369 C 0.55015 0.59066 0.59287 0.0
C1370 C 0.54778 0.56975 0.62525 0.0
C1371 C 0.53695 0.62216 0.52378 0.0
C1372 C 0.55459 0.62623 0.48112 0.0
C1373 C 0.52017 0.64026 0.53693 0.0
C1374 C 0.50101 0.63683 0.58111 0.0
C1375 C 0.50232 0.62992 0.64345 0.0
C1376 C 0.48432 0.62525 0.68321 0.0
C1377 C 0.46485 0.62784 0.66165 0.0
C1378 C 0.46331 0.63522 0.60034 0.0
C1379 C 0.48129 0.6397 0.56014 0.0
H1380 H 0.45093 0.62421 0.69258 0.0
H1381 H 0.62075 0.65479 0.26855 0.0
H1382 H 0.79999 0.49264 0.50688 0.0
H1383 H 0.82973 0.48618 0.56617 0.0
H1384 H 0.82386 0.56057 0.6166 0.0
H1385 H 0.79433 0.56709 0.55598 0.0
H1386 H 0.86587 0.50878 0.52542 0.0
H1387 H 0.8468 0.56429 0.75981 0.0
H1388 H 0.81666 0.57614 0.84178 0.0
H1389 H 0.78829 0.51392 0.79691 0.0
H1390 H 0.81837 0.50151 0.71537 0.0
H1391 H 0.95723 0.5424 0.64283 0.0
H1392 H 0.92126 0.54522 0.61818 0.0
H1393 H 0.90891 0.48541 0.73282 0.0
H1394 H 0.94511 0.48205 0.75653 0.0
H1395 H 0.87536 0.52695 0.74741 0.0
H1396 H 0.91753 0.47282 0.5915 0.0
H1397 H 0.94774 0.46094 0.50987 0.0
H1398 H 0.92928 0.51906 0.39763 0.0
H1399 H 0.89916 0.53155 0.4792 0.0
C1400 C 0.80425 0.50738 0.53368 0.0
C1401 C 0.79445 0.53029 0.52802 0.0
C1402 C 0.82153 0.50375 0.56663 0.0
C1403 C 0.82921 0.5229 0.59554 0.0
C1404 C 0.81819 0.54547 0.59512 0.0
C1405 C 0.80107 0.54915 0.56129 0.0
C1406 C 0.85011 0.5198 0.6184 0.0
C1407 C 0.86786 0.51268 0.57407 0.0
C1408 C 0.85287 0.52493 0.68177 0.0
C1409 C 0.83476 0.53212 0.731 0.0
C1410 C 0.83416 0.5531 0.76757 0.0
C1411 C 0.81708 0.55992 0.81396 0.0
C1412 C 0.80054 0.54583 0.82439 0.0
C1413 C 0.80107 0.52486 0.78859 0.0
C1414 C 0.81811 0.51796 0.74218 0.0
C1415 C 0.94683 0.52999 0.6635 0.0
C1416 C 0.95414 0.51197 0.70168 0.0
C1417 C 0.92625 0.53161 0.64921 0.0
C1418 C 0.91234 0.51554 0.67361 0.0
C1419 C 0.91932 0.49806 0.71363 0.0
C1420 C 0.94005 0.49612 0.72693 0.0
C1421 C 0.89099 0.51619 0.65423 0.0
C1422 C 0.87326 0.52298 0.6989 0.0
C1423 C 0.88818 0.51084 0.59106 0.0
C1424 C 0.90622 0.50327 0.54181 0.0
C1425 C 0.92003 0.48321 0.54972 0.0
C1426 C 0.93712 0.47634 0.50341 0.0
C1427 C 0.94046 0.48927 0.44868 0.0
C1428 C 0.92669 0.50908 0.4401 0.0
C1429 C 0.90961 0.51606 0.48635 0.0
H1430 H 0.95369 0.48392 0.41286 0.0
H1431 H 0.78733 0.55114 0.86032 0.0
loop_
_geom_bond_atom_site_label_1
_geom_bond_atom_site_label_2
_geom_bond_distance
_geom_bond_site_symmetry_2
_ccdc_geom_bond_type
H0 C3 0.931 . S
H1 C6 0.928 . S
H2 C8 0.930 . S
C3 H0 0.931 . S
C3 C4 1.413 . S
C3 C5 1.360 . S
C4 C3 1.413 . S
C4 C8 1.429 . S
C5 C3 1.360 . S
C5 C6 1.372 . S
C6 H1 0.928 . S
C6 C5 1.372 . S
C6 C7 1.404 . S
C7 C6 1.404 . S
C7 C8 1.391 . S
C8 H2 0.930 . S
C8 C4 1.429 . S
C8 C7 1.391 . S
H9 C12 0.931 . S
H10 C15 0.928 . S
H11 C17 0.930 . S
C12 H9 0.931 . S
C12 C13 1.413 . S
C12 C14 1.360 . S
C13 C12 1.413 . S
C13 C17 1.429 . S
C14 C12 1.360 . S
C14 C15 1.372 . S
C15 H10 0.928 . S
C15 C14 1.372 . S
C15 C16 1.404 . S
C16 C15 1.404 . S
C16 C17 1.391 . S
C17 H11 0.930 . S
C17 C13 1.429 . S
C17 C16 1.391 . S
H18 C21 0.930 . S
H19 C24 0.928 . S
H20 C26 0.929 . S
C21 H18 0.930 . S
C21 C22 1.413 . S
C21 C23 1.360 . S
C22 C21 1.413 . S
C22 C26 1.428 1_565 S
C23 C21 1.360 . S
C23 C24 1.370 . S
C24 H19 0.928 . S
C24 C23 1.370 . S
C24 C25 1.405 . S
C25 C24 1.405 . S
C25 C26 1.391 1_565 S
C26 H20 0.929 . S
C26 C22 1.428 1_545 S
C26 C25 1.391 1_545 S
H27 C30 0.931 . S
H28 C33 0.928 . S
H29 C35 0.930 . S
C30 H27 0.931 . S
C30 C31 1.413 . S
C30 C32 1.360 . S
C31 C30 1.413 . S
C31 C35 1.429 . S
C32 C30 1.360 . S
C32 C33 1.372 . S
C33 H28 0.928 . S
C33 C32 1.372 . S
C33 C34 1.404 . S
C34 C33 1.404 . S
C34 C35 1.391 . S
C35 H29 0.930 . S
C35 C31 1.429 . S
C35 C34 1.391 . S
H36 C39 0.931 . S
H37 C42 0.928 . S
H38 C44 0.930 . S
C39 H36 0.931 . S
C39 C40 1.413 . S
C39 C41 1.360 1_556 S
C40 C39 1.413 . S
C40 C44 1.429 . S
C41 C39 1.360 1_554 S
C41 C42 1.372 . S
C42 H37 0.928 . S
C42 C41 1.372 . S
C42 C43 1.404 . S
C43 C42 1.404 . S
C43 C44 1.391 1_554 S
C44 H38 0.930 . S
C44 C40 1.429 . S
C44 C43 1.391 1_556 S
H45 C48 0.931 . S
H46 C51 0.928 . S
H47 C53 0.930 . S
C48 H45 0.931 . S
C48 C49 1.413 . S
C48 C50 1.360 . S
C49 C48 1.413 . S
C49 C53 1.429 . S
C50 C48 1.360 . S
C50 C51 1.372 . S
C51 H46 0.928 . S
C51 C50 1.372 . S
C51 C52 1.404 . S
C52 C51 1.404 . S
C52 C53 1.391 . S
C53 H47 0.930 . S
C53 C49 1.429 . S
C53 C52 1.391 . S
H54 C57 0.931 . S
H55 C60 0.928 . S
H56 C62 0.931 . S
C57 H54 0.931 . S
C57 C58 1.414 . S
C57 C59 1.360 . S
C58 C57 1.414 . S
C58 C62 1.430 1_565 S
C59 C57 1.360 . S
C59 C60 1.373 . S
C60 H55 0.928 . S
C60 C59 1.373 . S
C60 C61 1.404 . S
C61 C60 1.404 . S
C61 C62 1.390 1_565 S
C62 H56 0.931 . S
C62 C58 1.430 1_545 S
C62 C61 1.390 1_545 S
H63 C66 0.931 . S
H64 C69 0.928 . S
H65 C71 0.930 . S
C66 H63 0.931 . S
C66 C67 1.413 . S
C66 C68 1.360 . S
C67 C66 1.413 . S
C67 C71 1.429 . S
C68 C66 1.360 . S
C68 C69 1.372 . S
C69 H64 0.928 . S
C69 C68 1.372 . S
C69 C70 1.404 . S
C70 C69 1.404 . S
C70 C71 1.391 . S
C71 H65 0.930 . S
C71 C67 1.429 . S
C71 C70 1.391 . S
Dy72 O75 2.307 1_545 S
Dy72 O77 2.395 1_655 S
Dy72 O78 2.379 . S
Dy72 O80 2.339 . S
Dy72 O82 2.298 . S
Dy72 O86 2.275 1_655 S
Dy72 C94 2.738 . S
Dy73 O76 2.298 . S
Dy73 O79 2.275 1_455 S
Dy73 O81 2.307 1_565 S
Dy73 O83 2.407 . S
Dy73 O84 2.379 . S
Dy73 O87 2.339 . S
Dy73 C103 2.738 . S
C74 O86 1.254 1_565 S
C74 O87 1.257 . S
O75 Dy72 2.307 1_565 S
O75 C85 1.266 . S
O76 Dy73 2.298 . S
O76 C85 1.236 1_455 S
O77 Dy72 2.395 1_455 S
O77 C94 1.255 1_455 S
O78 Dy72 2.379 . S
O78 C94 1.249 . S
O79 Dy73 2.275 1_655 S
O79 C95 1.254 1_565 S
O80 Dy72 2.339 . S
O80 C95 1.257 . S
O81 Dy73 2.307 1_545 S
O81 C96 1.266 . S
O82 Dy72 2.298 . S
O82 C96 1.236 1_655 S
O83 Dy73 2.407 . S
O83 C103 1.280 . S
O84 Dy73 2.379 . S
O84 C103 1.249 . S
C85 O75 1.266 . S
C85 O76 1.236 1_655 S
O86 Dy72 2.275 1_455 S
O86 C74 1.254 1_545 S
O87 Dy73 2.339 . S
O87 C74 1.257 . S
C88 C91 1.344 1_655 S
C88 C92 1.328 . S
C88 C94 1.516 . S
C89 C90 1.304 1_655 S
C89 C93 1.323 . S
C90 C89 1.304 1_455 S
C90 C91 1.371 . S
C90 H104 0.930 . S
C91 C88 1.344 1_455 S
C91 C90 1.371 . S
C91 H105 0.931 . S
C92 C88 1.328 . S
C92 C93 1.433 . S
C92 H106 0.931 . S
C93 C89 1.323 . S
C93 C92 1.433 . S
C93 H107 0.933 . S
C94 Dy72 2.738 . S
C94 O77 1.255 1_655 S
C94 O78 1.249 . S
C94 C88 1.516 . S
C95 O79 1.254 1_545 S
C95 O80 1.257 . S
C96 O81 1.266 . S
C96 O82 1.236 1_455 S
C97 C100 1.344 . S
C97 C101 1.328 . S
C97 C103 1.516 . S
C98 C99 1.304 . S
C98 C102 1.323 . S
C99 C98 1.304 . S
C99 C100 1.371 . S
C99 H108 0.930 1_455 S
C100 C97 1.344 . S
C100 C99 1.371 . S
C100 H109 0.931 1_455 S
C101 C97 1.328 . S
C101 C102 1.433 . S
C101 H110 0.931 . S
C102 C98 1.323 . S
C102 C101 1.433 . S
C102 H111 0.933 . S
C103 Dy73 2.738 . S
C103 O83 1.280 . S
C103 O84 1.249 . S
C103 C97 1.516 . S
H104 C90 0.930 . S
H105 C91 0.931 . S
H106 C92 0.931 . S
H107 C93 0.933 . S
H108 C99 0.930 1_655 S
H109 C100 0.931 1_655 S
H110 C101 0.931 . S
H111 C102 0.933 . S
Dy112 O115 2.307 . S
Dy112 O117 2.395 1_565 S
Dy112 O118 2.379 . S
Dy112 O120 2.339 . S
Dy112 O122 2.298 . S
Dy112 O126 2.275 1_565 S
Dy112 C134 2.738 . S
Dy113 O116 2.298 . S
Dy113 O119 2.275 1_545 S
Dy113 O121 2.307 . S
Dy113 O123 2.395 1_545 S
Dy113 O124 2.379 . S
Dy113 O127 2.339 . S
Dy113 C143 2.738 . S
C114 O126 1.254 . S
C114 O127 1.257 . S
O115 Dy112 2.307 . S
O115 C125 1.266 . S
O116 Dy113 2.298 . S
O116 C125 1.236 1_545 S
O117 Dy112 2.395 1_545 S
O117 C134 1.255 1_545 S
O118 Dy112 2.379 . S
O118 C134 1.249 . S
O119 Dy113 2.275 1_565 S
O119 C135 1.254 . S
O120 Dy112 2.339 . S
O120 C135 1.257 . S
O121 Dy113 2.307 . S
O121 C136 1.266 . S
O122 Dy112 2.298 . S
O122 C136 1.236 1_565 S
O123 Dy113 2.395 1_565 S
O123 C143 1.255 1_565 S
O124 Dy113 2.379 . S
O124 C143 1.249 . S
C125 O115 1.266 . S
C125 O116 1.236 1_565 S
O126 Dy112 2.275 1_545 S
O126 C114 1.254 . S
O127 Dy113 2.339 . S
O127 C114 1.257 . S
C128 C131 1.329 1_565 S
C128 C132 1.328 . S
C128 C134 1.516 . S
C129 C130 1.304 . S
C129 C133 1.323 . S
C130 C129 1.304 . S
C130 C131 1.368 1_565 S
C130 H144 0.930 1_565 S
C131 C128 1.329 1_545 S
C131 C130 1.368 1_545 S
C131 H145 0.949 . S
C132 C128 1.328 . S
C132 C133 1.433 . S
C132 H146 0.931 . S
C133 C129 1.323 . S
C133 C132 1.433 . S
C133 H147 0.933 . S
C134 Dy112 2.738 . S
C134 O117 1.255 1_565 S
C134 O118 1.249 . S
C134 C128 1.516 . S
C135 O119 1.254 . S
C135 O120 1.257 . S
C136 O121 1.266 . S
C136 O122 1.236 1_545 S
C137 C140 1.338 1_545 S
C137 C141 1.328 . S
C137 C143 1.516 . S
C138 C139 1.304 . S
C138 C142 1.323 . S
C139 C138 1.304 . S
C139 C140 1.370 1_545 S
C139 H148 0.930 1_545 S
C140 C137 1.338 1_565 S
C140 C139 1.370 1_565 S
C140 H149 0.939 . S
C141 C137 1.328 . S
C141 C142 1.433 . S
C141 H150 0.931 . S
C142 C138 1.323 . S
C142 C141 1.433 . S
C142 H151 0.933 . S
C143 Dy113 2.738 . S
C143 O123 1.255 1_545 S
C143 O124 1.249 . S
C143 C137 1.516 . S
H144 C130 0.930 1_545 S
H145 C131 0.949 . S
H146 C132 0.931 . S
H147 C133 0.933 . S
H148 C139 0.930 1_565 S
H149 C140 0.939 . S
H150 C141 0.931 . S
H151 C142 0.933 . S
Dy152 O155 2.307 . S
Dy152 O157 2.395 . S
Dy152 O158 2.379 . S
Dy152 O160 2.339 . S
Dy152 O162 2.298 . S
Dy152 O166 2.275 . S
Dy152 C174 2.738 . S
Dy153 O156 2.298 . S
Dy153 O159 2.275 . S
Dy153 O161 2.307 . S
Dy153 O163 2.395 . S
Dy153 O164 2.379 . S
Dy153 O167 2.339 . S
Dy153 C183 2.738 . S
C154 O166 1.254 . S
C154 O167 1.257 . S
O155 Dy152 2.307 . S
O155 C165 1.266 . S
O156 Dy153 2.298 . S
O156 C165 1.236 . S
O157 Dy152 2.395 . S
O157 C174 1.255 . S
O158 Dy152 2.379 . S
O158 C174 1.249 . S
O159 Dy153 2.275 . S
O159 C175 1.254 . S
O160 Dy152 2.339 . S
O160 C175 1.257 . S
O161 Dy153 2.307 . S
O161 C176 1.266 . S
O162 Dy152 2.298 . S
O162 C176 1.236 . S
O163 Dy153 2.395 . S
O163 C183 1.255 . S
O164 Dy153 2.379 . S
O164 C183 1.249 . S
C165 O155 1.266 . S
C165 O156 1.236 . S
O166 Dy152 2.275 . S
O166 C154 1.254 . S
O167 Dy153 2.339 . S
O167 C154 1.257 . S
C168 C171 1.344 . S
C168 C172 1.328 . S
C168 C174 1.516 . S
C169 C170 1.304 . S
C169 C173 1.323 . S
C170 C169 1.304 . S
C170 C171 1.371 . S
C170 H184 0.930 . S
C171 C168 1.344 . S
C171 C170 1.371 . S
C171 H185 0.931 . S
C172 C168 1.328 . S
C172 C173 1.433 . S
C172 H186 0.931 . S
C173 C169 1.323 . S
C173 C172 1.433 . S
C173 H187 0.933 . S
C174 Dy152 2.738 . S
C174 O157 1.255 . S
C174 O158 1.249 . S
C174 C168 1.516 . S
C175 O159 1.254 . S
C175 O160 1.257 . S
C176 O161 1.266 . S
C176 O162 1.236 . S
C177 C180 1.344 . S
C177 C181 1.328 . S
C177 C183 1.516 . S
C178 C179 1.304 . S
C178 C182 1.323 . S
C179 C178 1.304 . S
C179 C180 1.371 . S
C179 H188 0.930 . S
C180 C177 1.344 . S
C180 C179 1.371 . S
C180 H189 0.931 . S
C181 C177 1.328 . S
C181 C182 1.433 . S
C181 H190 0.931 . S
C182 C178 1.323 . S
C182 C181 1.433 . S
C182 H191 0.933 . S
C183 Dy153 2.738 . S
C183 O163 1.255 . S
C183 O164 1.249 . S
C183 C177 1.516 . S
H184 C170 0.930 . S
H185 C171 0.931 . S
H186 C172 0.931 . S
H187 C173 0.933 . S
H188 C179 0.930 . S
H189 C180 0.931 . S
H190 C181 0.931 . S
H191 C182 0.933 . S
Dy192 O195 2.307 1_455 S
Dy192 O197 2.395 . S
Dy192 O198 2.379 . S
Dy192 O200 2.339 . S
Dy192 O202 2.298 . S
Dy192 O206 2.275 . S
Dy192 C214 2.738 . S
Dy193 O196 2.298 . S
Dy193 O199 2.292 . S
Dy193 O201 2.307 1_655 S
Dy193 O203 2.395 . S
Dy193 O204 2.379 . S
Dy193 O207 2.339 . S
Dy193 C223 2.738 . S
C194 O206 1.254 . S
C194 O207 1.257 1_455 S
O195 Dy192 2.307 1_655 S
O195 C205 1.266 . S
O196 Dy193 2.298 . S
O196 C205 1.236 . S
O197 Dy192 2.395 . S
O197 C214 1.255 . S
O198 Dy192 2.379 . S
O198 C214 1.249 . S
O199 Dy193 2.292 . S
O199 C215 1.240 1_655 S
O200 Dy192 2.339 . S
O200 C215 1.257 . S
O201 Dy193 2.307 1_455 S
O201 C216 1.266 . S
O202 Dy192 2.298 . S
O202 C216 1.236 . S
O203 Dy193 2.395 . S
O203 C223 1.255 . S
O204 Dy193 2.379 . S
O204 C223 1.249 . S
C205 O195 1.266 . S
C205 O196 1.236 . S
O206 Dy192 2.275 . S
O206 C194 1.254 . S
O207 Dy193 2.339 . S
O207 C194 1.257 1_655 S
C208 C211 1.344 . S
C208 C212 1.328 . S
C208 C214 1.516 . S
C209 C210 1.304 . S
C209 C213 1.323 . S
C210 C209 1.304 . S
C210 C211 1.371 . S
C210 H224 0.930 . S
C211 C208 1.344 . S
C211 C210 1.371 . S
C211 H225 0.931 . S
C212 C208 1.328 . S
C212 C213 1.433 . S
C212 H226 0.931 . S
C213 C209 1.323 . S
C213 C212 1.433 . S
C213 H227 0.933 . S
C214 Dy192 2.738 . S
C214 O197 1.255 . S
C214 O198 1.249 . S
C214 C208 1.516 . S
C215 O199 1.240 1_455 S
C215 O200 1.257 . S
C216 O201 1.266 . S
C216 O202 1.236 . S
C217 C220 1.344 . S
C217 C221 1.328 . S
C217 C223 1.516 . S
C218 C219 1.304 . S
C218 C222 1.323 . S
C219 C218 1.304 . S
C219 C220 1.371 . S
C219 H228 0.930 1_556 S
C220 C217 1.344 . S
C220 C219 1.371 . S
C220 H229 0.931 . S
C221 C217 1.328 . S
C221 C222 1.433 . S
C221 H230 0.931 . S
C222 C218 1.323 . S
C222 C221 1.433 . S
C222 H231 0.933 . S
C223 Dy193 2.738 . S
C223 O203 1.255 . S
C223 O204 1.249 . S
C223 C217 1.516 . S
H224 C210 0.930 . S
H225 C211 0.931 . S
H226 C212 0.931 . S
H227 C213 0.933 . S
H228 C219 0.930 1_554 S
H229 C220 0.931 . S
H230 C221 0.931 . S
H231 C222 0.933 . S
H232 C250 0.951 . S
H233 C252 0.951 . S
H234 C254 0.950 . S
H235 C255 0.950 . S
H236 C257 0.950 . S
H237 C260 0.950 . S
H238 C261 0.950 . S
H239 C263 0.950 . S
H240 C264 0.950 . S
H241 C265 0.951 . S
H242 C267 0.951 . S
H243 C269 0.950 . S
H244 C270 0.950 . S
H245 C272 0.950 . S
H246 C275 0.950 . S
H247 C276 0.950 . S
H248 C278 0.950 . S
H249 C279 0.950 . S
C250 H232 0.951 . S
C250 C251 1.366 . S
C250 C252 1.388 . S
C251 C250 1.366 . S
C251 C255 1.385 1_545 S
C252 H233 0.951 . S
C252 C250 1.388 . S
C252 C253 1.366 . S
C253 C252 1.366 . S
C253 C254 1.414 1_545 S
C253 C256 1.503 . S
C254 H234 0.950 . S
C254 C253 1.414 1_565 S
C254 C255 1.374 . S
C255 H235 0.950 . S
C255 C251 1.385 1_565 S
C255 C254 1.374 . S
C256 C253 1.503 . S
C256 C257 1.338 1_545 S
C256 C258 1.420 . S
C257 H236 0.950 . S
C257 C256 1.338 1_565 S
C257 C273 1.377 . S
C258 C256 1.420 . S
C258 C259 1.524 . S
C258 C272 1.377 . S
C259 C258 1.524 . S
C259 C260 1.397 . S
C259 C264 1.363 . S
C260 H237 0.950 . S
C260 C259 1.397 . S
C260 C261 1.334 . S
C261 H238 0.950 . S
C261 C260 1.334 . S
C261 C262 1.287 . S
C262 C261 1.287 . S
C262 C263 1.524 . S
C262 H281 0.913 . S
C263 H239 0.950 . S
C263 C262 1.524 . S
C263 C264 1.415 . S
C264 H240 0.950 . S
C264 C259 1.363 . S
C264 C263 1.415 . S
C265 H241 0.951 . S
C265 C266 1.353 1_565 S
C265 C267 1.388 . S
C266 C265 1.353 1_545 S
C266 C270 1.399 . S
C267 H242 0.951 . S
C267 C265 1.388 . S
C267 C268 1.378 . S
C268 C267 1.378 . S
C268 C269 1.403 1_565 S
C268 C271 1.497 . S
C269 H243 0.950 . S
C269 C268 1.403 1_545 S
C269 C270 1.374 . S
C270 H244 0.950 . S
C270 C266 1.399 . S
C270 C269 1.374 . S
C271 C268 1.497 . S
C271 C272 1.371 1_565 S
C271 C273 1.391 . S
C272 H245 0.950 . S
C272 C258 1.377 . S
C272 C271 1.371 1_545 S
C273 C257 1.377 . S
C273 C271 1.391 . S
C273 C274 1.524 . S
C274 C273 1.524 . S
C274 C275 1.397 . S
C274 C279 1.363 . S
C275 H246 0.950 . S
C275 C274 1.397 . S
C275 C276 1.334 . S
C276 H247 0.950 . S
C276 C275 1.334 . S
C276 C277 1.287 . S
C277 C276 1.287 . S
C277 C278 1.524 . S
C277 H280 0.999 . S
C278 H248 0.950 . S
C278 C277 1.524 . S
C278 C279 1.415 . S
C279 H249 0.950 . S
C279 C274 1.363 . S
C279 C278 1.415 . S
H280 C277 0.999 . S
H281 C262 0.913 . S
H282 C300 0.951 . S
H283 C302 0.951 . S
H284 C304 0.950 . S
H285 C305 0.950 . S
H286 C307 0.950 . S
H287 C310 0.950 . S
H288 C311 0.950 . S
H289 C313 0.950 . S
H290 C314 0.950 . S
H291 C315 0.951 . S
H292 C317 0.951 . S
H293 C319 0.950 . S
H294 C320 0.950 . S
H295 C322 0.950 . S
H296 C325 0.950 . S
H297 C326 0.950 . S
H298 C328 0.950 . S
H299 C329 0.950 . S
C300 H282 0.951 . S
C300 C301 1.366 . S
C300 C302 1.388 . S
C301 C300 1.366 . S
C301 C305 1.385 . S
C302 H283 0.951 . S
C302 C300 1.388 . S
C302 C303 1.366 . S
C303 C302 1.366 . S
C303 C304 1.414 . S
C303 C306 1.499 . S
C304 H284 0.950 . S
C304 C303 1.414 . S
C304 C305 1.374 . S
C305 H285 0.950 . S
C305 C301 1.385 . S
C305 C304 1.374 . S
C306 C303 1.499 . S
C306 C307 1.373 . S
C306 C308 1.389 . S
C307 H286 0.950 . S
C307 C306 1.373 . S
C307 C323 1.377 . S
C308 C306 1.389 . S
C308 C309 1.524 . S
C308 C322 1.377 . S
C309 C308 1.524 . S
C309 C310 1.397 . S
C309 C314 1.363 . S
C310 H287 0.950 . S
C310 C309 1.397 . S
C310 C311 1.334 . S
C311 H288 0.950 . S
C311 C310 1.334 . S
C311 C312 1.287 . S
C312 C311 1.287 . S
C312 C313 1.524 . S
C312 H331 0.913 . S
C313 H289 0.950 . S
C313 C312 1.524 . S
C313 C314 1.415 . S
C314 H290 0.950 . S
C314 C309 1.363 . S
C314 C313 1.415 . S
C315 H291 0.951 . S
C315 C316 1.366 . S
C315 C317 1.388 . S
C316 C315 1.366 . S
C316 C320 1.385 . S
C317 H292 0.951 . S
C317 C315 1.388 . S
C317 C318 1.366 . S
C318 C317 1.366 . S
C318 C319 1.414 . S
C318 C321 1.499 . S
C319 H293 0.950 . S
C319 C318 1.414 . S
C319 C320 1.374 . S
C320 H294 0.950 . S
C320 C316 1.385 . S
C320 C319 1.374 . S
C321 C318 1.499 . S
C321 C322 1.373 . S
C321 C323 1.389 . S
C322 H295 0.950 . S
C322 C308 1.377 . S
C322 C321 1.373 . S
C323 C307 1.377 . S
C323 C321 1.389 . S
C323 C324 1.524 . S
C324 C323 1.524 . S
C324 C325 1.397 . S
C324 C329 1.363 . S
C325 H296 0.950 . S
C325 C324 1.397 . S
C325 C326 1.334 . S
C326 H297 0.950 . S
C326 C325 1.334 . S
C326 C327 1.287 . S
C327 C326 1.287 . S
C327 C328 1.524 . S
C327 H330 0.999 . S
C328 H298 0.950 . S
C328 C327 1.524 . S
C328 C329 1.415 . S
C329 H299 0.950 . S
C329 C324 1.363 . S
C329 C328 1.415 . S
H330 C327 0.999 . S
H331 C312 0.913 . S
H332 C350 0.951 . S
H333 C352 0.951 . S
H334 C354 0.950 . S
H335 C355 0.950 . S
H336 C357 0.950 . S
H337 C360 0.950 . S
H338 C361 0.950 . S
H339 C363 0.950 . S
H340 C364 0.950 . S
H341 C365 0.951 . S
H342 C367 0.951 . S
H343 C369 0.950 . S
H344 C370 0.950 . S
H345 C372 0.950 . S
H346 C375 0.950 . S
H347 C376 0.950 . S
H348 C378 0.950 . S
H349 C379 0.950 . S
C350 H332 0.951 . S
C350 C351 1.366 . S
C350 C352 1.388 . S
C351 C350 1.366 . S
C351 C355 1.385 . S
C352 H333 0.951 . S
C352 C350 1.388 . S
C352 C353 1.366 . S
C353 C352 1.366 . S
C353 C354 1.414 . S
C353 C356 1.499 . S
C354 H334 0.950 . S
C354 C353 1.414 . S
C354 C355 1.374 . S
C355 H335 0.950 . S
C355 C351 1.385 . S
C355 C354 1.374 . S
C356 C353 1.499 . S
C356 C357 1.373 . S
C356 C358 1.389 . S
C357 H336 0.950 . S
C357 C356 1.373 . S
C357 C373 1.377 . S
C358 C356 1.389 . S
C358 C359 1.524 . S
C358 C372 1.377 . S
C359 C358 1.524 . S
C359 C360 1.397 . S
C359 C364 1.363 . S
C360 H337 0.950 . S
C360 C359 1.397 . S
C360 C361 1.334 . S
C361 H338 0.950 . S
C361 C360 1.334 . S
C361 C362 1.287 . S
C362 C361 1.287 . S
C362 C363 1.524 . S
C362 H381 0.913 . S
C363 H339 0.950 . S
C363 C362 1.524 . S
C363 C364 1.415 . S
C364 H340 0.950 . S
C364 C359 1.363 . S
C364 C363 1.415 . S
C365 H341 0.951 . S
C365 C366 1.366 . S
C365 C367 1.388 . S
C366 C365 1.366 . S
C366 C370 1.385 . S
C367 H342 0.951 . S
C367 C365 1.388 . S
C367 C368 1.366 . S
C368 C367 1.366 . S
C368 C369 1.414 . S
C368 C371 1.499 . S
C369 H343 0.950 . S
C369 C368 1.414 . S
C369 C370 1.374 . S
C370 H344 0.950 . S
C370 C366 1.385 . S
C370 C369 1.374 . S
C371 C368 1.499 . S
C371 C372 1.373 . S
C371 C373 1.389 . S
C372 H345 0.950 . S
C372 C358 1.377 . S
C372 C371 1.373 . S
C373 C357 1.377 . S
C373 C371 1.389 . S
C373 C374 1.524 . S
C374 C373 1.524 . S
C374 C375 1.397 . S
C374 C379 1.363 . S
C375 H346 0.950 . S
C375 C374 1.397 . S
C375 C376 1.334 . S
C376 H347 0.950 . S
C376 C375 1.334 . S
C376 C377 1.287 . S
C377 C376 1.287 . S
C377 C378 1.524 . S
C377 H380 0.999 . S
C378 H348 0.950 . S
C378 C377 1.524 . S
C378 C379 1.415 . S
C379 H349 0.950 . S
C379 C374 1.363 . S
C379 C378 1.415 . S
H380 C377 0.999 . S
H381 C362 0.913 . S
H382 C400 0.951 . S
H383 C402 0.951 . S
H384 C404 0.950 . S
H385 C405 0.950 . S
H386 C407 0.950 . S
H387 C410 0.950 . S
H388 C411 0.950 . S
H389 C413 0.950 . S
H390 C414 0.950 . S
H391 C415 0.951 . S
H392 C417 0.951 . S
H393 C419 0.951 . S
H394 C420 0.950 1_655 S
H395 C422 0.950 . S
H396 C425 0.950 . S
H397 C426 0.950 . S
H398 C428 0.950 . S
H399 C429 0.950 . S
C400 H382 0.951 . S
C400 C401 1.366 . S
C400 C402 1.388 . S
C401 C400 1.366 . S
C401 C405 1.385 . S
C402 H383 0.951 . S
C402 C400 1.388 . S
C402 C403 1.366 . S
C403 C402 1.366 . S
C403 C404 1.414 . S
C403 C406 1.499 . S
C404 H384 0.950 . S
C404 C403 1.414 . S
C404 C405 1.374 . S
C405 H385 0.950 . S
C405 C401 1.385 . S
C405 C404 1.374 . S
C406 C403 1.499 . S
C406 C407 1.373 . S
C406 C408 1.389 1_455 S
C407 H386 0.950 . S
C407 C406 1.373 . S
C407 C423 1.377 . S
C408 C406 1.389 1_655 S
C408 C409 1.524 . S
C408 C422 1.377 . S
C409 C408 1.524 . S
C409 C410 1.397 . S
C409 C414 1.363 . S
C410 H387 0.950 . S
C410 C409 1.397 . S
C410 C411 1.334 . S
C411 H388 0.950 . S
C411 C410 1.334 . S
C411 C412 1.287 . S
C412 C411 1.287 . S
C412 C413 1.524 . S
C412 H431 0.913 . S
C413 H389 0.950 . S
C413 C412 1.524 . S
C413 C414 1.415 . S
C414 H390 0.950 . S
C414 C409 1.363 . S
C414 C413 1.415 . S
C415 H391 0.951 . S
C415 C416 1.366 . S
C415 C417 1.388 . S
C416 C415 1.366 . S
C416 C420 1.385 . S
C417 H392 0.951 . S
C417 C415 1.388 . S
C417 C418 1.366 . S
C418 C417 1.366 . S
C418 C419 1.414 . S
C418 C421 1.499 . S
C419 H393 0.951 . S
C419 C418 1.414 . S
C419 C420 1.374 . S
C420 H394 0.950 1_455 S
C420 C416 1.385 . S
C420 C419 1.374 . S
C421 C418 1.499 . S
C421 C422 1.373 1_455 S
C421 C423 1.389 . S
C422 H395 0.950 . S
C422 C408 1.377 . S
C422 C421 1.373 1_655 S
C423 C407 1.377 . S
C423 C421 1.389 . S
C423 C424 1.524 . S
C424 C423 1.524 . S
C424 C425 1.397 . S
C424 C429 1.363 . S
C425 H396 0.950 . S
C425 C424 1.397 . S
C425 C426 1.334 . S
C426 H397 0.950 . S
C426 C425 1.334 . S
C426 C427 1.287 . S
C427 C426 1.287 . S
C427 C428 1.524 . S
C427 H430 0.999 . S
C428 H398 0.950 . S
C428 C427 1.524 . S
C428 C429 1.415 . S
C429 H399 0.950 . S
C429 C424 1.363 . S
C429 C428 1.415 . S
H430 C427 0.999 . S
H431 C412 0.913 . S
H432 C450 0.951 . S
H433 C452 0.951 . S
H434 C454 0.950 . S
H435 C455 0.950 . S
H436 C457 0.950 . S
H437 C460 0.950 . S
H438 C461 0.950 . S
H439 C463 0.950 . S
H440 C464 0.950 . S
H441 C465 0.951 . S
H442 C467 0.951 . S
H443 C469 0.950 . S
H444 C470 0.950 . S
H445 C472 0.950 . S
H446 C475 0.950 . S
H447 C476 0.950 . S
H448 C478 0.950 . S
H449 C479 0.950 . S
C450 H432 0.951 . S
C450 C451 1.366 1_565 S
C450 C452 1.388 . S
C451 C450 1.366 1_545 S
C451 C455 1.384 . S
C452 H433 0.951 . S
C452 C450 1.388 . S
C452 C453 1.366 1_565 S
C453 C452 1.366 1_545 S
C453 C454 1.414 . S
C453 C456 1.499 . S
C454 H434 0.950 . S
C454 C453 1.414 . S
C454 C455 1.374 . S
C455 H435 0.950 . S
C455 C451 1.384 . S
C455 C454 1.374 . S
C456 C453 1.499 . S
C456 C457 1.373 1_545 S
C456 C458 1.389 . S
C457 H436 0.950 . S
C457 C456 1.373 1_565 S
C457 C473 1.377 1_554 S
C458 C456 1.389 . S
C458 C459 1.524 . S
C458 C472 1.377 . S
C459 C458 1.524 . S
C459 C460 1.397 . S
C459 C464 1.363 . S
C460 H437 0.950 . S
C460 C459 1.397 . S
C460 C461 1.334 . S
C461 H438 0.950 . S
C461 C460 1.334 . S
C461 C462 1.287 . S
C462 C461 1.287 . S
C462 C463 1.524 . S
C462 H481 0.913 . S
C463 H439 0.950 . S
C463 C462 1.524 . S
C463 C464 1.415 . S
C464 H440 0.950 . S
C464 C459 1.363 . S
C464 C463 1.415 . S
C465 H441 0.951 . S
C465 C466 1.365 1_545 S
C465 C467 1.388 . S
C466 C465 1.365 1_565 S
C466 C470 1.386 . S
C467 H442 0.951 . S
C467 C465 1.388 . S
C467 C468 1.366 1_545 S
C468 C467 1.366 1_565 S
C468 C469 1.414 . S
C468 C471 1.499 . S
C469 H443 0.950 . S
C469 C468 1.414 . S
C469 C470 1.374 . S
C470 H444 0.950 . S
C470 C466 1.386 . S
C470 C469 1.374 . S
C471 C468 1.499 . S
C471 C472 1.373 1_566 S
C471 C473 1.389 . S
C472 H445 0.950 . S
C472 C458 1.377 . S
C472 C471 1.373 1_544 S
C473 C457 1.377 1_556 S
C473 C471 1.389 . S
C473 C474 1.524 . S
C474 C473 1.524 . S
C474 C475 1.397 . S
C474 C479 1.363 . S
C475 H446 0.950 . S
C475 C474 1.397 . S
C475 C476 1.334 . S
C476 H447 0.950 . S
C476 C475 1.334 . S
C476 C477 1.287 . S
C477 C476 1.287 . S
C477 C478 1.524 . S
C477 H480 0.999 . S
C478 H448 0.950 . S
C478 C477 1.524 . S
C478 C479 1.415 . S
C479 H449 0.950 . S
C479 C474 1.363 . S
C479 C478 1.415 . S
H480 C477 0.999 . S
H481 C462 0.913 . S
H482 C500 0.951 . S
H483 C502 0.951 1_556 S
H484 C504 0.950 . S
H485 C505 0.950 . S
H486 C507 0.950 1_554 S
H487 C510 0.950 . S
H488 C511 0.950 . S
H489 C513 0.950 . S
H490 C514 0.950 . S
H491 C515 0.951 . S
H492 C517 0.951 . S
H493 C519 0.950 . S
H494 C520 0.950 . S
H495 C522 0.950 . S
H496 C525 0.950 1_556 S
H497 C526 0.950 . S
H498 C528 0.950 . S
H499 C529 0.950 . S
C500 H482 0.951 . S
C500 C501 1.366 . S
C500 C502 1.388 . S
C501 C500 1.366 . S
C501 C505 1.385 . S
C502 H483 0.951 1_554 S
C502 C500 1.388 . S
C502 C503 1.366 1_554 S
C503 C502 1.366 1_556 S
C503 C504 1.414 1_556 S
C503 C506 1.499 . S
C504 H484 0.950 . S
C504 C503 1.414 1_554 S
C504 C505 1.374 . S
C505 H485 0.950 . S
C505 C501 1.385 . S
C505 C504 1.374 . S
C506 C503 1.499 . S
C506 C507 1.373 . S
C506 C508 1.389 . S
C507 H486 0.950 1_556 S
C507 C506 1.373 . S
C507 C523 1.377 . S
C508 C506 1.389 . S
C508 C509 1.524 . S
C508 C522 1.377 . S
C509 C508 1.524 . S
C509 C510 1.397 . S
C509 C514 1.363 . S
C510 H487 0.950 . S
C510 C509 1.397 . S
C510 C511 1.334 . S
C511 H488 0.950 . S
C511 C510 1.334 . S
C511 C512 1.287 . S
C512 C511 1.287 . S
C512 C513 1.524 . S
C512 H531 0.913 . S
C513 H489 0.950 . S
C513 C512 1.524 . S
C513 C514 1.415 . S
C514 H490 0.950 . S
C514 C509 1.363 . S
C514 C513 1.415 . S
C515 H491 0.951 . S
C515 C516 1.366 . S
C515 C517 1.388 . S
C516 C515 1.366 . S
C516 C520 1.385 . S
C517 H492 0.951 . S
C517 C515 1.388 . S
C517 C518 1.366 . S
C518 C517 1.366 . S
C518 C519 1.414 . S
C518 C521 1.499 . S
C519 H493 0.950 . S
C519 C518 1.414 . S
C519 C520 1.374 . S
C520 H494 0.950 . S
C520 C516 1.385 . S
C520 C519 1.374 . S
C521 C518 1.499 . S
C521 C522 1.373 . S
C521 C523 1.389 . S
C522 H495 0.950 . S
C522 C508 1.377 . S
C522 C521 1.373 . S
C523 C507 1.377 . S
C523 C521 1.389 . S
C523 C524 1.524 1_556 S
C524 C523 1.524 1_554 S
C524 C525 1.397 . S
C524 C529 1.363 . S
C525 H496 0.950 1_554 S
C525 C524 1.397 . S
C525 C526 1.334 . S
C526 H497 0.950 . S
C526 C525 1.334 . S
C526 C527 1.287 . S
C527 C526 1.287 . S
C527 C528 1.524 . S
C527 H530 0.999 . S
C528 H498 0.950 . S
C528 C527 1.524 . S
C528 C529 1.415 . S
C529 H499 0.950 . S
C529 C524 1.363 . S
C529 C528 1.415 . S
H530 C527 0.999 . S
H531 C512 0.913 . S
H532 C550 0.951 . S
H533 C552 0.951 . S
H534 C554 0.950 . S
H535 C555 0.950 . S
H536 C557 0.950 . S
H537 C560 0.950 . S
H538 C561 0.950 . S
H539 C563 0.950 . S
H540 C564 0.950 . S
H541 C565 0.951 . S
H542 C567 0.951 . S
H543 C569 0.950 . S
H544 C570 0.950 . S
H545 C572 0.950 . S
H546 C575 0.950 . S
H547 C576 0.950 . S
H548 C578 0.950 . S
H549 C579 0.950 . S
C550 H532 0.951 . S
C550 C551 1.366 . S
C550 C552 1.388 . S
C551 C550 1.366 . S
C551 C555 1.385 . S
C552 H533 0.951 . S
C552 C550 1.388 . S
C552 C553 1.366 . S
C553 C552 1.366 . S
C553 C554 1.414 . S
C553 C556 1.499 . S
C554 H534 0.950 . S
C554 C553 1.414 . S
C554 C555 1.374 . S
C555 H535 0.950 . S
C555 C551 1.385 . S
C555 C554 1.374 . S
C556 C553 1.499 . S
C556 C557 1.373 . S
C556 C558 1.389 . S
C557 H536 0.950 . S
C557 C556 1.373 . S
C557 C573 1.377 . S
C558 C556 1.389 . S
C558 C559 1.524 . S
C558 C572 1.377 . S
C559 C558 1.524 . S
C559 C560 1.397 . S
C559 C564 1.363 . S
C560 H537 0.950 . S
C560 C559 1.397 . S
C560 C561 1.334 . S
C561 H538 0.950 . S
C561 C560 1.334 . S
C561 C562 1.287 . S
C562 C561 1.287 . S
C562 C563 1.524 . S
C562 H581 0.913 . S
C563 H539 0.950 . S
C563 C562 1.524 . S
C563 C564 1.415 . S
C564 H540 0.950 . S
C564 C559 1.363 . S
C564 C563 1.415 . S
C565 H541 0.951 . S
C565 C566 1.366 . S
C565 C567 1.388 1_556 S
C566 C565 1.366 . S
C566 C570 1.385 1_556 S
C567 H542 0.951 . S
C567 C565 1.388 1_554 S
C567 C568 1.366 . S
C568 C567 1.366 . S
C568 C569 1.414 . S
C568 C571 1.499 . S
C569 H543 0.950 . S
C569 C568 1.414 . S
C569 C570 1.374 . S
C570 H544 0.950 . S
C570 C566 1.385 1_554 S
C570 C569 1.374 . S
C571 C568 1.499 . S
C571 C572 1.373 . S
C571 C573 1.389 . S
C572 H545 0.950 . S
C572 C558 1.377 . S
C572 C571 1.373 . S
C573 C557 1.377 . S
C573 C571 1.389 . S
C573 C574 1.524 . S
C574 C573 1.524 . S
C574 C575 1.397 . S
C574 C579 1.363 . S
C575 H546 0.950 . S
C575 C574 1.397 . S
C575 C576 1.334 . S
C576 H547 0.950 . S
C576 C575 1.334 . S
C576 C577 1.287 . S
C577 C576 1.287 . S
C577 C578 1.524 . S
C577 H580 0.999 . S
C578 H548 0.950 . S
C578 C577 1.524 . S
C578 C579 1.415 . S
C579 H549 0.950 . S
C579 C574 1.363 . S
C579 C578 1.415 . S
H580 C577 0.999 . S
H581 C562 0.913 . S
H582 C600 0.951 . S
H583 C602 0.951 . S
H584 C604 0.950 . S
H585 C605 0.950 . S
H586 C607 0.950 . S
H587 C610 0.950 1_655 S
H588 C611 0.950 . S
H589 C613 0.950 1_556 S
H590 C614 0.950 . S
H591 C615 0.951 . S
H592 C617 0.951 . S
H593 C619 0.950 . S
H594 C620 0.950 . S
H595 C622 0.950 1_556 S
H596 C625 0.950 1_455 S
H597 C626 0.950 . S
H598 C628 0.950 . S
H599 C629 0.950 . S
C600 H582 0.951 . S
C600 C601 1.366 1_455 S
C600 C602 1.388 . S
C601 C600 1.366 1_655 S
C601 C605 1.385 . S
C602 H583 0.951 . S
C602 C600 1.388 . S
C602 C603 1.366 1_455 S
C603 C602 1.366 1_655 S
C603 C604 1.414 . S
C603 C606 1.499 . S
C604 H584 0.950 . S
C604 C603 1.414 . S
C604 C605 1.374 . S
C605 H585 0.950 . S
C605 C601 1.385 . S
C605 C604 1.374 . S
C606 C603 1.499 . S
C606 C607 1.373 . S
C606 C608 1.389 1_655 S
C607 H586 0.950 . S
C607 C606 1.373 . S
C607 C623 1.377 . S
C608 C606 1.389 1_455 S
C608 C609 1.524 . S
C608 C622 1.377 . S
C609 C608 1.524 . S
C609 C610 1.397 . S
C609 C614 1.363 . S
C610 H587 0.950 1_455 S
C610 C609 1.397 . S
C610 C611 1.334 . S
C611 H588 0.950 . S
C611 C610 1.334 . S
C611 C612 1.287 . S
C612 C611 1.287 . S
C612 C613 1.524 . S
C612 H631 0.913 . S
C613 H589 0.950 1_554 S
C613 C612 1.524 . S
C613 C614 1.415 . S
C614 H590 0.950 . S
C614 C609 1.363 . S
C614 C613 1.415 . S
C615 H591 0.951 . S
C615 C616 1.361 . S
C615 C617 1.388 . S
C616 C615 1.361 . S
C616 C620 1.390 1_655 S
C617 H592 0.951 . S
C617 C615 1.388 . S
C617 C618 1.366 . S
C618 C617 1.366 . S
C618 C619 1.414 1_655 S
C618 C621 1.499 1_556 S
C619 H593 0.950 . S
C619 C618 1.414 1_455 S
C619 C620 1.374 . S
C620 H594 0.950 . S
C620 C616 1.390 1_455 S
C620 C619 1.374 . S
C621 C618 1.499 1_554 S
C621 C622 1.373 1_655 S
C621 C623 1.389 . S
C622 H595 0.950 1_554 S
C622 C608 1.377 . S
C622 C621 1.373 1_455 S
C623 C607 1.377 . S
C623 C621 1.389 . S
C623 C624 1.524 . S
C624 C623 1.524 . S
C624 C625 1.397 . S
C624 C629 1.363 . S
C625 H596 0.950 1_655 S
C625 C624 1.397 . S
C625 C626 1.334 . S
C626 H597 0.950 . S
C626 C625 1.334 . S
C626 C627 1.287 . S
C627 C626 1.287 . S
C627 C628 1.524 . S
C627 H630 0.999 . S
C628 H598 0.950 . S
C628 C627 1.524 . S
C628 C629 1.415 . S
C629 H599 0.950 . S
C629 C624 1.363 . S
C629 C628 1.415 . S
H630 C627 0.999 . S
H631 C612 0.913 . S
H632 C650 0.951 . S
H633 C652 0.951 . S
H634 C654 0.950 . S
H635 C655 0.950 . S
H636 C657 0.950 . S
H637 C660 0.950 . S
H638 C661 0.950 . S
H639 C663 0.950 . S
H640 C664 0.950 . S
H641 C665 0.951 . S
H642 C667 0.951 . S
H643 C669 0.950 . S
H644 C670 0.950 . S
H645 C672 0.950 . S
H646 C675 0.950 . S
H647 C676 0.950 . S
H648 C678 0.950 . S
H649 C679 0.950 . S
C650 H632 0.951 . S
C650 C651 1.366 . S
C650 C652 1.388 . S
C651 C650 1.366 . S
C651 C655 1.385 1_455 S
C652 H633 0.951 . S
C652 C650 1.388 . S
C652 C653 1.366 . S
C653 C652 1.366 . S
C653 C654 1.414 1_455 S
C653 C656 1.499 . S
C654 H634 0.950 . S
C654 C653 1.414 1_655 S
C654 C655 1.374 . S
C655 H635 0.950 . S
C655 C651 1.385 1_655 S
C655 C654 1.374 . S
C656 C653 1.499 . S
C656 C657 1.373 1_455 S
C656 C658 1.389 . S
C657 H636 0.950 . S
C657 C656 1.373 1_655 S
C657 C673 1.377 . S
C658 C656 1.389 . S
C658 C659 1.524 . S
C658 C672 1.377 . S
C659 C658 1.524 . S
C659 C660 1.397 . S
C659 C664 1.363 . S
C660 H637 0.950 . S
C660 C659 1.397 . S
C660 C661 1.334 . S
C661 H638 0.950 . S
C661 C660 1.334 . S
C661 C662 1.287 . S
C662 C661 1.287 . S
C662 C663 1.524 . S
C662 H681 0.913 . S
C663 H639 0.950 . S
C663 C662 1.524 . S
C663 C664 1.415 . S
C664 H640 0.950 . S
C664 C659 1.363 . S
C664 C663 1.415 . S
C665 H641 0.951 . S
C665 C666 1.366 . S
C665 C667 1.388 . S
C666 C665 1.366 . S
C666 C670 1.385 1_655 S
C667 H642 0.951 . S
C667 C665 1.388 . S
C667 C668 1.366 . S
C668 C667 1.366 . S
C668 C669 1.414 1_655 S
C668 C671 1.499 . S
C669 H643 0.950 . S
C669 C668 1.414 1_455 S
C669 C670 1.374 . S
C670 H644 0.950 . S
C670 C666 1.385 1_455 S
C670 C669 1.374 . S
C671 C668 1.499 . S
C671 C672 1.373 1_655 S
C671 C673 1.389 . S
C672 H645 0.950 . S
C672 C658 1.377 . S
C672 C671 1.373 1_455 S
C673 C657 1.377 . S
C673 C671 1.389 . S
C673 C674 1.524 . S
C674 C673 1.524 . S
C674 C675 1.397 . S
C674 C679 1.363 . S
C675 H646 0.950 . S
C675 C674 1.397 . S
C675 C676 1.334 . S
C676 H647 0.950 . S
C676 C675 1.334 . S
C676 C677 1.287 . S
C677 C676 1.287 . S
C677 C678 1.524 . S
C677 H680 0.999 . S
C678 H648 0.950 . S
C678 C677 1.524 . S
C678 C679 1.415 . S
C679 H649 0.950 . S
C679 C674 1.363 . S
C679 C678 1.415 . S
H680 C677 0.999 . S
H681 C662 0.913 . S
H682 C700 0.954 . S
H683 C702 0.951 . S
H684 C704 0.950 . S
H685 C705 0.950 1_545 S
H686 C707 0.950 . S
H687 C710 0.950 . S
H688 C711 0.950 . S
H689 C713 0.950 . S
H690 C714 0.950 . S
H691 C715 0.951 . S
H692 C717 0.951 . S
H693 C719 0.950 . S
H694 C720 0.950 . S
H695 C722 0.950 . S
H696 C725 0.950 . S
H697 C726 0.950 . S
H698 C728 0.950 . S
H699 C729 0.950 . S
C700 H682 0.954 . S
C700 C701 1.360 1_565 S
C700 C702 1.390 . S
C701 C700 1.360 1_545 S
C701 C705 1.388 1_545 S
C702 H683 0.951 . S
C702 C700 1.390 . S
C702 C703 1.366 . S
C703 C702 1.366 . S
C703 C704 1.414 . S
C703 C706 1.499 . S
C704 H684 0.950 . S
C704 C703 1.414 . S
C704 C705 1.374 . S
C705 H685 0.950 1_565 S
C705 C701 1.388 1_565 S
C705 C704 1.374 . S
C706 C703 1.499 . S
C706 C707 1.373 . S
C706 C708 1.389 1_565 S
C707 H686 0.950 . S
C707 C706 1.373 . S
C707 C723 1.377 . S
C708 C706 1.389 1_545 S
C708 C709 1.524 . S
C708 C722 1.377 . S
C709 C708 1.524 . S
C709 C710 1.397 . S
C709 C714 1.363 . S
C710 H687 0.950 . S
C710 C709 1.397 . S
C710 C711 1.334 . S
C711 H688 0.950 . S
C711 C710 1.334 . S
C711 C712 1.287 . S
C712 C711 1.287 . S
C712 C713 1.524 . S
C712 H731 0.913 . S
C713 H689 0.950 . S
C713 C712 1.524 . S
C713 C714 1.415 . S
C714 H690 0.950 . S
C714 C709 1.363 . S
C714 C713 1.415 . S
C715 H691 0.951 . S
C715 C716 1.366 . S
C715 C717 1.388 . S
C716 C715 1.366 . S
C716 C720 1.385 . S
C717 H692 0.951 . S
C717 C715 1.388 . S
C717 C718 1.366 . S
C718 C717 1.366 . S
C718 C719 1.414 . S
C718 C721 1.499 . S
C719 H693 0.950 . S
C719 C718 1.414 . S
C719 C720 1.374 . S
C720 H694 0.950 . S
C720 C716 1.385 . S
C720 C719 1.374 . S
C721 C718 1.499 . S
C721 C722 1.373 1_565 S
C721 C723 1.389 . S
C722 H695 0.950 . S
C722 C708 1.377 . S
C722 C721 1.373 1_545 S
C723 C707 1.377 . S
C723 C721 1.389 . S
C723 C724 1.524 . S
C724 C723 1.524 . S
C724 C725 1.397 . S
C724 C729 1.363 . S
C725 H696 0.950 . S
C725 C724 1.397 . S
C725 C726 1.334 . S
C726 H697 0.950 . S
C726 C725 1.334 . S
C726 C727 1.287 . S
C727 C726 1.287 . S
C727 C728 1.524 . S
C727 H730 0.999 . S
C728 H698 0.950 . S
C728 C727 1.524 . S
C728 C729 1.415 . S
C729 H699 0.950 . S
C729 C724 1.363 . S
C729 C728 1.415 . S
H730 C727 0.999 . S
H731 C712 0.913 . S
H732 C750 0.951 . S
H733 C752 0.951 . S
H734 C754 0.950 . S
H735 C755 0.950 . S
H736 C757 0.950 . S
H737 C760 0.950 . S
H738 C761 0.950 . S
H739 C763 0.950 . S
H740 C764 0.950 . S
H741 C765 0.951 . S
H742 C767 0.951 . S
H743 C769 0.950 . S
H744 C770 0.950 . S
H745 C772 0.950 . S
H746 C775 0.950 . S
H747 C776 0.950 . S
H748 C778 0.950 . S
H749 C779 0.950 . S
C750 H732 0.951 . S
C750 C751 1.366 . S
C750 C752 1.388 . S
C751 C750 1.366 . S
C751 C755 1.385 . S
C752 H733 0.951 . S
C752 C750 1.388 . S
C752 C753 1.366 . S
C753 C752 1.366 . S
C753 C754 1.414 . S
C753 C756 1.499 . S
C754 H734 0.950 . S
C754 C753 1.414 . S
C754 C755 1.374 . S
C755 H735 0.950 . S
C755 C751 1.385 . S
C755 C754 1.374 . S
C756 C753 1.499 . S
C756 C757 1.373 . S
C756 C758 1.389 . S
C757 H736 0.950 . S
C757 C756 1.373 . S
C757 C773 1.377 . S
C758 C756 1.389 . S
C758 C759 1.524 . S
C758 C772 1.377 . S
C759 C758 1.524 . S
C759 C760 1.397 . S
C759 C764 1.363 . S
C760 H737 0.950 . S
C760 C759 1.397 . S
C760 C761 1.334 . S
C761 H738 0.950 . S
C761 C760 1.334 . S
C761 C762 1.287 . S
C762 C761 1.287 . S
C762 C763 1.524 . S
C762 H781 0.913 . S
C763 H739 0.950 . S
C763 C762 1.524 . S
C763 C764 1.415 . S
C764 H740 0.950 . S
C764 C759 1.363 . S
C764 C763 1.415 . S
C765 H741 0.951 . S
C765 C766 1.366 . S
C765 C767 1.388 . S
C766 C765 1.366 . S
C766 C770 1.385 . S
C767 H742 0.951 . S
C767 C765 1.388 . S
C767 C768 1.366 . S
C768 C767 1.366 . S
C768 C769 1.414 . S
C768 C771 1.499 . S
C769 H743 0.950 . S
C769 C768 1.414 . S
C769 C770 1.374 . S
C770 H744 0.950 . S
C770 C766 1.385 . S
C770 C769 1.374 . S
C771 C768 1.499 . S
C771 C772 1.373 . S
C771 C773 1.389 . S
C772 H745 0.950 . S
C772 C758 1.377 . S
C772 C771 1.373 . S
C773 C757 1.377 . S
C773 C771 1.389 . S
C773 C774 1.524 . S
C774 C773 1.524 . S
C774 C775 1.397 . S
C774 C779 1.363 . S
C775 H746 0.950 . S
C775 C774 1.397 . S
C775 C776 1.334 . S
C776 H747 0.950 . S
C776 C775 1.334 . S
C776 C777 1.287 . S
C777 C776 1.287 . S
C777 C778 1.524 . S
C777 H780 0.999 . S
C778 H748 0.950 . S
C778 C777 1.524 . S
C778 C779 1.415 . S
C779 H749 0.950 . S
C779 C774 1.363 . S
C779 C778 1.415 . S
H780 C777 0.999 . S
H781 C762 0.913 . S
H782 C800 0.951 . S
H783 C802 0.951 . S
H784 C804 0.950 . S
H785 C805 0.950 . S
H786 C807 0.950 . S
H787 C810 0.950 . S
H788 C811 0.950 . S
H789 C813 0.950 . S
H790 C814 0.950 . S
H791 C815 0.951 . S
H792 C817 0.951 . S
H793 C819 0.950 . S
H794 C820 0.950 . S
H795 C822 0.950 . S
H796 C825 0.950 . S
H797 C826 0.950 . S
H798 C828 0.950 . S
H799 C829 0.950 . S
C800 H782 0.951 . S
C800 C801 1.366 . S
C800 C802 1.388 . S
C801 C800 1.366 . S
C801 C805 1.385 . S
C802 H783 0.951 . S
C802 C800 1.388 . S
C802 C803 1.366 . S
C803 C802 1.366 . S
C803 C804 1.414 . S
C803 C806 1.499 . S
C804 H784 0.950 . S
C804 C803 1.414 . S
C804 C805 1.374 . S
C805 H785 0.950 . S
C805 C801 1.385 . S
C805 C804 1.374 . S
C806 C803 1.499 . S
C806 C807 1.373 . S
C806 C808 1.389 . S
C807 H786 0.950 . S
C807 C806 1.373 . S
C807 C823 1.377 . S
C808 C806 1.389 . S
C808 C809 1.524 . S
C808 C822 1.377 . S
C809 C808 1.524 . S
C809 C810 1.397 . S
C809 C814 1.363 . S
C810 H787 0.950 . S
C810 C809 1.397 . S
C810 C811 1.334 . S
C811 H788 0.950 . S
C811 C810 1.334 . S
C811 C812 1.287 . S
C812 C811 1.287 . S
C812 C813 1.524 . S
C812 H831 0.913 . S
C813 H789 0.950 . S
C813 C812 1.524 . S
C813 C814 1.415 . S
C814 H790 0.950 . S
C814 C809 1.363 . S
C814 C813 1.415 . S
C815 H791 0.951 . S
C815 C816 1.366 . S
C815 C817 1.388 . S
C816 C815 1.366 . S
C816 C820 1.385 . S
C817 H792 0.951 . S
C817 C815 1.388 . S
C817 C818 1.366 . S
C818 C817 1.366 . S
C818 C819 1.414 . S
C818 C821 1.499 . S
C819 H793 0.950 . S
C819 C818 1.414 . S
C819 C820 1.374 . S
C820 H794 0.950 . S
C820 C816 1.385 . S
C820 C819 1.374 . S
C821 C818 1.499 . S
C821 C822 1.373 . S
C821 C823 1.389 . S
C822 H795 0.950 . S
C822 C808 1.377 . S
C822 C821 1.373 . S
C823 C807 1.377 . S
C823 C821 1.389 . S
C823 C824 1.524 . S
C824 C823 1.524 . S
C824 C825 1.397 . S
C824 C829 1.363 . S
C825 H796 0.950 . S
C825 C824 1.397 . S
C825 C826 1.334 . S
C826 H797 0.950 . S
C826 C825 1.334 . S
C826 C827 1.287 . S
C827 C826 1.287 . S
C827 C828 1.524 . S
C827 H830 0.999 . S
C828 H798 0.950 . S
C828 C827 1.524 . S
C828 C829 1.415 . S
C829 H799 0.950 . S
C829 C824 1.363 . S
C829 C828 1.415 . S
H830 C827 0.999 . S
H831 C812 0.913 . S
H832 C850 0.951 . S
H833 C852 0.951 . S
H834 C854 0.950 . S
H835 C855 0.950 . S
H836 C857 0.950 . S
H837 C860 0.950 . S
H838 C861 0.950 . S
H839 C863 0.950 . S
H840 C864 0.950 . S
H841 C865 0.951 . S
H842 C867 0.951 . S
H843 C869 0.950 . S
H844 C870 0.950 . S
H845 C872 0.950 . S
H846 C875 0.950 . S
H847 C876 0.950 . S
H848 C878 0.950 . S
H849 C879 0.950 . S
C850 H832 0.951 . S
C850 C851 1.366 . S
C850 C852 1.388 . S
C851 C850 1.366 . S
C851 C855 1.385 . S
C852 H833 0.951 . S
C852 C850 1.388 . S
C852 C853 1.366 . S
C853 C852 1.366 . S
C853 C854 1.414 . S
C853 C856 1.499 1_655 S
C854 H834 0.950 . S
C854 C853 1.414 . S
C854 C855 1.374 . S
C855 H835 0.950 . S
C855 C851 1.385 . S
C855 C854 1.374 . S
C856 C853 1.499 1_455 S
C856 C857 1.373 . S
C856 C858 1.389 1_455 S
C857 H836 0.950 . S
C857 C856 1.373 . S
C857 C873 1.377 . S
C858 C856 1.389 1_655 S
C858 C859 1.524 . S
C858 C872 1.377 . S
C859 C858 1.524 . S
C859 C860 1.397 . S
C859 C864 1.363 . S
C860 H837 0.950 . S
C860 C859 1.397 . S
C860 C861 1.334 . S
C861 H838 0.950 . S
C861 C860 1.334 . S
C861 C862 1.287 . S
C862 C861 1.287 . S
C862 C863 1.524 . S
C862 H881 0.913 . S
C863 H839 0.950 . S
C863 C862 1.524 . S
C863 C864 1.415 . S
C864 H840 0.950 . S
C864 C859 1.363 . S
C864 C863 1.415 . S
C865 H841 0.951 . S
C865 C866 1.366 . S
C865 C867 1.388 . S
C866 C865 1.366 . S
C866 C870 1.385 1_556 S
C867 H842 0.951 . S
C867 C865 1.388 . S
C867 C868 1.366 1_556 S
C868 C867 1.366 1_554 S
C868 C869 1.414 . S
C868 C871 1.499 . S
C869 H843 0.950 . S
C869 C868 1.414 . S
C869 C870 1.374 . S
C870 H844 0.950 . S
C870 C866 1.385 1_554 S
C870 C869 1.374 . S
C871 C868 1.499 . S
C871 C872 1.373 1_455 S
C871 C873 1.389 . S
C872 H845 0.950 . S
C872 C858 1.377 . S
C872 C871 1.373 1_655 S
C873 C857 1.377 . S
C873 C871 1.389 . S
C873 C874 1.524 . S
C874 C873 1.524 . S
C874 C875 1.397 . S
C874 C879 1.363 1_554 S
C875 H846 0.950 . S
C875 C874 1.397 . S
C875 C876 1.334 1_554 S
C876 H847 0.950 . S
C876 C875 1.334 1_556 S
C876 C877 1.287 . S
C877 C876 1.287 . S
C877 C878 1.524 . S
C877 H880 0.999 . S
C878 H848 0.950 . S
C878 C877 1.524 . S
C878 C879 1.415 . S
C879 H849 0.950 . S
C879 C874 1.363 1_556 S
C879 C878 1.415 . S
H880 C877 0.999 . S
H881 C862 0.913 . S
H882 C900 0.956 . S
H883 C902 0.951 . S
H884 C904 0.950 . S
H885 C905 0.950 . S
H886 C907 0.950 . S
H887 C910 0.950 . S
H888 C911 0.950 . S
H889 C913 0.950 . S
H890 C914 0.950 . S
H891 C915 0.951 . S
H892 C917 0.951 . S
H893 C919 0.950 . S
H894 C920 0.950 . S
H895 C922 0.950 . S
H896 C925 0.950 . S
H897 C926 0.950 . S
H898 C928 0.950 . S
H899 C929 0.950 . S
C900 H882 0.956 . S
C900 C901 1.366 . S
C900 C902 1.387 1_565 S
C901 C900 1.366 . S
C901 C905 1.380 1_565 S
C902 H883 0.951 . S
C902 C900 1.387 1_545 S
C902 C903 1.366 . S
C903 C902 1.366 . S
C903 C904 1.414 . S
C903 C906 1.499 . S
C904 H884 0.950 . S
C904 C903 1.414 . S
C904 C905 1.374 . S
C905 H885 0.950 . S
C905 C901 1.380 1_545 S
C905 C904 1.374 . S
C906 C903 1.499 . S
C906 C907 1.373 . S
C906 C908 1.389 1_545 S
C907 H886 0.950 . S
C907 C906 1.373 . S
C907 C923 1.377 . S
C908 C906 1.389 1_565 S
C908 C909 1.524 . S
C908 C922 1.377 . S
C909 C908 1.524 . S
C909 C910 1.397 . S
C909 C914 1.363 . S
C910 H887 0.950 . S
C910 C909 1.397 . S
C910 C911 1.334 . S
C911 H888 0.950 . S
C911 C910 1.334 . S
C911 C912 1.287 . S
C912 C911 1.287 . S
C912 C913 1.524 . S
C912 H931 0.913 . S
C913 H889 0.950 . S
C913 C912 1.524 . S
C913 C914 1.415 . S
C914 H890 0.950 . S
C914 C909 1.363 . S
C914 C913 1.415 . S
C915 H891 0.951 . S
C915 C916 1.366 . S
C915 C917 1.388 . S
C916 C915 1.366 . S
C916 C920 1.385 1_556 S
C917 H892 0.951 . S
C917 C915 1.388 . S
C917 C918 1.366 1_556 S
C918 C917 1.366 1_554 S
C918 C919 1.414 . S
C918 C921 1.499 . S
C919 H893 0.950 . S
C919 C918 1.414 . S
C919 C920 1.374 . S
C920 H894 0.950 . S
C920 C916 1.385 1_554 S
C920 C919 1.374 . S
C921 C918 1.499 . S
C921 C922 1.373 1_545 S
C921 C923 1.389 . S
C922 H895 0.950 . S
C922 C908 1.377 . S
C922 C921 1.373 1_565 S
C923 C907 1.377 . S
C923 C921 1.389 . S
C923 C924 1.524 . S
C924 C923 1.524 . S
C924 C925 1.397 . S
C924 C929 1.363 1_554 S
C925 H896 0.950 . S
C925 C924 1.397 . S
C925 C926 1.334 1_554 S
C926 H897 0.950 . S
C926 C925 1.334 1_556 S
C926 C927 1.287 . S
C927 C926 1.287 . S
C927 C928 1.524 . S
C927 H930 0.999 . S
C928 H898 0.950 . S
C928 C927 1.524 . S
C928 C929 1.415 . S
C929 H899 0.950 . S
C929 C924 1.363 1_556 S
C929 C928 1.415 . S
H930 C927 0.999 . S
H931 C912 0.913 . S
H932 C950 0.951 . S
H933 C952 0.951 . S
H934 C954 0.950 . S
H935 C955 0.950 . S
H936 C957 0.950 . S
H937 C960 0.950 . S
H938 C961 0.950 . S
H939 C963 0.950 . S
H940 C964 0.950 . S
H941 C965 0.951 . S
H942 C967 0.951 . S
H943 C969 0.950 . S
H944 C970 0.950 . S
H945 C972 0.950 . S
H946 C975 0.950 . S
H947 C976 0.950 . S
H948 C978 0.950 . S
H949 C979 0.950 . S
C950 H932 0.951 . S
C950 C951 1.366 . S
C950 C952 1.388 . S
C951 C950 1.366 . S
C951 C955 1.385 1_554 S
C952 H933 0.951 . S
C952 C950 1.388 . S
C952 C953 1.366 . S
C953 C952 1.366 . S
C953 C954 1.414 1_554 S
C953 C956 1.499 1_554 S
C954 H934 0.950 . S
C954 C953 1.414 1_556 S
C954 C955 1.374 . S
C955 H935 0.950 . S
C955 C951 1.385 1_556 S
C955 C954 1.374 . S
C956 C953 1.499 1_556 S
C956 C957 1.373 . S
C956 C958 1.389 . S
C957 H936 0.950 . S
C957 C956 1.373 . S
C957 C973 1.377 . S
C958 C956 1.389 . S
C958 C959 1.524 1_556 S
C958 C972 1.377 . S
C959 C958 1.524 1_554 S
C959 C960 1.397 . S
C959 C964 1.363 . S
C960 H937 0.950 . S
C960 C959 1.397 . S
C960 C961 1.334 . S
C961 H938 0.950 . S
C961 C960 1.334 . S
C961 C962 1.287 . S
C962 C961 1.287 . S
C962 C963 1.524 . S
C962 H981 0.913 . S
C963 H939 0.950 . S
C963 C962 1.524 . S
C963 C964 1.415 . S
C964 H940 0.950 . S
C964 C959 1.363 . S
C964 C963 1.415 . S
C965 H941 0.951 . S
C965 C966 1.366 . S
C965 C967 1.388 . S
C966 C965 1.366 . S
C966 C970 1.385 . S
C967 H942 0.951 . S
C967 C965 1.388 . S
C967 C968 1.366 . S
C968 C967 1.366 . S
C968 C969 1.414 . S
C968 C971 1.499 . S
C969 H943 0.950 . S
C969 C968 1.414 . S
C969 C970 1.374 . S
C970 H944 0.950 . S
C970 C966 1.385 . S
C970 C969 1.374 . S
C971 C968 1.499 . S
C971 C972 1.373 . S
C971 C973 1.389 . S
C972 H945 0.950 . S
C972 C958 1.377 . S
C972 C971 1.373 . S
C973 C957 1.377 . S
C973 C971 1.389 . S
C973 C974 1.524 . S
C974 C973 1.524 . S
C974 C975 1.397 . S
C974 C979 1.363 . S
C975 H946 0.950 . S
C975 C974 1.397 . S
C975 C976 1.334 . S
C976 H947 0.950 . S
C976 C975 1.334 . S
C976 C977 1.287 . S
C977 C976 1.287 . S
C977 C978 1.524 . S
C977 H980 0.999 . S
C978 H948 0.950 . S
C978 C977 1.524 . S
C978 C979 1.415 . S
C979 H949 0.950 . S
C979 C974 1.363 . S
C979 C978 1.415 . S
H980 C977 0.999 . S
H981 C962 0.913 . S
H982 C1000 0.951 . S
H983 C1002 0.951 . S
H984 C1004 0.950 . S
H985 C1005 0.950 . S
H986 C1007 0.950 . S
H987 C1010 0.950 . S
H988 C1011 0.950 . S
H989 C1013 0.950 . S
H990 C1014 0.950 . S
H991 C1015 0.951 1_556 S
H992 C1017 0.951 . S
H993 C1019 0.950 . S
H994 C1020 0.950 . S
H995 C1022 0.950 . S
H996 C1025 0.950 . S
H997 C1026 0.950 . S
H998 C1028 0.950 . S
H999 C1029 0.950 . S
C1000 H982 0.951 . S
C1000 C1001 1.366 . S
C1000 C1002 1.388 . S
C1001 C1000 1.366 . S
C1001 C1005 1.385 . S
C1002 H983 0.951 . S
C1002 C1000 1.388 . S
C1002 C1003 1.366 . S
C1003 C1002 1.366 . S
C1003 C1004 1.414 . S
C1003 C1006 1.499 . S
C1004 H984 0.950 . S
C1004 C1003 1.414 . S
C1004 C1005 1.374 . S
C1005 H985 0.950 . S
C1005 C1001 1.385 . S
C1005 C1004 1.374 . S
C1006 C1003 1.499 . S
C1006 C1007 1.373 . S
C1006 C1008 1.389 . S
C1007 H986 0.950 . S
C1007 C1006 1.373 . S
C1007 C1023 1.377 . S
C1008 C1006 1.389 . S
C1008 C1009 1.524 . S
C1008 C1022 1.377 . S
C1009 C1008 1.524 . S
C1009 C1010 1.397 . S
C1009 C1014 1.363 . S
C1010 H987 0.950 . S
C1010 C1009 1.397 . S
C1010 C1011 1.334 . S
C1011 H988 0.950 . S
C1011 C1010 1.334 . S
C1011 C1012 1.287 . S
C1012 C1011 1.287 . S
C1012 C1013 1.524 . S
C1012 H1031 0.913 . S
C1013 H989 0.950 . S
C1013 C1012 1.524 . S
C1013 C1014 1.415 . S
C1014 H990 0.950 . S
C1014 C1009 1.363 . S
C1014 C1013 1.415 . S
C1015 H991 0.951 1_554 S
C1015 C1016 1.366 . S
C1015 C1017 1.388 . S
C1016 C1015 1.366 . S
C1016 C1020 1.385 . S
C1017 H992 0.951 . S
C1017 C1015 1.388 . S
C1017 C1018 1.366 . S
C1018 C1017 1.366 . S
C1018 C1019 1.414 . S
C1018 C1021 1.499 . S
C1019 H993 0.950 . S
C1019 C1018 1.414 . S
C1019 C1020 1.374 . S
C1020 H994 0.950 . S
C1020 C1016 1.385 . S
C1020 C1019 1.374 . S
C1021 C1018 1.499 . S
C1021 C1022 1.373 . S
C1021 C1023 1.389 . S
C1022 H995 0.950 . S
C1022 C1008 1.377 . S
C1022 C1021 1.373 . S
C1023 C1007 1.377 . S
C1023 C1021 1.389 . S
C1023 C1024 1.524 . S
C1024 C1023 1.524 . S
C1024 C1025 1.397 . S
C1024 C1029 1.363 . S
C1025 H996 0.950 . S
C1025 C1024 1.397 . S
C1025 C1026 1.334 . S
C1026 H997 0.950 . S
C1026 C1025 1.334 . S
C1026 C1027 1.287 . S
C1027 C1026 1.287 . S
C1027 C1028 1.524 . S
C1027 H1030 0.999 . S
C1028 H998 0.950 . S
C1028 C1027 1.524 . S
C1028 C1029 1.415 . S
C1029 H999 0.950 . S
C1029 C1024 1.363 . S
C1029 C1028 1.415 . S
H1030 C1027 0.999 . S
H1031 C1012 0.913 . S
H1032 C1050 0.951 . S
H1033 C1052 0.951 1_554 S
H1034 C1054 0.933 1_655 S
H1035 C1055 0.940 1_655 S
H1036 C1057 0.950 . S
H1037 C1060 0.950 . S
H1038 C1061 0.950 . S
H1039 C1063 0.950 . S
H1040 C1064 0.950 . S
H1041 C1065 0.930 1_655 S
H1042 C1067 0.948 1_655 S
H1043 C1069 0.950 . S
H1044 C1070 0.950 . S
H1045 C1072 0.950 . S
H1046 C1075 0.950 . S
H1047 C1076 0.950 . S
H1048 C1078 0.950 . S
H1049 C1079 0.950 . S
C1050 H1032 0.951 . S
C1050 C1051 1.366 . S
C1050 C1052 1.388 1_554 S
C1051 C1050 1.366 . S
C1051 C1055 1.397 1_554 S
C1052 H1033 0.951 1_556 S
C1052 C1050 1.388 1_556 S
C1052 C1053 1.366 . S
C1053 C1052 1.366 . S
C1053 C1054 1.428 . S
C1053 C1056 1.499 . S
C1054 H1034 0.933 1_455 S
C1054 C1053 1.428 . S
C1054 C1055 1.375 . S
C1055 H1035 0.940 1_455 S
C1055 C1051 1.397 1_556 S
C1055 C1054 1.375 . S
C1056 C1053 1.499 . S
C1056 C1057 1.373 1_455 S
C1056 C1058 1.389 . S
C1057 H1036 0.950 . S
C1057 C1056 1.373 1_655 S
C1057 C1073 1.377 . S
C1058 C1056 1.389 . S
C1058 C1059 1.524 . S
C1058 C1072 1.377 . S
C1059 C1058 1.524 . S
C1059 C1060 1.397 . S
C1059 C1064 1.363 . S
C1060 H1037 0.950 . S
C1060 C1059 1.397 . S
C1060 C1061 1.334 . S
C1061 H1038 0.950 . S
C1061 C1060 1.334 . S
C1061 C1062 1.287 . S
C1062 C1061 1.287 . S
C1062 C1063 1.524 . S
C1062 H1081 0.913 . S
C1063 H1039 0.950 . S
C1063 C1062 1.524 . S
C1063 C1064 1.415 . S
C1064 H1040 0.950 . S
C1064 C1059 1.363 . S
C1064 C1063 1.415 . S
C1065 H1041 0.930 1_455 S
C1065 C1066 1.383 . S
C1065 C1067 1.391 . S
C1066 C1065 1.383 . S
C1066 C1070 1.385 . S
C1067 H1042 0.948 1_455 S
C1067 C1065 1.391 . S
C1067 C1068 1.369 . S
C1068 C1067 1.369 . S
C1068 C1069 1.414 . S
C1068 C1071 1.499 . S
C1069 H1043 0.950 . S
C1069 C1068 1.414 . S
C1069 C1070 1.374 . S
C1070 H1044 0.950 . S
C1070 C1066 1.385 . S
C1070 C1069 1.374 . S
C1071 C1068 1.499 . S
C1071 C1072 1.373 . S
C1071 C1073 1.389 1_455 S
C1072 H1045 0.950 . S
C1072 C1058 1.377 . S
C1072 C1071 1.373 . S
C1073 C1057 1.377 . S
C1073 C1071 1.389 1_655 S
C1073 C1074 1.524 . S
C1074 C1073 1.524 . S
C1074 C1075 1.397 . S
C1074 C1079 1.363 . S
C1075 H1046 0.950 . S
C1075 C1074 1.397 . S
C1075 C1076 1.334 . S
C1076 H1047 0.950 . S
C1076 C1075 1.334 . S
C1076 C1077 1.287 . S
C1077 C1076 1.287 . S
C1077 C1078 1.524 . S
C1077 H1080 0.999 . S
C1078 H1048 0.950 . S
C1078 C1077 1.524 . S
C1078 C1079 1.415 . S
C1079 H1049 0.950 . S
C1079 C1074 1.363 . S
C1079 C1078 1.415 . S
H1080 C1077 0.999 . S
H1081 C1062 0.913 . S
H1082 C1100 0.951 . S
H1083 C1102 0.951 . S
H1084 C1104 0.944 1_556 S
H1085 C1105 0.950 . S
H1086 C1107 0.950 . S
H1087 C1110 0.950 . S
H1088 C1111 0.950 . S
H1089 C1113 0.950 . S
H1090 C1114 0.950 . S
H1091 C1115 0.951 . S
H1092 C1117 0.951 . S
H1093 C1119 0.950 . S
H1094 C1120 0.950 . S
H1095 C1122 0.948 1_564 S
H1096 C1125 0.950 . S
H1097 C1126 0.950 . S
H1098 C1128 0.950 . S
H1099 C1129 0.950 . S
C1100 H1082 0.951 . S
C1100 C1101 1.340 1_565 S
C1100 C1102 1.388 . S
C1101 C1100 1.340 1_545 S
C1101 C1105 1.417 . S
C1102 H1083 0.951 . S
C1102 C1100 1.388 . S
C1102 C1103 1.366 1_565 S
C1103 C1102 1.366 1_545 S
C1103 C1104 1.417 . S
C1103 C1106 1.499 1_554 S
C1104 H1084 0.944 1_554 S
C1104 C1103 1.417 . S
C1104 C1105 1.377 . S
C1105 H1085 0.950 . S
C1105 C1101 1.417 . S
C1105 C1104 1.377 . S
C1106 C1103 1.499 1_556 S
C1106 C1107 1.373 . S
C1106 C1108 1.389 1_556 S
C1107 H1086 0.950 . S
C1107 C1106 1.373 . S
C1107 C1123 1.377 . S
C1108 C1106 1.389 1_554 S
C1108 C1109 1.524 1_545 S
C1108 C1122 1.375 1_554 S
C1109 C1108 1.524 1_565 S
C1109 C1110 1.397 1_565 S
C1109 C1114 1.363 . S
C1110 H1087 0.950 . S
C1110 C1109 1.397 1_545 S
C1110 C1111 1.334 . S
C1111 H1088 0.950 . S
C1111 C1110 1.334 . S
C1111 C1112 1.311 . S
C1112 C1111 1.311 . S
C1112 C1113 1.499 1_545 S
C1112 H1131 0.912 . S
C1113 H1089 0.950 . S
C1113 C1112 1.499 1_565 S
C1113 C1114 1.415 . S
C1114 H1090 0.950 . S
C1114 C1109 1.363 . S
C1114 C1113 1.415 . S
C1115 H1091 0.951 . S
C1115 C1116 1.366 . S
C1115 C1117 1.388 . S
C1116 C1115 1.366 . S
C1116 C1120 1.385 1_545 S
C1117 H1092 0.951 . S
C1117 C1115 1.388 . S
C1117 C1118 1.366 . S
C1118 C1117 1.366 . S
C1118 C1119 1.414 1_545 S
C1118 C1121 1.499 . S
C1119 H1093 0.950 . S
C1119 C1118 1.414 1_565 S
C1119 C1120 1.374 . S
C1120 H1094 0.950 . S
C1120 C1116 1.385 1_565 S
C1120 C1119 1.374 . S
C1121 C1118 1.499 . S
C1121 C1122 1.377 . S
C1121 C1123 1.389 . S
C1122 H1095 0.948 1_546 S
C1122 C1108 1.375 1_556 S
C1122 C1121 1.377 . S
C1123 C1107 1.377 . S
C1123 C1121 1.389 . S
C1123 C1124 1.524 . S
C1124 C1123 1.524 . S
C1124 C1125 1.397 1_545 S
C1124 C1129 1.363 . S
C1125 H1096 0.950 . S
C1125 C1124 1.397 1_565 S
C1125 C1126 1.334 . S
C1126 H1097 0.950 . S
C1126 C1125 1.334 . S
C1126 C1127 1.287 1_565 S
C1127 C1126 1.287 1_545 S
C1127 C1128 1.524 . S
C1127 H1130 0.999 . S
C1128 H1098 0.950 . S
C1128 C1127 1.524 . S
C1128 C1129 1.415 . S
C1129 H1099 0.950 . S
C1129 C1124 1.363 . S
C1129 C1128 1.415 . S
H1130 C1127 0.999 . S
H1131 C1112 0.912 . S
H1132 C1150 0.951 . S
H1133 C1152 0.951 . S
H1134 C1154 0.950 . S
H1135 C1155 0.950 . S
H1136 C1157 0.950 . S
H1137 C1160 0.950 . S
H1138 C1161 0.950 . S
H1139 C1163 0.950 . S
H1140 C1164 0.950 . S
H1141 C1165 0.951 . S
H1142 C1167 0.951 . S
H1143 C1169 0.950 . S
H1144 C1170 0.950 . S
H1145 C1172 0.950 1_556 S
H1146 C1175 0.950 . S
H1147 C1176 0.950 . S
H1148 C1178 0.950 . S
H1149 C1179 0.950 . S
C1150 H1132 0.951 . S
C1150 C1151 1.366 . S
C1150 C1152 1.388 . S
C1151 C1150 1.366 . S
C1151 C1155 1.385 . S
C1152 H1133 0.951 . S
C1152 C1150 1.388 . S
C1152 C1153 1.366 . S
C1153 C1152 1.366 . S
C1153 C1154 1.414 . S
C1153 C1156 1.499 . S
C1154 H1134 0.950 . S
C1154 C1153 1.414 . S
C1154 C1155 1.374 . S
C1155 H1135 0.950 . S
C1155 C1151 1.385 . S
C1155 C1154 1.374 . S
C1156 C1153 1.499 . S
C1156 C1157 1.373 . S
C1156 C1158 1.389 . S
C1157 H1136 0.950 . S
C1157 C1156 1.373 . S
C1157 C1173 1.377 . S
C1158 C1156 1.389 . S
C1158 C1159 1.524 . S
C1158 C1172 1.377 . S
C1159 C1158 1.524 . S
C1159 C1160 1.397 . S
C1159 C1164 1.363 . S
C1160 H1137 0.950 . S
C1160 C1159 1.397 . S
C1160 C1161 1.334 . S
C1161 H1138 0.950 . S
C1161 C1160 1.334 . S
C1161 C1162 1.287 . S
C1162 C1161 1.287 . S
C1162 C1163 1.524 . S
C1162 H1181 0.913 1_554 S
C1163 H1139 0.950 . S
C1163 C1162 1.524 . S
C1163 C1164 1.415 . S
C1164 H1140 0.950 . S
C1164 C1159 1.363 . S
C1164 C1163 1.415 . S
C1165 H1141 0.951 . S
C1165 C1166 1.366 . S
C1165 C1167 1.388 . S
C1166 C1165 1.366 . S
C1166 C1170 1.385 . S
C1167 H1142 0.951 . S
C1167 C1165 1.388 . S
C1167 C1168 1.366 . S
C1168 C1167 1.366 . S
C1168 C1169 1.414 . S
C1168 C1171 1.499 1_556 S
C1169 H1143 0.950 . S
C1169 C1168 1.414 . S
C1169 C1170 1.374 . S
C1170 H1144 0.950 . S
C1170 C1166 1.385 . S
C1170 C1169 1.374 . S
C1171 C1168 1.499 1_554 S
C1171 C1172 1.373 . S
C1171 C1173 1.389 . S
C1172 H1145 0.950 1_554 S
C1172 C1158 1.377 . S
C1172 C1171 1.373 . S
C1173 C1157 1.377 . S
C1173 C1171 1.389 . S
C1173 C1174 1.524 . S
C1174 C1173 1.524 . S
C1174 C1175 1.397 . S
C1174 C1179 1.363 . S
C1175 H1146 0.950 . S
C1175 C1174 1.397 . S
C1175 C1176 1.334 . S
C1176 H1147 0.950 . S
C1176 C1175 1.334 . S
C1176 C1177 1.287 . S
C1177 C1176 1.287 . S
C1177 C1178 1.524 . S
C1177 H1180 0.999 . S
C1178 H1148 0.950 . S
C1178 C1177 1.524 . S
C1178 C1179 1.415 . S
C1179 H1149 0.950 . S
C1179 C1174 1.363 . S
C1179 C1178 1.415 . S
H1180 C1177 0.999 . S
H1181 C1162 0.913 1_556 S
H1182 C1200 0.951 . S
H1183 C1202 0.951 . S
H1184 C1204 0.950 . S
H1185 C1205 0.950 . S
H1186 C1207 0.950 . S
H1187 C1210 0.950 . S
H1188 C1211 0.950 . S
H1189 C1213 0.950 . S
H1190 C1214 0.950 . S
H1191 C1215 0.951 . S
H1192 C1217 0.951 . S
H1193 C1219 0.950 . S
H1194 C1220 0.950 . S
H1195 C1222 0.950 . S
H1196 C1225 0.950 . S
H1197 C1226 0.950 . S
H1198 C1228 0.950 . S
H1199 C1229 0.950 . S
C1200 H1182 0.951 . S
C1200 C1201 1.366 . S
C1200 C1202 1.388 . S
C1201 C1200 1.366 . S
C1201 C1205 1.385 . S
C1202 H1183 0.951 . S
C1202 C1200 1.388 . S
C1202 C1203 1.366 . S
C1203 C1202 1.366 . S
C1203 C1204 1.414 . S
C1203 C1206 1.499 . S
C1204 H1184 0.950 . S
C1204 C1203 1.414 . S
C1204 C1205 1.374 . S
C1205 H1185 0.950 . S
C1205 C1201 1.385 . S
C1205 C1204 1.374 . S
C1206 C1203 1.499 . S
C1206 C1207 1.373 . S
C1206 C1208 1.389 . S
C1207 H1186 0.950 . S
C1207 C1206 1.373 . S
C1207 C1223 1.377 . S
C1208 C1206 1.389 . S
C1208 C1209 1.524 . S
C1208 C1222 1.377 . S
C1209 C1208 1.524 . S
C1209 C1210 1.397 . S
C1209 C1214 1.363 . S
C1210 H1187 0.950 . S
C1210 C1209 1.397 . S
C1210 C1211 1.334 . S
C1211 H1188 0.950 . S
C1211 C1210 1.334 . S
C1211 C1212 1.287 . S
C1212 C1211 1.287 . S
C1212 C1213 1.524 . S
C1212 H1231 0.913 . S
C1213 H1189 0.950 . S
C1213 C1212 1.524 . S
C1213 C1214 1.415 . S
C1214 H1190 0.950 . S
C1214 C1209 1.363 . S
C1214 C1213 1.415 . S
C1215 H1191 0.951 . S
C1215 C1216 1.366 . S
C1215 C1217 1.388 . S
C1216 C1215 1.366 . S
C1216 C1220 1.385 . S
C1217 H1192 0.951 . S
C1217 C1215 1.388 . S
C1217 C1218 1.366 . S
C1218 C1217 1.366 . S
C1218 C1219 1.414 . S
C1218 C1221 1.499 . S
C1219 H1193 0.950 . S
C1219 C1218 1.414 . S
C1219 C1220 1.374 . S
C1220 H1194 0.950 . S
C1220 C1216 1.385 . S
C1220 C1219 1.374 . S
C1221 C1218 1.499 . S
C1221 C1222 1.373 . S
C1221 C1223 1.389 . S
C1222 H1195 0.950 . S
C1222 C1208 1.377 . S
C1222 C1221 1.373 . S
C1223 C1207 1.377 . S
C1223 C1221 1.389 . S
C1223 C1224 1.524 . S
C1224 C1223 1.524 . S
C1224 C1225 1.397 . S
C1224 C1229 1.363 . S
C1225 H1196 0.950 . S
C1225 C1224 1.397 . S
C1225 C1226 1.334 . S
C1226 H1197 0.950 . S
C1226 C1225 1.334 . S
C1226 C1227 1.287 . S
C1227 C1226 1.287 . S
C1227 C1228 1.524 1_556 S
C1227 H1230 0.999 . S
C1228 H1198 0.950 . S
C1228 C1227 1.524 1_554 S
C1228 C1229 1.415 1_554 S
C1229 H1199 0.950 . S
C1229 C1224 1.363 . S
C1229 C1228 1.415 1_556 S
H1230 C1227 0.999 . S
H1231 C1212 0.913 . S
H1232 C1250 0.951 . S
H1233 C1252 0.951 . S
H1234 C1254 0.950 . S
H1235 C1255 0.950 . S
H1236 C1257 0.950 . S
H1237 C1260 0.950 . S
H1238 C1261 0.950 . S
H1239 C1263 0.950 . S
H1240 C1264 0.950 . S
H1241 C1265 0.951 . S
H1242 C1267 0.951 . S
H1243 C1269 0.950 . S
H1244 C1270 0.950 . S
H1245 C1272 0.950 . S
H1246 C1275 0.950 . S
H1247 C1276 0.950 . S
H1248 C1278 0.950 . S
H1249 C1279 0.950 . S
C1250 H1232 0.951 . S
C1250 C1251 1.366 . S
C1250 C1252 1.388 . S
C1251 C1250 1.366 . S
C1251 C1255 1.385 1_655 S
C1252 H1233 0.951 . S
C1252 C1250 1.388 . S
C1252 C1253 1.366 . S
C1253 C1252 1.366 . S
C1253 C1254 1.414 1_655 S
C1253 C1256 1.499 . S
C1254 H1234 0.950 . S
C1254 C1253 1.414 1_455 S
C1254 C1255 1.374 . S
C1255 H1235 0.950 . S
C1255 C1251 1.385 1_455 S
C1255 C1254 1.374 . S
C1256 C1253 1.499 . S
C1256 C1257 1.373 1_655 S
C1256 C1258 1.389 . S
C1257 H1236 0.950 . S
C1257 C1256 1.373 1_455 S
C1257 C1273 1.377 . S
C1258 C1256 1.389 . S
C1258 C1259 1.524 . S
C1258 C1272 1.377 . S
C1259 C1258 1.524 . S
C1259 C1260 1.397 . S
C1259 C1264 1.363 . S
C1260 H1237 0.950 . S
C1260 C1259 1.397 . S
C1260 C1261 1.334 . S
C1261 H1238 0.950 . S
C1261 C1260 1.334 . S
C1261 C1262 1.287 . S
C1262 C1261 1.287 . S
C1262 C1263 1.524 . S
C1262 H1281 0.913 . S
C1263 H1239 0.950 . S
C1263 C1262 1.524 . S
C1263 C1264 1.415 . S
C1264 H1240 0.950 . S
C1264 C1259 1.363 . S
C1264 C1263 1.415 . S
C1265 H1241 0.951 . S
C1265 C1266 1.366 1_455 S
C1265 C1267 1.388 . S
C1266 C1265 1.366 1_655 S
C1266 C1270 1.385 . S
C1267 H1242 0.951 . S
C1267 C1265 1.388 . S
C1267 C1268 1.366 1_455 S
C1268 C1267 1.366 1_655 S
C1268 C1269 1.414 . S
C1268 C1271 1.499 . S
C1269 H1243 0.950 . S
C1269 C1268 1.414 . S
C1269 C1270 1.374 . S
C1270 H1244 0.950 . S
C1270 C1266 1.385 . S
C1270 C1269 1.374 . S
C1271 C1268 1.499 . S
C1271 C1272 1.373 . S
C1271 C1273 1.389 1_655 S
C1272 H1245 0.950 . S
C1272 C1258 1.377 . S
C1272 C1271 1.373 . S
C1273 C1257 1.377 . S
C1273 C1271 1.389 1_455 S
C1273 C1274 1.524 . S
C1274 C1273 1.524 . S
C1274 C1275 1.397 . S
C1274 C1279 1.363 . S
C1275 H1246 0.950 . S
C1275 C1274 1.397 . S
C1275 C1276 1.334 . S
C1276 H1247 0.950 . S
C1276 C1275 1.334 . S
C1276 C1277 1.287 . S
C1277 C1276 1.287 . S
C1277 C1278 1.524 . S
C1277 H1280 0.999 . S
C1278 H1248 0.950 . S
C1278 C1277 1.524 . S
C1278 C1279 1.415 . S
C1279 H1249 0.950 . S
C1279 C1274 1.363 . S
C1279 C1278 1.415 . S
H1280 C1277 0.999 . S
H1281 C1262 0.913 . S
H1282 C1300 0.951 . S
H1283 C1302 0.951 . S
H1284 C1304 0.950 . S
H1285 C1305 0.950 . S
H1286 C1307 0.950 . S
H1287 C1310 0.950 . S
H1288 C1311 0.950 . S
H1289 C1313 0.950 . S
H1290 C1314 0.950 . S
H1291 C1315 0.951 . S
H1292 C1317 0.951 . S
H1293 C1319 0.950 . S
H1294 C1320 0.950 . S
H1295 C1322 0.950 . S
H1296 C1325 0.950 . S
H1297 C1326 0.950 . S
H1298 C1328 0.950 . S
H1299 C1329 0.950 . S
C1300 H1282 0.951 . S
C1300 C1301 1.346 1_545 S
C1300 C1302 1.388 . S
C1301 C1300 1.346 1_565 S
C1301 C1305 1.409 . S
C1302 H1283 0.951 . S
C1302 C1300 1.388 . S
C1302 C1303 1.366 1_545 S
C1303 C1302 1.366 1_565 S
C1303 C1304 1.414 . S
C1303 C1306 1.499 . S
C1304 H1284 0.950 . S
C1304 C1303 1.414 . S
C1304 C1305 1.374 . S
C1305 H1285 0.950 . S
C1305 C1301 1.409 . S
C1305 C1304 1.374 . S
C1306 C1303 1.499 . S
C1306 C1307 1.373 . S
C1306 C1308 1.389 1_565 S
C1307 H1286 0.950 . S
C1307 C1306 1.373 . S
C1307 C1323 1.377 . S
C1308 C1306 1.389 1_545 S
C1308 C1309 1.524 . S
C1308 C1322 1.377 . S
C1309 C1308 1.524 . S
C1309 C1310 1.397 . S
C1309 C1314 1.363 . S
C1310 H1287 0.950 . S
C1310 C1309 1.397 . S
C1310 C1311 1.334 . S
C1311 H1288 0.950 . S
C1311 C1310 1.334 . S
C1311 C1312 1.287 . S
C1312 C1311 1.287 . S
C1312 C1313 1.524 . S
C1312 H1331 0.913 . S
C1313 H1289 0.950 . S
C1313 C1312 1.524 . S
C1313 C1314 1.415 . S
C1314 H1290 0.950 . S
C1314 C1309 1.363 . S
C1314 C1313 1.415 . S
C1315 H1291 0.951 . S
C1315 C1316 1.366 . S
C1315 C1317 1.388 . S
C1316 C1315 1.366 . S
C1316 C1320 1.385 1_565 S
C1317 H1292 0.951 . S
C1317 C1315 1.388 . S
C1317 C1318 1.366 . S
C1318 C1317 1.366 . S
C1318 C1319 1.414 1_565 S
C1318 C1321 1.499 . S
C1319 H1293 0.950 . S
C1319 C1318 1.414 1_545 S
C1319 C1320 1.374 . S
C1320 H1294 0.950 . S
C1320 C1316 1.385 1_545 S
C1320 C1319 1.374 . S
C1321 C1318 1.499 . S
C1321 C1322 1.373 1_565 S
C1321 C1323 1.389 . S
C1322 H1295 0.950 . S
C1322 C1308 1.377 . S
C1322 C1321 1.373 1_545 S
C1323 C1307 1.377 . S
C1323 C1321 1.389 . S
C1323 C1324 1.524 . S
C1324 C1323 1.524 . S
C1324 C1325 1.397 . S
C1324 C1329 1.363 . S
C1325 H1296 0.950 . S
C1325 C1324 1.397 . S
C1325 C1326 1.334 . S
C1326 H1297 0.950 . S
C1326 C1325 1.334 . S
C1326 C1327 1.287 . S
C1327 C1326 1.287 . S
C1327 C1328 1.524 . S
C1327 H1330 0.999 . S
C1328 H1298 0.950 . S
C1328 C1327 1.524 . S
C1328 C1329 1.415 . S
C1329 H1299 0.950 . S
C1329 C1324 1.363 . S
C1329 C1328 1.415 . S
H1330 C1327 0.999 . S
H1331 C1312 0.913 . S
H1332 C1350 0.951 . S
H1333 C1352 0.951 . S
H1334 C1354 0.950 . S
H1335 C1355 0.950 . S
H1336 C1357 0.950 . S
H1337 C1360 0.950 . S
H1338 C1361 0.950 . S
H1339 C1363 0.950 . S
H1340 C1364 0.950 . S
H1341 C1365 0.951 . S
H1342 C1367 0.951 . S
H1343 C1369 0.950 . S
H1344 C1370 0.950 . S
H1345 C1372 0.950 . S
H1346 C1375 0.950 . S
H1347 C1376 0.950 . S
H1348 C1378 0.950 . S
H1349 C1379 0.950 . S
C1350 H1332 0.951 . S
C1350 C1351 1.366 . S
C1350 C1352 1.388 . S
C1351 C1350 1.366 . S
C1351 C1355 1.385 . S
C1352 H1333 0.951 . S
C1352 C1350 1.388 . S
C1352 C1353 1.366 . S
C1353 C1352 1.366 . S
C1353 C1354 1.414 . S
C1353 C1356 1.499 . S
C1354 H1334 0.950 . S
C1354 C1353 1.414 . S
C1354 C1355 1.374 . S
C1355 H1335 0.950 . S
C1355 C1351 1.385 . S
C1355 C1354 1.374 . S
C1356 C1353 1.499 . S
C1356 C1357 1.373 . S
C1356 C1358 1.389 . S
C1357 H1336 0.950 . S
C1357 C1356 1.373 . S
C1357 C1373 1.377 . S
C1358 C1356 1.389 . S
C1358 C1359 1.524 . S
C1358 C1372 1.377 . S
C1359 C1358 1.524 . S
C1359 C1360 1.397 . S
C1359 C1364 1.363 . S
C1360 H1337 0.950 . S
C1360 C1359 1.397 . S
C1360 C1361 1.334 . S
C1361 H1338 0.950 . S
C1361 C1360 1.334 . S
C1361 C1362 1.287 . S
C1362 C1361 1.287 . S
C1362 C1363 1.524 . S
C1362 H1381 0.913 . S
C1363 H1339 0.950 . S
C1363 C1362 1.524 . S
C1363 C1364 1.415 . S
C1364 H1340 0.950 . S
C1364 C1359 1.363 . S
C1364 C1363 1.415 . S
C1365 H1341 0.951 . S
C1365 C1366 1.366 . S
C1365 C1367 1.388 . S
C1366 C1365 1.366 . S
C1366 C1370 1.385 . S
C1367 H1342 0.951 . S
C1367 C1365 1.388 . S
C1367 C1368 1.366 . S
C1368 C1367 1.366 . S
C1368 C1369 1.414 . S
C1368 C1371 1.499 . S
C1369 H1343 0.950 . S
C1369 C1368 1.414 . S
C1369 C1370 1.374 . S
C1370 H1344 0.950 . S
C1370 C1366 1.385 . S
C1370 C1369 1.374 . S
C1371 C1368 1.499 . S
C1371 C1372 1.373 . S
C1371 C1373 1.389 . S
C1372 H1345 0.950 . S
C1372 C1358 1.377 . S
C1372 C1371 1.373 . S
C1373 C1357 1.377 . S
C1373 C1371 1.389 . S
C1373 C1374 1.524 . S
C1374 C1373 1.524 . S
C1374 C1375 1.397 . S
C1374 C1379 1.363 . S
C1375 H1346 0.950 . S
C1375 C1374 1.397 . S
C1375 C1376 1.334 . S
C1376 H1347 0.950 . S
C1376 C1375 1.334 . S
C1376 C1377 1.287 . S
C1377 C1376 1.287 . S
C1377 C1378 1.524 . S
C1377 H1380 0.999 . S
C1378 H1348 0.950 . S
C1378 C1377 1.524 . S
C1378 C1379 1.415 . S
C1379 H1349 0.950 . S
C1379 C1374 1.363 . S
C1379 C1378 1.415 . S
H1380 C1377 0.999 . S
H1381 C1362 0.913 . S
H1382 C1400 0.951 . S
H1383 C1402 0.951 . S
H1384 C1404 0.950 . S
H1385 C1405 0.950 . S
H1386 C1407 0.950 . S
H1387 C1410 0.950 . S
H1388 C1411 0.950 . S
H1389 C1413 0.950 . S
H1390 C1414 0.950 . S
H1391 C1415 0.951 . S
H1392 C1417 0.951 . S
H1393 C1419 0.950 . S
H1394 C1420 0.950 . S
H1395 C1422 0.950 . S
H1396 C1425 0.950 . S
H1397 C1426 0.950 . S
H1398 C1428 0.950 . S
H1399 C1429 0.950 . S
C1400 H1382 0.951 . S
C1400 C1401 1.366 . S
C1400 C1402 1.388 . S
C1401 C1400 1.366 . S
C1401 C1405 1.385 . S
C1402 H1383 0.951 . S
C1402 C1400 1.388 . S
C1402 C1403 1.366 . S
C1403 C1402 1.366 . S
C1403 C1404 1.414 . S
C1403 C1406 1.499 . S
C1404 H1384 0.950 . S
C1404 C1403 1.414 . S
C1404 C1405 1.374 . S
C1405 H1385 0.950 . S
C1405 C1401 1.385 . S
C1405 C1404 1.374 . S
C1406 C1403 1.499 . S
C1406 C1407 1.373 . S
C1406 C1408 1.389 . S
C1407 H1386 0.950 . S
C1407 C1406 1.373 . S
C1407 C1423 1.377 . S
C1408 C1406 1.389 . S
C1408 C1409 1.524 . S
C1408 C1422 1.377 . S
C1409 C1408 1.524 . S
C1409 C1410 1.397 . S
C1409 C1414 1.363 . S
C1410 H1387 0.950 . S
C1410 C1409 1.397 . S
C1410 C1411 1.334 . S
C1411 H1388 0.950 . S
C1411 C1410 1.334 . S
C1411 C1412 1.287 . S
C1412 C1411 1.287 . S
C1412 C1413 1.524 . S
C1412 H1431 0.913 . S
C1413 H1389 0.950 . S
C1413 C1412 1.524 . S
C1413 C1414 1.415 . S
C1414 H1390 0.950 . S
C1414 C1409 1.363 . S
C1414 C1413 1.415 . S
C1415 H1391 0.951 . S
C1415 C1416 1.366 . S
C1415 C1417 1.388 . S
C1416 C1415 1.366 . S
C1416 C1420 1.385 . S
C1417 H1392 0.951 . S
C1417 C1415 1.388 . S
C1417 C1418 1.366 . S
C1418 C1417 1.366 . S
C1418 C1419 1.414 . S
C1418 C1421 1.499 . S
C1419 H1393 0.950 . S
C1419 C1418 1.414 . S
C1419 C1420 1.374 . S
C1420 H1394 0.950 . S
C1420 C1416 1.385 . S
C1420 C1419 1.374 . S
C1421 C1418 1.499 . S
C1421 C1422 1.373 . S
C1421 C1423 1.389 . S
C1422 H1395 0.950 . S
C1422 C1408 1.377 . S
C1422 C1421 1.373 . S
C1423 C1407 1.377 . S
C1423 C1421 1.389 . S
C1423 C1424 1.524 . S
C1424 C1423 1.524 . S
C1424 C1425 1.397 . S
C1424 C1429 1.363 . S
C1425 H1396 0.950 . S
C1425 C1424 1.397 . S
C1425 C1426 1.334 . S
C1426 H1397 0.950 . S
C1426 C1425 1.334 . S
C1426 C1427 1.287 . S
C1427 C1426 1.287 . S
C1427 C1428 1.524 . S
C1427 H1430 0.999 . S
C1428 H1398 0.950 . S
C1428 C1427 1.524 . S
C1428 C1429 1.415 . S
C1429 H1399 0.950 . S
C1429 C1424 1.363 . S
C1429 C1428 1.415 . S
H1430 C1427 0.999 . S
H1431 C1412 0.913 . S
C251 C61 1.722 1_545 S
C266 C74 1.759 1_545 S
C316 C114 1.928 . S
C301 C70 1.912 . S
C366 C178 1.825 . S
C351 C43 1.753 . S
C416 C194 1.389 . S
C401 C52 1.299 . S
C466 C95 1.761 1_565 S
C451 C25 1.721 1_545 S
C501 C34 1.913 . S
C516 C135 1.932 . S
C551 C7 1.759 . S
C566 C169 1.826 . S
C601 C16 1.300 . S
C616 C215 1.389 1_655 S
C666 C89 0.305 . S
C651 C50 0.193 . S
C716 C129 0.425 . S
C701 C59 0.400 1_545 S
C766 C165 0.368 . S
C751 C67 0.313 . S
C801 C41 0.406 . S
C816 C209 0.479 . S
C851 C14 0.165 . S
C866 C98 0.305 . S
C916 C138 0.425 . S
C901 C23 0.401 . S
C966 C176 0.367 . S
C951 C31 0.329 . S
C1001 C5 0.390 . S
C1016 C218 0.480 1_554 S
C1051 C49 1.733 . S
C1066 C96 1.888 . S
C1101 C58 1.660 1_545 S
C1116 C136 1.795 . S
C1166 C154 1.511 . S
C1151 C68 1.487 . S
C1216 C216 2.130 . S
C1201 C40 1.939 . S
C1251 C13 1.733 . S
C1266 C85 1.898 . S
C1316 C125 1.794 . S
C1301 C22 1.659 . S
C1366 C175 1.511 . S
C1351 C32 1.484 . S
C1401 C4 1.939 . S
C1416 C205 2.131 . S
