# Generated by pormake.
# Topology pyr, (3,6)-cn, num edge types: 1
# Building blocks:
#     Node 0, Type 0, BuildingBlock: ESEHIV_clean_linker_0, # of connection points: 3
#     Node 1, Type 0, BuildingBlock: ESEHIV_clean_linker_0, # of connection points: 3
#     Node 2, Type 0, BuildingBlock: ESEHIV_clean_linker_0, # of connection points: 3
#     Node 3, Type 0, BuildingBlock: ESEHIV_clean_linker_0, # of connection points: 3
#     Node 4, Type 0, BuildingBlock: ESEHIV_clean_linker_0, # of connection points: 3
#     Node 5, Type 0, BuildingBlock: ESEHIV_clean_linker_0, # of connection points: 3
#     Node 6, Type 0, BuildingBlock: ESEHIV_clean_linker_0, # of connection points: 3
#     Node 7, Type 0, BuildingBlock: ESEHIV_clean_linker_0, # of connection points: 3
#     Node 8, Type 1, BuildingBlock: GEDQOX_clean_sbu_0, # of connection points: 6
#     Node 9, Type 1, BuildingBlock: GEDQOX_clean_sbu_0, # of connection points: 6
#     Node 10, Type 1, BuildingBlock: GEDQOX_clean_sbu_0, # of connection points: 6
#     Node 11, Type 1, BuildingBlock: GEDQOX_clean_sbu_0, # of connection points: 6
#     Edge 12, Type (0, 1), BuildingBlock: OJICUG_clean_linker_0, # of connection points: 2
#     Edge 13, Type (0, 1), BuildingBlock: OJICUG_clean_linker_0, # of connection points: 2
#     Edge 14, Type (0, 1), BuildingBlock: OJICUG_clean_linker_0, # of connection points: 2
#     Edge 15, Type (0, 1), BuildingBlock: OJICUG_clean_linker_0, # of connection points: 2
#     Edge 16, Type (0, 1), BuildingBlock: OJICUG_clean_linker_0, # of connection points: 2
#     Edge 17, Type (0, 1), BuildingBlock: OJICUG_clean_linker_0, # of connection points: 2
#     Edge 18, Type (0, 1), BuildingBlock: OJICUG_clean_linker_0, # of connection points: 2
#     Edge 19, Type (0, 1), BuildingBlock: OJICUG_clean_linker_0, # of connection points: 2
#     Edge 20, Type (0, 1), BuildingBlock: OJICUG_clean_linker_0, # of connection points: 2
#     Edge 21, Type (0, 1), BuildingBlock: OJICUG_clean_linker_0, # of connection points: 2
#     Edge 22, Type (0, 1), BuildingBlock: OJICUG_clean_linker_0, # of connection points: 2
#     Edge 23, Type (0, 1), BuildingBlock: OJICUG_clean_linker_0, # of connection points: 2
#     Edge 24, Type (0, 1), BuildingBlock: OJICUG_clean_linker_0, # of connection points: 2
#     Edge 25, Type (0, 1), BuildingBlock: OJICUG_clean_linker_0, # of connection points: 2
#     Edge 26, Type (0, 1), BuildingBlock: OJICUG_clean_linker_0, # of connection points: 2
#     Edge 27, Type (0, 1), BuildingBlock: OJICUG_clean_linker_0, # of connection points: 2
#     Edge 28, Type (0, 1), BuildingBlock: OJICUG_clean_linker_0, # of connection points: 2
#     Edge 29, Type (0, 1), BuildingBlock: OJICUG_clean_linker_0, # of connection points: 2
#     Edge 30, Type (0, 1), BuildingBlock: OJICUG_clean_linker_0, # of connection points: 2
#     Edge 31, Type (0, 1), BuildingBlock: OJICUG_clean_linker_0, # of connection points: 2
#     Edge 32, Type (0, 1), BuildingBlock: OJICUG_clean_linker_0, # of connection points: 2
#     Edge 33, Type (0, 1), BuildingBlock: OJICUG_clean_linker_0, # of connection points: 2
#     Edge 34, Type (0, 1), BuildingBlock: OJICUG_clean_linker_0, # of connection points: 2
#     Edge 35, Type (0, 1), BuildingBlock: OJICUG_clean_linker_0, # of connection points: 2
# Relax obj value: 0.213
# Max RMSD: 0.186
# Mean RMSD: 0.079
data_MOF--net-pyr--node1-GEDQOX_clean_sbu_0--node2-ESEHIV_clean_linker_0--edge1-OJICUG_clean_linker_0
_symmetry_space_group_name_H-M    P1
_symmetry_Int_Tables_number       1
_symmetry_cell_setting            triclinic
loop_
_symmetry_equiv_pos_as_xyz
'x, y, z'
_cell_length_a     27.259892
_cell_length_b     27.503698
_cell_length_c     23.415139
_cell_angle_alpha  87.790834
_cell_angle_beta   90.707453
_cell_angle_gamma 82.343047
loop_
_atom_site_label
_atom_site_type_symbol
_atom_site_fract_x
_atom_site_fract_y
_atom_site_fract_z
_atom_type_partial_charge
H0 H 0.14001 0.22826 0.23884 0.0
H1 H 0.26001 0.11011 0.243 0.0
H2 H 0.26164 0.23252 0.12228 0.0
C3 C 0.1755 0.21287 0.22289 0.0
C4 C 0.19736 0.23816 0.17747 0.0
C5 C 0.19737 0.1669 0.24755 0.0
C6 C 0.2429 0.1451 0.22462 0.0
C7 C 0.26696 0.16786 0.17884 0.0
C8 C 0.2432 0.2143 0.15586 0.0
H9 H 0.36077 0.86052 0.82331 0.0
H10 H 0.50604 0.77518 0.83841 0.0
H11 H 0.39163 0.72607 0.73642 0.0
C12 C 0.38631 0.82813 0.81441 0.0
C13 C 0.37112 0.79369 0.77779 0.0
C14 C 0.43492 0.8217 0.83755 0.0
C15 C 0.46792 0.77981 0.82328 0.0
C16 C 0.45192 0.74467 0.78769 0.0
C17 C 0.40346 0.75184 0.76603 0.0
H18 H 0.81089 0.39308 0.9129 0.0
H19 H 0.8349 0.50194 0.7818 0.0
H20 H 0.71578 0.4157 0.76395 0.0
C21 C 0.80082 0.41185 0.87203 0.0
C22 C 0.75933 0.40081 0.84148 0.0
C23 C 0.82827 0.44848 0.85105 0.0
C24 C 0.81412 0.47372 0.79843 0.0
C25 C 0.7739 0.46112 0.76664 0.0
C26 C 0.74695 0.42502 0.7886 0.0
H27 H 0.76024 0.97537 0.40508 0.0
H28 H 0.8877 0.90282 0.31984 0.0
H29 H 0.74622 0.85427 0.29938 0.0
C30 C 0.77667 0.94889 0.37543 0.0
C31 C 0.74705 0.91641 0.35206 0.0
C32 C 0.82773 0.94487 0.36369 0.0
C33 C 0.84819 0.90844 0.32686 0.0
C34 C 0.81868 0.87624 0.3027 0.0
C35 C 0.76811 0.88158 0.31427 0.0
H36 H 0.84133 0.96198 0.84951 0.0
H37 H 0.96277 0.84516 0.85479 0.0
H38 H 0.84116 0.84018 0.97121 0.0
C39 C 0.85893 0.92729 0.86815 0.0
C40 C 0.83522 0.90453 0.91418 0.0
C41 C 0.90472 0.90593 0.84539 0.0
C42 C 0.92709 0.86026 0.87046 0.0
C43 C 0.90546 0.83487 0.91603 0.0
C44 C 0.85942 0.8584 0.93748 0.0
H45 H 0.60362 0.29344 0.25721 0.0
H46 H 0.75137 0.215 0.2495 0.0
H47 H 0.72358 0.34546 0.34565 0.0
C48 C 0.64283 0.29014 0.26746 0.0
C49 C 0.66072 0.32541 0.30119 0.0
C50 C 0.67549 0.24996 0.24837 0.0
C51 C 0.72603 0.24558 0.26407 0.0
C52 C 0.74396 0.28016 0.29879 0.0
C53 C 0.71095 0.31996 0.31638 0.0
H54 H 0.28207 0.69205 0.1915 0.0
H55 H 0.27284 0.57003 0.31114 0.0
H56 H 0.37756 0.67086 0.33981 0.0
C57 C 0.29429 0.6713 0.23059 0.0
C58 C 0.3322 0.68627 0.26391 0.0
C59 C 0.272 0.62978 0.24749 0.0
C60 C 0.28932 0.60227 0.29777 0.0
C61 C 0.32684 0.61781 0.33176 0.0
C62 C 0.34767 0.65973 0.31446 0.0
H63 H 0.21229 0.17218 0.77028 0.0
H64 H 0.3388 0.09922 0.68368 0.0
H65 H 0.35432 0.2198 0.7896 0.0
C66 C 0.25172 0.16638 0.76284 0.0
C67 C 0.28165 0.19827 0.78688 0.0
C68 C 0.27171 0.12996 0.72572 0.0
C69 C 0.32269 0.12573 0.71348 0.0
C70 C 0.35269 0.15793 0.73669 0.0
C71 C 0.33212 0.19273 0.77478 0.0
Nd72 Nd 0.06938 0.99027 0.5292 0.0
Nd73 Nd 1.02882 0.08465 0.56194 0.0
C74 C 0.09253 0.89545 0.5161 0.0
C75 C 0.11855 0.8613 0.55962 0.0
C76 C 0.15605 0.82488 0.54338 0.0
C77 C 0.19265 0.80484 0.5831 0.0
C78 C 0.19261 0.82171 0.63922 0.0
C79 C 0.15191 0.8541 0.65671 0.0
C80 C 0.11523 0.87368 0.61725 0.0
C81 C 0.13468 1.03277 0.59547 0.0
C82 C 1.00268 0.9989 0.64901 0.0
C83 C 1.00521 0.1797 0.57385 0.0
C84 C 0.98327 0.21462 0.5283 0.0
C85 C 0.99701 0.20652 0.47137 0.0
C86 C 0.96556 0.2254 0.42624 0.0
C87 C 0.92028 0.25339 0.4373 0.0
C88 C 0.90889 0.26622 0.49357 0.0
C89 C 0.9402 0.2467 0.53899 0.0
C90 C 0.9639 0.04157 0.49582 0.0
C91 C 0.0966 0.07558 0.44274 0.0
O92 O 1.04778 0.91509 0.52848 0.0
O93 O 0.11935 0.92789 0.49609 0.0
O94 O 0.14671 1.00916 0.55014 0.0
O95 O 0.08948 1.03323 0.60598 0.0
O96 O 1.01674 0.97229 0.60448 0.0
O97 O 1.01059 0.04542 0.64776 0.0
O98 O 0.05082 0.1595 0.56667 0.0
O99 O 0.9765 0.14759 0.58997 0.0
O100 O 0.95183 0.06449 0.54162 0.0
O101 O 1.00898 0.04179 0.48513 0.0
O102 O 0.08253 0.1021 0.48734 0.0
O103 O 0.08792 1.02935 0.44356 0.0
H104 H 0.15948 0.8151 0.49909 0.0
H105 H 0.22293 0.77887 0.56872 0.0
H106 H 0.15063 0.86807 0.69935 0.0
H107 H 0.08707 0.90215 0.63086 0.0
H108 H 1.02965 0.1818 0.46164 0.0
H109 H 0.97479 0.21498 0.38311 0.0
H110 H 0.8737 0.28747 0.5028 0.0
H111 H 0.92847 0.25291 0.58245 0.0
Nd112 Nd 0.5555 1.0076 0.09086 0.0
Nd113 Nd 0.54687 0.06469 1.00206 0.0
C114 C 0.56254 0.93147 0.16484 0.0
C115 C 0.52738 0.89768 0.18288 0.0
C116 C 0.53937 0.84721 0.17498 0.0
C117 C 0.50474 0.81511 0.18632 0.0
C118 C 0.45761 0.83285 0.20636 0.0
C119 C 0.44598 0.8832 0.2156 0.0
C120 C 0.4804 0.91542 0.20358 0.0
C121 C 0.46649 0.0726 0.10292 0.0
C122 C 0.50185 0.96978 0.9796 0.0
C123 C 0.53923 0.14192 0.92959 0.0
C124 C 0.57137 0.18022 0.91741 0.0
C125 C 0.55665 0.22833 0.93426 0.0
C126 C 0.58787 0.26432 0.92671 0.0
C127 C 0.63441 0.25316 0.90156 0.0
C128 C 0.64892 0.20506 0.88417 0.0
C129 C 0.6178 0.16895 0.89207 0.0
C130 C 0.63553 0.99926 0.99005 0.0
C131 C 0.60202 0.10191 0.11205 0.0
O132 O 0.57693 0.9282 0.11213 0.0
O133 O 0.55322 0.97689 0.1798 0.0
O134 O 0.50138 0.06168 0.14092 0.0
O135 O 0.47999 0.05101 0.05701 0.0
O136 O 0.53143 0.956 1.02346 0.0
O137 O 0.49301 1.01664 0.96556 0.0
O138 O 0.51905 0.14269 0.97973 0.0
O139 O 0.55509 0.09739 0.91498 0.0
O140 O 0.60055 1.01011 0.95207 0.0
O141 O 0.62225 1.02117 1.03585 0.0
O142 O 0.57148 0.11594 0.06922 0.0
O143 O 0.61109 0.05495 0.1255 0.0
H144 H 0.57526 0.83274 0.1589 0.0
H145 H 0.51489 0.77633 0.17967 0.0
H146 H 0.40985 0.8978 0.23086 0.0
H147 H 0.46982 0.95425 0.20947 0.0
H148 H 0.52118 0.23797 0.95415 0.0
H149 H 0.57569 0.30082 0.94117 0.0
H150 H 0.6841 0.19541 0.8637 0.0
H151 H 0.63036 0.13219 0.87865 0.0
Nd152 Nd 0.54704 0.49372 0.57816 0.0
Nd153 Nd 0.56126 0.57622 0.51126 0.0
C154 C 0.52298 0.42241 0.64726 0.0
C155 C 0.51147 0.37151 0.64565 0.0
C156 C 0.46788 0.36067 0.61945 0.0
C157 C 0.45512 0.31319 0.62395 0.0
C158 C 0.48571 0.27539 0.6546 0.0
C159 C 0.53072 0.28581 0.67798 0.0
C160 C 0.54331 0.33344 0.67378 0.0
C161 C 0.64518 0.50957 0.58133 0.0
C162 C 0.53561 0.59983 0.63878 0.0
C163 C 0.58418 0.64788 0.44187 0.0
C164 C 0.594 0.69935 0.44331 0.0
C165 C 0.63689 0.71165 0.46972 0.0
C166 C 0.64814 0.75968 0.46509 0.0
C167 C 0.61671 0.7966 0.43409 0.0
C168 C 0.57238 0.7847 0.41047 0.0
C169 C 0.56129 0.73652 0.41482 0.0
C170 C 0.46318 0.56057 0.50922 0.0
C171 C 0.57419 0.46975 0.45146 0.0
O172 O 0.56849 0.42886 0.63645 0.0
O173 O 0.49058 0.45783 0.62539 0.0
O174 O 0.63007 0.46879 0.5677 0.0
O175 O 0.60831 0.54204 0.58612 0.0
O176 O 0.51895 0.55692 0.63764 0.0
O177 O 0.56146 0.61419 0.59589 0.0
O178 O 0.53891 0.64007 0.45174 0.0
O179 O 0.61715 0.61348 0.46476 0.0
O180 O 0.47855 0.60101 0.52365 0.0
O181 O 0.4999 0.52809 0.50329 0.0
O182 O 0.5906 0.51277 0.45276 0.0
O183 O 0.54763 0.45555 0.49373 0.0
H184 H 0.44261 0.38917 0.59733 0.0
H185 H 0.41967 0.30703 0.6063 0.0
H186 H 0.55534 0.25762 0.70144 0.0
H187 H 0.57726 0.34087 0.69422 0.0
H188 H 0.66281 0.6839 0.49211 0.0
H189 H 0.68314 0.76697 0.48293 0.0
H190 H 0.54715 0.81218 0.38672 0.0
H191 H 0.52784 0.72798 0.39421 0.0
Nd192 Nd 1.02012 0.5411 0.09504 0.0
Nd193 Nd 0.08373 0.53266 0.99995 0.0
C194 C 0.95282 0.54346 0.17475 0.0
C195 C 0.9204 0.58724 0.1923 0.0
C196 C 0.90016 0.62286 0.15083 0.0
C197 C 0.88198 0.67018 0.16649 0.0
C198 C 0.88345 0.68281 0.22398 0.0
C199 C 0.90009 0.64596 0.26587 0.0
C200 C 0.91864 0.59864 0.2501 0.0
C201 C 0.10533 0.58178 0.1147 0.0
C202 C 1.00619 0.63799 1.00754 0.0
C203 C 0.15068 0.53026 0.91982 0.0
C204 C 0.18262 0.48643 0.90156 0.0
C205 C 0.20274 0.45027 0.9425 0.0
C206 C 0.22047 0.40305 0.92612 0.0
C207 C 0.21867 0.39106 0.86843 0.0
C208 C 0.20213 0.4284 0.82709 0.0
C209 C 0.18403 0.47563 0.84358 0.0
C210 C 0.99808 0.49256 0.98076 0.0
C211 C 0.09759 0.4357 0.08714 0.0
O212 O 0.94519 0.52851 0.12338 0.0
O213 O 0.99966 0.54439 0.18617 0.0
O214 O 0.06126 0.60361 0.12429 0.0
O215 O 0.10325 0.54096 0.09258 0.0
O216 O 0.98594 0.61512 0.04999 0.0
O217 O 1.04721 0.61561 0.98451 0.0
O218 O 0.15876 0.54465 0.97134 0.0
O219 O 0.10372 0.52986 0.90866 0.0
O220 O 1.04193 0.47031 0.97093 0.0
O221 O 1.00073 0.53337 1.00254 0.0
O222 O 0.11775 0.45849 1.04457 0.0
O223 O 0.05675 0.45818 0.11042 0.0
H224 H 0.90117 0.61521 0.10582 0.0
H225 H 0.86943 0.69749 0.1331 0.0
H226 H 0.90036 0.65409 0.31075 0.0
H227 H 0.93435 0.57185 0.28271 0.0
H228 H 0.20198 0.45745 0.98764 0.0
H229 H 0.23294 0.37534 0.95911 0.0
H230 H 0.20159 0.42074 0.78208 0.0
H231 H 0.1684 0.50284 0.81137 0.0
C232 C 0.15009 0.17073 0.34234 0.0
C233 C 0.17238 0.1426 0.29788 0.0
H234 H 0.11075 0.17271 0.42154 0.0
C235 C 0.16955 0.09152 0.3022 0.0
H236 H 0.15154 0.20989 0.34197 0.0
C237 C 0.14489 0.06997 0.34809 0.0
C238 C 0.12265 0.09829 0.39248 0.0
H239 H 0.18568 0.06807 0.26935 0.0
H240 H 0.14353 1.03079 0.34886 0.0
C241 C 0.12636 0.14912 0.3886 0.0
C242 C 0.48083 0.84618 0.92362 0.0
C243 C 0.45152 0.8598 0.87434 0.0
H244 H 0.51888 0.86995 0.99577 0.0
C245 C 0.43784 0.9102 0.86071 0.0
H246 H 0.49156 0.8078 0.93576 0.0
C247 C 0.45336 0.94597 0.89524 0.0
C248 C 0.48286 0.93227 0.94435 0.0
H249 H 0.41581 0.92209 0.82267 0.0
H250 H 0.44271 0.98435 0.88304 0.0
C251 C 0.49616 0.88192 0.95826 0.0
C252 C 0.76025 0.45542 0.66251 0.0
C253 C 0.75731 0.48463 0.71058 0.0
H254 H 0.72702 0.44118 0.5826 0.0
C255 C 0.72486 0.52882 0.70872 0.0
H256 H 0.78454 0.42082 0.66336 0.0
C257 C 0.69169 0.54054 0.66243 0.0
C258 C 0.69026 0.50779 0.61784 0.0
H259 H 0.72135 0.55146 0.7457 0.0
H260 H 0.66388 0.57242 0.66466 0.0
C261 C 0.72703 0.46691 0.6165 0.0
C262 C 0.8822 0.80186 0.30072 0.0
C263 C 0.84091 0.831 0.27518 0.0
H264 H 0.92828 0.7326 0.30419 0.0
C265 C 0.81621 0.81253 0.22937 0.0
H266 H 0.90174 0.81468 0.33653 0.0
C267 C 0.83032 0.76474 0.21215 0.0
C268 C 0.86989 0.73458 0.23989 0.0
H269 H 0.78442 0.83428 0.20863 0.0
H270 H 0.80892 0.75089 0.17863 0.0
C271 C 0.89665 0.75428 0.28309 0.0
C272 C 0.35457 0.12049 0.19616 0.0
C273 C 0.31774 0.14357 0.15734 0.0
H274 H 0.42788 0.08171 0.21028 0.0
C275 C 0.33053 0.14232 0.09862 0.0
H276 H 0.34766 0.12049 0.2416 0.0
C277 C 0.3774 0.11864 0.08006 0.0
C278 C 0.4142 0.0961 0.11945 0.0
H279 H 0.30392 0.15915 0.06663 0.0
H280 H 0.38507 0.11879 1.0348 0.0
C281 C 0.40138 0.09801 0.17786 0.0
C282 C 0.32716 0.80919 0.68478 0.0
C283 C 0.32458 0.80357 0.74435 0.0
H284 H 0.28781 0.8195 0.60525 0.0
C285 C 0.27851 0.80271 0.76994 0.0
H286 H 0.36254 0.80983 0.66433 0.0
C287 C 0.23539 0.807 0.7359 0.0
C288 C 0.23796 0.81241 0.67592 0.0
H289 H 0.27605 0.79764 0.81587 0.0
H290 H 0.20017 0.80584 0.75644 0.0
C291 C 0.2844 0.81378 0.65097 0.0
C292 C 0.91015 0.42258 0.90064 0.0
C293 C 0.87157 0.45995 0.88459 0.0
H294 H 0.98068 0.40379 0.94332 0.0
C295 C 0.87402 0.50783 0.90218 0.0
H296 H 0.90906 0.38534 0.88766 0.0
C297 C 0.91429 0.5181 0.93532 0.0
C298 C 0.95342 0.48091 0.95029 0.0
H299 H 0.84452 0.53715 0.8908 0.0
H300 H 0.91534 0.55542 0.94803 0.0
C301 C 0.95097 0.43308 0.93256 0.0
C302 C 0.66123 0.89571 0.34174 0.0
C303 C 0.69906 0.90835 0.37733 0.0
H304 H 0.60551 0.8491 0.33169 0.0
C305 C 0.69799 0.89654 0.43616 0.0
H306 H 0.66078 0.90507 0.29633 0.0
C307 C 0.66583 0.86471 0.45685 0.0
C308 C 0.63465 0.84417 0.41889 0.0
H309 H 0.7263 0.90623 0.46486 0.0
H310 H 0.66923 0.85215 0.50131 0.0
C311 C 0.62953 0.86338 0.36221 0.0
C312 C 0.18142 0.30881 0.09866 0.0
C313 C 0.17193 0.28923 0.1538 0.0
H314 H 0.1666 0.36823 1.03508 0.0
C315 C 0.137 0.31955 0.18612 0.0
H316 H 0.207 0.28801 0.07092 0.0
C317 C 0.11255 0.36561 0.16444 0.0
C318 C 0.1223 0.3849 0.10966 0.0
H319 H 0.12859 0.30853 0.22929 0.0
H320 H 0.08652 0.38674 0.19151 0.0
C321 C 0.15759 0.35544 0.07746 0.0
C322 C 0.67611 0.37521 0.85903 0.0
C323 C 0.72792 0.36443 0.8636 0.0
H324 H 0.60633 0.3486 0.86612 0.0
C325 C 0.74889 0.31771 0.88475 0.0
H326 H 0.65884 0.41114 0.84354 0.0
C327 C 0.71857 0.28176 0.89844 0.0
C328 C 0.66677 0.29199 0.89141 0.0
H329 H 0.7887 0.30838 0.88858 0.0
H330 H 0.73573 0.24578 0.91382 0.0
C331 C 0.64595 0.33944 0.87251 0.0
C332 C 0.85157 0.98451 0.45311 0.0
C333 C 0.86098 0.97358 0.3957 0.0
H334 H 0.8766 1.01492 0.52914 0.0
C335 C 0.90437 0.98701 0.37089 0.0
H336 H 0.81955 0.9737 0.47455 0.0
C337 C 0.93814 1.00912 0.40325 0.0
C338 C 0.92853 1.01937 0.46053 0.0
H339 H 0.9126 0.97999 0.32662 0.0
H340 H 0.97162 1.01832 0.38348 0.0
C341 C 0.88465 1.00765 0.48484 0.0
C342 C 0.52179 0.71415 0.72567 0.0
C343 C 0.48562 0.70367 0.76466 0.0
H344 H 0.56594 0.68943 0.65482 0.0
C345 C 0.47212 0.65605 0.76797 0.0
H346 H 0.53216 0.7508 0.72162 0.0
C347 C 0.49079 0.62105 0.72927 0.0
C348 C 0.52319 0.63311 0.68638 0.0
H349 H 0.44383 0.64733 0.79732 0.0
H350 H 0.47728 0.58574 0.73067 0.0
C351 C 0.54041 0.67917 0.6868 0.0
C352 C 0.95396 0.90243 0.75173 0.0
C353 C 0.9294 0.93052 0.79492 0.0
H354 H 0.99497 0.90084 0.67355 0.0
C355 C 0.92945 0.98201 0.78908 0.0
H356 H 0.95477 0.86294 0.7532 0.0
C357 C 0.95335 1.00404 0.74291 0.0
C358 C 0.97767 0.97577 0.69976 0.0
H359 H 0.91163 1.00553 0.8209 0.0
H360 H 0.9524 0.04355 0.74088 0.0
C361 C 0.97713 0.92446 0.70529 0.0
C362 C 0.62378 0.22538 0.16742 0.0
C363 C 0.65698 0.2118 0.21337 0.0
H364 H 0.58122 0.20159 0.09907 0.0
C365 C 0.67282 0.16149 0.22523 0.0
H366 H 0.6113 0.26374 0.15674 0.0
C367 C 0.65552 0.12565 0.19218 0.0
C368 C 0.62227 0.13932 0.14625 0.0
H369 H 0.69807 0.14976 0.26069 0.0
H370 H 0.66798 0.08728 0.20284 0.0
C371 C 0.60684 0.18964 0.13413 0.0
C372 C 0.38106 0.54825 0.38142 0.0
C373 C 0.34723 0.59121 0.38487 0.0
H374 H 0.44453 0.50373 0.41959 0.0
C375 C 0.34487 0.61652 0.43597 0.0
H376 H 0.38407 0.52859 0.34213 0.0
C377 C 0.37966 0.60278 0.47996 0.0
C378 C 0.41743 0.56342 0.47367 0.0
H379 H 0.31942 0.65005 0.43938 0.0
H380 H 0.37981 0.62577 0.51649 0.0
C381 C 0.41585 0.53425 0.42572 0.0
C382 C 0.28511 0.26122 0.8609 0.0
C383 C 0.25993 0.24335 0.81505 0.0
H384 H 0.29313 0.32223 0.91239 0.0
C385 C 0.21863 0.27294 0.79015 0.0
H386 H 0.31694 0.23911 0.88113 0.0
C387 C 0.2046 0.32037 0.80848 0.0
C388 C 0.2318 0.33946 0.85175 0.0
H389 H 0.19873 0.26058 0.75433 0.0
H390 H 0.17295 0.34242 0.78787 0.0
C391 C 0.27141 0.30885 0.87884 0.0
C392 C 0.74713 0.95067 0.89672 0.0
C393 C 0.78433 0.92851 0.93564 0.0
H394 H 0.6735 0.98862 0.88253 0.0
C395 C 0.77186 0.93047 0.99441 0.0
H396 H 0.75383 0.95009 0.85125 0.0
C397 C 0.72493 0.95403 1.01293 0.0
C398 C 0.68777 0.9757 0.97346 0.0
H399 H 0.79876 0.91435 1.02645 0.0
H400 H 0.71752 0.95452 0.05824 0.0
C401 C 0.70027 0.97301 0.915 0.0
C402 C 0.81676 0.22525 0.34223 0.0
C403 C 0.7952 0.27247 0.32324 0.0
H404 H 0.87403 0.18266 0.39308 0.0
C405 C 0.81971 0.31298 0.3358 0.0
H406 H 0.79887 0.19327 0.33412 0.0
C407 C 0.86183 0.30693 0.3713 0.0
C408 C 0.88112 0.26011 0.39293 0.0
H409 H 0.8049 0.34976 0.32062 0.0
H410 H 0.87835 0.33884 0.38333 0.0
C411 C 0.85955 0.21915 0.37645 0.0
C412 C 0.22957 0.56921 0.19329 0.0
C413 C 0.22975 0.61681 0.21302 0.0
H414 H 0.19062 0.52105 0.14506 0.0
C415 C 0.18961 0.65294 0.19834 0.0
H416 H 0.26022 0.54081 0.20358 0.0
C417 C 0.14976 0.64163 0.16549 0.0
C418 C 0.14948 0.59415 0.14566 0.0
H419 H 0.1887 0.6899 0.21309 0.0
H420 H 0.11895 0.67005 0.15585 0.0
C421 C 0.19001 0.55811 0.15938 0.0
C422 C 0.43896 0.17738 0.74673 0.0
C423 C 0.40068 0.16561 0.71121 0.0
H424 H 0.49589 0.2226 0.75677 0.0
C425 C 0.40161 0.17778 0.65246 0.0
H426 H 0.43944 0.1678 0.79208 0.0
C427 C 0.4344 0.20898 0.6318 0.0
C428 C 0.46639 0.2285 0.66971 0.0
H429 H 0.37288 0.16882 0.62385 0.0
H430 H 0.43103 0.22181 0.58743 0.0
C431 C 0.47133 0.20903 0.72629 0.0
C432 C 0.9666 0.75386 0.90806 0.0
C433 C 0.93128 0.78404 0.94004 0.0
H434 H 1.01755 0.68692 0.90316 0.0
C435 C 0.92168 0.76448 0.99518 0.0
H436 H 0.97517 0.76487 0.86494 0.0
C437 C 0.94571 0.71802 1.01664 0.0
C438 C 0.98133 0.68868 0.98475 0.0
H439 H 0.89583 0.78517 1.02271 0.0
H440 H 0.93657 0.70526 0.05898 0.0
C441 C 0.99125 0.70795 0.93001 0.0
C442 C 0.36529 0.76442 0.2842 0.0
C443 C 0.35808 0.72806 0.24557 0.0
H444 H 0.4024 0.82624 0.30187 0.0
C445 C 0.38081 0.7286 0.19215 0.0
H446 H 0.34811 0.76467 0.3257 0.0
C447 C 0.41234 0.76341 0.1788 0.0
C448 C 0.42106 0.79862 0.21837 0.0
H449 H 0.37613 0.70067 0.16191 0.0
H450 H 0.43062 0.76228 0.13797 0.0
C451 C 0.39624 0.79959 0.27058 0.0
C452 C 0.24718 0.09009 0.63676 0.0
C453 C 0.23809 0.10135 0.69414 0.0
H454 H 0.22177 0.05919 0.56124 0.0
C455 C 0.19476 0.08817 0.71937 0.0
H456 H 0.27911 0.10071 0.61496 0.0
C457 C 0.1608 0.06591 0.68748 0.0
C458 C 0.17017 0.05523 0.63028 0.0
H459 H 0.18676 0.09544 0.76364 0.0
H460 H 0.12739 0.05688 0.70757 0.0
C461 C 0.21394 0.06676 0.60552 0.0
C462 C 0.59212 0.35428 0.36647 0.0
C463 C 0.6279 0.36553 0.32734 0.0
H464 H 0.54702 0.37855 0.43677 0.0
C465 C 0.64032 0.41356 0.32387 0.0
H466 H 0.58243 0.31737 0.3705 0.0
C467 C 0.62063 0.44847 0.36212 0.0
C468 C 0.58819 0.43597 0.40474 0.0
H469 H 0.66806 0.423 0.29417 0.0
H470 H 0.63307 0.48428 0.3603 0.0
C471 C 0.57244 0.38921 0.4049 0.0
loop_
_geom_bond_atom_site_label_1
_geom_bond_atom_site_label_2
_geom_bond_distance
_geom_bond_site_symmetry_2
_ccdc_geom_bond_type
H0 C3 0.931 . S
H1 C6 0.928 . S
H2 C8 0.930 . S
C3 H0 0.931 . S
C3 C4 1.413 . S
C3 C5 1.360 . S
C4 C3 1.413 . S
C4 C8 1.429 . S
C5 C3 1.360 . S
C5 C6 1.372 . S
C6 H1 0.928 . S
C6 C5 1.372 . S
C6 C7 1.404 . S
C7 C6 1.404 . S
C7 C8 1.391 . S
C8 H2 0.930 . S
C8 C4 1.429 . S
C8 C7 1.391 . S
H9 C12 0.931 . S
H10 C15 0.928 . S
H11 C17 0.930 . S
C12 H9 0.931 . S
C12 C13 1.413 . S
C12 C14 1.360 . S
C13 C12 1.413 . S
C13 C17 1.429 . S
C14 C12 1.360 . S
C14 C15 1.372 . S
C15 H10 0.928 . S
C15 C14 1.372 . S
C15 C16 1.404 . S
C16 C15 1.404 . S
C16 C17 1.391 . S
C17 H11 0.930 . S
C17 C13 1.429 . S
C17 C16 1.391 . S
H18 C21 0.931 . S
H19 C24 0.928 . S
H20 C26 0.930 . S
C21 H18 0.931 . S
C21 C22 1.413 . S
C21 C23 1.360 . S
C22 C21 1.413 . S
C22 C26 1.429 . S
C23 C21 1.360 . S
C23 C24 1.372 . S
C24 H19 0.928 . S
C24 C23 1.372 . S
C24 C25 1.404 . S
C25 C24 1.404 . S
C25 C26 1.391 . S
C26 H20 0.930 . S
C26 C22 1.429 . S
C26 C25 1.391 . S
H27 C30 0.931 . S
H28 C33 0.928 . S
H29 C35 0.930 . S
C30 H27 0.931 . S
C30 C31 1.413 . S
C30 C32 1.360 . S
C31 C30 1.413 . S
C31 C35 1.429 . S
C32 C30 1.360 . S
C32 C33 1.372 . S
C33 H28 0.928 . S
C33 C32 1.372 . S
C33 C34 1.404 . S
C34 C33 1.404 . S
C34 C35 1.391 . S
C35 H29 0.930 . S
C35 C31 1.429 . S
C35 C34 1.391 . S
H36 C39 0.931 . S
H37 C42 0.928 . S
H38 C44 0.930 . S
C39 H36 0.931 . S
C39 C40 1.413 . S
C39 C41 1.360 . S
C40 C39 1.413 . S
C40 C44 1.429 . S
C41 C39 1.360 . S
C41 C42 1.372 . S
C42 H37 0.928 . S
C42 C41 1.372 . S
C42 C43 1.404 . S
C43 C42 1.404 . S
C43 C44 1.391 . S
C44 H38 0.930 . S
C44 C40 1.429 . S
C44 C43 1.391 . S
H45 C48 0.931 . S
H46 C51 0.928 . S
H47 C53 0.930 . S
C48 H45 0.931 . S
C48 C49 1.413 . S
C48 C50 1.360 . S
C49 C48 1.413 . S
C49 C53 1.429 . S
C50 C48 1.360 . S
C50 C51 1.372 . S
C51 H46 0.928 . S
C51 C50 1.372 . S
C51 C52 1.404 . S
C52 C51 1.404 . S
C52 C53 1.391 . S
C53 H47 0.930 . S
C53 C49 1.429 . S
C53 C52 1.391 . S
H54 C57 0.931 . S
H55 C60 0.928 . S
H56 C62 0.930 . S
C57 H54 0.931 . S
C57 C58 1.413 . S
C57 C59 1.360 . S
C58 C57 1.413 . S
C58 C62 1.429 . S
C59 C57 1.360 . S
C59 C60 1.372 . S
C60 H55 0.928 . S
C60 C59 1.372 . S
C60 C61 1.404 . S
C61 C60 1.404 . S
C61 C62 1.391 . S
C62 H56 0.930 . S
C62 C58 1.429 . S
C62 C61 1.391 . S
H63 C66 0.931 . S
H64 C69 0.928 . S
H65 C71 0.930 . S
C66 H63 0.931 . S
C66 C67 1.413 . S
C66 C68 1.360 . S
C67 C66 1.413 . S
C67 C71 1.429 . S
C68 C66 1.360 . S
C68 C69 1.372 . S
C69 H64 0.928 . S
C69 C68 1.372 . S
C69 C70 1.404 . S
C70 C69 1.404 . S
C70 C71 1.391 . S
C71 H65 0.930 . S
C71 C67 1.429 . S
C71 C70 1.391 . S
Nd72 C74 2.836 . S
Nd72 O92 2.500 . S
Nd72 O93 2.492 . S
Nd72 O94 2.487 1_565 S
Nd72 O95 2.682 1_565 S
Nd72 O96 2.410 . S
Nd72 O101 2.414 1_455 S
Nd72 O103 2.424 1_565 S
Nd73 C83 2.836 . S
Nd73 O95 2.414 1_655 S
Nd73 O97 2.424 1_545 S
Nd73 O98 2.500 . S
Nd73 O99 2.492 . S
Nd73 O100 2.487 1_545 S
Nd73 O101 2.682 1_545 S
Nd73 O102 2.410 . S
C74 Nd72 2.836 . S
C74 C75 1.498 . S
C74 O92 1.258 . S
C74 O93 1.239 . S
C75 C74 1.498 . S
C75 C76 1.366 . S
C75 C80 1.407 . S
C76 C75 1.366 . S
C76 C77 1.392 . S
C76 H104 0.930 . S
C77 C76 1.392 . S
C77 C78 1.398 . S
C77 H105 0.929 . S
C78 C77 1.398 . S
C78 C79 1.352 . S
C79 C78 1.352 . S
C79 C80 1.384 . S
C79 H106 0.930 . S
C80 C75 1.407 . S
C80 C79 1.384 . S
C80 H107 0.929 . S
C81 O94 1.241 . S
C81 O95 1.273 . S
C82 O96 1.251 1_655 S
C82 O97 1.268 . S
C83 Nd73 2.836 . S
C83 C84 1.498 . S
C83 O98 1.258 . S
C83 O99 1.239 . S
C84 C83 1.498 . S
C84 C85 1.366 . S
C84 C89 1.407 . S
C85 C84 1.366 . S
C85 C86 1.392 . S
C85 H108 0.930 . S
C86 C85 1.392 . S
C86 C87 1.398 . S
C86 H109 0.929 . S
C87 C86 1.398 . S
C87 C88 1.352 . S
C88 C87 1.352 . S
C88 C89 1.384 . S
C88 H110 0.930 . S
C89 C84 1.407 . S
C89 C88 1.384 . S
C89 H111 0.929 . S
C90 O100 1.241 . S
C90 O101 1.273 . S
C91 O102 1.251 1_455 S
C91 O103 1.268 . S
O92 Nd72 2.500 . S
O92 C74 1.258 . S
O93 Nd72 2.492 . S
O93 C74 1.239 . S
O94 Nd72 2.487 1_545 S
O94 C81 1.241 . S
O95 Nd72 2.682 1_545 S
O95 Nd73 2.414 1_455 S
O95 C81 1.273 . S
O96 Nd72 2.410 . S
O96 C82 1.251 1_455 S
O97 Nd73 2.424 1_565 S
O97 C82 1.268 . S
O98 Nd73 2.500 . S
O98 C83 1.258 . S
O99 Nd73 2.492 . S
O99 C83 1.239 . S
O100 Nd73 2.487 1_565 S
O100 C90 1.241 . S
O101 Nd72 2.414 1_655 S
O101 Nd73 2.682 1_565 S
O101 C90 1.273 . S
O102 Nd73 2.410 . S
O102 C91 1.251 1_655 S
O103 Nd72 2.424 1_545 S
O103 C91 1.268 . S
H104 C76 0.930 . S
H105 C77 0.929 . S
H106 C79 0.930 . S
H107 C80 0.929 . S
H108 C85 0.930 . S
H109 C86 0.929 . S
H110 C88 0.930 . S
H111 C89 0.929 . S
Nd112 C114 2.836 . S
Nd112 O132 2.500 . S
Nd112 O133 2.492 . S
Nd112 O134 2.487 1_565 S
Nd112 O135 2.682 1_565 S
Nd112 O136 2.410 1_554 S
Nd112 O141 2.414 1_554 S
Nd112 O143 2.424 1_565 S
Nd113 C123 2.836 . S
Nd113 O135 2.414 1_556 S
Nd113 O137 2.424 1_545 S
Nd113 O138 2.500 . S
Nd113 O139 2.492 . S
Nd113 O140 2.487 1_545 S
Nd113 O141 2.682 1_545 S
Nd113 O142 2.410 1_556 S
C114 Nd112 2.836 . S
C114 C115 1.498 . S
C114 O132 1.258 . S
C114 O133 1.239 . S
C115 C114 1.498 . S
C115 C116 1.366 . S
C115 C120 1.407 . S
C116 C115 1.366 . S
C116 C117 1.392 . S
C116 H144 0.930 . S
C117 C116 1.392 . S
C117 C118 1.398 . S
C117 H145 0.929 . S
C118 C117 1.398 . S
C118 C119 1.352 . S
C119 C118 1.352 . S
C119 C120 1.384 . S
C119 H146 0.930 . S
C120 C115 1.407 . S
C120 C119 1.384 . S
C120 H147 0.929 . S
C121 O134 1.241 . S
C121 O135 1.273 . S
C122 O136 1.251 . S
C122 O137 1.268 . S
C123 Nd113 2.836 . S
C123 C124 1.498 . S
C123 O138 1.258 . S
C123 O139 1.239 . S
C124 C123 1.498 . S
C124 C125 1.366 . S
C124 C129 1.407 . S
C125 C124 1.366 . S
C125 C126 1.392 . S
C125 H148 0.930 . S
C126 C125 1.392 . S
C126 C127 1.398 . S
C126 H149 0.929 . S
C127 C126 1.398 . S
C127 C128 1.352 . S
C128 C127 1.352 . S
C128 C129 1.384 . S
C128 H150 0.930 . S
C129 C124 1.407 . S
C129 C128 1.384 . S
C129 H151 0.929 . S
C130 O140 1.241 . S
C130 O141 1.273 . S
C131 O142 1.251 . S
C131 O143 1.268 . S
O132 Nd112 2.500 . S
O132 C114 1.258 . S
O133 Nd112 2.492 . S
O133 C114 1.239 . S
O134 Nd112 2.487 1_545 S
O134 C121 1.241 . S
O135 Nd112 2.682 1_545 S
O135 Nd113 2.414 1_554 S
O135 C121 1.273 . S
O136 Nd112 2.410 1_556 S
O136 C122 1.251 . S
O137 Nd113 2.424 1_565 S
O137 C122 1.268 . S
O138 Nd113 2.500 . S
O138 C123 1.258 . S
O139 Nd113 2.492 . S
O139 C123 1.239 . S
O140 Nd113 2.487 1_565 S
O140 C130 1.241 . S
O141 Nd112 2.414 1_556 S
O141 Nd113 2.682 1_565 S
O141 C130 1.273 . S
O142 Nd113 2.410 1_554 S
O142 C131 1.251 . S
O143 Nd112 2.424 1_545 S
O143 C131 1.268 . S
H144 C116 0.930 . S
H145 C117 0.929 . S
H146 C119 0.930 . S
H147 C120 0.929 . S
H148 C125 0.930 . S
H149 C126 0.929 . S
H150 C128 0.930 . S
H151 C129 0.929 . S
Nd152 C154 2.836 . S
Nd152 O172 2.500 . S
Nd152 O173 2.492 . S
Nd152 O174 2.487 . S
Nd152 O175 2.682 . S
Nd152 O176 2.410 . S
Nd152 O181 2.414 . S
Nd152 O183 2.424 . S
Nd153 C163 2.836 . S
Nd153 O175 2.414 . S
Nd153 O177 2.424 . S
Nd153 O178 2.500 . S
Nd153 O179 2.492 . S
Nd153 O180 2.487 . S
Nd153 O181 2.682 . S
Nd153 O182 2.410 . S
C154 Nd152 2.836 . S
C154 C155 1.498 . S
C154 O172 1.258 . S
C154 O173 1.239 . S
C155 C154 1.498 . S
C155 C156 1.366 . S
C155 C160 1.407 . S
C156 C155 1.366 . S
C156 C157 1.392 . S
C156 H184 0.930 . S
C157 C156 1.392 . S
C157 C158 1.398 . S
C157 H185 0.929 . S
C158 C157 1.398 . S
C158 C159 1.352 . S
C159 C158 1.352 . S
C159 C160 1.384 . S
C159 H186 0.930 . S
C160 C155 1.407 . S
C160 C159 1.384 . S
C160 H187 0.929 . S
C161 O174 1.241 . S
C161 O175 1.273 . S
C162 O176 1.251 . S
C162 O177 1.268 . S
C163 Nd153 2.836 . S
C163 C164 1.498 . S
C163 O178 1.258 . S
C163 O179 1.239 . S
C164 C163 1.498 . S
C164 C165 1.366 . S
C164 C169 1.407 . S
C165 C164 1.366 . S
C165 C166 1.392 . S
C165 H188 0.930 . S
C166 C165 1.392 . S
C166 C167 1.398 . S
C166 H189 0.929 . S
C167 C166 1.398 . S
C167 C168 1.352 . S
C168 C167 1.352 . S
C168 C169 1.384 . S
C168 H190 0.930 . S
C169 C164 1.407 . S
C169 C168 1.384 . S
C169 H191 0.929 . S
C170 O180 1.241 . S
C170 O181 1.273 . S
C171 O182 1.251 . S
C171 O183 1.268 . S
O172 Nd152 2.500 . S
O172 C154 1.258 . S
O173 Nd152 2.492 . S
O173 C154 1.239 . S
O174 Nd152 2.487 . S
O174 C161 1.241 . S
O175 Nd152 2.682 . S
O175 Nd153 2.414 . S
O175 C161 1.273 . S
O176 Nd152 2.410 . S
O176 C162 1.251 . S
O177 Nd153 2.424 . S
O177 C162 1.268 . S
O178 Nd153 2.500 . S
O178 C163 1.258 . S
O179 Nd153 2.492 . S
O179 C163 1.239 . S
O180 Nd153 2.487 . S
O180 C170 1.241 . S
O181 Nd152 2.414 . S
O181 Nd153 2.682 . S
O181 C170 1.273 . S
O182 Nd153 2.410 . S
O182 C171 1.251 . S
O183 Nd152 2.424 . S
O183 C171 1.268 . S
H184 C156 0.930 . S
H185 C157 0.929 . S
H186 C159 0.930 . S
H187 C160 0.929 . S
H188 C165 0.930 . S
H189 C166 0.929 . S
H190 C168 0.930 . S
H191 C169 0.929 . S
Nd192 C194 2.836 . S
Nd192 O212 2.500 . S
Nd192 O213 2.492 . S
Nd192 O214 2.487 1_655 S
Nd192 O215 2.682 1_655 S
Nd192 O216 2.410 . S
Nd192 O221 2.414 1_554 S
Nd192 O223 2.424 1_655 S
Nd193 C203 2.836 . S
Nd193 O215 2.414 1_556 S
Nd193 O217 2.424 1_455 S
Nd193 O218 2.500 . S
Nd193 O219 2.492 . S
Nd193 O220 2.487 1_455 S
Nd193 O221 2.682 1_455 S
Nd193 O222 2.410 . S
C194 Nd192 2.836 . S
C194 C195 1.498 . S
C194 O212 1.258 . S
C194 O213 1.239 . S
C195 C194 1.498 . S
C195 C196 1.366 . S
C195 C200 1.407 . S
C196 C195 1.366 . S
C196 C197 1.392 . S
C196 H224 0.930 . S
C197 C196 1.392 . S
C197 C198 1.398 . S
C197 H225 0.929 . S
C198 C197 1.398 . S
C198 C199 1.352 . S
C199 C198 1.352 . S
C199 C200 1.384 . S
C199 H226 0.930 . S
C200 C195 1.407 . S
C200 C199 1.384 . S
C200 H227 0.929 . S
C201 O214 1.241 . S
C201 O215 1.273 . S
C202 O216 1.251 1_556 S
C202 O217 1.268 . S
C203 Nd193 2.836 . S
C203 C204 1.498 . S
C203 O218 1.258 . S
C203 O219 1.239 . S
C204 C203 1.498 . S
C204 C205 1.366 . S
C204 C209 1.407 . S
C205 C204 1.366 . S
C205 C206 1.392 . S
C205 H228 0.930 . S
C206 C205 1.392 . S
C206 C207 1.398 . S
C206 H229 0.929 . S
C207 C206 1.398 . S
C207 C208 1.352 . S
C208 C207 1.352 . S
C208 C209 1.384 . S
C208 H230 0.930 . S
C209 C204 1.407 . S
C209 C208 1.384 . S
C209 H231 0.929 . S
C210 O220 1.241 . S
C210 O221 1.273 . S
C211 O222 1.251 1_554 S
C211 O223 1.268 . S
O212 Nd192 2.500 . S
O212 C194 1.258 . S
O213 Nd192 2.492 . S
O213 C194 1.239 . S
O214 Nd192 2.487 1_455 S
O214 C201 1.241 . S
O215 Nd192 2.682 1_455 S
O215 Nd193 2.414 1_554 S
O215 C201 1.273 . S
O216 Nd192 2.410 . S
O216 C202 1.251 1_554 S
O217 Nd193 2.424 1_655 S
O217 C202 1.268 . S
O218 Nd193 2.500 . S
O218 C203 1.258 . S
O219 Nd193 2.492 . S
O219 C203 1.239 . S
O220 Nd193 2.487 1_655 S
O220 C210 1.241 . S
O221 Nd192 2.414 1_556 S
O221 Nd193 2.682 1_655 S
O221 C210 1.273 . S
O222 Nd193 2.410 . S
O222 C211 1.251 1_556 S
O223 Nd192 2.424 1_455 S
O223 C211 1.268 . S
H224 C196 0.930 . S
H225 C197 0.929 . S
H226 C199 0.930 . S
H227 C200 0.929 . S
H228 C205 0.930 . S
H229 C206 0.929 . S
H230 C208 0.930 . S
H231 C209 0.929 . S
C232 C233 1.387 . S
C232 H236 0.950 . S
C232 C241 1.390 . S
C233 C232 1.387 . S
C233 C235 1.387 . S
H234 C241 0.950 . S
C235 C233 1.387 . S
C235 C237 1.390 . S
C235 H239 0.950 . S
H236 C232 0.950 . S
C237 C235 1.390 . S
C237 C238 1.387 . S
C237 H240 0.950 . S
C238 C237 1.387 . S
C238 C241 1.387 . S
H239 C235 0.950 . S
H240 C237 0.950 . S
C241 C232 1.390 . S
C241 H234 0.950 . S
C241 C238 1.387 . S
C242 C243 1.387 . S
C242 H246 0.950 . S
C242 C251 1.390 . S
C243 C242 1.387 . S
C243 C245 1.387 . S
H244 C251 0.950 . S
C245 C243 1.387 . S
C245 C247 1.390 . S
C245 H249 0.950 . S
H246 C242 0.950 . S
C247 C245 1.390 . S
C247 C248 1.387 . S
C247 H250 0.950 . S
C248 C247 1.387 . S
C248 C251 1.387 . S
H249 C245 0.950 . S
H250 C247 0.950 . S
C251 C242 1.390 . S
C251 H244 0.950 . S
C251 C248 1.387 . S
C252 C253 1.387 . S
C252 H256 0.950 . S
C252 C261 1.390 . S
C253 C252 1.387 . S
C253 C255 1.387 . S
H254 C261 0.950 . S
C255 C253 1.387 . S
C255 C257 1.390 . S
C255 H259 0.950 . S
H256 C252 0.950 . S
C257 C255 1.390 . S
C257 C258 1.387 . S
C257 H260 0.950 . S
C258 C257 1.387 . S
C258 C261 1.387 . S
H259 C255 0.950 . S
H260 C257 0.950 . S
C261 C252 1.390 . S
C261 H254 0.950 . S
C261 C258 1.387 . S
C262 C263 1.387 . S
C262 H266 0.950 . S
C262 C271 1.390 . S
C263 C262 1.387 . S
C263 C265 1.387 . S
H264 C271 0.950 . S
C265 C263 1.387 . S
C265 C267 1.390 . S
C265 H269 0.950 . S
H266 C262 0.950 . S
C267 C265 1.390 . S
C267 C268 1.387 . S
C267 H270 0.950 . S
C268 C267 1.387 . S
C268 C271 1.387 . S
H269 C265 0.950 . S
H270 C267 0.950 . S
C271 C262 1.390 . S
C271 H264 0.950 . S
C271 C268 1.387 . S
C272 C273 1.387 . S
C272 H276 0.950 . S
C272 C281 1.390 . S
C273 C272 1.387 . S
C273 C275 1.387 . S
H274 C281 0.950 . S
C275 C273 1.387 . S
C275 C277 1.390 . S
C275 H279 0.950 . S
H276 C272 0.950 . S
C277 C275 1.390 . S
C277 C278 1.387 . S
C277 H280 0.950 . S
C278 C277 1.387 . S
C278 C281 1.387 . S
H279 C275 0.950 . S
H280 C277 0.950 . S
C281 C272 1.390 . S
C281 H274 0.950 . S
C281 C278 1.387 . S
C282 C283 1.387 . S
C282 H286 0.950 . S
C282 C291 1.390 . S
C283 C282 1.387 . S
C283 C285 1.387 . S
H284 C291 0.950 . S
C285 C283 1.387 . S
C285 C287 1.390 . S
C285 H289 0.950 . S
H286 C282 0.950 . S
C287 C285 1.390 . S
C287 C288 1.387 . S
C287 H290 0.950 . S
C288 C287 1.387 . S
C288 C291 1.387 . S
H289 C285 0.950 . S
H290 C287 0.950 . S
C291 C282 1.390 . S
C291 H284 0.950 . S
C291 C288 1.387 . S
C292 C293 1.387 . S
C292 H296 0.950 . S
C292 C301 1.390 . S
C293 C292 1.387 . S
C293 C295 1.387 . S
H294 C301 0.950 . S
C295 C293 1.387 . S
C295 C297 1.390 . S
C295 H299 0.950 . S
H296 C292 0.950 . S
C297 C295 1.390 . S
C297 C298 1.387 . S
C297 H300 0.950 . S
C298 C297 1.387 . S
C298 C301 1.387 . S
H299 C295 0.950 . S
H300 C297 0.950 . S
C301 C292 1.390 . S
C301 H294 0.950 . S
C301 C298 1.387 . S
C302 C303 1.387 . S
C302 H306 0.950 . S
C302 C311 1.390 . S
C303 C302 1.387 . S
C303 C305 1.387 . S
H304 C311 0.950 . S
C305 C303 1.387 . S
C305 C307 1.390 . S
C305 H309 0.950 . S
H306 C302 0.950 . S
C307 C305 1.390 . S
C307 C308 1.387 . S
C307 H310 0.950 . S
C308 C307 1.387 . S
C308 C311 1.387 . S
H309 C305 0.950 . S
H310 C307 0.950 . S
C311 C302 1.390 . S
C311 H304 0.950 . S
C311 C308 1.387 . S
C312 C313 1.387 . S
C312 H316 0.950 . S
C312 C321 1.390 . S
C313 C312 1.387 . S
C313 C315 1.387 . S
H314 C321 0.950 1_556 S
C315 C313 1.387 . S
C315 C317 1.390 . S
C315 H319 0.950 . S
H316 C312 0.950 . S
C317 C315 1.390 . S
C317 C318 1.387 . S
C317 H320 0.950 . S
C318 C317 1.387 . S
C318 C321 1.387 . S
H319 C315 0.950 . S
H320 C317 0.950 . S
C321 C312 1.390 . S
C321 H314 0.950 1_554 S
C321 C318 1.387 . S
C322 C323 1.387 . S
C322 H326 0.950 . S
C322 C331 1.390 . S
C323 C322 1.387 . S
C323 C325 1.387 . S
H324 C331 0.950 . S
C325 C323 1.387 . S
C325 C327 1.390 . S
C325 H329 0.950 . S
H326 C322 0.950 . S
C327 C325 1.390 . S
C327 C328 1.387 . S
C327 H330 0.950 . S
C328 C327 1.387 . S
C328 C331 1.387 . S
H329 C325 0.950 . S
H330 C327 0.950 . S
C331 C322 1.390 . S
C331 H324 0.950 . S
C331 C328 1.387 . S
C332 C333 1.387 . S
C332 H336 0.950 . S
C332 C341 1.390 . S
C333 C332 1.387 . S
C333 C335 1.387 . S
H334 C341 0.950 . S
C335 C333 1.387 . S
C335 C337 1.390 . S
C335 H339 0.950 . S
H336 C332 0.950 . S
C337 C335 1.390 . S
C337 C338 1.387 . S
C337 H340 0.950 . S
C338 C337 1.387 . S
C338 C341 1.387 . S
H339 C335 0.950 . S
H340 C337 0.950 . S
C341 C332 1.390 . S
C341 H334 0.950 . S
C341 C338 1.387 . S
C342 C343 1.387 . S
C342 H346 0.950 . S
C342 C351 1.390 . S
C343 C342 1.387 . S
C343 C345 1.387 . S
H344 C351 0.950 . S
C345 C343 1.387 . S
C345 C347 1.390 . S
C345 H349 0.950 . S
H346 C342 0.950 . S
C347 C345 1.390 . S
C347 C348 1.387 . S
C347 H350 0.950 . S
C348 C347 1.387 . S
C348 C351 1.387 . S
H349 C345 0.950 . S
H350 C347 0.950 . S
C351 C342 1.390 . S
C351 H344 0.950 . S
C351 C348 1.387 . S
C352 C353 1.387 . S
C352 H356 0.950 . S
C352 C361 1.390 . S
C353 C352 1.387 . S
C353 C355 1.387 . S
H354 C361 0.950 . S
C355 C353 1.387 . S
C355 C357 1.390 . S
C355 H359 0.950 . S
H356 C352 0.950 . S
C357 C355 1.390 . S
C357 C358 1.387 . S
C357 H360 0.950 . S
C358 C357 1.387 . S
C358 C361 1.387 . S
H359 C355 0.950 . S
H360 C357 0.950 . S
C361 C352 1.390 . S
C361 H354 0.950 . S
C361 C358 1.387 . S
C362 C363 1.387 . S
C362 H366 0.950 . S
C362 C371 1.390 . S
C363 C362 1.387 . S
C363 C365 1.387 . S
H364 C371 0.950 . S
C365 C363 1.387 . S
C365 C367 1.390 . S
C365 H369 0.950 . S
H366 C362 0.950 . S
C367 C365 1.390 . S
C367 C368 1.387 . S
C367 H370 0.950 . S
C368 C367 1.387 . S
C368 C371 1.387 . S
H369 C365 0.950 . S
H370 C367 0.950 . S
C371 C362 1.390 . S
C371 H364 0.950 . S
C371 C368 1.387 . S
C372 C373 1.387 . S
C372 H376 0.950 . S
C372 C381 1.390 . S
C373 C372 1.387 . S
C373 C375 1.387 . S
H374 C381 0.950 . S
C375 C373 1.387 . S
C375 C377 1.390 . S
C375 H379 0.950 . S
H376 C372 0.950 . S
C377 C375 1.390 . S
C377 C378 1.387 . S
C377 H380 0.950 . S
C378 C377 1.387 . S
C378 C381 1.387 . S
H379 C375 0.950 . S
H380 C377 0.950 . S
C381 C372 1.390 . S
C381 H374 0.950 . S
C381 C378 1.387 . S
C382 C383 1.387 . S
C382 H386 0.950 . S
C382 C391 1.390 . S
C383 C382 1.387 . S
C383 C385 1.387 . S
H384 C391 0.950 . S
C385 C383 1.387 . S
C385 C387 1.390 . S
C385 H389 0.950 . S
H386 C382 0.950 . S
C387 C385 1.390 . S
C387 C388 1.387 . S
C387 H390 0.950 . S
C388 C387 1.387 . S
C388 C391 1.387 . S
H389 C385 0.950 . S
H390 C387 0.950 . S
C391 C382 1.390 . S
C391 H384 0.950 . S
C391 C388 1.387 . S
C392 C393 1.387 . S
C392 H396 0.950 . S
C392 C401 1.390 . S
C393 C392 1.387 . S
C393 C395 1.387 . S
H394 C401 0.950 . S
C395 C393 1.387 . S
C395 C397 1.390 . S
C395 H399 0.950 . S
H396 C392 0.950 . S
C397 C395 1.390 . S
C397 C398 1.387 . S
C397 H400 0.950 1_556 S
C398 C397 1.387 . S
C398 C401 1.387 . S
H399 C395 0.950 . S
H400 C397 0.950 1_554 S
C401 C392 1.390 . S
C401 H394 0.950 . S
C401 C398 1.387 . S
C402 C403 1.387 . S
C402 H406 0.950 . S
C402 C411 1.390 . S
C403 C402 1.387 . S
C403 C405 1.387 . S
H404 C411 0.950 . S
C405 C403 1.387 . S
C405 C407 1.390 . S
C405 H409 0.950 . S
H406 C402 0.950 . S
C407 C405 1.390 . S
C407 C408 1.387 . S
C407 H410 0.950 . S
C408 C407 1.387 . S
C408 C411 1.387 . S
H409 C405 0.950 . S
H410 C407 0.950 . S
C411 C402 1.390 . S
C411 H404 0.950 . S
C411 C408 1.387 . S
C412 C413 1.387 . S
C412 H416 0.950 . S
C412 C421 1.390 . S
C413 C412 1.387 . S
C413 C415 1.387 . S
H414 C421 0.950 . S
C415 C413 1.387 . S
C415 C417 1.390 . S
C415 H419 0.950 . S
H416 C412 0.950 . S
C417 C415 1.390 . S
C417 C418 1.387 . S
C417 H420 0.950 . S
C418 C417 1.387 . S
C418 C421 1.387 . S
H419 C415 0.950 . S
H420 C417 0.950 . S
C421 C412 1.390 . S
C421 H414 0.950 . S
C421 C418 1.387 . S
C422 C423 1.387 . S
C422 H426 0.950 . S
C422 C431 1.390 . S
C423 C422 1.387 . S
C423 C425 1.387 . S
H424 C431 0.950 . S
C425 C423 1.387 . S
C425 C427 1.390 . S
C425 H429 0.950 . S
H426 C422 0.950 . S
C427 C425 1.390 . S
C427 C428 1.387 . S
C427 H430 0.950 . S
C428 C427 1.387 . S
C428 C431 1.387 . S
H429 C425 0.950 . S
H430 C427 0.950 . S
C431 C422 1.390 . S
C431 H424 0.950 . S
C431 C428 1.387 . S
C432 C433 1.387 . S
C432 H436 0.950 . S
C432 C441 1.390 . S
C433 C432 1.387 . S
C433 C435 1.387 . S
H434 C441 0.950 . S
C435 C433 1.387 . S
C435 C437 1.390 . S
C435 H439 0.950 . S
H436 C432 0.950 . S
C437 C435 1.390 . S
C437 C438 1.387 . S
C437 H440 0.950 1_556 S
C438 C437 1.387 . S
C438 C441 1.387 . S
H439 C435 0.950 . S
H440 C437 0.950 1_554 S
C441 C432 1.390 . S
C441 H434 0.950 . S
C441 C438 1.387 . S
C442 C443 1.387 . S
C442 H446 0.950 . S
C442 C451 1.390 . S
C443 C442 1.387 . S
C443 C445 1.387 . S
H444 C451 0.950 . S
C445 C443 1.387 . S
C445 C447 1.390 . S
C445 H449 0.950 . S
H446 C442 0.950 . S
C447 C445 1.390 . S
C447 C448 1.387 . S
C447 H450 0.950 . S
C448 C447 1.387 . S
C448 C451 1.387 . S
H449 C445 0.950 . S
H450 C447 0.950 . S
C451 C442 1.390 . S
C451 H444 0.950 . S
C451 C448 1.387 . S
C452 C453 1.387 . S
C452 H456 0.950 . S
C452 C461 1.390 . S
C453 C452 1.387 . S
C453 C455 1.387 . S
H454 C461 0.950 . S
C455 C453 1.387 . S
C455 C457 1.390 . S
C455 H459 0.950 . S
H456 C452 0.950 . S
C457 C455 1.390 . S
C457 C458 1.387 . S
C457 H460 0.950 . S
C458 C457 1.387 . S
C458 C461 1.387 . S
H459 C455 0.950 . S
H460 C457 0.950 . S
C461 C452 1.390 . S
C461 H454 0.950 . S
C461 C458 1.387 . S
C462 C463 1.387 . S
C462 H466 0.950 . S
C462 C471 1.390 . S
C463 C462 1.387 . S
C463 C465 1.387 . S
H464 C471 0.950 . S
C465 C463 1.387 . S
C465 C467 1.390 . S
C465 H469 0.950 . S
H466 C462 0.950 . S
C467 C465 1.390 . S
C467 C468 1.387 . S
C467 H470 0.950 . S
C468 C467 1.387 . S
C468 C471 1.387 . S
H469 C465 0.950 . S
H470 C467 0.950 . S
C471 C462 1.390 . S
C471 H464 0.950 . S
C471 C468 1.387 . S
C233 C5 2.858 . S
C238 C91 2.834 . S
C243 C14 2.057 . S
C248 C122 2.186 . S
C258 C161 1.467 . S
C253 C25 1.495 . S
C263 C34 0.764 . S
C268 C198 0.762 . S
C278 C121 2.715 . S
C273 C7 2.826 . S
C288 C78 1.281 . S
C283 C13 1.322 . S
C298 C210 1.572 . S
C293 C23 1.635 . S
C308 C167 1.278 . S
C303 C31 1.278 . S
C313 C4 2.327 . S
C318 C211 2.323 . S
C328 C127 1.358 . S
C323 C22 1.373 . S
C333 C32 0.536 . S
C338 C90 0.634 . S
C343 C16 2.138 . S
C348 C162 2.146 . S
C358 C82 2.825 . S
C353 C41 2.847 . S
C363 C50 2.059 . S
C368 C131 2.194 . S
C373 C61 1.489 . S
C378 C170 1.466 . S
C383 C67 0.766 . S
C388 C207 0.764 . S
C393 C40 2.838 . S
C398 C130 2.727 . S
C408 C87 1.270 . S
C403 C52 1.308 . S
C418 C201 1.575 . S
C413 C59 1.635 . S
C428 C158 1.269 . S
C423 C70 1.279 . S
C433 C43 2.324 . S
C438 C202 2.323 . S
C448 C118 1.357 . S
C443 C58 1.371 . S
C458 C81 0.626 . S
C453 C68 0.519 . S
C463 C49 2.141 . S
C468 C171 2.152 . S
