# Generated by pormake.
# Topology pyr, (3,6)-cn, num edge types: 1
# Building blocks:
#     Node 0, Type 0, BuildingBlock: BELTOD_clean_linker_0, # of connection points: 3
#     Node 1, Type 0, BuildingBlock: BELTOD_clean_linker_0, # of connection points: 3
#     Node 2, Type 0, BuildingBlock: BELTOD_clean_linker_0, # of connection points: 3
#     Node 3, Type 0, BuildingBlock: BELTOD_clean_linker_0, # of connection points: 3
#     Node 4, Type 0, BuildingBlock: BELTOD_clean_linker_0, # of connection points: 3
#     Node 5, Type 0, BuildingBlock: BELTOD_clean_linker_0, # of connection points: 3
#     Node 6, Type 0, BuildingBlock: BELTOD_clean_linker_0, # of connection points: 3
#     Node 7, Type 0, BuildingBlock: BELTOD_clean_linker_0, # of connection points: 3
#     Node 8, Type 1, BuildingBlock: BETFAJ_clean_sbu_0, # of connection points: 6
#     Node 9, Type 1, BuildingBlock: BETFAJ_clean_sbu_0, # of connection points: 6
#     Node 10, Type 1, BuildingBlock: BETFAJ_clean_sbu_0, # of connection points: 6
#     Node 11, Type 1, BuildingBlock: BETFAJ_clean_sbu_0, # of connection points: 6
#     Edge 12, Type (0, 1), BuildingBlock: ZUJKAS_clean_linker_0, # of connection points: 2
#     Edge 13, Type (0, 1), BuildingBlock: ZUJKAS_clean_linker_0, # of connection points: 2
#     Edge 14, Type (0, 1), BuildingBlock: ZUJKAS_clean_linker_0, # of connection points: 2
#     Edge 15, Type (0, 1), BuildingBlock: ZUJKAS_clean_linker_0, # of connection points: 2
#     Edge 16, Type (0, 1), BuildingBlock: ZUJKAS_clean_linker_0, # of connection points: 2
#     Edge 17, Type (0, 1), BuildingBlock: ZUJKAS_clean_linker_0, # of connection points: 2
#     Edge 18, Type (0, 1), BuildingBlock: ZUJKAS_clean_linker_0, # of connection points: 2
#     Edge 19, Type (0, 1), BuildingBlock: ZUJKAS_clean_linker_0, # of connection points: 2
#     Edge 20, Type (0, 1), BuildingBlock: ZUJKAS_clean_linker_0, # of connection points: 2
#     Edge 21, Type (0, 1), BuildingBlock: ZUJKAS_clean_linker_0, # of connection points: 2
#     Edge 22, Type (0, 1), BuildingBlock: ZUJKAS_clean_linker_0, # of connection points: 2
#     Edge 23, Type (0, 1), BuildingBlock: ZUJKAS_clean_linker_0, # of connection points: 2
#     Edge 24, Type (0, 1), BuildingBlock: ZUJKAS_clean_linker_0, # of connection points: 2
#     Edge 25, Type (0, 1), BuildingBlock: ZUJKAS_clean_linker_0, # of connection points: 2
#     Edge 26, Type (0, 1), BuildingBlock: ZUJKAS_clean_linker_0, # of connection points: 2
#     Edge 27, Type (0, 1), BuildingBlock: ZUJKAS_clean_linker_0, # of connection points: 2
#     Edge 28, Type (0, 1), BuildingBlock: ZUJKAS_clean_linker_0, # of connection points: 2
#     Edge 29, Type (0, 1), BuildingBlock: ZUJKAS_clean_linker_0, # of connection points: 2
#     Edge 30, Type (0, 1), BuildingBlock: ZUJKAS_clean_linker_0, # of connection points: 2
#     Edge 31, Type (0, 1), BuildingBlock: ZUJKAS_clean_linker_0, # of connection points: 2
#     Edge 32, Type (0, 1), BuildingBlock: ZUJKAS_clean_linker_0, # of connection points: 2
#     Edge 33, Type (0, 1), BuildingBlock: ZUJKAS_clean_linker_0, # of connection points: 2
#     Edge 34, Type (0, 1), BuildingBlock: ZUJKAS_clean_linker_0, # of connection points: 2
#     Edge 35, Type (0, 1), BuildingBlock: ZUJKAS_clean_linker_0, # of connection points: 2
# Relax obj value: 0.077
# Max RMSD: 0.118
# Mean RMSD: 0.055
data_MOF--net-pyr--node1-BETFAJ_clean_sbu_0--node2-BELTOD_clean_linker_0--edge1-ZUJKAS_clean_linker_0
_symmetry_space_group_name_H-M    P1
_symmetry_Int_Tables_number       1
_symmetry_cell_setting            triclinic
loop_
_symmetry_equiv_pos_as_xyz
'x, y, z'
_cell_length_a     54.288517
_cell_length_b     58.568581
_cell_length_c     52.848829
_cell_angle_alpha  91.49761
_cell_angle_beta   88.811691
_cell_angle_gamma 98.372105
loop_
_atom_site_label
_atom_site_type_symbol
_atom_site_fract_x
_atom_site_fract_y
_atom_site_fract_z
_atom_type_partial_charge
P0 P 0.33146 0.27855 0.23857 0.0
H1 H 0.38234 0.27793 0.22031 0.0
H2 H 0.40259 0.24899 0.19731 0.0
H3 H 0.3317 0.20488 0.19138 0.0
H4 H 0.31146 0.23431 0.21393 0.0
H5 H 0.30694 0.31606 0.25744 0.0
H6 H 0.27825 0.33891 0.23895 0.0
H7 H 0.28602 0.30378 0.16679 0.0
H8 H 0.3139 0.28012 0.18606 0.0
H9 H 0.34051 0.26083 0.28798 0.0
H10 H 0.27846 0.26043 0.23809 0.0
O11 O 0.35369 0.29549 0.25433 0.0
H12 H 0.31259 0.24068 0.31977 0.0
H13 H 0.25066 0.24015 0.26949 0.0
C14 C 0.34544 0.25828 0.21884 0.0
C15 C 0.3711 0.26215 0.21382 0.0
C16 C 0.38271 0.24544 0.20089 0.0
C17 C 0.36886 0.22447 0.19267 0.0
C18 C 0.34294 0.22089 0.19723 0.0
C19 C 0.33133 0.23769 0.21017 0.0
C20 C 0.31297 0.29684 0.22295 0.0
C21 C 0.30275 0.31355 0.23752 0.0
C22 C 0.28636 0.32668 0.22685 0.0
C23 C 0.27994 0.3235 0.20121 0.0
C24 C 0.29035 0.30665 0.18662 0.0
C25 C 0.30658 0.29329 0.19748 0.0
C26 C 0.31136 0.26266 0.26113 0.0
C27 C 0.3209 0.25645 0.28394 0.0
C28 C 0.30501 0.24489 0.30196 0.0
C29 C 0.27948 0.23932 0.29718 0.0
C30 C 0.27018 0.24485 0.27389 0.0
C31 C 0.28606 0.25635 0.25592 0.0
P32 P 0.33123 0.8901 0.58652 0.0
H33 H 0.37536 0.90785 0.61504 0.0
H34 H 0.38152 0.91646 0.6602 0.0
H35 H 0.30355 0.89281 0.67519 0.0
H36 H 0.29733 0.88447 0.63016 0.0
H37 H 0.35523 0.86492 0.54758 0.0
H38 H 0.35385 0.82383 0.53837 0.0
H39 H 0.30471 0.80817 0.60304 0.0
H40 H 0.30654 0.84926 0.6124 0.0
H41 H 0.30839 0.93056 0.5987 0.0
H42 H 0.28825 0.86488 0.55979 0.0
O43 O 0.35313 0.90601 0.56934 0.0
H44 H 0.26544 0.93789 0.59656 0.0
H45 H 0.24546 0.87237 0.55715 0.0
C46 C 0.33592 0.89594 0.61939 0.0
C47 C 0.35962 0.90466 0.62804 0.0
C48 C 0.36307 0.90958 0.65366 0.0
C49 C 0.34285 0.90549 0.67073 0.0
C50 C 0.31927 0.8961 0.66216 0.0
C51 C 0.3158 0.89141 0.63653 0.0
C52 C 0.33152 0.86004 0.58094 0.0
C53 C 0.34431 0.85264 0.55984 0.0
C54 C 0.3431 0.8292 0.55437 0.0
C55 C 0.32883 0.81291 0.56983 0.0
C56 C 0.31582 0.82042 0.59087 0.0
C57 C 0.31711 0.84389 0.59636 0.0
C58 C 0.30135 0.89717 0.57962 0.0
C59 C 0.29483 0.91798 0.58922 0.0
C60 C 0.27034 0.92209 0.58808 0.0
C61 C 0.25223 0.90555 0.57691 0.0
C62 C 0.25906 0.88514 0.56631 0.0
C63 C 0.28356 0.88099 0.5676 0.0
P64 P 0.67146 0.33617 0.82675 0.0
H65 H 0.70647 0.32079 0.86139 0.0
H66 H 0.74228 0.3403 0.88439 0.0
H67 H 0.7244 0.4062 0.86171 0.0
H68 H 0.68856 0.38639 0.83855 0.0
H69 H 0.65041 0.28958 0.80987 0.0
H70 H 0.63267 0.25527 0.83129 0.0
H71 H 0.63142 0.29505 0.90159 0.0
H72 H 0.65125 0.32906 0.87962 0.0
H73 H 0.6903 0.37358 0.79282 0.0
H74 H 0.6182 0.33681 0.81212 0.0
O75 O 0.68909 0.32301 0.80649 0.0
H76 H 0.67203 0.39418 0.76043 0.0
H77 H 0.59952 0.35681 0.7787 0.0
C78 C 0.69453 0.35194 0.84811 0.0
C79 C 0.7099 0.33948 0.86174 0.0
C80 C 0.73056 0.35077 0.87498 0.0
C81 C 0.7367 0.37502 0.87499 0.0
C82 C 0.72076 0.38754 0.86191 0.0
C83 C 0.69997 0.37616 0.84871 0.0
C84 C 0.65237 0.31217 0.84289 0.0
C85 C 0.64612 0.291 0.8299 0.0
C86 C 0.63562 0.27099 0.84257 0.0
C87 C 0.63016 0.27128 0.86892 0.0
C88 C 0.63548 0.29308 0.88164 0.0
C89 C 0.64658 0.31306 0.86891 0.0
C90 C 0.65575 0.35399 0.80577 0.0
C91 C 0.67033 0.37022 0.79047 0.0
C92 C 0.65975 0.38177 0.77133 0.0
C93 C 0.63404 0.3773 0.76618 0.0
C94 C 0.61929 0.36119 0.78188 0.0
C95 C 0.62999 0.34964 0.80123 0.0
P96 P 0.84721 0.68649 0.34027 0.0
H97 H 0.88277 0.72574 0.32427 0.0
H98 H 0.9019 0.76084 0.34621 0.0
H99 H 0.87301 0.7329 0.41749 0.0
H100 H 0.85425 0.69761 0.39532 0.0
H101 H 0.83888 0.67711 0.28625 0.0
H102 H 0.85868 0.65623 0.2533 0.0
H103 H 0.90825 0.63524 0.30801 0.0
H104 H 0.88844 0.65709 0.34155 0.0
H105 H 0.80413 0.69974 0.36684 0.0
H106 H 0.83806 0.63778 0.35826 0.0
O107 O 0.83064 0.70218 0.32317 0.0
H108 H 0.76862 0.67833 0.38916 0.0
H109 H 0.80248 0.61627 0.38158 0.0
C110 C 0.8673 0.70872 0.35799 0.0
C111 C 0.88119 0.72682 0.34471 0.0
C112 C 0.89176 0.74717 0.35733 0.0
C113 C 0.88879 0.7501 0.38373 0.0
C114 C 0.87588 0.73141 0.39722 0.0
C115 C 0.86516 0.71104 0.38449 0.0
C116 C 0.86229 0.66925 0.31664 0.0
C117 C 0.85413 0.66829 0.29149 0.0
C118 C 0.86555 0.65622 0.27239 0.0
C119 C 0.88535 0.64416 0.27769 0.0
C120 C 0.89309 0.64434 0.30312 0.0
C121 C 0.88181 0.6569 0.32235 0.0
C122 C 0.82361 0.67033 0.36037 0.0
C123 C 0.80409 0.68153 0.36997 0.0
C124 C 0.78374 0.6693 0.38274 0.0
C125 C 0.78262 0.6456 0.38681 0.0
C126 C 0.80285 0.63454 0.37858 0.0
C127 C 0.82317 0.6468 0.36527 0.0
P128 P 0.71225 0.78607 0.82587 0.0
H129 H 0.69048 0.78262 0.87619 0.0
H130 H 0.65767 0.80223 0.89502 0.0
H131 H 0.63483 0.8178 0.82033 0.0
H132 H 0.66657 0.79688 0.80169 0.0
H133 H 0.76277 0.77778 0.82798 0.0
H134 H 0.78233 0.74405 0.83557 0.0
H135 H 0.70985 0.70301 0.84413 0.0
H136 H 0.69011 0.7376 0.83659 0.0
H137 H 0.70559 0.82636 0.79793 0.0
H138 H 0.72928 0.76014 0.78168 0.0
O139 O 0.73064 0.80736 0.84072 0.0
H140 H 0.72184 0.8399 0.75698 0.0
H141 H 0.74765 0.77439 0.74177 0.0
C142 C 0.68144 0.78874 0.83761 0.0
C143 C 0.67761 0.78921 0.86385 0.0
C144 C 0.65911 0.80085 0.87458 0.0
C145 C 0.64425 0.81236 0.8592 0.0
C146 C 0.64609 0.80935 0.83278 0.0
C147 C 0.66444 0.79743 0.82207 0.0
C148 C 0.72504 0.76028 0.83247 0.0
C149 C 0.75099 0.7616 0.8317 0.0
C150 C 0.76218 0.74215 0.83563 0.0
C151 C 0.74767 0.72076 0.84031 0.0
C152 C 0.7215 0.71931 0.84071 0.0
C153 C 0.71022 0.73899 0.83654 0.0
C154 C 0.71639 0.79236 0.79297 0.0
C155 C 0.71357 0.81448 0.78524 0.0
C156 C 0.72312 0.82229 0.76196 0.0
C157 C 0.73656 0.8084 0.74659 0.0
C158 C 0.73732 0.78546 0.75324 0.0
C159 C 0.72705 0.7774 0.77628 0.0
P160 P 0.75493 0.20072 0.39216 0.0
H161 H 0.76983 0.23757 0.42787 0.0
H162 H 0.74646 0.25824 0.45847 0.0
H163 H 0.67758 0.2207 0.43005 0.0
H164 H 0.70108 0.1994 0.40052 0.0
H165 H 0.8024 0.18401 0.38949 0.0
H166 H 0.8239 0.16344 0.41965 0.0
H167 H 0.76063 0.15995 0.47117 0.0
H168 H 0.73888 0.18015 0.44062 0.0
H169 H 0.73351 0.20834 0.34444 0.0
H170 H 0.7324 0.15216 0.39607 0.0
O171 O 0.77609 0.2178 0.37532 0.0
H172 H 0.70486 0.1836 0.31696 0.0
H173 H 0.70409 0.12734 0.36843 0.0
C174 C 0.73711 0.21772 0.41143 0.0
C175 C 0.74967 0.23406 0.42812 0.0
C176 C 0.73635 0.24561 0.44572 0.0
C177 C 0.71024 0.24109 0.44659 0.0
C178 C 0.69773 0.2243 0.43008 0.0
C179 C 0.71112 0.21252 0.41273 0.0
C180 C 0.76972 0.1844 0.41344 0.0
C181 C 0.79328 0.17899 0.40733 0.0
C182 C 0.80549 0.16742 0.42457 0.0
C183 C 0.79412 0.16114 0.44799 0.0
C184 C 0.76984 0.16527 0.45345 0.0
C185 C 0.7576 0.17686 0.43612 0.0
C186 C 0.73557 0.18183 0.3717 0.0
C187 C 0.72745 0.19059 0.34957 0.0
C188 C 0.71115 0.17653 0.33402 0.0
C189 C 0.7028 0.15362 0.34061 0.0
C190 C 0.7105 0.14498 0.3631 0.0
C191 C 0.72683 0.1591 0.37868 0.0
P192 P 0.36079 0.68687 0.18566 0.0
H193 H 0.33668 0.69076 0.13741 0.0
H194 H 0.29633 0.6744 0.12005 0.0
H195 H 0.27394 0.645 0.19239 0.0
H196 H 0.31411 0.66216 0.20999 0.0
H197 H 0.41027 0.71358 0.17804 0.0
H198 H 0.4249 0.75126 0.16082 0.0
H199 H 0.34914 0.7661 0.1609 0.0
H200 H 0.3347 0.72763 0.17696 0.0
H201 H 0.35062 0.64122 0.20825 0.0
H202 H 0.39026 0.7075 0.23034 0.0
O203 O 0.37771 0.67293 0.16546 0.0
H204 H 0.36519 0.6241 0.24547 0.0
H205 H 0.40496 0.69052 0.26822 0.0
C206 C 0.3288 0.67773 0.17507 0.0
C207 C 0.32296 0.6812 0.14978 0.0
C208 C 0.29979 0.67174 0.13979 0.0
C209 C 0.28181 0.65812 0.15468 0.0
C210 C 0.28742 0.65509 0.18022 0.0
C211 C 0.3105 0.66498 0.19036 0.0
C212 C 0.37133 0.71746 0.17905 0.0
C213 C 0.39679 0.72506 0.17478 0.0
C214 C 0.40519 0.74696 0.16483 0.0
C215 C 0.38845 0.76239 0.15905 0.0
C216 C 0.36289 0.75496 0.16437 0.0
C217 C 0.35449 0.73286 0.17408 0.0
C218 C 0.36832 0.67601 0.21662 0.0
C219 C 0.3618 0.65239 0.2216 0.0
C220 C 0.37039 0.64247 0.24314 0.0
C221 C 0.38633 0.65567 0.26058 0.0
C222 C 0.39291 0.67946 0.25551 0.0
C223 C 0.38415 0.68941 0.23385 0.0
P224 P 0.16997 0.34994 0.69413 0.0
H225 H 0.18923 0.3141 0.66464 0.0
H226 H 0.17032 0.27904 0.64341 0.0
H227 H 0.09761 0.29984 0.65583 0.0
H228 H 0.11709 0.33438 0.67902 0.0
H229 H 0.22181 0.36551 0.70643 0.0
H230 H 0.25706 0.38494 0.68338 0.0
H231 H 0.20913 0.39524 0.62151 0.0
H232 H 0.17377 0.3736 0.64445 0.0
H233 H 0.13615 0.33506 0.73568 0.0
H234 H 0.16204 0.39943 0.69993 0.0
O235 O 0.18449 0.33534 0.71446 0.0
H236 H 0.11765 0.35514 0.76988 0.0
H237 H 0.14163 0.42009 0.73314 0.0
C238 C 0.1547 0.32701 0.67347 0.0
C239 C 0.16921 0.31129 0.66253 0.0
C240 C 0.15818 0.29108 0.65009 0.0
C241 C 0.13211 0.28603 0.64757 0.0
C242 C 0.11763 0.3025 0.65766 0.0
C243 C 0.12878 0.32261 0.67067 0.0
C244 C 0.19497 0.3679 0.67729 0.0
C245 C 0.21868 0.37191 0.68793 0.0
C246 C 0.23906 0.38348 0.67463 0.0
C247 C 0.23642 0.39222 0.65038 0.0
C248 C 0.21232 0.38866 0.63991 0.0
C249 C 0.19186 0.37651 0.65317 0.0
C250 C 0.15045 0.36553 0.71495 0.0
C251 C 0.13709 0.35363 0.73474 0.0
C252 C 0.12626 0.36542 0.75456 0.0
C253 C 0.12775 0.38977 0.75516 0.0
C254 C 0.14023 0.40156 0.73436 0.0
C255 C 0.15166 0.38965 0.71477 0.0
Sm256 Sm 0.0211 0.02265 0.49415 0.0
Sm257 Sm 1.0014 1.00976 0.5454 0.0
C258 C 0.03617 0.04184 0.45123 0.0
C259 C 0.05652 0.06011 0.44468 0.0
C260 C 0.05378 0.08345 0.4483 0.0
C261 C 0.07344 0.10061 0.44262 0.0
C262 C 0.09602 0.09469 0.43306 0.0
C263 C 0.09891 0.07137 0.42985 0.0
C264 C 0.0793 0.05422 0.43561 0.0
C265 C 0.05103 1.00016 0.52223 0.0
C266 C 0.03162 0.06089 0.54188 0.0
C267 C 0.98802 0.98958 0.58825 0.0
C268 C 0.96708 0.97223 0.59571 0.0
C269 C 0.96862 0.94858 0.59267 0.0
C270 C 0.94858 0.93227 0.59968 0.0
C271 C 0.92679 0.93941 0.60978 0.0
C272 C 0.92499 0.963 0.61215 0.0
C273 C 0.94503 0.97929 0.60535 0.0
C274 C 0.97041 0.03109 0.51744 0.0
C275 C 0.98937 0.97225 0.49726 0.0
O276 O 0.01767 0.04811 0.46476 0.0
O277 O 0.04297 0.02257 0.45855 0.0
O278 O 0.04011 0.01638 0.53023 0.0
O279 O 0.04703 0.9956 0.49846 0.0
O280 O 0.03011 0.05749 0.51703 0.0
O281 O 0.02487 0.04381 0.55744 0.0
O282 O 1.0048 0.98259 0.5729 0.0
O283 O 0.98226 1.00972 0.58256 0.0
O284 O 0.98229 0.01572 0.50914 0.0
O285 O 0.97236 0.03411 0.54167 0.0
O286 O 0.99245 0.97506 0.52205 0.0
O287 O 0.99529 0.98983 0.48213 0.0
H288 H 0.0365 0.08851 0.4555 0.0
H289 H 0.07091 0.1185 0.44551 0.0
H290 H 0.11603 0.06635 0.42215 0.0
H291 H 0.08195 0.03634 0.43277 0.0
H292 H 0.98534 0.94266 0.58513 0.0
H293 H 0.95041 0.91412 0.59791 0.0
H294 H 0.90816 0.96887 0.61954 0.0
H295 H 0.94323 0.99741 0.60772 0.0
Sm296 Sm 0.52816 0.02236 0.03589 0.0
Sm297 Sm 0.4835 0.01927 1.00303 0.0
C298 C 0.57069 0.03696 0.05708 0.0
C299 C 0.57453 0.04695 0.08255 0.0
C300 C 0.57654 0.07098 0.08603 0.0
C301 C 0.57643 0.08067 0.1102 0.0
C302 C 0.5749 0.06653 0.13128 0.0
C303 C 0.57298 0.0425 0.12794 0.0
C304 C 0.5727 0.03273 0.10371 0.0
C305 C 0.49625 0.98454 0.05361 0.0
C306 C 0.48364 0.05113 0.05476 0.0
C307 C 0.44056 1.00654 0.98193 0.0
C308 C 0.43619 0.99479 0.95748 0.0
C309 C 0.44231 0.97245 0.95352 0.0
C310 C 0.44062 0.96222 0.92961 0.0
C311 C 0.43289 0.9742 0.90941 0.0
C312 C 0.42733 0.9967 0.91312 0.0
C313 C 0.42893 1.00695 0.9371 0.0
C314 C 0.51679 0.05576 0.98429 0.0
C315 C 0.52751 0.98998 0.98456 0.0
O316 O 0.56012 0.04954 0.04166 0.0
O317 O 0.56166 0.01501 0.05556 0.0
O318 O 0.49164 0.99704 0.03538 0.0
O319 O 0.51725 0.99303 0.06359 0.0
O320 O 0.5063 0.04677 0.05913 0.0
O321 O 0.47085 0.04167 0.03538 0.0
O322 O 0.44897 0.99455 0.9995 0.0
O323 O 0.45209 0.02769 0.98085 0.0
O324 O 0.5205 0.04343 1.00287 0.0
O325 O 0.49594 0.04751 0.97392 0.0
O326 O 0.50426 0.99323 0.98119 0.0
O327 O 0.5411 1.00087 1.00273 0.0
H328 H 0.57763 0.08232 0.07005 0.0
H329 H 0.57783 0.09925 0.11241 0.0
H330 H 0.57234 0.0313 0.14402 0.0
H331 H 0.57081 0.01411 0.10161 0.0
H332 H 0.44863 0.96285 0.96876 0.0
H333 H 0.44504 0.94484 0.92693 0.0
H334 H 0.42098 1.00606 0.89768 0.0
H335 H 0.42472 0.0244 0.93969 0.0
Sm336 Sm 0.50831 0.49917 0.49845 0.0
Sm337 Sm 0.50893 0.53611 0.53134 0.0
C338 C 0.51762 0.46355 0.47038 0.0
C339 C 0.5319 0.44497 0.47495 0.0
C340 C 0.55317 0.44896 0.48999 0.0
C341 C 0.56606 0.43086 0.49522 0.0
C342 C 0.55769 0.4086 0.48561 0.0
C343 C 0.53615 0.40461 0.47095 0.0
C344 C 0.52329 0.42275 0.46567 0.0
C345 C 0.46289 0.49749 0.5235 0.0
C346 C 0.53084 0.49414 0.55598 0.0
C347 C 0.49985 0.57171 0.55957 0.0
C348 C 0.48502 0.59023 0.55581 0.0
C349 C 0.45917 0.58517 0.55242 0.0
C350 C 0.44524 0.60289 0.54911 0.0
C351 C 0.45697 0.62579 0.54881 0.0
C352 C 0.48283 0.63092 0.55124 0.0
C353 C 0.49681 0.61317 0.55489 0.0
C354 C 0.5543 0.53749 0.50645 0.0
C355 C 0.48526 0.54069 0.47405 0.0
O356 O 0.53048 0.48412 0.46852 0.0
O357 O 0.49752 0.46325 0.48436 0.0
O358 O 0.48394 0.50178 0.53376 0.0
O359 O 0.46546 0.49522 0.49918 0.0
O360 O 0.53183 0.48737 0.53187 0.0
O361 O 0.51992 0.51221 0.56181 0.0
O362 O 0.48747 0.551 0.56185 0.0
O363 O 0.51979 0.57216 0.5453 0.0
O364 O 0.53327 0.53349 0.49609 0.0
O365 O 0.55173 0.53944 0.53082 0.0
O366 O 0.48636 0.54868 0.49778 0.0
O367 O 0.49451 0.52169 0.46819 0.0
H368 H 0.55983 0.46601 0.4977 0.0
H369 H 0.58253 0.43423 0.50674 0.0
H370 H 0.52957 0.38759 0.46312 0.0
H371 H 0.50666 0.41947 0.45437 0.0
H372 H 0.4496 0.56761 0.55256 0.0
H373 H 0.42525 0.59877 0.54706 0.0
H374 H 0.49203 0.64862 0.5511 0.0
H375 H 0.51676 0.61733 0.55719 0.0
Sm376 Sm 0.01395 0.49263 0.03135 0.0
Sm377 Sm 1.00178 0.53969 1.00523 0.0
C378 C 0.03769 0.4573 0.03964 0.0
C379 C 0.058 0.45144 0.05543 0.0
C380 C 0.07929 0.44505 0.04333 0.0
C381 C 0.09843 0.4384 0.05736 0.0
C382 C 0.09672 0.43775 0.08392 0.0
C383 C 0.07574 0.44489 0.09616 0.0
C384 C 0.05654 0.45169 0.08205 0.0
C385 C 0.99113 0.51997 0.06667 0.0
C386 C 0.05296 0.54243 0.03877 0.0
C387 C 0.97764 0.57473 0.99714 0.0
C388 C 0.95789 0.58053 0.98062 0.0
C389 C 0.93618 0.58684 0.9919 0.0
C390 C 0.91734 0.59305 0.9771 0.0
C391 C 0.91964 0.59307 0.95053 0.0
C392 C 0.94123 0.58623 0.93918 0.0
C393 C 0.96017 0.58002 0.95407 0.0
C394 C 0.02501 0.51262 0.9701 0.0
C395 C 0.96333 0.48971 0.99673 0.0
O396 O 0.0444 0.47238 0.02201 0.0
O397 O 0.01622 0.45965 0.05058 0.0
O398 O 0.99695 0.52406 0.04367 0.0
O399 O 0.9971 0.49978 0.07139 0.0
O400 O 0.04842 0.51963 0.04086 0.0
O401 O 0.0375 0.5543 0.02724 0.0
O402 O 0.97045 0.55901 0.014 0.0
O403 O 0.99968 0.57316 0.98705 0.0
O404 O 0.01895 0.50841 0.99302 0.0
O405 O 0.01925 0.53291 0.9654 0.0
O406 O 0.96816 0.51241 0.99396 0.0
O407 O 0.97802 0.47799 1.00956 0.0
H408 H 0.081 0.44494 0.02286 0.0
H409 H 0.11454 0.43354 0.04731 0.0
H410 H 0.07378 0.44454 0.11659 0.0
H411 H 0.04045 0.45675 0.09194 0.0
H412 H 0.93394 0.58729 0.01232 0.0
H413 H 0.90128 0.59853 0.98664 0.0
H414 H 0.94353 0.58569 0.91878 0.0
H415 H 0.97658 0.57496 0.94481 0.0
H416 H 0.2871 0.20293 0.3256 0.0
H417 H 0.25695 0.18086 0.35403 0.0
H418 H 0.20354 0.22651 0.33946 0.0
H419 H 0.23364 0.24898 0.3114 0.0
H420 H 0.22613 0.19752 0.39823 0.0
H421 H 0.17433 0.15826 0.31411 0.0
H422 H 0.20629 0.17205 0.31208 0.0
H423 H 0.18154 0.18924 0.31513 0.0
C424 C 0.26913 0.20854 0.32891 0.0
C425 C 0.26249 0.22743 0.31616 0.0
C426 C 0.25203 0.19595 0.34504 0.0
C427 C 0.22825 0.20215 0.34839 0.0
C428 C 0.22192 0.22159 0.33673 0.0
H429 H 0.09066 0.13277 0.40678 0.0
H430 H 0.12363 0.16079 0.38912 0.0
C431 C 0.23898 0.23421 0.32067 0.0
C432 C 0.20928 0.18721 0.36242 0.0
H433 H 0.15653 0.14901 0.35424 0.0
C434 C 0.21085 0.18686 0.38879 0.0
C435 C 0.18969 0.17347 0.34965 0.0
C436 C 0.18783 0.17304 0.32116 0.0
C437 C 0.19264 0.17327 0.40304 0.0
C438 C 0.17297 0.15955 0.39027 0.0
C439 C 0.17164 0.15978 0.36383 0.0
C440 C 0.15354 0.1445 0.40377 0.0
C441 C 0.19435 0.17405 0.43152 0.0
C442 C 0.15971 0.12639 0.41801 0.0
C443 C 0.14095 0.11069 0.42864 0.0
C444 C 0.11588 0.1127 0.4246 0.0
C445 C 0.10983 0.13112 0.41065 0.0
C446 C 0.12858 0.14699 0.40038 0.0
H447 H 0.20597 0.19011 0.43842 0.0
H448 H 0.17561 0.17291 0.44065 0.0
H449 H 0.20314 0.1592 0.43763 0.0
H450 H 0.17894 0.12398 0.42022 0.0
H451 H 0.14603 0.09668 0.43945 0.0
H452 H 0.36449 0.94597 0.69096 0.0
H453 H 0.37635 0.95359 0.73503 0.0
H454 H 0.34109 0.88525 0.75452 0.0
H455 H 0.32955 0.87734 0.71017 0.0
H456 H 0.34786 0.95026 0.78149 0.0
H457 H 0.4167 0.88844 0.77045 0.0
H458 H 0.40184 0.89892 0.74375 0.0
H459 H 0.3848 0.87745 0.76356 0.0
C460 C 0.35911 0.93272 0.70476 0.0
C461 C 0.3466 0.91101 0.69749 0.0
C462 C 0.36568 0.9371 0.72976 0.0
C463 C 0.35977 0.91978 0.74751 0.0
C464 C 0.34587 0.89858 0.74069 0.0
H465 H 0.40601 0.93221 0.90225 0.0
H466 H 0.38927 0.91582 0.86218 0.0
C467 C 0.33927 0.89418 0.71561 0.0
C468 C 0.3702 0.92351 0.77257 0.0
H469 H 0.41672 0.90968 0.8088 0.0
C470 C 0.36266 0.94122 0.78774 0.0
C471 C 0.38969 0.91172 0.78003 0.0
C472 C 0.39895 0.89316 0.76359 0.0
C473 C 0.37464 0.9479 0.81031 0.0
C474 C 0.39446 0.93647 0.81741 0.0
C475 C 0.40147 0.91825 0.80278 0.0
C476 C 0.40833 0.9437 0.83997 0.0
C477 C 0.36655 0.96743 0.82612 0.0
C478 C 0.42525 0.96413 0.8399 0.0
C479 C 0.43489 0.97347 0.8626 0.0
C480 C 0.42756 0.96229 0.88524 0.0
C481 C 0.41208 0.9409 0.88487 0.0
C482 C 0.40246 0.9316 0.86219 0.0
H483 H 0.34867 0.97222 0.81966 0.0
H484 H 0.36445 0.96264 0.84632 0.0
H485 H 0.38104 0.98285 0.82486 0.0
H486 H 0.42981 0.97342 0.82256 0.0
H487 H 0.44697 0.98992 0.86268 0.0
H488 H 0.58649 0.3896 0.76119 0.0
H489 H 0.56965 0.40841 0.72586 0.0
H490 H 0.64007 0.41179 0.68615 0.0
H491 H 0.6566 0.39202 0.72049 0.0
H492 H 0.58202 0.45041 0.70498 0.0
H493 H 0.59625 0.3857 0.62996 0.0
H494 H 0.59951 0.38021 0.66306 0.0
H495 H 0.62423 0.39744 0.64593 0.0
C496 C 0.59841 0.39392 0.74483 0.0
C497 C 0.62317 0.38898 0.74426 0.0
C498 C 0.5887 0.40497 0.72451 0.0
C499 C 0.60322 0.41139 0.70266 0.0
C500 C 0.62796 0.40669 0.70216 0.0
H501 H 0.57291 0.47198 0.55556 0.0
H502 H 0.59068 0.45375 0.5909 0.0
C503 C 0.63764 0.39559 0.72235 0.0
C504 C 0.59275 0.42336 0.68084 0.0
H505 H 0.5834 0.42018 0.61662 0.0
C506 C 0.58228 0.4437 0.68567 0.0
C507 C 0.59322 0.41515 0.65529 0.0
C508 C 0.6037 0.39333 0.6482 0.0
C509 C 0.57298 0.45616 0.66612 0.0
C510 C 0.57272 0.44762 0.64051 0.0
C511 C 0.58325 0.42718 0.6358 0.0
C512 C 0.56182 0.45933 0.61848 0.0
C513 C 0.56471 0.47897 0.67343 0.0
C514 C 0.53924 0.4686 0.62106 0.0
C515 C 0.52966 0.47996 0.60102 0.0
C516 C 0.5414 0.48148 0.57694 0.0
C517 C 0.56326 0.47127 0.57373 0.0
C518 C 0.57344 0.46069 0.59417 0.0
H519 H 0.57462 0.48685 0.69042 0.0
H520 H 0.5681 0.49148 0.6579 0.0
H521 H 0.54455 0.47611 0.6784 0.0
H522 H 0.52861 0.46694 0.63859 0.0
H523 H 0.51258 0.48719 0.60427 0.0
H524 H 0.89692 0.59952 0.27514 0.0
H525 H 0.91437 0.57951 0.23883 0.0
H526 H 0.91897 0.64123 0.1954 0.0
H527 H 0.90134 0.66108 0.23132 0.0
H528 H 0.89465 0.57319 0.18628 0.0
H529 H 0.99032 0.62181 0.18838 0.0
H530 H 0.96946 0.62027 0.21557 0.0
H531 H 0.96537 0.63897 0.1901 0.0
C532 C 0.9019 0.6089 0.25795 0.0
C533 C 0.8977 0.63203 0.25635 0.0
C534 C 0.91178 0.59738 0.23706 0.0
C535 C 0.9183 0.60877 0.21415 0.0
C536 C 0.91443 0.63194 0.21273 0.0
H537 H 0.98533 0.56696 0.06718 0.0
H538 H 0.96712 0.58901 0.10161 0.0
C539 C 0.9042 0.64331 0.23337 0.0
C540 C 0.92864 0.59651 0.19159 0.0
H541 H 0.98058 0.59646 0.15323 0.0
C542 C 0.91348 0.57826 0.17917 0.0
C543 C 0.95314 0.60308 0.18184 0.0
C544 C 0.97069 0.62198 0.19468 0.0
C545 C 0.92194 0.56671 0.15746 0.0
C546 C 0.9466 0.57306 0.14783 0.0
C547 C 0.96169 0.59147 0.16018 0.0
C548 C 0.95738 0.55987 0.12611 0.0
C549 C 0.90406 0.54804 0.14469 0.0
C550 C 0.9584 0.53613 0.12803 0.0
C551 C 0.96885 0.52363 0.10851 0.0
C552 C 0.97873 0.53422 0.08608 0.0
C553 C 0.97769 0.55803 0.0839 0.0
C554 C 0.96736 0.57071 0.10375 0.0
H555 H 0.88438 0.55008 0.14909 0.0
H556 H 0.9069 0.54807 0.12382 0.0
H557 H 0.90719 0.53099 0.1516 0.0
H558 H 0.95147 0.52719 0.145 0.0
H559 H 0.96938 0.50543 0.11117 0.0
H560 H 0.41395 0.21141 0.20347 0.0
H561 H 0.43531 0.18278 0.18088 0.0
H562 H 0.37345 0.1674 0.13034 0.0
H563 H 0.35237 0.19658 0.15216 0.0
H564 H 0.42026 0.13565 0.17325 0.0
H565 H 0.43286 0.18013 0.08156 0.0
H566 H 0.42492 0.19448 0.11061 0.0
H567 H 0.40128 0.17619 0.09324 0.0
C568 C 0.40501 0.20216 0.18733 0.0
C569 C 0.38151 0.20648 0.17949 0.0
C570 C 0.41718 0.18568 0.17456 0.0
C571 C 0.40618 0.17324 0.15366 0.0
C572 C 0.38253 0.17714 0.1461 0.0
H573 H 0.4387 0.06618 0.04922 0.0
H574 H 0.42118 0.09559 0.07435 0.0
C575 C 0.37035 0.19364 0.15881 0.0
C576 C 0.41916 0.15587 0.13997 0.0
H577 H 0.44057 0.14115 0.08146 0.0
C578 C 0.42489 0.13691 0.15322 0.0
C579 C 0.42535 0.15765 0.1139 0.0
C580 C 0.42103 0.17831 0.09901 0.0
C581 C 0.43572 0.11918 0.14086 0.0
C582 C 0.44134 0.12067 0.11463 0.0
C583 C 0.43611 0.13992 0.10153 0.0
C584 C 0.45195 0.10217 0.10016 0.0
C585 C 0.44025 0.09864 0.15582 0.0
C586 C 0.47514 0.09602 0.10629 0.0
C587 C 0.48525 0.07904 0.09198 0.0
C588 C 0.47242 0.06801 0.07115 0.0
C589 C 0.44911 0.07416 0.0652 0.0
C590 C 0.43905 0.09108 0.07949 0.0
H591 H 0.42933 0.09737 0.17388 0.0
H592 H 0.43537 0.08233 0.14468 0.0
H593 H 0.46027 0.1004 0.16051 0.0
H594 H 0.48568 0.10466 0.12184 0.0
H595 H 0.50328 0.07486 0.097 0.0
H596 H 0.23591 0.94527 0.56464 0.0
H597 H 0.19293 0.95259 0.56336 0.0
H598 H 0.16705 0.88258 0.58523 0.0
H599 H 0.21034 0.87526 0.58744 0.0
H600 H 0.15693 0.92528 0.5313 0.0
H601 H 0.13009 0.92603 0.63374 0.0
H602 H 0.16226 0.93037 0.62315 0.0
H603 H 0.14432 0.9022 0.62083 0.0
C604 C 0.2211 0.93156 0.56959 0.0
C605 C 0.2263 0.90976 0.5762 0.0
C606 C 0.19666 0.93572 0.56877 0.0
C607 C 0.17712 0.91813 0.57446 0.0
C608 C 0.1821 0.89633 0.58113 0.0
H609 H 0.04072 0.95379 0.51988 0.0
H610 H 0.064 0.92696 0.54052 0.0
C611 C 0.20667 0.89216 0.58207 0.0
C612 C 0.15161 0.92268 0.5716 0.0
H613 H 0.10191 0.93774 0.60508 0.0
C614 C 0.14453 0.92749 0.54728 0.0
C615 C 0.13597 0.92564 0.59271 0.0
C616 C 0.14343 0.92091 0.61918 0.0
C617 C 0.12277 0.9368 0.54355 0.0
C618 C 0.10734 0.94046 0.56476 0.0
C619 C 0.11373 0.93447 0.58899 0.0
C620 C 0.08679 0.95372 0.562 0.0
C621 C 0.11757 0.94434 0.51726 0.0
C622 C 0.09057 0.97716 0.56928 0.0
C623 C 0.07711 0.99242 0.55779 0.0
C624 C 0.06035 0.98415 0.53878 0.0
C625 C 0.05427 0.96038 0.53403 0.0
C626 C 0.0672 0.94509 0.54603 0.0
H627 H 0.13349 0.94342 0.50391 0.0
H628 H 0.10113 0.93299 0.50958 0.0
H629 H 0.11337 0.96235 0.51783 0.0
H630 H 0.10569 0.984 0.58166 0.0
H631 H 0.08154 1.01077 0.5619 0.0
H632 H 0.76871 0.41396 0.86051 0.0
H633 H 0.80682 0.43236 0.88086 0.0
H634 H 0.79581 0.38196 0.93951 0.0
H635 H 0.75782 0.36343 0.91928 0.0
H636 H 0.81627 0.45322 0.92491 0.0
H637 H 0.86652 0.37755 0.92272 0.0
H638 H 0.83784 0.3775 0.9061 0.0
H639 H 0.83735 0.37214 0.93954 0.0
C640 C 0.77422 0.40677 0.87781 0.0
C641 C 0.7599 0.38693 0.88796 0.0
C642 C 0.79627 0.4173 0.88943 0.0
C643 C 0.8049 0.40837 0.91155 0.0
C644 C 0.79036 0.38889 0.92203 0.0
H645 H 0.93475 0.44834 1.00943 0.0
H646 H 0.89636 0.42947 0.98948 0.0
C647 C 0.76838 0.37829 0.91039 0.0
C648 C 0.82848 0.41989 0.92402 0.0
H649 H 0.88447 0.41003 0.94721 0.0
C650 C 0.83121 0.44373 0.92965 0.0
C651 C 0.8482 0.40773 0.9305 0.0
C652 C 0.84748 0.38237 0.92419 0.0
C653 C 0.85244 0.45553 0.9419 0.0
C654 C 0.87227 0.44341 0.94828 0.0
C655 C 0.86953 0.41954 0.9426 0.0
C656 C 0.89596 0.45501 0.96058 0.0
C657 C 0.85274 0.48079 0.94855 0.0
C658 C 0.90931 0.47548 0.95098 0.0
C659 C 0.93091 0.48658 0.96281 0.0
C660 C 0.94052 0.4772 0.98415 0.0
C661 C 0.92791 0.45617 0.99314 0.0
C662 C 0.90586 0.44534 0.98165 0.0
H663 H 0.83356 0.48516 0.95073 0.0
H664 H 0.8628 0.48577 0.96638 0.0
H665 H 0.86205 0.49132 0.93298 0.0
H666 H 0.90317 0.48296 0.93414 0.0
H667 H 0.94031 0.50248 0.95494 0.0
H668 H 0.73511 0.6422 0.3702 0.0
H669 H 0.69682 0.62269 0.3902 0.0
H670 H 0.73986 0.60091 0.45034 0.0
H671 H 0.7784 0.6201 0.43002 0.0
H672 H 0.68633 0.57242 0.40535 0.0
H673 H 0.68351 0.63653 0.48452 0.0
H674 H 0.70086 0.64339 0.45548 0.0
H675 H 0.71255 0.62579 0.47837 0.0
C676 C 0.7364 0.63314 0.38762 0.0
C677 C 0.75973 0.63262 0.39854 0.0
C678 C 0.71453 0.62201 0.39902 0.0
C679 C 0.71542 0.61049 0.42187 0.0
C680 C 0.73871 0.6098 0.43278 0.0
H681 H 0.60049 0.54825 0.52647 0.0
H682 H 0.63914 0.56487 0.50526 0.0
C683 C 0.76071 0.62062 0.42111 0.0
C684 C 0.69194 0.59919 0.43412 0.0
H685 H 0.65228 0.60413 0.48438 0.0
C686 C 0.67885 0.57929 0.42265 0.0
C687 C 0.68223 0.60817 0.45668 0.0
C688 C 0.69533 0.62973 0.46953 0.0
C689 C 0.65661 0.56783 0.43341 0.0
C690 C 0.6466 0.57696 0.45587 0.0
C691 C 0.65975 0.59701 0.46721 0.0
C692 C 0.6229 0.56588 0.4683 0.0
C693 C 0.64462 0.54562 0.42094 0.0
C694 C 0.60059 0.56079 0.4548 0.0
C695 C 0.57844 0.55086 0.46689 0.0
C696 C 0.57797 0.54624 0.4929 0.0
C697 C 0.60022 0.55144 0.50639 0.0
C698 C 0.62236 0.56108 0.49427 0.0
H699 H 0.65834 0.53732 0.4094 0.0
H700 H 0.63598 0.53314 0.43516 0.0
H701 H 0.62993 0.54941 0.40805 0.0
H702 H 0.60011 0.5649 0.43498 0.0
H703 H 0.56156 0.54735 0.45601 0.0
H704 H 0.27474 0.36886 0.21159 0.0
H705 H 0.24341 0.39052 0.19566 0.0
H706 H 0.21436 0.33206 0.1484 0.0
H707 H 0.24436 0.3097 0.16551 0.0
H708 H 0.23405 0.40424 0.14983 0.0
H709 H 0.15186 0.34518 0.18351 0.0
H710 H 0.18298 0.343 0.19352 0.0
H711 H 0.17177 0.33015 0.1638 0.0
C712 C 0.26143 0.3604 0.19814 0.0
C713 C 0.26198 0.33733 0.19015 0.0
C714 C 0.24365 0.37294 0.18886 0.0
C715 C 0.2261 0.36276 0.17129 0.0
C716 C 0.2272 0.34008 0.16252 0.0
H717 H 0.11991 0.4006 0.07139 0.0
H718 H 0.15185 0.38511 0.09466 0.0
C719 C 0.24473 0.32742 0.17203 0.0
C720 C 0.20683 0.37587 0.16181 0.0
H721 H 0.14437 0.37181 0.15168 0.0
C722 C 0.21441 0.39731 0.15058 0.0
C723 C 0.18112 0.36705 0.16315 0.0
C724 C 0.17143 0.34521 0.17691 0.0
C725 C 0.19709 0.40949 0.13947 0.0
C726 C 0.17167 0.3999 0.13949 0.0
C727 C 0.16396 0.37897 0.15153 0.0
C728 C 0.15302 0.41031 0.12537 0.0
C729 C 0.20604 0.4321 0.12695 0.0
C730 C 0.14307 0.42962 0.13505 0.0
C731 C 0.12475 0.43865 0.1217 0.0
C732 C 0.11622 0.42852 0.09842 0.0
C733 C 0.12634 0.40913 0.08896 0.0
C734 C 0.1445 0.40014 0.1023 0.0
H735 H 0.22658 0.43686 0.12779 0.0
H736 H 0.20041 0.43106 0.10682 0.0
H737 H 0.19715 0.44603 0.13641 0.0
H738 H 0.14934 0.43757 0.15297 0.0
H739 H 0.11746 0.45365 0.12946 0.0
H740 H 0.60969 0.22759 0.84893 0.0
H741 H 0.59406 0.1927 0.87066 0.0
H742 H 0.60884 0.22759 0.94253 0.0
H743 H 0.62576 0.26272 0.92128 0.0
H744 H 0.61418 0.16538 0.90148 0.0
H745 H 0.53751 0.19938 0.95401 0.0
H746 H 0.5553 0.21525 0.92931 0.0
H747 H 0.56753 0.21537 0.96071 0.0
C748 C 0.61022 0.22843 0.86932 0.0
C749 C 0.61948 0.24913 0.88272 0.0
C750 C 0.60084 0.20799 0.88187 0.0
C751 C 0.59965 0.20725 0.90841 0.0
C752 C 0.60883 0.22757 0.92204 0.0
H753 H 0.54802 0.09004 1.01054 0.0
H754 H 0.56935 0.1269 0.99369 0.0
C755 C 0.61861 0.24801 0.90953 0.0
C756 C 0.58922 0.18516 0.92154 0.0
H757 H 0.54475 0.1617 0.9644 0.0
C758 C 0.59902 0.16471 0.91525 0.0
C759 C 0.56927 0.18386 0.93954 0.0
C760 C 0.55659 0.20456 0.94614 0.0
C761 C 0.5897 0.1434 0.92639 0.0
C762 C 0.56986 0.14214 0.9444 0.0
C763 C 0.56016 0.16256 0.95092 0.0
C764 C 0.55777 0.11948 0.95503 0.0
C765 C 0.60121 0.12226 0.91882 0.0
C766 C 0.54412 0.10288 0.93913 0.0
C767 C 0.53183 0.08205 0.94874 0.0
C768 C 0.533 0.07683 0.97454 0.0
C769 C 0.54711 0.0932 0.99051 0.0
C770 C 0.55912 0.1144 0.98089 0.0
H771 H 0.61958 0.12679 0.90917 0.0
H772 H 0.60362 0.11188 0.93565 0.0
H773 H 0.58867 0.11131 0.90561 0.0
H774 H 0.54246 0.10628 0.91924 0.0
H775 H 0.52097 0.07005 0.9359 0.0
H776 H 0.88947 0.7941 0.3662 0.0
H777 H 0.90645 0.83084 0.38632 0.0
H778 H 0.92519 0.795 0.45183 0.0
H779 H 0.90941 0.758 0.43126 0.0
H780 H 0.89464 0.85324 0.42746 0.0
H781 H 0.99056 0.83387 0.43929 0.0
H782 H 0.96784 0.81534 0.42089 0.0
H783 H 0.9676 0.81366 0.45488 0.0
C784 C 0.89763 0.79387 0.3847 0.0
C785 C 0.89843 0.77278 0.39675 0.0
C786 C 0.90715 0.81505 0.39634 0.0
C787 C 0.91778 0.8159 0.42044 0.0
C788 C 0.91785 0.79497 0.43294 0.0
H789 H 0.9813 0.93035 0.52054 0.0
H790 H 0.96371 0.89274 0.50217 0.0
C791 C 0.90845 0.77372 0.42123 0.0
C792 C 0.92842 0.83869 0.43241 0.0
H793 H 0.98097 0.86839 0.45917 0.0
C794 C 0.91357 0.8565 0.43428 0.0
C795 C 0.95317 0.84323 0.44139 0.0
C796 C 0.9708 0.8256 0.4388 0.0
C797 C 0.92256 0.87835 0.44503 0.0
C798 C 0.94722 0.88277 0.45405 0.0
C799 C 0.96204 0.86502 0.45236 0.0
C800 C 0.958 0.90573 0.46513 0.0
C801 C 0.90543 0.89645 0.44708 0.0
C802 C 0.96106 0.9256 0.45038 0.0
C803 C 0.97124 0.94711 0.46079 0.0
C804 C 0.97855 0.94932 0.48628 0.0
C805 C 0.97567 0.92937 0.50095 0.0
C806 C 0.96567 0.90781 0.49044 0.0
H807 H 0.8856 0.88881 0.4449 0.0
H808 H 0.90753 0.90589 0.46558 0.0
H809 H 0.91031 0.90914 0.4319 0.0
H810 H 0.95575 0.92445 0.43069 0.0
H811 H 0.97328 0.96203 0.44883 0.0
H812 H 0.32575 0.78946 0.52456 0.0
H813 H 0.34075 0.75257 0.51589 0.0
H814 H 0.34917 0.74404 0.59589 0.0
H815 H 0.33507 0.78114 0.60475 0.0
H816 H 0.3948 0.75392 0.552 0.0
H817 H 0.31996 0.67812 0.54434 0.0
H818 H 0.31542 0.70624 0.53354 0.0
H819 H 0.31685 0.7014 0.56675 0.0
C820 C 0.3301 0.77935 0.54031 0.0
C821 C 0.32987 0.78826 0.56523 0.0
C822 C 0.3384 0.75831 0.53533 0.0
C823 C 0.34601 0.74598 0.55531 0.0
C824 C 0.3431 0.7535 0.58038 0.0
H825 H 0.42106 0.63381 0.58209 0.0
H826 H 0.39427 0.66381 0.5804 0.0
C827 C 0.335 0.77461 0.58538 0.0
C828 C 0.36198 0.72845 0.55004 0.0
H829 H 0.36166 0.67066 0.543 0.0
C830 C 0.38773 0.73569 0.54968 0.0
C831 C 0.35227 0.70499 0.54724 0.0
C832 C 0.3246 0.69701 0.54792 0.0
C833 C 0.40435 0.71967 0.5476 0.0
C834 C 0.39469 0.69602 0.54516 0.0
C835 C 0.36885 0.68891 0.54467 0.0
C836 C 0.41098 0.67823 0.54568 0.0
C837 C 0.43194 0.72807 0.54942 0.0
C838 C 0.42927 0.67678 0.52681 0.0
C839 C 0.44485 0.65993 0.52802 0.0
C840 C 0.44176 0.64428 0.54782 0.0
C841 C 0.42346 0.64576 0.56661 0.0
C842 C 0.4082 0.66272 0.5656 0.0
H843 H 0.43579 0.74623 0.55656 0.0
H844 H 0.4409 0.71704 0.56214 0.0
H845 H 0.44075 0.72718 0.53036 0.0
H846 H 0.43136 0.68852 0.51116 0.0
H847 H 0.45886 0.65879 0.51333 0.0
H848 H 0.76575 0.84992 0.74954 0.0
H849 H 0.79715 0.86629 0.71919 0.0
H850 H 0.77907 0.80691 0.66946 0.0
H851 H 0.74663 0.79043 0.69962 0.0
H852 H 0.83792 0.83953 0.70179 0.0
H853 H 0.77947 0.86866 0.62667 0.0
H854 H 0.76817 0.86495 0.65889 0.0
H855 H 0.7714 0.84014 0.63923 0.0
C856 C 0.76779 0.8406 0.73182 0.0
C857 C 0.75343 0.81906 0.72669 0.0
C858 C 0.78594 0.84986 0.71471 0.0
C859 C 0.79012 0.83769 0.69233 0.0
C860 C 0.77572 0.81642 0.68674 0.0
H861 H 0.90695 0.89854 0.58734 0.0
H862 H 0.87411 0.8697 0.60489 0.0
C863 C 0.75737 0.8071 0.7039 0.0
C864 C 0.81049 0.84721 0.67562 0.0
H865 H 0.82276 0.88042 0.62378 0.0
C866 C 0.83478 0.84799 0.68436 0.0
C867 C 0.80593 0.85827 0.65319 0.0
C868 C 0.77986 0.85814 0.64381 0.0
C869 C 0.85479 0.86068 0.6717 0.0
C870 C 0.85006 0.8727 0.65 0.0
C871 C 0.82601 0.87087 0.64041 0.0
C872 C 0.86932 0.88969 0.63914 0.0
C873 C 0.88062 0.86217 0.68226 0.0
C874 C 0.87682 0.91022 0.65274 0.0
C875 C 0.89545 0.92647 0.64301 0.0
C876 C 0.90656 0.9224 0.61942 0.0
C877 C 0.89871 0.90188 0.60565 0.0
C878 C 0.88003 0.88556 0.6155 0.0
H879 H 0.88202 0.84794 0.69541 0.0
H880 H 0.89468 0.86168 0.66677 0.0
H881 H 0.88523 0.87879 0.69291 0.0
H882 H 0.8684 0.91354 0.671 0.0
H883 H 0.90147 0.942 0.65414 0.0
H884 H 0.70907 0.14745 0.29041 0.0
H885 H 0.67874 0.12738 0.26111 0.0
H886 H 0.62887 0.10642 0.32371 0.0
H887 H 0.65908 0.12719 0.35327 0.0
H888 H 0.65585 0.08065 0.25952 0.0
H889 H 0.59003 0.14458 0.27673 0.0
H890 H 0.62196 0.15002 0.28675 0.0
H891 H 0.59971 0.13007 0.30361 0.0
C892 C 0.69169 0.13844 0.29786 0.0
C893 C 0.68603 0.13898 0.32381 0.0
C894 C 0.67455 0.12694 0.28126 0.0
C895 C 0.6517 0.11581 0.29051 0.0
C896 C 0.64645 0.11524 0.31651 0.0
H897 H 0.5495 0.05325 0.17481 0.0
H898 H 0.56291 0.06497 0.21786 0.0
C899 C 0.66366 0.12686 0.33323 0.0
C900 C 0.63314 0.10606 0.27231 0.0
H901 H 0.5822 0.11879 0.24218 0.0
C902 C 0.63928 0.08841 0.25611 0.0
C903 C 0.612 0.11682 0.26795 0.0
C904 C 0.60547 0.13652 0.28453 0.0
C905 C 0.62548 0.08206 0.23454 0.0
C906 C 0.60499 0.09347 0.22965 0.0
C907 C 0.59787 0.1101 0.24657 0.0
C908 C 0.59321 0.09045 0.20524 0.0
C909 C 0.63399 0.06452 0.21612 0.0
C910 C 0.60547 0.1018 0.18463 0.0
C911 C 0.59823 0.09501 0.16032 0.0
C912 C 0.57856 0.07694 0.15658 0.0
C913 C 0.56491 0.06703 0.17741 0.0
C914 C 0.57233 0.07377 0.20182 0.0
H915 H 0.64764 0.05471 0.22466 0.0
H916 H 0.61786 0.05218 0.20936 0.0
H917 H 0.64301 0.07356 0.19939 0.0
H918 H 0.62179 0.11463 0.18732 0.0
H919 H 0.60925 0.10268 0.14456 0.0
H920 H 0.36404 0.61819 0.2884 0.0
H921 H 0.38043 0.59947 0.32379 0.0
H922 H 0.44794 0.64811 0.32047 0.0
H923 H 0.43179 0.6669 0.2849 0.0
H924 H 0.41871 0.57697 0.32978 0.0
H925 H 0.43401 0.65328 0.3943 0.0
H926 H 0.41739 0.65346 0.36514 0.0
H927 H 0.45094 0.65773 0.36495 0.0
C928 C 0.38246 0.62502 0.29494 0.0
C929 C 0.39631 0.64443 0.2833 0.0
C930 C 0.39185 0.61421 0.31553 0.0
C931 C 0.41542 0.6224 0.32564 0.0
C932 C 0.42942 0.64161 0.31395 0.0
H933 H 0.50302 0.58236 0.45272 0.0
H934 H 0.48652 0.60078 0.41679 0.0
C935 C 0.42004 0.65247 0.29333 0.0
C936 C 0.42535 0.61054 0.34787 0.0
H937 H 0.45034 0.62014 0.40712 0.0
C938 C 0.42553 0.58648 0.3467 0.0
C939 C 0.43447 0.62257 0.37027 0.0
C940 C 0.434 0.64814 0.37392 0.0
C941 C 0.43499 0.57444 0.3665 0.0
C942 C 0.44404 0.58646 0.38906 0.0
C943 C 0.44369 0.61054 0.39019 0.0
C944 C 0.45418 0.57476 0.41144 0.0
C945 C 0.43592 0.549 0.36227 0.0
C946 C 0.44178 0.55392 0.42145 0.0
C947 C 0.45172 0.54303 0.44171 0.0
C948 C 0.47385 0.55305 0.45354 0.0
C949 C 0.48582 0.57422 0.44432 0.0
C950 C 0.47628 0.58479 0.42358 0.0
H951 H 0.43674 0.5444 0.34177 0.0
H952 H 0.4523 0.5436 0.37141 0.0
H953 H 0.4187 0.53901 0.37024 0.0
H954 H 0.42423 0.54595 0.41375 0.0
H955 H 0.44192 0.52677 0.44829 0.0
H956 H 0.09135 0.373 0.79121 0.0
H957 H 0.07617 0.39256 0.82807 0.0
H958 H 0.12212 0.45572 0.80761 0.0
H959 H 0.13908 0.4361 0.77147 0.0
H960 H 0.10495 0.41845 0.87026 0.0
H961 H 0.04919 0.47246 0.8166 0.0
H962 H 0.05971 0.44693 0.80285 0.0
H963 H 0.08117 0.47309 0.80664 0.0
C964 C 0.09895 0.3909 0.7944 0.0
C965 C 0.11701 0.40247 0.77759 0.0
C966 C 0.08983 0.40222 0.81572 0.0
C967 C 0.09775 0.42576 0.82086 0.0
C968 C 0.11541 0.4376 0.80415 0.0
H969 H 0.05004 0.5279 0.92751 0.0
H970 H 0.06816 0.5064 0.89372 0.0
C971 C 0.125 0.42618 0.78308 0.0
C972 C 0.0875 0.43778 0.8436 0.0
H973 H 0.05069 0.47865 0.86072 0.0
C974 C 0.09307 0.43164 0.8682 0.0
C975 C 0.07202 0.45506 0.84118 0.0
C976 C 0.06493 0.46227 0.81545 0.0
C977 C 0.08431 0.44264 0.89018 0.0
C978 C 0.06848 0.45984 0.88786 0.0
C979 C 0.06273 0.46566 0.86308 0.0
C980 C 0.05846 0.47282 0.91037 0.0
C981 C 0.09308 0.4362 0.91555 0.0
C982 C 0.0469 0.46168 0.93196 0.0
C983 C 0.0369 0.47432 0.95203 0.0
C984 C 0.0376 0.49844 0.95083 0.0
C985 C 0.04912 0.50941 0.92933 0.0
C986 C 0.05946 0.49697 0.9097 0.0
H987 H 0.11086 0.42894 0.91373 0.0
H988 H 0.09589 0.45134 0.9288 0.0
H989 H 0.07895 0.42275 0.92387 0.0
H990 H 0.04492 0.44309 0.9331 0.0
H991 H 0.02785 0.46512 0.96798 0.0
H992 H 0.59767 0.82144 0.84623 0.0
H993 H 0.57546 0.85213 0.86383 0.0
H994 H 0.6357 0.87329 0.91509 0.0
H995 H 0.65815 0.84337 0.89737 0.0
H996 H 0.56077 0.86043 0.91623 0.0
H997 H 0.62721 0.93294 0.87829 0.0
H998 H 0.62553 0.90369 0.86602 0.0
H999 H 0.64175 0.91221 0.89484 0.0
C1000 C 0.60614 0.83264 0.86126 0.0
C1001 C 0.62958 0.82975 0.87057 0.0
C1002 C 0.59342 0.8501 0.87131 0.0
C1003 C 0.6041 0.86512 0.89056 0.0
C1004 C 0.62727 0.86207 0.90005 0.0
H1005 H 0.57363 0.97674 0.98816 0.0
H1006 H 0.59059 0.94653 0.96368 0.0
C1007 C 0.63991 0.84469 0.89011 0.0
C1008 C 0.59124 0.88403 0.90104 0.0
H1009 H 0.59899 0.94249 0.91075 0.0
C1010 C 0.56886 0.87841 0.91474 0.0
C1011 C 0.60192 0.90744 0.89907 0.0
C1012 C 0.62531 0.91452 0.88356 0.0
C1013 C 0.55744 0.89557 0.9275 0.0
C1014 C 0.56853 0.91894 0.92613 0.0
C1015 C 0.59056 0.92457 0.91184 0.0
C1016 C 0.5582 0.93771 0.94029 0.0
C1017 C 0.53421 0.8885 0.94323 0.0
C1018 C 0.5345 0.94308 0.93496 0.0
C1019 C 0.52467 0.96039 0.94896 0.0
C1020 C 0.53845 0.97274 0.96845 0.0
C1021 C 0.56246 0.96765 0.97328 0.0
C1022 C 0.57222 0.95035 0.95932 0.0
H1023 H 0.53087 0.86961 0.94637 0.0
H1024 H 0.53544 0.89769 0.96192 0.0
H1025 H 0.51789 0.89319 0.93334 0.0
H1026 H 0.52356 0.93383 0.92003 0.0
H1027 H 0.50617 0.96388 0.94467 0.0
H1028 H 0.84047 0.17563 0.46433 0.0
H1029 H 0.86839 0.15054 0.47996 0.0
H1030 H 0.80647 0.09581 0.48865 0.0
H1031 H 0.77855 0.12065 0.47145 0.0
H1032 H 0.87569 0.12325 0.51736 0.0
H1033 H 0.84583 0.07203 0.43019 0.0
H1034 H 0.83582 0.09943 0.43783 0.0
H1035 H 0.82151 0.07376 0.45338 0.0
C1036 C 0.83276 0.15847 0.47033 0.0
C1037 C 0.80781 0.14957 0.46594 0.0
C1038 C 0.84862 0.14422 0.47934 0.0
C1039 C 0.83946 0.12117 0.48437 0.0
C1040 C 0.81378 0.11343 0.48398 0.0
H1041 H 0.92165 0.01521 0.51863 0.0
H1042 H 0.88878 0.03576 0.50361 0.0
C1043 C 0.79789 0.12762 0.47447 0.0
C1044 C 0.8573 0.10484 0.48561 0.0
H1045 H 0.87771 0.05968 0.45357 0.0
C1046 C 0.87608 0.10925 0.50356 0.0
C1047 C 0.85799 0.08714 0.4669 0.0
C1048 C 0.83938 0.08289 0.44582 0.0
C1049 C 0.89559 0.09623 0.50348 0.0
C1050 C 0.8959 0.07828 0.48518 0.0
C1051 C 0.87715 0.07367 0.46734 0.0
C1052 C 0.91448 0.06284 0.48625 0.0
C1053 C 0.9157 0.10168 0.52297 0.0
C1054 C 0.93936 0.07087 0.47994 0.0
C1055 C 0.958 0.05921 0.48852 0.0
C1056 C 0.95154 0.03966 0.50321 0.0
C1057 C 0.92663 0.03039 0.50729 0.0
C1058 C 0.90802 0.04194 0.49863 0.0
H1059 H 0.91104 0.11442 0.53759 0.0
H1060 H 0.91889 0.08572 0.53251 0.0
H1061 H 0.9334 0.10894 0.51341 0.0
H1062 H 0.94438 0.0871 0.47043 0.0
H1063 H 0.97733 0.06645 0.48546 0.0
H1064 H 0.25866 0.61329 0.15945 0.0
H1065 H 0.22063 0.59433 0.13919 0.0
H1066 H 0.2114 0.65855 0.10501 0.0
H1067 H 0.25011 0.67709 0.12405 0.0
H1068 H 0.175 0.59722 0.1421 0.0
H1069 H 0.2007 0.62075 0.04356 0.0
H1070 H 0.22267 0.62644 0.0688 0.0
H1071 H 0.2007 0.64606 0.06326 0.0
C1072 C 0.24857 0.62336 0.14754 0.0
C1073 C 0.25772 0.64674 0.14329 0.0
C1074 C 0.22671 0.61246 0.13585 0.0
C1075 C 0.21308 0.62462 0.11974 0.0
C1076 C 0.2218 0.64824 0.11627 0.0
H1077 H 0.07071 0.58931 0.04004 0.0
H1078 H 0.10871 0.60907 0.05994 0.0
C1079 C 0.24394 0.65899 0.12748 0.0
C1080 C 0.18951 0.61281 0.10737 0.0
H1081 H 0.15813 0.60564 0.05125 0.0
C1082 C 0.17155 0.59901 0.12217 0.0
C1083 C 0.18451 0.61483 0.08124 0.0
C1084 C 0.2033 0.62762 0.06328 0.0
C1085 C 0.149 0.58774 0.11195 0.0
C1086 C 0.14391 0.5901 0.08599 0.0
C1087 C 0.16173 0.6039 0.07117 0.0
C1088 C 0.12058 0.57801 0.07373 0.0
C1089 C 0.13062 0.57372 0.12933 0.0
C1090 C 0.11451 0.55384 0.07425 0.0
C1091 C 0.09277 0.5425 0.0629 0.0
C1092 C 0.07638 0.5549 0.0504 0.0
C1093 C 0.08268 0.57909 0.04949 0.0
C1094 C 0.10451 0.59045 0.06091 0.0
H1095 H 0.13358 0.57916 0.14947 0.0
H1096 H 0.11114 0.57522 0.12444 0.0
H1097 H 0.13314 0.55528 0.12748 0.0
H1098 H 0.12674 0.54362 0.0833 0.0
H1099 H 0.08887 0.52388 0.06397 0.0
H1100 H 0.27901 0.4176 0.67029 0.0
H1101 H 0.31656 0.43477 0.64822 0.0
H1102 H 0.28296 0.4143 0.57655 0.0
H1103 H 0.24556 0.39547 0.5984 0.0
H1104 H 0.34703 0.41094 0.61028 0.0
H1105 H 0.30872 0.48658 0.57382 0.0
H1106 H 0.29484 0.47043 0.60047 0.0
H1107 H 0.29062 0.45855 0.56898 0.0
C1108 C 0.27945 0.41614 0.64985 0.0
C1109 C 0.25888 0.40455 0.63641 0.0
C1110 C 0.30106 0.42631 0.63723 0.0
C1111 C 0.30265 0.42587 0.61075 0.0
C1112 C 0.28213 0.41495 0.59705 0.0
H1113 H 0.41695 0.48488 0.50341 0.0
H1114 H 0.37866 0.46753 0.52485 0.0
C1115 C 0.26058 0.40432 0.60969 0.0
C1116 C 0.32592 0.43672 0.59768 0.0
H1117 H 0.35014 0.48291 0.56215 0.0
C1118 C 0.34774 0.42668 0.59975 0.0
C1119 C 0.32684 0.45723 0.58393 0.0
C1120 C 0.30411 0.46903 0.58168 0.0
C1121 C 0.37034 0.43638 0.58814 0.0
C1122 C 0.3714 0.45713 0.57465 0.0
C1123 C 0.34948 0.46711 0.57255 0.0
C1124 C 0.39482 0.46842 0.562 0.0
C1125 C 0.39267 0.42391 0.58984 0.0
C1126 C 0.41672 0.4753 0.57574 0.0
C1127 C 0.43874 0.48527 0.56346 0.0
C1128 C 0.4393 0.48869 0.53718 0.0
C1129 C 0.41721 0.48242 0.52364 0.0
C1130 C 0.39525 0.47248 0.5359 0.0
H1131 H 0.38716 0.40547 0.59452 0.0
H1132 H 0.40355 0.42482 0.57177 0.0
H1133 H 0.40497 0.43214 0.60503 0.0
H1134 H 0.41682 0.47291 0.59598 0.0
H1135 H 0.45541 0.48995 0.57446 0.0
H1136 H 0.78847 0.70735 0.81638 0.0
H1137 H 0.81486 0.68046 0.83179 0.0
H1138 H 0.76247 0.66208 0.89288 0.0
H1139 H 0.73612 0.68941 0.87789 0.0
H1140 H 0.83326 0.6879 0.88385 0.0
H1141 H 0.78377 0.59922 0.86493 0.0
H1142 H 0.77832 0.62371 0.8468 0.0
H1143 H 0.76581 0.62024 0.87836 0.0
C1144 C 0.78233 0.69731 0.83286 0.0
C1145 C 0.76039 0.70077 0.84617 0.0
C1146 C 0.79738 0.68189 0.84155 0.0
C1147 C 0.79062 0.66935 0.86345 0.0
C1148 C 0.76787 0.67146 0.87577 0.0
H1149 H 0.86888 0.58639 0.95854 0.0
H1150 H 0.83778 0.60431 0.93657 0.0
C1151 C 0.7528 0.68703 0.86715 0.0
C1152 C 0.80886 0.65649 0.87504 0.0
H1153 H 0.82061 0.60253 0.88878 0.0
C1154 C 0.8306 0.66922 0.88484 0.0
C1155 C 0.80509 0.6322 0.87653 0.0
C1156 C 0.78208 0.6179 0.866 0.0
C1157 C 0.84865 0.65834 0.89638 0.0
C1158 C 0.84523 0.63394 0.89744 0.0
C1159 C 0.82334 0.62119 0.88774 0.0
C1160 C 0.86387 0.62151 0.90926 0.0
C1161 C 0.87083 0.67321 0.90798 0.0
C1162 C 0.88878 0.6246 0.90075 0.0
C1163 C 0.90677 0.61481 0.91363 0.0
C1164 C 0.90014 0.60135 0.93507 0.0
C1165 C 0.87485 0.59714 0.94255 0.0
C1166 C 0.85695 0.60717 0.92984 0.0
H1167 H 0.86708 0.69112 0.91195 0.0
H1168 H 0.87614 0.66591 0.92591 0.0
H1169 H 0.8869 0.67416 0.89454 0.0
H1170 H 0.89446 0.6351 0.88449 0.0
H1171 H 0.92599 0.61856 0.9073 0.0
H1172 H 0.43498 0.78964 0.1624 0.0
H1173 H 0.44997 0.82605 0.1424 0.0
H1174 H 0.37842 0.82575 0.10866 0.0
H1175 H 0.36328 0.7889 0.12797 0.0
H1176 H 0.45683 0.83863 0.09526 0.0
H1177 H 0.38779 0.88999 0.13724 0.0
H1178 H 0.39035 0.86135 0.1476 0.0
H1179 H 0.37354 0.86528 0.11939 0.0
C1180 C 0.42223 0.79695 0.1506 0.0
C1181 C 0.3976 0.78568 0.14721 0.0
C1182 C 0.43094 0.81816 0.13921 0.0
C1183 C 0.41536 0.82929 0.12424 0.0
C1184 C 0.39083 0.81817 0.12064 0.0
H1185 H 0.44903 0.96137 0.03967 0.0
H1186 H 0.42827 0.92359 0.05487 0.0
C1187 C 0.38211 0.79683 0.13189 0.0
C1188 C 0.42518 0.852 0.1119 0.0
H1189 H 0.41467 0.90803 0.10527 0.0
C1190 C 0.4475 0.85373 0.09755 0.0
C1191 C 0.41325 0.87203 0.11456 0.0
C1192 C 0.39005 0.87221 0.13073 0.0
C1193 C 0.45804 0.87449 0.08596 0.0
C1194 C 0.44625 0.89455 0.08879 0.0
C1195 C 0.42372 0.89279 0.10275 0.0
C1196 C 0.45821 0.91779 0.07928 0.0
C1197 C 0.48178 0.87463 0.07058 0.0
C1198 C 0.48168 0.92758 0.08811 0.0
C1199 C 0.49334 0.94905 0.07967 0.0
C1200 C 0.48209 0.96179 0.06202 0.0
C1201 C 0.45838 0.95219 0.05319 0.0
C1202 C 0.44649 0.93053 0.06192 0.0
H1203 H 0.48419 0.85698 0.0637 0.0
H1204 H 0.48215 0.88598 0.05404 0.0
H1205 H 0.49789 0.88119 0.08265 0.0
H1206 H 0.49108 0.91864 0.10182 0.0
H1207 H 0.51153 0.95563 0.08705 0.0
H1208 H 0.08497 0.26116 0.65589 0.0
H1209 H 0.06737 0.22373 0.63779 0.0
H1210 H 0.13481 0.22088 0.59429 0.0
H1211 H 0.15221 0.25869 0.611 0.0
H1212 H 0.05841 0.20782 0.58788 0.0
H1213 H 0.12671 0.16005 0.63202 0.0
H1214 H 0.12348 0.18937 0.64124 0.0
H1215 H 0.14085 0.18355 0.61304 0.0
C1216 C 0.09611 0.25297 0.64218 0.0
C1217 C 0.12042 0.26338 0.63544 0.0
C1218 C 0.08597 0.23128 0.63197 0.0
C1219 C 0.09992 0.21909 0.6151 0.0
C1220 C 0.12384 0.22955 0.60779 0.0
H1221 H 0.06322 0.09561 0.51937 0.0
H1222 H 0.07922 0.1339 0.53736 0.0
C1223 C 0.13385 0.25135 0.61763 0.0
C1224 C 0.08952 0.19557 0.605 0.0
H1225 H 0.10017 0.13928 0.60133 0.0
C1226 C 0.06752 0.19286 0.59093 0.0
C1227 C 0.10124 0.17586 0.60903 0.0
C1228 C 0.12424 0.17723 0.62485 0.0
C1229 C 0.05737 0.17123 0.58038 0.0
C1230 C 0.06936 0.15174 0.58406 0.0
C1231 C 0.09109 0.15429 0.59839 0.0
C1232 C 0.05951 0.12854 0.57317 0.0
C1233 C 0.03387 0.16919 0.56528 0.0
C1234 C 0.04328 0.11274 0.5874 0.0
C1235 C 0.03434 0.09076 0.57728 0.0
C1236 C 0.04126 0.0842 0.55259 0.0
C1237 C 0.0574 0.10015 0.53834 0.0
C1238 C 0.06658 0.12203 0.54861 0.0
H1239 H 0.02701 0.18604 0.56357 0.0
H1240 H 0.03726 0.16217 0.54601 0.0
H1241 H 0.01912 0.15686 0.57448 0.0
H1242 H 0.03752 0.11742 0.60635 0.0
H1243 H 0.02175 0.07899 0.5887 0.0
H1244 H 0.72064 0.2874 0.45383 0.0
H1245 H 0.69272 0.31281 0.47123 0.0
H1246 H 0.63885 0.25393 0.49046 0.0
H1247 H 0.6673 0.22803 0.47397 0.0
H1248 H 0.64439 0.3048 0.44475 0.0
H1249 H 0.63689 0.30461 0.55021 0.0
H1250 H 0.66452 0.29814 0.53347 0.0
H1251 H 0.63665 0.2776 0.53294 0.0
C1252 C 0.70342 0.27974 0.46284 0.0
C1253 C 0.69598 0.25575 0.46233 0.0
C1254 C 0.68748 0.2943 0.47268 0.0
C1255 C 0.66392 0.28508 0.48199 0.0
C1256 C 0.65716 0.26117 0.4835 0.0
H1257 H 0.54049 0.36472 0.49984 0.0
H1258 H 0.56454 0.33238 0.50105 0.0
C1259 C 0.67325 0.2465 0.47383 0.0
C1260 C 0.6451 0.30039 0.48509 0.0
H1261 H 0.61339 0.32889 0.52887 0.0
C1262 C 0.63738 0.30994 0.4631 0.0
C1263 C 0.63598 0.30657 0.50905 0.0
C1264 C 0.64389 0.29632 0.53289 0.0
C1265 C 0.62142 0.3265 0.46454 0.0
C1266 C 0.61332 0.33365 0.4886 0.0
C1267 C 0.61997 0.32328 0.51055 0.0
C1268 C 0.59948 0.35314 0.4911 0.0
C1269 C 0.61393 0.33673 0.44042 0.0
C1270 C 0.61161 0.37527 0.48568 0.0
C1271 C 0.59806 0.39357 0.48483 0.0
C1272 C 0.57226 0.38985 0.48945 0.0
C1273 C 0.56036 0.36782 0.49598 0.0
C1274 C 0.57398 0.34949 0.49685 0.0
H1275 H 0.61666 0.32552 0.42361 0.0
H1276 H 0.59413 0.33952 0.44147 0.0
H1277 H 0.62557 0.35372 0.43764 0.0
H1278 H 0.63137 0.37817 0.48121 0.0
H1279 H 0.60755 0.41036 0.47949 0.0
loop_
_geom_bond_atom_site_label_1
_geom_bond_atom_site_label_2
_geom_bond_distance
_geom_bond_site_symmetry_2
_ccdc_geom_bond_type
P0 O11 1.490 . S
P0 C14 1.812 . S
P0 C20 1.803 . S
P0 C26 1.819 . S
H1 C15 0.941 . S
H2 C16 0.939 . S
H3 C18 0.940 . S
H4 C19 0.940 . S
H5 C21 0.939 . S
H6 C22 0.942 . S
H7 C24 0.940 . S
H8 C25 0.939 . S
H9 C27 0.941 . S
H10 C31 0.939 . S
O11 P0 1.490 . S
H12 C28 0.939 . S
H13 C30 0.940 . S
C14 P0 1.812 . S
C14 C15 1.389 . S
C14 C19 1.391 . S
C15 H1 0.941 . S
C15 C14 1.389 . S
C15 C16 1.397 . S
C16 H2 0.939 . S
C16 C15 1.397 . S
C16 C17 1.378 . S
C17 C16 1.378 . S
C17 C18 1.378 . S
C18 H3 0.940 . S
C18 C17 1.378 . S
C18 C19 1.396 . S
C19 H4 0.940 . S
C19 C14 1.391 . S
C19 C18 1.396 . S
C20 P0 1.803 . S
C20 C21 1.378 . S
C20 C25 1.400 . S
C21 H5 0.939 . S
C21 C20 1.378 . S
C21 C22 1.361 . S
C22 H6 0.942 . S
C22 C21 1.361 . S
C22 C23 1.369 . S
C23 C22 1.369 . S
C23 C24 1.404 . S
C24 H7 0.940 . S
C24 C23 1.404 . S
C24 C25 1.389 . S
C25 H8 0.939 . S
C25 C20 1.400 . S
C25 C24 1.389 . S
C26 P0 1.819 . S
C26 C27 1.391 . S
C26 C31 1.391 . S
C27 H9 0.941 . S
C27 C26 1.391 . S
C27 C28 1.396 . S
C28 H12 0.939 . S
C28 C27 1.396 . S
C28 C29 1.397 . S
C29 C28 1.397 . S
C29 C30 1.385 . S
C30 H13 0.940 . S
C30 C29 1.385 . S
C30 C31 1.388 . S
C31 H10 0.939 . S
C31 C26 1.391 . S
C31 C30 1.388 . S
P32 O43 1.490 . S
P32 C46 1.812 . S
P32 C52 1.803 . S
P32 C58 1.819 . S
H33 C47 0.941 . S
H34 C48 0.939 . S
H35 C50 0.940 . S
H36 C51 0.940 . S
H37 C53 0.939 . S
H38 C54 0.942 . S
H39 C56 0.940 . S
H40 C57 0.939 . S
H41 C59 0.941 . S
H42 C63 0.939 . S
O43 P32 1.490 . S
H44 C60 0.939 . S
H45 C62 0.940 . S
C46 P32 1.812 . S
C46 C47 1.389 . S
C46 C51 1.391 . S
C47 H33 0.941 . S
C47 C46 1.389 . S
C47 C48 1.397 . S
C48 H34 0.939 . S
C48 C47 1.397 . S
C48 C49 1.378 . S
C49 C48 1.378 . S
C49 C50 1.378 . S
C50 H35 0.940 . S
C50 C49 1.378 . S
C50 C51 1.396 . S
C51 H36 0.940 . S
C51 C46 1.391 . S
C51 C50 1.396 . S
C52 P32 1.803 . S
C52 C53 1.378 . S
C52 C57 1.400 . S
C53 H37 0.939 . S
C53 C52 1.378 . S
C53 C54 1.361 . S
C54 H38 0.942 . S
C54 C53 1.361 . S
C54 C55 1.369 . S
C55 C54 1.369 . S
C55 C56 1.404 . S
C56 H39 0.940 . S
C56 C55 1.404 . S
C56 C57 1.389 . S
C57 H40 0.939 . S
C57 C52 1.400 . S
C57 C56 1.389 . S
C58 P32 1.819 . S
C58 C59 1.391 . S
C58 C63 1.391 . S
C59 H41 0.941 . S
C59 C58 1.391 . S
C59 C60 1.396 . S
C60 H44 0.939 . S
C60 C59 1.396 . S
C60 C61 1.397 . S
C61 C60 1.397 . S
C61 C62 1.385 . S
C62 H45 0.940 . S
C62 C61 1.385 . S
C62 C63 1.388 . S
C63 H42 0.939 . S
C63 C58 1.391 . S
C63 C62 1.388 . S
P64 O75 1.490 . S
P64 C78 1.812 . S
P64 C84 1.803 . S
P64 C90 1.819 . S
H65 C79 0.941 . S
H66 C80 0.939 . S
H67 C82 0.940 . S
H68 C83 0.940 . S
H69 C85 0.939 . S
H70 C86 0.942 . S
H71 C88 0.940 . S
H72 C89 0.939 . S
H73 C91 0.941 . S
H74 C95 0.939 . S
O75 P64 1.490 . S
H76 C92 0.939 . S
H77 C94 0.940 . S
C78 P64 1.812 . S
C78 C79 1.389 . S
C78 C83 1.391 . S
C79 H65 0.941 . S
C79 C78 1.389 . S
C79 C80 1.397 . S
C80 H66 0.939 . S
C80 C79 1.397 . S
C80 C81 1.378 . S
C81 C80 1.378 . S
C81 C82 1.378 . S
C82 H67 0.940 . S
C82 C81 1.378 . S
C82 C83 1.396 . S
C83 H68 0.940 . S
C83 C78 1.391 . S
C83 C82 1.396 . S
C84 P64 1.803 . S
C84 C85 1.378 . S
C84 C89 1.400 . S
C85 H69 0.939 . S
C85 C84 1.378 . S
C85 C86 1.361 . S
C86 H70 0.942 . S
C86 C85 1.361 . S
C86 C87 1.369 . S
C87 C86 1.369 . S
C87 C88 1.404 . S
C88 H71 0.940 . S
C88 C87 1.404 . S
C88 C89 1.389 . S
C89 H72 0.939 . S
C89 C84 1.400 . S
C89 C88 1.389 . S
C90 P64 1.819 . S
C90 C91 1.391 . S
C90 C95 1.391 . S
C91 H73 0.941 . S
C91 C90 1.391 . S
C91 C92 1.396 . S
C92 H76 0.939 . S
C92 C91 1.396 . S
C92 C93 1.397 . S
C93 C92 1.397 . S
C93 C94 1.385 . S
C94 H77 0.940 . S
C94 C93 1.385 . S
C94 C95 1.388 . S
C95 H74 0.939 . S
C95 C90 1.391 . S
C95 C94 1.388 . S
P96 O107 1.490 . S
P96 C110 1.812 . S
P96 C116 1.803 . S
P96 C122 1.819 . S
H97 C111 0.941 . S
H98 C112 0.939 . S
H99 C114 0.940 . S
H100 C115 0.940 . S
H101 C117 0.939 . S
H102 C118 0.942 . S
H103 C120 0.940 . S
H104 C121 0.939 . S
H105 C123 0.941 . S
H106 C127 0.939 . S
O107 P96 1.490 . S
H108 C124 0.939 . S
H109 C126 0.940 . S
C110 P96 1.812 . S
C110 C111 1.389 . S
C110 C115 1.391 . S
C111 H97 0.941 . S
C111 C110 1.389 . S
C111 C112 1.397 . S
C112 H98 0.939 . S
C112 C111 1.397 . S
C112 C113 1.378 . S
C113 C112 1.378 . S
C113 C114 1.378 . S
C114 H99 0.940 . S
C114 C113 1.378 . S
C114 C115 1.396 . S
C115 H100 0.940 . S
C115 C110 1.391 . S
C115 C114 1.396 . S
C116 P96 1.803 . S
C116 C117 1.378 . S
C116 C121 1.400 . S
C117 H101 0.939 . S
C117 C116 1.378 . S
C117 C118 1.361 . S
C118 H102 0.942 . S
C118 C117 1.361 . S
C118 C119 1.369 . S
C119 C118 1.369 . S
C119 C120 1.404 . S
C120 H103 0.940 . S
C120 C119 1.404 . S
C120 C121 1.389 . S
C121 H104 0.939 . S
C121 C116 1.400 . S
C121 C120 1.389 . S
C122 P96 1.819 . S
C122 C123 1.391 . S
C122 C127 1.391 . S
C123 H105 0.941 . S
C123 C122 1.391 . S
C123 C124 1.396 . S
C124 H108 0.939 . S
C124 C123 1.396 . S
C124 C125 1.397 . S
C125 C124 1.397 . S
C125 C126 1.385 . S
C126 H109 0.940 . S
C126 C125 1.385 . S
C126 C127 1.388 . S
C127 H106 0.939 . S
C127 C122 1.391 . S
C127 C126 1.388 . S
P128 O139 1.490 . S
P128 C142 1.812 . S
P128 C148 1.803 . S
P128 C154 1.819 . S
H129 C143 0.941 . S
H130 C144 0.939 . S
H131 C146 0.940 . S
H132 C147 0.940 . S
H133 C149 0.939 . S
H134 C150 0.942 . S
H135 C152 0.940 . S
H136 C153 0.939 . S
H137 C155 0.941 . S
H138 C159 0.939 . S
O139 P128 1.490 . S
H140 C156 0.939 . S
H141 C158 0.940 . S
C142 P128 1.812 . S
C142 C143 1.389 . S
C142 C147 1.391 . S
C143 H129 0.941 . S
C143 C142 1.389 . S
C143 C144 1.397 . S
C144 H130 0.939 . S
C144 C143 1.397 . S
C144 C145 1.378 . S
C145 C144 1.378 . S
C145 C146 1.378 . S
C146 H131 0.940 . S
C146 C145 1.378 . S
C146 C147 1.396 . S
C147 H132 0.940 . S
C147 C142 1.391 . S
C147 C146 1.396 . S
C148 P128 1.803 . S
C148 C149 1.378 . S
C148 C153 1.400 . S
C149 H133 0.939 . S
C149 C148 1.378 . S
C149 C150 1.361 . S
C150 H134 0.942 . S
C150 C149 1.361 . S
C150 C151 1.369 . S
C151 C150 1.369 . S
C151 C152 1.404 . S
C152 H135 0.940 . S
C152 C151 1.404 . S
C152 C153 1.389 . S
C153 H136 0.939 . S
C153 C148 1.400 . S
C153 C152 1.389 . S
C154 P128 1.819 . S
C154 C155 1.391 . S
C154 C159 1.391 . S
C155 H137 0.941 . S
C155 C154 1.391 . S
C155 C156 1.396 . S
C156 H140 0.939 . S
C156 C155 1.396 . S
C156 C157 1.397 . S
C157 C156 1.397 . S
C157 C158 1.385 . S
C158 H141 0.940 . S
C158 C157 1.385 . S
C158 C159 1.388 . S
C159 H138 0.939 . S
C159 C154 1.391 . S
C159 C158 1.388 . S
P160 O171 1.490 . S
P160 C174 1.812 . S
P160 C180 1.803 . S
P160 C186 1.819 . S
H161 C175 0.941 . S
H162 C176 0.939 . S
H163 C178 0.940 . S
H164 C179 0.940 . S
H165 C181 0.939 . S
H166 C182 0.942 . S
H167 C184 0.940 . S
H168 C185 0.939 . S
H169 C187 0.941 . S
H170 C191 0.939 . S
O171 P160 1.490 . S
H172 C188 0.939 . S
H173 C190 0.940 . S
C174 P160 1.812 . S
C174 C175 1.389 . S
C174 C179 1.391 . S
C175 H161 0.941 . S
C175 C174 1.389 . S
C175 C176 1.397 . S
C176 H162 0.939 . S
C176 C175 1.397 . S
C176 C177 1.378 . S
C177 C176 1.378 . S
C177 C178 1.378 . S
C178 H163 0.940 . S
C178 C177 1.378 . S
C178 C179 1.396 . S
C179 H164 0.940 . S
C179 C174 1.391 . S
C179 C178 1.396 . S
C180 P160 1.803 . S
C180 C181 1.378 . S
C180 C185 1.400 . S
C181 H165 0.939 . S
C181 C180 1.378 . S
C181 C182 1.361 . S
C182 H166 0.942 . S
C182 C181 1.361 . S
C182 C183 1.369 . S
C183 C182 1.369 . S
C183 C184 1.404 . S
C184 H167 0.940 . S
C184 C183 1.404 . S
C184 C185 1.389 . S
C185 H168 0.939 . S
C185 C180 1.400 . S
C185 C184 1.389 . S
C186 P160 1.819 . S
C186 C187 1.391 . S
C186 C191 1.391 . S
C187 H169 0.941 . S
C187 C186 1.391 . S
C187 C188 1.396 . S
C188 H172 0.939 . S
C188 C187 1.396 . S
C188 C189 1.397 . S
C189 C188 1.397 . S
C189 C190 1.385 . S
C190 H173 0.940 . S
C190 C189 1.385 . S
C190 C191 1.388 . S
C191 H170 0.939 . S
C191 C186 1.391 . S
C191 C190 1.388 . S
P192 O203 1.490 . S
P192 C206 1.812 . S
P192 C212 1.803 . S
P192 C218 1.819 . S
H193 C207 0.941 . S
H194 C208 0.939 . S
H195 C210 0.940 . S
H196 C211 0.940 . S
H197 C213 0.939 . S
H198 C214 0.942 . S
H199 C216 0.940 . S
H200 C217 0.939 . S
H201 C219 0.941 . S
H202 C223 0.939 . S
O203 P192 1.490 . S
H204 C220 0.939 . S
H205 C222 0.940 . S
C206 P192 1.812 . S
C206 C207 1.389 . S
C206 C211 1.391 . S
C207 H193 0.941 . S
C207 C206 1.389 . S
C207 C208 1.397 . S
C208 H194 0.939 . S
C208 C207 1.397 . S
C208 C209 1.378 . S
C209 C208 1.378 . S
C209 C210 1.378 . S
C210 H195 0.940 . S
C210 C209 1.378 . S
C210 C211 1.396 . S
C211 H196 0.940 . S
C211 C206 1.391 . S
C211 C210 1.396 . S
C212 P192 1.803 . S
C212 C213 1.378 . S
C212 C217 1.400 . S
C213 H197 0.939 . S
C213 C212 1.378 . S
C213 C214 1.361 . S
C214 H198 0.942 . S
C214 C213 1.361 . S
C214 C215 1.369 . S
C215 C214 1.369 . S
C215 C216 1.404 . S
C216 H199 0.940 . S
C216 C215 1.404 . S
C216 C217 1.389 . S
C217 H200 0.939 . S
C217 C212 1.400 . S
C217 C216 1.389 . S
C218 P192 1.819 . S
C218 C219 1.391 . S
C218 C223 1.391 . S
C219 H201 0.941 . S
C219 C218 1.391 . S
C219 C220 1.396 . S
C220 H204 0.939 . S
C220 C219 1.396 . S
C220 C221 1.397 . S
C221 C220 1.397 . S
C221 C222 1.385 . S
C222 H205 0.940 . S
C222 C221 1.385 . S
C222 C223 1.388 . S
C223 H202 0.939 . S
C223 C218 1.391 . S
C223 C222 1.388 . S
P224 O235 1.490 . S
P224 C238 1.812 . S
P224 C244 1.803 . S
P224 C250 1.819 . S
H225 C239 0.941 . S
H226 C240 0.939 . S
H227 C242 0.940 . S
H228 C243 0.940 . S
H229 C245 0.939 . S
H230 C246 0.942 . S
H231 C248 0.940 . S
H232 C249 0.939 . S
H233 C251 0.941 . S
H234 C255 0.939 . S
O235 P224 1.490 . S
H236 C252 0.939 . S
H237 C254 0.940 . S
C238 P224 1.812 . S
C238 C239 1.389 . S
C238 C243 1.391 . S
C239 H225 0.941 . S
C239 C238 1.389 . S
C239 C240 1.397 . S
C240 H226 0.939 . S
C240 C239 1.397 . S
C240 C241 1.378 . S
C241 C240 1.378 . S
C241 C242 1.378 . S
C242 H227 0.940 . S
C242 C241 1.378 . S
C242 C243 1.396 . S
C243 H228 0.940 . S
C243 C238 1.391 . S
C243 C242 1.396 . S
C244 P224 1.803 . S
C244 C245 1.378 . S
C244 C249 1.400 . S
C245 H229 0.939 . S
C245 C244 1.378 . S
C245 C246 1.361 . S
C246 H230 0.942 . S
C246 C245 1.361 . S
C246 C247 1.369 . S
C247 C246 1.369 . S
C247 C248 1.404 . S
C248 H231 0.940 . S
C248 C247 1.404 . S
C248 C249 1.389 . S
C249 H232 0.939 . S
C249 C244 1.400 . S
C249 C248 1.389 . S
C250 P224 1.819 . S
C250 C251 1.391 . S
C250 C255 1.391 . S
C251 H233 0.941 . S
C251 C250 1.391 . S
C251 C252 1.396 . S
C252 H236 0.939 . S
C252 C251 1.396 . S
C252 C253 1.397 . S
C253 C252 1.397 . S
C253 C254 1.385 . S
C254 H237 0.940 . S
C254 C253 1.385 . S
C254 C255 1.388 . S
C255 H234 0.939 . S
C255 C250 1.391 . S
C255 C254 1.388 . S
Sm256 C258 2.846 . S
Sm256 O276 2.543 . S
Sm256 O277 2.450 . S
Sm256 O278 2.681 1_545 S
Sm256 O279 2.464 1_545 S
Sm256 O280 2.396 . S
Sm256 O284 2.386 1_455 S
Sm256 O287 2.408 1_445 S
Sm257 C267 2.824 1_545 S
Sm257 O278 2.374 1_645 S
Sm257 O281 2.432 1_655 S
Sm257 O282 2.514 1_545 S
Sm257 O283 2.438 1_545 S
Sm257 O284 2.695 . S
Sm257 O285 2.480 . S
Sm257 O286 2.377 1_545 S
C258 Sm256 2.846 . S
C258 C259 1.506 . S
C258 O276 1.261 . S
C258 O277 1.242 . S
C259 C258 1.506 . S
C259 C260 1.358 . S
C259 C264 1.382 . S
C260 C259 1.358 . S
C260 C261 1.385 . S
C260 H288 0.930 . S
C261 C260 1.385 . S
C261 C262 1.395 . S
C261 H289 0.929 . S
C262 C261 1.395 . S
C262 C263 1.335 . S
C263 C262 1.335 . S
C263 C264 1.398 . S
C263 H290 0.930 . S
C264 C259 1.382 . S
C264 C263 1.398 . S
C264 H291 0.929 . S
C265 O278 1.271 . S
C265 O279 1.251 . S
C266 O280 1.252 . S
C266 O281 1.272 . S
C267 Sm257 2.824 1_565 S
C267 C268 1.506 . S
C267 O282 1.261 . S
C267 O283 1.242 . S
C268 C267 1.506 . S
C268 C269 1.358 . S
C268 C273 1.382 . S
C269 C268 1.358 . S
C269 C270 1.385 . S
C269 H292 0.930 . S
C270 C269 1.385 . S
C270 C271 1.395 . S
C270 H293 0.929 . S
C271 C270 1.395 . S
C271 C272 1.335 . S
C272 C271 1.335 . S
C272 C273 1.398 . S
C272 H294 0.930 . S
C273 C268 1.382 . S
C273 C272 1.398 . S
C273 H295 0.929 . S
C274 O284 1.271 . S
C274 O285 1.251 . S
C275 O286 1.252 . S
C275 O287 1.272 . S
O276 Sm256 2.543 . S
O276 C258 1.261 . S
O277 Sm256 2.450 . S
O277 C258 1.242 . S
O278 Sm256 2.681 1_565 S
O278 Sm257 2.374 1_465 S
O278 C265 1.271 . S
O279 Sm256 2.464 1_565 S
O279 C265 1.251 . S
O280 Sm256 2.396 . S
O280 C266 1.252 . S
O281 Sm257 2.432 1_455 S
O281 C266 1.272 . S
O282 Sm257 2.514 1_565 S
O282 C267 1.261 . S
O283 Sm257 2.438 1_565 S
O283 C267 1.242 . S
O284 Sm256 2.386 1_655 S
O284 Sm257 2.695 . S
O284 C274 1.271 . S
O285 Sm257 2.480 . S
O285 C274 1.251 . S
O286 Sm257 2.377 1_565 S
O286 C275 1.252 . S
O287 Sm256 2.408 1_665 S
O287 C275 1.272 . S
H288 C260 0.930 . S
H289 C261 0.929 . S
H290 C263 0.930 . S
H291 C264 0.929 . S
H292 C269 0.930 . S
H293 C270 0.929 . S
H294 C272 0.930 . S
H295 C273 0.929 . S
Sm296 C298 2.846 . S
Sm296 O316 2.543 . S
Sm296 O317 2.450 . S
Sm296 O318 2.681 1_545 S
Sm296 O319 2.464 1_545 S
Sm296 O320 2.396 . S
Sm296 O324 2.386 . S
Sm296 O327 2.408 1_544 S
Sm297 C307 2.846 1_545 S
Sm297 O318 2.386 1_546 S
Sm297 O321 2.408 1_556 S
Sm297 O322 2.543 1_545 S
Sm297 O323 2.450 . S
Sm297 O324 2.681 1_556 S
Sm297 O325 2.464 . S
Sm297 O326 2.396 1_545 S
C298 Sm296 2.846 . S
C298 C299 1.506 . S
C298 O316 1.261 . S
C298 O317 1.242 . S
C299 C298 1.506 . S
C299 C300 1.358 . S
C299 C304 1.382 . S
C300 C299 1.358 . S
C300 C301 1.385 . S
C300 H328 0.930 . S
C301 C300 1.385 . S
C301 C302 1.395 . S
C301 H329 0.929 . S
C302 C301 1.395 . S
C302 C303 1.335 . S
C303 C302 1.335 . S
C303 C304 1.398 . S
C303 H330 0.930 . S
C304 C299 1.382 . S
C304 C303 1.398 . S
C304 H331 0.929 . S
C305 O318 1.271 . S
C305 O319 1.251 . S
C306 O320 1.252 . S
C306 O321 1.272 . S
C307 Sm297 2.846 1_565 S
C307 C308 1.506 . S
C307 O322 1.261 . S
C307 O323 1.242 1_565 S
C308 C307 1.506 . S
C308 C309 1.358 . S
C308 C313 1.382 . S
C309 C308 1.358 . S
C309 C310 1.385 . S
C309 H332 0.930 . S
C310 C309 1.385 . S
C310 C311 1.395 . S
C310 H333 0.929 . S
C311 C310 1.395 . S
C311 C312 1.335 . S
C312 C311 1.335 . S
C312 C313 1.398 . S
C312 H334 0.930 . S
C313 C308 1.382 . S
C313 C312 1.398 . S
C313 H335 0.929 . S
C314 O324 1.271 1_556 S
C314 O325 1.251 . S
C315 O326 1.252 . S
C315 O327 1.272 . S
O316 Sm296 2.543 . S
O316 C298 1.261 . S
O317 Sm296 2.450 . S
O317 C298 1.242 . S
O318 Sm296 2.681 1_565 S
O318 Sm297 2.386 1_564 S
O318 C305 1.271 . S
O319 Sm296 2.464 1_565 S
O319 C305 1.251 . S
O320 Sm296 2.396 . S
O320 C306 1.252 . S
O321 Sm297 2.408 1_554 S
O321 C306 1.272 . S
O322 Sm297 2.543 1_565 S
O322 C307 1.261 . S
O323 Sm297 2.450 . S
O323 C307 1.242 1_545 S
O324 Sm296 2.386 . S
O324 Sm297 2.681 1_554 S
O324 C314 1.271 1_554 S
O325 Sm297 2.464 . S
O325 C314 1.251 . S
O326 Sm297 2.396 1_565 S
O326 C315 1.252 . S
O327 Sm296 2.408 1_566 S
O327 C315 1.272 . S
H328 C300 0.930 . S
H329 C301 0.929 . S
H330 C303 0.930 . S
H331 C304 0.929 . S
H332 C309 0.930 . S
H333 C310 0.929 . S
H334 C312 0.930 . S
H335 C313 0.929 . S
Sm336 C338 2.846 . S
Sm336 O356 2.543 . S
Sm336 O357 2.450 . S
Sm336 O358 2.681 . S
Sm336 O359 2.464 . S
Sm336 O360 2.396 . S
Sm336 O364 2.386 . S
Sm336 O367 2.408 . S
Sm337 C347 2.846 . S
Sm337 O358 2.386 . S
Sm337 O361 2.408 . S
Sm337 O362 2.543 . S
Sm337 O363 2.450 . S
Sm337 O364 2.681 . S
Sm337 O365 2.464 . S
Sm337 O366 2.396 . S
C338 Sm336 2.846 . S
C338 C339 1.506 . S
C338 O356 1.261 . S
C338 O357 1.242 . S
C339 C338 1.506 . S
C339 C340 1.358 . S
C339 C344 1.382 . S
C340 C339 1.358 . S
C340 C341 1.385 . S
C340 H368 0.930 . S
C341 C340 1.385 . S
C341 C342 1.395 . S
C341 H369 0.929 . S
C342 C341 1.395 . S
C342 C343 1.335 . S
C343 C342 1.335 . S
C343 C344 1.398 . S
C343 H370 0.930 . S
C344 C339 1.382 . S
C344 C343 1.398 . S
C344 H371 0.929 . S
C345 O358 1.271 . S
C345 O359 1.251 . S
C346 O360 1.252 . S
C346 O361 1.272 . S
C347 Sm337 2.846 . S
C347 C348 1.506 . S
C347 O362 1.261 . S
C347 O363 1.242 . S
C348 C347 1.506 . S
C348 C349 1.358 . S
C348 C353 1.382 . S
C349 C348 1.358 . S
C349 C350 1.385 . S
C349 H372 0.930 . S
C350 C349 1.385 . S
C350 C351 1.395 . S
C350 H373 0.929 . S
C351 C350 1.395 . S
C351 C352 1.335 . S
C352 C351 1.335 . S
C352 C353 1.398 . S
C352 H374 0.930 . S
C353 C348 1.382 . S
C353 C352 1.398 . S
C353 H375 0.929 . S
C354 O364 1.271 . S
C354 O365 1.251 . S
C355 O366 1.252 . S
C355 O367 1.272 . S
O356 Sm336 2.543 . S
O356 C338 1.261 . S
O357 Sm336 2.450 . S
O357 C338 1.242 . S
O358 Sm336 2.681 . S
O358 Sm337 2.386 . S
O358 C345 1.271 . S
O359 Sm336 2.464 . S
O359 C345 1.251 . S
O360 Sm336 2.396 . S
O360 C346 1.252 . S
O361 Sm337 2.408 . S
O361 C346 1.272 . S
O362 Sm337 2.543 . S
O362 C347 1.261 . S
O363 Sm337 2.450 . S
O363 C347 1.242 . S
O364 Sm336 2.386 . S
O364 Sm337 2.681 . S
O364 C354 1.271 . S
O365 Sm337 2.464 . S
O365 C354 1.251 . S
O366 Sm337 2.396 . S
O366 C355 1.252 . S
O367 Sm336 2.408 . S
O367 C355 1.272 . S
H368 C340 0.930 . S
H369 C341 0.929 . S
H370 C343 0.930 . S
H371 C344 0.929 . S
H372 C349 0.930 . S
H373 C350 0.929 . S
H374 C352 0.930 . S
H375 C353 0.929 . S
Sm376 C378 2.846 . S
Sm376 O396 2.543 . S
Sm376 O397 2.450 . S
Sm376 O398 2.681 1_455 S
Sm376 O399 2.464 1_455 S
Sm376 O400 2.396 . S
Sm376 O404 2.386 1_554 S
Sm376 O407 2.408 1_455 S
Sm377 C387 2.846 . S
Sm377 O398 2.386 1_556 S
Sm377 O401 2.408 1_656 S
Sm377 O402 2.543 . S
Sm377 O403 2.450 . S
Sm377 O404 2.681 1_655 S
Sm377 O405 2.464 1_655 S
Sm377 O406 2.396 . S
C378 Sm376 2.846 . S
C378 C379 1.506 . S
C378 O396 1.261 . S
C378 O397 1.242 . S
C379 C378 1.506 . S
C379 C380 1.358 . S
C379 C384 1.382 . S
C380 C379 1.358 . S
C380 C381 1.385 . S
C380 H408 0.930 . S
C381 C380 1.385 . S
C381 C382 1.395 . S
C381 H409 0.929 . S
C382 C381 1.395 . S
C382 C383 1.335 . S
C383 C382 1.335 . S
C383 C384 1.398 . S
C383 H410 0.930 . S
C384 C379 1.382 . S
C384 C383 1.398 . S
C384 H411 0.929 . S
C385 O398 1.271 . S
C385 O399 1.251 . S
C386 O400 1.252 . S
C386 O401 1.272 . S
C387 Sm377 2.846 . S
C387 C388 1.506 . S
C387 O402 1.261 . S
C387 O403 1.242 . S
C388 C387 1.506 . S
C388 C389 1.358 . S
C388 C393 1.382 . S
C389 C388 1.358 . S
C389 C390 1.385 . S
C389 H412 0.930 . S
C390 C389 1.385 . S
C390 C391 1.395 . S
C390 H413 0.929 . S
C391 C390 1.395 . S
C391 C392 1.335 . S
C392 C391 1.335 . S
C392 C393 1.398 . S
C392 H414 0.930 . S
C393 C388 1.382 . S
C393 C392 1.398 . S
C393 H415 0.929 . S
C394 O404 1.271 . S
C394 O405 1.251 . S
C395 O406 1.252 . S
C395 O407 1.272 1_556 S
O396 Sm376 2.543 . S
O396 C378 1.261 . S
O397 Sm376 2.450 . S
O397 C378 1.242 . S
O398 Sm376 2.681 1_655 S
O398 Sm377 2.386 1_554 S
O398 C385 1.271 . S
O399 Sm376 2.464 1_655 S
O399 C385 1.251 . S
O400 Sm376 2.396 . S
O400 C386 1.252 . S
O401 Sm377 2.408 1_454 S
O401 C386 1.272 . S
O402 Sm377 2.543 . S
O402 C387 1.261 . S
O403 Sm377 2.450 . S
O403 C387 1.242 . S
O404 Sm376 2.386 1_556 S
O404 Sm377 2.681 1_455 S
O404 C394 1.271 . S
O405 Sm377 2.464 1_455 S
O405 C394 1.251 . S
O406 Sm377 2.396 . S
O406 C395 1.252 . S
O407 Sm376 2.408 1_655 S
O407 C395 1.272 1_554 S
H408 C380 0.930 . S
H409 C381 0.929 . S
H410 C383 0.930 . S
H411 C384 0.929 . S
H412 C389 0.930 . S
H413 C390 0.929 . S
H414 C392 0.930 . S
H415 C393 0.929 . S
H416 C424 0.929 . S
H417 C426 0.930 . S
H418 C428 0.930 . S
H419 C431 0.929 . S
H420 C434 0.930 . S
H421 C436 0.960 . S
H422 C436 0.960 . S
H423 C436 0.960 . S
C424 H416 0.929 . S
C424 C425 1.377 . S
C424 C426 1.384 . S
C425 C424 1.377 . S
C425 C431 1.390 . S
C426 H417 0.930 . S
C426 C424 1.384 . S
C426 C427 1.372 . S
C427 C426 1.372 . S
C427 C428 1.400 . S
C427 C432 1.490 . S
C428 H418 0.930 . S
C428 C427 1.400 . S
C428 C431 1.386 . S
H429 C445 0.930 . S
H430 C446 0.931 . S
C431 H419 0.929 . S
C431 C425 1.390 . S
C431 C428 1.386 . S
C432 C427 1.490 . S
C432 C434 1.395 . S
C432 C435 1.403 . S
H433 C439 0.930 . S
C434 H420 0.930 . S
C434 C432 1.395 . S
C434 C437 1.403 . S
C435 C432 1.403 . S
C435 C436 1.524 . S
C435 C439 1.400 . S
C436 H421 0.960 . S
C436 H422 0.960 . S
C436 H423 0.960 . S
C436 C435 1.524 . S
C437 C434 1.403 . S
C437 C438 1.392 . S
C437 C441 1.495 . S
C438 C437 1.392 . S
C438 C439 1.385 . S
C438 C440 1.478 . S
C439 H433 0.930 . S
C439 C435 1.400 . S
C439 C438 1.385 . S
C440 C438 1.478 . S
C440 C442 1.381 . S
C440 C446 1.383 . S
C441 C437 1.495 . S
C441 H447 0.959 . S
C441 H448 0.961 . S
C441 H449 0.960 . S
C442 C440 1.381 . S
C442 C443 1.394 . S
C442 H450 0.930 . S
C443 C442 1.394 . S
C443 C444 1.383 . S
C443 H451 0.929 . S
C444 C443 1.383 . S
C444 C445 1.377 . S
C445 H429 0.930 . S
C445 C444 1.377 . S
C445 C446 1.379 . S
C446 H430 0.931 . S
C446 C440 1.383 . S
C446 C445 1.379 . S
H447 C441 0.959 . S
H448 C441 0.961 . S
H449 C441 0.960 . S
H450 C442 0.930 . S
H451 C443 0.929 . S
H452 C460 0.929 . S
H453 C462 0.930 . S
H454 C464 0.930 . S
H455 C467 0.929 . S
H456 C470 0.930 . S
H457 C472 0.960 . S
H458 C472 0.960 . S
H459 C472 0.960 . S
C460 H452 0.929 . S
C460 C461 1.377 . S
C460 C462 1.384 . S
C461 C460 1.377 . S
C461 C467 1.390 . S
C462 H453 0.930 . S
C462 C460 1.384 . S
C462 C463 1.372 . S
C463 C462 1.372 . S
C463 C464 1.400 . S
C463 C468 1.490 . S
C464 H454 0.930 . S
C464 C463 1.400 . S
C464 C467 1.386 . S
H465 C481 0.930 . S
H466 C482 0.931 . S
C467 H455 0.929 . S
C467 C461 1.390 . S
C467 C464 1.386 . S
C468 C463 1.490 . S
C468 C470 1.395 . S
C468 C471 1.403 . S
H469 C475 0.930 . S
C470 H456 0.930 . S
C470 C468 1.395 . S
C470 C473 1.403 . S
C471 C468 1.403 . S
C471 C472 1.524 . S
C471 C475 1.400 . S
C472 H457 0.960 . S
C472 H458 0.960 . S
C472 H459 0.960 . S
C472 C471 1.524 . S
C473 C470 1.403 . S
C473 C474 1.392 . S
C473 C477 1.495 . S
C474 C473 1.392 . S
C474 C475 1.385 . S
C474 C476 1.478 . S
C475 H469 0.930 . S
C475 C471 1.400 . S
C475 C474 1.385 . S
C476 C474 1.478 . S
C476 C478 1.381 . S
C476 C482 1.383 . S
C477 C473 1.495 . S
C477 H483 0.959 . S
C477 H484 0.961 . S
C477 H485 0.960 . S
C478 C476 1.381 . S
C478 C479 1.394 . S
C478 H486 0.930 . S
C479 C478 1.394 . S
C479 C480 1.383 . S
C479 H487 0.929 . S
C480 C479 1.383 . S
C480 C481 1.377 . S
C481 H465 0.930 . S
C481 C480 1.377 . S
C481 C482 1.379 . S
C482 H466 0.931 . S
C482 C476 1.383 . S
C482 C481 1.379 . S
H483 C477 0.959 . S
H484 C477 0.961 . S
H485 C477 0.960 . S
H486 C478 0.930 . S
H487 C479 0.929 . S
H488 C496 0.929 . S
H489 C498 0.930 . S
H490 C500 0.930 . S
H491 C503 0.929 . S
H492 C506 0.930 . S
H493 C508 0.960 . S
H494 C508 0.960 . S
H495 C508 0.960 . S
C496 H488 0.929 . S
C496 C497 1.377 . S
C496 C498 1.384 . S
C497 C496 1.377 . S
C497 C503 1.390 . S
C498 H489 0.930 . S
C498 C496 1.384 . S
C498 C499 1.372 . S
C499 C498 1.372 . S
C499 C500 1.400 . S
C499 C504 1.490 . S
C500 H490 0.930 . S
C500 C499 1.400 . S
C500 C503 1.386 . S
H501 C517 0.930 . S
H502 C518 0.931 . S
C503 H491 0.929 . S
C503 C497 1.390 . S
C503 C500 1.386 . S
C504 C499 1.490 . S
C504 C506 1.395 . S
C504 C507 1.403 . S
H505 C511 0.930 . S
C506 H492 0.930 . S
C506 C504 1.395 . S
C506 C509 1.403 . S
C507 C504 1.403 . S
C507 C508 1.524 . S
C507 C511 1.400 . S
C508 H493 0.960 . S
C508 H494 0.960 . S
C508 H495 0.960 . S
C508 C507 1.524 . S
C509 C506 1.403 . S
C509 C510 1.392 . S
C509 C513 1.495 . S
C510 C509 1.392 . S
C510 C511 1.385 . S
C510 C512 1.478 . S
C511 H505 0.930 . S
C511 C507 1.400 . S
C511 C510 1.385 . S
C512 C510 1.478 . S
C512 C514 1.381 . S
C512 C518 1.383 . S
C513 C509 1.495 . S
C513 H519 0.959 . S
C513 H520 0.961 . S
C513 H521 0.960 . S
C514 C512 1.381 . S
C514 C515 1.394 . S
C514 H522 0.930 . S
C515 C514 1.394 . S
C515 C516 1.383 . S
C515 H523 0.929 . S
C516 C515 1.383 . S
C516 C517 1.377 . S
C517 H501 0.930 . S
C517 C516 1.377 . S
C517 C518 1.379 . S
C518 H502 0.931 . S
C518 C512 1.383 . S
C518 C517 1.379 . S
H519 C513 0.959 . S
H520 C513 0.961 . S
H521 C513 0.960 . S
H522 C514 0.930 . S
H523 C515 0.929 . S
H524 C532 0.929 . S
H525 C534 0.930 . S
H526 C536 0.930 . S
H527 C539 0.929 . S
H528 C542 0.930 . S
H529 C544 0.960 . S
H530 C544 0.960 . S
H531 C544 0.960 . S
C532 H524 0.929 . S
C532 C533 1.377 . S
C532 C534 1.384 . S
C533 C532 1.377 . S
C533 C539 1.390 . S
C534 H525 0.930 . S
C534 C532 1.384 . S
C534 C535 1.372 . S
C535 C534 1.372 . S
C535 C536 1.400 . S
C535 C540 1.490 . S
C536 H526 0.930 . S
C536 C535 1.400 . S
C536 C539 1.386 . S
H537 C553 0.930 . S
H538 C554 0.931 . S
C539 H527 0.929 . S
C539 C533 1.390 . S
C539 C536 1.386 . S
C540 C535 1.490 . S
C540 C542 1.395 . S
C540 C543 1.403 . S
H541 C547 0.930 . S
C542 H528 0.930 . S
C542 C540 1.395 . S
C542 C545 1.403 . S
C543 C540 1.403 . S
C543 C544 1.524 . S
C543 C547 1.400 . S
C544 H529 0.960 . S
C544 H530 0.960 . S
C544 H531 0.960 . S
C544 C543 1.524 . S
C545 C542 1.403 . S
C545 C546 1.392 . S
C545 C549 1.495 . S
C546 C545 1.392 . S
C546 C547 1.385 . S
C546 C548 1.478 . S
C547 H541 0.930 . S
C547 C543 1.400 . S
C547 C546 1.385 . S
C548 C546 1.478 . S
C548 C550 1.381 . S
C548 C554 1.383 . S
C549 C545 1.495 . S
C549 H555 0.959 . S
C549 H556 0.961 . S
C549 H557 0.960 . S
C550 C548 1.381 . S
C550 C551 1.394 . S
C550 H558 0.930 . S
C551 C550 1.394 . S
C551 C552 1.383 . S
C551 H559 0.929 . S
C552 C551 1.383 . S
C552 C553 1.377 . S
C553 H537 0.930 . S
C553 C552 1.377 . S
C553 C554 1.379 . S
C554 H538 0.931 . S
C554 C548 1.383 . S
C554 C553 1.379 . S
H555 C549 0.959 . S
H556 C549 0.961 . S
H557 C549 0.960 . S
H558 C550 0.930 . S
H559 C551 0.929 . S
H560 C568 0.929 . S
H561 C570 0.930 . S
H562 C572 0.930 . S
H563 C575 0.929 . S
H564 C578 0.930 . S
H565 C580 0.960 . S
H566 C580 0.960 . S
H567 C580 0.960 . S
C568 H560 0.929 . S
C568 C569 1.377 . S
C568 C570 1.384 . S
C569 C568 1.377 . S
C569 C575 1.390 . S
C570 H561 0.930 . S
C570 C568 1.384 . S
C570 C571 1.372 . S
C571 C570 1.372 . S
C571 C572 1.400 . S
C571 C576 1.490 . S
C572 H562 0.930 . S
C572 C571 1.400 . S
C572 C575 1.386 . S
H573 C589 0.930 . S
H574 C590 0.931 . S
C575 H563 0.929 . S
C575 C569 1.390 . S
C575 C572 1.386 . S
C576 C571 1.490 . S
C576 C578 1.395 . S
C576 C579 1.403 . S
H577 C583 0.930 . S
C578 H564 0.930 . S
C578 C576 1.395 . S
C578 C581 1.403 . S
C579 C576 1.403 . S
C579 C580 1.524 . S
C579 C583 1.400 . S
C580 H565 0.960 . S
C580 H566 0.960 . S
C580 H567 0.960 . S
C580 C579 1.524 . S
C581 C578 1.403 . S
C581 C582 1.392 . S
C581 C585 1.495 . S
C582 C581 1.392 . S
C582 C583 1.385 . S
C582 C584 1.478 . S
C583 H577 0.930 . S
C583 C579 1.400 . S
C583 C582 1.385 . S
C584 C582 1.478 . S
C584 C586 1.381 . S
C584 C590 1.383 . S
C585 C581 1.495 . S
C585 H591 0.959 . S
C585 H592 0.961 . S
C585 H593 0.960 . S
C586 C584 1.381 . S
C586 C587 1.394 . S
C586 H594 0.930 . S
C587 C586 1.394 . S
C587 C588 1.383 . S
C587 H595 0.929 . S
C588 C587 1.383 . S
C588 C589 1.377 . S
C589 H573 0.930 . S
C589 C588 1.377 . S
C589 C590 1.379 . S
C590 H574 0.931 . S
C590 C584 1.383 . S
C590 C589 1.379 . S
H591 C585 0.959 . S
H592 C585 0.961 . S
H593 C585 0.960 . S
H594 C586 0.930 . S
H595 C587 0.929 . S
H596 C604 0.929 . S
H597 C606 0.930 . S
H598 C608 0.930 . S
H599 C611 0.929 . S
H600 C614 0.930 . S
H601 C616 0.960 . S
H602 C616 0.960 . S
H603 C616 0.960 . S
C604 H596 0.929 . S
C604 C605 1.377 . S
C604 C606 1.384 . S
C605 C604 1.377 . S
C605 C611 1.390 . S
C606 H597 0.930 . S
C606 C604 1.384 . S
C606 C607 1.372 . S
C607 C606 1.372 . S
C607 C608 1.400 . S
C607 C612 1.490 . S
C608 H598 0.930 . S
C608 C607 1.400 . S
C608 C611 1.386 . S
H609 C625 0.930 . S
H610 C626 0.931 . S
C611 H599 0.929 . S
C611 C605 1.390 . S
C611 C608 1.386 . S
C612 C607 1.490 . S
C612 C614 1.395 . S
C612 C615 1.403 . S
H613 C619 0.930 . S
C614 H600 0.930 . S
C614 C612 1.395 . S
C614 C617 1.403 . S
C615 C612 1.403 . S
C615 C616 1.524 . S
C615 C619 1.400 . S
C616 H601 0.960 . S
C616 H602 0.960 . S
C616 H603 0.960 . S
C616 C615 1.524 . S
C617 C614 1.403 . S
C617 C618 1.392 . S
C617 C621 1.495 . S
C618 C617 1.392 . S
C618 C619 1.385 . S
C618 C620 1.478 . S
C619 H613 0.930 . S
C619 C615 1.400 . S
C619 C618 1.385 . S
C620 C618 1.478 . S
C620 C622 1.381 . S
C620 C626 1.383 . S
C621 C617 1.495 . S
C621 H627 0.959 . S
C621 H628 0.961 . S
C621 H629 0.960 . S
C622 C620 1.381 . S
C622 C623 1.394 . S
C622 H630 0.930 . S
C623 C622 1.394 . S
C623 C624 1.383 . S
C623 H631 0.929 1_565 S
C624 C623 1.383 . S
C624 C625 1.377 . S
C625 H609 0.930 . S
C625 C624 1.377 . S
C625 C626 1.379 . S
C626 H610 0.931 . S
C626 C620 1.383 . S
C626 C625 1.379 . S
H627 C621 0.959 . S
H628 C621 0.961 . S
H629 C621 0.960 . S
H630 C622 0.930 . S
H631 C623 0.929 1_545 S
H632 C640 0.929 . S
H633 C642 0.930 . S
H634 C644 0.930 . S
H635 C647 0.929 . S
H636 C650 0.930 . S
H637 C652 0.960 . S
H638 C652 0.960 . S
H639 C652 0.960 . S
C640 H632 0.929 . S
C640 C641 1.377 . S
C640 C642 1.384 . S
C641 C640 1.377 . S
C641 C647 1.390 . S
C642 H633 0.930 . S
C642 C640 1.384 . S
C642 C643 1.372 . S
C643 C642 1.372 . S
C643 C644 1.400 . S
C643 C648 1.490 . S
C644 H634 0.930 . S
C644 C643 1.400 . S
C644 C647 1.386 . S
H645 C661 0.930 1_554 S
H646 C662 0.931 . S
C647 H635 0.929 . S
C647 C641 1.390 . S
C647 C644 1.386 . S
C648 C643 1.490 . S
C648 C650 1.395 . S
C648 C651 1.403 . S
H649 C655 0.930 . S
C650 H636 0.930 . S
C650 C648 1.395 . S
C650 C653 1.403 . S
C651 C648 1.403 . S
C651 C652 1.524 . S
C651 C655 1.400 . S
C652 H637 0.960 . S
C652 H638 0.960 . S
C652 H639 0.960 . S
C652 C651 1.524 . S
C653 C650 1.403 . S
C653 C654 1.392 . S
C653 C657 1.495 . S
C654 C653 1.392 . S
C654 C655 1.385 . S
C654 C656 1.478 . S
C655 H649 0.930 . S
C655 C651 1.400 . S
C655 C654 1.385 . S
C656 C654 1.478 . S
C656 C658 1.381 . S
C656 C662 1.383 . S
C657 C653 1.495 . S
C657 H663 0.959 . S
C657 H664 0.961 . S
C657 H665 0.960 . S
C658 C656 1.381 . S
C658 C659 1.394 . S
C658 H666 0.930 . S
C659 C658 1.394 . S
C659 C660 1.383 . S
C659 H667 0.929 . S
C660 C659 1.383 . S
C660 C661 1.377 . S
C661 H645 0.930 1_556 S
C661 C660 1.377 . S
C661 C662 1.379 . S
C662 H646 0.931 . S
C662 C656 1.383 . S
C662 C661 1.379 . S
H663 C657 0.959 . S
H664 C657 0.961 . S
H665 C657 0.960 . S
H666 C658 0.930 . S
H667 C659 0.929 . S
H668 C676 0.929 . S
H669 C678 0.930 . S
H670 C680 0.930 . S
H671 C683 0.929 . S
H672 C686 0.930 . S
H673 C688 0.960 . S
H674 C688 0.960 . S
H675 C688 0.960 . S
C676 H668 0.929 . S
C676 C677 1.377 . S
C676 C678 1.384 . S
C677 C676 1.377 . S
C677 C683 1.390 . S
C678 H669 0.930 . S
C678 C676 1.384 . S
C678 C679 1.372 . S
C679 C678 1.372 . S
C679 C680 1.400 . S
C679 C684 1.490 . S
C680 H670 0.930 . S
C680 C679 1.400 . S
C680 C683 1.386 . S
H681 C697 0.930 . S
H682 C698 0.931 . S
C683 H671 0.929 . S
C683 C677 1.390 . S
C683 C680 1.386 . S
C684 C679 1.490 . S
C684 C686 1.395 . S
C684 C687 1.403 . S
H685 C691 0.930 . S
C686 H672 0.930 . S
C686 C684 1.395 . S
C686 C689 1.403 . S
C687 C684 1.403 . S
C687 C688 1.524 . S
C687 C691 1.400 . S
C688 H673 0.960 . S
C688 H674 0.960 . S
C688 H675 0.960 . S
C688 C687 1.524 . S
C689 C686 1.403 . S
C689 C690 1.392 . S
C689 C693 1.495 . S
C690 C689 1.392 . S
C690 C691 1.385 . S
C690 C692 1.478 . S
C691 H685 0.930 . S
C691 C687 1.400 . S
C691 C690 1.385 . S
C692 C690 1.478 . S
C692 C694 1.381 . S
C692 C698 1.383 . S
C693 C689 1.495 . S
C693 H699 0.959 . S
C693 H700 0.961 . S
C693 H701 0.960 . S
C694 C692 1.381 . S
C694 C695 1.394 . S
C694 H702 0.930 . S
C695 C694 1.394 . S
C695 C696 1.383 . S
C695 H703 0.929 . S
C696 C695 1.383 . S
C696 C697 1.377 . S
C697 H681 0.930 . S
C697 C696 1.377 . S
C697 C698 1.379 . S
C698 H682 0.931 . S
C698 C692 1.383 . S
C698 C697 1.379 . S
H699 C693 0.959 . S
H700 C693 0.961 . S
H701 C693 0.960 . S
H702 C694 0.930 . S
H703 C695 0.929 . S
H704 C712 0.929 . S
H705 C714 0.930 . S
H706 C716 0.930 . S
H707 C719 0.929 . S
H708 C722 0.930 . S
H709 C724 0.960 . S
H710 C724 0.960 . S
H711 C724 0.960 . S
C712 H704 0.929 . S
C712 C713 1.377 . S
C712 C714 1.384 . S
C713 C712 1.377 . S
C713 C719 1.390 . S
C714 H705 0.930 . S
C714 C712 1.384 . S
C714 C715 1.372 . S
C715 C714 1.372 . S
C715 C716 1.400 . S
C715 C720 1.490 . S
C716 H706 0.930 . S
C716 C715 1.400 . S
C716 C719 1.386 . S
H717 C733 0.930 . S
H718 C734 0.931 . S
C719 H707 0.929 . S
C719 C713 1.390 . S
C719 C716 1.386 . S
C720 C715 1.490 . S
C720 C722 1.395 . S
C720 C723 1.403 . S
H721 C727 0.930 . S
C722 H708 0.930 . S
C722 C720 1.395 . S
C722 C725 1.403 . S
C723 C720 1.403 . S
C723 C724 1.524 . S
C723 C727 1.400 . S
C724 H709 0.960 . S
C724 H710 0.960 . S
C724 H711 0.960 . S
C724 C723 1.524 . S
C725 C722 1.403 . S
C725 C726 1.392 . S
C725 C729 1.495 . S
C726 C725 1.392 . S
C726 C727 1.385 . S
C726 C728 1.478 . S
C727 H721 0.930 . S
C727 C723 1.400 . S
C727 C726 1.385 . S
C728 C726 1.478 . S
C728 C730 1.381 . S
C728 C734 1.383 . S
C729 C725 1.495 . S
C729 H735 0.959 . S
C729 H736 0.961 . S
C729 H737 0.960 . S
C730 C728 1.381 . S
C730 C731 1.394 . S
C730 H738 0.930 . S
C731 C730 1.394 . S
C731 C732 1.383 . S
C731 H739 0.929 . S
C732 C731 1.383 . S
C732 C733 1.377 . S
C733 H717 0.930 . S
C733 C732 1.377 . S
C733 C734 1.379 . S
C734 H718 0.931 . S
C734 C728 1.383 . S
C734 C733 1.379 . S
H735 C729 0.959 . S
H736 C729 0.961 . S
H737 C729 0.960 . S
H738 C730 0.930 . S
H739 C731 0.929 . S
H740 C748 0.929 . S
H741 C750 0.930 . S
H742 C752 0.930 . S
H743 C755 0.929 . S
H744 C758 0.930 . S
H745 C760 0.960 . S
H746 C760 0.960 . S
H747 C760 0.960 . S
C748 H740 0.929 . S
C748 C749 1.377 . S
C748 C750 1.384 . S
C749 C748 1.377 . S
C749 C755 1.390 . S
C750 H741 0.930 . S
C750 C748 1.384 . S
C750 C751 1.372 . S
C751 C750 1.372 . S
C751 C752 1.400 . S
C751 C756 1.490 . S
C752 H742 0.930 . S
C752 C751 1.400 . S
C752 C755 1.386 . S
H753 C769 0.930 . S
H754 C770 0.931 . S
C755 H743 0.929 . S
C755 C749 1.390 . S
C755 C752 1.386 . S
C756 C751 1.490 . S
C756 C758 1.395 . S
C756 C759 1.403 . S
H757 C763 0.930 . S
C758 H744 0.930 . S
C758 C756 1.395 . S
C758 C761 1.403 . S
C759 C756 1.403 . S
C759 C760 1.524 . S
C759 C763 1.400 . S
C760 H745 0.960 . S
C760 H746 0.960 . S
C760 H747 0.960 . S
C760 C759 1.524 . S
C761 C758 1.403 . S
C761 C762 1.392 . S
C761 C765 1.495 . S
C762 C761 1.392 . S
C762 C763 1.385 . S
C762 C764 1.478 . S
C763 H757 0.930 . S
C763 C759 1.400 . S
C763 C762 1.385 . S
C764 C762 1.478 . S
C764 C766 1.381 . S
C764 C770 1.383 . S
C765 C761 1.495 . S
C765 H771 0.959 . S
C765 H772 0.961 . S
C765 H773 0.960 . S
C766 C764 1.381 . S
C766 C767 1.394 . S
C766 H774 0.930 . S
C767 C766 1.394 . S
C767 C768 1.383 . S
C767 H775 0.929 . S
C768 C767 1.383 . S
C768 C769 1.377 . S
C769 H753 0.930 . S
C769 C768 1.377 . S
C769 C770 1.379 . S
C770 H754 0.931 . S
C770 C764 1.383 . S
C770 C769 1.379 . S
H771 C765 0.959 . S
H772 C765 0.961 . S
H773 C765 0.960 . S
H774 C766 0.930 . S
H775 C767 0.929 . S
H776 C784 0.929 . S
H777 C786 0.930 . S
H778 C788 0.930 . S
H779 C791 0.929 . S
H780 C794 0.930 . S
H781 C796 0.960 . S
H782 C796 0.960 . S
H783 C796 0.960 . S
C784 H776 0.929 . S
C784 C785 1.377 . S
C784 C786 1.384 . S
C785 C784 1.377 . S
C785 C791 1.390 . S
C786 H777 0.930 . S
C786 C784 1.384 . S
C786 C787 1.372 . S
C787 C786 1.372 . S
C787 C788 1.400 . S
C787 C792 1.490 . S
C788 H778 0.930 . S
C788 C787 1.400 . S
C788 C791 1.386 . S
H789 C805 0.930 . S
H790 C806 0.931 . S
C791 H779 0.929 . S
C791 C785 1.390 . S
C791 C788 1.386 . S
C792 C787 1.490 . S
C792 C794 1.395 . S
C792 C795 1.403 . S
H793 C799 0.930 . S
C794 H780 0.930 . S
C794 C792 1.395 . S
C794 C797 1.403 . S
C795 C792 1.403 . S
C795 C796 1.524 . S
C795 C799 1.400 . S
C796 H781 0.960 . S
C796 H782 0.960 . S
C796 H783 0.960 . S
C796 C795 1.524 . S
C797 C794 1.403 . S
C797 C798 1.392 . S
C797 C801 1.495 . S
C798 C797 1.392 . S
C798 C799 1.385 . S
C798 C800 1.478 . S
C799 H793 0.930 . S
C799 C795 1.400 . S
C799 C798 1.385 . S
C800 C798 1.478 . S
C800 C802 1.381 . S
C800 C806 1.383 . S
C801 C797 1.495 . S
C801 H807 0.959 . S
C801 H808 0.961 . S
C801 H809 0.960 . S
C802 C800 1.381 . S
C802 C803 1.394 . S
C802 H810 0.930 . S
C803 C802 1.394 . S
C803 C804 1.383 . S
C803 H811 0.929 . S
C804 C803 1.383 . S
C804 C805 1.377 . S
C805 H789 0.930 . S
C805 C804 1.377 . S
C805 C806 1.379 . S
C806 H790 0.931 . S
C806 C800 1.383 . S
C806 C805 1.379 . S
H807 C801 0.959 . S
H808 C801 0.961 . S
H809 C801 0.960 . S
H810 C802 0.930 . S
H811 C803 0.929 . S
H812 C820 0.929 . S
H813 C822 0.930 . S
H814 C824 0.930 . S
H815 C827 0.929 . S
H816 C830 0.930 . S
H817 C832 0.960 . S
H818 C832 0.960 . S
H819 C832 0.960 . S
C820 H812 0.929 . S
C820 C821 1.377 . S
C820 C822 1.384 . S
C821 C820 1.377 . S
C821 C827 1.390 . S
C822 H813 0.930 . S
C822 C820 1.384 . S
C822 C823 1.372 . S
C823 C822 1.372 . S
C823 C824 1.400 . S
C823 C828 1.490 . S
C824 H814 0.930 . S
C824 C823 1.400 . S
C824 C827 1.386 . S
H825 C841 0.930 . S
H826 C842 0.931 . S
C827 H815 0.929 . S
C827 C821 1.390 . S
C827 C824 1.386 . S
C828 C823 1.490 . S
C828 C830 1.395 . S
C828 C831 1.403 . S
H829 C835 0.930 . S
C830 H816 0.930 . S
C830 C828 1.395 . S
C830 C833 1.403 . S
C831 C828 1.403 . S
C831 C832 1.524 . S
C831 C835 1.400 . S
C832 H817 0.960 . S
C832 H818 0.960 . S
C832 H819 0.960 . S
C832 C831 1.524 . S
C833 C830 1.403 . S
C833 C834 1.392 . S
C833 C837 1.495 . S
C834 C833 1.392 . S
C834 C835 1.385 . S
C834 C836 1.478 . S
C835 H829 0.930 . S
C835 C831 1.400 . S
C835 C834 1.385 . S
C836 C834 1.478 . S
C836 C838 1.381 . S
C836 C842 1.383 . S
C837 C833 1.495 . S
C837 H843 0.959 . S
C837 H844 0.961 . S
C837 H845 0.960 . S
C838 C836 1.381 . S
C838 C839 1.394 . S
C838 H846 0.930 . S
C839 C838 1.394 . S
C839 C840 1.383 . S
C839 H847 0.929 . S
C840 C839 1.383 . S
C840 C841 1.377 . S
C841 H825 0.930 . S
C841 C840 1.377 . S
C841 C842 1.379 . S
C842 H826 0.931 . S
C842 C836 1.383 . S
C842 C841 1.379 . S
H843 C837 0.959 . S
H844 C837 0.961 . S
H845 C837 0.960 . S
H846 C838 0.930 . S
H847 C839 0.929 . S
H848 C856 0.929 . S
H849 C858 0.930 . S
H850 C860 0.930 . S
H851 C863 0.929 . S
H852 C866 0.930 . S
H853 C868 0.960 . S
H854 C868 0.960 . S
H855 C868 0.960 . S
C856 H848 0.929 . S
C856 C857 1.377 . S
C856 C858 1.384 . S
C857 C856 1.377 . S
C857 C863 1.390 . S
C858 H849 0.930 . S
C858 C856 1.384 . S
C858 C859 1.372 . S
C859 C858 1.372 . S
C859 C860 1.400 . S
C859 C864 1.490 . S
C860 H850 0.930 . S
C860 C859 1.400 . S
C860 C863 1.386 . S
H861 C877 0.930 . S
H862 C878 0.931 . S
C863 H851 0.929 . S
C863 C857 1.390 . S
C863 C860 1.386 . S
C864 C859 1.490 . S
C864 C866 1.395 . S
C864 C867 1.403 . S
H865 C871 0.930 . S
C866 H852 0.930 . S
C866 C864 1.395 . S
C866 C869 1.403 . S
C867 C864 1.403 . S
C867 C868 1.524 . S
C867 C871 1.400 . S
C868 H853 0.960 . S
C868 H854 0.960 . S
C868 H855 0.960 . S
C868 C867 1.524 . S
C869 C866 1.403 . S
C869 C870 1.392 . S
C869 C873 1.495 . S
C870 C869 1.392 . S
C870 C871 1.385 . S
C870 C872 1.478 . S
C871 H865 0.930 . S
C871 C867 1.400 . S
C871 C870 1.385 . S
C872 C870 1.478 . S
C872 C874 1.381 . S
C872 C878 1.383 . S
C873 C869 1.495 . S
C873 H879 0.959 . S
C873 H880 0.961 . S
C873 H881 0.960 . S
C874 C872 1.381 . S
C874 C875 1.394 . S
C874 H882 0.930 . S
C875 C874 1.394 . S
C875 C876 1.383 . S
C875 H883 0.929 . S
C876 C875 1.383 . S
C876 C877 1.377 . S
C877 H861 0.930 . S
C877 C876 1.377 . S
C877 C878 1.379 . S
C878 H862 0.931 . S
C878 C872 1.383 . S
C878 C877 1.379 . S
H879 C873 0.959 . S
H880 C873 0.961 . S
H881 C873 0.960 . S
H882 C874 0.930 . S
H883 C875 0.929 . S
H884 C892 0.929 . S
H885 C894 0.930 . S
H886 C896 0.930 . S
H887 C899 0.929 . S
H888 C902 0.930 . S
H889 C904 0.960 . S
H890 C904 0.960 . S
H891 C904 0.960 . S
C892 H884 0.929 . S
C892 C893 1.377 . S
C892 C894 1.384 . S
C893 C892 1.377 . S
C893 C899 1.390 . S
C894 H885 0.930 . S
C894 C892 1.384 . S
C894 C895 1.372 . S
C895 C894 1.372 . S
C895 C896 1.400 . S
C895 C900 1.490 . S
C896 H886 0.930 . S
C896 C895 1.400 . S
C896 C899 1.386 . S
H897 C913 0.930 . S
H898 C914 0.931 . S
C899 H887 0.929 . S
C899 C893 1.390 . S
C899 C896 1.386 . S
C900 C895 1.490 . S
C900 C902 1.395 . S
C900 C903 1.403 . S
H901 C907 0.930 . S
C902 H888 0.930 . S
C902 C900 1.395 . S
C902 C905 1.403 . S
C903 C900 1.403 . S
C903 C904 1.524 . S
C903 C907 1.400 . S
C904 H889 0.960 . S
C904 H890 0.960 . S
C904 H891 0.960 . S
C904 C903 1.524 . S
C905 C902 1.403 . S
C905 C906 1.392 . S
C905 C909 1.495 . S
C906 C905 1.392 . S
C906 C907 1.385 . S
C906 C908 1.478 . S
C907 H901 0.930 . S
C907 C903 1.400 . S
C907 C906 1.385 . S
C908 C906 1.478 . S
C908 C910 1.381 . S
C908 C914 1.383 . S
C909 C905 1.495 . S
C909 H915 0.959 . S
C909 H916 0.961 . S
C909 H917 0.960 . S
C910 C908 1.381 . S
C910 C911 1.394 . S
C910 H918 0.930 . S
C911 C910 1.394 . S
C911 C912 1.383 . S
C911 H919 0.929 . S
C912 C911 1.383 . S
C912 C913 1.377 . S
C913 H897 0.930 . S
C913 C912 1.377 . S
C913 C914 1.379 . S
C914 H898 0.931 . S
C914 C908 1.383 . S
C914 C913 1.379 . S
H915 C909 0.959 . S
H916 C909 0.961 . S
H917 C909 0.960 . S
H918 C910 0.930 . S
H919 C911 0.929 . S
H920 C928 0.929 . S
H921 C930 0.930 . S
H922 C932 0.930 . S
H923 C935 0.929 . S
H924 C938 0.930 . S
H925 C940 0.960 . S
H926 C940 0.960 . S
H927 C940 0.960 . S
C928 H920 0.929 . S
C928 C929 1.377 . S
C928 C930 1.384 . S
C929 C928 1.377 . S
C929 C935 1.390 . S
C930 H921 0.930 . S
C930 C928 1.384 . S
C930 C931 1.372 . S
C931 C930 1.372 . S
C931 C932 1.400 . S
C931 C936 1.490 . S
C932 H922 0.930 . S
C932 C931 1.400 . S
C932 C935 1.386 . S
H933 C949 0.930 . S
H934 C950 0.931 . S
C935 H923 0.929 . S
C935 C929 1.390 . S
C935 C932 1.386 . S
C936 C931 1.490 . S
C936 C938 1.395 . S
C936 C939 1.403 . S
H937 C943 0.930 . S
C938 H924 0.930 . S
C938 C936 1.395 . S
C938 C941 1.403 . S
C939 C936 1.403 . S
C939 C940 1.524 . S
C939 C943 1.400 . S
C940 H925 0.960 . S
C940 H926 0.960 . S
C940 H927 0.960 . S
C940 C939 1.524 . S
C941 C938 1.403 . S
C941 C942 1.392 . S
C941 C945 1.495 . S
C942 C941 1.392 . S
C942 C943 1.385 . S
C942 C944 1.478 . S
C943 H937 0.930 . S
C943 C939 1.400 . S
C943 C942 1.385 . S
C944 C942 1.478 . S
C944 C946 1.381 . S
C944 C950 1.383 . S
C945 C941 1.495 . S
C945 H951 0.959 . S
C945 H952 0.961 . S
C945 H953 0.960 . S
C946 C944 1.381 . S
C946 C947 1.394 . S
C946 H954 0.930 . S
C947 C946 1.394 . S
C947 C948 1.383 . S
C947 H955 0.929 . S
C948 C947 1.383 . S
C948 C949 1.377 . S
C949 H933 0.930 . S
C949 C948 1.377 . S
C949 C950 1.379 . S
C950 H934 0.931 . S
C950 C944 1.383 . S
C950 C949 1.379 . S
H951 C945 0.959 . S
H952 C945 0.961 . S
H953 C945 0.960 . S
H954 C946 0.930 . S
H955 C947 0.929 . S
H956 C964 0.929 . S
H957 C966 0.930 . S
H958 C968 0.930 . S
H959 C971 0.929 . S
H960 C974 0.930 . S
H961 C976 0.960 . S
H962 C976 0.960 . S
H963 C976 0.960 . S
C964 H956 0.929 . S
C964 C965 1.377 . S
C964 C966 1.384 . S
C965 C964 1.377 . S
C965 C971 1.390 . S
C966 H957 0.930 . S
C966 C964 1.384 . S
C966 C967 1.372 . S
C967 C966 1.372 . S
C967 C968 1.400 . S
C967 C972 1.490 . S
C968 H958 0.930 . S
C968 C967 1.400 . S
C968 C971 1.386 . S
H969 C985 0.930 . S
H970 C986 0.931 . S
C971 H959 0.929 . S
C971 C965 1.390 . S
C971 C968 1.386 . S
C972 C967 1.490 . S
C972 C974 1.395 . S
C972 C975 1.403 . S
H973 C979 0.930 . S
C974 H960 0.930 . S
C974 C972 1.395 . S
C974 C977 1.403 . S
C975 C972 1.403 . S
C975 C976 1.524 . S
C975 C979 1.400 . S
C976 H961 0.960 . S
C976 H962 0.960 . S
C976 H963 0.960 . S
C976 C975 1.524 . S
C977 C974 1.403 . S
C977 C978 1.392 . S
C977 C981 1.495 . S
C978 C977 1.392 . S
C978 C979 1.385 . S
C978 C980 1.478 . S
C979 H973 0.930 . S
C979 C975 1.400 . S
C979 C978 1.385 . S
C980 C978 1.478 . S
C980 C982 1.381 . S
C980 C986 1.383 . S
C981 C977 1.495 . S
C981 H987 0.959 . S
C981 H988 0.961 . S
C981 H989 0.960 . S
C982 C980 1.381 . S
C982 C983 1.394 . S
C982 H990 0.930 . S
C983 C982 1.394 . S
C983 C984 1.383 . S
C983 H991 0.929 . S
C984 C983 1.383 . S
C984 C985 1.377 . S
C985 H969 0.930 . S
C985 C984 1.377 . S
C985 C986 1.379 . S
C986 H970 0.931 . S
C986 C980 1.383 . S
C986 C985 1.379 . S
H987 C981 0.959 . S
H988 C981 0.961 . S
H989 C981 0.960 . S
H990 C982 0.930 . S
H991 C983 0.929 . S
H992 C1000 0.929 . S
H993 C1002 0.930 . S
H994 C1004 0.930 . S
H995 C1007 0.929 . S
H996 C1010 0.930 . S
H997 C1012 0.960 . S
H998 C1012 0.960 . S
H999 C1012 0.960 . S
C1000 H992 0.929 . S
C1000 C1001 1.377 . S
C1000 C1002 1.384 . S
C1001 C1000 1.377 . S
C1001 C1007 1.390 . S
C1002 H993 0.930 . S
C1002 C1000 1.384 . S
C1002 C1003 1.372 . S
C1003 C1002 1.372 . S
C1003 C1004 1.400 . S
C1003 C1008 1.490 . S
C1004 H994 0.930 . S
C1004 C1003 1.400 . S
C1004 C1007 1.386 . S
H1005 C1021 0.930 . S
H1006 C1022 0.931 . S
C1007 H995 0.929 . S
C1007 C1001 1.390 . S
C1007 C1004 1.386 . S
C1008 C1003 1.490 . S
C1008 C1010 1.395 . S
C1008 C1011 1.403 . S
H1009 C1015 0.930 . S
C1010 H996 0.930 . S
C1010 C1008 1.395 . S
C1010 C1013 1.403 . S
C1011 C1008 1.403 . S
C1011 C1012 1.524 . S
C1011 C1015 1.400 . S
C1012 H997 0.960 . S
C1012 H998 0.960 . S
C1012 H999 0.960 . S
C1012 C1011 1.524 . S
C1013 C1010 1.403 . S
C1013 C1014 1.392 . S
C1013 C1017 1.495 . S
C1014 C1013 1.392 . S
C1014 C1015 1.385 . S
C1014 C1016 1.478 . S
C1015 H1009 0.930 . S
C1015 C1011 1.400 . S
C1015 C1014 1.385 . S
C1016 C1014 1.478 . S
C1016 C1018 1.381 . S
C1016 C1022 1.383 . S
C1017 C1013 1.495 . S
C1017 H1023 0.959 . S
C1017 H1024 0.961 . S
C1017 H1025 0.960 . S
C1018 C1016 1.381 . S
C1018 C1019 1.394 . S
C1018 H1026 0.930 . S
C1019 C1018 1.394 . S
C1019 C1020 1.383 . S
C1019 H1027 0.929 . S
C1020 C1019 1.383 . S
C1020 C1021 1.377 . S
C1021 H1005 0.930 . S
C1021 C1020 1.377 . S
C1021 C1022 1.379 . S
C1022 H1006 0.931 . S
C1022 C1016 1.383 . S
C1022 C1021 1.379 . S
H1023 C1017 0.959 . S
H1024 C1017 0.961 . S
H1025 C1017 0.960 . S
H1026 C1018 0.930 . S
H1027 C1019 0.929 . S
H1028 C1036 0.929 . S
H1029 C1038 0.930 . S
H1030 C1040 0.930 . S
H1031 C1043 0.929 . S
H1032 C1046 0.930 . S
H1033 C1048 0.960 . S
H1034 C1048 0.960 . S
H1035 C1048 0.960 . S
C1036 H1028 0.929 . S
C1036 C1037 1.377 . S
C1036 C1038 1.384 . S
C1037 C1036 1.377 . S
C1037 C1043 1.390 . S
C1038 H1029 0.930 . S
C1038 C1036 1.384 . S
C1038 C1039 1.372 . S
C1039 C1038 1.372 . S
C1039 C1040 1.400 . S
C1039 C1044 1.490 . S
C1040 H1030 0.930 . S
C1040 C1039 1.400 . S
C1040 C1043 1.386 . S
H1041 C1057 0.930 . S
H1042 C1058 0.931 . S
C1043 H1031 0.929 . S
C1043 C1037 1.390 . S
C1043 C1040 1.386 . S
C1044 C1039 1.490 . S
C1044 C1046 1.395 . S
C1044 C1047 1.403 . S
H1045 C1051 0.930 . S
C1046 H1032 0.930 . S
C1046 C1044 1.395 . S
C1046 C1049 1.403 . S
C1047 C1044 1.403 . S
C1047 C1048 1.524 . S
C1047 C1051 1.400 . S
C1048 H1033 0.960 . S
C1048 H1034 0.960 . S
C1048 H1035 0.960 . S
C1048 C1047 1.524 . S
C1049 C1046 1.403 . S
C1049 C1050 1.392 . S
C1049 C1053 1.495 . S
C1050 C1049 1.392 . S
C1050 C1051 1.385 . S
C1050 C1052 1.478 . S
C1051 H1045 0.930 . S
C1051 C1047 1.400 . S
C1051 C1050 1.385 . S
C1052 C1050 1.478 . S
C1052 C1054 1.381 . S
C1052 C1058 1.383 . S
C1053 C1049 1.495 . S
C1053 H1059 0.959 . S
C1053 H1060 0.961 . S
C1053 H1061 0.960 . S
C1054 C1052 1.381 . S
C1054 C1055 1.394 . S
C1054 H1062 0.930 . S
C1055 C1054 1.394 . S
C1055 C1056 1.383 . S
C1055 H1063 0.929 . S
C1056 C1055 1.383 . S
C1056 C1057 1.377 . S
C1057 H1041 0.930 . S
C1057 C1056 1.377 . S
C1057 C1058 1.379 . S
C1058 H1042 0.931 . S
C1058 C1052 1.383 . S
C1058 C1057 1.379 . S
H1059 C1053 0.959 . S
H1060 C1053 0.961 . S
H1061 C1053 0.960 . S
H1062 C1054 0.930 . S
H1063 C1055 0.929 . S
H1064 C1072 0.929 . S
H1065 C1074 0.930 . S
H1066 C1076 0.930 . S
H1067 C1079 0.929 . S
H1068 C1082 0.930 . S
H1069 C1084 0.960 . S
H1070 C1084 0.960 . S
H1071 C1084 0.960 . S
C1072 H1064 0.929 . S
C1072 C1073 1.377 . S
C1072 C1074 1.384 . S
C1073 C1072 1.377 . S
C1073 C1079 1.390 . S
C1074 H1065 0.930 . S
C1074 C1072 1.384 . S
C1074 C1075 1.372 . S
C1075 C1074 1.372 . S
C1075 C1076 1.400 . S
C1075 C1080 1.490 . S
C1076 H1066 0.930 . S
C1076 C1075 1.400 . S
C1076 C1079 1.386 . S
H1077 C1093 0.930 . S
H1078 C1094 0.931 . S
C1079 H1067 0.929 . S
C1079 C1073 1.390 . S
C1079 C1076 1.386 . S
C1080 C1075 1.490 . S
C1080 C1082 1.395 . S
C1080 C1083 1.403 . S
H1081 C1087 0.930 . S
C1082 H1068 0.930 . S
C1082 C1080 1.395 . S
C1082 C1085 1.403 . S
C1083 C1080 1.403 . S
C1083 C1084 1.524 . S
C1083 C1087 1.400 . S
C1084 H1069 0.960 . S
C1084 H1070 0.960 . S
C1084 H1071 0.960 . S
C1084 C1083 1.524 . S
C1085 C1082 1.403 . S
C1085 C1086 1.392 . S
C1085 C1089 1.495 . S
C1086 C1085 1.392 . S
C1086 C1087 1.385 . S
C1086 C1088 1.478 . S
C1087 H1081 0.930 . S
C1087 C1083 1.400 . S
C1087 C1086 1.385 . S
C1088 C1086 1.478 . S
C1088 C1090 1.381 . S
C1088 C1094 1.383 . S
C1089 C1085 1.495 . S
C1089 H1095 0.959 . S
C1089 H1096 0.961 . S
C1089 H1097 0.960 . S
C1090 C1088 1.381 . S
C1090 C1091 1.394 . S
C1090 H1098 0.930 . S
C1091 C1090 1.394 . S
C1091 C1092 1.383 . S
C1091 H1099 0.929 . S
C1092 C1091 1.383 . S
C1092 C1093 1.377 . S
C1093 H1077 0.930 . S
C1093 C1092 1.377 . S
C1093 C1094 1.379 . S
C1094 H1078 0.931 . S
C1094 C1088 1.383 . S
C1094 C1093 1.379 . S
H1095 C1089 0.959 . S
H1096 C1089 0.961 . S
H1097 C1089 0.960 . S
H1098 C1090 0.930 . S
H1099 C1091 0.929 . S
H1100 C1108 0.929 . S
H1101 C1110 0.930 . S
H1102 C1112 0.930 . S
H1103 C1115 0.929 . S
H1104 C1118 0.930 . S
H1105 C1120 0.960 . S
H1106 C1120 0.960 . S
H1107 C1120 0.960 . S
C1108 H1100 0.929 . S
C1108 C1109 1.377 . S
C1108 C1110 1.384 . S
C1109 C1108 1.377 . S
C1109 C1115 1.390 . S
C1110 H1101 0.930 . S
C1110 C1108 1.384 . S
C1110 C1111 1.372 . S
C1111 C1110 1.372 . S
C1111 C1112 1.400 . S
C1111 C1116 1.490 . S
C1112 H1102 0.930 . S
C1112 C1111 1.400 . S
C1112 C1115 1.386 . S
H1113 C1129 0.930 . S
H1114 C1130 0.931 . S
C1115 H1103 0.929 . S
C1115 C1109 1.390 . S
C1115 C1112 1.386 . S
C1116 C1111 1.490 . S
C1116 C1118 1.395 . S
C1116 C1119 1.403 . S
H1117 C1123 0.930 . S
C1118 H1104 0.930 . S
C1118 C1116 1.395 . S
C1118 C1121 1.403 . S
C1119 C1116 1.403 . S
C1119 C1120 1.524 . S
C1119 C1123 1.400 . S
C1120 H1105 0.960 . S
C1120 H1106 0.960 . S
C1120 H1107 0.960 . S
C1120 C1119 1.524 . S
C1121 C1118 1.403 . S
C1121 C1122 1.392 . S
C1121 C1125 1.495 . S
C1122 C1121 1.392 . S
C1122 C1123 1.385 . S
C1122 C1124 1.478 . S
C1123 H1117 0.930 . S
C1123 C1119 1.400 . S
C1123 C1122 1.385 . S
C1124 C1122 1.478 . S
C1124 C1126 1.381 . S
C1124 C1130 1.383 . S
C1125 C1121 1.495 . S
C1125 H1131 0.959 . S
C1125 H1132 0.961 . S
C1125 H1133 0.960 . S
C1126 C1124 1.381 . S
C1126 C1127 1.394 . S
C1126 H1134 0.930 . S
C1127 C1126 1.394 . S
C1127 C1128 1.383 . S
C1127 H1135 0.929 . S
C1128 C1127 1.383 . S
C1128 C1129 1.377 . S
C1129 H1113 0.930 . S
C1129 C1128 1.377 . S
C1129 C1130 1.379 . S
C1130 H1114 0.931 . S
C1130 C1124 1.383 . S
C1130 C1129 1.379 . S
H1131 C1125 0.959 . S
H1132 C1125 0.961 . S
H1133 C1125 0.960 . S
H1134 C1126 0.930 . S
H1135 C1127 0.929 . S
H1136 C1144 0.929 . S
H1137 C1146 0.930 . S
H1138 C1148 0.930 . S
H1139 C1151 0.929 . S
H1140 C1154 0.930 . S
H1141 C1156 0.960 . S
H1142 C1156 0.960 . S
H1143 C1156 0.960 . S
C1144 H1136 0.929 . S
C1144 C1145 1.377 . S
C1144 C1146 1.384 . S
C1145 C1144 1.377 . S
C1145 C1151 1.390 . S
C1146 H1137 0.930 . S
C1146 C1144 1.384 . S
C1146 C1147 1.372 . S
C1147 C1146 1.372 . S
C1147 C1148 1.400 . S
C1147 C1152 1.490 . S
C1148 H1138 0.930 . S
C1148 C1147 1.400 . S
C1148 C1151 1.386 . S
H1149 C1165 0.930 . S
H1150 C1166 0.931 . S
C1151 H1139 0.929 . S
C1151 C1145 1.390 . S
C1151 C1148 1.386 . S
C1152 C1147 1.490 . S
C1152 C1154 1.395 . S
C1152 C1155 1.403 . S
H1153 C1159 0.930 . S
C1154 H1140 0.930 . S
C1154 C1152 1.395 . S
C1154 C1157 1.403 . S
C1155 C1152 1.403 . S
C1155 C1156 1.524 . S
C1155 C1159 1.400 . S
C1156 H1141 0.960 . S
C1156 H1142 0.960 . S
C1156 H1143 0.960 . S
C1156 C1155 1.524 . S
C1157 C1154 1.403 . S
C1157 C1158 1.392 . S
C1157 C1161 1.495 . S
C1158 C1157 1.392 . S
C1158 C1159 1.385 . S
C1158 C1160 1.478 . S
C1159 H1153 0.930 . S
C1159 C1155 1.400 . S
C1159 C1158 1.385 . S
C1160 C1158 1.478 . S
C1160 C1162 1.381 . S
C1160 C1166 1.383 . S
C1161 C1157 1.495 . S
C1161 H1167 0.959 . S
C1161 H1168 0.961 . S
C1161 H1169 0.960 . S
C1162 C1160 1.381 . S
C1162 C1163 1.394 . S
C1162 H1170 0.930 . S
C1163 C1162 1.394 . S
C1163 C1164 1.383 . S
C1163 H1171 0.929 . S
C1164 C1163 1.383 . S
C1164 C1165 1.377 . S
C1165 H1149 0.930 . S
C1165 C1164 1.377 . S
C1165 C1166 1.379 . S
C1166 H1150 0.931 . S
C1166 C1160 1.383 . S
C1166 C1165 1.379 . S
H1167 C1161 0.959 . S
H1168 C1161 0.961 . S
H1169 C1161 0.960 . S
H1170 C1162 0.930 . S
H1171 C1163 0.929 . S
H1172 C1180 0.929 . S
H1173 C1182 0.930 . S
H1174 C1184 0.930 . S
H1175 C1187 0.929 . S
H1176 C1190 0.930 . S
H1177 C1192 0.960 . S
H1178 C1192 0.960 . S
H1179 C1192 0.960 . S
C1180 H1172 0.929 . S
C1180 C1181 1.377 . S
C1180 C1182 1.384 . S
C1181 C1180 1.377 . S
C1181 C1187 1.390 . S
C1182 H1173 0.930 . S
C1182 C1180 1.384 . S
C1182 C1183 1.372 . S
C1183 C1182 1.372 . S
C1183 C1184 1.400 . S
C1183 C1188 1.490 . S
C1184 H1174 0.930 . S
C1184 C1183 1.400 . S
C1184 C1187 1.386 . S
H1185 C1201 0.930 . S
H1186 C1202 0.931 . S
C1187 H1175 0.929 . S
C1187 C1181 1.390 . S
C1187 C1184 1.386 . S
C1188 C1183 1.490 . S
C1188 C1190 1.395 . S
C1188 C1191 1.403 . S
H1189 C1195 0.930 . S
C1190 H1176 0.930 . S
C1190 C1188 1.395 . S
C1190 C1193 1.403 . S
C1191 C1188 1.403 . S
C1191 C1192 1.524 . S
C1191 C1195 1.400 . S
C1192 H1177 0.960 . S
C1192 H1178 0.960 . S
C1192 H1179 0.960 . S
C1192 C1191 1.524 . S
C1193 C1190 1.403 . S
C1193 C1194 1.392 . S
C1193 C1197 1.495 . S
C1194 C1193 1.392 . S
C1194 C1195 1.385 . S
C1194 C1196 1.478 . S
C1195 H1189 0.930 . S
C1195 C1191 1.400 . S
C1195 C1194 1.385 . S
C1196 C1194 1.478 . S
C1196 C1198 1.381 . S
C1196 C1202 1.383 . S
C1197 C1193 1.495 . S
C1197 H1203 0.959 . S
C1197 H1204 0.961 . S
C1197 H1205 0.960 . S
C1198 C1196 1.381 . S
C1198 C1199 1.394 . S
C1198 H1206 0.930 . S
C1199 C1198 1.394 . S
C1199 C1200 1.383 . S
C1199 H1207 0.929 . S
C1200 C1199 1.383 . S
C1200 C1201 1.377 . S
C1201 H1185 0.930 . S
C1201 C1200 1.377 . S
C1201 C1202 1.379 . S
C1202 H1186 0.931 . S
C1202 C1196 1.383 . S
C1202 C1201 1.379 . S
H1203 C1197 0.959 . S
H1204 C1197 0.961 . S
H1205 C1197 0.960 . S
H1206 C1198 0.930 . S
H1207 C1199 0.929 . S
H1208 C1216 0.929 . S
H1209 C1218 0.930 . S
H1210 C1220 0.930 . S
H1211 C1223 0.929 . S
H1212 C1226 0.930 . S
H1213 C1228 0.960 . S
H1214 C1228 0.960 . S
H1215 C1228 0.960 . S
C1216 H1208 0.929 . S
C1216 C1217 1.377 . S
C1216 C1218 1.384 . S
C1217 C1216 1.377 . S
C1217 C1223 1.390 . S
C1218 H1209 0.930 . S
C1218 C1216 1.384 . S
C1218 C1219 1.372 . S
C1219 C1218 1.372 . S
C1219 C1220 1.400 . S
C1219 C1224 1.490 . S
C1220 H1210 0.930 . S
C1220 C1219 1.400 . S
C1220 C1223 1.386 . S
H1221 C1237 0.930 . S
H1222 C1238 0.931 . S
C1223 H1211 0.929 . S
C1223 C1217 1.390 . S
C1223 C1220 1.386 . S
C1224 C1219 1.490 . S
C1224 C1226 1.395 . S
C1224 C1227 1.403 . S
H1225 C1231 0.930 . S
C1226 H1212 0.930 . S
C1226 C1224 1.395 . S
C1226 C1229 1.403 . S
C1227 C1224 1.403 . S
C1227 C1228 1.524 . S
C1227 C1231 1.400 . S
C1228 H1213 0.960 . S
C1228 H1214 0.960 . S
C1228 H1215 0.960 . S
C1228 C1227 1.524 . S
C1229 C1226 1.403 . S
C1229 C1230 1.392 . S
C1229 C1233 1.495 . S
C1230 C1229 1.392 . S
C1230 C1231 1.385 . S
C1230 C1232 1.478 . S
C1231 H1225 0.930 . S
C1231 C1227 1.400 . S
C1231 C1230 1.385 . S
C1232 C1230 1.478 . S
C1232 C1234 1.381 . S
C1232 C1238 1.383 . S
C1233 C1229 1.495 . S
C1233 H1239 0.959 . S
C1233 H1240 0.961 . S
C1233 H1241 0.960 . S
C1234 C1232 1.381 . S
C1234 C1235 1.394 . S
C1234 H1242 0.930 . S
C1235 C1234 1.394 . S
C1235 C1236 1.383 . S
C1235 H1243 0.929 . S
C1236 C1235 1.383 . S
C1236 C1237 1.377 . S
C1237 H1221 0.930 . S
C1237 C1236 1.377 . S
C1237 C1238 1.379 . S
C1238 H1222 0.931 . S
C1238 C1232 1.383 . S
C1238 C1237 1.379 . S
H1239 C1233 0.959 . S
H1240 C1233 0.961 . S
H1241 C1233 0.960 . S
H1242 C1234 0.930 . S
H1243 C1235 0.929 . S
H1244 C1252 0.929 . S
H1245 C1254 0.930 . S
H1246 C1256 0.930 . S
H1247 C1259 0.929 . S
H1248 C1262 0.930 . S
H1249 C1264 0.960 . S
H1250 C1264 0.960 . S
H1251 C1264 0.960 . S
C1252 H1244 0.929 . S
C1252 C1253 1.377 . S
C1252 C1254 1.384 . S
C1253 C1252 1.377 . S
C1253 C1259 1.390 . S
C1254 H1245 0.930 . S
C1254 C1252 1.384 . S
C1254 C1255 1.372 . S
C1255 C1254 1.372 . S
C1255 C1256 1.400 . S
C1255 C1260 1.490 . S
C1256 H1246 0.930 . S
C1256 C1255 1.400 . S
C1256 C1259 1.386 . S
H1257 C1273 0.930 . S
H1258 C1274 0.931 . S
C1259 H1247 0.929 . S
C1259 C1253 1.390 . S
C1259 C1256 1.386 . S
C1260 C1255 1.490 . S
C1260 C1262 1.395 . S
C1260 C1263 1.403 . S
H1261 C1267 0.930 . S
C1262 H1248 0.930 . S
C1262 C1260 1.395 . S
C1262 C1265 1.403 . S
C1263 C1260 1.403 . S
C1263 C1264 1.524 . S
C1263 C1267 1.400 . S
C1264 H1249 0.960 . S
C1264 H1250 0.960 . S
C1264 H1251 0.960 . S
C1264 C1263 1.524 . S
C1265 C1262 1.403 . S
C1265 C1266 1.392 . S
C1265 C1269 1.495 . S
C1266 C1265 1.392 . S
C1266 C1267 1.385 . S
C1266 C1268 1.478 . S
C1267 H1261 0.930 . S
C1267 C1263 1.400 . S
C1267 C1266 1.385 . S
C1268 C1266 1.478 . S
C1268 C1270 1.381 . S
C1268 C1274 1.383 . S
C1269 C1265 1.495 . S
C1269 H1275 0.959 . S
C1269 H1276 0.961 . S
C1269 H1277 0.960 . S
C1270 C1268 1.381 . S
C1270 C1271 1.394 . S
C1270 H1278 0.930 . S
C1271 C1270 1.394 . S
C1271 C1272 1.383 . S
C1271 H1279 0.929 . S
C1272 C1271 1.383 . S
C1272 C1273 1.377 . S
C1273 H1257 0.930 . S
C1273 C1272 1.377 . S
C1273 C1274 1.379 . S
C1274 H1258 0.931 . S
C1274 C1268 1.383 . S
C1274 C1273 1.379 . S
H1275 C1269 0.959 . S
H1276 C1269 0.961 . S
H1277 C1269 0.960 . S
H1278 C1270 0.930 . S
H1279 C1271 0.929 . S
C425 C29 1.208 . S
C444 C262 1.199 . S
C461 C49 0.870 . S
C480 C311 0.858 . S
C516 C346 2.476 . S
C497 C93 2.483 . S
C533 C119 2.234 . S
C552 C385 2.222 . S
C588 C306 2.326 . S
C569 C17 2.325 . S
C624 C265 0.854 . S
C605 C61 0.924 . S
C660 C395 1.869 . S
C641 C81 1.876 . S
C696 C354 1.597 . S
C677 C125 1.567 . S
C713 C23 1.633 . S
C732 C382 1.632 . S
C768 C314 2.286 . S
C749 C87 2.323 . S
C785 C113 2.326 . S
C804 C275 2.355 . S
C821 C55 0.730 . S
C840 C351 0.731 . S
C876 C271 1.180 . S
C857 C157 1.064 . S
C893 C189 0.927 . S
C912 C302 0.921 . S
C929 C221 2.437 . S
C948 C355 2.434 . S
C965 C253 2.312 . S
C984 C394 2.325 . S
C1001 C145 2.231 . S
C1020 C315 2.419 . S
C1056 C274 0.831 . S
C1037 C183 0.847 . S
C1092 C386 1.894 . S
C1073 C209 1.903 . S
C1128 C345 1.509 . S
C1109 C247 1.520 . S
C1145 C151 1.527 . S
C1164 C391 1.646 . S
C1200 C305 2.268 . S
C1181 C215 2.316 . S
C1236 C266 2.314 . S
C1217 C241 2.270 . S
C1253 C177 0.719 . S
C1272 C342 0.706 . S
