# Generated by pormake.
# Topology bwt, (3,3)-cn, num edge types: 1
# Building blocks:
#     Node 0, Type 0, BuildingBlock: WUSLED_clean_sbu_0, # of connection points: 3
#     Node 1, Type 0, BuildingBlock: WUSLED_clean_sbu_0, # of connection points: 3
#     Node 2, Type 0, BuildingBlock: WUSLED_clean_sbu_0, # of connection points: 3
#     Node 3, Type 0, BuildingBlock: WUSLED_clean_sbu_0, # of connection points: 3
#     Node 4, Type 0, BuildingBlock: WUSLED_clean_sbu_0, # of connection points: 3
#     Node 5, Type 0, BuildingBlock: WUSLED_clean_sbu_0, # of connection points: 3
#     Node 6, Type 0, BuildingBlock: WUSLED_clean_sbu_0, # of connection points: 3
#     Node 7, Type 0, BuildingBlock: WUSLED_clean_sbu_0, # of connection points: 3
#     Node 8, Type 0, BuildingBlock: WUSLED_clean_sbu_0, # of connection points: 3
#     Node 9, Type 0, BuildingBlock: WUSLED_clean_sbu_0, # of connection points: 3
#     Node 10, Type 0, BuildingBlock: WUSLED_clean_sbu_0, # of connection points: 3
#     Node 11, Type 0, BuildingBlock: WUSLED_clean_sbu_0, # of connection points: 3
#     Node 12, Type 0, BuildingBlock: WUSLED_clean_sbu_0, # of connection points: 3
#     Node 13, Type 0, BuildingBlock: WUSLED_clean_sbu_0, # of connection points: 3
#     Node 14, Type 0, BuildingBlock: WUSLED_clean_sbu_0, # of connection points: 3
#     Node 15, Type 0, BuildingBlock: WUSLED_clean_sbu_0, # of connection points: 3
#     Node 16, Type 0, BuildingBlock: WUSLED_clean_sbu_0, # of connection points: 3
#     Node 17, Type 0, BuildingBlock: WUSLED_clean_sbu_0, # of connection points: 3
#     Node 18, Type 0, BuildingBlock: WUSLED_clean_sbu_0, # of connection points: 3
#     Node 19, Type 0, BuildingBlock: WUSLED_clean_sbu_0, # of connection points: 3
#     Node 20, Type 0, BuildingBlock: WUSLED_clean_sbu_0, # of connection points: 3
#     Node 21, Type 0, BuildingBlock: WUSLED_clean_sbu_0, # of connection points: 3
#     Node 22, Type 0, BuildingBlock: WUSLED_clean_sbu_0, # of connection points: 3
#     Node 23, Type 0, BuildingBlock: WUSLED_clean_sbu_0, # of connection points: 3
#     Node 24, Type 1, BuildingBlock: KAKCAD_clean_linker_0, # of connection points: 3
#     Node 25, Type 1, BuildingBlock: KAKCAD_clean_linker_0, # of connection points: 3
#     Node 26, Type 1, BuildingBlock: KAKCAD_clean_linker_0, # of connection points: 3
#     Node 27, Type 1, BuildingBlock: KAKCAD_clean_linker_0, # of connection points: 3
#     Node 28, Type 1, BuildingBlock: KAKCAD_clean_linker_0, # of connection points: 3
#     Node 29, Type 1, BuildingBlock: KAKCAD_clean_linker_0, # of connection points: 3
#     Node 30, Type 1, BuildingBlock: KAKCAD_clean_linker_0, # of connection points: 3
#     Node 31, Type 1, BuildingBlock: KAKCAD_clean_linker_0, # of connection points: 3
#     Node 32, Type 1, BuildingBlock: KAKCAD_clean_linker_0, # of connection points: 3
#     Node 33, Type 1, BuildingBlock: KAKCAD_clean_linker_0, # of connection points: 3
#     Node 34, Type 1, BuildingBlock: KAKCAD_clean_linker_0, # of connection points: 3
#     Node 35, Type 1, BuildingBlock: KAKCAD_clean_linker_0, # of connection points: 3
#     Node 36, Type 1, BuildingBlock: KAKCAD_clean_linker_0, # of connection points: 3
#     Node 37, Type 1, BuildingBlock: KAKCAD_clean_linker_0, # of connection points: 3
#     Node 38, Type 1, BuildingBlock: KAKCAD_clean_linker_0, # of connection points: 3
#     Node 39, Type 1, BuildingBlock: KAKCAD_clean_linker_0, # of connection points: 3
#     Node 40, Type 1, BuildingBlock: KAKCAD_clean_linker_0, # of connection points: 3
#     Node 41, Type 1, BuildingBlock: KAKCAD_clean_linker_0, # of connection points: 3
#     Node 42, Type 1, BuildingBlock: KAKCAD_clean_linker_0, # of connection points: 3
#     Node 43, Type 1, BuildingBlock: KAKCAD_clean_linker_0, # of connection points: 3
#     Node 44, Type 1, BuildingBlock: KAKCAD_clean_linker_0, # of connection points: 3
#     Node 45, Type 1, BuildingBlock: KAKCAD_clean_linker_0, # of connection points: 3
#     Node 46, Type 1, BuildingBlock: KAKCAD_clean_linker_0, # of connection points: 3
#     Node 47, Type 1, BuildingBlock: KAKCAD_clean_linker_0, # of connection points: 3
#     Edge 48, Type (0, 1), BuildingBlock: ZUJKAS_clean_linker_0, # of connection points: 2
#     Edge 49, Type (0, 1), BuildingBlock: ZUJKAS_clean_linker_0, # of connection points: 2
#     Edge 50, Type (0, 1), BuildingBlock: ZUJKAS_clean_linker_0, # of connection points: 2
#     Edge 51, Type (0, 1), BuildingBlock: ZUJKAS_clean_linker_0, # of connection points: 2
#     Edge 52, Type (0, 1), BuildingBlock: ZUJKAS_clean_linker_0, # of connection points: 2
#     Edge 53, Type (0, 1), BuildingBlock: ZUJKAS_clean_linker_0, # of connection points: 2
#     Edge 54, Type (0, 1), BuildingBlock: ZUJKAS_clean_linker_0, # of connection points: 2
#     Edge 55, Type (0, 1), BuildingBlock: ZUJKAS_clean_linker_0, # of connection points: 2
#     Edge 56, Type (0, 1), BuildingBlock: ZUJKAS_clean_linker_0, # of connection points: 2
#     Edge 57, Type (0, 1), BuildingBlock: ZUJKAS_clean_linker_0, # of connection points: 2
#     Edge 58, Type (0, 1), BuildingBlock: ZUJKAS_clean_linker_0, # of connection points: 2
#     Edge 59, Type (0, 1), BuildingBlock: ZUJKAS_clean_linker_0, # of connection points: 2
#     Edge 60, Type (0, 1), BuildingBlock: ZUJKAS_clean_linker_0, # of connection points: 2
#     Edge 61, Type (0, 1), BuildingBlock: ZUJKAS_clean_linker_0, # of connection points: 2
#     Edge 62, Type (0, 1), BuildingBlock: ZUJKAS_clean_linker_0, # of connection points: 2
#     Edge 63, Type (0, 1), BuildingBlock: ZUJKAS_clean_linker_0, # of connection points: 2
#     Edge 64, Type (0, 1), BuildingBlock: ZUJKAS_clean_linker_0, # of connection points: 2
#     Edge 65, Type (0, 1), BuildingBlock: ZUJKAS_clean_linker_0, # of connection points: 2
#     Edge 66, Type (0, 1), BuildingBlock: ZUJKAS_clean_linker_0, # of connection points: 2
#     Edge 67, Type (0, 1), BuildingBlock: ZUJKAS_clean_linker_0, # of connection points: 2
#     Edge 68, Type (0, 1), BuildingBlock: ZUJKAS_clean_linker_0, # of connection points: 2
#     Edge 69, Type (0, 1), BuildingBlock: ZUJKAS_clean_linker_0, # of connection points: 2
#     Edge 70, Type (0, 1), BuildingBlock: ZUJKAS_clean_linker_0, # of connection points: 2
#     Edge 71, Type (0, 1), BuildingBlock: ZUJKAS_clean_linker_0, # of connection points: 2
#     Edge 72, Type (0, 1), BuildingBlock: ZUJKAS_clean_linker_0, # of connection points: 2
#     Edge 73, Type (0, 1), BuildingBlock: ZUJKAS_clean_linker_0, # of connection points: 2
#     Edge 74, Type (0, 1), BuildingBlock: ZUJKAS_clean_linker_0, # of connection points: 2
#     Edge 75, Type (0, 1), BuildingBlock: ZUJKAS_clean_linker_0, # of connection points: 2
#     Edge 76, Type (0, 1), BuildingBlock: ZUJKAS_clean_linker_0, # of connection points: 2
#     Edge 77, Type (0, 1), BuildingBlock: ZUJKAS_clean_linker_0, # of connection points: 2
#     Edge 78, Type (0, 1), BuildingBlock: ZUJKAS_clean_linker_0, # of connection points: 2
#     Edge 79, Type (0, 1), BuildingBlock: ZUJKAS_clean_linker_0, # of connection points: 2
#     Edge 80, Type (0, 1), BuildingBlock: ZUJKAS_clean_linker_0, # of connection points: 2
#     Edge 81, Type (0, 1), BuildingBlock: ZUJKAS_clean_linker_0, # of connection points: 2
#     Edge 82, Type (0, 1), BuildingBlock: ZUJKAS_clean_linker_0, # of connection points: 2
#     Edge 83, Type (0, 1), BuildingBlock: ZUJKAS_clean_linker_0, # of connection points: 2
#     Edge 84, Type (0, 1), BuildingBlock: ZUJKAS_clean_linker_0, # of connection points: 2
#     Edge 85, Type (0, 1), BuildingBlock: ZUJKAS_clean_linker_0, # of connection points: 2
#     Edge 86, Type (0, 1), BuildingBlock: ZUJKAS_clean_linker_0, # of connection points: 2
#     Edge 87, Type (0, 1), BuildingBlock: ZUJKAS_clean_linker_0, # of connection points: 2
#     Edge 88, Type (0, 1), BuildingBlock: ZUJKAS_clean_linker_0, # of connection points: 2
#     Edge 89, Type (0, 1), BuildingBlock: ZUJKAS_clean_linker_0, # of connection points: 2
#     Edge 90, Type (0, 1), BuildingBlock: ZUJKAS_clean_linker_0, # of connection points: 2
#     Edge 91, Type (0, 1), BuildingBlock: ZUJKAS_clean_linker_0, # of connection points: 2
#     Edge 92, Type (0, 1), BuildingBlock: ZUJKAS_clean_linker_0, # of connection points: 2
#     Edge 93, Type (0, 1), BuildingBlock: ZUJKAS_clean_linker_0, # of connection points: 2
#     Edge 94, Type (0, 1), BuildingBlock: ZUJKAS_clean_linker_0, # of connection points: 2
#     Edge 95, Type (0, 1), BuildingBlock: ZUJKAS_clean_linker_0, # of connection points: 2
#     Edge 96, Type (0, 1), BuildingBlock: ZUJKAS_clean_linker_0, # of connection points: 2
#     Edge 97, Type (0, 1), BuildingBlock: ZUJKAS_clean_linker_0, # of connection points: 2
#     Edge 98, Type (0, 1), BuildingBlock: ZUJKAS_clean_linker_0, # of connection points: 2
#     Edge 99, Type (0, 1), BuildingBlock: ZUJKAS_clean_linker_0, # of connection points: 2
#     Edge 100, Type (0, 1), BuildingBlock: ZUJKAS_clean_linker_0, # of connection points: 2
#     Edge 101, Type (0, 1), BuildingBlock: ZUJKAS_clean_linker_0, # of connection points: 2
#     Edge 102, Type (0, 1), BuildingBlock: ZUJKAS_clean_linker_0, # of connection points: 2
#     Edge 103, Type (0, 1), BuildingBlock: ZUJKAS_clean_linker_0, # of connection points: 2
#     Edge 104, Type (0, 1), BuildingBlock: ZUJKAS_clean_linker_0, # of connection points: 2
#     Edge 105, Type (0, 1), BuildingBlock: ZUJKAS_clean_linker_0, # of connection points: 2
#     Edge 106, Type (0, 1), BuildingBlock: ZUJKAS_clean_linker_0, # of connection points: 2
#     Edge 107, Type (0, 1), BuildingBlock: ZUJKAS_clean_linker_0, # of connection points: 2
#     Edge 108, Type (0, 1), BuildingBlock: ZUJKAS_clean_linker_0, # of connection points: 2
#     Edge 109, Type (0, 1), BuildingBlock: ZUJKAS_clean_linker_0, # of connection points: 2
#     Edge 110, Type (0, 1), BuildingBlock: ZUJKAS_clean_linker_0, # of connection points: 2
#     Edge 111, Type (0, 1), BuildingBlock: ZUJKAS_clean_linker_0, # of connection points: 2
#     Edge 112, Type (0, 1), BuildingBlock: ZUJKAS_clean_linker_0, # of connection points: 2
#     Edge 113, Type (0, 1), BuildingBlock: ZUJKAS_clean_linker_0, # of connection points: 2
#     Edge 114, Type (0, 1), BuildingBlock: ZUJKAS_clean_linker_0, # of connection points: 2
#     Edge 115, Type (0, 1), BuildingBlock: ZUJKAS_clean_linker_0, # of connection points: 2
#     Edge 116, Type (0, 1), BuildingBlock: ZUJKAS_clean_linker_0, # of connection points: 2
#     Edge 117, Type (0, 1), BuildingBlock: ZUJKAS_clean_linker_0, # of connection points: 2
#     Edge 118, Type (0, 1), BuildingBlock: ZUJKAS_clean_linker_0, # of connection points: 2
#     Edge 119, Type (0, 1), BuildingBlock: ZUJKAS_clean_linker_0, # of connection points: 2
# Relax obj value: 0.224
# Max RMSD: 0.277
# Mean RMSD: 0.140
data_MOF--net-bwt--node1-WUSLED_clean_sbu_0--node2-KAKCAD_clean_linker_0--edge1-ZUJKAS_clean_linker_0
_symmetry_space_group_name_H-M    P1
_symmetry_Int_Tables_number       1
_symmetry_cell_setting            triclinic
loop_
_symmetry_equiv_pos_as_xyz
'x, y, z'
_cell_length_a     95.612784
_cell_length_b     95.697459
_cell_length_c     95.752184
_cell_angle_alpha  90.200627
_cell_angle_beta   90.258861
_cell_angle_gamma 90.231205
loop_
_atom_site_label
_atom_site_type_symbol
_atom_site_fract_x
_atom_site_fract_y
_atom_site_fract_z
_atom_type_partial_charge
C0 C 0.29411 0.65349 0.43587 0.0
C1 C 0.30307 0.64025 0.42597 0.0
C2 C 0.32209 0.66112 0.40823 0.0
C3 C 0.31594 0.64424 0.4133 0.0
C4 C 0.31625 0.6775 0.41459 0.0
C5 C 0.30358 0.67918 0.42777 0.0
U6 U 0.25618 0.64345 0.44547 0.0
O7 O 0.24564 0.66156 0.43612 0.0
O8 O 0.24755 0.64207 0.42415 0.0
C9 C 0.24251 0.65482 0.42454 0.0
C10 C 0.2835 0.64681 0.44584 0.0
C11 C 0.22816 0.65653 0.41923 0.0
C12 C 0.21285 0.66386 0.40036 0.0
C13 C 0.22628 0.66165 0.40568 0.0
C14 C 0.20291 0.65561 0.42206 0.0
C15 C 0.20096 0.66092 0.40846 0.0
C16 C 0.21641 0.65345 0.4274 0.0
C17 C 0.24726 0.62266 0.47812 0.0
C18 C 0.24115 0.61337 0.50086 0.0
C19 C 0.26466 0.61044 0.49199 0.0
C20 C 0.26095 0.61772 0.47989 0.0
C21 C 0.25476 0.6081 0.50257 0.0
C22 C 0.23743 0.62056 0.48873 0.0
C23 C 0.24304 0.62992 0.46528 0.0
O24 O 0.27729 0.63558 0.44083 0.0
O25 O 0.27487 0.65439 0.45332 0.0
O26 O 0.24699 0.62402 0.45352 0.0
O27 O 0.24483 0.64355 0.46543 0.0
H28 H 0.30082 0.62936 0.428 0.0
H29 H 0.32088 0.63531 0.40852 0.0
H30 H 0.32054 0.68705 0.41037 0.0
H31 H 0.30085 0.68979 0.43106 0.0
H32 H 0.21183 0.66818 0.38997 0.0
H33 H 0.23524 0.66412 0.39924 0.0
H34 H 0.19402 0.65306 0.42855 0.0
H35 H 0.21768 0.64943 0.4379 0.0
H36 H 0.23326 0.61164 0.50877 0.0
H37 H 0.27527 0.60668 0.49308 0.0
H38 H 0.26873 0.61939 0.47186 0.0
H39 H 0.22683 0.62436 0.48755 0.0
C40 C 0.2207 0.30592 0.62257 0.0
C41 C 0.21435 0.31573 0.63139 0.0
C42 C 0.19171 0.30464 0.62758 0.0
C43 C 0.19999 0.31512 0.63385 0.0
C44 C 0.19815 0.29473 0.61884 0.0
C45 C 0.21256 0.2954 0.61632 0.0
U46 U 0.25528 0.32191 0.63213 0.0
O47 O 0.27618 0.31301 0.63516 0.0
O48 O 0.27285 0.32937 0.61937 0.0
C49 C 0.28168 0.32059 0.62513 0.0
C50 C 0.23583 0.30665 0.62014 0.0
C51 C 0.2922 0.31397 0.61604 0.0
C52 C 0.31122 0.29726 0.61466 0.0
C53 C 0.29798 0.30094 0.61955 0.0
C54 C 0.31221 0.3186 0.60121 0.0
C55 C 0.31886 0.30662 0.60636 0.0
C56 C 0.29898 0.32227 0.60605 0.0
C57 C 0.25631 0.34898 0.66124 0.0
C58 C 0.27807 0.35666 0.67211 0.0
C59 C 0.25636 0.3684 0.67757 0.0
C60 C 0.24915 0.35945 0.66847 0.0
C61 C 0.27087 0.367 0.67967 0.0
C62 C 0.27085 0.34774 0.66295 0.0
C63 C 0.24843 0.33929 0.65217 0.0
O64 O 0.24028 0.31857 0.61497 0.0
O65 O 0.24358 0.30212 0.63054 0.0
O66 O 0.2509 0.32596 0.65427 0.0
O67 O 0.24796 0.34265 0.63888 0.0
H68 H 0.22053 0.32385 0.6364 0.0
H69 H 0.19538 0.32276 0.6408 0.0
H70 H 0.19202 0.28661 0.61379 0.0
H71 H 0.21732 0.28773 0.60951 0.0
H72 H 0.31612 0.28795 0.6188 0.0
H73 H 0.293 0.29426 0.62718 0.0
H74 H 0.31788 0.32592 0.59472 0.0
H75 H 0.29478 0.33235 0.60313 0.0
H76 H 0.28922 0.35522 0.67353 0.0
H77 H 0.25052 0.37641 0.683 0.0
H78 H 0.23796 0.36062 0.66718 0.0
H79 H 0.27656 0.33973 0.65737 0.0
C80 C 0.78832 0.00841 0.62154 0.0
C81 C 0.79732 0.00485 0.61056 0.0
C82 C 0.81756 0.0103 0.62517 0.0
C83 C 0.81182 0.00579 0.61236 0.0
C84 C 0.80846 0.01337 0.63628 0.0
C85 C 0.79396 0.01245 0.63445 0.0
U86 U 0.75682 0.00223 0.59818 0.0
O87 O 0.73499 0.99632 0.60285 0.0
O88 O 0.73968 0.01625 0.59249 0.0
C89 C 0.73006 0.00822 0.59811 0.0
C90 C 0.77313 0.00902 0.61924 0.0
C91 C 0.71967 0.0154 0.60683 0.0
C92 C 0.71286 0.03485 0.62166 0.0
C93 C 0.72328 0.02705 0.61505 0.0
C94 C 0.69522 0.01902 0.61248 0.0
C95 C 0.69867 0.0311 0.62019 0.0
C96 C 0.70562 0.01127 0.60585 0.0
C97 C 0.76153 0.98729 0.562 0.0
C98 C 0.74427 0.99191 0.54397 0.0
C99 C 0.76424 0.97725 0.53887 0.0
C100 C 0.76898 0.97891 0.55263 0.0
C101 C 0.75206 0.98408 0.53432 0.0
C102 C 0.74893 0.99344 0.55772 0.0
C103 C 0.76745 0.99065 0.57579 0.0
O104 O 0.76923 0.0179 0.60956 0.0
O105 O 0.76659 0.99692 0.61838 0.0
O106 O 0.76261 0.98331 0.58632 0.0
O107 O 0.76824 0.0041 0.57849 0.0
H108 H 0.79312 1.0017 0.6005 0.0
H109 H 0.81853 0.00319 0.60365 0.0
H110 H 0.81251 0.01703 0.64622 0.0
H111 H 0.78715 0.01531 0.64301 0.0
H112 H 0.71588 0.04398 0.62769 0.0
H113 H 0.73409 0.03038 0.616 0.0
H114 H 0.68441 0.01591 0.611 0.0
H115 H 0.70264 0.00234 0.5995 0.0
H116 H 0.73475 0.99713 0.54077 0.0
H117 H 0.77045 0.97119 0.53163 0.0
H118 H 0.77872 0.97409 0.55579 0.0
H119 H 0.74298 0.99988 0.56487 0.0
C120 C 0.68837 0.93617 0.36049 0.0
C121 C 0.67864 0.94536 0.36646 0.0
C122 C 0.66045 0.92749 0.36505 0.0
C123 C 0.66478 0.94111 0.3686 0.0
C124 C 0.67029 0.91824 0.35932 0.0
C125 C 0.68409 0.92252 0.35709 0.0
U126 U 0.72827 0.94894 0.35168 0.0
O127 O 0.74194 0.95362 0.36971 0.0
O128 O 0.74432 0.93393 0.35819 0.0
C129 C 0.74952 0.94235 0.36777 0.0
C130 C 0.70279 0.94086 0.35733 0.0
C131 C 0.76471 0.94459 0.36686 0.0
C132 C 0.78805 0.93992 0.37571 0.0
C133 C 0.77353 0.93895 0.37708 0.0
C134 C 0.7851 0.95258 0.35403 0.0
C135 C 0.79402 0.94655 0.36405 0.0
C136 C 0.77056 0.95158 0.35541 0.0
C137 C 0.72599 0.96914 0.31677 0.0
C138 C 0.72645 0.98473 0.29683 0.0
C139 C 0.70761 0.96792 0.29921 0.0
C140 C 0.71347 0.96325 0.31177 0.0
C141 C 0.71425 0.97846 0.29139 0.0
C142 C 0.73223 0.98012 0.30941 0.0
C143 C 0.73337 0.96336 0.32895 0.0
O144 O 0.71131 0.93337 0.34961 0.0
O145 O 0.70796 0.95275 0.36197 0.0
O146 O 0.73411 0.94967 0.32955 0.0
O147 O 0.73075 0.96922 0.34107 0.0
H148 H 0.68166 0.9559 0.36935 0.0
H149 H 0.65748 0.94844 0.37314 0.0
H150 H 0.66725 0.90775 0.35626 0.0
H151 H 0.69133 0.91519 0.35246 0.0
H152 H 0.79462 0.93535 0.38371 0.0
H153 H 0.76918 0.93353 0.38599 0.0
H154 H 0.78935 0.95764 0.34487 0.0
H155 H 0.76388 0.95595 0.34738 0.0
H156 H 0.73193 0.99275 0.29105 0.0
H157 H 0.69808 0.96302 0.29545 0.0
H158 H 0.70852 0.95474 0.31731 0.0
H159 H 0.74192 0.98477 0.31311 0.0
C160 C 0.4214 0.28695 0.66585 0.0
C161 C 0.43037 0.31274 0.65761 0.0
C162 C 0.39942 0.32019 0.66355 0.0
C163 C 0.41642 0.32482 0.65818 0.0
C164 C 0.39345 0.30348 0.66903 0.0
C165 C 0.40324 0.28784 0.67021 0.0
U166 U 0.44389 0.25499 0.65299 0.0
O167 O 0.436 0.23573 0.64318 0.0
O168 O 0.44787 0.23449 0.66281 0.0
C169 C 0.44088 0.22763 0.65308 0.0
C170 C 0.42595 0.2718 0.66514 0.0
C171 C 0.4315 0.2162 0.65748 0.0
C172 C 0.40996 0.2074 0.6678 0.0
C173 C 0.41906 0.21858 0.66484 0.0
C174 C 0.4257 0.19148 0.65609 0.0
C175 C 0.41311 0.19373 0.66328 0.0
C176 C 0.43476 0.20258 0.65324 0.0
C177 C 0.47593 0.26354 0.62894 0.0
C178 C 0.49794 0.25229 0.62315 0.0
C179 C 0.48965 0.27178 0.60936 0.0
C180 C 0.47775 0.27262 0.61765 0.0
C181 C 0.50004 0.26184 0.6122 0.0
C182 C 0.48597 0.25317 0.63153 0.0
C183 C 0.46408 0.26622 0.63829 0.0
O184 O 0.43748 0.26762 0.67138 0.0
O185 O 0.42358 0.2655 0.65315 0.0
O186 O 0.46545 0.26302 0.65158 0.0
O187 O 0.45152 0.26377 0.63322 0.0
H188 H 0.44043 0.31652 0.65369 0.0
H189 H 0.41855 0.33558 0.65546 0.0
H190 H 0.38263 0.3028 0.67221 0.0
H191 H 0.39791 0.2784 0.67345 0.0
H192 H 0.40032 0.2095 0.67331 0.0
H193 H 0.4163 0.22906 0.66809 0.0
H194 H 0.4286 0.18108 0.65268 0.0
H195 H 0.44427 0.20053 0.64748 0.0
H196 H 0.50579 0.24453 0.62557 0.0
H197 H 0.49084 0.27912 0.60086 0.0
H198 H 0.47013 0.2807 0.61549 0.0
H199 H 0.48475 0.24605 0.64022 0.0
C200 C 0.36212 0.68816 0.93515 0.0
C201 C 0.36411 0.67621 0.94335 0.0
C202 C 0.37017 0.66238 0.92284 0.0
C203 C 0.36782 0.66349 0.9373 0.0
C204 C 0.36929 0.67472 0.91478 0.0
C205 C 0.36509 0.68741 0.92083 0.0
U206 U 0.35097 0.72684 0.94662 0.0
O207 O 0.36991 0.73971 0.94943 0.0
O208 O 0.35762 0.74135 0.93011 0.0
C209 C 0.36757 0.74683 0.93793 0.0
C210 C 0.35467 0.70012 0.94147 0.0
C211 C 0.3668 0.76214 0.93967 0.0
C212 C 0.37238 0.78548 0.93138 0.0
C213 C 0.37384 0.77095 0.93037 0.0
C214 C 0.35702 0.78258 0.95121 0.0
C215 C 0.36386 0.79147 0.94174 0.0
C216 C 0.35842 0.76806 0.95014 0.0
C217 C 0.31678 0.72858 0.96823 0.0
C218 C 0.29341 0.73218 0.9773 0.0
C219 C 0.30298 0.70879 0.9763 0.0
C220 C 0.31545 0.71421 0.97081 0.0
C221 C 0.29176 0.71774 0.97946 0.0
C222 C 0.30577 0.73751 0.9717 0.0
C223 C 0.32917 0.73457 0.9614 0.0
O224 O 0.34717 0.70832 0.9334 0.0
O225 O 0.36035 0.70657 0.95221 0.0
O226 O 0.32917 0.73399 0.94769 0.0
O227 O 0.34139 0.73169 0.96696 0.0
H228 H 0.3619 0.67639 0.9544 0.0
H229 H 0.36802 0.65442 0.944 0.0
H230 H 0.37141 0.67456 0.9037 0.0
H231 H 0.36369 0.69646 0.91423 0.0
H232 H 0.37791 0.79203 0.92402 0.0
H233 H 0.38031 0.76659 0.92219 0.0
H234 H 0.35026 0.78683 0.95921 0.0
H235 H 0.35276 0.76143 0.95734 0.0
H236 H 0.28493 0.73934 0.97944 0.0
H237 H 0.30208 0.69764 0.97798 0.0
H238 H 0.32396 0.70722 0.96841 0.0
H239 H 0.30661 0.74864 0.9698 0.0
C240 C 0.62048 0.21727 0.30827 0.0
C241 C 0.63145 0.21255 0.31676 0.0
C242 C 0.62782 0.18888 0.30803 0.0
C243 C 0.63509 0.19842 0.31666 0.0
C244 C 0.61672 0.19372 0.2997 0.0
C245 C 0.61309 0.20781 0.29985 0.0
U246 U 0.62581 0.25613 0.31743 0.0
O247 O 0.6096 0.2723 0.31976 0.0
O248 O 0.6242 0.2729 0.30202 0.0
C249 C 0.61329 0.27853 0.30811 0.0
C250 C 0.61705 0.2321 0.30737 0.0
C251 C 0.61233 0.29372 0.30738 0.0
C252 C 0.60307 0.31363 0.29488 0.0
C253 C 0.60312 0.29934 0.29749 0.0
C254 C 0.62101 0.31694 0.31261 0.0
C255 C 0.61221 0.32253 0.3022 0.0
C256 C 0.62114 0.30255 0.31513 0.0
C257 C 0.65652 0.26393 0.34448 0.0
C258 C 0.66913 0.2848 0.35207 0.0
C259 C 0.67394 0.26251 0.36295 0.0
C260 C 0.66392 0.25616 0.3544 0.0
C261 C 0.67684 0.27687 0.36181 0.0
C262 C 0.65906 0.27835 0.34339 0.0
C263 C 0.64677 0.25624 0.33527 0.0
O264 O 0.61182 0.23786 0.31867 0.0
O265 O 0.62652 0.23988 0.30124 0.0
O266 O 0.64845 0.25731 0.32169 0.0
O267 O 0.6336 0.2554 0.33911 0.0
H268 H 0.63728 0.21981 0.32329 0.0
H269 H 0.64358 0.19497 0.32331 0.0
H270 H 0.61106 0.1867 0.2928 0.0
H271 H 0.60466 0.21137 0.29315 0.0
H272 H 0.59615 0.31769 0.28689 0.0
H273 H 0.59631 0.29258 0.29138 0.0
H274 H 0.62827 0.32359 0.31828 0.0
H275 H 0.62839 0.29829 0.32272 0.0
H276 H 0.67114 0.29588 0.35092 0.0
H277 H 0.67944 0.25613 0.3705 0.0
H278 H 0.66208 0.24502 0.35542 0.0
H279 H 0.65344 0.28454 0.33577 0.0
C280 C 0.62189 0.78675 0.01136 0.0
C281 C 0.61318 0.7958 0.00382 0.0
C282 C 0.62607 0.81596 0.01289 0.0
C283 C 0.61527 0.81028 0.00454 0.0
C284 C 0.63488 0.80676 0.02023 0.0
C285 C 0.6328 0.79231 0.01947 0.0
U286 U 0.59785 0.756 0.00381 0.0
O287 O 0.60225 0.7343 0.99728 0.0
O288 O 0.59157 0.73849 0.01711 0.0
C289 C 0.59724 0.72906 0.00892 0.0
C290 C 0.6191 0.77163 0.01164 0.0
C291 C 0.60583 0.71847 0.016 0.0
C292 C 0.62133 0.71151 0.03492 0.0
C293 C 0.61472 0.722 0.0272 0.0
C294 C 0.61078 0.69391 0.01993 0.0
C295 C 0.6192 0.69731 0.03156 0.0
C296 C 0.60416 0.70439 0.01226 0.0
C297 C 0.56203 0.76319 0.9877 0.0
C298 C 0.54542 0.74475 0.98194 0.0
C299 C 0.53729 0.7684 0.98573 0.0
C300 C 0.55104 0.7728 0.98808 0.0
C301 C 0.53424 0.75427 0.98287 0.0
C302 C 0.55919 0.74916 0.98443 0.0
C303 C 0.57607 0.76781 0.99207 0.0
O304 O 0.60901 0.76786 0.02011 0.0
O305 O 0.61847 0.76532 0.99942 0.0
O306 O 0.58669 0.76293 0.98488 0.0
O307 O 0.57818 0.76759 0.00562 0.0
H308 H 0.60463 0.79168 0.99756 0.0
H309 H 0.60838 0.81702 0.99863 0.0
H310 H 0.64314 0.81074 0.02694 0.0
H311 H 0.63952 0.78548 0.02548 0.0
H312 H 0.6279 0.71449 0.04369 0.0
H313 H 0.6162 0.73282 0.03022 0.0
H314 H 0.60879 0.68311 0.01712 0.0
H315 H 0.59731 0.70147 0.00368 0.0
H316 H 0.54351 0.73383 0.97956 0.0
H317 H 0.52901 0.77601 0.98679 0.0
H318 H 0.55304 0.78365 0.99073 0.0
H319 H 0.56755 0.74155 0.98418 0.0
C320 C 0.65663 0.42785 0.30353 0.0
C321 C 0.64892 0.4269 0.31721 0.0
C322 C 0.66379 0.41026 0.32924 0.0
C323 C 0.65207 0.41861 0.32881 0.0
C324 C 0.67256 0.4108 0.31784 0.0
C325 C 0.66946 0.41903 0.30613 0.0
U326 U 0.64726 0.44469 0.25076 0.0
O327 O 0.66555 0.43521 0.24064 0.0
O328 O 0.64555 0.42381 0.24125 0.0
C329 C 0.65852 0.42398 0.2368 0.0
C330 C 0.64845 0.44234 0.27856 0.0
C331 C 0.66061 0.41901 0.22244 0.0
C332 C 0.6654 0.39954 0.20694 0.0
C333 C 0.66329 0.4048 0.22036 0.0
C334 C 0.66214 0.42272 0.19739 0.0
C335 C 0.66482 0.40841 0.19528 0.0
C336 C 0.66 0.428 0.21089 0.0
C337 C 0.62742 0.47823 0.24264 0.0
C338 C 0.61142 0.49706 0.23709 0.0
C339 C 0.62047 0.49477 0.26065 0.0
C340 C 0.62809 0.48299 0.25652 0.0
C341 C 0.61193 0.50184 0.25099 0.0
C342 C 0.61912 0.48539 0.23296 0.0
C343 C 0.63494 0.46562 0.23814 0.0
O344 O 0.63739 0.43931 0.27048 0.0
O345 O 0.65661 0.45053 0.27069 0.0
O346 O 0.64843 0.4654 0.24093 0.0
O347 O 0.6286 0.45372 0.24082 0.0
H348 H 0.63933 0.43236 0.31966 0.0
H349 H 0.64488 0.41864 0.33753 0.0
H350 H 0.68217 0.40481 0.31791 0.0
H351 H 0.67792 0.41757 0.29879 0.0
H352 H 0.66767 0.38852 0.20574 0.0
H353 H 0.66381 0.39773 0.22916 0.0
H354 H 0.6615 0.4298 0.1886 0.0
H355 H 0.65787 0.43902 0.21232 0.0
H356 H 0.60509 0.5024 0.22939 0.0
H357 H 0.62099 0.49815 0.27145 0.0
H358 H 0.6344 0.47752 0.26417 0.0
H359 H 0.61849 0.48187 0.22221 0.0
C360 C 0.93649 0.36351 0.68654 0.0
C361 C 0.94724 0.36377 0.67656 0.0
C362 C 0.93003 0.36508 0.65767 0.0
C363 C 0.94403 0.36432 0.66224 0.0
C364 C 0.91938 0.36511 0.66775 0.0
C365 C 0.92258 0.36427 0.68193 0.0
U366 U 0.94836 0.35385 0.72538 0.0
O367 O 0.955 0.36933 0.74119 0.0
O368 O 0.93454 0.35903 0.74289 0.0
C369 C 0.94367 0.36752 0.74873 0.0
C370 C 0.93913 0.36441 0.70176 0.0
C371 C 0.94563 0.36565 0.76384 0.0
C372 C 0.93815 0.37136 0.78735 0.0
C373 C 0.9371 0.37323 0.77294 0.0
C374 C 0.95644 0.35428 0.78381 0.0
C375 C 0.94784 0.36188 0.79301 0.0
C376 C 0.95533 0.35613 0.76932 0.0
C377 C 0.9661 0.31719 0.71908 0.0
C378 C 0.98553 0.30128 0.71501 0.0
C379 C 0.96192 0.29421 0.70898 0.0
C380 C 0.95691 0.30717 0.71339 0.0
C381 C 0.97619 0.29089 0.7103 0.0
C382 C 0.98051 0.31429 0.71939 0.0
C383 C 0.96077 0.32942 0.72688 0.0
O384 O 0.93157 0.35634 0.70987 0.0
O385 O 0.95191 0.36656 0.70645 0.0
O386 O 0.94715 0.33104 0.72777 0.0
O387 O 0.96762 0.34125 0.72565 0.0
H388 H 0.95808 0.36388 0.67976 0.0
H389 H 0.95253 0.36452 0.65481 0.0
H390 H 0.90847 0.36542 0.6647 0.0
H391 H 0.91407 0.36442 0.68938 0.0
H392 H 0.93113 0.37716 0.79403 0.0
H393 H 0.92944 0.3805 0.76887 0.0
H394 H 0.96408 0.34696 0.78781 0.0
H395 H 0.96195 0.3501 0.76242 0.0
H396 H 0.99658 0.29907 0.71614 0.0
H397 H 0.95452 0.28654 0.70505 0.0
H398 H 0.94576 0.30908 0.71292 0.0
H399 H 0.98783 0.32179 0.72382 0.0
C400 C 0.31073 0.62174 0.21558 0.0
C401 C 0.31278 0.6357 0.21163 0.0
C402 C 0.3097 0.62918 0.18722 0.0
C403 C 0.31223 0.6394 0.19754 0.0
C404 C 0.30809 0.61516 0.19126 0.0
C405 C 0.30856 0.61149 0.20533 0.0
U406 U 0.32026 0.62568 0.25445 0.0
O407 O 0.32354 0.60917 0.27014 0.0
O408 O 0.30516 0.62284 0.27127 0.0
C409 C 0.31214 0.61253 0.27699 0.0
C410 C 0.30998 0.61771 0.23029 0.0
C411 C 0.31307 0.61334 0.29216 0.0
C412 C 0.30212 0.60787 0.31424 0.0
C413 C 0.30375 0.60526 0.30001 0.0
C414 C 0.31988 0.62601 0.31299 0.0
C415 C 0.30984 0.61858 0.32074 0.0
C416 C 0.32144 0.62345 0.29873 0.0
C417 C 0.34726 0.65563 0.26409 0.0
C418 C 0.35206 0.6711 0.28384 0.0
C419 C 0.3693 0.66835 0.26562 0.0
C420 C 0.36045 0.65897 0.25868 0.0
C421 C 0.36523 0.67466 0.27824 0.0
C422 C 0.34313 0.66166 0.27682 0.0
C423 C 0.33789 0.64683 0.25538 0.0
O424 O 0.32138 0.6123 0.23571 0.0
O425 O 0.30373 0.62666 0.23858 0.0
O426 O 0.32427 0.64829 0.25671 0.0
O427 O 0.34177 0.63384 0.25326 0.0
H428 H 0.31448 0.64376 0.21943 0.0
H429 H 0.31341 0.6503 0.19478 0.0
H430 H 0.30641 0.60701 0.18355 0.0
H431 H 0.307 0.60066 0.20823 0.0
H432 H 0.29441 0.60193 0.32001 0.0
H433 H 0.29715 0.59748 0.29499 0.0
H434 H 0.32586 0.63443 0.31773 0.0
H435 H 0.32855 0.62987 0.29271 0.0
H436 H 0.34861 0.67565 0.2936 0.0
H437 H 0.37918 0.671 0.26079 0.0
H438 H 0.36379 0.6546 0.24879 0.0
H439 H 0.33298 0.65929 0.28121 0.0
C440 C 0.01218 0.62167 0.78688 0.0
C441 C 0.01006 0.61051 0.79614 0.0
C442 C 0.01418 0.62598 0.81603 0.0
C443 C 0.01107 0.61264 0.81058 0.0
C444 C 0.01571 0.63722 0.80668 0.0
C445 C 0.01477 0.63506 0.79225 0.0
U446 U 0.00445 0.5983 0.75583 0.0
O447 O 0.99806 0.60271 0.73413 0.0
O448 O 0.01778 0.5918 0.7384 0.0
C449 C 0.0095 0.59724 0.72889 0.0
C450 C 0.01252 0.61924 0.77169 0.0
C451 C 0.01652 0.6051 0.71775 0.0
C452 C 0.03185 0.62374 0.70977 0.0
C453 C 0.02432 0.61726 0.72052 0.0
C454 C 0.0236 0.6061 0.69347 0.0
C455 C 0.0317 0.61814 0.69612 0.0
C456 C 0.0161 0.59969 0.70416 0.0
C457 C 0.98752 0.56301 0.76245 0.0
C458 C 0.98422 0.54643 0.74346 0.0
C459 C 0.98299 0.5386 0.76747 0.0
C460 C 0.98537 0.55227 0.77208 0.0
C461 C 0.98272 0.53545 0.7531 0.0
C462 C 0.98668 0.5601 0.7481 0.0
C463 C 0.99213 0.57678 0.76748 0.0
O464 O 0.02091 0.60916 0.7677 0.0
O465 O 1.00031 0.61893 0.7653 0.0
O466 O 0.98522 0.5876 0.76265 0.0
O467 O 0.00575 0.57859 0.76739 0.0
H468 H 0.00801 0.60008 0.79218 0.0
H469 H 0.00992 0.60373 0.81743 0.0
H470 H 0.01783 0.64768 0.8105 0.0
H471 H 0.01634 0.6438 0.78526 0.0
H472 H 0.03785 0.63307 0.71217 0.0
H473 H 0.02479 0.62156 0.73099 0.0
H474 H 0.02342 0.60131 0.68321 0.0
H475 H 0.01022 0.59024 0.70188 0.0
H476 H 0.98386 0.54442 0.73233 0.0
H477 H 0.98209 0.53042 0.7752 0.0
H478 H 0.98611 0.55434 0.7832 0.0
H479 H 0.9884 0.56829 0.74051 0.0
C480 C 0.71142 0.36588 0.57272 0.0
C481 C 0.70079 0.35688 0.56795 0.0
C482 C 0.68846 0.35898 0.59009 0.0
C483 C 0.68936 0.35368 0.57644 0.0
C484 C 0.69887 0.36833 0.59477 0.0
C485 C 0.71007 0.37198 0.58605 0.0
U486 U 0.75048 0.36721 0.56063 0.0
O487 O 0.76228 0.36915 0.58028 0.0
O488 O 0.7598 0.34853 0.57035 0.0
C489 C 0.7654 0.35579 0.58065 0.0
C490 C 0.72311 0.36941 0.56314 0.0
C491 C 0.77972 0.35218 0.58509 0.0
C492 C 0.79456 0.34067 0.60218 0.0
C493 C 0.7813 0.34348 0.59671 0.0
C494 C 0.80504 0.35499 0.58422 0.0
C495 C 0.80662 0.34655 0.59617 0.0
C496 C 0.79168 0.35784 0.57875 0.0
C497 C 0.75815 0.38321 0.52491 0.0
C498 C 0.7643 0.39535 0.5036 0.0
C499 C 0.73994 0.39084 0.50891 0.0
C500 C 0.74394 0.38426 0.52133 0.0
C501 C 0.75008 0.3965 0.4999 0.0
C502 C 0.76827 0.38875 0.51597 0.0
C503 C 0.76264 0.37648 0.53793 0.0
O504 O 0.73195 0.37923 0.56707 0.0
O505 O 0.72926 0.35885 0.55688 0.0
O506 O 0.7586 0.36344 0.53952 0.0
O507 O 0.76126 0.38405 0.54932 0.0
H508 H 0.70119 0.35249 0.55752 0.0
H509 H 0.68101 0.34728 0.57222 0.0
H510 H 0.69841 0.37278 0.60517 0.0
H511 H 0.71773 0.37944 0.58984 0.0
H512 H 0.79534 0.33392 0.6112 0.0
H513 H 0.7722 0.33902 0.60177 0.0
H514 H 0.81408 0.35974 0.57936 0.0
H515 H 0.79066 0.36465 0.56979 0.0
H516 H 0.77238 0.39981 0.49708 0.0
H517 H 0.72892 0.39143 0.50633 0.0
H518 H 0.73598 0.38001 0.52814 0.0
H519 H 0.77928 0.38807 0.51861 0.0
C520 C 0.78675 0.68877 0.38894 0.0
C521 C 0.79174 0.67858 0.37968 0.0
C522 C 0.81488 0.68928 0.38049 0.0
C523 C 0.80576 0.67878 0.37555 0.0
C524 C 0.80987 0.69923 0.39004 0.0
C525 C 0.79593 0.69894 0.39424 0.0
U526 U 0.74782 0.68234 0.38102 0.0
O527 O 0.72975 0.68004 0.39516 0.0
O528 O 0.73245 0.69908 0.38268 0.0
C529 C 0.72471 0.69236 0.39176 0.0
C530 C 0.77183 0.69003 0.39207 0.0
C531 C 0.70969 0.69353 0.38924 0.0
C532 C 0.68866 0.70715 0.39294 0.0
C533 C 0.70223 0.70354 0.3969 0.0
C534 C 0.68964 0.69022 0.37405 0.0
C535 C 0.68247 0.70076 0.38128 0.0
C536 C 0.70323 0.6866 0.37801 0.0
C537 C 0.73949 0.65932 0.34757 0.0
C538 C 0.72162 0.64251 0.34033 0.0
C539 C 0.73837 0.65109 0.32351 0.0
C540 C 0.74452 0.65946 0.33384 0.0
C541 C 0.72696 0.64233 0.32662 0.0
C542 C 0.72783 0.65092 0.35072 0.0
C543 C 0.74783 0.66662 0.35843 0.0
O544 O 0.76485 0.69759 0.38305 0.0
O545 O 0.76514 0.67861 0.39583 0.0
O546 O 0.74754 0.66156 0.37118 0.0
O547 O 0.74839 0.68034 0.35803 0.0
H548 H 0.78471 0.67077 0.37533 0.0
H549 H 0.80933 0.67106 0.36809 0.0
H550 H 0.8167 0.70734 0.39413 0.0
H551 H 0.79219 0.70695 0.40132 0.0
H552 H 0.6833 0.71541 0.39851 0.0
H553 H 0.7072 0.70912 0.40547 0.0
H554 H 0.68494 0.68526 0.36497 0.0
H555 H 0.70893 0.67898 0.3719 0.0
H556 H 0.71274 0.63603 0.34308 0.0
H557 H 0.74295 0.65109 0.31319 0.0
H558 H 0.75363 0.66567 0.3312 0.0
H559 H 0.72377 0.65056 0.36126 0.0
C560 C 0.21732 0.98994 0.38522 0.0
C561 C 0.20824 0.99255 0.39641 0.0
C562 C 0.18808 0.9889 0.38116 0.0
C563 C 0.19375 0.992 0.3944 0.0
C564 C 0.19725 0.9867 0.3699 0.0
C565 C 0.21175 0.98719 0.37194 0.0
U566 U 0.24848 0.99632 0.40882 0.0
O567 O 0.26619 0.98286 0.41426 0.0
O568 O 0.27006 0.00332 0.40462 0.0
C569 C 0.27552 0.99162 0.40927 0.0
C570 C 0.23253 0.98942 0.38753 0.0
C571 C 0.28667 0.98535 0.40085 0.0
C572 C 0.29465 0.96997 0.38229 0.0
C573 C 0.28377 0.97693 0.38916 0.0
C574 C 0.31135 0.98011 0.39856 0.0
C575 C 0.30857 0.97132 0.38705 0.0
C576 C 0.30052 0.98705 0.40535 0.0
C577 C 0.24259 0.01119 0.44496 0.0
C578 C 0.26141 0.01083 0.46205 0.0
C579 C 0.23831 0.01865 0.46879 0.0
C580 C 0.23353 0.01643 0.45514 0.0
C581 C 0.25223 0.01557 0.47247 0.0
C582 C 0.25662 0.00866 0.4484 0.0
C583 C 0.23709 0.00729 0.43115 0.0
O584 O 0.2389 1.00159 0.38853 0.0
O585 O 0.23655 0.98048 0.39711 0.0
O586 O 0.23723 0.9938 0.42857 0.0
O587 O 0.24159 0.01484 0.42063 0.0
H588 H 0.21237 0.99475 0.40674 0.0
H589 H 0.18698 0.99391 0.40324 0.0
H590 H 0.19324 0.98415 0.35961 0.0
H591 H 0.21861 0.98513 0.3632 0.0
H592 H 0.29215 0.96341 0.37338 0.0
H593 H 0.2731 0.9755 0.38556 0.0
H594 H 0.32186 0.98122 0.4027 0.0
H595 H 0.30293 0.99343 0.41442 0.0
H596 H 0.27223 0.00855 0.46452 0.0
H597 H 0.23094 0.02217 0.47659 0.0
H598 H 0.22265 0.01838 0.45265 0.0
H599 H 0.26376 0.00461 0.44063 0.0
C600 C 0.31702 0.07433 0.63332 0.0
C601 C 0.32466 0.07177 0.64559 0.0
C602 C 0.34464 0.08446 0.63618 0.0
C603 C 0.33835 0.07681 0.64699 0.0
C604 C 0.33702 0.0868 0.62383 0.0
C605 C 0.32333 0.08176 0.62242 0.0
U606 U 0.28356 0.05943 0.64916 0.0
O607 O 0.26331 0.07019 0.64906 0.0
O608 O 0.26504 0.04921 0.63961 0.0
C609 C 0.25703 0.06009 0.64212 0.0
C610 C 0.30206 0.07083 0.63241 0.0
C611 C 0.24197 0.05807 0.6445 0.0
C612 C 0.21843 0.06494 0.63796 0.0
C613 C 0.23283 0.06568 0.63599 0.0
C614 C 0.2219 0.04854 0.65687 0.0
C615 C 0.21276 0.05652 0.64852 0.0
C616 C 0.23648 0.04937 0.65493 0.0
C617 C 0.29142 0.0443 0.68718 0.0
C618 C 0.28306 0.02683 0.70363 0.0
C619 C 0.29952 0.04462 0.71123 0.0
C620 C 0.29955 0.05026 0.69786 0.0
C621 C 0.29121 0.03291 0.71437 0.0
C622 C 0.28319 0.03247 0.69008 0.0
C623 C 0.29313 0.05014 0.67308 0.0
O624 O 0.29872 0.05749 0.6319 0.0
O625 O 0.29422 0.07798 0.64103 0.0
O626 O 0.2894 0.0632 0.6711 0.0
O627 O 0.29118 0.04203 0.66212 0.0
H628 H 0.31988 0.06627 0.65424 0.0
H629 H 0.34388 0.07518 0.65668 0.0
H630 H 0.34164 0.0926 0.61531 0.0
H631 H 0.31752 0.08397 0.61294 0.0
H632 H 0.21169 0.071 0.63119 0.0
H633 H 0.23687 0.0724 0.62784 0.0
H634 H 0.21781 0.04197 0.6651 0.0
H635 H 0.24339 0.04342 0.66161 0.0
H636 H 0.27653 0.01781 0.70572 0.0
H637 H 0.30628 0.04932 0.71906 0.0
H638 H 0.30628 0.05915 0.69576 0.0
H639 H 0.27698 0.02757 0.68193 0.0
C640 C 0.57462 0.70982 0.36706 0.0
C641 C 0.5884 0.7083 0.37204 0.0
C642 C 0.59105 0.68664 0.35877 0.0
C643 C 0.5965 0.69682 0.36798 0.0
C644 C 0.57737 0.68831 0.35365 0.0
C645 C 0.56925 0.69972 0.35777 0.0
U646 U 0.56269 0.74844 0.37009 0.0
O647 O 0.57047 0.7572 0.35028 0.0
O648 O 0.58266 0.75986 0.36962 0.0
C649 C 0.58144 0.76298 0.35631 0.0
C650 C 0.56531 0.72114 0.37211 0.0
C651 C 0.5848 0.7775 0.35232 0.0
C652 C 0.59697 0.79318 0.3365 0.0
C653 C 0.59217 0.77981 0.33991 0.0
C654 C 0.58637 0.8024 0.35751 0.0
C655 C 0.5943 0.80459 0.34535 0.0
C656 C 0.58172 0.78893 0.36102 0.0
C657 C 0.52836 0.75661 0.3888 0.0
C658 C 0.5079 0.76303 0.40226 0.0
C659 C 0.51137 0.73889 0.39547 0.0
C660 C 0.52386 0.74262 0.38884 0.0
C661 C 0.50317 0.74908 0.40219 0.0
C662 C 0.52035 0.76674 0.39561 0.0
C663 C 0.54102 0.76092 0.38124 0.0
O664 O 0.5704 0.72996 0.38142 0.0
O665 O 0.55751 0.72726 0.36263 0.0
O666 O 0.55297 0.7593 0.3879 0.0
O667 O 0.54152 0.75699 0.3681 0.0
H668 H 0.59289 0.71585 0.37924 0.0
H669 H 0.60706 0.69594 0.37201 0.0
H670 H 0.57275 0.68052 0.34681 0.0
H671 H 0.55863 0.70051 0.35387 0.0
H672 H 0.60285 0.79458 0.32696 0.0
H673 H 0.5945 0.77121 0.33295 0.0
H674 H 0.58419 0.811 0.36454 0.0
H675 H 0.57602 0.78741 0.37065 0.0
H676 H 0.50203 0.77111 0.40755 0.0
H677 H 0.508 0.72808 0.39509 0.0
H678 H 0.52991 0.73465 0.38358 0.0
H679 H 0.52368 0.77758 0.3957 0.0
C680 C 0.63234 0.31576 0.06735 0.0
C681 C 0.64417 0.32388 0.06417 0.0
C682 C 0.6334 0.34438 0.07478 0.0
C683 C 0.64468 0.33805 0.06783 0.0
C684 C 0.62135 0.33629 0.0774 0.0
C685 C 0.62086 0.32211 0.07375 0.0
U686 U 0.6513 0.28363 0.05473 0.0
O687 O 0.65436 0.26343 0.06533 0.0
O688 O 0.64458 0.26414 0.04417 0.0
C689 C 0.64896 0.25649 0.05471 0.0
C690 C 0.63247 0.30051 0.06518 0.0
C691 C 0.64762 0.24113 0.05476 0.0
C692 C 0.64483 0.21941 0.06755 0.0
C693 C 0.64508 0.23402 0.06728 0.0
C694 C 0.64972 0.2188 0.04277 0.0
C695 C 0.6474 0.21157 0.05535 0.0
C696 C 0.64972 0.23342 0.04247 0.0
C697 C 0.68766 0.29121 0.03823 0.0
C698 C 0.70301 0.29279 0.01808 0.0
C699 C 0.71266 0.2874 0.04084 0.0
C700 C 0.69929 0.28797 0.04662 0.0
C701 C 0.7147 0.29023 0.02661 0.0
C702 C 0.68961 0.29321 0.02382 0.0
C703 C 0.67413 0.29492 0.04464 0.0
O704 O 0.63216 0.2962 0.05213 0.0
O705 O 0.64173 0.29389 0.07284 0.0
O706 O 0.67248 0.29203 0.05795 0.0
O707 O 0.66281 0.29266 0.03711 0.0
H708 H 0.6532 0.31914 0.05929 0.0
H709 H 0.65415 0.34387 0.06575 0.0
H710 H 0.61235 0.34085 0.08247 0.0
H711 H 0.61164 0.31602 0.07629 0.0
H712 H 0.64267 0.21429 0.07737 0.0
H713 H 0.64335 0.23976 0.07688 0.0
H714 H 0.65195 0.2132 0.0332 0.0
H715 H 0.65185 0.23871 0.03271 0.0
H716 H 0.70427 0.29493 0.00705 0.0
H717 H 0.7215 0.28557 0.04771 0.0
H718 H 0.69822 0.28658 0.05778 0.0
H719 H 0.68088 0.29579 0.01709 0.0
C720 C 0.392 0.78632 0.68749 0.0
C721 C 0.38347 0.79171 0.67686 0.0
C722 C 0.38339 0.81432 0.68857 0.0
C723 C 0.37928 0.80569 0.67735 0.0
C724 C 0.39225 0.80894 0.69895 0.0
C725 C 0.39655 0.79505 0.69838 0.0
U726 U 0.38321 0.74783 0.68027 0.0
O727 O 0.38446 0.73248 0.69696 0.0
O728 O 0.39656 0.72913 0.6778 0.0
C729 C 0.39305 0.7243 0.69016 0.0
C730 C 0.39484 0.77134 0.68851 0.0
C731 C 0.3896 0.7095 0.69148 0.0
C732 C 0.39224 0.68891 0.70587 0.0
C733 C 0.39745 0.70157 0.70092 0.0
C734 C 0.3718 0.69147 0.69101 0.0
C735 C 0.37909 0.68403 0.70138 0.0
C736 C 0.37699 0.7042 0.68614 0.0
C737 C 0.34999 0.7411 0.65645 0.0
C738 C 0.34086 0.72013 0.64504 0.0
C739 C 0.32911 0.74228 0.64194 0.0
C740 C 0.33895 0.74874 0.65065 0.0
C741 C 0.33003 0.72795 0.63885 0.0
C742 C 0.35087 0.7267 0.6537 0.0
C743 C 0.36081 0.74891 0.66428 0.0
O744 O 0.38556 0.76447 0.69584 0.0
O745 O 0.3986 0.76476 0.67704 0.0
O746 O 0.37362 0.74838 0.65939 0.0
O747 O 0.36023 0.74887 0.678 0.0
H748 H 0.37968 0.78503 0.6685 0.0
H749 H 0.37235 0.80958 0.66928 0.0
H750 H 0.39567 0.81541 0.70763 0.0
H751 H 0.40302 0.79097 0.70673 0.0
H752 H 0.39816 0.68327 0.7137 0.0
H753 H 0.40714 0.70565 0.70526 0.0
H754 H 0.36161 0.68798 0.68741 0.0
H755 H 0.3707 0.71035 0.67905 0.0
H756 H 0.34185 0.70908 0.64283 0.0
H757 H 0.32078 0.74855 0.63755 0.0
H758 H 0.3381 0.75987 0.65261 0.0
H759 H 0.35939 0.72063 0.65798 0.0
C760 C 0.38619 0.21549 0.99012 0.0
C761 C 0.39763 0.2066 0.98791 0.0
C762 C 0.38226 0.18628 0.98847 0.0
C763 C 0.39567 0.19215 0.987 0.0
C764 C 0.37091 0.19515 0.9913 0.0
C765 C 0.37286 0.20966 0.99205 0.0
U766 U 0.40873 0.24749 0.99677 0.0
O767 O 0.41385 0.26523 0.98329 0.0
O768 O 0.40361 0.26899 0.00346 0.0
C769 C 0.40812 0.27443 0.99171 0.0
C770 C 0.38801 0.2308 0.98986 0.0
C771 C 0.39915 0.28495 0.98499 0.0
C772 C 0.38447 0.29245 0.96564 0.0
C773 C 0.3912 0.28179 0.97301 0.0
C774 C 0.39294 0.30941 0.98254 0.0
C775 C 0.38555 0.30644 0.97014 0.0
C776 C 0.39969 0.29876 0.98987 0.0
C777 C 0.44529 0.24244 0.01162 0.0
C778 C 0.46458 0.25839 0.00725 0.0
C779 C 0.46714 0.23998 0.02437 0.0
C780 C 0.45341 0.2356 0.02168 0.0
C781 C 0.47301 0.25122 0.01693 0.0
C782 C 0.45083 0.25408 0.00467 0.0
C783 C 0.43144 0.23685 0.00781 0.0
O784 O 0.38881 0.23706 0.0021 0.0
O785 O 0.39731 0.23539 0.9809 0.0
O786 O 0.42873 0.23667 0.99434 0.0
O787 O 0.42088 0.24125 0.01537 0.0
H788 H 0.40806 0.21085 0.98658 0.0
H789 H 0.40463 0.18556 0.98501 0.0
H790 H 0.36046 0.19092 0.99243 0.0
H791 H 0.36391 0.21633 0.99383 0.0
H792 H 0.37868 0.28979 0.95625 0.0
H793 H 0.39059 0.27117 0.96909 0.0
H794 H 0.39411 0.32006 0.98624 0.0
H795 H 0.40582 0.30141 0.99906 0.0
H796 H 0.46875 0.26699 1.00121 0.0
H797 H 0.47322 0.23441 0.03211 0.0
H798 H 0.44925 0.22667 0.02723 0.0
H799 H 0.44469 0.25956 0.99691 0.0
C800 C 0.36432 0.56763 0.70528 0.0
C801 C 0.36796 0.56316 0.69181 0.0
C802 C 0.35722 0.5839 0.6815 0.0
C803 C 0.36437 0.57112 0.68004 0.0
C804 C 0.35381 0.5884 0.69507 0.0
C805 C 0.35708 0.5802 0.70674 0.0
U806 U 0.36858 0.55798 0.74513 0.0
O807 O 0.37189 0.57813 0.75598 0.0
O808 O 0.3512 0.56809 0.7562 0.0
C809 C 0.359 0.57855 0.76067 0.0
C810 C 0.36818 0.55893 0.7175 0.0
C811 C 0.3569 0.58353 0.77517 0.0
C812 C 0.35427 0.6034 0.79089 0.0
C813 C 0.35736 0.59797 0.77769 0.0
C814 C 0.35047 0.57997 0.79954 0.0
C815 C 0.35059 0.59452 0.80197 0.0
C816 C 0.35355 0.57452 0.78623 0.0
C817 C 0.38604 0.52277 0.75325 0.0
C818 C 0.3992 0.50224 0.76004 0.0
C819 C 0.3931 0.5058 0.73573 0.0
C820 C 0.38637 0.51829 0.73929 0.0
C821 C 0.39962 0.49762 0.74608 0.0
C822 C 0.39246 0.51467 0.76357 0.0
C823 C 0.37936 0.53595 0.75734 0.0
O824 O 0.37874 0.56335 0.72519 0.0
O825 O 0.35793 0.55376 0.72502 0.0
O826 O 0.36598 0.5371 0.75435 0.0
O827 O 0.38657 0.54733 0.75465 0.0
H828 H 0.37346 0.55339 0.69035 0.0
H829 H 0.36703 0.56714 0.6698 0.0
H830 H 0.34856 0.59826 0.6967 0.0
H831 H 0.35366 0.58347 0.71686 0.0
H832 H 0.35472 0.61462 0.79239 0.0
H833 H 0.35987 0.60514 0.76933 0.0
H834 H 0.34762 0.57282 0.8078 0.0
H835 H 0.35305 0.56333 0.78454 0.0
H836 H 0.40432 0.49639 0.76825 0.0
H837 H 0.39313 0.5025 0.7249 0.0
H838 H 0.38146 0.52446 0.73117 0.0
H839 H 0.39239 0.51804 0.77439 0.0
C840 C 0.06519 0.63803 0.31744 0.0
C841 C 0.06833 0.65069 0.32419 0.0
C842 C 0.07472 0.63811 0.34549 0.0
C843 C 0.07299 0.6507 0.3381 0.0
C844 C 0.0709 0.62554 0.33884 0.0
C845 C 0.06616 0.62552 0.32499 0.0
U846 U 0.05544 0.6479 0.27815 0.0
O847 O 0.06933 0.6416 0.26108 0.0
O848 O 0.04824 0.63268 0.26229 0.0
C849 C 0.05975 0.63386 0.25493 0.0
C850 C 0.06317 0.63708 0.30217 0.0
C851 C 0.05796 0.63644 0.23988 0.0
C852 C 0.06051 0.62829 0.21598 0.0
C853 C 0.06119 0.62582 0.23035 0.0
C854 C 0.05315 0.65207 0.22048 0.0
C855 C 0.05657 0.64148 0.21084 0.0
C856 C 0.05383 0.64957 0.23488 0.0
C857 C 0.03956 0.6862 0.28113 0.0
C858 C 0.03538 0.71082 0.27694 0.0
C859 C 0.02762 0.70031 0.29856 0.0
C860 C 0.03294 0.68737 0.29413 0.0
C861 C 0.0287 0.71215 0.28991 0.0
C862 C 0.04075 0.69801 0.27263 0.0
C863 C 0.04446 0.67282 0.27537 0.0
O864 O 0.05045 0.63558 0.29706 0.0
O865 O 0.07141 0.64476 0.29434 0.0
O866 O 0.05801 0.67058 0.2751 0.0
O867 O 0.03694 0.66151 0.27763 0.0
H868 H 0.06777 0.66047 0.31856 0.0
H869 H 0.07589 0.66051 0.34285 0.0
H870 H 0.07186 0.61566 0.34424 0.0
H871 H 0.06386 0.61561 0.31995 0.0
H872 H 0.06344 0.61996 0.2089 0.0
H873 H 0.06452 0.61566 0.23403 0.0
H874 H 0.04994 0.66229 0.21689 0.0
H875 H 0.05133 0.65792 0.24211 0.0
H876 H 0.03658 0.71976 0.27013 0.0
H877 H 0.0225 0.70102 0.3086 0.0
H878 H 0.0318 0.67831 0.30072 0.0
H879 H 0.04571 0.69729 0.2625 0.0
C880 C 0.68841 0.39246 0.78701 0.0
C881 C 0.67888 0.38237 0.79172 0.0
C882 C 0.68928 0.38358 0.81495 0.0
C883 C 0.67927 0.378 0.80564 0.0
C884 C 0.69853 0.39396 0.81021 0.0
C885 C 0.69809 0.39836 0.79634 0.0
U886 U 0.68053 0.38513 0.74849 0.0
O887 O 0.69652 0.38679 0.7324 0.0
O888 O 0.67741 0.39935 0.73058 0.0
C889 C 0.6895 0.39593 0.72502 0.0
C890 C 0.68948 0.39585 0.77216 0.0
C891 C 0.6901 0.39349 0.70997 0.0
C892 C 0.70343 0.39727 0.68884 0.0
C893 C 0.69958 0.4015 0.70222 0.0
C894 C 0.68745 0.37759 0.69042 0.0
C895 C 0.69781 0.38497 0.68304 0.0
C896 C 0.68368 0.3818 0.70387 0.0
C897 C 0.65581 0.3525 0.74185 0.0
C898 C 0.64811 0.34044 0.72073 0.0
C899 C 0.63806 0.33433 0.74307 0.0
C900 C 0.64652 0.34431 0.74961 0.0
C901 C 0.63865 0.33229 0.72854 0.0
C902 C 0.65663 0.35052 0.72734 0.0
C903 C 0.66422 0.36298 0.7495 0.0
O904 O 0.69655 0.38668 0.76486 0.0
O905 O 0.67798 0.40004 0.76589 0.0
O906 O 0.65948 0.37585 0.7496 0.0
O907 O 0.67793 0.36221 0.74872 0.0
H908 H 0.67148 0.37757 0.78455 0.0
H909 H 0.67211 0.36989 0.80896 0.0
H910 H 0.70625 0.39855 0.81719 0.0
H911 H 0.70558 0.40608 0.7928 0.0
H912 H 0.71131 0.40322 0.68331 0.0
H913 H 0.70472 0.4105 0.70688 0.0
H914 H 0.68302 0.36802 0.68623 0.0
H915 H 0.67648 0.37544 0.70982 0.0
H916 H 0.6488 0.33916 0.70951 0.0
H917 H 0.63116 0.32807 0.74947 0.0
H918 H 0.6458 0.34564 0.76083 0.0
H919 H 0.66375 0.35674 0.72118 0.0
C920 C 0.9918 0.38692 0.21603 0.0
C921 C 0.9894 0.39817 0.20694 0.0
C922 C 0.99 0.38243 0.18698 0.0
C923 C 0.98839 0.39591 0.19256 0.0
C924 C 0.99304 0.37129 0.19601 0.0
C925 C 0.99385 0.37352 0.21046 0.0
U926 U 0.99844 0.41007 0.24755 0.0
O927 O 0.98491 0.41562 0.26507 0.0
O928 O 0.0049 0.40511 0.26917 0.0
C929 C 0.99302 0.4096 0.27437 0.0
C930 C 0.99157 0.38904 0.23127 0.0
C931 C 0.98588 0.40041 0.28445 0.0
C932 C 0.96505 0.38788 0.29191 0.0
C933 C 0.97266 0.39462 0.28146 0.0
C934 C 0.98416 0.39167 0.30819 0.0
C935 C 0.97058 0.38667 0.30547 0.0
C936 C 0.99171 0.39856 0.29778 0.0
C937 C 0.01305 0.4466 0.24157 0.0
C938 C 0.01056 0.4651 0.25878 0.0
C939 C 0.02263 0.46966 0.23706 0.0
C940 C 0.02039 0.45581 0.23291 0.0
C941 C 0.01748 0.47457 0.24992 0.0
C942 C 0.00839 0.45124 0.25465 0.0
C943 C 0.00935 0.4326 0.23641 0.0
O944 O 0.00384 0.39002 0.23748 0.0
O945 O 0.98257 0.3984 0.23567 0.0
O946 O 0.99588 0.42985 0.23638 0.0
O947 O 0.01697 0.42223 0.24116 0.0
H948 H 0.98798 0.40865 0.21098 0.0
H949 H 0.98619 0.40469 0.18578 0.0
H950 H 0.99428 0.36079 0.19194 0.0
H951 H 0.99576 0.36473 0.2173 0.0
H952 H 0.95467 0.38396 0.28949 0.0
H953 H 0.96795 0.39578 0.27122 0.0
H954 H 0.98864 0.39094 0.31858 0.0
H955 H 1.00188 0.40295 0.3003 0.0
H956 H 0.00632 0.46852 0.26868 0.0
H957 H 0.02822 0.47658 0.2301 0.0
H958 H 0.02408 0.45237 0.22279 0.0
H959 H 1.00267 0.44425 0.26145 0.0
C960 C 0.28878 0.51752 0.62959 0.0
C961 C 0.29255 0.531 0.62514 0.0
C962 C 0.29425 0.51212 0.64208 0.0
C963 C 0.30368 0.52008 0.65019 0.0
C964 C 0.30788 0.53329 0.64527 0.0
C965 C 0.30229 0.53871 0.633 0.0
C966 C 0.30894 0.51511 0.66396 0.0
C967 C 0.31328 0.50127 0.66603 0.0
C968 C 0.31956 0.49715 0.67876 0.0
C969 C 0.32169 0.50728 0.68938 0.0
C970 C 0.31734 0.52114 0.68732 0.0
C971 C 0.31053 0.52472 0.67489 0.0
C972 C 0.32116 0.53274 0.69692 0.0
C973 C 0.31551 0.53395 0.7104 0.0
C974 C 0.32864 0.54403 0.69136 0.0
C975 C 0.32953 0.55663 0.69853 0.0
C976 C 0.32324 0.5583 0.71166 0.0
C977 C 0.32459 0.48246 0.68034 0.0
C978 C 0.3167 0.47129 0.67478 0.0
C979 C 0.33763 0.47952 0.68654 0.0
C980 C 0.34286 0.46584 0.68664 0.0
C981 C 0.33521 0.45481 0.68048 0.0
C982 C 0.32196 0.45768 0.6748 0.0
C983 C 0.31667 0.54666 0.71781 0.0
H984 H 0.28131 0.51135 0.62364 0.0
H985 H 0.29082 0.50191 0.64556 0.0
H986 H 0.31548 0.53953 0.65096 0.0
H987 H 0.30563 0.54899 0.62962 0.0
H988 H 0.31239 0.49388 0.65748 0.0
H989 H 0.30694 0.53537 0.67352 0.0
H990 H 0.32696 0.50452 0.69901 0.0
H991 H 0.30959 0.52539 0.71485 0.0
H992 H 0.33313 0.54337 0.681 0.0
H993 H 0.33481 0.56524 0.6935 0.0
H994 H 0.30649 0.47309 0.67021 0.0
H995 H 0.34406 0.48785 0.6908 0.0
H996 H 0.31181 0.54759 0.72796 0.0
H997 H 0.31568 0.44939 0.67023 0.0
H998 H 0.35314 0.46398 0.69105 0.0
C999 C 0.33339 0.46305 0.79188 0.0
C1000 C 0.32343 0.4522 0.79083 0.0
C1001 C 0.33786 0.46794 0.805 0.0
C1002 C 0.33256 0.46196 0.81728 0.0
C1003 C 0.32228 0.45148 0.8162 0.0
C1004 C 0.31779 0.44666 0.80317 0.0
C1005 C 0.33825 0.46574 0.83126 0.0
C1006 C 0.33971 0.47974 0.83558 0.0
C1007 C 0.3442 0.48296 0.84927 0.0
C1008 C 0.34733 0.47197 0.85851 0.0
C1009 C 0.34615 0.45793 0.85429 0.0
C1010 C 0.34181 0.45501 0.84057 0.0
C1011 C 0.34911 0.4463 0.86422 0.0
C1012 C 0.35967 0.44754 0.87447 0.0
C1013 C 0.34132 0.43378 0.86352 0.0
C1014 C 0.34419 0.42275 0.87258 0.0
C1015 C 0.35466 0.42409 0.88279 0.0
C1016 C 0.34561 0.49771 0.85414 0.0
C1017 C 0.35169 0.50797 0.84557 0.0
C1018 C 0.34152 0.50148 0.86773 0.0
C1019 C 0.34402 0.51494 0.87287 0.0
C1020 C 0.35056 0.52505 0.8645 0.0
C1021 C 0.35412 0.5215 0.8507 0.0
C1022 C 0.36231 0.43659 0.88376 0.0
H1023 H 0.33784 0.46762 0.78256 0.0
H1024 H 0.34581 0.47602 0.80555 0.0
H1025 H 0.31789 0.44678 0.82548 0.0
H1026 H 0.31026 0.43818 0.80282 0.0
H1027 H 0.33688 0.48806 0.82848 0.0
H1028 H 0.34124 0.44427 0.83699 0.0
H1029 H 0.35065 0.47438 0.86907 0.0
H1030 H 0.36607 0.45687 0.87522 0.0
H1031 H 0.33287 0.43249 0.85607 0.0
H1032 H 0.33807 0.41323 0.87176 0.0
H1033 H 0.35503 0.50541 0.83508 0.0
H1034 H 0.33648 0.49396 0.8745 0.0
H1035 H 0.3705 0.43778 0.89153 0.0
H1036 H 0.35923 0.52904 0.84401 0.0
H1037 H 0.34086 0.51743 0.88343 0.0
C1038 C 0.70135 0.00376 0.38787 0.0
C1039 C 0.71197 0.99396 0.3904 0.0
C1040 C 0.69463 0.00421 0.37489 0.0
C1041 C 0.69843 0.99491 0.36419 0.0
C1042 C 0.70951 0.98565 0.3665 0.0
C1043 C 0.7162 0.98511 0.37948 0.0
C1044 C 0.69025 0.99427 0.35102 0.0
C1045 C 0.68641 0.00655 0.34418 0.0
C1046 C 0.67737 0.0062 0.33257 0.0
C1047 C 0.67249 0.99321 0.32754 0.0
C1048 C 0.67638 0.98069 0.33421 0.0
C1049 C 0.68536 0.9814 0.34588 0.0
C1050 C 0.67029 0.96694 0.3299 0.0
C1051 C 0.65616 0.96572 0.32601 0.0
C1052 C 0.67833 0.95472 0.33072 0.0
C1053 C 0.67223 0.94159 0.32867 0.0
C1054 C 0.65785 0.9402 0.32563 0.0
C1055 C 0.67263 0.01956 0.32631 0.0
C1056 C 0.66955 0.03097 0.33506 0.0
C1057 C 0.67158 0.02125 0.31174 0.0
C1058 C 0.66797 0.03424 0.30609 0.0
C1059 C 0.66547 0.04565 0.31495 0.0
C1060 C 0.66613 0.04389 0.32943 0.0
C1061 C 0.65006 0.95257 0.32378 0.0
H1062 H 0.69778 0.01064 0.39611 0.0
H1063 H 0.68605 0.01144 0.37343 0.0
H1064 H 0.71284 0.97869 0.35828 0.0
H1065 H 0.72452 0.97763 0.38104 0.0
H1066 H 0.69043 0.01645 0.34803 0.0
H1067 H 0.68798 0.97197 0.35148 0.0
H1068 H 0.66543 0.99288 0.31867 0.0
H1069 H 0.64959 0.97488 0.32523 0.0
H1070 H 0.68932 0.95527 0.33342 0.0
H1071 H 0.67883 0.93257 0.33008 0.0
H1072 H 0.66988 0.02995 0.34632 0.0
H1073 H 0.67394 0.01268 0.30473 0.0
H1074 H 0.63914 0.95222 0.32082 0.0
H1075 H 0.66409 0.05259 0.3364 0.0
H1076 H 0.66748 0.03549 0.29486 0.0
C1077 C 0.686 0.99076 0.13648 0.0
C1078 C 0.68064 0.9999 0.14665 0.0
C1079 C 0.68211 0.99214 0.12244 0.0
C1080 C 0.67271 0.00264 0.1183 0.0
C1081 C 0.66725 0.01164 0.12854 0.0
C1082 C 0.67122 0.01032 0.14252 0.0
C1083 C 0.66866 0.00434 0.10336 0.0
C1084 C 0.66609 0.99268 0.09477 0.0
C1085 C 0.66202 0.99429 0.0807 0.0
C1086 C 0.66033 0.0079 0.07533 0.0
C1087 C 0.66261 0.01967 0.0839 0.0
C1088 C 0.66704 0.01775 0.09775 0.0
C1089 C 0.66009 0.0341 0.07881 0.0
C1090 C 0.66542 0.03876 0.06597 0.0
C1091 C 0.65293 0.04363 0.08737 0.0
C1092 C 0.65172 0.05761 0.08356 0.0
C1093 C 0.65761 0.06248 0.07107 0.0
C1094 C 0.65915 0.98166 0.07192 0.0
C1095 C 0.66734 0.96958 0.07346 0.0
C1096 C 0.64787 0.9813 0.06243 0.0
C1097 C 0.64466 0.96906 0.05498 0.0
C1098 C 0.6526 0.95685 0.05688 0.0
C1099 C 0.66406 0.95734 0.06614 0.0
C1100 C 0.66419 0.05285 0.06213 0.0
H1101 H 0.69337 0.98269 0.13934 0.0
H1102 H 0.68664 0.98514 0.11481 0.0
H1103 H 0.65976 0.01964 0.1258 0.0
H1104 H 0.6667 0.01734 0.15015 0.0
H1105 H 0.66681 0.98232 0.09922 0.0
H1106 H 0.66932 0.02682 0.10419 0.0
H1107 H 0.65708 0.00935 0.06458 0.0
H1108 H 0.671 0.03166 0.05918 0.0
H1109 H 0.64843 0.04029 0.09718 0.0
H1110 H 0.64627 0.06467 0.09051 0.0
H1111 H 0.67625 0.9695 0.08048 0.0
H1112 H 0.64125 0.99034 0.06103 0.0
H1113 H 0.66883 0.05629 0.05243 0.0
H1114 H 0.67034 0.94815 0.06807 0.0
H1115 H 0.63589 0.96918 0.04779 0.0
C1116 C 0.62669 0.28175 0.51772 0.0
C1117 C 0.62088 0.28868 0.52934 0.0
C1118 C 0.63947 0.28624 0.51206 0.0
C1119 C 0.64666 0.29759 0.51807 0.0
C1120 C 0.64064 0.30471 0.52937 0.0
C1121 C 0.62796 0.30031 0.53495 0.0
C1122 C 0.66093 0.30166 0.51361 0.0
C1123 C 0.6637 0.30652 0.50011 0.0
C1124 C 0.67652 0.31326 0.49712 0.0
C1125 C 0.68649 0.31515 0.50793 0.0
C1126 C 0.68376 0.31013 0.52143 0.0
C1127 C 0.6713 0.30279 0.52387 0.0
C1128 C 0.6923 0.31429 0.53377 0.0
C1129 C 0.70685 0.31227 0.53463 0.0
C1130 C 0.68527 0.31953 0.54546 0.0
C1131 C 0.69223 0.32171 0.55796 0.0
C1132 C 0.70666 0.31925 0.55927 0.0
C1133 C 0.67868 0.31959 0.48311 0.0
C1134 C 0.67534 0.31204 0.47091 0.0
C1135 C 0.68318 0.33353 0.48186 0.0
C1136 C 0.68386 0.33992 0.46875 0.0
C1137 C 0.68019 0.33248 0.45657 0.0
C1138 C 0.67617 0.31838 0.45779 0.0
C1139 C 0.71402 0.31481 0.5473 0.0
H1140 H 0.62142 0.27281 0.51311 0.0
H1141 H 0.64395 0.28059 0.50336 0.0
H1142 H 0.64595 0.31355 0.53416 0.0
H1143 H 0.62395 0.30578 0.544 0.0
H1144 H 0.65554 0.30593 0.49222 0.0
H1145 H 0.66912 0.2989 0.53427 0.0
H1146 H 0.69601 0.321 0.50601 0.0
H1147 H 0.71254 0.3083 0.52571 0.0
H1148 H 0.67413 0.32158 0.54507 0.0
H1149 H 0.68607 0.32526 0.56667 0.0
H1150 H 0.67188 0.30127 0.47155 0.0
H1151 H 0.68569 0.33967 0.49107 0.0
H1152 H 0.72514 0.31283 0.54783 0.0
H1153 H 0.67319 0.31238 0.44863 0.0
H1154 H 0.68712 0.35076 0.46816 0.0
C1155 C 0.1371 0.68722 0.99025 0.0
C1156 C 0.14736 0.68277 0.9998 0.0
C1157 C 0.12314 0.68303 0.99177 0.0
C1158 C 0.11916 0.67419 0.00279 0.0
C1159 C 0.12951 0.66967 0.01223 0.0
C1160 C 0.14339 0.67397 0.0108 0.0
C1161 C 0.10436 0.66949 0.00448 0.0
C1162 C 0.09598 0.66622 0.99283 0.0
C1163 C 0.08226 0.66111 0.99446 0.0
C1164 C 0.07701 0.65896 0.00801 0.0
C1165 C 0.08523 0.66224 0.01984 0.0
C1166 C 0.09871 0.66781 0.01788 0.0
C1167 C 0.08008 0.65982 0.03434 0.0
C1168 C 0.06615 0.66268 0.03812 0.0
C1169 C 0.08942 0.6552 0.04476 0.0
C1170 C 0.08519 0.65414 0.05864 0.0
C1171 C 0.07145 0.65739 0.06242 0.0
C1172 C 0.0737 0.65787 0.98184 0.0
C1173 C 0.07335 0.66733 0.97066 0.0
C1174 C 0.06646 0.64511 0.98051 0.0
C1175 C 0.05949 0.64168 0.96803 0.0
C1176 C 0.05956 0.65097 0.95665 0.0
C1177 C 0.06634 0.66396 0.95827 0.0
C1178 C 0.06187 0.66141 0.05206 0.0
H1179 H 0.13984 0.69409 0.98171 0.0
H1180 H 0.11545 0.68686 0.98439 0.0
H1181 H 0.12696 0.66258 0.02064 0.0
H1182 H 0.15109 0.67015 0.01817 0.0
H1183 H 0.10028 0.66722 0.98243 0.0
H1184 H 0.10486 0.67096 0.02689 0.0
H1185 H 0.06657 0.65473 0.00932 0.0
H1186 H 0.0587 0.66633 0.03042 0.0
H1187 H 0.10011 0.65252 0.04222 0.0
H1188 H 0.0927 0.65089 0.06648 0.0
H1189 H 0.07862 0.67735 0.97146 0.0
H1190 H 0.06662 0.63757 0.98892 0.0
H1191 H 0.0512 0.66397 0.05483 0.0
H1192 H 0.0663 0.67155 0.94991 0.0
H1193 H 0.05446 0.63155 0.96714 0.0
C1194 C 0.79182 0.33068 0.46052 0.0
C1195 C 0.79108 0.3206 0.44977 0.0
C1196 C 0.80481 0.33533 0.46568 0.0
C1197 C 0.81729 0.33006 0.46009 0.0
C1198 C 0.81653 0.3195 0.44987 0.0
C1199 C 0.80362 0.31485 0.44477 0.0
C1200 C 0.83105 0.33655 0.46351 0.0
C1201 C 0.83563 0.33858 0.4774 0.0
C1202 C 0.84897 0.34441 0.48019 0.0
C1203 C 0.8573 0.34869 0.46886 0.0
C1204 C 0.853 0.34643 0.45504 0.0
C1205 C 0.83985 0.34047 0.45248 0.0
C1206 C 0.8626 0.34948 0.4433 0.0
C1207 C 0.87012 0.36211 0.44277 0.0
C1208 C 0.86462 0.33947 0.43273 0.0
C1209 C 0.87403 0.34199 0.42191 0.0
C1210 C 0.88158 0.3546 0.42138 0.0
C1211 C 0.85479 0.34546 0.4947 0.0
C1212 C 0.84633 0.3487 0.50626 0.0
C1213 C 0.86919 0.34347 0.49701 0.0
C1214 C 0.87508 0.3453 0.51021 0.0
C1215 C 0.86675 0.34866 0.52181 0.0
C1216 C 0.85222 0.3502 0.51966 0.0
C1217 C 0.87947 0.36468 0.43188 0.0
H1218 H 0.78237 0.3352 0.46474 0.0
H1219 H 0.8051 0.3435 0.47352 0.0
H1220 H 0.82598 0.31517 0.44544 0.0
H1221 H 0.80355 0.30721 0.43641 0.0
H1222 H 0.82908 0.33508 0.48591 0.0
H1223 H 0.83639 0.33897 0.44177 0.0
H1224 H 0.86744 0.35346 0.47073 0.0
H1225 H 0.86873 0.37002 0.45076 0.0
H1226 H 0.85909 0.32957 0.43295 0.0
H1227 H 0.87531 0.33409 0.41389 0.0
H1228 H 0.8352 0.35032 0.50494 0.0
H1229 H 0.87607 0.34054 0.48855 0.0
H1230 H 0.88521 0.37446 0.43179 0.0
H1231 H 0.84536 0.35256 0.5283 0.0
H1232 H 0.88631 0.34429 0.51118 0.0
C1233 C 0.38711 0.70002 0.00241 0.0
C1234 C 0.3904 0.71085 0.99306 0.0
C1235 C 0.37385 0.69386 0.0023 0.0
C1236 C 0.36346 0.69849 0.99299 0.0
C1237 C 0.36645 0.70983 0.98426 0.0
C1238 C 0.37979 0.7159 0.98419 0.0
C1239 C 0.34994 0.69083 0.9919 0.0
C1240 C 0.34315 0.68646 0.004 0.0
C1241 C 0.33183 0.67709 0.00334 0.0
C1242 C 0.32698 0.67235 0.99026 0.0
C1243 C 0.33351 0.67686 0.97789 0.0
C1244 C 0.34476 0.68637 0.97888 0.0
C1245 C 0.3299 0.67048 0.96408 0.0
C1246 C 0.32853 0.65591 0.96267 0.0
C1247 C 0.32922 0.67871 0.95198 0.0
C1248 C 0.32808 0.67254 0.93874 0.0
C1249 C 0.32737 0.65791 0.93723 0.0
C1250 C 0.32611 0.6716 0.01656 0.0
C1251 C 0.33543 0.66734 0.02709 0.0
C1252 C 0.31167 0.6716 0.01928 0.0
C1253 C 0.30675 0.66819 0.03262 0.0
C1254 C 0.31625 0.66484 0.04332 0.0
C1255 C 0.33056 0.66408 0.04033 0.0
C1256 C 0.32722 0.64972 0.94944 0.0
H1257 H 0.39486 0.69609 0.00966 0.0
H1258 H 0.37188 0.68514 0.00922 0.0
H1259 H 0.35849 0.71385 0.97736 0.0
H1260 H 0.38189 0.72421 0.97684 0.0
H1261 H 0.34697 0.69008 0.01406 0.0
H1262 H 0.35013 0.68956 0.96958 0.0
H1263 H 0.31849 0.66482 0.98975 0.0
H1264 H 0.32906 0.64922 0.97176 0.0
H1265 H 0.33003 0.68994 0.9527 0.0
H1266 H 0.32837 0.67927 0.92969 0.0
H1267 H 0.34658 0.66692 0.02518 0.0
H1268 H 0.3043 0.67484 0.01131 0.0
H1269 H 0.32633 0.63846 0.94883 0.0
H1270 H 0.33804 0.66123 0.04836 0.0
H1271 H 0.29565 0.66873 0.03475 0.0
C1272 C 0.51773 0.62639 0.2824 0.0
C1273 C 0.52943 0.62104 0.28958 0.0
C1274 C 0.5109 0.63839 0.28735 0.0
C1275 C 0.51571 0.64511 0.29951 0.0
C1276 C 0.52688 0.6393 0.30703 0.0
C1277 C 0.53364 0.62742 0.30215 0.0
C1278 C 0.5105 0.65901 0.30376 0.0
C1279 C 0.49675 0.66112 0.30823 0.0
C1280 C 0.49285 0.67387 0.3146 0.0
C1281 C 0.50313 0.6844 0.31663 0.0
C1282 C 0.51696 0.68224 0.31213 0.0
C1283 C 0.52023 0.66981 0.30513 0.0
C1284 C 0.52875 0.69174 0.31584 0.0
C1285 C 0.52849 0.7062 0.31318 0.0
C1286 C 0.54118 0.68574 0.32087 0.0
C1287 C 0.55334 0.6936 0.32202 0.0
C1288 C 0.55337 0.70782 0.31871 0.0
C1289 C 0.47834 0.67545 0.32009 0.0
C1290 C 0.46688 0.67004 0.31251 0.0
C1291 C 0.47589 0.68136 0.33333 0.0
C1292 C 0.46242 0.68129 0.33908 0.0
C1293 C 0.45111 0.67526 0.33174 0.0
C1294 C 0.45347 0.66992 0.31826 0.0
C1295 C 0.54077 0.71426 0.31474 0.0
H1296 H 0.51424 0.62168 0.27269 0.0
H1297 H 0.50234 0.64276 0.28136 0.0
H1298 H 0.53068 0.64425 0.31652 0.0
H1299 H 0.54237 0.62336 0.30811 0.0
H1300 H 0.48935 0.65254 0.30747 0.0
H1301 H 0.53081 0.66812 0.30144 0.0
H1302 H 0.50053 0.694 0.32203 0.0
H1303 H 0.51903 0.7111 0.30937 0.0
H1304 H 0.54166 0.67473 0.32342 0.0
H1305 H 0.56286 0.68847 0.32532 0.0
H1306 H 0.46832 0.66566 0.30218 0.0
H1307 H 0.48446 0.68548 0.33954 0.0
H1308 H 0.54056 0.72532 0.31239 0.0
H1309 H 0.44495 0.66547 0.3122 0.0
H1310 H 0.46099 0.68541 0.34952 0.0
C1311 C 0.99397 0.13568 0.68804 0.0
C1312 C 1.00123 0.14624 0.68082 0.0
C1313 C 0.99496 0.12169 0.68382 0.0
C1314 C 0.00332 0.11797 0.67238 0.0
C1315 C 0.01039 0.12852 0.66505 0.0
C1316 C 0.00932 0.14247 0.66918 0.0
C1317 C 0.00508 0.10313 0.66826 0.0
C1318 C 0.99347 0.09425 0.66657 0.0
C1319 C 0.99519 0.08035 0.66202 0.0
C1320 C 0.00878 0.0753 0.65949 0.0
C1321 C 0.02048 0.08409 0.66124 0.0
C1322 C 0.0185 0.09795 0.66562 0.0
C1323 C 0.0349 0.07912 0.65846 0.0
C1324 C 0.03992 0.06673 0.66446 0.0
C1325 C 0.04407 0.0874 0.65056 0.0
C1326 C 0.0581 0.08372 0.64918 0.0
C1327 C 0.06338 0.07171 0.65575 0.0
C1328 C 0.98268 0.07146 0.65921 0.0
C1329 C 0.9714 0.07131 0.66858 0.0
C1330 C 0.98157 0.06375 0.64673 0.0
C1331 C 0.96928 0.05642 0.64348 0.0
C1332 C 0.95787 0.05655 0.6527 0.0
C1333 C 0.95916 0.0639 0.66538 0.0
C1334 C 0.05405 0.06308 0.66316 0.0
H1335 H 0.98775 0.13816 0.69713 0.0
H1336 H 0.98947 0.11375 0.68971 0.0
H1337 H 0.01672 0.12597 0.65605 0.0
H1338 H 0.01475 0.15033 0.66313 0.0
H1339 H 0.98306 0.09835 0.66823 0.0
H1340 H 0.0275 0.10471 0.66718 0.0
H1341 H 0.01024 0.06463 0.656 0.0
H1342 H 0.03308 0.0602 0.67066 0.0
H1343 H 0.04041 0.09688 0.64562 0.0
H1344 H 0.06486 0.09042 0.64308 0.0
H1345 H 0.97198 0.07708 0.67832 0.0
H1346 H 0.99003 0.06375 0.63925 0.0
H1347 H 0.05775 0.05379 0.6684 0.0
H1348 H 0.95052 0.06431 0.67266 0.0
H1349 H 0.96865 0.05076 0.63369 0.0
C1350 C 0.46113 0.79235 0.33044 0.0
C1351 C 0.4501 0.79195 0.32064 0.0
C1352 C 0.467 0.80518 0.33468 0.0
C1353 C 0.46194 0.81779 0.32914 0.0
C1354 C 0.45162 0.81723 0.31864 0.0
C1355 C 0.44576 0.80451 0.31448 0.0
C1356 C 0.46595 0.83156 0.33526 0.0
C1357 C 0.48001 0.83564 0.33729 0.0
C1358 C 0.48324 0.84918 0.3423 0.0
C1359 C 0.47227 0.85835 0.34566 0.0
C1360 C 0.45826 0.85434 0.34391 0.0
C1361 C 0.45525 0.84092 0.3388 0.0
C1362 C 0.44669 0.8642 0.34704 0.0
C1363 C 0.44707 0.87271 0.35905 0.0
C1364 C 0.43508 0.86509 0.33802 0.0
C1365 C 0.42404 0.87409 0.34102 0.0
C1366 C 0.42433 0.88248 0.35308 0.0
C1367 C 0.49794 0.85423 0.34373 0.0
C1368 C 0.50811 0.84637 0.35082 0.0
C1369 C 0.50157 0.86757 0.33882 0.0
C1370 C 0.5148 0.87323 0.34149 0.0
C1371 C 0.5248 0.86572 0.34921 0.0
C1372 C 0.5214 0.85207 0.35357 0.0
C1373 C 0.43601 0.88176 0.36203 0.0
H1374 H 0.46472 0.78282 0.33535 0.0
H1375 H 0.47493 0.8053 0.3428 0.0
H1376 H 0.44769 0.82676 0.31399 0.0
H1377 H 0.43754 0.80454 0.30666 0.0
H1378 H 0.48835 0.82855 0.33447 0.0
H1379 H 0.44442 0.83766 0.33768 0.0
H1380 H 0.47467 0.86877 0.34949 0.0
H1381 H 0.45579 0.87217 0.36628 0.0
H1382 H 0.43458 0.8589 0.32854 0.0
H1383 H 0.41532 0.87459 0.33377 0.0
H1384 H 0.50559 0.83607 0.35476 0.0
H1385 H 0.49406 0.87378 0.33307 0.0
H1386 H 0.43648 0.888 0.37148 0.0
H1387 H 0.52882 0.84599 0.35955 0.0
H1388 H 0.51714 0.88358 0.33759 0.0
C1389 C 0.00728 0.38726 0.70519 0.0
C1390 C 0.99627 0.39128 0.714 0.0
C1391 C 0.00733 0.37406 0.69893 0.0
C1392 C 0.9965 0.36439 0.70151 0.0
C1393 C 0.98594 0.3682 0.71091 0.0
C1394 C 0.98575 0.38147 0.71702 0.0
C1395 C 0.99568 0.35101 0.69345 0.0
C1396 C 0.00793 0.34444 0.68896 0.0
C1397 C 0.00759 0.33382 0.67879 0.0
C1398 C 0.99452 0.32891 0.67391 0.0
C1399 C 0.982 0.33471 0.67901 0.0
C1400 C 0.98275 0.34567 0.68882 0.0
C1401 C 0.96807 0.33049 0.67326 0.0
C1402 C 0.96588 0.32936 0.65878 0.0
C1403 C 0.95654 0.32886 0.68216 0.0
C1404 C 0.94311 0.3265 0.67676 0.0
C1405 C 0.94074 0.32602 0.66223 0.0
C1406 C 0.02103 0.32899 0.67262 0.0
C1407 C 0.03179 0.33874 0.6702 0.0
C1408 C 0.02345 0.31486 0.66941 0.0
C1409 C 0.03648 0.31059 0.66421 0.0
C1410 C 0.04733 0.32038 0.66214 0.0
C1411 C 0.04475 0.33449 0.66523 0.0
C1412 C 0.9524 0.32723 0.65334 0.0
H1413 H 0.01572 0.39444 0.70283 0.0
H1414 H 0.01559 0.37175 0.6916 0.0
H1415 H 0.97756 0.36108 0.71328 0.0
H1416 H 0.97703 0.38418 0.72365 0.0
H1417 H 0.01791 0.34797 0.69308 0.0
H1418 H 0.9732 0.35059 0.6922 0.0
H1419 H 0.9941 0.32087 0.66592 0.0
H1420 H 0.97449 0.33083 0.65161 0.0
H1421 H 0.95785 0.32977 0.69335 0.0
H1422 H 0.93457 0.32534 0.68404 0.0
H1423 H 0.03025 0.34977 0.67221 0.0
H1424 H 0.0154 0.30707 0.67116 0.0
H1425 H 0.95111 0.32717 0.64211 0.0
H1426 H 0.05284 0.34235 0.66406 0.0
H1427 H 0.03801 0.29965 0.6618 0.0
C1428 C 0.71313 0.49476 0.38197 0.0
C1429 C 0.72159 0.48286 0.38051 0.0
C1430 C 0.7082 0.50187 0.37022 0.0
C1431 C 0.71172 0.4973 0.35673 0.0
C1432 C 0.72118 0.48616 0.35532 0.0
C1433 C 0.72599 0.47897 0.36706 0.0
C1434 C 0.70388 0.50258 0.34438 0.0
C1435 C 0.69993 0.51667 0.34328 0.0
C1436 C 0.69035 0.52102 0.33292 0.0
C1437 C 0.68529 0.51106 0.32325 0.0
C1438 C 0.68931 0.49699 0.32409 0.0
C1439 C 0.69861 0.49292 0.33465 0.0
C1440 C 0.68253 0.48608 0.31527 0.0
C1441 C 0.66805 0.48642 0.31273 0.0
C1442 C 0.69019 0.47443 0.31067 0.0
C1443 C 0.6834 0.46304 0.30448 0.0
C1444 C 0.66884 0.46314 0.30258 0.0
C1445 C 0.68441 0.53545 0.33311 0.0
C1446 C 0.6819 0.54229 0.34589 0.0
C1447 C 0.68017 0.5421 0.32069 0.0
C1448 C 0.67307 0.55486 0.3211 0.0
C1449 C 0.6702 0.56146 0.33393 0.0
C1450 C 0.67506 0.55514 0.34627 0.0
C1451 C 0.6613 0.4751 0.30638 0.0
H1452 H 0.70983 0.49829 0.3922 0.0
H1453 H 0.7009 0.51036 0.37173 0.0
H1454 H 0.72428 0.48252 0.34507 0.0
H1455 H 0.7325 0.46987 0.36549 0.0
H1456 H 0.70404 0.52416 0.35076 0.0
H1457 H 0.7009 0.48192 0.33596 0.0
H1458 H 0.67767 0.51409 0.31544 0.0
H1459 H 0.66178 0.49515 0.31622 0.0
H1460 H 0.7014 0.47391 0.31229 0.0
H1461 H 0.68956 0.45399 0.30175 0.0
H1462 H 0.68477 0.53752 0.35572 0.0
H1463 H 0.68212 0.53733 0.31062 0.0
H1464 H 0.65013 0.47572 0.30469 0.0
H1465 H 0.67343 0.56002 0.35634 0.0
H1466 H 0.66949 0.55931 0.31135 0.0
C1467 C 0.68694 0.54429 0.20623 0.0
C1468 C 0.67974 0.55555 0.21238 0.0
C1469 C 0.6822 0.53837 0.19359 0.0
C1470 C 0.67018 0.5436 0.18693 0.0
C1471 C 0.66253 0.55419 0.19362 0.0
C1472 C 0.66725 0.56009 0.20613 0.0
C1473 C 0.66641 0.53947 0.17237 0.0
C1474 C 0.66519 0.52538 0.16811 0.0
C1475 C 0.66095 0.52203 0.15433 0.0
C1476 C 0.65854 0.53295 0.14478 0.0
C1477 C 0.65977 0.54696 0.14889 0.0
C1478 C 0.66372 0.55009 0.16264 0.0
C1479 C 0.65661 0.55844 0.139 0.0
C1480 C 0.66249 0.55863 0.12558 0.0
C1481 C 0.64788 0.56947 0.14309 0.0
C1482 C 0.64521 0.58057 0.13404 0.0
C1483 C 0.65134 0.581 0.12071 0.0
C1484 C 0.65841 0.5073 0.14975 0.0
C1485 C 0.66791 0.49655 0.15284 0.0
C1486 C 0.6466 0.50408 0.14151 0.0
C1487 C 0.64464 0.49069 0.136 0.0
C1488 C 0.65441 0.48005 0.13853 0.0
C1489 C 0.66594 0.48306 0.14728 0.0
C1490 C 0.65994 0.56983 0.11656 0.0
H1491 H 0.69659 0.54054 0.21081 0.0
H1492 H 0.68834 0.53026 0.18866 0.0
H1493 H 0.65309 0.55827 0.18888 0.0
H1494 H 0.66126 0.56848 0.21076 0.0
H1495 H 0.66698 0.51712 0.17562 0.0
H1496 H 0.66488 0.56095 0.16575 0.0
H1497 H 0.65544 0.53055 0.13413 0.0
H1498 H 0.66934 0.5503 0.12221 0.0
H1499 H 0.64303 0.56947 0.15329 0.0
H1500 H 0.63826 0.58877 0.1375 0.0
H1501 H 0.67712 0.49869 0.15914 0.0
H1502 H 0.63887 0.512 0.13921 0.0
H1503 H 0.66498 0.56987 0.10646 0.0
H1504 H 0.6737 0.47514 0.14945 0.0
H1505 H 0.63543 0.48869 0.12966 0.0
C1506 C 0.28668 0.0029 0.62745 0.0
C1507 C 0.29118 0.01223 0.6171 0.0
C1508 C 0.29343 0.00254 0.64046 0.0
C1509 C 0.30499 0.01132 0.64324 0.0
C1510 C 0.30941 0.02061 0.63276 0.0
C1511 C 0.30251 0.02114 0.61993 0.0
C1512 C 0.31284 0.01054 0.65672 0.0
C1513 C 0.31505 0.99764 0.66339 0.0
C1514 C 0.32379 0.99668 0.67524 0.0
C1515 C 0.33021 0.00887 0.68053 0.0
C1516 C 0.32823 0.0217 0.67387 0.0
C1517 C 0.31934 0.02253 0.66226 0.0
C1518 C 0.3368 0.03399 0.67762 0.0
C1519 C 0.33455 0.04139 0.69005 0.0
C1520 C 0.34661 0.03897 0.668 0.0
C1521 C 0.35367 0.0515 0.67047 0.0
C1522 C 0.35073 0.05956 0.68238 0.0
C1523 C 0.32747 0.98275 0.68097 0.0
C1524 C 0.31733 0.97212 0.68205 0.0
C1525 C 0.34143 0.97965 0.68438 0.0
C1526 C 0.34525 0.96614 0.68824 0.0
C1527 C 0.33524 0.95537 0.68869 0.0
C1528 C 0.32117 0.95857 0.68587 0.0
C1529 C 0.34133 0.05422 0.69234 0.0
H1530 H 0.27792 0.99593 0.62549 0.0
H1531 H 0.28961 0.99538 0.64831 0.0
H1532 H 0.3185 0.02724 0.63423 0.0
H1533 H 0.30635 0.02825 0.61203 0.0
H1534 H 0.31076 0.98819 0.6588 0.0
H1535 H 0.3179 0.03259 0.65731 0.0
H1536 H 0.33725 0.00831 0.68941 0.0
H1537 H 0.32715 0.03755 0.69766 0.0
H1538 H 0.34851 0.03333 0.65836 0.0
H1539 H 0.36082 0.05525 0.6626 0.0
H1540 H 0.30646 0.97421 0.67962 0.0
H1541 H 0.34955 0.98751 0.68351 0.0
H1542 H 0.339 0.0601 0.70173 0.0
H1543 H 0.3132 0.9505 0.68604 0.0
H1544 H 0.35614 0.96407 0.69057 0.0
C1545 C 0.3334 0.01014 0.86196 0.0
C1546 C 0.32225 1.00206 0.85665 0.0
C1547 C 0.33755 0.00894 0.87593 0.0
C1548 C 0.33062 0.99966 0.88494 0.0
C1549 C 0.31936 0.99171 0.87966 0.0
C1550 C 0.31524 0.99288 0.86569 0.0
C1551 C 0.33527 0.99803 0.89971 0.0
C1552 C 0.33935 0.00967 0.90773 0.0
C1553 C 0.34387 0.00815 0.92164 0.0
C1554 C 0.34418 0.99471 0.92761 0.0
C1555 C 0.34013 0.98291 0.91972 0.0
C1556 C 0.33577 0.98473 0.9058 0.0
C1557 C 0.34076 0.96853 0.92557 0.0
C1558 C 0.35254 0.96392 0.93307 0.0
C1559 C 0.32998 0.95891 0.92262 0.0
C1560 C 0.33129 0.94488 0.92631 0.0
C1561 C 0.34339 0.94008 0.93313 0.0
C1562 C 0.34823 0.02074 0.92975 0.0
C1563 C 0.357 0.03078 0.9236 0.0
C1564 C 0.34312 0.02322 0.94327 0.0
C1565 C 0.34629 0.03575 0.95027 0.0
C1566 C 0.35469 0.04601 0.94389 0.0
C1567 C 0.36022 0.04322 0.93059 0.0
C1568 C 0.35384 0.94982 0.93682 0.0
H1569 H 0.33911 0.0172 0.85523 0.0
H1570 H 0.34638 0.01508 0.8796 0.0
H1571 H 0.31362 0.98465 0.88637 0.0
H1572 H 0.30645 0.98669 0.862 0.0
H1573 H 0.33874 0.02002 0.90321 0.0
H1574 H 0.33315 0.97564 0.89951 0.0
H1575 H 0.34763 0.99345 0.93833 0.0
H1576 H 0.36106 0.97105 0.93544 0.0
H1577 H 0.32063 0.96218 0.91712 0.0
H1578 H 0.3229 0.93771 0.92361 0.0
H1579 H 0.3613 0.02905 0.91329 0.0
H1580 H 0.33626 0.01571 0.94823 0.0
H1581 H 0.36331 0.94645 0.94204 0.0
H1582 H 0.367 0.05071 0.92551 0.0
H1583 H 0.34178 0.03759 0.96046 0.0
C1584 C 0.37845 0.70803 0.49036 0.0
C1585 C 0.37768 0.71785 0.47947 0.0
C1586 C 0.36648 0.70412 0.49775 0.0
C1587 C 0.35339 0.71003 0.49462 0.0
C1588 C 0.35275 0.72036 0.48418 0.0
C1589 C 0.3647 0.72415 0.47666 0.0
C1590 C 0.34034 0.70446 0.5012 0.0
C1591 C 0.34032 0.69955 0.51505 0.0
C1592 C 0.32879 0.69209 0.52046 0.0
C1593 C 0.3168 0.6904 0.51197 0.0
C1594 C 0.31643 0.69557 0.49823 0.0
C1595 C 0.32826 0.70255 0.49302 0.0
C1596 C 0.30502 0.69154 0.48832 0.0
C1597 C 0.30029 0.67762 0.48788 0.0
C1598 C 0.30108 0.70058 0.47742 0.0
C1599 C 0.29472 0.69525 0.46532 0.0
C1600 C 0.29216 0.68088 0.46407 0.0
C1601 C 0.32981 0.6848 0.53429 0.0
C1602 C 0.34269 0.67937 0.53893 0.0
C1603 C 0.3179 0.68238 0.54259 0.0
C1604 C 0.31877 0.67437 0.55481 0.0
C1605 C 0.33162 0.66872 0.55926 0.0
C1606 C 0.3436 0.67164 0.55126 0.0
C1607 C 0.29386 0.67235 0.47584 0.0
H1608 H 0.38829 0.70317 0.49308 0.0
H1609 H 0.36744 0.69603 0.50557 0.0
H1610 H 0.34292 0.72532 0.48158 0.0
H1611 H 0.36361 0.73169 0.46833 0.0
H1612 H 0.34949 0.70128 0.52151 0.0
H1613 H 0.32849 0.70549 0.4821 0.0
H1614 H 0.30798 0.68439 0.51572 0.0
H1615 H 0.30309 0.67031 0.49602 0.0
H1616 H 0.30426 0.71146 0.4776 0.0
H1617 H 0.29361 0.702 0.45632 0.0
H1618 H 0.35211 0.68068 0.53286 0.0
H1619 H 0.30781 0.68652 0.53959 0.0
H1620 H 0.29214 0.66118 0.47505 0.0
H1621 H 0.35378 0.66787 0.55442 0.0
H1622 H 0.30925 0.67233 0.56054 0.0
C1623 C 0.86399 0.3345 0.01031 0.0
C1624 C 0.85877 0.32255 0.00346 0.0
C1625 C 0.87806 0.33825 0.00911 0.0
C1626 C 0.88717 0.33019 1.00093 0.0
C1627 C 0.88198 0.31817 0.99417 0.0
C1628 C 0.86792 0.31435 0.99548 0.0
C1629 C 0.90196 0.33451 0.99921 0.0
C1630 C 0.90993 0.33879 0.01078 0.0
C1631 C 0.92382 0.34333 0.0092 0.0
C1632 C 0.92976 0.34355 0.99577 0.0
C1633 C 0.92185 0.33933 0.98404 0.0
C1634 C 0.908 0.33476 0.98591 0.0
C1635 C 0.92762 0.34025 0.96968 0.0
C1636 C 0.93478 0.3523 0.96528 0.0
C1637 C 0.92501 0.32951 0.95994 0.0
C1638 C 0.92898 0.331 0.94601 0.0
C1639 C 0.93566 0.34327 0.94145 0.0
C1640 C 0.93192 0.34785 0.02169 0.0
C1641 C 0.9257 0.35659 0.03169 0.0
C1642 C 0.94551 0.34285 0.02417 0.0
C1643 C 0.95249 0.34607 0.03667 0.0
C1644 C 0.94602 0.3544 0.04691 0.0
C1645 C 0.93267 0.35985 0.04412 0.0
C1646 C 0.93873 0.3538 0.9513 0.0
H1647 H 0.85719 0.34094 0.01664 0.0
H1648 H 0.88176 0.34762 0.01435 0.0
H1649 H 0.8888 0.31172 0.98789 0.0
H1650 H 0.86416 0.30512 0.99004 0.0
H1651 H 0.90535 0.33837 0.02111 0.0
H1652 H 0.90169 0.33191 0.9769 0.0
H1653 H 0.94044 0.34713 0.99446 0.0
H1654 H 0.93685 0.3608 0.97251 0.0
H1655 H 0.91963 0.32005 0.96305 0.0
H1656 H 0.92634 0.32273 0.9387 0.0
H1657 H 0.91534 0.36081 0.02995 0.0
H1658 H 0.95051 0.33601 0.01668 0.0
H1659 H 0.94402 0.36331 0.94818 0.0
H1660 H 0.92752 0.36657 0.05161 0.0
H1661 H 0.96273 0.34164 0.03853 0.0
C1662 C 0.20838 0.68639 0.54354 0.0
C1663 C 0.21542 0.67868 0.5539 0.0
C1664 C 0.19533 0.68191 0.53837 0.0
C1665 C 0.189 0.66975 0.54363 0.0
C1666 C 0.19623 0.66187 0.55367 0.0
C1667 C 0.20927 0.66624 0.55871 0.0
C1668 C 0.17445 0.66575 0.53969 0.0
C1669 C 0.17023 0.66428 0.52564 0.0
C1670 C 0.15661 0.65953 0.52232 0.0
C1671 C 0.14716 0.65673 0.53321 0.0
C1672 C 0.15113 0.65847 0.54726 0.0
C1673 C 0.16478 0.66297 0.55034 0.0
C1674 C 0.14114 0.6555 0.5588 0.0
C1675 C 0.12708 0.65969 0.55792 0.0
C1676 C 0.14575 0.64875 0.57101 0.0
C1677 C 0.13663 0.64651 0.58215 0.0
C1678 C 0.12264 0.65091 0.58138 0.0
C1679 C 0.15222 0.65701 0.50756 0.0
C1680 C 0.15435 0.66719 0.49722 0.0
C1681 C 0.14534 0.64452 0.50386 0.0
C1682 C 0.14048 0.64232 0.49022 0.0
C1683 C 0.14223 0.65262 0.47994 0.0
C1684 C 0.14931 0.66506 0.48358 0.0
C1685 C 0.11793 0.65741 0.56907 0.0
H1686 H 0.21288 0.69597 0.53955 0.0
H1687 H 0.18996 0.68821 0.53067 0.0
H1688 H 0.19163 0.65241 0.55787 0.0
H1689 H 0.21429 0.66011 0.56678 0.0
H1690 H 0.17767 0.66626 0.51737 0.0
H1691 H 0.16791 0.66454 0.56113 0.0
H1692 H 0.13669 0.65308 0.53072 0.0
H1693 H 0.12322 0.66504 0.54874 0.0
H1694 H 0.15642 0.64513 0.57195 0.0
H1695 H 0.14053 0.64123 0.59135 0.0
H1696 H 0.15957 0.67694 0.49977 0.0
H1697 H 0.14365 0.63642 0.51156 0.0
H1698 H 0.10725 0.66104 0.56818 0.0
H1699 H 0.15093 0.67316 0.47588 0.0
H1700 H 0.13499 0.63268 0.48783 0.0
C1701 C 0.6271 0.28909 0.00518 0.0
C1702 C 0.61621 0.29587 0.01228 0.0
C1703 C 0.64042 0.29516 0.00457 0.0
C1704 C 0.64311 0.30807 0.01114 0.0
C1705 C 0.63228 0.31467 0.01846 0.0
C1706 C 0.619 0.30865 0.01902 0.0
C1707 C 0.65708 0.31482 0.01025 0.0
C1708 C 0.6642 0.31546 0.99749 0.0
C1709 C 0.67706 0.32263 0.99637 0.0
C1710 C 0.6829 0.3289 0.00841 0.0
C1711 C 0.67576 0.32839 0.02114 0.0
C1712 C 0.66292 0.3214 0.02199 0.0
C1713 C 0.68089 0.33591 0.03355 0.0
C1714 C 0.68962 0.32918 0.04319 0.0
C1715 C 0.67508 0.3489 0.03695 0.0
C1716 C 0.6775 0.35484 0.05008 0.0
C1717 C 0.68544 0.34764 0.06008 0.0
C1718 C 0.68341 0.32477 0.98236 0.0
C1719 C 0.68228 0.31437 0.97197 0.0
C1720 C 0.68922 0.33782 0.97877 0.0
C1721 C 0.69297 0.34066 0.96497 0.0
C1722 C 0.69082 0.33058 0.95453 0.0
C1723 C 0.68577 0.31732 0.95814 0.0
C1724 C 0.69172 0.33491 0.05648 0.0
H1725 H 0.62524 0.27924 0.99986 0.0
H1726 H 0.64863 0.28976 0.99898 0.0
H1727 H 0.63397 0.32467 0.02355 0.0
H1728 H 0.61088 0.31402 0.02477 0.0
H1729 H 0.65926 0.31107 0.98825 0.0
H1730 H 0.65746 0.32116 0.03189 0.0
H1731 H 0.69277 0.33447 0.00786 0.0
H1732 H 0.69427 0.31922 0.04067 0.0
H1733 H 0.66814 0.35412 0.02969 0.0
H1734 H 0.67246 0.3646 0.05273 0.0
H1735 H 0.67816 0.30411 0.9744 0.0
H1736 H 0.69009 0.34615 0.9864 0.0
H1737 H 0.69791 0.32924 0.06407 0.0
H1738 H 0.68409 0.30941 0.95017 0.0
H1739 H 0.69673 0.351 0.96232 0.0
C1740 C 0.4944 0.37698 0.70707 0.0
C1741 C 0.48269 0.37592 0.71585 0.0
C1742 C 0.50102 0.36501 0.70201 0.0
C1743 C 0.49627 0.35159 0.70574 0.0
C1744 C 0.48515 0.35056 0.71529 0.0
C1745 C 0.47839 0.36255 0.7202 0.0
C1746 C 0.50185 0.33893 0.69848 0.0
C1747 C 0.51583 0.33838 0.69401 0.0
C1748 C 0.52041 0.32794 0.68465 0.0
C1749 C 0.51087 0.31742 0.68045 0.0
C1750 C 0.49709 0.31736 0.68551 0.0
C1751 C 0.4927 0.32813 0.69443 0.0
C1752 C 0.4864 0.30745 0.68009 0.0
C1753 C 0.4828 0.30764 0.66587 0.0
C1754 C 0.47781 0.30011 0.68942 0.0
C1755 C 0.4651 0.29436 0.68487 0.0
C1756 C 0.46059 0.2962 0.671 0.0
C1757 C 0.53471 0.32884 0.67836 0.0
C1758 C 0.54073 0.34197 0.67547 0.0
C1759 C 0.54227 0.31677 0.67472 0.0
C1760 C 0.55532 0.31783 0.66815 0.0
C1761 C 0.56122 0.33099 0.66516 0.0
C1762 C 0.55381 0.34302 0.66914 0.0
C1763 C 0.46997 0.30211 0.66137 0.0
H1764 H 0.49826 0.38708 0.70376 0.0
H1765 H 0.50944 0.36634 0.69461 0.0
H1766 H 0.48134 0.34044 0.71864 0.0
H1767 H 0.46941 0.36126 0.72693 0.0
H1768 H 0.52308 0.34636 0.69756 0.0
H1769 H 0.48177 0.3286 0.69734 0.0
H1770 H 0.51392 0.30958 0.67288 0.0
H1771 H 0.48921 0.31332 0.65849 0.0
H1772 H 0.48042 0.29976 0.70043 0.0
H1773 H 0.45827 0.28958 0.69249 0.0
H1774 H 0.53523 0.35155 0.67779 0.0
H1775 H 0.53811 0.30647 0.67689 0.0
H1776 H 0.46688 0.30388 0.65063 0.0
H1777 H 0.55806 0.35334 0.66728 0.0
H1778 H 0.56063 0.30834 0.6651 0.0
C1779 C 0.01201 0.8619 0.33486 0.0
C1780 C 0.0061 0.85674 0.32235 0.0
C1781 C 0.01041 0.87591 0.33869 0.0
C1782 C 0.0027 0.88505 0.33024 0.0
C1783 C 0.99677 0.87998 0.31776 0.0
C1784 C 0.99854 0.86601 0.3138 0.0
C1785 C 1.00064 0.89978 0.33459 0.0
C1786 C 0.01206 0.90797 0.33888 0.0
C1787 C 0.01019 0.92184 0.34338 0.0
C1788 C 0.99661 0.92751 0.34342 0.0
C1789 C 0.98497 0.91938 0.33925 0.0
C1790 C 0.98718 0.90551 0.33483 0.0
C1791 C 0.97042 0.92495 0.34005 0.0
C1792 C 0.96633 0.93379 0.35109 0.0
C1793 C 0.96024 0.92073 0.33022 0.0
C1794 C 0.94625 0.92451 0.33184 0.0
C1795 C 0.94215 0.93291 0.34312 0.0
C1796 C 0.02249 0.93021 0.34813 0.0
C1797 C 0.03296 0.92399 0.35635 0.0
C1798 C 0.02415 0.94425 0.34416 0.0
C1799 C 0.03619 0.95175 0.348 0.0
C1800 C 0.04682 0.94539 0.35593 0.0
C1801 C 0.04497 0.93145 0.36016 0.0
C1802 C 0.95233 0.93781 0.35254 0.0
H1803 H 0.01765 0.85508 0.34187 0.0
H1804 H 0.01495 0.87952 0.34845 0.0
H1805 H 0.99089 0.88687 0.311 0.0
H1806 H 0.99406 0.86253 0.30398 0.0
H1807 H 0.02248 0.90356 0.3385 0.0
H1808 H 0.97837 0.8989 0.33206 0.0
H1809 H 0.99511 0.93819 0.34686 0.0
H1810 H 0.97379 0.93715 0.35897 0.0
H1811 H 0.963 0.91426 0.32136 0.0
H1812 H 0.93857 0.92075 0.32435 0.0
H1813 H 0.03194 0.91326 0.35978 0.0
H1814 H 0.01631 0.94934 0.33778 0.0
H1815 H 0.94937 0.94426 0.36136 0.0
H1816 H 0.05298 0.92614 0.36612 0.0
H1817 H 0.0372 0.96252 0.34469 0.0
C1818 C 0.54862 0.20722 0.68775 0.0
C1819 C 0.55737 0.21484 0.67869 0.0
C1820 C 0.54296 0.1943 0.6836 0.0
C1821 C 0.54606 0.18875 0.67039 0.0
C1822 C 0.55421 0.19661 0.66113 0.0
C1823 C 0.55969 0.20955 0.66517 0.0
C1824 C 0.54222 0.17421 0.66664 0.0
C1825 C 0.52821 0.17001 0.66511 0.0
C1826 C 0.52498 0.15645 0.66029 0.0
C1827 C 0.53589 0.14705 0.65744 0.0
C1828 C 0.54994 0.15098 0.6594 0.0
C1829 C 0.55295 0.16463 0.66397 0.0
C1830 C 0.56147 0.14092 0.6566 0.0
C1831 C 0.56001 0.12667 0.65987 0.0
C1832 C 0.57415 0.14554 0.65078 0.0
C1833 C 0.58513 0.13623 0.64852 0.0
C1834 C 0.58368 0.12198 0.65178 0.0
C1835 C 0.5103 0.15199 0.65787 0.0
C1836 C 0.50034 0.15297 0.66856 0.0
C1837 C 0.50638 0.14601 0.64499 0.0
C1838 C 0.4928 0.14095 0.6429 0.0
C1839 C 0.48299 0.14153 0.65372 0.0
C1840 C 0.48682 0.14763 0.66656 0.0
C1841 C 0.57093 0.11731 0.65742 0.0
H1842 H 0.54666 0.21091 0.69826 0.0
H1843 H 0.53677 0.18834 0.69093 0.0
H1844 H 0.55664 0.19255 0.65085 0.0
H1845 H 0.56602 0.21526 0.65776 0.0
H1846 H 0.51989 0.1774 0.6671 0.0
H1847 H 0.56371 0.16787 0.66563 0.0
H1848 H 0.53336 0.13667 0.65362 0.0
H1849 H 0.55047 0.12273 0.66452 0.0
H1850 H 0.57563 0.15637 0.6479 0.0
H1851 H 0.59483 0.1403 0.64435 0.0
H1852 H 0.50315 0.15747 0.67859 0.0
H1853 H 0.51386 0.14518 0.63657 0.0
H1854 H 0.56932 0.10639 0.65989 0.0
H1855 H 0.47936 0.1482 0.67502 0.0
H1856 H 0.49004 0.13625 0.63294 0.0
C1857 C 0.01046 0.62881 0.28985 0.0
C1858 C 0.01692 0.61742 0.29653 0.0
C1859 C 0.00954 0.6418 0.29656 0.0
C1860 C 0.01521 0.64369 0.30998 0.0
C1861 C 0.02175 0.63238 0.31661 0.0
C1862 C 0.02252 0.6194 0.31001 0.0
C1863 C 0.0141 0.65726 0.31735 0.0
C1864 C 1.00111 0.66389 0.31873 0.0
C1865 C 0.99972 0.67585 0.3272 0.0
C1866 C 0.01165 0.68149 0.33384 0.0
C1867 C 0.02472 0.67515 0.33215 0.0
C1868 C 0.02587 0.663 0.32406 0.0
C1869 C 0.03716 0.68043 0.3396 0.0
C1870 C 0.04738 0.68806 0.33246 0.0
C1871 C 0.03965 0.67633 0.3534 0.0
C1872 C 0.05255 0.67914 0.35974 0.0
C1873 C 0.06327 0.68602 0.35234 0.0
C1874 C 0.98561 0.68139 0.33034 0.0
C1875 C 0.97565 0.68327 0.31966 0.0
C1876 C 0.98164 0.68364 0.34427 0.0
C1877 C 0.96785 0.68703 0.34752 0.0
C1878 C 0.95776 0.68837 0.33691 0.0
C1879 C 0.96186 0.68683 0.32292 0.0
C1880 C 0.06025 0.69098 0.33881 0.0
H1881 H 0.0062 0.62773 0.2794 0.0
H1882 H 0.00452 0.6504 0.29121 0.0
H1883 H 0.02602 0.6335 0.32705 0.0
H1884 H 0.02728 0.61083 0.31563 0.0
H1885 H 0.9919 0.65919 0.31399 0.0
H1886 H 0.03595 0.65793 0.3231 0.0
H1887 H 0.01074 0.69064 0.34047 0.0
H1888 H 0.04561 0.69133 0.3218 0.0
H1889 H 0.03188 0.67032 0.35902 0.0
H1890 H 0.05431 0.67513 0.37014 0.0
H1891 H 0.97847 0.68166 0.30883 0.0
H1892 H 0.98904 0.68213 0.35272 0.0
H1893 H 0.06799 0.69669 0.3329 0.0
H1894 H 0.95427 0.68776 0.31454 0.0
H1895 H 0.96498 0.68828 0.35839 0.0
H1896 H 0.19144 0.6571 0.3816 0.0
H1897 H 0.16868 0.66325 0.37193 0.0
H1898 H 0.1549 0.67619 0.4128 0.0
H1899 H 0.17795 0.67096 0.42239 0.0
H1900 H 0.14414 0.65399 0.37541 0.0
H1901 H 0.14309 0.70937 0.3917 0.0
H1902 H 0.15854 0.6988 0.3935 0.0
H1903 H 0.14503 0.69825 0.40658 0.0
C1904 C 0.18367 0.66149 0.38852 0.0
C1905 C 0.18667 0.66371 0.40277 0.0
C1906 C 0.17058 0.6649 0.38298 0.0
C1907 C 0.1601 0.67052 0.39153 0.0
C1908 C 0.1629 0.6723 0.40585 0.0
H1909 H 0.07205 0.68818 0.37984 0.0
H1910 H 0.0957 0.68472 0.38891 0.0
C1911 C 0.17605 0.66904 0.41139 0.0
C1912 C 0.14616 0.67407 0.38552 0.0
H1913 H 0.12125 0.69959 0.38414 0.0
C1914 C 0.13922 0.66401 0.37725 0.0
C1915 C 0.13973 0.68722 0.3877 0.0
C1916 C 0.14707 0.69907 0.39522 0.0
C1917 C 0.12599 0.6666 0.37144 0.0
C1918 C 0.11936 0.67951 0.37415 0.0
C1919 C 0.12628 0.68961 0.38229 0.0
C1920 C 0.10525 0.68272 0.36858 0.0
C1921 C 0.11927 0.65545 0.36242 0.0
C1922 C 0.10287 0.68322 0.35415 0.0
C1923 C 0.08936 0.68504 0.3489 0.0
C1924 C 0.07788 0.68646 0.35799 0.0
C1925 C 0.08049 0.6868 0.37248 0.0
C1926 C 0.09404 0.68492 0.37771 0.0
H1927 H 0.12349 0.64492 0.36476 0.0
H1928 H 0.10777 0.65525 0.36374 0.0
H1929 H 0.12148 0.65775 0.3513 0.0
H1930 H 0.11143 0.68178 0.34691 0.0
H1931 H 0.08791 0.6845 0.3377 0.0
H1932 H 0.33627 0.28479 0.59945 0.0
H1933 H 0.361 0.28271 0.60623 0.0
H1934 H 0.36012 0.3247 0.62283 0.0
H1935 H 0.33605 0.32712 0.61521 0.0
H1936 H 0.38511 0.31938 0.61357 0.0
H1937 H 0.3684 0.27383 0.64549 0.0
H1938 H 0.36733 0.27134 0.62697 0.0
H1939 H 0.35599 0.28372 0.63547 0.0
C1940 C 0.34159 0.29369 0.60408 0.0
C1941 C 0.33428 0.30609 0.60683 0.0
C1942 C 0.35562 0.29245 0.60814 0.0
C1943 C 0.36224 0.30336 0.61558 0.0
C1944 C 0.35525 0.3161 0.61722 0.0
H1945 H 0.43915 0.30526 0.68991 0.0
H1946 H 0.4147 0.30644 0.67001 0.0
C1947 C 0.34146 0.31749 0.6128 0.0
C1948 C 0.37568 0.30134 0.62309 0.0
H1949 H 0.39131 0.28164 0.64793 0.0
C1950 C 0.38626 0.31141 0.62152 0.0
C1951 C 0.37754 0.29054 0.63294 0.0
C1952 C 0.3667 0.27929 0.6354 0.0
C1953 C 0.39819 0.31153 0.63013 0.0
C1954 C 0.39917 0.30177 0.64126 0.0
C1955 C 0.38961 0.29053 0.64125 0.0
C1956 C 0.41169 0.30136 0.65125 0.0
C1957 C 0.40954 0.32199 0.62675 0.0
C1958 C 0.42551 0.29386 0.64263 0.0
C1959 C 0.44107 0.2914 0.65068 0.0
C1960 C 0.44544 0.29542 0.66751 0.0
C1961 C 0.43495 0.30262 0.67974 0.0
C1962 C 0.41832 0.30727 0.67642 0.0
H1963 H 0.4071 0.33216 0.63173 0.0
H1964 H 0.42003 0.31856 0.63019 0.0
H1965 H 0.41 0.32388 0.61532 0.0
H1966 H 0.4244 0.29088 0.63176 0.0
H1967 H 0.44935 0.28795 0.644 0.0
H1968 H 0.67431 0.02325 0.63311 0.0
H1969 H 0.65476 0.03832 0.63985 0.0
H1970 H 0.67796 0.07456 0.62657 0.0
H1971 H 0.69744 0.05963 0.61954 0.0
H1972 H 0.66017 0.07152 0.65731 0.0
H1973 H 0.63408 0.0646 0.60552 0.0
H1974 H 0.64318 0.05019 0.61357 0.0
H1975 H 0.65291 0.0648 0.60708 0.0
C1976 C 0.67528 0.03443 0.63168 0.0
C1977 C 0.68743 0.04023 0.62575 0.0
C1978 C 0.66415 0.043 0.6356 0.0
C1979 C 0.66499 0.05749 0.63367 0.0
C1980 C 0.67721 0.06338 0.62819 0.0
H1981 H 0.60252 0.12197 0.63023 0.0
H1982 H 0.62231 0.10641 0.62675 0.0
C1983 C 0.68834 0.05483 0.62425 0.0
C1984 C 0.65282 0.06644 0.63666 0.0
H1985 H 0.62297 0.07911 0.62186 0.0
C1986 C 0.65198 0.07318 0.64963 0.0
C1987 C 0.64231 0.06861 0.62651 0.0
C1988 C 0.64304 0.06172 0.61234 0.0
C1989 C 0.64085 0.08222 0.65271 0.0
C1990 C 0.63018 0.0843 0.6426 0.0
C1991 C 0.63109 0.07747 0.62963 0.0
C1992 C 0.61822 0.09383 0.64504 0.0
C1993 C 0.64087 0.08975 0.66659 0.0
C1994 C 0.60921 0.09189 0.65641 0.0
C1995 C 0.59803 0.101 0.65862 0.0
C1996 C 0.59545 0.1121 0.64935 0.0
C1997 C 0.60432 0.11377 0.63778 0.0
C1998 C 0.61559 0.10478 0.63568 0.0
H1999 H 0.6515 0.09012 0.67131 0.0
H2000 H 0.63698 0.10061 0.66548 0.0
H2001 H 0.63392 0.08411 0.67393 0.0
H2002 H 0.61079 0.0833 0.66357 0.0
H2003 H 0.59152 0.09942 0.66771 0.0
H2004 H 0.81086 0.968 0.35496 0.0
H2005 H 0.8362 0.96741 0.35093 0.0
H2006 H 0.83733 0.92455 0.36454 0.0
H2007 H 0.81209 0.92495 0.36841 0.0
H2008 H 0.85865 0.95916 0.37174 0.0
H2009 H 0.85554 0.92548 0.32441 0.0
H2010 H 0.84086 0.93555 0.33062 0.0
H2011 H 0.84568 0.91964 0.33924 0.0
C2012 C 0.8165 0.95844 0.35705 0.0
C2013 C 0.80945 0.94652 0.36202 0.0
C2014 C 0.83097 0.95815 0.35481 0.0
C2015 C 0.83857 0.94591 0.35734 0.0
C2016 C 0.83161 0.93407 0.36243 0.0
H2017 H 0.92147 0.91385 0.34656 0.0
H2018 H 0.89657 0.91813 0.35032 0.0
C2019 C 0.8172 0.93436 0.36474 0.0
C2020 C 0.8538 0.94535 0.35462 0.0
H2021 H 0.87803 0.92943 0.33402 0.0
C2022 C 0.86295 0.95277 0.36344 0.0
C2023 C 0.85929 0.93697 0.34381 0.0
C2024 C 0.84987 0.92901 0.33388 0.0
C2025 C 0.87754 0.95156 0.36209 0.0
C2026 C 0.88309 0.94302 0.35134 0.0
C2027 C 0.87384 0.93593 0.34229 0.0
C2028 C 0.89837 0.9407 0.34959 0.0
C2029 C 0.8868 0.95897 0.37259 0.0
C2030 C 0.90775 0.95193 0.34793 0.0
C2031 C 0.92207 0.94946 0.34609 0.0
C2032 C 0.92714 0.93573 0.34546 0.0
C2033 C 0.91776 0.92453 0.34694 0.0
C2034 C 0.90355 0.92698 0.34907 0.0
H2035 H 0.88102 0.9616 0.38229 0.0
H2036 H 0.89598 0.95249 0.37544 0.0
H2037 H 0.89064 0.96889 0.36801 0.0
H2038 H 0.90401 0.96258 0.34786 0.0
H2039 H 0.92912 0.95825 0.34483 0.0
H2040 H 0.40573 0.17259 0.64534 0.0
H2041 H 0.39217 0.1516 0.65042 0.0
H2042 H 0.38483 0.1666 0.69226 0.0
H2043 H 0.39882 0.18754 0.68735 0.0
H2044 H 0.39429 0.14048 0.69251 0.0
H2045 H 0.35139 0.14293 0.65378 0.0
H2046 H 0.3681 0.1446 0.64555 0.0
H2047 H 0.3624 0.15783 0.65767 0.0
C2048 C 0.40114 0.17151 0.6556 0.0
C2049 C 0.40346 0.18173 0.66598 0.0
C2050 C 0.39317 0.15957 0.65842 0.0
C2051 C 0.38724 0.15758 0.67166 0.0
C2052 C 0.3892 0.16795 0.68193 0.0
H2053 H 0.33664 0.08319 0.68971 0.0
H2054 H 0.34498 0.10739 0.68849 0.0
C2055 C 0.39715 0.17995 0.6791 0.0
C2056 C 0.38036 0.14403 0.67513 0.0
H2057 H 0.35637 0.12015 0.66326 0.0
C2058 C 0.38584 0.13616 0.68624 0.0
C2059 C 0.36929 0.13833 0.66701 0.0
C2060 C 0.36236 0.14644 0.65543 0.0
C2061 C 0.38118 0.12248 0.68887 0.0
C2062 C 0.37061 0.11659 0.68033 0.0
C2063 C 0.36459 0.12467 0.66971 0.0
C2064 C 0.3659 0.10193 0.68203 0.0
C2065 C 0.38778 0.11434 0.70062 0.0
C2066 C 0.37497 0.09086 0.67895 0.0
C2067 C 0.37025 0.07703 0.67967 0.0
C2068 C 0.35638 0.07401 0.68353 0.0
C2069 C 0.34745 0.08514 0.68698 0.0
C2070 C 0.35215 0.09897 0.68614 0.0
H2071 H 0.39347 0.12126 0.70807 0.0
H2072 H 0.37974 0.10832 0.70642 0.0
H2073 H 0.39537 0.10679 0.69621 0.0
H2074 H 0.38558 0.09294 0.67561 0.0
H2075 H 0.37737 0.0687 0.6769 0.0
H2076 H 0.35926 0.80932 0.91998 0.0
H2077 H 0.35567 0.83461 0.92089 0.0
H2078 H 0.35982 0.83389 0.96571 0.0
H2079 H 0.36352 0.80851 0.96491 0.0
H2080 H 0.33336 0.84918 0.93901 0.0
H2081 H 0.38868 0.86459 0.94965 0.0
H2082 H 0.38424 0.84822 0.94124 0.0
H2083 H 0.38108 0.85049 0.95953 0.0
C2084 C 0.35956 0.81454 0.93003 0.0
C2085 C 0.36178 0.80689 0.94236 0.0
C2086 C 0.35741 0.82898 0.93053 0.0
C2087 C 0.35758 0.83611 0.94335 0.0
C2088 C 0.35975 0.82857 0.95571 0.0
H2089 H 0.35353 0.92702 0.95664 0.0
H2090 H 0.35645 0.90181 0.96038 0.0
C2091 C 0.36179 0.81407 0.95523 0.0
C2092 C 0.35528 0.85142 0.94369 0.0
H2093 H 0.37236 0.8827 0.94689 0.0
C2094 C 0.34185 0.85653 0.94081 0.0
C2095 C 0.36635 0.86094 0.94621 0.0
C2096 C 0.38095 0.85589 0.94929 0.0
C2097 C 0.33922 0.87095 0.94019 0.0
C2098 C 0.35043 0.88052 0.94208 0.0
C2099 C 0.36379 0.87538 0.94538 0.0
C2100 C 0.34864 0.89581 0.93996 0.0
C2101 C 0.32442 0.87576 0.93762 0.0
C2102 C 0.34356 0.90085 0.92716 0.0
C2103 C 0.34183 0.91518 0.92504 0.0
C2104 C 0.34532 0.92485 0.9356 0.0
C2105 C 0.35075 0.91984 0.94831 0.0
C2106 C 0.35238 0.90544 0.95046 0.0
H2107 H 0.31669 0.86781 0.94108 0.0
H2108 H 0.32226 0.88574 0.94314 0.0
H2109 H 0.32283 0.8774 0.92626 0.0
H2110 H 0.34104 0.8937 0.91872 0.0
H2111 H 0.33796 0.91869 0.91501 0.0
H2112 H 0.61453 0.33298 0.27589 0.0
H2113 H 0.62043 0.35701 0.26937 0.0
H2114 H 0.61897 0.36936 0.31268 0.0
H2115 H 0.61304 0.34535 0.31931 0.0
H2116 H 0.60784 0.38662 0.27801 0.0
H2117 H 0.66127 0.37249 0.29614 0.0
H2118 H 0.64844 0.35957 0.29091 0.0
H2119 H 0.64719 0.36791 0.30767 0.0
C2120 C 0.61506 0.34091 0.28398 0.0
C2121 C 0.6135 0.33734 0.29814 0.0
C2122 C 0.6184 0.3546 0.28022 0.0
C2123 C 0.62015 0.36482 0.29057 0.0
C2124 C 0.61765 0.36151 0.30459 0.0
H2125 H 0.63758 0.45548 0.30738 0.0
H2126 H 0.62366 0.43029 0.29835 0.0
C2127 C 0.61439 0.34783 0.30837 0.0
C2128 C 0.62663 0.37831 0.28714 0.0
H2129 H 0.65693 0.39633 0.29202 0.0
C2130 C 0.61858 0.38885 0.28099 0.0
C2131 C 0.64079 0.38085 0.29052 0.0
C2132 C 0.65002 0.3696 0.29657 0.0
C2133 C 0.62415 0.40231 0.27905 0.0
C2134 C 0.63797 0.40515 0.2836 0.0
C2135 C 0.64627 0.39426 0.28871 0.0
C2136 C 0.6437 0.41937 0.285 0.0
C2137 C 0.61539 0.41317 0.2718 0.0
C2138 C 0.66162 0.4225 0.2803 0.0
C2139 C 0.67075 0.43795 0.28672 0.0
C2140 C 0.6615 0.45064 0.29722 0.0
C2141 C 0.64322 0.44804 0.30105 0.0
C2142 C 0.63428 0.43228 0.29505 0.0
H2143 H 0.60614 0.40845 0.2665 0.0
H2144 H 0.61154 0.42092 0.27947 0.0
H2145 H 0.62171 0.41871 0.26386 0.0
H2146 H 0.66728 0.41471 0.27439 0.0
H2147 H 0.68162 0.43951 0.28405 0.0
H2148 H 0.62009 0.69669 0.06011 0.0
H2149 H 0.62736 0.67739 0.0751 0.0
H2150 H 0.63755 0.65285 0.03871 0.0
H2151 H 0.63073 0.67228 0.02364 0.0
H2152 H 0.61533 0.65127 0.07541 0.0
H2153 H 0.67188 0.64725 0.06339 0.0
H2154 H 0.66162 0.66238 0.05886 0.0
H2155 H 0.6608 0.64689 0.0482 0.0
C2156 C 0.62422 0.68733 0.05528 0.0
C2157 C 0.62485 0.68606 0.04065 0.0
C2158 C 0.62826 0.67626 0.06387 0.0
C2159 C 0.63312 0.66372 0.05804 0.0
C2160 C 0.63406 0.66251 0.04346 0.0
H2161 H 0.64802 0.58098 0.09214 0.0
H2162 H 0.64393 0.60106 0.07689 0.0
C2163 C 0.63001 0.67358 0.03485 0.0
C2164 C 0.63626 0.65162 0.06717 0.0
H2165 H 0.66186 0.62851 0.07633 0.0
C2166 C 0.62553 0.64636 0.07567 0.0
C2167 C 0.64957 0.6452 0.06748 0.0
C2168 C 0.66168 0.65078 0.0591 0.0
C2169 C 0.6277 0.63475 0.08431 0.0
C2170 C 0.64095 0.62828 0.08451 0.0
C2171 C 0.65169 0.63349 0.07605 0.0
C2172 C 0.64385 0.61621 0.09368 0.0
C2173 C 0.61579 0.62931 0.09306 0.0
C2174 C 0.64533 0.61817 0.10812 0.0
C2175 C 0.64786 0.60677 0.11685 0.0
C2176 C 0.64887 0.59315 0.11131 0.0
C2177 C 0.64748 0.5913 0.09677 0.0
C2178 C 0.64506 0.60274 0.08803 0.0
H2179 H 0.60565 0.63419 0.0902 0.0
H2180 H 0.61483 0.6178 0.09189 0.0
H2181 H 0.61797 0.6316 0.10424 0.0
H2182 H 0.64455 0.62853 0.11263 0.0
H2183 H 0.64916 0.60869 0.12793 0.0
H2184 H 0.67997 0.41978 0.17378 0.0
H2185 H 0.68445 0.40945 0.15076 0.0
H2186 H 0.65983 0.37335 0.1619 0.0
H2187 H 0.65489 0.38376 0.18462 0.0
H2188 H 0.69752 0.3841 0.14429 0.0
H2189 H 0.64328 0.38574 0.12475 0.0
H2190 H 0.64848 0.39421 0.14068 0.0
H2191 H 0.64426 0.37582 0.14055 0.0
C2192 C 0.67534 0.40974 0.17124 0.0
C2193 C 0.66709 0.40259 0.18105 0.0
C2194 C 0.67802 0.4038 0.15815 0.0
C2195 C 0.67242 0.39067 0.15463 0.0
C2196 C 0.66414 0.38355 0.16436 0.0
H2197 H 0.67492 0.33492 0.08299 0.0
H2198 H 0.67287 0.34478 0.1066 0.0
C2199 C 0.66143 0.38948 0.17739 0.0
C2200 C 0.67524 0.38425 0.14084 0.0
H2201 H 0.65894 0.37055 0.11211 0.0
C2202 C 0.68912 0.38128 0.13715 0.0
C2203 C 0.66426 0.38058 0.13159 0.0
C2204 C 0.64926 0.38437 0.13455 0.0
C2205 C 0.69226 0.37444 0.12455 0.0
C2206 C 0.68124 0.37054 0.11544 0.0
C2207 C 0.66737 0.37347 0.11916 0.0
C2208 C 0.68383 0.36396 0.10168 0.0
C2209 C 0.70729 0.37116 0.1212 0.0
C2210 C 0.69074 0.37146 0.09116 0.0
C2211 C 0.69159 0.366 0.07764 0.0
C2212 C 0.68591 0.35281 0.07458 0.0
C2213 C 0.67952 0.34506 0.08522 0.0
C2214 C 0.67833 0.35067 0.09865 0.0
H2215 H 0.71408 0.37173 0.13063 0.0
H2216 H 0.7082 0.36057 0.1165 0.0
H2217 H 0.71124 0.37885 0.1135 0.0
H2218 H 0.69488 0.38181 0.09324 0.0
H2219 H 0.69644 0.37218 0.06952 0.0
H2220 H 0.95149 0.33734 0.80745 0.0
H2221 H 0.95094 0.33398 0.83281 0.0
H2222 H 0.945 0.3782 0.83878 0.0
H2223 H 0.94592 0.38177 0.81355 0.0
H2224 H 0.96809 0.34849 0.85533 0.0
H2225 H 0.91076 0.35775 0.85807 0.0
H2226 H 0.91943 0.35288 0.84206 0.0
H2227 H 0.92081 0.37045 0.84855 0.0
C2228 C 0.95031 0.34639 0.81415 0.0
C2229 C 0.9486 0.35982 0.80842 0.0
C2230 C 0.94992 0.34443 0.82863 0.0
C2231 C 0.94773 0.35582 0.83761 0.0
C2232 C 0.94649 0.36926 0.83199 0.0
H2233 H 0.9322 0.36696 0.9259 0.0
H2234 H 0.93608 0.36992 0.90086 0.0
C2235 C 0.94695 0.37125 0.81755 0.0
C2236 C 0.94635 0.35369 0.85285 0.0
H2237 H 0.92285 0.35554 0.87951 0.0
C2238 C 0.95821 0.34995 0.86064 0.0
C2239 C 0.93344 0.35566 0.8597 0.0
C2240 C 0.92032 0.35931 0.85171 0.0
C2241 C 0.95754 0.34842 0.87522 0.0
C2242 C 0.94462 0.3504 0.88209 0.0
C2243 C 0.93276 0.35406 0.87424 0.0
C2244 C 0.9431 0.34873 0.89742 0.0
C2245 C 0.97076 0.34507 0.88319 0.0
C2246 C 0.94577 0.33583 0.9038 0.0
C2247 C 0.94368 0.33413 0.91814 0.0
C2248 C 0.93878 0.34528 0.92638 0.0
C2249 C 0.93621 0.35822 0.91994 0.0
C2250 C 0.93831 0.35991 0.9056 0.0
H2251 H 0.98026 0.34757 0.87703 0.0
H2252 H 0.97124 0.35093 0.89321 0.0
H2253 H 0.97092 0.33374 0.88559 0.0
H2254 H 0.94921 0.32698 0.89765 0.0
H2255 H 0.94583 0.32405 0.92277 0.0
H2256 H 0.28384 0.62274 0.33152 0.0
H2257 H 0.27809 0.63401 0.35374 0.0
H2258 H 0.32199 0.63656 0.36406 0.0
H2259 H 0.32783 0.6252 0.34196 0.0
H2260 H 0.2838 0.62766 0.38142 0.0
H2261 H 0.30802 0.67762 0.3658 0.0
H2262 H 0.3035 0.66394 0.3535 0.0
H2263 H 0.31956 0.66308 0.36329 0.0
C2264 C 0.29225 0.62543 0.33868 0.0
C2265 C 0.30631 0.62324 0.335 0.0
C2266 C 0.28894 0.63197 0.35128 0.0
C2267 C 0.29965 0.63644 0.36029 0.0
C2268 C 0.31362 0.63351 0.35703 0.0
H2269 H 0.31745 0.66804 0.45737 0.0
H2270 H 0.3121 0.66007 0.42725 0.0
C2271 C 0.31694 0.62698 0.34446 0.0
C2272 C 0.29637 0.64431 0.37309 0.0
H2273 H 0.30401 0.6746 0.39019 0.0
C2274 C 0.28853 0.63779 0.38348 0.0
C2275 C 0.3013 0.65807 0.37525 0.0
C2276 C 0.3084 0.66619 0.3638 0.0
C2277 C 0.28712 0.64393 0.39669 0.0
C2278 C 0.2947 0.65641 0.39982 0.0
C2279 C 0.29998 0.66415 0.38851 0.0
C2280 C 0.29712 0.66154 0.41485 0.0
C2281 C 0.27741 0.63678 0.40677 0.0
C2282 C 0.28212 0.6692 0.4212 0.0
C2283 C 0.28126 0.67521 0.43786 0.0
C2284 C 0.29412 0.67437 0.45033 0.0
C2285 C 0.31028 0.66763 0.4486 0.0
C2286 C 0.316 0.66069 0.4336 0.0
H2287 H 0.26761 0.63363 0.4013 0.0
H2288 H 0.28227 0.62701 0.41061 0.0
H2289 H 0.2745 0.64351 0.41562 0.0
H2290 H 0.27308 0.67029 0.41446 0.0
H2291 H 0.27159 0.68019 0.44086 0.0
H2292 H 0.05832 0.6289 0.69811 0.0
H2293 H 0.07335 0.6369 0.67913 0.0
H2294 H 0.04036 0.62834 0.64943 0.0
H2295 H 0.02504 0.62101 0.66836 0.0
H2296 H 0.08244 0.62123 0.65762 0.0
H2297 H 0.05302 0.66626 0.63658 0.0
H2298 H 0.04904 0.65854 0.65327 0.0
H2299 H 0.0426 0.65067 0.63739 0.0
C2300 C 0.05411 0.62909 0.68759 0.0
C2301 C 0.04044 0.62428 0.6848 0.0
C2302 C 0.06277 0.63355 0.67673 0.0
C2303 C 0.05796 0.63337 0.66284 0.0
C2304 C 0.04424 0.62887 0.66006 0.0
H2305 H 0.09519 0.64238 0.58096 0.0
H2306 H 0.07975 0.63852 0.60094 0.0
C2307 C 0.03555 0.62448 0.67091 0.0
C2308 C 0.06761 0.63684 0.6512 0.0
H2309 H 0.07117 0.65712 0.6221 0.0
C2310 C 0.08004 0.62919 0.64994 0.0
C2311 C 0.06445 0.64717 0.64112 0.0
C2312 C 0.05162 0.65622 0.64221 0.0
C2313 C 0.08922 0.63131 0.63873 0.0
C2314 C 0.08598 0.64152 0.62857 0.0
C2315 C 0.07361 0.64926 0.62987 0.0
C2316 C 0.09527 0.64424 0.61648 0.0
C2317 C 0.10211 0.62232 0.63764 0.0
C2318 C 0.10903 0.64896 0.61857 0.0
C2319 C 0.11786 0.65118 0.60718 0.0
C2320 C 0.11308 0.64882 0.59345 0.0
C2321 C 0.09918 0.64438 0.59138 0.0
C2322 C 0.09036 0.64213 0.60279 0.0
H2323 H 0.10125 0.61276 0.64414 0.0
H2324 H 0.10403 0.61915 0.62665 0.0
H2325 H 0.11132 0.62837 0.64138 0.0
H2326 H 0.11294 0.65097 0.62902 0.0
H2327 H 0.12842 0.65488 0.60914 0.0
H2328 H 0.8133 0.3461 0.624 0.0
H2329 H 0.8359 0.34119 0.63483 0.0
H2330 H 0.85447 0.33662 0.59414 0.0
H2331 H 0.83175 0.34139 0.58314 0.0
H2332 H 0.85278 0.31699 0.63208 0.0
H2333 H 0.88021 0.36499 0.61415 0.0
H2334 H 0.86145 0.36314 0.61331 0.0
H2335 H 0.87228 0.35457 0.60064 0.0
C2336 C 0.82214 0.34394 0.61731 0.0
C2337 C 0.82064 0.34406 0.60266 0.0
C2338 C 0.83508 0.34118 0.62354 0.0
C2339 C 0.8469 0.33857 0.61533 0.0
C2340 C 0.84553 0.33877 0.6007 0.0
H2341 H 0.93148 0.31334 0.63785 0.0
H2342 H 0.90824 0.31483 0.62719 0.0
C2343 C 0.83254 0.34153 0.59443 0.0
C2344 C 0.86058 0.33562 0.62218 0.0
H2345 H 0.89346 0.34877 0.6272 0.0
C2346 C 0.86175 0.32385 0.63086 0.0
C2347 C 0.87222 0.34467 0.62073 0.0
C2348 C 0.87153 0.35762 0.6118 0.0
C2349 C 0.8743 0.32081 0.63794 0.0
C2350 C 0.8859 0.32983 0.63645 0.0
C2351 C 0.88466 0.34171 0.62801 0.0
C2352 C 0.89937 0.32728 0.64377 0.0
C2353 C 0.87515 0.3081 0.64714 0.0
C2354 C 0.90184 0.33309 0.65699 0.0
C2355 C 0.91499 0.33189 0.66333 0.0
C2356 C 0.92617 0.32534 0.65637 0.0
C2357 C 0.92338 0.31892 0.64337 0.0
C2358 C 0.91006 0.31974 0.63724 0.0
H2359 H 0.86525 0.30197 0.64711 0.0
H2360 H 0.8838 0.30126 0.64358 0.0
H2361 H 0.87758 0.31137 0.65803 0.0
H2362 H 0.89367 0.33882 0.66229 0.0
H2363 H 0.9165 0.33668 0.67346 0.0
H2364 H 0.65596 0.6947 0.38963 0.0
H2365 H 0.63416 0.7016 0.37778 0.0
H2366 H 0.65802 0.72579 0.34824 0.0
H2367 H 0.67972 0.71899 0.36014 0.0
H2368 H 0.63197 0.73825 0.35592 0.0
H2369 H 0.6274 0.6828 0.33914 0.0
H2370 H 0.62986 0.68544 0.35761 0.0
H2371 H 0.64342 0.69037 0.34576 0.0
C2372 C 0.65642 0.70168 0.38076 0.0
C2373 C 0.66933 0.7062 0.37556 0.0
C2374 C 0.64406 0.70561 0.37403 0.0
C2375 C 0.64457 0.71401 0.36203 0.0
C2376 C 0.65745 0.71927 0.35745 0.0
H2377 H 0.57682 0.70332 0.30366 0.0
H2378 H 0.6006 0.70855 0.31151 0.0
C2379 C 0.66978 0.71533 0.36416 0.0
C2380 C 0.63199 0.7159 0.35328 0.0
H2381 H 0.60847 0.69755 0.33372 0.0
C2382 C 0.62675 0.72937 0.35108 0.0
C2383 C 0.62572 0.70441 0.34639 0.0
C2384 C 0.63191 0.68994 0.34717 0.0
C2385 C 0.61493 0.73156 0.34261 0.0
C2386 C 0.6079 0.71991 0.33665 0.0
C2387 C 0.61362 0.70652 0.33842 0.0
C2388 C 0.59418 0.72092 0.32934 0.0
C2389 C 0.61052 0.74638 0.33991 0.0
C2390 C 0.58267 0.72713 0.33598 0.0
C2391 C 0.56906 0.72461 0.33107 0.0
C2392 C 0.5668 0.7154 0.31989 0.0
C2393 C 0.57834 0.71046 0.31234 0.0
C2394 C 0.59191 0.71333 0.31693 0.0
H2395 H 0.61982 0.75296 0.33761 0.0
H2396 H 0.60304 0.74728 0.33109 0.0
H2397 H 0.60579 0.75063 0.34955 0.0
H2398 H 0.58408 0.73285 0.34565 0.0
H2399 H 0.56025 0.72864 0.33684 0.0
H2400 H 0.33568 0.9795 0.38227 0.0
H2401 H 0.35526 0.96482 0.37509 0.0
H2402 H 0.3273 0.92969 0.37024 0.0
H2403 H 0.30769 0.94413 0.37784 0.0
H2404 H 0.36229 0.93865 0.39032 0.0
H2405 H 0.35194 0.93092 0.33358 0.0
H2406 H 0.34513 0.94564 0.34324 0.0
H2407 H 0.33734 0.92869 0.34518 0.0
C2408 C 0.33365 0.96866 0.37964 0.0
C2409 C 0.32009 0.96298 0.38077 0.0
C2410 C 0.34485 0.96033 0.37546 0.0
C2411 C 0.34269 0.94621 0.37211 0.0
C2412 C 0.32913 0.94062 0.37263 0.0
H2413 H 0.39637 0.87679 0.35071 0.0
H2414 H 0.37679 0.89242 0.35552 0.0
C2415 C 0.31792 0.94892 0.37692 0.0
C2416 C 0.35479 0.93709 0.36915 0.0
H2417 H 0.37028 0.91775 0.34356 0.0
C2418 C 0.36411 0.93413 0.38009 0.0
C2419 C 0.35701 0.93115 0.35583 0.0
C2420 C 0.34741 0.93428 0.34371 0.0
C2421 C 0.37552 0.92516 0.37812 0.0
C2422 C 0.37784 0.91928 0.36475 0.0
C2423 C 0.3685 0.92228 0.3538 0.0
C2424 C 0.3898 0.90987 0.36194 0.0
C2425 C 0.38474 0.92174 0.39047 0.0
C2426 C 0.40362 0.91452 0.36386 0.0
C2427 C 0.41484 0.9056 0.36113 0.0
C2428 C 0.41244 0.89191 0.35628 0.0
C2429 C 0.39857 0.88732 0.35429 0.0
C2430 C 0.38737 0.89622 0.35707 0.0
H2431 H 0.37942 0.92394 0.40054 0.0
H2432 H 0.3879 0.91059 0.39031 0.0
H2433 H 0.39434 0.92827 0.39007 0.0
H2434 H 0.40574 0.92511 0.36731 0.0
H2435 H 0.4254 0.90951 0.36256 0.0
H2436 H 0.19556 0.07908 0.64979 0.0
H2437 H 0.1701 0.07935 0.65139 0.0
H2438 H 0.1695 0.03434 0.65348 0.0
H2439 H 0.19515 0.03402 0.65205 0.0
H2440 H 0.15152 0.06819 0.63312 0.0
H2441 H 0.14393 0.04464 0.68551 0.0
H2442 H 0.16077 0.05068 0.67954 0.0
H2443 H 0.15391 0.03417 0.6736 0.0
C2444 C 0.19002 0.06922 0.65068 0.0
C2445 C 0.19737 0.05652 0.65076 0.0
C2446 C 0.17546 0.0694 0.65161 0.0
C2447 C 0.16785 0.05689 0.65266 0.0
C2448 C 0.17514 0.04415 0.65296 0.0
H2449 H 0.07632 0.04616 0.653 0.0
H2450 H 0.10153 0.04151 0.65198 0.0
C2451 C 0.18979 0.04397 0.65213 0.0
C2452 C 0.15229 0.05735 0.65279 0.0
H2453 H 0.1235 0.04956 0.67241 0.0
C2454 C 0.14541 0.06407 0.6417 0.0
C2455 C 0.14429 0.05193 0.66396 0.0
C2456 C 0.15107 0.04505 0.6764 0.0
C2457 C 0.13083 0.06571 0.64157 0.0
C2458 C 0.12288 0.06056 0.65287 0.0
C2459 C 0.12965 0.05348 0.66376 0.0
C2460 C 0.10765 0.06321 0.65388 0.0
C2461 C 0.12402 0.073 0.62937 0.0
C2462 C 0.10279 0.07691 0.65557 0.0
C2463 C 0.08847 0.07959 0.65627 0.0
C2464 C 0.07864 0.06863 0.65527 0.0
C2465 C 0.08357 0.05485 0.65386 0.0
C2466 C 0.09796 0.05217 0.65322 0.0
H2467 H 0.13096 0.07324 0.6201 0.0
H2468 H 0.11403 0.0678 0.62643 0.0
H2469 H 0.12166 0.08395 0.63237 0.0
H2470 H 0.1101 0.08555 0.65638 0.0
H2471 H 0.0851 0.09029 0.65773 0.0
H2472 H 0.62109 0.81079 0.33783 0.0
H2473 H 0.63122 0.83376 0.33293 0.0
H2474 H 0.59109 0.85288 0.34003 0.0
H2475 H 0.58102 0.82993 0.34543 0.0
H2476 H 0.62584 0.85328 0.31345 0.0
H2477 H 0.61523 0.87526 0.36594 0.0
H2478 H 0.61278 0.85703 0.362 0.0
H2479 H 0.59972 0.8696 0.35702 0.0
C2480 C 0.61442 0.8199 0.33833 0.0
C2481 C 0.60028 0.81858 0.34211 0.0
C2482 C 0.62022 0.83302 0.33552 0.0
C2483 C 0.612 0.84511 0.33634 0.0
C2484 C 0.59775 0.84377 0.33972 0.0
H2485 H 0.63014 0.9335 0.33077 0.0
H2486 H 0.6192 0.91069 0.33098 0.0
C2487 C 0.59199 0.83065 0.34275 0.0
C2488 C 0.61842 0.85908 0.33386 0.0
H2489 H 0.62384 0.89098 0.34887 0.0
C2490 C 0.62545 0.86153 0.32123 0.0
C2491 C 0.61792 0.86986 0.344 0.0
C2492 C 0.61113 0.86779 0.35804 0.0
C2493 C 0.6318 0.87451 0.31838 0.0
C2494 C 0.63134 0.88527 0.32856 0.0
C2495 C 0.62424 0.88278 0.34112 0.0
C2496 C 0.63804 0.89923 0.32656 0.0
C2497 C 0.6386 0.87664 0.30436 0.0
C2498 C 0.65231 0.90054 0.32348 0.0
C2499 C 0.65861 0.91375 0.32254 0.0
C2500 C 0.65091 0.92605 0.32522 0.0
C2501 C 0.63656 0.92457 0.32827 0.0
C2502 C 0.63023 0.9114 0.32872 0.0
H2503 H 0.63428 0.86933 0.29638 0.0
H2504 H 0.63719 0.88751 0.3006 0.0
H2505 H 0.64997 0.87456 0.30531 0.0
H2506 H 0.65871 0.89134 0.32204 0.0
H2507 H 0.66956 0.91418 0.31984 0.0
H2508 H 0.63887 0.19252 0.03533 0.0
H2509 H 0.6404 0.16701 0.03625 0.0
H2510 H 0.65854 0.16966 0.07744 0.0
H2511 H 0.65763 0.1951 0.07648 0.0
H2512 H 0.66617 0.14984 0.04208 0.0
H2513 H 0.62322 0.14296 0.08039 0.0
H2514 H 0.62512 0.15854 0.06995 0.0
H2515 H 0.63619 0.1559 0.0849 0.0
C2516 C 0.64334 0.18773 0.04454 0.0
C2517 C 0.64805 0.19598 0.05587 0.0
C2518 C 0.64412 0.17313 0.04506 0.0
C2519 C 0.64944 0.16649 0.05696 0.0
C2520 C 0.65421 0.17461 0.06823 0.0
H2521 H 0.66275 0.08422 0.08884 0.0
H2522 H 0.66082 0.10918 0.08416 0.0
C2523 C 0.65358 0.18918 0.06768 0.0
C2524 C 0.6501 0.15104 0.05769 0.0
H2525 H 0.63712 0.12309 0.07554 0.0
C2526 C 0.65974 0.14393 0.04928 0.0
C2527 C 0.64169 0.14343 0.0671 0.0
C2528 C 0.63088 0.15054 0.07605 0.0
C2529 C 0.66158 0.1294 0.05043 0.0
C2530 C 0.65333 0.12181 0.06005 0.0
C2531 C 0.64346 0.12892 0.06819 0.0
C2532 C 0.65519 0.10659 0.06239 0.0
C2533 C 0.67268 0.12239 0.04176 0.0
C2534 C 0.65274 0.0968 0.05167 0.0
C2535 C 0.65383 0.08245 0.05433 0.0
C2536 C 0.65721 0.07766 0.0678 0.0
C2537 C 0.65988 0.08754 0.07841 0.0
C2538 C 0.65884 0.10182 0.07574 0.0
H2539 H 0.68018 0.13007 0.03732 0.0
H2540 H 0.67861 0.1147 0.04809 0.0
H2541 H 0.66763 0.1167 0.03297 0.0
H2542 H 0.64967 0.10024 0.04135 0.0
H2543 H 0.65161 0.0751 0.04598 0.0
H2544 H 0.36476 0.66242 0.68934 0.0
H2545 H 0.35192 0.64378 0.70119 0.0
H2546 H 0.3654 0.65988 0.74117 0.0
H2547 H 0.37804 0.67883 0.72941 0.0
H2548 H 0.3696 0.62843 0.73242 0.0
H2549 H 0.31561 0.64888 0.72898 0.0
H2550 H 0.32657 0.65242 0.71414 0.0
H2551 H 0.3309 0.65998 0.7308 0.0
C2552 C 0.36489 0.66207 0.70065 0.0
C2553 C 0.37233 0.67208 0.70844 0.0
C2554 C 0.35752 0.6515 0.70739 0.0
C2555 C 0.35745 0.65079 0.72201 0.0
C2556 C 0.36516 0.66049 0.72987 0.0
H2557 H 0.32841 0.56527 0.73929 0.0
H2558 H 0.334 0.58886 0.74838 0.0
C2559 C 0.3725 0.67115 0.72313 0.0
C2560 C 0.35024 0.63901 0.7287 0.0
H2561 H 0.318 0.62387 0.72949 0.0
C2562 C 0.35828 0.62746 0.73231 0.0
C2563 C 0.33554 0.63799 0.72871 0.0
C2564 C 0.32658 0.65051 0.72557 0.0
C2565 C 0.35213 0.61429 0.73399 0.0
C2566 C 0.33738 0.61277 0.73231 0.0
C2567 C 0.32925 0.62487 0.73061 0.0
C2568 C 0.33073 0.59915 0.72861 0.0
C2569 C 0.3621 0.60236 0.73587 0.0
C2570 C 0.32529 0.59749 0.71507 0.0
C2571 C 0.32163 0.58429 0.71006 0.0
C2572 C 0.32354 0.57237 0.71838 0.0
C2573 C 0.32725 0.57422 0.73251 0.0
C2574 C 0.33062 0.58761 0.73765 0.0
H2575 H 0.36922 0.60461 0.7448 0.0
H2576 H 0.35688 0.59233 0.73765 0.0
H2577 H 0.36883 0.60145 0.72648 0.0
H2578 H 0.32479 0.60628 0.70799 0.0
H2579 H 0.31823 0.58333 0.69929 0.0
H2580 H 0.37207 0.3302 0.97885 0.0
H2581 H 0.36514 0.35025 0.96459 0.0
H2582 H 0.37972 0.32908 0.92764 0.0
H2583 H 0.38679 0.3091 0.94176 0.0
H2584 H 0.38345 0.36623 0.94795 0.0
H2585 H 0.3408 0.34284 0.91599 0.0
H2586 H 0.34714 0.33489 0.93187 0.0
H2587 H 0.35676 0.33302 0.91589 0.0
C2588 C 0.37371 0.32978 0.96767 0.0
C2589 C 0.37996 0.31802 0.96145 0.0
C2590 C 0.3697 0.34122 0.95955 0.0
C2591 C 0.37177 0.34108 0.94505 0.0
C2592 C 0.37775 0.32928 0.93877 0.0
H2593 H 0.36216 0.39765 0.8758 0.0
H2594 H 0.3665 0.37799 0.89154 0.0
C2595 C 0.38176 0.31785 0.94687 0.0
C2596 C 0.36857 0.35362 0.93658 0.0
H2597 H 0.34953 0.36491 0.90863 0.0
C2598 C 0.37595 0.36602 0.93942 0.0
C2599 C 0.35884 0.35324 0.92543 0.0
C2600 C 0.35033 0.34033 0.92216 0.0
C2601 C 0.37422 0.37795 0.9311 0.0
C2602 C 0.36454 0.37757 0.91986 0.0
C2603 C 0.35698 0.36521 0.91721 0.0
C2604 C 0.36232 0.3897 0.91046 0.0
C2605 C 0.3832 0.39062 0.93415 0.0
C2606 C 0.3585 0.40284 0.91582 0.0
C2607 C 0.35634 0.41413 0.90685 0.0
C2608 C 0.35757 0.41237 0.89235 0.0
C2609 C 0.36116 0.39922 0.88696 0.0
C2610 C 0.36361 0.38801 0.89594 0.0
H2611 H 0.39275 0.38783 0.94016 0.0
H2612 H 0.38644 0.39591 0.92437 0.0
H2613 H 0.37716 0.39814 0.94054 0.0
H2614 H 0.35701 0.40432 0.92693 0.0
H2615 H 0.35337 0.42415 0.91119 0.0
H2616 H 0.35781 0.58536 0.82829 0.0
H2617 H 0.35185 0.59602 0.8508 0.0
H2618 H 0.32837 0.62793 0.82962 0.0
H2619 H 0.33437 0.61752 0.80712 0.0
H2620 H 0.34409 0.63936 0.84909 0.0
H2621 H 0.3165 0.5945 0.87258 0.0
H2622 H 0.33413 0.59006 0.86825 0.0
H2623 H 0.3219 0.59444 0.85457 0.0
C2624 C 0.35124 0.59455 0.82842 0.0
C2625 C 0.3466 0.60057 0.81583 0.0
C2626 C 0.34781 0.6006 0.84132 0.0
C2627 C 0.33947 0.61266 0.842 0.0
C2628 C 0.33479 0.61863 0.82945 0.0
H2629 H 0.31544 0.66742 0.91266 0.0
H2630 H 0.31698 0.65702 0.88936 0.0
C2631 C 0.33829 0.61267 0.81655 0.0
C2632 C 0.33612 0.61939 0.8557 0.0
H2633 H 0.323 0.613 0.88822 0.0
C2634 C 0.33936 0.63361 0.85761 0.0
C2635 C 0.32986 0.61198 0.86685 0.0
C2636 C 0.32527 0.59694 0.8654 0.0
C2637 C 0.33698 0.6405 0.87039 0.0
C2638 C 0.33106 0.63298 0.88168 0.0
C2639 C 0.3276 0.61881 0.87967 0.0
C2640 C 0.32921 0.6392 0.89591 0.0
C2641 C 0.34118 0.65568 0.87157 0.0
C2642 C 0.33492 0.63241 0.90756 0.0
C2643 C 0.3343 0.63841 0.92087 0.0
C2644 C 0.32747 0.65124 0.92304 0.0
C2645 C 0.32112 0.65773 0.91143 0.0
C2646 C 0.32195 0.65177 0.89805 0.0
H2647 H 0.34993 0.65822 0.86441 0.0
H2648 H 0.33213 0.66226 0.86856 0.0
H2649 H 0.34437 0.65861 0.88231 0.0
H2650 H 0.34028 0.62259 0.90622 0.0
H2651 H 0.33953 0.63312 0.92937 0.0
H2652 H 0.0474 0.62412 0.18982 0.0
H2653 H 0.04876 0.62793 0.16461 0.0
H2654 H 0.06644 0.66884 0.17183 0.0
H2655 H 0.06552 0.66497 0.19706 0.0
H2656 H 0.03697 0.64922 0.1477 0.0
H2657 H 0.09506 0.64988 0.14608 0.0
H2658 H 0.08546 0.64359 0.16099 0.0
H2659 H 0.0874 0.66204 0.15813 0.0
C2660 C 0.05166 0.6339 0.18606 0.0
C2661 C 0.05647 0.64419 0.1955 0.0
C2662 C 0.05233 0.6361 0.17164 0.0
C2663 C 0.05789 0.64857 0.16634 0.0
C2664 C 0.06232 0.65903 0.17569 0.0
H2665 H 0.07907 0.67586 0.08253 0.0
H2666 H 0.07454 0.67437 0.10767 0.0
C2667 C 0.06165 0.65686 0.19013 0.0
C2668 C 0.05922 0.65052 0.15101 0.0
H2669 H 0.08318 0.6549 0.12505 0.0
C2670 C 0.04707 0.65047 0.14272 0.0
C2671 C 0.0724 0.65214 0.14455 0.0
C2672 C 0.08585 0.65181 0.15285 0.0
C2673 C 0.04771 0.65222 0.12815 0.0
C2674 C 0.06092 0.65373 0.12166 0.0
C2675 C 0.07306 0.65379 0.13 0.0
C2676 C 0.0625 0.65519 0.10627 0.0
C2677 C 0.03422 0.65277 0.11995 0.0
C2678 C 0.05716 0.64499 0.09704 0.0
C2679 C 0.05954 0.64599 0.08265 0.0
C2680 C 0.06752 0.65707 0.07731 0.0
C2681 C 0.07279 0.6673 0.08647 0.0
C2682 C 0.07025 0.66641 0.1008 0.0
H2683 H 0.02529 0.65584 0.12666 0.0
H2684 H 0.03496 0.66025 0.11114 0.0
H2685 H 0.0319 0.64224 0.11562 0.0
H2686 H 0.05152 0.63601 0.10099 0.0
H2687 H 0.0556 0.63787 0.07575 0.0
H2688 H 0.68396 0.3736 0.6607 0.0
H2689 H 0.69422 0.3605 0.64128 0.0
H2690 H 0.7356 0.36929 0.65718 0.0
H2691 H 0.72545 0.38231 0.67673 0.0
H2692 H 0.72991 0.37219 0.62576 0.0
H2693 H 0.71597 0.32153 0.64977 0.0
H2694 H 0.70249 0.33459 0.6506 0.0
H2695 H 0.7187 0.33742 0.65973 0.0
C2696 C 0.69524 0.37283 0.65999 0.0
C2697 C 0.7039 0.37888 0.67024 0.0
C2698 C 0.70107 0.36536 0.64894 0.0
C2699 C 0.71561 0.36379 0.64804 0.0
C2700 C 0.72435 0.37038 0.65782 0.0
H2701 H 0.73376 0.32841 0.56546 0.0
H2702 H 0.74276 0.33557 0.58844 0.0
C2703 C 0.71853 0.37787 0.66888 0.0
C2704 C 0.72145 0.35481 0.63703 0.0
H2705 H 0.72005 0.32132 0.62523 0.0
C2706 C 0.72778 0.36105 0.62552 0.0
C2707 C 0.71963 0.34021 0.63734 0.0
C2708 C 0.71396 0.33296 0.65008 0.0
C2709 C 0.73065 0.35326 0.61343 0.0
C2710 C 0.72667 0.33892 0.61281 0.0
C2711 C 0.72239 0.33242 0.62527 0.0
C2712 C 0.72338 0.33152 0.59937 0.0
C2713 C 0.73843 0.36048 0.60193 0.0
C2714 C 0.71026 0.32496 0.5981 0.0
C2715 C 0.70565 0.31967 0.58537 0.0
C2716 C 0.71352 0.32163 0.57316 0.0
C2717 C 0.72718 0.32705 0.57453 0.0
C2718 C 0.73222 0.33154 0.58764 0.0
H2719 H 0.74932 0.35668 0.6024 0.0
H2720 H 0.73402 0.35814 0.59151 0.0
H2721 H 0.73874 0.37201 0.60331 0.0
H2722 H 0.70313 0.32442 0.60684 0.0
H2723 H 0.69548 0.31468 0.58507 0.0
H2724 H 0.94397 0.39434 0.31155 0.0
H2725 H 0.92984 0.38733 0.33153 0.0
H2726 H 0.96289 0.36002 0.34536 0.0
H2727 H 0.97729 0.3674 0.32553 0.0
H2728 H 0.91944 0.363 0.33966 0.0
H2729 H 0.95654 0.38242 0.38017 0.0
H2730 H 0.95871 0.38626 0.36188 0.0
H2731 H 0.96386 0.36955 0.36871 0.0
C2732 C 0.94818 0.38675 0.31878 0.0
C2733 C 0.96173 0.38143 0.31702 0.0
C2734 C 0.94012 0.38279 0.33023 0.0
C2735 C 0.9454 0.37335 0.34011 0.0
C2736 C 0.95875 0.36762 0.3381 0.0
H2737 H 0.90089 0.33658 0.41061 0.0
H2738 H 0.91675 0.34061 0.39095 0.0
C2739 C 0.96693 0.37176 0.32674 0.0
C2740 C 0.93682 0.36968 0.35248 0.0
H2741 H 0.93633 0.37058 0.38819 0.0
C2742 C 0.92317 0.36463 0.35026 0.0
C2743 C 0.94166 0.3719 0.36634 0.0
C2744 C 0.95594 0.37795 0.36946 0.0
C2745 C 0.91421 0.36183 0.36148 0.0
C2746 C 0.91907 0.36405 0.37524 0.0
C2747 C 0.93273 0.36887 0.37755 0.0
C2748 C 0.90985 0.36178 0.38735 0.0
C2749 C 0.89954 0.3567 0.35865 0.0
C2750 C 0.90088 0.37243 0.3918 0.0
C2751 C 0.89181 0.37017 0.40299 0.0
C2752 C 0.89156 0.3572 0.40984 0.0
C2753 C 0.90073 0.34662 0.40542 0.0
C2754 C 0.90983 0.34891 0.39427 0.0
H2755 H 0.89758 0.35477 0.34736 0.0
H2756 H 0.89758 0.34688 0.36448 0.0
H2757 H 0.89193 0.36457 0.36244 0.0
H2758 H 0.90078 0.38242 0.38652 0.0
H2759 H 0.88479 0.37847 0.40608 0.0
H2760 H 0.2696 0.58377 0.5037 0.0
H2761 H 0.27485 0.5696 0.52426 0.0
H2762 H 0.25371 0.59955 0.5504 0.0
H2763 H 0.24831 0.61371 0.52985 0.0
H2764 H 0.2897 0.57569 0.54775 0.0
H2765 H 0.23478 0.56342 0.56167 0.0
H2766 H 0.2395 0.57109 0.54515 0.0
H2767 H 0.23826 0.58182 0.56056 0.0
C2768 C 0.26614 0.58738 0.51384 0.0
C2769 C 0.25846 0.59982 0.51514 0.0
C2770 C 0.26909 0.57924 0.52557 0.0
C2771 C 0.26441 0.58335 0.53883 0.0
C2772 C 0.25706 0.59595 0.54022 0.0
H2773 H 0.28038 0.55648 0.6228 0.0
H2774 H 0.27275 0.56819 0.60138 0.0
C2775 C 0.25403 0.60406 0.52848 0.0
C2776 C 0.26748 0.57459 0.55121 0.0
H2777 H 0.25224 0.55744 0.5785 0.0
C2778 C 0.2815 0.57159 0.55439 0.0
C2779 C 0.25676 0.5692 0.55985 0.0
C2780 C 0.24148 0.57142 0.55658 0.0
C2781 C 0.2851 0.56366 0.56616 0.0
C2782 C 0.2744 0.55853 0.57491 0.0
C2783 C 0.26039 0.56139 0.57171 0.0
C2784 C 0.27771 0.55081 0.58784 0.0
C2785 C 0.30033 0.5611 0.56943 0.0
C2786 C 0.28266 0.53702 0.58728 0.0
C2787 C 0.28692 0.53026 0.59952 0.0
C2788 C 0.28642 0.53728 0.61241 0.0
C2789 C 0.28098 0.5509 0.61295 0.0
C2790 C 0.27659 0.55757 0.60077 0.0
H2791 H 0.3074 0.56715 0.56252 0.0
H2792 H 0.30265 0.56394 0.58046 0.0
H2793 H 0.30264 0.54982 0.56811 0.0
H2794 H 0.28353 0.53164 0.57735 0.0
H2795 H 0.29113 0.51979 0.59883 0.0
H2796 H 0.29694 0.37921 0.67763 0.0
H2797 H 0.30889 0.39392 0.69507 0.0
H2798 H 0.2733 0.39019 0.72234 0.0
H2799 H 0.2616 0.37513 0.70536 0.0
H2800 H 0.30094 0.41935 0.70653 0.0
H2801 H 0.30531 0.37947 0.74792 0.0
H2802 H 0.30113 0.37503 0.73004 0.0
H2803 H 0.28767 0.381 0.7417 0.0
C2804 C 0.29175 0.38138 0.68743 0.0
C2805 C 0.27829 0.37599 0.69008 0.0
C2806 C 0.29855 0.38986 0.69733 0.0
C2807 C 0.29207 0.39298 0.71009 0.0
C2808 C 0.27863 0.3877 0.71269 0.0
H2809 H 0.29735 0.44396 0.78214 0.0
H2810 H 0.29133 0.43039 0.7613 0.0
C2811 C 0.27186 0.37924 0.70286 0.0
C2812 C 0.29905 0.402 0.72069 0.0
H2813 H 0.30715 0.40345 0.75542 0.0
C2814 C 0.30254 0.41583 0.71716 0.0
C2815 C 0.30129 0.39734 0.73452 0.0
C2816 C 0.2988 0.38235 0.73874 0.0
C2817 C 0.30739 0.42533 0.72735 0.0
C2818 C 0.30873 0.42086 0.74133 0.0
C2819 C 0.3059 0.40689 0.7447 0.0
C2820 C 0.31227 0.43059 0.75288 0.0
C2821 C 0.31049 0.44023 0.72329 0.0
C2822 C 0.32601 0.43541 0.75489 0.0
C2823 C 0.32954 0.44308 0.7669 0.0
C2824 C 0.31938 0.44599 0.7771 0.0
C2825 C 0.30549 0.44171 0.77464 0.0
C2826 C 0.302 0.43401 0.7627 0.0
H2827 H 0.30788 0.44234 0.71218 0.0
H2828 H 0.3045 0.44752 0.73002 0.0
H2829 H 0.32178 0.44245 0.72496 0.0
H2830 H 0.3341 0.43274 0.74747 0.0
H2831 H 0.34035 0.44609 0.76853 0.0
H2832 H 0.75004 0.96168 0.51649 0.0
H2833 H 0.7442 0.96214 0.49143 0.0
H2834 H 0.73968 0.0069 0.49345 0.0
H2835 H 0.74542 0.00653 0.51838 0.0
H2836 H 0.71712 0.9781 0.47899 0.0
H2837 H 0.76988 0.99483 0.46093 0.0
H2838 H 0.76737 0.98487 0.47674 0.0
H2839 H 0.76288 0.00303 0.47636 0.0
C2840 C 0.74779 0.97159 0.51155 0.0
C2841 C 0.74811 0.98406 0.51935 0.0
C2842 C 0.74445 0.97183 0.49731 0.0
C2843 C 0.74162 0.98457 0.49068 0.0
C2844 C 0.74188 0.997 0.49844 0.0
H2845 H 0.72033 0.01454 0.40862 0.0
H2846 H 0.7281 0.01168 0.43289 0.0
C2847 C 0.74506 0.99675 0.51266 0.0
C2848 C 0.73827 0.98501 0.47565 0.0
H2849 H 0.75171 0.99444 0.44408 0.0
C2850 C 0.72468 0.98152 0.4713 0.0
C2851 C 0.74818 0.98961 0.46578 0.0
C2852 C 0.76295 0.99326 0.47008 0.0
C2853 C 0.72065 0.98279 0.45726 0.0
C2854 C 0.73056 0.98747 0.44737 0.0
C2855 C 0.74418 0.99084 0.45172 0.0
C2856 C 0.7268 0.98911 0.43249 0.0
C2857 C 0.70574 0.97954 0.45313 0.0
C2858 C 0.72383 0.97734 0.42423 0.0
C2859 C 0.71943 0.97894 0.41041 0.0
C2860 C 0.71789 0.99234 0.40464 0.0
C2861 C 0.72128 0.0041 0.41284 0.0
C2862 C 0.72577 0.00249 0.42665 0.0
H2863 H 0.69881 0.9785 0.46235 0.0
H2864 H 0.70153 0.98784 0.44623 0.0
H2865 H 0.70543 0.96955 0.44721 0.0
H2866 H 0.72468 0.96694 0.42857 0.0
H2867 H 0.71676 0.96968 0.4044 0.0
H2868 H 0.70439 0.96064 0.27123 0.0
H2869 H 0.69831 0.96606 0.24708 0.0
H2870 H 0.70711 0.00965 0.2547 0.0
H2871 H 0.71309 0.00435 0.27902 0.0
H2872 H 0.67816 0.98418 0.23594 0.0
H2873 H 0.73208 1.00012 0.2211 0.0
H2874 H 0.72835 0.99095 0.23711 0.0
H2875 H 0.72477 0.0093 0.23573 0.0
C2876 C 0.7048 0.97143 0.26789 0.0
C2877 C 0.70928 0.98205 0.27709 0.0
C2878 C 0.70142 0.97449 0.25403 0.0
C2879 C 0.7025 0.98821 0.24904 0.0
C2880 C 0.70651 0.99894 0.25827 0.0
H2881 H 0.68779 0.02068 0.16507 0.0
H2882 H 0.69305 0.01841 0.19004 0.0
C2883 C 0.70989 0.99589 0.27217 0.0
C2884 C 0.69951 0.99112 0.23413 0.0
H2885 H 0.71463 1.00174 0.20365 0.0
C2886 C 0.68612 0.98804 0.22888 0.0
C2887 C 0.70993 0.9962 0.22496 0.0
C2888 C 0.72463 0.99924 0.22993 0.0
C2889 C 0.68287 0.98984 0.2147 0.0
C2890 C 0.69334 0.99464 0.2055 0.0
C2891 C 0.70665 0.99801 0.21076 0.0
C2892 C 0.6907 0.99593 0.19031 0.0
C2893 C 0.66821 0.98667 0.20966 0.0
C2894 C 0.68793 0.984 0.18218 0.0
C2895 C 0.68494 0.98525 0.16794 0.0
C2896 C 0.68463 0.99847 0.16159 0.0
C2897 C 0.68775 0.01037 0.16972 0.0
C2898 C 0.69082 0.0091 0.18394 0.0
H2899 H 0.66065 0.98628 0.21843 0.0
H2900 H 0.66466 0.99463 0.20203 0.0
H2901 H 0.66809 0.97634 0.20435 0.0
H2902 H 0.68798 0.97373 0.18689 0.0
H2903 H 0.68252 0.9759 0.16197 0.0
H2904 H 0.51565 0.28464 0.60556 0.0
H2905 H 0.53666 0.28567 0.59125 0.0
H2906 H 0.53578 0.24083 0.58662 0.0
H2907 H 0.51441 0.23974 0.60079 0.0
H2908 H 0.56263 0.2731 0.59552 0.0
H2909 H 0.53754 0.25508 0.546 0.0
H2910 H 0.52751 0.26074 0.56089 0.0
H2911 H 0.53559 0.24385 0.56089 0.0
C2912 C 0.51985 0.27499 0.60141 0.0
C2913 C 0.51326 0.26212 0.60413 0.0
C2914 C 0.53191 0.27559 0.59331 0.0
C2915 C 0.53766 0.26336 0.5877 0.0
C2916 C 0.53136 0.25042 0.59066 0.0
H2917 H 0.61303 0.2616 0.53487 0.0
H2918 H 0.59297 0.25374 0.54877 0.0
C2919 C 0.51925 0.2498 0.59885 0.0
C2920 C 0.55023 0.26442 0.57876 0.0
H2921 H 0.56138 0.26132 0.54501 0.0
C2922 C 0.56241 0.27037 0.58451 0.0
C2923 C 0.5499 0.26087 0.56439 0.0
C2924 C 0.53693 0.25487 0.55758 0.0
C2925 C 0.57412 0.27321 0.57622 0.0
C2926 C 0.57362 0.27011 0.56179 0.0
C2927 C 0.56168 0.26365 0.5561 0.0
C2928 C 0.58499 0.27454 0.55235 0.0
C2929 C 0.58688 0.27983 0.58286 0.0
C2930 C 0.58681 0.28877 0.54943 0.0
C2931 C 0.59809 0.29326 0.54139 0.0
C2932 C 0.60786 0.28362 0.53617 0.0
C2933 C 0.60565 0.26928 0.53862 0.0
C2934 C 0.59427 0.26478 0.54664 0.0
H2935 H 0.58676 0.2789 0.59442 0.0
H2936 H 0.59658 0.27494 0.57883 0.0
H2937 H 0.58721 0.2911 0.58017 0.0
H2938 H 0.57963 0.29643 0.55361 0.0
H2939 H 0.59932 0.30435 0.5395 0.0
H2940 H 0.27502 0.72783 1.00026 0.0
H2941 H 0.25093 0.72095 0.00545 0.0
H2942 H 0.25308 0.68864 0.97403 0.0
H2943 H 0.27721 0.6954 0.96888 0.0
H2944 H 0.22935 0.7224 0.98701 0.0
H2945 H 0.23466 0.66799 0.00594 0.0
H2946 H 0.24939 0.67977 0.00466 0.0
H2947 H 0.24289 0.67082 0.98938 0.0
C2948 C 0.27042 0.71912 0.99461 0.0
C2949 C 0.278 0.71219 0.98412 0.0
C2950 C 0.25666 0.71519 0.99759 0.0
C2951 C 0.2502 0.70423 0.99019 0.0
C2952 C 0.25791 0.69694 0.98008 0.0
H2953 H 0.16306 0.6832 0.97595 0.0
H2954 H 0.188 0.68897 0.9738 0.0
C2955 C 0.27172 0.70082 0.97714 0.0
C2956 C 0.23507 0.70127 0.99219 0.0
H2957 H 0.21158 0.67541 0.99985 0.0
C2958 C 0.22549 0.71214 0.98991 0.0
C2959 C 0.23002 0.6879 0.99603 0.0
C2960 C 0.23978 0.67598 0.99928 0.0
C2961 C 0.21102 0.70992 0.99108 0.0
C2962 C 0.20601 0.6965 0.99455 0.0
C2963 C 0.21552 0.68566 0.99705 0.0
C2964 C 0.19088 0.69357 0.99575 0.0
C2965 C 0.20109 0.72186 0.98856 0.0
C2966 C 0.18432 0.69441 0.00878 0.0
C2967 C 0.17012 0.69118 0.01003 0.0
C2968 C 0.16223 0.68704 0.99826 0.0
C2969 C 0.16882 0.68648 0.98517 0.0
C2970 C 0.18305 0.68968 0.98393 0.0
H2971 H 0.20665 0.73178 0.9862 0.0
H2972 H 0.19402 0.71925 0.97969 0.0
H2973 H 0.19446 0.72345 0.99792 0.0
H2974 H 0.19023 0.69748 0.01798 0.0
H2975 H 0.16529 0.69189 0.02022 0.0
H2976 H 0.70266 0.26619 0.3675 0.0
H2977 H 0.7205 0.27541 0.38339 0.0
H2978 H 0.69475 0.31133 0.39178 0.0
H2979 H 0.67656 0.30193 0.3761 0.0
H2980 H 0.73497 0.30121 0.38243 0.0
H2981 H 0.70377 0.29637 0.43125 0.0
H2982 H 0.70036 0.28562 0.41605 0.0
H2983 H 0.69539 0.30362 0.41606 0.0
C2984 C 0.70071 0.27601 0.3728 0.0
C2985 C 0.68808 0.28322 0.37067 0.0
C2986 C 0.71096 0.2813 0.38183 0.0
C2987 C 0.70886 0.29391 0.38899 0.0
C2988 C 0.69647 0.30141 0.38659 0.0
H2989 H 0.76899 0.33773 0.44327 0.0
H2990 H 0.74815 0.33187 0.4294 0.0
C2991 C 0.68616 0.29612 0.3775 0.0
C2992 C 0.71979 0.29911 0.39883 0.0
H2993 H 0.72684 0.30478 0.43348 0.0
C2994 C 0.73315 0.30211 0.39357 0.0
C2995 C 0.71744 0.30014 0.41339 0.0
C2996 C 0.70352 0.29622 0.41965 0.0
C2997 C 0.74422 0.30601 0.40247 0.0
C2998 C 0.7419 0.30691 0.41701 0.0
C2999 C 0.72851 0.30417 0.4223 0.0
C3000 C 0.75354 0.31011 0.42681 0.0
C3001 C 0.75843 0.30897 0.39635 0.0
C3002 C 0.76323 0.29971 0.43025 0.0
C3003 C 0.77506 0.30296 0.43829 0.0
C3004 C 0.77751 0.31673 0.44297 0.0
C3005 C 0.76741 0.327 0.43999 0.0
C3006 C 0.75552 0.3237 0.43199 0.0
H3007 H 0.75814 0.30946 0.38476 0.0
H3008 H 0.76263 0.31901 0.40049 0.0
H3009 H 0.76579 0.30059 0.39949 0.0
H3010 H 0.76182 0.28914 0.42639 0.0
H3011 H 0.78246 0.29473 0.44057 0.0
H3012 H 0.51173 0.76784 0.97123 0.0
H3013 H 0.48706 0.76132 0.97281 0.0
H3014 H 0.49846 0.72286 0.99316 0.0
H3015 H 0.52302 0.72968 0.99249 0.0
H3016 H 0.47155 0.74 0.96322 0.0
H3017 H 0.4717 0.73892 0.02105 0.0
H3018 H 0.48618 0.74576 0.01115 0.0
H3019 H 0.48431 0.72721 0.01373 0.0
C3020 C 0.50901 0.75804 0.97616 0.0
C3021 C 0.51942 0.74943 0.98197 0.0
C3022 C 0.49489 0.75428 0.97695 0.0
C3023 C 0.49088 0.7418 0.98347 0.0
C3024 C 0.50127 0.73276 0.98847 0.0
H3025 H 0.41477 0.69608 0.99544 0.0
H3026 H 0.43869 0.70469 0.9934 0.0
C3027 C 0.51537 0.73658 0.98785 0.0
C3028 C 0.47584 0.73833 0.98526 0.0
H3029 H 0.45151 0.72933 0.00972 0.0
C3030 C 0.46714 0.73779 0.9734 0.0
C3031 C 0.47004 0.73563 0.99859 0.0
C3032 C 0.47851 0.73705 0.01186 0.0
C3033 C 0.45294 0.73412 0.97446 0.0
C3034 C 0.44734 0.73093 0.9877 0.0
C3035 C 0.45592 0.73172 0.99958 0.0
C3036 C 0.43275 0.72606 0.98933 0.0
C3037 C 0.44407 0.73332 0.96142 0.0
C3038 C 0.4215 0.73531 0.98794 0.0
C3039 C 0.40774 0.73048 0.98934 0.0
C3040 C 0.40501 0.71628 0.99211 0.0
C3041 C 0.41641 0.70712 0.99359 0.0
C3042 C 0.43012 0.71198 0.99231 0.0
H3043 H 0.45036 0.73459 0.95178 0.0
H3044 H 0.43846 0.72314 0.96092 0.0
H3045 H 0.43607 0.74169 0.96172 0.0
H3046 H 0.42338 0.74627 0.98578 0.0
H3047 H 0.39926 0.73788 0.98833 0.0
H3048 H 0.62 0.52449 0.26675 0.0
H3049 H 0.60582 0.54492 0.27306 0.0
H3050 H 0.57041 0.52699 0.25139 0.0
H3051 H 0.58446 0.50662 0.24503 0.0
H3052 H 0.58903 0.56247 0.25079 0.0
H3053 H 0.55807 0.53819 0.29352 0.0
H3054 H 0.57531 0.53213 0.28886 0.0
H3055 H 0.56064 0.52814 0.27779 0.0
C3056 C 0.60916 0.52487 0.26344 0.0
C3057 C 0.60335 0.51399 0.25535 0.0
C3058 C 0.60111 0.53654 0.267 0.0
C3059 C 0.58709 0.53739 0.2627 0.0
C3060 C 0.58121 0.52648 0.25482 0.0
H3061 H 0.51977 0.59648 0.27809 0.0
H3062 H 0.53372 0.57643 0.27033 0.0
C3063 C 0.58927 0.5149 0.25114 0.0
C3064 C 0.57861 0.54983 0.26612 0.0
H3065 H 0.55178 0.56096 0.28668 0.0
C3066 C 0.58092 0.5622 0.25867 0.0
C3067 C 0.56797 0.54933 0.27629 0.0
C3068 C 0.56531 0.53629 0.28468 0.0
C3069 C 0.57271 0.57412 0.26102 0.0
C3070 C 0.56213 0.57368 0.27132 0.0
C3071 C 0.55984 0.56126 0.27875 0.0
C3072 C 0.5537 0.58614 0.27499 0.0
C3073 C 0.57525 0.58695 0.25227 0.0
C3074 C 0.5603 0.59824 0.2801 0.0
C3075 C 0.55239 0.60966 0.28444 0.0
C3076 C 0.53768 0.60919 0.28392 0.0
C3077 C 0.53107 0.59718 0.27853 0.0
C3078 C 0.53902 0.58571 0.27418 0.0
H3079 H 0.5805 0.58429 0.24228 0.0
H3080 H 0.56531 0.59242 0.24988 0.0
H3081 H 0.58218 0.59427 0.2581 0.0
H3082 H 0.57158 0.59874 0.28105 0.0
H3083 H 0.55781 0.61884 0.28836 0.0
H3084 H 0.99995 0.28176 0.69687 0.0
H3085 H 0.00702 0.25739 0.6927 0.0
H3086 H 0.97047 0.24291 0.71459 0.0
H3087 H 0.96345 0.26701 0.71895 0.0
H3088 H 0.00876 0.23223 0.71509 0.0
H3089 H 0.96996 0.22753 0.6718 0.0
H3090 H 0.97741 0.24411 0.67713 0.0
H3091 H 0.9642 0.23594 0.6876 0.0
C3092 C 0.99351 0.27337 0.70089 0.0
C3093 C 0.98098 0.27631 0.70797 0.0
C3094 C 0.99757 0.25949 0.69853 0.0
C3095 C 0.98918 0.24843 0.70326 0.0
C3096 C 0.977 0.25134 0.71077 0.0
H3097 H 0.97835 0.1603 0.69074 0.0
H3098 H 0.97673 0.18499 0.69705 0.0
C3099 C 0.97294 0.26512 0.7131 0.0
C3100 C 0.99243 0.23377 0.69965 0.0
H3101 H 0.9806 0.20672 0.6795 0.0
C3102 C 0.00276 0.22664 0.70721 0.0
C3103 C 0.98449 0.22656 0.68944 0.0
C3104 C 0.97343 0.23389 0.68092 0.0
C3105 C 0.00501 0.21225 0.70512 0.0
C3106 C 0.99686 0.20498 0.69503 0.0
C3107 C 0.98678 0.21227 0.68728 0.0
C3108 C 0.99835 0.18976 0.6924 0.0
C3109 C 0.0157 0.2049 0.71406 0.0
C3110 C 0.01108 0.1842 0.68778 0.0
C3111 C 0.01209 0.17002 0.68436 0.0
C3112 C 1.00034 0.16115 0.68527 0.0
C3113 C 0.98765 0.16675 0.69007 0.0
C3114 C 0.98668 0.18089 0.69359 0.0
H3115 H 0.01827 0.21098 0.72365 0.0
H3116 H 0.01193 0.19437 0.71717 0.0
H3117 H 0.02549 0.20359 0.70802 0.0
H3118 H 0.02015 0.19087 0.68651 0.0
H3119 H 0.02209 0.16605 0.6809 0.0
H3120 H 0.39388 0.67441 0.28051 0.0
H3121 H 0.40924 0.69299 0.28923 0.0
H3122 H 0.37327 0.71767 0.3001 0.0
H3123 H 0.35778 0.69926 0.29114 0.0
H3124 H 0.41042 0.72046 0.27917 0.0
H3125 H 0.39771 0.71958 0.33561 0.0
H3126 H 0.39339 0.70532 0.32394 0.0
H3127 H 0.38265 0.72069 0.32437 0.0
C3128 C 0.38919 0.68377 0.28477 0.0
C3129 C 0.37454 0.68532 0.28503 0.0
C3130 C 0.39801 0.69436 0.28982 0.0
C3131 C 0.39243 0.70669 0.29542 0.0
C3132 C 0.37783 0.70815 0.29606 0.0
H3133 H 0.42188 0.78814 0.31938 0.0
H3134 H 0.40891 0.76684 0.31352 0.0
C3135 C 0.36897 0.69757 0.29095 0.0
C3136 C 0.40187 0.71832 0.29982 0.0
H3137 H 0.41067 0.73928 0.3275 0.0
C3138 C 0.4106 0.72447 0.28977 0.0
C3139 C 0.40213 0.72353 0.31367 0.0
C3140 C 0.39358 0.71687 0.32507 0.0
C3141 C 0.4192 0.73598 0.29309 0.0
C3142 C 0.41919 0.7414 0.30685 0.0
C3143 C 0.41066 0.7351 0.31696 0.0
C3144 C 0.42732 0.75412 0.31071 0.0
C3145 C 0.42789 0.7426 0.28177 0.0
C3146 C 0.44201 0.75399 0.31124 0.0
C3147 C 0.4495 0.7662 0.31464 0.0
C3148 C 0.4424 0.77874 0.31742 0.0
C3149 C 0.42768 0.77872 0.31706 0.0
C3150 C 0.42023 0.76653 0.3138 0.0
H3151 H 0.42518 0.73847 0.27124 0.0
H3152 H 0.42646 0.75412 0.28177 0.0
H3153 H 0.43912 0.74049 0.2838 0.0
H3154 H 0.44767 0.74447 0.309 0.0
H3155 H 0.46082 0.76589 0.31483 0.0
H3156 H 0.96721 0.51379 0.76386 0.0
H3157 H 0.96909 0.48895 0.75805 0.0
H3158 H 0.9984 0.49879 0.72541 0.0
H3159 H 0.99717 0.52348 0.73157 0.0
H3160 H 0.9643 0.47361 0.73422 0.0
H3161 H 0.02036 0.47143 0.74906 0.0
H3162 H 0.00945 0.48621 0.75317 0.0
H3163 H 0.0168 0.48434 0.736 0.0
C3164 C 0.9741 0.51067 0.75547 0.0
C3165 C 0.98219 0.52064 0.74832 0.0
C3166 C 0.97508 0.49648 0.75212 0.0
C3167 C 0.98416 0.49201 0.74155 0.0
C3168 C 0.99161 0.50199 0.73384 0.0
H3169 H 0.00308 0.41527 0.70008 0.0
H3170 H 1.00025 0.43934 0.70798 0.0
C3171 C 0.99072 0.51615 0.73725 0.0
C3172 C 0.98615 0.47691 0.7388 0.0
H3173 H 0.01114 0.45157 0.73693 0.0
C3174 C 0.97451 0.46876 0.73494 0.0
C3175 C 0.99947 0.47058 0.7399 0.0
C3176 C 0.01221 0.47856 0.7449 0.0
C3177 C 0.97596 0.45453 0.73165 0.0
C3178 C 0.98934 0.44839 0.73229 0.0
C3179 C 1.00092 0.45642 0.73642 0.0
C3180 C 0.99161 0.43376 0.72802 0.0
C3181 C 0.96329 0.44619 0.72717 0.0
C3182 C 0.98793 0.42271 0.73685 0.0
C3183 C 0.98976 0.40888 0.73249 0.0
C3184 C 0.99523 0.40591 0.71918 0.0
C3185 C 0.9991 0.41711 0.71049 0.0
C3186 C 0.99737 0.43089 0.71491 0.0
H3187 H 0.9538 0.45277 0.72617 0.0
H3188 H 0.96529 0.44099 0.71699 0.0
H3189 H 0.96121 0.43787 0.73495 0.0
H3190 H 0.98357 0.4248 0.74707 0.0
H3191 H 0.98686 0.40054 0.73953 0.0
H3192 H 0.7628 0.39559 0.4743 0.0
H3193 H 0.75756 0.40977 0.45377 0.0
H3194 H 0.72244 0.42797 0.47518 0.0
H3195 H 0.728 0.41434 0.496 0.0
H3196 H 0.73462 0.41212 0.43673 0.0
H3197 H 0.74491 0.46223 0.46433 0.0
H3198 H 0.74943 0.44553 0.47174 0.0
H3199 H 0.7317 0.45172 0.47246 0.0
C3200 C 0.75402 0.40268 0.4747 0.0
C3201 C 0.74597 0.40399 0.48691 0.0
C3202 C 0.75096 0.41069 0.4629 0.0
C3203 C 0.73981 0.42016 0.46306 0.0
C3204 C 0.73131 0.42098 0.47495 0.0
H3205 H 0.7044 0.47641 0.40234 0.0
H3206 H 0.70918 0.46104 0.42206 0.0
C3207 C 0.7344 0.41303 0.48679 0.0
C3208 C 0.73734 0.42944 0.45092 0.0
H3209 H 0.73545 0.46378 0.44142 0.0
C3210 C 0.73486 0.42341 0.43774 0.0
C3211 C 0.73779 0.44419 0.45224 0.0
C3212 C 0.74124 0.45132 0.46592 0.0
C3213 C 0.73254 0.43174 0.42591 0.0
C3214 C 0.73274 0.44643 0.42733 0.0
C3215 C 0.73527 0.45248 0.44045 0.0
C3216 C 0.73006 0.45574 0.41536 0.0
C3217 C 0.72965 0.42486 0.41199 0.0
C3218 C 0.74034 0.45799 0.4052 0.0
C3219 C 0.73776 0.467 0.39402 0.0
C3220 C 0.72482 0.47389 0.39279 0.0
C3221 C 0.71459 0.47158 0.40308 0.0
C3222 C 0.71723 0.46267 0.41429 0.0
H3223 H 0.72841 0.41336 0.4129 0.0
H3224 H 0.72001 0.42926 0.40725 0.0
H3225 H 0.73844 0.42708 0.40478 0.0
H3226 H 0.75036 0.45281 0.40598 0.0
H3227 H 0.74591 0.46862 0.38638 0.0
H3228 H 0.72294 0.64752 0.2987 0.0
H3229 H 0.71535 0.63117 0.2805 0.0
H3230 H 0.71043 0.59884 0.31133 0.0
H3231 H 0.71817 0.61509 0.32964 0.0
H3232 H 0.72802 0.60517 0.27324 0.0
H3233 H 0.67282 0.59779 0.29026 0.0
H3234 H 0.68278 0.61332 0.29456 0.0
H3235 H 0.68631 0.59727 0.30342 0.0
C3236 C 0.72025 0.63694 0.30166 0.0
C3237 C 0.72119 0.63266 0.3157 0.0
C3238 C 0.71587 0.62761 0.29122 0.0
C3239 C 0.7122 0.61381 0.29455 0.0
C3240 C 0.71296 0.60951 0.30854 0.0
H3241 H 0.69105 0.54475 0.23658 0.0
H3242 H 0.69969 0.55784 0.25709 0.0
C3243 C 0.71735 0.61884 0.31901 0.0
C3244 C 0.70794 0.60391 0.28326 0.0
H3245 H 0.68016 0.58506 0.27054 0.0
C3246 C 0.71759 0.60069 0.27272 0.0
C3247 C 0.6943 0.59814 0.28253 0.0
C3248 C 0.68335 0.6018 0.2932 0.0
C3249 C 0.71393 0.59193 0.26144 0.0
C3250 C 0.70029 0.58626 0.26068 0.0
C3251 C 0.69068 0.5893 0.27129 0.0
C3252 C 0.69547 0.57818 0.2483 0.0
C3253 C 0.72452 0.58897 0.2502 0.0
C3254 C 0.69035 0.58531 0.2366 0.0
C3255 C 0.68541 0.57791 0.22497 0.0
C3256 C 0.68548 0.5632 0.22475 0.0
C3257 C 0.69088 0.55606 0.23641 0.0
C3258 C 0.69576 0.56351 0.24814 0.0
H3259 H 0.73505 0.59316 0.25289 0.0
H3260 H 0.7253 0.57753 0.24841 0.0
H3261 H 0.721 0.59378 0.24026 0.0
H3262 H 0.69011 0.59662 0.23651 0.0
H3263 H 0.68156 0.58374 0.21608 0.0
H3264 H 0.26806 0.99666 0.48672 0.0
H3265 H 0.27391 0.99671 0.51158 0.0
H3266 H 0.25256 0.03599 0.51671 0.0
H3267 H 0.24662 0.03601 0.49179 0.0
H3268 H 0.28863 0.01533 0.52804 0.0
H3269 H 0.23344 0.0112 0.54551 0.0
H3270 H 0.23854 0.0085 0.52758 0.0
H3271 H 0.23696 0.02592 0.53447 0.0
C3272 C 0.26477 0.00542 0.49309 0.0
C3273 C 0.2568 0.0163 0.4873 0.0
C3274 C 0.26806 0.00539 0.50731 0.0
C3275 C 0.26342 0.0162 0.51603 0.0
C3276 C 0.25593 0.02736 0.51022 0.0
H3277 H 0.28158 0.03477 0.60276 0.0
H3278 H 0.27391 0.03548 0.57828 0.0
C3279 C 0.25257 0.02737 0.49599 0.0
C3280 C 0.26635 0.01565 0.53123 0.0
H3281 H 0.25065 0.01429 0.56322 0.0
C3282 C 0.28033 0.01507 0.53572 0.0
C3283 C 0.25547 0.01522 0.54123 0.0
C3284 C 0.24025 0.01511 0.53699 0.0
C3285 C 0.28372 0.01425 0.54996 0.0
C3286 C 0.27287 0.01395 0.55991 0.0
C3287 C 0.25891 0.01453 0.55549 0.0
C3288 C 0.27598 0.01323 0.57499 0.0
C3289 C 0.29888 0.01376 0.55438 0.0
C3290 C 0.27929 1.00041 0.58123 0.0
C3291 C 0.28354 0.99996 0.59521 0.0
C3292 C 0.28468 0.01236 0.60305 0.0
C3293 C 0.28084 0.0251 0.59689 0.0
C3294 C 0.27646 0.02551 0.58297 0.0
H3295 H 0.3061 0.01514 0.54543 0.0
H3296 H 0.30106 0.02206 0.56224 0.0
H3297 H 0.30109 0.00355 0.55938 0.0
H3298 H 0.27897 0.99084 0.57515 0.0
H3299 H 0.28657 0.99004 0.5997 0.0
H3300 H 0.2916 0.0054 0.72295 0.0
H3301 H 0.29399 0.99674 0.74699 0.0
H3302 H 0.29428 0.03917 0.76233 0.0
H3303 H 0.29124 0.04779 0.73869 0.0
H3304 H 0.31563 1.00168 0.76515 0.0
H3305 H 0.2669 0.02149 0.78857 0.0
H3306 H 0.26936 0.02048 0.76991 0.0
H3307 H 0.27608 0.03518 0.77971 0.0
C3308 C 0.29182 0.01285 0.7315 0.0
C3309 C 0.29129 0.0273 0.72887 0.0
C3310 C 0.29329 0.00789 0.74521 0.0
C3311 C 0.29411 0.01729 0.7565 0.0
C3312 C 0.29333 0.03167 0.75387 0.0
H3313 H 0.31953 0.0258 0.84104 0.0
H3314 H 0.31233 0.02766 0.81656 0.0
C3315 C 0.29179 0.0366 0.74028 0.0
C3316 C 0.29676 0.0124 0.77099 0.0
H3317 H 0.28603 0.01727 0.80463 0.0
C3318 C 0.30901 0.00482 0.77377 0.0
C3319 C 0.28809 0.01644 0.78224 0.0
C3320 C 0.2743 0.02372 0.77994 0.0
C3321 C 0.31326 1.00198 0.78755 0.0
C3322 C 0.305 0.00679 0.79878 0.0
C3323 C 0.29243 0.01375 0.79599 0.0
C3324 C 0.30957 0.00541 0.81352 0.0
C3325 C 0.32689 0.99448 0.79004 0.0
C3326 C 0.31034 0.99228 0.81993 0.0
C3327 C 0.31447 0.99117 0.83392 0.0
C3328 C 0.31792 0.0032 0.84175 0.0
C3329 C 0.31712 0.01633 0.83527 0.0
C3330 C 0.31293 0.01742 0.82131 0.0
H3331 H 0.33309 0.99334 0.78032 0.0
H3332 H 0.33331 1.00015 0.79794 0.0
H3333 H 0.32469 0.98388 0.79418 0.0
H3334 H 0.30764 0.9829 0.81414 0.0
H3335 H 0.3151 0.9809 0.83857 0.0
H3336 H 0.47859 0.76377 0.40234 0.0
H3337 H 0.4571 0.75828 0.41494 0.0
H3338 H 0.47546 0.71996 0.42969 0.0
H3339 H 0.49723 0.72566 0.41764 0.0
H3340 H 0.43873 0.73632 0.41325 0.0
H3341 H 0.46326 0.7383 0.46583 0.0
H3342 H 0.47204 0.74454 0.45041 0.0
H3343 H 0.47151 0.72615 0.4542 0.0
C3344 C 0.47814 0.75424 0.4084 0.0
C3345 C 0.48976 0.74527 0.40914 0.0
C3346 C 0.46578 0.75106 0.41549 0.0
C3347 C 0.46475 0.73885 0.4235 0.0
C3348 C 0.47612 0.7296 0.42384 0.0
H3349 H 0.39851 0.7 0.47112 0.0
H3350 H 0.41924 0.70537 0.45731 0.0
C3351 C 0.48851 0.7328 0.4168 0.0
C3352 C 0.45184 0.73591 0.4316 0.0
H3353 H 0.43986 0.72989 0.46464 0.0
C3354 C 0.43897 0.73498 0.42449 0.0
C3355 C 0.45213 0.73427 0.4463 0.0
C3356 C 0.46545 0.736 0.45467 0.0
C3357 C 0.42647 0.73217 0.43166 0.0
C3358 C 0.42685 0.73028 0.44628 0.0
C3359 C 0.43966 0.73128 0.4534 0.0
C3360 C 0.41407 0.72712 0.4544 0.0
C3361 C 0.41293 0.73103 0.4236 0.0
C3362 C 0.40436 0.73763 0.45742 0.0
C3363 C 0.39259 0.73469 0.46558 0.0
C3364 C 0.39026 0.72113 0.47082 0.0
C3365 C 0.40003 0.71062 0.46759 0.0
C3366 C 0.41185 0.71362 0.45956 0.0
H3367 H 0.41459 0.73126 0.41212 0.0
H3368 H 0.4074 0.72119 0.42635 0.0
H3369 H 0.40602 0.73986 0.42649 0.0
H3370 H 0.40599 0.74816 0.45362 0.0
H3371 H 0.38545 0.74311 0.46795 0.0
H3372 H 0.72467 0.31131 0.01036 0.0
H3373 H 0.74905 0.31585 0.00399 0.0
H3374 H 0.76161 0.27782 0.02442 0.0
H3375 H 0.73722 0.27317 0.03084 0.0
H3376 H 0.77128 0.31627 0.02794 0.0
H3377 H 0.78149 0.27992 0.98361 0.0
H3378 H 0.76427 0.28681 0.98709 0.0
H3379 H 0.77146 0.27362 0.99821 0.0
C3380 C 0.73257 0.30373 0.01318 0.0
C3381 C 0.72907 0.29187 0.0211 0.0
C3382 C 0.74647 0.30638 0.00959 0.0
C3383 C 0.75703 0.29713 0.01369 0.0
C3384 C 0.75353 0.285 0.02108 0.0
H3385 H 0.84742 0.29682 0.00858 0.0
H3386 H 0.82259 0.2908 0.01081 0.0
C3387 C 0.73964 0.2824 0.02479 0.0
C3388 C 0.77184 0.30087 0.01154 0.0
H3389 H 0.80074 0.29278 0.99245 0.0
C3390 C 0.77775 0.31122 0.02014 0.0
C3391 C 0.78016 0.2941 1.00147 0.0
C3392 C 0.7741 0.28301 0.99197 0.0
C3393 C 0.79191 0.31486 0.01909 0.0
C3394 C 0.80027 0.30824 0.00887 0.0
C3395 C 0.79431 0.29788 1.00024 0.0
C3396 C 0.81523 0.31183 0.00708 0.0
C3397 C 0.79787 0.32547 0.02922 0.0
C3398 C 0.8193 0.32559 0.00401 0.0
C3399 C 0.83344 0.32906 0.00286 0.0
C3400 C 0.84377 0.31878 0.00452 0.0
C3401 C 0.83967 0.30493 0.0072 0.0
C3402 C 0.82551 0.30149 0.00849 0.0
H3403 H 0.79131 0.32645 0.03872 0.0
H3404 H 0.80865 0.32265 0.03248 0.0
H3405 H 0.79824 0.33586 0.02412 0.0
H3406 H 0.81153 0.33365 0.00251 0.0
H3407 H 0.8363 0.33976 1.00052 0.0
H3408 H 0.32143 0.73806 0.61364 0.0
H3409 H 0.30316 0.72874 0.59821 0.0
H3410 H 0.29715 0.69394 0.62603 0.0
H3411 H 0.31546 0.70328 0.64163 0.0
H3412 H 0.3004 0.70097 0.58483 0.0
H3413 H 0.25793 0.71381 0.62227 0.0
H3414 H 0.27515 0.72156 0.62347 0.0
H3415 H 0.27239 0.70387 0.62901 0.0
C3416 C 0.31625 0.7284 0.61647 0.0
C3417 C 0.31979 0.72149 0.62895 0.0
C3418 C 0.30587 0.72305 0.6076 0.0
C3419 C 0.2987 0.71074 0.61104 0.0
C3420 C 0.30248 0.70354 0.62325 0.0
H3421 H 0.23887 0.66359 0.56043 0.0
H3422 H 0.25955 0.6715 0.57345 0.0
C3423 C 0.31299 0.70883 0.6321 0.0
C3424 C 0.2869 0.70584 0.60209 0.0
H3425 H 0.2513 0.70254 0.60132 0.0
C3426 C 0.28966 0.70125 0.58843 0.0
C3427 C 0.27289 0.70644 0.60674 0.0
C3428 C 0.2693 0.71177 0.62113 0.0
C3429 C 0.27878 0.69711 0.57935 0.0
C3430 C 0.26478 0.6975 0.58409 0.0
C3431 C 0.26203 0.70221 0.59771 0.0
C3432 C 0.25278 0.69297 0.57519 0.0
C3433 C 0.28232 0.69262 0.56468 0.0
C3434 C 0.24207 0.7024 0.57182 0.0
C3435 C 0.2302 0.6979 0.56439 0.0
C3436 C 0.22872 0.68382 0.56034 0.0
C3437 C 0.23963 0.67448 0.56347 0.0
C3438 C 0.25152 0.67901 0.57081 0.0
H3439 H 0.29291 0.69625 0.56158 0.0
H3440 H 0.28212 0.68104 0.56406 0.0
H3441 H 0.27455 0.6967 0.55708 0.0
H3442 H 0.24278 0.71321 0.57515 0.0
H3443 H 0.22195 0.70534 0.56232 0.0
H3444 H 0.48506 0.27733 0.01685 0.0
H3445 H 0.50997 0.28307 0.01691 0.0
H3446 H 0.52001 0.23942 0.02144 0.0
H3447 H 0.49517 0.23349 0.02062 0.0
H3448 H 0.53069 0.27866 0.0362 0.0
H3449 H 0.54228 0.24986 0.98711 0.0
H3450 H 0.52465 0.25333 0.99277 0.0
H3451 H 0.53453 0.23942 1.00057 0.0
C3452 C 0.49255 0.26893 0.01775 0.0
C3453 C 0.48807 0.25493 0.01855 0.0
C3454 C 0.50679 0.27224 0.01789 0.0
C3455 C 0.51684 0.26164 0.01887 0.0
C3456 C 0.51243 0.24773 0.02033 0.0
H3457 H 0.60841 0.26865 0.01688 0.0
H3458 H 0.5845 0.25935 0.01875 0.0
C3459 C 0.49819 0.24439 0.02008 0.0
C3460 C 0.53192 0.26522 0.01818 0.0
H3461 H 0.56145 0.26038 0.9988 0.0
C3462 C 0.53742 0.27463 0.02805 0.0
C3463 C 0.54069 0.2599 0.00754 0.0
C3464 C 0.53525 0.25016 0.99631 0.0
C3465 C 0.55143 0.27899 0.02751 0.0
C3466 C 0.56009 0.27392 0.01671 0.0
C3467 C 0.55474 0.26422 0.00705 0.0
C3468 C 0.57451 0.27921 0.01487 0.0
C3469 C 0.55684 0.28903 0.03848 0.0
C3470 C 0.57672 0.29332 0.01165 0.0
C3471 C 0.59027 0.29862 0.01054 0.0
C3472 C 0.60189 0.28989 0.01256 0.0
C3473 C 0.59965 0.27561 0.01525 0.0
C3474 C 0.58604 0.27031 0.01638 0.0
H3475 H 0.55015 0.28903 0.04793 0.0
H3476 H 0.56771 0.28638 0.0416 0.0
H3477 H 0.5569 0.29976 0.03414 0.0
H3478 H 0.56794 0.30028 0.01011 0.0
H3479 H 0.59166 0.30959 0.00813 0.0
H3480 H 0.41644 0.49256 0.72348 0.0
H3481 H 0.42977 0.47139 0.71834 0.0
H3482 H 0.41373 0.45213 0.75566 0.0
H3483 H 0.39994 0.47296 0.76055 0.0
H3484 H 0.45044 0.45986 0.73432 0.0
H3485 H 0.40734 0.42154 0.72705 0.0
H3486 H 0.40444 0.44017 0.72719 0.0
H3487 H 0.4065 0.43082 0.74334 0.0
C3488 C 0.4155 0.48371 0.73043 0.0
C3489 C 0.40711 0.48449 0.74244 0.0
C3490 C 0.42322 0.47166 0.72754 0.0
C3491 C 0.42264 0.4601 0.73653 0.0
C3492 C 0.41416 0.46079 0.74842 0.0
H3493 H 0.46926 0.38185 0.74064 0.0
H3494 H 0.45485 0.40226 0.7461 0.0
C3495 C 0.40641 0.4728 0.7513 0.0
C3496 C 0.43147 0.44765 0.73386 0.0
H3497 H 0.43034 0.41226 0.72893 0.0
C3498 C 0.44603 0.44947 0.73307 0.0
C3499 C 0.42572 0.43407 0.73229 0.0
C3500 C 0.41013 0.43151 0.73237 0.0
C3501 C 0.45499 0.43809 0.73087 0.0
C3502 C 0.44923 0.42454 0.72933 0.0
C3503 C 0.4347 0.42267 0.73021 0.0
C3504 C 0.45811 0.41229 0.72618 0.0
C3505 C 0.47057 0.44057 0.73032 0.0
C3506 C 0.46459 0.41115 0.71314 0.0
C3507 C 0.47266 0.39945 0.7099 0.0
C3508 C 0.4745 0.38863 0.71967 0.0
C3509 C 0.468 0.38987 0.73279 0.0
C3510 C 0.45981 0.40156 0.73598 0.0
H3511 H 0.47351 0.45103 0.73451 0.0
H3512 H 0.47622 0.43244 0.73635 0.0
H3513 H 0.47409 0.43993 0.71931 0.0
H3514 H 0.46322 0.41923 0.70536 0.0
H3515 H 0.47715 0.39876 0.69956 0.0
H3516 H 0.0321 0.72542 0.31511 0.0
H3517 H 0.02607 0.74974 0.32078 0.0
H3518 H 0.00741 0.75454 0.28004 0.0
H3519 H 0.01321 0.73029 0.27435 0.0
H3520 H 0.03308 0.77421 0.292 0.0
H3521 H 0.9832 0.77021 0.32163 0.0
H3522 H 0.99657 0.75715 0.32407 0.0
H3523 H 0.98742 0.75812 0.30775 0.0
C3524 C 0.0264 0.73156 0.30751 0.0
C3525 C 0.02325 0.72601 0.29424 0.0
C3526 C 0.02302 0.74543 0.31073 0.0
C3527 C 0.01635 0.75387 0.30079 0.0
C3528 C 0.01259 0.74817 0.28781 0.0
H3529 H 0.987 0.83957 0.30915 0.0
H3530 H 0.98964 0.81496 0.30291 0.0
C3531 C 0.01596 0.73435 0.28458 0.0
C3532 C 0.01446 0.76898 0.3034 0.0
H3533 H 0.99315 0.79266 0.31926 0.0
C3534 C 0.02437 0.77829 0.29797 0.0
C3535 C 0.00295 0.77418 0.31093 0.0
C3536 C 0.99183 0.76448 0.31645 0.0
C3537 C 0.02318 0.79277 0.30005 0.0
C3538 C 0.01193 0.79801 0.30807 0.0
C3539 C 1.00184 0.78865 0.31323 0.0
C3540 C 0.01056 0.81312 0.3114 0.0
C3541 C 0.03387 0.80227 0.2934 0.0
C3542 C 0.02142 0.82032 0.31827 0.0
C3543 C 0.02008 0.83448 0.32158 0.0
C3544 C 0.0077 0.84174 0.31836 0.0
C3545 C 0.99678 0.83445 0.31158 0.0
C3546 C 0.99821 0.82031 0.30812 0.0
H3547 H 0.03881 0.79724 0.28419 0.0
H3548 H 0.0291 0.81228 0.29003 0.0
H3549 H 0.04228 0.80462 0.30109 0.0
H3550 H 0.03093 0.81495 0.32121 0.0
H3551 H 0.0288 0.83972 0.32662 0.0
H3552 H 0.61113 0.32664 0.73407 0.0
H3553 H 0.59681 0.30739 0.72507 0.0
H3554 H 0.63075 0.29447 0.69855 0.0
H3555 H 0.64534 0.31351 0.70784 0.0
H3556 H 0.58814 0.30007 0.69797 0.0
H3557 H 0.62197 0.25921 0.7213 0.0
H3558 H 0.62336 0.27742 0.72611 0.0
H3559 H 0.63097 0.27126 0.71011 0.0
C3560 C 0.6156 0.31969 0.72635 0.0
C3561 C 0.62949 0.32151 0.72184 0.0
C3562 C 0.60735 0.30874 0.72115 0.0
C3563 C 0.61279 0.29933 0.71134 0.0
C3564 C 0.62642 0.30146 0.70633 0.0
H3565 H 0.58414 0.22295 0.67267 0.0
H3566 H 0.59652 0.24388 0.68033 0.0
C3567 C 0.63471 0.31243 0.71153 0.0
C3568 C 0.6043 0.28711 0.70669 0.0
H3569 H 0.6036 0.25143 0.70657 0.0
C3570 C 0.59148 0.28942 0.69986 0.0
C3571 C 0.60862 0.27323 0.7093 0.0
C3572 C 0.62191 0.27007 0.71722 0.0
C3573 C 0.58307 0.27823 0.69521 0.0
C3574 C 0.58749 0.26434 0.69765 0.0
C3575 C 0.60023 0.26206 0.70464 0.0
C3576 C 0.57942 0.25196 0.69263 0.0
C3577 C 0.56973 0.28138 0.68738 0.0
C3578 C 0.56564 0.24942 0.69703 0.0
C3579 C 0.55838 0.23748 0.69246 0.0
C3580 C 0.5648 0.22777 0.68348 0.0
C3581 C 0.57867 0.23032 0.67927 0.0
C3582 C 0.58586 0.24225 0.68376 0.0
H3583 H 0.56962 0.29228 0.68343 0.0
H3584 H 0.56828 0.27412 0.67842 0.0
H3585 H 0.56071 0.2801 0.69451 0.0
H3586 H 0.56055 0.25658 0.70415 0.0
H3587 H 0.54772 0.23589 0.69591 0.0
H3588 H 0.02282 0.48608 0.27574 0.0
H3589 H 0.02291 0.51087 0.28214 0.0
H3590 H 0.01501 0.52196 0.23925 0.0
H3591 H 0.0145 0.49723 0.23277 0.0
H3592 H 0.03733 0.53791 0.25421 0.0
H3593 H 0.98625 0.53568 0.28167 0.0
H3594 H 0.9987 0.52239 0.28628 0.0
H3595 H 0.99149 0.52276 0.26895 0.0
C3596 C 0.02103 0.49377 0.26766 0.0
C3597 C 0.01859 0.48963 0.25374 0.0
C3598 C 0.02113 0.50792 0.27134 0.0
C3599 C 0.01883 0.51818 0.26117 0.0
C3600 C 0.0168 0.51416 0.24723 0.0
H3601 H 0.99701 0.6045 0.28013 0.0
H3602 H 0.99781 0.58102 0.27003 0.0
C3603 C 0.01661 0.50002 0.24354 0.0
C3604 C 0.01831 0.53312 0.26514 0.0
H3605 H 0.99919 0.55671 0.28371 0.0
C3606 C 0.02899 0.54208 0.26062 0.0
C3607 C 0.00726 0.5385 0.27326 0.0
C3608 C 0.99518 0.52941 0.27777 0.0
C3609 C 0.02911 0.55629 0.26433 0.0
C3610 C 0.01837 0.56158 0.27299 0.0
C3611 C 0.00748 0.55265 0.27717 0.0
C3612 C 0.01838 0.57621 0.27817 0.0
C3613 C 0.04067 0.5655 0.25883 0.0
C3614 C 0.0297 0.58136 0.28605 0.0
C3615 C 0.0294 0.59485 0.29162 0.0
C3616 C 0.01763 0.60344 0.28969 0.0
C3617 C 0.00633 0.59829 0.28168 0.0
C3618 C 0.00671 0.58481 0.27599 0.0
H3619 H 0.04521 0.56115 0.24909 0.0
H3620 H 0.03686 0.57623 0.25669 0.0
H3621 H 0.04918 0.56617 0.26673 0.0
H3622 H 0.03868 0.57482 0.28815 0.0
H3623 H 0.03837 0.59851 0.29755 0.0
H3624 H 0.34281 0.68093 0.40804 0.0
H3625 H 0.36272 0.68273 0.3929 0.0
H3626 H 0.35129 0.64374 0.3731 0.0
H3627 H 0.33011 0.64265 0.38739 0.0
H3628 H 0.38406 0.66731 0.39239 0.0
H3629 H 0.361 0.66509 0.33912 0.0
H3630 H 0.35037 0.66714 0.3545 0.0
H3631 H 0.35685 0.65019 0.34964 0.0
C3632 C 0.34398 0.67299 0.40009 0.0
C3633 C 0.33443 0.66183 0.39876 0.0
C3634 C 0.35569 0.67392 0.39155 0.0
C3635 C 0.35857 0.6635 0.38166 0.0
C3636 C 0.3492 0.65215 0.38037 0.0
H3637 H 0.43361 0.65258 0.33115 0.0
H3638 H 0.41105 0.64975 0.34274 0.0
C3639 C 0.33718 0.65141 0.38875 0.0
C3640 C 0.37189 0.66435 0.37359 0.0
H3641 H 0.38578 0.66492 0.34071 0.0
C3642 C 0.38436 0.66684 0.38107 0.0
C3643 C 0.37242 0.66364 0.35881 0.0
C3644 C 0.35943 0.6615 0.35002 0.0
C3645 C 0.39719 0.66883 0.3743 0.0
C3646 C 0.39769 0.66829 0.35955 0.0
C3647 C 0.38535 0.66543 0.35202 0.0
C3648 C 0.411 0.67046 0.35184 0.0
C3649 C 0.41014 0.67138 0.38303 0.0
C3650 C 0.41839 0.68315 0.35289 0.0
C3651 C 0.43134 0.68481 0.34628 0.0
C3652 C 0.43707 0.67385 0.33834 0.0
C3653 C 0.42944 0.6613 0.33703 0.0
C3654 C 0.41655 0.65963 0.34369 0.0
H3655 H 0.40866 0.66805 0.39404 0.0
H3656 H 0.41928 0.66575 0.37867 0.0
H3657 H 0.41259 0.68273 0.38309 0.0
H3658 H 0.41418 0.69176 0.3589 0.0
H3659 H 0.43683 0.69468 0.34733 0.0
H3660 H 0.17343 0.32646 0.6277 0.0
H3661 H 0.14838 0.32586 0.63282 0.0
H3662 H 0.1503 0.28123 0.63838 0.0
H3663 H 0.17547 0.28173 0.63338 0.0
H3664 H 0.12675 0.3067 0.61781 0.0
H3665 H 0.13223 0.29968 0.67536 0.0
H3666 H 0.14597 0.30751 0.66508 0.0
H3667 H 0.14262 0.28912 0.66376 0.0
C3668 C 0.16855 0.31652 0.63007 0.0
C3669 C 0.17643 0.30414 0.6302 0.0
C3670 C 0.15424 0.31619 0.63292 0.0
C3671 C 0.14758 0.30353 0.63606 0.0
C3672 C 0.15533 0.29112 0.63605 0.0
H3673 H 0.06199 0.29633 0.66804 0.0
H3674 H 0.08567 0.29027 0.66059 0.0
C3675 C 0.16965 0.29141 0.63311 0.0
C3676 C 0.13248 0.30343 0.63929 0.0
H3677 H 0.10952 0.30271 0.66644 0.0
C3678 C 0.12292 0.30569 0.62841 0.0
C3679 C 0.12759 0.30194 0.6531 0.0
C3680 C 0.13757 0.29947 0.66508 0.0
C3681 C 0.10854 0.30678 0.63101 0.0
C3682 C 0.10365 0.30608 0.64495 0.0
C3683 C 0.11322 0.3033 0.65577 0.0
C3684 C 0.08888 0.30915 0.64863 0.0
C3685 C 0.09876 0.30864 0.61874 0.0
C3686 C 0.08277 0.32175 0.64439 0.0
C3687 C 0.06914 0.32507 0.6483 0.0
C3688 C 0.06139 0.31608 0.65697 0.0
C3689 C 0.06752 0.30342 0.6612 0.0
C3690 C 0.08113 0.29999 0.65706 0.0
H3691 H 0.1031 0.30376 0.60915 0.0
H3692 H 0.08831 0.30401 0.62078 0.0
H3693 H 0.0975 0.31996 0.61662 0.0
H3694 H 0.08863 0.32921 0.63824 0.0
H3695 H 0.06477 0.33481 0.64462 0.0
H3696 H 0.83436 0.00407 0.6476 0.0
H3697 H 0.85902 0.0103 0.65096 0.0
H3698 H 0.86017 0.02786 0.60958 0.0
H3699 H 0.83546 0.02207 0.60628 0.0
H3700 H 0.88358 0.00358 0.6357 0.0
H3701 H 0.8723 0.0605 0.63497 0.0
H3702 H 0.85874 0.04746 0.63672 0.0
H3703 H 0.86617 0.05103 0.61989 0.0
C3704 C 0.83986 0.00927 0.63922 0.0
C3705 C 0.83289 0.01269 0.62673 0.0
C3706 C 0.85397 0.01273 0.64112 0.0
C3707 C 0.86135 0.01975 0.63061 0.0
C3708 C 0.8546 0.02265 0.61791 0.0
H3709 H 0.94427 0.05732 0.62754 0.0
H3710 H 0.92141 0.04727 0.62159 0.0
C3711 C 0.84051 0.01919 0.61599 0.0
C3712 C 0.87591 0.02455 0.63316 0.0
H3713 H 0.89609 0.05396 0.63608 0.0
C3714 C 0.88633 0.01459 0.63579 0.0
C3715 C 0.87945 0.03892 0.63331 0.0
C3716 C 0.86858 0.05013 0.6312 0.0
C3717 C 0.90025 0.01864 0.63843 0.0
C3718 C 0.90376 0.03301 0.6386 0.0
C3719 C 0.89336 0.04295 0.63588 0.0
C3720 C 0.91808 0.03805 0.6419 0.0
C3721 C 0.91114 0.00754 0.64083 0.0
C3722 C 0.92378 0.03618 0.6553 0.0
C3723 C 0.93683 0.04193 0.65874 0.0
C3724 C 0.94443 0.04964 0.64883 0.0
C3725 C 0.93878 0.05128 0.63534 0.0
C3726 C 0.92569 0.04561 0.63195 0.0
H3727 H 0.9075 0.99709 0.63721 0.0
H3728 H 0.92101 0.0102 0.63535 0.0
H3729 H 0.91348 0.00688 0.65217 0.0
H3730 H 0.91797 0.03056 0.6632 0.0
H3731 H 0.94093 0.04043 0.66919 0.0
H3732 H 0.63639 0.94183 0.35904 0.0
H3733 H 0.6123 0.93318 0.36029 0.0
H3734 H 0.62736 0.89397 0.37654 0.0
H3735 H 0.65122 0.90266 0.37558 0.0
H3736 H 0.60139 0.91417 0.34595 0.0
H3737 H 0.59446 0.89694 0.4002 0.0
H3738 H 0.60928 0.90739 0.39503 0.0
H3739 H 0.6096 0.88861 0.39314 0.0
C3740 C 0.63449 0.93149 0.36321 0.0
C3741 C 0.64572 0.92288 0.3671 0.0
C3742 C 0.6207 0.92651 0.36387 0.0
C3743 C 0.61784 0.91288 0.36858 0.0
C3744 C 0.62907 0.90458 0.3731 0.0
H3745 H 0.55103 0.85383 0.34994 0.0
H3746 H 0.57336 0.86534 0.35557 0.0
C3747 C 0.64282 0.90949 0.37233 0.0
C3748 C 0.6035 0.90673 0.36707 0.0
H3749 H 0.57925 0.88582 0.38304 0.0
C3750 C 0.59666 0.90797 0.3541 0.0
C3751 C 0.59693 0.8989 0.37777 0.0
C3752 C 0.60291 0.89803 0.39235 0.0
C3753 C 0.58399 0.90106 0.35129 0.0
C3754 C 0.57775 0.89287 0.36179 0.0
C3755 C 0.58423 0.89193 0.37492 0.0
C3756 C 0.56423 0.88563 0.35933 0.0
C3757 C 0.57739 0.90234 0.33701 0.0
C3758 C 0.55174 0.8932 0.35979 0.0
C3759 C 0.53899 0.88667 0.3567 0.0
C3760 C 0.53845 0.87241 0.353 0.0
C3761 C 0.55102 0.86478 0.35283 0.0
C3762 C 0.56379 0.87135 0.35599 0.0
H3763 H 0.58423 0.908 0.32956 0.0
H3764 H 0.57503 0.8918 0.3327 0.0
H3765 H 0.56735 0.90806 0.33788 0.0
H3766 H 0.55187 0.90423 0.36241 0.0
H3767 H 0.52953 0.89283 0.35726 0.0
H3768 H 0.39279 0.33243 0.688 0.0
H3769 H 0.38047 0.35465 0.69148 0.0
H3770 H 0.37313 0.35743 0.64711 0.0
H3771 H 0.38541 0.33521 0.64367 0.0
H3772 H 0.38925 0.38054 0.67843 0.0
H3773 H 0.3344 0.36626 0.66503 0.0
H3774 H 0.34734 0.3534 0.66981 0.0
H3775 H 0.34746 0.36094 0.65267 0.0
C3776 C 0.38822 0.33764 0.67906 0.0
C3777 C 0.38992 0.33212 0.66559 0.0
C3778 C 0.38129 0.35036 0.68103 0.0
C3779 C 0.37581 0.35767 0.66957 0.0
C3780 C 0.37712 0.3519 0.65612 0.0
H3781 H 0.33514 0.43759 0.65769 0.0
H3782 H 0.34514 0.41423 0.65553 0.0
C3783 C 0.38418 0.33923 0.65415 0.0
C3784 C 0.36962 0.37178 0.67159 0.0
H3785 H 0.3393 0.3903 0.66843 0.0
C3786 C 0.37831 0.38268 0.67633 0.0
C3787 C 0.35538 0.37456 0.66873 0.0
C3788 C 0.34553 0.36318 0.66387 0.0
C3789 C 0.37324 0.39636 0.67801 0.0
C3790 C 0.35894 0.39916 0.67527 0.0
C3791 C 0.35024 0.3882 0.67058 0.0
C3792 C 0.35286 0.41342 0.6768 0.0
C3793 C 0.38339 0.40776 0.68223 0.0
C3794 C 0.3537 0.42079 0.68952 0.0
C3795 C 0.34806 0.43424 0.69075 0.0
C3796 C 0.34122 0.4405 0.67936 0.0
C3797 C 0.3402 0.43302 0.66672 0.0
C3798 C 0.34596 0.41966 0.66546 0.0
H3799 H 0.39437 0.4048 0.67992 0.0
H3800 H 0.38103 0.4177 0.67677 0.0
H3801 H 0.3826 0.4096 0.69364 0.0
H3802 H 0.35863 0.4161 0.69855 0.0
H3803 H 0.34884 0.43965 0.70068 0.0
H3804 H 0.36329 0.65395 0.8961 0.0
H3805 H 0.36295 0.63043 0.8866 0.0
H3806 H 0.38093 0.61475 0.92475 0.0
H3807 H 0.38188 0.6384 0.93423 0.0
H3808 H 0.38161 0.61021 0.88149 0.0
H3809 H 0.34487 0.59288 0.92253 0.0
H3810 H 0.3523 0.61017 0.92284 0.0
H3811 H 0.36216 0.59567 0.92931 0.0
C3812 C 0.36746 0.64567 0.90247 0.0
C3813 C 0.37214 0.64827 0.9162 0.0
C3814 C 0.36719 0.63211 0.89699 0.0
C3815 C 0.37137 0.62072 0.90516 0.0
C3816 C 0.37711 0.62331 0.91844 0.0
H3817 H 0.36181 0.53111 0.89012 0.0
H3818 H 0.36766 0.55406 0.89983 0.0
C3819 C 0.37754 0.63691 0.92388 0.0
C3820 C 0.36928 0.60623 0.89981 0.0
H3821 H 0.35209 0.57553 0.9061 0.0
C3822 C 0.37515 0.60262 0.88688 0.0
C3823 C 0.36105 0.5962 0.90696 0.0
C3824 C 0.35466 0.59899 0.9211 0.0
C3825 C 0.37308 0.58933 0.88091 0.0
C3826 C 0.36432 0.57956 0.88772 0.0
C3827 C 0.35863 0.58308 0.90076 0.0
C3828 C 0.36097 0.56561 0.8816 0.0
C3829 C 0.38077 0.58573 0.86765 0.0
C3830 C 0.35512 0.56439 0.86815 0.0
C3831 C 0.35179 0.55126 0.86255 0.0
C3832 C 0.35406 0.53906 0.87037 0.0
C3833 C 0.35978 0.54031 0.88388 0.0
C3834 C 0.36319 0.55343 0.88943 0.0
H3835 H 0.39023 0.59236 0.86634 0.0
H3836 H 0.38398 0.5746 0.86754 0.0
H3837 H 0.37385 0.58756 0.85854 0.0
H3838 H 0.35296 0.57359 0.86201 0.0
H3839 H 0.34722 0.55067 0.85219 0.0
H3840 H 0.61073 0.16589 0.30689 0.0
H3841 H 0.61766 0.14134 0.30535 0.0
H3842 H 0.66109 0.1536 0.30631 0.0
H3843 H 0.6543 0.1782 0.30754 0.0
H3844 H 0.63686 0.12812 0.28428 0.0
H3845 H 0.65488 0.12534 0.33956 0.0
H3846 H 0.64307 0.13868 0.33341 0.0
H3847 H 0.66137 0.13978 0.32947 0.0
C3848 C 0.62176 0.16338 0.30665 0.0
C3849 C 0.63197 0.17398 0.30741 0.0
C3850 C 0.62568 0.14937 0.30579 0.0
C3851 C 0.63986 0.14574 0.30579 0.0
C3852 C 0.65009 0.15626 0.30643 0.0
H3853 H 0.68331 0.06751 0.31417 0.0
H3854 H 0.67745 0.09197 0.30956 0.0
C3855 C 0.64619 0.17027 0.30724 0.0
C3856 C 0.64397 0.13092 0.30547 0.0
H3857 H 0.65866 0.1055 0.32548 0.0
C3858 C 0.64163 0.12311 0.29325 0.0
C3859 C 0.65015 0.12454 0.31723 0.0
C3860 C 0.65245 0.13243 0.33072 0.0
C3861 C 0.64559 0.10902 0.29241 0.0
C3862 C 0.65177 0.10261 0.30419 0.0
C3863 C 0.65402 0.11047 0.31641 0.0
C3864 C 0.65578 0.08769 0.30436 0.0
C3865 C 0.64336 0.10121 0.27886 0.0
C3866 C 0.64564 0.07716 0.30258 0.0
C3867 C 0.64905 0.06318 0.30503 0.0
C3868 C 0.66259 0.05965 0.30941 0.0
C3869 C 0.67286 0.07007 0.31062 0.0
C3870 C 0.6695 0.08399 0.30805 0.0
H3871 H 0.64239 0.10847 0.26988 0.0
H3872 H 0.65209 0.09388 0.2768 0.0
H3873 H 0.63353 0.09506 0.2795 0.0
H3874 H 0.63492 0.07981 0.30007 0.0
H3875 H 0.64095 0.05526 0.30432 0.0
H3876 H 0.60559 0.83583 0.01527 0.0
H3877 H 0.60855 0.86089 0.0195 0.0
H3878 H 0.65335 0.85595 0.01905 0.0
H3879 H 0.65051 0.83102 0.01428 0.0
H3880 H 0.62129 0.87256 0.04236 0.0
H3881 H 0.64834 0.88997 0.99444 0.0
H3882 H 0.63948 0.87332 0.99557 0.0
H3883 H 0.65681 0.87546 0.00268 0.0
C3884 C 0.61608 0.84012 0.01573 0.0
C3885 C 0.62782 0.83137 0.01444 0.0
C3886 C 0.61775 0.85444 0.01824 0.0
C3887 C 0.63117 0.86035 0.01942 0.0
C3888 C 0.6429 0.85171 0.01789 0.0
H3889 H 0.67011 0.93663 0.04649 0.0
H3890 H 0.66375 0.91382 0.03692 0.0
C3891 C 0.64125 0.8374 0.01536 0.0
C3892 C 0.63295 0.87528 0.02338 0.0
H3893 H 0.6493 0.90561 0.014 0.0
C3894 C 0.62726 0.87986 0.03608 0.0
C3895 C 0.64075 0.88477 0.01518 0.0
C3896 C 0.64658 0.88068 1.00114 0.0
C3897 C 0.62968 0.89346 0.04112 0.0
C3898 C 0.63777 0.90287 0.03308 0.0
C3899 C 0.64313 0.8984 0.02019 0.0
C3900 C 0.64142 0.91712 0.03821 0.0
C3901 C 0.62405 0.89737 0.05531 0.0
C3902 C 0.631 0.92676 0.04183 0.0
C3903 C 0.6346 0.93975 0.04762 0.0
C3904 C 0.64873 0.94348 0.0497 0.0
C3905 C 0.65913 0.93403 0.0454 0.0
C3906 C 0.65551 0.92101 0.03978 0.0
H3907 H 0.62128 0.888 0.06156 0.0
H3908 H 0.63179 0.90369 0.06132 0.0
H3909 H 0.61443 0.90368 0.05397 0.0
H3910 H 0.62005 0.92416 0.0404 0.0
H3911 H 0.62627 0.94666 0.05084 0.0
H3912 H 0.65958 0.41622 0.35698 0.0
H3913 H 0.66338 0.40106 0.37707 0.0
H3914 H 0.67909 0.36876 0.34996 0.0
H3915 H 0.6749 0.38372 0.32963 0.0
H3916 H 0.65126 0.37249 0.38028 0.0
H3917 H 0.7095 0.3743 0.38202 0.0
H3918 H 0.69932 0.38765 0.37342 0.0
H3919 H 0.70113 0.37076 0.36548 0.0
C3920 C 0.66373 0.40586 0.35521 0.0
C3921 C 0.66685 0.40122 0.3416 0.0
C3922 C 0.66599 0.39724 0.36675 0.0
C3923 C 0.67159 0.38383 0.36503 0.0
C3924 C 0.67491 0.37915 0.35154 0.0
H3925 H 0.6899 0.32282 0.43144 0.0
H3926 H 0.68798 0.33408 0.40848 0.0
C3927 C 0.67256 0.38775 0.33993 0.0
C3928 C 0.67347 0.37469 0.37741 0.0
H3929 H 0.69817 0.36129 0.39951 0.0
C3930 C 0.66152 0.36997 0.38444 0.0
C3931 C 0.68685 0.3713 0.38273 0.0
C3932 C 0.69999 0.37628 0.37562 0.0
C3933 C 0.66258 0.36218 0.3968 0.0
C3934 C 0.67595 0.35929 0.40247 0.0
C3935 C 0.68793 0.36358 0.39518 0.0
C3936 C 0.67759 0.35254 0.41634 0.0
C3937 C 0.64937 0.3571 0.40374 0.0
C3938 C 0.67267 0.35928 0.42838 0.0
C3939 C 0.67377 0.35288 0.44145 0.0
C3940 C 0.67982 0.33957 0.44275 0.0
C3941 C 0.68502 0.33296 0.4307 0.0
C3942 C 0.68399 0.33942 0.41762 0.0
H3943 H 0.64041 0.35683 0.39632 0.0
H3944 H 0.65082 0.34649 0.40816 0.0
H3945 H 0.64668 0.36431 0.41242 0.0
H3946 H 0.66788 0.36949 0.42767 0.0
H3947 H 0.66956 0.35822 0.45048 0.0
H3948 H 0.90916 0.38024 0.64529 0.0
H3949 H 0.90069 0.37858 0.62139 0.0
H3950 H 0.9345 0.35065 0.61127 0.0
H3951 H 0.94257 0.35161 0.63553 0.0
H3952 H 0.90863 0.38374 0.59642 0.0
H3953 H 0.90299 0.32633 0.6008 0.0
H3954 H 0.91082 0.33657 0.6145 0.0
H3955 H 0.921 0.33153 0.59965 0.0
C3956 C 0.91475 0.37361 0.63805 0.0
C3957 C 0.92628 0.36567 0.64253 0.0
C3958 C 0.90997 0.3728 0.62428 0.0
C3959 C 0.91657 0.36402 0.61457 0.0
C3960 C 0.92886 0.35707 0.61866 0.0
H3961 H 0.88992 0.33546 0.5326 0.0
H3962 H 0.90223 0.34042 0.5542 0.0
C3963 C 0.93357 0.35774 0.63254 0.0
C3964 C 0.90999 0.36168 0.60057 0.0
H3965 H 0.89645 0.33633 0.57918 0.0
C3966 C 0.90601 0.37335 0.59263 0.0
C3967 C 0.90661 0.34813 0.59546 0.0
C3968 C 0.91048 0.33495 0.60311 0.0
C3969 C 0.89887 0.3719 0.57982 0.0
C3970 C 0.89513 0.35837 0.57498 0.0
C3971 C 0.8992 0.34672 0.58286 0.0
C3972 C 0.88749 0.35586 0.56157 0.0
C3973 C 0.89578 0.38489 0.5715 0.0
C3974 C 0.87487 0.36269 0.55843 0.0
C3975 C 0.86802 0.36031 0.54565 0.0
C3976 C 0.8734 0.3507 0.53588 0.0
C3977 C 0.88564 0.34334 0.53947 0.0
C3978 C 0.89266 0.34603 0.55201 0.0
H3979 H 0.90307 0.39355 0.57427 0.0
H3980 H 0.89653 0.38289 0.5601 0.0
H3981 H 0.88502 0.38847 0.57388 0.0
H3982 H 0.87031 0.36991 0.56583 0.0
H3983 H 0.85867 0.36622 0.54338 0.0
H3984 H 0.32569 0.64804 0.17292 0.0
H3985 H 0.32375 0.65442 0.1483 0.0
H3986 H 0.28966 0.62519 0.14304 0.0
H3987 H 0.2911 0.61919 0.16778 0.0
H3988 H 0.32701 0.63668 0.12585 0.0
H3989 H 0.27409 0.66052 0.12519 0.0
H3990 H 0.28362 0.65731 0.14117 0.0
H3991 H 0.27484 0.64319 0.1323 0.0
C3992 C 0.31762 0.64315 0.16659 0.0
C3993 C 0.30854 0.63313 0.17231 0.0
C3994 C 0.31658 0.64674 0.15252 0.0
C3995 C 0.30644 0.64041 0.14393 0.0
C3996 C 0.29737 0.63039 0.14957 0.0
H3997 H 0.29695 0.64608 0.05306 0.0
H3998 H 0.29286 0.63999 0.07769 0.0
C3999 C 0.29835 0.62683 0.16366 0.0
C4000 C 0.30591 0.64381 0.1289 0.0
H4001 H 0.28532 0.65779 0.1033 0.0
C4002 C 0.3179 0.64129 0.12092 0.0
C4003 C 0.29394 0.6497 0.12252 0.0
C4004 C 0.28092 0.65296 0.13073 0.0
C4005 C 0.31831 0.64465 0.10673 0.0
C4006 C 0.30648 0.65083 0.10041 0.0
C4007 C 0.29434 0.65304 0.10826 0.0
C4008 C 0.30701 0.65575 0.08586 0.0
C4009 C 0.33147 0.64168 0.09859 0.0
C4010 C 0.31584 0.66694 0.0825 0.0
C4011 C 0.3182 0.67035 0.06859 0.0
C4012 C 0.31168 0.66268 0.05784 0.0
C4013 C 0.30206 0.65212 0.06122 0.0
C4014 C 0.29975 0.64864 0.07521 0.0
H4015 H 0.33829 0.63404 0.10403 0.0
H4016 H 0.3289 0.63757 0.08802 0.0
H4017 H 0.33748 0.65153 0.09732 0.0
H4018 H 0.32139 0.67263 0.09063 0.0
H4019 H 0.32555 0.67864 0.0662 0.0
H4020 H 0.99993 0.6142 0.83807 0.0
H4021 H 0.00458 0.61738 0.86312 0.0
H4022 H 0.03858 0.64542 0.85354 0.0
H4023 H 0.03418 0.64219 0.82866 0.0
H4024 H 0.02934 0.61209 0.87846 0.0
H4025 H 0.01516 0.66803 0.88121 0.0
H4026 H 0.01014 0.65693 0.86673 0.0
H4027 H 0.02743 0.66442 0.86756 0.0
C4028 C 0.00841 0.62103 0.8413 0.0
C4029 C 0.01658 0.62807 0.83131 0.0
C4030 C 0.01101 0.62287 0.85562 0.0
C4031 C 0.02175 0.63185 0.8602 0.0
C4032 C 0.03 0.63873 0.85026 0.0
H4033 H 0.0695 0.65643 0.93048 0.0
H4034 H 0.05863 0.65094 0.90803 0.0
C4035 C 0.02744 0.63689 0.83601 0.0
C4036 C 0.02474 0.63386 0.87531 0.0
H4037 H 0.02938 0.65933 0.89999 0.0
C4038 C 0.02911 0.62236 0.88327 0.0
C4039 C 0.02432 0.64725 0.88159 0.0
C4040 C 0.01887 0.65984 0.87387 0.0
C4041 C 0.03388 0.62408 0.8971 0.0
C4042 C 0.0342 0.63761 0.90307 0.0
C4043 C 0.02922 0.64898 0.89533 0.0
C4044 C 0.04072 0.64042 0.91688 0.0
C4045 C 0.03918 0.61158 0.90504 0.0
C4046 C 0.03422 0.63631 0.92933 0.0
C4047 C 0.04034 0.6396 0.94228 0.0
C4048 C 0.05305 0.64708 0.94298 0.0
C4049 C 0.05957 0.65095 0.93041 0.0
C4050 C 0.05343 0.64773 0.91753 0.0
H4051 H 0.03942 0.60199 0.89848 0.0
H4052 H 0.04989 0.61369 0.9091 0.0
H4053 H 0.03232 0.60961 0.91415 0.0
H4054 H 0.02432 0.63077 0.92903 0.0
H4055 H 0.03496 0.63656 0.95173 0.0
H4056 H 0.67272 0.37564 0.60736 0.0
H4057 H 0.6521 0.3689 0.62098 0.0
H4058 H 0.65625 0.32638 0.60671 0.0
H4059 H 0.67695 0.33295 0.59323 0.0
H4060 H 0.62799 0.34126 0.60315 0.0
H4061 H 0.65033 0.34161 0.65694 0.0
H4062 H 0.65551 0.3554 0.64525 0.0
H4063 H 0.66075 0.3378 0.6417 0.0
C4064 C 0.66941 0.36481 0.60732 0.0
C4065 C 0.67648 0.35485 0.59916 0.0
C4066 C 0.6576 0.36098 0.61507 0.0
C4067 C 0.65269 0.34713 0.61487 0.0
C4068 C 0.65986 0.33712 0.60698 0.0
H4069 H 0.58489 0.3147 0.6676 0.0
H4070 H 0.60704 0.31727 0.65503 0.0
C4071 C 0.67166 0.34092 0.59924 0.0
C4072 C 0.63965 0.34327 0.62231 0.0
H4073 H 0.62582 0.33887 0.65485 0.0
C4074 C 0.6275 0.34067 0.61445 0.0
C4075 C 0.63913 0.34226 0.63702 0.0
C4076 C 0.65211 0.34432 0.64582 0.0
C4077 C 0.61471 0.33752 0.62093 0.0
C4078 C 0.614 0.33718 0.63571 0.0
C4079 C 0.62631 0.33927 0.64355 0.0
C4080 C 0.60049 0.33533 0.64318 0.0
C4081 C 0.60211 0.33452 0.61183 0.0
C4082 C 0.58946 0.34467 0.64082 0.0
C4083 C 0.57676 0.34311 0.6478 0.0
C4084 C 0.57479 0.33232 0.65757 0.0
C4085 C 0.58592 0.32302 0.66004 0.0
C4086 C 0.59864 0.32454 0.65294 0.0
H4087 H 0.60524 0.3307 0.60133 0.0
H4088 H 0.59513 0.32661 0.61667 0.0
H4089 H 0.59609 0.3443 0.61036 0.0
H4090 H 0.59069 0.35327 0.6336 0.0
H4091 H 0.56843 0.35037 0.64543 0.0
H4092 H 0.82862 0.71259 0.37151 0.0
H4093 H 0.85249 0.71421 0.36251 0.0
H4094 H 0.85785 0.66996 0.36897 0.0
H4095 H 0.83391 0.66824 0.37778 0.0
H4096 H 0.87735 0.7084 0.37489 0.0
H4097 H 0.86968 0.67416 0.32872 0.0
H4098 H 0.85525 0.68084 0.33879 0.0
H4099 H 0.86477 0.66576 0.34468 0.0
C4100 C 0.83491 0.70321 0.37104 0.0
C4101 C 0.82941 0.69026 0.37528 0.0
C4102 C 0.84851 0.70415 0.36585 0.0
C4103 C 0.85684 0.69217 0.36481 0.0
C4104 C 0.85146 0.67927 0.36931 0.0
H4105 H 0.94284 0.67381 0.35608 0.0
H4106 H 0.91812 0.67636 0.36201 0.0
C4107 C 0.83782 0.6783 0.37438 0.0
C4108 C 0.87128 0.69318 0.35934 0.0
H4109 H 0.89346 0.67913 0.33527 0.0
C4110 C 0.88083 0.70214 0.36611 0.0
C4111 C 0.87575 0.68515 0.34776 0.0
C4112 C 0.86579 0.67605 0.33947 0.0
C4113 C 0.89489 0.70276 0.36201 0.0
C4114 C 0.89946 0.69419 0.35094 0.0
C4115 C 0.88986 0.68563 0.34382 0.0
C4116 C 0.9144 0.6931 0.34738 0.0
C4117 C 0.90494 0.71224 0.36972 0.0
C4118 C 0.92037 0.70168 0.33715 0.0
C4119 C 0.93452 0.70024 0.33372 0.0
C4120 C 0.94284 0.69027 0.34056 0.0
C4121 C 0.93674 0.68174 0.35082 0.0
C4122 C 0.92264 0.68312 0.35417 0.0
H4123 H 0.89962 0.71873 0.37772 0.0
H4124 H 0.9131 0.70587 0.37494 0.0
H4125 H 0.91029 0.71923 0.3622 0.0
H4126 H 0.91409 0.70942 0.33183 0.0
H4127 H 0.93898 0.70696 0.32581 0.0
H4128 H 0.16951 0.97569 0.39837 0.0
H4129 H 0.1446 0.97137 0.39424 0.0
H4130 H 0.14691 0.99399 0.35546 0.0
H4131 H 0.17187 0.99837 0.3595 0.0
H4132 H 0.12163 0.98931 0.38958 0.0
H4133 H 0.13214 0.95547 0.34353 0.0
H4134 H 0.14572 0.96079 0.3556 0.0
H4135 H 0.13945 0.97276 0.3426 0.0
C4136 C 0.16468 0.97993 0.38905 0.0
C4137 C 0.17271 0.98727 0.37919 0.0
C4138 C 0.15045 0.97741 0.38669 0.0
C4139 C 0.14397 0.98215 0.37443 0.0
C4140 C 0.15179 0.98998 0.36484 0.0
H4141 H 0.06184 0.96301 0.3391 0.0
H4142 H 0.08459 0.97378 0.34395 0.0
C4143 C 0.16604 0.99246 0.36716 0.0
C4144 C 0.12918 0.97837 0.37145 0.0
H4145 H 0.10853 0.95961 0.34899 0.0
C4146 C 0.11874 0.98286 0.38069 0.0
C4147 C 0.12544 0.96994 0.35984 0.0
C4148 C 0.13626 0.96434 0.34987 0.0
C4149 C 0.10463 0.97917 0.37859 0.0
C4150 C 0.10093 0.97056 0.36709 0.0
C4151 C 0.11136 0.96626 0.35776 0.0
C4152 C 0.08645 0.96532 0.3648 0.0
C4153 C 0.09383 0.98465 0.38863 0.0
C4154 C 0.07986 0.95709 0.37495 0.0
C4155 C 0.06678 0.95104 0.37227 0.0
C4156 C 0.06008 0.95295 0.3593 0.0
C4157 C 0.06658 0.96147 0.34926 0.0
C4158 C 0.07964 0.96755 0.35198 0.0
H4159 H 0.09751 0.99433 0.39397 0.0
H4160 H 0.0838 0.98691 0.3832 0.0
H4161 H 0.09182 0.97667 0.39676 0.0
H4162 H 0.08501 0.95496 0.38481 0.0
H4163 H 0.06202 0.94468 0.38029 0.0
H4164 H 0.35366 0.11118 0.63156 0.0
H4165 H 0.37746 0.1205 0.63436 0.0
H4166 H 0.39169 0.08 0.64784 0.0
H4167 H 0.36801 0.07061 0.64476 0.0
H4168 H 0.39468 0.12161 0.65808 0.0
H4169 H 0.41874 0.08944 0.61628 0.0
H4170 H 0.40004 0.09122 0.61808 0.0
H4171 H 0.40956 0.07953 0.62926 0.0
C4172 C 0.36191 0.10426 0.63499 0.0
C4173 C 0.35901 0.09015 0.63791 0.0
C4174 C 0.37547 0.1096 0.63667 0.0
C4175 C 0.3864 0.1009 0.6411 0.0
C4176 C 0.38348 0.08685 0.64415 0.0
H4177 H 0.4717 0.11934 0.6673 0.0
H4178 H 0.44837 0.10893 0.66373 0.0
C4179 C 0.36992 0.08153 0.64256 0.0
C4180 C 0.40083 0.10652 0.64257 0.0
H4181 H 0.43426 0.10279 0.63054 0.0
C4182 C 0.4033 0.11751 0.65205 0.0
C4183 C 0.4121 0.1012 0.63463 0.0
C4184 C 0.41001 0.08978 0.6239 0.0
C4185 C 0.41678 0.12312 0.65394 0.0
C4186 C 0.42798 0.11775 0.64607 0.0
C4187 C 0.42557 0.10684 0.63656 0.0
C4188 C 0.44226 0.12352 0.64764 0.0
C4189 C 0.41913 0.13481 0.66429 0.0
C4190 C 0.44644 0.13511 0.63974 0.0
C4191 C 0.45974 0.14096 0.64168 0.0
C4192 C 0.46891 0.13543 0.65171 0.0
C4193 C 0.4647 0.12383 0.65961 0.0
C4194 C 0.45148 0.11785 0.65752 0.0
H4195 H 0.40983 0.13671 0.67081 0.0
H4196 H 0.42808 0.13237 0.67128 0.0
H4197 H 0.42176 0.14455 0.65858 0.0
H4198 H 0.43937 0.13967 0.63217 0.0
H4199 H 0.46281 0.14992 0.63551 0.0
H4200 H 0.59311 0.67439 0.33289 0.0
H4201 H 0.60657 0.65363 0.32636 0.0
H4202 H 0.62158 0.65001 0.36867 0.0
H4203 H 0.60797 0.67059 0.3754 0.0
H4204 H 0.64255 0.64848 0.34233 0.0
H4205 H 0.59692 0.61204 0.34358 0.0
H4206 H 0.59496 0.62919 0.33607 0.0
H4207 H 0.59761 0.62745 0.35451 0.0
C4208 C 0.59918 0.66912 0.34085 0.0
C4209 C 0.59945 0.67418 0.35469 0.0
C4210 C 0.60694 0.65733 0.33706 0.0
C4211 C 0.61506 0.65034 0.34704 0.0
C4212 C 0.61543 0.65534 0.36082 0.0
H4213 H 0.65132 0.56942 0.35393 0.0
H4214 H 0.63852 0.59125 0.35566 0.0
C4215 C 0.60766 0.66711 0.36463 0.0
C4216 C 0.62289 0.63754 0.34324 0.0
H4217 H 0.6189 0.60235 0.33875 0.0
C4218 C 0.63742 0.63838 0.34143 0.0
C4219 C 0.61611 0.62445 0.34211 0.0
C4220 C 0.60054 0.62307 0.34418 0.0
C4221 C 0.64543 0.62635 0.3388 0.0
C4222 C 0.63867 0.61317 0.33788 0.0
C4223 C 0.62407 0.61244 0.33942 0.0
C4224 C 0.64658 0.59988 0.33645 0.0
C4225 C 0.6611 0.62781 0.33757 0.0
C4226 C 0.65528 0.59731 0.32495 0.0
C4227 C 0.66289 0.58485 0.32406 0.0
C4228 C 0.66189 0.57465 0.33458 0.0
C4229 C 0.65278 0.57714 0.34583 0.0
C4230 C 0.64528 0.5896 0.34677 0.0
H4231 H 0.6649 0.63804 0.34161 0.0
H4232 H 0.66652 0.61935 0.34334 0.0
H4233 H 0.66409 0.62703 0.32641 0.0
H4234 H 0.65621 0.60492 0.31666 0.0
H4235 H 0.66969 0.5833 0.31521 0.0
H4236 H 0.64565 0.36718 0.06211 0.0
H4237 H 0.64871 0.39073 0.0717 0.0
H4238 H 0.62659 0.37837 0.10887 0.0
H4239 H 0.62373 0.35494 0.09952 0.0
H4240 H 0.61947 0.40328 0.10294 0.0
H4241 H 0.67709 0.40142 0.09966 0.0
H4242 H 0.66948 0.40258 0.08256 0.0
H4243 H 0.66634 0.38739 0.09306 0.0
C4244 C 0.64155 0.36946 0.07239 0.0
C4245 C 0.63456 0.35905 0.08008 0.0
C4246 C 0.64332 0.38296 0.07788 0.0
C4247 C 0.63841 0.3863 0.09131 0.0
C4248 C 0.63086 0.37609 0.09867 0.0
H4249 H 0.65912 0.45391 0.14966 0.0
H4250 H 0.6554 0.43111 0.1383 0.0
C4251 C 0.62907 0.36264 0.09321 0.0
C4252 C 0.6412 0.40025 0.09789 0.0
H4253 H 0.66725 0.42333 0.10692 0.0
C4254 C 0.62994 0.40759 0.1038 0.0
C4255 C 0.65488 0.40603 0.09912 0.0
C4256 C 0.66763 0.39887 0.09336 0.0
C4257 C 0.63196 0.42041 0.11077 0.0
C4258 C 0.64556 0.42609 0.11191 0.0
C4259 C 0.65683 0.41887 0.10607 0.0
C4260 C 0.64818 0.4398 0.11874 0.0
C4261 C 0.61957 0.42785 0.11698 0.0
C4262 C 0.64558 0.45217 0.11142 0.0
C4263 C 0.64779 0.46516 0.1178 0.0
C4264 C 0.65262 0.46608 0.1317 0.0
C4265 C 0.65548 0.45361 0.13894 0.0
C4266 C 0.65328 0.44058 0.1325 0.0
H4267 H 0.60982 0.42153 0.11623 0.0
H4268 H 0.62166 0.43036 0.12813 0.0
H4269 H 0.61791 0.43787 0.11142 0.0
H4270 H 0.64179 0.45177 0.10074 0.0
H4271 H 0.64578 0.4745 0.11178 0.0
H4272 H 0.37205 0.8265 0.71163 0.0
H4273 H 0.36233 0.85005 0.71369 0.0
H4274 H 0.37281 0.85809 0.67067 0.0
H4275 H 0.38232 0.83446 0.66849 0.0
H4276 H 0.37462 0.87554 0.71032 0.0
H4277 H 0.33181 0.86848 0.67171 0.0
H4278 H 0.34167 0.85398 0.6786 0.0
H4279 H 0.34865 0.8644 0.66463 0.0
C4280 C 0.37231 0.83333 0.70263 0.0
C4281 C 0.37787 0.82868 0.68987 0.0
C4282 C 0.36672 0.84673 0.70381 0.0
C4283 C 0.3666 0.8557 0.69226 0.0
C4284 C 0.37244 0.85119 0.6796 0.0
H4285 H 0.35828 0.94228 0.67831 0.0
H4286 H 0.36512 0.91792 0.68127 0.0
C4287 C 0.37792 0.83774 0.67838 0.0
C4288 C 0.36062 0.86988 0.6935 0.0
H4289 H 0.33715 0.89209 0.67845 0.0
C4290 C 0.36631 0.87911 0.70347 0.0
C4291 C 0.34962 0.87444 0.6847 0.0
C4292 C 0.34248 0.86476 0.67441 0.0
C4293 C 0.36175 0.893 0.70438 0.0
C4294 C 0.35133 0.8977 0.69507 0.0
C4295 C 0.34522 0.88837 0.68551 0.0
C4296 C 0.3475 0.91257 0.69427 0.0
C4297 C 0.36826 0.90271 0.71502 0.0
C4298 C 0.33534 0.91753 0.70069 0.0
C4299 C 0.33144 0.93152 0.69916 0.0
C4300 C 0.33964 0.9407 0.69111 0.0
C4301 C 0.35188 0.9356 0.68482 0.0
C4302 C 0.35577 0.92168 0.68641 0.0
H4303 H 0.37514 0.89709 0.72249 0.0
H4304 H 0.37457 0.91078 0.70958 0.0
H4305 H 0.35996 0.90819 0.72095 0.0
H4306 H 0.32884 0.91055 0.70678 0.0
H4307 H 0.32203 0.93515 0.70424 0.0
H4308 H 0.36703 0.16811 0.00454 0.0
H4309 H 0.36301 0.14308 1.00034 0.0
H4310 H 0.38792 0.14537 0.96296 0.0
H4311 H 0.39222 0.17017 0.96729 0.0
H4312 H 0.35011 0.13042 0.97908 0.0
H4313 H 0.40467 0.1116 0.9808 0.0
H4314 H 0.39988 0.12885 0.98674 0.0
H4315 H 0.40267 0.12547 0.96843 0.0
C4316 C 0.37173 0.16321 0.9955 0.0
C4317 C 0.38005 0.17105 0.98631 0.0
C4318 C 0.36945 0.14892 0.99312 0.0
C4319 C 0.37542 0.14224 0.9815 0.0
C4320 C 0.3836 0.15013 0.97226 0.0
H4321 H 0.35488 0.0718 0.93172 0.0
H4322 H 0.35967 0.09442 0.94268 0.0
C4323 C 0.386 0.16434 0.9747 0.0
C4324 C 0.37241 0.12726 0.97848 0.0
H4325 H 0.38792 0.09644 0.96931 0.0
C4326 C 0.35839 0.12295 0.97718 0.0
C4327 C 0.3832 0.11741 0.97613 0.0
C4328 C 0.39843 0.12104 0.97825 0.0
C4329 C 0.35492 0.10932 0.97288 0.0
C4330 C 0.3657 0.09981 0.96973 0.0
C4331 C 0.37968 0.10384 0.97164 0.0
C4332 C 0.36264 0.086 0.96339 0.0
C4333 C 0.33975 0.1052 0.97137 0.0
C4334 C 0.36276 0.07379 0.97145 0.0
C4335 C 0.36006 0.06078 0.9652 0.0
C4336 C 0.35733 0.05978 0.95076 0.0
C4337 C 0.35717 0.07212 0.9428 0.0
C4338 C 0.3598 0.08508 0.94905 0.0
H4339 H 0.33262 0.11319 0.9758 0.0
H4340 H 0.33719 0.10376 0.96014 0.0
H4341 H 0.33782 0.09507 0.97667 0.0
H4342 H 0.36496 0.07434 0.98255 0.0
H4343 H 0.36035 0.05149 0.97162 0.0
H4344 H 0.37198 0.58789 0.65718 0.0
H4345 H 0.36535 0.60178 0.63683 0.0
H4346 H 0.32681 0.61323 0.6569 0.0
H4347 H 0.33316 0.59911 0.67721 0.0
H4348 H 0.34035 0.59945 0.61949 0.0
H4349 H 0.34478 0.65123 0.6458 0.0
H4350 H 0.35247 0.63563 0.65306 0.0
H4351 H 0.33394 0.63837 0.65416 0.0
C4352 C 0.36202 0.59323 0.65727 0.0
C4353 C 0.35317 0.59238 0.66897 0.0
C4354 C 0.35828 0.60124 0.64562 0.0
C4355 C 0.34567 0.60871 0.64539 0.0
C4356 C 0.33672 0.60779 0.65693 0.0
H4357 H 0.31623 0.66993 0.58368 0.0
H4358 H 0.31796 0.65475 0.60407 0.0
C4359 C 0.34041 0.59972 0.66858 0.0
C4360 C 0.34195 0.61739 0.63301 0.0
H4361 H 0.33784 0.65115 0.62221 0.0
C4362 C 0.33976 0.61076 0.62008 0.0
C4363 C 0.34095 0.63212 0.63382 0.0
C4364 C 0.34324 0.63984 0.64741 0.0
C4365 C 0.33672 0.61843 0.60793 0.0
C4366 C 0.33636 0.63324 0.60858 0.0
C4367 C 0.33819 0.63984 0.62162 0.0
C4368 C 0.33477 0.6421 0.59583 0.0
C4369 C 0.33366 0.61049 0.59461 0.0
C4370 C 0.34364 0.64021 0.58434 0.0
C4371 C 0.34242 0.64863 0.57249 0.0
C4372 C 0.33258 0.65954 0.57191 0.0
C4373 C 0.3238 0.66155 0.58353 0.0
C4374 C 0.32486 0.65293 0.59532 0.0
H4375 H 0.32925 0.59997 0.59684 0.0
H4376 H 0.32619 0.61618 0.58781 0.0
H4377 H 0.34355 0.60894 0.5888 0.0
H4378 H 0.35167 0.63227 0.58454 0.0
H4379 H 0.34923 0.64647 0.56376 0.0
H4380 H 0.09413 0.61988 0.35623 0.0
H4381 H 0.10535 0.62054 0.37927 0.0
H4382 H 0.08165 0.65729 0.38984 0.0
H4383 H 0.07004 0.65631 0.36709 0.0
H4384 H 0.12199 0.64033 0.39064 0.0
H4385 H 0.07544 0.63374 0.424 0.0
H4386 H 0.07504 0.63038 0.40545 0.0
H4387 H 0.07333 0.64794 0.41202 0.0
C4388 C 0.09107 0.62793 0.36357 0.0
C4389 C 0.0811 0.63806 0.35978 0.0
C4390 C 0.09759 0.62835 0.37672 0.0
C4391 C 0.09424 0.63885 0.38642 0.0
C4392 C 0.08424 0.6489 0.3827 0.0
H4393 H 0.12746 0.6713 0.4641 0.0
H4394 H 0.11645 0.66734 0.44123 0.0
C4395 C 0.07772 0.64847 0.36959 0.0
C4396 C 0.10163 0.63974 0.40016 0.0
H4397 H 0.09608 0.64264 0.43533 0.0
C4398 C 0.11631 0.64075 0.40039 0.0
C4399 C 0.09429 0.64003 0.41299 0.0
C4400 C 0.07867 0.63781 0.41365 0.0
C4401 C 0.12374 0.64261 0.41298 0.0
C4402 C 0.11633 0.64353 0.42568 0.0
C4403 C 0.10171 0.64217 0.42554 0.0
C4404 C 0.12355 0.64601 0.43925 0.0
C4405 C 0.13946 0.64386 0.41269 0.0
C4406 C 0.13124 0.63533 0.44568 0.0
C4407 C 0.1375 0.63754 0.45877 0.0
C4408 C 0.13627 0.65051 0.46565 0.0
C4409 C 0.12875 0.66125 0.45903 0.0
C4410 C 0.12238 0.65898 0.44601 0.0
H4411 H 0.14355 0.64467 0.40189 0.0
H4412 H 0.1429 0.65314 0.41879 0.0
H4413 H 0.14413 0.63451 0.41767 0.0
H4414 H 0.13221 0.62522 0.44066 0.0
H4415 H 0.1433 0.62909 0.46352 0.0
H4416 H 0.66821 0.37804 0.83334 0.0
H4417 H 0.67034 0.36836 0.85691 0.0
H4418 H 0.71519 0.36695 0.85251 0.0
H4419 H 0.71315 0.37661 0.82898 0.0
H4420 H 0.68276 0.34245 0.86415 0.0
H4421 H 0.70976 0.38726 0.89002 0.0
H4422 H 0.70092 0.38891 0.8734 0.0
H4423 H 0.71777 0.38074 0.87438 0.0
C4424 C 0.67852 0.37567 0.83742 0.0
C4425 C 0.69051 0.37815 0.82936 0.0
C4426 C 0.67972 0.3702 0.85087 0.0
C4427 C 0.69293 0.36713 0.85648 0.0
C4428 C 0.70493 0.36955 0.84847 0.0
H4429 H 0.71459 0.33698 0.94013 0.0
H4430 H 0.71616 0.34453 0.91564 0.0
C4431 C 0.70374 0.37506 0.83504 0.0
C4432 C 0.69406 0.36091 0.87055 0.0
H4433 H 0.706 0.36711 0.90362 0.0
C4434 C 0.68786 0.34781 0.8728 0.0
C4435 C 0.70091 0.36786 0.8817 0.0
C4436 C 0.70765 0.38201 0.87985 0.0
C4437 C 0.68819 0.3415 0.88598 0.0
C4438 C 0.69455 0.34868 0.89731 0.0
C4439 C 0.7011 0.36162 0.89495 0.0
C4440 C 0.69382 0.34337 0.91182 0.0
C4441 C 0.68183 0.32712 0.88753 0.0
C4442 C 0.68079 0.34031 0.9178 0.0
C4443 C 0.67995 0.33573 0.93158 0.0
C4444 C 0.6921 0.3345 0.93974 0.0
C4445 C 0.70513 0.33776 0.93392 0.0
C4446 C 0.706 0.34209 0.92 0.0
H4447 H 0.6821 0.32124 0.87751 0.0
H4448 H 0.68735 0.32093 0.89562 0.0
H4449 H 0.6707 0.32817 0.89058 0.0
H4450 H 0.67121 0.34172 0.91191 0.0
H4451 H 0.66978 0.33353 0.93602 0.0
H4452 H 0.00712 0.36895 0.16851 0.0
H4453 H 0.00293 0.36495 0.14347 0.0
H4454 H 0.963 0.38555 0.14683 0.0
H4455 H 0.96743 0.39003 0.17158 0.0
H4456 H 0.98349 0.35035 0.13042 0.0
H4457 H 0.97803 0.40524 0.11365 0.0
H4458 H 0.98462 0.40066 0.13071 0.0
H4459 H 0.96605 0.40131 0.12742 0.0
C4460 C 0.99753 0.37271 0.16381 0.0
C4461 C 0.98767 0.37994 0.17188 0.0
C4462 C 0.99514 0.37045 0.14953 0.0
C4463 C 0.98281 0.37527 0.14315 0.0
C4464 C 0.97283 0.3822 0.15135 0.0
H4465 H 0.9338 0.35414 0.07262 0.0
H4466 H 0.94467 0.35907 0.09525 0.0
C4467 C 0.97532 0.38467 0.16551 0.0
C4468 C 0.97994 0.37246 0.12813 0.0
H4469 H 0.96815 0.38779 0.09813 0.0
C4470 C 0.98039 0.35858 0.12331 0.0
C4471 C 0.97603 0.38321 0.11876 0.0
C4472 C 0.97631 0.39844 0.12288 0.0
C4473 C 0.9763 0.35511 0.10962 0.0
C4474 C 0.97156 0.36574 0.10062 0.0
C4475 C 0.9717 0.37966 0.10517 0.0
C4476 C 0.96534 0.36245 0.08686 0.0
C4477 C 0.97661 0.34006 0.10491 0.0
C4478 C 0.97344 0.36274 0.07469 0.0
C4479 C 0.96725 0.35999 0.06168 0.0
C4480 C 0.95284 0.35702 0.06067 0.0
C4481 C 0.94485 0.35663 0.07297 0.0
C4482 C 0.95105 0.35934 0.08593 0.0
H4483 H 0.98161 0.33315 0.11277 0.0
H4484 H 0.96577 0.33633 0.10297 0.0
H4485 H 0.9824 0.33918 0.09492 0.0
H4486 H 0.98451 0.36516 0.07527 0.0
H4487 H 0.97366 0.36045 0.0524 0.0
loop_
_geom_bond_atom_site_label_1
_geom_bond_atom_site_label_2
_geom_bond_distance
_geom_bond_site_symmetry_2
_ccdc_geom_bond_type
C0 C1 1.264 . S
C0 C5 1.479 . S
C0 C10 1.465 . S
C1 C0 1.264 . S
C1 C3 1.339 . S
C1 H28 0.931 . S
C2 C3 1.395 . S
C2 C4 1.320 . S
C3 C1 1.339 . S
C3 C2 1.395 . S
C3 H29 0.929 . S
C4 C2 1.320 . S
C4 C5 1.405 . S
C4 H30 0.930 . S
C5 C0 1.479 . S
C5 C4 1.405 . S
C5 H31 0.931 . S
U6 O7 2.454 . S
U6 O8 2.458 . S
U6 C9 2.984 . S
U6 C10 2.847 . S
U6 C23 2.882 . S
U6 O24 2.441 . S
U6 O25 2.420 . S
U6 O26 2.455 . S
U6 O27 2.449 . S
O7 U6 2.454 . S
O7 C9 1.353 . S
O8 U6 2.458 . S
O8 C9 1.286 . S
C9 U6 2.984 . S
C9 O7 1.353 . S
C9 O8 1.286 . S
C9 C11 1.363 . S
C10 C0 1.465 . S
C10 U6 2.847 . S
C10 O24 1.249 . S
C10 O25 1.202 . S
C11 C9 1.363 . S
C11 C13 1.408 . S
C11 C16 1.342 . S
C12 C13 1.310 . S
C12 C15 1.461 . S
C12 H32 0.932 . S
C13 C11 1.408 . S
C13 C12 1.310 . S
C13 H33 0.930 . S
C14 C15 1.474 . S
C14 C16 1.285 . S
C14 H34 0.929 . S
C15 C12 1.461 . S
C15 C14 1.474 . S
C16 C11 1.342 . S
C16 C14 1.285 . S
C16 H35 0.930 . S
C17 C20 1.424 . S
C17 C22 1.245 . S
C17 C23 1.428 . S
C18 C21 1.260 . S
C18 C22 1.477 . S
C18 H36 0.932 . S
C19 C20 1.384 . S
C19 C21 1.479 . S
C19 H37 0.929 . S
C20 C17 1.424 . S
C20 C19 1.384 . S
C20 H38 0.928 . S
C21 C18 1.260 . S
C21 C19 1.479 . S
C22 C17 1.245 . S
C22 C18 1.477 . S
C22 H39 0.932 . S
C23 U6 2.882 . S
C23 C17 1.428 . S
C23 O26 1.301 . S
C23 O27 1.282 . S
O24 U6 2.441 . S
O24 C10 1.249 . S
O25 U6 2.420 . S
O25 C10 1.202 . S
O26 U6 2.455 . S
O26 C23 1.301 . S
O27 U6 2.449 . S
O27 C23 1.282 . S
H28 C1 0.931 . S
H29 C3 0.929 . S
H30 C4 0.930 . S
H31 C5 0.931 . S
H32 C12 0.932 . S
H33 C13 0.930 . S
H34 C14 0.929 . S
H35 C16 0.930 . S
H36 C18 0.932 . S
H37 C19 0.929 . S
H38 C20 0.928 . S
H39 C22 0.932 . S
C40 C41 1.264 . S
C40 C45 1.479 . S
C40 C50 1.465 . S
C41 C40 1.264 . S
C41 C43 1.339 . S
C41 H68 0.931 . S
C42 C43 1.395 . S
C42 C44 1.320 . S
C43 C41 1.339 . S
C43 C42 1.395 . S
C43 H69 0.929 . S
C44 C42 1.320 . S
C44 C45 1.405 . S
C44 H70 0.930 . S
C45 C40 1.479 . S
C45 C44 1.405 . S
C45 H71 0.931 . S
U46 O47 2.454 . S
U46 O48 2.458 . S
U46 C49 2.984 . S
U46 C50 2.847 . S
U46 C63 2.882 . S
U46 O64 2.441 . S
U46 O65 2.420 . S
U46 O66 2.455 . S
U46 O67 2.449 . S
O47 U46 2.454 . S
O47 C49 1.353 . S
O48 U46 2.458 . S
O48 C49 1.286 . S
C49 U46 2.984 . S
C49 O47 1.353 . S
C49 O48 1.286 . S
C49 C51 1.363 . S
C50 C40 1.465 . S
C50 U46 2.847 . S
C50 O64 1.249 . S
C50 O65 1.202 . S
C51 C49 1.363 . S
C51 C53 1.408 . S
C51 C56 1.342 . S
C52 C53 1.310 . S
C52 C55 1.461 . S
C52 H72 0.932 . S
C53 C51 1.408 . S
C53 C52 1.310 . S
C53 H73 0.930 . S
C54 C55 1.474 . S
C54 C56 1.285 . S
C54 H74 0.929 . S
C55 C52 1.461 . S
C55 C54 1.474 . S
C56 C51 1.342 . S
C56 C54 1.285 . S
C56 H75 0.930 . S
C57 C60 1.424 . S
C57 C62 1.245 . S
C57 C63 1.428 . S
C58 C61 1.260 . S
C58 C62 1.477 . S
C58 H76 0.932 . S
C59 C60 1.384 . S
C59 C61 1.479 . S
C59 H77 0.929 . S
C60 C57 1.424 . S
C60 C59 1.384 . S
C60 H78 0.928 . S
C61 C58 1.260 . S
C61 C59 1.479 . S
C62 C57 1.245 . S
C62 C58 1.477 . S
C62 H79 0.932 . S
C63 U46 2.882 . S
C63 C57 1.428 . S
C63 O66 1.301 . S
C63 O67 1.282 . S
O64 U46 2.441 . S
O64 C50 1.249 . S
O65 U46 2.420 . S
O65 C50 1.202 . S
O66 U46 2.455 . S
O66 C63 1.301 . S
O67 U46 2.449 . S
O67 C63 1.282 . S
H68 C41 0.931 . S
H69 C43 0.929 . S
H70 C44 0.930 . S
H71 C45 0.931 . S
H72 C52 0.932 . S
H73 C53 0.930 . S
H74 C54 0.929 . S
H75 C56 0.930 . S
H76 C58 0.932 . S
H77 C59 0.929 . S
H78 C60 0.928 . S
H79 C62 0.932 . S
C80 C81 1.264 . S
C80 C85 1.479 1_565 S
C80 C90 1.465 . S
C81 C80 1.264 . S
C81 C83 1.339 . S
C81 H108 0.931 . S
C82 C83 1.362 1_545 S
C82 C84 1.345 . S
C83 C81 1.339 . S
C83 C82 1.362 1_565 S
C83 H109 0.929 . S
C84 C82 1.345 . S
C84 C85 1.405 . S
C84 H110 0.930 . S
C85 C80 1.479 1_545 S
C85 C84 1.405 . S
C85 H111 0.931 . S
U86 O87 2.454 1_565 S
U86 O88 2.458 1_565 S
U86 C89 2.984 1_565 S
U86 C90 2.847 . S
U86 C103 2.882 . S
U86 O104 2.445 . S
U86 O105 2.420 . S
U86 O106 2.455 . S
U86 O107 2.449 . S
O87 U86 2.454 1_545 S
O87 C89 1.353 . S
O88 U86 2.458 1_545 S
O88 C89 1.286 . S
C89 U86 2.984 1_545 S
C89 O87 1.353 . S
C89 O88 1.286 . S
C89 C91 1.363 . S
C90 C80 1.465 . S
C90 U86 2.847 . S
C90 O104 1.257 . S
C90 O105 1.202 . S
C91 C89 1.363 . S
C91 C93 1.408 . S
C91 C96 1.342 . S
C92 C93 1.310 . S
C92 C95 1.461 . S
C92 H112 0.932 . S
C93 C91 1.408 . S
C93 C92 1.310 . S
C93 H113 0.930 . S
C94 C95 1.474 . S
C94 C96 1.285 . S
C94 H114 0.929 . S
C95 C92 1.461 . S
C95 C94 1.474 . S
C96 C91 1.342 . S
C96 C94 1.285 . S
C96 H115 0.930 . S
C97 C100 1.424 . S
C97 C102 1.245 . S
C97 C103 1.428 . S
C98 C101 1.260 . S
C98 C102 1.477 . S
C98 H116 0.932 . S
C99 C100 1.384 . S
C99 C101 1.479 . S
C99 H117 0.929 . S
C100 C97 1.424 . S
C100 C99 1.384 . S
C100 H118 0.928 . S
C101 C98 1.260 . S
C101 C99 1.479 . S
C102 C97 1.245 . S
C102 C98 1.477 . S
C102 H119 0.932 . S
C103 U86 2.882 . S
C103 C97 1.428 . S
C103 O106 1.301 . S
C103 O107 1.282 . S
O104 U86 2.445 . S
O104 C90 1.257 . S
O105 U86 2.420 . S
O105 C90 1.202 . S
O106 U86 2.455 . S
O106 C103 1.301 . S
O107 U86 2.449 . S
O107 C103 1.282 . S
H108 C81 0.931 . S
H109 C83 0.929 . S
H110 C84 0.930 . S
H111 C85 0.931 . S
H112 C92 0.932 . S
H113 C93 0.930 . S
H114 C94 0.929 . S
H115 C96 0.930 . S
H116 C98 0.932 . S
H117 C99 0.929 . S
H118 C100 0.928 . S
H119 C102 0.932 . S
C120 C121 1.264 . S
C120 C125 1.479 . S
C120 C130 1.465 . S
C121 C120 1.264 . S
C121 C123 1.339 . S
C121 H148 0.931 . S
C122 C123 1.395 . S
C122 C124 1.320 . S
C123 C121 1.339 . S
C123 C122 1.395 . S
C123 H149 0.929 . S
C124 C122 1.320 . S
C124 C125 1.405 . S
C124 H150 0.930 . S
C125 C120 1.479 . S
C125 C124 1.405 . S
C125 H151 0.931 . S
U126 O127 2.454 . S
U126 O128 2.458 . S
U126 C129 2.984 . S
U126 C130 2.847 . S
U126 C143 2.882 . S
U126 O144 2.441 . S
U126 O145 2.420 . S
U126 O146 2.455 . S
U126 O147 2.449 . S
O127 U126 2.454 . S
O127 C129 1.353 . S
O128 U126 2.458 . S
O128 C129 1.286 . S
C129 U126 2.984 . S
C129 O127 1.353 . S
C129 O128 1.286 . S
C129 C131 1.363 . S
C130 C120 1.465 . S
C130 U126 2.847 . S
C130 O144 1.249 . S
C130 O145 1.202 . S
C131 C129 1.363 . S
C131 C133 1.408 . S
C131 C136 1.342 . S
C132 C133 1.310 . S
C132 C135 1.461 . S
C132 H152 0.932 . S
C133 C131 1.408 . S
C133 C132 1.310 . S
C133 H153 0.930 . S
C134 C135 1.474 . S
C134 C136 1.285 . S
C134 H154 0.929 . S
C135 C132 1.461 . S
C135 C134 1.474 . S
C136 C131 1.342 . S
C136 C134 1.285 . S
C136 H155 0.930 . S
C137 C140 1.424 . S
C137 C142 1.245 . S
C137 C143 1.428 . S
C138 C141 1.260 . S
C138 C142 1.477 . S
C138 H156 0.932 . S
C139 C140 1.384 . S
C139 C141 1.479 . S
C139 H157 0.929 . S
C140 C137 1.424 . S
C140 C139 1.384 . S
C140 H158 0.928 . S
C141 C138 1.260 . S
C141 C139 1.479 . S
C142 C137 1.245 . S
C142 C138 1.477 . S
C142 H159 0.932 . S
C143 U126 2.882 . S
C143 C137 1.428 . S
C143 O146 1.301 . S
C143 O147 1.282 . S
O144 U126 2.441 . S
O144 C130 1.249 . S
O145 U126 2.420 . S
O145 C130 1.202 . S
O146 U126 2.455 . S
O146 C143 1.301 . S
O147 U126 2.449 . S
O147 C143 1.282 . S
H148 C121 0.931 . S
H149 C123 0.929 . S
H150 C124 0.930 . S
H151 C125 0.931 . S
H152 C132 0.932 . S
H153 C133 0.930 . S
H154 C134 0.929 . S
H155 C136 0.930 . S
H156 C138 0.932 . S
H157 C139 0.929 . S
H158 C140 0.928 . S
H159 C142 0.932 . S
C160 C161 1.264 . S
C160 C165 1.479 . S
C160 C170 1.465 . S
C161 C160 1.264 . S
C161 C163 1.339 . S
C161 H188 0.931 . S
C162 C163 1.395 . S
C162 C164 1.320 . S
C163 C161 1.339 . S
C163 C162 1.395 . S
C163 H189 0.929 . S
C164 C162 1.320 . S
C164 C165 1.405 . S
C164 H190 0.930 . S
C165 C160 1.479 . S
C165 C164 1.405 . S
C165 H191 0.931 . S
U166 O167 2.454 . S
U166 O168 2.458 . S
U166 C169 2.984 . S
U166 C170 2.847 . S
U166 C183 2.882 . S
U166 O184 2.441 . S
U166 O185 2.420 . S
U166 O186 2.455 . S
U166 O187 2.449 . S
O167 U166 2.454 . S
O167 C169 1.353 . S
O168 U166 2.458 . S
O168 C169 1.286 . S
C169 U166 2.984 . S
C169 O167 1.353 . S
C169 O168 1.286 . S
C169 C171 1.363 . S
C170 C160 1.465 . S
C170 U166 2.847 . S
C170 O184 1.249 . S
C170 O185 1.202 . S
C171 C169 1.363 . S
C171 C173 1.408 . S
C171 C176 1.342 . S
C172 C173 1.310 . S
C172 C175 1.461 . S
C172 H192 0.932 . S
C173 C171 1.408 . S
C173 C172 1.310 . S
C173 H193 0.930 . S
C174 C175 1.474 . S
C174 C176 1.285 . S
C174 H194 0.929 . S
C175 C172 1.461 . S
C175 C174 1.474 . S
C176 C171 1.342 . S
C176 C174 1.285 . S
C176 H195 0.930 . S
C177 C180 1.424 . S
C177 C182 1.245 . S
C177 C183 1.428 . S
C178 C181 1.260 . S
C178 C182 1.477 . S
C178 H196 0.932 . S
C179 C180 1.384 . S
C179 C181 1.479 . S
C179 H197 0.929 . S
C180 C177 1.424 . S
C180 C179 1.384 . S
C180 H198 0.928 . S
C181 C178 1.260 . S
C181 C179 1.479 . S
C182 C177 1.245 . S
C182 C178 1.477 . S
C182 H199 0.932 . S
C183 U166 2.882 . S
C183 C177 1.428 . S
C183 O186 1.301 . S
C183 O187 1.282 . S
O184 U166 2.441 . S
O184 C170 1.249 . S
O185 U166 2.420 . S
O185 C170 1.202 . S
O186 U166 2.455 . S
O186 C183 1.301 . S
O187 U166 2.449 . S
O187 C183 1.282 . S
H188 C161 0.931 . S
H189 C163 0.929 . S
H190 C164 0.930 . S
H191 C165 0.931 . S
H192 C172 0.932 . S
H193 C173 0.930 . S
H194 C174 0.929 . S
H195 C176 0.930 . S
H196 C178 0.932 . S
H197 C179 0.929 . S
H198 C180 0.928 . S
H199 C182 0.932 . S
C200 C201 1.264 . S
C200 C205 1.479 . S
C200 C210 1.465 . S
C201 C200 1.264 . S
C201 C203 1.339 . S
C201 H228 0.931 . S
C202 C203 1.395 . S
C202 C204 1.320 . S
C203 C201 1.339 . S
C203 C202 1.395 . S
C203 H229 0.929 . S
C204 C202 1.320 . S
C204 C205 1.405 . S
C204 H230 0.930 . S
C205 C200 1.479 . S
C205 C204 1.405 . S
C205 H231 0.931 . S
U206 O207 2.454 . S
U206 O208 2.458 . S
U206 C209 2.984 . S
U206 C210 2.847 . S
U206 C223 2.882 . S
U206 O224 2.441 . S
U206 O225 2.420 . S
U206 O226 2.455 . S
U206 O227 2.449 . S
O207 U206 2.454 . S
O207 C209 1.353 . S
O208 U206 2.458 . S
O208 C209 1.286 . S
C209 U206 2.984 . S
C209 O207 1.353 . S
C209 O208 1.286 . S
C209 C211 1.363 . S
C210 C200 1.465 . S
C210 U206 2.847 . S
C210 O224 1.249 . S
C210 O225 1.202 . S
C211 C209 1.363 . S
C211 C213 1.408 . S
C211 C216 1.342 . S
C212 C213 1.310 . S
C212 C215 1.461 . S
C212 H232 0.932 . S
C213 C211 1.408 . S
C213 C212 1.310 . S
C213 H233 0.930 . S
C214 C215 1.474 . S
C214 C216 1.285 . S
C214 H234 0.929 . S
C215 C212 1.461 . S
C215 C214 1.474 . S
C216 C211 1.342 . S
C216 C214 1.285 . S
C216 H235 0.930 . S
C217 C220 1.424 . S
C217 C222 1.245 . S
C217 C223 1.428 . S
C218 C221 1.260 . S
C218 C222 1.477 . S
C218 H236 0.932 . S
C219 C220 1.384 . S
C219 C221 1.479 . S
C219 H237 0.929 . S
C220 C217 1.424 . S
C220 C219 1.384 . S
C220 H238 0.928 . S
C221 C218 1.260 . S
C221 C219 1.479 . S
C222 C217 1.245 . S
C222 C218 1.477 . S
C222 H239 0.932 . S
C223 U206 2.882 . S
C223 C217 1.428 . S
C223 O226 1.301 . S
C223 O227 1.282 . S
O224 U206 2.441 . S
O224 C210 1.249 . S
O225 U206 2.420 . S
O225 C210 1.202 . S
O226 U206 2.455 . S
O226 C223 1.301 . S
O227 U206 2.449 . S
O227 C223 1.282 . S
H228 C201 0.931 . S
H229 C203 0.929 . S
H230 C204 0.930 . S
H231 C205 0.931 . S
H232 C212 0.932 . S
H233 C213 0.930 . S
H234 C214 0.929 . S
H235 C216 0.930 . S
H236 C218 0.932 . S
H237 C219 0.929 . S
H238 C220 0.928 . S
H239 C222 0.932 . S
C240 C241 1.264 . S
C240 C245 1.479 . S
C240 C250 1.465 . S
C241 C240 1.264 . S
C241 C243 1.339 . S
C241 H268 0.931 . S
C242 C243 1.395 . S
C242 C244 1.320 . S
C243 C241 1.339 . S
C243 C242 1.395 . S
C243 H269 0.929 . S
C244 C242 1.320 . S
C244 C245 1.405 . S
C244 H270 0.930 . S
C245 C240 1.479 . S
C245 C244 1.405 . S
C245 H271 0.931 . S
U246 O247 2.454 . S
U246 O248 2.458 . S
U246 C249 2.984 . S
U246 C250 2.847 . S
U246 C263 2.882 . S
U246 O264 2.441 . S
U246 O265 2.420 . S
U246 O266 2.455 . S
U246 O267 2.449 . S
O247 U246 2.454 . S
O247 C249 1.353 . S
O248 U246 2.458 . S
O248 C249 1.286 . S
C249 U246 2.984 . S
C249 O247 1.353 . S
C249 O248 1.286 . S
C249 C251 1.363 . S
C250 C240 1.465 . S
C250 U246 2.847 . S
C250 O264 1.249 . S
C250 O265 1.202 . S
C251 C249 1.363 . S
C251 C253 1.408 . S
C251 C256 1.342 . S
C252 C253 1.310 . S
C252 C255 1.461 . S
C252 H272 0.932 . S
C253 C251 1.408 . S
C253 C252 1.310 . S
C253 H273 0.930 . S
C254 C255 1.474 . S
C254 C256 1.285 . S
C254 H274 0.929 . S
C255 C252 1.461 . S
C255 C254 1.474 . S
C256 C251 1.342 . S
C256 C254 1.285 . S
C256 H275 0.930 . S
C257 C260 1.424 . S
C257 C262 1.245 . S
C257 C263 1.428 . S
C258 C261 1.260 . S
C258 C262 1.477 . S
C258 H276 0.932 . S
C259 C260 1.384 . S
C259 C261 1.479 . S
C259 H277 0.929 . S
C260 C257 1.424 . S
C260 C259 1.384 . S
C260 H278 0.928 . S
C261 C258 1.260 . S
C261 C259 1.479 . S
C262 C257 1.245 . S
C262 C258 1.477 . S
C262 H279 0.932 . S
C263 U246 2.882 . S
C263 C257 1.428 . S
C263 O266 1.301 . S
C263 O267 1.282 . S
O264 U246 2.441 . S
O264 C250 1.249 . S
O265 U246 2.420 . S
O265 C250 1.202 . S
O266 U246 2.455 . S
O266 C263 1.301 . S
O267 U246 2.449 . S
O267 C263 1.282 . S
H268 C241 0.931 . S
H269 C243 0.929 . S
H270 C244 0.930 . S
H271 C245 0.931 . S
H272 C252 0.932 . S
H273 C253 0.930 . S
H274 C254 0.929 . S
H275 C256 0.930 . S
H276 C258 0.932 . S
H277 C259 0.929 . S
H278 C260 0.928 . S
H279 C262 0.932 . S
C280 C281 1.264 . S
C280 C285 1.479 1_556 S
C280 C290 1.465 . S
C281 C280 1.264 . S
C281 C283 1.339 . S
C281 H308 0.931 . S
C282 C283 1.362 1_554 S
C282 C284 1.345 . S
C283 C281 1.339 . S
C283 C282 1.362 1_556 S
C283 H309 0.929 . S
C284 C282 1.345 . S
C284 C285 1.405 . S
C284 H310 0.930 . S
C285 C280 1.479 1_554 S
C285 C284 1.405 . S
C285 H311 0.931 . S
U286 O287 2.454 1_556 S
U286 O288 2.458 1_556 S
U286 C289 2.984 1_556 S
U286 C290 2.847 . S
U286 C303 2.882 . S
U286 O304 2.445 . S
U286 O305 2.420 . S
U286 O306 2.455 . S
U286 O307 2.449 . S
O287 U286 2.454 1_554 S
O287 C289 1.353 . S
O288 U286 2.458 1_554 S
O288 C289 1.286 . S
C289 U286 2.984 1_554 S
C289 O287 1.353 . S
C289 O288 1.286 . S
C289 C291 1.363 . S
C290 C280 1.465 . S
C290 U286 2.847 . S
C290 O304 1.257 . S
C290 O305 1.202 . S
C291 C289 1.363 . S
C291 C293 1.408 . S
C291 C296 1.342 . S
C292 C293 1.310 . S
C292 C295 1.461 . S
C292 H312 0.932 . S
C293 C291 1.408 . S
C293 C292 1.310 . S
C293 H313 0.930 . S
C294 C295 1.474 . S
C294 C296 1.285 . S
C294 H314 0.929 . S
C295 C292 1.461 . S
C295 C294 1.474 . S
C296 C291 1.342 . S
C296 C294 1.285 . S
C296 H315 0.930 . S
C297 C300 1.424 . S
C297 C302 1.245 . S
C297 C303 1.428 . S
C298 C301 1.260 . S
C298 C302 1.477 . S
C298 H316 0.932 . S
C299 C300 1.384 . S
C299 C301 1.479 . S
C299 H317 0.929 . S
C300 C297 1.424 . S
C300 C299 1.384 . S
C300 H318 0.928 . S
C301 C298 1.260 . S
C301 C299 1.479 . S
C302 C297 1.245 . S
C302 C298 1.477 . S
C302 H319 0.932 . S
C303 U286 2.882 . S
C303 C297 1.428 . S
C303 O306 1.301 . S
C303 O307 1.282 . S
O304 U286 2.445 . S
O304 C290 1.257 . S
O305 U286 2.420 . S
O305 C290 1.202 . S
O306 U286 2.455 . S
O306 C303 1.301 . S
O307 U286 2.449 . S
O307 C303 1.282 . S
H308 C281 0.931 . S
H309 C283 0.929 . S
H310 C284 0.930 . S
H311 C285 0.931 . S
H312 C292 0.932 . S
H313 C293 0.930 . S
H314 C294 0.929 . S
H315 C296 0.930 . S
H316 C298 0.932 . S
H317 C299 0.929 . S
H318 C300 0.928 . S
H319 C302 0.932 . S
C320 C321 1.264 . S
C320 C325 1.479 . S
C320 C330 1.465 . S
C321 C320 1.264 . S
C321 C323 1.339 . S
C321 H348 0.931 . S
C322 C323 1.395 . S
C322 C324 1.320 . S
C323 C321 1.339 . S
C323 C322 1.395 . S
C323 H349 0.929 . S
C324 C322 1.320 . S
C324 C325 1.405 . S
C324 H350 0.930 . S
C325 C320 1.479 . S
C325 C324 1.405 . S
C325 H351 0.931 . S
U326 O327 2.454 . S
U326 O328 2.458 . S
U326 C329 2.984 . S
U326 C330 2.847 . S
U326 C343 2.882 . S
U326 O344 2.441 . S
U326 O345 2.420 . S
U326 O346 2.455 . S
U326 O347 2.449 . S
O327 U326 2.454 . S
O327 C329 1.353 . S
O328 U326 2.458 . S
O328 C329 1.286 . S
C329 U326 2.984 . S
C329 O327 1.353 . S
C329 O328 1.286 . S
C329 C331 1.363 . S
C330 C320 1.465 . S
C330 U326 2.847 . S
C330 O344 1.249 . S
C330 O345 1.202 . S
C331 C329 1.363 . S
C331 C333 1.408 . S
C331 C336 1.342 . S
C332 C333 1.310 . S
C332 C335 1.461 . S
C332 H352 0.932 . S
C333 C331 1.408 . S
C333 C332 1.310 . S
C333 H353 0.930 . S
C334 C335 1.474 . S
C334 C336 1.285 . S
C334 H354 0.929 . S
C335 C332 1.461 . S
C335 C334 1.474 . S
C336 C331 1.342 . S
C336 C334 1.285 . S
C336 H355 0.930 . S
C337 C340 1.424 . S
C337 C342 1.245 . S
C337 C343 1.428 . S
C338 C341 1.260 . S
C338 C342 1.477 . S
C338 H356 0.932 . S
C339 C340 1.384 . S
C339 C341 1.479 . S
C339 H357 0.929 . S
C340 C337 1.424 . S
C340 C339 1.384 . S
C340 H358 0.928 . S
C341 C338 1.260 . S
C341 C339 1.479 . S
C342 C337 1.245 . S
C342 C338 1.477 . S
C342 H359 0.932 . S
C343 U326 2.882 . S
C343 C337 1.428 . S
C343 O346 1.301 . S
C343 O347 1.282 . S
O344 U326 2.441 . S
O344 C330 1.249 . S
O345 U326 2.420 . S
O345 C330 1.202 . S
O346 U326 2.455 . S
O346 C343 1.301 . S
O347 U326 2.449 . S
O347 C343 1.282 . S
H348 C321 0.931 . S
H349 C323 0.929 . S
H350 C324 0.930 . S
H351 C325 0.931 . S
H352 C332 0.932 . S
H353 C333 0.930 . S
H354 C334 0.929 . S
H355 C336 0.930 . S
H356 C338 0.932 . S
H357 C339 0.929 . S
H358 C340 0.928 . S
H359 C342 0.932 . S
C360 C361 1.264 . S
C360 C365 1.479 . S
C360 C370 1.465 . S
C361 C360 1.264 . S
C361 C363 1.339 . S
C361 H388 0.931 . S
C362 C363 1.395 . S
C362 C364 1.320 . S
C363 C361 1.339 . S
C363 C362 1.395 . S
C363 H389 0.929 . S
C364 C362 1.320 . S
C364 C365 1.405 . S
C364 H390 0.930 . S
C365 C360 1.479 . S
C365 C364 1.405 . S
C365 H391 0.931 . S
U366 O367 2.454 . S
U366 O368 2.458 . S
U366 C369 2.984 . S
U366 C370 2.847 . S
U366 C383 2.882 . S
U366 O384 2.441 . S
U366 O385 2.420 . S
U366 O386 2.455 . S
U366 O387 2.449 . S
O367 U366 2.454 . S
O367 C369 1.353 . S
O368 U366 2.458 . S
O368 C369 1.286 . S
C369 U366 2.984 . S
C369 O367 1.353 . S
C369 O368 1.286 . S
C369 C371 1.363 . S
C370 C360 1.465 . S
C370 U366 2.847 . S
C370 O384 1.249 . S
C370 O385 1.202 . S
C371 C369 1.363 . S
C371 C373 1.408 . S
C371 C376 1.342 . S
C372 C373 1.310 . S
C372 C375 1.461 . S
C372 H392 0.932 . S
C373 C371 1.408 . S
C373 C372 1.310 . S
C373 H393 0.930 . S
C374 C375 1.474 . S
C374 C376 1.285 . S
C374 H394 0.929 . S
C375 C372 1.461 . S
C375 C374 1.474 . S
C376 C371 1.342 . S
C376 C374 1.285 . S
C376 H395 0.930 . S
C377 C380 1.424 . S
C377 C382 1.245 . S
C377 C383 1.428 . S
C378 C381 1.260 . S
C378 C382 1.477 . S
C378 H396 0.932 . S
C379 C380 1.384 . S
C379 C381 1.479 . S
C379 H397 0.929 . S
C380 C377 1.424 . S
C380 C379 1.384 . S
C380 H398 0.928 . S
C381 C378 1.260 . S
C381 C379 1.479 . S
C382 C377 1.245 . S
C382 C378 1.477 . S
C382 H399 0.932 . S
C383 U366 2.882 . S
C383 C377 1.428 . S
C383 O386 1.301 . S
C383 O387 1.282 . S
O384 U366 2.441 . S
O384 C370 1.249 . S
O385 U366 2.420 . S
O385 C370 1.202 . S
O386 U366 2.455 . S
O386 C383 1.301 . S
O387 U366 2.449 . S
O387 C383 1.282 . S
H388 C361 0.931 . S
H389 C363 0.929 . S
H390 C364 0.930 . S
H391 C365 0.931 . S
H392 C372 0.932 . S
H393 C373 0.930 . S
H394 C374 0.929 . S
H395 C376 0.930 . S
H396 C378 0.932 . S
H397 C379 0.929 . S
H398 C380 0.928 . S
H399 C382 0.932 . S
C400 C401 1.264 . S
C400 C405 1.479 . S
C400 C410 1.465 . S
C401 C400 1.264 . S
C401 C403 1.339 . S
C401 H428 0.931 . S
C402 C403 1.395 . S
C402 C404 1.320 . S
C403 C401 1.339 . S
C403 C402 1.395 . S
C403 H429 0.929 . S
C404 C402 1.320 . S
C404 C405 1.405 . S
C404 H430 0.930 . S
C405 C400 1.479 . S
C405 C404 1.405 . S
C405 H431 0.931 . S
U406 O407 2.454 . S
U406 O408 2.458 . S
U406 C409 2.984 . S
U406 C410 2.847 . S
U406 C423 2.882 . S
U406 O424 2.441 . S
U406 O425 2.420 . S
U406 O426 2.455 . S
U406 O427 2.449 . S
O407 U406 2.454 . S
O407 C409 1.353 . S
O408 U406 2.458 . S
O408 C409 1.286 . S
C409 U406 2.984 . S
C409 O407 1.353 . S
C409 O408 1.286 . S
C409 C411 1.363 . S
C410 C400 1.465 . S
C410 U406 2.847 . S
C410 O424 1.249 . S
C410 O425 1.202 . S
C411 C409 1.363 . S
C411 C413 1.408 . S
C411 C416 1.342 . S
C412 C413 1.310 . S
C412 C415 1.461 . S
C412 H432 0.932 . S
C413 C411 1.408 . S
C413 C412 1.310 . S
C413 H433 0.930 . S
C414 C415 1.474 . S
C414 C416 1.285 . S
C414 H434 0.929 . S
C415 C412 1.461 . S
C415 C414 1.474 . S
C416 C411 1.342 . S
C416 C414 1.285 . S
C416 H435 0.930 . S
C417 C420 1.424 . S
C417 C422 1.245 . S
C417 C423 1.428 . S
C418 C421 1.260 . S
C418 C422 1.477 . S
C418 H436 0.932 . S
C419 C420 1.384 . S
C419 C421 1.479 . S
C419 H437 0.929 . S
C420 C417 1.424 . S
C420 C419 1.384 . S
C420 H438 0.928 . S
C421 C418 1.260 . S
C421 C419 1.479 . S
C422 C417 1.245 . S
C422 C418 1.477 . S
C422 H439 0.932 . S
C423 U406 2.882 . S
C423 C417 1.428 . S
C423 O426 1.301 . S
C423 O427 1.282 . S
O424 U406 2.441 . S
O424 C410 1.249 . S
O425 U406 2.420 . S
O425 C410 1.202 . S
O426 U406 2.455 . S
O426 C423 1.301 . S
O427 U406 2.449 . S
O427 C423 1.282 . S
H428 C401 0.931 . S
H429 C403 0.929 . S
H430 C404 0.930 . S
H431 C405 0.931 . S
H432 C412 0.932 . S
H433 C413 0.930 . S
H434 C414 0.929 . S
H435 C416 0.930 . S
H436 C418 0.932 . S
H437 C419 0.929 . S
H438 C420 0.928 . S
H439 C422 0.932 . S
C440 C441 1.264 . S
C440 C445 1.479 1_655 S
C440 C450 1.465 . S
C441 C440 1.264 . S
C441 C443 1.339 . S
C441 H468 0.931 . S
C442 C443 1.362 1_455 S
C442 C444 1.345 . S
C443 C441 1.339 . S
C443 C442 1.362 1_655 S
C443 H469 0.929 . S
C444 C442 1.345 . S
C444 C445 1.405 . S
C444 H470 0.930 . S
C445 C440 1.479 1_455 S
C445 C444 1.405 . S
C445 H471 0.931 . S
U446 O447 2.454 1_655 S
U446 O448 2.458 1_655 S
U446 C449 2.984 1_655 S
U446 C450 2.847 . S
U446 C463 2.882 . S
U446 O464 2.445 . S
U446 O465 2.420 . S
U446 O466 2.455 . S
U446 O467 2.449 . S
O447 U446 2.454 1_455 S
O447 C449 1.353 . S
O448 U446 2.458 1_455 S
O448 C449 1.286 . S
C449 U446 2.984 1_455 S
C449 O447 1.353 . S
C449 O448 1.286 . S
C449 C451 1.363 . S
C450 C440 1.465 . S
C450 U446 2.847 . S
C450 O464 1.257 . S
C450 O465 1.202 . S
C451 C449 1.363 . S
C451 C453 1.408 . S
C451 C456 1.342 . S
C452 C453 1.310 . S
C452 C455 1.461 . S
C452 H472 0.932 . S
C453 C451 1.408 . S
C453 C452 1.310 . S
C453 H473 0.930 . S
C454 C455 1.474 . S
C454 C456 1.285 . S
C454 H474 0.929 . S
C455 C452 1.461 . S
C455 C454 1.474 . S
C456 C451 1.342 . S
C456 C454 1.285 . S
C456 H475 0.930 . S
C457 C460 1.424 . S
C457 C462 1.245 . S
C457 C463 1.428 . S
C458 C461 1.260 . S
C458 C462 1.477 . S
C458 H476 0.932 . S
C459 C460 1.384 . S
C459 C461 1.479 . S
C459 H477 0.929 . S
C460 C457 1.424 . S
C460 C459 1.384 . S
C460 H478 0.928 . S
C461 C458 1.260 . S
C461 C459 1.479 . S
C462 C457 1.245 . S
C462 C458 1.477 . S
C462 H479 0.932 . S
C463 U446 2.882 . S
C463 C457 1.428 . S
C463 O466 1.301 . S
C463 O467 1.282 . S
O464 U446 2.445 . S
O464 C450 1.257 . S
O465 U446 2.420 . S
O465 C450 1.202 . S
O466 U446 2.455 . S
O466 C463 1.301 . S
O467 U446 2.449 . S
O467 C463 1.282 . S
H468 C441 0.931 . S
H469 C443 0.929 . S
H470 C444 0.930 . S
H471 C445 0.931 . S
H472 C452 0.932 . S
H473 C453 0.930 . S
H474 C454 0.929 . S
H475 C456 0.930 . S
H476 C458 0.932 . S
H477 C459 0.929 . S
H478 C460 0.928 . S
H479 C462 0.932 . S
C480 C481 1.264 . S
C480 C485 1.479 . S
C480 C490 1.465 . S
C481 C480 1.264 . S
C481 C483 1.339 . S
C481 H508 0.931 . S
C482 C483 1.395 . S
C482 C484 1.320 . S
C483 C481 1.339 . S
C483 C482 1.395 . S
C483 H509 0.929 . S
C484 C482 1.320 . S
C484 C485 1.405 . S
C484 H510 0.930 . S
C485 C480 1.479 . S
C485 C484 1.405 . S
C485 H511 0.931 . S
U486 O487 2.454 . S
U486 O488 2.458 . S
U486 C489 2.984 . S
U486 C490 2.847 . S
U486 C503 2.882 . S
U486 O504 2.441 . S
U486 O505 2.420 . S
U486 O506 2.455 . S
U486 O507 2.449 . S
O487 U486 2.454 . S
O487 C489 1.353 . S
O488 U486 2.458 . S
O488 C489 1.286 . S
C489 U486 2.984 . S
C489 O487 1.353 . S
C489 O488 1.286 . S
C489 C491 1.363 . S
C490 C480 1.465 . S
C490 U486 2.847 . S
C490 O504 1.249 . S
C490 O505 1.202 . S
C491 C489 1.363 . S
C491 C493 1.408 . S
C491 C496 1.342 . S
C492 C493 1.310 . S
C492 C495 1.461 . S
C492 H512 0.932 . S
C493 C491 1.408 . S
C493 C492 1.310 . S
C493 H513 0.930 . S
C494 C495 1.474 . S
C494 C496 1.285 . S
C494 H514 0.929 . S
C495 C492 1.461 . S
C495 C494 1.474 . S
C496 C491 1.342 . S
C496 C494 1.285 . S
C496 H515 0.930 . S
C497 C500 1.424 . S
C497 C502 1.245 . S
C497 C503 1.428 . S
C498 C501 1.260 . S
C498 C502 1.477 . S
C498 H516 0.932 . S
C499 C500 1.384 . S
C499 C501 1.479 . S
C499 H517 0.929 . S
C500 C497 1.424 . S
C500 C499 1.384 . S
C500 H518 0.928 . S
C501 C498 1.260 . S
C501 C499 1.479 . S
C502 C497 1.245 . S
C502 C498 1.477 . S
C502 H519 0.932 . S
C503 U486 2.882 . S
C503 C497 1.428 . S
C503 O506 1.301 . S
C503 O507 1.282 . S
O504 U486 2.441 . S
O504 C490 1.249 . S
O505 U486 2.420 . S
O505 C490 1.202 . S
O506 U486 2.455 . S
O506 C503 1.301 . S
O507 U486 2.449 . S
O507 C503 1.282 . S
H508 C481 0.931 . S
H509 C483 0.929 . S
H510 C484 0.930 . S
H511 C485 0.931 . S
H512 C492 0.932 . S
H513 C493 0.930 . S
H514 C494 0.929 . S
H515 C496 0.930 . S
H516 C498 0.932 . S
H517 C499 0.929 . S
H518 C500 0.928 . S
H519 C502 0.932 . S
C520 C521 1.264 . S
C520 C525 1.479 . S
C520 C530 1.465 . S
C521 C520 1.264 . S
C521 C523 1.339 . S
C521 H548 0.931 . S
C522 C523 1.395 . S
C522 C524 1.320 . S
C523 C521 1.339 . S
C523 C522 1.395 . S
C523 H549 0.929 . S
C524 C522 1.320 . S
C524 C525 1.405 . S
C524 H550 0.930 . S
C525 C520 1.479 . S
C525 C524 1.405 . S
C525 H551 0.931 . S
U526 O527 2.454 . S
U526 O528 2.458 . S
U526 C529 2.984 . S
U526 C530 2.847 . S
U526 C543 2.882 . S
U526 O544 2.441 . S
U526 O545 2.420 . S
U526 O546 2.455 . S
U526 O547 2.449 . S
O527 U526 2.454 . S
O527 C529 1.353 . S
O528 U526 2.458 . S
O528 C529 1.286 . S
C529 U526 2.984 . S
C529 O527 1.353 . S
C529 O528 1.286 . S
C529 C531 1.363 . S
C530 C520 1.465 . S
C530 U526 2.847 . S
C530 O544 1.249 . S
C530 O545 1.202 . S
C531 C529 1.363 . S
C531 C533 1.408 . S
C531 C536 1.342 . S
C532 C533 1.310 . S
C532 C535 1.461 . S
C532 H552 0.932 . S
C533 C531 1.408 . S
C533 C532 1.310 . S
C533 H553 0.930 . S
C534 C535 1.474 . S
C534 C536 1.285 . S
C534 H554 0.929 . S
C535 C532 1.461 . S
C535 C534 1.474 . S
C536 C531 1.342 . S
C536 C534 1.285 . S
C536 H555 0.930 . S
C537 C540 1.424 . S
C537 C542 1.245 . S
C537 C543 1.428 . S
C538 C541 1.260 . S
C538 C542 1.477 . S
C538 H556 0.932 . S
C539 C540 1.384 . S
C539 C541 1.479 . S
C539 H557 0.929 . S
C540 C537 1.424 . S
C540 C539 1.384 . S
C540 H558 0.928 . S
C541 C538 1.260 . S
C541 C539 1.479 . S
C542 C537 1.245 . S
C542 C538 1.477 . S
C542 H559 0.932 . S
C543 U526 2.882 . S
C543 C537 1.428 . S
C543 O546 1.301 . S
C543 O547 1.282 . S
O544 U526 2.441 . S
O544 C530 1.249 . S
O545 U526 2.420 . S
O545 C530 1.202 . S
O546 U526 2.455 . S
O546 C543 1.301 . S
O547 U526 2.449 . S
O547 C543 1.282 . S
H548 C521 0.931 . S
H549 C523 0.929 . S
H550 C524 0.930 . S
H551 C525 0.931 . S
H552 C532 0.932 . S
H553 C533 0.930 . S
H554 C534 0.929 . S
H555 C536 0.930 . S
H556 C538 0.932 . S
H557 C539 0.929 . S
H558 C540 0.928 . S
H559 C542 0.932 . S
C560 C561 1.264 . S
C560 C565 1.479 . S
C560 C570 1.465 . S
C561 C560 1.264 . S
C561 C563 1.339 . S
C561 H588 0.931 . S
C562 C563 1.395 . S
C562 C564 1.320 . S
C563 C561 1.339 . S
C563 C562 1.395 . S
C563 H589 0.929 1_565 S
C564 C562 1.320 . S
C564 C565 1.405 . S
C564 H590 0.930 . S
C565 C560 1.479 . S
C565 C564 1.405 . S
C565 H591 0.931 . S
U566 O567 2.454 . S
U566 O568 2.458 . S
U566 C569 2.984 . S
U566 C570 2.847 . S
U566 C583 2.882 1_565 S
U566 O584 2.441 . S
U566 O585 2.420 . S
U566 O586 2.455 . S
U566 O587 2.470 . S
O567 U566 2.454 . S
O567 C569 1.353 . S
O568 U566 2.458 . S
O568 C569 1.286 . S
C569 U566 2.984 . S
C569 O567 1.353 . S
C569 O568 1.286 . S
C569 C571 1.363 . S
C570 C560 1.465 . S
C570 U566 2.847 . S
C570 O584 1.249 . S
C570 O585 1.202 . S
C571 C569 1.363 . S
C571 C573 1.408 . S
C571 C576 1.342 . S
C572 C573 1.310 . S
C572 C575 1.461 . S
C572 H592 0.932 . S
C573 C571 1.408 . S
C573 C572 1.310 . S
C573 H593 0.930 . S
C574 C575 1.474 . S
C574 C576 1.285 . S
C574 H594 0.929 . S
C575 C572 1.461 . S
C575 C574 1.474 . S
C576 C571 1.342 . S
C576 C574 1.285 . S
C576 H595 0.930 . S
C577 C580 1.424 . S
C577 C582 1.245 . S
C577 C583 1.428 . S
C578 C581 1.260 . S
C578 C582 1.477 . S
C578 H596 0.932 . S
C579 C580 1.384 . S
C579 C581 1.479 . S
C579 H597 0.929 . S
C580 C577 1.424 . S
C580 C579 1.384 . S
C580 H598 0.928 . S
C581 C578 1.260 . S
C581 C579 1.479 . S
C582 C577 1.245 . S
C582 C578 1.477 . S
C582 H599 0.932 . S
C583 U566 2.882 1_545 S
C583 C577 1.428 . S
C583 O586 1.301 1_545 S
C583 O587 1.271 1_545 S
O584 U566 2.441 . S
O584 C570 1.249 . S
O585 U566 2.420 . S
O585 C570 1.202 . S
O586 U566 2.455 . S
O586 C583 1.301 1_565 S
O587 U566 2.470 . S
O587 C583 1.271 1_565 S
H588 C561 0.931 . S
H589 C563 0.929 1_545 S
H590 C564 0.930 . S
H591 C565 0.931 . S
H592 C572 0.932 . S
H593 C573 0.930 . S
H594 C574 0.929 . S
H595 C576 0.930 . S
H596 C578 0.932 . S
H597 C579 0.929 . S
H598 C580 0.928 . S
H599 C582 0.932 . S
C600 C601 1.264 . S
C600 C605 1.479 . S
C600 C610 1.465 . S
C601 C600 1.264 . S
C601 C603 1.339 . S
C601 H628 0.931 . S
C602 C603 1.395 . S
C602 C604 1.320 . S
C603 C601 1.339 . S
C603 C602 1.395 . S
C603 H629 0.929 . S
C604 C602 1.320 . S
C604 C605 1.405 . S
C604 H630 0.930 . S
C605 C600 1.479 . S
C605 C604 1.405 . S
C605 H631 0.931 . S
U606 O607 2.454 . S
U606 O608 2.458 . S
U606 C609 2.984 . S
U606 C610 2.847 . S
U606 C623 2.882 . S
U606 O624 2.441 . S
U606 O625 2.420 . S
U606 O626 2.455 . S
U606 O627 2.449 . S
O607 U606 2.454 . S
O607 C609 1.353 . S
O608 U606 2.458 . S
O608 C609 1.286 . S
C609 U606 2.984 . S
C609 O607 1.353 . S
C609 O608 1.286 . S
C609 C611 1.363 . S
C610 C600 1.465 . S
C610 U606 2.847 . S
C610 O624 1.249 . S
C610 O625 1.202 . S
C611 C609 1.363 . S
C611 C613 1.408 . S
C611 C616 1.342 . S
C612 C613 1.310 . S
C612 C615 1.461 . S
C612 H632 0.932 . S
C613 C611 1.408 . S
C613 C612 1.310 . S
C613 H633 0.930 . S
C614 C615 1.474 . S
C614 C616 1.285 . S
C614 H634 0.929 . S
C615 C612 1.461 . S
C615 C614 1.474 . S
C616 C611 1.342 . S
C616 C614 1.285 . S
C616 H635 0.930 . S
C617 C620 1.424 . S
C617 C622 1.245 . S
C617 C623 1.428 . S
C618 C621 1.260 . S
C618 C622 1.477 . S
C618 H636 0.932 . S
C619 C620 1.384 . S
C619 C621 1.479 . S
C619 H637 0.929 . S
C620 C617 1.424 . S
C620 C619 1.384 . S
C620 H638 0.928 . S
C621 C618 1.260 . S
C621 C619 1.479 . S
C622 C617 1.245 . S
C622 C618 1.477 . S
C622 H639 0.932 . S
C623 U606 2.882 . S
C623 C617 1.428 . S
C623 O626 1.301 . S
C623 O627 1.282 . S
O624 U606 2.441 . S
O624 C610 1.249 . S
O625 U606 2.420 . S
O625 C610 1.202 . S
O626 U606 2.455 . S
O626 C623 1.301 . S
O627 U606 2.449 . S
O627 C623 1.282 . S
H628 C601 0.931 . S
H629 C603 0.929 . S
H630 C604 0.930 . S
H631 C605 0.931 . S
H632 C612 0.932 . S
H633 C613 0.930 . S
H634 C614 0.929 . S
H635 C616 0.930 . S
H636 C618 0.932 . S
H637 C619 0.929 . S
H638 C620 0.928 . S
H639 C622 0.932 . S
C640 C641 1.264 . S
C640 C645 1.479 . S
C640 C650 1.465 . S
C641 C640 1.264 . S
C641 C643 1.339 . S
C641 H668 0.931 . S
C642 C643 1.395 . S
C642 C644 1.320 . S
C643 C641 1.339 . S
C643 C642 1.395 . S
C643 H669 0.929 . S
C644 C642 1.320 . S
C644 C645 1.405 . S
C644 H670 0.930 . S
C645 C640 1.479 . S
C645 C644 1.405 . S
C645 H671 0.931 . S
U646 O647 2.454 . S
U646 O648 2.458 . S
U646 C649 2.984 . S
U646 C650 2.847 . S
U646 C663 2.882 . S
U646 O664 2.441 . S
U646 O665 2.420 . S
U646 O666 2.455 . S
U646 O667 2.449 . S
O647 U646 2.454 . S
O647 C649 1.353 . S
O648 U646 2.458 . S
O648 C649 1.286 . S
C649 U646 2.984 . S
C649 O647 1.353 . S
C649 O648 1.286 . S
C649 C651 1.363 . S
C650 C640 1.465 . S
C650 U646 2.847 . S
C650 O664 1.249 . S
C650 O665 1.202 . S
C651 C649 1.363 . S
C651 C653 1.408 . S
C651 C656 1.342 . S
C652 C653 1.310 . S
C652 C655 1.461 . S
C652 H672 0.932 . S
C653 C651 1.408 . S
C653 C652 1.310 . S
C653 H673 0.930 . S
C654 C655 1.474 . S
C654 C656 1.285 . S
C654 H674 0.929 . S
C655 C652 1.461 . S
C655 C654 1.474 . S
C656 C651 1.342 . S
C656 C654 1.285 . S
C656 H675 0.930 . S
C657 C660 1.424 . S
C657 C662 1.245 . S
C657 C663 1.428 . S
C658 C661 1.260 . S
C658 C662 1.477 . S
C658 H676 0.932 . S
C659 C660 1.384 . S
C659 C661 1.479 . S
C659 H677 0.929 . S
C660 C657 1.424 . S
C660 C659 1.384 . S
C660 H678 0.928 . S
C661 C658 1.260 . S
C661 C659 1.479 . S
C662 C657 1.245 . S
C662 C658 1.477 . S
C662 H679 0.932 . S
C663 U646 2.882 . S
C663 C657 1.428 . S
C663 O666 1.301 . S
C663 O667 1.282 . S
O664 U646 2.441 . S
O664 C650 1.249 . S
O665 U646 2.420 . S
O665 C650 1.202 . S
O666 U646 2.455 . S
O666 C663 1.301 . S
O667 U646 2.449 . S
O667 C663 1.282 . S
H668 C641 0.931 . S
H669 C643 0.929 . S
H670 C644 0.930 . S
H671 C645 0.931 . S
H672 C652 0.932 . S
H673 C653 0.930 . S
H674 C654 0.929 . S
H675 C656 0.930 . S
H676 C658 0.932 . S
H677 C659 0.929 . S
H678 C660 0.928 . S
H679 C662 0.932 . S
C680 C681 1.264 . S
C680 C685 1.479 . S
C680 C690 1.465 . S
C681 C680 1.264 . S
C681 C683 1.339 . S
C681 H708 0.931 . S
C682 C683 1.395 . S
C682 C684 1.320 . S
C683 C681 1.339 . S
C683 C682 1.395 . S
C683 H709 0.929 . S
C684 C682 1.320 . S
C684 C685 1.405 . S
C684 H710 0.930 . S
C685 C680 1.479 . S
C685 C684 1.405 . S
C685 H711 0.931 . S
U686 O687 2.454 . S
U686 O688 2.458 . S
U686 C689 2.984 . S
U686 C690 2.847 . S
U686 C703 2.882 . S
U686 O704 2.441 . S
U686 O705 2.420 . S
U686 O706 2.455 . S
U686 O707 2.449 . S
O687 U686 2.454 . S
O687 C689 1.353 . S
O688 U686 2.458 . S
O688 C689 1.286 . S
C689 U686 2.984 . S
C689 O687 1.353 . S
C689 O688 1.286 . S
C689 C691 1.363 . S
C690 C680 1.465 . S
C690 U686 2.847 . S
C690 O704 1.249 . S
C690 O705 1.202 . S
C691 C689 1.363 . S
C691 C693 1.408 . S
C691 C696 1.342 . S
C692 C693 1.310 . S
C692 C695 1.461 . S
C692 H712 0.932 . S
C693 C691 1.408 . S
C693 C692 1.310 . S
C693 H713 0.930 . S
C694 C695 1.474 . S
C694 C696 1.285 . S
C694 H714 0.929 . S
C695 C692 1.461 . S
C695 C694 1.474 . S
C696 C691 1.342 . S
C696 C694 1.285 . S
C696 H715 0.930 . S
C697 C700 1.424 . S
C697 C702 1.245 . S
C697 C703 1.428 . S
C698 C701 1.260 . S
C698 C702 1.477 . S
C698 H716 0.932 . S
C699 C700 1.384 . S
C699 C701 1.479 . S
C699 H717 0.929 . S
C700 C697 1.424 . S
C700 C699 1.384 . S
C700 H718 0.928 . S
C701 C698 1.260 . S
C701 C699 1.479 . S
C702 C697 1.245 . S
C702 C698 1.477 . S
C702 H719 0.932 . S
C703 U686 2.882 . S
C703 C697 1.428 . S
C703 O706 1.301 . S
C703 O707 1.282 . S
O704 U686 2.441 . S
O704 C690 1.249 . S
O705 U686 2.420 . S
O705 C690 1.202 . S
O706 U686 2.455 . S
O706 C703 1.301 . S
O707 U686 2.449 . S
O707 C703 1.282 . S
H708 C681 0.931 . S
H709 C683 0.929 . S
H710 C684 0.930 . S
H711 C685 0.931 . S
H712 C692 0.932 . S
H713 C693 0.930 . S
H714 C694 0.929 . S
H715 C696 0.930 . S
H716 C698 0.932 . S
H717 C699 0.929 . S
H718 C700 0.928 . S
H719 C702 0.932 . S
C720 C721 1.264 . S
C720 C725 1.479 . S
C720 C730 1.465 . S
C721 C720 1.264 . S
C721 C723 1.339 . S
C721 H748 0.931 . S
C722 C723 1.395 . S
C722 C724 1.320 . S
C723 C721 1.339 . S
C723 C722 1.395 . S
C723 H749 0.929 . S
C724 C722 1.320 . S
C724 C725 1.405 . S
C724 H750 0.930 . S
C725 C720 1.479 . S
C725 C724 1.405 . S
C725 H751 0.931 . S
U726 O727 2.454 . S
U726 O728 2.458 . S
U726 C729 2.984 . S
U726 C730 2.847 . S
U726 C743 2.882 . S
U726 O744 2.441 . S
U726 O745 2.420 . S
U726 O746 2.455 . S
U726 O747 2.449 . S
O727 U726 2.454 . S
O727 C729 1.353 . S
O728 U726 2.458 . S
O728 C729 1.286 . S
C729 U726 2.984 . S
C729 O727 1.353 . S
C729 O728 1.286 . S
C729 C731 1.363 . S
C730 C720 1.465 . S
C730 U726 2.847 . S
C730 O744 1.249 . S
C730 O745 1.202 . S
C731 C729 1.363 . S
C731 C733 1.408 . S
C731 C736 1.342 . S
C732 C733 1.310 . S
C732 C735 1.461 . S
C732 H752 0.932 . S
C733 C731 1.408 . S
C733 C732 1.310 . S
C733 H753 0.930 . S
C734 C735 1.474 . S
C734 C736 1.285 . S
C734 H754 0.929 . S
C735 C732 1.461 . S
C735 C734 1.474 . S
C736 C731 1.342 . S
C736 C734 1.285 . S
C736 H755 0.930 . S
C737 C740 1.424 . S
C737 C742 1.245 . S
C737 C743 1.428 . S
C738 C741 1.260 . S
C738 C742 1.477 . S
C738 H756 0.932 . S
C739 C740 1.384 . S
C739 C741 1.479 . S
C739 H757 0.929 . S
C740 C737 1.424 . S
C740 C739 1.384 . S
C740 H758 0.928 . S
C741 C738 1.260 . S
C741 C739 1.479 . S
C742 C737 1.245 . S
C742 C738 1.477 . S
C742 H759 0.932 . S
C743 U726 2.882 . S
C743 C737 1.428 . S
C743 O746 1.301 . S
C743 O747 1.282 . S
O744 U726 2.441 . S
O744 C730 1.249 . S
O745 U726 2.420 . S
O745 C730 1.202 . S
O746 U726 2.455 . S
O746 C743 1.301 . S
O747 U726 2.449 . S
O747 C743 1.282 . S
H748 C721 0.931 . S
H749 C723 0.929 . S
H750 C724 0.930 . S
H751 C725 0.931 . S
H752 C732 0.932 . S
H753 C733 0.930 . S
H754 C734 0.929 . S
H755 C736 0.930 . S
H756 C738 0.932 . S
H757 C739 0.929 . S
H758 C740 0.928 . S
H759 C742 0.932 . S
C760 C761 1.264 . S
C760 C765 1.479 . S
C760 C770 1.465 . S
C761 C760 1.264 . S
C761 C763 1.339 . S
C761 H788 0.931 . S
C762 C763 1.395 . S
C762 C764 1.320 . S
C763 C761 1.339 . S
C763 C762 1.395 . S
C763 H789 0.929 1_556 S
C764 C762 1.320 . S
C764 C765 1.405 . S
C764 H790 0.930 . S
C765 C760 1.479 . S
C765 C764 1.405 . S
C765 H791 0.931 . S
U766 O767 2.454 . S
U766 O768 2.458 . S
U766 C769 2.984 . S
U766 C770 2.847 . S
U766 C783 2.882 1_556 S
U766 O784 2.441 . S
U766 O785 2.420 . S
U766 O786 2.455 . S
U766 O787 2.470 . S
O767 U766 2.454 . S
O767 C769 1.353 . S
O768 U766 2.458 . S
O768 C769 1.286 . S
C769 U766 2.984 . S
C769 O767 1.353 . S
C769 O768 1.286 . S
C769 C771 1.363 . S
C770 C760 1.465 . S
C770 U766 2.847 . S
C770 O784 1.249 . S
C770 O785 1.202 . S
C771 C769 1.363 . S
C771 C773 1.408 . S
C771 C776 1.342 . S
C772 C773 1.310 . S
C772 C775 1.461 . S
C772 H792 0.932 . S
C773 C771 1.408 . S
C773 C772 1.310 . S
C773 H793 0.930 . S
C774 C775 1.474 . S
C774 C776 1.285 . S
C774 H794 0.929 . S
C775 C772 1.461 . S
C775 C774 1.474 . S
C776 C771 1.342 . S
C776 C774 1.285 . S
C776 H795 0.930 . S
C777 C780 1.424 . S
C777 C782 1.245 . S
C777 C783 1.428 . S
C778 C781 1.260 . S
C778 C782 1.477 . S
C778 H796 0.932 . S
C779 C780 1.384 . S
C779 C781 1.479 . S
C779 H797 0.929 . S
C780 C777 1.424 . S
C780 C779 1.384 . S
C780 H798 0.928 . S
C781 C778 1.260 . S
C781 C779 1.479 . S
C782 C777 1.245 . S
C782 C778 1.477 . S
C782 H799 0.932 . S
C783 U766 2.882 1_554 S
C783 C777 1.428 . S
C783 O786 1.301 1_554 S
C783 O787 1.271 1_554 S
O784 U766 2.441 . S
O784 C770 1.249 . S
O785 U766 2.420 . S
O785 C770 1.202 . S
O786 U766 2.455 . S
O786 C783 1.301 1_556 S
O787 U766 2.470 . S
O787 C783 1.271 1_556 S
H788 C761 0.931 . S
H789 C763 0.929 1_554 S
H790 C764 0.930 . S
H791 C765 0.931 . S
H792 C772 0.932 . S
H793 C773 0.930 . S
H794 C774 0.929 . S
H795 C776 0.930 . S
H796 C778 0.932 . S
H797 C779 0.929 . S
H798 C780 0.928 . S
H799 C782 0.932 . S
C800 C801 1.264 . S
C800 C805 1.479 . S
C800 C810 1.465 . S
C801 C800 1.264 . S
C801 C803 1.339 . S
C801 H828 0.931 . S
C802 C803 1.395 . S
C802 C804 1.320 . S
C803 C801 1.339 . S
C803 C802 1.395 . S
C803 H829 0.929 . S
C804 C802 1.320 . S
C804 C805 1.405 . S
C804 H830 0.930 . S
C805 C800 1.479 . S
C805 C804 1.405 . S
C805 H831 0.931 . S
U806 O807 2.454 . S
U806 O808 2.458 . S
U806 C809 2.984 . S
U806 C810 2.847 . S
U806 C823 2.882 . S
U806 O824 2.441 . S
U806 O825 2.420 . S
U806 O826 2.455 . S
U806 O827 2.449 . S
O807 U806 2.454 . S
O807 C809 1.353 . S
O808 U806 2.458 . S
O808 C809 1.286 . S
C809 U806 2.984 . S
C809 O807 1.353 . S
C809 O808 1.286 . S
C809 C811 1.363 . S
C810 C800 1.465 . S
C810 U806 2.847 . S
C810 O824 1.249 . S
C810 O825 1.202 . S
C811 C809 1.363 . S
C811 C813 1.408 . S
C811 C816 1.342 . S
C812 C813 1.310 . S
C812 C815 1.461 . S
C812 H832 0.932 . S
C813 C811 1.408 . S
C813 C812 1.310 . S
C813 H833 0.930 . S
C814 C815 1.474 . S
C814 C816 1.285 . S
C814 H834 0.929 . S
C815 C812 1.461 . S
C815 C814 1.474 . S
C816 C811 1.342 . S
C816 C814 1.285 . S
C816 H835 0.930 . S
C817 C820 1.424 . S
C817 C822 1.245 . S
C817 C823 1.428 . S
C818 C821 1.260 . S
C818 C822 1.477 . S
C818 H836 0.932 . S
C819 C820 1.384 . S
C819 C821 1.479 . S
C819 H837 0.929 . S
C820 C817 1.424 . S
C820 C819 1.384 . S
C820 H838 0.928 . S
C821 C818 1.260 . S
C821 C819 1.479 . S
C822 C817 1.245 . S
C822 C818 1.477 . S
C822 H839 0.932 . S
C823 U806 2.882 . S
C823 C817 1.428 . S
C823 O826 1.301 . S
C823 O827 1.282 . S
O824 U806 2.441 . S
O824 C810 1.249 . S
O825 U806 2.420 . S
O825 C810 1.202 . S
O826 U806 2.455 . S
O826 C823 1.301 . S
O827 U806 2.449 . S
O827 C823 1.282 . S
H828 C801 0.931 . S
H829 C803 0.929 . S
H830 C804 0.930 . S
H831 C805 0.931 . S
H832 C812 0.932 . S
H833 C813 0.930 . S
H834 C814 0.929 . S
H835 C816 0.930 . S
H836 C818 0.932 . S
H837 C819 0.929 . S
H838 C820 0.928 . S
H839 C822 0.932 . S
C840 C841 1.264 . S
C840 C845 1.479 . S
C840 C850 1.465 . S
C841 C840 1.264 . S
C841 C843 1.339 . S
C841 H868 0.931 . S
C842 C843 1.395 . S
C842 C844 1.320 . S
C843 C841 1.339 . S
C843 C842 1.395 . S
C843 H869 0.929 . S
C844 C842 1.320 . S
C844 C845 1.405 . S
C844 H870 0.930 . S
C845 C840 1.479 . S
C845 C844 1.405 . S
C845 H871 0.931 . S
U846 O847 2.454 . S
U846 O848 2.458 . S
U846 C849 2.984 . S
U846 C850 2.847 . S
U846 C863 2.882 . S
U846 O864 2.441 . S
U846 O865 2.420 . S
U846 O866 2.455 . S
U846 O867 2.449 . S
O847 U846 2.454 . S
O847 C849 1.353 . S
O848 U846 2.458 . S
O848 C849 1.286 . S
C849 U846 2.984 . S
C849 O847 1.353 . S
C849 O848 1.286 . S
C849 C851 1.363 . S
C850 C840 1.465 . S
C850 U846 2.847 . S
C850 O864 1.249 . S
C850 O865 1.202 . S
C851 C849 1.363 . S
C851 C853 1.408 . S
C851 C856 1.342 . S
C852 C853 1.310 . S
C852 C855 1.461 . S
C852 H872 0.932 . S
C853 C851 1.408 . S
C853 C852 1.310 . S
C853 H873 0.930 . S
C854 C855 1.474 . S
C854 C856 1.285 . S
C854 H874 0.929 . S
C855 C852 1.461 . S
C855 C854 1.474 . S
C856 C851 1.342 . S
C856 C854 1.285 . S
C856 H875 0.930 . S
C857 C860 1.424 . S
C857 C862 1.245 . S
C857 C863 1.428 . S
C858 C861 1.260 . S
C858 C862 1.477 . S
C858 H876 0.932 . S
C859 C860 1.384 . S
C859 C861 1.479 . S
C859 H877 0.929 . S
C860 C857 1.424 . S
C860 C859 1.384 . S
C860 H878 0.928 . S
C861 C858 1.260 . S
C861 C859 1.479 . S
C862 C857 1.245 . S
C862 C858 1.477 . S
C862 H879 0.932 . S
C863 U846 2.882 . S
C863 C857 1.428 . S
C863 O866 1.301 . S
C863 O867 1.282 . S
O864 U846 2.441 . S
O864 C850 1.249 . S
O865 U846 2.420 . S
O865 C850 1.202 . S
O866 U846 2.455 . S
O866 C863 1.301 . S
O867 U846 2.449 . S
O867 C863 1.282 . S
H868 C841 0.931 . S
H869 C843 0.929 . S
H870 C844 0.930 . S
H871 C845 0.931 . S
H872 C852 0.932 . S
H873 C853 0.930 . S
H874 C854 0.929 . S
H875 C856 0.930 . S
H876 C858 0.932 . S
H877 C859 0.929 . S
H878 C860 0.928 . S
H879 C862 0.932 . S
C880 C881 1.264 . S
C880 C885 1.479 . S
C880 C890 1.465 . S
C881 C880 1.264 . S
C881 C883 1.339 . S
C881 H908 0.931 . S
C882 C883 1.395 . S
C882 C884 1.320 . S
C883 C881 1.339 . S
C883 C882 1.395 . S
C883 H909 0.929 . S
C884 C882 1.320 . S
C884 C885 1.405 . S
C884 H910 0.930 . S
C885 C880 1.479 . S
C885 C884 1.405 . S
C885 H911 0.931 . S
U886 O887 2.454 . S
U886 O888 2.458 . S
U886 C889 2.984 . S
U886 C890 2.847 . S
U886 C903 2.882 . S
U886 O904 2.441 . S
U886 O905 2.420 . S
U886 O906 2.455 . S
U886 O907 2.449 . S
O887 U886 2.454 . S
O887 C889 1.353 . S
O888 U886 2.458 . S
O888 C889 1.286 . S
C889 U886 2.984 . S
C889 O887 1.353 . S
C889 O888 1.286 . S
C889 C891 1.363 . S
C890 C880 1.465 . S
C890 U886 2.847 . S
C890 O904 1.249 . S
C890 O905 1.202 . S
C891 C889 1.363 . S
C891 C893 1.408 . S
C891 C896 1.342 . S
C892 C893 1.310 . S
C892 C895 1.461 . S
C892 H912 0.932 . S
C893 C891 1.408 . S
C893 C892 1.310 . S
C893 H913 0.930 . S
C894 C895 1.474 . S
C894 C896 1.285 . S
C894 H914 0.929 . S
C895 C892 1.461 . S
C895 C894 1.474 . S
C896 C891 1.342 . S
C896 C894 1.285 . S
C896 H915 0.930 . S
C897 C900 1.424 . S
C897 C902 1.245 . S
C897 C903 1.428 . S
C898 C901 1.260 . S
C898 C902 1.477 . S
C898 H916 0.932 . S
C899 C900 1.384 . S
C899 C901 1.479 . S
C899 H917 0.929 . S
C900 C897 1.424 . S
C900 C899 1.384 . S
C900 H918 0.928 . S
C901 C898 1.260 . S
C901 C899 1.479 . S
C902 C897 1.245 . S
C902 C898 1.477 . S
C902 H919 0.932 . S
C903 U886 2.882 . S
C903 C897 1.428 . S
C903 O906 1.301 . S
C903 O907 1.282 . S
O904 U886 2.441 . S
O904 C890 1.249 . S
O905 U886 2.420 . S
O905 C890 1.202 . S
O906 U886 2.455 . S
O906 C903 1.301 . S
O907 U886 2.449 . S
O907 C903 1.282 . S
H908 C881 0.931 . S
H909 C883 0.929 . S
H910 C884 0.930 . S
H911 C885 0.931 . S
H912 C892 0.932 . S
H913 C893 0.930 . S
H914 C894 0.929 . S
H915 C896 0.930 . S
H916 C898 0.932 . S
H917 C899 0.929 . S
H918 C900 0.928 . S
H919 C902 0.932 . S
C920 C921 1.264 . S
C920 C925 1.479 . S
C920 C930 1.465 . S
C921 C920 1.264 . S
C921 C923 1.339 . S
C921 H948 0.931 . S
C922 C923 1.395 . S
C922 C924 1.320 . S
C923 C921 1.339 . S
C923 C922 1.395 . S
C923 H949 0.929 1_655 S
C924 C922 1.320 . S
C924 C925 1.405 . S
C924 H950 0.930 . S
C925 C920 1.479 . S
C925 C924 1.405 . S
C925 H951 0.931 . S
U926 O927 2.454 . S
U926 O928 2.458 . S
U926 C929 2.984 . S
U926 C930 2.847 . S
U926 C943 2.882 1_655 S
U926 O944 2.441 . S
U926 O945 2.420 . S
U926 O946 2.455 . S
U926 O947 2.470 . S
O927 U926 2.454 . S
O927 C929 1.353 . S
O928 U926 2.458 . S
O928 C929 1.286 . S
C929 U926 2.984 . S
C929 O927 1.353 . S
C929 O928 1.286 . S
C929 C931 1.363 . S
C930 C920 1.465 . S
C930 U926 2.847 . S
C930 O944 1.249 . S
C930 O945 1.202 . S
C931 C929 1.363 . S
C931 C933 1.408 . S
C931 C936 1.342 . S
C932 C933 1.310 . S
C932 C935 1.461 . S
C932 H952 0.932 . S
C933 C931 1.408 . S
C933 C932 1.310 . S
C933 H953 0.930 . S
C934 C935 1.474 . S
C934 C936 1.285 . S
C934 H954 0.929 . S
C935 C932 1.461 . S
C935 C934 1.474 . S
C936 C931 1.342 . S
C936 C934 1.285 . S
C936 H955 0.930 . S
C937 C940 1.424 . S
C937 C942 1.245 . S
C937 C943 1.428 . S
C938 C941 1.260 . S
C938 C942 1.477 . S
C938 H956 0.932 . S
C939 C940 1.384 . S
C939 C941 1.479 . S
C939 H957 0.929 . S
C940 C937 1.424 . S
C940 C939 1.384 . S
C940 H958 0.928 . S
C941 C938 1.260 . S
C941 C939 1.479 . S
C942 C937 1.245 . S
C942 C938 1.477 . S
C942 H959 0.932 . S
C943 U926 2.882 1_455 S
C943 C937 1.428 . S
C943 O946 1.301 1_455 S
C943 O947 1.271 1_455 S
O944 U926 2.441 . S
O944 C930 1.249 . S
O945 U926 2.420 . S
O945 C930 1.202 . S
O946 U926 2.455 . S
O946 C943 1.301 1_655 S
O947 U926 2.470 . S
O947 C943 1.271 1_655 S
H948 C921 0.931 . S
H949 C923 0.929 1_455 S
H950 C924 0.930 . S
H951 C925 0.931 . S
H952 C932 0.932 . S
H953 C933 0.930 . S
H954 C934 0.929 . S
H955 C936 0.930 . S
H956 C938 0.932 . S
H957 C939 0.929 . S
H958 C940 0.928 . S
H959 C942 0.932 . S
C960 C961 1.386 . S
C960 C962 1.397 . S
C960 H984 0.931 . S
C961 C960 1.386 . S
C961 C965 1.397 . S
C962 C960 1.397 . S
C962 C963 1.384 . S
C962 H985 0.930 . S
C963 C962 1.384 . S
C963 C964 1.377 . S
C963 C966 1.481 . S
C964 C963 1.377 . S
C964 C965 1.389 . S
C964 H986 0.929 . S
C965 C961 1.397 . S
C965 C964 1.389 . S
C965 H987 0.931 . S
C966 C963 1.481 . S
C966 C967 1.387 . S
C966 C971 1.390 . S
C967 C966 1.387 . S
C967 C968 1.401 . S
C967 H988 0.930 . S
C968 C967 1.401 . S
C968 C969 1.376 . S
C968 C977 1.511 . S
C969 C968 1.376 . S
C969 C970 1.392 . S
C969 H990 0.931 . S
C970 C969 1.392 . S
C970 C971 1.361 . S
C970 C972 1.500 . S
C971 C966 1.390 . S
C971 C970 1.361 . S
C971 H989 0.931 . S
C972 C970 1.500 . S
C972 C973 1.371 . S
C972 C974 1.365 . S
C973 C972 1.371 . S
C973 C983 1.386 . S
C973 H991 0.931 . S
C974 C972 1.365 . S
C974 C975 1.409 . S
C974 H992 0.929 . S
C975 C974 1.409 . S
C975 C976 1.380 . S
C975 H993 0.930 . S
C976 C975 1.380 . S
C976 C983 1.357 . S
C977 C968 1.511 . S
C977 C978 1.341 . S
C977 C979 1.371 . S
C978 C977 1.341 . S
C978 C982 1.394 . S
C978 H994 0.930 . S
C979 C977 1.371 . S
C979 C980 1.392 . S
C979 H995 0.931 . S
C980 C979 1.392 . S
C980 C981 1.331 . S
C980 H998 0.932 . S
C981 C980 1.331 . S
C981 C982 1.336 . S
C982 C978 1.394 . S
C982 C981 1.336 . S
C982 H997 0.929 . S
C983 C973 1.386 . S
C983 C976 1.357 . S
C983 H996 0.928 . S
H984 C960 0.931 . S
H985 C962 0.930 . S
H986 C964 0.929 . S
H987 C965 0.931 . S
H988 C967 0.930 . S
H989 C971 0.931 . S
H990 C969 0.931 . S
H991 C973 0.931 . S
H992 C974 0.929 . S
H993 C975 0.930 . S
H994 C978 0.930 . S
H995 C979 0.931 . S
H996 C983 0.928 . S
H997 C982 0.929 . S
H998 C980 0.932 . S
C999 C1000 1.386 . S
C999 C1001 1.397 . S
C999 H1023 0.931 . S
C1000 C999 1.386 . S
C1000 C1004 1.397 . S
C1001 C999 1.397 . S
C1001 C1002 1.384 . S
C1001 H1024 0.930 . S
C1002 C1001 1.384 . S
C1002 C1003 1.377 . S
C1002 C1005 1.481 . S
C1003 C1002 1.377 . S
C1003 C1004 1.389 . S
C1003 H1025 0.929 . S
C1004 C1000 1.397 . S
C1004 C1003 1.389 . S
C1004 H1026 0.931 . S
C1005 C1002 1.481 . S
C1005 C1006 1.387 . S
C1005 C1010 1.390 . S
C1006 C1005 1.387 . S
C1006 C1007 1.401 . S
C1006 H1027 0.930 . S
C1007 C1006 1.401 . S
C1007 C1008 1.376 . S
C1007 C1016 1.511 . S
C1008 C1007 1.376 . S
C1008 C1009 1.392 . S
C1008 H1029 0.931 . S
C1009 C1008 1.392 . S
C1009 C1010 1.361 . S
C1009 C1011 1.500 . S
C1010 C1005 1.390 . S
C1010 C1009 1.361 . S
C1010 H1028 0.931 . S
C1011 C1009 1.500 . S
C1011 C1012 1.371 . S
C1011 C1013 1.365 . S
C1012 C1011 1.371 . S
C1012 C1022 1.386 . S
C1012 H1030 0.931 . S
C1013 C1011 1.365 . S
C1013 C1014 1.409 . S
C1013 H1031 0.929 . S
C1014 C1013 1.409 . S
C1014 C1015 1.380 . S
C1014 H1032 0.930 . S
C1015 C1014 1.380 . S
C1015 C1022 1.357 . S
C1016 C1007 1.511 . S
C1016 C1017 1.341 . S
C1016 C1018 1.371 . S
C1017 C1016 1.341 . S
C1017 C1021 1.394 . S
C1017 H1033 0.930 . S
C1018 C1016 1.371 . S
C1018 C1019 1.392 . S
C1018 H1034 0.931 . S
C1019 C1018 1.392 . S
C1019 C1020 1.331 . S
C1019 H1037 0.932 . S
C1020 C1019 1.331 . S
C1020 C1021 1.336 . S
C1021 C1017 1.394 . S
C1021 C1020 1.336 . S
C1021 H1036 0.929 . S
C1022 C1012 1.386 . S
C1022 C1015 1.357 . S
C1022 H1035 0.928 . S
H1023 C999 0.931 . S
H1024 C1001 0.930 . S
H1025 C1003 0.929 . S
H1026 C1004 0.931 . S
H1027 C1006 0.930 . S
H1028 C1010 0.931 . S
H1029 C1008 0.931 . S
H1030 C1012 0.931 . S
H1031 C1013 0.929 . S
H1032 C1014 0.930 . S
H1033 C1017 0.930 . S
H1034 C1018 0.931 . S
H1035 C1022 0.928 . S
H1036 C1021 0.929 . S
H1037 C1019 0.932 . S
C1038 C1039 1.351 1_545 S
C1038 C1040 1.397 . S
C1038 H1062 0.931 . S
C1039 C1038 1.351 1_565 S
C1039 C1043 1.431 . S
C1040 C1038 1.397 . S
C1040 C1041 1.400 . S
C1040 H1063 0.930 . S
C1041 C1040 1.400 . S
C1041 C1042 1.361 1_545 S
C1041 C1044 1.480 . S
C1042 C1041 1.361 1_565 S
C1042 C1043 1.389 . S
C1042 H1064 0.929 . S
C1043 C1039 1.431 . S
C1043 C1042 1.389 . S
C1043 H1065 0.931 . S
C1044 C1041 1.480 . S
C1044 C1045 1.421 . S
C1044 C1049 1.357 1_545 S
C1045 C1044 1.421 . S
C1045 C1046 1.401 . S
C1045 H1066 0.930 . S
C1046 C1045 1.401 . S
C1046 C1047 1.413 . S
C1046 C1055 1.511 . S
C1047 C1046 1.413 . S
C1047 C1048 1.356 1_545 S
C1047 H1068 0.931 . S
C1048 C1047 1.356 1_565 S
C1048 C1049 1.361 . S
C1048 C1050 1.500 . S
C1049 C1044 1.357 1_565 S
C1049 C1048 1.361 . S
C1049 H1067 0.931 . S
C1050 C1048 1.500 . S
C1050 C1051 1.371 . S
C1050 C1052 1.365 . S
C1051 C1050 1.371 . S
C1051 C1061 1.386 . S
C1051 H1069 0.931 . S
C1052 C1050 1.365 . S
C1052 C1053 1.409 . S
C1052 H1070 0.929 . S
C1053 C1052 1.409 . S
C1053 C1054 1.380 . S
C1053 H1071 0.930 . S
C1054 C1053 1.380 . S
C1054 C1061 1.357 . S
C1055 C1046 1.511 . S
C1055 C1056 1.341 . S
C1055 C1057 1.371 . S
C1056 C1055 1.341 . S
C1056 C1060 1.394 . S
C1056 H1072 0.930 . S
C1057 C1055 1.371 . S
C1057 C1058 1.392 . S
C1057 H1073 0.931 . S
C1058 C1057 1.392 . S
C1058 C1059 1.331 . S
C1058 H1076 0.932 . S
C1059 C1058 1.331 . S
C1059 C1060 1.336 . S
C1060 C1056 1.394 . S
C1060 C1059 1.336 . S
C1060 H1075 0.929 . S
C1061 C1051 1.386 . S
C1061 C1054 1.357 . S
C1061 H1074 0.928 . S
H1062 C1038 0.931 . S
H1063 C1040 0.930 . S
H1064 C1042 0.929 . S
H1065 C1043 0.931 . S
H1066 C1045 0.930 . S
H1067 C1049 0.931 . S
H1068 C1047 0.931 . S
H1069 C1051 0.931 . S
H1070 C1052 0.929 . S
H1071 C1053 0.930 . S
H1072 C1056 0.930 . S
H1073 C1057 0.931 . S
H1074 C1061 0.928 . S
H1075 C1060 0.929 . S
H1076 C1058 0.932 . S
C1077 C1078 1.386 . S
C1077 C1079 1.397 . S
C1077 H1101 0.931 . S
C1078 C1077 1.386 . S
C1078 C1082 1.397 1_565 S
C1079 C1077 1.397 . S
C1079 C1080 1.384 . S
C1079 H1102 0.930 . S
C1080 C1079 1.384 . S
C1080 C1081 1.377 1_565 S
C1080 C1083 1.481 . S
C1081 C1080 1.377 1_545 S
C1081 C1082 1.389 . S
C1081 H1103 0.929 . S
C1082 C1078 1.397 1_545 S
C1082 C1081 1.389 . S
C1082 H1104 0.931 . S
C1083 C1080 1.481 . S
C1083 C1084 1.387 . S
C1083 C1088 1.390 1_565 S
C1084 C1083 1.387 . S
C1084 C1085 1.401 . S
C1084 H1105 0.930 . S
C1085 C1084 1.401 . S
C1085 C1086 1.376 1_565 S
C1085 C1094 1.511 . S
C1086 C1085 1.376 1_545 S
C1086 C1087 1.392 . S
C1086 H1107 0.931 . S
C1087 C1086 1.392 . S
C1087 C1088 1.361 . S
C1087 C1089 1.500 . S
C1088 C1083 1.390 1_545 S
C1088 C1087 1.361 . S
C1088 H1106 0.931 . S
C1089 C1087 1.500 . S
C1089 C1090 1.371 . S
C1089 C1091 1.365 . S
C1090 C1089 1.371 . S
C1090 C1100 1.386 . S
C1090 H1108 0.931 . S
C1091 C1089 1.365 . S
C1091 C1092 1.409 . S
C1091 H1109 0.929 . S
C1092 C1091 1.409 . S
C1092 C1093 1.380 . S
C1092 H1110 0.930 . S
C1093 C1092 1.380 . S
C1093 C1100 1.357 . S
C1094 C1085 1.511 . S
C1094 C1095 1.341 . S
C1094 C1096 1.371 . S
C1095 C1094 1.341 . S
C1095 C1099 1.394 . S
C1095 H1111 0.930 . S
C1096 C1094 1.371 . S
C1096 C1097 1.392 . S
C1096 H1112 0.931 . S
C1097 C1096 1.392 . S
C1097 C1098 1.331 . S
C1097 H1115 0.932 . S
C1098 C1097 1.331 . S
C1098 C1099 1.336 . S
C1099 C1095 1.394 . S
C1099 C1098 1.336 . S
C1099 H1114 0.929 . S
C1100 C1090 1.386 . S
C1100 C1093 1.357 . S
C1100 H1113 0.928 . S
H1101 C1077 0.931 . S
H1102 C1079 0.930 . S
H1103 C1081 0.929 . S
H1104 C1082 0.931 . S
H1105 C1084 0.930 . S
H1106 C1088 0.931 . S
H1107 C1086 0.931 . S
H1108 C1090 0.931 . S
H1109 C1091 0.929 . S
H1110 C1092 0.930 . S
H1111 C1095 0.930 . S
H1112 C1096 0.931 . S
H1113 C1100 0.928 . S
H1114 C1099 0.929 . S
H1115 C1097 0.932 . S
C1116 C1117 1.386 . S
C1116 C1118 1.397 . S
C1116 H1140 0.931 . S
C1117 C1116 1.386 . S
C1117 C1121 1.397 . S
C1118 C1116 1.397 . S
C1118 C1119 1.384 . S
C1118 H1141 0.930 . S
C1119 C1118 1.384 . S
C1119 C1120 1.377 . S
C1119 C1122 1.481 . S
C1120 C1119 1.377 . S
C1120 C1121 1.389 . S
C1120 H1142 0.929 . S
C1121 C1117 1.397 . S
C1121 C1120 1.389 . S
C1121 H1143 0.931 . S
C1122 C1119 1.481 . S
C1122 C1123 1.387 . S
C1122 C1127 1.390 . S
C1123 C1122 1.387 . S
C1123 C1124 1.401 . S
C1123 H1144 0.930 . S
C1124 C1123 1.401 . S
C1124 C1125 1.376 . S
C1124 C1133 1.511 . S
C1125 C1124 1.376 . S
C1125 C1126 1.392 . S
C1125 H1146 0.931 . S
C1126 C1125 1.392 . S
C1126 C1127 1.361 . S
C1126 C1128 1.500 . S
C1127 C1122 1.390 . S
C1127 C1126 1.361 . S
C1127 H1145 0.931 . S
C1128 C1126 1.500 . S
C1128 C1129 1.371 . S
C1128 C1130 1.365 . S
C1129 C1128 1.371 . S
C1129 C1139 1.386 . S
C1129 H1147 0.931 . S
C1130 C1128 1.365 . S
C1130 C1131 1.409 . S
C1130 H1148 0.929 . S
C1131 C1130 1.409 . S
C1131 C1132 1.380 . S
C1131 H1149 0.930 . S
C1132 C1131 1.380 . S
C1132 C1139 1.357 . S
C1133 C1124 1.511 . S
C1133 C1134 1.341 . S
C1133 C1135 1.371 . S
C1134 C1133 1.341 . S
C1134 C1138 1.394 . S
C1134 H1150 0.930 . S
C1135 C1133 1.371 . S
C1135 C1136 1.392 . S
C1135 H1151 0.931 . S
C1136 C1135 1.392 . S
C1136 C1137 1.331 . S
C1136 H1154 0.932 . S
C1137 C1136 1.331 . S
C1137 C1138 1.336 . S
C1138 C1134 1.394 . S
C1138 C1137 1.336 . S
C1138 H1153 0.929 . S
C1139 C1129 1.386 . S
C1139 C1132 1.357 . S
C1139 H1152 0.928 . S
H1140 C1116 0.931 . S
H1141 C1118 0.930 . S
H1142 C1120 0.929 . S
H1143 C1121 0.931 . S
H1144 C1123 0.930 . S
H1145 C1127 0.931 . S
H1146 C1125 0.931 . S
H1147 C1129 0.931 . S
H1148 C1130 0.929 . S
H1149 C1131 0.930 . S
H1150 C1134 0.930 . S
H1151 C1135 0.931 . S
H1152 C1139 0.928 . S
H1153 C1138 0.929 . S
H1154 C1136 0.932 . S
C1155 C1156 1.386 . S
C1155 C1157 1.397 . S
C1155 H1179 0.931 . S
C1156 C1155 1.386 . S
C1156 C1160 1.397 1_556 S
C1157 C1155 1.397 . S
C1157 C1158 1.384 . S
C1157 H1180 0.930 . S
C1158 C1157 1.384 . S
C1158 C1159 1.377 1_556 S
C1158 C1161 1.481 . S
C1159 C1158 1.377 1_554 S
C1159 C1160 1.389 . S
C1159 H1181 0.929 . S
C1160 C1156 1.397 1_554 S
C1160 C1159 1.389 . S
C1160 H1182 0.931 . S
C1161 C1158 1.481 . S
C1161 C1162 1.387 . S
C1161 C1166 1.390 1_556 S
C1162 C1161 1.387 . S
C1162 C1163 1.401 . S
C1162 H1183 0.930 . S
C1163 C1162 1.401 . S
C1163 C1164 1.376 1_556 S
C1163 C1172 1.511 . S
C1164 C1163 1.376 1_554 S
C1164 C1165 1.392 . S
C1164 H1185 0.931 . S
C1165 C1164 1.392 . S
C1165 C1166 1.361 . S
C1165 C1167 1.500 . S
C1166 C1161 1.390 1_554 S
C1166 C1165 1.361 . S
C1166 H1184 0.931 . S
C1167 C1165 1.500 . S
C1167 C1168 1.371 . S
C1167 C1169 1.365 . S
C1168 C1167 1.371 . S
C1168 C1178 1.386 . S
C1168 H1186 0.931 . S
C1169 C1167 1.365 . S
C1169 C1170 1.409 . S
C1169 H1187 0.929 . S
C1170 C1169 1.409 . S
C1170 C1171 1.380 . S
C1170 H1188 0.930 . S
C1171 C1170 1.380 . S
C1171 C1178 1.357 . S
C1172 C1163 1.511 . S
C1172 C1173 1.341 . S
C1172 C1174 1.371 . S
C1173 C1172 1.341 . S
C1173 C1177 1.394 . S
C1173 H1189 0.930 . S
C1174 C1172 1.371 . S
C1174 C1175 1.392 . S
C1174 H1190 0.931 . S
C1175 C1174 1.392 . S
C1175 C1176 1.331 . S
C1175 H1193 0.932 . S
C1176 C1175 1.331 . S
C1176 C1177 1.336 . S
C1177 C1173 1.394 . S
C1177 C1176 1.336 . S
C1177 H1192 0.929 . S
C1178 C1168 1.386 . S
C1178 C1171 1.357 . S
C1178 H1191 0.928 . S
H1179 C1155 0.931 . S
H1180 C1157 0.930 . S
H1181 C1159 0.929 . S
H1182 C1160 0.931 . S
H1183 C1162 0.930 . S
H1184 C1166 0.931 . S
H1185 C1164 0.931 . S
H1186 C1168 0.931 . S
H1187 C1169 0.929 . S
H1188 C1170 0.930 . S
H1189 C1173 0.930 . S
H1190 C1174 0.931 . S
H1191 C1178 0.928 . S
H1192 C1177 0.929 . S
H1193 C1175 0.932 . S
C1194 C1195 1.386 . S
C1194 C1196 1.397 . S
C1194 H1218 0.931 . S
C1195 C1194 1.386 . S
C1195 C1199 1.397 . S
C1196 C1194 1.397 . S
C1196 C1197 1.384 . S
C1196 H1219 0.930 . S
C1197 C1196 1.384 . S
C1197 C1198 1.377 . S
C1197 C1200 1.481 . S
C1198 C1197 1.377 . S
C1198 C1199 1.389 . S
C1198 H1220 0.929 . S
C1199 C1195 1.397 . S
C1199 C1198 1.389 . S
C1199 H1221 0.931 . S
C1200 C1197 1.481 . S
C1200 C1201 1.387 . S
C1200 C1205 1.390 . S
C1201 C1200 1.387 . S
C1201 C1202 1.401 . S
C1201 H1222 0.930 . S
C1202 C1201 1.401 . S
C1202 C1203 1.376 . S
C1202 C1211 1.511 . S
C1203 C1202 1.376 . S
C1203 C1204 1.392 . S
C1203 H1224 0.931 . S
C1204 C1203 1.392 . S
C1204 C1205 1.361 . S
C1204 C1206 1.500 . S
C1205 C1200 1.390 . S
C1205 C1204 1.361 . S
C1205 H1223 0.931 . S
C1206 C1204 1.500 . S
C1206 C1207 1.371 . S
C1206 C1208 1.365 . S
C1207 C1206 1.371 . S
C1207 C1217 1.386 . S
C1207 H1225 0.931 . S
C1208 C1206 1.365 . S
C1208 C1209 1.409 . S
C1208 H1226 0.929 . S
C1209 C1208 1.409 . S
C1209 C1210 1.380 . S
C1209 H1227 0.930 . S
C1210 C1209 1.380 . S
C1210 C1217 1.357 . S
C1211 C1202 1.511 . S
C1211 C1212 1.341 . S
C1211 C1213 1.371 . S
C1212 C1211 1.341 . S
C1212 C1216 1.394 . S
C1212 H1228 0.930 . S
C1213 C1211 1.371 . S
C1213 C1214 1.392 . S
C1213 H1229 0.931 . S
C1214 C1213 1.392 . S
C1214 C1215 1.331 . S
C1214 H1232 0.932 . S
C1215 C1214 1.331 . S
C1215 C1216 1.336 . S
C1216 C1212 1.394 . S
C1216 C1215 1.336 . S
C1216 H1231 0.929 . S
C1217 C1207 1.386 . S
C1217 C1210 1.357 . S
C1217 H1230 0.928 . S
H1218 C1194 0.931 . S
H1219 C1196 0.930 . S
H1220 C1198 0.929 . S
H1221 C1199 0.931 . S
H1222 C1201 0.930 . S
H1223 C1205 0.931 . S
H1224 C1203 0.931 . S
H1225 C1207 0.931 . S
H1226 C1208 0.929 . S
H1227 C1209 0.930 . S
H1228 C1212 0.930 . S
H1229 C1213 0.931 . S
H1230 C1217 0.928 . S
H1231 C1216 0.929 . S
H1232 C1214 0.932 . S
C1233 C1234 1.351 1_554 S
C1233 C1235 1.397 . S
C1233 H1257 0.931 . S
C1234 C1233 1.351 1_556 S
C1234 C1238 1.431 . S
C1235 C1233 1.397 . S
C1235 C1236 1.400 . S
C1235 H1258 0.930 . S
C1236 C1235 1.400 . S
C1236 C1237 1.361 1_554 S
C1236 C1239 1.480 . S
C1237 C1236 1.361 1_556 S
C1237 C1238 1.389 . S
C1237 H1259 0.929 . S
C1238 C1234 1.431 . S
C1238 C1237 1.389 . S
C1238 H1260 0.931 . S
C1239 C1236 1.480 . S
C1239 C1240 1.421 . S
C1239 C1244 1.357 1_554 S
C1240 C1239 1.421 . S
C1240 C1241 1.401 . S
C1240 H1261 0.930 . S
C1241 C1240 1.401 . S
C1241 C1242 1.413 . S
C1241 C1250 1.511 . S
C1242 C1241 1.413 . S
C1242 C1243 1.356 1_554 S
C1242 H1263 0.931 . S
C1243 C1242 1.356 1_556 S
C1243 C1244 1.361 . S
C1243 C1245 1.500 . S
C1244 C1239 1.357 1_556 S
C1244 C1243 1.361 . S
C1244 H1262 0.931 . S
C1245 C1243 1.500 . S
C1245 C1246 1.371 . S
C1245 C1247 1.365 . S
C1246 C1245 1.371 . S
C1246 C1256 1.386 . S
C1246 H1264 0.931 . S
C1247 C1245 1.365 . S
C1247 C1248 1.409 . S
C1247 H1265 0.929 . S
C1248 C1247 1.409 . S
C1248 C1249 1.380 . S
C1248 H1266 0.930 . S
C1249 C1248 1.380 . S
C1249 C1256 1.357 . S
C1250 C1241 1.511 . S
C1250 C1251 1.341 . S
C1250 C1252 1.371 . S
C1251 C1250 1.341 . S
C1251 C1255 1.394 . S
C1251 H1267 0.930 . S
C1252 C1250 1.371 . S
C1252 C1253 1.392 . S
C1252 H1268 0.931 . S
C1253 C1252 1.392 . S
C1253 C1254 1.331 . S
C1253 H1271 0.932 . S
C1254 C1253 1.331 . S
C1254 C1255 1.336 . S
C1255 C1251 1.394 . S
C1255 C1254 1.336 . S
C1255 H1270 0.929 . S
C1256 C1246 1.386 . S
C1256 C1249 1.357 . S
C1256 H1269 0.928 . S
H1257 C1233 0.931 . S
H1258 C1235 0.930 . S
H1259 C1237 0.929 . S
H1260 C1238 0.931 . S
H1261 C1240 0.930 . S
H1262 C1244 0.931 . S
H1263 C1242 0.931 . S
H1264 C1246 0.931 . S
H1265 C1247 0.929 . S
H1266 C1248 0.930 . S
H1267 C1251 0.930 . S
H1268 C1252 0.931 . S
H1269 C1256 0.928 . S
H1270 C1255 0.929 . S
H1271 C1253 0.932 . S
C1272 C1273 1.386 . S
C1272 C1274 1.397 . S
C1272 H1296 0.931 . S
C1273 C1272 1.386 . S
C1273 C1277 1.397 . S
C1274 C1272 1.397 . S
C1274 C1275 1.384 . S
C1274 H1297 0.930 . S
C1275 C1274 1.384 . S
C1275 C1276 1.377 . S
C1275 C1278 1.481 . S
C1276 C1275 1.377 . S
C1276 C1277 1.389 . S
C1276 H1298 0.929 . S
C1277 C1273 1.397 . S
C1277 C1276 1.389 . S
C1277 H1299 0.931 . S
C1278 C1275 1.481 . S
C1278 C1279 1.387 . S
C1278 C1283 1.390 . S
C1279 C1278 1.387 . S
C1279 C1280 1.401 . S
C1279 H1300 0.930 . S
C1280 C1279 1.401 . S
C1280 C1281 1.376 . S
C1280 C1289 1.511 . S
C1281 C1280 1.376 . S
C1281 C1282 1.392 . S
C1281 H1302 0.931 . S
C1282 C1281 1.392 . S
C1282 C1283 1.361 . S
C1282 C1284 1.500 . S
C1283 C1278 1.390 . S
C1283 C1282 1.361 . S
C1283 H1301 0.931 . S
C1284 C1282 1.500 . S
C1284 C1285 1.371 . S
C1284 C1286 1.365 . S
C1285 C1284 1.371 . S
C1285 C1295 1.386 . S
C1285 H1303 0.931 . S
C1286 C1284 1.365 . S
C1286 C1287 1.409 . S
C1286 H1304 0.929 . S
C1287 C1286 1.409 . S
C1287 C1288 1.380 . S
C1287 H1305 0.930 . S
C1288 C1287 1.380 . S
C1288 C1295 1.357 . S
C1289 C1280 1.511 . S
C1289 C1290 1.341 . S
C1289 C1291 1.371 . S
C1290 C1289 1.341 . S
C1290 C1294 1.394 . S
C1290 H1306 0.930 . S
C1291 C1289 1.371 . S
C1291 C1292 1.392 . S
C1291 H1307 0.931 . S
C1292 C1291 1.392 . S
C1292 C1293 1.331 . S
C1292 H1310 0.932 . S
C1293 C1292 1.331 . S
C1293 C1294 1.336 . S
C1294 C1290 1.394 . S
C1294 C1293 1.336 . S
C1294 H1309 0.929 . S
C1295 C1285 1.386 . S
C1295 C1288 1.357 . S
C1295 H1308 0.928 . S
H1296 C1272 0.931 . S
H1297 C1274 0.930 . S
H1298 C1276 0.929 . S
H1299 C1277 0.931 . S
H1300 C1279 0.930 . S
H1301 C1283 0.931 . S
H1302 C1281 0.931 . S
H1303 C1285 0.931 . S
H1304 C1286 0.929 . S
H1305 C1287 0.930 . S
H1306 C1290 0.930 . S
H1307 C1291 0.931 . S
H1308 C1295 0.928 . S
H1309 C1294 0.929 . S
H1310 C1292 0.932 . S
C1311 C1312 1.386 . S
C1311 C1313 1.397 . S
C1311 H1335 0.931 . S
C1312 C1311 1.386 . S
C1312 C1316 1.397 1_655 S
C1313 C1311 1.397 . S
C1313 C1314 1.384 . S
C1313 H1336 0.930 . S
C1314 C1313 1.384 . S
C1314 C1315 1.377 1_655 S
C1314 C1317 1.481 . S
C1315 C1314 1.377 1_455 S
C1315 C1316 1.389 . S
C1315 H1337 0.929 . S
C1316 C1312 1.397 1_455 S
C1316 C1315 1.389 . S
C1316 H1338 0.931 . S
C1317 C1314 1.481 . S
C1317 C1318 1.387 . S
C1317 C1322 1.390 1_655 S
C1318 C1317 1.387 . S
C1318 C1319 1.401 . S
C1318 H1339 0.930 . S
C1319 C1318 1.401 . S
C1319 C1320 1.376 1_655 S
C1319 C1328 1.511 . S
C1320 C1319 1.376 1_455 S
C1320 C1321 1.392 . S
C1320 H1341 0.931 . S
C1321 C1320 1.392 . S
C1321 C1322 1.361 . S
C1321 C1323 1.500 . S
C1322 C1317 1.390 1_455 S
C1322 C1321 1.361 . S
C1322 H1340 0.931 . S
C1323 C1321 1.500 . S
C1323 C1324 1.371 . S
C1323 C1325 1.365 . S
C1324 C1323 1.371 . S
C1324 C1334 1.386 . S
C1324 H1342 0.931 . S
C1325 C1323 1.365 . S
C1325 C1326 1.409 . S
C1325 H1343 0.929 . S
C1326 C1325 1.409 . S
C1326 C1327 1.380 . S
C1326 H1344 0.930 . S
C1327 C1326 1.380 . S
C1327 C1334 1.357 . S
C1328 C1319 1.511 . S
C1328 C1329 1.341 . S
C1328 C1330 1.371 . S
C1329 C1328 1.341 . S
C1329 C1333 1.394 . S
C1329 H1345 0.930 . S
C1330 C1328 1.371 . S
C1330 C1331 1.392 . S
C1330 H1346 0.931 . S
C1331 C1330 1.392 . S
C1331 C1332 1.331 . S
C1331 H1349 0.932 . S
C1332 C1331 1.331 . S
C1332 C1333 1.336 . S
C1333 C1329 1.394 . S
C1333 C1332 1.336 . S
C1333 H1348 0.929 . S
C1334 C1324 1.386 . S
C1334 C1327 1.357 . S
C1334 H1347 0.928 . S
H1335 C1311 0.931 . S
H1336 C1313 0.930 . S
H1337 C1315 0.929 . S
H1338 C1316 0.931 . S
H1339 C1318 0.930 . S
H1340 C1322 0.931 . S
H1341 C1320 0.931 . S
H1342 C1324 0.931 . S
H1343 C1325 0.929 . S
H1344 C1326 0.930 . S
H1345 C1329 0.930 . S
H1346 C1330 0.931 . S
H1347 C1334 0.928 . S
H1348 C1333 0.929 . S
H1349 C1331 0.932 . S
C1350 C1351 1.386 . S
C1350 C1352 1.397 . S
C1350 H1374 0.931 . S
C1351 C1350 1.386 . S
C1351 C1355 1.397 . S
C1352 C1350 1.397 . S
C1352 C1353 1.384 . S
C1352 H1375 0.930 . S
C1353 C1352 1.384 . S
C1353 C1354 1.377 . S
C1353 C1356 1.481 . S
C1354 C1353 1.377 . S
C1354 C1355 1.389 . S
C1354 H1376 0.929 . S
C1355 C1351 1.397 . S
C1355 C1354 1.389 . S
C1355 H1377 0.931 . S
C1356 C1353 1.481 . S
C1356 C1357 1.387 . S
C1356 C1361 1.390 . S
C1357 C1356 1.387 . S
C1357 C1358 1.401 . S
C1357 H1378 0.930 . S
C1358 C1357 1.401 . S
C1358 C1359 1.376 . S
C1358 C1367 1.511 . S
C1359 C1358 1.376 . S
C1359 C1360 1.392 . S
C1359 H1380 0.931 . S
C1360 C1359 1.392 . S
C1360 C1361 1.361 . S
C1360 C1362 1.500 . S
C1361 C1356 1.390 . S
C1361 C1360 1.361 . S
C1361 H1379 0.931 . S
C1362 C1360 1.500 . S
C1362 C1363 1.371 . S
C1362 C1364 1.365 . S
C1363 C1362 1.371 . S
C1363 C1373 1.386 . S
C1363 H1381 0.931 . S
C1364 C1362 1.365 . S
C1364 C1365 1.409 . S
C1364 H1382 0.929 . S
C1365 C1364 1.409 . S
C1365 C1366 1.380 . S
C1365 H1383 0.930 . S
C1366 C1365 1.380 . S
C1366 C1373 1.357 . S
C1367 C1358 1.511 . S
C1367 C1368 1.341 . S
C1367 C1369 1.371 . S
C1368 C1367 1.341 . S
C1368 C1372 1.394 . S
C1368 H1384 0.930 . S
C1369 C1367 1.371 . S
C1369 C1370 1.392 . S
C1369 H1385 0.931 . S
C1370 C1369 1.392 . S
C1370 C1371 1.331 . S
C1370 H1388 0.932 . S
C1371 C1370 1.331 . S
C1371 C1372 1.336 . S
C1372 C1368 1.394 . S
C1372 C1371 1.336 . S
C1372 H1387 0.929 . S
C1373 C1363 1.386 . S
C1373 C1366 1.357 . S
C1373 H1386 0.928 . S
H1374 C1350 0.931 . S
H1375 C1352 0.930 . S
H1376 C1354 0.929 . S
H1377 C1355 0.931 . S
H1378 C1357 0.930 . S
H1379 C1361 0.931 . S
H1380 C1359 0.931 . S
H1381 C1363 0.931 . S
H1382 C1364 0.929 . S
H1383 C1365 0.930 . S
H1384 C1368 0.930 . S
H1385 C1369 0.931 . S
H1386 C1373 0.928 . S
H1387 C1372 0.929 . S
H1388 C1370 0.932 . S
C1389 C1390 1.351 1_455 S
C1389 C1391 1.397 . S
C1389 H1413 0.931 . S
C1390 C1389 1.351 1_655 S
C1390 C1394 1.431 . S
C1391 C1389 1.397 . S
C1391 C1392 1.400 . S
C1391 H1414 0.930 . S
C1392 C1391 1.400 . S
C1392 C1393 1.361 1_455 S
C1392 C1395 1.480 . S
C1393 C1392 1.361 1_655 S
C1393 C1394 1.389 . S
C1393 H1415 0.929 . S
C1394 C1390 1.431 . S
C1394 C1393 1.389 . S
C1394 H1416 0.931 . S
C1395 C1392 1.480 . S
C1395 C1396 1.421 . S
C1395 C1400 1.357 1_455 S
C1396 C1395 1.421 . S
C1396 C1397 1.401 . S
C1396 H1417 0.930 . S
C1397 C1396 1.401 . S
C1397 C1398 1.413 . S
C1397 C1406 1.511 . S
C1398 C1397 1.413 . S
C1398 C1399 1.356 1_455 S
C1398 H1419 0.931 . S
C1399 C1398 1.356 1_655 S
C1399 C1400 1.361 . S
C1399 C1401 1.500 . S
C1400 C1395 1.357 1_655 S
C1400 C1399 1.361 . S
C1400 H1418 0.931 . S
C1401 C1399 1.500 . S
C1401 C1402 1.371 . S
C1401 C1403 1.365 . S
C1402 C1401 1.371 . S
C1402 C1412 1.386 . S
C1402 H1420 0.931 . S
C1403 C1401 1.365 . S
C1403 C1404 1.409 . S
C1403 H1421 0.929 . S
C1404 C1403 1.409 . S
C1404 C1405 1.380 . S
C1404 H1422 0.930 . S
C1405 C1404 1.380 . S
C1405 C1412 1.357 . S
C1406 C1397 1.511 . S
C1406 C1407 1.341 . S
C1406 C1408 1.371 . S
C1407 C1406 1.341 . S
C1407 C1411 1.394 . S
C1407 H1423 0.930 . S
C1408 C1406 1.371 . S
C1408 C1409 1.392 . S
C1408 H1424 0.931 . S
C1409 C1408 1.392 . S
C1409 C1410 1.331 . S
C1409 H1427 0.932 . S
C1410 C1409 1.331 . S
C1410 C1411 1.336 . S
C1411 C1407 1.394 . S
C1411 C1410 1.336 . S
C1411 H1426 0.929 . S
C1412 C1402 1.386 . S
C1412 C1405 1.357 . S
C1412 H1425 0.928 . S
H1413 C1389 0.931 . S
H1414 C1391 0.930 . S
H1415 C1393 0.929 . S
H1416 C1394 0.931 . S
H1417 C1396 0.930 . S
H1418 C1400 0.931 . S
H1419 C1398 0.931 . S
H1420 C1402 0.931 . S
H1421 C1403 0.929 . S
H1422 C1404 0.930 . S
H1423 C1407 0.930 . S
H1424 C1408 0.931 . S
H1425 C1412 0.928 . S
H1426 C1411 0.929 . S
H1427 C1409 0.932 . S
C1428 C1429 1.386 . S
C1428 C1430 1.397 . S
C1428 H1452 0.931 . S
C1429 C1428 1.386 . S
C1429 C1433 1.397 . S
C1430 C1428 1.397 . S
C1430 C1431 1.384 . S
C1430 H1453 0.930 . S
C1431 C1430 1.384 . S
C1431 C1432 1.377 . S
C1431 C1434 1.481 . S
C1432 C1431 1.377 . S
C1432 C1433 1.389 . S
C1432 H1454 0.929 . S
C1433 C1429 1.397 . S
C1433 C1432 1.389 . S
C1433 H1455 0.931 . S
C1434 C1431 1.481 . S
C1434 C1435 1.387 . S
C1434 C1439 1.390 . S
C1435 C1434 1.387 . S
C1435 C1436 1.401 . S
C1435 H1456 0.930 . S
C1436 C1435 1.401 . S
C1436 C1437 1.376 . S
C1436 C1445 1.511 . S
C1437 C1436 1.376 . S
C1437 C1438 1.392 . S
C1437 H1458 0.931 . S
C1438 C1437 1.392 . S
C1438 C1439 1.361 . S
C1438 C1440 1.500 . S
C1439 C1434 1.390 . S
C1439 C1438 1.361 . S
C1439 H1457 0.931 . S
C1440 C1438 1.500 . S
C1440 C1441 1.371 . S
C1440 C1442 1.365 . S
C1441 C1440 1.371 . S
C1441 C1451 1.386 . S
C1441 H1459 0.931 . S
C1442 C1440 1.365 . S
C1442 C1443 1.409 . S
C1442 H1460 0.929 . S
C1443 C1442 1.409 . S
C1443 C1444 1.380 . S
C1443 H1461 0.930 . S
C1444 C1443 1.380 . S
C1444 C1451 1.357 . S
C1445 C1436 1.511 . S
C1445 C1446 1.341 . S
C1445 C1447 1.371 . S
C1446 C1445 1.341 . S
C1446 C1450 1.394 . S
C1446 H1462 0.930 . S
C1447 C1445 1.371 . S
C1447 C1448 1.392 . S
C1447 H1463 0.931 . S
C1448 C1447 1.392 . S
C1448 C1449 1.331 . S
C1448 H1466 0.932 . S
C1449 C1448 1.331 . S
C1449 C1450 1.336 . S
C1450 C1446 1.394 . S
C1450 C1449 1.336 . S
C1450 H1465 0.929 . S
C1451 C1441 1.386 . S
C1451 C1444 1.357 . S
C1451 H1464 0.928 . S
H1452 C1428 0.931 . S
H1453 C1430 0.930 . S
H1454 C1432 0.929 . S
H1455 C1433 0.931 . S
H1456 C1435 0.930 . S
H1457 C1439 0.931 . S
H1458 C1437 0.931 . S
H1459 C1441 0.931 . S
H1460 C1442 0.929 . S
H1461 C1443 0.930 . S
H1462 C1446 0.930 . S
H1463 C1447 0.931 . S
H1464 C1451 0.928 . S
H1465 C1450 0.929 . S
H1466 C1448 0.932 . S
C1467 C1468 1.386 . S
C1467 C1469 1.397 . S
C1467 H1491 0.931 . S
C1468 C1467 1.386 . S
C1468 C1472 1.397 . S
C1469 C1467 1.397 . S
C1469 C1470 1.384 . S
C1469 H1492 0.930 . S
C1470 C1469 1.384 . S
C1470 C1471 1.377 . S
C1470 C1473 1.481 . S
C1471 C1470 1.377 . S
C1471 C1472 1.389 . S
C1471 H1493 0.929 . S
C1472 C1468 1.397 . S
C1472 C1471 1.389 . S
C1472 H1494 0.931 . S
C1473 C1470 1.481 . S
C1473 C1474 1.387 . S
C1473 C1478 1.390 . S
C1474 C1473 1.387 . S
C1474 C1475 1.401 . S
C1474 H1495 0.930 . S
C1475 C1474 1.401 . S
C1475 C1476 1.376 . S
C1475 C1484 1.511 . S
C1476 C1475 1.376 . S
C1476 C1477 1.392 . S
C1476 H1497 0.931 . S
C1477 C1476 1.392 . S
C1477 C1478 1.361 . S
C1477 C1479 1.500 . S
C1478 C1473 1.390 . S
C1478 C1477 1.361 . S
C1478 H1496 0.931 . S
C1479 C1477 1.500 . S
C1479 C1480 1.371 . S
C1479 C1481 1.365 . S
C1480 C1479 1.371 . S
C1480 C1490 1.386 . S
C1480 H1498 0.931 . S
C1481 C1479 1.365 . S
C1481 C1482 1.409 . S
C1481 H1499 0.929 . S
C1482 C1481 1.409 . S
C1482 C1483 1.380 . S
C1482 H1500 0.930 . S
C1483 C1482 1.380 . S
C1483 C1490 1.357 . S
C1484 C1475 1.511 . S
C1484 C1485 1.341 . S
C1484 C1486 1.371 . S
C1485 C1484 1.341 . S
C1485 C1489 1.394 . S
C1485 H1501 0.930 . S
C1486 C1484 1.371 . S
C1486 C1487 1.392 . S
C1486 H1502 0.931 . S
C1487 C1486 1.392 . S
C1487 C1488 1.331 . S
C1487 H1505 0.932 . S
C1488 C1487 1.331 . S
C1488 C1489 1.336 . S
C1489 C1485 1.394 . S
C1489 C1488 1.336 . S
C1489 H1504 0.929 . S
C1490 C1480 1.386 . S
C1490 C1483 1.357 . S
C1490 H1503 0.928 . S
H1491 C1467 0.931 . S
H1492 C1469 0.930 . S
H1493 C1471 0.929 . S
H1494 C1472 0.931 . S
H1495 C1474 0.930 . S
H1496 C1478 0.931 . S
H1497 C1476 0.931 . S
H1498 C1480 0.931 . S
H1499 C1481 0.929 . S
H1500 C1482 0.930 . S
H1501 C1485 0.930 . S
H1502 C1486 0.931 . S
H1503 C1490 0.928 . S
H1504 C1489 0.929 . S
H1505 C1487 0.932 . S
C1506 C1507 1.357 1_565 S
C1506 C1508 1.397 . S
C1506 H1530 0.931 . S
C1507 C1506 1.357 1_545 S
C1507 C1511 1.424 . S
C1508 C1506 1.397 . S
C1508 C1509 1.395 . S
C1508 H1531 0.930 . S
C1509 C1508 1.395 . S
C1509 C1510 1.366 1_565 S
C1509 C1512 1.481 . S
C1510 C1509 1.366 1_545 S
C1510 C1511 1.389 . S
C1510 H1532 0.929 . S
C1511 C1507 1.424 . S
C1511 C1510 1.389 . S
C1511 H1533 0.931 . S
C1512 C1509 1.481 . S
C1512 C1513 1.412 . S
C1512 C1517 1.365 1_565 S
C1513 C1512 1.412 . S
C1513 C1514 1.401 . S
C1513 H1534 0.930 . S
C1514 C1513 1.401 . S
C1514 C1515 1.400 . S
C1514 C1523 1.511 . S
C1515 C1514 1.400 . S
C1515 C1516 1.369 1_565 S
C1515 H1536 0.931 . S
C1516 C1515 1.369 1_545 S
C1516 C1517 1.361 . S
C1516 C1518 1.500 . S
C1517 C1512 1.365 1_545 S
C1517 C1516 1.361 . S
C1517 H1535 0.931 . S
C1518 C1516 1.500 . S
C1518 C1519 1.371 . S
C1518 C1520 1.365 . S
C1519 C1518 1.371 . S
C1519 C1529 1.386 . S
C1519 H1537 0.931 . S
C1520 C1518 1.365 . S
C1520 C1521 1.409 . S
C1520 H1538 0.929 . S
C1521 C1520 1.409 . S
C1521 C1522 1.380 . S
C1521 H1539 0.930 . S
C1522 C1521 1.380 . S
C1522 C1529 1.357 . S
C1523 C1514 1.511 . S
C1523 C1524 1.341 . S
C1523 C1525 1.371 . S
C1524 C1523 1.341 . S
C1524 C1528 1.394 . S
C1524 H1540 0.930 . S
C1525 C1523 1.371 . S
C1525 C1526 1.392 . S
C1525 H1541 0.931 . S
C1526 C1525 1.392 . S
C1526 C1527 1.331 . S
C1526 H1544 0.932 . S
C1527 C1526 1.331 . S
C1527 C1528 1.336 . S
C1528 C1524 1.394 . S
C1528 C1527 1.336 . S
C1528 H1543 0.929 . S
C1529 C1519 1.386 . S
C1529 C1522 1.357 . S
C1529 H1542 0.928 . S
H1530 C1506 0.931 . S
H1531 C1508 0.930 . S
H1532 C1510 0.929 . S
H1533 C1511 0.931 . S
H1534 C1513 0.930 . S
H1535 C1517 0.931 . S
H1536 C1515 0.931 . S
H1537 C1519 0.931 . S
H1538 C1520 0.929 . S
H1539 C1521 0.930 . S
H1540 C1524 0.930 . S
H1541 C1525 0.931 . S
H1542 C1529 0.928 . S
H1543 C1528 0.929 . S
H1544 C1526 0.932 . S
C1545 C1546 1.386 . S
C1545 C1547 1.397 . S
C1545 H1569 0.931 . S
C1546 C1545 1.386 . S
C1546 C1550 1.376 1_545 S
C1547 C1545 1.397 . S
C1547 C1548 1.384 . S
C1547 H1570 0.930 . S
C1548 C1547 1.384 . S
C1548 C1549 1.377 1_545 S
C1548 C1551 1.481 . S
C1549 C1548 1.377 1_565 S
C1549 C1550 1.394 . S
C1549 H1571 0.929 . S
C1550 C1546 1.376 1_565 S
C1550 C1549 1.394 . S
C1550 H1572 0.949 . S
C1551 C1548 1.481 . S
C1551 C1552 1.387 . S
C1551 C1556 1.390 1_545 S
C1552 C1551 1.387 . S
C1552 C1553 1.401 . S
C1552 H1573 0.930 . S
C1553 C1552 1.401 . S
C1553 C1554 1.376 1_545 S
C1553 C1562 1.511 . S
C1554 C1553 1.376 1_565 S
C1554 C1555 1.392 . S
C1554 H1575 0.931 . S
C1555 C1554 1.392 . S
C1555 C1556 1.361 . S
C1555 C1557 1.500 . S
C1556 C1551 1.390 1_565 S
C1556 C1555 1.361 . S
C1556 H1574 0.931 . S
C1557 C1555 1.500 . S
C1557 C1558 1.371 . S
C1557 C1559 1.365 . S
C1558 C1557 1.371 . S
C1558 C1568 1.386 . S
C1558 H1576 0.931 . S
C1559 C1557 1.365 . S
C1559 C1560 1.409 . S
C1559 H1577 0.929 . S
C1560 C1559 1.409 . S
C1560 C1561 1.380 . S
C1560 H1578 0.930 . S
C1561 C1560 1.380 . S
C1561 C1568 1.357 . S
C1562 C1553 1.511 . S
C1562 C1563 1.341 . S
C1562 C1564 1.371 . S
C1563 C1562 1.341 . S
C1563 C1567 1.394 . S
C1563 H1579 0.930 . S
C1564 C1562 1.371 . S
C1564 C1565 1.392 . S
C1564 H1580 0.931 . S
C1565 C1564 1.392 . S
C1565 C1566 1.331 . S
C1565 H1583 0.932 . S
C1566 C1565 1.331 . S
C1566 C1567 1.336 . S
C1567 C1563 1.394 . S
C1567 C1566 1.336 . S
C1567 H1582 0.929 . S
C1568 C1558 1.386 . S
C1568 C1561 1.357 . S
C1568 H1581 0.928 . S
H1569 C1545 0.931 . S
H1570 C1547 0.930 . S
H1571 C1549 0.929 . S
H1572 C1550 0.949 . S
H1573 C1552 0.930 . S
H1574 C1556 0.931 . S
H1575 C1554 0.931 . S
H1576 C1558 0.931 . S
H1577 C1559 0.929 . S
H1578 C1560 0.930 . S
H1579 C1563 0.930 . S
H1580 C1564 0.931 . S
H1581 C1568 0.928 . S
H1582 C1567 0.929 . S
H1583 C1565 0.932 . S
C1584 C1585 1.386 . S
C1584 C1586 1.397 . S
C1584 H1608 0.931 . S
C1585 C1584 1.386 . S
C1585 C1589 1.397 . S
C1586 C1584 1.397 . S
C1586 C1587 1.384 . S
C1586 H1609 0.930 . S
C1587 C1586 1.384 . S
C1587 C1588 1.377 . S
C1587 C1590 1.481 . S
C1588 C1587 1.377 . S
C1588 C1589 1.389 . S
C1588 H1610 0.929 . S
C1589 C1585 1.397 . S
C1589 C1588 1.389 . S
C1589 H1611 0.931 . S
C1590 C1587 1.481 . S
C1590 C1591 1.387 . S
C1590 C1595 1.390 . S
C1591 C1590 1.387 . S
C1591 C1592 1.401 . S
C1591 H1612 0.930 . S
C1592 C1591 1.401 . S
C1592 C1593 1.376 . S
C1592 C1601 1.511 . S
C1593 C1592 1.376 . S
C1593 C1594 1.392 . S
C1593 H1614 0.931 . S
C1594 C1593 1.392 . S
C1594 C1595 1.361 . S
C1594 C1596 1.500 . S
C1595 C1590 1.390 . S
C1595 C1594 1.361 . S
C1595 H1613 0.931 . S
C1596 C1594 1.500 . S
C1596 C1597 1.371 . S
C1596 C1598 1.365 . S
C1597 C1596 1.371 . S
C1597 C1607 1.386 . S
C1597 H1615 0.931 . S
C1598 C1596 1.365 . S
C1598 C1599 1.409 . S
C1598 H1616 0.929 . S
C1599 C1598 1.409 . S
C1599 C1600 1.380 . S
C1599 H1617 0.930 . S
C1600 C1599 1.380 . S
C1600 C1607 1.357 . S
C1601 C1592 1.511 . S
C1601 C1602 1.341 . S
C1601 C1603 1.371 . S
C1602 C1601 1.341 . S
C1602 C1606 1.394 . S
C1602 H1618 0.930 . S
C1603 C1601 1.371 . S
C1603 C1604 1.392 . S
C1603 H1619 0.931 . S
C1604 C1603 1.392 . S
C1604 C1605 1.331 . S
C1604 H1622 0.932 . S
C1605 C1604 1.331 . S
C1605 C1606 1.336 . S
C1606 C1602 1.394 . S
C1606 C1605 1.336 . S
C1606 H1621 0.929 . S
C1607 C1597 1.386 . S
C1607 C1600 1.357 . S
C1607 H1620 0.928 . S
H1608 C1584 0.931 . S
H1609 C1586 0.930 . S
H1610 C1588 0.929 . S
H1611 C1589 0.931 . S
H1612 C1591 0.930 . S
H1613 C1595 0.931 . S
H1614 C1593 0.931 . S
H1615 C1597 0.931 . S
H1616 C1598 0.929 . S
H1617 C1599 0.930 . S
H1618 C1602 0.930 . S
H1619 C1603 0.931 . S
H1620 C1607 0.928 . S
H1621 C1606 0.929 . S
H1622 C1604 0.932 . S
C1623 C1624 1.386 . S
C1623 C1625 1.397 . S
C1623 H1647 0.931 . S
C1624 C1623 1.386 . S
C1624 C1628 1.375 1_554 S
C1625 C1623 1.397 . S
C1625 C1626 1.384 . S
C1625 H1648 0.930 . S
C1626 C1625 1.384 . S
C1626 C1627 1.377 1_554 S
C1626 C1629 1.481 . S
C1627 C1626 1.377 1_556 S
C1627 C1628 1.394 . S
C1627 H1649 0.929 . S
C1628 C1624 1.375 1_556 S
C1628 C1627 1.394 . S
C1628 H1650 0.949 . S
C1629 C1626 1.481 . S
C1629 C1630 1.387 . S
C1629 C1634 1.390 1_554 S
C1630 C1629 1.387 . S
C1630 C1631 1.401 . S
C1630 H1651 0.930 . S
C1631 C1630 1.401 . S
C1631 C1632 1.376 1_554 S
C1631 C1640 1.511 . S
C1632 C1631 1.376 1_556 S
C1632 C1633 1.392 . S
C1632 H1653 0.931 . S
C1633 C1632 1.392 . S
C1633 C1634 1.361 . S
C1633 C1635 1.500 . S
C1634 C1629 1.390 1_556 S
C1634 C1633 1.361 . S
C1634 H1652 0.931 . S
C1635 C1633 1.500 . S
C1635 C1636 1.371 . S
C1635 C1637 1.365 . S
C1636 C1635 1.371 . S
C1636 C1646 1.386 . S
C1636 H1654 0.931 . S
C1637 C1635 1.365 . S
C1637 C1638 1.409 . S
C1637 H1655 0.929 . S
C1638 C1637 1.409 . S
C1638 C1639 1.380 . S
C1638 H1656 0.930 . S
C1639 C1638 1.380 . S
C1639 C1646 1.357 . S
C1640 C1631 1.511 . S
C1640 C1641 1.341 . S
C1640 C1642 1.371 . S
C1641 C1640 1.341 . S
C1641 C1645 1.394 . S
C1641 H1657 0.930 . S
C1642 C1640 1.371 . S
C1642 C1643 1.392 . S
C1642 H1658 0.931 . S
C1643 C1642 1.392 . S
C1643 C1644 1.331 . S
C1643 H1661 0.932 . S
C1644 C1643 1.331 . S
C1644 C1645 1.336 . S
C1645 C1641 1.394 . S
C1645 C1644 1.336 . S
C1645 H1660 0.929 . S
C1646 C1636 1.386 . S
C1646 C1639 1.357 . S
C1646 H1659 0.928 . S
H1647 C1623 0.931 . S
H1648 C1625 0.930 . S
H1649 C1627 0.929 . S
H1650 C1628 0.949 . S
H1651 C1630 0.930 . S
H1652 C1634 0.931 . S
H1653 C1632 0.931 . S
H1654 C1636 0.931 . S
H1655 C1637 0.929 . S
H1656 C1638 0.930 . S
H1657 C1641 0.930 . S
H1658 C1642 0.931 . S
H1659 C1646 0.928 . S
H1660 C1645 0.929 . S
H1661 C1643 0.932 . S
C1662 C1663 1.386 . S
C1662 C1664 1.397 . S
C1662 H1686 0.931 . S
C1663 C1662 1.386 . S
C1663 C1667 1.397 . S
C1664 C1662 1.397 . S
C1664 C1665 1.384 . S
C1664 H1687 0.930 . S
C1665 C1664 1.384 . S
C1665 C1666 1.377 . S
C1665 C1668 1.481 . S
C1666 C1665 1.377 . S
C1666 C1667 1.389 . S
C1666 H1688 0.929 . S
C1667 C1663 1.397 . S
C1667 C1666 1.389 . S
C1667 H1689 0.931 . S
C1668 C1665 1.481 . S
C1668 C1669 1.387 . S
C1668 C1673 1.390 . S
C1669 C1668 1.387 . S
C1669 C1670 1.401 . S
C1669 H1690 0.930 . S
C1670 C1669 1.401 . S
C1670 C1671 1.376 . S
C1670 C1679 1.511 . S
C1671 C1670 1.376 . S
C1671 C1672 1.392 . S
C1671 H1692 0.931 . S
C1672 C1671 1.392 . S
C1672 C1673 1.361 . S
C1672 C1674 1.500 . S
C1673 C1668 1.390 . S
C1673 C1672 1.361 . S
C1673 H1691 0.931 . S
C1674 C1672 1.500 . S
C1674 C1675 1.371 . S
C1674 C1676 1.365 . S
C1675 C1674 1.371 . S
C1675 C1685 1.386 . S
C1675 H1693 0.931 . S
C1676 C1674 1.365 . S
C1676 C1677 1.409 . S
C1676 H1694 0.929 . S
C1677 C1676 1.409 . S
C1677 C1678 1.380 . S
C1677 H1695 0.930 . S
C1678 C1677 1.380 . S
C1678 C1685 1.357 . S
C1679 C1670 1.511 . S
C1679 C1680 1.341 . S
C1679 C1681 1.371 . S
C1680 C1679 1.341 . S
C1680 C1684 1.394 . S
C1680 H1696 0.930 . S
C1681 C1679 1.371 . S
C1681 C1682 1.392 . S
C1681 H1697 0.931 . S
C1682 C1681 1.392 . S
C1682 C1683 1.331 . S
C1682 H1700 0.932 . S
C1683 C1682 1.331 . S
C1683 C1684 1.336 . S
C1684 C1680 1.394 . S
C1684 C1683 1.336 . S
C1684 H1699 0.929 . S
C1685 C1675 1.386 . S
C1685 C1678 1.357 . S
C1685 H1698 0.928 . S
H1686 C1662 0.931 . S
H1687 C1664 0.930 . S
H1688 C1666 0.929 . S
H1689 C1667 0.931 . S
H1690 C1669 0.930 . S
H1691 C1673 0.931 . S
H1692 C1671 0.931 . S
H1693 C1675 0.931 . S
H1694 C1676 0.929 . S
H1695 C1677 0.930 . S
H1696 C1680 0.930 . S
H1697 C1681 0.931 . S
H1698 C1685 0.928 . S
H1699 C1684 0.929 . S
H1700 C1682 0.932 . S
C1701 C1702 1.357 1_556 S
C1701 C1703 1.397 . S
C1701 H1725 0.931 . S
C1702 C1701 1.357 1_554 S
C1702 C1706 1.424 . S
C1703 C1701 1.397 . S
C1703 C1704 1.395 . S
C1703 H1726 0.930 . S
C1704 C1703 1.395 . S
C1704 C1705 1.366 1_556 S
C1704 C1707 1.481 . S
C1705 C1704 1.366 1_554 S
C1705 C1706 1.389 . S
C1705 H1727 0.929 . S
C1706 C1702 1.424 . S
C1706 C1705 1.389 . S
C1706 H1728 0.931 . S
C1707 C1704 1.481 . S
C1707 C1708 1.412 . S
C1707 C1712 1.365 1_556 S
C1708 C1707 1.412 . S
C1708 C1709 1.401 . S
C1708 H1729 0.930 . S
C1709 C1708 1.401 . S
C1709 C1710 1.400 . S
C1709 C1718 1.511 . S
C1710 C1709 1.400 . S
C1710 C1711 1.369 1_556 S
C1710 H1731 0.931 . S
C1711 C1710 1.369 1_554 S
C1711 C1712 1.361 . S
C1711 C1713 1.500 . S
C1712 C1707 1.365 1_554 S
C1712 C1711 1.361 . S
C1712 H1730 0.931 . S
C1713 C1711 1.500 . S
C1713 C1714 1.371 . S
C1713 C1715 1.365 . S
C1714 C1713 1.371 . S
C1714 C1724 1.386 . S
C1714 H1732 0.931 . S
C1715 C1713 1.365 . S
C1715 C1716 1.409 . S
C1715 H1733 0.929 . S
C1716 C1715 1.409 . S
C1716 C1717 1.380 . S
C1716 H1734 0.930 . S
C1717 C1716 1.380 . S
C1717 C1724 1.357 . S
C1718 C1709 1.511 . S
C1718 C1719 1.341 . S
C1718 C1720 1.371 . S
C1719 C1718 1.341 . S
C1719 C1723 1.394 . S
C1719 H1735 0.930 . S
C1720 C1718 1.371 . S
C1720 C1721 1.392 . S
C1720 H1736 0.931 . S
C1721 C1720 1.392 . S
C1721 C1722 1.331 . S
C1721 H1739 0.932 . S
C1722 C1721 1.331 . S
C1722 C1723 1.336 . S
C1723 C1719 1.394 . S
C1723 C1722 1.336 . S
C1723 H1738 0.929 . S
C1724 C1714 1.386 . S
C1724 C1717 1.357 . S
C1724 H1737 0.928 . S
H1725 C1701 0.931 . S
H1726 C1703 0.930 . S
H1727 C1705 0.929 . S
H1728 C1706 0.931 . S
H1729 C1708 0.930 . S
H1730 C1712 0.931 . S
H1731 C1710 0.931 . S
H1732 C1714 0.931 . S
H1733 C1715 0.929 . S
H1734 C1716 0.930 . S
H1735 C1719 0.930 . S
H1736 C1720 0.931 . S
H1737 C1724 0.928 . S
H1738 C1723 0.929 . S
H1739 C1721 0.932 . S
C1740 C1741 1.386 . S
C1740 C1742 1.397 . S
C1740 H1764 0.931 . S
C1741 C1740 1.386 . S
C1741 C1745 1.397 . S
C1742 C1740 1.397 . S
C1742 C1743 1.384 . S
C1742 H1765 0.930 . S
C1743 C1742 1.384 . S
C1743 C1744 1.377 . S
C1743 C1746 1.481 . S
C1744 C1743 1.377 . S
C1744 C1745 1.389 . S
C1744 H1766 0.929 . S
C1745 C1741 1.397 . S
C1745 C1744 1.389 . S
C1745 H1767 0.931 . S
C1746 C1743 1.481 . S
C1746 C1747 1.387 . S
C1746 C1751 1.390 . S
C1747 C1746 1.387 . S
C1747 C1748 1.401 . S
C1747 H1768 0.930 . S
C1748 C1747 1.401 . S
C1748 C1749 1.376 . S
C1748 C1757 1.511 . S
C1749 C1748 1.376 . S
C1749 C1750 1.392 . S
C1749 H1770 0.931 . S
C1750 C1749 1.392 . S
C1750 C1751 1.361 . S
C1750 C1752 1.500 . S
C1751 C1746 1.390 . S
C1751 C1750 1.361 . S
C1751 H1769 0.931 . S
C1752 C1750 1.500 . S
C1752 C1753 1.371 . S
C1752 C1754 1.365 . S
C1753 C1752 1.371 . S
C1753 C1763 1.386 . S
C1753 H1771 0.931 . S
C1754 C1752 1.365 . S
C1754 C1755 1.409 . S
C1754 H1772 0.929 . S
C1755 C1754 1.409 . S
C1755 C1756 1.380 . S
C1755 H1773 0.930 . S
C1756 C1755 1.380 . S
C1756 C1763 1.357 . S
C1757 C1748 1.511 . S
C1757 C1758 1.341 . S
C1757 C1759 1.371 . S
C1758 C1757 1.341 . S
C1758 C1762 1.394 . S
C1758 H1774 0.930 . S
C1759 C1757 1.371 . S
C1759 C1760 1.392 . S
C1759 H1775 0.931 . S
C1760 C1759 1.392 . S
C1760 C1761 1.331 . S
C1760 H1778 0.932 . S
C1761 C1760 1.331 . S
C1761 C1762 1.336 . S
C1762 C1758 1.394 . S
C1762 C1761 1.336 . S
C1762 H1777 0.929 . S
C1763 C1753 1.386 . S
C1763 C1756 1.357 . S
C1763 H1776 0.928 . S
H1764 C1740 0.931 . S
H1765 C1742 0.930 . S
H1766 C1744 0.929 . S
H1767 C1745 0.931 . S
H1768 C1747 0.930 . S
H1769 C1751 0.931 . S
H1770 C1749 0.931 . S
H1771 C1753 0.931 . S
H1772 C1754 0.929 . S
H1773 C1755 0.930 . S
H1774 C1758 0.930 . S
H1775 C1759 0.931 . S
H1776 C1763 0.928 . S
H1777 C1762 0.929 . S
H1778 C1760 0.932 . S
C1779 C1780 1.386 . S
C1779 C1781 1.397 . S
C1779 H1803 0.931 . S
C1780 C1779 1.386 . S
C1780 C1784 1.376 1_455 S
C1781 C1779 1.397 . S
C1781 C1782 1.384 . S
C1781 H1804 0.930 . S
C1782 C1781 1.384 . S
C1782 C1783 1.377 1_455 S
C1782 C1785 1.481 . S
C1783 C1782 1.377 1_655 S
C1783 C1784 1.394 . S
C1783 H1805 0.929 . S
C1784 C1780 1.376 1_655 S
C1784 C1783 1.394 . S
C1784 H1806 0.949 . S
C1785 C1782 1.481 . S
C1785 C1786 1.387 . S
C1785 C1790 1.390 1_455 S
C1786 C1785 1.387 . S
C1786 C1787 1.401 . S
C1786 H1807 0.930 . S
C1787 C1786 1.401 . S
C1787 C1788 1.376 1_455 S
C1787 C1796 1.511 . S
C1788 C1787 1.376 1_655 S
C1788 C1789 1.392 . S
C1788 H1809 0.931 . S
C1789 C1788 1.392 . S
C1789 C1790 1.361 . S
C1789 C1791 1.500 . S
C1790 C1785 1.390 1_655 S
C1790 C1789 1.361 . S
C1790 H1808 0.931 . S
C1791 C1789 1.500 . S
C1791 C1792 1.371 . S
C1791 C1793 1.365 . S
C1792 C1791 1.371 . S
C1792 C1802 1.386 . S
C1792 H1810 0.931 . S
C1793 C1791 1.365 . S
C1793 C1794 1.409 . S
C1793 H1811 0.929 . S
C1794 C1793 1.409 . S
C1794 C1795 1.380 . S
C1794 H1812 0.930 . S
C1795 C1794 1.380 . S
C1795 C1802 1.357 . S
C1796 C1787 1.511 . S
C1796 C1797 1.341 . S
C1796 C1798 1.371 . S
C1797 C1796 1.341 . S
C1797 C1801 1.394 . S
C1797 H1813 0.930 . S
C1798 C1796 1.371 . S
C1798 C1799 1.392 . S
C1798 H1814 0.931 . S
C1799 C1798 1.392 . S
C1799 C1800 1.331 . S
C1799 H1817 0.932 . S
C1800 C1799 1.331 . S
C1800 C1801 1.336 . S
C1801 C1797 1.394 . S
C1801 C1800 1.336 . S
C1801 H1816 0.929 . S
C1802 C1792 1.386 . S
C1802 C1795 1.357 . S
C1802 H1815 0.928 . S
H1803 C1779 0.931 . S
H1804 C1781 0.930 . S
H1805 C1783 0.929 . S
H1806 C1784 0.949 . S
H1807 C1786 0.930 . S
H1808 C1790 0.931 . S
H1809 C1788 0.931 . S
H1810 C1792 0.931 . S
H1811 C1793 0.929 . S
H1812 C1794 0.930 . S
H1813 C1797 0.930 . S
H1814 C1798 0.931 . S
H1815 C1802 0.928 . S
H1816 C1801 0.929 . S
H1817 C1799 0.932 . S
C1818 C1819 1.386 . S
C1818 C1820 1.397 . S
C1818 H1842 0.931 . S
C1819 C1818 1.386 . S
C1819 C1823 1.397 . S
C1820 C1818 1.397 . S
C1820 C1821 1.384 . S
C1820 H1843 0.930 . S
C1821 C1820 1.384 . S
C1821 C1822 1.377 . S
C1821 C1824 1.481 . S
C1822 C1821 1.377 . S
C1822 C1823 1.389 . S
C1822 H1844 0.929 . S
C1823 C1819 1.397 . S
C1823 C1822 1.389 . S
C1823 H1845 0.931 . S
C1824 C1821 1.481 . S
C1824 C1825 1.387 . S
C1824 C1829 1.390 . S
C1825 C1824 1.387 . S
C1825 C1826 1.401 . S
C1825 H1846 0.930 . S
C1826 C1825 1.401 . S
C1826 C1827 1.376 . S
C1826 C1835 1.511 . S
C1827 C1826 1.376 . S
C1827 C1828 1.392 . S
C1827 H1848 0.931 . S
C1828 C1827 1.392 . S
C1828 C1829 1.361 . S
C1828 C1830 1.500 . S
C1829 C1824 1.390 . S
C1829 C1828 1.361 . S
C1829 H1847 0.931 . S
C1830 C1828 1.500 . S
C1830 C1831 1.371 . S
C1830 C1832 1.365 . S
C1831 C1830 1.371 . S
C1831 C1841 1.386 . S
C1831 H1849 0.931 . S
C1832 C1830 1.365 . S
C1832 C1833 1.409 . S
C1832 H1850 0.929 . S
C1833 C1832 1.409 . S
C1833 C1834 1.380 . S
C1833 H1851 0.930 . S
C1834 C1833 1.380 . S
C1834 C1841 1.357 . S
C1835 C1826 1.511 . S
C1835 C1836 1.341 . S
C1835 C1837 1.371 . S
C1836 C1835 1.341 . S
C1836 C1840 1.394 . S
C1836 H1852 0.930 . S
C1837 C1835 1.371 . S
C1837 C1838 1.392 . S
C1837 H1853 0.931 . S
C1838 C1837 1.392 . S
C1838 C1839 1.331 . S
C1838 H1856 0.932 . S
C1839 C1838 1.331 . S
C1839 C1840 1.336 . S
C1840 C1836 1.394 . S
C1840 C1839 1.336 . S
C1840 H1855 0.929 . S
C1841 C1831 1.386 . S
C1841 C1834 1.357 . S
C1841 H1854 0.928 . S
H1842 C1818 0.931 . S
H1843 C1820 0.930 . S
H1844 C1822 0.929 . S
H1845 C1823 0.931 . S
H1846 C1825 0.930 . S
H1847 C1829 0.931 . S
H1848 C1827 0.931 . S
H1849 C1831 0.931 . S
H1850 C1832 0.929 . S
H1851 C1833 0.930 . S
H1852 C1836 0.930 . S
H1853 C1837 0.931 . S
H1854 C1841 0.928 . S
H1855 C1840 0.929 . S
H1856 C1838 0.932 . S
C1857 C1858 1.357 1_655 S
C1857 C1859 1.397 . S
C1857 H1881 0.931 . S
C1858 C1857 1.357 1_455 S
C1858 C1862 1.424 . S
C1859 C1857 1.397 . S
C1859 C1860 1.395 . S
C1859 H1882 0.930 . S
C1860 C1859 1.395 . S
C1860 C1861 1.366 1_655 S
C1860 C1863 1.481 . S
C1861 C1860 1.366 1_455 S
C1861 C1862 1.389 . S
C1861 H1883 0.929 . S
C1862 C1858 1.424 . S
C1862 C1861 1.389 . S
C1862 H1884 0.931 . S
C1863 C1860 1.481 . S
C1863 C1864 1.412 . S
C1863 C1868 1.365 1_655 S
C1864 C1863 1.412 . S
C1864 C1865 1.401 . S
C1864 H1885 0.930 . S
C1865 C1864 1.401 . S
C1865 C1866 1.400 . S
C1865 C1874 1.511 . S
C1866 C1865 1.400 . S
C1866 C1867 1.369 1_655 S
C1866 H1887 0.931 . S
C1867 C1866 1.369 1_455 S
C1867 C1868 1.361 . S
C1867 C1869 1.500 . S
C1868 C1863 1.365 1_455 S
C1868 C1867 1.361 . S
C1868 H1886 0.931 . S
C1869 C1867 1.500 . S
C1869 C1870 1.371 . S
C1869 C1871 1.365 . S
C1870 C1869 1.371 . S
C1870 C1880 1.386 . S
C1870 H1888 0.931 . S
C1871 C1869 1.365 . S
C1871 C1872 1.409 . S
C1871 H1889 0.929 . S
C1872 C1871 1.409 . S
C1872 C1873 1.380 . S
C1872 H1890 0.930 . S
C1873 C1872 1.380 . S
C1873 C1880 1.357 . S
C1874 C1865 1.511 . S
C1874 C1875 1.341 . S
C1874 C1876 1.371 . S
C1875 C1874 1.341 . S
C1875 C1879 1.394 . S
C1875 H1891 0.930 . S
C1876 C1874 1.371 . S
C1876 C1877 1.392 . S
C1876 H1892 0.931 . S
C1877 C1876 1.392 . S
C1877 C1878 1.331 . S
C1877 H1895 0.932 . S
C1878 C1877 1.331 . S
C1878 C1879 1.336 . S
C1879 C1875 1.394 . S
C1879 C1878 1.336 . S
C1879 H1894 0.929 . S
C1880 C1870 1.386 . S
C1880 C1873 1.357 . S
C1880 H1893 0.928 . S
H1881 C1857 0.931 . S
H1882 C1859 0.930 . S
H1883 C1861 0.929 . S
H1884 C1862 0.931 . S
H1885 C1864 0.930 . S
H1886 C1868 0.931 . S
H1887 C1866 0.931 . S
H1888 C1870 0.931 . S
H1889 C1871 0.929 . S
H1890 C1872 0.930 . S
H1891 C1875 0.930 . S
H1892 C1876 0.931 . S
H1893 C1880 0.928 . S
H1894 C1879 0.929 . S
H1895 C1877 0.932 . S
H1896 C1904 0.929 . S
H1897 C1906 0.930 . S
H1898 C1908 0.930 . S
H1899 C1911 0.929 . S
H1900 C1914 0.930 . S
H1901 C1916 0.960 . S
H1902 C1916 0.960 . S
H1903 C1916 0.960 . S
C1904 H1896 0.929 . S
C1904 C1905 1.377 . S
C1904 C1906 1.384 . S
C1905 C1904 1.377 . S
C1905 C1911 1.390 . S
C1906 H1897 0.930 . S
C1906 C1904 1.384 . S
C1906 C1907 1.372 . S
C1907 C1906 1.372 . S
C1907 C1908 1.400 . S
C1907 C1912 1.490 . S
C1908 H1898 0.930 . S
C1908 C1907 1.400 . S
C1908 C1911 1.386 . S
H1909 C1925 0.930 . S
H1910 C1926 0.931 . S
C1911 H1899 0.929 . S
C1911 C1905 1.390 . S
C1911 C1908 1.386 . S
C1912 C1907 1.490 . S
C1912 C1914 1.395 . S
C1912 C1915 1.403 . S
H1913 C1919 0.930 . S
C1914 H1900 0.930 . S
C1914 C1912 1.395 . S
C1914 C1917 1.403 . S
C1915 C1912 1.403 . S
C1915 C1916 1.524 . S
C1915 C1919 1.400 . S
C1916 H1901 0.960 . S
C1916 H1902 0.960 . S
C1916 H1903 0.960 . S
C1916 C1915 1.524 . S
C1917 C1914 1.403 . S
C1917 C1918 1.392 . S
C1917 C1921 1.495 . S
C1918 C1917 1.392 . S
C1918 C1919 1.385 . S
C1918 C1920 1.478 . S
C1919 H1913 0.930 . S
C1919 C1915 1.400 . S
C1919 C1918 1.385 . S
C1920 C1918 1.478 . S
C1920 C1922 1.381 . S
C1920 C1926 1.383 . S
C1921 C1917 1.495 . S
C1921 H1927 0.959 . S
C1921 H1928 0.961 . S
C1921 H1929 0.960 . S
C1922 C1920 1.381 . S
C1922 C1923 1.394 . S
C1922 H1930 0.930 . S
C1923 C1922 1.394 . S
C1923 C1924 1.383 . S
C1923 H1931 0.929 . S
C1924 C1923 1.383 . S
C1924 C1925 1.377 . S
C1925 H1909 0.930 . S
C1925 C1924 1.377 . S
C1925 C1926 1.379 . S
C1926 H1910 0.931 . S
C1926 C1920 1.383 . S
C1926 C1925 1.379 . S
H1927 C1921 0.959 . S
H1928 C1921 0.961 . S
H1929 C1921 0.960 . S
H1930 C1922 0.930 . S
H1931 C1923 0.929 . S
H1932 C1940 0.929 . S
H1933 C1942 0.930 . S
H1934 C1944 0.930 . S
H1935 C1947 0.929 . S
H1936 C1950 0.930 . S
H1937 C1952 0.960 . S
H1938 C1952 0.960 . S
H1939 C1952 0.960 . S
C1940 H1932 0.929 . S
C1940 C1941 1.377 . S
C1940 C1942 1.384 . S
C1941 C1940 1.377 . S
C1941 C1947 1.390 . S
C1942 H1933 0.930 . S
C1942 C1940 1.384 . S
C1942 C1943 1.372 . S
C1943 C1942 1.372 . S
C1943 C1944 1.400 . S
C1943 C1948 1.490 . S
C1944 H1934 0.930 . S
C1944 C1943 1.400 . S
C1944 C1947 1.386 . S
H1945 C1961 0.930 . S
H1946 C1962 0.931 . S
C1947 H1935 0.929 . S
C1947 C1941 1.390 . S
C1947 C1944 1.386 . S
C1948 C1943 1.490 . S
C1948 C1950 1.395 . S
C1948 C1951 1.403 . S
H1949 C1955 0.930 . S
C1950 H1936 0.930 . S
C1950 C1948 1.395 . S
C1950 C1953 1.403 . S
C1951 C1948 1.403 . S
C1951 C1952 1.524 . S
C1951 C1955 1.400 . S
C1952 H1937 0.960 . S
C1952 H1938 0.960 . S
C1952 H1939 0.960 . S
C1952 C1951 1.524 . S
C1953 C1950 1.403 . S
C1953 C1954 1.392 . S
C1953 C1957 1.495 . S
C1954 C1953 1.392 . S
C1954 C1955 1.385 . S
C1954 C1956 1.478 . S
C1955 H1949 0.930 . S
C1955 C1951 1.400 . S
C1955 C1954 1.385 . S
C1956 C1954 1.478 . S
C1956 C1958 1.381 . S
C1956 C1962 1.383 . S
C1957 C1953 1.495 . S
C1957 H1963 0.959 . S
C1957 H1964 0.961 . S
C1957 H1965 0.960 . S
C1958 C1956 1.381 . S
C1958 C1959 1.394 . S
C1958 H1966 0.930 . S
C1959 C1958 1.394 . S
C1959 C1960 1.383 . S
C1959 H1967 0.929 . S
C1960 C1959 1.383 . S
C1960 C1961 1.377 . S
C1961 H1945 0.930 . S
C1961 C1960 1.377 . S
C1961 C1962 1.379 . S
C1962 H1946 0.931 . S
C1962 C1956 1.383 . S
C1962 C1961 1.379 . S
H1963 C1957 0.959 . S
H1964 C1957 0.961 . S
H1965 C1957 0.960 . S
H1966 C1958 0.930 . S
H1967 C1959 0.929 . S
H1968 C1976 0.929 . S
H1969 C1978 0.930 . S
H1970 C1980 0.930 . S
H1971 C1983 0.929 . S
H1972 C1986 0.930 . S
H1973 C1988 0.960 . S
H1974 C1988 0.960 . S
H1975 C1988 0.960 . S
C1976 H1968 0.929 . S
C1976 C1977 1.377 . S
C1976 C1978 1.384 . S
C1977 C1976 1.377 . S
C1977 C1983 1.390 . S
C1978 H1969 0.930 . S
C1978 C1976 1.384 . S
C1978 C1979 1.372 . S
C1979 C1978 1.372 . S
C1979 C1980 1.400 . S
C1979 C1984 1.490 . S
C1980 H1970 0.930 . S
C1980 C1979 1.400 . S
C1980 C1983 1.386 . S
H1981 C1997 0.930 . S
H1982 C1998 0.931 . S
C1983 H1971 0.929 . S
C1983 C1977 1.390 . S
C1983 C1980 1.386 . S
C1984 C1979 1.490 . S
C1984 C1986 1.395 . S
C1984 C1987 1.403 . S
H1985 C1991 0.930 . S
C1986 H1972 0.930 . S
C1986 C1984 1.395 . S
C1986 C1989 1.403 . S
C1987 C1984 1.403 . S
C1987 C1988 1.524 . S
C1987 C1991 1.400 . S
C1988 H1973 0.960 . S
C1988 H1974 0.960 . S
C1988 H1975 0.960 . S
C1988 C1987 1.524 . S
C1989 C1986 1.403 . S
C1989 C1990 1.392 . S
C1989 C1993 1.495 . S
C1990 C1989 1.392 . S
C1990 C1991 1.385 . S
C1990 C1992 1.478 . S
C1991 H1985 0.930 . S
C1991 C1987 1.400 . S
C1991 C1990 1.385 . S
C1992 C1990 1.478 . S
C1992 C1994 1.381 . S
C1992 C1998 1.383 . S
C1993 C1989 1.495 . S
C1993 H1999 0.959 . S
C1993 H2000 0.961 . S
C1993 H2001 0.960 . S
C1994 C1992 1.381 . S
C1994 C1995 1.394 . S
C1994 H2002 0.930 . S
C1995 C1994 1.394 . S
C1995 C1996 1.383 . S
C1995 H2003 0.929 . S
C1996 C1995 1.383 . S
C1996 C1997 1.377 . S
C1997 H1981 0.930 . S
C1997 C1996 1.377 . S
C1997 C1998 1.379 . S
C1998 H1982 0.931 . S
C1998 C1992 1.383 . S
C1998 C1997 1.379 . S
H1999 C1993 0.959 . S
H2000 C1993 0.961 . S
H2001 C1993 0.960 . S
H2002 C1994 0.930 . S
H2003 C1995 0.929 . S
H2004 C2012 0.929 . S
H2005 C2014 0.930 . S
H2006 C2016 0.930 . S
H2007 C2019 0.929 . S
H2008 C2022 0.930 . S
H2009 C2024 0.960 . S
H2010 C2024 0.960 . S
H2011 C2024 0.960 . S
C2012 H2004 0.929 . S
C2012 C2013 1.377 . S
C2012 C2014 1.384 . S
C2013 C2012 1.377 . S
C2013 C2019 1.390 . S
C2014 H2005 0.930 . S
C2014 C2012 1.384 . S
C2014 C2015 1.372 . S
C2015 C2014 1.372 . S
C2015 C2016 1.400 . S
C2015 C2020 1.490 . S
C2016 H2006 0.930 . S
C2016 C2015 1.400 . S
C2016 C2019 1.386 . S
H2017 C2033 0.930 . S
H2018 C2034 0.931 . S
C2019 H2007 0.929 . S
C2019 C2013 1.390 . S
C2019 C2016 1.386 . S
C2020 C2015 1.490 . S
C2020 C2022 1.395 . S
C2020 C2023 1.403 . S
H2021 C2027 0.930 . S
C2022 H2008 0.930 . S
C2022 C2020 1.395 . S
C2022 C2025 1.403 . S
C2023 C2020 1.403 . S
C2023 C2024 1.524 . S
C2023 C2027 1.400 . S
C2024 H2009 0.960 . S
C2024 H2010 0.960 . S
C2024 H2011 0.960 . S
C2024 C2023 1.524 . S
C2025 C2022 1.403 . S
C2025 C2026 1.392 . S
C2025 C2029 1.495 . S
C2026 C2025 1.392 . S
C2026 C2027 1.385 . S
C2026 C2028 1.478 . S
C2027 H2021 0.930 . S
C2027 C2023 1.400 . S
C2027 C2026 1.385 . S
C2028 C2026 1.478 . S
C2028 C2030 1.381 . S
C2028 C2034 1.383 . S
C2029 C2025 1.495 . S
C2029 H2035 0.959 . S
C2029 H2036 0.961 . S
C2029 H2037 0.960 . S
C2030 C2028 1.381 . S
C2030 C2031 1.394 . S
C2030 H2038 0.930 . S
C2031 C2030 1.394 . S
C2031 C2032 1.383 . S
C2031 H2039 0.929 . S
C2032 C2031 1.383 . S
C2032 C2033 1.377 . S
C2033 H2017 0.930 . S
C2033 C2032 1.377 . S
C2033 C2034 1.379 . S
C2034 H2018 0.931 . S
C2034 C2028 1.383 . S
C2034 C2033 1.379 . S
H2035 C2029 0.959 . S
H2036 C2029 0.961 . S
H2037 C2029 0.960 . S
H2038 C2030 0.930 . S
H2039 C2031 0.929 . S
H2040 C2048 0.929 . S
H2041 C2050 0.930 . S
H2042 C2052 0.930 . S
H2043 C2055 0.929 . S
H2044 C2058 0.930 . S
H2045 C2060 0.960 . S
H2046 C2060 0.960 . S
H2047 C2060 0.960 . S
C2048 H2040 0.929 . S
C2048 C2049 1.377 . S
C2048 C2050 1.384 . S
C2049 C2048 1.377 . S
C2049 C2055 1.390 . S
C2050 H2041 0.930 . S
C2050 C2048 1.384 . S
C2050 C2051 1.372 . S
C2051 C2050 1.372 . S
C2051 C2052 1.400 . S
C2051 C2056 1.490 . S
C2052 H2042 0.930 . S
C2052 C2051 1.400 . S
C2052 C2055 1.386 . S
H2053 C2069 0.930 . S
H2054 C2070 0.931 . S
C2055 H2043 0.929 . S
C2055 C2049 1.390 . S
C2055 C2052 1.386 . S
C2056 C2051 1.490 . S
C2056 C2058 1.395 . S
C2056 C2059 1.403 . S
H2057 C2063 0.930 . S
C2058 H2044 0.930 . S
C2058 C2056 1.395 . S
C2058 C2061 1.403 . S
C2059 C2056 1.403 . S
C2059 C2060 1.524 . S
C2059 C2063 1.400 . S
C2060 H2045 0.960 . S
C2060 H2046 0.960 . S
C2060 H2047 0.960 . S
C2060 C2059 1.524 . S
C2061 C2058 1.403 . S
C2061 C2062 1.392 . S
C2061 C2065 1.495 . S
C2062 C2061 1.392 . S
C2062 C2063 1.385 . S
C2062 C2064 1.478 . S
C2063 H2057 0.930 . S
C2063 C2059 1.400 . S
C2063 C2062 1.385 . S
C2064 C2062 1.478 . S
C2064 C2066 1.381 . S
C2064 C2070 1.383 . S
C2065 C2061 1.495 . S
C2065 H2071 0.959 . S
C2065 H2072 0.961 . S
C2065 H2073 0.960 . S
C2066 C2064 1.381 . S
C2066 C2067 1.394 . S
C2066 H2074 0.930 . S
C2067 C2066 1.394 . S
C2067 C2068 1.383 . S
C2067 H2075 0.929 . S
C2068 C2067 1.383 . S
C2068 C2069 1.377 . S
C2069 H2053 0.930 . S
C2069 C2068 1.377 . S
C2069 C2070 1.379 . S
C2070 H2054 0.931 . S
C2070 C2064 1.383 . S
C2070 C2069 1.379 . S
H2071 C2065 0.959 . S
H2072 C2065 0.961 . S
H2073 C2065 0.960 . S
H2074 C2066 0.930 . S
H2075 C2067 0.929 . S
H2076 C2084 0.929 . S
H2077 C2086 0.930 . S
H2078 C2088 0.930 . S
H2079 C2091 0.929 . S
H2080 C2094 0.930 . S
H2081 C2096 0.960 . S
H2082 C2096 0.960 . S
H2083 C2096 0.960 . S
C2084 H2076 0.929 . S
C2084 C2085 1.377 . S
C2084 C2086 1.384 . S
C2085 C2084 1.377 . S
C2085 C2091 1.390 . S
C2086 H2077 0.930 . S
C2086 C2084 1.384 . S
C2086 C2087 1.372 . S
C2087 C2086 1.372 . S
C2087 C2088 1.400 . S
C2087 C2092 1.490 . S
C2088 H2078 0.930 . S
C2088 C2087 1.400 . S
C2088 C2091 1.386 . S
H2089 C2105 0.930 . S
H2090 C2106 0.931 . S
C2091 H2079 0.929 . S
C2091 C2085 1.390 . S
C2091 C2088 1.386 . S
C2092 C2087 1.490 . S
C2092 C2094 1.395 . S
C2092 C2095 1.403 . S
H2093 C2099 0.930 . S
C2094 H2080 0.930 . S
C2094 C2092 1.395 . S
C2094 C2097 1.403 . S
C2095 C2092 1.403 . S
C2095 C2096 1.524 . S
C2095 C2099 1.400 . S
C2096 H2081 0.960 . S
C2096 H2082 0.960 . S
C2096 H2083 0.960 . S
C2096 C2095 1.524 . S
C2097 C2094 1.403 . S
C2097 C2098 1.392 . S
C2097 C2101 1.495 . S
C2098 C2097 1.392 . S
C2098 C2099 1.385 . S
C2098 C2100 1.478 . S
C2099 H2093 0.930 . S
C2099 C2095 1.400 . S
C2099 C2098 1.385 . S
C2100 C2098 1.478 . S
C2100 C2102 1.381 . S
C2100 C2106 1.383 . S
C2101 C2097 1.495 . S
C2101 H2107 0.959 . S
C2101 H2108 0.961 . S
C2101 H2109 0.960 . S
C2102 C2100 1.381 . S
C2102 C2103 1.394 . S
C2102 H2110 0.930 . S
C2103 C2102 1.394 . S
C2103 C2104 1.383 . S
C2103 H2111 0.929 . S
C2104 C2103 1.383 . S
C2104 C2105 1.377 . S
C2105 H2089 0.930 . S
C2105 C2104 1.377 . S
C2105 C2106 1.379 . S
C2106 H2090 0.931 . S
C2106 C2100 1.383 . S
C2106 C2105 1.379 . S
H2107 C2101 0.959 . S
H2108 C2101 0.961 . S
H2109 C2101 0.960 . S
H2110 C2102 0.930 . S
H2111 C2103 0.929 . S
H2112 C2120 0.929 . S
H2113 C2122 0.930 . S
H2114 C2124 0.930 . S
H2115 C2127 0.929 . S
H2116 C2130 0.930 . S
H2117 C2132 0.960 . S
H2118 C2132 0.960 . S
H2119 C2132 0.960 . S
C2120 H2112 0.929 . S
C2120 C2121 1.377 . S
C2120 C2122 1.384 . S
C2121 C2120 1.377 . S
C2121 C2127 1.390 . S
C2122 H2113 0.930 . S
C2122 C2120 1.384 . S
C2122 C2123 1.372 . S
C2123 C2122 1.372 . S
C2123 C2124 1.400 . S
C2123 C2128 1.490 . S
C2124 H2114 0.930 . S
C2124 C2123 1.400 . S
C2124 C2127 1.386 . S
H2125 C2141 0.930 . S
H2126 C2142 0.931 . S
C2127 H2115 0.929 . S
C2127 C2121 1.390 . S
C2127 C2124 1.386 . S
C2128 C2123 1.490 . S
C2128 C2130 1.395 . S
C2128 C2131 1.403 . S
H2129 C2135 0.930 . S
C2130 H2116 0.930 . S
C2130 C2128 1.395 . S
C2130 C2133 1.403 . S
C2131 C2128 1.403 . S
C2131 C2132 1.524 . S
C2131 C2135 1.400 . S
C2132 H2117 0.960 . S
C2132 H2118 0.960 . S
C2132 H2119 0.960 . S
C2132 C2131 1.524 . S
C2133 C2130 1.403 . S
C2133 C2134 1.392 . S
C2133 C2137 1.495 . S
C2134 C2133 1.392 . S
C2134 C2135 1.385 . S
C2134 C2136 1.478 . S
C2135 H2129 0.930 . S
C2135 C2131 1.400 . S
C2135 C2134 1.385 . S
C2136 C2134 1.478 . S
C2136 C2138 1.381 . S
C2136 C2142 1.383 . S
C2137 C2133 1.495 . S
C2137 H2143 0.959 . S
C2137 H2144 0.961 . S
C2137 H2145 0.960 . S
C2138 C2136 1.381 . S
C2138 C2139 1.394 . S
C2138 H2146 0.930 . S
C2139 C2138 1.394 . S
C2139 C2140 1.383 . S
C2139 H2147 0.929 . S
C2140 C2139 1.383 . S
C2140 C2141 1.377 . S
C2141 H2125 0.930 . S
C2141 C2140 1.377 . S
C2141 C2142 1.379 . S
C2142 H2126 0.931 . S
C2142 C2136 1.383 . S
C2142 C2141 1.379 . S
H2143 C2137 0.959 . S
H2144 C2137 0.961 . S
H2145 C2137 0.960 . S
H2146 C2138 0.930 . S
H2147 C2139 0.929 . S
H2148 C2156 0.929 . S
H2149 C2158 0.930 . S
H2150 C2160 0.930 . S
H2151 C2163 0.929 . S
H2152 C2166 0.930 . S
H2153 C2168 0.960 . S
H2154 C2168 0.960 . S
H2155 C2168 0.960 . S
C2156 H2148 0.929 . S
C2156 C2157 1.377 . S
C2156 C2158 1.384 . S
C2157 C2156 1.377 . S
C2157 C2163 1.390 . S
C2158 H2149 0.930 . S
C2158 C2156 1.384 . S
C2158 C2159 1.372 . S
C2159 C2158 1.372 . S
C2159 C2160 1.400 . S
C2159 C2164 1.490 . S
C2160 H2150 0.930 . S
C2160 C2159 1.400 . S
C2160 C2163 1.386 . S
H2161 C2177 0.930 . S
H2162 C2178 0.931 . S
C2163 H2151 0.929 . S
C2163 C2157 1.390 . S
C2163 C2160 1.386 . S
C2164 C2159 1.490 . S
C2164 C2166 1.395 . S
C2164 C2167 1.403 . S
H2165 C2171 0.930 . S
C2166 H2152 0.930 . S
C2166 C2164 1.395 . S
C2166 C2169 1.403 . S
C2167 C2164 1.403 . S
C2167 C2168 1.524 . S
C2167 C2171 1.400 . S
C2168 H2153 0.960 . S
C2168 H2154 0.960 . S
C2168 H2155 0.960 . S
C2168 C2167 1.524 . S
C2169 C2166 1.403 . S
C2169 C2170 1.392 . S
C2169 C2173 1.495 . S
C2170 C2169 1.392 . S
C2170 C2171 1.385 . S
C2170 C2172 1.478 . S
C2171 H2165 0.930 . S
C2171 C2167 1.400 . S
C2171 C2170 1.385 . S
C2172 C2170 1.478 . S
C2172 C2174 1.381 . S
C2172 C2178 1.383 . S
C2173 C2169 1.495 . S
C2173 H2179 0.959 . S
C2173 H2180 0.961 . S
C2173 H2181 0.960 . S
C2174 C2172 1.381 . S
C2174 C2175 1.394 . S
C2174 H2182 0.930 . S
C2175 C2174 1.394 . S
C2175 C2176 1.383 . S
C2175 H2183 0.929 . S
C2176 C2175 1.383 . S
C2176 C2177 1.377 . S
C2177 H2161 0.930 . S
C2177 C2176 1.377 . S
C2177 C2178 1.379 . S
C2178 H2162 0.931 . S
C2178 C2172 1.383 . S
C2178 C2177 1.379 . S
H2179 C2173 0.959 . S
H2180 C2173 0.961 . S
H2181 C2173 0.960 . S
H2182 C2174 0.930 . S
H2183 C2175 0.929 . S
H2184 C2192 0.929 . S
H2185 C2194 0.930 . S
H2186 C2196 0.930 . S
H2187 C2199 0.929 . S
H2188 C2202 0.930 . S
H2189 C2204 0.960 . S
H2190 C2204 0.960 . S
H2191 C2204 0.960 . S
C2192 H2184 0.929 . S
C2192 C2193 1.377 . S
C2192 C2194 1.384 . S
C2193 C2192 1.377 . S
C2193 C2199 1.390 . S
C2194 H2185 0.930 . S
C2194 C2192 1.384 . S
C2194 C2195 1.372 . S
C2195 C2194 1.372 . S
C2195 C2196 1.400 . S
C2195 C2200 1.490 . S
C2196 H2186 0.930 . S
C2196 C2195 1.400 . S
C2196 C2199 1.386 . S
H2197 C2213 0.930 . S
H2198 C2214 0.931 . S
C2199 H2187 0.929 . S
C2199 C2193 1.390 . S
C2199 C2196 1.386 . S
C2200 C2195 1.490 . S
C2200 C2202 1.395 . S
C2200 C2203 1.403 . S
H2201 C2207 0.930 . S
C2202 H2188 0.930 . S
C2202 C2200 1.395 . S
C2202 C2205 1.403 . S
C2203 C2200 1.403 . S
C2203 C2204 1.524 . S
C2203 C2207 1.400 . S
C2204 H2189 0.960 . S
C2204 H2190 0.960 . S
C2204 H2191 0.960 . S
C2204 C2203 1.524 . S
C2205 C2202 1.403 . S
C2205 C2206 1.392 . S
C2205 C2209 1.495 . S
C2206 C2205 1.392 . S
C2206 C2207 1.385 . S
C2206 C2208 1.478 . S
C2207 H2201 0.930 . S
C2207 C2203 1.400 . S
C2207 C2206 1.385 . S
C2208 C2206 1.478 . S
C2208 C2210 1.381 . S
C2208 C2214 1.383 . S
C2209 C2205 1.495 . S
C2209 H2215 0.959 . S
C2209 H2216 0.961 . S
C2209 H2217 0.960 . S
C2210 C2208 1.381 . S
C2210 C2211 1.394 . S
C2210 H2218 0.930 . S
C2211 C2210 1.394 . S
C2211 C2212 1.383 . S
C2211 H2219 0.929 . S
C2212 C2211 1.383 . S
C2212 C2213 1.377 . S
C2213 H2197 0.930 . S
C2213 C2212 1.377 . S
C2213 C2214 1.379 . S
C2214 H2198 0.931 . S
C2214 C2208 1.383 . S
C2214 C2213 1.379 . S
H2215 C2209 0.959 . S
H2216 C2209 0.961 . S
H2217 C2209 0.960 . S
H2218 C2210 0.930 . S
H2219 C2211 0.929 . S
H2220 C2228 0.929 . S
H2221 C2230 0.930 . S
H2222 C2232 0.930 . S
H2223 C2235 0.929 . S
H2224 C2238 0.930 . S
H2225 C2240 0.960 . S
H2226 C2240 0.960 . S
H2227 C2240 0.960 . S
C2228 H2220 0.929 . S
C2228 C2229 1.377 . S
C2228 C2230 1.384 . S
C2229 C2228 1.377 . S
C2229 C2235 1.390 . S
C2230 H2221 0.930 . S
C2230 C2228 1.384 . S
C2230 C2231 1.372 . S
C2231 C2230 1.372 . S
C2231 C2232 1.400 . S
C2231 C2236 1.490 . S
C2232 H2222 0.930 . S
C2232 C2231 1.400 . S
C2232 C2235 1.386 . S
H2233 C2249 0.930 . S
H2234 C2250 0.931 . S
C2235 H2223 0.929 . S
C2235 C2229 1.390 . S
C2235 C2232 1.386 . S
C2236 C2231 1.490 . S
C2236 C2238 1.395 . S
C2236 C2239 1.403 . S
H2237 C2243 0.930 . S
C2238 H2224 0.930 . S
C2238 C2236 1.395 . S
C2238 C2241 1.403 . S
C2239 C2236 1.403 . S
C2239 C2240 1.524 . S
C2239 C2243 1.400 . S
C2240 H2225 0.960 . S
C2240 H2226 0.960 . S
C2240 H2227 0.960 . S
C2240 C2239 1.524 . S
C2241 C2238 1.403 . S
C2241 C2242 1.392 . S
C2241 C2245 1.495 . S
C2242 C2241 1.392 . S
C2242 C2243 1.385 . S
C2242 C2244 1.478 . S
C2243 H2237 0.930 . S
C2243 C2239 1.400 . S
C2243 C2242 1.385 . S
C2244 C2242 1.478 . S
C2244 C2246 1.381 . S
C2244 C2250 1.383 . S
C2245 C2241 1.495 . S
C2245 H2251 0.959 . S
C2245 H2252 0.961 . S
C2245 H2253 0.960 . S
C2246 C2244 1.381 . S
C2246 C2247 1.394 . S
C2246 H2254 0.930 . S
C2247 C2246 1.394 . S
C2247 C2248 1.383 . S
C2247 H2255 0.929 . S
C2248 C2247 1.383 . S
C2248 C2249 1.377 . S
C2249 H2233 0.930 . S
C2249 C2248 1.377 . S
C2249 C2250 1.379 . S
C2250 H2234 0.931 . S
C2250 C2244 1.383 . S
C2250 C2249 1.379 . S
H2251 C2245 0.959 . S
H2252 C2245 0.961 . S
H2253 C2245 0.960 . S
H2254 C2246 0.930 . S
H2255 C2247 0.929 . S
H2256 C2264 0.929 . S
H2257 C2266 0.930 . S
H2258 C2268 0.930 . S
H2259 C2271 0.929 . S
H2260 C2274 0.930 . S
H2261 C2276 0.960 . S
H2262 C2276 0.960 . S
H2263 C2276 0.960 . S
C2264 H2256 0.929 . S
C2264 C2265 1.377 . S
C2264 C2266 1.384 . S
C2265 C2264 1.377 . S
C2265 C2271 1.390 . S
C2266 H2257 0.930 . S
C2266 C2264 1.384 . S
C2266 C2267 1.372 . S
C2267 C2266 1.372 . S
C2267 C2268 1.400 . S
C2267 C2272 1.490 . S
C2268 H2258 0.930 . S
C2268 C2267 1.400 . S
C2268 C2271 1.386 . S
H2269 C2285 0.930 . S
H2270 C2286 0.931 . S
C2271 H2259 0.929 . S
C2271 C2265 1.390 . S
C2271 C2268 1.386 . S
C2272 C2267 1.490 . S
C2272 C2274 1.395 . S
C2272 C2275 1.403 . S
H2273 C2279 0.930 . S
C2274 H2260 0.930 . S
C2274 C2272 1.395 . S
C2274 C2277 1.403 . S
C2275 C2272 1.403 . S
C2275 C2276 1.524 . S
C2275 C2279 1.400 . S
C2276 H2261 0.960 . S
C2276 H2262 0.960 . S
C2276 H2263 0.960 . S
C2276 C2275 1.524 . S
C2277 C2274 1.403 . S
C2277 C2278 1.392 . S
C2277 C2281 1.495 . S
C2278 C2277 1.392 . S
C2278 C2279 1.385 . S
C2278 C2280 1.478 . S
C2279 H2273 0.930 . S
C2279 C2275 1.400 . S
C2279 C2278 1.385 . S
C2280 C2278 1.478 . S
C2280 C2282 1.381 . S
C2280 C2286 1.383 . S
C2281 C2277 1.495 . S
C2281 H2287 0.959 . S
C2281 H2288 0.961 . S
C2281 H2289 0.960 . S
C2282 C2280 1.381 . S
C2282 C2283 1.394 . S
C2282 H2290 0.930 . S
C2283 C2282 1.394 . S
C2283 C2284 1.383 . S
C2283 H2291 0.929 . S
C2284 C2283 1.383 . S
C2284 C2285 1.377 . S
C2285 H2269 0.930 . S
C2285 C2284 1.377 . S
C2285 C2286 1.379 . S
C2286 H2270 0.931 . S
C2286 C2280 1.383 . S
C2286 C2285 1.379 . S
H2287 C2281 0.959 . S
H2288 C2281 0.961 . S
H2289 C2281 0.960 . S
H2290 C2282 0.930 . S
H2291 C2283 0.929 . S
H2292 C2300 0.929 . S
H2293 C2302 0.930 . S
H2294 C2304 0.930 . S
H2295 C2307 0.929 . S
H2296 C2310 0.930 . S
H2297 C2312 0.960 . S
H2298 C2312 0.960 . S
H2299 C2312 0.960 . S
C2300 H2292 0.929 . S
C2300 C2301 1.377 . S
C2300 C2302 1.384 . S
C2301 C2300 1.377 . S
C2301 C2307 1.390 . S
C2302 H2293 0.930 . S
C2302 C2300 1.384 . S
C2302 C2303 1.372 . S
C2303 C2302 1.372 . S
C2303 C2304 1.400 . S
C2303 C2308 1.490 . S
C2304 H2294 0.930 . S
C2304 C2303 1.400 . S
C2304 C2307 1.386 . S
H2305 C2321 0.930 . S
H2306 C2322 0.931 . S
C2307 H2295 0.929 . S
C2307 C2301 1.390 . S
C2307 C2304 1.386 . S
C2308 C2303 1.490 . S
C2308 C2310 1.395 . S
C2308 C2311 1.403 . S
H2309 C2315 0.930 . S
C2310 H2296 0.930 . S
C2310 C2308 1.395 . S
C2310 C2313 1.403 . S
C2311 C2308 1.403 . S
C2311 C2312 1.524 . S
C2311 C2315 1.400 . S
C2312 H2297 0.960 . S
C2312 H2298 0.960 . S
C2312 H2299 0.960 . S
C2312 C2311 1.524 . S
C2313 C2310 1.403 . S
C2313 C2314 1.392 . S
C2313 C2317 1.495 . S
C2314 C2313 1.392 . S
C2314 C2315 1.385 . S
C2314 C2316 1.478 . S
C2315 H2309 0.930 . S
C2315 C2311 1.400 . S
C2315 C2314 1.385 . S
C2316 C2314 1.478 . S
C2316 C2318 1.381 . S
C2316 C2322 1.383 . S
C2317 C2313 1.495 . S
C2317 H2323 0.959 . S
C2317 H2324 0.961 . S
C2317 H2325 0.960 . S
C2318 C2316 1.381 . S
C2318 C2319 1.394 . S
C2318 H2326 0.930 . S
C2319 C2318 1.394 . S
C2319 C2320 1.383 . S
C2319 H2327 0.929 . S
C2320 C2319 1.383 . S
C2320 C2321 1.377 . S
C2321 H2305 0.930 . S
C2321 C2320 1.377 . S
C2321 C2322 1.379 . S
C2322 H2306 0.931 . S
C2322 C2316 1.383 . S
C2322 C2321 1.379 . S
H2323 C2317 0.959 . S
H2324 C2317 0.961 . S
H2325 C2317 0.960 . S
H2326 C2318 0.930 . S
H2327 C2319 0.929 . S
H2328 C2336 0.929 . S
H2329 C2338 0.930 . S
H2330 C2340 0.930 . S
H2331 C2343 0.929 . S
H2332 C2346 0.930 . S
H2333 C2348 0.960 . S
H2334 C2348 0.960 . S
H2335 C2348 0.960 . S
C2336 H2328 0.929 . S
C2336 C2337 1.377 . S
C2336 C2338 1.384 . S
C2337 C2336 1.377 . S
C2337 C2343 1.390 . S
C2338 H2329 0.930 . S
C2338 C2336 1.384 . S
C2338 C2339 1.372 . S
C2339 C2338 1.372 . S
C2339 C2340 1.400 . S
C2339 C2344 1.490 . S
C2340 H2330 0.930 . S
C2340 C2339 1.400 . S
C2340 C2343 1.386 . S
H2341 C2357 0.930 . S
H2342 C2358 0.931 . S
C2343 H2331 0.929 . S
C2343 C2337 1.390 . S
C2343 C2340 1.386 . S
C2344 C2339 1.490 . S
C2344 C2346 1.395 . S
C2344 C2347 1.403 . S
H2345 C2351 0.930 . S
C2346 H2332 0.930 . S
C2346 C2344 1.395 . S
C2346 C2349 1.403 . S
C2347 C2344 1.403 . S
C2347 C2348 1.524 . S
C2347 C2351 1.400 . S
C2348 H2333 0.960 . S
C2348 H2334 0.960 . S
C2348 H2335 0.960 . S
C2348 C2347 1.524 . S
C2349 C2346 1.403 . S
C2349 C2350 1.392 . S
C2349 C2353 1.495 . S
C2350 C2349 1.392 . S
C2350 C2351 1.385 . S
C2350 C2352 1.478 . S
C2351 H2345 0.930 . S
C2351 C2347 1.400 . S
C2351 C2350 1.385 . S
C2352 C2350 1.478 . S
C2352 C2354 1.381 . S
C2352 C2358 1.383 . S
C2353 C2349 1.495 . S
C2353 H2359 0.959 . S
C2353 H2360 0.961 . S
C2353 H2361 0.960 . S
C2354 C2352 1.381 . S
C2354 C2355 1.394 . S
C2354 H2362 0.930 . S
C2355 C2354 1.394 . S
C2355 C2356 1.383 . S
C2355 H2363 0.929 . S
C2356 C2355 1.383 . S
C2356 C2357 1.377 . S
C2357 H2341 0.930 . S
C2357 C2356 1.377 . S
C2357 C2358 1.379 . S
C2358 H2342 0.931 . S
C2358 C2352 1.383 . S
C2358 C2357 1.379 . S
H2359 C2353 0.959 . S
H2360 C2353 0.961 . S
H2361 C2353 0.960 . S
H2362 C2354 0.930 . S
H2363 C2355 0.929 . S
H2364 C2372 0.929 . S
H2365 C2374 0.930 . S
H2366 C2376 0.930 . S
H2367 C2379 0.929 . S
H2368 C2382 0.930 . S
H2369 C2384 0.960 . S
H2370 C2384 0.960 . S
H2371 C2384 0.960 . S
C2372 H2364 0.929 . S
C2372 C2373 1.377 . S
C2372 C2374 1.384 . S
C2373 C2372 1.377 . S
C2373 C2379 1.390 . S
C2374 H2365 0.930 . S
C2374 C2372 1.384 . S
C2374 C2375 1.372 . S
C2375 C2374 1.372 . S
C2375 C2376 1.400 . S
C2375 C2380 1.490 . S
C2376 H2366 0.930 . S
C2376 C2375 1.400 . S
C2376 C2379 1.386 . S
H2377 C2393 0.930 . S
H2378 C2394 0.931 . S
C2379 H2367 0.929 . S
C2379 C2373 1.390 . S
C2379 C2376 1.386 . S
C2380 C2375 1.490 . S
C2380 C2382 1.395 . S
C2380 C2383 1.403 . S
H2381 C2387 0.930 . S
C2382 H2368 0.930 . S
C2382 C2380 1.395 . S
C2382 C2385 1.403 . S
C2383 C2380 1.403 . S
C2383 C2384 1.524 . S
C2383 C2387 1.400 . S
C2384 H2369 0.960 . S
C2384 H2370 0.960 . S
C2384 H2371 0.960 . S
C2384 C2383 1.524 . S
C2385 C2382 1.403 . S
C2385 C2386 1.392 . S
C2385 C2389 1.495 . S
C2386 C2385 1.392 . S
C2386 C2387 1.385 . S
C2386 C2388 1.478 . S
C2387 H2381 0.930 . S
C2387 C2383 1.400 . S
C2387 C2386 1.385 . S
C2388 C2386 1.478 . S
C2388 C2390 1.381 . S
C2388 C2394 1.383 . S
C2389 C2385 1.495 . S
C2389 H2395 0.959 . S
C2389 H2396 0.961 . S
C2389 H2397 0.960 . S
C2390 C2388 1.381 . S
C2390 C2391 1.394 . S
C2390 H2398 0.930 . S
C2391 C2390 1.394 . S
C2391 C2392 1.383 . S
C2391 H2399 0.929 . S
C2392 C2391 1.383 . S
C2392 C2393 1.377 . S
C2393 H2377 0.930 . S
C2393 C2392 1.377 . S
C2393 C2394 1.379 . S
C2394 H2378 0.931 . S
C2394 C2388 1.383 . S
C2394 C2393 1.379 . S
H2395 C2389 0.959 . S
H2396 C2389 0.961 . S
H2397 C2389 0.960 . S
H2398 C2390 0.930 . S
H2399 C2391 0.929 . S
H2400 C2408 0.929 . S
H2401 C2410 0.930 . S
H2402 C2412 0.930 . S
H2403 C2415 0.929 . S
H2404 C2418 0.930 . S
H2405 C2420 0.960 . S
H2406 C2420 0.960 . S
H2407 C2420 0.960 . S
C2408 H2400 0.929 . S
C2408 C2409 1.377 . S
C2408 C2410 1.384 . S
C2409 C2408 1.377 . S
C2409 C2415 1.390 . S
C2410 H2401 0.930 . S
C2410 C2408 1.384 . S
C2410 C2411 1.372 . S
C2411 C2410 1.372 . S
C2411 C2412 1.400 . S
C2411 C2416 1.490 . S
C2412 H2402 0.930 . S
C2412 C2411 1.400 . S
C2412 C2415 1.386 . S
H2413 C2429 0.930 . S
H2414 C2430 0.931 . S
C2415 H2403 0.929 . S
C2415 C2409 1.390 . S
C2415 C2412 1.386 . S
C2416 C2411 1.490 . S
C2416 C2418 1.395 . S
C2416 C2419 1.403 . S
H2417 C2423 0.930 . S
C2418 H2404 0.930 . S
C2418 C2416 1.395 . S
C2418 C2421 1.403 . S
C2419 C2416 1.403 . S
C2419 C2420 1.524 . S
C2419 C2423 1.400 . S
C2420 H2405 0.960 . S
C2420 H2406 0.960 . S
C2420 H2407 0.960 . S
C2420 C2419 1.524 . S
C2421 C2418 1.403 . S
C2421 C2422 1.392 . S
C2421 C2425 1.495 . S
C2422 C2421 1.392 . S
C2422 C2423 1.385 . S
C2422 C2424 1.478 . S
C2423 H2417 0.930 . S
C2423 C2419 1.400 . S
C2423 C2422 1.385 . S
C2424 C2422 1.478 . S
C2424 C2426 1.381 . S
C2424 C2430 1.383 . S
C2425 C2421 1.495 . S
C2425 H2431 0.959 . S
C2425 H2432 0.961 . S
C2425 H2433 0.960 . S
C2426 C2424 1.381 . S
C2426 C2427 1.394 . S
C2426 H2434 0.930 . S
C2427 C2426 1.394 . S
C2427 C2428 1.383 . S
C2427 H2435 0.929 . S
C2428 C2427 1.383 . S
C2428 C2429 1.377 . S
C2429 H2413 0.930 . S
C2429 C2428 1.377 . S
C2429 C2430 1.379 . S
C2430 H2414 0.931 . S
C2430 C2424 1.383 . S
C2430 C2429 1.379 . S
H2431 C2425 0.959 . S
H2432 C2425 0.961 . S
H2433 C2425 0.960 . S
H2434 C2426 0.930 . S
H2435 C2427 0.929 . S
H2436 C2444 0.929 . S
H2437 C2446 0.930 . S
H2438 C2448 0.930 . S
H2439 C2451 0.929 . S
H2440 C2454 0.930 . S
H2441 C2456 0.960 . S
H2442 C2456 0.960 . S
H2443 C2456 0.960 . S
C2444 H2436 0.929 . S
C2444 C2445 1.377 . S
C2444 C2446 1.384 . S
C2445 C2444 1.377 . S
C2445 C2451 1.390 . S
C2446 H2437 0.930 . S
C2446 C2444 1.384 . S
C2446 C2447 1.372 . S
C2447 C2446 1.372 . S
C2447 C2448 1.400 . S
C2447 C2452 1.490 . S
C2448 H2438 0.930 . S
C2448 C2447 1.400 . S
C2448 C2451 1.386 . S
H2449 C2465 0.930 . S
H2450 C2466 0.931 . S
C2451 H2439 0.929 . S
C2451 C2445 1.390 . S
C2451 C2448 1.386 . S
C2452 C2447 1.490 . S
C2452 C2454 1.395 . S
C2452 C2455 1.403 . S
H2453 C2459 0.930 . S
C2454 H2440 0.930 . S
C2454 C2452 1.395 . S
C2454 C2457 1.403 . S
C2455 C2452 1.403 . S
C2455 C2456 1.524 . S
C2455 C2459 1.400 . S
C2456 H2441 0.960 . S
C2456 H2442 0.960 . S
C2456 H2443 0.960 . S
C2456 C2455 1.524 . S
C2457 C2454 1.403 . S
C2457 C2458 1.392 . S
C2457 C2461 1.495 . S
C2458 C2457 1.392 . S
C2458 C2459 1.385 . S
C2458 C2460 1.478 . S
C2459 H2453 0.930 . S
C2459 C2455 1.400 . S
C2459 C2458 1.385 . S
C2460 C2458 1.478 . S
C2460 C2462 1.381 . S
C2460 C2466 1.383 . S
C2461 C2457 1.495 . S
C2461 H2467 0.959 . S
C2461 H2468 0.961 . S
C2461 H2469 0.960 . S
C2462 C2460 1.381 . S
C2462 C2463 1.394 . S
C2462 H2470 0.930 . S
C2463 C2462 1.394 . S
C2463 C2464 1.383 . S
C2463 H2471 0.929 . S
C2464 C2463 1.383 . S
C2464 C2465 1.377 . S
C2465 H2449 0.930 . S
C2465 C2464 1.377 . S
C2465 C2466 1.379 . S
C2466 H2450 0.931 . S
C2466 C2460 1.383 . S
C2466 C2465 1.379 . S
H2467 C2461 0.959 . S
H2468 C2461 0.961 . S
H2469 C2461 0.960 . S
H2470 C2462 0.930 . S
H2471 C2463 0.929 . S
H2472 C2480 0.929 . S
H2473 C2482 0.930 . S
H2474 C2484 0.930 . S
H2475 C2487 0.929 . S
H2476 C2490 0.930 . S
H2477 C2492 0.960 . S
H2478 C2492 0.960 . S
H2479 C2492 0.960 . S
C2480 H2472 0.929 . S
C2480 C2481 1.377 . S
C2480 C2482 1.384 . S
C2481 C2480 1.377 . S
C2481 C2487 1.390 . S
C2482 H2473 0.930 . S
C2482 C2480 1.384 . S
C2482 C2483 1.372 . S
C2483 C2482 1.372 . S
C2483 C2484 1.400 . S
C2483 C2488 1.490 . S
C2484 H2474 0.930 . S
C2484 C2483 1.400 . S
C2484 C2487 1.386 . S
H2485 C2501 0.930 . S
H2486 C2502 0.931 . S
C2487 H2475 0.929 . S
C2487 C2481 1.390 . S
C2487 C2484 1.386 . S
C2488 C2483 1.490 . S
C2488 C2490 1.395 . S
C2488 C2491 1.403 . S
H2489 C2495 0.930 . S
C2490 H2476 0.930 . S
C2490 C2488 1.395 . S
C2490 C2493 1.403 . S
C2491 C2488 1.403 . S
C2491 C2492 1.524 . S
C2491 C2495 1.400 . S
C2492 H2477 0.960 . S
C2492 H2478 0.960 . S
C2492 H2479 0.960 . S
C2492 C2491 1.524 . S
C2493 C2490 1.403 . S
C2493 C2494 1.392 . S
C2493 C2497 1.495 . S
C2494 C2493 1.392 . S
C2494 C2495 1.385 . S
C2494 C2496 1.478 . S
C2495 H2489 0.930 . S
C2495 C2491 1.400 . S
C2495 C2494 1.385 . S
C2496 C2494 1.478 . S
C2496 C2498 1.381 . S
C2496 C2502 1.383 . S
C2497 C2493 1.495 . S
C2497 H2503 0.959 . S
C2497 H2504 0.961 . S
C2497 H2505 0.960 . S
C2498 C2496 1.381 . S
C2498 C2499 1.394 . S
C2498 H2506 0.930 . S
C2499 C2498 1.394 . S
C2499 C2500 1.383 . S
C2499 H2507 0.929 . S
C2500 C2499 1.383 . S
C2500 C2501 1.377 . S
C2501 H2485 0.930 . S
C2501 C2500 1.377 . S
C2501 C2502 1.379 . S
C2502 H2486 0.931 . S
C2502 C2496 1.383 . S
C2502 C2501 1.379 . S
H2503 C2497 0.959 . S
H2504 C2497 0.961 . S
H2505 C2497 0.960 . S
H2506 C2498 0.930 . S
H2507 C2499 0.929 . S
H2508 C2516 0.929 . S
H2509 C2518 0.930 . S
H2510 C2520 0.930 . S
H2511 C2523 0.929 . S
H2512 C2526 0.930 . S
H2513 C2528 0.960 . S
H2514 C2528 0.960 . S
H2515 C2528 0.960 . S
C2516 H2508 0.929 . S
C2516 C2517 1.377 . S
C2516 C2518 1.384 . S
C2517 C2516 1.377 . S
C2517 C2523 1.390 . S
C2518 H2509 0.930 . S
C2518 C2516 1.384 . S
C2518 C2519 1.372 . S
C2519 C2518 1.372 . S
C2519 C2520 1.400 . S
C2519 C2524 1.490 . S
C2520 H2510 0.930 . S
C2520 C2519 1.400 . S
C2520 C2523 1.386 . S
H2521 C2537 0.930 . S
H2522 C2538 0.931 . S
C2523 H2511 0.929 . S
C2523 C2517 1.390 . S
C2523 C2520 1.386 . S
C2524 C2519 1.490 . S
C2524 C2526 1.395 . S
C2524 C2527 1.403 . S
H2525 C2531 0.930 . S
C2526 H2512 0.930 . S
C2526 C2524 1.395 . S
C2526 C2529 1.403 . S
C2527 C2524 1.403 . S
C2527 C2528 1.524 . S
C2527 C2531 1.400 . S
C2528 H2513 0.960 . S
C2528 H2514 0.960 . S
C2528 H2515 0.960 . S
C2528 C2527 1.524 . S
C2529 C2526 1.403 . S
C2529 C2530 1.392 . S
C2529 C2533 1.495 . S
C2530 C2529 1.392 . S
C2530 C2531 1.385 . S
C2530 C2532 1.478 . S
C2531 H2525 0.930 . S
C2531 C2527 1.400 . S
C2531 C2530 1.385 . S
C2532 C2530 1.478 . S
C2532 C2534 1.381 . S
C2532 C2538 1.383 . S
C2533 C2529 1.495 . S
C2533 H2539 0.959 . S
C2533 H2540 0.961 . S
C2533 H2541 0.960 . S
C2534 C2532 1.381 . S
C2534 C2535 1.394 . S
C2534 H2542 0.930 . S
C2535 C2534 1.394 . S
C2535 C2536 1.383 . S
C2535 H2543 0.929 . S
C2536 C2535 1.383 . S
C2536 C2537 1.377 . S
C2537 H2521 0.930 . S
C2537 C2536 1.377 . S
C2537 C2538 1.379 . S
C2538 H2522 0.931 . S
C2538 C2532 1.383 . S
C2538 C2537 1.379 . S
H2539 C2533 0.959 . S
H2540 C2533 0.961 . S
H2541 C2533 0.960 . S
H2542 C2534 0.930 . S
H2543 C2535 0.929 . S
H2544 C2552 0.929 . S
H2545 C2554 0.930 . S
H2546 C2556 0.930 . S
H2547 C2559 0.929 . S
H2548 C2562 0.930 . S
H2549 C2564 0.960 . S
H2550 C2564 0.960 . S
H2551 C2564 0.960 . S
C2552 H2544 0.929 . S
C2552 C2553 1.377 . S
C2552 C2554 1.384 . S
C2553 C2552 1.377 . S
C2553 C2559 1.390 . S
C2554 H2545 0.930 . S
C2554 C2552 1.384 . S
C2554 C2555 1.372 . S
C2555 C2554 1.372 . S
C2555 C2556 1.400 . S
C2555 C2560 1.490 . S
C2556 H2546 0.930 . S
C2556 C2555 1.400 . S
C2556 C2559 1.386 . S
H2557 C2573 0.930 . S
H2558 C2574 0.931 . S
C2559 H2547 0.929 . S
C2559 C2553 1.390 . S
C2559 C2556 1.386 . S
C2560 C2555 1.490 . S
C2560 C2562 1.395 . S
C2560 C2563 1.403 . S
H2561 C2567 0.930 . S
C2562 H2548 0.930 . S
C2562 C2560 1.395 . S
C2562 C2565 1.403 . S
C2563 C2560 1.403 . S
C2563 C2564 1.524 . S
C2563 C2567 1.400 . S
C2564 H2549 0.960 . S
C2564 H2550 0.960 . S
C2564 H2551 0.960 . S
C2564 C2563 1.524 . S
C2565 C2562 1.403 . S
C2565 C2566 1.392 . S
C2565 C2569 1.495 . S
C2566 C2565 1.392 . S
C2566 C2567 1.385 . S
C2566 C2568 1.478 . S
C2567 H2561 0.930 . S
C2567 C2563 1.400 . S
C2567 C2566 1.385 . S
C2568 C2566 1.478 . S
C2568 C2570 1.381 . S
C2568 C2574 1.383 . S
C2569 C2565 1.495 . S
C2569 H2575 0.959 . S
C2569 H2576 0.961 . S
C2569 H2577 0.960 . S
C2570 C2568 1.381 . S
C2570 C2571 1.394 . S
C2570 H2578 0.930 . S
C2571 C2570 1.394 . S
C2571 C2572 1.383 . S
C2571 H2579 0.929 . S
C2572 C2571 1.383 . S
C2572 C2573 1.377 . S
C2573 H2557 0.930 . S
C2573 C2572 1.377 . S
C2573 C2574 1.379 . S
C2574 H2558 0.931 . S
C2574 C2568 1.383 . S
C2574 C2573 1.379 . S
H2575 C2569 0.959 . S
H2576 C2569 0.961 . S
H2577 C2569 0.960 . S
H2578 C2570 0.930 . S
H2579 C2571 0.929 . S
H2580 C2588 0.929 . S
H2581 C2590 0.930 . S
H2582 C2592 0.930 . S
H2583 C2595 0.929 . S
H2584 C2598 0.930 . S
H2585 C2600 0.960 . S
H2586 C2600 0.960 . S
H2587 C2600 0.960 . S
C2588 H2580 0.929 . S
C2588 C2589 1.377 . S
C2588 C2590 1.384 . S
C2589 C2588 1.377 . S
C2589 C2595 1.390 . S
C2590 H2581 0.930 . S
C2590 C2588 1.384 . S
C2590 C2591 1.372 . S
C2591 C2590 1.372 . S
C2591 C2592 1.400 . S
C2591 C2596 1.490 . S
C2592 H2582 0.930 . S
C2592 C2591 1.400 . S
C2592 C2595 1.386 . S
H2593 C2609 0.930 . S
H2594 C2610 0.931 . S
C2595 H2583 0.929 . S
C2595 C2589 1.390 . S
C2595 C2592 1.386 . S
C2596 C2591 1.490 . S
C2596 C2598 1.395 . S
C2596 C2599 1.403 . S
H2597 C2603 0.930 . S
C2598 H2584 0.930 . S
C2598 C2596 1.395 . S
C2598 C2601 1.403 . S
C2599 C2596 1.403 . S
C2599 C2600 1.524 . S
C2599 C2603 1.400 . S
C2600 H2585 0.960 . S
C2600 H2586 0.960 . S
C2600 H2587 0.960 . S
C2600 C2599 1.524 . S
C2601 C2598 1.403 . S
C2601 C2602 1.392 . S
C2601 C2605 1.495 . S
C2602 C2601 1.392 . S
C2602 C2603 1.385 . S
C2602 C2604 1.478 . S
C2603 H2597 0.930 . S
C2603 C2599 1.400 . S
C2603 C2602 1.385 . S
C2604 C2602 1.478 . S
C2604 C2606 1.381 . S
C2604 C2610 1.383 . S
C2605 C2601 1.495 . S
C2605 H2611 0.959 . S
C2605 H2612 0.961 . S
C2605 H2613 0.960 . S
C2606 C2604 1.381 . S
C2606 C2607 1.394 . S
C2606 H2614 0.930 . S
C2607 C2606 1.394 . S
C2607 C2608 1.383 . S
C2607 H2615 0.929 . S
C2608 C2607 1.383 . S
C2608 C2609 1.377 . S
C2609 H2593 0.930 . S
C2609 C2608 1.377 . S
C2609 C2610 1.379 . S
C2610 H2594 0.931 . S
C2610 C2604 1.383 . S
C2610 C2609 1.379 . S
H2611 C2605 0.959 . S
H2612 C2605 0.961 . S
H2613 C2605 0.960 . S
H2614 C2606 0.930 . S
H2615 C2607 0.929 . S
H2616 C2624 0.929 . S
H2617 C2626 0.930 . S
H2618 C2628 0.930 . S
H2619 C2631 0.929 . S
H2620 C2634 0.930 . S
H2621 C2636 0.960 . S
H2622 C2636 0.960 . S
H2623 C2636 0.960 . S
C2624 H2616 0.929 . S
C2624 C2625 1.377 . S
C2624 C2626 1.384 . S
C2625 C2624 1.377 . S
C2625 C2631 1.390 . S
C2626 H2617 0.930 . S
C2626 C2624 1.384 . S
C2626 C2627 1.372 . S
C2627 C2626 1.372 . S
C2627 C2628 1.400 . S
C2627 C2632 1.490 . S
C2628 H2618 0.930 . S
C2628 C2627 1.400 . S
C2628 C2631 1.386 . S
H2629 C2645 0.930 . S
H2630 C2646 0.931 . S
C2631 H2619 0.929 . S
C2631 C2625 1.390 . S
C2631 C2628 1.386 . S
C2632 C2627 1.490 . S
C2632 C2634 1.395 . S
C2632 C2635 1.403 . S
H2633 C2639 0.930 . S
C2634 H2620 0.930 . S
C2634 C2632 1.395 . S
C2634 C2637 1.403 . S
C2635 C2632 1.403 . S
C2635 C2636 1.524 . S
C2635 C2639 1.400 . S
C2636 H2621 0.960 . S
C2636 H2622 0.960 . S
C2636 H2623 0.960 . S
C2636 C2635 1.524 . S
C2637 C2634 1.403 . S
C2637 C2638 1.392 . S
C2637 C2641 1.495 . S
C2638 C2637 1.392 . S
C2638 C2639 1.385 . S
C2638 C2640 1.478 . S
C2639 H2633 0.930 . S
C2639 C2635 1.400 . S
C2639 C2638 1.385 . S
C2640 C2638 1.478 . S
C2640 C2642 1.381 . S
C2640 C2646 1.383 . S
C2641 C2637 1.495 . S
C2641 H2647 0.959 . S
C2641 H2648 0.961 . S
C2641 H2649 0.960 . S
C2642 C2640 1.381 . S
C2642 C2643 1.394 . S
C2642 H2650 0.930 . S
C2643 C2642 1.394 . S
C2643 C2644 1.383 . S
C2643 H2651 0.929 . S
C2644 C2643 1.383 . S
C2644 C2645 1.377 . S
C2645 H2629 0.930 . S
C2645 C2644 1.377 . S
C2645 C2646 1.379 . S
C2646 H2630 0.931 . S
C2646 C2640 1.383 . S
C2646 C2645 1.379 . S
H2647 C2641 0.959 . S
H2648 C2641 0.961 . S
H2649 C2641 0.960 . S
H2650 C2642 0.930 . S
H2651 C2643 0.929 . S
H2652 C2660 0.929 . S
H2653 C2662 0.930 . S
H2654 C2664 0.930 . S
H2655 C2667 0.929 . S
H2656 C2670 0.930 . S
H2657 C2672 0.960 . S
H2658 C2672 0.960 . S
H2659 C2672 0.960 . S
C2660 H2652 0.929 . S
C2660 C2661 1.377 . S
C2660 C2662 1.384 . S
C2661 C2660 1.377 . S
C2661 C2667 1.390 . S
C2662 H2653 0.930 . S
C2662 C2660 1.384 . S
C2662 C2663 1.372 . S
C2663 C2662 1.372 . S
C2663 C2664 1.400 . S
C2663 C2668 1.490 . S
C2664 H2654 0.930 . S
C2664 C2663 1.400 . S
C2664 C2667 1.386 . S
H2665 C2681 0.930 . S
H2666 C2682 0.931 . S
C2667 H2655 0.929 . S
C2667 C2661 1.390 . S
C2667 C2664 1.386 . S
C2668 C2663 1.490 . S
C2668 C2670 1.395 . S
C2668 C2671 1.403 . S
H2669 C2675 0.930 . S
C2670 H2656 0.930 . S
C2670 C2668 1.395 . S
C2670 C2673 1.403 . S
C2671 C2668 1.403 . S
C2671 C2672 1.524 . S
C2671 C2675 1.400 . S
C2672 H2657 0.960 . S
C2672 H2658 0.960 . S
C2672 H2659 0.960 . S
C2672 C2671 1.524 . S
C2673 C2670 1.403 . S
C2673 C2674 1.392 . S
C2673 C2677 1.495 . S
C2674 C2673 1.392 . S
C2674 C2675 1.385 . S
C2674 C2676 1.478 . S
C2675 H2669 0.930 . S
C2675 C2671 1.400 . S
C2675 C2674 1.385 . S
C2676 C2674 1.478 . S
C2676 C2678 1.381 . S
C2676 C2682 1.383 . S
C2677 C2673 1.495 . S
C2677 H2683 0.959 . S
C2677 H2684 0.961 . S
C2677 H2685 0.960 . S
C2678 C2676 1.381 . S
C2678 C2679 1.394 . S
C2678 H2686 0.930 . S
C2679 C2678 1.394 . S
C2679 C2680 1.383 . S
C2679 H2687 0.929 . S
C2680 C2679 1.383 . S
C2680 C2681 1.377 . S
C2681 H2665 0.930 . S
C2681 C2680 1.377 . S
C2681 C2682 1.379 . S
C2682 H2666 0.931 . S
C2682 C2676 1.383 . S
C2682 C2681 1.379 . S
H2683 C2677 0.959 . S
H2684 C2677 0.961 . S
H2685 C2677 0.960 . S
H2686 C2678 0.930 . S
H2687 C2679 0.929 . S
H2688 C2696 0.929 . S
H2689 C2698 0.930 . S
H2690 C2700 0.930 . S
H2691 C2703 0.929 . S
H2692 C2706 0.930 . S
H2693 C2708 0.960 . S
H2694 C2708 0.960 . S
H2695 C2708 0.960 . S
C2696 H2688 0.929 . S
C2696 C2697 1.377 . S
C2696 C2698 1.384 . S
C2697 C2696 1.377 . S
C2697 C2703 1.390 . S
C2698 H2689 0.930 . S
C2698 C2696 1.384 . S
C2698 C2699 1.372 . S
C2699 C2698 1.372 . S
C2699 C2700 1.400 . S
C2699 C2704 1.490 . S
C2700 H2690 0.930 . S
C2700 C2699 1.400 . S
C2700 C2703 1.386 . S
H2701 C2717 0.930 . S
H2702 C2718 0.931 . S
C2703 H2691 0.929 . S
C2703 C2697 1.390 . S
C2703 C2700 1.386 . S
C2704 C2699 1.490 . S
C2704 C2706 1.395 . S
C2704 C2707 1.403 . S
H2705 C2711 0.930 . S
C2706 H2692 0.930 . S
C2706 C2704 1.395 . S
C2706 C2709 1.403 . S
C2707 C2704 1.403 . S
C2707 C2708 1.524 . S
C2707 C2711 1.400 . S
C2708 H2693 0.960 . S
C2708 H2694 0.960 . S
C2708 H2695 0.960 . S
C2708 C2707 1.524 . S
C2709 C2706 1.403 . S
C2709 C2710 1.392 . S
C2709 C2713 1.495 . S
C2710 C2709 1.392 . S
C2710 C2711 1.385 . S
C2710 C2712 1.478 . S
C2711 H2705 0.930 . S
C2711 C2707 1.400 . S
C2711 C2710 1.385 . S
C2712 C2710 1.478 . S
C2712 C2714 1.381 . S
C2712 C2718 1.383 . S
C2713 C2709 1.495 . S
C2713 H2719 0.959 . S
C2713 H2720 0.961 . S
C2713 H2721 0.960 . S
C2714 C2712 1.381 . S
C2714 C2715 1.394 . S
C2714 H2722 0.930 . S
C2715 C2714 1.394 . S
C2715 C2716 1.383 . S
C2715 H2723 0.929 . S
C2716 C2715 1.383 . S
C2716 C2717 1.377 . S
C2717 H2701 0.930 . S
C2717 C2716 1.377 . S
C2717 C2718 1.379 . S
C2718 H2702 0.931 . S
C2718 C2712 1.383 . S
C2718 C2717 1.379 . S
H2719 C2713 0.959 . S
H2720 C2713 0.961 . S
H2721 C2713 0.960 . S
H2722 C2714 0.930 . S
H2723 C2715 0.929 . S
H2724 C2732 0.929 . S
H2725 C2734 0.930 . S
H2726 C2736 0.930 . S
H2727 C2739 0.929 . S
H2728 C2742 0.930 . S
H2729 C2744 0.960 . S
H2730 C2744 0.960 . S
H2731 C2744 0.960 . S
C2732 H2724 0.929 . S
C2732 C2733 1.377 . S
C2732 C2734 1.384 . S
C2733 C2732 1.377 . S
C2733 C2739 1.390 . S
C2734 H2725 0.930 . S
C2734 C2732 1.384 . S
C2734 C2735 1.372 . S
C2735 C2734 1.372 . S
C2735 C2736 1.400 . S
C2735 C2740 1.490 . S
C2736 H2726 0.930 . S
C2736 C2735 1.400 . S
C2736 C2739 1.386 . S
H2737 C2753 0.930 . S
H2738 C2754 0.931 . S
C2739 H2727 0.929 . S
C2739 C2733 1.390 . S
C2739 C2736 1.386 . S
C2740 C2735 1.490 . S
C2740 C2742 1.395 . S
C2740 C2743 1.403 . S
H2741 C2747 0.930 . S
C2742 H2728 0.930 . S
C2742 C2740 1.395 . S
C2742 C2745 1.403 . S
C2743 C2740 1.403 . S
C2743 C2744 1.524 . S
C2743 C2747 1.400 . S
C2744 H2729 0.960 . S
C2744 H2730 0.960 . S
C2744 H2731 0.960 . S
C2744 C2743 1.524 . S
C2745 C2742 1.403 . S
C2745 C2746 1.392 . S
C2745 C2749 1.495 . S
C2746 C2745 1.392 . S
C2746 C2747 1.385 . S
C2746 C2748 1.478 . S
C2747 H2741 0.930 . S
C2747 C2743 1.400 . S
C2747 C2746 1.385 . S
C2748 C2746 1.478 . S
C2748 C2750 1.381 . S
C2748 C2754 1.383 . S
C2749 C2745 1.495 . S
C2749 H2755 0.959 . S
C2749 H2756 0.961 . S
C2749 H2757 0.960 . S
C2750 C2748 1.381 . S
C2750 C2751 1.394 . S
C2750 H2758 0.930 . S
C2751 C2750 1.394 . S
C2751 C2752 1.383 . S
C2751 H2759 0.929 . S
C2752 C2751 1.383 . S
C2752 C2753 1.377 . S
C2753 H2737 0.930 . S
C2753 C2752 1.377 . S
C2753 C2754 1.379 . S
C2754 H2738 0.931 . S
C2754 C2748 1.383 . S
C2754 C2753 1.379 . S
H2755 C2749 0.959 . S
H2756 C2749 0.961 . S
H2757 C2749 0.960 . S
H2758 C2750 0.930 . S
H2759 C2751 0.929 . S
H2760 C2768 0.929 . S
H2761 C2770 0.930 . S
H2762 C2772 0.930 . S
H2763 C2775 0.929 . S
H2764 C2778 0.930 . S
H2765 C2780 0.960 . S
H2766 C2780 0.960 . S
H2767 C2780 0.960 . S
C2768 H2760 0.929 . S
C2768 C2769 1.377 . S
C2768 C2770 1.384 . S
C2769 C2768 1.377 . S
C2769 C2775 1.390 . S
C2770 H2761 0.930 . S
C2770 C2768 1.384 . S
C2770 C2771 1.372 . S
C2771 C2770 1.372 . S
C2771 C2772 1.400 . S
C2771 C2776 1.490 . S
C2772 H2762 0.930 . S
C2772 C2771 1.400 . S
C2772 C2775 1.386 . S
H2773 C2789 0.930 . S
H2774 C2790 0.931 . S
C2775 H2763 0.929 . S
C2775 C2769 1.390 . S
C2775 C2772 1.386 . S
C2776 C2771 1.490 . S
C2776 C2778 1.395 . S
C2776 C2779 1.403 . S
H2777 C2783 0.930 . S
C2778 H2764 0.930 . S
C2778 C2776 1.395 . S
C2778 C2781 1.403 . S
C2779 C2776 1.403 . S
C2779 C2780 1.524 . S
C2779 C2783 1.400 . S
C2780 H2765 0.960 . S
C2780 H2766 0.960 . S
C2780 H2767 0.960 . S
C2780 C2779 1.524 . S
C2781 C2778 1.403 . S
C2781 C2782 1.392 . S
C2781 C2785 1.495 . S
C2782 C2781 1.392 . S
C2782 C2783 1.385 . S
C2782 C2784 1.478 . S
C2783 H2777 0.930 . S
C2783 C2779 1.400 . S
C2783 C2782 1.385 . S
C2784 C2782 1.478 . S
C2784 C2786 1.381 . S
C2784 C2790 1.383 . S
C2785 C2781 1.495 . S
C2785 H2791 0.959 . S
C2785 H2792 0.961 . S
C2785 H2793 0.960 . S
C2786 C2784 1.381 . S
C2786 C2787 1.394 . S
C2786 H2794 0.930 . S
C2787 C2786 1.394 . S
C2787 C2788 1.383 . S
C2787 H2795 0.929 . S
C2788 C2787 1.383 . S
C2788 C2789 1.377 . S
C2789 H2773 0.930 . S
C2789 C2788 1.377 . S
C2789 C2790 1.379 . S
C2790 H2774 0.931 . S
C2790 C2784 1.383 . S
C2790 C2789 1.379 . S
H2791 C2785 0.959 . S
H2792 C2785 0.961 . S
H2793 C2785 0.960 . S
H2794 C2786 0.930 . S
H2795 C2787 0.929 . S
H2796 C2804 0.929 . S
H2797 C2806 0.930 . S
H2798 C2808 0.930 . S
H2799 C2811 0.929 . S
H2800 C2814 0.930 . S
H2801 C2816 0.960 . S
H2802 C2816 0.960 . S
H2803 C2816 0.960 . S
C2804 H2796 0.929 . S
C2804 C2805 1.377 . S
C2804 C2806 1.384 . S
C2805 C2804 1.377 . S
C2805 C2811 1.390 . S
C2806 H2797 0.930 . S
C2806 C2804 1.384 . S
C2806 C2807 1.372 . S
C2807 C2806 1.372 . S
C2807 C2808 1.400 . S
C2807 C2812 1.490 . S
C2808 H2798 0.930 . S
C2808 C2807 1.400 . S
C2808 C2811 1.386 . S
H2809 C2825 0.930 . S
H2810 C2826 0.931 . S
C2811 H2799 0.929 . S
C2811 C2805 1.390 . S
C2811 C2808 1.386 . S
C2812 C2807 1.490 . S
C2812 C2814 1.395 . S
C2812 C2815 1.403 . S
H2813 C2819 0.930 . S
C2814 H2800 0.930 . S
C2814 C2812 1.395 . S
C2814 C2817 1.403 . S
C2815 C2812 1.403 . S
C2815 C2816 1.524 . S
C2815 C2819 1.400 . S
C2816 H2801 0.960 . S
C2816 H2802 0.960 . S
C2816 H2803 0.960 . S
C2816 C2815 1.524 . S
C2817 C2814 1.403 . S
C2817 C2818 1.392 . S
C2817 C2821 1.495 . S
C2818 C2817 1.392 . S
C2818 C2819 1.385 . S
C2818 C2820 1.478 . S
C2819 H2813 0.930 . S
C2819 C2815 1.400 . S
C2819 C2818 1.385 . S
C2820 C2818 1.478 . S
C2820 C2822 1.381 . S
C2820 C2826 1.383 . S
C2821 C2817 1.495 . S
C2821 H2827 0.959 . S
C2821 H2828 0.961 . S
C2821 H2829 0.960 . S
C2822 C2820 1.381 . S
C2822 C2823 1.394 . S
C2822 H2830 0.930 . S
C2823 C2822 1.394 . S
C2823 C2824 1.383 . S
C2823 H2831 0.929 . S
C2824 C2823 1.383 . S
C2824 C2825 1.377 . S
C2825 H2809 0.930 . S
C2825 C2824 1.377 . S
C2825 C2826 1.379 . S
C2826 H2810 0.931 . S
C2826 C2820 1.383 . S
C2826 C2825 1.379 . S
H2827 C2821 0.959 . S
H2828 C2821 0.961 . S
H2829 C2821 0.960 . S
H2830 C2822 0.930 . S
H2831 C2823 0.929 . S
H2832 C2840 0.929 . S
H2833 C2842 0.930 . S
H2834 C2844 0.930 . S
H2835 C2847 0.929 . S
H2836 C2850 0.930 . S
H2837 C2852 0.960 . S
H2838 C2852 0.960 . S
H2839 C2852 0.960 . S
C2840 H2832 0.929 . S
C2840 C2841 1.377 . S
C2840 C2842 1.384 . S
C2841 C2840 1.377 . S
C2841 C2847 1.390 . S
C2842 H2833 0.930 . S
C2842 C2840 1.384 . S
C2842 C2843 1.372 . S
C2843 C2842 1.372 . S
C2843 C2844 1.400 . S
C2843 C2848 1.490 . S
C2844 H2834 0.930 . S
C2844 C2843 1.400 . S
C2844 C2847 1.386 . S
H2845 C2861 0.930 . S
H2846 C2862 0.931 . S
C2847 H2835 0.929 . S
C2847 C2841 1.390 . S
C2847 C2844 1.386 . S
C2848 C2843 1.490 . S
C2848 C2850 1.395 . S
C2848 C2851 1.403 . S
H2849 C2855 0.930 . S
C2850 H2836 0.930 . S
C2850 C2848 1.395 . S
C2850 C2853 1.403 . S
C2851 C2848 1.403 . S
C2851 C2852 1.524 . S
C2851 C2855 1.400 . S
C2852 H2837 0.960 . S
C2852 H2838 0.960 . S
C2852 H2839 0.960 . S
C2852 C2851 1.524 . S
C2853 C2850 1.403 . S
C2853 C2854 1.392 . S
C2853 C2857 1.495 . S
C2854 C2853 1.392 . S
C2854 C2855 1.385 . S
C2854 C2856 1.478 . S
C2855 H2849 0.930 . S
C2855 C2851 1.400 . S
C2855 C2854 1.385 . S
C2856 C2854 1.478 . S
C2856 C2858 1.381 . S
C2856 C2862 1.383 1_565 S
C2857 C2853 1.495 . S
C2857 H2863 0.959 . S
C2857 H2864 0.961 . S
C2857 H2865 0.960 . S
C2858 C2856 1.381 . S
C2858 C2859 1.394 . S
C2858 H2866 0.930 . S
C2859 C2858 1.394 . S
C2859 C2860 1.383 . S
C2859 H2867 0.929 . S
C2860 C2859 1.383 . S
C2860 C2861 1.377 1_565 S
C2861 H2845 0.930 . S
C2861 C2860 1.377 1_545 S
C2861 C2862 1.379 . S
C2862 H2846 0.931 . S
C2862 C2856 1.383 1_545 S
C2862 C2861 1.379 . S
H2863 C2857 0.959 . S
H2864 C2857 0.961 . S
H2865 C2857 0.960 . S
H2866 C2858 0.930 . S
H2867 C2859 0.929 . S
H2868 C2876 0.929 . S
H2869 C2878 0.930 . S
H2870 C2880 0.930 . S
H2871 C2883 0.929 . S
H2872 C2886 0.930 . S
H2873 C2888 0.953 1_545 S
H2874 C2888 0.960 . S
H2875 C2888 0.960 1_545 S
C2876 H2868 0.929 . S
C2876 C2877 1.377 . S
C2876 C2878 1.384 . S
C2877 C2876 1.377 . S
C2877 C2883 1.390 1_565 S
C2878 H2869 0.930 . S
C2878 C2876 1.384 . S
C2878 C2879 1.372 . S
C2879 C2878 1.372 . S
C2879 C2880 1.400 1_565 S
C2879 C2884 1.490 . S
C2880 H2870 0.930 . S
C2880 C2879 1.400 1_545 S
C2880 C2883 1.386 . S
H2881 C2897 0.930 . S
H2882 C2898 0.931 . S
C2883 H2871 0.929 . S
C2883 C2877 1.390 1_545 S
C2883 C2880 1.386 . S
C2884 C2879 1.490 . S
C2884 C2886 1.395 . S
C2884 C2887 1.403 . S
H2885 C2891 0.930 . S
C2886 H2872 0.930 . S
C2886 C2884 1.395 . S
C2886 C2889 1.403 . S
C2887 C2884 1.403 . S
C2887 C2888 1.524 . S
C2887 C2891 1.400 . S
C2888 H2873 0.953 1_565 S
C2888 H2874 0.960 . S
C2888 H2875 0.960 1_565 S
C2888 C2887 1.524 . S
C2889 C2886 1.403 . S
C2889 C2890 1.392 . S
C2889 C2893 1.495 . S
C2890 C2889 1.392 . S
C2890 C2891 1.385 . S
C2890 C2892 1.478 . S
C2891 H2885 0.930 . S
C2891 C2887 1.400 . S
C2891 C2890 1.385 . S
C2892 C2890 1.478 . S
C2892 C2894 1.381 . S
C2892 C2898 1.383 1_565 S
C2893 C2889 1.495 . S
C2893 H2899 0.959 . S
C2893 H2900 0.961 . S
C2893 H2901 0.960 . S
C2894 C2892 1.381 . S
C2894 C2895 1.394 . S
C2894 H2902 0.930 . S
C2895 C2894 1.394 . S
C2895 C2896 1.383 . S
C2895 H2903 0.929 . S
C2896 C2895 1.383 . S
C2896 C2897 1.377 1_565 S
C2897 H2881 0.930 . S
C2897 C2896 1.377 1_545 S
C2897 C2898 1.379 . S
C2898 H2882 0.931 . S
C2898 C2892 1.383 1_545 S
C2898 C2897 1.379 . S
H2899 C2893 0.959 . S
H2900 C2893 0.961 . S
H2901 C2893 0.960 . S
H2902 C2894 0.930 . S
H2903 C2895 0.929 . S
H2904 C2912 0.929 . S
H2905 C2914 0.930 . S
H2906 C2916 0.930 . S
H2907 C2919 0.929 . S
H2908 C2922 0.930 . S
H2909 C2924 0.960 . S
H2910 C2924 0.960 . S
H2911 C2924 0.960 . S
C2912 H2904 0.929 . S
C2912 C2913 1.377 . S
C2912 C2914 1.384 . S
C2913 C2912 1.377 . S
C2913 C2919 1.390 . S
C2914 H2905 0.930 . S
C2914 C2912 1.384 . S
C2914 C2915 1.372 . S
C2915 C2914 1.372 . S
C2915 C2916 1.400 . S
C2915 C2920 1.490 . S
C2916 H2906 0.930 . S
C2916 C2915 1.400 . S
C2916 C2919 1.386 . S
H2917 C2933 0.930 . S
H2918 C2934 0.931 . S
C2919 H2907 0.929 . S
C2919 C2913 1.390 . S
C2919 C2916 1.386 . S
C2920 C2915 1.490 . S
C2920 C2922 1.395 . S
C2920 C2923 1.403 . S
H2921 C2927 0.930 . S
C2922 H2908 0.930 . S
C2922 C2920 1.395 . S
C2922 C2925 1.403 . S
C2923 C2920 1.403 . S
C2923 C2924 1.524 . S
C2923 C2927 1.400 . S
C2924 H2909 0.960 . S
C2924 H2910 0.960 . S
C2924 H2911 0.960 . S
C2924 C2923 1.524 . S
C2925 C2922 1.403 . S
C2925 C2926 1.392 . S
C2925 C2929 1.495 . S
C2926 C2925 1.392 . S
C2926 C2927 1.385 . S
C2926 C2928 1.478 . S
C2927 H2921 0.930 . S
C2927 C2923 1.400 . S
C2927 C2926 1.385 . S
C2928 C2926 1.478 . S
C2928 C2930 1.381 . S
C2928 C2934 1.383 . S
C2929 C2925 1.495 . S
C2929 H2935 0.959 . S
C2929 H2936 0.961 . S
C2929 H2937 0.960 . S
C2930 C2928 1.381 . S
C2930 C2931 1.394 . S
C2930 H2938 0.930 . S
C2931 C2930 1.394 . S
C2931 C2932 1.383 . S
C2931 H2939 0.929 . S
C2932 C2931 1.383 . S
C2932 C2933 1.377 . S
C2933 H2917 0.930 . S
C2933 C2932 1.377 . S
C2933 C2934 1.379 . S
C2934 H2918 0.931 . S
C2934 C2928 1.383 . S
C2934 C2933 1.379 . S
H2935 C2929 0.959 . S
H2936 C2929 0.961 . S
H2937 C2929 0.960 . S
H2938 C2930 0.930 . S
H2939 C2931 0.929 . S
H2940 C2948 0.929 . S
H2941 C2950 0.930 . S
H2942 C2952 0.930 . S
H2943 C2955 0.929 . S
H2944 C2958 0.930 . S
H2945 C2960 0.960 . S
H2946 C2960 0.957 . S
H2947 C2960 0.963 1_556 S
C2948 H2940 0.929 . S
C2948 C2949 1.377 1_554 S
C2948 C2950 1.384 . S
C2949 C2948 1.377 1_556 S
C2949 C2955 1.390 . S
C2950 H2941 0.930 . S
C2950 C2948 1.384 . S
C2950 C2951 1.372 1_554 S
C2951 C2950 1.372 1_556 S
C2951 C2952 1.400 . S
C2951 C2956 1.490 . S
C2952 H2942 0.930 . S
C2952 C2951 1.400 . S
C2952 C2955 1.386 . S
H2953 C2969 0.930 . S
H2954 C2970 0.931 . S
C2955 H2943 0.929 . S
C2955 C2949 1.390 . S
C2955 C2952 1.386 . S
C2956 C2951 1.490 . S
C2956 C2958 1.395 . S
C2956 C2959 1.403 . S
H2957 C2963 0.930 . S
C2958 H2944 0.930 . S
C2958 C2956 1.395 . S
C2958 C2961 1.403 . S
C2959 C2956 1.403 . S
C2959 C2960 1.525 1_556 S
C2959 C2963 1.400 . S
C2960 H2945 0.960 . S
C2960 H2946 0.957 . S
C2960 H2947 0.963 1_554 S
C2960 C2959 1.525 1_554 S
C2961 C2958 1.403 . S
C2961 C2962 1.392 . S
C2961 C2965 1.495 . S
C2962 C2961 1.392 . S
C2962 C2963 1.385 . S
C2962 C2964 1.478 . S
C2963 H2957 0.930 . S
C2963 C2959 1.400 . S
C2963 C2962 1.385 . S
C2964 C2962 1.478 . S
C2964 C2966 1.333 1_556 S
C2964 C2970 1.383 . S
C2965 C2961 1.495 . S
C2965 H2971 0.959 . S
C2965 H2972 0.961 . S
C2965 H2973 0.960 . S
C2966 C2964 1.333 1_554 S
C2966 C2967 1.394 . S
C2966 H2974 0.981 . S
C2967 C2966 1.394 . S
C2967 C2968 1.340 1_554 S
C2967 H2975 0.974 . S
C2968 C2967 1.340 1_556 S
C2968 C2969 1.377 . S
C2969 H2953 0.930 . S
C2969 C2968 1.377 . S
C2969 C2970 1.379 . S
C2970 H2954 0.931 . S
C2970 C2964 1.383 . S
C2970 C2969 1.379 . S
H2971 C2965 0.959 . S
H2972 C2965 0.961 . S
H2973 C2965 0.960 . S
H2974 C2966 0.981 . S
H2975 C2967 0.974 . S
H2976 C2984 0.929 . S
H2977 C2986 0.930 . S
H2978 C2988 0.930 . S
H2979 C2991 0.929 . S
H2980 C2994 0.930 . S
H2981 C2996 0.960 . S
H2982 C2996 0.960 . S
H2983 C2996 0.960 . S
C2984 H2976 0.929 . S
C2984 C2985 1.377 . S
C2984 C2986 1.384 . S
C2985 C2984 1.377 . S
C2985 C2991 1.390 . S
C2986 H2977 0.930 . S
C2986 C2984 1.384 . S
C2986 C2987 1.372 . S
C2987 C2986 1.372 . S
C2987 C2988 1.400 . S
C2987 C2992 1.490 . S
C2988 H2978 0.930 . S
C2988 C2987 1.400 . S
C2988 C2991 1.386 . S
H2989 C3005 0.930 . S
H2990 C3006 0.931 . S
C2991 H2979 0.929 . S
C2991 C2985 1.390 . S
C2991 C2988 1.386 . S
C2992 C2987 1.490 . S
C2992 C2994 1.395 . S
C2992 C2995 1.403 . S
H2993 C2999 0.930 . S
C2994 H2980 0.930 . S
C2994 C2992 1.395 . S
C2994 C2997 1.403 . S
C2995 C2992 1.403 . S
C2995 C2996 1.524 . S
C2995 C2999 1.400 . S
C2996 H2981 0.960 . S
C2996 H2982 0.960 . S
C2996 H2983 0.960 . S
C2996 C2995 1.524 . S
C2997 C2994 1.403 . S
C2997 C2998 1.392 . S
C2997 C3001 1.495 . S
C2998 C2997 1.392 . S
C2998 C2999 1.385 . S
C2998 C3000 1.478 . S
C2999 H2993 0.930 . S
C2999 C2995 1.400 . S
C2999 C2998 1.385 . S
C3000 C2998 1.478 . S
C3000 C3002 1.381 . S
C3000 C3006 1.383 . S
C3001 C2997 1.495 . S
C3001 H3007 0.959 . S
C3001 H3008 0.961 . S
C3001 H3009 0.960 . S
C3002 C3000 1.381 . S
C3002 C3003 1.394 . S
C3002 H3010 0.930 . S
C3003 C3002 1.394 . S
C3003 C3004 1.383 . S
C3003 H3011 0.929 . S
C3004 C3003 1.383 . S
C3004 C3005 1.377 . S
C3005 H2989 0.930 . S
C3005 C3004 1.377 . S
C3005 C3006 1.379 . S
C3006 H2990 0.931 . S
C3006 C3000 1.383 . S
C3006 C3005 1.379 . S
H3007 C3001 0.959 . S
H3008 C3001 0.961 . S
H3009 C3001 0.960 . S
H3010 C3002 0.930 . S
H3011 C3003 0.929 . S
H3012 C3020 0.929 . S
H3013 C3022 0.930 . S
H3014 C3024 0.930 . S
H3015 C3027 0.929 . S
H3016 C3030 0.930 . S
H3017 C3032 0.960 . S
H3018 C3032 0.960 . S
H3019 C3032 0.960 . S
C3020 H3012 0.929 . S
C3020 C3021 1.377 . S
C3020 C3022 1.384 . S
C3021 C3020 1.377 . S
C3021 C3027 1.390 . S
C3022 H3013 0.930 . S
C3022 C3020 1.384 . S
C3022 C3023 1.372 . S
C3023 C3022 1.372 . S
C3023 C3024 1.400 . S
C3023 C3028 1.490 . S
C3024 H3014 0.930 . S
C3024 C3023 1.400 . S
C3024 C3027 1.386 . S
H3025 C3041 0.930 . S
H3026 C3042 0.931 . S
C3027 H3015 0.929 . S
C3027 C3021 1.390 . S
C3027 C3024 1.386 . S
C3028 C3023 1.490 . S
C3028 C3030 1.395 . S
C3028 C3031 1.403 . S
H3029 C3035 0.930 1_554 S
C3030 H3016 0.930 . S
C3030 C3028 1.395 . S
C3030 C3033 1.403 . S
C3031 C3028 1.403 . S
C3031 C3032 1.524 1_556 S
C3031 C3035 1.400 . S
C3032 H3017 0.960 . S
C3032 H3018 0.960 . S
C3032 H3019 0.960 . S
C3032 C3031 1.524 1_554 S
C3033 C3030 1.403 . S
C3033 C3034 1.392 . S
C3033 C3037 1.495 . S
C3034 C3033 1.392 . S
C3034 C3035 1.385 . S
C3034 C3036 1.478 . S
C3035 H3029 0.930 1_556 S
C3035 C3031 1.400 . S
C3035 C3034 1.385 . S
C3036 C3034 1.478 . S
C3036 C3038 1.381 . S
C3036 C3042 1.383 . S
C3037 C3033 1.495 . S
C3037 H3043 0.959 . S
C3037 H3044 0.961 . S
C3037 H3045 0.960 . S
C3038 C3036 1.381 . S
C3038 C3039 1.394 . S
C3038 H3046 0.930 . S
C3039 C3038 1.394 . S
C3039 C3040 1.383 . S
C3039 H3047 0.929 . S
C3040 C3039 1.383 . S
C3040 C3041 1.377 . S
C3041 H3025 0.930 . S
C3041 C3040 1.377 . S
C3041 C3042 1.379 . S
C3042 H3026 0.931 . S
C3042 C3036 1.383 . S
C3042 C3041 1.379 . S
H3043 C3037 0.959 . S
H3044 C3037 0.961 . S
H3045 C3037 0.960 . S
H3046 C3038 0.930 . S
H3047 C3039 0.929 . S
H3048 C3056 0.929 . S
H3049 C3058 0.930 . S
H3050 C3060 0.930 . S
H3051 C3063 0.929 . S
H3052 C3066 0.930 . S
H3053 C3068 0.960 . S
H3054 C3068 0.960 . S
H3055 C3068 0.960 . S
C3056 H3048 0.929 . S
C3056 C3057 1.377 . S
C3056 C3058 1.384 . S
C3057 C3056 1.377 . S
C3057 C3063 1.390 . S
C3058 H3049 0.930 . S
C3058 C3056 1.384 . S
C3058 C3059 1.372 . S
C3059 C3058 1.372 . S
C3059 C3060 1.400 . S
C3059 C3064 1.490 . S
C3060 H3050 0.930 . S
C3060 C3059 1.400 . S
C3060 C3063 1.386 . S
H3061 C3077 0.930 . S
H3062 C3078 0.931 . S
C3063 H3051 0.929 . S
C3063 C3057 1.390 . S
C3063 C3060 1.386 . S
C3064 C3059 1.490 . S
C3064 C3066 1.395 . S
C3064 C3067 1.403 . S
H3065 C3071 0.930 . S
C3066 H3052 0.930 . S
C3066 C3064 1.395 . S
C3066 C3069 1.403 . S
C3067 C3064 1.403 . S
C3067 C3068 1.524 . S
C3067 C3071 1.400 . S
C3068 H3053 0.960 . S
C3068 H3054 0.960 . S
C3068 H3055 0.960 . S
C3068 C3067 1.524 . S
C3069 C3066 1.403 . S
C3069 C3070 1.392 . S
C3069 C3073 1.495 . S
C3070 C3069 1.392 . S
C3070 C3071 1.385 . S
C3070 C3072 1.478 . S
C3071 H3065 0.930 . S
C3071 C3067 1.400 . S
C3071 C3070 1.385 . S
C3072 C3070 1.478 . S
C3072 C3074 1.381 . S
C3072 C3078 1.383 . S
C3073 C3069 1.495 . S
C3073 H3079 0.959 . S
C3073 H3080 0.961 . S
C3073 H3081 0.960 . S
C3074 C3072 1.381 . S
C3074 C3075 1.394 . S
C3074 H3082 0.930 . S
C3075 C3074 1.394 . S
C3075 C3076 1.383 . S
C3075 H3083 0.929 . S
C3076 C3075 1.383 . S
C3076 C3077 1.377 . S
C3077 H3061 0.930 . S
C3077 C3076 1.377 . S
C3077 C3078 1.379 . S
C3078 H3062 0.931 . S
C3078 C3072 1.383 . S
C3078 C3077 1.379 . S
H3079 C3073 0.959 . S
H3080 C3073 0.961 . S
H3081 C3073 0.960 . S
H3082 C3074 0.930 . S
H3083 C3075 0.929 . S
H3084 C3092 0.929 . S
H3085 C3094 0.930 . S
H3086 C3096 0.930 . S
H3087 C3099 0.929 . S
H3088 C3102 0.930 . S
H3089 C3104 0.960 . S
H3090 C3104 0.960 . S
H3091 C3104 0.960 . S
C3092 H3084 0.929 . S
C3092 C3093 1.377 1_455 S
C3092 C3094 1.384 . S
C3093 C3092 1.377 1_655 S
C3093 C3099 1.390 . S
C3094 H3085 0.930 . S
C3094 C3092 1.384 . S
C3094 C3095 1.372 1_455 S
C3095 C3094 1.372 1_655 S
C3095 C3096 1.400 . S
C3095 C3100 1.490 . S
C3096 H3086 0.930 . S
C3096 C3095 1.400 . S
C3096 C3099 1.386 . S
H3097 C3113 0.930 . S
H3098 C3114 0.931 . S
C3099 H3087 0.929 . S
C3099 C3093 1.390 . S
C3099 C3096 1.386 . S
C3100 C3095 1.490 . S
C3100 C3102 1.395 1_655 S
C3100 C3103 1.403 . S
H3101 C3107 0.930 . S
C3102 H3088 0.930 . S
C3102 C3100 1.395 1_455 S
C3102 C3105 1.403 . S
C3103 C3100 1.403 . S
C3103 C3104 1.524 . S
C3103 C3107 1.400 . S
C3104 H3089 0.960 . S
C3104 H3090 0.960 . S
C3104 H3091 0.960 . S
C3104 C3103 1.524 . S
C3105 C3102 1.403 . S
C3105 C3106 1.392 1_455 S
C3105 C3109 1.495 . S
C3106 C3105 1.392 1_655 S
C3106 C3107 1.385 . S
C3106 C3108 1.478 . S
C3107 H3101 0.930 . S
C3107 C3103 1.400 . S
C3107 C3106 1.385 . S
C3108 C3106 1.478 . S
C3108 C3110 1.381 1_655 S
C3108 C3114 1.383 . S
C3109 C3105 1.495 . S
C3109 H3115 0.959 . S
C3109 H3116 0.961 . S
C3109 H3117 0.960 . S
C3110 C3108 1.381 1_455 S
C3110 C3111 1.394 . S
C3110 H3118 0.930 . S
C3111 C3110 1.394 . S
C3111 C3112 1.383 1_455 S
C3111 H3119 0.929 . S
C3112 C3111 1.383 1_655 S
C3112 C3113 1.377 . S
C3113 H3097 0.930 . S
C3113 C3112 1.377 . S
C3113 C3114 1.379 . S
C3114 H3098 0.931 . S
C3114 C3108 1.383 . S
C3114 C3113 1.379 . S
H3115 C3109 0.959 . S
H3116 C3109 0.961 . S
H3117 C3109 0.960 . S
H3118 C3110 0.930 . S
H3119 C3111 0.929 . S
H3120 C3128 0.929 . S
H3121 C3130 0.930 . S
H3122 C3132 0.930 . S
H3123 C3135 0.929 . S
H3124 C3138 0.930 . S
H3125 C3140 0.960 . S
H3126 C3140 0.960 . S
H3127 C3140 0.960 . S
C3128 H3120 0.929 . S
C3128 C3129 1.377 . S
C3128 C3130 1.384 . S
C3129 C3128 1.377 . S
C3129 C3135 1.390 . S
C3130 H3121 0.930 . S
C3130 C3128 1.384 . S
C3130 C3131 1.372 . S
C3131 C3130 1.372 . S
C3131 C3132 1.400 . S
C3131 C3136 1.490 . S
C3132 H3122 0.930 . S
C3132 C3131 1.400 . S
C3132 C3135 1.386 . S
H3133 C3149 0.930 . S
H3134 C3150 0.931 . S
C3135 H3123 0.929 . S
C3135 C3129 1.390 . S
C3135 C3132 1.386 . S
C3136 C3131 1.490 . S
C3136 C3138 1.395 . S
C3136 C3139 1.403 . S
H3137 C3143 0.930 . S
C3138 H3124 0.930 . S
C3138 C3136 1.395 . S
C3138 C3141 1.403 . S
C3139 C3136 1.403 . S
C3139 C3140 1.524 . S
C3139 C3143 1.400 . S
C3140 H3125 0.960 . S
C3140 H3126 0.960 . S
C3140 H3127 0.960 . S
C3140 C3139 1.524 . S
C3141 C3138 1.403 . S
C3141 C3142 1.392 . S
C3141 C3145 1.495 . S
C3142 C3141 1.392 . S
C3142 C3143 1.385 . S
C3142 C3144 1.478 . S
C3143 H3137 0.930 . S
C3143 C3139 1.400 . S
C3143 C3142 1.385 . S
C3144 C3142 1.478 . S
C3144 C3146 1.381 . S
C3144 C3150 1.383 . S
C3145 C3141 1.495 . S
C3145 H3151 0.959 . S
C3145 H3152 0.961 . S
C3145 H3153 0.960 . S
C3146 C3144 1.381 . S
C3146 C3147 1.394 . S
C3146 H3154 0.930 . S
C3147 C3146 1.394 . S
C3147 C3148 1.383 . S
C3147 H3155 0.929 . S
C3148 C3147 1.383 . S
C3148 C3149 1.377 . S
C3149 H3133 0.930 . S
C3149 C3148 1.377 . S
C3149 C3150 1.379 . S
C3150 H3134 0.931 . S
C3150 C3144 1.383 . S
C3150 C3149 1.379 . S
H3151 C3145 0.959 . S
H3152 C3145 0.961 . S
H3153 C3145 0.960 . S
H3154 C3146 0.930 . S
H3155 C3147 0.929 . S
H3156 C3164 0.929 . S
H3157 C3166 0.930 . S
H3158 C3168 0.930 . S
H3159 C3171 0.929 . S
H3160 C3174 0.930 . S
H3161 C3176 0.960 . S
H3162 C3176 0.960 . S
H3163 C3176 0.960 . S
C3164 H3156 0.929 . S
C3164 C3165 1.377 . S
C3164 C3166 1.384 . S
C3165 C3164 1.377 . S
C3165 C3171 1.390 . S
C3166 H3157 0.930 . S
C3166 C3164 1.384 . S
C3166 C3167 1.372 . S
C3167 C3166 1.372 . S
C3167 C3168 1.400 . S
C3167 C3172 1.490 . S
C3168 H3158 0.930 . S
C3168 C3167 1.400 . S
C3168 C3171 1.386 . S
H3169 C3185 0.980 . S
H3170 C3186 0.943 . S
C3171 H3159 0.929 . S
C3171 C3165 1.390 . S
C3171 C3168 1.386 . S
C3172 C3167 1.490 . S
C3172 C3174 1.395 . S
C3172 C3175 1.403 . S
H3173 C3179 0.930 1_455 S
C3174 H3160 0.930 . S
C3174 C3172 1.395 . S
C3174 C3177 1.403 . S
C3175 C3172 1.403 . S
C3175 C3176 1.524 1_655 S
C3175 C3179 1.400 . S
C3176 H3161 0.960 . S
C3176 H3162 0.960 . S
C3176 H3163 0.960 . S
C3176 C3175 1.524 1_455 S
C3177 C3174 1.403 . S
C3177 C3178 1.392 . S
C3177 C3181 1.495 . S
C3178 C3177 1.392 . S
C3178 C3179 1.385 . S
C3178 C3180 1.478 . S
C3179 H3173 0.930 1_655 S
C3179 C3175 1.400 . S
C3179 C3178 1.385 . S
C3180 C3178 1.478 . S
C3180 C3182 1.381 . S
C3180 C3186 1.383 . S
C3181 C3177 1.495 . S
C3181 H3187 0.959 . S
C3181 H3188 0.961 . S
C3181 H3189 0.960 . S
C3182 C3180 1.381 . S
C3182 C3183 1.394 . S
C3182 H3190 0.930 . S
C3183 C3182 1.394 . S
C3183 C3184 1.383 . S
C3183 H3191 0.929 . S
C3184 C3183 1.383 . S
C3184 C3185 1.356 1_655 S
C3185 H3169 0.980 . S
C3185 C3184 1.356 1_455 S
C3185 C3186 1.357 1_455 S
C3186 H3170 0.943 . S
C3186 C3180 1.383 . S
C3186 C3185 1.357 1_655 S
H3187 C3181 0.959 . S
H3188 C3181 0.961 . S
H3189 C3181 0.960 . S
H3190 C3182 0.930 . S
H3191 C3183 0.929 . S
H3192 C3200 0.929 . S
H3193 C3202 0.930 . S
H3194 C3204 0.930 . S
H3195 C3207 0.929 . S
H3196 C3210 0.930 . S
H3197 C3212 0.960 . S
H3198 C3212 0.960 . S
H3199 C3212 0.960 . S
C3200 H3192 0.929 . S
C3200 C3201 1.377 . S
C3200 C3202 1.384 . S
C3201 C3200 1.377 . S
C3201 C3207 1.390 . S
C3202 H3193 0.930 . S
C3202 C3200 1.384 . S
C3202 C3203 1.372 . S
C3203 C3202 1.372 . S
C3203 C3204 1.400 . S
C3203 C3208 1.490 . S
C3204 H3194 0.930 . S
C3204 C3203 1.400 . S
C3204 C3207 1.386 . S
H3205 C3221 0.930 . S
H3206 C3222 0.931 . S
C3207 H3195 0.929 . S
C3207 C3201 1.390 . S
C3207 C3204 1.386 . S
C3208 C3203 1.490 . S
C3208 C3210 1.395 . S
C3208 C3211 1.403 . S
H3209 C3215 0.930 . S
C3210 H3196 0.930 . S
C3210 C3208 1.395 . S
C3210 C3213 1.403 . S
C3211 C3208 1.403 . S
C3211 C3212 1.524 . S
C3211 C3215 1.400 . S
C3212 H3197 0.960 . S
C3212 H3198 0.960 . S
C3212 H3199 0.960 . S
C3212 C3211 1.524 . S
C3213 C3210 1.403 . S
C3213 C3214 1.392 . S
C3213 C3217 1.495 . S
C3214 C3213 1.392 . S
C3214 C3215 1.385 . S
C3214 C3216 1.478 . S
C3215 H3209 0.930 . S
C3215 C3211 1.400 . S
C3215 C3214 1.385 . S
C3216 C3214 1.478 . S
C3216 C3218 1.381 . S
C3216 C3222 1.383 . S
C3217 C3213 1.495 . S
C3217 H3223 0.959 . S
C3217 H3224 0.961 . S
C3217 H3225 0.960 . S
C3218 C3216 1.381 . S
C3218 C3219 1.394 . S
C3218 H3226 0.930 . S
C3219 C3218 1.394 . S
C3219 C3220 1.383 . S
C3219 H3227 0.929 . S
C3220 C3219 1.383 . S
C3220 C3221 1.377 . S
C3221 H3205 0.930 . S
C3221 C3220 1.377 . S
C3221 C3222 1.379 . S
C3222 H3206 0.931 . S
C3222 C3216 1.383 . S
C3222 C3221 1.379 . S
H3223 C3217 0.959 . S
H3224 C3217 0.961 . S
H3225 C3217 0.960 . S
H3226 C3218 0.930 . S
H3227 C3219 0.929 . S
H3228 C3236 0.929 . S
H3229 C3238 0.930 . S
H3230 C3240 0.930 . S
H3231 C3243 0.929 . S
H3232 C3246 0.930 . S
H3233 C3248 0.960 . S
H3234 C3248 0.960 . S
H3235 C3248 0.960 . S
C3236 H3228 0.929 . S
C3236 C3237 1.377 . S
C3236 C3238 1.384 . S
C3237 C3236 1.377 . S
C3237 C3243 1.390 . S
C3238 H3229 0.930 . S
C3238 C3236 1.384 . S
C3238 C3239 1.372 . S
C3239 C3238 1.372 . S
C3239 C3240 1.400 . S
C3239 C3244 1.490 . S
C3240 H3230 0.930 . S
C3240 C3239 1.400 . S
C3240 C3243 1.386 . S
H3241 C3257 0.930 . S
H3242 C3258 0.931 . S
C3243 H3231 0.929 . S
C3243 C3237 1.390 . S
C3243 C3240 1.386 . S
C3244 C3239 1.490 . S
C3244 C3246 1.395 . S
C3244 C3247 1.403 . S
H3245 C3251 0.930 . S
C3246 H3232 0.930 . S
C3246 C3244 1.395 . S
C3246 C3249 1.403 . S
C3247 C3244 1.403 . S
C3247 C3248 1.524 . S
C3247 C3251 1.400 . S
C3248 H3233 0.960 . S
C3248 H3234 0.960 . S
C3248 H3235 0.960 . S
C3248 C3247 1.524 . S
C3249 C3246 1.403 . S
C3249 C3250 1.392 . S
C3249 C3253 1.495 . S
C3250 C3249 1.392 . S
C3250 C3251 1.385 . S
C3250 C3252 1.478 . S
C3251 H3245 0.930 . S
C3251 C3247 1.400 . S
C3251 C3250 1.385 . S
C3252 C3250 1.478 . S
C3252 C3254 1.381 . S
C3252 C3258 1.383 . S
C3253 C3249 1.495 . S
C3253 H3259 0.959 . S
C3253 H3260 0.961 . S
C3253 H3261 0.960 . S
C3254 C3252 1.381 . S
C3254 C3255 1.394 . S
C3254 H3262 0.930 . S
C3255 C3254 1.394 . S
C3255 C3256 1.383 . S
C3255 H3263 0.929 . S
C3256 C3255 1.383 . S
C3256 C3257 1.377 . S
C3257 H3241 0.930 . S
C3257 C3256 1.377 . S
C3257 C3258 1.379 . S
C3258 H3242 0.931 . S
C3258 C3252 1.383 . S
C3258 C3257 1.379 . S
H3259 C3253 0.959 . S
H3260 C3253 0.961 . S
H3261 C3253 0.960 . S
H3262 C3254 0.930 . S
H3263 C3255 0.929 . S
H3264 C3272 0.929 . S
H3265 C3274 0.930 . S
H3266 C3276 0.930 . S
H3267 C3279 0.929 . S
H3268 C3282 0.930 . S
H3269 C3284 0.960 . S
H3270 C3284 0.960 . S
H3271 C3284 0.960 . S
C3272 H3264 0.929 . S
C3272 C3273 1.377 . S
C3272 C3274 1.384 . S
C3273 C3272 1.377 . S
C3273 C3279 1.390 . S
C3274 H3265 0.930 . S
C3274 C3272 1.384 . S
C3274 C3275 1.372 . S
C3275 C3274 1.372 . S
C3275 C3276 1.400 . S
C3275 C3280 1.490 . S
C3276 H3266 0.930 . S
C3276 C3275 1.400 . S
C3276 C3279 1.386 . S
H3277 C3293 0.930 . S
H3278 C3294 0.931 . S
C3279 H3267 0.929 . S
C3279 C3273 1.390 . S
C3279 C3276 1.386 . S
C3280 C3275 1.490 . S
C3280 C3282 1.395 . S
C3280 C3283 1.403 . S
H3281 C3287 0.930 . S
C3282 H3268 0.930 . S
C3282 C3280 1.395 . S
C3282 C3285 1.403 . S
C3283 C3280 1.403 . S
C3283 C3284 1.524 . S
C3283 C3287 1.400 . S
C3284 H3269 0.960 . S
C3284 H3270 0.960 . S
C3284 H3271 0.960 . S
C3284 C3283 1.524 . S
C3285 C3282 1.403 . S
C3285 C3286 1.392 . S
C3285 C3289 1.495 . S
C3286 C3285 1.392 . S
C3286 C3287 1.385 . S
C3286 C3288 1.478 . S
C3287 H3281 0.930 . S
C3287 C3283 1.400 . S
C3287 C3286 1.385 . S
C3288 C3286 1.478 . S
C3288 C3290 1.381 1_545 S
C3288 C3294 1.383 . S
C3289 C3285 1.495 . S
C3289 H3295 0.959 . S
C3289 H3296 0.961 . S
C3289 H3297 0.960 . S
C3290 C3288 1.381 1_565 S
C3290 C3291 1.394 . S
C3290 H3298 0.930 . S
C3291 C3290 1.394 . S
C3291 C3292 1.383 1_565 S
C3291 H3299 0.929 . S
C3292 C3291 1.383 1_545 S
C3292 C3293 1.377 . S
C3293 H3277 0.930 . S
C3293 C3292 1.377 . S
C3293 C3294 1.379 . S
C3294 H3278 0.931 . S
C3294 C3288 1.383 . S
C3294 C3293 1.379 . S
H3295 C3289 0.959 . S
H3296 C3289 0.961 . S
H3297 C3289 0.960 . S
H3298 C3290 0.930 . S
H3299 C3291 0.929 . S
H3300 C3308 0.929 . S
H3301 C3310 0.930 . S
H3302 C3312 0.930 . S
H3303 C3315 0.929 . S
H3304 C3318 0.973 . S
H3305 C3320 0.960 . S
H3306 C3320 0.960 . S
H3307 C3320 0.960 . S
C3308 H3300 0.929 . S
C3308 C3309 1.377 1_565 S
C3308 C3310 1.384 . S
C3309 C3308 1.377 1_545 S
C3309 C3315 1.390 . S
C3310 H3301 0.930 . S
C3310 C3308 1.384 . S
C3310 C3311 1.372 1_565 S
C3311 C3310 1.372 1_545 S
C3311 C3312 1.400 . S
C3311 C3316 1.490 . S
C3312 H3302 0.930 . S
C3312 C3311 1.400 . S
C3312 C3315 1.386 . S
H3313 C3329 0.930 . S
H3314 C3330 0.931 . S
C3315 H3303 0.929 . S
C3315 C3309 1.390 . S
C3315 C3312 1.386 . S
C3316 C3311 1.490 . S
C3316 C3318 1.356 1_545 S
C3316 C3319 1.403 . S
H3317 C3323 0.930 . S
C3318 H3304 0.973 . S
C3318 C3316 1.356 1_565 S
C3318 C3321 1.407 . S
C3319 C3316 1.403 . S
C3319 C3320 1.524 . S
C3319 C3323 1.400 . S
C3320 H3305 0.960 . S
C3320 H3306 0.960 . S
C3320 H3307 0.960 . S
C3320 C3319 1.524 . S
C3321 C3318 1.407 . S
C3321 C3322 1.392 1_565 S
C3321 C3325 1.495 . S
C3322 C3321 1.392 1_545 S
C3322 C3323 1.385 . S
C3322 C3324 1.478 . S
C3323 H3317 0.930 . S
C3323 C3319 1.400 . S
C3323 C3322 1.385 . S
C3324 C3322 1.478 . S
C3324 C3326 1.381 1_545 S
C3324 C3330 1.383 . S
C3325 C3321 1.495 . S
C3325 H3331 0.959 . S
C3325 H3332 0.961 . S
C3325 H3333 0.960 . S
C3326 C3324 1.381 1_565 S
C3326 C3327 1.394 . S
C3326 H3334 0.930 . S
C3327 C3326 1.394 . S
C3327 C3328 1.383 1_565 S
C3327 H3335 0.929 . S
C3328 C3327 1.383 1_545 S
C3328 C3329 1.377 . S
C3329 H3313 0.930 . S
C3329 C3328 1.377 . S
C3329 C3330 1.379 . S
C3330 H3314 0.931 . S
C3330 C3324 1.383 . S
C3330 C3329 1.379 . S
H3331 C3325 0.959 . S
H3332 C3325 0.961 . S
H3333 C3325 0.960 . S
H3334 C3326 0.930 . S
H3335 C3327 0.929 . S
H3336 C3344 0.929 . S
H3337 C3346 0.930 . S
H3338 C3348 0.930 . S
H3339 C3351 0.929 . S
H3340 C3354 0.930 . S
H3341 C3356 0.960 . S
H3342 C3356 0.960 . S
H3343 C3356 0.960 . S
C3344 H3336 0.929 . S
C3344 C3345 1.377 . S
C3344 C3346 1.384 . S
C3345 C3344 1.377 . S
C3345 C3351 1.390 . S
C3346 H3337 0.930 . S
C3346 C3344 1.384 . S
C3346 C3347 1.372 . S
C3347 C3346 1.372 . S
C3347 C3348 1.400 . S
C3347 C3352 1.490 . S
C3348 H3338 0.930 . S
C3348 C3347 1.400 . S
C3348 C3351 1.386 . S
H3349 C3365 0.930 . S
H3350 C3366 0.931 . S
C3351 H3339 0.929 . S
C3351 C3345 1.390 . S
C3351 C3348 1.386 . S
C3352 C3347 1.490 . S
C3352 C3354 1.395 . S
C3352 C3355 1.403 . S
H3353 C3359 0.930 . S
C3354 H3340 0.930 . S
C3354 C3352 1.395 . S
C3354 C3357 1.403 . S
C3355 C3352 1.403 . S
C3355 C3356 1.524 . S
C3355 C3359 1.400 . S
C3356 H3341 0.960 . S
C3356 H3342 0.960 . S
C3356 H3343 0.960 . S
C3356 C3355 1.524 . S
C3357 C3354 1.403 . S
C3357 C3358 1.392 . S
C3357 C3361 1.495 . S
C3358 C3357 1.392 . S
C3358 C3359 1.385 . S
C3358 C3360 1.478 . S
C3359 H3353 0.930 . S
C3359 C3355 1.400 . S
C3359 C3358 1.385 . S
C3360 C3358 1.478 . S
C3360 C3362 1.381 . S
C3360 C3366 1.383 . S
C3361 C3357 1.495 . S
C3361 H3367 0.959 . S
C3361 H3368 0.961 . S
C3361 H3369 0.960 . S
C3362 C3360 1.381 . S
C3362 C3363 1.394 . S
C3362 H3370 0.930 . S
C3363 C3362 1.394 . S
C3363 C3364 1.383 . S
C3363 H3371 0.929 . S
C3364 C3363 1.383 . S
C3364 C3365 1.377 . S
C3365 H3349 0.930 . S
C3365 C3364 1.377 . S
C3365 C3366 1.379 . S
C3366 H3350 0.931 . S
C3366 C3360 1.383 . S
C3366 C3365 1.379 . S
H3367 C3361 0.959 . S
H3368 C3361 0.961 . S
H3369 C3361 0.960 . S
H3370 C3362 0.930 . S
H3371 C3363 0.929 . S
H3372 C3380 0.942 . S
H3373 C3382 0.930 . S
H3374 C3384 0.930 . S
H3375 C3387 0.929 . S
H3376 C3390 0.930 . S
H3377 C3392 0.960 . S
H3378 C3392 0.960 . S
H3379 C3392 0.960 . S
C3380 H3372 0.942 . S
C3380 C3381 1.377 . S
C3380 C3382 1.384 . S
C3381 C3380 1.377 . S
C3381 C3387 1.390 . S
C3382 H3373 0.930 . S
C3382 C3380 1.384 . S
C3382 C3383 1.372 . S
C3383 C3382 1.372 . S
C3383 C3384 1.400 . S
C3383 C3388 1.490 . S
C3384 H3374 0.930 . S
C3384 C3383 1.400 . S
C3384 C3387 1.386 . S
H3385 C3401 0.930 . S
H3386 C3402 0.931 . S
C3387 H3375 0.929 . S
C3387 C3381 1.390 . S
C3387 C3384 1.386 . S
C3388 C3383 1.490 . S
C3388 C3390 1.395 . S
C3388 C3391 1.403 1_554 S
H3389 C3395 0.915 1_556 S
C3390 H3376 0.930 . S
C3390 C3388 1.395 . S
C3390 C3393 1.403 . S
C3391 C3388 1.403 1_556 S
C3391 C3392 1.524 . S
C3391 C3395 1.397 1_556 S
C3392 H3377 0.960 . S
C3392 H3378 0.960 . S
C3392 H3379 0.960 . S
C3392 C3391 1.524 . S
C3393 C3390 1.403 . S
C3393 C3394 1.392 . S
C3393 C3397 1.495 . S
C3394 C3393 1.392 . S
C3394 C3395 1.403 . S
C3394 C3396 1.478 . S
C3395 H3389 0.915 1_554 S
C3395 C3391 1.397 1_554 S
C3395 C3394 1.403 . S
C3396 C3394 1.478 . S
C3396 C3398 1.381 . S
C3396 C3402 1.383 . S
C3397 C3393 1.495 . S
C3397 H3403 0.959 . S
C3397 H3404 0.961 . S
C3397 H3405 0.960 . S
C3398 C3396 1.381 . S
C3398 C3399 1.394 . S
C3398 H3406 0.930 . S
C3399 C3398 1.394 . S
C3399 C3400 1.383 . S
C3399 H3407 0.929 . S
C3400 C3399 1.383 . S
C3400 C3401 1.377 . S
C3401 H3385 0.930 . S
C3401 C3400 1.377 . S
C3401 C3402 1.379 . S
C3402 H3386 0.931 . S
C3402 C3396 1.383 . S
C3402 C3401 1.379 . S
H3403 C3397 0.959 . S
H3404 C3397 0.961 . S
H3405 C3397 0.960 . S
H3406 C3398 0.930 . S
H3407 C3399 0.929 . S
H3408 C3416 0.929 . S
H3409 C3418 0.930 . S
H3410 C3420 0.930 . S
H3411 C3423 0.929 . S
H3412 C3426 0.930 . S
H3413 C3428 0.960 . S
H3414 C3428 0.960 . S
H3415 C3428 0.960 . S
C3416 H3408 0.929 . S
C3416 C3417 1.377 . S
C3416 C3418 1.384 . S
C3417 C3416 1.377 . S
C3417 C3423 1.390 . S
C3418 H3409 0.930 . S
C3418 C3416 1.384 . S
C3418 C3419 1.372 . S
C3419 C3418 1.372 . S
C3419 C3420 1.400 . S
C3419 C3424 1.490 . S
C3420 H3410 0.930 . S
C3420 C3419 1.400 . S
C3420 C3423 1.386 . S
H3421 C3437 0.930 . S
H3422 C3438 0.931 . S
C3423 H3411 0.929 . S
C3423 C3417 1.390 . S
C3423 C3420 1.386 . S
C3424 C3419 1.490 . S
C3424 C3426 1.395 . S
C3424 C3427 1.403 . S
H3425 C3431 0.930 . S
C3426 H3412 0.930 . S
C3426 C3424 1.395 . S
C3426 C3429 1.403 . S
C3427 C3424 1.403 . S
C3427 C3428 1.524 . S
C3427 C3431 1.400 . S
C3428 H3413 0.960 . S
C3428 H3414 0.960 . S
C3428 H3415 0.960 . S
C3428 C3427 1.524 . S
C3429 C3426 1.403 . S
C3429 C3430 1.392 . S
C3429 C3433 1.495 . S
C3430 C3429 1.392 . S
C3430 C3431 1.385 . S
C3430 C3432 1.478 . S
C3431 H3425 0.930 . S
C3431 C3427 1.400 . S
C3431 C3430 1.385 . S
C3432 C3430 1.478 . S
C3432 C3434 1.381 . S
C3432 C3438 1.383 . S
C3433 C3429 1.495 . S
C3433 H3439 0.959 . S
C3433 H3440 0.961 . S
C3433 H3441 0.960 . S
C3434 C3432 1.381 . S
C3434 C3435 1.394 . S
C3434 H3442 0.930 . S
C3435 C3434 1.394 . S
C3435 C3436 1.383 . S
C3435 H3443 0.929 . S
C3436 C3435 1.383 . S
C3436 C3437 1.377 . S
C3437 H3421 0.930 . S
C3437 C3436 1.377 . S
C3437 C3438 1.379 . S
C3438 H3422 0.931 . S
C3438 C3432 1.383 . S
C3438 C3437 1.379 . S
H3439 C3433 0.959 . S
H3440 C3433 0.961 . S
H3441 C3433 0.960 . S
H3442 C3434 0.930 . S
H3443 C3435 0.929 . S
H3444 C3452 0.929 . S
H3445 C3454 0.930 . S
H3446 C3456 0.930 . S
H3447 C3459 0.929 . S
H3448 C3462 0.930 . S
H3449 C3464 1.017 . S
H3450 C3464 1.007 . S
H3451 C3464 0.914 1_554 S
C3452 H3444 0.929 . S
C3452 C3453 1.377 . S
C3452 C3454 1.384 . S
C3453 C3452 1.377 . S
C3453 C3459 1.390 . S
C3454 H3445 0.930 . S
C3454 C3452 1.384 . S
C3454 C3455 1.372 . S
C3455 C3454 1.372 . S
C3455 C3456 1.400 . S
C3455 C3460 1.490 . S
C3456 H3446 0.930 . S
C3456 C3455 1.400 . S
C3456 C3459 1.386 . S
H3457 C3473 0.930 . S
H3458 C3474 0.931 . S
C3459 H3447 0.929 . S
C3459 C3453 1.390 . S
C3459 C3456 1.386 . S
C3460 C3455 1.490 . S
C3460 C3462 1.395 . S
C3460 C3463 1.403 . S
H3461 C3467 0.901 1_556 S
C3462 H3448 0.930 . S
C3462 C3460 1.395 . S
C3462 C3465 1.403 . S
C3463 C3460 1.403 . S
C3463 C3464 1.476 1_554 S
C3463 C3467 1.400 . S
C3464 H3449 1.017 . S
C3464 H3450 1.007 . S
C3464 H3451 0.914 1_556 S
C3464 C3463 1.476 1_556 S
C3465 C3462 1.403 . S
C3465 C3466 1.392 . S
C3465 C3469 1.495 . S
C3466 C3465 1.392 . S
C3466 C3467 1.385 . S
C3466 C3468 1.478 . S
C3467 H3461 0.901 1_554 S
C3467 C3463 1.400 . S
C3467 C3466 1.385 . S
C3468 C3466 1.478 . S
C3468 C3470 1.381 . S
C3468 C3474 1.383 . S
C3469 C3465 1.495 . S
C3469 H3475 0.959 . S
C3469 H3476 0.961 . S
C3469 H3477 0.960 . S
C3470 C3468 1.381 . S
C3470 C3471 1.400 . S
C3470 H3478 0.930 . S
C3471 C3470 1.400 . S
C3471 C3472 1.387 . S
C3471 H3479 0.921 1_554 S
C3472 C3471 1.387 . S
C3472 C3473 1.377 . S
C3473 H3457 0.930 . S
C3473 C3472 1.377 . S
C3473 C3474 1.379 . S
C3474 H3458 0.931 . S
C3474 C3468 1.383 . S
C3474 C3473 1.379 . S
H3475 C3469 0.959 . S
H3476 C3469 0.961 . S
H3477 C3469 0.960 . S
H3478 C3470 0.930 . S
H3479 C3471 0.921 1_556 S
H3480 C3488 0.929 . S
H3481 C3490 0.930 . S
H3482 C3492 0.930 . S
H3483 C3495 0.929 . S
H3484 C3498 0.930 . S
H3485 C3500 0.960 . S
H3486 C3500 0.960 . S
H3487 C3500 0.960 . S
C3488 H3480 0.929 . S
C3488 C3489 1.377 . S
C3488 C3490 1.384 . S
C3489 C3488 1.377 . S
C3489 C3495 1.390 . S
C3490 H3481 0.930 . S
C3490 C3488 1.384 . S
C3490 C3491 1.372 . S
C3491 C3490 1.372 . S
C3491 C3492 1.400 . S
C3491 C3496 1.490 . S
C3492 H3482 0.930 . S
C3492 C3491 1.400 . S
C3492 C3495 1.386 . S
H3493 C3509 0.930 . S
H3494 C3510 0.931 . S
C3495 H3483 0.929 . S
C3495 C3489 1.390 . S
C3495 C3492 1.386 . S
C3496 C3491 1.490 . S
C3496 C3498 1.395 . S
C3496 C3499 1.403 . S
H3497 C3503 0.930 . S
C3498 H3484 0.930 . S
C3498 C3496 1.395 . S
C3498 C3501 1.403 . S
C3499 C3496 1.403 . S
C3499 C3500 1.524 . S
C3499 C3503 1.400 . S
C3500 H3485 0.960 . S
C3500 H3486 0.960 . S
C3500 H3487 0.960 . S
C3500 C3499 1.524 . S
C3501 C3498 1.403 . S
C3501 C3502 1.392 . S
C3501 C3505 1.495 . S
C3502 C3501 1.392 . S
C3502 C3503 1.385 . S
C3502 C3504 1.478 . S
C3503 H3497 0.930 . S
C3503 C3499 1.400 . S
C3503 C3502 1.385 . S
C3504 C3502 1.478 . S
C3504 C3506 1.381 . S
C3504 C3510 1.383 . S
C3505 C3501 1.495 . S
C3505 H3511 0.959 . S
C3505 H3512 0.961 . S
C3505 H3513 0.960 . S
C3506 C3504 1.381 . S
C3506 C3507 1.394 . S
C3506 H3514 0.930 . S
C3507 C3506 1.394 . S
C3507 C3508 1.383 . S
C3507 H3515 0.929 . S
C3508 C3507 1.383 . S
C3508 C3509 1.377 . S
C3509 H3493 0.930 . S
C3509 C3508 1.377 . S
C3509 C3510 1.379 . S
C3510 H3494 0.931 . S
C3510 C3504 1.383 . S
C3510 C3509 1.379 . S
H3511 C3505 0.959 . S
H3512 C3505 0.961 . S
H3513 C3505 0.960 . S
H3514 C3506 0.930 . S
H3515 C3507 0.929 . S
H3516 C3524 0.929 . S
H3517 C3526 0.930 . S
H3518 C3528 0.930 . S
H3519 C3531 0.929 . S
H3520 C3534 0.930 . S
H3521 C3536 0.960 . S
H3522 C3536 0.960 . S
H3523 C3536 0.960 . S
C3524 H3516 0.929 . S
C3524 C3525 1.377 . S
C3524 C3526 1.384 . S
C3525 C3524 1.377 . S
C3525 C3531 1.390 1_455 S
C3526 H3517 0.930 . S
C3526 C3524 1.384 . S
C3526 C3527 1.372 . S
C3527 C3526 1.372 . S
C3527 C3528 1.400 1_455 S
C3527 C3532 1.490 . S
C3528 H3518 0.930 . S
C3528 C3527 1.400 1_655 S
C3528 C3531 1.386 . S
H3529 C3545 0.930 1_655 S
H3530 C3546 0.931 1_655 S
C3531 H3519 0.929 . S
C3531 C3525 1.390 1_655 S
C3531 C3528 1.386 . S
C3532 C3527 1.490 . S
C3532 C3534 1.395 . S
C3532 C3535 1.403 1_455 S
H3533 C3539 0.930 . S
C3534 H3520 0.930 . S
C3534 C3532 1.395 . S
C3534 C3537 1.403 . S
C3535 C3532 1.403 1_655 S
C3535 C3536 1.524 . S
C3535 C3539 1.400 . S
C3536 H3521 0.960 . S
C3536 H3522 0.960 . S
C3536 H3523 0.960 . S
C3536 C3535 1.524 . S
C3537 C3534 1.403 . S
C3537 C3538 1.392 . S
C3537 C3541 1.495 . S
C3538 C3537 1.392 . S
C3538 C3539 1.385 1_455 S
C3538 C3540 1.478 . S
C3539 H3533 0.930 . S
C3539 C3535 1.400 . S
C3539 C3538 1.385 1_655 S
C3540 C3538 1.478 . S
C3540 C3542 1.381 . S
C3540 C3546 1.383 . S
C3541 C3537 1.495 . S
C3541 H3547 0.959 . S
C3541 H3548 0.961 . S
C3541 H3549 0.960 . S
C3542 C3540 1.381 . S
C3542 C3543 1.394 . S
C3542 H3550 0.930 . S
C3543 C3542 1.394 . S
C3543 C3544 1.383 . S
C3543 H3551 0.929 . S
C3544 C3543 1.383 . S
C3544 C3545 1.377 . S
C3545 H3529 0.930 1_455 S
C3545 C3544 1.377 . S
C3545 C3546 1.379 . S
C3546 H3530 0.931 1_455 S
C3546 C3540 1.383 . S
C3546 C3545 1.379 . S
H3547 C3541 0.959 . S
H3548 C3541 0.961 . S
H3549 C3541 0.960 . S
H3550 C3542 0.930 . S
H3551 C3543 0.929 . S
H3552 C3560 0.929 . S
H3553 C3562 0.930 . S
H3554 C3564 0.930 . S
H3555 C3567 0.929 . S
H3556 C3570 0.930 . S
H3557 C3572 0.960 . S
H3558 C3572 0.960 . S
H3559 C3572 0.960 . S
C3560 H3552 0.929 . S
C3560 C3561 1.377 . S
C3560 C3562 1.384 . S
C3561 C3560 1.377 . S
C3561 C3567 1.390 . S
C3562 H3553 0.930 . S
C3562 C3560 1.384 . S
C3562 C3563 1.372 . S
C3563 C3562 1.372 . S
C3563 C3564 1.400 . S
C3563 C3568 1.490 . S
C3564 H3554 0.930 . S
C3564 C3563 1.400 . S
C3564 C3567 1.386 . S
H3565 C3581 0.930 . S
H3566 C3582 0.931 . S
C3567 H3555 0.929 . S
C3567 C3561 1.390 . S
C3567 C3564 1.386 . S
C3568 C3563 1.490 . S
C3568 C3570 1.395 . S
C3568 C3571 1.403 . S
H3569 C3575 0.930 . S
C3570 H3556 0.930 . S
C3570 C3568 1.395 . S
C3570 C3573 1.403 . S
C3571 C3568 1.403 . S
C3571 C3572 1.524 . S
C3571 C3575 1.400 . S
C3572 H3557 0.960 . S
C3572 H3558 0.960 . S
C3572 H3559 0.960 . S
C3572 C3571 1.524 . S
C3573 C3570 1.403 . S
C3573 C3574 1.392 . S
C3573 C3577 1.495 . S
C3574 C3573 1.392 . S
C3574 C3575 1.385 . S
C3574 C3576 1.478 . S
C3575 H3569 0.930 . S
C3575 C3571 1.400 . S
C3575 C3574 1.385 . S
C3576 C3574 1.478 . S
C3576 C3578 1.381 . S
C3576 C3582 1.383 . S
C3577 C3573 1.495 . S
C3577 H3583 0.959 . S
C3577 H3584 0.961 . S
C3577 H3585 0.960 . S
C3578 C3576 1.381 . S
C3578 C3579 1.394 . S
C3578 H3586 0.930 . S
C3579 C3578 1.394 . S
C3579 C3580 1.383 . S
C3579 H3587 0.929 . S
C3580 C3579 1.383 . S
C3580 C3581 1.377 . S
C3581 H3565 0.930 . S
C3581 C3580 1.377 . S
C3581 C3582 1.379 . S
C3582 H3566 0.931 . S
C3582 C3576 1.383 . S
C3582 C3581 1.379 . S
H3583 C3577 0.959 . S
H3584 C3577 0.961 . S
H3585 C3577 0.960 . S
H3586 C3578 0.930 . S
H3587 C3579 0.929 . S
H3588 C3596 0.929 . S
H3589 C3598 0.930 . S
H3590 C3600 0.930 . S
H3591 C3603 0.929 . S
H3592 C3606 0.930 . S
H3593 C3608 0.960 . S
H3594 C3608 0.960 . S
H3595 C3608 0.960 . S
C3596 H3588 0.929 . S
C3596 C3597 1.377 . S
C3596 C3598 1.384 . S
C3597 C3596 1.377 . S
C3597 C3603 1.390 . S
C3598 H3589 0.930 . S
C3598 C3596 1.384 . S
C3598 C3599 1.372 . S
C3599 C3598 1.372 . S
C3599 C3600 1.400 . S
C3599 C3604 1.490 . S
C3600 H3590 0.930 . S
C3600 C3599 1.400 . S
C3600 C3603 1.386 . S
H3601 C3617 0.930 . S
H3602 C3618 0.907 1_655 S
C3603 H3591 0.929 . S
C3603 C3597 1.390 . S
C3603 C3600 1.386 . S
C3604 C3599 1.490 . S
C3604 C3606 1.395 . S
C3604 C3607 1.403 . S
H3605 C3611 0.930 1_655 S
C3606 H3592 0.930 . S
C3606 C3604 1.395 . S
C3606 C3609 1.403 . S
C3607 C3604 1.403 . S
C3607 C3608 1.524 1_455 S
C3607 C3611 1.400 . S
C3608 H3593 0.960 . S
C3608 H3594 0.960 . S
C3608 H3595 0.960 . S
C3608 C3607 1.524 1_655 S
C3609 C3606 1.403 . S
C3609 C3610 1.392 . S
C3609 C3613 1.495 . S
C3610 C3609 1.392 . S
C3610 C3611 1.385 . S
C3610 C3612 1.478 . S
C3611 H3605 0.930 1_455 S
C3611 C3607 1.400 . S
C3611 C3610 1.385 . S
C3612 C3610 1.478 . S
C3612 C3614 1.381 . S
C3612 C3618 1.383 . S
C3613 C3609 1.495 . S
C3613 H3619 0.959 . S
C3613 H3620 0.961 . S
C3613 H3621 0.960 . S
C3614 C3612 1.381 . S
C3614 C3615 1.394 . S
C3614 H3622 0.930 . S
C3615 C3614 1.394 . S
C3615 C3616 1.383 . S
C3615 H3623 0.929 . S
C3616 C3615 1.383 . S
C3616 C3617 1.377 1_455 S
C3617 H3601 0.930 . S
C3617 C3616 1.377 1_655 S
C3617 C3618 1.379 1_655 S
C3618 H3602 0.907 1_455 S
C3618 C3612 1.383 . S
C3618 C3617 1.379 1_455 S
H3619 C3613 0.959 . S
H3620 C3613 0.961 . S
H3621 C3613 0.960 . S
H3622 C3614 0.930 . S
H3623 C3615 0.929 . S
H3624 C3632 0.929 . S
H3625 C3634 0.930 . S
H3626 C3636 0.930 . S
H3627 C3639 0.929 . S
H3628 C3642 0.930 . S
H3629 C3644 0.960 . S
H3630 C3644 0.960 . S
H3631 C3644 0.960 . S
C3632 H3624 0.929 . S
C3632 C3633 1.377 . S
C3632 C3634 1.384 . S
C3633 C3632 1.377 . S
C3633 C3639 1.390 . S
C3634 H3625 0.930 . S
C3634 C3632 1.384 . S
C3634 C3635 1.372 . S
C3635 C3634 1.372 . S
C3635 C3636 1.400 . S
C3635 C3640 1.490 . S
C3636 H3626 0.930 . S
C3636 C3635 1.400 . S
C3636 C3639 1.386 . S
H3637 C3653 0.930 . S
H3638 C3654 0.931 . S
C3639 H3627 0.929 . S
C3639 C3633 1.390 . S
C3639 C3636 1.386 . S
C3640 C3635 1.490 . S
C3640 C3642 1.395 . S
C3640 C3643 1.403 . S
H3641 C3647 0.930 . S
C3642 H3628 0.930 . S
C3642 C3640 1.395 . S
C3642 C3645 1.403 . S
C3643 C3640 1.403 . S
C3643 C3644 1.524 . S
C3643 C3647 1.400 . S
C3644 H3629 0.960 . S
C3644 H3630 0.960 . S
C3644 H3631 0.960 . S
C3644 C3643 1.524 . S
C3645 C3642 1.403 . S
C3645 C3646 1.392 . S
C3645 C3649 1.495 . S
C3646 C3645 1.392 . S
C3646 C3647 1.385 . S
C3646 C3648 1.478 . S
C3647 H3641 0.930 . S
C3647 C3643 1.400 . S
C3647 C3646 1.385 . S
C3648 C3646 1.478 . S
C3648 C3650 1.381 . S
C3648 C3654 1.383 . S
C3649 C3645 1.495 . S
C3649 H3655 0.959 . S
C3649 H3656 0.961 . S
C3649 H3657 0.960 . S
C3650 C3648 1.381 . S
C3650 C3651 1.394 . S
C3650 H3658 0.930 . S
C3651 C3650 1.394 . S
C3651 C3652 1.383 . S
C3651 H3659 0.929 . S
C3652 C3651 1.383 . S
C3652 C3653 1.377 . S
C3653 H3637 0.930 . S
C3653 C3652 1.377 . S
C3653 C3654 1.379 . S
C3654 H3638 0.931 . S
C3654 C3648 1.383 . S
C3654 C3653 1.379 . S
H3655 C3649 0.959 . S
H3656 C3649 0.961 . S
H3657 C3649 0.960 . S
H3658 C3650 0.930 . S
H3659 C3651 0.929 . S
H3660 C3668 0.929 . S
H3661 C3670 0.930 . S
H3662 C3672 0.930 . S
H3663 C3675 0.929 . S
H3664 C3678 0.930 . S
H3665 C3680 0.960 . S
H3666 C3680 0.960 . S
H3667 C3680 0.960 . S
C3668 H3660 0.929 . S
C3668 C3669 1.377 . S
C3668 C3670 1.384 . S
C3669 C3668 1.377 . S
C3669 C3675 1.390 . S
C3670 H3661 0.930 . S
C3670 C3668 1.384 . S
C3670 C3671 1.372 . S
C3671 C3670 1.372 . S
C3671 C3672 1.400 . S
C3671 C3676 1.490 . S
C3672 H3662 0.930 . S
C3672 C3671 1.400 . S
C3672 C3675 1.386 . S
H3673 C3689 0.930 . S
H3674 C3690 0.931 . S
C3675 H3663 0.929 . S
C3675 C3669 1.390 . S
C3675 C3672 1.386 . S
C3676 C3671 1.490 . S
C3676 C3678 1.395 . S
C3676 C3679 1.403 . S
H3677 C3683 0.930 . S
C3678 H3664 0.930 . S
C3678 C3676 1.395 . S
C3678 C3681 1.403 . S
C3679 C3676 1.403 . S
C3679 C3680 1.524 . S
C3679 C3683 1.400 . S
C3680 H3665 0.960 . S
C3680 H3666 0.960 . S
C3680 H3667 0.960 . S
C3680 C3679 1.524 . S
C3681 C3678 1.403 . S
C3681 C3682 1.392 . S
C3681 C3685 1.495 . S
C3682 C3681 1.392 . S
C3682 C3683 1.385 . S
C3682 C3684 1.478 . S
C3683 H3677 0.930 . S
C3683 C3679 1.400 . S
C3683 C3682 1.385 . S
C3684 C3682 1.478 . S
C3684 C3686 1.381 . S
C3684 C3690 1.383 . S
C3685 C3681 1.495 . S
C3685 H3691 0.959 . S
C3685 H3692 0.961 . S
C3685 H3693 0.960 . S
C3686 C3684 1.381 . S
C3686 C3687 1.394 . S
C3686 H3694 0.930 . S
C3687 C3686 1.394 . S
C3687 C3688 1.383 . S
C3687 H3695 0.929 . S
C3688 C3687 1.383 . S
C3688 C3689 1.377 . S
C3689 H3673 0.930 . S
C3689 C3688 1.377 . S
C3689 C3690 1.379 . S
C3690 H3674 0.931 . S
C3690 C3684 1.383 . S
C3690 C3689 1.379 . S
H3691 C3685 0.959 . S
H3692 C3685 0.961 . S
H3693 C3685 0.960 . S
H3694 C3686 0.930 . S
H3695 C3687 0.929 . S
H3696 C3704 0.929 1_565 S
H3697 C3706 0.930 . S
H3698 C3708 0.930 . S
H3699 C3711 0.929 . S
H3700 C3714 0.930 . S
H3701 C3716 0.960 . S
H3702 C3716 0.960 . S
H3703 C3716 0.960 . S
C3704 H3696 0.929 1_545 S
C3704 C3705 1.377 . S
C3704 C3706 1.384 . S
C3705 C3704 1.377 . S
C3705 C3711 1.390 . S
C3706 H3697 0.930 . S
C3706 C3704 1.384 . S
C3706 C3707 1.372 . S
C3707 C3706 1.372 . S
C3707 C3708 1.400 . S
C3707 C3712 1.490 . S
C3708 H3698 0.930 . S
C3708 C3707 1.400 . S
C3708 C3711 1.386 . S
H3709 C3725 0.930 . S
H3710 C3726 0.931 . S
C3711 H3699 0.929 . S
C3711 C3705 1.390 . S
C3711 C3708 1.386 . S
C3712 C3707 1.490 . S
C3712 C3714 1.395 . S
C3712 C3715 1.403 . S
H3713 C3719 0.930 . S
C3714 H3700 0.930 . S
C3714 C3712 1.395 . S
C3714 C3717 1.403 . S
C3715 C3712 1.403 . S
C3715 C3716 1.524 . S
C3715 C3719 1.400 . S
C3716 H3701 0.960 . S
C3716 H3702 0.960 . S
C3716 H3703 0.960 . S
C3716 C3715 1.524 . S
C3717 C3714 1.403 . S
C3717 C3718 1.392 . S
C3717 C3721 1.495 . S
C3718 C3717 1.392 . S
C3718 C3719 1.385 . S
C3718 C3720 1.478 . S
C3719 H3713 0.930 . S
C3719 C3715 1.400 . S
C3719 C3718 1.385 . S
C3720 C3718 1.478 . S
C3720 C3722 1.381 . S
C3720 C3726 1.383 . S
C3721 C3717 1.495 . S
C3721 H3727 0.959 1_545 S
C3721 H3728 0.961 . S
C3721 H3729 0.960 . S
C3722 C3720 1.381 . S
C3722 C3723 1.394 . S
C3722 H3730 0.930 . S
C3723 C3722 1.394 . S
C3723 C3724 1.383 . S
C3723 H3731 0.929 . S
C3724 C3723 1.383 . S
C3724 C3725 1.377 . S
C3725 H3709 0.930 . S
C3725 C3724 1.377 . S
C3725 C3726 1.379 . S
C3726 H3710 0.931 . S
C3726 C3720 1.383 . S
C3726 C3725 1.379 . S
H3727 C3721 0.959 1_565 S
H3728 C3721 0.961 . S
H3729 C3721 0.960 . S
H3730 C3722 0.930 . S
H3731 C3723 0.929 . S
H3732 C3740 0.929 . S
H3733 C3742 0.930 . S
H3734 C3744 0.930 . S
H3735 C3747 0.929 . S
H3736 C3750 0.930 . S
H3737 C3752 0.960 . S
H3738 C3752 0.960 . S
H3739 C3752 0.960 . S
C3740 H3732 0.929 . S
C3740 C3741 1.377 . S
C3740 C3742 1.384 . S
C3741 C3740 1.377 . S
C3741 C3747 1.390 . S
C3742 H3733 0.930 . S
C3742 C3740 1.384 . S
C3742 C3743 1.372 . S
C3743 C3742 1.372 . S
C3743 C3744 1.400 . S
C3743 C3748 1.490 . S
C3744 H3734 0.930 . S
C3744 C3743 1.400 . S
C3744 C3747 1.386 . S
H3745 C3761 0.930 . S
H3746 C3762 0.931 . S
C3747 H3735 0.929 . S
C3747 C3741 1.390 . S
C3747 C3744 1.386 . S
C3748 C3743 1.490 . S
C3748 C3750 1.395 . S
C3748 C3751 1.403 . S
H3749 C3755 0.930 . S
C3750 H3736 0.930 . S
C3750 C3748 1.395 . S
C3750 C3753 1.403 . S
C3751 C3748 1.403 . S
C3751 C3752 1.524 . S
C3751 C3755 1.400 . S
C3752 H3737 0.960 . S
C3752 H3738 0.960 . S
C3752 H3739 0.960 . S
C3752 C3751 1.524 . S
C3753 C3750 1.403 . S
C3753 C3754 1.392 . S
C3753 C3757 1.495 . S
C3754 C3753 1.392 . S
C3754 C3755 1.385 . S
C3754 C3756 1.478 . S
C3755 H3749 0.930 . S
C3755 C3751 1.400 . S
C3755 C3754 1.385 . S
C3756 C3754 1.478 . S
C3756 C3758 1.381 . S
C3756 C3762 1.383 . S
C3757 C3753 1.495 . S
C3757 H3763 0.959 . S
C3757 H3764 0.961 . S
C3757 H3765 0.960 . S
C3758 C3756 1.381 . S
C3758 C3759 1.394 . S
C3758 H3766 0.930 . S
C3759 C3758 1.394 . S
C3759 C3760 1.383 . S
C3759 H3767 0.929 . S
C3760 C3759 1.383 . S
C3760 C3761 1.377 . S
C3761 H3745 0.930 . S
C3761 C3760 1.377 . S
C3761 C3762 1.379 . S
C3762 H3746 0.931 . S
C3762 C3756 1.383 . S
C3762 C3761 1.379 . S
H3763 C3757 0.959 . S
H3764 C3757 0.961 . S
H3765 C3757 0.960 . S
H3766 C3758 0.930 . S
H3767 C3759 0.929 . S
H3768 C3776 0.929 . S
H3769 C3778 0.930 . S
H3770 C3780 0.930 . S
H3771 C3783 0.929 . S
H3772 C3786 0.930 . S
H3773 C3788 0.960 . S
H3774 C3788 0.960 . S
H3775 C3788 0.960 . S
C3776 H3768 0.929 . S
C3776 C3777 1.377 . S
C3776 C3778 1.384 . S
C3777 C3776 1.377 . S
C3777 C3783 1.390 . S
C3778 H3769 0.930 . S
C3778 C3776 1.384 . S
C3778 C3779 1.372 . S
C3779 C3778 1.372 . S
C3779 C3780 1.400 . S
C3779 C3784 1.490 . S
C3780 H3770 0.930 . S
C3780 C3779 1.400 . S
C3780 C3783 1.386 . S
H3781 C3797 0.930 . S
H3782 C3798 0.931 . S
C3783 H3771 0.929 . S
C3783 C3777 1.390 . S
C3783 C3780 1.386 . S
C3784 C3779 1.490 . S
C3784 C3786 1.395 . S
C3784 C3787 1.403 . S
H3785 C3791 0.930 . S
C3786 H3772 0.930 . S
C3786 C3784 1.395 . S
C3786 C3789 1.403 . S
C3787 C3784 1.403 . S
C3787 C3788 1.524 . S
C3787 C3791 1.400 . S
C3788 H3773 0.960 . S
C3788 H3774 0.960 . S
C3788 H3775 0.960 . S
C3788 C3787 1.524 . S
C3789 C3786 1.403 . S
C3789 C3790 1.392 . S
C3789 C3793 1.495 . S
C3790 C3789 1.392 . S
C3790 C3791 1.385 . S
C3790 C3792 1.478 . S
C3791 H3785 0.930 . S
C3791 C3787 1.400 . S
C3791 C3790 1.385 . S
C3792 C3790 1.478 . S
C3792 C3794 1.381 . S
C3792 C3798 1.383 . S
C3793 C3789 1.495 . S
C3793 H3799 0.959 . S
C3793 H3800 0.961 . S
C3793 H3801 0.960 . S
C3794 C3792 1.381 . S
C3794 C3795 1.394 . S
C3794 H3802 0.930 . S
C3795 C3794 1.394 . S
C3795 C3796 1.383 . S
C3795 H3803 0.929 . S
C3796 C3795 1.383 . S
C3796 C3797 1.377 . S
C3797 H3781 0.930 . S
C3797 C3796 1.377 . S
C3797 C3798 1.379 . S
C3798 H3782 0.931 . S
C3798 C3792 1.383 . S
C3798 C3797 1.379 . S
H3799 C3793 0.959 . S
H3800 C3793 0.961 . S
H3801 C3793 0.960 . S
H3802 C3794 0.930 . S
H3803 C3795 0.929 . S
H3804 C3812 0.929 . S
H3805 C3814 0.930 . S
H3806 C3816 0.930 . S
H3807 C3819 0.929 . S
H3808 C3822 0.930 . S
H3809 C3824 0.960 . S
H3810 C3824 0.960 . S
H3811 C3824 0.960 . S
C3812 H3804 0.929 . S
C3812 C3813 1.377 . S
C3812 C3814 1.384 . S
C3813 C3812 1.377 . S
C3813 C3819 1.390 . S
C3814 H3805 0.930 . S
C3814 C3812 1.384 . S
C3814 C3815 1.372 . S
C3815 C3814 1.372 . S
C3815 C3816 1.400 . S
C3815 C3820 1.490 . S
C3816 H3806 0.930 . S
C3816 C3815 1.400 . S
C3816 C3819 1.386 . S
H3817 C3833 0.930 . S
H3818 C3834 0.931 . S
C3819 H3807 0.929 . S
C3819 C3813 1.390 . S
C3819 C3816 1.386 . S
C3820 C3815 1.490 . S
C3820 C3822 1.395 . S
C3820 C3823 1.403 . S
H3821 C3827 0.930 . S
C3822 H3808 0.930 . S
C3822 C3820 1.395 . S
C3822 C3825 1.403 . S
C3823 C3820 1.403 . S
C3823 C3824 1.524 . S
C3823 C3827 1.400 . S
C3824 H3809 0.960 . S
C3824 H3810 0.960 . S
C3824 H3811 0.960 . S
C3824 C3823 1.524 . S
C3825 C3822 1.403 . S
C3825 C3826 1.392 . S
C3825 C3829 1.495 . S
C3826 C3825 1.392 . S
C3826 C3827 1.385 . S
C3826 C3828 1.478 . S
C3827 H3821 0.930 . S
C3827 C3823 1.400 . S
C3827 C3826 1.385 . S
C3828 C3826 1.478 . S
C3828 C3830 1.381 . S
C3828 C3834 1.383 . S
C3829 C3825 1.495 . S
C3829 H3835 0.959 . S
C3829 H3836 0.961 . S
C3829 H3837 0.960 . S
C3830 C3828 1.381 . S
C3830 C3831 1.394 . S
C3830 H3838 0.930 . S
C3831 C3830 1.394 . S
C3831 C3832 1.383 . S
C3831 H3839 0.929 . S
C3832 C3831 1.383 . S
C3832 C3833 1.377 . S
C3833 H3817 0.930 . S
C3833 C3832 1.377 . S
C3833 C3834 1.379 . S
C3834 H3818 0.931 . S
C3834 C3828 1.383 . S
C3834 C3833 1.379 . S
H3835 C3829 0.959 . S
H3836 C3829 0.961 . S
H3837 C3829 0.960 . S
H3838 C3830 0.930 . S
H3839 C3831 0.929 . S
H3840 C3848 0.929 . S
H3841 C3850 0.930 . S
H3842 C3852 0.930 . S
H3843 C3855 0.929 . S
H3844 C3858 0.930 . S
H3845 C3860 0.960 . S
H3846 C3860 0.960 . S
H3847 C3860 0.960 . S
C3848 H3840 0.929 . S
C3848 C3849 1.377 . S
C3848 C3850 1.384 . S
C3849 C3848 1.377 . S
C3849 C3855 1.390 . S
C3850 H3841 0.930 . S
C3850 C3848 1.384 . S
C3850 C3851 1.372 . S
C3851 C3850 1.372 . S
C3851 C3852 1.400 . S
C3851 C3856 1.490 . S
C3852 H3842 0.930 . S
C3852 C3851 1.400 . S
C3852 C3855 1.386 . S
H3853 C3869 0.930 . S
H3854 C3870 0.931 . S
C3855 H3843 0.929 . S
C3855 C3849 1.390 . S
C3855 C3852 1.386 . S
C3856 C3851 1.490 . S
C3856 C3858 1.395 . S
C3856 C3859 1.403 . S
H3857 C3863 0.930 . S
C3858 H3844 0.930 . S
C3858 C3856 1.395 . S
C3858 C3861 1.403 . S
C3859 C3856 1.403 . S
C3859 C3860 1.524 . S
C3859 C3863 1.400 . S
C3860 H3845 0.960 . S
C3860 H3846 0.960 . S
C3860 H3847 0.960 . S
C3860 C3859 1.524 . S
C3861 C3858 1.403 . S
C3861 C3862 1.392 . S
C3861 C3865 1.495 . S
C3862 C3861 1.392 . S
C3862 C3863 1.385 . S
C3862 C3864 1.478 . S
C3863 H3857 0.930 . S
C3863 C3859 1.400 . S
C3863 C3862 1.385 . S
C3864 C3862 1.478 . S
C3864 C3866 1.381 . S
C3864 C3870 1.383 . S
C3865 C3861 1.495 . S
C3865 H3871 0.959 . S
C3865 H3872 0.961 . S
C3865 H3873 0.960 . S
C3866 C3864 1.381 . S
C3866 C3867 1.394 . S
C3866 H3874 0.930 . S
C3867 C3866 1.394 . S
C3867 C3868 1.383 . S
C3867 H3875 0.929 . S
C3868 C3867 1.383 . S
C3868 C3869 1.377 . S
C3869 H3853 0.930 . S
C3869 C3868 1.377 . S
C3869 C3870 1.379 . S
C3870 H3854 0.931 . S
C3870 C3864 1.383 . S
C3870 C3869 1.379 . S
H3871 C3865 0.959 . S
H3872 C3865 0.961 . S
H3873 C3865 0.960 . S
H3874 C3866 0.930 . S
H3875 C3867 0.929 . S
H3876 C3884 0.925 . S
H3877 C3886 0.930 . S
H3878 C3888 0.930 . S
H3879 C3891 0.929 . S
H3880 C3894 0.930 . S
H3881 C3896 0.960 . S
H3882 C3896 0.960 1_556 S
H3883 C3896 0.960 . S
C3884 H3876 0.925 . S
C3884 C3885 1.377 . S
C3884 C3886 1.384 . S
C3885 C3884 1.377 . S
C3885 C3891 1.390 . S
C3886 H3877 0.930 . S
C3886 C3884 1.384 . S
C3886 C3887 1.372 . S
C3887 C3886 1.372 . S
C3887 C3888 1.400 . S
C3887 C3892 1.490 . S
C3888 H3878 0.930 . S
C3888 C3887 1.400 . S
C3888 C3891 1.386 . S
H3889 C3905 0.930 . S
H3890 C3906 0.931 . S
C3891 H3879 0.929 . S
C3891 C3885 1.390 . S
C3891 C3888 1.386 . S
C3892 C3887 1.490 . S
C3892 C3894 1.395 . S
C3892 C3895 1.403 . S
H3893 C3899 0.930 . S
C3894 H3880 0.930 . S
C3894 C3892 1.395 . S
C3894 C3897 1.403 . S
C3895 C3892 1.403 . S
C3895 C3896 1.524 . S
C3895 C3899 1.400 . S
C3896 H3881 0.960 . S
C3896 H3882 0.960 1_554 S
C3896 H3883 0.960 . S
C3896 C3895 1.524 . S
C3897 C3894 1.403 . S
C3897 C3898 1.392 . S
C3897 C3901 1.495 . S
C3898 C3897 1.392 . S
C3898 C3899 1.385 . S
C3898 C3900 1.478 . S
C3899 H3893 0.930 . S
C3899 C3895 1.400 . S
C3899 C3898 1.385 . S
C3900 C3898 1.478 . S
C3900 C3902 1.381 . S
C3900 C3906 1.383 . S
C3901 C3897 1.495 . S
C3901 H3907 0.959 . S
C3901 H3908 0.961 . S
C3901 H3909 0.960 . S
C3902 C3900 1.381 . S
C3902 C3903 1.394 . S
C3902 H3910 0.930 . S
C3903 C3902 1.394 . S
C3903 C3904 1.383 . S
C3903 H3911 0.929 . S
C3904 C3903 1.383 . S
C3904 C3905 1.377 . S
C3905 H3889 0.930 . S
C3905 C3904 1.377 . S
C3905 C3906 1.379 . S
C3906 H3890 0.931 . S
C3906 C3900 1.383 . S
C3906 C3905 1.379 . S
H3907 C3901 0.959 . S
H3908 C3901 0.961 . S
H3909 C3901 0.960 . S
H3910 C3902 0.930 . S
H3911 C3903 0.929 . S
H3912 C3920 0.929 . S
H3913 C3922 0.930 . S
H3914 C3924 0.930 . S
H3915 C3927 0.929 . S
H3916 C3930 0.930 . S
H3917 C3932 0.960 . S
H3918 C3932 0.960 . S
H3919 C3932 0.960 . S
C3920 H3912 0.929 . S
C3920 C3921 1.377 . S
C3920 C3922 1.384 . S
C3921 C3920 1.377 . S
C3921 C3927 1.390 . S
C3922 H3913 0.930 . S
C3922 C3920 1.384 . S
C3922 C3923 1.372 . S
C3923 C3922 1.372 . S
C3923 C3924 1.400 . S
C3923 C3928 1.490 . S
C3924 H3914 0.930 . S
C3924 C3923 1.400 . S
C3924 C3927 1.386 . S
H3925 C3941 0.930 . S
H3926 C3942 0.931 . S
C3927 H3915 0.929 . S
C3927 C3921 1.390 . S
C3927 C3924 1.386 . S
C3928 C3923 1.490 . S
C3928 C3930 1.395 . S
C3928 C3931 1.403 . S
H3929 C3935 0.930 . S
C3930 H3916 0.930 . S
C3930 C3928 1.395 . S
C3930 C3933 1.403 . S
C3931 C3928 1.403 . S
C3931 C3932 1.524 . S
C3931 C3935 1.400 . S
C3932 H3917 0.960 . S
C3932 H3918 0.960 . S
C3932 H3919 0.960 . S
C3932 C3931 1.524 . S
C3933 C3930 1.403 . S
C3933 C3934 1.392 . S
C3933 C3937 1.495 . S
C3934 C3933 1.392 . S
C3934 C3935 1.385 . S
C3934 C3936 1.478 . S
C3935 H3929 0.930 . S
C3935 C3931 1.400 . S
C3935 C3934 1.385 . S
C3936 C3934 1.478 . S
C3936 C3938 1.381 . S
C3936 C3942 1.383 . S
C3937 C3933 1.495 . S
C3937 H3943 0.959 . S
C3937 H3944 0.961 . S
C3937 H3945 0.960 . S
C3938 C3936 1.381 . S
C3938 C3939 1.394 . S
C3938 H3946 0.930 . S
C3939 C3938 1.394 . S
C3939 C3940 1.383 . S
C3939 H3947 0.929 . S
C3940 C3939 1.383 . S
C3940 C3941 1.377 . S
C3941 H3925 0.930 . S
C3941 C3940 1.377 . S
C3941 C3942 1.379 . S
C3942 H3926 0.931 . S
C3942 C3936 1.383 . S
C3942 C3941 1.379 . S
H3943 C3937 0.959 . S
H3944 C3937 0.961 . S
H3945 C3937 0.960 . S
H3946 C3938 0.930 . S
H3947 C3939 0.929 . S
H3948 C3956 0.929 . S
H3949 C3958 0.930 . S
H3950 C3960 0.930 . S
H3951 C3963 0.929 . S
H3952 C3966 0.930 . S
H3953 C3968 0.960 . S
H3954 C3968 0.960 . S
H3955 C3968 0.960 . S
C3956 H3948 0.929 . S
C3956 C3957 1.377 . S
C3956 C3958 1.384 . S
C3957 C3956 1.377 . S
C3957 C3963 1.390 . S
C3958 H3949 0.930 . S
C3958 C3956 1.384 . S
C3958 C3959 1.372 . S
C3959 C3958 1.372 . S
C3959 C3960 1.400 . S
C3959 C3964 1.490 . S
C3960 H3950 0.930 . S
C3960 C3959 1.400 . S
C3960 C3963 1.386 . S
H3961 C3977 0.930 . S
H3962 C3978 0.931 . S
C3963 H3951 0.929 . S
C3963 C3957 1.390 . S
C3963 C3960 1.386 . S
C3964 C3959 1.490 . S
C3964 C3966 1.395 . S
C3964 C3967 1.403 . S
H3965 C3971 0.930 . S
C3966 H3952 0.930 . S
C3966 C3964 1.395 . S
C3966 C3969 1.403 . S
C3967 C3964 1.403 . S
C3967 C3968 1.524 . S
C3967 C3971 1.400 . S
C3968 H3953 0.960 . S
C3968 H3954 0.960 . S
C3968 H3955 0.960 . S
C3968 C3967 1.524 . S
C3969 C3966 1.403 . S
C3969 C3970 1.392 . S
C3969 C3973 1.495 . S
C3970 C3969 1.392 . S
C3970 C3971 1.385 . S
C3970 C3972 1.478 . S
C3971 H3965 0.930 . S
C3971 C3967 1.400 . S
C3971 C3970 1.385 . S
C3972 C3970 1.478 . S
C3972 C3974 1.381 . S
C3972 C3978 1.383 . S
C3973 C3969 1.495 . S
C3973 H3979 0.959 . S
C3973 H3980 0.961 . S
C3973 H3981 0.960 . S
C3974 C3972 1.381 . S
C3974 C3975 1.394 . S
C3974 H3982 0.930 . S
C3975 C3974 1.394 . S
C3975 C3976 1.383 . S
C3975 H3983 0.929 . S
C3976 C3975 1.383 . S
C3976 C3977 1.377 . S
C3977 H3961 0.930 . S
C3977 C3976 1.377 . S
C3977 C3978 1.379 . S
C3978 H3962 0.931 . S
C3978 C3972 1.383 . S
C3978 C3977 1.379 . S
H3979 C3973 0.959 . S
H3980 C3973 0.961 . S
H3981 C3973 0.960 . S
H3982 C3974 0.930 . S
H3983 C3975 0.929 . S
H3984 C3992 0.929 . S
H3985 C3994 0.930 . S
H3986 C3996 0.930 . S
H3987 C3999 0.929 . S
H3988 C4002 0.930 . S
H3989 C4004 0.960 . S
H3990 C4004 0.960 . S
H3991 C4004 0.960 . S
C3992 H3984 0.929 . S
C3992 C3993 1.377 . S
C3992 C3994 1.384 . S
C3993 C3992 1.377 . S
C3993 C3999 1.390 . S
C3994 H3985 0.930 . S
C3994 C3992 1.384 . S
C3994 C3995 1.372 . S
C3995 C3994 1.372 . S
C3995 C3996 1.400 . S
C3995 C4000 1.490 . S
C3996 H3986 0.930 . S
C3996 C3995 1.400 . S
C3996 C3999 1.386 . S
H3997 C4013 0.930 . S
H3998 C4014 0.931 . S
C3999 H3987 0.929 . S
C3999 C3993 1.390 . S
C3999 C3996 1.386 . S
C4000 C3995 1.490 . S
C4000 C4002 1.395 . S
C4000 C4003 1.403 . S
H4001 C4007 0.930 . S
C4002 H3988 0.930 . S
C4002 C4000 1.395 . S
C4002 C4005 1.403 . S
C4003 C4000 1.403 . S
C4003 C4004 1.524 . S
C4003 C4007 1.400 . S
C4004 H3989 0.960 . S
C4004 H3990 0.960 . S
C4004 H3991 0.960 . S
C4004 C4003 1.524 . S
C4005 C4002 1.403 . S
C4005 C4006 1.392 . S
C4005 C4009 1.495 . S
C4006 C4005 1.392 . S
C4006 C4007 1.385 . S
C4006 C4008 1.478 . S
C4007 H4001 0.930 . S
C4007 C4003 1.400 . S
C4007 C4006 1.385 . S
C4008 C4006 1.478 . S
C4008 C4010 1.381 . S
C4008 C4014 1.383 . S
C4009 C4005 1.495 . S
C4009 H4015 0.959 . S
C4009 H4016 0.961 . S
C4009 H4017 0.960 . S
C4010 C4008 1.381 . S
C4010 C4011 1.394 . S
C4010 H4018 0.930 . S
C4011 C4010 1.394 . S
C4011 C4012 1.383 . S
C4011 H4019 0.929 . S
C4012 C4011 1.383 . S
C4012 C4013 1.377 . S
C4013 H3997 0.930 . S
C4013 C4012 1.377 . S
C4013 C4014 1.379 . S
C4014 H3998 0.931 . S
C4014 C4008 1.383 . S
C4014 C4013 1.379 . S
H4015 C4009 0.959 . S
H4016 C4009 0.961 . S
H4017 C4009 0.960 . S
H4018 C4010 0.930 . S
H4019 C4011 0.929 . S
H4020 C4028 0.965 . S
H4021 C4030 0.930 . S
H4022 C4032 0.930 . S
H4023 C4035 0.929 . S
H4024 C4038 0.930 . S
H4025 C4040 0.960 . S
H4026 C4040 0.960 . S
H4027 C4040 0.960 . S
C4028 H4020 0.965 . S
C4028 C4029 1.361 1_655 S
C4028 C4030 1.367 1_655 S
C4029 C4028 1.361 1_455 S
C4029 C4035 1.390 . S
C4030 H4021 0.930 . S
C4030 C4028 1.367 1_455 S
C4030 C4031 1.372 . S
C4031 C4030 1.372 . S
C4031 C4032 1.400 . S
C4031 C4036 1.490 . S
C4032 H4022 0.930 . S
C4032 C4031 1.400 . S
C4032 C4035 1.386 . S
H4033 C4049 0.930 . S
H4034 C4050 0.931 . S
C4035 H4023 0.929 . S
C4035 C4029 1.390 . S
C4035 C4032 1.386 . S
C4036 C4031 1.490 . S
C4036 C4038 1.395 . S
C4036 C4039 1.403 . S
H4037 C4043 0.930 . S
C4038 H4024 0.930 . S
C4038 C4036 1.395 . S
C4038 C4041 1.403 . S
C4039 C4036 1.403 . S
C4039 C4040 1.524 . S
C4039 C4043 1.400 . S
C4040 H4025 0.960 . S
C4040 H4026 0.960 . S
C4040 H4027 0.960 . S
C4040 C4039 1.524 . S
C4041 C4038 1.403 . S
C4041 C4042 1.392 . S
C4041 C4045 1.495 . S
C4042 C4041 1.392 . S
C4042 C4043 1.385 . S
C4042 C4044 1.478 . S
C4043 H4037 0.930 . S
C4043 C4039 1.400 . S
C4043 C4042 1.385 . S
C4044 C4042 1.478 . S
C4044 C4046 1.381 . S
C4044 C4050 1.383 . S
C4045 C4041 1.495 . S
C4045 H4051 0.959 . S
C4045 H4052 0.961 . S
C4045 H4053 0.960 . S
C4046 C4044 1.381 . S
C4046 C4047 1.394 . S
C4046 H4054 0.930 . S
C4047 C4046 1.394 . S
C4047 C4048 1.383 . S
C4047 H4055 0.929 . S
C4048 C4047 1.383 . S
C4048 C4049 1.377 . S
C4049 H4033 0.930 . S
C4049 C4048 1.377 . S
C4049 C4050 1.379 . S
C4050 H4034 0.931 . S
C4050 C4044 1.383 . S
C4050 C4049 1.379 . S
H4051 C4045 0.959 . S
H4052 C4045 0.961 . S
H4053 C4045 0.960 . S
H4054 C4046 0.930 . S
H4055 C4047 0.929 . S
H4056 C4064 0.929 . S
H4057 C4066 0.930 . S
H4058 C4068 0.930 . S
H4059 C4071 0.929 . S
H4060 C4074 0.930 . S
H4061 C4076 0.960 . S
H4062 C4076 0.960 . S
H4063 C4076 0.960 . S
C4064 H4056 0.929 . S
C4064 C4065 1.377 . S
C4064 C4066 1.384 . S
C4065 C4064 1.377 . S
C4065 C4071 1.390 . S
C4066 H4057 0.930 . S
C4066 C4064 1.384 . S
C4066 C4067 1.372 . S
C4067 C4066 1.372 . S
C4067 C4068 1.400 . S
C4067 C4072 1.490 . S
C4068 H4058 0.930 . S
C4068 C4067 1.400 . S
C4068 C4071 1.386 . S
H4069 C4085 0.930 . S
H4070 C4086 0.931 . S
C4071 H4059 0.929 . S
C4071 C4065 1.390 . S
C4071 C4068 1.386 . S
C4072 C4067 1.490 . S
C4072 C4074 1.395 . S
C4072 C4075 1.403 . S
H4073 C4079 0.930 . S
C4074 H4060 0.930 . S
C4074 C4072 1.395 . S
C4074 C4077 1.403 . S
C4075 C4072 1.403 . S
C4075 C4076 1.524 . S
C4075 C4079 1.400 . S
C4076 H4061 0.960 . S
C4076 H4062 0.960 . S
C4076 H4063 0.960 . S
C4076 C4075 1.524 . S
C4077 C4074 1.403 . S
C4077 C4078 1.392 . S
C4077 C4081 1.495 . S
C4078 C4077 1.392 . S
C4078 C4079 1.385 . S
C4078 C4080 1.478 . S
C4079 H4073 0.930 . S
C4079 C4075 1.400 . S
C4079 C4078 1.385 . S
C4080 C4078 1.478 . S
C4080 C4082 1.381 . S
C4080 C4086 1.383 . S
C4081 C4077 1.495 . S
C4081 H4087 0.959 . S
C4081 H4088 0.961 . S
C4081 H4089 0.960 . S
C4082 C4080 1.381 . S
C4082 C4083 1.394 . S
C4082 H4090 0.930 . S
C4083 C4082 1.394 . S
C4083 C4084 1.383 . S
C4083 H4091 0.929 . S
C4084 C4083 1.383 . S
C4084 C4085 1.377 . S
C4085 H4069 0.930 . S
C4085 C4084 1.377 . S
C4085 C4086 1.379 . S
C4086 H4070 0.931 . S
C4086 C4080 1.383 . S
C4086 C4085 1.379 . S
H4087 C4081 0.959 . S
H4088 C4081 0.961 . S
H4089 C4081 0.960 . S
H4090 C4082 0.930 . S
H4091 C4083 0.929 . S
H4092 C4100 0.929 . S
H4093 C4102 0.930 . S
H4094 C4104 0.930 . S
H4095 C4107 0.929 . S
H4096 C4110 0.930 . S
H4097 C4112 0.960 . S
H4098 C4112 0.960 . S
H4099 C4112 0.960 . S
C4100 H4092 0.929 . S
C4100 C4101 1.377 . S
C4100 C4102 1.384 . S
C4101 C4100 1.377 . S
C4101 C4107 1.390 . S
C4102 H4093 0.930 . S
C4102 C4100 1.384 . S
C4102 C4103 1.372 . S
C4103 C4102 1.372 . S
C4103 C4104 1.400 . S
C4103 C4108 1.490 . S
C4104 H4094 0.930 . S
C4104 C4103 1.400 . S
C4104 C4107 1.386 . S
H4105 C4121 0.930 . S
H4106 C4122 0.931 . S
C4107 H4095 0.929 . S
C4107 C4101 1.390 . S
C4107 C4104 1.386 . S
C4108 C4103 1.490 . S
C4108 C4110 1.395 . S
C4108 C4111 1.403 . S
H4109 C4115 0.930 . S
C4110 H4096 0.930 . S
C4110 C4108 1.395 . S
C4110 C4113 1.403 . S
C4111 C4108 1.403 . S
C4111 C4112 1.524 . S
C4111 C4115 1.400 . S
C4112 H4097 0.960 . S
C4112 H4098 0.960 . S
C4112 H4099 0.960 . S
C4112 C4111 1.524 . S
C4113 C4110 1.403 . S
C4113 C4114 1.392 . S
C4113 C4117 1.495 . S
C4114 C4113 1.392 . S
C4114 C4115 1.385 . S
C4114 C4116 1.478 . S
C4115 H4109 0.930 . S
C4115 C4111 1.400 . S
C4115 C4114 1.385 . S
C4116 C4114 1.478 . S
C4116 C4118 1.381 . S
C4116 C4122 1.383 . S
C4117 C4113 1.495 . S
C4117 H4123 0.959 . S
C4117 H4124 0.961 . S
C4117 H4125 0.960 . S
C4118 C4116 1.381 . S
C4118 C4119 1.394 . S
C4118 H4126 0.930 . S
C4119 C4118 1.394 . S
C4119 C4120 1.383 . S
C4119 H4127 0.929 . S
C4120 C4119 1.383 . S
C4120 C4121 1.377 . S
C4121 H4105 0.930 . S
C4121 C4120 1.377 . S
C4121 C4122 1.379 . S
C4122 H4106 0.931 . S
C4122 C4116 1.383 . S
C4122 C4121 1.379 . S
H4123 C4117 0.959 . S
H4124 C4117 0.961 . S
H4125 C4117 0.960 . S
H4126 C4118 0.930 . S
H4127 C4119 0.929 . S
H4128 C4136 0.929 . S
H4129 C4138 0.930 . S
H4130 C4140 0.930 . S
H4131 C4143 0.929 1_545 S
H4132 C4146 0.930 . S
H4133 C4148 0.960 . S
H4134 C4148 0.960 . S
H4135 C4148 0.960 . S
C4136 H4128 0.929 . S
C4136 C4137 1.377 . S
C4136 C4138 1.384 . S
C4137 C4136 1.377 . S
C4137 C4143 1.390 . S
C4138 H4129 0.930 . S
C4138 C4136 1.384 . S
C4138 C4139 1.372 . S
C4139 C4138 1.372 . S
C4139 C4140 1.400 . S
C4139 C4144 1.490 . S
C4140 H4130 0.930 . S
C4140 C4139 1.400 . S
C4140 C4143 1.386 . S
H4141 C4157 0.930 . S
H4142 C4158 0.931 . S
C4143 H4131 0.929 1_565 S
C4143 C4137 1.390 . S
C4143 C4140 1.386 . S
C4144 C4139 1.490 . S
C4144 C4146 1.395 . S
C4144 C4147 1.403 . S
H4145 C4151 0.930 . S
C4146 H4132 0.930 . S
C4146 C4144 1.395 . S
C4146 C4149 1.403 . S
C4147 C4144 1.403 . S
C4147 C4148 1.524 . S
C4147 C4151 1.400 . S
C4148 H4133 0.960 . S
C4148 H4134 0.960 . S
C4148 H4135 0.960 . S
C4148 C4147 1.524 . S
C4149 C4146 1.403 . S
C4149 C4150 1.392 . S
C4149 C4153 1.495 . S
C4150 C4149 1.392 . S
C4150 C4151 1.385 . S
C4150 C4152 1.478 . S
C4151 H4145 0.930 . S
C4151 C4147 1.400 . S
C4151 C4150 1.385 . S
C4152 C4150 1.478 . S
C4152 C4154 1.381 . S
C4152 C4158 1.383 . S
C4153 C4149 1.495 . S
C4153 H4159 0.959 . S
C4153 H4160 0.961 . S
C4153 H4161 0.960 . S
C4154 C4152 1.381 . S
C4154 C4155 1.394 . S
C4154 H4162 0.930 . S
C4155 C4154 1.394 . S
C4155 C4156 1.383 . S
C4155 H4163 0.929 . S
C4156 C4155 1.383 . S
C4156 C4157 1.377 . S
C4157 H4141 0.930 . S
C4157 C4156 1.377 . S
C4157 C4158 1.379 . S
C4158 H4142 0.931 . S
C4158 C4152 1.383 . S
C4158 C4157 1.379 . S
H4159 C4153 0.959 . S
H4160 C4153 0.961 . S
H4161 C4153 0.960 . S
H4162 C4154 0.930 . S
H4163 C4155 0.929 . S
H4164 C4172 0.929 . S
H4165 C4174 0.930 . S
H4166 C4176 0.930 . S
H4167 C4179 0.929 . S
H4168 C4182 0.930 . S
H4169 C4184 0.960 . S
H4170 C4184 0.960 . S
H4171 C4184 0.960 . S
C4172 H4164 0.929 . S
C4172 C4173 1.377 . S
C4172 C4174 1.384 . S
C4173 C4172 1.377 . S
C4173 C4179 1.390 . S
C4174 H4165 0.930 . S
C4174 C4172 1.384 . S
C4174 C4175 1.372 . S
C4175 C4174 1.372 . S
C4175 C4176 1.400 . S
C4175 C4180 1.490 . S
C4176 H4166 0.930 . S
C4176 C4175 1.400 . S
C4176 C4179 1.386 . S
H4177 C4193 0.930 . S
H4178 C4194 0.931 . S
C4179 H4167 0.929 . S
C4179 C4173 1.390 . S
C4179 C4176 1.386 . S
C4180 C4175 1.490 . S
C4180 C4182 1.395 . S
C4180 C4183 1.403 . S
H4181 C4187 0.930 . S
C4182 H4168 0.930 . S
C4182 C4180 1.395 . S
C4182 C4185 1.403 . S
C4183 C4180 1.403 . S
C4183 C4184 1.524 . S
C4183 C4187 1.400 . S
C4184 H4169 0.960 . S
C4184 H4170 0.960 . S
C4184 H4171 0.960 . S
C4184 C4183 1.524 . S
C4185 C4182 1.403 . S
C4185 C4186 1.392 . S
C4185 C4189 1.495 . S
C4186 C4185 1.392 . S
C4186 C4187 1.385 . S
C4186 C4188 1.478 . S
C4187 H4181 0.930 . S
C4187 C4183 1.400 . S
C4187 C4186 1.385 . S
C4188 C4186 1.478 . S
C4188 C4190 1.381 . S
C4188 C4194 1.383 . S
C4189 C4185 1.495 . S
C4189 H4195 0.959 . S
C4189 H4196 0.961 . S
C4189 H4197 0.960 . S
C4190 C4188 1.381 . S
C4190 C4191 1.394 . S
C4190 H4198 0.930 . S
C4191 C4190 1.394 . S
C4191 C4192 1.383 . S
C4191 H4199 0.929 . S
C4192 C4191 1.383 . S
C4192 C4193 1.377 . S
C4193 H4177 0.930 . S
C4193 C4192 1.377 . S
C4193 C4194 1.379 . S
C4194 H4178 0.931 . S
C4194 C4188 1.383 . S
C4194 C4193 1.379 . S
H4195 C4189 0.959 . S
H4196 C4189 0.961 . S
H4197 C4189 0.960 . S
H4198 C4190 0.930 . S
H4199 C4191 0.929 . S
H4200 C4208 0.929 . S
H4201 C4210 0.930 . S
H4202 C4212 0.930 . S
H4203 C4215 0.929 . S
H4204 C4218 0.930 . S
H4205 C4220 0.960 . S
H4206 C4220 0.960 . S
H4207 C4220 0.960 . S
C4208 H4200 0.929 . S
C4208 C4209 1.377 . S
C4208 C4210 1.384 . S
C4209 C4208 1.377 . S
C4209 C4215 1.390 . S
C4210 H4201 0.930 . S
C4210 C4208 1.384 . S
C4210 C4211 1.372 . S
C4211 C4210 1.372 . S
C4211 C4212 1.400 . S
C4211 C4216 1.490 . S
C4212 H4202 0.930 . S
C4212 C4211 1.400 . S
C4212 C4215 1.386 . S
H4213 C4229 0.930 . S
H4214 C4230 0.931 . S
C4215 H4203 0.929 . S
C4215 C4209 1.390 . S
C4215 C4212 1.386 . S
C4216 C4211 1.490 . S
C4216 C4218 1.395 . S
C4216 C4219 1.403 . S
H4217 C4223 0.930 . S
C4218 H4204 0.930 . S
C4218 C4216 1.395 . S
C4218 C4221 1.403 . S
C4219 C4216 1.403 . S
C4219 C4220 1.524 . S
C4219 C4223 1.400 . S
C4220 H4205 0.960 . S
C4220 H4206 0.960 . S
C4220 H4207 0.960 . S
C4220 C4219 1.524 . S
C4221 C4218 1.403 . S
C4221 C4222 1.392 . S
C4221 C4225 1.495 . S
C4222 C4221 1.392 . S
C4222 C4223 1.385 . S
C4222 C4224 1.478 . S
C4223 H4217 0.930 . S
C4223 C4219 1.400 . S
C4223 C4222 1.385 . S
C4224 C4222 1.478 . S
C4224 C4226 1.381 . S
C4224 C4230 1.383 . S
C4225 C4221 1.495 . S
C4225 H4231 0.959 . S
C4225 H4232 0.961 . S
C4225 H4233 0.960 . S
C4226 C4224 1.381 . S
C4226 C4227 1.394 . S
C4226 H4234 0.930 . S
C4227 C4226 1.394 . S
C4227 C4228 1.383 . S
C4227 H4235 0.929 . S
C4228 C4227 1.383 . S
C4228 C4229 1.377 . S
C4229 H4213 0.930 . S
C4229 C4228 1.377 . S
C4229 C4230 1.379 . S
C4230 H4214 0.931 . S
C4230 C4224 1.383 . S
C4230 C4229 1.379 . S
H4231 C4225 0.959 . S
H4232 C4225 0.961 . S
H4233 C4225 0.960 . S
H4234 C4226 0.930 . S
H4235 C4227 0.929 . S
H4236 C4244 0.929 . S
H4237 C4246 0.930 . S
H4238 C4248 0.930 . S
H4239 C4251 0.929 . S
H4240 C4254 0.930 . S
H4241 C4256 0.960 . S
H4242 C4256 0.960 . S
H4243 C4256 0.960 . S
C4244 H4236 0.929 . S
C4244 C4245 1.377 . S
C4244 C4246 1.384 . S
C4245 C4244 1.377 . S
C4245 C4251 1.390 . S
C4246 H4237 0.930 . S
C4246 C4244 1.384 . S
C4246 C4247 1.372 . S
C4247 C4246 1.372 . S
C4247 C4248 1.400 . S
C4247 C4252 1.490 . S
C4248 H4238 0.930 . S
C4248 C4247 1.400 . S
C4248 C4251 1.386 . S
H4249 C4265 0.930 . S
H4250 C4266 0.931 . S
C4251 H4239 0.929 . S
C4251 C4245 1.390 . S
C4251 C4248 1.386 . S
C4252 C4247 1.490 . S
C4252 C4254 1.395 . S
C4252 C4255 1.403 . S
H4253 C4259 0.930 . S
C4254 H4240 0.930 . S
C4254 C4252 1.395 . S
C4254 C4257 1.403 . S
C4255 C4252 1.403 . S
C4255 C4256 1.524 . S
C4255 C4259 1.400 . S
C4256 H4241 0.960 . S
C4256 H4242 0.960 . S
C4256 H4243 0.960 . S
C4256 C4255 1.524 . S
C4257 C4254 1.403 . S
C4257 C4258 1.392 . S
C4257 C4261 1.495 . S
C4258 C4257 1.392 . S
C4258 C4259 1.385 . S
C4258 C4260 1.478 . S
C4259 H4253 0.930 . S
C4259 C4255 1.400 . S
C4259 C4258 1.385 . S
C4260 C4258 1.478 . S
C4260 C4262 1.381 . S
C4260 C4266 1.383 . S
C4261 C4257 1.495 . S
C4261 H4267 0.959 . S
C4261 H4268 0.961 . S
C4261 H4269 0.960 . S
C4262 C4260 1.381 . S
C4262 C4263 1.394 . S
C4262 H4270 0.930 . S
C4263 C4262 1.394 . S
C4263 C4264 1.383 . S
C4263 H4271 0.929 . S
C4264 C4263 1.383 . S
C4264 C4265 1.377 . S
C4265 H4249 0.930 . S
C4265 C4264 1.377 . S
C4265 C4266 1.379 . S
C4266 H4250 0.931 . S
C4266 C4260 1.383 . S
C4266 C4265 1.379 . S
H4267 C4261 0.959 . S
H4268 C4261 0.961 . S
H4269 C4261 0.960 . S
H4270 C4262 0.930 . S
H4271 C4263 0.929 . S
H4272 C4280 0.929 . S
H4273 C4282 0.930 . S
H4274 C4284 0.930 . S
H4275 C4287 0.929 . S
H4276 C4290 0.930 . S
H4277 C4292 0.960 . S
H4278 C4292 0.960 . S
H4279 C4292 0.960 . S
C4280 H4272 0.929 . S
C4280 C4281 1.377 . S
C4280 C4282 1.384 . S
C4281 C4280 1.377 . S
C4281 C4287 1.390 . S
C4282 H4273 0.930 . S
C4282 C4280 1.384 . S
C4282 C4283 1.372 . S
C4283 C4282 1.372 . S
C4283 C4284 1.400 . S
C4283 C4288 1.490 . S
C4284 H4274 0.930 . S
C4284 C4283 1.400 . S
C4284 C4287 1.386 . S
H4285 C4301 0.930 . S
H4286 C4302 0.931 . S
C4287 H4275 0.929 . S
C4287 C4281 1.390 . S
C4287 C4284 1.386 . S
C4288 C4283 1.490 . S
C4288 C4290 1.395 . S
C4288 C4291 1.403 . S
H4289 C4295 0.930 . S
C4290 H4276 0.930 . S
C4290 C4288 1.395 . S
C4290 C4293 1.403 . S
C4291 C4288 1.403 . S
C4291 C4292 1.524 . S
C4291 C4295 1.400 . S
C4292 H4277 0.960 . S
C4292 H4278 0.960 . S
C4292 H4279 0.960 . S
C4292 C4291 1.524 . S
C4293 C4290 1.403 . S
C4293 C4294 1.392 . S
C4293 C4297 1.495 . S
C4294 C4293 1.392 . S
C4294 C4295 1.385 . S
C4294 C4296 1.478 . S
C4295 H4289 0.930 . S
C4295 C4291 1.400 . S
C4295 C4294 1.385 . S
C4296 C4294 1.478 . S
C4296 C4298 1.381 . S
C4296 C4302 1.383 . S
C4297 C4293 1.495 . S
C4297 H4303 0.959 . S
C4297 H4304 0.961 . S
C4297 H4305 0.960 . S
C4298 C4296 1.381 . S
C4298 C4299 1.394 . S
C4298 H4306 0.930 . S
C4299 C4298 1.394 . S
C4299 C4300 1.383 . S
C4299 H4307 0.929 . S
C4300 C4299 1.383 . S
C4300 C4301 1.377 . S
C4301 H4285 0.930 . S
C4301 C4300 1.377 . S
C4301 C4302 1.379 . S
C4302 H4286 0.931 . S
C4302 C4296 1.383 . S
C4302 C4301 1.379 . S
H4303 C4297 0.959 . S
H4304 C4297 0.961 . S
H4305 C4297 0.960 . S
H4306 C4298 0.930 . S
H4307 C4299 0.929 . S
H4308 C4316 0.929 . S
H4309 C4318 0.930 1_554 S
H4310 C4320 0.930 . S
H4311 C4323 0.929 . S
H4312 C4326 0.930 . S
H4313 C4328 0.960 . S
H4314 C4328 0.960 . S
H4315 C4328 0.960 . S
C4316 H4308 0.929 . S
C4316 C4317 1.377 1_554 S
C4316 C4318 1.384 1_554 S
C4317 C4316 1.377 1_556 S
C4317 C4323 1.390 . S
C4318 H4309 0.930 1_556 S
C4318 C4316 1.384 1_556 S
C4318 C4319 1.372 . S
C4319 C4318 1.372 . S
C4319 C4320 1.400 . S
C4319 C4324 1.490 . S
C4320 H4310 0.930 . S
C4320 C4319 1.400 . S
C4320 C4323 1.386 . S
H4321 C4337 0.930 . S
H4322 C4338 0.931 . S
C4323 H4311 0.929 . S
C4323 C4317 1.390 . S
C4323 C4320 1.386 . S
C4324 C4319 1.490 . S
C4324 C4326 1.395 . S
C4324 C4327 1.403 . S
H4325 C4331 0.930 . S
C4326 H4312 0.930 . S
C4326 C4324 1.395 . S
C4326 C4329 1.403 . S
C4327 C4324 1.403 . S
C4327 C4328 1.524 . S
C4327 C4331 1.400 . S
C4328 H4313 0.960 . S
C4328 H4314 0.960 . S
C4328 H4315 0.960 . S
C4328 C4327 1.524 . S
C4329 C4326 1.403 . S
C4329 C4330 1.392 . S
C4329 C4333 1.495 . S
C4330 C4329 1.392 . S
C4330 C4331 1.385 . S
C4330 C4332 1.478 . S
C4331 H4325 0.930 . S
C4331 C4327 1.400 . S
C4331 C4330 1.385 . S
C4332 C4330 1.478 . S
C4332 C4334 1.381 . S
C4332 C4338 1.383 . S
C4333 C4329 1.495 . S
C4333 H4339 0.959 . S
C4333 H4340 0.961 . S
C4333 H4341 0.960 . S
C4334 C4332 1.381 . S
C4334 C4335 1.394 . S
C4334 H4342 0.930 . S
C4335 C4334 1.394 . S
C4335 C4336 1.383 . S
C4335 H4343 0.929 . S
C4336 C4335 1.383 . S
C4336 C4337 1.377 . S
C4337 H4321 0.930 . S
C4337 C4336 1.377 . S
C4337 C4338 1.379 . S
C4338 H4322 0.931 . S
C4338 C4332 1.383 . S
C4338 C4337 1.379 . S
H4339 C4333 0.959 . S
H4340 C4333 0.961 . S
H4341 C4333 0.960 . S
H4342 C4334 0.930 . S
H4343 C4335 0.929 . S
H4344 C4352 0.929 . S
H4345 C4354 0.930 . S
H4346 C4356 0.930 . S
H4347 C4359 0.929 . S
H4348 C4362 0.930 . S
H4349 C4364 0.960 . S
H4350 C4364 0.960 . S
H4351 C4364 0.960 . S
C4352 H4344 0.929 . S
C4352 C4353 1.377 . S
C4352 C4354 1.384 . S
C4353 C4352 1.377 . S
C4353 C4359 1.390 . S
C4354 H4345 0.930 . S
C4354 C4352 1.384 . S
C4354 C4355 1.372 . S
C4355 C4354 1.372 . S
C4355 C4356 1.400 . S
C4355 C4360 1.490 . S
C4356 H4346 0.930 . S
C4356 C4355 1.400 . S
C4356 C4359 1.386 . S
H4357 C4373 0.930 . S
H4358 C4374 0.931 . S
C4359 H4347 0.929 . S
C4359 C4353 1.390 . S
C4359 C4356 1.386 . S
C4360 C4355 1.490 . S
C4360 C4362 1.395 . S
C4360 C4363 1.403 . S
H4361 C4367 0.930 . S
C4362 H4348 0.930 . S
C4362 C4360 1.395 . S
C4362 C4365 1.403 . S
C4363 C4360 1.403 . S
C4363 C4364 1.524 . S
C4363 C4367 1.400 . S
C4364 H4349 0.960 . S
C4364 H4350 0.960 . S
C4364 H4351 0.960 . S
C4364 C4363 1.524 . S
C4365 C4362 1.403 . S
C4365 C4366 1.392 . S
C4365 C4369 1.495 . S
C4366 C4365 1.392 . S
C4366 C4367 1.385 . S
C4366 C4368 1.478 . S
C4367 H4361 0.930 . S
C4367 C4363 1.400 . S
C4367 C4366 1.385 . S
C4368 C4366 1.478 . S
C4368 C4370 1.381 . S
C4368 C4374 1.383 . S
C4369 C4365 1.495 . S
C4369 H4375 0.959 . S
C4369 H4376 0.961 . S
C4369 H4377 0.960 . S
C4370 C4368 1.381 . S
C4370 C4371 1.394 . S
C4370 H4378 0.930 . S
C4371 C4370 1.394 . S
C4371 C4372 1.383 . S
C4371 H4379 0.929 . S
C4372 C4371 1.383 . S
C4372 C4373 1.377 . S
C4373 H4357 0.930 . S
C4373 C4372 1.377 . S
C4373 C4374 1.379 . S
C4374 H4358 0.931 . S
C4374 C4368 1.383 . S
C4374 C4373 1.379 . S
H4375 C4369 0.959 . S
H4376 C4369 0.961 . S
H4377 C4369 0.960 . S
H4378 C4370 0.930 . S
H4379 C4371 0.929 . S
H4380 C4388 0.929 . S
H4381 C4390 0.930 . S
H4382 C4392 0.930 . S
H4383 C4395 0.929 . S
H4384 C4398 0.930 . S
H4385 C4400 0.960 . S
H4386 C4400 0.960 . S
H4387 C4400 0.960 . S
C4388 H4380 0.929 . S
C4388 C4389 1.377 . S
C4388 C4390 1.384 . S
C4389 C4388 1.377 . S
C4389 C4395 1.390 . S
C4390 H4381 0.930 . S
C4390 C4388 1.384 . S
C4390 C4391 1.372 . S
C4391 C4390 1.372 . S
C4391 C4392 1.400 . S
C4391 C4396 1.490 . S
C4392 H4382 0.930 . S
C4392 C4391 1.400 . S
C4392 C4395 1.386 . S
H4393 C4409 0.930 . S
H4394 C4410 0.931 . S
C4395 H4383 0.929 . S
C4395 C4389 1.390 . S
C4395 C4392 1.386 . S
C4396 C4391 1.490 . S
C4396 C4398 1.395 . S
C4396 C4399 1.403 . S
H4397 C4403 0.930 . S
C4398 H4384 0.930 . S
C4398 C4396 1.395 . S
C4398 C4401 1.403 . S
C4399 C4396 1.403 . S
C4399 C4400 1.524 . S
C4399 C4403 1.400 . S
C4400 H4385 0.960 . S
C4400 H4386 0.960 . S
C4400 H4387 0.960 . S
C4400 C4399 1.524 . S
C4401 C4398 1.403 . S
C4401 C4402 1.392 . S
C4401 C4405 1.495 . S
C4402 C4401 1.392 . S
C4402 C4403 1.385 . S
C4402 C4404 1.478 . S
C4403 H4397 0.930 . S
C4403 C4399 1.400 . S
C4403 C4402 1.385 . S
C4404 C4402 1.478 . S
C4404 C4406 1.381 . S
C4404 C4410 1.383 . S
C4405 C4401 1.495 . S
C4405 H4411 0.959 . S
C4405 H4412 0.961 . S
C4405 H4413 0.960 . S
C4406 C4404 1.381 . S
C4406 C4407 1.394 . S
C4406 H4414 0.930 . S
C4407 C4406 1.394 . S
C4407 C4408 1.383 . S
C4407 H4415 0.929 . S
C4408 C4407 1.383 . S
C4408 C4409 1.377 . S
C4409 H4393 0.930 . S
C4409 C4408 1.377 . S
C4409 C4410 1.379 . S
C4410 H4394 0.931 . S
C4410 C4404 1.383 . S
C4410 C4409 1.379 . S
H4411 C4405 0.959 . S
H4412 C4405 0.961 . S
H4413 C4405 0.960 . S
H4414 C4406 0.930 . S
H4415 C4407 0.929 . S
H4416 C4424 0.929 . S
H4417 C4426 0.930 . S
H4418 C4428 0.930 . S
H4419 C4431 0.929 . S
H4420 C4434 0.930 . S
H4421 C4436 0.960 . S
H4422 C4436 0.960 . S
H4423 C4436 0.960 . S
C4424 H4416 0.929 . S
C4424 C4425 1.377 . S
C4424 C4426 1.384 . S
C4425 C4424 1.377 . S
C4425 C4431 1.390 . S
C4426 H4417 0.930 . S
C4426 C4424 1.384 . S
C4426 C4427 1.372 . S
C4427 C4426 1.372 . S
C4427 C4428 1.400 . S
C4427 C4432 1.490 . S
C4428 H4418 0.930 . S
C4428 C4427 1.400 . S
C4428 C4431 1.386 . S
H4429 C4445 0.930 . S
H4430 C4446 0.931 . S
C4431 H4419 0.929 . S
C4431 C4425 1.390 . S
C4431 C4428 1.386 . S
C4432 C4427 1.490 . S
C4432 C4434 1.395 . S
C4432 C4435 1.403 . S
H4433 C4439 0.930 . S
C4434 H4420 0.930 . S
C4434 C4432 1.395 . S
C4434 C4437 1.403 . S
C4435 C4432 1.403 . S
C4435 C4436 1.524 . S
C4435 C4439 1.400 . S
C4436 H4421 0.960 . S
C4436 H4422 0.960 . S
C4436 H4423 0.960 . S
C4436 C4435 1.524 . S
C4437 C4434 1.403 . S
C4437 C4438 1.392 . S
C4437 C4441 1.495 . S
C4438 C4437 1.392 . S
C4438 C4439 1.385 . S
C4438 C4440 1.478 . S
C4439 H4433 0.930 . S
C4439 C4435 1.400 . S
C4439 C4438 1.385 . S
C4440 C4438 1.478 . S
C4440 C4442 1.381 . S
C4440 C4446 1.383 . S
C4441 C4437 1.495 . S
C4441 H4447 0.959 . S
C4441 H4448 0.961 . S
C4441 H4449 0.960 . S
C4442 C4440 1.381 . S
C4442 C4443 1.394 . S
C4442 H4450 0.930 . S
C4443 C4442 1.394 . S
C4443 C4444 1.383 . S
C4443 H4451 0.929 . S
C4444 C4443 1.383 . S
C4444 C4445 1.377 . S
C4445 H4429 0.930 . S
C4445 C4444 1.377 . S
C4445 C4446 1.379 . S
C4446 H4430 0.931 . S
C4446 C4440 1.383 . S
C4446 C4445 1.379 . S
H4447 C4441 0.959 . S
H4448 C4441 0.961 . S
H4449 C4441 0.960 . S
H4450 C4442 0.930 . S
H4451 C4443 0.929 . S
H4452 C4460 0.929 . S
H4453 C4462 0.930 1_455 S
H4454 C4464 0.930 . S
H4455 C4467 0.929 . S
H4456 C4470 0.930 . S
H4457 C4472 0.960 . S
H4458 C4472 0.960 . S
H4459 C4472 0.960 . S
C4460 H4452 0.929 . S
C4460 C4461 1.377 1_455 S
C4460 C4462 1.384 1_455 S
C4461 C4460 1.377 1_655 S
C4461 C4467 1.390 . S
C4462 H4453 0.930 1_655 S
C4462 C4460 1.384 1_655 S
C4462 C4463 1.372 . S
C4463 C4462 1.372 . S
C4463 C4464 1.400 . S
C4463 C4468 1.490 . S
C4464 H4454 0.930 . S
C4464 C4463 1.400 . S
C4464 C4467 1.386 . S
H4465 C4481 0.930 . S
H4466 C4482 0.931 . S
C4467 H4455 0.929 . S
C4467 C4461 1.390 . S
C4467 C4464 1.386 . S
C4468 C4463 1.490 . S
C4468 C4470 1.395 . S
C4468 C4471 1.403 . S
H4469 C4475 0.930 . S
C4470 H4456 0.930 . S
C4470 C4468 1.395 . S
C4470 C4473 1.403 . S
C4471 C4468 1.403 . S
C4471 C4472 1.524 . S
C4471 C4475 1.400 . S
C4472 H4457 0.960 . S
C4472 H4458 0.960 . S
C4472 H4459 0.960 . S
C4472 C4471 1.524 . S
C4473 C4470 1.403 . S
C4473 C4474 1.392 . S
C4473 C4477 1.495 . S
C4474 C4473 1.392 . S
C4474 C4475 1.385 . S
C4474 C4476 1.478 . S
C4475 H4469 0.930 . S
C4475 C4471 1.400 . S
C4475 C4474 1.385 . S
C4476 C4474 1.478 . S
C4476 C4478 1.381 . S
C4476 C4482 1.383 . S
C4477 C4473 1.495 . S
C4477 H4483 0.959 . S
C4477 H4484 0.961 . S
C4477 H4485 0.960 . S
C4478 C4476 1.381 . S
C4478 C4479 1.394 . S
C4478 H4486 0.930 . S
C4479 C4478 1.394 . S
C4479 C4480 1.383 . S
C4479 H4487 0.929 . S
C4480 C4479 1.383 . S
C4480 C4481 1.377 . S
C4481 H4465 0.930 . S
C4481 C4480 1.377 . S
C4481 C4482 1.379 . S
C4482 H4466 0.931 . S
C4482 C4476 1.383 . S
C4482 C4481 1.379 . S
H4483 C4477 0.959 . S
H4484 C4477 0.961 . S
H4485 C4477 0.960 . S
H4486 C4478 0.930 . S
H4487 C4479 0.929 . S
C1924 C1873 1.864 . S
C1905 C15 1.975 . S
C1960 C1756 1.821 . S
C1941 C55 1.632 . S
C1996 C1834 1.827 . S
C1977 C95 1.787 . S
C2032 C1795 2.136 . S
C2013 C135 2.086 . S
C2068 C1522 1.892 . S
C2049 C175 1.977 . S
C2085 C215 2.082 . S
C2104 C1561 2.151 . S
C2140 C1444 1.846 . S
C2121 C255 1.624 . S
C2157 C295 1.790 . S
C2176 C1483 1.840 . S
C2212 C1717 1.905 . S
C2193 C335 1.977 . S
C2229 C375 2.077 . S
C2248 C1639 2.153 . S
C2265 C415 1.629 . S
C2284 C1600 1.829 . S
C2320 C1678 1.843 . S
C2301 C455 1.789 . S
C2356 C1405 1.904 . S
C2337 C495 1.977 . S
C2373 C535 1.643 . S
C2392 C1288 1.859 . S
C2428 C1366 1.845 . S
C2409 C575 1.781 . S
C2445 C615 2.070 . S
C2464 C1327 2.131 . S
C2500 C1054 1.911 . S
C2481 C655 1.976 . S
C2536 C1093 2.144 . S
C2517 C695 2.087 . S
C2553 C735 1.629 . S
C2572 C976 1.806 . S
C2589 C775 1.786 . S
C2608 C1015 1.833 . S
C2625 C815 1.969 . S
C2644 C1249 1.878 . S
C2661 C855 2.077 . S
C2680 C1171 2.150 . S
C2716 C1132 1.818 . S
C2697 C895 1.630 . S
C2733 C935 1.778 . S
C2752 C1210 1.824 . S
C2788 C961 1.505 . S
C2769 C21 1.592 . S
C2824 C1000 0.952 . S
C2805 C61 0.924 . S
C2841 C101 1.184 . S
C2860 C1039 1.147 . S
C2877 C141 0.592 . S
C2896 C1078 0.583 . S
C2932 C1117 1.504 . S
C2913 C181 1.592 . S
C2949 C221 0.602 . S
C2968 C1156 0.602 . S
C3004 C1195 0.898 . S
C2985 C261 0.931 . S
C3040 C1234 1.172 . S
C3021 C301 1.177 . S
C3076 C1273 1.532 . S
C3057 C341 1.592 . S
C3093 C381 0.594 . S
C3112 C1312 0.582 . S
C3129 C421 0.931 . S
C3148 C1351 0.932 . S
C3165 C461 1.179 . S
C3184 C1390 1.162 . S
C3201 C501 1.539 . S
C3220 C1429 1.499 . S
C3237 C541 0.931 . S
C3256 C1468 0.912 . S
C3273 C581 1.088 . S
C3292 C1507 1.154 . S
C3309 C621 0.651 . S
C3328 C1546 0.569 . S
C3345 C661 1.539 . S
C3364 C1585 1.501 . S
C3400 C1624 0.597 . S
C3381 C701 0.650 . S
C3436 C1663 0.953 . S
C3417 C741 0.934 . S
C3472 C1702 1.158 . S
C3453 C781 1.089 . S
C3508 C1741 1.539 . S
C3489 C821 1.542 . S
C3525 C861 0.641 . S
C3544 C1780 0.610 . S
C3561 C901 0.933 . S
C3580 C1819 0.951 . S
C3597 C941 1.097 . S
C3616 C1858 1.179 . S
C3633 C2 2.092 . S
C3652 C1293 2.060 . S
C3688 C1410 2.056 . S
C3669 C42 1.995 . S
C3705 C82 1.453 . S
C3724 C1332 1.432 . S
C3760 C1371 2.242 . S
C3741 C122 2.221 . S
C3777 C162 2.092 . S
C3796 C981 2.057 . S
C3813 C202 2.215 . S
C3832 C1020 2.239 . S
C3849 C242 2.012 . S
C3868 C1059 2.074 . S
C3885 C282 1.456 . S
C3904 C1098 1.422 . S
C3940 C1137 2.054 . S
C3921 C322 2.093 . S
C3976 C1215 2.226 . S
C3957 C362 2.218 . S
C3993 C402 2.002 . S
C4012 C1254 2.043 . S
C4029 C442 1.455 . S
C4048 C1176 1.427 . S
C4084 C1761 2.038 . S
C4065 C482 2.080 . S
C4120 C1878 2.094 . S
C4101 C522 2.071 . S
C4137 C562 1.358 . S
C4156 C1800 1.431 . S
C4192 C1839 2.259 . S
C4173 C602 2.114 . S
C4209 C642 2.085 . S
C4228 C1449 2.058 . S
C4245 C682 2.108 . S
C4264 C1488 2.235 . S
C4281 C722 2.080 . S
C4300 C1527 2.089 . S
C4336 C1566 1.436 . S
C4317 C762 1.360 . S
C4372 C1605 2.036 . S
C4353 C802 2.080 . S
C4408 C1683 2.258 . S
C4389 C842 2.115 . S
C4425 C882 2.085 . S
C4444 C1722 2.082 . S
C4480 C1644 1.437 . S
C4461 C922 1.359 . S
