# Generated by pormake.
# Topology rtl, (3,6)-cn, num edge types: 1
# Building blocks:
#     Node 0, Type 0, BuildingBlock: KAKCAD_clean_linker_0, # of connection points: 3
#     Node 1, Type 0, BuildingBlock: KAKCAD_clean_linker_0, # of connection points: 3
#     Node 2, Type 0, BuildingBlock: KAKCAD_clean_linker_0, # of connection points: 3
#     Node 3, Type 0, BuildingBlock: KAKCAD_clean_linker_0, # of connection points: 3
#     Node 4, Type 1, BuildingBlock: CIFDUS_clean_sbu_1, # of connection points: 6
#     Node 5, Type 1, BuildingBlock: CIFDUS_clean_sbu_1, # of connection points: 6
#     Edge 6, Type (0, 1), BuildingBlock: FUNLAD_clean_linker_0, # of connection points: 2
#     Edge 7, Type (0, 1), BuildingBlock: FUNLAD_clean_linker_0, # of connection points: 2
#     Edge 8, Type (0, 1), BuildingBlock: FUNLAD_clean_linker_0, # of connection points: 2
#     Edge 9, Type (0, 1), BuildingBlock: FUNLAD_clean_linker_0, # of connection points: 2
#     Edge 10, Type (0, 1), BuildingBlock: FUNLAD_clean_linker_0, # of connection points: 2
#     Edge 11, Type (0, 1), BuildingBlock: FUNLAD_clean_linker_0, # of connection points: 2
#     Edge 12, Type (0, 1), BuildingBlock: FUNLAD_clean_linker_0, # of connection points: 2
#     Edge 13, Type (0, 1), BuildingBlock: FUNLAD_clean_linker_0, # of connection points: 2
#     Edge 14, Type (0, 1), BuildingBlock: FUNLAD_clean_linker_0, # of connection points: 2
#     Edge 15, Type (0, 1), BuildingBlock: FUNLAD_clean_linker_0, # of connection points: 2
#     Edge 16, Type (0, 1), BuildingBlock: FUNLAD_clean_linker_0, # of connection points: 2
#     Edge 17, Type (0, 1), BuildingBlock: FUNLAD_clean_linker_0, # of connection points: 2
# Relax obj value: 0.028
# Max RMSD: 0.063
# Mean RMSD: 0.048
data_MOF--net-rtl--node1-CIFDUS_clean_sbu_1--node2-KAKCAD_clean_linker_0--edge1-FUNLAD_clean_linker_0
_symmetry_space_group_name_H-M    P1
_symmetry_Int_Tables_number       1
_symmetry_cell_setting            triclinic
loop_
_symmetry_equiv_pos_as_xyz
'x, y, z'
_cell_length_a     42.361523
_cell_length_b     47.887918
_cell_length_c     33.427643
_cell_angle_alpha  89.829497
_cell_angle_beta   97.585029
_cell_angle_gamma 90.089428
loop_
_atom_site_label
_atom_site_type_symbol
_atom_site_fract_x
_atom_site_fract_y
_atom_site_fract_z
_atom_type_partial_charge
C0 C 0.19701 0.88373 0.94748 0.0
C1 C 0.19523 0.91266 0.94007 0.0
C2 C 0.21012 0.87341 0.98535 0.0
C3 C 0.22144 0.89179 0.01679 0.0
C4 C 0.21969 0.92068 0.00929 0.0
C5 C 0.20683 0.93097 0.97145 0.0
C6 C 0.2345 0.88103 0.05754 0.0
C7 C 0.25554 0.85819 0.0618 0.0
C8 C 0.26789 0.84794 0.10028 0.0
C9 C 0.25896 0.86119 0.13466 0.0
C10 C 0.23802 0.88414 0.13115 0.0
C11 C 0.22585 0.89374 0.09237 0.0
C12 C 0.22853 0.89784 0.1679 0.0
C13 C 0.22388 0.88197 0.20215 0.0
C14 C 0.2238 0.92691 0.16901 0.0
C15 C 0.21418 0.93965 0.20305 0.0
C16 C 0.20936 0.92374 0.23721 0.0
C17 C 0.28969 0.8232 0.10474 0.0
C18 C 0.28554 0.801 0.07698 0.0
C19 C 0.31433 0.82116 0.13738 0.0
C20 C 0.33361 0.79737 0.14268 0.0
C21 C 0.32922 0.77525 0.11504 0.0
C22 C 0.30521 0.77745 0.08191 0.0
C23 C 0.2147 0.89475 0.23636 0.0
H24 H 0.1885 0.86905 0.9239 0.0
H25 H 0.21089 0.85103 0.99023 0.0
H26 H 0.22844 0.93542 0.03271 0.0
H27 H 0.20552 0.95337 0.96698 0.0
H28 H 0.26282 0.84882 0.03503 0.0
H29 H 0.20885 0.91074 0.08913 0.0
H30 H 0.26822 0.85353 0.16437 0.0
H31 H 0.22683 0.85952 0.20244 0.0
H32 H 0.2276 0.93996 0.14357 0.0
H33 H 0.20997 0.96195 0.20217 0.0
H34 H 0.26657 0.80142 0.05188 0.0
H35 H 0.3189 0.83799 0.15892 0.0
H36 H 0.21181 0.88177 0.26219 0.0
H37 H 0.30106 0.76055 0.06036 0.0
H38 H 0.35217 0.79635 0.16825 0.0
C39 C 0.64725 0.68902 0.70307 0.0
C40 C 0.64389 0.65982 0.70282 0.0
C41 C 0.65835 0.70287 0.67085 0.0
C42 C 0.66622 0.68786 0.6375 0.0
C43 C 0.66335 0.6586 0.63747 0.0
C44 C 0.65243 0.6447 0.6699 0.0
C45 C 0.67672 0.70289 0.60259 0.0
C46 C 0.69862 0.725 0.60893 0.0
C47 C 0.70791 0.74008 0.57628 0.0
C48 C 0.69471 0.73291 0.53677 0.0
C49 C 0.67297 0.71069 0.52985 0.0
C50 C 0.66427 0.69569 0.56291 0.0
C51 C 0.65906 0.70314 0.48817 0.0
C52 C 0.64531 0.72363 0.46114 0.0
C53 C 0.65889 0.6752 0.47544 0.0
C54 C 0.6453 0.66789 0.43648 0.0
C55 C 0.63116 0.68829 0.40959 0.0
C56 C 0.73206 0.76273 0.58366 0.0
C57 C 0.73131 0.78161 0.61571 0.0
C58 C 0.75679 0.76496 0.55965 0.0
C59 C 0.78055 0.78519 0.56798 0.0
C60 C 0.78017 0.80373 0.6005 0.0
C61 C 0.75505 0.80192 0.62398 0.0
C62 C 0.63123 0.71624 0.42233 0.0
H63 H 0.64113 0.70122 0.72819 0.0
H64 H 0.66008 0.72544 0.67165 0.0
H65 H 0.66953 0.64645 0.61235 0.0
H66 H 0.6499 0.6222 0.66874 0.0
H67 H 0.70906 0.73002 0.63943 0.0
H68 H 0.64695 0.67896 0.55774 0.0
H69 H 0.70147 0.74451 0.51133 0.0
H70 H 0.64494 0.7453 0.4703 0.0
H71 H 0.66944 0.65901 0.49561 0.0
H72 H 0.64537 0.64616 0.42758 0.0
H73 H 0.71239 0.78064 0.63452 0.0
H74 H 0.75825 0.75062 0.53497 0.0
H75 H 0.62063 0.7324 0.40215 0.0
H76 H 0.75412 0.81578 0.64934 0.0
H77 H 0.79929 0.78629 0.54891 0.0
C78 C 0.80512 0.15622 0.14865 0.0
C79 C 0.8363 0.1455 0.15363 0.0
C80 C 0.79072 0.16537 0.11068 0.0
C81 C 0.80722 0.16411 0.07681 0.0
C82 C 0.83871 0.15408 0.08216 0.0
C83 C 0.85299 0.14484 0.11997 0.0
C84 C 0.79171 0.17276 0.03589 0.0
C85 C 0.77185 0.19644 0.03083 0.0
C86 C 0.75803 0.20507 0.99212 0.0
C87 C 0.76406 0.1895 0.95833 0.0
C88 C 0.78375 0.16579 0.96261 0.0
C89 C 0.79727 0.15754 1.00151 0.0
C90 C 0.79105 0.15033 0.92626 0.0
C91 C 0.76724 0.14545 0.89351 0.0
C92 C 0.82223 0.14126 0.9234 0.0
C93 C 0.82958 0.12827 0.88835 0.0
C94 C 0.80594 0.12399 0.85521 0.0
C95 C 0.73818 0.23084 0.98661 0.0
C96 C 0.71555 0.23688 0.01259 0.0
C97 C 0.74177 0.24966 0.95512 0.0
C98 C 0.72336 0.27393 0.94984 0.0
C99 C 0.70085 0.28009 0.97591 0.0
C100 C 0.69704 0.26117 0.00723 0.0
C101 C 0.77459 0.13245 0.85844 0.0
H102 H 0.79149 0.1568 0.17387 0.0
H103 H 0.76637 0.17274 0.10768 0.0
H104 H 0.85247 0.15342 0.05709 0.0
H105 H 0.87725 0.13722 0.12287 0.0
H106 H 0.76808 0.20878 0.05689 0.0
H107 H 0.81186 0.13891 0.00504 0.0
H108 H 0.7537 0.19611 0.92844 0.0
H109 H 0.74286 0.15173 0.89493 0.0
H110 H 0.84126 0.14503 0.94777 0.0
H111 H 0.85407 0.12246 0.88675 0.0
H112 H 0.71199 0.22273 0.03693 0.0
H113 H 0.75921 0.24587 0.93482 0.0
H114 H 0.75569 0.12911 0.83376 0.0
H115 H 0.68019 0.2654 0.02815 0.0
H116 H 0.72676 0.28788 0.92521 0.0
C117 C 0.33105 0.37679 0.39202 0.0
C118 C 0.36299 0.38559 0.39568 0.0
C119 C 0.31948 0.3625 0.42364 0.0
C120 C 0.33956 0.35664 0.45966 0.0
C121 C 0.3713 0.36597 0.46359 0.0
C122 C 0.38282 0.38033 0.43208 0.0
C123 C 0.32781 0.34019 0.4926 0.0
C124 C 0.30779 0.31702 0.48344 0.0
C125 C 0.29709 0.30087 0.51418 0.0
C126 C 0.30693 0.30811 0.55472 0.0
C127 C 0.32723 0.33106 0.56459 0.0
C128 C 0.33729 0.34707 0.53327 0.0
C129 C 0.33814 0.33834 0.6075 0.0
C130 C 0.31689 0.33775 0.63644 0.0
C131 C 0.36992 0.34634 0.61974 0.0
C132 C 0.38007 0.35399 0.65973 0.0
C133 C 0.35868 0.35389 0.68852 0.0
C134 C 0.27611 0.27621 0.50377 0.0
C135 C 0.25174 0.2772 0.47082 0.0
C136 C 0.28047 0.25139 0.52637 0.0
C137 C 0.26086 0.22824 0.51647 0.0
C138 C 0.23644 0.22923 0.48357 0.0
C139 C 0.23222 0.25401 0.4608 0.0
C140 C 0.32702 0.34546 0.67644 0.0
H141 H 0.31517 0.38033 0.36434 0.0
H142 H 0.29478 0.35595 0.4198 0.0
H143 H 0.38753 0.36164 0.49071 0.0
H144 H 0.4074 0.3872 0.43623 0.0
H145 H 0.30136 0.31096 0.45222 0.0
H146 H 0.35215 0.36526 0.54061 0.0
H147 H 0.29893 0.29578 0.57868 0.0
H148 H 0.29221 0.33187 0.62801 0.0
H149 H 0.38702 0.34668 0.59835 0.0
H150 H 0.40452 0.36061 0.66784 0.0
H151 H 0.24747 0.29606 0.45297 0.0
H152 H 0.29925 0.24971 0.55159 0.0
H153 H 0.31 0.34486 0.69791 0.0
H154 H 0.21386 0.25549 0.43508 0.0
H155 H 0.26454 0.2097 0.53512 0.0
O156 O 0.98267 0.03493 0.48981 0.0
Mn157 Mn 0.00728 0.02174 0.5453 0.0
O158 O 0.97422 0.99576 0.4524 0.0
Mn159 Mn 0.99354 0.97012 0.48987 0.0
O160 O 0.03227 0.00816 0.60032 0.0
O161 O 0.02626 0.05981 0.55354 0.0
Mn162 Mn 0.02405 0.07223 0.60248 0.0
O163 O 0.96827 0.03301 0.57507 0.0
O164 O 0.04735 0.04668 0.63647 0.0
O165 O 0.04671 0.01051 0.5161 0.0
O166 O 0.03708 0.96717 0.49176 0.0
O167 O 0.04382 0.09996 0.57597 0.0
O168 O 0.98105 0.07374 0.60682 0.0
C169 C 0.97166 0.96187 0.54308 0.0
C170 C 0.97207 0.02221 0.45677 0.0
C171 C 0.04709 0.02019 0.63181 0.0
C172 C 0.04042 0.08264 0.54611 0.0
C173 C 0.96134 0.05418 0.59602 0.0
C174 C 0.0556 0.98789 0.50005 0.0
O175 O 0.98792 0.98382 0.53701 0.0
O176 O 0.96991 0.94392 0.51405 0.0
O177 O 0.52164 0.55399 0.08507 0.0
Mn178 Mn 0.50337 0.52071 0.04765 0.0
O179 O 0.57066 0.54156 0.11353 0.0
Mn180 Mn 0.56389 0.5039 0.10496 0.0
O181 O 0.48532 0.48737 0.01017 0.0
O182 O 0.46131 0.54071 0.04041 0.0
Mn183 Mn 0.44208 0.53636 0.99094 0.0
O184 O 0.51632 0.54167 0.9976 0.0
O185 O 0.4353 0.49851 0.98435 0.0
O186 O 0.49005 0.49967 0.09756 0.0
O187 O 0.53568 0.48677 0.13567 0.0
O188 O 0.41595 0.55901 0.01689 0.0
O189 O 0.47012 0.55258 0.95894 0.0
C190 C 0.56887 0.48494 0.04818 0.0
C191 C 0.5486 0.55956 0.10612 0.0
C192 C 0.45807 0.48109 0.9904 0.0
C193 C 0.43868 0.5575 0.04672 0.0
C194 C 0.50058 0.55294 0.96611 0.0
C195 C 0.50527 0.48733 0.1285 0.0
O196 O 0.54548 0.50076 0.05484 0.0
O197 O 0.59087 0.48243 0.07871 0.0
C198 C 0.18198 0.20889 0.46255 0.0
C199 C 0.21481 0.20487 0.47411 0.0
C200 C 0.16118 0.1861 0.45731 0.0
C201 C 0.17272 0.15864 0.46345 0.0
C202 C 0.20562 0.15459 0.47364 0.0
C203 C 0.22645 0.17738 0.47864 0.0
C204 C 0.15094 0.1344 0.4655 0.0
C205 C 0.12038 0.13401 0.44793 0.0
C206 C 0.09621 0.11528 0.46239 0.0
C207 C 0.06568 0.12617 0.46414 0.0
C208 C 0.0452 0.11322 0.48795 0.0
C209 C 0.05457 0.08877 0.50937 0.0
H210 H 0.12693 0.07949 0.47807 0.0
C211 C 0.08326 0.07585 0.50349 0.0
C212 C 0.10401 0.08899 0.48001 0.0
H213 H 0.0911 0.05716 0.52025 0.0
H214 H 0.17204 0.22972 0.45944 0.0
H215 H 0.13595 0.19032 0.45078 0.0
H216 H 0.21517 0.13373 0.47887 0.0
H217 H 0.25164 0.17344 0.48684 0.0
H218 H 0.15972 0.11762 0.48589 0.0
H219 H 0.11169 0.15076 0.42745 0.0
H220 H 0.05889 0.1462 0.4505 0.0
H221 H 0.0233 0.12368 0.49255 0.0
C222 C 0.36336 0.73838 0.08924 0.0
C223 C 0.34901 0.74961 0.12115 0.0
C224 C 0.38042 0.71334 0.09424 0.0
C225 C 0.38322 0.69879 0.13123 0.0
C226 C 0.3691 0.71019 0.16322 0.0
C227 C 0.35252 0.73552 0.15843 0.0
C228 C 0.39748 0.67036 0.13547 0.0
C229 C 0.42121 0.66212 0.11501 0.0
C230 C 0.43028 0.63237 0.10987 0.0
C231 C 0.45859 0.62657 0.09373 0.0
C232 C 0.46382 0.60016 0.07798 0.0
C233 C 0.44083 0.57907 0.07816 0.0
H234 H 0.3865 0.61376 0.12518 0.0
C235 C 0.41404 0.58398 0.0977 0.0
C236 C 0.40883 0.6103 0.11362 0.0
H237 H 0.39556 0.56825 0.09718 0.0
H238 H 0.36104 0.74882 0.0602 0.0
H239 H 0.3902 0.70484 0.06854 0.0
H240 H 0.37049 0.69924 0.19181 0.0
H241 H 0.34145 0.74358 0.18343 0.0
H242 H 0.38722 0.65569 0.15497 0.0
H243 H 0.43317 0.67773 0.0987 0.0
H244 H 0.4755 0.64312 0.09028 0.0
H245 H 0.48407 0.59731 0.06174 0.0
C246 C 0.79976 0.85211 0.62064 0.0
C247 C 0.80624 0.82448 0.61008 0.0
C248 C 0.82434 0.87185 0.62749 0.0
C249 C 0.85599 0.86432 0.62384 0.0
C250 C 0.86244 0.8364 0.61498 0.0
C251 C 0.83796 0.81678 0.6081 0.0
C252 C 0.88287 0.88469 0.62645 0.0
C253 C 0.87966 0.91275 0.625 0.0
C254 C 0.9059 0.93126 0.61514 0.0
C255 C 0.89807 0.95484 0.59074 0.0
C256 C 0.92124 0.96795 0.57105 0.0
C257 C 0.95258 0.95794 0.5761 0.0
H258 H 0.94539 0.9065 0.64442 0.0
C259 C 0.96129 0.93679 0.60444 0.0
C260 C 0.9382 0.92375 0.6243 0.0
H261 H 0.98534 0.92861 0.60844 0.0
H262 H 0.77555 0.85869 0.62254 0.0
H263 H 0.81819 0.89289 0.63508 0.0
H264 H 0.88653 0.8298 0.61229 0.0
H265 H 0.84392 0.79553 0.60099 0.0
H266 H 0.90617 0.87579 0.6245 0.0
H267 H 0.85629 0.9221 0.62422 0.0
H268 H 0.87349 0.9614 0.58367 0.0
H269 H 0.91396 0.98399 0.5488 0.0
C270 C 0.64995 0.30741 0.97651 0.0
C271 C 0.68237 0.30665 0.9713 0.0
C272 C 0.63319 0.33273 0.97398 0.0
C273 C 0.64856 0.35791 0.96621 0.0
C274 C 0.68078 0.35697 0.96039 0.0
C275 C 0.69743 0.33173 0.96273 0.0
C276 C 0.63325 0.38582 0.96811 0.0
C277 C 0.60153 0.39038 0.96489 0.0
C278 C 0.58801 0.41783 0.97518 0.0
C279 C 0.55928 0.41822 0.99198 0.0
C280 C 0.55003 0.44223 0.01129 0.0
C281 C 0.56917 0.46625 0.01355 0.0
H282 H 0.6262 0.44411 0.95858 0.0
C283 C 0.5957 0.46694 0.99255 0.0
C284 C 0.60483 0.44308 0.97302 0.0
H285 H 0.61099 0.48518 0.99428 0.0
H286 H 0.63756 0.28844 0.98288 0.0
H287 H 0.60863 0.33249 0.97961 0.0
H288 H 0.6934 0.376 0.95482 0.0
H289 H 0.72246 0.33205 0.9591 0.0
H290 H 0.64947 0.40325 0.97474 0.0
H291 H 0.58512 0.37302 0.95881 0.0
H292 H 0.5455 0.39926 0.99347 0.0
H293 H 0.52983 0.44101 0.02802 0.0
C294 C 0.1769 0.92282 0.29517 0.0
C295 C 0.19799 0.93712 0.27308 0.0
C296 C 0.16568 0.93531 0.32827 0.0
C297 C 0.17505 0.96257 0.34016 0.0
C298 C 0.19577 0.97707 0.31798 0.0
C299 C 0.2074 0.96441 0.28511 0.0
C300 C 0.16152 0.97675 0.37364 0.0
C301 C 0.15425 0.96258 0.40614 0.0
C302 C 0.13454 0.97345 0.43657 0.0
C303 C 0.12791 0.95508 0.46725 0.0
C304 C 0.10416 0.96124 0.49106 0.0
C305 C 0.0868 0.98615 0.48525 0.0
H306 H 0.1233 0.01453 0.41019 0.0
C307 C 0.09537 0.00587 0.45744 0.0
C308 C 0.11901 0.99958 0.43314 0.0
H309 H 0.08185 0.02499 0.45185 0.0
H310 H 0.16828 0.90216 0.28632 0.0
H311 H 0.14878 0.92386 0.34367 0.0
H312 H 0.2031 0.99819 0.32622 0.0
H313 H 0.22387 0.97604 0.26926 0.0
H314 H 0.157 0.99898 0.37059 0.0
H315 H 0.16141 0.94081 0.4093 0.0
H316 H 0.13954 0.93492 0.47099 0.0
H317 H 0.09782 0.94561 0.51214 0.0
C318 C 0.6032 0.65642 0.75046 0.0
C319 C 0.63023 0.64544 0.73604 0.0
C320 C 0.58977 0.64298 0.78126 0.0
C321 C 0.6033 0.61823 0.79893 0.0
C322 C 0.6303 0.60721 0.78427 0.0
C323 C 0.6436 0.6206 0.75314 0.0
C324 C 0.58939 0.60274 0.83137 0.0
C325 C 0.56649 0.61315 0.85151 0.0
C326 C 0.55059 0.59685 0.88099 0.0
C327 C 0.51874 0.60302 0.88451 0.0
C328 C 0.5026 0.58852 0.91182 0.0
C329 C 0.51814 0.56783 0.93701 0.0
H330 H 0.59114 0.57135 0.90484 0.0
C331 C 0.55028 0.56191 0.93414 0.0
C332 C 0.56635 0.57617 0.90615 0.0
H333 H 0.56292 0.54614 0.95326 0.0
H334 H 0.59193 0.67519 0.73727 0.0
H335 H 0.56844 0.65203 0.79013 0.0
H336 H 0.64117 0.58812 0.79692 0.0
H337 H 0.66452 0.61167 0.74271 0.0
H338 H 0.59789 0.58164 0.83812 0.0
H339 H 0.55741 0.63403 0.84509 0.0
H340 H 0.50613 0.619 0.86573 0.0
H341 H 0.47796 0.59383 0.91353 0.0
C342 C 0.8684 0.10902 0.19485 0.0
C343 C 0.85116 0.13412 0.19327 0.0
C344 C 0.88255 0.09807 0.23168 0.0
C345 C 0.88027 0.11214 0.26819 0.0
C346 C 0.86253 0.13701 0.26668 0.0
C347 C 0.84815 0.14791 0.22969 0.0
C348 C 0.89484 0.1008 0.3082 0.0
C349 C 0.91895 0.08219 0.31215 0.0
C350 C 0.93172 0.0679 0.35051 0.0
C351 C 0.94478 0.04122 0.34774 0.0
C352 C 0.95741 0.02662 0.38227 0.0
C353 C 0.95801 0.03848 0.42081 0.0
H354 H 0.92289 0.10083 0.39216 0.0
C355 C 0.94549 0.0655 0.42384 0.0
C356 C 0.93217 0.08003 0.38897 0.0
H357 H 0.94576 0.07528 0.45305 0.0
H358 H 0.87047 0.09745 0.16752 0.0
H359 H 0.89458 0.07821 0.23115 0.0
H360 H 0.85993 0.14817 0.2942 0.0
H361 H 0.83505 0.16732 0.22956 0.0
H362 H 0.88497 0.10766 0.33489 0.0
H363 H 0.92912 0.07568 0.28556 0.0
H364 H 0.94498 0.03141 0.31859 0.0
H365 H 0.96717 0.00604 0.37855 0.0
C366 C 0.39921 0.35648 0.75094 0.0
C367 C 0.36907 0.36359 0.73053 0.0
C368 C 0.40938 0.36671 0.78977 0.0
C369 C 0.38964 0.38451 0.80899 0.0
C370 C 0.35928 0.39103 0.78881 0.0
C371 C 0.34915 0.38079 0.75016 0.0
C372 C 0.39944 0.39737 0.84938 0.0
C373 C 0.42935 0.39749 0.86938 0.0
C374 C 0.43836 0.41447 0.90651 0.0
C375 C 0.4694 0.42537 0.91441 0.0
C376 C 0.47699 0.44538 0.94469 0.0
C377 C 0.45367 0.45463 0.96777 0.0
H378 H 0.39239 0.41282 0.92875 0.0
C379 C 0.42357 0.44182 0.96243 0.0
C380 C 0.41607 0.42173 0.93245 0.0
H381 H 0.40523 0.44847 0.98005 0.0
H382 H 0.41495 0.34288 0.73694 0.0
H383 H 0.43263 0.36052 0.80428 0.0
H384 H 0.34344 0.40462 0.80269 0.0
H385 H 0.32595 0.38698 0.73525 0.0
H386 H 0.38118 0.40924 0.86172 0.0
H387 H 0.4485 0.3875 0.85627 0.0
H388 H 0.48722 0.41988 0.89533 0.0
H389 H 0.50016 0.45529 0.94761 0.0
C390 C 0.6324 0.66265 0.34459 0.0
C391 C 0.6162 0.68024 0.36854 0.0
C392 C 0.6179 0.6539 0.30672 0.0
C393 C 0.58671 0.66242 0.29196 0.0
C394 C 0.57052 0.68003 0.31591 0.0
C395 C 0.58526 0.68914 0.35362 0.0
C396 C 0.56983 0.65116 0.25347 0.0
C397 C 0.58531 0.64473 0.22196 0.0
C398 C 0.57194 0.62768 0.18633 0.0
C399 C 0.59297 0.6193 0.15949 0.0
C400 C 0.58416 0.5988 0.13058 0.0
C401 C 0.55388 0.58648 0.12731 0.0
H402 H 0.52327 0.62302 0.2001 0.0
C403 C 0.53167 0.59656 0.15139 0.0
C404 C 0.54057 0.617 0.18073 0.0
H405 H 0.50835 0.58702 0.14993 0.0
H406 H 0.65627 0.65548 0.35532 0.0
H407 H 0.6308 0.63965 0.28973 0.0
H408 H 0.54635 0.68657 0.30554 0.0
H409 H 0.57209 0.70246 0.37165 0.0
H410 H 0.5445 0.64738 0.25216 0.0
H411 H 0.6103 0.65047 0.22375 0.0
H412 H 0.61713 0.62725 0.1626 0.0
H413 H 0.60177 0.59131 0.11244 0.0
C414 C 0.83667 0.0903 0.81726 0.0
C415 C 0.81437 0.11207 0.81683 0.0
C416 C 0.8467 0.08088 0.78137 0.0
C417 C 0.83451 0.09297 0.74402 0.0
C418 C 0.81154 0.11414 0.74357 0.0
C419 C 0.80151 0.12351 0.77942 0.0
C420 C 0.84766 0.08653 0.70581 0.0
C421 C 0.86506 0.06363 0.70006 0.0
C422 C 0.88421 0.06054 0.66586 0.0
C423 C 0.89672 0.03418 0.65811 0.0
C424 C 0.91982 0.03145 0.63193 0.0
C425 C 0.93096 0.05511 0.61321 0.0
H426 H 0.88556 0.10467 0.65001 0.0
C427 C 0.91691 0.08111 0.61871 0.0
C428 C 0.89384 0.08385 0.64465 0.0
H429 H 0.92531 0.09975 0.60494 0.0
H430 H 0.84686 0.08083 0.8455 0.0
H431 H 0.86494 0.06498 0.78344 0.0
H432 H 0.80196 0.12409 0.71543 0.0
H433 H 0.78461 0.14056 0.7779 0.0
H434 H 0.8435 0.10201 0.68193 0.0
H435 H 0.86678 0.0469 0.72221 0.0
H436 H 0.88999 0.01586 0.67412 0.0
H437 H 0.93087 0.01132 0.62916 0.0
C438 C 0.40666 0.39272 0.35279 0.0
C439 C 0.37596 0.39937 0.36133 0.0
C440 C 0.41919 0.40554 0.3208 0.0
C441 C 0.40114 0.42514 0.29597 0.0
C442 C 0.37054 0.43198 0.30467 0.0
C443 C 0.358 0.41916 0.33685 0.0
C444 C 0.41413 0.43971 0.26218 0.0
C445 C 0.43801 0.42919 0.24388 0.0
C446 C 0.45395 0.44453 0.21344 0.0
C447 C 0.48579 0.438 0.21038 0.0
C448 C 0.50227 0.45198 0.18292 0.0
C449 C 0.48713 0.47256 0.15716 0.0
H450 H 0.41373 0.47003 0.18828 0.0
C451 C 0.45495 0.47872 0.15939 0.0
C452 C 0.4385 0.46493 0.18745 0.0
H453 H 0.44258 0.49438 0.1398 0.0
H454 H 0.4211 0.37742 0.37075 0.0
H455 H 0.4433 0.40032 0.31639 0.0
H456 H 0.35626 0.44728 0.28649 0.0
H457 H 0.33443 0.42507 0.34292 0.0
H458 H 0.40404 0.4599 0.25283 0.0
H459 H 0.44776 0.40885 0.25288 0.0
H460 H 0.49819 0.42224 0.22979 0.0
H461 H 0.52692 0.44646 0.18174 0.0
C462 C 0.15285 0.91276 0.87941 0.0
C463 C 0.18117 0.92391 0.90001 0.0
C464 C 0.13865 0.92463 0.84302 0.0
C465 C 0.15268 0.94785 0.82617 0.0
C466 C 0.18137 0.95845 0.84641 0.0
C467 C 0.19542 0.94669 0.88275 0.0
C468 C 0.13763 0.96292 0.78929 0.0
C469 C 0.11219 0.95386 0.76392 0.0
C470 C 0.09656 0.97103 0.72947 0.0
C471 C 0.07853 0.95785 0.69644 0.0
C472 C 0.06277 0.97359 0.66436 0.0
C473 C 0.06441 1.00294 0.66481 0.0
H474 H 0.11051 0.01157 0.75528 0.0
C475 C 0.08231 0.01605 0.69803 0.0
C476 C 0.09799 1.00039 0.72991 0.0
H477 H 0.08399 0.03857 0.6998 0.0
H478 H 0.14107 0.8954 0.89211 0.0
H479 H 0.11633 0.91596 0.82908 0.0
H480 H 0.19284 0.97627 0.83437 0.0
H481 H 0.21747 0.95557 0.89746 0.0
H482 H 0.14844 0.98271 0.78281 0.0
H483 H 0.10257 0.93318 0.76778 0.0
H484 H 0.07663 0.9353 0.69545 0.0
H485 H 0.04903 0.96275 0.63945 0.0
loop_
_geom_bond_atom_site_label_1
_geom_bond_atom_site_label_2
_geom_bond_distance
_geom_bond_site_symmetry_2
_ccdc_geom_bond_type
C0 C1 1.386 . S
C0 C2 1.397 . S
C0 H24 0.931 . S
C1 C0 1.386 . S
C1 C5 1.397 . S
C2 C0 1.397 . S
C2 C3 1.384 1_556 S
C2 H25 0.930 . S
C3 C2 1.384 1_554 S
C3 C4 1.377 . S
C3 C6 1.481 . S
C4 C3 1.377 . S
C4 C5 1.389 1_554 S
C4 H26 0.929 . S
C5 C1 1.397 . S
C5 C4 1.389 1_556 S
C5 H27 0.931 . S
C6 C3 1.481 . S
C6 C7 1.387 . S
C6 C11 1.390 . S
C7 C6 1.387 . S
C7 C8 1.401 . S
C7 H28 0.930 . S
C8 C7 1.401 . S
C8 C9 1.376 . S
C8 C17 1.511 . S
C9 C8 1.376 . S
C9 C10 1.392 . S
C9 H30 0.931 . S
C10 C9 1.392 . S
C10 C11 1.361 . S
C10 C12 1.500 . S
C11 C6 1.390 . S
C11 C10 1.361 . S
C11 H29 0.931 . S
C12 C10 1.500 . S
C12 C13 1.371 . S
C12 C14 1.365 . S
C13 C12 1.371 . S
C13 C23 1.386 . S
C13 H31 0.931 . S
C14 C12 1.365 . S
C14 C15 1.409 . S
C14 H32 0.929 . S
C15 C14 1.409 . S
C15 C16 1.380 . S
C15 H33 0.930 . S
C16 C15 1.380 . S
C16 C23 1.357 . S
C17 C8 1.511 . S
C17 C18 1.341 . S
C17 C19 1.371 . S
C18 C17 1.341 . S
C18 C22 1.394 . S
C18 H34 0.930 . S
C19 C17 1.371 . S
C19 C20 1.392 . S
C19 H35 0.931 . S
C20 C19 1.392 . S
C20 C21 1.331 . S
C20 H38 0.932 . S
C21 C20 1.331 . S
C21 C22 1.336 . S
C22 C18 1.394 . S
C22 C21 1.336 . S
C22 H37 0.929 . S
C23 C13 1.386 . S
C23 C16 1.357 . S
C23 H36 0.928 . S
H24 C0 0.931 . S
H25 C2 0.930 . S
H26 C4 0.929 . S
H27 C5 0.931 . S
H28 C7 0.930 . S
H29 C11 0.931 . S
H30 C9 0.931 . S
H31 C13 0.931 . S
H32 C14 0.929 . S
H33 C15 0.930 . S
H34 C18 0.930 . S
H35 C19 0.931 . S
H36 C23 0.928 . S
H37 C22 0.929 . S
H38 C20 0.932 . S
C39 C40 1.386 . S
C39 C41 1.397 . S
C39 H63 0.931 . S
C40 C39 1.386 . S
C40 C44 1.397 . S
C41 C39 1.397 . S
C41 C42 1.384 . S
C41 H64 0.930 . S
C42 C41 1.384 . S
C42 C43 1.377 . S
C42 C45 1.481 . S
C43 C42 1.377 . S
C43 C44 1.389 . S
C43 H65 0.929 . S
C44 C40 1.397 . S
C44 C43 1.389 . S
C44 H66 0.931 . S
C45 C42 1.481 . S
C45 C46 1.387 . S
C45 C50 1.390 . S
C46 C45 1.387 . S
C46 C47 1.401 . S
C46 H67 0.930 . S
C47 C46 1.401 . S
C47 C48 1.376 . S
C47 C56 1.511 . S
C48 C47 1.376 . S
C48 C49 1.392 . S
C48 H69 0.931 . S
C49 C48 1.392 . S
C49 C50 1.361 . S
C49 C51 1.500 . S
C50 C45 1.390 . S
C50 C49 1.361 . S
C50 H68 0.931 . S
C51 C49 1.500 . S
C51 C52 1.371 . S
C51 C53 1.365 . S
C52 C51 1.371 . S
C52 C62 1.386 . S
C52 H70 0.931 . S
C53 C51 1.365 . S
C53 C54 1.409 . S
C53 H71 0.929 . S
C54 C53 1.409 . S
C54 C55 1.380 . S
C54 H72 0.930 . S
C55 C54 1.380 . S
C55 C62 1.357 . S
C56 C47 1.511 . S
C56 C57 1.341 . S
C56 C58 1.371 . S
C57 C56 1.341 . S
C57 C61 1.394 . S
C57 H73 0.930 . S
C58 C56 1.371 . S
C58 C59 1.392 . S
C58 H74 0.931 . S
C59 C58 1.392 . S
C59 C60 1.331 . S
C59 H77 0.932 . S
C60 C59 1.331 . S
C60 C61 1.336 . S
C61 C57 1.394 . S
C61 C60 1.336 . S
C61 H76 0.929 . S
C62 C52 1.386 . S
C62 C55 1.357 . S
C62 H75 0.928 . S
H63 C39 0.931 . S
H64 C41 0.930 . S
H65 C43 0.929 . S
H66 C44 0.931 . S
H67 C46 0.930 . S
H68 C50 0.931 . S
H69 C48 0.931 . S
H70 C52 0.931 . S
H71 C53 0.929 . S
H72 C54 0.930 . S
H73 C57 0.930 . S
H74 C58 0.931 . S
H75 C62 0.928 . S
H76 C61 0.929 . S
H77 C59 0.932 . S
C78 C79 1.386 . S
C78 C80 1.397 . S
C78 H102 0.931 . S
C79 C78 1.386 . S
C79 C83 1.397 . S
C80 C78 1.397 . S
C80 C81 1.384 . S
C80 H103 0.930 . S
C81 C80 1.384 . S
C81 C82 1.377 . S
C81 C84 1.481 . S
C82 C81 1.377 . S
C82 C83 1.389 . S
C82 H104 0.929 . S
C83 C79 1.397 . S
C83 C82 1.389 . S
C83 H105 0.931 . S
C84 C81 1.481 . S
C84 C85 1.387 . S
C84 C89 1.390 . S
C85 C84 1.387 . S
C85 C86 1.401 1_554 S
C85 H106 0.930 . S
C86 C85 1.401 1_556 S
C86 C87 1.376 . S
C86 C95 1.511 . S
C87 C86 1.376 . S
C87 C88 1.392 . S
C87 H108 0.931 . S
C88 C87 1.392 . S
C88 C89 1.361 1_556 S
C88 C90 1.500 . S
C89 C84 1.390 . S
C89 C88 1.361 1_554 S
C89 H107 0.931 . S
C90 C88 1.500 . S
C90 C91 1.371 . S
C90 C92 1.365 . S
C91 C90 1.371 . S
C91 C101 1.386 . S
C91 H109 0.931 . S
C92 C90 1.365 . S
C92 C93 1.409 . S
C92 H110 0.929 . S
C93 C92 1.409 . S
C93 C94 1.380 . S
C93 H111 0.930 . S
C94 C93 1.380 . S
C94 C101 1.357 . S
C95 C86 1.511 . S
C95 C96 1.341 1_556 S
C95 C97 1.371 . S
C96 C95 1.341 1_554 S
C96 C100 1.394 . S
C96 H112 0.930 . S
C97 C95 1.371 . S
C97 C98 1.392 . S
C97 H113 0.931 . S
C98 C97 1.392 . S
C98 C99 1.331 . S
C98 H116 0.932 . S
C99 C98 1.331 . S
C99 C100 1.336 1_556 S
C100 C96 1.394 . S
C100 C99 1.336 1_554 S
C100 H115 0.929 . S
C101 C91 1.386 . S
C101 C94 1.357 . S
C101 H114 0.928 . S
H102 C78 0.931 . S
H103 C80 0.930 . S
H104 C82 0.929 . S
H105 C83 0.931 . S
H106 C85 0.930 . S
H107 C89 0.931 . S
H108 C87 0.931 . S
H109 C91 0.931 . S
H110 C92 0.929 . S
H111 C93 0.930 . S
H112 C96 0.930 . S
H113 C97 0.931 . S
H114 C101 0.928 . S
H115 C100 0.929 . S
H116 C98 0.932 . S
C117 C118 1.386 . S
C117 C119 1.397 . S
C117 H141 0.931 . S
C118 C117 1.386 . S
C118 C122 1.397 . S
C119 C117 1.397 . S
C119 C120 1.384 . S
C119 H142 0.930 . S
C120 C119 1.384 . S
C120 C121 1.377 . S
C120 C123 1.481 . S
C121 C120 1.377 . S
C121 C122 1.389 . S
C121 H143 0.929 . S
C122 C118 1.397 . S
C122 C121 1.389 . S
C122 H144 0.931 . S
C123 C120 1.481 . S
C123 C124 1.387 . S
C123 C128 1.390 . S
C124 C123 1.387 . S
C124 C125 1.401 . S
C124 H145 0.930 . S
C125 C124 1.401 . S
C125 C126 1.376 . S
C125 C134 1.511 . S
C126 C125 1.376 . S
C126 C127 1.392 . S
C126 H147 0.931 . S
C127 C126 1.392 . S
C127 C128 1.361 . S
C127 C129 1.500 . S
C128 C123 1.390 . S
C128 C127 1.361 . S
C128 H146 0.931 . S
C129 C127 1.500 . S
C129 C130 1.371 . S
C129 C131 1.365 . S
C130 C129 1.371 . S
C130 C140 1.386 . S
C130 H148 0.931 . S
C131 C129 1.365 . S
C131 C132 1.409 . S
C131 H149 0.929 . S
C132 C131 1.409 . S
C132 C133 1.380 . S
C132 H150 0.930 . S
C133 C132 1.380 . S
C133 C140 1.357 . S
C134 C125 1.511 . S
C134 C135 1.341 . S
C134 C136 1.371 . S
C135 C134 1.341 . S
C135 C139 1.394 . S
C135 H151 0.930 . S
C136 C134 1.371 . S
C136 C137 1.392 . S
C136 H152 0.931 . S
C137 C136 1.392 . S
C137 C138 1.331 . S
C137 H155 0.932 . S
C138 C137 1.331 . S
C138 C139 1.336 . S
C139 C135 1.394 . S
C139 C138 1.336 . S
C139 H154 0.929 . S
C140 C130 1.386 . S
C140 C133 1.357 . S
C140 H153 0.928 . S
H141 C117 0.931 . S
H142 C119 0.930 . S
H143 C121 0.929 . S
H144 C122 0.931 . S
H145 C124 0.930 . S
H146 C128 0.931 . S
H147 C126 0.931 . S
H148 C130 0.931 . S
H149 C131 0.929 . S
H150 C132 0.930 . S
H151 C135 0.930 . S
H152 C136 0.931 . S
H153 C140 0.928 . S
H154 C139 0.929 . S
H155 C137 0.932 . S
O156 Mn157 2.163 1_655 S
O156 C170 1.244 . S
Mn157 O156 2.163 1_455 S
Mn157 O160 2.160 1_545 S
Mn157 O161 2.221 . S
Mn157 O163 2.163 1_455 S
Mn157 O165 2.160 1_545 S
Mn157 O175 2.221 1_445 S
O158 Mn159 2.087 1_545 S
O158 C170 1.256 . S
Mn159 O158 2.087 1_565 S
Mn159 O166 2.089 1_655 S
Mn159 O175 2.290 . S
Mn159 O176 2.251 . S
O160 Mn157 2.160 1_565 S
O160 C171 1.239 . S
O161 Mn157 2.221 . S
O161 Mn162 2.290 . S
O161 C172 1.278 . S
Mn162 O161 2.290 . S
Mn162 O164 2.089 . S
Mn162 O167 2.251 . S
Mn162 O168 2.087 1_455 S
O163 Mn157 2.163 1_655 S
O163 C173 1.244 . S
O164 Mn162 2.089 . S
O164 C171 1.256 1_545 S
O165 Mn157 2.160 1_565 S
O165 C174 1.239 . S
O166 Mn159 2.089 1_455 S
O166 C174 1.256 . S
O167 Mn162 2.251 . S
O167 C172 1.241 . S
O168 Mn162 2.087 1_655 S
O168 C173 1.256 . S
C169 O175 1.278 . S
C169 O176 1.241 . S
C170 O156 1.244 . S
C170 O158 1.256 . S
C171 O160 1.239 . S
C171 O164 1.256 1_565 S
C172 O161 1.278 . S
C172 O167 1.241 . S
C173 O163 1.244 . S
C173 O168 1.256 . S
C174 O165 1.239 . S
C174 O166 1.256 . S
O175 Mn157 2.221 1_665 S
O175 Mn159 2.290 . S
O175 C169 1.278 . S
O176 Mn159 2.251 . S
O176 C169 1.241 . S
O177 Mn178 2.163 . S
O177 C191 1.244 . S
Mn178 O177 2.163 . S
Mn178 O181 2.160 1_554 S
Mn178 O182 2.221 . S
Mn178 O184 2.154 1_554 S
Mn178 O186 2.160 . S
Mn178 O196 2.221 . S
O179 Mn180 2.087 . S
O179 C191 1.256 . S
Mn180 O179 2.087 . S
Mn180 O187 2.089 . S
Mn180 O196 2.290 . S
Mn180 O197 2.251 . S
O181 Mn178 2.160 1_556 S
O181 C192 1.239 . S
O182 Mn178 2.221 . S
O182 Mn183 2.290 1_554 S
O182 C193 1.278 . S
Mn183 O182 2.290 1_556 S
Mn183 O185 2.089 . S
Mn183 O188 2.251 1_556 S
Mn183 O189 2.087 . S
O184 Mn178 2.154 1_556 S
O184 C194 1.254 . S
O185 Mn183 2.089 . S
O185 C192 1.256 . S
O186 Mn178 2.160 . S
O186 C195 1.239 . S
O187 Mn180 2.089 . S
O187 C195 1.256 . S
O188 Mn183 2.251 1_554 S
O188 C193 1.241 . S
O189 Mn183 2.087 . S
O189 C194 1.256 . S
C190 O196 1.278 . S
C190 O197 1.241 . S
C191 O177 1.244 . S
C191 O179 1.256 . S
C192 O181 1.239 . S
C192 O185 1.256 . S
C193 O182 1.278 . S
C193 O188 1.241 . S
C194 O184 1.254 . S
C194 O189 1.256 . S
C195 O186 1.239 . S
C195 O187 1.256 . S
O196 Mn178 2.221 . S
O196 Mn180 2.290 . S
O196 C190 1.278 . S
O197 Mn180 2.251 . S
O197 C190 1.241 . S
C198 C199 1.386 . S
C198 C200 1.383 . S
C198 H214 0.951 . S
C199 C198 1.386 . S
C199 C203 1.383 . S
C200 C198 1.383 . S
C200 C201 1.402 . S
C200 H215 0.951 . S
C201 C200 1.402 . S
C201 C202 1.375 . S
C201 C204 1.481 . S
C202 C201 1.375 . S
C202 C203 1.367 . S
C202 H216 0.951 . S
C203 C199 1.383 . S
C203 C202 1.367 . S
C203 H217 0.950 . S
C204 C201 1.481 . S
C204 C205 1.297 . S
C204 H218 0.950 . S
C205 C204 1.297 . S
C205 C206 1.479 . S
C205 H219 0.950 . S
C206 C205 1.479 . S
C206 C207 1.375 . S
C206 C212 1.404 . S
C207 C206 1.375 . S
C207 C208 1.369 . S
C207 H220 0.950 . S
C208 C207 1.369 . S
C208 C209 1.392 . S
C208 H221 0.951 . S
C209 C208 1.392 . S
C209 C211 1.384 . S
H210 C212 0.949 . S
C211 C209 1.384 . S
C211 C212 1.385 . S
C211 H213 0.950 . S
C212 C206 1.404 . S
C212 H210 0.949 . S
C212 C211 1.385 . S
H213 C211 0.950 . S
H214 C198 0.951 . S
H215 C200 0.951 . S
H216 C202 0.951 . S
H217 C203 0.950 . S
H218 C204 0.950 . S
H219 C205 0.950 . S
H220 C207 0.950 . S
H221 C208 0.951 . S
C222 C223 1.386 . S
C222 C224 1.383 . S
C222 H238 0.951 . S
C223 C222 1.386 . S
C223 C227 1.383 . S
C224 C222 1.383 . S
C224 C225 1.402 . S
C224 H239 0.951 . S
C225 C224 1.402 . S
C225 C226 1.375 . S
C225 C228 1.481 . S
C226 C225 1.375 . S
C226 C227 1.367 . S
C226 H240 0.951 . S
C227 C223 1.383 . S
C227 C226 1.367 . S
C227 H241 0.950 . S
C228 C225 1.481 . S
C228 C229 1.297 . S
C228 H242 0.950 . S
C229 C228 1.297 . S
C229 C230 1.479 . S
C229 H243 0.950 . S
C230 C229 1.479 . S
C230 C231 1.375 . S
C230 C236 1.404 . S
C231 C230 1.375 . S
C231 C232 1.369 . S
C231 H244 0.950 . S
C232 C231 1.369 . S
C232 C233 1.392 . S
C232 H245 0.951 . S
C233 C232 1.392 . S
C233 C235 1.384 . S
H234 C236 0.949 . S
C235 C233 1.384 . S
C235 C236 1.385 . S
C235 H237 0.950 . S
C236 C230 1.404 . S
C236 H234 0.949 . S
C236 C235 1.385 . S
H237 C235 0.950 . S
H238 C222 0.951 . S
H239 C224 0.951 . S
H240 C226 0.951 . S
H241 C227 0.950 . S
H242 C228 0.950 . S
H243 C229 0.950 . S
H244 C231 0.950 . S
H245 C232 0.951 . S
C246 C247 1.386 . S
C246 C248 1.383 . S
C246 H262 0.951 . S
C247 C246 1.386 . S
C247 C251 1.383 . S
C248 C246 1.383 . S
C248 C249 1.402 . S
C248 H263 0.951 . S
C249 C248 1.402 . S
C249 C250 1.375 . S
C249 C252 1.481 . S
C250 C249 1.375 . S
C250 C251 1.367 . S
C250 H264 0.951 . S
C251 C247 1.383 . S
C251 C250 1.367 . S
C251 H265 0.950 . S
C252 C249 1.481 . S
C252 C253 1.297 . S
C252 H266 0.950 . S
C253 C252 1.297 . S
C253 C254 1.479 . S
C253 H267 0.950 . S
C254 C253 1.479 . S
C254 C255 1.375 . S
C254 C260 1.404 . S
C255 C254 1.375 . S
C255 C256 1.369 . S
C255 H268 0.950 . S
C256 C255 1.369 . S
C256 C257 1.392 . S
C256 H269 0.951 . S
C257 C256 1.392 . S
C257 C259 1.384 . S
H258 C260 0.949 . S
C259 C257 1.384 . S
C259 C260 1.385 . S
C259 H261 0.950 . S
C260 C254 1.404 . S
C260 H258 0.949 . S
C260 C259 1.385 . S
H261 C259 0.950 . S
H262 C246 0.951 . S
H263 C248 0.951 . S
H264 C250 0.951 . S
H265 C251 0.950 . S
H266 C252 0.950 . S
H267 C253 0.950 . S
H268 C255 0.950 . S
H269 C256 0.951 . S
C270 C271 1.386 . S
C270 C272 1.383 . S
C270 H286 0.951 . S
C271 C270 1.386 . S
C271 C275 1.383 1_556 S
C272 C270 1.383 . S
C272 C273 1.402 1_556 S
C272 H287 0.951 . S
C273 C272 1.402 1_554 S
C273 C274 1.375 . S
C273 C276 1.481 . S
C274 C273 1.375 . S
C274 C275 1.367 . S
C274 H288 0.951 . S
C275 C271 1.383 1_554 S
C275 C274 1.367 . S
C275 H289 0.950 . S
C276 C273 1.481 . S
C276 C277 1.297 . S
C276 H290 0.950 . S
C277 C276 1.297 . S
C277 C278 1.479 . S
C277 H291 0.950 . S
C278 C277 1.479 . S
C278 C279 1.375 . S
C278 C284 1.404 . S
C279 C278 1.375 . S
C279 C280 1.369 . S
C279 H292 0.958 . S
C280 C279 1.369 . S
C280 C281 1.392 . S
C280 H293 0.949 1_554 S
C281 C280 1.392 . S
C281 C283 1.384 . S
H282 C284 0.949 . S
C283 C281 1.384 . S
C283 C284 1.385 . S
C283 H285 0.950 . S
C284 C278 1.404 . S
C284 H282 0.949 . S
C284 C283 1.385 . S
H285 C283 0.950 . S
H286 C270 0.951 . S
H287 C272 0.951 . S
H288 C274 0.951 . S
H289 C275 0.950 . S
H290 C276 0.950 . S
H291 C277 0.950 . S
H292 C279 0.958 . S
H293 C280 0.949 1_556 S
C294 C295 1.386 . S
C294 C296 1.383 . S
C294 H310 0.951 . S
C295 C294 1.386 . S
C295 C299 1.383 . S
C296 C294 1.383 . S
C296 C297 1.402 . S
C296 H311 0.951 . S
C297 C296 1.402 . S
C297 C298 1.375 . S
C297 C300 1.481 . S
C298 C297 1.375 . S
C298 C299 1.367 . S
C298 H312 0.951 . S
C299 C295 1.383 . S
C299 C298 1.367 . S
C299 H313 0.950 . S
C300 C297 1.481 . S
C300 C301 1.297 . S
C300 H314 0.950 . S
C301 C300 1.297 . S
C301 C302 1.479 . S
C301 H315 0.950 . S
C302 C301 1.479 . S
C302 C303 1.375 . S
C302 C308 1.404 . S
C303 C302 1.375 . S
C303 C304 1.369 . S
C303 H316 0.950 . S
C304 C303 1.369 . S
C304 C305 1.392 . S
C304 H317 0.951 . S
C305 C304 1.392 . S
C305 C307 1.384 1_565 S
H306 C308 0.949 1_545 S
C307 C305 1.384 1_545 S
C307 C308 1.385 1_545 S
C307 H309 0.950 . S
C308 C302 1.404 . S
C308 H306 0.949 1_565 S
C308 C307 1.385 1_565 S
H309 C307 0.950 . S
H310 C294 0.951 . S
H311 C296 0.951 . S
H312 C298 0.951 . S
H313 C299 0.950 . S
H314 C300 0.950 . S
H315 C301 0.950 . S
H316 C303 0.950 . S
H317 C304 0.951 . S
C318 C319 1.386 . S
C318 C320 1.383 . S
C318 H334 0.951 . S
C319 C318 1.386 . S
C319 C323 1.383 . S
C320 C318 1.383 . S
C320 C321 1.402 . S
C320 H335 0.951 . S
C321 C320 1.402 . S
C321 C322 1.375 . S
C321 C324 1.481 . S
C322 C321 1.375 . S
C322 C323 1.367 . S
C322 H336 0.951 . S
C323 C319 1.383 . S
C323 C322 1.367 . S
C323 H337 0.950 . S
C324 C321 1.481 . S
C324 C325 1.297 . S
C324 H338 0.950 . S
C325 C324 1.297 . S
C325 C326 1.479 . S
C325 H339 0.950 . S
C326 C325 1.479 . S
C326 C327 1.375 . S
C326 C332 1.404 . S
C327 C326 1.375 . S
C327 C328 1.369 . S
C327 H340 0.950 . S
C328 C327 1.369 . S
C328 C329 1.392 . S
C328 H341 0.951 . S
C329 C328 1.392 . S
C329 C331 1.384 . S
H330 C332 0.949 . S
C331 C329 1.384 . S
C331 C332 1.385 . S
C331 H333 0.950 . S
C332 C326 1.404 . S
C332 H330 0.949 . S
C332 C331 1.385 . S
H333 C331 0.950 . S
H334 C318 0.951 . S
H335 C320 0.951 . S
H336 C322 0.951 . S
H337 C323 0.950 . S
H338 C324 0.950 . S
H339 C325 0.950 . S
H340 C327 0.950 . S
H341 C328 0.951 . S
C342 C343 1.386 . S
C342 C344 1.383 . S
C342 H358 0.951 . S
C343 C342 1.386 . S
C343 C347 1.383 . S
C344 C342 1.383 . S
C344 C345 1.402 . S
C344 H359 0.951 . S
C345 C344 1.402 . S
C345 C346 1.375 . S
C345 C348 1.481 . S
C346 C345 1.375 . S
C346 C347 1.367 . S
C346 H360 0.951 . S
C347 C343 1.383 . S
C347 C346 1.367 . S
C347 H361 0.950 . S
C348 C345 1.481 . S
C348 C349 1.297 . S
C348 H362 0.950 . S
C349 C348 1.297 . S
C349 C350 1.479 . S
C349 H363 0.950 . S
C350 C349 1.479 . S
C350 C351 1.375 . S
C350 C356 1.404 . S
C351 C350 1.375 . S
C351 C352 1.369 . S
C351 H364 0.950 . S
C352 C351 1.369 . S
C352 C353 1.392 . S
C352 H365 0.951 . S
C353 C352 1.392 . S
C353 C355 1.384 . S
H354 C356 0.949 . S
C355 C353 1.384 . S
C355 C356 1.385 . S
C355 H357 0.950 . S
C356 C350 1.404 . S
C356 H354 0.949 . S
C356 C355 1.385 . S
H357 C355 0.950 . S
H358 C342 0.951 . S
H359 C344 0.951 . S
H360 C346 0.951 . S
H361 C347 0.950 . S
H362 C348 0.950 . S
H363 C349 0.950 . S
H364 C351 0.950 . S
H365 C352 0.951 . S
C366 C367 1.386 . S
C366 C368 1.383 . S
C366 H382 0.951 . S
C367 C366 1.386 . S
C367 C371 1.383 . S
C368 C366 1.383 . S
C368 C369 1.402 . S
C368 H383 0.951 . S
C369 C368 1.402 . S
C369 C370 1.375 . S
C369 C372 1.481 . S
C370 C369 1.375 . S
C370 C371 1.367 . S
C370 H384 0.951 . S
C371 C367 1.383 . S
C371 C370 1.367 . S
C371 H385 0.950 . S
C372 C369 1.481 . S
C372 C373 1.297 . S
C372 H386 0.950 . S
C373 C372 1.297 . S
C373 C374 1.479 . S
C373 H387 0.950 . S
C374 C373 1.479 . S
C374 C375 1.375 . S
C374 C380 1.404 . S
C375 C374 1.375 . S
C375 C376 1.369 . S
C375 H388 0.950 . S
C376 C375 1.369 . S
C376 C377 1.392 . S
C376 H389 0.951 . S
C377 C376 1.392 . S
C377 C379 1.384 . S
H378 C380 0.949 . S
C379 C377 1.384 . S
C379 C380 1.385 . S
C379 H381 0.950 . S
C380 C374 1.404 . S
C380 H378 0.949 . S
C380 C379 1.385 . S
H381 C379 0.950 . S
H382 C366 0.951 . S
H383 C368 0.951 . S
H384 C370 0.951 . S
H385 C371 0.950 . S
H386 C372 0.950 . S
H387 C373 0.950 . S
H388 C375 0.950 . S
H389 C376 0.951 . S
C390 C391 1.386 . S
C390 C392 1.383 . S
C390 H406 0.951 . S
C391 C390 1.386 . S
C391 C395 1.383 . S
C392 C390 1.383 . S
C392 C393 1.402 . S
C392 H407 0.951 . S
C393 C392 1.402 . S
C393 C394 1.375 . S
C393 C396 1.481 . S
C394 C393 1.375 . S
C394 C395 1.367 . S
C394 H408 0.951 . S
C395 C391 1.383 . S
C395 C394 1.367 . S
C395 H409 0.950 . S
C396 C393 1.481 . S
C396 C397 1.297 . S
C396 H410 0.950 . S
C397 C396 1.297 . S
C397 C398 1.479 . S
C397 H411 0.950 . S
C398 C397 1.479 . S
C398 C399 1.375 . S
C398 C404 1.404 . S
C399 C398 1.375 . S
C399 C400 1.369 . S
C399 H412 0.950 . S
C400 C399 1.369 . S
C400 C401 1.392 . S
C400 H413 0.951 . S
C401 C400 1.392 . S
C401 C403 1.384 . S
H402 C404 0.949 . S
C403 C401 1.384 . S
C403 C404 1.385 . S
C403 H405 0.950 . S
C404 C398 1.404 . S
C404 H402 0.949 . S
C404 C403 1.385 . S
H405 C403 0.950 . S
H406 C390 0.951 . S
H407 C392 0.951 . S
H408 C394 0.951 . S
H409 C395 0.950 . S
H410 C396 0.950 . S
H411 C397 0.950 . S
H412 C399 0.950 . S
H413 C400 0.951 . S
C414 C415 1.386 . S
C414 C416 1.383 . S
C414 H430 0.951 . S
C415 C414 1.386 . S
C415 C419 1.383 . S
C416 C414 1.383 . S
C416 C417 1.402 . S
C416 H431 0.951 . S
C417 C416 1.402 . S
C417 C418 1.375 . S
C417 C420 1.481 . S
C418 C417 1.375 . S
C418 C419 1.367 . S
C418 H432 0.951 . S
C419 C415 1.383 . S
C419 C418 1.367 . S
C419 H433 0.950 . S
C420 C417 1.481 . S
C420 C421 1.297 . S
C420 H434 0.950 . S
C421 C420 1.297 . S
C421 C422 1.479 . S
C421 H435 0.950 . S
C422 C421 1.479 . S
C422 C423 1.375 . S
C422 C428 1.404 . S
C423 C422 1.375 . S
C423 C424 1.369 . S
C423 H436 0.950 . S
C424 C423 1.369 . S
C424 C425 1.392 . S
C424 H437 0.951 . S
C425 C424 1.392 . S
C425 C427 1.384 . S
H426 C428 0.949 . S
C427 C425 1.384 . S
C427 C428 1.385 . S
C427 H429 0.950 . S
C428 C422 1.404 . S
C428 H426 0.949 . S
C428 C427 1.385 . S
H429 C427 0.950 . S
H430 C414 0.951 . S
H431 C416 0.951 . S
H432 C418 0.951 . S
H433 C419 0.950 . S
H434 C420 0.950 . S
H435 C421 0.950 . S
H436 C423 0.950 . S
H437 C424 0.951 . S
C438 C439 1.386 . S
C438 C440 1.383 . S
C438 H454 0.951 . S
C439 C438 1.386 . S
C439 C443 1.383 . S
C440 C438 1.383 . S
C440 C441 1.402 . S
C440 H455 0.951 . S
C441 C440 1.402 . S
C441 C442 1.375 . S
C441 C444 1.481 . S
C442 C441 1.375 . S
C442 C443 1.367 . S
C442 H456 0.951 . S
C443 C439 1.383 . S
C443 C442 1.367 . S
C443 H457 0.950 . S
C444 C441 1.481 . S
C444 C445 1.297 . S
C444 H458 0.950 . S
C445 C444 1.297 . S
C445 C446 1.479 . S
C445 H459 0.950 . S
C446 C445 1.479 . S
C446 C447 1.375 . S
C446 C452 1.404 . S
C447 C446 1.375 . S
C447 C448 1.369 . S
C447 H460 0.950 . S
C448 C447 1.369 . S
C448 C449 1.392 . S
C448 H461 0.951 . S
C449 C448 1.392 . S
C449 C451 1.384 . S
H450 C452 0.949 . S
C451 C449 1.384 . S
C451 C452 1.385 . S
C451 H453 0.950 . S
C452 C446 1.404 . S
C452 H450 0.949 . S
C452 C451 1.385 . S
H453 C451 0.950 . S
H454 C438 0.951 . S
H455 C440 0.951 . S
H456 C442 0.951 . S
H457 C443 0.950 . S
H458 C444 0.950 . S
H459 C445 0.950 . S
H460 C447 0.950 . S
H461 C448 0.951 . S
C462 C463 1.386 . S
C462 C464 1.383 . S
C462 H478 0.951 . S
C463 C462 1.386 . S
C463 C467 1.383 . S
C464 C462 1.383 . S
C464 C465 1.402 . S
C464 H479 0.951 . S
C465 C464 1.402 . S
C465 C466 1.375 . S
C465 C468 1.481 . S
C466 C465 1.375 . S
C466 C467 1.367 . S
C466 H480 0.951 1_565 S
C467 C463 1.383 . S
C467 C466 1.367 . S
C467 H481 0.950 . S
C468 C465 1.481 . S
C468 C469 1.297 . S
C468 H482 0.950 . S
C469 C468 1.297 . S
C469 C470 1.479 . S
C469 H483 0.950 . S
C470 C469 1.479 . S
C470 C471 1.375 . S
C470 C476 1.404 1_565 S
C471 C470 1.375 . S
C471 C472 1.369 . S
C471 H484 0.950 . S
C472 C471 1.369 . S
C472 C473 1.392 . S
C472 H485 0.951 . S
C473 C472 1.392 . S
C473 C475 1.384 1_565 S
H474 C476 0.949 . S
C475 C473 1.384 1_545 S
C475 C476 1.385 . S
C475 H477 0.950 . S
C476 C470 1.404 1_545 S
C476 H474 0.949 . S
C476 C475 1.385 . S
H477 C475 0.950 . S
H478 C462 0.951 . S
H479 C464 0.951 . S
H480 C466 0.951 1_545 S
H481 C467 0.950 . S
H482 C468 0.950 . S
H483 C469 0.950 . S
H484 C471 0.950 . S
H485 C472 0.951 . S
C209 C172 1.398 . S
C199 C138 1.499 . S
C223 C21 1.492 . S
C233 C193 1.379 . S
C247 C60 1.686 . S
C257 C169 1.529 . S
C271 C99 1.673 . S
C281 C190 1.393 . S
C305 C174 1.631 . S
C295 C16 1.642 . S
C329 C194 1.529 . S
C319 C40 1.586 . S
C343 C79 1.558 . S
C353 C170 1.538 . S
C367 C133 1.620 . S
C377 C192 1.513 . S
C401 C191 1.513 . S
C391 C55 1.554 . S
C425 C173 1.593 . S
C415 C94 1.607 . S
C449 C195 1.609 . S
C439 C118 1.641 . S
C463 C1 1.619 . S
C473 C171 1.514 . S
