# Generated by pormake.
# Topology ctn, (3,4)-cn, num edge types: 1
# Building blocks:
#     Node 0, Type 0, BuildingBlock: BELTOD_clean_linker_0, # of connection points: 3
#     Node 1, Type 0, BuildingBlock: BELTOD_clean_linker_0, # of connection points: 3
#     Node 2, Type 0, BuildingBlock: BELTOD_clean_linker_0, # of connection points: 3
#     Node 3, Type 0, BuildingBlock: BELTOD_clean_linker_0, # of connection points: 3
#     Node 4, Type 0, BuildingBlock: BELTOD_clean_linker_0, # of connection points: 3
#     Node 5, Type 0, BuildingBlock: BELTOD_clean_linker_0, # of connection points: 3
#     Node 6, Type 0, BuildingBlock: BELTOD_clean_linker_0, # of connection points: 3
#     Node 7, Type 0, BuildingBlock: BELTOD_clean_linker_0, # of connection points: 3
#     Node 8, Type 0, BuildingBlock: BELTOD_clean_linker_0, # of connection points: 3
#     Node 9, Type 0, BuildingBlock: BELTOD_clean_linker_0, # of connection points: 3
#     Node 10, Type 0, BuildingBlock: BELTOD_clean_linker_0, # of connection points: 3
#     Node 11, Type 0, BuildingBlock: BELTOD_clean_linker_0, # of connection points: 3
#     Node 12, Type 0, BuildingBlock: BELTOD_clean_linker_0, # of connection points: 3
#     Node 13, Type 0, BuildingBlock: BELTOD_clean_linker_0, # of connection points: 3
#     Node 14, Type 0, BuildingBlock: BELTOD_clean_linker_0, # of connection points: 3
#     Node 15, Type 0, BuildingBlock: BELTOD_clean_linker_0, # of connection points: 3
#     Node 16, Type 1, BuildingBlock: AZAVOO_clean_sbu_0, # of connection points: 4
#     Node 17, Type 1, BuildingBlock: AZAVOO_clean_sbu_0, # of connection points: 4
#     Node 18, Type 1, BuildingBlock: AZAVOO_clean_sbu_0, # of connection points: 4
#     Node 19, Type 1, BuildingBlock: AZAVOO_clean_sbu_0, # of connection points: 4
#     Node 20, Type 1, BuildingBlock: AZAVOO_clean_sbu_0, # of connection points: 4
#     Node 21, Type 1, BuildingBlock: AZAVOO_clean_sbu_0, # of connection points: 4
#     Node 22, Type 1, BuildingBlock: AZAVOO_clean_sbu_0, # of connection points: 4
#     Node 23, Type 1, BuildingBlock: AZAVOO_clean_sbu_0, # of connection points: 4
#     Node 24, Type 1, BuildingBlock: AZAVOO_clean_sbu_0, # of connection points: 4
#     Node 25, Type 1, BuildingBlock: AZAVOO_clean_sbu_0, # of connection points: 4
#     Node 26, Type 1, BuildingBlock: AZAVOO_clean_sbu_0, # of connection points: 4
#     Node 27, Type 1, BuildingBlock: AZAVOO_clean_sbu_0, # of connection points: 4
#     Edge 28, Type (0, 1), BuildingBlock: CIFDUS_clean_linker_0, # of connection points: 2
#     Edge 29, Type (0, 1), BuildingBlock: CIFDUS_clean_linker_0, # of connection points: 2
#     Edge 30, Type (0, 1), BuildingBlock: CIFDUS_clean_linker_0, # of connection points: 2
#     Edge 31, Type (0, 1), BuildingBlock: CIFDUS_clean_linker_0, # of connection points: 2
#     Edge 32, Type (0, 1), BuildingBlock: CIFDUS_clean_linker_0, # of connection points: 2
#     Edge 33, Type (0, 1), BuildingBlock: CIFDUS_clean_linker_0, # of connection points: 2
#     Edge 34, Type (0, 1), BuildingBlock: CIFDUS_clean_linker_0, # of connection points: 2
#     Edge 35, Type (0, 1), BuildingBlock: CIFDUS_clean_linker_0, # of connection points: 2
#     Edge 36, Type (0, 1), BuildingBlock: CIFDUS_clean_linker_0, # of connection points: 2
#     Edge 37, Type (0, 1), BuildingBlock: CIFDUS_clean_linker_0, # of connection points: 2
#     Edge 38, Type (0, 1), BuildingBlock: CIFDUS_clean_linker_0, # of connection points: 2
#     Edge 39, Type (0, 1), BuildingBlock: CIFDUS_clean_linker_0, # of connection points: 2
#     Edge 40, Type (0, 1), BuildingBlock: CIFDUS_clean_linker_0, # of connection points: 2
#     Edge 41, Type (0, 1), BuildingBlock: CIFDUS_clean_linker_0, # of connection points: 2
#     Edge 42, Type (0, 1), BuildingBlock: CIFDUS_clean_linker_0, # of connection points: 2
#     Edge 43, Type (0, 1), BuildingBlock: CIFDUS_clean_linker_0, # of connection points: 2
#     Edge 44, Type (0, 1), BuildingBlock: CIFDUS_clean_linker_0, # of connection points: 2
#     Edge 45, Type (0, 1), BuildingBlock: CIFDUS_clean_linker_0, # of connection points: 2
#     Edge 46, Type (0, 1), BuildingBlock: CIFDUS_clean_linker_0, # of connection points: 2
#     Edge 47, Type (0, 1), BuildingBlock: CIFDUS_clean_linker_0, # of connection points: 2
#     Edge 48, Type (0, 1), BuildingBlock: CIFDUS_clean_linker_0, # of connection points: 2
#     Edge 49, Type (0, 1), BuildingBlock: CIFDUS_clean_linker_0, # of connection points: 2
#     Edge 50, Type (0, 1), BuildingBlock: CIFDUS_clean_linker_0, # of connection points: 2
#     Edge 51, Type (0, 1), BuildingBlock: CIFDUS_clean_linker_0, # of connection points: 2
#     Edge 52, Type (0, 1), BuildingBlock: CIFDUS_clean_linker_0, # of connection points: 2
#     Edge 53, Type (0, 1), BuildingBlock: CIFDUS_clean_linker_0, # of connection points: 2
#     Edge 54, Type (0, 1), BuildingBlock: CIFDUS_clean_linker_0, # of connection points: 2
#     Edge 55, Type (0, 1), BuildingBlock: CIFDUS_clean_linker_0, # of connection points: 2
#     Edge 56, Type (0, 1), BuildingBlock: CIFDUS_clean_linker_0, # of connection points: 2
#     Edge 57, Type (0, 1), BuildingBlock: CIFDUS_clean_linker_0, # of connection points: 2
#     Edge 58, Type (0, 1), BuildingBlock: CIFDUS_clean_linker_0, # of connection points: 2
#     Edge 59, Type (0, 1), BuildingBlock: CIFDUS_clean_linker_0, # of connection points: 2
#     Edge 60, Type (0, 1), BuildingBlock: CIFDUS_clean_linker_0, # of connection points: 2
#     Edge 61, Type (0, 1), BuildingBlock: CIFDUS_clean_linker_0, # of connection points: 2
#     Edge 62, Type (0, 1), BuildingBlock: CIFDUS_clean_linker_0, # of connection points: 2
#     Edge 63, Type (0, 1), BuildingBlock: CIFDUS_clean_linker_0, # of connection points: 2
#     Edge 64, Type (0, 1), BuildingBlock: CIFDUS_clean_linker_0, # of connection points: 2
#     Edge 65, Type (0, 1), BuildingBlock: CIFDUS_clean_linker_0, # of connection points: 2
#     Edge 66, Type (0, 1), BuildingBlock: CIFDUS_clean_linker_0, # of connection points: 2
#     Edge 67, Type (0, 1), BuildingBlock: CIFDUS_clean_linker_0, # of connection points: 2
#     Edge 68, Type (0, 1), BuildingBlock: CIFDUS_clean_linker_0, # of connection points: 2
#     Edge 69, Type (0, 1), BuildingBlock: CIFDUS_clean_linker_0, # of connection points: 2
#     Edge 70, Type (0, 1), BuildingBlock: CIFDUS_clean_linker_0, # of connection points: 2
#     Edge 71, Type (0, 1), BuildingBlock: CIFDUS_clean_linker_0, # of connection points: 2
#     Edge 72, Type (0, 1), BuildingBlock: CIFDUS_clean_linker_0, # of connection points: 2
#     Edge 73, Type (0, 1), BuildingBlock: CIFDUS_clean_linker_0, # of connection points: 2
#     Edge 74, Type (0, 1), BuildingBlock: CIFDUS_clean_linker_0, # of connection points: 2
#     Edge 75, Type (0, 1), BuildingBlock: CIFDUS_clean_linker_0, # of connection points: 2
# Relax obj value: 0.002
# Max RMSD: 0.042
# Mean RMSD: 0.025
data_MOF--net-ctn--node1-AZAVOO_clean_sbu_0--node2-BELTOD_clean_linker_0--edge1-CIFDUS_clean_linker_0
_symmetry_space_group_name_H-M    P1
_symmetry_Int_Tables_number       1
_symmetry_cell_setting            triclinic
loop_
_symmetry_equiv_pos_as_xyz
'x, y, z'
_cell_length_a     54.516987
_cell_length_b     55.831078
_cell_length_c     55.28657
_cell_angle_alpha  89.45224
_cell_angle_beta   93.025267
_cell_angle_gamma 93.985367
loop_
_atom_site_label
_atom_site_type_symbol
_atom_site_fract_x
_atom_site_fract_y
_atom_site_fract_z
_atom_type_partial_charge
P0 P 0.08161 0.05054 0.05971 0.0
H1 H 0.08211 0.03003 0.10828 0.0
H2 H 0.04947 0.01616 0.13444 0.0
H3 H 0.99543 0.02518 0.07551 0.0
H4 H 0.02844 0.03976 0.04956 0.0
H5 H 0.12046 0.05744 0.02591 0.0
H6 H 0.14755 0.02965 0.00869 0.0
H7 H 0.10474 0.96985 0.03915 0.0
H8 H 0.07769 0.9977 0.05622 0.0
H9 H 0.07134 0.0989 0.07217 0.0
H10 H 0.06402 0.05458 0.00845 0.0
O11 O 0.10306 0.06312 0.07916 0.0
H12 H 0.05574 0.13235 0.0489 0.0
H13 H 0.04769 0.08798 0.9849 0.0
C14 C 0.05762 0.03647 0.07721 0.0
C15 C 0.06327 0.0288 0.1009 0.0
C16 C 0.04452 0.02063 0.11579 0.0
C17 C 0.01971 0.01972 0.10719 0.0
C18 C 0.01428 0.02607 0.08287 0.0
C19 C 0.03312 0.03431 0.06797 0.0
C20 C 0.097 0.02966 0.04222 0.0
C21 C 0.11651 0.03831 0.0283 0.0
C22 C 0.13208 0.02243 0.01863 0.0
C23 C 0.12839 0.99757 0.02271 0.0
C24 C 0.10793 0.98888 0.03549 0.0
C25 C 0.09245 0.00482 0.04531 0.0
C26 C 0.06942 0.07453 0.04187 0.0
C27 C 0.0663 0.09639 0.0531 0.0
C28 C 0.05706 0.11543 0.0398 0.0
C29 C 0.05044 0.11292 0.01497 0.0
C30 C 0.05293 0.09064 0.0039 0.0
C31 C 0.06226 0.07154 0.01731 0.0
P32 P 0.335 0.709 0.21212 0.0
H33 H 0.35658 0.7504 0.18675 0.0
H34 H 0.33859 0.78046 0.16003 0.0
H35 H 0.26572 0.75217 0.17718 0.0
H36 H 0.2838 0.7225 0.20412 0.0
H37 H 0.38008 0.69327 0.2356 0.0
H38 H 0.40266 0.70392 0.27369 0.0
H39 H 0.34829 0.75366 0.28896 0.0
H40 H 0.32571 0.74291 0.25049 0.0
H41 H 0.31471 0.66979 0.18134 0.0
H42 H 0.30389 0.69593 0.25288 0.0
O43 O 0.35519 0.69893 0.19364 0.0
H44 H 0.28393 0.63662 0.18727 0.0
H45 H 0.27323 0.66257 0.25908 0.0
C46 C 0.32154 0.73396 0.197 0.0
C47 C 0.33674 0.75102 0.18512 0.0
C48 C 0.32644 0.7681 0.1698 0.0
C49 C 0.30073 0.76844 0.16621 0.0
C50 C 0.28559 0.75244 0.17961 0.0
C51 C 0.29593 0.73532 0.19491 0.0
C52 C 0.35151 0.71765 0.24005 0.0
C53 C 0.37313 0.70666 0.24698 0.0
C54 C 0.38605 0.71279 0.26874 0.0
C55 C 0.37738 0.7298 0.28419 0.0
C56 C 0.3554 0.74049 0.2774 0.0
C57 C 0.34258 0.73449 0.25542 0.0
C58 C 0.31207 0.6849 0.21691 0.0
C59 C 0.30583 0.66828 0.1984 0.0
C60 C 0.28822 0.64935 0.20181 0.0
C61 C 0.27633 0.64684 0.22373 0.0
C62 C 0.28201 0.66407 0.24195 0.0
C63 C 0.29972 0.683 0.23853 0.0
P64 P 0.98234 0.50862 0.03954 0.0
H65 H 0.97653 0.49067 0.98996 0.0
H66 H 0.97512 0.4503 0.97306 0.0
H67 H 0.97625 0.42031 0.04542 0.0
H68 H 0.97723 0.4607 0.06216 0.0
H69 H 0.96838 0.55776 0.03955 0.0
H70 H 0.92984 0.57581 0.04621 0.0
H71 H 0.89559 0.5058 0.06236 0.0
H72 H 0.93449 0.48772 0.05559 0.0
H73 H 0.03545 0.51804 0.04399 0.0
H74 H 0.97714 0.49779 0.09143 0.0
O75 O 0.9951 0.52611 0.01827 0.0
H76 H 0.06577 0.51502 0.07748 0.0
H77 H 0.00769 0.49355 0.12515 0.0
C78 C 0.97753 0.47874 0.02734 0.0
C79 C 0.97624 0.47541 0.0022 0.0
C80 C 0.97555 0.45231 0.99254 0.0
C81 C 0.97596 0.43209 0.00789 0.0
C82 C 0.97586 0.43547 0.03308 0.0
C83 C 0.97659 0.45861 0.0427 0.0
C84 C 0.95413 0.52136 0.04657 0.0
C85 C 0.9526 0.54624 0.04451 0.0
C86 C 0.93052 0.55654 0.04822 0.0
C87 C 0.90956 0.54217 0.0544 0.0
C88 C 0.91142 0.5173 0.05753 0.0
C89 C 0.93359 0.50695 0.05359 0.0
C90 C 0.00402 0.50844 0.06527 0.0
C91 C 0.02913 0.51308 0.06172 0.0
C92 C 0.04654 0.51101 0.08089 0.0
C93 C 0.03928 0.50372 0.10404 0.0
C94 C 0.01396 0.49941 0.10766 0.0
C95 C 0.99647 0.50176 0.0884 0.0
P96 P 0.67763 0.85427 0.20726 0.0
H97 H 0.69794 0.90131 0.19112 0.0
H98 H 0.73784 0.92327 0.19867 0.0
H99 H 0.76119 0.86585 0.24557 0.0
H100 H 0.72113 0.8438 0.23765 0.0
H101 H 0.67718 0.84696 0.15522 0.0
H102 H 0.68496 0.81278 0.13042 0.0
H103 H 0.69896 0.77083 0.19524 0.0
H104 H 0.69231 0.80573 0.21993 0.0
H105 H 0.6765 0.87747 0.25444 0.0
H106 H 0.6434 0.81364 0.21925 0.0
O107 O 0.65894 0.87143 0.19102 0.0
H108 H 0.65379 0.8672 0.2907 0.0
H109 H 0.62124 0.80306 0.25554 0.0
C110 C 0.70656 0.871 0.21396 0.0
C111 C 0.71154 0.89351 0.20318 0.0
C112 C 0.73436 0.90612 0.20761 0.0
C113 C 0.75269 0.89636 0.22279 0.0
C114 C 0.74754 0.87378 0.23363 0.0
C115 C 0.72465 0.86121 0.22923 0.0
C116 C 0.6834 0.82864 0.18939 0.0
C117 C 0.6818 0.83037 0.1641 0.0
C118 C 0.6861 0.81069 0.14993 0.0
C119 C 0.69208 0.78875 0.16076 0.0
C120 C 0.6944 0.78735 0.18622 0.0
C121 C 0.69036 0.80723 0.20039 0.0
C122 C 0.6624 0.84582 0.2345 0.0
C123 C 0.66471 0.86105 0.25465 0.0
C124 C 0.65159 0.85531 0.27525 0.0
C125 C 0.636 0.83421 0.27597 0.0
C126 C 0.63348 0.8192 0.25561 0.0
C127 C 0.64627 0.82516 0.23492 0.0
P128 P 0.0761 0.95303 0.45657 0.0
H129 H 0.11947 0.95179 0.4892 0.0
H130 H 0.14757 0.98339 0.50743 0.0
H131 H 0.09928 0.03668 0.47976 0.0
H132 H 0.07084 0.00501 0.46285 0.0
H133 H 0.07252 0.9026 0.44401 0.0
H134 H 0.06148 0.86599 0.46635 0.0
H135 H 0.05112 0.90794 0.52983 0.0
H136 H 0.06201 0.94487 0.507 0.0
H137 H 0.06929 0.98959 0.41938 0.0
H138 H 0.02324 0.93702 0.45689 0.0
O139 O 0.09506 0.94555 0.43558 0.0
H140 H 0.0341 0.99856 0.39232 0.0
H141 H 0.98828 0.94543 0.42935 0.0
C142 C 0.09309 0.97598 0.47456 0.0
C143 C 0.11464 0.97026 0.48767 0.0
C144 C 0.13085 0.9884 0.49782 0.0
C145 C 0.12597 0.0127 0.4948 0.0
C146 C 0.10366 0.01822 0.48269 0.0
C147 C 0.08736 3e-05 0.47275 0.0
C148 C 0.06875 0.92636 0.47406 0.0
C149 C 0.06818 0.90396 0.46282 0.0
C150 C 0.06187 0.88301 0.47564 0.0
C151 C 0.05579 0.88401 0.5 0.0
C152 C 0.05576 0.90659 0.51111 0.0
C153 C 0.06216 0.92765 0.49818 0.0
C154 C 0.04896 0.96278 0.4403 0.0
C155 C 0.05149 0.98043 0.42222 0.0
C156 C 0.03138 0.98556 0.40677 0.0
C157 C 0.0085 0.97269 0.40879 0.0
C158 C 0.00574 0.95561 0.42745 0.0
C159 C 0.02577 0.95081 0.4432 0.0
P160 P 0.21878 0.7384 0.74135 0.0
H161 H 0.23389 0.78547 0.76231 0.0
H162 H 0.23013 0.80228 0.80245 0.0
H163 H 0.1888 0.73736 0.82379 0.0
H164 H 0.19274 0.72059 0.78349 0.0
H165 H 0.27175 0.73533 0.73852 0.0
H166 H 0.29875 0.70254 0.74493 0.0
H167 H 0.23642 0.65527 0.76381 0.0
H168 H 0.20938 0.68826 0.757 0.0
H169 H 0.17025 0.75769 0.73887 0.0
H170 H 0.20502 0.69943 0.70706 0.0
O171 O 0.23306 0.75889 0.72384 0.0
H172 H 0.13337 0.74877 0.71267 0.0
H173 H 0.16788 0.68963 0.68162 0.0
C174 C 0.21366 0.75174 0.76999 0.0
C175 C 0.22373 0.77496 0.77549 0.0
C176 C 0.22143 0.78463 0.79842 0.0
C177 C 0.2092 0.77114 0.81631 0.0
C178 C 0.19852 0.74811 0.81045 0.0
C179 C 0.20072 0.73851 0.78745 0.0
C180 C 0.23849 0.71407 0.74673 0.0
C181 C 0.26385 0.71791 0.74397 0.0
C182 C 0.27933 0.69917 0.74788 0.0
C183 C 0.26974 0.67623 0.75482 0.0
C184 C 0.24433 0.67262 0.75816 0.0
C185 C 0.22887 0.69146 0.75433 0.0
C186 C 0.19017 0.72886 0.72539 0.0
C187 C 0.16966 0.74249 0.72679 0.0
C188 C 0.14852 0.7373 0.71179 0.0
C189 C 0.14756 0.71844 0.69497 0.0
C190 C 0.16801 0.70445 0.69413 0.0
C191 C 0.1892 0.70982 0.70895 0.0
P192 P 0.98651 0.48291 0.49751 0.0
H193 H 0.03773 0.47124 0.49496 0.0
H194 H 0.06639 0.47448 0.46258 0.0
H195 H 0.00839 0.49684 0.41289 0.0
H196 H 0.9795 0.49317 0.44557 0.0
H197 H 0.9473 0.50372 0.52299 0.0
H198 H 0.94075 0.54495 0.53444 0.0
H199 H 0.00591 0.57011 0.4979 0.0
H200 H 0.01193 0.5292 0.4861 0.0
H201 H 0.9766 0.43242 0.50834 0.0
H202 H 0.9374 0.48903 0.47387 0.0
O203 O 0.00136 0.47353 0.52263 0.0
H204 H 0.94022 0.40482 0.50278 0.0
H205 H 0.90065 0.46122 0.46787 0.0
C206 C 0.00647 0.48192 0.47265 0.0
C207 C 0.031 0.47647 0.47705 0.0
C208 C 0.04745 0.4785 0.45853 0.0
C209 C 0.03974 0.48617 0.43522 0.0
C210 C 0.01486 0.49073 0.4306 0.0
C211 C 0.99835 0.48868 0.44924 0.0
C212 C 0.97963 0.51342 0.50301 0.0
C213 C 0.9598 0.51821 0.51694 0.0
C214 C 0.95626 0.54177 0.52374 0.0
C215 C 0.97275 0.5609 0.51701 0.0
C216 C 0.99254 0.55594 0.50295 0.0
C217 C 0.99601 0.53245 0.49616 0.0
C218 C 0.95951 0.46287 0.49201 0.0
C219 C 0.96011 0.43889 0.49951 0.0
C220 C 0.93931 0.42306 0.49611 0.0
C221 C 0.91746 0.43079 0.48489 0.0
C222 C 0.91708 0.45479 0.47685 0.0
C223 C 0.93805 0.47066 0.48022 0.0
P224 P 0.82465 0.80438 0.82037 0.0
H225 H 0.8671 0.82182 0.79402 0.0
H226 H 0.88371 0.80962 0.75636 0.0
H227 H 0.82771 0.75088 0.75034 0.0
H228 H 0.81052 0.76403 0.7876 0.0
H229 H 0.82967 0.85466 0.80684 0.0
H230 H 0.80055 0.88272 0.79035 0.0
H231 H 0.74151 0.82724 0.79286 0.0
H232 H 0.77101 0.79882 0.80877 0.0
H233 H 0.8361 0.7543 0.82976 0.0
H234 H 0.78684 0.80434 0.85565 0.0
O235 O 0.84668 0.81975 0.83706 0.0
H236 H 0.82182 0.72464 0.85974 0.0
H237 H 0.77277 0.7751 0.88568 0.0
C238 C 0.83805 0.79337 0.79397 0.0
C239 C 0.85861 0.8061 0.78477 0.0
C240 C 0.86815 0.79904 0.76321 0.0
C241 C 0.85726 0.77909 0.75033 0.0
C242 C 0.8365 0.76642 0.75963 0.0
C243 C 0.82682 0.7737 0.78112 0.0
C244 C 0.80238 0.82489 0.8097 0.0
C245 C 0.81045 0.84854 0.80408 0.0
C246 C 0.79384 0.8645 0.79455 0.0
C247 C 0.76882 0.8571 0.79051 0.0
C248 C 0.76067 0.83338 0.79611 0.0
C249 C 0.77747 0.81723 0.80526 0.0
C250 C 0.81176 0.78118 0.83975 0.0
C251 C 0.82173 0.75868 0.84142 0.0
C252 C 0.81375 0.74183 0.85874 0.0
C253 C 0.7959 0.74737 0.87491 0.0
C254 C 0.786 0.76996 0.87309 0.0
C255 C 0.79403 0.78674 0.85586 0.0
P256 P 0.31909 0.29348 0.29756 0.0
H257 H 0.35785 0.31582 0.26911 0.0
H258 H 0.37712 0.30376 0.23271 0.0
H259 H 0.33055 0.23781 0.23088 0.0
H260 H 0.31079 0.25049 0.26691 0.0
H261 H 0.30035 0.33449 0.32098 0.0
H262 H 0.26858 0.36166 0.30894 0.0
H263 H 0.25204 0.32134 0.24308 0.0
H264 H 0.28393 0.29414 0.2553 0.0
H265 H 0.33831 0.24713 0.31071 0.0
H266 H 0.2763 0.28679 0.32743 0.0
O267 O 0.3405 0.30958 0.31433 0.0
H268 H 0.3264 0.21659 0.34068 0.0
H269 H 0.26505 0.2573 0.35802 0.0
C270 C 0.33337 0.28375 0.27105 0.0
C271 C 0.35192 0.29868 0.26096 0.0
C272 C 0.363 0.2917 0.24018 0.0
C273 C 0.35563 0.26966 0.22898 0.0
C274 C 0.33663 0.25494 0.23895 0.0
C275 C 0.32548 0.26203 0.25971 0.0
C276 C 0.29488 0.31267 0.28877 0.0
C277 C 0.28986 0.33146 0.30397 0.0
C278 C 0.2715 0.34682 0.29719 0.0
C279 C 0.25783 0.34367 0.27503 0.0
C280 C 0.26244 0.32434 0.26015 0.0
C281 C 0.28069 0.30884 0.26708 0.0
C282 C 0.30789 0.26898 0.31636 0.0
C283 C 0.32184 0.24902 0.32045 0.0
C284 C 0.31516 0.23171 0.33783 0.0
C285 C 0.29471 0.23436 0.35186 0.0
C286 C 0.28054 0.25422 0.34727 0.0
C287 C 0.28708 0.27131 0.32975 0.0
P288 P 0.49709 0.01364 0.53951 0.0
H289 H 0.46044 0.98462 0.50909 0.0
H290 H 0.46239 0.94618 0.4885 0.0
H291 H 0.53578 0.93989 0.52032 0.0
H292 H 0.53379 0.97828 0.54061 0.0
H293 H 0.47441 0.05588 0.51943 0.0
H294 H 0.43388 0.07103 0.52239 0.0
H295 H 0.41199 0.00987 0.5667 0.0
H296 H 0.45294 0.99475 0.56372 0.0
H297 H 0.5368 0.0458 0.56094 0.0
H298 H 0.49267 0.98298 0.58278 0.0
O299 O 0.51297 0.03184 0.52095 0.0
H300 H 0.56107 0.04493 0.59927 0.0
H301 H 0.51691 0.98212 0.62145 0.0
C302 C 0.49674 0.98401 0.52687 0.0
C303 C 0.47675 0.97474 0.51199 0.0
C304 C 0.47791 0.9528 0.50018 0.0
C305 C 0.49927 0.94003 0.50272 0.0
C306 C 0.51917 0.9494 0.51776 0.0
C307 C 0.51794 0.97122 0.52962 0.0
C308 C 0.46672 0.02417 0.54137 0.0
C309 C 0.46092 0.04559 0.52969 0.0
C310 C 0.43762 0.05419 0.53126 0.0
C311 C 0.41963 0.04159 0.54466 0.0
C312 C 0.4255 0.02006 0.55636 0.0
C313 C 0.44886 0.0114 0.55466 0.0
C314 C 0.51307 0.01432 0.56891 0.0
C315 C 0.53219 0.0319 0.57405 0.0
C316 C 0.54612 0.03135 0.59595 0.0
C317 C 0.54106 0.01331 0.61326 0.0
C318 C 0.52118 0.99629 0.6085 0.0
C319 C 0.50734 0.99675 0.58643 0.0
P320 P 0.18901 0.34805 0.69218 0.0
H321 H 0.20604 0.39648 0.67692 0.0
H322 H 0.24448 0.42087 0.68495 0.0
H323 H 0.27226 0.36399 0.72995 0.0
H324 H 0.23378 0.3395 0.72142 0.0
H325 H 0.1891 0.34331 0.63979 0.0
H326 H 0.19756 0.31049 0.61345 0.0
H327 H 0.21265 0.26619 0.6764 0.0
H328 H 0.20564 0.29979 0.70256 0.0
H329 H 0.19024 0.36711 0.74159 0.0
H330 H 0.15599 0.30609 0.70241 0.0
O331 O 0.16859 0.36445 0.67731 0.0
H332 H 0.17107 0.35238 0.77855 0.0
H333 H 0.13733 0.2911 0.73934 0.0
C334 C 0.21703 0.36629 0.69877 0.0
C335 C 0.22034 0.3893 0.68862 0.0
C336 C 0.2423 0.40329 0.69333 0.0
C337 C 0.26142 0.39444 0.70819 0.0
C338 C 0.258 0.37127 0.71826 0.0
C339 C 0.236 0.3573 0.71353 0.0
C340 C 0.19592 0.3237 0.67309 0.0
C341 C 0.19421 0.32652 0.6479 0.0
C342 C 0.19888 0.30759 0.63285 0.0
C343 C 0.20525 0.28535 0.6427 0.0
C344 C 0.20781 0.28296 0.66808 0.0
C345 C 0.20352 0.3021 0.68311 0.0
C346 C 0.17537 0.33716 0.7195 0.0
C347 C 0.17889 0.35041 0.74099 0.0
C348 C 0.16779 0.34211 0.76203 0.0
C349 C 0.15304 0.32045 0.76181 0.0
C350 C 0.14902 0.30761 0.74008 0.0
C351 C 0.15978 0.31611 0.71902 0.0
P352 P 0.84876 0.20479 0.71428 0.0
H353 H 0.869 0.219 0.66824 0.0
H354 H 0.85327 0.24242 0.63414 0.0
H355 H 0.79244 0.26086 0.67574 0.0
H356 H 0.8087 0.23762 0.71019 0.0
H357 H 0.9012 0.20688 0.72839 0.0
H358 H 0.92448 0.22051 0.76501 0.0
H359 H 0.85898 0.24838 0.79155 0.0
H360 H 0.83554 0.23403 0.75477 0.0
H361 H 0.79926 0.19034 0.69307 0.0
H362 H 0.84234 0.17799 0.7592 0.0
O363 O 0.86612 0.18546 0.7015 0.0
H364 H 0.76696 0.16111 0.70616 0.0
H365 H 0.8103 0.14862 0.77207 0.0
C366 C 0.83958 0.22602 0.69144 0.0
C367 C 0.85247 0.22833 0.6702 0.0
C368 C 0.84341 0.24167 0.65067 0.0
C369 C 0.8213 0.25301 0.65205 0.0
C370 C 0.80948 0.25226 0.6741 0.0
C371 C 0.81867 0.23892 0.69374 0.0
C372 C 0.86659 0.2192 0.73903 0.0
C373 C 0.89188 0.21622 0.74189 0.0
C374 C 0.90524 0.22418 0.76285 0.0
C375 C 0.89358 0.23541 0.78135 0.0
C376 C 0.86843 0.23947 0.77782 0.0
C377 C 0.85506 0.23149 0.75676 0.0
C378 C 0.82293 0.18695 0.7255 0.0
C379 C 0.80145 0.18201 0.71074 0.0
C380 C 0.783 0.16527 0.71817 0.0
C381 C 0.78615 0.15276 0.74014 0.0
C382 C 0.80742 0.15812 0.75509 0.0
C383 C 0.82567 0.17501 0.74779 0.0
P384 P 0.5801 0.54205 0.55021 0.0
H385 H 0.58283 0.52881 0.6013 0.0
H386 H 0.55147 0.51963 0.6304 0.0
H387 H 0.49478 0.52227 0.57289 0.0
H388 H 0.5265 0.53205 0.54387 0.0
H389 H 0.61488 0.54253 0.51217 0.0
H390 H 0.63735 0.51106 0.49464 0.0
H391 H 0.59712 0.45782 0.53715 0.0
H392 H 0.57447 0.4893 0.55423 0.0
H393 H 0.5702 0.59153 0.55799 0.0
H394 H 0.56156 0.54121 0.49898 0.0
O395 O 0.60341 0.55579 0.56665 0.0
H396 H 0.55474 0.62288 0.5315 0.0
H397 H 0.54581 0.57257 0.47221 0.0
C398 C 0.55694 0.53161 0.57058 0.0
C399 C 0.56368 0.5272 0.59491 0.0
C400 C 0.54567 0.52174 0.61151 0.0
C401 C 0.52052 0.52038 0.60405 0.0
C402 C 0.51393 0.52359 0.57932 0.0
C403 C 0.53203 0.52908 0.5627 0.0
C404 C 0.59283 0.51824 0.53427 0.0
C405 C 0.61051 0.524 0.51726 0.0
C406 C 0.62348 0.50603 0.50742 0.0
C407 C 0.61913 0.48193 0.51457 0.0
C408 C 0.60071 0.47614 0.531 0.0
C409 C 0.58776 0.49417 0.54085 0.0
C410 C 0.56764 0.5643 0.53026 0.0
C411 C 0.56489 0.58724 0.53929 0.0
C412 C 0.55578 0.60507 0.52418 0.0
C413 C 0.54907 0.60024 0.49971 0.0
C414 C 0.5511 0.57692 0.4909 0.0
C415 C 0.56015 0.55901 0.50614 0.0
P416 P 0.56866 0.46561 0.95499 0.0
H417 H 0.62054 0.48108 0.96139 0.0
H418 H 0.64256 0.51551 0.98113 0.0
H419 H 0.57412 0.53703 0.00748 0.0
H420 H 0.55203 0.50277 0.98661 0.0
H421 H 0.57717 0.41593 0.94504 0.0
H422 H 0.57069 0.37879 0.96774 0.0
H423 H 0.54462 0.41819 0.02705 0.0
H424 H 0.55096 0.45571 0.0038 0.0
H425 H 0.55442 0.50802 0.92817 0.0
H426 H 0.51954 0.44015 0.95011 0.0
O427 O 0.58605 0.45996 0.93201 0.0
H428 H 0.51882 0.51481 0.90088 0.0
H429 H 0.48375 0.44704 0.92333 0.0
C430 C 0.58461 0.48972 0.9721 0.0
C431 C 0.61025 0.49317 0.97146 0.0
C432 C 0.6229 0.51279 0.98304 0.0
C433 C 0.61017 0.52923 0.99587 0.0
C434 C 0.58449 0.52502 0.9974 0.0
C435 C 0.57182 0.50539 0.9856 0.0
C436 C 0.56508 0.43865 0.97295 0.0
C437 C 0.57038 0.41674 0.96304 0.0
C438 C 0.5667 0.39545 0.9761 0.0
C439 C 0.55747 0.39554 0.99937 0.0
C440 C 0.55179 0.41754 0.00919 0.0
C441 C 0.55558 0.43898 0.99603 0.0
C442 C 0.53965 0.47367 0.94128 0.0
C443 C 0.53871 0.49502 0.92782 0.0
C444 C 0.51828 0.4989 0.91225 0.0
C445 C 0.49851 0.48135 0.90974 0.0
C446 C 0.4988 0.46077 0.92461 0.0
C447 C 0.51926 0.45689 0.94011 0.0
P448 P 0.72445 0.23887 0.24328 0.0
H449 H 0.7297 0.28748 0.26279 0.0
H450 H 0.72517 0.30339 0.30319 0.0
H451 H 0.69813 0.23303 0.32719 0.0
H452 H 0.7029 0.21717 0.28666 0.0
H453 H 0.72562 0.19857 0.21021 0.0
H454 H 0.74652 0.16149 0.21246 0.0
H455 H 0.77384 0.17892 0.28549 0.0
H456 H 0.75386 0.2167 0.28253 0.0
H457 H 0.71487 0.25666 0.19408 0.0
H458 H 0.6752 0.21474 0.24714 0.0
O459 O 0.74579 0.25755 0.23121 0.0
H460 H 0.68 0.25049 0.1649 0.0
H461 H 0.64006 0.20824 0.21775 0.0
C462 C 0.71731 0.25101 0.27196 0.0
C463 C 0.72254 0.27551 0.27666 0.0
C464 C 0.71975 0.28465 0.29973 0.0
C465 C 0.7116 0.2694 0.31847 0.0
C466 C 0.70485 0.24514 0.31321 0.0
C467 C 0.70751 0.23606 0.29007 0.0
C468 C 0.73746 0.21011 0.24648 0.0
C469 C 0.73575 0.19426 0.22688 0.0
C470 C 0.7477 0.17292 0.22824 0.0
C471 C 0.76175 0.16693 0.24927 0.0
C472 C 0.76336 0.18291 0.26894 0.0
C473 C 0.7516 0.20443 0.26742 0.0
C474 C 0.69753 0.23637 0.22288 0.0
C475 C 0.69854 0.24632 0.19957 0.0
C476 C 0.67864 0.24259 0.18279 0.0
C477 C 0.65733 0.22871 0.18894 0.0
C478 C 0.65614 0.21917 0.21253 0.0
C479 C 0.67618 0.22287 0.22934 0.0
P480 P 0.48463 0.97741 0.98322 0.0
H481 H 0.53156 0.96086 0.96926 0.0
H482 H 0.55261 0.96278 0.93151 0.0
H483 H 0.49165 0.99761 0.89664 0.0
H484 H 0.47094 0.99623 0.93501 0.0
H485 H 0.44606 0.99652 0.01116 0.0
H486 H 0.4421 0.03569 0.02912 0.0
H487 H 0.51044 0.06199 0.99877 0.0
H488 H 0.5135 0.02312 0.97987 0.0
H489 H 0.4734 0.92743 0.99628 0.0
H490 H 0.43472 0.98478 0.96252 0.0
O491 O 0.50315 0.96559 0.00445 0.0
H492 H 0.43601 0.90098 0.99293 0.0
H493 H 0.39696 0.95808 0.9587 0.0
C494 C 0.49969 0.97844 0.95495 0.0
C495 C 0.52265 0.96889 0.95353 0.0
C496 C 0.53461 0.96981 0.93179 0.0
C497 C 0.52379 0.98021 0.9109 0.0
C498 C 0.50062 0.98966 0.91239 0.0
C499 C 0.48869 0.98878 0.93426 0.0
C500 C 0.47963 0.00712 0.99346 0.0
C501 C 0.45979 0.01093 0.00774 0.0
C502 C 0.45778 0.03329 0.01838 0.0
C503 C 0.47596 0.05213 0.01548 0.0
C504 C 0.4958 0.04817 0.00103 0.0
C505 C 0.4976 0.02588 0.99019 0.0
C506 C 0.45672 0.9582 0.98007 0.0
C507 C 0.45682 0.93436 0.98812 0.0
C508 C 0.43542 0.91915 0.98599 0.0
C509 C 0.41346 0.92739 0.97551 0.0
C510 C 0.41349 0.95127 0.96709 0.0
C511 C 0.43505 0.9665 0.96918 0.0
Mg512 Mg 0.22782 0.83631 0.00264 0.0
O513 O 0.26489 0.85642 0.9939 0.0
O514 O 0.29225 0.82827 0.99388 0.0
Mg515 Mg 0.27427 0.79167 0.00426 0.0
C516 C 0.28669 0.85005 0.99117 0.0
C517 C 0.21137 0.88886 0.99991 0.0
O518 O 0.23195 0.89219 0.01329 0.0
O519 O 0.22437 0.82012 0.96431 0.0
O520 O 0.25073 0.79125 0.96882 0.0
O521 O 0.23594 0.84199 0.04261 0.0
O522 O 0.24717 0.81111 0.02231 0.0
C523 C 0.23441 0.80195 0.95629 0.0
C524 C 0.24785 0.82276 0.04232 0.0
O525 O 0.20541 0.86811 0.99128 0.0
Mg526 Mg 0.15509 0.50568 0.27744 0.0
O527 O 0.13021 0.50406 0.24229 0.0
O528 O 0.15544 0.50398 0.21171 0.0
Mg529 Mg 0.19545 0.50766 0.22643 0.0
C530 C 0.13384 0.50327 0.21966 0.0
C531 C 0.12578 0.50191 0.32239 0.0
O532 O 0.14671 0.51374 0.32899 0.0
O533 O 0.16466 0.46661 0.2733 0.0
O534 O 0.19115 0.47019 0.24372 0.0
O535 O 0.15738 0.546 0.27656 0.0
O536 O 0.18345 0.52379 0.25948 0.0
C537 C 0.1798 0.45761 0.25961 0.0
C538 C 0.17652 0.54481 0.26382 0.0
O539 O 0.12248 0.49503 0.30053 0.0
Mg540 Mg 0.76046 0.66696 0.04629 0.0
O541 O 0.72774 0.63853 0.04198 0.0
O542 O 0.69375 0.65844 0.03588 0.0
Mg543 Mg 0.70391 0.69876 0.03832 0.0
C544 C 0.70445 0.63883 0.03784 0.0
C545 C 0.7938 0.62254 0.05494 0.0
O546 O 0.78232 0.62022 0.07522 0.0
O547 O 0.75725 0.67571 0.00578 0.0
O548 O 0.72397 0.69703 0.00291 0.0
O549 O 0.75733 0.66936 0.08668 0.0
O550 O 0.73767 0.69142 0.05983 0.0
C551 C 0.74219 0.68816 0.99345 0.0
C552 C 0.74216 0.68588 0.08217 0.0
O553 O 0.78821 0.63901 0.03999 0.0
Mg554 Mg 0.90586 0.03853 0.24706 0.0
O555 O 0.87553 0.00787 0.2427 0.0
O556 O 0.89317 0.97389 0.23576 0.0
Mg557 Mg 0.93475 0.98272 0.23537 0.0
C558 C 0.87408 0.98532 0.23869 0.0
C559 C 0.85768 0.06519 0.24977 0.0
O560 O 0.85183 0.05098 0.23125 0.0
O561 O 0.91735 0.02509 0.28497 0.0
O562 O 0.93601 0.99208 0.27592 0.0
O563 O 0.90462 0.04555 0.2072 0.0
O564 O 0.92889 0.02032 0.22565 0.0
C565 C 0.92932 0.00695 0.29131 0.0
C566 C 0.92121 0.03018 0.20577 0.0
O567 O 0.87845 0.06372 0.26112 0.0
Mg568 Mg 0.26569 0.15834 0.52691 0.0
O569 O 0.23061 0.13236 0.52529 0.0
O570 O 0.19859 0.15528 0.52083 0.0
Mg571 Mg 0.21227 0.19476 0.51938 0.0
C572 C 0.20742 0.13473 0.52302 0.0
C573 C 0.29947 0.11571 0.53913 0.0
O574 O 0.29256 0.11977 0.56104 0.0
O575 O 0.26155 0.16509 0.48613 0.0
O576 O 0.22984 0.18852 0.48323 0.0
O577 O 0.2645 0.1631 0.56722 0.0
O578 O 0.24592 0.18565 0.54003 0.0
C579 C 0.24678 0.17771 0.47363 0.0
C580 C 0.2507 0.18068 0.56247 0.0
O581 O 0.29069 0.12773 0.52144 0.0
Mg582 Mg 0.40366 0.54536 0.7427 0.0
O583 O 0.3754 0.51333 0.73561 0.0
O584 O 0.39594 0.48081 0.72985 0.0
Mg585 Mg 0.43712 0.49183 0.73296 0.0
C586 C 0.37578 0.49092 0.7313 0.0
C587 C 0.37899 0.58802 0.76492 0.0
O588 O 0.40238 0.59397 0.7703 0.0
O589 O 0.41268 0.53185 0.78125 0.0
O590 O 0.43414 0.50038 0.77322 0.0
O591 O 0.40522 0.55289 0.70297 0.0
O592 O 0.42964 0.52897 0.72314 0.0
C593 C 0.42524 0.5143 0.78822 0.0
C594 C 0.42275 0.53841 0.70278 0.0
O595 O 0.37314 0.56809 0.75449 0.0
Mg596 Mg 0.73243 0.33537 0.50406 0.0
O597 O 0.76972 0.35593 0.49722 0.0
O598 O 0.79776 0.32847 0.49859 0.0
Mg599 Mg 0.77955 0.29159 0.50758 0.0
C600 C 0.79187 0.35009 0.49565 0.0
C601 C 0.68779 0.36392 0.48983 0.0
O602 O 0.67813 0.34177 0.49142 0.0
O603 O 0.73058 0.31949 0.46562 0.0
O604 O 0.75774 0.29146 0.47105 0.0
O605 O 0.73915 0.3407 0.54412 0.0
O606 O 0.7504 0.30953 0.52435 0.0
C607 C 0.7416 0.30179 0.45789 0.0
C608 C 0.75036 0.32101 0.54442 0.0
O609 O 0.71107 0.36763 0.49237 0.0
Mg610 Mg 0.65695 0.01276 0.77886 0.0
O611 O 0.6393 0.01133 0.73978 0.0
O612 O 0.67078 0.01448 0.71536 0.0
Mg613 Mg 0.70746 0.01779 0.73728 0.0
C614 C 0.6477 0.01234 0.71858 0.0
C615 C 0.6047 0.01627 0.79854 0.0
O616 O 0.60846 0.03787 0.78923 0.0
O617 O 0.66847 0.97392 0.77631 0.0
O618 O 0.70012 0.9799 0.75233 0.0
O619 O 0.65881 0.05351 0.77814 0.0
O620 O 0.68829 0.03157 0.76719 0.0
C621 C 0.6864 0.96614 0.76532 0.0
C622 C 0.68042 0.05244 0.76976 0.0
O623 O 0.62048 0.00095 0.79561 0.0
Mg624 Mg 0.04507 0.27419 0.9205 0.0
O625 O 0.01196 0.26651 0.89403 0.0
O626 O 0.97977 0.25238 0.91445 0.0
Mg627 Mg 0.99304 0.25038 0.95455 0.0
C628 C 0.98942 0.25879 0.89463 0.0
C629 C 0.08212 0.28521 0.88108 0.0
O630 O 0.08824 0.26425 0.88947 0.0
O631 O 0.02807 0.30744 0.93366 0.0
O632 O 0.99781 0.29193 0.95604 0.0
O633 O 0.05587 0.23692 0.91649 0.0
O634 O 0.03153 0.24763 0.94454 0.0
C635 C 0.0105 0.30997 0.94762 0.0
C636 C 0.04232 0.23083 0.93434 0.0
O637 O 0.06475 0.29522 0.89059 0.0
Mg638 Mg 0.52748 0.76876 0.42513 0.0
O639 O 0.49488 0.76128 0.39781 0.0
O640 O 0.46164 0.74921 0.41775 0.0
Mg641 Mg 0.47335 0.74844 0.45819 0.0
C642 C 0.47209 0.75433 0.39805 0.0
C643 C 0.56823 0.77637 0.38941 0.0
O644 O 0.57378 0.75697 0.40153 0.0
O645 O 0.51199 0.80363 0.43671 0.0
O646 O 0.48023 0.7897 0.45806 0.0
O647 O 0.53646 0.73063 0.42323 0.0
O648 O 0.51191 0.74398 0.44977 0.0
C649 C 0.49399 0.8071 0.44988 0.0
C650 C 0.52216 0.72614 0.44088 0.0
O651 O 0.54959 0.78715 0.39517 0.0
Mg652 Mg 0.965 0.729 0.59763 0.0
O653 O 0.00186 0.72158 0.61757 0.0
O654 O 0.02665 0.7082 0.59055 0.0
Mg655 Mg 0.00597 0.70736 0.55348 0.0
C656 C 0.02248 0.71406 0.61215 0.0
C657 C 0.93019 0.74551 0.63471 0.0
O658 O 0.9153 0.73412 0.61852 0.0
O659 O 0.98302 0.76373 0.58193 0.0
O660 O 0.00676 0.74857 0.55491 0.0
O661 O 0.95115 0.69084 0.60305 0.0
O662 O 0.97075 0.70397 0.57107 0.0
C663 C 0.99852 0.76647 0.56537 0.0
C664 C 0.9608 0.68618 0.58288 0.0
O665 O 0.95309 0.74769 0.63115 0.0
Mg666 Mg 0.47768 0.22786 0.08382 0.0
O667 O 0.51415 0.22239 0.10553 0.0
O668 O 0.54209 0.21402 0.0793 0.0
Mg669 Mg 0.5239 0.21425 0.04112 0.0
C670 C 0.53598 0.21755 0.10089 0.0
C671 C 0.43877 0.23831 0.11992 0.0
O672 O 0.42575 0.22601 0.10298 0.0
O673 O 0.49328 0.26504 0.0718 0.0
O674 O 0.52045 0.25478 0.04543 0.0
O675 O 0.46693 0.18837 0.08499 0.0
O676 O 0.48768 0.20624 0.05593 0.0
C677 C 0.50962 0.27066 0.05658 0.0
C678 C 0.47823 0.18669 0.06513 0.0
O679 O 0.46169 0.2428 0.11744 0.0
H680 H 0.21924 0.74658 0.85757 0.0
H681 H 0.20052 0.81635 0.83147 0.0
H682 H 0.20487 0.83194 0.87288 0.0
H683 H 0.21654 0.82613 0.91641 0.0
H684 H 0.23669 0.75626 0.94123 0.0
H685 H 0.22883 0.7403 0.90059 0.0
C686 C 0.21562 0.76508 0.86097 0.0
C687 C 0.2095 0.78025 0.8415 0.0
C688 C 0.21854 0.77396 0.88466 0.0
C689 C 0.20541 0.80433 0.84617 0.0
C690 C 0.20786 0.81324 0.86984 0.0
C691 C 0.21889 0.80737 0.91291 0.0
C692 C 0.22734 0.79247 0.9318 0.0
C693 C 0.2148 0.7983 0.88922 0.0
C694 C 0.23047 0.76821 0.92698 0.0
C695 C 0.22595 0.75901 0.90373 0.0
H696 H 0.03538 0.47414 0.38714 0.0
H697 H 0.08526 0.50905 0.44117 0.0
H698 H 0.11602 0.51672 0.41117 0.0
H699 H 0.12892 0.51366 0.36986 0.0
H700 H 0.07969 0.47905 0.31515 0.0
H701 H 0.04849 0.47127 0.34509 0.0
C702 C 0.05294 0.48353 0.39226 0.0
C703 C 0.05807 0.49081 0.41644 0.0
C704 C 0.07067 0.48795 0.37483 0.0
C705 C 0.08098 0.50285 0.42283 0.0
C706 C 0.09856 0.50738 0.40564 0.0
C707 C 0.11138 0.50441 0.36439 0.0
C708 C 0.10669 0.49696 0.34027 0.0
C709 C 0.09363 0.49997 0.38164 0.0
C710 C 0.08382 0.48498 0.3336 0.0
C711 C 0.06596 0.48053 0.35072 0.0
H712 H 0.75009 0.73657 0.89092 0.0
H713 H 0.82602 0.72076 0.90395 0.0
H714 H 0.81539 0.69795 0.94029 0.0
H715 H 0.78549 0.68686 0.97102 0.0
H716 H 0.71005 0.70488 0.95891 0.0
H717 H 0.71955 0.72238 0.91966 0.0
C718 C 0.7643 0.72802 0.90164 0.0
C719 C 0.78885 0.73063 0.89485 0.0
C720 C 0.75818 0.71546 0.92284 0.0
C721 C 0.80694 0.71897 0.90865 0.0
C722 C 0.80092 0.70607 0.92957 0.0
C723 C 0.77101 0.69418 0.95959 0.0
C724 C 0.74716 0.69479 0.96806 0.0
C725 C 0.77672 0.70479 0.93722 0.0
C726 C 0.72864 0.70441 0.95299 0.0
C727 C 0.73405 0.71447 0.93053 0.0
H728 H 0.98904 0.01363 0.39159 0.0
H729 H 0.98419 0.93678 0.38269 0.0
H730 H 0.95666 0.94035 0.34674 0.0
H731 H 0.93809 0.96564 0.31523 0.0
H732 H 0.94185 0.04246 0.32424 0.0
H733 H 0.96526 0.03862 0.36293 0.0
C734 C 0.98158 0.9977 0.38195 0.0
C735 C 0.98874 0.975 0.38961 0.0
C736 C 0.96568 0.99989 0.36128 0.0
C737 C 0.97883 0.95442 0.37718 0.0
C738 C 0.96322 0.95647 0.35654 0.0
C739 C 0.94364 0.9815 0.32591 0.0
C740 C 0.93853 0.00431 0.31678 0.0
C741 C 0.95711 0.97915 0.34805 0.0
C742 C 0.94553 0.02469 0.3309 0.0
C743 C 0.9591 0.02252 0.35293 0.0
H744 H 0.23859 0.25079 0.64887 0.0
H745 H 0.18002 0.27334 0.59994 0.0
H746 H 0.18797 0.24211 0.57161 0.0
H747 H 0.21287 0.20997 0.55963 0.0
H748 H 0.27011 0.18575 0.60883 0.0
H749 H 0.26064 0.2155 0.63859 0.0
C750 C 0.22722 0.24866 0.63224 0.0
C751 C 0.20905 0.26489 0.62645 0.0
C752 C 0.23154 0.23026 0.6161 0.0
C753 C 0.19467 0.26174 0.60465 0.0
C754 C 0.19902 0.24369 0.58847 0.0
C755 C 0.22315 0.21099 0.5769 0.0
C756 C 0.24235 0.19583 0.58184 0.0
C757 C 0.21767 0.22814 0.59382 0.0
C758 C 0.2552 0.19719 0.60456 0.0
C759 C 0.24991 0.21432 0.62152 0.0
H760 H 0.47803 0.54326 0.60562 0.0
H761 H 0.5203 0.49094 0.64396 0.0
H762 H 0.49252 0.49055 0.67716 0.0
H763 H 0.45872 0.50785 0.69687 0.0
H764 H 0.41597 0.55972 0.65846 0.0
H765 H 0.44118 0.55707 0.62346 0.0
C766 C 0.48085 0.53132 0.62094 0.0
C767 C 0.50148 0.5174 0.62239 0.0
C768 C 0.4648 0.53119 0.64003 0.0
C769 C 0.50491 0.50223 0.64257 0.0
C770 C 0.48897 0.50193 0.66155 0.0
C771 C 0.45458 0.51828 0.68073 0.0
C772 C 0.43557 0.5341 0.68041 0.0
C773 C 0.46925 0.5168 0.66074 0.0
C774 C 0.43053 0.54744 0.65926 0.0
C775 C 0.44501 0.54601 0.63925 0.0
H776 H 0.79942 0.29567 0.64708 0.0
H777 H 0.81647 0.23335 0.60724 0.0
H778 H 0.79654 0.2491 0.57062 0.0
H779 H 0.77334 0.27969 0.55012 0.0
H780 H 0.75612 0.34252 0.58895 0.0
H781 H 0.7767 0.32729 0.62582 0.0
C782 C 0.79872 0.28559 0.63036 0.0
C783 C 0.8096 0.26346 0.62988 0.0
C784 C 0.78712 0.29475 0.60923 0.0
C785 C 0.80866 0.25063 0.60804 0.0
C786 C 0.7971 0.25952 0.5871 0.0
C787 C 0.77431 0.29027 0.5665 0.0
C788 C 0.76334 0.3123 0.56667 0.0
C789 C 0.78623 0.2815 0.5875 0.0
C790 C 0.76446 0.32551 0.58828 0.0
C791 C 0.77622 0.31681 0.60938 0.0
H792 H 0.59079 0.01622 0.61632 0.0
H793 H 0.52776 0.00647 0.66018 0.0
H794 H 0.55504 0.0048 0.69681 0.0
H795 H 0.59707 0.00714 0.71636 0.0
H796 H 0.6596 0.0165 0.67141 0.0
H797 H 0.63224 0.01737 0.6354 0.0
C798 C 0.58301 0.01389 0.63392 0.0
C799 C 0.55732 0.01173 0.63557 0.0
C800 C 0.59874 0.01287 0.65476 0.0
C801 C 0.54751 0.00815 0.65844 0.0
C802 C 0.56309 0.00728 0.67938 0.0
C803 C 0.60472 0.0093 0.69869 0.0
C804 C 0.63046 0.01185 0.69679 0.0
C805 C 0.58879 0.00975 0.67778 0.0
C806 C 0.63994 0.01453 0.67363 0.0
C807 C 0.62429 0.01507 0.65291 0.0
H808 H 0.94084 0.25439 0.78833 0.0
H809 H 0.87734 0.22911 0.82713 0.0
H810 H 0.901 0.23496 0.86559 0.0
H811 H 0.94041 0.245 0.88814 0.0
H812 H 0.00417 0.26912 0.84899 0.0
H813 H 0.9798 0.26557 0.81085 0.0
C814 C 0.93216 0.25012 0.80519 0.0
C815 C 0.90735 0.24124 0.80476 0.0
C816 C 0.946 0.25307 0.82724 0.0
C817 C 0.89631 0.23625 0.82686 0.0
C818 C 0.9099 0.23937 0.84889 0.0
C819 C 0.949 0.24953 0.87129 0.0
C820 C 0.97419 0.25716 0.87155 0.0
C821 C 0.93488 0.24742 0.84929 0.0
C822 C 0.98488 0.2631 0.84946 0.0
C823 C 0.97095 0.2611 0.82756 0.0
H824 H 0.46464 0.90258 0.49756 0.0
H825 H 0.53809 0.92624 0.47824 0.0
H826 H 0.54227 0.88789 0.45852 0.0
H827 H 0.52594 0.84684 0.44868 0.0
H828 H 0.45285 0.82282 0.46898 0.0
H829 H 0.44752 0.86219 0.48592 0.0
C830 C 0.48143 0.89945 0.48876 0.0
C831 C 0.50108 0.91718 0.48955 0.0
C832 C 0.48379 0.87727 0.47759 0.0
C833 C 0.52283 0.91274 0.47824 0.0
C834 C 0.52519 0.89086 0.46685 0.0
C835 C 0.50871 0.8503 0.4565 0.0
C836 C 0.48988 0.83182 0.4576 0.0
C837 C 0.50593 0.87286 0.46669 0.0
C838 C 0.46774 0.83663 0.46799 0.0
C839 C 0.46466 0.85915 0.47774 0.0
H840 H 0.126 0.34386 0.79289 0.0
H841 H 0.15557 0.27561 0.78061 0.0
H842 H 0.1369 0.25903 0.81691 0.0
H843 H 0.1116 0.26362 0.85146 0.0
H844 H 0.08019 0.33111 0.86327 0.0
H845 H 0.10021 0.34839 0.82785 0.0
C846 C 0.12844 0.32543 0.79834 0.0
C847 C 0.1421 0.31093 0.78419 0.0
C848 C 0.11732 0.31591 0.81904 0.0
C849 C 0.14496 0.287 0.79118 0.0
C850 C 0.13436 0.27756 0.81193 0.0
C851 C 0.10921 0.28216 0.84641 0.0
C852 C 0.0945 0.29608 0.86004 0.0
C853 C 0.1204 0.29179 0.82589 0.0
C854 C 0.09141 0.32001 0.85306 0.0
C855 C 0.10286 0.32989 0.83283 0.0
H856 H 0.51818 0.63511 0.50866 0.0
H857 H 0.56366 0.60993 0.45397 0.0
H858 H 0.55654 0.6455 0.42931 0.0
H859 H 0.54163 0.68585 0.42563 0.0
H860 H 0.49766 0.712 0.4811 0.0
H861 H 0.49985 0.67394 0.50301 0.0
C862 C 0.52639 0.63735 0.49126 0.0
C863 C 0.54167 0.62001 0.48331 0.0
C864 C 0.52264 0.65811 0.47739 0.0
C865 C 0.55174 0.62291 0.46049 0.0
C866 C 0.54784 0.64336 0.44645 0.0
C867 C 0.53218 0.68311 0.44232 0.0
C868 C 0.51974 0.70186 0.45185 0.0
C869 C 0.53392 0.66138 0.45506 0.0
C870 C 0.50745 0.69792 0.4734 0.0
C871 C 0.5088 0.6762 0.48601 0.0
H872 H 0.90542 0.77979 0.73864 0.0
H873 H 0.83136 0.76254 0.7093 0.0
H874 H 0.84741 0.75089 0.67114 0.0
H875 H 0.88232 0.74561 0.64601 0.0
H876 H 0.95632 0.76425 0.67463 0.0
H877 H 0.94032 0.77598 0.71292 0.0
C878 C 0.89272 0.77376 0.72384 0.0
C879 C 0.86717 0.77196 0.72702 0.0
C880 C 0.90204 0.76749 0.70171 0.0
C881 C 0.85111 0.76369 0.70765 0.0
C882 C 0.86026 0.75722 0.68569 0.0
C883 C 0.89498 0.75233 0.66057 0.0
C884 C 0.9205 0.75399 0.65743 0.0
C885 C 0.88567 0.75902 0.68253 0.0
C886 C 0.9366 0.76282 0.6765 0.0
C887 C 0.92746 0.76946 0.69845 0.0
H888 H 0.01837 0.87417 0.53063 0.0
H889 H 0.07962 0.84285 0.49954 0.0
H890 H 0.06777 0.8042 0.51782 0.0
H891 H 0.03899 0.77876 0.54057 0.0
H892 H 0.97777 0.80924 0.57247 0.0
H893 H 0.99089 0.84884 0.55631 0.0
C894 C 0.02931 0.85897 0.52819 0.0
C895 C 0.04965 0.86134 0.51341 0.0
C896 C 0.02236 0.83663 0.5388 0.0
C897 C 0.06359 0.84141 0.51037 0.0
C898 C 0.05689 0.81931 0.5209 0.0
C899 C 0.02849 0.79404 0.54409 0.0
C900 C 0.00724 0.79094 0.55747 0.0
C901 C 0.03608 0.81661 0.53474 0.0
C902 C 0.99416 0.81108 0.56217 0.0
C903 C 0.00161 0.83372 0.55286 0.0
H904 H 0.09863 0.72159 0.70258 0.0
H905 H 0.14832 0.70686 0.6471 0.0
H906 H 0.1139 0.70246 0.61728 0.0
H907 H 0.07019 0.70506 0.60624 0.0
H908 H 0.02042 0.72182 0.66092 0.0
H909 H 0.05442 0.72341 0.69159 0.0
C910 C 0.10196 0.7175 0.68396 0.0
C911 C 0.12613 0.71451 0.67723 0.0
C912 C 0.08208 0.71549 0.66665 0.0
C913 C 0.12995 0.70884 0.65302 0.0
C914 C 0.11027 0.70653 0.63583 0.0
C915 C 0.06665 0.70887 0.62489 0.0
C916 C 0.04272 0.71338 0.63116 0.0
C917 C 0.08631 0.71008 0.64238 0.0
C918 C 0.03863 0.71835 0.65548 0.0
C919 C 0.05809 0.71928 0.67306 0.0
H920 H 0.9601 0.57519 0.56148 0.0
H921 H 0.97965 0.60273 0.49133 0.0
H922 H 0.97812 0.64376 0.50567 0.0
H923 H 0.97177 0.67186 0.5382 0.0
H924 H 0.95088 0.64453 0.60798 0.0
H925 H 0.95208 0.60337 0.59359 0.0
C926 C 0.96365 0.59014 0.5492 0.0
C927 C 0.9701 0.58581 0.52537 0.0
C928 C 0.96259 0.61374 0.55752 0.0
C929 C 0.97502 0.60549 0.50986 0.0
C930 C 0.97405 0.62898 0.51801 0.0
C931 C 0.96756 0.6569 0.5503 0.0
C932 C 0.96144 0.66125 0.57418 0.0
C933 C 0.96807 0.63332 0.54185 0.0
C934 C 0.9557 0.64167 0.58952 0.0
C935 C 0.95638 0.61813 0.58131 0.0
H936 H 0.76287 0.94418 0.23099 0.0
H937 H 0.79782 0.87787 0.22316 0.0
H938 H 0.83831 0.8994 0.22798 0.0
H939 H 0.86378 0.93712 0.23317 0.0
H940 H 0.82885 0.00358 0.24068 0.0
H941 H 0.78842 0.98191 0.23699 0.0
C942 C 0.77935 0.93446 0.23023 0.0
C943 C 0.77728 0.90944 0.22668 0.0
C944 C 0.8026 0.94697 0.23285 0.0
C945 C 0.79885 0.89707 0.22615 0.0
C946 C 0.82202 0.90939 0.22874 0.0
C947 C 0.84736 0.94693 0.23403 0.0
C948 C 0.84948 0.97202 0.23708 0.0
C949 C 0.82412 0.93436 0.23194 0.0
C950 C 0.82789 0.9843 0.23829 0.0
C951 C 0.80471 0.97192 0.23617 0.0
H952 H 0.80738 0.16057 0.27054 0.0
H953 H 0.74701 0.12291 0.22984 0.0
H954 H 0.77094 0.08782 0.2274 0.0
H955 H 0.80983 0.06862 0.23471 0.0
H956 H 0.86953 0.1055 0.27686 0.0
H957 H 0.84468 0.13978 0.28146 0.0
C958 C 0.79917 0.14456 0.26157 0.0
C959 C 0.77546 0.14467 0.25008 0.0
C960 C 0.81292 0.12424 0.26049 0.0
C961 C 0.76541 0.12369 0.23832 0.0
C962 C 0.77902 0.1035 0.23705 0.0
C963 C 0.81733 0.08407 0.24511 0.0
C964 C 0.8416 0.08458 0.25521 0.0
C965 C 0.80296 0.10373 0.24767 0.0
C966 C 0.85092 0.10462 0.26886 0.0
C967 C 0.83676 0.1243 0.27141 0.0
H968 H 0.36646 0.93733 0.98501 0.0
H969 H 0.40947 0.8804 0.96206 0.0
H970 H 0.37366 0.8519 0.96359 0.0
H971 H 0.33113 0.84248 0.97402 0.0
H972 H 0.28739 0.89895 0.99663 0.0
H973 H 0.32234 0.92837 0.99214 0.0
C974 C 0.36787 0.91878 0.97994 0.0
C975 C 0.39076 0.91096 0.9738 0.0
C976 C 0.34711 0.90238 0.98087 0.0
C977 C 0.39225 0.88681 0.96737 0.0
C978 C 0.37175 0.8705 0.96814 0.0
C979 C 0.32912 0.86125 0.97784 0.0
C980 C 0.30674 0.86842 0.98594 0.0
C981 C 0.34926 0.87797 0.97535 0.0
C982 C 0.30442 0.8929 0.99042 0.0
C983 C 0.32444 0.90972 0.98795 0.0
H984 H 0.22325 0.36338 0.30114 0.0
H985 H 0.2533 0.36449 0.23045 0.0
H986 H 0.22888 0.39799 0.21828 0.0
H987 H 0.20306 0.42989 0.2293 0.0
H988 H 0.17353 0.42973 0.30022 0.0
H989 H 0.19334 0.39275 0.31057 0.0
C990 C 0.22424 0.37084 0.28301 0.0
C991 C 0.24027 0.36162 0.26681 0.0
C992 C 0.21034 0.39033 0.2762 0.0
C993 C 0.24105 0.37116 0.24323 0.0
C994 C 0.22721 0.39044 0.2363 0.0
C995 C 0.20061 0.42158 0.24691 0.0
C996 C 0.18713 0.4328 0.26408 0.0
C997 C 0.21236 0.40059 0.25286 0.0
C998 C 0.18384 0.42155 0.28666 0.0
C999 C 0.19534 0.40049 0.29266 0.0
H1000 H 0.11839 0.05638 0.51399 0.0
H1001 H 0.17614 0.01319 0.49249 0.0
H1002 H 0.2067 0.04626 0.50153 0.0
H1003 H 0.21678 0.08864 0.51235 0.0
H1004 H 0.15847 0.13242 0.53115 0.0
H1005 H 0.12855 0.09812 0.52605 0.0
C1006 C 0.13764 0.05416 0.5112 0.0
C1007 C 0.14479 0.03223 0.50248 0.0
C1008 C 0.15512 0.07351 0.51576 0.0
C1009 C 0.16998 0.02966 0.49951 0.0
C1010 C 0.18753 0.04869 0.50445 0.0
C1011 C 0.19758 0.09059 0.5156 0.0
C1012 C 0.18992 0.11315 0.52197 0.0
C1013 C 0.18027 0.07085 0.51218 0.0
C1014 C 0.1649 0.11536 0.52601 0.0
C1015 C 0.14773 0.09573 0.52312 0.0
H1016 H 0.73605 0.15174 0.7425 0.0
H1017 H 0.7979 0.10765 0.75096 0.0
H1018 H 0.77043 0.07284 0.76022 0.0
H1019 H 0.72932 0.05496 0.76602 0.0
H1020 H 0.66682 0.09831 0.75988 0.0
H1021 H 0.69401 0.1335 0.7496 0.0
C1022 C 0.74337 0.13447 0.7464 0.0
C1023 C 0.76892 0.1322 0.74619 0.0
C1024 C 0.72742 0.1145 0.75206 0.0
C1025 C 0.77832 0.10983 0.75133 0.0
C1026 C 0.76264 0.08992 0.7565 0.0
C1027 C 0.72154 0.07206 0.76229 0.0
C1028 C 0.69609 0.07401 0.76344 0.0
C1029 C 0.73723 0.09206 0.75692 0.0
C1030 C 0.68638 0.09638 0.75902 0.0
C1031 C 0.70192 0.11646 0.75314 0.0
H1032 H 0.39077 0.06133 0.50916 0.0
H1033 H 0.39372 0.04427 0.58548 0.0
H1034 H 0.35561 0.06399 0.59013 0.0
H1035 H 0.32331 0.08884 0.57315 0.0
H1036 H 0.32095 0.10656 0.4969 0.0
H1037 H 0.35694 0.08386 0.49165 0.0
C1038 C 0.38305 0.0619 0.52681 0.0
C1039 C 0.39523 0.05152 0.54698 0.0
C1040 C 0.3613 0.07351 0.52941 0.0
C1041 C 0.38469 0.05199 0.56963 0.0
C1042 C 0.36297 0.06341 0.57233 0.0
C1043 C 0.33049 0.08755 0.55532 0.0
C1044 C 0.31952 0.09962 0.53551 0.0
C1045 C 0.35137 0.07462 0.55244 0.0
C1046 C 0.32904 0.09758 0.51252 0.0
C1047 C 0.34969 0.08464 0.50949 0.0
H1048 H 0.60515 0.43609 0.50034 0.0
H1049 H 0.66902 0.4857 0.51109 0.0
H1050 H 0.69581 0.4542 0.50176 0.0
H1051 H 0.70142 0.41171 0.49418 0.0
H1052 H 0.63763 0.36174 0.48468 0.0
H1053 H 0.61063 0.39417 0.48979 0.0
C1054 C 0.62493 0.44001 0.50055 0.0
C1055 C 0.63502 0.46321 0.50653 0.0
C1056 C 0.64031 0.42169 0.4955 0.0
C1057 C 0.66068 0.46809 0.50633 0.0
C1058 C 0.67607 0.45002 0.50116 0.0
C1059 C 0.68161 0.40795 0.49287 0.0
C1060 C 0.67162 0.38424 0.48929 0.0
C1061 C 0.66613 0.42664 0.49619 0.0
C1062 C 0.64588 0.37977 0.48758 0.0
C1063 C 0.63038 0.3983 0.49058 0.0
H1064 H 0.72991 0.24718 0.35834 0.0
H1065 H 0.69627 0.31179 0.33531 0.0
H1066 H 0.70158 0.32742 0.3767 0.0
H1067 H 0.71759 0.32324 0.41927 0.0
H1068 H 0.75219 0.2585 0.44086 0.0
H1069 H 0.74443 0.24243 0.40036 0.0
C1070 C 0.72329 0.26449 0.36244 0.0
C1071 C 0.71257 0.27822 0.34382 0.0
C1072 C 0.72674 0.27346 0.38606 0.0
C1073 C 0.70466 0.30089 0.34934 0.0
C1074 C 0.70768 0.30982 0.37299 0.0
C1075 C 0.72327 0.30557 0.41512 0.0
C1076 C 0.73562 0.29224 0.43315 0.0
C1077 C 0.719 0.29638 0.39148 0.0
C1078 C 0.7429 0.26936 0.42738 0.0
C1079 C 0.73842 0.26004 0.40418 0.0
H1080 H 0.5269 0.01755 0.87867 0.0
H1081 H 0.55088 0.94627 0.89162 0.0
H1082 H 0.57653 0.95035 0.85678 0.0
H1083 H 0.5946 0.97529 0.82454 0.0
H1084 H 0.57033 0.04646 0.81142 0.0
H1085 H 0.54189 0.04095 0.84393 0.0
C1086 C 0.53732 0.0027 0.87362 0.0
C1087 C 0.53717 0.98177 0.88804 0.0
C1088 C 0.55205 0.00513 0.85348 0.0
C1089 C 0.55104 0.96282 0.88124 0.0
C1090 C 0.56564 0.96507 0.8612 0.0
C1091 C 0.58285 0.98948 0.82854 0.0
C1092 C 0.58486 0.01135 0.81567 0.0
C1093 C 0.5667 0.98634 0.8475 0.0
C1094 C 0.56934 0.02948 0.82108 0.0
C1095 C 0.55309 0.02639 0.83976 0.0
H1096 H 0.24974 0.21837 0.36764 0.0
H1097 H 0.3277 0.21357 0.38333 0.0
H1098 H 0.31927 0.19176 0.42066 0.0
H1099 H 0.29024 0.17912 0.45163 0.0
H1100 H 0.21275 0.18794 0.43789 0.0
H1101 H 0.22051 0.20319 0.39725 0.0
C1102 C 0.26492 0.21255 0.37917 0.0
C1103 C 0.28934 0.21795 0.37266 0.0
C1104 C 0.26003 0.20088 0.40118 0.0
C1105 C 0.30869 0.20958 0.3876 0.0
C1106 C 0.30391 0.19728 0.40917 0.0
C1107 C 0.275 0.18385 0.43952 0.0
C1108 C 0.25097 0.1825 0.44777 0.0
C1109 C 0.27971 0.1935 0.41651 0.0
C1110 C 0.23143 0.18895 0.43198 0.0
C1111 C 0.23587 0.19774 0.40878 0.0
H1112 H 0.47442 0.5205 0.89358 0.0
H1113 H 0.48108 0.44537 0.87938 0.0
H1114 H 0.45586 0.44834 0.84204 0.0
H1115 H 0.43662 0.47315 0.81087 0.0
H1116 H 0.43021 0.54845 0.82379 0.0
H1117 H 0.4503 0.54448 0.86419 0.0
C1118 C 0.47007 0.50474 0.88244 0.0
C1119 C 0.47979 0.48279 0.88929 0.0
C1120 C 0.45575 0.50662 0.86063 0.0
C1121 C 0.47369 0.46244 0.87479 0.0
C1122 C 0.45942 0.46415 0.85326 0.0
C1123 C 0.43923 0.48863 0.82268 0.0
C1124 C 0.43227 0.51112 0.81423 0.0
C1125 C 0.45103 0.48628 0.84565 0.0
C1126 C 0.43542 0.53093 0.82987 0.0
C1127 C 0.4471 0.5287 0.8529 0.0
H1128 H 0.72585 0.75479 0.16823 0.0
H1129 H 0.66681 0.77494 0.1186 0.0
H1130 H 0.67575 0.74346 0.09092 0.0
H1131 H 0.70226 0.71248 0.07929 0.0
H1132 H 0.76048 0.69105 0.12893 0.0
H1133 H 0.74924 0.72014 0.15856 0.0
C1134 C 0.71459 0.75204 0.15161 0.0
C1135 C 0.69603 0.76771 0.14535 0.0
C1136 C 0.71961 0.73359 0.13579 0.0
C1137 C 0.68173 0.76375 0.12362 0.0
C1138 C 0.68668 0.74558 0.10782 0.0
C1139 C 0.71233 0.71391 0.09666 0.0
C1140 C 0.73238 0.69982 0.10172 0.0
C1141 C 0.70592 0.73079 0.11346 0.0
C1142 C 0.74494 0.70167 0.12457 0.0
C1143 C 0.73865 0.71845 0.14144 0.0
H1144 H 0.97656 0.04136 0.10941 0.0
H1145 H 0.01809 0.98611 0.14369 0.0
H1146 H 0.98941 0.98258 0.17616 0.0
H1147 H 0.95564 0.99865 0.19719 0.0
H1148 H 0.91389 0.05359 0.1627 0.0
H1149 H 0.93915 0.0532 0.12758 0.0
C1150 C 0.979 0.02805 0.12358 0.0
C1151 C 0.99977 0.01434 0.12427 0.0
C1152 C 0.96246 0.02614 0.14226 0.0
C1153 C 0.00264 0.99733 0.14298 0.0
C1154 C 0.98618 0.99523 0.16153 0.0
C1155 C 0.95171 0.0102 0.18181 0.0
C1156 C 0.93309 0.02635 0.18276 0.0
C1157 C 0.96652 0.01011 0.16178 0.0
C1158 C 0.92818 0.04106 0.16254 0.0
C1159 C 0.94272 0.04095 0.14247 0.0
H1160 H 0.31598 0.77414 0.12069 0.0
H1161 H 0.26051 0.79537 0.16739 0.0
H1162 H 0.24016 0.81593 0.13335 0.0
H1163 H 0.23665 0.8253 0.08948 0.0
H1164 H 0.29188 0.80266 0.04328 0.0
H1165 H 0.314 0.7855 0.07796 0.0
C1166 C 0.29975 0.78371 0.12359 0.0
C1167 C 0.28982 0.7833 0.14655 0.0
C1168 C 0.28798 0.79505 0.10392 0.0
C1169 C 0.26843 0.79533 0.14984 0.0
C1170 C 0.25682 0.80709 0.13039 0.0
C1171 C 0.25369 0.81685 0.08714 0.0
C1172 C 0.26238 0.81479 0.0638 0.0
C1173 C 0.26618 0.80668 0.10723 0.0
C1174 C 0.28443 0.80382 0.06093 0.0
C1175 C 0.2972 0.79416 0.0808 0.0
H1176 H 0.03779 0.51438 0.15234 0.0
H1177 H 0.08359 0.4844 0.10055 0.0
H1178 H 0.11632 0.48117 0.13176 0.0
H1179 H 0.13279 0.48826 0.17317 0.0
H1180 H 0.08704 0.5165 0.22591 0.0
H1181 H 0.05329 0.51841 0.19506 0.0
C1182 C 0.05478 0.50682 0.14794 0.0
C1183 C 0.05829 0.50013 0.12391 0.0
C1184 C 0.07358 0.50465 0.16616 0.0
C1185 C 0.08054 0.4904 0.11865 0.0
C1186 C 0.09927 0.48834 0.13655 0.0
C1187 C 0.11541 0.49475 0.17799 0.0
C1188 C 0.11255 0.50245 0.20176 0.0
C1189 C 0.09614 0.49574 0.16025 0.0
C1190 C 0.08975 0.51046 0.20775 0.0
C1191 C 0.07047 0.51166 0.19008 0.0
H1192 H 0.42657 0.74002 0.2913 0.0
H1193 H 0.3592 0.73332 0.32907 0.0
H1194 H 0.38245 0.74088 0.36766 0.0
H1195 H 0.42214 0.74774 0.39077 0.0
H1196 H 0.4894 0.75476 0.35258 0.0
H1197 H 0.46597 0.7486 0.31412 0.0
C1198 C 0.417 0.7402 0.30801 0.0
C1199 C 0.39124 0.73596 0.30738 0.0
C1200 C 0.43047 0.7445 0.33006 0.0
C1201 C 0.37901 0.73667 0.32908 0.0
C1202 C 0.39231 0.74084 0.35115 0.0
C1203 C 0.43169 0.74796 0.37404 0.0
C1204 C 0.45755 0.75156 0.37466 0.0
C1205 C 0.41808 0.74452 0.35188 0.0
C1206 C 0.46954 0.75203 0.35273 0.0
C1207 C 0.45616 0.74847 0.33068 0.0
H1208 H 0.005 0.41966 0.97224 0.0
H1209 H 0.95168 0.38974 0.02113 0.0
H1210 H 0.95702 0.34943 0.00622 0.0
H1211 H 0.97787 0.32263 0.98028 0.0
H1212 H 0.03147 0.35279 0.93164 0.0
H1213 H 0.02463 0.39308 0.94523 0.0
C1214 C 0.99423 0.40438 0.97937 0.0
C1215 C 0.97795 0.40774 0.99778 0.0
C1216 C 0.99748 0.38127 0.97079 0.0
C1217 C 0.96451 0.38764 0.00713 0.0
C1218 C 0.9675 0.3646 0.99855 0.0
C1219 C 0.98797 0.33799 0.9725 0.0
C1220 C 0.00525 0.33455 0.95499 0.0
C1221 C 0.98412 0.36118 0.98055 0.0
C1222 C 0.01813 0.35478 0.94519 0.0
C1223 C 0.01425 0.37788 0.95296 0.0
H1224 H 0.63446 0.7917 0.29969 0.0
H1225 H 0.60721 0.86226 0.30118 0.0
H1226 H 0.58352 0.85076 0.33647 0.0
H1227 H 0.57001 0.82011 0.36651 0.0
H1228 H 0.59909 0.75016 0.36539 0.0
H1229 H 0.62248 0.7619 0.33039 0.0
C1230 C 0.62328 0.80451 0.30775 0.0
C1231 C 0.62239 0.82769 0.29784 0.0
C1232 C 0.61 0.79786 0.32808 0.0
C1233 C 0.60819 0.84431 0.30862 0.0
C1234 C 0.59459 0.83771 0.3287 0.0
C1235 C 0.58148 0.80749 0.35858 0.0
C1236 C 0.58271 0.78428 0.36852 0.0
C1237 C 0.59526 0.81446 0.33854 0.0
C1238 C 0.59784 0.76817 0.35818 0.0
C1239 C 0.61121 0.77482 0.3381 0.0
H1240 H 0.06287 0.12651 0.96952 0.0
H1241 H 0.01986 0.14688 0.02838 0.0
H1242 H 0.01155 0.18444 0.00754 0.0
H1243 H 0.01989 0.21319 0.97444 0.0
H1244 H 0.06281 0.19244 0.91563 0.0
H1245 H 0.06714 0.15316 0.93432 0.0
C1246 C 0.05118 0.13886 0.97757 0.0
C1247 C 0.04234 0.13397 0.00068 0.0
C1248 C 0.04651 0.16048 0.96552 0.0
C1249 C 0.0274 0.15039 0.01086 0.0
C1250 C 0.02254 0.17186 0.99891 0.0
C1251 C 0.02982 0.19993 0.9655 0.0
C1252 C 0.04123 0.20589 0.94381 0.0
C1253 C 0.03255 0.17739 0.97652 0.0
C1254 C 0.05398 0.18844 0.93244 0.0
C1255 C 0.05655 0.16595 0.94315 0.0
H1256 H 0.40434 0.27526 0.21952 0.0
H1257 H 0.33383 0.24737 0.18865 0.0
H1258 H 0.35334 0.23516 0.15245 0.0
H1259 H 0.39028 0.23265 0.1294 0.0
H1260 H 0.46068 0.26144 0.15971 0.0
H1261 H 0.44122 0.27346 0.19609 0.0
C1262 C 0.39317 0.26674 0.20478 0.0
C1263 C 0.36761 0.26223 0.20691 0.0
C1264 C 0.40446 0.26001 0.18385 0.0
C1265 C 0.35356 0.25076 0.18774 0.0
C1266 C 0.36468 0.24392 0.16692 0.0
C1267 C 0.4014 0.24159 0.14393 0.0
C1268 C 0.42693 0.24611 0.14179 0.0
C1269 C 0.3901 0.24846 0.16479 0.0
C1270 C 0.441 0.25775 0.16083 0.0
C1271 C 0.42989 0.2646 0.18167 0.0
H1272 H 0.51795 0.37995 0.02536 0.0
H1273 H 0.58834 0.35931 0.00352 0.0
H1274 H 0.58019 0.31936 0.0206 0.0
H1275 H 0.55201 0.2894 0.03877 0.0
H1276 H 0.48178 0.30932 0.06152 0.0
H1277 H 0.49114 0.35058 0.0475 0.0
C1278 C 0.53168 0.36684 0.02476 0.0
C1279 C 0.55354 0.3725 0.01279 0.0
C1280 C 0.52686 0.34375 0.03465 0.0
C1281 C 0.57112 0.35527 0.01213 0.0
C1282 C 0.56653 0.33243 0.02196 0.0
C1283 C 0.53877 0.30278 0.04082 0.0
C1284 C 0.51609 0.29622 0.05085 0.0
C1285 C 0.54424 0.32631 0.03271 0.0
C1286 C 0.49936 0.3139 0.05379 0.0
C1287 C 0.50466 0.33746 0.04568 0.0
H1288 H 0.60786 0.23011 0.19432 0.0
H1289 H 0.66091 0.21605 0.1419 0.0
H1290 H 0.62799 0.21011 0.11051 0.0
H1291 H 0.58457 0.21062 0.09746 0.0
H1292 H 0.53108 0.22509 0.14939 0.0
H1293 H 0.56369 0.22872 0.18147 0.0
C1294 C 0.61215 0.22547 0.17609 0.0
C1295 C 0.63685 0.22379 0.17043 0.0
C1296 C 0.59307 0.22215 0.15802 0.0
C1297 C 0.64212 0.21791 0.14666 0.0
C1298 C 0.62329 0.21438 0.12871 0.0
C1299 C 0.57991 0.21438 0.11581 0.0
C1300 C 0.55533 0.21767 0.12088 0.0
C1301 C 0.59875 0.21675 0.1341 0.0
C1302 C 0.5498 0.2225 0.14486 0.0
C1303 C 0.56847 0.22465 0.16325 0.0
H1304 H 0.48911 0.09716 0.99872 0.0
H1305 H 0.4603 0.05977 0.06098 0.0
H1306 H 0.4584 0.09786 0.08175 0.0
H1307 H 0.46513 0.14194 0.08245 0.0
H1308 H 0.49555 0.17891 0.02075 0.0
H1309 H 0.49723 0.14082 0.99996 0.0
C1310 C 0.48268 0.09724 0.01694 0.0
C1311 C 0.47474 0.07549 0.02811 0.0
C1312 C 0.48211 0.11919 0.02905 0.0
C1313 C 0.46607 0.07617 0.05163 0.0
C1314 C 0.46519 0.09797 0.06368 0.0
C1315 C 0.47223 0.14164 0.0645 0.0
C1316 C 0.48027 0.16328 0.05325 0.0
C1317 C 0.47316 0.1196 0.05257 0.0
C1318 C 0.48942 0.16255 0.02997 0.0
C1319 C 0.49028 0.14076 0.01798 0.0
H1320 H 0.26764 0.44237 0.71773 0.0
H1321 H 0.30819 0.37962 0.70885 0.0
H1322 H 0.34696 0.40379 0.71562 0.0
H1323 H 0.36935 0.44276 0.72325 0.0
H1324 H 0.32891 0.50576 0.73158 0.0
H1325 H 0.29013 0.48147 0.72553 0.0
C1326 C 0.28496 0.43401 0.7171 0.0
C1327 C 0.28496 0.4092 0.71278 0.0
C1328 C 0.30722 0.44806 0.72082 0.0
C1329 C 0.3076 0.3986 0.71244 0.0
C1330 C 0.3298 0.41245 0.71615 0.0
C1331 C 0.35209 0.45125 0.72376 0.0
C1332 C 0.35216 0.47613 0.72782 0.0
C1333 C 0.32983 0.4372 0.72027 0.0
C1334 C 0.32951 0.48669 0.72847 0.0
C1335 C 0.30728 0.47281 0.72501 0.0
H1336 H 0.31575 0.67719 0.77675 0.0
H1337 H 0.2607 0.62995 0.73921 0.0
H1338 H 0.2889 0.59776 0.74087 0.0
H1339 H 0.33027 0.584 0.75022 0.0
H1340 H 0.38564 0.6318 0.78672 0.0
H1341 H 0.35627 0.66271 0.78817 0.0
C1342 C 0.30992 0.65985 0.76893 0.0
C1343 C 0.28619 0.65609 0.75771 0.0
C1344 C 0.32634 0.64151 0.76965 0.0
C1345 C 0.27878 0.63333 0.74811 0.0
C1346 C 0.29496 0.61494 0.7489 0.0
C1347 C 0.33586 0.60108 0.75874 0.0
C1348 C 0.36023 0.60559 0.76817 0.0
C1349 C 0.31894 0.61895 0.75926 0.0
C1350 C 0.36708 0.62783 0.77919 0.0
C1351 C 0.35029 0.64558 0.77999 0.0
H1352 H 0.86968 0.43932 0.49262 0.0
H1353 H 0.91533 0.38388 0.47113 0.0
H1354 H 0.8802 0.35442 0.47145 0.0
H1355 H 0.83742 0.34376 0.48042 0.0
H1356 H 0.7911 0.39883 0.50133 0.0
H1357 H 0.82546 0.42913 0.49816 0.0
C1358 C 0.87183 0.42089 0.48758 0.0
C1359 C 0.89524 0.41378 0.48222 0.0
C1360 C 0.85147 0.40394 0.48779 0.0
C1361 C 0.89768 0.38977 0.47584 0.0
C1362 C 0.87757 0.3729 0.47592 0.0
C1363 C 0.83474 0.36241 0.48417 0.0
C1364 C 0.81177 0.36893 0.49139 0.0
C1365 C 0.85454 0.37967 0.48238 0.0
C1366 C 0.80858 0.39327 0.49579 0.0
C1367 C 0.82827 0.4106 0.49406 0.0
H1368 H 0.7265 0.87089 0.80879 0.0
H1369 H 0.77328 0.88192 0.74861 0.0
H1370 H 0.74894 0.91445 0.73335 0.0
H1371 H 0.7179 0.94257 0.7397 0.0
H1372 H 0.67247 0.93419 0.80123 0.0
H1373 H 0.69219 0.8974 0.81301 0.0
C1374 C 0.73096 0.88018 0.7921 0.0
C1375 C 0.75171 0.87427 0.77989 0.0
C1376 C 0.71722 0.89935 0.78376 0.0
C1377 C 0.75751 0.88641 0.75837 0.0
C1378 C 0.74362 0.90497 0.74966 0.0
C1379 C 0.71199 0.93258 0.75554 0.0
C1380 C 0.69398 0.94138 0.76977 0.0
C1381 C 0.72395 0.91205 0.76261 0.0
C1382 C 0.68633 0.9279 0.78997 0.0
C1383 C 0.69776 0.90695 0.79683 0.0
H1384 H 0.65651 0.53407 0.01776 0.0
H1385 H 0.59406 0.57456 0.99669 0.0
H1386 H 0.61708 0.61155 0.00969 0.0
H1387 H 0.65578 0.63285 0.02391 0.0
H1388 H 0.71921 0.59293 0.04273 0.0
H1389 H 0.69501 0.55538 0.03335 0.0
C1390 C 0.64791 0.55097 0.01593 0.0
C1391 C 0.62353 0.55139 0.00611 0.0
C1392 C 0.66151 0.57237 0.0228 0.0
C1393 C 0.61261 0.5735 0.00444 0.0
C1394 C 0.62587 0.59477 0.01165 0.0
C1395 C 0.66435 0.61597 0.02618 0.0
C1396 C 0.68939 0.61583 0.0339 0.0
C1397 C 0.65046 0.59446 0.02043 0.0
C1398 C 0.70004 0.59367 0.03671 0.0
C1399 C 0.68621 0.57215 0.03134 0.0
H1400 H 0.23167 0.64588 0.24411 0.0
H1401 H 0.2822 0.60025 0.21286 0.0
H1402 H 0.25489 0.56498 0.22093 0.0
H1403 H 0.21805 0.54688 0.23881 0.0
H1404 H 0.16729 0.59184 0.27066 0.0
H1405 H 0.19333 0.6276 0.26045 0.0
C1406 C 0.23667 0.6282 0.23911 0.0
C1407 C 0.25896 0.62571 0.22792 0.0
C1408 C 0.22089 0.6079 0.24392 0.0
C1409 C 0.26504 0.60271 0.22124 0.0
C1410 C 0.2495 0.5825 0.22597 0.0
C1411 C 0.21241 0.56448 0.24323 0.0
C1412 C 0.19071 0.56663 0.25547 0.0
C1413 C 0.22752 0.58487 0.23749 0.0
C1414 C 0.18389 0.58965 0.2612 0.0
C1415 C 0.19882 0.61011 0.25545 0.0
H1416 H 0.88858 0.57423 0.02414 0.0
H1417 H 0.87738 0.53503 0.09066 0.0
H1418 H 0.83978 0.55554 0.09619 0.0
H1419 H 0.81134 0.58628 0.0831 0.0
H1420 H 0.8231 0.62526 0.01637 0.0
H1421 H 0.85919 0.60319 0.01001 0.0
C1422 C 0.87792 0.57021 0.03988 0.0
C1423 C 0.88589 0.55334 0.0571 0.0
C1424 C 0.85645 0.58209 0.04294 0.0
C1425 C 0.8716 0.54791 0.07712 0.0
C1426 C 0.85018 0.55972 0.08034 0.0
C1427 C 0.82169 0.58984 0.06708 0.0
C1428 C 0.81454 0.60759 0.05035 0.0
C1429 C 0.84259 0.57708 0.06351 0.0
C1430 C 0.82815 0.61182 0.02962 0.0
C1431 C 0.84887 0.59922 0.02596 0.0
H1432 H 0.12103 0.95359 0.00116 0.0
H1433 H 0.17811 0.00447 0.02989 0.0
H1434 H 0.20914 0.97612 0.02333 0.0
H1435 H 0.2197 0.9357 0.01272 0.0
H1436 H 0.16287 0.88456 0.98393 0.0
H1437 H 0.13226 0.91417 0.98702 0.0
C1438 C 0.14029 0.95849 0.0058 0.0
C1439 C 0.14721 0.98108 0.01607 0.0
C1440 C 0.15811 0.94201 0.00207 0.0
C1441 C 0.17229 0.9873 0.02174 0.0
C1442 C 0.19005 0.97103 0.01815 0.0
C1443 C 0.20068 0.9311 0.00684 0.0
C1444 C 0.19359 0.90784 0.99837 0.0
C1445 C 0.18313 0.94817 0.00878 0.0
C1446 C 0.16887 0.9023 0.99059 0.0
C1447 C 0.1513 0.9192 0.99247 0.0
loop_
_geom_bond_atom_site_label_1
_geom_bond_atom_site_label_2
_geom_bond_distance
_geom_bond_site_symmetry_2
_ccdc_geom_bond_type
P0 O11 1.490 . S
P0 C14 1.812 . S
P0 C20 1.803 . S
P0 C26 1.819 . S
H1 C15 0.941 . S
H2 C16 0.939 . S
H3 C18 0.940 . S
H4 C19 0.940 . S
H5 C21 0.939 . S
H6 C22 0.942 . S
H7 C24 0.940 . S
H8 C25 0.939 . S
H9 C27 0.941 . S
H10 C31 0.939 . S
O11 P0 1.490 . S
H12 C28 0.939 . S
H13 C30 0.940 . S
C14 P0 1.812 . S
C14 C15 1.389 . S
C14 C19 1.391 . S
C15 H1 0.941 . S
C15 C14 1.389 . S
C15 C16 1.397 . S
C16 H2 0.939 . S
C16 C15 1.397 . S
C16 C17 1.378 1_455 S
C17 C16 1.378 1_655 S
C17 C18 1.378 . S
C18 H3 0.940 . S
C18 C17 1.378 . S
C18 C19 1.396 1_655 S
C19 H4 0.940 . S
C19 C14 1.391 . S
C19 C18 1.396 1_455 S
C20 P0 1.803 . S
C20 C21 1.378 . S
C20 C25 1.400 . S
C21 H5 0.939 . S
C21 C20 1.378 . S
C21 C22 1.361 . S
C22 H6 0.942 . S
C22 C21 1.361 . S
C22 C23 1.369 1_545 S
C23 C22 1.369 1_565 S
C23 C24 1.404 . S
C24 H7 0.940 . S
C24 C23 1.404 . S
C24 C25 1.389 1_565 S
C25 H8 0.939 . S
C25 C20 1.400 . S
C25 C24 1.389 1_545 S
C26 P0 1.819 . S
C26 C27 1.391 . S
C26 C31 1.391 . S
C27 H9 0.941 . S
C27 C26 1.391 . S
C27 C28 1.396 . S
C28 H12 0.939 . S
C28 C27 1.396 . S
C28 C29 1.397 1_554 S
C29 C28 1.397 1_556 S
C29 C30 1.385 . S
C30 H13 0.940 . S
C30 C29 1.385 . S
C30 C31 1.388 1_556 S
C31 H10 0.939 . S
C31 C26 1.391 . S
C31 C30 1.388 1_554 S
P32 O43 1.490 . S
P32 C46 1.812 . S
P32 C52 1.803 . S
P32 C58 1.819 . S
H33 C47 0.941 . S
H34 C48 0.939 . S
H35 C50 0.940 . S
H36 C51 0.940 . S
H37 C53 0.939 . S
H38 C54 0.942 . S
H39 C56 0.940 . S
H40 C57 0.939 . S
H41 C59 0.941 . S
H42 C63 0.939 . S
O43 P32 1.490 . S
H44 C60 0.939 . S
H45 C62 0.940 . S
C46 P32 1.812 . S
C46 C47 1.389 . S
C46 C51 1.391 . S
C47 H33 0.941 . S
C47 C46 1.389 . S
C47 C48 1.397 . S
C48 H34 0.939 . S
C48 C47 1.397 . S
C48 C49 1.378 . S
C49 C48 1.378 . S
C49 C50 1.378 . S
C50 H35 0.940 . S
C50 C49 1.378 . S
C50 C51 1.396 . S
C51 H36 0.940 . S
C51 C46 1.391 . S
C51 C50 1.396 . S
C52 P32 1.803 . S
C52 C53 1.378 . S
C52 C57 1.400 . S
C53 H37 0.939 . S
C53 C52 1.378 . S
C53 C54 1.361 . S
C54 H38 0.942 . S
C54 C53 1.361 . S
C54 C55 1.369 . S
C55 C54 1.369 . S
C55 C56 1.404 . S
C56 H39 0.940 . S
C56 C55 1.404 . S
C56 C57 1.389 . S
C57 H40 0.939 . S
C57 C52 1.400 . S
C57 C56 1.389 . S
C58 P32 1.819 . S
C58 C59 1.391 . S
C58 C63 1.391 . S
C59 H41 0.941 . S
C59 C58 1.391 . S
C59 C60 1.396 . S
C60 H44 0.939 . S
C60 C59 1.396 . S
C60 C61 1.397 . S
C61 C60 1.397 . S
C61 C62 1.385 . S
C62 H45 0.940 . S
C62 C61 1.385 . S
C62 C63 1.388 . S
C63 H42 0.939 . S
C63 C58 1.391 . S
C63 C62 1.388 . S
P64 O75 1.497 . S
P64 C78 1.812 1_455 S
P64 C84 1.791 1_455 S
P64 C90 1.823 . S
H65 C79 0.941 . S
H66 C80 0.946 . S
H67 C82 0.940 . S
H68 C83 0.940 . S
H69 C85 0.939 . S
H70 C86 0.942 . S
H71 C88 0.940 . S
H72 C89 0.939 . S
H73 C91 0.941 . S
H74 C95 0.939 . S
O75 P64 1.497 . S
H76 C92 0.939 . S
H77 C94 0.940 1_655 S
C78 P64 1.812 1_655 S
C78 C79 1.389 1_654 S
C78 C83 1.391 . S
C79 H65 0.941 . S
C79 C78 1.389 1_456 S
C79 C80 1.396 . S
C80 H66 0.946 . S
C80 C79 1.396 . S
C80 C81 1.374 1_455 S
C81 C80 1.374 1_655 S
C81 C82 1.378 1_556 S
C82 H67 0.940 . S
C82 C81 1.378 1_554 S
C82 C83 1.396 . S
C83 H68 0.940 . S
C83 C78 1.391 . S
C83 C82 1.396 . S
C84 P64 1.791 1_655 S
C84 C85 1.378 . S
C84 C89 1.400 . S
C85 H69 0.939 . S
C85 C84 1.378 . S
C85 C86 1.361 . S
C86 H70 0.942 . S
C86 C85 1.361 . S
C86 C87 1.369 . S
C87 C86 1.369 . S
C87 C88 1.404 . S
C88 H71 0.940 . S
C88 C87 1.404 . S
C88 C89 1.389 . S
C89 H72 0.939 . S
C89 C84 1.400 . S
C89 C88 1.389 . S
C90 P64 1.823 . S
C90 C91 1.391 . S
C90 C95 1.391 1_455 S
C91 H73 0.941 . S
C91 C90 1.391 . S
C91 C92 1.396 . S
C92 H76 0.939 . S
C92 C91 1.396 . S
C92 C93 1.397 . S
C93 C92 1.397 . S
C93 C94 1.385 . S
C94 H77 0.940 1_455 S
C94 C93 1.385 . S
C94 C95 1.388 1_455 S
C95 H74 0.939 . S
C95 C90 1.391 1_655 S
C95 C94 1.388 1_655 S
P96 O107 1.490 . S
P96 C110 1.812 . S
P96 C116 1.803 . S
P96 C122 1.819 . S
H97 C111 0.941 . S
H98 C112 0.939 . S
H99 C114 0.940 . S
H100 C115 0.940 . S
H101 C117 0.939 . S
H102 C118 0.942 . S
H103 C120 0.940 . S
H104 C121 0.939 . S
H105 C123 0.941 . S
H106 C127 0.939 . S
O107 P96 1.490 . S
H108 C124 0.939 . S
H109 C126 0.940 . S
C110 P96 1.812 . S
C110 C111 1.389 . S
C110 C115 1.391 . S
C111 H97 0.941 . S
C111 C110 1.389 . S
C111 C112 1.397 . S
C112 H98 0.939 . S
C112 C111 1.397 . S
C112 C113 1.378 . S
C113 C112 1.378 . S
C113 C114 1.378 . S
C114 H99 0.940 . S
C114 C113 1.378 . S
C114 C115 1.396 . S
C115 H100 0.940 . S
C115 C110 1.391 . S
C115 C114 1.396 . S
C116 P96 1.803 . S
C116 C117 1.378 . S
C116 C121 1.400 . S
C117 H101 0.939 . S
C117 C116 1.378 . S
C117 C118 1.361 . S
C118 H102 0.942 . S
C118 C117 1.361 . S
C118 C119 1.369 . S
C119 C118 1.369 . S
C119 C120 1.404 . S
C120 H103 0.940 . S
C120 C119 1.404 . S
C120 C121 1.389 . S
C121 H104 0.939 . S
C121 C116 1.400 . S
C121 C120 1.389 . S
C122 P96 1.819 . S
C122 C123 1.391 . S
C122 C127 1.391 . S
C123 H105 0.941 . S
C123 C122 1.391 . S
C123 C124 1.396 . S
C124 H108 0.939 . S
C124 C123 1.396 . S
C124 C125 1.397 . S
C125 C124 1.397 . S
C125 C126 1.385 . S
C126 H109 0.940 . S
C126 C125 1.385 . S
C126 C127 1.388 . S
C127 H106 0.939 . S
C127 C122 1.391 . S
C127 C126 1.388 . S
P128 O139 1.490 . S
P128 C142 1.812 . S
P128 C148 1.803 . S
P128 C154 1.819 . S
H129 C143 0.941 . S
H130 C144 0.939 . S
H131 C146 0.940 . S
H132 C147 0.943 . S
H133 C149 0.939 . S
H134 C150 0.942 . S
H135 C152 0.940 . S
H136 C153 0.939 . S
H137 C155 0.941 . S
H138 C159 0.939 . S
O139 P128 1.490 . S
H140 C156 0.939 . S
H141 C158 0.940 1_655 S
C142 P128 1.812 . S
C142 C143 1.389 . S
C142 C147 1.391 . S
C143 H129 0.941 . S
C143 C142 1.389 . S
C143 C144 1.397 . S
C144 H130 0.939 . S
C144 C143 1.397 . S
C144 C145 1.378 1_565 S
C145 C144 1.378 1_545 S
C145 C146 1.378 . S
C146 H131 0.940 . S
C146 C145 1.378 . S
C146 C147 1.396 1_545 S
C147 H132 0.943 . S
C147 C142 1.391 . S
C147 C146 1.396 1_565 S
C148 P128 1.803 . S
C148 C149 1.378 . S
C148 C153 1.400 . S
C149 H133 0.939 . S
C149 C148 1.378 . S
C149 C150 1.361 . S
C150 H134 0.942 . S
C150 C149 1.361 . S
C150 C151 1.369 . S
C151 C150 1.369 . S
C151 C152 1.404 . S
C152 H135 0.940 . S
C152 C151 1.404 . S
C152 C153 1.389 . S
C153 H136 0.939 . S
C153 C148 1.400 . S
C153 C152 1.389 . S
C154 P128 1.819 . S
C154 C155 1.391 . S
C154 C159 1.391 . S
C155 H137 0.941 . S
C155 C154 1.391 . S
C155 C156 1.396 . S
C156 H140 0.939 . S
C156 C155 1.396 . S
C156 C157 1.397 . S
C157 C156 1.397 . S
C157 C158 1.385 . S
C158 H141 0.940 1_455 S
C158 C157 1.385 . S
C158 C159 1.388 . S
C159 H138 0.939 . S
C159 C154 1.391 . S
C159 C158 1.388 . S
P160 O171 1.490 . S
P160 C174 1.812 . S
P160 C180 1.803 . S
P160 C186 1.819 . S
H161 C175 0.941 . S
H162 C176 0.939 . S
H163 C178 0.940 . S
H164 C179 0.940 . S
H165 C181 0.939 . S
H166 C182 0.942 . S
H167 C184 0.940 . S
H168 C185 0.939 . S
H169 C187 0.941 . S
H170 C191 0.939 . S
O171 P160 1.490 . S
H172 C188 0.939 . S
H173 C190 0.940 . S
C174 P160 1.812 . S
C174 C175 1.389 . S
C174 C179 1.391 . S
C175 H161 0.941 . S
C175 C174 1.389 . S
C175 C176 1.397 . S
C176 H162 0.939 . S
C176 C175 1.397 . S
C176 C177 1.378 . S
C177 C176 1.378 . S
C177 C178 1.378 . S
C178 H163 0.940 . S
C178 C177 1.378 . S
C178 C179 1.396 . S
C179 H164 0.940 . S
C179 C174 1.391 . S
C179 C178 1.396 . S
C180 P160 1.803 . S
C180 C181 1.378 . S
C180 C185 1.400 . S
C181 H165 0.939 . S
C181 C180 1.378 . S
C181 C182 1.361 . S
C182 H166 0.942 . S
C182 C181 1.361 . S
C182 C183 1.369 . S
C183 C182 1.369 . S
C183 C184 1.404 . S
C184 H167 0.940 . S
C184 C183 1.404 . S
C184 C185 1.389 . S
C185 H168 0.939 . S
C185 C180 1.400 . S
C185 C184 1.389 . S
C186 P160 1.819 . S
C186 C187 1.391 . S
C186 C191 1.391 . S
C187 H169 0.941 . S
C187 C186 1.391 . S
C187 C188 1.396 . S
C188 H172 0.939 . S
C188 C187 1.396 . S
C188 C189 1.397 . S
C189 C188 1.397 . S
C189 C190 1.385 . S
C190 H173 0.940 . S
C190 C189 1.385 . S
C190 C191 1.388 . S
C191 H170 0.939 . S
C191 C186 1.391 . S
C191 C190 1.388 . S
P192 O203 1.490 1_655 S
P192 C206 1.812 . S
P192 C212 1.803 . S
P192 C218 1.819 . S
H193 C207 0.941 . S
H194 C208 0.939 . S
H195 C210 0.940 . S
H196 C211 0.940 . S
H197 C213 0.939 . S
H198 C214 0.942 . S
H199 C216 0.940 . S
H200 C217 0.939 . S
H201 C219 0.941 . S
H202 C223 0.939 . S
O203 P192 1.490 1_455 S
H204 C220 0.939 . S
H205 C222 0.940 . S
C206 P192 1.812 . S
C206 C207 1.389 1_655 S
C206 C211 1.391 . S
C207 H193 0.941 . S
C207 C206 1.389 1_455 S
C207 C208 1.397 . S
C208 H194 0.939 . S
C208 C207 1.397 . S
C208 C209 1.378 . S
C209 C208 1.378 . S
C209 C210 1.378 1_455 S
C210 H195 0.940 . S
C210 C209 1.378 1_655 S
C210 C211 1.396 . S
C211 H196 0.940 . S
C211 C206 1.391 . S
C211 C210 1.396 . S
C212 P192 1.803 . S
C212 C213 1.378 . S
C212 C217 1.400 . S
C213 H197 0.939 . S
C213 C212 1.378 . S
C213 C214 1.361 . S
C214 H198 0.942 . S
C214 C213 1.361 . S
C214 C215 1.369 . S
C215 C214 1.369 . S
C215 C216 1.404 . S
C216 H199 0.940 . S
C216 C215 1.404 . S
C216 C217 1.389 . S
C217 H200 0.939 . S
C217 C212 1.400 . S
C217 C216 1.389 . S
C218 P192 1.819 . S
C218 C219 1.391 . S
C218 C223 1.391 . S
C219 H201 0.941 . S
C219 C218 1.391 . S
C219 C220 1.396 . S
C220 H204 0.939 . S
C220 C219 1.396 . S
C220 C221 1.397 . S
C221 C220 1.397 . S
C221 C222 1.385 . S
C222 H205 0.940 . S
C222 C221 1.385 . S
C222 C223 1.388 . S
C223 H202 0.939 . S
C223 C218 1.391 . S
C223 C222 1.388 . S
P224 O235 1.490 . S
P224 C238 1.812 . S
P224 C244 1.803 . S
P224 C250 1.819 . S
H225 C239 0.941 . S
H226 C240 0.939 . S
H227 C242 0.940 . S
H228 C243 0.940 . S
H229 C245 0.939 . S
H230 C246 0.942 . S
H231 C248 0.940 . S
H232 C249 0.939 . S
H233 C251 0.941 . S
H234 C255 0.939 . S
O235 P224 1.490 . S
H236 C252 0.939 . S
H237 C254 0.940 . S
C238 P224 1.812 . S
C238 C239 1.389 . S
C238 C243 1.391 . S
C239 H225 0.941 . S
C239 C238 1.389 . S
C239 C240 1.397 . S
C240 H226 0.939 . S
C240 C239 1.397 . S
C240 C241 1.378 . S
C241 C240 1.378 . S
C241 C242 1.378 . S
C242 H227 0.940 . S
C242 C241 1.378 . S
C242 C243 1.396 . S
C243 H228 0.940 . S
C243 C238 1.391 . S
C243 C242 1.396 . S
C244 P224 1.803 . S
C244 C245 1.378 . S
C244 C249 1.400 . S
C245 H229 0.939 . S
C245 C244 1.378 . S
C245 C246 1.361 . S
C246 H230 0.942 . S
C246 C245 1.361 . S
C246 C247 1.369 . S
C247 C246 1.369 . S
C247 C248 1.404 . S
C248 H231 0.940 . S
C248 C247 1.404 . S
C248 C249 1.389 . S
C249 H232 0.939 . S
C249 C244 1.400 . S
C249 C248 1.389 . S
C250 P224 1.819 . S
C250 C251 1.391 . S
C250 C255 1.391 . S
C251 H233 0.941 . S
C251 C250 1.391 . S
C251 C252 1.396 . S
C252 H236 0.939 . S
C252 C251 1.396 . S
C252 C253 1.397 . S
C253 C252 1.397 . S
C253 C254 1.385 . S
C254 H237 0.940 . S
C254 C253 1.385 . S
C254 C255 1.388 . S
C255 H234 0.939 . S
C255 C250 1.391 . S
C255 C254 1.388 . S
P256 O267 1.490 . S
P256 C270 1.812 . S
P256 C276 1.803 . S
P256 C282 1.819 . S
H257 C271 0.941 . S
H258 C272 0.939 . S
H259 C274 0.940 . S
H260 C275 0.940 . S
H261 C277 0.939 . S
H262 C278 0.942 . S
H263 C280 0.940 . S
H264 C281 0.939 . S
H265 C283 0.941 . S
H266 C287 0.939 . S
O267 P256 1.490 . S
H268 C284 0.939 . S
H269 C286 0.940 . S
C270 P256 1.812 . S
C270 C271 1.389 . S
C270 C275 1.391 . S
C271 H257 0.941 . S
C271 C270 1.389 . S
C271 C272 1.397 . S
C272 H258 0.939 . S
C272 C271 1.397 . S
C272 C273 1.378 . S
C273 C272 1.378 . S
C273 C274 1.378 . S
C274 H259 0.940 . S
C274 C273 1.378 . S
C274 C275 1.396 . S
C275 H260 0.940 . S
C275 C270 1.391 . S
C275 C274 1.396 . S
C276 P256 1.803 . S
C276 C277 1.378 . S
C276 C281 1.400 . S
C277 H261 0.939 . S
C277 C276 1.378 . S
C277 C278 1.361 . S
C278 H262 0.942 . S
C278 C277 1.361 . S
C278 C279 1.369 . S
C279 C278 1.369 . S
C279 C280 1.404 . S
C280 H263 0.940 . S
C280 C279 1.404 . S
C280 C281 1.389 . S
C281 H264 0.939 . S
C281 C276 1.400 . S
C281 C280 1.389 . S
C282 P256 1.819 . S
C282 C283 1.391 . S
C282 C287 1.391 . S
C283 H265 0.941 . S
C283 C282 1.391 . S
C283 C284 1.396 . S
C284 H268 0.939 . S
C284 C283 1.396 . S
C284 C285 1.397 . S
C285 C284 1.397 . S
C285 C286 1.385 . S
C286 H269 0.940 . S
C286 C285 1.385 . S
C286 C287 1.388 . S
C287 H266 0.939 . S
C287 C282 1.391 . S
C287 C286 1.388 . S
P288 O299 1.490 1_565 S
P288 C302 1.812 . S
P288 C308 1.804 1_565 S
P288 C314 1.819 . S
H289 C303 0.941 . S
H290 C304 0.939 . S
H291 C306 0.940 . S
H292 C307 0.940 . S
H293 C309 0.939 . S
H294 C310 0.942 . S
H295 C312 0.940 . S
H296 C313 0.939 . S
H297 C315 0.941 . S
H298 C319 0.939 . S
O299 P288 1.490 1_545 S
H300 C316 0.939 . S
H301 C318 0.940 . S
C302 P288 1.812 . S
C302 C303 1.389 . S
C302 C307 1.391 . S
C303 H289 0.941 . S
C303 C302 1.389 . S
C303 C304 1.397 . S
C304 H290 0.939 . S
C304 C303 1.397 . S
C304 C305 1.378 . S
C305 C304 1.378 . S
C305 C306 1.378 . S
C306 H291 0.940 . S
C306 C305 1.378 . S
C306 C307 1.396 . S
C307 H292 0.940 . S
C307 C302 1.391 . S
C307 C306 1.396 . S
C308 P288 1.804 1_545 S
C308 C309 1.376 . S
C308 C313 1.401 1_545 S
C309 H293 0.939 . S
C309 C308 1.376 . S
C309 C310 1.361 . S
C310 H294 0.942 . S
C310 C309 1.361 . S
C310 C311 1.369 . S
C311 C310 1.369 . S
C311 C312 1.404 1_545 S
C312 H295 0.940 . S
C312 C311 1.404 1_565 S
C312 C313 1.389 . S
C313 H296 0.939 . S
C313 C308 1.401 1_565 S
C313 C312 1.389 . S
C314 P288 1.819 . S
C314 C315 1.391 . S
C314 C319 1.391 . S
C315 H297 0.941 . S
C315 C314 1.391 . S
C315 C316 1.396 . S
C316 H300 0.939 . S
C316 C315 1.396 . S
C316 C317 1.397 . S
C317 C316 1.397 . S
C317 C318 1.385 . S
C318 H301 0.940 . S
C318 C317 1.385 . S
C318 C319 1.388 . S
C319 H298 0.939 . S
C319 C314 1.391 . S
C319 C318 1.388 . S
P320 O331 1.490 . S
P320 C334 1.812 . S
P320 C340 1.803 . S
P320 C346 1.819 . S
H321 C335 0.941 . S
H322 C336 0.939 . S
H323 C338 0.940 . S
H324 C339 0.940 . S
H325 C341 0.939 . S
H326 C342 0.942 . S
H327 C344 0.940 . S
H328 C345 0.939 . S
H329 C347 0.941 . S
H330 C351 0.939 . S
O331 P320 1.490 . S
H332 C348 0.939 . S
H333 C350 0.940 . S
C334 P320 1.812 . S
C334 C335 1.389 . S
C334 C339 1.391 . S
C335 H321 0.941 . S
C335 C334 1.389 . S
C335 C336 1.397 . S
C336 H322 0.939 . S
C336 C335 1.397 . S
C336 C337 1.378 . S
C337 C336 1.378 . S
C337 C338 1.378 . S
C338 H323 0.940 . S
C338 C337 1.378 . S
C338 C339 1.396 . S
C339 H324 0.940 . S
C339 C334 1.391 . S
C339 C338 1.396 . S
C340 P320 1.803 . S
C340 C341 1.378 . S
C340 C345 1.400 . S
C341 H325 0.939 . S
C341 C340 1.378 . S
C341 C342 1.361 . S
C342 H326 0.942 . S
C342 C341 1.361 . S
C342 C343 1.369 . S
C343 C342 1.369 . S
C343 C344 1.404 . S
C344 H327 0.940 . S
C344 C343 1.404 . S
C344 C345 1.389 . S
C345 H328 0.939 . S
C345 C340 1.400 . S
C345 C344 1.389 . S
C346 P320 1.819 . S
C346 C347 1.391 . S
C346 C351 1.391 . S
C347 H329 0.941 . S
C347 C346 1.391 . S
C347 C348 1.396 . S
C348 H332 0.939 . S
C348 C347 1.396 . S
C348 C349 1.397 . S
C349 C348 1.397 . S
C349 C350 1.385 . S
C350 H333 0.940 . S
C350 C349 1.385 . S
C350 C351 1.388 . S
C351 H330 0.939 . S
C351 C346 1.391 . S
C351 C350 1.388 . S
P352 O363 1.490 . S
P352 C366 1.812 . S
P352 C372 1.803 . S
P352 C378 1.819 . S
H353 C367 0.941 . S
H354 C368 0.939 . S
H355 C370 0.940 . S
H356 C371 0.940 . S
H357 C373 0.939 . S
H358 C374 0.942 . S
H359 C376 0.940 . S
H360 C377 0.939 . S
H361 C379 0.941 . S
H362 C383 0.939 . S
O363 P352 1.490 . S
H364 C380 0.939 . S
H365 C382 0.940 . S
C366 P352 1.812 . S
C366 C367 1.389 . S
C366 C371 1.391 . S
C367 H353 0.941 . S
C367 C366 1.389 . S
C367 C368 1.397 . S
C368 H354 0.939 . S
C368 C367 1.397 . S
C368 C369 1.378 . S
C369 C368 1.378 . S
C369 C370 1.378 . S
C370 H355 0.940 . S
C370 C369 1.378 . S
C370 C371 1.396 . S
C371 H356 0.940 . S
C371 C366 1.391 . S
C371 C370 1.396 . S
C372 P352 1.803 . S
C372 C373 1.378 . S
C372 C377 1.400 . S
C373 H357 0.939 . S
C373 C372 1.378 . S
C373 C374 1.361 . S
C374 H358 0.942 . S
C374 C373 1.361 . S
C374 C375 1.369 . S
C375 C374 1.369 . S
C375 C376 1.404 . S
C376 H359 0.940 . S
C376 C375 1.404 . S
C376 C377 1.389 . S
C377 H360 0.939 . S
C377 C372 1.400 . S
C377 C376 1.389 . S
C378 P352 1.819 . S
C378 C379 1.391 . S
C378 C383 1.391 . S
C379 H361 0.941 . S
C379 C378 1.391 . S
C379 C380 1.396 . S
C380 H364 0.939 . S
C380 C379 1.396 . S
C380 C381 1.397 . S
C381 C380 1.397 . S
C381 C382 1.385 . S
C382 H365 0.940 . S
C382 C381 1.385 . S
C382 C383 1.388 . S
C383 H362 0.939 . S
C383 C378 1.391 . S
C383 C382 1.388 . S
P384 O395 1.490 . S
P384 C398 1.812 . S
P384 C404 1.803 . S
P384 C410 1.819 . S
H385 C399 0.941 . S
H386 C400 0.939 . S
H387 C402 0.940 . S
H388 C403 0.940 . S
H389 C405 0.939 . S
H390 C406 0.942 . S
H391 C408 0.940 . S
H392 C409 0.939 . S
H393 C411 0.941 . S
H394 C415 0.939 . S
O395 P384 1.490 . S
H396 C412 0.939 . S
H397 C414 0.940 . S
C398 P384 1.812 . S
C398 C399 1.389 . S
C398 C403 1.391 . S
C399 H385 0.941 . S
C399 C398 1.389 . S
C399 C400 1.397 . S
C400 H386 0.939 . S
C400 C399 1.397 . S
C400 C401 1.378 . S
C401 C400 1.378 . S
C401 C402 1.378 . S
C402 H387 0.940 . S
C402 C401 1.378 . S
C402 C403 1.396 . S
C403 H388 0.940 . S
C403 C398 1.391 . S
C403 C402 1.396 . S
C404 P384 1.803 . S
C404 C405 1.378 . S
C404 C409 1.400 . S
C405 H389 0.939 . S
C405 C404 1.378 . S
C405 C406 1.361 . S
C406 H390 0.942 . S
C406 C405 1.361 . S
C406 C407 1.369 . S
C407 C406 1.369 . S
C407 C408 1.404 . S
C408 H391 0.940 . S
C408 C407 1.404 . S
C408 C409 1.389 . S
C409 H392 0.939 . S
C409 C404 1.400 . S
C409 C408 1.389 . S
C410 P384 1.819 . S
C410 C411 1.391 . S
C410 C415 1.391 . S
C411 H393 0.941 . S
C411 C410 1.391 . S
C411 C412 1.396 . S
C412 H396 0.939 . S
C412 C411 1.396 . S
C412 C413 1.397 . S
C413 C412 1.397 . S
C413 C414 1.385 . S
C414 H397 0.940 . S
C414 C413 1.385 . S
C414 C415 1.388 . S
C415 H394 0.939 . S
C415 C410 1.391 . S
C415 C414 1.388 . S
P416 O427 1.490 . S
P416 C430 1.812 . S
P416 C436 1.803 . S
P416 C442 1.819 . S
H417 C431 0.941 . S
H418 C432 0.939 . S
H419 C434 0.940 . S
H420 C435 0.940 . S
H421 C437 0.939 . S
H422 C438 0.942 . S
H423 C440 0.940 . S
H424 C441 0.933 1_554 S
H425 C443 0.941 . S
H426 C447 0.939 . S
O427 P416 1.490 . S
H428 C444 0.939 . S
H429 C446 0.940 . S
C430 P416 1.812 . S
C430 C431 1.389 . S
C430 C435 1.391 . S
C431 H417 0.941 . S
C431 C430 1.389 . S
C431 C432 1.397 . S
C432 H418 0.939 . S
C432 C431 1.397 . S
C432 C433 1.378 . S
C433 C432 1.378 . S
C433 C434 1.378 . S
C434 H419 0.940 . S
C434 C433 1.378 . S
C434 C435 1.396 . S
C435 H420 0.940 . S
C435 C430 1.391 . S
C435 C434 1.396 . S
C436 P416 1.803 . S
C436 C437 1.378 . S
C436 C441 1.443 . S
C437 H421 0.939 . S
C437 C436 1.378 . S
C437 C438 1.361 . S
C438 H422 0.942 . S
C438 C437 1.361 . S
C438 C439 1.369 1_556 S
C439 C438 1.369 1_554 S
C439 C440 1.404 . S
C440 H423 0.940 . S
C440 C439 1.404 . S
C440 C441 1.352 1_554 S
C441 H424 0.933 1_556 S
C441 C436 1.443 . S
C441 C440 1.352 1_556 S
C442 P416 1.819 . S
C442 C443 1.391 . S
C442 C447 1.391 . S
C443 H425 0.941 . S
C443 C442 1.391 . S
C443 C444 1.396 . S
C444 H428 0.939 . S
C444 C443 1.396 . S
C444 C445 1.397 . S
C445 C444 1.397 . S
C445 C446 1.385 . S
C446 H429 0.940 . S
C446 C445 1.385 . S
C446 C447 1.388 . S
C447 H426 0.939 . S
C447 C442 1.391 . S
C447 C446 1.388 . S
P448 O459 1.490 . S
P448 C462 1.812 . S
P448 C468 1.803 . S
P448 C474 1.819 . S
H449 C463 0.941 . S
H450 C464 0.939 . S
H451 C466 0.940 . S
H452 C467 0.940 . S
H453 C469 0.939 . S
H454 C470 0.942 . S
H455 C472 0.940 . S
H456 C473 0.939 . S
H457 C475 0.941 . S
H458 C479 0.939 . S
O459 P448 1.490 . S
H460 C476 0.939 . S
H461 C478 0.940 . S
C462 P448 1.812 . S
C462 C463 1.389 . S
C462 C467 1.391 . S
C463 H449 0.941 . S
C463 C462 1.389 . S
C463 C464 1.397 . S
C464 H450 0.939 . S
C464 C463 1.397 . S
C464 C465 1.378 . S
C465 C464 1.378 . S
C465 C466 1.378 . S
C466 H451 0.940 . S
C466 C465 1.378 . S
C466 C467 1.396 . S
C467 H452 0.940 . S
C467 C462 1.391 . S
C467 C466 1.396 . S
C468 P448 1.803 . S
C468 C469 1.378 . S
C468 C473 1.400 . S
C469 H453 0.939 . S
C469 C468 1.378 . S
C469 C470 1.361 . S
C470 H454 0.942 . S
C470 C469 1.361 . S
C470 C471 1.369 . S
C471 C470 1.369 . S
C471 C472 1.404 . S
C472 H455 0.940 . S
C472 C471 1.404 . S
C472 C473 1.389 . S
C473 H456 0.939 . S
C473 C468 1.400 . S
C473 C472 1.389 . S
C474 P448 1.819 . S
C474 C475 1.391 . S
C474 C479 1.391 . S
C475 H457 0.941 . S
C475 C474 1.391 . S
C475 C476 1.396 . S
C476 H460 0.939 . S
C476 C475 1.396 . S
C476 C477 1.397 . S
C477 C476 1.397 . S
C477 C478 1.385 . S
C478 H461 0.940 . S
C478 C477 1.385 . S
C478 C479 1.388 . S
C479 H458 0.939 . S
C479 C474 1.391 . S
C479 C478 1.388 . S
P480 O491 1.490 1_556 S
P480 C494 1.812 . S
P480 C500 1.803 1_556 S
P480 C506 1.819 . S
H481 C495 0.941 . S
H482 C496 0.939 . S
H483 C498 0.940 . S
H484 C499 0.940 . S
H485 C501 0.939 . S
H486 C502 0.942 . S
H487 C504 0.919 1_556 S
H488 C505 0.939 . S
H489 C507 0.941 . S
H490 C511 0.938 1_554 S
O491 P480 1.490 1_554 S
H492 C508 0.939 . S
H493 C510 0.940 . S
C494 P480 1.812 . S
C494 C495 1.389 . S
C494 C499 1.391 . S
C495 H481 0.941 . S
C495 C494 1.389 . S
C495 C496 1.397 . S
C496 H482 0.939 . S
C496 C495 1.397 . S
C496 C497 1.378 . S
C497 C496 1.378 . S
C497 C498 1.378 . S
C498 H483 0.940 . S
C498 C497 1.378 . S
C498 C499 1.396 . S
C499 H484 0.940 . S
C499 C494 1.391 . S
C499 C498 1.396 . S
C500 P480 1.803 1_554 S
C500 C501 1.378 . S
C500 C505 1.400 1_554 S
C501 H485 0.939 . S
C501 C500 1.378 . S
C501 C502 1.361 . S
C502 H486 0.942 . S
C502 C501 1.361 . S
C502 C503 1.369 . S
C503 C502 1.369 . S
C503 C504 1.438 . S
C504 H487 0.919 1_554 S
C504 C503 1.438 . S
C504 C505 1.377 1_554 S
C505 H488 0.939 . S
C505 C500 1.400 1_556 S
C505 C504 1.377 1_556 S
C506 P480 1.819 . S
C506 C507 1.391 1_545 S
C506 C511 1.391 . S
C507 H489 0.941 . S
C507 C506 1.391 1_565 S
C507 C508 1.396 . S
C508 H492 0.939 . S
C508 C507 1.396 . S
C508 C509 1.397 . S
C509 C508 1.397 . S
C509 C510 1.385 1_565 S
C510 H493 0.940 . S
C510 C509 1.385 1_545 S
C510 C511 1.388 . S
C511 H490 0.938 1_556 S
C511 C506 1.391 . S
C511 C510 1.388 . S
Mg512 O513 2.028 . S
Mg512 O519 1.986 1_554 S
Mg512 O521 2.114 . S
Mg512 O522 2.251 . S
Mg512 O525 2.010 . S
O513 Mg512 2.028 . S
O513 C516 1.245 1_554 S
O514 Mg515 2.028 . S
O514 C516 1.251 . S
Mg515 O514 2.028 . S
Mg515 O520 2.032 . S
Mg515 O522 2.079 1_556 S
C516 O513 1.245 1_556 S
C516 O514 1.251 . S
C517 O518 1.264 . S
C517 O525 1.249 . S
O518 C517 1.264 . S
O519 Mg512 1.986 1_556 S
O519 C523 1.246 . S
O520 Mg515 2.032 . S
O520 C523 1.259 . S
O521 Mg512 2.114 . S
O521 C524 1.252 . S
O522 Mg512 2.251 . S
O522 Mg515 2.079 1_554 S
O522 C524 1.273 . S
C523 O519 1.246 . S
C523 O520 1.259 . S
C524 O521 1.252 . S
C524 O522 1.273 . S
O525 Mg512 2.010 . S
O525 C517 1.249 . S
Mg526 O527 2.028 . S
Mg526 O533 1.986 . S
Mg526 O535 2.114 . S
Mg526 O536 2.251 . S
Mg526 O539 2.010 . S
O527 Mg526 2.028 . S
O527 C530 1.250 . S
O528 Mg529 2.028 . S
O528 C530 1.248 . S
Mg529 O528 2.028 . S
Mg529 O534 2.032 . S
Mg529 O536 2.079 . S
C530 O527 1.250 . S
C530 O528 1.248 . S
C531 O532 1.264 . S
C531 O539 1.249 . S
O532 C531 1.264 . S
O533 Mg526 1.986 . S
O533 C537 1.246 . S
O534 Mg529 2.032 . S
O534 C537 1.259 . S
O535 Mg526 2.114 . S
O535 C538 1.252 . S
O536 Mg526 2.251 . S
O536 Mg529 2.079 . S
O536 C538 1.273 . S
C537 O533 1.246 . S
C537 O534 1.259 . S
C538 O535 1.252 . S
C538 O536 1.273 . S
O539 Mg526 2.010 . S
O539 C531 1.249 . S
Mg540 O541 2.028 . S
Mg540 O547 1.986 1_554 S
Mg540 O549 2.114 . S
Mg540 O550 2.251 . S
Mg540 O553 2.010 . S
O541 Mg540 2.028 . S
O541 C544 1.250 . S
O542 Mg543 2.028 1_554 S
O542 C544 1.248 . S
Mg543 O542 2.028 1_556 S
Mg543 O548 2.032 . S
Mg543 O550 2.079 1_556 S
C544 O541 1.250 . S
C544 O542 1.248 . S
C545 O546 1.264 . S
C545 O553 1.249 . S
O546 C545 1.264 . S
O547 Mg540 1.986 1_556 S
O547 C551 1.246 . S
O548 Mg543 2.032 . S
O548 C551 1.259 . S
O549 Mg540 2.114 . S
O549 C552 1.252 . S
O550 Mg540 2.251 . S
O550 Mg543 2.079 1_554 S
O550 C552 1.273 . S
C551 O547 1.246 . S
C551 O548 1.259 . S
C552 O549 1.252 . S
C552 O550 1.273 . S
O553 Mg540 2.010 . S
O553 C545 1.249 . S
Mg554 O555 2.028 . S
Mg554 O561 1.986 . S
Mg554 O563 2.114 . S
Mg554 O564 2.251 . S
Mg554 O567 2.010 . S
O555 Mg554 2.028 . S
O555 C558 1.250 1_545 S
O556 Mg557 2.028 . S
O556 C558 1.248 . S
Mg557 O556 2.028 . S
Mg557 O562 2.032 . S
Mg557 O564 2.079 1_565 S
C558 O555 1.250 1_565 S
C558 O556 1.248 . S
C559 O560 1.264 . S
C559 O567 1.249 . S
O560 C559 1.264 . S
O561 Mg554 1.986 . S
O561 C565 1.246 . S
O562 Mg557 2.032 . S
O562 C565 1.259 1_565 S
O563 Mg554 2.114 . S
O563 C566 1.252 . S
O564 Mg554 2.251 . S
O564 Mg557 2.079 1_545 S
O564 C566 1.273 . S
C565 O561 1.246 . S
C565 O562 1.259 1_545 S
C566 O563 1.252 . S
C566 O564 1.273 . S
O567 Mg554 2.010 . S
O567 C559 1.249 . S
Mg568 O569 2.028 . S
Mg568 O575 1.986 . S
Mg568 O577 2.114 . S
Mg568 O578 2.251 . S
Mg568 O581 2.010 . S
O569 Mg568 2.028 . S
O569 C572 1.250 . S
O570 Mg571 2.028 . S
O570 C572 1.248 . S
Mg571 O570 2.028 . S
Mg571 O576 2.032 . S
Mg571 O578 2.079 . S
C572 O569 1.250 . S
C572 O570 1.248 . S
C573 O574 1.264 . S
C573 O581 1.249 . S
O574 C573 1.264 . S
O575 Mg568 1.986 . S
O575 C579 1.246 . S
O576 Mg571 2.032 . S
O576 C579 1.259 . S
O577 Mg568 2.114 . S
O577 C580 1.252 . S
O578 Mg568 2.251 . S
O578 Mg571 2.079 . S
O578 C580 1.273 . S
C579 O575 1.246 . S
C579 O576 1.259 . S
C580 O577 1.252 . S
C580 O578 1.273 . S
O581 Mg568 2.010 . S
O581 C573 1.249 . S
Mg582 O583 2.028 . S
Mg582 O589 1.986 . S
Mg582 O591 2.114 . S
Mg582 O592 2.251 . S
Mg582 O595 2.010 . S
O583 Mg582 2.028 . S
O583 C586 1.250 . S
O584 Mg585 2.028 . S
O584 C586 1.248 . S
Mg585 O584 2.028 . S
Mg585 O590 2.032 . S
Mg585 O592 2.079 . S
C586 O583 1.250 . S
C586 O584 1.248 . S
C587 O588 1.264 . S
C587 O595 1.249 . S
O588 C587 1.264 . S
O589 Mg582 1.986 . S
O589 C593 1.246 . S
O590 Mg585 2.032 . S
O590 C593 1.259 . S
O591 Mg582 2.114 . S
O591 C594 1.252 . S
O592 Mg582 2.251 . S
O592 Mg585 2.079 . S
O592 C594 1.273 . S
C593 O589 1.246 . S
C593 O590 1.259 . S
C594 O591 1.252 . S
C594 O592 1.273 . S
O595 Mg582 2.010 . S
O595 C587 1.249 . S
Mg596 O597 2.028 . S
Mg596 O603 1.986 . S
Mg596 O605 2.114 . S
Mg596 O606 2.251 . S
Mg596 O609 2.010 . S
O597 Mg596 2.028 . S
O597 C600 1.250 . S
O598 Mg599 2.028 . S
O598 C600 1.248 . S
Mg599 O598 2.028 . S
Mg599 O604 2.032 . S
Mg599 O606 2.079 . S
C600 O597 1.250 . S
C600 O598 1.248 . S
C601 O602 1.264 . S
C601 O609 1.249 . S
O602 C601 1.264 . S
O603 Mg596 1.986 . S
O603 C607 1.246 . S
O604 Mg599 2.032 . S
O604 C607 1.259 . S
O605 Mg596 2.114 . S
O605 C608 1.252 . S
O606 Mg596 2.251 . S
O606 Mg599 2.079 . S
O606 C608 1.273 . S
C607 O603 1.246 . S
C607 O604 1.259 . S
C608 O605 1.252 . S
C608 O606 1.273 . S
O609 Mg596 2.010 . S
O609 C601 1.249 . S
Mg610 O611 2.028 1_545 S
Mg610 O617 1.986 1_545 S
Mg610 O619 2.114 . S
Mg610 O620 2.251 . S
Mg610 O623 2.010 . S
O611 Mg610 2.028 1_565 S
O611 C614 1.250 . S
O612 Mg613 2.028 . S
O612 C614 1.248 . S
Mg613 O612 2.028 . S
Mg613 O618 2.032 . S
Mg613 O620 2.079 1_565 S
C614 O611 1.250 . S
C614 O612 1.248 . S
C615 O616 1.264 . S
C615 O623 1.249 . S
O616 C615 1.264 . S
O617 Mg610 1.986 1_565 S
O617 C621 1.246 . S
O618 Mg613 2.032 . S
O618 C621 1.259 . S
O619 Mg610 2.114 . S
O619 C622 1.252 . S
O620 Mg610 2.251 . S
O620 Mg613 2.079 1_545 S
O620 C622 1.273 . S
C621 O617 1.246 . S
C621 O618 1.259 . S
C622 O619 1.252 . S
C622 O620 1.273 . S
O623 Mg610 2.010 . S
O623 C615 1.249 . S
Mg624 O625 2.028 . S
Mg624 O631 1.986 . S
Mg624 O633 2.114 . S
Mg624 O634 2.251 . S
Mg624 O637 2.010 . S
O625 Mg624 2.028 . S
O625 C628 1.250 1_455 S
O626 Mg627 2.028 . S
O626 C628 1.248 . S
Mg627 O626 2.028 . S
Mg627 O632 2.032 . S
Mg627 O634 2.079 1_655 S
C628 O625 1.250 1_655 S
C628 O626 1.248 . S
C629 O630 1.264 . S
C629 O637 1.249 . S
O630 C629 1.264 . S
O631 Mg624 1.986 . S
O631 C635 1.246 . S
O632 Mg627 2.032 . S
O632 C635 1.259 1_655 S
O633 Mg624 2.114 . S
O633 C636 1.252 . S
O634 Mg624 2.251 . S
O634 Mg627 2.079 1_455 S
O634 C636 1.273 . S
C635 O631 1.246 . S
C635 O632 1.259 1_455 S
C636 O633 1.252 . S
C636 O634 1.273 . S
O637 Mg624 2.010 . S
O637 C629 1.249 . S
Mg638 O639 2.028 . S
Mg638 O645 1.986 . S
Mg638 O647 2.114 . S
Mg638 O648 2.251 . S
Mg638 O651 2.010 . S
O639 Mg638 2.028 . S
O639 C642 1.250 . S
O640 Mg641 2.028 . S
O640 C642 1.248 . S
Mg641 O640 2.028 . S
Mg641 O646 2.032 . S
Mg641 O648 2.079 . S
C642 O639 1.250 . S
C642 O640 1.248 . S
C643 O644 1.264 . S
C643 O651 1.249 . S
O644 C643 1.264 . S
O645 Mg638 1.986 . S
O645 C649 1.246 . S
O646 Mg641 2.032 . S
O646 C649 1.259 . S
O647 Mg638 2.114 . S
O647 C650 1.252 . S
O648 Mg638 2.251 . S
O648 Mg641 2.079 . S
O648 C650 1.273 . S
C649 O645 1.246 . S
C649 O646 1.259 . S
C650 O647 1.252 . S
C650 O648 1.273 . S
O651 Mg638 2.010 . S
O651 C643 1.249 . S
Mg652 O653 2.028 1_655 S
Mg652 O659 1.995 . S
Mg652 O661 2.114 . S
Mg652 O662 2.251 1_655 S
Mg652 O665 2.010 . S
O653 Mg652 2.028 1_455 S
O653 C656 1.250 . S
O654 Mg655 2.028 . S
O654 C656 1.248 . S
Mg655 O654 2.028 . S
Mg655 O660 2.032 . S
Mg655 O662 2.079 . S
C656 O653 1.250 . S
C656 O654 1.248 . S
C657 O658 1.264 . S
C657 O665 1.249 . S
O658 C657 1.264 . S
O659 Mg652 1.995 . S
O659 C663 1.221 1_655 S
O660 Mg655 2.032 . S
O660 C663 1.259 . S
O661 Mg652 2.114 . S
O661 C664 1.252 . S
O662 Mg652 2.251 1_455 S
O662 Mg655 2.079 . S
O662 C664 1.273 1_455 S
C663 O659 1.221 1_455 S
C663 O660 1.259 . S
C664 O661 1.252 . S
C664 O662 1.273 1_655 S
O665 Mg652 2.010 . S
O665 C657 1.249 . S
Mg666 O667 2.028 . S
Mg666 O673 1.986 . S
Mg666 O675 2.114 . S
Mg666 O676 2.251 . S
Mg666 O679 2.010 . S
O667 Mg666 2.028 . S
O667 C670 1.250 . S
O668 Mg669 2.028 . S
O668 C670 1.248 . S
Mg669 O668 2.028 . S
Mg669 O674 2.032 . S
Mg669 O676 2.079 . S
C670 O667 1.250 . S
C670 O668 1.248 . S
C671 O672 1.264 . S
C671 O679 1.249 . S
O672 C671 1.264 . S
O673 Mg666 1.986 . S
O673 C677 1.246 . S
O674 Mg669 2.032 . S
O674 C677 1.259 . S
O675 Mg666 2.114 . S
O675 C678 1.252 . S
O676 Mg666 2.251 . S
O676 Mg669 2.079 . S
O676 C678 1.273 . S
C677 O673 1.246 . S
C677 O674 1.259 . S
C678 O675 1.252 . S
C678 O676 1.273 . S
O679 Mg666 2.010 . S
O679 C671 1.249 . S
H680 C686 0.930 . S
H681 C689 0.930 . S
H682 C690 0.930 . S
H683 C691 0.930 . S
H684 C694 0.930 . S
H685 C695 0.930 . S
C686 H680 0.930 . S
C686 C687 1.355 . S
C686 C688 1.415 . S
C687 C686 1.355 . S
C687 C689 1.419 . S
C688 C686 1.415 . S
C688 C693 1.425 . S
C688 C695 1.409 . S
C689 H681 0.930 . S
C689 C687 1.419 . S
C689 C690 1.362 . S
C690 H682 0.930 . S
C690 C689 1.362 . S
C690 C693 1.409 . S
C691 H683 0.930 . S
C691 C692 1.355 . S
C691 C693 1.415 . S
C692 C691 1.355 . S
C692 C694 1.419 . S
C693 C688 1.425 . S
C693 C690 1.409 . S
C693 C691 1.415 . S
C694 H684 0.930 . S
C694 C692 1.419 . S
C694 C695 1.362 . S
C695 H685 0.930 . S
C695 C688 1.409 . S
C695 C694 1.362 . S
H696 C702 0.930 . S
H697 C705 0.930 . S
H698 C706 0.930 . S
H699 C707 0.930 . S
H700 C710 0.930 . S
H701 C711 0.930 . S
C702 H696 0.930 . S
C702 C703 1.355 . S
C702 C704 1.415 . S
C703 C702 1.355 . S
C703 C705 1.419 . S
C704 C702 1.415 . S
C704 C709 1.425 . S
C704 C711 1.409 . S
C705 H697 0.930 . S
C705 C703 1.419 . S
C705 C706 1.362 . S
C706 H698 0.930 . S
C706 C705 1.362 . S
C706 C709 1.409 . S
C707 H699 0.930 . S
C707 C708 1.355 . S
C707 C709 1.415 . S
C708 C707 1.355 . S
C708 C710 1.419 . S
C709 C704 1.425 . S
C709 C706 1.409 . S
C709 C707 1.415 . S
C710 H700 0.930 . S
C710 C708 1.419 . S
C710 C711 1.362 . S
C711 H701 0.930 . S
C711 C704 1.409 . S
C711 C710 1.362 . S
H712 C718 0.930 . S
H713 C721 0.930 . S
H714 C722 0.930 . S
H715 C723 0.930 . S
H716 C726 0.930 . S
H717 C727 0.930 . S
C718 H712 0.930 . S
C718 C719 1.355 . S
C718 C720 1.415 . S
C719 C718 1.355 . S
C719 C721 1.419 . S
C720 C718 1.415 . S
C720 C725 1.425 . S
C720 C727 1.409 . S
C721 H713 0.930 . S
C721 C719 1.419 . S
C721 C722 1.362 . S
C722 H714 0.930 . S
C722 C721 1.362 . S
C722 C725 1.409 . S
C723 H715 0.930 . S
C723 C724 1.355 . S
C723 C725 1.415 . S
C724 C723 1.355 . S
C724 C726 1.419 . S
C725 C720 1.425 . S
C725 C722 1.409 . S
C725 C723 1.415 . S
C726 H716 0.930 . S
C726 C724 1.419 . S
C726 C727 1.362 . S
C727 H717 0.930 . S
C727 C720 1.409 . S
C727 C726 1.362 . S
H728 C734 0.930 1_455 S
H729 C737 0.930 . S
H730 C738 0.930 . S
H731 C739 0.930 . S
H732 C742 0.930 . S
H733 C743 0.930 . S
C734 H728 0.930 1_655 S
C734 C735 1.355 1_545 S
C734 C736 1.415 . S
C735 C734 1.355 1_565 S
C735 C737 1.419 . S
C736 C734 1.415 . S
C736 C741 1.425 1_545 S
C736 C743 1.409 . S
C737 H729 0.930 . S
C737 C735 1.419 . S
C737 C738 1.362 . S
C738 H730 0.930 . S
C738 C737 1.362 . S
C738 C741 1.409 . S
C739 H731 0.930 . S
C739 C740 1.355 1_565 S
C739 C741 1.415 . S
C740 C739 1.355 1_545 S
C740 C742 1.419 . S
C741 C736 1.425 1_565 S
C741 C738 1.409 . S
C741 C739 1.415 . S
C742 H732 0.930 . S
C742 C740 1.419 . S
C742 C743 1.362 . S
C743 H733 0.930 . S
C743 C736 1.409 . S
C743 C742 1.362 . S
H744 C750 0.930 . S
H745 C753 0.930 . S
H746 C754 0.930 . S
H747 C755 0.930 . S
H748 C758 0.930 . S
H749 C759 0.930 . S
C750 H744 0.930 . S
C750 C751 1.355 . S
C750 C752 1.415 . S
C751 C750 1.355 . S
C751 C753 1.419 . S
C752 C750 1.415 . S
C752 C757 1.425 . S
C752 C759 1.409 . S
C753 H745 0.930 . S
C753 C751 1.419 . S
C753 C754 1.362 . S
C754 H746 0.930 . S
C754 C753 1.362 . S
C754 C757 1.409 . S
C755 H747 0.930 . S
C755 C756 1.355 . S
C755 C757 1.415 . S
C756 C755 1.355 . S
C756 C758 1.419 . S
C757 C752 1.425 . S
C757 C754 1.409 . S
C757 C755 1.415 . S
C758 H748 0.930 . S
C758 C756 1.419 . S
C758 C759 1.362 . S
C759 H749 0.930 . S
C759 C752 1.409 . S
C759 C758 1.362 . S
H760 C766 0.930 . S
H761 C769 0.930 . S
H762 C770 0.930 . S
H763 C771 0.930 . S
H764 C774 0.930 . S
H765 C775 0.930 . S
C766 H760 0.930 . S
C766 C767 1.355 . S
C766 C768 1.415 . S
C767 C766 1.355 . S
C767 C769 1.419 . S
C768 C766 1.415 . S
C768 C773 1.425 . S
C768 C775 1.409 . S
C769 H761 0.930 . S
C769 C767 1.419 . S
C769 C770 1.362 . S
C770 H762 0.930 . S
C770 C769 1.362 . S
C770 C773 1.409 . S
C771 H763 0.930 . S
C771 C772 1.355 . S
C771 C773 1.415 . S
C772 C771 1.355 . S
C772 C774 1.419 . S
C773 C768 1.425 . S
C773 C770 1.409 . S
C773 C771 1.415 . S
C774 H764 0.930 . S
C774 C772 1.419 . S
C774 C775 1.362 . S
C775 H765 0.930 . S
C775 C768 1.409 . S
C775 C774 1.362 . S
H776 C782 0.930 . S
H777 C785 0.930 . S
H778 C786 0.930 . S
H779 C787 0.930 . S
H780 C790 0.930 . S
H781 C791 0.930 . S
C782 H776 0.930 . S
C782 C783 1.355 . S
C782 C784 1.415 . S
C783 C782 1.355 . S
C783 C785 1.419 . S
C784 C782 1.415 . S
C784 C789 1.425 . S
C784 C791 1.409 . S
C785 H777 0.930 . S
C785 C783 1.419 . S
C785 C786 1.362 . S
C786 H778 0.930 . S
C786 C785 1.362 . S
C786 C789 1.409 . S
C787 H779 0.930 . S
C787 C788 1.355 . S
C787 C789 1.415 . S
C788 C787 1.355 . S
C788 C790 1.419 . S
C789 C784 1.425 . S
C789 C786 1.409 . S
C789 C787 1.415 . S
C790 H780 0.930 . S
C790 C788 1.419 . S
C790 C791 1.362 . S
C791 H781 0.930 . S
C791 C784 1.409 . S
C791 C790 1.362 . S
H792 C798 0.930 . S
H793 C801 0.930 . S
H794 C802 0.930 . S
H795 C803 0.930 . S
H796 C806 0.930 . S
H797 C807 0.930 . S
C798 H792 0.930 . S
C798 C799 1.355 . S
C798 C800 1.415 . S
C799 C798 1.355 . S
C799 C801 1.419 1_565 S
C800 C798 1.415 . S
C800 C805 1.474 . S
C800 C807 1.409 . S
C801 H793 0.930 . S
C801 C799 1.419 1_545 S
C801 C802 1.362 . S
C802 H794 0.930 . S
C802 C801 1.362 . S
C802 C805 1.376 1_545 S
C803 H795 0.930 . S
C803 C804 1.355 1_545 S
C803 C805 1.402 1_545 S
C804 C803 1.355 1_565 S
C804 C806 1.419 . S
C805 C800 1.474 . S
C805 C802 1.376 1_565 S
C805 C803 1.402 1_565 S
C806 H796 0.930 . S
C806 C804 1.419 . S
C806 C807 1.362 . S
C807 H797 0.930 . S
C807 C800 1.409 . S
C807 C806 1.362 . S
H808 C814 0.930 . S
H809 C817 0.930 . S
H810 C818 0.930 . S
H811 C819 0.930 . S
H812 C822 0.930 . S
H813 C823 0.930 . S
C814 H808 0.930 . S
C814 C815 1.355 . S
C814 C816 1.415 . S
C815 C814 1.355 . S
C815 C817 1.419 . S
C816 C814 1.415 . S
C816 C821 1.425 . S
C816 C823 1.409 . S
C817 H809 0.930 . S
C817 C815 1.419 . S
C817 C818 1.362 . S
C818 H810 0.930 . S
C818 C817 1.362 . S
C818 C821 1.409 . S
C819 H811 0.930 . S
C819 C820 1.355 . S
C819 C821 1.415 . S
C820 C819 1.355 . S
C820 C822 1.419 . S
C821 C816 1.425 . S
C821 C818 1.409 . S
C821 C819 1.415 . S
C822 H812 0.930 . S
C822 C820 1.419 . S
C822 C823 1.362 . S
C823 H813 0.930 . S
C823 C816 1.409 . S
C823 C822 1.362 . S
H824 C830 0.930 . S
H825 C833 0.930 . S
H826 C834 0.930 . S
H827 C835 0.930 . S
H828 C838 0.930 . S
H829 C839 0.930 . S
C830 H824 0.930 . S
C830 C831 1.355 . S
C830 C832 1.415 . S
C831 C830 1.355 . S
C831 C833 1.419 . S
C832 C830 1.415 . S
C832 C837 1.425 . S
C832 C839 1.409 . S
C833 H825 0.930 . S
C833 C831 1.419 . S
C833 C834 1.362 . S
C834 H826 0.930 . S
C834 C833 1.362 . S
C834 C837 1.409 . S
C835 H827 0.930 . S
C835 C836 1.355 . S
C835 C837 1.415 . S
C836 C835 1.355 . S
C836 C838 1.419 . S
C837 C832 1.425 . S
C837 C834 1.409 . S
C837 C835 1.415 . S
C838 H828 0.930 . S
C838 C836 1.419 . S
C838 C839 1.362 . S
C839 H829 0.930 . S
C839 C832 1.409 . S
C839 C838 1.362 . S
H840 C846 0.930 . S
H841 C849 0.930 . S
H842 C850 0.930 . S
H843 C851 0.930 . S
H844 C854 0.930 . S
H845 C855 0.930 . S
C846 H840 0.930 . S
C846 C847 1.355 . S
C846 C848 1.415 . S
C847 C846 1.355 . S
C847 C849 1.419 . S
C848 C846 1.415 . S
C848 C853 1.425 . S
C848 C855 1.409 . S
C849 H841 0.930 . S
C849 C847 1.419 . S
C849 C850 1.362 . S
C850 H842 0.930 . S
C850 C849 1.362 . S
C850 C853 1.409 . S
C851 H843 0.930 . S
C851 C852 1.355 . S
C851 C853 1.415 . S
C852 C851 1.355 . S
C852 C854 1.419 . S
C853 C848 1.425 . S
C853 C850 1.409 . S
C853 C851 1.415 . S
C854 H844 0.930 . S
C854 C852 1.419 . S
C854 C855 1.362 . S
C855 H845 0.930 . S
C855 C848 1.409 . S
C855 C854 1.362 . S
H856 C862 0.930 . S
H857 C865 0.930 . S
H858 C866 0.930 . S
H859 C867 0.930 . S
H860 C870 0.930 . S
H861 C871 0.930 . S
C862 H856 0.930 . S
C862 C863 1.355 . S
C862 C864 1.415 . S
C863 C862 1.355 . S
C863 C865 1.419 . S
C864 C862 1.415 . S
C864 C869 1.425 . S
C864 C871 1.409 . S
C865 H857 0.930 . S
C865 C863 1.419 . S
C865 C866 1.362 . S
C866 H858 0.930 . S
C866 C865 1.362 . S
C866 C869 1.409 . S
C867 H859 0.930 . S
C867 C868 1.355 . S
C867 C869 1.415 . S
C868 C867 1.355 . S
C868 C870 1.419 . S
C869 C864 1.425 . S
C869 C866 1.409 . S
C869 C867 1.415 . S
C870 H860 0.930 . S
C870 C868 1.419 . S
C870 C871 1.362 . S
C871 H861 0.930 . S
C871 C864 1.409 . S
C871 C870 1.362 . S
H872 C878 0.930 . S
H873 C881 0.930 . S
H874 C882 0.930 . S
H875 C883 0.930 . S
H876 C886 0.930 . S
H877 C887 0.930 . S
C878 H872 0.930 . S
C878 C879 1.355 . S
C878 C880 1.415 . S
C879 C878 1.355 . S
C879 C881 1.419 . S
C880 C878 1.415 . S
C880 C885 1.425 . S
C880 C887 1.409 . S
C881 H873 0.930 . S
C881 C879 1.419 . S
C881 C882 1.362 . S
C882 H874 0.930 . S
C882 C881 1.362 . S
C882 C885 1.409 . S
C883 H875 0.930 . S
C883 C884 1.355 . S
C883 C885 1.415 . S
C884 C883 1.355 . S
C884 C886 1.419 . S
C885 C880 1.425 . S
C885 C882 1.409 . S
C885 C883 1.415 . S
C886 H876 0.930 . S
C886 C884 1.419 . S
C886 C887 1.362 . S
C887 H877 0.930 . S
C887 C880 1.409 . S
C887 C886 1.362 . S
H888 C894 0.930 . S
H889 C897 0.930 . S
H890 C898 0.930 . S
H891 C899 0.930 . S
H892 C902 0.930 . S
H893 C903 0.930 . S
C894 H888 0.930 . S
C894 C895 1.355 . S
C894 C896 1.415 . S
C895 C894 1.355 . S
C895 C897 1.419 . S
C896 C894 1.415 . S
C896 C901 1.425 . S
C896 C903 1.409 1_455 S
C897 H889 0.930 . S
C897 C895 1.419 . S
C897 C898 1.362 . S
C898 H890 0.930 . S
C898 C897 1.362 . S
C898 C901 1.409 . S
C899 H891 0.930 . S
C899 C900 1.355 . S
C899 C901 1.415 . S
C900 C899 1.355 . S
C900 C902 1.419 1_455 S
C901 C896 1.425 . S
C901 C898 1.409 . S
C901 C899 1.415 . S
C902 H892 0.930 . S
C902 C900 1.419 1_655 S
C902 C903 1.362 . S
C903 H893 0.930 . S
C903 C896 1.409 1_655 S
C903 C902 1.362 . S
H904 C910 0.930 . S
H905 C913 0.930 . S
H906 C914 0.930 . S
H907 C915 0.930 . S
H908 C918 0.930 . S
H909 C919 0.930 . S
C910 H904 0.930 . S
C910 C911 1.355 . S
C910 C912 1.415 . S
C911 C910 1.355 . S
C911 C913 1.419 . S
C912 C910 1.415 . S
C912 C917 1.425 . S
C912 C919 1.409 . S
C913 H905 0.930 . S
C913 C911 1.419 . S
C913 C914 1.362 . S
C914 H906 0.930 . S
C914 C913 1.362 . S
C914 C917 1.409 . S
C915 H907 0.930 . S
C915 C916 1.355 . S
C915 C917 1.415 . S
C916 C915 1.355 . S
C916 C918 1.419 . S
C917 C912 1.425 . S
C917 C914 1.409 . S
C917 C915 1.415 . S
C918 H908 0.930 . S
C918 C916 1.419 . S
C918 C919 1.362 . S
C919 H909 0.930 . S
C919 C912 1.409 . S
C919 C918 1.362 . S
H920 C926 0.930 . S
H921 C929 0.930 . S
H922 C930 0.930 . S
H923 C931 0.930 . S
H924 C934 0.929 . S
H925 C935 0.930 1_455 S
C926 H920 0.930 . S
C926 C927 1.355 . S
C926 C928 1.415 . S
C927 C926 1.355 . S
C927 C929 1.419 . S
C928 C926 1.415 . S
C928 C933 1.425 . S
C928 C935 1.409 . S
C929 H921 0.930 . S
C929 C927 1.419 . S
C929 C930 1.362 . S
C930 H922 0.930 . S
C930 C929 1.362 . S
C930 C933 1.409 . S
C931 H923 0.930 . S
C931 C932 1.355 . S
C931 C933 1.415 . S
C932 C931 1.355 . S
C932 C934 1.420 1_655 S
C933 C928 1.425 . S
C933 C930 1.409 . S
C933 C931 1.415 . S
C934 H924 0.929 . S
C934 C932 1.420 1_455 S
C934 C935 1.362 1_455 S
C935 H925 0.930 1_655 S
C935 C928 1.409 . S
C935 C934 1.362 1_655 S
H936 C942 0.930 . S
H937 C945 0.930 . S
H938 C946 0.930 . S
H939 C947 0.930 . S
H940 C950 0.930 . S
H941 C951 0.930 . S
C942 H936 0.930 . S
C942 C943 1.355 . S
C942 C944 1.415 . S
C943 C942 1.355 . S
C943 C945 1.419 . S
C944 C942 1.415 . S
C944 C949 1.425 . S
C944 C951 1.409 . S
C945 H937 0.930 . S
C945 C943 1.419 . S
C945 C946 1.362 . S
C946 H938 0.930 . S
C946 C945 1.362 . S
C946 C949 1.409 . S
C947 H939 0.930 . S
C947 C948 1.355 . S
C947 C949 1.415 . S
C948 C947 1.355 . S
C948 C950 1.419 . S
C949 C944 1.425 . S
C949 C946 1.409 . S
C949 C947 1.415 . S
C950 H940 0.930 . S
C950 C948 1.419 . S
C950 C951 1.362 . S
C951 H941 0.930 . S
C951 C944 1.409 . S
C951 C950 1.362 . S
H952 C958 0.930 . S
H953 C961 0.930 . S
H954 C962 0.930 . S
H955 C963 0.930 . S
H956 C966 0.930 . S
H957 C967 0.930 . S
C958 H952 0.930 . S
C958 C959 1.355 . S
C958 C960 1.415 . S
C959 C958 1.355 . S
C959 C961 1.419 . S
C960 C958 1.415 . S
C960 C965 1.425 . S
C960 C967 1.409 . S
C961 H953 0.930 . S
C961 C959 1.419 . S
C961 C962 1.362 . S
C962 H954 0.930 . S
C962 C961 1.362 . S
C962 C965 1.409 . S
C963 H955 0.930 . S
C963 C964 1.355 . S
C963 C965 1.415 . S
C964 C963 1.355 . S
C964 C966 1.419 . S
C965 C960 1.425 . S
C965 C962 1.409 . S
C965 C963 1.415 . S
C966 H956 0.930 . S
C966 C964 1.419 . S
C966 C967 1.362 . S
C967 H957 0.930 . S
C967 C960 1.409 . S
C967 C966 1.362 . S
H968 C974 0.930 . S
H969 C977 0.930 . S
H970 C978 0.930 . S
H971 C979 0.930 . S
H972 C982 0.930 . S
H973 C983 0.930 . S
C974 H968 0.930 . S
C974 C975 1.355 1_554 S
C974 C976 1.415 . S
C975 C974 1.355 1_556 S
C975 C977 1.419 . S
C976 C974 1.415 . S
C976 C981 1.425 1_554 S
C976 C983 1.409 . S
C977 H969 0.930 . S
C977 C975 1.419 . S
C977 C978 1.362 . S
C978 H970 0.930 . S
C978 C977 1.362 . S
C978 C981 1.409 . S
C979 H971 0.930 . S
C979 C980 1.355 . S
C979 C981 1.415 . S
C980 C979 1.355 . S
C980 C982 1.419 1_556 S
C981 C976 1.425 1_556 S
C981 C978 1.409 . S
C981 C979 1.415 . S
C982 H972 0.930 . S
C982 C980 1.419 1_554 S
C982 C983 1.362 . S
C983 H973 0.930 . S
C983 C976 1.409 . S
C983 C982 1.362 . S
H984 C990 0.930 . S
H985 C993 0.930 . S
H986 C994 0.930 . S
H987 C995 0.930 . S
H988 C998 0.930 . S
H989 C999 0.930 . S
C990 H984 0.930 . S
C990 C991 1.355 . S
C990 C992 1.415 . S
C991 C990 1.355 . S
C991 C993 1.419 . S
C992 C990 1.415 . S
C992 C997 1.425 . S
C992 C999 1.409 . S
C993 H985 0.930 . S
C993 C991 1.419 . S
C993 C994 1.362 . S
C994 H986 0.930 . S
C994 C993 1.362 . S
C994 C997 1.409 . S
C995 H987 0.930 . S
C995 C996 1.355 . S
C995 C997 1.415 . S
C996 C995 1.355 . S
C996 C998 1.419 . S
C997 C992 1.425 . S
C997 C994 1.409 . S
C997 C995 1.415 . S
C998 H988 0.930 . S
C998 C996 1.419 . S
C998 C999 1.362 . S
C999 H989 0.930 . S
C999 C992 1.409 . S
C999 C998 1.362 . S
H1000 C1006 0.930 . S
H1001 C1009 0.930 . S
H1002 C1010 0.930 . S
H1003 C1011 0.930 . S
H1004 C1014 0.930 . S
H1005 C1015 0.930 . S
C1006 H1000 0.930 . S
C1006 C1007 1.355 . S
C1006 C1008 1.415 . S
C1007 C1006 1.355 . S
C1007 C1009 1.419 . S
C1008 C1006 1.415 . S
C1008 C1013 1.425 . S
C1008 C1015 1.409 . S
C1009 H1001 0.930 . S
C1009 C1007 1.419 . S
C1009 C1010 1.362 . S
C1010 H1002 0.930 . S
C1010 C1009 1.362 . S
C1010 C1013 1.409 . S
C1011 H1003 0.930 . S
C1011 C1012 1.355 . S
C1011 C1013 1.415 . S
C1012 C1011 1.355 . S
C1012 C1014 1.419 . S
C1013 C1008 1.425 . S
C1013 C1010 1.409 . S
C1013 C1011 1.415 . S
C1014 H1004 0.930 . S
C1014 C1012 1.419 . S
C1014 C1015 1.362 . S
C1015 H1005 0.930 . S
C1015 C1008 1.409 . S
C1015 C1014 1.362 . S
H1016 C1022 0.930 . S
H1017 C1025 0.930 . S
H1018 C1026 0.930 . S
H1019 C1027 0.930 . S
H1020 C1030 0.930 . S
H1021 C1031 0.930 . S
C1022 H1016 0.930 . S
C1022 C1023 1.355 . S
C1022 C1024 1.415 . S
C1023 C1022 1.355 . S
C1023 C1025 1.419 . S
C1024 C1022 1.415 . S
C1024 C1029 1.425 . S
C1024 C1031 1.409 . S
C1025 H1017 0.930 . S
C1025 C1023 1.419 . S
C1025 C1026 1.362 . S
C1026 H1018 0.930 . S
C1026 C1025 1.362 . S
C1026 C1029 1.409 . S
C1027 H1019 0.930 . S
C1027 C1028 1.355 . S
C1027 C1029 1.415 . S
C1028 C1027 1.355 . S
C1028 C1030 1.419 . S
C1029 C1024 1.425 . S
C1029 C1026 1.409 . S
C1029 C1027 1.415 . S
C1030 H1020 0.930 . S
C1030 C1028 1.419 . S
C1030 C1031 1.362 . S
C1031 H1021 0.930 . S
C1031 C1024 1.409 . S
C1031 C1030 1.362 . S
H1032 C1038 0.930 . S
H1033 C1041 0.930 . S
H1034 C1042 0.930 . S
H1035 C1043 0.930 . S
H1036 C1046 0.930 . S
H1037 C1047 0.930 . S
C1038 H1032 0.930 . S
C1038 C1039 1.355 . S
C1038 C1040 1.415 . S
C1039 C1038 1.355 . S
C1039 C1041 1.419 . S
C1040 C1038 1.415 . S
C1040 C1045 1.425 . S
C1040 C1047 1.409 . S
C1041 H1033 0.930 . S
C1041 C1039 1.419 . S
C1041 C1042 1.362 . S
C1042 H1034 0.930 . S
C1042 C1041 1.362 . S
C1042 C1045 1.409 . S
C1043 H1035 0.930 . S
C1043 C1044 1.355 . S
C1043 C1045 1.415 . S
C1044 C1043 1.355 . S
C1044 C1046 1.419 . S
C1045 C1040 1.425 . S
C1045 C1042 1.409 . S
C1045 C1043 1.415 . S
C1046 H1036 0.930 . S
C1046 C1044 1.419 . S
C1046 C1047 1.362 . S
C1047 H1037 0.930 . S
C1047 C1040 1.409 . S
C1047 C1046 1.362 . S
H1048 C1054 0.930 . S
H1049 C1057 0.930 . S
H1050 C1058 0.930 . S
H1051 C1059 0.930 . S
H1052 C1062 0.930 . S
H1053 C1063 0.930 . S
C1054 H1048 0.930 . S
C1054 C1055 1.355 . S
C1054 C1056 1.415 . S
C1055 C1054 1.355 . S
C1055 C1057 1.419 . S
C1056 C1054 1.415 . S
C1056 C1061 1.425 . S
C1056 C1063 1.409 . S
C1057 H1049 0.930 . S
C1057 C1055 1.419 . S
C1057 C1058 1.362 . S
C1058 H1050 0.930 . S
C1058 C1057 1.362 . S
C1058 C1061 1.409 . S
C1059 H1051 0.930 . S
C1059 C1060 1.355 . S
C1059 C1061 1.415 . S
C1060 C1059 1.355 . S
C1060 C1062 1.419 . S
C1061 C1056 1.425 . S
C1061 C1058 1.409 . S
C1061 C1059 1.415 . S
C1062 H1052 0.930 . S
C1062 C1060 1.419 . S
C1062 C1063 1.362 . S
C1063 H1053 0.930 . S
C1063 C1056 1.409 . S
C1063 C1062 1.362 . S
H1064 C1070 0.930 . S
H1065 C1073 0.930 . S
H1066 C1074 0.930 . S
H1067 C1075 0.930 . S
H1068 C1078 0.930 . S
H1069 C1079 0.930 . S
C1070 H1064 0.930 . S
C1070 C1071 1.355 . S
C1070 C1072 1.415 . S
C1071 C1070 1.355 . S
C1071 C1073 1.419 . S
C1072 C1070 1.415 . S
C1072 C1077 1.425 . S
C1072 C1079 1.409 . S
C1073 H1065 0.930 . S
C1073 C1071 1.419 . S
C1073 C1074 1.362 . S
C1074 H1066 0.930 . S
C1074 C1073 1.362 . S
C1074 C1077 1.409 . S
C1075 H1067 0.930 . S
C1075 C1076 1.355 . S
C1075 C1077 1.415 . S
C1076 C1075 1.355 . S
C1076 C1078 1.419 . S
C1077 C1072 1.425 . S
C1077 C1074 1.409 . S
C1077 C1075 1.415 . S
C1078 H1068 0.930 . S
C1078 C1076 1.419 . S
C1078 C1079 1.362 . S
C1079 H1069 0.930 . S
C1079 C1072 1.409 . S
C1079 C1078 1.362 . S
H1080 C1086 0.930 . S
H1081 C1089 0.930 . S
H1082 C1090 0.941 . S
H1083 C1091 0.930 . S
H1084 C1094 0.930 . S
H1085 C1095 0.930 . S
C1086 H1080 0.930 . S
C1086 C1087 1.355 . S
C1086 C1088 1.415 . S
C1087 C1086 1.355 . S
C1087 C1089 1.419 . S
C1088 C1086 1.415 . S
C1088 C1093 1.425 . S
C1088 C1095 1.409 . S
C1089 H1081 0.930 . S
C1089 C1087 1.419 . S
C1089 C1090 1.362 . S
C1090 H1082 0.941 . S
C1090 C1089 1.362 . S
C1090 C1093 1.409 . S
C1091 H1083 0.930 . S
C1091 C1092 1.355 . S
C1091 C1093 1.415 . S
C1092 C1091 1.355 . S
C1092 C1094 1.419 . S
C1093 C1088 1.425 . S
C1093 C1090 1.409 . S
C1093 C1091 1.415 . S
C1094 H1084 0.930 . S
C1094 C1092 1.419 . S
C1094 C1095 1.362 . S
C1095 H1085 0.930 . S
C1095 C1088 1.409 . S
C1095 C1094 1.362 . S
H1096 C1102 0.930 . S
H1097 C1105 0.930 . S
H1098 C1106 0.930 . S
H1099 C1107 0.930 . S
H1100 C1110 0.930 . S
H1101 C1111 0.930 . S
C1102 H1096 0.930 . S
C1102 C1103 1.355 . S
C1102 C1104 1.415 . S
C1103 C1102 1.355 . S
C1103 C1105 1.419 . S
C1104 C1102 1.415 . S
C1104 C1109 1.425 . S
C1104 C1111 1.409 . S
C1105 H1097 0.930 . S
C1105 C1103 1.419 . S
C1105 C1106 1.362 . S
C1106 H1098 0.930 . S
C1106 C1105 1.362 . S
C1106 C1109 1.409 . S
C1107 H1099 0.930 . S
C1107 C1108 1.355 . S
C1107 C1109 1.415 . S
C1108 C1107 1.355 . S
C1108 C1110 1.419 . S
C1109 C1104 1.425 . S
C1109 C1106 1.409 . S
C1109 C1107 1.415 . S
C1110 H1100 0.930 . S
C1110 C1108 1.419 . S
C1110 C1111 1.362 . S
C1111 H1101 0.930 . S
C1111 C1104 1.409 . S
C1111 C1110 1.362 . S
H1112 C1118 0.930 . S
H1113 C1121 0.930 . S
H1114 C1122 0.930 . S
H1115 C1123 0.930 . S
H1116 C1126 0.930 . S
H1117 C1127 0.930 . S
C1118 H1112 0.930 . S
C1118 C1119 1.355 . S
C1118 C1120 1.415 . S
C1119 C1118 1.355 . S
C1119 C1121 1.419 . S
C1120 C1118 1.415 . S
C1120 C1125 1.425 . S
C1120 C1127 1.409 . S
C1121 H1113 0.930 . S
C1121 C1119 1.419 . S
C1121 C1122 1.362 . S
C1122 H1114 0.930 . S
C1122 C1121 1.362 . S
C1122 C1125 1.409 . S
C1123 H1115 0.930 . S
C1123 C1124 1.355 . S
C1123 C1125 1.415 . S
C1124 C1123 1.355 . S
C1124 C1126 1.419 . S
C1125 C1120 1.425 . S
C1125 C1122 1.409 . S
C1125 C1123 1.415 . S
C1126 H1116 0.930 . S
C1126 C1124 1.419 . S
C1126 C1127 1.362 . S
C1127 H1117 0.930 . S
C1127 C1120 1.409 . S
C1127 C1126 1.362 . S
H1128 C1134 0.930 . S
H1129 C1137 0.930 . S
H1130 C1138 0.930 . S
H1131 C1139 0.930 . S
H1132 C1142 0.930 . S
H1133 C1143 0.930 . S
C1134 H1128 0.930 . S
C1134 C1135 1.355 . S
C1134 C1136 1.415 . S
C1135 C1134 1.355 . S
C1135 C1137 1.419 . S
C1136 C1134 1.415 . S
C1136 C1141 1.425 . S
C1136 C1143 1.409 . S
C1137 H1129 0.930 . S
C1137 C1135 1.419 . S
C1137 C1138 1.362 . S
C1138 H1130 0.930 . S
C1138 C1137 1.362 . S
C1138 C1141 1.409 . S
C1139 H1131 0.930 . S
C1139 C1140 1.355 . S
C1139 C1141 1.415 . S
C1140 C1139 1.355 . S
C1140 C1142 1.419 . S
C1141 C1136 1.425 . S
C1141 C1138 1.409 . S
C1141 C1139 1.415 . S
C1142 H1132 0.930 . S
C1142 C1140 1.419 . S
C1142 C1143 1.362 . S
C1143 H1133 0.930 . S
C1143 C1136 1.409 . S
C1143 C1142 1.362 . S
H1144 C1150 0.930 . S
H1145 C1153 0.930 1_455 S
H1146 C1154 0.930 . S
H1147 C1155 0.930 . S
H1148 C1158 0.930 . S
H1149 C1159 0.930 . S
C1150 H1144 0.930 . S
C1150 C1151 1.355 . S
C1150 C1152 1.415 . S
C1151 C1150 1.355 . S
C1151 C1153 1.419 . S
C1152 C1150 1.415 . S
C1152 C1157 1.425 . S
C1152 C1159 1.409 . S
C1153 H1145 0.930 1_655 S
C1153 C1151 1.419 . S
C1153 C1154 1.362 . S
C1154 H1146 0.930 . S
C1154 C1153 1.362 . S
C1154 C1157 1.409 . S
C1155 H1147 0.930 . S
C1155 C1156 1.355 . S
C1155 C1157 1.415 . S
C1156 C1155 1.355 . S
C1156 C1158 1.419 . S
C1157 C1152 1.425 . S
C1157 C1154 1.409 . S
C1157 C1155 1.415 . S
C1158 H1148 0.930 . S
C1158 C1156 1.419 . S
C1158 C1159 1.362 . S
C1159 H1149 0.930 . S
C1159 C1152 1.409 . S
C1159 C1158 1.362 . S
H1160 C1166 0.930 . S
H1161 C1169 0.930 . S
H1162 C1170 0.930 . S
H1163 C1171 0.930 . S
H1164 C1174 0.930 . S
H1165 C1175 0.930 . S
C1166 H1160 0.930 . S
C1166 C1167 1.355 . S
C1166 C1168 1.415 . S
C1167 C1166 1.355 . S
C1167 C1169 1.419 . S
C1168 C1166 1.415 . S
C1168 C1173 1.425 . S
C1168 C1175 1.409 . S
C1169 H1161 0.930 . S
C1169 C1167 1.419 . S
C1169 C1170 1.362 . S
C1170 H1162 0.930 . S
C1170 C1169 1.362 . S
C1170 C1173 1.409 . S
C1171 H1163 0.930 . S
C1171 C1172 1.355 . S
C1171 C1173 1.415 . S
C1172 C1171 1.355 . S
C1172 C1174 1.419 . S
C1173 C1168 1.425 . S
C1173 C1170 1.409 . S
C1173 C1171 1.415 . S
C1174 H1164 0.930 . S
C1174 C1172 1.419 . S
C1174 C1175 1.362 . S
C1175 H1165 0.930 . S
C1175 C1168 1.409 . S
C1175 C1174 1.362 . S
H1176 C1182 0.930 . S
H1177 C1185 0.930 . S
H1178 C1186 0.930 . S
H1179 C1187 0.930 . S
H1180 C1190 0.930 . S
H1181 C1191 0.930 . S
C1182 H1176 0.930 . S
C1182 C1183 1.355 . S
C1182 C1184 1.415 . S
C1183 C1182 1.355 . S
C1183 C1185 1.419 . S
C1184 C1182 1.415 . S
C1184 C1189 1.425 . S
C1184 C1191 1.409 . S
C1185 H1177 0.930 . S
C1185 C1183 1.419 . S
C1185 C1186 1.362 . S
C1186 H1178 0.930 . S
C1186 C1185 1.362 . S
C1186 C1189 1.409 . S
C1187 H1179 0.930 . S
C1187 C1188 1.355 . S
C1187 C1189 1.415 . S
C1188 C1187 1.355 . S
C1188 C1190 1.419 . S
C1189 C1184 1.425 . S
C1189 C1186 1.409 . S
C1189 C1187 1.415 . S
C1190 H1180 0.930 . S
C1190 C1188 1.419 . S
C1190 C1191 1.362 . S
C1191 H1181 0.930 . S
C1191 C1184 1.409 . S
C1191 C1190 1.362 . S
H1192 C1198 0.930 . S
H1193 C1201 0.930 . S
H1194 C1202 0.930 . S
H1195 C1203 0.930 . S
H1196 C1206 0.930 . S
H1197 C1207 0.930 . S
C1198 H1192 0.930 . S
C1198 C1199 1.355 . S
C1198 C1200 1.415 . S
C1199 C1198 1.355 . S
C1199 C1201 1.419 . S
C1200 C1198 1.415 . S
C1200 C1205 1.425 . S
C1200 C1207 1.409 . S
C1201 H1193 0.930 . S
C1201 C1199 1.419 . S
C1201 C1202 1.362 . S
C1202 H1194 0.930 . S
C1202 C1201 1.362 . S
C1202 C1205 1.409 . S
C1203 H1195 0.930 . S
C1203 C1204 1.355 . S
C1203 C1205 1.415 . S
C1204 C1203 1.355 . S
C1204 C1206 1.419 . S
C1205 C1200 1.425 . S
C1205 C1202 1.409 . S
C1205 C1203 1.415 . S
C1206 H1196 0.930 . S
C1206 C1204 1.419 . S
C1206 C1207 1.362 . S
C1207 H1197 0.930 . S
C1207 C1200 1.409 . S
C1207 C1206 1.362 . S
H1208 C1214 0.930 . S
H1209 C1217 0.930 . S
H1210 C1218 0.930 . S
H1211 C1219 0.930 . S
H1212 C1222 0.930 . S
H1213 C1223 0.930 . S
C1214 H1208 0.930 . S
C1214 C1215 1.355 1_455 S
C1214 C1216 1.415 . S
C1215 C1214 1.355 1_655 S
C1215 C1217 1.419 . S
C1216 C1214 1.415 . S
C1216 C1221 1.425 1_455 S
C1216 C1223 1.409 . S
C1217 H1209 0.930 . S
C1217 C1215 1.419 . S
C1217 C1218 1.362 . S
C1218 H1210 0.930 . S
C1218 C1217 1.362 . S
C1218 C1221 1.409 . S
C1219 H1211 0.930 . S
C1219 C1220 1.355 1_655 S
C1219 C1221 1.415 . S
C1220 C1219 1.355 1_455 S
C1220 C1222 1.419 . S
C1221 C1216 1.425 1_655 S
C1221 C1218 1.409 . S
C1221 C1219 1.415 . S
C1222 H1212 0.930 . S
C1222 C1220 1.419 . S
C1222 C1223 1.362 . S
C1223 H1213 0.930 . S
C1223 C1216 1.409 . S
C1223 C1222 1.362 . S
H1224 C1230 0.930 . S
H1225 C1233 0.930 . S
H1226 C1234 0.930 . S
H1227 C1235 0.930 . S
H1228 C1238 0.930 . S
H1229 C1239 0.930 . S
C1230 H1224 0.930 . S
C1230 C1231 1.355 . S
C1230 C1232 1.415 . S
C1231 C1230 1.355 . S
C1231 C1233 1.419 . S
C1232 C1230 1.415 . S
C1232 C1237 1.425 . S
C1232 C1239 1.409 . S
C1233 H1225 0.930 . S
C1233 C1231 1.419 . S
C1233 C1234 1.362 . S
C1234 H1226 0.930 . S
C1234 C1233 1.362 . S
C1234 C1237 1.409 . S
C1235 H1227 0.930 . S
C1235 C1236 1.355 . S
C1235 C1237 1.415 . S
C1236 C1235 1.355 . S
C1236 C1238 1.419 . S
C1237 C1232 1.425 . S
C1237 C1234 1.409 . S
C1237 C1235 1.415 . S
C1238 H1228 0.930 . S
C1238 C1236 1.419 . S
C1238 C1239 1.362 . S
C1239 H1229 0.930 . S
C1239 C1232 1.409 . S
C1239 C1238 1.362 . S
H1240 C1246 0.930 . S
H1241 C1249 0.950 . S
H1242 C1250 0.930 . S
H1243 C1251 0.930 1_655 S
H1244 C1254 0.930 . S
H1245 C1255 0.930 . S
C1246 H1240 0.930 . S
C1246 C1247 1.355 . S
C1246 C1248 1.415 . S
C1247 C1246 1.355 . S
C1247 C1249 1.392 1_455 S
C1248 C1246 1.415 . S
C1248 C1253 1.425 . S
C1248 C1255 1.409 . S
C1249 H1241 0.950 . S
C1249 C1247 1.392 1_655 S
C1249 C1250 1.369 . S
C1250 H1242 0.930 . S
C1250 C1249 1.369 . S
C1250 C1253 1.409 1_655 S
C1251 H1243 0.930 1_455 S
C1251 C1252 1.355 . S
C1251 C1253 1.415 . S
C1252 C1251 1.355 . S
C1252 C1254 1.419 . S
C1253 C1248 1.425 . S
C1253 C1250 1.409 1_455 S
C1253 C1251 1.415 . S
C1254 H1244 0.930 . S
C1254 C1252 1.419 . S
C1254 C1255 1.362 . S
C1255 H1245 0.930 . S
C1255 C1248 1.409 . S
C1255 C1254 1.362 . S
H1256 C1262 0.930 . S
H1257 C1265 0.930 . S
H1258 C1266 0.930 . S
H1259 C1267 0.930 . S
H1260 C1270 0.930 . S
H1261 C1271 0.930 . S
C1262 H1256 0.930 . S
C1262 C1263 1.355 . S
C1262 C1264 1.415 . S
C1263 C1262 1.355 . S
C1263 C1265 1.419 . S
C1264 C1262 1.415 . S
C1264 C1269 1.425 . S
C1264 C1271 1.409 . S
C1265 H1257 0.930 . S
C1265 C1263 1.419 . S
C1265 C1266 1.362 . S
C1266 H1258 0.930 . S
C1266 C1265 1.362 . S
C1266 C1269 1.409 . S
C1267 H1259 0.930 . S
C1267 C1268 1.355 . S
C1267 C1269 1.415 . S
C1268 C1267 1.355 . S
C1268 C1270 1.419 . S
C1269 C1264 1.425 . S
C1269 C1266 1.409 . S
C1269 C1267 1.415 . S
C1270 H1260 0.930 . S
C1270 C1268 1.419 . S
C1270 C1271 1.362 . S
C1271 H1261 0.930 . S
C1271 C1264 1.409 . S
C1271 C1270 1.362 . S
H1272 C1278 0.930 . S
H1273 C1281 0.930 . S
H1274 C1282 0.930 . S
H1275 C1283 0.930 . S
H1276 C1286 0.930 . S
H1277 C1287 0.930 . S
C1278 H1272 0.930 . S
C1278 C1279 1.355 . S
C1278 C1280 1.415 . S
C1279 C1278 1.355 . S
C1279 C1281 1.419 . S
C1280 C1278 1.415 . S
C1280 C1285 1.425 . S
C1280 C1287 1.409 . S
C1281 H1273 0.930 . S
C1281 C1279 1.419 . S
C1281 C1282 1.362 . S
C1282 H1274 0.930 . S
C1282 C1281 1.362 . S
C1282 C1285 1.409 . S
C1283 H1275 0.930 . S
C1283 C1284 1.355 . S
C1283 C1285 1.415 . S
C1284 C1283 1.355 . S
C1284 C1286 1.419 . S
C1285 C1280 1.425 . S
C1285 C1282 1.409 . S
C1285 C1283 1.415 . S
C1286 H1276 0.930 . S
C1286 C1284 1.419 . S
C1286 C1287 1.362 . S
C1287 H1277 0.930 . S
C1287 C1280 1.409 . S
C1287 C1286 1.362 . S
H1288 C1294 0.930 . S
H1289 C1297 0.930 . S
H1290 C1298 0.930 . S
H1291 C1299 0.930 . S
H1292 C1302 0.930 . S
H1293 C1303 0.930 . S
C1294 H1288 0.930 . S
C1294 C1295 1.355 . S
C1294 C1296 1.415 . S
C1295 C1294 1.355 . S
C1295 C1297 1.419 . S
C1296 C1294 1.415 . S
C1296 C1301 1.425 . S
C1296 C1303 1.409 . S
C1297 H1289 0.930 . S
C1297 C1295 1.419 . S
C1297 C1298 1.362 . S
C1298 H1290 0.930 . S
C1298 C1297 1.362 . S
C1298 C1301 1.409 . S
C1299 H1291 0.930 . S
C1299 C1300 1.355 . S
C1299 C1301 1.415 . S
C1300 C1299 1.355 . S
C1300 C1302 1.419 . S
C1301 C1296 1.425 . S
C1301 C1298 1.409 . S
C1301 C1299 1.415 . S
C1302 H1292 0.930 . S
C1302 C1300 1.419 . S
C1302 C1303 1.362 . S
C1303 H1293 0.930 . S
C1303 C1296 1.409 . S
C1303 C1302 1.362 . S
H1304 C1310 0.930 . S
H1305 C1313 0.930 . S
H1306 C1314 0.930 . S
H1307 C1315 0.930 . S
H1308 C1318 0.930 . S
H1309 C1319 0.930 . S
C1310 H1304 0.930 . S
C1310 C1311 1.355 . S
C1310 C1312 1.415 . S
C1311 C1310 1.355 . S
C1311 C1313 1.419 . S
C1312 C1310 1.415 . S
C1312 C1317 1.425 . S
C1312 C1319 1.409 . S
C1313 H1305 0.930 . S
C1313 C1311 1.419 . S
C1313 C1314 1.362 . S
C1314 H1306 0.930 . S
C1314 C1313 1.362 . S
C1314 C1317 1.409 . S
C1315 H1307 0.930 . S
C1315 C1316 1.355 . S
C1315 C1317 1.415 . S
C1316 C1315 1.355 . S
C1316 C1318 1.419 . S
C1317 C1312 1.425 . S
C1317 C1314 1.409 . S
C1317 C1315 1.415 . S
C1318 H1308 0.930 . S
C1318 C1316 1.419 . S
C1318 C1319 1.362 . S
C1319 H1309 0.930 . S
C1319 C1312 1.409 . S
C1319 C1318 1.362 . S
H1320 C1326 0.930 . S
H1321 C1329 0.930 . S
H1322 C1330 0.930 . S
H1323 C1331 0.930 . S
H1324 C1334 0.930 . S
H1325 C1335 0.930 . S
C1326 H1320 0.930 . S
C1326 C1327 1.355 . S
C1326 C1328 1.415 . S
C1327 C1326 1.355 . S
C1327 C1329 1.419 . S
C1328 C1326 1.415 . S
C1328 C1333 1.425 . S
C1328 C1335 1.409 . S
C1329 H1321 0.930 . S
C1329 C1327 1.419 . S
C1329 C1330 1.362 . S
C1330 H1322 0.930 . S
C1330 C1329 1.362 . S
C1330 C1333 1.409 . S
C1331 H1323 0.930 . S
C1331 C1332 1.355 . S
C1331 C1333 1.415 . S
C1332 C1331 1.355 . S
C1332 C1334 1.419 . S
C1333 C1328 1.425 . S
C1333 C1330 1.409 . S
C1333 C1331 1.415 . S
C1334 H1324 0.930 . S
C1334 C1332 1.419 . S
C1334 C1335 1.362 . S
C1335 H1325 0.930 . S
C1335 C1328 1.409 . S
C1335 C1334 1.362 . S
H1336 C1342 0.930 . S
H1337 C1345 0.930 . S
H1338 C1346 0.930 . S
H1339 C1347 0.930 . S
H1340 C1350 0.930 . S
H1341 C1351 0.930 . S
C1342 H1336 0.930 . S
C1342 C1343 1.355 . S
C1342 C1344 1.415 . S
C1343 C1342 1.355 . S
C1343 C1345 1.419 . S
C1344 C1342 1.415 . S
C1344 C1349 1.425 . S
C1344 C1351 1.409 . S
C1345 H1337 0.930 . S
C1345 C1343 1.419 . S
C1345 C1346 1.362 . S
C1346 H1338 0.930 . S
C1346 C1345 1.362 . S
C1346 C1349 1.409 . S
C1347 H1339 0.930 . S
C1347 C1348 1.355 . S
C1347 C1349 1.415 . S
C1348 C1347 1.355 . S
C1348 C1350 1.419 . S
C1349 C1344 1.425 . S
C1349 C1346 1.409 . S
C1349 C1347 1.415 . S
C1350 H1340 0.930 . S
C1350 C1348 1.419 . S
C1350 C1351 1.362 . S
C1351 H1341 0.930 . S
C1351 C1344 1.409 . S
C1351 C1350 1.362 . S
H1352 C1358 0.930 . S
H1353 C1361 0.930 . S
H1354 C1362 0.930 . S
H1355 C1363 0.930 . S
H1356 C1366 0.930 . S
H1357 C1367 0.930 . S
C1358 H1352 0.930 . S
C1358 C1359 1.355 . S
C1358 C1360 1.415 . S
C1359 C1358 1.355 . S
C1359 C1361 1.419 . S
C1360 C1358 1.415 . S
C1360 C1365 1.425 . S
C1360 C1367 1.409 . S
C1361 H1353 0.930 . S
C1361 C1359 1.419 . S
C1361 C1362 1.362 . S
C1362 H1354 0.930 . S
C1362 C1361 1.362 . S
C1362 C1365 1.409 . S
C1363 H1355 0.930 . S
C1363 C1364 1.355 . S
C1363 C1365 1.415 . S
C1364 C1363 1.355 . S
C1364 C1366 1.419 . S
C1365 C1360 1.425 . S
C1365 C1362 1.409 . S
C1365 C1363 1.415 . S
C1366 H1356 0.930 . S
C1366 C1364 1.419 . S
C1366 C1367 1.362 . S
C1367 H1357 0.930 . S
C1367 C1360 1.409 . S
C1367 C1366 1.362 . S
H1368 C1374 0.930 . S
H1369 C1377 0.930 . S
H1370 C1378 0.930 . S
H1371 C1379 0.930 . S
H1372 C1382 0.930 . S
H1373 C1383 0.930 . S
C1374 H1368 0.930 . S
C1374 C1375 1.355 . S
C1374 C1376 1.415 . S
C1375 C1374 1.355 . S
C1375 C1377 1.419 . S
C1376 C1374 1.415 . S
C1376 C1381 1.425 . S
C1376 C1383 1.409 . S
C1377 H1369 0.930 . S
C1377 C1375 1.419 . S
C1377 C1378 1.362 . S
C1378 H1370 0.930 . S
C1378 C1377 1.362 . S
C1378 C1381 1.409 . S
C1379 H1371 0.930 . S
C1379 C1380 1.355 . S
C1379 C1381 1.415 . S
C1380 C1379 1.355 . S
C1380 C1382 1.419 . S
C1381 C1376 1.425 . S
C1381 C1378 1.409 . S
C1381 C1379 1.415 . S
C1382 H1372 0.930 . S
C1382 C1380 1.419 . S
C1382 C1383 1.362 . S
C1383 H1373 0.930 . S
C1383 C1376 1.409 . S
C1383 C1382 1.362 . S
H1384 C1390 0.930 . S
H1385 C1393 0.930 . S
H1386 C1394 0.930 . S
H1387 C1395 0.930 . S
H1388 C1398 0.930 . S
H1389 C1399 0.930 . S
C1390 H1384 0.930 . S
C1390 C1391 1.355 1_554 S
C1390 C1392 1.415 . S
C1391 C1390 1.355 1_556 S
C1391 C1393 1.419 . S
C1392 C1390 1.415 . S
C1392 C1397 1.425 1_554 S
C1392 C1399 1.409 . S
C1393 H1385 0.930 . S
C1393 C1391 1.419 . S
C1393 C1394 1.362 . S
C1394 H1386 0.930 . S
C1394 C1393 1.362 . S
C1394 C1397 1.409 . S
C1395 H1387 0.930 . S
C1395 C1396 1.355 1_556 S
C1395 C1397 1.415 . S
C1396 C1395 1.355 1_554 S
C1396 C1398 1.419 . S
C1397 C1392 1.425 1_556 S
C1397 C1394 1.409 . S
C1397 C1395 1.415 . S
C1398 H1388 0.930 . S
C1398 C1396 1.419 . S
C1398 C1399 1.362 . S
C1399 H1389 0.930 . S
C1399 C1392 1.409 . S
C1399 C1398 1.362 . S
H1400 C1406 0.930 . S
H1401 C1409 0.930 . S
H1402 C1410 0.930 . S
H1403 C1411 0.930 . S
H1404 C1414 0.930 . S
H1405 C1415 0.930 . S
C1406 H1400 0.930 . S
C1406 C1407 1.355 . S
C1406 C1408 1.415 . S
C1407 C1406 1.355 . S
C1407 C1409 1.419 . S
C1408 C1406 1.415 . S
C1408 C1413 1.425 . S
C1408 C1415 1.409 . S
C1409 H1401 0.930 . S
C1409 C1407 1.419 . S
C1409 C1410 1.362 . S
C1410 H1402 0.930 . S
C1410 C1409 1.362 . S
C1410 C1413 1.409 . S
C1411 H1403 0.930 . S
C1411 C1412 1.355 . S
C1411 C1413 1.415 . S
C1412 C1411 1.355 . S
C1412 C1414 1.419 . S
C1413 C1408 1.425 . S
C1413 C1410 1.409 . S
C1413 C1411 1.415 . S
C1414 H1404 0.930 . S
C1414 C1412 1.419 . S
C1414 C1415 1.362 . S
C1415 H1405 0.930 . S
C1415 C1408 1.409 . S
C1415 C1414 1.362 . S
H1416 C1422 0.906 1_556 S
H1417 C1425 0.930 . S
H1418 C1426 0.930 . S
H1419 C1427 0.930 . S
H1420 C1430 0.930 . S
H1421 C1431 0.930 . S
C1422 H1416 0.906 1_554 S
C1422 C1423 1.355 . S
C1422 C1424 1.415 . S
C1423 C1422 1.355 . S
C1423 C1425 1.419 . S
C1424 C1422 1.415 . S
C1424 C1429 1.425 . S
C1424 C1431 1.409 1_554 S
C1425 H1417 0.930 . S
C1425 C1423 1.419 . S
C1425 C1426 1.362 . S
C1426 H1418 0.930 . S
C1426 C1425 1.362 . S
C1426 C1429 1.409 . S
C1427 H1419 0.930 . S
C1427 C1428 1.355 . S
C1427 C1429 1.415 . S
C1428 C1427 1.355 . S
C1428 C1430 1.419 1_554 S
C1429 C1424 1.425 . S
C1429 C1426 1.409 . S
C1429 C1427 1.415 . S
C1430 H1420 0.930 . S
C1430 C1428 1.419 1_556 S
C1430 C1431 1.362 . S
C1431 H1421 0.930 . S
C1431 C1424 1.409 1_556 S
C1431 C1430 1.362 . S
H1432 C1438 0.930 1_556 S
H1433 C1441 0.930 . S
H1434 C1442 0.930 . S
H1435 C1443 0.930 . S
H1436 C1446 0.930 . S
H1437 C1447 0.930 . S
C1438 H1432 0.930 1_554 S
C1438 C1439 1.355 . S
C1438 C1440 1.415 . S
C1439 C1438 1.355 . S
C1439 C1441 1.419 . S
C1440 C1438 1.415 . S
C1440 C1445 1.425 . S
C1440 C1447 1.409 1_554 S
C1441 H1433 0.930 . S
C1441 C1439 1.419 . S
C1441 C1442 1.362 . S
C1442 H1434 0.930 . S
C1442 C1441 1.362 . S
C1442 C1445 1.409 . S
C1443 H1435 0.930 . S
C1443 C1444 1.355 . S
C1443 C1445 1.415 . S
C1444 C1443 1.355 . S
C1444 C1446 1.419 1_554 S
C1445 C1440 1.425 . S
C1445 C1442 1.409 . S
C1445 C1443 1.415 . S
C1446 H1436 0.930 . S
C1446 C1444 1.419 1_556 S
C1446 C1447 1.362 . S
C1447 H1437 0.930 . S
C1447 C1440 1.409 1_556 S
C1447 C1446 1.362 . S
C692 C523 1.399 . S
C687 C177 1.420 . S
C708 C531 1.355 . S
C703 C209 1.519 . S
C719 C253 1.322 . S
C724 C551 1.387 . S
C740 C565 1.504 . S
C735 C157 1.491 1_655 S
C756 C580 1.531 . S
C751 C343 1.477 . S
C772 C594 1.495 . S
C767 C401 1.419 . S
C783 C369 1.511 . S
C788 C608 1.563 . S
C804 C614 1.413 . S
C799 C317 1.436 . S
C815 C375 1.519 . S
C820 C628 1.516 . S
C836 C649 1.542 . S
C831 C305 1.558 . S
C847 C349 1.479 . S
C852 C629 1.332 . S
C868 C650 1.529 . S
C863 C413 1.443 . S
C879 C241 1.439 . S
C884 C657 1.278 . S
C895 C151 1.420 . S
C900 C663 1.485 . S
C911 C189 1.470 . S
C916 C656 1.490 . S
C927 C215 1.478 . S
C932 C664 1.473 . S
C943 C113 1.449 . S
C948 C558 1.463 . S
C959 C471 1.456 . S
C964 C559 1.237 . S
C980 C516 1.526 . S
C975 C509 1.546 . S
C996 C537 1.463 . S
C991 C279 1.419 . S
C1007 C145 1.402 . S
C1012 C572 1.404 . S
C1028 C622 1.562 . S
C1023 C381 1.508 . S
C1044 C573 1.268 . S
C1039 C311 1.452 . S
C1060 C601 1.206 . S
C1055 C407 1.445 . S
C1076 C607 1.415 . S
C1071 C465 1.405 . S
C1087 C497 1.519 . S
C1092 C615 1.343 . S
C1103 C285 1.320 . S
C1108 C579 1.382 . S
C1124 C593 1.526 . S
C1119 C445 1.460 . S
C1135 C119 1.487 . S
C1140 C552 1.529 . S
C1156 C566 1.495 . S
C1151 C17 1.425 . S
C1172 C524 1.567 . S
C1167 C49 1.555 . S
C1188 C530 1.440 . S
C1183 C93 1.468 . S
C1199 C55 1.500 . S
C1204 C642 1.509 . S
C1215 C81 1.562 . S
C1220 C635 1.568 . S
C1231 C125 1.432 . S
C1236 C643 1.221 . S
C1247 C29 1.495 . S
C1252 C636 1.528 . S
C1268 C671 1.276 . S
C1263 C273 1.437 . S
C1284 C677 1.451 . S
C1279 C439 1.471 . S
C1300 C670 1.489 . S
C1295 C477 1.460 . S
C1311 C503 1.438 . S
C1316 C678 1.473 . S
C1327 C337 1.459 . S
C1332 C586 1.472 . S
C1348 C587 1.172 . S
C1343 C183 1.479 . S
C1364 C600 1.534 . S
C1359 C221 1.538 . S
C1380 C621 1.440 . S
C1375 C247 1.387 . S
C1391 C433 1.435 . S
C1396 C544 1.439 . S
C1412 C538 1.559 . S
C1407 C61 1.492 . S
C1423 C87 1.459 . S
C1428 C545 1.243 . S
C1444 C517 1.241 . S
C1439 C23 1.446 . S
