# Generated by pormake.
# Topology zzz, (3,6)-cn, num edge types: 1
# Building blocks:
#     Node 0, Type 0, BuildingBlock: VETTIZ_charged_linker_0, # of connection points: 3
#     Node 1, Type 0, BuildingBlock: VETTIZ_charged_linker_0, # of connection points: 3
#     Node 2, Type 0, BuildingBlock: VETTIZ_charged_linker_0, # of connection points: 3
#     Node 3, Type 0, BuildingBlock: VETTIZ_charged_linker_0, # of connection points: 3
#     Node 4, Type 0, BuildingBlock: VETTIZ_charged_linker_0, # of connection points: 3
#     Node 5, Type 0, BuildingBlock: VETTIZ_charged_linker_0, # of connection points: 3
#     Node 6, Type 0, BuildingBlock: VETTIZ_charged_linker_0, # of connection points: 3
#     Node 7, Type 0, BuildingBlock: VETTIZ_charged_linker_0, # of connection points: 3
#     Node 8, Type 1, BuildingBlock: LEVNOQ01_clean_sbu_1, # of connection points: 6
#     Node 9, Type 1, BuildingBlock: LEVNOQ01_clean_sbu_1, # of connection points: 6
#     Node 10, Type 1, BuildingBlock: LEVNOQ01_clean_sbu_1, # of connection points: 6
#     Node 11, Type 1, BuildingBlock: LEVNOQ01_clean_sbu_1, # of connection points: 6
#     Edge 12, Type (0, 1), BuildingBlock: ZUJKAS_clean_linker_0, # of connection points: 2
#     Edge 13, Type (0, 1), BuildingBlock: ZUJKAS_clean_linker_0, # of connection points: 2
#     Edge 14, Type (0, 1), BuildingBlock: ZUJKAS_clean_linker_0, # of connection points: 2
#     Edge 15, Type (0, 1), BuildingBlock: ZUJKAS_clean_linker_0, # of connection points: 2
#     Edge 16, Type (0, 1), BuildingBlock: ZUJKAS_clean_linker_0, # of connection points: 2
#     Edge 17, Type (0, 1), BuildingBlock: ZUJKAS_clean_linker_0, # of connection points: 2
#     Edge 18, Type (0, 1), BuildingBlock: ZUJKAS_clean_linker_0, # of connection points: 2
#     Edge 19, Type (0, 1), BuildingBlock: ZUJKAS_clean_linker_0, # of connection points: 2
#     Edge 20, Type (0, 1), BuildingBlock: ZUJKAS_clean_linker_0, # of connection points: 2
#     Edge 21, Type (0, 1), BuildingBlock: ZUJKAS_clean_linker_0, # of connection points: 2
#     Edge 22, Type (0, 1), BuildingBlock: ZUJKAS_clean_linker_0, # of connection points: 2
#     Edge 23, Type (0, 1), BuildingBlock: ZUJKAS_clean_linker_0, # of connection points: 2
#     Edge 24, Type (0, 1), BuildingBlock: ZUJKAS_clean_linker_0, # of connection points: 2
#     Edge 25, Type (0, 1), BuildingBlock: ZUJKAS_clean_linker_0, # of connection points: 2
#     Edge 26, Type (0, 1), BuildingBlock: ZUJKAS_clean_linker_0, # of connection points: 2
#     Edge 27, Type (0, 1), BuildingBlock: ZUJKAS_clean_linker_0, # of connection points: 2
#     Edge 28, Type (0, 1), BuildingBlock: ZUJKAS_clean_linker_0, # of connection points: 2
#     Edge 29, Type (0, 1), BuildingBlock: ZUJKAS_clean_linker_0, # of connection points: 2
#     Edge 30, Type (0, 1), BuildingBlock: ZUJKAS_clean_linker_0, # of connection points: 2
#     Edge 31, Type (0, 1), BuildingBlock: ZUJKAS_clean_linker_0, # of connection points: 2
#     Edge 32, Type (0, 1), BuildingBlock: ZUJKAS_clean_linker_0, # of connection points: 2
#     Edge 33, Type (0, 1), BuildingBlock: ZUJKAS_clean_linker_0, # of connection points: 2
#     Edge 34, Type (0, 1), BuildingBlock: ZUJKAS_clean_linker_0, # of connection points: 2
#     Edge 35, Type (0, 1), BuildingBlock: ZUJKAS_clean_linker_0, # of connection points: 2
# Relax obj value: 0.312
# Max RMSD: 0.219
# Mean RMSD: 0.210
data_MOF--net-zzz--node1-LEVNOQ01_clean_sbu_1--node2-VETTIZ_charged_linker_0--edge1-ZUJKAS_clean_linker_0
_symmetry_space_group_name_H-M    P1
_symmetry_Int_Tables_number       1
_symmetry_cell_setting            triclinic
loop_
_symmetry_equiv_pos_as_xyz
'x, y, z'
_cell_length_a     67.502724
_cell_length_b     71.669053
_cell_length_c     25.929259
_cell_angle_alpha  89.755154
_cell_angle_beta   89.976988
_cell_angle_gamma 88.363642
loop_
_atom_site_label
_atom_site_type_symbol
_atom_site_fract_x
_atom_site_fract_y
_atom_site_fract_z
_atom_type_partial_charge
C0 C 0.79906 0.589 0.29052 0.0
C1 C 0.81965 0.59087 0.3001 0.0
C2 C 0.83192 0.59612 0.25896 0.0
C3 C 0.80393 0.59853 0.20127 0.0
C4 C 0.79148 0.59304 0.24046 0.0
C5 C 0.77026 0.59174 0.22091 0.0
H6 H 0.70815 0.6012 0.01093 0.0
C7 C 0.79224 0.60171 0.15399 0.0
C8 C 0.77231 0.59783 0.16438 0.0
H9 H 0.6916 0.58107 0.16147 0.0
H10 H 0.72516 0.58637 0.19312 0.0
H11 H 0.73352 0.63483 0.04511 0.0
H12 H 0.74675 0.57771 0.00664 0.0
H13 H 0.76605 0.59033 0.97991 0.0
H14 H 0.74097 0.59521 0.95892 0.0
H15 H 0.7344 0.62676 0.97975 0.0
H16 H 0.75615 0.63514 0.01175 0.0
C17 C 0.75683 0.60545 0.25154 0.0
C18 C 0.76403 0.57127 0.22586 0.0
C19 C 0.82875 0.61768 0.98994 0.0
C20 C 0.82266 0.61886 0.93823 0.0
C21 C 0.8023 0.62007 0.9268 0.0
C22 C 0.78822 0.6187 0.96628 0.0
C23 C 0.79463 0.61553 0.01737 0.0
C24 C 0.81458 0.61567 0.02855 0.0
C25 C 0.81891 0.6109 0.08389 0.0
C26 C 0.79821 0.60764 0.10423 0.0
C27 C 0.78418 0.61014 0.06512 0.0
C28 C 0.82841 0.62813 0.10901 0.0
C29 C 0.83198 0.59266 0.08501 0.0
C30 C 0.71151 0.59822 0.05107 0.0
C31 C 0.69715 0.59102 0.08383 0.0
C32 C 0.70246 0.5867 0.13538 0.0
C33 C 0.72193 0.58966 0.15352 0.0
C34 C 0.73629 0.5965 0.11931 0.0
C35 C 0.73068 0.60066 0.06908 0.0
C36 C 0.74744 0.60667 0.03611 0.0
C37 C 0.76416 0.60603 0.07458 0.0
C38 C 0.75796 0.59993 0.12373 0.0
C39 C 0.74271 0.62684 0.0167 0.0
C40 C 0.75051 0.59191 0.99282 0.0
H41 H 0.83472 0.6038 0.18144 0.0
H42 H 0.78923 0.58467 0.32101 0.0
H43 H 0.77595 0.56165 0.21125 0.0
H44 H 0.75072 0.56833 0.20306 0.0
H45 H 0.76115 0.56761 0.26683 0.0
H46 H 0.76324 0.61957 0.25174 0.0
H47 H 0.7553 0.60073 0.29218 0.0
H48 H 0.74188 0.60701 0.23457 0.0
H49 H 0.84433 0.61619 0.99977 0.0
H50 H 0.79735 0.62079 0.88708 0.0
H51 H 0.77293 0.61901 0.95493 0.0
H52 H 0.82378 0.64133 0.08909 0.0
H53 H 0.84485 0.62705 0.10741 0.0
H54 H 0.82367 0.63025 0.14948 0.0
H55 H 0.82827 0.58334 0.05239 0.0
H56 H 0.82962 0.58402 0.11976 0.0
H57 H 0.84797 0.59572 0.08187 0.0
H58 H 0.84781 0.59695 0.26402 0.0
C59 C 0.82426 0.60001 0.21033 0.0
C60 C 0.9922 0.79865 0.97267 0.0
C61 C 0.99325 0.81803 0.97079 0.0
C62 C 0.99579 0.82824 0.01645 0.0
C63 C 0.9957 0.79966 0.06596 0.0
C64 C 0.99344 0.78978 0.02077 0.0
C65 C 0.99248 0.76922 0.03008 0.0
H66 H 0.008 0.6952 0.18463 0.0
C67 C 0.9963 0.78621 0.10914 0.0
C68 C 0.99439 0.7684 0.08854 0.0
H69 H 0.99241 0.69781 0.02288 0.0
H70 H 0.987 0.73063 0.0282 0.0
H71 H 0.0334 0.73441 0.19708 0.0
H72 H 0.9699 0.72794 0.2129 0.0
H73 H 0.9793 0.74219 0.26182 0.0
H74 H 0.98701 0.71791 0.25907 0.0
H75 H 0.02308 0.71887 0.24406 0.0
H76 H 0.02373 0.74347 0.25605 0.0
C77 C 0.0106 0.75995 0.00239 0.0
C78 C 0.97195 0.76272 0.01111 0.0
C79 C 1.00284 0.81074 0.28994 0.0
C80 C 1.00269 0.80264 0.33914 0.0
C81 C 1.00172 0.78303 0.34349 0.0
C82 C 1.00116 0.77174 0.29892 0.0
C83 C 1.0011 0.78022 0.24975 0.0
C84 C 1.00181 0.79947 0.24639 0.0
C85 C 1.00051 0.80658 0.19218 0.0
C86 C 0.99853 0.78854 0.163 0.0
C87 C 0.99921 0.77293 0.1963 0.0
C88 C 0.0202 0.81627 0.17933 0.0
C89 C 0.98162 0.81935 0.18742 0.0
C90 C 0.0035 0.7031 0.15073 0.0
C91 C 1.00136 0.69419 0.10261 0.0
C92 C 0.99467 0.70455 0.05972 0.0
C93 C 0.99158 0.72368 0.06284 0.0
C94 C 0.9953 0.73277 0.10929 0.0
C95 C 1.00012 0.72265 0.15321 0.0
C96 C 1.00093 0.73533 0.19992 0.0
C97 C 0.99805 0.75462 0.17499 0.0
C98 C 0.99504 0.75266 0.12167 0.0
C99 C 0.02137 0.73291 0.226 0.0
C100 C 0.98347 0.73062 0.23575 0.0
H101 H 0.99894 0.8277 0.09749 0.0
H102 H 0.99033 0.79064 0.93774 0.0
H103 H 0.96097 0.77454 0.00739 0.0
H104 H 0.96503 0.75302 0.03877 0.0
H105 H 0.97311 0.75594 0.97275 0.0
H106 H 0.02413 0.76817 0.00863 0.0
H107 H 0.00803 0.75919 0.96015 0.0
H108 H 0.01455 0.74584 0.01665 0.0
H109 H 0.00317 0.82577 0.28532 0.0
H110 H 1.00157 0.7765 0.38122 0.0
H111 H 1.00075 0.7569 0.30423 0.0
H112 H 0.03293 0.80944 0.2 0.0
H113 H 0.01955 0.83118 0.19088 0.0
H114 H 0.02425 0.81531 0.13811 0.0
H115 H 0.96959 0.81437 0.21295 0.0
H116 H 0.97507 0.81939 0.14839 0.0
H117 H 0.98468 0.83393 0.1986 0.0
H118 H 0.99674 0.84331 0.01507 0.0
C119 C 0.99705 0.81916 0.0641 0.0
C120 C 0.79761 0.91591 0.12557 0.0
C121 C 0.80765 0.91218 0.07867 0.0
C122 C 0.79889 0.90081 0.04173 0.0
C123 C 0.76933 0.89924 0.09375 0.0
C124 C 0.77842 0.90887 0.13272 0.0
C125 C 0.76493 0.91079 0.17946 0.0
H126 H 0.67027 0.90388 0.27285 0.0
C127 C 0.74875 0.89591 0.10884 0.0
C128 C 0.74588 0.90214 0.15977 0.0
H129 H 0.72088 0.9232 0.35696 0.0
H130 H 0.74213 0.91627 0.28309 0.0
H131 H 0.68188 0.92481 0.16857 0.0
H132 H 0.68938 0.86863 0.22475 0.0
H133 H 0.68546 0.86652 0.15812 0.0
H134 H 0.66632 0.87712 0.19803 0.0
H135 H 0.66179 0.90923 0.17698 0.0
H136 H 0.67561 0.91008 0.11781 0.0
C137 C 0.762 0.93169 0.1922 0.0
C138 C 0.77429 0.89919 0.22392 0.0
C139 C 0.69959 0.88457 0.9666 0.0
C140 C 0.67888 0.88435 0.96686 0.0
C141 C 0.66881 0.88162 0.01372 0.0
C142 C 0.67913 0.8815 0.06049 0.0
C143 C 0.69965 0.88425 0.06013 0.0
C144 C 0.70969 0.88448 0.01372 0.0
C145 C 0.73149 0.88703 0.02074 0.0
C146 C 0.73254 0.89008 0.0788 0.0
C147 C 0.71381 0.88876 0.10137 0.0
C148 C 0.73733 0.9046 0.98959 0.0
C149 C 0.74242 0.86867 0.00391 0.0
C150 C 0.68599 0.9063 0.27615 0.0
C151 C 0.69382 0.91393 0.32123 0.0
C152 C 0.71436 0.91738 0.32267 0.0
C153 C 0.72669 0.91334 0.27976 0.0
C154 C 0.71838 0.90606 0.23452 0.0
C155 C 0.69832 0.90256 0.23387 0.0
C156 C 0.69147 0.8955 0.18287 0.0
C157 C 0.7108 0.89436 0.15329 0.0
C158 C 0.72667 0.90094 0.1829 0.0
C159 C 0.67683 0.9105 0.16012 0.0
C160 C 0.68254 0.87599 0.19103 0.0
H161 H 0.77388 0.88617 0.01878 0.0
H162 H 0.80432 0.92431 0.15504 0.0
H163 H 0.77948 0.88525 0.20984 0.0
H164 H 0.76367 0.89645 0.25518 0.0
H165 H 0.78725 0.9063 0.24032 0.0
H166 H 0.75831 0.9398 0.15665 0.0
H167 H 0.77572 0.93734 0.20895 0.0
H168 H 0.74973 0.93441 0.21942 0.0
H169 H 0.70751 0.8866 0.93077 0.0
H170 H 0.65276 0.88156 0.01459 0.0
H171 H 0.67051 0.88067 0.09514 0.0
H172 H 0.72641 0.91627 0.99616 0.0
H173 H 0.73774 0.90165 0.94758 0.0
H174 H 0.75182 0.91006 1.00027 0.0
H175 H 0.73219 0.85687 0.9996 0.0
H176 H 0.75343 0.86376 0.03308 0.0
H177 H 0.75 0.87039 0.96621 0.0
H178 H 0.80648 0.89765 0.00582 0.0
C179 C 0.77991 0.89423 0.0492 0.0
C180 C 0.49424 0.71985 0.32488 0.0
C181 C 0.49521 0.70034 0.3333 0.0
C182 C 0.49405 0.68823 0.29114 0.0
C183 C 0.49119 0.71446 0.2327 0.0
C184 C 0.4922 0.72665 0.27376 0.0
C185 C 0.49161 0.74682 0.25522 0.0
H186 H 0.48426 0.80584 0.04613 0.0
C187 C 0.48937 0.72537 0.1847 0.0
C188 C 0.48949 0.74446 0.19687 0.0
H189 H 0.49613 0.82199 0.20272 0.0
H190 H 0.49276 0.78958 0.23138 0.0
H191 H 0.51394 0.77465 0.04622 0.0
H192 H 0.45101 0.77494 0.06943 0.0
H193 H 0.45665 0.75521 0.0317 0.0
H194 H 0.46221 0.77811 0.00736 0.0
H195 H 0.49678 0.77629 0.99352 0.0
H196 H 0.50615 0.75408 0.01745 0.0
C197 C 0.5114 0.75568 0.26982 0.0
C198 C 0.47333 0.75698 0.27873 0.0
C199 C 0.48292 0.69061 0.01677 0.0
C200 C 0.47943 0.69638 0.96578 0.0
C201 C 0.47861 0.71546 0.95349 0.0
C202 C 0.48046 0.72874 0.99262 0.0
C203 C 0.48337 0.72271 0.04405 0.0
C204 C 0.48471 0.70391 0.05508 0.0
C205 C 0.48749 0.69986 0.11138 0.0
C206 C 0.4874 0.71947 0.13293 0.0
C207 C 0.48518 0.73267 0.09345 0.0
C208 C 0.50799 0.68978 0.11815 0.0
C209 C 0.46951 0.68858 0.13042 0.0
C210 C 0.48577 0.80246 0.08679 0.0
C211 C 0.49028 0.81624 0.1223 0.0
C212 C 0.49259 0.8114 0.1748 0.0
C213 C 0.49087 0.79265 0.1911 0.0
C214 C 0.48743 0.77874 0.15411 0.0
C215 C 0.48483 0.784 0.10301 0.0
C216 C 0.48311 0.76786 0.06743 0.0
C217 C 0.48508 0.75186 0.10502 0.0
C218 C 0.48739 0.75798 0.15623 0.0
C219 C 0.50074 0.76817 0.02879 0.0
C220 C 0.46226 0.76903 0.04219 0.0
H221 H 0.49144 0.68499 0.21117 0.0
H222 H 0.4952 0.72942 0.35692 0.0
H223 H 0.45979 0.74883 0.27207 0.0
H224 H 0.47053 0.77089 0.26136 0.0
H225 H 0.47515 0.7587 0.32101 0.0
H226 H 0.52404 0.74568 0.2631 0.0
H227 H 0.51151 0.75963 0.31121 0.0
H228 H 0.51459 0.76806 0.24625 0.0
H229 H 0.48398 0.67591 0.02683 0.0
H230 H 0.47615 0.72002 0.91407 0.0
H231 H 0.4794 0.74314 0.98129 0.0
H232 H 0.5191 0.69561 0.09124 0.0
H233 H 0.50709 0.67462 0.10996 0.0
H234 H 0.51443 0.6916 0.15691 0.0
H235 H 0.45638 0.69068 0.1049 0.0
H236 H 0.46418 0.69308 0.16891 0.0
H237 H 0.47312 0.67337 0.1315 0.0
H238 H 0.49475 0.67323 0.297 0.0
C239 C 0.49209 0.69513 0.2412 0.0
C240 C 0.29717 0.41439 0.3294 0.0
C241 C 0.30589 0.41219 0.37899 0.0
C242 C 0.29369 0.40771 0.42095 0.0
C243 C 0.2652 0.40644 0.36526 0.0
C244 C 0.27662 0.41135 0.32342 0.0
C245 C 0.26398 0.41308 0.27482 0.0
H246 H 0.16953 0.40962 0.17421 0.0
C247 C 0.24468 0.40415 0.34818 0.0
C248 C 0.2434 0.40818 0.29509 0.0
H249 H 0.22204 0.42415 0.08981 0.0
H250 H 0.24216 0.4185 0.16719 0.0
H251 H 0.18647 0.37541 0.22797 0.0
H252 H 0.18007 0.43242 0.27629 0.0
H253 H 0.17249 0.4185 0.32821 0.0
H254 H 0.1597 0.41719 0.26749 0.0
H255 H 0.16364 0.38451 0.25425 0.0
H256 H 0.18273 0.37408 0.29479 0.0
C257 C 0.27172 0.39869 0.2351 0.0
C258 C 0.26463 0.43338 0.25511 0.0
C259 C 0.19423 0.3864 0.48311 0.0
C260 C 0.17348 0.38555 0.48185 0.0
C261 C 0.16387 0.38603 0.43337 0.0
C262 C 0.17448 0.38894 0.38791 0.0
C263 C 0.19495 0.39164 0.39058 0.0
C264 C 0.20451 0.3899 0.43743 0.0
C265 C 0.22599 0.39439 0.43366 0.0
C266 C 0.22785 0.3987 0.37645 0.0
C267 C 0.20963 0.39733 0.3517 0.0
C268 C 0.23822 0.37663 0.44984 0.0
C269 C 0.22938 0.412 0.46717 0.0
C270 C 0.18539 0.41146 0.1718 0.0
C271 C 0.19414 0.41716 0.12561 0.0
C272 C 0.21485 0.4198 0.12503 0.0
C273 C 0.22648 0.41663 0.16997 0.0
C274 C 0.21724 0.41116 0.2162 0.0
C275 C 0.19698 0.4086 0.21584 0.0
C276 C 0.18908 0.40276 0.26701 0.0
C277 C 0.20782 0.40195 0.29875 0.0
C278 C 0.22452 0.40718 0.26976 0.0
C279 C 0.17987 0.38326 0.26102 0.0
C280 C 0.17445 0.41838 0.28596 0.0
H281 H 0.2656 0.40143 0.44846 0.0
H282 H 0.30608 0.41821 0.29649 0.0
H283 H 0.26183 0.44332 0.28729 0.0
H284 H 0.25325 0.43658 0.22571 0.0
H285 H 0.2794 0.43627 0.23841 0.0
H286 H 0.27324 0.38461 0.25316 0.0
H287 H 0.28648 0.40256 0.2202 0.0
H288 H 0.26155 0.39738 0.20209 0.0
H289 H 0.2022 0.38597 0.51936 0.0
H290 H 0.14788 0.38578 0.4305 0.0
H291 H 0.16609 0.39006 0.3529 0.0
H292 H 0.23015 0.3637 0.44109 0.0
H293 H 0.24137 0.37658 0.49188 0.0
H294 H 0.25232 0.37497 0.42841 0.0
H295 H 0.21576 0.42108 0.46944 0.0
H296 H 0.24066 0.42123 0.45081 0.0
H297 H 0.23363 0.40811 0.50725 0.0
H298 H 0.29962 0.4067 0.45973 0.0
C299 C 0.27366 0.40479 0.41437 0.0
C300 C 0.0086 0.20854 0.46639 0.0
C301 C 0.01284 0.18933 0.46713 0.0
C302 C 0.01292 0.17922 0.42065 0.0
C303 C 0.00546 0.20746 0.37305 0.0
C304 C 0.00532 0.21734 0.41871 0.0
C305 C 1.00214 0.23787 0.40989 0.0
H306 H 1.00253 0.31199 0.2507 0.0
C307 C 1.00282 0.22081 0.33021 0.0
C308 C 1.00121 0.23865 0.35124 0.0
H309 H 0.99527 0.30953 0.41637 0.0
H310 H 0.99467 0.27639 0.41369 0.0
H311 H 0.03324 0.2752 0.23742 0.0
H312 H 0.96894 0.27567 0.22941 0.0
H313 H 0.98035 0.26446 0.17587 0.0
H314 H 0.98337 0.28905 0.18505 0.0
H315 H 0.02002 0.28815 0.18809 0.0
H316 H 0.02447 0.26338 0.18248 0.0
C317 C 0.0205 0.24777 0.43176 0.0
C318 C 0.98202 0.24381 0.43494 0.0
C319 C 1.00165 0.19579 0.14911 0.0
C320 C 1.0025 0.20378 0.09996 0.0
C321 C 0.0033 0.22339 0.09539 0.0
C322 C 1.00282 0.23482 0.1398 0.0
C323 C 1.00192 0.22646 0.18906 0.0
C324 C 1.00166 0.20718 0.19256 0.0
C325 C 1.0029 0.20017 0.2468 0.0
C326 C 1.00268 0.21835 0.2761 0.0
C327 C 1.00194 0.23392 0.24269 0.0
C328 C 0.02284 0.18893 0.25305 0.0
C329 C 0.98415 0.18884 0.25815 0.0
C330 C 1.00064 0.30409 0.28595 0.0
C331 C 0.99901 0.31324 0.33401 0.0
C332 C 0.99643 0.30272 0.37915 0.0
C333 C 0.99616 0.28341 0.37752 0.0
C334 C 0.99853 0.27428 0.33022 0.0
C335 C 0.99999 0.28439 0.28494 0.0
C336 C 1.00108 0.27154 0.23851 0.0
C337 C 1.00086 0.25229 0.2642 0.0
C338 C 0.9998 0.25435 0.31807 0.0
C339 C 0.0207 0.27473 0.20968 0.0
C340 C 0.98251 0.27535 0.20504 0.0
H341 H 0.00872 0.17951 0.34023 0.0
H342 H 0.00814 0.2165 0.50182 0.0
H343 H 0.97185 0.2319 0.43797 0.0
H344 H 0.97366 0.25434 0.41156 0.0
H345 H 0.98412 0.2493 0.47449 0.0
H346 H 0.03426 0.23912 0.42582 0.0
H347 H 0.01893 0.25023 0.47384 0.0
H348 H 0.02353 0.26112 0.41246 0.0
H349 H 1.00167 0.18075 0.15378 0.0
H350 H 0.00417 0.22982 0.05761 0.0
H351 H 0.00347 0.24964 0.13432 0.0
H352 H 0.03357 0.19206 0.22183 0.0
H353 H 0.02053 0.17365 0.25228 0.0
H354 H 0.03074 0.1925 0.28897 0.0
H355 H 0.97069 0.19617 0.24242 0.0
H356 H 0.98129 0.18705 0.29978 0.0
H357 H 0.98528 0.17482 0.24008 0.0
H358 H 0.01574 0.16429 0.42057 0.0
C359 C 0.00894 0.18811 0.37383 0.0
C360 C 0.29809 0.09098 0.1429 0.0
C361 C 0.31832 0.09412 0.13166 0.0
C362 C 0.33015 0.10203 0.17 0.0
C363 C 0.30259 0.10307 0.22954 0.0
C364 C 0.29044 0.09586 0.19218 0.0
C365 C 0.26944 0.09389 0.2126 0.0
H366 H 0.20751 0.10202 0.42333 0.0
C367 C 0.29109 0.1058 0.27735 0.0
C368 C 0.2714 0.10074 0.26828 0.0
H369 H 0.19153 0.08126 0.27375 0.0
H370 H 0.2248 0.08753 0.24133 0.0
H371 H 0.2461 0.07882 0.42642 0.0
H372 H 0.23321 0.13625 0.38982 0.0
H373 H 0.25529 0.13606 0.42577 0.0
H374 H 0.23305 0.12722 0.45447 0.0
H375 H 0.24187 0.09605 0.47536 0.0
H376 H 0.26632 0.09075 0.4503 0.0
C377 C 0.2641 0.07313 0.21019 0.0
C378 C 0.25537 0.10675 0.18078 0.0
C379 C 0.32839 0.11921 0.4412 0.0
C380 C 0.32274 0.11863 0.49331 0.0
C381 C 0.30247 0.11942 0.50595 0.0
C382 C 0.28808 0.11915 0.46698 0.0
C383 C 0.29412 0.11745 0.41512 0.0
C384 C 0.31396 0.11819 0.40299 0.0
C385 C 0.31794 0.1149 0.34675 0.0
C386 C 0.29719 0.11142 0.32713 0.0
C387 C 0.28341 0.11282 0.36726 0.0
C388 C 0.33171 0.09722 0.34202 0.0
C389 C 0.32654 0.13301 0.32377 0.0
C390 C 0.21102 0.09916 0.38327 0.0
C391 C 0.19693 0.09153 0.35081 0.0
C392 C 0.20224 0.08734 0.29934 0.0
C393 C 0.22153 0.09085 0.2808 0.0
C394 C 0.23573 0.09808 0.31463 0.0
C395 C 0.23013 0.10204 0.36494 0.0
C396 C 0.24695 0.10801 0.39767 0.0
C397 C 0.2635 0.10812 0.35857 0.0
C398 C 0.25725 0.10211 0.30957 0.0
C399 C 0.25054 0.09281 0.43995 0.0
C400 C 0.24195 0.12786 0.41849 0.0
H401 H 0.33259 0.1121 0.24544 0.0
H402 H 0.28857 0.08495 0.11421 0.0
H403 H 0.26137 0.12102 0.17798 0.0
H404 H 0.24055 0.10832 0.19843 0.0
H405 H 0.25366 0.10132 0.14101 0.0
H406 H 0.27644 0.06417 0.22574 0.0
H407 H 0.26134 0.06885 0.16975 0.0
H408 H 0.25095 0.06998 0.23351 0.0
H409 H 0.34387 0.11823 0.43022 0.0
H410 H 0.29782 0.11896 0.54592 0.0
H411 H 0.27289 0.11907 0.47906 0.0
H412 H 0.32768 0.08651 0.37111 0.0
H413 H 0.34746 0.10063 0.34849 0.0
H414 H 0.33055 0.09007 0.30463 0.0
H415 H 0.32273 0.14547 0.34766 0.0
H416 H 0.32034 0.13643 0.28518 0.0
H417 H 0.34296 0.13197 0.32109 0.0
H418 H 0.34575 0.10426 0.16322 0.0
C419 C 0.32246 0.10653 0.21826 0.0
C420 C 0.51489 0.28693 0.11996 0.0
C421 C 0.51555 0.30634 0.11072 0.0
C422 C 0.51875 0.31846 0.15207 0.0
C423 C 0.51854 0.29253 0.21182 0.0
C424 C 0.51666 0.28028 0.17119 0.0
C425 C 0.5164 0.26021 0.1901 0.0
H426 H 0.51743 0.2016 0.40002 0.0
C427 C 0.51836 0.28183 0.26037 0.0
C428 C 0.51758 0.26273 0.2485 0.0
H429 H 0.51485 0.18471 0.24087 0.0
H430 H 0.51575 0.21745 0.21341 0.0
H431 H 0.54891 0.23353 0.38963 0.0
H432 H 0.48554 0.23161 0.38867 0.0
H433 H 0.49043 0.25318 0.41652 0.0
H434 H 0.49929 0.23197 0.4477 0.0
H435 H 0.53426 0.22924 0.446 0.0
H436 H 0.54031 0.25259 0.42662 0.0
C437 C 0.53488 0.24972 0.16866 0.0
C438 C 0.49668 0.25166 0.17359 0.0
C439 C 0.51036 0.31695 0.42833 0.0
C440 C 0.50829 0.31114 0.47975 0.0
C441 C 0.51013 0.29211 0.49225 0.0
C442 C 0.51325 0.27888 0.45324 0.0
C443 C 0.51468 0.28488 0.40153 0.0
C444 C 0.51357 0.30367 0.39005 0.0
C445 C 0.51587 0.30762 0.33349 0.0
C446 C 0.51743 0.28792 0.31229 0.0
C447 C 0.51684 0.27482 0.35226 0.0
C448 C 0.53536 0.31831 0.3256 0.0
C449 C 0.49685 0.31832 0.31506 0.0
C450 C 0.51741 0.2049 0.35915 0.0
C451 C 0.51651 0.19076 0.32252 0.0
C452 C 0.51579 0.19554 0.26969 0.0
C453 C 0.51631 0.21447 0.25399 0.0
C454 C 0.51716 0.22856 0.29171 0.0
C455 C 0.51752 0.22343 0.34325 0.0
C456 C 0.5169 0.23965 0.37903 0.0
C457 C 0.51706 0.25558 0.34101 0.0
C458 C 0.51725 0.24933 0.28955 0.0
C459 C 0.53597 0.23877 0.4125 0.0
C460 C 0.49716 0.23914 0.40997 0.0
H461 H 0.52243 0.32175 0.23206 0.0
H462 H 0.51274 0.27734 0.08845 0.0
H463 H 0.48403 0.26148 0.182 0.0
H464 H 0.4936 0.23865 0.19456 0.0
H465 H 0.49665 0.24872 0.13155 0.0
H466 H 0.54829 0.2582 0.17363 0.0
H467 H 0.53314 0.24688 0.12684 0.0
H468 H 0.53805 0.23641 0.18887 0.0
H469 H 0.50978 0.33164 0.41816 0.0
H470 H 0.50905 0.28752 0.53199 0.0
H471 H 0.51436 0.26453 0.46497 0.0
H472 H 0.54591 0.31587 0.35805 0.0
H473 H 0.53242 0.33361 0.32276 0.0
H474 H 0.54365 0.31354 0.29096 0.0
H475 H 0.48344 0.31225 0.3327 0.0
H476 H 0.49438 0.31761 0.27315 0.0
H477 H 0.49713 0.33325 0.32635 0.0
H478 H 0.51954 0.33337 0.14547 0.0
C479 C 0.52036 0.31168 0.20234 0.0
O480 O 0.04873 0.98152 0.79989 0.0
Mg481 Mg 0.04213 0.98418 0.72126 0.0
O482 O 0.01686 0.98716 0.80079 0.0
Mg483 Mg 0.00608 0.00138 0.72555 0.0
O484 O 0.03767 0.01023 0.68741 0.0
O485 O 0.06626 0.9933 0.68716 0.0
O486 O 0.99512 0.01565 0.65096 0.0
O487 O 0.00903 0.0298 0.77185 0.0
Mg488 Mg 0.9692 0.01891 0.73457 0.0
O489 O 0.97434 0.99213 0.76141 0.0
O490 O 0.9637 0.02336 0.65625 0.0
O491 O 0.97851 0.04083 0.78154 0.0
O492 O 0.94502 0.00805 0.76424 0.0
C493 C 0.01527 0.96005 0.66606 0.0
C494 C 0.03259 0.98188 0.82422 0.0
C495 C 0.05633 0.00814 0.67374 0.0
C496 C 0.97934 0.02203 0.62989 0.0
C497 C 0.99685 0.04208 0.78999 0.0
C498 C 0.95548 0.99313 0.77383 0.0
O499 O 0.03327 0.96074 0.679 0.0
O500 O 0.00313 0.97312 0.67937 0.0
O501 O 0.44961 -0.00376 0.7521 0.0
Mg502 Mg 0.4652 0.97683 0.70295 0.0
O503 O 0.47451 0.01512 0.76743 0.0
Mg504 Mg 0.50136 0.00294 0.71764 0.0
O505 O 0.49224 0.97248 0.73535 0.0
O506 O 0.47035 0.94991 0.72818 0.0
O507 O 0.52795 0.99028 0.66704 0.0
O508 O 0.51916 -0.00236 0.79212 0.0
Mg509 Mg 0.53571 0.02483 0.73754 0.0
O510 O 0.51022 0.03438 0.70089 0.0
O511 O 0.55333 0.00742 0.68877 0.0
O512 O 0.5375 0.02035 0.81764 0.0
O513 O 0.53625 0.05202 0.71921 0.0
C514 C 0.47235 -0.00197 0.61097 0.0
C515 C 0.45647 0.01048 0.77444 0.0
C516 C 0.48711 0.95548 0.74517 0.0
C517 C 0.54632 0.99415 0.66288 0.0
C518 C 0.53055 0.00447 0.82573 0.0
C519 C 0.51905 0.05037 0.69833 0.0
O520 O 0.46628 0.98211 0.62337 0.0
O521 O 0.48309 0.00705 0.6422 0.0
O522 O 0.51705 0.47437 0.81468 0.0
Mg523 Mg 0.5303 0.48791 0.75005 0.0
O524 O 0.50327 0.46862 0.74183 0.0
Mg525 Mg 0.50466 0.50124 0.71479 0.0
O526 O 0.536 0.51507 0.74791 0.0
O527 O 0.55704 0.49302 0.77871 0.0
O528 O 0.50221 0.53198 0.67899 0.0
O529 O 0.49626 0.50929 0.79602 0.0
Mg530 Mg 0.46565 0.51626 0.72154 0.0
O531 O 0.47306 0.49092 0.68576 0.0
O532 O 0.47036 0.53917 0.67302 0.0
O533 O 0.46694 0.52245 0.80126 0.0
O534 O 0.44194 0.5016 0.70238 0.0
C535 C 0.53109 0.48021 0.6377 0.0
C536 C 0.50686 0.46366 0.78804 0.0
C537 C 0.55278 0.51035 0.7702 0.0
C538 C 0.48817 0.54307 0.66373 0.0
C539 C 0.48339 0.51827 0.82186 0.0
C540 C 0.45383 0.48946 0.68127 0.0
O541 O 0.53759 0.47408 0.68055 0.0
O542 O 0.51726 0.49257 0.63712 0.0
O543 O 0.96605 0.47777 0.80682 0.0
Mg544 Mg 0.97002 0.47811 0.72702 0.0
O545 O 0.98118 0.50379 0.79216 0.0
Mg546 Mg 1.00231 0.50155 0.72076 0.0
O547 O 0.99677 0.47008 0.69486 0.0
O548 O 0.97017 0.45199 0.70015 0.0
O549 O 0.02341 0.4993 0.64938 0.0
O550 O 0.02725 0.48845 0.77615 0.0
Mg551 Mg 0.03475 0.52513 0.71441 0.0
O552 O 0.00796 0.53302 0.74619 0.0
O553 O 0.03796 0.52559 0.63455 0.0
O554 O 0.05272 0.50597 0.75816 0.0
O555 O 0.03444 0.55136 0.7405 0.0
C556 C 0.95898 0.51097 0.66 0.0
C557 C 0.97015 0.49399 0.82089 0.0
C558 C 0.98833 0.45416 0.6865 0.0
C559 C 0.03414 0.50932 0.62047 0.0
C560 C 0.04561 0.49207 0.78144 0.0
C561 C 0.01628 0.54903 0.75394 0.0
O562 O 0.952 0.497 0.68313 0.0
O563 O 0.97731 0.51471 0.66539 0.0
H564 H 0.16786 0.11531 0.38645 0.0
H565 H 0.13997 0.10738 0.44287 0.0
H566 H 0.15607 0.049 0.42873 0.0
H567 H 0.18369 0.05688 0.37163 0.0
H568 H 0.10641 0.07791 0.42798 0.0
H569 H 0.15929 0.06604 0.58953 0.0
H570 H 0.16495 0.08025 0.53399 0.0
H571 H 0.16632 0.05526 0.52944 0.0
C572 C 0.16495 0.10076 0.39398 0.0
C573 C 0.17761 0.08665 0.3738 0.0
C574 C 0.14914 0.09627 0.42647 0.0
C575 C 0.146 0.07762 0.44014 0.0
C576 C 0.1582 0.06348 0.4185 0.0
H577 H 0.08962 0.00118 0.61885 0.0
H578 H 0.10874 0.02221 0.56738 0.0
C579 C 0.17382 0.06795 0.38547 0.0
C580 C 0.13092 0.07282 0.47956 0.0
H581 H 0.12696 0.05418 0.60034 0.0
C582 C 0.11077 0.073 0.46605 0.0
C583 C 0.13663 0.06683 0.52952 0.0
C584 C 0.15795 0.06719 0.54691 0.0
C585 C 0.09639 0.06586 0.49977 0.0
C586 C 0.10236 0.05851 0.54829 0.0
C587 C 0.12233 0.05972 0.56311 0.0
C588 C 0.08939 0.04633 0.57968 0.0
C589 C 0.07517 0.06508 0.48205 0.0
C590 C 0.07171 0.05274 0.60366 0.0
C591 C 0.06038 0.04045 0.63367 0.0
C592 C 0.06675 0.02171 0.64036 0.0
C593 C 0.08427 0.01553 0.61545 0.0
C594 C 0.09534 0.02759 0.58575 0.0
H595 H 0.07328 0.06984 0.44147 0.0
H596 H 0.06982 0.05062 0.48555 0.0
H597 H 0.06569 0.07416 0.50703 0.0
H598 H 0.06686 0.06721 0.59993 0.0
H599 H 0.04702 0.04564 0.65246 0.0
H600 H 0.48457 0.16844 0.32115 0.0
H601 H 0.479 0.14249 0.38146 0.0
H602 H 0.53946 0.1452 0.43358 0.0
H603 H 0.54504 0.17099 0.37353 0.0
H604 H 0.50597 0.10495 0.40938 0.0
H605 H 0.49686 0.1609 0.55629 0.0
H606 H 0.4929 0.16517 0.48827 0.0
H607 H 0.51762 0.16241 0.51301 0.0
C608 C 0.4969 0.16281 0.3436 0.0
C609 C 0.5153 0.17147 0.34229 0.0
C610 C 0.49365 0.14818 0.37841 0.0
C611 C 0.50877 0.14213 0.41222 0.0
C612 C 0.52762 0.14971 0.40779 0.0
H613 H 0.53595 0.08394 0.68334 0.0
H614 H 0.52872 0.10649 0.61564 0.0
C615 C 0.53086 0.16427 0.37312 0.0
C616 C 0.5045 0.1296 0.45616 0.0
H617 H 0.49933 0.12979 0.58713 0.0
C618 C 0.50417 0.11029 0.44822 0.0
C619 C 0.50217 0.13674 0.5066 0.0
C620 C 0.50226 0.15745 0.51689 0.0
C621 C 0.5027 0.09779 0.48999 0.0
C622 C 0.50106 0.1049 0.54087 0.0
C623 C 0.50045 0.12432 0.54826 0.0
C624 C 0.50295 0.09255 0.58702 0.0
C625 C 0.5042 0.0771 0.47949 0.0
C626 C 0.49019 0.07769 0.59579 0.0
C627 C 0.49445 0.06442 0.63457 0.0
C628 C 0.51145 0.066 0.66537 0.0
C629 C 0.52295 0.08197 0.65972 0.0
C630 C 0.51881 0.095 0.62092 0.0
H631 H 0.50918 0.07407 0.43947 0.0
H632 H 0.51472 0.07005 0.50667 0.0
H633 H 0.48944 0.07096 0.48488 0.0
H634 H 0.47738 0.07605 0.57149 0.0
H635 H 0.48497 0.0526 0.63904 0.0
H636 H 0.32917 0.44117 0.34806 0.0
H637 H 0.36041 0.45014 0.38812 0.0
H638 H 0.36033 0.40016 0.48156 0.0
H639 H 0.33052 0.39045 0.43844 0.0
H640 H 0.36324 0.45952 0.48166 0.0
H641 H 0.41719 0.40065 0.46121 0.0
H642 H 0.39459 0.40191 0.42412 0.0
H643 H 0.39467 0.39282 0.48918 0.0
C644 C 0.33641 0.43168 0.37516 0.0
C645 C 0.32722 0.41522 0.39042 0.0
C646 C 0.35416 0.43691 0.39868 0.0
C647 C 0.36296 0.42587 0.43814 0.0
C648 C 0.35442 0.40879 0.45054 0.0
H649 H 0.42071 0.47067 0.70369 0.0
H650 H 0.40044 0.4532 0.64369 0.0
C651 C 0.33711 0.40335 0.42614 0.0
C652 C 0.37916 0.4333 0.47103 0.0
H653 H 0.42293 0.42177 0.53199 0.0
C654 C 0.37644 0.45131 0.49164 0.0
C655 C 0.39642 0.42264 0.48509 0.0
C656 C 0.40095 0.40351 0.46326 0.0
C657 C 0.39011 0.45877 0.52617 0.0
C658 C 0.40692 0.44788 0.54149 0.0
C659 C 0.40997 0.43005 0.52039 0.0
C660 C 0.42109 0.45495 0.58021 0.0
C661 C 0.38642 0.47829 0.54631 0.0
C662 C 0.44001 0.46073 0.56541 0.0
C663 C 0.45184 0.47053 0.60009 0.0
C664 C 0.44476 0.47477 0.64978 0.0
C665 C 0.4265 0.46766 0.66554 0.0
C666 C 0.41486 0.45776 0.63124 0.0
H667 H 0.37491 0.48608 0.5236 0.0
H668 H 0.38131 0.47756 0.58693 0.0
H669 H 0.4003 0.48625 0.54552 0.0
H670 H 0.4451 0.45867 0.52617 0.0
H671 H 0.46573 0.47602 0.58677 0.0
H672 H 0.03331 0.33181 0.33371 0.0
H673 H 0.03902 0.35903 0.38825 0.0
H674 H 0.97609 0.36607 0.41218 0.0
H675 H 0.97037 0.33889 0.35791 0.0
H676 H 0.00697 0.40167 0.40361 0.0
H677 H 0.0188 0.34495 0.54924 0.0
H678 H 0.02811 0.34219 0.48437 0.0
H679 H 1.00196 0.34214 0.49599 0.0
C680 C 0.02066 0.33992 0.34785 0.0
C681 C 1.00139 0.33343 0.3412 0.0
C682 C 0.02395 0.35528 0.37961 0.0
C683 C 0.00798 0.36434 0.40461 0.0
C684 C 0.98858 0.35927 0.39302 0.0
H685 H 0.97594 0.41868 0.67578 0.0
H686 H 0.98619 0.3963 0.61045 0.0
C687 C 0.9853 0.34391 0.36143 0.0
C688 C 0.01144 0.37678 0.4489 0.0
H689 H 0.0175 0.37576 0.57965 0.0
C690 C 0.00965 0.39613 0.44203 0.0
C691 C 0.01468 0.36934 0.49888 0.0
C692 C 0.01601 0.34852 0.50809 0.0
C693 C 0.01027 0.40831 0.48434 0.0
C694 C 0.01312 0.40088 0.53472 0.0
C695 C 0.01563 0.38148 0.5411 0.0
C696 C 0.01026 0.41266 0.58138 0.0
C697 C 0.00657 0.42893 0.47496 0.0
C698 C 0.02125 0.42874 0.58955 0.0
C699 C 0.0152 0.4419 0.62678 0.0
C700 C 0.99818 0.43894 0.65656 0.0
C701 C 0.98877 0.42172 0.65242 0.0
C702 C 0.99469 0.40878 0.61515 0.0
H703 H 1.00097 0.43187 0.43539 0.0
H704 H 0.99563 0.43475 0.50302 0.0
H705 H 0.02064 0.43635 0.47986 0.0
H706 H 0.03384 0.4315 0.56528 0.0
H707 H 0.02311 0.45475 0.6302 0.0
H708 H 0.8117 0.94593 0.03396 0.0
H709 H 0.84045 0.95632 0.985 0.0
H710 H 0.87421 0.90782 0.03721 0.0
H711 H 0.84509 0.8971 0.08458 0.0
H712 H 0.87726 0.96547 0.00491 0.0
H713 H 0.87917 0.90181 0.884 0.0
H714 H 0.85925 0.90713 0.92838 0.0
H715 H 0.88225 0.89688 0.95144 0.0
C716 C 0.8255 0.93786 0.03635 0.0
C717 C 0.82639 0.92096 0.06392 0.0
C718 C 0.84186 0.94367 0.00788 0.0
C719 C 0.85943 0.93264 0.00629 0.0
C720 C 0.86071 0.91633 0.03663 0.0
H721 H 0.96837 0.97043 0.85393 0.0
H722 H 0.94679 0.95242 0.91138 0.0
C723 C 0.84424 0.91042 0.06463 0.0
C724 C 0.87603 0.93805 0.97169 0.0
H725 H 0.90476 0.92322 0.86991 0.0
C726 C 0.88339 0.95611 0.97587 0.0
C727 C 0.8838 0.92602 0.93274 0.0
C728 C 0.87559 0.90696 0.92337 0.0
C729 C 0.89823 0.96243 0.94257 0.0
C730 C 0.90623 0.95032 0.90454 0.0
C731 C 0.89897 0.93227 0.90012 0.0
C732 C 0.92036 0.95724 0.86544 0.0
C733 C 0.90473 0.98234 0.94661 0.0
C734 C 0.91284 0.96506 0.81968 0.0
C735 C 0.92504 0.97525 0.7873 0.0
C736 C 0.94508 0.97778 0.7998 0.0
C737 C 0.95308 0.96854 0.84322 0.0
C738 C 0.94073 0.95839 0.87612 0.0
H739 H 0.89756 0.98985 0.97938 0.0
H740 H 0.92105 0.98263 0.95143 0.0
H741 H 0.90094 0.98995 0.91036 0.0
H742 H 0.89719 0.96436 0.81076 0.0
H743 H 0.91845 0.98222 0.75405 0.0
H744 H 0.52597 0.82836 0.09274 0.0
H745 H 0.53182 0.85347 0.03053 0.0
H746 H 0.46981 0.86956 0.03602 0.0
H747 H 0.46393 0.84417 0.09752 0.0
H748 H 0.48505 0.8611 0.93583 0.0
H749 H 0.53282 0.91104 0.03829 0.0
H750 H 0.5396 0.88663 0.04269 0.0
H751 H 0.51712 0.89512 0.07244 0.0
C752 C 0.51383 0.8379 0.08262 0.0
C753 C 0.49463 0.8348 0.1011 0.0
C754 C 0.51714 0.85212 0.04673 0.0
C755 C 0.50129 0.8635 0.02896 0.0
C756 C 0.48227 0.86102 0.04951 0.0
H757 H 0.48351 0.96014 0.84704 0.0
H758 H 0.49134 0.93704 0.91419 0.0
C759 C 0.47895 0.84673 0.08518 0.0
C760 C 0.50403 0.87667 0.98533 0.0
H761 H 0.52519 0.91768 0.9515 0.0
C762 C 0.49398 0.87339 0.939 0.0
C763 C 0.51587 0.89255 0.98947 0.0
C764 C 0.52693 0.89672 0.0384 0.0
C765 C 0.4949 0.88588 0.89724 0.0
C766 C 0.50632 0.90207 0.90183 0.0
C767 C 0.51676 0.9051 0.94774 0.0
C768 C 0.50534 0.91712 0.86228 0.0
C769 C 0.48286 0.8821 0.84953 0.0
C770 C 0.51138 0.91394 0.81105 0.0
C771 C 0.50699 0.92726 0.7726 0.0
C772 C 0.49694 0.94403 0.78522 0.0
C773 C 0.49182 0.94753 0.83677 0.0
C774 C 0.49622 0.93431 0.87506 0.0
H775 H 0.47222 0.87076 0.85576 0.0
H776 H 0.47445 0.89488 0.83705 0.0
H777 H 0.49297 0.87783 0.81769 0.0
H778 H 0.51856 0.90082 0.8004 0.0
H779 H 0.51049 0.92405 0.73278 0.0
H780 H 0.6737 0.61435 0.0253 0.0
H781 H 0.64569 0.60588 0.97127 0.0
H782 H 0.64854 0.55012 0.03444 0.0
H783 H 0.67672 0.55854 0.08856 0.0
H784 H 0.64833 0.5782 0.89607 0.0
H785 H 0.58886 0.56324 0.03656 0.0
H786 H 0.61033 0.57643 0.05331 0.0
H787 H 0.61205 0.55137 0.05054 0.0
C788 C 0.66803 0.6004 0.02867 0.0
C789 C 0.67739 0.58711 0.06137 0.0
C790 C 0.65207 0.59557 0.99758 0.0
C791 C 0.64493 0.5774 0.99884 0.0
C792 C 0.65356 0.56433 0.03342 0.0
H793 H 0.59053 0.50353 0.80168 0.0
H794 H 0.61143 0.52355 0.85204 0.0
C795 C 0.6696 0.56917 0.06458 0.0
C796 C 0.62971 0.57169 0.9609 0.0
H797 H 0.5845 0.55174 0.95064 0.0
C798 C 0.63423 0.57272 0.90801 0.0
C799 C 0.61123 0.56469 0.97631 0.0
C800 C 0.6052 0.564 0.03225 0.0
C801 C 0.62123 0.56598 0.87051 0.0
C802 C 0.60325 0.55812 0.88618 0.0
C803 C 0.59826 0.55791 0.93873 0.0
C804 C 0.59111 0.54736 0.84984 0.0
C805 C 0.62705 0.56659 0.81439 0.0
C806 C 0.57293 0.55436 0.83032 0.0
C807 C 0.56089 0.54291 0.80035 0.0
C808 C 0.56666 0.5242 0.79101 0.0
C809 C 0.5854 0.51776 0.8085 0.0
C810 C 0.59744 0.52918 0.83746 0.0
H811 H 0.63982 0.57572 0.80756 0.0
H812 H 0.63119 0.55227 0.80133 0.0
H813 H 0.61432 0.57166 0.79053 0.0
H814 H 0.56788 0.56846 0.83924 0.0
H815 H 0.54682 0.54847 0.78645 0.0
H816 H 0.03356 0.68082 0.05275 0.0
H817 H 0.03301 0.6538 0.99624 0.0
H818 H 0.9795 0.6359 0.07035 0.0
H819 H 0.97935 0.66387 0.12463 0.0
H820 H 0.03268 0.61833 0.99284 0.0
H821 H 0.95867 0.64468 0.9288 0.0
H822 H 0.97361 0.65718 0.97379 0.0
H823 H 0.95893 0.63807 0.99553 0.0
C824 C 0.02223 0.67061 0.05872 0.0
C825 C 0.00646 0.67441 0.09282 0.0
C826 C 0.02174 0.65528 0.02581 0.0
C827 C 0.00568 0.64326 0.0273 0.0
C828 C 0.99156 0.64546 0.06691 0.0
H829 H 0.99058 0.54636 0.83425 0.0
H830 H 0.98381 0.57072 0.89898 0.0
C831 C 0.99177 0.66113 0.09902 0.0
C832 C 1.00296 0.62971 0.98467 0.0
H833 H 0.97049 0.61641 0.89099 0.0
C834 C 0.01903 0.61789 0.9709 0.0
C835 C 0.98534 0.6295 0.95466 0.0
C836 C 0.96825 0.64318 0.96349 0.0
C837 C 0.01787 0.60574 0.92885 0.0
C838 C 1.00005 0.60504 0.90041 0.0
C839 C 0.98397 0.6168 0.91369 0.0
C840 C 0.99848 0.59228 0.85608 0.0
C841 C 0.03585 0.59389 0.91429 0.0
C842 C 0.00782 0.59671 0.80955 0.0
C843 C 0.01178 0.5828 0.77318 0.0
C844 C 0.00629 0.56432 0.78271 0.0
C845 C 0.99483 0.56046 0.82632 0.0
C846 C 0.99104 0.57436 0.86316 0.0
H847 H 0.04788 0.59463 0.94336 0.0
H848 H 0.03177 0.5791 0.90962 0.0
H849 H 0.04169 0.59879 0.8767 0.0
H850 H 0.01357 0.6105 0.80337 0.0
H851 H 0.02049 0.58618 0.73949 0.0
H852 H 0.04447 0.16793 0.49733 0.0
H853 H 0.04012 0.13845 0.54234 0.0
H854 H 0.98148 0.15683 0.58892 0.0
H855 H 0.98571 0.18632 0.54338 0.0
H856 H 0.01832 0.11813 0.63529 0.0
H857 H 0.98013 0.12557 0.44477 0.0
H858 H 0.99985 0.14054 0.46303 0.0
H859 H 0.97591 0.14339 0.49248 0.0
C860 C 0.03124 0.1662 0.52035 0.0
C861 C 0.01512 0.17888 0.51559 0.0
C862 C 0.02877 0.14936 0.54613 0.0
C863 C 0.01022 0.14538 0.56695 0.0
C864 C 0.9958 0.15972 0.57226 0.0
H865 H 0.95056 0.04414 0.58463 0.0
H866 H 0.95872 0.07514 0.55473 0.0
C867 C 0.99824 0.17658 0.54628 0.0
C868 C 0.00391 0.126 0.56425 0.0
H869 H 0.98138 0.09604 0.48236 0.0
C870 C 0.01013 0.11326 0.60222 0.0
C871 C 0.99341 0.11983 0.52043 0.0
C872 C 0.98693 0.13296 0.47761 0.0
C873 C 0.00588 0.09433 0.59773 0.0
C874 C 0.99579 0.08815 0.55323 0.0
C875 C 0.98942 0.10093 0.51567 0.0
C876 C 0.99012 0.06869 0.54791 0.0
C877 C 0.0119 0.08115 0.64094 0.0
C878 C 0.00471 0.05442 0.54657 0.0
C879 C 1.00007 0.03663 0.56353 0.0
C880 C 0.981 0.03349 0.58308 0.0
C881 C 0.96559 0.04649 0.57201 0.0
C882 C 0.97024 0.06429 0.55522 0.0
H883 H 0.01604 0.08872 0.67649 0.0
H884 H 0.99971 0.07162 0.65045 0.0
H885 H 0.02491 0.0725 0.62851 0.0
H886 H 0.02005 0.05758 0.53902 0.0
H887 H 0.0121 0.02651 0.5695 0.0
H888 H 0.32025 0.0891 0.55828 0.0
H889 H 0.34874 0.06953 0.58359 0.0
H890 H 0.38803 0.11254 0.53471 0.0
H891 H 0.35953 0.13236 0.50978 0.0
H892 H 0.38415 0.07567 0.47235 0.0
H893 H 0.40071 0.06716 0.68209 0.0
H894 H 0.37527 0.0691 0.66095 0.0
H895 H 0.39074 0.08892 0.65602 0.0
C896 C 0.33486 0.09493 0.5561 0.0
C897 C 0.33777 0.11208 0.53106 0.0
C898 C 0.35115 0.08363 0.57023 0.0
C899 C 0.37035 0.08956 0.56005 0.0
C900 C 0.37323 0.1078 0.54258 0.0
H901 H 0.48153 0.03164 0.56808 0.0
H902 H 0.45609 0.05438 0.53913 0.0
C903 C 0.35696 0.11913 0.52864 0.0
C904 C 0.3866 0.0756 0.5553 0.0
H905 H 0.41904 0.04813 0.62398 0.0
C906 C 0.39193 0.06971 0.5054 0.0
C907 C 0.39624 0.06771 0.59864 0.0
C908 C 0.39059 0.07348 0.65263 0.0
C909 C 0.40693 0.0561 0.49777 0.0
C910 C 0.41682 0.04851 0.54102 0.0
C911 C 0.4114 0.05426 0.59093 0.0
C912 C 0.43287 0.0344 0.53624 0.0
C913 C 0.41215 0.04978 0.44398 0.0
C914 C 0.42838 0.01549 0.5387 0.0
C915 C 0.44282 0.00246 0.55483 0.0
C916 C 0.46162 0.00848 0.57007 0.0
C917 C 0.46693 0.02683 0.55856 0.0
C918 C 0.45249 0.03982 0.5421 0.0
H919 H 0.40314 0.05725 0.41413 0.0
H920 H 0.42809 0.0521 0.43645 0.0
H921 H 0.40979 0.03456 0.44057 0.0
H922 H 0.41326 0.01112 0.53373 0.0
H923 H 0.43836 0.98829 0.56204 0.0
H924 H 0.53229 0.3167 0.56177 0.0
H925 H 0.53704 0.34728 0.60066 0.0
H926 H 0.48476 0.36878 0.52216 0.0
H927 H 0.47979 0.33829 0.48465 0.0
H928 H 0.54538 0.37127 0.52391 0.0
H929 H 0.48617 0.4027 0.6447 0.0
H930 H 0.48886 0.37776 0.63593 0.0
H931 H 0.47561 0.39203 0.58918 0.0
C932 C 0.52115 0.32767 0.55567 0.0
C933 C 0.50596 0.32548 0.51956 0.0
C934 C 0.5239 0.34512 0.57769 0.0
C935 C 0.51143 0.3603 0.56357 0.0
C936 C 0.49445 0.35724 0.53402 0.0
H937 H 0.50943 0.47599 0.5499 0.0
H938 H 0.50931 0.44578 0.50746 0.0
C939 C 0.49167 0.33984 0.51227 0.0
C940 C 0.51884 0.37937 0.56575 0.0
H941 H 0.50426 0.4241 0.59094 0.0
C942 C 0.53656 0.38285 0.53927 0.0
C943 C 0.5072 0.39437 0.58515 0.0
C944 C 0.48851 0.39146 0.61575 0.0
C945 C 0.54251 0.40107 0.52959 0.0
C946 C 0.53044 0.41609 0.54718 0.0
C947 C 0.51311 0.41256 0.57545 0.0
C948 C 0.53646 0.43562 0.54362 0.0
C949 C 0.56142 0.40396 0.49993 0.0
C950 C 0.55335 0.44072 0.57097 0.0
C951 C 0.55371 0.45818 0.59388 0.0
C952 C 0.53681 0.47002 0.59111 0.0
C953 C 0.52233 0.46675 0.55379 0.0
C954 C 0.52222 0.44942 0.52968 0.0
H955 H 0.56447 0.3923 0.47271 0.0
H956 H 0.5609 0.41729 0.47793 0.0
H957 H 0.57399 0.40424 0.52746 0.0
H958 H 0.56463 0.43042 0.58195 0.0
H959 H 0.56544 0.46086 0.62119 0.0
H960 H 0.13662 0.37262 0.50754 0.0
H961 H 0.11216 0.39287 0.55024 0.0
H962 H 0.15879 0.42657 0.6091 0.0
H963 H 0.18316 0.40736 0.56447 0.0
H964 H 0.10331 0.41889 0.64413 0.0
H965 H 0.13608 0.45068 0.4678 0.0
H966 H 0.14001 0.42635 0.48364 0.0
H967 H 0.15281 0.44386 0.51879 0.0
C968 C 0.14177 0.38385 0.53142 0.0
C969 C 0.16165 0.38921 0.52926 0.0
C970 C 0.12775 0.39529 0.55633 0.0
C971 C 0.13379 0.41163 0.58042 0.0
C972 C 0.15395 0.41419 0.58942 0.0
H973 H 0.07242 0.51782 0.60153 0.0
H974 H 0.0981 0.4942 0.58362 0.0
C975 C 0.16794 0.40304 0.56364 0.0
C976 C 0.12027 0.42806 0.57907 0.0
H977 H 0.10914 0.46665 0.50569 0.0
C978 C 0.1046 0.42941 0.6142 0.0
C979 C 0.12209 0.44165 0.53953 0.0
C980 C 0.13856 0.44061 0.50001 0.0
C981 C 0.09057 0.44416 0.61085 0.0
C982 C 0.09206 0.45737 0.5703 0.0
C983 C 0.10797 0.45624 0.53596 0.0
C984 C 0.07744 0.4728 0.56443 0.0
C985 C 0.07437 0.4456 0.65093 0.0
C986 C 0.05761 0.46901 0.55399 0.0
C987 C 0.04282 0.4824 0.56467 0.0
C988 C 0.04794 0.49967 0.5852 0.0
C989 C 0.06801 0.5045 0.58634 0.0
C990 C 0.08275 0.49098 0.57661 0.0
H991 H 0.07806 0.43717 0.68587 0.0
H992 H 0.07158 0.46033 0.66266 0.0
H993 H 0.06048 0.44032 0.63437 0.0
H994 H 0.05355 0.45521 0.54214 0.0
H995 H 0.02745 0.47855 0.56231 0.0
H996 H 0.96034 0.83398 0.92921 0.0
H997 H 0.9611 0.86346 0.88192 0.0
H998 H 0.02411 0.85552 0.85978 0.0
H999 H 0.02328 0.82611 0.90675 0.0
H1000 H 0.98515 0.88224 0.9512 0.0
H1001 H 0.00921 0.89553 0.75064 0.0
H1002 H 0.99598 0.87494 0.76905 0.0
H1003 H 0.02229 0.87594 0.77927 0.0
C1004 C 0.97402 0.83792 0.91078 0.0
C1005 C 0.99182 0.82824 0.92206 0.0
C1006 C 0.97445 0.85471 0.88362 0.0
C1007 C 0.99273 0.86183 0.86867 0.0
C1008 C 0.00984 0.85025 0.87098 0.0
H1009 H 0.05969 0.95677 0.86457 0.0
H1010 H 0.04855 0.92647 0.8929 0.0
C1011 C 0.00941 0.83347 0.89811 0.0
C1012 C 0.99551 0.88203 0.87231 0.0
H1013 H 0.01968 0.91756 0.81524 0.0
C1014 C 0.99224 0.89018 0.92101 0.0
C1015 C 0.00499 0.89214 0.83325 0.0
C1016 C 0.00816 0.88424 0.77995 0.0
C1017 C 0.9994 0.90777 0.93274 0.0
C1018 C 0.00988 0.91739 0.8946 0.0
C1019 C 0.01211 0.90977 0.84492 0.0
C1020 C 0.01809 0.93582 0.90389 0.0
C1021 C 0.99657 0.91553 0.98631 0.0
C1022 C 0.00517 0.95137 0.90777 0.0
C1023 C 0.01161 0.96882 0.89231 0.0
C1024 C 0.03061 0.97032 0.87079 0.0
C1025 C 0.04468 0.95579 0.87895 0.0
C1026 C 0.0383 0.93837 0.89476 0.0
H1027 H 0.99198 0.90466 0.01421 0.0
H1028 H 0.01043 0.92176 1.00035 0.0
H1029 H 0.98485 0.92671 0.98537 0.0
H1030 H 0.98956 0.94967 0.9156 0.0
H1031 H 1.00073 0.98015 0.88854 0.0
H1032 H 0.64964 0.86885 0.90929 0.0
H1033 H 0.62369 0.8869 0.86353 0.0
H1034 H 0.6559 0.93723 0.88979 0.0
H1035 H 0.68222 0.91912 0.93095 0.0
H1036 H 0.60372 0.90765 0.92221 0.0
H1037 H 0.62762 0.9541 0.76692 0.0
H1038 H 0.64305 0.93452 0.78782 0.0
H1039 H 0.64433 0.95686 0.81957 0.0
C1040 C 0.65163 0.88357 0.90208 0.0
C1041 C 0.66773 0.89268 0.92354 0.0
C1042 C 0.63682 0.89392 0.87625 0.0
C1043 C 0.63767 0.9135 0.87361 0.0
C1044 C 0.65494 0.92218 0.88994 0.0
H1045 H 0.5631 0.01078 0.88629 0.0
H1046 H 0.58809 0.9866 0.90699 0.0
C1047 C 0.67001 0.91178 0.91398 0.0
C1048 C 0.6192 0.92497 0.86794 0.0
H1049 H 0.60156 0.96713 0.82416 0.0
C1050 C 0.60313 0.92046 0.89977 0.0
C1051 C 0.61833 0.94175 0.83904 0.0
C1052 C 0.63425 0.94691 0.80111 0.0
C1053 C 0.58684 0.93273 0.90609 0.0
C1054 C 0.5866 0.95001 0.87977 0.0
C1055 C 0.60214 0.95414 0.84584 0.0
C1056 C 0.56991 0.96367 0.88388 0.0
C1057 C 0.57039 0.92717 0.94194 0.0
C1058 C 0.55094 0.95862 0.86857 0.0
C1059 C 0.53655 0.97237 0.85816 0.0
C1060 C 0.54112 0.99133 0.86077 0.0
C1061 C 0.55917 -0.00372 0.88314 0.0
C1062 C 0.57355 0.98248 0.89444 0.0
H1063 H 0.57583 0.9172 0.972 0.0
H1064 H 0.56331 0.93944 0.96123 0.0
H1065 H 0.55897 0.92004 0.91913 0.0
H1066 H 0.54778 0.94426 0.85959 0.0
H1067 H 0.52284 0.96819 0.8412 0.0
H1068 H 0.45176 0.67032 0.96701 0.0
H1069 H 0.45645 0.63942 0.93089 0.0
H1070 H 0.50546 0.65861 0.83955 0.0
H1071 H 0.50159 0.68958 0.87933 0.0
H1072 H 0.4594 0.62025 0.84714 0.0
H1073 H 0.53501 0.62386 0.93338 0.0
H1074 H 0.51712 0.64282 0.94017 0.0
H1075 H 0.52933 0.63877 0.87936 0.0
C1076 C 0.46304 0.66812 0.93771 0.0
C1077 C 0.47674 0.68192 0.92698 0.0
C1078 C 0.46577 0.65045 0.91709 0.0
C1079 C 0.48196 0.64653 0.88456 0.0
C1080 C 0.49348 0.66122 0.86659 0.0
H1081 H 0.51605 0.53721 0.80675 0.0
H1082 H 0.52108 0.5684 0.83661 0.0
C1083 C 0.49105 0.67894 0.88842 0.0
C1084 C 0.48801 0.62679 0.8775 0.0
H1085 H 0.52303 0.59427 0.91612 0.0
C1086 C 0.47338 0.61458 0.86183 0.0
C1087 C 0.50638 0.61947 0.89647 0.0
C1088 C 0.52287 0.63185 0.91357 0.0
C1089 C 0.476 0.59532 0.86744 0.0
C1090 C 0.49379 0.58805 0.88957 0.0
C1091 C 0.50908 0.60008 0.90169 0.0
C1092 C 0.49746 0.56778 0.89277 0.0
C1093 C 0.45965 0.58295 0.84929 0.0
C1094 C 0.48399 0.55641 0.9187 0.0
C1095 C 0.48051 0.5385 0.90011 0.0
C1096 C 0.49146 0.53174 0.85799 0.0
C1097 C 0.50766 0.54187 0.83996 0.0
C1098 C 0.51058 0.55986 0.85696 0.0
H1099 H 0.44858 0.59066 0.82503 0.0
H1100 H 0.46582 0.57102 0.82664 0.0
H1101 H 0.45173 0.57732 0.88322 0.0
H1102 H 0.47417 0.56233 0.94774 0.0
H1103 H 0.46807 0.53088 0.91482 0.0
H1104 H 0.82017 0.59026 0.87166 0.0
H1105 H 0.84878 0.57191 0.8423 0.0
H1106 H 0.88727 0.61606 0.88692 0.0
H1107 H 0.85853 0.63428 0.91847 0.0
H1108 H 0.88346 0.57147 0.78627 0.0
H1109 H 0.89778 0.57651 0.99738 0.0
H1110 H 0.87547 0.58601 0.96816 0.0
H1111 H 0.89837 0.59808 0.96213 0.0
C1112 C 0.83458 0.59654 0.87258 0.0
C1113 C 0.83728 0.61345 0.89845 0.0
C1114 C 0.85098 0.58595 0.85608 0.0
C1115 C 0.87013 0.59234 0.86467 0.0
C1116 C 0.87257 0.61069 0.88164 0.0
H1117 H 0.9778 0.52369 0.88203 0.0
H1118 H 0.95299 0.54876 0.89761 0.0
C1119 C 0.85617 0.62119 0.89902 0.0
C1120 C 0.88679 0.57855 0.86629 0.0
H1121 H 0.91763 0.55531 0.95078 0.0
C1122 C 0.89112 0.56806 0.82201 0.0
C1123 C 0.8965 0.57398 0.91341 0.0
C1124 C 0.89174 0.5841 0.96312 0.0
C1125 C 0.90481 0.553 0.82359 0.0
C1126 C 0.9141 0.5482 0.87101 0.0
C1127 C 0.91026 0.55901 0.91483 0.0
C1128 C 0.92814 0.53215 0.87526 0.0
C1129 C 0.90917 0.54238 0.77446 0.0
C1130 C 0.92208 0.51417 0.86299 0.0
C1131 C 0.93622 0.50006 0.8534 0.0
C1132 C 0.95649 0.50396 0.85597 0.0
C1133 C 0.96226 0.52088 0.87741 0.0
C1134 C 0.94814 0.53508 0.88638 0.0
H1135 H 0.90484 0.55064 0.73967 0.0
H1136 H 0.92516 0.53842 0.77155 0.0
H1137 H 0.90059 0.5294 0.77433 0.0
H1138 H 0.90657 0.51151 0.8563 0.0
H1139 H 0.93128 0.487 0.83773 0.0
H1140 H 0.03244 0.19861 0.02974 0.0
H1141 H 0.0362 0.17274 0.96782 0.0
H1142 H 0.97847 0.15355 0.01056 0.0
H1143 H 0.97477 0.17919 0.07213 0.0
H1144 H 0.03485 0.13359 0.99585 0.0
H1145 H 0.97733 0.15304 0.85147 0.0
H1146 H 0.98734 0.16973 0.89576 0.0
H1147 H 0.96852 0.15413 0.91676 0.0
C1148 C 0.02034 0.18919 0.02452 0.0
C1149 C 0.00318 0.19104 0.05498 0.0
C1150 C 0.02258 0.17432 0.98965 0.0
C1151 C 0.00755 0.16127 0.98422 0.0
C1152 C 0.99012 0.16358 0.01337 0.0
H1153 H 0.98062 0.05433 0.87919 0.0
H1154 H 0.98743 0.08316 0.92533 0.0
C1155 C 0.98799 0.17826 0.04842 0.0
C1156 C 0.0103 0.14452 0.95086 0.0
H1157 H 0.98822 0.12088 0.8533 0.0
C1158 C 0.02496 0.13097 0.96391 0.0
C1159 C 0.99736 0.14106 0.90928 0.0
C1160 C 0.98186 0.15533 0.8921 0.0
C1161 C 0.02626 0.11368 0.9382 0.0
C1162 C 0.01268 0.10995 0.8984 0.0
C1163 C 0.99864 0.12379 0.88387 0.0
C1164 C 0.01124 0.09117 0.87488 0.0
C1165 C 0.04144 0.09911 0.9552 0.0
C1166 C 0.0228 0.08584 0.83199 0.0
C1167 C 0.0191 0.06914 0.8058 0.0
C1168 C 0.00355 0.05781 0.82177 0.0
C1169 C 0.99262 0.06286 0.86595 0.0
C1170 C 0.9965 0.0793 0.89236 0.0
H1171 H 0.05167 0.10448 0.98487 0.0
H1172 H 0.03378 0.08688 0.97134 0.0
H1173 H 0.05025 0.09418 0.92149 0.0
H1174 H 0.03413 0.09493 0.81763 0.0
H1175 H 0.02757 0.06566 0.7715 0.0
H1176 H 0.34308 0.11484 0.07272 0.0
H1177 H 0.36594 0.10355 0.00589 0.0
H1178 H 0.33957 0.04954 0.01203 0.0
H1179 H 0.31684 0.06067 0.08014 0.0
H1180 H 0.39339 0.07212 0.02452 0.0
H1181 H 0.34527 0.06201 0.85399 0.0
H1182 H 0.33844 0.07749 0.9063 0.0
H1183 H 0.33613 0.05273 0.91376 0.0
C1184 C 0.34185 0.10064 0.05916 0.0
C1185 C 0.32819 0.0886 0.08215 0.0
C1186 C 0.355 0.09421 0.02101 0.0
C1187 C 0.3546 0.07568 0.00406 0.0
C1188 C 0.34009 0.06395 0.02426 0.0
H1189 H 0.42151 -0.00051 0.81539 0.0
H1190 H 0.39849 0.01691 0.87036 0.0
C1191 C 0.32698 0.07035 0.06294 0.0
C1192 C 0.37035 0.06825 0.96858 0.0
H1193 H 0.37785 0.04881 0.84986 0.0
C1194 C 0.39006 0.06713 0.98614 0.0
C1195 C 0.36604 0.06196 0.91839 0.0
C1196 C 0.34537 0.06371 0.89656 0.0
C1197 C 0.40537 0.05904 0.95587 0.0
C1198 C 0.40094 0.05216 0.90613 0.0
C1199 C 0.38131 0.05393 0.88801 0.0
C1200 C 0.41591 0.04173 0.87377 0.0
C1201 C 0.42594 0.05721 0.97837 0.0
C1202 C 0.43367 0.04973 0.85724 0.0
C1203 C 0.44715 0.03962 0.82575 0.0
C1204 C 0.44298 0.0214 0.80957 0.0
C1205 C 0.42523 0.01351 0.82651 0.0
C1206 C 0.41196 0.0235 0.8581 0.0
H1207 H 0.42594 0.0594 0.02077 0.0
H1208 H 0.4327 0.04324 0.97012 0.0
H1209 H 0.43543 0.06788 0.96064 0.0
H1210 H 0.43697 0.0639 0.86787 0.0
H1211 H 0.4606 0.04618 0.81327 0.0
H1212 H 0.54299 0.31416 0.03751 0.0
H1213 H 0.53886 0.33752 0.9683 0.0
H1214 H 0.4766 0.34312 0.00366 0.0
H1215 H 0.48072 0.31979 0.07267 0.0
H1216 H 0.4934 0.34491 0.8838 0.0
H1217 H 0.52182 0.39296 0.03337 0.0
H1218 H 0.53359 0.37023 0.02612 0.0
H1219 H 0.50876 0.37218 0.05039 0.0
C1220 C 0.52828 0.31971 0.02867 0.0
C1221 C 0.51208 0.31492 0.05947 0.0
C1222 C 0.52595 0.33314 0.98949 0.0
C1223 C 0.50741 0.34201 0.98086 0.0
C1224 C 0.49096 0.33627 0.00924 0.0
H1225 H 0.48754 0.45564 0.87662 0.0
H1226 H 0.485 0.42507 0.91821 0.0
C1227 C 0.49328 0.32286 0.04837 0.0
C1228 C 0.50582 0.35912 0.94851 0.0
H1229 H 0.5142 0.40579 0.95254 0.0
C1230 C 0.49793 0.35827 0.89855 0.0
C1231 C 0.51147 0.37651 0.9683 0.0
C1232 C 0.51933 0.37823 0.02253 0.0
C1233 C 0.49559 0.37445 0.86769 0.0
C1234 C 0.50162 0.39188 0.88717 0.0
C1235 C 0.50949 0.39256 0.93735 0.0
C1236 C 0.50003 0.40973 0.8571 0.0
C1237 C 0.48623 0.37268 0.8152 0.0
C1238 C 0.50861 0.41138 0.80782 0.0
C1239 C 0.50939 0.42883 0.78324 0.0
C1240 C 0.50219 0.445 0.80821 0.0
C1241 C 0.4931 0.44333 0.85656 0.0
C1242 C 0.49177 0.42587 0.8804 0.0
H1243 H 0.47675 0.36028 0.81318 0.0
H1244 H 0.47708 0.38529 0.80514 0.0
H1245 H 0.49807 0.37088 0.7858 0.0
H1246 H 0.51563 0.39939 0.78942 0.0
H1247 H 0.51682 0.42985 0.74632 0.0
H1248 H 0.16439 0.39567 0.089 0.0
H1249 H 0.13855 0.40465 0.02674 0.0
H1250 H 0.16762 0.45638 0.99754 0.0
H1251 H 0.19355 0.44753 0.06036 0.0
H1252 H 0.12322 0.45672 0.03299 0.0
H1253 H 0.14082 0.41256 0.86179 0.0
H1254 H 0.14344 0.40266 0.92556 0.0
H1255 H 0.16003 0.42023 0.9047 0.0
C1256 C 0.1655 0.40884 0.06869 0.0
C1257 C 0.18101 0.42096 0.08004 0.0
C1258 C 0.15071 0.41392 0.033 0.0
C1259 C 0.15107 0.43122 0.00762 0.0
C1260 C 0.16704 0.44296 0.01676 0.0
H1261 H 0.08535 0.4871 0.76981 0.0
H1262 H 0.10879 0.47018 0.82554 0.0
C1263 C 0.18195 0.43783 0.05235 0.0
C1264 C 0.13401 0.43768 0.97493 0.0
H1265 H 0.11255 0.43252 0.85657 0.0
C1266 C 0.12081 0.45139 0.99448 0.0
C1267 C 0.13075 0.43051 0.92505 0.0
C1268 C 0.14446 0.4157 0.90257 0.0
C1269 C 0.10474 0.4585 0.965 0.0
C1270 C 0.10172 0.45172 0.91443 0.0
C1271 C 0.11474 0.43768 0.89535 0.0
C1272 C 0.08666 0.46051 0.87885 0.0
C1273 C 0.09152 0.4737 0.98761 0.0
C1274 C 0.06616 0.46036 0.88921 0.0
C1275 C 0.05254 0.47003 0.85684 0.0
C1276 C 0.05923 0.48017 0.8139 0.0
C1277 C 0.07967 0.47969 0.80292 0.0
C1278 C 0.09314 0.46991 0.83468 0.0
H1279 H 0.09788 0.47964 0.02326 0.0
H1280 H 0.08894 0.48516 0.95924 0.0
H1281 H 0.07695 0.46784 0.99747 0.0
H1282 H 0.06072 0.45299 0.92265 0.0
H1283 H 0.03692 0.47006 0.86633 0.0
H1284 H 0.9761 0.80524 0.41918 0.0
H1285 H 0.97294 0.8309 0.48202 0.0
H1286 H 0.02622 0.85458 0.42178 0.0
H1287 H 0.02943 0.82915 0.3595 0.0
H1288 H 0.00376 0.84722 0.55858 0.0
H1289 H 0.97832 0.89449 0.40019 0.0
H1290 H 0.97653 0.8694 0.39695 0.0
H1291 H 0.99989 0.88011 0.38593 0.0
C1292 C 0.98742 0.81563 0.42056 0.0
C1293 C 1.003 0.81525 0.38448 0.0
C1294 C 0.98553 0.83034 0.45612 0.0
C1295 C 0.99918 0.84479 0.45592 0.0
C1296 C 0.0154 0.8437 0.42215 0.0
H1297 H 0.03472 0.94545 0.5839 0.0
H1298 H 0.02661 0.91781 0.53396 0.0
C1299 C 0.01728 0.82912 0.3868 0.0
C1300 C 0.99614 0.86171 0.48823 0.0
H1301 H 0.98865 0.90896 0.47801 0.0
C1302 C 1.00003 0.86068 0.54134 0.0
C1303 C 0.99121 0.87923 0.46557 0.0
C1304 C 0.98607 0.88097 0.4091 0.0
C1305 C 1.00029 0.87692 0.57176 0.0
C1306 C 0.99642 0.89455 0.54844 0.0
C1307 C 0.99159 0.89544 0.49584 0.0
C1308 C 0.99984 0.91223 0.57644 0.0
C1309 C 0.00577 0.87531 0.62803 0.0
C1310 C 0.98713 0.9186 0.61602 0.0
C1311 C 0.99156 0.9347 0.64411 0.0
C1312 C 0.00897 0.94435 0.63358 0.0
C1313 C 0.02131 0.93816 0.59312 0.0
C1314 C 0.01668 0.92241 0.5645 0.0
H1315 H 0.01014 0.86079 0.63924 0.0
H1316 H 0.01821 0.88459 0.63687 0.0
H1317 H 0.99293 0.87992 0.65202 0.0
H1318 H 0.974 0.91098 0.62566 0.0
H1319 H 0.98186 0.93916 0.67525 0.0
H1320 H 0.66272 0.89425 0.35982 0.0
H1321 H 0.63672 0.90536 0.41892 0.0
H1322 H 0.66764 0.95653 0.44044 0.0
H1323 H 0.69342 0.94576 0.38011 0.0
H1324 H 0.63538 0.91777 0.5214 0.0
H1325 H 0.61342 0.97459 0.38569 0.0
H1326 H 0.62985 0.95542 0.36753 0.0
H1327 H 0.63913 0.97474 0.40339 0.0
C1328 C 0.66407 0.90786 0.3773 0.0
C1329 C 0.68006 0.91925 0.36438 0.0
C1330 C 0.6492 0.91414 0.41134 0.0
C1331 C 0.64991 0.93199 0.43321 0.0
C1332 C 0.66651 0.94288 0.42314 0.0
H1333 H 0.58239 0.00473 0.6285 0.0
H1334 H 0.60554 0.988 0.57224 0.0
C1335 C 0.6814 0.9366 0.38907 0.0
C1336 C 0.63289 0.9396 0.46429 0.0
H1337 H 0.59906 0.97599 0.46946 0.0
C1338 C 0.62733 0.93042 0.50989 0.0
C1339 C 0.62207 0.9559 0.44882 0.0
C1340 C 0.62624 0.96565 0.39843 0.0
C1341 C 0.61199 0.93767 0.54167 0.0
C1342 C 0.60181 0.95444 0.52724 0.0
C1343 C 0.60692 0.9632 0.48074 0.0
C1344 C 0.58713 0.96413 0.56179 0.0
C1345 C 0.60728 0.92776 0.59142 0.0
C1346 C 0.56878 0.95642 0.57441 0.0
C1347 C 0.55525 0.96612 0.6067 0.0
C1348 C 0.55992 0.98363 0.62722 0.0
C1349 C 0.57826 0.99124 0.61397 0.0
C1350 C 0.59158 0.98169 0.58158 0.0
H1351 H 0.61851 0.91665 0.60097 0.0
H1352 H 0.60639 0.93784 0.62381 0.0
H1353 H 0.59264 0.92123 0.58793 0.0
H1354 H 0.56487 0.943 0.55902 0.0
H1355 H 0.54128 0.95985 0.61601 0.0
H1356 H 0.52931 0.68813 0.37891 0.0
H1357 H 0.53193 0.66266 0.44236 0.0
H1358 H 0.4685 0.66518 0.46227 0.0
H1359 H 0.4659 0.69052 0.39855 0.0
H1360 H 0.51862 0.65468 0.54683 0.0
H1361 H 0.48133 0.61322 0.39737 0.0
H1362 H 0.49127 0.63586 0.38428 0.0
H1363 H 0.4676 0.63402 0.41541 0.0
C1364 C 0.51608 0.68388 0.39892 0.0
C1365 C 0.49744 0.69149 0.38463 0.0
C1366 C 0.51755 0.66917 0.43468 0.0
C1367 C 0.50038 0.66176 0.45624 0.0
C1368 C 0.48193 0.67054 0.44561 0.0
H1369 H 0.46114 0.56885 0.62732 0.0
H1370 H 0.46692 0.59683 0.57691 0.0
C1371 C 0.48046 0.68523 0.4099 0.0
C1372 C 0.50139 0.64369 0.48479 0.0
H1373 H 0.48491 0.59909 0.48016 0.0
C1374 C 0.51139 0.64247 0.53223 0.0
C1375 C 0.49238 0.62762 0.46498 0.0
C1376 C 0.48272 0.62761 0.41247 0.0
C1377 C 0.51153 0.62591 0.56185 0.0
C1378 C 0.50157 0.61017 0.54324 0.0
C1379 C 0.49238 0.6112 0.4947 0.0
C1380 C 0.4988 0.5931 0.57517 0.0
C1381 C 0.52163 0.6256 0.61371 0.0
C1382 C 0.51485 0.5815 0.59104 0.0
C1383 C 0.5116 0.5653 0.62032 0.0
C1384 C 0.49223 0.5604 0.63401 0.0
C1385 C 0.47629 0.57211 0.61782 0.0
C1386 C 0.47954 0.58817 0.58878 0.0
H1387 H 0.52576 0.63978 0.62622 0.0
H1388 H 0.51189 0.61949 0.64347 0.0
H1389 H 0.53535 0.61675 0.61145 0.0
H1390 H 0.52984 0.58482 0.58022 0.0
H1391 H 0.5242 0.55655 0.63177 0.0
H1392 H 0.8143 0.56125 0.36689 0.0
H1393 H 0.83662 0.55121 0.43712 0.0
H1394 H 0.87107 0.60031 0.41326 0.0
H1395 H 0.84794 0.6111 0.34746 0.0
H1396 H 0.87247 0.54067 0.42688 0.0
H1397 H 0.87539 0.59988 0.56199 0.0
H1398 H 0.85681 0.59898 0.51224 0.0
H1399 H 0.8812 0.60734 0.498 0.0
C1400 C 0.82609 0.57028 0.37835 0.0
C1401 C 0.82944 0.58685 0.35092 0.0
C1402 C 0.83907 0.56442 0.41811 0.0
C1403 C 0.85574 0.57493 0.43107 0.0
C1404 C 0.85825 0.59203 0.40565 0.0
H1405 H 0.96768 0.53534 0.58 0.0
H1406 H 0.94377 0.55234 0.52358 0.0
C1407 C 0.84505 0.59809 0.36716 0.0
C1408 C 0.87159 0.5671 0.46634 0.0
H1409 H 0.9025 0.57746 0.5667 0.0
C1410 C 0.87881 0.54876 0.45768 0.0
C1411 C 0.8803 0.57757 0.5065 0.0
C1412 C 0.87286 0.59695 0.5205 0.0
C1413 C 0.89422 0.54069 0.48757 0.0
C1414 C 0.90296 0.55118 0.52707 0.0
C1415 C 0.896 0.56953 0.53578 0.0
C1416 C 0.91779 0.54244 0.56295 0.0
C1417 C 0.901 0.52082 0.47729 0.0
C1418 C 0.91115 0.53153 0.60405 0.0
C1419 C 0.92464 0.5218 0.6358 0.0
C1420 C 0.94523 0.52276 0.62757 0.0
C1421 C 0.95197 0.53428 0.58744 0.0
C1422 C 0.93833 0.54399 0.5552 0.0
H1423 H 0.89416 0.5151 0.44197 0.0
H1424 H 0.91738 0.51999 0.47315 0.0
H1425 H 0.897 0.5119 0.5106 0.0
H1426 H 0.89542 0.5302 0.61089 0.0
H1427 H 0.91885 0.51332 0.66668 0.0
loop_
_geom_bond_atom_site_label_1
_geom_bond_atom_site_label_2
_geom_bond_distance
_geom_bond_site_symmetry_2
_ccdc_geom_bond_type
C0 C1 1.391 . S
C0 C4 1.391 . S
C0 H42 0.948 . S
C1 C0 1.391 . S
C1 C2 1.391 . S
C2 C1 1.391 . S
C2 H58 0.947 . S
C2 C59 1.392 . S
C3 C4 1.391 . S
C3 C7 1.397 . S
C3 C59 1.419 . S
C4 C0 1.391 . S
C4 C3 1.391 . S
C4 C5 1.399 . S
C5 C4 1.399 . S
C5 C8 1.396 . S
C5 C17 1.453 . S
C5 C18 1.684 . S
H6 C30 0.948 1_556 S
C7 C3 1.397 . S
C7 C8 1.394 . S
C7 C26 1.723 . S
C8 C5 1.396 . S
C8 C7 1.394 . S
C8 C38 1.723 . S
H9 C32 0.947 . S
H10 C33 0.948 . S
H11 C39 0.982 . S
H12 C40 0.979 . S
H13 C40 0.980 . S
H14 C40 0.983 . S
H15 C39 0.979 . S
H16 C39 0.977 . S
C17 C5 1.453 . S
C17 H46 0.982 . S
C17 H47 0.979 . S
C17 H48 0.977 . S
C18 C5 1.684 . S
C18 H43 0.979 . S
C18 H44 0.980 . S
C18 H45 0.983 . S
C19 C20 1.391 . S
C19 C24 1.391 1_556 S
C19 H49 0.948 1_556 S
C20 C19 1.391 . S
C20 C21 1.391 . S
C21 C20 1.391 . S
C21 C22 1.392 . S
C21 H50 0.947 . S
C22 C21 1.392 . S
C22 C23 1.419 1_556 S
C22 H51 0.948 . S
C23 C22 1.419 1_554 S
C23 C24 1.391 . S
C23 C27 1.397 . S
C24 C19 1.391 1_554 S
C24 C23 1.391 . S
C24 C25 1.399 . S
C25 C24 1.399 . S
C25 C26 1.396 . S
C25 C28 1.453 . S
C25 C29 1.684 . S
C26 C7 1.723 . S
C26 C25 1.396 . S
C26 C27 1.394 . S
C27 C23 1.397 . S
C27 C26 1.394 . S
C27 C37 1.723 . S
C28 C25 1.453 . S
C28 H52 0.982 . S
C28 H53 0.979 . S
C28 H54 0.977 . S
C29 C25 1.684 . S
C29 H55 0.979 . S
C29 H56 0.980 . S
C29 H57 0.983 . S
C30 H6 0.948 1_554 S
C30 C31 1.391 . S
C30 C35 1.391 . S
C31 C30 1.391 . S
C31 C32 1.391 . S
C32 H9 0.947 . S
C32 C31 1.391 . S
C32 C33 1.392 . S
C33 H10 0.948 . S
C33 C32 1.392 . S
C33 C34 1.419 . S
C34 C33 1.419 . S
C34 C35 1.391 . S
C34 C38 1.397 . S
C35 C30 1.391 . S
C35 C34 1.391 . S
C35 C36 1.399 . S
C36 C35 1.399 . S
C36 C37 1.396 . S
C36 C39 1.453 1_554 S
C36 C40 1.684 1_554 S
C37 C27 1.723 . S
C37 C36 1.396 . S
C37 C38 1.394 . S
C38 C8 1.723 . S
C38 C34 1.397 . S
C38 C37 1.394 . S
C39 H11 0.982 . S
C39 H15 0.979 . S
C39 H16 0.977 . S
C39 C36 1.453 1_556 S
C40 H12 0.979 . S
C40 H13 0.980 . S
C40 H14 0.983 . S
C40 C36 1.684 1_556 S
H41 C59 0.948 . S
H42 C0 0.948 . S
H43 C18 0.979 . S
H44 C18 0.980 . S
H45 C18 0.983 . S
H46 C17 0.982 . S
H47 C17 0.979 . S
H48 C17 0.977 . S
H49 C19 0.948 1_554 S
H50 C21 0.947 . S
H51 C22 0.948 . S
H52 C28 0.982 . S
H53 C28 0.979 . S
H54 C28 0.977 . S
H55 C29 0.979 . S
H56 C29 0.980 . S
H57 C29 0.983 . S
H58 C2 0.947 . S
C59 C2 1.392 . S
C59 C3 1.419 . S
C59 H41 0.948 . S
C60 C61 1.391 . S
C60 C64 1.391 1_556 S
C60 H102 0.948 . S
C61 C60 1.391 . S
C61 C62 1.391 1_556 S
C62 C61 1.391 1_554 S
C62 H118 0.947 . S
C62 C119 1.392 . S
C63 C64 1.391 . S
C63 C67 1.397 1_655 S
C63 C119 1.419 . S
C64 C60 1.391 1_554 S
C64 C63 1.391 . S
C64 C65 1.399 . S
C65 C64 1.399 . S
C65 C68 1.389 1_655 S
C65 C77 1.453 1_654 S
C65 C78 1.684 1_554 S
H66 C90 0.948 . S
C67 C63 1.397 1_455 S
C67 C68 1.394 . S
C67 C86 1.722 . S
C68 C65 1.389 1_455 S
C68 C67 1.394 . S
C68 C98 1.720 . S
H69 C92 0.947 1_556 S
H70 C93 0.948 . S
H71 C99 0.982 . S
H72 C100 0.979 . S
H73 C100 0.980 . S
H74 C100 0.983 . S
H75 C99 0.979 . S
H76 C99 0.977 . S
C77 C65 1.453 1_456 S
C77 H106 0.982 . S
C77 H107 0.979 . S
C77 H108 0.977 . S
C78 C65 1.684 1_556 S
C78 H103 0.979 . S
C78 H104 0.980 . S
C78 H105 0.983 . S
C79 C80 1.391 . S
C79 C84 1.391 . S
C79 H109 0.948 . S
C80 C79 1.391 . S
C80 C81 1.391 . S
C81 C80 1.391 . S
C81 C82 1.392 . S
C81 H110 0.947 . S
C82 C81 1.392 . S
C82 C83 1.419 . S
C82 H111 0.948 . S
C83 C82 1.419 . S
C83 C84 1.391 . S
C83 C87 1.397 1_655 S
C84 C79 1.391 . S
C84 C83 1.391 . S
C84 C85 1.399 . S
C85 C84 1.399 . S
C85 C86 1.389 1_655 S
C85 C88 1.453 1_655 S
C85 C89 1.684 . S
C86 C67 1.722 . S
C86 C85 1.389 1_455 S
C86 C87 1.391 . S
C87 C83 1.397 1_455 S
C87 C86 1.391 . S
C87 C97 1.723 . S
C88 C85 1.453 1_455 S
C88 H112 0.982 . S
C88 H113 0.979 . S
C88 H114 0.977 . S
C89 C85 1.684 . S
C89 H115 0.979 . S
C89 H116 0.980 . S
C89 H117 0.983 . S
C90 H66 0.948 . S
C90 C91 1.391 . S
C90 C95 1.391 . S
C91 C90 1.391 . S
C91 C92 1.391 . S
C92 H69 0.947 1_554 S
C92 C91 1.391 . S
C92 C93 1.392 . S
C93 H70 0.948 . S
C93 C92 1.392 . S
C93 C94 1.419 . S
C94 C93 1.419 . S
C94 C95 1.391 . S
C94 C98 1.397 1_655 S
C95 C90 1.391 . S
C95 C94 1.391 . S
C95 C96 1.399 . S
C96 C95 1.399 . S
C96 C97 1.386 1_655 S
C96 C99 1.453 1_655 S
C96 C100 1.684 . S
C97 C87 1.723 . S
C97 C96 1.386 1_455 S
C97 C98 1.393 . S
C98 C68 1.720 . S
C98 C94 1.397 1_455 S
C98 C97 1.393 . S
C99 H71 0.982 . S
C99 H75 0.979 . S
C99 H76 0.977 . S
C99 C96 1.453 1_455 S
C100 H72 0.979 . S
C100 H73 0.980 . S
C100 H74 0.983 . S
C100 C96 1.684 . S
H101 C119 0.948 . S
H102 C60 0.948 . S
H103 C78 0.979 . S
H104 C78 0.980 . S
H105 C78 0.983 . S
H106 C77 0.982 . S
H107 C77 0.979 . S
H108 C77 0.977 . S
H109 C79 0.948 . S
H110 C81 0.947 . S
H111 C82 0.948 . S
H112 C88 0.982 . S
H113 C88 0.979 . S
H114 C88 0.977 . S
H115 C89 0.979 . S
H116 C89 0.980 . S
H117 C89 0.983 . S
H118 C62 0.947 . S
C119 C62 1.392 . S
C119 C63 1.419 . S
C119 H101 0.948 . S
C120 C121 1.391 . S
C120 C124 1.391 . S
C120 H162 0.948 . S
C121 C120 1.391 . S
C121 C122 1.391 . S
C122 C121 1.391 . S
C122 H178 0.947 1_554 S
C122 C179 1.392 . S
C123 C124 1.391 . S
C123 C127 1.397 . S
C123 C179 1.419 . S
C124 C120 1.391 . S
C124 C123 1.391 . S
C124 C125 1.399 . S
C125 C124 1.399 . S
C125 C128 1.396 . S
C125 C137 1.453 . S
C125 C138 1.684 . S
H126 C150 0.948 . S
C127 C123 1.397 . S
C127 C128 1.394 . S
C127 C146 1.723 . S
C128 C125 1.396 . S
C128 C127 1.394 . S
C128 C158 1.723 . S
H129 C152 0.947 . S
H130 C153 0.948 . S
H131 C159 0.982 . S
H132 C160 0.979 . S
H133 C160 0.980 . S
H134 C160 0.983 . S
H135 C159 0.979 . S
H136 C159 0.977 . S
C137 C125 1.453 . S
C137 H166 0.982 . S
C137 H167 0.979 . S
C137 H168 0.977 . S
C138 C125 1.684 . S
C138 H163 0.979 . S
C138 H164 0.980 . S
C138 H165 0.983 . S
C139 C140 1.391 . S
C139 C144 1.391 . S
C139 H169 0.948 . S
C140 C139 1.391 . S
C140 C141 1.391 1_556 S
C141 C140 1.391 1_554 S
C141 C142 1.392 . S
C141 H170 0.947 . S
C142 C141 1.392 . S
C142 C143 1.419 . S
C142 H171 0.948 . S
C143 C142 1.419 . S
C143 C144 1.391 1_554 S
C143 C147 1.397 . S
C144 C139 1.391 . S
C144 C143 1.391 1_556 S
C144 C145 1.399 . S
C145 C144 1.399 . S
C145 C146 1.396 1_556 S
C145 C148 1.453 . S
C145 C149 1.684 . S
C146 C127 1.723 . S
C146 C145 1.396 1_554 S
C146 C147 1.394 . S
C147 C143 1.397 . S
C147 C146 1.394 . S
C147 C157 1.723 . S
C148 C145 1.453 . S
C148 H172 0.982 . S
C148 H173 0.979 . S
C148 H174 0.977 . S
C149 C145 1.684 . S
C149 H175 0.979 . S
C149 H176 0.980 . S
C149 H177 0.983 . S
C150 H126 0.948 . S
C150 C151 1.391 . S
C150 C155 1.391 . S
C151 C150 1.391 . S
C151 C152 1.391 . S
C152 H129 0.947 . S
C152 C151 1.391 . S
C152 C153 1.392 . S
C153 H130 0.948 . S
C153 C152 1.392 . S
C153 C154 1.419 . S
C154 C153 1.419 . S
C154 C155 1.391 . S
C154 C158 1.397 . S
C155 C150 1.391 . S
C155 C154 1.391 . S
C155 C156 1.399 . S
C156 C155 1.399 . S
C156 C157 1.396 . S
C156 C159 1.453 . S
C156 C160 1.684 . S
C157 C147 1.723 . S
C157 C156 1.396 . S
C157 C158 1.394 . S
C158 C128 1.723 . S
C158 C154 1.397 . S
C158 C157 1.394 . S
C159 H131 0.982 . S
C159 H135 0.979 . S
C159 H136 0.977 . S
C159 C156 1.453 . S
C160 H132 0.979 . S
C160 H133 0.980 . S
C160 H134 0.983 . S
C160 C156 1.684 . S
H161 C179 0.948 1_556 S
H162 C120 0.948 . S
H163 C138 0.979 . S
H164 C138 0.980 . S
H165 C138 0.983 . S
H166 C137 0.982 . S
H167 C137 0.979 . S
H168 C137 0.977 . S
H169 C139 0.948 . S
H170 C141 0.947 . S
H171 C142 0.948 . S
H172 C148 0.982 . S
H173 C148 0.979 . S
H174 C148 0.977 . S
H175 C149 0.979 . S
H176 C149 0.980 . S
H177 C149 0.983 . S
H178 C122 0.947 1_556 S
C179 C122 1.392 . S
C179 C123 1.419 . S
C179 H161 0.948 1_554 S
C180 C181 1.391 . S
C180 C184 1.391 . S
C180 H222 0.948 . S
C181 C180 1.391 . S
C181 C182 1.391 . S
C182 C181 1.391 . S
C182 H238 0.947 . S
C182 C239 1.392 . S
C183 C184 1.391 . S
C183 C187 1.397 . S
C183 C239 1.419 . S
C184 C180 1.391 . S
C184 C183 1.391 . S
C184 C185 1.399 . S
C185 C184 1.399 . S
C185 C188 1.396 . S
C185 C197 1.453 . S
C185 C198 1.684 . S
H186 C210 0.948 . S
C187 C183 1.397 . S
C187 C188 1.394 . S
C187 C206 1.723 . S
C188 C185 1.396 . S
C188 C187 1.394 . S
C188 C218 1.723 . S
H189 C212 0.947 . S
H190 C213 0.948 . S
H191 C219 0.983 . S
H192 C220 0.979 . S
H193 C220 0.980 . S
H194 C220 0.983 . S
H195 C219 0.978 1_556 S
H196 C219 0.976 1_556 S
C197 C185 1.453 . S
C197 H226 0.982 . S
C197 H227 0.979 . S
C197 H228 0.977 . S
C198 C185 1.684 . S
C198 H223 0.979 . S
C198 H224 0.980 . S
C198 H225 0.983 . S
C199 C200 1.391 1_554 S
C199 C204 1.391 . S
C199 H229 0.948 . S
C200 C199 1.391 1_556 S
C200 C201 1.391 . S
C201 C200 1.391 . S
C201 C202 1.392 . S
C201 H230 0.947 . S
C202 C201 1.392 . S
C202 C203 1.419 1_556 S
C202 H231 0.948 . S
C203 C202 1.419 1_554 S
C203 C204 1.391 . S
C203 C207 1.397 . S
C204 C199 1.391 . S
C204 C203 1.391 . S
C204 C205 1.399 . S
C205 C204 1.399 . S
C205 C206 1.396 . S
C205 C208 1.453 . S
C205 C209 1.684 . S
C206 C187 1.723 . S
C206 C205 1.396 . S
C206 C207 1.394 . S
C207 C203 1.397 . S
C207 C206 1.394 . S
C207 C217 1.723 . S
C208 C205 1.453 . S
C208 H232 0.982 . S
C208 H233 0.979 . S
C208 H234 0.977 . S
C209 C205 1.684 . S
C209 H235 0.979 . S
C209 H236 0.980 . S
C209 H237 0.983 . S
C210 H186 0.948 . S
C210 C211 1.391 . S
C210 C215 1.391 . S
C211 C210 1.391 . S
C211 C212 1.391 . S
C212 H189 0.947 . S
C212 C211 1.391 . S
C212 C213 1.392 . S
C213 H190 0.948 . S
C213 C212 1.392 . S
C213 C214 1.419 . S
C214 C213 1.419 . S
C214 C215 1.391 . S
C214 C218 1.397 . S
C215 C210 1.391 . S
C215 C214 1.391 . S
C215 C216 1.399 . S
C216 C215 1.399 . S
C216 C217 1.396 . S
C216 C219 1.454 . S
C216 C220 1.684 1_554 S
C217 C207 1.723 . S
C217 C216 1.396 . S
C217 C218 1.394 . S
C218 C188 1.723 . S
C218 C214 1.397 . S
C218 C217 1.394 . S
C219 H191 0.983 . S
C219 H195 0.978 1_554 S
C219 H196 0.976 1_554 S
C219 C216 1.454 . S
C220 H192 0.979 . S
C220 H193 0.980 . S
C220 H194 0.983 . S
C220 C216 1.684 1_556 S
H221 C239 0.948 . S
H222 C180 0.948 . S
H223 C198 0.979 . S
H224 C198 0.980 . S
H225 C198 0.983 . S
H226 C197 0.982 . S
H227 C197 0.979 . S
H228 C197 0.977 . S
H229 C199 0.948 . S
H230 C201 0.947 . S
H231 C202 0.948 . S
H232 C208 0.982 . S
H233 C208 0.979 . S
H234 C208 0.977 . S
H235 C209 0.979 . S
H236 C209 0.980 . S
H237 C209 0.983 . S
H238 C182 0.947 . S
C239 C182 1.392 . S
C239 C183 1.419 . S
C239 H221 0.948 . S
C240 C241 1.391 . S
C240 C244 1.391 . S
C240 H282 0.948 . S
C241 C240 1.391 . S
C241 C242 1.391 . S
C242 C241 1.391 . S
C242 H298 0.947 . S
C242 C299 1.392 . S
C243 C244 1.391 . S
C243 C247 1.397 . S
C243 C299 1.419 . S
C244 C240 1.391 . S
C244 C243 1.391 . S
C244 C245 1.399 . S
C245 C244 1.399 . S
C245 C248 1.396 . S
C245 C257 1.453 . S
C245 C258 1.684 . S
H246 C270 0.948 . S
C247 C243 1.397 . S
C247 C248 1.394 . S
C247 C266 1.723 . S
C248 C245 1.396 . S
C248 C247 1.394 . S
C248 C278 1.723 . S
H249 C272 0.947 . S
H250 C273 0.948 . S
H251 C279 0.982 . S
H252 C280 0.979 . S
H253 C280 0.980 . S
H254 C280 0.983 . S
H255 C279 0.979 . S
H256 C279 0.977 . S
C257 C245 1.453 . S
C257 H286 0.982 . S
C257 H287 0.979 . S
C257 H288 0.977 . S
C258 C245 1.684 . S
C258 H283 0.979 . S
C258 H284 0.980 . S
C258 H285 0.983 . S
C259 C260 1.391 . S
C259 C264 1.391 . S
C259 H289 0.948 . S
C260 C259 1.391 . S
C260 C261 1.391 . S
C261 C260 1.391 . S
C261 C262 1.392 . S
C261 H290 0.947 . S
C262 C261 1.392 . S
C262 C263 1.419 . S
C262 H291 0.948 . S
C263 C262 1.419 . S
C263 C264 1.391 . S
C263 C267 1.397 . S
C264 C259 1.391 . S
C264 C263 1.391 . S
C264 C265 1.399 . S
C265 C264 1.399 . S
C265 C266 1.396 . S
C265 C268 1.453 . S
C265 C269 1.684 . S
C266 C247 1.723 . S
C266 C265 1.396 . S
C266 C267 1.394 . S
C267 C263 1.397 . S
C267 C266 1.394 . S
C267 C277 1.723 . S
C268 C265 1.453 . S
C268 H292 0.982 . S
C268 H293 0.979 . S
C268 H294 0.977 . S
C269 C265 1.684 . S
C269 H295 0.979 . S
C269 H296 0.980 . S
C269 H297 0.983 . S
C270 H246 0.948 . S
C270 C271 1.391 . S
C270 C275 1.391 . S
C271 C270 1.391 . S
C271 C272 1.391 . S
C272 H249 0.947 . S
C272 C271 1.391 . S
C272 C273 1.392 . S
C273 H250 0.948 . S
C273 C272 1.392 . S
C273 C274 1.419 . S
C274 C273 1.419 . S
C274 C275 1.391 . S
C274 C278 1.397 . S
C275 C270 1.391 . S
C275 C274 1.391 . S
C275 C276 1.399 . S
C276 C275 1.399 . S
C276 C277 1.396 . S
C276 C279 1.453 . S
C276 C280 1.684 . S
C277 C267 1.723 . S
C277 C276 1.396 . S
C277 C278 1.394 . S
C278 C248 1.723 . S
C278 C274 1.397 . S
C278 C277 1.394 . S
C279 H251 0.982 . S
C279 H255 0.979 . S
C279 H256 0.977 . S
C279 C276 1.453 . S
C280 H252 0.979 . S
C280 H253 0.980 . S
C280 H254 0.983 . S
C280 C276 1.684 . S
H281 C299 0.948 . S
H282 C240 0.948 . S
H283 C258 0.979 . S
H284 C258 0.980 . S
H285 C258 0.983 . S
H286 C257 0.982 . S
H287 C257 0.979 . S
H288 C257 0.977 . S
H289 C259 0.948 . S
H290 C261 0.947 . S
H291 C262 0.948 . S
H292 C268 0.982 . S
H293 C268 0.979 . S
H294 C268 0.977 . S
H295 C269 0.979 . S
H296 C269 0.980 . S
H297 C269 0.983 . S
H298 C242 0.947 . S
C299 C242 1.392 . S
C299 C243 1.419 . S
C299 H281 0.948 . S
C300 C301 1.391 . S
C300 C304 1.391 . S
C300 H342 0.948 . S
C301 C300 1.391 . S
C301 C302 1.391 . S
C302 C301 1.391 . S
C302 H358 0.947 . S
C302 C359 1.392 . S
C303 C304 1.398 . S
C303 C307 1.393 1_655 S
C303 C359 1.426 . S
C304 C300 1.391 . S
C304 C303 1.398 . S
C304 C305 1.399 . S
C305 C304 1.399 . S
C305 C308 1.396 1_655 S
C305 C317 1.453 1_655 S
C305 C318 1.684 . S
H306 C330 0.948 . S
C307 C303 1.393 1_455 S
C307 C308 1.395 . S
C307 C326 1.723 . S
C308 C305 1.396 1_455 S
C308 C307 1.395 . S
C308 C338 1.723 . S
H309 C332 0.947 . S
H310 C333 0.948 . S
H311 C339 0.982 . S
H312 C340 0.979 . S
H313 C340 0.980 . S
H314 C340 0.983 . S
H315 C339 0.979 . S
H316 C339 0.977 . S
C317 C305 1.453 1_455 S
C317 H346 0.982 . S
C317 H347 0.979 . S
C317 H348 0.977 . S
C318 C305 1.684 . S
C318 H343 0.979 . S
C318 H344 0.980 . S
C318 H345 0.983 . S
C319 C320 1.391 . S
C319 C324 1.391 . S
C319 H349 0.948 . S
C320 C319 1.391 . S
C320 C321 1.391 . S
C321 C320 1.391 . S
C321 C322 1.392 . S
C321 H350 0.947 . S
C322 C321 1.392 . S
C322 C323 1.423 . S
C322 H351 0.948 . S
C323 C322 1.423 . S
C323 C324 1.399 . S
C323 C327 1.395 1_655 S
C324 C319 1.391 . S
C324 C323 1.399 . S
C324 C325 1.399 . S
C325 C324 1.399 . S
C325 C326 1.396 1_655 S
C325 C328 1.453 1_655 S
C325 C329 1.684 . S
C326 C307 1.723 . S
C326 C325 1.396 1_455 S
C326 C327 1.394 . S
C327 C323 1.395 1_455 S
C327 C326 1.394 . S
C327 C337 1.723 . S
C328 C325 1.453 1_455 S
C328 H352 0.982 . S
C328 H353 0.979 . S
C328 H354 0.977 . S
C329 C325 1.684 . S
C329 H355 0.979 . S
C329 H356 0.980 . S
C329 H357 0.983 . S
C330 H306 0.948 . S
C330 C331 1.391 . S
C330 C335 1.391 . S
C331 C330 1.391 . S
C331 C332 1.391 . S
C332 H309 0.947 . S
C332 C331 1.391 . S
C332 C333 1.392 . S
C333 H310 0.948 . S
C333 C332 1.392 . S
C333 C334 1.423 . S
C334 C333 1.423 . S
C334 C335 1.396 . S
C334 C338 1.397 1_655 S
C335 C330 1.391 . S
C335 C334 1.396 . S
C335 C336 1.399 . S
C336 C335 1.399 . S
C336 C337 1.396 1_655 S
C336 C339 1.453 1_655 S
C336 C340 1.684 . S
C337 C327 1.723 . S
C337 C336 1.396 1_455 S
C337 C338 1.395 . S
C338 C308 1.723 . S
C338 C334 1.397 1_455 S
C338 C337 1.395 . S
C339 H311 0.982 . S
C339 H315 0.979 . S
C339 H316 0.977 . S
C339 C336 1.453 1_455 S
C340 H312 0.979 . S
C340 H313 0.980 . S
C340 H314 0.983 . S
C340 C336 1.684 . S
H341 C359 0.948 . S
H342 C300 0.948 . S
H343 C318 0.979 . S
H344 C318 0.980 . S
H345 C318 0.983 . S
H346 C317 0.982 . S
H347 C317 0.979 . S
H348 C317 0.977 . S
H349 C319 0.948 . S
H350 C321 0.947 . S
H351 C322 0.948 . S
H352 C328 0.982 . S
H353 C328 0.979 . S
H354 C328 0.977 . S
H355 C329 0.979 . S
H356 C329 0.980 . S
H357 C329 0.983 . S
H358 C302 0.947 . S
C359 C302 1.392 . S
C359 C303 1.426 . S
C359 H341 0.948 . S
C360 C361 1.391 . S
C360 C364 1.391 . S
C360 H402 0.948 . S
C361 C360 1.391 . S
C361 C362 1.391 . S
C362 C361 1.391 . S
C362 H418 0.947 . S
C362 C419 1.392 . S
C363 C364 1.391 . S
C363 C367 1.397 . S
C363 C419 1.419 . S
C364 C360 1.391 . S
C364 C363 1.391 . S
C364 C365 1.399 . S
C365 C364 1.399 . S
C365 C368 1.396 . S
C365 C377 1.453 . S
C365 C378 1.684 . S
H366 C390 0.948 . S
C367 C363 1.397 . S
C367 C368 1.394 . S
C367 C386 1.723 . S
C368 C365 1.396 . S
C368 C367 1.394 . S
C368 C398 1.723 . S
H369 C392 0.947 . S
H370 C393 0.948 . S
H371 C399 0.982 . S
H372 C400 0.979 . S
H373 C400 0.980 . S
H374 C400 0.983 . S
H375 C399 0.979 . S
H376 C399 0.977 . S
C377 C365 1.453 . S
C377 H406 0.982 . S
C377 H407 0.979 . S
C377 H408 0.977 . S
C378 C365 1.684 . S
C378 H403 0.979 . S
C378 H404 0.980 . S
C378 H405 0.983 . S
C379 C380 1.391 . S
C379 C384 1.391 . S
C379 H409 0.948 . S
C380 C379 1.391 . S
C380 C381 1.391 . S
C381 C380 1.391 . S
C381 C382 1.392 . S
C381 H410 0.947 . S
C382 C381 1.392 . S
C382 C383 1.419 . S
C382 H411 0.948 . S
C383 C382 1.419 . S
C383 C384 1.391 . S
C383 C387 1.397 . S
C384 C379 1.391 . S
C384 C383 1.391 . S
C384 C385 1.399 . S
C385 C384 1.399 . S
C385 C386 1.396 . S
C385 C388 1.453 . S
C385 C389 1.684 . S
C386 C367 1.723 . S
C386 C385 1.396 . S
C386 C387 1.394 . S
C387 C383 1.397 . S
C387 C386 1.394 . S
C387 C397 1.723 . S
C388 C385 1.453 . S
C388 H412 0.982 . S
C388 H413 0.979 . S
C388 H414 0.977 . S
C389 C385 1.684 . S
C389 H415 0.979 . S
C389 H416 0.980 . S
C389 H417 0.983 . S
C390 H366 0.948 . S
C390 C391 1.391 . S
C390 C395 1.391 . S
C391 C390 1.391 . S
C391 C392 1.391 . S
C392 H369 0.947 . S
C392 C391 1.391 . S
C392 C393 1.392 . S
C393 H370 0.948 . S
C393 C392 1.392 . S
C393 C394 1.419 . S
C394 C393 1.419 . S
C394 C395 1.391 . S
C394 C398 1.397 . S
C395 C390 1.391 . S
C395 C394 1.391 . S
C395 C396 1.399 . S
C396 C395 1.399 . S
C396 C397 1.396 . S
C396 C399 1.453 . S
C396 C400 1.684 . S
C397 C387 1.723 . S
C397 C396 1.396 . S
C397 C398 1.394 . S
C398 C368 1.723 . S
C398 C394 1.397 . S
C398 C397 1.394 . S
C399 H371 0.982 . S
C399 H375 0.979 . S
C399 H376 0.977 . S
C399 C396 1.453 . S
C400 H372 0.979 . S
C400 H373 0.980 . S
C400 H374 0.983 . S
C400 C396 1.684 . S
H401 C419 0.948 . S
H402 C360 0.948 . S
H403 C378 0.979 . S
H404 C378 0.980 . S
H405 C378 0.983 . S
H406 C377 0.982 . S
H407 C377 0.979 . S
H408 C377 0.977 . S
H409 C379 0.948 . S
H410 C381 0.947 . S
H411 C382 0.948 . S
H412 C388 0.982 . S
H413 C388 0.979 . S
H414 C388 0.977 . S
H415 C389 0.979 . S
H416 C389 0.980 . S
H417 C389 0.983 . S
H418 C362 0.947 . S
C419 C362 1.392 . S
C419 C363 1.419 . S
C419 H401 0.948 . S
C420 C421 1.391 . S
C420 C424 1.391 . S
C420 H462 0.948 . S
C421 C420 1.391 . S
C421 C422 1.391 . S
C422 C421 1.391 . S
C422 H478 0.947 . S
C422 C479 1.392 . S
C423 C424 1.391 . S
C423 C427 1.397 . S
C423 C479 1.419 . S
C424 C420 1.391 . S
C424 C423 1.391 . S
C424 C425 1.399 . S
C425 C424 1.399 . S
C425 C428 1.396 . S
C425 C437 1.453 . S
C425 C438 1.684 . S
H426 C450 0.948 . S
C427 C423 1.397 . S
C427 C428 1.394 . S
C427 C446 1.723 . S
C428 C425 1.396 . S
C428 C427 1.394 . S
C428 C458 1.723 . S
H429 C452 0.947 . S
H430 C453 0.948 . S
H431 C459 0.982 . S
H432 C460 0.979 . S
H433 C460 0.980 . S
H434 C460 0.983 . S
H435 C459 0.979 . S
H436 C459 0.977 . S
C437 C425 1.453 . S
C437 H466 0.982 . S
C437 H467 0.979 . S
C437 H468 0.977 . S
C438 C425 1.684 . S
C438 H463 0.979 . S
C438 H464 0.980 . S
C438 H465 0.983 . S
C439 C440 1.391 . S
C439 C444 1.391 . S
C439 H469 0.948 . S
C440 C439 1.391 . S
C440 C441 1.391 . S
C441 C440 1.391 . S
C441 C442 1.392 . S
C441 H470 0.947 . S
C442 C441 1.392 . S
C442 C443 1.419 . S
C442 H471 0.948 . S
C443 C442 1.419 . S
C443 C444 1.391 . S
C443 C447 1.397 . S
C444 C439 1.391 . S
C444 C443 1.391 . S
C444 C445 1.399 . S
C445 C444 1.399 . S
C445 C446 1.396 . S
C445 C448 1.453 . S
C445 C449 1.684 . S
C446 C427 1.723 . S
C446 C445 1.396 . S
C446 C447 1.394 . S
C447 C443 1.397 . S
C447 C446 1.394 . S
C447 C457 1.723 . S
C448 C445 1.453 . S
C448 H472 0.982 . S
C448 H473 0.979 . S
C448 H474 0.977 . S
C449 C445 1.684 . S
C449 H475 0.979 . S
C449 H476 0.980 . S
C449 H477 0.983 . S
C450 H426 0.948 . S
C450 C451 1.391 . S
C450 C455 1.391 . S
C451 C450 1.391 . S
C451 C452 1.391 . S
C452 H429 0.947 . S
C452 C451 1.391 . S
C452 C453 1.392 . S
C453 H430 0.948 . S
C453 C452 1.392 . S
C453 C454 1.419 . S
C454 C453 1.419 . S
C454 C455 1.391 . S
C454 C458 1.397 . S
C455 C450 1.391 . S
C455 C454 1.391 . S
C455 C456 1.399 . S
C456 C455 1.399 . S
C456 C457 1.396 . S
C456 C459 1.453 . S
C456 C460 1.684 . S
C457 C447 1.723 . S
C457 C456 1.396 . S
C457 C458 1.394 . S
C458 C428 1.723 . S
C458 C454 1.397 . S
C458 C457 1.394 . S
C459 H431 0.982 . S
C459 H435 0.979 . S
C459 H436 0.977 . S
C459 C456 1.453 . S
C460 H432 0.979 . S
C460 H433 0.980 . S
C460 H434 0.983 . S
C460 C456 1.684 . S
H461 C479 0.948 . S
H462 C420 0.948 . S
H463 C438 0.979 . S
H464 C438 0.980 . S
H465 C438 0.983 . S
H466 C437 0.982 . S
H467 C437 0.979 . S
H468 C437 0.977 . S
H469 C439 0.948 . S
H470 C441 0.947 . S
H471 C442 0.948 . S
H472 C448 0.982 . S
H473 C448 0.979 . S
H474 C448 0.977 . S
H475 C449 0.979 . S
H476 C449 0.980 . S
H477 C449 0.983 . S
H478 C422 0.947 . S
C479 C422 1.392 . S
C479 C423 1.419 . S
C479 H461 0.948 . S
O480 Mg481 1.990 . S
O480 C494 1.253 . S
Mg481 O480 1.990 . S
Mg481 O484 2.180 1_565 S
Mg481 O485 2.117 . S
Mg481 O499 2.030 . S
O482 Mg483 2.070 1_465 S
O482 C494 1.260 . S
Mg483 O482 2.070 1_645 S
Mg483 O484 2.048 1_655 S
Mg483 O486 2.088 . S
Mg483 O487 2.056 1_655 S
Mg483 O489 2.150 . S
Mg483 O500 2.091 1_545 S
O484 Mg481 2.180 1_545 S
O484 Mg483 2.048 1_455 S
O484 C495 1.279 . S
O485 Mg481 2.117 . S
O485 C495 1.250 1_565 S
O486 Mg483 2.088 . S
O486 C496 1.264 . S
O487 Mg483 2.056 1_455 S
O487 C497 1.283 . S
Mg488 O489 2.180 . S
Mg488 O490 2.030 . S
Mg488 O491 1.990 . S
Mg488 O492 2.117 . S
O489 Mg483 2.150 . S
O489 Mg488 2.180 . S
O489 C498 1.279 . S
O490 Mg488 2.030 . S
O490 C496 1.248 . S
O491 Mg488 1.990 . S
O491 C497 1.199 1_655 S
O492 Mg488 2.117 . S
O492 C498 1.250 . S
C493 O499 1.204 1_655 S
C493 O500 1.281 . S
C494 O480 1.253 . S
C494 O482 1.260 . S
C495 O484 1.279 . S
C495 O485 1.250 1_545 S
C496 O486 1.264 . S
C496 O490 1.248 . S
C497 O487 1.283 . S
C497 O491 1.199 1_455 S
C498 O489 1.279 . S
C498 O492 1.250 . S
O499 Mg481 2.030 . S
O499 C493 1.204 1_455 S
O500 Mg483 2.091 1_565 S
O500 C493 1.281 . S
O501 Mg502 1.990 1_545 S
O501 C515 1.253 . S
Mg502 O501 1.990 1_565 S
Mg502 O505 2.180 . S
Mg502 O506 2.117 . S
Mg502 O520 2.030 1_565 S
O503 Mg504 2.072 . S
O503 C515 1.260 . S
Mg504 O503 2.072 . S
Mg504 O505 2.099 1_545 S
Mg504 O507 2.079 1_545 S
Mg504 O508 2.072 1_545 S
Mg504 O510 2.099 . S
Mg504 O521 2.079 . S
O505 Mg502 2.180 . S
O505 Mg504 2.099 1_565 S
O505 C516 1.279 . S
O506 Mg502 2.117 . S
O506 C516 1.250 . S
O507 Mg504 2.079 1_565 S
O507 C517 1.264 . S
O508 Mg504 2.072 1_565 S
O508 C518 1.260 1_565 S
Mg509 O510 2.180 . S
Mg509 O511 2.078 . S
Mg509 O512 1.990 . S
Mg509 O513 2.117 . S
O510 Mg504 2.099 . S
O510 Mg509 2.180 . S
O510 C519 1.279 . S
O511 Mg509 2.078 . S
O511 C517 1.217 1_545 S
O512 Mg509 1.990 . S
O512 C518 1.253 . S
O513 Mg509 2.117 . S
O513 C519 1.250 . S
C514 O520 1.248 . S
C514 O521 1.264 . S
C515 O501 1.253 . S
C515 O503 1.260 . S
C516 O505 1.279 . S
C516 O506 1.250 . S
C517 O507 1.264 . S
C517 O511 1.217 1_565 S
C518 O508 1.260 1_545 S
C518 O512 1.253 . S
C519 O510 1.279 . S
C519 O513 1.250 . S
O520 Mg502 2.030 1_545 S
O520 C514 1.248 . S
O521 Mg504 2.079 . S
O521 C514 1.264 . S
O522 Mg523 1.990 . S
O522 C536 1.253 . S
Mg523 O522 1.990 . S
Mg523 O526 2.180 . S
Mg523 O527 2.117 . S
Mg523 O541 2.030 . S
O524 Mg525 2.072 . S
O524 C536 1.260 . S
Mg525 O524 2.072 . S
Mg525 O526 2.099 . S
Mg525 O528 2.079 . S
Mg525 O529 2.072 . S
Mg525 O531 2.099 . S
Mg525 O542 2.079 . S
O526 Mg523 2.180 . S
O526 Mg525 2.099 . S
O526 C537 1.279 . S
O527 Mg523 2.117 . S
O527 C537 1.250 . S
O528 Mg525 2.079 . S
O528 C538 1.264 . S
O529 Mg525 2.072 . S
O529 C539 1.260 . S
Mg530 O531 2.180 . S
Mg530 O532 2.030 . S
Mg530 O533 1.990 . S
Mg530 O534 2.117 . S
O531 Mg525 2.099 . S
O531 Mg530 2.180 . S
O531 C540 1.279 . S
O532 Mg530 2.030 . S
O532 C538 1.248 . S
O533 Mg530 1.990 . S
O533 C539 1.253 . S
O534 Mg530 2.117 . S
O534 C540 1.250 . S
C535 O541 1.248 . S
C535 O542 1.264 . S
C536 O522 1.253 . S
C536 O524 1.260 . S
C537 O526 1.279 . S
C537 O527 1.250 . S
C538 O528 1.264 . S
C538 O532 1.248 . S
C539 O529 1.260 . S
C539 O533 1.253 . S
C540 O531 1.279 . S
C540 O534 1.250 . S
O541 Mg523 2.030 . S
O541 C535 1.248 . S
O542 Mg525 2.079 . S
O542 C535 1.264 . S
O543 Mg544 1.990 . S
O543 C557 1.253 . S
Mg544 O543 1.990 . S
Mg544 O547 2.180 . S
Mg544 O548 2.117 . S
Mg544 O562 2.030 . S
O545 Mg546 2.072 1_655 S
O545 C557 1.260 . S
Mg546 O545 2.072 1_455 S
Mg546 O547 2.099 1_455 S
Mg546 O549 2.079 . S
Mg546 O550 2.072 . S
Mg546 O552 2.099 . S
Mg546 O563 2.079 1_455 S
O547 Mg544 2.180 . S
O547 Mg546 2.099 1_655 S
O547 C558 1.279 . S
O548 Mg544 2.117 . S
O548 C558 1.250 . S
O549 Mg546 2.079 . S
O549 C559 1.264 . S
O550 Mg546 2.072 . S
O550 C560 1.260 . S
Mg551 O552 2.180 . S
Mg551 O553 2.030 . S
Mg551 O554 1.990 . S
Mg551 O555 2.117 . S
O552 Mg546 2.099 . S
O552 Mg551 2.180 . S
O552 C561 1.279 . S
O553 Mg551 2.030 . S
O553 C559 1.248 . S
O554 Mg551 1.990 . S
O554 C560 1.253 . S
O555 Mg551 2.117 . S
O555 C561 1.250 . S
C556 O562 1.248 . S
C556 O563 1.264 . S
C557 O543 1.253 . S
C557 O545 1.260 . S
C558 O547 1.279 . S
C558 O548 1.250 . S
C559 O549 1.264 . S
C559 O553 1.248 . S
C560 O550 1.260 . S
C560 O554 1.253 . S
C561 O552 1.279 . S
C561 O555 1.250 . S
O562 Mg544 2.030 . S
O562 C556 1.248 . S
O563 Mg546 2.079 1_655 S
O563 C556 1.264 . S
H564 C572 0.929 . S
H565 C574 0.930 . S
H566 C576 0.930 . S
H567 C579 0.929 . S
H568 C582 0.930 . S
H569 C584 0.960 . S
H570 C584 0.960 . S
H571 C584 0.960 . S
C572 H564 0.929 . S
C572 C573 1.377 . S
C572 C574 1.384 . S
C573 C572 1.377 . S
C573 C579 1.390 . S
C574 H565 0.930 . S
C574 C572 1.384 . S
C574 C575 1.372 . S
C575 C574 1.372 . S
C575 C576 1.400 . S
C575 C580 1.490 . S
C576 H566 0.930 . S
C576 C575 1.400 . S
C576 C579 1.386 . S
H577 C593 0.930 . S
H578 C594 0.931 . S
C579 H567 0.929 . S
C579 C573 1.390 . S
C579 C576 1.386 . S
C580 C575 1.490 . S
C580 C582 1.395 . S
C580 C583 1.403 . S
H581 C587 0.930 . S
C582 H568 0.930 . S
C582 C580 1.395 . S
C582 C585 1.403 . S
C583 C580 1.403 . S
C583 C584 1.524 . S
C583 C587 1.400 . S
C584 H569 0.960 . S
C584 H570 0.960 . S
C584 H571 0.960 . S
C584 C583 1.524 . S
C585 C582 1.403 . S
C585 C586 1.392 . S
C585 C589 1.495 . S
C586 C585 1.392 . S
C586 C587 1.385 . S
C586 C588 1.478 . S
C587 H581 0.930 . S
C587 C583 1.400 . S
C587 C586 1.385 . S
C588 C586 1.478 . S
C588 C590 1.381 . S
C588 C594 1.383 . S
C589 C585 1.495 . S
C589 H595 0.959 . S
C589 H596 0.961 . S
C589 H597 0.960 . S
C590 C588 1.381 . S
C590 C591 1.394 . S
C590 H598 0.930 . S
C591 C590 1.394 . S
C591 C592 1.383 . S
C591 H599 0.929 . S
C592 C591 1.383 . S
C592 C593 1.377 . S
C593 H577 0.930 . S
C593 C592 1.377 . S
C593 C594 1.379 . S
C594 H578 0.931 . S
C594 C588 1.383 . S
C594 C593 1.379 . S
H595 C589 0.959 . S
H596 C589 0.961 . S
H597 C589 0.960 . S
H598 C590 0.930 . S
H599 C591 0.929 . S
H600 C608 0.929 . S
H601 C610 0.930 . S
H602 C612 0.930 . S
H603 C615 0.929 . S
H604 C618 0.930 . S
H605 C620 0.960 . S
H606 C620 0.960 . S
H607 C620 0.960 . S
C608 H600 0.929 . S
C608 C609 1.377 . S
C608 C610 1.384 . S
C609 C608 1.377 . S
C609 C615 1.390 . S
C610 H601 0.930 . S
C610 C608 1.384 . S
C610 C611 1.372 . S
C611 C610 1.372 . S
C611 C612 1.400 . S
C611 C616 1.490 . S
C612 H602 0.930 . S
C612 C611 1.400 . S
C612 C615 1.386 . S
H613 C629 0.930 . S
H614 C630 0.931 . S
C615 H603 0.929 . S
C615 C609 1.390 . S
C615 C612 1.386 . S
C616 C611 1.490 . S
C616 C618 1.395 . S
C616 C619 1.403 . S
H617 C623 0.930 . S
C618 H604 0.930 . S
C618 C616 1.395 . S
C618 C621 1.403 . S
C619 C616 1.403 . S
C619 C620 1.524 . S
C619 C623 1.400 . S
C620 H605 0.960 . S
C620 H606 0.960 . S
C620 H607 0.960 . S
C620 C619 1.524 . S
C621 C618 1.403 . S
C621 C622 1.392 . S
C621 C625 1.495 . S
C622 C621 1.392 . S
C622 C623 1.385 . S
C622 C624 1.478 . S
C623 H617 0.930 . S
C623 C619 1.400 . S
C623 C622 1.385 . S
C624 C622 1.478 . S
C624 C626 1.381 . S
C624 C630 1.383 . S
C625 C621 1.495 . S
C625 H631 0.959 . S
C625 H632 0.961 . S
C625 H633 0.960 . S
C626 C624 1.381 . S
C626 C627 1.394 . S
C626 H634 0.930 . S
C627 C626 1.394 . S
C627 C628 1.383 . S
C627 H635 0.929 . S
C628 C627 1.383 . S
C628 C629 1.377 . S
C629 H613 0.930 . S
C629 C628 1.377 . S
C629 C630 1.379 . S
C630 H614 0.931 . S
C630 C624 1.383 . S
C630 C629 1.379 . S
H631 C625 0.959 . S
H632 C625 0.961 . S
H633 C625 0.960 . S
H634 C626 0.930 . S
H635 C627 0.929 . S
H636 C644 0.929 . S
H637 C646 0.930 . S
H638 C648 0.930 . S
H639 C651 0.929 . S
H640 C654 0.930 . S
H641 C656 0.960 . S
H642 C656 0.960 . S
H643 C656 0.960 . S
C644 H636 0.929 . S
C644 C645 1.377 . S
C644 C646 1.384 . S
C645 C644 1.377 . S
C645 C651 1.390 . S
C646 H637 0.930 . S
C646 C644 1.384 . S
C646 C647 1.372 . S
C647 C646 1.372 . S
C647 C648 1.400 . S
C647 C652 1.490 . S
C648 H638 0.930 . S
C648 C647 1.400 . S
C648 C651 1.386 . S
H649 C665 0.930 . S
H650 C666 0.931 . S
C651 H639 0.929 . S
C651 C645 1.390 . S
C651 C648 1.386 . S
C652 C647 1.490 . S
C652 C654 1.395 . S
C652 C655 1.403 . S
H653 C659 0.930 . S
C654 H640 0.930 . S
C654 C652 1.395 . S
C654 C657 1.403 . S
C655 C652 1.403 . S
C655 C656 1.524 . S
C655 C659 1.400 . S
C656 H641 0.960 . S
C656 H642 0.960 . S
C656 H643 0.960 . S
C656 C655 1.524 . S
C657 C654 1.403 . S
C657 C658 1.392 . S
C657 C661 1.495 . S
C658 C657 1.392 . S
C658 C659 1.385 . S
C658 C660 1.478 . S
C659 H653 0.930 . S
C659 C655 1.400 . S
C659 C658 1.385 . S
C660 C658 1.478 . S
C660 C662 1.381 . S
C660 C666 1.383 . S
C661 C657 1.495 . S
C661 H667 0.959 . S
C661 H668 0.961 . S
C661 H669 0.960 . S
C662 C660 1.381 . S
C662 C663 1.394 . S
C662 H670 0.930 . S
C663 C662 1.394 . S
C663 C664 1.383 . S
C663 H671 0.929 . S
C664 C663 1.383 . S
C664 C665 1.377 . S
C665 H649 0.930 . S
C665 C664 1.377 . S
C665 C666 1.379 . S
C666 H650 0.931 . S
C666 C660 1.383 . S
C666 C665 1.379 . S
H667 C661 0.959 . S
H668 C661 0.961 . S
H669 C661 0.960 . S
H670 C662 0.930 . S
H671 C663 0.929 . S
H672 C680 0.929 . S
H673 C682 0.930 . S
H674 C684 0.930 . S
H675 C687 0.929 . S
H676 C690 0.932 . S
H677 C692 0.959 . S
H678 C692 0.949 1_455 S
H679 C692 0.970 . S
C680 H672 0.929 . S
C680 C681 1.375 . S
C680 C682 1.384 . S
C681 C680 1.375 . S
C681 C687 1.392 1_455 S
C682 H673 0.930 . S
C682 C680 1.384 . S
C682 C683 1.357 1_455 S
C683 C682 1.357 1_655 S
C683 C684 1.415 . S
C683 C688 1.490 . S
C684 H674 0.930 . S
C684 C683 1.415 . S
C684 C687 1.386 . S
H685 C701 0.930 . S
H686 C702 0.931 . S
C687 H675 0.929 . S
C687 C681 1.392 1_655 S
C687 C684 1.386 . S
C688 C683 1.490 . S
C688 C690 1.395 . S
C688 C691 1.403 . S
H689 C695 0.930 . S
C690 H676 0.932 . S
C690 C688 1.395 . S
C690 C693 1.403 . S
C691 C688 1.403 . S
C691 C692 1.524 . S
C691 C695 1.400 . S
C692 H677 0.959 . S
C692 H678 0.949 1_655 S
C692 H679 0.970 . S
C692 C691 1.524 . S
C693 C690 1.403 . S
C693 C694 1.392 . S
C693 C697 1.495 . S
C694 C693 1.392 . S
C694 C695 1.385 . S
C694 C696 1.478 . S
C695 H689 0.930 . S
C695 C691 1.400 . S
C695 C694 1.385 . S
C696 C694 1.478 . S
C696 C698 1.381 1_655 S
C696 C702 1.383 . S
C697 C693 1.495 . S
C697 H703 0.959 . S
C697 H704 0.961 . S
C697 H705 0.960 1_655 S
C698 C696 1.381 1_455 S
C698 C699 1.394 . S
C698 H706 0.930 . S
C699 C698 1.394 . S
C699 C700 1.383 1_455 S
C699 H707 0.929 . S
C700 C699 1.383 1_655 S
C700 C701 1.377 . S
C701 H685 0.930 . S
C701 C700 1.377 . S
C701 C702 1.379 . S
C702 H686 0.931 . S
C702 C696 1.383 . S
C702 C701 1.379 . S
H703 C697 0.959 . S
H704 C697 0.961 . S
H705 C697 0.960 1_455 S
H706 C698 0.930 . S
H707 C699 0.929 . S
H708 C716 0.929 . S
H709 C718 0.930 . S
H710 C720 0.930 . S
H711 C723 0.929 . S
H712 C726 0.930 . S
H713 C728 0.960 . S
H714 C728 0.960 . S
H715 C728 0.960 . S
C716 H708 0.929 . S
C716 C717 1.377 1_556 S
C716 C718 1.384 . S
C717 C716 1.377 1_554 S
C717 C723 1.390 . S
C718 H709 0.930 . S
C718 C716 1.384 . S
C718 C719 1.372 . S
C719 C718 1.372 . S
C719 C720 1.400 . S
C719 C724 1.490 . S
C720 H710 0.930 . S
C720 C719 1.400 . S
C720 C723 1.386 1_556 S
H721 C737 0.930 . S
H722 C738 0.931 . S
C723 H711 0.929 . S
C723 C717 1.390 . S
C723 C720 1.386 1_554 S
C724 C719 1.490 . S
C724 C726 1.395 . S
C724 C727 1.403 . S
H725 C731 0.930 . S
C726 H712 0.930 . S
C726 C724 1.395 . S
C726 C729 1.403 . S
C727 C724 1.403 . S
C727 C728 1.524 . S
C727 C731 1.400 . S
C728 H713 0.960 . S
C728 H714 0.960 . S
C728 H715 0.960 . S
C728 C727 1.524 . S
C729 C726 1.403 . S
C729 C730 1.392 . S
C729 C733 1.495 . S
C730 C729 1.392 . S
C730 C731 1.385 . S
C730 C732 1.478 . S
C731 H725 0.930 . S
C731 C727 1.400 . S
C731 C730 1.385 . S
C732 C730 1.478 . S
C732 C734 1.381 . S
C732 C738 1.383 . S
C733 C729 1.495 . S
C733 H739 0.959 . S
C733 H740 0.961 . S
C733 H741 0.960 1_565 S
C734 C732 1.381 . S
C734 C735 1.394 . S
C734 H742 0.930 . S
C735 C734 1.394 . S
C735 C736 1.383 . S
C735 H743 0.929 1_565 S
C736 C735 1.383 . S
C736 C737 1.377 . S
C737 H721 0.930 . S
C737 C736 1.377 . S
C737 C738 1.379 . S
C738 H722 0.931 . S
C738 C732 1.383 . S
C738 C737 1.379 . S
H739 C733 0.959 . S
H740 C733 0.961 . S
H741 C733 0.960 1_545 S
H742 C734 0.930 . S
H743 C735 0.929 1_545 S
H744 C752 0.929 1_556 S
H745 C754 0.930 . S
H746 C756 0.930 . S
H747 C759 0.929 . S
H748 C762 0.930 . S
H749 C764 0.960 . S
H750 C764 0.960 . S
H751 C764 0.960 . S
C752 H744 0.929 1_554 S
C752 C753 1.377 . S
C752 C754 1.384 1_554 S
C753 C752 1.377 . S
C753 C759 1.390 . S
C754 H745 0.930 . S
C754 C752 1.384 1_556 S
C754 C755 1.372 . S
C755 C754 1.372 . S
C755 C756 1.400 1_556 S
C755 C760 1.490 . S
C756 H746 0.930 . S
C756 C755 1.400 1_554 S
C756 C759 1.386 . S
H757 C773 0.930 . S
H758 C774 0.931 . S
C759 H747 0.929 . S
C759 C753 1.390 . S
C759 C756 1.386 . S
C760 C755 1.490 . S
C760 C762 1.395 . S
C760 C763 1.403 . S
H761 C767 0.930 . S
C762 H748 0.930 . S
C762 C760 1.395 . S
C762 C765 1.403 . S
C763 C760 1.403 . S
C763 C764 1.524 1_556 S
C763 C767 1.400 . S
C764 H749 0.960 . S
C764 H750 0.960 . S
C764 H751 0.960 . S
C764 C763 1.524 1_554 S
C765 C762 1.403 . S
C765 C766 1.392 . S
C765 C769 1.495 . S
C766 C765 1.392 . S
C766 C767 1.385 . S
C766 C768 1.478 . S
C767 H761 0.930 . S
C767 C763 1.400 . S
C767 C766 1.385 . S
C768 C766 1.478 . S
C768 C770 1.381 . S
C768 C774 1.383 . S
C769 C765 1.495 . S
C769 H775 0.959 . S
C769 H776 0.961 . S
C769 H777 0.960 . S
C770 C768 1.381 . S
C770 C771 1.394 . S
C770 H778 0.930 . S
C771 C770 1.394 . S
C771 C772 1.383 . S
C771 H779 0.929 . S
C772 C771 1.383 . S
C772 C773 1.377 . S
C773 H757 0.930 . S
C773 C772 1.377 . S
C773 C774 1.379 . S
C774 H758 0.931 . S
C774 C768 1.383 . S
C774 C773 1.379 . S
H775 C769 0.959 . S
H776 C769 0.961 . S
H777 C769 0.960 . S
H778 C770 0.930 . S
H779 C771 0.929 . S
H780 C788 0.929 . S
H781 C790 0.930 . S
H782 C792 0.928 1_554 S
H783 C795 0.929 . S
H784 C798 0.930 . S
H785 C800 0.960 . S
H786 C800 0.960 . S
H787 C800 0.960 . S
C788 H780 0.929 . S
C788 C789 1.377 1_556 S
C788 C790 1.384 . S
C789 C788 1.377 1_554 S
C789 C795 1.390 . S
C790 H781 0.930 . S
C790 C788 1.384 . S
C790 C791 1.372 . S
C791 C790 1.372 . S
C791 C792 1.400 . S
C791 C796 1.490 . S
C792 H782 0.928 1_556 S
C792 C791 1.400 . S
C792 C795 1.386 1_556 S
H793 C809 0.930 . S
H794 C810 0.931 . S
C795 H783 0.929 . S
C795 C789 1.390 . S
C795 C792 1.386 1_554 S
C796 C791 1.490 . S
C796 C798 1.395 . S
C796 C799 1.403 . S
H797 C803 0.930 . S
C798 H784 0.930 . S
C798 C796 1.395 . S
C798 C801 1.403 . S
C799 C796 1.403 . S
C799 C800 1.524 1_556 S
C799 C803 1.400 . S
C800 H785 0.960 . S
C800 H786 0.960 . S
C800 H787 0.960 . S
C800 C799 1.524 1_554 S
C801 C798 1.403 . S
C801 C802 1.392 . S
C801 C805 1.495 . S
C802 C801 1.392 . S
C802 C803 1.385 . S
C802 C804 1.478 . S
C803 H797 0.930 . S
C803 C799 1.400 . S
C803 C802 1.385 . S
C804 C802 1.478 . S
C804 C806 1.381 . S
C804 C810 1.383 . S
C805 C801 1.495 . S
C805 H811 0.959 . S
C805 H812 0.961 . S
C805 H813 0.960 . S
C806 C804 1.381 . S
C806 C807 1.394 . S
C806 H814 0.930 . S
C807 C806 1.394 . S
C807 C808 1.383 . S
C807 H815 0.929 . S
C808 C807 1.383 . S
C808 C809 1.377 . S
C809 H793 0.930 . S
C809 C808 1.377 . S
C809 C810 1.379 . S
C810 H794 0.931 . S
C810 C804 1.383 . S
C810 C809 1.379 . S
H811 C805 0.959 . S
H812 C805 0.961 . S
H813 C805 0.960 . S
H814 C806 0.930 . S
H815 C807 0.929 . S
H816 C824 0.929 1_556 S
H817 C826 0.930 . S
H818 C828 0.930 . S
H819 C831 0.929 . S
H820 C834 0.930 . S
H821 C836 0.960 . S
H822 C836 0.960 . S
H823 C836 0.960 . S
C824 H816 0.929 1_554 S
C824 C825 1.379 . S
C824 C826 1.384 1_554 S
C825 C824 1.379 . S
C825 C831 1.388 1_455 S
C826 H817 0.930 . S
C826 C824 1.384 1_556 S
C826 C827 1.372 . S
C827 C826 1.372 . S
C827 C828 1.400 1_456 S
C827 C832 1.490 . S
C828 H818 0.930 . S
C828 C827 1.400 1_654 S
C828 C831 1.386 . S
H829 C845 0.930 . S
H830 C846 0.940 . S
C831 H819 0.929 . S
C831 C825 1.388 1_655 S
C831 C828 1.386 . S
C832 C827 1.490 . S
C832 C834 1.395 . S
C832 C835 1.403 1_455 S
H833 C839 0.930 . S
C834 H820 0.930 . S
C834 C832 1.395 . S
C834 C837 1.403 . S
C835 C832 1.403 1_655 S
C835 C836 1.524 . S
C835 C839 1.400 . S
C836 H821 0.960 . S
C836 H822 0.960 . S
C836 H823 0.960 . S
C836 C835 1.524 . S
C837 C834 1.403 . S
C837 C838 1.392 . S
C837 C841 1.495 . S
C838 C837 1.392 . S
C838 C839 1.385 1_455 S
C838 C840 1.478 . S
C839 H833 0.930 . S
C839 C835 1.400 . S
C839 C838 1.385 1_655 S
C840 C838 1.478 . S
C840 C842 1.381 . S
C840 C846 1.373 1_455 S
C841 C837 1.495 . S
C841 H847 0.959 . S
C841 H848 0.961 . S
C841 H849 0.960 . S
C842 C840 1.381 . S
C842 C843 1.394 . S
C842 H850 0.930 . S
C843 C842 1.394 . S
C843 C844 1.383 . S
C843 H851 0.929 . S
C844 C843 1.383 . S
C844 C845 1.377 1_455 S
C845 H829 0.930 . S
C845 C844 1.377 1_655 S
C845 C846 1.381 . S
C846 H830 0.940 . S
C846 C840 1.373 1_655 S
C846 C845 1.381 . S
H847 C841 0.959 . S
H848 C841 0.961 . S
H849 C841 0.960 . S
H850 C842 0.930 . S
H851 C843 0.929 . S
H852 C860 0.929 . S
H853 C862 0.930 . S
H854 C864 0.930 . S
H855 C867 0.929 . S
H856 C870 0.930 . S
H857 C872 0.960 . S
H858 C872 0.960 . S
H859 C872 0.960 . S
C860 H852 0.929 . S
C860 C861 1.377 . S
C860 C862 1.384 . S
C861 C860 1.377 . S
C861 C867 1.390 1_455 S
C862 H853 0.930 . S
C862 C860 1.384 . S
C862 C863 1.372 1_455 S
C863 C862 1.372 1_655 S
C863 C864 1.400 . S
C863 C868 1.490 . S
C864 H854 0.930 . S
C864 C863 1.400 . S
C864 C867 1.386 . S
H865 C881 0.930 . S
H866 C882 0.931 . S
C867 H855 0.929 . S
C867 C861 1.390 1_655 S
C867 C864 1.386 . S
C868 C863 1.490 . S
C868 C870 1.395 1_655 S
C868 C871 1.403 . S
H869 C875 0.930 . S
C870 H856 0.930 . S
C870 C868 1.395 1_455 S
C870 C873 1.403 . S
C871 C868 1.403 . S
C871 C872 1.524 . S
C871 C875 1.400 . S
C872 H857 0.960 . S
C872 H858 0.960 . S
C872 H859 0.960 . S
C872 C871 1.524 . S
C873 C870 1.403 . S
C873 C874 1.392 1_455 S
C873 C877 1.495 . S
C874 C873 1.392 1_655 S
C874 C875 1.385 . S
C874 C876 1.478 . S
C875 H869 0.930 . S
C875 C871 1.400 . S
C875 C874 1.385 . S
C876 C874 1.478 . S
C876 C878 1.381 1_655 S
C876 C882 1.383 . S
C877 C873 1.495 . S
C877 H883 0.959 . S
C877 H884 0.961 . S
C877 H885 0.960 . S
C878 C876 1.381 1_455 S
C878 C879 1.394 . S
C878 H886 0.930 . S
C879 C878 1.394 . S
C879 C880 1.383 1_455 S
C879 H887 0.929 . S
C880 C879 1.383 1_655 S
C880 C881 1.377 . S
C881 H865 0.930 . S
C881 C880 1.377 . S
C881 C882 1.379 . S
C882 H866 0.931 . S
C882 C876 1.383 . S
C882 C881 1.379 . S
H883 C877 0.959 . S
H884 C877 0.961 . S
H885 C877 0.960 . S
H886 C878 0.930 . S
H887 C879 0.929 . S
H888 C896 0.929 . S
H889 C898 0.930 . S
H890 C900 0.930 . S
H891 C903 0.929 . S
H892 C906 0.930 . S
H893 C908 0.960 . S
H894 C908 0.960 . S
H895 C908 0.960 . S
C896 H888 0.929 . S
C896 C897 1.377 . S
C896 C898 1.384 . S
C897 C896 1.377 . S
C897 C903 1.390 . S
C898 H889 0.930 . S
C898 C896 1.384 . S
C898 C899 1.372 . S
C899 C898 1.372 . S
C899 C900 1.400 . S
C899 C904 1.490 . S
C900 H890 0.930 . S
C900 C899 1.400 . S
C900 C903 1.386 . S
H901 C917 0.930 . S
H902 C918 0.931 . S
C903 H891 0.929 . S
C903 C897 1.390 . S
C903 C900 1.386 . S
C904 C899 1.490 . S
C904 C906 1.395 . S
C904 C907 1.403 . S
H905 C911 0.930 . S
C906 H892 0.930 . S
C906 C904 1.395 . S
C906 C909 1.403 . S
C907 C904 1.403 . S
C907 C908 1.524 . S
C907 C911 1.400 . S
C908 H893 0.960 . S
C908 H894 0.960 . S
C908 H895 0.960 . S
C908 C907 1.524 . S
C909 C906 1.403 . S
C909 C910 1.392 . S
C909 C913 1.495 . S
C910 C909 1.392 . S
C910 C911 1.385 . S
C910 C912 1.478 . S
C911 H905 0.930 . S
C911 C907 1.400 . S
C911 C910 1.385 . S
C912 C910 1.478 . S
C912 C914 1.381 . S
C912 C918 1.383 . S
C913 C909 1.495 . S
C913 H919 0.959 . S
C913 H920 0.961 . S
C913 H921 0.960 . S
C914 C912 1.381 . S
C914 C915 1.394 . S
C914 H922 0.930 . S
C915 C914 1.394 . S
C915 C916 1.383 . S
C915 H923 0.929 1_545 S
C916 C915 1.383 . S
C916 C917 1.377 . S
C917 H901 0.930 . S
C917 C916 1.377 . S
C917 C918 1.379 . S
C918 H902 0.931 . S
C918 C912 1.383 . S
C918 C917 1.379 . S
H919 C913 0.959 . S
H920 C913 0.961 . S
H921 C913 0.960 . S
H922 C914 0.930 . S
H923 C915 0.929 1_565 S
H924 C932 0.929 . S
H925 C934 0.930 . S
H926 C936 0.930 . S
H927 C939 0.929 . S
H928 C942 0.930 . S
H929 C944 0.960 . S
H930 C944 0.960 . S
H931 C944 0.960 . S
C932 H924 0.929 . S
C932 C933 1.377 . S
C932 C934 1.384 . S
C933 C932 1.377 . S
C933 C939 1.390 . S
C934 H925 0.930 . S
C934 C932 1.384 . S
C934 C935 1.372 . S
C935 C934 1.372 . S
C935 C936 1.400 . S
C935 C940 1.490 . S
C936 H926 0.930 . S
C936 C935 1.400 . S
C936 C939 1.386 . S
H937 C953 0.930 . S
H938 C954 0.931 . S
C939 H927 0.929 . S
C939 C933 1.390 . S
C939 C936 1.386 . S
C940 C935 1.490 . S
C940 C942 1.395 . S
C940 C943 1.403 . S
H941 C947 0.930 . S
C942 H928 0.930 . S
C942 C940 1.395 . S
C942 C945 1.403 . S
C943 C940 1.403 . S
C943 C944 1.524 . S
C943 C947 1.400 . S
C944 H929 0.960 . S
C944 H930 0.960 . S
C944 H931 0.960 . S
C944 C943 1.524 . S
C945 C942 1.403 . S
C945 C946 1.392 . S
C945 C949 1.495 . S
C946 C945 1.392 . S
C946 C947 1.385 . S
C946 C948 1.478 . S
C947 H941 0.930 . S
C947 C943 1.400 . S
C947 C946 1.385 . S
C948 C946 1.478 . S
C948 C950 1.381 . S
C948 C954 1.383 . S
C949 C945 1.495 . S
C949 H955 0.959 . S
C949 H956 0.961 . S
C949 H957 0.960 . S
C950 C948 1.381 . S
C950 C951 1.394 . S
C950 H958 0.930 . S
C951 C950 1.394 . S
C951 C952 1.383 . S
C951 H959 0.929 . S
C952 C951 1.383 . S
C952 C953 1.377 . S
C953 H937 0.930 . S
C953 C952 1.377 . S
C953 C954 1.379 . S
C954 H938 0.931 . S
C954 C948 1.383 . S
C954 C953 1.379 . S
H955 C949 0.959 . S
H956 C949 0.961 . S
H957 C949 0.960 . S
H958 C950 0.930 . S
H959 C951 0.929 . S
H960 C968 0.929 . S
H961 C970 0.930 . S
H962 C972 0.930 . S
H963 C975 0.929 . S
H964 C978 0.930 . S
H965 C980 0.960 . S
H966 C980 0.960 . S
H967 C980 0.960 . S
C968 H960 0.929 . S
C968 C969 1.377 . S
C968 C970 1.384 . S
C969 C968 1.377 . S
C969 C975 1.390 . S
C970 H961 0.930 . S
C970 C968 1.384 . S
C970 C971 1.372 . S
C971 C970 1.372 . S
C971 C972 1.400 . S
C971 C976 1.490 . S
C972 H962 0.930 . S
C972 C971 1.400 . S
C972 C975 1.386 . S
H973 C989 0.930 . S
H974 C990 0.931 . S
C975 H963 0.929 . S
C975 C969 1.390 . S
C975 C972 1.386 . S
C976 C971 1.490 . S
C976 C978 1.395 . S
C976 C979 1.403 . S
H977 C983 0.930 . S
C978 H964 0.930 . S
C978 C976 1.395 . S
C978 C981 1.403 . S
C979 C976 1.403 . S
C979 C980 1.524 . S
C979 C983 1.400 . S
C980 H965 0.960 . S
C980 H966 0.960 . S
C980 H967 0.960 . S
C980 C979 1.524 . S
C981 C978 1.403 . S
C981 C982 1.392 . S
C981 C985 1.495 . S
C982 C981 1.392 . S
C982 C983 1.385 . S
C982 C984 1.478 . S
C983 H977 0.930 . S
C983 C979 1.400 . S
C983 C982 1.385 . S
C984 C982 1.478 . S
C984 C986 1.381 . S
C984 C990 1.383 . S
C985 C981 1.495 . S
C985 H991 0.959 . S
C985 H992 0.961 . S
C985 H993 0.960 . S
C986 C984 1.381 . S
C986 C987 1.394 . S
C986 H994 0.930 . S
C987 C986 1.394 . S
C987 C988 1.383 . S
C987 H995 0.929 . S
C988 C987 1.383 . S
C988 C989 1.377 . S
C989 H973 0.930 . S
C989 C988 1.377 . S
C989 C990 1.379 . S
C990 H974 0.931 . S
C990 C984 1.383 . S
C990 C989 1.379 . S
H991 C985 0.959 . S
H992 C985 0.961 . S
H993 C985 0.960 . S
H994 C986 0.930 . S
H995 C987 0.929 . S
H996 C1004 0.929 . S
H997 C1006 0.930 . S
H998 C1008 0.930 . S
H999 C1011 0.929 . S
H1000 C1014 0.925 1_655 S
H1001 C1016 0.960 . S
H1002 C1016 0.960 1_655 S
H1003 C1016 0.960 . S
C1004 H996 0.929 . S
C1004 C1005 1.377 . S
C1004 C1006 1.384 . S
C1005 C1004 1.377 . S
C1005 C1011 1.390 1_655 S
C1006 H997 0.930 . S
C1006 C1004 1.384 . S
C1006 C1007 1.329 1_655 S
C1007 C1006 1.329 1_455 S
C1007 C1008 1.438 . S
C1007 C1012 1.496 . S
C1008 H998 0.930 . S
C1008 C1007 1.438 . S
C1008 C1011 1.386 . S
H1009 C1025 0.930 . S
H1010 C1026 0.931 . S
C1011 H999 0.929 . S
C1011 C1005 1.390 1_455 S
C1011 C1008 1.386 . S
C1012 C1007 1.496 . S
C1012 C1014 1.397 . S
C1012 C1015 1.403 . S
H1013 C1019 0.930 . S
C1014 H1000 0.925 1_455 S
C1014 C1012 1.397 . S
C1014 C1017 1.407 . S
C1015 C1012 1.403 . S
C1015 C1016 1.524 . S
C1015 C1019 1.400 . S
C1016 H1001 0.960 . S
C1016 H1002 0.960 1_455 S
C1016 H1003 0.960 . S
C1016 C1015 1.524 . S
C1017 C1014 1.407 . S
C1017 C1018 1.392 . S
C1017 C1021 1.497 . S
C1018 C1017 1.392 . S
C1018 C1019 1.385 . S
C1018 C1020 1.478 . S
C1019 H1013 0.930 . S
C1019 C1015 1.400 . S
C1019 C1018 1.385 . S
C1020 C1018 1.478 . S
C1020 C1022 1.381 1_455 S
C1020 C1026 1.383 . S
C1021 C1017 1.497 . S
C1021 H1027 0.955 1_455 S
C1021 H1028 0.986 . S
C1021 H1029 0.938 1_455 S
C1022 C1020 1.381 1_655 S
C1022 C1023 1.394 . S
C1022 H1030 0.930 . S
C1023 C1022 1.394 . S
C1023 C1024 1.383 1_655 S
C1023 H1031 0.929 . S
C1024 C1023 1.383 1_455 S
C1024 C1025 1.377 . S
C1025 H1009 0.930 . S
C1025 C1024 1.377 . S
C1025 C1026 1.379 . S
C1026 H1010 0.931 . S
C1026 C1020 1.383 . S
C1026 C1025 1.379 . S
H1027 C1021 0.955 1_655 S
H1028 C1021 0.986 . S
H1029 C1021 0.938 1_655 S
H1030 C1022 0.930 . S
H1031 C1023 0.929 . S
H1032 C1040 0.929 . S
H1033 C1042 0.930 . S
H1034 C1044 0.930 . S
H1035 C1047 0.929 . S
H1036 C1050 0.930 . S
H1037 C1052 0.960 . S
H1038 C1052 0.960 . S
H1039 C1052 0.960 . S
C1040 H1032 0.929 . S
C1040 C1041 1.377 . S
C1040 C1042 1.384 . S
C1041 C1040 1.377 . S
C1041 C1047 1.390 . S
C1042 H1033 0.930 . S
C1042 C1040 1.384 . S
C1042 C1043 1.372 . S
C1043 C1042 1.372 . S
C1043 C1044 1.400 . S
C1043 C1048 1.490 . S
C1044 H1034 0.930 . S
C1044 C1043 1.400 . S
C1044 C1047 1.386 . S
H1045 C1061 0.930 . S
H1046 C1062 0.931 . S
C1047 H1035 0.929 . S
C1047 C1041 1.390 . S
C1047 C1044 1.386 . S
C1048 C1043 1.490 . S
C1048 C1050 1.395 . S
C1048 C1051 1.403 . S
H1049 C1055 0.930 . S
C1050 H1036 0.930 . S
C1050 C1048 1.395 . S
C1050 C1053 1.403 . S
C1051 C1048 1.403 . S
C1051 C1052 1.524 . S
C1051 C1055 1.400 . S
C1052 H1037 0.960 . S
C1052 H1038 0.960 . S
C1052 H1039 0.960 . S
C1052 C1051 1.524 . S
C1053 C1050 1.403 . S
C1053 C1054 1.392 . S
C1053 C1057 1.495 . S
C1054 C1053 1.392 . S
C1054 C1055 1.385 . S
C1054 C1056 1.478 . S
C1055 H1049 0.930 . S
C1055 C1051 1.400 . S
C1055 C1054 1.385 . S
C1056 C1054 1.478 . S
C1056 C1058 1.381 . S
C1056 C1062 1.383 . S
C1057 C1053 1.495 . S
C1057 H1063 0.959 . S
C1057 H1064 0.961 . S
C1057 H1065 0.960 . S
C1058 C1056 1.381 . S
C1058 C1059 1.394 . S
C1058 H1066 0.930 . S
C1059 C1058 1.394 . S
C1059 C1060 1.343 1_565 S
C1059 H1067 0.929 . S
C1060 C1059 1.343 1_545 S
C1060 C1061 1.391 . S
C1061 H1045 0.930 . S
C1061 C1060 1.391 . S
C1061 C1062 1.379 1_545 S
C1062 H1046 0.931 . S
C1062 C1056 1.383 . S
C1062 C1061 1.379 1_565 S
H1063 C1057 0.959 . S
H1064 C1057 0.961 . S
H1065 C1057 0.960 . S
H1066 C1058 0.930 . S
H1067 C1059 0.929 . S
H1068 C1076 0.929 1_554 S
H1069 C1078 0.930 . S
H1070 C1080 0.930 . S
H1071 C1083 0.929 . S
H1072 C1086 0.930 . S
H1073 C1088 0.960 . S
H1074 C1088 0.960 . S
H1075 C1088 0.960 . S
C1076 H1068 0.929 1_556 S
C1076 C1077 1.377 . S
C1076 C1078 1.384 . S
C1077 C1076 1.377 . S
C1077 C1083 1.390 . S
C1078 H1069 0.930 . S
C1078 C1076 1.384 . S
C1078 C1079 1.372 . S
C1079 C1078 1.372 . S
C1079 C1080 1.400 . S
C1079 C1084 1.490 . S
C1080 H1070 0.930 . S
C1080 C1079 1.400 . S
C1080 C1083 1.386 . S
H1081 C1097 0.930 . S
H1082 C1098 0.931 . S
C1083 H1071 0.929 . S
C1083 C1077 1.390 . S
C1083 C1080 1.386 . S
C1084 C1079 1.490 . S
C1084 C1086 1.395 . S
C1084 C1087 1.403 . S
H1085 C1091 0.930 . S
C1086 H1072 0.930 . S
C1086 C1084 1.395 . S
C1086 C1089 1.403 . S
C1087 C1084 1.403 . S
C1087 C1088 1.524 . S
C1087 C1091 1.400 . S
C1088 H1073 0.960 . S
C1088 H1074 0.960 . S
C1088 H1075 0.960 . S
C1088 C1087 1.524 . S
C1089 C1086 1.403 . S
C1089 C1090 1.392 . S
C1089 C1093 1.495 . S
C1090 C1089 1.392 . S
C1090 C1091 1.385 . S
C1090 C1092 1.478 . S
C1091 H1085 0.930 . S
C1091 C1087 1.400 . S
C1091 C1090 1.385 . S
C1092 C1090 1.478 . S
C1092 C1094 1.381 . S
C1092 C1098 1.383 . S
C1093 C1089 1.495 . S
C1093 H1099 0.959 . S
C1093 H1100 0.961 . S
C1093 H1101 0.960 . S
C1094 C1092 1.381 . S
C1094 C1095 1.394 . S
C1094 H1102 0.930 . S
C1095 C1094 1.394 . S
C1095 C1096 1.383 . S
C1095 H1103 0.929 . S
C1096 C1095 1.383 . S
C1096 C1097 1.377 . S
C1097 H1081 0.930 . S
C1097 C1096 1.377 . S
C1097 C1098 1.379 . S
C1098 H1082 0.931 . S
C1098 C1092 1.383 . S
C1098 C1097 1.379 . S
H1099 C1093 0.959 . S
H1100 C1093 0.961 . S
H1101 C1093 0.960 . S
H1102 C1094 0.930 . S
H1103 C1095 0.929 . S
H1104 C1112 0.929 . S
H1105 C1114 0.930 . S
H1106 C1116 0.930 . S
H1107 C1119 0.929 . S
H1108 C1122 0.930 . S
H1109 C1124 0.960 . S
H1110 C1124 0.960 . S
H1111 C1124 0.960 . S
C1112 H1104 0.929 . S
C1112 C1113 1.377 . S
C1112 C1114 1.384 . S
C1113 C1112 1.377 . S
C1113 C1119 1.390 . S
C1114 H1105 0.930 . S
C1114 C1112 1.384 . S
C1114 C1115 1.372 . S
C1115 C1114 1.372 . S
C1115 C1116 1.400 . S
C1115 C1120 1.490 . S
C1116 H1106 0.930 . S
C1116 C1115 1.400 . S
C1116 C1119 1.386 . S
H1117 C1133 0.930 . S
H1118 C1134 0.931 . S
C1119 H1107 0.929 . S
C1119 C1113 1.390 . S
C1119 C1116 1.386 . S
C1120 C1115 1.490 . S
C1120 C1122 1.395 . S
C1120 C1123 1.403 . S
H1121 C1127 0.930 . S
C1122 H1108 0.930 . S
C1122 C1120 1.395 . S
C1122 C1125 1.403 . S
C1123 C1120 1.403 . S
C1123 C1124 1.524 . S
C1123 C1127 1.400 . S
C1124 H1109 0.960 . S
C1124 H1110 0.960 . S
C1124 H1111 0.960 . S
C1124 C1123 1.524 . S
C1125 C1122 1.403 . S
C1125 C1126 1.392 . S
C1125 C1129 1.495 . S
C1126 C1125 1.392 . S
C1126 C1127 1.385 . S
C1126 C1128 1.478 . S
C1127 H1121 0.930 . S
C1127 C1123 1.400 . S
C1127 C1126 1.385 . S
C1128 C1126 1.478 . S
C1128 C1130 1.381 . S
C1128 C1134 1.383 . S
C1129 C1125 1.495 . S
C1129 H1135 0.959 . S
C1129 H1136 0.961 . S
C1129 H1137 0.960 . S
C1130 C1128 1.381 . S
C1130 C1131 1.394 . S
C1130 H1138 0.930 . S
C1131 C1130 1.394 . S
C1131 C1132 1.383 . S
C1131 H1139 0.929 . S
C1132 C1131 1.383 . S
C1132 C1133 1.377 . S
C1133 H1117 0.930 . S
C1133 C1132 1.377 . S
C1133 C1134 1.379 . S
C1134 H1118 0.931 . S
C1134 C1128 1.383 . S
C1134 C1133 1.379 . S
H1135 C1129 0.959 . S
H1136 C1129 0.961 . S
H1137 C1129 0.960 . S
H1138 C1130 0.930 . S
H1139 C1131 0.929 . S
H1140 C1148 0.929 . S
H1141 C1150 0.930 1_556 S
H1142 C1152 0.930 . S
H1143 C1155 0.929 . S
H1144 C1158 0.930 1_554 S
H1145 C1160 0.960 . S
H1146 C1160 0.960 . S
H1147 C1160 0.960 . S
C1148 H1140 0.929 . S
C1148 C1149 1.417 . S
C1148 C1150 1.384 . S
C1149 C1148 1.417 . S
C1149 C1155 1.352 1_455 S
C1150 H1141 0.930 1_554 S
C1150 C1148 1.384 . S
C1150 C1151 1.372 . S
C1151 C1150 1.372 . S
C1151 C1152 1.400 1_455 S
C1151 C1156 1.490 1_554 S
C1152 H1142 0.930 . S
C1152 C1151 1.400 1_655 S
C1152 C1155 1.386 . S
H1153 C1169 0.930 . S
H1154 C1170 0.931 . S
C1155 H1143 0.929 . S
C1155 C1149 1.352 1_655 S
C1155 C1152 1.386 . S
C1156 C1151 1.490 1_556 S
C1156 C1158 1.395 . S
C1156 C1159 1.403 1_455 S
H1157 C1163 0.930 . S
C1158 H1144 0.930 1_556 S
C1158 C1156 1.395 . S
C1158 C1161 1.403 . S
C1159 C1156 1.403 1_655 S
C1159 C1160 1.524 . S
C1159 C1163 1.400 . S
C1160 H1145 0.960 . S
C1160 H1146 0.960 . S
C1160 H1147 0.960 . S
C1160 C1159 1.524 . S
C1161 C1158 1.403 . S
C1161 C1162 1.392 . S
C1161 C1165 1.495 . S
C1162 C1161 1.392 . S
C1162 C1163 1.385 1_455 S
C1162 C1164 1.478 . S
C1163 H1157 0.930 . S
C1163 C1159 1.400 . S
C1163 C1162 1.385 1_655 S
C1164 C1162 1.478 . S
C1164 C1166 1.381 . S
C1164 C1170 1.383 1_455 S
C1165 C1161 1.495 . S
C1165 H1171 0.959 1_556 S
C1165 H1172 0.961 . S
C1165 H1173 0.960 . S
C1166 C1164 1.381 . S
C1166 C1167 1.394 . S
C1166 H1174 0.930 . S
C1167 C1166 1.394 . S
C1167 C1168 1.383 . S
C1167 H1175 0.929 . S
C1168 C1167 1.383 . S
C1168 C1169 1.377 1_455 S
C1169 H1153 0.930 . S
C1169 C1168 1.377 1_655 S
C1169 C1170 1.379 . S
C1170 H1154 0.931 . S
C1170 C1164 1.383 1_655 S
C1170 C1169 1.379 . S
H1171 C1165 0.959 1_554 S
H1172 C1165 0.961 . S
H1173 C1165 0.960 . S
H1174 C1166 0.930 . S
H1175 C1167 0.929 . S
H1176 C1184 0.929 . S
H1177 C1186 0.930 . S
H1178 C1188 0.930 . S
H1179 C1191 0.929 . S
H1180 C1194 0.930 . S
H1181 C1196 0.960 . S
H1182 C1196 0.960 . S
H1183 C1196 0.960 . S
C1184 H1176 0.929 . S
C1184 C1185 1.377 . S
C1184 C1186 1.384 . S
C1185 C1184 1.377 . S
C1185 C1191 1.390 . S
C1186 H1177 0.930 . S
C1186 C1184 1.384 . S
C1186 C1187 1.372 . S
C1187 C1186 1.372 . S
C1187 C1188 1.400 . S
C1187 C1192 1.490 1_554 S
C1188 H1178 0.930 . S
C1188 C1187 1.400 . S
C1188 C1191 1.386 . S
H1189 C1205 0.930 . S
H1190 C1206 0.931 . S
C1191 H1179 0.929 . S
C1191 C1185 1.390 . S
C1191 C1188 1.386 . S
C1192 C1187 1.490 1_556 S
C1192 C1194 1.395 1_556 S
C1192 C1195 1.403 . S
H1193 C1199 0.930 . S
C1194 H1180 0.930 . S
C1194 C1192 1.395 1_554 S
C1194 C1197 1.403 1_554 S
C1195 C1192 1.403 . S
C1195 C1196 1.524 . S
C1195 C1199 1.400 . S
C1196 H1181 0.960 . S
C1196 H1182 0.960 . S
C1196 H1183 0.960 . S
C1196 C1195 1.524 . S
C1197 C1194 1.403 1_556 S
C1197 C1198 1.392 . S
C1197 C1201 1.495 1_556 S
C1198 C1197 1.392 . S
C1198 C1199 1.385 . S
C1198 C1200 1.478 . S
C1199 H1193 0.930 . S
C1199 C1195 1.400 . S
C1199 C1198 1.385 . S
C1200 C1198 1.478 . S
C1200 C1202 1.381 . S
C1200 C1206 1.383 . S
C1201 C1197 1.495 1_554 S
C1201 H1207 0.959 . S
C1201 H1208 0.961 . S
C1201 H1209 0.960 1_554 S
C1202 C1200 1.381 . S
C1202 C1203 1.394 . S
C1202 H1210 0.930 . S
C1203 C1202 1.394 . S
C1203 C1204 1.383 . S
C1203 H1211 0.929 . S
C1204 C1203 1.383 . S
C1204 C1205 1.377 . S
C1205 H1189 0.930 . S
C1205 C1204 1.377 . S
C1205 C1206 1.379 . S
C1206 H1190 0.931 . S
C1206 C1200 1.383 . S
C1206 C1205 1.379 . S
H1207 C1201 0.959 . S
H1208 C1201 0.961 . S
H1209 C1201 0.960 1_556 S
H1210 C1202 0.930 . S
H1211 C1203 0.929 . S
H1212 C1220 0.929 . S
H1213 C1222 0.930 . S
H1214 C1224 0.930 . S
H1215 C1227 0.929 . S
H1216 C1230 0.930 . S
H1217 C1232 0.960 . S
H1218 C1232 0.960 . S
H1219 C1232 0.960 . S
C1220 H1212 0.929 . S
C1220 C1221 1.377 . S
C1220 C1222 1.384 1_554 S
C1221 C1220 1.377 . S
C1221 C1227 1.390 . S
C1222 H1213 0.930 . S
C1222 C1220 1.384 1_556 S
C1222 C1223 1.372 1_556 S
C1223 C1222 1.372 1_554 S
C1223 C1224 1.400 . S
C1223 C1228 1.490 1_554 S
C1224 H1214 0.930 . S
C1224 C1223 1.400 . S
C1224 C1227 1.386 . S
H1225 C1241 0.930 . S
H1226 C1242 0.931 . S
C1227 H1215 0.929 . S
C1227 C1221 1.390 . S
C1227 C1224 1.386 . S
C1228 C1223 1.490 1_556 S
C1228 C1230 1.395 . S
C1228 C1231 1.403 . S
H1229 C1235 0.930 . S
C1230 H1216 0.930 . S
C1230 C1228 1.395 . S
C1230 C1233 1.403 . S
C1231 C1228 1.403 . S
C1231 C1232 1.524 1_556 S
C1231 C1235 1.400 . S
C1232 H1217 0.960 . S
C1232 H1218 0.960 . S
C1232 H1219 0.960 . S
C1232 C1231 1.524 1_554 S
C1233 C1230 1.403 . S
C1233 C1234 1.392 . S
C1233 C1237 1.495 . S
C1234 C1233 1.392 . S
C1234 C1235 1.385 . S
C1234 C1236 1.478 . S
C1235 H1229 0.930 . S
C1235 C1231 1.400 . S
C1235 C1234 1.385 . S
C1236 C1234 1.478 . S
C1236 C1238 1.381 . S
C1236 C1242 1.383 . S
C1237 C1233 1.495 . S
C1237 H1243 0.959 . S
C1237 H1244 0.961 . S
C1237 H1245 0.960 . S
C1238 C1236 1.381 . S
C1238 C1239 1.394 . S
C1238 H1246 0.930 . S
C1239 C1238 1.394 . S
C1239 C1240 1.383 . S
C1239 H1247 0.929 . S
C1240 C1239 1.383 . S
C1240 C1241 1.377 . S
C1241 H1225 0.930 . S
C1241 C1240 1.377 . S
C1241 C1242 1.379 . S
C1242 H1226 0.931 . S
C1242 C1236 1.383 . S
C1242 C1241 1.379 . S
H1243 C1237 0.959 . S
H1244 C1237 0.961 . S
H1245 C1237 0.960 . S
H1246 C1238 0.930 . S
H1247 C1239 0.929 . S
H1248 C1256 0.929 . S
H1249 C1258 0.930 . S
H1250 C1260 0.921 1_556 S
H1251 C1263 0.929 . S
H1252 C1266 0.930 . S
H1253 C1268 0.960 . S
H1254 C1268 0.960 . S
H1255 C1268 0.960 . S
C1256 H1248 0.929 . S
C1256 C1257 1.377 . S
C1256 C1258 1.384 . S
C1257 C1256 1.377 . S
C1257 C1263 1.390 . S
C1258 H1249 0.930 . S
C1258 C1256 1.384 . S
C1258 C1259 1.372 . S
C1259 C1258 1.372 . S
C1259 C1260 1.403 . S
C1259 C1264 1.490 1_554 S
C1260 H1250 0.921 1_554 S
C1260 C1259 1.403 . S
C1260 C1263 1.391 . S
H1261 C1277 0.930 . S
H1262 C1278 0.931 . S
C1263 H1251 0.929 . S
C1263 C1257 1.390 . S
C1263 C1260 1.391 . S
C1264 C1259 1.490 1_556 S
C1264 C1266 1.395 1_556 S
C1264 C1267 1.403 . S
H1265 C1271 0.930 . S
C1266 H1252 0.930 . S
C1266 C1264 1.395 1_554 S
C1266 C1269 1.403 1_554 S
C1267 C1264 1.403 . S
C1267 C1268 1.524 . S
C1267 C1271 1.400 . S
C1268 H1253 0.960 . S
C1268 H1254 0.960 . S
C1268 H1255 0.960 . S
C1268 C1267 1.524 . S
C1269 C1266 1.403 1_556 S
C1269 C1270 1.392 . S
C1269 C1273 1.495 1_556 S
C1270 C1269 1.392 . S
C1270 C1271 1.385 . S
C1270 C1272 1.478 . S
C1271 H1265 0.930 . S
C1271 C1267 1.400 . S
C1271 C1270 1.385 . S
C1272 C1270 1.478 . S
C1272 C1274 1.381 . S
C1272 C1278 1.383 . S
C1273 C1269 1.495 1_554 S
C1273 H1279 0.959 . S
C1273 H1280 0.961 1_554 S
C1273 H1281 0.960 . S
C1274 C1272 1.381 . S
C1274 C1275 1.394 . S
C1274 H1282 0.930 . S
C1275 C1274 1.394 . S
C1275 C1276 1.383 . S
C1275 H1283 0.929 . S
C1276 C1275 1.383 . S
C1276 C1277 1.377 . S
C1277 H1261 0.930 . S
C1277 C1276 1.377 . S
C1277 C1278 1.379 . S
C1278 H1262 0.931 . S
C1278 C1272 1.383 . S
C1278 C1277 1.379 . S
H1279 C1273 0.959 . S
H1280 C1273 0.961 1_556 S
H1281 C1273 0.960 . S
H1282 C1274 0.930 . S
H1283 C1275 0.929 . S
H1284 C1292 0.929 . S
H1285 C1294 0.930 . S
H1286 C1296 0.930 . S
H1287 C1299 0.929 . S
H1288 C1302 0.944 . S
H1289 C1304 0.960 . S
H1290 C1304 0.960 . S
H1291 C1304 0.960 . S
C1292 H1284 0.929 . S
C1292 C1293 1.377 . S
C1292 C1294 1.384 . S
C1293 C1292 1.377 . S
C1293 C1299 1.390 1_655 S
C1294 H1285 0.930 . S
C1294 C1292 1.384 . S
C1294 C1295 1.372 . S
C1295 C1294 1.372 . S
C1295 C1296 1.400 1_655 S
C1295 C1300 1.490 . S
C1296 H1286 0.930 . S
C1296 C1295 1.400 1_455 S
C1296 C1299 1.386 . S
H1297 C1313 0.930 . S
H1298 C1314 0.931 . S
C1299 H1287 0.929 . S
C1299 C1293 1.390 1_455 S
C1299 C1296 1.386 . S
C1300 C1295 1.490 . S
C1300 C1302 1.382 1_655 S
C1300 C1303 1.403 . S
H1301 C1307 0.930 . S
C1302 H1288 0.944 . S
C1302 C1300 1.382 1_455 S
C1302 C1305 1.403 . S
C1303 C1300 1.403 . S
C1303 C1304 1.524 . S
C1303 C1307 1.400 . S
C1304 H1289 0.960 . S
C1304 H1290 0.960 . S
C1304 H1291 0.960 . S
C1304 C1303 1.524 . S
C1305 C1302 1.403 . S
C1305 C1306 1.381 1_455 S
C1305 C1309 1.511 . S
C1306 C1305 1.381 1_655 S
C1306 C1307 1.385 . S
C1306 C1308 1.478 . S
C1307 H1301 0.930 . S
C1307 C1303 1.400 . S
C1307 C1306 1.385 . S
C1308 C1306 1.478 . S
C1308 C1310 1.381 . S
C1308 C1314 1.383 1_655 S
C1309 C1305 1.511 . S
C1309 H1315 0.959 . S
C1309 H1316 0.961 . S
C1309 H1317 0.960 1_455 S
C1310 C1308 1.381 . S
C1310 C1311 1.394 . S
C1310 H1318 0.930 . S
C1311 C1310 1.394 . S
C1311 C1312 1.383 . S
C1311 H1319 0.929 . S
C1312 C1311 1.383 . S
C1312 C1313 1.377 1_655 S
C1313 H1297 0.930 . S
C1313 C1312 1.377 1_455 S
C1313 C1314 1.379 . S
C1314 H1298 0.931 . S
C1314 C1308 1.383 1_455 S
C1314 C1313 1.379 . S
H1315 C1309 0.959 . S
H1316 C1309 0.961 . S
H1317 C1309 0.960 1_655 S
H1318 C1310 0.930 . S
H1319 C1311 0.929 . S
H1320 C1328 0.929 . S
H1321 C1330 0.930 . S
H1322 C1332 0.930 . S
H1323 C1335 0.929 . S
H1324 C1338 0.930 . S
H1325 C1340 0.960 . S
H1326 C1340 0.960 . S
H1327 C1340 0.960 . S
C1328 H1320 0.929 . S
C1328 C1329 1.377 . S
C1328 C1330 1.384 . S
C1329 C1328 1.377 . S
C1329 C1335 1.390 . S
C1330 H1321 0.930 . S
C1330 C1328 1.384 . S
C1330 C1331 1.372 . S
C1331 C1330 1.372 . S
C1331 C1332 1.400 . S
C1331 C1336 1.490 . S
C1332 H1322 0.930 . S
C1332 C1331 1.400 . S
C1332 C1335 1.386 . S
H1333 C1349 0.930 . S
H1334 C1350 0.931 . S
C1335 H1323 0.929 . S
C1335 C1329 1.390 . S
C1335 C1332 1.386 . S
C1336 C1331 1.490 . S
C1336 C1338 1.395 . S
C1336 C1339 1.403 . S
H1337 C1343 0.930 . S
C1338 H1324 0.930 . S
C1338 C1336 1.395 . S
C1338 C1341 1.403 . S
C1339 C1336 1.403 . S
C1339 C1340 1.524 . S
C1339 C1343 1.400 . S
C1340 H1325 0.960 . S
C1340 H1326 0.960 . S
C1340 H1327 0.960 . S
C1340 C1339 1.524 . S
C1341 C1338 1.403 . S
C1341 C1342 1.392 . S
C1341 C1345 1.495 . S
C1342 C1341 1.392 . S
C1342 C1343 1.385 . S
C1342 C1344 1.478 . S
C1343 H1337 0.930 . S
C1343 C1339 1.400 . S
C1343 C1342 1.385 . S
C1344 C1342 1.478 . S
C1344 C1346 1.381 . S
C1344 C1350 1.383 . S
C1345 C1341 1.495 . S
C1345 H1351 0.959 . S
C1345 H1352 0.961 . S
C1345 H1353 0.960 . S
C1346 C1344 1.381 . S
C1346 C1347 1.394 . S
C1346 H1354 0.930 . S
C1347 C1346 1.394 . S
C1347 C1348 1.383 . S
C1347 H1355 0.929 . S
C1348 C1347 1.383 . S
C1348 C1349 1.377 . S
C1349 H1333 0.930 . S
C1349 C1348 1.377 . S
C1349 C1350 1.379 . S
C1350 H1334 0.931 . S
C1350 C1344 1.383 . S
C1350 C1349 1.379 . S
H1351 C1345 0.959 . S
H1352 C1345 0.961 . S
H1353 C1345 0.960 . S
H1354 C1346 0.930 . S
H1355 C1347 0.929 . S
H1356 C1364 0.929 . S
H1357 C1366 0.930 . S
H1358 C1368 0.930 . S
H1359 C1371 0.929 . S
H1360 C1374 0.930 . S
H1361 C1376 0.960 . S
H1362 C1376 0.960 . S
H1363 C1376 0.960 . S
C1364 H1356 0.929 . S
C1364 C1365 1.377 . S
C1364 C1366 1.384 . S
C1365 C1364 1.377 . S
C1365 C1371 1.390 . S
C1366 H1357 0.930 . S
C1366 C1364 1.384 . S
C1366 C1367 1.372 . S
C1367 C1366 1.372 . S
C1367 C1368 1.400 . S
C1367 C1372 1.490 . S
C1368 H1358 0.930 . S
C1368 C1367 1.400 . S
C1368 C1371 1.386 . S
H1369 C1385 0.930 . S
H1370 C1386 0.931 . S
C1371 H1359 0.929 . S
C1371 C1365 1.390 . S
C1371 C1368 1.386 . S
C1372 C1367 1.490 . S
C1372 C1374 1.395 . S
C1372 C1375 1.403 . S
H1373 C1379 0.930 . S
C1374 H1360 0.930 . S
C1374 C1372 1.395 . S
C1374 C1377 1.403 . S
C1375 C1372 1.403 . S
C1375 C1376 1.524 . S
C1375 C1379 1.400 . S
C1376 H1361 0.960 . S
C1376 H1362 0.960 . S
C1376 H1363 0.960 . S
C1376 C1375 1.524 . S
C1377 C1374 1.403 . S
C1377 C1378 1.392 . S
C1377 C1381 1.495 . S
C1378 C1377 1.392 . S
C1378 C1379 1.385 . S
C1378 C1380 1.478 . S
C1379 H1373 0.930 . S
C1379 C1375 1.400 . S
C1379 C1378 1.385 . S
C1380 C1378 1.478 . S
C1380 C1382 1.381 . S
C1380 C1386 1.383 . S
C1381 C1377 1.495 . S
C1381 H1387 0.959 . S
C1381 H1388 0.961 . S
C1381 H1389 0.960 . S
C1382 C1380 1.381 . S
C1382 C1383 1.394 . S
C1382 H1390 0.930 . S
C1383 C1382 1.394 . S
C1383 C1384 1.383 . S
C1383 H1391 0.929 . S
C1384 C1383 1.383 . S
C1384 C1385 1.377 . S
C1385 H1369 0.930 . S
C1385 C1384 1.377 . S
C1385 C1386 1.379 . S
C1386 H1370 0.931 . S
C1386 C1380 1.383 . S
C1386 C1385 1.379 . S
H1387 C1381 0.959 . S
H1388 C1381 0.961 . S
H1389 C1381 0.960 . S
H1390 C1382 0.930 . S
H1391 C1383 0.929 . S
H1392 C1400 0.929 . S
H1393 C1402 0.930 . S
H1394 C1404 0.930 . S
H1395 C1407 0.929 . S
H1396 C1410 0.930 . S
H1397 C1412 0.960 . S
H1398 C1412 0.960 . S
H1399 C1412 0.960 . S
C1400 H1392 0.929 . S
C1400 C1401 1.377 . S
C1400 C1402 1.384 . S
C1401 C1400 1.377 . S
C1401 C1407 1.390 . S
C1402 H1393 0.930 . S
C1402 C1400 1.384 . S
C1402 C1403 1.372 . S
C1403 C1402 1.372 . S
C1403 C1404 1.400 . S
C1403 C1408 1.490 . S
C1404 H1394 0.930 . S
C1404 C1403 1.400 . S
C1404 C1407 1.386 . S
H1405 C1421 0.930 . S
H1406 C1422 0.931 . S
C1407 H1395 0.929 . S
C1407 C1401 1.390 . S
C1407 C1404 1.386 . S
C1408 C1403 1.490 . S
C1408 C1410 1.395 . S
C1408 C1411 1.403 . S
H1409 C1415 0.930 . S
C1410 H1396 0.930 . S
C1410 C1408 1.395 . S
C1410 C1413 1.403 . S
C1411 C1408 1.403 . S
C1411 C1412 1.524 . S
C1411 C1415 1.400 . S
C1412 H1397 0.960 . S
C1412 H1398 0.960 . S
C1412 H1399 0.960 . S
C1412 C1411 1.524 . S
C1413 C1410 1.403 . S
C1413 C1414 1.392 . S
C1413 C1417 1.495 . S
C1414 C1413 1.392 . S
C1414 C1415 1.385 . S
C1414 C1416 1.478 . S
C1415 H1409 0.930 . S
C1415 C1411 1.400 . S
C1415 C1414 1.385 . S
C1416 C1414 1.478 . S
C1416 C1418 1.381 . S
C1416 C1422 1.383 . S
C1417 C1413 1.495 . S
C1417 H1423 0.959 . S
C1417 H1424 0.961 . S
C1417 H1425 0.960 . S
C1418 C1416 1.381 . S
C1418 C1419 1.394 . S
C1418 H1426 0.930 . S
C1419 C1418 1.394 . S
C1419 C1420 1.383 . S
C1419 H1427 0.929 . S
C1420 C1419 1.383 . S
C1420 C1421 1.377 . S
C1421 H1405 0.930 . S
C1421 C1420 1.377 . S
C1421 C1422 1.379 . S
C1422 H1406 0.931 . S
C1422 C1416 1.383 . S
C1422 C1421 1.379 . S
H1423 C1417 0.959 . S
H1424 C1417 0.961 . S
H1425 C1417 0.960 . S
H1426 C1418 0.930 . S
H1427 C1419 0.929 . S
C573 C391 1.966 . S
C592 C495 1.795 . S
C628 C519 1.261 . S
C609 C451 1.494 . S
C664 C540 1.737 . S
C645 C241 1.755 . S
C700 C558 1.290 . S
C681 C331 1.401 1_455 S
C736 C498 1.680 1_565 S
C717 C121 1.765 . S
C753 C211 1.408 . S
C772 C516 1.205 . S
C789 C31 1.779 . S
C808 C537 1.696 . S
C825 C91 1.314 1_455 S
C844 C561 1.187 . S
C880 C496 0.460 . S
C861 C301 0.660 1_455 S
C916 C514 0.527 . S
C897 C380 0.367 . S
C952 C535 0.504 . S
C933 C440 0.244 . S
C969 C260 0.677 . S
C988 C559 0.369 . S
C1005 C61 0.548 . S
C1024 C494 0.421 . S
C1060 C518 0.479 . S
C1041 C140 0.550 . S
C1096 C539 0.321 . S
C1077 C200 0.148 . S
C1113 C20 0.541 . S
C1132 C557 0.310 . S
C1149 C320 1.905 1_455 S
C1168 C497 1.865 . S
C1185 C361 2.009 . S
C1204 C515 2.117 . S
C1240 C536 1.791 . S
C1221 C421 1.662 . S
C1276 C560 2.136 . S
C1257 C271 2.157 . S
C1293 C80 1.744 . S
C1312 C493 1.665 . S
C1348 C517 1.949 . S
C1329 C151 2.033 . S
C1384 C538 1.633 . S
C1365 C181 1.524 . S
C1401 C1 1.817 . S
C1420 C556 1.967 . S
