# Generated by pormake.
# Topology ctn, (3,4)-cn, num edge types: 1
# Building blocks:
#     Node 0, Type 0, BuildingBlock: CUQRIR_clean_linker_1, # of connection points: 3
#     Node 1, Type 0, BuildingBlock: CUQRIR_clean_linker_1, # of connection points: 3
#     Node 2, Type 0, BuildingBlock: CUQRIR_clean_linker_1, # of connection points: 3
#     Node 3, Type 0, BuildingBlock: CUQRIR_clean_linker_1, # of connection points: 3
#     Node 4, Type 0, BuildingBlock: CUQRIR_clean_linker_1, # of connection points: 3
#     Node 5, Type 0, BuildingBlock: CUQRIR_clean_linker_1, # of connection points: 3
#     Node 6, Type 0, BuildingBlock: CUQRIR_clean_linker_1, # of connection points: 3
#     Node 7, Type 0, BuildingBlock: CUQRIR_clean_linker_1, # of connection points: 3
#     Node 8, Type 0, BuildingBlock: CUQRIR_clean_linker_1, # of connection points: 3
#     Node 9, Type 0, BuildingBlock: CUQRIR_clean_linker_1, # of connection points: 3
#     Node 10, Type 0, BuildingBlock: CUQRIR_clean_linker_1, # of connection points: 3
#     Node 11, Type 0, BuildingBlock: CUQRIR_clean_linker_1, # of connection points: 3
#     Node 12, Type 0, BuildingBlock: CUQRIR_clean_linker_1, # of connection points: 3
#     Node 13, Type 0, BuildingBlock: CUQRIR_clean_linker_1, # of connection points: 3
#     Node 14, Type 0, BuildingBlock: CUQRIR_clean_linker_1, # of connection points: 3
#     Node 15, Type 0, BuildingBlock: CUQRIR_clean_linker_1, # of connection points: 3
#     Node 16, Type 1, BuildingBlock: QUQFOY_clean_sbu_1, # of connection points: 4
#     Node 17, Type 1, BuildingBlock: QUQFOY_clean_sbu_1, # of connection points: 4
#     Node 18, Type 1, BuildingBlock: QUQFOY_clean_sbu_1, # of connection points: 4
#     Node 19, Type 1, BuildingBlock: QUQFOY_clean_sbu_1, # of connection points: 4
#     Node 20, Type 1, BuildingBlock: QUQFOY_clean_sbu_1, # of connection points: 4
#     Node 21, Type 1, BuildingBlock: QUQFOY_clean_sbu_1, # of connection points: 4
#     Node 22, Type 1, BuildingBlock: QUQFOY_clean_sbu_1, # of connection points: 4
#     Node 23, Type 1, BuildingBlock: QUQFOY_clean_sbu_1, # of connection points: 4
#     Node 24, Type 1, BuildingBlock: QUQFOY_clean_sbu_1, # of connection points: 4
#     Node 25, Type 1, BuildingBlock: QUQFOY_clean_sbu_1, # of connection points: 4
#     Node 26, Type 1, BuildingBlock: QUQFOY_clean_sbu_1, # of connection points: 4
#     Node 27, Type 1, BuildingBlock: QUQFOY_clean_sbu_1, # of connection points: 4
#     Edge 28, Type (0, 1), BuildingBlock: OJICUG_clean_linker_0, # of connection points: 2
#     Edge 29, Type (0, 1), BuildingBlock: OJICUG_clean_linker_0, # of connection points: 2
#     Edge 30, Type (0, 1), BuildingBlock: OJICUG_clean_linker_0, # of connection points: 2
#     Edge 31, Type (0, 1), BuildingBlock: OJICUG_clean_linker_0, # of connection points: 2
#     Edge 32, Type (0, 1), BuildingBlock: OJICUG_clean_linker_0, # of connection points: 2
#     Edge 33, Type (0, 1), BuildingBlock: OJICUG_clean_linker_0, # of connection points: 2
#     Edge 34, Type (0, 1), BuildingBlock: OJICUG_clean_linker_0, # of connection points: 2
#     Edge 35, Type (0, 1), BuildingBlock: OJICUG_clean_linker_0, # of connection points: 2
#     Edge 36, Type (0, 1), BuildingBlock: OJICUG_clean_linker_0, # of connection points: 2
#     Edge 37, Type (0, 1), BuildingBlock: OJICUG_clean_linker_0, # of connection points: 2
#     Edge 38, Type (0, 1), BuildingBlock: OJICUG_clean_linker_0, # of connection points: 2
#     Edge 39, Type (0, 1), BuildingBlock: OJICUG_clean_linker_0, # of connection points: 2
#     Edge 40, Type (0, 1), BuildingBlock: OJICUG_clean_linker_0, # of connection points: 2
#     Edge 41, Type (0, 1), BuildingBlock: OJICUG_clean_linker_0, # of connection points: 2
#     Edge 42, Type (0, 1), BuildingBlock: OJICUG_clean_linker_0, # of connection points: 2
#     Edge 43, Type (0, 1), BuildingBlock: OJICUG_clean_linker_0, # of connection points: 2
#     Edge 44, Type (0, 1), BuildingBlock: OJICUG_clean_linker_0, # of connection points: 2
#     Edge 45, Type (0, 1), BuildingBlock: OJICUG_clean_linker_0, # of connection points: 2
#     Edge 46, Type (0, 1), BuildingBlock: OJICUG_clean_linker_0, # of connection points: 2
#     Edge 47, Type (0, 1), BuildingBlock: OJICUG_clean_linker_0, # of connection points: 2
#     Edge 48, Type (0, 1), BuildingBlock: OJICUG_clean_linker_0, # of connection points: 2
#     Edge 49, Type (0, 1), BuildingBlock: OJICUG_clean_linker_0, # of connection points: 2
#     Edge 50, Type (0, 1), BuildingBlock: OJICUG_clean_linker_0, # of connection points: 2
#     Edge 51, Type (0, 1), BuildingBlock: OJICUG_clean_linker_0, # of connection points: 2
#     Edge 52, Type (0, 1), BuildingBlock: OJICUG_clean_linker_0, # of connection points: 2
#     Edge 53, Type (0, 1), BuildingBlock: OJICUG_clean_linker_0, # of connection points: 2
#     Edge 54, Type (0, 1), BuildingBlock: OJICUG_clean_linker_0, # of connection points: 2
#     Edge 55, Type (0, 1), BuildingBlock: OJICUG_clean_linker_0, # of connection points: 2
#     Edge 56, Type (0, 1), BuildingBlock: OJICUG_clean_linker_0, # of connection points: 2
#     Edge 57, Type (0, 1), BuildingBlock: OJICUG_clean_linker_0, # of connection points: 2
#     Edge 58, Type (0, 1), BuildingBlock: OJICUG_clean_linker_0, # of connection points: 2
#     Edge 59, Type (0, 1), BuildingBlock: OJICUG_clean_linker_0, # of connection points: 2
#     Edge 60, Type (0, 1), BuildingBlock: OJICUG_clean_linker_0, # of connection points: 2
#     Edge 61, Type (0, 1), BuildingBlock: OJICUG_clean_linker_0, # of connection points: 2
#     Edge 62, Type (0, 1), BuildingBlock: OJICUG_clean_linker_0, # of connection points: 2
#     Edge 63, Type (0, 1), BuildingBlock: OJICUG_clean_linker_0, # of connection points: 2
#     Edge 64, Type (0, 1), BuildingBlock: OJICUG_clean_linker_0, # of connection points: 2
#     Edge 65, Type (0, 1), BuildingBlock: OJICUG_clean_linker_0, # of connection points: 2
#     Edge 66, Type (0, 1), BuildingBlock: OJICUG_clean_linker_0, # of connection points: 2
#     Edge 67, Type (0, 1), BuildingBlock: OJICUG_clean_linker_0, # of connection points: 2
#     Edge 68, Type (0, 1), BuildingBlock: OJICUG_clean_linker_0, # of connection points: 2
#     Edge 69, Type (0, 1), BuildingBlock: OJICUG_clean_linker_0, # of connection points: 2
#     Edge 70, Type (0, 1), BuildingBlock: OJICUG_clean_linker_0, # of connection points: 2
#     Edge 71, Type (0, 1), BuildingBlock: OJICUG_clean_linker_0, # of connection points: 2
#     Edge 72, Type (0, 1), BuildingBlock: OJICUG_clean_linker_0, # of connection points: 2
#     Edge 73, Type (0, 1), BuildingBlock: OJICUG_clean_linker_0, # of connection points: 2
#     Edge 74, Type (0, 1), BuildingBlock: OJICUG_clean_linker_0, # of connection points: 2
#     Edge 75, Type (0, 1), BuildingBlock: OJICUG_clean_linker_0, # of connection points: 2
# Relax obj value: 0.113
# Max RMSD: 0.207
# Mean RMSD: 0.152
data_MOF--net-ctn--node1-QUQFOY_clean_sbu_1--node2-CUQRIR_clean_linker_1--edge1-OJICUG_clean_linker_0
_symmetry_space_group_name_H-M    P1
_symmetry_Int_Tables_number       1
_symmetry_cell_setting            triclinic
loop_
_symmetry_equiv_pos_as_xyz
'x, y, z'
_cell_length_a     37.139439
_cell_length_b     33.652187
_cell_length_c     35.240862
_cell_angle_alpha  100.83417
_cell_angle_beta   88.080773
_cell_angle_gamma 98.420983
loop_
_atom_site_label
_atom_site_type_symbol
_atom_site_fract_x
_atom_site_fract_y
_atom_site_fract_z
_atom_type_partial_charge
C0 C 0.04886 0.05717 0.11953 0.0
N1 N 0.06078 0.06342 0.08402 0.0
N2 N 0.0161 0.06994 0.12766 0.0
C3 C 0.06806 0.03594 0.14525 0.0
C4 C 0.00818 0.08379 0.09584 0.0
N5 N 0.03496 0.0792 0.06896 0.0
C6 C 0.97351 0.10036 0.09043 0.0
H7 H 0.07455 0.00636 0.12869 0.0
H8 H 0.05182 0.03056 0.1712 0.0
H9 H 0.09405 0.05514 0.15529 0.0
H10 H 0.96035 0.11115 0.11837 0.0
H11 H 0.95417 0.07577 0.07333 0.0
H12 H 0.97898 0.12606 0.07444 0.0
C13 C 0.28111 0.75729 0.23316 0.0
N14 N 0.29287 0.73754 0.25953 0.0
N15 N 0.30381 0.79224 0.23146 0.0
C16 C 0.24754 0.74237 0.20878 0.0
C17 C 0.32983 0.79319 0.25777 0.0
N18 N 0.32286 0.76027 0.2754 0.0
C19 C 0.36249 0.82572 0.26552 0.0
H20 H 0.25471 0.72135 0.18233 0.0
H21 H 0.23642 0.76787 0.1997 0.0
H22 H 0.22605 0.72556 0.22475 0.0
H23 H 0.35689 0.84854 0.2913 0.0
H24 H 0.36856 0.84199 0.24098 0.0
H25 H 0.38674 0.81222 0.27155 0.0
C26 C 0.96217 0.52322 0.09751 0.0
N27 N 0.98303 0.49355 0.09877 0.0
N28 N 0.93791 0.51155 0.06816 0.0
C29 C 0.96338 0.56207 0.12698 0.0
C30 C 0.94457 0.47347 0.0519 0.0
N31 N 0.97149 0.46235 0.07082 0.0
C32 C 0.92711 0.44839 0.01543 0.0
H33 H 0.93625 0.57245 0.13044 0.0
H34 H 0.98305 0.58634 0.1173 0.0
H35 H 0.97239 0.55762 0.15541 0.0
H36 H 0.91892 0.46826 0.99642 0.0
H37 H 0.90255 0.42844 0.02321 0.0
H38 H 0.94585 0.42848 0.99905 0.0
C39 C 0.70516 0.73725 0.26203 0.0
N40 N 0.73453 0.76366 0.25464 0.0
N41 N 0.6922 0.74889 0.29816 0.0
C42 C 0.68595 0.70373 0.23219 0.0
C43 C 0.71476 0.78345 0.31224 0.0
N44 N 0.73984 0.79316 0.28553 0.0
C45 C 0.71001 0.80939 0.35135 0.0
H46 H 0.66603 0.6827 0.24587 0.0
H47 H 0.70599 0.68626 0.21499 0.0
H48 H 0.67137 0.71754 0.21213 0.0
H49 H 0.70108 0.78962 0.37279 0.0
H50 H 0.68848 0.82865 0.34977 0.0
H51 H 0.73572 0.82938 0.36124 0.0
C52 C 0.01677 0.01403 0.53136 0.0
N53 N 0.04951 0.01608 0.54825 0.0
N54 N 0.02016 0.03449 0.50158 0.0
C55 C 0.98223 0.98828 0.54116 0.0
C56 C 0.0561 0.04849 0.50038 0.0
N57 N 0.07408 0.03695 0.52832 0.0
C58 C 0.07371 0.07384 0.472 0.0
H59 H 0.96341 0.97934 0.51626 0.0
H60 H 0.9683 1.00618 0.56545 0.0
H61 H 0.98825 0.96014 0.55026 0.0
H62 H 0.09565 0.09747 0.48605 0.0
H63 H 0.05351 0.08902 0.45964 0.0
H64 H 0.08618 0.05368 0.44819 0.0
C65 C 0.18411 0.75262 0.83021 0.0
N66 N 0.20725 0.73734 0.85061 0.0
N67 N 0.18281 0.73306 0.79305 0.0
C68 C 0.16231 0.78644 0.84666 0.0
C69 C 0.20608 0.70535 0.79138 0.0
N70 N 0.22176 0.70867 0.82626 0.0
C71 C 0.21197 0.67375 0.75631 0.0
H72 H 0.13704 0.77318 0.86007 0.0
H73 H 0.15443 0.80236 0.82413 0.0
H74 H 0.17802 0.80935 0.86911 0.0
H75 H 0.18975 0.66955 0.73506 0.0
H76 H 0.21412 0.64407 0.76482 0.0
H77 H 0.2379 0.68387 0.74209 0.0
C78 C 0.93781 0.56931 0.44015 0.0
N79 N 0.96403 0.60213 0.444 0.0
N80 N 0.90782 0.57862 0.4606 0.0
C81 C 0.94217 0.52734 0.41837 0.0
C82 C 0.91662 0.61846 0.47686 0.0
N83 N 0.95086 0.6331 0.4666 0.0
C84 C 0.89438 0.64096 0.50815 0.0
H85 H 0.91525 0.50898 0.41042 0.0
H86 H 0.95643 0.51152 0.43697 0.0
H87 H 0.95882 0.52943 0.39189 0.0
H88 H 0.91033 0.65016 0.53526 0.0
H89 H 0.86838 0.62236 0.51406 0.0
H90 H 0.88818 0.66918 0.49938 0.0
C91 C 0.77027 0.81718 0.84512 0.0
N92 N 0.80152 0.80045 0.83882 0.0
N93 N 0.76778 0.84359 0.82111 0.0
C94 C 0.7427 0.80904 0.87603 0.0
C95 C 0.79877 0.84252 0.79983 0.0
N96 N 0.8197 0.8167 0.81079 0.0
C97 C 0.80922 0.86821 0.7694 0.0
H98 H 0.7402 0.77671 0.87967 0.0
H99 H 0.71568 0.81599 0.86893 0.0
H100 H 0.75186 0.8288 0.90387 0.0
H101 H 0.82427 0.8981 0.78322 0.0
H102 H 0.78487 0.87417 0.75529 0.0
H103 H 0.82682 0.853 0.74685 0.0
C104 C 0.27299 0.31971 0.34555 0.0
N105 N 0.30356 0.30175 0.33866 0.0
N106 N 0.27077 0.34594 0.32128 0.0
C107 C 0.2457 0.31267 0.37698 0.0
C108 C 0.30121 0.34346 0.29924 0.0
N109 N 0.32154 0.31693 0.30994 0.0
C110 C 0.3118 0.3685 0.26833 0.0
H111 H 0.24271 0.28045 0.3811 0.0
H112 H 0.2188 0.32012 0.37013 0.0
H113 H 0.25543 0.33267 0.4045 0.0
H114 H 0.32769 0.3981 0.28163 0.0
H115 H 0.28749 0.37511 0.25464 0.0
H116 H 0.32867 0.35243 0.24557 0.0
C117 C 0.46591 0.02269 0.59737 0.0
N118 N 0.48347 0.99065 0.6002 0.0
N119 N 0.43682 0.01025 0.57368 0.0
C120 C 0.47791 0.06634 0.61656 0.0
C121 C 0.43695 0.96947 0.5628 0.0
N122 N 0.46502 0.9574 0.57917 0.0
C123 C 0.41099 0.9417 0.53412 0.0
H124 H 0.45514 0.08458 0.62028 0.0
H125 H 0.49891 0.08064 0.59824 0.0
H126 H 0.48986 0.06769 0.64529 0.0
H127 H 0.42561 0.9334 0.50643 0.0
H128 H 0.3872 0.95632 0.52891 0.0
H129 H 0.40091 0.91309 0.54474 0.0
C130 C 0.2144 0.2387 0.76041 0.0
N131 N 0.24341 0.26509 0.75212 0.0
N132 N 0.20154 0.25125 0.79639 0.0
C133 C 0.1952 0.20431 0.73136 0.0
C134 C 0.22386 0.2863 0.80951 0.0
N135 N 0.24863 0.29545 0.78231 0.0
C136 C 0.21891 0.31345 0.84792 0.0
H137 H 0.17988 0.21726 0.71124 0.0
H138 H 0.1759 0.18336 0.74579 0.0
H139 H 0.21528 0.18696 0.7141 0.0
H140 H 0.21008 0.29458 0.87012 0.0
H141 H 0.19724 0.33229 0.84548 0.0
H142 H 0.2445 0.3339 0.85735 0.0
C143 C 0.78613 0.24662 0.73008 0.0
N144 N 0.79902 0.22856 0.75709 0.0
N145 N 0.80791 0.28174 0.72693 0.0
C146 C 0.75224 0.22992 0.7066 0.0
C147 C 0.83456 0.28456 0.753 0.0
N148 N 0.82882 0.25256 0.772 0.0
C149 C 0.86668 0.31795 0.759 0.0
H150 H 0.75914 0.2073 0.68124 0.0
H151 H 0.74075 0.25423 0.69582 0.0
H152 H 0.73115 0.21437 0.72398 0.0
H153 H 0.86064 0.34214 0.78342 0.0
H154 H 0.87229 0.33218 0.7331 0.0
H155 H 0.89134 0.30589 0.76619 0.0
C156 C 0.55221 0.55742 0.61745 0.0
N157 N 0.55901 0.55942 0.57982 0.0
N158 N 0.52298 0.57573 0.63071 0.0
C159 C 0.57334 0.53606 0.64118 0.0
C160 C 0.51249 0.5897 0.5999 0.0
N161 N 0.53408 0.5795 0.56885 0.0
C162 C 0.47928 0.61051 0.59929 0.0
H163 H 0.5622 0.50309 0.63654 0.0
H164 H 0.57111 0.54903 0.6724 0.0
H165 H 0.60242 0.53889 0.63227 0.0
H166 H 0.47285 0.62707 0.62834 0.0
H167 H 0.45563 0.58707 0.5893 0.0
H168 H 0.48328 0.63259 0.57925 0.0
C169 C 0.51436 0.51653 0.03804 0.0
N170 N 0.54699 0.5194 0.05537 0.0
N171 N 0.51708 0.53945 0.01013 0.0
C172 C 0.4808 0.4879 0.04549 0.0
C173 C 0.5525 0.55595 0.01061 0.0
N174 N 0.57082 0.54361 0.03778 0.0
C175 C 0.56952 0.58344 0.98373 0.0
H176 H 0.46235 0.47988 0.02026 0.0
H177 H 0.46586 0.50304 0.07061 0.0
H178 H 0.48821 0.45933 0.05246 0.0
H179 H 0.54866 0.5974 0.971 0.0
H180 H 0.58391 0.56519 0.96009 0.0
H181 H 0.58984 0.60811 0.9992 0.0
C182 C 0.69279 0.25503 0.31349 0.0
N183 N 0.71465 0.23959 0.33516 0.0
N184 N 0.69034 0.23318 0.27715 0.0
C185 C 0.67238 0.29054 0.3282 0.0
C186 C 0.71187 0.20399 0.27734 0.0
N187 N 0.72742 0.20847 0.31248 0.0
C188 C 0.7156 0.16944 0.24418 0.0
H189 H 0.64479 0.27867 0.33778 0.0
H190 H 0.66923 0.30816 0.30526 0.0
H191 H 0.68663 0.31172 0.35284 0.0
H192 H 0.69456 0.16668 0.22189 0.0
H193 H 0.71384 0.14022 0.25488 0.0
H194 H 0.74271 0.17511 0.23046 0.0
C195 C 0.43453 0.07274 0.92719 0.0
N196 N 0.4611 0.10521 0.93324 0.0
N197 N 0.4042 0.08133 0.94733 0.0
C198 C 0.43928 0.03113 0.90482 0.0
C199 C 0.41318 0.12052 0.96554 0.0
N200 N 0.44791 0.13531 0.95709 0.0
C201 C 0.39049 0.14153 0.9973 0.0
H202 H 0.41254 0.01323 0.89534 0.0
H203 H 0.45233 0.01448 0.92367 0.0
H204 H 0.45714 0.03385 0.87928 0.0
H205 H 0.40416 0.14479 0.02548 0.0
H206 H 0.36277 0.12439 0.99879 0.0
H207 H 0.38799 0.17259 0.99238 0.0
O208 O 0.26452 0.85375 0.00847 0.0
Cd209 Cd 0.27821 0.90193 0.053 0.0
Cd210 Cd 0.22072 0.92945 0.01668 0.0
O211 O 0.21006 0.86708 0.99611 0.0
O212 O 0.31311 0.87977 0.08253 0.0
O213 O 0.26098 0.89706 0.10721 0.0
C214 C 0.29023 0.88156 0.11086 0.0
C215 C 0.17376 0.96945 0.03211 0.0
C216 C 0.23409 0.84319 0.99156 0.0
C217 C 0.29833 0.9697 0.00988 0.0
O218 O 0.26646 0.96103 0.99583 0.0
O219 O 0.30721 0.9531 0.0371 0.0
O220 O 0.17953 0.95255 0.99695 0.0
O221 O 0.1934 0.96199 0.05883 0.0
O222 O 0.19685 0.58715 0.32539 0.0
Cd223 Cd 0.16087 0.53774 0.33623 0.0
Cd224 Cd 0.12362 0.55375 0.27442 0.0
O225 O 0.1752 0.58472 0.26734 0.0
O226 O 0.18894 0.5061 0.3642 0.0
O227 O 0.16658 0.48205 0.30561 0.0
C228 C 0.18554 0.47728 0.33413 0.0
C229 C 0.08968 0.52843 0.21731 0.0
C230 C 0.1994 0.59866 0.293 0.0
C231 C 0.09108 0.5698 0.35583 0.0
O232 O 0.09213 0.57625 0.32132 0.0
O233 O 0.11443 0.55053 0.36719 0.0
O234 O 0.09808 0.5669 0.23035 0.0
O235 O 0.10089 0.50346 0.23639 0.0
O236 O 0.78998 0.72166 0.98653 0.0
Cd237 Cd 0.7692 0.6976 0.03483 0.0
Cd238 Cd 0.79022 0.62831 0.98939 0.0
O239 O 0.79962 0.66477 0.9472 0.0
O240 O 0.75723 0.74483 0.07409 0.0
O241 O 0.79667 0.70487 0.08447 0.0
C242 C 0.77789 0.73397 0.0978 0.0
C243 C 0.83653 0.59929 0.01145 0.0
C244 C 0.79956 0.70331 0.9535 0.0
C245 C 0.71448 0.61938 0.02133 0.0
O246 O 0.73842 0.6013 0.00141 0.0
O247 O 0.72097 0.65755 0.03437 0.0
O248 O 0.81963 0.5825 0.97977 0.0
O249 O 0.82831 0.63378 0.02991 0.0
O250 O 0.92148 0.01836 0.3523 0.0
Cd251 Cd 0.89132 0.01009 0.3035 0.0
Cd252 Cd 0.84083 0.03612 0.35581 0.0
O253 O 0.88202 0.04189 0.39581 0.0
O254 O 0.92753 0.99659 0.2626 0.0
O255 O 0.90023 0.05169 0.26867 0.0
C256 C 0.92311 0.02932 0.2506 0.0
C257 C 0.81299 0.09177 0.34809 0.0
C258 C 0.91335 0.03166 0.38715 0.0
C259 C 0.82401 0.95137 0.30866 0.0
O260 O 0.81324 0.97837 0.33512 0.0
O261 O 0.85436 0.9583 0.29195 0.0
O262 O 0.804 0.07255 0.37622 0.0
O263 O 0.83869 0.07994 0.3249 0.0
O264 O 0.29193 0.21853 0.48397 0.0
Cd265 Cd 0.27257 0.19244 0.53149 0.0
Cd266 Cd 0.294 0.12456 0.48425 0.0
O267 O 0.30377 0.16313 0.44389 0.0
O268 O 0.25895 0.2388 0.57076 0.0
O269 O 0.30074 0.20162 0.58098 0.0
C270 C 0.28106 0.22987 0.59421 0.0
C271 C 0.34091 0.09863 0.50933 0.0
C272 C 0.30239 0.2014 0.45088 0.0
C273 C 0.2186 0.1126 0.51494 0.0
O274 O 0.2421 0.09555 0.49316 0.0
O275 O 0.22556 0.15015 0.53048 0.0
O276 O 0.32821 0.0832 0.47523 0.0
O277 O 0.32784 0.12998 0.5287 0.0
O278 O 0.42439 0.523 0.85669 0.0
Cd279 Cd 0.39684 0.51545 0.80628 0.0
Cd280 Cd 0.343 0.53847 0.857 0.0
O281 O 0.38242 0.54339 0.8986 0.0
O282 O 0.43539 0.50319 0.76771 0.0
O283 O 0.40785 0.55795 0.77241 0.0
C284 C 0.43169 0.5361 0.75567 0.0
C285 C 0.313 0.59369 0.85319 0.0
C286 C 0.41437 0.53457 0.89126 0.0
C287 C 0.32965 0.45493 0.80652 0.0
O288 O 0.31731 0.48085 0.83288 0.0
O289 O 0.36079 0.46304 0.79177 0.0
O290 O 0.30429 0.57145 0.87912 0.0
O291 O 0.33955 0.58501 0.82985 0.0
O292 O 0.76026 0.34591 0.50274 0.0
Cd293 Cd 0.77457 0.39133 0.54959 0.0
Cd294 Cd 0.71734 0.42581 0.51241 0.0
O295 O 0.71145 0.36632 0.48212 0.0
O296 O 0.80926 0.36609 0.57652 0.0
O297 O 0.75826 0.38411 0.60359 0.0
C298 C 0.78735 0.36781 0.60566 0.0
C299 C 0.66636 0.46039 0.52303 0.0
C300 C 0.73316 0.34001 0.48038 0.0
C301 C 0.79696 0.46674 0.51614 0.0
O302 O 0.76473 0.46318 0.50369 0.0
O303 O 0.80559 0.44301 0.53735 0.0
O304 O 0.68132 0.45377 0.48943 0.0
O305 O 0.6794 0.44629 0.55049 0.0
O306 O 0.69741 0.08415 0.82558 0.0
Cd307 Cd 0.65956 0.03583 0.83524 0.0
Cd308 Cd 0.62604 0.05209 0.77208 0.0
O309 O 0.679 0.08016 0.76597 0.0
O310 O 0.68529 1.00296 0.86409 0.0
O311 O 0.6647 0.98009 0.80459 0.0
C312 C 0.68238 0.9745 0.83371 0.0
C313 C 0.59298 0.02434 0.71486 0.0
C314 C 0.70222 0.09418 0.79264 0.0
C315 C 0.59086 0.0706 0.85172 0.0
O316 O 0.59397 0.07734 0.81732 0.0
O317 O 0.61251 0.04997 0.86407 0.0
O318 O 0.6026 0.06304 0.72552 0.0
O319 O 0.60269 1.00059 0.73624 0.0
O320 O 0.97679 0.27881 0.98714 0.0
Cd321 Cd 0.97382 0.22421 0.94701 0.0
Cd322 Cd 0.01222 0.27109 0.90477 0.0
O323 O 0.01795 0.3138 0.95508 0.0
O324 O 0.96561 0.17674 0.97452 0.0
O325 O 0.01742 0.19445 0.94508 0.0
C326 C 0.99861 0.17074 0.96551 0.0
C327 C 0.06351 0.25667 0.86811 0.0
C328 C 0.99847 0.31146 0.98514 0.0
C329 C 0.9361 0.23786 0.87852 0.0
O330 O 0.96374 0.26434 0.87614 0.0
O331 O 0.93508 0.21461 0.90323 0.0
O332 O 0.04962 0.28952 0.86767 0.0
O333 O 0.04835 0.2319 0.88967 0.0
O334 O 0.46643 0.77403 0.49098 0.0
Cd335 Cd 0.4621 0.71999 0.44998 0.0
Cd336 Cd 0.50321 0.76628 0.40846 0.0
O337 O 0.50853 0.80834 0.45933 0.0
O338 O 0.45408 0.67133 0.47602 0.0
O339 O 0.5053 0.68958 0.44583 0.0
C340 C 0.4869 0.66529 0.46601 0.0
C341 C 0.55477 0.75298 0.37153 0.0
C342 C 0.48877 0.80626 0.48926 0.0
C343 C 0.4266 0.73619 0.38133 0.0
O344 O 0.45539 0.76107 0.37903 0.0
O345 O 0.42379 0.71308 0.40629 0.0
O346 O 0.54089 0.78603 0.37218 0.0
O347 O 0.53962 0.72743 0.39232 0.0
O348 O 0.96489 0.77222 0.71257 0.0
Cd349 Cd 0.01104 0.76657 0.67875 0.0
Cd350 Cd 0.99231 0.8337 0.65131 0.0
O351 O 0.95707 0.83207 0.69961 0.0
O352 O 0.03568 0.72744 0.70021 0.0
O353 O 0.06074 0.79109 0.69891 0.0
C354 C 0.06318 0.75581 0.7073 0.0
C355 C 0.02211 0.89647 0.63808 0.0
C356 C 0.94836 0.80329 0.71867 0.0
C357 C 0.99416 0.75445 0.59446 0.0
O358 O 0.98357 0.78943 0.60083 0.0
O359 O 0.00672 0.74092 0.62172 0.0
O360 O 0.98741 0.8863 0.63456 0.0
O361 O 0.04025 0.87191 0.65094 0.0
O362 O 0.46491 0.2675 0.21044 0.0
Cd363 Cd 0.50955 0.26029 0.17452 0.0
Cd364 Cd 0.49276 0.32938 0.14879 0.0
O365 O 0.45758 0.32731 0.197 0.0
O366 O 0.53637 0.22223 0.195 0.0
O367 O 0.56006 0.28573 0.19103 0.0
C368 C 0.56385 0.25089 0.19963 0.0
C369 C 0.52186 0.39322 0.13745 0.0
C370 C 0.44886 0.29894 0.21652 0.0
C371 C 0.49162 0.24989 0.09073 0.0
O372 O 0.48382 0.28619 0.09752 0.0
O373 O 0.50245 0.23456 0.11775 0.0
O374 O 0.48728 0.38247 0.13341 0.0
O375 O 0.54037 0.3684 0.14939 0.0
C376 C 0.18822 0.75681 0.91806 0.0
C377 C 0.21629 0.75227 0.89055 0.0
H378 H 0.17164 0.79068 0.97193 0.0
C379 C 0.2518 0.77068 0.90061 0.0
H380 H 0.16076 0.74204 0.91094 0.0
C381 C 0.25831 0.7974 0.93593 0.0
C382 C 0.22915 0.80653 0.96101 0.0
H383 H 0.27373 0.7675 0.87972 0.0
H384 H 0.28544 0.81394 0.94176 0.0
C385 C 0.1944 0.78455 0.95276 0.0
C386 C 0.00859 0.61953 0.39473 0.0
C387 C 1.0 0.60226 0.42763 0.0
H388 H 0.04408 0.6226 0.34589 0.0
C389 C 0.02348 0.57767 0.43908 0.0
H390 H 0.99035 0.63794 0.38518 0.0
C391 C 0.05414 0.56866 0.41679 0.0
C392 C 0.06151 0.58361 0.38224 0.0
H393 H 0.01683 0.56359 0.46413 0.0
H394 H 0.07092 0.54827 0.42558 0.0
C395 C 0.03901 0.6102 0.3721 0.0
C396 C 0.80535 0.73271 0.85391 0.0
C397 C 0.81391 0.77546 0.86339 0.0
H398 H 0.79448 0.67609 0.87486 0.0
C399 C 0.82287 0.79333 0.90183 0.0
H400 H 0.79717 0.71834 0.82477 0.0
C401 C 0.82 0.76959 0.93077 0.0
C402 C 0.80872 0.72714 0.92187 0.0
H403 H 0.82856 0.82629 0.91 0.0
H404 H 0.82483 0.78482 0.96046 0.0
C405 C 0.80321 0.70869 0.88278 0.0
C406 C 0.99976 0.01937 0.43439 0.0
C407 C 0.99329 0.03478 0.47332 0.0
H408 H 0.97988 0.00662 0.37683 0.0
C409 C 0.96036 0.04965 0.48429 0.0
H410 H 0.02477 0.00718 0.42556 0.0
C411 C 0.93416 0.0491 0.45642 0.0
C412 C 0.94072 0.03369 0.41726 0.0
H413 H 0.95505 0.0616 0.51436 0.0
H414 H 0.90887 0.06056 0.46552 0.0
C415 C 0.97389 0.01897 0.40664 0.0
C416 C 0.24749 0.28565 0.68874 0.0
C417 C 0.26021 0.26431 0.71479 0.0
H418 H 0.24483 0.29202 0.62966 0.0
C419 C 0.28476 0.23667 0.70204 0.0
H420 H 0.22824 0.30679 0.69826 0.0
C421 C 0.29445 0.22812 0.66297 0.0
C422 C 0.27923 0.2468 0.63606 0.0
H423 H 0.29448 0.21979 0.72195 0.0
H424 H 0.31159 0.20468 0.65353 0.0
C425 C 0.25694 0.27701 0.64961 0.0
C426 C 0.4897 0.59803 0.6911 0.0
C427 C 0.50016 0.56671 0.66254 0.0
H428 H 0.4586 0.61286 0.74308 0.0
C429 C 0.48722 0.52587 0.66438 0.0
H430 H 0.49971 0.62971 0.69016 0.0
C431 C 0.46481 0.51625 0.69468 0.0
C432 C 0.4541 0.54737 0.72321 0.0
H433 H 0.49442 0.50139 0.64213 0.0
H434 H 0.45553 0.48437 0.69558 0.0
C435 C 0.46631 0.58842 0.7211 0.0
C436 C 0.82891 0.30569 0.66725 0.0
C437 C 0.80517 0.30724 0.69901 0.0
H438 H 0.84217 0.32407 0.61304 0.0
C439 C 0.77688 0.33106 0.70145 0.0
H440 H 0.85067 0.28715 0.66488 0.0
C441 C 0.77153 0.35185 0.67166 0.0
C442 C 0.79464 0.34932 0.63912 0.0
H443 H 0.75829 0.33237 0.72585 0.0
H444 H 0.74884 0.36905 0.6737 0.0
C445 C 0.82386 0.32671 0.63767 0.0
C446 C 0.51387 0.96806 0.6521 0.0
C447 C 0.51515 0.99204 0.62334 0.0
H448 H 0.5382 0.95915 0.70384 0.0
C449 C 0.54563 0.02162 0.62126 0.0
H450 H 0.49063 0.94502 0.65415 0.0
C451 C 0.57216 0.03044 0.64998 0.0
C452 C 0.56939 0.00888 0.68067 0.0
H453 H 0.54771 0.03966 0.59869 0.0
H454 H 0.59405 0.05537 0.64908 0.0
C455 C 0.54098 0.97624 0.6805 0.0
C456 C 0.86617 0.2089 0.79856 0.0
C457 C 0.85128 0.24553 0.80206 0.0
H458 H 0.90484 0.1773 0.82083 0.0
C459 C 0.86129 0.27704 0.83362 0.0
H460 H 0.85895 0.18428 0.77433 0.0
C461 C 0.88781 0.27347 0.85941 0.0
C462 C 0.9041 0.2378 0.85487 0.0
H463 H 0.84957 0.30515 0.83737 0.0
H464 H 0.89642 0.29912 0.88234 0.0
C465 C 0.89235 0.20496 0.825 0.0
C466 C 0.45687 0.8825 0.57212 0.0
C467 C 0.47807 0.9189 0.56611 0.0
H468 H 0.44364 0.81789 0.55258 0.0
C469 C 0.50703 0.91688 0.53966 0.0
H470 H 0.43432 0.88361 0.59239 0.0
C471 C 0.51237 0.87952 0.51665 0.0
C472 C 0.48873 0.84345 0.5197 0.0
H473 H 0.52343 0.94473 0.53444 0.0
H474 H 0.53345 0.87945 0.49465 0.0
C475 C 0.46212 0.84503 0.54912 0.0
C476 C 0.13894 0.26463 0.79488 0.0
C477 C 0.16445 0.24415 0.8088 0.0
H478 H 0.08685 0.28492 0.80313 0.0
C479 C 0.15518 0.22384 0.83975 0.0
H480 H 0.14614 0.28098 0.77138 0.0
C481 C 0.12117 0.22571 0.85783 0.0
C482 C 0.09665 0.2488 0.84561 0.0
H483 H 0.17497 0.20857 0.85111 0.0
H484 H 0.11502 0.21129 0.88275 0.0
C485 C 0.10539 0.26723 0.8133 0.0
C486 C 0.49594 0.57558 0.51272 0.0
C487 C 0.52959 0.58899 0.53133 0.0
H488 H 0.45525 0.59034 0.47802 0.0
C489 C 0.55249 0.62198 0.52041 0.0
H490 H 0.47782 0.5503 0.52097 0.0
C491 C 0.53994 0.64452 0.49522 0.0
C492 C 0.50404 0.63473 0.48143 0.0
H493 H 0.57824 0.63322 0.53487 0.0
H494 H 0.55684 0.6721 0.49005 0.0
C495 C 0.48288 0.59878 0.48861 0.0
C496 C 0.88204 0.84552 0.79474 0.0
C497 C 0.8558 0.81105 0.79601 0.0
H498 H 0.93095 0.87049 0.76827 0.0
C499 C 0.86258 0.77301 0.77518 0.0
H500 H 0.87758 0.87517 0.81077 0.0
C501 C 0.8937 0.7701 0.75148 0.0
C502 C 0.91806 0.80538 0.74743 0.0
H503 H 0.84263 0.74613 0.77518 0.0
H504 H 0.89751 0.74064 0.7345 0.0
C505 C 0.91237 0.84293 0.77016 0.0
C506 C 0.03448 1.00103 0.61263 0.0
C507 C 0.05565 0.99477 0.5788 0.0
H508 H 0.00647 0.97394 0.65777 0.0
C509 C 0.07283 0.9596 0.57048 0.0
H510 H 0.02073 0.02777 0.61937 0.0
C511 C 0.06529 0.92899 0.59301 0.0
C512 C 0.04003 0.93305 0.62366 0.0
H513 H 0.08872 0.95379 0.54421 0.0
H514 H 0.07608 0.90046 0.58389 0.0
C515 C 0.0261 0.97012 0.6344 0.0
C516 C 0.12534 0.70556 0.75988 0.0
C517 C 0.15614 0.73531 0.76545 0.0
H518 H 0.07165 0.68869 0.73692 0.0
C519 C 0.15771 0.7704 0.74908 0.0
H520 H 0.12371 0.67862 0.77287 0.0
C521 C 0.12777 0.77684 0.72924 0.0
C522 C 0.09608 0.74795 0.72526 0.0
H523 H 0.18135 0.79373 0.75358 0.0
H524 H 0.12906 0.80487 0.71804 0.0
C525 C 0.09558 0.71166 0.73972 0.0
C526 C 0.99653 0.66147 0.51613 0.0
C527 C 0.97217 0.66806 0.48928 0.0
H528 H 0.02256 0.68367 0.57054 0.0
C529 C 0.96071 0.70666 0.49344 0.0
H530 H 0.00524 0.63178 0.51383 0.0
C531 C 0.96969 0.73631 0.5266 0.0
C532 C 0.99052 0.7277 0.55582 0.0
H533 H 0.94172 0.71216 0.47301 0.0
H534 H 0.95813 0.76456 0.53058 0.0
C535 C 0.00567 0.69098 0.54907 0.0
C536 C 0.79849 0.83687 0.2806 0.0
C537 C 0.76078 0.83275 0.28638 0.0
H538 H 0.84836 0.87833 0.28298 0.0
C539 C 0.74362 0.86791 0.2956 0.0
H540 H 0.81204 0.81004 0.27317 0.0
C541 C 0.76412 0.90662 0.30235 0.0
C542 C 0.80207 0.91084 0.29852 0.0
H543 H 0.71432 0.86526 0.2988 0.0
H544 H 0.75036 0.93319 0.31091 0.0
C545 C 0.81905 0.87578 0.28634 0.0
C546 C 0.78256 0.17492 0.30287 0.0
C547 C 0.75079 0.18234 0.32405 0.0
H548 H 0.8273 0.14058 0.29387 0.0
C549 C 0.74097 0.16203 0.35493 0.0
H550 H 0.79085 0.19079 0.2793 0.0
C551 C 0.76191 0.13359 0.36363 0.0
C552 C 0.79298 0.12483 0.34142 0.0
H553 H 0.71638 0.16706 0.37138 0.0
H554 H 0.75308 0.11755 0.38697 0.0
C555 C 0.80343 0.14636 0.31136 0.0
C556 C 0.34156 0.04619 0.94945 0.0
C557 C 0.37782 0.05187 0.96119 0.0
H558 H 0.28763 0.01557 0.95582 0.0
C559 C 0.38802 0.03077 0.98885 0.0
H560 H 0.33345 0.06279 0.92841 0.0
C561 C 0.36216 1.00424 0.00488 0.0
C562 C 0.32561 0.99835 0.99337 0.0
H563 H 0.416 0.03548 0.9984 0.0
H564 H 0.37084 0.9884 0.02626 0.0
C565 C 0.31557 0.01945 0.96532 0.0
C566 C 0.24859 0.40696 0.35881 0.0
C567 C 0.24731 0.37701 0.32517 0.0
H568 H 0.2299 0.46181 0.3882 0.0
C569 C 0.22385 0.37855 0.29526 0.0
H570 H 0.26658 0.40625 0.38215 0.0
C571 C 0.20287 0.41048 0.29843 0.0
C572 C 0.20491 0.44126 0.33175 0.0
H573 H 0.22223 0.35537 0.26927 0.0
H574 H 0.18564 0.41147 0.27454 0.0
C575 C 0.2276 0.4387 0.36214 0.0
C576 C 0.12523 0.08512 0.55838 0.0
C577 C 0.11257 0.0477 0.53468 0.0
H578 H 0.16829 0.13538 0.57032 0.0
C579 C 0.13653 0.02935 0.50748 0.0
H580 H 0.10683 0.10034 0.57868 0.0
C581 C 0.17156 0.04952 0.50198 0.0
C582 C 0.18315 0.08877 0.52337 0.0
H583 H 0.12686 1.00106 0.48812 0.0
H584 H 0.18869 0.03543 0.47946 0.0
C585 C 0.16009 0.10554 0.55276 0.0
C586 C 0.77291 0.15617 0.74024 0.0
C587 C 0.78212 0.1913 0.76852 0.0
H588 H 0.73968 0.09793 0.72561 0.0
C589 C 0.76943 0.19147 0.80648 0.0
H590 H 0.78302 0.15525 0.71096 0.0
C591 C 0.74533 0.15824 0.8152 0.0
C592 C 0.73319 0.12492 0.78582 0.0
H593 H 0.77616 0.21838 0.82862 0.0
H594 H 0.73417 0.15999 0.84416 0.0
C595 C 0.74819 0.12354 0.74861 0.0
C596 C 0.39192 0.05876 0.58221 0.0
C597 C 0.4148 0.03518 0.55812 0.0
H598 H 0.35114 0.09839 0.58567 0.0
C599 C 0.41473 0.03452 0.51818 0.0
H600 H 0.39114 0.05908 0.613 0.0
C601 C 0.39125 0.05589 0.50238 0.0
C602 C 0.36802 0.07917 0.52638 0.0
H603 H 0.43232 0.01662 0.49917 0.0
H604 H 0.39104 0.0539 0.47135 0.0
C605 C 0.36907 0.08108 0.56654 0.0
C606 C 0.61547 0.5516 0.5422 0.0
C607 C 0.5818 0.53423 0.55524 0.0
H608 H 0.66891 0.54112 0.52102 0.0
C609 C 0.5747 0.49161 0.55279 0.0
H610 H 0.62177 0.58441 0.54468 0.0
C611 C 0.60193 0.46724 0.54114 0.0
C612 C 0.63629 0.48493 0.53032 0.0
H613 H 0.54898 0.47777 0.56314 0.0
H614 H 0.59658 0.43488 0.54191 0.0
C615 C 0.64245 0.52695 0.5293 0.0
C616 C 0.756 0.27132 0.38878 0.0
C617 C 0.72108 0.25365 0.37573 0.0
H618 H 0.78725 0.31261 0.43355 0.0
C619 C 0.69122 0.25767 0.40099 0.0
H620 H 0.77925 0.26847 0.36961 0.0
C621 C 0.69536 0.28403 0.43663 0.0
C622 C 0.72976 0.30507 0.44813 0.0
H623 H 0.66414 0.24359 0.39142 0.0
H624 H 0.67148 0.28977 0.45416 0.0
C625 C 0.7604 0.29665 0.42512 0.0
C626 C 0.50832 0.12225 0.88638 0.0
C627 C 0.49779 0.10509 0.91897 0.0
H628 H 0.54601 0.12468 0.83924 0.0
C629 C 0.52003 0.08001 0.93173 0.0
H630 H 0.49102 0.14096 0.87576 0.0
C631 C 0.55138 0.07045 0.91102 0.0
C632 C 0.5607 0.08529 0.87672 0.0
H633 H 0.51182 0.06585 0.95642 0.0
H634 H 0.56713 0.04964 0.92073 0.0
C635 C 0.53945 0.11239 0.86532 0.0
C636 C 0.30725 0.23339 0.35247 0.0
C637 C 0.31554 0.27608 0.36283 0.0
H638 H 0.29706 0.176 0.3721 0.0
C639 C 0.3244 0.29319 0.40146 0.0
H640 H 0.29908 0.21958 0.3232 0.0
C641 C 0.32185 0.26867 0.42975 0.0
C642 C 0.31104 0.2262 0.41995 0.0
H643 H 0.32992 0.32609 0.41029 0.0
H644 H 0.32664 0.28325 0.45962 0.0
C645 C 0.3055 0.20858 0.38067 0.0
C646 C 0.49936 0.52444 0.94216 0.0
C647 C 0.49097 0.5387 0.98085 0.0
H648 H 0.48199 0.51224 0.88371 0.0
C649 C 0.45706 0.55162 0.99052 0.0
H650 H 0.52521 0.51375 0.93437 0.0
C651 C 0.43185 0.55057 0.96153 0.0
C652 C 0.44042 0.53655 0.92258 0.0
H653 H 0.45028 0.56256 0.02042 0.0
H654 H 0.40582 0.56068 0.96958 0.0
C655 C 0.47448 0.52352 0.91332 0.0
C656 C 0.74174 0.78683 0.19237 0.0
C657 C 0.75232 0.76341 0.2178 0.0
H658 H 0.74237 0.7965 0.13402 0.0
C659 C 0.77637 0.73521 0.20502 0.0
H660 H 0.72299 0.80853 0.20192 0.0
C661 C 0.78773 0.72832 0.16639 0.0
C662 C 0.77472 0.74923 0.13988 0.0
H663 H 0.78453 0.71683 0.22447 0.0
H664 H 0.80444 0.70448 0.15679 0.0
C665 C 0.75287 0.77983 0.15365 0.0
C666 C 0.97865 0.01944 0.15922 0.0
C667 C 0.99124 0.06039 0.15766 0.0
H668 H 0.94719 0.97761 0.19032 0.0
C669 C 0.97954 0.09153 0.18547 0.0
H670 H 0.98719 0.99521 0.13758 0.0
C671 C 0.95586 0.08166 0.21508 0.0
C672 C 0.94448 0.04053 0.21748 0.0
H673 H 0.98914 0.12328 0.18443 0.0
H674 H 0.9476 0.106 0.23681 0.0
C675 C 0.95581 0.00955 0.18916 0.0
C676 C 0.3281 0.81787 0.17355 0.0
C677 C 0.30289 0.81877 0.20403 0.0
H678 H 0.34427 0.83763 0.12056 0.0
C679 C 0.27514 0.8432 0.20563 0.0
H680 H 0.34952 0.79894 0.17184 0.0
C681 C 0.27164 0.86503 0.1761 0.0
C682 C 0.29615 0.86301 0.14471 0.0
H683 H 0.25549 0.84417 0.22907 0.0
H684 H 0.24921 0.88249 0.1773 0.0
C685 C 0.32494 0.83997 0.1443 0.0
C686 C 0.04069 0.53141 0.12621 0.0
C687 C 0.01388 0.49704 0.12357 0.0
H688 H 0.08557 0.56822 0.15802 0.0
C689 C 0.01529 0.46955 0.14877 0.0
H690 H 0.04044 0.5526 0.10662 0.0
C691 C 0.04164 0.47809 0.17805 0.0
C692 C 0.0665 0.51447 0.1826 0.0
H693 H 0.99476 0.44291 0.14725 0.0
H694 H 0.04105 0.45768 0.19851 0.0
C695 C 0.06646 0.54027 0.15559 0.0
C696 C 0.3542 0.78048 0.33799 0.0
C697 C 0.34464 0.75093 0.30484 0.0
H698 H 0.38796 0.79865 0.38816 0.0
C699 C 0.35901 0.71384 0.29945 0.0
H700 H 0.3429 0.80891 0.34308 0.0
C701 C 0.38418 0.70748 0.32579 0.0
C702 C 0.39534 0.73832 0.35757 0.0
H703 H 0.35209 0.69073 0.27395 0.0
H704 H 0.39634 0.67958 0.32024 0.0
C705 C 0.37964 0.77446 0.36384 0.0
C706 C 0.96374 0.38812 0.06526 0.0
C707 C 0.98577 0.42435 0.06023 0.0
H708 H 0.9507 0.32355 0.04579 0.0
C709 C 0.01599 0.42216 0.03549 0.0
H710 H 0.93992 0.38949 0.08378 0.0
C711 C 0.02197 0.38464 0.01314 0.0
C712 C 0.99774 0.34872 0.01529 0.0
H713 H 0.03281 0.44995 0.03077 0.0
H714 H 0.04402 0.38433 0.99224 0.0
C715 C 0.96977 0.35053 0.04318 0.0
C716 C 0.64602 0.72008 0.34087 0.0
C717 C 0.65516 0.74148 0.31064 0.0
H718 H 0.60619 0.70638 0.38384 0.0
C719 C 0.62968 0.76284 0.29791 0.0
H720 H 0.6658 0.70414 0.35136 0.0
C721 C 0.59633 0.76518 0.31685 0.0
C722 C 0.58775 0.74563 0.3485 0.0
H723 H 0.63677 0.78005 0.275 0.0
H724 H 0.57783 0.78352 0.30762 0.0
C725 C 0.61221 0.7217 0.35946 0.0
C726 C 0.00562 0.07771 0.0076 0.0
C727 C 0.03543 0.09229 0.03237 0.0
H728 H 0.96959 0.09228 0.96759 0.0
C729 C 0.05805 0.12821 0.0275 0.0
H730 H 0.98791 0.05 0.01095 0.0
C731 C 0.0481 0.15204 0.00199 0.0
C732 C 0.01509 0.14038 0.98177 0.0
H733 H 0.08093 0.14014 0.04659 0.0
H734 H 0.06408 0.18154 0.00132 0.0
C735 C 0.99496 0.10205 0.98317 0.0
C736 C 0.36292 0.27156 0.27387 0.0
C737 C 0.35721 0.31003 0.29464 0.0
H738 H 0.39679 0.23775 0.23304 0.0
C739 C 0.3842 0.34373 0.29304 0.0
H740 H 0.34234 0.24526 0.27402 0.0
C741 C 0.41432 0.33999 0.26829 0.0
C742 C 0.41899 0.30203 0.2457 0.0
H743 H 0.38055 0.37369 0.30898 0.0
H744 H 0.43351 0.36702 0.26614 0.0
C745 C 0.39382 0.26748 0.25 0.0
C746 C 0.53246 0.50017 0.11815 0.0
C747 C 0.55381 0.49641 0.08434 0.0
H748 H 0.5049 0.46958 0.16132 0.0
C749 C 0.57159 0.46183 0.07399 0.0
H750 H 0.51814 0.52635 0.12631 0.0
C751 C 0.56456 0.42947 0.0945 0.0
C752 C 0.53922 0.43119 0.12513 0.0
H753 H 0.58753 0.45789 0.04761 0.0
H754 H 0.57582 0.40151 0.08382 0.0
C755 C 0.52464 0.46757 0.13793 0.0
C756 C 0.66166 0.26703 0.23268 0.0
C757 C 0.66192 0.23334 0.25071 0.0
H758 H 0.62997 0.29955 0.20272 0.0
C759 C 0.63106 0.20367 0.24876 0.0
H760 H 0.6853 0.2903 0.23429 0.0
C761 C 0.59957 0.2087 0.23083 0.0
C762 C 0.59834 0.24385 0.21502 0.0
H763 H 0.63077 0.17785 0.26311 0.0
H764 H 0.57572 0.18595 0.23097 0.0
C765 C 0.62998 0.27245 0.21513 0.0
C766 C 0.49092 0.15825 0.01012 0.0
C767 C 0.46914 0.1681 0.98257 0.0
H768 H 0.51498 0.17628 0.06592 0.0
C769 C 0.45985 0.20779 0.98786 0.0
H770 H 0.49771 0.1276 0.00707 0.0
C771 C 0.46882 0.23568 0.0222 0.0
C772 C 0.48734 0.22415 0.05162 0.0
H773 H 0.44268 0.21573 0.96702 0.0
H774 H 0.45918 0.26507 0.02669 0.0
C775 C 0.49998 0.18594 0.04427 0.0
C776 C 0.25082 0.36977 0.78959 0.0
C777 C 0.26884 0.33518 0.78195 0.0
H778 H 0.25611 0.43501 0.80431 0.0
C779 C 0.30672 0.34021 0.77758 0.0
H780 H 0.22143 0.36634 0.79179 0.0
C781 C 0.32657 0.37953 0.78363 0.0
C782 C 0.30865 0.41406 0.79468 0.0
H783 H 0.32092 0.3138 0.77138 0.0
H784 H 0.356 0.38282 0.78175 0.0
C785 C 0.27057 0.40888 0.79662 0.0
C786 C 0.23845 0.66102 0.86571 0.0
C787 C 0.24685 0.68342 0.83606 0.0
H788 H 0.25288 0.61509 0.89455 0.0
C789 C 0.27871 0.67867 0.81415 0.0
H790 H 0.21388 0.66413 0.88276 0.0
C791 C 0.30093 0.65045 0.82049 0.0
C792 C 0.29175 0.6266 0.84907 0.0
H793 H 0.28591 0.69622 0.79154 0.0
H794 H 0.32478 0.64664 0.80238 0.0
C795 C 0.2607 0.63287 0.87222 0.0
C796 C 0.88912 0.52445 0.49783 0.0
C797 C 0.87998 0.55017 0.4738 0.0
H798 H 0.86995 0.47818 0.53062 0.0
C799 C 0.84354 0.54958 0.4647 0.0
H800 H 0.91724 0.52522 0.50549 0.0
C801 C 0.81635 0.52307 0.47918 0.0
C802 C 0.82536 0.49686 0.5031 0.0
H803 H 0.83628 0.56975 0.44651 0.0
H804 H 0.78837 0.52292 0.47139 0.0
C805 C 0.86205 0.498 0.51242 0.0
C806 C 0.72081 0.87594 0.79487 0.0
C807 C 0.74378 0.87412 0.82512 0.0
H808 H 0.68308 0.90915 0.77378 0.0
C809 C 0.74433 0.90354 0.85909 0.0
H810 H 0.71977 0.85316 0.76862 0.0
C811 C 0.72324 0.93516 0.86237 0.0
C812 C 0.70123 0.93817 0.83158 0.0
H813 H 0.76195 0.90261 0.88268 0.0
H814 H 0.72508 0.95796 0.88865 0.0
C815 C 0.69978 0.9078 0.79799 0.0
C816 C 0.62172 0.59303 0.06635 0.0
C817 C 0.60926 0.55471 0.04405 0.0
H818 H 0.66432 0.64401 0.07609 0.0
C819 C 0.63321 0.5356 0.01741 0.0
H820 H 0.60328 0.6088 0.08616 0.0
C821 C 0.668 0.55583 0.01097 0.0
C822 C 0.67926 0.59588 0.03077 0.0
H823 H 0.62368 0.5066 0.99906 0.0
H824 H 0.68514 0.54106 0.98887 0.0
C825 C 0.65628 0.61354 0.0597 0.0
C826 C 0.26526 0.66573 0.24015 0.0
C827 C 0.27525 0.69974 0.26942 0.0
H828 H 0.23282 0.6071 0.22462 0.0
C829 C 0.26422 0.69785 0.30759 0.0
H830 H 0.27425 0.66622 0.21068 0.0
C831 C 0.24139 0.6635 0.31585 0.0
C832 C 0.22878 0.63105 0.28587 0.0
H833 H 0.27156 0.72382 0.33055 0.0
H834 H 0.23173 0.66355 0.3452 0.0
C835 C 0.24174 0.63196 0.24814 0.0
C836 C 0.8764 0.51588 0.04611 0.0
C837 C 0.91204 0.53462 0.05587 0.0
H838 H 0.82502 0.52156 0.02326 0.0
C839 C 0.92236 0.57564 0.05206 0.0
H840 H 0.86743 0.48472 0.04965 0.0
C841 C 0.89755 0.59732 0.03858 0.0
C842 C 0.86253 0.5778 0.02737 0.0
H843 H 0.94981 0.59065 0.05874 0.0
H844 H 0.90606 0.62882 0.03571 0.0
C845 C 0.85214 0.53699 0.03126 0.0
C846 C 0.12571 0.05659 0.08214 0.0
C847 C 0.09153 0.04721 0.06422 0.0
H848 H 0.17797 0.03822 0.08709 0.0
C849 C 0.08605 0.01493 0.03243 0.0
H850 H 0.13062 0.0817 0.1064 0.0
C851 C 0.11344 0.9905 0.02074 0.0
C852 C 0.14624 0.99748 0.04138 0.0
H853 H 0.05975 0.00686 0.01853 0.0
H854 H 0.10812 0.96472 0.99713 0.0
C855 C 0.15255 0.0315 0.07139 0.0
loop_
_geom_bond_atom_site_label_1
_geom_bond_atom_site_label_2
_geom_bond_distance
_geom_bond_site_symmetry_2
_ccdc_geom_bond_type
C0 N1 1.317 . S
C0 N2 1.348 . S
C0 C3 1.485 . S
N1 C0 1.317 . S
N1 N5 1.370 . S
N2 C0 1.348 . S
N2 C4 1.346 . S
C3 C0 1.485 . S
C3 H7 0.960 . S
C3 H8 0.961 . S
C3 H9 0.960 . S
C4 N2 1.346 . S
C4 N5 1.307 . S
C4 C6 1.486 . S
N5 N1 1.370 . S
N5 C4 1.307 . S
C6 C4 1.486 . S
C6 H10 0.960 . S
C6 H11 0.960 . S
C6 H12 0.959 . S
H7 C3 0.960 . S
H8 C3 0.961 . S
H9 C3 0.960 . S
H10 C6 0.960 . S
H11 C6 0.960 . S
H12 C6 0.959 . S
C13 N14 1.317 . S
C13 N15 1.348 . S
C13 C16 1.485 . S
N14 C13 1.317 . S
N14 N18 1.370 . S
N15 C13 1.348 . S
N15 C17 1.346 . S
C16 C13 1.485 . S
C16 H20 0.960 . S
C16 H21 0.961 . S
C16 H22 0.960 . S
C17 N15 1.346 . S
C17 N18 1.307 . S
C17 C19 1.486 . S
N18 N14 1.370 . S
N18 C17 1.307 . S
C19 C17 1.486 . S
C19 H23 0.960 . S
C19 H24 0.960 . S
C19 H25 0.959 . S
H20 C16 0.960 . S
H21 C16 0.961 . S
H22 C16 0.960 . S
H23 C19 0.960 . S
H24 C19 0.960 . S
H25 C19 0.959 . S
C26 N27 1.317 . S
C26 N28 1.348 . S
C26 C29 1.485 . S
N27 C26 1.317 . S
N27 N31 1.370 . S
N28 C26 1.348 . S
N28 C30 1.346 . S
C29 C26 1.485 . S
C29 H33 0.960 . S
C29 H34 0.961 . S
C29 H35 0.960 . S
C30 N28 1.346 . S
C30 N31 1.307 . S
C30 C32 1.486 . S
N31 N27 1.370 . S
N31 C30 1.307 . S
C32 C30 1.486 . S
C32 H36 0.960 . S
C32 H37 0.960 . S
C32 H38 0.959 . S
H33 C29 0.960 . S
H34 C29 0.961 . S
H35 C29 0.960 . S
H36 C32 0.960 . S
H37 C32 0.960 . S
H38 C32 0.959 . S
C39 N40 1.317 . S
C39 N41 1.348 . S
C39 C42 1.485 . S
N40 C39 1.317 . S
N40 N44 1.370 . S
N41 C39 1.348 . S
N41 C43 1.346 . S
C42 C39 1.485 . S
C42 H46 0.960 . S
C42 H47 0.961 . S
C42 H48 0.960 . S
C43 N41 1.346 . S
C43 N44 1.307 . S
C43 C45 1.486 . S
N44 N40 1.370 . S
N44 C43 1.307 . S
C45 C43 1.486 . S
C45 H49 0.960 . S
C45 H50 0.960 . S
C45 H51 0.959 . S
H46 C42 0.960 . S
H47 C42 0.961 . S
H48 C42 0.960 . S
H49 C45 0.960 . S
H50 C45 0.960 . S
H51 C45 0.959 . S
C52 N53 1.317 . S
C52 N54 1.348 . S
C52 C55 1.485 . S
N53 C52 1.317 . S
N53 N57 1.370 . S
N54 C52 1.348 . S
N54 C56 1.346 . S
C55 C52 1.485 . S
C55 H59 0.960 . S
C55 H60 0.961 1_455 S
C55 H61 0.960 . S
C56 N54 1.346 . S
C56 N57 1.307 . S
C56 C58 1.486 1_565 S
N57 N53 1.370 . S
N57 C56 1.307 . S
C58 C56 1.486 1_545 S
C58 H62 0.960 . S
C58 H63 0.960 . S
C58 H64 0.959 . S
H59 C55 0.960 . S
H60 C55 0.961 1_655 S
H61 C55 0.960 . S
H62 C58 0.960 . S
H63 C58 0.960 . S
H64 C58 0.959 . S
C65 N66 1.317 . S
C65 N67 1.348 . S
C65 C68 1.485 . S
N66 C65 1.317 . S
N66 N70 1.370 . S
N67 C65 1.348 . S
N67 C69 1.346 . S
C68 C65 1.485 . S
C68 H72 0.960 . S
C68 H73 0.961 . S
C68 H74 0.960 . S
C69 N67 1.346 . S
C69 N70 1.307 . S
C69 C71 1.486 . S
N70 N66 1.370 . S
N70 C69 1.307 . S
C71 C69 1.486 . S
C71 H75 0.960 . S
C71 H76 0.960 . S
C71 H77 0.959 . S
H72 C68 0.960 . S
H73 C68 0.961 . S
H74 C68 0.960 . S
H75 C71 0.960 . S
H76 C71 0.960 . S
H77 C71 0.959 . S
C78 N79 1.317 . S
C78 N80 1.348 . S
C78 C81 1.485 . S
N79 C78 1.317 . S
N79 N83 1.370 . S
N80 C78 1.348 . S
N80 C82 1.346 . S
C81 C78 1.485 . S
C81 H85 0.960 . S
C81 H86 0.961 . S
C81 H87 0.960 . S
C82 N80 1.346 . S
C82 N83 1.307 . S
C82 C84 1.486 . S
N83 N79 1.370 . S
N83 C82 1.307 . S
C84 C82 1.486 . S
C84 H88 0.960 . S
C84 H89 0.960 . S
C84 H90 0.959 . S
H85 C81 0.960 . S
H86 C81 0.961 . S
H87 C81 0.960 . S
H88 C84 0.960 . S
H89 C84 0.960 . S
H90 C84 0.959 . S
C91 N92 1.317 . S
C91 N93 1.348 . S
C91 C94 1.485 . S
N92 C91 1.317 . S
N92 N96 1.370 . S
N93 C91 1.348 . S
N93 C95 1.346 . S
C94 C91 1.485 . S
C94 H98 0.960 . S
C94 H99 0.961 . S
C94 H100 0.960 . S
C95 N93 1.346 . S
C95 N96 1.307 . S
C95 C97 1.486 . S
N96 N92 1.370 . S
N96 C95 1.307 . S
C97 C95 1.486 . S
C97 H101 0.960 . S
C97 H102 0.960 . S
C97 H103 0.959 . S
H98 C94 0.960 . S
H99 C94 0.961 . S
H100 C94 0.960 . S
H101 C97 0.960 . S
H102 C97 0.960 . S
H103 C97 0.959 . S
C104 N105 1.317 . S
C104 N106 1.348 . S
C104 C107 1.485 . S
N105 C104 1.317 . S
N105 N109 1.370 . S
N106 C104 1.348 . S
N106 C108 1.346 . S
C107 C104 1.485 . S
C107 H111 0.960 . S
C107 H112 0.961 . S
C107 H113 0.960 . S
C108 N106 1.346 . S
C108 N109 1.307 . S
C108 C110 1.486 . S
N109 N105 1.370 . S
N109 C108 1.307 . S
C110 C108 1.486 . S
C110 H114 0.960 . S
C110 H115 0.960 . S
C110 H116 0.959 . S
H111 C107 0.960 . S
H112 C107 0.961 . S
H113 C107 0.960 . S
H114 C110 0.960 . S
H115 C110 0.960 . S
H116 C110 0.959 . S
C117 N118 1.317 . S
C117 N119 1.348 . S
C117 C120 1.485 . S
N118 C117 1.317 . S
N118 N122 1.370 . S
N119 C117 1.348 . S
N119 C121 1.346 . S
C120 C117 1.485 . S
C120 H124 0.960 . S
C120 H125 0.961 1_565 S
C120 H126 0.960 . S
C121 N119 1.346 . S
C121 N122 1.307 . S
C121 C123 1.486 . S
N122 N118 1.370 . S
N122 C121 1.307 . S
C123 C121 1.486 . S
C123 H127 0.960 . S
C123 H128 0.960 . S
C123 H129 0.959 . S
H124 C120 0.960 . S
H125 C120 0.961 1_545 S
H126 C120 0.960 . S
H127 C123 0.960 . S
H128 C123 0.960 . S
H129 C123 0.959 . S
C130 N131 1.317 . S
C130 N132 1.348 . S
C130 C133 1.485 . S
N131 C130 1.317 . S
N131 N135 1.370 . S
N132 C130 1.348 . S
N132 C134 1.346 . S
C133 C130 1.485 . S
C133 H137 0.960 . S
C133 H138 0.961 . S
C133 H139 0.960 . S
C134 N132 1.346 . S
C134 N135 1.307 . S
C134 C136 1.486 . S
N135 N131 1.370 . S
N135 C134 1.307 . S
C136 C134 1.486 . S
C136 H140 0.960 . S
C136 H141 0.960 . S
C136 H142 0.959 . S
H137 C133 0.960 . S
H138 C133 0.961 . S
H139 C133 0.960 . S
H140 C136 0.960 . S
H141 C136 0.960 . S
H142 C136 0.959 . S
C143 N144 1.317 . S
C143 N145 1.348 . S
C143 C146 1.485 . S
N144 C143 1.317 . S
N144 N148 1.370 . S
N145 C143 1.348 . S
N145 C147 1.346 . S
C146 C143 1.485 . S
C146 H150 0.960 . S
C146 H151 0.961 . S
C146 H152 0.960 . S
C147 N145 1.346 . S
C147 N148 1.307 . S
C147 C149 1.486 . S
N148 N144 1.370 . S
N148 C147 1.307 . S
C149 C147 1.486 . S
C149 H153 0.960 . S
C149 H154 0.960 . S
C149 H155 0.959 . S
H150 C146 0.960 . S
H151 C146 0.961 . S
H152 C146 0.960 . S
H153 C149 0.960 . S
H154 C149 0.960 . S
H155 C149 0.959 . S
C156 N157 1.317 . S
C156 N158 1.348 . S
C156 C159 1.485 . S
N157 C156 1.317 . S
N157 N161 1.370 . S
N158 C156 1.348 . S
N158 C160 1.346 . S
C159 C156 1.485 . S
C159 H163 0.960 . S
C159 H164 0.961 . S
C159 H165 0.960 . S
C160 N158 1.346 . S
C160 N161 1.307 . S
C160 C162 1.486 . S
N161 N157 1.370 . S
N161 C160 1.307 . S
C162 C160 1.486 . S
C162 H166 0.960 . S
C162 H167 0.960 . S
C162 H168 0.959 . S
H163 C159 0.960 . S
H164 C159 0.961 . S
H165 C159 0.960 . S
H166 C162 0.960 . S
H167 C162 0.960 . S
H168 C162 0.959 . S
C169 N170 1.317 . S
C169 N171 1.348 . S
C169 C172 1.485 . S
N170 C169 1.317 . S
N170 N174 1.370 . S
N171 C169 1.348 . S
N171 C173 1.346 . S
C172 C169 1.485 . S
C172 H176 0.960 . S
C172 H177 0.961 . S
C172 H178 0.960 . S
C173 N171 1.346 . S
C173 N174 1.307 . S
C173 C175 1.486 . S
N174 N170 1.370 . S
N174 C173 1.307 . S
C175 C173 1.486 . S
C175 H179 0.960 . S
C175 H180 0.960 . S
C175 H181 0.959 . S
H176 C172 0.960 . S
H177 C172 0.961 . S
H178 C172 0.960 . S
H179 C175 0.960 . S
H180 C175 0.960 . S
H181 C175 0.959 . S
C182 N183 1.317 . S
C182 N184 1.348 . S
C182 C185 1.485 . S
N183 C182 1.317 . S
N183 N187 1.370 . S
N184 C182 1.348 . S
N184 C186 1.346 . S
C185 C182 1.485 . S
C185 H189 0.960 . S
C185 H190 0.961 . S
C185 H191 0.960 . S
C186 N184 1.346 . S
C186 N187 1.307 . S
C186 C188 1.486 . S
N187 N183 1.370 . S
N187 C186 1.307 . S
C188 C186 1.486 . S
C188 H192 0.960 . S
C188 H193 0.960 . S
C188 H194 0.959 . S
H189 C185 0.960 . S
H190 C185 0.961 . S
H191 C185 0.960 . S
H192 C188 0.960 . S
H193 C188 0.960 . S
H194 C188 0.959 . S
C195 N196 1.317 . S
C195 N197 1.348 . S
C195 C198 1.485 . S
N196 C195 1.317 . S
N196 N200 1.370 . S
N197 C195 1.348 . S
N197 C199 1.346 . S
C198 C195 1.485 . S
C198 H202 0.960 . S
C198 H203 0.970 . S
C198 H204 0.960 . S
C199 N197 1.346 . S
C199 N200 1.307 . S
C199 C201 1.486 1_556 S
N200 N196 1.370 . S
N200 C199 1.307 . S
C201 C199 1.486 1_554 S
C201 H205 0.960 . S
C201 H206 0.960 . S
C201 H207 0.959 . S
H202 C198 0.960 . S
H203 C198 0.970 . S
H204 C198 0.960 . S
H205 C201 0.960 . S
H206 C201 0.960 . S
H207 C201 0.959 . S
O208 Cd209 2.223 . S
O208 C216 1.315 . S
Cd209 O208 2.223 . S
Cd209 O212 2.297 . S
Cd209 O213 2.439 . S
Cd209 O219 2.240 . S
Cd210 O211 2.240 . S
Cd210 O218 2.223 . S
Cd210 O220 2.297 1_565 S
Cd210 O221 2.439 . S
O211 Cd210 2.240 . S
O211 C216 1.279 . S
O212 Cd209 2.297 . S
O212 C214 1.247 . S
O213 Cd209 2.439 . S
O213 C214 1.208 . S
C214 O212 1.247 . S
C214 O213 1.208 . S
C215 O220 1.247 . S
C215 O221 1.208 1_545 S
C216 O208 1.315 . S
C216 O211 1.279 . S
C217 O218 1.315 . S
C217 O219 1.279 . S
O218 Cd210 2.223 . S
O218 C217 1.315 . S
O219 Cd209 2.240 . S
O219 C217 1.279 . S
O220 Cd210 2.297 1_545 S
O220 C215 1.247 . S
O221 Cd210 2.439 . S
O221 C215 1.208 1_565 S
O222 Cd223 2.223 . S
O222 C230 1.315 . S
Cd223 O222 2.223 . S
Cd223 O226 2.297 . S
Cd223 O227 2.439 . S
Cd223 O233 2.240 . S
Cd224 O225 2.240 . S
Cd224 O232 2.223 . S
Cd224 O234 2.297 . S
Cd224 O235 2.439 . S
O225 Cd224 2.240 . S
O225 C230 1.279 . S
O226 Cd223 2.297 . S
O226 C228 1.247 . S
O227 Cd223 2.439 . S
O227 C228 1.208 . S
C228 O226 1.247 . S
C228 O227 1.208 . S
C229 O234 1.247 . S
C229 O235 1.208 . S
C230 O222 1.315 . S
C230 O225 1.279 . S
C231 O232 1.315 . S
C231 O233 1.279 . S
O232 Cd224 2.223 . S
O232 C231 1.315 . S
O233 Cd223 2.240 . S
O233 C231 1.279 . S
O234 Cd224 2.297 . S
O234 C229 1.247 . S
O235 Cd224 2.439 . S
O235 C229 1.208 . S
O236 Cd237 2.223 1_556 S
O236 C244 1.315 . S
Cd237 O236 2.223 1_554 S
Cd237 O240 2.297 . S
Cd237 O241 2.439 . S
Cd237 O247 2.241 . S
Cd238 O239 2.240 . S
Cd238 O246 2.223 . S
Cd238 O248 2.297 . S
Cd238 O249 2.439 1_556 S
O239 Cd238 2.240 . S
O239 C244 1.279 . S
O240 Cd237 2.297 . S
O240 C242 1.247 . S
O241 Cd237 2.439 . S
O241 C242 1.208 . S
C242 O240 1.247 . S
C242 O241 1.208 . S
C243 O248 1.247 1_554 S
C243 O249 1.208 . S
C244 O236 1.315 . S
C244 O239 1.279 . S
C245 O246 1.315 . S
C245 O247 1.275 1_556 S
O246 Cd238 2.223 . S
O246 C245 1.315 . S
O247 Cd237 2.241 . S
O247 C245 1.275 1_554 S
O248 Cd238 2.297 . S
O248 C243 1.247 1_556 S
O249 Cd238 2.439 1_554 S
O249 C243 1.208 . S
O250 Cd251 2.223 1_565 S
O250 C258 1.315 1_565 S
Cd251 O250 2.223 1_545 S
Cd251 O254 2.297 . S
Cd251 O255 2.439 . S
Cd251 O261 2.240 . S
Cd252 O253 2.240 . S
Cd252 O260 2.223 . S
Cd252 O262 2.297 . S
Cd252 O263 2.439 . S
O253 Cd252 2.240 . S
O253 C258 1.279 . S
O254 Cd251 2.297 . S
O254 C256 1.247 . S
O255 Cd251 2.439 . S
O255 C256 1.208 . S
C256 O254 1.247 . S
C256 O255 1.208 . S
C257 O262 1.247 . S
C257 O263 1.208 . S
C258 O250 1.315 1_545 S
C258 O253 1.279 . S
C259 O260 1.314 1_565 S
C259 O261 1.272 1_565 S
O260 Cd252 2.223 . S
O260 C259 1.314 1_545 S
O261 Cd251 2.240 . S
O261 C259 1.272 1_545 S
O262 Cd252 2.297 . S
O262 C257 1.247 . S
O263 Cd252 2.439 . S
O263 C257 1.208 . S
O264 Cd265 2.223 . S
O264 C272 1.315 . S
Cd265 O264 2.223 . S
Cd265 O268 2.297 . S
Cd265 O269 2.439 . S
Cd265 O275 2.240 . S
Cd266 O267 2.240 . S
Cd266 O274 2.223 . S
Cd266 O276 2.297 . S
Cd266 O277 2.439 . S
O267 Cd266 2.240 . S
O267 C272 1.279 . S
O268 Cd265 2.297 . S
O268 C270 1.247 . S
O269 Cd265 2.439 . S
O269 C270 1.208 . S
C270 O268 1.247 . S
C270 O269 1.208 . S
C271 O276 1.247 . S
C271 O277 1.208 . S
C272 O264 1.315 . S
C272 O267 1.279 . S
C273 O274 1.315 . S
C273 O275 1.279 . S
O274 Cd266 2.223 . S
O274 C273 1.315 . S
O275 Cd265 2.240 . S
O275 C273 1.279 . S
O276 Cd266 2.297 . S
O276 C271 1.247 . S
O277 Cd266 2.439 . S
O277 C271 1.208 . S
O278 Cd279 2.223 . S
O278 C286 1.315 . S
Cd279 O278 2.223 . S
Cd279 O282 2.297 . S
Cd279 O283 2.439 . S
Cd279 O289 2.240 . S
Cd280 O281 2.240 . S
Cd280 O288 2.223 . S
Cd280 O290 2.297 . S
Cd280 O291 2.439 . S
O281 Cd280 2.240 . S
O281 C286 1.279 . S
O282 Cd279 2.297 . S
O282 C284 1.247 . S
O283 Cd279 2.439 . S
O283 C284 1.208 . S
C284 O282 1.247 . S
C284 O283 1.208 . S
C285 O290 1.247 . S
C285 O291 1.208 . S
C286 O278 1.315 . S
C286 O281 1.279 . S
C287 O288 1.315 . S
C287 O289 1.279 . S
O288 Cd280 2.223 . S
O288 C287 1.315 . S
O289 Cd279 2.240 . S
O289 C287 1.279 . S
O290 Cd280 2.297 . S
O290 C285 1.247 . S
O291 Cd280 2.439 . S
O291 C285 1.208 . S
O292 Cd293 2.223 . S
O292 C300 1.315 . S
Cd293 O292 2.223 . S
Cd293 O296 2.297 . S
Cd293 O297 2.439 . S
Cd293 O303 2.240 . S
Cd294 O295 2.240 . S
Cd294 O302 2.223 . S
Cd294 O304 2.297 . S
Cd294 O305 2.439 . S
O295 Cd294 2.240 . S
O295 C300 1.279 . S
O296 Cd293 2.297 . S
O296 C298 1.247 . S
O297 Cd293 2.439 . S
O297 C298 1.208 . S
C298 O296 1.247 . S
C298 O297 1.208 . S
C299 O304 1.247 . S
C299 O305 1.208 . S
C300 O292 1.315 . S
C300 O295 1.279 . S
C301 O302 1.315 . S
C301 O303 1.279 . S
O302 Cd294 2.223 . S
O302 C301 1.315 . S
O303 Cd293 2.240 . S
O303 C301 1.279 . S
O304 Cd294 2.297 . S
O304 C299 1.247 . S
O305 Cd294 2.439 . S
O305 C299 1.208 . S
O306 Cd307 2.223 1_545 S
O306 C314 1.315 . S
Cd307 O306 2.223 1_565 S
Cd307 O310 2.297 . S
Cd307 O311 2.439 . S
Cd307 O317 2.240 1_565 S
Cd308 O309 2.240 . S
Cd308 O316 2.223 . S
Cd308 O318 2.297 . S
Cd308 O319 2.439 1_545 S
O309 Cd308 2.240 . S
O309 C314 1.279 . S
O310 Cd307 2.297 . S
O310 C312 1.247 . S
O311 Cd307 2.439 . S
O311 C312 1.208 . S
C312 O310 1.247 . S
C312 O311 1.208 . S
C313 O318 1.247 1_565 S
C313 O319 1.208 . S
C314 O306 1.315 . S
C314 O309 1.279 . S
C315 O316 1.315 . S
C315 O317 1.279 . S
O316 Cd308 2.223 . S
O316 C315 1.315 . S
O317 Cd307 2.240 1_545 S
O317 C315 1.279 . S
O318 Cd308 2.297 . S
O318 C313 1.247 1_545 S
O319 Cd308 2.439 1_565 S
O319 C313 1.208 . S
O320 Cd321 2.223 . S
O320 C328 1.315 . S
Cd321 O320 2.223 . S
Cd321 O324 2.297 1_556 S
Cd321 O325 2.439 1_655 S
Cd321 O331 2.240 . S
Cd322 O323 2.240 1_455 S
Cd322 O330 2.223 1_455 S
Cd322 O332 2.297 . S
Cd322 O333 2.439 . S
O323 Cd322 2.240 1_655 S
O323 C328 1.279 . S
O324 Cd321 2.297 1_554 S
O324 C326 1.247 1_654 S
O325 Cd321 2.439 1_455 S
O325 C326 1.208 . S
C326 O324 1.247 1_456 S
C326 O325 1.208 . S
C327 O332 1.247 . S
C327 O333 1.208 . S
C328 O320 1.315 . S
C328 O323 1.279 . S
C329 O330 1.315 . S
C329 O331 1.279 . S
O330 Cd322 2.223 1_655 S
O330 C329 1.315 . S
O331 Cd321 2.240 . S
O331 C329 1.279 . S
O332 Cd322 2.297 . S
O332 C327 1.247 . S
O333 Cd322 2.439 . S
O333 C327 1.208 . S
O334 Cd335 2.223 . S
O334 C342 1.315 . S
Cd335 O334 2.223 . S
Cd335 O338 2.297 . S
Cd335 O339 2.439 . S
Cd335 O345 2.240 . S
Cd336 O337 2.240 . S
Cd336 O344 2.223 . S
Cd336 O346 2.297 . S
Cd336 O347 2.439 . S
O337 Cd336 2.240 . S
O337 C342 1.279 . S
O338 Cd335 2.297 . S
O338 C340 1.247 . S
O339 Cd335 2.439 . S
O339 C340 1.208 . S
C340 O338 1.247 . S
C340 O339 1.208 . S
C341 O346 1.247 . S
C341 O347 1.208 . S
C342 O334 1.315 . S
C342 O337 1.279 . S
C343 O344 1.315 . S
C343 O345 1.279 . S
O344 Cd336 2.223 . S
O344 C343 1.315 . S
O345 Cd335 2.240 . S
O345 C343 1.279 . S
O346 Cd336 2.297 . S
O346 C341 1.247 . S
O347 Cd336 2.439 . S
O347 C341 1.208 . S
O348 Cd349 2.223 1_655 S
O348 C356 1.315 . S
Cd349 O348 2.223 1_455 S
Cd349 O352 2.297 . S
Cd349 O353 2.439 . S
Cd349 O359 2.240 . S
Cd350 O351 2.240 . S
Cd350 O358 2.223 . S
Cd350 O360 2.297 1_655 S
Cd350 O361 2.439 1_655 S
O351 Cd350 2.240 . S
O351 C356 1.279 . S
O352 Cd349 2.297 . S
O352 C354 1.247 . S
O353 Cd349 2.439 . S
O353 C354 1.208 . S
C354 O352 1.247 . S
C354 O353 1.208 . S
C355 O360 1.247 . S
C355 O361 1.208 . S
C356 O348 1.315 . S
C356 O351 1.279 . S
C357 O358 1.315 . S
C357 O359 1.279 1_655 S
O358 Cd350 2.223 . S
O358 C357 1.315 . S
O359 Cd349 2.240 . S
O359 C357 1.279 1_455 S
O360 Cd350 2.297 1_455 S
O360 C355 1.247 . S
O361 Cd350 2.439 1_455 S
O361 C355 1.208 . S
O362 Cd363 2.223 . S
O362 C370 1.315 . S
Cd363 O362 2.223 . S
Cd363 O366 2.297 . S
Cd363 O367 2.439 . S
Cd363 O373 2.240 . S
Cd364 O365 2.240 . S
Cd364 O372 2.223 . S
Cd364 O374 2.297 . S
Cd364 O375 2.439 . S
O365 Cd364 2.240 . S
O365 C370 1.279 . S
O366 Cd363 2.297 . S
O366 C368 1.247 . S
O367 Cd363 2.439 . S
O367 C368 1.208 . S
C368 O366 1.247 . S
C368 O367 1.208 . S
C369 O374 1.247 . S
C369 O375 1.208 . S
C370 O362 1.315 . S
C370 O365 1.279 . S
C371 O372 1.315 . S
C371 O373 1.279 . S
O372 Cd364 2.223 . S
O372 C371 1.315 . S
O373 Cd363 2.240 . S
O373 C371 1.279 . S
O374 Cd364 2.297 . S
O374 C369 1.247 . S
O375 Cd364 2.439 . S
O375 C369 1.208 . S
C376 C377 1.387 . S
C376 H380 0.950 . S
C376 C385 1.390 . S
C377 C376 1.387 . S
C377 C379 1.387 . S
H378 C385 0.950 . S
C379 C377 1.387 . S
C379 C381 1.390 . S
C379 H383 0.950 . S
H380 C376 0.950 . S
C381 C379 1.390 . S
C381 C382 1.387 . S
C381 H384 0.950 . S
C382 C381 1.387 . S
C382 C385 1.387 . S
H383 C379 0.950 . S
H384 C381 0.950 . S
C385 C376 1.390 . S
C385 H378 0.950 . S
C385 C382 1.387 . S
C386 C387 1.387 . S
C386 H390 0.950 . S
C386 C395 1.390 1_655 S
C387 C386 1.387 . S
C387 C389 1.387 1_655 S
H388 C395 0.950 . S
C389 C387 1.387 1_455 S
C389 C391 1.390 . S
C389 H393 0.950 1_455 S
H390 C386 0.950 . S
C391 C389 1.390 . S
C391 C392 1.387 . S
C391 H394 0.950 . S
C392 C391 1.387 . S
C392 C395 1.387 . S
H393 C389 0.950 1_655 S
H394 C391 0.950 . S
C395 C386 1.390 1_455 S
C395 H388 0.950 . S
C395 C392 1.387 . S
C396 C397 1.387 . S
C396 H400 0.950 . S
C396 C405 1.390 . S
C397 C396 1.387 . S
C397 C399 1.387 . S
H398 C405 0.950 . S
C399 C397 1.387 . S
C399 C401 1.390 . S
C399 H403 0.950 . S
H400 C396 0.950 . S
C401 C399 1.390 . S
C401 C402 1.387 . S
C401 H404 0.950 . S
C402 C401 1.387 . S
C402 C405 1.387 . S
H403 C399 0.950 . S
H404 C401 0.950 . S
C405 C396 1.390 . S
C405 H398 0.950 . S
C405 C402 1.387 . S
C406 C407 1.387 1_655 S
C406 H410 0.950 . S
C406 C415 1.390 . S
C407 C406 1.387 1_455 S
C407 C409 1.387 1_565 S
H408 C415 0.950 . S
C409 C407 1.387 1_545 S
C409 C411 1.390 1_455 S
C409 H413 0.950 . S
H410 C406 0.950 . S
C411 C409 1.390 1_655 S
C411 C412 1.387 . S
C411 H414 0.950 . S
C412 C411 1.387 . S
C412 C415 1.387 1_545 S
H413 C409 0.950 . S
H414 C411 0.950 . S
C415 C406 1.390 . S
C415 H408 0.950 . S
C415 C412 1.387 1_565 S
C416 C417 1.387 . S
C416 H420 0.950 . S
C416 C425 1.390 . S
C417 C416 1.387 . S
C417 C419 1.387 . S
H418 C425 0.950 . S
C419 C417 1.387 . S
C419 C421 1.390 . S
C419 H423 0.950 . S
H420 C416 0.950 . S
C421 C419 1.390 . S
C421 C422 1.387 . S
C421 H424 0.950 . S
C422 C421 1.387 . S
C422 C425 1.387 . S
H423 C419 0.950 . S
H424 C421 0.950 . S
C425 C416 1.390 . S
C425 H418 0.950 . S
C425 C422 1.387 . S
C426 C427 1.387 . S
C426 H430 0.950 . S
C426 C435 1.390 . S
C427 C426 1.387 . S
C427 C429 1.387 . S
H428 C435 0.950 . S
C429 C427 1.387 . S
C429 C431 1.390 . S
C429 H433 0.950 . S
H430 C426 0.950 . S
C431 C429 1.390 . S
C431 C432 1.387 . S
C431 H434 0.950 . S
C432 C431 1.387 . S
C432 C435 1.387 . S
H433 C429 0.950 . S
H434 C431 0.950 . S
C435 C426 1.390 . S
C435 H428 0.950 . S
C435 C432 1.387 . S
C436 C437 1.387 . S
C436 H440 0.950 . S
C436 C445 1.390 . S
C437 C436 1.387 . S
C437 C439 1.387 . S
H438 C445 0.950 . S
C439 C437 1.387 . S
C439 C441 1.390 . S
C439 H443 0.950 . S
H440 C436 0.950 . S
C441 C439 1.390 . S
C441 C442 1.387 . S
C441 H444 0.950 . S
C442 C441 1.387 . S
C442 C445 1.387 . S
H443 C439 0.950 . S
H444 C441 0.950 . S
C445 C436 1.390 . S
C445 H438 0.950 . S
C445 C442 1.387 . S
C446 C447 1.387 . S
C446 H450 0.950 . S
C446 C455 1.390 . S
C447 C446 1.387 . S
C447 C449 1.387 . S
H448 C455 0.950 . S
C449 C447 1.387 . S
C449 C451 1.390 . S
C449 H453 0.950 . S
H450 C446 0.950 . S
C451 C449 1.390 . S
C451 C452 1.387 . S
C451 H454 0.942 1_565 S
C452 C451 1.387 . S
C452 C455 1.387 . S
H453 C449 0.950 . S
H454 C451 0.942 1_545 S
C455 C446 1.390 . S
C455 H448 0.950 . S
C455 C452 1.387 . S
C456 C457 1.387 . S
C456 H460 0.950 . S
C456 C465 1.390 . S
C457 C456 1.387 . S
C457 C459 1.387 . S
H458 C465 0.950 . S
C459 C457 1.387 . S
C459 C461 1.390 . S
C459 H463 0.950 . S
H460 C456 0.950 . S
C461 C459 1.390 . S
C461 C462 1.387 . S
C461 H464 0.950 . S
C462 C461 1.387 . S
C462 C465 1.387 . S
H463 C459 0.950 . S
H464 C461 0.950 . S
C465 C456 1.390 . S
C465 H458 0.950 . S
C465 C462 1.387 . S
C466 C467 1.387 . S
C466 H470 0.950 . S
C466 C475 1.390 . S
C467 C466 1.387 . S
C467 C469 1.387 . S
H468 C475 0.950 . S
C469 C467 1.387 . S
C469 C471 1.390 . S
C469 H473 0.950 . S
H470 C466 0.950 . S
C471 C469 1.390 . S
C471 C472 1.387 . S
C471 H474 0.950 . S
C472 C471 1.387 . S
C472 C475 1.387 . S
H473 C469 0.950 . S
H474 C471 0.950 . S
C475 C466 1.390 . S
C475 H468 0.950 . S
C475 C472 1.387 . S
C476 C477 1.387 . S
C476 H480 0.950 . S
C476 C485 1.390 . S
C477 C476 1.387 . S
C477 C479 1.387 . S
H478 C485 0.950 . S
C479 C477 1.387 . S
C479 C481 1.390 . S
C479 H483 0.950 . S
H480 C476 0.950 . S
C481 C479 1.390 . S
C481 C482 1.387 . S
C481 H484 0.950 . S
C482 C481 1.387 . S
C482 C485 1.387 . S
H483 C479 0.950 . S
H484 C481 0.950 . S
C485 C476 1.390 . S
C485 H478 0.950 . S
C485 C482 1.387 . S
C486 C487 1.387 . S
C486 H490 0.950 . S
C486 C495 1.390 . S
C487 C486 1.387 . S
C487 C489 1.387 . S
H488 C495 0.950 . S
C489 C487 1.387 . S
C489 C491 1.390 . S
C489 H493 0.950 . S
H490 C486 0.950 . S
C491 C489 1.390 . S
C491 C492 1.387 . S
C491 H494 0.950 . S
C492 C491 1.387 . S
C492 C495 1.387 . S
H493 C489 0.950 . S
H494 C491 0.950 . S
C495 C486 1.390 . S
C495 H488 0.950 . S
C495 C492 1.387 . S
C496 C497 1.387 . S
C496 H500 0.950 . S
C496 C505 1.390 . S
C497 C496 1.387 . S
C497 C499 1.387 . S
H498 C505 0.950 . S
C499 C497 1.387 . S
C499 C501 1.390 . S
C499 H503 0.950 . S
H500 C496 0.950 . S
C501 C499 1.390 . S
C501 C502 1.387 . S
C501 H504 0.950 . S
C502 C501 1.387 . S
C502 C505 1.387 . S
H503 C499 0.950 . S
H504 C501 0.950 . S
C505 C496 1.390 . S
C505 H498 0.950 . S
C505 C502 1.387 . S
C506 C507 1.387 . S
C506 H510 0.950 . S
C506 C515 1.390 . S
C507 C506 1.387 . S
C507 C509 1.387 . S
H508 C515 0.950 . S
C509 C507 1.387 . S
C509 C511 1.390 . S
C509 H513 0.950 . S
H510 C506 0.950 . S
C511 C509 1.390 . S
C511 C512 1.387 . S
C511 H514 0.950 . S
C512 C511 1.387 . S
C512 C515 1.387 . S
H513 C509 0.950 . S
H514 C511 0.950 . S
C515 C506 1.390 . S
C515 H508 0.950 . S
C515 C512 1.387 . S
C516 C517 1.387 . S
C516 H520 0.950 . S
C516 C525 1.390 . S
C517 C516 1.387 . S
C517 C519 1.387 . S
H518 C525 0.950 . S
C519 C517 1.387 . S
C519 C521 1.390 . S
C519 H523 0.950 . S
H520 C516 0.950 . S
C521 C519 1.390 . S
C521 C522 1.387 . S
C521 H524 0.950 . S
C522 C521 1.387 . S
C522 C525 1.387 . S
H523 C519 0.950 . S
H524 C521 0.950 . S
C525 C516 1.390 . S
C525 H518 0.950 . S
C525 C522 1.387 . S
C526 C527 1.387 . S
C526 H530 0.950 . S
C526 C535 1.390 . S
C527 C526 1.387 . S
C527 C529 1.387 . S
H528 C535 0.950 . S
C529 C527 1.387 . S
C529 C531 1.390 . S
C529 H533 0.950 . S
H530 C526 0.950 . S
C531 C529 1.390 . S
C531 C532 1.387 . S
C531 H534 0.950 . S
C532 C531 1.387 . S
C532 C535 1.387 . S
H533 C529 0.950 . S
H534 C531 0.950 . S
C535 C526 1.390 . S
C535 H528 0.950 . S
C535 C532 1.387 . S
C536 C537 1.387 . S
C536 H540 0.950 . S
C536 C545 1.390 . S
C537 C536 1.387 . S
C537 C539 1.387 . S
H538 C545 0.950 . S
C539 C537 1.387 . S
C539 C541 1.390 . S
C539 H543 0.950 . S
H540 C536 0.950 . S
C541 C539 1.390 . S
C541 C542 1.387 . S
C541 H544 0.950 . S
C542 C541 1.387 . S
C542 C545 1.387 . S
H543 C539 0.950 . S
H544 C541 0.950 . S
C545 C536 1.390 . S
C545 H538 0.950 . S
C545 C542 1.387 . S
C546 C547 1.387 . S
C546 H550 0.950 . S
C546 C555 1.390 . S
C547 C546 1.387 . S
C547 C549 1.387 . S
H548 C555 0.950 . S
C549 C547 1.387 . S
C549 C551 1.390 . S
C549 H553 0.950 . S
H550 C546 0.950 . S
C551 C549 1.390 . S
C551 C552 1.387 . S
C551 H554 0.950 . S
C552 C551 1.387 . S
C552 C555 1.387 . S
H553 C549 0.950 . S
H554 C551 0.950 . S
C555 C546 1.390 . S
C555 H548 0.950 . S
C555 C552 1.387 . S
C556 C557 1.387 . S
C556 H560 0.950 . S
C556 C565 1.390 1_545 S
C557 C556 1.387 . S
C557 C559 1.387 1_556 S
H558 C565 0.950 . S
C559 C557 1.387 1_554 S
C559 C561 1.390 . S
C559 H563 0.950 . S
H560 C556 0.950 . S
C561 C559 1.390 . S
C561 C562 1.387 1_545 S
C561 H564 0.950 . S
C562 C561 1.387 1_565 S
C562 C565 1.387 1_554 S
H563 C559 0.950 . S
H564 C561 0.950 . S
C565 C556 1.390 1_565 S
C565 H558 0.950 . S
C565 C562 1.387 1_556 S
C566 C567 1.387 . S
C566 H570 0.950 . S
C566 C575 1.390 . S
C567 C566 1.387 . S
C567 C569 1.387 . S
H568 C575 0.950 . S
C569 C567 1.387 . S
C569 C571 1.390 . S
C569 H573 0.950 . S
H570 C566 0.950 . S
C571 C569 1.390 . S
C571 C572 1.387 . S
C571 H574 0.950 . S
C572 C571 1.387 . S
C572 C575 1.387 . S
H573 C569 0.950 . S
H574 C571 0.950 . S
C575 C566 1.390 . S
C575 H568 0.950 . S
C575 C572 1.387 . S
C576 C577 1.387 1_545 S
C576 H580 0.950 1_545 S
C576 C585 1.390 . S
C577 C576 1.387 1_565 S
C577 C579 1.387 1_565 S
H578 C585 0.950 . S
C579 C577 1.387 1_545 S
C579 C581 1.390 . S
C579 H583 0.950 . S
H580 C576 0.950 1_565 S
C581 C579 1.390 . S
C581 C582 1.387 . S
C581 H584 0.950 . S
C582 C581 1.387 . S
C582 C585 1.387 . S
H583 C579 0.950 . S
H584 C581 0.950 . S
C585 C576 1.390 . S
C585 H578 0.950 . S
C585 C582 1.387 . S
C586 C587 1.387 . S
C586 H590 0.950 . S
C586 C595 1.390 . S
C587 C586 1.387 . S
C587 C589 1.387 . S
H588 C595 0.950 . S
C589 C587 1.387 . S
C589 C591 1.390 . S
C589 H593 0.950 . S
H590 C586 0.950 . S
C591 C589 1.390 . S
C591 C592 1.387 . S
C591 H594 0.950 . S
C592 C591 1.387 . S
C592 C595 1.387 . S
H593 C589 0.950 . S
H594 C591 0.950 . S
C595 C586 1.390 . S
C595 H588 0.950 . S
C595 C592 1.387 . S
C596 C597 1.387 1_545 S
C596 H600 0.950 . S
C596 C605 1.390 . S
C597 C596 1.387 1_565 S
C597 C599 1.387 . S
H598 C605 0.950 . S
C599 C597 1.387 . S
C599 C601 1.388 . S
C599 H603 0.950 . S
H600 C596 0.950 . S
C601 C599 1.388 . S
C601 C602 1.389 1_565 S
C601 H604 0.950 . S
C602 C601 1.389 1_545 S
C602 C605 1.387 . S
H603 C599 0.950 . S
H604 C601 0.950 . S
C605 C596 1.390 . S
C605 H598 0.950 . S
C605 C602 1.387 . S
C606 C607 1.387 . S
C606 H610 0.950 . S
C606 C615 1.390 . S
C607 C606 1.387 . S
C607 C609 1.387 . S
H608 C615 0.950 . S
C609 C607 1.387 . S
C609 C611 1.390 . S
C609 H613 0.950 . S
H610 C606 0.950 . S
C611 C609 1.390 . S
C611 C612 1.387 . S
C611 H614 0.950 . S
C612 C611 1.387 . S
C612 C615 1.387 . S
H613 C609 0.950 . S
H614 C611 0.950 . S
C615 C606 1.390 . S
C615 H608 0.950 . S
C615 C612 1.387 . S
C616 C617 1.387 . S
C616 H620 0.950 . S
C616 C625 1.390 . S
C617 C616 1.387 . S
C617 C619 1.387 . S
H618 C625 0.950 . S
C619 C617 1.387 . S
C619 C621 1.390 . S
C619 H623 0.950 . S
H620 C616 0.950 . S
C621 C619 1.390 . S
C621 C622 1.387 . S
C621 H624 0.950 . S
C622 C621 1.387 . S
C622 C625 1.387 . S
H623 C619 0.950 . S
H624 C621 0.950 . S
C625 C616 1.390 . S
C625 H618 0.950 . S
C625 C622 1.387 . S
C626 C627 1.387 . S
C626 H630 0.950 . S
C626 C635 1.390 . S
C627 C626 1.387 . S
C627 C629 1.387 . S
H628 C635 0.950 . S
C629 C627 1.387 . S
C629 C631 1.390 . S
C629 H633 0.950 . S
H630 C626 0.950 . S
C631 C629 1.390 . S
C631 C632 1.387 . S
C631 H634 0.950 . S
C632 C631 1.387 . S
C632 C635 1.387 . S
H633 C629 0.950 . S
H634 C631 0.950 . S
C635 C626 1.390 . S
C635 H628 0.950 . S
C635 C632 1.387 . S
C636 C637 1.387 . S
C636 H640 0.950 . S
C636 C645 1.390 . S
C637 C636 1.387 . S
C637 C639 1.387 . S
H638 C645 0.950 . S
C639 C637 1.387 . S
C639 C641 1.390 . S
C639 H643 0.950 . S
H640 C636 0.950 . S
C641 C639 1.390 . S
C641 C642 1.387 . S
C641 H644 0.950 . S
C642 C641 1.387 . S
C642 C645 1.387 . S
H643 C639 0.950 . S
H644 C641 0.950 . S
C645 C636 1.390 . S
C645 H638 0.950 . S
C645 C642 1.387 . S
C646 C647 1.387 . S
C646 H650 0.950 . S
C646 C655 1.390 . S
C647 C646 1.387 . S
C647 C649 1.387 . S
H648 C655 0.950 . S
C649 C647 1.387 . S
C649 C651 1.390 . S
C649 H653 0.950 . S
H650 C646 0.950 . S
C651 C649 1.390 . S
C651 C652 1.387 . S
C651 H654 0.950 . S
C652 C651 1.387 . S
C652 C655 1.387 . S
H653 C649 0.950 . S
H654 C651 0.950 . S
C655 C646 1.390 . S
C655 H648 0.950 . S
C655 C652 1.387 . S
C656 C657 1.387 . S
C656 H660 0.950 . S
C656 C665 1.390 . S
C657 C656 1.387 . S
C657 C659 1.387 . S
H658 C665 0.950 . S
C659 C657 1.387 . S
C659 C661 1.390 . S
C659 H663 0.950 . S
H660 C656 0.950 . S
C661 C659 1.390 . S
C661 C662 1.387 . S
C661 H664 0.950 . S
C662 C661 1.387 . S
C662 C665 1.387 . S
H663 C659 0.950 . S
H664 C661 0.950 . S
C665 C656 1.390 . S
C665 H658 0.950 . S
C665 C662 1.387 . S
C666 C667 1.387 . S
C666 H670 0.950 . S
C666 C675 1.390 1_455 S
C667 C666 1.387 . S
C667 C669 1.387 . S
H668 C675 0.950 . S
C669 C667 1.387 . S
C669 C671 1.390 1_455 S
C669 H673 0.950 . S
H670 C666 0.950 . S
C671 C669 1.390 1_655 S
C671 C672 1.387 . S
C671 H674 0.950 . S
C672 C671 1.387 . S
C672 C675 1.387 . S
H673 C669 0.950 . S
H674 C671 0.950 . S
C675 C666 1.390 1_655 S
C675 H668 0.950 . S
C675 C672 1.387 . S
C676 C677 1.387 . S
C676 H680 0.950 . S
C676 C685 1.390 . S
C677 C676 1.387 . S
C677 C679 1.387 . S
H678 C685 0.950 . S
C679 C677 1.387 . S
C679 C681 1.390 . S
C679 H683 0.950 . S
H680 C676 0.950 . S
C681 C679 1.390 . S
C681 C682 1.387 . S
C681 H684 0.950 . S
C682 C681 1.387 . S
C682 C685 1.387 . S
H683 C679 0.950 . S
H684 C681 0.950 . S
C685 C676 1.390 . S
C685 H678 0.950 . S
C685 C682 1.387 . S
C686 C687 1.387 . S
C686 H690 0.950 . S
C686 C695 1.390 1_655 S
C687 C686 1.387 . S
C687 C689 1.387 . S
H688 C695 0.950 . S
C689 C687 1.387 . S
C689 C691 1.390 . S
C689 H693 0.950 . S
H690 C686 0.950 . S
C691 C689 1.390 . S
C691 C692 1.387 1_655 S
C691 H694 0.950 1_655 S
C692 C691 1.387 1_455 S
C692 C695 1.387 . S
H693 C689 0.950 . S
H694 C691 0.950 1_455 S
C695 C686 1.390 1_455 S
C695 H688 0.950 . S
C695 C692 1.387 . S
C696 C697 1.387 . S
C696 H700 0.950 . S
C696 C705 1.390 . S
C697 C696 1.387 . S
C697 C699 1.387 . S
H698 C705 0.950 . S
C699 C697 1.387 . S
C699 C701 1.390 . S
C699 H703 0.950 . S
H700 C696 0.950 . S
C701 C699 1.390 . S
C701 C702 1.387 . S
C701 H704 0.950 . S
C702 C701 1.387 . S
C702 C705 1.387 . S
H703 C699 0.950 . S
H704 C701 0.950 . S
C705 C696 1.390 . S
C705 H698 0.950 . S
C705 C702 1.387 . S
C706 C707 1.387 . S
C706 H710 0.950 . S
C706 C715 1.390 . S
C707 C706 1.387 . S
C707 C709 1.387 . S
H708 C715 0.950 . S
C709 C707 1.387 . S
C709 C711 1.390 1_554 S
C709 H713 0.950 . S
H710 C706 0.950 . S
C711 C709 1.390 1_556 S
C711 C712 1.387 1_556 S
C711 H714 0.950 . S
C712 C711 1.387 1_554 S
C712 C715 1.387 . S
H713 C709 0.950 . S
H714 C711 0.950 . S
C715 C706 1.390 . S
C715 H708 0.950 . S
C715 C712 1.387 . S
C716 C717 1.387 . S
C716 H720 0.950 . S
C716 C725 1.390 . S
C717 C716 1.387 . S
C717 C719 1.387 . S
H718 C725 0.950 . S
C719 C717 1.387 . S
C719 C721 1.390 . S
C719 H723 0.950 . S
H720 C716 0.950 . S
C721 C719 1.390 . S
C721 C722 1.387 . S
C721 H724 0.950 . S
C722 C721 1.387 . S
C722 C725 1.387 . S
H723 C719 0.950 . S
H724 C721 0.950 . S
C725 C716 1.390 . S
C725 H718 0.950 . S
C725 C722 1.387 . S
C726 C727 1.387 . S
C726 H730 0.950 . S
C726 C735 1.390 . S
C727 C726 1.387 . S
C727 C729 1.387 . S
H728 C735 0.950 . S
C729 C727 1.387 . S
C729 C731 1.390 . S
C729 H733 0.950 . S
H730 C726 0.950 . S
C731 C729 1.390 . S
C731 C732 1.387 . S
C731 H734 0.950 . S
C732 C731 1.387 . S
C732 C735 1.387 . S
H733 C729 0.950 . S
H734 C731 0.950 . S
C735 C726 1.390 . S
C735 H728 0.950 . S
C735 C732 1.387 . S
C736 C737 1.387 . S
C736 H740 0.950 . S
C736 C745 1.390 . S
C737 C736 1.387 . S
C737 C739 1.387 . S
H738 C745 0.950 . S
C739 C737 1.387 . S
C739 C741 1.390 . S
C739 H743 0.950 . S
H740 C736 0.950 . S
C741 C739 1.390 . S
C741 C742 1.387 . S
C741 H744 0.950 . S
C742 C741 1.387 . S
C742 C745 1.387 . S
H743 C739 0.950 . S
H744 C741 0.950 . S
C745 C736 1.390 . S
C745 H738 0.950 . S
C745 C742 1.387 . S
C746 C747 1.387 . S
C746 H750 0.950 . S
C746 C755 1.390 1_556 S
C747 C746 1.387 . S
C747 C749 1.387 . S
H748 C755 0.950 . S
C749 C747 1.387 . S
C749 C751 1.390 1_556 S
C749 H753 0.950 . S
H750 C746 0.950 . S
C751 C749 1.390 1_554 S
C751 C752 1.387 . S
C751 H754 0.950 . S
C752 C751 1.387 . S
C752 C755 1.387 . S
H753 C749 0.950 . S
H754 C751 0.950 . S
C755 C746 1.390 1_554 S
C755 H748 0.950 . S
C755 C752 1.387 . S
C756 C757 1.387 . S
C756 H760 0.950 . S
C756 C765 1.390 . S
C757 C756 1.387 . S
C757 C759 1.387 . S
H758 C765 0.950 . S
C759 C757 1.387 . S
C759 C761 1.390 . S
C759 H763 0.950 . S
H760 C756 0.950 . S
C761 C759 1.390 . S
C761 C762 1.387 . S
C761 H764 0.950 . S
C762 C761 1.387 . S
C762 C765 1.387 . S
H763 C759 0.950 . S
H764 C761 0.950 . S
C765 C756 1.390 . S
C765 H758 0.950 . S
C765 C762 1.387 . S
C766 C767 1.387 1_554 S
C766 H770 0.950 . S
C766 C775 1.390 . S
C767 C766 1.387 1_556 S
C767 C769 1.387 . S
H768 C775 0.950 . S
C769 C767 1.387 . S
C769 C771 1.390 1_556 S
C769 H773 0.950 . S
H770 C766 0.950 . S
C771 C769 1.390 1_554 S
C771 C772 1.387 . S
C771 H774 0.950 . S
C772 C771 1.387 . S
C772 C775 1.387 . S
H773 C769 0.950 . S
H774 C771 0.950 . S
C775 C766 1.390 . S
C775 H768 0.950 . S
C775 C772 1.387 . S
C776 C777 1.387 . S
C776 H780 0.950 . S
C776 C785 1.390 . S
C777 C776 1.387 . S
C777 C779 1.387 . S
H778 C785 0.950 . S
C779 C777 1.387 . S
C779 C781 1.390 . S
C779 H783 0.950 . S
H780 C776 0.950 . S
C781 C779 1.390 . S
C781 C782 1.387 . S
C781 H784 0.950 . S
C782 C781 1.387 . S
C782 C785 1.387 . S
H783 C779 0.950 . S
H784 C781 0.950 . S
C785 C776 1.390 . S
C785 H778 0.950 . S
C785 C782 1.387 . S
C786 C787 1.387 . S
C786 H790 0.950 . S
C786 C795 1.390 . S
C787 C786 1.387 . S
C787 C789 1.387 . S
H788 C795 0.950 . S
C789 C787 1.387 . S
C789 C791 1.390 . S
C789 H793 0.950 . S
H790 C786 0.950 . S
C791 C789 1.390 . S
C791 C792 1.387 . S
C791 H794 0.950 . S
C792 C791 1.387 . S
C792 C795 1.387 . S
H793 C789 0.950 . S
H794 C791 0.950 . S
C795 C786 1.390 . S
C795 H788 0.950 . S
C795 C792 1.387 . S
C796 C797 1.387 . S
C796 H800 0.950 . S
C796 C805 1.390 . S
C797 C796 1.387 . S
C797 C799 1.387 . S
H798 C805 0.950 . S
C799 C797 1.387 . S
C799 C801 1.390 . S
C799 H803 0.950 . S
H800 C796 0.950 . S
C801 C799 1.390 . S
C801 C802 1.387 . S
C801 H804 0.950 . S
C802 C801 1.387 . S
C802 C805 1.387 . S
H803 C799 0.950 . S
H804 C801 0.950 . S
C805 C796 1.390 . S
C805 H798 0.950 . S
C805 C802 1.387 . S
C806 C807 1.387 . S
C806 H810 0.950 . S
C806 C815 1.390 . S
C807 C806 1.387 . S
C807 C809 1.387 . S
H808 C815 0.950 . S
C809 C807 1.387 . S
C809 C811 1.390 . S
C809 H813 0.950 . S
H810 C806 0.950 . S
C811 C809 1.390 . S
C811 C812 1.387 . S
C811 H814 0.950 . S
C812 C811 1.387 . S
C812 C815 1.387 . S
H813 C809 0.950 . S
H814 C811 0.950 . S
C815 C806 1.390 . S
C815 H808 0.950 . S
C815 C812 1.387 . S
C816 C817 1.387 . S
C816 H820 0.950 . S
C816 C825 1.390 . S
C817 C816 1.387 . S
C817 C819 1.387 . S
H818 C825 0.950 1_554 S
C819 C817 1.387 . S
C819 C821 1.390 . S
C819 H823 0.950 . S
H820 C816 0.950 . S
C821 C819 1.390 . S
C821 C822 1.387 . S
C821 H824 0.950 . S
C822 C821 1.387 . S
C822 C825 1.387 . S
H823 C819 0.950 . S
H824 C821 0.950 . S
C825 C816 1.390 . S
C825 H818 0.950 1_556 S
C825 C822 1.387 . S
C826 C827 1.387 . S
C826 H830 0.950 . S
C826 C835 1.390 . S
C827 C826 1.387 . S
C827 C829 1.387 . S
H828 C835 0.950 . S
C829 C827 1.387 . S
C829 C831 1.390 . S
C829 H833 0.950 . S
H830 C826 0.950 . S
C831 C829 1.390 . S
C831 C832 1.387 . S
C831 H834 0.950 . S
C832 C831 1.387 . S
C832 C835 1.387 . S
H833 C829 0.950 . S
H834 C831 0.950 . S
C835 C826 1.390 . S
C835 H828 0.950 . S
C835 C832 1.387 . S
C836 C837 1.387 . S
C836 H840 0.950 . S
C836 C845 1.390 . S
C837 C836 1.387 . S
C837 C839 1.387 . S
H838 C845 0.950 . S
C839 C837 1.387 . S
C839 C841 1.390 . S
C839 H843 0.950 . S
H840 C836 0.950 . S
C841 C839 1.390 . S
C841 C842 1.387 . S
C841 H844 0.950 . S
C842 C841 1.387 . S
C842 C845 1.387 . S
H843 C839 0.950 . S
H844 C841 0.950 . S
C845 C836 1.390 . S
C845 H838 0.950 . S
C845 C842 1.387 . S
C846 C847 1.387 . S
C846 H850 0.950 . S
C846 C855 1.390 . S
C847 C846 1.387 . S
C847 C849 1.387 . S
H848 C855 0.950 . S
C849 C847 1.387 . S
C849 C851 1.390 . S
C849 H853 0.950 . S
H850 C846 0.950 . S
C851 C849 1.390 . S
C851 C852 1.387 . S
C851 H854 0.950 . S
C852 C851 1.387 . S
C852 C855 1.387 . S
H853 C849 0.950 . S
H854 C851 0.950 . S
C855 C846 1.390 . S
C855 H848 0.950 . S
C855 C852 1.387 . S
C382 C216 1.444 1_556 S
C377 N66 1.432 . S
C392 C231 1.694 . S
C387 N79 1.716 . S
C397 N92 1.778 . S
C402 C244 1.822 . S
C412 C258 1.413 . S
C407 N54 1.497 . S
C422 C270 1.626 . S
C417 N131 1.751 . S
C432 C284 1.167 . S
C427 N158 1.170 . S
C437 N145 1.689 . S
C442 C298 1.650 . S
C452 C313 1.594 . S
C447 N118 1.610 . S
C457 N148 1.864 . S
C462 C329 1.809 . S
C472 C342 1.526 . S
C467 N122 1.504 . S
C477 N132 1.507 . S
C482 C327 1.412 . S
C492 C340 1.606 . S
C487 N161 1.543 . S
C497 N96 2.006 . S
C502 C356 2.026 . S
C507 N53 1.647 . S
C512 C355 1.616 . S
C517 N67 1.386 . S
C522 C354 1.310 . S
C527 N83 1.361 . S
C532 C357 1.408 . S
C537 N44 1.599 . S
C542 C259 1.660 . S
C547 N187 1.475 . S
C552 C257 1.482 . S
C562 C217 1.327 . S
C557 N197 1.324 . S
C572 C228 1.496 . S
C567 N106 1.511 . S
C577 N57 1.828 . S
C582 C273 1.854 . S
C592 C314 1.775 . S
C587 N144 1.771 . S
C602 C271 1.479 . S
C597 N119 1.441 . S
C612 C299 1.631 . S
C607 N157 1.639 . S
C622 C300 1.445 . S
C617 N183 1.433 . S
C627 N196 1.717 . S
C632 C315 1.695 . S
C637 N105 1.778 . S
C642 C272 1.822 . S
C652 C286 1.413 . S
C647 N171 1.496 . S
C657 N40 1.751 . S
C662 C242 1.626 . S
C672 C256 1.165 . S
C667 N2 1.169 . S
C682 C214 1.649 . S
C677 N15 1.688 . S
C692 C229 1.594 . S
C687 N27 1.609 . S
C697 N18 1.863 . S
C702 C343 1.809 . S
C707 N31 1.502 . S
C712 C328 1.525 1_554 S
C717 N41 1.507 . S
C722 C341 1.412 . S
C727 N5 1.543 . S
C732 C326 1.606 1_554 S
C742 C370 2.027 . S
C737 N109 2.007 . S
C752 C369 1.618 . S
C747 N170 1.646 . S
C762 C368 1.312 . S
C757 N184 1.386 . S
C767 N200 1.362 . S
C772 C371 1.409 . S
C777 N135 1.601 . S
C782 C287 1.651 . S
C792 C285 1.482 . S
C787 N70 1.476 . S
C802 C301 1.325 . S
C797 N80 1.322 . S
C812 C312 1.496 . S
C807 N93 1.510 . S
C817 N174 1.828 . S
C822 C245 1.854 . S
C832 C230 1.775 . S
C827 N14 1.771 . S
C837 N28 1.439 . S
C842 C243 1.479 . S
C852 C215 1.630 . S
C847 N1 1.640 . S
